500050
  -OEChem-10302200282D
 85 89  0     1  0  0  0  0  0999 V2000
    9.0991    2.3375    0.0000 O   0  0  0  0  0  0  0  0  0  0  0  0
    8.5991   -1.5285    0.0000 O   0  0  0  0  0  0  0  0  0  0  0  0
    6.8671   -0.5285    0.0000 O   0  0  0  0  0  0  0  0  0  0  0  0
   10.3312   -0.5285    0.0000 O   0  0  0  0  0  0  0  0  0  0  0  0
    7.0991    2.3375    0.0000 O   0  0  0  0  0  0  0  0  0  0  0  0
    8.5991    3.2035    0.0000 O   0  0  0  0  0  0  0  0  0  0  0  0
   10.5991    1.4715    0.0000 O   0  0  0  0  0  0  0  0  0  0  0  0
    6.8671   -1.5285    0.0000 O   0  0  0  0  0  0  0  0  0  0  0  0
    6.0010    0.9715    0.0000 O   0  0  0  0  0  0  0  0  0  0  0  0
   11.1972    0.9715    0.0000 O   0  0  0  0  0  0  0  0  0  0  0  0
   10.0991    5.8016    0.0000 O   0  0  0  0  0  0  0  0  0  0  0  0
   13.0991    4.0695    0.0000 O   0  0  0  0  0  0  0  0  0  0  0  0
    6.0010   -5.0285    0.0000 O   0  0  0  0  0  0  0  0  0  0  0  0
    9.4651   -5.0285    0.0000 O   0  0  0  0  0  0  0  0  0  0  0  0
    2.5369   -0.0285    0.0000 O   0  0  0  0  0  0  0  0  0  0  0  0
   12.9292   -3.0285    0.0000 O   0  0  0  0  0  0  0  0  0  0  0  0
    4.2690   -3.0285    0.0000 O   0  0  0  0  0  0  0  0  0  0  0  0
   14.6613   -0.0285    0.0000 O   0  0  0  0  0  0  0  0  0  0  0  0
   12.0991    5.8016    0.0000 O   0  0  0  0  0  0  0  0  0  0  0  0
    7.7331   -6.0285    0.0000 O   0  0  0  0  0  0  0  0  0  0  0  0
    2.5369   -2.0285    0.0000 O   0  0  0  0  0  0  0  0  0  0  0  0
   14.6613   -2.0285    0.0000 O   0  0  0  0  0  0  0  0  0  0  0  0
    8.5991    1.4715    0.0000 C   0  0  0  0  0  0  0  0  0  0  0  0
    8.5991   -0.5285    0.0000 C   0  0  0  0  0  0  0  0  0  0  0  0
    7.7331   -0.0285    0.0000 C   0  0  3  0  0  0  0  0  0  0  0  0
    9.4651   -0.0285    0.0000 C   0  0  3  0  0  0  0  0  0  0  0  0
    7.7331    0.9715    0.0000 C   0  0  0  0  0  0  0  0  0  0  0  0
    9.4651    0.9715    0.0000 C   0  0  0  0  0  0  0  0  0  0  0  0
    8.0991    2.3375    0.0000 C   0  0  0  0  0  0  0  0  0  0  0  0
   10.0991    2.3375    0.0000 C   0  0  0  0  0  0  0  0  0  0  0  0
    7.7331   -2.0285    0.0000 C   0  0  0  0  0  0  0  0  0  0  0  0
    6.0010   -0.0285    0.0000 C   0  0  0  0  0  0  0  0  0  0  0  0
   11.1972   -0.0285    0.0000 C   0  0  0  0  0  0  0  0  0  0  0  0
   10.5991    3.2035    0.0000 C   0  0  0  0  0  0  0  0  0  0  0  0
    7.7331   -3.0285    0.0000 C   0  0  0  0  0  0  0  0  0  0  0  0
    5.1350   -0.5285    0.0000 C   0  0  0  0  0  0  0  0  0  0  0  0
   12.0632   -0.5285    0.0000 C   0  0  0  0  0  0  0  0  0  0  0  0
   11.5991    3.2035    0.0000 C   0  0  0  0  0  0  0  0  0  0  0  0
   10.0991    4.0695    0.0000 C   0  0  0  0  0  0  0  0  0  0  0  0
    8.5991   -3.5285    0.0000 C   0  0  0  0  0  0  0  0  0  0  0  0
    6.8671   -3.5285    0.0000 C   0  0  0  0  0  0  0  0  0  0  0  0
    5.1350   -1.5285    0.0000 C   0  0  0  0  0  0  0  0  0  0  0  0
   12.9292   -0.0285    0.0000 C   0  0  0  0  0  0  0  0  0  0  0  0
    4.2690   -0.0285    0.0000 C   0  0  0  0  0  0  0  0  0  0  0  0
   12.0632   -1.5285    0.0000 C   0  0  0  0  0  0  0  0  0  0  0  0
   10.5991    4.9356    0.0000 C   0  0  0  0  0  0  0  0  0  0  0  0
   12.0991    4.0695    0.0000 C   0  0  0  0  0  0  0  0  0  0  0  0
    6.8671   -4.5285    0.0000 C   0  0  0  0  0  0  0  0  0  0  0  0
    8.5991   -4.5285    0.0000 C   0  0  0  0  0  0  0  0  0  0  0  0
    3.4030   -0.5285    0.0000 C   0  0  0  0  0  0  0  0  0  0  0  0
   12.9292   -2.0285    0.0000 C   0  0  0  0  0  0  0  0  0  0  0  0
    4.2690   -2.0285    0.0000 C   0  0  0  0  0  0  0  0  0  0  0  0
   13.7953   -0.5285    0.0000 C   0  0  0  0  0  0  0  0  0  0  0  0
   11.5991    4.9356    0.0000 C   0  0  0  0  0  0  0  0  0  0  0  0
    7.7331   -5.0285    0.0000 C   0  0  0  0  0  0  0  0  0  0  0  0
    3.4030   -1.5285    0.0000 C   0  0  0  0  0  0  0  0  0  0  0  0
   13.7953   -1.5285    0.0000 C   0  0  0  0  0  0  0  0  0  0  0  0
    8.0622   -0.8385    0.0000 H   0  0  0  0  0  0  0  0  0  0  0  0
    7.1962    0.2815    0.0000 H   0  0  0  0  0  0  0  0  0  0  0  0
   10.0021    0.2815    0.0000 H   0  0  0  0  0  0  0  0  0  0  0  0
    7.5210    1.5541    0.0000 H   0  0  0  0  0  0  0  0  0  0  0  0
    7.1225    0.8638    0.0000 H   0  0  0  0  0  0  0  0  0  0  0  0
   10.0757    0.8638    0.0000 H   0  0  0  0  0  0  0  0  0  0  0  0
    9.6772    1.5541    0.0000 H   0  0  0  0  0  0  0  0  0  0  0  0
    6.7891    2.8744    0.0000 H   0  0  0  0  0  0  0  0  0  0  0  0
   11.9091    2.6666    0.0000 H   0  0  0  0  0  0  0  0  0  0  0  0
    9.4791    4.0695    0.0000 H   0  0  0  0  0  0  0  0  0  0  0  0
    9.1360   -3.2185    0.0000 H   0  0  0  0  0  0  0  0  0  0  0  0
    6.3301   -3.2185    0.0000 H   0  0  0  0  0  0  0  0  0  0  0  0
    5.6720   -1.8385    0.0000 H   0  0  0  0  0  0  0  0  0  0  0  0
   12.9292    0.5915    0.0000 H   0  0  0  0  0  0  0  0  0  0  0  0
    4.2690    0.5915    0.0000 H   0  0  0  0  0  0  0  0  0  0  0  0
   11.5263   -1.8385    0.0000 H   0  0  0  0  0  0  0  0  0  0  0  0
    9.4791    5.8016    0.0000 H   0  0  0  0  0  0  0  0  0  0  0  0
   13.4091    4.6065    0.0000 H   0  0  0  0  0  0  0  0  0  0  0  0
    6.0010   -5.6485    0.0000 H   0  0  0  0  0  0  0  0  0  0  0  0
    9.4651   -5.6485    0.0000 H   0  0  0  0  0  0  0  0  0  0  0  0
    2.5369    0.5915    0.0000 H   0  0  0  0  0  0  0  0  0  0  0  0
   13.4662   -3.3385    0.0000 H   0  0  0  0  0  0  0  0  0  0  0  0
    3.7320   -3.3385    0.0000 H   0  0  0  0  0  0  0  0  0  0  0  0
   14.6613    0.5915    0.0000 H   0  0  0  0  0  0  0  0  0  0  0  0
   11.7891    6.3385    0.0000 H   0  0  0  0  0  0  0  0  0  0  0  0
    7.1962   -6.3385    0.0000 H   0  0  0  0  0  0  0  0  0  0  0  0
    2.0000   -1.7185    0.0000 H   0  0  0  0  0  0  0  0  0  0  0  0
   15.1982   -1.7185    0.0000 H   0  0  0  0  0  0  0  0  0  0  0  0
  1 23  1  0  0  0  0
  1 30  1  0  0  0  0
  2 24  1  0  0  0  0
  2 31  1  0  0  0  0
  3 25  1  0  0  0  0
  3 32  1  0  0  0  0
  4 26  1  0  0  0  0
  4 33  1  0  0  0  0
  5 29  1  0  0  0  0
  5 65  1  0  0  0  0
  6 29  2  0  0  0  0
  7 30  2  0  0  0  0
  8 31  2  0  0  0  0
  9 32  2  0  0  0  0
 10 33  2  0  0  0  0
 11 46  1  0  0  0  0
 11 74  1  0  0  0  0
 12 47  1  0  0  0  0
 12 75  1  0  0  0  0
 13 48  1  0  0  0  0
 13 76  1  0  0  0  0
 14 49  1  0  0  0  0
 14 77  1  0  0  0  0
 15 50  1  0  0  0  0
 15 78  1  0  0  0  0
 16 51  1  0  0  0  0
 16 79  1  0  0  0  0
 17 52  1  0  0  0  0
 17 80  1  0  0  0  0
 18 53  1  0  0  0  0
 18 81  1  0  0  0  0
 19 54  1  0  0  0  0
 19 82  1  0  0  0  0
 20 55  1  0  0  0  0
 20 83  1  0  0  0  0
 21 56  1  0  0  0  0
 21 84  1  0  0  0  0
 22 57  1  0  0  0  0
 22 85  1  0  0  0  0
 23 27  1  0  0  0  0
 23 28  1  0  0  0  0
 23 29  1  0  0  0  0
 24 25  1  0  0  0  0
 24 26  1  0  0  0  0
 24 58  1  0  0  0  0
 25 27  1  0  0  0  0
 25 59  1  0  0  0  0
 26 28  1  0  0  0  0
 26 60  1  0  0  0  0
 27 61  1  0  0  0  0
 27 62  1  0  0  0  0
 28 63  1  0  0  0  0
 28 64  1  0  0  0  0
 30 34  1  0  0  0  0
 31 35  1  0  0  0  0
 32 36  1  0  0  0  0
 33 37  1  0  0  0  0
 34 38  2  0  0  0  0
 34 39  1  0  0  0  0
 35 40  2  0  0  0  0
 35 41  1  0  0  0  0
 36 42  2  0  0  0  0
 36 44  1  0  0  0  0
 37 43  2  0  0  0  0
 37 45  1  0  0  0  0
 38 47  1  0  0  0  0
 38 66  1  0  0  0  0
 39 46  2  0  0  0  0
 39 67  1  0  0  0  0
 40 49  1  0  0  0  0
 40 68  1  0  0  0  0
 41 48  2  0  0  0  0
 41 69  1  0  0  0  0
 42 52  1  0  0  0  0
 42 70  1  0  0  0  0
 43 53  1  0  0  0  0
 43 71  1  0  0  0  0
 44 50  2  0  0  0  0
 44 72  1  0  0  0  0
 45 51  2  0  0  0  0
 45 73  1  0  0  0  0
 46 54  1  0  0  0  0
 47 54  2  0  0  0  0
 48 55  1  0  0  0  0
 49 55  2  0  0  0  0
 50 56  1  0  0  0  0
 51 57  1  0  0  0  0
 52 56  2  0  0  0  0
 53 57  2  0  0  0  0
M  END
> <PUBCHEM_COMPOUND_CID>
500050
> <PUBCHEM_COMPOUND_CANONICALIZED>
1
> <PUBCHEM_CACTVS_COMPLEXITY>
1370
> <PUBCHEM_CACTVS_HBOND_ACCEPTOR>
22
> <PUBCHEM_CACTVS_HBOND_DONOR>
13
> <PUBCHEM_CACTVS_ROTATABLE_BOND>
13
> <PUBCHEM_CACTVS_SUBSKEYS>
AAADceB8PgAAAAAAAAAAAAAAAAAAAAAAAAAwYMGDAAAAAAABVAAAGgAACAAADFSgmAIwDoAABgCIAiDSCAICAAAkIAAAiAFGiMgJJzKCNR6CcQElwBULuYfK7DzOIAABCAAAQABCAAIQAACAAAAAAAAAAA==
> <PUBCHEM_IUPAC_OPENEYE_NAME>
1,3,4,5-tetrakis[(3,4,5-trihydroxybenzoyl)oxy]cyclohexanecarboxylic acid
> <PUBCHEM_IUPAC_CAS_NAME>
1,3,4,5-tetrakis[oxo-(3,4,5-trihydroxyphenyl)methoxy]-1-cyclohexanecarboxylic acid
> <PUBCHEM_IUPAC_NAME_MARKUP>
1,3,4,5-tetrakis[(3,4,5-trihydroxybenzoyl)oxy]cyclohexane-1-carboxylic acid
> <PUBCHEM_IUPAC_NAME>
1,3,4,5-tetrakis[(3,4,5-trihydroxybenzoyl)oxy]cyclohexane-1-carboxylic acid
> <PUBCHEM_IUPAC_SYSTEMATIC_NAME>
1,3,4,5-tetrakis[[3,4,5-tris(oxidanyl)phenyl]carbonyloxy]cyclohexane-1-carboxylic acid
> <PUBCHEM_IUPAC_TRADITIONAL_NAME>
1,3,4,5-tetragalloyloxycyclohexanecarboxylic acid
> <PUBCHEM_IUPAC_INCHI>
InChI=1S/C35H28O22/c36-15-1-11(2-16(37)25(15)44)30(48)54-23-9-35(34(52)53,57-33(51)14-7-21(42)28(47)22(43)8-14)10-24(55-31(49)12-3-17(38)26(45)18(39)4-12)29(23)56-32(50)13-5-19(40)27(46)20(41)6-13/h1-8,23-24,29,36-47H,9-10H2,(H,52,53)
> <PUBCHEM_IUPAC_INCHIKEY>
JQVXKQDWMIXILH-UHFFFAOYSA-N
> <PUBCHEM_XLOGP3_AA>
2.3
> <PUBCHEM_EXACT_MASS>
800.10722252
> <PUBCHEM_MOLECULAR_FORMULA>
C35H28O22
> <PUBCHEM_MOLECULAR_WEIGHT>
800.6
> <PUBCHEM_OPENEYE_CAN_SMILES>
C1C(C(C(CC1(C(=O)O)OC(=O)C2=CC(=C(C(=C2)O)O)O)OC(=O)C3=CC(=C(C(=C3)O)O)O)OC(=O)C4=CC(=C(C(=C4)O)O)O)OC(=O)C5=CC(=C(C(=C5)O)O)O
> <PUBCHEM_OPENEYE_ISO_SMILES>
C1C(C(C(CC1(C(=O)O)OC(=O)C2=CC(=C(C(=C2)O)O)O)OC(=O)C3=CC(=C(C(=C3)O)O)O)OC(=O)C4=CC(=C(C(=C4)O)O)O)OC(=O)C5=CC(=C(C(=C5)O)O)O
> <PUBCHEM_CACTVS_TPSA>
385
> <PUBCHEM_MONOISOTOPIC_WEIGHT>
800.10722252
> <PUBCHEM_TOTAL_CHARGE>
0
> <PUBCHEM_HEAVY_ATOM_COUNT>
57
> <PUBCHEM_ATOM_DEF_STEREO_COUNT>
0
> <PUBCHEM_ATOM_UDEF_STEREO_COUNT>
2
> <PUBCHEM_BOND_DEF_STEREO_COUNT>
0
> <PUBCHEM_BOND_UDEF_STEREO_COUNT>
0
> <PUBCHEM_ISOTOPIC_ATOM_COUNT>
0
> <PUBCHEM_COMPONENT_COUNT>
1
> <PUBCHEM_CACTVS_TAUTO_COUNT>
-1
> <PUBCHEM_COORDINATE_TYPE>
1
5
255
> <PUBCHEM_BONDANNOTATIONS>
25  3  3
34  38  8
34  39  8
35  40  8
35  41  8
36  42  8
36  44  8
37  43  8
37  45  8
38  47  8
39  46  8
26  4  3
40  49  8
41  48  8
42  52  8
43  53  8
44  50  8
45  51  8
46  54  8
47  54  8
48  55  8
49  55  8
50  56  8
51  57  8
52  56  8
53  57  8
$$$$
