500045
  -OEChem-10302200282D
 33 34  0     1  0  0  0  0  0999 V2000
    3.0000   -0.2500    0.0000 S   0  0  0  0  0  0  0  0  0  0  0  0
    3.0000   -4.2500    0.0000 F   0  0  0  0  0  0  0  0  0  0  0  0
    4.0000   -0.2500    0.0000 O   0  0  0  0  0  0  0  0  0  0  0  0
    2.0000   -0.2500    0.0000 O   0  0  0  0  0  0  0  0  0  0  0  0
    5.5981    1.2500    0.0000 O   0  0  0  0  0  0  0  0  0  0  0  0
    4.7320   -0.2500    0.0000 O   0  0  0  0  0  0  0  0  0  0  0  0
    3.0000    0.7500    0.0000 N   0  0  0  0  0  0  0  0  0  0  0  0
    3.8660    1.2500    0.0000 C   0  0  3  0  0  0  0  0  0  0  0  0
    3.8660    2.2500    0.0000 C   0  0  0  0  0  0  0  0  0  0  0  0
    3.0000   -1.2500    0.0000 C   0  0  0  0  0  0  0  0  0  0  0  0
    4.7320    0.7500    0.0000 C   0  0  0  0  0  0  0  0  0  0  0  0
    3.0000    2.7500    0.0000 C   0  0  0  0  0  0  0  0  0  0  0  0
    4.7320    2.7500    0.0000 C   0  0  0  0  0  0  0  0  0  0  0  0
    3.8660   -1.7500    0.0000 C   0  0  0  0  0  0  0  0  0  0  0  0
    2.1340   -1.7500    0.0000 C   0  0  0  0  0  0  0  0  0  0  0  0
    3.0000    3.7500    0.0000 C   0  0  0  0  0  0  0  0  0  0  0  0
    4.7320    3.7500    0.0000 C   0  0  0  0  0  0  0  0  0  0  0  0
    3.8660   -2.7500    0.0000 C   0  0  0  0  0  0  0  0  0  0  0  0
    2.1340   -2.7500    0.0000 C   0  0  0  0  0  0  0  0  0  0  0  0
    3.8660    4.2500    0.0000 C   0  0  0  0  0  0  0  0  0  0  0  0
    3.0000   -3.2500    0.0000 C   0  0  0  0  0  0  0  0  0  0  0  0
    3.8660    0.6300    0.0000 H   0  0  0  0  0  0  0  0  0  0  0  0
    2.4631    1.0600    0.0000 H   0  0  0  0  0  0  0  0  0  0  0  0
    2.4631    2.4400    0.0000 H   0  0  0  0  0  0  0  0  0  0  0  0
    5.2690    2.4400    0.0000 H   0  0  0  0  0  0  0  0  0  0  0  0
    4.4030   -1.4400    0.0000 H   0  0  0  0  0  0  0  0  0  0  0  0
    1.5970   -1.4400    0.0000 H   0  0  0  0  0  0  0  0  0  0  0  0
    2.4631    4.0600    0.0000 H   0  0  0  0  0  0  0  0  0  0  0  0
    5.2690    4.0600    0.0000 H   0  0  0  0  0  0  0  0  0  0  0  0
    4.4030   -3.0600    0.0000 H   0  0  0  0  0  0  0  0  0  0  0  0
    1.5970   -3.0600    0.0000 H   0  0  0  0  0  0  0  0  0  0  0  0
    3.8660    4.8700    0.0000 H   0  0  0  0  0  0  0  0  0  0  0  0
    6.1350    0.9400    0.0000 H   0  0  0  0  0  0  0  0  0  0  0  0
  1  3  2  0  0  0  0
  1  4  2  0  0  0  0
  1  7  1  0  0  0  0
  1 10  1  0  0  0  0
  2 21  1  0  0  0  0
  5 11  1  0  0  0  0
  5 33  1  0  0  0  0
  6 11  2  0  0  0  0
  7  8  1  0  0  0  0
  7 23  1  0  0  0  0
  8  9  1  0  0  0  0
  8 11  1  0  0  0  0
  8 22  1  0  0  0  0
  9 12  2  0  0  0  0
  9 13  1  0  0  0  0
 10 14  2  0  0  0  0
 10 15  1  0  0  0  0
 12 16  1  0  0  0  0
 12 24  1  0  0  0  0
 13 17  2  0  0  0  0
 13 25  1  0  0  0  0
 14 18  1  0  0  0  0
 14 26  1  0  0  0  0
 15 19  2  0  0  0  0
 15 27  1  0  0  0  0
 16 20  2  0  0  0  0
 16 28  1  0  0  0  0
 17 20  1  0  0  0  0
 17 29  1  0  0  0  0
 18 21  2  0  0  0  0
 18 30  1  0  0  0  0
 19 21  1  0  0  0  0
 19 31  1  0  0  0  0
 20 32  1  0  0  0  0
M  END
> <PUBCHEM_COMPOUND_CID>
500045
> <PUBCHEM_COMPOUND_CANONICALIZED>
1
> <PUBCHEM_CACTVS_COMPLEXITY>
448
> <PUBCHEM_CACTVS_HBOND_ACCEPTOR>
6
> <PUBCHEM_CACTVS_HBOND_DONOR>
2
> <PUBCHEM_CACTVS_ROTATABLE_BOND>
5
> <PUBCHEM_CACTVS_SUBSKEYS>
AAADccByOQBAAAAAAAAAAAAAAAAAAAAAAAAwYAAAAAAAAAABQAAAHwQQSAAADCjB2AwwCYBAAgKIAiDSCHDCABAgAAAIiJmABIgKIDKAlRGAYABkwAEIiAeYyKCOAAAAAAAAAAAAAAAAAAAAAAAAAAAAAA==
> <PUBCHEM_IUPAC_OPENEYE_NAME>
2-[(4-fluorophenyl)sulfonylamino]-2-phenyl-acetic acid
> <PUBCHEM_IUPAC_CAS_NAME>
2-[(4-fluorophenyl)sulfonylamino]-2-phenylacetic acid
> <PUBCHEM_IUPAC_NAME_MARKUP>
2-[(4-fluorophenyl)sulfonylamino]-2-phenylacetic acid
> <PUBCHEM_IUPAC_NAME>
2-[(4-fluorophenyl)sulfonylamino]-2-phenylacetic acid
> <PUBCHEM_IUPAC_SYSTEMATIC_NAME>
2-[(4-fluorophenyl)sulfonylamino]-2-phenyl-ethanoic acid
> <PUBCHEM_IUPAC_TRADITIONAL_NAME>
2-[(4-fluorophenyl)sulfonylamino]-2-phenyl-acetic acid
> <PUBCHEM_IUPAC_INCHI>
InChI=1S/C14H12FNO4S/c15-11-6-8-12(9-7-11)21(19,20)16-13(14(17)18)10-4-2-1-3-5-10/h1-9,13,16H,(H,17,18)
> <PUBCHEM_IUPAC_INCHIKEY>
RDYJUVZFLCNBPH-UHFFFAOYSA-N
> <PUBCHEM_XLOGP3_AA>
2.3
> <PUBCHEM_EXACT_MASS>
309.04710720
> <PUBCHEM_MOLECULAR_FORMULA>
C14H12FNO4S
> <PUBCHEM_MOLECULAR_WEIGHT>
309.31
> <PUBCHEM_OPENEYE_CAN_SMILES>
C1=CC=C(C=C1)C(C(=O)O)NS(=O)(=O)C2=CC=C(C=C2)F
> <PUBCHEM_OPENEYE_ISO_SMILES>
C1=CC=C(C=C1)C(C(=O)O)NS(=O)(=O)C2=CC=C(C=C2)F
> <PUBCHEM_CACTVS_TPSA>
91.8
> <PUBCHEM_MONOISOTOPIC_WEIGHT>
309.04710720
> <PUBCHEM_TOTAL_CHARGE>
0
> <PUBCHEM_HEAVY_ATOM_COUNT>
21
> <PUBCHEM_ATOM_DEF_STEREO_COUNT>
0
> <PUBCHEM_ATOM_UDEF_STEREO_COUNT>
1
> <PUBCHEM_BOND_DEF_STEREO_COUNT>
0
> <PUBCHEM_BOND_UDEF_STEREO_COUNT>
0
> <PUBCHEM_ISOTOPIC_ATOM_COUNT>
0
> <PUBCHEM_COMPONENT_COUNT>
1
> <PUBCHEM_CACTVS_TAUTO_COUNT>
1
> <PUBCHEM_COORDINATE_TYPE>
1
5
255
> <PUBCHEM_BONDANNOTATIONS>
10  14  8
10  15  8
12  16  8
13  17  8
14  18  8
15  19  8
16  20  8
17  20  8
18  21  8
19  21  8
8  11  3
9  12  8
9  13  8
$$$$
