500038
  -OEChem-10302200282D
 70 70  0     1  0  0  0  0  0999 V2000
    8.9282   -4.2500    0.0000 O   0  0  0  0  0  0  0  0  0  0  0  0
   11.5263   -2.7500    0.0000 O   0  0  0  0  0  0  0  0  0  0  0  0
    7.1962   -4.2500    0.0000 O   0  0  0  0  0  0  0  0  0  0  0  0
    9.7942   -1.7500    0.0000 N   0  0  0  0  0  0  0  0  0  0  0  0
   10.6603   -1.2500    0.0000 N   0  3  0  0  0  0  0  0  0  0  0  0
   11.5263   -0.7500    0.0000 N   0  5  0  0  0  0  0  0  0  0  0  0
    5.4641    2.7500    0.0000 C   0  0  0  0  0  0  0  0  0  0  0  0
    4.5981    3.2500    0.0000 C   0  0  0  0  0  0  0  0  0  0  0  0
    5.4641    1.7500    0.0000 C   0  0  0  0  0  0  0  0  0  0  0  0
    4.5981    4.2500    0.0000 C   0  0  0  0  0  0  0  0  0  0  0  0
    6.3301    1.2500    0.0000 C   0  0  0  0  0  0  0  0  0  0  0  0
    3.7320    4.7500    0.0000 C   0  0  0  0  0  0  0  0  0  0  0  0
    6.3301    0.2500    0.0000 C   0  0  0  0  0  0  0  0  0  0  0  0
    3.7320    5.7500    0.0000 C   0  0  0  0  0  0  0  0  0  0  0  0
    7.1962   -0.2500    0.0000 C   0  0  0  0  0  0  0  0  0  0  0  0
    2.8660    6.2500    0.0000 C   0  0  0  0  0  0  0  0  0  0  0  0
    7.1962   -1.2500    0.0000 C   0  0  0  0  0  0  0  0  0  0  0  0
    2.8660    7.2500    0.0000 C   0  0  0  0  0  0  0  0  0  0  0  0
    8.0622   -1.7500    0.0000 C   0  0  0  0  0  0  0  0  0  0  0  0
    8.9282   -3.2500    0.0000 C   0  0  3  0  0  0  0  0  0  0  0  0
    2.0000    7.7500    0.0000 C   0  0  0  0  0  0  0  0  0  0  0  0
    8.0622   -2.7500    0.0000 C   0  0  0  0  0  0  0  0  0  0  0  0
    9.7942   -2.7500    0.0000 C   0  0  3  0  0  0  0  0  0  0  0  0
   10.6603   -3.2500    0.0000 C   0  0  0  0  0  0  0  0  0  0  0  0
    8.0622   -4.7500    0.0000 C   0  0  0  0  0  0  0  0  0  0  0  0
    8.0622   -5.7500    0.0000 C   0  0  0  0  0  0  0  0  0  0  0  0
    8.9282   -6.2500    0.0000 C   0  0  0  0  0  0  0  0  0  0  0  0
    7.1962   -6.2500    0.0000 C   0  0  0  0  0  0  0  0  0  0  0  0
    8.9282   -7.2500    0.0000 C   0  0  0  0  0  0  0  0  0  0  0  0
    7.1962   -7.2500    0.0000 C   0  0  0  0  0  0  0  0  0  0  0  0
    8.0622   -7.7500    0.0000 C   0  0  0  0  0  0  0  0  0  0  0  0
    6.0747    2.6423    0.0000 H   0  0  0  0  0  0  0  0  0  0  0  0
    5.6762    3.3326    0.0000 H   0  0  0  0  0  0  0  0  0  0  0  0
    3.9875    3.3577    0.0000 H   0  0  0  0  0  0  0  0  0  0  0  0
    4.3860    2.6674    0.0000 H   0  0  0  0  0  0  0  0  0  0  0  0
    4.8535    1.8577    0.0000 H   0  0  0  0  0  0  0  0  0  0  0  0
    5.2520    1.1674    0.0000 H   0  0  0  0  0  0  0  0  0  0  0  0
    5.2087    4.1423    0.0000 H   0  0  0  0  0  0  0  0  0  0  0  0
    4.8101    4.8326    0.0000 H   0  0  0  0  0  0  0  0  0  0  0  0
    6.9407    1.1423    0.0000 H   0  0  0  0  0  0  0  0  0  0  0  0
    6.5422    1.8326    0.0000 H   0  0  0  0  0  0  0  0  0  0  0  0
    3.1215    4.8577    0.0000 H   0  0  0  0  0  0  0  0  0  0  0  0
    3.5200    4.1674    0.0000 H   0  0  0  0  0  0  0  0  0  0  0  0
    5.7196    0.3577    0.0000 H   0  0  0  0  0  0  0  0  0  0  0  0
    6.1181   -0.3326    0.0000 H   0  0  0  0  0  0  0  0  0  0  0  0
    4.3426    5.6423    0.0000 H   0  0  0  0  0  0  0  0  0  0  0  0
    3.9441    6.3326    0.0000 H   0  0  0  0  0  0  0  0  0  0  0  0
    7.8067   -0.3577    0.0000 H   0  0  0  0  0  0  0  0  0  0  0  0
    7.4082    0.3326    0.0000 H   0  0  0  0  0  0  0  0  0  0  0  0
    2.2554    6.3577    0.0000 H   0  0  0  0  0  0  0  0  0  0  0  0
    2.6540    5.6674    0.0000 H   0  0  0  0  0  0  0  0  0  0  0  0
    6.5856   -1.1423    0.0000 H   0  0  0  0  0  0  0  0  0  0  0  0
    6.9841   -1.8326    0.0000 H   0  0  0  0  0  0  0  0  0  0  0  0
    3.4766    7.1423    0.0000 H   0  0  0  0  0  0  0  0  0  0  0  0
    3.0781    7.8326    0.0000 H   0  0  0  0  0  0  0  0  0  0  0  0
    8.5991   -1.4400    0.0000 H   0  0  0  0  0  0  0  0  0  0  0  0
    9.4651   -3.5600    0.0000 H   0  0  0  0  0  0  0  0  0  0  0  0
    7.5252   -3.0600    0.0000 H   0  0  0  0  0  0  0  0  0  0  0  0
    2.3100    8.2869    0.0000 H   0  0  0  0  0  0  0  0  0  0  0  0
    1.4631    8.0600    0.0000 H   0  0  0  0  0  0  0  0  0  0  0  0
    1.6900    7.2131    0.0000 H   0  0  0  0  0  0  0  0  0  0  0  0
    9.2573   -2.4400    0.0000 H   0  0  0  0  0  0  0  0  0  0  0  0
   10.2617   -3.7250    0.0000 H   0  0  0  0  0  0  0  0  0  0  0  0
   11.0588   -3.7250    0.0000 H   0  0  0  0  0  0  0  0  0  0  0  0
   12.0632   -3.0600    0.0000 H   0  0  0  0  0  0  0  0  0  0  0  0
    9.4651   -5.9400    0.0000 H   0  0  0  0  0  0  0  0  0  0  0  0
    6.6592   -5.9400    0.0000 H   0  0  0  0  0  0  0  0  0  0  0  0
    9.4651   -7.5600    0.0000 H   0  0  0  0  0  0  0  0  0  0  0  0
    6.6592   -7.5600    0.0000 H   0  0  0  0  0  0  0  0  0  0  0  0
    8.0622   -8.3700    0.0000 H   0  0  0  0  0  0  0  0  0  0  0  0
  1 20  1  0  0  0  0
  1 25  1  0  0  0  0
  2 24  1  0  0  0  0
  2 65  1  0  0  0  0
  3 25  2  0  0  0  0
  4  5  2  0  0  0  0
  4 23  1  0  0  0  0
  5  6  2  0  0  0  0
  7  8  1  0  0  0  0
  7  9  1  0  0  0  0
  7 32  1  0  0  0  0
  7 33  1  0  0  0  0
  8 10  1  0  0  0  0
  8 34  1  0  0  0  0
  8 35  1  0  0  0  0
  9 11  1  0  0  0  0
  9 36  1  0  0  0  0
  9 37  1  0  0  0  0
 10 12  1  0  0  0  0
 10 38  1  0  0  0  0
 10 39  1  0  0  0  0
 11 13  1  0  0  0  0
 11 40  1  0  0  0  0
 11 41  1  0  0  0  0
 12 14  1  0  0  0  0
 12 42  1  0  0  0  0
 12 43  1  0  0  0  0
 13 15  1  0  0  0  0
 13 44  1  0  0  0  0
 13 45  1  0  0  0  0
 14 16  1  0  0  0  0
 14 46  1  0  0  0  0
 14 47  1  0  0  0  0
 15 17  1  0  0  0  0
 15 48  1  0  0  0  0
 15 49  1  0  0  0  0
 16 18  1  0  0  0  0
 16 50  1  0  0  0  0
 16 51  1  0  0  0  0
 17 19  1  0  0  0  0
 17 52  1  0  0  0  0
 17 53  1  0  0  0  0
 18 21  1  0  0  0  0
 18 54  1  0  0  0  0
 18 55  1  0  0  0  0
 19 22  2  3  0  0  0
 19 56  1  0  0  0  0
 20 22  1  0  0  0  0
 20 23  1  0  0  0  0
 20 57  1  0  0  0  0
 21 59  1  0  0  0  0
 21 60  1  0  0  0  0
 21 61  1  0  0  0  0
 22 58  1  0  0  0  0
 23 24  1  0  0  0  0
 23 62  1  0  0  0  0
 24 63  1  0  0  0  0
 24 64  1  0  0  0  0
 25 26  1  0  0  0  0
 26 27  2  0  0  0  0
 26 28  1  0  0  0  0
 27 29  1  0  0  0  0
 27 66  1  0  0  0  0
 28 30  2  0  0  0  0
 28 67  1  0  0  0  0
 29 31  2  0  0  0  0
 29 68  1  0  0  0  0
 30 31  1  0  0  0  0
 30 69  1  0  0  0  0
 31 70  1  0  0  0  0
M  CHG  2   5   1   6  -1
M  END
> <PUBCHEM_COMPOUND_CID>
500038
> <PUBCHEM_COMPOUND_CANONICALIZED>
1
> <PUBCHEM_CACTVS_COMPLEXITY>
526
> <PUBCHEM_CACTVS_HBOND_ACCEPTOR>
5
> <PUBCHEM_CACTVS_HBOND_DONOR>
1
> <PUBCHEM_CACTVS_ROTATABLE_BOND>
19
> <PUBCHEM_CACTVS_SUBSKEYS>
AAADcfB7MAAAAAAAAAAAAAAAAAAAAAAAAAAwAAAAAAAAAAABAAAAHgAICAAADDzhmAYyCIAABgCKAiDSCAACAAAkAAAIiAEACMgKNjKANRiDcQAlwAEIqYeIyKCOAAAAAAAAAAAAAAAAAAAAAAAAAAAAAA==
> <PUBCHEM_IUPAC_OPENEYE_NAME>
1-(1-azido-2-hydroxy-ethyl)hexadec-2-enyl benzoate
> <PUBCHEM_IUPAC_CAS_NAME>
benzoic acid (2-azido-1-hydroxyoctadec-4-en-3-yl) ester
> <PUBCHEM_IUPAC_NAME_MARKUP>
(2-azido-1-hydroxyoctadec-4-en-3-yl) benzoate
> <PUBCHEM_IUPAC_NAME>
(2-azido-1-hydroxyoctadec-4-en-3-yl) benzoate
> <PUBCHEM_IUPAC_SYSTEMATIC_NAME>
(2-azido-1-oxidanyl-octadec-4-en-3-yl) benzoate
> <PUBCHEM_IUPAC_TRADITIONAL_NAME>
benzoic acid 1-(1-azido-2-hydroxy-ethyl)hexadec-2-enyl ester
> <PUBCHEM_IUPAC_INCHI>
InChI=1S/C25H39N3O3/c1-2-3-4-5-6-7-8-9-10-11-12-13-17-20-24(23(21-29)27-28-26)31-25(30)22-18-15-14-16-19-22/h14-20,23-24,29H,2-13,21H2,1H3
> <PUBCHEM_IUPAC_INCHIKEY>
ORUYONFWESLTQS-UHFFFAOYSA-N
> <PUBCHEM_XLOGP3_AA>
9.3
> <PUBCHEM_EXACT_MASS>
429.29914211
> <PUBCHEM_MOLECULAR_FORMULA>
C25H39N3O3
> <PUBCHEM_MOLECULAR_WEIGHT>
429.6
> <PUBCHEM_OPENEYE_CAN_SMILES>
CCCCCCCCCCCCCC=CC(C(CO)N=[N+]=[N-])OC(=O)C1=CC=CC=C1
> <PUBCHEM_OPENEYE_ISO_SMILES>
CCCCCCCCCCCCCC=CC(C(CO)N=[N+]=[N-])OC(=O)C1=CC=CC=C1
> <PUBCHEM_CACTVS_TPSA>
60.9
> <PUBCHEM_MONOISOTOPIC_WEIGHT>
429.29914211
> <PUBCHEM_TOTAL_CHARGE>
0
> <PUBCHEM_HEAVY_ATOM_COUNT>
31
> <PUBCHEM_ATOM_DEF_STEREO_COUNT>
0
> <PUBCHEM_ATOM_UDEF_STEREO_COUNT>
2
> <PUBCHEM_BOND_DEF_STEREO_COUNT>
0
> <PUBCHEM_BOND_UDEF_STEREO_COUNT>
1
> <PUBCHEM_ISOTOPIC_ATOM_COUNT>
0
> <PUBCHEM_COMPONENT_COUNT>
1
> <PUBCHEM_CACTVS_TAUTO_COUNT>
-1
> <PUBCHEM_COORDINATE_TYPE>
1
5
255
> <PUBCHEM_BONDANNOTATIONS>
19  22  1
20  22  3
23  24  3
26  27  8
26  28  8
27  29  8
28  30  8
29  31  8
30  31  8
$$$$
