500086
  -OEChem-10302200282D
 98101  0     1  0  0  0  0  0999 V2000
    6.3320   -2.7299    0.0000 P   0  0  3  0  0  0  0  0  0  0  0  0
    7.1961   -3.2332    0.0000 O   0  0  0  0  0  0  0  0  0  0  0  0
    5.4679   -2.2266    0.0000 O   0  0  0  0  0  0  0  0  0  0  0  0
    6.8354   -1.8658    0.0000 O   0  3  0  0  0  0  0  0  0  0  0  0
    5.8287   -3.5940    0.0000 O   0  0  0  0  0  0  0  0  0  0  0  0
    2.8680   -2.7165    0.0000 N   0  3  0  0  0  0  0  0  0  0  0  0
   12.5892   -0.1809    0.0000 C   0  0  3  0  0  0  0  0  0  0  0  0
   12.5892   -1.1809    0.0000 C   0  0  3  0  0  0  0  0  0  0  0  0
   11.7232   -1.6809    0.0000 C   0  0  3  0  0  0  0  0  0  0  0  0
   10.8571   -1.1809    0.0000 C   0  0  3  0  0  0  0  0  0  0  0  0
   13.5354    0.1238    0.0000 C   0  0  3  0  0  0  0  0  0  0  0  0
   11.7232    0.3191    0.0000 C   0  0  0  0  0  0  0  0  0  0  0  0
    9.9472   -1.6878    0.0000 C   0  0  3  0  0  0  0  0  0  0  0  0
   13.5354   -1.4856    0.0000 C   0  0  0  0  0  0  0  0  0  0  0  0
   10.8571   -0.1809    0.0000 C   0  0  0  0  0  0  0  0  0  0  0  0
   14.1190   -0.6809    0.0000 C   0  0  0  0  0  0  0  0  0  0  0  0
   11.7392   -2.7224    0.0000 C   0  0  0  0  0  0  0  0  0  0  0  0
   13.8461    1.0743    0.0000 C   0  0  3  0  0  0  0  0  0  0  0  0
   12.5892    0.8191    0.0000 C   0  0  0  0  0  0  0  0  0  0  0  0
    9.9391   -2.7294    0.0000 C   0  0  0  0  0  0  0  0  0  0  0  0
    9.0203   -1.1237    0.0000 C   0  0  0  0  0  0  0  0  0  0  0  0
   10.8412   -3.2502    0.0000 C   0  0  0  0  0  0  0  0  0  0  0  0
    9.9548   -0.6878    0.0000 C   0  0  0  0  0  0  0  0  0  0  0  0
    9.0037   -3.2791    0.0000 C   0  0  0  0  0  0  0  0  0  0  0  0
    8.0724   -1.6516    0.0000 C   0  0  0  0  0  0  0  0  0  0  0  0
   14.8246    1.2806    0.0000 C   0  0  0  0  0  0  0  0  0  0  0  0
    8.0641   -2.7366    0.0000 C   0  0  3  0  0  0  0  0  0  0  0  0
   13.1782    1.8186    0.0000 C   0  0  0  0  0  0  0  0  0  0  0  0
   15.1352    2.2311    0.0000 C   0  0  0  0  0  0  0  0  0  0  0  0
   16.1138    2.4373    0.0000 C   0  0  0  0  0  0  0  0  0  0  0  0
   16.4244    3.3878    0.0000 C   0  0  0  0  0  0  0  0  0  0  0  0
   17.4029    3.5940    0.0000 C   0  0  0  0  0  0  0  0  0  0  0  0
   15.7566    4.1321    0.0000 C   0  0  0  0  0  0  0  0  0  0  0  0
    4.6000   -2.7232    0.0000 C   0  0  0  0  0  0  0  0  0  0  0  0
    3.7359   -2.2199    0.0000 C   0  0  0  0  0  0  0  0  0  0  0  0
    2.0000   -3.2132    0.0000 C   0  0  0  0  0  0  0  0  0  0  0  0
    2.3713   -1.8486    0.0000 C   0  0  0  0  0  0  0  0  0  0  0  0
    3.3646   -3.5845    0.0000 C   0  0  0  0  0  0  0  0  0  0  0  0
   12.6548   -1.7974    0.0000 H   0  0  0  0  0  0  0  0  0  0  0  0
   12.2625   -1.9868    0.0000 H   0  0  0  0  0  0  0  0  0  0  0  0
   11.3941   -0.8709    0.0000 H   0  0  0  0  0  0  0  0  0  0  0  0
   14.1479    0.2200    0.0000 H   0  0  0  0  0  0  0  0  0  0  0  0
   12.1217    0.7940    0.0000 H   0  0  0  0  0  0  0  0  0  0  0  0
   11.3246    0.7940    0.0000 H   0  0  0  0  0  0  0  0  0  0  0  0
   13.2844   -2.0526    0.0000 H   0  0  0  0  0  0  0  0  0  0  0  0
   14.0728   -1.7949    0.0000 H   0  0  0  0  0  0  0  0  0  0  0  0
   10.6451    0.4017    0.0000 H   0  0  0  0  0  0  0  0  0  0  0  0
   10.2466   -0.2886    0.0000 H   0  0  0  0  0  0  0  0  0  0  0  0
   14.5799   -1.0956    0.0000 H   0  0  0  0  0  0  0  0  0  0  0  0
   14.5799   -0.2662    0.0000 H   0  0  0  0  0  0  0  0  0  0  0  0
   11.9573   -3.3028    0.0000 H   0  0  0  0  0  0  0  0  0  0  0  0
   12.3484   -2.6069    0.0000 H   0  0  0  0  0  0  0  0  0  0  0  0
   13.2394    0.9465    0.0000 H   0  0  0  0  0  0  0  0  0  0  0  0
   13.2092    0.8191    0.0000 H   0  0  0  0  0  0  0  0  0  0  0  0
   12.5892    1.4391    0.0000 H   0  0  0  0  0  0  0  0  0  0  0  0
   11.9692    0.8191    0.0000 H   0  0  0  0  0  0  0  0  0  0  0  0
    9.4285   -0.6570    0.0000 H   0  0  0  0  0  0  0  0  0  0  0  0
    8.6304   -0.6416    0.0000 H   0  0  0  0  0  0  0  0  0  0  0  0
   10.8436   -3.8702    0.0000 H   0  0  0  0  0  0  0  0  0  0  0  0
   10.5748   -0.6926    0.0000 H   0  0  0  0  0  0  0  0  0  0  0  0
    9.9596   -0.0678    0.0000 H   0  0  0  0  0  0  0  0  0  0  0  0
    9.3349   -0.6830    0.0000 H   0  0  0  0  0  0  0  0  0  0  0  0
    8.6064   -3.7550    0.0000 H   0  0  0  0  0  0  0  0  0  0  0  0
    9.4047   -3.7520    0.0000 H   0  0  0  0  0  0  0  0  0  0  0  0
    7.8679   -1.0663    0.0000 H   0  0  0  0  0  0  0  0  0  0  0  0
    7.4608   -1.7530    0.0000 H   0  0  0  0  0  0  0  0  0  0  0  0
   14.8452    0.6609    0.0000 H   0  0  0  0  0  0  0  0  0  0  0  0
   15.4384    1.1932    0.0000 H   0  0  0  0  0  0  0  0  0  0  0  0
    8.0629   -3.3566    0.0000 H   0  0  0  0  0  0  0  0  0  0  0  0
   13.6397    2.2327    0.0000 H   0  0  0  0  0  0  0  0  0  0  0  0
   12.7642    2.2801    0.0000 H   0  0  0  0  0  0  0  0  0  0  0  0
   12.7168    1.4046    0.0000 H   0  0  0  0  0  0  0  0  0  0  0  0
   15.1147    2.8507    0.0000 H   0  0  0  0  0  0  0  0  0  0  0  0
   14.5214    2.3184    0.0000 H   0  0  0  0  0  0  0  0  0  0  0  0
   16.1343    1.8176    0.0000 H   0  0  0  0  0  0  0  0  0  0  0  0
   16.7276    2.3500    0.0000 H   0  0  0  0  0  0  0  0  0  0  0  0
   16.8385    2.9264    0.0000 H   0  0  0  0  0  0  0  0  0  0  0  0
   17.5308    2.9874    0.0000 H   0  0  0  0  0  0  0  0  0  0  0  0
   18.0096    3.7219    0.0000 H   0  0  0  0  0  0  0  0  0  0  0  0
   17.2751    4.2007    0.0000 H   0  0  0  0  0  0  0  0  0  0  0  0
   16.2180    4.5462    0.0000 H   0  0  0  0  0  0  0  0  0  0  0  0
   15.3425    4.5936    0.0000 H   0  0  0  0  0  0  0  0  0  0  0  0
   15.2951    3.7181    0.0000 H   0  0  0  0  0  0  0  0  0  0  0  0
    6.5274   -1.3277    0.0000 H   0  0  0  0  0  0  0  0  0  0  0  0
    6.1366   -4.1321    0.0000 H   0  0  0  0  0  0  0  0  0  0  0  0
    4.1996   -3.1966    0.0000 H   0  0  0  0  0  0  0  0  0  0  0  0
    4.9967   -3.1997    0.0000 H   0  0  0  0  0  0  0  0  0  0  0  0
    4.1363   -1.7465    0.0000 H   0  0  0  0  0  0  0  0  0  0  0  0
    3.3392   -1.7434    0.0000 H   0  0  0  0  0  0  0  0  0  0  0  0
    1.6921   -2.6751    0.0000 H   0  0  0  0  0  0  0  0  0  0  0  0
    1.4619   -3.5211    0.0000 H   0  0  0  0  0  0  0  0  0  0  0  0
    2.3079   -3.7513    0.0000 H   0  0  0  0  0  0  0  0  0  0  0  0
    2.9094   -1.5407    0.0000 H   0  0  0  0  0  0  0  0  0  0  0  0
    2.0634   -1.3105    0.0000 H   0  0  0  0  0  0  0  0  0  0  0  0
    1.8332   -2.1565    0.0000 H   0  0  0  0  0  0  0  0  0  0  0  0
    2.8265   -3.8924    0.0000 H   0  0  0  0  0  0  0  0  0  0  0  0
    3.6725   -4.1226    0.0000 H   0  0  0  0  0  0  0  0  0  0  0  0
    3.9027   -3.2766    0.0000 H   0  0  0  0  0  0  0  0  0  0  0  0
  1  2  1  0  0  0  0
  1  3  1  0  0  0  0
  1  4  2  0  0  0  0
  1  5  1  0  0  0  0
  2 27  1  0  0  0  0
  3 34  1  0  0  0  0
  4 84  1  0  0  0  0
  5 85  1  0  0  0  0
  6 35  1  0  0  0  0
  6 36  1  0  0  0  0
  6 37  1  0  0  0  0
  6 38  1  0  0  0  0
  7  8  1  0  0  0  0
  7 11  1  0  0  0  0
  7 12  1  0  0  0  0
  7 19  1  0  0  0  0
  8  9  1  0  0  0  0
  8 14  1  0  0  0  0
  8 39  1  0  0  0  0
  9 10  1  0  0  0  0
  9 17  1  0  0  0  0
  9 40  1  0  0  0  0
 10 13  1  0  0  0  0
 10 15  1  0  0  0  0
 10 41  1  0  0  0  0
 11 16  1  0  0  0  0
 11 18  1  0  0  0  0
 11 42  1  0  0  0  0
 12 15  1  0  0  0  0
 12 43  1  0  0  0  0
 12 44  1  0  0  0  0
 13 20  1  0  0  0  0
 13 21  1  0  0  0  0
 13 23  1  0  0  0  0
 14 16  1  0  0  0  0
 14 45  1  0  0  0  0
 14 46  1  0  0  0  0
 15 47  1  0  0  0  0
 15 48  1  0  0  0  0
 16 49  1  0  0  0  0
 16 50  1  0  0  0  0
 17 22  1  0  0  0  0
 17 51  1  0  0  0  0
 17 52  1  0  0  0  0
 18 26  1  0  0  0  0
 18 28  1  0  0  0  0
 18 53  1  0  0  0  0
 19 54  1  0  0  0  0
 19 55  1  0  0  0  0
 19 56  1  0  0  0  0
 20 22  2  0  0  0  0
 20 24  1  0  0  0  0
 21 25  1  0  0  0  0
 21 57  1  0  0  0  0
 21 58  1  0  0  0  0
 22 59  1  0  0  0  0
 23 60  1  0  0  0  0
 23 61  1  0  0  0  0
 23 62  1  0  0  0  0
 24 27  1  0  0  0  0
 24 63  1  0  0  0  0
 24 64  1  0  0  0  0
 25 27  1  0  0  0  0
 25 65  1  0  0  0  0
 25 66  1  0  0  0  0
 26 29  1  0  0  0  0
 26 67  1  0  0  0  0
 26 68  1  0  0  0  0
 27 69  1  0  0  0  0
 28 70  1  0  0  0  0
 28 71  1  0  0  0  0
 28 72  1  0  0  0  0
 29 30  1  0  0  0  0
 29 73  1  0  0  0  0
 29 74  1  0  0  0  0
 30 31  1  0  0  0  0
 30 75  1  0  0  0  0
 30 76  1  0  0  0  0
 31 32  1  0  0  0  0
 31 33  1  0  0  0  0
 31 77  1  0  0  0  0
 32 78  1  0  0  0  0
 32 79  1  0  0  0  0
 32 80  1  0  0  0  0
 33 81  1  0  0  0  0
 33 82  1  0  0  0  0
 33 83  1  0  0  0  0
 34 35  1  0  0  0  0
 34 86  1  0  0  0  0
 34 87  1  0  0  0  0
 35 88  1  0  0  0  0
 35 89  1  0  0  0  0
 36 90  1  0  0  0  0
 36 91  1  0  0  0  0
 36 92  1  0  0  0  0
 37 93  1  0  0  0  0
 37 94  1  0  0  0  0
 37 95  1  0  0  0  0
 38 96  1  0  0  0  0
 38 97  1  0  0  0  0
 38 98  1  0  0  0  0
M  CHG  2   4   1   6   1
M  END
> <PUBCHEM_COMPOUND_CID>
500086
> <PUBCHEM_COMPOUND_CANONICALIZED>
1
> <PUBCHEM_CACTVS_COMPLEXITY>
888
> <PUBCHEM_CACTVS_HBOND_ACCEPTOR>
3
> <PUBCHEM_CACTVS_HBOND_DONOR>
2
> <PUBCHEM_CACTVS_ROTATABLE_BOND>
11
> <PUBCHEM_CACTVS_SUBSKEYS>
AAADcfB+OAIAAAAAAAAAAAAAAAAAAYAAAAAwYIAAAAAAAGCAAAAAHgAACCAADxThgAYCAAMAARCAQiBCAIAAAAAgAAAACAAIAAgCAAIAAQAAAAAEwAAYAAOAwPAPgAAAAAAAAADAAAQAACAAAQAACAAAAA==
> <PUBCHEM_IUPAC_OPENEYE_NAME>
2-[[17-(1,5-dimethylhexyl)-10,13-dimethyl-2,3,4,7,8,9,11,12,14,15,16,17-dodecahydro-1H-cyclopenta[a]phenanthren-3-yl]oxy-hydroxy-oxoniumylidene-lambda5-phosphanyl]oxyethyl-trimethyl-ammonium
> <PUBCHEM_IUPAC_CAS_NAME>
2-[[10,13-dimethyl-17-(6-methylheptan-2-yl)-2,3,4,7,8,9,11,12,14,15,16,17-dodecahydro-1H-cyclopenta[a]phenanthren-3-yl]oxy-hydroxy-oxoniumylidenephosphoranyl]oxyethyl-trimethylammonium
> <PUBCHEM_IUPAC_NAME_MARKUP>
2-[[10,13-dimethyl-17-(6-methylheptan-2-yl)-2,3,4,7,8,9,11,12,14,15,16,17-dodecahydro-1<I>H</I>-cyclopenta[a]phenanthren-3-yl]oxy-hydroxy-oxoniumylidene-&lambda;<SUP>5</SUP>-phosphanyl]oxyethyl-trimethylazanium
> <PUBCHEM_IUPAC_NAME>
2-[[10,13-dimethyl-17-(6-methylheptan-2-yl)-2,3,4,7,8,9,11,12,14,15,16,17-dodecahydro-1H-cyclopenta[a]phenanthren-3-yl]oxy-hydroxy-oxoniumylidene-lambda5-phosphanyl]oxyethyl-trimethylazanium
> <PUBCHEM_IUPAC_SYSTEMATIC_NAME>
2-[[10,13-dimethyl-17-(6-methylheptan-2-yl)-2,3,4,7,8,9,11,12,14,15,16,17-dodecahydro-1H-cyclopenta[a]phenanthren-3-yl]oxy-oxidaniumylidene-oxidanyl-lambda5-phosphanyl]oxyethyl-trimethyl-azanium
> <PUBCHEM_IUPAC_TRADITIONAL_NAME>
2-[[17-(1,5-dimethylhexyl)-10,13-dimethyl-2,3,4,7,8,9,11,12,14,15,16,17-dodecahydro-1H-cyclopenta[a]phenanthren-3-yl]oxy-hydroxy-oxoniumylidene-phosphoranyl]oxyethyl-trimethyl-ammonium
> <PUBCHEM_IUPAC_INCHI>
InChI=1S/C32H58NO4P/c1-23(2)10-9-11-24(3)28-14-15-29-27-13-12-25-22-26(37-38(34,35)36-21-20-33(6,7)8)16-18-31(25,4)30(27)17-19-32(28,29)5/h12,23-24,26-30H,9-11,13-22H2,1-8H3/p+2
> <PUBCHEM_IUPAC_INCHIKEY>
MWEZHNCHKXEIBJ-UHFFFAOYSA-P
> <PUBCHEM_XLOGP3_AA>
8
> <PUBCHEM_EXACT_MASS>
553.42599639
> <PUBCHEM_MOLECULAR_FORMULA>
C32H60NO4P+2
> <PUBCHEM_MOLECULAR_WEIGHT>
553.8
> <PUBCHEM_OPENEYE_CAN_SMILES>
CC(C)CCCC(C)C1CCC2C1(CCC3C2CC=C4C3(CCC(C4)OP(=[OH+])(O)OCC[N+](C)(C)C)C)C
> <PUBCHEM_OPENEYE_ISO_SMILES>
CC(C)CCCC(C)C1CCC2C1(CCC3C2CC=C4C3(CCC(C4)OP(=[OH+])(O)OCC[N+](C)(C)C)C)C
> <PUBCHEM_CACTVS_TPSA>
39.7
> <PUBCHEM_MONOISOTOPIC_WEIGHT>
553.42599639
> <PUBCHEM_TOTAL_CHARGE>
2
> <PUBCHEM_HEAVY_ATOM_COUNT>
38
> <PUBCHEM_ATOM_DEF_STEREO_COUNT>
0
> <PUBCHEM_ATOM_UDEF_STEREO_COUNT>
8
> <PUBCHEM_BOND_DEF_STEREO_COUNT>
0
> <PUBCHEM_BOND_UDEF_STEREO_COUNT>
0
> <PUBCHEM_ISOTOPIC_ATOM_COUNT>
0
> <PUBCHEM_COMPONENT_COUNT>
1
> <PUBCHEM_CACTVS_TAUTO_COUNT>
-1
> <PUBCHEM_COORDINATE_TYPE>
1
5
255
> <PUBCHEM_BONDANNOTATIONS>
10  15  3
11  16  3
13  23  3
18  28  3
27  2  3
7  19  3
8  14  3
9  17  3
$$$$
