500067
  -OEChem-10302200282D
 68 73  0     1  0  0  0  0  0999 V2000
    5.8723   -1.2331    0.0000 O   0  0  0  0  0  0  0  0  0  0  0  0
    4.8614   -1.6005    0.0000 O   0  0  0  0  0  0  0  0  0  0  0  0
    8.3077   -2.5068    0.0000 O   0  0  0  0  0  0  0  0  0  0  0  0
   10.5940    0.2798    0.0000 O   0  0  0  0  0  0  0  0  0  0  0  0
    2.1359    3.0785    0.0000 O   0  0  0  0  0  0  0  0  0  0  0  0
    3.1295   -1.6205    0.0000 O   0  0  0  0  0  0  0  0  0  0  0  0
    6.6098   -0.5659    0.0000 C   0  0  3  0  0  0  0  0  0  0  0  0
    5.7438   -0.0659    0.0000 C   0  0  3  0  0  0  0  0  0  0  0  0
    7.4758   -0.0659    0.0000 C   0  0  3  0  0  0  0  0  0  0  0  0
    6.8190   -1.5377    0.0000 C   0  0  3  0  0  0  0  0  0  0  0  0
    5.7438    0.9341    0.0000 C   0  0  3  0  0  0  0  0  0  0  0  0
    4.8498    1.4688    0.0000 C   0  0  3  0  0  0  0  0  0  0  0  0
    8.2129   -0.7330    0.0000 C   0  0  3  0  0  0  0  0  0  0  0  0
    7.4758    0.9341    0.0000 C   0  0  0  0  0  0  0  0  0  0  0  0
    4.8498   -0.6006    0.0000 C   0  0  3  0  0  0  0  0  0  0  0  0
    6.6098    1.4341    0.0000 C   0  0  0  0  0  0  0  0  0  0  0  0
    3.9438    0.9549    0.0000 C   0  0  3  0  0  0  0  0  0  0  0  0
    7.8077   -1.6408    0.0000 C   0  0  0  0  0  0  0  0  0  0  0  0
    3.9438   -0.0867    0.0000 C   0  0  0  0  0  0  0  0  0  0  0  0
    5.4019   -1.0056    0.0000 C   0  0  0  0  0  0  0  0  0  0  0  0
    8.3419    0.4341    0.0000 C   0  0  0  0  0  0  0  0  0  0  0  0
    3.0000    1.4902    0.0000 C   0  0  0  0  0  0  0  0  0  0  0  0
    5.7197    1.9621    0.0000 C   0  0  0  0  0  0  0  0  0  0  0  0
    4.8749    2.5535    0.0000 C   0  0  0  0  0  0  0  0  0  0  0  0
    9.1914   -0.5268    0.0000 C   0  0  0  0  0  0  0  0  0  0  0  0
    3.0000    2.5752    0.0000 C   0  0  0  0  0  0  0  0  0  0  0  0
    3.9438    3.1104    0.0000 C   0  0  0  0  0  0  0  0  0  0  0  0
    2.0000    1.4863    0.0000 C   0  0  0  0  0  0  0  0  0  0  0  0
    2.5033    0.6222    0.0000 C   0  0  0  0  0  0  0  0  0  0  0  0
    9.9334   -1.1972    0.0000 C   0  0  0  0  0  0  0  0  0  0  0  0
    9.5997    0.3861    0.0000 C   0  0  0  0  0  0  0  0  0  0  0  0
    4.0012   -2.1105    0.0000 C   0  0  0  0  0  0  0  0  0  0  0  0
   10.8002   -0.6987    0.0000 C   0  0  0  0  0  0  0  0  0  0  0  0
    4.0128   -3.1104    0.0000 C   0  0  0  0  0  0  0  0  0  0  0  0
    6.6912   -2.1444    0.0000 H   0  0  0  0  0  0  0  0  0  0  0  0
    6.2807    0.6241    0.0000 H   0  0  0  0  0  0  0  0  0  0  0  0
    8.6024   -1.2153    0.0000 H   0  0  0  0  0  0  0  0  0  0  0  0
    8.0864    0.8264    0.0000 H   0  0  0  0  0  0  0  0  0  0  0  0
    7.6879    1.5167    0.0000 H   0  0  0  0  0  0  0  0  0  0  0  0
    4.3159   -0.9157    0.0000 H   0  0  0  0  0  0  0  0  0  0  0  0
    7.0083    1.9091    0.0000 H   0  0  0  0  0  0  0  0  0  0  0  0
    6.2113    1.9091    0.0000 H   0  0  0  0  0  0  0  0  0  0  0  0
    3.4080    0.6429    0.0000 H   0  0  0  0  0  0  0  0  0  0  0  0
    3.3329    0.0194    0.0000 H   0  0  0  0  0  0  0  0  0  0  0  0
    3.7347   -0.6704    0.0000 H   0  0  0  0  0  0  0  0  0  0  0  0
    4.8192   -0.7936    0.0000 H   0  0  0  0  0  0  0  0  0  0  0  0
    5.1899   -1.5882    0.0000 H   0  0  0  0  0  0  0  0  0  0  0  0
    5.9845   -1.2176    0.0000 H   0  0  0  0  0  0  0  0  0  0  0  0
    8.6519   -0.1028    0.0000 H   0  0  0  0  0  0  0  0  0  0  0  0
    8.8788    0.7441    0.0000 H   0  0  0  0  0  0  0  0  0  0  0  0
    8.0319    0.9710    0.0000 H   0  0  0  0  0  0  0  0  0  0  0  0
    6.0256    1.4228    0.0000 H   0  0  0  0  0  0  0  0  0  0  0  0
    6.2590    2.2679    0.0000 H   0  0  0  0  0  0  0  0  0  0  0  0
    5.4138    2.5014    0.0000 H   0  0  0  0  0  0  0  0  0  0  0  0
    5.4178    2.8531    0.0000 H   0  0  0  0  0  0  0  0  0  0  0  0
    3.9510    3.7304    0.0000 H   0  0  0  0  0  0  0  0  0  0  0  0
    1.9976    2.1063    0.0000 H   0  0  0  0  0  0  0  0  0  0  0  0
    1.3800    1.4839    0.0000 H   0  0  0  0  0  0  0  0  0  0  0  0
    2.0024    0.8663    0.0000 H   0  0  0  0  0  0  0  0  0  0  0  0
    1.9652    0.9301    0.0000 H   0  0  0  0  0  0  0  0  0  0  0  0
    2.1954    0.0841    0.0000 H   0  0  0  0  0  0  0  0  0  0  0  0
    3.0415    0.3143    0.0000 H   0  0  0  0  0  0  0  0  0  0  0  0
    9.8675   -1.8137    0.0000 H   0  0  0  0  0  0  0  0  0  0  0  0
    9.2906    0.9236    0.0000 H   0  0  0  0  0  0  0  0  0  0  0  0
   11.3662   -0.9518    0.0000 H   0  0  0  0  0  0  0  0  0  0  0  0
    3.3928   -3.1176    0.0000 H   0  0  0  0  0  0  0  0  0  0  0  0
    4.0200   -3.7304    0.0000 H   0  0  0  0  0  0  0  0  0  0  0  0
    4.6328   -3.1032    0.0000 H   0  0  0  0  0  0  0  0  0  0  0  0
  1  7  1  0  0  0  0
  1 10  1  0  0  0  0
  2 15  1  0  0  0  0
  2 32  1  0  0  0  0
  3 18  2  0  0  0  0
  4 31  1  0  0  0  0
  4 33  1  0  0  0  0
  5 26  2  0  0  0  0
  6 32  2  0  0  0  0
  7  8  1  0  0  0  0
  7  9  1  0  0  0  0
  7 10  1  0  0  0  0
  8 11  1  0  0  0  0
  8 15  1  0  0  0  0
  8 20  1  0  0  0  0
  9 13  1  0  0  0  0
  9 14  1  0  0  0  0
  9 21  1  0  0  0  0
 10 18  1  0  0  0  0
 10 35  1  0  0  0  0
 11 12  1  0  0  0  0
 11 16  1  0  0  0  0
 11 36  1  0  0  0  0
 12 17  1  0  0  0  0
 12 23  1  0  0  0  0
 12 24  1  0  0  0  0
 13 18  1  0  0  0  0
 13 25  1  0  0  0  0
 13 37  1  0  0  0  0
 14 16  1  0  0  0  0
 14 38  1  0  0  0  0
 14 39  1  0  0  0  0
 15 19  1  0  0  0  0
 15 40  1  0  0  0  0
 16 41  1  0  0  0  0
 16 42  1  0  0  0  0
 17 19  1  0  0  0  0
 17 22  1  0  0  0  0
 17 43  1  0  0  0  0
 19 44  1  0  0  0  0
 19 45  1  0  0  0  0
 20 46  1  0  0  0  0
 20 47  1  0  0  0  0
 20 48  1  0  0  0  0
 21 49  1  0  0  0  0
 21 50  1  0  0  0  0
 21 51  1  0  0  0  0
 22 26  1  0  0  0  0
 22 28  1  0  0  0  0
 22 29  1  0  0  0  0
 23 52  1  0  0  0  0
 23 53  1  0  0  0  0
 23 54  1  0  0  0  0
 24 27  2  0  0  0  0
 24 55  1  0  0  0  0
 25 30  1  0  0  0  0
 25 31  2  0  0  0  0
 26 27  1  0  0  0  0
 27 56  1  0  0  0  0
 28 57  1  0  0  0  0
 28 58  1  0  0  0  0
 28 59  1  0  0  0  0
 29 60  1  0  0  0  0
 29 61  1  0  0  0  0
 29 62  1  0  0  0  0
 30 33  2  0  0  0  0
 30 63  1  0  0  0  0
 31 64  1  0  0  0  0
 32 34  1  0  0  0  0
 33 65  1  0  0  0  0
 34 66  1  0  0  0  0
 34 67  1  0  0  0  0
 34 68  1  0  0  0  0
M  END
> <PUBCHEM_COMPOUND_CID>
500067
> <PUBCHEM_COMPOUND_CANONICALIZED>
1
> <PUBCHEM_CACTVS_COMPLEXITY>
1010
> <PUBCHEM_CACTVS_HBOND_ACCEPTOR>
6
> <PUBCHEM_CACTVS_HBOND_DONOR>
0
> <PUBCHEM_CACTVS_ROTATABLE_BOND>
3
> <PUBCHEM_CACTVS_SUBSKEYS>
AAADcfB4OAAAAAAAAAAAAAAAEgAAAaIAAAA0YIEAAAAAAGDRgAAAGgAAAAAAD1SgmAIyDIAABECIAqjSiAICCAAkIAAIiAFGCMgMJhYENQ6CGSCl4BEIKYPL7vzvgAAAAAAAAADAAAYAADAAAYAADAAAAA==
> <PUBCHEM_IUPAC_OPENEYE_NAME>
[6-(3-furyl)-1,7,11,15,15-pentamethyl-5,14-dioxo-3-oxapentacyclo[8.8.0.02,4.02,7.011,16]octadec-12-en-18-yl] acetate
> <PUBCHEM_IUPAC_CAS_NAME>
acetic acid [6-(3-furanyl)-1,7,11,15,15-pentamethyl-5,14-dioxo-3-oxapentacyclo[8.8.0.02,4.02,7.011,16]octadec-12-en-18-yl] ester
> <PUBCHEM_IUPAC_NAME_MARKUP>
[6-(furan-3-yl)-1,7,11,15,15-pentamethyl-5,14-dioxo-3-oxapentacyclo[8.8.0.0<SUP>2,4</SUP>.0<SUP>2,7</SUP>.0<SUP>11,16</SUP>]octadec-12-en-18-yl] acetate
> <PUBCHEM_IUPAC_NAME>
[6-(furan-3-yl)-1,7,11,15,15-pentamethyl-5,14-dioxo-3-oxapentacyclo[8.8.0.02,4.02,7.011,16]octadec-12-en-18-yl] acetate
> <PUBCHEM_IUPAC_SYSTEMATIC_NAME>
[6-(furan-3-yl)-1,7,11,15,15-pentamethyl-5,14-bis(oxidanylidene)-3-oxapentacyclo[8.8.0.02,4.02,7.011,16]octadec-12-en-18-yl] ethanoate
> <PUBCHEM_IUPAC_TRADITIONAL_NAME>
acetic acid [6-(3-furyl)-5,14-diketo-1,7,11,15,15-pentamethyl-3-oxapentacyclo[8.8.0.02,4.02,7.011,16]octadec-12-en-18-yl] ester
> <PUBCHEM_IUPAC_INCHI>
InChI=1S/C28H34O6/c1-15(29)33-20-13-18-24(2,3)19(30)8-10-25(18,4)17-7-11-26(5)21(16-9-12-32-14-16)22(31)23-28(26,34-23)27(17,20)6/h8-10,12,14,17-18,20-21,23H,7,11,13H2,1-6H3
> <PUBCHEM_IUPAC_INCHIKEY>
NEYCGDYQBQONFC-UHFFFAOYSA-N
> <PUBCHEM_XLOGP3_AA>
4.2
> <PUBCHEM_EXACT_MASS>
466.23553880
> <PUBCHEM_MOLECULAR_FORMULA>
C28H34O6
> <PUBCHEM_MOLECULAR_WEIGHT>
466.6
> <PUBCHEM_OPENEYE_CAN_SMILES>
CC(=O)OC1CC2C(C(=O)C=CC2(C3C1(C45C(O4)C(=O)C(C5(CC3)C)C6=COC=C6)C)C)(C)C
> <PUBCHEM_OPENEYE_ISO_SMILES>
CC(=O)OC1CC2C(C(=O)C=CC2(C3C1(C45C(O4)C(=O)C(C5(CC3)C)C6=COC=C6)C)C)(C)C
> <PUBCHEM_CACTVS_TPSA>
86.1
> <PUBCHEM_MONOISOTOPIC_WEIGHT>
466.23553880
> <PUBCHEM_TOTAL_CHARGE>
0
> <PUBCHEM_HEAVY_ATOM_COUNT>
34
> <PUBCHEM_ATOM_DEF_STEREO_COUNT>
0
> <PUBCHEM_ATOM_UDEF_STEREO_COUNT>
9
> <PUBCHEM_BOND_DEF_STEREO_COUNT>
0
> <PUBCHEM_BOND_UDEF_STEREO_COUNT>
0
> <PUBCHEM_ISOTOPIC_ATOM_COUNT>
0
> <PUBCHEM_COMPONENT_COUNT>
1
> <PUBCHEM_CACTVS_TAUTO_COUNT>
-1
> <PUBCHEM_COORDINATE_TYPE>
1
5
255
> <PUBCHEM_BONDANNOTATIONS>
10  18  3
11  16  3
12  23  3
13  25  3
17  19  3
15  2  3
25  30  8
25  31  8
30  33  8
4  31  8
4  33  8
7  10  3
8  20  3
9  21  3
$$$$
