500036
  -OEChem-10302200282D
 52 54  0     1  0  0  0  0  0999 V2000
    8.0535    1.6105    0.0000 O   0  0  0  0  0  0  0  0  0  0  0  0
    3.1788    2.0454    0.0000 O   0  0  0  0  0  0  0  0  0  0  0  0
    5.3212    0.6100    0.0000 C   0  0  3  0  0  0  0  0  0  0  0  0
    7.1872    1.1100    0.0000 C   0  0  3  0  0  0  0  0  0  0  0  0
    8.0532    0.6100    0.0000 C   0  0  3  0  0  0  0  0  0  0  0  0
    6.3212    0.6100    0.0000 C   0  0  0  0  0  0  0  0  0  0  0  0
    4.6141   -0.0971    0.0000 C   0  0  3  0  0  0  0  0  0  0  0  0
    4.8676    1.4946    0.0000 C   0  0  0  0  0  0  0  0  0  0  0  0
    8.0532   -0.3900    0.0000 C   0  0  0  0  0  0  0  0  0  0  0  0
    3.7295    0.3565    0.0000 C   0  0  0  0  0  0  0  0  0  0  0  0
    6.0283    1.3172    0.0000 C   0  0  0  0  0  0  0  0  0  0  0  0
    4.6141   -1.0971    0.0000 C   0  0  0  0  0  0  0  0  0  0  0  0
    8.9193    0.1100    0.0000 C   0  0  0  0  0  0  0  0  0  0  0  0
    3.8859    1.3382    0.0000 C   0  0  0  0  0  0  0  0  0  0  0  0
    8.0192   -1.5454    0.0000 C   0  0  0  0  0  0  0  0  0  0  0  0
    5.3212   -1.8042    0.0000 C   0  0  0  0  0  0  0  0  0  0  0  0
    2.8377   -0.0959    0.0000 C   0  0  0  0  0  0  0  0  0  0  0  0
    6.2871   -1.5454    0.0000 C   0  0  0  0  0  0  0  0  0  0  0  0
    7.1531   -2.0454    0.0000 C   0  0  0  0  0  0  0  0  0  0  0  0
    2.0000    0.4502    0.0000 C   0  0  0  0  0  0  0  0  0  0  0  0
    2.7837   -1.0944    0.0000 C   0  0  0  0  0  0  0  0  0  0  0  0
    6.4176   -0.5539    0.0000 C   0  0  0  0  0  0  0  0  0  0  0  0
    6.8771    1.6469    0.0000 H   0  0  0  0  0  0  0  0  0  0  0  0
    6.1091    0.0274    0.0000 H   0  0  0  0  0  0  0  0  0  0  0  0
    6.1607    1.2089    0.0000 H   0  0  0  0  0  0  0  0  0  0  0  0
    4.0850   -0.4203    0.0000 H   0  0  0  0  0  0  0  0  0  0  0  0
    5.4460    1.7180    0.0000 H   0  0  0  0  0  0  0  0  0  0  0  0
    4.7062    2.0932    0.0000 H   0  0  0  0  0  0  0  0  0  0  0  0
    8.5840   -0.7104    0.0000 H   0  0  0  0  0  0  0  0  0  0  0  0
    7.4333   -0.3808    0.0000 H   0  0  0  0  0  0  0  0  0  0  0  0
    6.4667    0.8787    0.0000 H   0  0  0  0  0  0  0  0  0  0  0  0
    6.4667    1.7556    0.0000 H   0  0  0  0  0  0  0  0  0  0  0  0
    5.5899    1.7556    0.0000 H   0  0  0  0  0  0  0  0  0  0  0  0
    4.0152   -0.9366    0.0000 H   0  0  0  0  0  0  0  0  0  0  0  0
    4.3041   -1.6340    0.0000 H   0  0  0  0  0  0  0  0  0  0  0  0
    8.6093   -0.4269    0.0000 H   0  0  0  0  0  0  0  0  0  0  0  0
    9.4562   -0.2000    0.0000 H   0  0  0  0  0  0  0  0  0  0  0  0
    9.2293    0.6470    0.0000 H   0  0  0  0  0  0  0  0  0  0  0  0
    8.2255   -2.1300    0.0000 H   0  0  0  0  0  0  0  0  0  0  0  0
    8.6317   -1.4497    0.0000 H   0  0  0  0  0  0  0  0  0  0  0  0
    4.8133   -2.1598    0.0000 H   0  0  0  0  0  0  0  0  0  0  0  0
    5.5832   -2.3661    0.0000 H   0  0  0  0  0  0  0  0  0  0  0  0
    7.1531   -2.6654    0.0000 H   0  0  0  0  0  0  0  0  0  0  0  0
    2.3386    0.9696    0.0000 H   0  0  0  0  0  0  0  0  0  0  0  0
    1.4806    0.7888    0.0000 H   0  0  0  0  0  0  0  0  0  0  0  0
    1.6614   -0.0692    0.0000 H   0  0  0  0  0  0  0  0  0  0  0  0
    2.1646   -1.0609    0.0000 H   0  0  0  0  0  0  0  0  0  0  0  0
    2.7501   -1.7135    0.0000 H   0  0  0  0  0  0  0  0  0  0  0  0
    3.4028   -1.1280    0.0000 H   0  0  0  0  0  0  0  0  0  0  0  0
    7.0323   -0.6348    0.0000 H   0  0  0  0  0  0  0  0  0  0  0  0
    6.4986    0.0608    0.0000 H   0  0  0  0  0  0  0  0  0  0  0  0
    5.8029   -0.4730    0.0000 H   0  0  0  0  0  0  0  0  0  0  0  0
  1  4  1  0  0  0  0
  1  5  1  0  0  0  0
  2 14  2  0  0  0  0
  3  6  1  0  0  0  0
  3  7  1  0  0  0  0
  3  8  1  0  0  0  0
  3 11  1  0  0  0  0
  4  5  1  0  0  0  0
  4  6  1  0  0  0  0
  4 23  1  0  0  0  0
  5  9  1  0  0  0  0
  5 13  1  0  0  0  0
  6 24  1  0  0  0  0
  6 25  1  0  0  0  0
  7 10  1  0  0  0  0
  7 12  1  0  0  0  0
  7 26  1  0  0  0  0
  8 14  1  0  0  0  0
  8 27  1  0  0  0  0
  8 28  1  0  0  0  0
  9 15  1  0  0  0  0
  9 29  1  0  0  0  0
  9 30  1  0  0  0  0
 10 14  1  0  0  0  0
 10 17  2  0  0  0  0
 11 31  1  0  0  0  0
 11 32  1  0  0  0  0
 11 33  1  0  0  0  0
 12 16  1  0  0  0  0
 12 34  1  0  0  0  0
 12 35  1  0  0  0  0
 13 36  1  0  0  0  0
 13 37  1  0  0  0  0
 13 38  1  0  0  0  0
 15 19  1  0  0  0  0
 15 39  1  0  0  0  0
 15 40  1  0  0  0  0
 16 18  1  0  0  0  0
 16 41  1  0  0  0  0
 16 42  1  0  0  0  0
 17 20  1  0  0  0  0
 17 21  1  0  0  0  0
 18 19  2  3  0  0  0
 18 22  1  0  0  0  0
 19 43  1  0  0  0  0
 20 44  1  0  0  0  0
 20 45  1  0  0  0  0
 20 46  1  0  0  0  0
 21 47  1  0  0  0  0
 21 48  1  0  0  0  0
 21 49  1  0  0  0  0
 22 50  1  0  0  0  0
 22 51  1  0  0  0  0
 22 52  1  0  0  0  0
M  END
> <PUBCHEM_COMPOUND_CID>
500036
> <PUBCHEM_COMPOUND_CANONICALIZED>
1
> <PUBCHEM_CACTVS_COMPLEXITY>
552
> <PUBCHEM_CACTVS_HBOND_ACCEPTOR>
2
> <PUBCHEM_CACTVS_HBOND_DONOR>
0
> <PUBCHEM_CACTVS_ROTATABLE_BOND>
0
> <PUBCHEM_CACTVS_SUBSKEYS>
AAADceB4MAAAAAAAAAAAAAAAEgAAAYAAAAAAAAAAAAAAAAAAAAAAGgAAAAAAD1SggAICAAAABACIAqBSAAAAAAAgAAAACAEAAEgAABIAAQACAAAEgAAIAQOIzPDPgAAAAAAAAAAAAAAAAAAAAAAACAAAAA==
> <PUBCHEM_IUPAC_OPENEYE_NAME>
13-isopropylidene-1,5,9-trimethyl-4-oxatricyclo[10.3.0.03,5]pentadec-8-en-14-one
> <PUBCHEM_IUPAC_CAS_NAME>
1,5,9-trimethyl-13-propan-2-ylidene-4-oxatricyclo[10.3.0.03,5]pentadec-8-en-14-one
> <PUBCHEM_IUPAC_NAME_MARKUP>
1,5,9-trimethyl-13-propan-2-ylidene-4-oxatricyclo[10.3.0.0<SUP>3,5</SUP>]pentadec-8-en-14-one
> <PUBCHEM_IUPAC_NAME>
1,5,9-trimethyl-13-propan-2-ylidene-4-oxatricyclo[10.3.0.03,5]pentadec-8-en-14-one
> <PUBCHEM_IUPAC_SYSTEMATIC_NAME>
1,5,9-trimethyl-13-propan-2-ylidene-4-oxatricyclo[10.3.0.03,5]pentadec-8-en-14-one
> <PUBCHEM_IUPAC_TRADITIONAL_NAME>
13-isopropylidene-1,5,9-trimethyl-4-oxatricyclo[10.3.0.03,5]pentadec-8-en-14-one
> <PUBCHEM_IUPAC_INCHI>
InChI=1S/C20H30O2/c1-13(2)18-15-9-8-14(3)7-6-10-20(5)17(22-20)12-19(15,4)11-16(18)21/h7,15,17H,6,8-12H2,1-5H3
> <PUBCHEM_IUPAC_INCHIKEY>
WIQJIYQQVYRKPQ-UHFFFAOYSA-N
> <PUBCHEM_XLOGP3_AA>
4.2
> <PUBCHEM_EXACT_MASS>
302.224580195
> <PUBCHEM_MOLECULAR_FORMULA>
C20H30O2
> <PUBCHEM_MOLECULAR_WEIGHT>
302.5
> <PUBCHEM_OPENEYE_CAN_SMILES>
CC1=CCCC2(C(O2)CC3(CC(=O)C(=C(C)C)C3CC1)C)C
> <PUBCHEM_OPENEYE_ISO_SMILES>
CC1=CCCC2(C(O2)CC3(CC(=O)C(=C(C)C)C3CC1)C)C
> <PUBCHEM_CACTVS_TPSA>
29.6
> <PUBCHEM_MONOISOTOPIC_WEIGHT>
302.224580195
> <PUBCHEM_TOTAL_CHARGE>
0
> <PUBCHEM_HEAVY_ATOM_COUNT>
22
> <PUBCHEM_ATOM_DEF_STEREO_COUNT>
0
> <PUBCHEM_ATOM_UDEF_STEREO_COUNT>
4
> <PUBCHEM_BOND_DEF_STEREO_COUNT>
0
> <PUBCHEM_BOND_UDEF_STEREO_COUNT>
1
> <PUBCHEM_ISOTOPIC_ATOM_COUNT>
0
> <PUBCHEM_COMPONENT_COUNT>
1
> <PUBCHEM_CACTVS_TAUTO_COUNT>
-1
> <PUBCHEM_COORDINATE_TYPE>
1
5
255
> <PUBCHEM_BONDANNOTATIONS>
18  19  1
3  11  3
4  6  3
5  13  3
7  12  3
$$$$
