500090
  -OEChem-10302200282D
 28 29  0     1  0  0  0  0  0999 V2000
    6.3981    1.0000    0.0000 O   0  0  0  0  0  0  0  0  0  0  0  0
    4.6660    2.0000    0.0000 O   0  0  0  0  0  0  0  0  0  0  0  0
    4.6660   -1.0000    0.0000 N   0  0  0  0  0  0  0  0  0  0  0  0
    6.3981   -2.0000    0.0000 N   0  0  0  0  0  0  0  0  0  0  0  0
    5.5321   -0.5000    0.0000 C   0  0  3  0  0  0  0  0  0  0  0  0
    5.5321    0.5000    0.0000 C   0  0  3  0  0  0  0  0  0  0  0  0
    4.6660    1.0000    0.0000 C   0  0  3  0  0  0  0  0  0  0  0  0
    3.8000    0.5000    0.0000 C   0  0  0  0  0  0  0  0  0  0  0  0
    3.8000   -0.5000    0.0000 C   0  0  0  0  0  0  0  0  0  0  0  0
    6.3981   -1.0000    0.0000 C   0  0  0  0  0  0  0  0  0  0  0  0
    2.9061    1.0347    0.0000 C   0  0  0  0  0  0  0  0  0  0  0  0
    2.9061   -1.0347    0.0000 C   0  0  0  0  0  0  0  0  0  0  0  0
    2.0000    0.5208    0.0000 C   0  0  0  0  0  0  0  0  0  0  0  0
    2.0000   -0.5208    0.0000 C   0  0  0  0  0  0  0  0  0  0  0  0
    5.5321   -1.1200    0.0000 H   0  0  0  0  0  0  0  0  0  0  0  0
    5.5321    1.1200    0.0000 H   0  0  0  0  0  0  0  0  0  0  0  0
    4.1291    1.3100    0.0000 H   0  0  0  0  0  0  0  0  0  0  0  0
    4.6660   -1.6200    0.0000 H   0  0  0  0  0  0  0  0  0  0  0  0
    7.0087   -1.1077    0.0000 H   0  0  0  0  0  0  0  0  0  0  0  0
    6.6101   -0.4174    0.0000 H   0  0  0  0  0  0  0  0  0  0  0  0
    2.9132    1.6546    0.0000 H   0  0  0  0  0  0  0  0  0  0  0  0
    2.9132   -1.6546    0.0000 H   0  0  0  0  0  0  0  0  0  0  0  0
    6.9350    0.6900    0.0000 H   0  0  0  0  0  0  0  0  0  0  0  0
    5.2030    2.3100    0.0000 H   0  0  0  0  0  0  0  0  0  0  0  0
    6.9350   -2.3100    0.0000 H   0  0  0  0  0  0  0  0  0  0  0  0
    5.8612   -2.3100    0.0000 H   0  0  0  0  0  0  0  0  0  0  0  0
    1.4643    0.8329    0.0000 H   0  0  0  0  0  0  0  0  0  0  0  0
    1.4643   -0.8329    0.0000 H   0  0  0  0  0  0  0  0  0  0  0  0
  1  6  1  0  0  0  0
  1 23  1  0  0  0  0
  2  7  1  0  0  0  0
  2 24  1  0  0  0  0
  3  5  1  0  0  0  0
  3  9  1  0  0  0  0
  3 18  1  0  0  0  0
  4 10  1  0  0  0  0
  4 25  1  0  0  0  0
  4 26  1  0  0  0  0
  5  6  1  0  0  0  0
  5 10  1  0  0  0  0
  5 15  1  0  0  0  0
  6  7  1  0  0  0  0
  6 16  1  0  0  0  0
  7  8  1  0  0  0  0
  7 17  1  0  0  0  0
  8  9  1  0  0  0  0
  8 11  2  0  0  0  0
  9 12  2  0  0  0  0
 10 19  1  0  0  0  0
 10 20  1  0  0  0  0
 11 13  1  0  0  0  0
 11 21  1  0  0  0  0
 12 14  1  0  0  0  0
 12 22  1  0  0  0  0
 13 14  2  0  0  0  0
 13 27  1  0  0  0  0
 14 28  1  0  0  0  0
M  END
> <PUBCHEM_COMPOUND_CID>
500090
> <PUBCHEM_COMPOUND_CANONICALIZED>
1
> <PUBCHEM_CACTVS_COMPLEXITY>
201
> <PUBCHEM_CACTVS_HBOND_ACCEPTOR>
4
> <PUBCHEM_CACTVS_HBOND_DONOR>
4
> <PUBCHEM_CACTVS_ROTATABLE_BOND>
1
> <PUBCHEM_CACTVS_SUBSKEYS>
AAADccBzMAAAAAAAAAAAAAAAAAAAAAAAAAA8QAAAAAAAAACxAAAAHgAQCAAADDzhmAYwwILAAgCAAiRCQACCAAAhAgAIiIAIbIgLdiLAkZGUcAhm0AHZ2AewwKAOAAAAAAACAAAAAAAAAAQAAAAAAAAAAA==
> <PUBCHEM_IUPAC_OPENEYE_NAME>
2-(aminomethyl)-1,2,3,4-tetrahydroquinoline-3,4-diol
> <PUBCHEM_IUPAC_CAS_NAME>
2-(aminomethyl)-1,2,3,4-tetrahydroquinoline-3,4-diol
> <PUBCHEM_IUPAC_NAME_MARKUP>
2-(aminomethyl)-1,2,3,4-tetrahydroquinoline-3,4-diol
> <PUBCHEM_IUPAC_NAME>
2-(aminomethyl)-1,2,3,4-tetrahydroquinoline-3,4-diol
> <PUBCHEM_IUPAC_SYSTEMATIC_NAME>
2-(aminomethyl)-1,2,3,4-tetrahydroquinoline-3,4-diol
> <PUBCHEM_IUPAC_TRADITIONAL_NAME>
2-(aminomethyl)-1,2,3,4-tetrahydroquinoline-3,4-diol
> <PUBCHEM_IUPAC_INCHI>
InChI=1S/C10H14N2O2/c11-5-8-10(14)9(13)6-3-1-2-4-7(6)12-8/h1-4,8-10,12-14H,5,11H2
> <PUBCHEM_IUPAC_INCHIKEY>
MAHRZOLSQHXKSH-UHFFFAOYSA-N
> <PUBCHEM_XLOGP3_AA>
-0.1
> <PUBCHEM_EXACT_MASS>
194.105527694
> <PUBCHEM_MOLECULAR_FORMULA>
C10H14N2O2
> <PUBCHEM_MOLECULAR_WEIGHT>
194.23
> <PUBCHEM_OPENEYE_CAN_SMILES>
C1=CC=C2C(=C1)C(C(C(N2)CN)O)O
> <PUBCHEM_OPENEYE_ISO_SMILES>
C1=CC=C2C(=C1)C(C(C(N2)CN)O)O
> <PUBCHEM_CACTVS_TPSA>
78.5
> <PUBCHEM_MONOISOTOPIC_WEIGHT>
194.105527694
> <PUBCHEM_TOTAL_CHARGE>
0
> <PUBCHEM_HEAVY_ATOM_COUNT>
14
> <PUBCHEM_ATOM_DEF_STEREO_COUNT>
0
> <PUBCHEM_ATOM_UDEF_STEREO_COUNT>
3
> <PUBCHEM_BOND_DEF_STEREO_COUNT>
0
> <PUBCHEM_BOND_UDEF_STEREO_COUNT>
0
> <PUBCHEM_ISOTOPIC_ATOM_COUNT>
0
> <PUBCHEM_COMPONENT_COUNT>
1
> <PUBCHEM_CACTVS_TAUTO_COUNT>
-1
> <PUBCHEM_COORDINATE_TYPE>
1
5
255
> <PUBCHEM_BONDANNOTATIONS>
6  1  3
11  13  8
12  14  8
13  14  8
7  2  3
5  10  3
8  11  8
8  9  8
9  12  8
$$$$
