500064
  -OEChem-10302200282D
 57 60  0     1  0  0  0  0  0999 V2000
    8.7414    2.7691    0.0000 Br  0  0  0  0  0  0  0  0  0  0  0  0
    6.8446   -0.1665    0.0000 O   0  0  0  0  0  0  0  0  0  0  0  0
    8.4627   -0.1665    0.0000 O   0  0  0  0  0  0  0  0  0  0  0  0
    5.8936    0.7001    0.0000 O   0  0  0  0  0  0  0  0  0  0  0  0
    6.5659    2.7691    0.0000 O   0  0  0  0  0  0  0  0  0  0  0  0
    5.5714   -1.8220    0.0000 O   0  0  0  0  0  0  0  0  0  0  0  0
    9.7360   -1.8220    0.0000 O   0  0  0  0  0  0  0  0  0  0  0  0
    7.6537    0.4213    0.0000 C   0  0  0  0  0  0  0  0  0  0  0  0
    6.8446    1.0091    0.0000 C   0  0  3  0  0  0  0  0  0  0  0  0
    8.4627    1.0091    0.0000 C   0  0  0  0  0  0  0  0  0  0  0  0
    7.1537    1.9601    0.0000 C   0  0  3  0  0  0  0  0  0  0  0  0
    8.1537    1.9601    0.0000 C   0  0  3  0  0  0  0  0  0  0  0  0
    7.1537   -1.1176    0.0000 C   0  0  3  0  0  0  0  0  0  0  0  0
    8.1537   -1.1176    0.0000 C   0  0  3  0  0  0  0  0  0  0  0  0
    6.5659   -1.9266    0.0000 C   0  0  0  0  0  0  0  0  0  0  0  0
    8.7414   -1.9266    0.0000 C   0  0  0  0  0  0  0  0  0  0  0  0
    4.9836   -2.6311    0.0000 C   0  0  0  0  0  0  0  0  0  0  0  0
   10.3238   -2.6311    0.0000 C   0  0  0  0  0  0  0  0  0  0  0  0
    3.9890   -2.5265    0.0000 C   0  0  0  0  0  0  0  0  0  0  0  0
   11.3183   -2.5265    0.0000 C   0  0  0  0  0  0  0  0  0  0  0  0
    3.4013   -3.3356    0.0000 C   0  0  0  0  0  0  0  0  0  0  0  0
   11.9061   -3.3356    0.0000 C   0  0  0  0  0  0  0  0  0  0  0  0
    3.5823   -1.6130    0.0000 C   0  0  0  0  0  0  0  0  0  0  0  0
   11.7250   -1.6130    0.0000 C   0  0  0  0  0  0  0  0  0  0  0  0
    2.4067   -3.2310    0.0000 C   0  0  0  0  0  0  0  0  0  0  0  0
   12.9006   -3.2310    0.0000 C   0  0  0  0  0  0  0  0  0  0  0  0
    2.5878   -1.5085    0.0000 C   0  0  0  0  0  0  0  0  0  0  0  0
   12.7195   -1.5085    0.0000 C   0  0  0  0  0  0  0  0  0  0  0  0
    2.0000   -2.3175    0.0000 C   0  0  0  0  0  0  0  0  0  0  0  0
   13.3073   -2.3175    0.0000 C   0  0  0  0  0  0  0  0  0  0  0  0
    6.7476    0.3967    0.0000 H   0  0  0  0  0  0  0  0  0  0  0  0
    8.7727    0.4721    0.0000 H   0  0  0  0  0  0  0  0  0  0  0  0
    9.0291    1.2612    0.0000 H   0  0  0  0  0  0  0  0  0  0  0  0
    6.5413    1.8631    0.0000 H   0  0  0  0  0  0  0  0  0  0  0  0
    7.8722    2.5126    0.0000 H   0  0  0  0  0  0  0  0  0  0  0  0
    6.5413   -1.0206    0.0000 H   0  0  0  0  0  0  0  0  0  0  0  0
    8.7660   -1.0206    0.0000 H   0  0  0  0  0  0  0  0  0  0  0  0
    6.3950   -2.5226    0.0000 H   0  0  0  0  0  0  0  0  0  0  0  0
    7.1231   -2.1984    0.0000 H   0  0  0  0  0  0  0  0  0  0  0  0
    8.1842   -2.1984    0.0000 H   0  0  0  0  0  0  0  0  0  0  0  0
    8.9123   -2.5226    0.0000 H   0  0  0  0  0  0  0  0  0  0  0  0
    5.4328    1.1149    0.0000 H   0  0  0  0  0  0  0  0  0  0  0  0
    6.8180    3.3356    0.0000 H   0  0  0  0  0  0  0  0  0  0  0  0
    4.8127   -3.2270    0.0000 H   0  0  0  0  0  0  0  0  0  0  0  0
    5.5408   -2.9028    0.0000 H   0  0  0  0  0  0  0  0  0  0  0  0
    9.7665   -2.9028    0.0000 H   0  0  0  0  0  0  0  0  0  0  0  0
   10.4946   -3.2270    0.0000 H   0  0  0  0  0  0  0  0  0  0  0  0
    3.6534   -3.9019    0.0000 H   0  0  0  0  0  0  0  0  0  0  0  0
   11.6539   -3.9019    0.0000 H   0  0  0  0  0  0  0  0  0  0  0  0
    3.9467   -1.1114    0.0000 H   0  0  0  0  0  0  0  0  0  0  0  0
   11.3606   -1.1114    0.0000 H   0  0  0  0  0  0  0  0  0  0  0  0
    2.0423   -3.7326    0.0000 H   0  0  0  0  0  0  0  0  0  0  0  0
   13.2650   -3.7326    0.0000 H   0  0  0  0  0  0  0  0  0  0  0  0
    2.3356   -0.9421    0.0000 H   0  0  0  0  0  0  0  0  0  0  0  0
   12.9717   -0.9421    0.0000 H   0  0  0  0  0  0  0  0  0  0  0  0
    1.3834   -2.2527    0.0000 H   0  0  0  0  0  0  0  0  0  0  0  0
   13.9239   -2.2527    0.0000 H   0  0  0  0  0  0  0  0  0  0  0  0
  1 12  1  0  0  0  0
  2  8  1  0  0  0  0
  2 13  1  0  0  0  0
  3  8  1  0  0  0  0
  3 14  1  0  0  0  0
  4  9  1  0  0  0  0
  4 42  1  0  0  0  0
  5 11  1  0  0  0  0
  5 43  1  0  0  0  0
  6 15  1  0  0  0  0
  6 17  1  0  0  0  0
  7 16  1  0  0  0  0
  7 18  1  0  0  0  0
  8  9  1  0  0  0  0
  8 10  1  0  0  0  0
  9 11  1  0  0  0  0
  9 31  1  0  0  0  0
 10 12  1  0  0  0  0
 10 32  1  0  0  0  0
 10 33  1  0  0  0  0
 11 12  1  0  0  0  0
 11 34  1  0  0  0  0
 12 35  1  0  0  0  0
 13 14  1  0  0  0  0
 13 15  1  0  0  0  0
 13 36  1  0  0  0  0
 14 16  1  0  0  0  0
 14 37  1  0  0  0  0
 15 38  1  0  0  0  0
 15 39  1  0  0  0  0
 16 40  1  0  0  0  0
 16 41  1  0  0  0  0
 17 19  1  0  0  0  0
 17 44  1  0  0  0  0
 17 45  1  0  0  0  0
 18 20  1  0  0  0  0
 18 46  1  0  0  0  0
 18 47  1  0  0  0  0
 19 21  2  0  0  0  0
 19 23  1  0  0  0  0
 20 22  2  0  0  0  0
 20 24  1  0  0  0  0
 21 25  1  0  0  0  0
 21 48  1  0  0  0  0
 22 26  1  0  0  0  0
 22 49  1  0  0  0  0
 23 27  2  0  0  0  0
 23 50  1  0  0  0  0
 24 28  2  0  0  0  0
 24 51  1  0  0  0  0
 25 29  2  0  0  0  0
 25 52  1  0  0  0  0
 26 30  2  0  0  0  0
 26 53  1  0  0  0  0
 27 29  1  0  0  0  0
 27 54  1  0  0  0  0
 28 30  1  0  0  0  0
 28 55  1  0  0  0  0
 29 56  1  0  0  0  0
 30 57  1  0  0  0  0
M  END
> <PUBCHEM_COMPOUND_CID>
500064
> <PUBCHEM_COMPOUND_CANONICALIZED>
1
> <PUBCHEM_CACTVS_COMPLEXITY>
490
> <PUBCHEM_CACTVS_HBOND_ACCEPTOR>
6
> <PUBCHEM_CACTVS_HBOND_DONOR>
2
> <PUBCHEM_CACTVS_ROTATABLE_BOND>
8
> <PUBCHEM_CACTVS_SUBSKEYS>
AAADceB4OAAAEAAAAAAAAAAAAAAAAaIAAAAwYAAAAAAAAAABQAAAGgBACAABzBSgmAIwCIAABgCAAiBCAAACAAAgAAAIiAAACKgZNiKAMRiicAAlwAEPqAfA4CgOAAAAAAAAAAAAAAAAAAAAAARAACIAAA==
> <PUBCHEM_IUPAC_OPENEYE_NAME>
2,3-bis(benzyloxymethyl)-7-bromo-1,4-dioxaspiro[4.4]nonane-8,9-diol
> <PUBCHEM_IUPAC_CAS_NAME>
7-bromo-2,3-bis(phenylmethoxymethyl)-1,4-dioxaspiro[4.4]nonane-8,9-diol
> <PUBCHEM_IUPAC_NAME_MARKUP>
7-bromo-2,3-bis(phenylmethoxymethyl)-1,4-dioxaspiro[4.4]nonane-8,9-diol
> <PUBCHEM_IUPAC_NAME>
7-bromo-2,3-bis(phenylmethoxymethyl)-1,4-dioxaspiro[4.4]nonane-8,9-diol
> <PUBCHEM_IUPAC_SYSTEMATIC_NAME>
7-bromanyl-2,3-bis(phenylmethoxymethyl)-1,4-dioxaspiro[4.4]nonane-8,9-diol
> <PUBCHEM_IUPAC_TRADITIONAL_NAME>
2,3-bis(benzoxymethyl)-7-bromo-1,4-dioxaspiro[4.4]nonane-8,9-diol
> <PUBCHEM_IUPAC_INCHI>
InChI=1S/C23H27BrO6/c24-18-11-23(22(26)21(18)25)29-19(14-27-12-16-7-3-1-4-8-16)20(30-23)15-28-13-17-9-5-2-6-10-17/h1-10,18-22,25-26H,11-15H2
> <PUBCHEM_IUPAC_INCHIKEY>
AUJAANSJFHRONV-UHFFFAOYSA-N
> <PUBCHEM_XLOGP3_AA>
2.2
> <PUBCHEM_EXACT_MASS>
478.09910
> <PUBCHEM_MOLECULAR_FORMULA>
C23H27BrO6
> <PUBCHEM_MOLECULAR_WEIGHT>
479.4
> <PUBCHEM_OPENEYE_CAN_SMILES>
C1C(C(C(C12OC(C(O2)COCC3=CC=CC=C3)COCC4=CC=CC=C4)O)O)Br
> <PUBCHEM_OPENEYE_ISO_SMILES>
C1C(C(C(C12OC(C(O2)COCC3=CC=CC=C3)COCC4=CC=CC=C4)O)O)Br
> <PUBCHEM_CACTVS_TPSA>
77.4
> <PUBCHEM_MONOISOTOPIC_WEIGHT>
478.09910
> <PUBCHEM_TOTAL_CHARGE>
0
> <PUBCHEM_HEAVY_ATOM_COUNT>
30
> <PUBCHEM_ATOM_DEF_STEREO_COUNT>
0
> <PUBCHEM_ATOM_UDEF_STEREO_COUNT>
5
> <PUBCHEM_BOND_DEF_STEREO_COUNT>
0
> <PUBCHEM_BOND_UDEF_STEREO_COUNT>
0
> <PUBCHEM_ISOTOPIC_ATOM_COUNT>
0
> <PUBCHEM_COMPONENT_COUNT>
1
> <PUBCHEM_CACTVS_TAUTO_COUNT>
-1
> <PUBCHEM_COORDINATE_TYPE>
1
5
255
> <PUBCHEM_BONDANNOTATIONS>
12  1  3
13  15  3
14  16  3
19  21  8
19  23  8
20  22  8
20  24  8
21  25  8
22  26  8
23  27  8
24  28  8
25  29  8
26  30  8
27  29  8
28  30  8
9  4  3
11  5  3
$$$$
