500015
  -OEChem-10302200282D
 47 49  0     1  0  0  0  0  0999 V2000
    4.5000    0.0000    0.0000 P   0  3  0  0  0  0  0  0  0  0  0  0
    3.5000    0.0000    0.0000 C   0  0  3  0  0  0  0  0  0  0  0  0
    3.0000    0.8660    0.0000 C   0  0  0  0  0  0  0  0  0  0  0  0
    4.5000   -1.0000    0.0000 C   0  0  0  0  0  0  0  0  0  0  0  0
    4.5000    1.0000    0.0000 C   0  0  0  0  0  0  0  0  0  0  0  0
    5.5000    0.0000    0.0000 C   0  0  0  0  0  0  0  0  0  0  0  0
    3.0000   -0.8660    0.0000 C   0  0  0  0  0  0  0  0  0  0  0  0
    2.0000    0.8660    0.0000 C   0  0  0  0  0  0  0  0  0  0  0  0
    5.3660   -1.5000    0.0000 C   0  0  0  0  0  0  0  0  0  0  0  0
    5.3660    1.5000    0.0000 C   0  0  0  0  0  0  0  0  0  0  0  0
    6.0000   -0.8660    0.0000 C   0  0  0  0  0  0  0  0  0  0  0  0
    3.6340   -1.5000    0.0000 C   0  0  0  0  0  0  0  0  0  0  0  0
    3.6340    1.5000    0.0000 C   0  0  0  0  0  0  0  0  0  0  0  0
    6.0000    0.8660    0.0000 C   0  0  0  0  0  0  0  0  0  0  0  0
    5.3660   -2.5000    0.0000 C   0  0  0  0  0  0  0  0  0  0  0  0
    5.3660    2.5000    0.0000 C   0  0  0  0  0  0  0  0  0  0  0  0
    7.0000   -0.8660    0.0000 C   0  0  0  0  0  0  0  0  0  0  0  0
    3.6340   -2.5000    0.0000 C   0  0  0  0  0  0  0  0  0  0  0  0
    3.6340    2.5000    0.0000 C   0  0  0  0  0  0  0  0  0  0  0  0
    7.0000    0.8660    0.0000 C   0  0  0  0  0  0  0  0  0  0  0  0
    4.5000   -3.0000    0.0000 C   0  0  0  0  0  0  0  0  0  0  0  0
    4.5000    3.0000    0.0000 C   0  0  0  0  0  0  0  0  0  0  0  0
    7.5000    0.0000    0.0000 C   0  0  0  0  0  0  0  0  0  0  0  0
    3.8100   -0.5369    0.0000 H   0  0  0  0  0  0  0  0  0  0  0  0
    3.5826    1.0781    0.0000 H   0  0  0  0  0  0  0  0  0  0  0  0
    2.8923    1.4766    0.0000 H   0  0  0  0  0  0  0  0  0  0  0  0
    2.4631   -0.5560    0.0000 H   0  0  0  0  0  0  0  0  0  0  0  0
    2.6900   -1.4030    0.0000 H   0  0  0  0  0  0  0  0  0  0  0  0
    3.5369   -1.1760    0.0000 H   0  0  0  0  0  0  0  0  0  0  0  0
    2.0000    1.4860    0.0000 H   0  0  0  0  0  0  0  0  0  0  0  0
    1.3800    0.8660    0.0000 H   0  0  0  0  0  0  0  0  0  0  0  0
    2.0000    0.2460    0.0000 H   0  0  0  0  0  0  0  0  0  0  0  0
    5.9030   -1.1900    0.0000 H   0  0  0  0  0  0  0  0  0  0  0  0
    5.9030    1.1900    0.0000 H   0  0  0  0  0  0  0  0  0  0  0  0
    5.6900   -1.4030    0.0000 H   0  0  0  0  0  0  0  0  0  0  0  0
    3.0970   -1.1900    0.0000 H   0  0  0  0  0  0  0  0  0  0  0  0
    3.0970    1.1900    0.0000 H   0  0  0  0  0  0  0  0  0  0  0  0
    5.6900    1.4030    0.0000 H   0  0  0  0  0  0  0  0  0  0  0  0
    5.9030   -2.8100    0.0000 H   0  0  0  0  0  0  0  0  0  0  0  0
    5.9030    2.8100    0.0000 H   0  0  0  0  0  0  0  0  0  0  0  0
    7.3100   -1.4030    0.0000 H   0  0  0  0  0  0  0  0  0  0  0  0
    3.0970   -2.8100    0.0000 H   0  0  0  0  0  0  0  0  0  0  0  0
    3.0970    2.8100    0.0000 H   0  0  0  0  0  0  0  0  0  0  0  0
    7.3100    1.4030    0.0000 H   0  0  0  0  0  0  0  0  0  0  0  0
    4.5000   -3.6200    0.0000 H   0  0  0  0  0  0  0  0  0  0  0  0
    4.5000    3.6200    0.0000 H   0  0  0  0  0  0  0  0  0  0  0  0
    8.1200   -0.0000    0.0000 H   0  0  0  0  0  0  0  0  0  0  0  0
  1  2  1  0  0  0  0
  1  4  1  0  0  0  0
  1  5  1  0  0  0  0
  1  6  1  0  0  0  0
  2  3  1  0  0  0  0
  2  7  1  0  0  0  0
  2 24  1  0  0  0  0
  3  8  1  0  0  0  0
  3 25  1  0  0  0  0
  3 26  1  0  0  0  0
  4  9  2  0  0  0  0
  4 12  1  0  0  0  0
  5 10  2  0  0  0  0
  5 13  1  0  0  0  0
  6 11  2  0  0  0  0
  6 14  1  0  0  0  0
  7 27  1  0  0  0  0
  7 28  1  0  0  0  0
  7 29  1  0  0  0  0
  8 30  1  0  0  0  0
  8 31  1  0  0  0  0
  8 32  1  0  0  0  0
  9 15  1  0  0  0  0
  9 33  1  0  0  0  0
 10 16  1  0  0  0  0
 10 34  1  0  0  0  0
 11 17  1  0  0  0  0
 11 35  1  0  0  0  0
 12 18  2  0  0  0  0
 12 36  1  0  0  0  0
 13 19  2  0  0  0  0
 13 37  1  0  0  0  0
 14 20  2  0  0  0  0
 14 38  1  0  0  0  0
 15 21  2  0  0  0  0
 15 39  1  0  0  0  0
 16 22  2  0  0  0  0
 16 40  1  0  0  0  0
 17 23  2  0  0  0  0
 17 41  1  0  0  0  0
 18 21  1  0  0  0  0
 18 42  1  0  0  0  0
 19 22  1  0  0  0  0
 19 43  1  0  0  0  0
 20 23  1  0  0  0  0
 20 44  1  0  0  0  0
 21 45  1  0  0  0  0
 22 46  1  0  0  0  0
 23 47  1  0  0  0  0
M  CHG  1   1   1
M  END
> <PUBCHEM_COMPOUND_CID>
500015
> <PUBCHEM_COMPOUND_CANONICALIZED>
1
> <PUBCHEM_CACTVS_COMPLEXITY>
286
> <PUBCHEM_CACTVS_HBOND_ACCEPTOR>
0
> <PUBCHEM_CACTVS_HBOND_DONOR>
0
> <PUBCHEM_CACTVS_ROTATABLE_BOND>
5
> <PUBCHEM_CACTVS_SUBSKEYS>
AAADceB4AAIAAAAAAAAAAAAAAAAAAAAAAAAwYMAAAAAAAAABUAAAGAgAAAAACACIEAAyAIAAACCAACBCAAACAAAgAAAIiAAAAIgIICKAERCAIAAggAAIiAcAAAAAAAAAAAAAAAAAAAAAAAAAAAAAAAAAAA==
> <PUBCHEM_IUPAC_OPENEYE_NAME>
triphenyl(sec-butyl)phosphonium
> <PUBCHEM_IUPAC_CAS_NAME>
butan-2-yl(triphenyl)phosphonium
> <PUBCHEM_IUPAC_NAME_MARKUP>
butan-2-yl(triphenyl)phosphanium
> <PUBCHEM_IUPAC_NAME>
butan-2-yl(triphenyl)phosphanium
> <PUBCHEM_IUPAC_SYSTEMATIC_NAME>
butan-2-yl(triphenyl)phosphanium
> <PUBCHEM_IUPAC_TRADITIONAL_NAME>
triphenyl(sec-butyl)phosphonium
> <PUBCHEM_IUPAC_INCHI>
InChI=1S/C22H24P/c1-3-19(2)23(20-13-7-4-8-14-20,21-15-9-5-10-16-21)22-17-11-6-12-18-22/h4-19H,3H2,1-2H3/q+1
> <PUBCHEM_IUPAC_INCHIKEY>
SGNAKWKXKBREOU-UHFFFAOYSA-N
> <PUBCHEM_XLOGP3_AA>
6
> <PUBCHEM_EXACT_MASS>
319.161562763
> <PUBCHEM_MOLECULAR_FORMULA>
C22H24P+
> <PUBCHEM_MOLECULAR_WEIGHT>
319.4
> <PUBCHEM_OPENEYE_CAN_SMILES>
CCC(C)[P+](C1=CC=CC=C1)(C2=CC=CC=C2)C3=CC=CC=C3
> <PUBCHEM_OPENEYE_ISO_SMILES>
CCC(C)[P+](C1=CC=CC=C1)(C2=CC=CC=C2)C3=CC=CC=C3
> <PUBCHEM_CACTVS_TPSA>
0
> <PUBCHEM_MONOISOTOPIC_WEIGHT>
319.161562763
> <PUBCHEM_TOTAL_CHARGE>
1
> <PUBCHEM_HEAVY_ATOM_COUNT>
23
> <PUBCHEM_ATOM_DEF_STEREO_COUNT>
0
> <PUBCHEM_ATOM_UDEF_STEREO_COUNT>
1
> <PUBCHEM_BOND_DEF_STEREO_COUNT>
0
> <PUBCHEM_BOND_UDEF_STEREO_COUNT>
0
> <PUBCHEM_ISOTOPIC_ATOM_COUNT>
0
> <PUBCHEM_COMPONENT_COUNT>
1
> <PUBCHEM_CACTVS_TAUTO_COUNT>
1
> <PUBCHEM_COORDINATE_TYPE>
1
5
255
> <PUBCHEM_BONDANNOTATIONS>
10  16  8
11  17  8
12  18  8
13  19  8
14  20  8
15  21  8
16  22  8
17  23  8
18  21  8
19  22  8
2  7  3
20  23  8
4  12  8
4  9  8
5  10  8
5  13  8
6  11  8
6  14  8
9  15  8
$$$$
