500032
  -OEChem-10302200282D
108113  0     1  0  0  0  0  0999 V2000
    6.8671   -3.0991    0.0000 O   0  0  0  0  0  0  0  0  0  0  0  0
    8.6209    6.1803    0.0000 O   0  0  0  0  0  0  0  0  0  0  0  0
    9.5042    4.6904    0.0000 O   0  0  0  0  0  0  0  0  0  0  0  0
    5.1350   -3.0991    0.0000 O   0  0  0  0  0  0  0  0  0  0  0  0
    5.1350   -6.0991    0.0000 O   0  0  0  0  0  0  0  0  0  0  0  0
    3.4030   -5.0991    0.0000 O   0  0  0  0  0  0  0  0  0  0  0  0
    2.5369   -3.5991    0.0000 O   0  0  0  0  0  0  0  0  0  0  0  0
    6.0010   -6.5991    0.0000 O   0  0  0  0  0  0  0  0  0  0  0  0
    6.8671   -5.0991    0.0000 N   0  0  0  0  0  0  0  0  0  0  0  0
    7.7681    1.6011    0.0000 C   0  0  3  0  0  0  0  0  0  0  0  0
    6.9040    1.0978    0.0000 C   0  0  3  0  0  0  0  0  0  0  0  0
    6.8920    0.0562    0.0000 C   0  0  3  0  0  0  0  0  0  0  0  0
    7.7643    2.6011    0.0000 C   0  0  3  0  0  0  0  0  0  0  0  0
    7.7920   -0.4681    0.0000 C   0  0  3  0  0  0  0  0  0  0  0  0
    8.6801    1.0978    0.0000 C   0  0  0  0  0  0  0  0  0  0  0  0
    7.8046   -1.5530    0.0000 C   0  0  0  0  0  0  0  0  0  0  0  0
    8.6921    0.0562    0.0000 C   0  0  0  0  0  0  0  0  0  0  0  0
    6.8963    3.0977    0.0000 C   0  0  0  0  0  0  0  0  0  0  0  0
    6.0361    1.5944    0.0000 C   0  0  0  0  0  0  0  0  0  0  0  0
    5.9421   -0.4681    0.0000 C   0  0  0  0  0  0  0  0  0  0  0  0
    6.8762    4.1392    0.0000 C   0  0  3  0  0  0  0  0  0  0  0  0
    8.6723    3.1114    0.0000 C   0  0  0  0  0  0  0  0  0  0  0  0
    7.7722    4.6704    0.0000 C   0  0  3  0  0  0  0  0  0  0  0  0
    8.7522    1.7785    0.0000 C   0  0  0  0  0  0  0  0  0  0  0  0
    6.8671   -2.0991    0.0000 C   0  0  3  0  0  0  0  0  0  0  0  0
    8.6763    4.1530    0.0000 C   0  0  0  0  0  0  0  0  0  0  0  0
    6.0279    0.5595    0.0000 C   0  0  0  0  0  0  0  0  0  0  0  0
    5.9295   -1.5530    0.0000 C   0  0  0  0  0  0  0  0  0  0  0  0
    6.0322    2.5944    0.0000 C   0  0  0  0  0  0  0  0  0  0  0  0
    8.7497    2.4312    0.0000 C   0  0  0  0  0  0  0  0  0  0  0  0
    5.9223    4.6561    0.0000 C   0  0  0  0  0  0  0  0  0  0  0  0
    7.7764    5.7554    0.0000 C   0  0  0  0  0  0  0  0  0  0  0  0
    5.9014    5.7409    0.0000 C   0  0  0  0  0  0  0  0  0  0  0  0
    8.8046   -1.5453    0.0000 C   0  0  0  0  0  0  0  0  0  0  0  0
    8.3113   -2.4152    0.0000 C   0  0  0  0  0  0  0  0  0  0  0  0
    6.8347    6.2942    0.0000 C   0  0  0  0  0  0  0  0  0  0  0  0
    8.6324    5.1804    0.0000 C   0  0  0  0  0  0  0  0  0  0  0  0
    5.3881    6.5991    0.0000 C   0  0  0  0  0  0  0  0  0  0  0  0
    4.9015    5.7255    0.0000 C   0  0  0  0  0  0  0  0  0  0  0  0
    6.0010   -3.5991    0.0000 C   0  0  3  0  0  0  0  0  0  0  0  0
    6.0010   -4.5991    0.0000 C   0  0  3  0  0  0  0  0  0  0  0  0
    5.1350   -5.0991    0.0000 C   0  0  3  0  0  0  0  0  0  0  0  0
    4.2690   -3.5991    0.0000 C   0  0  3  0  0  0  0  0  0  0  0  0
    4.2690   -4.5991    0.0000 C   0  0  3  0  0  0  0  0  0  0  0  0
    3.4030   -3.0991    0.0000 C   0  0  0  0  0  0  0  0  0  0  0  0
    6.8671   -6.0991    0.0000 C   0  0  0  0  0  0  0  0  0  0  0  0
    7.7331   -6.5991    0.0000 C   0  0  0  0  0  0  0  0  0  0  0  0
    7.4398    0.7857    0.0000 H   0  0  0  0  0  0  0  0  0  0  0  0
    8.3314   -0.7739    0.0000 H   0  0  0  0  0  0  0  0  0  0  0  0
    9.2921    0.9987    0.0000 H   0  0  0  0  0  0  0  0  0  0  0  0
    8.8824    1.6838    0.0000 H   0  0  0  0  0  0  0  0  0  0  0  0
    8.9079   -0.5250    0.0000 H   0  0  0  0  0  0  0  0  0  0  0  0
    9.3017    0.1693    0.0000 H   0  0  0  0  0  0  0  0  0  0  0  0
    5.4251    1.6997    0.0000 H   0  0  0  0  0  0  0  0  0  0  0  0
    5.8263    1.0110    0.0000 H   0  0  0  0  0  0  0  0  0  0  0  0
    5.7398    0.1180    0.0000 H   0  0  0  0  0  0  0  0  0  0  0  0
    5.3300   -0.5671    0.0000 H   0  0  0  0  0  0  0  0  0  0  0  0
    6.3466    3.8168    0.0000 H   0  0  0  0  0  0  0  0  0  0  0  0
    8.8791    2.5269    0.0000 H   0  0  0  0  0  0  0  0  0  0  0  0
    9.2836    3.2152    0.0000 H   0  0  0  0  0  0  0  0  0  0  0  0
    8.8623    1.1684    0.0000 H   0  0  0  0  0  0  0  0  0  0  0  0
    9.3624    1.8886    0.0000 H   0  0  0  0  0  0  0  0  0  0  0  0
    8.6422    2.3887    0.0000 H   0  0  0  0  0  0  0  0  0  0  0  0
    7.4046   -2.4081    0.0000 H   0  0  0  0  0  0  0  0  0  0  0  0
    9.2868    4.0446    0.0000 H   0  0  0  0  0  0  0  0  0  0  0  0
    8.8876    4.7359    0.0000 H   0  0  0  0  0  0  0  0  0  0  0  0
    6.3400    1.0953    0.0000 H   0  0  0  0  0  0  0  0  0  0  0  0
    5.4922    0.8716    0.0000 H   0  0  0  0  0  0  0  0  0  0  0  0
    5.7158    0.0238    0.0000 H   0  0  0  0  0  0  0  0  0  0  0  0
    5.3199   -1.4399    0.0000 H   0  0  0  0  0  0  0  0  0  0  0  0
    5.7137   -2.1343    0.0000 H   0  0  0  0  0  0  0  0  0  0  0  0
    5.4941    2.9023    0.0000 H   0  0  0  0  0  0  0  0  0  0  0  0
    8.6444    1.8202    0.0000 H   0  0  0  0  0  0  0  0  0  0  0  0
    9.3607    2.3259    0.0000 H   0  0  0  0  0  0  0  0  0  0  0  0
    8.8550    3.0422    0.0000 H   0  0  0  0  0  0  0  0  0  0  0  0
    5.3095    4.7504    0.0000 H   0  0  0  0  0  0  0  0  0  0  0  0
    5.7246    4.0685    0.0000 H   0  0  0  0  0  0  0  0  0  0  0  0
    8.3869    5.6469    0.0000 H   0  0  0  0  0  0  0  0  0  0  0  0
    7.9877    6.3383    0.0000 H   0  0  0  0  0  0  0  0  0  0  0  0
    8.8094   -2.1653    0.0000 H   0  0  0  0  0  0  0  0  0  0  0  0
    9.4246   -1.5405    0.0000 H   0  0  0  0  0  0  0  0  0  0  0  0
    8.7998   -0.9253    0.0000 H   0  0  0  0  0  0  0  0  0  0  0  0
    7.7767   -2.7293    0.0000 H   0  0  0  0  0  0  0  0  0  0  0  0
    8.6254   -2.9497    0.0000 H   0  0  0  0  0  0  0  0  0  0  0  0
    8.8458   -2.1010    0.0000 H   0  0  0  0  0  0  0  0  0  0  0  0
    7.2302    6.7717    0.0000 H   0  0  0  0  0  0  0  0  0  0  0  0
    6.4319    6.7656    0.0000 H   0  0  0  0  0  0  0  0  0  0  0  0
    5.9202    6.9174    0.0000 H   0  0  0  0  0  0  0  0  0  0  0  0
    5.0699    7.1312    0.0000 H   0  0  0  0  0  0  0  0  0  0  0  0
    4.8560    6.2809    0.0000 H   0  0  0  0  0  0  0  0  0  0  0  0
    4.8920    6.3454    0.0000 H   0  0  0  0  0  0  0  0  0  0  0  0
    4.2816    5.7159    0.0000 H   0  0  0  0  0  0  0  0  0  0  0  0
    4.9111    5.1056    0.0000 H   0  0  0  0  0  0  0  0  0  0  0  0
    6.0010   -2.9791    0.0000 H   0  0  0  0  0  0  0  0  0  0  0  0
    9.1542    6.4965    0.0000 H   0  0  0  0  0  0  0  0  0  0  0  0
    6.5380   -4.2891    0.0000 H   0  0  0  0  0  0  0  0  0  0  0  0
    5.6720   -5.4091    0.0000 H   0  0  0  0  0  0  0  0  0  0  0  0
    4.2690   -2.9791    0.0000 H   0  0  0  0  0  0  0  0  0  0  0  0
    4.2690   -5.2191    0.0000 H   0  0  0  0  0  0  0  0  0  0  0  0
    7.4040   -4.7891    0.0000 H   0  0  0  0  0  0  0  0  0  0  0  0
    3.8015   -2.6242    0.0000 H   0  0  0  0  0  0  0  0  0  0  0  0
    3.0044   -2.6242    0.0000 H   0  0  0  0  0  0  0  0  0  0  0  0
    4.5981   -6.4091    0.0000 H   0  0  0  0  0  0  0  0  0  0  0  0
    3.4030   -5.7191    0.0000 H   0  0  0  0  0  0  0  0  0  0  0  0
    2.0000   -3.2891    0.0000 H   0  0  0  0  0  0  0  0  0  0  0  0
    7.4231   -7.1361    0.0000 H   0  0  0  0  0  0  0  0  0  0  0  0
    8.2700   -6.9091    0.0000 H   0  0  0  0  0  0  0  0  0  0  0  0
    8.0431   -6.0622    0.0000 H   0  0  0  0  0  0  0  0  0  0  0  0
  1 25  1  0  0  0  0
  1 40  1  0  0  0  0
  2 37  1  0  0  0  0
  2 95  1  0  0  0  0
  3 37  2  0  0  0  0
  4 40  1  0  0  0  0
  4 43  1  0  0  0  0
  5 42  1  0  0  0  0
  5103  1  0  0  0  0
  6 44  1  0  0  0  0
  6104  1  0  0  0  0
  7 45  1  0  0  0  0
  7105  1  0  0  0  0
  8 46  2  0  0  0  0
  9 41  1  0  0  0  0
  9 46  1  0  0  0  0
  9100  1  0  0  0  0
 10 11  1  0  0  0  0
 10 13  1  0  0  0  0
 10 15  1  0  0  0  0
 10 24  1  0  0  0  0
 11 12  1  0  0  0  0
 11 19  1  0  0  0  0
 11 48  1  0  0  0  0
 12 14  1  0  0  0  0
 12 20  1  0  0  0  0
 12 27  1  0  0  0  0
 13 18  1  0  0  0  0
 13 22  1  0  0  0  0
 13 30  1  0  0  0  0
 14 16  1  0  0  0  0
 14 17  1  0  0  0  0
 14 49  1  0  0  0  0
 15 17  1  0  0  0  0
 15 50  1  0  0  0  0
 15 51  1  0  0  0  0
 16 25  1  0  0  0  0
 16 34  1  0  0  0  0
 16 35  1  0  0  0  0
 17 52  1  0  0  0  0
 17 53  1  0  0  0  0
 18 21  1  0  0  0  0
 18 29  2  0  0  0  0
 19 29  1  0  0  0  0
 19 54  1  0  0  0  0
 19 55  1  0  0  0  0
 20 28  1  0  0  0  0
 20 56  1  0  0  0  0
 20 57  1  0  0  0  0
 21 23  1  0  0  0  0
 21 31  1  0  0  0  0
 21 58  1  0  0  0  0
 22 26  1  0  0  0  0
 22 59  1  0  0  0  0
 22 60  1  0  0  0  0
 23 26  1  0  0  0  0
 23 32  1  0  0  0  0
 23 37  1  0  0  0  0
 24 61  1  0  0  0  0
 24 62  1  0  0  0  0
 24 63  1  0  0  0  0
 25 28  1  0  0  0  0
 25 64  1  0  0  0  0
 26 65  1  0  0  0  0
 26 66  1  0  0  0  0
 27 67  1  0  0  0  0
 27 68  1  0  0  0  0
 27 69  1  0  0  0  0
 28 70  1  0  0  0  0
 28 71  1  0  0  0  0
 29 72  1  0  0  0  0
 30 73  1  0  0  0  0
 30 74  1  0  0  0  0
 30 75  1  0  0  0  0
 31 33  1  0  0  0  0
 31 76  1  0  0  0  0
 31 77  1  0  0  0  0
 32 36  1  0  0  0  0
 32 78  1  0  0  0  0
 32 79  1  0  0  0  0
 33 36  1  0  0  0  0
 33 38  1  0  0  0  0
 33 39  1  0  0  0  0
 34 80  1  0  0  0  0
 34 81  1  0  0  0  0
 34 82  1  0  0  0  0
 35 83  1  0  0  0  0
 35 84  1  0  0  0  0
 35 85  1  0  0  0  0
 36 86  1  0  0  0  0
 36 87  1  0  0  0  0
 38 88  1  0  0  0  0
 38 89  1  0  0  0  0
 38 90  1  0  0  0  0
 39 91  1  0  0  0  0
 39 92  1  0  0  0  0
 39 93  1  0  0  0  0
 40 41  1  0  0  0  0
 40 94  1  0  0  0  0
 41 42  1  0  0  0  0
 41 96  1  0  0  0  0
 42 44  1  0  0  0  0
 42 97  1  0  0  0  0
 43 44  1  0  0  0  0
 43 45  1  0  0  0  0
 43 98  1  0  0  0  0
 44 99  1  0  0  0  0
 45101  1  0  0  0  0
 45102  1  0  0  0  0
 46 47  1  0  0  0  0
 47106  1  0  0  0  0
 47107  1  0  0  0  0
 47108  1  0  0  0  0
M  END
> <PUBCHEM_COMPOUND_CID>
500032
> <PUBCHEM_COMPOUND_CANONICALIZED>
1
> <PUBCHEM_CACTVS_COMPLEXITY>
1300
> <PUBCHEM_CACTVS_HBOND_ACCEPTOR>
8
> <PUBCHEM_CACTVS_HBOND_DONOR>
5
> <PUBCHEM_CACTVS_ROTATABLE_BOND>
5
> <PUBCHEM_CACTVS_SUBSKEYS>
AAADcfB+PAAAAAAAAAAAAAAAAAAAAAAAAAA0YMGCAAAAAADAAAAAHgAQCAAADzzxgAcCCALABgCIAiHSGAAAAAAgAAAACIEIAAgTEBIAgQAnQAAHlgCfAAP4+P+PgAAAAAAAAADAAAYAADAAAAAAAAAAAA==
> <PUBCHEM_IUPAC_OPENEYE_NAME>
10-[3-acetamido-4,5-dihydroxy-6-(hydroxymethyl)tetrahydropyran-2-yl]oxy-2,2,6a,6b,9,9,12a-heptamethyl-1,3,4,5,6,6a,7,8,8a,10,11,12,13,14b-tetradecahydropicene-4a-carboxylic acid
> <PUBCHEM_IUPAC_CAS_NAME>
10-[[3-acetamido-4,5-dihydroxy-6-(hydroxymethyl)-2-oxanyl]oxy]-2,2,6a,6b,9,9,12a-heptamethyl-1,3,4,5,6,6a,7,8,8a,10,11,12,13,14b-tetradecahydropicene-4a-carboxylic acid
> <PUBCHEM_IUPAC_NAME_MARKUP>
10-[3-acetamido-4,5-dihydroxy-6-(hydroxymethyl)oxan-2-yl]oxy-2,2,6<I>a</I>,6<I>b</I>,9,9,12<I>a</I>-heptamethyl-1,3,4,5,6,6<I>a</I>,7,8,8<I>a</I>,10,11,12,13,14<I>b</I>-tetradecahydropicene-4<I>a</I>-carboxylic acid
> <PUBCHEM_IUPAC_NAME>
10-[3-acetamido-4,5-dihydroxy-6-(hydroxymethyl)oxan-2-yl]oxy-2,2,6a,6b,9,9,12a-heptamethyl-1,3,4,5,6,6a,7,8,8a,10,11,12,13,14b-tetradecahydropicene-4a-carboxylic acid
> <PUBCHEM_IUPAC_SYSTEMATIC_NAME>
10-[3-acetamido-6-(hydroxymethyl)-4,5-bis(oxidanyl)oxan-2-yl]oxy-2,2,6a,6b,9,9,12a-heptamethyl-1,3,4,5,6,6a,7,8,8a,10,11,12,13,14b-tetradecahydropicene-4a-carboxylic acid
> <PUBCHEM_IUPAC_TRADITIONAL_NAME>
10-(3-acetamido-4,5-dihydroxy-6-methylol-tetrahydropyran-2-yl)oxy-2,2,6a,6b,9,9,12a-heptamethyl-1,3,4,5,6,6a,7,8,8a,10,11,12,13,14b-tetradecahydropicene-4a-carboxylic acid
> <PUBCHEM_IUPAC_INCHI>
InChI=1S/C38H61NO8/c1-21(41)39-28-30(43)29(42)24(20-40)46-31(28)47-27-12-13-35(6)25(34(27,4)5)11-14-37(8)26(35)10-9-22-23-19-33(2,3)15-17-38(23,32(44)45)18-16-36(22,37)7/h9,23-31,40,42-43H,10-20H2,1-8H3,(H,39,41)(H,44,45)
> <PUBCHEM_IUPAC_INCHIKEY>
VRFWJSCLROXBBW-UHFFFAOYSA-N
> <PUBCHEM_XLOGP3_AA>
5.9
> <PUBCHEM_EXACT_MASS>
659.43971790
> <PUBCHEM_MOLECULAR_FORMULA>
C38H61NO8
> <PUBCHEM_MOLECULAR_WEIGHT>
659.9
> <PUBCHEM_OPENEYE_CAN_SMILES>
CC(=O)NC1C(C(C(OC1OC2CCC3(C(C2(C)C)CCC4(C3CC=C5C4(CCC6(C5CC(CC6)(C)C)C(=O)O)C)C)C)CO)O)O
> <PUBCHEM_OPENEYE_ISO_SMILES>
CC(=O)NC1C(C(C(OC1OC2CCC3(C(C2(C)C)CCC4(C3CC=C5C4(CCC6(C5CC(CC6)(C)C)C(=O)O)C)C)C)CO)O)O
> <PUBCHEM_CACTVS_TPSA>
146
> <PUBCHEM_MONOISOTOPIC_WEIGHT>
659.43971790
> <PUBCHEM_TOTAL_CHARGE>
0
> <PUBCHEM_HEAVY_ATOM_COUNT>
47
> <PUBCHEM_ATOM_DEF_STEREO_COUNT>
0
> <PUBCHEM_ATOM_UDEF_STEREO_COUNT>
13
> <PUBCHEM_BOND_DEF_STEREO_COUNT>
0
> <PUBCHEM_BOND_UDEF_STEREO_COUNT>
0
> <PUBCHEM_ISOTOPIC_ATOM_COUNT>
0
> <PUBCHEM_COMPONENT_COUNT>
1
> <PUBCHEM_CACTVS_TAUTO_COUNT>
-1
> <PUBCHEM_COORDINATE_TYPE>
1
5
255
> <PUBCHEM_BONDANNOTATIONS>
25  1  3
40  1  3
10  24  3
11  19  3
12  27  3
13  30  3
14  17  3
21  31  3
23  37  3
43  45  3
42  5  3
44  6  3
41  9  3
$$$$
