500031
  -OEChem-10302200282D
 63 68  0     1  0  0  0  0  0999 V2000
    5.6604   -1.5203    0.0000 O   0  0  0  0  0  0  0  0  0  0  0  0
    8.3550   -2.0619    0.0000 O   0  0  0  0  0  0  0  0  0  0  0  0
    4.8225   -2.0480    0.0000 O   0  0  0  0  0  0  0  0  0  0  0  0
    2.6697    1.8740    0.0000 O   0  0  0  0  0  0  0  0  0  0  0  0
    7.4490   -3.5827    0.0000 O   0  0  0  0  0  0  0  0  0  0  0  0
   10.2758    0.7046    0.0000 O   0  0  0  0  0  0  0  0  0  0  0  0
    2.7595    3.5827    0.0000 O   0  0  0  0  0  0  0  0  0  0  0  0
    6.5709   -1.0135    0.0000 C   0  0  3  0  0  0  0  0  0  0  0  0
    5.7049   -0.5135    0.0000 C   0  0  3  0  0  0  0  0  0  0  0  0
    7.4369   -0.5135    0.0000 C   0  0  3  0  0  0  0  0  0  0  0  0
    5.7049    0.4865    0.0000 C   0  0  3  0  0  0  0  0  0  0  0  0
    6.5548   -2.0550    0.0000 C   0  0  3  0  0  0  0  0  0  0  0  0
    4.8109    1.0212    0.0000 C   0  0  3  0  0  0  0  0  0  0  0  0
    7.4369    0.4865    0.0000 C   0  0  0  0  0  0  0  0  0  0  0  0
    6.5709    0.9865    0.0000 C   0  0  0  0  0  0  0  0  0  0  0  0
    8.3469   -1.0203    0.0000 C   0  0  3  0  0  0  0  0  0  0  0  0
    3.9049    0.5074    0.0000 C   0  0  3  0  0  0  0  0  0  0  0  0
    4.8109   -1.0481    0.0000 C   0  0  0  0  0  0  0  0  0  0  0  0
    6.3550   -1.6392    0.0000 C   0  0  0  0  0  0  0  0  0  0  0  0
    3.9049   -0.5343    0.0000 C   0  0  0  0  0  0  0  0  0  0  0  0
    8.3029   -0.0135    0.0000 C   0  0  0  0  0  0  0  0  0  0  0  0
    7.4529   -2.5827    0.0000 C   0  0  0  0  0  0  0  0  0  0  0  0
    2.9594    0.8943    0.0000 C   0  0  0  0  0  0  0  0  0  0  0  0
    5.6808    1.5145    0.0000 C   0  0  0  0  0  0  0  0  0  0  0  0
    4.9642    2.0313    0.0000 C   0  0  0  0  0  0  0  0  0  0  0  0
    9.2071   -0.5103    0.0000 C   0  0  0  0  0  0  0  0  0  0  0  0
    2.0000    0.6121    0.0000 C   0  0  0  0  0  0  0  0  0  0  0  0
    2.5819   -0.0317    0.0000 C   0  0  0  0  0  0  0  0  0  0  0  0
    4.2721    2.7827    0.0000 C   0  0  0  0  0  0  0  0  0  0  0  0
   10.1253   -0.9065    0.0000 C   0  0  0  0  0  0  0  0  0  0  0  0
    9.3001    0.4853    0.0000 C   0  0  0  0  0  0  0  0  0  0  0  0
    3.2528    2.7129    0.0000 C   0  0  0  0  0  0  0  0  0  0  0  0
   10.7858   -0.1556    0.0000 C   0  0  0  0  0  0  0  0  0  0  0  0
    6.2418    0.1765    0.0000 H   0  0  0  0  0  0  0  0  0  0  0  0
    6.2387   -2.5883    0.0000 H   0  0  0  0  0  0  0  0  0  0  0  0
    8.0475    0.3789    0.0000 H   0  0  0  0  0  0  0  0  0  0  0  0
    7.6490    1.0692    0.0000 H   0  0  0  0  0  0  0  0  0  0  0  0
    6.9694    1.4615    0.0000 H   0  0  0  0  0  0  0  0  0  0  0  0
    6.1724    1.4615    0.0000 H   0  0  0  0  0  0  0  0  0  0  0  0
    8.8868   -1.3251    0.0000 H   0  0  0  0  0  0  0  0  0  0  0  0
    3.3901    0.1618    0.0000 H   0  0  0  0  0  0  0  0  0  0  0  0
    5.8181   -1.9493    0.0000 H   0  0  0  0  0  0  0  0  0  0  0  0
    6.6650   -2.1761    0.0000 H   0  0  0  0  0  0  0  0  0  0  0  0
    6.8919   -1.3292    0.0000 H   0  0  0  0  0  0  0  0  0  0  0  0
    3.2940   -0.4282    0.0000 H   0  0  0  0  0  0  0  0  0  0  0  0
    3.6958   -1.1180    0.0000 H   0  0  0  0  0  0  0  0  0  0  0  0
    8.6130   -0.5504    0.0000 H   0  0  0  0  0  0  0  0  0  0  0  0
    8.8399    0.2965    0.0000 H   0  0  0  0  0  0  0  0  0  0  0  0
    7.9930    0.5235    0.0000 H   0  0  0  0  0  0  0  0  0  0  0  0
    5.9866    0.9752    0.0000 H   0  0  0  0  0  0  0  0  0  0  0  0
    6.2201    1.8204    0.0000 H   0  0  0  0  0  0  0  0  0  0  0  0
    5.3749    2.0538    0.0000 H   0  0  0  0  0  0  0  0  0  0  0  0
    5.5571    2.2126    0.0000 H   0  0  0  0  0  0  0  0  0  0  0  0
    1.8250    1.2069    0.0000 H   0  0  0  0  0  0  0  0  0  0  0  0
    1.4052    0.4371    0.0000 H   0  0  0  0  0  0  0  0  0  0  0  0
    2.1750    0.0173    0.0000 H   0  0  0  0  0  0  0  0  0  0  0  0
    2.0077    0.2023    0.0000 H   0  0  0  0  0  0  0  0  0  0  0  0
    2.3478   -0.6058    0.0000 H   0  0  0  0  0  0  0  0  0  0  0  0
    3.1560   -0.2658    0.0000 H   0  0  0  0  0  0  0  0  0  0  0  0
    4.5015    3.3587    0.0000 H   0  0  0  0  0  0  0  0  0  0  0  0
   10.2612   -1.5114    0.0000 H   0  0  0  0  0  0  0  0  0  0  0  0
    8.8346    0.8948    0.0000 H   0  0  0  0  0  0  0  0  0  0  0  0
   11.4031   -0.2133    0.0000 H   0  0  0  0  0  0  0  0  0  0  0  0
  1  8  1  0  0  0  0
  1 12  1  0  0  0  0
  2 16  1  0  0  0  0
  2 22  1  0  0  0  0
  3 18  2  0  0  0  0
  4 23  1  0  0  0  0
  4 32  1  0  0  0  0
  5 22  2  0  0  0  0
  6 31  1  0  0  0  0
  6 33  1  0  0  0  0
  7 32  2  0  0  0  0
  8  9  1  0  0  0  0
  8 10  1  0  0  0  0
  8 12  1  0  0  0  0
  9 11  1  0  0  0  0
  9 18  1  0  0  0  0
  9 19  1  0  0  0  0
 10 14  1  0  0  0  0
 10 16  1  0  0  0  0
 10 21  1  0  0  0  0
 11 13  1  0  0  0  0
 11 15  1  0  0  0  0
 11 34  1  0  0  0  0
 12 22  1  0  0  0  0
 12 35  1  0  0  0  0
 13 17  1  0  0  0  0
 13 24  1  0  0  0  0
 13 25  1  0  0  0  0
 14 15  1  0  0  0  0
 14 36  1  0  0  0  0
 14 37  1  0  0  0  0
 15 38  1  0  0  0  0
 15 39  1  0  0  0  0
 16 26  1  0  0  0  0
 16 40  1  0  0  0  0
 17 20  1  0  0  0  0
 17 23  1  0  0  0  0
 17 41  1  0  0  0  0
 18 20  1  0  0  0  0
 19 42  1  0  0  0  0
 19 43  1  0  0  0  0
 19 44  1  0  0  0  0
 20 45  1  0  0  0  0
 20 46  1  0  0  0  0
 21 47  1  0  0  0  0
 21 48  1  0  0  0  0
 21 49  1  0  0  0  0
 23 27  1  0  0  0  0
 23 28  1  0  0  0  0
 24 50  1  0  0  0  0
 24 51  1  0  0  0  0
 24 52  1  0  0  0  0
 25 29  2  0  0  0  0
 25 53  1  0  0  0  0
 26 30  1  0  0  0  0
 26 31  2  0  0  0  0
 27 54  1  0  0  0  0
 27 55  1  0  0  0  0
 27 56  1  0  0  0  0
 28 57  1  0  0  0  0
 28 58  1  0  0  0  0
 28 59  1  0  0  0  0
 29 32  1  0  0  0  0
 29 60  1  0  0  0  0
 30 33  2  0  0  0  0
 30 61  1  0  0  0  0
 31 62  1  0  0  0  0
 33 63  1  0  0  0  0
M  END
> <PUBCHEM_COMPOUND_CID>
500031
> <PUBCHEM_COMPOUND_CANONICALIZED>
1
> <PUBCHEM_CACTVS_COMPLEXITY>
985
> <PUBCHEM_CACTVS_HBOND_ACCEPTOR>
7
> <PUBCHEM_CACTVS_HBOND_DONOR>
0
> <PUBCHEM_CACTVS_ROTATABLE_BOND>
1
> <PUBCHEM_CACTVS_SUBSKEYS>
AAADceB4OAAAAAAAAAAAAAAAEgAAASAAAAA0YIAABIgAAADRgAAAGgAAAAAAD1SgmAIyDIAABECIAqjSiAICCAAkIAAIiAFGCMgNJxYENQ6CGSCl4BEKKYPK7vzvgAAAAAAAAACAAAYAADAAAAAAAAAAAA==
> <PUBCHEM_IUPAC_OPENEYE_NAME>
7-(3-furyl)-1,8,12,17,17-pentamethyl-3,6,16-trioxapentacyclo[9.9.0.02,4.02,8.012,18]icos-13-ene-5,15,20-trione
> <PUBCHEM_IUPAC_CAS_NAME>
7-(3-furanyl)-1,8,12,17,17-pentamethyl-3,6,16-trioxapentacyclo[9.9.0.02,4.02,8.012,18]eicos-13-ene-5,15,20-trione
> <PUBCHEM_IUPAC_NAME_MARKUP>
7-(furan-3-yl)-1,8,12,17,17-pentamethyl-3,6,16-trioxapentacyclo[9.9.0.0<SUP>2,4</SUP>.0<SUP>2,8</SUP>.0<SUP>12,18</SUP>]icos-13-ene-5,15,20-trione
> <PUBCHEM_IUPAC_NAME>
7-(furan-3-yl)-1,8,12,17,17-pentamethyl-3,6,16-trioxapentacyclo[9.9.0.02,4.02,8.012,18]icos-13-ene-5,15,20-trione
> <PUBCHEM_IUPAC_SYSTEMATIC_NAME>
7-(furan-3-yl)-1,8,12,17,17-pentamethyl-3,6,16-trioxapentacyclo[9.9.0.02,4.02,8.012,18]icos-13-ene-5,15,20-trione
> <PUBCHEM_IUPAC_TRADITIONAL_NAME>
7-(3-furyl)-1,8,12,17,17-pentamethyl-3,6,16-trioxapentacyclo[9.9.0.02,4.02,8.012,18]eicos-13-ene-5,15,20-trione
> <PUBCHEM_IUPAC_INCHI>
InChI=1S/C26H30O7/c1-22(2)16-12-17(27)25(5)15(23(16,3)9-7-18(28)32-22)6-10-24(4)19(14-8-11-30-13-14)31-21(29)20-26(24,25)33-20/h7-9,11,13,15-16,19-20H,6,10,12H2,1-5H3
> <PUBCHEM_IUPAC_INCHIKEY>
MAYJEFRPIKEYBL-UHFFFAOYSA-N
> <PUBCHEM_XLOGP3_AA>
3.2
> <PUBCHEM_EXACT_MASS>
454.19915329
> <PUBCHEM_MOLECULAR_FORMULA>
C26H30O7
> <PUBCHEM_MOLECULAR_WEIGHT>
454.5
> <PUBCHEM_OPENEYE_CAN_SMILES>
CC1(C2CC(=O)C3(C(C2(C=CC(=O)O1)C)CCC4(C35C(O5)C(=O)OC4C6=COC=C6)C)C)C
> <PUBCHEM_OPENEYE_ISO_SMILES>
CC1(C2CC(=O)C3(C(C2(C=CC(=O)O1)C)CCC4(C35C(O5)C(=O)OC4C6=COC=C6)C)C)C
> <PUBCHEM_CACTVS_TPSA>
95.3
> <PUBCHEM_MONOISOTOPIC_WEIGHT>
454.19915329
> <PUBCHEM_TOTAL_CHARGE>
0
> <PUBCHEM_HEAVY_ATOM_COUNT>
33
> <PUBCHEM_ATOM_DEF_STEREO_COUNT>
0
> <PUBCHEM_ATOM_UDEF_STEREO_COUNT>
8
> <PUBCHEM_BOND_DEF_STEREO_COUNT>
0
> <PUBCHEM_BOND_UDEF_STEREO_COUNT>
0
> <PUBCHEM_ISOTOPIC_ATOM_COUNT>
0
> <PUBCHEM_COMPONENT_COUNT>
1
> <PUBCHEM_CACTVS_TAUTO_COUNT>
-1
> <PUBCHEM_COORDINATE_TYPE>
1
5
255
> <PUBCHEM_BONDANNOTATIONS>
10  21  3
11  15  3
12  22  3
13  24  3
16  26  3
17  20  3
26  30  8
26  31  8
30  33  8
6  31  8
6  33  8
8  12  3
9  19  3
$$$$
