500098
  -OEChem-10302200282D
 37 39  0     1  0  0  0  0  0999 V2000
    2.5836    0.7684    0.0000 O   0  0  0  0  0  0  0  0  0  0  0  0
    5.2619   -2.5363    0.0000 O   0  0  0  0  0  0  0  0  0  0  0  0
    3.5298   -2.5363    0.0000 O   0  0  0  0  0  0  0  0  0  0  0  0
    6.1381    4.0363    0.0000 O   0  5  0  0  0  0  0  0  0  0  0  0
    4.4060    4.0296    0.0000 O   0  0  0  0  0  0  0  0  0  0  0  0
    5.2619   -0.5363    0.0000 N   0  0  0  0  0  0  0  0  0  0  0  0
    5.2740    3.5330    0.0000 N   0  3  0  0  0  0  0  0  0  0  0  0
    3.5298   -0.5363    0.0000 C   0  0  3  0  0  0  0  0  0  0  0  0
    3.5298    0.4637    0.0000 C   0  0  3  0  0  0  0  0  0  0  0  0
    4.3958   -1.0363    0.0000 C   0  0  3  0  0  0  0  0  0  0  0  0
    2.5836   -0.8410    0.0000 C   0  0  0  0  0  0  0  0  0  0  0  0
    4.3958    0.9637    0.0000 C   0  0  0  0  0  0  0  0  0  0  0  0
    2.0000   -0.0363    0.0000 C   0  0  0  0  0  0  0  0  0  0  0  0
    5.2619    0.4637    0.0000 C   0  0  0  0  0  0  0  0  0  0  0  0
    4.3958   -2.0363    0.0000 C   0  0  0  0  0  0  0  0  0  0  0  0
    4.3798    2.0052    0.0000 C   0  0  0  0  0  0  0  0  0  0  0  0
    6.1719    0.9706    0.0000 C   0  0  0  0  0  0  0  0  0  0  0  0
    5.2778    2.5330    0.0000 C   0  0  0  0  0  0  0  0  0  0  0  0
    6.1799    2.0122    0.0000 C   0  0  0  0  0  0  0  0  0  0  0  0
    5.2619   -3.5363    0.0000 C   0  0  0  0  0  0  0  0  0  0  0  0
    6.1279   -4.0363    0.0000 C   0  0  0  0  0  0  0  0  0  0  0  0
    3.4642   -1.1528    0.0000 H   0  0  0  0  0  0  0  0  0  0  0  0
    3.4642    1.0802    0.0000 H   0  0  0  0  0  0  0  0  0  0  0  0
    4.9328   -1.3463    0.0000 H   0  0  0  0  0  0  0  0  0  0  0  0
    2.0462   -1.1502    0.0000 H   0  0  0  0  0  0  0  0  0  0  0  0
    2.8346   -1.4079    0.0000 H   0  0  0  0  0  0  0  0  0  0  0  0
    1.5391    0.3784    0.0000 H   0  0  0  0  0  0  0  0  0  0  0  0
    1.5391   -0.4510    0.0000 H   0  0  0  0  0  0  0  0  0  0  0  0
    5.7988   -0.8463    0.0000 H   0  0  0  0  0  0  0  0  0  0  0  0
    3.8393    2.3090    0.0000 H   0  0  0  0  0  0  0  0  0  0  0  0
    6.7052    0.6544    0.0000 H   0  0  0  0  0  0  0  0  0  0  0  0
    6.7180    2.3201    0.0000 H   0  0  0  0  0  0  0  0  0  0  0  0
    4.6513   -3.4286    0.0000 H   0  0  0  0  0  0  0  0  0  0  0  0
    5.0498   -4.1189    0.0000 H   0  0  0  0  0  0  0  0  0  0  0  0
    5.8179   -4.5732    0.0000 H   0  0  0  0  0  0  0  0  0  0  0  0
    6.6648   -4.3463    0.0000 H   0  0  0  0  0  0  0  0  0  0  0  0
    6.4379   -3.4994    0.0000 H   0  0  0  0  0  0  0  0  0  0  0  0
  1  9  1  0  0  0  0
  1 13  1  0  0  0  0
  2 15  1  0  0  0  0
  2 20  1  0  0  0  0
  3 15  2  0  0  0  0
  4  7  1  0  0  0  0
  5  7  2  0  0  0  0
  6 10  1  0  0  0  0
  6 14  1  0  0  0  0
  6 29  1  0  0  0  0
  7 18  1  0  0  0  0
  8  9  1  0  0  0  0
  8 10  1  0  0  0  0
  8 11  1  0  0  0  0
  8 22  1  0  0  0  0
  9 12  1  0  0  0  0
  9 23  1  0  0  0  0
 10 15  1  0  0  0  0
 10 24  1  0  0  0  0
 11 13  1  0  0  0  0
 11 25  1  0  0  0  0
 11 26  1  0  0  0  0
 12 14  2  0  0  0  0
 12 16  1  0  0  0  0
 13 27  1  0  0  0  0
 13 28  1  0  0  0  0
 14 17  1  0  0  0  0
 16 18  2  0  0  0  0
 16 30  1  0  0  0  0
 17 19  2  0  0  0  0
 17 31  1  0  0  0  0
 18 19  1  0  0  0  0
 19 32  1  0  0  0  0
 20 21  1  0  0  0  0
 20 33  1  0  0  0  0
 20 34  1  0  0  0  0
 21 35  1  0  0  0  0
 21 36  1  0  0  0  0
 21 37  1  0  0  0  0
M  CHG  2   4  -1   7   1
M  END
> <PUBCHEM_COMPOUND_CID>
500098
> <PUBCHEM_COMPOUND_CANONICALIZED>
1
> <PUBCHEM_CACTVS_COMPLEXITY>
424
> <PUBCHEM_CACTVS_HBOND_ACCEPTOR>
6
> <PUBCHEM_CACTVS_HBOND_DONOR>
1
> <PUBCHEM_CACTVS_ROTATABLE_BOND>
3
> <PUBCHEM_CACTVS_SUBSKEYS>
AAADceBzOAAAAAAAAAAAAAAAAAAAASAAAAA8QAAAAAAAAFixAAAAHgAUAAAADTzhmAYyyILQRACJAiTSSwCCAAAhAgAoiIGIbIoKJjLAsbmHMAhm0AHY6Af67PiOAACAQAACAAAAAQCAAAQAAAAAAAAAAA==
> <PUBCHEM_IUPAC_OPENEYE_NAME>
ethyl 8-nitro-2,3,3a,4,5,9b-hexahydrofuro[3,2-c]quinoline-4-carboxylate
> <PUBCHEM_IUPAC_CAS_NAME>
8-nitro-2,3,3a,4,5,9b-hexahydrofuro[3,2-c]quinoline-4-carboxylic acid ethyl ester
> <PUBCHEM_IUPAC_NAME_MARKUP>
ethyl 8-nitro-2,3,3<I>a</I>,4,5,9<I>b</I>-hexahydrofuro[3,2-c]quinoline-4-carboxylate
> <PUBCHEM_IUPAC_NAME>
ethyl 8-nitro-2,3,3a,4,5,9b-hexahydrofuro[3,2-c]quinoline-4-carboxylate
> <PUBCHEM_IUPAC_SYSTEMATIC_NAME>
ethyl 8-nitro-2,3,3a,4,5,9b-hexahydrofuro[3,2-c]quinoline-4-carboxylate
> <PUBCHEM_IUPAC_TRADITIONAL_NAME>
8-nitro-2,3,3a,4,5,9b-hexahydrofuro[3,2-c]quinoline-4-carboxylic acid ethyl ester
> <PUBCHEM_IUPAC_INCHI>
InChI=1S/C14H16N2O5/c1-2-20-14(17)12-9-5-6-21-13(9)10-7-8(16(18)19)3-4-11(10)15-12/h3-4,7,9,12-13,15H,2,5-6H2,1H3
> <PUBCHEM_IUPAC_INCHIKEY>
LMLJICUYWXELEL-UHFFFAOYSA-N
> <PUBCHEM_XLOGP3_AA>
1.9
> <PUBCHEM_EXACT_MASS>
292.10592162
> <PUBCHEM_MOLECULAR_FORMULA>
C14H16N2O5
> <PUBCHEM_MOLECULAR_WEIGHT>
292.29
> <PUBCHEM_OPENEYE_CAN_SMILES>
CCOC(=O)C1C2CCOC2C3=C(N1)C=CC(=C3)[N+](=O)[O-]
> <PUBCHEM_OPENEYE_ISO_SMILES>
CCOC(=O)C1C2CCOC2C3=C(N1)C=CC(=C3)[N+](=O)[O-]
> <PUBCHEM_CACTVS_TPSA>
93.4
> <PUBCHEM_MONOISOTOPIC_WEIGHT>
292.10592162
> <PUBCHEM_TOTAL_CHARGE>
0
> <PUBCHEM_HEAVY_ATOM_COUNT>
21
> <PUBCHEM_ATOM_DEF_STEREO_COUNT>
0
> <PUBCHEM_ATOM_UDEF_STEREO_COUNT>
3
> <PUBCHEM_BOND_DEF_STEREO_COUNT>
0
> <PUBCHEM_BOND_UDEF_STEREO_COUNT>
0
> <PUBCHEM_ISOTOPIC_ATOM_COUNT>
0
> <PUBCHEM_COMPONENT_COUNT>
1
> <PUBCHEM_CACTVS_TAUTO_COUNT>
-1
> <PUBCHEM_COORDINATE_TYPE>
1
5
255
> <PUBCHEM_BONDANNOTATIONS>
9  1  3
10  15  3
12  14  8
12  16  8
14  17  8
16  18  8
17  19  8
18  19  8
8  11  3
$$$$
