500052
  -OEChem-10302200282D
 59 63  0     1  0  0  0  0  0999 V2000
    8.0530   -0.8482    0.0000 O   0  0  0  0  0  0  0  0  0  0  0  0
    6.3212   -0.1181    0.0000 O   0  0  0  0  0  0  0  0  0  0  0  0
    2.4712   -0.7116    0.0000 O   0  0  0  0  0  0  0  0  0  0  0  0
    3.4405   -2.5090    0.0000 O   0  0  0  0  0  0  0  0  0  0  0  0
    7.1416    2.5636    0.0000 N   0  0  3  0  0  0  0  0  0  0  0  0
    6.5056   -0.6117    0.0000 N   0  0  0  0  0  0  0  0  0  0  0  0
    7.7650    1.7818    0.0000 C   0  0  3  0  0  0  0  0  0  0  0  0
    7.5425    0.8069    0.0000 C   0  0  3  0  0  0  0  0  0  0  0  0
    9.2928    0.3861    0.0000 C   0  0  3  0  0  0  0  0  0  0  0  0
    8.7555    2.1042    0.0000 C   0  0  3  0  0  0  0  0  0  0  0  0
    8.2951    0.0867    0.0000 C   0  0  0  0  0  0  0  0  0  0  0  0
    9.5246    1.4016    0.0000 C   0  0  0  0  0  0  0  0  0  0  0  0
    8.8458    2.0959    0.0000 C   0  0  0  0  0  0  0  0  0  0  0  0
    6.6416    0.3730    0.0000 C   0  0  0  0  0  0  0  0  0  0  0  0
    6.1415    2.5636    0.0000 C   0  0  0  0  0  0  0  0  0  0  0  0
    8.9668    3.0816    0.0000 C   0  0  0  0  0  0  0  0  0  0  0  0
    7.3200   -0.1680    0.0000 C   0  0  0  0  0  0  0  0  0  0  0  0
    5.7406    0.8069    0.0000 C   0  0  0  0  0  0  0  0  0  0  0  0
    5.5181    1.7818    0.0000 C   0  0  0  0  0  0  0  0  0  0  0  0
    5.0555    0.0866    0.0000 C   0  0  0  0  0  0  0  0  0  0  0  0
    9.9189    3.3874    0.0000 C   0  0  0  0  0  0  0  0  0  0  0  0
    5.5273   -0.7884    0.0000 C   0  0  0  0  0  0  0  0  0  0  0  0
    4.0210    0.1326    0.0000 C   0  0  0  0  0  0  0  0  0  0  0  0
    4.9974   -1.6780    0.0000 C   0  0  0  0  0  0  0  0  0  0  0  0
    7.8305   -1.8231    0.0000 C   0  0  0  0  0  0  0  0  0  0  0  0
    3.4707   -0.7445    0.0000 C   0  0  0  0  0  0  0  0  0  0  0  0
    3.9622   -1.6559    0.0000 C   0  0  0  0  0  0  0  0  0  0  0  0
    2.0000    0.1704    0.0000 C   0  0  0  0  0  0  0  0  0  0  0  0
    3.9185   -3.3874    0.0000 C   0  0  0  0  0  0  0  0  0  0  0  0
    8.2228    1.3636    0.0000 H   0  0  0  0  0  0  0  0  0  0  0  0
    9.7456   -0.0374    0.0000 H   0  0  0  0  0  0  0  0  0  0  0  0
    8.2954    2.5197    0.0000 H   0  0  0  0  0  0  0  0  0  0  0  0
    7.7961   -0.2813    0.0000 H   0  0  0  0  0  0  0  0  0  0  0  0
    8.5722   -0.4679    0.0000 H   0  0  0  0  0  0  0  0  0  0  0  0
   10.0965    1.1622    0.0000 H   0  0  0  0  0  0  0  0  0  0  0  0
    9.8582    1.9241    0.0000 H   0  0  0  0  0  0  0  0  0  0  0  0
    9.4637    2.1461    0.0000 H   0  0  0  0  0  0  0  0  0  0  0  0
    8.9036    2.7132    0.0000 H   0  0  0  0  0  0  0  0  0  0  0  0
    6.2795    3.1681    0.0000 H   0  0  0  0  0  0  0  0  0  0  0  0
    5.5830    2.8327    0.0000 H   0  0  0  0  0  0  0  0  0  0  0  0
    8.8826    3.6958    0.0000 H   0  0  0  0  0  0  0  0  0  0  0  0
    8.3472    3.1053    0.0000 H   0  0  0  0  0  0  0  0  0  0  0  0
    5.1315    2.2666    0.0000 H   0  0  0  0  0  0  0  0  0  0  0  0
    4.9595    1.5128    0.0000 H   0  0  0  0  0  0  0  0  0  0  0  0
    6.9529   -1.0410    0.0000 H   0  0  0  0  0  0  0  0  0  0  0  0
   10.1085    2.7971    0.0000 H   0  0  0  0  0  0  0  0  0  0  0  0
   10.5092    3.5770    0.0000 H   0  0  0  0  0  0  0  0  0  0  0  0
    9.7293    3.9777    0.0000 H   0  0  0  0  0  0  0  0  0  0  0  0
    3.7331    0.6817    0.0000 H   0  0  0  0  0  0  0  0  0  0  0  0
    5.2979   -2.2202    0.0000 H   0  0  0  0  0  0  0  0  0  0  0  0
    7.2261   -1.6852    0.0000 H   0  0  0  0  0  0  0  0  0  0  0  0
    7.6926   -2.4276    0.0000 H   0  0  0  0  0  0  0  0  0  0  0  0
    8.4350   -1.9611    0.0000 H   0  0  0  0  0  0  0  0  0  0  0  0
    2.5468    0.4626    0.0000 H   0  0  0  0  0  0  0  0  0  0  0  0
    1.7078    0.7173    0.0000 H   0  0  0  0  0  0  0  0  0  0  0  0
    1.4532   -0.1217    0.0000 H   0  0  0  0  0  0  0  0  0  0  0  0
    3.3739   -3.6838    0.0000 H   0  0  0  0  0  0  0  0  0  0  0  0
    4.2149   -3.9320    0.0000 H   0  0  0  0  0  0  0  0  0  0  0  0
    4.4631   -3.0910    0.0000 H   0  0  0  0  0  0  0  0  0  0  0  0
  1 17  1  0  0  0  0
  1 25  1  0  0  0  0
  2 17  2  0  0  0  0
  3 26  1  0  0  0  0
  3 28  1  0  0  0  0
  4 27  1  0  0  0  0
  4 29  1  0  0  0  0
  5  7  1  0  0  0  0
  5 13  1  0  0  0  0
  5 15  1  0  0  0  0
  6 14  1  0  0  0  0
  6 22  1  0  0  0  0
  6 45  1  0  0  0  0
  7  8  1  0  0  0  0
  7 10  1  0  0  0  0
  7 30  1  0  0  0  0
  8 11  1  0  0  0  0
  8 14  1  0  0  0  0
  8 17  1  0  0  0  0
  9 11  1  0  0  0  0
  9 12  1  0  0  0  0
  9 13  1  0  0  0  0
  9 31  1  0  0  0  0
 10 12  1  0  0  0  0
 10 16  1  0  0  0  0
 10 32  1  0  0  0  0
 11 33  1  0  0  0  0
 11 34  1  0  0  0  0
 12 35  1  0  0  0  0
 12 36  1  0  0  0  0
 13 37  1  0  0  0  0
 13 38  1  0  0  0  0
 14 18  2  0  0  0  0
 15 19  1  0  0  0  0
 15 39  1  0  0  0  0
 15 40  1  0  0  0  0
 16 21  1  0  0  0  0
 16 41  1  0  0  0  0
 16 42  1  0  0  0  0
 18 19  1  0  0  0  0
 18 20  1  0  0  0  0
 19 43  1  0  0  0  0
 19 44  1  0  0  0  0
 20 22  1  0  0  0  0
 20 23  2  0  0  0  0
 21 46  1  0  0  0  0
 21 47  1  0  0  0  0
 21 48  1  0  0  0  0
 22 24  2  0  0  0  0
 23 26  1  0  0  0  0
 23 49  1  0  0  0  0
 24 27  1  0  0  0  0
 24 50  1  0  0  0  0
 25 51  1  0  0  0  0
 25 52  1  0  0  0  0
 25 53  1  0  0  0  0
 26 27  2  0  0  0  0
 28 54  1  0  0  0  0
 28 55  1  0  0  0  0
 28 56  1  0  0  0  0
 29 57  1  0  0  0  0
 29 58  1  0  0  0  0
 29 59  1  0  0  0  0
M  END
> <PUBCHEM_COMPOUND_CID>
500052
> <PUBCHEM_COMPOUND_CANONICALIZED>
1
> <PUBCHEM_CACTVS_COMPLEXITY>
644
> <PUBCHEM_CACTVS_HBOND_ACCEPTOR>
5
> <PUBCHEM_CACTVS_HBOND_DONOR>
1
> <PUBCHEM_CACTVS_ROTATABLE_BOND>
5
> <PUBCHEM_CACTVS_SUBSKEYS>
AAADceB7OAAAAAAAAAAAAAAAAAAAAWAAAAA8eIEABYAAAFix8AAAHgAQAAAADyzBngYyzvPJlACoAyTyTACCiCAhIiAAmSE+7JgNJvrE9JuEMCpm0BnK6Ae42fOPoEABAgACQABQgAYEAASAAAAAAAAAAA==
> <PUBCHEM_IUPAC_OPENEYE_NAME>
methyl 17-ethyl-6,7-dimethoxy-3,13-diazapentacyclo[13.3.1.02,10.04,9.013,18]nonadeca-2(10),4,6,8-tetraene-1-carboxylate
> <PUBCHEM_IUPAC_CAS_NAME>
17-ethyl-6,7-dimethoxy-3,13-diazapentacyclo[13.3.1.02,10.04,9.013,18]nonadeca-2(10),4,6,8-tetraene-1-carboxylic acid methyl ester
> <PUBCHEM_IUPAC_NAME_MARKUP>
methyl 17-ethyl-6,7-dimethoxy-3,13-diazapentacyclo[13.3.1.0<SUP>2,10</SUP>.0<SUP>4,9</SUP>.0<SUP>13,18</SUP>]nonadeca-2(10),4,6,8-tetraene-1-carboxylate
> <PUBCHEM_IUPAC_NAME>
methyl 17-ethyl-6,7-dimethoxy-3,13-diazapentacyclo[13.3.1.02,10.04,9.013,18]nonadeca-2(10),4,6,8-tetraene-1-carboxylate
> <PUBCHEM_IUPAC_SYSTEMATIC_NAME>
methyl 17-ethyl-6,7-dimethoxy-3,13-diazapentacyclo[13.3.1.02,10.04,9.013,18]nonadeca-2(10),4,6,8-tetraene-1-carboxylate
> <PUBCHEM_IUPAC_TRADITIONAL_NAME>
17-ethyl-6,7-dimethoxy-3,13-diazapentacyclo[13.3.1.02,10.04,9.013,18]nonadeca-2(10),4,6,8-tetraene-1-carboxylic acid methyl ester
> <PUBCHEM_IUPAC_INCHI>
InChI=1S/C23H30N2O4/c1-5-14-8-13-11-23(22(26)29-4)20-15(6-7-25(12-13)21(14)23)16-9-18(27-2)19(28-3)10-17(16)24-20/h9-10,13-14,21,24H,5-8,11-12H2,1-4H3
> <PUBCHEM_IUPAC_INCHIKEY>
DUFLXLVGASPEMV-UHFFFAOYSA-N
> <PUBCHEM_XLOGP3_AA>
3.5
> <PUBCHEM_EXACT_MASS>
398.22055744
> <PUBCHEM_MOLECULAR_FORMULA>
C23H30N2O4
> <PUBCHEM_MOLECULAR_WEIGHT>
398.5
> <PUBCHEM_OPENEYE_CAN_SMILES>
CCC1CC2CC3(C1N(C2)CCC4=C3NC5=CC(=C(C=C45)OC)OC)C(=O)OC
> <PUBCHEM_OPENEYE_ISO_SMILES>
CCC1CC2CC3(C1N(C2)CCC4=C3NC5=CC(=C(C=C45)OC)OC)C(=O)OC
> <PUBCHEM_CACTVS_TPSA>
63.8
> <PUBCHEM_MONOISOTOPIC_WEIGHT>
398.22055744
> <PUBCHEM_TOTAL_CHARGE>
0
> <PUBCHEM_HEAVY_ATOM_COUNT>
29
> <PUBCHEM_ATOM_DEF_STEREO_COUNT>
0
> <PUBCHEM_ATOM_UDEF_STEREO_COUNT>
4
> <PUBCHEM_BOND_DEF_STEREO_COUNT>
0
> <PUBCHEM_BOND_UDEF_STEREO_COUNT>
0
> <PUBCHEM_ISOTOPIC_ATOM_COUNT>
0
> <PUBCHEM_COMPONENT_COUNT>
1
> <PUBCHEM_CACTVS_TAUTO_COUNT>
-1
> <PUBCHEM_COORDINATE_TYPE>
1
5
255
> <PUBCHEM_BONDANNOTATIONS>
10  16  3
14  18  8
18  20  8
20  22  8
20  23  8
22  24  8
23  26  8
24  27  8
26  27  8
7  5  3
6  14  8
6  22  8
8  17  3
9  12  3
$$$$
