500042
  -OEChem-10302200282D
 78 84  0     1  0  0  0  0  0999 V2000
    2.5000   -0.1533    0.0000 O   0  0  0  0  0  0  0  0  0  0  0  0
    6.4885   -1.0543    0.0000 O   0  0  0  0  0  0  0  0  0  0  0  0
    7.8708   -2.5659    0.0000 O   0  0  0  0  0  0  0  0  0  0  0  0
    8.0187    4.1334    0.0000 O   0  0  0  0  0  0  0  0  0  0  0  0
    9.2176    2.4803    0.0000 O   0  0  0  0  0  0  0  0  0  0  0  0
    3.5000    0.8467    0.0000 N   0  0  0  0  0  0  0  0  0  0  0  0
    3.4854   -4.1250    0.0000 N   0  0  3  0  0  0  0  0  0  0  0  0
    6.1783    0.5419    0.0000 N   0  0  0  0  0  0  0  0  0  0  0  0
    4.3661   -1.6533    0.0000 C   0  0  3  0  0  0  0  0  0  0  0  0
    4.3661    0.3467    0.0000 C   0  0  3  0  0  0  0  0  0  0  0  0
    3.5000   -1.1533    0.0000 C   0  0  0  0  0  0  0  0  0  0  0  0
    3.5571   -2.2411    0.0000 C   0  0  0  0  0  0  0  0  0  0  0  0
    5.2321   -1.1533    0.0000 C   0  0  0  0  0  0  0  0  0  0  0  0
    3.5000   -0.1533    0.0000 C   0  0  3  0  0  0  0  0  0  0  0  0
    3.8661   -3.1922    0.0000 C   0  0  3  0  0  0  0  0  0  0  0  0
    5.2321   -0.1533    0.0000 C   0  0  0  0  0  0  0  0  0  0  0  0
    5.1751   -2.2411    0.0000 C   0  0  0  0  0  0  0  0  0  0  0  0
    4.8661   -3.1922    0.0000 C   0  0  0  0  0  0  0  0  0  0  0  0
    5.2321    0.8467    0.0000 C   0  0  0  0  0  0  0  0  0  0  0  0
    5.5510   -3.9769    0.0000 C   0  0  0  0  0  0  0  0  0  0  0  0
    6.1905   -2.0089    0.0000 C   0  0  0  0  0  0  0  0  0  0  0  0
    5.2321    1.8467    0.0000 C   0  0  0  0  0  0  0  0  0  0  0  0
    4.0770   -4.9407    0.0000 C   0  0  0  0  0  0  0  0  0  0  0  0
    5.0820   -4.8686    0.0000 C   0  0  0  0  0  0  0  0  0  0  0  0
    3.5000    1.8467    0.0000 C   0  0  0  0  0  0  0  0  0  0  0  0
    4.3661    2.3467    0.0000 C   0  0  0  0  0  0  0  0  0  0  0  0
    6.5716   -3.7682    0.0000 C   0  0  0  0  0  0  0  0  0  0  0  0
    6.8934   -2.7776    0.0000 C   0  0  0  0  0  0  0  0  0  0  0  0
    6.1783    2.1514    0.0000 C   0  0  0  0  0  0  0  0  0  0  0  0
    2.4926   -4.2448    0.0000 C   0  0  0  0  0  0  0  0  0  0  0  0
    6.7619    1.3467    0.0000 C   0  0  0  0  0  0  0  0  0  0  0  0
    2.0000   -1.0193    0.0000 C   0  0  0  0  0  0  0  0  0  0  0  0
    6.5857    3.1034    0.0000 C   0  0  0  0  0  0  0  0  0  0  0  0
    7.7934    1.4381    0.0000 C   0  0  0  0  0  0  0  0  0  0  0  0
    7.6147    3.2187    0.0000 C   0  0  0  0  0  0  0  0  0  0  0  0
    8.2226    2.3804    0.0000 C   0  0  0  0  0  0  0  0  0  0  0  0
    8.5428   -3.3064    0.0000 C   0  0  0  0  0  0  0  0  0  0  0  0
    7.4285    4.9407    0.0000 C   0  0  0  0  0  0  0  0  0  0  0  0
    9.8016    1.6685    0.0000 C   0  0  0  0  0  0  0  0  0  0  0  0
    2.8895   -1.0457    0.0000 H   0  0  0  0  0  0  0  0  0  0  0  0
    3.2880   -1.7359    0.0000 H   0  0  0  0  0  0  0  0  0  0  0  0
    3.2471   -1.7042    0.0000 H   0  0  0  0  0  0  0  0  0  0  0  0
    2.9907   -2.4933    0.0000 H   0  0  0  0  0  0  0  0  0  0  0  0
    5.4441   -1.7359    0.0000 H   0  0  0  0  0  0  0  0  0  0  0  0
    5.8427   -1.0457    0.0000 H   0  0  0  0  0  0  0  0  0  0  0  0
    3.3396    0.4455    0.0000 H   0  0  0  0  0  0  0  0  0  0  0  0
    3.2465   -3.1695    0.0000 H   0  0  0  0  0  0  0  0  0  0  0  0
    5.8427   -0.2610    0.0000 H   0  0  0  0  0  0  0  0  0  0  0  0
    5.4441    0.4293    0.0000 H   0  0  0  0  0  0  0  0  0  0  0  0
    2.8801    0.8467    0.0000 H   0  0  0  0  0  0  0  0  0  0  0  0
    3.5166   -5.2060    0.0000 H   0  0  0  0  0  0  0  0  0  0  0  0
    4.2345   -5.5403    0.0000 H   0  0  0  0  0  0  0  0  0  0  0  0
    5.0116   -5.4846    0.0000 H   0  0  0  0  0  0  0  0  0  0  0  0
    5.6744   -5.0512    0.0000 H   0  0  0  0  0  0  0  0  0  0  0  0
    3.2880    2.4293    0.0000 H   0  0  0  0  0  0  0  0  0  0  0  0
    2.8895    1.7390    0.0000 H   0  0  0  0  0  0  0  0  0  0  0  0
    4.7646    2.8216    0.0000 H   0  0  0  0  0  0  0  0  0  0  0  0
    3.9676    2.8216    0.0000 H   0  0  0  0  0  0  0  0  0  0  0  0
    6.3709   -0.0474    0.0000 H   0  0  0  0  0  0  0  0  0  0  0  0
    6.9846   -4.2305    0.0000 H   0  0  0  0  0  0  0  0  0  0  0  0
    2.4184   -3.6293    0.0000 H   0  0  0  0  0  0  0  0  0  0  0  0
    1.8771   -4.3190    0.0000 H   0  0  0  0  0  0  0  0  0  0  0  0
    2.5669   -4.8603    0.0000 H   0  0  0  0  0  0  0  0  0  0  0  0
    1.4631   -0.7092    0.0000 H   0  0  0  0  0  0  0  0  0  0  0  0
    1.6900   -1.5562    0.0000 H   0  0  0  0  0  0  0  0  0  0  0  0
    2.5369   -1.3293    0.0000 H   0  0  0  0  0  0  0  0  0  0  0  0
    7.0934   -0.9184    0.0000 H   0  0  0  0  0  0  0  0  0  0  0  0
    6.2159    3.6010    0.0000 H   0  0  0  0  0  0  0  0  0  0  0  0
    8.1515    0.9320    0.0000 H   0  0  0  0  0  0  0  0  0  0  0  0
    8.0836   -3.7231    0.0000 H   0  0  0  0  0  0  0  0  0  0  0  0
    8.9594   -3.7656    0.0000 H   0  0  0  0  0  0  0  0  0  0  0  0
    9.0019   -2.8898    0.0000 H   0  0  0  0  0  0  0  0  0  0  0  0
    7.9290    5.3066    0.0000 H   0  0  0  0  0  0  0  0  0  0  0  0
    7.0626    5.4412    0.0000 H   0  0  0  0  0  0  0  0  0  0  0  0
    6.9280    4.5748    0.0000 H   0  0  0  0  0  0  0  0  0  0  0  0
    9.2983    1.3064    0.0000 H   0  0  0  0  0  0  0  0  0  0  0  0
   10.1636    1.1652    0.0000 H   0  0  0  0  0  0  0  0  0  0  0  0
   10.3049    2.0305    0.0000 H   0  0  0  0  0  0  0  0  0  0  0  0
  1 14  1  0  0  0  0
  1 32  1  0  0  0  0
  2 21  1  0  0  0  0
  2 67  1  0  0  0  0
  3 28  1  0  0  0  0
  3 37  1  0  0  0  0
  4 35  1  0  0  0  0
  4 38  1  0  0  0  0
  5 36  1  0  0  0  0
  5 39  1  0  0  0  0
  6 10  1  0  0  0  0
  6 25  1  0  0  0  0
  6 50  1  0  0  0  0
  7 15  1  0  0  0  0
  7 23  1  0  0  0  0
  7 30  1  0  0  0  0
  8 19  1  0  0  0  0
  8 31  1  0  0  0  0
  8 59  1  0  0  0  0
  9 11  1  0  0  0  0
  9 12  1  0  0  0  0
  9 13  1  0  0  0  0
  9 17  1  0  0  0  0
 10 14  1  0  0  0  0
 10 16  1  0  0  0  0
 10 19  1  0  0  0  0
 11 14  1  0  0  0  0
 11 40  1  0  0  0  0
 11 41  1  0  0  0  0
 12 15  1  0  0  0  0
 12 42  1  0  0  0  0
 12 43  1  0  0  0  0
 13 16  1  0  0  0  0
 13 44  1  0  0  0  0
 13 45  1  0  0  0  0
 14 46  1  0  0  0  0
 15 18  1  0  0  0  0
 15 47  1  0  0  0  0
 16 48  1  0  0  0  0
 16 49  1  0  0  0  0
 17 18  2  0  0  0  0
 17 21  1  0  0  0  0
 18 20  1  0  0  0  0
 19 22  2  0  0  0  0
 20 24  1  0  0  0  0
 20 27  2  0  0  0  0
 21 28  2  0  0  0  0
 22 26  1  0  0  0  0
 22 29  1  0  0  0  0
 23 24  1  0  0  0  0
 23 51  1  0  0  0  0
 23 52  1  0  0  0  0
 24 53  1  0  0  0  0
 24 54  1  0  0  0  0
 25 26  1  0  0  0  0
 25 55  1  0  0  0  0
 25 56  1  0  0  0  0
 26 57  1  0  0  0  0
 26 58  1  0  0  0  0
 27 28  1  0  0  0  0
 27 60  1  0  0  0  0
 29 31  1  0  0  0  0
 29 33  2  0  0  0  0
 30 61  1  0  0  0  0
 30 62  1  0  0  0  0
 30 63  1  0  0  0  0
 31 34  2  0  0  0  0
 32 64  1  0  0  0  0
 32 65  1  0  0  0  0
 32 66  1  0  0  0  0
 33 35  1  0  0  0  0
 33 68  1  0  0  0  0
 34 36  1  0  0  0  0
 34 69  1  0  0  0  0
 35 36  2  0  0  0  0
 37 70  1  0  0  0  0
 37 71  1  0  0  0  0
 37 72  1  0  0  0  0
 38 73  1  0  0  0  0
 38 74  1  0  0  0  0
 38 75  1  0  0  0  0
 39 76  1  0  0  0  0
 39 77  1  0  0  0  0
 39 78  1  0  0  0  0
M  END
> <PUBCHEM_COMPOUND_CID>
500042
> <PUBCHEM_COMPOUND_CANONICALIZED>
1
> <PUBCHEM_CACTVS_COMPLEXITY>
910
> <PUBCHEM_CACTVS_HBOND_ACCEPTOR>
7
> <PUBCHEM_CACTVS_HBOND_DONOR>
3
> <PUBCHEM_CACTVS_ROTATABLE_BOND>
4
> <PUBCHEM_CACTVS_SUBSKEYS>
AAADcfB7OAAAAAAAAAAAAAAAAAAAAeIAAAA8eMECAAAAAHix9AAAHgAQCAAADrzhngYyxvPJlgCgAyRiRACCiCAhIiAAmaA+7JgPZuLGsZuVcCtm0Bnb+Aew8P8PoEADAgAaQADQgAYEADSgASAACQAAAA==
> <PUBCHEM_IUPAC_INCHI>
InChI=1S/C31H39N3O5/c1-34-11-7-17-12-24(38-4)28(35)27-26(17)21(34)15-30(27)8-9-31(25(16-30)39-5)29-18(6-10-32-31)19-13-22(36-2)23(37-3)14-20(19)33-29/h12-14,21,25,32-33,35H,6-11,15-16H2,1-5H3
> <PUBCHEM_IUPAC_INCHIKEY>
ZEQJFLRBPFWVDX-UHFFFAOYSA-N
> <PUBCHEM_XLOGP3_AA>
3.5
> <PUBCHEM_EXACT_MASS>
533.28897135
> <PUBCHEM_MOLECULAR_FORMULA>
C31H39N3O5
> <PUBCHEM_MOLECULAR_WEIGHT>
533.7
> <PUBCHEM_OPENEYE_CAN_SMILES>
CN1CCC2=CC(=C(C3=C2C1CC34CCC5(C(C4)OC)C6=C(CCN5)C7=CC(=C(C=C7N6)OC)OC)O)OC
> <PUBCHEM_OPENEYE_ISO_SMILES>
CN1CCC2=CC(=C(C3=C2C1CC34CCC5(C(C4)OC)C6=C(CCN5)C7=CC(=C(C=C7N6)OC)OC)O)OC
> <PUBCHEM_CACTVS_TPSA>
88.2
> <PUBCHEM_MONOISOTOPIC_WEIGHT>
533.28897135
> <PUBCHEM_TOTAL_CHARGE>
0
> <PUBCHEM_HEAVY_ATOM_COUNT>
39
> <PUBCHEM_ATOM_DEF_STEREO_COUNT>
0
> <PUBCHEM_ATOM_UDEF_STEREO_COUNT>
4
> <PUBCHEM_BOND_DEF_STEREO_COUNT>
0
> <PUBCHEM_BOND_UDEF_STEREO_COUNT>
0
> <PUBCHEM_ISOTOPIC_ATOM_COUNT>
0
> <PUBCHEM_COMPONENT_COUNT>
1
> <PUBCHEM_CACTVS_TAUTO_COUNT>
-1
> <PUBCHEM_COORDINATE_TYPE>
1
5
255
> <PUBCHEM_BONDANNOTATIONS>
14  1  3
10  16  3
15  12  3
17  18  8
17  21  8
18  20  8
19  22  8
20  27  8
21  28  8
22  29  8
27  28  8
29  31  8
29  33  8
31  34  8
33  35  8
34  36  8
35  36  8
8  19  8
8  31  8
9  13  3
$$$$
