500037
  -OEChem-10302200282D
 27 28  0     1  0  0  0  0  0999 V2000
    2.0000   -0.3216    0.0000 F   0  0  0  0  0  0  0  0  0  0  0  0
    4.5691   -0.6307    0.0000 O   0  0  0  0  0  0  0  0  0  0  0  0
    2.6723   -2.3907    0.0000 O   0  0  0  0  0  0  0  0  0  0  0  0
    5.8424   -2.2862    0.0000 O   0  0  0  0  0  0  0  0  0  0  0  0
    5.4921    0.9571    0.0000 O   0  0  0  0  0  0  0  0  0  0  0  0
    3.7601    0.9571    0.0000 N   0  0  0  0  0  0  0  0  0  0  0  0
    4.6261    2.4571    0.0000 N   0  0  0  0  0  0  0  0  0  0  0  0
    3.2601   -1.5817    0.0000 C   0  0  2  0  0  0  0  0  0  0  0  0
    2.9511   -0.6307    0.0000 C   0  0  1  0  0  0  0  0  0  0  0  0
    4.2601   -1.5817    0.0000 C   0  0  2  0  0  0  0  0  0  0  0  0
    3.7601   -0.0429    0.0000 C   0  0  2  0  0  0  0  0  0  0  0  0
    4.8479   -2.3907    0.0000 C   0  0  0  0  0  0  0  0  0  0  0  0
    2.8940    1.4571    0.0000 C   0  0  0  0  0  0  0  0  0  0  0  0
    4.6261    1.4571    0.0000 C   0  0  0  0  0  0  0  0  0  0  0  0
    2.8940    2.4571    0.0000 C   0  0  0  0  0  0  0  0  0  0  0  0
    3.7601    2.9571    0.0000 C   0  0  0  0  0  0  0  0  0  0  0  0
    2.6477   -1.4847    0.0000 H   0  0  0  0  0  0  0  0  0  0  0  0
    2.5126   -1.0691    0.0000 H   0  0  0  0  0  0  0  0  0  0  0  0
    4.8724   -1.4847    0.0000 H   0  0  0  0  0  0  0  0  0  0  0  0
    4.3125    0.2386    0.0000 H   0  0  0  0  0  0  0  0  0  0  0  0
    4.2906   -2.6625    0.0000 H   0  0  0  0  0  0  0  0  0  0  0  0
    5.0188   -2.9867    0.0000 H   0  0  0  0  0  0  0  0  0  0  0  0
    2.9245   -2.9571    0.0000 H   0  0  0  0  0  0  0  0  0  0  0  0
    2.3571    1.1471    0.0000 H   0  0  0  0  0  0  0  0  0  0  0  0
    6.2068   -2.7878    0.0000 H   0  0  0  0  0  0  0  0  0  0  0  0
    2.3571    2.7671    0.0000 H   0  0  0  0  0  0  0  0  0  0  0  0
    3.7601    3.5771    0.0000 H   0  0  0  0  0  0  0  0  0  0  0  0
  9  1  1  6  0  0  0
  2 10  1  0  0  0  0
  2 11  1  0  0  0  0
  8  3  1  6  0  0  0
  3 23  1  0  0  0  0
  4 12  1  0  0  0  0
  4 25  1  0  0  0  0
  5 14  2  0  0  0  0
 11  6  1  1  0  0  0
  6 13  1  0  0  0  0
  6 14  1  0  0  0  0
  7 14  1  0  0  0  0
  7 16  2  0  0  0  0
  8  9  1  0  0  0  0
  8 10  1  0  0  0  0
  8 17  1  0  0  0  0
  9 11  1  0  0  0  0
  9 18  1  0  0  0  0
 10 12  1  1  0  0  0
 10 19  1  0  0  0  0
 11 20  1  0  0  0  0
 12 21  1  0  0  0  0
 12 22  1  0  0  0  0
 13 15  2  0  0  0  0
 13 24  1  0  0  0  0
 15 16  1  0  0  0  0
 15 26  1  0  0  0  0
 16 27  1  0  0  0  0
M  END
> <PUBCHEM_COMPOUND_CID>
500037
> <PUBCHEM_COMPOUND_CANONICALIZED>
1
> <PUBCHEM_CACTVS_COMPLEXITY>
346
> <PUBCHEM_CACTVS_HBOND_ACCEPTOR>
5
> <PUBCHEM_CACTVS_HBOND_DONOR>
2
> <PUBCHEM_CACTVS_ROTATABLE_BOND>
2
> <PUBCHEM_CACTVS_SUBSKEYS>
AAADccBzOQAAAAAAAAAAAAAAAAAAASAAAAAgAAAAAAAAAAAAAAAAHwAACAAACBThgAYBAAMABgCoADBnVAAAAAAAAgAIAAAYABCBEAIAgQAOQAAHBgIDAACwMAIAAAAAAAAAAAAAAAAAAAAAAAAAAAAAAA==
> <PUBCHEM_IUPAC_OPENEYE_NAME>
1-[(2S,3S,4S,5S)-3-fluoro-4-hydroxy-5-(hydroxymethyl)tetrahydrofuran-2-yl]pyrimidin-2-one
> <PUBCHEM_IUPAC_CAS_NAME>
1-[(2S,3S,4S,5S)-3-fluoro-4-hydroxy-5-(hydroxymethyl)-2-oxolanyl]-2-pyrimidinone
> <PUBCHEM_IUPAC_NAME_MARKUP>
1-[(2<I>S</I>,3<I>S</I>,4<I>S</I>,5<I>S</I>)-3-fluoro-4-hydroxy-5-(hydroxymethyl)oxolan-2-yl]pyrimidin-2-one
> <PUBCHEM_IUPAC_NAME>
1-[(2S,3S,4S,5S)-3-fluoro-4-hydroxy-5-(hydroxymethyl)oxolan-2-yl]pyrimidin-2-one
> <PUBCHEM_IUPAC_SYSTEMATIC_NAME>
1-[(2S,3S,4S,5S)-3-fluoranyl-5-(hydroxymethyl)-4-oxidanyl-oxolan-2-yl]pyrimidin-2-one
> <PUBCHEM_IUPAC_TRADITIONAL_NAME>
1-[(2S,3S,4S,5S)-3-fluoro-4-hydroxy-5-methylol-tetrahydrofuran-2-yl]pyrimidin-2-one
> <PUBCHEM_IUPAC_INCHI>
InChI=1S/C9H11FN2O4/c10-6-7(14)5(4-13)16-8(6)12-3-1-2-11-9(12)15/h1-3,5-8,13-14H,4H2/t5-,6-,7-,8-/m0/s1
> <PUBCHEM_IUPAC_INCHIKEY>
WQIKHPATWLOZFO-XAMCCFCMSA-N
> <PUBCHEM_XLOGP3>
-0.5
> <PUBCHEM_EXACT_MASS>
230.07028500
> <PUBCHEM_MOLECULAR_FORMULA>
C9H11FN2O4
> <PUBCHEM_MOLECULAR_WEIGHT>
230.19
> <PUBCHEM_OPENEYE_CAN_SMILES>
C1=CN(C(=O)N=C1)C2C(C(C(O2)CO)O)F
> <PUBCHEM_OPENEYE_ISO_SMILES>
C1=CN(C(=O)N=C1)[C@@H]2[C@H]([C@H]([C@@H](O2)CO)O)F
> <PUBCHEM_CACTVS_TPSA>
82.4
> <PUBCHEM_MONOISOTOPIC_WEIGHT>
230.07028500
> <PUBCHEM_TOTAL_CHARGE>
0
> <PUBCHEM_HEAVY_ATOM_COUNT>
16
> <PUBCHEM_ATOM_DEF_STEREO_COUNT>
4
> <PUBCHEM_ATOM_UDEF_STEREO_COUNT>
0
> <PUBCHEM_BOND_DEF_STEREO_COUNT>
0
> <PUBCHEM_BOND_UDEF_STEREO_COUNT>
0
> <PUBCHEM_ISOTOPIC_ATOM_COUNT>
0
> <PUBCHEM_COMPONENT_COUNT>
1
> <PUBCHEM_CACTVS_TAUTO_COUNT>
-1
> <PUBCHEM_COORDINATE_TYPE>
1
5
255
> <PUBCHEM_BONDANNOTATIONS>
9  1  6
10  12  5
13  15  8
15  16  8
8  3  6
11  6  5
6  13  8
6  14  8
7  14  8
7  16  8
$$$$
