500077
  -OEChem-10302200282D
 70 78  0     1  0  0  0  0  0999 V2000
    2.0000    1.1157    0.0000 Br  0  0  0  0  0  0  0  0  0  0  0  0
   14.7917    1.1157    0.0000 Br  0  0  0  0  0  0  0  0  0  0  0  0
    5.8393   -0.3570    0.0000 O   0  0  0  0  0  0  0  0  0  0  0  0
   10.5188   -0.6396    0.0000 O   0  0  0  0  0  0  0  0  0  0  0  0
    6.2730    2.8709    0.0000 O   0  0  0  0  0  0  0  0  0  0  0  0
   10.5188    2.8709    0.0000 O   0  0  0  0  0  0  0  0  0  0  0  0
    9.2619    3.6157    0.0000 O   0  5  0  0  0  0  0  0  0  0  0  0
    7.5298    3.6157    0.0000 O   0  0  0  0  0  0  0  0  0  0  0  0
    7.8580   -0.8210    0.0000 N   0  0  0  0  0  0  0  0  0  0  0  0
    8.3958    3.1157    0.0000 N   0  3  0  0  0  0  0  0  0  0  0  0
    6.0000    1.1157    0.0000 N   0  0  0  0  0  0  0  0  0  0  0  0
   10.7917    1.1157    0.0000 N   0  0  0  0  0  0  0  0  0  0  0  0
    8.3958    0.1157    0.0000 C   0  0  0  0  0  0  0  0  0  0  0  0
    8.3958    2.1157    0.0000 C   0  0  0  0  0  0  0  0  0  0  0  0
    7.5298    0.6157    0.0000 C   0  0  3  0  0  0  0  0  0  0  0  0
    9.2619    0.6157    0.0000 C   0  0  3  0  0  0  0  0  0  0  0  0
    7.5298    1.6157    0.0000 C   0  0  3  0  0  0  0  0  0  0  0  0
    9.2619    1.6157    0.0000 C   0  0  3  0  0  0  0  0  0  0  0  0
    7.9958    0.7157    0.0000 C   0  0  0  0  0  0  0  0  0  0  0  0
    7.9958    1.5157    0.0000 C   0  0  0  0  0  0  0  0  0  0  0  0
    6.5836    0.3109    0.0000 C   0  0  0  0  0  0  0  0  0  0  0  0
   10.2081    0.3109    0.0000 C   0  0  0  0  0  0  0  0  0  0  0  0
    6.5836    1.9204    0.0000 C   0  0  0  0  0  0  0  0  0  0  0  0
   10.2081    1.9204    0.0000 C   0  0  0  0  0  0  0  0  0  0  0  0
    6.9244    0.5795    0.0000 C   0  0  0  0  0  0  0  0  0  0  0  0
    6.8279   -0.4963    0.0000 C   0  0  0  0  0  0  0  0  0  0  0  0
    8.2216   -1.7526    0.0000 C   0  0  0  0  0  0  0  0  0  0  0  0
    5.7177    1.7002    0.0000 C   0  0  0  0  0  0  0  0  0  0  0  0
    5.4410   -1.3844    0.0000 C   0  0  0  0  0  0  0  0  0  0  0  0
    5.0000    1.1157    0.0000 C   0  0  0  0  0  0  0  0  0  0  0  0
   11.7917    1.1157    0.0000 C   0  0  0  0  0  0  0  0  0  0  0  0
    9.2102   -1.9034    0.0000 C   0  0  0  0  0  0  0  0  0  0  0  0
    7.5966   -2.5332    0.0000 C   0  0  0  0  0  0  0  0  0  0  0  0
    4.1802    1.1101    0.0000 C   0  0  0  0  0  0  0  0  0  0  0  0
    4.0331   -0.5301    0.0000 C   0  0  0  0  0  0  0  0  0  0  0  0
    4.5000    0.2496    0.0000 C   0  0  0  0  0  0  0  0  0  0  0  0
   12.2917    1.9817    0.0000 C   0  0  0  0  0  0  0  0  0  0  0  0
    4.5000    1.9817    0.0000 C   0  0  0  0  0  0  0  0  0  0  0  0
   12.2917    0.2496    0.0000 C   0  0  0  0  0  0  0  0  0  0  0  0
    9.5738   -2.8350    0.0000 C   0  0  0  0  0  0  0  0  0  0  0  0
    7.9602   -3.4648    0.0000 C   0  0  0  0  0  0  0  0  0  0  0  0
    8.9488   -3.6157    0.0000 C   0  0  0  0  0  0  0  0  0  0  0  0
    3.5000    0.2496    0.0000 C   0  0  0  0  0  0  0  0  0  0  0  0
   13.2917    1.9817    0.0000 C   0  0  0  0  0  0  0  0  0  0  0  0
    3.5000    1.9817    0.0000 C   0  0  0  0  0  0  0  0  0  0  0  0
   13.2917    0.2496    0.0000 C   0  0  0  0  0  0  0  0  0  0  0  0
    3.0000    1.1157    0.0000 C   0  0  0  0  0  0  0  0  0  0  0  0
   13.7917    1.1157    0.0000 C   0  0  0  0  0  0  0  0  0  0  0  0
    7.4642   -0.0009    0.0000 H   0  0  0  0  0  0  0  0  0  0  0  0
    9.3275   -0.0009    0.0000 H   0  0  0  0  0  0  0  0  0  0  0  0
    7.4642    2.2322    0.0000 H   0  0  0  0  0  0  0  0  0  0  0  0
    9.3275    2.2322    0.0000 H   0  0  0  0  0  0  0  0  0  0  0  0
    7.4025    1.6953    0.0000 H   0  0  0  0  0  0  0  0  0  0  0  0
    5.8354    2.3089    0.0000 H   0  0  0  0  0  0  0  0  0  0  0  0
    5.4486   -2.0043    0.0000 H   0  0  0  0  0  0  0  0  0  0  0  0
    9.5976   -1.4195    0.0000 H   0  0  0  0  0  0  0  0  0  0  0  0
    6.9838   -2.4396    0.0000 H   0  0  0  0  0  0  0  0  0  0  0  0
    3.6854    1.4838    0.0000 H   0  0  0  0  0  0  0  0  0  0  0  0
    3.4797   -0.8098    0.0000 H   0  0  0  0  0  0  0  0  0  0  0  0
    4.8100   -0.2873    0.0000 H   0  0  0  0  0  0  0  0  0  0  0  0
   11.9817    2.5186    0.0000 H   0  0  0  0  0  0  0  0  0  0  0  0
    4.8100    2.5186    0.0000 H   0  0  0  0  0  0  0  0  0  0  0  0
   11.9817   -0.2873    0.0000 H   0  0  0  0  0  0  0  0  0  0  0  0
   10.1866   -2.9286    0.0000 H   0  0  0  0  0  0  0  0  0  0  0  0
    7.5728   -3.9488    0.0000 H   0  0  0  0  0  0  0  0  0  0  0  0
    9.1742   -4.1932    0.0000 H   0  0  0  0  0  0  0  0  0  0  0  0
    3.1900   -0.2873    0.0000 H   0  0  0  0  0  0  0  0  0  0  0  0
   13.6017    2.5186    0.0000 H   0  0  0  0  0  0  0  0  0  0  0  0
    3.1900    2.5186    0.0000 H   0  0  0  0  0  0  0  0  0  0  0  0
   13.6017   -0.2873    0.0000 H   0  0  0  0  0  0  0  0  0  0  0  0
  1 47  1  0  0  0  0
  2 48  1  0  0  0  0
  3 21  2  0  0  0  0
  4 22  2  0  0  0  0
  5 23  2  0  0  0  0
  6 24  2  0  0  0  0
  7 10  1  0  0  0  0
  8 10  2  0  0  0  0
  9 13  1  0  0  0  0
  9 26  1  0  0  0  0
  9 27  1  0  0  0  0
 10 14  1  0  0  0  0
 11 21  1  0  0  0  0
 11 23  1  0  0  0  0
 11 30  1  0  0  0  0
 12 22  1  0  0  0  0
 12 24  1  0  0  0  0
 12 31  1  0  0  0  0
 13 15  1  0  0  0  0
 13 16  1  0  0  0  0
 13 19  1  0  0  0  0
 14 17  1  0  0  0  0
 14 18  1  0  0  0  0
 14 20  1  0  0  0  0
 15 17  1  0  0  0  0
 15 21  1  0  0  0  0
 15 49  1  0  0  0  0
 16 18  1  0  0  0  0
 16 22  1  0  0  0  0
 16 50  1  0  0  0  0
 17 23  1  0  0  0  0
 17 51  1  0  0  0  0
 18 24  1  0  0  0  0
 18 52  1  0  0  0  0
 19 20  2  0  0  0  0
 19 25  1  0  0  0  0
 20 53  1  0  0  0  0
 25 26  1  0  0  0  0
 25 28  2  0  0  0  0
 26 29  2  0  0  0  0
 27 32  2  0  0  0  0
 27 33  1  0  0  0  0
 28 34  1  0  0  0  0
 28 54  1  0  0  0  0
 29 35  1  0  0  0  0
 29 55  1  0  0  0  0
 30 36  2  0  0  0  0
 30 38  1  0  0  0  0
 31 37  2  0  0  0  0
 31 39  1  0  0  0  0
 32 40  1  0  0  0  0
 32 56  1  0  0  0  0
 33 41  2  0  0  0  0
 33 57  1  0  0  0  0
 34 35  2  0  0  0  0
 34 58  1  0  0  0  0
 35 59  1  0  0  0  0
 36 43  1  0  0  0  0
 36 60  1  0  0  0  0
 37 44  1  0  0  0  0
 37 61  1  0  0  0  0
 38 45  2  0  0  0  0
 38 62  1  0  0  0  0
 39 46  2  0  0  0  0
 39 63  1  0  0  0  0
 40 42  2  0  0  0  0
 40 64  1  0  0  0  0
 41 42  1  0  0  0  0
 41 65  1  0  0  0  0
 42 66  1  0  0  0  0
 43 47  2  0  0  0  0
 43 67  1  0  0  0  0
 44 48  2  0  0  0  0
 44 68  1  0  0  0  0
 45 47  1  0  0  0  0
 45 69  1  0  0  0  0
 46 48  1  0  0  0  0
 46 70  1  0  0  0  0
M  CHG  2   7  -1  10   1
M  END
> <PUBCHEM_COMPOUND_CID>
500077
> <PUBCHEM_COMPOUND_CANONICALIZED>
1
> <PUBCHEM_CACTVS_COMPLEXITY>
1410
> <PUBCHEM_CACTVS_HBOND_ACCEPTOR>
7
> <PUBCHEM_CACTVS_HBOND_DONOR>
0
> <PUBCHEM_CACTVS_ROTATABLE_BOND>
3
> <PUBCHEM_CACTVS_SUBSKEYS>
AAADceB/uAAAGAAAAAAAAAAAAAAAAWLFgAAwYMGDAAAAAFgBVAAAHgBEAAABrYiBmAAwwIMQQACJAiVSUwCCAAAhAgQoiAEAZKgIIHrA0ZGEIAhghCDIyhcdi8COgAAgAAACAACQAUSAACQAAAAAAAAAAA==
> <PUBCHEM_IUPAC_OPENEYE_NAME>
14,19-bis(4-bromophenyl)-11-nitro-2-phenyl-2,14,19-triazahexacyclo[9.5.5.01,9.03,8.012,16.017,21]henicosa-3,5,7,9-tetraene-13,15,18,20-tetrone
> <PUBCHEM_IUPAC_CAS_NAME>
14,19-bis(4-bromophenyl)-11-nitro-2-phenyl-2,14,19-triazahexacyclo[9.5.5.01,9.03,8.012,16.017,21]heneicosa-3,5,7,9-tetraene-13,15,18,20-tetrone
> <PUBCHEM_IUPAC_NAME_MARKUP>
14,19-bis(4-bromophenyl)-11-nitro-2-phenyl-2,14,19-triazahexacyclo[9.5.5.0<SUP>1,9</SUP>.0<SUP>3,8</SUP>.0<SUP>12,16</SUP>.0<SUP>17,21</SUP>]henicosa-3,5,7,9-tetraene-13,15,18,20-tetrone
> <PUBCHEM_IUPAC_NAME>
14,19-bis(4-bromophenyl)-11-nitro-2-phenyl-2,14,19-triazahexacyclo[9.5.5.01,9.03,8.012,16.017,21]henicosa-3,5,7,9-tetraene-13,15,18,20-tetrone
> <PUBCHEM_IUPAC_SYSTEMATIC_NAME>
14,19-bis(4-bromophenyl)-11-nitro-2-phenyl-2,14,19-triazahexacyclo[9.5.5.01,9.03,8.012,16.017,21]henicosa-3,5,7,9-tetraene-13,15,18,20-tetrone
> <PUBCHEM_IUPAC_TRADITIONAL_NAME>
14,19-bis(4-bromophenyl)-11-nitro-2-phenyl-2,14,19-triazahexacyclo[9.5.5.01,9.03,8.012,16.017,21]heneicosa-3,5,7,9-tetraene-13,15,18,20-diquinone
> <PUBCHEM_IUPAC_INCHI>
InChI=1S/C36H22Br2N4O6/c37-19-10-14-21(15-11-19)39-31(43)27-29(33(39)45)36-25(24-8-4-5-9-26(24)41(36)23-6-2-1-3-7-23)18-35(27,42(47)48)28-30(36)34(46)40(32(28)44)22-16-12-20(38)13-17-22/h1-18,27-30H
> <PUBCHEM_IUPAC_INCHIKEY>
ZTLOLDGPZRPSSH-UHFFFAOYSA-N
> <PUBCHEM_XLOGP3_AA>
5
> <PUBCHEM_EXACT_MASS>
765.98856
> <PUBCHEM_MOLECULAR_FORMULA>
C36H22Br2N4O6
> <PUBCHEM_MOLECULAR_WEIGHT>
766.4
> <PUBCHEM_OPENEYE_CAN_SMILES>
C1=CC=C(C=C1)N2C3=CC=CC=C3C4=CC5(C6C(C42C7C5C(=O)N(C7=O)C8=CC=C(C=C8)Br)C(=O)N(C6=O)C9=CC=C(C=C9)Br)[N+](=O)[O-]
> <PUBCHEM_OPENEYE_ISO_SMILES>
C1=CC=C(C=C1)N2C3=CC=CC=C3C4=CC5(C6C(C42C7C5C(=O)N(C7=O)C8=CC=C(C=C8)Br)C(=O)N(C6=O)C9=CC=C(C=C9)Br)[N+](=O)[O-]
> <PUBCHEM_CACTVS_TPSA>
124
> <PUBCHEM_MONOISOTOPIC_WEIGHT>
763.99061
> <PUBCHEM_TOTAL_CHARGE>
0
> <PUBCHEM_HEAVY_ATOM_COUNT>
48
> <PUBCHEM_ATOM_DEF_STEREO_COUNT>
0
> <PUBCHEM_ATOM_UDEF_STEREO_COUNT>
4
> <PUBCHEM_BOND_DEF_STEREO_COUNT>
0
> <PUBCHEM_BOND_UDEF_STEREO_COUNT>
0
> <PUBCHEM_ISOTOPIC_ATOM_COUNT>
0
> <PUBCHEM_COMPONENT_COUNT>
1
> <PUBCHEM_CACTVS_TAUTO_COUNT>
-1
> <PUBCHEM_COORDINATE_TYPE>
1
5
255
> <PUBCHEM_BONDANNOTATIONS>
15  21  3
16  22  3
17  23  3
18  24  3
25  26  8
25  28  8
26  29  8
27  32  8
27  33  8
28  34  8
29  35  8
30  36  8
30  38  8
31  37  8
31  39  8
32  40  8
33  41  8
34  35  8
36  43  8
37  44  8
38  45  8
39  46  8
40  42  8
41  42  8
43  47  8
44  48  8
45  47  8
46  48  8
$$$$
