500004
  -OEChem-10302200282D
 45 47  0     1  0  0  0  0  0999 V2000
    5.2884    0.0000    0.0000 P   0  3  0  0  0  0  0  0  0  0  0  0
    2.5826   -0.3008    0.0000 O   0  0  0  0  0  0  0  0  0  0  0  0
    4.2884    0.0000    0.0000 C   0  0  0  0  0  0  0  0  0  0  0  0
    5.2884   -1.0000    0.0000 C   0  0  0  0  0  0  0  0  0  0  0  0
    5.2884    1.0000    0.0000 C   0  0  0  0  0  0  0  0  0  0  0  0
    6.2884    0.0000    0.0000 C   0  0  0  0  0  0  0  0  0  0  0  0
    3.3486    0.3420    0.0000 C   0  0  3  0  0  0  0  0  0  0  0  0
    4.4223   -1.5000    0.0000 C   0  0  0  0  0  0  0  0  0  0  0  0
    6.1544    1.5000    0.0000 C   0  0  0  0  0  0  0  0  0  0  0  0
    6.7884   -0.8660    0.0000 C   0  0  0  0  0  0  0  0  0  0  0  0
    6.1544   -1.5000    0.0000 C   0  0  0  0  0  0  0  0  0  0  0  0
    4.4223    1.5000    0.0000 C   0  0  0  0  0  0  0  0  0  0  0  0
    6.7884    0.8660    0.0000 C   0  0  0  0  0  0  0  0  0  0  0  0
    3.1750    1.3268    0.0000 C   0  0  0  0  0  0  0  0  0  0  0  0
    4.4223   -2.5000    0.0000 C   0  0  0  0  0  0  0  0  0  0  0  0
    6.1544    2.5000    0.0000 C   0  0  0  0  0  0  0  0  0  0  0  0
    7.7884   -0.8660    0.0000 C   0  0  0  0  0  0  0  0  0  0  0  0
    6.1544   -2.5000    0.0000 C   0  0  0  0  0  0  0  0  0  0  0  0
    4.4223    2.5000    0.0000 C   0  0  0  0  0  0  0  0  0  0  0  0
    7.7884    0.8660    0.0000 C   0  0  0  0  0  0  0  0  0  0  0  0
    5.2884   -3.0000    0.0000 C   0  0  0  0  0  0  0  0  0  0  0  0
    5.2884    3.0000    0.0000 C   0  0  0  0  0  0  0  0  0  0  0  0
    8.2884    0.0000    0.0000 C   0  0  0  0  0  0  0  0  0  0  0  0
    3.8629   -0.4510    0.0000 H   0  0  0  0  0  0  0  0  0  0  0  0
    4.3960    0.6106    0.0000 H   0  0  0  0  0  0  0  0  0  0  0  0
    2.7660    0.5541    0.0000 H   0  0  0  0  0  0  0  0  0  0  0  0
    3.8854   -1.1900    0.0000 H   0  0  0  0  0  0  0  0  0  0  0  0
    6.6913    1.1900    0.0000 H   0  0  0  0  0  0  0  0  0  0  0  0
    6.4784   -1.4030    0.0000 H   0  0  0  0  0  0  0  0  0  0  0  0
    6.6913   -1.1900    0.0000 H   0  0  0  0  0  0  0  0  0  0  0  0
    3.8854    1.1900    0.0000 H   0  0  0  0  0  0  0  0  0  0  0  0
    6.4784    1.4030    0.0000 H   0  0  0  0  0  0  0  0  0  0  0  0
    3.7856    1.4345    0.0000 H   0  0  0  0  0  0  0  0  0  0  0  0
    3.0673    1.9374    0.0000 H   0  0  0  0  0  0  0  0  0  0  0  0
    2.5644    1.2192    0.0000 H   0  0  0  0  0  0  0  0  0  0  0  0
    2.0000   -0.0887    0.0000 H   0  0  0  0  0  0  0  0  0  0  0  0
    3.8854   -2.8100    0.0000 H   0  0  0  0  0  0  0  0  0  0  0  0
    6.6913    2.8100    0.0000 H   0  0  0  0  0  0  0  0  0  0  0  0
    8.0984   -1.4030    0.0000 H   0  0  0  0  0  0  0  0  0  0  0  0
    6.6913   -2.8100    0.0000 H   0  0  0  0  0  0  0  0  0  0  0  0
    3.8854    2.8100    0.0000 H   0  0  0  0  0  0  0  0  0  0  0  0
    8.0984    1.4030    0.0000 H   0  0  0  0  0  0  0  0  0  0  0  0
    5.2884   -3.6200    0.0000 H   0  0  0  0  0  0  0  0  0  0  0  0
    5.2884    3.6200    0.0000 H   0  0  0  0  0  0  0  0  0  0  0  0
    8.9084   -0.0000    0.0000 H   0  0  0  0  0  0  0  0  0  0  0  0
  1  3  1  0  0  0  0
  1  4  1  0  0  0  0
  1  5  1  0  0  0  0
  1  6  1  0  0  0  0
  2  7  1  0  0  0  0
  2 36  1  0  0  0  0
  3  7  1  0  0  0  0
  3 24  1  0  0  0  0
  3 25  1  0  0  0  0
  4  8  2  0  0  0  0
  4 11  1  0  0  0  0
  5  9  2  0  0  0  0
  5 12  1  0  0  0  0
  6 10  2  0  0  0  0
  6 13  1  0  0  0  0
  7 14  1  0  0  0  0
  7 26  1  0  0  0  0
  8 15  1  0  0  0  0
  8 27  1  0  0  0  0
  9 16  1  0  0  0  0
  9 28  1  0  0  0  0
 10 17  1  0  0  0  0
 10 29  1  0  0  0  0
 11 18  2  0  0  0  0
 11 30  1  0  0  0  0
 12 19  2  0  0  0  0
 12 31  1  0  0  0  0
 13 20  2  0  0  0  0
 13 32  1  0  0  0  0
 14 33  1  0  0  0  0
 14 34  1  0  0  0  0
 14 35  1  0  0  0  0
 15 21  2  0  0  0  0
 15 37  1  0  0  0  0
 16 22  2  0  0  0  0
 16 38  1  0  0  0  0
 17 23  2  0  0  0  0
 17 39  1  0  0  0  0
 18 21  1  0  0  0  0
 18 40  1  0  0  0  0
 19 22  1  0  0  0  0
 19 41  1  0  0  0  0
 20 23  1  0  0  0  0
 20 42  1  0  0  0  0
 21 43  1  0  0  0  0
 22 44  1  0  0  0  0
 23 45  1  0  0  0  0
M  CHG  1   1   1
M  END
> <PUBCHEM_COMPOUND_CID>
500004
> <PUBCHEM_COMPOUND_CANONICALIZED>
1
> <PUBCHEM_CACTVS_COMPLEXITY>
292
> <PUBCHEM_CACTVS_HBOND_ACCEPTOR>
1
> <PUBCHEM_CACTVS_HBOND_DONOR>
1
> <PUBCHEM_CACTVS_ROTATABLE_BOND>
5
> <PUBCHEM_CACTVS_SUBSKEYS>
AAADceB4IAIAAAAAAAAAAAAAAAAAAAAAAAAwYMAAAAAAAAABUAAAGggACAAACBSokAIyAIAAAiCAACBCAAACAAAgAAAIiAAAAIgIMCKAERCAIAAggAAIiAcAAAAAAAAAAAAAAAAAAAAAAAAAAAAAAAAAAA==
> <PUBCHEM_IUPAC_OPENEYE_NAME>
2-hydroxypropyl(triphenyl)phosphonium
> <PUBCHEM_IUPAC_CAS_NAME>
2-hydroxypropyl(triphenyl)phosphonium
> <PUBCHEM_IUPAC_NAME_MARKUP>
2-hydroxypropyl(triphenyl)phosphanium
> <PUBCHEM_IUPAC_NAME>
2-hydroxypropyl(triphenyl)phosphanium
> <PUBCHEM_IUPAC_SYSTEMATIC_NAME>
2-oxidanylpropyl(triphenyl)phosphanium
> <PUBCHEM_IUPAC_TRADITIONAL_NAME>
2-hydroxypropyl(triphenyl)phosphonium
> <PUBCHEM_IUPAC_INCHI>
InChI=1S/C21H22OP/c1-18(22)17-23(19-11-5-2-6-12-19,20-13-7-3-8-14-20)21-15-9-4-10-16-21/h2-16,18,22H,17H2,1H3/q+1
> <PUBCHEM_IUPAC_INCHIKEY>
GWIVKYPOQRMFCN-UHFFFAOYSA-N
> <PUBCHEM_XLOGP3_AA>
4.4
> <PUBCHEM_EXACT_MASS>
321.140827319
> <PUBCHEM_MOLECULAR_FORMULA>
C21H22OP+
> <PUBCHEM_MOLECULAR_WEIGHT>
321.4
> <PUBCHEM_OPENEYE_CAN_SMILES>
CC(C[P+](C1=CC=CC=C1)(C2=CC=CC=C2)C3=CC=CC=C3)O
> <PUBCHEM_OPENEYE_ISO_SMILES>
CC(C[P+](C1=CC=CC=C1)(C2=CC=CC=C2)C3=CC=CC=C3)O
> <PUBCHEM_CACTVS_TPSA>
20.2
> <PUBCHEM_MONOISOTOPIC_WEIGHT>
321.140827319
> <PUBCHEM_TOTAL_CHARGE>
1
> <PUBCHEM_HEAVY_ATOM_COUNT>
23
> <PUBCHEM_ATOM_DEF_STEREO_COUNT>
0
> <PUBCHEM_ATOM_UDEF_STEREO_COUNT>
1
> <PUBCHEM_BOND_DEF_STEREO_COUNT>
0
> <PUBCHEM_BOND_UDEF_STEREO_COUNT>
0
> <PUBCHEM_ISOTOPIC_ATOM_COUNT>
0
> <PUBCHEM_COMPONENT_COUNT>
1
> <PUBCHEM_CACTVS_TAUTO_COUNT>
1
> <PUBCHEM_COORDINATE_TYPE>
1
5
255
> <PUBCHEM_BONDANNOTATIONS>
10  17  8
11  18  8
12  19  8
13  20  8
15  21  8
16  22  8
17  23  8
18  21  8
19  22  8
7  2  3
20  23  8
4  11  8
4  8  8
5  12  8
5  9  8
6  10  8
6  13  8
8  15  8
9  16  8
$$$$
