500026
  -OEChem-10302200282D
 34 36  0     1  0  0  0  0  0999 V2000
    6.1346    0.8919    0.0000 O   0  0  0  0  0  0  0  0  0  0  0  0
    8.4806   -0.2000    0.0000 O   0  0  0  0  0  0  0  0  0  0  0  0
    8.4843    1.9756    0.0000 O   0  0  0  0  0  0  0  0  0  0  0  0
    7.0868    3.3934    0.0000 O   0  0  0  0  0  0  0  0  0  0  0  0
    2.0000   -1.1734    0.0000 O   0  0  0  0  0  0  0  0  0  0  0  0
    6.4103   -0.8687    0.0000 N   0  0  0  0  0  0  0  0  0  0  0  0
    6.4103   -2.4782    0.0000 N   0  0  0  0  0  0  0  0  0  0  0  0
    4.5981   -0.6734    0.0000 N   0  0  0  0  0  0  0  0  0  0  0  0
    3.7320   -2.1734    0.0000 N   0  0  0  0  0  0  0  0  0  0  0  0
    4.5981   -3.6734    0.0000 N   0  0  0  0  0  0  0  0  0  0  0  0
    7.6726    0.3892    0.0000 C   0  0  1  0  0  0  0  0  0  0  0  0
    6.7210    0.0818    0.0000 C   0  0  1  0  0  0  0  0  0  0  0  0
    7.6743    1.3892    0.0000 C   0  0  1  0  0  0  0  0  0  0  0  0
    6.7238    1.6999    0.0000 C   0  0  1  0  0  0  0  0  0  0  0  0
    6.4164    2.6514    0.0000 C   0  0  0  0  0  0  0  0  0  0  0  0
    5.4641   -1.1734    0.0000 C   0  0  0  0  0  0  0  0  0  0  0  0
    6.9939   -1.6734    0.0000 C   0  0  0  0  0  0  0  0  0  0  0  0
    5.4641   -2.1734    0.0000 C   0  0  0  0  0  0  0  0  0  0  0  0
    4.5981   -2.6734    0.0000 C   0  0  0  0  0  0  0  0  0  0  0  0
    3.7320   -1.1734    0.0000 C   0  0  0  0  0  0  0  0  0  0  0  0
    2.8660   -0.6734    0.0000 C   0  0  0  0  0  0  0  0  0  0  0  0
    8.2255    0.6697    0.0000 H   0  0  0  0  0  0  0  0  0  0  0  0
    6.1085   -0.0141    0.0000 H   0  0  0  0  0  0  0  0  0  0  0  0
    8.2262    1.1068    0.0000 H   0  0  0  0  0  0  0  0  0  0  0  0
    6.1116    1.7979    0.0000 H   0  0  0  0  0  0  0  0  0  0  0  0
    6.0356    3.1407    0.0000 H   0  0  0  0  0  0  0  0  0  0  0  0
    5.8685    2.3613    0.0000 H   0  0  0  0  0  0  0  0  0  0  0  0
    9.0474    0.0512    0.0000 H   0  0  0  0  0  0  0  0  0  0  0  0
    9.0503    1.7224    0.0000 H   0  0  0  0  0  0  0  0  0  0  0  0
    7.6139   -1.6734    0.0000 H   0  0  0  0  0  0  0  0  0  0  0  0
    6.8963    3.9834    0.0000 H   0  0  0  0  0  0  0  0  0  0  0  0
    4.0611   -3.9834    0.0000 H   0  0  0  0  0  0  0  0  0  0  0  0
    5.1350   -3.9834    0.0000 H   0  0  0  0  0  0  0  0  0  0  0  0
    2.8660   -0.0534    0.0000 H   0  0  0  0  0  0  0  0  0  0  0  0
  1 12  1  0  0  0  0
  1 14  1  0  0  0  0
 11  2  1  1  0  0  0
  2 28  1  0  0  0  0
 13  3  1  1  0  0  0
  3 29  1  0  0  0  0
  4 15  1  0  0  0  0
  4 31  1  0  0  0  0
  5 21  2  0  0  0  0
 12  6  1  6  0  0  0
  6 16  1  0  0  0  0
  6 17  1  0  0  0  0
  7 17  2  0  0  0  0
  7 18  1  0  0  0  0
  8 16  2  0  0  0  0
  8 20  1  0  0  0  0
  9 19  1  0  0  0  0
  9 20  2  0  0  0  0
 10 19  1  0  0  0  0
 10 32  1  0  0  0  0
 10 33  1  0  0  0  0
 11 12  1  0  0  0  0
 11 13  1  0  0  0  0
 11 22  1  0  0  0  0
 12 23  1  0  0  0  0
 13 14  1  0  0  0  0
 13 24  1  0  0  0  0
 14 15  1  6  0  0  0
 14 25  1  0  0  0  0
 15 26  1  0  0  0  0
 15 27  1  0  0  0  0
 16 18  1  0  0  0  0
 17 30  1  0  0  0  0
 18 19  2  0  0  0  0
 20 21  1  0  0  0  0
 21 34  1  0  0  0  0
M  END
> <PUBCHEM_COMPOUND_CID>
500026
> <PUBCHEM_COMPOUND_CANONICALIZED>
1
> <PUBCHEM_CACTVS_COMPLEXITY>
401
> <PUBCHEM_CACTVS_HBOND_ACCEPTOR>
9
> <PUBCHEM_CACTVS_HBOND_DONOR>
4
> <PUBCHEM_CACTVS_ROTATABLE_BOND>
3
> <PUBCHEM_CACTVS_SUBSKEYS>
AAADccBzuAAAAAAAAAAAAAAAAAAAAWJAAAAsAAAAAAAAAFgB+AAAHgAQCAAACBzhlwYF8L9MFgCoAQ5x5ACAgC0TEKABUCC4VBCDWAJAyGAeRAgPAALTACDwMAIAAAAAAAAAAAAAAAAAAAAAAAAAAAAAAA==
> <PUBCHEM_IUPAC_OPENEYE_NAME>
6-amino-9-[(2R,3R,4S,5R)-3,4-dihydroxy-5-(hydroxymethyl)tetrahydrofuran-2-yl]purine-2-carbaldehyde
> <PUBCHEM_IUPAC_CAS_NAME>
6-amino-9-[(2R,3R,4S,5R)-3,4-dihydroxy-5-(hydroxymethyl)-2-oxolanyl]-2-purinecarboxaldehyde
> <PUBCHEM_IUPAC_NAME_MARKUP>
6-amino-9-[(2<I>R</I>,3<I>R</I>,4<I>S</I>,5<I>R</I>)-3,4-dihydroxy-5-(hydroxymethyl)oxolan-2-yl]purine-2-carbaldehyde
> <PUBCHEM_IUPAC_NAME>
6-amino-9-[(2R,3R,4S,5R)-3,4-dihydroxy-5-(hydroxymethyl)oxolan-2-yl]purine-2-carbaldehyde
> <PUBCHEM_IUPAC_SYSTEMATIC_NAME>
6-azanyl-9-[(2R,3R,4S,5R)-5-(hydroxymethyl)-3,4-bis(oxidanyl)oxolan-2-yl]purine-2-carbaldehyde
> <PUBCHEM_IUPAC_TRADITIONAL_NAME>
6-amino-9-[(2R,3R,4S,5R)-3,4-dihydroxy-5-methylol-tetrahydrofuran-2-yl]purine-2-carbaldehyde
> <PUBCHEM_IUPAC_INCHI>
InChI=1S/C11H13N5O5/c12-9-6-10(15-5(2-18)14-9)16(3-13-6)11-8(20)7(19)4(1-17)21-11/h2-4,7-8,11,17,19-20H,1H2,(H2,12,14,15)/t4-,7-,8-,11-/m1/s1
> <PUBCHEM_IUPAC_INCHIKEY>
BYSBRXNVNZVSLD-TZQXKBMNSA-N
> <PUBCHEM_XLOGP3>
-1.3
> <PUBCHEM_EXACT_MASS>
295.09166853
> <PUBCHEM_MOLECULAR_FORMULA>
C11H13N5O5
> <PUBCHEM_MOLECULAR_WEIGHT>
295.25
> <PUBCHEM_OPENEYE_CAN_SMILES>
C1=NC2=C(N=C(N=C2N1C3C(C(C(O3)CO)O)O)C=O)N
> <PUBCHEM_OPENEYE_ISO_SMILES>
C1=NC2=C(N=C(N=C2N1[C@H]3[C@@H]([C@@H]([C@H](O3)CO)O)O)C=O)N
> <PUBCHEM_CACTVS_TPSA>
157
> <PUBCHEM_MONOISOTOPIC_WEIGHT>
295.09166853
> <PUBCHEM_TOTAL_CHARGE>
0
> <PUBCHEM_HEAVY_ATOM_COUNT>
21
> <PUBCHEM_ATOM_DEF_STEREO_COUNT>
4
> <PUBCHEM_ATOM_UDEF_STEREO_COUNT>
0
> <PUBCHEM_BOND_DEF_STEREO_COUNT>
0
> <PUBCHEM_BOND_UDEF_STEREO_COUNT>
0
> <PUBCHEM_ISOTOPIC_ATOM_COUNT>
0
> <PUBCHEM_COMPONENT_COUNT>
1
> <PUBCHEM_CACTVS_TAUTO_COUNT>
3
> <PUBCHEM_COORDINATE_TYPE>
1
5
255
> <PUBCHEM_BONDANNOTATIONS>
14  15  6
16  18  8
18  19  8
11  2  5
13  3  5
12  6  6
6  16  8
6  17  8
7  17  8
7  18  8
8  16  8
8  20  8
9  19  8
9  20  8
$$$$
