500055
  -OEChem-10302200282D
 85 88  0     1  0  0  0  0  0999 V2000
    6.8663   -3.1894    0.0000 O   0  0  0  0  0  0  0  0  0  0  0  0
    6.0061   -1.6860    0.0000 O   0  0  0  0  0  0  0  0  0  0  0  0
    2.5381   -2.6727    0.0000 O   0  0  0  0  0  0  0  0  0  0  0  0
    3.3984   -4.1760    0.0000 O   0  0  0  0  0  0  0  0  0  0  0  0
   12.2594   -0.1370    0.0000 C   0  0  3  0  0  0  0  0  0  0  0  0
   12.2594   -1.1370    0.0000 C   0  0  3  0  0  0  0  0  0  0  0  0
   11.3934   -1.6370    0.0000 C   0  0  3  0  0  0  0  0  0  0  0  0
   10.5273   -1.1370    0.0000 C   0  0  3  0  0  0  0  0  0  0  0  0
   13.2056    0.1677    0.0000 C   0  0  3  0  0  0  0  0  0  0  0  0
   11.3934    0.3630    0.0000 C   0  0  0  0  0  0  0  0  0  0  0  0
    9.6173   -1.6439    0.0000 C   0  0  3  0  0  0  0  0  0  0  0  0
   13.2056   -1.4418    0.0000 C   0  0  0  0  0  0  0  0  0  0  0  0
   10.5273   -0.1370    0.0000 C   0  0  0  0  0  0  0  0  0  0  0  0
   13.7892   -0.6370    0.0000 C   0  0  0  0  0  0  0  0  0  0  0  0
   11.4094   -2.6785    0.0000 C   0  0  0  0  0  0  0  0  0  0  0  0
   13.5163    1.1182    0.0000 C   0  0  3  0  0  0  0  0  0  0  0  0
   12.2594    0.8630    0.0000 C   0  0  0  0  0  0  0  0  0  0  0  0
    9.6093   -2.6855    0.0000 C   0  0  0  0  0  0  0  0  0  0  0  0
    8.6905   -1.0798    0.0000 C   0  0  0  0  0  0  0  0  0  0  0  0
   10.5114   -3.2063    0.0000 C   0  0  0  0  0  0  0  0  0  0  0  0
    9.6250   -0.6439    0.0000 C   0  0  0  0  0  0  0  0  0  0  0  0
    8.6739   -3.2352    0.0000 C   0  0  0  0  0  0  0  0  0  0  0  0
    7.7426   -1.6077    0.0000 C   0  0  0  0  0  0  0  0  0  0  0  0
   14.4948    1.3244    0.0000 C   0  0  0  0  0  0  0  0  0  0  0  0
    7.7342   -2.6927    0.0000 C   0  0  3  0  0  0  0  0  0  0  0  0
   12.8484    1.8625    0.0000 C   0  0  0  0  0  0  0  0  0  0  0  0
   14.8054    2.2750    0.0000 C   0  0  0  0  0  0  0  0  0  0  0  0
   15.7839    2.4812    0.0000 C   0  0  0  0  0  0  0  0  0  0  0  0
   16.0946    3.4317    0.0000 C   0  0  0  0  0  0  0  0  0  0  0  0
    6.0022   -2.6860    0.0000 C   0  0  0  0  0  0  0  0  0  0  0  0
   17.0731    3.6379    0.0000 C   0  0  0  0  0  0  0  0  0  0  0  0
   15.4268    4.1760    0.0000 C   0  0  0  0  0  0  0  0  0  0  0  0
    5.1343   -3.1827    0.0000 C   0  0  0  0  0  0  0  0  0  0  0  0
    4.2702   -2.6794    0.0000 C   0  0  0  0  0  0  0  0  0  0  0  0
    3.4022   -3.1760    0.0000 C   0  0  0  0  0  0  0  0  0  0  0  0
   12.3250   -1.7536    0.0000 H   0  0  0  0  0  0  0  0  0  0  0  0
   11.9327   -1.9429    0.0000 H   0  0  0  0  0  0  0  0  0  0  0  0
   11.0643   -0.8270    0.0000 H   0  0  0  0  0  0  0  0  0  0  0  0
   13.8181    0.2639    0.0000 H   0  0  0  0  0  0  0  0  0  0  0  0
   11.7919    0.8379    0.0000 H   0  0  0  0  0  0  0  0  0  0  0  0
   10.9948    0.8379    0.0000 H   0  0  0  0  0  0  0  0  0  0  0  0
   12.9546   -2.0087    0.0000 H   0  0  0  0  0  0  0  0  0  0  0  0
   13.7430   -1.7510    0.0000 H   0  0  0  0  0  0  0  0  0  0  0  0
   10.3153    0.4456    0.0000 H   0  0  0  0  0  0  0  0  0  0  0  0
    9.9168   -0.2447    0.0000 H   0  0  0  0  0  0  0  0  0  0  0  0
   14.2501   -1.0518    0.0000 H   0  0  0  0  0  0  0  0  0  0  0  0
   14.2501   -0.2223    0.0000 H   0  0  0  0  0  0  0  0  0  0  0  0
   11.6274   -3.2589    0.0000 H   0  0  0  0  0  0  0  0  0  0  0  0
   12.0186   -2.5630    0.0000 H   0  0  0  0  0  0  0  0  0  0  0  0
   12.9096    0.9904    0.0000 H   0  0  0  0  0  0  0  0  0  0  0  0
   12.8794    0.8630    0.0000 H   0  0  0  0  0  0  0  0  0  0  0  0
   12.2594    1.4830    0.0000 H   0  0  0  0  0  0  0  0  0  0  0  0
   11.6394    0.8630    0.0000 H   0  0  0  0  0  0  0  0  0  0  0  0
    9.0987   -0.6131    0.0000 H   0  0  0  0  0  0  0  0  0  0  0  0
    8.3006   -0.5978    0.0000 H   0  0  0  0  0  0  0  0  0  0  0  0
   10.5138   -3.8263    0.0000 H   0  0  0  0  0  0  0  0  0  0  0  0
   10.2450   -0.6487    0.0000 H   0  0  0  0  0  0  0  0  0  0  0  0
    9.6298   -0.0239    0.0000 H   0  0  0  0  0  0  0  0  0  0  0  0
    9.0050   -0.6391    0.0000 H   0  0  0  0  0  0  0  0  0  0  0  0
    8.2766   -3.7112    0.0000 H   0  0  0  0  0  0  0  0  0  0  0  0
    9.0748   -3.7081    0.0000 H   0  0  0  0  0  0  0  0  0  0  0  0
    7.5380   -1.0225    0.0000 H   0  0  0  0  0  0  0  0  0  0  0  0
    7.1310   -1.7091    0.0000 H   0  0  0  0  0  0  0  0  0  0  0  0
   14.5153    0.7048    0.0000 H   0  0  0  0  0  0  0  0  0  0  0  0
   15.1086    1.2371    0.0000 H   0  0  0  0  0  0  0  0  0  0  0  0
    7.1991   -2.3796    0.0000 H   0  0  0  0  0  0  0  0  0  0  0  0
   13.3099    2.2766    0.0000 H   0  0  0  0  0  0  0  0  0  0  0  0
   12.4344    2.3240    0.0000 H   0  0  0  0  0  0  0  0  0  0  0  0
   12.3870    1.4485    0.0000 H   0  0  0  0  0  0  0  0  0  0  0  0
   14.7849    2.8946    0.0000 H   0  0  0  0  0  0  0  0  0  0  0  0
   14.1916    2.3623    0.0000 H   0  0  0  0  0  0  0  0  0  0  0  0
   15.8045    1.8615    0.0000 H   0  0  0  0  0  0  0  0  0  0  0  0
   16.3978    2.3938    0.0000 H   0  0  0  0  0  0  0  0  0  0  0  0
   16.2872    4.0210    0.0000 H   0  0  0  0  0  0  0  0  0  0  0  0
   17.2010    3.0312    0.0000 H   0  0  0  0  0  0  0  0  0  0  0  0
   17.6798    3.7658    0.0000 H   0  0  0  0  0  0  0  0  0  0  0  0
   16.9452    4.2446    0.0000 H   0  0  0  0  0  0  0  0  0  0  0  0
   15.8882    4.5901    0.0000 H   0  0  0  0  0  0  0  0  0  0  0  0
   15.0127    4.6375    0.0000 H   0  0  0  0  0  0  0  0  0  0  0  0
   14.9653    3.7619    0.0000 H   0  0  0  0  0  0  0  0  0  0  0  0
    4.7339   -3.6561    0.0000 H   0  0  0  0  0  0  0  0  0  0  0  0
    5.5310   -3.6592    0.0000 H   0  0  0  0  0  0  0  0  0  0  0  0
    4.6705   -2.2059    0.0000 H   0  0  0  0  0  0  0  0  0  0  0  0
    3.8735   -2.2029    0.0000 H   0  0  0  0  0  0  0  0  0  0  0  0
    2.0000   -2.9806    0.0000 H   0  0  0  0  0  0  0  0  0  0  0  0
  1 25  1  0  0  0  0
  1 30  1  0  0  0  0
  2 30  2  0  0  0  0
  3 35  1  0  0  0  0
  3 85  1  0  0  0  0
  4 35  2  0  0  0  0
  5  6  1  0  0  0  0
  5  9  1  0  0  0  0
  5 10  1  0  0  0  0
  5 17  1  0  0  0  0
  6  7  1  0  0  0  0
  6 12  1  0  0  0  0
  6 36  1  0  0  0  0
  7  8  1  0  0  0  0
  7 15  1  0  0  0  0
  7 37  1  0  0  0  0
  8 11  1  0  0  0  0
  8 13  1  0  0  0  0
  8 38  1  0  0  0  0
  9 14  1  0  0  0  0
  9 16  1  0  0  0  0
  9 39  1  0  0  0  0
 10 13  1  0  0  0  0
 10 40  1  0  0  0  0
 10 41  1  0  0  0  0
 11 18  1  0  0  0  0
 11 19  1  0  0  0  0
 11 21  1  0  0  0  0
 12 14  1  0  0  0  0
 12 42  1  0  0  0  0
 12 43  1  0  0  0  0
 13 44  1  0  0  0  0
 13 45  1  0  0  0  0
 14 46  1  0  0  0  0
 14 47  1  0  0  0  0
 15 20  1  0  0  0  0
 15 48  1  0  0  0  0
 15 49  1  0  0  0  0
 16 24  1  0  0  0  0
 16 26  1  0  0  0  0
 16 50  1  0  0  0  0
 17 51  1  0  0  0  0
 17 52  1  0  0  0  0
 17 53  1  0  0  0  0
 18 20  2  0  0  0  0
 18 22  1  0  0  0  0
 19 23  1  0  0  0  0
 19 54  1  0  0  0  0
 19 55  1  0  0  0  0
 20 56  1  0  0  0  0
 21 57  1  0  0  0  0
 21 58  1  0  0  0  0
 21 59  1  0  0  0  0
 22 25  1  0  0  0  0
 22 60  1  0  0  0  0
 22 61  1  0  0  0  0
 23 25  1  0  0  0  0
 23 62  1  0  0  0  0
 23 63  1  0  0  0  0
 24 27  1  0  0  0  0
 24 64  1  0  0  0  0
 24 65  1  0  0  0  0
 25 66  1  0  0  0  0
 26 67  1  0  0  0  0
 26 68  1  0  0  0  0
 26 69  1  0  0  0  0
 27 28  1  0  0  0  0
 27 70  1  0  0  0  0
 27 71  1  0  0  0  0
 28 29  1  0  0  0  0
 28 72  1  0  0  0  0
 28 73  1  0  0  0  0
 29 31  1  0  0  0  0
 29 32  1  0  0  0  0
 29 74  1  0  0  0  0
 30 33  1  0  0  0  0
 31 75  1  0  0  0  0
 31 76  1  0  0  0  0
 31 77  1  0  0  0  0
 32 78  1  0  0  0  0
 32 79  1  0  0  0  0
 32 80  1  0  0  0  0
 33 34  1  0  0  0  0
 33 81  1  0  0  0  0
 33 82  1  0  0  0  0
 34 35  1  0  0  0  0
 34 83  1  0  0  0  0
 34 84  1  0  0  0  0
M  END
> <PUBCHEM_COMPOUND_CID>
500055
> <PUBCHEM_COMPOUND_CANONICALIZED>
1
> <PUBCHEM_CACTVS_COMPLEXITY>
815
> <PUBCHEM_CACTVS_HBOND_ACCEPTOR>
4
> <PUBCHEM_CACTVS_HBOND_DONOR>
1
> <PUBCHEM_CACTVS_ROTATABLE_BOND>
10
> <PUBCHEM_CACTVS_SUBSKEYS>
AAADcfB4OAAAAAAAAAAAAAAAAAAAAYAAAAAwYIAAAAAAAGCAAAAAGgAACAAADxSggAICCAAABgCIAiDSCAAAAAAgAAAACAEAAAgAABIAAQACQAAEwAAIAAPDwPAPgAAAAAAAAADAAAQAACAAAQAACAAAAA==
> <PUBCHEM_IUPAC_OPENEYE_NAME>
4-[[17-(1,5-dimethylhexyl)-10,13-dimethyl-2,3,4,7,8,9,11,12,14,15,16,17-dodecahydro-1H-cyclopenta[a]phenanthren-3-yl]oxy]-4-oxo-butanoic acid
> <PUBCHEM_IUPAC_CAS_NAME>
4-[[10,13-dimethyl-17-(6-methylheptan-2-yl)-2,3,4,7,8,9,11,12,14,15,16,17-dodecahydro-1H-cyclopenta[a]phenanthren-3-yl]oxy]-4-oxobutanoic acid
> <PUBCHEM_IUPAC_NAME_MARKUP>
4-[[10,13-dimethyl-17-(6-methylheptan-2-yl)-2,3,4,7,8,9,11,12,14,15,16,17-dodecahydro-1<I>H</I>-cyclopenta[a]phenanthren-3-yl]oxy]-4-oxobutanoic acid
> <PUBCHEM_IUPAC_NAME>
4-[[10,13-dimethyl-17-(6-methylheptan-2-yl)-2,3,4,7,8,9,11,12,14,15,16,17-dodecahydro-1H-cyclopenta[a]phenanthren-3-yl]oxy]-4-oxobutanoic acid
> <PUBCHEM_IUPAC_SYSTEMATIC_NAME>
4-[[10,13-dimethyl-17-(6-methylheptan-2-yl)-2,3,4,7,8,9,11,12,14,15,16,17-dodecahydro-1H-cyclopenta[a]phenanthren-3-yl]oxy]-4-oxidanylidene-butanoic acid
> <PUBCHEM_IUPAC_TRADITIONAL_NAME>
4-[[17-(1,5-dimethylhexyl)-10,13-dimethyl-2,3,4,7,8,9,11,12,14,15,16,17-dodecahydro-1H-cyclopenta[a]phenanthren-3-yl]oxy]-4-keto-butyric acid
> <PUBCHEM_IUPAC_INCHI>
InChI=1S/C31H50O4/c1-20(2)7-6-8-21(3)25-11-12-26-24-10-9-22-19-23(35-29(34)14-13-28(32)33)15-17-30(22,4)27(24)16-18-31(25,26)5/h9,20-21,23-27H,6-8,10-19H2,1-5H3,(H,32,33)
> <PUBCHEM_IUPAC_INCHIKEY>
WLNARFZDISHUGS-UHFFFAOYSA-N
> <PUBCHEM_XLOGP3_AA>
8.5
> <PUBCHEM_EXACT_MASS>
486.37091007
> <PUBCHEM_MOLECULAR_FORMULA>
C31H50O4
> <PUBCHEM_MOLECULAR_WEIGHT>
486.7
> <PUBCHEM_OPENEYE_CAN_SMILES>
CC(C)CCCC(C)C1CCC2C1(CCC3C2CC=C4C3(CCC(C4)OC(=O)CCC(=O)O)C)C
> <PUBCHEM_OPENEYE_ISO_SMILES>
CC(C)CCCC(C)C1CCC2C1(CCC3C2CC=C4C3(CCC(C4)OC(=O)CCC(=O)O)C)C
> <PUBCHEM_CACTVS_TPSA>
63.6
> <PUBCHEM_MONOISOTOPIC_WEIGHT>
486.37091007
> <PUBCHEM_TOTAL_CHARGE>
0
> <PUBCHEM_HEAVY_ATOM_COUNT>
35
> <PUBCHEM_ATOM_DEF_STEREO_COUNT>
0
> <PUBCHEM_ATOM_UDEF_STEREO_COUNT>
8
> <PUBCHEM_BOND_DEF_STEREO_COUNT>
0
> <PUBCHEM_BOND_UDEF_STEREO_COUNT>
0
> <PUBCHEM_ISOTOPIC_ATOM_COUNT>
0
> <PUBCHEM_COMPONENT_COUNT>
1
> <PUBCHEM_CACTVS_TAUTO_COUNT>
1
> <PUBCHEM_COORDINATE_TYPE>
1
5
255
> <PUBCHEM_BONDANNOTATIONS>
25  1  3
11  21  3
16  26  3
5  17  3
6  12  3
7  15  3
8  13  3
9  14  3
$$$$
