500093
  -OEChem-10302200282D
 60 63  0     1  0  0  0  0  0999 V2000
    4.1542    0.5843    0.0000 O   0  0  0  0  0  0  0  0  0  0  0  0
    5.2403    3.0614    0.0000 O   0  0  0  0  0  0  0  0  0  0  0  0
    6.3189   -1.6788    0.0000 O   0  0  0  0  0  0  0  0  0  0  0  0
    8.0431   -1.8437    0.0000 O   0  0  0  0  0  0  0  0  0  0  0  0
    5.7403    0.8707    0.0000 C   0  0  3  0  0  0  0  0  0  0  0  0
    5.6043   -0.1140    0.0000 C   0  0  3  0  0  0  0  0  0  0  0  0
    6.6412    1.3046    0.0000 C   0  0  3  0  0  0  0  0  0  0  0  0
    4.8393    1.3046    0.0000 C   0  0  3  0  0  0  0  0  0  0  0  0
    4.6260   -0.2907    0.0000 C   0  0  3  0  0  0  0  0  0  0  0  0
    6.4141   -0.6834    0.0000 C   0  0  3  0  0  0  0  0  0  0  0  0
    7.4295    0.7058    0.0000 C   0  0  0  0  0  0  0  0  0  0  0  0
    7.3172   -0.2778    0.0000 C   0  0  3  0  0  0  0  0  0  0  0  0
    4.6168    2.2795    0.0000 C   0  0  3  0  0  0  0  0  0  0  0  0
    6.8638    2.2795    0.0000 C   0  0  3  0  0  0  0  0  0  0  0  0
    6.2403    3.0614    0.0000 C   0  0  0  0  0  0  0  0  0  0  0  0
    3.6355   -0.4608    0.0000 C   0  0  0  0  0  0  0  0  0  0  0  0
    3.6251    2.4425    0.0000 C   0  0  0  0  0  0  0  0  0  0  0  0
    8.1245   -0.8679    0.0000 C   0  0  0  0  0  0  0  0  0  0  0  0
    4.3943    3.2544    0.0000 C   0  0  0  0  0  0  0  0  0  0  0  0
    7.8387    2.5020    0.0000 C   0  0  0  0  0  0  0  0  0  0  0  0
    2.7590    1.9327    0.0000 C   0  0  0  0  0  0  0  0  0  0  0  0
    2.7658    0.0428    0.0000 C   0  0  0  0  0  0  0  0  0  0  0  0
    2.4202    0.9865    0.0000 C   0  0  0  0  0  0  0  0  0  0  0  0
    7.1334   -2.2590    0.0000 C   0  0  0  0  0  0  0  0  0  0  0  0
    2.0000   -0.6003    0.0000 C   0  0  0  0  0  0  0  0  0  0  0  0
    7.0383   -3.2544    0.0000 C   0  0  0  0  0  0  0  0  0  0  0  0
    5.7403    1.4907    0.0000 H   0  0  0  0  0  0  0  0  0  0  0  0
    5.4708   -0.7195    0.0000 H   0  0  0  0  0  0  0  0  0  0  0  0
    7.2240    1.5163    0.0000 H   0  0  0  0  0  0  0  0  0  0  0  0
    4.2414    1.4688    0.0000 H   0  0  0  0  0  0  0  0  0  0  0  0
    4.7336   -0.9013    0.0000 H   0  0  0  0  0  0  0  0  0  0  0  0
    6.9180   -1.0446    0.0000 H   0  0  0  0  0  0  0  0  0  0  0  0
    8.0232    0.5271    0.0000 H   0  0  0  0  0  0  0  0  0  0  0  0
    7.7109    1.2583    0.0000 H   0  0  0  0  0  0  0  0  0  0  0  0
    7.8851   -0.0290    0.0000 H   0  0  0  0  0  0  0  0  0  0  0  0
    7.0685    2.8647    0.0000 H   0  0  0  0  0  0  0  0  0  0  0  0
    6.7989    3.3304    0.0000 H   0  0  0  0  0  0  0  0  0  0  0  0
    6.1023    3.6658    0.0000 H   0  0  0  0  0  0  0  0  0  0  0  0
    3.1836   -0.8852    0.0000 H   0  0  0  0  0  0  0  0  0  0  0  0
    3.9119   -1.0158    0.0000 H   0  0  0  0  0  0  0  0  0  0  0  0
    3.8975    2.9995    0.0000 H   0  0  0  0  0  0  0  0  0  0  0  0
    3.1701    2.8637    0.0000 H   0  0  0  0  0  0  0  0  0  0  0  0
    7.7586   -1.3684    0.0000 H   0  0  0  0  0  0  0  0  0  0  0  0
    8.6250   -1.2338    0.0000 H   0  0  0  0  0  0  0  0  0  0  0  0
    8.4904   -0.3674    0.0000 H   0  0  0  0  0  0  0  0  0  0  0  0
    4.9987    3.3924    0.0000 H   0  0  0  0  0  0  0  0  0  0  0  0
    4.2563    3.8589    0.0000 H   0  0  0  0  0  0  0  0  0  0  0  0
    3.7898    3.1165    0.0000 H   0  0  0  0  0  0  0  0  0  0  0  0
    7.9767    1.8976    0.0000 H   0  0  0  0  0  0  0  0  0  0  0  0
    8.4431    2.6400    0.0000 H   0  0  0  0  0  0  0  0  0  0  0  0
    7.7007    3.1065    0.0000 H   0  0  0  0  0  0  0  0  0  0  0  0
    2.6116    2.5349    0.0000 H   0  0  0  0  0  0  0  0  0  0  0  0
    2.1398    1.9648    0.0000 H   0  0  0  0  0  0  0  0  0  0  0  0
    1.8002    0.9843    0.0000 H   0  0  0  0  0  0  0  0  0  0  0  0
    1.6013   -0.1255    0.0000 H   0  0  0  0  0  0  0  0  0  0  0  0
    1.5252   -0.9990    0.0000 H   0  0  0  0  0  0  0  0  0  0  0  0
    2.3987   -1.0750    0.0000 H   0  0  0  0  0  0  0  0  0  0  0  0
    6.4211   -3.1954    0.0000 H   0  0  0  0  0  0  0  0  0  0  0  0
    6.9793   -3.8716    0.0000 H   0  0  0  0  0  0  0  0  0  0  0  0
    7.6555   -3.3135    0.0000 H   0  0  0  0  0  0  0  0  0  0  0  0
  1  8  1  0  0  0  0
  1  9  1  0  0  0  0
  2 13  1  0  0  0  0
  2 15  1  0  0  0  0
  3 10  1  0  0  0  0
  3 24  1  0  0  0  0
  4 24  2  0  0  0  0
  5  6  1  0  0  0  0
  5  7  1  0  0  0  0
  5  8  1  0  0  0  0
  5 27  1  0  0  0  0
  6  9  1  0  0  0  0
  6 10  1  0  0  0  0
  6 28  1  0  0  0  0
  7 11  1  0  0  0  0
  7 14  1  0  0  0  0
  7 29  1  0  0  0  0
  8 13  1  0  0  0  0
  8 30  1  0  0  0  0
  9 16  1  0  0  0  0
  9 31  1  0  0  0  0
 10 12  1  0  0  0  0
 10 32  1  0  0  0  0
 11 12  1  0  0  0  0
 11 33  1  0  0  0  0
 11 34  1  0  0  0  0
 12 18  1  0  0  0  0
 12 35  1  0  0  0  0
 13 17  1  0  0  0  0
 13 19  1  0  0  0  0
 14 15  1  0  0  0  0
 14 20  1  0  0  0  0
 14 36  1  0  0  0  0
 15 37  1  0  0  0  0
 15 38  1  0  0  0  0
 16 22  1  0  0  0  0
 16 39  1  0  0  0  0
 16 40  1  0  0  0  0
 17 21  1  0  0  0  0
 17 41  1  0  0  0  0
 17 42  1  0  0  0  0
 18 43  1  0  0  0  0
 18 44  1  0  0  0  0
 18 45  1  0  0  0  0
 19 46  1  0  0  0  0
 19 47  1  0  0  0  0
 19 48  1  0  0  0  0
 20 49  1  0  0  0  0
 20 50  1  0  0  0  0
 20 51  1  0  0  0  0
 21 23  1  0  0  0  0
 21 52  1  0  0  0  0
 21 53  1  0  0  0  0
 22 23  2  3  0  0  0
 22 25  1  0  0  0  0
 23 54  1  0  0  0  0
 24 26  1  0  0  0  0
 25 55  1  0  0  0  0
 25 56  1  0  0  0  0
 25 57  1  0  0  0  0
 26 58  1  0  0  0  0
 26 59  1  0  0  0  0
 26 60  1  0  0  0  0
M  END
> <PUBCHEM_COMPOUND_CID>
500093
> <PUBCHEM_COMPOUND_CANONICALIZED>
1
> <PUBCHEM_CACTVS_COMPLEXITY>
599
> <PUBCHEM_CACTVS_HBOND_ACCEPTOR>
4
> <PUBCHEM_CACTVS_HBOND_DONOR>
0
> <PUBCHEM_CACTVS_ROTATABLE_BOND>
2
> <PUBCHEM_CACTVS_SUBSKEYS>
AAADcfB4OAAAAAAAAAAAAAAAAAAAASAAAAAwAAAABIAAAEgAAAAAGgAAAAAADVSggAICCAAABACIAiDSCAAAAAAgAAAACAAAAAgBAAIAAQACAAAFwAAKAAPA4PwOgAAAAAAAAADAAAYAADAAAAAAAAAAAA==
> <PUBCHEM_IUPAC_OPENEYE_NAME>
(5,8,11,15-tetramethyl-10,18-dioxatetracyclo[9.7.0.02,7.03,17]octadec-14-en-4-yl) acetate
> <PUBCHEM_IUPAC_CAS_NAME>
acetic acid (5,8,11,15-tetramethyl-10,18-dioxatetracyclo[9.7.0.02,7.03,17]octadec-14-en-4-yl) ester
> <PUBCHEM_IUPAC_NAME_MARKUP>
(5,8,11,15-tetramethyl-10,18-dioxatetracyclo[9.7.0.0<SUP>2,7</SUP>.0<SUP>3,17</SUP>]octadec-14-en-4-yl) acetate
> <PUBCHEM_IUPAC_NAME>
(5,8,11,15-tetramethyl-10,18-dioxatetracyclo[9.7.0.02,7.03,17]octadec-14-en-4-yl) acetate
> <PUBCHEM_IUPAC_SYSTEMATIC_NAME>
(5,8,11,15-tetramethyl-10,18-dioxatetracyclo[9.7.0.02,7.03,17]octadec-14-en-4-yl) ethanoate
> <PUBCHEM_IUPAC_TRADITIONAL_NAME>
acetic acid (5,8,11,15-tetramethyl-10,18-dioxatetracyclo[9.7.0.02,7.03,17]octadec-14-en-4-yl) ester
> <PUBCHEM_IUPAC_INCHI>
InChI=1S/C22H34O4/c1-12-7-6-8-22(5)21-18-16(14(3)11-24-22)10-13(2)20(25-15(4)23)19(18)17(9-12)26-21/h7,13-14,16-21H,6,8-11H2,1-5H3
> <PUBCHEM_IUPAC_INCHIKEY>
MDSDQZGJBVBIFN-UHFFFAOYSA-N
> <PUBCHEM_XLOGP3_AA>
3.7
> <PUBCHEM_EXACT_MASS>
362.24570956
> <PUBCHEM_MOLECULAR_FORMULA>
C22H34O4
> <PUBCHEM_MOLECULAR_WEIGHT>
362.5
> <PUBCHEM_OPENEYE_CAN_SMILES>
CC1CC2C(COC3(CCC=C(CC4C(C2C3O4)C1OC(=O)C)C)C)C
> <PUBCHEM_OPENEYE_ISO_SMILES>
CC1CC2C(COC3(CCC=C(CC4C(C2C3O4)C1OC(=O)C)C)C)C
> <PUBCHEM_CACTVS_TPSA>
44.8
> <PUBCHEM_MONOISOTOPIC_WEIGHT>
362.24570956
> <PUBCHEM_TOTAL_CHARGE>
0
> <PUBCHEM_HEAVY_ATOM_COUNT>
26
> <PUBCHEM_ATOM_DEF_STEREO_COUNT>
0
> <PUBCHEM_ATOM_UDEF_STEREO_COUNT>
9
> <PUBCHEM_BOND_DEF_STEREO_COUNT>
0
> <PUBCHEM_BOND_UDEF_STEREO_COUNT>
1
> <PUBCHEM_ISOTOPIC_ATOM_COUNT>
0
> <PUBCHEM_COMPONENT_COUNT>
1
> <PUBCHEM_CACTVS_TAUTO_COUNT>
-1
> <PUBCHEM_COORDINATE_TYPE>
1
5
255
> <PUBCHEM_BONDANNOTATIONS>
8  1  3
12  18  3
13  19  3
14  20  3
22  23  1
10  3  3
5  7  3
6  10  3
7  11  3
9  16  3
$$$$
