500099
  -OEChem-10302200282D
 80 85  0     1  0  0  0  0  0999 V2000
    8.0319    1.7200    0.0000 O   0  0  0  0  0  0  0  0  0  0  0  0
    4.7950    0.9637    0.0000 O   0  0  0  0  0  0  0  0  0  0  0  0
   10.0622    0.9465    0.0000 O   0  0  0  0  0  0  0  0  0  0  0  0
    9.0465    2.3495    0.0000 O   0  0  0  0  0  0  0  0  0  0  0  0
    2.0000   -2.5886    0.0000 O   0  0  0  0  0  0  0  0  0  0  0  0
   11.9913    0.1461    0.0000 O   0  0  0  0  0  0  0  0  0  0  0  0
   11.9826   -1.6905    0.0000 O   0  0  0  0  0  0  0  0  0  0  0  0
   14.9796   -3.4277    0.0000 O   0  0  0  0  0  0  0  0  0  0  0  0
   12.7582    2.6174    0.0000 N   0  0  0  0  0  0  0  0  0  0  0  0
   13.4841   -0.8271    0.0000 N   0  0  0  0  0  0  0  0  0  0  0  0
   13.6724    3.0226    0.0000 N   0  3  0  0  0  0  0  0  0  0  0  0
   13.4811   -2.5591    0.0000 N   0  0  0  0  0  0  0  0  0  0  0  0
   14.5867    3.4277    0.0000 N   0  5  0  0  0  0  0  0  0  0  0  0
    7.3931    0.4637    0.0000 C   0  0  3  0  0  0  0  0  0  0  0  0
    7.3931   -0.5363    0.0000 C   0  0  3  0  0  0  0  0  0  0  0  0
    6.5271   -1.0363    0.0000 C   0  0  3  0  0  0  0  0  0  0  0  0
    5.6610   -0.5363    0.0000 C   0  0  3  0  0  0  0  0  0  0  0  0
    8.3393    0.7684    0.0000 C   0  0  3  0  0  0  0  0  0  0  0  0
    6.5271    0.9637    0.0000 C   0  0  0  0  0  0  0  0  0  0  0  0
    5.6610    0.4637    0.0000 C   0  0  3  0  0  0  0  0  0  0  0  0
    8.3393   -0.8410    0.0000 C   0  0  0  0  0  0  0  0  0  0  0  0
    4.7510   -1.0431    0.0000 C   0  0  3  0  0  0  0  0  0  0  0  0
    8.9229   -0.0363    0.0000 C   0  0  0  0  0  0  0  0  0  0  0  0
    6.5431   -2.0778    0.0000 C   0  0  0  0  0  0  0  0  0  0  0  0
    7.3931    1.4637    0.0000 C   0  0  0  0  0  0  0  0  0  0  0  0
    5.6451   -2.6056    0.0000 C   0  0  0  0  0  0  0  0  0  0  0  0
    4.7430   -2.0847    0.0000 C   0  0  0  0  0  0  0  0  0  0  0  0
    9.1493    1.3548    0.0000 C   0  0  0  0  0  0  0  0  0  0  0  0
    4.7587   -0.0432    0.0000 C   0  0  0  0  0  0  0  0  0  0  0  0
    3.8242   -0.4791    0.0000 C   0  0  0  0  0  0  0  0  0  0  0  0
    3.8076   -2.6345    0.0000 C   0  0  0  0  0  0  0  0  0  0  0  0
    2.8763   -1.0070    0.0000 C   0  0  0  0  0  0  0  0  0  0  0  0
    2.8680   -2.0920    0.0000 C   0  0  0  0  0  0  0  0  0  0  0  0
   10.8722    1.5329    0.0000 C   0  0  0  0  0  0  0  0  0  0  0  0
   11.7851    1.1246    0.0000 C   0  0  3  0  0  0  0  0  0  0  0  0
   12.6519    1.6231    0.0000 C   0  0  3  0  0  0  0  0  0  0  0  0
   13.3939    0.9527    0.0000 C   0  0  0  0  0  0  0  0  0  0  0  0
   12.9856    0.0398    0.0000 C   0  0  3  0  0  0  0  0  0  0  0  0
   14.4841   -0.8288    0.0000 C   0  0  0  0  0  0  0  0  0  0  0  0
   12.9826   -1.6922    0.0000 C   0  0  0  0  0  0  0  0  0  0  0  0
   14.9826   -1.6957    0.0000 C   0  0  0  0  0  0  0  0  0  0  0  0
   14.4811   -2.5608    0.0000 C   0  0  0  0  0  0  0  0  0  0  0  0
   15.9826   -1.6974    0.0000 C   0  0  0  0  0  0  0  0  0  0  0  0
    7.4587   -1.1528    0.0000 H   0  0  0  0  0  0  0  0  0  0  0  0
    7.0664   -1.3421    0.0000 H   0  0  0  0  0  0  0  0  0  0  0  0
    6.1980   -0.2263    0.0000 H   0  0  0  0  0  0  0  0  0  0  0  0
    6.9256    1.4387    0.0000 H   0  0  0  0  0  0  0  0  0  0  0  0
    6.1285    1.4387    0.0000 H   0  0  0  0  0  0  0  0  0  0  0  0
    5.6610    1.0837    0.0000 H   0  0  0  0  0  0  0  0  0  0  0  0
    8.0883   -1.4079    0.0000 H   0  0  0  0  0  0  0  0  0  0  0  0
    8.8767   -1.1502    0.0000 H   0  0  0  0  0  0  0  0  0  0  0  0
    9.3838   -0.4510    0.0000 H   0  0  0  0  0  0  0  0  0  0  0  0
    9.3838    0.3784    0.0000 H   0  0  0  0  0  0  0  0  0  0  0  0
    6.7612   -2.6582    0.0000 H   0  0  0  0  0  0  0  0  0  0  0  0
    7.1523   -1.9623    0.0000 H   0  0  0  0  0  0  0  0  0  0  0  0
    8.0131    1.4637    0.0000 H   0  0  0  0  0  0  0  0  0  0  0  0
    7.3931    2.0837    0.0000 H   0  0  0  0  0  0  0  0  0  0  0  0
    6.7731    1.4637    0.0000 H   0  0  0  0  0  0  0  0  0  0  0  0
    5.2478   -3.0815    0.0000 H   0  0  0  0  0  0  0  0  0  0  0  0
    6.0460   -3.0784    0.0000 H   0  0  0  0  0  0  0  0  0  0  0  0
    5.3787   -0.0479    0.0000 H   0  0  0  0  0  0  0  0  0  0  0  0
    4.7635    0.5768    0.0000 H   0  0  0  0  0  0  0  0  0  0  0  0
    4.1388   -0.0384    0.0000 H   0  0  0  0  0  0  0  0  0  0  0  0
    3.8361    0.1408    0.0000 H   0  0  0  0  0  0  0  0  0  0  0  0
    8.4476    2.1801    0.0000 H   0  0  0  0  0  0  0  0  0  0  0  0
    4.7950    1.5837    0.0000 H   0  0  0  0  0  0  0  0  0  0  0  0
    3.8100   -3.2544    0.0000 H   0  0  0  0  0  0  0  0  0  0  0  0
    2.3430   -0.6908    0.0000 H   0  0  0  0  0  0  0  0  0  0  0  0
   11.2198    2.0463    0.0000 H   0  0  0  0  0  0  0  0  0  0  0  0
   10.4270    1.9644    0.0000 H   0  0  0  0  0  0  0  0  0  0  0  0
   11.3025    0.7352    0.0000 H   0  0  0  0  0  0  0  0  0  0  0  0
   12.1325    1.9617    0.0000 H   0  0  0  0  0  0  0  0  0  0  0  0
   13.9303    0.6417    0.0000 H   0  0  0  0  0  0  0  0  0  0  0  0
   13.7592    1.4536    0.0000 H   0  0  0  0  0  0  0  0  0  0  0  0
   13.6048    0.0712    0.0000 H   0  0  0  0  0  0  0  0  0  0  0  0
   14.7950   -0.2924    0.0000 H   0  0  0  0  0  0  0  0  0  0  0  0
   13.1702   -3.0955    0.0000 H   0  0  0  0  0  0  0  0  0  0  0  0
   15.9815   -2.3174    0.0000 H   0  0  0  0  0  0  0  0  0  0  0  0
   16.6026   -1.6985    0.0000 H   0  0  0  0  0  0  0  0  0  0  0  0
   15.9837   -1.0774    0.0000 H   0  0  0  0  0  0  0  0  0  0  0  0
  1 18  1  0  0  0  0
  1 65  1  0  0  0  0
  2 20  1  0  0  0  0
  2 66  1  0  0  0  0
  3 28  1  0  0  0  0
  3 34  1  0  0  0  0
  4 28  2  0  0  0  0
  5 33  2  0  0  0  0
  6 35  1  0  0  0  0
  6 38  1  0  0  0  0
  7 40  2  0  0  0  0
  8 42  2  0  0  0  0
  9 11  2  0  0  0  0
  9 36  1  0  0  0  0
 10 38  1  0  0  0  0
 10 39  1  0  0  0  0
 10 40  1  0  0  0  0
 11 13  2  0  0  0  0
 12 40  1  0  0  0  0
 12 42  1  0  0  0  0
 12 77  1  0  0  0  0
 14 15  1  0  0  0  0
 14 18  1  0  0  0  0
 14 19  1  0  0  0  0
 14 25  1  0  0  0  0
 15 16  1  0  0  0  0
 15 21  1  0  0  0  0
 15 44  1  0  0  0  0
 16 17  1  0  0  0  0
 16 24  1  0  0  0  0
 16 45  1  0  0  0  0
 17 20  1  0  0  0  0
 17 22  1  0  0  0  0
 17 46  1  0  0  0  0
 18 23  1  0  0  0  0
 18 28  1  0  0  0  0
 19 20  1  0  0  0  0
 19 47  1  0  0  0  0
 19 48  1  0  0  0  0
 20 49  1  0  0  0  0
 21 23  1  0  0  0  0
 21 50  1  0  0  0  0
 21 51  1  0  0  0  0
 22 27  1  0  0  0  0
 22 29  1  0  0  0  0
 22 30  1  0  0  0  0
 23 52  1  0  0  0  0
 23 53  1  0  0  0  0
 24 26  1  0  0  0  0
 24 54  1  0  0  0  0
 24 55  1  0  0  0  0
 25 56  1  0  0  0  0
 25 57  1  0  0  0  0
 25 58  1  0  0  0  0
 26 27  1  0  0  0  0
 26 59  1  0  0  0  0
 26 60  1  0  0  0  0
 27 31  2  0  0  0  0
 29 61  1  0  0  0  0
 29 62  1  0  0  0  0
 29 63  1  0  0  0  0
 30 32  2  0  0  0  0
 30 64  1  0  0  0  0
 31 33  1  0  0  0  0
 31 67  1  0  0  0  0
 32 33  1  0  0  0  0
 32 68  1  0  0  0  0
 34 35  1  0  0  0  0
 34 69  1  0  0  0  0
 34 70  1  0  0  0  0
 35 36  1  0  0  0  0
 35 71  1  0  0  0  0
 36 37  1  0  0  0  0
 36 72  1  0  0  0  0
 37 38  1  0  0  0  0
 37 73  1  0  0  0  0
 37 74  1  0  0  0  0
 38 75  1  0  0  0  0
 39 41  2  0  0  0  0
 39 76  1  0  0  0  0
 41 42  1  0  0  0  0
 41 43  1  0  0  0  0
 43 78  1  0  0  0  0
 43 79  1  0  0  0  0
 43 80  1  0  0  0  0
M  CHG  2  11   1  13  -1
M  END
> <PUBCHEM_COMPOUND_CID>
500099
> <PUBCHEM_COMPOUND_CANONICALIZED>
1
> <PUBCHEM_CACTVS_COMPLEXITY>
1420
> <PUBCHEM_CACTVS_HBOND_ACCEPTOR>
10
> <PUBCHEM_CACTVS_HBOND_DONOR>
3
> <PUBCHEM_CACTVS_ROTATABLE_BOND>
6
> <PUBCHEM_CACTVS_SUBSKEYS>
AAADcfB7vAAAAAAAAAAAAAAAAAAAAaIAAAAwYIEAAAAAAGDAAAAAHgAYCAAAD3zhgAYDCAPABgCKAqHWWAKAAAAgAAAICAFIAEiDEBIAwQAPQAAOhyILAcP4/P7PgAAAAAAAAADAAAYAADAAAYAADAAAAA==
> <PUBCHEM_IUPAC_OPENEYE_NAME>
[3-azido-5-(5-methyl-2,4-dioxo-pyrimidin-1-yl)tetrahydrofuran-2-yl]methyl 11,17-dihydroxy-10,13-dimethyl-3-oxo-7,8,9,11,12,14,15,16-octahydro-6H-cyclopenta[a]phenanthrene-17-carboxylate
> <PUBCHEM_IUPAC_CAS_NAME>
11,17-dihydroxy-10,13-dimethyl-3-oxo-7,8,9,11,12,14,15,16-octahydro-6H-cyclopenta[a]phenanthrene-17-carboxylic acid [3-azido-5-(5-methyl-2,4-dioxo-1-pyrimidinyl)-2-oxolanyl]methyl ester
> <PUBCHEM_IUPAC_NAME_MARKUP>
[3-azido-5-(5-methyl-2,4-dioxopyrimidin-1-yl)oxolan-2-yl]methyl 11,17-dihydroxy-10,13-dimethyl-3-oxo-7,8,9,11,12,14,15,16-octahydro-6<I>H</I>-cyclopenta[a]phenanthrene-17-carboxylate
> <PUBCHEM_IUPAC_NAME>
[3-azido-5-(5-methyl-2,4-dioxopyrimidin-1-yl)oxolan-2-yl]methyl 11,17-dihydroxy-10,13-dimethyl-3-oxo-7,8,9,11,12,14,15,16-octahydro-6H-cyclopenta[a]phenanthrene-17-carboxylate
> <PUBCHEM_IUPAC_SYSTEMATIC_NAME>
[3-azido-5-[5-methyl-2,4-bis(oxidanylidene)pyrimidin-1-yl]oxolan-2-yl]methyl 10,13-dimethyl-11,17-bis(oxidanyl)-3-oxidanylidene-7,8,9,11,12,14,15,16-octahydro-6H-cyclopenta[a]phenanthrene-17-carboxylate
> <PUBCHEM_IUPAC_TRADITIONAL_NAME>
11,17-dihydroxy-3-keto-10,13-dimethyl-7,8,9,11,12,14,15,16-octahydro-6H-cyclopenta[a]phenanthrene-17-carboxylic acid [3-azido-5-(2,4-diketo-5-methyl-pyrimidin-1-yl)tetrahydrofuran-2-yl]methyl ester
> <PUBCHEM_IUPAC_INCHI>
InChI=1S/C30H37N5O8/c1-15-13-35(27(40)32-25(15)38)23-11-20(33-34-31)22(43-23)14-42-26(39)30(41)9-7-19-18-5-4-16-10-17(36)6-8-28(16,2)24(18)21(37)12-29(19,30)3/h6,8,10,13,18-24,37,41H,4-5,7,9,11-12,14H2,1-3H3,(H,32,38,40)
> <PUBCHEM_IUPAC_INCHIKEY>
ILIGYQXOGWNQLW-UHFFFAOYSA-N
> <PUBCHEM_XLOGP3_AA>
2.6
> <PUBCHEM_EXACT_MASS>
595.26421316
> <PUBCHEM_MOLECULAR_FORMULA>
C30H37N5O8
> <PUBCHEM_MOLECULAR_WEIGHT>
595.6
> <PUBCHEM_OPENEYE_CAN_SMILES>
CC1=CN(C(=O)NC1=O)C2CC(C(O2)COC(=O)C3(CCC4C3(CC(C5C4CCC6=CC(=O)C=CC56C)O)C)O)N=[N+]=[N-]
> <PUBCHEM_OPENEYE_ISO_SMILES>
CC1=CN(C(=O)NC1=O)C2CC(C(O2)COC(=O)C3(CCC4C3(CC(C5C4CCC6=CC(=O)C=CC56C)O)C)O)N=[N+]=[N-]
> <PUBCHEM_CACTVS_TPSA>
157
> <PUBCHEM_MONOISOTOPIC_WEIGHT>
595.26421316
> <PUBCHEM_TOTAL_CHARGE>
0
> <PUBCHEM_HEAVY_ATOM_COUNT>
43
> <PUBCHEM_ATOM_DEF_STEREO_COUNT>
0
> <PUBCHEM_ATOM_UDEF_STEREO_COUNT>
10
> <PUBCHEM_BOND_DEF_STEREO_COUNT>
0
> <PUBCHEM_BOND_UDEF_STEREO_COUNT>
0
> <PUBCHEM_ISOTOPIC_ATOM_COUNT>
0
> <PUBCHEM_COMPONENT_COUNT>
1
> <PUBCHEM_CACTVS_TAUTO_COUNT>
-1
> <PUBCHEM_COORDINATE_TYPE>
1
5
255
> <PUBCHEM_BONDANNOTATIONS>
18  1  3
38  10  3
10  39  8
10  40  8
12  40  8
12  42  8
14  25  3
15  21  3
16  24  3
17  20  3
20  2  3
22  29  3
35  34  3
39  41  8
41  42  8
36  9  3
$$$$
