500065
  -OEChem-10302200282D
 36 36  0     1  0  0  0  0  0999 V2000
    4.6701    3.5842    0.0000 O   0  0  0  0  0  0  0  0  0  0  0  0
    2.6324   -3.0178    0.0000 O   0  0  0  0  0  0  0  0  0  0  0  0
    3.2733    2.1874    0.0000 C   0  0  3  0  0  0  0  0  0  0  0  0
    4.0823    2.7752    0.0000 C   0  0  3  0  0  0  0  0  0  0  0  0
    3.5823    1.2363    0.0000 C   0  0  3  0  0  0  0  0  0  0  0  0
    4.8913    2.1874    0.0000 C   0  0  0  0  0  0  0  0  0  0  0  0
    4.5823    1.2363    0.0000 C   0  0  0  0  0  0  0  0  0  0  0  0
    2.9945    0.4273    0.0000 C   0  0  0  0  0  0  0  0  0  0  0  0
    2.3222    2.4964    0.0000 C   0  0  0  0  0  0  0  0  0  0  0  0
    3.4945    3.5842    0.0000 C   0  0  0  0  0  0  0  0  0  0  0  0
    3.4013   -0.4862    0.0000 C   0  0  0  0  0  0  0  0  0  0  0  0
    2.0000    0.5319    0.0000 C   0  0  0  0  0  0  0  0  0  0  0  0
    2.8135   -1.2952    0.0000 C   0  0  0  0  0  0  0  0  0  0  0  0
    3.2202   -2.2088    0.0000 C   0  0  0  0  0  0  0  0  0  0  0  0
    3.1403    3.0269    0.0000 H   0  0  0  0  0  0  0  0  0  0  0  0
    2.7428    1.3693    0.0000 H   0  0  0  0  0  0  0  0  0  0  0  0
    5.4577    1.9352    0.0000 H   0  0  0  0  0  0  0  0  0  0  0  0
    5.2013    2.7243    0.0000 H   0  0  0  0  0  0  0  0  0  0  0  0
    4.5175    0.6197    0.0000 H   0  0  0  0  0  0  0  0  0  0  0  0
    5.1888    1.1074    0.0000 H   0  0  0  0  0  0  0  0  0  0  0  0
    2.5138    3.0861    0.0000 H   0  0  0  0  0  0  0  0  0  0  0  0
    1.7326    2.6880    0.0000 H   0  0  0  0  0  0  0  0  0  0  0  0
    2.1306    1.9068    0.0000 H   0  0  0  0  0  0  0  0  0  0  0  0
    3.9961    3.9486    0.0000 H   0  0  0  0  0  0  0  0  0  0  0  0
    3.1301    4.0858    0.0000 H   0  0  0  0  0  0  0  0  0  0  0  0
    2.9929    3.2198    0.0000 H   0  0  0  0  0  0  0  0  0  0  0  0
    5.2867    3.5194    0.0000 H   0  0  0  0  0  0  0  0  0  0  0  0
    3.8320   -0.9322    0.0000 H   0  0  0  0  0  0  0  0  0  0  0  0
    3.9153   -0.1395    0.0000 H   0  0  0  0  0  0  0  0  0  0  0  0
    1.7478    1.0982    0.0000 H   0  0  0  0  0  0  0  0  0  0  0  0
    1.6356    0.0303    0.0000 H   0  0  0  0  0  0  0  0  0  0  0  0
    2.3828   -0.8492    0.0000 H   0  0  0  0  0  0  0  0  0  0  0  0
    2.2995   -1.6419    0.0000 H   0  0  0  0  0  0  0  0  0  0  0  0
    3.6509   -2.6548    0.0000 H   0  0  0  0  0  0  0  0  0  0  0  0
    3.7342   -1.8621    0.0000 H   0  0  0  0  0  0  0  0  0  0  0  0
    2.8846   -3.5842    0.0000 H   0  0  0  0  0  0  0  0  0  0  0  0
  1  4  1  0  0  0  0
  1 27  1  0  0  0  0
  2 14  1  0  0  0  0
  2 36  1  0  0  0  0
  3  4  1  0  0  0  0
  3  5  1  0  0  0  0
  3  9  1  0  0  0  0
  3 15  1  0  0  0  0
  4  6  1  0  0  0  0
  4 10  1  0  0  0  0
  5  7  1  0  0  0  0
  5  8  1  0  0  0  0
  5 16  1  0  0  0  0
  6  7  1  0  0  0  0
  6 17  1  0  0  0  0
  6 18  1  0  0  0  0
  7 19  1  0  0  0  0
  7 20  1  0  0  0  0
  8 11  1  0  0  0  0
  8 12  2  0  0  0  0
  9 21  1  0  0  0  0
  9 22  1  0  0  0  0
  9 23  1  0  0  0  0
 10 24  1  0  0  0  0
 10 25  1  0  0  0  0
 10 26  1  0  0  0  0
 11 13  1  0  0  0  0
 11 28  1  0  0  0  0
 11 29  1  0  0  0  0
 12 30  1  0  0  0  0
 12 31  1  0  0  0  0
 13 14  1  0  0  0  0
 13 32  1  0  0  0  0
 13 33  1  0  0  0  0
 14 34  1  0  0  0  0
 14 35  1  0  0  0  0
M  END
> <PUBCHEM_COMPOUND_CID>
500065
> <PUBCHEM_COMPOUND_CANONICALIZED>
1
> <PUBCHEM_CACTVS_COMPLEXITY>
212
> <PUBCHEM_CACTVS_HBOND_ACCEPTOR>
2
> <PUBCHEM_CACTVS_HBOND_DONOR>
2
> <PUBCHEM_CACTVS_ROTATABLE_BOND>
4
> <PUBCHEM_CACTVS_SUBSKEYS>
AAADceBwMAAAAAAAAAAAAAAAAAAAAYAAAAAAAAAAAAAAAAAAAAAAGgAACAAADUSggAICAAAAAgCAAgBCAAAAAAAgAAAAAAAAAAgAEAIAAQAAQAAEgAAAAAGAwPAOgAAAAAAAAAAAAAAAAAAAAYAADAAAAA==
> <PUBCHEM_IUPAC_OPENEYE_NAME>
3-(4-hydroxy-1-methylene-butyl)-1,2-dimethyl-cyclopentanol
> <PUBCHEM_IUPAC_CAS_NAME>
3-(5-hydroxypent-1-en-2-yl)-1,2-dimethyl-1-cyclopentanol
> <PUBCHEM_IUPAC_NAME_MARKUP>
3-(5-hydroxypent-1-en-2-yl)-1,2-dimethylcyclopentan-1-ol
> <PUBCHEM_IUPAC_NAME>
3-(5-hydroxypent-1-en-2-yl)-1,2-dimethylcyclopentan-1-ol
> <PUBCHEM_IUPAC_SYSTEMATIC_NAME>
1,2-dimethyl-3-(5-oxidanylpent-1-en-2-yl)cyclopentan-1-ol
> <PUBCHEM_IUPAC_TRADITIONAL_NAME>
3-[1-(3-hydroxypropyl)vinyl]-1,2-dimethyl-cyclopentanol
> <PUBCHEM_IUPAC_INCHI>
InChI=1S/C12H22O2/c1-9(5-4-8-13)11-6-7-12(3,14)10(11)2/h10-11,13-14H,1,4-8H2,2-3H3
> <PUBCHEM_IUPAC_INCHIKEY>
MLBPPDRXJFCPML-UHFFFAOYSA-N
> <PUBCHEM_XLOGP3_AA>
2.2
> <PUBCHEM_EXACT_MASS>
198.161979940
> <PUBCHEM_MOLECULAR_FORMULA>
C12H22O2
> <PUBCHEM_MOLECULAR_WEIGHT>
198.30
> <PUBCHEM_OPENEYE_CAN_SMILES>
CC1C(CCC1(C)O)C(=C)CCCO
> <PUBCHEM_OPENEYE_ISO_SMILES>
CC1C(CCC1(C)O)C(=C)CCCO
> <PUBCHEM_CACTVS_TPSA>
40.5
> <PUBCHEM_MONOISOTOPIC_WEIGHT>
198.161979940
> <PUBCHEM_TOTAL_CHARGE>
0
> <PUBCHEM_HEAVY_ATOM_COUNT>
14
> <PUBCHEM_ATOM_DEF_STEREO_COUNT>
0
> <PUBCHEM_ATOM_UDEF_STEREO_COUNT>
3
> <PUBCHEM_BOND_DEF_STEREO_COUNT>
0
> <PUBCHEM_BOND_UDEF_STEREO_COUNT>
0
> <PUBCHEM_ISOTOPIC_ATOM_COUNT>
0
> <PUBCHEM_COMPONENT_COUNT>
1
> <PUBCHEM_CACTVS_TAUTO_COUNT>
1
> <PUBCHEM_COORDINATE_TYPE>
1
5
255
> <PUBCHEM_BONDANNOTATIONS>
4  1  3
3  15  3
5  16  3
$$$$
