500060
  -OEChem-10302200282D
 67 71  0     1  0  0  0  0  0999 V2000
    7.4149   -2.1974    0.0000 O   0  0  0  0  0  0  0  0  0  0  0  0
    9.9229    0.3340    0.0000 O   0  0  0  0  0  0  0  0  0  0  0  0
    2.0000   -2.2183    0.0000 O   0  0  0  0  0  0  0  0  0  0  0  0
    8.6528    3.7073    0.0000 O   0  0  0  0  0  0  0  0  0  0  0  0
    6.5662   -3.7073    0.0000 O   0  0  0  0  0  0  0  0  0  0  0  0
    6.5271   -0.6660    0.0000 C   0  0  3  0  0  0  0  0  0  0  0  0
    5.6610   -0.1660    0.0000 C   0  0  3  0  0  0  0  0  0  0  0  0
    4.7510   -0.6728    0.0000 C   0  0  3  0  0  0  0  0  0  0  0  0
    4.7430   -1.7144    0.0000 C   0  0  3  0  0  0  0  0  0  0  0  0
    7.3931    0.8340    0.0000 C   0  0  3  0  0  0  0  0  0  0  0  0
    6.5431   -1.7075    0.0000 C   0  0  3  0  0  0  0  0  0  0  0  0
    7.3931   -0.1660    0.0000 C   0  0  0  0  0  0  0  0  0  0  0  0
    5.6610    0.8340    0.0000 C   0  0  0  0  0  0  0  0  0  0  0  0
    5.6451   -2.2352    0.0000 C   0  0  0  0  0  0  0  0  0  0  0  0
    6.5271    1.3340    0.0000 C   0  0  0  0  0  0  0  0  0  0  0  0
    3.8076   -2.2641    0.0000 C   0  0  0  0  0  0  0  0  0  0  0  0
    8.3393    1.1388    0.0000 C   0  0  3  0  0  0  0  0  0  0  0  0
    7.3931   -1.1660    0.0000 C   0  0  0  0  0  0  0  0  0  0  0  0
    4.7587    0.3272    0.0000 C   0  0  0  0  0  0  0  0  0  0  0  0
    3.8242   -0.1087    0.0000 C   0  0  0  0  0  0  0  0  0  0  0  0
    8.3393   -0.4707    0.0000 C   0  0  0  0  0  0  0  0  0  0  0  0
    7.3931    1.8340    0.0000 C   0  0  0  0  0  0  0  0  0  0  0  0
    8.9229    0.3340    0.0000 C   0  0  0  0  0  0  0  0  0  0  0  0
    2.8680   -1.7216    0.0000 C   0  0  0  0  0  0  0  0  0  0  0  0
    2.8763   -0.6367    0.0000 C   0  0  0  0  0  0  0  0  0  0  0  0
    3.3109   -3.1321    0.0000 C   0  0  0  0  0  0  0  0  0  0  0  0
    4.3109   -3.1282    0.0000 C   0  0  0  0  0  0  0  0  0  0  0  0
    8.6500    2.0893    0.0000 C   0  0  0  0  0  0  0  0  0  0  0  0
    7.4264   -3.1974    0.0000 C   0  0  0  0  0  0  0  0  0  0  0  0
    9.6016    2.3967    0.0000 C   0  0  0  0  0  0  0  0  0  0  0  0
    8.0636    2.8993    0.0000 C   0  0  0  0  0  0  0  0  0  0  0  0
    8.2982   -3.6873    0.0000 C   0  0  0  0  0  0  0  0  0  0  0  0
    9.6033    3.3967    0.0000 C   0  0  0  0  0  0  0  0  0  0  0  0
    6.1980    0.1440    0.0000 H   0  0  0  0  0  0  0  0  0  0  0  0
    4.7454   -2.3344    0.0000 H   0  0  0  0  0  0  0  0  0  0  0  0
    6.5491   -2.3274    0.0000 H   0  0  0  0  0  0  0  0  0  0  0  0
    5.4490    1.4166    0.0000 H   0  0  0  0  0  0  0  0  0  0  0  0
    5.0504    0.7264    0.0000 H   0  0  0  0  0  0  0  0  0  0  0  0
    5.2478   -2.7112    0.0000 H   0  0  0  0  0  0  0  0  0  0  0  0
    6.0460   -2.7081    0.0000 H   0  0  0  0  0  0  0  0  0  0  0  0
    6.9256    1.8090    0.0000 H   0  0  0  0  0  0  0  0  0  0  0  0
    6.1285    1.8090    0.0000 H   0  0  0  0  0  0  0  0  0  0  0  0
    8.9518    1.2350    0.0000 H   0  0  0  0  0  0  0  0  0  0  0  0
    7.0831   -1.7029    0.0000 H   0  0  0  0  0  0  0  0  0  0  0  0
    7.9300   -1.4760    0.0000 H   0  0  0  0  0  0  0  0  0  0  0  0
    7.7031   -0.6290    0.0000 H   0  0  0  0  0  0  0  0  0  0  0  0
    5.3787    0.3224    0.0000 H   0  0  0  0  0  0  0  0  0  0  0  0
    4.7635    0.9472    0.0000 H   0  0  0  0  0  0  0  0  0  0  0  0
    4.1388    0.3319    0.0000 H   0  0  0  0  0  0  0  0  0  0  0  0
    3.8361    0.5112    0.0000 H   0  0  0  0  0  0  0  0  0  0  0  0
    8.5319   -1.0600    0.0000 H   0  0  0  0  0  0  0  0  0  0  0  0
    8.0131    1.8340    0.0000 H   0  0  0  0  0  0  0  0  0  0  0  0
    7.3931    2.4540    0.0000 H   0  0  0  0  0  0  0  0  0  0  0  0
    6.7731    1.8340    0.0000 H   0  0  0  0  0  0  0  0  0  0  0  0
    2.3430   -0.3205    0.0000 H   0  0  0  0  0  0  0  0  0  0  0  0
    2.7728   -2.8241    0.0000 H   0  0  0  0  0  0  0  0  0  0  0  0
    3.0030   -3.6702    0.0000 H   0  0  0  0  0  0  0  0  0  0  0  0
    3.8490   -3.4400    0.0000 H   0  0  0  0  0  0  0  0  0  0  0  0
    3.7752   -3.4403    0.0000 H   0  0  0  0  0  0  0  0  0  0  0  0
    4.6230   -3.6640    0.0000 H   0  0  0  0  0  0  0  0  0  0  0  0
    4.8466   -2.8162    0.0000 H   0  0  0  0  0  0  0  0  0  0  0  0
   10.1025    2.0314    0.0000 H   0  0  0  0  0  0  0  0  0  0  0  0
    7.4436    2.9004    0.0000 H   0  0  0  0  0  0  0  0  0  0  0  0
    7.9944   -4.2278    0.0000 H   0  0  0  0  0  0  0  0  0  0  0  0
    8.8387   -3.9911    0.0000 H   0  0  0  0  0  0  0  0  0  0  0  0
    8.6020   -3.1468    0.0000 H   0  0  0  0  0  0  0  0  0  0  0  0
   10.1055    3.7602    0.0000 H   0  0  0  0  0  0  0  0  0  0  0  0
  1 11  1  0  0  0  0
  1 29  1  0  0  0  0
  2 23  2  0  0  0  0
  3 24  2  0  0  0  0
  4 31  1  0  0  0  0
  4 33  1  0  0  0  0
  5 29  2  0  0  0  0
  6  7  1  0  0  0  0
  6 11  1  0  0  0  0
  6 12  1  0  0  0  0
  6 18  1  0  0  0  0
  7  8  1  0  0  0  0
  7 13  1  0  0  0  0
  7 34  1  0  0  0  0
  8  9  1  0  0  0  0
  8 19  1  0  0  0  0
  8 20  1  0  0  0  0
  9 14  1  0  0  0  0
  9 16  1  0  0  0  0
  9 35  1  0  0  0  0
 10 12  1  0  0  0  0
 10 15  1  0  0  0  0
 10 17  1  0  0  0  0
 10 22  1  0  0  0  0
 11 14  1  0  0  0  0
 11 36  1  0  0  0  0
 12 21  2  0  0  0  0
 13 15  1  0  0  0  0
 13 37  1  0  0  0  0
 13 38  1  0  0  0  0
 14 39  1  0  0  0  0
 14 40  1  0  0  0  0
 15 41  1  0  0  0  0
 15 42  1  0  0  0  0
 16 24  1  0  0  0  0
 16 26  1  0  0  0  0
 16 27  1  0  0  0  0
 17 23  1  0  0  0  0
 17 28  1  0  0  0  0
 17 43  1  0  0  0  0
 18 44  1  0  0  0  0
 18 45  1  0  0  0  0
 18 46  1  0  0  0  0
 19 47  1  0  0  0  0
 19 48  1  0  0  0  0
 19 49  1  0  0  0  0
 20 25  2  0  0  0  0
 20 50  1  0  0  0  0
 21 23  1  0  0  0  0
 21 51  1  0  0  0  0
 22 52  1  0  0  0  0
 22 53  1  0  0  0  0
 22 54  1  0  0  0  0
 24 25  1  0  0  0  0
 25 55  1  0  0  0  0
 26 56  1  0  0  0  0
 26 57  1  0  0  0  0
 26 58  1  0  0  0  0
 27 59  1  0  0  0  0
 27 60  1  0  0  0  0
 27 61  1  0  0  0  0
 28 30  1  0  0  0  0
 28 31  2  0  0  0  0
 29 32  1  0  0  0  0
 30 33  2  0  0  0  0
 30 62  1  0  0  0  0
 31 63  1  0  0  0  0
 32 64  1  0  0  0  0
 32 65  1  0  0  0  0
 32 66  1  0  0  0  0
 33 67  1  0  0  0  0
M  END
> <PUBCHEM_COMPOUND_CID>
500060
> <PUBCHEM_COMPOUND_CANONICALIZED>
1
> <PUBCHEM_CACTVS_COMPLEXITY>
975
> <PUBCHEM_CACTVS_HBOND_ACCEPTOR>
5
> <PUBCHEM_CACTVS_HBOND_DONOR>
0
> <PUBCHEM_CACTVS_ROTATABLE_BOND>
3
> <PUBCHEM_CACTVS_SUBSKEYS>
AAADcfB4OAAAAAAAAAAAAAAAAAAAASIAAAAwYIAAAAAAAEDBgAAAGgAAAAAADxSgmAIyDIAABECIAqjSiAACCAAkIAAIiAEGCMgMJhIENQqCGSCkwBEIKYOLzvDvgAAAAAAAAADAAAYAADAAAAAAAAAAAA==
> <PUBCHEM_IUPAC_OPENEYE_NAME>
[17-(3-furyl)-4,4,8,10,13-pentamethyl-3,16-dioxo-6,7,9,11,12,17-hexahydro-5H-cyclopenta[a]phenanthren-7-yl] acetate
> <PUBCHEM_IUPAC_CAS_NAME>
acetic acid [17-(3-furanyl)-4,4,8,10,13-pentamethyl-3,16-dioxo-6,7,9,11,12,17-hexahydro-5H-cyclopenta[a]phenanthren-7-yl] ester
> <PUBCHEM_IUPAC_NAME_MARKUP>
[17-(furan-3-yl)-4,4,8,10,13-pentamethyl-3,16-dioxo-6,7,9,11,12,17-hexahydro-5<I>H</I>-cyclopenta[a]phenanthren-7-yl] acetate
> <PUBCHEM_IUPAC_NAME>
[17-(furan-3-yl)-4,4,8,10,13-pentamethyl-3,16-dioxo-6,7,9,11,12,17-hexahydro-5H-cyclopenta[a]phenanthren-7-yl] acetate
> <PUBCHEM_IUPAC_SYSTEMATIC_NAME>
[17-(furan-3-yl)-4,4,8,10,13-pentamethyl-3,16-bis(oxidanylidene)-6,7,9,11,12,17-hexahydro-5H-cyclopenta[a]phenanthren-7-yl] ethanoate
> <PUBCHEM_IUPAC_TRADITIONAL_NAME>
acetic acid [17-(3-furyl)-3,16-diketo-4,4,8,10,13-pentamethyl-6,7,9,11,12,17-hexahydro-5H-cyclopenta[a]phenanthren-7-yl] ester
> <PUBCHEM_IUPAC_INCHI>
InChI=1S/C28H34O5/c1-16(29)33-23-14-20-25(2,3)22(31)8-11-26(20,4)19-7-10-27(5)21(28(19,23)6)13-18(30)24(27)17-9-12-32-15-17/h8-9,11-13,15,19-20,23-24H,7,10,14H2,1-6H3
> <PUBCHEM_IUPAC_INCHIKEY>
KWAMDQVQFVBEAU-UHFFFAOYSA-N
> <PUBCHEM_XLOGP3_AA>
4.8
> <PUBCHEM_EXACT_MASS>
450.24062418
> <PUBCHEM_MOLECULAR_FORMULA>
C28H34O5
> <PUBCHEM_MOLECULAR_WEIGHT>
450.6
> <PUBCHEM_OPENEYE_CAN_SMILES>
CC(=O)OC1CC2C(C(=O)C=CC2(C3C1(C4=CC(=O)C(C4(CC3)C)C5=COC=C5)C)C)(C)C
> <PUBCHEM_OPENEYE_ISO_SMILES>
CC(=O)OC1CC2C(C(=O)C=CC2(C3C1(C4=CC(=O)C(C4(CC3)C)C5=COC=C5)C)C)(C)C
> <PUBCHEM_CACTVS_TPSA>
73.6
> <PUBCHEM_MONOISOTOPIC_WEIGHT>
450.24062418
> <PUBCHEM_TOTAL_CHARGE>
0
> <PUBCHEM_HEAVY_ATOM_COUNT>
33
> <PUBCHEM_ATOM_DEF_STEREO_COUNT>
0
> <PUBCHEM_ATOM_UDEF_STEREO_COUNT>
7
> <PUBCHEM_BOND_DEF_STEREO_COUNT>
0
> <PUBCHEM_BOND_UDEF_STEREO_COUNT>
0
> <PUBCHEM_ISOTOPIC_ATOM_COUNT>
0
> <PUBCHEM_COMPONENT_COUNT>
1
> <PUBCHEM_CACTVS_TAUTO_COUNT>
-1
> <PUBCHEM_COORDINATE_TYPE>
1
5
255
> <PUBCHEM_BONDANNOTATIONS>
11  1  3
10  22  3
17  28  3
28  30  8
28  31  8
30  33  8
4  31  8
4  33  8
6  18  3
7  13  3
8  19  3
9  14  3
$$$$
