500030
  -OEChem-10302200282D
 81 85  0     1  0  0  0  0  0999 V2000
    2.5381   -3.2456    0.0000 O   0  0  0  0  0  0  0  0  0  0  0  0
    6.0682   -1.2214    0.0000 C   0  0  3  0  0  0  0  0  0  0  0  0
    5.2022   -1.7214    0.0000 C   0  0  3  0  0  0  0  0  0  0  0  0
    5.2020   -0.7210    0.0000 C   0  0  0  0  0  0  0  0  0  0  0  0
    6.9343   -1.7214    0.0000 C   0  0  3  0  0  0  0  0  0  0  0  0
    5.2022   -2.7214    0.0000 C   0  0  3  0  0  0  0  0  0  0  0  0
    7.8443   -1.2146    0.0000 C   0  0  3  0  0  0  0  0  0  0  0  0
    6.0522   -0.1799    0.0000 C   0  0  0  0  0  0  0  0  0  0  0  0
    7.8523   -0.1730    0.0000 C   0  0  3  0  0  0  0  0  0  0  0  0
    4.3083   -1.1868    0.0000 C   0  0  0  0  0  0  0  0  0  0  0  0
    6.9343   -2.7214    0.0000 C   0  0  0  0  0  0  0  0  0  0  0  0
    6.0682   -3.2214    0.0000 C   0  0  0  0  0  0  0  0  0  0  0  0
    6.9502    0.3478    0.0000 C   0  0  0  0  0  0  0  0  0  0  0  0
    4.3083   -3.2561    0.0000 C   0  0  0  0  0  0  0  0  0  0  0  0
    8.8403    0.1368    0.0000 C   0  0  3  0  0  0  0  0  0  0  0  0
    8.8274   -1.5396    0.0000 C   0  0  0  0  0  0  0  0  0  0  0  0
    3.4022   -1.7006    0.0000 C   0  0  0  0  0  0  0  0  0  0  0  0
    3.4022   -2.7423    0.0000 C   0  0  3  0  0  0  0  0  0  0  0  0
    9.4418   -0.7061    0.0000 C   0  0  0  0  0  0  0  0  0  0  0  0
    7.8366   -2.2146    0.0000 C   0  0  0  0  0  0  0  0  0  0  0  0
    7.8600    0.8270    0.0000 C   0  0  0  0  0  0  0  0  0  0  0  0
    9.1583    1.0849    0.0000 C   0  0  3  0  0  0  0  0  0  0  0  0
    3.8183   -4.1279    0.0000 C   0  0  0  0  0  0  0  0  0  0  0  0
    4.8183   -4.1163    0.0000 C   0  0  0  0  0  0  0  0  0  0  0  0
   10.1384    1.2836    0.0000 C   0  0  0  0  0  0  0  0  0  0  0  0
    8.4962    1.8343    0.0000 C   0  0  0  0  0  0  0  0  0  0  0  0
   10.4564    2.2317    0.0000 C   0  0  0  0  0  0  0  0  0  0  0  0
   11.4364    2.4303    0.0000 C   0  0  0  0  0  0  0  0  0  0  0  0
   11.7544    3.3784    0.0000 C   0  0  0  0  0  0  0  0  0  0  0  0
   12.7345    3.5771    0.0000 C   0  0  0  0  0  0  0  0  0  0  0  0
   11.0923    4.1279    0.0000 C   0  0  0  0  0  0  0  0  0  0  0  0
    5.4141   -0.1384    0.0000 H   0  0  0  0  0  0  0  0  0  0  0  0
    4.5914   -0.6134    0.0000 H   0  0  0  0  0  0  0  0  0  0  0  0
    7.4688   -2.0356    0.0000 H   0  0  0  0  0  0  0  0  0  0  0  0
    5.2070   -3.3414    0.0000 H   0  0  0  0  0  0  0  0  0  0  0  0
    5.8342    0.4005    0.0000 H   0  0  0  0  0  0  0  0  0  0  0  0
    5.4431   -0.2954    0.0000 H   0  0  0  0  0  0  0  0  0  0  0  0
    4.7129   -0.7170    0.0000 H   0  0  0  0  0  0  0  0  0  0  0  0
    3.9147   -0.7078    0.0000 H   0  0  0  0  0  0  0  0  0  0  0  0
    7.1463   -3.3041    0.0000 H   0  0  0  0  0  0  0  0  0  0  0  0
    7.5449   -2.6138    0.0000 H   0  0  0  0  0  0  0  0  0  0  0  0
    5.6697   -3.6964    0.0000 H   0  0  0  0  0  0  0  0  0  0  0  0
    6.4668   -3.6964    0.0000 H   0  0  0  0  0  0  0  0  0  0  0  0
    7.3475    0.8238    0.0000 H   0  0  0  0  0  0  0  0  0  0  0  0
    6.5493    0.8207    0.0000 H   0  0  0  0  0  0  0  0  0  0  0  0
    9.4536    0.2283    0.0000 H   0  0  0  0  0  0  0  0  0  0  0  0
    8.5720   -2.1046    0.0000 H   0  0  0  0  0  0  0  0  0  0  0  0
    9.3624   -1.8530    0.0000 H   0  0  0  0  0  0  0  0  0  0  0  0
    3.1932   -1.1170    0.0000 H   0  0  0  0  0  0  0  0  0  0  0  0
    2.7914   -1.8067    0.0000 H   0  0  0  0  0  0  0  0  0  0  0  0
    2.8647   -2.4333    0.0000 H   0  0  0  0  0  0  0  0  0  0  0  0
    9.8994   -1.1244    0.0000 H   0  0  0  0  0  0  0  0  0  0  0  0
    9.9058   -0.2949    0.0000 H   0  0  0  0  0  0  0  0  0  0  0  0
    7.2166   -2.2098    0.0000 H   0  0  0  0  0  0  0  0  0  0  0  0
    7.8318   -2.8346    0.0000 H   0  0  0  0  0  0  0  0  0  0  0  0
    8.4566   -2.2194    0.0000 H   0  0  0  0  0  0  0  0  0  0  0  0
    8.4800    0.8222    0.0000 H   0  0  0  0  0  0  0  0  0  0  0  0
    7.8648    1.4470    0.0000 H   0  0  0  0  0  0  0  0  0  0  0  0
    7.2400    0.8317    0.0000 H   0  0  0  0  0  0  0  0  0  0  0  0
    9.3555    1.6727    0.0000 H   0  0  0  0  0  0  0  0  0  0  0  0
    3.2778   -3.8241    0.0000 H   0  0  0  0  0  0  0  0  0  0  0  0
    3.5146   -4.6684    0.0000 H   0  0  0  0  0  0  0  0  0  0  0  0
    4.3588   -4.4316    0.0000 H   0  0  0  0  0  0  0  0  0  0  0  0
    4.2850   -4.4325    0.0000 H   0  0  0  0  0  0  0  0  0  0  0  0
    5.1344   -4.6496    0.0000 H   0  0  0  0  0  0  0  0  0  0  0  0
    5.3516   -3.8001    0.0000 H   0  0  0  0  0  0  0  0  0  0  0  0
    2.0000   -2.9377    0.0000 H   0  0  0  0  0  0  0  0  0  0  0  0
   10.1542    0.6638    0.0000 H   0  0  0  0  0  0  0  0  0  0  0  0
   10.7515    1.1915    0.0000 H   0  0  0  0  0  0  0  0  0  0  0  0
    8.9609    2.2448    0.0000 H   0  0  0  0  0  0  0  0  0  0  0  0
    8.0857    2.2990    0.0000 H   0  0  0  0  0  0  0  0  0  0  0  0
    8.0316    1.4238    0.0000 H   0  0  0  0  0  0  0  0  0  0  0  0
   10.4406    2.8515    0.0000 H   0  0  0  0  0  0  0  0  0  0  0  0
    9.8432    2.3238    0.0000 H   0  0  0  0  0  0  0  0  0  0  0  0
   11.4522    1.8105    0.0000 H   0  0  0  0  0  0  0  0  0  0  0  0
   12.0496    2.3383    0.0000 H   0  0  0  0  0  0  0  0  0  0  0  0
   12.8577    2.9695    0.0000 H   0  0  0  0  0  0  0  0  0  0  0  0
   13.3421    3.7003    0.0000 H   0  0  0  0  0  0  0  0  0  0  0  0
   12.6113    4.1848    0.0000 H   0  0  0  0  0  0  0  0  0  0  0  0
   11.2895    4.7157    0.0000 H   0  0  0  0  0  0  0  0  0  0  0  0
   10.4847    4.0047    0.0000 H   0  0  0  0  0  0  0  0  0  0  0  0
  1 18  1  0  0  0  0
  1 67  1  0  0  0  0
  2  3  1  0  0  0  0
  2  4  1  0  0  0  0
  2  5  1  0  0  0  0
  2  8  1  0  0  0  0
  3  4  1  0  0  0  0
  3  6  1  0  0  0  0
  3 10  1  0  0  0  0
  4 32  1  0  0  0  0
  4 33  1  0  0  0  0
  5  7  1  0  0  0  0
  5 11  1  0  0  0  0
  5 34  1  0  0  0  0
  6 12  1  0  0  0  0
  6 14  1  0  0  0  0
  6 35  1  0  0  0  0
  7  9  1  0  0  0  0
  7 16  1  0  0  0  0
  7 20  1  0  0  0  0
  8 13  1  0  0  0  0
  8 36  1  0  0  0  0
  8 37  1  0  0  0  0
  9 13  1  0  0  0  0
  9 15  1  0  0  0  0
  9 21  1  0  0  0  0
 10 17  1  0  0  0  0
 10 38  1  0  0  0  0
 10 39  1  0  0  0  0
 11 12  1  0  0  0  0
 11 40  1  0  0  0  0
 11 41  1  0  0  0  0
 12 42  1  0  0  0  0
 12 43  1  0  0  0  0
 13 44  1  0  0  0  0
 13 45  1  0  0  0  0
 14 18  1  0  0  0  0
 14 23  1  0  0  0  0
 14 24  1  0  0  0  0
 15 19  1  0  0  0  0
 15 22  1  0  0  0  0
 15 46  1  0  0  0  0
 16 19  1  0  0  0  0
 16 47  1  0  0  0  0
 16 48  1  0  0  0  0
 17 18  1  0  0  0  0
 17 49  1  0  0  0  0
 17 50  1  0  0  0  0
 18 51  1  0  0  0  0
 19 52  1  0  0  0  0
 19 53  1  0  0  0  0
 20 54  1  0  0  0  0
 20 55  1  0  0  0  0
 20 56  1  0  0  0  0
 21 57  1  0  0  0  0
 21 58  1  0  0  0  0
 21 59  1  0  0  0  0
 22 25  1  0  0  0  0
 22 26  1  0  0  0  0
 22 60  1  0  0  0  0
 23 61  1  0  0  0  0
 23 62  1  0  0  0  0
 23 63  1  0  0  0  0
 24 64  1  0  0  0  0
 24 65  1  0  0  0  0
 24 66  1  0  0  0  0
 25 27  1  0  0  0  0
 25 68  1  0  0  0  0
 25 69  1  0  0  0  0
 26 70  1  0  0  0  0
 26 71  1  0  0  0  0
 26 72  1  0  0  0  0
 27 28  1  0  0  0  0
 27 73  1  0  0  0  0
 27 74  1  0  0  0  0
 28 29  1  0  0  0  0
 28 75  1  0  0  0  0
 28 76  1  0  0  0  0
 29 30  1  0  0  0  0
 29 31  2  0  0  0  0
 30 77  1  0  0  0  0
 30 78  1  0  0  0  0
 30 79  1  0  0  0  0
 31 80  1  0  0  0  0
 31 81  1  0  0  0  0
M  END
> <PUBCHEM_COMPOUND_CID>
500030
> <PUBCHEM_COMPOUND_CANONICALIZED>
1
> <PUBCHEM_CACTVS_COMPLEXITY>
752
> <PUBCHEM_CACTVS_HBOND_ACCEPTOR>
1
> <PUBCHEM_CACTVS_HBOND_DONOR>
1
> <PUBCHEM_CACTVS_ROTATABLE_BOND>
5
> <PUBCHEM_CACTVS_SUBSKEYS>
AAADcfB4IAAAAAAAAAAAAAAAGAAAAYAAAAAwYMAABgAAAGDAAAAAGgAACAAADxSggAICAAAAAgCAAgBCAAAAAAAgAAAAAAAAAAgAEAIAAQAAQAAEgAAAAAGAwPAPgAAAAAAAAADAAAYAADAAAQAACAAAAA==
> <PUBCHEM_IUPAC_OPENEYE_NAME>
15-(1,5-dimethylhex-5-enyl)-7,7,12,16-tetramethyl-pentacyclo[9.7.0.01,3.03,8.012,16]octadecan-6-ol
> <PUBCHEM_IUPAC_CAS_NAME>
7,7,12,16-tetramethyl-15-(6-methylhept-6-en-2-yl)-6-pentacyclo[9.7.0.01,3.03,8.012,16]octadecanol
> <PUBCHEM_IUPAC_NAME_MARKUP>
7,7,12,16-tetramethyl-15-(6-methylhept-6-en-2-yl)pentacyclo[9.7.0.0<SUP>1,3</SUP>.0<SUP>3,8</SUP>.0<SUP>12,16</SUP>]octadecan-6-ol
> <PUBCHEM_IUPAC_NAME>
7,7,12,16-tetramethyl-15-(6-methylhept-6-en-2-yl)pentacyclo[9.7.0.01,3.03,8.012,16]octadecan-6-ol
> <PUBCHEM_IUPAC_SYSTEMATIC_NAME>
7,7,12,16-tetramethyl-15-(6-methylhept-6-en-2-yl)pentacyclo[9.7.0.01,3.03,8.012,16]octadecan-6-ol
> <PUBCHEM_IUPAC_TRADITIONAL_NAME>
15-(1,5-dimethylhex-5-enyl)-7,7,12,16-tetramethyl-pentacyclo[9.7.0.01,3.03,8.012,16]octadecan-6-ol
> <PUBCHEM_IUPAC_INCHI>
InChI=1S/C30H50O/c1-20(2)9-8-10-21(3)22-13-15-28(7)24-12-11-23-26(4,5)25(31)14-16-29(23)19-30(24,29)18-17-27(22,28)6/h21-25,31H,1,8-19H2,2-7H3
> <PUBCHEM_IUPAC_INCHIKEY>
HVXLSFNCWWWDPA-UHFFFAOYSA-N
> <PUBCHEM_XLOGP3_AA>
10.1
> <PUBCHEM_EXACT_MASS>
426.386166214
> <PUBCHEM_MOLECULAR_FORMULA>
C30H50O
> <PUBCHEM_MOLECULAR_WEIGHT>
426.7
> <PUBCHEM_OPENEYE_CAN_SMILES>
CC(CCCC(=C)C)C1CCC2(C1(CCC34C2CCC5C3(C4)CCC(C5(C)C)O)C)C
> <PUBCHEM_OPENEYE_ISO_SMILES>
CC(CCCC(=C)C)C1CCC2(C1(CCC34C2CCC5C3(C4)CCC(C5(C)C)O)C)C
> <PUBCHEM_CACTVS_TPSA>
20.2
> <PUBCHEM_MONOISOTOPIC_WEIGHT>
426.386166214
> <PUBCHEM_TOTAL_CHARGE>
0
> <PUBCHEM_HEAVY_ATOM_COUNT>
31
> <PUBCHEM_ATOM_DEF_STEREO_COUNT>
0
> <PUBCHEM_ATOM_UDEF_STEREO_COUNT>
9
> <PUBCHEM_BOND_DEF_STEREO_COUNT>
0
> <PUBCHEM_BOND_UDEF_STEREO_COUNT>
0
> <PUBCHEM_ISOTOPIC_ATOM_COUNT>
0
> <PUBCHEM_COMPONENT_COUNT>
1
> <PUBCHEM_CACTVS_TAUTO_COUNT>
-1
> <PUBCHEM_COORDINATE_TYPE>
1
5
255
> <PUBCHEM_BONDANNOTATIONS>
18  1  3
15  19  3
2  8  3
22  26  3
3  10  3
5  11  3
6  12  3
7  20  3
9  21  3
$$$$
