500069
  -OEChem-10302200282D
 51 55  0     1  0  0  0  0  0999 V2000
    2.4105    1.2256    0.0000 O   0  0  0  0  0  0  0  0  0  0  0  0
   10.1924   -1.3127    0.0000 O   0  0  0  0  0  0  0  0  0  0  0  0
    9.5781   -0.4791    0.0000 N   0  0  0  0  0  0  0  0  0  0  0  0
    9.5910   -2.1556    0.0000 N   0  0  0  0  0  0  0  0  0  0  0  0
    5.9529    0.7027    0.0000 C   0  0  3  0  0  0  0  0  0  0  0  0
    5.9529   -0.2973    0.0000 C   0  0  3  0  0  0  0  0  0  0  0  0
    5.0590    1.2374    0.0000 C   0  0  3  0  0  0  0  0  0  0  0  0
    4.1529    0.7235    0.0000 C   0  0  3  0  0  0  0  0  0  0  0  0
    6.8189   -0.7973    0.0000 C   0  0  3  0  0  0  0  0  0  0  0  0
    5.0590   -0.8320    0.0000 C   0  0  0  0  0  0  0  0  0  0  0  0
    4.1529   -0.3181    0.0000 C   0  0  0  0  0  0  0  0  0  0  0  0
    7.6849   -0.2973    0.0000 C   0  0  3  0  0  0  0  0  0  0  0  0
    6.8189    1.2027    0.0000 C   0  0  0  0  0  0  0  0  0  0  0  0
    4.8488    2.2513    0.0000 C   0  0  0  0  0  0  0  0  0  0  0  0
    3.3906    1.4243    0.0000 C   0  0  3  0  0  0  0  0  0  0  0  0
    7.6849    0.7027    0.0000 C   0  0  0  0  0  0  0  0  0  0  0  0
    3.8198    2.3666    0.0000 C   0  0  0  0  0  0  0  0  0  0  0  0
    6.8028   -1.8388    0.0000 C   0  0  0  0  0  0  0  0  0  0  0  0
    3.2830    0.2302    0.0000 C   0  0  0  0  0  0  0  0  0  0  0  0
    5.9529   -1.2973    0.0000 C   0  0  0  0  0  0  0  0  0  0  0  0
    8.5949   -0.8041    0.0000 C   0  0  0  0  0  0  0  0  0  0  0  0
    7.7009   -2.3666    0.0000 C   0  0  0  0  0  0  0  0  0  0  0  0
    8.6030   -1.8458    0.0000 C   0  0  0  0  0  0  0  0  0  0  0  0
    5.9577    1.3227    0.0000 H   0  0  0  0  0  0  0  0  0  0  0  0
    6.4898    0.0127    0.0000 H   0  0  0  0  0  0  0  0  0  0  0  0
    5.5642    1.5966    0.0000 H   0  0  0  0  0  0  0  0  0  0  0  0
    4.6653   -1.3110    0.0000 H   0  0  0  0  0  0  0  0  0  0  0  0
    5.4635   -1.3018    0.0000 H   0  0  0  0  0  0  0  0  0  0  0  0
    3.5420   -0.2120    0.0000 H   0  0  0  0  0  0  0  0  0  0  0  0
    3.9438   -0.9018    0.0000 H   0  0  0  0  0  0  0  0  0  0  0  0
    8.2195    0.0168    0.0000 H   0  0  0  0  0  0  0  0  0  0  0  0
    7.2174    1.6776    0.0000 H   0  0  0  0  0  0  0  0  0  0  0  0
    6.4204    1.6776    0.0000 H   0  0  0  0  0  0  0  0  0  0  0  0
    5.4658    2.3126    0.0000 H   0  0  0  0  0  0  0  0  0  0  0  0
    4.8527    2.8713    0.0000 H   0  0  0  0  0  0  0  0  0  0  0  0
    3.0047    1.9096    0.0000 H   0  0  0  0  0  0  0  0  0  0  0  0
    8.2955    0.5950    0.0000 H   0  0  0  0  0  0  0  0  0  0  0  0
    7.8970    1.2853    0.0000 H   0  0  0  0  0  0  0  0  0  0  0  0
    3.9532    2.9720    0.0000 H   0  0  0  0  0  0  0  0  0  0  0  0
    3.2317    2.5629    0.0000 H   0  0  0  0  0  0  0  0  0  0  0  0
    6.1937   -1.7233    0.0000 H   0  0  0  0  0  0  0  0  0  0  0  0
    6.5848   -2.4192    0.0000 H   0  0  0  0  0  0  0  0  0  0  0  0
    2.9772    0.7695    0.0000 H   0  0  0  0  0  0  0  0  0  0  0  0
    2.7437   -0.0756    0.0000 H   0  0  0  0  0  0  0  0  0  0  0  0
    3.5889   -0.3091    0.0000 H   0  0  0  0  0  0  0  0  0  0  0  0
    5.6429   -0.7604    0.0000 H   0  0  0  0  0  0  0  0  0  0  0  0
    5.4159   -1.6073    0.0000 H   0  0  0  0  0  0  0  0  0  0  0  0
    6.2629   -1.8342    0.0000 H   0  0  0  0  0  0  0  0  0  0  0  0
    7.2999   -2.8395    0.0000 H   0  0  0  0  0  0  0  0  0  0  0  0
    8.0982   -2.8425    0.0000 H   0  0  0  0  0  0  0  0  0  0  0  0
    2.0000    1.6902    0.0000 H   0  0  0  0  0  0  0  0  0  0  0  0
  1 15  1  0  0  0  0
  1 51  1  0  0  0  0
  2  3  1  0  0  0  0
  2  4  1  0  0  0  0
  3 21  2  0  0  0  0
  4 23  2  0  0  0  0
  5  6  1  0  0  0  0
  5  7  1  0  0  0  0
  5 13  1  0  0  0  0
  5 24  1  0  0  0  0
  6  9  1  0  0  0  0
  6 10  1  0  0  0  0
  6 25  1  0  0  0  0
  7  8  1  0  0  0  0
  7 14  1  0  0  0  0
  7 26  1  0  0  0  0
  8 11  1  0  0  0  0
  8 15  1  0  0  0  0
  8 19  1  0  0  0  0
  9 12  1  0  0  0  0
  9 18  1  0  0  0  0
  9 20  1  0  0  0  0
 10 11  1  0  0  0  0
 10 27  1  0  0  0  0
 10 28  1  0  0  0  0
 11 29  1  0  0  0  0
 11 30  1  0  0  0  0
 12 16  1  0  0  0  0
 12 21  1  0  0  0  0
 12 31  1  0  0  0  0
 13 16  1  0  0  0  0
 13 32  1  0  0  0  0
 13 33  1  0  0  0  0
 14 17  1  0  0  0  0
 14 34  1  0  0  0  0
 14 35  1  0  0  0  0
 15 17  1  0  0  0  0
 15 36  1  0  0  0  0
 16 37  1  0  0  0  0
 16 38  1  0  0  0  0
 17 39  1  0  0  0  0
 17 40  1  0  0  0  0
 18 22  1  0  0  0  0
 18 41  1  0  0  0  0
 18 42  1  0  0  0  0
 19 43  1  0  0  0  0
 19 44  1  0  0  0  0
 19 45  1  0  0  0  0
 20 46  1  0  0  0  0
 20 47  1  0  0  0  0
 20 48  1  0  0  0  0
 21 23  1  0  0  0  0
 22 23  1  0  0  0  0
 22 49  1  0  0  0  0
 22 50  1  0  0  0  0
M  END
> <PUBCHEM_COMPOUND_CID>
500069
> <PUBCHEM_COMPOUND_CANONICALIZED>
1
> <PUBCHEM_CACTVS_COMPLEXITY>
500
> <PUBCHEM_CACTVS_HBOND_ACCEPTOR>
4
> <PUBCHEM_CACTVS_HBOND_DONOR>
1
> <PUBCHEM_CACTVS_ROTATABLE_BOND>
0
> <PUBCHEM_CACTVS_SUBSKEYS>
AAADceB7MAAAAAAAAAAAAAAAAAAAAeIAAAAwYMAAAAAAAHjBgAAAHgAECAAADxyhlgICgBAQAgChAQRgQgAAAAQgEAAgGAAwUAoAcAIAkACAQAAkgIAISAOQwPAPgAAAAAAAAACQAASAACQAQIAADAAAAA==
> <PUBCHEM_IUPAC_OPENEYE_NAME>
2,18-dimethyl-7-oxa-6,8-diazapentacyclo[11.7.0.02,10.05,9.014,18]icosa-5,8-dien-17-ol
> <PUBCHEM_IUPAC_CAS_NAME>
2,18-dimethyl-7-oxa-6,8-diazapentacyclo[11.7.0.02,10.05,9.014,18]eicosa-5,8-dien-17-ol
> <PUBCHEM_IUPAC_NAME_MARKUP>
2,18-dimethyl-7-oxa-6,8-diazapentacyclo[11.7.0.0<SUP>2,10</SUP>.0<SUP>5,9</SUP>.0<SUP>14,18</SUP>]icosa-5,8-dien-17-ol
> <PUBCHEM_IUPAC_NAME>
2,18-dimethyl-7-oxa-6,8-diazapentacyclo[11.7.0.02,10.05,9.014,18]icosa-5,8-dien-17-ol
> <PUBCHEM_IUPAC_SYSTEMATIC_NAME>
2,18-dimethyl-7-oxa-6,8-diazapentacyclo[11.7.0.02,10.05,9.014,18]icosa-5,8-dien-17-ol
> <PUBCHEM_IUPAC_TRADITIONAL_NAME>
2,18-dimethyl-7-oxa-6,8-diazapentacyclo[11.7.0.02,10.05,9.014,18]eicosa-5,8-dien-17-ol
> <PUBCHEM_IUPAC_INCHI>
InChI=1S/C19H28N2O2/c1-18-10-8-15-17(21-23-20-15)14(18)4-3-11-12-5-6-16(22)19(12,2)9-7-13(11)18/h11-14,16,22H,3-10H2,1-2H3
> <PUBCHEM_IUPAC_INCHIKEY>
HEWFXMGRSGPGII-UHFFFAOYSA-N
> <PUBCHEM_XLOGP3_AA>
3.6
> <PUBCHEM_EXACT_MASS>
316.215078140
> <PUBCHEM_MOLECULAR_FORMULA>
C19H28N2O2
> <PUBCHEM_MOLECULAR_WEIGHT>
316.4
> <PUBCHEM_OPENEYE_CAN_SMILES>
CC12CCC3=NON=C3C1CCC4C2CCC5(C4CCC5O)C
> <PUBCHEM_OPENEYE_ISO_SMILES>
CC12CCC3=NON=C3C1CCC4C2CCC5(C4CCC5O)C
> <PUBCHEM_CACTVS_TPSA>
59.2
> <PUBCHEM_MONOISOTOPIC_WEIGHT>
316.215078140
> <PUBCHEM_TOTAL_CHARGE>
0
> <PUBCHEM_HEAVY_ATOM_COUNT>
23
> <PUBCHEM_ATOM_DEF_STEREO_COUNT>
0
> <PUBCHEM_ATOM_UDEF_STEREO_COUNT>
7
> <PUBCHEM_BOND_DEF_STEREO_COUNT>
0
> <PUBCHEM_BOND_UDEF_STEREO_COUNT>
0
> <PUBCHEM_ISOTOPIC_ATOM_COUNT>
0
> <PUBCHEM_COMPONENT_COUNT>
1
> <PUBCHEM_CACTVS_TAUTO_COUNT>
-1
> <PUBCHEM_COORDINATE_TYPE>
1
5
255
> <PUBCHEM_BONDANNOTATIONS>
15  1  3
12  16  3
2  3  8
2  4  8
21  23  8
3  21  8
4  23  8
5  13  3
6  10  3
7  14  3
8  19  3
9  20  3
$$$$
