500046
  -OEChem-10302200282D
 35 36  0     1  0  0  0  0  0999 V2000
    3.0000    0.0000    0.0000 S   0  0  0  0  0  0  0  0  0  0  0  0
    4.0000    0.0000    0.0000 O   0  0  0  0  0  0  0  0  0  0  0  0
    2.0000    0.0000    0.0000 O   0  0  0  0  0  0  0  0  0  0  0  0
    5.5981    1.5000    0.0000 O   0  0  0  0  0  0  0  0  0  0  0  0
    4.7320    0.0000    0.0000 O   0  0  0  0  0  0  0  0  0  0  0  0
    2.1340   -4.5000    0.0000 O   0  5  0  0  0  0  0  0  0  0  0  0
    3.8660   -4.5000    0.0000 O   0  0  0  0  0  0  0  0  0  0  0  0
    3.0000    1.0000    0.0000 N   0  0  0  0  0  0  0  0  0  0  0  0
    3.0000   -4.0000    0.0000 N   0  3  0  0  0  0  0  0  0  0  0  0
    3.8660    1.5000    0.0000 C   0  0  3  0  0  0  0  0  0  0  0  0
    3.8660    2.5000    0.0000 C   0  0  0  0  0  0  0  0  0  0  0  0
    3.0000   -1.0000    0.0000 C   0  0  0  0  0  0  0  0  0  0  0  0
    4.7320    1.0000    0.0000 C   0  0  0  0  0  0  0  0  0  0  0  0
    3.0000    3.0000    0.0000 C   0  0  0  0  0  0  0  0  0  0  0  0
    4.7320    3.0000    0.0000 C   0  0  0  0  0  0  0  0  0  0  0  0
    3.8660   -1.5000    0.0000 C   0  0  0  0  0  0  0  0  0  0  0  0
    2.1340   -1.5000    0.0000 C   0  0  0  0  0  0  0  0  0  0  0  0
    3.8660   -2.5000    0.0000 C   0  0  0  0  0  0  0  0  0  0  0  0
    2.1340   -2.5000    0.0000 C   0  0  0  0  0  0  0  0  0  0  0  0
    3.0000   -3.0000    0.0000 C   0  0  0  0  0  0  0  0  0  0  0  0
    3.0000    4.0000    0.0000 C   0  0  0  0  0  0  0  0  0  0  0  0
    4.7320    4.0000    0.0000 C   0  0  0  0  0  0  0  0  0  0  0  0
    3.8660    4.5000    0.0000 C   0  0  0  0  0  0  0  0  0  0  0  0
    3.8660    0.8800    0.0000 H   0  0  0  0  0  0  0  0  0  0  0  0
    2.4631    1.3100    0.0000 H   0  0  0  0  0  0  0  0  0  0  0  0
    2.4631    2.6900    0.0000 H   0  0  0  0  0  0  0  0  0  0  0  0
    5.2690    2.6900    0.0000 H   0  0  0  0  0  0  0  0  0  0  0  0
    4.4030   -1.1900    0.0000 H   0  0  0  0  0  0  0  0  0  0  0  0
    1.5970   -1.1900    0.0000 H   0  0  0  0  0  0  0  0  0  0  0  0
    4.4030   -2.8100    0.0000 H   0  0  0  0  0  0  0  0  0  0  0  0
    1.5970   -2.8100    0.0000 H   0  0  0  0  0  0  0  0  0  0  0  0
    2.4631    4.3100    0.0000 H   0  0  0  0  0  0  0  0  0  0  0  0
    5.2690    4.3100    0.0000 H   0  0  0  0  0  0  0  0  0  0  0  0
    3.8660    5.1200    0.0000 H   0  0  0  0  0  0  0  0  0  0  0  0
    6.1350    1.1900    0.0000 H   0  0  0  0  0  0  0  0  0  0  0  0
  1  2  2  0  0  0  0
  1  3  2  0  0  0  0
  1  8  1  0  0  0  0
  1 12  1  0  0  0  0
  4 13  1  0  0  0  0
  4 35  1  0  0  0  0
  5 13  2  0  0  0  0
  6  9  1  0  0  0  0
  7  9  2  0  0  0  0
  8 10  1  0  0  0  0
  8 25  1  0  0  0  0
  9 20  1  0  0  0  0
 10 11  1  0  0  0  0
 10 13  1  0  0  0  0
 10 24  1  0  0  0  0
 11 14  2  0  0  0  0
 11 15  1  0  0  0  0
 12 16  2  0  0  0  0
 12 17  1  0  0  0  0
 14 21  1  0  0  0  0
 14 26  1  0  0  0  0
 15 22  2  0  0  0  0
 15 27  1  0  0  0  0
 16 18  1  0  0  0  0
 16 28  1  0  0  0  0
 17 19  2  0  0  0  0
 17 29  1  0  0  0  0
 18 20  2  0  0  0  0
 18 30  1  0  0  0  0
 19 20  1  0  0  0  0
 19 31  1  0  0  0  0
 21 23  2  0  0  0  0
 21 32  1  0  0  0  0
 22 23  1  0  0  0  0
 22 33  1  0  0  0  0
 23 34  1  0  0  0  0
M  CHG  2   6  -1   9   1
M  END
> <PUBCHEM_COMPOUND_CID>
500046
> <PUBCHEM_COMPOUND_CANONICALIZED>
1
> <PUBCHEM_CACTVS_COMPLEXITY>
525
> <PUBCHEM_CACTVS_HBOND_ACCEPTOR>
7
> <PUBCHEM_CACTVS_HBOND_DONOR>
2
> <PUBCHEM_CACTVS_ROTATABLE_BOND>
5
> <PUBCHEM_CACTVS_SUBSKEYS>
AAADccBzOABAAAAAAAAAAAAAAAAAAAAAAAAwYAAAAAAAAAABQAAAHgQUSAAADCjB2AQwyYBQQgKJAiTSS3DCABAgAgAoiJmAZIoKIDKAlZGAYABkwAEIyAeYyKCOAAQAAAAAAAAACAAAAAAAAAAAAAAAAA==
> <PUBCHEM_IUPAC_OPENEYE_NAME>
2-[(4-nitrophenyl)sulfonylamino]-2-phenyl-acetic acid
> <PUBCHEM_IUPAC_CAS_NAME>
2-[(4-nitrophenyl)sulfonylamino]-2-phenylacetic acid
> <PUBCHEM_IUPAC_NAME_MARKUP>
2-[(4-nitrophenyl)sulfonylamino]-2-phenylacetic acid
> <PUBCHEM_IUPAC_NAME>
2-[(4-nitrophenyl)sulfonylamino]-2-phenylacetic acid
> <PUBCHEM_IUPAC_SYSTEMATIC_NAME>
2-[(4-nitrophenyl)sulfonylamino]-2-phenyl-ethanoic acid
> <PUBCHEM_IUPAC_TRADITIONAL_NAME>
2-(nosylamino)-2-phenyl-acetic acid
> <PUBCHEM_IUPAC_INCHI>
InChI=1S/C14H12N2O6S/c17-14(18)13(10-4-2-1-3-5-10)15-23(21,22)12-8-6-11(7-9-12)16(19)20/h1-9,13,15H,(H,17,18)
> <PUBCHEM_IUPAC_INCHIKEY>
VMUUBYKWPNNGRO-UHFFFAOYSA-N
> <PUBCHEM_XLOGP3_AA>
2
> <PUBCHEM_EXACT_MASS>
336.04160728
> <PUBCHEM_MOLECULAR_FORMULA>
C14H12N2O6S
> <PUBCHEM_MOLECULAR_WEIGHT>
336.32
> <PUBCHEM_OPENEYE_CAN_SMILES>
C1=CC=C(C=C1)C(C(=O)O)NS(=O)(=O)C2=CC=C(C=C2)[N+](=O)[O-]
> <PUBCHEM_OPENEYE_ISO_SMILES>
C1=CC=C(C=C1)C(C(=O)O)NS(=O)(=O)C2=CC=C(C=C2)[N+](=O)[O-]
> <PUBCHEM_CACTVS_TPSA>
138
> <PUBCHEM_MONOISOTOPIC_WEIGHT>
336.04160728
> <PUBCHEM_TOTAL_CHARGE>
0
> <PUBCHEM_HEAVY_ATOM_COUNT>
23
> <PUBCHEM_ATOM_DEF_STEREO_COUNT>
0
> <PUBCHEM_ATOM_UDEF_STEREO_COUNT>
1
> <PUBCHEM_BOND_DEF_STEREO_COUNT>
0
> <PUBCHEM_BOND_UDEF_STEREO_COUNT>
0
> <PUBCHEM_ISOTOPIC_ATOM_COUNT>
0
> <PUBCHEM_COMPONENT_COUNT>
1
> <PUBCHEM_CACTVS_TAUTO_COUNT>
-1
> <PUBCHEM_COORDINATE_TYPE>
1
5
255
> <PUBCHEM_BONDANNOTATIONS>
10  13  3
11  14  8
11  15  8
12  16  8
12  17  8
14  21  8
15  22  8
16  18  8
17  19  8
18  20  8
19  20  8
21  23  8
22  23  8
$$$$
