500023
  -OEChem-10302200282D
 68 72  0     1  0  0  0  0  0999 V2000
    6.7975    0.9405    0.0000 O   0  0  0  0  0  0  0  0  0  0  0  0
    7.4252   -1.9063    0.0000 O   0  0  0  0  0  0  0  0  0  0  0  0
    4.7789    1.6441    0.0000 O   0  0  0  0  0  0  0  0  0  0  0  0
    6.5109    2.6441    0.0000 O   0  0  0  0  0  0  0  0  0  0  0  0
    9.1387    0.1796    0.0000 O   0  0  0  0  0  0  0  0  0  0  0  0
    3.8273    1.2011    0.0000 O   0  0  0  0  0  0  0  0  0  0  0  0
    9.1868   -1.8589    0.0000 O   0  0  0  0  0  0  0  0  0  0  0  0
    2.0000    0.1834    0.0000 O   0  0  0  0  0  0  0  0  0  0  0  0
   10.0455   -1.2961    0.0000 O   0  0  0  0  0  0  0  0  0  0  0  0
    6.5109   -0.3559    0.0000 C   0  0  3  0  0  0  0  0  0  0  0  0
    5.6449    0.1441    0.0000 C   0  0  3  0  0  0  0  0  0  0  0  0
    7.3770    0.1441    0.0000 C   0  0  3  0  0  0  0  0  0  0  0  0
    4.7349   -0.3628    0.0000 C   0  0  3  0  0  0  0  0  0  0  0  0
    7.3770    1.1441    0.0000 C   0  0  3  0  0  0  0  0  0  0  0  0
    6.5270   -1.3974    0.0000 C   0  0  3  0  0  0  0  0  0  0  0  0
    5.6449    1.1441    0.0000 C   0  0  3  0  0  0  0  0  0  0  0  0
    6.3975    0.2477    0.0000 C   0  0  0  0  0  0  0  0  0  0  0  0
    4.7269   -1.4044    0.0000 C   0  0  3  0  0  0  0  0  0  0  0  0
    6.5109    1.6441    0.0000 C   0  0  3  0  0  0  0  0  0  0  0  0
    5.6290   -1.9252    0.0000 C   0  0  0  0  0  0  0  0  0  0  0  0
    8.2867   -0.3439    0.0000 C   0  0  3  0  0  0  0  0  0  0  0  0
    3.8081    0.2013    0.0000 C   0  0  3  0  0  0  0  0  0  0  0  0
    4.7426    0.6372    0.0000 C   0  0  0  0  0  0  0  0  0  0  0  0
    7.8770    2.0101    0.0000 C   0  0  0  0  0  0  0  0  0  0  0  0
    3.7914   -1.9541    0.0000 C   0  0  0  0  0  0  0  0  0  0  0  0
    8.3110   -1.3760    0.0000 C   0  0  0  0  0  0  0  0  0  0  0  0
    2.8602   -0.3266    0.0000 C   0  0  0  0  0  0  0  0  0  0  0  0
    2.8518   -1.4116    0.0000 C   0  0  0  0  0  0  0  0  0  0  0  0
    3.7953   -2.9541    0.0000 C   0  0  0  0  0  0  0  0  0  0  0  0
   10.0181   -0.2965    0.0000 C   0  0  0  0  0  0  0  0  0  0  0  0
   10.8701    0.2271    0.0000 C   0  0  3  0  0  0  0  0  0  0  0  0
   11.7495   -0.2490    0.0000 C   0  0  0  0  0  0  0  0  0  0  0  0
   10.8427    1.2267    0.0000 C   0  0  0  0  0  0  0  0  0  0  0  0
   12.6015    0.2745    0.0000 C   0  0  0  0  0  0  0  0  0  0  0  0
    6.1818    0.4541    0.0000 H   0  0  0  0  0  0  0  0  0  0  0  0
    7.9090    0.4624    0.0000 H   0  0  0  0  0  0  0  0  0  0  0  0
    6.5319   -2.0174    0.0000 H   0  0  0  0  0  0  0  0  0  0  0  0
    5.6449    1.7641    0.0000 H   0  0  0  0  0  0  0  0  0  0  0  0
    5.9704    0.6971    0.0000 H   0  0  0  0  0  0  0  0  0  0  0  0
    5.8456   -0.0347    0.0000 H   0  0  0  0  0  0  0  0  0  0  0  0
    4.7293   -2.0244    0.0000 H   0  0  0  0  0  0  0  0  0  0  0  0
    7.0479    1.9541    0.0000 H   0  0  0  0  0  0  0  0  0  0  0  0
    5.2316   -2.4012    0.0000 H   0  0  0  0  0  0  0  0  0  0  0  0
    6.0299   -2.3981    0.0000 H   0  0  0  0  0  0  0  0  0  0  0  0
    8.8314   -0.6402    0.0000 H   0  0  0  0  0  0  0  0  0  0  0  0
    4.3515    0.4999    0.0000 H   0  0  0  0  0  0  0  0  0  0  0  0
    5.3626    0.6324    0.0000 H   0  0  0  0  0  0  0  0  0  0  0  0
    4.7474    1.2572    0.0000 H   0  0  0  0  0  0  0  0  0  0  0  0
    4.1226    0.6420    0.0000 H   0  0  0  0  0  0  0  0  0  0  0  0
    8.4139    1.7001    0.0000 H   0  0  0  0  0  0  0  0  0  0  0  0
    8.1870    2.5470    0.0000 H   0  0  0  0  0  0  0  0  0  0  0  0
    7.3400    2.3201    0.0000 H   0  0  0  0  0  0  0  0  0  0  0  0
    4.7789    2.2641    0.0000 H   0  0  0  0  0  0  0  0  0  0  0  0
    7.0479    2.9541    0.0000 H   0  0  0  0  0  0  0  0  0  0  0  0
    2.3137   -1.7195    0.0000 H   0  0  0  0  0  0  0  0  0  0  0  0
    3.2965    1.5214    0.0000 H   0  0  0  0  0  0  0  0  0  0  0  0
    3.1753   -2.9565    0.0000 H   0  0  0  0  0  0  0  0  0  0  0  0
    3.7977   -3.5741    0.0000 H   0  0  0  0  0  0  0  0  0  0  0  0
    4.4153   -2.9517    0.0000 H   0  0  0  0  0  0  0  0  0  0  0  0
   11.3984    0.5517    0.0000 H   0  0  0  0  0  0  0  0  0  0  0  0
   11.3642   -0.7347    0.0000 H   0  0  0  0  0  0  0  0  0  0  0  0
   12.1609   -0.7129    0.0000 H   0  0  0  0  0  0  0  0  0  0  0  0
   11.4625    1.2437    0.0000 H   0  0  0  0  0  0  0  0  0  0  0  0
   10.8258    1.8465    0.0000 H   0  0  0  0  0  0  0  0  0  0  0  0
   10.2230    1.2097    0.0000 H   0  0  0  0  0  0  0  0  0  0  0  0
   12.9261   -0.2537    0.0000 H   0  0  0  0  0  0  0  0  0  0  0  0
   13.1298    0.5991    0.0000 H   0  0  0  0  0  0  0  0  0  0  0  0
   12.2770    0.8028    0.0000 H   0  0  0  0  0  0  0  0  0  0  0  0
  1 14  1  0  0  0  0
  1 17  1  0  0  0  0
  2 15  1  0  0  0  0
  2 26  1  0  0  0  0
  3 16  1  0  0  0  0
  3 53  1  0  0  0  0
  4 19  1  0  0  0  0
  4 54  1  0  0  0  0
  5 21  1  0  0  0  0
  5 30  1  0  0  0  0
  6 22  1  0  0  0  0
  6 56  1  0  0  0  0
  7 26  2  0  0  0  0
  8 27  2  0  0  0  0
  9 30  2  0  0  0  0
 10 11  1  0  0  0  0
 10 12  1  0  0  0  0
 10 15  1  0  0  0  0
 10 17  1  0  0  0  0
 11 13  1  0  0  0  0
 11 16  1  0  0  0  0
 11 35  1  0  0  0  0
 12 14  1  0  0  0  0
 12 21  1  0  0  0  0
 12 36  1  0  0  0  0
 13 18  1  0  0  0  0
 13 22  1  0  0  0  0
 13 23  1  0  0  0  0
 14 19  1  0  0  0  0
 14 24  1  0  0  0  0
 15 20  1  0  0  0  0
 15 37  1  0  0  0  0
 16 19  1  0  0  0  0
 16 38  1  0  0  0  0
 17 39  1  0  0  0  0
 17 40  1  0  0  0  0
 18 20  1  0  0  0  0
 18 25  1  0  0  0  0
 18 41  1  0  0  0  0
 19 42  1  0  0  0  0
 20 43  1  0  0  0  0
 20 44  1  0  0  0  0
 21 26  1  0  0  0  0
 21 45  1  0  0  0  0
 22 27  1  0  0  0  0
 22 46  1  0  0  0  0
 23 47  1  0  0  0  0
 23 48  1  0  0  0  0
 23 49  1  0  0  0  0
 24 50  1  0  0  0  0
 24 51  1  0  0  0  0
 24 52  1  0  0  0  0
 25 28  2  0  0  0  0
 25 29  1  0  0  0  0
 27 28  1  0  0  0  0
 28 55  1  0  0  0  0
 29 57  1  0  0  0  0
 29 58  1  0  0  0  0
 29 59  1  0  0  0  0
 30 31  1  0  0  0  0
 31 32  1  0  0  0  0
 31 33  1  0  0  0  0
 31 60  1  0  0  0  0
 32 34  1  0  0  0  0
 32 61  1  0  0  0  0
 32 62  1  0  0  0  0
 33 63  1  0  0  0  0
 33 64  1  0  0  0  0
 33 65  1  0  0  0  0
 34 66  1  0  0  0  0
 34 67  1  0  0  0  0
 34 68  1  0  0  0  0
M  END
> <PUBCHEM_COMPOUND_CID>
500023
> <PUBCHEM_COMPOUND_CANONICALIZED>
1
> <PUBCHEM_CACTVS_COMPLEXITY>
975
> <PUBCHEM_CACTVS_HBOND_ACCEPTOR>
9
> <PUBCHEM_CACTVS_HBOND_DONOR>
3
> <PUBCHEM_CACTVS_ROTATABLE_BOND>
4
> <PUBCHEM_CACTVS_SUBSKEYS>
AAADcfB4PAAAAAAAAAAAAAAAAAAAASAAAAA0YIEABIAAAEjQAAAAGgAACAAAD1SggAICCAAABgCIAqDSCAIAAAAgAAAACAFAAEgBEBIAAQQCQAAFwAALAQPK7PzPgAAAAAAAAADAAAYQADCAAAAAAAAAAA==
> <PUBCHEM_IUPAC_OPENEYE_NAME>
(12,15,16-trihydroxy-9,13,17-trimethyl-4,11-dioxo-5,18-dioxapentacyclo[12.5.0.01,6.02,17.08,13]nonadec-9-en-3-yl) 2-methylbutanoate
> <PUBCHEM_IUPAC_CAS_NAME>
2-methylbutanoic acid (12,15,16-trihydroxy-9,13,17-trimethyl-4,11-dioxo-5,18-dioxapentacyclo[12.5.0.01,6.02,17.08,13]nonadec-9-en-3-yl) ester
> <PUBCHEM_IUPAC_NAME_MARKUP>
(12,15,16-trihydroxy-9,13,17-trimethyl-4,11-dioxo-5,18-dioxapentacyclo[12.5.0.0<SUP>1,6</SUP>.0<SUP>2,17</SUP>.0<SUP>8,13</SUP>]nonadec-9-en-3-yl) 2-methylbutanoate
> <PUBCHEM_IUPAC_NAME>
(12,15,16-trihydroxy-9,13,17-trimethyl-4,11-dioxo-5,18-dioxapentacyclo[12.5.0.01,6.02,17.08,13]nonadec-9-en-3-yl) 2-methylbutanoate
> <PUBCHEM_IUPAC_SYSTEMATIC_NAME>
[9,13,17-trimethyl-12,15,16-tris(oxidanyl)-4,11-bis(oxidanylidene)-5,18-dioxapentacyclo[12.5.0.01,6.02,17.08,13]nonadec-9-en-3-yl] 2-methylbutanoate
> <PUBCHEM_IUPAC_TRADITIONAL_NAME>
2-methylbutyric acid (12,15,16-trihydroxy-4,11-diketo-9,13,17-trimethyl-5,18-dioxapentacyclo[12.5.0.01,6.02,17.08,13]nonadec-9-en-3-yl) ester
> <PUBCHEM_IUPAC_INCHI>
InChI=1S/C25H34O9/c1-6-10(2)21(30)34-16-18-24(5)20(29)15(27)17-23(4)12(11(3)7-13(26)19(23)28)8-14(33-22(16)31)25(17,18)9-32-24/h7,10,12,14-20,27-29H,6,8-9H2,1-5H3
> <PUBCHEM_IUPAC_INCHIKEY>
OKIKYYZNNZCZRX-UHFFFAOYSA-N
> <PUBCHEM_XLOGP3_AA>
0.6
> <PUBCHEM_EXACT_MASS>
478.22028266
> <PUBCHEM_MOLECULAR_FORMULA>
C25H34O9
> <PUBCHEM_MOLECULAR_WEIGHT>
478.5
> <PUBCHEM_OPENEYE_CAN_SMILES>
CCC(C)C(=O)OC1C2C3(C(C(C4C2(CO3)C(CC5C4(C(C(=O)C=C5C)O)C)OC1=O)O)O)C
> <PUBCHEM_OPENEYE_ISO_SMILES>
CCC(C)C(=O)OC1C2C3(C(C(C4C2(CO3)C(CC5C4(C(C(=O)C=C5C)O)C)OC1=O)O)O)C
> <PUBCHEM_CACTVS_TPSA>
140
> <PUBCHEM_MONOISOTOPIC_WEIGHT>
478.22028266
> <PUBCHEM_TOTAL_CHARGE>
0
> <PUBCHEM_HEAVY_ATOM_COUNT>
34
> <PUBCHEM_ATOM_DEF_STEREO_COUNT>
0
> <PUBCHEM_ATOM_UDEF_STEREO_COUNT>
12
> <PUBCHEM_BOND_DEF_STEREO_COUNT>
0
> <PUBCHEM_BOND_UDEF_STEREO_COUNT>
0
> <PUBCHEM_ISOTOPIC_ATOM_COUNT>
0
> <PUBCHEM_COMPONENT_COUNT>
1
> <PUBCHEM_CACTVS_TAUTO_COUNT>
-1
> <PUBCHEM_COORDINATE_TYPE>
1
5
255
> <PUBCHEM_BONDANNOTATIONS>
10  17  3
11  16  3
12  21  3
13  23  3
14  24  3
15  20  3
18  20  3
16  3  3
31  33  3
19  4  3
21  5  3
22  6  3
$$$$
