500084
  -OEChem-10302200282D
 46 49  0     1  0  0  0  0  0999 V2000
    2.0000   -0.1876    0.0000 Cl  0  0  0  0  0  0  0  0  0  0  0  0
    5.2369    0.5687    0.0000 O   0  0  0  0  0  0  0  0  0  0  0  0
    6.8940   -1.8304    0.0000 O   0  0  0  0  0  0  0  0  0  0  0  0
    7.9853   -0.9007    0.0000 O   0  0  0  0  0  0  0  0  0  0  0  0
    5.5443   -1.9923    0.0000 N   0  0  0  0  0  0  0  0  0  0  0  0
    5.5443   -0.3829    0.0000 C   0  0  3  0  0  0  0  0  0  0  0  0
    6.3543    0.2035    0.0000 C   0  0  3  0  0  0  0  0  0  0  0  0
    4.5981   -0.6876    0.0000 C   0  0  0  0  0  0  0  0  0  0  0  0
    4.5981   -1.6876    0.0000 C   0  0  0  0  0  0  0  0  0  0  0  0
    6.1279   -1.1876    0.0000 C   0  0  0  0  0  0  0  0  0  0  0  0
    6.2515    1.1982    0.0000 C   0  0  0  0  0  0  0  0  0  0  0  0
    7.2672   -0.2048    0.0000 C   0  0  0  0  0  0  0  0  0  0  0  0
    3.7320   -0.1876    0.0000 C   0  0  0  0  0  0  0  0  0  0  0  0
    3.7320   -2.1876    0.0000 C   0  0  0  0  0  0  0  0  0  0  0  0
    2.8660   -0.6876    0.0000 C   0  0  0  0  0  0  0  0  0  0  0  0
    2.8660   -1.6876    0.0000 C   0  0  0  0  0  0  0  0  0  0  0  0
    8.0772    0.3816    0.0000 C   0  0  0  0  0  0  0  0  0  0  0  0
    5.3387    1.6065    0.0000 C   0  0  0  0  0  0  0  0  0  0  0  0
    7.0616    1.7846    0.0000 C   0  0  0  0  0  0  0  0  0  0  0  0
    3.7320   -3.1876    0.0000 C   0  0  0  0  0  0  0  0  0  0  0  0
    5.2359    2.6012    0.0000 C   0  0  0  0  0  0  0  0  0  0  0  0
    6.9588    2.7793    0.0000 C   0  0  0  0  0  0  0  0  0  0  0  0
    7.9744    1.3763    0.0000 C   0  0  0  0  0  0  0  0  0  0  0  0
    8.9900   -0.0267    0.0000 C   0  0  0  0  0  0  0  0  0  0  0  0
    6.0459    3.1876    0.0000 C   0  0  0  0  0  0  0  0  0  0  0  0
    8.7844    1.9627    0.0000 C   0  0  0  0  0  0  0  0  0  0  0  0
    9.6973    1.5543    0.0000 C   0  0  0  0  0  0  0  0  0  0  0  0
    9.8001    0.5596    0.0000 C   0  0  0  0  0  0  0  0  0  0  0  0
    6.8566    0.5671    0.0000 H   0  0  0  0  0  0  0  0  0  0  0  0
    5.7369   -2.5817    0.0000 H   0  0  0  0  0  0  0  0  0  0  0  0
    3.7320    0.4324    0.0000 H   0  0  0  0  0  0  0  0  0  0  0  0
    4.6307    0.6987    0.0000 H   0  0  0  0  0  0  0  0  0  0  0  0
    2.3291   -1.9976    0.0000 H   0  0  0  0  0  0  0  0  0  0  0  0
    4.8365    1.2430    0.0000 H   0  0  0  0  0  0  0  0  0  0  0  0
    7.6275    1.5314    0.0000 H   0  0  0  0  0  0  0  0  0  0  0  0
    3.1120   -3.1876    0.0000 H   0  0  0  0  0  0  0  0  0  0  0  0
    3.7320   -3.8076    0.0000 H   0  0  0  0  0  0  0  0  0  0  0  0
    4.3520   -3.1876    0.0000 H   0  0  0  0  0  0  0  0  0  0  0  0
    4.6699    2.8544    0.0000 H   0  0  0  0  0  0  0  0  0  0  0  0
    7.4610    3.1428    0.0000 H   0  0  0  0  0  0  0  0  0  0  0  0
    7.4084    1.6294    0.0000 H   0  0  0  0  0  0  0  0  0  0  0  0
    9.0538   -0.6435    0.0000 H   0  0  0  0  0  0  0  0  0  0  0  0
    5.9822    3.8043    0.0000 H   0  0  0  0  0  0  0  0  0  0  0  0
    9.1320    2.4761    0.0000 H   0  0  0  0  0  0  0  0  0  0  0  0
    8.3392    2.3941    0.0000 H   0  0  0  0  0  0  0  0  0  0  0  0
   10.1995    1.9179    0.0000 H   0  0  0  0  0  0  0  0  0  0  0  0
  1 15  1  0  0  0  0
  2  6  1  0  0  0  0
  2 32  1  0  0  0  0
  3 10  2  0  0  0  0
  4 12  2  0  0  0  0
  5  9  1  0  0  0  0
  5 10  1  0  0  0  0
  5 30  1  0  0  0  0
  6  7  1  0  0  0  0
  6  8  1  0  0  0  0
  6 10  1  0  0  0  0
  7 11  1  0  0  0  0
  7 12  1  0  0  0  0
  7 29  1  0  0  0  0
  8  9  2  0  0  0  0
  8 13  1  0  0  0  0
  9 14  1  0  0  0  0
 11 18  2  0  0  0  0
 11 19  1  0  0  0  0
 12 17  1  0  0  0  0
 13 15  2  0  0  0  0
 13 31  1  0  0  0  0
 14 16  2  0  0  0  0
 14 20  1  0  0  0  0
 15 16  1  0  0  0  0
 16 33  1  0  0  0  0
 17 23  2  0  0  0  0
 17 24  1  0  0  0  0
 18 21  1  0  0  0  0
 18 34  1  0  0  0  0
 19 22  2  0  0  0  0
 19 35  1  0  0  0  0
 20 36  1  0  0  0  0
 20 37  1  0  0  0  0
 20 38  1  0  0  0  0
 21 25  2  0  0  0  0
 21 39  1  0  0  0  0
 22 25  1  0  0  0  0
 22 40  1  0  0  0  0
 23 26  1  0  0  0  0
 23 41  1  0  0  0  0
 24 28  2  0  0  0  0
 24 42  1  0  0  0  0
 25 43  1  0  0  0  0
 26 27  1  0  0  0  0
 26 44  1  0  0  0  0
 26 45  1  0  0  0  0
 27 28  2  0  0  0  0
 27 46  1  0  0  0  0
M  END
> <PUBCHEM_COMPOUND_CID>
500084
> <PUBCHEM_COMPOUND_CANONICALIZED>
0
> <PUBCHEM_CACTVS_COMPLEXITY>
747
> <PUBCHEM_CACTVS_HBOND_ACCEPTOR>
3
> <PUBCHEM_CACTVS_HBOND_DONOR>
2
> <PUBCHEM_CACTVS_ROTATABLE_BOND>
4
> <PUBCHEM_CACTVS_SUBSKEYS>
AAADceB6MAAEAAAAAAAAAAAAAAAAAWAAAAAwYIAAAAAAAFgBQAAAHgIQCAAADU6BmCAywILAAgCIAqVSUAKCAAAhBQAIiAFATsgKJjbBl5GEcAhm5AHY2YedyeCegABCIAACAAAAAIRAAAQAAAAAAAAAAA==
> <PUBCHEM_IUPAC_INCHI>
InChI=1S/C23H18ClNO3/c1-14-12-17(24)13-18-20(14)25-22(27)23(18,28)19(15-8-4-2-5-9-15)21(26)16-10-6-3-7-11-16/h2-5,8-13,19,28H,6H2,1H3,(H,25,27)
> <PUBCHEM_IUPAC_INCHIKEY>
LWLQRDQENYMWAO-UHFFFAOYSA-N
> <PUBCHEM_XLOGP3_AA>
3.9
> <PUBCHEM_EXACT_MASS>
391.0975211
> <PUBCHEM_MOLECULAR_FORMULA>
C23H18ClNO3
> <PUBCHEM_MOLECULAR_WEIGHT>
391.8
> <PUBCHEM_OPENEYE_CAN_SMILES>
CC1=CC(=CC2=C1NC(=O)C2(C(C3=CC=CC=C3)C(=O)C4=CCC=C=C4)O)Cl
> <PUBCHEM_OPENEYE_ISO_SMILES>
CC1=CC(=CC2=C1NC(=O)C2(C(C3=CC=CC=C3)C(=O)C4=CCC=C=C4)O)Cl
> <PUBCHEM_CACTVS_TPSA>
66.4
> <PUBCHEM_MONOISOTOPIC_WEIGHT>
391.0975211
> <PUBCHEM_TOTAL_CHARGE>
0
> <PUBCHEM_HEAVY_ATOM_COUNT>
28
> <PUBCHEM_ATOM_DEF_STEREO_COUNT>
0
> <PUBCHEM_ATOM_UDEF_STEREO_COUNT>
2
> <PUBCHEM_BOND_DEF_STEREO_COUNT>
0
> <PUBCHEM_BOND_UDEF_STEREO_COUNT>
0
> <PUBCHEM_ISOTOPIC_ATOM_COUNT>
0
> <PUBCHEM_COMPONENT_COUNT>
1
> <PUBCHEM_CACTVS_TAUTO_COUNT>
-1
> <PUBCHEM_COORDINATE_TYPE>
1
5
255
> <PUBCHEM_BONDANNOTATIONS>
11  18  8
11  19  8
13  15  8
14  16  8
15  16  8
18  21  8
19  22  8
6  2  3
21  25  8
22  25  8
7  12  3
8  13  8
8  9  8
9  14  8
$$$$
