500035
  -OEChem-10302200282D
 52 54  0     1  0  0  0  0  0999 V2000
    8.4282    3.0194    0.0000 S   0  0  0  0  0  0  0  0  0  0  0  0
    4.5981   -1.0194    0.0000 S   0  0  0  0  0  0  0  0  0  0  0  0
    7.1681    1.7594    0.0000 S   0  0  0  0  0  0  0  0  0  0  0  0
    9.7942   -0.0194    0.0000 O   0  0  0  0  0  0  0  0  0  0  0  0
    5.4641   -2.5194    0.0000 O   0  0  0  0  0  0  0  0  0  0  0  0
   11.4314    2.4285    0.0000 O   0  0  0  0  0  0  0  0  0  0  0  0
   10.8962    0.7812    0.0000 O   0  0  0  0  0  0  0  0  0  0  0  0
    8.9282    1.4806    0.0000 N   0  0  0  0  0  0  0  0  0  0  0  0
    8.0622   -1.0194    0.0000 C   0  0  3  0  0  0  0  0  0  0  0  0
    7.1962   -1.5194    0.0000 C   0  0  3  0  0  0  0  0  0  0  0  0
    8.9282   -1.5194    0.0000 C   0  0  0  0  0  0  0  0  0  0  0  0
    7.1962   -2.5194    0.0000 C   0  0  0  0  0  0  0  0  0  0  0  0
    8.0622   -0.0194    0.0000 C   0  0  0  0  0  0  0  0  0  0  0  0
    6.3301   -1.0194    0.0000 C   0  0  0  0  0  0  0  0  0  0  0  0
    8.9282   -2.5194    0.0000 C   0  0  0  0  0  0  0  0  0  0  0  0
    8.0622   -3.0194    0.0000 C   0  0  0  0  0  0  0  0  0  0  0  0
    8.9282    0.4806    0.0000 C   0  0  0  0  0  0  0  0  0  0  0  0
    9.7372    2.0684    0.0000 C   0  0  3  0  0  0  0  0  0  0  0  0
    5.4641   -1.5194    0.0000 C   0  0  0  0  0  0  0  0  0  0  0  0
    9.4282    3.0194    0.0000 C   0  0  0  0  0  0  0  0  0  0  0  0
    8.1192    2.0684    0.0000 C   0  0  0  0  0  0  0  0  0  0  0  0
   10.6883    1.7594    0.0000 C   0  0  0  0  0  0  0  0  0  0  0  0
    3.7320   -1.5194    0.0000 C   0  0  0  0  0  0  0  0  0  0  0  0
    3.7320   -2.5194    0.0000 C   0  0  0  0  0  0  0  0  0  0  0  0
    2.8660   -1.0194    0.0000 C   0  0  0  0  0  0  0  0  0  0  0  0
   12.3825    2.1195    0.0000 C   0  0  0  0  0  0  0  0  0  0  0  0
    2.8660   -3.0194    0.0000 C   0  0  0  0  0  0  0  0  0  0  0  0
    2.0000   -1.5194    0.0000 C   0  0  0  0  0  0  0  0  0  0  0  0
    2.0000   -2.5194    0.0000 C   0  0  0  0  0  0  0  0  0  0  0  0
    7.5252   -0.7094    0.0000 H   0  0  0  0  0  0  0  0  0  0  0  0
    6.6592   -1.8294    0.0000 H   0  0  0  0  0  0  0  0  0  0  0  0
    9.5388   -1.6271    0.0000 H   0  0  0  0  0  0  0  0  0  0  0  0
    9.1403   -0.9368    0.0000 H   0  0  0  0  0  0  0  0  0  0  0  0
    6.5856   -2.4118    0.0000 H   0  0  0  0  0  0  0  0  0  0  0  0
    6.9841   -3.1020    0.0000 H   0  0  0  0  0  0  0  0  0  0  0  0
    7.8501    0.5632    0.0000 H   0  0  0  0  0  0  0  0  0  0  0  0
    7.4516   -0.1271    0.0000 H   0  0  0  0  0  0  0  0  0  0  0  0
    6.7287   -0.5445    0.0000 H   0  0  0  0  0  0  0  0  0  0  0  0
    5.9316   -0.5445    0.0000 H   0  0  0  0  0  0  0  0  0  0  0  0
    9.4651   -2.8294    0.0000 H   0  0  0  0  0  0  0  0  0  0  0  0
    8.0622   -3.6394    0.0000 H   0  0  0  0  0  0  0  0  0  0  0  0
    9.8342    1.4560    0.0000 H   0  0  0  0  0  0  0  0  0  0  0  0
   10.0347    3.1483    0.0000 H   0  0  0  0  0  0  0  0  0  0  0  0
    9.3634    3.6360    0.0000 H   0  0  0  0  0  0  0  0  0  0  0  0
    4.2690   -2.8294    0.0000 H   0  0  0  0  0  0  0  0  0  0  0  0
    2.8660   -0.3994    0.0000 H   0  0  0  0  0  0  0  0  0  0  0  0
   12.1909    1.5298    0.0000 H   0  0  0  0  0  0  0  0  0  0  0  0
   12.9721    1.9279    0.0000 H   0  0  0  0  0  0  0  0  0  0  0  0
   12.5741    2.7091    0.0000 H   0  0  0  0  0  0  0  0  0  0  0  0
    2.8660   -3.6394    0.0000 H   0  0  0  0  0  0  0  0  0  0  0  0
    1.4631   -1.2094    0.0000 H   0  0  0  0  0  0  0  0  0  0  0  0
    1.4631   -2.8294    0.0000 H   0  0  0  0  0  0  0  0  0  0  0  0
  1 20  1  0  0  0  0
  1 21  1  0  0  0  0
  2 19  1  0  0  0  0
  2 23  1  0  0  0  0
  3 21  2  0  0  0  0
  4 17  2  0  0  0  0
  5 19  2  0  0  0  0
  6 22  1  0  0  0  0
  6 26  1  0  0  0  0
  7 22  2  0  0  0  0
  8 17  1  0  0  0  0
  8 18  1  0  0  0  0
  8 21  1  0  0  0  0
  9 10  1  0  0  0  0
  9 11  1  0  0  0  0
  9 13  1  0  0  0  0
  9 30  1  0  0  0  0
 10 12  1  0  0  0  0
 10 14  1  0  0  0  0
 10 31  1  0  0  0  0
 11 15  1  0  0  0  0
 11 32  1  0  0  0  0
 11 33  1  0  0  0  0
 12 16  1  0  0  0  0
 12 34  1  0  0  0  0
 12 35  1  0  0  0  0
 13 17  1  0  0  0  0
 13 36  1  0  0  0  0
 13 37  1  0  0  0  0
 14 19  1  0  0  0  0
 14 38  1  0  0  0  0
 14 39  1  0  0  0  0
 15 16  2  0  0  0  0
 15 40  1  0  0  0  0
 16 41  1  0  0  0  0
 18 20  1  0  0  0  0
 18 22  1  0  0  0  0
 18 42  1  0  0  0  0
 20 43  1  0  0  0  0
 20 44  1  0  0  0  0
 23 24  2  0  0  0  0
 23 25  1  0  0  0  0
 24 27  1  0  0  0  0
 24 45  1  0  0  0  0
 25 28  2  0  0  0  0
 25 46  1  0  0  0  0
 26 47  1  0  0  0  0
 26 48  1  0  0  0  0
 26 49  1  0  0  0  0
 27 29  2  0  0  0  0
 27 50  1  0  0  0  0
 28 29  1  0  0  0  0
 28 51  1  0  0  0  0
 29 52  1  0  0  0  0
M  END
> <PUBCHEM_COMPOUND_CID>
500035
> <PUBCHEM_COMPOUND_CANONICALIZED>
1
> <PUBCHEM_CACTVS_COMPLEXITY>
675
> <PUBCHEM_CACTVS_HBOND_ACCEPTOR>
7
> <PUBCHEM_CACTVS_HBOND_DONOR>
0
> <PUBCHEM_CACTVS_ROTATABLE_BOND>
8
> <PUBCHEM_CACTVS_SUBSKEYS>
AAADceB6OABgAAAAAAAAAAAAAAAAAWAAAAAwQAAAAAAAAAABAAAAHgQAAAAADSjF0AayCYMABAiMACHSGAACAABgCBgIiBmIAIgKIDKgkTCFIAAghgC4iAcYCAAOgAAAAAAAAAAAAAAAAAAAAAAAAAAAAA==
> <PUBCHEM_IUPAC_OPENEYE_NAME>
methyl 3-[2-[6-(2-oxo-2-phenylsulfanyl-ethyl)cyclohex-3-en-1-yl]acetyl]-2-thioxo-thiazolidine-4-carboxylate
> <PUBCHEM_IUPAC_CAS_NAME>
3-[1-oxo-2-[6-[2-oxo-2-(phenylthio)ethyl]-1-cyclohex-3-enyl]ethyl]-2-sulfanylidene-4-thiazolidinecarboxylic acid methyl ester
> <PUBCHEM_IUPAC_NAME_MARKUP>
methyl 3-[2-[6-(2-oxo-2-phenylsulfanylethyl)cyclohex-3-en-1-yl]acetyl]-2-sulfanylidene-1,3-thiazolidine-4-carboxylate
> <PUBCHEM_IUPAC_NAME>
methyl 3-[2-[6-(2-oxo-2-phenylsulfanylethyl)cyclohex-3-en-1-yl]acetyl]-2-sulfanylidene-1,3-thiazolidine-4-carboxylate
> <PUBCHEM_IUPAC_SYSTEMATIC_NAME>
methyl 3-[2-[6-(2-oxidanylidene-2-phenylsulfanyl-ethyl)cyclohex-3-en-1-yl]ethanoyl]-2-sulfanylidene-1,3-thiazolidine-4-carboxylate
> <PUBCHEM_IUPAC_TRADITIONAL_NAME>
3-[2-[6-[2-keto-2-(phenylthio)ethyl]cyclohex-3-en-1-yl]acetyl]-2-thioxo-thiazolidine-4-carboxylic acid methyl ester
> <PUBCHEM_IUPAC_INCHI>
InChI=1S/C21H23NO4S3/c1-26-20(25)17-13-28-21(27)22(17)18(23)11-14-7-5-6-8-15(14)12-19(24)29-16-9-3-2-4-10-16/h2-6,9-10,14-15,17H,7-8,11-13H2,1H3
> <PUBCHEM_IUPAC_INCHIKEY>
LXEGAFANKHTMTD-UHFFFAOYSA-N
> <PUBCHEM_XLOGP3_AA>
4.3
> <PUBCHEM_EXACT_MASS>
449.07892174
> <PUBCHEM_MOLECULAR_FORMULA>
C21H23NO4S3
> <PUBCHEM_MOLECULAR_WEIGHT>
449.6
> <PUBCHEM_OPENEYE_CAN_SMILES>
COC(=O)C1CSC(=S)N1C(=O)CC2CC=CCC2CC(=O)SC3=CC=CC=C3
> <PUBCHEM_OPENEYE_ISO_SMILES>
COC(=O)C1CSC(=S)N1C(=O)CC2CC=CCC2CC(=O)SC3=CC=CC=C3
> <PUBCHEM_CACTVS_TPSA>
146
> <PUBCHEM_MONOISOTOPIC_WEIGHT>
449.07892174
> <PUBCHEM_TOTAL_CHARGE>
0
> <PUBCHEM_HEAVY_ATOM_COUNT>
29
> <PUBCHEM_ATOM_DEF_STEREO_COUNT>
0
> <PUBCHEM_ATOM_UDEF_STEREO_COUNT>
3
> <PUBCHEM_BOND_DEF_STEREO_COUNT>
0
> <PUBCHEM_BOND_UDEF_STEREO_COUNT>
0
> <PUBCHEM_ISOTOPIC_ATOM_COUNT>
0
> <PUBCHEM_COMPONENT_COUNT>
1
> <PUBCHEM_CACTVS_TAUTO_COUNT>
-1
> <PUBCHEM_COORDINATE_TYPE>
1
5
255
> <PUBCHEM_BONDANNOTATIONS>
10  14  3
18  22  3
23  24  8
23  25  8
24  27  8
25  28  8
27  29  8
28  29  8
9  13  3
$$$$
