500132
  -OEChem-10302200282D
 31 33  0     1  0  0  0  0  0999 V2000
    6.7094   -1.0089    0.0000 O   0  0  0  0  0  0  0  0  0  0  0  0
    6.3758   -2.5922    0.0000 O   0  0  0  0  0  0  0  0  0  0  0  0
    9.2992   -1.6855    0.0000 O   0  0  0  0  0  0  0  0  0  0  0  0
    4.6783   -0.5226    0.0000 N   0  0  0  0  0  0  0  0  0  0  0  0
    4.6783    1.0869    0.0000 N   0  0  0  0  0  0  0  0  0  0  0  0
    2.8660   -0.7178    0.0000 N   0  0  0  0  0  0  0  0  0  0  0  0
    2.0000    0.7822    0.0000 N   0  0  0  0  0  0  0  0  0  0  0  0
    2.8660    2.2822    0.0000 N   0  0  0  0  0  0  0  0  0  0  0  0
    5.9674   -1.6793    0.0000 C   0  0  2  0  0  0  0  0  0  0  0  0
    7.5763   -1.5074    0.0000 C   0  0  1  0  0  0  0  0  0  0  0  0
    4.9889   -1.4731    0.0000 C   0  0  0  0  0  0  0  0  0  0  0  0
    7.3701   -2.4859    0.0000 C   0  0  0  0  0  0  0  0  0  0  0  0
    8.4892   -1.0991    0.0000 C   0  0  0  0  0  0  0  0  0  0  0  0
    3.7320   -0.2178    0.0000 C   0  0  0  0  0  0  0  0  0  0  0  0
    5.2619    0.2822    0.0000 C   0  0  0  0  0  0  0  0  0  0  0  0
    3.7320    0.7822    0.0000 C   0  0  0  0  0  0  0  0  0  0  0  0
    2.8660    1.2822    0.0000 C   0  0  0  0  0  0  0  0  0  0  0  0
    2.0000   -0.2178    0.0000 C   0  0  0  0  0  0  0  0  0  0  0  0
    5.5781   -2.1618    0.0000 H   0  0  0  0  0  0  0  0  0  0  0  0
    7.6077   -0.8882    0.0000 H   0  0  0  0  0  0  0  0  0  0  0  0
    4.3751   -1.5604    0.0000 H   0  0  0  0  0  0  0  0  0  0  0  0
    4.9684   -2.0928    0.0000 H   0  0  0  0  0  0  0  0  0  0  0  0
    7.3712   -3.1059    0.0000 H   0  0  0  0  0  0  0  0  0  0  0  0
    7.9868   -2.5497    0.0000 H   0  0  0  0  0  0  0  0  0  0  0  0
    8.9344   -0.6676    0.0000 H   0  0  0  0  0  0  0  0  0  0  0  0
    8.1416   -0.5857    0.0000 H   0  0  0  0  0  0  0  0  0  0  0  0
    5.8819    0.2822    0.0000 H   0  0  0  0  0  0  0  0  0  0  0  0
    9.8652   -1.4323    0.0000 H   0  0  0  0  0  0  0  0  0  0  0  0
    1.4631   -0.5278    0.0000 H   0  0  0  0  0  0  0  0  0  0  0  0
    2.3291    2.5922    0.0000 H   0  0  0  0  0  0  0  0  0  0  0  0
    3.4030    2.5922    0.0000 H   0  0  0  0  0  0  0  0  0  0  0  0
  1  9  1  0  0  0  0
  1 10  1  0  0  0  0
  2  9  1  0  0  0  0
  2 12  1  0  0  0  0
  3 13  1  0  0  0  0
  3 28  1  0  0  0  0
  4 11  1  0  0  0  0
  4 14  1  0  0  0  0
  4 15  1  0  0  0  0
  5 15  2  0  0  0  0
  5 16  1  0  0  0  0
  6 14  2  0  0  0  0
  6 18  1  0  0  0  0
  7 17  1  0  0  0  0
  7 18  2  0  0  0  0
  8 17  1  0  0  0  0
  8 30  1  0  0  0  0
  8 31  1  0  0  0  0
  9 11  1  6  0  0  0
  9 19  1  0  0  0  0
 10 12  1  0  0  0  0
 10 13  1  6  0  0  0
 10 20  1  0  0  0  0
 11 21  1  0  0  0  0
 11 22  1  0  0  0  0
 12 23  1  0  0  0  0
 12 24  1  0  0  0  0
 13 25  1  0  0  0  0
 13 26  1  0  0  0  0
 14 16  1  0  0  0  0
 15 27  1  0  0  0  0
 16 17  2  0  0  0  0
 18 29  1  0  0  0  0
M  END
> <PUBCHEM_COMPOUND_CID>
500132
> <PUBCHEM_COMPOUND_CANONICALIZED>
1
> <PUBCHEM_CACTVS_COMPLEXITY>
295
> <PUBCHEM_CACTVS_HBOND_ACCEPTOR>
7
> <PUBCHEM_CACTVS_HBOND_DONOR>
2
> <PUBCHEM_CACTVS_ROTATABLE_BOND>
3
> <PUBCHEM_CACTVS_SUBSKEYS>
AAADccBzsAAAAAAAAAAAAAAAAAAAAWJAAAAsAAAAAAAAAFgB+AAAHgAQCAAACBzxlwcF+L9MFgCgAQZhZACAgC0REKABUCAoVBCTWABASEA3RAgJAALXACAAAAAAAAAAAAAAAAAAAAAAAAAAAAAAAAAAAA==
> <PUBCHEM_IUPAC_OPENEYE_NAME>
[(2S,4R)-2-[(6-aminopurin-9-yl)methyl]-1,3-dioxolan-4-yl]methanol
> <PUBCHEM_IUPAC_CAS_NAME>
[(2S,4R)-2-[(6-aminopurin-9-yl)methyl]-1,3-dioxolan-4-yl]methanol
> <PUBCHEM_IUPAC_NAME_MARKUP>
[(2<I>S</I>,4<I>R</I>)-2-[(6-aminopurin-9-yl)methyl]-1,3-dioxolan-4-yl]methanol
> <PUBCHEM_IUPAC_NAME>
[(2S,4R)-2-[(6-aminopurin-9-yl)methyl]-1,3-dioxolan-4-yl]methanol
> <PUBCHEM_IUPAC_SYSTEMATIC_NAME>
[(2S,4R)-2-[(6-aminopurin-9-yl)methyl]-1,3-dioxolan-4-yl]methanol
> <PUBCHEM_IUPAC_TRADITIONAL_NAME>
[(2S,4R)-2-(adenin-9-ylmethyl)-1,3-dioxolan-4-yl]methanol
> <PUBCHEM_IUPAC_INCHI>
InChI=1S/C10H13N5O3/c11-9-8-10(13-4-12-9)15(5-14-8)1-7-17-3-6(2-16)18-7/h4-7,16H,1-3H2,(H2,11,12,13)/t6-,7+/m1/s1
> <PUBCHEM_IUPAC_INCHIKEY>
XZOKBTWMQWESAH-RQJHMYQMSA-N
> <PUBCHEM_XLOGP3>
-1.1
> <PUBCHEM_EXACT_MASS>
251.10183929
> <PUBCHEM_MOLECULAR_FORMULA>
C10H13N5O3
> <PUBCHEM_MOLECULAR_WEIGHT>
251.24
> <PUBCHEM_OPENEYE_CAN_SMILES>
C1C(OC(O1)CN2C=NC3=C(N=CN=C32)N)CO
> <PUBCHEM_OPENEYE_ISO_SMILES>
C1[C@H](O[C@H](O1)CN2C=NC3=C(N=CN=C32)N)CO
> <PUBCHEM_CACTVS_TPSA>
108
> <PUBCHEM_MONOISOTOPIC_WEIGHT>
251.10183929
> <PUBCHEM_TOTAL_CHARGE>
0
> <PUBCHEM_HEAVY_ATOM_COUNT>
18
> <PUBCHEM_ATOM_DEF_STEREO_COUNT>
2
> <PUBCHEM_ATOM_UDEF_STEREO_COUNT>
0
> <PUBCHEM_BOND_DEF_STEREO_COUNT>
0
> <PUBCHEM_BOND_UDEF_STEREO_COUNT>
0
> <PUBCHEM_ISOTOPIC_ATOM_COUNT>
0
> <PUBCHEM_COMPONENT_COUNT>
1
> <PUBCHEM_CACTVS_TAUTO_COUNT>
-1
> <PUBCHEM_COORDINATE_TYPE>
1
5
255
> <PUBCHEM_BONDANNOTATIONS>
10  13  6
14  16  8
16  17  8
4  14  8
4  15  8
5  15  8
5  16  8
6  14  8
6  18  8
7  17  8
7  18  8
9  11  6
$$$$
