500121
  -OEChem-10302200282D
 68 74  0     1  0  0  0  0  0999 V2000
    6.6052    1.6118    0.0000 F   0  0  0  0  0  0  0  0  0  0  0  0
   14.9757    2.9127    0.0000 O   0  0  0  0  0  0  0  0  0  0  0  0
    8.3257   -1.3949    0.0000 O   0  0  0  0  0  0  0  0  0  0  0  0
    6.5937   -1.3882    0.0000 N   0  0  0  0  0  0  0  0  0  0  0  0
    7.4655    0.1084    0.0000 N   0  0  0  0  0  0  0  0  0  0  0  0
    5.7334    0.1151    0.0000 N   0  0  0  0  0  0  0  0  0  0  0  0
    4.7548   -2.3698    0.0000 N   0  0  0  0  0  0  0  0  0  0  0  0
   13.7188    1.6574    0.0000 C   0  0  3  0  0  0  0  0  0  0  0  0
   13.7188    0.6574    0.0000 C   0  0  3  0  0  0  0  0  0  0  0  0
   12.8528    0.1574    0.0000 C   0  0  3  0  0  0  0  0  0  0  0  0
   11.9867    0.6574    0.0000 C   0  0  3  0  0  0  0  0  0  0  0  0
   14.6650    1.9622    0.0000 C   0  0  3  0  0  0  0  0  0  0  0  0
   12.8528    2.1574    0.0000 C   0  0  0  0  0  0  0  0  0  0  0  0
   14.6650    0.3527    0.0000 C   0  0  0  0  0  0  0  0  0  0  0  0
   11.9867    1.6574    0.0000 C   0  0  0  0  0  0  0  0  0  0  0  0
   15.2486    1.1574    0.0000 C   0  0  0  0  0  0  0  0  0  0  0  0
   12.8688   -0.8841    0.0000 C   0  0  0  0  0  0  0  0  0  0  0  0
   13.7188    2.6574    0.0000 C   0  0  0  0  0  0  0  0  0  0  0  0
   11.0767    0.1506    0.0000 C   0  0  0  0  0  0  0  0  0  0  0  0
   11.9708   -1.4118    0.0000 C   0  0  0  0  0  0  0  0  0  0  0  0
   11.0687   -0.8910    0.0000 C   0  0  0  0  0  0  0  0  0  0  0  0
   10.1499    0.7147    0.0000 C   0  0  0  0  0  0  0  0  0  0  0  0
   10.1333   -1.4407    0.0000 C   0  0  0  0  0  0  0  0  0  0  0  0
    9.2020    0.1867    0.0000 C   0  0  0  0  0  0  0  0  0  0  0  0
    9.1936   -0.8982    0.0000 C   0  0  0  0  0  0  0  0  0  0  0  0
    7.4616   -0.8915    0.0000 C   0  0  0  0  0  0  0  0  0  0  0  0
    5.7296   -0.8849    0.0000 C   0  0  0  0  0  0  0  0  0  0  0  0
    6.6014    0.6118    0.0000 C   0  0  0  0  0  0  0  0  0  0  0  0
    4.8616   -1.3815    0.0000 C   0  0  0  0  0  0  0  0  0  0  0  0
    3.9554   -0.9729    0.0000 C   0  0  0  0  0  0  0  0  0  0  0  0
    3.2847   -1.7146    0.0000 C   0  0  0  0  0  0  0  0  0  0  0  0
    3.7822   -2.5753    0.0000 C   0  0  0  0  0  0  0  0  0  0  0  0
    3.6484   -0.0212    0.0000 C   0  0  0  0  0  0  0  0  0  0  0  0
    5.4965   -3.0406    0.0000 C   0  0  0  0  0  0  0  0  0  0  0  0
    2.3070   -1.5046    0.0000 C   0  0  0  0  0  0  0  0  0  0  0  0
    2.6707    0.1888    0.0000 C   0  0  0  0  0  0  0  0  0  0  0  0
    2.0000   -0.5529    0.0000 C   0  0  0  0  0  0  0  0  0  0  0  0
   13.7844    0.0409    0.0000 H   0  0  0  0  0  0  0  0  0  0  0  0
   13.3921   -0.1484    0.0000 H   0  0  0  0  0  0  0  0  0  0  0  0
   12.5237    0.9674    0.0000 H   0  0  0  0  0  0  0  0  0  0  0  0
   15.2775    2.0584    0.0000 H   0  0  0  0  0  0  0  0  0  0  0  0
   13.2513    2.6324    0.0000 H   0  0  0  0  0  0  0  0  0  0  0  0
   12.4542    2.6324    0.0000 H   0  0  0  0  0  0  0  0  0  0  0  0
   14.4140   -0.2142    0.0000 H   0  0  0  0  0  0  0  0  0  0  0  0
   15.2024    0.0435    0.0000 H   0  0  0  0  0  0  0  0  0  0  0  0
   11.7747    2.2401    0.0000 H   0  0  0  0  0  0  0  0  0  0  0  0
   11.3762    1.5498    0.0000 H   0  0  0  0  0  0  0  0  0  0  0  0
   15.7095    0.7427    0.0000 H   0  0  0  0  0  0  0  0  0  0  0  0
   15.7095    1.5722    0.0000 H   0  0  0  0  0  0  0  0  0  0  0  0
   13.0869   -1.4645    0.0000 H   0  0  0  0  0  0  0  0  0  0  0  0
   13.4780   -0.7686    0.0000 H   0  0  0  0  0  0  0  0  0  0  0  0
   14.3388    2.6574    0.0000 H   0  0  0  0  0  0  0  0  0  0  0  0
   13.7188    3.2774    0.0000 H   0  0  0  0  0  0  0  0  0  0  0  0
   13.0988    2.6574    0.0000 H   0  0  0  0  0  0  0  0  0  0  0  0
   11.5735   -1.8878    0.0000 H   0  0  0  0  0  0  0  0  0  0  0  0
   12.3717   -1.8847    0.0000 H   0  0  0  0  0  0  0  0  0  0  0  0
   15.5823    3.0406    0.0000 H   0  0  0  0  0  0  0  0  0  0  0  0
   10.1618    1.3346    0.0000 H   0  0  0  0  0  0  0  0  0  0  0  0
   10.1357   -2.0607    0.0000 H   0  0  0  0  0  0  0  0  0  0  0  0
    8.6687    0.5029    0.0000 H   0  0  0  0  0  0  0  0  0  0  0  0
    3.5298   -3.1416    0.0000 H   0  0  0  0  0  0  0  0  0  0  0  0
    4.0642    0.4387    0.0000 H   0  0  0  0  0  0  0  0  0  0  0  0
    5.0806   -3.5004    0.0000 H   0  0  0  0  0  0  0  0  0  0  0  0
    5.9563   -3.4564    0.0000 H   0  0  0  0  0  0  0  0  0  0  0  0
    5.9123   -2.5807    0.0000 H   0  0  0  0  0  0  0  0  0  0  0  0
    1.8912   -1.9645    0.0000 H   0  0  0  0  0  0  0  0  0  0  0  0
    2.4804    0.7788    0.0000 H   0  0  0  0  0  0  0  0  0  0  0  0
    1.3938   -0.4228    0.0000 H   0  0  0  0  0  0  0  0  0  0  0  0
  1 28  1  0  0  0  0
  2 12  1  0  0  0  0
  2 57  1  0  0  0  0
  3 25  1  0  0  0  0
  3 26  1  0  0  0  0
  4 26  1  0  0  0  0
  4 27  2  0  0  0  0
  5 26  2  0  0  0  0
  5 28  1  0  0  0  0
  6 27  1  0  0  0  0
  6 28  2  0  0  0  0
  7 29  1  0  0  0  0
  7 32  1  0  0  0  0
  7 34  1  0  0  0  0
  8  9  1  0  0  0  0
  8 12  1  0  0  0  0
  8 13  1  0  0  0  0
  8 18  1  0  0  0  0
  9 10  1  0  0  0  0
  9 14  1  0  0  0  0
  9 38  1  0  0  0  0
 10 11  1  0  0  0  0
 10 17  1  0  0  0  0
 10 39  1  0  0  0  0
 11 15  1  0  0  0  0
 11 19  1  0  0  0  0
 11 40  1  0  0  0  0
 12 16  1  0  0  0  0
 12 41  1  0  0  0  0
 13 15  1  0  0  0  0
 13 42  1  0  0  0  0
 13 43  1  0  0  0  0
 14 16  1  0  0  0  0
 14 44  1  0  0  0  0
 14 45  1  0  0  0  0
 15 46  1  0  0  0  0
 15 47  1  0  0  0  0
 16 48  1  0  0  0  0
 16 49  1  0  0  0  0
 17 20  1  0  0  0  0
 17 50  1  0  0  0  0
 17 51  1  0  0  0  0
 18 52  1  0  0  0  0
 18 53  1  0  0  0  0
 18 54  1  0  0  0  0
 19 21  2  0  0  0  0
 19 22  1  0  0  0  0
 20 21  1  0  0  0  0
 20 55  1  0  0  0  0
 20 56  1  0  0  0  0
 21 23  1  0  0  0  0
 22 24  2  0  0  0  0
 22 58  1  0  0  0  0
 23 25  2  0  0  0  0
 23 59  1  0  0  0  0
 24 25  1  0  0  0  0
 24 60  1  0  0  0  0
 27 29  1  0  0  0  0
 29 30  2  0  0  0  0
 30 31  1  0  0  0  0
 30 33  1  0  0  0  0
 31 32  2  0  0  0  0
 31 35  1  0  0  0  0
 32 61  1  0  0  0  0
 33 36  2  0  0  0  0
 33 62  1  0  0  0  0
 34 63  1  0  0  0  0
 34 64  1  0  0  0  0
 34 65  1  0  0  0  0
 35 37  2  0  0  0  0
 35 66  1  0  0  0  0
 36 37  1  0  0  0  0
 36 67  1  0  0  0  0
 37 68  1  0  0  0  0
M  END
> <PUBCHEM_COMPOUND_CID>
500121
> <PUBCHEM_COMPOUND_CANONICALIZED>
1
> <PUBCHEM_CACTVS_COMPLEXITY>
833
> <PUBCHEM_CACTVS_HBOND_ACCEPTOR>
6
> <PUBCHEM_CACTVS_HBOND_DONOR>
1
> <PUBCHEM_CACTVS_ROTATABLE_BOND>
3
> <PUBCHEM_CACTVS_SUBSKEYS>
AAADceB7sQAAAAAAAAAAAAAAAAAAAeIAAAA8YMGCAAAAAHjB/AAAHwAACAAADxzhnwY/ltcMFgCgAzZnZACCiCkxIKAJ2CAuTJiMfuLEuZuccChswBPI6AeQwPAPoAABAAAQAADAAAYAACAAAIAADAAAAA==
> <PUBCHEM_IUPAC_OPENEYE_NAME>
3-[[4-fluoro-6-(2-methylisoindol-1-yl)-1,3,5-triazin-2-yl]oxy]-13-methyl-6,7,8,9,11,12,14,15,16,17-decahydrocyclopenta[a]phenanthren-17-ol
> <PUBCHEM_IUPAC_CAS_NAME>
3-[[4-fluoro-6-(2-methyl-1-isoindolyl)-1,3,5-triazin-2-yl]oxy]-13-methyl-6,7,8,9,11,12,14,15,16,17-decahydrocyclopenta[a]phenanthren-17-ol
> <PUBCHEM_IUPAC_NAME_MARKUP>
3-[[4-fluoro-6-(2-methylisoindol-1-yl)-1,3,5-triazin-2-yl]oxy]-13-methyl-6,7,8,9,11,12,14,15,16,17-decahydrocyclopenta[a]phenanthren-17-ol
> <PUBCHEM_IUPAC_NAME>
3-[[4-fluoro-6-(2-methylisoindol-1-yl)-1,3,5-triazin-2-yl]oxy]-13-methyl-6,7,8,9,11,12,14,15,16,17-decahydrocyclopenta[a]phenanthren-17-ol
> <PUBCHEM_IUPAC_SYSTEMATIC_NAME>
3-[[4-fluoranyl-6-(2-methylisoindol-1-yl)-1,3,5-triazin-2-yl]oxy]-13-methyl-6,7,8,9,11,12,14,15,16,17-decahydrocyclopenta[a]phenanthren-17-ol
> <PUBCHEM_IUPAC_TRADITIONAL_NAME>
3-[[4-fluoro-6-(2-methylisoindol-1-yl)-s-triazin-2-yl]oxy]-13-methyl-6,7,8,9,11,12,14,15,16,17-decahydrocyclopenta[a]phenanthren-17-ol
> <PUBCHEM_IUPAC_INCHI>
InChI=1S/C30H31FN4O2/c1-30-14-13-22-20-10-8-19(15-17(20)7-9-23(22)24(30)11-12-25(30)36)37-29-33-27(32-28(31)34-29)26-21-6-4-3-5-18(21)16-35(26)2/h3-6,8,10,15-16,22-25,36H,7,9,11-14H2,1-2H3
> <PUBCHEM_IUPAC_INCHIKEY>
YDSBSDBHGZWKKQ-UHFFFAOYSA-N
> <PUBCHEM_XLOGP3>
5.1
> <PUBCHEM_EXACT_MASS>
498.24310441
> <PUBCHEM_MOLECULAR_FORMULA>
C30H31FN4O2
> <PUBCHEM_MOLECULAR_WEIGHT>
498.6
> <PUBCHEM_OPENEYE_CAN_SMILES>
CC12CCC3C(C1CCC2O)CCC4=C3C=CC(=C4)OC5=NC(=NC(=N5)C6=C7C=CC=CC7=CN6C)F
> <PUBCHEM_OPENEYE_ISO_SMILES>
CC12CCC3C(C1CCC2O)CCC4=C3C=CC(=C4)OC5=NC(=NC(=N5)C6=C7C=CC=CC7=CN6C)F
> <PUBCHEM_CACTVS_TPSA>
73.1
> <PUBCHEM_MONOISOTOPIC_WEIGHT>
498.24310441
> <PUBCHEM_TOTAL_CHARGE>
0
> <PUBCHEM_HEAVY_ATOM_COUNT>
37
> <PUBCHEM_ATOM_DEF_STEREO_COUNT>
0
> <PUBCHEM_ATOM_UDEF_STEREO_COUNT>
5
> <PUBCHEM_BOND_DEF_STEREO_COUNT>
0
> <PUBCHEM_BOND_UDEF_STEREO_COUNT>
0
> <PUBCHEM_ISOTOPIC_ATOM_COUNT>
0
> <PUBCHEM_COMPONENT_COUNT>
1
> <PUBCHEM_CACTVS_TAUTO_COUNT>
-1
> <PUBCHEM_COORDINATE_TYPE>
1
5
255
> <PUBCHEM_BONDANNOTATIONS>
10  17  3
11  15  3
19  21  8
19  22  8
12  2  3
21  23  8
22  24  8
23  25  8
24  25  8
29  30  8
30  31  8
30  33  8
31  32  8
31  35  8
33  36  8
35  37  8
36  37  8
4  26  8
4  27  8
5  26  8
5  28  8
6  27  8
6  28  8
7  29  8
7  32  8
8  18  3
9  14  3
$$$$
