500146
  -OEChem-10302200282D
 71 76  0     1  0  0  0  0  0999 V2000
   11.3336    0.7467    0.0000 S   0  0  0  0  0  0  0  0  0  0  0  0
    3.7320   -3.8683    0.0000 O   0  0  0  0  0  0  0  0  0  0  0  0
    2.8718   -2.3650    0.0000 O   0  0  0  0  0  0  0  0  0  0  0  0
    9.7956    1.2493    0.0000 N   0  0  0  0  0  0  0  0  0  0  0  0
    9.1251   -0.8160    0.0000 C   0  0  3  0  0  0  0  0  0  0  0  0
    9.1251   -1.8160    0.0000 C   0  0  3  0  0  0  0  0  0  0  0  0
    8.2591   -2.3160    0.0000 C   0  0  3  0  0  0  0  0  0  0  0  0
    7.3931   -1.8160    0.0000 C   0  0  3  0  0  0  0  0  0  0  0  0
    6.4831   -2.3228    0.0000 C   0  0  3  0  0  0  0  0  0  0  0  0
   10.0713   -0.5112    0.0000 C   0  0  3  0  0  0  0  0  0  0  0  0
    8.2591   -0.3160    0.0000 C   0  0  0  0  0  0  0  0  0  0  0  0
    7.3931   -0.8160    0.0000 C   0  0  0  0  0  0  0  0  0  0  0  0
   10.0713   -2.1207    0.0000 C   0  0  0  0  0  0  0  0  0  0  0  0
   10.6550   -1.3160    0.0000 C   0  0  0  0  0  0  0  0  0  0  0  0
    8.2752   -3.3575    0.0000 C   0  0  0  0  0  0  0  0  0  0  0  0
    6.4750   -3.3644    0.0000 C   0  0  0  0  0  0  0  0  0  0  0  0
    9.1251    0.1840    0.0000 C   0  0  0  0  0  0  0  0  0  0  0  0
    5.5562   -1.7587    0.0000 C   0  0  0  0  0  0  0  0  0  0  0  0
    7.3771   -3.8852    0.0000 C   0  0  0  0  0  0  0  0  0  0  0  0
    6.4908   -1.3228    0.0000 C   0  0  0  0  0  0  0  0  0  0  0  0
    5.5396   -3.9141    0.0000 C   0  0  0  0  0  0  0  0  0  0  0  0
   10.3820    0.4393    0.0000 C   0  0  0  0  0  0  0  0  0  0  0  0
    4.6084   -2.2867    0.0000 C   0  0  0  0  0  0  0  0  0  0  0  0
    4.6000   -3.3716    0.0000 C   0  0  3  0  0  0  0  0  0  0  0  0
   11.3353    1.7467    0.0000 C   0  0  0  0  0  0  0  0  0  0  0  0
   10.3848    2.0573    0.0000 C   0  0  0  0  0  0  0  0  0  0  0  0
    2.8680   -3.3650    0.0000 C   0  0  0  0  0  0  0  0  0  0  0  0
   12.1454    2.3330    0.0000 C   0  0  0  0  0  0  0  0  0  0  0  0
    2.0000   -3.8616    0.0000 C   0  0  0  0  0  0  0  0  0  0  0  0
   12.0426    3.3278    0.0000 C   0  0  0  0  0  0  0  0  0  0  0  0
   13.0582    1.9247    0.0000 C   0  0  0  0  0  0  0  0  0  0  0  0
   12.8526    3.9141    0.0000 C   0  0  0  0  0  0  0  0  0  0  0  0
   13.8682    2.5111    0.0000 C   0  0  0  0  0  0  0  0  0  0  0  0
   13.7654    3.5058    0.0000 C   0  0  0  0  0  0  0  0  0  0  0  0
    9.1907   -2.4325    0.0000 H   0  0  0  0  0  0  0  0  0  0  0  0
    8.7984   -2.6218    0.0000 H   0  0  0  0  0  0  0  0  0  0  0  0
    7.9300   -1.5060    0.0000 H   0  0  0  0  0  0  0  0  0  0  0  0
   10.6838   -0.4150    0.0000 H   0  0  0  0  0  0  0  0  0  0  0  0
    8.6576    0.1590    0.0000 H   0  0  0  0  0  0  0  0  0  0  0  0
    7.8606    0.1590    0.0000 H   0  0  0  0  0  0  0  0  0  0  0  0
    7.1810   -0.2334    0.0000 H   0  0  0  0  0  0  0  0  0  0  0  0
    6.7825   -0.9236    0.0000 H   0  0  0  0  0  0  0  0  0  0  0  0
    9.8203   -2.6876    0.0000 H   0  0  0  0  0  0  0  0  0  0  0  0
   10.6087   -2.4299    0.0000 H   0  0  0  0  0  0  0  0  0  0  0  0
   11.1158   -1.7307    0.0000 H   0  0  0  0  0  0  0  0  0  0  0  0
   11.1158   -0.9012    0.0000 H   0  0  0  0  0  0  0  0  0  0  0  0
    8.4932   -3.9379    0.0000 H   0  0  0  0  0  0  0  0  0  0  0  0
    8.8843   -3.2420    0.0000 H   0  0  0  0  0  0  0  0  0  0  0  0
    9.7451    0.1840    0.0000 H   0  0  0  0  0  0  0  0  0  0  0  0
    9.1251    0.8040    0.0000 H   0  0  0  0  0  0  0  0  0  0  0  0
    8.5051    0.1840    0.0000 H   0  0  0  0  0  0  0  0  0  0  0  0
    5.9644   -1.2921    0.0000 H   0  0  0  0  0  0  0  0  0  0  0  0
    5.1663   -1.2767    0.0000 H   0  0  0  0  0  0  0  0  0  0  0  0
    7.3795   -4.5052    0.0000 H   0  0  0  0  0  0  0  0  0  0  0  0
    7.1108   -1.3276    0.0000 H   0  0  0  0  0  0  0  0  0  0  0  0
    6.4956   -0.7029    0.0000 H   0  0  0  0  0  0  0  0  0  0  0  0
    5.8708   -1.3181    0.0000 H   0  0  0  0  0  0  0  0  0  0  0  0
    5.1423   -4.3901    0.0000 H   0  0  0  0  0  0  0  0  0  0  0  0
    5.9406   -4.3870    0.0000 H   0  0  0  0  0  0  0  0  0  0  0  0
    4.4038   -1.7014    0.0000 H   0  0  0  0  0  0  0  0  0  0  0  0
    3.9967   -2.3880    0.0000 H   0  0  0  0  0  0  0  0  0  0  0  0
    4.0648   -3.0585    0.0000 H   0  0  0  0  0  0  0  0  0  0  0  0
   10.1942    2.6473    0.0000 H   0  0  0  0  0  0  0  0  0  0  0  0
    1.6921   -3.3235    0.0000 H   0  0  0  0  0  0  0  0  0  0  0  0
    1.4619   -4.1695    0.0000 H   0  0  0  0  0  0  0  0  0  0  0  0
    2.3079   -4.3997    0.0000 H   0  0  0  0  0  0  0  0  0  0  0  0
   11.4766    3.5809    0.0000 H   0  0  0  0  0  0  0  0  0  0  0  0
   13.1219    1.3080    0.0000 H   0  0  0  0  0  0  0  0  0  0  0  0
   12.7888    4.5308    0.0000 H   0  0  0  0  0  0  0  0  0  0  0  0
   14.4342    2.2580    0.0000 H   0  0  0  0  0  0  0  0  0  0  0  0
   14.2676    3.8694    0.0000 H   0  0  0  0  0  0  0  0  0  0  0  0
  1 22  1  0  0  0  0
  1 25  1  0  0  0  0
  2 24  1  0  0  0  0
  2 27  1  0  0  0  0
  3 27  2  0  0  0  0
  4 22  2  0  0  0  0
  4 26  1  0  0  0  0
  5  6  1  0  0  0  0
  5 10  1  0  0  0  0
  5 11  1  0  0  0  0
  5 17  1  0  0  0  0
  6  7  1  0  0  0  0
  6 13  1  0  0  0  0
  6 35  1  0  0  0  0
  7  8  1  0  0  0  0
  7 15  1  0  0  0  0
  7 36  1  0  0  0  0
  8  9  1  0  0  0  0
  8 12  1  0  0  0  0
  8 37  1  0  0  0  0
  9 16  1  0  0  0  0
  9 18  1  0  0  0  0
  9 20  1  0  0  0  0
 10 14  1  0  0  0  0
 10 22  1  0  0  0  0
 10 38  1  0  0  0  0
 11 12  1  0  0  0  0
 11 39  1  0  0  0  0
 11 40  1  0  0  0  0
 12 41  1  0  0  0  0
 12 42  1  0  0  0  0
 13 14  1  0  0  0  0
 13 43  1  0  0  0  0
 13 44  1  0  0  0  0
 14 45  1  0  0  0  0
 14 46  1  0  0  0  0
 15 19  1  0  0  0  0
 15 47  1  0  0  0  0
 15 48  1  0  0  0  0
 16 19  2  0  0  0  0
 16 21  1  0  0  0  0
 17 49  1  0  0  0  0
 17 50  1  0  0  0  0
 17 51  1  0  0  0  0
 18 23  1  0  0  0  0
 18 52  1  0  0  0  0
 18 53  1  0  0  0  0
 19 54  1  0  0  0  0
 20 55  1  0  0  0  0
 20 56  1  0  0  0  0
 20 57  1  0  0  0  0
 21 24  1  0  0  0  0
 21 58  1  0  0  0  0
 21 59  1  0  0  0  0
 23 24  1  0  0  0  0
 23 60  1  0  0  0  0
 23 61  1  0  0  0  0
 24 62  1  0  0  0  0
 25 26  2  0  0  0  0
 25 28  1  0  0  0  0
 26 63  1  0  0  0  0
 27 29  1  0  0  0  0
 28 30  2  0  0  0  0
 28 31  1  0  0  0  0
 29 64  1  0  0  0  0
 29 65  1  0  0  0  0
 29 66  1  0  0  0  0
 30 32  1  0  0  0  0
 30 67  1  0  0  0  0
 31 33  2  0  0  0  0
 31 68  1  0  0  0  0
 32 34  2  0  0  0  0
 32 69  1  0  0  0  0
 33 34  1  0  0  0  0
 33 70  1  0  0  0  0
 34 71  1  0  0  0  0
M  END
> <PUBCHEM_COMPOUND_CID>
500146
> <PUBCHEM_COMPOUND_CANONICALIZED>
1
> <PUBCHEM_CACTVS_COMPLEXITY>
821
> <PUBCHEM_CACTVS_HBOND_ACCEPTOR>
4
> <PUBCHEM_CACTVS_HBOND_DONOR>
0
> <PUBCHEM_CACTVS_ROTATABLE_BOND>
4
> <PUBCHEM_CACTVS_SUBSKEYS>
AAADcfB6MABAAAAAAAAAAAAAAAAAAeIAAAAwYMEAAAAAAGCBwAAAHgQAAAAADxTh2gY+iZIIFAisAjD3TAAC8KBxCDhI2Aw4QIgIICLgkRGGIAAkwADoyAeQwPAPgAAAAAAAAADAAAQAACAAAQAACAAAAA==
> <PUBCHEM_IUPAC_OPENEYE_NAME>
[10,13-dimethyl-17-(5-phenylthiazol-2-yl)-2,3,4,7,8,9,11,12,14,15,16,17-dodecahydro-1H-cyclopenta[a]phenanthren-3-yl] acetate
> <PUBCHEM_IUPAC_CAS_NAME>
acetic acid [10,13-dimethyl-17-(5-phenyl-2-thiazolyl)-2,3,4,7,8,9,11,12,14,15,16,17-dodecahydro-1H-cyclopenta[a]phenanthren-3-yl] ester
> <PUBCHEM_IUPAC_NAME_MARKUP>
[10,13-dimethyl-17-(5-phenyl-1,3-thiazol-2-yl)-2,3,4,7,8,9,11,12,14,15,16,17-dodecahydro-1<I>H</I>-cyclopenta[a]phenanthren-3-yl] acetate
> <PUBCHEM_IUPAC_NAME>
[10,13-dimethyl-17-(5-phenyl-1,3-thiazol-2-yl)-2,3,4,7,8,9,11,12,14,15,16,17-dodecahydro-1H-cyclopenta[a]phenanthren-3-yl] acetate
> <PUBCHEM_IUPAC_SYSTEMATIC_NAME>
[10,13-dimethyl-17-(5-phenyl-1,3-thiazol-2-yl)-2,3,4,7,8,9,11,12,14,15,16,17-dodecahydro-1H-cyclopenta[a]phenanthren-3-yl] ethanoate
> <PUBCHEM_IUPAC_TRADITIONAL_NAME>
acetic acid [10,13-dimethyl-17-(5-phenylthiazol-2-yl)-2,3,4,7,8,9,11,12,14,15,16,17-dodecahydro-1H-cyclopenta[a]phenanthren-3-yl] ester
> <PUBCHEM_IUPAC_INCHI>
InChI=1S/C30H37NO2S/c1-19(32)33-22-13-15-29(2)21(17-22)9-10-23-24-11-12-26(30(24,3)16-14-25(23)29)28-31-18-27(34-28)20-7-5-4-6-8-20/h4-9,18,22-26H,10-17H2,1-3H3
> <PUBCHEM_IUPAC_INCHIKEY>
VKEITXYNPRZWGD-UHFFFAOYSA-N
> <PUBCHEM_XLOGP3_AA>
7.4
> <PUBCHEM_EXACT_MASS>
475.25450060
> <PUBCHEM_MOLECULAR_FORMULA>
C30H37NO2S
> <PUBCHEM_MOLECULAR_WEIGHT>
475.7
> <PUBCHEM_OPENEYE_CAN_SMILES>
CC(=O)OC1CCC2(C3CCC4(C(C3CC=C2C1)CCC4C5=NC=C(S5)C6=CC=CC=C6)C)C
> <PUBCHEM_OPENEYE_ISO_SMILES>
CC(=O)OC1CCC2(C3CCC4(C(C3CC=C2C1)CCC4C5=NC=C(S5)C6=CC=CC=C6)C)C
> <PUBCHEM_CACTVS_TPSA>
67.4
> <PUBCHEM_MONOISOTOPIC_WEIGHT>
475.25450060
> <PUBCHEM_TOTAL_CHARGE>
0
> <PUBCHEM_HEAVY_ATOM_COUNT>
34
> <PUBCHEM_ATOM_DEF_STEREO_COUNT>
0
> <PUBCHEM_ATOM_UDEF_STEREO_COUNT>
7
> <PUBCHEM_BOND_DEF_STEREO_COUNT>
0
> <PUBCHEM_BOND_UDEF_STEREO_COUNT>
0
> <PUBCHEM_ISOTOPIC_ATOM_COUNT>
0
> <PUBCHEM_COMPONENT_COUNT>
1
> <PUBCHEM_CACTVS_TAUTO_COUNT>
-1
> <PUBCHEM_COORDINATE_TYPE>
1
5
255
> <PUBCHEM_BONDANNOTATIONS>
1  22  8
1  25  8
10  22  3
24  2  3
25  26  8
28  30  8
28  31  8
30  32  8
31  33  8
32  34  8
33  34  8
4  22  8
4  26  8
5  17  3
6  13  3
7  15  3
8  12  3
9  20  3
$$$$
