500125
  -OEChem-10302200282D
 24 24  0     1  0  0  0  0  0999 V2000
    2.0000   -1.3170    0.0000 Cl  0  0  0  0  0  0  0  0  0  0  0  0
    4.5981   -1.8170    0.0000 O   0  0  0  0  0  0  0  0  0  0  0  0
    5.4641   -0.3170    0.0000 O   0  0  0  0  0  0  0  0  0  0  0  0
    4.5981    2.1830    0.0000 N   0  0  0  0  0  0  0  0  0  0  0  0
    3.7320   -1.3170    0.0000 C   0  0  3  0  0  0  0  0  0  0  0  0
    5.4641   -1.3170    0.0000 C   0  0  0  0  0  0  0  0  0  0  0  0
    3.7320   -0.3170    0.0000 C   0  0  0  0  0  0  0  0  0  0  0  0
    4.5981    0.1830    0.0000 C   0  0  3  0  0  0  0  0  0  0  0  0
    2.8660   -1.8170    0.0000 C   0  0  0  0  0  0  0  0  0  0  0  0
    6.4641   -1.3170    0.0000 C   0  0  0  0  0  0  0  0  0  0  0  0
    5.9641   -2.1830    0.0000 C   0  0  0  0  0  0  0  0  0  0  0  0
    4.5981    1.1830    0.0000 C   0  0  0  0  0  0  0  0  0  0  0  0
    3.7320   -1.9370    0.0000 H   0  0  0  0  0  0  0  0  0  0  0  0
    3.5200    0.2656    0.0000 H   0  0  0  0  0  0  0  0  0  0  0  0
    3.1215   -0.4246    0.0000 H   0  0  0  0  0  0  0  0  0  0  0  0
    5.1350    0.4930    0.0000 H   0  0  0  0  0  0  0  0  0  0  0  0
    2.4675   -2.2919    0.0000 H   0  0  0  0  0  0  0  0  0  0  0  0
    3.2646   -2.2919    0.0000 H   0  0  0  0  0  0  0  0  0  0  0  0
    6.4641   -1.9370    0.0000 H   0  0  0  0  0  0  0  0  0  0  0  0
    7.0841   -1.3170    0.0000 H   0  0  0  0  0  0  0  0  0  0  0  0
    6.4641   -0.6970    0.0000 H   0  0  0  0  0  0  0  0  0  0  0  0
    5.4272   -2.4930    0.0000 H   0  0  0  0  0  0  0  0  0  0  0  0
    6.2741   -2.7200    0.0000 H   0  0  0  0  0  0  0  0  0  0  0  0
    6.5010   -1.8730    0.0000 H   0  0  0  0  0  0  0  0  0  0  0  0
  1  9  1  0  0  0  0
  2  5  1  0  0  0  0
  2  6  1  0  0  0  0
  3  6  1  0  0  0  0
  3  8  1  0  0  0  0
  4 12  3  0  0  0  0
  5  7  1  0  0  0  0
  5  9  1  0  0  0  0
  5 13  1  0  0  0  0
  6 10  1  0  0  0  0
  6 11  1  0  0  0  0
  7  8  1  0  0  0  0
  7 14  1  0  0  0  0
  7 15  1  0  0  0  0
  8 12  1  0  0  0  0
  8 16  1  0  0  0  0
  9 17  1  0  0  0  0
  9 18  1  0  0  0  0
 10 19  1  0  0  0  0
 10 20  1  0  0  0  0
 10 21  1  0  0  0  0
 11 22  1  0  0  0  0
 11 23  1  0  0  0  0
 11 24  1  0  0  0  0
M  END
> <PUBCHEM_COMPOUND_CID>
500125
> <PUBCHEM_COMPOUND_CANONICALIZED>
1
> <PUBCHEM_CACTVS_COMPLEXITY>
208
> <PUBCHEM_CACTVS_HBOND_ACCEPTOR>
3
> <PUBCHEM_CACTVS_HBOND_DONOR>
0
> <PUBCHEM_CACTVS_ROTATABLE_BOND>
1
> <PUBCHEM_CACTVS_SUBSKEYS>
AAADccByMAAEAAAAAAAAAAAAAAAAAAAAAAAkAAAAAAAAAAAAAAAAHgIAAAAACBehgEICCAAABAAQBAAAAAAAAAAAAAAAAAAAAwAQgAIBAAAiAAAFAAAEAAgAAAAAAAAAAAAAAAAAAAAAAAAAAAAAAAAAAA==
> <PUBCHEM_IUPAC_OPENEYE_NAME>
6-(chloromethyl)-2,2-dimethyl-1,3-dioxane-4-carbonitrile
> <PUBCHEM_IUPAC_CAS_NAME>
6-(chloromethyl)-2,2-dimethyl-1,3-dioxane-4-carbonitrile
> <PUBCHEM_IUPAC_NAME_MARKUP>
6-(chloromethyl)-2,2-dimethyl-1,3-dioxane-4-carbonitrile
> <PUBCHEM_IUPAC_NAME>
6-(chloromethyl)-2,2-dimethyl-1,3-dioxane-4-carbonitrile
> <PUBCHEM_IUPAC_SYSTEMATIC_NAME>
6-(chloromethyl)-2,2-dimethyl-1,3-dioxane-4-carbonitrile
> <PUBCHEM_IUPAC_TRADITIONAL_NAME>
6-(chloromethyl)-2,2-dimethyl-1,3-dioxane-4-carbonitrile
> <PUBCHEM_IUPAC_INCHI>
InChI=1S/C8H12ClNO2/c1-8(2)11-6(4-9)3-7(5-10)12-8/h6-7H,3-4H2,1-2H3
> <PUBCHEM_IUPAC_INCHIKEY>
GGUJVQFTHIKTRP-UHFFFAOYSA-N
> <PUBCHEM_XLOGP3_AA>
1.3
> <PUBCHEM_EXACT_MASS>
189.0556563
> <PUBCHEM_MOLECULAR_FORMULA>
C8H12ClNO2
> <PUBCHEM_MOLECULAR_WEIGHT>
189.64
> <PUBCHEM_OPENEYE_CAN_SMILES>
CC1(OC(CC(O1)C#N)CCl)C
> <PUBCHEM_OPENEYE_ISO_SMILES>
CC1(OC(CC(O1)C#N)CCl)C
> <PUBCHEM_CACTVS_TPSA>
42.2
> <PUBCHEM_MONOISOTOPIC_WEIGHT>
189.0556563
> <PUBCHEM_TOTAL_CHARGE>
0
> <PUBCHEM_HEAVY_ATOM_COUNT>
12
> <PUBCHEM_ATOM_DEF_STEREO_COUNT>
0
> <PUBCHEM_ATOM_UDEF_STEREO_COUNT>
2
> <PUBCHEM_BOND_DEF_STEREO_COUNT>
0
> <PUBCHEM_BOND_UDEF_STEREO_COUNT>
0
> <PUBCHEM_ISOTOPIC_ATOM_COUNT>
0
> <PUBCHEM_COMPONENT_COUNT>
1
> <PUBCHEM_CACTVS_TAUTO_COUNT>
-1
> <PUBCHEM_COORDINATE_TYPE>
1
5
255
> <PUBCHEM_BONDANNOTATIONS>
5  9  3
8  12  3
$$$$
