500116
  -OEChem-10302200282D
 73 78  0     1  0  0  0  0  0999 V2000
   10.4723   -1.9648    0.0000 O   0  0  0  0  0  0  0  0  0  0  0  0
    6.0290   -0.6603    0.0000 O   0  0  0  0  0  0  0  0  0  0  0  0
    6.9273   -2.1464    0.0000 O   0  0  0  0  0  0  0  0  0  0  0  0
    6.0174    2.4090    0.0000 O   0  0  0  0  0  0  0  0  0  0  0  0
    9.7772    3.0370    0.0000 O   0  0  0  0  0  0  0  0  0  0  0  0
   13.0658    1.9482    0.0000 O   0  0  0  0  0  0  0  0  0  0  0  0
    4.2690    2.3744    0.0000 O   0  0  0  0  0  0  0  0  0  0  0  0
    2.5369   -0.6256    0.0000 O   0  0  0  0  0  0  0  0  0  0  0  0
   15.0590   -1.1777    0.0000 O   0  0  0  0  0  0  0  0  0  0  0  0
   10.4785   -0.3553    0.0000 C   0  0  3  0  0  0  0  0  0  0  0  0
   11.0590   -1.1623    0.0000 C   0  0  3  0  0  0  0  0  0  0  0  0
    9.5312   -0.6564    0.0000 C   0  0  0  0  0  0  0  0  0  0  0  0
    9.5273   -1.6564    0.0000 C   0  0  0  0  0  0  0  0  0  0  0  0
   10.7929    0.5940    0.0000 C   0  0  0  0  0  0  0  0  0  0  0  0
    7.7991   -0.6498    0.0000 C   0  0  0  0  0  0  0  0  0  0  0  0
    8.6671   -0.1531    0.0000 C   0  0  0  0  0  0  0  0  0  0  0  0
    6.9350   -0.1464    0.0000 C   0  0  3  0  0  0  0  0  0  0  0  0
   12.0590   -1.1662    0.0000 C   0  0  0  0  0  0  0  0  0  0  0  0
    8.6594   -2.1531    0.0000 C   0  0  0  0  0  0  0  0  0  0  0  0
    7.7953   -1.6497    0.0000 C   0  0  0  0  0  0  0  0  0  0  0  0
    6.9350    0.8952    0.0000 C   0  0  0  0  0  0  0  0  0  0  0  0
   11.7722    0.7964    0.0000 C   0  0  0  0  0  0  0  0  0  0  0  0
   10.1279    1.3408    0.0000 C   0  0  0  0  0  0  0  0  0  0  0  0
    5.1350   -0.1256    0.0000 C   0  0  0  0  0  0  0  0  0  0  0  0
    6.0290    1.4091    0.0000 C   0  0  0  0  0  0  0  0  0  0  0  0
    5.1350    0.8744    0.0000 C   0  0  0  0  0  0  0  0  0  0  0  0
   12.5624   -0.3021    0.0000 C   0  0  0  0  0  0  0  0  0  0  0  0
   12.5557   -2.0341    0.0000 C   0  0  0  0  0  0  0  0  0  0  0  0
    4.2690   -0.6256    0.0000 C   0  0  0  0  0  0  0  0  0  0  0  0
   10.4422    2.2902    0.0000 C   0  0  0  0  0  0  0  0  0  0  0  0
   12.0865    1.7457    0.0000 C   0  0  0  0  0  0  0  0  0  0  0  0
    4.2690    1.3744    0.0000 C   0  0  0  0  0  0  0  0  0  0  0  0
   13.5624   -0.3059    0.0000 C   0  0  0  0  0  0  0  0  0  0  0  0
   13.5557   -2.0380    0.0000 C   0  0  0  0  0  0  0  0  0  0  0  0
   11.4215    2.4926    0.0000 C   0  0  0  0  0  0  0  0  0  0  0  0
    4.2690   -1.6256    0.0000 C   0  0  0  0  0  0  0  0  0  0  0  0
    3.4030   -0.1256    0.0000 C   0  0  0  0  0  0  0  0  0  0  0  0
   14.0590   -1.1739    0.0000 C   0  0  0  0  0  0  0  0  0  0  0  0
    3.4030    0.8744    0.0000 C   0  0  0  0  0  0  0  0  0  0  0  0
    3.4030   -2.1256    0.0000 C   0  0  0  0  0  0  0  0  0  0  0  0
    3.4030   -3.1256    0.0000 C   0  0  0  0  0  0  0  0  0  0  0  0
    2.5369   -3.6256    0.0000 C   0  0  0  0  0  0  0  0  0  0  0  0
    4.2690   -3.6256    0.0000 C   0  0  0  0  0  0  0  0  0  0  0  0
   11.0914   -0.2615    0.0000 H   0  0  0  0  0  0  0  0  0  0  0  0
   11.3429   -0.6111    0.0000 H   0  0  0  0  0  0  0  0  0  0  0  0
    8.6694    0.4669    0.0000 H   0  0  0  0  0  0  0  0  0  0  0  0
    7.4726    0.1625    0.0000 H   0  0  0  0  0  0  0  0  0  0  0  0
    8.6570   -2.7731    0.0000 H   0  0  0  0  0  0  0  0  0  0  0  0
    7.5459    0.7891    0.0000 H   0  0  0  0  0  0  0  0  0  0  0  0
    7.1441    1.4789    0.0000 H   0  0  0  0  0  0  0  0  0  0  0  0
   12.1844    0.3334    0.0000 H   0  0  0  0  0  0  0  0  0  0  0  0
    9.5207    1.2153    0.0000 H   0  0  0  0  0  0  0  0  0  0  0  0
   12.2544    0.2360    0.0000 H   0  0  0  0  0  0  0  0  0  0  0  0
   12.2436   -2.5699    0.0000 H   0  0  0  0  0  0  0  0  0  0  0  0
   13.8744    0.2298    0.0000 H   0  0  0  0  0  0  0  0  0  0  0  0
   13.8636   -2.5761    0.0000 H   0  0  0  0  0  0  0  0  0  0  0  0
   11.6164    3.0812    0.0000 H   0  0  0  0  0  0  0  0  0  0  0  0
    6.9249   -2.7664    0.0000 H   0  0  0  0  0  0  0  0  0  0  0  0
    4.4810   -2.2082    0.0000 H   0  0  0  0  0  0  0  0  0  0  0  0
    4.8796   -1.5179    0.0000 H   0  0  0  0  0  0  0  0  0  0  0  0
    2.8660    1.1844    0.0000 H   0  0  0  0  0  0  0  0  0  0  0  0
    2.8660   -1.8156    0.0000 H   0  0  0  0  0  0  0  0  0  0  0  0
    9.9721    3.6256    0.0000 H   0  0  0  0  0  0  0  0  0  0  0  0
   13.2607    2.5368    0.0000 H   0  0  0  0  0  0  0  0  0  0  0  0
    3.7320    2.6844    0.0000 H   0  0  0  0  0  0  0  0  0  0  0  0
    2.0000   -0.3156    0.0000 H   0  0  0  0  0  0  0  0  0  0  0  0
   15.3669   -1.7159    0.0000 H   0  0  0  0  0  0  0  0  0  0  0  0
    2.2269   -3.0887    0.0000 H   0  0  0  0  0  0  0  0  0  0  0  0
    2.0000   -3.9356    0.0000 H   0  0  0  0  0  0  0  0  0  0  0  0
    2.8469   -4.1625    0.0000 H   0  0  0  0  0  0  0  0  0  0  0  0
    3.9590   -4.1625    0.0000 H   0  0  0  0  0  0  0  0  0  0  0  0
    4.8059   -3.9356    0.0000 H   0  0  0  0  0  0  0  0  0  0  0  0
    4.5790   -3.0887    0.0000 H   0  0  0  0  0  0  0  0  0  0  0  0
  1 11  1  0  0  0  0
  1 13  1  0  0  0  0
  2 17  1  0  0  0  0
  2 24  1  0  0  0  0
  3 20  1  0  0  0  0
  3 58  1  0  0  0  0
  4 25  2  0  0  0  0
  5 30  1  0  0  0  0
  5 63  1  0  0  0  0
  6 31  1  0  0  0  0
  6 64  1  0  0  0  0
  7 32  1  0  0  0  0
  7 65  1  0  0  0  0
  8 37  1  0  0  0  0
  8 66  1  0  0  0  0
  9 38  1  0  0  0  0
  9 67  1  0  0  0  0
 10 11  1  0  0  0  0
 10 12  1  0  0  0  0
 10 14  1  0  0  0  0
 10 44  1  0  0  0  0
 11 18  1  0  0  0  0
 11 45  1  0  0  0  0
 12 13  2  0  0  0  0
 12 16  1  0  0  0  0
 13 19  1  0  0  0  0
 14 22  2  0  0  0  0
 14 23  1  0  0  0  0
 15 16  2  0  0  0  0
 15 17  1  0  0  0  0
 15 20  1  0  0  0  0
 16 46  1  0  0  0  0
 17 21  1  0  0  0  0
 17 47  1  0  0  0  0
 18 27  2  0  0  0  0
 18 28  1  0  0  0  0
 19 20  2  0  0  0  0
 19 48  1  0  0  0  0
 21 25  1  0  0  0  0
 21 49  1  0  0  0  0
 21 50  1  0  0  0  0
 22 31  1  0  0  0  0
 22 51  1  0  0  0  0
 23 30  2  0  0  0  0
 23 52  1  0  0  0  0
 24 26  1  0  0  0  0
 24 29  2  0  0  0  0
 25 26  1  0  0  0  0
 26 32  2  0  0  0  0
 27 33  1  0  0  0  0
 27 53  1  0  0  0  0
 28 34  2  0  0  0  0
 28 54  1  0  0  0  0
 29 36  1  0  0  0  0
 29 37  1  0  0  0  0
 30 35  1  0  0  0  0
 31 35  2  0  0  0  0
 32 39  1  0  0  0  0
 33 38  2  0  0  0  0
 33 55  1  0  0  0  0
 34 38  1  0  0  0  0
 34 56  1  0  0  0  0
 35 57  1  0  0  0  0
 36 40  1  0  0  0  0
 36 59  1  0  0  0  0
 36 60  1  0  0  0  0
 37 39  2  0  0  0  0
 39 61  1  0  0  0  0
 40 41  2  0  0  0  0
 40 62  1  0  0  0  0
 41 42  1  0  0  0  0
 41 43  1  0  0  0  0
 42 68  1  0  0  0  0
 42 69  1  0  0  0  0
 42 70  1  0  0  0  0
 43 71  1  0  0  0  0
 43 72  1  0  0  0  0
 43 73  1  0  0  0  0
M  END
> <PUBCHEM_COMPOUND_CID>
500116
> <PUBCHEM_COMPOUND_CANONICALIZED>
1
> <PUBCHEM_CACTVS_COMPLEXITY>
996
> <PUBCHEM_CACTVS_HBOND_ACCEPTOR>
9
> <PUBCHEM_CACTVS_HBOND_DONOR>
6
> <PUBCHEM_CACTVS_ROTATABLE_BOND>
5
> <PUBCHEM_CACTVS_SUBSKEYS>
AAADceB8PAAAAAAAAAAAAAAAAAAAASAAAAA0YMGCAAAAAEiRVAAAGgAACAAADRSgmAIyBoAABgCIAqBSAAACCAAkIAAIiAEGCMgMJzaGNRqCeWCl4BUIuQeI7PzOoAADCAAIAABAAAYQABAAAAAAAAAAAA==
> <PUBCHEM_IUPAC_OPENEYE_NAME>
2-[3-(3,5-dihydroxyphenyl)-6-hydroxy-2-(4-hydroxyphenyl)-2,3-dihydrobenzofuran-5-yl]-5,7-dihydroxy-8-(3-methylbut-2-enyl)chroman-4-one
> <PUBCHEM_IUPAC_CAS_NAME>
2-[3-(3,5-dihydroxyphenyl)-6-hydroxy-2-(4-hydroxyphenyl)-2,3-dihydrobenzofuran-5-yl]-5,7-dihydroxy-8-(3-methylbut-2-enyl)-3,4-dihydro-2H-1-benzopyran-4-one
> <PUBCHEM_IUPAC_NAME_MARKUP>
2-[3-(3,5-dihydroxyphenyl)-6-hydroxy-2-(4-hydroxyphenyl)-2,3-dihydro-1-benzofuran-5-yl]-5,7-dihydroxy-8-(3-methylbut-2-enyl)-2,3-dihydrochromen-4-one
> <PUBCHEM_IUPAC_NAME>
2-[3-(3,5-dihydroxyphenyl)-6-hydroxy-2-(4-hydroxyphenyl)-2,3-dihydro-1-benzofuran-5-yl]-5,7-dihydroxy-8-(3-methylbut-2-enyl)-2,3-dihydrochromen-4-one
> <PUBCHEM_IUPAC_SYSTEMATIC_NAME>
2-[3-[3,5-bis(oxidanyl)phenyl]-2-(4-hydroxyphenyl)-6-oxidanyl-2,3-dihydro-1-benzofuran-5-yl]-8-(3-methylbut-2-enyl)-5,7-bis(oxidanyl)-2,3-dihydrochromen-4-one
> <PUBCHEM_IUPAC_TRADITIONAL_NAME>
2-[3-(3,5-dihydroxyphenyl)-6-hydroxy-2-(4-hydroxyphenyl)coumaran-5-yl]-5,7-dihydroxy-8-(3-methylbut-2-enyl)chroman-4-one
> <PUBCHEM_IUPAC_INCHI>
InChI=1S/C34H30O9/c1-16(2)3-8-22-25(38)13-27(40)32-28(41)15-29(43-34(22)32)23-12-24-30(14-26(23)39)42-33(17-4-6-19(35)7-5-17)31(24)18-9-20(36)11-21(37)10-18/h3-7,9-14,29,31,33,35-40H,8,15H2,1-2H3
> <PUBCHEM_IUPAC_INCHIKEY>
LERWTIGGXDMTNB-UHFFFAOYSA-N
> <PUBCHEM_XLOGP3_AA>
6.2
> <PUBCHEM_EXACT_MASS>
582.18898253
> <PUBCHEM_MOLECULAR_FORMULA>
C34H30O9
> <PUBCHEM_MOLECULAR_WEIGHT>
582.6
> <PUBCHEM_OPENEYE_CAN_SMILES>
CC(=CCC1=C2C(=C(C=C1O)O)C(=O)CC(O2)C3=CC4=C(C=C3O)OC(C4C5=CC(=CC(=C5)O)O)C6=CC=C(C=C6)O)C
> <PUBCHEM_OPENEYE_ISO_SMILES>
CC(=CCC1=C2C(=C(C=C1O)O)C(=O)CC(O2)C3=CC4=C(C=C3O)OC(C4C5=CC(=CC(=C5)O)O)C6=CC=C(C=C6)O)C
> <PUBCHEM_CACTVS_TPSA>
157
> <PUBCHEM_MONOISOTOPIC_WEIGHT>
582.18898253
> <PUBCHEM_TOTAL_CHARGE>
0
> <PUBCHEM_HEAVY_ATOM_COUNT>
43
> <PUBCHEM_ATOM_DEF_STEREO_COUNT>
0
> <PUBCHEM_ATOM_UDEF_STEREO_COUNT>
3
> <PUBCHEM_BOND_DEF_STEREO_COUNT>
0
> <PUBCHEM_BOND_UDEF_STEREO_COUNT>
0
> <PUBCHEM_ISOTOPIC_ATOM_COUNT>
0
> <PUBCHEM_COMPONENT_COUNT>
1
> <PUBCHEM_CACTVS_TAUTO_COUNT>
-1
> <PUBCHEM_COORDINATE_TYPE>
1
5
255
> <PUBCHEM_BONDANNOTATIONS>
10  14  3
11  18  3
12  13  8
12  16  8
13  19  8
14  22  8
14  23  8
15  16  8
17  15  3
15  20  8
18  27  8
18  28  8
19  20  8
22  31  8
23  30  8
24  26  8
24  29  8
26  32  8
27  33  8
28  34  8
29  37  8
30  35  8
31  35  8
32  39  8
33  38  8
34  38  8
37  39  8
$$$$
