500145
  -OEChem-10302200282D
 66 70  0     1  0  0  0  0  0999 V2000
   10.1373   -0.0185    0.0000 S   0  0  0  0  0  0  0  0  0  0  0  0
    2.5357   -4.6335    0.0000 O   0  0  0  0  0  0  0  0  0  0  0  0
    8.8811    2.2437    0.0000 O   0  0  0  0  0  0  0  0  0  0  0  0
    8.5993    0.4842    0.0000 N   0  0  0  0  0  0  0  0  0  0  0  0
    7.9288   -1.5811    0.0000 C   0  0  3  0  0  0  0  0  0  0  0  0
    7.9288   -2.5811    0.0000 C   0  0  3  0  0  0  0  0  0  0  0  0
    7.0628   -3.0811    0.0000 C   0  0  3  0  0  0  0  0  0  0  0  0
    6.1968   -2.5811    0.0000 C   0  0  3  0  0  0  0  0  0  0  0  0
    5.2868   -3.0880    0.0000 C   0  0  3  0  0  0  0  0  0  0  0  0
    8.8750   -1.2764    0.0000 C   0  0  3  0  0  0  0  0  0  0  0  0
    7.0628   -1.0811    0.0000 C   0  0  0  0  0  0  0  0  0  0  0  0
    6.1968   -1.5811    0.0000 C   0  0  0  0  0  0  0  0  0  0  0  0
    8.8750   -2.8859    0.0000 C   0  0  0  0  0  0  0  0  0  0  0  0
    9.4586   -2.0811    0.0000 C   0  0  0  0  0  0  0  0  0  0  0  0
    7.0789   -4.1226    0.0000 C   0  0  0  0  0  0  0  0  0  0  0  0
    5.2787   -4.1296    0.0000 C   0  0  0  0  0  0  0  0  0  0  0  0
    7.9288   -0.5811    0.0000 C   0  0  0  0  0  0  0  0  0  0  0  0
    4.3599   -2.5239    0.0000 C   0  0  0  0  0  0  0  0  0  0  0  0
    6.1808   -4.6504    0.0000 C   0  0  0  0  0  0  0  0  0  0  0  0
    5.2945   -2.0880    0.0000 C   0  0  0  0  0  0  0  0  0  0  0  0
    4.3433   -4.6793    0.0000 C   0  0  0  0  0  0  0  0  0  0  0  0
    9.1857   -0.3259    0.0000 C   0  0  0  0  0  0  0  0  0  0  0  0
    3.4120   -3.0518    0.0000 C   0  0  0  0  0  0  0  0  0  0  0  0
    3.4037   -4.1368    0.0000 C   0  0  3  0  0  0  0  0  0  0  0  0
    9.1885    1.2922    0.0000 C   0  0  0  0  0  0  0  0  0  0  0  0
   10.1390    0.9815    0.0000 C   0  0  0  0  0  0  0  0  0  0  0  0
    9.5516    2.9857    0.0000 C   0  0  0  0  0  0  0  0  0  0  0  0
    9.2442    3.9373    0.0000 C   0  0  0  0  0  0  0  0  0  0  0  0
    9.9146    4.6793    0.0000 C   0  0  0  0  0  0  0  0  0  0  0  0
    7.9944   -3.1976    0.0000 H   0  0  0  0  0  0  0  0  0  0  0  0
    7.6021   -3.3870    0.0000 H   0  0  0  0  0  0  0  0  0  0  0  0
    6.7337   -2.2711    0.0000 H   0  0  0  0  0  0  0  0  0  0  0  0
    9.4875   -1.1802    0.0000 H   0  0  0  0  0  0  0  0  0  0  0  0
    7.4613   -0.6062    0.0000 H   0  0  0  0  0  0  0  0  0  0  0  0
    6.6643   -0.6062    0.0000 H   0  0  0  0  0  0  0  0  0  0  0  0
    5.9847   -0.9985    0.0000 H   0  0  0  0  0  0  0  0  0  0  0  0
    5.5862   -1.6888    0.0000 H   0  0  0  0  0  0  0  0  0  0  0  0
    8.6240   -3.4528    0.0000 H   0  0  0  0  0  0  0  0  0  0  0  0
    9.4124   -3.1951    0.0000 H   0  0  0  0  0  0  0  0  0  0  0  0
    9.9195   -2.4959    0.0000 H   0  0  0  0  0  0  0  0  0  0  0  0
    9.9195   -1.6664    0.0000 H   0  0  0  0  0  0  0  0  0  0  0  0
    7.2969   -4.7030    0.0000 H   0  0  0  0  0  0  0  0  0  0  0  0
    7.6880   -4.0071    0.0000 H   0  0  0  0  0  0  0  0  0  0  0  0
    8.5488   -0.5811    0.0000 H   0  0  0  0  0  0  0  0  0  0  0  0
    7.9288    0.0389    0.0000 H   0  0  0  0  0  0  0  0  0  0  0  0
    7.3088   -0.5811    0.0000 H   0  0  0  0  0  0  0  0  0  0  0  0
    4.7681   -2.0572    0.0000 H   0  0  0  0  0  0  0  0  0  0  0  0
    3.9700   -2.0419    0.0000 H   0  0  0  0  0  0  0  0  0  0  0  0
    6.1832   -5.2704    0.0000 H   0  0  0  0  0  0  0  0  0  0  0  0
    5.9145   -2.0928    0.0000 H   0  0  0  0  0  0  0  0  0  0  0  0
    5.2993   -1.4680    0.0000 H   0  0  0  0  0  0  0  0  0  0  0  0
    4.6745   -2.0832    0.0000 H   0  0  0  0  0  0  0  0  0  0  0  0
    3.9460   -5.1553    0.0000 H   0  0  0  0  0  0  0  0  0  0  0  0
    4.7443   -5.1522    0.0000 H   0  0  0  0  0  0  0  0  0  0  0  0
    3.2075   -2.4666    0.0000 H   0  0  0  0  0  0  0  0  0  0  0  0
    2.8004   -3.1532    0.0000 H   0  0  0  0  0  0  0  0  0  0  0  0
    2.8686   -3.8237    0.0000 H   0  0  0  0  0  0  0  0  0  0  0  0
    2.0000   -4.3214    0.0000 H   0  0  0  0  0  0  0  0  0  0  0  0
   10.6412    1.3450    0.0000 H   0  0  0  0  0  0  0  0  0  0  0  0
    9.9324    2.4965    0.0000 H   0  0  0  0  0  0  0  0  0  0  0  0
   10.0995    3.2758    0.0000 H   0  0  0  0  0  0  0  0  0  0  0  0
    8.8633    4.4265    0.0000 H   0  0  0  0  0  0  0  0  0  0  0  0
    8.6962    3.6472    0.0000 H   0  0  0  0  0  0  0  0  0  0  0  0
   10.3746    4.2636    0.0000 H   0  0  0  0  0  0  0  0  0  0  0  0
   10.3303    5.1393    0.0000 H   0  0  0  0  0  0  0  0  0  0  0  0
    9.4546    5.0950    0.0000 H   0  0  0  0  0  0  0  0  0  0  0  0
  1 22  1  0  0  0  0
  1 26  1  0  0  0  0
  2 24  1  0  0  0  0
  2 58  1  0  0  0  0
  3 25  1  0  0  0  0
  3 27  1  0  0  0  0
  4 22  2  0  0  0  0
  4 25  1  0  0  0  0
  5  6  1  0  0  0  0
  5 10  1  0  0  0  0
  5 11  1  0  0  0  0
  5 17  1  0  0  0  0
  6  7  1  0  0  0  0
  6 13  1  0  0  0  0
  6 30  1  0  0  0  0
  7  8  1  0  0  0  0
  7 15  1  0  0  0  0
  7 31  1  0  0  0  0
  8  9  1  0  0  0  0
  8 12  1  0  0  0  0
  8 32  1  0  0  0  0
  9 16  1  0  0  0  0
  9 18  1  0  0  0  0
  9 20  1  0  0  0  0
 10 14  1  0  0  0  0
 10 22  1  0  0  0  0
 10 33  1  0  0  0  0
 11 12  1  0  0  0  0
 11 34  1  0  0  0  0
 11 35  1  0  0  0  0
 12 36  1  0  0  0  0
 12 37  1  0  0  0  0
 13 14  1  0  0  0  0
 13 38  1  0  0  0  0
 13 39  1  0  0  0  0
 14 40  1  0  0  0  0
 14 41  1  0  0  0  0
 15 19  1  0  0  0  0
 15 42  1  0  0  0  0
 15 43  1  0  0  0  0
 16 19  2  0  0  0  0
 16 21  1  0  0  0  0
 17 44  1  0  0  0  0
 17 45  1  0  0  0  0
 17 46  1  0  0  0  0
 18 23  1  0  0  0  0
 18 47  1  0  0  0  0
 18 48  1  0  0  0  0
 19 49  1  0  0  0  0
 20 50  1  0  0  0  0
 20 51  1  0  0  0  0
 20 52  1  0  0  0  0
 21 24  1  0  0  0  0
 21 53  1  0  0  0  0
 21 54  1  0  0  0  0
 23 24  1  0  0  0  0
 23 55  1  0  0  0  0
 23 56  1  0  0  0  0
 24 57  1  0  0  0  0
 25 26  2  0  0  0  0
 26 59  1  0  0  0  0
 27 28  1  0  0  0  0
 27 60  1  0  0  0  0
 27 61  1  0  0  0  0
 28 29  1  0  0  0  0
 28 62  1  0  0  0  0
 28 63  1  0  0  0  0
 29 64  1  0  0  0  0
 29 65  1  0  0  0  0
 29 66  1  0  0  0  0
M  END
> <PUBCHEM_COMPOUND_CID>
500145
> <PUBCHEM_COMPOUND_CANONICALIZED>
1
> <PUBCHEM_CACTVS_COMPLEXITY>
653
> <PUBCHEM_CACTVS_HBOND_ACCEPTOR>
4
> <PUBCHEM_CACTVS_HBOND_DONOR>
1
> <PUBCHEM_CACTVS_ROTATABLE_BOND>
4
> <PUBCHEM_CACTVS_SUBSKEYS>
AAADcfB6MABAAAAAAAAAAAAAAAAAAeIAAAAwYIAAAAAAAGCBgAAAHgQACAAADxSlwgKihRIIFgikAiBiRAAA+KBhCjgACAYyIAgEEAIggQAOSACEwACoAAOQwPAPgAAAAAAAAADAAAQAACAAAQAACAAAAA==
> <PUBCHEM_IUPAC_OPENEYE_NAME>
10,13-dimethyl-17-(4-propoxythiazol-2-yl)-2,3,4,7,8,9,11,12,14,15,16,17-dodecahydro-1H-cyclopenta[a]phenanthren-3-ol
> <PUBCHEM_IUPAC_CAS_NAME>
10,13-dimethyl-17-(4-propoxy-2-thiazolyl)-2,3,4,7,8,9,11,12,14,15,16,17-dodecahydro-1H-cyclopenta[a]phenanthren-3-ol
> <PUBCHEM_IUPAC_NAME_MARKUP>
10,13-dimethyl-17-(4-propoxy-1,3-thiazol-2-yl)-2,3,4,7,8,9,11,12,14,15,16,17-dodecahydro-1<I>H</I>-cyclopenta[a]phenanthren-3-ol
> <PUBCHEM_IUPAC_NAME>
10,13-dimethyl-17-(4-propoxy-1,3-thiazol-2-yl)-2,3,4,7,8,9,11,12,14,15,16,17-dodecahydro-1H-cyclopenta[a]phenanthren-3-ol
> <PUBCHEM_IUPAC_SYSTEMATIC_NAME>
10,13-dimethyl-17-(4-propoxy-1,3-thiazol-2-yl)-2,3,4,7,8,9,11,12,14,15,16,17-dodecahydro-1H-cyclopenta[a]phenanthren-3-ol
> <PUBCHEM_IUPAC_TRADITIONAL_NAME>
10,13-dimethyl-17-(4-propoxythiazol-2-yl)-2,3,4,7,8,9,11,12,14,15,16,17-dodecahydro-1H-cyclopenta[a]phenanthren-3-ol
> <PUBCHEM_IUPAC_INCHI>
InChI=1S/C25H37NO2S/c1-4-13-28-22-15-29-23(26-22)21-8-7-19-18-6-5-16-14-17(27)9-11-24(16,2)20(18)10-12-25(19,21)3/h5,15,17-21,27H,4,6-14H2,1-3H3
> <PUBCHEM_IUPAC_INCHIKEY>
KREVDQWIPOJXTD-UHFFFAOYSA-N
> <PUBCHEM_XLOGP3_AA>
6.4
> <PUBCHEM_EXACT_MASS>
415.25450060
> <PUBCHEM_MOLECULAR_FORMULA>
C25H37NO2S
> <PUBCHEM_MOLECULAR_WEIGHT>
415.6
> <PUBCHEM_OPENEYE_CAN_SMILES>
CCCOC1=CSC(=N1)C2CCC3C2(CCC4C3CC=C5C4(CCC(C5)O)C)C
> <PUBCHEM_OPENEYE_ISO_SMILES>
CCCOC1=CSC(=N1)C2CCC3C2(CCC4C3CC=C5C4(CCC(C5)O)C)C
> <PUBCHEM_CACTVS_TPSA>
70.6
> <PUBCHEM_MONOISOTOPIC_WEIGHT>
415.25450060
> <PUBCHEM_TOTAL_CHARGE>
0
> <PUBCHEM_HEAVY_ATOM_COUNT>
29
> <PUBCHEM_ATOM_DEF_STEREO_COUNT>
0
> <PUBCHEM_ATOM_UDEF_STEREO_COUNT>
7
> <PUBCHEM_BOND_DEF_STEREO_COUNT>
0
> <PUBCHEM_BOND_UDEF_STEREO_COUNT>
0
> <PUBCHEM_ISOTOPIC_ATOM_COUNT>
0
> <PUBCHEM_COMPONENT_COUNT>
1
> <PUBCHEM_CACTVS_TAUTO_COUNT>
-1
> <PUBCHEM_COORDINATE_TYPE>
1
5
255
> <PUBCHEM_BONDANNOTATIONS>
1  22  8
1  26  8
10  22  3
24  2  3
25  26  8
4  22  8
4  25  8
5  17  3
6  13  3
7  15  3
8  12  3
9  20  3
$$$$
