500150
  -OEChem-10302200282D
 71 75  0     1  0  0  0  0  0999 V2000
   11.3336    0.2493    0.0000 S   0  0  0  0  0  0  0  0  0  0  0  0
    3.7320   -4.3656    0.0000 O   0  0  0  0  0  0  0  0  0  0  0  0
   12.1454    1.8357    0.0000 O   0  0  0  0  0  0  0  0  0  0  0  0
    2.8718   -2.8623    0.0000 O   0  0  0  0  0  0  0  0  0  0  0  0
    9.7956    0.7520    0.0000 N   0  0  0  0  0  0  0  0  0  0  0  0
    9.1251   -1.3133    0.0000 C   0  0  3  0  0  0  0  0  0  0  0  0
    9.1251   -2.3133    0.0000 C   0  0  3  0  0  0  0  0  0  0  0  0
    8.2591   -2.8133    0.0000 C   0  0  3  0  0  0  0  0  0  0  0  0
    7.3931   -2.3133    0.0000 C   0  0  3  0  0  0  0  0  0  0  0  0
    6.4831   -2.8202    0.0000 C   0  0  3  0  0  0  0  0  0  0  0  0
   10.0713   -1.0086    0.0000 C   0  0  3  0  0  0  0  0  0  0  0  0
    8.2591   -0.8133    0.0000 C   0  0  0  0  0  0  0  0  0  0  0  0
    7.3931   -1.3133    0.0000 C   0  0  0  0  0  0  0  0  0  0  0  0
   10.0713   -2.6180    0.0000 C   0  0  0  0  0  0  0  0  0  0  0  0
   10.6550   -1.8133    0.0000 C   0  0  0  0  0  0  0  0  0  0  0  0
    8.2752   -3.8548    0.0000 C   0  0  0  0  0  0  0  0  0  0  0  0
    6.4750   -3.8618    0.0000 C   0  0  0  0  0  0  0  0  0  0  0  0
    9.1251   -0.3133    0.0000 C   0  0  0  0  0  0  0  0  0  0  0  0
    5.5562   -2.2561    0.0000 C   0  0  0  0  0  0  0  0  0  0  0  0
    7.3771   -4.3826    0.0000 C   0  0  0  0  0  0  0  0  0  0  0  0
    6.4908   -1.8202    0.0000 C   0  0  0  0  0  0  0  0  0  0  0  0
    5.5396   -4.4115    0.0000 C   0  0  0  0  0  0  0  0  0  0  0  0
   10.3820   -0.0581    0.0000 C   0  0  0  0  0  0  0  0  0  0  0  0
    4.6084   -2.7840    0.0000 C   0  0  0  0  0  0  0  0  0  0  0  0
    4.6000   -3.8690    0.0000 C   0  0  3  0  0  0  0  0  0  0  0  0
   11.3353    1.2493    0.0000 C   0  0  0  0  0  0  0  0  0  0  0  0
   10.3848    1.5600    0.0000 C   0  0  0  0  0  0  0  0  0  0  0  0
    2.8680   -3.8623    0.0000 C   0  0  0  0  0  0  0  0  0  0  0  0
    2.0000   -4.3590    0.0000 C   0  0  0  0  0  0  0  0  0  0  0  0
   12.0426    2.8304    0.0000 C   0  0  0  0  0  0  0  0  0  0  0  0
   12.8526    3.4168    0.0000 C   0  0  0  0  0  0  0  0  0  0  0  0
   12.7498    4.4115    0.0000 C   0  0  0  0  0  0  0  0  0  0  0  0
    9.1907   -2.9298    0.0000 H   0  0  0  0  0  0  0  0  0  0  0  0
    8.7984   -3.1192    0.0000 H   0  0  0  0  0  0  0  0  0  0  0  0
    7.9300   -2.0033    0.0000 H   0  0  0  0  0  0  0  0  0  0  0  0
   10.6838   -0.9124    0.0000 H   0  0  0  0  0  0  0  0  0  0  0  0
    8.6576   -0.3384    0.0000 H   0  0  0  0  0  0  0  0  0  0  0  0
    7.8606   -0.3384    0.0000 H   0  0  0  0  0  0  0  0  0  0  0  0
    7.1810   -0.7307    0.0000 H   0  0  0  0  0  0  0  0  0  0  0  0
    6.7825   -1.4210    0.0000 H   0  0  0  0  0  0  0  0  0  0  0  0
    9.8203   -3.1850    0.0000 H   0  0  0  0  0  0  0  0  0  0  0  0
   10.6087   -2.9273    0.0000 H   0  0  0  0  0  0  0  0  0  0  0  0
   11.1158   -2.2280    0.0000 H   0  0  0  0  0  0  0  0  0  0  0  0
   11.1158   -1.3986    0.0000 H   0  0  0  0  0  0  0  0  0  0  0  0
    8.4932   -4.4352    0.0000 H   0  0  0  0  0  0  0  0  0  0  0  0
    8.8843   -3.7393    0.0000 H   0  0  0  0  0  0  0  0  0  0  0  0
    9.7451   -0.3133    0.0000 H   0  0  0  0  0  0  0  0  0  0  0  0
    9.1251    0.3067    0.0000 H   0  0  0  0  0  0  0  0  0  0  0  0
    8.5051   -0.3133    0.0000 H   0  0  0  0  0  0  0  0  0  0  0  0
    5.9644   -1.7894    0.0000 H   0  0  0  0  0  0  0  0  0  0  0  0
    5.1663   -1.7740    0.0000 H   0  0  0  0  0  0  0  0  0  0  0  0
    7.3795   -5.0026    0.0000 H   0  0  0  0  0  0  0  0  0  0  0  0
    7.1108   -1.8250    0.0000 H   0  0  0  0  0  0  0  0  0  0  0  0
    6.4956   -1.2002    0.0000 H   0  0  0  0  0  0  0  0  0  0  0  0
    5.8708   -1.8154    0.0000 H   0  0  0  0  0  0  0  0  0  0  0  0
    5.1423   -4.8874    0.0000 H   0  0  0  0  0  0  0  0  0  0  0  0
    5.9406   -4.8844    0.0000 H   0  0  0  0  0  0  0  0  0  0  0  0
    4.4038   -2.1987    0.0000 H   0  0  0  0  0  0  0  0  0  0  0  0
    3.9967   -2.8854    0.0000 H   0  0  0  0  0  0  0  0  0  0  0  0
    4.0648   -3.5559    0.0000 H   0  0  0  0  0  0  0  0  0  0  0  0
   10.1942    2.1500    0.0000 H   0  0  0  0  0  0  0  0  0  0  0  0
    1.6921   -3.8208    0.0000 H   0  0  0  0  0  0  0  0  0  0  0  0
    1.4619   -4.6669    0.0000 H   0  0  0  0  0  0  0  0  0  0  0  0
    2.3079   -4.8971    0.0000 H   0  0  0  0  0  0  0  0  0  0  0  0
   11.7717    3.3881    0.0000 H   0  0  0  0  0  0  0  0  0  0  0  0
   11.4463    2.6605    0.0000 H   0  0  0  0  0  0  0  0  0  0  0  0
   13.1234    2.8591    0.0000 H   0  0  0  0  0  0  0  0  0  0  0  0
   13.4489    3.5866    0.0000 H   0  0  0  0  0  0  0  0  0  0  0  0
   13.3665    4.4752    0.0000 H   0  0  0  0  0  0  0  0  0  0  0  0
   12.6860    5.0282    0.0000 H   0  0  0  0  0  0  0  0  0  0  0  0
   12.1331    4.3477    0.0000 H   0  0  0  0  0  0  0  0  0  0  0  0
  1 23  1  0  0  0  0
  1 26  1  0  0  0  0
  2 25  1  0  0  0  0
  2 28  1  0  0  0  0
  3 26  1  0  0  0  0
  3 30  1  0  0  0  0
  4 28  2  0  0  0  0
  5 23  2  0  0  0  0
  5 27  1  0  0  0  0
  6  7  1  0  0  0  0
  6 11  1  0  0  0  0
  6 12  1  0  0  0  0
  6 18  1  0  0  0  0
  7  8  1  0  0  0  0
  7 14  1  0  0  0  0
  7 33  1  0  0  0  0
  8  9  1  0  0  0  0
  8 16  1  0  0  0  0
  8 34  1  0  0  0  0
  9 10  1  0  0  0  0
  9 13  1  0  0  0  0
  9 35  1  0  0  0  0
 10 17  1  0  0  0  0
 10 19  1  0  0  0  0
 10 21  1  0  0  0  0
 11 15  1  0  0  0  0
 11 23  1  0  0  0  0
 11 36  1  0  0  0  0
 12 13  1  0  0  0  0
 12 37  1  0  0  0  0
 12 38  1  0  0  0  0
 13 39  1  0  0  0  0
 13 40  1  0  0  0  0
 14 15  1  0  0  0  0
 14 41  1  0  0  0  0
 14 42  1  0  0  0  0
 15 43  1  0  0  0  0
 15 44  1  0  0  0  0
 16 20  1  0  0  0  0
 16 45  1  0  0  0  0
 16 46  1  0  0  0  0
 17 20  2  0  0  0  0
 17 22  1  0  0  0  0
 18 47  1  0  0  0  0
 18 48  1  0  0  0  0
 18 49  1  0  0  0  0
 19 24  1  0  0  0  0
 19 50  1  0  0  0  0
 19 51  1  0  0  0  0
 20 52  1  0  0  0  0
 21 53  1  0  0  0  0
 21 54  1  0  0  0  0
 21 55  1  0  0  0  0
 22 25  1  0  0  0  0
 22 56  1  0  0  0  0
 22 57  1  0  0  0  0
 24 25  1  0  0  0  0
 24 58  1  0  0  0  0
 24 59  1  0  0  0  0
 25 60  1  0  0  0  0
 26 27  2  0  0  0  0
 27 61  1  0  0  0  0
 28 29  1  0  0  0  0
 29 62  1  0  0  0  0
 29 63  1  0  0  0  0
 29 64  1  0  0  0  0
 30 31  1  0  0  0  0
 30 65  1  0  0  0  0
 30 66  1  0  0  0  0
 31 32  1  0  0  0  0
 31 67  1  0  0  0  0
 31 68  1  0  0  0  0
 32 69  1  0  0  0  0
 32 70  1  0  0  0  0
 32 71  1  0  0  0  0
M  END
> <PUBCHEM_COMPOUND_CID>
500150
> <PUBCHEM_COMPOUND_CANONICALIZED>
1
> <PUBCHEM_CACTVS_COMPLEXITY>
755
> <PUBCHEM_CACTVS_HBOND_ACCEPTOR>
5
> <PUBCHEM_CACTVS_HBOND_DONOR>
0
> <PUBCHEM_CACTVS_ROTATABLE_BOND>
6
> <PUBCHEM_CACTVS_SUBSKEYS>
AAADcfB6MABAAAAAAAAAAAAAAAAAAeIAAAAwYIAAAAAAAGCBgAAAHgQAAAAADxThwgYujRIIFAisAjD3TAQA+KBxSDhASAw7AAgGAAIggQAHCACEwAC4AAOQwPAPgAAAAAAAAADAAAQAACAAAQAACAAAAA==
> <PUBCHEM_IUPAC_OPENEYE_NAME>
[10,13-dimethyl-17-(5-propoxythiazol-2-yl)-2,3,4,7,8,9,11,12,14,15,16,17-dodecahydro-1H-cyclopenta[a]phenanthren-3-yl] acetate
> <PUBCHEM_IUPAC_CAS_NAME>
acetic acid [10,13-dimethyl-17-(5-propoxy-2-thiazolyl)-2,3,4,7,8,9,11,12,14,15,16,17-dodecahydro-1H-cyclopenta[a]phenanthren-3-yl] ester
> <PUBCHEM_IUPAC_NAME_MARKUP>
[10,13-dimethyl-17-(5-propoxy-1,3-thiazol-2-yl)-2,3,4,7,8,9,11,12,14,15,16,17-dodecahydro-1<I>H</I>-cyclopenta[a]phenanthren-3-yl] acetate
> <PUBCHEM_IUPAC_NAME>
[10,13-dimethyl-17-(5-propoxy-1,3-thiazol-2-yl)-2,3,4,7,8,9,11,12,14,15,16,17-dodecahydro-1H-cyclopenta[a]phenanthren-3-yl] acetate
> <PUBCHEM_IUPAC_SYSTEMATIC_NAME>
[10,13-dimethyl-17-(5-propoxy-1,3-thiazol-2-yl)-2,3,4,7,8,9,11,12,14,15,16,17-dodecahydro-1H-cyclopenta[a]phenanthren-3-yl] ethanoate
> <PUBCHEM_IUPAC_TRADITIONAL_NAME>
acetic acid [10,13-dimethyl-17-(5-propoxythiazol-2-yl)-2,3,4,7,8,9,11,12,14,15,16,17-dodecahydro-1H-cyclopenta[a]phenanthren-3-yl] ester
> <PUBCHEM_IUPAC_INCHI>
InChI=1S/C27H39NO3S/c1-5-14-30-24-16-28-25(32-24)23-9-8-21-20-7-6-18-15-19(31-17(2)29)10-12-26(18,3)22(20)11-13-27(21,23)4/h6,16,19-23H,5,7-15H2,1-4H3
> <PUBCHEM_IUPAC_INCHIKEY>
AOMOXHGMRUBJJG-UHFFFAOYSA-N
> <PUBCHEM_XLOGP3_AA>
6.9
> <PUBCHEM_EXACT_MASS>
457.26506528
> <PUBCHEM_MOLECULAR_FORMULA>
C27H39NO3S
> <PUBCHEM_MOLECULAR_WEIGHT>
457.7
> <PUBCHEM_OPENEYE_CAN_SMILES>
CCCOC1=CN=C(S1)C2CCC3C2(CCC4C3CC=C5C4(CCC(C5)OC(=O)C)C)C
> <PUBCHEM_OPENEYE_ISO_SMILES>
CCCOC1=CN=C(S1)C2CCC3C2(CCC4C3CC=C5C4(CCC(C5)OC(=O)C)C)C
> <PUBCHEM_CACTVS_TPSA>
76.7
> <PUBCHEM_MONOISOTOPIC_WEIGHT>
457.26506528
> <PUBCHEM_TOTAL_CHARGE>
0
> <PUBCHEM_HEAVY_ATOM_COUNT>
32
> <PUBCHEM_ATOM_DEF_STEREO_COUNT>
0
> <PUBCHEM_ATOM_UDEF_STEREO_COUNT>
7
> <PUBCHEM_BOND_DEF_STEREO_COUNT>
0
> <PUBCHEM_BOND_UDEF_STEREO_COUNT>
0
> <PUBCHEM_ISOTOPIC_ATOM_COUNT>
0
> <PUBCHEM_COMPONENT_COUNT>
1
> <PUBCHEM_CACTVS_TAUTO_COUNT>
-1
> <PUBCHEM_COORDINATE_TYPE>
1
5
255
> <PUBCHEM_BONDANNOTATIONS>
1  23  8
1  26  8
10  21  3
11  23  3
25  2  3
26  27  8
5  23  8
5  27  8
6  18  3
7  14  3
8  16  3
9  13  3
$$$$
