500105
  -OEChem-10302200282D
 47 49  0     1  0  0  0  0  0999 V2000
    8.4118   -2.4180    0.0000 S   0  0  0  0  0  0  0  0  0  0  0  0
    8.1845   -3.3918    0.0000 O   0  0  0  0  0  0  0  0  0  0  0  0
    9.0314   -3.2030    0.0000 O   0  0  0  0  0  0  0  0  0  0  0  0
    8.6504    0.8027    0.0000 O   0  0  0  0  0  0  0  0  0  0  0  0
    5.2183    1.0370    0.0000 O   0  0  0  0  0  0  0  0  0  0  0  0
    7.1974    1.3252    0.0000 O   0  0  0  0  0  0  0  0  0  0  0  0
    9.1968   -1.7984    0.0000 N   0  0  3  0  0  0  0  0  0  0  0  0
    7.4470   -0.3887    0.0000 N   0  0  0  0  0  0  0  0  0  0  0  0
    9.2018   -0.7984    0.0000 C   0  0  3  0  0  0  0  0  0  0  0  0
   10.1495   -0.4984    0.0000 C   0  0  0  0  0  0  0  0  0  0  0  0
   10.1415   -2.1079    0.0000 C   0  0  0  0  0  0  0  0  0  0  0  0
   10.7291   -1.3061    0.0000 C   0  0  0  0  0  0  0  0  0  0  0  0
    7.4380   -2.1906    0.0000 C   0  0  0  0  0  0  0  0  0  0  0  0
    8.4230   -0.1711    0.0000 C   0  0  0  0  0  0  0  0  0  0  0  0
    7.0086   -1.2875    0.0000 C   0  0  0  0  0  0  0  0  0  0  0  0
    6.8274    0.3962    0.0000 C   0  0  0  0  0  0  0  0  0  0  0  0
    5.8379    0.2521    0.0000 C   0  0  3  0  0  0  0  0  0  0  0  0
    5.4679   -0.6769    0.0000 C   0  0  0  0  0  0  0  0  0  0  0  0
    4.2287    0.8929    0.0000 C   0  0  0  0  0  0  0  0  0  0  0  0
    3.6092    1.6778    0.0000 C   0  0  0  0  0  0  0  0  0  0  0  0
    2.6196    1.5337    0.0000 C   0  0  0  0  0  0  0  0  0  0  0  0
    3.9791    2.6069    0.0000 C   0  0  0  0  0  0  0  0  0  0  0  0
    2.0000    2.3187    0.0000 C   0  0  0  0  0  0  0  0  0  0  0  0
    3.3595    3.3918    0.0000 C   0  0  0  0  0  0  0  0  0  0  0  0
    2.3700    3.2477    0.0000 C   0  0  0  0  0  0  0  0  0  0  0  0
    9.3163   -0.1891    0.0000 H   0  0  0  0  0  0  0  0  0  0  0  0
   10.6884   -0.1919    0.0000 H   0  0  0  0  0  0  0  0  0  0  0  0
    9.9013    0.0697    0.0000 H   0  0  0  0  0  0  0  0  0  0  0  0
    9.8876   -2.6735    0.0000 H   0  0  0  0  0  0  0  0  0  0  0  0
   10.6773   -2.4198    0.0000 H   0  0  0  0  0  0  0  0  0  0  0  0
   11.1879   -1.7231    0.0000 H   0  0  0  0  0  0  0  0  0  0  0  0
   11.1920   -0.8936    0.0000 H   0  0  0  0  0  0  0  0  0  0  0  0
    6.8329   -2.3256    0.0000 H   0  0  0  0  0  0  0  0  0  0  0  0
    7.4349   -2.8106    0.0000 H   0  0  0  0  0  0  0  0  0  0  0  0
    6.5258   -0.8985    0.0000 H   0  0  0  0  0  0  0  0  0  0  0  0
    6.5220   -1.6717    0.0000 H   0  0  0  0  0  0  0  0  0  0  0  0
    5.2244    0.1628    0.0000 H   0  0  0  0  0  0  0  0  0  0  0  0
    4.8919   -0.4476    0.0000 H   0  0  0  0  0  0  0  0  0  0  0  0
    5.2385   -1.2530    0.0000 H   0  0  0  0  0  0  0  0  0  0  0  0
    6.0439   -0.9063    0.0000 H   0  0  0  0  0  0  0  0  0  0  0  0
    3.6828    0.5991    0.0000 H   0  0  0  0  0  0  0  0  0  0  0  0
    4.4233    0.3042    0.0000 H   0  0  0  0  0  0  0  0  0  0  0  0
    2.3902    0.9577    0.0000 H   0  0  0  0  0  0  0  0  0  0  0  0
    4.5926    2.6962    0.0000 H   0  0  0  0  0  0  0  0  0  0  0  0
    1.3865    2.2293    0.0000 H   0  0  0  0  0  0  0  0  0  0  0  0
    3.5889    3.9678    0.0000 H   0  0  0  0  0  0  0  0  0  0  0  0
    1.9858    3.7344    0.0000 H   0  0  0  0  0  0  0  0  0  0  0  0
  1  2  2  0  0  0  0
  1  3  2  0  0  0  0
  1  7  1  0  0  0  0
  1 13  1  0  0  0  0
  4 14  2  0  0  0  0
  5 17  1  0  0  0  0
  5 19  1  0  0  0  0
  6 16  2  0  0  0  0
  7  9  1  0  0  0  0
  7 11  1  0  0  0  0
  8 14  1  0  0  0  0
  8 15  1  0  0  0  0
  8 16  1  0  0  0  0
  9 10  1  0  0  0  0
  9 14  1  0  0  0  0
  9 26  1  0  0  0  0
 10 12  1  0  0  0  0
 10 27  1  0  0  0  0
 10 28  1  0  0  0  0
 11 12  1  0  0  0  0
 11 29  1  0  0  0  0
 11 30  1  0  0  0  0
 12 31  1  0  0  0  0
 12 32  1  0  0  0  0
 13 15  1  0  0  0  0
 13 33  1  0  0  0  0
 13 34  1  0  0  0  0
 15 35  1  0  0  0  0
 15 36  1  0  0  0  0
 16 17  1  0  0  0  0
 17 18  1  0  0  0  0
 17 37  1  0  0  0  0
 18 38  1  0  0  0  0
 18 39  1  0  0  0  0
 18 40  1  0  0  0  0
 19 20  1  0  0  0  0
 19 41  1  0  0  0  0
 19 42  1  0  0  0  0
 20 21  2  0  0  0  0
 20 22  1  0  0  0  0
 21 23  1  0  0  0  0
 21 43  1  0  0  0  0
 22 24  2  0  0  0  0
 22 44  1  0  0  0  0
 23 25  2  0  0  0  0
 23 45  1  0  0  0  0
 24 25  1  0  0  0  0
 24 46  1  0  0  0  0
 25 47  1  0  0  0  0
M  END
> <PUBCHEM_COMPOUND_CID>
500105
> <PUBCHEM_COMPOUND_CANONICALIZED>
1
> <PUBCHEM_CACTVS_COMPLEXITY>
609
> <PUBCHEM_CACTVS_HBOND_ACCEPTOR>
6
> <PUBCHEM_CACTVS_HBOND_DONOR>
0
> <PUBCHEM_CACTVS_ROTATABLE_BOND>
4
> <PUBCHEM_CACTVS_SUBSKEYS>
AAADceB7OABAAAAAAAAAAAAAAAAAAWAAAAAwAAAABYAAAACxAAAAHgQAQAAADDzl2AayAIMABAKIAiFSEHJCAAAgAAAIiAHICIgKZjKAsTyXMAAkxiGYqAeYwSAOAAAAAAAAAAAAAAAAAAAAAAAAAAAAAA==
> <PUBCHEM_IUPAC_OPENEYE_NAME>
4-(2-benzyloxypropanoyl)-1,1-dioxo-2,3,5a,6,7,8-hexahydropyrrolo[1,2-b][1,2,5]thiadiazepin-5-one
> <PUBCHEM_IUPAC_CAS_NAME>
1,1-dioxo-4-(1-oxo-2-phenylmethoxypropyl)-2,3,5a,6,7,8-hexahydropyrrolo[1,2-b][1,2,5]thiadiazepin-5-one
> <PUBCHEM_IUPAC_NAME_MARKUP>
1,1-dioxo-4-(2-phenylmethoxypropanoyl)-2,3,5<I>a</I>,6,7,8-hexahydropyrrolo[1,2-b][1,2,5]thiadiazepin-5-one
> <PUBCHEM_IUPAC_NAME>
1,1-dioxo-4-(2-phenylmethoxypropanoyl)-2,3,5a,6,7,8-hexahydropyrrolo[1,2-b][1,2,5]thiadiazepin-5-one
> <PUBCHEM_IUPAC_SYSTEMATIC_NAME>
1,1-bis(oxidanylidene)-4-(2-phenylmethoxypropanoyl)-2,3,5a,6,7,8-hexahydropyrrolo[1,2-b][1,2,5]thiadiazepin-5-one
> <PUBCHEM_IUPAC_TRADITIONAL_NAME>
4-(2-benzoxypropanoyl)-1,1-diketo-2,3,5a,6,7,8-hexahydropyrrolo[1,2-b][1,2,5]thiadiazepin-5-one
> <PUBCHEM_IUPAC_INCHI>
InChI=1S/C17H22N2O5S/c1-13(24-12-14-6-3-2-4-7-14)16(20)18-10-11-25(22,23)19-9-5-8-15(19)17(18)21/h2-4,6-7,13,15H,5,8-12H2,1H3
> <PUBCHEM_IUPAC_INCHIKEY>
ZCYWSHFVUILJAE-UHFFFAOYSA-N
> <PUBCHEM_XLOGP3_AA>
0.9
> <PUBCHEM_EXACT_MASS>
366.12494298
> <PUBCHEM_MOLECULAR_FORMULA>
C17H22N2O5S
> <PUBCHEM_MOLECULAR_WEIGHT>
366.4
> <PUBCHEM_OPENEYE_CAN_SMILES>
CC(C(=O)N1CCS(=O)(=O)N2CCCC2C1=O)OCC3=CC=CC=C3
> <PUBCHEM_OPENEYE_ISO_SMILES>
CC(C(=O)N1CCS(=O)(=O)N2CCCC2C1=O)OCC3=CC=CC=C3
> <PUBCHEM_CACTVS_TPSA>
92.4
> <PUBCHEM_MONOISOTOPIC_WEIGHT>
366.12494298
> <PUBCHEM_TOTAL_CHARGE>
0
> <PUBCHEM_HEAVY_ATOM_COUNT>
25
> <PUBCHEM_ATOM_DEF_STEREO_COUNT>
0
> <PUBCHEM_ATOM_UDEF_STEREO_COUNT>
2
> <PUBCHEM_BOND_DEF_STEREO_COUNT>
0
> <PUBCHEM_BOND_UDEF_STEREO_COUNT>
0
> <PUBCHEM_ISOTOPIC_ATOM_COUNT>
0
> <PUBCHEM_COMPONENT_COUNT>
1
> <PUBCHEM_CACTVS_TAUTO_COUNT>
-1
> <PUBCHEM_COORDINATE_TYPE>
1
5
255
> <PUBCHEM_BONDANNOTATIONS>
17  18  3
20  21  8
20  22  8
21  23  8
22  24  8
23  25  8
24  25  8
9  10  3
$$$$
