500152
  -OEChem-10302200282D
 59 63  0     1  0  0  0  0  0999 V2000
   10.1373    1.5372    0.0000 S   0  0  0  0  0  0  0  0  0  0  0  0
    2.5357   -3.0778    0.0000 O   0  0  0  0  0  0  0  0  0  0  0  0
    8.5993    2.0399    0.0000 N   0  0  0  0  0  0  0  0  0  0  0  0
    7.9288   -0.0254    0.0000 C   0  0  3  0  0  0  0  0  0  0  0  0
    7.9288   -1.0254    0.0000 C   0  0  3  0  0  0  0  0  0  0  0  0
    7.0628   -1.5254    0.0000 C   0  0  3  0  0  0  0  0  0  0  0  0
    6.1968   -1.0254    0.0000 C   0  0  3  0  0  0  0  0  0  0  0  0
    5.2868   -1.5323    0.0000 C   0  0  3  0  0  0  0  0  0  0  0  0
    8.8750    0.2793    0.0000 C   0  0  3  0  0  0  0  0  0  0  0  0
    7.0628    0.4746    0.0000 C   0  0  0  0  0  0  0  0  0  0  0  0
    6.1968   -0.0254    0.0000 C   0  0  0  0  0  0  0  0  0  0  0  0
    8.8750   -1.3302    0.0000 C   0  0  0  0  0  0  0  0  0  0  0  0
    9.4586   -0.5254    0.0000 C   0  0  0  0  0  0  0  0  0  0  0  0
    7.0789   -2.5669    0.0000 C   0  0  0  0  0  0  0  0  0  0  0  0
    5.2787   -2.5739    0.0000 C   0  0  0  0  0  0  0  0  0  0  0  0
    7.9288    0.9746    0.0000 C   0  0  0  0  0  0  0  0  0  0  0  0
    4.3599   -0.9682    0.0000 C   0  0  0  0  0  0  0  0  0  0  0  0
    6.1808   -3.0947    0.0000 C   0  0  0  0  0  0  0  0  0  0  0  0
    5.2945   -0.5323    0.0000 C   0  0  0  0  0  0  0  0  0  0  0  0
    4.3433   -3.1236    0.0000 C   0  0  0  0  0  0  0  0  0  0  0  0
    9.1857    1.2298    0.0000 C   0  0  0  0  0  0  0  0  0  0  0  0
    3.4120   -1.4961    0.0000 C   0  0  0  0  0  0  0  0  0  0  0  0
    3.4037   -2.5811    0.0000 C   0  0  3  0  0  0  0  0  0  0  0  0
   10.1390    2.5372    0.0000 C   0  0  0  0  0  0  0  0  0  0  0  0
    9.1885    2.8479    0.0000 C   0  0  0  0  0  0  0  0  0  0  0  0
   10.9491    3.1236    0.0000 C   0  0  0  0  0  0  0  0  0  0  0  0
    7.9944   -1.6419    0.0000 H   0  0  0  0  0  0  0  0  0  0  0  0
    7.6021   -1.8313    0.0000 H   0  0  0  0  0  0  0  0  0  0  0  0
    6.7337   -0.7154    0.0000 H   0  0  0  0  0  0  0  0  0  0  0  0
    9.4875    0.3755    0.0000 H   0  0  0  0  0  0  0  0  0  0  0  0
    7.4613    0.9495    0.0000 H   0  0  0  0  0  0  0  0  0  0  0  0
    6.6643    0.9495    0.0000 H   0  0  0  0  0  0  0  0  0  0  0  0
    5.9847    0.5572    0.0000 H   0  0  0  0  0  0  0  0  0  0  0  0
    5.5862   -0.1331    0.0000 H   0  0  0  0  0  0  0  0  0  0  0  0
    8.6240   -1.8971    0.0000 H   0  0  0  0  0  0  0  0  0  0  0  0
    9.4124   -1.6394    0.0000 H   0  0  0  0  0  0  0  0  0  0  0  0
    9.9195   -0.9401    0.0000 H   0  0  0  0  0  0  0  0  0  0  0  0
    9.9195   -0.1107    0.0000 H   0  0  0  0  0  0  0  0  0  0  0  0
    7.2969   -3.1473    0.0000 H   0  0  0  0  0  0  0  0  0  0  0  0
    7.6880   -2.4514    0.0000 H   0  0  0  0  0  0  0  0  0  0  0  0
    8.5488    0.9746    0.0000 H   0  0  0  0  0  0  0  0  0  0  0  0
    7.9288    1.5946    0.0000 H   0  0  0  0  0  0  0  0  0  0  0  0
    7.3088    0.9746    0.0000 H   0  0  0  0  0  0  0  0  0  0  0  0
    4.7681   -0.5015    0.0000 H   0  0  0  0  0  0  0  0  0  0  0  0
    3.9700   -0.4861    0.0000 H   0  0  0  0  0  0  0  0  0  0  0  0
    6.1832   -3.7147    0.0000 H   0  0  0  0  0  0  0  0  0  0  0  0
    5.9145   -0.5371    0.0000 H   0  0  0  0  0  0  0  0  0  0  0  0
    5.2993    0.0877    0.0000 H   0  0  0  0  0  0  0  0  0  0  0  0
    4.6745   -0.5275    0.0000 H   0  0  0  0  0  0  0  0  0  0  0  0
    3.9460   -3.5996    0.0000 H   0  0  0  0  0  0  0  0  0  0  0  0
    4.7443   -3.5965    0.0000 H   0  0  0  0  0  0  0  0  0  0  0  0
    3.2075   -0.9108    0.0000 H   0  0  0  0  0  0  0  0  0  0  0  0
    2.8004   -1.5975    0.0000 H   0  0  0  0  0  0  0  0  0  0  0  0
    2.8686   -2.2680    0.0000 H   0  0  0  0  0  0  0  0  0  0  0  0
    2.0000   -2.7657    0.0000 H   0  0  0  0  0  0  0  0  0  0  0  0
    8.9979    3.4378    0.0000 H   0  0  0  0  0  0  0  0  0  0  0  0
   11.3126    2.6214    0.0000 H   0  0  0  0  0  0  0  0  0  0  0  0
   11.4513    3.4872    0.0000 H   0  0  0  0  0  0  0  0  0  0  0  0
   10.5855    3.6258    0.0000 H   0  0  0  0  0  0  0  0  0  0  0  0
  1 21  1  0  0  0  0
  1 24  1  0  0  0  0
  2 23  1  0  0  0  0
  2 55  1  0  0  0  0
  3 21  2  0  0  0  0
  3 25  1  0  0  0  0
  4  5  1  0  0  0  0
  4  9  1  0  0  0  0
  4 10  1  0  0  0  0
  4 16  1  0  0  0  0
  5  6  1  0  0  0  0
  5 12  1  0  0  0  0
  5 27  1  0  0  0  0
  6  7  1  0  0  0  0
  6 14  1  0  0  0  0
  6 28  1  0  0  0  0
  7  8  1  0  0  0  0
  7 11  1  0  0  0  0
  7 29  1  0  0  0  0
  8 15  1  0  0  0  0
  8 17  1  0  0  0  0
  8 19  1  0  0  0  0
  9 13  1  0  0  0  0
  9 21  1  0  0  0  0
  9 30  1  0  0  0  0
 10 11  1  0  0  0  0
 10 31  1  0  0  0  0
 10 32  1  0  0  0  0
 11 33  1  0  0  0  0
 11 34  1  0  0  0  0
 12 13  1  0  0  0  0
 12 35  1  0  0  0  0
 12 36  1  0  0  0  0
 13 37  1  0  0  0  0
 13 38  1  0  0  0  0
 14 18  1  0  0  0  0
 14 39  1  0  0  0  0
 14 40  1  0  0  0  0
 15 18  2  0  0  0  0
 15 20  1  0  0  0  0
 16 41  1  0  0  0  0
 16 42  1  0  0  0  0
 16 43  1  0  0  0  0
 17 22  1  0  0  0  0
 17 44  1  0  0  0  0
 17 45  1  0  0  0  0
 18 46  1  0  0  0  0
 19 47  1  0  0  0  0
 19 48  1  0  0  0  0
 19 49  1  0  0  0  0
 20 23  1  0  0  0  0
 20 50  1  0  0  0  0
 20 51  1  0  0  0  0
 22 23  1  0  0  0  0
 22 52  1  0  0  0  0
 22 53  1  0  0  0  0
 23 54  1  0  0  0  0
 24 25  2  0  0  0  0
 24 26  1  0  0  0  0
 25 56  1  0  0  0  0
 26 57  1  0  0  0  0
 26 58  1  0  0  0  0
 26 59  1  0  0  0  0
M  END
> <PUBCHEM_COMPOUND_CID>
500152
> <PUBCHEM_COMPOUND_CANONICALIZED>
1
> <PUBCHEM_CACTVS_COMPLEXITY>
605
> <PUBCHEM_CACTVS_HBOND_ACCEPTOR>
3
> <PUBCHEM_CACTVS_HBOND_DONOR>
1
> <PUBCHEM_CACTVS_ROTATABLE_BOND>
1
> <PUBCHEM_CACTVS_SUBSKEYS>
AAADcfB6IABAAAAAAAAAAAAAAAAAAeIAAAAwYIAAAAAAAGCBgAAAHgQACAAADxTh0gYugRIIEgikAjBnRAAA8KBxCDhAWAw4QAgAEAJggQAEQAAEwADoAAOQwPAPgAAAAAAAAADAAAQAACAAAQAACAAAAA==
> <PUBCHEM_IUPAC_OPENEYE_NAME>
10,13-dimethyl-17-(5-methylthiazol-2-yl)-2,3,4,7,8,9,11,12,14,15,16,17-dodecahydro-1H-cyclopenta[a]phenanthren-3-ol
> <PUBCHEM_IUPAC_CAS_NAME>
10,13-dimethyl-17-(5-methyl-2-thiazolyl)-2,3,4,7,8,9,11,12,14,15,16,17-dodecahydro-1H-cyclopenta[a]phenanthren-3-ol
> <PUBCHEM_IUPAC_NAME_MARKUP>
10,13-dimethyl-17-(5-methyl-1,3-thiazol-2-yl)-2,3,4,7,8,9,11,12,14,15,16,17-dodecahydro-1<I>H</I>-cyclopenta[a]phenanthren-3-ol
> <PUBCHEM_IUPAC_NAME>
10,13-dimethyl-17-(5-methyl-1,3-thiazol-2-yl)-2,3,4,7,8,9,11,12,14,15,16,17-dodecahydro-1H-cyclopenta[a]phenanthren-3-ol
> <PUBCHEM_IUPAC_SYSTEMATIC_NAME>
10,13-dimethyl-17-(5-methyl-1,3-thiazol-2-yl)-2,3,4,7,8,9,11,12,14,15,16,17-dodecahydro-1H-cyclopenta[a]phenanthren-3-ol
> <PUBCHEM_IUPAC_TRADITIONAL_NAME>
10,13-dimethyl-17-(5-methylthiazol-2-yl)-2,3,4,7,8,9,11,12,14,15,16,17-dodecahydro-1H-cyclopenta[a]phenanthren-3-ol
> <PUBCHEM_IUPAC_INCHI>
InChI=1S/C23H33NOS/c1-14-13-24-21(26-14)20-7-6-18-17-5-4-15-12-16(25)8-10-22(15,2)19(17)9-11-23(18,20)3/h4,13,16-20,25H,5-12H2,1-3H3
> <PUBCHEM_IUPAC_INCHIKEY>
CRALFBLYPNQTIM-UHFFFAOYSA-N
> <PUBCHEM_XLOGP3_AA>
5.6
> <PUBCHEM_EXACT_MASS>
371.22828585
> <PUBCHEM_MOLECULAR_FORMULA>
C23H33NOS
> <PUBCHEM_MOLECULAR_WEIGHT>
371.6
> <PUBCHEM_OPENEYE_CAN_SMILES>
CC1=CN=C(S1)C2CCC3C2(CCC4C3CC=C5C4(CCC(C5)O)C)C
> <PUBCHEM_OPENEYE_ISO_SMILES>
CC1=CN=C(S1)C2CCC3C2(CCC4C3CC=C5C4(CCC(C5)O)C)C
> <PUBCHEM_CACTVS_TPSA>
61.4
> <PUBCHEM_MONOISOTOPIC_WEIGHT>
371.22828585
> <PUBCHEM_TOTAL_CHARGE>
0
> <PUBCHEM_HEAVY_ATOM_COUNT>
26
> <PUBCHEM_ATOM_DEF_STEREO_COUNT>
0
> <PUBCHEM_ATOM_UDEF_STEREO_COUNT>
7
> <PUBCHEM_BOND_DEF_STEREO_COUNT>
0
> <PUBCHEM_BOND_UDEF_STEREO_COUNT>
0
> <PUBCHEM_ISOTOPIC_ATOM_COUNT>
0
> <PUBCHEM_COMPONENT_COUNT>
1
> <PUBCHEM_CACTVS_TAUTO_COUNT>
-1
> <PUBCHEM_COORDINATE_TYPE>
1
5
255
> <PUBCHEM_BONDANNOTATIONS>
1  21  8
1  24  8
23  2  3
24  25  8
3  21  8
3  25  8
4  16  3
5  12  3
6  14  3
7  11  3
8  19  3
9  21  3
$$$$
