500130
  -OEChem-10302200282D
 28 29  0     1  0  0  0  0  0999 V2000
    4.6316   -1.8511    0.0000 O   0  0  0  0  0  0  0  0  0  0  0  0
    3.8226   -0.4498    0.0000 O   0  0  0  0  0  0  0  0  0  0  0  0
    2.2522   -3.0770    0.0000 O   0  0  0  0  0  0  0  0  0  0  0  0
    7.3342    0.6435    0.0000 O   0  0  0  0  0  0  0  0  0  0  0  0
    5.6021    3.6434    0.0000 O   0  0  0  0  0  0  0  0  0  0  0  0
    5.6021    0.6435    0.0000 N   0  0  0  0  0  0  0  0  0  0  0  0
    6.4682    2.1434    0.0000 N   0  0  0  0  0  0  0  0  0  0  0  0
    4.7361   -0.8565    0.0000 C   0  0  2  0  0  0  0  0  0  0  0  0
    3.6534   -2.0590    0.0000 C   0  0  1  0  0  0  0  0  0  0  0  0
    3.1534   -1.1930    0.0000 C   0  0  0  0  0  0  0  0  0  0  0  0
    5.6021   -0.3565    0.0000 C   0  0  0  0  0  0  0  0  0  0  0  0
    3.2467   -2.9725    0.0000 C   0  0  0  0  0  0  0  0  0  0  0  0
    6.4682    1.1434    0.0000 C   0  0  0  0  0  0  0  0  0  0  0  0
    4.7361    1.1434    0.0000 C   0  0  0  0  0  0  0  0  0  0  0  0
    4.7361    2.1434    0.0000 C   0  0  0  0  0  0  0  0  0  0  0  0
    5.6021    2.6434    0.0000 C   0  0  0  0  0  0  0  0  0  0  0  0
    4.7037   -0.2374    0.0000 H   0  0  0  0  0  0  0  0  0  0  0  0
    4.0436   -2.5408    0.0000 H   0  0  0  0  0  0  0  0  0  0  0  0
    2.7386   -0.7322    0.0000 H   0  0  0  0  0  0  0  0  0  0  0  0
    2.6518   -1.5574    0.0000 H   0  0  0  0  0  0  0  0  0  0  0  0
    5.8142   -0.9392    0.0000 H   0  0  0  0  0  0  0  0  0  0  0  0
    6.2127   -0.2489    0.0000 H   0  0  0  0  0  0  0  0  0  0  0  0
    3.2034   -3.5910    0.0000 H   0  0  0  0  0  0  0  0  0  0  0  0
    3.8483   -3.1225    0.0000 H   0  0  0  0  0  0  0  0  0  0  0  0
    4.1992    0.8335    0.0000 H   0  0  0  0  0  0  0  0  0  0  0  0
    7.0051    2.4534    0.0000 H   0  0  0  0  0  0  0  0  0  0  0  0
    4.1992    2.4534    0.0000 H   0  0  0  0  0  0  0  0  0  0  0  0
    2.0000   -3.6434    0.0000 H   0  0  0  0  0  0  0  0  0  0  0  0
  1  8  1  0  0  0  0
  1  9  1  0  0  0  0
  2  8  1  0  0  0  0
  2 10  1  0  0  0  0
  3 12  1  0  0  0  0
  3 28  1  0  0  0  0
  4 13  2  0  0  0  0
  5 16  2  0  0  0  0
  6 11  1  0  0  0  0
  6 13  1  0  0  0  0
  6 14  1  0  0  0  0
  7 13  1  0  0  0  0
  7 16  1  0  0  0  0
  7 26  1  0  0  0  0
  8 11  1  6  0  0  0
  8 17  1  0  0  0  0
  9 10  1  0  0  0  0
  9 12  1  6  0  0  0
  9 18  1  0  0  0  0
 10 19  1  0  0  0  0
 10 20  1  0  0  0  0
 11 21  1  0  0  0  0
 11 22  1  0  0  0  0
 12 23  1  0  0  0  0
 12 24  1  0  0  0  0
 14 15  2  0  0  0  0
 14 25  1  0  0  0  0
 15 16  1  0  0  0  0
 15 27  1  0  0  0  0
M  END
> <PUBCHEM_COMPOUND_CID>
500130
> <PUBCHEM_COMPOUND_CANONICALIZED>
1
> <PUBCHEM_CACTVS_COMPLEXITY>
330
> <PUBCHEM_CACTVS_HBOND_ACCEPTOR>
5
> <PUBCHEM_CACTVS_HBOND_DONOR>
2
> <PUBCHEM_CACTVS_ROTATABLE_BOND>
3
> <PUBCHEM_CACTVS_SUBSKEYS>
AAADccBzOAAAAAAAAAAAAAAAAAAAASAAAAAgAAAAAAAAAAAAAAAAHgAQCAAACBTxgAcBCAPABgCIACFWUACAAAAAAgAIAAAIAECTEAAAAAAjQAAJFyIXAMAAAAAAAAAAAAAAAAAAAAAAAAAAAAAAAAAAAA==
> <PUBCHEM_IUPAC_OPENEYE_NAME>
1-[[(2S,4R)-4-(hydroxymethyl)-1,3-dioxolan-2-yl]methyl]pyrimidine-2,4-dione
> <PUBCHEM_IUPAC_CAS_NAME>
1-[[(2S,4R)-4-(hydroxymethyl)-1,3-dioxolan-2-yl]methyl]pyrimidine-2,4-dione
> <PUBCHEM_IUPAC_NAME_MARKUP>
1-[[(2<I>S</I>,4<I>R</I>)-4-(hydroxymethyl)-1,3-dioxolan-2-yl]methyl]pyrimidine-2,4-dione
> <PUBCHEM_IUPAC_NAME>
1-[[(2S,4R)-4-(hydroxymethyl)-1,3-dioxolan-2-yl]methyl]pyrimidine-2,4-dione
> <PUBCHEM_IUPAC_SYSTEMATIC_NAME>
1-[[(2S,4R)-4-(hydroxymethyl)-1,3-dioxolan-2-yl]methyl]pyrimidine-2,4-dione
> <PUBCHEM_IUPAC_TRADITIONAL_NAME>
1-[[(2S,4R)-4-methylol-1,3-dioxolan-2-yl]methyl]pyrimidine-2,4-quinone
> <PUBCHEM_IUPAC_INCHI>
InChI=1S/C9H12N2O5/c12-4-6-5-15-8(16-6)3-11-2-1-7(13)10-9(11)14/h1-2,6,8,12H,3-5H2,(H,10,13,14)/t6-,8+/m1/s1
> <PUBCHEM_IUPAC_INCHIKEY>
JCIHSXGVPHRWNI-SVRRBLITSA-N
> <PUBCHEM_XLOGP3_AA>
-1.8
> <PUBCHEM_EXACT_MASS>
228.07462149
> <PUBCHEM_MOLECULAR_FORMULA>
C9H12N2O5
> <PUBCHEM_MOLECULAR_WEIGHT>
228.20
> <PUBCHEM_OPENEYE_CAN_SMILES>
C1C(OC(O1)CN2C=CC(=O)NC2=O)CO
> <PUBCHEM_OPENEYE_ISO_SMILES>
C1[C@H](O[C@H](O1)CN2C=CC(=O)NC2=O)CO
> <PUBCHEM_CACTVS_TPSA>
88.1
> <PUBCHEM_MONOISOTOPIC_WEIGHT>
228.07462149
> <PUBCHEM_TOTAL_CHARGE>
0
> <PUBCHEM_HEAVY_ATOM_COUNT>
16
> <PUBCHEM_ATOM_DEF_STEREO_COUNT>
2
> <PUBCHEM_ATOM_UDEF_STEREO_COUNT>
0
> <PUBCHEM_BOND_DEF_STEREO_COUNT>
0
> <PUBCHEM_BOND_UDEF_STEREO_COUNT>
0
> <PUBCHEM_ISOTOPIC_ATOM_COUNT>
0
> <PUBCHEM_COMPONENT_COUNT>
1
> <PUBCHEM_CACTVS_TAUTO_COUNT>
-1
> <PUBCHEM_COORDINATE_TYPE>
1
5
255
> <PUBCHEM_BONDANNOTATIONS>
14  15  8
15  16  8
6  13  8
6  14  8
7  13  8
7  16  8
8  11  6
9  12  6
$$$$
