500144
  -OEChem-10302200282D
 63 67  0     1  0  0  0  0  0999 V2000
   10.1373    0.3525    0.0000 S   0  0  0  0  0  0  0  0  0  0  0  0
    2.5357   -4.2625    0.0000 O   0  0  0  0  0  0  0  0  0  0  0  0
    8.8811    2.6147    0.0000 O   0  0  0  0  0  0  0  0  0  0  0  0
    8.5993    0.8551    0.0000 N   0  0  0  0  0  0  0  0  0  0  0  0
    7.9288   -1.2101    0.0000 C   0  0  3  0  0  0  0  0  0  0  0  0
    7.9288   -2.2101    0.0000 C   0  0  3  0  0  0  0  0  0  0  0  0
    7.0628   -2.7101    0.0000 C   0  0  3  0  0  0  0  0  0  0  0  0
    6.1968   -2.2101    0.0000 C   0  0  3  0  0  0  0  0  0  0  0  0
    5.2868   -2.7170    0.0000 C   0  0  3  0  0  0  0  0  0  0  0  0
    8.8750   -0.9054    0.0000 C   0  0  3  0  0  0  0  0  0  0  0  0
    7.0628   -0.7101    0.0000 C   0  0  0  0  0  0  0  0  0  0  0  0
    6.1968   -1.2101    0.0000 C   0  0  0  0  0  0  0  0  0  0  0  0
    8.8750   -2.5149    0.0000 C   0  0  0  0  0  0  0  0  0  0  0  0
    9.4586   -1.7101    0.0000 C   0  0  0  0  0  0  0  0  0  0  0  0
    7.0789   -3.7516    0.0000 C   0  0  0  0  0  0  0  0  0  0  0  0
    5.2787   -3.7586    0.0000 C   0  0  0  0  0  0  0  0  0  0  0  0
    7.9288   -0.2101    0.0000 C   0  0  0  0  0  0  0  0  0  0  0  0
    4.3599   -2.1529    0.0000 C   0  0  0  0  0  0  0  0  0  0  0  0
    6.1808   -4.2794    0.0000 C   0  0  0  0  0  0  0  0  0  0  0  0
    5.2945   -1.7170    0.0000 C   0  0  0  0  0  0  0  0  0  0  0  0
    4.3433   -4.3083    0.0000 C   0  0  0  0  0  0  0  0  0  0  0  0
    9.1857    0.0451    0.0000 C   0  0  0  0  0  0  0  0  0  0  0  0
    3.4120   -2.6808    0.0000 C   0  0  0  0  0  0  0  0  0  0  0  0
    3.4037   -3.7658    0.0000 C   0  0  3  0  0  0  0  0  0  0  0  0
    9.1885    1.6631    0.0000 C   0  0  0  0  0  0  0  0  0  0  0  0
   10.1390    1.3525    0.0000 C   0  0  0  0  0  0  0  0  0  0  0  0
    9.5516    3.3567    0.0000 C   0  0  0  0  0  0  0  0  0  0  0  0
    9.2442    4.3083    0.0000 C   0  0  0  0  0  0  0  0  0  0  0  0
    7.9944   -2.8267    0.0000 H   0  0  0  0  0  0  0  0  0  0  0  0
    7.6021   -3.0160    0.0000 H   0  0  0  0  0  0  0  0  0  0  0  0
    6.7337   -1.9001    0.0000 H   0  0  0  0  0  0  0  0  0  0  0  0
    9.4875   -0.8092    0.0000 H   0  0  0  0  0  0  0  0  0  0  0  0
    7.4613   -0.2352    0.0000 H   0  0  0  0  0  0  0  0  0  0  0  0
    6.6643   -0.2352    0.0000 H   0  0  0  0  0  0  0  0  0  0  0  0
    5.9847   -0.6275    0.0000 H   0  0  0  0  0  0  0  0  0  0  0  0
    5.5862   -1.3178    0.0000 H   0  0  0  0  0  0  0  0  0  0  0  0
    8.6240   -3.0818    0.0000 H   0  0  0  0  0  0  0  0  0  0  0  0
    9.4124   -2.8241    0.0000 H   0  0  0  0  0  0  0  0  0  0  0  0
    9.9195   -2.1249    0.0000 H   0  0  0  0  0  0  0  0  0  0  0  0
    9.9195   -1.2954    0.0000 H   0  0  0  0  0  0  0  0  0  0  0  0
    7.2969   -4.3320    0.0000 H   0  0  0  0  0  0  0  0  0  0  0  0
    7.6880   -3.6362    0.0000 H   0  0  0  0  0  0  0  0  0  0  0  0
    8.5488   -0.2101    0.0000 H   0  0  0  0  0  0  0  0  0  0  0  0
    7.9288    0.4099    0.0000 H   0  0  0  0  0  0  0  0  0  0  0  0
    7.3088   -0.2101    0.0000 H   0  0  0  0  0  0  0  0  0  0  0  0
    4.7681   -1.6862    0.0000 H   0  0  0  0  0  0  0  0  0  0  0  0
    3.9700   -1.6709    0.0000 H   0  0  0  0  0  0  0  0  0  0  0  0
    6.1832   -4.8994    0.0000 H   0  0  0  0  0  0  0  0  0  0  0  0
    5.9145   -1.7218    0.0000 H   0  0  0  0  0  0  0  0  0  0  0  0
    5.2993   -1.0970    0.0000 H   0  0  0  0  0  0  0  0  0  0  0  0
    4.6745   -1.7122    0.0000 H   0  0  0  0  0  0  0  0  0  0  0  0
    3.9460   -4.7843    0.0000 H   0  0  0  0  0  0  0  0  0  0  0  0
    4.7443   -4.7812    0.0000 H   0  0  0  0  0  0  0  0  0  0  0  0
    3.2075   -2.0956    0.0000 H   0  0  0  0  0  0  0  0  0  0  0  0
    2.8004   -2.7822    0.0000 H   0  0  0  0  0  0  0  0  0  0  0  0
    3.4025   -4.3858    0.0000 H   0  0  0  0  0  0  0  0  0  0  0  0
    2.0000   -3.9504    0.0000 H   0  0  0  0  0  0  0  0  0  0  0  0
   10.6412    1.7160    0.0000 H   0  0  0  0  0  0  0  0  0  0  0  0
    9.9324    2.8675    0.0000 H   0  0  0  0  0  0  0  0  0  0  0  0
   10.0995    3.6468    0.0000 H   0  0  0  0  0  0  0  0  0  0  0  0
    9.8342    4.4989    0.0000 H   0  0  0  0  0  0  0  0  0  0  0  0
    9.0536    4.8983    0.0000 H   0  0  0  0  0  0  0  0  0  0  0  0
    8.6542    4.1177    0.0000 H   0  0  0  0  0  0  0  0  0  0  0  0
  1 22  1  0  0  0  0
  1 26  1  0  0  0  0
  2 24  1  0  0  0  0
  2 57  1  0  0  0  0
  3 25  1  0  0  0  0
  3 27  1  0  0  0  0
  4 22  2  0  0  0  0
  4 25  1  0  0  0  0
  5  6  1  0  0  0  0
  5 10  1  0  0  0  0
  5 11  1  0  0  0  0
  5 17  1  0  0  0  0
  6  7  1  0  0  0  0
  6 13  1  0  0  0  0
  6 29  1  0  0  0  0
  7  8  1  0  0  0  0
  7 15  1  0  0  0  0
  7 30  1  0  0  0  0
  8  9  1  0  0  0  0
  8 12  1  0  0  0  0
  8 31  1  0  0  0  0
  9 16  1  0  0  0  0
  9 18  1  0  0  0  0
  9 20  1  0  0  0  0
 10 14  1  0  0  0  0
 10 22  1  0  0  0  0
 10 32  1  0  0  0  0
 11 12  1  0  0  0  0
 11 33  1  0  0  0  0
 11 34  1  0  0  0  0
 12 35  1  0  0  0  0
 12 36  1  0  0  0  0
 13 14  1  0  0  0  0
 13 37  1  0  0  0  0
 13 38  1  0  0  0  0
 14 39  1  0  0  0  0
 14 40  1  0  0  0  0
 15 19  1  0  0  0  0
 15 41  1  0  0  0  0
 15 42  1  0  0  0  0
 16 19  2  0  0  0  0
 16 21  1  0  0  0  0
 17 43  1  0  0  0  0
 17 44  1  0  0  0  0
 17 45  1  0  0  0  0
 18 23  1  0  0  0  0
 18 46  1  0  0  0  0
 18 47  1  0  0  0  0
 19 48  1  0  0  0  0
 20 49  1  0  0  0  0
 20 50  1  0  0  0  0
 20 51  1  0  0  0  0
 21 24  1  0  0  0  0
 21 52  1  0  0  0  0
 21 53  1  0  0  0  0
 23 24  1  0  0  0  0
 23 54  1  0  0  0  0
 23 55  1  0  0  0  0
 24 56  1  0  0  0  0
 25 26  2  0  0  0  0
 26 58  1  0  0  0  0
 27 28  1  0  0  0  0
 27 59  1  0  0  0  0
 27 60  1  0  0  0  0
 28 61  1  0  0  0  0
 28 62  1  0  0  0  0
 28 63  1  0  0  0  0
M  END
> <PUBCHEM_COMPOUND_CID>
500144
> <PUBCHEM_COMPOUND_CANONICALIZED>
1
> <PUBCHEM_CACTVS_COMPLEXITY>
638
> <PUBCHEM_CACTVS_HBOND_ACCEPTOR>
4
> <PUBCHEM_CACTVS_HBOND_DONOR>
1
> <PUBCHEM_CACTVS_ROTATABLE_BOND>
3
> <PUBCHEM_CACTVS_SUBSKEYS>
AAADcfB6MABAAAAAAAAAAAAAAAAAAeIAAAAwYIAAAAAAAGCBgAAAHgQACAAADxSlwgKihRIIFgikAiBiRAAA+KBhCjgACAYyIAgEEAIggQAOSACEwACoAAOQwPAPgAAAAAAAAADAAAQAACAAAQAACAAAAA==
> <PUBCHEM_IUPAC_OPENEYE_NAME>
17-(4-ethoxythiazol-2-yl)-10,13-dimethyl-2,3,4,7,8,9,11,12,14,15,16,17-dodecahydro-1H-cyclopenta[a]phenanthren-3-ol
> <PUBCHEM_IUPAC_CAS_NAME>
17-(4-ethoxy-2-thiazolyl)-10,13-dimethyl-2,3,4,7,8,9,11,12,14,15,16,17-dodecahydro-1H-cyclopenta[a]phenanthren-3-ol
> <PUBCHEM_IUPAC_NAME_MARKUP>
17-(4-ethoxy-1,3-thiazol-2-yl)-10,13-dimethyl-2,3,4,7,8,9,11,12,14,15,16,17-dodecahydro-1<I>H</I>-cyclopenta[a]phenanthren-3-ol
> <PUBCHEM_IUPAC_NAME>
17-(4-ethoxy-1,3-thiazol-2-yl)-10,13-dimethyl-2,3,4,7,8,9,11,12,14,15,16,17-dodecahydro-1H-cyclopenta[a]phenanthren-3-ol
> <PUBCHEM_IUPAC_SYSTEMATIC_NAME>
17-(4-ethoxy-1,3-thiazol-2-yl)-10,13-dimethyl-2,3,4,7,8,9,11,12,14,15,16,17-dodecahydro-1H-cyclopenta[a]phenanthren-3-ol
> <PUBCHEM_IUPAC_TRADITIONAL_NAME>
17-(4-ethoxythiazol-2-yl)-10,13-dimethyl-2,3,4,7,8,9,11,12,14,15,16,17-dodecahydro-1H-cyclopenta[a]phenanthren-3-ol
> <PUBCHEM_IUPAC_INCHI>
InChI=1S/C24H35NO2S/c1-4-27-21-14-28-22(25-21)20-8-7-18-17-6-5-15-13-16(26)9-11-23(15,2)19(17)10-12-24(18,20)3/h5,14,16-20,26H,4,6-13H2,1-3H3
> <PUBCHEM_IUPAC_INCHIKEY>
VIRRUDKUALKLNI-UHFFFAOYSA-N
> <PUBCHEM_XLOGP3_AA>
5.8
> <PUBCHEM_EXACT_MASS>
401.23885053
> <PUBCHEM_MOLECULAR_FORMULA>
C24H35NO2S
> <PUBCHEM_MOLECULAR_WEIGHT>
401.6
> <PUBCHEM_OPENEYE_CAN_SMILES>
CCOC1=CSC(=N1)C2CCC3C2(CCC4C3CC=C5C4(CCC(C5)O)C)C
> <PUBCHEM_OPENEYE_ISO_SMILES>
CCOC1=CSC(=N1)C2CCC3C2(CCC4C3CC=C5C4(CCC(C5)O)C)C
> <PUBCHEM_CACTVS_TPSA>
70.6
> <PUBCHEM_MONOISOTOPIC_WEIGHT>
401.23885053
> <PUBCHEM_TOTAL_CHARGE>
0
> <PUBCHEM_HEAVY_ATOM_COUNT>
28
> <PUBCHEM_ATOM_DEF_STEREO_COUNT>
0
> <PUBCHEM_ATOM_UDEF_STEREO_COUNT>
7
> <PUBCHEM_BOND_DEF_STEREO_COUNT>
0
> <PUBCHEM_BOND_UDEF_STEREO_COUNT>
0
> <PUBCHEM_ISOTOPIC_ATOM_COUNT>
0
> <PUBCHEM_COMPONENT_COUNT>
1
> <PUBCHEM_CACTVS_TAUTO_COUNT>
-1
> <PUBCHEM_COORDINATE_TYPE>
1
5
255
> <PUBCHEM_BONDANNOTATIONS>
1  22  8
1  26  8
10  22  3
24  2  3
25  26  8
4  22  8
4  25  8
5  17  3
6  13  3
7  15  3
8  12  3
9  20  3
$$$$
