500143
  -OEChem-10302200282D
 60 64  0     1  0  0  0  0  0999 V2000
   10.1373    0.8283    0.0000 S   0  0  0  0  0  0  0  0  0  0  0  0
    2.5357   -3.7867    0.0000 O   0  0  0  0  0  0  0  0  0  0  0  0
    8.8811    3.0905    0.0000 O   0  0  0  0  0  0  0  0  0  0  0  0
    8.5993    1.3309    0.0000 N   0  0  0  0  0  0  0  0  0  0  0  0
    7.9288   -0.7343    0.0000 C   0  0  3  0  0  0  0  0  0  0  0  0
    7.9288   -1.7343    0.0000 C   0  0  3  0  0  0  0  0  0  0  0  0
    7.0628   -2.2343    0.0000 C   0  0  3  0  0  0  0  0  0  0  0  0
    6.1968   -1.7343    0.0000 C   0  0  3  0  0  0  0  0  0  0  0  0
    5.2868   -2.2412    0.0000 C   0  0  3  0  0  0  0  0  0  0  0  0
    8.8750   -0.4296    0.0000 C   0  0  3  0  0  0  0  0  0  0  0  0
    7.0628   -0.2343    0.0000 C   0  0  0  0  0  0  0  0  0  0  0  0
    6.1968   -0.7343    0.0000 C   0  0  0  0  0  0  0  0  0  0  0  0
    8.8750   -2.0391    0.0000 C   0  0  0  0  0  0  0  0  0  0  0  0
    9.4586   -1.2343    0.0000 C   0  0  0  0  0  0  0  0  0  0  0  0
    7.0789   -3.2758    0.0000 C   0  0  0  0  0  0  0  0  0  0  0  0
    5.2787   -3.2828    0.0000 C   0  0  0  0  0  0  0  0  0  0  0  0
    7.9288    0.2657    0.0000 C   0  0  0  0  0  0  0  0  0  0  0  0
    4.3599   -1.6771    0.0000 C   0  0  0  0  0  0  0  0  0  0  0  0
    6.1808   -3.8036    0.0000 C   0  0  0  0  0  0  0  0  0  0  0  0
    5.2945   -1.2412    0.0000 C   0  0  0  0  0  0  0  0  0  0  0  0
    4.3433   -3.8325    0.0000 C   0  0  0  0  0  0  0  0  0  0  0  0
    9.1857    0.5209    0.0000 C   0  0  0  0  0  0  0  0  0  0  0  0
    3.4120   -2.2051    0.0000 C   0  0  0  0  0  0  0  0  0  0  0  0
    3.4037   -3.2900    0.0000 C   0  0  3  0  0  0  0  0  0  0  0  0
    9.1885    2.1389    0.0000 C   0  0  0  0  0  0  0  0  0  0  0  0
   10.1390    1.8283    0.0000 C   0  0  0  0  0  0  0  0  0  0  0  0
    9.5516    3.8325    0.0000 C   0  0  0  0  0  0  0  0  0  0  0  0
    7.9944   -2.3509    0.0000 H   0  0  0  0  0  0  0  0  0  0  0  0
    7.6021   -2.5402    0.0000 H   0  0  0  0  0  0  0  0  0  0  0  0
    6.7337   -1.4243    0.0000 H   0  0  0  0  0  0  0  0  0  0  0  0
    9.4875   -0.3334    0.0000 H   0  0  0  0  0  0  0  0  0  0  0  0
    7.4613    0.2406    0.0000 H   0  0  0  0  0  0  0  0  0  0  0  0
    6.6643    0.2406    0.0000 H   0  0  0  0  0  0  0  0  0  0  0  0
    5.9847   -0.1517    0.0000 H   0  0  0  0  0  0  0  0  0  0  0  0
    5.5862   -0.8420    0.0000 H   0  0  0  0  0  0  0  0  0  0  0  0
    8.6240   -2.6060    0.0000 H   0  0  0  0  0  0  0  0  0  0  0  0
    9.4124   -2.3483    0.0000 H   0  0  0  0  0  0  0  0  0  0  0  0
    9.9195   -1.6491    0.0000 H   0  0  0  0  0  0  0  0  0  0  0  0
    9.9195   -0.8196    0.0000 H   0  0  0  0  0  0  0  0  0  0  0  0
    7.2969   -3.8562    0.0000 H   0  0  0  0  0  0  0  0  0  0  0  0
    7.6880   -3.1604    0.0000 H   0  0  0  0  0  0  0  0  0  0  0  0
    8.5488    0.2657    0.0000 H   0  0  0  0  0  0  0  0  0  0  0  0
    7.9288    0.8857    0.0000 H   0  0  0  0  0  0  0  0  0  0  0  0
    7.3088    0.2657    0.0000 H   0  0  0  0  0  0  0  0  0  0  0  0
    4.7681   -1.2104    0.0000 H   0  0  0  0  0  0  0  0  0  0  0  0
    3.9700   -1.1951    0.0000 H   0  0  0  0  0  0  0  0  0  0  0  0
    6.1832   -4.4236    0.0000 H   0  0  0  0  0  0  0  0  0  0  0  0
    5.9145   -1.2460    0.0000 H   0  0  0  0  0  0  0  0  0  0  0  0
    5.2993   -0.6212    0.0000 H   0  0  0  0  0  0  0  0  0  0  0  0
    4.6745   -1.2364    0.0000 H   0  0  0  0  0  0  0  0  0  0  0  0
    3.9460   -4.3085    0.0000 H   0  0  0  0  0  0  0  0  0  0  0  0
    4.7443   -4.3054    0.0000 H   0  0  0  0  0  0  0  0  0  0  0  0
    3.2075   -1.6198    0.0000 H   0  0  0  0  0  0  0  0  0  0  0  0
    2.8004   -2.3064    0.0000 H   0  0  0  0  0  0  0  0  0  0  0  0
    3.4025   -3.9100    0.0000 H   0  0  0  0  0  0  0  0  0  0  0  0
    2.0000   -3.4746    0.0000 H   0  0  0  0  0  0  0  0  0  0  0  0
   10.6412    2.1918    0.0000 H   0  0  0  0  0  0  0  0  0  0  0  0
   10.0116    3.4169    0.0000 H   0  0  0  0  0  0  0  0  0  0  0  0
    9.9672    4.2926    0.0000 H   0  0  0  0  0  0  0  0  0  0  0  0
    9.0915    4.2482    0.0000 H   0  0  0  0  0  0  0  0  0  0  0  0
  1 22  1  0  0  0  0
  1 26  1  0  0  0  0
  2 24  1  0  0  0  0
  2 56  1  0  0  0  0
  3 25  1  0  0  0  0
  3 27  1  0  0  0  0
  4 22  2  0  0  0  0
  4 25  1  0  0  0  0
  5  6  1  0  0  0  0
  5 10  1  0  0  0  0
  5 11  1  0  0  0  0
  5 17  1  0  0  0  0
  6  7  1  0  0  0  0
  6 13  1  0  0  0  0
  6 28  1  0  0  0  0
  7  8  1  0  0  0  0
  7 15  1  0  0  0  0
  7 29  1  0  0  0  0
  8  9  1  0  0  0  0
  8 12  1  0  0  0  0
  8 30  1  0  0  0  0
  9 16  1  0  0  0  0
  9 18  1  0  0  0  0
  9 20  1  0  0  0  0
 10 14  1  0  0  0  0
 10 22  1  0  0  0  0
 10 31  1  0  0  0  0
 11 12  1  0  0  0  0
 11 32  1  0  0  0  0
 11 33  1  0  0  0  0
 12 34  1  0  0  0  0
 12 35  1  0  0  0  0
 13 14  1  0  0  0  0
 13 36  1  0  0  0  0
 13 37  1  0  0  0  0
 14 38  1  0  0  0  0
 14 39  1  0  0  0  0
 15 19  1  0  0  0  0
 15 40  1  0  0  0  0
 15 41  1  0  0  0  0
 16 19  2  0  0  0  0
 16 21  1  0  0  0  0
 17 42  1  0  0  0  0
 17 43  1  0  0  0  0
 17 44  1  0  0  0  0
 18 23  1  0  0  0  0
 18 45  1  0  0  0  0
 18 46  1  0  0  0  0
 19 47  1  0  0  0  0
 20 48  1  0  0  0  0
 20 49  1  0  0  0  0
 20 50  1  0  0  0  0
 21 24  1  0  0  0  0
 21 51  1  0  0  0  0
 21 52  1  0  0  0  0
 23 24  1  0  0  0  0
 23 53  1  0  0  0  0
 23 54  1  0  0  0  0
 24 55  1  0  0  0  0
 25 26  2  0  0  0  0
 26 57  1  0  0  0  0
 27 58  1  0  0  0  0
 27 59  1  0  0  0  0
 27 60  1  0  0  0  0
M  END
> <PUBCHEM_COMPOUND_CID>
500143
> <PUBCHEM_COMPOUND_CANONICALIZED>
1
> <PUBCHEM_CACTVS_COMPLEXITY>
624
> <PUBCHEM_CACTVS_HBOND_ACCEPTOR>
4
> <PUBCHEM_CACTVS_HBOND_DONOR>
1
> <PUBCHEM_CACTVS_ROTATABLE_BOND>
2
> <PUBCHEM_CACTVS_SUBSKEYS>
AAADcfB6MABAAAAAAAAAAAAAAAAAAeIAAAAwYIAAAAAAAGCBgAAAHgQACAAADxSlwgKihRIIFgikAiBiRAAA+KBhCjgACAYyIAgEEAIggQAEQAAEwACoAAOQwPAPgAAAAAAAAADAAAQAACAAAQAACAAAAA==
> <PUBCHEM_IUPAC_OPENEYE_NAME>
17-(4-methoxythiazol-2-yl)-10,13-dimethyl-2,3,4,7,8,9,11,12,14,15,16,17-dodecahydro-1H-cyclopenta[a]phenanthren-3-ol
> <PUBCHEM_IUPAC_CAS_NAME>
17-(4-methoxy-2-thiazolyl)-10,13-dimethyl-2,3,4,7,8,9,11,12,14,15,16,17-dodecahydro-1H-cyclopenta[a]phenanthren-3-ol
> <PUBCHEM_IUPAC_NAME_MARKUP>
17-(4-methoxy-1,3-thiazol-2-yl)-10,13-dimethyl-2,3,4,7,8,9,11,12,14,15,16,17-dodecahydro-1<I>H</I>-cyclopenta[a]phenanthren-3-ol
> <PUBCHEM_IUPAC_NAME>
17-(4-methoxy-1,3-thiazol-2-yl)-10,13-dimethyl-2,3,4,7,8,9,11,12,14,15,16,17-dodecahydro-1H-cyclopenta[a]phenanthren-3-ol
> <PUBCHEM_IUPAC_SYSTEMATIC_NAME>
17-(4-methoxy-1,3-thiazol-2-yl)-10,13-dimethyl-2,3,4,7,8,9,11,12,14,15,16,17-dodecahydro-1H-cyclopenta[a]phenanthren-3-ol
> <PUBCHEM_IUPAC_TRADITIONAL_NAME>
17-(4-methoxythiazol-2-yl)-10,13-dimethyl-2,3,4,7,8,9,11,12,14,15,16,17-dodecahydro-1H-cyclopenta[a]phenanthren-3-ol
> <PUBCHEM_IUPAC_INCHI>
InChI=1S/C23H33NO2S/c1-22-10-8-15(25)12-14(22)4-5-16-17-6-7-19(21-24-20(26-3)13-27-21)23(17,2)11-9-18(16)22/h4,13,15-19,25H,5-12H2,1-3H3
> <PUBCHEM_IUPAC_INCHIKEY>
VNPGNQXUSSKBCO-UHFFFAOYSA-N
> <PUBCHEM_XLOGP3_AA>
5.5
> <PUBCHEM_EXACT_MASS>
387.22320047
> <PUBCHEM_MOLECULAR_FORMULA>
C23H33NO2S
> <PUBCHEM_MOLECULAR_WEIGHT>
387.6
> <PUBCHEM_OPENEYE_CAN_SMILES>
CC12CCC3C(C1CCC2C4=NC(=CS4)OC)CC=C5C3(CCC(C5)O)C
> <PUBCHEM_OPENEYE_ISO_SMILES>
CC12CCC3C(C1CCC2C4=NC(=CS4)OC)CC=C5C3(CCC(C5)O)C
> <PUBCHEM_CACTVS_TPSA>
70.6
> <PUBCHEM_MONOISOTOPIC_WEIGHT>
387.22320047
> <PUBCHEM_TOTAL_CHARGE>
0
> <PUBCHEM_HEAVY_ATOM_COUNT>
27
> <PUBCHEM_ATOM_DEF_STEREO_COUNT>
0
> <PUBCHEM_ATOM_UDEF_STEREO_COUNT>
7
> <PUBCHEM_BOND_DEF_STEREO_COUNT>
0
> <PUBCHEM_BOND_UDEF_STEREO_COUNT>
0
> <PUBCHEM_ISOTOPIC_ATOM_COUNT>
0
> <PUBCHEM_COMPONENT_COUNT>
1
> <PUBCHEM_CACTVS_TAUTO_COUNT>
-1
> <PUBCHEM_COORDINATE_TYPE>
1
5
255
> <PUBCHEM_BONDANNOTATIONS>
1  22  8
1  26  8
10  22  3
24  2  3
25  26  8
4  22  8
4  25  8
5  17  3
6  13  3
7  15  3
8  12  3
9  20  3
$$$$
