500110
  -OEChem-10302200282D
 35 36  0     1  0  0  0  0  0999 V2000
    4.0981    2.7385    0.0000 Br  0  0  0  0  0  0  0  0  0  0  0  0
    6.2731   -1.2153    0.0000 O   0  0  0  0  0  0  0  0  0  0  0  0
    4.3763   -2.9754    0.0000 O   0  0  0  0  0  0  0  0  0  0  0  0
    7.5464   -2.8709    0.0000 O   0  0  0  0  0  0  0  0  0  0  0  0
    7.1962    0.3725    0.0000 O   0  0  0  0  0  0  0  0  0  0  0  0
    5.4641    3.3725    0.0000 O   0  0  0  0  0  0  0  0  0  0  0  0
    5.4641    0.3725    0.0000 N   0  0  0  0  0  0  0  0  0  0  0  0
    6.3301    1.8725    0.0000 N   0  0  0  0  0  0  0  0  0  0  0  0
    3.7320    0.3725    0.0000 N   0  0  0  0  0  0  0  0  0  0  0  0
    2.8660    0.8725    0.0000 N   0  3  0  0  0  0  0  0  0  0  0  0
    2.0000    1.3725    0.0000 N   0  5  0  0  0  0  0  0  0  0  0  0
    5.4641   -0.6275    0.0000 C   0  0  2  0  0  0  0  0  0  0  0  0
    4.6551   -1.2153    0.0000 C   0  0  0  0  0  0  0  0  0  0  0  0
    4.9641   -2.1664    0.0000 C   0  0  2  0  0  0  0  0  0  0  0  0
    5.9641   -2.1664    0.0000 C   0  0  2  0  0  0  0  0  0  0  0  0
    4.5981    0.8725    0.0000 C   0  0  3  0  0  0  0  0  0  0  0  0
    4.5981    1.8725    0.0000 C   0  0  3  0  0  0  0  0  0  0  0  0
    6.5519   -2.9754    0.0000 C   0  0  0  0  0  0  0  0  0  0  0  0
    6.3301    0.8725    0.0000 C   0  0  0  0  0  0  0  0  0  0  0  0
    5.4641    2.3725    0.0000 C   0  0  0  0  0  0  0  0  0  0  0  0
    3.5981    1.8725    0.0000 C   0  0  0  0  0  0  0  0  0  0  0  0
    6.0165   -0.3461    0.0000 H   0  0  0  0  0  0  0  0  0  0  0  0
    4.3451   -0.6784    0.0000 H   0  0  0  0  0  0  0  0  0  0  0  0
    4.0887   -1.4675    0.0000 H   0  0  0  0  0  0  0  0  0  0  0  0
    5.2456   -2.7188    0.0000 H   0  0  0  0  0  0  0  0  0  0  0  0
    6.5765   -2.0694    0.0000 H   0  0  0  0  0  0  0  0  0  0  0  0
    4.5981    0.2525    0.0000 H   0  0  0  0  0  0  0  0  0  0  0  0
    5.9946   -3.2472    0.0000 H   0  0  0  0  0  0  0  0  0  0  0  0
    6.7228   -3.5714    0.0000 H   0  0  0  0  0  0  0  0  0  0  0  0
    3.5981    2.4925    0.0000 H   0  0  0  0  0  0  0  0  0  0  0  0
    2.9781    1.8725    0.0000 H   0  0  0  0  0  0  0  0  0  0  0  0
    3.5981    1.2525    0.0000 H   0  0  0  0  0  0  0  0  0  0  0  0
    6.8671    2.1825    0.0000 H   0  0  0  0  0  0  0  0  0  0  0  0
    3.7597   -2.9106    0.0000 H   0  0  0  0  0  0  0  0  0  0  0  0
    7.9108   -3.3725    0.0000 H   0  0  0  0  0  0  0  0  0  0  0  0
  1 17  1  0  0  0  0
  2 12  1  0  0  0  0
  2 15  1  0  0  0  0
 14  3  1  6  0  0  0
  3 34  1  0  0  0  0
  4 18  1  0  0  0  0
  4 35  1  0  0  0  0
  5 19  2  0  0  0  0
  6 20  2  0  0  0  0
 12  7  1  1  0  0  0
  7 16  1  0  0  0  0
  7 19  1  0  0  0  0
  8 19  1  0  0  0  0
  8 20  1  0  0  0  0
  8 33  1  0  0  0  0
  9 10  2  0  0  0  0
  9 16  1  0  0  0  0
 10 11  2  0  0  0  0
 12 13  1  0  0  0  0
 12 22  1  0  0  0  0
 13 14  1  0  0  0  0
 13 23  1  0  0  0  0
 13 24  1  0  0  0  0
 14 15  1  0  0  0  0
 14 25  1  0  0  0  0
 15 18  1  1  0  0  0
 15 26  1  0  0  0  0
 16 17  1  0  0  0  0
 16 27  1  0  0  0  0
 17 20  1  0  0  0  0
 17 21  1  0  0  0  0
 18 28  1  0  0  0  0
 18 29  1  0  0  0  0
 21 30  1  0  0  0  0
 21 31  1  0  0  0  0
 21 32  1  0  0  0  0
M  CHG  2  10   1  11  -1
M  END
> <PUBCHEM_COMPOUND_CID>
500110
> <PUBCHEM_COMPOUND_CANONICALIZED>
1
> <PUBCHEM_CACTVS_COMPLEXITY>
512
> <PUBCHEM_CACTVS_HBOND_ACCEPTOR>
7
> <PUBCHEM_CACTVS_HBOND_DONOR>
3
> <PUBCHEM_CACTVS_ROTATABLE_BOND>
3
> <PUBCHEM_CACTVS_SUBSKEYS>
AAADccBzuAAAEAAAAAAAAAAAAAAAASAAAAAsAAAAAAAAAAAAAAAAHgBYCAABjBThgAYDAAPABgAKAAEQEAAAAAAAAAAAAAEIAAChEAoAwAAOQAAPByKDAACwMAIAAAAAAAAAAAAAAAAAAAAAAAAAAAAAAA==
> <PUBCHEM_IUPAC_OPENEYE_NAME>
6-azido-5-bromo-1-[(2S,4R,5S)-4-hydroxy-5-(hydroxymethyl)tetrahydrofuran-2-yl]-5-methyl-hexahydropyrimidine-2,4-dione
> <PUBCHEM_IUPAC_CAS_NAME>
6-azido-5-bromo-1-[(2S,4R,5S)-4-hydroxy-5-(hydroxymethyl)-2-oxolanyl]-5-methyl-1,3-diazinane-2,4-dione
> <PUBCHEM_IUPAC_NAME_MARKUP>
6-azido-5-bromo-1-[(2<I>S</I>,4<I>R</I>,5<I>S</I>)-4-hydroxy-5-(hydroxymethyl)oxolan-2-yl]-5-methyl-1,3-diazinane-2,4-dione
> <PUBCHEM_IUPAC_NAME>
6-azido-5-bromo-1-[(2S,4R,5S)-4-hydroxy-5-(hydroxymethyl)oxolan-2-yl]-5-methyl-1,3-diazinane-2,4-dione
> <PUBCHEM_IUPAC_SYSTEMATIC_NAME>
6-azido-5-bromanyl-1-[(2S,4R,5S)-5-(hydroxymethyl)-4-oxidanyl-oxolan-2-yl]-5-methyl-1,3-diazinane-2,4-dione
> <PUBCHEM_IUPAC_TRADITIONAL_NAME>
6-azido-5-bromo-1-[(2S,4R,5S)-4-hydroxy-5-methylol-tetrahydrofuran-2-yl]-5-methyl-5,6-dihydrouracil
> <PUBCHEM_IUPAC_INCHI>
InChI=1S/C10H14BrN5O5/c1-10(11)7(14-15-12)16(9(20)13-8(10)19)6-2-4(18)5(3-17)21-6/h4-7,17-18H,2-3H2,1H3,(H,13,19,20)/t4-,5+,6+,7?,10?/m1/s1
> <PUBCHEM_IUPAC_INCHIKEY>
QRPDFPMWHYGCCS-MXOPTBGGSA-N
> <PUBCHEM_XLOGP3_AA>
0.6
> <PUBCHEM_EXACT_MASS>
363.01783
> <PUBCHEM_MOLECULAR_FORMULA>
C10H14BrN5O5
> <PUBCHEM_MOLECULAR_WEIGHT>
364.15
> <PUBCHEM_OPENEYE_CAN_SMILES>
CC1(C(N(C(=O)NC1=O)C2CC(C(O2)CO)O)N=[N+]=[N-])Br
> <PUBCHEM_OPENEYE_ISO_SMILES>
CC1(C(N(C(=O)NC1=O)[C@@H]2C[C@H]([C@@H](O2)CO)O)N=[N+]=[N-])Br
> <PUBCHEM_CACTVS_TPSA>
114
> <PUBCHEM_MONOISOTOPIC_WEIGHT>
363.01783
> <PUBCHEM_TOTAL_CHARGE>
0
> <PUBCHEM_HEAVY_ATOM_COUNT>
21
> <PUBCHEM_ATOM_DEF_STEREO_COUNT>
3
> <PUBCHEM_ATOM_UDEF_STEREO_COUNT>
2
> <PUBCHEM_BOND_DEF_STEREO_COUNT>
0
> <PUBCHEM_BOND_UDEF_STEREO_COUNT>
1
> <PUBCHEM_ISOTOPIC_ATOM_COUNT>
0
> <PUBCHEM_COMPONENT_COUNT>
1
> <PUBCHEM_CACTVS_TAUTO_COUNT>
-1
> <PUBCHEM_COORDINATE_TYPE>
1
5
255
> <PUBCHEM_BONDANNOTATIONS>
17  1  3
15  18  5
14  3  6
12  7  5
9  10  1
16  9  3
$$$$
