500182
  -OEChem-10302200282D
 81 85  0     1  0  0  0  0  0999 V2000
   12.2545    2.5364    0.0000 O   0  0  0  0  0  0  0  0  0  0  0  0
    2.6200   -1.9273    0.0000 O   0  0  0  0  0  0  0  0  0  0  0  0
    2.6400   -0.1954    0.0000 O   0  0  0  0  0  0  0  0  0  0  0  0
    6.9146   -0.6080    0.0000 C   0  0  3  0  0  0  0  0  0  0  0  0
    7.7806   -1.1080    0.0000 C   0  0  3  0  0  0  0  0  0  0  0  0
    6.0046   -1.1148    0.0000 C   0  0  3  0  0  0  0  0  0  0  0  0
    5.9966   -2.1564    0.0000 C   0  0  3  0  0  0  0  0  0  0  0  0
    8.6466   -0.6080    0.0000 C   0  0  0  0  0  0  0  0  0  0  0  0
    7.7967   -2.1495    0.0000 C   0  0  0  0  0  0  0  0  0  0  0  0
    6.9146    0.3920    0.0000 C   0  0  0  0  0  0  0  0  0  0  0  0
    9.5406    0.9267    0.0000 C   0  0  3  0  0  0  0  0  0  0  0  0
    6.8986   -2.6772    0.0000 C   0  0  0  0  0  0  0  0  0  0  0  0
    8.6466    0.3920    0.0000 C   0  0  0  0  0  0  0  0  0  0  0  0
    5.0778   -0.5507    0.0000 C   0  0  0  0  0  0  0  0  0  0  0  0
   10.4467    0.4128    0.0000 C   0  0  3  0  0  0  0  0  0  0  0  0
    5.0611   -2.7062    0.0000 C   0  0  0  0  0  0  0  0  0  0  0  0
    7.7806    0.8920    0.0000 C   0  0  0  0  0  0  0  0  0  0  0  0
    4.1299   -1.0787    0.0000 C   0  0  3  0  0  0  0  0  0  0  0  0
    6.0486   -0.1080    0.0000 C   0  0  0  0  0  0  0  0  0  0  0  0
    9.5406   -1.1426    0.0000 C   0  0  0  0  0  0  0  0  0  0  0  0
    8.6466   -1.6080    0.0000 C   0  0  0  0  0  0  0  0  0  0  0  0
   11.3904    0.9481    0.0000 C   0  0  0  0  0  0  0  0  0  0  0  0
   10.4467   -0.6288    0.0000 C   0  0  0  0  0  0  0  0  0  0  0  0
    4.1215   -2.1636    0.0000 C   0  0  0  0  0  0  0  0  0  0  0  0
    9.5155    2.0114    0.0000 C   0  0  0  0  0  0  0  0  0  0  0  0
    5.9889   -3.1564    0.0000 C   0  0  0  0  0  0  0  0  0  0  0  0
   11.3904    2.0331    0.0000 C   0  0  3  0  0  0  0  0  0  0  0  0
   10.4467    2.5683    0.0000 C   0  0  0  0  0  0  0  0  0  0  0  0
    8.6707    1.4200    0.0000 C   0  0  0  0  0  0  0  0  0  0  0  0
    3.6399   -0.2069    0.0000 C   0  0  0  0  0  0  0  0  0  0  0  0
   12.3904    0.9442    0.0000 C   0  0  0  0  0  0  0  0  0  0  0  0
   11.8871    0.0801    0.0000 C   0  0  0  0  0  0  0  0  0  0  0  0
    3.1299   -1.0671    0.0000 C   0  0  0  0  0  0  0  0  0  0  0  0
    6.5379   -1.4310    0.0000 H   0  0  0  0  0  0  0  0  0  0  0  0
    8.0147   -2.7299    0.0000 H   0  0  0  0  0  0  0  0  0  0  0  0
    8.4058   -2.0340    0.0000 H   0  0  0  0  0  0  0  0  0  0  0  0
    6.7025    0.9746    0.0000 H   0  0  0  0  0  0  0  0  0  0  0  0
    6.3040    0.2844    0.0000 H   0  0  0  0  0  0  0  0  0  0  0  0
    6.5013   -3.1532    0.0000 H   0  0  0  0  0  0  0  0  0  0  0  0
    7.2996   -3.1501    0.0000 H   0  0  0  0  0  0  0  0  0  0  0  0
    5.4860   -0.0841    0.0000 H   0  0  0  0  0  0  0  0  0  0  0  0
    4.6878   -0.0687    0.0000 H   0  0  0  0  0  0  0  0  0  0  0  0
   10.9824    0.1008    0.0000 H   0  0  0  0  0  0  0  0  0  0  0  0
    8.1792    1.3670    0.0000 H   0  0  0  0  0  0  0  0  0  0  0  0
    7.3821    1.3670    0.0000 H   0  0  0  0  0  0  0  0  0  0  0  0
    4.6638   -3.1821    0.0000 H   0  0  0  0  0  0  0  0  0  0  0  0
    5.4621   -3.1790    0.0000 H   0  0  0  0  0  0  0  0  0  0  0  0
    6.3586    0.4290    0.0000 H   0  0  0  0  0  0  0  0  0  0  0  0
    5.5116    0.2020    0.0000 H   0  0  0  0  0  0  0  0  0  0  0  0
    5.7386   -0.6449    0.0000 H   0  0  0  0  0  0  0  0  0  0  0  0
    9.1360   -1.6124    0.0000 H   0  0  0  0  0  0  0  0  0  0  0  0
    9.9342   -1.6217    0.0000 H   0  0  0  0  0  0  0  0  0  0  0  0
    8.3366   -2.1449    0.0000 H   0  0  0  0  0  0  0  0  0  0  0  0
    9.1836   -1.9180    0.0000 H   0  0  0  0  0  0  0  0  0  0  0  0
    8.9566   -1.0710    0.0000 H   0  0  0  0  0  0  0  0  0  0  0  0
   10.6557   -1.2125    0.0000 H   0  0  0  0  0  0  0  0  0  0  0  0
   11.0575   -0.5227    0.0000 H   0  0  0  0  0  0  0  0  0  0  0  0
    3.5115   -2.0529    0.0000 H   0  0  0  0  0  0  0  0  0  0  0  0
    3.9080   -2.7457    0.0000 H   0  0  0  0  0  0  0  0  0  0  0  0
    9.2930    2.5901    0.0000 H   0  0  0  0  0  0  0  0  0  0  0  0
    8.9073    1.8912    0.0000 H   0  0  0  0  0  0  0  0  0  0  0  0
    5.3689   -3.1516    0.0000 H   0  0  0  0  0  0  0  0  0  0  0  0
    5.9841   -3.7764    0.0000 H   0  0  0  0  0  0  0  0  0  0  0  0
    6.6088   -3.1612    0.0000 H   0  0  0  0  0  0  0  0  0  0  0  0
   11.9280    1.7241    0.0000 H   0  0  0  0  0  0  0  0  0  0  0  0
   10.8403    3.0473    0.0000 H   0  0  0  0  0  0  0  0  0  0  0  0
   10.0421    3.0381    0.0000 H   0  0  0  0  0  0  0  0  0  0  0  0
    8.9766    1.9593    0.0000 H   0  0  0  0  0  0  0  0  0  0  0  0
    8.1314    1.7258    0.0000 H   0  0  0  0  0  0  0  0  0  0  0  0
    8.3649    0.8807    0.0000 H   0  0  0  0  0  0  0  0  0  0  0  0
    4.1804    0.0968    0.0000 H   0  0  0  0  0  0  0  0  0  0  0  0
    3.3362    0.3335    0.0000 H   0  0  0  0  0  0  0  0  0  0  0  0
    3.0994   -0.5107    0.0000 H   0  0  0  0  0  0  0  0  0  0  0  0
   12.3880    0.3242    0.0000 H   0  0  0  0  0  0  0  0  0  0  0  0
   13.0104    0.9418    0.0000 H   0  0  0  0  0  0  0  0  0  0  0  0
   12.3928    1.5642    0.0000 H   0  0  0  0  0  0  0  0  0  0  0  0
   11.3490   -0.2278    0.0000 H   0  0  0  0  0  0  0  0  0  0  0  0
   12.1950   -0.4580    0.0000 H   0  0  0  0  0  0  0  0  0  0  0  0
   12.4252    0.3881    0.0000 H   0  0  0  0  0  0  0  0  0  0  0  0
   12.2521    3.1564    0.0000 H   0  0  0  0  0  0  0  0  0  0  0  0
    2.0000   -1.9201    0.0000 H   0  0  0  0  0  0  0  0  0  0  0  0
  1 27  1  0  0  0  0
  1 80  1  0  0  0  0
  2 33  1  0  0  0  0
  2 81  1  0  0  0  0
  3 33  2  0  0  0  0
  4  5  1  0  0  0  0
  4  6  1  0  0  0  0
  4 10  1  0  0  0  0
  4 19  1  0  0  0  0
  5  8  1  0  0  0  0
  5  9  1  0  0  0  0
  5 21  1  0  0  0  0
  6  7  1  0  0  0  0
  6 14  1  0  0  0  0
  6 34  1  0  0  0  0
  7 12  1  0  0  0  0
  7 16  1  0  0  0  0
  7 26  1  0  0  0  0
  8 13  2  0  0  0  0
  8 20  1  0  0  0  0
  9 12  1  0  0  0  0
  9 35  1  0  0  0  0
  9 36  1  0  0  0  0
 10 17  1  0  0  0  0
 10 37  1  0  0  0  0
 10 38  1  0  0  0  0
 11 13  1  0  0  0  0
 11 15  1  0  0  0  0
 11 25  1  0  0  0  0
 11 29  1  0  0  0  0
 12 39  1  0  0  0  0
 12 40  1  0  0  0  0
 13 17  1  0  0  0  0
 14 18  1  0  0  0  0
 14 41  1  0  0  0  0
 14 42  1  0  0  0  0
 15 22  1  0  0  0  0
 15 23  1  0  0  0  0
 15 43  1  0  0  0  0
 16 24  1  0  0  0  0
 16 46  1  0  0  0  0
 16 47  1  0  0  0  0
 17 44  1  0  0  0  0
 17 45  1  0  0  0  0
 18 24  1  0  0  0  0
 18 30  1  0  0  0  0
 18 33  1  0  0  0  0
 19 48  1  0  0  0  0
 19 49  1  0  0  0  0
 19 50  1  0  0  0  0
 20 23  1  0  0  0  0
 20 51  1  0  0  0  0
 20 52  1  0  0  0  0
 21 53  1  0  0  0  0
 21 54  1  0  0  0  0
 21 55  1  0  0  0  0
 22 27  1  0  0  0  0
 22 31  1  0  0  0  0
 22 32  1  0  0  0  0
 23 56  1  0  0  0  0
 23 57  1  0  0  0  0
 24 58  1  0  0  0  0
 24 59  1  0  0  0  0
 25 28  1  0  0  0  0
 25 60  1  0  0  0  0
 25 61  1  0  0  0  0
 26 62  1  0  0  0  0
 26 63  1  0  0  0  0
 26 64  1  0  0  0  0
 27 28  1  0  0  0  0
 27 65  1  0  0  0  0
 28 66  1  0  0  0  0
 28 67  1  0  0  0  0
 29 68  1  0  0  0  0
 29 69  1  0  0  0  0
 29 70  1  0  0  0  0
 30 71  1  0  0  0  0
 30 72  1  0  0  0  0
 30 73  1  0  0  0  0
 31 74  1  0  0  0  0
 31 75  1  0  0  0  0
 31 76  1  0  0  0  0
 32 77  1  0  0  0  0
 32 78  1  0  0  0  0
 32 79  1  0  0  0  0
M  END
> <PUBCHEM_COMPOUND_CID>
500182
> <PUBCHEM_COMPOUND_CANONICALIZED>
1
> <PUBCHEM_CACTVS_COMPLEXITY>
902
> <PUBCHEM_CACTVS_HBOND_ACCEPTOR>
3
> <PUBCHEM_CACTVS_HBOND_DONOR>
2
> <PUBCHEM_CACTVS_ROTATABLE_BOND>
1
> <PUBCHEM_CACTVS_SUBSKEYS>
AAADcfB4MAAAAAAAAAAAAAAAAAAAAAAAAAAwYMECAAAAAADAAAAAGgAACAAADxSggAICCAAAAgCIAgDQCAAAAAAgAAAACAEAAAgAEBIAAAAAQAAEgAAIAAOIyPCPgAAAAAAAAADAAAYAADAAAAAAAAAAAA==
> <PUBCHEM_IUPAC_OPENEYE_NAME>
10-hydroxy-2,4a,6a,9,9,12a,14a-heptamethyl-1,3,4,5,6,7,8,8a,10,11,12,13,14,14b-tetradecahydropicene-2-carboxylic acid
> <PUBCHEM_IUPAC_CAS_NAME>
10-hydroxy-2,4a,6a,9,9,12a,14a-heptamethyl-1,3,4,5,6,7,8,8a,10,11,12,13,14,14b-tetradecahydropicene-2-carboxylic acid
> <PUBCHEM_IUPAC_NAME_MARKUP>
10-hydroxy-2,4<I>a</I>,6<I>a</I>,9,9,12<I>a</I>,14<I>a</I>-heptamethyl-1,3,4,5,6,7,8,8<I>a</I>,10,11,12,13,14,14<I>b</I>-tetradecahydropicene-2-carboxylic acid
> <PUBCHEM_IUPAC_NAME>
10-hydroxy-2,4a,6a,9,9,12a,14a-heptamethyl-1,3,4,5,6,7,8,8a,10,11,12,13,14,14b-tetradecahydropicene-2-carboxylic acid
> <PUBCHEM_IUPAC_SYSTEMATIC_NAME>
2,4a,6a,9,9,12a,14a-heptamethyl-10-oxidanyl-1,3,4,5,6,7,8,8a,10,11,12,13,14,14b-tetradecahydropicene-2-carboxylic acid
> <PUBCHEM_IUPAC_TRADITIONAL_NAME>
10-hydroxy-2,4a,6a,9,9,12a,14a-heptamethyl-1,3,4,5,6,7,8,8a,10,11,12,13,14,14b-tetradecahydropicene-2-carboxylic acid
> <PUBCHEM_IUPAC_INCHI>
InChI=1S/C30H48O3/c1-25(2)21-9-8-20-19(28(21,5)12-11-23(25)31)10-13-30(7)22-18-27(4,24(32)33)15-14-26(22,3)16-17-29(20,30)6/h21-23,31H,8-18H2,1-7H3,(H,32,33)
> <PUBCHEM_IUPAC_INCHIKEY>
BHVJSLPLFOAMEV-UHFFFAOYSA-N
> <PUBCHEM_XLOGP3_AA>
7.2
> <PUBCHEM_EXACT_MASS>
456.36034539
> <PUBCHEM_MOLECULAR_FORMULA>
C30H48O3
> <PUBCHEM_MOLECULAR_WEIGHT>
456.7
> <PUBCHEM_OPENEYE_CAN_SMILES>
CC1(C2CCC3=C(C2(CCC1O)C)CCC4(C3(CCC5(C4CC(CC5)(C)C(=O)O)C)C)C)C
> <PUBCHEM_OPENEYE_ISO_SMILES>
CC1(C2CCC3=C(C2(CCC1O)C)CCC4(C3(CCC5(C4CC(CC5)(C)C(=O)O)C)C)C)C
> <PUBCHEM_CACTVS_TPSA>
57.5
> <PUBCHEM_MONOISOTOPIC_WEIGHT>
456.36034539
> <PUBCHEM_TOTAL_CHARGE>
0
> <PUBCHEM_HEAVY_ATOM_COUNT>
33
> <PUBCHEM_ATOM_DEF_STEREO_COUNT>
0
> <PUBCHEM_ATOM_UDEF_STEREO_COUNT>
8
> <PUBCHEM_BOND_DEF_STEREO_COUNT>
0
> <PUBCHEM_BOND_UDEF_STEREO_COUNT>
0
> <PUBCHEM_ISOTOPIC_ATOM_COUNT>
0
> <PUBCHEM_COMPONENT_COUNT>
1
> <PUBCHEM_CACTVS_TAUTO_COUNT>
-1
> <PUBCHEM_COORDINATE_TYPE>
1
5
255
> <PUBCHEM_BONDANNOTATIONS>
27  1  3
11  29  3
15  23  3
18  30  3
4  19  3
5  21  3
6  14  3
7  26  3
$$$$
