500117
  -OEChem-10302200282D
 47 48  0     1  0  0  0  0  0999 V2000
    7.4974    2.8870    0.0000 O   0  0  0  0  0  0  0  0  0  0  0  0
    3.3660    1.6546    0.0000 O   0  0  0  0  0  0  0  0  0  0  0  0
    5.6764   -0.8942    0.0000 O   0  0  0  0  0  0  0  0  0  0  0  0
    4.8660    2.5206    0.0000 O   0  0  0  0  0  0  0  0  0  0  0  0
    6.9868   -2.9649    0.0000 O   0  0  0  0  0  0  0  0  0  0  0  0
    5.8087   -1.6953    0.0000 O   0  0  0  0  0  0  0  0  0  0  0  0
    7.2748   -0.3349    0.0000 N   0  0  0  0  0  0  0  0  0  0  0  0
    4.8660    0.7886    0.0000 N   0  0  0  0  0  0  0  0  0  0  0  0
    5.8660    0.7886    0.0000 C   0  0  3  0  0  0  0  0  0  0  0  0
    6.2999    1.6895    0.0000 C   0  0  0  0  0  0  0  0  0  0  0  0
    7.2748    1.9121    0.0000 C   0  0  3  0  0  0  0  0  0  0  0  0
    8.0567    1.2886    0.0000 C   0  0  0  0  0  0  0  0  0  0  0  0
    8.0567    0.2886    0.0000 C   0  0  0  0  0  0  0  0  0  0  0  0
    6.2999   -0.1124    0.0000 C   0  0  0  0  0  0  0  0  0  0  0  0
    7.4974   -1.3098    0.0000 C   0  0  0  0  0  0  0  0  0  0  0  0
    8.9506    1.8232    0.0000 C   0  0  0  0  0  0  0  0  0  0  0  0
    8.9506   -0.2461    0.0000 C   0  0  0  0  0  0  0  0  0  0  0  0
    2.8660    2.5206    0.0000 C   0  0  0  0  0  0  0  0  0  0  0  0
    4.3660    1.6546    0.0000 C   0  0  0  0  0  0  0  0  0  0  0  0
    9.8567    1.3094    0.0000 C   0  0  0  0  0  0  0  0  0  0  0  0
    9.8567    0.2678    0.0000 C   0  0  0  0  0  0  0  0  0  0  0  0
    2.3660    3.3866    0.0000 C   0  0  0  0  0  0  0  0  0  0  0  0
    2.0000    2.0206    0.0000 C   0  0  0  0  0  0  0  0  0  0  0  0
    3.7320    3.0206    0.0000 C   0  0  0  0  0  0  0  0  0  0  0  0
    6.7643   -1.9900    0.0000 C   0  0  0  0  0  0  0  0  0  0  0  0
    5.5362    1.3135    0.0000 H   0  0  0  0  0  0  0  0  0  0  0  0
    6.2999    2.3095    0.0000 H   0  0  0  0  0  0  0  0  0  0  0  0
    5.6954    1.8275    0.0000 H   0  0  0  0  0  0  0  0  0  0  0  0
    7.8600    2.1168    0.0000 H   0  0  0  0  0  0  0  0  0  0  0  0
    4.5560    0.2516    0.0000 H   0  0  0  0  0  0  0  0  0  0  0  0
    7.8337   -1.8307    0.0000 H   0  0  0  0  0  0  0  0  0  0  0  0
    8.0687   -1.0690    0.0000 H   0  0  0  0  0  0  0  0  0  0  0  0
    8.9434    2.4432    0.0000 H   0  0  0  0  0  0  0  0  0  0  0  0
    8.9434   -0.8660    0.0000 H   0  0  0  0  0  0  0  0  0  0  0  0
    7.0429    3.3087    0.0000 H   0  0  0  0  0  0  0  0  0  0  0  0
   10.3924    1.6215    0.0000 H   0  0  0  0  0  0  0  0  0  0  0  0
   10.3924   -0.0443    0.0000 H   0  0  0  0  0  0  0  0  0  0  0  0
    2.9030    3.6966    0.0000 H   0  0  0  0  0  0  0  0  0  0  0  0
    2.0560    3.9236    0.0000 H   0  0  0  0  0  0  0  0  0  0  0  0
    1.8291    3.0766    0.0000 H   0  0  0  0  0  0  0  0  0  0  0  0
    1.6900    2.5576    0.0000 H   0  0  0  0  0  0  0  0  0  0  0  0
    1.4631    1.7106    0.0000 H   0  0  0  0  0  0  0  0  0  0  0  0
    2.3100    1.4837    0.0000 H   0  0  0  0  0  0  0  0  0  0  0  0
    4.0420    2.4837    0.0000 H   0  0  0  0  0  0  0  0  0  0  0  0
    4.2690    3.3306    0.0000 H   0  0  0  0  0  0  0  0  0  0  0  0
    3.4220    3.5576    0.0000 H   0  0  0  0  0  0  0  0  0  0  0  0
    6.5323   -3.3866    0.0000 H   0  0  0  0  0  0  0  0  0  0  0  0
  1 11  1  0  0  0  0
  1 35  1  0  0  0  0
  2 18  1  0  0  0  0
  2 19  1  0  0  0  0
  3 14  2  0  0  0  0
  4 19  2  0  0  0  0
  5 25  1  0  0  0  0
  5 47  1  0  0  0  0
  6 25  2  0  0  0  0
  7 13  1  0  0  0  0
  7 14  1  0  0  0  0
  7 15  1  0  0  0  0
  8  9  1  0  0  0  0
  8 19  1  0  0  0  0
  8 30  1  0  0  0  0
  9 10  1  0  0  0  0
  9 14  1  0  0  0  0
  9 26  1  0  0  0  0
 10 11  1  0  0  0  0
 10 27  1  0  0  0  0
 10 28  1  0  0  0  0
 11 12  1  0  0  0  0
 11 29  1  0  0  0  0
 12 13  1  0  0  0  0
 12 16  2  0  0  0  0
 13 17  2  0  0  0  0
 15 25  1  0  0  0  0
 15 31  1  0  0  0  0
 15 32  1  0  0  0  0
 16 20  1  0  0  0  0
 16 33  1  0  0  0  0
 17 21  1  0  0  0  0
 17 34  1  0  0  0  0
 18 22  1  0  0  0  0
 18 23  1  0  0  0  0
 18 24  1  0  0  0  0
 20 21  2  0  0  0  0
 20 36  1  0  0  0  0
 21 37  1  0  0  0  0
 22 38  1  0  0  0  0
 22 39  1  0  0  0  0
 22 40  1  0  0  0  0
 23 41  1  0  0  0  0
 23 42  1  0  0  0  0
 23 43  1  0  0  0  0
 24 44  1  0  0  0  0
 24 45  1  0  0  0  0
 24 46  1  0  0  0  0
M  END
> <PUBCHEM_COMPOUND_CID>
500117
> <PUBCHEM_COMPOUND_CANONICALIZED>
1
> <PUBCHEM_CACTVS_COMPLEXITY>
530
> <PUBCHEM_CACTVS_HBOND_ACCEPTOR>
6
> <PUBCHEM_CACTVS_HBOND_DONOR>
3
> <PUBCHEM_CACTVS_ROTATABLE_BOND>
5
> <PUBCHEM_CACTVS_SUBSKEYS>
AAADceB7OAAAAAAAAAAAAAAAAAAAAAAAAAAwAAAABYAAAAABAAAAHgAQCAAADHzhmAYyyIPABgCIAiXSWACCAAAhAgAIiIGIbIkKdjLAkbGccAhm1gHY2Ae6yKCOAAAAAAACAAAAAAAAAAQAAAAAAAAAAA==
> <PUBCHEM_IUPAC_OPENEYE_NAME>
2-[3-(tert-butoxycarbonylamino)-5-hydroxy-2-oxo-4,5-dihydro-3H-1-benzazepin-1-yl]acetic acid
> <PUBCHEM_IUPAC_CAS_NAME>
2-[5-hydroxy-3-[[(2-methylpropan-2-yl)oxy-oxomethyl]amino]-2-oxo-4,5-dihydro-3H-1-benzazepin-1-yl]acetic acid
> <PUBCHEM_IUPAC_NAME_MARKUP>
2-[5-hydroxy-3-[(2-methylpropan-2-yl)oxycarbonylamino]-2-oxo-4,5-dihydro-3<I>H</I>-1-benzazepin-1-yl]acetic acid
> <PUBCHEM_IUPAC_NAME>
2-[5-hydroxy-3-[(2-methylpropan-2-yl)oxycarbonylamino]-2-oxo-4,5-dihydro-3H-1-benzazepin-1-yl]acetic acid
> <PUBCHEM_IUPAC_SYSTEMATIC_NAME>
2-[3-[(2-methylpropan-2-yl)oxycarbonylamino]-5-oxidanyl-2-oxidanylidene-4,5-dihydro-3H-1-benzazepin-1-yl]ethanoic acid
> <PUBCHEM_IUPAC_TRADITIONAL_NAME>
2-[3-(tert-butoxycarbonylamino)-5-hydroxy-2-keto-4,5-dihydro-3H-1-benzazepin-1-yl]acetic acid
> <PUBCHEM_IUPAC_INCHI>
InChI=1S/C17H22N2O6/c1-17(2,3)25-16(24)18-11-8-13(20)10-6-4-5-7-12(10)19(15(11)23)9-14(21)22/h4-7,11,13,20H,8-9H2,1-3H3,(H,18,24)(H,21,22)
> <PUBCHEM_IUPAC_INCHIKEY>
SKZGYTUEMKZBPM-UHFFFAOYSA-N
> <PUBCHEM_XLOGP3_AA>
0.9
> <PUBCHEM_EXACT_MASS>
350.14778643
> <PUBCHEM_MOLECULAR_FORMULA>
C17H22N2O6
> <PUBCHEM_MOLECULAR_WEIGHT>
350.4
> <PUBCHEM_OPENEYE_CAN_SMILES>
CC(C)(C)OC(=O)NC1CC(C2=CC=CC=C2N(C1=O)CC(=O)O)O
> <PUBCHEM_OPENEYE_ISO_SMILES>
CC(C)(C)OC(=O)NC1CC(C2=CC=CC=C2N(C1=O)CC(=O)O)O
> <PUBCHEM_CACTVS_TPSA>
116
> <PUBCHEM_MONOISOTOPIC_WEIGHT>
350.14778643
> <PUBCHEM_TOTAL_CHARGE>
0
> <PUBCHEM_HEAVY_ATOM_COUNT>
25
> <PUBCHEM_ATOM_DEF_STEREO_COUNT>
0
> <PUBCHEM_ATOM_UDEF_STEREO_COUNT>
2
> <PUBCHEM_BOND_DEF_STEREO_COUNT>
0
> <PUBCHEM_BOND_UDEF_STEREO_COUNT>
0
> <PUBCHEM_ISOTOPIC_ATOM_COUNT>
0
> <PUBCHEM_COMPONENT_COUNT>
1
> <PUBCHEM_CACTVS_TAUTO_COUNT>
-1
> <PUBCHEM_COORDINATE_TYPE>
1
5
255
> <PUBCHEM_BONDANNOTATIONS>
11  1  3
12  13  8
12  16  8
13  17  8
16  20  8
17  21  8
20  21  8
9  8  3
$$$$
