500161
  -OEChem-10302200282D
 30 32  0     1  0  0  0  0  0999 V2000
    3.4026    1.3134    0.0000 F   0  0  0  0  0  0  0  0  0  0  0  0
    5.9405    0.8090    0.0000 O   0  0  0  0  0  0  0  0  0  0  0  0
    6.6495    3.3901    0.0000 O   0  0  0  0  0  0  0  0  0  0  0  0
    2.0000   -3.7536    0.0000 O   0  5  0  0  0  0  0  0  0  0  0  0
    3.7320   -3.7536    0.0000 O   0  0  0  0  0  0  0  0  0  0  0  0
    4.6783   -0.4489    0.0000 N   0  0  0  0  0  0  0  0  0  0  0  0
    4.6783   -2.0584    0.0000 N   0  0  0  0  0  0  0  0  0  0  0  0
    2.8660   -0.2536    0.0000 N   0  0  0  0  0  0  0  0  0  0  0  0
    2.0000   -1.7536    0.0000 N   0  0  0  0  0  0  0  0  0  0  0  0
    2.8660   -3.2536    0.0000 N   0  3  0  0  0  0  0  0  0  0  0  0
    4.9889    0.5016    0.0000 C   0  0  2  0  0  0  0  0  0  0  0  0
    4.4026    1.3116    0.0000 C   0  0  2  0  0  0  0  0  0  0  0  0
    4.9917    2.1196    0.0000 C   0  0  0  0  0  0  0  0  0  0  0  0
    5.9422    1.8090    0.0000 C   0  0  2  0  0  0  0  0  0  0  0  0
    6.7523    2.3954    0.0000 C   0  0  0  0  0  0  0  0  0  0  0  0
    3.7320   -0.7536    0.0000 C   0  0  0  0  0  0  0  0  0  0  0  0
    5.2619   -1.2536    0.0000 C   0  0  0  0  0  0  0  0  0  0  0  0
    3.7320   -1.7536    0.0000 C   0  0  0  0  0  0  0  0  0  0  0  0
    2.8660   -2.2536    0.0000 C   0  0  0  0  0  0  0  0  0  0  0  0
    2.0000   -0.7536    0.0000 C   0  0  0  0  0  0  0  0  0  0  0  0
    5.4266    0.0625    0.0000 H   0  0  0  0  0  0  0  0  0  0  0  0
    4.1220    1.8646    0.0000 H   0  0  0  0  0  0  0  0  0  0  0  0
    5.2449    2.6856    0.0000 H   0  0  0  0  0  0  0  0  0  0  0  0
    4.4553    2.4306    0.0000 H   0  0  0  0  0  0  0  0  0  0  0  0
    6.4942    1.5266    0.0000 H   0  0  0  0  0  0  0  0  0  0  0  0
    7.0231    1.8376    0.0000 H   0  0  0  0  0  0  0  0  0  0  0  0
    7.3486    2.5652    0.0000 H   0  0  0  0  0  0  0  0  0  0  0  0
    5.8819   -1.2536    0.0000 H   0  0  0  0  0  0  0  0  0  0  0  0
    7.1517    3.7536    0.0000 H   0  0  0  0  0  0  0  0  0  0  0  0
    1.4631   -0.4436    0.0000 H   0  0  0  0  0  0  0  0  0  0  0  0
 12  1  1  1  0  0  0
  2 11  1  0  0  0  0
  2 14  1  0  0  0  0
  3 15  1  0  0  0  0
  3 29  1  0  0  0  0
  4 10  1  0  0  0  0
  5 10  2  0  0  0  0
 11  6  1  6  0  0  0
  6 16  1  0  0  0  0
  6 17  1  0  0  0  0
  7 17  2  0  0  0  0
  7 18  1  0  0  0  0
  8 16  1  0  0  0  0
  8 20  2  0  0  0  0
  9 19  2  0  0  0  0
  9 20  1  0  0  0  0
 10 19  1  0  0  0  0
 11 12  1  0  0  0  0
 11 21  1  0  0  0  0
 12 13  1  0  0  0  0
 12 22  1  0  0  0  0
 13 14  1  0  0  0  0
 13 23  1  0  0  0  0
 13 24  1  0  0  0  0
 14 15  1  6  0  0  0
 14 25  1  0  0  0  0
 15 26  1  0  0  0  0
 15 27  1  0  0  0  0
 16 18  2  0  0  0  0
 17 28  1  0  0  0  0
 18 19  1  0  0  0  0
 20 30  1  0  0  0  0
M  CHG  2   4  -1  10   1
M  END
> <PUBCHEM_COMPOUND_CID>
500161
> <PUBCHEM_COMPOUND_CANONICALIZED>
1
> <PUBCHEM_CACTVS_COMPLEXITY>
383
> <PUBCHEM_CACTVS_HBOND_ACCEPTOR>
8
> <PUBCHEM_CACTVS_HBOND_DONOR>
1
> <PUBCHEM_CACTVS_ROTATABLE_BOND>
2
> <PUBCHEM_CACTVS_SUBSKEYS>
AAADccBzuQAAAAAAAAAAAAAAAAAAAWJAAAAsAAAAAAAAAFgB+AAAHwAECAAACBzhlwYF8L8cVgChAQZhZwCAgC0REKAhUCAoVBKBWAJAyEAeRAgMAILDACCwMAIAAAAAAAAAAAAAAAAAAAAAAAAAAAAAAA==
> <PUBCHEM_IUPAC_OPENEYE_NAME>
[(2R,4S,5S)-4-fluoro-5-(6-nitropurin-9-yl)tetrahydrofuran-2-yl]methanol
> <PUBCHEM_IUPAC_CAS_NAME>
[(2R,4S,5S)-4-fluoro-5-(6-nitro-9-purinyl)-2-oxolanyl]methanol
> <PUBCHEM_IUPAC_NAME_MARKUP>
[(2<I>R</I>,4<I>S</I>,5<I>S</I>)-4-fluoro-5-(6-nitropurin-9-yl)oxolan-2-yl]methanol
> <PUBCHEM_IUPAC_NAME>
[(2R,4S,5S)-4-fluoro-5-(6-nitropurin-9-yl)oxolan-2-yl]methanol
> <PUBCHEM_IUPAC_SYSTEMATIC_NAME>
[(2R,4S,5S)-4-fluoranyl-5-(6-nitropurin-9-yl)oxolan-2-yl]methanol
> <PUBCHEM_IUPAC_TRADITIONAL_NAME>
[(2R,4S,5S)-4-fluoro-5-(6-nitropurin-9-yl)tetrahydrofuran-2-yl]methanol
> <PUBCHEM_IUPAC_INCHI>
InChI=1S/C10H10FN5O4/c11-6-1-5(2-17)20-10(6)15-4-14-7-8(15)12-3-13-9(7)16(18)19/h3-6,10,17H,1-2H2/t5-,6+,10+/m1/s1
> <PUBCHEM_IUPAC_INCHIKEY>
NQDOAFJZPCKIGD-KORWRZNCSA-N
> <PUBCHEM_XLOGP3>
0.3
> <PUBCHEM_EXACT_MASS>
283.07168198
> <PUBCHEM_MOLECULAR_FORMULA>
C10H10FN5O4
> <PUBCHEM_MOLECULAR_WEIGHT>
283.22
> <PUBCHEM_OPENEYE_CAN_SMILES>
C1C(OC(C1F)N2C=NC3=C2N=CN=C3[N+](=O)[O-])CO
> <PUBCHEM_OPENEYE_ISO_SMILES>
C1[C@@H](O[C@@H]([C@H]1F)N2C=NC3=C2N=CN=C3[N+](=O)[O-])CO
> <PUBCHEM_CACTVS_TPSA>
119
> <PUBCHEM_MONOISOTOPIC_WEIGHT>
283.07168198
> <PUBCHEM_TOTAL_CHARGE>
0
> <PUBCHEM_HEAVY_ATOM_COUNT>
20
> <PUBCHEM_ATOM_DEF_STEREO_COUNT>
3
> <PUBCHEM_ATOM_UDEF_STEREO_COUNT>
0
> <PUBCHEM_BOND_DEF_STEREO_COUNT>
0
> <PUBCHEM_BOND_UDEF_STEREO_COUNT>
0
> <PUBCHEM_ISOTOPIC_ATOM_COUNT>
0
> <PUBCHEM_COMPONENT_COUNT>
1
> <PUBCHEM_CACTVS_TAUTO_COUNT>
-1
> <PUBCHEM_COORDINATE_TYPE>
1
5
255
> <PUBCHEM_BONDANNOTATIONS>
12  1  5
14  15  6
16  18  8
18  19  8
11  6  6
6  16  8
6  17  8
7  17  8
7  18  8
8  16  8
8  20  8
9  19  8
9  20  8
$$$$
