500179
  -OEChem-10302200282D
 52 54  0     1  0  0  0  0  0999 V2000
    5.6332    2.8031    0.0000 O   0  0  0  0  0  0  0  0  0  0  0  0
    5.6720    0.2158    0.0000 O   0  0  0  0  0  0  0  0  0  0  0  0
    3.9696    2.1645    0.0000 O   0  0  0  0  0  0  0  0  0  0  0  0
    9.5033    3.3070    0.0000 O   0  0  0  0  0  0  0  0  0  0  0  0
    2.8660   -2.3061    0.0000 O   0  0  0  0  0  0  0  0  0  0  0  0
   10.9896    1.9688    0.0000 O   0  0  0  0  0  0  0  0  0  0  0  0
    4.5981   -3.3061    0.0000 O   0  0  0  0  0  0  0  0  0  0  0  0
    6.4422    1.4018    0.0000 C   0  0  3  0  0  0  0  0  0  0  0  0
    5.4641    1.1939    0.0000 C   0  0  3  0  0  0  0  0  0  0  0  0
    6.5468    2.3964    0.0000 C   0  0  0  0  0  0  0  0  0  0  0  0
    7.1854    0.7327    0.0000 C   0  0  0  0  0  0  0  0  0  0  0  0
    4.5981    0.6939    0.0000 C   0  0  0  0  0  0  0  0  0  0  0  0
    4.9641    2.0600    0.0000 C   0  0  0  0  0  0  0  0  0  0  0  0
    8.1364    1.0417    0.0000 C   0  0  0  0  0  0  0  0  0  0  0  0
    4.5981   -0.3061    0.0000 C   0  0  0  0  0  0  0  0  0  0  0  0
    8.3444    2.0199    0.0000 C   0  0  0  0  0  0  0  0  0  0  0  0
    8.8796    0.3726    0.0000 C   0  0  0  0  0  0  0  0  0  0  0  0
    3.7320   -0.8061    0.0000 C   0  0  0  0  0  0  0  0  0  0  0  0
    5.4641   -0.8061    0.0000 C   0  0  0  0  0  0  0  0  0  0  0  0
    9.2954    2.3289    0.0000 C   0  0  0  0  0  0  0  0  0  0  0  0
    3.7320   -1.8061    0.0000 C   0  0  0  0  0  0  0  0  0  0  0  0
    9.8306    0.6816    0.0000 C   0  0  0  0  0  0  0  0  0  0  0  0
    5.4641   -1.8061    0.0000 C   0  0  0  0  0  0  0  0  0  0  0  0
   10.0386    1.6598    0.0000 C   0  0  0  0  0  0  0  0  0  0  0  0
    4.5981   -2.3061    0.0000 C   0  0  0  0  0  0  0  0  0  0  0  0
   10.4544    3.6161    0.0000 C   0  0  0  0  0  0  0  0  0  0  0  0
    2.0000   -1.8061    0.0000 C   0  0  0  0  0  0  0  0  0  0  0  0
   11.7328    1.2996    0.0000 C   0  0  0  0  0  0  0  0  0  0  0  0
    7.0211    1.6240    0.0000 H   0  0  0  0  0  0  0  0  0  0  0  0
    7.1532    2.2675    0.0000 H   0  0  0  0  0  0  0  0  0  0  0  0
    6.7384    2.9860    0.0000 H   0  0  0  0  0  0  0  0  0  0  0  0
    6.6968    0.3510    0.0000 H   0  0  0  0  0  0  0  0  0  0  0  0
    7.4765    0.1853    0.0000 H   0  0  0  0  0  0  0  0  0  0  0  0
    4.3860    1.2766    0.0000 H   0  0  0  0  0  0  0  0  0  0  0  0
    3.9875    0.5863    0.0000 H   0  0  0  0  0  0  0  0  0  0  0  0
    5.2113   -0.1991    0.0000 H   0  0  0  0  0  0  0  0  0  0  0  0
    7.8836    2.4347    0.0000 H   0  0  0  0  0  0  0  0  0  0  0  0
    8.7507   -0.2338    0.0000 H   0  0  0  0  0  0  0  0  0  0  0  0
    3.1951   -0.4961    0.0000 H   0  0  0  0  0  0  0  0  0  0  0  0
    6.0010   -0.4961    0.0000 H   0  0  0  0  0  0  0  0  0  0  0  0
   10.2914    0.2668    0.0000 H   0  0  0  0  0  0  0  0  0  0  0  0
    6.0010   -2.1161    0.0000 H   0  0  0  0  0  0  0  0  0  0  0  0
    5.1350   -3.6161    0.0000 H   0  0  0  0  0  0  0  0  0  0  0  0
   10.6460    3.0264    0.0000 H   0  0  0  0  0  0  0  0  0  0  0  0
   11.0440    3.8076    0.0000 H   0  0  0  0  0  0  0  0  0  0  0  0
   10.2628    4.2057    0.0000 H   0  0  0  0  0  0  0  0  0  0  0  0
    2.3100   -1.2691    0.0000 H   0  0  0  0  0  0  0  0  0  0  0  0
    1.4631   -1.4961    0.0000 H   0  0  0  0  0  0  0  0  0  0  0  0
    1.6900   -2.3430    0.0000 H   0  0  0  0  0  0  0  0  0  0  0  0
   11.3179    0.8389    0.0000 H   0  0  0  0  0  0  0  0  0  0  0  0
   12.1935    0.8848    0.0000 H   0  0  0  0  0  0  0  0  0  0  0  0
   12.1476    1.7604    0.0000 H   0  0  0  0  0  0  0  0  0  0  0  0
  1 10  1  0  0  0  0
  1 13  1  0  0  0  0
  2  9  1  0  0  0  0
  2 36  1  0  0  0  0
  3 13  2  0  0  0  0
  4 20  1  0  0  0  0
  4 26  1  0  0  0  0
  5 21  1  0  0  0  0
  5 27  1  0  0  0  0
  6 24  1  0  0  0  0
  6 28  1  0  0  0  0
  7 25  1  0  0  0  0
  7 43  1  0  0  0  0
  8  9  1  0  0  0  0
  8 10  1  0  0  0  0
  8 11  1  0  0  0  0
  8 29  1  0  0  0  0
  9 12  1  0  0  0  0
  9 13  1  0  0  0  0
 10 30  1  0  0  0  0
 10 31  1  0  0  0  0
 11 14  1  0  0  0  0
 11 32  1  0  0  0  0
 11 33  1  0  0  0  0
 12 15  1  0  0  0  0
 12 34  1  0  0  0  0
 12 35  1  0  0  0  0
 14 16  2  0  0  0  0
 14 17  1  0  0  0  0
 15 18  2  0  0  0  0
 15 19  1  0  0  0  0
 16 20  1  0  0  0  0
 16 37  1  0  0  0  0
 17 22  2  0  0  0  0
 17 38  1  0  0  0  0
 18 21  1  0  0  0  0
 18 39  1  0  0  0  0
 19 23  2  0  0  0  0
 19 40  1  0  0  0  0
 20 24  2  0  0  0  0
 21 25  2  0  0  0  0
 22 24  1  0  0  0  0
 22 41  1  0  0  0  0
 23 25  1  0  0  0  0
 23 42  1  0  0  0  0
 26 44  1  0  0  0  0
 26 45  1  0  0  0  0
 26 46  1  0  0  0  0
 27 47  1  0  0  0  0
 27 48  1  0  0  0  0
 27 49  1  0  0  0  0
 28 50  1  0  0  0  0
 28 51  1  0  0  0  0
 28 52  1  0  0  0  0
M  END
> <PUBCHEM_COMPOUND_CID>
500179
> <PUBCHEM_COMPOUND_CANONICALIZED>
1
> <PUBCHEM_CACTVS_COMPLEXITY>
527
> <PUBCHEM_CACTVS_HBOND_ACCEPTOR>
7
> <PUBCHEM_CACTVS_HBOND_DONOR>
2
> <PUBCHEM_CACTVS_ROTATABLE_BOND>
7
> <PUBCHEM_CACTVS_SUBSKEYS>
AAADceB4OAAAAAAAAAAAAAAAAAAAASAAAAAwYAAAAAAAAAABQAAAGgAACAAADUSgmAIyDoAABgCIAiDSCAICCAAgIAAIiAFGiIgNJjKGMRqCcCMlwBELuAeK6PyOoAABAAAAQABAAAIAAACAAAAAAAAAAA==
> <PUBCHEM_IUPAC_OPENEYE_NAME>
4-[(3,4-dimethoxyphenyl)methyl]-3-hydroxy-3-[(4-hydroxy-3-methoxy-phenyl)methyl]tetrahydrofuran-2-one
> <PUBCHEM_IUPAC_CAS_NAME>
4-[(3,4-dimethoxyphenyl)methyl]-3-hydroxy-3-[(4-hydroxy-3-methoxyphenyl)methyl]-2-oxolanone
> <PUBCHEM_IUPAC_NAME_MARKUP>
4-[(3,4-dimethoxyphenyl)methyl]-3-hydroxy-3-[(4-hydroxy-3-methoxyphenyl)methyl]oxolan-2-one
> <PUBCHEM_IUPAC_NAME>
4-[(3,4-dimethoxyphenyl)methyl]-3-hydroxy-3-[(4-hydroxy-3-methoxyphenyl)methyl]oxolan-2-one
> <PUBCHEM_IUPAC_SYSTEMATIC_NAME>
4-[(3,4-dimethoxyphenyl)methyl]-3-[(3-methoxy-4-oxidanyl-phenyl)methyl]-3-oxidanyl-oxolan-2-one
> <PUBCHEM_IUPAC_TRADITIONAL_NAME>
3-hydroxy-3-vanillyl-4-veratryl-tetrahydrofuran-2-one
> <PUBCHEM_IUPAC_INCHI>
InChI=1S/C21H24O7/c1-25-17-7-5-13(9-19(17)27-3)8-15-12-28-20(23)21(15,24)11-14-4-6-16(22)18(10-14)26-2/h4-7,9-10,15,22,24H,8,11-12H2,1-3H3
> <PUBCHEM_IUPAC_INCHIKEY>
YFVZKLQNMNKWSB-UHFFFAOYSA-N
> <PUBCHEM_XLOGP3_AA>
2.8
> <PUBCHEM_EXACT_MASS>
388.15220310
> <PUBCHEM_MOLECULAR_FORMULA>
C21H24O7
> <PUBCHEM_MOLECULAR_WEIGHT>
388.4
> <PUBCHEM_OPENEYE_CAN_SMILES>
COC1=C(C=C(C=C1)CC2COC(=O)C2(CC3=CC(=C(C=C3)O)OC)O)OC
> <PUBCHEM_OPENEYE_ISO_SMILES>
COC1=C(C=C(C=C1)CC2COC(=O)C2(CC3=CC(=C(C=C3)O)OC)O)OC
> <PUBCHEM_CACTVS_TPSA>
94.4
> <PUBCHEM_MONOISOTOPIC_WEIGHT>
388.15220310
> <PUBCHEM_TOTAL_CHARGE>
0
> <PUBCHEM_HEAVY_ATOM_COUNT>
28
> <PUBCHEM_ATOM_DEF_STEREO_COUNT>
0
> <PUBCHEM_ATOM_UDEF_STEREO_COUNT>
2
> <PUBCHEM_BOND_DEF_STEREO_COUNT>
0
> <PUBCHEM_BOND_UDEF_STEREO_COUNT>
0
> <PUBCHEM_ISOTOPIC_ATOM_COUNT>
0
> <PUBCHEM_COMPONENT_COUNT>
1
> <PUBCHEM_CACTVS_TAUTO_COUNT>
-1
> <PUBCHEM_COORDINATE_TYPE>
1
5
255
> <PUBCHEM_BONDANNOTATIONS>
14  16  8
14  17  8
15  18  8
15  19  8
16  20  8
17  22  8
18  21  8
19  23  8
9  2  3
20  24  8
21  25  8
22  24  8
23  25  8
8  11  3
$$$$
