500173
  -OEChem-10302200282D
 41 44  0     1  0  0  0  0  0999 V2000
    4.8919   -1.9430    0.0000 O   0  0  0  0  0  0  0  0  0  0  0  0
    3.3974   -0.9724    0.0000 O   0  0  0  0  0  0  0  0  0  0  0  0
   10.3849   -0.4358    0.0000 O   0  0  0  0  0  0  0  0  0  0  0  0
   10.3849   -2.0453    0.0000 O   0  0  0  0  0  0  0  0  0  0  0  0
    5.9746   -0.7405    0.0000 C   0  0  3  0  0  0  0  0  0  0  0  0
    5.0611   -0.3338    0.0000 C   0  0  3  0  0  0  0  0  0  0  0  0
    6.8406   -0.2405    0.0000 C   0  0  0  0  0  0  0  0  0  0  0  0
    5.8701   -1.7350    0.0000 C   0  0  0  0  0  0  0  0  0  0  0  0
    4.8532    0.6444    0.0000 C   0  0  0  0  0  0  0  0  0  0  0  0
    4.3919   -1.0769    0.0000 C   0  0  0  0  0  0  0  0  0  0  0  0
    7.7067   -0.7405    0.0000 C   0  0  0  0  0  0  0  0  0  0  0  0
    3.9021    0.9534    0.0000 C   0  0  0  0  0  0  0  0  0  0  0  0
    8.5727   -0.2405    0.0000 C   0  0  0  0  0  0  0  0  0  0  0  0
    7.7067   -1.7405    0.0000 C   0  0  0  0  0  0  0  0  0  0  0  0
    9.4387   -0.7405    0.0000 C   0  0  0  0  0  0  0  0  0  0  0  0
    3.1590    0.2842    0.0000 C   0  0  0  0  0  0  0  0  0  0  0  0
    3.6942    1.9315    0.0000 C   0  0  0  0  0  0  0  0  0  0  0  0
    8.5727   -2.2405    0.0000 C   0  0  0  0  0  0  0  0  0  0  0  0
    9.4387   -1.7405    0.0000 C   0  0  0  0  0  0  0  0  0  0  0  0
    2.2079    0.5933    0.0000 C   0  0  0  0  0  0  0  0  0  0  0  0
    2.7431    2.2405    0.0000 C   0  0  0  0  0  0  0  0  0  0  0  0
   10.9686   -1.2405    0.0000 C   0  0  0  0  0  0  0  0  0  0  0  0
    2.0000    1.5714    0.0000 C   0  0  0  0  0  0  0  0  0  0  0  0
    6.4946   -1.0782    0.0000 H   0  0  0  0  0  0  0  0  0  0  0  0
    5.5429    0.0564    0.0000 H   0  0  0  0  0  0  0  0  0  0  0  0
    7.2392    0.2344    0.0000 H   0  0  0  0  0  0  0  0  0  0  0  0
    6.4421    0.2344    0.0000 H   0  0  0  0  0  0  0  0  0  0  0  0
    5.9349   -2.3517    0.0000 H   0  0  0  0  0  0  0  0  0  0  0  0
    6.4901   -1.7350    0.0000 H   0  0  0  0  0  0  0  0  0  0  0  0
    5.4728    0.6660    0.0000 H   0  0  0  0  0  0  0  0  0  0  0  0
    4.9395    1.2583    0.0000 H   0  0  0  0  0  0  0  0  0  0  0  0
    8.5727    0.3795    0.0000 H   0  0  0  0  0  0  0  0  0  0  0  0
    7.1697   -2.0505    0.0000 H   0  0  0  0  0  0  0  0  0  0  0  0
    3.2879   -0.3222    0.0000 H   0  0  0  0  0  0  0  0  0  0  0  0
    4.1550    2.3464    0.0000 H   0  0  0  0  0  0  0  0  0  0  0  0
    8.5727   -2.8605    0.0000 H   0  0  0  0  0  0  0  0  0  0  0  0
    1.7472    0.1784    0.0000 H   0  0  0  0  0  0  0  0  0  0  0  0
    2.6142    2.8470    0.0000 H   0  0  0  0  0  0  0  0  0  0  0  0
   11.4294   -1.6553    0.0000 H   0  0  0  0  0  0  0  0  0  0  0  0
   11.4294   -0.8258    0.0000 H   0  0  0  0  0  0  0  0  0  0  0  0
    1.4103    1.7630    0.0000 H   0  0  0  0  0  0  0  0  0  0  0  0
  1  8  1  0  0  0  0
  1 10  1  0  0  0  0
  2 10  2  0  0  0  0
  3 15  1  0  0  0  0
  3 22  1  0  0  0  0
  4 19  1  0  0  0  0
  4 22  1  0  0  0  0
  5  6  1  0  0  0  0
  5  7  1  0  0  0  0
  5  8  1  0  0  0  0
  5 24  1  0  0  0  0
  6  9  1  0  0  0  0
  6 10  1  0  0  0  0
  6 25  1  0  0  0  0
  7 11  1  0  0  0  0
  7 26  1  0  0  0  0
  7 27  1  0  0  0  0
  8 28  1  0  0  0  0
  8 29  1  0  0  0  0
  9 12  1  0  0  0  0
  9 30  1  0  0  0  0
  9 31  1  0  0  0  0
 11 13  2  0  0  0  0
 11 14  1  0  0  0  0
 12 16  2  0  0  0  0
 12 17  1  0  0  0  0
 13 15  1  0  0  0  0
 13 32  1  0  0  0  0
 14 18  2  0  0  0  0
 14 33  1  0  0  0  0
 15 19  2  0  0  0  0
 16 20  1  0  0  0  0
 16 34  1  0  0  0  0
 17 21  2  0  0  0  0
 17 35  1  0  0  0  0
 18 19  1  0  0  0  0
 18 36  1  0  0  0  0
 20 23  2  0  0  0  0
 20 37  1  0  0  0  0
 21 23  1  0  0  0  0
 21 38  1  0  0  0  0
 22 39  1  0  0  0  0
 22 40  1  0  0  0  0
 23 41  1  0  0  0  0
M  END
> <PUBCHEM_COMPOUND_CID>
500173
> <PUBCHEM_COMPOUND_CANONICALIZED>
1
> <PUBCHEM_CACTVS_COMPLEXITY>
418
> <PUBCHEM_CACTVS_HBOND_ACCEPTOR>
4
> <PUBCHEM_CACTVS_HBOND_DONOR>
0
> <PUBCHEM_CACTVS_ROTATABLE_BOND>
4
> <PUBCHEM_CACTVS_SUBSKEYS>
AAADceB4OAAAAAAAAAAAAAAAAAAAASJAAAAwYAAAAAAAAEgBQAAAGgAAAAAADQSgmAMwDoAABACIAiDSCAACCAAgIAAIiAEGiIgdJjKEMRqiMCIkwBEOqAeKyPCOoAABAAAAQABAAAIAAACAAAAAAAAAAA==
> <PUBCHEM_IUPAC_OPENEYE_NAME>
4-(1,3-benzodioxol-5-ylmethyl)-3-benzyl-tetrahydrofuran-2-one
> <PUBCHEM_IUPAC_CAS_NAME>
4-(1,3-benzodioxol-5-ylmethyl)-3-(phenylmethyl)-2-oxolanone
> <PUBCHEM_IUPAC_NAME_MARKUP>
4-(1,3-benzodioxol-5-ylmethyl)-3-benzyloxolan-2-one
> <PUBCHEM_IUPAC_NAME>
4-(1,3-benzodioxol-5-ylmethyl)-3-benzyloxolan-2-one
> <PUBCHEM_IUPAC_SYSTEMATIC_NAME>
4-(1,3-benzodioxol-5-ylmethyl)-3-(phenylmethyl)oxolan-2-one
> <PUBCHEM_IUPAC_TRADITIONAL_NAME>
3-benzyl-4-piperonyl-tetrahydrofuran-2-one
> <PUBCHEM_IUPAC_INCHI>
InChI=1S/C19H18O4/c20-19-16(9-13-4-2-1-3-5-13)15(11-21-19)8-14-6-7-17-18(10-14)23-12-22-17/h1-7,10,15-16H,8-9,11-12H2
> <PUBCHEM_IUPAC_INCHIKEY>
WDUXXSGIDJMTQX-UHFFFAOYSA-N
> <PUBCHEM_XLOGP3_AA>
3.8
> <PUBCHEM_EXACT_MASS>
310.12050905
> <PUBCHEM_MOLECULAR_FORMULA>
C19H18O4
> <PUBCHEM_MOLECULAR_WEIGHT>
310.3
> <PUBCHEM_OPENEYE_CAN_SMILES>
C1C(C(C(=O)O1)CC2=CC=CC=C2)CC3=CC4=C(C=C3)OCO4
> <PUBCHEM_OPENEYE_ISO_SMILES>
C1C(C(C(=O)O1)CC2=CC=CC=C2)CC3=CC4=C(C=C3)OCO4
> <PUBCHEM_CACTVS_TPSA>
44.8
> <PUBCHEM_MONOISOTOPIC_WEIGHT>
310.12050905
> <PUBCHEM_TOTAL_CHARGE>
0
> <PUBCHEM_HEAVY_ATOM_COUNT>
23
> <PUBCHEM_ATOM_DEF_STEREO_COUNT>
0
> <PUBCHEM_ATOM_UDEF_STEREO_COUNT>
2
> <PUBCHEM_BOND_DEF_STEREO_COUNT>
0
> <PUBCHEM_BOND_UDEF_STEREO_COUNT>
0
> <PUBCHEM_ISOTOPIC_ATOM_COUNT>
0
> <PUBCHEM_COMPONENT_COUNT>
1
> <PUBCHEM_CACTVS_TAUTO_COUNT>
-1
> <PUBCHEM_COORDINATE_TYPE>
1
5
255
> <PUBCHEM_BONDANNOTATIONS>
11  13  8
11  14  8
12  16  8
12  17  8
13  15  8
14  18  8
15  19  8
16  20  8
17  21  8
18  19  8
20  23  8
21  23  8
5  7  3
6  9  3
$$$$
