500123
  -OEChem-10302200282D
 39 41  0     1  0  0  0  0  0999 V2000
    5.2058   -0.6444    0.0000 O   0  0  0  0  0  0  0  0  0  0  0  0
    6.4791   -2.3000    0.0000 O   0  0  0  0  0  0  0  0  0  0  0  0
    6.1288    0.9434    0.0000 O   0  0  0  0  0  0  0  0  0  0  0  0
    4.3968    3.9434    0.0000 O   0  0  0  0  0  0  0  0  0  0  0  0
    3.3090   -2.4045    0.0000 N   0  0  0  0  0  0  0  0  0  0  0  0
    4.3968    0.9434    0.0000 N   0  0  0  0  0  0  0  0  0  0  0  0
    2.3090   -2.4045    0.0000 N   0  0  0  0  0  0  0  0  0  0  0  0
    5.2628    2.4434    0.0000 N   0  0  0  0  0  0  0  0  0  0  0  0
    2.8090   -3.9434    0.0000 N   0  0  0  0  0  0  0  0  0  0  0  0
    3.8968   -1.5955    0.0000 C   0  0  1  0  0  0  0  0  0  0  0  0
    4.8968   -1.5955    0.0000 C   0  0  2  0  0  0  0  0  0  0  0  0
    3.5878   -0.6444    0.0000 C   0  0  0  0  0  0  0  0  0  0  0  0
    4.3968   -0.0566    0.0000 C   0  0  2  0  0  0  0  0  0  0  0  0
    5.4846   -2.4045    0.0000 C   0  0  3  0  0  0  0  0  0  0  0  0
    5.0778   -3.3180    0.0000 C   0  0  0  0  0  0  0  0  0  0  0  0
    3.5308    1.4434    0.0000 C   0  0  0  0  0  0  0  0  0  0  0  0
    3.6180   -3.3556    0.0000 C   0  0  0  0  0  0  0  0  0  0  0  0
    5.2628    1.4434    0.0000 C   0  0  0  0  0  0  0  0  0  0  0  0
    3.5308    2.4434    0.0000 C   0  0  0  0  0  0  0  0  0  0  0  0
    2.0000   -3.3556    0.0000 C   0  0  0  0  0  0  0  0  0  0  0  0
    4.3968    2.9434    0.0000 C   0  0  0  0  0  0  0  0  0  0  0  0
    2.6648    2.9434    0.0000 C   0  0  0  0  0  0  0  0  0  0  0  0
    3.2844   -1.4985    0.0000 H   0  0  0  0  0  0  0  0  0  0  0  0
    5.5092   -1.4985    0.0000 H   0  0  0  0  0  0  0  0  0  0  0  0
    3.2778   -0.1075    0.0000 H   0  0  0  0  0  0  0  0  0  0  0  0
    3.0214   -0.8966    0.0000 H   0  0  0  0  0  0  0  0  0  0  0  0
    4.9492    0.2248    0.0000 H   0  0  0  0  0  0  0  0  0  0  0  0
    5.8490   -2.9061    0.0000 H   0  0  0  0  0  0  0  0  0  0  0  0
    4.5114   -3.0659    0.0000 H   0  0  0  0  0  0  0  0  0  0  0  0
    4.8257   -3.8844    0.0000 H   0  0  0  0  0  0  0  0  0  0  0  0
    5.6443   -3.5702    0.0000 H   0  0  0  0  0  0  0  0  0  0  0  0
    2.9938    1.1334    0.0000 H   0  0  0  0  0  0  0  0  0  0  0  0
    4.2077   -3.5472    0.0000 H   0  0  0  0  0  0  0  0  0  0  0  0
    6.8435   -2.8016    0.0000 H   0  0  0  0  0  0  0  0  0  0  0  0
    5.7998    2.7534    0.0000 H   0  0  0  0  0  0  0  0  0  0  0  0
    1.4103   -3.5472    0.0000 H   0  0  0  0  0  0  0  0  0  0  0  0
    2.9747    3.4803    0.0000 H   0  0  0  0  0  0  0  0  0  0  0  0
    2.1278    3.2534    0.0000 H   0  0  0  0  0  0  0  0  0  0  0  0
    2.3548    2.4064    0.0000 H   0  0  0  0  0  0  0  0  0  0  0  0
  1 11  1  0  0  0  0
  1 13  1  0  0  0  0
  2 14  1  0  0  0  0
  2 34  1  0  0  0  0
  3 18  2  0  0  0  0
  4 21  2  0  0  0  0
  5  7  1  0  0  0  0
 10  5  1  6  0  0  0
  5 17  1  0  0  0  0
 13  6  1  1  0  0  0
  6 16  1  0  0  0  0
  6 18  1  0  0  0  0
  7 20  2  0  0  0  0
  8 18  1  0  0  0  0
  8 21  1  0  0  0  0
  8 35  1  0  0  0  0
  9 17  2  0  0  0  0
  9 20  1  0  0  0  0
 10 11  1  0  0  0  0
 10 12  1  0  0  0  0
 10 23  1  0  0  0  0
 11 14  1  1  0  0  0
 11 24  1  0  0  0  0
 12 13  1  0  0  0  0
 12 25  1  0  0  0  0
 12 26  1  0  0  0  0
 13 27  1  0  0  0  0
 14 15  1  0  0  0  0
 14 28  1  0  0  0  0
 15 29  1  0  0  0  0
 15 30  1  0  0  0  0
 15 31  1  0  0  0  0
 16 19  2  0  0  0  0
 16 32  1  0  0  0  0
 17 33  1  0  0  0  0
 19 21  1  0  0  0  0
 19 22  1  0  0  0  0
 20 36  1  0  0  0  0
 22 37  1  0  0  0  0
 22 38  1  0  0  0  0
 22 39  1  0  0  0  0
M  END
> <PUBCHEM_COMPOUND_CID>
500123
> <PUBCHEM_COMPOUND_CANONICALIZED>
1
> <PUBCHEM_CACTVS_COMPLEXITY>
511
> <PUBCHEM_CACTVS_HBOND_ACCEPTOR>
6
> <PUBCHEM_CACTVS_HBOND_DONOR>
2
> <PUBCHEM_CACTVS_ROTATABLE_BOND>
3
> <PUBCHEM_CACTVS_SUBSKEYS>
AAADceBzuAAAAAAAAAAAAAAAAAAAAWJAAAAgAAAAAAAAAAABgAAAHgAYCAAADDzhgAYHEAfIFgCqAgFXdACQAAsQgIAVQAEIAECDGAIAyQAPQAAOByITAMGwcAYAAAAAAAAAAAAAAAAAAAAAAAAAAAAAAA==
> <PUBCHEM_IUPAC_OPENEYE_NAME>
1-[(2S,4R,5R)-5-(1-hydroxyethyl)-4-(1,2,4-triazol-1-yl)tetrahydrofuran-2-yl]-5-methyl-pyrimidine-2,4-dione
> <PUBCHEM_IUPAC_CAS_NAME>
1-[(2S,4R,5R)-5-(1-hydroxyethyl)-4-(1,2,4-triazol-1-yl)-2-oxolanyl]-5-methylpyrimidine-2,4-dione
> <PUBCHEM_IUPAC_NAME_MARKUP>
1-[(2<I>S</I>,4<I>R</I>,5<I>R</I>)-5-(1-hydroxyethyl)-4-(1,2,4-triazol-1-yl)oxolan-2-yl]-5-methylpyrimidine-2,4-dione
> <PUBCHEM_IUPAC_NAME>
1-[(2S,4R,5R)-5-(1-hydroxyethyl)-4-(1,2,4-triazol-1-yl)oxolan-2-yl]-5-methylpyrimidine-2,4-dione
> <PUBCHEM_IUPAC_SYSTEMATIC_NAME>
1-[(2S,4R,5R)-5-(1-hydroxyethyl)-4-(1,2,4-triazol-1-yl)oxolan-2-yl]-5-methyl-pyrimidine-2,4-dione
> <PUBCHEM_IUPAC_TRADITIONAL_NAME>
1-[(2S,4R,5R)-5-(1-hydroxyethyl)-4-(1,2,4-triazol-1-yl)tetrahydrofuran-2-yl]-5-methyl-pyrimidine-2,4-quinone
> <PUBCHEM_IUPAC_INCHI>
InChI=1S/C13H17N5O4/c1-7-4-17(13(21)16-12(7)20)10-3-9(11(22-10)8(2)19)18-6-14-5-15-18/h4-6,8-11,19H,3H2,1-2H3,(H,16,20,21)/t8?,9-,10+,11+/m1/s1
> <PUBCHEM_IUPAC_INCHIKEY>
UUKCXTBOFZZPRV-WVXRZKCLSA-N
> <PUBCHEM_XLOGP3_AA>
-0.7
> <PUBCHEM_EXACT_MASS>
307.12805404
> <PUBCHEM_MOLECULAR_FORMULA>
C13H17N5O4
> <PUBCHEM_MOLECULAR_WEIGHT>
307.31
> <PUBCHEM_OPENEYE_CAN_SMILES>
CC1=CN(C(=O)NC1=O)C2CC(C(O2)C(C)O)N3C=NC=N3
> <PUBCHEM_OPENEYE_ISO_SMILES>
CC1=CN(C(=O)NC1=O)[C@@H]2C[C@H]([C@@H](O2)C(C)O)N3C=NC=N3
> <PUBCHEM_CACTVS_TPSA>
110
> <PUBCHEM_MONOISOTOPIC_WEIGHT>
307.12805404
> <PUBCHEM_TOTAL_CHARGE>
0
> <PUBCHEM_HEAVY_ATOM_COUNT>
22
> <PUBCHEM_ATOM_DEF_STEREO_COUNT>
3
> <PUBCHEM_ATOM_UDEF_STEREO_COUNT>
1
> <PUBCHEM_BOND_DEF_STEREO_COUNT>
0
> <PUBCHEM_BOND_UDEF_STEREO_COUNT>
0
> <PUBCHEM_ISOTOPIC_ATOM_COUNT>
0
> <PUBCHEM_COMPONENT_COUNT>
1
> <PUBCHEM_CACTVS_TAUTO_COUNT>
-1
> <PUBCHEM_COORDINATE_TYPE>
1
5
255
> <PUBCHEM_BONDANNOTATIONS>
11  14  5
16  19  8
19  21  8
14  2  3
10  5  6
5  17  8
5  7  8
13  6  5
6  16  8
6  18  8
7  20  8
8  18  8
8  21  8
9  17  8
9  20  8
$$$$
