500197
  -OEChem-10302200282D
 19 16  0     1  0  0  0  0  0999 V2000
    0.5369    0.0000    0.0000 Ag  0  3  0  0  0  0  0  0  0  0  0  0
    0.5369    1.0000    0.0000 S   0  5  0  0  0  0  0  0  0  0  0  0
    3.1350    2.5000    0.0000 O   0  0  0  0  0  0  0  0  0  0  0  0
    2.2690    4.0000    0.0000 O   0  0  0  0  0  0  0  0  0  0  0  0
    2.4335    7.5000    0.0000 O   0  0  0  0  0  0  0  0  0  0  0  0
    0.7015    7.5000    0.0000 O   0  5  0  0  0  0  0  0  0  0  0  0
    1.5675    6.0000    0.0000 O   0  0  0  0  0  0  0  0  0  0  0  0
    0.5369    3.0000    0.0000 N   0  0  0  0  0  0  0  0  0  0  0  0
    1.5675    7.0000    0.0000 N   0  3  0  0  0  0  0  0  0  0  0  0
    1.4030    2.5000    0.0000 C   0  0  3  0  0  0  0  0  0  0  0  0
    1.4030    1.5000    0.0000 C   0  0  0  0  0  0  0  0  0  0  0  0
    2.2690    3.0000    0.0000 C   0  0  0  0  0  0  0  0  0  0  0  0
    1.4030    3.1200    0.0000 H   0  0  0  0  0  0  0  0  0  0  0  0
    1.6150    0.9174    0.0000 H   0  0  0  0  0  0  0  0  0  0  0  0
    2.0135    1.6077    0.0000 H   0  0  0  0  0  0  0  0  0  0  0  0
    0.0000    2.6900    0.0000 H   0  0  0  0  0  0  0  0  0  0  0  0
    0.5369    3.6200    0.0000 H   0  0  0  0  0  0  0  0  0  0  0  0
    3.6720    2.8100    0.0000 H   0  0  0  0  0  0  0  0  0  0  0  0
    2.9705    7.1900    0.0000 H   0  0  0  0  0  0  0  0  0  0  0  0
  2 11  1  0  0  0  0
  3 12  1  0  0  0  0
  3 18  1  0  0  0  0
  4 12  2  0  0  0  0
  5  9  1  0  0  0  0
  5 19  1  0  0  0  0
  6  9  1  0  0  0  0
  7  9  2  0  0  0  0
  8 10  1  0  0  0  0
  8 16  1  0  0  0  0
  8 17  1  0  0  0  0
 10 11  1  0  0  0  0
 10 12  1  0  0  0  0
 10 13  1  0  0  0  0
 11 14  1  0  0  0  0
 11 15  1  0  0  0  0
M  CHG  4   1   1   2  -1   6  -1   9   1
M  END
> <PUBCHEM_COMPOUND_CID>
500197
> <PUBCHEM_COMPOUND_CANONICALIZED>
1
> <PUBCHEM_CACTVS_COMPLEXITY>
104
> <PUBCHEM_CACTVS_HBOND_ACCEPTOR>
7
> <PUBCHEM_CACTVS_HBOND_DONOR>
3
> <PUBCHEM_CACTVS_ROTATABLE_BOND>
2
> <PUBCHEM_CACTVS_SUBSKEYS>
AAADcYBDOABAAAAAAAQAAAAAAAAAAAAAAAAAAAAAAAAAAAAAAAAAHgQUCAAACCjFwASACABAQgAJAACQCQAAAAAAAAAAAIGAAAACAAAAAAAAQAAAEAAAAAAAAAAAAAAAAAAAAAAAAAAAAAAAAAAAAAAAAA==
> <PUBCHEM_IUPAC_OPENEYE_NAME>
silver;2-amino-3-hydroxy-3-oxo-propane-1-thiolate;nitric acid
> <PUBCHEM_IUPAC_CAS_NAME>
silver;2-amino-3-hydroxy-3-oxo-1-propanethiolate;nitric acid
> <PUBCHEM_IUPAC_NAME_MARKUP>
silver;2-amino-3-hydroxy-3-oxopropane-1-thiolate;nitric acid
> <PUBCHEM_IUPAC_NAME>
silver;2-amino-3-hydroxy-3-oxopropane-1-thiolate;nitric acid
> <PUBCHEM_IUPAC_SYSTEMATIC_NAME>
silver;2-azanyl-3-oxidanyl-3-oxidanylidene-propane-1-thiolate;nitric acid
> <PUBCHEM_IUPAC_TRADITIONAL_NAME>
silver;2-amino-3-hydroxy-3-keto-propane-1-thiolate;nitric acid
> <PUBCHEM_IUPAC_INCHI>
InChI=1S/C3H7NO2S.Ag.HNO3/c4-2(1-7)3(5)6;;2-1(3)4/h2,7H,1,4H2,(H,5,6);;(H,2,3,4)/q;+1;/p-1
> <PUBCHEM_IUPAC_INCHIKEY>
YPDPYLJJBBKICP-UHFFFAOYSA-M
> <PUBCHEM_EXACT_MASS>
289.91266
> <PUBCHEM_MOLECULAR_FORMULA>
C3H7AgN2O5S
> <PUBCHEM_MOLECULAR_WEIGHT>
291.03
> <PUBCHEM_OPENEYE_CAN_SMILES>
C(C(C(=O)O)N)[S-].[N+](=O)(O)[O-].[Ag+]
> <PUBCHEM_OPENEYE_ISO_SMILES>
C(C(C(=O)O)N)[S-].[N+](=O)(O)[O-].[Ag+]
> <PUBCHEM_CACTVS_TPSA>
130
> <PUBCHEM_MONOISOTOPIC_WEIGHT>
289.91266
> <PUBCHEM_TOTAL_CHARGE>
0
> <PUBCHEM_HEAVY_ATOM_COUNT>
12
> <PUBCHEM_ATOM_DEF_STEREO_COUNT>
0
> <PUBCHEM_ATOM_UDEF_STEREO_COUNT>
1
> <PUBCHEM_BOND_DEF_STEREO_COUNT>
0
> <PUBCHEM_BOND_UDEF_STEREO_COUNT>
0
> <PUBCHEM_ISOTOPIC_ATOM_COUNT>
0
> <PUBCHEM_COMPONENT_COUNT>
3
> <PUBCHEM_CACTVS_TAUTO_COUNT>
-1
> <PUBCHEM_NONSTANDARDBOND>
1  2  6
> <PUBCHEM_COORDINATE_TYPE>
1
5
255
> <PUBCHEM_BONDANNOTATIONS>
10  8  3
$$$$
