500151
  -OEChem-10302200282D
 66 71  0     1  0  0  0  0  0999 V2000
   10.1373    0.7467    0.0000 S   0  0  0  0  0  0  0  0  0  0  0  0
    2.5357   -3.8683    0.0000 O   0  0  0  0  0  0  0  0  0  0  0  0
    8.5993    1.2493    0.0000 N   0  0  0  0  0  0  0  0  0  0  0  0
    7.9288   -0.8160    0.0000 C   0  0  3  0  0  0  0  0  0  0  0  0
    7.9288   -1.8160    0.0000 C   0  0  3  0  0  0  0  0  0  0  0  0
    7.0628   -2.3160    0.0000 C   0  0  3  0  0  0  0  0  0  0  0  0
    6.1968   -1.8160    0.0000 C   0  0  3  0  0  0  0  0  0  0  0  0
    5.2868   -2.3228    0.0000 C   0  0  3  0  0  0  0  0  0  0  0  0
    8.8750   -0.5112    0.0000 C   0  0  3  0  0  0  0  0  0  0  0  0
    7.0628   -0.3160    0.0000 C   0  0  0  0  0  0  0  0  0  0  0  0
    6.1968   -0.8160    0.0000 C   0  0  0  0  0  0  0  0  0  0  0  0
    8.8750   -2.1207    0.0000 C   0  0  0  0  0  0  0  0  0  0  0  0
    9.4586   -1.3160    0.0000 C   0  0  0  0  0  0  0  0  0  0  0  0
    7.0789   -3.3575    0.0000 C   0  0  0  0  0  0  0  0  0  0  0  0
    5.2787   -3.3644    0.0000 C   0  0  0  0  0  0  0  0  0  0  0  0
    7.9288    0.1840    0.0000 C   0  0  0  0  0  0  0  0  0  0  0  0
    4.3599   -1.7587    0.0000 C   0  0  0  0  0  0  0  0  0  0  0  0
    6.1808   -3.8852    0.0000 C   0  0  0  0  0  0  0  0  0  0  0  0
    5.2945   -1.3228    0.0000 C   0  0  0  0  0  0  0  0  0  0  0  0
    4.3433   -3.9141    0.0000 C   0  0  0  0  0  0  0  0  0  0  0  0
    9.1857    0.4393    0.0000 C   0  0  0  0  0  0  0  0  0  0  0  0
    3.4120   -2.2867    0.0000 C   0  0  0  0  0  0  0  0  0  0  0  0
    3.4037   -3.3716    0.0000 C   0  0  3  0  0  0  0  0  0  0  0  0
   10.1390    1.7467    0.0000 C   0  0  0  0  0  0  0  0  0  0  0  0
    9.1885    2.0573    0.0000 C   0  0  0  0  0  0  0  0  0  0  0  0
   10.9491    2.3330    0.0000 C   0  0  0  0  0  0  0  0  0  0  0  0
   10.8462    3.3278    0.0000 C   0  0  0  0  0  0  0  0  0  0  0  0
   11.8619    1.9247    0.0000 C   0  0  0  0  0  0  0  0  0  0  0  0
   11.6563    3.9141    0.0000 C   0  0  0  0  0  0  0  0  0  0  0  0
   12.6719    2.5111    0.0000 C   0  0  0  0  0  0  0  0  0  0  0  0
   12.5691    3.5058    0.0000 C   0  0  0  0  0  0  0  0  0  0  0  0
    7.9944   -2.4325    0.0000 H   0  0  0  0  0  0  0  0  0  0  0  0
    7.6021   -2.6218    0.0000 H   0  0  0  0  0  0  0  0  0  0  0  0
    6.7337   -1.5060    0.0000 H   0  0  0  0  0  0  0  0  0  0  0  0
    9.4875   -0.4150    0.0000 H   0  0  0  0  0  0  0  0  0  0  0  0
    7.4613    0.1590    0.0000 H   0  0  0  0  0  0  0  0  0  0  0  0
    6.6643    0.1590    0.0000 H   0  0  0  0  0  0  0  0  0  0  0  0
    5.9847   -0.2334    0.0000 H   0  0  0  0  0  0  0  0  0  0  0  0
    5.5862   -0.9236    0.0000 H   0  0  0  0  0  0  0  0  0  0  0  0
    8.6240   -2.6876    0.0000 H   0  0  0  0  0  0  0  0  0  0  0  0
    9.4124   -2.4299    0.0000 H   0  0  0  0  0  0  0  0  0  0  0  0
    9.9195   -1.7307    0.0000 H   0  0  0  0  0  0  0  0  0  0  0  0
    9.9195   -0.9012    0.0000 H   0  0  0  0  0  0  0  0  0  0  0  0
    7.2969   -3.9379    0.0000 H   0  0  0  0  0  0  0  0  0  0  0  0
    7.6880   -3.2420    0.0000 H   0  0  0  0  0  0  0  0  0  0  0  0
    8.5488    0.1840    0.0000 H   0  0  0  0  0  0  0  0  0  0  0  0
    7.9288    0.8040    0.0000 H   0  0  0  0  0  0  0  0  0  0  0  0
    7.3088    0.1840    0.0000 H   0  0  0  0  0  0  0  0  0  0  0  0
    4.7681   -1.2921    0.0000 H   0  0  0  0  0  0  0  0  0  0  0  0
    3.9700   -1.2767    0.0000 H   0  0  0  0  0  0  0  0  0  0  0  0
    6.1832   -4.5052    0.0000 H   0  0  0  0  0  0  0  0  0  0  0  0
    5.9145   -1.3276    0.0000 H   0  0  0  0  0  0  0  0  0  0  0  0
    5.2993   -0.7029    0.0000 H   0  0  0  0  0  0  0  0  0  0  0  0
    4.6745   -1.3181    0.0000 H   0  0  0  0  0  0  0  0  0  0  0  0
    3.9460   -4.3901    0.0000 H   0  0  0  0  0  0  0  0  0  0  0  0
    4.7443   -4.3870    0.0000 H   0  0  0  0  0  0  0  0  0  0  0  0
    3.2075   -1.7014    0.0000 H   0  0  0  0  0  0  0  0  0  0  0  0
    2.8004   -2.3880    0.0000 H   0  0  0  0  0  0  0  0  0  0  0  0
    2.8686   -3.0585    0.0000 H   0  0  0  0  0  0  0  0  0  0  0  0
    2.0000   -3.5562    0.0000 H   0  0  0  0  0  0  0  0  0  0  0  0
    8.9979    2.6473    0.0000 H   0  0  0  0  0  0  0  0  0  0  0  0
   10.2803    3.5809    0.0000 H   0  0  0  0  0  0  0  0  0  0  0  0
   11.9256    1.3080    0.0000 H   0  0  0  0  0  0  0  0  0  0  0  0
   11.5925    4.5308    0.0000 H   0  0  0  0  0  0  0  0  0  0  0  0
   13.2379    2.2580    0.0000 H   0  0  0  0  0  0  0  0  0  0  0  0
   13.0713    3.8694    0.0000 H   0  0  0  0  0  0  0  0  0  0  0  0
  1 21  1  0  0  0  0
  1 24  1  0  0  0  0
  2 23  1  0  0  0  0
  2 60  1  0  0  0  0
  3 21  2  0  0  0  0
  3 25  1  0  0  0  0
  4  5  1  0  0  0  0
  4  9  1  0  0  0  0
  4 10  1  0  0  0  0
  4 16  1  0  0  0  0
  5  6  1  0  0  0  0
  5 12  1  0  0  0  0
  5 32  1  0  0  0  0
  6  7  1  0  0  0  0
  6 14  1  0  0  0  0
  6 33  1  0  0  0  0
  7  8  1  0  0  0  0
  7 11  1  0  0  0  0
  7 34  1  0  0  0  0
  8 15  1  0  0  0  0
  8 17  1  0  0  0  0
  8 19  1  0  0  0  0
  9 13  1  0  0  0  0
  9 21  1  0  0  0  0
  9 35  1  0  0  0  0
 10 11  1  0  0  0  0
 10 36  1  0  0  0  0
 10 37  1  0  0  0  0
 11 38  1  0  0  0  0
 11 39  1  0  0  0  0
 12 13  1  0  0  0  0
 12 40  1  0  0  0  0
 12 41  1  0  0  0  0
 13 42  1  0  0  0  0
 13 43  1  0  0  0  0
 14 18  1  0  0  0  0
 14 44  1  0  0  0  0
 14 45  1  0  0  0  0
 15 18  2  0  0  0  0
 15 20  1  0  0  0  0
 16 46  1  0  0  0  0
 16 47  1  0  0  0  0
 16 48  1  0  0  0  0
 17 22  1  0  0  0  0
 17 49  1  0  0  0  0
 17 50  1  0  0  0  0
 18 51  1  0  0  0  0
 19 52  1  0  0  0  0
 19 53  1  0  0  0  0
 19 54  1  0  0  0  0
 20 23  1  0  0  0  0
 20 55  1  0  0  0  0
 20 56  1  0  0  0  0
 22 23  1  0  0  0  0
 22 57  1  0  0  0  0
 22 58  1  0  0  0  0
 23 59  1  0  0  0  0
 24 25  2  0  0  0  0
 24 26  1  0  0  0  0
 25 61  1  0  0  0  0
 26 27  2  0  0  0  0
 26 28  1  0  0  0  0
 27 29  1  0  0  0  0
 27 62  1  0  0  0  0
 28 30  2  0  0  0  0
 28 63  1  0  0  0  0
 29 31  2  0  0  0  0
 29 64  1  0  0  0  0
 30 31  1  0  0  0  0
 30 65  1  0  0  0  0
 31 66  1  0  0  0  0
M  END
> <PUBCHEM_COMPOUND_CID>
500151
> <PUBCHEM_COMPOUND_CANONICALIZED>
1
> <PUBCHEM_CACTVS_COMPLEXITY>
716
> <PUBCHEM_CACTVS_HBOND_ACCEPTOR>
3
> <PUBCHEM_CACTVS_HBOND_DONOR>
1
> <PUBCHEM_CACTVS_ROTATABLE_BOND>
2
> <PUBCHEM_CACTVS_SUBSKEYS>
AAADcfB6IABAAAAAAAAAAAAAAAAAAeIAAAAwYMEAAAAAAGCBwAAAHgQACAAADxTh2gY+gZIIEgikAjBnRAAC8KBxCDhI2Aw4QIgIMCLgkRGEYAAkwADoyAeQwPAPgAAAAAAAAADAAAQAACAAAQAACAAAAA==
> <PUBCHEM_IUPAC_OPENEYE_NAME>
10,13-dimethyl-17-(5-phenylthiazol-2-yl)-2,3,4,7,8,9,11,12,14,15,16,17-dodecahydro-1H-cyclopenta[a]phenanthren-3-ol
> <PUBCHEM_IUPAC_CAS_NAME>
10,13-dimethyl-17-(5-phenyl-2-thiazolyl)-2,3,4,7,8,9,11,12,14,15,16,17-dodecahydro-1H-cyclopenta[a]phenanthren-3-ol
> <PUBCHEM_IUPAC_NAME_MARKUP>
10,13-dimethyl-17-(5-phenyl-1,3-thiazol-2-yl)-2,3,4,7,8,9,11,12,14,15,16,17-dodecahydro-1<I>H</I>-cyclopenta[a]phenanthren-3-ol
> <PUBCHEM_IUPAC_NAME>
10,13-dimethyl-17-(5-phenyl-1,3-thiazol-2-yl)-2,3,4,7,8,9,11,12,14,15,16,17-dodecahydro-1H-cyclopenta[a]phenanthren-3-ol
> <PUBCHEM_IUPAC_SYSTEMATIC_NAME>
10,13-dimethyl-17-(5-phenyl-1,3-thiazol-2-yl)-2,3,4,7,8,9,11,12,14,15,16,17-dodecahydro-1H-cyclopenta[a]phenanthren-3-ol
> <PUBCHEM_IUPAC_TRADITIONAL_NAME>
10,13-dimethyl-17-(5-phenylthiazol-2-yl)-2,3,4,7,8,9,11,12,14,15,16,17-dodecahydro-1H-cyclopenta[a]phenanthren-3-ol
> <PUBCHEM_IUPAC_INCHI>
InChI=1S/C28H35NOS/c1-27-14-12-20(30)16-19(27)8-9-21-22-10-11-24(28(22,2)15-13-23(21)27)26-29-17-25(31-26)18-6-4-3-5-7-18/h3-8,17,20-24,30H,9-16H2,1-2H3
> <PUBCHEM_IUPAC_INCHIKEY>
UCCGKEZXKDUNMN-UHFFFAOYSA-N
> <PUBCHEM_XLOGP3_AA>
6.8
> <PUBCHEM_EXACT_MASS>
433.24393591
> <PUBCHEM_MOLECULAR_FORMULA>
C28H35NOS
> <PUBCHEM_MOLECULAR_WEIGHT>
433.6
> <PUBCHEM_OPENEYE_CAN_SMILES>
CC12CCC3C(C1CCC2C4=NC=C(S4)C5=CC=CC=C5)CC=C6C3(CCC(C6)O)C
> <PUBCHEM_OPENEYE_ISO_SMILES>
CC12CCC3C(C1CCC2C4=NC=C(S4)C5=CC=CC=C5)CC=C6C3(CCC(C6)O)C
> <PUBCHEM_CACTVS_TPSA>
61.4
> <PUBCHEM_MONOISOTOPIC_WEIGHT>
433.24393591
> <PUBCHEM_TOTAL_CHARGE>
0
> <PUBCHEM_HEAVY_ATOM_COUNT>
31
> <PUBCHEM_ATOM_DEF_STEREO_COUNT>
0
> <PUBCHEM_ATOM_UDEF_STEREO_COUNT>
7
> <PUBCHEM_BOND_DEF_STEREO_COUNT>
0
> <PUBCHEM_BOND_UDEF_STEREO_COUNT>
0
> <PUBCHEM_ISOTOPIC_ATOM_COUNT>
0
> <PUBCHEM_COMPONENT_COUNT>
1
> <PUBCHEM_CACTVS_TAUTO_COUNT>
-1
> <PUBCHEM_COORDINATE_TYPE>
1
5
255
> <PUBCHEM_BONDANNOTATIONS>
1  21  8
1  24  8
23  2  3
24  25  8
26  27  8
26  28  8
27  29  8
28  30  8
29  31  8
3  21  8
3  25  8
30  31  8
4  16  3
5  12  3
6  14  3
7  11  3
8  19  3
9  21  3
$$$$
