500135
  -OEChem-10302200282D
 64 65  0     1  0  0  0  0  0999 V2000
    0.8660    6.3098    0.0000 Pd  0  0  0  0  0  0  0  0  0  0  0  0
    1.7320    6.8098    0.0000 Cl  0  0  0  0  0  0  0  0  0  0  0  0
    0.0000    6.8098    0.0000 Cl  0  0  0  0  0  0  0  0  0  0  0  0
    8.6594    3.0997    0.0000 S   0  0  0  0  0  0  0  0  0  0  0  0
    6.8779   12.0853    0.0000 P   0  0  0  0  0  0  0  0  0  0  0  0
    8.4820    1.2732    0.0000 F   0  0  0  0  0  0  0  0  0  0  0  0
    5.6759    3.3045    0.0000 F   0  0  0  0  0  0  0  0  0  0  0  0
    7.3557    4.0435    0.0000 N   0  0  0  0  0  0  0  0  0  0  0  0
    7.8557    5.5823    0.0000 N   0  0  0  0  0  0  0  0  0  0  0  0
    7.6653    3.0989    0.0000 C   0  0  3  0  0  0  0  0  0  0  0  0
    8.1647    4.6313    0.0000 C   0  0  0  0  0  0  0  0  0  0  0  0
    6.5467    4.6313    0.0000 C   0  0  0  0  0  0  0  0  0  0  0  0
    8.9674    4.0449    0.0000 C   0  0  0  0  0  0  0  0  0  0  0  0
    7.0790    2.2888    0.0000 C   0  0  0  0  0  0  0  0  0  0  0  0
    6.8557    5.5823    0.0000 C   0  0  0  0  0  0  0  0  0  0  0  0
    7.7439   12.5853    0.0000 C   0  0  0  0  0  0  0  0  0  0  0  0
    6.0119   12.5853    0.0000 C   0  0  0  0  0  0  0  0  0  0  0  0
    6.8779   11.0853    0.0000 C   0  0  0  0  0  0  0  0  0  0  0  0
    5.5313    4.3990    0.0000 C   0  0  0  0  0  0  0  0  0  0  0  0
    8.6100   12.0853    0.0000 C   0  0  0  0  0  0  0  0  0  0  0  0
    5.1459   12.0853    0.0000 C   0  0  0  0  0  0  0  0  0  0  0  0
    6.0119   10.5853    0.0000 C   0  0  0  0  0  0  0  0  0  0  0  0
    6.1707    6.3671    0.0000 C   0  0  0  0  0  0  0  0  0  0  0  0
    7.4873    1.3760    0.0000 C   0  0  0  0  0  0  0  0  0  0  0  0
    6.0842    2.3916    0.0000 C   0  0  0  0  0  0  0  0  0  0  0  0
    4.8283    5.1677    0.0000 C   0  0  0  0  0  0  0  0  0  0  0  0
    5.1502    6.1584    0.0000 C   0  0  0  0  0  0  0  0  0  0  0  0
    9.4760   12.5853    0.0000 C   0  0  0  0  0  0  0  0  0  0  0  0
    4.2798   12.5853    0.0000 C   0  0  0  0  0  0  0  0  0  0  0  0
    6.0119    9.5853    0.0000 C   0  0  0  0  0  0  0  0  0  0  0  0
    6.9009    0.5660    0.0000 C   0  0  0  0  0  0  0  0  0  0  0  0
    5.4979    1.5816    0.0000 C   0  0  0  0  0  0  0  0  0  0  0  0
    5.9062    0.6688    0.0000 C   0  0  0  0  0  0  0  0  0  0  0  0
    7.9475    2.5468    0.0000 H   0  0  0  0  0  0  0  0  0  0  0  0
    9.5334    3.7919    0.0000 H   0  0  0  0  0  0  0  0  0  0  0  0
    9.2785    4.5812    0.0000 H   0  0  0  0  0  0  0  0  0  0  0  0
    8.1425   13.0603    0.0000 H   0  0  0  0  0  0  0  0  0  0  0  0
    7.3454   13.0603    0.0000 H   0  0  0  0  0  0  0  0  0  0  0  0
    6.4104   13.0603    0.0000 H   0  0  0  0  0  0  0  0  0  0  0  0
    5.6134   13.0603    0.0000 H   0  0  0  0  0  0  0  0  0  0  0  0
    7.0900   10.5027    0.0000 H   0  0  0  0  0  0  0  0  0  0  0  0
    7.4885   11.1930    0.0000 H   0  0  0  0  0  0  0  0  0  0  0  0
    5.3465    3.8072    0.0000 H   0  0  0  0  0  0  0  0  0  0  0  0
    8.2114   11.6104    0.0000 H   0  0  0  0  0  0  0  0  0  0  0  0
    9.0085   11.6104    0.0000 H   0  0  0  0  0  0  0  0  0  0  0  0
    4.7473   11.6104    0.0000 H   0  0  0  0  0  0  0  0  0  0  0  0
    5.5444   11.6104    0.0000 H   0  0  0  0  0  0  0  0  0  0  0  0
    5.7998   11.1679    0.0000 H   0  0  0  0  0  0  0  0  0  0  0  0
    5.4013   10.4777    0.0000 H   0  0  0  0  0  0  0  0  0  0  0  0
    6.3691    6.9545    0.0000 H   0  0  0  0  0  0  0  0  0  0  0  0
    4.2224    5.0365    0.0000 H   0  0  0  0  0  0  0  0  0  0  0  0
    4.7371    6.6207    0.0000 H   0  0  0  0  0  0  0  0  0  0  0  0
    9.7860   12.0484    0.0000 H   0  0  0  0  0  0  0  0  0  0  0  0
   10.0129   12.8953    0.0000 H   0  0  0  0  0  0  0  0  0  0  0  0
    9.1660   13.1223    0.0000 H   0  0  0  0  0  0  0  0  0  0  0  0
    4.5898   13.1223    0.0000 H   0  0  0  0  0  0  0  0  0  0  0  0
    3.7429   12.8953    0.0000 H   0  0  0  0  0  0  0  0  0  0  0  0
    3.9698   12.0484    0.0000 H   0  0  0  0  0  0  0  0  0  0  0  0
    5.3919    9.5853    0.0000 H   0  0  0  0  0  0  0  0  0  0  0  0
    6.0119    8.9653    0.0000 H   0  0  0  0  0  0  0  0  0  0  0  0
    6.6319    9.5853    0.0000 H   0  0  0  0  0  0  0  0  0  0  0  0
    7.1540    0.0000    0.0000 H   0  0  0  0  0  0  0  0  0  0  0  0
    4.8812    1.6454    0.0000 H   0  0  0  0  0  0  0  0  0  0  0  0
    5.5426    0.1665    0.0000 H   0  0  0  0  0  0  0  0  0  0  0  0
  1  2  1  0  0  0  0
  1  3  1  0  0  0  0
  4 10  1  0  0  0  0
  4 13  1  0  0  0  0
  5 16  1  0  0  0  0
  5 17  1  0  0  0  0
  5 18  1  0  0  0  0
  6 24  1  0  0  0  0
  7 25  1  0  0  0  0
  8 10  1  0  0  0  0
  8 11  1  0  0  0  0
  8 12  1  0  0  0  0
  9 11  2  0  0  0  0
  9 15  1  0  0  0  0
 10 14  1  0  0  0  0
 10 34  1  0  0  0  0
 11 13  1  0  0  0  0
 12 15  1  0  0  0  0
 12 19  2  0  0  0  0
 13 35  1  0  0  0  0
 13 36  1  0  0  0  0
 14 24  2  0  0  0  0
 14 25  1  0  0  0  0
 15 23  2  0  0  0  0
 16 20  1  0  0  0  0
 16 37  1  0  0  0  0
 16 38  1  0  0  0  0
 17 21  1  0  0  0  0
 17 39  1  0  0  0  0
 17 40  1  0  0  0  0
 18 22  1  0  0  0  0
 18 41  1  0  0  0  0
 18 42  1  0  0  0  0
 19 26  1  0  0  0  0
 19 43  1  0  0  0  0
 20 28  1  0  0  0  0
 20 44  1  0  0  0  0
 20 45  1  0  0  0  0
 21 29  1  0  0  0  0
 21 46  1  0  0  0  0
 21 47  1  0  0  0  0
 22 30  1  0  0  0  0
 22 48  1  0  0  0  0
 22 49  1  0  0  0  0
 23 27  1  0  0  0  0
 23 50  1  0  0  0  0
 24 31  1  0  0  0  0
 25 32  2  0  0  0  0
 26 27  2  0  0  0  0
 26 51  1  0  0  0  0
 27 52  1  0  0  0  0
 28 53  1  0  0  0  0
 28 54  1  0  0  0  0
 28 55  1  0  0  0  0
 29 56  1  0  0  0  0
 29 57  1  0  0  0  0
 29 58  1  0  0  0  0
 30 59  1  0  0  0  0
 30 60  1  0  0  0  0
 30 61  1  0  0  0  0
 31 33  2  0  0  0  0
 31 62  1  0  0  0  0
 32 33  1  0  0  0  0
 32 63  1  0  0  0  0
 33 64  1  0  0  0  0
M  END
> <PUBCHEM_COMPOUND_CID>
500135
> <PUBCHEM_COMPOUND_CANONICALIZED>
1
> <PUBCHEM_CACTVS_COMPLEXITY>
410
> <PUBCHEM_CACTVS_HBOND_ACCEPTOR>
4
> <PUBCHEM_CACTVS_HBOND_DONOR>
0
> <PUBCHEM_CACTVS_ROTATABLE_BOND>
7
> <PUBCHEM_CACTVS_SUBSKEYS>
AAADceB7AYJGAAAAAAgAAAAAAAAAAWLAAAAwYAAAAAAWAFgB9AAAHQwAAAAADAjNXwyz0LcMECigAyZiZACCgC1hErAJ2CA4dJiIaKLgmZGUIAhogALoyCcQgAAOAAAAAAAAACAAAAAAAAAAQAAAAAAAAA==
> <PUBCHEM_IUPAC_OPENEYE_NAME>
dichloropalladium;1-(2,6-difluorophenyl)-1,3-dihydrothiazolo[3,4-a]benzimidazole;tripropylphosphane
> <PUBCHEM_IUPAC_CAS_NAME>
dichloropalladium;1-(2,6-difluorophenyl)-1,3-dihydrothiazolo[3,4-a]benzimidazole;tripropylphosphine
> <PUBCHEM_IUPAC_NAME_MARKUP>
dichloropalladium;1-(2,6-difluorophenyl)-1,3-dihydro-[1,3]thiazolo[3,4-a]benzimidazole;tripropylphosphane
> <PUBCHEM_IUPAC_NAME>
dichloropalladium;1-(2,6-difluorophenyl)-1,3-dihydro-[1,3]thiazolo[3,4-a]benzimidazole;tripropylphosphane
> <PUBCHEM_IUPAC_SYSTEMATIC_NAME>
bis(chloranyl)palladium;1-[2,6-bis(fluoranyl)phenyl]-1,3-dihydro-[1,3]thiazolo[3,4-a]benzimidazole;tripropylphosphane
> <PUBCHEM_IUPAC_TRADITIONAL_NAME>
dichloropalladium;1-(2,6-difluorophenyl)-1,3-dihydrothiazolo[3,4-a]benzimidazole;tripropylphosphine
> <PUBCHEM_IUPAC_INCHI>
InChI=1S/C15H10F2N2S.C9H21P.2ClH.Pd/c16-9-4-3-5-10(17)14(9)15-19-12-7-2-1-6-11(12)18-13(19)8-20-15;1-4-7-10(8-5-2)9-6-3;;;/h1-7,15H,8H2;4-9H2,1-3H3;2*1H;/q;;;;+2/p-2
> <PUBCHEM_IUPAC_INCHIKEY>
NAPHJZLHWXEOLA-UHFFFAOYSA-L
> <PUBCHEM_EXACT_MASS>
624.03255
> <PUBCHEM_MOLECULAR_FORMULA>
C24H31Cl2F2N2PPdS
> <PUBCHEM_MOLECULAR_WEIGHT>
625.9
> <PUBCHEM_OPENEYE_CAN_SMILES>
CCCP(CCC)CCC.C1C2=NC3=CC=CC=C3N2C(S1)C4=C(C=CC=C4F)F.Cl[Pd]Cl
> <PUBCHEM_OPENEYE_ISO_SMILES>
CCCP(CCC)CCC.C1C2=NC3=CC=CC=C3N2C(S1)C4=C(C=CC=C4F)F.Cl[Pd]Cl
> <PUBCHEM_CACTVS_TPSA>
43.1
> <PUBCHEM_MONOISOTOPIC_WEIGHT>
624.03255
> <PUBCHEM_TOTAL_CHARGE>
0
> <PUBCHEM_HEAVY_ATOM_COUNT>
33
> <PUBCHEM_ATOM_DEF_STEREO_COUNT>
0
> <PUBCHEM_ATOM_UDEF_STEREO_COUNT>
1
> <PUBCHEM_BOND_DEF_STEREO_COUNT>
0
> <PUBCHEM_BOND_UDEF_STEREO_COUNT>
0
> <PUBCHEM_ISOTOPIC_ATOM_COUNT>
0
> <PUBCHEM_COMPONENT_COUNT>
3
> <PUBCHEM_CACTVS_TAUTO_COUNT>
-1
> <PUBCHEM_COORDINATE_TYPE>
1
5
255
> <PUBCHEM_BONDANNOTATIONS>
10  14  3
12  15  8
12  19  8
14  24  8
14  25  8
15  23  8
19  26  8
23  27  8
24  31  8
25  32  8
26  27  8
31  33  8
32  33  8
8  11  8
8  12  8
9  11  8
9  15  8
$$$$
