500127
  -OEChem-10302200282D
 80 85  0     1  0  0  0  0  0999 V2000
    2.6963   -5.5191    0.0000 O   0  0  0  0  0  0  0  0  0  0  0  0
    2.9750   -3.7590    0.0000 N   0  0  0  0  0  0  0  0  0  0  0  0
    3.9635    4.7748    0.0000 N   0  0  0  0  0  0  0  0  0  0  0  0
    3.8001   -0.1297    0.0000 C   0  0  3  0  0  0  0  0  0  0  0  0
    2.9021    0.3981    0.0000 C   0  0  3  0  0  0  0  0  0  0  0  0
    2.8937    1.4830    0.0000 C   0  0  3  0  0  0  0  0  0  0  0  0
    3.8334    2.0255    0.0000 C   0  0  3  0  0  0  0  0  0  0  0  0
    3.7841   -1.1712    0.0000 C   0  0  3  0  0  0  0  0  0  0  0  0
    2.9180   -1.6712    0.0000 C   0  0  3  0  0  0  0  0  0  0  0  0
    3.6064    3.0799    0.0000 C   0  0  3  0  0  0  0  0  0  0  0  0
    4.7520    0.3909    0.0000 C   0  0  0  0  0  0  0  0  0  0  0  0
    4.7688    1.4758    0.0000 C   0  0  0  0  0  0  0  0  0  0  0  0
    2.0000   -0.1228    0.0000 C   0  0  0  0  0  0  0  0  0  0  0  0
    2.0941    2.2068    0.0000 C   0  0  0  0  0  0  0  0  0  0  0  0
    2.0080   -1.1644    0.0000 C   0  0  0  0  0  0  0  0  0  0  0  0
    4.6501   -1.6712    0.0000 C   0  0  0  0  0  0  0  0  0  0  0  0
    2.5336    3.1918    0.0000 C   0  0  0  0  0  0  0  0  0  0  0  0
    2.9180   -2.6712    0.0000 C   0  0  0  0  0  0  0  0  0  0  0  0
    3.7841   -3.1712    0.0000 C   0  0  3  0  0  0  0  0  0  0  0  0
    4.6501   -2.6712    0.0000 C   0  0  0  0  0  0  0  0  0  0  0  0
    4.6994    2.5255    0.0000 C   0  0  0  0  0  0  0  0  0  0  0  0
    4.6501   -0.6712    0.0000 C   0  0  0  0  0  0  0  0  0  0  0  0
    4.2742    3.8242    0.0000 C   0  0  3  0  0  0  0  0  0  0  0  0
    4.5931   -3.7590    0.0000 C   0  0  0  0  0  0  0  0  0  0  0  0
    5.2527    3.6180    0.0000 C   0  0  0  0  0  0  0  0  0  0  0  0
    4.2841   -4.7100    0.0000 C   0  0  0  0  0  0  0  0  0  0  0  0
    3.2841   -4.7100    0.0000 C   0  0  0  0  0  0  0  0  0  0  0  0
    2.0240   -3.4500    0.0000 C   0  0  0  0  0  0  0  0  0  0  0  0
    5.6085   -3.5267    0.0000 C   0  0  0  0  0  0  0  0  0  0  0  0
    4.6314    5.5191    0.0000 C   0  0  0  0  0  0  0  0  0  0  0  0
    2.9850    4.9810    0.0000 C   0  0  0  0  0  0  0  0  0  0  0  0
    4.9690   -5.4948    0.0000 C   0  0  0  0  0  0  0  0  0  0  0  0
    6.3114   -4.2954    0.0000 C   0  0  0  0  0  0  0  0  0  0  0  0
    5.9895   -5.2861    0.0000 C   0  0  0  0  0  0  0  0  0  0  0  0
    4.3310   -0.4500    0.0000 H   0  0  0  0  0  0  0  0  0  0  0  0
    2.3640    0.7060    0.0000 H   0  0  0  0  0  0  0  0  0  0  0  0
    2.3280    1.2294    0.0000 H   0  0  0  0  0  0  0  0  0  0  0  0
    2.3835   -1.9853    0.0000 H   0  0  0  0  0  0  0  0  0  0  0  0
    3.3834    3.6585    0.0000 H   0  0  0  0  0  0  0  0  0  0  0  0
    4.9521   -0.1959    0.0000 H   0  0  0  0  0  0  0  0  0  0  0  0
    5.3645    0.4876    0.0000 H   0  0  0  0  0  0  0  0  0  0  0  0
    5.3779    1.3603    0.0000 H   0  0  0  0  0  0  0  0  0  0  0  0
    4.9868    2.0562    0.0000 H   0  0  0  0  0  0  0  0  0  0  0  0
    1.7864    0.4593    0.0000 H   0  0  0  0  0  0  0  0  0  0  0  0
    1.3900   -0.2336    0.0000 H   0  0  0  0  0  0  0  0  0  0  0  0
    1.5576    2.5176    0.0000 H   0  0  0  0  0  0  0  0  0  0  0  0
    1.7286    1.7060    0.0000 H   0  0  0  0  0  0  0  0  0  0  0  0
    1.3964   -1.0630    0.0000 H   0  0  0  0  0  0  0  0  0  0  0  0
    1.8035   -1.7496    0.0000 H   0  0  0  0  0  0  0  0  0  0  0  0
    5.2607   -1.7789    0.0000 H   0  0  0  0  0  0  0  0  0  0  0  0
    4.8621   -1.0886    0.0000 H   0  0  0  0  0  0  0  0  0  0  0  0
    2.6623    3.7982    0.0000 H   0  0  0  0  0  0  0  0  0  0  0  0
    1.9440    3.3835    0.0000 H   0  0  0  0  0  0  0  0  0  0  0  0
    2.3074   -2.5635    0.0000 H   0  0  0  0  0  0  0  0  0  0  0  0
    2.7060   -3.2538    0.0000 H   0  0  0  0  0  0  0  0  0  0  0  0
    4.8621   -3.2538    0.0000 H   0  0  0  0  0  0  0  0  0  0  0  0
    5.2607   -2.5635    0.0000 H   0  0  0  0  0  0  0  0  0  0  0  0
    5.0094    1.9886    0.0000 H   0  0  0  0  0  0  0  0  0  0  0  0
    5.2363    2.8355    0.0000 H   0  0  0  0  0  0  0  0  0  0  0  0
    4.3894    3.0625    0.0000 H   0  0  0  0  0  0  0  0  0  0  0  0
    4.9601   -1.2081    0.0000 H   0  0  0  0  0  0  0  0  0  0  0  0
    5.1870   -0.3612    0.0000 H   0  0  0  0  0  0  0  0  0  0  0  0
    4.3401   -0.1343    0.0000 H   0  0  0  0  0  0  0  0  0  0  0  0
    4.6883    4.2857    0.0000 H   0  0  0  0  0  0  0  0  0  0  0  0
    5.1249    3.0114    0.0000 H   0  0  0  0  0  0  0  0  0  0  0  0
    5.8594    3.4902    0.0000 H   0  0  0  0  0  0  0  0  0  0  0  0
    5.3806    4.2247    0.0000 H   0  0  0  0  0  0  0  0  0  0  0  0
    2.2156   -2.8603    0.0000 H   0  0  0  0  0  0  0  0  0  0  0  0
    1.4343   -3.2584    0.0000 H   0  0  0  0  0  0  0  0  0  0  0  0
    1.8324   -4.0396    0.0000 H   0  0  0  0  0  0  0  0  0  0  0  0
    5.7932   -2.9349    0.0000 H   0  0  0  0  0  0  0  0  0  0  0  0
    5.0928    5.1050    0.0000 H   0  0  0  0  0  0  0  0  0  0  0  0
    5.0454    5.9805    0.0000 H   0  0  0  0  0  0  0  0  0  0  0  0
    4.1699    5.9331    0.0000 H   0  0  0  0  0  0  0  0  0  0  0  0
    3.1129    5.5876    0.0000 H   0  0  0  0  0  0  0  0  0  0  0  0
    2.3784    5.1088    0.0000 H   0  0  0  0  0  0  0  0  0  0  0  0
    2.8572    4.3743    0.0000 H   0  0  0  0  0  0  0  0  0  0  0  0
    4.7706   -6.0822    0.0000 H   0  0  0  0  0  0  0  0  0  0  0  0
    6.9174   -4.1642    0.0000 H   0  0  0  0  0  0  0  0  0  0  0  0
    6.4026   -5.7484    0.0000 H   0  0  0  0  0  0  0  0  0  0  0  0
  1 27  2  0  0  0  0
  2 19  1  0  0  0  0
  2 27  1  0  0  0  0
  2 28  1  0  0  0  0
  3 23  1  0  0  0  0
  3 30  1  0  0  0  0
  3 31  1  0  0  0  0
  4  5  1  0  0  0  0
  4  8  1  0  0  0  0
  4 11  1  0  0  0  0
  4 35  1  0  0  0  0
  5  6  1  0  0  0  0
  5 13  1  0  0  0  0
  5 36  1  0  0  0  0
  6  7  1  0  0  0  0
  6 14  1  0  0  0  0
  6 37  1  0  0  0  0
  7 10  1  0  0  0  0
  7 12  1  0  0  0  0
  7 21  1  0  0  0  0
  8  9  1  0  0  0  0
  8 16  1  0  0  0  0
  8 22  1  0  0  0  0
  9 15  1  0  0  0  0
  9 18  1  0  0  0  0
  9 38  1  0  0  0  0
 10 17  1  0  0  0  0
 10 23  1  0  0  0  0
 10 39  1  0  0  0  0
 11 12  1  0  0  0  0
 11 40  1  0  0  0  0
 11 41  1  0  0  0  0
 12 42  1  0  0  0  0
 12 43  1  0  0  0  0
 13 15  1  0  0  0  0
 13 44  1  0  0  0  0
 13 45  1  0  0  0  0
 14 17  1  0  0  0  0
 14 46  1  0  0  0  0
 14 47  1  0  0  0  0
 15 48  1  0  0  0  0
 15 49  1  0  0  0  0
 16 20  1  0  0  0  0
 16 50  1  0  0  0  0
 16 51  1  0  0  0  0
 17 52  1  0  0  0  0
 17 53  1  0  0  0  0
 18 19  1  0  0  0  0
 18 54  1  0  0  0  0
 18 55  1  0  0  0  0
 19 20  1  0  0  0  0
 19 24  1  0  0  0  0
 20 56  1  0  0  0  0
 20 57  1  0  0  0  0
 21 58  1  0  0  0  0
 21 59  1  0  0  0  0
 21 60  1  0  0  0  0
 22 61  1  0  0  0  0
 22 62  1  0  0  0  0
 22 63  1  0  0  0  0
 23 25  1  0  0  0  0
 23 64  1  0  0  0  0
 24 26  1  0  0  0  0
 24 29  2  0  0  0  0
 25 65  1  0  0  0  0
 25 66  1  0  0  0  0
 25 67  1  0  0  0  0
 26 27  1  0  0  0  0
 26 32  2  0  0  0  0
 28 68  1  0  0  0  0
 28 69  1  0  0  0  0
 28 70  1  0  0  0  0
 29 33  1  0  0  0  0
 29 71  1  0  0  0  0
 30 72  1  0  0  0  0
 30 73  1  0  0  0  0
 30 74  1  0  0  0  0
 31 75  1  0  0  0  0
 31 76  1  0  0  0  0
 31 77  1  0  0  0  0
 32 34  1  0  0  0  0
 32 78  1  0  0  0  0
 33 34  2  0  0  0  0
 33 79  1  0  0  0  0
 34 80  1  0  0  0  0
M  END
> <PUBCHEM_COMPOUND_CID>
500127
> <PUBCHEM_COMPOUND_CANONICALIZED>
1
> <PUBCHEM_CACTVS_COMPLEXITY>
824
> <PUBCHEM_CACTVS_HBOND_ACCEPTOR>
2
> <PUBCHEM_CACTVS_HBOND_DONOR>
0
> <PUBCHEM_CACTVS_ROTATABLE_BOND>
2
> <PUBCHEM_CACTVS_SUBSKEYS>
AAADcfB7IAAAAAAAAAAAAAAAAAAAAeIAAAAwYMGAAAAAAHjBAAAAHgAAAAAAD6jBmAQyAIMAAACIAiFSEACCAAAkAAAIiAEIBMgIIDKAlRGEIQhghgCIiYcciMCPgAAAAAAQAACQAASAACAAAQAACAAAAA==
> <PUBCHEM_IUPAC_OPENEYE_NAME>
17-[1-(dimethylamino)ethyl]-2',10,13-trimethyl-spiro[1,2,4,5,6,7,8,9,11,12,14,15,16,17-tetradecahydrocyclopenta[a]phenanthrene-3,3'-isoindoline]-1'-one
> <PUBCHEM_IUPAC_CAS_NAME>
17-[1-(dimethylamino)ethyl]-2',10,13-trimethyl-1'-spiro[1,2,4,5,6,7,8,9,11,12,14,15,16,17-tetradecahydrocyclopenta[a]phenanthrene-3,3'-isoindole]one
> <PUBCHEM_IUPAC_NAME_MARKUP>
17-[1-(dimethylamino)ethyl]-2&apos;,10,13-trimethylspiro[1,2,4,5,6,7,8,9,11,12,14,15,16,17-tetradecahydrocyclopenta[a]phenanthrene-3,3&apos;-isoindole]-1&apos;-one
> <PUBCHEM_IUPAC_NAME>
17-[1-(dimethylamino)ethyl]-2',10,13-trimethylspiro[1,2,4,5,6,7,8,9,11,12,14,15,16,17-tetradecahydrocyclopenta[a]phenanthrene-3,3'-isoindole]-1'-one
> <PUBCHEM_IUPAC_SYSTEMATIC_NAME>
17-[1-(dimethylamino)ethyl]-2',10,13-trimethyl-spiro[1,2,4,5,6,7,8,9,11,12,14,15,16,17-tetradecahydrocyclopenta[a]phenanthrene-3,3'-isoindole]-1'-one
> <PUBCHEM_IUPAC_TRADITIONAL_NAME>
17-[1-(dimethylamino)ethyl]-2',10,13-trimethyl-spiro[1,2,4,5,6,7,8,9,11,12,14,15,16,17-tetradecahydrocyclopenta[a]phenanthrene-3,3'-isoindoline]-1'-one
> <PUBCHEM_IUPAC_INCHI>
InChI=1S/C31H46N2O/c1-20(32(4)5)24-13-14-25-22-12-11-21-19-31(27-10-8-7-9-23(27)28(34)33(31)6)18-17-29(21,2)26(22)15-16-30(24,25)3/h7-10,20-22,24-26H,11-19H2,1-6H3
> <PUBCHEM_IUPAC_INCHIKEY>
SLGWGPQWJRVPAD-UHFFFAOYSA-N
> <PUBCHEM_XLOGP3_AA>
7.1
> <PUBCHEM_EXACT_MASS>
462.361014095
> <PUBCHEM_MOLECULAR_FORMULA>
C31H46N2O
> <PUBCHEM_MOLECULAR_WEIGHT>
462.7
> <PUBCHEM_OPENEYE_CAN_SMILES>
CC(C1CCC2C1(CCC3C2CCC4C3(CCC5(C4)C6=CC=CC=C6C(=O)N5C)C)C)N(C)C
> <PUBCHEM_OPENEYE_ISO_SMILES>
CC(C1CCC2C1(CCC3C2CCC4C3(CCC5(C4)C6=CC=CC=C6C(=O)N5C)C)C)N(C)C
> <PUBCHEM_CACTVS_TPSA>
23.6
> <PUBCHEM_MONOISOTOPIC_WEIGHT>
462.361014095
> <PUBCHEM_TOTAL_CHARGE>
0
> <PUBCHEM_HEAVY_ATOM_COUNT>
34
> <PUBCHEM_ATOM_DEF_STEREO_COUNT>
0
> <PUBCHEM_ATOM_UDEF_STEREO_COUNT>
9
> <PUBCHEM_BOND_DEF_STEREO_COUNT>
0
> <PUBCHEM_BOND_UDEF_STEREO_COUNT>
0
> <PUBCHEM_ISOTOPIC_ATOM_COUNT>
0
> <PUBCHEM_COMPONENT_COUNT>
1
> <PUBCHEM_CACTVS_TAUTO_COUNT>
-1
> <PUBCHEM_COORDINATE_TYPE>
1
5
255
> <PUBCHEM_BONDANNOTATIONS>
10  17  3
19  20  3
23  25  3
24  26  8
24  29  8
26  32  8
29  33  8
32  34  8
33  34  8
4  11  3
5  13  3
6  14  3
7  21  3
8  22  3
9  15  3
$$$$
