500189
  -OEChem-10302200282D
 42 44  0     1  0  0  0  0  0999 V2000
    6.2177    2.7756    0.0000 O   0  0  0  0  0  0  0  0  0  0  0  0
    4.4964    3.2368    0.0000 O   0  0  0  0  0  0  0  0  0  0  0  0
    9.6449    0.9085    0.0000 O   0  0  0  0  0  0  0  0  0  0  0  0
    2.5369   -1.9268    0.0000 O   0  0  0  0  0  0  0  0  0  0  0  0
   10.0607   -1.0478    0.0000 O   0  0  0  0  0  0  0  0  0  0  0  0
    4.2690   -2.9268    0.0000 O   0  0  0  0  0  0  0  0  0  0  0  0
    6.0486    1.1664    0.0000 C   0  0  3  0  0  0  0  0  0  0  0  0
    5.1350    1.5732    0.0000 C   0  0  3  0  0  0  0  0  0  0  0  0
    6.7177    1.9096    0.0000 C   0  0  0  0  0  0  0  0  0  0  0  0
    6.2565    0.1883    0.0000 C   0  0  0  0  0  0  0  0  0  0  0  0
    4.2690    1.0732    0.0000 C   0  0  0  0  0  0  0  0  0  0  0  0
    5.2395    2.5677    0.0000 C   0  0  0  0  0  0  0  0  0  0  0  0
    7.2075   -0.1207    0.0000 C   0  0  0  0  0  0  0  0  0  0  0  0
    4.2690    0.0732    0.0000 C   0  0  0  0  0  0  0  0  0  0  0  0
    7.9507    0.5484    0.0000 C   0  0  0  0  0  0  0  0  0  0  0  0
    7.4154   -1.0989    0.0000 C   0  0  0  0  0  0  0  0  0  0  0  0
    3.4030   -0.4268    0.0000 C   0  0  0  0  0  0  0  0  0  0  0  0
    5.1350   -0.4268    0.0000 C   0  0  0  0  0  0  0  0  0  0  0  0
    8.9017    0.2394    0.0000 C   0  0  0  0  0  0  0  0  0  0  0  0
    8.3665   -1.4079    0.0000 C   0  0  0  0  0  0  0  0  0  0  0  0
    3.4030   -1.4268    0.0000 C   0  0  0  0  0  0  0  0  0  0  0  0
    5.1350   -1.4268    0.0000 C   0  0  0  0  0  0  0  0  0  0  0  0
    9.1096   -0.7388    0.0000 C   0  0  0  0  0  0  0  0  0  0  0  0
    4.2690   -1.9268    0.0000 C   0  0  0  0  0  0  0  0  0  0  0  0
    5.5667    0.7763    0.0000 H   0  0  0  0  0  0  0  0  0  0  0  0
    4.6150    1.9108    0.0000 H   0  0  0  0  0  0  0  0  0  0  0  0
    7.1326    1.4488    0.0000 H   0  0  0  0  0  0  0  0  0  0  0  0
    7.2193    2.2740    0.0000 H   0  0  0  0  0  0  0  0  0  0  0  0
    5.6368    0.1667    0.0000 H   0  0  0  0  0  0  0  0  0  0  0  0
    6.1702   -0.4257    0.0000 H   0  0  0  0  0  0  0  0  0  0  0  0
    4.0569    1.6558    0.0000 H   0  0  0  0  0  0  0  0  0  0  0  0
    3.6584    0.9655    0.0000 H   0  0  0  0  0  0  0  0  0  0  0  0
    7.8218    1.1548    0.0000 H   0  0  0  0  0  0  0  0  0  0  0  0
    6.9547   -1.5137    0.0000 H   0  0  0  0  0  0  0  0  0  0  0  0
    2.8660   -0.1168    0.0000 H   0  0  0  0  0  0  0  0  0  0  0  0
    5.6720   -0.1168    0.0000 H   0  0  0  0  0  0  0  0  0  0  0  0
    8.4954   -2.0143    0.0000 H   0  0  0  0  0  0  0  0  0  0  0  0
    5.6720   -1.7368    0.0000 H   0  0  0  0  0  0  0  0  0  0  0  0
   10.2345    0.7169    0.0000 H   0  0  0  0  0  0  0  0  0  0  0  0
    2.0000   -1.6168    0.0000 H   0  0  0  0  0  0  0  0  0  0  0  0
   10.1896   -1.6542    0.0000 H   0  0  0  0  0  0  0  0  0  0  0  0
    4.8059   -3.2368    0.0000 H   0  0  0  0  0  0  0  0  0  0  0  0
  1  9  1  0  0  0  0
  1 12  1  0  0  0  0
  2 12  2  0  0  0  0
  3 19  1  0  0  0  0
  3 39  1  0  0  0  0
  4 21  1  0  0  0  0
  4 40  1  0  0  0  0
  5 23  1  0  0  0  0
  5 41  1  0  0  0  0
  6 24  1  0  0  0  0
  6 42  1  0  0  0  0
  7  8  1  0  0  0  0
  7  9  1  0  0  0  0
  7 10  1  0  0  0  0
  7 25  1  0  0  0  0
  8 11  1  0  0  0  0
  8 12  1  0  0  0  0
  8 26  1  0  0  0  0
  9 27  1  0  0  0  0
  9 28  1  0  0  0  0
 10 13  1  0  0  0  0
 10 29  1  0  0  0  0
 10 30  1  0  0  0  0
 11 14  1  0  0  0  0
 11 31  1  0  0  0  0
 11 32  1  0  0  0  0
 13 15  2  0  0  0  0
 13 16  1  0  0  0  0
 14 17  2  0  0  0  0
 14 18  1  0  0  0  0
 15 19  1  0  0  0  0
 15 33  1  0  0  0  0
 16 20  2  0  0  0  0
 16 34  1  0  0  0  0
 17 21  1  0  0  0  0
 17 35  1  0  0  0  0
 18 22  2  0  0  0  0
 18 36  1  0  0  0  0
 19 23  2  0  0  0  0
 20 23  1  0  0  0  0
 20 37  1  0  0  0  0
 21 24  2  0  0  0  0
 22 24  1  0  0  0  0
 22 38  1  0  0  0  0
M  END
> <PUBCHEM_COMPOUND_CID>
500189
> <PUBCHEM_COMPOUND_CANONICALIZED>
1
> <PUBCHEM_CACTVS_COMPLEXITY>
441
> <PUBCHEM_CACTVS_HBOND_ACCEPTOR>
6
> <PUBCHEM_CACTVS_HBOND_DONOR>
4
> <PUBCHEM_CACTVS_ROTATABLE_BOND>
4
> <PUBCHEM_CACTVS_SUBSKEYS>
AAADceB4OAAAAAAAAAAAAAAAAAAAASAAAAAwYAAAAAAAAAABQAAAGgAACAAADQSgmAIwDoAABgCIAiDSCAACAAAgIAAIiAEGiIgJJjKCERKCcAEkwBEJmAeKyPCOoAABAAAAQABAAAIAAACAAAAAAAAAAA==
> <PUBCHEM_IUPAC_OPENEYE_NAME>
3,4-bis[(3,4-dihydroxyphenyl)methyl]tetrahydrofuran-2-one
> <PUBCHEM_IUPAC_CAS_NAME>
3,4-bis[(3,4-dihydroxyphenyl)methyl]-2-oxolanone
> <PUBCHEM_IUPAC_NAME_MARKUP>
3,4-bis[(3,4-dihydroxyphenyl)methyl]oxolan-2-one
> <PUBCHEM_IUPAC_NAME>
3,4-bis[(3,4-dihydroxyphenyl)methyl]oxolan-2-one
> <PUBCHEM_IUPAC_SYSTEMATIC_NAME>
3,4-bis[[3,4-bis(oxidanyl)phenyl]methyl]oxolan-2-one
> <PUBCHEM_IUPAC_TRADITIONAL_NAME>
3,4-diprotocatechuyltetrahydrofuran-2-one
> <PUBCHEM_IUPAC_INCHI>
InChI=1S/C18H18O6/c19-14-3-1-10(7-16(14)21)5-12-9-24-18(23)13(12)6-11-2-4-15(20)17(22)8-11/h1-4,7-8,12-13,19-22H,5-6,9H2
> <PUBCHEM_IUPAC_INCHIKEY>
NXJDDTDNGCHIGR-UHFFFAOYSA-N
> <PUBCHEM_XLOGP3_AA>
2.6
> <PUBCHEM_EXACT_MASS>
330.11033829
> <PUBCHEM_MOLECULAR_FORMULA>
C18H18O6
> <PUBCHEM_MOLECULAR_WEIGHT>
330.3
> <PUBCHEM_OPENEYE_CAN_SMILES>
C1C(C(C(=O)O1)CC2=CC(=C(C=C2)O)O)CC3=CC(=C(C=C3)O)O
> <PUBCHEM_OPENEYE_ISO_SMILES>
C1C(C(C(=O)O1)CC2=CC(=C(C=C2)O)O)CC3=CC(=C(C=C3)O)O
> <PUBCHEM_CACTVS_TPSA>
107
> <PUBCHEM_MONOISOTOPIC_WEIGHT>
330.11033829
> <PUBCHEM_TOTAL_CHARGE>
0
> <PUBCHEM_HEAVY_ATOM_COUNT>
24
> <PUBCHEM_ATOM_DEF_STEREO_COUNT>
0
> <PUBCHEM_ATOM_UDEF_STEREO_COUNT>
2
> <PUBCHEM_BOND_DEF_STEREO_COUNT>
0
> <PUBCHEM_BOND_UDEF_STEREO_COUNT>
0
> <PUBCHEM_ISOTOPIC_ATOM_COUNT>
0
> <PUBCHEM_COMPONENT_COUNT>
1
> <PUBCHEM_CACTVS_TAUTO_COUNT>
-1
> <PUBCHEM_COORDINATE_TYPE>
1
5
255
> <PUBCHEM_BONDANNOTATIONS>
13  15  8
13  16  8
14  17  8
14  18  8
15  19  8
16  20  8
17  21  8
18  22  8
19  23  8
20  23  8
21  24  8
22  24  8
7  10  3
8  11  3
$$$$
