500137
  -OEChem-10302200282D
 64 68  0     1  0  0  0  0  0999 V2000
   11.3336    1.1993    0.0000 S   0  0  0  0  0  0  0  0  0  0  0  0
    3.7320   -3.4157    0.0000 O   0  0  0  0  0  0  0  0  0  0  0  0
    2.8718   -1.9124    0.0000 O   0  0  0  0  0  0  0  0  0  0  0  0
    9.7956    1.7019    0.0000 N   0  0  0  0  0  0  0  0  0  0  0  0
    9.1251   -0.3634    0.0000 C   0  0  3  0  0  0  0  0  0  0  0  0
    9.1251   -1.3634    0.0000 C   0  0  3  0  0  0  0  0  0  0  0  0
    8.2591   -1.8634    0.0000 C   0  0  3  0  0  0  0  0  0  0  0  0
    7.3931   -1.3634    0.0000 C   0  0  3  0  0  0  0  0  0  0  0  0
    6.4831   -1.8702    0.0000 C   0  0  3  0  0  0  0  0  0  0  0  0
   10.0713   -0.0586    0.0000 C   0  0  3  0  0  0  0  0  0  0  0  0
    8.2591    0.1366    0.0000 C   0  0  0  0  0  0  0  0  0  0  0  0
    7.3931   -0.3634    0.0000 C   0  0  0  0  0  0  0  0  0  0  0  0
   10.0713   -1.6681    0.0000 C   0  0  0  0  0  0  0  0  0  0  0  0
   10.6550   -0.8634    0.0000 C   0  0  0  0  0  0  0  0  0  0  0  0
    8.2752   -2.9049    0.0000 C   0  0  0  0  0  0  0  0  0  0  0  0
    6.4750   -2.9118    0.0000 C   0  0  0  0  0  0  0  0  0  0  0  0
    9.1251    0.6366    0.0000 C   0  0  0  0  0  0  0  0  0  0  0  0
    5.5562   -1.3061    0.0000 C   0  0  0  0  0  0  0  0  0  0  0  0
    7.3771   -3.4326    0.0000 C   0  0  0  0  0  0  0  0  0  0  0  0
    6.4908   -0.8702    0.0000 C   0  0  0  0  0  0  0  0  0  0  0  0
    5.5396   -3.4615    0.0000 C   0  0  0  0  0  0  0  0  0  0  0  0
   10.3820    0.8919    0.0000 C   0  0  0  0  0  0  0  0  0  0  0  0
    4.6084   -1.8341    0.0000 C   0  0  0  0  0  0  0  0  0  0  0  0
    4.6000   -2.9190    0.0000 C   0  0  3  0  0  0  0  0  0  0  0  0
   10.3848    2.5099    0.0000 C   0  0  0  0  0  0  0  0  0  0  0  0
   11.3353    2.1993    0.0000 C   0  0  0  0  0  0  0  0  0  0  0  0
    2.8680   -2.9124    0.0000 C   0  0  0  0  0  0  0  0  0  0  0  0
   10.0774    3.4615    0.0000 C   0  0  0  0  0  0  0  0  0  0  0  0
    2.0000   -3.4090    0.0000 C   0  0  0  0  0  0  0  0  0  0  0  0
    9.1907   -1.9799    0.0000 H   0  0  0  0  0  0  0  0  0  0  0  0
    8.7984   -2.1692    0.0000 H   0  0  0  0  0  0  0  0  0  0  0  0
    7.9300   -1.0534    0.0000 H   0  0  0  0  0  0  0  0  0  0  0  0
   10.6838    0.0376    0.0000 H   0  0  0  0  0  0  0  0  0  0  0  0
    8.6576    0.6116    0.0000 H   0  0  0  0  0  0  0  0  0  0  0  0
    7.8606    0.6116    0.0000 H   0  0  0  0  0  0  0  0  0  0  0  0
    7.1810    0.2193    0.0000 H   0  0  0  0  0  0  0  0  0  0  0  0
    6.7825   -0.4710    0.0000 H   0  0  0  0  0  0  0  0  0  0  0  0
    9.8203   -2.2350    0.0000 H   0  0  0  0  0  0  0  0  0  0  0  0
   10.6087   -1.9773    0.0000 H   0  0  0  0  0  0  0  0  0  0  0  0
   11.1158   -1.2781    0.0000 H   0  0  0  0  0  0  0  0  0  0  0  0
   11.1158   -0.4486    0.0000 H   0  0  0  0  0  0  0  0  0  0  0  0
    8.4932   -3.4853    0.0000 H   0  0  0  0  0  0  0  0  0  0  0  0
    8.8843   -2.7894    0.0000 H   0  0  0  0  0  0  0  0  0  0  0  0
    9.7451    0.6366    0.0000 H   0  0  0  0  0  0  0  0  0  0  0  0
    9.1251    1.2566    0.0000 H   0  0  0  0  0  0  0  0  0  0  0  0
    8.5051    0.6366    0.0000 H   0  0  0  0  0  0  0  0  0  0  0  0
    5.9644   -0.8395    0.0000 H   0  0  0  0  0  0  0  0  0  0  0  0
    5.1663   -0.8241    0.0000 H   0  0  0  0  0  0  0  0  0  0  0  0
    7.3795   -4.0526    0.0000 H   0  0  0  0  0  0  0  0  0  0  0  0
    7.1108   -0.8750    0.0000 H   0  0  0  0  0  0  0  0  0  0  0  0
    6.4956   -0.2502    0.0000 H   0  0  0  0  0  0  0  0  0  0  0  0
    5.8708   -0.8654    0.0000 H   0  0  0  0  0  0  0  0  0  0  0  0
    5.1423   -3.9375    0.0000 H   0  0  0  0  0  0  0  0  0  0  0  0
    5.9406   -3.9344    0.0000 H   0  0  0  0  0  0  0  0  0  0  0  0
    4.4038   -1.2488    0.0000 H   0  0  0  0  0  0  0  0  0  0  0  0
    3.9967   -1.9354    0.0000 H   0  0  0  0  0  0  0  0  0  0  0  0
    4.0648   -2.6059    0.0000 H   0  0  0  0  0  0  0  0  0  0  0  0
   11.8375    2.5628    0.0000 H   0  0  0  0  0  0  0  0  0  0  0  0
   10.6674    3.6521    0.0000 H   0  0  0  0  0  0  0  0  0  0  0  0
    9.8869    4.0515    0.0000 H   0  0  0  0  0  0  0  0  0  0  0  0
    9.4875    3.2710    0.0000 H   0  0  0  0  0  0  0  0  0  0  0  0
    1.6921   -2.8709    0.0000 H   0  0  0  0  0  0  0  0  0  0  0  0
    1.4619   -3.7169    0.0000 H   0  0  0  0  0  0  0  0  0  0  0  0
    2.3079   -3.9471    0.0000 H   0  0  0  0  0  0  0  0  0  0  0  0
  1 22  1  0  0  0  0
  1 26  1  0  0  0  0
  2 24  1  0  0  0  0
  2 27  1  0  0  0  0
  3 27  2  0  0  0  0
  4 22  2  0  0  0  0
  4 25  1  0  0  0  0
  5  6  1  0  0  0  0
  5 10  1  0  0  0  0
  5 11  1  0  0  0  0
  5 17  1  0  0  0  0
  6  7  1  0  0  0  0
  6 13  1  0  0  0  0
  6 30  1  0  0  0  0
  7  8  1  0  0  0  0
  7 15  1  0  0  0  0
  7 31  1  0  0  0  0
  8  9  1  0  0  0  0
  8 12  1  0  0  0  0
  8 32  1  0  0  0  0
  9 16  1  0  0  0  0
  9 18  1  0  0  0  0
  9 20  1  0  0  0  0
 10 14  1  0  0  0  0
 10 22  1  0  0  0  0
 10 33  1  0  0  0  0
 11 12  1  0  0  0  0
 11 34  1  0  0  0  0
 11 35  1  0  0  0  0
 12 36  1  0  0  0  0
 12 37  1  0  0  0  0
 13 14  1  0  0  0  0
 13 38  1  0  0  0  0
 13 39  1  0  0  0  0
 14 40  1  0  0  0  0
 14 41  1  0  0  0  0
 15 19  1  0  0  0  0
 15 42  1  0  0  0  0
 15 43  1  0  0  0  0
 16 19  2  0  0  0  0
 16 21  1  0  0  0  0
 17 44  1  0  0  0  0
 17 45  1  0  0  0  0
 17 46  1  0  0  0  0
 18 23  1  0  0  0  0
 18 47  1  0  0  0  0
 18 48  1  0  0  0  0
 19 49  1  0  0  0  0
 20 50  1  0  0  0  0
 20 51  1  0  0  0  0
 20 52  1  0  0  0  0
 21 24  1  0  0  0  0
 21 53  1  0  0  0  0
 21 54  1  0  0  0  0
 23 24  1  0  0  0  0
 23 55  1  0  0  0  0
 23 56  1  0  0  0  0
 24 57  1  0  0  0  0
 25 26  2  0  0  0  0
 25 28  1  0  0  0  0
 26 58  1  0  0  0  0
 27 29  1  0  0  0  0
 28 59  1  0  0  0  0
 28 60  1  0  0  0  0
 28 61  1  0  0  0  0
 29 62  1  0  0  0  0
 29 63  1  0  0  0  0
 29 64  1  0  0  0  0
M  END
> <PUBCHEM_COMPOUND_CID>
500137
> <PUBCHEM_COMPOUND_CANONICALIZED>
1
> <PUBCHEM_CACTVS_COMPLEXITY>
707
> <PUBCHEM_CACTVS_HBOND_ACCEPTOR>
4
> <PUBCHEM_CACTVS_HBOND_DONOR>
0
> <PUBCHEM_CACTVS_ROTATABLE_BOND>
3
> <PUBCHEM_CACTVS_SUBSKEYS>
AAADcfB6MABAAAAAAAAAAAAAAAAAAeIAAAAwYIAAAAAAAGCBgAAAHgQAAAAADxyl1gKiiRIIFAisAyTyTAAA8KBhCjgACBQwIAgAAAIggQAGAAAEwACoAAOQwPAPgAAAAAAAAADAAAQAACAAAQAACAAAAA==
> <PUBCHEM_IUPAC_OPENEYE_NAME>
[10,13-dimethyl-17-(4-methylthiazol-2-yl)-2,3,4,7,8,9,11,12,14,15,16,17-dodecahydro-1H-cyclopenta[a]phenanthren-3-yl] acetate
> <PUBCHEM_IUPAC_CAS_NAME>
acetic acid [10,13-dimethyl-17-(4-methyl-2-thiazolyl)-2,3,4,7,8,9,11,12,14,15,16,17-dodecahydro-1H-cyclopenta[a]phenanthren-3-yl] ester
> <PUBCHEM_IUPAC_NAME_MARKUP>
[10,13-dimethyl-17-(4-methyl-1,3-thiazol-2-yl)-2,3,4,7,8,9,11,12,14,15,16,17-dodecahydro-1<I>H</I>-cyclopenta[a]phenanthren-3-yl] acetate
> <PUBCHEM_IUPAC_NAME>
[10,13-dimethyl-17-(4-methyl-1,3-thiazol-2-yl)-2,3,4,7,8,9,11,12,14,15,16,17-dodecahydro-1H-cyclopenta[a]phenanthren-3-yl] acetate
> <PUBCHEM_IUPAC_SYSTEMATIC_NAME>
[10,13-dimethyl-17-(4-methyl-1,3-thiazol-2-yl)-2,3,4,7,8,9,11,12,14,15,16,17-dodecahydro-1H-cyclopenta[a]phenanthren-3-yl] ethanoate
> <PUBCHEM_IUPAC_TRADITIONAL_NAME>
acetic acid [10,13-dimethyl-17-(4-methylthiazol-2-yl)-2,3,4,7,8,9,11,12,14,15,16,17-dodecahydro-1H-cyclopenta[a]phenanthren-3-yl] ester
> <PUBCHEM_IUPAC_INCHI>
InChI=1S/C25H35NO2S/c1-15-14-29-23(26-15)22-8-7-20-19-6-5-17-13-18(28-16(2)27)9-11-24(17,3)21(19)10-12-25(20,22)4/h5,14,18-22H,6-13H2,1-4H3
> <PUBCHEM_IUPAC_INCHIKEY>
XSBSSRYHENJDMO-UHFFFAOYSA-N
> <PUBCHEM_XLOGP3_AA>
6.1
> <PUBCHEM_EXACT_MASS>
413.23885053
> <PUBCHEM_MOLECULAR_FORMULA>
C25H35NO2S
> <PUBCHEM_MOLECULAR_WEIGHT>
413.6
> <PUBCHEM_OPENEYE_CAN_SMILES>
CC1=CSC(=N1)C2CCC3C2(CCC4C3CC=C5C4(CCC(C5)OC(=O)C)C)C
> <PUBCHEM_OPENEYE_ISO_SMILES>
CC1=CSC(=N1)C2CCC3C2(CCC4C3CC=C5C4(CCC(C5)OC(=O)C)C)C
> <PUBCHEM_CACTVS_TPSA>
67.4
> <PUBCHEM_MONOISOTOPIC_WEIGHT>
413.23885053
> <PUBCHEM_TOTAL_CHARGE>
0
> <PUBCHEM_HEAVY_ATOM_COUNT>
29
> <PUBCHEM_ATOM_DEF_STEREO_COUNT>
0
> <PUBCHEM_ATOM_UDEF_STEREO_COUNT>
7
> <PUBCHEM_BOND_DEF_STEREO_COUNT>
0
> <PUBCHEM_BOND_UDEF_STEREO_COUNT>
0
> <PUBCHEM_ISOTOPIC_ATOM_COUNT>
0
> <PUBCHEM_COMPONENT_COUNT>
1
> <PUBCHEM_CACTVS_TAUTO_COUNT>
-1
> <PUBCHEM_COORDINATE_TYPE>
1
5
255
> <PUBCHEM_BONDANNOTATIONS>
1  22  8
1  26  8
10  22  3
24  2  3
25  26  8
4  22  8
4  25  8
5  17  3
6  13  3
7  15  3
8  12  3
9  20  3
$$$$
