500108
  -OEChem-10302200282D
 25 26  0     1  0  0  0  0  0999 V2000
    5.0730    1.4210    0.0000 O   0  0  0  0  0  0  0  0  0  0  0  0
    3.6313    1.4848    0.0000 O   0  0  0  0  0  0  0  0  0  0  0  0
    4.1906   -0.1136    0.0000 C   0  0  3  0  0  0  0  0  0  0  0  0
    4.1906   -1.1136    0.0000 C   0  0  3  0  0  0  0  0  0  0  0  0
    5.0846    0.4210    0.0000 C   0  0  3  0  0  0  0  0  0  0  0  0
    5.0846   -1.6483    0.0000 C   0  0  0  0  0  0  0  0  0  0  0  0
    3.4088    0.5098    0.0000 C   0  0  0  0  0  0  0  0  0  0  0  0
    5.9906   -0.0928    0.0000 C   0  0  0  0  0  0  0  0  0  0  0  0
    3.4088   -1.7371    0.0000 C   0  0  0  0  0  0  0  0  0  0  0  0
    5.9906   -1.1345    0.0000 C   0  0  0  0  0  0  0  0  0  0  0  0
    2.4339    0.2873    0.0000 C   0  0  0  0  0  0  0  0  0  0  0  0
    2.4339   -1.5146    0.0000 C   0  0  0  0  0  0  0  0  0  0  0  0
    2.0000   -0.6136    0.0000 C   0  0  0  0  0  0  0  0  0  0  0  0
    4.2322    0.5050    0.0000 H   0  0  0  0  0  0  0  0  0  0  0  0
    4.2322   -1.7322    0.0000 H   0  0  0  0  0  0  0  0  0  0  0  0
    5.6185    0.7362    0.0000 H   0  0  0  0  0  0  0  0  0  0  0  0
    4.6800   -2.1181    0.0000 H   0  0  0  0  0  0  0  0  0  0  0  0
    5.4782   -2.1273    0.0000 H   0  0  0  0  0  0  0  0  0  0  0  0
    6.5264    0.2192    0.0000 H   0  0  0  0  0  0  0  0  0  0  0  0
    3.5468   -2.3416    0.0000 H   0  0  0  0  0  0  0  0  0  0  0  0
    6.5264   -1.4465    0.0000 H   0  0  0  0  0  0  0  0  0  0  0  0
    2.0473    0.7721    0.0000 H   0  0  0  0  0  0  0  0  0  0  0  0
    2.0473   -1.9994    0.0000 H   0  0  0  0  0  0  0  0  0  0  0  0
    5.6063    1.7371    0.0000 H   0  0  0  0  0  0  0  0  0  0  0  0
    1.3800   -0.6136    0.0000 H   0  0  0  0  0  0  0  0  0  0  0  0
  1  5  1  0  0  0  0
  1 24  1  0  0  0  0
  2  7  2  0  0  0  0
  3  4  1  0  0  0  0
  3  5  1  0  0  0  0
  3  7  1  0  0  0  0
  3 14  1  0  0  0  0
  4  6  1  0  0  0  0
  4  9  1  0  0  0  0
  4 15  1  0  0  0  0
  5  8  1  0  0  0  0
  5 16  1  0  0  0  0
  6 10  1  0  0  0  0
  6 17  1  0  0  0  0
  6 18  1  0  0  0  0
  7 11  1  0  0  0  0
  8 10  2  0  0  0  0
  8 19  1  0  0  0  0
  9 12  2  0  0  0  0
  9 20  1  0  0  0  0
 10 21  1  0  0  0  0
 11 13  2  0  0  0  0
 11 22  1  0  0  0  0
 12 13  1  0  0  0  0
 12 23  1  0  0  0  0
 13 25  1  0  0  0  0
M  END
> <PUBCHEM_COMPOUND_CID>
500108
> <PUBCHEM_COMPOUND_CANONICALIZED>
1
> <PUBCHEM_CACTVS_COMPLEXITY>
299
> <PUBCHEM_CACTVS_HBOND_ACCEPTOR>
2
> <PUBCHEM_CACTVS_HBOND_DONOR>
1
> <PUBCHEM_CACTVS_ROTATABLE_BOND>
0
> <PUBCHEM_CACTVS_SUBSKEYS>
AAADccBwMAAAAAAAAAAAAAAAAAAAAAAAAAAgAAAABAAAAAAAAAAAGgAACAAADRSggAIAAAAAAgCIAKBSAAAAAAAgAAAICAEAAEgIFBYAAQAAUAAEoAAIkYOIAAAOgAAAAAAAAAAAAAAAAAAAAAAAAAAAAA==
> <PUBCHEM_IUPAC_OPENEYE_NAME>
4-hydroxy-1,4,4a,9a-tetrahydrobenzo[7]annulen-5-one
> <PUBCHEM_IUPAC_CAS_NAME>
4-hydroxy-1,4,4a,9a-tetrahydrobenzo[7]annulen-5-one
> <PUBCHEM_IUPAC_NAME_MARKUP>
4-hydroxy-1,4,4<I>a</I>,9<I>a</I>-tetrahydrobenzo[7]annulen-5-one
> <PUBCHEM_IUPAC_NAME>
4-hydroxy-1,4,4a,9a-tetrahydrobenzo[7]annulen-5-one
> <PUBCHEM_IUPAC_SYSTEMATIC_NAME>
4-oxidanyl-1,4,4a,9a-tetrahydrobenzo[7]annulen-5-one
> <PUBCHEM_IUPAC_TRADITIONAL_NAME>
4-hydroxy-1,4,4a,9a-tetrahydrobenzocyclohepten-5-one
> <PUBCHEM_IUPAC_INCHI>
InChI=1S/C11H12O2/c12-9-6-2-1-4-8-5-3-7-10(13)11(8)9/h1-4,6-8,10-11,13H,5H2
> <PUBCHEM_IUPAC_INCHIKEY>
HXVXIYMUKZSRIV-UHFFFAOYSA-N
> <PUBCHEM_XLOGP3_AA>
1.2
> <PUBCHEM_EXACT_MASS>
176.083729621
> <PUBCHEM_MOLECULAR_FORMULA>
C11H12O2
> <PUBCHEM_MOLECULAR_WEIGHT>
176.21
> <PUBCHEM_OPENEYE_CAN_SMILES>
C1C=CC(C2C1C=CC=CC2=O)O
> <PUBCHEM_OPENEYE_ISO_SMILES>
C1C=CC(C2C1C=CC=CC2=O)O
> <PUBCHEM_CACTVS_TPSA>
37.3
> <PUBCHEM_MONOISOTOPIC_WEIGHT>
176.083729621
> <PUBCHEM_TOTAL_CHARGE>
0
> <PUBCHEM_HEAVY_ATOM_COUNT>
13
> <PUBCHEM_ATOM_DEF_STEREO_COUNT>
0
> <PUBCHEM_ATOM_UDEF_STEREO_COUNT>
3
> <PUBCHEM_BOND_DEF_STEREO_COUNT>
0
> <PUBCHEM_BOND_UDEF_STEREO_COUNT>
0
> <PUBCHEM_ISOTOPIC_ATOM_COUNT>
0
> <PUBCHEM_COMPONENT_COUNT>
1
> <PUBCHEM_CACTVS_TAUTO_COUNT>
-1
> <PUBCHEM_COORDINATE_TYPE>
1
5
255
> <PUBCHEM_BONDANNOTATIONS>
5  1  3
3  7  3
4  6  3
$$$$
