500169
  -OEChem-10302200282D
 59 60  0     1  0  0  0  0  0999 V2000
    9.2942    3.4535    0.0000 Br  0  0  0  0  0  0  0  0  0  0  0  0
   11.4693   -0.5003    0.0000 O   0  0  0  0  0  0  0  0  0  0  0  0
    8.9282    1.0875    0.0000 O   0  0  0  0  0  0  0  0  0  0  0  0
   12.7426   -2.1559    0.0000 O   0  0  0  0  0  0  0  0  0  0  0  0
   12.3923    1.0875    0.0000 O   0  0  0  0  0  0  0  0  0  0  0  0
   10.6603    4.0875    0.0000 O   0  0  0  0  0  0  0  0  0  0  0  0
   10.6603    1.0875    0.0000 N   0  0  0  0  0  0  0  0  0  0  0  0
   11.5263    2.5875    0.0000 N   0  0  0  0  0  0  0  0  0  0  0  0
    9.5725   -2.2604    0.0000 N   0  0  0  0  0  0  0  0  0  0  0  0
    9.9792   -3.1739    0.0000 N   0  3  0  0  0  0  0  0  0  0  0  0
   10.3859   -4.0875    0.0000 N   0  5  0  0  0  0  0  0  0  0  0  0
   10.6603    0.0875    0.0000 C   0  0  2  0  0  0  0  0  0  0  0  0
    9.8512   -0.5003    0.0000 C   0  0  0  0  0  0  0  0  0  0  0  0
   10.1603   -1.4514    0.0000 C   0  0  2  0  0  0  0  0  0  0  0  0
   11.1603   -1.4514    0.0000 C   0  0  2  0  0  0  0  0  0  0  0  0
    9.7942    1.5875    0.0000 C   0  0  3  0  0  0  0  0  0  0  0  0
    9.7942    2.5875    0.0000 C   0  0  3  0  0  0  0  0  0  0  0  0
   11.7480   -2.2604    0.0000 C   0  0  0  0  0  0  0  0  0  0  0  0
   11.5263    1.5875    0.0000 C   0  0  0  0  0  0  0  0  0  0  0  0
   10.6603    3.0875    0.0000 C   0  0  0  0  0  0  0  0  0  0  0  0
    8.7942    2.5875    0.0000 C   0  0  0  0  0  0  0  0  0  0  0  0
    8.0622    1.5875    0.0000 C   0  0  0  0  0  0  0  0  0  0  0  0
    7.1962    1.0875    0.0000 C   0  0  0  0  0  0  0  0  0  0  0  0
    6.3301    1.5875    0.0000 C   0  0  0  0  0  0  0  0  0  0  0  0
    5.4641    1.0875    0.0000 C   0  0  0  0  0  0  0  0  0  0  0  0
    4.5981    1.5875    0.0000 C   0  0  0  0  0  0  0  0  0  0  0  0
    3.7320    1.0875    0.0000 C   0  0  0  0  0  0  0  0  0  0  0  0
    2.8660    1.5875    0.0000 C   0  0  0  0  0  0  0  0  0  0  0  0
    2.0000    1.0875    0.0000 C   0  0  0  0  0  0  0  0  0  0  0  0
   11.2127    0.3689    0.0000 H   0  0  0  0  0  0  0  0  0  0  0  0
    9.5412    0.0366    0.0000 H   0  0  0  0  0  0  0  0  0  0  0  0
    9.2848   -0.7525    0.0000 H   0  0  0  0  0  0  0  0  0  0  0  0
   10.4417   -2.0038    0.0000 H   0  0  0  0  0  0  0  0  0  0  0  0
   11.7726   -1.3544    0.0000 H   0  0  0  0  0  0  0  0  0  0  0  0
    9.2573    1.8975    0.0000 H   0  0  0  0  0  0  0  0  0  0  0  0
   11.1908   -2.5322    0.0000 H   0  0  0  0  0  0  0  0  0  0  0  0
   11.9189   -2.8564    0.0000 H   0  0  0  0  0  0  0  0  0  0  0  0
    8.7942    3.2075    0.0000 H   0  0  0  0  0  0  0  0  0  0  0  0
    8.1742    2.5875    0.0000 H   0  0  0  0  0  0  0  0  0  0  0  0
    8.7942    1.9675    0.0000 H   0  0  0  0  0  0  0  0  0  0  0  0
   12.0632    2.8975    0.0000 H   0  0  0  0  0  0  0  0  0  0  0  0
    8.4607    2.0624    0.0000 H   0  0  0  0  0  0  0  0  0  0  0  0
    7.6636    2.0624    0.0000 H   0  0  0  0  0  0  0  0  0  0  0  0
    6.7976    0.6125    0.0000 H   0  0  0  0  0  0  0  0  0  0  0  0
    7.5947    0.6125    0.0000 H   0  0  0  0  0  0  0  0  0  0  0  0
    6.7287    2.0624    0.0000 H   0  0  0  0  0  0  0  0  0  0  0  0
    5.9316    2.0624    0.0000 H   0  0  0  0  0  0  0  0  0  0  0  0
    5.0656    0.6125    0.0000 H   0  0  0  0  0  0  0  0  0  0  0  0
    5.8626    0.6125    0.0000 H   0  0  0  0  0  0  0  0  0  0  0  0
   13.1070   -2.6574    0.0000 H   0  0  0  0  0  0  0  0  0  0  0  0
    4.9966    2.0624    0.0000 H   0  0  0  0  0  0  0  0  0  0  0  0
    4.1996    2.0624    0.0000 H   0  0  0  0  0  0  0  0  0  0  0  0
    3.3335    0.6125    0.0000 H   0  0  0  0  0  0  0  0  0  0  0  0
    4.1306    0.6125    0.0000 H   0  0  0  0  0  0  0  0  0  0  0  0
    3.2646    2.0624    0.0000 H   0  0  0  0  0  0  0  0  0  0  0  0
    2.4675    2.0624    0.0000 H   0  0  0  0  0  0  0  0  0  0  0  0
    1.6900    1.6244    0.0000 H   0  0  0  0  0  0  0  0  0  0  0  0
    1.4631    0.7775    0.0000 H   0  0  0  0  0  0  0  0  0  0  0  0
    2.3100    0.5505    0.0000 H   0  0  0  0  0  0  0  0  0  0  0  0
  1 17  1  0  0  0  0
  2 12  1  0  0  0  0
  2 15  1  0  0  0  0
  3 16  1  0  0  0  0
  3 22  1  0  0  0  0
  4 18  1  0  0  0  0
  4 50  1  0  0  0  0
  5 19  2  0  0  0  0
  6 20  2  0  0  0  0
 12  7  1  1  0  0  0
  7 16  1  0  0  0  0
  7 19  1  0  0  0  0
  8 19  1  0  0  0  0
  8 20  1  0  0  0  0
  8 41  1  0  0  0  0
  9 10  2  0  0  0  0
 14  9  1  6  0  0  0
 10 11  2  0  0  0  0
 12 13  1  0  0  0  0
 12 30  1  0  0  0  0
 13 14  1  0  0  0  0
 13 31  1  0  0  0  0
 13 32  1  0  0  0  0
 14 15  1  0  0  0  0
 14 33  1  0  0  0  0
 15 18  1  1  0  0  0
 15 34  1  0  0  0  0
 16 17  1  0  0  0  0
 16 35  1  0  0  0  0
 17 20  1  0  0  0  0
 17 21  1  0  0  0  0
 18 36  1  0  0  0  0
 18 37  1  0  0  0  0
 21 38  1  0  0  0  0
 21 39  1  0  0  0  0
 21 40  1  0  0  0  0
 22 23  1  0  0  0  0
 22 42  1  0  0  0  0
 22 43  1  0  0  0  0
 23 24  1  0  0  0  0
 23 44  1  0  0  0  0
 23 45  1  0  0  0  0
 24 25  1  0  0  0  0
 24 46  1  0  0  0  0
 24 47  1  0  0  0  0
 25 26  1  0  0  0  0
 25 48  1  0  0  0  0
 25 49  1  0  0  0  0
 26 27  1  0  0  0  0
 26 51  1  0  0  0  0
 26 52  1  0  0  0  0
 27 28  1  0  0  0  0
 27 53  1  0  0  0  0
 27 54  1  0  0  0  0
 28 29  1  0  0  0  0
 28 55  1  0  0  0  0
 28 56  1  0  0  0  0
 29 57  1  0  0  0  0
 29 58  1  0  0  0  0
 29 59  1  0  0  0  0
M  CHG  2  10   1  11  -1
M  END
> <PUBCHEM_COMPOUND_CID>
500169
> <PUBCHEM_COMPOUND_CANONICALIZED>
1
> <PUBCHEM_CACTVS_COMPLEXITY>
632
> <PUBCHEM_CACTVS_HBOND_ACCEPTOR>
7
> <PUBCHEM_CACTVS_HBOND_DONOR>
2
> <PUBCHEM_CACTVS_ROTATABLE_BOND>
11
> <PUBCHEM_CACTVS_SUBSKEYS>
AAADceB7uAAAEAAAAAAAAAAAAAAAASAAAAAsAAAAAAAAAAAAAAAAHgBYCAABjDzhgAYDAAPABgAKAAEQEAAAAAAAAAAAAAEIAACjEA4AwAAPQAAOJyKDAAGw8KIAAAAAAAAAAAAAAAAAAAAAAAAAAAAAAA==
> <PUBCHEM_IUPAC_OPENEYE_NAME>
1-[(2S,4R,5R)-4-azido-5-(hydroxymethyl)tetrahydrofuran-2-yl]-5-bromo-5-methyl-6-octoxy-hexahydropyrimidine-2,4-dione
> <PUBCHEM_IUPAC_CAS_NAME>
1-[(2S,4R,5R)-4-azido-5-(hydroxymethyl)-2-oxolanyl]-5-bromo-5-methyl-6-octoxy-1,3-diazinane-2,4-dione
> <PUBCHEM_IUPAC_NAME_MARKUP>
1-[(2<I>S</I>,4<I>R</I>,5<I>R</I>)-4-azido-5-(hydroxymethyl)oxolan-2-yl]-5-bromo-5-methyl-6-octoxy-1,3-diazinane-2,4-dione
> <PUBCHEM_IUPAC_NAME>
1-[(2S,4R,5R)-4-azido-5-(hydroxymethyl)oxolan-2-yl]-5-bromo-5-methyl-6-octoxy-1,3-diazinane-2,4-dione
> <PUBCHEM_IUPAC_SYSTEMATIC_NAME>
1-[(2S,4R,5R)-4-azido-5-(hydroxymethyl)oxolan-2-yl]-5-bromanyl-5-methyl-6-octoxy-1,3-diazinane-2,4-dione
> <PUBCHEM_IUPAC_TRADITIONAL_NAME>
1-[(2S,4R,5R)-4-azido-5-methylol-tetrahydrofuran-2-yl]-5-bromo-5-methyl-6-octoxy-5,6-dihydrouracil
> <PUBCHEM_IUPAC_INCHI>
InChI=1S/C18H30BrN5O5/c1-3-4-5-6-7-8-9-28-16-18(2,19)15(26)21-17(27)24(16)14-10-12(22-23-20)13(11-25)29-14/h12-14,16,25H,3-11H2,1-2H3,(H,21,26,27)/t12-,13+,14+,16?,18?/m1/s1
> <PUBCHEM_IUPAC_INCHIKEY>
CWSNJUKGLKPUHQ-NWKZXCJWSA-N
> <PUBCHEM_XLOGP3_AA>
4
> <PUBCHEM_EXACT_MASS>
475.14303
> <PUBCHEM_MOLECULAR_FORMULA>
C18H30BrN5O5
> <PUBCHEM_MOLECULAR_WEIGHT>
476.4
> <PUBCHEM_OPENEYE_CAN_SMILES>
CCCCCCCCOC1C(C(=O)NC(=O)N1C2CC(C(O2)CO)N=[N+]=[N-])(C)Br
> <PUBCHEM_OPENEYE_ISO_SMILES>
CCCCCCCCOC1C(C(=O)NC(=O)N1[C@@H]2C[C@H]([C@@H](O2)CO)N=[N+]=[N-])(C)Br
> <PUBCHEM_CACTVS_TPSA>
103
> <PUBCHEM_MONOISOTOPIC_WEIGHT>
475.14303
> <PUBCHEM_TOTAL_CHARGE>
0
> <PUBCHEM_HEAVY_ATOM_COUNT>
29
> <PUBCHEM_ATOM_DEF_STEREO_COUNT>
3
> <PUBCHEM_ATOM_UDEF_STEREO_COUNT>
2
> <PUBCHEM_BOND_DEF_STEREO_COUNT>
0
> <PUBCHEM_BOND_UDEF_STEREO_COUNT>
0
> <PUBCHEM_ISOTOPIC_ATOM_COUNT>
0
> <PUBCHEM_COMPONENT_COUNT>
1
> <PUBCHEM_CACTVS_TAUTO_COUNT>
-1
> <PUBCHEM_COORDINATE_TYPE>
1
5
255
> <PUBCHEM_BONDANNOTATIONS>
17  1  3
15  18  5
16  3  3
12  7  5
14  9  6
$$$$
