500170
  -OEChem-10302200282D
 83 84  0     1  0  0  0  0  0999 V2000
   16.2224    3.4535    0.0000 Br  0  0  0  0  0  0  0  0  0  0  0  0
   18.3975   -0.5003    0.0000 O   0  0  0  0  0  0  0  0  0  0  0  0
   15.8564    1.0875    0.0000 O   0  0  0  0  0  0  0  0  0  0  0  0
   19.6708   -2.1559    0.0000 O   0  0  0  0  0  0  0  0  0  0  0  0
   19.3205    1.0875    0.0000 O   0  0  0  0  0  0  0  0  0  0  0  0
   17.5885    4.0875    0.0000 O   0  0  0  0  0  0  0  0  0  0  0  0
   17.5885    1.0875    0.0000 N   0  0  0  0  0  0  0  0  0  0  0  0
   18.4545    2.5875    0.0000 N   0  0  0  0  0  0  0  0  0  0  0  0
   16.5007   -2.2604    0.0000 N   0  0  0  0  0  0  0  0  0  0  0  0
   16.9074   -3.1739    0.0000 N   0  3  0  0  0  0  0  0  0  0  0  0
   17.3141   -4.0875    0.0000 N   0  5  0  0  0  0  0  0  0  0  0  0
   17.5885    0.0875    0.0000 C   0  0  2  0  0  0  0  0  0  0  0  0
   16.7794   -0.5003    0.0000 C   0  0  0  0  0  0  0  0  0  0  0  0
   17.0885   -1.4514    0.0000 C   0  0  2  0  0  0  0  0  0  0  0  0
   18.0885   -1.4514    0.0000 C   0  0  2  0  0  0  0  0  0  0  0  0
   16.7224    1.5875    0.0000 C   0  0  3  0  0  0  0  0  0  0  0  0
   16.7224    2.5875    0.0000 C   0  0  3  0  0  0  0  0  0  0  0  0
   18.6762   -2.2604    0.0000 C   0  0  0  0  0  0  0  0  0  0  0  0
   18.4545    1.5875    0.0000 C   0  0  0  0  0  0  0  0  0  0  0  0
   17.5885    3.0875    0.0000 C   0  0  0  0  0  0  0  0  0  0  0  0
   15.7224    2.5875    0.0000 C   0  0  0  0  0  0  0  0  0  0  0  0
   14.9904    1.5875    0.0000 C   0  0  0  0  0  0  0  0  0  0  0  0
   14.1244    1.0875    0.0000 C   0  0  0  0  0  0  0  0  0  0  0  0
   13.2583    1.5875    0.0000 C   0  0  0  0  0  0  0  0  0  0  0  0
   12.3923    1.0875    0.0000 C   0  0  0  0  0  0  0  0  0  0  0  0
   11.5263    1.5875    0.0000 C   0  0  0  0  0  0  0  0  0  0  0  0
   10.6603    1.0875    0.0000 C   0  0  0  0  0  0  0  0  0  0  0  0
    9.7942    1.5875    0.0000 C   0  0  0  0  0  0  0  0  0  0  0  0
    8.9282    1.0875    0.0000 C   0  0  0  0  0  0  0  0  0  0  0  0
    8.0622    1.5875    0.0000 C   0  0  0  0  0  0  0  0  0  0  0  0
    7.1962    1.0875    0.0000 C   0  0  0  0  0  0  0  0  0  0  0  0
    6.3301    1.5875    0.0000 C   0  0  0  0  0  0  0  0  0  0  0  0
    5.4641    1.0875    0.0000 C   0  0  0  0  0  0  0  0  0  0  0  0
    4.5981    1.5875    0.0000 C   0  0  0  0  0  0  0  0  0  0  0  0
    3.7320    1.0875    0.0000 C   0  0  0  0  0  0  0  0  0  0  0  0
    2.8660    1.5875    0.0000 C   0  0  0  0  0  0  0  0  0  0  0  0
    2.0000    1.0875    0.0000 C   0  0  0  0  0  0  0  0  0  0  0  0
   18.1409    0.3689    0.0000 H   0  0  0  0  0  0  0  0  0  0  0  0
   16.4694    0.0366    0.0000 H   0  0  0  0  0  0  0  0  0  0  0  0
   16.2130   -0.7525    0.0000 H   0  0  0  0  0  0  0  0  0  0  0  0
   17.3699   -2.0038    0.0000 H   0  0  0  0  0  0  0  0  0  0  0  0
   18.7008   -1.3544    0.0000 H   0  0  0  0  0  0  0  0  0  0  0  0
   16.1855    1.8975    0.0000 H   0  0  0  0  0  0  0  0  0  0  0  0
   18.1190   -2.5322    0.0000 H   0  0  0  0  0  0  0  0  0  0  0  0
   18.8471   -2.8564    0.0000 H   0  0  0  0  0  0  0  0  0  0  0  0
   15.7224    3.2075    0.0000 H   0  0  0  0  0  0  0  0  0  0  0  0
   15.1024    2.5875    0.0000 H   0  0  0  0  0  0  0  0  0  0  0  0
   15.7224    1.9675    0.0000 H   0  0  0  0  0  0  0  0  0  0  0  0
   18.9914    2.8975    0.0000 H   0  0  0  0  0  0  0  0  0  0  0  0
   15.3889    2.0624    0.0000 H   0  0  0  0  0  0  0  0  0  0  0  0
   14.5919    2.0624    0.0000 H   0  0  0  0  0  0  0  0  0  0  0  0
   13.7258    0.6125    0.0000 H   0  0  0  0  0  0  0  0  0  0  0  0
   14.5229    0.6125    0.0000 H   0  0  0  0  0  0  0  0  0  0  0  0
   13.6569    2.0624    0.0000 H   0  0  0  0  0  0  0  0  0  0  0  0
   12.8598    2.0624    0.0000 H   0  0  0  0  0  0  0  0  0  0  0  0
   11.9938    0.6125    0.0000 H   0  0  0  0  0  0  0  0  0  0  0  0
   12.7908    0.6125    0.0000 H   0  0  0  0  0  0  0  0  0  0  0  0
   11.9248    2.0624    0.0000 H   0  0  0  0  0  0  0  0  0  0  0  0
   11.1278    2.0624    0.0000 H   0  0  0  0  0  0  0  0  0  0  0  0
   10.2617    0.6125    0.0000 H   0  0  0  0  0  0  0  0  0  0  0  0
   11.0588    0.6125    0.0000 H   0  0  0  0  0  0  0  0  0  0  0  0
   10.1928    2.0624    0.0000 H   0  0  0  0  0  0  0  0  0  0  0  0
    9.3957    2.0624    0.0000 H   0  0  0  0  0  0  0  0  0  0  0  0
   20.0352   -2.6574    0.0000 H   0  0  0  0  0  0  0  0  0  0  0  0
    8.5297    0.6125    0.0000 H   0  0  0  0  0  0  0  0  0  0  0  0
    9.3267    0.6125    0.0000 H   0  0  0  0  0  0  0  0  0  0  0  0
    8.4607    2.0624    0.0000 H   0  0  0  0  0  0  0  0  0  0  0  0
    7.6636    2.0624    0.0000 H   0  0  0  0  0  0  0  0  0  0  0  0
    6.7976    0.6125    0.0000 H   0  0  0  0  0  0  0  0  0  0  0  0
    7.5947    0.6125    0.0000 H   0  0  0  0  0  0  0  0  0  0  0  0
    6.7287    2.0624    0.0000 H   0  0  0  0  0  0  0  0  0  0  0  0
    5.9316    2.0624    0.0000 H   0  0  0  0  0  0  0  0  0  0  0  0
    5.0656    0.6125    0.0000 H   0  0  0  0  0  0  0  0  0  0  0  0
    5.8626    0.6125    0.0000 H   0  0  0  0  0  0  0  0  0  0  0  0
    4.9966    2.0624    0.0000 H   0  0  0  0  0  0  0  0  0  0  0  0
    4.1996    2.0624    0.0000 H   0  0  0  0  0  0  0  0  0  0  0  0
    3.3335    0.6125    0.0000 H   0  0  0  0  0  0  0  0  0  0  0  0
    4.1306    0.6125    0.0000 H   0  0  0  0  0  0  0  0  0  0  0  0
    3.2646    2.0624    0.0000 H   0  0  0  0  0  0  0  0  0  0  0  0
    2.4675    2.0624    0.0000 H   0  0  0  0  0  0  0  0  0  0  0  0
    1.6900    1.6244    0.0000 H   0  0  0  0  0  0  0  0  0  0  0  0
    1.4631    0.7775    0.0000 H   0  0  0  0  0  0  0  0  0  0  0  0
    2.3100    0.5505    0.0000 H   0  0  0  0  0  0  0  0  0  0  0  0
  1 17  1  0  0  0  0
  2 12  1  0  0  0  0
  2 15  1  0  0  0  0
  3 16  1  0  0  0  0
  3 22  1  0  0  0  0
  4 18  1  0  0  0  0
  4 64  1  0  0  0  0
  5 19  2  0  0  0  0
  6 20  2  0  0  0  0
 12  7  1  1  0  0  0
  7 16  1  0  0  0  0
  7 19  1  0  0  0  0
  8 19  1  0  0  0  0
  8 20  1  0  0  0  0
  8 49  1  0  0  0  0
  9 10  2  0  0  0  0
 14  9  1  6  0  0  0
 10 11  2  0  0  0  0
 12 13  1  0  0  0  0
 12 38  1  0  0  0  0
 13 14  1  0  0  0  0
 13 39  1  0  0  0  0
 13 40  1  0  0  0  0
 14 15  1  0  0  0  0
 14 41  1  0  0  0  0
 15 18  1  1  0  0  0
 15 42  1  0  0  0  0
 16 17  1  0  0  0  0
 16 43  1  0  0  0  0
 17 20  1  0  0  0  0
 17 21  1  0  0  0  0
 18 44  1  0  0  0  0
 18 45  1  0  0  0  0
 21 46  1  0  0  0  0
 21 47  1  0  0  0  0
 21 48  1  0  0  0  0
 22 23  1  0  0  0  0
 22 50  1  0  0  0  0
 22 51  1  0  0  0  0
 23 24  1  0  0  0  0
 23 52  1  0  0  0  0
 23 53  1  0  0  0  0
 24 25  1  0  0  0  0
 24 54  1  0  0  0  0
 24 55  1  0  0  0  0
 25 26  1  0  0  0  0
 25 56  1  0  0  0  0
 25 57  1  0  0  0  0
 26 27  1  0  0  0  0
 26 58  1  0  0  0  0
 26 59  1  0  0  0  0
 27 28  1  0  0  0  0
 27 60  1  0  0  0  0
 27 61  1  0  0  0  0
 28 29  1  0  0  0  0
 28 62  1  0  0  0  0
 28 63  1  0  0  0  0
 29 30  1  0  0  0  0
 29 65  1  0  0  0  0
 29 66  1  0  0  0  0
 30 31  1  0  0  0  0
 30 67  1  0  0  0  0
 30 68  1  0  0  0  0
 31 32  1  0  0  0  0
 31 69  1  0  0  0  0
 31 70  1  0  0  0  0
 32 33  1  0  0  0  0
 32 71  1  0  0  0  0
 32 72  1  0  0  0  0
 33 34  1  0  0  0  0
 33 73  1  0  0  0  0
 33 74  1  0  0  0  0
 34 35  1  0  0  0  0
 34 75  1  0  0  0  0
 34 76  1  0  0  0  0
 35 36  1  0  0  0  0
 35 77  1  0  0  0  0
 35 78  1  0  0  0  0
 36 37  1  0  0  0  0
 36 79  1  0  0  0  0
 36 80  1  0  0  0  0
 37 81  1  0  0  0  0
 37 82  1  0  0  0  0
 37 83  1  0  0  0  0
M  CHG  2  10   1  11  -1
M  END
> <PUBCHEM_COMPOUND_CID>
500170
> <PUBCHEM_COMPOUND_CANONICALIZED>
1
> <PUBCHEM_CACTVS_COMPLEXITY>
753
> <PUBCHEM_CACTVS_HBOND_ACCEPTOR>
7
> <PUBCHEM_CACTVS_HBOND_DONOR>
2
> <PUBCHEM_CACTVS_ROTATABLE_BOND>
19
> <PUBCHEM_CACTVS_SUBSKEYS>
AAADcfB7uAAAEAAAAAAAAAAAAAAAASAAAAAsAAAAAAAAAAAAAAAAHgBYCAABjDzhgAYDAAPABgAKAAEQEAAAAAAAAAAAAAEIAACjEA4AwAAPQAAOJyKDAAGw8KIAAAAAAAAAAAAAAAAAAAAAAAAAAAAAAA==
> <PUBCHEM_IUPAC_OPENEYE_NAME>
1-[(2S,4R,5R)-4-azido-5-(hydroxymethyl)tetrahydrofuran-2-yl]-5-bromo-6-hexadecoxy-5-methyl-hexahydropyrimidine-2,4-dione
> <PUBCHEM_IUPAC_CAS_NAME>
1-[(2S,4R,5R)-4-azido-5-(hydroxymethyl)-2-oxolanyl]-5-bromo-6-hexadecoxy-5-methyl-1,3-diazinane-2,4-dione
> <PUBCHEM_IUPAC_NAME_MARKUP>
1-[(2<I>S</I>,4<I>R</I>,5<I>R</I>)-4-azido-5-(hydroxymethyl)oxolan-2-yl]-5-bromo-6-hexadecoxy-5-methyl-1,3-diazinane-2,4-dione
> <PUBCHEM_IUPAC_NAME>
1-[(2S,4R,5R)-4-azido-5-(hydroxymethyl)oxolan-2-yl]-5-bromo-6-hexadecoxy-5-methyl-1,3-diazinane-2,4-dione
> <PUBCHEM_IUPAC_SYSTEMATIC_NAME>
1-[(2S,4R,5R)-4-azido-5-(hydroxymethyl)oxolan-2-yl]-5-bromanyl-6-hexadecoxy-5-methyl-1,3-diazinane-2,4-dione
> <PUBCHEM_IUPAC_TRADITIONAL_NAME>
1-[(2S,4R,5R)-4-azido-5-methylol-tetrahydrofuran-2-yl]-5-bromo-6-cetyloxy-5-methyl-5,6-dihydrouracil
> <PUBCHEM_IUPAC_INCHI>
InChI=1S/C26H46BrN5O5/c1-3-4-5-6-7-8-9-10-11-12-13-14-15-16-17-36-24-26(2,27)23(34)29-25(35)32(24)22-18-20(30-31-28)21(19-33)37-22/h20-22,24,33H,3-19H2,1-2H3,(H,29,34,35)/t20-,21+,22+,24?,26?/m1/s1
> <PUBCHEM_IUPAC_INCHIKEY>
QREHSGUEJWIGCR-INHHZVRGSA-N
> <PUBCHEM_XLOGP3_AA>
8.4
> <PUBCHEM_EXACT_MASS>
587.26823
> <PUBCHEM_MOLECULAR_FORMULA>
C26H46BrN5O5
> <PUBCHEM_MOLECULAR_WEIGHT>
588.6
> <PUBCHEM_OPENEYE_CAN_SMILES>
CCCCCCCCCCCCCCCCOC1C(C(=O)NC(=O)N1C2CC(C(O2)CO)N=[N+]=[N-])(C)Br
> <PUBCHEM_OPENEYE_ISO_SMILES>
CCCCCCCCCCCCCCCCOC1C(C(=O)NC(=O)N1[C@@H]2C[C@H]([C@@H](O2)CO)N=[N+]=[N-])(C)Br
> <PUBCHEM_CACTVS_TPSA>
103
> <PUBCHEM_MONOISOTOPIC_WEIGHT>
587.26823
> <PUBCHEM_TOTAL_CHARGE>
0
> <PUBCHEM_HEAVY_ATOM_COUNT>
37
> <PUBCHEM_ATOM_DEF_STEREO_COUNT>
3
> <PUBCHEM_ATOM_UDEF_STEREO_COUNT>
2
> <PUBCHEM_BOND_DEF_STEREO_COUNT>
0
> <PUBCHEM_BOND_UDEF_STEREO_COUNT>
0
> <PUBCHEM_ISOTOPIC_ATOM_COUNT>
0
> <PUBCHEM_COMPONENT_COUNT>
1
> <PUBCHEM_CACTVS_TAUTO_COUNT>
-1
> <PUBCHEM_COORDINATE_TYPE>
1
5
255
> <PUBCHEM_BONDANNOTATIONS>
17  1  3
15  18  5
16  3  3
12  7  5
14  9  6
$$$$
