500159
  -OEChem-10302200282D
 35 36  0     1  0  0  0  0  0999 V2000
    6.2731   -0.8613    0.0000 O   0  0  0  0  0  0  0  0  0  0  0  0
    6.1452   -3.5349    0.0000 O   0  0  0  0  0  0  0  0  0  0  0  0
    7.1962    0.7265    0.0000 O   0  0  0  0  0  0  0  0  0  0  0  0
    2.8660    2.2265    0.0000 O   0  0  0  0  0  0  0  0  0  0  0  0
    5.4641    0.7265    0.0000 N   0  0  0  0  0  0  0  0  0  0  0  0
    6.3301    2.2265    0.0000 N   0  0  0  0  0  0  0  0  0  0  0  0
    5.4641    3.7265    0.0000 N   0  0  0  0  0  0  0  0  0  0  0  0
    5.4641   -0.2735    0.0000 C   0  0  2  0  0  0  0  0  0  0  0  0
    4.6551   -0.8613    0.0000 C   0  0  0  0  0  0  0  0  0  0  0  0
    4.9641   -1.8123    0.0000 C   0  0  0  0  0  0  0  0  0  0  0  0
    5.9641   -1.8123    0.0000 C   0  0  2  0  0  0  0  0  0  0  0  0
    6.5519   -2.6214    0.0000 C   0  0  0  0  0  0  0  0  0  0  0  0
    4.5981    1.2265    0.0000 C   0  0  0  0  0  0  0  0  0  0  0  0
    6.3301    1.2265    0.0000 C   0  0  0  0  0  0  0  0  0  0  0  0
    4.5981    2.2265    0.0000 C   0  0  0  0  0  0  0  0  0  0  0  0
    5.4641    2.7265    0.0000 C   0  0  0  0  0  0  0  0  0  0  0  0
    3.7320    2.7265    0.0000 C   0  0  0  0  0  0  0  0  0  0  0  0
    2.0000    2.7265    0.0000 C   0  0  0  0  0  0  0  0  0  0  0  0
    6.0165    0.0080    0.0000 H   0  0  0  0  0  0  0  0  0  0  0  0
    4.3451   -0.3244    0.0000 H   0  0  0  0  0  0  0  0  0  0  0  0
    4.0887   -1.1135    0.0000 H   0  0  0  0  0  0  0  0  0  0  0  0
    4.3576   -1.9412    0.0000 H   0  0  0  0  0  0  0  0  0  0  0  0
    5.0289   -2.4290    0.0000 H   0  0  0  0  0  0  0  0  0  0  0  0
    6.5765   -1.7154    0.0000 H   0  0  0  0  0  0  0  0  0  0  0  0
    7.0659   -2.9681    0.0000 H   0  0  0  0  0  0  0  0  0  0  0  0
    6.9826   -2.1754    0.0000 H   0  0  0  0  0  0  0  0  0  0  0  0
    4.0611    0.9165    0.0000 H   0  0  0  0  0  0  0  0  0  0  0  0
    6.5096   -4.0365    0.0000 H   0  0  0  0  0  0  0  0  0  0  0  0
    4.1306    3.2014    0.0000 H   0  0  0  0  0  0  0  0  0  0  0  0
    3.3335    3.2014    0.0000 H   0  0  0  0  0  0  0  0  0  0  0  0
    6.0010    4.0365    0.0000 H   0  0  0  0  0  0  0  0  0  0  0  0
    4.9272    4.0365    0.0000 H   0  0  0  0  0  0  0  0  0  0  0  0
    2.3100    3.2634    0.0000 H   0  0  0  0  0  0  0  0  0  0  0  0
    1.4631    3.0365    0.0000 H   0  0  0  0  0  0  0  0  0  0  0  0
    1.6900    2.1896    0.0000 H   0  0  0  0  0  0  0  0  0  0  0  0
  1  8  1  0  0  0  0
  1 11  1  0  0  0  0
  2 12  1  0  0  0  0
  2 28  1  0  0  0  0
  3 14  2  0  0  0  0
  4 17  1  0  0  0  0
  4 18  1  0  0  0  0
  8  5  1  1  0  0  0
  5 13  1  0  0  0  0
  5 14  1  0  0  0  0
  6 14  1  0  0  0  0
  6 16  2  0  0  0  0
  7 16  1  0  0  0  0
  7 31  1  0  0  0  0
  7 32  1  0  0  0  0
  8  9  1  0  0  0  0
  8 19  1  0  0  0  0
  9 10  1  0  0  0  0
  9 20  1  0  0  0  0
  9 21  1  0  0  0  0
 10 11  1  0  0  0  0
 10 22  1  0  0  0  0
 10 23  1  0  0  0  0
 11 12  1  1  0  0  0
 11 24  1  0  0  0  0
 12 25  1  0  0  0  0
 12 26  1  0  0  0  0
 13 15  2  0  0  0  0
 13 27  1  0  0  0  0
 15 16  1  0  0  0  0
 15 17  1  0  0  0  0
 17 29  1  0  0  0  0
 17 30  1  0  0  0  0
 18 33  1  0  0  0  0
 18 34  1  0  0  0  0
 18 35  1  0  0  0  0
M  END
> <PUBCHEM_COMPOUND_CID>
500159
> <PUBCHEM_COMPOUND_CANONICALIZED>
1
> <PUBCHEM_CACTVS_COMPLEXITY>
394
> <PUBCHEM_CACTVS_HBOND_ACCEPTOR>
4
> <PUBCHEM_CACTVS_HBOND_DONOR>
2
> <PUBCHEM_CACTVS_ROTATABLE_BOND>
4
> <PUBCHEM_CACTVS_SUBSKEYS>
AAADceBzOAAAAAAAAAAAAAAAAAAAASAAAAAgAAAAAAAAAAAAAAAAHgAQCAAADBThgAYDAANABgCoAgJmdACAAAEAAAAAAAAoABCBFAIAoQAOQAAGBgIDIACwMAIAAAAAAAAAAAAAAAAAAAAAAAAAAAAAAA==
> <PUBCHEM_IUPAC_OPENEYE_NAME>
4-amino-1-[(2S,5R)-5-(hydroxymethyl)tetrahydrofuran-2-yl]-5-(methoxymethyl)pyrimidin-2-one
> <PUBCHEM_IUPAC_CAS_NAME>
4-amino-1-[(2S,5R)-5-(hydroxymethyl)-2-oxolanyl]-5-(methoxymethyl)-2-pyrimidinone
> <PUBCHEM_IUPAC_NAME_MARKUP>
4-amino-1-[(2<I>S</I>,5<I>R</I>)-5-(hydroxymethyl)oxolan-2-yl]-5-(methoxymethyl)pyrimidin-2-one
> <PUBCHEM_IUPAC_NAME>
4-amino-1-[(2S,5R)-5-(hydroxymethyl)oxolan-2-yl]-5-(methoxymethyl)pyrimidin-2-one
> <PUBCHEM_IUPAC_SYSTEMATIC_NAME>
4-azanyl-1-[(2S,5R)-5-(hydroxymethyl)oxolan-2-yl]-5-(methoxymethyl)pyrimidin-2-one
> <PUBCHEM_IUPAC_TRADITIONAL_NAME>
4-amino-5-(methoxymethyl)-1-[(2S,5R)-5-methyloltetrahydrofuran-2-yl]pyrimidin-2-one
> <PUBCHEM_IUPAC_INCHI>
InChI=1S/C11H17N3O4/c1-17-6-7-4-14(11(16)13-10(7)12)9-3-2-8(5-15)18-9/h4,8-9,15H,2-3,5-6H2,1H3,(H2,12,13,16)/t8-,9+/m1/s1
> <PUBCHEM_IUPAC_INCHIKEY>
DPICHXITSIHAOF-BDAKNGLRSA-N
> <PUBCHEM_XLOGP3>
-1.7
> <PUBCHEM_EXACT_MASS>
255.12190603
> <PUBCHEM_MOLECULAR_FORMULA>
C11H17N3O4
> <PUBCHEM_MOLECULAR_WEIGHT>
255.27
> <PUBCHEM_OPENEYE_CAN_SMILES>
COCC1=CN(C(=O)N=C1N)C2CCC(O2)CO
> <PUBCHEM_OPENEYE_ISO_SMILES>
COCC1=CN(C(=O)N=C1N)[C@@H]2CC[C@@H](O2)CO
> <PUBCHEM_CACTVS_TPSA>
97.4
> <PUBCHEM_MONOISOTOPIC_WEIGHT>
255.12190603
> <PUBCHEM_TOTAL_CHARGE>
0
> <PUBCHEM_HEAVY_ATOM_COUNT>
18
> <PUBCHEM_ATOM_DEF_STEREO_COUNT>
2
> <PUBCHEM_ATOM_UDEF_STEREO_COUNT>
0
> <PUBCHEM_BOND_DEF_STEREO_COUNT>
0
> <PUBCHEM_BOND_UDEF_STEREO_COUNT>
0
> <PUBCHEM_ISOTOPIC_ATOM_COUNT>
0
> <PUBCHEM_COMPONENT_COUNT>
1
> <PUBCHEM_CACTVS_TAUTO_COUNT>
-1
> <PUBCHEM_COORDINATE_TYPE>
1
5
255
> <PUBCHEM_BONDANNOTATIONS>
11  12  5
13  15  8
15  16  8
5  13  8
5  14  8
8  5  5
6  14  8
6  16  8
$$$$
