500186
  -OEChem-10302200282D
 64 67  0     1  0  0  0  0  0999 V2000
   10.5956   -0.6548    0.0000 O   0  0  0  0  0  0  0  0  0  0  0  0
    2.5542   -1.6152    0.0000 O   0  0  0  0  0  0  0  0  0  0  0  0
    2.0000   -3.3089    0.0000 O   0  0  0  0  0  0  0  0  0  0  0  0
   10.5897    1.7700    0.0000 C   0  0  3  0  0  0  0  0  0  0  0  0
    9.7806    2.3578    0.0000 C   0  0  3  0  0  0  0  0  0  0  0  0
   11.3987    2.3578    0.0000 C   0  0  3  0  0  0  0  0  0  0  0  0
   10.0004    0.9519    0.0000 C   0  0  3  0  0  0  0  0  0  0  0  0
    9.1846    1.5445    0.0000 C   0  0  3  0  0  0  0  0  0  0  0  0
   10.0897    3.3089    0.0000 C   0  0  0  0  0  0  0  0  0  0  0  0
   11.0897    3.3089    0.0000 C   0  0  0  0  0  0  0  0  0  0  0  0
   12.0270    1.5803    0.0000 C   0  0  3  0  0  0  0  0  0  0  0  0
   11.3987    1.1822    0.0000 C   0  0  0  0  0  0  0  0  0  0  0  0
    8.9716    2.9456    0.0000 C   0  0  0  0  0  0  0  0  0  0  0  0
   10.7813    0.3278    0.0000 C   0  0  0  0  0  0  0  0  0  0  0  0
    8.1966    1.3901    0.0000 C   0  0  0  0  0  0  0  0  0  0  0  0
   11.7362    0.6238    0.0000 C   0  0  0  0  0  0  0  0  0  0  0  0
   12.2777    2.8345    0.0000 C   0  0  0  0  0  0  0  0  0  0  0  0
   13.0086    1.7713    0.0000 C   0  0  0  0  0  0  0  0  0  0  0  0
    7.8363    0.4573    0.0000 C   0  0  0  0  0  0  0  0  0  0  0  0
    6.8483    0.3029    0.0000 C   0  0  0  0  0  0  0  0  0  0  0  0
    6.2206    1.0813    0.0000 C   0  0  0  0  0  0  0  0  0  0  0  0
    6.4880   -0.6300    0.0000 C   0  0  0  0  0  0  0  0  0  0  0  0
    5.5000   -0.7844    0.0000 C   0  0  0  0  0  0  0  0  0  0  0  0
    5.1398   -1.7172    0.0000 C   0  0  0  0  0  0  0  0  0  0  0  0
    4.1517   -1.8716    0.0000 C   0  0  0  0  0  0  0  0  0  0  0  0
    3.4461   -1.1630    0.0000 C   0  0  0  0  0  0  0  0  0  0  0  0
    3.6959   -2.7617    0.0000 C   0  0  0  0  0  0  0  0  0  0  0  0
    2.7086   -2.6032    0.0000 C   0  0  0  0  0  0  0  0  0  0  0  0
    9.6245    0.4588    0.0000 H   0  0  0  0  0  0  0  0  0  0  0  0
    8.8623    2.0742    0.0000 H   0  0  0  0  0  0  0  0  0  0  0  0
   10.1545    3.9255    0.0000 H   0  0  0  0  0  0  0  0  0  0  0  0
    9.4832    3.4378    0.0000 H   0  0  0  0  0  0  0  0  0  0  0  0
   11.6961    3.4378    0.0000 H   0  0  0  0  0  0  0  0  0  0  0  0
   11.0248    3.9255    0.0000 H   0  0  0  0  0  0  0  0  0  0  0  0
   12.4423    1.1199    0.0000 H   0  0  0  0  0  0  0  0  0  0  0  0
   11.0342    0.6807    0.0000 H   0  0  0  0  0  0  0  0  0  0  0  0
   11.9003    0.8178    0.0000 H   0  0  0  0  0  0  0  0  0  0  0  0
   11.7631    1.6838    0.0000 H   0  0  0  0  0  0  0  0  0  0  0  0
    9.3360    3.4472    0.0000 H   0  0  0  0  0  0  0  0  0  0  0  0
    8.4700    3.3100    0.0000 H   0  0  0  0  0  0  0  0  0  0  0  0
    8.6072    2.4440    0.0000 H   0  0  0  0  0  0  0  0  0  0  0  0
    8.2087    2.0100    0.0000 H   0  0  0  0  0  0  0  0  0  0  0  0
    7.5883    1.5097    0.0000 H   0  0  0  0  0  0  0  0  0  0  0  0
   11.7993    0.0070    0.0000 H   0  0  0  0  0  0  0  0  0  0  0  0
   12.3533    0.5640    0.0000 H   0  0  0  0  0  0  0  0  0  0  0  0
   12.5733    2.2895    0.0000 H   0  0  0  0  0  0  0  0  0  0  0  0
   12.8227    3.1301    0.0000 H   0  0  0  0  0  0  0  0  0  0  0  0
   11.9822    3.3796    0.0000 H   0  0  0  0  0  0  0  0  0  0  0  0
   13.1271    1.1627    0.0000 H   0  0  0  0  0  0  0  0  0  0  0  0
   13.6172    1.8898    0.0000 H   0  0  0  0  0  0  0  0  0  0  0  0
   12.8902    2.3799    0.0000 H   0  0  0  0  0  0  0  0  0  0  0  0
    7.8242   -0.1626    0.0000 H   0  0  0  0  0  0  0  0  0  0  0  0
    8.4447    0.3377    0.0000 H   0  0  0  0  0  0  0  0  0  0  0  0
    6.7032    1.4705    0.0000 H   0  0  0  0  0  0  0  0  0  0  0  0
    5.8314    1.5640    0.0000 H   0  0  0  0  0  0  0  0  0  0  0  0
    5.7380    0.6921    0.0000 H   0  0  0  0  0  0  0  0  0  0  0  0
    6.8772   -1.1126    0.0000 H   0  0  0  0  0  0  0  0  0  0  0  0
    5.5121   -0.1645    0.0000 H   0  0  0  0  0  0  0  0  0  0  0  0
    4.8917   -0.6648    0.0000 H   0  0  0  0  0  0  0  0  0  0  0  0
    5.1277   -2.3371    0.0000 H   0  0  0  0  0  0  0  0  0  0  0  0
    5.7481   -1.8368    0.0000 H   0  0  0  0  0  0  0  0  0  0  0  0
    3.9287   -0.7739    0.0000 H   0  0  0  0  0  0  0  0  0  0  0  0
    3.1095   -0.6424    0.0000 H   0  0  0  0  0  0  0  0  0  0  0  0
    3.9763   -3.3147    0.0000 H   0  0  0  0  0  0  0  0  0  0  0  0
  1 14  2  0  0  0  0
  2 26  1  0  0  0  0
  2 28  1  0  0  0  0
  3 28  2  0  0  0  0
  4  5  1  0  0  0  0
  4  6  1  0  0  0  0
  4  7  1  0  0  0  0
  4 12  1  0  0  0  0
  5  8  1  0  0  0  0
  5  9  1  0  0  0  0
  5 13  1  0  0  0  0
  6 10  1  0  0  0  0
  6 11  1  0  0  0  0
  6 17  1  0  0  0  0
  7  8  1  0  0  0  0
  7 14  1  0  0  0  0
  7 29  1  0  0  0  0
  8 15  1  0  0  0  0
  8 30  1  0  0  0  0
  9 10  1  0  0  0  0
  9 31  1  0  0  0  0
  9 32  1  0  0  0  0
 10 33  1  0  0  0  0
 10 34  1  0  0  0  0
 11 16  1  0  0  0  0
 11 18  1  0  0  0  0
 11 35  1  0  0  0  0
 12 36  1  0  0  0  0
 12 37  1  0  0  0  0
 12 38  1  0  0  0  0
 13 39  1  0  0  0  0
 13 40  1  0  0  0  0
 13 41  1  0  0  0  0
 14 16  1  0  0  0  0
 15 19  1  0  0  0  0
 15 42  1  0  0  0  0
 15 43  1  0  0  0  0
 16 44  1  0  0  0  0
 16 45  1  0  0  0  0
 17 46  1  0  0  0  0
 17 47  1  0  0  0  0
 17 48  1  0  0  0  0
 18 49  1  0  0  0  0
 18 50  1  0  0  0  0
 18 51  1  0  0  0  0
 19 20  1  0  0  0  0
 19 52  1  0  0  0  0
 19 53  1  0  0  0  0
 20 21  1  0  0  0  0
 20 22  2  3  0  0  0
 21 54  1  0  0  0  0
 21 55  1  0  0  0  0
 21 56  1  0  0  0  0
 22 23  1  0  0  0  0
 22 57  1  0  0  0  0
 23 24  1  0  0  0  0
 23 58  1  0  0  0  0
 23 59  1  0  0  0  0
 24 25  1  0  0  0  0
 24 60  1  0  0  0  0
 24 61  1  0  0  0  0
 25 26  1  0  0  0  0
 25 27  2  0  0  0  0
 26 62  1  0  0  0  0
 26 63  1  0  0  0  0
 27 28  1  0  0  0  0
 27 64  1  0  0  0  0
M  END
> <PUBCHEM_COMPOUND_CID>
500186
> <PUBCHEM_COMPOUND_CANONICALIZED>
1
> <PUBCHEM_CACTVS_COMPLEXITY>
762
> <PUBCHEM_CACTVS_HBOND_ACCEPTOR>
3
> <PUBCHEM_CACTVS_HBOND_DONOR>
0
> <PUBCHEM_CACTVS_ROTATABLE_BOND>
6
> <PUBCHEM_CACTVS_SUBSKEYS>
AAADcfB4MAAAAAAAAAAAAAAAAABgAYIAAAAwAAAAAAAAAGAAAAAAGgAAAAAADwSggAICCAAABACIAqDSCAAAAAAgAAAACAEAAEgABBIAIQACEAAEgAAIIQOIiMCPgAAAAAAAAACAAAQAACAAAQAACAAAAA==
> <PUBCHEM_IUPAC_OPENEYE_NAME>
3-[4-methyl-6-(3,6,7,10-tetramethyl-9-oxo-2-tricyclo[4.3.1.03,10]decanyl)hex-3-enyl]-2H-furan-5-one
> <PUBCHEM_IUPAC_CAS_NAME>
3-[4-methyl-6-(3,6,7,10-tetramethyl-9-oxo-2-tricyclo[4.3.1.03,10]decanyl)hex-3-enyl]-2H-furan-5-one
> <PUBCHEM_IUPAC_NAME_MARKUP>
3-[4-methyl-6-(3,6,7,10-tetramethyl-9-oxo-2-tricyclo[4.3.1.0<SUP>3,10</SUP>]decanyl)hex-3-enyl]-2<I>H</I>-furan-5-one
> <PUBCHEM_IUPAC_NAME>
3-[4-methyl-6-(3,6,7,10-tetramethyl-9-oxo-2-tricyclo[4.3.1.03,10]decanyl)hex-3-enyl]-2H-furan-5-one
> <PUBCHEM_IUPAC_SYSTEMATIC_NAME>
3-[4-methyl-6-(3,6,7,10-tetramethyl-9-oxidanylidene-2-tricyclo[4.3.1.03,10]decanyl)hex-3-enyl]-2H-furan-5-one
> <PUBCHEM_IUPAC_TRADITIONAL_NAME>
3-[6-(9-keto-3,6,7,10-tetramethyl-2-tricyclo[4.3.1.03,10]decanyl)-4-methyl-hex-3-enyl]-2H-furan-5-one
> <PUBCHEM_IUPAC_INCHI>
InChI=1S/C25H36O3/c1-16(7-6-8-18-14-21(27)28-15-18)9-10-19-22-20(26)13-17(2)23(3)11-12-24(19,4)25(22,23)5/h7,14,17,19,22H,6,8-13,15H2,1-5H3
> <PUBCHEM_IUPAC_INCHIKEY>
SDTZLYYMKYPKGF-UHFFFAOYSA-N
> <PUBCHEM_XLOGP3_AA>
5.6
> <PUBCHEM_EXACT_MASS>
384.26644501
> <PUBCHEM_MOLECULAR_FORMULA>
C25H36O3
> <PUBCHEM_MOLECULAR_WEIGHT>
384.6
> <PUBCHEM_OPENEYE_CAN_SMILES>
CC1CC(=O)C2C(C3(C2(C1(CC3)C)C)C)CCC(=CCCC4=CC(=O)OC4)C
> <PUBCHEM_OPENEYE_ISO_SMILES>
CC1CC(=O)C2C(C3(C2(C1(CC3)C)C)C)CCC(=CCCC4=CC(=O)OC4)C
> <PUBCHEM_CACTVS_TPSA>
43.4
> <PUBCHEM_MONOISOTOPIC_WEIGHT>
384.26644501
> <PUBCHEM_TOTAL_CHARGE>
0
> <PUBCHEM_HEAVY_ATOM_COUNT>
28
> <PUBCHEM_ATOM_DEF_STEREO_COUNT>
0
> <PUBCHEM_ATOM_UDEF_STEREO_COUNT>
6
> <PUBCHEM_BOND_DEF_STEREO_COUNT>
0
> <PUBCHEM_BOND_UDEF_STEREO_COUNT>
1
> <PUBCHEM_ISOTOPIC_ATOM_COUNT>
0
> <PUBCHEM_COMPONENT_COUNT>
1
> <PUBCHEM_CACTVS_TAUTO_COUNT>
-1
> <PUBCHEM_COORDINATE_TYPE>
1
5
255
> <PUBCHEM_BONDANNOTATIONS>
11  18  3
20  22  1
4  12  3
5  13  3
6  17  3
7  14  3
8  15  3
$$$$
