500149
  -OEChem-10302200282D
 68 72  0     1  0  0  0  0  0999 V2000
   11.3336    0.7467    0.0000 S   0  0  0  0  0  0  0  0  0  0  0  0
    3.7320   -3.8683    0.0000 O   0  0  0  0  0  0  0  0  0  0  0  0
   12.1454    2.3330    0.0000 O   0  0  0  0  0  0  0  0  0  0  0  0
    2.8718   -2.3650    0.0000 O   0  0  0  0  0  0  0  0  0  0  0  0
    9.7956    1.2493    0.0000 N   0  0  0  0  0  0  0  0  0  0  0  0
    9.1251   -0.8160    0.0000 C   0  0  3  0  0  0  0  0  0  0  0  0
    9.1251   -1.8160    0.0000 C   0  0  3  0  0  0  0  0  0  0  0  0
    8.2591   -2.3160    0.0000 C   0  0  3  0  0  0  0  0  0  0  0  0
    7.3931   -1.8160    0.0000 C   0  0  3  0  0  0  0  0  0  0  0  0
    6.4831   -2.3228    0.0000 C   0  0  3  0  0  0  0  0  0  0  0  0
   10.0713   -0.5112    0.0000 C   0  0  3  0  0  0  0  0  0  0  0  0
    8.2591   -0.3160    0.0000 C   0  0  0  0  0  0  0  0  0  0  0  0
    7.3931   -0.8160    0.0000 C   0  0  0  0  0  0  0  0  0  0  0  0
   10.0713   -2.1207    0.0000 C   0  0  0  0  0  0  0  0  0  0  0  0
   10.6550   -1.3160    0.0000 C   0  0  0  0  0  0  0  0  0  0  0  0
    8.2752   -3.3575    0.0000 C   0  0  0  0  0  0  0  0  0  0  0  0
    6.4750   -3.3644    0.0000 C   0  0  0  0  0  0  0  0  0  0  0  0
    9.1251    0.1840    0.0000 C   0  0  0  0  0  0  0  0  0  0  0  0
    5.5562   -1.7587    0.0000 C   0  0  0  0  0  0  0  0  0  0  0  0
    7.3771   -3.8852    0.0000 C   0  0  0  0  0  0  0  0  0  0  0  0
    6.4908   -1.3228    0.0000 C   0  0  0  0  0  0  0  0  0  0  0  0
    5.5396   -3.9141    0.0000 C   0  0  0  0  0  0  0  0  0  0  0  0
   10.3820    0.4393    0.0000 C   0  0  0  0  0  0  0  0  0  0  0  0
    4.6084   -2.2867    0.0000 C   0  0  0  0  0  0  0  0  0  0  0  0
    4.6000   -3.3716    0.0000 C   0  0  3  0  0  0  0  0  0  0  0  0
   11.3353    1.7467    0.0000 C   0  0  0  0  0  0  0  0  0  0  0  0
   10.3848    2.0573    0.0000 C   0  0  0  0  0  0  0  0  0  0  0  0
    2.8680   -3.3650    0.0000 C   0  0  0  0  0  0  0  0  0  0  0  0
    2.0000   -3.8616    0.0000 C   0  0  0  0  0  0  0  0  0  0  0  0
   12.0426    3.3278    0.0000 C   0  0  0  0  0  0  0  0  0  0  0  0
   12.8526    3.9141    0.0000 C   0  0  0  0  0  0  0  0  0  0  0  0
    9.1907   -2.4325    0.0000 H   0  0  0  0  0  0  0  0  0  0  0  0
    8.7984   -2.6218    0.0000 H   0  0  0  0  0  0  0  0  0  0  0  0
    7.9300   -1.5060    0.0000 H   0  0  0  0  0  0  0  0  0  0  0  0
   10.6838   -0.4150    0.0000 H   0  0  0  0  0  0  0  0  0  0  0  0
    8.6576    0.1590    0.0000 H   0  0  0  0  0  0  0  0  0  0  0  0
    7.8606    0.1590    0.0000 H   0  0  0  0  0  0  0  0  0  0  0  0
    7.1810   -0.2334    0.0000 H   0  0  0  0  0  0  0  0  0  0  0  0
    6.7825   -0.9236    0.0000 H   0  0  0  0  0  0  0  0  0  0  0  0
    9.8203   -2.6876    0.0000 H   0  0  0  0  0  0  0  0  0  0  0  0
   10.6087   -2.4299    0.0000 H   0  0  0  0  0  0  0  0  0  0  0  0
   11.1158   -1.7307    0.0000 H   0  0  0  0  0  0  0  0  0  0  0  0
   11.1158   -0.9012    0.0000 H   0  0  0  0  0  0  0  0  0  0  0  0
    8.4932   -3.9379    0.0000 H   0  0  0  0  0  0  0  0  0  0  0  0
    8.8843   -3.2420    0.0000 H   0  0  0  0  0  0  0  0  0  0  0  0
    9.7451    0.1840    0.0000 H   0  0  0  0  0  0  0  0  0  0  0  0
    9.1251    0.8040    0.0000 H   0  0  0  0  0  0  0  0  0  0  0  0
    8.5051    0.1840    0.0000 H   0  0  0  0  0  0  0  0  0  0  0  0
    5.9644   -1.2921    0.0000 H   0  0  0  0  0  0  0  0  0  0  0  0
    5.1663   -1.2767    0.0000 H   0  0  0  0  0  0  0  0  0  0  0  0
    7.3795   -4.5052    0.0000 H   0  0  0  0  0  0  0  0  0  0  0  0
    7.1108   -1.3276    0.0000 H   0  0  0  0  0  0  0  0  0  0  0  0
    6.4956   -0.7029    0.0000 H   0  0  0  0  0  0  0  0  0  0  0  0
    5.8708   -1.3181    0.0000 H   0  0  0  0  0  0  0  0  0  0  0  0
    5.1423   -4.3901    0.0000 H   0  0  0  0  0  0  0  0  0  0  0  0
    5.9406   -4.3870    0.0000 H   0  0  0  0  0  0  0  0  0  0  0  0
    4.4038   -1.7014    0.0000 H   0  0  0  0  0  0  0  0  0  0  0  0
    3.9967   -2.3880    0.0000 H   0  0  0  0  0  0  0  0  0  0  0  0
    4.0648   -3.0585    0.0000 H   0  0  0  0  0  0  0  0  0  0  0  0
   10.1942    2.6473    0.0000 H   0  0  0  0  0  0  0  0  0  0  0  0
    1.6921   -3.3235    0.0000 H   0  0  0  0  0  0  0  0  0  0  0  0
    1.4619   -4.1695    0.0000 H   0  0  0  0  0  0  0  0  0  0  0  0
    2.3079   -4.3997    0.0000 H   0  0  0  0  0  0  0  0  0  0  0  0
   11.7717    3.8855    0.0000 H   0  0  0  0  0  0  0  0  0  0  0  0
   11.4463    3.1579    0.0000 H   0  0  0  0  0  0  0  0  0  0  0  0
   13.2161    3.4119    0.0000 H   0  0  0  0  0  0  0  0  0  0  0  0
   13.3548    4.2777    0.0000 H   0  0  0  0  0  0  0  0  0  0  0  0
   12.4890    4.4164    0.0000 H   0  0  0  0  0  0  0  0  0  0  0  0
  1 23  1  0  0  0  0
  1 26  1  0  0  0  0
  2 25  1  0  0  0  0
  2 28  1  0  0  0  0
  3 26  1  0  0  0  0
  3 30  1  0  0  0  0
  4 28  2  0  0  0  0
  5 23  2  0  0  0  0
  5 27  1  0  0  0  0
  6  7  1  0  0  0  0
  6 11  1  0  0  0  0
  6 12  1  0  0  0  0
  6 18  1  0  0  0  0
  7  8  1  0  0  0  0
  7 14  1  0  0  0  0
  7 32  1  0  0  0  0
  8  9  1  0  0  0  0
  8 16  1  0  0  0  0
  8 33  1  0  0  0  0
  9 10  1  0  0  0  0
  9 13  1  0  0  0  0
  9 34  1  0  0  0  0
 10 17  1  0  0  0  0
 10 19  1  0  0  0  0
 10 21  1  0  0  0  0
 11 15  1  0  0  0  0
 11 23  1  0  0  0  0
 11 35  1  0  0  0  0
 12 13  1  0  0  0  0
 12 36  1  0  0  0  0
 12 37  1  0  0  0  0
 13 38  1  0  0  0  0
 13 39  1  0  0  0  0
 14 15  1  0  0  0  0
 14 40  1  0  0  0  0
 14 41  1  0  0  0  0
 15 42  1  0  0  0  0
 15 43  1  0  0  0  0
 16 20  1  0  0  0  0
 16 44  1  0  0  0  0
 16 45  1  0  0  0  0
 17 20  2  0  0  0  0
 17 22  1  0  0  0  0
 18 46  1  0  0  0  0
 18 47  1  0  0  0  0
 18 48  1  0  0  0  0
 19 24  1  0  0  0  0
 19 49  1  0  0  0  0
 19 50  1  0  0  0  0
 20 51  1  0  0  0  0
 21 52  1  0  0  0  0
 21 53  1  0  0  0  0
 21 54  1  0  0  0  0
 22 25  1  0  0  0  0
 22 55  1  0  0  0  0
 22 56  1  0  0  0  0
 24 25  1  0  0  0  0
 24 57  1  0  0  0  0
 24 58  1  0  0  0  0
 25 59  1  0  0  0  0
 26 27  2  0  0  0  0
 27 60  1  0  0  0  0
 28 29  1  0  0  0  0
 29 61  1  0  0  0  0
 29 62  1  0  0  0  0
 29 63  1  0  0  0  0
 30 31  1  0  0  0  0
 30 64  1  0  0  0  0
 30 65  1  0  0  0  0
 31 66  1  0  0  0  0
 31 67  1  0  0  0  0
 31 68  1  0  0  0  0
M  END
> <PUBCHEM_COMPOUND_CID>
500149
> <PUBCHEM_COMPOUND_CANONICALIZED>
1
> <PUBCHEM_CACTVS_COMPLEXITY>
740
> <PUBCHEM_CACTVS_HBOND_ACCEPTOR>
5
> <PUBCHEM_CACTVS_HBOND_DONOR>
0
> <PUBCHEM_CACTVS_ROTATABLE_BOND>
5
> <PUBCHEM_CACTVS_SUBSKEYS>
AAADcfB6MABAAAAAAAAAAAAAAAAAAeIAAAAwYIAAAAAAAGCBgAAAHgQAAAAADxThwgYujRIIFAisAjD3TAQA+KBxSDhASAw7AAgGAAIggQAHCACEwAC4AAOQwPAPgAAAAAAAAADAAAQAACAAAQAACAAAAA==
> <PUBCHEM_IUPAC_OPENEYE_NAME>
[17-(5-ethoxythiazol-2-yl)-10,13-dimethyl-2,3,4,7,8,9,11,12,14,15,16,17-dodecahydro-1H-cyclopenta[a]phenanthren-3-yl] acetate
> <PUBCHEM_IUPAC_CAS_NAME>
acetic acid [17-(5-ethoxy-2-thiazolyl)-10,13-dimethyl-2,3,4,7,8,9,11,12,14,15,16,17-dodecahydro-1H-cyclopenta[a]phenanthren-3-yl] ester
> <PUBCHEM_IUPAC_NAME_MARKUP>
[17-(5-ethoxy-1,3-thiazol-2-yl)-10,13-dimethyl-2,3,4,7,8,9,11,12,14,15,16,17-dodecahydro-1<I>H</I>-cyclopenta[a]phenanthren-3-yl] acetate
> <PUBCHEM_IUPAC_NAME>
[17-(5-ethoxy-1,3-thiazol-2-yl)-10,13-dimethyl-2,3,4,7,8,9,11,12,14,15,16,17-dodecahydro-1H-cyclopenta[a]phenanthren-3-yl] acetate
> <PUBCHEM_IUPAC_SYSTEMATIC_NAME>
[17-(5-ethoxy-1,3-thiazol-2-yl)-10,13-dimethyl-2,3,4,7,8,9,11,12,14,15,16,17-dodecahydro-1H-cyclopenta[a]phenanthren-3-yl] ethanoate
> <PUBCHEM_IUPAC_TRADITIONAL_NAME>
acetic acid [17-(5-ethoxythiazol-2-yl)-10,13-dimethyl-2,3,4,7,8,9,11,12,14,15,16,17-dodecahydro-1H-cyclopenta[a]phenanthren-3-yl] ester
> <PUBCHEM_IUPAC_INCHI>
InChI=1S/C26H37NO3S/c1-5-29-23-15-27-24(31-23)22-9-8-20-19-7-6-17-14-18(30-16(2)28)10-12-25(17,3)21(19)11-13-26(20,22)4/h6,15,18-22H,5,7-14H2,1-4H3
> <PUBCHEM_IUPAC_INCHIKEY>
RYQYEQDEDFXQBN-UHFFFAOYSA-N
> <PUBCHEM_XLOGP3_AA>
6.4
> <PUBCHEM_EXACT_MASS>
443.24941522
> <PUBCHEM_MOLECULAR_FORMULA>
C26H37NO3S
> <PUBCHEM_MOLECULAR_WEIGHT>
443.6
> <PUBCHEM_OPENEYE_CAN_SMILES>
CCOC1=CN=C(S1)C2CCC3C2(CCC4C3CC=C5C4(CCC(C5)OC(=O)C)C)C
> <PUBCHEM_OPENEYE_ISO_SMILES>
CCOC1=CN=C(S1)C2CCC3C2(CCC4C3CC=C5C4(CCC(C5)OC(=O)C)C)C
> <PUBCHEM_CACTVS_TPSA>
76.7
> <PUBCHEM_MONOISOTOPIC_WEIGHT>
443.24941522
> <PUBCHEM_TOTAL_CHARGE>
0
> <PUBCHEM_HEAVY_ATOM_COUNT>
31
> <PUBCHEM_ATOM_DEF_STEREO_COUNT>
0
> <PUBCHEM_ATOM_UDEF_STEREO_COUNT>
7
> <PUBCHEM_BOND_DEF_STEREO_COUNT>
0
> <PUBCHEM_BOND_UDEF_STEREO_COUNT>
0
> <PUBCHEM_ISOTOPIC_ATOM_COUNT>
0
> <PUBCHEM_COMPONENT_COUNT>
1
> <PUBCHEM_CACTVS_TAUTO_COUNT>
-1
> <PUBCHEM_COORDINATE_TYPE>
1
5
255
> <PUBCHEM_BONDANNOTATIONS>
1  23  8
1  26  8
10  21  3
11  23  3
25  2  3
26  27  8
5  23  8
5  27  8
6  18  3
7  14  3
8  16  3
9  13  3
$$$$
