500175
  -OEChem-10302200282D
 42 45  0     1  0  0  0  0  0999 V2000
    4.9464   -2.5278    0.0000 O   0  0  0  0  0  0  0  0  0  0  0  0
    3.4518   -1.5573    0.0000 O   0  0  0  0  0  0  0  0  0  0  0  0
   10.4394   -1.0207    0.0000 O   0  0  0  0  0  0  0  0  0  0  0  0
   10.4394   -2.6301    0.0000 O   0  0  0  0  0  0  0  0  0  0  0  0
    2.5896    2.6338    0.0000 O   0  0  0  0  0  0  0  0  0  0  0  0
    6.0290   -1.3254    0.0000 C   0  0  3  0  0  0  0  0  0  0  0  0
    5.1155   -0.9187    0.0000 C   0  0  3  0  0  0  0  0  0  0  0  0
    6.8951   -0.8254    0.0000 C   0  0  0  0  0  0  0  0  0  0  0  0
    5.9245   -2.3199    0.0000 C   0  0  0  0  0  0  0  0  0  0  0  0
    4.9076    0.0595    0.0000 C   0  0  0  0  0  0  0  0  0  0  0  0
    4.4464   -1.6618    0.0000 C   0  0  0  0  0  0  0  0  0  0  0  0
    7.7611   -1.3254    0.0000 C   0  0  0  0  0  0  0  0  0  0  0  0
    3.9565    0.3685    0.0000 C   0  0  0  0  0  0  0  0  0  0  0  0
    8.6271   -0.8254    0.0000 C   0  0  0  0  0  0  0  0  0  0  0  0
    7.7611   -2.3254    0.0000 C   0  0  0  0  0  0  0  0  0  0  0  0
    3.7486    1.3466    0.0000 C   0  0  0  0  0  0  0  0  0  0  0  0
    3.2134   -0.3006    0.0000 C   0  0  0  0  0  0  0  0  0  0  0  0
    9.4932   -1.3254    0.0000 C   0  0  0  0  0  0  0  0  0  0  0  0
    8.6271   -2.8254    0.0000 C   0  0  0  0  0  0  0  0  0  0  0  0
    9.4932   -2.3254    0.0000 C   0  0  0  0  0  0  0  0  0  0  0  0
    2.7976    1.6557    0.0000 C   0  0  0  0  0  0  0  0  0  0  0  0
    2.2623    0.0084    0.0000 C   0  0  0  0  0  0  0  0  0  0  0  0
    2.0544    0.9865    0.0000 C   0  0  0  0  0  0  0  0  0  0  0  0
   11.0230   -1.8254    0.0000 C   0  0  0  0  0  0  0  0  0  0  0  0
    6.5490   -1.6631    0.0000 H   0  0  0  0  0  0  0  0  0  0  0  0
    5.5973   -0.5285    0.0000 H   0  0  0  0  0  0  0  0  0  0  0  0
    7.2936   -0.3505    0.0000 H   0  0  0  0  0  0  0  0  0  0  0  0
    6.4966   -0.3505    0.0000 H   0  0  0  0  0  0  0  0  0  0  0  0
    5.9893   -2.9365    0.0000 H   0  0  0  0  0  0  0  0  0  0  0  0
    6.5445   -2.3199    0.0000 H   0  0  0  0  0  0  0  0  0  0  0  0
    5.5272    0.0811    0.0000 H   0  0  0  0  0  0  0  0  0  0  0  0
    4.9939    0.6734    0.0000 H   0  0  0  0  0  0  0  0  0  0  0  0
    8.6271   -0.2054    0.0000 H   0  0  0  0  0  0  0  0  0  0  0  0
    7.2242   -2.6354    0.0000 H   0  0  0  0  0  0  0  0  0  0  0  0
    4.2094    1.7615    0.0000 H   0  0  0  0  0  0  0  0  0  0  0  0
    3.3423   -0.9071    0.0000 H   0  0  0  0  0  0  0  0  0  0  0  0
    8.6271   -3.4454    0.0000 H   0  0  0  0  0  0  0  0  0  0  0  0
    1.8016   -0.4065    0.0000 H   0  0  0  0  0  0  0  0  0  0  0  0
    1.4648    1.1781    0.0000 H   0  0  0  0  0  0  0  0  0  0  0  0
   11.4838   -2.2401    0.0000 H   0  0  0  0  0  0  0  0  0  0  0  0
   11.4838   -1.4107    0.0000 H   0  0  0  0  0  0  0  0  0  0  0  0
    2.0000    2.8254    0.0000 H   0  0  0  0  0  0  0  0  0  0  0  0
  1  9  1  0  0  0  0
  1 11  1  0  0  0  0
  2 11  2  0  0  0  0
  3 18  1  0  0  0  0
  3 24  1  0  0  0  0
  4 20  1  0  0  0  0
  4 24  1  0  0  0  0
  5 21  1  0  0  0  0
  5 42  1  0  0  0  0
  6  7  1  0  0  0  0
  6  8  1  0  0  0  0
  6  9  1  0  0  0  0
  6 25  1  0  0  0  0
  7 10  1  0  0  0  0
  7 11  1  0  0  0  0
  7 26  1  0  0  0  0
  8 12  1  0  0  0  0
  8 27  1  0  0  0  0
  8 28  1  0  0  0  0
  9 29  1  0  0  0  0
  9 30  1  0  0  0  0
 10 13  1  0  0  0  0
 10 31  1  0  0  0  0
 10 32  1  0  0  0  0
 12 14  2  0  0  0  0
 12 15  1  0  0  0  0
 13 16  2  0  0  0  0
 13 17  1  0  0  0  0
 14 18  1  0  0  0  0
 14 33  1  0  0  0  0
 15 19  2  0  0  0  0
 15 34  1  0  0  0  0
 16 21  1  0  0  0  0
 16 35  1  0  0  0  0
 17 22  2  0  0  0  0
 17 36  1  0  0  0  0
 18 20  2  0  0  0  0
 19 20  1  0  0  0  0
 19 37  1  0  0  0  0
 21 23  2  0  0  0  0
 22 23  1  0  0  0  0
 22 38  1  0  0  0  0
 23 39  1  0  0  0  0
 24 40  1  0  0  0  0
 24 41  1  0  0  0  0
M  END
> <PUBCHEM_COMPOUND_CID>
500175
> <PUBCHEM_COMPOUND_CANONICALIZED>
1
> <PUBCHEM_CACTVS_COMPLEXITY>
453
> <PUBCHEM_CACTVS_HBOND_ACCEPTOR>
5
> <PUBCHEM_CACTVS_HBOND_DONOR>
1
> <PUBCHEM_CACTVS_ROTATABLE_BOND>
4
> <PUBCHEM_CACTVS_SUBSKEYS>
AAADceB4OAAAAAAAAAAAAAAAAAAAASJAAAAwYAAAAAAAAEgBQAAAGgAACAAADQSgmAMwDoAABgCIAiDSCAACCAAgIAAIiAEGiIgdJjKGMRqicCIkwBEOuAeKyPCOoAABAAAAQABAAAIAAACAAAAAAAAAAA==
> <PUBCHEM_IUPAC_OPENEYE_NAME>
4-(1,3-benzodioxol-5-ylmethyl)-3-[(3-hydroxyphenyl)methyl]tetrahydrofuran-2-one
> <PUBCHEM_IUPAC_CAS_NAME>
4-(1,3-benzodioxol-5-ylmethyl)-3-[(3-hydroxyphenyl)methyl]-2-oxolanone
> <PUBCHEM_IUPAC_NAME_MARKUP>
4-(1,3-benzodioxol-5-ylmethyl)-3-[(3-hydroxyphenyl)methyl]oxolan-2-one
> <PUBCHEM_IUPAC_NAME>
4-(1,3-benzodioxol-5-ylmethyl)-3-[(3-hydroxyphenyl)methyl]oxolan-2-one
> <PUBCHEM_IUPAC_SYSTEMATIC_NAME>
4-(1,3-benzodioxol-5-ylmethyl)-3-[(3-hydroxyphenyl)methyl]oxolan-2-one
> <PUBCHEM_IUPAC_TRADITIONAL_NAME>
3-(3-hydroxybenzyl)-4-piperonyl-tetrahydrofuran-2-one
> <PUBCHEM_IUPAC_INCHI>
InChI=1S/C19H18O5/c20-15-3-1-2-12(7-15)8-16-14(10-22-19(16)21)6-13-4-5-17-18(9-13)24-11-23-17/h1-5,7,9,14,16,20H,6,8,10-11H2
> <PUBCHEM_IUPAC_INCHIKEY>
GMRHKMDIBNFPHY-UHFFFAOYSA-N
> <PUBCHEM_XLOGP3_AA>
3.5
> <PUBCHEM_EXACT_MASS>
326.11542367
> <PUBCHEM_MOLECULAR_FORMULA>
C19H18O5
> <PUBCHEM_MOLECULAR_WEIGHT>
326.3
> <PUBCHEM_OPENEYE_CAN_SMILES>
C1C(C(C(=O)O1)CC2=CC(=CC=C2)O)CC3=CC4=C(C=C3)OCO4
> <PUBCHEM_OPENEYE_ISO_SMILES>
C1C(C(C(=O)O1)CC2=CC(=CC=C2)O)CC3=CC4=C(C=C3)OCO4
> <PUBCHEM_CACTVS_TPSA>
65
> <PUBCHEM_MONOISOTOPIC_WEIGHT>
326.11542367
> <PUBCHEM_TOTAL_CHARGE>
0
> <PUBCHEM_HEAVY_ATOM_COUNT>
24
> <PUBCHEM_ATOM_DEF_STEREO_COUNT>
0
> <PUBCHEM_ATOM_UDEF_STEREO_COUNT>
2
> <PUBCHEM_BOND_DEF_STEREO_COUNT>
0
> <PUBCHEM_BOND_UDEF_STEREO_COUNT>
0
> <PUBCHEM_ISOTOPIC_ATOM_COUNT>
0
> <PUBCHEM_COMPONENT_COUNT>
1
> <PUBCHEM_CACTVS_TAUTO_COUNT>
-1
> <PUBCHEM_COORDINATE_TYPE>
1
5
255
> <PUBCHEM_BONDANNOTATIONS>
12  14  8
12  15  8
13  16  8
13  17  8
14  18  8
15  19  8
16  21  8
17  22  8
18  20  8
19  20  8
21  23  8
22  23  8
6  8  3
7  10  3
$$$$
