500128
  -OEChem-10302200282D
 60 64  0     1  0  0  0  0  0999 V2000
    6.3301   -0.0699    0.0000 O   0  0  0  0  0  0  0  0  0  0  0  0
    3.7321   -1.5699    0.0000 N   0  0  0  0  0  0  0  0  0  0  0  0
    3.7321    1.4301    0.0000 N   0  0  3  0  0  0  0  0  0  0  0  0
    3.7321   -2.5699    0.0000 C   0  0  0  0  0  0  0  0  0  0  0  0
    4.5683   -4.0182    0.0000 C   0  0  0  0  0  0  0  0  0  0  0  0
    3.0410   -4.4533    0.0000 C   0  0  0  0  0  0  0  0  0  0  0  0
    2.8959   -4.0182    0.0000 C   0  0  0  0  0  0  0  0  0  0  0  0
    4.5683   -3.0527    0.0000 C   0  0  0  0  0  0  0  0  0  0  0  0
    3.0410   -3.4080    0.0000 C   0  0  0  0  0  0  0  0  0  0  0  0
    2.8959   -3.0527    0.0000 C   0  0  0  0  0  0  0  0  0  0  0  0
    3.9466   -4.9301    0.0000 C   0  0  0  0  0  0  0  0  0  0  0  0
    3.7321   -4.3210    0.0000 C   0  0  0  0  0  0  0  0  0  0  0  0
    2.0591   -4.5010    0.0000 C   0  0  0  0  0  0  0  0  0  0  0  0
    4.5981   -1.0699    0.0000 C   0  0  0  0  0  0  0  0  0  0  0  0
    4.5981   -0.0699    0.0000 C   0  0  3  0  0  0  0  0  0  0  0  0
    5.4641    0.4301    0.0000 C   0  0  3  0  0  0  0  0  0  0  0  0
    3.7321    0.4301    0.0000 C   0  0  0  0  0  0  0  0  0  0  0  0
    5.4641    1.4301    0.0000 C   0  0  0  0  0  0  0  0  0  0  0  0
    4.5981    1.9301    0.0000 C   0  0  0  0  0  0  0  0  0  0  0  0
    2.8660    1.9301    0.0000 C   0  0  0  0  0  0  0  0  0  0  0  0
    2.8660    2.9301    0.0000 C   0  0  0  0  0  0  0  0  0  0  0  0
    3.7320    3.4301    0.0000 C   0  0  0  0  0  0  0  0  0  0  0  0
    2.0000    3.4301    0.0000 C   0  0  0  0  0  0  0  0  0  0  0  0
    3.7320    4.4301    0.0000 C   0  0  0  0  0  0  0  0  0  0  0  0
    2.0000    4.4301    0.0000 C   0  0  0  0  0  0  0  0  0  0  0  0
    2.8660    4.9301    0.0000 C   0  0  0  0  0  0  0  0  0  0  0  0
    5.1607   -4.2009    0.0000 H   0  0  0  0  0  0  0  0  0  0  0  0
    2.9069   -5.0586    0.0000 H   0  0  0  0  0  0  0  0  0  0  0  0
    3.4034   -3.6622    0.0000 H   0  0  0  0  0  0  0  0  0  0  0  0
    5.1788   -3.1603    0.0000 H   0  0  0  0  0  0  0  0  0  0  0  0
    4.7803   -2.4701    0.0000 H   0  0  0  0  0  0  0  0  0  0  0  0
    2.6974   -2.8920    0.0000 H   0  0  0  0  0  0  0  0  0  0  0  0
    2.4476   -3.5875    0.0000 H   0  0  0  0  0  0  0  0  0  0  0  0
    2.6838   -2.4701    0.0000 H   0  0  0  0  0  0  0  0  0  0  0  0
    2.2853   -3.1603    0.0000 H   0  0  0  0  0  0  0  0  0  0  0  0
    3.6372   -5.4674    0.0000 H   0  0  0  0  0  0  0  0  0  0  0  0
    4.4718   -5.2597    0.0000 H   0  0  0  0  0  0  0  0  0  0  0  0
    3.3621   -4.8185    0.0000 H   0  0  0  0  0  0  0  0  0  0  0  0
    4.1020   -4.8185    0.0000 H   0  0  0  0  0  0  0  0  0  0  0  0
    1.5778   -4.1101    0.0000 H   0  0  0  0  0  0  0  0  0  0  0  0
    1.8659   -5.0901    0.0000 H   0  0  0  0  0  0  0  0  0  0  0  0
    3.1951   -1.2599    0.0000 H   0  0  0  0  0  0  0  0  0  0  0  0
    4.8102   -1.6525    0.0000 H   0  0  0  0  0  0  0  0  0  0  0  0
    5.2087   -0.9622    0.0000 H   0  0  0  0  0  0  0  0  0  0  0  0
    4.0612   -0.3799    0.0000 H   0  0  0  0  0  0  0  0  0  0  0  0
    5.4641   -0.1899    0.0000 H   0  0  0  0  0  0  0  0  0  0  0  0
    3.1215    0.5378    0.0000 H   0  0  0  0  0  0  0  0  0  0  0  0
    3.5200   -0.1525    0.0000 H   0  0  0  0  0  0  0  0  0  0  0  0
    6.0747    1.3225    0.0000 H   0  0  0  0  0  0  0  0  0  0  0  0
    5.6762    2.0127    0.0000 H   0  0  0  0  0  0  0  0  0  0  0  0
    4.9966    2.4051    0.0000 H   0  0  0  0  0  0  0  0  0  0  0  0
    4.1996    2.4051    0.0000 H   0  0  0  0  0  0  0  0  0  0  0  0
    2.2554    2.0378    0.0000 H   0  0  0  0  0  0  0  0  0  0  0  0
    2.6540    1.3475    0.0000 H   0  0  0  0  0  0  0  0  0  0  0  0
    6.8671    0.2401    0.0000 H   0  0  0  0  0  0  0  0  0  0  0  0
    4.2690    3.1201    0.0000 H   0  0  0  0  0  0  0  0  0  0  0  0
    1.4631    3.1201    0.0000 H   0  0  0  0  0  0  0  0  0  0  0  0
    4.2690    4.7401    0.0000 H   0  0  0  0  0  0  0  0  0  0  0  0
    1.4631    4.7401    0.0000 H   0  0  0  0  0  0  0  0  0  0  0  0
    2.8660    5.5501    0.0000 H   0  0  0  0  0  0  0  0  0  0  0  0
  1 16  1  0  0  0  0
  1 55  1  0  0  0  0
  2  4  1  0  0  0  0
  2 14  1  0  0  0  0
  2 42  1  0  0  0  0
  3 17  1  0  0  0  0
  3 19  1  0  0  0  0
  3 20  1  0  0  0  0
  4  8  1  0  0  0  0
  4  9  1  0  0  0  0
  4 10  1  0  0  0  0
  5  8  1  0  0  0  0
  5 11  1  0  0  0  0
  5 12  1  0  0  0  0
  5 27  1  0  0  0  0
  6  9  1  0  0  0  0
  6 11  1  0  0  0  0
  6 13  1  0  0  0  0
  6 28  1  0  0  0  0
  7 10  1  0  0  0  0
  7 12  1  0  0  0  0
  7 13  1  0  0  0  0
  7 29  1  0  0  0  0
  8 30  1  0  0  0  0
  8 31  1  0  0  0  0
  9 32  1  0  0  0  0
  9 33  1  0  0  0  0
 10 34  1  0  0  0  0
 10 35  1  0  0  0  0
 11 36  1  0  0  0  0
 11 37  1  0  0  0  0
 12 38  1  0  0  0  0
 12 39  1  0  0  0  0
 13 40  1  0  0  0  0
 13 41  1  0  0  0  0
 14 15  1  0  0  0  0
 14 43  1  0  0  0  0
 14 44  1  0  0  0  0
 15 16  1  0  0  0  0
 15 17  1  0  0  0  0
 15 45  1  0  0  0  0
 16 18  1  0  0  0  0
 16 46  1  0  0  0  0
 17 47  1  0  0  0  0
 17 48  1  0  0  0  0
 18 19  1  0  0  0  0
 18 49  1  0  0  0  0
 18 50  1  0  0  0  0
 19 51  1  0  0  0  0
 19 52  1  0  0  0  0
 20 21  1  0  0  0  0
 20 53  1  0  0  0  0
 20 54  1  0  0  0  0
 21 22  2  0  0  0  0
 21 23  1  0  0  0  0
 22 24  1  0  0  0  0
 22 56  1  0  0  0  0
 23 25  2  0  0  0  0
 23 57  1  0  0  0  0
 24 26  2  0  0  0  0
 24 58  1  0  0  0  0
 25 26  1  0  0  0  0
 25 59  1  0  0  0  0
 26 60  1  0  0  0  0
M  END
> <PUBCHEM_COMPOUND_CID>
500128
> <PUBCHEM_COMPOUND_CANONICALIZED>
1
> <PUBCHEM_CACTVS_COMPLEXITY>
445
> <PUBCHEM_CACTVS_HBOND_ACCEPTOR>
3
> <PUBCHEM_CACTVS_HBOND_DONOR>
2
> <PUBCHEM_CACTVS_ROTATABLE_BOND>
5
> <PUBCHEM_CACTVS_SUBSKEYS>
AAADcfB7IAAAAAAAAAAAAAAAAAAAAAAAAAA8YMGDAAAAAAABAAAAHgAQCAAADZzhmAYwAIPAAgCAAiBCAACCAAAgAAAIiIAIBIgIMCKA0RGEYAhikACIiAcQgMAOAAAAAAAAAAAAAASAAAAAAAAAAAAAAA==
> <PUBCHEM_IUPAC_OPENEYE_NAME>
3-[(1-adamantylamino)methyl]-1-benzyl-piperidin-4-ol
> <PUBCHEM_IUPAC_CAS_NAME>
3-[(1-adamantylamino)methyl]-1-(phenylmethyl)-4-piperidinol
> <PUBCHEM_IUPAC_NAME_MARKUP>
3-[(1-adamantylamino)methyl]-1-benzylpiperidin-4-ol
> <PUBCHEM_IUPAC_NAME>
3-[(1-adamantylamino)methyl]-1-benzylpiperidin-4-ol
> <PUBCHEM_IUPAC_SYSTEMATIC_NAME>
3-[(1-adamantylamino)methyl]-1-(phenylmethyl)piperidin-4-ol
> <PUBCHEM_IUPAC_TRADITIONAL_NAME>
3-[(1-adamantylamino)methyl]-1-benzyl-piperidin-4-ol
> <PUBCHEM_IUPAC_INCHI>
InChI=1S/C23H34N2O/c26-22-6-7-25(15-17-4-2-1-3-5-17)16-21(22)14-24-23-11-18-8-19(12-23)10-20(9-18)13-23/h1-5,18-22,24,26H,6-16H2
> <PUBCHEM_IUPAC_INCHIKEY>
QKFKNMFRHTVDTQ-UHFFFAOYSA-N
> <PUBCHEM_XLOGP3_AA>
3.8
> <PUBCHEM_EXACT_MASS>
354.267113712
> <PUBCHEM_MOLECULAR_FORMULA>
C23H34N2O
> <PUBCHEM_MOLECULAR_WEIGHT>
354.5
> <PUBCHEM_OPENEYE_CAN_SMILES>
C1CN(CC(C1O)CNC23CC4CC(C2)CC(C4)C3)CC5=CC=CC=C5
> <PUBCHEM_OPENEYE_ISO_SMILES>
C1CN(CC(C1O)CNC23CC4CC(C2)CC(C4)C3)CC5=CC=CC=C5
> <PUBCHEM_CACTVS_TPSA>
35.5
> <PUBCHEM_MONOISOTOPIC_WEIGHT>
354.267113712
> <PUBCHEM_TOTAL_CHARGE>
0
> <PUBCHEM_HEAVY_ATOM_COUNT>
26
> <PUBCHEM_ATOM_DEF_STEREO_COUNT>
0
> <PUBCHEM_ATOM_UDEF_STEREO_COUNT>
2
> <PUBCHEM_BOND_DEF_STEREO_COUNT>
0
> <PUBCHEM_BOND_UDEF_STEREO_COUNT>
0
> <PUBCHEM_ISOTOPIC_ATOM_COUNT>
0
> <PUBCHEM_COMPONENT_COUNT>
1
> <PUBCHEM_CACTVS_TAUTO_COUNT>
-1
> <PUBCHEM_COORDINATE_TYPE>
1
5
255
> <PUBCHEM_BONDANNOTATIONS>
16  1  3
15  14  3
21  22  8
21  23  8
22  24  8
23  25  8
24  26  8
25  26  8
$$$$
