500118
  -OEChem-10302200282D
 38 40  0     1  0  0  0  0  0999 V2000
    7.4142    0.9875    0.0000 O   0  0  0  0  0  0  0  0  0  0  0  0
    5.7071    2.6946    0.0000 O   0  0  0  0  0  0  0  0  0  0  0  0
    8.9142    1.8536    0.0000 O   0  0  0  0  0  0  0  0  0  0  0  0
    5.0000    0.9875    0.0000 N   0  0  0  0  0  0  0  0  0  0  0  0
    5.7071    0.2804    0.0000 C   0  0  3  0  0  0  0  0  0  0  0  0
    6.4142    0.9875    0.0000 C   0  0  3  0  0  0  0  0  0  0  0  0
    5.7071    1.6946    0.0000 C   0  0  0  0  0  0  0  0  0  0  0  0
    5.7071   -0.7196    0.0000 C   0  0  0  0  0  0  0  0  0  0  0  0
    4.0000    0.9875    0.0000 C   0  0  0  0  0  0  0  0  0  0  0  0
    4.8411   -1.2196    0.0000 C   0  0  0  0  0  0  0  0  0  0  0  0
    6.5731   -1.2196    0.0000 C   0  0  0  0  0  0  0  0  0  0  0  0
    3.5000    1.8536    0.0000 C   0  0  0  0  0  0  0  0  0  0  0  0
    3.5000    0.1215    0.0000 C   0  0  0  0  0  0  0  0  0  0  0  0
    7.9142    1.8536    0.0000 C   0  0  0  0  0  0  0  0  0  0  0  0
    4.8411   -2.2196    0.0000 C   0  0  0  0  0  0  0  0  0  0  0  0
    6.5731   -2.2196    0.0000 C   0  0  0  0  0  0  0  0  0  0  0  0
    5.7071   -2.7196    0.0000 C   0  0  0  0  0  0  0  0  0  0  0  0
    2.5000    1.8536    0.0000 C   0  0  0  0  0  0  0  0  0  0  0  0
    2.5000    0.1215    0.0000 C   0  0  0  0  0  0  0  0  0  0  0  0
    2.0000    0.9875    0.0000 C   0  0  0  0  0  0  0  0  0  0  0  0
    9.4142    2.7196    0.0000 C   0  0  0  0  0  0  0  0  0  0  0  0
    5.1343    0.0432    0.0000 H   0  0  0  0  0  0  0  0  0  0  0  0
    6.6515    0.4147    0.0000 H   0  0  0  0  0  0  0  0  0  0  0  0
    4.3042   -0.9096    0.0000 H   0  0  0  0  0  0  0  0  0  0  0  0
    7.1101   -0.9096    0.0000 H   0  0  0  0  0  0  0  0  0  0  0  0
    3.8100    2.3905    0.0000 H   0  0  0  0  0  0  0  0  0  0  0  0
    3.8100   -0.4154    0.0000 H   0  0  0  0  0  0  0  0  0  0  0  0
    8.0219    2.4641    0.0000 H   0  0  0  0  0  0  0  0  0  0  0  0
    7.3316    2.0656    0.0000 H   0  0  0  0  0  0  0  0  0  0  0  0
    4.3042   -2.5296    0.0000 H   0  0  0  0  0  0  0  0  0  0  0  0
    7.1101   -2.5296    0.0000 H   0  0  0  0  0  0  0  0  0  0  0  0
    5.7071   -3.3396    0.0000 H   0  0  0  0  0  0  0  0  0  0  0  0
    2.1900    2.3905    0.0000 H   0  0  0  0  0  0  0  0  0  0  0  0
    2.1900   -0.4154    0.0000 H   0  0  0  0  0  0  0  0  0  0  0  0
    1.3800    0.9875    0.0000 H   0  0  0  0  0  0  0  0  0  0  0  0
    9.9512    2.4096    0.0000 H   0  0  0  0  0  0  0  0  0  0  0  0
    9.7242    3.2565    0.0000 H   0  0  0  0  0  0  0  0  0  0  0  0
    8.8773    3.0296    0.0000 H   0  0  0  0  0  0  0  0  0  0  0  0
  1  6  1  0  0  0  0
  1 14  1  0  0  0  0
  2  7  2  0  0  0  0
  3 14  1  0  0  0  0
  3 21  1  0  0  0  0
  4  5  1  0  0  0  0
  4  7  1  0  0  0  0
  4  9  1  0  0  0  0
  5  6  1  0  0  0  0
  5  8  1  0  0  0  0
  5 22  1  0  0  0  0
  6  7  1  0  0  0  0
  6 23  1  0  0  0  0
  8 10  2  0  0  0  0
  8 11  1  0  0  0  0
  9 12  2  0  0  0  0
  9 13  1  0  0  0  0
 10 15  1  0  0  0  0
 10 24  1  0  0  0  0
 11 16  2  0  0  0  0
 11 25  1  0  0  0  0
 12 18  1  0  0  0  0
 12 26  1  0  0  0  0
 13 19  2  0  0  0  0
 13 27  1  0  0  0  0
 14 28  1  0  0  0  0
 14 29  1  0  0  0  0
 15 17  2  0  0  0  0
 15 30  1  0  0  0  0
 16 17  1  0  0  0  0
 16 31  1  0  0  0  0
 17 32  1  0  0  0  0
 18 20  2  0  0  0  0
 18 33  1  0  0  0  0
 19 20  1  0  0  0  0
 19 34  1  0  0  0  0
 20 35  1  0  0  0  0
 21 36  1  0  0  0  0
 21 37  1  0  0  0  0
 21 38  1  0  0  0  0
M  END
> <PUBCHEM_COMPOUND_CID>
500118
> <PUBCHEM_COMPOUND_CANONICALIZED>
1
> <PUBCHEM_CACTVS_COMPLEXITY>
348
> <PUBCHEM_CACTVS_HBOND_ACCEPTOR>
3
> <PUBCHEM_CACTVS_HBOND_DONOR>
0
> <PUBCHEM_CACTVS_ROTATABLE_BOND>
5
> <PUBCHEM_CACTVS_SUBSKEYS>
AAADceB6MAAAAAAAAAAAAAAAAABYAAAAAAAwYAAAAAAAAAABQAAAHgAAAAAADDzhmAcyyIMABACIAiVSUAKCAAAhAgAIiAFIZIgaIDrAkZWlIAhkxgHcyAeYyKCOAAAAAAAAAAAAAAAAAAAAAAAAAAAAAA==
> <PUBCHEM_IUPAC_OPENEYE_NAME>
3-(methoxymethoxy)-1,4-diphenyl-azetidin-2-one
> <PUBCHEM_IUPAC_CAS_NAME>
3-(methoxymethoxy)-1,4-diphenyl-2-azetidinone
> <PUBCHEM_IUPAC_NAME_MARKUP>
3-(methoxymethoxy)-1,4-diphenylazetidin-2-one
> <PUBCHEM_IUPAC_NAME>
3-(methoxymethoxy)-1,4-diphenylazetidin-2-one
> <PUBCHEM_IUPAC_SYSTEMATIC_NAME>
3-(methoxymethoxy)-1,4-diphenyl-azetidin-2-one
> <PUBCHEM_IUPAC_TRADITIONAL_NAME>
3-(methoxymethoxy)-1,4-diphenyl-azetidin-2-one
> <PUBCHEM_IUPAC_INCHI>
InChI=1S/C17H17NO3/c1-20-12-21-16-15(13-8-4-2-5-9-13)18(17(16)19)14-10-6-3-7-11-14/h2-11,15-16H,12H2,1H3
> <PUBCHEM_IUPAC_INCHIKEY>
GFVSKQIIHDRGOK-UHFFFAOYSA-N
> <PUBCHEM_XLOGP3_AA>
2.5
> <PUBCHEM_EXACT_MASS>
283.12084340
> <PUBCHEM_MOLECULAR_FORMULA>
C17H17NO3
> <PUBCHEM_MOLECULAR_WEIGHT>
283.32
> <PUBCHEM_OPENEYE_CAN_SMILES>
COCOC1C(N(C1=O)C2=CC=CC=C2)C3=CC=CC=C3
> <PUBCHEM_OPENEYE_ISO_SMILES>
COCOC1C(N(C1=O)C2=CC=CC=C2)C3=CC=CC=C3
> <PUBCHEM_CACTVS_TPSA>
38.8
> <PUBCHEM_MONOISOTOPIC_WEIGHT>
283.12084340
> <PUBCHEM_TOTAL_CHARGE>
0
> <PUBCHEM_HEAVY_ATOM_COUNT>
21
> <PUBCHEM_ATOM_DEF_STEREO_COUNT>
0
> <PUBCHEM_ATOM_UDEF_STEREO_COUNT>
2
> <PUBCHEM_BOND_DEF_STEREO_COUNT>
0
> <PUBCHEM_BOND_UDEF_STEREO_COUNT>
0
> <PUBCHEM_ISOTOPIC_ATOM_COUNT>
0
> <PUBCHEM_COMPONENT_COUNT>
1
> <PUBCHEM_CACTVS_TAUTO_COUNT>
-1
> <PUBCHEM_COORDINATE_TYPE>
1
5
255
> <PUBCHEM_BONDANNOTATIONS>
6  1  3
10  15  8
11  16  8
12  18  8
13  19  8
15  17  8
16  17  8
18  20  8
19  20  8
5  8  3
8  10  8
8  11  8
9  12  8
9  13  8
$$$$
