500115
  -OEChem-10302200282D
 41 42  0     1  0  0  0  0  0999 V2000
    4.0981    3.4535    0.0000 Br  0  0  0  0  0  0  0  0  0  0  0  0
    6.2731   -0.5003    0.0000 O   0  0  0  0  0  0  0  0  0  0  0  0
    3.7320    1.0875    0.0000 O   0  0  0  0  0  0  0  0  0  0  0  0
    7.5464   -2.1559    0.0000 O   0  0  0  0  0  0  0  0  0  0  0  0
    7.1962    1.0875    0.0000 O   0  0  0  0  0  0  0  0  0  0  0  0
    5.4641    4.0875    0.0000 O   0  0  0  0  0  0  0  0  0  0  0  0
    5.4641    1.0875    0.0000 N   0  0  0  0  0  0  0  0  0  0  0  0
    6.3301    2.5875    0.0000 N   0  0  0  0  0  0  0  0  0  0  0  0
    4.3763   -2.2604    0.0000 N   0  0  0  0  0  0  0  0  0  0  0  0
    4.7830   -3.1739    0.0000 N   0  3  0  0  0  0  0  0  0  0  0  0
    5.1898   -4.0875    0.0000 N   0  5  0  0  0  0  0  0  0  0  0  0
    5.4641    0.0875    0.0000 C   0  0  1  0  0  0  0  0  0  0  0  0
    4.6551   -0.5003    0.0000 C   0  0  0  0  0  0  0  0  0  0  0  0
    4.9641   -1.4514    0.0000 C   0  0  1  0  0  0  0  0  0  0  0  0
    5.9641   -1.4514    0.0000 C   0  0  1  0  0  0  0  0  0  0  0  0
    4.5981    1.5875    0.0000 C   0  0  3  0  0  0  0  0  0  0  0  0
    4.5981    2.5875    0.0000 C   0  0  3  0  0  0  0  0  0  0  0  0
    6.5519   -2.2604    0.0000 C   0  0  0  0  0  0  0  0  0  0  0  0
    6.3301    1.5875    0.0000 C   0  0  0  0  0  0  0  0  0  0  0  0
    5.4641    3.0875    0.0000 C   0  0  0  0  0  0  0  0  0  0  0  0
    3.5981    2.5875    0.0000 C   0  0  0  0  0  0  0  0  0  0  0  0
    2.8660    1.5875    0.0000 C   0  0  0  0  0  0  0  0  0  0  0  0
    2.0000    1.0875    0.0000 C   0  0  0  0  0  0  0  0  0  0  0  0
    6.0165    0.3689    0.0000 H   0  0  0  0  0  0  0  0  0  0  0  0
    4.3451    0.0366    0.0000 H   0  0  0  0  0  0  0  0  0  0  0  0
    4.0887   -0.7525    0.0000 H   0  0  0  0  0  0  0  0  0  0  0  0
    5.2456   -2.0038    0.0000 H   0  0  0  0  0  0  0  0  0  0  0  0
    6.5765   -1.3544    0.0000 H   0  0  0  0  0  0  0  0  0  0  0  0
    4.5981    0.9675    0.0000 H   0  0  0  0  0  0  0  0  0  0  0  0
    5.9946   -2.5322    0.0000 H   0  0  0  0  0  0  0  0  0  0  0  0
    6.7228   -2.8564    0.0000 H   0  0  0  0  0  0  0  0  0  0  0  0
    3.5981    3.2075    0.0000 H   0  0  0  0  0  0  0  0  0  0  0  0
    2.9781    2.5875    0.0000 H   0  0  0  0  0  0  0  0  0  0  0  0
    3.5981    1.9675    0.0000 H   0  0  0  0  0  0  0  0  0  0  0  0
    6.8671    2.8975    0.0000 H   0  0  0  0  0  0  0  0  0  0  0  0
    3.2646    2.0624    0.0000 H   0  0  0  0  0  0  0  0  0  0  0  0
    2.4675    2.0624    0.0000 H   0  0  0  0  0  0  0  0  0  0  0  0
    7.9108   -2.6574    0.0000 H   0  0  0  0  0  0  0  0  0  0  0  0
    1.6900    1.6244    0.0000 H   0  0  0  0  0  0  0  0  0  0  0  0
    1.4631    0.7775    0.0000 H   0  0  0  0  0  0  0  0  0  0  0  0
    2.3100    0.5505    0.0000 H   0  0  0  0  0  0  0  0  0  0  0  0
  1 17  1  0  0  0  0
  2 12  1  0  0  0  0
  2 15  1  0  0  0  0
  3 16  1  0  0  0  0
  3 22  1  0  0  0  0
  4 18  1  0  0  0  0
  4 38  1  0  0  0  0
  5 19  2  0  0  0  0
  6 20  2  0  0  0  0
 12  7  1  6  0  0  0
  7 16  1  0  0  0  0
  7 19  1  0  0  0  0
  8 19  1  0  0  0  0
  8 20  1  0  0  0  0
  8 35  1  0  0  0  0
  9 10  2  0  0  0  0
 14  9  1  1  0  0  0
 10 11  2  0  0  0  0
 12 13  1  0  0  0  0
 12 24  1  0  0  0  0
 13 14  1  0  0  0  0
 13 25  1  0  0  0  0
 13 26  1  0  0  0  0
 14 15  1  0  0  0  0
 14 27  1  0  0  0  0
 15 18  1  6  0  0  0
 15 28  1  0  0  0  0
 16 17  1  0  0  0  0
 16 29  1  0  0  0  0
 17 20  1  0  0  0  0
 17 21  1  0  0  0  0
 18 30  1  0  0  0  0
 18 31  1  0  0  0  0
 21 32  1  0  0  0  0
 21 33  1  0  0  0  0
 21 34  1  0  0  0  0
 22 23  1  0  0  0  0
 22 36  1  0  0  0  0
 22 37  1  0  0  0  0
 23 39  1  0  0  0  0
 23 40  1  0  0  0  0
 23 41  1  0  0  0  0
M  CHG  2  10   1  11  -1
M  END
> <PUBCHEM_COMPOUND_CID>
500115
> <PUBCHEM_COMPOUND_CANONICALIZED>
1
> <PUBCHEM_CACTVS_COMPLEXITY>
542
> <PUBCHEM_CACTVS_HBOND_ACCEPTOR>
7
> <PUBCHEM_CACTVS_HBOND_DONOR>
2
> <PUBCHEM_CACTVS_ROTATABLE_BOND>
5
> <PUBCHEM_CACTVS_SUBSKEYS>
AAADceBzuAAAEAAAAAAAAAAAAAAAASAAAAAsAAAAAAAAAAAAAAAAHgBYCAABjDzhgAYDAAPABgAKAAEQEAAAAAAAAAAAAAEIAACjEA4AwAAPQAAOJyKDAACwMAIAAAAAAAAAAAAAAAAAAAAAAAAAAAAAAA==
> <PUBCHEM_IUPAC_OPENEYE_NAME>
1-[(2R,4S,5S)-4-azido-5-(hydroxymethyl)tetrahydrofuran-2-yl]-5-bromo-6-ethoxy-5-methyl-hexahydropyrimidine-2,4-dione
> <PUBCHEM_IUPAC_CAS_NAME>
1-[(2R,4S,5S)-4-azido-5-(hydroxymethyl)-2-oxolanyl]-5-bromo-6-ethoxy-5-methyl-1,3-diazinane-2,4-dione
> <PUBCHEM_IUPAC_NAME_MARKUP>
1-[(2<I>R</I>,4<I>S</I>,5<I>S</I>)-4-azido-5-(hydroxymethyl)oxolan-2-yl]-5-bromo-6-ethoxy-5-methyl-1,3-diazinane-2,4-dione
> <PUBCHEM_IUPAC_NAME>
1-[(2R,4S,5S)-4-azido-5-(hydroxymethyl)oxolan-2-yl]-5-bromo-6-ethoxy-5-methyl-1,3-diazinane-2,4-dione
> <PUBCHEM_IUPAC_SYSTEMATIC_NAME>
1-[(2R,4S,5S)-4-azido-5-(hydroxymethyl)oxolan-2-yl]-5-bromanyl-6-ethoxy-5-methyl-1,3-diazinane-2,4-dione
> <PUBCHEM_IUPAC_TRADITIONAL_NAME>
1-[(2R,4S,5S)-4-azido-5-methylol-tetrahydrofuran-2-yl]-5-bromo-6-ethoxy-5-methyl-5,6-dihydrouracil
> <PUBCHEM_IUPAC_INCHI>
InChI=1S/C12H18BrN5O5/c1-3-22-10-12(2,13)9(20)15-11(21)18(10)8-4-6(16-17-14)7(5-19)23-8/h6-8,10,19H,3-5H2,1-2H3,(H,15,20,21)/t6-,7+,8+,10?,12?/m0/s1
> <PUBCHEM_IUPAC_INCHIKEY>
PEXTUNYSUGCNRK-IDPSTWFOSA-N
> <PUBCHEM_XLOGP3_AA>
1
> <PUBCHEM_EXACT_MASS>
391.04913
> <PUBCHEM_MOLECULAR_FORMULA>
C12H18BrN5O5
> <PUBCHEM_MOLECULAR_WEIGHT>
392.21
> <PUBCHEM_OPENEYE_CAN_SMILES>
CCOC1C(C(=O)NC(=O)N1C2CC(C(O2)CO)N=[N+]=[N-])(C)Br
> <PUBCHEM_OPENEYE_ISO_SMILES>
CCOC1C(C(=O)NC(=O)N1[C@H]2C[C@@H]([C@H](O2)CO)N=[N+]=[N-])(C)Br
> <PUBCHEM_CACTVS_TPSA>
103
> <PUBCHEM_MONOISOTOPIC_WEIGHT>
391.04913
> <PUBCHEM_TOTAL_CHARGE>
0
> <PUBCHEM_HEAVY_ATOM_COUNT>
23
> <PUBCHEM_ATOM_DEF_STEREO_COUNT>
3
> <PUBCHEM_ATOM_UDEF_STEREO_COUNT>
2
> <PUBCHEM_BOND_DEF_STEREO_COUNT>
0
> <PUBCHEM_BOND_UDEF_STEREO_COUNT>
0
> <PUBCHEM_ISOTOPIC_ATOM_COUNT>
0
> <PUBCHEM_COMPONENT_COUNT>
1
> <PUBCHEM_CACTVS_TAUTO_COUNT>
-1
> <PUBCHEM_COORDINATE_TYPE>
1
5
255
> <PUBCHEM_BONDANNOTATIONS>
17  1  3
15  18  6
16  3  3
12  7  6
14  9  5
$$$$
