500129
  -OEChem-10302200282D
 49 52  0     1  0  0  0  0  0999 V2000
    4.4391   -0.9475    0.0000 S   0  0  0  0  0  0  0  0  0  0  0  0
    5.0307   -0.1618    0.0000 O   0  0  0  0  0  0  0  0  0  0  0  0
    6.6487   -0.1618    0.0000 O   0  0  0  0  0  0  0  0  0  0  0  0
    4.9000    0.7680    0.0000 C   0  0  3  0  0  0  0  0  0  0  0  0
    5.8397    0.4260    0.0000 C   0  0  0  0  0  0  0  0  0  0  0  0
    4.2329    0.0310    0.0000 C   0  0  3  0  0  0  0  0  0  0  0  0
    4.4000    1.6341    0.0000 C   0  0  0  0  0  0  0  0  0  0  0  0
    3.3251    0.4361    0.0000 C   0  0  0  0  0  0  0  0  0  0  0  0
    3.4282    1.4249    0.0000 C   0  0  0  0  0  0  0  0  0  0  0  0
    6.7794    0.7680    0.0000 C   0  0  0  0  0  0  0  0  0  0  0  0
    7.2794    1.6341    0.0000 C   0  0  0  0  0  0  0  0  0  0  0  0
    4.5736    2.6189    0.0000 C   0  0  0  0  0  0  0  0  0  0  0  0
    7.1057    2.6189    0.0000 C   0  0  0  0  0  0  0  0  0  0  0  0
    5.3397   -1.1128    0.0000 C   0  0  0  0  0  0  0  0  0  0  0  0
    6.3397   -1.1128    0.0000 C   0  0  0  0  0  0  0  0  0  0  0  0
    5.3397    3.2617    0.0000 C   0  0  0  0  0  0  0  0  0  0  0  0
    6.3397    3.2617    0.0000 C   0  0  0  0  0  0  0  0  0  0  0  0
    3.6948   -1.6153    0.0000 C   0  0  0  0  0  0  0  0  0  0  0  0
    2.7443   -1.3047    0.0000 C   0  0  0  0  0  0  0  0  0  0  0  0
    3.9010   -2.5938    0.0000 C   0  0  0  0  0  0  0  0  0  0  0  0
    2.0000   -1.9725    0.0000 C   0  0  0  0  0  0  0  0  0  0  0  0
    3.1567   -3.2617    0.0000 C   0  0  0  0  0  0  0  0  0  0  0  0
    2.2062   -2.9510    0.0000 C   0  0  0  0  0  0  0  0  0  0  0  0
    5.2985    1.2430    0.0000 H   0  0  0  0  0  0  0  0  0  0  0  0
    3.7506   -0.3585    0.0000 H   0  0  0  0  0  0  0  0  0  0  0  0
    2.7186    0.5649    0.0000 H   0  0  0  0  0  0  0  0  0  0  0  0
    3.1334   -0.1535    0.0000 H   0  0  0  0  0  0  0  0  0  0  0  0
    3.3621    2.0413    0.0000 H   0  0  0  0  0  0  0  0  0  0  0  0
    2.8082    1.4240    0.0000 H   0  0  0  0  0  0  0  0  0  0  0  0
    6.8154    0.1491    0.0000 H   0  0  0  0  0  0  0  0  0  0  0  0
    7.3827    0.6251    0.0000 H   0  0  0  0  0  0  0  0  0  0  0  0
    7.7048    1.1831    0.0000 H   0  0  0  0  0  0  0  0  0  0  0  0
    7.8334    1.9123    0.0000 H   0  0  0  0  0  0  0  0  0  0  0  0
    4.0367    2.9289    0.0000 H   0  0  0  0  0  0  0  0  0  0  0  0
    7.7215    2.5469    0.0000 H   0  0  0  0  0  0  0  0  0  0  0  0
    7.3513    3.1882    0.0000 H   0  0  0  0  0  0  0  0  0  0  0  0
    4.7332   -1.2417    0.0000 H   0  0  0  0  0  0  0  0  0  0  0  0
    5.4045   -1.7294    0.0000 H   0  0  0  0  0  0  0  0  0  0  0  0
    6.2749   -1.7294    0.0000 H   0  0  0  0  0  0  0  0  0  0  0  0
    6.9461   -1.2417    0.0000 H   0  0  0  0  0  0  0  0  0  0  0  0
    5.5175    3.8556    0.0000 H   0  0  0  0  0  0  0  0  0  0  0  0
    4.8217    3.6024    0.0000 H   0  0  0  0  0  0  0  0  0  0  0  0
    6.8577    3.6024    0.0000 H   0  0  0  0  0  0  0  0  0  0  0  0
    6.1619    3.8556    0.0000 H   0  0  0  0  0  0  0  0  0  0  0  0
    2.6164   -0.6980    0.0000 H   0  0  0  0  0  0  0  0  0  0  0  0
    4.4904   -2.7864    0.0000 H   0  0  0  0  0  0  0  0  0  0  0  0
    1.4107   -1.7799    0.0000 H   0  0  0  0  0  0  0  0  0  0  0  0
    3.2846   -3.8683    0.0000 H   0  0  0  0  0  0  0  0  0  0  0  0
    1.7448   -3.3651    0.0000 H   0  0  0  0  0  0  0  0  0  0  0  0
  1  6  1  0  0  0  0
  1 18  1  0  0  0  0
  2  5  1  0  0  0  0
  2 14  1  0  0  0  0
  3  5  1  0  0  0  0
  3 15  1  0  0  0  0
  4  5  1  0  0  0  0
  4  6  1  0  0  0  0
  4  7  1  0  0  0  0
  4 24  1  0  0  0  0
  5 10  1  0  0  0  0
  6  8  1  0  0  0  0
  6 25  1  0  0  0  0
  7  9  1  0  0  0  0
  7 12  2  3  0  0  0
  8  9  1  0  0  0  0
  8 26  1  0  0  0  0
  8 27  1  0  0  0  0
  9 28  1  0  0  0  0
  9 29  1  0  0  0  0
 10 11  1  0  0  0  0
 10 30  1  0  0  0  0
 10 31  1  0  0  0  0
 11 13  1  0  0  0  0
 11 32  1  0  0  0  0
 11 33  1  0  0  0  0
 12 16  1  0  0  0  0
 12 34  1  0  0  0  0
 13 17  1  0  0  0  0
 13 35  1  0  0  0  0
 13 36  1  0  0  0  0
 14 15  1  0  0  0  0
 14 37  1  0  0  0  0
 14 38  1  0  0  0  0
 15 39  1  0  0  0  0
 15 40  1  0  0  0  0
 16 17  1  0  0  0  0
 16 41  1  0  0  0  0
 16 42  1  0  0  0  0
 17 43  1  0  0  0  0
 17 44  1  0  0  0  0
 18 19  2  0  0  0  0
 18 20  1  0  0  0  0
 19 21  1  0  0  0  0
 19 45  1  0  0  0  0
 20 22  2  0  0  0  0
 20 46  1  0  0  0  0
 21 23  2  0  0  0  0
 21 47  1  0  0  0  0
 22 23  1  0  0  0  0
 22 48  1  0  0  0  0
 23 49  1  0  0  0  0
M  END
> <PUBCHEM_COMPOUND_CID>
500129
> <PUBCHEM_COMPOUND_CANONICALIZED>
1
> <PUBCHEM_CACTVS_COMPLEXITY>
421
> <PUBCHEM_CACTVS_HBOND_ACCEPTOR>
3
> <PUBCHEM_CACTVS_HBOND_DONOR>
0
> <PUBCHEM_CACTVS_ROTATABLE_BOND>
2
> <PUBCHEM_CACTVS_SUBSKEYS>
AAADceB4MABAAAAAAAAAAAAAAAAAAaIAAAAwAAAAAAAAAEABAAAAGgQAAAAADQSk0AKwCYAABAiAAiBCAAACAAAgCBAIiBgAAIgZICKgERCiIAAkwAAuiAeAwOAOAAAAAAAAAAAAAAAAAAAAAAAAAgAAAA==
> <PUBCHEM_IUPAC_OPENEYE_NAME>
3'-phenylsulfanylspiro[1,3-dioxolane-2,4'-2,3,3a,5,6,7,8,9-octahydro-1H-cyclopenta[9]annulene]
> <PUBCHEM_IUPAC_CAS_NAME>
3'-(phenylthio)spiro[1,3-dioxolane-2,4'-2,3,3a,5,6,7,8,9-octahydro-1H-cyclopenta[9]annulene]
> <PUBCHEM_IUPAC_NAME_MARKUP>
3&apos;-phenylsulfanylspiro[1,3-dioxolane-2,4&apos;-2,3,3<I>a</I>,5,6,7,8,9-octahydro-1<I>H</I>-cyclopenta[9]annulene]
> <PUBCHEM_IUPAC_NAME>
3'-phenylsulfanylspiro[1,3-dioxolane-2,4'-2,3,3a,5,6,7,8,9-octahydro-1H-cyclopenta[9]annulene]
> <PUBCHEM_IUPAC_SYSTEMATIC_NAME>
3'-phenylsulfanylspiro[1,3-dioxolane-2,4'-2,3,3a,5,6,7,8,9-octahydro-1H-cyclopenta[9]annulene]
> <PUBCHEM_IUPAC_TRADITIONAL_NAME>
3'-(phenylthio)spiro[1,3-dioxolane-2,4'-2,3,3a,5,6,7,8,9-octahydro-1H-cyclopentacyclononene]
> <PUBCHEM_IUPAC_INCHI>
InChI=1S/C20H26O2S/c1-2-7-13-20(21-14-15-22-20)19-16(8-4-1)11-12-18(19)23-17-9-5-3-6-10-17/h3,5-6,8-10,18-19H,1-2,4,7,11-15H2
> <PUBCHEM_IUPAC_INCHIKEY>
IFZRGLLWHBHOTE-UHFFFAOYSA-N
> <PUBCHEM_XLOGP3_AA>
4.6
> <PUBCHEM_EXACT_MASS>
330.16535124
> <PUBCHEM_MOLECULAR_FORMULA>
C20H26O2S
> <PUBCHEM_MOLECULAR_WEIGHT>
330.5
> <PUBCHEM_OPENEYE_CAN_SMILES>
C1CCC=C2CCC(C2C3(CC1)OCCO3)SC4=CC=CC=C4
> <PUBCHEM_OPENEYE_ISO_SMILES>
C1CCC=C2CCC(C2C3(CC1)OCCO3)SC4=CC=CC=C4
> <PUBCHEM_CACTVS_TPSA>
43.8
> <PUBCHEM_MONOISOTOPIC_WEIGHT>
330.16535124
> <PUBCHEM_TOTAL_CHARGE>
0
> <PUBCHEM_HEAVY_ATOM_COUNT>
23
> <PUBCHEM_ATOM_DEF_STEREO_COUNT>
0
> <PUBCHEM_ATOM_UDEF_STEREO_COUNT>
2
> <PUBCHEM_BOND_DEF_STEREO_COUNT>
0
> <PUBCHEM_BOND_UDEF_STEREO_COUNT>
1
> <PUBCHEM_ISOTOPIC_ATOM_COUNT>
0
> <PUBCHEM_COMPONENT_COUNT>
1
> <PUBCHEM_CACTVS_TAUTO_COUNT>
-1
> <PUBCHEM_COORDINATE_TYPE>
1
5
255
> <PUBCHEM_BONDANNOTATIONS>
6  1  3
18  19  8
18  20  8
19  21  8
20  22  8
21  23  8
22  23  8
4  7  3
7  12  1
$$$$
