500232
  -OEChem-10302200282D
 28 27  0     1  0  0  0  0  0999 V2000
    3.4030   -0.0950    0.0000 P   0  0  0  0  0  0  0  0  0  0  0  0
    6.0010    1.4050    0.0000 O   0  0  0  0  0  0  0  0  0  0  0  0
    2.5369   -0.5950    0.0000 O   0  0  0  0  0  0  0  0  0  0  0  0
    2.9030    0.7710    0.0000 O   0  0  0  0  0  0  0  0  0  0  0  0
   10.3312   -0.0950    0.0000 O   0  0  0  0  0  0  0  0  0  0  0  0
    3.9030   -0.9610    0.0000 O   0  0  0  0  0  0  0  0  0  0  0  0
    9.4651    1.4050    0.0000 O   0  0  0  0  0  0  0  0  0  0  0  0
    5.1350   -0.0950    0.0000 N   0  0  0  0  0  0  0  0  0  0  0  0
    8.5991   -1.0950    0.0000 N   0  0  0  0  0  0  0  0  0  0  0  0
    7.7331    0.4050    0.0000 C   0  0  0  0  0  0  0  0  0  0  0  0
    6.8671   -0.0950    0.0000 C   0  0  0  0  0  0  0  0  0  0  0  0
    8.5991   -0.0950    0.0000 C   0  0  3  0  0  0  0  0  0  0  0  0
    6.0010    0.4050    0.0000 C   0  0  0  0  0  0  0  0  0  0  0  0
    4.2690    0.4050    0.0000 C   0  0  0  0  0  0  0  0  0  0  0  0
    9.4651    0.4050    0.0000 C   0  0  0  0  0  0  0  0  0  0  0  0
    8.1316    0.8799    0.0000 H   0  0  0  0  0  0  0  0  0  0  0  0
    7.3346    0.8799    0.0000 H   0  0  0  0  0  0  0  0  0  0  0  0
    6.4685   -0.5699    0.0000 H   0  0  0  0  0  0  0  0  0  0  0  0
    7.2656   -0.5699    0.0000 H   0  0  0  0  0  0  0  0  0  0  0  0
    8.0622   -0.4050    0.0000 H   0  0  0  0  0  0  0  0  0  0  0  0
    4.6675    0.8799    0.0000 H   0  0  0  0  0  0  0  0  0  0  0  0
    3.8705    0.8799    0.0000 H   0  0  0  0  0  0  0  0  0  0  0  0
    5.1350   -0.7150    0.0000 H   0  0  0  0  0  0  0  0  0  0  0  0
    9.1360   -1.4050    0.0000 H   0  0  0  0  0  0  0  0  0  0  0  0
    8.0622   -1.4050    0.0000 H   0  0  0  0  0  0  0  0  0  0  0  0
    2.0000   -0.2850    0.0000 H   0  0  0  0  0  0  0  0  0  0  0  0
    3.2130    1.3080    0.0000 H   0  0  0  0  0  0  0  0  0  0  0  0
   10.8681    0.2150    0.0000 H   0  0  0  0  0  0  0  0  0  0  0  0
  1  3  1  0  0  0  0
  1  4  1  0  0  0  0
  1  6  2  0  0  0  0
  1 14  1  0  0  0  0
  2 13  2  0  0  0  0
  3 26  1  0  0  0  0
  4 27  1  0  0  0  0
  5 15  1  0  0  0  0
  5 28  1  0  0  0  0
  7 15  2  0  0  0  0
  8 13  1  0  0  0  0
  8 14  1  0  0  0  0
  8 23  1  0  0  0  0
  9 12  1  0  0  0  0
  9 24  1  0  0  0  0
  9 25  1  0  0  0  0
 10 11  1  0  0  0  0
 10 12  1  0  0  0  0
 10 16  1  0  0  0  0
 10 17  1  0  0  0  0
 11 13  1  0  0  0  0
 11 18  1  0  0  0  0
 11 19  1  0  0  0  0
 12 15  1  0  0  0  0
 12 20  1  0  0  0  0
 14 21  1  0  0  0  0
 14 22  1  0  0  0  0
M  END
> <PUBCHEM_COMPOUND_CID>
500232
> <PUBCHEM_COMPOUND_CANONICALIZED>
1
> <PUBCHEM_CACTVS_COMPLEXITY>
287
> <PUBCHEM_CACTVS_HBOND_ACCEPTOR>
7
> <PUBCHEM_CACTVS_HBOND_DONOR>
5
> <PUBCHEM_CACTVS_ROTATABLE_BOND>
6
> <PUBCHEM_CACTVS_SUBSKEYS>
AAADccBjOAIAAAAAAAAAAAAAAAAAAAAAAAAAAAAAAAAAAAAAAAAAHggQCCAACCjBgAQACALAAhAIQAGQGIAAAAAAAAAAAIGIAAACABIAgAAEQAAEEgAAAACcFwIAAAAAAAAAAAAAAAAAAAAAAAAAAAAAAA==
> <PUBCHEM_IUPAC_OPENEYE_NAME>
2-amino-5-oxo-5-(phosphonomethylamino)pentanoic acid
> <PUBCHEM_IUPAC_CAS_NAME>
2-amino-5-oxo-5-(phosphonomethylamino)pentanoic acid
> <PUBCHEM_IUPAC_NAME_MARKUP>
2-amino-5-oxo-5-(phosphonomethylamino)pentanoic acid
> <PUBCHEM_IUPAC_NAME>
2-amino-5-oxo-5-(phosphonomethylamino)pentanoic acid
> <PUBCHEM_IUPAC_SYSTEMATIC_NAME>
2-azanyl-5-oxidanylidene-5-(phosphonomethylamino)pentanoic acid
> <PUBCHEM_IUPAC_TRADITIONAL_NAME>
2-amino-5-keto-5-(phosphonomethylamino)valeric acid
> <PUBCHEM_IUPAC_INCHI>
InChI=1S/C6H13N2O6P/c7-4(6(10)11)1-2-5(9)8-3-15(12,13)14/h4H,1-3,7H2,(H,8,9)(H,10,11)(H2,12,13,14)
> <PUBCHEM_IUPAC_INCHIKEY>
GWOPGJQZELPHHS-UHFFFAOYSA-N
> <PUBCHEM_XLOGP3_AA>
-5.5
> <PUBCHEM_EXACT_MASS>
240.05112314
> <PUBCHEM_MOLECULAR_FORMULA>
C6H13N2O6P
> <PUBCHEM_MOLECULAR_WEIGHT>
240.15
> <PUBCHEM_OPENEYE_CAN_SMILES>
C(CC(=O)NCP(=O)(O)O)C(C(=O)O)N
> <PUBCHEM_OPENEYE_ISO_SMILES>
C(CC(=O)NCP(=O)(O)O)C(C(=O)O)N
> <PUBCHEM_CACTVS_TPSA>
150
> <PUBCHEM_MONOISOTOPIC_WEIGHT>
240.05112314
> <PUBCHEM_TOTAL_CHARGE>
0
> <PUBCHEM_HEAVY_ATOM_COUNT>
15
> <PUBCHEM_ATOM_DEF_STEREO_COUNT>
0
> <PUBCHEM_ATOM_UDEF_STEREO_COUNT>
1
> <PUBCHEM_BOND_DEF_STEREO_COUNT>
0
> <PUBCHEM_BOND_UDEF_STEREO_COUNT>
0
> <PUBCHEM_ISOTOPIC_ATOM_COUNT>
0
> <PUBCHEM_COMPONENT_COUNT>
1
> <PUBCHEM_CACTVS_TAUTO_COUNT>
-1
> <PUBCHEM_COORDINATE_TYPE>
1
5
255
> <PUBCHEM_BONDANNOTATIONS>
12  9  3
$$$$
