500249
  -OEChem-10302200282D
 19 19  0     1  0  0  0  0  0999 V2000
    6.2633    0.5282    0.0000 O   0  0  0  0  0  0  0  0  0  0  0  0
    2.0000   -0.1410    0.0000 O   0  0  0  0  0  0  0  0  0  0  0  0
    5.7281   -1.1191    0.0000 O   0  0  0  0  0  0  0  0  0  0  0  0
    3.7601   -0.4197    0.0000 N   0  0  0  0  0  0  0  0  0  0  0  0
    4.5691    0.1681    0.0000 C   0  0  3  0  0  0  0  0  0  0  0  0
    4.2601    1.1191    0.0000 C   0  0  0  0  0  0  0  0  0  0  0  0
    3.2601    1.1191    0.0000 C   0  0  0  0  0  0  0  0  0  0  0  0
    2.9511    0.1681    0.0000 C   0  0  0  0  0  0  0  0  0  0  0  0
    5.5202   -0.1410    0.0000 C   0  0  0  0  0  0  0  0  0  0  0  0
    7.2144    0.2192    0.0000 C   0  0  0  0  0  0  0  0  0  0  0  0
    4.6661   -0.4443    0.0000 H   0  0  0  0  0  0  0  0  0  0  0  0
    4.8665    1.2480    0.0000 H   0  0  0  0  0  0  0  0  0  0  0  0
    4.1953    1.7357    0.0000 H   0  0  0  0  0  0  0  0  0  0  0  0
    3.3249    1.7357    0.0000 H   0  0  0  0  0  0  0  0  0  0  0  0
    2.6536    1.2480    0.0000 H   0  0  0  0  0  0  0  0  0  0  0  0
    3.7601   -1.0397    0.0000 H   0  0  0  0  0  0  0  0  0  0  0  0
    7.0228   -0.3705    0.0000 H   0  0  0  0  0  0  0  0  0  0  0  0
    7.8040    0.0276    0.0000 H   0  0  0  0  0  0  0  0  0  0  0  0
    7.4059    0.8088    0.0000 H   0  0  0  0  0  0  0  0  0  0  0  0
  1  9  1  0  0  0  0
  1 10  1  0  0  0  0
  2  8  2  0  0  0  0
  3  9  2  0  0  0  0
  4  5  1  0  0  0  0
  4  8  1  0  0  0  0
  4 16  1  0  0  0  0
  5  6  1  0  0  0  0
  5  9  1  0  0  0  0
  5 11  1  0  0  0  0
  6  7  1  0  0  0  0
  6 12  1  0  0  0  0
  6 13  1  0  0  0  0
  7  8  1  0  0  0  0
  7 14  1  0  0  0  0
  7 15  1  0  0  0  0
 10 17  1  0  0  0  0
 10 18  1  0  0  0  0
 10 19  1  0  0  0  0
M  END
> <PUBCHEM_COMPOUND_CID>
500249
> <PUBCHEM_COMPOUND_CANONICALIZED>
1
> <PUBCHEM_CACTVS_COMPLEXITY>
166
> <PUBCHEM_CACTVS_HBOND_ACCEPTOR>
3
> <PUBCHEM_CACTVS_HBOND_DONOR>
1
> <PUBCHEM_CACTVS_ROTATABLE_BOND>
2
> <PUBCHEM_CACTVS_SUBSKEYS>
AAADccBiMAAAAAAAAAAAAAAAAAAAAWAAAAAAAAAAAAAAAAAAAAAAHgAQAAAACCjBgAYCCALABAAIAAGQGAAAAAAAAAAAAIGIAAACABIAgCAFAAAEFgCQAACcFwAAAAAAAAAAAAAAAAAAAAAAAAAAAAAAAA==
> <PUBCHEM_IUPAC_OPENEYE_NAME>
methyl 5-oxopyrrolidine-2-carboxylate
> <PUBCHEM_IUPAC_CAS_NAME>
5-oxo-2-pyrrolidinecarboxylic acid methyl ester
> <PUBCHEM_IUPAC_NAME_MARKUP>
methyl 5-oxopyrrolidine-2-carboxylate
> <PUBCHEM_IUPAC_NAME>
methyl 5-oxopyrrolidine-2-carboxylate
> <PUBCHEM_IUPAC_SYSTEMATIC_NAME>
methyl 5-oxidanylidenepyrrolidine-2-carboxylate
> <PUBCHEM_IUPAC_TRADITIONAL_NAME>
5-ketopyrrolidine-2-carboxylic acid methyl ester
> <PUBCHEM_IUPAC_INCHI>
InChI=1S/C6H9NO3/c1-10-6(9)4-2-3-5(8)7-4/h4H,2-3H2,1H3,(H,7,8)
> <PUBCHEM_IUPAC_INCHIKEY>
HQGPKMSGXAUKHT-UHFFFAOYSA-N
> <PUBCHEM_XLOGP3_AA>
-0.4
> <PUBCHEM_EXACT_MASS>
143.058243149
> <PUBCHEM_MOLECULAR_FORMULA>
C6H9NO3
> <PUBCHEM_MOLECULAR_WEIGHT>
143.14
> <PUBCHEM_OPENEYE_CAN_SMILES>
COC(=O)C1CCC(=O)N1
> <PUBCHEM_OPENEYE_ISO_SMILES>
COC(=O)C1CCC(=O)N1
> <PUBCHEM_CACTVS_TPSA>
55.4
> <PUBCHEM_MONOISOTOPIC_WEIGHT>
143.058243149
> <PUBCHEM_TOTAL_CHARGE>
0
> <PUBCHEM_HEAVY_ATOM_COUNT>
10
> <PUBCHEM_ATOM_DEF_STEREO_COUNT>
0
> <PUBCHEM_ATOM_UDEF_STEREO_COUNT>
1
> <PUBCHEM_BOND_DEF_STEREO_COUNT>
0
> <PUBCHEM_BOND_UDEF_STEREO_COUNT>
0
> <PUBCHEM_ISOTOPIC_ATOM_COUNT>
0
> <PUBCHEM_COMPONENT_COUNT>
1
> <PUBCHEM_CACTVS_TAUTO_COUNT>
3
> <PUBCHEM_COORDINATE_TYPE>
1
5
255
> <PUBCHEM_BONDANNOTATIONS>
5  9  3
$$$$
