500203
  -OEChem-10302200282D
 33 35  0     1  0  0  0  0  0999 V2000
    5.0298   -0.7063    0.0000 O   0  0  0  0  0  0  0  0  0  0  0  0
    2.4608   -0.3973    0.0000 O   0  0  0  0  0  0  0  0  0  0  0  0
    3.1330   -2.4664    0.0000 O   0  0  0  0  0  0  0  0  0  0  0  0
    4.9019   -3.3799    0.0000 O   0  0  0  0  0  0  0  0  0  0  0  0
    2.4888    0.8815    0.0000 O   0  0  0  0  0  0  0  0  0  0  0  0
    4.2208    3.8815    0.0000 O   0  0  0  0  0  0  0  0  0  0  0  0
    4.2208    0.8815    0.0000 N   0  0  0  0  0  0  0  0  0  0  0  0
    3.3548    2.3815    0.0000 N   0  0  0  0  0  0  0  0  0  0  0  0
    5.9808    0.8468    0.0000 N   0  0  0  0  0  0  0  0  0  0  0  0
    5.9808    2.9162    0.0000 N   0  0  0  0  0  0  0  0  0  0  0  0
    3.4118   -0.7063    0.0000 C   0  0  1  0  0  0  0  0  0  0  0  0
    4.2208   -0.1185    0.0000 C   0  0  1  0  0  0  0  0  0  0  0  0
    3.7208   -1.6573    0.0000 C   0  0  1  0  0  0  0  0  0  0  0  0
    4.7208   -1.6573    0.0000 C   0  0  1  0  0  0  0  0  0  0  0  0
    5.3086   -2.4664    0.0000 C   0  0  0  0  0  0  0  0  0  0  0  0
    5.0868    1.3815    0.0000 C   0  0  0  0  0  0  0  0  0  0  0  0
    3.3548    1.3815    0.0000 C   0  0  0  0  0  0  0  0  0  0  0  0
    5.0868    2.3815    0.0000 C   0  0  0  0  0  0  0  0  0  0  0  0
    4.2208    2.8815    0.0000 C   0  0  0  0  0  0  0  0  0  0  0  0
    6.8869    1.3607    0.0000 C   0  0  0  0  0  0  0  0  0  0  0  0
    6.8869    2.4023    0.0000 C   0  0  0  0  0  0  0  0  0  0  0  0
    3.3148   -0.0939    0.0000 H   0  0  0  0  0  0  0  0  0  0  0  0
    3.6684    0.1630    0.0000 H   0  0  0  0  0  0  0  0  0  0  0  0
    4.0023   -2.2098    0.0000 H   0  0  0  0  0  0  0  0  0  0  0  0
    5.3332   -1.5604    0.0000 H   0  0  0  0  0  0  0  0  0  0  0  0
    5.8226   -2.8131    0.0000 H   0  0  0  0  0  0  0  0  0  0  0  0
    5.7393   -2.0204    0.0000 H   0  0  0  0  0  0  0  0  0  0  0  0
    2.0000   -0.8121    0.0000 H   0  0  0  0  0  0  0  0  0  0  0  0
    3.3852   -3.0328    0.0000 H   0  0  0  0  0  0  0  0  0  0  0  0
    2.8179    2.6915    0.0000 H   0  0  0  0  0  0  0  0  0  0  0  0
    5.2663   -3.8815    0.0000 H   0  0  0  0  0  0  0  0  0  0  0  0
    7.4226    1.0486    0.0000 H   0  0  0  0  0  0  0  0  0  0  0  0
    7.4226    2.7144    0.0000 H   0  0  0  0  0  0  0  0  0  0  0  0
  1 12  1  0  0  0  0
  1 14  1  0  0  0  0
 11  2  1  1  0  0  0
  2 28  1  0  0  0  0
 13  3  1  1  0  0  0
  3 29  1  0  0  0  0
  4 15  1  0  0  0  0
  4 31  1  0  0  0  0
  5 17  2  0  0  0  0
  6 19  2  0  0  0  0
 12  7  1  6  0  0  0
  7 16  1  0  0  0  0
  7 17  1  0  0  0  0
  8 17  1  0  0  0  0
  8 19  1  0  0  0  0
  8 30  1  0  0  0  0
  9 16  2  0  0  0  0
  9 20  1  0  0  0  0
 10 18  2  0  0  0  0
 10 21  1  0  0  0  0
 11 12  1  0  0  0  0
 11 13  1  0  0  0  0
 11 22  1  0  0  0  0
 12 23  1  0  0  0  0
 13 14  1  0  0  0  0
 13 24  1  0  0  0  0
 14 15  1  6  0  0  0
 14 25  1  0  0  0  0
 15 26  1  0  0  0  0
 15 27  1  0  0  0  0
 16 18  1  0  0  0  0
 18 19  1  0  0  0  0
 20 21  2  0  0  0  0
 20 32  1  0  0  0  0
 21 33  1  0  0  0  0
M  END
> <PUBCHEM_COMPOUND_CID>
500203
> <PUBCHEM_COMPOUND_CANONICALIZED>
1
> <PUBCHEM_CACTVS_COMPLEXITY>
448
> <PUBCHEM_CACTVS_HBOND_ACCEPTOR>
8
> <PUBCHEM_CACTVS_HBOND_DONOR>
4
> <PUBCHEM_CACTVS_ROTATABLE_BOND>
2
> <PUBCHEM_CACTVS_SUBSKEYS>
AAADccBzuAAAAAAAAAAAAAAAAAAAASAAAAAsWAAAAAAAAACxgAAAHgAQCAAACBzhlgYtsBPIFgCoARd3dACAgC0XEiAJUAG4dECDUEpAyCAeQIgPByLTAGDwMAIAAAAAAAAAAAAAAAAAAAAAAAAAAAAAAA==
> <PUBCHEM_IUPAC_OPENEYE_NAME>
1-[(2R,3R,4S,5R)-3,4-dihydroxy-5-(hydroxymethyl)tetrahydrofuran-2-yl]pteridine-2,4-dione
> <PUBCHEM_IUPAC_CAS_NAME>
1-[(2R,3R,4S,5R)-3,4-dihydroxy-5-(hydroxymethyl)-2-oxolanyl]pteridine-2,4-dione
> <PUBCHEM_IUPAC_NAME_MARKUP>
1-[(2<I>R</I>,3<I>R</I>,4<I>S</I>,5<I>R</I>)-3,4-dihydroxy-5-(hydroxymethyl)oxolan-2-yl]pteridine-2,4-dione
> <PUBCHEM_IUPAC_NAME>
1-[(2R,3R,4S,5R)-3,4-dihydroxy-5-(hydroxymethyl)oxolan-2-yl]pteridine-2,4-dione
> <PUBCHEM_IUPAC_SYSTEMATIC_NAME>
1-[(2R,3R,4S,5R)-5-(hydroxymethyl)-3,4-bis(oxidanyl)oxolan-2-yl]pteridine-2,4-dione
> <PUBCHEM_IUPAC_TRADITIONAL_NAME>
1-[(2R,3R,4S,5R)-3,4-dihydroxy-5-methylol-tetrahydrofuran-2-yl]pteridine-2,4-quinone
> <PUBCHEM_IUPAC_INCHI>
InChI=1S/C11H12N4O6/c16-3-4-6(17)7(18)10(21-4)15-8-5(12-1-2-13-8)9(19)14-11(15)20/h1-2,4,6-7,10,16-18H,3H2,(H,14,19,20)/t4-,6-,7-,10-/m1/s1
> <PUBCHEM_IUPAC_INCHIKEY>
UEXJVZRHJPPDOU-KQYNXXCUSA-N
> <PUBCHEM_XLOGP3_AA>
-2.4
> <PUBCHEM_EXACT_MASS>
296.07568412
> <PUBCHEM_MOLECULAR_FORMULA>
C11H12N4O6
> <PUBCHEM_MOLECULAR_WEIGHT>
296.24
> <PUBCHEM_OPENEYE_CAN_SMILES>
C1=CN=C2C(=N1)C(=O)NC(=O)N2C3C(C(C(O3)CO)O)O
> <PUBCHEM_OPENEYE_ISO_SMILES>
C1=CN=C2C(=N1)C(=O)NC(=O)N2[C@H]3[C@@H]([C@@H]([C@H](O3)CO)O)O
> <PUBCHEM_CACTVS_TPSA>
145
> <PUBCHEM_MONOISOTOPIC_WEIGHT>
296.07568412
> <PUBCHEM_TOTAL_CHARGE>
0
> <PUBCHEM_HEAVY_ATOM_COUNT>
21
> <PUBCHEM_ATOM_DEF_STEREO_COUNT>
4
> <PUBCHEM_ATOM_UDEF_STEREO_COUNT>
0
> <PUBCHEM_BOND_DEF_STEREO_COUNT>
0
> <PUBCHEM_BOND_UDEF_STEREO_COUNT>
0
> <PUBCHEM_ISOTOPIC_ATOM_COUNT>
0
> <PUBCHEM_COMPONENT_COUNT>
1
> <PUBCHEM_CACTVS_TAUTO_COUNT>
-1
> <PUBCHEM_COORDINATE_TYPE>
1
5
255
> <PUBCHEM_BONDANNOTATIONS>
10  18  8
10  21  8
14  15  6
16  18  8
18  19  8
11  2  5
20  21  8
13  3  5
12  7  6
7  16  8
7  17  8
8  17  8
8  19  8
9  16  8
9  20  8
$$$$
