500292
  -OEChem-10302200282D
 74 75  0     1  0  0  0  0  0999 V2000
    8.5701   -0.6127    0.0000 Si  0  0  0  0  0  0  0  0  0  0  0  0
    3.3968   -2.7172    0.0000 Si  0  0  0  0  0  0  0  0  0  0  0  0
    7.8270    0.0564    0.0000 O   0  0  0  0  0  0  0  0  0  0  0  0
    5.2579   -0.2526    0.0000 O   0  0  0  0  0  0  0  0  0  0  0  0
    3.9846   -1.9081    0.0000 O   0  0  0  0  0  0  0  0  0  0  0  0
    7.7990    1.3352    0.0000 O   0  0  0  0  0  0  0  0  0  0  0  0
    6.0669    4.3352    0.0000 O   0  0  0  0  0  0  0  0  0  0  0  0
    6.0669    1.3352    0.0000 N   0  0  0  0  0  0  0  0  0  0  0  0
    6.9329    2.8352    0.0000 N   0  0  0  0  0  0  0  0  0  0  0  0
    6.3412   -3.8398    0.0000 N   0  0  0  0  0  0  0  0  0  0  0  0
    6.5669   -1.2037    0.0000 C   0  0  2  0  0  0  0  0  0  0  0  0
    6.8759   -0.2526    0.0000 C   0  0  2  0  0  0  0  0  0  0  0  0
    5.5669   -1.2037    0.0000 C   0  0  1  0  0  0  0  0  0  0  0  0
    6.0669    0.3352    0.0000 C   0  0  1  0  0  0  0  0  0  0  0  0
    9.3133   -1.2818    0.0000 C   0  0  0  0  0  0  0  0  0  0  0  0
    4.9791   -2.0127    0.0000 C   0  0  0  0  0  0  0  0  0  0  0  0
    7.1547   -2.0127    0.0000 C   0  0  0  0  0  0  0  0  0  0  0  0
    2.8090   -3.5262    0.0000 C   0  0  0  0  0  0  0  0  0  0  0  0
    9.2392    0.1304    0.0000 C   0  0  0  0  0  0  0  0  0  0  0  0
    7.9010   -1.3558    0.0000 C   0  0  0  0  0  0  0  0  0  0  0  0
   10.0564   -1.9510    0.0000 C   0  0  0  0  0  0  0  0  0  0  0  0
    9.9824   -0.5387    0.0000 C   0  0  0  0  0  0  0  0  0  0  0  0
    8.6441   -2.0250    0.0000 C   0  0  0  0  0  0  0  0  0  0  0  0
    2.5878   -2.1294    0.0000 C   0  0  0  0  0  0  0  0  0  0  0  0
    4.2058   -3.3049    0.0000 C   0  0  0  0  0  0  0  0  0  0  0  0
    2.2212   -4.3352    0.0000 C   0  0  0  0  0  0  0  0  0  0  0  0
    2.0000   -2.9384    0.0000 C   0  0  0  0  0  0  0  0  0  0  0  0
    3.6180   -4.1140    0.0000 C   0  0  0  0  0  0  0  0  0  0  0  0
    6.9329    1.8352    0.0000 C   0  0  0  0  0  0  0  0  0  0  0  0
    5.2009    1.8352    0.0000 C   0  0  0  0  0  0  0  0  0  0  0  0
    6.7479   -2.9262    0.0000 C   0  0  0  0  0  0  0  0  0  0  0  0
    5.2009    2.8352    0.0000 C   0  0  0  0  0  0  0  0  0  0  0  0
    6.0669    3.3352    0.0000 C   0  0  0  0  0  0  0  0  0  0  0  0
    6.2854   -1.7561    0.0000 H   0  0  0  0  0  0  0  0  0  0  0  0
    7.3143   -0.6910    0.0000 H   0  0  0  0  0  0  0  0  0  0  0  0
    4.9545   -1.1067    0.0000 H   0  0  0  0  0  0  0  0  0  0  0  0
    5.5145    0.6167    0.0000 H   0  0  0  0  0  0  0  0  0  0  0  0
    4.8082   -2.6086    0.0000 H   0  0  0  0  0  0  0  0  0  0  0  0
    5.5364   -2.2845    0.0000 H   0  0  0  0  0  0  0  0  0  0  0  0
    7.6687   -2.3594    0.0000 H   0  0  0  0  0  0  0  0  0  0  0  0
    7.5854   -1.5667    0.0000 H   0  0  0  0  0  0  0  0  0  0  0  0
    9.7000   -0.2844    0.0000 H   0  0  0  0  0  0  0  0  0  0  0  0
    9.6541    0.5912    0.0000 H   0  0  0  0  0  0  0  0  0  0  0  0
    8.7785    0.5453    0.0000 H   0  0  0  0  0  0  0  0  0  0  0  0
    7.4402   -0.9410    0.0000 H   0  0  0  0  0  0  0  0  0  0  0  0
    7.4861   -1.8166    0.0000 H   0  0  0  0  0  0  0  0  0  0  0  0
    8.3617   -1.7707    0.0000 H   0  0  0  0  0  0  0  0  0  0  0  0
    9.6415   -2.4117    0.0000 H   0  0  0  0  0  0  0  0  0  0  0  0
   10.5172   -2.3658    0.0000 H   0  0  0  0  0  0  0  0  0  0  0  0
   10.4713   -1.4902    0.0000 H   0  0  0  0  0  0  0  0  0  0  0  0
   10.4431   -0.9536    0.0000 H   0  0  0  0  0  0  0  0  0  0  0  0
   10.3972   -0.0779    0.0000 H   0  0  0  0  0  0  0  0  0  0  0  0
    9.5216   -0.1238    0.0000 H   0  0  0  0  0  0  0  0  0  0  0  0
    8.1834   -1.6101    0.0000 H   0  0  0  0  0  0  0  0  0  0  0  0
    8.2293   -2.4857    0.0000 H   0  0  0  0  0  0  0  0  0  0  0  0
    9.1049   -2.4398    0.0000 H   0  0  0  0  0  0  0  0  0  0  0  0
    2.9522   -1.6278    0.0000 H   0  0  0  0  0  0  0  0  0  0  0  0
    2.0862   -1.7649    0.0000 H   0  0  0  0  0  0  0  0  0  0  0  0
    2.2234   -2.6310    0.0000 H   0  0  0  0  0  0  0  0  0  0  0  0
    3.8414   -3.8065    0.0000 H   0  0  0  0  0  0  0  0  0  0  0  0
    4.7074   -3.6694    0.0000 H   0  0  0  0  0  0  0  0  0  0  0  0
    4.5702   -2.8034    0.0000 H   0  0  0  0  0  0  0  0  0  0  0  0
    1.7196   -3.9708    0.0000 H   0  0  0  0  0  0  0  0  0  0  0  0
    1.8568   -4.8368    0.0000 H   0  0  0  0  0  0  0  0  0  0  0  0
    2.7228   -4.6996    0.0000 H   0  0  0  0  0  0  0  0  0  0  0  0
    2.3644   -2.4368    0.0000 H   0  0  0  0  0  0  0  0  0  0  0  0
    1.4984   -2.5740    0.0000 H   0  0  0  0  0  0  0  0  0  0  0  0
    1.6356   -3.4400    0.0000 H   0  0  0  0  0  0  0  0  0  0  0  0
    3.2536   -4.6156    0.0000 H   0  0  0  0  0  0  0  0  0  0  0  0
    4.1196   -4.4784    0.0000 H   0  0  0  0  0  0  0  0  0  0  0  0
    3.9825   -3.6124    0.0000 H   0  0  0  0  0  0  0  0  0  0  0  0
    4.6639    1.5252    0.0000 H   0  0  0  0  0  0  0  0  0  0  0  0
    7.4699    3.1452    0.0000 H   0  0  0  0  0  0  0  0  0  0  0  0
    4.6639    3.1452    0.0000 H   0  0  0  0  0  0  0  0  0  0  0  0
  1  3  1  0  0  0  0
  1 15  1  0  0  0  0
  1 19  1  0  0  0  0
  1 20  1  0  0  0  0
  2  5  1  0  0  0  0
  2 18  1  0  0  0  0
  2 24  1  0  0  0  0
  2 25  1  0  0  0  0
 12  3  1  6  0  0  0
  4 13  1  0  0  0  0
  4 14  1  0  0  0  0
  5 16  1  0  0  0  0
  6 29  2  0  0  0  0
  7 33  2  0  0  0  0
 14  8  1  1  0  0  0
  8 29  1  0  0  0  0
  8 30  1  0  0  0  0
  9 29  1  0  0  0  0
  9 33  1  0  0  0  0
  9 73  1  0  0  0  0
 10 31  3  0  0  0  0
 11 12  1  0  0  0  0
 11 13  1  0  0  0  0
 11 17  1  1  0  0  0
 11 34  1  0  0  0  0
 12 14  1  0  0  0  0
 12 35  1  0  0  0  0
 13 16  1  1  0  0  0
 13 36  1  0  0  0  0
 14 37  1  0  0  0  0
 15 21  1  0  0  0  0
 15 22  1  0  0  0  0
 15 23  1  0  0  0  0
 16 38  1  0  0  0  0
 16 39  1  0  0  0  0
 17 31  1  0  0  0  0
 17 40  1  0  0  0  0
 17 41  1  0  0  0  0
 18 26  1  0  0  0  0
 18 27  1  0  0  0  0
 18 28  1  0  0  0  0
 19 42  1  0  0  0  0
 19 43  1  0  0  0  0
 19 44  1  0  0  0  0
 20 45  1  0  0  0  0
 20 46  1  0  0  0  0
 20 47  1  0  0  0  0
 21 48  1  0  0  0  0
 21 49  1  0  0  0  0
 21 50  1  0  0  0  0
 22 51  1  0  0  0  0
 22 52  1  0  0  0  0
 22 53  1  0  0  0  0
 23 54  1  0  0  0  0
 23 55  1  0  0  0  0
 23 56  1  0  0  0  0
 24 57  1  0  0  0  0
 24 58  1  0  0  0  0
 24 59  1  0  0  0  0
 25 60  1  0  0  0  0
 25 61  1  0  0  0  0
 25 62  1  0  0  0  0
 26 63  1  0  0  0  0
 26 64  1  0  0  0  0
 26 65  1  0  0  0  0
 27 66  1  0  0  0  0
 27 67  1  0  0  0  0
 27 68  1  0  0  0  0
 28 69  1  0  0  0  0
 28 70  1  0  0  0  0
 28 71  1  0  0  0  0
 30 32  2  0  0  0  0
 30 72  1  0  0  0  0
 32 33  1  0  0  0  0
 32 74  1  0  0  0  0
M  END
> <PUBCHEM_COMPOUND_CID>
500292
> <PUBCHEM_COMPOUND_CANONICALIZED>
1
> <PUBCHEM_CACTVS_COMPLEXITY>
835
> <PUBCHEM_CACTVS_HBOND_ACCEPTOR>
6
> <PUBCHEM_CACTVS_HBOND_DONOR>
1
> <PUBCHEM_CACTVS_ROTATABLE_BOND>
9
> <PUBCHEM_CACTVS_SUBSKEYS>
AAADcfB7OAwAAAAAAAAAAAAAAAAAASAAAAAgAAAAAAAAAAAAAAAAHhAQAEAADRThoAZDAAPABAGYBCFWUACAAAAAAgAIAAAIAECDgAIAgAAOAAANFyISAMjwMAIKAAAAAAAAAAAAAAAAAAAAAAAAAAAAAA==
> <PUBCHEM_IUPAC_OPENEYE_NAME>
2-[(2S,3S,4R,5R)-4-[tert-butyl(dimethyl)silyl]oxy-2-[[tert-butyl(dimethyl)silyl]oxymethyl]-5-(2,4-dioxopyrimidin-1-yl)tetrahydrofuran-3-yl]acetonitrile
> <PUBCHEM_IUPAC_CAS_NAME>
2-[(2S,3S,4R,5R)-4-[tert-butyl(dimethyl)silyl]oxy-2-[[tert-butyl(dimethyl)silyl]oxymethyl]-5-(2,4-dioxo-1-pyrimidinyl)-3-oxolanyl]acetonitrile
> <PUBCHEM_IUPAC_NAME_MARKUP>
2-[(2<I>S</I>,3<I>S</I>,4<I>R</I>,5<I>R</I>)-4-[<I>tert</I>-butyl(dimethyl)silyl]oxy-2-[[<I>tert</I>-butyl(dimethyl)silyl]oxymethyl]-5-(2,4-dioxopyrimidin-1-yl)oxolan-3-yl]acetonitrile
> <PUBCHEM_IUPAC_NAME>
2-[(2S,3S,4R,5R)-4-[tert-butyl(dimethyl)silyl]oxy-2-[[tert-butyl(dimethyl)silyl]oxymethyl]-5-(2,4-dioxopyrimidin-1-yl)oxolan-3-yl]acetonitrile
> <PUBCHEM_IUPAC_SYSTEMATIC_NAME>
2-[(2S,3S,4R,5R)-5-[2,4-bis(oxidanylidene)pyrimidin-1-yl]-4-[tert-butyl(dimethyl)silyl]oxy-2-[[tert-butyl(dimethyl)silyl]oxymethyl]oxolan-3-yl]ethanenitrile
> <PUBCHEM_IUPAC_TRADITIONAL_NAME>
2-[(2S,3S,4R,5R)-4-[tert-butyl(dimethyl)silyl]oxy-2-[[tert-butyl(dimethyl)silyl]oxymethyl]-5-(2,4-diketopyrimidin-1-yl)tetrahydrofuran-3-yl]acetonitrile
> <PUBCHEM_IUPAC_INCHI>
InChI=1S/C23H41N3O5Si2/c1-22(2,3)32(7,8)29-15-17-16(11-13-24)19(31-33(9,10)23(4,5)6)20(30-17)26-14-12-18(27)25-21(26)28/h12,14,16-17,19-20H,11,15H2,1-10H3,(H,25,27,28)/t16-,17+,19+,20+/m0/s1
> <PUBCHEM_IUPAC_INCHIKEY>
NHCYNOYARUFVRB-ONCXSQPRSA-N
> <PUBCHEM_EXACT_MASS>
495.25847449
> <PUBCHEM_MOLECULAR_FORMULA>
C23H41N3O5Si2
> <PUBCHEM_MOLECULAR_WEIGHT>
495.8
> <PUBCHEM_OPENEYE_CAN_SMILES>
CC(C)(C)[Si](C)(C)OCC1C(C(C(O1)N2C=CC(=O)NC2=O)O[Si](C)(C)C(C)(C)C)CC#N
> <PUBCHEM_OPENEYE_ISO_SMILES>
CC(C)(C)[Si](C)(C)OC[C@@H]1[C@@H]([C@H]([C@@H](O1)N2C=CC(=O)NC2=O)O[Si](C)(C)C(C)(C)C)CC#N
> <PUBCHEM_CACTVS_TPSA>
101
> <PUBCHEM_MONOISOTOPIC_WEIGHT>
495.25847449
> <PUBCHEM_TOTAL_CHARGE>
0
> <PUBCHEM_HEAVY_ATOM_COUNT>
33
> <PUBCHEM_ATOM_DEF_STEREO_COUNT>
4
> <PUBCHEM_ATOM_UDEF_STEREO_COUNT>
0
> <PUBCHEM_BOND_DEF_STEREO_COUNT>
0
> <PUBCHEM_BOND_UDEF_STEREO_COUNT>
0
> <PUBCHEM_ISOTOPIC_ATOM_COUNT>
0
> <PUBCHEM_COMPONENT_COUNT>
1
> <PUBCHEM_CACTVS_TAUTO_COUNT>
-1
> <PUBCHEM_COORDINATE_TYPE>
1
5
255
> <PUBCHEM_BONDANNOTATIONS>
11  17  5
13  16  5
12  3  6
30  32  8
32  33  8
14  8  5
8  29  8
8  30  8
9  29  8
9  33  8
$$$$
