500293
  -OEChem-10302200282D
 33 34  0     1  0  0  0  0  0999 V2000
    3.7320    1.8450    0.0000 O   0  0  0  0  0  0  0  0  0  0  0  0
    5.8550    1.6002    0.0000 O   0  0  0  0  0  0  0  0  0  0  0  0
    7.1279   -0.1550    0.0000 O   0  0  0  0  0  0  0  0  0  0  0  0
    4.5981   -0.6550    0.0000 N   0  0  3  0  0  0  0  0  0  0  0  0
    4.5981    0.3450    0.0000 C   0  0  3  0  0  0  0  0  0  0  0  0
    3.7320    0.8450    0.0000 C   0  0  3  0  0  0  0  0  0  0  0  0
    5.5443    0.6497    0.0000 C   0  0  3  0  0  0  0  0  0  0  0  0
    2.8660   -0.6550    0.0000 C   0  0  3  0  0  0  0  0  0  0  0  0
    3.7320   -1.1550    0.0000 C   0  0  0  0  0  0  0  0  0  0  0  0
    2.8660    0.3450    0.0000 C   0  0  0  0  0  0  0  0  0  0  0  0
    5.5443   -0.9597    0.0000 C   0  0  0  0  0  0  0  0  0  0  0  0
    6.1279   -0.1550    0.0000 C   0  0  3  0  0  0  0  0  0  0  0  0
    2.0000   -1.1550    0.0000 C   0  0  0  0  0  0  0  0  0  0  0  0
    2.0000   -2.1550    0.0000 C   0  0  0  0  0  0  0  0  0  0  0  0
    4.6637    0.9615    0.0000 H   0  0  0  0  0  0  0  0  0  0  0  0
    4.2690    1.1550    0.0000 H   0  0  0  0  0  0  0  0  0  0  0  0
    5.1068    1.0891    0.0000 H   0  0  0  0  0  0  0  0  0  0  0  0
    2.8660   -1.2750    0.0000 H   0  0  0  0  0  0  0  0  0  0  0  0
    3.3335   -1.6300    0.0000 H   0  0  0  0  0  0  0  0  0  0  0  0
    4.1306   -1.6300    0.0000 H   0  0  0  0  0  0  0  0  0  0  0  0
    2.6540    0.9276    0.0000 H   0  0  0  0  0  0  0  0  0  0  0  0
    2.2554    0.2373    0.0000 H   0  0  0  0  0  0  0  0  0  0  0  0
    5.2933   -1.5266    0.0000 H   0  0  0  0  0  0  0  0  0  0  0  0
    6.0817   -1.2690    0.0000 H   0  0  0  0  0  0  0  0  0  0  0  0
    6.4096   -0.7073    0.0000 H   0  0  0  0  0  0  0  0  0  0  0  0
    1.7880   -0.5724    0.0000 H   0  0  0  0  0  0  0  0  0  0  0  0
    1.3894   -1.2627    0.0000 H   0  0  0  0  0  0  0  0  0  0  0  0
    3.1951    2.1550    0.0000 H   0  0  0  0  0  0  0  0  0  0  0  0
    6.4616    1.7281    0.0000 H   0  0  0  0  0  0  0  0  0  0  0  0
    7.4379   -0.6919    0.0000 H   0  0  0  0  0  0  0  0  0  0  0  0
    1.3800   -2.1550    0.0000 H   0  0  0  0  0  0  0  0  0  0  0  0
    2.0000   -2.7750    0.0000 H   0  0  0  0  0  0  0  0  0  0  0  0
    2.6200   -2.1550    0.0000 H   0  0  0  0  0  0  0  0  0  0  0  0
  1  6  1  0  0  0  0
  1 28  1  0  0  0  0
  2  7  1  0  0  0  0
  2 29  1  0  0  0  0
  3 12  1  0  0  0  0
  3 30  1  0  0  0  0
  4  5  1  0  0  0  0
  4  9  1  0  0  0  0
  4 11  1  0  0  0  0
  5  6  1  0  0  0  0
  5  7  1  0  0  0  0
  5 15  1  0  0  0  0
  6 10  1  0  0  0  0
  6 16  1  0  0  0  0
  7 12  1  0  0  0  0
  7 17  1  0  0  0  0
  8  9  1  0  0  0  0
  8 10  1  0  0  0  0
  8 13  1  0  0  0  0
  8 18  1  0  0  0  0
  9 19  1  0  0  0  0
  9 20  1  0  0  0  0
 10 21  1  0  0  0  0
 10 22  1  0  0  0  0
 11 12  1  0  0  0  0
 11 23  1  0  0  0  0
 11 24  1  0  0  0  0
 12 25  1  0  0  0  0
 13 14  1  0  0  0  0
 13 26  1  0  0  0  0
 13 27  1  0  0  0  0
 14 31  1  0  0  0  0
 14 32  1  0  0  0  0
 14 33  1  0  0  0  0
M  END
> <PUBCHEM_COMPOUND_CID>
500293
> <PUBCHEM_COMPOUND_CANONICALIZED>
1
> <PUBCHEM_CACTVS_COMPLEXITY>
212
> <PUBCHEM_CACTVS_HBOND_ACCEPTOR>
4
> <PUBCHEM_CACTVS_HBOND_DONOR>
3
> <PUBCHEM_CACTVS_ROTATABLE_BOND>
1
> <PUBCHEM_CACTVS_SUBSKEYS>
AAADceByMAAAAAAAAAAAAAAAAAAAAWAAAAAsAAAAAAAAAFgAAAAAHgAACAAADTzhgAYCAAMAAgAAAAAAAAAAAAAAAAAAAAAIAAADEAIAgAAEQAAHAACRAAHw0PIOAAAAAAAAAAAAAAAAAAAAAAAAAAAAAA==
> <PUBCHEM_IUPAC_OPENEYE_NAME>
6-ethyl-1,2,3,5,6,7,8,8a-octahydroindolizine-1,2,8-triol
> <PUBCHEM_IUPAC_CAS_NAME>
6-ethyl-1,2,3,5,6,7,8,8a-octahydroindolizine-1,2,8-triol
> <PUBCHEM_IUPAC_NAME_MARKUP>
6-ethyl-1,2,3,5,6,7,8,8<I>a</I>-octahydroindolizine-1,2,8-triol
> <PUBCHEM_IUPAC_NAME>
6-ethyl-1,2,3,5,6,7,8,8a-octahydroindolizine-1,2,8-triol
> <PUBCHEM_IUPAC_SYSTEMATIC_NAME>
6-ethyl-1,2,3,5,6,7,8,8a-octahydroindolizine-1,2,8-triol
> <PUBCHEM_IUPAC_TRADITIONAL_NAME>
6-ethylindolizidine-1,2,8-triol
> <PUBCHEM_IUPAC_INCHI>
InChI=1S/C10H19NO3/c1-2-6-3-7(12)9-10(14)8(13)5-11(9)4-6/h6-10,12-14H,2-5H2,1H3
> <PUBCHEM_IUPAC_INCHIKEY>
TYUMNOPLNHWOHH-UHFFFAOYSA-N
> <PUBCHEM_XLOGP3_AA>
-0.5
> <PUBCHEM_EXACT_MASS>
201.13649347
> <PUBCHEM_MOLECULAR_FORMULA>
C10H19NO3
> <PUBCHEM_MOLECULAR_WEIGHT>
201.26
> <PUBCHEM_OPENEYE_CAN_SMILES>
CCC1CC(C2C(C(CN2C1)O)O)O
> <PUBCHEM_OPENEYE_ISO_SMILES>
CCC1CC(C2C(C(CN2C1)O)O)O
> <PUBCHEM_CACTVS_TPSA>
63.9
> <PUBCHEM_MONOISOTOPIC_WEIGHT>
201.13649347
> <PUBCHEM_TOTAL_CHARGE>
0
> <PUBCHEM_HEAVY_ATOM_COUNT>
14
> <PUBCHEM_ATOM_DEF_STEREO_COUNT>
0
> <PUBCHEM_ATOM_UDEF_STEREO_COUNT>
5
> <PUBCHEM_BOND_DEF_STEREO_COUNT>
0
> <PUBCHEM_BOND_UDEF_STEREO_COUNT>
0
> <PUBCHEM_ISOTOPIC_ATOM_COUNT>
0
> <PUBCHEM_COMPONENT_COUNT>
1
> <PUBCHEM_CACTVS_TAUTO_COUNT>
-1
> <PUBCHEM_COORDINATE_TYPE>
1
5
255
> <PUBCHEM_BONDANNOTATIONS>
6  1  3
7  2  3
12  3  3
5  4  3
8  13  3
$$$$
