500244
  -OEChem-10302200282D
 55 58  0     1  0  0  0  0  0999 V2000
    4.6660    0.7032    0.0000 O   0  0  0  0  0  0  0  0  0  0  0  0
    4.6660   -1.2968    0.0000 O   0  0  0  0  0  0  0  0  0  0  0  0
    5.5321   -0.7968    0.0000 O   0  0  0  0  0  0  0  0  0  0  0  0
    8.1301    0.7032    0.0000 O   0  0  0  0  0  0  0  0  0  0  0  0
    8.9962   -0.7968    0.0000 O   0  0  0  0  0  0  0  0  0  0  0  0
    3.8000   -0.7968    0.0000 C   0  0  3  0  0  0  0  0  0  0  0  0
    3.8000    0.2032    0.0000 C   0  0  3  0  0  0  0  0  0  0  0  0
    2.9061   -1.3315    0.0000 C   0  0  0  0  0  0  0  0  0  0  0  0
    2.9061    0.7379    0.0000 C   0  0  0  0  0  0  0  0  0  0  0  0
    2.0000   -0.8176    0.0000 C   0  0  0  0  0  0  0  0  0  0  0  0
    2.0000    0.2240    0.0000 C   0  0  0  0  0  0  0  0  0  0  0  0
    5.5321    0.2032    0.0000 C   0  0  3  0  0  0  0  0  0  0  0  0
    4.1196   -0.1504    0.0000 C   0  0  0  0  0  0  0  0  0  0  0  0
    3.8000    1.2032    0.0000 C   0  0  0  0  0  0  0  0  0  0  0  0
    2.4161   -2.2032    0.0000 C   0  0  0  0  0  0  0  0  0  0  0  0
    3.4160   -2.1916    0.0000 C   0  0  0  0  0  0  0  0  0  0  0  0
    4.8124    0.2496    0.0000 C   0  0  0  0  0  0  0  0  0  0  0  0
    6.3981    0.7032    0.0000 C   0  0  0  0  0  0  0  0  0  0  0  0
    7.2641    0.2032    0.0000 C   0  0  3  0  0  0  0  0  0  0  0  0
    7.2641   -0.7968    0.0000 C   0  0  0  0  0  0  0  0  0  0  0  0
    8.9962    0.2032    0.0000 C   0  0  0  0  0  0  0  0  0  0  0  0
    9.8622    0.7032    0.0000 C   0  0  0  0  0  0  0  0  0  0  0  0
   10.7282    0.2032    0.0000 C   0  0  0  0  0  0  0  0  0  0  0  0
    9.8622    1.7032    0.0000 C   0  0  0  0  0  0  0  0  0  0  0  0
   11.5942    0.7032    0.0000 C   0  0  0  0  0  0  0  0  0  0  0  0
   10.7282    2.2032    0.0000 C   0  0  0  0  0  0  0  0  0  0  0  0
   11.5942    1.7032    0.0000 C   0  0  0  0  0  0  0  0  0  0  0  0
    3.3107    1.2076    0.0000 H   0  0  0  0  0  0  0  0  0  0  0  0
    2.5124    1.2169    0.0000 H   0  0  0  0  0  0  0  0  0  0  0  0
    1.3891   -0.7115    0.0000 H   0  0  0  0  0  0  0  0  0  0  0  0
    1.7909   -1.4013    0.0000 H   0  0  0  0  0  0  0  0  0  0  0  0
    1.7909    0.8077    0.0000 H   0  0  0  0  0  0  0  0  0  0  0  0
    1.3891    0.1179    0.0000 H   0  0  0  0  0  0  0  0  0  0  0  0
    3.6673    0.2737    0.0000 H   0  0  0  0  0  0  0  0  0  0  0  0
    4.4200    1.2032    0.0000 H   0  0  0  0  0  0  0  0  0  0  0  0
    3.8000    1.8232    0.0000 H   0  0  0  0  0  0  0  0  0  0  0  0
    3.1800    1.2032    0.0000 H   0  0  0  0  0  0  0  0  0  0  0  0
    1.8756   -1.8994    0.0000 H   0  0  0  0  0  0  0  0  0  0  0  0
    2.1123   -2.7437    0.0000 H   0  0  0  0  0  0  0  0  0  0  0  0
    2.9566   -2.5070    0.0000 H   0  0  0  0  0  0  0  0  0  0  0  0
    2.8827   -2.5078    0.0000 H   0  0  0  0  0  0  0  0  0  0  0  0
    3.7322   -2.7250    0.0000 H   0  0  0  0  0  0  0  0  0  0  0  0
    3.9494   -1.8754    0.0000 H   0  0  0  0  0  0  0  0  0  0  0  0
    4.6713    0.8533    0.0000 H   0  0  0  0  0  0  0  0  0  0  0  0
    6.7966    1.1782    0.0000 H   0  0  0  0  0  0  0  0  0  0  0  0
    5.9996    1.1782    0.0000 H   0  0  0  0  0  0  0  0  0  0  0  0
    7.8010   -0.1068    0.0000 H   0  0  0  0  0  0  0  0  0  0  0  0
    6.6441   -0.7968    0.0000 H   0  0  0  0  0  0  0  0  0  0  0  0
    7.2641   -1.4168    0.0000 H   0  0  0  0  0  0  0  0  0  0  0  0
    7.8841   -0.7968    0.0000 H   0  0  0  0  0  0  0  0  0  0  0  0
   10.7282   -0.4168    0.0000 H   0  0  0  0  0  0  0  0  0  0  0  0
    9.3252    2.0132    0.0000 H   0  0  0  0  0  0  0  0  0  0  0  0
   12.1312    0.3932    0.0000 H   0  0  0  0  0  0  0  0  0  0  0  0
   10.7282    2.8232    0.0000 H   0  0  0  0  0  0  0  0  0  0  0  0
   12.1312    2.0132    0.0000 H   0  0  0  0  0  0  0  0  0  0  0  0
  1  7  1  0  0  0  0
  1 12  1  0  0  0  0
  2  3  1  0  0  0  0
  2  6  1  0  0  0  0
  3 12  1  0  0  0  0
  4 19  1  0  0  0  0
  4 21  1  0  0  0  0
  5 21  2  0  0  0  0
  6  7  1  0  0  0  0
  6  8  1  0  0  0  0
  6 13  1  0  0  0  0
  7  9  1  0  0  0  0
  7 14  1  0  0  0  0
  8 10  1  0  0  0  0
  8 15  1  0  0  0  0
  8 16  1  0  0  0  0
  9 11  1  0  0  0  0
  9 28  1  0  0  0  0
  9 29  1  0  0  0  0
 10 11  1  0  0  0  0
 10 30  1  0  0  0  0
 10 31  1  0  0  0  0
 11 32  1  0  0  0  0
 11 33  1  0  0  0  0
 12 17  1  0  0  0  0
 12 18  1  0  0  0  0
 13 17  2  0  0  0  0
 13 34  1  0  0  0  0
 14 35  1  0  0  0  0
 14 36  1  0  0  0  0
 14 37  1  0  0  0  0
 15 38  1  0  0  0  0
 15 39  1  0  0  0  0
 15 40  1  0  0  0  0
 16 41  1  0  0  0  0
 16 42  1  0  0  0  0
 16 43  1  0  0  0  0
 17 44  1  0  0  0  0
 18 19  1  0  0  0  0
 18 45  1  0  0  0  0
 18 46  1  0  0  0  0
 19 20  1  0  0  0  0
 19 47  1  0  0  0  0
 20 48  1  0  0  0  0
 20 49  1  0  0  0  0
 20 50  1  0  0  0  0
 21 22  1  0  0  0  0
 22 23  2  0  0  0  0
 22 24  1  0  0  0  0
 23 25  1  0  0  0  0
 23 51  1  0  0  0  0
 24 26  2  0  0  0  0
 24 52  1  0  0  0  0
 25 27  2  0  0  0  0
 25 53  1  0  0  0  0
 26 27  1  0  0  0  0
 26 54  1  0  0  0  0
 27 55  1  0  0  0  0
M  END
> <PUBCHEM_COMPOUND_CID>
500244
> <PUBCHEM_COMPOUND_CANONICALIZED>
1
> <PUBCHEM_CACTVS_COMPLEXITY>
622
> <PUBCHEM_CACTVS_HBOND_ACCEPTOR>
5
> <PUBCHEM_CACTVS_HBOND_DONOR>
0
> <PUBCHEM_CACTVS_ROTATABLE_BOND>
5
> <PUBCHEM_CACTVS_SUBSKEYS>
AAADceB4OAAAAAAAAAAAAAAAAAAAAAAAAAA0YIECAAAAAACRAAAAGgAABAAADlSgmAIyCIAABACIAiDSCAACAAAkAAAIiAEACMgZJjKANRiCMQAlwAEOqYeIyPCPgAAAAAAAAAAAAAYAADCAAAAAAAAAAA==
> <PUBCHEM_IUPAC_OPENEYE_NAME>
[1-methyl-2-(2,2,6-trimethyl-7,9,10-trioxatricyclo[6.2.2.01,6]dodec-11-en-8-yl)ethyl] benzoate
> <PUBCHEM_IUPAC_CAS_NAME>
benzoic acid 1-(2,2,6-trimethyl-7,9,10-trioxatricyclo[6.2.2.01,6]dodec-11-en-8-yl)propan-2-yl ester
> <PUBCHEM_IUPAC_NAME_MARKUP>
1-(2,2,6-trimethyl-7,9,10-trioxatricyclo[6.2.2.0<SUP>1,6</SUP>]dodec-11-en-8-yl)propan-2-yl benzoate
> <PUBCHEM_IUPAC_NAME>
1-(2,2,6-trimethyl-7,9,10-trioxatricyclo[6.2.2.01,6]dodec-11-en-8-yl)propan-2-yl benzoate
> <PUBCHEM_IUPAC_SYSTEMATIC_NAME>
1-(2,2,6-trimethyl-7,9,10-trioxatricyclo[6.2.2.01,6]dodec-11-en-8-yl)propan-2-yl benzoate
> <PUBCHEM_IUPAC_TRADITIONAL_NAME>
benzoic acid [1-methyl-2-(2,2,6-trimethyl-7,9,10-trioxatricyclo[6.2.2.01,6]dodec-11-en-8-yl)ethyl] ester
> <PUBCHEM_IUPAC_INCHI>
InChI=1S/C22H28O5/c1-16(24-18(23)17-9-6-5-7-10-17)15-21-13-14-22(27-26-21)19(2,3)11-8-12-20(22,4)25-21/h5-7,9-10,13-14,16H,8,11-12,15H2,1-4H3
> <PUBCHEM_IUPAC_INCHIKEY>
WYUKKHOCOCLVBS-UHFFFAOYSA-N
> <PUBCHEM_XLOGP3_AA>
4.4
> <PUBCHEM_EXACT_MASS>
372.19367399
> <PUBCHEM_MOLECULAR_FORMULA>
C22H28O5
> <PUBCHEM_MOLECULAR_WEIGHT>
372.5
> <PUBCHEM_OPENEYE_CAN_SMILES>
CC(CC12C=CC3(C(CCCC3(O1)C)(C)C)OO2)OC(=O)C4=CC=CC=C4
> <PUBCHEM_OPENEYE_ISO_SMILES>
CC(CC12C=CC3(C(CCCC3(O1)C)(C)C)OO2)OC(=O)C4=CC=CC=C4
> <PUBCHEM_CACTVS_TPSA>
54
> <PUBCHEM_MONOISOTOPIC_WEIGHT>
372.19367399
> <PUBCHEM_TOTAL_CHARGE>
0
> <PUBCHEM_HEAVY_ATOM_COUNT>
27
> <PUBCHEM_ATOM_DEF_STEREO_COUNT>
0
> <PUBCHEM_ATOM_UDEF_STEREO_COUNT>
4
> <PUBCHEM_BOND_DEF_STEREO_COUNT>
0
> <PUBCHEM_BOND_UDEF_STEREO_COUNT>
0
> <PUBCHEM_ISOTOPIC_ATOM_COUNT>
0
> <PUBCHEM_COMPONENT_COUNT>
1
> <PUBCHEM_CACTVS_TAUTO_COUNT>
-1
> <PUBCHEM_COORDINATE_TYPE>
1
5
255
> <PUBCHEM_BONDANNOTATIONS>
12  18  3
19  20  3
22  23  8
22  24  8
23  25  8
24  26  8
25  27  8
26  27  8
6  13  3
7  14  3
$$$$
