500233
  -OEChem-10302200282D
 26 28  0     1  0  0  0  0  0999 V2000
    7.0224    2.8810    0.0000 O   0  0  0  0  0  0  0  0  0  0  0  0
    4.6783    0.1059    0.0000 N   0  0  0  0  0  0  0  0  0  0  0  0
    4.6783   -1.5036    0.0000 N   0  0  0  0  0  0  0  0  0  0  0  0
    2.8660    0.3012    0.0000 N   0  0  0  0  0  0  0  0  0  0  0  0
    2.0000   -1.1988    0.0000 N   0  0  0  0  0  0  0  0  0  0  0  0
    2.8660   -2.6989    0.0000 N   0  0  0  0  0  0  0  0  0  0  0  0
    4.9889    1.0564    0.0000 C   0  0  3  0  0  0  0  0  0  0  0  0
    5.7332    1.7242    0.0000 C   0  0  3  0  0  0  0  0  0  0  0  0
    4.7827    2.0349    0.0000 C   0  0  0  0  0  0  0  0  0  0  0  0
    6.7117    1.9305    0.0000 C   0  0  0  0  0  0  0  0  0  0  0  0
    3.7320   -0.1988    0.0000 C   0  0  0  0  0  0  0  0  0  0  0  0
    5.2619   -0.6988    0.0000 C   0  0  0  0  0  0  0  0  0  0  0  0
    3.7320   -1.1988    0.0000 C   0  0  0  0  0  0  0  0  0  0  0  0
    2.8660   -1.6988    0.0000 C   0  0  0  0  0  0  0  0  0  0  0  0
    2.0000   -0.1988    0.0000 C   0  0  0  0  0  0  0  0  0  0  0  0
    5.5083    0.7178    0.0000 H   0  0  0  0  0  0  0  0  0  0  0  0
    5.7668    2.3433    0.0000 H   0  0  0  0  0  0  0  0  0  0  0  0
    4.8701    2.6487    0.0000 H   0  0  0  0  0  0  0  0  0  0  0  0
    4.1631    2.0144    0.0000 H   0  0  0  0  0  0  0  0  0  0  0  0
    6.7323    1.3108    0.0000 H   0  0  0  0  0  0  0  0  0  0  0  0
    7.3256    1.8431    0.0000 H   0  0  0  0  0  0  0  0  0  0  0  0
    5.8819   -0.6988    0.0000 H   0  0  0  0  0  0  0  0  0  0  0  0
    7.6291    3.0088    0.0000 H   0  0  0  0  0  0  0  0  0  0  0  0
    1.4631    0.1112    0.0000 H   0  0  0  0  0  0  0  0  0  0  0  0
    2.3291   -3.0088    0.0000 H   0  0  0  0  0  0  0  0  0  0  0  0
    3.4030   -3.0088    0.0000 H   0  0  0  0  0  0  0  0  0  0  0  0
  1 10  1  0  0  0  0
  1 23  1  0  0  0  0
  2  7  1  0  0  0  0
  2 11  1  0  0  0  0
  2 12  1  0  0  0  0
  3 12  2  0  0  0  0
  3 13  1  0  0  0  0
  4 11  2  0  0  0  0
  4 15  1  0  0  0  0
  5 14  1  0  0  0  0
  5 15  2  0  0  0  0
  6 14  1  0  0  0  0
  6 25  1  0  0  0  0
  6 26  1  0  0  0  0
  7  8  1  0  0  0  0
  7  9  1  0  0  0  0
  7 16  1  0  0  0  0
  8  9  1  0  0  0  0
  8 10  1  0  0  0  0
  8 17  1  0  0  0  0
  9 18  1  0  0  0  0
  9 19  1  0  0  0  0
 10 20  1  0  0  0  0
 10 21  1  0  0  0  0
 11 13  1  0  0  0  0
 12 22  1  0  0  0  0
 13 14  2  0  0  0  0
 15 24  1  0  0  0  0
M  END
> <PUBCHEM_COMPOUND_CID>
500233
> <PUBCHEM_COMPOUND_CANONICALIZED>
1
> <PUBCHEM_CACTVS_COMPLEXITY>
251
> <PUBCHEM_CACTVS_HBOND_ACCEPTOR>
5
> <PUBCHEM_CACTVS_HBOND_DONOR>
2
> <PUBCHEM_CACTVS_ROTATABLE_BOND>
2
> <PUBCHEM_CACTVS_SUBSKEYS>
AAADccBzoAAAAAAAAAAAAAAAGAAAAWAAAAAsAAAAAAAAAFgB+AAAHgAQCAAADSjhlwYF8L9MEgCgAQZhZACAgC0REKABUCAoVBCAWABAyEAURAgOAALAACAgAAAAAAAAAAAAAAAAAAAAAAAAAAAAAAAAAA==
> <PUBCHEM_IUPAC_OPENEYE_NAME>
[2-(6-aminopurin-9-yl)cyclopropyl]methanol
> <PUBCHEM_IUPAC_CAS_NAME>
[2-(6-aminopurin-9-yl)cyclopropyl]methanol
> <PUBCHEM_IUPAC_NAME_MARKUP>
[2-(6-aminopurin-9-yl)cyclopropyl]methanol
> <PUBCHEM_IUPAC_NAME>
[2-(6-aminopurin-9-yl)cyclopropyl]methanol
> <PUBCHEM_IUPAC_SYSTEMATIC_NAME>
[2-(6-aminopurin-9-yl)cyclopropyl]methanol
> <PUBCHEM_IUPAC_TRADITIONAL_NAME>
(2-adenin-9-ylcyclopropyl)methanol
> <PUBCHEM_IUPAC_INCHI>
InChI=1S/C9H11N5O/c10-8-7-9(12-3-11-8)14(4-13-7)6-1-5(6)2-15/h3-6,15H,1-2H2,(H2,10,11,12)
> <PUBCHEM_IUPAC_INCHIKEY>
FIGKUPLEYZSJGF-UHFFFAOYSA-N
> <PUBCHEM_XLOGP3>
-0.4
> <PUBCHEM_EXACT_MASS>
205.09635999
> <PUBCHEM_MOLECULAR_FORMULA>
C9H11N5O
> <PUBCHEM_MOLECULAR_WEIGHT>
205.22
> <PUBCHEM_OPENEYE_CAN_SMILES>
C1C(C1N2C=NC3=C(N=CN=C32)N)CO
> <PUBCHEM_OPENEYE_ISO_SMILES>
C1C(C1N2C=NC3=C(N=CN=C32)N)CO
> <PUBCHEM_CACTVS_TPSA>
89.8
> <PUBCHEM_MONOISOTOPIC_WEIGHT>
205.09635999
> <PUBCHEM_TOTAL_CHARGE>
0
> <PUBCHEM_HEAVY_ATOM_COUNT>
15
> <PUBCHEM_ATOM_DEF_STEREO_COUNT>
0
> <PUBCHEM_ATOM_UDEF_STEREO_COUNT>
2
> <PUBCHEM_BOND_DEF_STEREO_COUNT>
0
> <PUBCHEM_BOND_UDEF_STEREO_COUNT>
0
> <PUBCHEM_ISOTOPIC_ATOM_COUNT>
0
> <PUBCHEM_COMPONENT_COUNT>
1
> <PUBCHEM_CACTVS_TAUTO_COUNT>
-1
> <PUBCHEM_COORDINATE_TYPE>
1
5
255
> <PUBCHEM_BONDANNOTATIONS>
11  13  8
13  14  8
2  11  8
2  12  8
7  2  3
3  12  8
3  13  8
4  11  8
4  15  8
5  14  8
5  15  8
8  10  3
$$$$
