500281
  -OEChem-10302200282D
 67 70  0     1  0  0  0  0  0999 V2000
    7.2566   -0.3414    0.0000 P   0  0  3  0  0  0  0  0  0  0  0  0
    9.9326    1.9344    0.0000 O   0  0  0  0  0  0  0  0  0  0  0  0
    8.2351   -0.1352    0.0000 O   0  0  0  0  0  0  0  0  0  0  0  0
    7.0504    0.6371    0.0000 O   0  0  0  0  0  0  0  0  0  0  0  0
   10.3122    3.7313    0.0000 O   0  0  0  0  0  0  0  0  0  0  0  0
    7.4628   -1.3199    0.0000 O   0  0  0  0  0  0  0  0  0  0  0  0
   13.6086    4.7961    0.0000 O   0  0  0  0  0  0  0  0  0  0  0  0
    7.6138   -2.0362    0.0000 O   0  0  0  0  0  0  0  0  0  0  0  0
    6.3246   -3.1930    0.0000 O   0  0  0  0  0  0  0  0  0  0  0  0
   11.5974    2.5701    0.0000 N   0  0  0  0  0  0  0  0  0  0  0  0
   10.1600   -0.6432    0.0000 N   0  0  0  0  0  0  0  0  0  0  0  0
    6.2781   -0.5476    0.0000 N   0  0  0  0  0  0  0  0  0  0  0  0
   11.9604    4.2637    0.0000 N   0  0  0  0  0  0  0  0  0  0  0  0
   10.9680   -1.2324    0.0000 N   0  3  0  0  0  0  0  0  0  0  0  0
    4.6783   -4.2644    0.0000 N   0  0  0  0  0  0  0  0  0  0  0  0
   11.7760   -1.8216    0.0000 N   0  5  0  0  0  0  0  0  0  0  0  0
   10.2663    0.3511    0.0000 C   0  0  2  0  0  0  0  0  0  0  0  0
    9.5243    1.0215    0.0000 C   0  0  1  0  0  0  0  0  0  0  0  0
   11.1332    0.8496    0.0000 C   0  0  0  0  0  0  0  0  0  0  0  0
   10.9269    1.8281    0.0000 C   0  0  1  0  0  0  0  0  0  0  0  0
    8.5458    0.8153    0.0000 C   0  0  0  0  0  0  0  0  0  0  0  0
   12.5751    2.3605    0.0000 C   0  0  0  0  0  0  0  0  0  0  0  0
   11.2900    3.5217    0.0000 C   0  0  0  0  0  0  0  0  0  0  0  0
    5.9674   -1.4982    0.0000 C   0  0  3  0  0  0  0  0  0  0  0  0
   13.2456    3.1025    0.0000 C   0  0  0  0  0  0  0  0  0  0  0  0
    4.9889   -1.7044    0.0000 C   0  0  0  0  0  0  0  0  0  0  0  0
   12.9382    4.0541    0.0000 C   0  0  0  0  0  0  0  0  0  0  0  0
    4.6783   -2.6549    0.0000 C   0  0  0  0  0  0  0  0  0  0  0  0
    3.7320   -2.9596    0.0000 C   0  0  0  0  0  0  0  0  0  0  0  0
   14.2233    2.8929    0.0000 C   0  0  0  0  0  0  0  0  0  0  0  0
    6.6353   -2.2425    0.0000 C   0  0  0  0  0  0  0  0  0  0  0  0
    3.7320   -3.9596    0.0000 C   0  0  0  0  0  0  0  0  0  0  0  0
    5.2619   -3.4596    0.0000 C   0  0  0  0  0  0  0  0  0  0  0  0
    2.8660   -2.4596    0.0000 C   0  0  0  0  0  0  0  0  0  0  0  0
    2.8660   -4.4596    0.0000 C   0  0  0  0  0  0  0  0  0  0  0  0
    6.0999    0.9478    0.0000 C   0  0  0  0  0  0  0  0  0  0  0  0
    2.0000   -2.9596    0.0000 C   0  0  0  0  0  0  0  0  0  0  0  0
    2.0000   -3.9596    0.0000 C   0  0  0  0  0  0  0  0  0  0  0  0
    8.2816   -2.7805    0.0000 C   0  0  0  0  0  0  0  0  0  0  0  0
    9.6871    0.1299    0.0000 H   0  0  0  0  0  0  0  0  0  0  0  0
    9.1349    1.5041    0.0000 H   0  0  0  0  0  0  0  0  0  0  0  0
   11.3844    0.2828    0.0000 H   0  0  0  0  0  0  0  0  0  0  0  0
   11.7231    1.0402    0.0000 H   0  0  0  0  0  0  0  0  0  0  0  0
   11.5255    1.6666    0.0000 H   0  0  0  0  0  0  0  0  0  0  0  0
    8.5252    1.4350    0.0000 H   0  0  0  0  0  0  0  0  0  0  0  0
    7.9320    0.9027    0.0000 H   0  0  0  0  0  0  0  0  0  0  0  0
   12.7657    1.7705    0.0000 H   0  0  0  0  0  0  0  0  0  0  0  0
    5.5534   -1.0367    0.0000 H   0  0  0  0  0  0  0  0  0  0  0  0
    5.8640   -0.0862    0.0000 H   0  0  0  0  0  0  0  0  0  0  0  0
    4.9684   -1.0847    0.0000 H   0  0  0  0  0  0  0  0  0  0  0  0
    4.3751   -1.6170    0.0000 H   0  0  0  0  0  0  0  0  0  0  0  0
   11.7698    4.8537    0.0000 H   0  0  0  0  0  0  0  0  0  0  0  0
   14.0934    2.2867    0.0000 H   0  0  0  0  0  0  0  0  0  0  0  0
   14.8296    2.7629    0.0000 H   0  0  0  0  0  0  0  0  0  0  0  0
   14.3533    3.4991    0.0000 H   0  0  0  0  0  0  0  0  0  0  0  0
    5.8819   -3.4596    0.0000 H   0  0  0  0  0  0  0  0  0  0  0  0
    4.8709   -4.8537    0.0000 H   0  0  0  0  0  0  0  0  0  0  0  0
    2.8660   -1.8396    0.0000 H   0  0  0  0  0  0  0  0  0  0  0  0
    2.8660   -5.0796    0.0000 H   0  0  0  0  0  0  0  0  0  0  0  0
    6.2925    1.5371    0.0000 H   0  0  0  0  0  0  0  0  0  0  0  0
    5.5106    1.1404    0.0000 H   0  0  0  0  0  0  0  0  0  0  0  0
    5.9073    0.3584    0.0000 H   0  0  0  0  0  0  0  0  0  0  0  0
    1.4631   -2.6496    0.0000 H   0  0  0  0  0  0  0  0  0  0  0  0
    1.4631   -4.2696    0.0000 H   0  0  0  0  0  0  0  0  0  0  0  0
    7.8202   -3.1946    0.0000 H   0  0  0  0  0  0  0  0  0  0  0  0
    8.6957   -3.2420    0.0000 H   0  0  0  0  0  0  0  0  0  0  0  0
    8.7431   -2.3665    0.0000 H   0  0  0  0  0  0  0  0  0  0  0  0
  1  3  1  0  0  0  0
  1  4  1  0  0  0  0
  1  6  2  0  0  0  0
  1 12  1  0  0  0  0
  2 18  1  0  0  0  0
  2 20  1  0  0  0  0
  3 21  1  0  0  0  0
  4 36  1  0  0  0  0
  5 23  2  0  0  0  0
  7 27  2  0  0  0  0
  8 31  1  0  0  0  0
  8 39  1  0  0  0  0
  9 31  2  0  0  0  0
 20 10  1  1  0  0  0
 10 22  1  0  0  0  0
 10 23  1  0  0  0  0
 11 14  2  0  0  0  0
 17 11  1  6  0  0  0
 12 24  1  0  0  0  0
 12 49  1  0  0  0  0
 13 23  1  0  0  0  0
 13 27  1  0  0  0  0
 13 52  1  0  0  0  0
 14 16  2  0  0  0  0
 15 32  1  0  0  0  0
 15 33  1  0  0  0  0
 15 57  1  0  0  0  0
 17 18  1  0  0  0  0
 17 19  1  0  0  0  0
 17 40  1  0  0  0  0
 18 21  1  1  0  0  0
 18 41  1  0  0  0  0
 19 20  1  0  0  0  0
 19 42  1  0  0  0  0
 19 43  1  0  0  0  0
 20 44  1  0  0  0  0
 21 45  1  0  0  0  0
 21 46  1  0  0  0  0
 22 25  2  0  0  0  0
 22 47  1  0  0  0  0
 24 26  1  0  0  0  0
 24 31  1  0  0  0  0
 24 48  1  0  0  0  0
 25 27  1  0  0  0  0
 25 30  1  0  0  0  0
 26 28  1  0  0  0  0
 26 50  1  0  0  0  0
 26 51  1  0  0  0  0
 28 29  1  0  0  0  0
 28 33  2  0  0  0  0
 29 32  1  0  0  0  0
 29 34  2  0  0  0  0
 30 53  1  0  0  0  0
 30 54  1  0  0  0  0
 30 55  1  0  0  0  0
 32 35  2  0  0  0  0
 33 56  1  0  0  0  0
 34 37  1  0  0  0  0
 34 58  1  0  0  0  0
 35 38  1  0  0  0  0
 35 59  1  0  0  0  0
 36 60  1  0  0  0  0
 36 61  1  0  0  0  0
 36 62  1  0  0  0  0
 37 38  2  0  0  0  0
 37 63  1  0  0  0  0
 38 64  1  0  0  0  0
 39 65  1  0  0  0  0
 39 66  1  0  0  0  0
 39 67  1  0  0  0  0
M  CHG  2  14   1  16  -1
M  END
> <PUBCHEM_COMPOUND_CID>
500281
> <PUBCHEM_COMPOUND_CANONICALIZED>
1
> <PUBCHEM_CACTVS_COMPLEXITY>
1080
> <PUBCHEM_CACTVS_HBOND_ACCEPTOR>
11
> <PUBCHEM_CACTVS_HBOND_DONOR>
3
> <PUBCHEM_CACTVS_ROTATABLE_BOND>
12
> <PUBCHEM_CACTVS_SUBSKEYS>
AAADceB7vAIAAAAAAAAAAAAAAAAAAWJAAAAwQAAAAAAAAFgB8AAAHgAYgCAADDzhngY/yPPJlRCqQzX3XICCgCAxAiAI2aG4ZNiLIPLA0ZGPIAhulyLKyMe4+fKOgAAAAAACAAAAAAAAAAQAAAAAAAAAAA==
> <PUBCHEM_IUPAC_OPENEYE_NAME>
methyl 2-[[[(2S,3S,5R)-3-azido-5-(5-methyl-2,4-dioxo-pyrimidin-1-yl)tetrahydrofuran-2-yl]methoxy-methoxy-phosphoryl]amino]-3-(1H-indol-3-yl)propanoate
> <PUBCHEM_IUPAC_CAS_NAME>
2-[[[(2S,3S,5R)-3-azido-5-(5-methyl-2,4-dioxo-1-pyrimidinyl)-2-oxolanyl]methoxy-methoxyphosphoryl]amino]-3-(1H-indol-3-yl)propanoic acid methyl ester
> <PUBCHEM_IUPAC_NAME_MARKUP>
methyl 2-[[[(2<I>S</I>,3<I>S</I>,5<I>R</I>)-3-azido-5-(5-methyl-2,4-dioxopyrimidin-1-yl)oxolan-2-yl]methoxy-methoxyphosphoryl]amino]-3-(1<I>H</I>-indol-3-yl)propanoate
> <PUBCHEM_IUPAC_NAME>
methyl 2-[[[(2S,3S,5R)-3-azido-5-(5-methyl-2,4-dioxopyrimidin-1-yl)oxolan-2-yl]methoxy-methoxyphosphoryl]amino]-3-(1H-indol-3-yl)propanoate
> <PUBCHEM_IUPAC_SYSTEMATIC_NAME>
methyl 2-[[[(2S,3S,5R)-3-azido-5-[5-methyl-2,4-bis(oxidanylidene)pyrimidin-1-yl]oxolan-2-yl]methoxy-methoxy-phosphoryl]amino]-3-(1H-indol-3-yl)propanoate
> <PUBCHEM_IUPAC_TRADITIONAL_NAME>
2-[[[(2S,3S,5R)-3-azido-5-(2,4-diketo-5-methyl-pyrimidin-1-yl)tetrahydrofuran-2-yl]methoxy-methoxy-phosphoryl]amino]-3-(1H-indol-3-yl)propionic acid methyl ester
> <PUBCHEM_IUPAC_INCHI>
InChI=1S/C23H28N7O8P/c1-13-11-30(23(33)26-21(13)31)20-9-17(27-29-24)19(38-20)12-37-39(34,36-3)28-18(22(32)35-2)8-14-10-25-16-7-5-4-6-15(14)16/h4-7,10-11,17-20,25H,8-9,12H2,1-3H3,(H,28,34)(H,26,31,33)/t17-,18?,19+,20+,39?/m0/s1
> <PUBCHEM_IUPAC_INCHIKEY>
OKSYVILRXYWJLH-GXXIKAPISA-N
> <PUBCHEM_XLOGP3_AA>
1.8
> <PUBCHEM_EXACT_MASS>
561.17369787
> <PUBCHEM_MOLECULAR_FORMULA>
C23H28N7O8P
> <PUBCHEM_MOLECULAR_WEIGHT>
561.5
> <PUBCHEM_OPENEYE_CAN_SMILES>
CC1=CN(C(=O)NC1=O)C2CC(C(O2)COP(=O)(NC(CC3=CNC4=CC=CC=C43)C(=O)OC)OC)N=[N+]=[N-]
> <PUBCHEM_OPENEYE_ISO_SMILES>
CC1=CN(C(=O)NC1=O)[C@H]2C[C@@H]([C@H](O2)COP(=O)(NC(CC3=CNC4=CC=CC=C43)C(=O)OC)OC)N=[N+]=[N-]
> <PUBCHEM_CACTVS_TPSA>
163
> <PUBCHEM_MONOISOTOPIC_WEIGHT>
561.17369787
> <PUBCHEM_TOTAL_CHARGE>
0
> <PUBCHEM_HEAVY_ATOM_COUNT>
39
> <PUBCHEM_ATOM_DEF_STEREO_COUNT>
3
> <PUBCHEM_ATOM_UDEF_STEREO_COUNT>
2
> <PUBCHEM_BOND_DEF_STEREO_COUNT>
0
> <PUBCHEM_BOND_UDEF_STEREO_COUNT>
0
> <PUBCHEM_ISOTOPIC_ATOM_COUNT>
0
> <PUBCHEM_COMPONENT_COUNT>
1
> <PUBCHEM_CACTVS_TAUTO_COUNT>
-1
> <PUBCHEM_COORDINATE_TYPE>
1
5
255
> <PUBCHEM_BONDANNOTATIONS>
1  12  3
20  10  5
10  22  8
10  23  8
17  11  6
13  23  8
13  27  8
15  32  8
15  33  8
18  21  5
22  25  8
24  26  3
25  27  8
28  29  8
28  33  8
29  32  8
29  34  8
32  35  8
34  37  8
35  38  8
37  38  8
$$$$
