500231
  -OEChem-10302200282D
 53 56  0     1  0  0  0  0  0999 V2000
    8.1424    0.3176    0.0000 O   0  0  0  0  0  0  0  0  0  0  0  0
    4.5981    0.1224    0.0000 O   0  0  0  0  0  0  0  0  0  0  0  0
    9.7260   -0.6097    0.0000 O   0  0  0  0  0  0  0  0  0  0  0  0
    4.5981    2.1224    0.0000 O   0  0  0  0  0  0  0  0  0  0  0  0
   12.7260    1.1224    0.0000 O   0  0  0  0  0  0  0  0  0  0  0  0
    8.1424    1.9271    0.0000 C   0  0  3  0  0  0  0  0  0  0  0  0
    8.7260    1.1224    0.0000 C   0  0  3  0  0  0  0  0  0  0  0  0
    7.1962    1.6224    0.0000 C   0  0  0  0  0  0  0  0  0  0  0  0
    7.1962    0.6224    0.0000 C   0  0  0  0  0  0  0  0  0  0  0  0
    9.7260    1.1224    0.0000 C   0  0  0  0  0  0  0  0  0  0  0  0
    8.4530    2.8776    0.0000 C   0  0  0  0  0  0  0  0  0  0  0  0
    6.3301    2.1224    0.0000 C   0  0  0  0  0  0  0  0  0  0  0  0
    6.3301    0.1224    0.0000 C   0  0  0  0  0  0  0  0  0  0  0  0
   10.2260    0.2563    0.0000 C   0  0  0  0  0  0  0  0  0  0  0  0
   10.2260    1.9884    0.0000 C   0  0  0  0  0  0  0  0  0  0  0  0
    5.4641    1.6224    0.0000 C   0  0  0  0  0  0  0  0  0  0  0  0
    5.4641    0.6224    0.0000 C   0  0  0  0  0  0  0  0  0  0  0  0
   11.2260    0.2563    0.0000 C   0  0  0  0  0  0  0  0  0  0  0  0
   11.2260    1.9884    0.0000 C   0  0  0  0  0  0  0  0  0  0  0  0
   11.7260    1.1224    0.0000 C   0  0  0  0  0  0  0  0  0  0  0  0
    4.5981   -0.8776    0.0000 C   0  0  0  0  0  0  0  0  0  0  0  0
   10.2260   -1.4757    0.0000 C   0  0  0  0  0  0  0  0  0  0  0  0
    3.7320   -1.3776    0.0000 C   0  0  0  0  0  0  0  0  0  0  0  0
   13.2260    1.9884    0.0000 C   0  0  0  0  0  0  0  0  0  0  0  0
    3.7320   -2.3776    0.0000 C   0  0  0  0  0  0  0  0  0  0  0  0
    2.8660   -0.8776    0.0000 C   0  0  0  0  0  0  0  0  0  0  0  0
    2.8660   -2.8776    0.0000 C   0  0  0  0  0  0  0  0  0  0  0  0
    2.0000   -1.3776    0.0000 C   0  0  0  0  0  0  0  0  0  0  0  0
    2.0000   -2.3776    0.0000 C   0  0  0  0  0  0  0  0  0  0  0  0
    7.7049    2.3665    0.0000 H   0  0  0  0  0  0  0  0  0  0  0  0
    9.0077    0.5701    0.0000 H   0  0  0  0  0  0  0  0  0  0  0  0
    9.0424    2.6850    0.0000 H   0  0  0  0  0  0  0  0  0  0  0  0
    8.6456    3.4670    0.0000 H   0  0  0  0  0  0  0  0  0  0  0  0
    7.8637    3.0702    0.0000 H   0  0  0  0  0  0  0  0  0  0  0  0
    6.3301    2.7424    0.0000 H   0  0  0  0  0  0  0  0  0  0  0  0
    6.3301   -0.4976    0.0000 H   0  0  0  0  0  0  0  0  0  0  0  0
    9.9160    2.5253    0.0000 H   0  0  0  0  0  0  0  0  0  0  0  0
   11.5360   -0.2806    0.0000 H   0  0  0  0  0  0  0  0  0  0  0  0
   11.5360    2.5253    0.0000 H   0  0  0  0  0  0  0  0  0  0  0  0
    4.5981    2.7424    0.0000 H   0  0  0  0  0  0  0  0  0  0  0  0
    4.8101   -1.4602    0.0000 H   0  0  0  0  0  0  0  0  0  0  0  0
    5.2087   -0.7700    0.0000 H   0  0  0  0  0  0  0  0  0  0  0  0
    9.6890   -1.7857    0.0000 H   0  0  0  0  0  0  0  0  0  0  0  0
   10.5360   -2.0126    0.0000 H   0  0  0  0  0  0  0  0  0  0  0  0
   10.7629   -1.1657    0.0000 H   0  0  0  0  0  0  0  0  0  0  0  0
    4.2690   -2.6876    0.0000 H   0  0  0  0  0  0  0  0  0  0  0  0
    2.8660   -0.2576    0.0000 H   0  0  0  0  0  0  0  0  0  0  0  0
   13.7629    1.6784    0.0000 H   0  0  0  0  0  0  0  0  0  0  0  0
   13.5360    2.5253    0.0000 H   0  0  0  0  0  0  0  0  0  0  0  0
   12.6890    2.2984    0.0000 H   0  0  0  0  0  0  0  0  0  0  0  0
    2.8660   -3.4976    0.0000 H   0  0  0  0  0  0  0  0  0  0  0  0
    1.4631   -1.0676    0.0000 H   0  0  0  0  0  0  0  0  0  0  0  0
    1.4631   -2.6876    0.0000 H   0  0  0  0  0  0  0  0  0  0  0  0
  1  7  1  0  0  0  0
  1  9  1  0  0  0  0
  2 17  1  0  0  0  0
  2 21  1  0  0  0  0
  3 14  1  0  0  0  0
  3 22  1  0  0  0  0
  4 16  1  0  0  0  0
  4 40  1  0  0  0  0
  5 20  1  0  0  0  0
  5 24  1  0  0  0  0
  6  7  1  0  0  0  0
  6  8  1  0  0  0  0
  6 11  1  0  0  0  0
  6 30  1  0  0  0  0
  7 10  1  0  0  0  0
  7 31  1  0  0  0  0
  8  9  1  0  0  0  0
  8 12  2  0  0  0  0
  9 13  2  0  0  0  0
 10 14  2  0  0  0  0
 10 15  1  0  0  0  0
 11 32  1  0  0  0  0
 11 33  1  0  0  0  0
 11 34  1  0  0  0  0
 12 16  1  0  0  0  0
 12 35  1  0  0  0  0
 13 17  1  0  0  0  0
 13 36  1  0  0  0  0
 14 18  1  0  0  0  0
 15 19  2  0  0  0  0
 15 37  1  0  0  0  0
 16 17  2  0  0  0  0
 18 20  2  0  0  0  0
 18 38  1  0  0  0  0
 19 20  1  0  0  0  0
 19 39  1  0  0  0  0
 21 23  1  0  0  0  0
 21 41  1  0  0  0  0
 21 42  1  0  0  0  0
 22 43  1  0  0  0  0
 22 44  1  0  0  0  0
 22 45  1  0  0  0  0
 23 25  2  0  0  0  0
 23 26  1  0  0  0  0
 24 48  1  0  0  0  0
 24 49  1  0  0  0  0
 24 50  1  0  0  0  0
 25 27  1  0  0  0  0
 25 46  1  0  0  0  0
 26 28  2  0  0  0  0
 26 47  1  0  0  0  0
 27 29  2  0  0  0  0
 27 51  1  0  0  0  0
 28 29  1  0  0  0  0
 28 52  1  0  0  0  0
 29 53  1  0  0  0  0
M  END
> <PUBCHEM_COMPOUND_CID>
500231
> <PUBCHEM_COMPOUND_CANONICALIZED>
1
> <PUBCHEM_CACTVS_COMPLEXITY>
508
> <PUBCHEM_CACTVS_HBOND_ACCEPTOR>
5
> <PUBCHEM_CACTVS_HBOND_DONOR>
1
> <PUBCHEM_CACTVS_ROTATABLE_BOND>
6
> <PUBCHEM_CACTVS_SUBSKEYS>
AAADceB4OAAAAAAAAAAAAAAAAAAAASAAAAAwYMAAAAAAAEgBUAAAGgAACAAADRSgmAIyBoAABgCAAiBCAAACCAAgIAAIiAAGiIgNJyKGMRqCeCOlwBULuAfA4PwOoQABCAAIQABCAAIQABCAAAAAAAAAAA==
> <PUBCHEM_IUPAC_OPENEYE_NAME>
6-benzyloxy-2-(2,4-dimethoxyphenyl)-3-methyl-2,3-dihydrobenzofuran-5-ol
> <PUBCHEM_IUPAC_CAS_NAME>
2-(2,4-dimethoxyphenyl)-3-methyl-6-phenylmethoxy-2,3-dihydrobenzofuran-5-ol
> <PUBCHEM_IUPAC_NAME_MARKUP>
2-(2,4-dimethoxyphenyl)-3-methyl-6-phenylmethoxy-2,3-dihydro-1-benzofuran-5-ol
> <PUBCHEM_IUPAC_NAME>
2-(2,4-dimethoxyphenyl)-3-methyl-6-phenylmethoxy-2,3-dihydro-1-benzofuran-5-ol
> <PUBCHEM_IUPAC_SYSTEMATIC_NAME>
2-(2,4-dimethoxyphenyl)-3-methyl-6-phenylmethoxy-2,3-dihydro-1-benzofuran-5-ol
> <PUBCHEM_IUPAC_TRADITIONAL_NAME>
6-benzoxy-2-(2,4-dimethoxyphenyl)-3-methyl-coumaran-5-ol
> <PUBCHEM_IUPAC_INCHI>
InChI=1S/C24H24O5/c1-15-19-12-20(25)23(28-14-16-7-5-4-6-8-16)13-22(19)29-24(15)18-10-9-17(26-2)11-21(18)27-3/h4-13,15,24-25H,14H2,1-3H3
> <PUBCHEM_IUPAC_INCHIKEY>
DULSSFQGNKEASB-UHFFFAOYSA-N
> <PUBCHEM_XLOGP3_AA>
4.8
> <PUBCHEM_EXACT_MASS>
392.16237386
> <PUBCHEM_MOLECULAR_FORMULA>
C24H24O5
> <PUBCHEM_MOLECULAR_WEIGHT>
392.4
> <PUBCHEM_OPENEYE_CAN_SMILES>
CC1C(OC2=CC(=C(C=C12)O)OCC3=CC=CC=C3)C4=C(C=C(C=C4)OC)OC
> <PUBCHEM_OPENEYE_ISO_SMILES>
CC1C(OC2=CC(=C(C=C12)O)OCC3=CC=CC=C3)C4=C(C=C(C=C4)OC)OC
> <PUBCHEM_CACTVS_TPSA>
57.2
> <PUBCHEM_MONOISOTOPIC_WEIGHT>
392.16237386
> <PUBCHEM_TOTAL_CHARGE>
0
> <PUBCHEM_HEAVY_ATOM_COUNT>
29
> <PUBCHEM_ATOM_DEF_STEREO_COUNT>
0
> <PUBCHEM_ATOM_UDEF_STEREO_COUNT>
2
> <PUBCHEM_BOND_DEF_STEREO_COUNT>
0
> <PUBCHEM_BOND_UDEF_STEREO_COUNT>
0
> <PUBCHEM_ISOTOPIC_ATOM_COUNT>
0
> <PUBCHEM_COMPONENT_COUNT>
1
> <PUBCHEM_CACTVS_TAUTO_COUNT>
-1
> <PUBCHEM_COORDINATE_TYPE>
1
5
255
> <PUBCHEM_BONDANNOTATIONS>
10  14  8
10  15  8
12  16  8
13  17  8
14  18  8
15  19  8
16  17  8
18  20  8
19  20  8
23  25  8
23  26  8
25  27  8
26  28  8
27  29  8
28  29  8
6  11  3
7  10  3
8  12  8
8  9  8
9  13  8
$$$$
