500254
  -OEChem-10302200282D
 57 61  0     1  0  0  0  0  0999 V2000
    8.8835    0.7930    0.0000 O   0  0  0  0  0  0  0  0  0  0  0  0
    5.4111    0.7930    0.0000 O   0  0  0  0  0  0  0  0  0  0  0  0
    7.1473   -3.1694    0.0000 O   0  0  0  0  0  0  0  0  0  0  0  0
   11.9525   -1.3640    0.0000 O   0  0  0  0  0  0  0  0  0  0  0  0
    2.3420   -1.3640    0.0000 O   0  0  0  0  0  0  0  0  0  0  0  0
    7.1473   -0.1694    0.0000 C   0  0  0  0  0  0  0  0  0  0  0  0
    8.0133   -0.6694    0.0000 C   0  0  3  0  0  0  0  0  0  0  0  0
    6.2812   -0.6694    0.0000 C   0  0  3  0  0  0  0  0  0  0  0  0
    8.0133   -1.6694    0.0000 C   0  0  0  0  0  0  0  0  0  0  0  0
    6.2812   -1.6694    0.0000 C   0  0  0  0  0  0  0  0  0  0  0  0
    7.9563    0.4184    0.0000 C   0  0  0  0  0  0  0  0  0  0  0  0
    6.3383    0.4184    0.0000 C   0  0  0  0  0  0  0  0  0  0  0  0
    7.1473   -2.1694    0.0000 C   0  0  0  0  0  0  0  0  0  0  0  0
    8.9981   -0.8431    0.0000 C   0  0  0  0  0  0  0  0  0  0  0  0
    5.2964   -0.8431    0.0000 C   0  0  0  0  0  0  0  0  0  0  0  0
    7.6473    1.3694    0.0000 C   0  0  0  0  0  0  0  0  0  0  0  0
    6.6473    1.3694    0.0000 C   0  0  0  0  0  0  0  0  0  0  0  0
    9.6409   -0.0770    0.0000 C   0  0  0  0  0  0  0  0  0  0  0  0
    4.9544   -1.7827    0.0000 C   0  0  0  0  0  0  0  0  0  0  0  0
    9.3401   -1.7828    0.0000 C   0  0  0  0  0  0  0  0  0  0  0  0
    4.6537   -0.0770    0.0000 C   0  0  0  0  0  0  0  0  0  0  0  0
    8.1819    2.2634    0.0000 C   0  0  0  0  0  0  0  0  0  0  0  0
    6.1126    2.2634    0.0000 C   0  0  0  0  0  0  0  0  0  0  0  0
    7.6681    3.1694    0.0000 C   0  0  0  0  0  0  0  0  0  0  0  0
    6.6265    3.1694    0.0000 C   0  0  0  0  0  0  0  0  0  0  0  0
   10.6257   -0.2507    0.0000 C   0  0  0  0  0  0  0  0  0  0  0  0
    3.9696   -1.9564    0.0000 C   0  0  0  0  0  0  0  0  0  0  0  0
   10.3249   -1.9564    0.0000 C   0  0  0  0  0  0  0  0  0  0  0  0
    3.6688   -0.2507    0.0000 C   0  0  0  0  0  0  0  0  0  0  0  0
   10.9677   -1.1904    0.0000 C   0  0  0  0  0  0  0  0  0  0  0  0
    3.3268   -1.1904    0.0000 C   0  0  0  0  0  0  0  0  0  0  0  0
   12.2946   -2.3037    0.0000 C   0  0  0  0  0  0  0  0  0  0  0  0
    2.0000   -2.3037    0.0000 C   0  0  0  0  0  0  0  0  0  0  0  0
    8.4118   -1.1444    0.0000 H   0  0  0  0  0  0  0  0  0  0  0  0
    5.8827   -1.1444    0.0000 H   0  0  0  0  0  0  0  0  0  0  0  0
    8.2254   -2.2520    0.0000 H   0  0  0  0  0  0  0  0  0  0  0  0
    8.6239   -1.5618    0.0000 H   0  0  0  0  0  0  0  0  0  0  0  0
    5.6707   -1.5618    0.0000 H   0  0  0  0  0  0  0  0  0  0  0  0
    6.0692   -2.2520    0.0000 H   0  0  0  0  0  0  0  0  0  0  0  0
    9.4288    0.5056    0.0000 H   0  0  0  0  0  0  0  0  0  0  0  0
    5.3529   -2.2576    0.0000 H   0  0  0  0  0  0  0  0  0  0  0  0
    8.9416   -2.2577    0.0000 H   0  0  0  0  0  0  0  0  0  0  0  0
    4.8657    0.5056    0.0000 H   0  0  0  0  0  0  0  0  0  0  0  0
    8.8019    2.2562    0.0000 H   0  0  0  0  0  0  0  0  0  0  0  0
    5.4927    2.2562    0.0000 H   0  0  0  0  0  0  0  0  0  0  0  0
    7.9802    3.7052    0.0000 H   0  0  0  0  0  0  0  0  0  0  0  0
    6.3144    3.7052    0.0000 H   0  0  0  0  0  0  0  0  0  0  0  0
   11.0242    0.2243    0.0000 H   0  0  0  0  0  0  0  0  0  0  0  0
    3.7576   -2.5390    0.0000 H   0  0  0  0  0  0  0  0  0  0  0  0
   10.5370   -2.5390    0.0000 H   0  0  0  0  0  0  0  0  0  0  0  0
    3.2703    0.2243    0.0000 H   0  0  0  0  0  0  0  0  0  0  0  0
   11.7119   -2.5158    0.0000 H   0  0  0  0  0  0  0  0  0  0  0  0
   12.5066   -2.8863    0.0000 H   0  0  0  0  0  0  0  0  0  0  0  0
   12.8772   -2.0917    0.0000 H   0  0  0  0  0  0  0  0  0  0  0  0
    1.4174   -2.0917    0.0000 H   0  0  0  0  0  0  0  0  0  0  0  0
    1.7880   -2.8863    0.0000 H   0  0  0  0  0  0  0  0  0  0  0  0
    2.5826   -2.5158    0.0000 H   0  0  0  0  0  0  0  0  0  0  0  0
  1 11  2  0  0  0  0
  2 12  2  0  0  0  0
  3 13  2  0  0  0  0
  4 30  1  0  0  0  0
  4 32  1  0  0  0  0
  5 31  1  0  0  0  0
  5 33  1  0  0  0  0
  6  7  1  0  0  0  0
  6  8  1  0  0  0  0
  6 11  1  0  0  0  0
  6 12  1  0  0  0  0
  7  9  1  0  0  0  0
  7 14  1  0  0  0  0
  7 34  1  0  0  0  0
  8 10  1  0  0  0  0
  8 15  1  0  0  0  0
  8 35  1  0  0  0  0
  9 13  1  0  0  0  0
  9 36  1  0  0  0  0
  9 37  1  0  0  0  0
 10 13  1  0  0  0  0
 10 38  1  0  0  0  0
 10 39  1  0  0  0  0
 11 16  1  0  0  0  0
 12 17  1  0  0  0  0
 14 18  2  0  0  0  0
 14 20  1  0  0  0  0
 15 19  2  0  0  0  0
 15 21  1  0  0  0  0
 16 17  1  0  0  0  0
 16 22  2  0  0  0  0
 17 23  2  0  0  0  0
 18 26  1  0  0  0  0
 18 40  1  0  0  0  0
 19 27  1  0  0  0  0
 19 41  1  0  0  0  0
 20 28  2  0  0  0  0
 20 42  1  0  0  0  0
 21 29  2  0  0  0  0
 21 43  1  0  0  0  0
 22 24  1  0  0  0  0
 22 44  1  0  0  0  0
 23 25  1  0  0  0  0
 23 45  1  0  0  0  0
 24 25  2  0  0  0  0
 24 46  1  0  0  0  0
 25 47  1  0  0  0  0
 26 30  2  0  0  0  0
 26 48  1  0  0  0  0
 27 31  2  0  0  0  0
 27 49  1  0  0  0  0
 28 30  1  0  0  0  0
 28 50  1  0  0  0  0
 29 31  1  0  0  0  0
 29 51  1  0  0  0  0
 32 52  1  0  0  0  0
 32 53  1  0  0  0  0
 32 54  1  0  0  0  0
 33 55  1  0  0  0  0
 33 56  1  0  0  0  0
 33 57  1  0  0  0  0
M  END
> <PUBCHEM_COMPOUND_CID>
500254
> <PUBCHEM_COMPOUND_CANONICALIZED>
1
> <PUBCHEM_CACTVS_COMPLEXITY>
696
> <PUBCHEM_CACTVS_HBOND_ACCEPTOR>
5
> <PUBCHEM_CACTVS_HBOND_DONOR>
0
> <PUBCHEM_CACTVS_ROTATABLE_BOND>
4
> <PUBCHEM_CACTVS_SUBSKEYS>
AAADceB4OAAAAAAAAAAAAAAAAAAAAYAAAAAwYMGAAAAAAGABUAAAGgAAAAAADwSAmAIyBoAABACIAqBSAAACCAAkIAAIiAEGCMgMJjKMNRqAMSAkwBEIqYeJyvCvoAAAAAAQAABAAAQAACAAAQAACAAAAA==
> <PUBCHEM_IUPAC_OPENEYE_NAME>
3,5-bis(4-methoxyphenyl)spiro[cyclohexane-4,2'-indane]-1,1',3'-trione
> <PUBCHEM_IUPAC_CAS_NAME>
3,5-bis(4-methoxyphenyl)spiro[cyclohexane-4,2'-indene]-1,1',3'-trione
> <PUBCHEM_IUPAC_NAME_MARKUP>
3,5-bis(4-methoxyphenyl)spiro[cyclohexane-4,2&apos;-indene]-1,1&apos;,3&apos;-trione
> <PUBCHEM_IUPAC_NAME>
3,5-bis(4-methoxyphenyl)spiro[cyclohexane-4,2'-indene]-1,1',3'-trione
> <PUBCHEM_IUPAC_SYSTEMATIC_NAME>
3,5-bis(4-methoxyphenyl)spiro[cyclohexane-4,2'-indene]-1,1',3'-trione
> <PUBCHEM_IUPAC_TRADITIONAL_NAME>
3,5-bis(4-methoxyphenyl)spiro[cyclohexane-4,2'-indane]-1,1',3'-trione
> <PUBCHEM_IUPAC_INCHI>
InChI=1S/C28H24O5/c1-32-20-11-7-17(8-12-20)24-15-19(29)16-25(18-9-13-21(33-2)14-10-18)28(24)26(30)22-5-3-4-6-23(22)27(28)31/h3-14,24-25H,15-16H2,1-2H3
> <PUBCHEM_IUPAC_INCHIKEY>
WWLCJZULYFCYTI-UHFFFAOYSA-N
> <PUBCHEM_XLOGP3_AA>
4.1
> <PUBCHEM_EXACT_MASS>
440.16237386
> <PUBCHEM_MOLECULAR_FORMULA>
C28H24O5
> <PUBCHEM_MOLECULAR_WEIGHT>
440.5
> <PUBCHEM_OPENEYE_CAN_SMILES>
COC1=CC=C(C=C1)C2CC(=O)CC(C23C(=O)C4=CC=CC=C4C3=O)C5=CC=C(C=C5)OC
> <PUBCHEM_OPENEYE_ISO_SMILES>
COC1=CC=C(C=C1)C2CC(=O)CC(C23C(=O)C4=CC=CC=C4C3=O)C5=CC=C(C=C5)OC
> <PUBCHEM_CACTVS_TPSA>
69.7
> <PUBCHEM_MONOISOTOPIC_WEIGHT>
440.16237386
> <PUBCHEM_TOTAL_CHARGE>
0
> <PUBCHEM_HEAVY_ATOM_COUNT>
33
> <PUBCHEM_ATOM_DEF_STEREO_COUNT>
0
> <PUBCHEM_ATOM_UDEF_STEREO_COUNT>
2
> <PUBCHEM_BOND_DEF_STEREO_COUNT>
0
> <PUBCHEM_BOND_UDEF_STEREO_COUNT>
0
> <PUBCHEM_ISOTOPIC_ATOM_COUNT>
0
> <PUBCHEM_COMPONENT_COUNT>
1
> <PUBCHEM_CACTVS_TAUTO_COUNT>
-1
> <PUBCHEM_COORDINATE_TYPE>
1
5
255
> <PUBCHEM_BONDANNOTATIONS>
14  18  8
14  20  8
15  19  8
15  21  8
16  17  8
16  22  8
17  23  8
18  26  8
19  27  8
20  28  8
21  29  8
22  24  8
23  25  8
24  25  8
26  30  8
27  31  8
28  30  8
29  31  8
7  14  3
8  15  3
$$$$
