500229
  -OEChem-10302200282D
 51 55  0     1  0  0  0  0  0999 V2000
    8.7255   -1.0051    0.0000 O   0  0  0  0  0  0  0  0  0  0  0  0
   10.8695    1.0634    0.0000 O   0  0  0  0  0  0  0  0  0  0  0  0
    5.2360   -0.1009    0.0000 O   0  0  0  0  0  0  0  0  0  0  0  0
    5.8654    1.8418    0.0000 O   0  0  0  0  0  0  0  0  0  0  0  0
   13.5091   -1.2808    0.0000 O   0  0  0  0  0  0  0  0  0  0  0  0
    9.5312   -0.4229    0.0000 C   0  0  3  0  0  0  0  0  0  0  0  0
    9.2222    0.5281    0.0000 C   0  0  3  0  0  0  0  0  0  0  0  0
    8.2282    0.5256    0.0000 C   0  0  0  0  0  0  0  0  0  0  0  0
   10.5094   -0.6308    0.0000 C   0  0  0  0  0  0  0  0  0  0  0  0
    9.8913    1.2713    0.0000 C   0  0  0  0  0  0  0  0  0  0  0  0
    9.8402   -1.3740    0.0000 C   0  0  0  0  0  0  0  0  0  0  0  0
    7.9218   -0.4201    0.0000 C   0  0  0  0  0  0  0  0  0  0  0  0
   11.1785    0.1123    0.0000 C   0  0  0  0  0  0  0  0  0  0  0  0
    7.5466    1.3051    0.0000 C   0  0  0  0  0  0  0  0  0  0  0  0
   10.8160   -1.6263    0.0000 C   0  0  0  0  0  0  0  0  0  0  0  0
    6.9126   -0.6519    0.0000 C   0  0  0  0  0  0  0  0  0  0  0  0
   12.2006   -0.0885    0.0000 C   0  0  0  0  0  0  0  0  0  0  0  0
    6.5323    1.0967    0.0000 C   0  0  0  0  0  0  0  0  0  0  0  0
    6.2132    0.1117    0.0000 C   0  0  0  0  0  0  0  0  0  0  0  0
   11.8331   -1.8507    0.0000 C   0  0  0  0  0  0  0  0  0  0  0  0
   12.5301   -1.0767    0.0000 C   0  0  0  0  0  0  0  0  0  0  0  0
    4.9315   -1.0534    0.0000 C   0  0  0  0  0  0  0  0  0  0  0  0
   13.8217   -2.2306    0.0000 C   0  0  0  0  0  0  0  0  0  0  0  0
    3.9543   -1.2659    0.0000 C   0  0  0  0  0  0  0  0  0  0  0  0
    3.6498   -2.2184    0.0000 C   0  0  0  0  0  0  0  0  0  0  0  0
    3.2817   -0.5259    0.0000 C   0  0  0  0  0  0  0  0  0  0  0  0
    2.6726   -2.4309    0.0000 C   0  0  0  0  0  0  0  0  0  0  0  0
    2.3045   -0.7385    0.0000 C   0  0  0  0  0  0  0  0  0  0  0  0
    2.0000   -1.6910    0.0000 C   0  0  0  0  0  0  0  0  0  0  0  0
    8.9693    1.0942    0.0000 H   0  0  0  0  0  0  0  0  0  0  0  0
   10.1236    1.8461    0.0000 H   0  0  0  0  0  0  0  0  0  0  0  0
    9.3656    1.5998    0.0000 H   0  0  0  0  0  0  0  0  0  0  0  0
    9.2506   -1.5656    0.0000 H   0  0  0  0  0  0  0  0  0  0  0  0
   10.0318   -1.9636    0.0000 H   0  0  0  0  0  0  0  0  0  0  0  0
   10.4299   -1.1824    0.0000 H   0  0  0  0  0  0  0  0  0  0  0  0
    7.7444    1.8926    0.0000 H   0  0  0  0  0  0  0  0  0  0  0  0
   10.3958   -2.0822    0.0000 H   0  0  0  0  0  0  0  0  0  0  0  0
    6.7283   -1.2439    0.0000 H   0  0  0  0  0  0  0  0  0  0  0  0
   12.6101    0.3770    0.0000 H   0  0  0  0  0  0  0  0  0  0  0  0
   12.0224   -2.4411    0.0000 H   0  0  0  0  0  0  0  0  0  0  0  0
    6.0587    2.4309    0.0000 H   0  0  0  0  0  0  0  0  0  0  0  0
    4.9560   -1.6729    0.0000 H   0  0  0  0  0  0  0  0  0  0  0  0
    5.5458   -1.1368    0.0000 H   0  0  0  0  0  0  0  0  0  0  0  0
   13.2328   -2.4245    0.0000 H   0  0  0  0  0  0  0  0  0  0  0  0
   14.0156   -2.8196    0.0000 H   0  0  0  0  0  0  0  0  0  0  0  0
   14.4106   -2.0368    0.0000 H   0  0  0  0  0  0  0  0  0  0  0  0
    4.0668   -2.6772    0.0000 H   0  0  0  0  0  0  0  0  0  0  0  0
    3.4705    0.0646    0.0000 H   0  0  0  0  0  0  0  0  0  0  0  0
    2.4838   -3.0215    0.0000 H   0  0  0  0  0  0  0  0  0  0  0  0
    1.8875   -0.2797    0.0000 H   0  0  0  0  0  0  0  0  0  0  0  0
    1.3942   -1.8227    0.0000 H   0  0  0  0  0  0  0  0  0  0  0  0
  1  6  1  0  0  0  0
  1 12  1  0  0  0  0
  2 10  1  0  0  0  0
  2 13  1  0  0  0  0
  3 19  1  0  0  0  0
  3 22  1  0  0  0  0
  4 18  1  0  0  0  0
  4 41  1  0  0  0  0
  5 21  1  0  0  0  0
  5 23  1  0  0  0  0
  6  7  1  0  0  0  0
  6  9  1  0  0  0  0
  6 11  1  0  0  0  0
  7  8  1  0  0  0  0
  7 10  1  0  0  0  0
  7 30  1  0  0  0  0
  8 12  1  0  0  0  0
  8 14  2  0  0  0  0
  9 13  2  0  0  0  0
  9 15  1  0  0  0  0
 10 31  1  0  0  0  0
 10 32  1  0  0  0  0
 11 33  1  0  0  0  0
 11 34  1  0  0  0  0
 11 35  1  0  0  0  0
 12 16  2  0  0  0  0
 13 17  1  0  0  0  0
 14 18  1  0  0  0  0
 14 36  1  0  0  0  0
 15 20  2  0  0  0  0
 15 37  1  0  0  0  0
 16 19  1  0  0  0  0
 16 38  1  0  0  0  0
 17 21  2  0  0  0  0
 17 39  1  0  0  0  0
 18 19  2  0  0  0  0
 20 21  1  0  0  0  0
 20 40  1  0  0  0  0
 22 24  1  0  0  0  0
 22 42  1  0  0  0  0
 22 43  1  0  0  0  0
 23 44  1  0  0  0  0
 23 45  1  0  0  0  0
 23 46  1  0  0  0  0
 24 25  2  0  0  0  0
 24 26  1  0  0  0  0
 25 27  1  0  0  0  0
 25 47  1  0  0  0  0
 26 28  2  0  0  0  0
 26 48  1  0  0  0  0
 27 29  2  0  0  0  0
 27 49  1  0  0  0  0
 28 29  1  0  0  0  0
 28 50  1  0  0  0  0
 29 51  1  0  0  0  0
M  END
> <PUBCHEM_COMPOUND_CID>
500229
> <PUBCHEM_COMPOUND_CANONICALIZED>
1
> <PUBCHEM_CACTVS_COMPLEXITY>
564
> <PUBCHEM_CACTVS_HBOND_ACCEPTOR>
5
> <PUBCHEM_CACTVS_HBOND_DONOR>
1
> <PUBCHEM_CACTVS_ROTATABLE_BOND>
4
> <PUBCHEM_CACTVS_SUBSKEYS>
AAADceB4OAAAAAAAAAAAAAAAAAAAASAAAAA0YMEAAAAAAEiRUAAAGgAACAAADUSgmAIyBoAABgCAAiBCAAACCAAgIAAIiAAGiIgNJyKGMRqCeCOlwBULuAfA4PwOoQABCAAIQABCAAIQABCAAAAAAAAAAA==
> <PUBCHEM_IUPAC_OPENEYE_NAME>
9-benzyloxy-3-methoxy-11a-methyl-6,6a-dihydrobenzofuro[3,2-c]chromen-8-ol
> <PUBCHEM_IUPAC_CAS_NAME>
3-methoxy-11a-methyl-9-phenylmethoxy-6,6a-dihydrobenzofuro[3,2-c][1]benzopyran-8-ol
> <PUBCHEM_IUPAC_NAME_MARKUP>
3-methoxy-11<I>a</I>-methyl-9-phenylmethoxy-6,6<I>a</I>-dihydro-[1]benzofuro[3,2-c]chromen-8-ol
> <PUBCHEM_IUPAC_NAME>
3-methoxy-11a-methyl-9-phenylmethoxy-6,6a-dihydro-[1]benzofuro[3,2-c]chromen-8-ol
> <PUBCHEM_IUPAC_SYSTEMATIC_NAME>
3-methoxy-11a-methyl-9-phenylmethoxy-6,6a-dihydro-[1]benzofuro[3,2-c]chromen-8-ol
> <PUBCHEM_IUPAC_TRADITIONAL_NAME>
9-benzoxy-3-methoxy-11a-methyl-6,6a-dihydrobenzofuro[3,2-c]chromen-8-ol
> <PUBCHEM_IUPAC_INCHI>
InChI=1S/C24H22O5/c1-24-18-9-8-16(26-2)10-22(18)28-14-19(24)17-11-20(25)23(12-21(17)29-24)27-13-15-6-4-3-5-7-15/h3-12,19,25H,13-14H2,1-2H3
> <PUBCHEM_IUPAC_INCHIKEY>
SGUHHGODKPYSAQ-UHFFFAOYSA-N
> <PUBCHEM_XLOGP3_AA>
4.3
> <PUBCHEM_EXACT_MASS>
390.14672380
> <PUBCHEM_MOLECULAR_FORMULA>
C24H22O5
> <PUBCHEM_MOLECULAR_WEIGHT>
390.4
> <PUBCHEM_OPENEYE_CAN_SMILES>
CC12C(COC3=C1C=CC(=C3)OC)C4=CC(=C(C=C4O2)OCC5=CC=CC=C5)O
> <PUBCHEM_OPENEYE_ISO_SMILES>
CC12C(COC3=C1C=CC(=C3)OC)C4=CC(=C(C=C4O2)OCC5=CC=CC=C5)O
> <PUBCHEM_CACTVS_TPSA>
57.2
> <PUBCHEM_MONOISOTOPIC_WEIGHT>
390.14672380
> <PUBCHEM_TOTAL_CHARGE>
0
> <PUBCHEM_HEAVY_ATOM_COUNT>
29
> <PUBCHEM_ATOM_DEF_STEREO_COUNT>
0
> <PUBCHEM_ATOM_UDEF_STEREO_COUNT>
2
> <PUBCHEM_BOND_DEF_STEREO_COUNT>
0
> <PUBCHEM_BOND_UDEF_STEREO_COUNT>
0
> <PUBCHEM_ISOTOPIC_ATOM_COUNT>
0
> <PUBCHEM_COMPONENT_COUNT>
1
> <PUBCHEM_CACTVS_TAUTO_COUNT>
-1
> <PUBCHEM_COORDINATE_TYPE>
1
5
255
> <PUBCHEM_BONDANNOTATIONS>
12  16  8
13  17  8
14  18  8
15  20  8
16  19  8
17  21  8
18  19  8
20  21  8
24  25  8
24  26  8
25  27  8
26  28  8
27  29  8
28  29  8
6  11  3
7  10  3
8  12  8
8  14  8
9  13  8
9  15  8
$$$$
