500258
  -OEChem-10302200282D
 52 54  0     1  0  0  0  0  0999 V2000
    9.0084   -1.2307    0.0000 O   0  0  0  0  0  0  0  0  0  0  0  0
    8.6512    2.0736    0.0000 O   0  0  0  0  0  0  0  0  0  0  0  0
    7.1962   -2.4260    0.0000 O   0  0  0  0  0  0  0  0  0  0  0  0
   10.2976    1.5355    0.0000 O   0  0  0  0  0  0  0  0  0  0  0  0
   12.5920   -2.1580    0.0000 O   0  0  0  0  0  0  0  0  0  0  0  0
   13.5920   -0.4260    0.0000 O   0  0  0  0  0  0  0  0  0  0  0  0
    2.8660    0.0740    0.0000 O   0  0  0  0  0  0  0  0  0  0  0  0
    3.7320    1.5740    0.0000 O   0  0  0  0  0  0  0  0  0  0  0  0
    9.0084    0.3787    0.0000 C   0  0  3  0  0  0  0  0  0  0  0  0
    9.5920   -0.4260    0.0000 C   0  0  3  0  0  0  0  0  0  0  0  0
    8.0622    0.0740    0.0000 C   0  0  0  0  0  0  0  0  0  0  0  0
    8.0622   -0.9260    0.0000 C   0  0  0  0  0  0  0  0  0  0  0  0
   10.5920   -0.4260    0.0000 C   0  0  0  0  0  0  0  0  0  0  0  0
    7.1962    0.5740    0.0000 C   0  0  0  0  0  0  0  0  0  0  0  0
    9.3191    1.3292    0.0000 C   0  0  0  0  0  0  0  0  0  0  0  0
    7.1962   -1.4260    0.0000 C   0  0  0  0  0  0  0  0  0  0  0  0
    6.3301    0.0740    0.0000 C   0  0  0  0  0  0  0  0  0  0  0  0
   11.0920   -1.2920    0.0000 C   0  0  0  0  0  0  0  0  0  0  0  0
    6.3301   -0.9260    0.0000 C   0  0  0  0  0  0  0  0  0  0  0  0
   11.0920    0.4400    0.0000 C   0  0  0  0  0  0  0  0  0  0  0  0
   12.0920   -1.2920    0.0000 C   0  0  0  0  0  0  0  0  0  0  0  0
   12.0920    0.4400    0.0000 C   0  0  0  0  0  0  0  0  0  0  0  0
   12.5920   -0.4260    0.0000 C   0  0  0  0  0  0  0  0  0  0  0  0
    5.4641    0.5740    0.0000 C   0  0  0  0  0  0  0  0  0  0  0  0
    8.9619    3.0241    0.0000 C   0  0  0  0  0  0  0  0  0  0  0  0
    6.3301   -2.9260    0.0000 C   0  0  0  0  0  0  0  0  0  0  0  0
    4.5981    0.0740    0.0000 C   0  0  0  0  0  0  0  0  0  0  0  0
   12.0920   -3.0241    0.0000 C   0  0  0  0  0  0  0  0  0  0  0  0
    3.7320    0.5740    0.0000 C   0  0  0  0  0  0  0  0  0  0  0  0
    2.0000    0.5740    0.0000 C   0  0  0  0  0  0  0  0  0  0  0  0
    9.6209    0.4749    0.0000 H   0  0  0  0  0  0  0  0  0  0  0  0
    9.8737   -0.9783    0.0000 H   0  0  0  0  0  0  0  0  0  0  0  0
    7.1962    1.1940    0.0000 H   0  0  0  0  0  0  0  0  0  0  0  0
   10.7820   -1.8290    0.0000 H   0  0  0  0  0  0  0  0  0  0  0  0
    5.7932   -1.2360    0.0000 H   0  0  0  0  0  0  0  0  0  0  0  0
   10.7820    0.9770    0.0000 H   0  0  0  0  0  0  0  0  0  0  0  0
   12.4020    0.9770    0.0000 H   0  0  0  0  0  0  0  0  0  0  0  0
    5.4641    1.1940    0.0000 H   0  0  0  0  0  0  0  0  0  0  0  0
    9.5512    2.8315    0.0000 H   0  0  0  0  0  0  0  0  0  0  0  0
    9.1545    3.6134    0.0000 H   0  0  0  0  0  0  0  0  0  0  0  0
    8.3726    3.2167    0.0000 H   0  0  0  0  0  0  0  0  0  0  0  0
    6.0201   -2.3891    0.0000 H   0  0  0  0  0  0  0  0  0  0  0  0
    5.7932   -3.2360    0.0000 H   0  0  0  0  0  0  0  0  0  0  0  0
    6.6401   -3.4629    0.0000 H   0  0  0  0  0  0  0  0  0  0  0  0
    4.5981   -0.5460    0.0000 H   0  0  0  0  0  0  0  0  0  0  0  0
   13.9020    0.1109    0.0000 H   0  0  0  0  0  0  0  0  0  0  0  0
   11.5551   -2.7141    0.0000 H   0  0  0  0  0  0  0  0  0  0  0  0
   11.7820   -3.5610    0.0000 H   0  0  0  0  0  0  0  0  0  0  0  0
   12.6289   -3.3341    0.0000 H   0  0  0  0  0  0  0  0  0  0  0  0
    2.3100    1.1109    0.0000 H   0  0  0  0  0  0  0  0  0  0  0  0
    1.4631    0.8840    0.0000 H   0  0  0  0  0  0  0  0  0  0  0  0
    1.6900    0.0371    0.0000 H   0  0  0  0  0  0  0  0  0  0  0  0
  1 10  1  0  0  0  0
  1 12  1  0  0  0  0
  2 15  1  0  0  0  0
  2 25  1  0  0  0  0
  3 16  1  0  0  0  0
  3 26  1  0  0  0  0
  4 15  2  0  0  0  0
  5 21  1  0  0  0  0
  5 28  1  0  0  0  0
  6 23  1  0  0  0  0
  6 46  1  0  0  0  0
  7 29  1  0  0  0  0
  7 30  1  0  0  0  0
  8 29  2  0  0  0  0
  9 10  1  0  0  0  0
  9 11  1  0  0  0  0
  9 15  1  0  0  0  0
  9 31  1  0  0  0  0
 10 13  1  0  0  0  0
 10 32  1  0  0  0  0
 11 12  2  0  0  0  0
 11 14  1  0  0  0  0
 12 16  1  0  0  0  0
 13 18  2  0  0  0  0
 13 20  1  0  0  0  0
 14 17  2  0  0  0  0
 14 33  1  0  0  0  0
 16 19  2  0  0  0  0
 17 19  1  0  0  0  0
 17 24  1  0  0  0  0
 18 21  1  0  0  0  0
 18 34  1  0  0  0  0
 19 35  1  0  0  0  0
 20 22  2  0  0  0  0
 20 36  1  0  0  0  0
 21 23  2  0  0  0  0
 22 23  1  0  0  0  0
 22 37  1  0  0  0  0
 24 27  2  3  0  0  0
 24 38  1  0  0  0  0
 25 39  1  0  0  0  0
 25 40  1  0  0  0  0
 25 41  1  0  0  0  0
 26 42  1  0  0  0  0
 26 43  1  0  0  0  0
 26 44  1  0  0  0  0
 27 29  1  0  0  0  0
 27 45  1  0  0  0  0
 28 47  1  0  0  0  0
 28 48  1  0  0  0  0
 28 49  1  0  0  0  0
 30 50  1  0  0  0  0
 30 51  1  0  0  0  0
 30 52  1  0  0  0  0
M  END
> <PUBCHEM_COMPOUND_CID>
500258
> <PUBCHEM_COMPOUND_CANONICALIZED>
1
> <PUBCHEM_CACTVS_COMPLEXITY>
635
> <PUBCHEM_CACTVS_HBOND_ACCEPTOR>
8
> <PUBCHEM_CACTVS_HBOND_DONOR>
1
> <PUBCHEM_CACTVS_ROTATABLE_BOND>
8
> <PUBCHEM_CACTVS_SUBSKEYS>
AAADceB4PAAAAAAAAAAAAAAAAAAAASAAAAAwYAAAAAAAAEgBQAAAGgAACAAADRSgmAIyDoAABgCIAiDSCAACCAAgIAAIiAEGiMgNJjaGNRqCeCOl4BELuYfK7PzOoAADAAAIQABAAAYAABCAAAAAAAAAAA==
> <PUBCHEM_IUPAC_OPENEYE_NAME>
methyl 2-(4-hydroxy-3-methoxy-phenyl)-7-methoxy-5-(3-methoxy-3-oxo-prop-1-enyl)-2,3-dihydrobenzofuran-3-carboxylate
> <PUBCHEM_IUPAC_CAS_NAME>
2-(4-hydroxy-3-methoxyphenyl)-7-methoxy-5-(3-methoxy-3-oxoprop-1-enyl)-2,3-dihydrobenzofuran-3-carboxylic acid methyl ester
> <PUBCHEM_IUPAC_NAME_MARKUP>
methyl 2-(4-hydroxy-3-methoxyphenyl)-7-methoxy-5-(3-methoxy-3-oxoprop-1-enyl)-2,3-dihydro-1-benzofuran-3-carboxylate
> <PUBCHEM_IUPAC_NAME>
methyl 2-(4-hydroxy-3-methoxyphenyl)-7-methoxy-5-(3-methoxy-3-oxoprop-1-enyl)-2,3-dihydro-1-benzofuran-3-carboxylate
> <PUBCHEM_IUPAC_SYSTEMATIC_NAME>
methyl 7-methoxy-5-(3-methoxy-3-oxidanylidene-prop-1-enyl)-2-(3-methoxy-4-oxidanyl-phenyl)-2,3-dihydro-1-benzofuran-3-carboxylate
> <PUBCHEM_IUPAC_TRADITIONAL_NAME>
2-(4-hydroxy-3-methoxy-phenyl)-5-(3-keto-3-methoxy-prop-1-enyl)-7-methoxy-coumaran-3-carboxylic acid methyl ester
> <PUBCHEM_IUPAC_INCHI>
InChI=1S/C22H22O8/c1-26-16-11-13(6-7-15(16)23)20-19(22(25)29-4)14-9-12(5-8-18(24)28-3)10-17(27-2)21(14)30-20/h5-11,19-20,23H,1-4H3
> <PUBCHEM_IUPAC_INCHIKEY>
TUMXSJCAHHPAFR-UHFFFAOYSA-N
> <PUBCHEM_XLOGP3_AA>
2.9
> <PUBCHEM_EXACT_MASS>
414.13146766
> <PUBCHEM_MOLECULAR_FORMULA>
C22H22O8
> <PUBCHEM_MOLECULAR_WEIGHT>
414.4
> <PUBCHEM_OPENEYE_CAN_SMILES>
COC1=CC(=CC2=C1OC(C2C(=O)OC)C3=CC(=C(C=C3)O)OC)C=CC(=O)OC
> <PUBCHEM_OPENEYE_ISO_SMILES>
COC1=CC(=CC2=C1OC(C2C(=O)OC)C3=CC(=C(C=C3)O)OC)C=CC(=O)OC
> <PUBCHEM_CACTVS_TPSA>
101
> <PUBCHEM_MONOISOTOPIC_WEIGHT>
414.13146766
> <PUBCHEM_TOTAL_CHARGE>
0
> <PUBCHEM_HEAVY_ATOM_COUNT>
30
> <PUBCHEM_ATOM_DEF_STEREO_COUNT>
0
> <PUBCHEM_ATOM_UDEF_STEREO_COUNT>
2
> <PUBCHEM_BOND_DEF_STEREO_COUNT>
0
> <PUBCHEM_BOND_UDEF_STEREO_COUNT>
1
> <PUBCHEM_ISOTOPIC_ATOM_COUNT>
0
> <PUBCHEM_COMPONENT_COUNT>
1
> <PUBCHEM_CACTVS_TAUTO_COUNT>
-1
> <PUBCHEM_COORDINATE_TYPE>
1
5
255
> <PUBCHEM_BONDANNOTATIONS>
10  13  3
11  12  8
11  14  8
12  16  8
13  18  8
13  20  8
14  17  8
16  19  8
17  19  8
18  21  8
20  22  8
21  23  8
22  23  8
24  27  1
9  15  3
$$$$
