500215
  -OEChem-10302200282D
 47 49  0     1  0  0  0  0  0999 V2000
    3.7702   -1.1643    0.0000 O   0  0  0  0  0  0  0  0  0  0  0  0
    3.7817    1.9050    0.0000 O   0  0  0  0  0  0  0  0  0  0  0  0
    5.5141    1.9119    0.0000 O   0  0  0  0  0  0  0  0  0  0  0  0
    7.2622   -1.1296    0.0000 O   0  0  0  0  0  0  0  0  0  0  0  0
    6.4082    3.4396    0.0000 O   0  0  0  0  0  0  0  0  0  0  0  0
    2.8641    0.3912    0.0000 C   0  0  3  0  0  0  0  0  0  0  0  0
    3.7702    0.9050    0.0000 C   0  0  3  0  0  0  0  0  0  0  0  0
    2.8641   -0.6504    0.0000 C   0  0  3  0  0  0  0  0  0  0  0  0
    4.6641    0.3704    0.0000 C   0  0  0  0  0  0  0  0  0  0  0  0
    4.6641   -0.6296    0.0000 C   0  0  0  0  0  0  0  0  0  0  0  0
    2.0000    0.8945    0.0000 C   0  0  0  0  0  0  0  0  0  0  0  0
    5.5301    0.8704    0.0000 C   0  0  0  0  0  0  0  0  0  0  0  0
    6.3961    0.3704    0.0000 C   0  0  0  0  0  0  0  0  0  0  0  0
    2.0000   -1.1538    0.0000 C   0  0  0  0  0  0  0  0  0  0  0  0
    5.5301   -1.1296    0.0000 C   0  0  0  0  0  0  0  0  0  0  0  0
    6.3961   -0.6296    0.0000 C   0  0  0  0  0  0  0  0  0  0  0  0
    7.3062    0.8772    0.0000 C   0  0  0  0  0  0  0  0  0  0  0  0
    8.1663    0.3672    0.0000 C   0  0  0  0  0  0  0  0  0  0  0  0
    7.3142    1.9188    0.0000 C   0  0  0  0  0  0  0  0  0  0  0  0
    6.4121    2.4396    0.0000 C   0  0  0  0  0  0  0  0  0  0  0  0
    9.0381    0.8572    0.0000 C   0  0  0  0  0  0  0  0  0  0  0  0
    9.8983    0.3472    0.0000 C   0  0  0  0  0  0  0  0  0  0  0  0
    7.2622   -2.1296    0.0000 C   0  0  0  0  0  0  0  0  0  0  0  0
    8.1282   -2.6296    0.0000 C   0  0  0  0  0  0  0  0  0  0  0  0
    8.9942   -3.1296    0.0000 C   0  0  0  0  0  0  0  0  0  0  0  0
    2.3266    0.0822    0.0000 H   0  0  0  0  0  0  0  0  0  0  0  0
    3.2362    1.2202    0.0000 H   0  0  0  0  0  0  0  0  0  0  0  0
    2.8677   -1.2704    0.0000 H   0  0  0  0  0  0  0  0  0  0  0  0
    2.3121    1.4303    0.0000 H   0  0  0  0  0  0  0  0  0  0  0  0
    1.4643    1.2066    0.0000 H   0  0  0  0  0  0  0  0  0  0  0  0
    1.6879    0.3588    0.0000 H   0  0  0  0  0  0  0  0  0  0  0  0
    1.6879   -0.6180    0.0000 H   0  0  0  0  0  0  0  0  0  0  0  0
    1.4643   -1.4658    0.0000 H   0  0  0  0  0  0  0  0  0  0  0  0
    2.3121   -1.6895    0.0000 H   0  0  0  0  0  0  0  0  0  0  0  0
    5.5301   -1.7496    0.0000 H   0  0  0  0  0  0  0  0  0  0  0  0
    3.2484    2.2212    0.0000 H   0  0  0  0  0  0  0  0  0  0  0  0
    7.7623   -0.1031    0.0000 H   0  0  0  0  0  0  0  0  0  0  0  0
    8.5594   -0.1123    0.0000 H   0  0  0  0  0  0  0  0  0  0  0  0
    7.8523    2.2268    0.0000 H   0  0  0  0  0  0  0  0  0  0  0  0
    9.4421    1.3275    0.0000 H   0  0  0  0  0  0  0  0  0  0  0  0
    8.6451    1.3367    0.0000 H   0  0  0  0  0  0  0  0  0  0  0  0
    9.5821   -0.1861    0.0000 H   0  0  0  0  0  0  0  0  0  0  0  0
   10.4316    0.0310    0.0000 H   0  0  0  0  0  0  0  0  0  0  0  0
   10.2145    0.8805    0.0000 H   0  0  0  0  0  0  0  0  0  0  0  0
    6.6516   -2.0220    0.0000 H   0  0  0  0  0  0  0  0  0  0  0  0
    7.0501   -2.7122    0.0000 H   0  0  0  0  0  0  0  0  0  0  0  0
    9.5312   -3.4396    0.0000 H   0  0  0  0  0  0  0  0  0  0  0  0
  1  8  1  0  0  0  0
  1 10  1  0  0  0  0
  2  7  1  0  0  0  0
  2 36  1  0  0  0  0
  3 12  1  0  0  0  0
  3 20  1  0  0  0  0
  4 16  1  0  0  0  0
  4 23  1  0  0  0  0
  5 20  2  0  0  0  0
  6  7  1  0  0  0  0
  6  8  1  0  0  0  0
  6 11  1  0  0  0  0
  6 26  1  0  0  0  0
  7  9  1  0  0  0  0
  7 27  1  0  0  0  0
  8 14  1  0  0  0  0
  8 28  1  0  0  0  0
  9 10  1  0  0  0  0
  9 12  2  0  0  0  0
 10 15  2  0  0  0  0
 11 29  1  0  0  0  0
 11 30  1  0  0  0  0
 11 31  1  0  0  0  0
 12 13  1  0  0  0  0
 13 16  2  0  0  0  0
 13 17  1  0  0  0  0
 14 32  1  0  0  0  0
 14 33  1  0  0  0  0
 14 34  1  0  0  0  0
 15 16  1  0  0  0  0
 15 35  1  0  0  0  0
 17 18  1  0  0  0  0
 17 19  2  0  0  0  0
 18 21  1  0  0  0  0
 18 37  1  0  0  0  0
 18 38  1  0  0  0  0
 19 20  1  0  0  0  0
 19 39  1  0  0  0  0
 21 22  1  0  0  0  0
 21 40  1  0  0  0  0
 21 41  1  0  0  0  0
 22 42  1  0  0  0  0
 22 43  1  0  0  0  0
 22 44  1  0  0  0  0
 23 24  1  0  0  0  0
 23 45  1  0  0  0  0
 23 46  1  0  0  0  0
 24 25  3  0  0  0  0
 25 47  1  0  0  0  0
M  END
> <PUBCHEM_COMPOUND_CID>
500215
> <PUBCHEM_COMPOUND_CANONICALIZED>
1
> <PUBCHEM_CACTVS_COMPLEXITY>
588
> <PUBCHEM_CACTVS_HBOND_ACCEPTOR>
5
> <PUBCHEM_CACTVS_HBOND_DONOR>
1
> <PUBCHEM_CACTVS_ROTATABLE_BOND>
4
> <PUBCHEM_CACTVS_SUBSKEYS>
AAADceB4OAAAAAAAAAAAAAAAAAAAAAAAAAA0QIAAAAAAAACRAAAAGgAACAAADRSgmAIyDoAABgDIGiDSCAACCAAgIAAAiAAGCMgMNyKEMRqCeiClwBUIuQeA4OwOIAACCAAIAABAAAQQABAAAAAAAAAAAA==
> <PUBCHEM_IUPAC_OPENEYE_NAME>
10-hydroxy-8,9-dimethyl-4-propyl-5-prop-2-ynoxy-9,10-dihydro-8H-pyrano[2,3-h]chromen-2-one
> <PUBCHEM_IUPAC_CAS_NAME>
10-hydroxy-8,9-dimethyl-4-propyl-5-prop-2-ynoxy-9,10-dihydro-8H-pyrano[2,3-h][1]benzopyran-2-one
> <PUBCHEM_IUPAC_NAME_MARKUP>
10-hydroxy-8,9-dimethyl-4-propyl-5-prop-2-ynoxy-9,10-dihydro-8<I>H</I>-pyrano[2,3-h]chromen-2-one
> <PUBCHEM_IUPAC_NAME>
10-hydroxy-8,9-dimethyl-4-propyl-5-prop-2-ynoxy-9,10-dihydro-8H-pyrano[2,3-h]chromen-2-one
> <PUBCHEM_IUPAC_SYSTEMATIC_NAME>
8,9-dimethyl-10-oxidanyl-4-propyl-5-prop-2-ynoxy-9,10-dihydro-8H-pyrano[2,3-h]chromen-2-one
> <PUBCHEM_IUPAC_TRADITIONAL_NAME>
10-hydroxy-8,9-dimethyl-5-propargyloxy-4-propyl-9,10-dihydro-8H-pyrano[2,3-h]chromen-2-one
> <PUBCHEM_IUPAC_INCHI>
InChI=1S/C20H22O5/c1-5-7-13-9-16(21)25-20-17(13)14(23-8-6-2)10-15-18(20)19(22)11(3)12(4)24-15/h2,9-12,19,22H,5,7-8H2,1,3-4H3
> <PUBCHEM_IUPAC_INCHIKEY>
AXNMOVFWRHUYBB-UHFFFAOYSA-N
> <PUBCHEM_XLOGP3_AA>
3
> <PUBCHEM_EXACT_MASS>
342.14672380
> <PUBCHEM_MOLECULAR_FORMULA>
C20H22O5
> <PUBCHEM_MOLECULAR_WEIGHT>
342.4
> <PUBCHEM_OPENEYE_CAN_SMILES>
CCCC1=CC(=O)OC2=C3C(C(C(OC3=CC(=C12)OCC#C)C)C)O
> <PUBCHEM_OPENEYE_ISO_SMILES>
CCCC1=CC(=O)OC2=C3C(C(C(OC3=CC(=C12)OCC#C)C)C)O
> <PUBCHEM_CACTVS_TPSA>
65
> <PUBCHEM_MONOISOTOPIC_WEIGHT>
342.14672380
> <PUBCHEM_TOTAL_CHARGE>
0
> <PUBCHEM_HEAVY_ATOM_COUNT>
25
> <PUBCHEM_ATOM_DEF_STEREO_COUNT>
0
> <PUBCHEM_ATOM_UDEF_STEREO_COUNT>
3
> <PUBCHEM_BOND_DEF_STEREO_COUNT>
0
> <PUBCHEM_BOND_UDEF_STEREO_COUNT>
0
> <PUBCHEM_ISOTOPIC_ATOM_COUNT>
0
> <PUBCHEM_COMPONENT_COUNT>
1
> <PUBCHEM_CACTVS_TAUTO_COUNT>
-1
> <PUBCHEM_COORDINATE_TYPE>
1
5
255
> <PUBCHEM_BONDANNOTATIONS>
10  15  8
12  13  8
13  16  8
13  17  8
15  16  8
17  19  8
19  20  8
7  2  3
3  12  8
3  20  8
6  11  3
8  14  3
9  10  8
9  12  8
$$$$
