500255
  -OEChem-10302200282D
 65 69  0     1  0  0  0  0  0999 V2000
    9.1842    0.9525    0.0000 O   0  0  0  0  0  0  0  0  0  0  0  0
    5.7119    0.9526    0.0000 O   0  0  0  0  0  0  0  0  0  0  0  0
    7.4480   -3.0099    0.0000 O   0  0  0  0  0  0  0  0  0  0  0  0
    8.9981   -2.3893    0.0000 O   0  0  0  0  0  0  0  0  0  0  0  0
    5.8979   -2.3893    0.0000 O   0  0  0  0  0  0  0  0  0  0  0  0
   12.2533   -1.2045    0.0000 O   0  0  0  0  0  0  0  0  0  0  0  0
    2.6428   -1.2045    0.0000 O   0  0  0  0  0  0  0  0  0  0  0  0
    7.4480   -0.0099    0.0000 C   0  0  0  0  0  0  0  0  0  0  0  0
    8.3141   -0.5099    0.0000 C   0  0  3  0  0  0  0  0  0  0  0  0
    6.5820   -0.5099    0.0000 C   0  0  3  0  0  0  0  0  0  0  0  0
    8.3141   -1.5099    0.0000 C   0  0  0  0  0  0  0  0  0  0  0  0
    6.5820   -1.5099    0.0000 C   0  0  0  0  0  0  0  0  0  0  0  0
    8.2571    0.5779    0.0000 C   0  0  0  0  0  0  0  0  0  0  0  0
    6.6390    0.5779    0.0000 C   0  0  0  0  0  0  0  0  0  0  0  0
    7.4480   -2.0099    0.0000 C   0  0  0  0  0  0  0  0  0  0  0  0
    9.2989   -0.6835    0.0000 C   0  0  0  0  0  0  0  0  0  0  0  0
    5.5972   -0.6835    0.0000 C   0  0  0  0  0  0  0  0  0  0  0  0
    7.9480    1.5290    0.0000 C   0  0  0  0  0  0  0  0  0  0  0  0
    6.9480    1.5290    0.0000 C   0  0  0  0  0  0  0  0  0  0  0  0
    9.6409   -1.6232    0.0000 C   0  0  0  0  0  0  0  0  0  0  0  0
    5.2551   -1.6232    0.0000 C   0  0  0  0  0  0  0  0  0  0  0  0
    9.9417    0.0825    0.0000 C   0  0  0  0  0  0  0  0  0  0  0  0
    4.9544    0.0825    0.0000 C   0  0  0  0  0  0  0  0  0  0  0  0
    8.4827    2.4229    0.0000 C   0  0  0  0  0  0  0  0  0  0  0  0
    6.4134    2.4229    0.0000 C   0  0  0  0  0  0  0  0  0  0  0  0
    7.9689    3.3290    0.0000 C   0  0  0  0  0  0  0  0  0  0  0  0
    6.9272    3.3290    0.0000 C   0  0  0  0  0  0  0  0  0  0  0  0
   10.6257   -1.7969    0.0000 C   0  0  0  0  0  0  0  0  0  0  0  0
    4.2704   -1.7969    0.0000 C   0  0  0  0  0  0  0  0  0  0  0  0
   10.9265   -0.0911    0.0000 C   0  0  0  0  0  0  0  0  0  0  0  0
    3.9696   -0.0911    0.0000 C   0  0  0  0  0  0  0  0  0  0  0  0
   11.2685   -1.0308    0.0000 C   0  0  0  0  0  0  0  0  0  0  0  0
    3.6276   -1.0308    0.0000 C   0  0  0  0  0  0  0  0  0  0  0  0
    9.3401   -3.3290    0.0000 C   0  0  0  0  0  0  0  0  0  0  0  0
    6.8828   -2.2156    0.0000 C   0  0  0  0  0  0  0  0  0  0  0  0
   12.5953   -2.1442    0.0000 C   0  0  0  0  0  0  0  0  0  0  0  0
    2.0000   -0.4384    0.0000 C   0  0  0  0  0  0  0  0  0  0  0  0
    8.7126   -0.9848    0.0000 H   0  0  0  0  0  0  0  0  0  0  0  0
    6.1835   -0.9848    0.0000 H   0  0  0  0  0  0  0  0  0  0  0  0
    8.5261   -2.0925    0.0000 H   0  0  0  0  0  0  0  0  0  0  0  0
    8.9246   -1.4022    0.0000 H   0  0  0  0  0  0  0  0  0  0  0  0
    5.9714   -1.4022    0.0000 H   0  0  0  0  0  0  0  0  0  0  0  0
    6.3700   -2.0925    0.0000 H   0  0  0  0  0  0  0  0  0  0  0  0
    9.7296    0.6651    0.0000 H   0  0  0  0  0  0  0  0  0  0  0  0
    5.1665    0.6651    0.0000 H   0  0  0  0  0  0  0  0  0  0  0  0
    9.1027    2.4157    0.0000 H   0  0  0  0  0  0  0  0  0  0  0  0
    5.7934    2.4157    0.0000 H   0  0  0  0  0  0  0  0  0  0  0  0
    8.2809    3.8647    0.0000 H   0  0  0  0  0  0  0  0  0  0  0  0
    6.6152    3.8647    0.0000 H   0  0  0  0  0  0  0  0  0  0  0  0
   10.8378   -2.3795    0.0000 H   0  0  0  0  0  0  0  0  0  0  0  0
    4.0584   -2.3795    0.0000 H   0  0  0  0  0  0  0  0  0  0  0  0
   11.3250    0.3838    0.0000 H   0  0  0  0  0  0  0  0  0  0  0  0
    3.5711    0.3838    0.0000 H   0  0  0  0  0  0  0  0  0  0  0  0
    8.7575   -3.5410    0.0000 H   0  0  0  0  0  0  0  0  0  0  0  0
    9.5522   -3.9116    0.0000 H   0  0  0  0  0  0  0  0  0  0  0  0
    9.9227   -3.1169    0.0000 H   0  0  0  0  0  0  0  0  0  0  0  0
    6.9905   -2.8262    0.0000 H   0  0  0  0  0  0  0  0  0  0  0  0
    7.4934   -2.1080    0.0000 H   0  0  0  0  0  0  0  0  0  0  0  0
    6.7752   -1.6050    0.0000 H   0  0  0  0  0  0  0  0  0  0  0  0
   12.0127   -2.3562    0.0000 H   0  0  0  0  0  0  0  0  0  0  0  0
   12.8074   -2.7268    0.0000 H   0  0  0  0  0  0  0  0  0  0  0  0
   13.1779   -1.9321    0.0000 H   0  0  0  0  0  0  0  0  0  0  0  0
    2.4750   -0.0399    0.0000 H   0  0  0  0  0  0  0  0  0  0  0  0
    1.6015    0.0365    0.0000 H   0  0  0  0  0  0  0  0  0  0  0  0
    1.5250   -0.8370    0.0000 H   0  0  0  0  0  0  0  0  0  0  0  0
  1 13  2  0  0  0  0
  2 14  2  0  0  0  0
  3 15  2  0  0  0  0
  4 20  1  0  0  0  0
  4 34  1  0  0  0  0
  5 21  1  0  0  0  0
  5 35  1  0  0  0  0
  6 32  1  0  0  0  0
  6 36  1  0  0  0  0
  7 33  1  0  0  0  0
  7 37  1  0  0  0  0
  8  9  1  0  0  0  0
  8 10  1  0  0  0  0
  8 13  1  0  0  0  0
  8 14  1  0  0  0  0
  9 11  1  0  0  0  0
  9 16  1  0  0  0  0
  9 38  1  0  0  0  0
 10 12  1  0  0  0  0
 10 17  1  0  0  0  0
 10 39  1  0  0  0  0
 11 15  1  0  0  0  0
 11 40  1  0  0  0  0
 11 41  1  0  0  0  0
 12 15  1  0  0  0  0
 12 42  1  0  0  0  0
 12 43  1  0  0  0  0
 13 18  1  0  0  0  0
 14 19  1  0  0  0  0
 16 20  2  0  0  0  0
 16 22  1  0  0  0  0
 17 21  2  0  0  0  0
 17 23  1  0  0  0  0
 18 19  1  0  0  0  0
 18 24  2  0  0  0  0
 19 25  2  0  0  0  0
 20 28  1  0  0  0  0
 21 29  1  0  0  0  0
 22 30  2  0  0  0  0
 22 44  1  0  0  0  0
 23 31  2  0  0  0  0
 23 45  1  0  0  0  0
 24 26  1  0  0  0  0
 24 46  1  0  0  0  0
 25 27  1  0  0  0  0
 25 47  1  0  0  0  0
 26 27  2  0  0  0  0
 26 48  1  0  0  0  0
 27 49  1  0  0  0  0
 28 32  2  0  0  0  0
 28 50  1  0  0  0  0
 29 33  2  0  0  0  0
 29 51  1  0  0  0  0
 30 32  1  0  0  0  0
 30 52  1  0  0  0  0
 31 33  1  0  0  0  0
 31 53  1  0  0  0  0
 34 54  1  0  0  0  0
 34 55  1  0  0  0  0
 34 56  1  0  0  0  0
 35 57  1  0  0  0  0
 35 58  1  0  0  0  0
 35 59  1  0  0  0  0
 36 60  1  0  0  0  0
 36 61  1  0  0  0  0
 36 62  1  0  0  0  0
 37 63  1  0  0  0  0
 37 64  1  0  0  0  0
 37 65  1  0  0  0  0
M  END
> <PUBCHEM_COMPOUND_CID>
500255
> <PUBCHEM_COMPOUND_CANONICALIZED>
1
> <PUBCHEM_CACTVS_COMPLEXITY>
802
> <PUBCHEM_CACTVS_HBOND_ACCEPTOR>
7
> <PUBCHEM_CACTVS_HBOND_DONOR>
0
> <PUBCHEM_CACTVS_ROTATABLE_BOND>
6
> <PUBCHEM_CACTVS_SUBSKEYS>
AAADceB4OAAAAAAAAAAAAAAAAAAAAYAAAAAwYMGAAAAAAGABUAAAGgAAAAAADwSAmAIyBoAABACIAqBSAAACCAAkIAAIiAEGCMgMJzKMNRqAMSAlwBUIqYeJ7vzvoAAACAAYAABAAAQQADAAAQAACAAAAA==
> <PUBCHEM_IUPAC_OPENEYE_NAME>
3,5-bis(2,4-dimethoxyphenyl)spiro[cyclohexane-4,2'-indane]-1,1',3'-trione
> <PUBCHEM_IUPAC_CAS_NAME>
3,5-bis(2,4-dimethoxyphenyl)spiro[cyclohexane-4,2'-indene]-1,1',3'-trione
> <PUBCHEM_IUPAC_NAME_MARKUP>
3,5-bis(2,4-dimethoxyphenyl)spiro[cyclohexane-4,2&apos;-indene]-1,1&apos;,3&apos;-trione
> <PUBCHEM_IUPAC_NAME>
3,5-bis(2,4-dimethoxyphenyl)spiro[cyclohexane-4,2'-indene]-1,1',3'-trione
> <PUBCHEM_IUPAC_SYSTEMATIC_NAME>
3,5-bis(2,4-dimethoxyphenyl)spiro[cyclohexane-4,2'-indene]-1,1',3'-trione
> <PUBCHEM_IUPAC_TRADITIONAL_NAME>
3,5-bis(2,4-dimethoxyphenyl)spiro[cyclohexane-4,2'-indane]-1,1',3'-trione
> <PUBCHEM_IUPAC_INCHI>
InChI=1S/C30H28O7/c1-34-18-9-11-22(26(15-18)36-3)24-13-17(31)14-25(23-12-10-19(35-2)16-27(23)37-4)30(24)28(32)20-7-5-6-8-21(20)29(30)33/h5-12,15-16,24-25H,13-14H2,1-4H3
> <PUBCHEM_IUPAC_INCHIKEY>
OSQUDRJWOQKPJK-UHFFFAOYSA-N
> <PUBCHEM_XLOGP3_AA>
4.1
> <PUBCHEM_EXACT_MASS>
500.18350323
> <PUBCHEM_MOLECULAR_FORMULA>
C30H28O7
> <PUBCHEM_MOLECULAR_WEIGHT>
500.5
> <PUBCHEM_OPENEYE_CAN_SMILES>
COC1=CC(=C(C=C1)C2CC(=O)CC(C23C(=O)C4=CC=CC=C4C3=O)C5=C(C=C(C=C5)OC)OC)OC
> <PUBCHEM_OPENEYE_ISO_SMILES>
COC1=CC(=C(C=C1)C2CC(=O)CC(C23C(=O)C4=CC=CC=C4C3=O)C5=C(C=C(C=C5)OC)OC)OC
> <PUBCHEM_CACTVS_TPSA>
88.1
> <PUBCHEM_MONOISOTOPIC_WEIGHT>
500.18350323
> <PUBCHEM_TOTAL_CHARGE>
0
> <PUBCHEM_HEAVY_ATOM_COUNT>
37
> <PUBCHEM_ATOM_DEF_STEREO_COUNT>
0
> <PUBCHEM_ATOM_UDEF_STEREO_COUNT>
2
> <PUBCHEM_BOND_DEF_STEREO_COUNT>
0
> <PUBCHEM_BOND_UDEF_STEREO_COUNT>
0
> <PUBCHEM_ISOTOPIC_ATOM_COUNT>
0
> <PUBCHEM_COMPONENT_COUNT>
1
> <PUBCHEM_CACTVS_TAUTO_COUNT>
-1
> <PUBCHEM_COORDINATE_TYPE>
1
5
255
> <PUBCHEM_BONDANNOTATIONS>
10  17  3
16  20  8
16  22  8
17  21  8
17  23  8
18  19  8
18  24  8
19  25  8
20  28  8
21  29  8
22  30  8
23  31  8
24  26  8
25  27  8
26  27  8
28  32  8
29  33  8
30  32  8
31  33  8
9  16  3
$$$$
