500246
  -OEChem-10302200282D
 30 32  0     1  0  0  0  0  0999 V2000
    2.0000   -0.0670    0.0000 O   0  0  0  0  0  0  0  0  0  0  0  0
    5.4641   -0.0670    0.0000 O   0  0  0  0  0  0  0  0  0  0  0  0
    3.7320    2.9330    0.0000 O   0  0  0  0  0  0  0  0  0  0  0  0
    2.8660    1.4330    0.0000 N   0  0  0  0  0  0  0  0  0  0  0  0
    4.5981    1.4330    0.0000 N   0  0  0  0  0  0  0  0  0  0  0  0
    3.7320   -0.0670    0.0000 C   0  0  0  0  0  0  0  0  0  0  0  0
    3.2320   -0.9330    0.0000 C   0  0  3  0  0  0  0  0  0  0  0  0
    4.2320   -0.9330    0.0000 C   0  0  3  0  0  0  0  0  0  0  0  0
    2.3660   -1.4330    0.0000 C   0  0  0  0  0  0  0  0  0  0  0  0
    5.0981   -1.4330    0.0000 C   0  0  0  0  0  0  0  0  0  0  0  0
    2.8660    0.4330    0.0000 C   0  0  0  0  0  0  0  0  0  0  0  0
    4.5981    0.4330    0.0000 C   0  0  0  0  0  0  0  0  0  0  0  0
    5.9641   -0.9330    0.0000 C   0  0  0  0  0  0  0  0  0  0  0  0
    5.0981   -2.4330    0.0000 C   0  0  0  0  0  0  0  0  0  0  0  0
    3.7320    1.9330    0.0000 C   0  0  0  0  0  0  0  0  0  0  0  0
    6.8301   -1.4330    0.0000 C   0  0  0  0  0  0  0  0  0  0  0  0
    5.9641   -2.9330    0.0000 C   0  0  0  0  0  0  0  0  0  0  0  0
    6.8301   -2.4330    0.0000 C   0  0  0  0  0  0  0  0  0  0  0  0
    3.3925   -1.5319    0.0000 H   0  0  0  0  0  0  0  0  0  0  0  0
    4.0716   -1.5319    0.0000 H   0  0  0  0  0  0  0  0  0  0  0  0
    2.0560   -0.8961    0.0000 H   0  0  0  0  0  0  0  0  0  0  0  0
    1.8291   -1.7430    0.0000 H   0  0  0  0  0  0  0  0  0  0  0  0
    2.6760   -1.9700    0.0000 H   0  0  0  0  0  0  0  0  0  0  0  0
    2.3291    1.7430    0.0000 H   0  0  0  0  0  0  0  0  0  0  0  0
    5.1350    1.7430    0.0000 H   0  0  0  0  0  0  0  0  0  0  0  0
    5.9641   -0.3130    0.0000 H   0  0  0  0  0  0  0  0  0  0  0  0
    4.5611   -2.7430    0.0000 H   0  0  0  0  0  0  0  0  0  0  0  0
    7.3671   -1.1230    0.0000 H   0  0  0  0  0  0  0  0  0  0  0  0
    5.9641   -3.5530    0.0000 H   0  0  0  0  0  0  0  0  0  0  0  0
    7.3671   -2.7430    0.0000 H   0  0  0  0  0  0  0  0  0  0  0  0
  1 11  2  0  0  0  0
  2 12  2  0  0  0  0
  3 15  2  0  0  0  0
  4 11  1  0  0  0  0
  4 15  1  0  0  0  0
  4 24  1  0  0  0  0
  5 12  1  0  0  0  0
  5 15  1  0  0  0  0
  5 25  1  0  0  0  0
  6  7  1  0  0  0  0
  6  8  1  0  0  0  0
  6 11  1  0  0  0  0
  6 12  1  0  0  0  0
  7  8  1  0  0  0  0
  7  9  1  0  0  0  0
  7 19  1  0  0  0  0
  8 10  1  0  0  0  0
  8 20  1  0  0  0  0
  9 21  1  0  0  0  0
  9 22  1  0  0  0  0
  9 23  1  0  0  0  0
 10 13  2  0  0  0  0
 10 14  1  0  0  0  0
 13 16  1  0  0  0  0
 13 26  1  0  0  0  0
 14 17  2  0  0  0  0
 14 27  1  0  0  0  0
 16 18  2  0  0  0  0
 16 28  1  0  0  0  0
 17 18  1  0  0  0  0
 17 29  1  0  0  0  0
 18 30  1  0  0  0  0
M  END
> <PUBCHEM_COMPOUND_CID>
500246
> <PUBCHEM_COMPOUND_CANONICALIZED>
1
> <PUBCHEM_CACTVS_COMPLEXITY>
406
> <PUBCHEM_CACTVS_HBOND_ACCEPTOR>
3
> <PUBCHEM_CACTVS_HBOND_DONOR>
2
> <PUBCHEM_CACTVS_ROTATABLE_BOND>
1
> <PUBCHEM_CACTVS_SUBSKEYS>
AAADccBzMAAAAAAAAAAAAAAAGAAAAAAAAAA8QAAAAAAAAAABAAAAHgAQAAAADwCBmAAzAILAAACIAiFSEAACAAAgAAAIiAEAAIiIIDqI0RCEIAAohSIIiAcYiMCPgAAAAAAAAAAAAAAAAAAAAAAAAAAAAA==
> <PUBCHEM_IUPAC_OPENEYE_NAME>
1-methyl-2-phenyl-5,7-diazaspiro[2.5]octane-4,6,8-trione
> <PUBCHEM_IUPAC_CAS_NAME>
1-methyl-2-phenyl-5,7-diazaspiro[2.5]octane-4,6,8-trione
> <PUBCHEM_IUPAC_NAME_MARKUP>
1-methyl-2-phenyl-5,7-diazaspiro[2.5]octane-4,6,8-trione
> <PUBCHEM_IUPAC_NAME>
1-methyl-2-phenyl-5,7-diazaspiro[2.5]octane-4,6,8-trione
> <PUBCHEM_IUPAC_SYSTEMATIC_NAME>
1-methyl-2-phenyl-5,7-diazaspiro[2.5]octane-4,6,8-trione
> <PUBCHEM_IUPAC_TRADITIONAL_NAME>
1-methyl-2-phenyl-5,7-diazaspiro[2.5]octane-4,6,8-trione
> <PUBCHEM_IUPAC_INCHI>
InChI=1S/C13H12N2O3/c1-7-9(8-5-3-2-4-6-8)13(7)10(16)14-12(18)15-11(13)17/h2-7,9H,1H3,(H2,14,15,16,17,18)
> <PUBCHEM_IUPAC_INCHIKEY>
WZAMMYXDWWFNGH-UHFFFAOYSA-N
> <PUBCHEM_XLOGP3_AA>
1
> <PUBCHEM_EXACT_MASS>
244.08479225
> <PUBCHEM_MOLECULAR_FORMULA>
C13H12N2O3
> <PUBCHEM_MOLECULAR_WEIGHT>
244.25
> <PUBCHEM_OPENEYE_CAN_SMILES>
CC1C(C12C(=O)NC(=O)NC2=O)C3=CC=CC=C3
> <PUBCHEM_OPENEYE_ISO_SMILES>
CC1C(C12C(=O)NC(=O)NC2=O)C3=CC=CC=C3
> <PUBCHEM_CACTVS_TPSA>
75.3
> <PUBCHEM_MONOISOTOPIC_WEIGHT>
244.08479225
> <PUBCHEM_TOTAL_CHARGE>
0
> <PUBCHEM_HEAVY_ATOM_COUNT>
18
> <PUBCHEM_ATOM_DEF_STEREO_COUNT>
0
> <PUBCHEM_ATOM_UDEF_STEREO_COUNT>
2
> <PUBCHEM_BOND_DEF_STEREO_COUNT>
0
> <PUBCHEM_BOND_UDEF_STEREO_COUNT>
0
> <PUBCHEM_ISOTOPIC_ATOM_COUNT>
0
> <PUBCHEM_COMPONENT_COUNT>
1
> <PUBCHEM_CACTVS_TAUTO_COUNT>
-1
> <PUBCHEM_COORDINATE_TYPE>
1
5
255
> <PUBCHEM_BONDANNOTATIONS>
10  13  8
10  14  8
13  16  8
14  17  8
16  18  8
17  18  8
7  9  3
8  10  3
$$$$
