500290
  -OEChem-10302200282D
 64 65  0     1  0  0  0  0  0999 V2000
    5.7469    2.7844    0.0000 P   0  0  3  0  0  0  0  0  0  0  0  0
    3.8858    5.2490    0.0000 O   0  0  0  0  0  0  0  0  0  0  0  0
    5.1591    3.5934    0.0000 O   0  0  0  0  0  0  0  0  0  0  0  0
    4.8089    6.8367    0.0000 O   0  0  0  0  0  0  0  0  0  0  0  0
    6.5559    3.3722    0.0000 O   0  0  0  0  0  0  0  0  0  0  0  0
    4.9379    2.1966    0.0000 O   0  0  0  0  0  0  0  0  0  0  0  0
    3.0768    9.8367    0.0000 O   0  0  0  0  0  0  0  0  0  0  0  0
    8.7305    3.0980    0.0000 O   0  0  0  0  0  0  0  0  0  0  0  0
    7.1482    3.8025    0.0000 O   0  0  0  0  0  0  0  0  0  0  0  0
    3.0768    6.8367    0.0000 N   0  0  0  0  0  0  0  0  0  0  0  0
    1.9890    3.4889    0.0000 N   0  0  0  0  0  0  0  0  0  0  0  0
    3.9428    8.3367    0.0000 N   0  0  0  0  0  0  0  0  0  0  0  0
    6.3347    1.9754    0.0000 N   0  0  0  0  0  0  0  0  0  0  0  0
    0.9945    3.5934    0.0000 N   0  3  0  0  0  0  0  0  0  0  0  0
    0.0000    3.6979    0.0000 N   0  5  0  0  0  0  0  0  0  0  0  0
    5.7586   12.4567    0.0000 N   0  0  0  0  0  0  0  0  0  0  0  0
    2.5768    4.2979    0.0000 C   0  0  1  0  0  0  0  0  0  0  0  0
    3.5768    4.2979    0.0000 C   0  0  2  0  0  0  0  0  0  0  0  0
    2.2678    5.2490    0.0000 C   0  0  0  0  0  0  0  0  0  0  0  0
    3.0768    5.8367    0.0000 C   0  0  2  0  0  0  0  0  0  0  0  0
    4.1646    3.4889    0.0000 C   0  0  0  0  0  0  0  0  0  0  0  0
    2.2108    7.3367    0.0000 C   0  0  0  0  0  0  0  0  0  0  0  0
    3.9428    7.3367    0.0000 C   0  0  0  0  0  0  0  0  0  0  0  0
    2.2108    8.3367    0.0000 C   0  0  0  0  0  0  0  0  0  0  0  0
    3.0768    8.8367    0.0000 C   0  0  0  0  0  0  0  0  0  0  0  0
    7.3292    2.0799    0.0000 C   0  0  3  0  0  0  0  0  0  0  0  0
    7.9170    1.2709    0.0000 C   0  0  0  0  0  0  0  0  0  0  0  0
    1.3448    8.8367    0.0000 C   0  0  0  0  0  0  0  0  0  0  0  0
    8.9115    1.3754    0.0000 C   0  0  0  0  0  0  0  0  0  0  0  0
    7.7360    2.9934    0.0000 C   0  0  0  0  0  0  0  0  0  0  0  0
    9.3183    2.2890    0.0000 C   0  0  0  0  0  0  0  0  0  0  0  0
    9.4993    0.5664    0.0000 C   0  0  0  0  0  0  0  0  0  0  0  0
   10.3128    2.3935    0.0000 C   0  0  0  0  0  0  0  0  0  0  0  0
   10.4938    0.6709    0.0000 C   0  0  0  0  0  0  0  0  0  0  0  0
   10.9006    1.5845    0.0000 C   0  0  0  0  0  0  0  0  0  0  0  0
    9.1372    4.0115    0.0000 C   0  0  0  0  0  0  0  0  0  0  0  0
    1.9645    4.3949    0.0000 H   0  0  0  0  0  0  0  0  0  0  0  0
    4.1892    4.3949    0.0000 H   0  0  0  0  0  0  0  0  0  0  0  0
    1.9578    5.7859    0.0000 H   0  0  0  0  0  0  0  0  0  0  0  0
    1.7014    4.9968    0.0000 H   0  0  0  0  0  0  0  0  0  0  0  0
    2.5244    6.1182    0.0000 H   0  0  0  0  0  0  0  0  0  0  0  0
    3.6074    3.2171    0.0000 H   0  0  0  0  0  0  0  0  0  0  0  0
    4.3355    2.8929    0.0000 H   0  0  0  0  0  0  0  0  0  0  0  0
    1.6739    7.0267    0.0000 H   0  0  0  0  0  0  0  0  0  0  0  0
    4.4798    8.6467    0.0000 H   0  0  0  0  0  0  0  0  0  0  0  0
    7.0770    1.5135    0.0000 H   0  0  0  0  0  0  0  0  0  0  0  0
    6.0825    1.4090    0.0000 H   0  0  0  0  0  0  0  0  0  0  0  0
    7.3598    0.9991    0.0000 H   0  0  0  0  0  0  0  0  0  0  0  0
    8.0879    0.6749    0.0000 H   0  0  0  0  0  0  0  0  0  0  0  0
    1.6548    9.3737    0.0000 H   0  0  0  0  0  0  0  0  0  0  0  0
    0.8078    9.1467    0.0000 H   0  0  0  0  0  0  0  0  0  0  0  0
    1.0348    8.2998    0.0000 H   0  0  0  0  0  0  0  0  0  0  0  0
    6.4911    3.9888    0.0000 H   0  0  0  0  0  0  0  0  0  0  0  0
    8.9538    2.7906    0.0000 H   0  0  0  0  0  0  0  0  0  0  0  0
    9.2471    0.0000    0.0000 H   0  0  0  0  0  0  0  0  0  0  0  0
   10.5650    2.9599    0.0000 H   0  0  0  0  0  0  0  0  0  0  0  0
   10.8583    0.1693    0.0000 H   0  0  0  0  0  0  0  0  0  0  0  0
   11.5172    1.6493    0.0000 H   0  0  0  0  0  0  0  0  0  0  0  0
    9.7036    3.7594    0.0000 H   0  0  0  0  0  0  0  0  0  0  0  0
    9.3894    4.5779    0.0000 H   0  0  0  0  0  0  0  0  0  0  0  0
    8.5708    4.2637    0.0000 H   0  0  0  0  0  0  0  0  0  0  0  0
    6.2955   12.7667    0.0000 H   0  0  0  0  0  0  0  0  0  0  0  0
    5.2217   12.7667    0.0000 H   0  0  0  0  0  0  0  0  0  0  0  0
    5.7586   11.8367    0.0000 H   0  0  0  0  0  0  0  0  0  0  0  0
  1  3  1  0  0  0  0
  1  5  1  0  0  0  0
  1  6  2  0  0  0  0
  1 13  1  0  0  0  0
  2 18  1  0  0  0  0
  2 20  1  0  0  0  0
  3 21  1  0  0  0  0
  4 23  2  0  0  0  0
  5 53  1  0  0  0  0
  7 25  2  0  0  0  0
  8 30  1  0  0  0  0
  8 36  1  0  0  0  0
  9 30  2  0  0  0  0
 20 10  1  1  0  0  0
 10 22  1  0  0  0  0
 10 23  1  0  0  0  0
 11 14  2  0  0  0  0
 17 11  1  6  0  0  0
 12 23  1  0  0  0  0
 12 25  1  0  0  0  0
 12 45  1  0  0  0  0
 13 26  1  0  0  0  0
 13 47  1  0  0  0  0
 14 15  2  0  0  0  0
 16 62  1  0  0  0  0
 16 63  1  0  0  0  0
 16 64  1  0  0  0  0
 17 18  1  0  0  0  0
 17 19  1  0  0  0  0
 17 37  1  0  0  0  0
 18 21  1  1  0  0  0
 18 38  1  0  0  0  0
 19 20  1  0  0  0  0
 19 39  1  0  0  0  0
 19 40  1  0  0  0  0
 20 41  1  0  0  0  0
 21 42  1  0  0  0  0
 21 43  1  0  0  0  0
 22 24  2  0  0  0  0
 22 44  1  0  0  0  0
 24 25  1  0  0  0  0
 24 28  1  0  0  0  0
 26 27  1  0  0  0  0
 26 30  1  0  0  0  0
 26 46  1  0  0  0  0
 27 29  1  0  0  0  0
 27 48  1  0  0  0  0
 27 49  1  0  0  0  0
 28 50  1  0  0  0  0
 28 51  1  0  0  0  0
 28 52  1  0  0  0  0
 29 31  2  0  0  0  0
 29 32  1  0  0  0  0
 31 33  1  0  0  0  0
 31 54  1  0  0  0  0
 32 34  2  0  0  0  0
 32 55  1  0  0  0  0
 33 35  2  0  0  0  0
 33 56  1  0  0  0  0
 34 35  1  0  0  0  0
 34 57  1  0  0  0  0
 35 58  1  0  0  0  0
 36 59  1  0  0  0  0
 36 60  1  0  0  0  0
 36 61  1  0  0  0  0
M  CHG  2  14   1  15  -1
M  END
> <PUBCHEM_COMPOUND_CID>
500290
> <PUBCHEM_COMPOUND_CANONICALIZED>
1
> <PUBCHEM_CACTVS_COMPLEXITY>
948
> <PUBCHEM_CACTVS_HBOND_ACCEPTOR>
12
> <PUBCHEM_CACTVS_HBOND_DONOR>
4
> <PUBCHEM_CACTVS_ROTATABLE_BOND>
11
> <PUBCHEM_CACTVS_SUBSKEYS>
AAADceB7vAIAAAAAAAAAAAAAAAAAASAAAAAwQAAAAAAAAAABAAAAHgAYiCAADDzhmAYzCIPABRCKQiHWWICCAAAgAAAIiIGIAMiLIDKA0RGPIAAulyIKiMe4+KKOAAAAAAAAAAAAAAAAAAAAAAAAAAAAAA==
> <PUBCHEM_IUPAC_OPENEYE_NAME>
ammonia;[(2R,3R,5S)-3-azido-5-(5-methyl-2,4-dioxo-pyrimidin-1-yl)tetrahydrofuran-2-yl]methoxy-N-(1-benzyl-2-methoxy-2-oxo-ethyl)phosphonamidic acid
> <PUBCHEM_IUPAC_CAS_NAME>
ammonia;[(2R,3R,5S)-3-azido-5-(5-methyl-2,4-dioxo-1-pyrimidinyl)-2-oxolanyl]methoxy-N-(1-methoxy-1-oxo-3-phenylpropan-2-yl)phosphonamidic acid
> <PUBCHEM_IUPAC_NAME_MARKUP>
azane;[(2<I>R</I>,3<I>R</I>,5<I>S</I>)-3-azido-5-(5-methyl-2,4-dioxopyrimidin-1-yl)oxolan-2-yl]methoxy-<I>N</I>-(1-methoxy-1-oxo-3-phenylpropan-2-yl)phosphonamidic acid
> <PUBCHEM_IUPAC_NAME>
azane;[(2R,3R,5S)-3-azido-5-(5-methyl-2,4-dioxopyrimidin-1-yl)oxolan-2-yl]methoxy-N-(1-methoxy-1-oxo-3-phenylpropan-2-yl)phosphonamidic acid
> <PUBCHEM_IUPAC_SYSTEMATIC_NAME>
azane;[(2R,3R,5S)-3-azido-5-[5-methyl-2,4-bis(oxidanylidene)pyrimidin-1-yl]oxolan-2-yl]methoxy-N-(1-methoxy-1-oxidanylidene-3-phenyl-propan-2-yl)phosphonamidic acid
> <PUBCHEM_IUPAC_TRADITIONAL_NAME>
ammonia;[(2R,3R,5S)-3-azido-5-(2,4-diketo-5-methyl-pyrimidin-1-yl)tetrahydrofuran-2-yl]methoxy-N-(1-benzyl-2-keto-2-methoxy-ethyl)phosphonamidic acid
> <PUBCHEM_IUPAC_INCHI>
InChI=1S/C20H25N6O8P.H3N/c1-12-10-26(20(29)22-18(12)27)17-9-14(23-25-21)16(34-17)11-33-35(30,31)24-15(19(28)32-2)8-13-6-4-3-5-7-13;/h3-7,10,14-17H,8-9,11H2,1-2H3,(H,22,27,29)(H2,24,30,31);1H3/t14-,15?,16+,17+;/m1./s1
> <PUBCHEM_IUPAC_INCHIKEY>
WXKMGLSRTKSAID-BZMJKTOSSA-N
> <PUBCHEM_EXACT_MASS>
525.17369787
> <PUBCHEM_MOLECULAR_FORMULA>
C20H28N7O8P
> <PUBCHEM_MOLECULAR_WEIGHT>
525.5
> <PUBCHEM_OPENEYE_CAN_SMILES>
CC1=CN(C(=O)NC1=O)C2CC(C(O2)COP(=O)(NC(CC3=CC=CC=C3)C(=O)OC)O)N=[N+]=[N-].N
> <PUBCHEM_OPENEYE_ISO_SMILES>
CC1=CN(C(=O)NC1=O)[C@@H]2C[C@H]([C@@H](O2)COP(=O)(NC(CC3=CC=CC=C3)C(=O)OC)O)N=[N+]=[N-].N
> <PUBCHEM_CACTVS_TPSA>
159
> <PUBCHEM_MONOISOTOPIC_WEIGHT>
525.17369787
> <PUBCHEM_TOTAL_CHARGE>
0
> <PUBCHEM_HEAVY_ATOM_COUNT>
36
> <PUBCHEM_ATOM_DEF_STEREO_COUNT>
3
> <PUBCHEM_ATOM_UDEF_STEREO_COUNT>
1
> <PUBCHEM_BOND_DEF_STEREO_COUNT>
0
> <PUBCHEM_BOND_UDEF_STEREO_COUNT>
0
> <PUBCHEM_ISOTOPIC_ATOM_COUNT>
0
> <PUBCHEM_COMPONENT_COUNT>
2
> <PUBCHEM_CACTVS_TAUTO_COUNT>
-1
> <PUBCHEM_COORDINATE_TYPE>
1
5
255
> <PUBCHEM_BONDANNOTATIONS>
20  10  5
10  22  8
10  23  8
17  11  6
12  23  8
12  25  8
18  21  5
22  24  8
24  25  8
26  27  3
29  31  8
29  32  8
31  33  8
32  34  8
33  35  8
34  35  8
$$$$
