500276
  -OEChem-10302200282D
 40 42  0     1  0  0  0  0  0999 V2000
    7.3062    0.7056    0.0000 O   0  0  0  0  0  0  0  0  0  0  0  0
    3.7702    0.7334    0.0000 O   0  0  0  0  0  0  0  0  0  0  0  0
    3.7817   -2.3359    0.0000 O   0  0  0  0  0  0  0  0  0  0  0  0
    5.5301   -2.3013    0.0000 O   0  0  0  0  0  0  0  0  0  0  0  0
    7.3142    1.7472    0.0000 C   0  0  0  0  0  0  0  0  0  0  0  0
    6.4121    2.2680    0.0000 C   0  0  0  0  0  0  0  0  0  0  0  0
    5.5141    1.7402    0.0000 C   0  0  0  0  0  0  0  0  0  0  0  0
    5.5301    0.6987    0.0000 C   0  0  0  0  0  0  0  0  0  0  0  0
    2.8641   -0.8221    0.0000 C   0  0  3  0  0  0  0  0  0  0  0  0
    4.6641    0.1987    0.0000 C   0  0  0  0  0  0  0  0  0  0  0  0
    2.8641    0.2195    0.0000 C   0  0  3  0  0  0  0  0  0  0  0  0
    6.3961    0.1987    0.0000 C   0  0  0  0  0  0  0  0  0  0  0  0
    4.6641   -0.8013    0.0000 C   0  0  0  0  0  0  0  0  0  0  0  0
    3.7702   -1.3359    0.0000 C   0  0  0  0  0  0  0  0  0  0  0  0
    7.8175    2.6113    0.0000 C   0  0  0  0  0  0  0  0  0  0  0  0
    8.3142    1.7433    0.0000 C   0  0  0  0  0  0  0  0  0  0  0  0
    6.3961   -0.8013    0.0000 C   0  0  0  0  0  0  0  0  0  0  0  0
    5.5301   -1.3013    0.0000 C   0  0  0  0  0  0  0  0  0  0  0  0
    2.0000   -1.3254    0.0000 C   0  0  0  0  0  0  0  0  0  0  0  0
    2.0000    0.7229    0.0000 C   0  0  0  0  0  0  0  0  0  0  0  0
    6.8094    2.7440    0.0000 H   0  0  0  0  0  0  0  0  0  0  0  0
    6.0111    2.7409    0.0000 H   0  0  0  0  0  0  0  0  0  0  0  0
    5.2960    2.3206    0.0000 H   0  0  0  0  0  0  0  0  0  0  0  0
    4.9049    1.6247    0.0000 H   0  0  0  0  0  0  0  0  0  0  0  0
    2.3266   -0.5131    0.0000 H   0  0  0  0  0  0  0  0  0  0  0  0
    2.8677    0.8395    0.0000 H   0  0  0  0  0  0  0  0  0  0  0  0
    8.3532    2.2992    0.0000 H   0  0  0  0  0  0  0  0  0  0  0  0
    8.1296    3.1470    0.0000 H   0  0  0  0  0  0  0  0  0  0  0  0
    7.2818    2.9233    0.0000 H   0  0  0  0  0  0  0  0  0  0  0  0
    8.3118    1.1233    0.0000 H   0  0  0  0  0  0  0  0  0  0  0  0
    8.9342    1.7409    0.0000 H   0  0  0  0  0  0  0  0  0  0  0  0
    8.3166    2.3633    0.0000 H   0  0  0  0  0  0  0  0  0  0  0  0
    6.9331   -1.1113    0.0000 H   0  0  0  0  0  0  0  0  0  0  0  0
    1.6879   -0.7897    0.0000 H   0  0  0  0  0  0  0  0  0  0  0  0
    1.4643   -1.6375    0.0000 H   0  0  0  0  0  0  0  0  0  0  0  0
    2.3121   -1.8612    0.0000 H   0  0  0  0  0  0  0  0  0  0  0  0
    2.3121    1.2586    0.0000 H   0  0  0  0  0  0  0  0  0  0  0  0
    1.4643    1.0350    0.0000 H   0  0  0  0  0  0  0  0  0  0  0  0
    1.6879    0.1871    0.0000 H   0  0  0  0  0  0  0  0  0  0  0  0
    6.0671   -2.6113    0.0000 H   0  0  0  0  0  0  0  0  0  0  0  0
  1  5  1  0  0  0  0
  1 12  1  0  0  0  0
  2 10  1  0  0  0  0
  2 11  1  0  0  0  0
  3 14  2  0  0  0  0
  4 18  1  0  0  0  0
  4 40  1  0  0  0  0
  5  6  1  0  0  0  0
  5 15  1  0  0  0  0
  5 16  1  0  0  0  0
  6  7  1  0  0  0  0
  6 21  1  0  0  0  0
  6 22  1  0  0  0  0
  7  8  1  0  0  0  0
  7 23  1  0  0  0  0
  7 24  1  0  0  0  0
  8 10  1  0  0  0  0
  8 12  2  0  0  0  0
  9 11  1  0  0  0  0
  9 14  1  0  0  0  0
  9 19  1  0  0  0  0
  9 25  1  0  0  0  0
 10 13  2  0  0  0  0
 11 20  1  0  0  0  0
 11 26  1  0  0  0  0
 12 17  1  0  0  0  0
 13 14  1  0  0  0  0
 13 18  1  0  0  0  0
 15 27  1  0  0  0  0
 15 28  1  0  0  0  0
 15 29  1  0  0  0  0
 16 30  1  0  0  0  0
 16 31  1  0  0  0  0
 16 32  1  0  0  0  0
 17 18  2  0  0  0  0
 17 33  1  0  0  0  0
 19 34  1  0  0  0  0
 19 35  1  0  0  0  0
 19 36  1  0  0  0  0
 20 37  1  0  0  0  0
 20 38  1  0  0  0  0
 20 39  1  0  0  0  0
M  END
> <PUBCHEM_COMPOUND_CID>
500276
> <PUBCHEM_COMPOUND_CANONICALIZED>
1
> <PUBCHEM_CACTVS_COMPLEXITY>
405
> <PUBCHEM_CACTVS_HBOND_ACCEPTOR>
4
> <PUBCHEM_CACTVS_HBOND_DONOR>
1
> <PUBCHEM_CACTVS_ROTATABLE_BOND>
0
> <PUBCHEM_CACTVS_SUBSKEYS>
AAADceB4OAAAAAAAAAAAAAAAAAAAAAAAAAA0SIAAAAAAAACRAAAAGgAACAAADVSgmAIyBoAABgCIAqBSAAACCAAkIAAAiAEGCMgMJzaGNBqCeWCl4BUIuQeI7PzOIAACCAAIAABAAAQQABAAAAAAAAAAAA==
> <PUBCHEM_IUPAC_OPENEYE_NAME>
5-hydroxy-2,3,8,8-tetramethyl-2,3,9,10-tetrahydropyrano[2,3-h]chromen-4-one
> <PUBCHEM_IUPAC_CAS_NAME>
5-hydroxy-2,3,8,8-tetramethyl-2,3,9,10-tetrahydropyrano[2,3-h][1]benzopyran-4-one
> <PUBCHEM_IUPAC_NAME_MARKUP>
5-hydroxy-2,3,8,8-tetramethyl-2,3,9,10-tetrahydropyrano[2,3-h]chromen-4-one
> <PUBCHEM_IUPAC_NAME>
5-hydroxy-2,3,8,8-tetramethyl-2,3,9,10-tetrahydropyrano[2,3-h]chromen-4-one
> <PUBCHEM_IUPAC_SYSTEMATIC_NAME>
2,3,8,8-tetramethyl-5-oxidanyl-2,3,9,10-tetrahydropyrano[2,3-h]chromen-4-one
> <PUBCHEM_IUPAC_TRADITIONAL_NAME>
5-hydroxy-2,3,8,8-tetramethyl-2,3,9,10-tetrahydropyrano[2,3-h]chromen-4-one
> <PUBCHEM_IUPAC_INCHI>
InChI=1S/C16H20O4/c1-8-9(2)19-15-10-5-6-16(3,4)20-12(10)7-11(17)13(15)14(8)18/h7-9,17H,5-6H2,1-4H3
> <PUBCHEM_IUPAC_INCHIKEY>
TYZDXWJRRISZGU-UHFFFAOYSA-N
> <PUBCHEM_XLOGP3_AA>
3.6
> <PUBCHEM_EXACT_MASS>
276.13615911
> <PUBCHEM_MOLECULAR_FORMULA>
C16H20O4
> <PUBCHEM_MOLECULAR_WEIGHT>
276.33
> <PUBCHEM_OPENEYE_CAN_SMILES>
CC1C(OC2=C(C1=O)C(=CC3=C2CCC(O3)(C)C)O)C
> <PUBCHEM_OPENEYE_ISO_SMILES>
CC1C(OC2=C(C1=O)C(=CC3=C2CCC(O3)(C)C)O)C
> <PUBCHEM_CACTVS_TPSA>
55.8
> <PUBCHEM_MONOISOTOPIC_WEIGHT>
276.13615911
> <PUBCHEM_TOTAL_CHARGE>
0
> <PUBCHEM_HEAVY_ATOM_COUNT>
20
> <PUBCHEM_ATOM_DEF_STEREO_COUNT>
0
> <PUBCHEM_ATOM_UDEF_STEREO_COUNT>
2
> <PUBCHEM_BOND_DEF_STEREO_COUNT>
0
> <PUBCHEM_BOND_UDEF_STEREO_COUNT>
0
> <PUBCHEM_ISOTOPIC_ATOM_COUNT>
0
> <PUBCHEM_COMPONENT_COUNT>
1
> <PUBCHEM_CACTVS_TAUTO_COUNT>
-1
> <PUBCHEM_COORDINATE_TYPE>
1
5
255
> <PUBCHEM_BONDANNOTATIONS>
10  13  8
11  20  3
12  17  8
13  18  8
17  18  8
8  10  8
8  12  8
9  19  3
$$$$
