500218
  -OEChem-10302200282D
 73 77  0     1  0  0  0  0  0999 V2000
    5.4111    1.0394    0.0000 O   0  0  0  0  0  0  0  0  0  0  0  0
    8.8835    1.0393    0.0000 O   0  0  0  0  0  0  0  0  0  0  0  0
    7.1473   -2.9231    0.0000 O   0  0  0  0  0  0  0  0  0  0  0  0
   11.2685    0.7617    0.0000 O   0  0  0  0  0  0  0  0  0  0  0  0
    3.6275   -2.6497    0.0000 O   0  0  0  0  0  0  0  0  0  0  0  0
   10.6670   -2.6497    0.0000 O   0  0  0  0  0  0  0  0  0  0  0  0
    3.0261    0.7617    0.0000 O   0  0  0  0  0  0  0  0  0  0  0  0
   11.9525   -1.1177    0.0000 O   0  0  0  0  0  0  0  0  0  0  0  0
    2.3420   -1.1177    0.0000 O   0  0  0  0  0  0  0  0  0  0  0  0
    7.1473    0.0769    0.0000 C   0  0  0  0  0  0  0  0  0  0  0  0
    8.0133   -0.4231    0.0000 C   0  0  3  0  0  0  0  0  0  0  0  0
    6.2812   -0.4231    0.0000 C   0  0  3  0  0  0  0  0  0  0  0  0
    8.0133   -1.4231    0.0000 C   0  0  0  0  0  0  0  0  0  0  0  0
    6.2812   -1.4231    0.0000 C   0  0  0  0  0  0  0  0  0  0  0  0
    6.3383    0.6647    0.0000 C   0  0  0  0  0  0  0  0  0  0  0  0
    7.9563    0.6647    0.0000 C   0  0  0  0  0  0  0  0  0  0  0  0
    7.1473   -1.9231    0.0000 C   0  0  0  0  0  0  0  0  0  0  0  0
    8.9981   -0.5967    0.0000 C   0  0  0  0  0  0  0  0  0  0  0  0
    5.2964   -0.5967    0.0000 C   0  0  0  0  0  0  0  0  0  0  0  0
    6.6473    1.6158    0.0000 C   0  0  0  0  0  0  0  0  0  0  0  0
    7.6473    1.6158    0.0000 C   0  0  0  0  0  0  0  0  0  0  0  0
    9.3401   -1.5364    0.0000 C   0  0  0  0  0  0  0  0  0  0  0  0
    4.6537    0.1693    0.0000 C   0  0  0  0  0  0  0  0  0  0  0  0
    9.6409    0.1693    0.0000 C   0  0  0  0  0  0  0  0  0  0  0  0
    4.9544   -1.5363    0.0000 C   0  0  0  0  0  0  0  0  0  0  0  0
    6.1126    2.5097    0.0000 C   0  0  0  0  0  0  0  0  0  0  0  0
    8.1819    2.5097    0.0000 C   0  0  0  0  0  0  0  0  0  0  0  0
    6.6265    3.4158    0.0000 C   0  0  0  0  0  0  0  0  0  0  0  0
    7.6681    3.4158    0.0000 C   0  0  0  0  0  0  0  0  0  0  0  0
   10.6257   -0.0043    0.0000 C   0  0  0  0  0  0  0  0  0  0  0  0
    3.9696   -1.7100    0.0000 C   0  0  0  0  0  0  0  0  0  0  0  0
   10.3249   -1.7100    0.0000 C   0  0  0  0  0  0  0  0  0  0  0  0
    3.6688   -0.0043    0.0000 C   0  0  0  0  0  0  0  0  0  0  0  0
   10.9677   -0.9440    0.0000 C   0  0  0  0  0  0  0  0  0  0  0  0
    3.3268   -0.9440    0.0000 C   0  0  0  0  0  0  0  0  0  0  0  0
   12.2533    0.5881    0.0000 C   0  0  0  0  0  0  0  0  0  0  0  0
    4.2703   -3.4158    0.0000 C   0  0  0  0  0  0  0  0  0  0  0  0
   10.0242   -3.4158    0.0000 C   0  0  0  0  0  0  0  0  0  0  0  0
    2.0412    0.5881    0.0000 C   0  0  0  0  0  0  0  0  0  0  0  0
   12.2946   -2.0574    0.0000 C   0  0  0  0  0  0  0  0  0  0  0  0
    2.0000   -2.0574    0.0000 C   0  0  0  0  0  0  0  0  0  0  0  0
    8.4118   -0.8980    0.0000 H   0  0  0  0  0  0  0  0  0  0  0  0
    5.8827   -0.8980    0.0000 H   0  0  0  0  0  0  0  0  0  0  0  0
    8.2254   -2.0057    0.0000 H   0  0  0  0  0  0  0  0  0  0  0  0
    8.6239   -1.3154    0.0000 H   0  0  0  0  0  0  0  0  0  0  0  0
    5.6707   -1.3154    0.0000 H   0  0  0  0  0  0  0  0  0  0  0  0
    6.0692   -2.0057    0.0000 H   0  0  0  0  0  0  0  0  0  0  0  0
    8.9416   -2.0114    0.0000 H   0  0  0  0  0  0  0  0  0  0  0  0
    4.8657    0.7519    0.0000 H   0  0  0  0  0  0  0  0  0  0  0  0
    9.4288    0.7519    0.0000 H   0  0  0  0  0  0  0  0  0  0  0  0
    5.3529   -2.0113    0.0000 H   0  0  0  0  0  0  0  0  0  0  0  0
    5.4927    2.5026    0.0000 H   0  0  0  0  0  0  0  0  0  0  0  0
    8.8019    2.5026    0.0000 H   0  0  0  0  0  0  0  0  0  0  0  0
    6.3144    3.9515    0.0000 H   0  0  0  0  0  0  0  0  0  0  0  0
    7.9802    3.9515    0.0000 H   0  0  0  0  0  0  0  0  0  0  0  0
   12.1456   -0.0225    0.0000 H   0  0  0  0  0  0  0  0  0  0  0  0
   12.8639    0.4804    0.0000 H   0  0  0  0  0  0  0  0  0  0  0  0
   12.3610    1.1987    0.0000 H   0  0  0  0  0  0  0  0  0  0  0  0
    3.7954   -3.8143    0.0000 H   0  0  0  0  0  0  0  0  0  0  0  0
    4.6688   -3.8907    0.0000 H   0  0  0  0  0  0  0  0  0  0  0  0
    4.7453   -3.0172    0.0000 H   0  0  0  0  0  0  0  0  0  0  0  0
    9.5492   -3.0173    0.0000 H   0  0  0  0  0  0  0  0  0  0  0  0
    9.6256   -3.8907    0.0000 H   0  0  0  0  0  0  0  0  0  0  0  0
   10.4991   -3.8143    0.0000 H   0  0  0  0  0  0  0  0  0  0  0  0
    1.9336    1.1987    0.0000 H   0  0  0  0  0  0  0  0  0  0  0  0
    1.4307    0.4804    0.0000 H   0  0  0  0  0  0  0  0  0  0  0  0
    2.1489   -0.0225    0.0000 H   0  0  0  0  0  0  0  0  0  0  0  0
   11.7119   -2.2694    0.0000 H   0  0  0  0  0  0  0  0  0  0  0  0
   12.5066   -2.6400    0.0000 H   0  0  0  0  0  0  0  0  0  0  0  0
   12.8772   -1.8453    0.0000 H   0  0  0  0  0  0  0  0  0  0  0  0
    1.4174   -1.8453    0.0000 H   0  0  0  0  0  0  0  0  0  0  0  0
    1.7880   -2.6400    0.0000 H   0  0  0  0  0  0  0  0  0  0  0  0
    2.5826   -2.2694    0.0000 H   0  0  0  0  0  0  0  0  0  0  0  0
  1 15  2  0  0  0  0
  2 16  2  0  0  0  0
  3 17  2  0  0  0  0
  4 30  1  0  0  0  0
  4 36  1  0  0  0  0
  5 31  1  0  0  0  0
  5 37  1  0  0  0  0
  6 32  1  0  0  0  0
  6 38  1  0  0  0  0
  7 33  1  0  0  0  0
  7 39  1  0  0  0  0
  8 34  1  0  0  0  0
  8 40  1  0  0  0  0
  9 35  1  0  0  0  0
  9 41  1  0  0  0  0
 10 11  1  0  0  0  0
 10 12  1  0  0  0  0
 10 15  1  0  0  0  0
 10 16  1  0  0  0  0
 11 13  1  0  0  0  0
 11 18  1  0  0  0  0
 11 42  1  0  0  0  0
 12 14  1  0  0  0  0
 12 19  1  0  0  0  0
 12 43  1  0  0  0  0
 13 17  1  0  0  0  0
 13 44  1  0  0  0  0
 13 45  1  0  0  0  0
 14 17  1  0  0  0  0
 14 46  1  0  0  0  0
 14 47  1  0  0  0  0
 15 20  1  0  0  0  0
 16 21  1  0  0  0  0
 18 22  2  0  0  0  0
 18 24  1  0  0  0  0
 19 23  2  0  0  0  0
 19 25  1  0  0  0  0
 20 21  1  0  0  0  0
 20 26  2  0  0  0  0
 21 27  2  0  0  0  0
 22 32  1  0  0  0  0
 22 48  1  0  0  0  0
 23 33  1  0  0  0  0
 23 49  1  0  0  0  0
 24 30  2  0  0  0  0
 24 50  1  0  0  0  0
 25 31  2  0  0  0  0
 25 51  1  0  0  0  0
 26 28  1  0  0  0  0
 26 52  1  0  0  0  0
 27 29  1  0  0  0  0
 27 53  1  0  0  0  0
 28 29  2  0  0  0  0
 28 54  1  0  0  0  0
 29 55  1  0  0  0  0
 30 34  1  0  0  0  0
 31 35  1  0  0  0  0
 32 34  2  0  0  0  0
 33 35  2  0  0  0  0
 36 56  1  0  0  0  0
 36 57  1  0  0  0  0
 36 58  1  0  0  0  0
 37 59  1  0  0  0  0
 37 60  1  0  0  0  0
 37 61  1  0  0  0  0
 38 62  1  0  0  0  0
 38 63  1  0  0  0  0
 38 64  1  0  0  0  0
 39 65  1  0  0  0  0
 39 66  1  0  0  0  0
 39 67  1  0  0  0  0
 40 68  1  0  0  0  0
 40 69  1  0  0  0  0
 40 70  1  0  0  0  0
 41 71  1  0  0  0  0
 41 72  1  0  0  0  0
 41 73  1  0  0  0  0
M  END
> <PUBCHEM_COMPOUND_CID>
500218
> <PUBCHEM_COMPOUND_CANONICALIZED>
1
> <PUBCHEM_CACTVS_COMPLEXITY>
865
> <PUBCHEM_CACTVS_HBOND_ACCEPTOR>
9
> <PUBCHEM_CACTVS_HBOND_DONOR>
0
> <PUBCHEM_CACTVS_ROTATABLE_BOND>
8
> <PUBCHEM_CACTVS_SUBSKEYS>
AAADcfB8PAAAAAAAAAAAAAAAAAAAAYAAAAAwYMGAAAAAAGABUAAAGgAAAAAADwSAmAIyBoAABACIAqBSAAACCAAkIAAIiAEGiMgNJzKMNRqAMSIlwBUKqYeJ6vyvoAABCAAQQABAAAYQACCAAQAACAAAAA==
> <PUBCHEM_IUPAC_OPENEYE_NAME>
3,5-bis(3,4,5-trimethoxyphenyl)spiro[cyclohexane-4,2'-indane]-1,1',3'-trione
> <PUBCHEM_IUPAC_CAS_NAME>
3,5-bis(3,4,5-trimethoxyphenyl)spiro[cyclohexane-4,2'-indene]-1,1',3'-trione
> <PUBCHEM_IUPAC_NAME_MARKUP>
3,5-bis(3,4,5-trimethoxyphenyl)spiro[cyclohexane-4,2&apos;-indene]-1,1&apos;,3&apos;-trione
> <PUBCHEM_IUPAC_NAME>
3,5-bis(3,4,5-trimethoxyphenyl)spiro[cyclohexane-4,2'-indene]-1,1',3'-trione
> <PUBCHEM_IUPAC_SYSTEMATIC_NAME>
3,5-bis(3,4,5-trimethoxyphenyl)spiro[cyclohexane-4,2'-indene]-1,1',3'-trione
> <PUBCHEM_IUPAC_TRADITIONAL_NAME>
3,5-bis(3,4,5-trimethoxyphenyl)spiro[cyclohexane-4,2'-indane]-1,1',3'-trione
> <PUBCHEM_IUPAC_INCHI>
InChI=1S/C32H32O9/c1-36-24-11-17(12-25(37-2)28(24)40-5)22-15-19(33)16-23(18-13-26(38-3)29(41-6)27(14-18)39-4)32(22)30(34)20-9-7-8-10-21(20)31(32)35/h7-14,22-23H,15-16H2,1-6H3
> <PUBCHEM_IUPAC_INCHIKEY>
NLOULXNEGAPOCR-UHFFFAOYSA-N
> <PUBCHEM_XLOGP3_AA>
4
> <PUBCHEM_EXACT_MASS>
560.20463259
> <PUBCHEM_MOLECULAR_FORMULA>
C32H32O9
> <PUBCHEM_MOLECULAR_WEIGHT>
560.6
> <PUBCHEM_OPENEYE_CAN_SMILES>
COC1=CC(=CC(=C1OC)OC)C2CC(=O)CC(C23C(=O)C4=CC=CC=C4C3=O)C5=CC(=C(C(=C5)OC)OC)OC
> <PUBCHEM_OPENEYE_ISO_SMILES>
COC1=CC(=CC(=C1OC)OC)C2CC(=O)CC(C23C(=O)C4=CC=CC=C4C3=O)C5=CC(=C(C(=C5)OC)OC)OC
> <PUBCHEM_CACTVS_TPSA>
107
> <PUBCHEM_MONOISOTOPIC_WEIGHT>
560.20463259
> <PUBCHEM_TOTAL_CHARGE>
0
> <PUBCHEM_HEAVY_ATOM_COUNT>
41
> <PUBCHEM_ATOM_DEF_STEREO_COUNT>
0
> <PUBCHEM_ATOM_UDEF_STEREO_COUNT>
2
> <PUBCHEM_BOND_DEF_STEREO_COUNT>
0
> <PUBCHEM_BOND_UDEF_STEREO_COUNT>
0
> <PUBCHEM_ISOTOPIC_ATOM_COUNT>
0
> <PUBCHEM_COMPONENT_COUNT>
1
> <PUBCHEM_CACTVS_TAUTO_COUNT>
-1
> <PUBCHEM_COORDINATE_TYPE>
1
5
255
> <PUBCHEM_BONDANNOTATIONS>
11  18  3
12  19  3
18  22  8
18  24  8
19  23  8
19  25  8
20  21  8
20  26  8
21  27  8
22  32  8
23  33  8
24  30  8
25  31  8
26  28  8
27  29  8
28  29  8
30  34  8
31  35  8
32  34  8
33  35  8
$$$$
