500227
  -OEChem-10302200282D
 65 70  0     1  0  0  0  0  0999 V2000
   11.5386    0.6324    0.0000 S   0  0  0  0  0  0  0  0  0  0  0  0
    8.7255   -2.1792    0.0000 O   0  0  0  0  0  0  0  0  0  0  0  0
   10.7955    1.3016    0.0000 O   0  0  0  0  0  0  0  0  0  0  0  0
   12.2818   -0.0367    0.0000 O   0  0  0  0  0  0  0  0  0  0  0  0
    5.2360   -1.2750    0.0000 O   0  0  0  0  0  0  0  0  0  0  0  0
   13.5091   -2.4549    0.0000 O   0  0  0  0  0  0  0  0  0  0  0  0
    5.8654    0.6678    0.0000 O   0  0  0  0  0  0  0  0  0  0  0  0
   10.8695   -0.1107    0.0000 N   0  0  3  0  0  0  0  0  0  0  0  0
    9.2222   -0.6459    0.0000 C   0  0  3  0  0  0  0  0  0  0  0  0
    9.5312   -1.5970    0.0000 C   0  0  3  0  0  0  0  0  0  0  0  0
    9.8913    0.0972    0.0000 C   0  0  0  0  0  0  0  0  0  0  0  0
    8.2282   -0.6485    0.0000 C   0  0  0  0  0  0  0  0  0  0  0  0
   10.5094   -1.8049    0.0000 C   0  0  0  0  0  0  0  0  0  0  0  0
   11.1785   -1.0618    0.0000 C   0  0  0  0  0  0  0  0  0  0  0  0
    7.9218   -1.5942    0.0000 C   0  0  0  0  0  0  0  0  0  0  0  0
    7.5466    0.1310    0.0000 C   0  0  0  0  0  0  0  0  0  0  0  0
   10.8160   -2.8004    0.0000 C   0  0  0  0  0  0  0  0  0  0  0  0
   12.2006   -1.2626    0.0000 C   0  0  0  0  0  0  0  0  0  0  0  0
    6.9126   -1.8260    0.0000 C   0  0  0  0  0  0  0  0  0  0  0  0
    6.5323   -0.0774    0.0000 C   0  0  0  0  0  0  0  0  0  0  0  0
   12.2078    1.3756    0.0000 C   0  0  0  0  0  0  0  0  0  0  0  0
   11.8331   -3.0248    0.0000 C   0  0  0  0  0  0  0  0  0  0  0  0
   12.5301   -2.2507    0.0000 C   0  0  0  0  0  0  0  0  0  0  0  0
    6.2132   -1.0624    0.0000 C   0  0  0  0  0  0  0  0  0  0  0  0
   11.8987    2.3266    0.0000 C   0  0  0  0  0  0  0  0  0  0  0  0
   13.1859    1.1677    0.0000 C   0  0  0  0  0  0  0  0  0  0  0  0
   12.5679    3.0698    0.0000 C   0  0  0  0  0  0  0  0  0  0  0  0
   13.8550    1.9108    0.0000 C   0  0  0  0  0  0  0  0  0  0  0  0
   13.5460    2.8619    0.0000 C   0  0  0  0  0  0  0  0  0  0  0  0
    4.9315   -2.2275    0.0000 C   0  0  0  0  0  0  0  0  0  0  0  0
   13.8217   -3.4047    0.0000 C   0  0  0  0  0  0  0  0  0  0  0  0
   14.2152    3.6050    0.0000 C   0  0  0  0  0  0  0  0  0  0  0  0
    3.9543   -2.4400    0.0000 C   0  0  0  0  0  0  0  0  0  0  0  0
    3.6498   -3.3925    0.0000 C   0  0  0  0  0  0  0  0  0  0  0  0
    3.2817   -1.7000    0.0000 C   0  0  0  0  0  0  0  0  0  0  0  0
    2.6726   -3.6050    0.0000 C   0  0  0  0  0  0  0  0  0  0  0  0
    2.3045   -1.9125    0.0000 C   0  0  0  0  0  0  0  0  0  0  0  0
    2.0000   -2.8650    0.0000 C   0  0  0  0  0  0  0  0  0  0  0  0
    8.9693   -0.0799    0.0000 H   0  0  0  0  0  0  0  0  0  0  0  0
    9.6594   -2.2036    0.0000 H   0  0  0  0  0  0  0  0  0  0  0  0
   10.1236    0.6721    0.0000 H   0  0  0  0  0  0  0  0  0  0  0  0
    9.3656    0.4258    0.0000 H   0  0  0  0  0  0  0  0  0  0  0  0
    7.7444    0.7186    0.0000 H   0  0  0  0  0  0  0  0  0  0  0  0
   10.3958   -3.2563    0.0000 H   0  0  0  0  0  0  0  0  0  0  0  0
   12.6101   -0.7971    0.0000 H   0  0  0  0  0  0  0  0  0  0  0  0
    6.7283   -2.4180    0.0000 H   0  0  0  0  0  0  0  0  0  0  0  0
   12.0224   -3.6152    0.0000 H   0  0  0  0  0  0  0  0  0  0  0  0
   11.2923    2.4555    0.0000 H   0  0  0  0  0  0  0  0  0  0  0  0
   13.3775    0.5780    0.0000 H   0  0  0  0  0  0  0  0  0  0  0  0
    6.0587    1.2568    0.0000 H   0  0  0  0  0  0  0  0  0  0  0  0
   12.3763    3.6594    0.0000 H   0  0  0  0  0  0  0  0  0  0  0  0
   14.4615    1.7819    0.0000 H   0  0  0  0  0  0  0  0  0  0  0  0
    4.9560   -2.8470    0.0000 H   0  0  0  0  0  0  0  0  0  0  0  0
    5.5458   -2.3108    0.0000 H   0  0  0  0  0  0  0  0  0  0  0  0
   13.2328   -3.5986    0.0000 H   0  0  0  0  0  0  0  0  0  0  0  0
   14.0156   -3.9936    0.0000 H   0  0  0  0  0  0  0  0  0  0  0  0
   14.4106   -3.2109    0.0000 H   0  0  0  0  0  0  0  0  0  0  0  0
   14.6759    3.1902    0.0000 H   0  0  0  0  0  0  0  0  0  0  0  0
   14.6300    4.0658    0.0000 H   0  0  0  0  0  0  0  0  0  0  0  0
   13.7544    4.0199    0.0000 H   0  0  0  0  0  0  0  0  0  0  0  0
    4.0668   -3.8513    0.0000 H   0  0  0  0  0  0  0  0  0  0  0  0
    3.4705   -1.1094    0.0000 H   0  0  0  0  0  0  0  0  0  0  0  0
    2.4838   -4.1956    0.0000 H   0  0  0  0  0  0  0  0  0  0  0  0
    1.8875   -1.4538    0.0000 H   0  0  0  0  0  0  0  0  0  0  0  0
    1.3942   -2.9968    0.0000 H   0  0  0  0  0  0  0  0  0  0  0  0
  1  3  2  0  0  0  0
  1  4  2  0  0  0  0
  1  8  1  0  0  0  0
  1 21  1  0  0  0  0
  2 10  1  0  0  0  0
  2 15  1  0  0  0  0
  5 24  1  0  0  0  0
  5 30  1  0  0  0  0
  6 23  1  0  0  0  0
  6 31  1  0  0  0  0
  7 20  1  0  0  0  0
  7 50  1  0  0  0  0
  8 11  1  0  0  0  0
  8 14  1  0  0  0  0
  9 10  1  0  0  0  0
  9 11  1  0  0  0  0
  9 12  1  0  0  0  0
  9 39  1  0  0  0  0
 10 13  1  0  0  0  0
 10 40  1  0  0  0  0
 11 41  1  0  0  0  0
 11 42  1  0  0  0  0
 12 15  1  0  0  0  0
 12 16  2  0  0  0  0
 13 14  2  0  0  0  0
 13 17  1  0  0  0  0
 14 18  1  0  0  0  0
 15 19  2  0  0  0  0
 16 20  1  0  0  0  0
 16 43  1  0  0  0  0
 17 22  2  0  0  0  0
 17 44  1  0  0  0  0
 18 23  2  0  0  0  0
 18 45  1  0  0  0  0
 19 24  1  0  0  0  0
 19 46  1  0  0  0  0
 20 24  2  0  0  0  0
 21 25  2  0  0  0  0
 21 26  1  0  0  0  0
 22 23  1  0  0  0  0
 22 47  1  0  0  0  0
 25 27  1  0  0  0  0
 25 48  1  0  0  0  0
 26 28  2  0  0  0  0
 26 49  1  0  0  0  0
 27 29  2  0  0  0  0
 27 51  1  0  0  0  0
 28 29  1  0  0  0  0
 28 52  1  0  0  0  0
 29 32  1  0  0  0  0
 30 33  1  0  0  0  0
 30 53  1  0  0  0  0
 30 54  1  0  0  0  0
 31 55  1  0  0  0  0
 31 56  1  0  0  0  0
 31 57  1  0  0  0  0
 32 58  1  0  0  0  0
 32 59  1  0  0  0  0
 32 60  1  0  0  0  0
 33 34  2  0  0  0  0
 33 35  1  0  0  0  0
 34 36  1  0  0  0  0
 34 61  1  0  0  0  0
 35 37  2  0  0  0  0
 35 62  1  0  0  0  0
 36 38  2  0  0  0  0
 36 63  1  0  0  0  0
 37 38  1  0  0  0  0
 37 64  1  0  0  0  0
 38 65  1  0  0  0  0
M  END
> <PUBCHEM_COMPOUND_CID>
500227
> <PUBCHEM_COMPOUND_CANONICALIZED>
1
> <PUBCHEM_CACTVS_COMPLEXITY>
895
> <PUBCHEM_CACTVS_HBOND_ACCEPTOR>
7
> <PUBCHEM_CACTVS_HBOND_DONOR>
1
> <PUBCHEM_CACTVS_ROTATABLE_BOND>
6
> <PUBCHEM_CACTVS_SUBSKEYS>
AAADceB6OABAAAAAAAAAAAAAAAAAASAAAAA8YMGCAAAAAFixVAAAHgQASAAADRzh2AYyx4IABgKAAiRCQHDCCBAhIgAIiBgO7IgNJyLGsZuGeCvnwB3L+Afw8P8OsQABCgAKQABiAAIUABSAAAAAAAAAAA==
> <PUBCHEM_IUPAC_OPENEYE_NAME>
9-benzyloxy-3-methoxy-5-(p-tolylsulfonyl)-6a,11a-dihydro-6H-benzofuro[3,2-c]quinolin-8-ol
> <PUBCHEM_IUPAC_CAS_NAME>
3-methoxy-5-(4-methylphenyl)sulfonyl-9-phenylmethoxy-6a,11a-dihydro-6H-benzofuro[3,2-c]quinolin-8-ol
> <PUBCHEM_IUPAC_NAME_MARKUP>
3-methoxy-5-(4-methylphenyl)sulfonyl-9-phenylmethoxy-6<I>a</I>,11<I>a</I>-dihydro-6<I>H</I>-[1]benzofuro[3,2-c]quinolin-8-ol
> <PUBCHEM_IUPAC_NAME>
3-methoxy-5-(4-methylphenyl)sulfonyl-9-phenylmethoxy-6a,11a-dihydro-6H-[1]benzofuro[3,2-c]quinolin-8-ol
> <PUBCHEM_IUPAC_SYSTEMATIC_NAME>
3-methoxy-5-(4-methylphenyl)sulfonyl-9-phenylmethoxy-6a,11a-dihydro-6H-[1]benzofuro[3,2-c]quinolin-8-ol
> <PUBCHEM_IUPAC_TRADITIONAL_NAME>
9-benzoxy-3-methoxy-5-tosyl-6a,11a-dihydro-6H-benzofuro[3,2-c]quinolin-8-ol
> <PUBCHEM_IUPAC_INCHI>
InChI=1S/C30H27NO6S/c1-19-8-11-22(12-9-19)38(33,34)31-17-25-24-15-27(32)29(36-18-20-6-4-3-5-7-20)16-28(24)37-30(25)23-13-10-21(35-2)14-26(23)31/h3-16,25,30,32H,17-18H2,1-2H3
> <PUBCHEM_IUPAC_INCHIKEY>
AVVNXCKBNDGJRE-UHFFFAOYSA-N
> <PUBCHEM_XLOGP3_AA>
5.2
> <PUBCHEM_EXACT_MASS>
529.15590875
> <PUBCHEM_MOLECULAR_FORMULA>
C30H27NO6S
> <PUBCHEM_MOLECULAR_WEIGHT>
529.6
> <PUBCHEM_OPENEYE_CAN_SMILES>
CC1=CC=C(C=C1)S(=O)(=O)N2CC3C(C4=C2C=C(C=C4)OC)OC5=CC(=C(C=C35)O)OCC6=CC=CC=C6
> <PUBCHEM_OPENEYE_ISO_SMILES>
CC1=CC=C(C=C1)S(=O)(=O)N2CC3C(C4=C2C=C(C=C4)OC)OC5=CC(=C(C=C35)O)OCC6=CC=CC=C6
> <PUBCHEM_CACTVS_TPSA>
93.7
> <PUBCHEM_MONOISOTOPIC_WEIGHT>
529.15590875
> <PUBCHEM_TOTAL_CHARGE>
0
> <PUBCHEM_HEAVY_ATOM_COUNT>
38
> <PUBCHEM_ATOM_DEF_STEREO_COUNT>
0
> <PUBCHEM_ATOM_UDEF_STEREO_COUNT>
2
> <PUBCHEM_BOND_DEF_STEREO_COUNT>
0
> <PUBCHEM_BOND_UDEF_STEREO_COUNT>
0
> <PUBCHEM_ISOTOPIC_ATOM_COUNT>
0
> <PUBCHEM_COMPONENT_COUNT>
1
> <PUBCHEM_CACTVS_TAUTO_COUNT>
-1
> <PUBCHEM_COORDINATE_TYPE>
1
5
255
> <PUBCHEM_BONDANNOTATIONS>
12  15  8
12  16  8
13  14  8
13  17  8
14  18  8
15  19  8
16  20  8
17  22  8
18  23  8
19  24  8
10  2  3
20  24  8
21  25  8
21  26  8
22  23  8
25  27  8
26  28  8
27  29  8
28  29  8
33  34  8
33  35  8
34  36  8
35  37  8
36  38  8
37  38  8
9  11  3
$$$$
