500259
  -OEChem-10302200282D
 63 67  0     1  0  0  0  0  0999 V2000
    4.3958   -3.0382    0.0000 O   0  0  0  0  0  0  0  0  0  0  0  0
    8.7840    3.4150    0.0000 O   0  0  0  0  0  0  0  0  0  0  0  0
    3.5298   -1.5381    0.0000 C   0  0  3  0  0  0  0  0  0  0  0  0
    3.5298   -0.5381    0.0000 C   0  0  3  0  0  0  0  0  0  0  0  0
    2.5836   -1.8429    0.0000 C   0  0  3  0  0  0  0  0  0  0  0  0
    3.3208   -2.5104    0.0000 C   0  0  0  0  0  0  0  0  0  0  0  0
    4.3958   -0.0381    0.0000 C   0  0  3  0  0  0  0  0  0  0  0  0
    4.3958   -2.0382    0.0000 C   0  0  3  0  0  0  0  0  0  0  0  0
    5.2619   -0.5381    0.0000 C   0  0  3  0  0  0  0  0  0  0  0  0
    2.5836   -0.2334    0.0000 C   0  0  0  0  0  0  0  0  0  0  0  0
    2.0000   -1.0381    0.0000 C   0  0  0  0  0  0  0  0  0  0  0  0
    5.2619   -1.5381    0.0000 C   0  0  0  0  0  0  0  0  0  0  0  0
    6.1719   -0.0313    0.0000 C   0  0  3  0  0  0  0  0  0  0  0  0
    6.1799    1.0103    0.0000 C   0  0  3  0  0  0  0  0  0  0  0  0
    4.3798    1.0034    0.0000 C   0  0  0  0  0  0  0  0  0  0  0  0
    3.5298    0.4619    0.0000 C   0  0  0  0  0  0  0  0  0  0  0  0
    5.2778    1.5311    0.0000 C   0  0  0  0  0  0  0  0  0  0  0  0
    7.1679    1.3201    0.0000 C   0  0  3  0  0  0  0  0  0  0  0  0
    7.1550   -0.3563    0.0000 C   0  0  0  0  0  0  0  0  0  0  0  0
    7.7694    0.4772    0.0000 C   0  0  0  0  0  0  0  0  0  0  0  0
    6.1876    2.0103    0.0000 C   0  0  0  0  0  0  0  0  0  0  0  0
    7.4859    2.2682    0.0000 C   0  0  3  0  0  0  0  0  0  0  0  0
    5.2619   -3.5382    0.0000 C   0  0  0  0  0  0  0  0  0  0  0  0
    8.4660    2.4669    0.0000 C   0  0  0  0  0  0  0  0  0  0  0  0
    6.8238    3.0176    0.0000 C   0  0  0  0  0  0  0  0  0  0  0  0
    2.1221   -2.2569    0.0000 H   0  0  0  0  0  0  0  0  0  0  0  0
    2.9908   -3.0354    0.0000 H   0  0  0  0  0  0  0  0  0  0  0  0
    3.8950   -2.7442    0.0000 H   0  0  0  0  0  0  0  0  0  0  0  0
    4.9304    0.2760    0.0000 H   0  0  0  0  0  0  0  0  0  0  0  0
    4.9328   -2.3482    0.0000 H   0  0  0  0  0  0  0  0  0  0  0  0
    5.7964   -0.8523    0.0000 H   0  0  0  0  0  0  0  0  0  0  0  0
    2.8346    0.3335    0.0000 H   0  0  0  0  0  0  0  0  0  0  0  0
    2.0462    0.0758    0.0000 H   0  0  0  0  0  0  0  0  0  0  0  0
    1.5391   -0.6234    0.0000 H   0  0  0  0  0  0  0  0  0  0  0  0
    1.5391   -1.4529    0.0000 H   0  0  0  0  0  0  0  0  0  0  0  0
    5.4739   -2.1208    0.0000 H   0  0  0  0  0  0  0  0  0  0  0  0
    5.8725   -1.4305    0.0000 H   0  0  0  0  0  0  0  0  0  0  0  0
    6.2304   -0.6485    0.0000 H   0  0  0  0  0  0  0  0  0  0  0  0
    4.1618    1.5838    0.0000 H   0  0  0  0  0  0  0  0  0  0  0  0
    3.7706    0.8879    0.0000 H   0  0  0  0  0  0  0  0  0  0  0  0
    4.1498    0.4619    0.0000 H   0  0  0  0  0  0  0  0  0  0  0  0
    3.5298    1.0818    0.0000 H   0  0  0  0  0  0  0  0  0  0  0  0
    2.9098    0.4619    0.0000 H   0  0  0  0  0  0  0  0  0  0  0  0
    5.6751    2.0071    0.0000 H   0  0  0  0  0  0  0  0  0  0  0  0
    4.8769    2.0040    0.0000 H   0  0  0  0  0  0  0  0  0  0  0  0
    7.7812    1.4116    0.0000 H   0  0  0  0  0  0  0  0  0  0  0  0
    6.8996   -0.9213    0.0000 H   0  0  0  0  0  0  0  0  0  0  0  0
    7.6900   -0.6697    0.0000 H   0  0  0  0  0  0  0  0  0  0  0  0
    8.2270    0.0589    0.0000 H   0  0  0  0  0  0  0  0  0  0  0  0
    8.2334    0.8884    0.0000 H   0  0  0  0  0  0  0  0  0  0  0  0
    6.8076    2.0055    0.0000 H   0  0  0  0  0  0  0  0  0  0  0  0
    6.1924    2.6303    0.0000 H   0  0  0  0  0  0  0  0  0  0  0  0
    5.5676    2.0150    0.0000 H   0  0  0  0  0  0  0  0  0  0  0  0
    6.8783    2.1450    0.0000 H   0  0  0  0  0  0  0  0  0  0  0  0
    4.9519   -4.0751    0.0000 H   0  0  0  0  0  0  0  0  0  0  0  0
    5.7988   -3.8482    0.0000 H   0  0  0  0  0  0  0  0  0  0  0  0
    5.5719   -3.0012    0.0000 H   0  0  0  0  0  0  0  0  0  0  0  0
    8.4818    1.8471    0.0000 H   0  0  0  0  0  0  0  0  0  0  0  0
    9.0791    2.3748    0.0000 H   0  0  0  0  0  0  0  0  0  0  0  0
    7.2885    3.4281    0.0000 H   0  0  0  0  0  0  0  0  0  0  0  0
    6.4133    3.4823    0.0000 H   0  0  0  0  0  0  0  0  0  0  0  0
    6.3592    2.6071    0.0000 H   0  0  0  0  0  0  0  0  0  0  0  0
    9.3916    3.5382    0.0000 H   0  0  0  0  0  0  0  0  0  0  0  0
  1  8  1  0  0  0  0
  1 23  1  0  0  0  0
  2 24  1  0  0  0  0
  2 63  1  0  0  0  0
  3  4  1  0  0  0  0
  3  5  1  0  0  0  0
  3  6  1  0  0  0  0
  3  8  1  0  0  0  0
  4  7  1  0  0  0  0
  4 10  1  0  0  0  0
  4 16  1  0  0  0  0
  5  6  1  0  0  0  0
  5 11  1  0  0  0  0
  5 26  1  0  0  0  0
  6 27  1  0  0  0  0
  6 28  1  0  0  0  0
  7  9  1  0  0  0  0
  7 15  1  0  0  0  0
  7 29  1  0  0  0  0
  8 12  1  0  0  0  0
  8 30  1  0  0  0  0
  9 12  1  0  0  0  0
  9 13  1  0  0  0  0
  9 31  1  0  0  0  0
 10 11  1  0  0  0  0
 10 32  1  0  0  0  0
 10 33  1  0  0  0  0
 11 34  1  0  0  0  0
 11 35  1  0  0  0  0
 12 36  1  0  0  0  0
 12 37  1  0  0  0  0
 13 14  1  0  0  0  0
 13 19  1  0  0  0  0
 13 38  1  0  0  0  0
 14 17  1  0  0  0  0
 14 18  1  0  0  0  0
 14 21  1  0  0  0  0
 15 17  1  0  0  0  0
 15 39  1  0  0  0  0
 15 40  1  0  0  0  0
 16 41  1  0  0  0  0
 16 42  1  0  0  0  0
 16 43  1  0  0  0  0
 17 44  1  0  0  0  0
 17 45  1  0  0  0  0
 18 20  1  0  0  0  0
 18 22  1  0  0  0  0
 18 46  1  0  0  0  0
 19 20  1  0  0  0  0
 19 47  1  0  0  0  0
 19 48  1  0  0  0  0
 20 49  1  0  0  0  0
 20 50  1  0  0  0  0
 21 51  1  0  0  0  0
 21 52  1  0  0  0  0
 21 53  1  0  0  0  0
 22 24  1  0  0  0  0
 22 25  1  0  0  0  0
 22 54  1  0  0  0  0
 23 55  1  0  0  0  0
 23 56  1  0  0  0  0
 23 57  1  0  0  0  0
 24 58  1  0  0  0  0
 24 59  1  0  0  0  0
 25 60  1  0  0  0  0
 25 61  1  0  0  0  0
 25 62  1  0  0  0  0
M  END
> <PUBCHEM_COMPOUND_CID>
500259
> <PUBCHEM_COMPOUND_CANONICALIZED>
1
> <PUBCHEM_CACTVS_COMPLEXITY>
560
> <PUBCHEM_CACTVS_HBOND_ACCEPTOR>
2
> <PUBCHEM_CACTVS_HBOND_DONOR>
1
> <PUBCHEM_CACTVS_ROTATABLE_BOND>
3
> <PUBCHEM_CACTVS_SUBSKEYS>
AAADcfB4MAAAAAAAAAAAAAAAGAAAAYMAAAAwYMAAAAAAAGDAAAAAGgAACAAADxSggAICAAAABgAAAAAAAAAAAAAAAAAAAAAAAAAAEAIAAAAAQAAEAAAAAAGAwPAPgAAAAAAAAADAAAYAADAAAQAACAAAAA==
> <PUBCHEM_IUPAC_OPENEYE_NAME>
2-(8-methoxy-2,15-dimethyl-14-pentacyclo[8.7.0.02,7.05,7.011,15]heptadecanyl)propan-1-ol
> <PUBCHEM_IUPAC_CAS_NAME>
2-(8-methoxy-2,15-dimethyl-14-pentacyclo[8.7.0.02,7.05,7.011,15]heptadecanyl)-1-propanol
> <PUBCHEM_IUPAC_NAME_MARKUP>
2-(8-methoxy-2,15-dimethyl-14-pentacyclo[8.7.0.0<SUP>2,7</SUP>.0<SUP>5,7</SUP>.0<SUP>11,15</SUP>]heptadecanyl)propan-1-ol
> <PUBCHEM_IUPAC_NAME>
2-(8-methoxy-2,15-dimethyl-14-pentacyclo[8.7.0.02,7.05,7.011,15]heptadecanyl)propan-1-ol
> <PUBCHEM_IUPAC_SYSTEMATIC_NAME>
2-(8-methoxy-2,15-dimethyl-14-pentacyclo[8.7.0.02,7.05,7.011,15]heptadecanyl)propan-1-ol
> <PUBCHEM_IUPAC_TRADITIONAL_NAME>
2-(8-methoxy-2,15-dimethyl-14-pentacyclo[8.7.0.02,7.05,7.011,15]heptadecanyl)propan-1-ol
> <PUBCHEM_IUPAC_INCHI>
InChI=1S/C23H38O2/c1-14(13-24)17-5-6-18-16-11-20(25-4)23-12-15(23)7-10-22(23,3)19(16)8-9-21(17,18)2/h14-20,24H,5-13H2,1-4H3
> <PUBCHEM_IUPAC_INCHIKEY>
FHAMDNXTPYSJGZ-UHFFFAOYSA-N
> <PUBCHEM_XLOGP3_AA>
5.8
> <PUBCHEM_EXACT_MASS>
346.287180451
> <PUBCHEM_MOLECULAR_FORMULA>
C23H38O2
> <PUBCHEM_MOLECULAR_WEIGHT>
346.5
> <PUBCHEM_OPENEYE_CAN_SMILES>
CC(CO)C1CCC2C1(CCC3C2CC(C45C3(CCC4C5)C)OC)C
> <PUBCHEM_OPENEYE_ISO_SMILES>
CC(CO)C1CCC2C1(CCC3C2CC(C45C3(CCC4C5)C)OC)C
> <PUBCHEM_CACTVS_TPSA>
29.5
> <PUBCHEM_MONOISOTOPIC_WEIGHT>
346.287180451
> <PUBCHEM_TOTAL_CHARGE>
0
> <PUBCHEM_HEAVY_ATOM_COUNT>
25
> <PUBCHEM_ATOM_DEF_STEREO_COUNT>
0
> <PUBCHEM_ATOM_UDEF_STEREO_COUNT>
10
> <PUBCHEM_BOND_DEF_STEREO_COUNT>
0
> <PUBCHEM_BOND_UDEF_STEREO_COUNT>
0
> <PUBCHEM_ISOTOPIC_ATOM_COUNT>
0
> <PUBCHEM_COMPONENT_COUNT>
1
> <PUBCHEM_CACTVS_TAUTO_COUNT>
-1
> <PUBCHEM_COORDINATE_TYPE>
1
5
255
> <PUBCHEM_BONDANNOTATIONS>
8  1  3
13  19  3
14  21  3
18  20  3
22  25  3
3  6  3
4  16  3
5  11  3
7  15  3
9  12  3
$$$$
