500206
  -OEChem-10302200282D
 54 59  0     1  0  0  0  0  0999 V2000
    7.7407    0.8867    0.0000 O   0  0  0  0  0  0  0  0  0  0  0  0
    6.4109    3.6377    0.0000 O   0  0  0  0  0  0  0  0  0  0  0  0
    4.1327   -0.9606    0.0000 O   0  0  0  0  0  0  0  0  0  0  0  0
    4.8537   -2.6510    0.0000 O   0  0  0  0  0  0  0  0  0  0  0  0
    9.5761    5.4456    0.0000 O   0  0  0  0  0  0  0  0  0  0  0  0
    6.4317    1.8377    0.0000 C   0  0  3  0  0  0  0  0  0  0  0  0
    7.4317    1.8377    0.0000 C   0  0  3  0  0  0  0  0  0  0  0  0
    6.1227    0.8867    0.0000 C   0  0  0  0  0  0  0  0  0  0  0  0
    5.8970    2.7317    0.0000 C   0  0  0  0  0  0  0  0  0  0  0  0
    6.9317    0.2989    0.0000 C   0  0  0  0  0  0  0  0  0  0  0  0
    7.9664    2.7317    0.0000 C   0  0  0  0  0  0  0  0  0  0  0  0
    7.4525    3.6377    0.0000 C   0  0  0  0  0  0  0  0  0  0  0  0
    6.8388   -0.7386    0.0000 C   0  0  0  0  0  0  0  0  0  0  0  0
    5.1647    0.4777    0.0000 C   0  0  0  0  0  0  0  0  0  0  0  0
    5.8905   -1.1696    0.0000 C   0  0  0  0  0  0  0  0  0  0  0  0
    5.0478   -0.5573    0.0000 C   0  0  0  0  0  0  0  0  0  0  0  0
    9.0511    2.7066    0.0000 C   0  0  0  0  0  0  0  0  0  0  0  0
    7.9878    4.5815    0.0000 C   0  0  0  0  0  0  0  0  0  0  0  0
    7.7311   -1.3559    0.0000 C   0  0  0  0  0  0  0  0  0  0  0  0
    5.7688   -2.2477    0.0000 C   0  0  0  0  0  0  0  0  0  0  0  0
    9.6080    3.6377    0.0000 C   0  0  0  0  0  0  0  0  0  0  0  0
    9.0727    4.5815    0.0000 C   0  0  0  0  0  0  0  0  0  0  0  0
    7.6343   -2.4366    0.0000 C   0  0  0  0  0  0  0  0  0  0  0  0
    6.6466   -2.8855    0.0000 C   0  0  0  0  0  0  0  0  0  0  0  0
    4.7453   -3.6451    0.0000 C   0  0  0  0  0  0  0  0  0  0  0  0
    3.8302   -4.0483    0.0000 C   0  0  0  0  0  0  0  0  0  0  0  0
   10.5761    5.4418    0.0000 C   0  0  0  0  0  0  0  0  0  0  0  0
    3.7218   -5.0424    0.0000 C   0  0  0  0  0  0  0  0  0  0  0  0
    3.0235   -3.4574    0.0000 C   0  0  0  0  0  0  0  0  0  0  0  0
    2.8068   -5.4456    0.0000 C   0  0  0  0  0  0  0  0  0  0  0  0
    2.1084   -3.8606    0.0000 C   0  0  0  0  0  0  0  0  0  0  0  0
    2.0000   -4.8547    0.0000 C   0  0  0  0  0  0  0  0  0  0  0  0
    5.8156    1.7682    0.0000 H   0  0  0  0  0  0  0  0  0  0  0  0
    8.0478    1.7682    0.0000 H   0  0  0  0  0  0  0  0  0  0  0  0
    5.4180    3.1253    0.0000 H   0  0  0  0  0  0  0  0  0  0  0  0
    5.4272    2.3271    0.0000 H   0  0  0  0  0  0  0  0  0  0  0  0
    4.6673    0.8479    0.0000 H   0  0  0  0  0  0  0  0  0  0  0  0
    9.3506    2.1638    0.0000 H   0  0  0  0  0  0  0  0  0  0  0  0
    7.6757    5.1172    0.0000 H   0  0  0  0  0  0  0  0  0  0  0  0
    8.2925   -1.0928    0.0000 H   0  0  0  0  0  0  0  0  0  0  0  0
   10.2279    3.6306    0.0000 H   0  0  0  0  0  0  0  0  0  0  0  0
    8.1401   -2.7952    0.0000 H   0  0  0  0  0  0  0  0  0  0  0  0
    6.5841   -3.5023    0.0000 H   0  0  0  0  0  0  0  0  0  0  0  0
    3.6325   -0.5942    0.0000 H   0  0  0  0  0  0  0  0  0  0  0  0
    4.8930   -4.2472    0.0000 H   0  0  0  0  0  0  0  0  0  0  0  0
    5.3640   -3.6042    0.0000 H   0  0  0  0  0  0  0  0  0  0  0  0
   10.5737    4.8218    0.0000 H   0  0  0  0  0  0  0  0  0  0  0  0
   11.1961    5.4394    0.0000 H   0  0  0  0  0  0  0  0  0  0  0  0
   10.5785    6.0617    0.0000 H   0  0  0  0  0  0  0  0  0  0  0  0
    4.2220   -5.4088    0.0000 H   0  0  0  0  0  0  0  0  0  0  0  0
    3.0906   -2.8410    0.0000 H   0  0  0  0  0  0  0  0  0  0  0  0
    2.7396   -6.0620    0.0000 H   0  0  0  0  0  0  0  0  0  0  0  0
    1.6082   -3.4942    0.0000 H   0  0  0  0  0  0  0  0  0  0  0  0
    1.4326   -5.1047    0.0000 H   0  0  0  0  0  0  0  0  0  0  0  0
  1  7  1  0  0  0  0
  1 10  1  0  0  0  0
  2  9  1  0  0  0  0
  2 12  1  0  0  0  0
  3 16  1  0  0  0  0
  3 44  1  0  0  0  0
  4 20  1  0  0  0  0
  4 25  1  0  0  0  0
  5 22  1  0  0  0  0
  5 27  1  0  0  0  0
  6  7  1  0  0  0  0
  6  8  1  0  0  0  0
  6  9  1  0  0  0  0
  6 33  1  0  0  0  0
  7 11  1  0  0  0  0
  7 34  1  0  0  0  0
  8 10  1  0  0  0  0
  8 14  2  0  0  0  0
  9 35  1  0  0  0  0
  9 36  1  0  0  0  0
 10 13  2  0  0  0  0
 11 12  2  0  0  0  0
 11 17  1  0  0  0  0
 12 18  1  0  0  0  0
 13 15  1  0  0  0  0
 13 19  1  0  0  0  0
 14 16  1  0  0  0  0
 14 37  1  0  0  0  0
 15 16  2  0  0  0  0
 15 20  1  0  0  0  0
 17 21  2  0  0  0  0
 17 38  1  0  0  0  0
 18 22  2  0  0  0  0
 18 39  1  0  0  0  0
 19 23  2  0  0  0  0
 19 40  1  0  0  0  0
 20 24  2  0  0  0  0
 21 22  1  0  0  0  0
 21 41  1  0  0  0  0
 23 24  1  0  0  0  0
 23 42  1  0  0  0  0
 24 43  1  0  0  0  0
 25 26  1  0  0  0  0
 25 45  1  0  0  0  0
 25 46  1  0  0  0  0
 26 28  2  0  0  0  0
 26 29  1  0  0  0  0
 27 47  1  0  0  0  0
 27 48  1  0  0  0  0
 27 49  1  0  0  0  0
 28 30  1  0  0  0  0
 28 50  1  0  0  0  0
 29 31  2  0  0  0  0
 29 51  1  0  0  0  0
 30 32  2  0  0  0  0
 30 52  1  0  0  0  0
 31 32  1  0  0  0  0
 31 53  1  0  0  0  0
 32 54  1  0  0  0  0
M  END
> <PUBCHEM_COMPOUND_CID>
500206
> <PUBCHEM_COMPOUND_CANONICALIZED>
1
> <PUBCHEM_CACTVS_COMPLEXITY>
636
> <PUBCHEM_CACTVS_HBOND_ACCEPTOR>
5
> <PUBCHEM_CACTVS_HBOND_DONOR>
1
> <PUBCHEM_CACTVS_ROTATABLE_BOND>
4
> <PUBCHEM_CACTVS_SUBSKEYS>
AAADceB4OAAAAAAAAAAAAAAAAAAAASAAAAA0YMGCAAAAAEjRVAAAGgAACAAADRSgmAIyBsAABgCAAiBCAAACCAAgIAAIiAAGCIgMJyKGMRqCeCClwBUIuAfA4PwO4QADCAAYAADCAAYQADAAAAAAAAAAAA==
> <PUBCHEM_IUPAC_OPENEYE_NAME>
18-benzyloxy-7-methoxy-4,12-dioxapentacyclo[11.8.0.02,11.05,10.014,19]henicosa-1(21),5(10),6,8,13,15,17,19-octaen-20-ol
> <PUBCHEM_IUPAC_CAS_NAME>
7-methoxy-18-phenylmethoxy-4,12-dioxapentacyclo[11.8.0.02,11.05,10.014,19]heneicosa-1(21),5(10),6,8,13,15,17,19-octaen-20-ol
> <PUBCHEM_IUPAC_NAME_MARKUP>
7-methoxy-18-phenylmethoxy-4,12-dioxapentacyclo[11.8.0.0<SUP>2,11</SUP>.0<SUP>5,10</SUP>.0<SUP>14,19</SUP>]henicosa-1(21),5(10),6,8,13,15,17,19-octaen-20-ol
> <PUBCHEM_IUPAC_NAME>
7-methoxy-18-phenylmethoxy-4,12-dioxapentacyclo[11.8.0.02,11.05,10.014,19]henicosa-1(21),5(10),6,8,13,15,17,19-octaen-20-ol
> <PUBCHEM_IUPAC_SYSTEMATIC_NAME>
7-methoxy-18-phenylmethoxy-4,12-dioxapentacyclo[11.8.0.02,11.05,10.014,19]henicosa-1(21),5(10),6,8,13,15,17,19-octaen-20-ol
> <PUBCHEM_IUPAC_TRADITIONAL_NAME>
18-benzoxy-7-methoxy-4,12-dioxapentacyclo[11.8.0.02,11.05,10.014,19]heneicosa-1(21),5(10),6,8,13,15,17,19-octaen-20-ol
> <PUBCHEM_IUPAC_INCHI>
InChI=1S/C27H22O5/c1-29-17-10-11-18-24(12-17)31-15-21-20-13-22(28)25-19(27(20)32-26(18)21)8-5-9-23(25)30-14-16-6-3-2-4-7-16/h2-13,21,26,28H,14-15H2,1H3
> <PUBCHEM_IUPAC_INCHIKEY>
CDMGHHODELPZTH-UHFFFAOYSA-N
> <PUBCHEM_XLOGP3_AA>
5.3
> <PUBCHEM_EXACT_MASS>
426.14672380
> <PUBCHEM_MOLECULAR_FORMULA>
C27H22O5
> <PUBCHEM_MOLECULAR_WEIGHT>
426.5
> <PUBCHEM_OPENEYE_CAN_SMILES>
COC1=CC2=C(C=C1)C3C(CO2)C4=CC(=C5C(=C4O3)C=CC=C5OCC6=CC=CC=C6)O
> <PUBCHEM_OPENEYE_ISO_SMILES>
COC1=CC2=C(C=C1)C3C(CO2)C4=CC(=C5C(=C4O3)C=CC=C5OCC6=CC=CC=C6)O
> <PUBCHEM_CACTVS_TPSA>
57.2
> <PUBCHEM_MONOISOTOPIC_WEIGHT>
426.14672380
> <PUBCHEM_TOTAL_CHARGE>
0
> <PUBCHEM_HEAVY_ATOM_COUNT>
32
> <PUBCHEM_ATOM_DEF_STEREO_COUNT>
0
> <PUBCHEM_ATOM_UDEF_STEREO_COUNT>
2
> <PUBCHEM_BOND_DEF_STEREO_COUNT>
0
> <PUBCHEM_BOND_UDEF_STEREO_COUNT>
0
> <PUBCHEM_ISOTOPIC_ATOM_COUNT>
0
> <PUBCHEM_COMPONENT_COUNT>
1
> <PUBCHEM_CACTVS_TAUTO_COUNT>
-1
> <PUBCHEM_COORDINATE_TYPE>
1
5
255
> <PUBCHEM_BONDANNOTATIONS>
7  1  3
10  13  8
11  12  8
11  17  8
12  18  8
13  15  8
13  19  8
14  16  8
15  16  8
15  20  8
17  21  8
18  22  8
19  23  8
20  24  8
21  22  8
23  24  8
26  28  8
26  29  8
28  30  8
29  31  8
30  32  8
31  32  8
6  9  3
8  10  8
8  14  8
$$$$
