500217
  -OEChem-10302200282D
 49 53  0     1  0  0  0  0  0999 V2000
    4.0843    0.7930    0.0000 O   0  0  0  0  0  0  0  0  0  0  0  0
    7.5566    0.7930    0.0000 O   0  0  0  0  0  0  0  0  0  0  0  0
    5.8204   -3.1694    0.0000 O   0  0  0  0  0  0  0  0  0  0  0  0
    5.8204   -0.1694    0.0000 C   0  0  0  0  0  0  0  0  0  0  0  0
    6.6865   -0.6694    0.0000 C   0  0  3  0  0  0  0  0  0  0  0  0
    4.9544   -0.6694    0.0000 C   0  0  3  0  0  0  0  0  0  0  0  0
    6.6865   -1.6694    0.0000 C   0  0  0  0  0  0  0  0  0  0  0  0
    4.9544   -1.6694    0.0000 C   0  0  0  0  0  0  0  0  0  0  0  0
    5.0114    0.4184    0.0000 C   0  0  0  0  0  0  0  0  0  0  0  0
    6.6295    0.4184    0.0000 C   0  0  0  0  0  0  0  0  0  0  0  0
    5.8204   -2.1694    0.0000 C   0  0  0  0  0  0  0  0  0  0  0  0
    7.6713   -0.8431    0.0000 C   0  0  0  0  0  0  0  0  0  0  0  0
    3.9696   -0.8431    0.0000 C   0  0  0  0  0  0  0  0  0  0  0  0
    5.3204    1.3694    0.0000 C   0  0  0  0  0  0  0  0  0  0  0  0
    6.3204    1.3694    0.0000 C   0  0  0  0  0  0  0  0  0  0  0  0
    8.3141   -0.0770    0.0000 C   0  0  0  0  0  0  0  0  0  0  0  0
    3.6275   -1.7827    0.0000 C   0  0  0  0  0  0  0  0  0  0  0  0
    8.0133   -1.7828    0.0000 C   0  0  0  0  0  0  0  0  0  0  0  0
    3.3268   -0.0770    0.0000 C   0  0  0  0  0  0  0  0  0  0  0  0
    4.7858    2.2634    0.0000 C   0  0  0  0  0  0  0  0  0  0  0  0
    6.8551    2.2634    0.0000 C   0  0  0  0  0  0  0  0  0  0  0  0
    5.2996    3.1694    0.0000 C   0  0  0  0  0  0  0  0  0  0  0  0
    6.3413    3.1694    0.0000 C   0  0  0  0  0  0  0  0  0  0  0  0
    9.2989   -0.2507    0.0000 C   0  0  0  0  0  0  0  0  0  0  0  0
    2.6428   -1.9564    0.0000 C   0  0  0  0  0  0  0  0  0  0  0  0
    8.9981   -1.9564    0.0000 C   0  0  0  0  0  0  0  0  0  0  0  0
    2.3420   -0.2507    0.0000 C   0  0  0  0  0  0  0  0  0  0  0  0
    9.6409   -1.1904    0.0000 C   0  0  0  0  0  0  0  0  0  0  0  0
    2.0000   -1.1904    0.0000 C   0  0  0  0  0  0  0  0  0  0  0  0
    7.0850   -1.1444    0.0000 H   0  0  0  0  0  0  0  0  0  0  0  0
    4.5559   -1.1444    0.0000 H   0  0  0  0  0  0  0  0  0  0  0  0
    6.8985   -2.2520    0.0000 H   0  0  0  0  0  0  0  0  0  0  0  0
    7.2970   -1.5618    0.0000 H   0  0  0  0  0  0  0  0  0  0  0  0
    4.3438   -1.5618    0.0000 H   0  0  0  0  0  0  0  0  0  0  0  0
    4.7424   -2.2520    0.0000 H   0  0  0  0  0  0  0  0  0  0  0  0
    8.1020    0.5056    0.0000 H   0  0  0  0  0  0  0  0  0  0  0  0
    4.0261   -2.2576    0.0000 H   0  0  0  0  0  0  0  0  0  0  0  0
    7.6148   -2.2577    0.0000 H   0  0  0  0  0  0  0  0  0  0  0  0
    3.5389    0.5056    0.0000 H   0  0  0  0  0  0  0  0  0  0  0  0
    4.1658    2.2562    0.0000 H   0  0  0  0  0  0  0  0  0  0  0  0
    7.4751    2.2562    0.0000 H   0  0  0  0  0  0  0  0  0  0  0  0
    4.9876    3.7052    0.0000 H   0  0  0  0  0  0  0  0  0  0  0  0
    6.6533    3.7052    0.0000 H   0  0  0  0  0  0  0  0  0  0  0  0
    9.6974    0.2243    0.0000 H   0  0  0  0  0  0  0  0  0  0  0  0
    2.4308   -2.5390    0.0000 H   0  0  0  0  0  0  0  0  0  0  0  0
    9.2102   -2.5390    0.0000 H   0  0  0  0  0  0  0  0  0  0  0  0
    1.9435    0.2243    0.0000 H   0  0  0  0  0  0  0  0  0  0  0  0
   10.2515   -1.2980    0.0000 H   0  0  0  0  0  0  0  0  0  0  0  0
    1.3894   -1.2980    0.0000 H   0  0  0  0  0  0  0  0  0  0  0  0
  1  9  2  0  0  0  0
  2 10  2  0  0  0  0
  3 11  2  0  0  0  0
  4  5  1  0  0  0  0
  4  6  1  0  0  0  0
  4  9  1  0  0  0  0
  4 10  1  0  0  0  0
  5  7  1  0  0  0  0
  5 12  1  0  0  0  0
  5 30  1  0  0  0  0
  6  8  1  0  0  0  0
  6 13  1  0  0  0  0
  6 31  1  0  0  0  0
  7 11  1  0  0  0  0
  7 32  1  0  0  0  0
  7 33  1  0  0  0  0
  8 11  1  0  0  0  0
  8 34  1  0  0  0  0
  8 35  1  0  0  0  0
  9 14  1  0  0  0  0
 10 15  1  0  0  0  0
 12 16  2  0  0  0  0
 12 18  1  0  0  0  0
 13 17  2  0  0  0  0
 13 19  1  0  0  0  0
 14 15  1  0  0  0  0
 14 20  2  0  0  0  0
 15 21  2  0  0  0  0
 16 24  1  0  0  0  0
 16 36  1  0  0  0  0
 17 25  1  0  0  0  0
 17 37  1  0  0  0  0
 18 26  2  0  0  0  0
 18 38  1  0  0  0  0
 19 27  2  0  0  0  0
 19 39  1  0  0  0  0
 20 22  1  0  0  0  0
 20 40  1  0  0  0  0
 21 23  1  0  0  0  0
 21 41  1  0  0  0  0
 22 23  2  0  0  0  0
 22 42  1  0  0  0  0
 23 43  1  0  0  0  0
 24 28  2  0  0  0  0
 24 44  1  0  0  0  0
 25 29  2  0  0  0  0
 25 45  1  0  0  0  0
 26 28  1  0  0  0  0
 26 46  1  0  0  0  0
 27 29  1  0  0  0  0
 27 47  1  0  0  0  0
 28 48  1  0  0  0  0
 29 49  1  0  0  0  0
M  END
> <PUBCHEM_COMPOUND_CID>
500217
> <PUBCHEM_COMPOUND_CANONICALIZED>
1
> <PUBCHEM_CACTVS_COMPLEXITY>
611
> <PUBCHEM_CACTVS_HBOND_ACCEPTOR>
3
> <PUBCHEM_CACTVS_HBOND_DONOR>
0
> <PUBCHEM_CACTVS_ROTATABLE_BOND>
2
> <PUBCHEM_CACTVS_SUBSKEYS>
AAADceB4MAAAAAAAAAAAAAAAAAAAAYAAAAAwYMGAAAAAAGABUAAAGgAAAAAADwSAmAAwAIAAAACIAqBSAAACAAAkAAAIiAEAAMgIIDKIFRCAIQAggAAIiYcJisCvgAAAAAAQAAAAAAQAACAAAQAACAAAAA==
> <PUBCHEM_IUPAC_OPENEYE_NAME>
3,5-diphenylspiro[cyclohexane-4,2'-indane]-1,1',3'-trione
> <PUBCHEM_IUPAC_CAS_NAME>
3,5-diphenylspiro[cyclohexane-4,2'-indene]-1,1',3'-trione
> <PUBCHEM_IUPAC_NAME_MARKUP>
3,5-diphenylspiro[cyclohexane-4,2&apos;-indene]-1,1&apos;,3&apos;-trione
> <PUBCHEM_IUPAC_NAME>
3,5-diphenylspiro[cyclohexane-4,2'-indene]-1,1',3'-trione
> <PUBCHEM_IUPAC_SYSTEMATIC_NAME>
3,5-diphenylspiro[cyclohexane-4,2'-indene]-1,1',3'-trione
> <PUBCHEM_IUPAC_TRADITIONAL_NAME>
3,5-diphenylspiro[cyclohexane-4,2'-indane]-1,1',3'-trione
> <PUBCHEM_IUPAC_INCHI>
InChI=1S/C26H20O3/c27-19-15-22(17-9-3-1-4-10-17)26(23(16-19)18-11-5-2-6-12-18)24(28)20-13-7-8-14-21(20)25(26)29/h1-14,22-23H,15-16H2
> <PUBCHEM_IUPAC_INCHIKEY>
JCRKSTFTQQLWFT-UHFFFAOYSA-N
> <PUBCHEM_XLOGP3_AA>
4.2
> <PUBCHEM_EXACT_MASS>
380.14124450
> <PUBCHEM_MOLECULAR_FORMULA>
C26H20O3
> <PUBCHEM_MOLECULAR_WEIGHT>
380.4
> <PUBCHEM_OPENEYE_CAN_SMILES>
C1C(C2(C(CC1=O)C3=CC=CC=C3)C(=O)C4=CC=CC=C4C2=O)C5=CC=CC=C5
> <PUBCHEM_OPENEYE_ISO_SMILES>
C1C(C2(C(CC1=O)C3=CC=CC=C3)C(=O)C4=CC=CC=C4C2=O)C5=CC=CC=C5
> <PUBCHEM_CACTVS_TPSA>
51.2
> <PUBCHEM_MONOISOTOPIC_WEIGHT>
380.14124450
> <PUBCHEM_TOTAL_CHARGE>
0
> <PUBCHEM_HEAVY_ATOM_COUNT>
29
> <PUBCHEM_ATOM_DEF_STEREO_COUNT>
0
> <PUBCHEM_ATOM_UDEF_STEREO_COUNT>
2
> <PUBCHEM_BOND_DEF_STEREO_COUNT>
0
> <PUBCHEM_BOND_UDEF_STEREO_COUNT>
0
> <PUBCHEM_ISOTOPIC_ATOM_COUNT>
0
> <PUBCHEM_COMPONENT_COUNT>
1
> <PUBCHEM_CACTVS_TAUTO_COUNT>
-1
> <PUBCHEM_COORDINATE_TYPE>
1
5
255
> <PUBCHEM_BONDANNOTATIONS>
12  16  8
12  18  8
13  17  8
13  19  8
14  15  8
14  20  8
15  21  8
16  24  8
17  25  8
18  26  8
19  27  8
20  22  8
21  23  8
22  23  8
24  28  8
25  29  8
26  28  8
27  29  8
5  12  3
6  13  3
$$$$
