500228
  -OEChem-10302200282D
 53 56  0     1  0  0  0  0  0999 V2000
    8.1424   -0.5298    0.0000 O   0  0  0  0  0  0  0  0  0  0  0  0
    7.7852    2.7745    0.0000 O   0  0  0  0  0  0  0  0  0  0  0  0
    4.5981   -0.7250    0.0000 O   0  0  0  0  0  0  0  0  0  0  0  0
    4.5981    1.2750    0.0000 O   0  0  0  0  0  0  0  0  0  0  0  0
   12.7260    0.2750    0.0000 O   0  0  0  0  0  0  0  0  0  0  0  0
    8.1424    1.0797    0.0000 C   0  0  3  0  0  0  0  0  0  0  0  0
    8.7260    0.2750    0.0000 C   0  0  3  0  0  0  0  0  0  0  0  0
    7.1962    0.7750    0.0000 C   0  0  0  0  0  0  0  0  0  0  0  0
    7.1962   -0.2250    0.0000 C   0  0  0  0  0  0  0  0  0  0  0  0
    8.4530    2.0302    0.0000 C   0  0  0  0  0  0  0  0  0  0  0  0
    9.7260    0.2750    0.0000 C   0  0  0  0  0  0  0  0  0  0  0  0
    6.3301    1.2750    0.0000 C   0  0  0  0  0  0  0  0  0  0  0  0
    6.3301   -0.7250    0.0000 C   0  0  0  0  0  0  0  0  0  0  0  0
    5.4641    0.7750    0.0000 C   0  0  0  0  0  0  0  0  0  0  0  0
    5.4641   -0.2250    0.0000 C   0  0  0  0  0  0  0  0  0  0  0  0
   10.2260   -0.5911    0.0000 C   0  0  0  0  0  0  0  0  0  0  0  0
   10.2260    1.1410    0.0000 C   0  0  0  0  0  0  0  0  0  0  0  0
   11.2260   -0.5911    0.0000 C   0  0  0  0  0  0  0  0  0  0  0  0
   11.2260    1.1410    0.0000 C   0  0  0  0  0  0  0  0  0  0  0  0
   11.7260    0.2750    0.0000 C   0  0  0  0  0  0  0  0  0  0  0  0
    8.0958    3.7250    0.0000 C   0  0  0  0  0  0  0  0  0  0  0  0
    4.5981   -1.7250    0.0000 C   0  0  0  0  0  0  0  0  0  0  0  0
    3.7320   -2.2250    0.0000 C   0  0  0  0  0  0  0  0  0  0  0  0
    3.7320   -3.2250    0.0000 C   0  0  0  0  0  0  0  0  0  0  0  0
    2.8660   -1.7250    0.0000 C   0  0  0  0  0  0  0  0  0  0  0  0
   13.2260   -0.5911    0.0000 C   0  0  0  0  0  0  0  0  0  0  0  0
    2.8660   -3.7250    0.0000 C   0  0  0  0  0  0  0  0  0  0  0  0
    2.0000   -2.2250    0.0000 C   0  0  0  0  0  0  0  0  0  0  0  0
    2.0000   -3.2250    0.0000 C   0  0  0  0  0  0  0  0  0  0  0  0
    7.7049    1.5190    0.0000 H   0  0  0  0  0  0  0  0  0  0  0  0
    9.0077   -0.2773    0.0000 H   0  0  0  0  0  0  0  0  0  0  0  0
    9.0000    1.7382    0.0000 H   0  0  0  0  0  0  0  0  0  0  0  0
    8.8356    2.5181    0.0000 H   0  0  0  0  0  0  0  0  0  0  0  0
    6.3301    1.8950    0.0000 H   0  0  0  0  0  0  0  0  0  0  0  0
    6.3301   -1.3450    0.0000 H   0  0  0  0  0  0  0  0  0  0  0  0
    9.9160   -1.1280    0.0000 H   0  0  0  0  0  0  0  0  0  0  0  0
    9.9160    1.6779    0.0000 H   0  0  0  0  0  0  0  0  0  0  0  0
   11.5360   -1.1280    0.0000 H   0  0  0  0  0  0  0  0  0  0  0  0
   11.5360    1.6779    0.0000 H   0  0  0  0  0  0  0  0  0  0  0  0
    8.6852    3.5324    0.0000 H   0  0  0  0  0  0  0  0  0  0  0  0
    8.2885    4.3144    0.0000 H   0  0  0  0  0  0  0  0  0  0  0  0
    7.5065    3.9176    0.0000 H   0  0  0  0  0  0  0  0  0  0  0  0
    4.5981    1.8950    0.0000 H   0  0  0  0  0  0  0  0  0  0  0  0
    4.8101   -2.3077    0.0000 H   0  0  0  0  0  0  0  0  0  0  0  0
    5.2087   -1.6174    0.0000 H   0  0  0  0  0  0  0  0  0  0  0  0
    4.2690   -3.5350    0.0000 H   0  0  0  0  0  0  0  0  0  0  0  0
    2.8660   -1.1050    0.0000 H   0  0  0  0  0  0  0  0  0  0  0  0
   12.6890   -0.9011    0.0000 H   0  0  0  0  0  0  0  0  0  0  0  0
   13.5360   -1.1280    0.0000 H   0  0  0  0  0  0  0  0  0  0  0  0
   13.7629   -0.2811    0.0000 H   0  0  0  0  0  0  0  0  0  0  0  0
    2.8660   -4.3450    0.0000 H   0  0  0  0  0  0  0  0  0  0  0  0
    1.4631   -1.9150    0.0000 H   0  0  0  0  0  0  0  0  0  0  0  0
    1.4631   -3.5350    0.0000 H   0  0  0  0  0  0  0  0  0  0  0  0
  1  7  1  0  0  0  0
  1  9  1  0  0  0  0
  2 10  1  0  0  0  0
  2 21  1  0  0  0  0
  3 15  1  0  0  0  0
  3 22  1  0  0  0  0
  4 14  1  0  0  0  0
  4 43  1  0  0  0  0
  5 20  1  0  0  0  0
  5 26  1  0  0  0  0
  6  7  1  0  0  0  0
  6  8  1  0  0  0  0
  6 10  1  0  0  0  0
  6 30  1  0  0  0  0
  7 11  1  0  0  0  0
  7 31  1  0  0  0  0
  8  9  1  0  0  0  0
  8 12  2  0  0  0  0
  9 13  2  0  0  0  0
 10 32  1  0  0  0  0
 10 33  1  0  0  0  0
 11 16  2  0  0  0  0
 11 17  1  0  0  0  0
 12 14  1  0  0  0  0
 12 34  1  0  0  0  0
 13 15  1  0  0  0  0
 13 35  1  0  0  0  0
 14 15  2  0  0  0  0
 16 18  1  0  0  0  0
 16 36  1  0  0  0  0
 17 19  2  0  0  0  0
 17 37  1  0  0  0  0
 18 20  2  0  0  0  0
 18 38  1  0  0  0  0
 19 20  1  0  0  0  0
 19 39  1  0  0  0  0
 21 40  1  0  0  0  0
 21 41  1  0  0  0  0
 21 42  1  0  0  0  0
 22 23  1  0  0  0  0
 22 44  1  0  0  0  0
 22 45  1  0  0  0  0
 23 24  2  0  0  0  0
 23 25  1  0  0  0  0
 24 27  1  0  0  0  0
 24 46  1  0  0  0  0
 25 28  2  0  0  0  0
 25 47  1  0  0  0  0
 26 48  1  0  0  0  0
 26 49  1  0  0  0  0
 26 50  1  0  0  0  0
 27 29  2  0  0  0  0
 27 51  1  0  0  0  0
 28 29  1  0  0  0  0
 28 52  1  0  0  0  0
 29 53  1  0  0  0  0
M  END
> <PUBCHEM_COMPOUND_CID>
500228
> <PUBCHEM_COMPOUND_CANONICALIZED>
1
> <PUBCHEM_CACTVS_COMPLEXITY>
486
> <PUBCHEM_CACTVS_HBOND_ACCEPTOR>
5
> <PUBCHEM_CACTVS_HBOND_DONOR>
1
> <PUBCHEM_CACTVS_ROTATABLE_BOND>
7
> <PUBCHEM_CACTVS_SUBSKEYS>
AAADceB4OAAAAAAAAAAAAAAAAAAAASAAAAAwYMAAAAAAAEgBUAAAGgAACAAADRSgmAIyBoAABgCAAiBCAAACCAAgIAAIiAAGiIgNJyKGMRqCeCOlwBULuAfA4PwOoQABCAAIQABCAAIQABCAAAAAAAAAAA==
> <PUBCHEM_IUPAC_OPENEYE_NAME>
6-benzyloxy-3-(methoxymethyl)-2-(4-methoxyphenyl)-2,3-dihydrobenzofuran-5-ol
> <PUBCHEM_IUPAC_CAS_NAME>
3-(methoxymethyl)-2-(4-methoxyphenyl)-6-phenylmethoxy-2,3-dihydrobenzofuran-5-ol
> <PUBCHEM_IUPAC_NAME_MARKUP>
3-(methoxymethyl)-2-(4-methoxyphenyl)-6-phenylmethoxy-2,3-dihydro-1-benzofuran-5-ol
> <PUBCHEM_IUPAC_NAME>
3-(methoxymethyl)-2-(4-methoxyphenyl)-6-phenylmethoxy-2,3-dihydro-1-benzofuran-5-ol
> <PUBCHEM_IUPAC_SYSTEMATIC_NAME>
3-(methoxymethyl)-2-(4-methoxyphenyl)-6-phenylmethoxy-2,3-dihydro-1-benzofuran-5-ol
> <PUBCHEM_IUPAC_TRADITIONAL_NAME>
6-benzoxy-3-(methoxymethyl)-2-(4-methoxyphenyl)coumaran-5-ol
> <PUBCHEM_IUPAC_INCHI>
InChI=1S/C24H24O5/c1-26-15-20-19-12-21(25)23(28-14-16-6-4-3-5-7-16)13-22(19)29-24(20)17-8-10-18(27-2)11-9-17/h3-13,20,24-25H,14-15H2,1-2H3
> <PUBCHEM_IUPAC_INCHIKEY>
ZUIHDAHVINYZFS-UHFFFAOYSA-N
> <PUBCHEM_XLOGP3_AA>
4.2
> <PUBCHEM_EXACT_MASS>
392.16237386
> <PUBCHEM_MOLECULAR_FORMULA>
C24H24O5
> <PUBCHEM_MOLECULAR_WEIGHT>
392.4
> <PUBCHEM_OPENEYE_CAN_SMILES>
COCC1C(OC2=CC(=C(C=C12)O)OCC3=CC=CC=C3)C4=CC=C(C=C4)OC
> <PUBCHEM_OPENEYE_ISO_SMILES>
COCC1C(OC2=CC(=C(C=C12)O)OCC3=CC=CC=C3)C4=CC=C(C=C4)OC
> <PUBCHEM_CACTVS_TPSA>
57.2
> <PUBCHEM_MONOISOTOPIC_WEIGHT>
392.16237386
> <PUBCHEM_TOTAL_CHARGE>
0
> <PUBCHEM_HEAVY_ATOM_COUNT>
29
> <PUBCHEM_ATOM_DEF_STEREO_COUNT>
0
> <PUBCHEM_ATOM_UDEF_STEREO_COUNT>
2
> <PUBCHEM_BOND_DEF_STEREO_COUNT>
0
> <PUBCHEM_BOND_UDEF_STEREO_COUNT>
0
> <PUBCHEM_ISOTOPIC_ATOM_COUNT>
0
> <PUBCHEM_COMPONENT_COUNT>
1
> <PUBCHEM_CACTVS_TAUTO_COUNT>
-1
> <PUBCHEM_COORDINATE_TYPE>
1
5
255
> <PUBCHEM_BONDANNOTATIONS>
11  16  8
11  17  8
12  14  8
13  15  8
14  15  8
16  18  8
17  19  8
18  20  8
19  20  8
23  24  8
23  25  8
24  27  8
25  28  8
27  29  8
28  29  8
6  10  3
7  11  3
8  12  8
8  9  8
9  13  8
$$$$
