500240
  -OEChem-10302200282D
 33 33  0     1  0  0  0  0  0999 V2000
    4.2690   -0.6550    0.0000 O   0  0  0  0  0  0  0  0  0  0  0  0
    4.2690    3.3450    0.0000 O   0  0  0  0  0  0  0  0  0  0  0  0
    6.0010    2.3450    0.0000 O   0  0  0  0  0  0  0  0  0  0  0  0
    2.5369    2.3450    0.0000 O   0  0  0  0  0  0  0  0  0  0  0  0
    4.2690    0.3450    0.0000 N   0  0  0  0  0  0  0  0  0  0  0  0
    4.2690    2.3450    0.0000 C   0  0  0  0  0  0  0  0  0  0  0  0
    5.1350    1.8450    0.0000 C   0  0  3  0  0  0  0  0  0  0  0  0
    3.4030    1.8450    0.0000 C   0  0  3  0  0  0  0  0  0  0  0  0
    5.1350    0.8450    0.0000 C   0  0  0  0  0  0  0  0  0  0  0  0
    3.4030    0.8450    0.0000 C   0  0  0  0  0  0  0  0  0  0  0  0
    3.4030   -1.1550    0.0000 C   0  0  0  0  0  0  0  0  0  0  0  0
    3.4030   -2.1550    0.0000 C   0  0  0  0  0  0  0  0  0  0  0  0
    2.5369   -2.6550    0.0000 C   0  0  0  0  0  0  0  0  0  0  0  0
    2.5369   -3.6550    0.0000 C   0  0  0  0  0  0  0  0  0  0  0  0
    4.8059    2.6550    0.0000 H   0  0  0  0  0  0  0  0  0  0  0  0
    5.6720    1.5350    0.0000 H   0  0  0  0  0  0  0  0  0  0  0  0
    3.4030    2.4650    0.0000 H   0  0  0  0  0  0  0  0  0  0  0  0
    5.3471    0.2624    0.0000 H   0  0  0  0  0  0  0  0  0  0  0  0
    5.7456    0.9527    0.0000 H   0  0  0  0  0  0  0  0  0  0  0  0
    2.7924    0.9527    0.0000 H   0  0  0  0  0  0  0  0  0  0  0  0
    3.1909    0.2624    0.0000 H   0  0  0  0  0  0  0  0  0  0  0  0
    3.1909   -0.5724    0.0000 H   0  0  0  0  0  0  0  0  0  0  0  0
    2.7924   -1.2627    0.0000 H   0  0  0  0  0  0  0  0  0  0  0  0
    4.8059    3.6550    0.0000 H   0  0  0  0  0  0  0  0  0  0  0  0
    6.5380    2.0350    0.0000 H   0  0  0  0  0  0  0  0  0  0  0  0
    2.0000    2.0350    0.0000 H   0  0  0  0  0  0  0  0  0  0  0  0
    3.6150   -2.7376    0.0000 H   0  0  0  0  0  0  0  0  0  0  0  0
    4.0135   -2.0473    0.0000 H   0  0  0  0  0  0  0  0  0  0  0  0
    2.3249   -2.0724    0.0000 H   0  0  0  0  0  0  0  0  0  0  0  0
    1.9264   -2.7627    0.0000 H   0  0  0  0  0  0  0  0  0  0  0  0
    1.9169   -3.6550    0.0000 H   0  0  0  0  0  0  0  0  0  0  0  0
    2.5369   -4.2750    0.0000 H   0  0  0  0  0  0  0  0  0  0  0  0
    3.1569   -3.6550    0.0000 H   0  0  0  0  0  0  0  0  0  0  0  0
  1  5  1  0  0  0  0
  1 11  1  0  0  0  0
  2  6  1  0  0  0  0
  2 24  1  0  0  0  0
  3  7  1  0  0  0  0
  3 25  1  0  0  0  0
  4  8  1  0  0  0  0
  4 26  1  0  0  0  0
  5  9  1  0  0  0  0
  5 10  1  0  0  0  0
  6  7  1  0  0  0  0
  6  8  1  0  0  0  0
  6 15  1  0  0  0  0
  7  9  1  0  0  0  0
  7 16  1  0  0  0  0
  8 10  1  0  0  0  0
  8 17  1  0  0  0  0
  9 18  1  0  0  0  0
  9 19  1  0  0  0  0
 10 20  1  0  0  0  0
 10 21  1  0  0  0  0
 11 12  1  0  0  0  0
 11 22  1  0  0  0  0
 11 23  1  0  0  0  0
 12 13  1  0  0  0  0
 12 27  1  0  0  0  0
 12 28  1  0  0  0  0
 13 14  1  0  0  0  0
 13 29  1  0  0  0  0
 13 30  1  0  0  0  0
 14 31  1  0  0  0  0
 14 32  1  0  0  0  0
 14 33  1  0  0  0  0
M  END
> <PUBCHEM_COMPOUND_CID>
500240
> <PUBCHEM_COMPOUND_CANONICALIZED>
1
> <PUBCHEM_CACTVS_COMPLEXITY>
155
> <PUBCHEM_CACTVS_HBOND_ACCEPTOR>
5
> <PUBCHEM_CACTVS_HBOND_DONOR>
3
> <PUBCHEM_CACTVS_ROTATABLE_BOND>
4
> <PUBCHEM_CACTVS_SUBSKEYS>
AAADceByOAAAAAAAAAAAAAAAAAAAAAAAAAAsAAAAAAAAAAAAAAAAHgAECAAACBThgAYCAAIQAgAAAAAAAAAAAAAAAAAgAAAIAAADEAIAgAAEQAAHAACRAAAwAAAAAAAAAAAAAAAAAAAAAAAAAAAAAAAAAA==
> <PUBCHEM_IUPAC_OPENEYE_NAME>
1-butoxypiperidine-3,4,5-triol
> <PUBCHEM_IUPAC_CAS_NAME>
1-butoxypiperidine-3,4,5-triol
> <PUBCHEM_IUPAC_NAME_MARKUP>
1-butoxypiperidine-3,4,5-triol
> <PUBCHEM_IUPAC_NAME>
1-butoxypiperidine-3,4,5-triol
> <PUBCHEM_IUPAC_SYSTEMATIC_NAME>
1-butoxypiperidine-3,4,5-triol
> <PUBCHEM_IUPAC_TRADITIONAL_NAME>
1-butoxypiperidine-3,4,5-triol
> <PUBCHEM_IUPAC_INCHI>
InChI=1S/C9H19NO4/c1-2-3-4-14-10-5-7(11)9(13)8(12)6-10/h7-9,11-13H,2-6H2,1H3
> <PUBCHEM_IUPAC_INCHIKEY>
NPBMWMGSLPABCK-UHFFFAOYSA-N
> <PUBCHEM_XLOGP3_AA>
-0.5
> <PUBCHEM_EXACT_MASS>
205.13140809
> <PUBCHEM_MOLECULAR_FORMULA>
C9H19NO4
> <PUBCHEM_MOLECULAR_WEIGHT>
205.25
> <PUBCHEM_OPENEYE_CAN_SMILES>
CCCCON1CC(C(C(C1)O)O)O
> <PUBCHEM_OPENEYE_ISO_SMILES>
CCCCON1CC(C(C(C1)O)O)O
> <PUBCHEM_CACTVS_TPSA>
73.2
> <PUBCHEM_MONOISOTOPIC_WEIGHT>
205.13140809
> <PUBCHEM_TOTAL_CHARGE>
0
> <PUBCHEM_HEAVY_ATOM_COUNT>
14
> <PUBCHEM_ATOM_DEF_STEREO_COUNT>
0
> <PUBCHEM_ATOM_UDEF_STEREO_COUNT>
2
> <PUBCHEM_BOND_DEF_STEREO_COUNT>
0
> <PUBCHEM_BOND_UDEF_STEREO_COUNT>
0
> <PUBCHEM_ISOTOPIC_ATOM_COUNT>
0
> <PUBCHEM_COMPONENT_COUNT>
1
> <PUBCHEM_CACTVS_TAUTO_COUNT>
-1
> <PUBCHEM_COORDINATE_TYPE>
1
5
255
> <PUBCHEM_BONDANNOTATIONS>
7  3  3
8  4  3
$$$$
