500269
  -OEChem-10302200282D
 97101  0     1  0  0  0  0  0999 V2000
   11.2957    4.6679    0.0000 O   0  0  0  0  0  0  0  0  0  0  0  0
   12.3739    3.6539    0.0000 O   0  0  0  0  0  0  0  0  0  0  0  0
    9.5407   -0.2530    0.0000 O   0  0  0  0  0  0  0  0  0  0  0  0
   13.4321    1.5062    0.0000 O   0  0  0  0  0  0  0  0  0  0  0  0
    6.8671   -1.8984    0.0000 O   0  0  0  0  0  0  0  0  0  0  0  0
    5.0597   -0.8456    0.0000 O   0  0  0  0  0  0  0  0  0  0  0  0
   16.1377    4.4524    0.0000 O   0  0  0  0  0  0  0  0  0  0  0  0
    5.1350   -1.8984    0.0000 O   0  0  0  0  0  0  0  0  0  0  0  0
    6.8671   -3.8984    0.0000 O   0  0  0  0  0  0  0  0  0  0  0  0
    5.1350   -4.8984    0.0000 O   0  0  0  0  0  0  0  0  0  0  0  0
    3.4030   -3.8984    0.0000 O   0  0  0  0  0  0  0  0  0  0  0  0
    2.5369   -2.3984    0.0000 O   0  0  0  0  0  0  0  0  0  0  0  0
    9.5754    2.7468    0.0000 C   0  0  3  0  0  0  0  0  0  0  0  0
   10.4356    2.2368    0.0000 C   0  0  3  0  0  0  0  0  0  0  0  0
   11.1803    2.8953    0.0000 C   0  0  3  0  0  0  0  0  0  0  0  0
    8.7037    2.2568    0.0000 C   0  0  3  0  0  0  0  0  0  0  0  0
    9.7959    3.7161    0.0000 C   0  0  0  0  0  0  0  0  0  0  0  0
   10.7857    3.8077    0.0000 C   0  0  3  0  0  0  0  0  0  0  0  0
    8.6921    1.2569    0.0000 C   0  0  3  0  0  0  0  0  0  0  0  0
   10.4241    1.2369    0.0000 C   0  0  0  0  0  0  0  0  0  0  0  0
   12.1564    2.6778    0.0000 C   0  0  3  0  0  0  0  0  0  0  0  0
    8.7152    3.2568    0.0000 C   0  0  0  0  0  0  0  0  0  0  0  0
   11.2958    1.7268    0.0000 C   0  0  0  0  0  0  0  0  0  0  0  0
    9.5523    0.7469    0.0000 C   0  0  0  0  0  0  0  0  0  0  0  0
    7.8160    2.8018    0.0000 C   0  0  0  0  0  0  0  0  0  0  0  0
    7.7920    0.7326    0.0000 C   0  0  0  0  0  0  0  0  0  0  0  0
    8.6806    0.2570    0.0000 C   0  0  0  0  0  0  0  0  0  0  0  0
   11.9388    1.7018    0.0000 C   0  0  0  0  0  0  0  0  0  0  0  0
   13.1324    2.4603    0.0000 C   0  0  0  0  0  0  0  0  0  0  0  0
    6.8920    1.2569    0.0000 C   0  0  0  0  0  0  0  0  0  0  0  0
    6.9040    2.2985    0.0000 C   0  0  0  0  0  0  0  0  0  0  0  0
    7.8046   -0.3523    0.0000 C   0  0  0  0  0  0  0  0  0  0  0  0
   13.8088    3.1968    0.0000 C   0  0  0  0  0  0  0  0  0  0  0  0
    5.9421    0.7326    0.0000 C   0  0  0  0  0  0  0  0  0  0  0  0
    6.8671   -0.8984    0.0000 C   0  0  0  0  0  0  0  0  0  0  0  0
    5.9295   -0.3523    0.0000 C   0  0  0  0  0  0  0  0  0  0  0  0
   14.7849    2.9793    0.0000 C   0  0  0  0  0  0  0  0  0  0  0  0
    5.0839    1.2459    0.0000 C   0  0  0  0  0  0  0  0  0  0  0  0
   15.4613    3.7158    0.0000 C   0  0  0  0  0  0  0  0  0  0  0  0
    6.0010   -2.3984    0.0000 C   0  0  3  0  0  0  0  0  0  0  0  0
   16.1978    3.0394    0.0000 C   0  0  0  0  0  0  0  0  0  0  0  0
   14.7247    4.3922    0.0000 C   0  0  0  0  0  0  0  0  0  0  0  0
    6.0010   -3.3984    0.0000 C   0  0  3  0  0  0  0  0  0  0  0  0
    5.1350   -3.8984    0.0000 C   0  0  3  0  0  0  0  0  0  0  0  0
    4.2690   -2.3984    0.0000 C   0  0  3  0  0  0  0  0  0  0  0  0
    4.2690   -3.3984    0.0000 C   0  0  3  0  0  0  0  0  0  0  0  0
    3.4030   -1.8984    0.0000 C   0  0  0  0  0  0  0  0  0  0  0  0
   11.5754    3.3731    0.0000 H   0  0  0  0  0  0  0  0  0  0  0  0
    9.2370    1.9407    0.0000 H   0  0  0  0  0  0  0  0  0  0  0  0
    9.8039    4.3361    0.0000 H   0  0  0  0  0  0  0  0  0  0  0  0
    9.1802    3.7893    0.0000 H   0  0  0  0  0  0  0  0  0  0  0  0
   10.4543    4.3317    0.0000 H   0  0  0  0  0  0  0  0  0  0  0  0
   10.6294    0.6519    0.0000 H   0  0  0  0  0  0  0  0  0  0  0  0
   11.0358    1.3375    0.0000 H   0  0  0  0  0  0  0  0  0  0  0  0
    9.0314    3.7901    0.0000 H   0  0  0  0  0  0  0  0  0  0  0  0
    8.1819    3.5730    0.0000 H   0  0  0  0  0  0  0  0  0  0  0  0
    8.3991    2.7235    0.0000 H   0  0  0  0  0  0  0  0  0  0  0  0
   10.9796    1.1935    0.0000 H   0  0  0  0  0  0  0  0  0  0  0  0
   11.8291    1.4106    0.0000 H   0  0  0  0  0  0  0  0  0  0  0  0
   11.6120    2.2602    0.0000 H   0  0  0  0  0  0  0  0  0  0  0  0
    7.8303    3.4216    0.0000 H   0  0  0  0  0  0  0  0  0  0  0  0
    8.0606    0.2641    0.0000 H   0  0  0  0  0  0  0  0  0  0  0  0
    8.6734   -0.3630    0.0000 H   0  0  0  0  0  0  0  0  0  0  0  0
    9.3005    0.2498    0.0000 H   0  0  0  0  0  0  0  0  0  0  0  0
   10.9919    5.2084    0.0000 H   0  0  0  0  0  0  0  0  0  0  0  0
   11.3337    1.8366    0.0000 H   0  0  0  0  0  0  0  0  0  0  0  0
   11.8040    1.0966    0.0000 H   0  0  0  0  0  0  0  0  0  0  0  0
   12.5440    1.5669    0.0000 H   0  0  0  0  0  0  0  0  0  0  0  0
    6.3719    2.6167    0.0000 H   0  0  0  0  0  0  0  0  0  0  0  0
   12.9654    3.8396    0.0000 H   0  0  0  0  0  0  0  0  0  0  0  0
    8.3439   -0.6582    0.0000 H   0  0  0  0  0  0  0  0  0  0  0  0
   14.0467    3.7694    0.0000 H   0  0  0  0  0  0  0  0  0  0  0  0
   13.2863    3.5305    0.0000 H   0  0  0  0  0  0  0  0  0  0  0  0
   14.5470    2.4068    0.0000 H   0  0  0  0  0  0  0  0  0  0  0  0
   15.3074    2.6456    0.0000 H   0  0  0  0  0  0  0  0  0  0  0  0
    5.4021    1.7780    0.0000 H   0  0  0  0  0  0  0  0  0  0  0  0
    4.5518    1.5642    0.0000 H   0  0  0  0  0  0  0  0  0  0  0  0
    4.7656    0.7138    0.0000 H   0  0  0  0  0  0  0  0  0  0  0  0
    4.5251   -0.5315    0.0000 H   0  0  0  0  0  0  0  0  0  0  0  0
    6.0010   -1.7784    0.0000 H   0  0  0  0  0  0  0  0  0  0  0  0
   15.7784    2.5828    0.0000 H   0  0  0  0  0  0  0  0  0  0  0  0
   16.6545    2.6201    0.0000 H   0  0  0  0  0  0  0  0  0  0  0  0
   16.6172    3.4961    0.0000 H   0  0  0  0  0  0  0  0  0  0  0  0
   15.1441    4.8489    0.0000 H   0  0  0  0  0  0  0  0  0  0  0  0
   14.2681    4.8116    0.0000 H   0  0  0  0  0  0  0  0  0  0  0  0
   14.3054    3.9356    0.0000 H   0  0  0  0  0  0  0  0  0  0  0  0
   16.7428    4.3175    0.0000 H   0  0  0  0  0  0  0  0  0  0  0  0
    6.0010   -4.0184    0.0000 H   0  0  0  0  0  0  0  0  0  0  0  0
    4.5981   -4.2084    0.0000 H   0  0  0  0  0  0  0  0  0  0  0  0
    4.2690   -1.7784    0.0000 H   0  0  0  0  0  0  0  0  0  0  0  0
    4.2690   -4.0184    0.0000 H   0  0  0  0  0  0  0  0  0  0  0  0
    6.8671   -4.5184    0.0000 H   0  0  0  0  0  0  0  0  0  0  0  0
    3.8015   -1.4235    0.0000 H   0  0  0  0  0  0  0  0  0  0  0  0
    3.0044   -1.4235    0.0000 H   0  0  0  0  0  0  0  0  0  0  0  0
    4.5981   -5.2084    0.0000 H   0  0  0  0  0  0  0  0  0  0  0  0
    3.4030   -4.5184    0.0000 H   0  0  0  0  0  0  0  0  0  0  0  0
    2.0000   -2.0884    0.0000 H   0  0  0  0  0  0  0  0  0  0  0  0
  1 18  1  0  0  0  0
  1 65  1  0  0  0  0
  2 21  1  0  0  0  0
  2 70  1  0  0  0  0
  3 24  2  0  0  0  0
  4 29  2  0  0  0  0
  5 35  1  0  0  0  0
  5 40  1  0  0  0  0
  6 36  1  0  0  0  0
  6 79  1  0  0  0  0
  7 39  1  0  0  0  0
  7 87  1  0  0  0  0
  8 40  1  0  0  0  0
  8 45  1  0  0  0  0
  9 43  1  0  0  0  0
  9 92  1  0  0  0  0
 10 44  1  0  0  0  0
 10 95  1  0  0  0  0
 11 46  1  0  0  0  0
 11 96  1  0  0  0  0
 12 47  1  0  0  0  0
 12 97  1  0  0  0  0
 13 14  1  0  0  0  0
 13 16  1  0  0  0  0
 13 17  1  0  0  0  0
 13 22  1  0  0  0  0
 14 15  1  0  0  0  0
 14 20  1  0  0  0  0
 14 23  1  0  0  0  0
 15 18  1  0  0  0  0
 15 21  1  0  0  0  0
 15 48  1  0  0  0  0
 16 19  1  0  0  0  0
 16 25  1  0  0  0  0
 16 49  1  0  0  0  0
 17 18  1  0  0  0  0
 17 50  1  0  0  0  0
 17 51  1  0  0  0  0
 18 52  1  0  0  0  0
 19 24  1  0  0  0  0
 19 26  1  0  0  0  0
 19 27  1  0  0  0  0
 20 24  1  0  0  0  0
 20 53  1  0  0  0  0
 20 54  1  0  0  0  0
 21 28  1  0  0  0  0
 21 29  1  0  0  0  0
 22 55  1  0  0  0  0
 22 56  1  0  0  0  0
 22 57  1  0  0  0  0
 23 58  1  0  0  0  0
 23 59  1  0  0  0  0
 23 60  1  0  0  0  0
 25 31  2  0  0  0  0
 25 61  1  0  0  0  0
 26 30  1  0  0  0  0
 26 32  2  0  0  0  0
 27 62  1  0  0  0  0
 27 63  1  0  0  0  0
 27 64  1  0  0  0  0
 28 66  1  0  0  0  0
 28 67  1  0  0  0  0
 28 68  1  0  0  0  0
 29 33  1  0  0  0  0
 30 31  1  0  0  0  0
 30 34  2  0  0  0  0
 31 69  1  0  0  0  0
 32 35  1  0  0  0  0
 32 71  1  0  0  0  0
 33 37  1  0  0  0  0
 33 72  1  0  0  0  0
 33 73  1  0  0  0  0
 34 36  1  0  0  0  0
 34 38  1  0  0  0  0
 35 36  2  0  0  0  0
 37 39  1  0  0  0  0
 37 74  1  0  0  0  0
 37 75  1  0  0  0  0
 38 76  1  0  0  0  0
 38 77  1  0  0  0  0
 38 78  1  0  0  0  0
 39 41  1  0  0  0  0
 39 42  1  0  0  0  0
 40 43  1  0  0  0  0
 40 80  1  0  0  0  0
 41 81  1  0  0  0  0
 41 82  1  0  0  0  0
 41 83  1  0  0  0  0
 42 84  1  0  0  0  0
 42 85  1  0  0  0  0
 42 86  1  0  0  0  0
 43 44  1  0  0  0  0
 43 88  1  0  0  0  0
 44 46  1  0  0  0  0
 44 89  1  0  0  0  0
 45 46  1  0  0  0  0
 45 47  1  0  0  0  0
 45 90  1  0  0  0  0
 46 91  1  0  0  0  0
 47 93  1  0  0  0  0
 47 94  1  0  0  0  0
M  END
> <PUBCHEM_COMPOUND_CID>
500269
> <PUBCHEM_COMPOUND_CANONICALIZED>
1
> <PUBCHEM_CACTVS_COMPLEXITY>
1250
> <PUBCHEM_CACTVS_HBOND_ACCEPTOR>
12
> <PUBCHEM_CACTVS_HBOND_DONOR>
8
> <PUBCHEM_CACTVS_ROTATABLE_BOND>
8
> <PUBCHEM_CACTVS_SUBSKEYS>
AAADcfB8PAAAAAAAAAAAAAAAAAAAAYAAAAA0YIEAAAAAAGCBAAAAGgAACAAAD1SwmAMyDoAABgCIAqBSAAICCAAgIAAIiAFGiIgdNjKGNRqieCOlwBEPuAfK7PzPoAADAAAYQADAAAYAADCAAYAADAAAAA==
> <PUBCHEM_IUPAC_OPENEYE_NAME>
17-(1,5-dihydroxy-1,5-dimethyl-2-oxo-hexyl)-3,16-dihydroxy-4,9,13,14-tetramethyl-2-[3,4,5-trihydroxy-6-(hydroxymethyl)tetrahydropyran-2-yl]oxy-12,15,16,17-tetrahydro-8H-cyclopenta[a]phenanthren-11-one
> <PUBCHEM_IUPAC_CAS_NAME>
17-(2,6-dihydroxy-6-methyl-3-oxoheptan-2-yl)-3,16-dihydroxy-4,9,13,14-tetramethyl-2-[[3,4,5-trihydroxy-6-(hydroxymethyl)-2-oxanyl]oxy]-12,15,16,17-tetrahydro-8H-cyclopenta[a]phenanthren-11-one
> <PUBCHEM_IUPAC_NAME_MARKUP>
17-(2,6-dihydroxy-6-methyl-3-oxoheptan-2-yl)-3,16-dihydroxy-4,9,13,14-tetramethyl-2-[3,4,5-trihydroxy-6-(hydroxymethyl)oxan-2-yl]oxy-12,15,16,17-tetrahydro-8<I>H</I>-cyclopenta[a]phenanthren-11-one
> <PUBCHEM_IUPAC_NAME>
17-(2,6-dihydroxy-6-methyl-3-oxoheptan-2-yl)-3,16-dihydroxy-4,9,13,14-tetramethyl-2-[3,4,5-trihydroxy-6-(hydroxymethyl)oxan-2-yl]oxy-12,15,16,17-tetrahydro-8H-cyclopenta[a]phenanthren-11-one
> <PUBCHEM_IUPAC_SYSTEMATIC_NAME>
2-[6-(hydroxymethyl)-3,4,5-tris(oxidanyl)oxan-2-yl]oxy-4,9,13,14-tetramethyl-17-[6-methyl-2,6-bis(oxidanyl)-3-oxidanylidene-heptan-2-yl]-3,16-bis(oxidanyl)-12,15,16,17-tetrahydro-8H-cyclopenta[a]phenanthren-11-one
> <PUBCHEM_IUPAC_TRADITIONAL_NAME>
17-(1,5-dihydroxy-2-keto-1,5-dimethyl-hexyl)-3,16-dihydroxy-4,9,13,14-tetramethyl-2-(3,4,5-trihydroxy-6-methylol-tetrahydropyran-2-yl)oxy-12,15,16,17-tetrahydro-8H-cyclopenta[a]phenanthren-11-one
> <PUBCHEM_IUPAC_INCHI>
InChI=1S/C35H50O12/c1-16-17-8-9-22-32(4)13-19(37)29(35(7,45)23(38)10-11-31(2,3)44)33(32,5)14-24(39)34(22,6)18(17)12-20(25(16)40)46-30-28(43)27(42)26(41)21(15-36)47-30/h8-9,12,19,21-22,26-30,36-37,40-45H,10-11,13-15H2,1-7H3
> <PUBCHEM_IUPAC_INCHIKEY>
JARDNXVRGXYQOK-UHFFFAOYSA-N
> <PUBCHEM_XLOGP3_AA>
1.3
> <PUBCHEM_EXACT_MASS>
662.33022703
> <PUBCHEM_MOLECULAR_FORMULA>
C35H50O12
> <PUBCHEM_MOLECULAR_WEIGHT>
662.8
> <PUBCHEM_OPENEYE_CAN_SMILES>
CC1=C2C=CC3C4(CC(C(C4(CC(=O)C3(C2=CC(=C1O)OC5C(C(C(C(O5)CO)O)O)O)C)C)C(C)(C(=O)CCC(C)(C)O)O)O)C
> <PUBCHEM_OPENEYE_ISO_SMILES>
CC1=C2C=CC3C4(CC(C(C4(CC(=O)C3(C2=CC(=C1O)OC5C(C(C(C(O5)CO)O)O)O)C)C)C(C)(C(=O)CCC(C)(C)O)O)O)C
> <PUBCHEM_CACTVS_TPSA>
214
> <PUBCHEM_MONOISOTOPIC_WEIGHT>
662.33022703
> <PUBCHEM_TOTAL_CHARGE>
0
> <PUBCHEM_HEAVY_ATOM_COUNT>
47
> <PUBCHEM_ATOM_DEF_STEREO_COUNT>
0
> <PUBCHEM_ATOM_UDEF_STEREO_COUNT>
12
> <PUBCHEM_BOND_DEF_STEREO_COUNT>
0
> <PUBCHEM_BOND_UDEF_STEREO_COUNT>
0
> <PUBCHEM_ISOTOPIC_ATOM_COUNT>
0
> <PUBCHEM_COMPONENT_COUNT>
1
> <PUBCHEM_CACTVS_TAUTO_COUNT>
-1
> <PUBCHEM_COORDINATE_TYPE>
1
5
255
> <PUBCHEM_BONDANNOTATIONS>
18  1  3
44  10  3
46  11  3
13  22  3
14  23  3
15  21  3
16  25  3
19  27  3
21  2  3
26  30  8
26  32  8
30  34  8
32  35  8
34  36  8
35  36  8
45  47  3
40  5  3
43  9  3
$$$$
