500257
  -OEChem-10302200282D
 62 68  0     1  0  0  0  0  0999 V2000
    7.4494   -1.3909    0.0000 O   0  0  0  0  0  0  0  0  0  0  0  0
    7.4174    2.2005    0.0000 O   0  0  0  0  0  0  0  0  0  0  0  0
    5.6622   -0.5952    0.0000 C   0  0  3  0  0  0  0  0  0  0  0  0
    6.1622    0.9436    0.0000 C   0  0  3  0  0  0  0  0  0  0  0  0
    6.4712   -0.0075    0.0000 C   0  0  3  0  0  0  0  0  0  0  0  0
    4.8532   -0.0075    0.0000 C   0  0  3  0  0  0  0  0  0  0  0  0
    5.1622    0.9436    0.0000 C   0  0  3  0  0  0  0  0  0  0  0  0
    6.4712   -1.1830    0.0000 C   0  0  3  0  0  0  0  0  0  0  0  0
    4.8532   -1.1830    0.0000 C   0  0  0  0  0  0  0  0  0  0  0  0
    6.4669    1.8898    0.0000 C   0  0  3  0  0  0  0  0  0  0  0  0
    4.8574    1.8898    0.0000 C   0  0  0  0  0  0  0  0  0  0  0  0
    5.6622    2.4734    0.0000 C   0  0  0  0  0  0  0  0  0  0  0  0
    7.4494    0.2004    0.0000 C   0  0  0  0  0  0  0  0  0  0  0  0
    3.9021   -0.3165    0.0000 C   0  0  0  0  0  0  0  0  0  0  0  0
    6.1622   -2.1341    0.0000 C   0  0  0  0  0  0  0  0  0  0  0  0
    5.1622   -2.1341    0.0000 C   0  0  0  0  0  0  0  0  0  0  0  0
    3.9055    2.2972    0.0000 C   0  0  0  0  0  0  0  0  0  0  0  0
    5.5707    3.5048    0.0000 C   0  0  0  0  0  0  0  0  0  0  0  0
    6.6968   -3.0280    0.0000 C   0  0  0  0  0  0  0  0  0  0  0  0
    4.6275   -3.0280    0.0000 C   0  0  0  0  0  0  0  0  0  0  0  0
    8.1185   -0.5427    0.0000 C   0  0  0  0  0  0  0  0  0  0  0  0
    7.7584    1.1515    0.0000 C   0  0  0  0  0  0  0  0  0  0  0  0
    3.1590    0.3527    0.0000 C   0  0  0  0  0  0  0  0  0  0  0  0
    3.6942   -1.2946    0.0000 C   0  0  0  0  0  0  0  0  0  0  0  0
    3.7902    3.3262    0.0000 C   0  0  0  0  0  0  0  0  0  0  0  0
    4.6284    3.9341    0.0000 C   0  0  0  0  0  0  0  0  0  0  0  0
    6.1830   -3.9341    0.0000 C   0  0  0  0  0  0  0  0  0  0  0  0
    5.1414   -3.9341    0.0000 C   0  0  0  0  0  0  0  0  0  0  0  0
    9.0966   -0.3348    0.0000 C   0  0  0  0  0  0  0  0  0  0  0  0
    8.7365    1.3594    0.0000 C   0  0  0  0  0  0  0  0  0  0  0  0
    2.2079    0.0436    0.0000 C   0  0  0  0  0  0  0  0  0  0  0  0
    2.7431   -1.6036    0.0000 C   0  0  0  0  0  0  0  0  0  0  0  0
    9.4056    0.6163    0.0000 C   0  0  0  0  0  0  0  0  0  0  0  0
    2.0000   -0.9345    0.0000 C   0  0  0  0  0  0  0  0  0  0  0  0
    6.7822    0.9444    0.0000 H   0  0  0  0  0  0  0  0  0  0  0  0
    6.7234   -0.5739    0.0000 H   0  0  0  0  0  0  0  0  0  0  0  0
    4.4148    0.4309    0.0000 H   0  0  0  0  0  0  0  0  0  0  0  0
    4.5422    0.9444    0.0000 H   0  0  0  0  0  0  0  0  0  0  0  0
    6.7234   -0.6166    0.0000 H   0  0  0  0  0  0  0  0  0  0  0  0
    4.5432   -0.6461    0.0000 H   0  0  0  0  0  0  0  0  0  0  0  0
    4.2868   -1.4352    0.0000 H   0  0  0  0  0  0  0  0  0  0  0  0
    6.9063    1.4524    0.0000 H   0  0  0  0  0  0  0  0  0  0  0  0
    3.4078    1.9274    0.0000 H   0  0  0  0  0  0  0  0  0  0  0  0
    7.6409   -1.9806    0.0000 H   0  0  0  0  0  0  0  0  0  0  0  0
    6.0768    3.8630    0.0000 H   0  0  0  0  0  0  0  0  0  0  0  0
    7.5453    2.8072    0.0000 H   0  0  0  0  0  0  0  0  0  0  0  0
    7.3168   -3.0209    0.0000 H   0  0  0  0  0  0  0  0  0  0  0  0
    4.0076   -3.0209    0.0000 H   0  0  0  0  0  0  0  0  0  0  0  0
    7.9269   -1.1324    0.0000 H   0  0  0  0  0  0  0  0  0  0  0  0
    7.3435    1.6123    0.0000 H   0  0  0  0  0  0  0  0  0  0  0  0
    3.2879    0.9591    0.0000 H   0  0  0  0  0  0  0  0  0  0  0  0
    4.1550   -1.7095    0.0000 H   0  0  0  0  0  0  0  0  0  0  0  0
    3.2231    3.5767    0.0000 H   0  0  0  0  0  0  0  0  0  0  0  0
    4.5665    4.5510    0.0000 H   0  0  0  0  0  0  0  0  0  0  0  0
    6.4951   -4.4698    0.0000 H   0  0  0  0  0  0  0  0  0  0  0  0
    4.8293   -4.4698    0.0000 H   0  0  0  0  0  0  0  0  0  0  0  0
    9.5115   -0.7955    0.0000 H   0  0  0  0  0  0  0  0  0  0  0  0
    8.9281    1.9491    0.0000 H   0  0  0  0  0  0  0  0  0  0  0  0
    1.7472    0.4585    0.0000 H   0  0  0  0  0  0  0  0  0  0  0  0
    2.6142   -2.2101    0.0000 H   0  0  0  0  0  0  0  0  0  0  0  0
   10.0121    0.7452    0.0000 H   0  0  0  0  0  0  0  0  0  0  0  0
    1.4103   -1.1261    0.0000 H   0  0  0  0  0  0  0  0  0  0  0  0
  1  8  1  0  0  0  0
  1 44  1  0  0  0  0
  2 10  1  0  0  0  0
  2 46  1  0  0  0  0
  3  5  1  0  0  0  0
  3  6  1  0  0  0  0
  3  8  1  0  0  0  0
  3  9  1  0  0  0  0
  4  5  1  0  0  0  0
  4  7  1  0  0  0  0
  4 10  1  0  0  0  0
  4 35  1  0  0  0  0
  5 13  1  0  0  0  0
  5 36  1  0  0  0  0
  6  7  1  0  0  0  0
  6 14  1  0  0  0  0
  6 37  1  0  0  0  0
  7 11  1  0  0  0  0
  7 38  1  0  0  0  0
  8 15  1  0  0  0  0
  8 39  1  0  0  0  0
  9 16  1  0  0  0  0
  9 40  1  0  0  0  0
  9 41  1  0  0  0  0
 10 12  1  0  0  0  0
 10 42  1  0  0  0  0
 11 12  1  0  0  0  0
 11 17  2  0  0  0  0
 12 18  2  0  0  0  0
 13 21  2  0  0  0  0
 13 22  1  0  0  0  0
 14 23  2  0  0  0  0
 14 24  1  0  0  0  0
 15 16  1  0  0  0  0
 15 19  2  0  0  0  0
 16 20  2  0  0  0  0
 17 25  1  0  0  0  0
 17 43  1  0  0  0  0
 18 26  1  0  0  0  0
 18 45  1  0  0  0  0
 19 27  1  0  0  0  0
 19 47  1  0  0  0  0
 20 28  1  0  0  0  0
 20 48  1  0  0  0  0
 21 29  1  0  0  0  0
 21 49  1  0  0  0  0
 22 30  2  0  0  0  0
 22 50  1  0  0  0  0
 23 31  1  0  0  0  0
 23 51  1  0  0  0  0
 24 32  2  0  0  0  0
 24 52  1  0  0  0  0
 25 26  2  0  0  0  0
 25 53  1  0  0  0  0
 26 54  1  0  0  0  0
 27 28  2  0  0  0  0
 27 55  1  0  0  0  0
 28 56  1  0  0  0  0
 29 33  2  0  0  0  0
 29 57  1  0  0  0  0
 30 33  1  0  0  0  0
 30 58  1  0  0  0  0
 31 34  2  0  0  0  0
 31 59  1  0  0  0  0
 32 34  1  0  0  0  0
 32 60  1  0  0  0  0
 33 61  1  0  0  0  0
 34 62  1  0  0  0  0
M  END
> <PUBCHEM_COMPOUND_CID>
500257
> <PUBCHEM_COMPOUND_CANONICALIZED>
1
> <PUBCHEM_CACTVS_COMPLEXITY>
723
> <PUBCHEM_CACTVS_HBOND_ACCEPTOR>
2
> <PUBCHEM_CACTVS_HBOND_DONOR>
2
> <PUBCHEM_CACTVS_ROTATABLE_BOND>
2
> <PUBCHEM_CACTVS_SUBSKEYS>
AAADceB8MAAAAAAAAAAAAAAAAAAAAYMGAAAwYMGAAAAYAGABVAAAGgAACAAADxSgmAIwAIAAAgCAAiBCAAACAAAgAAAIiAAACIgINiKAERCAcAAkwAEImAeA4PQPgAAAAAAQAAAAAAAAACAAAYAADAAAAA==
> <PUBCHEM_IUPAC_OPENEYE_NAME>
1,3-diphenylspiro[3,3a,4,8b-tetrahydro-1H-cyclopenta[a]indene-2,2'-indane]-1',4-diol
> <PUBCHEM_IUPAC_CAS_NAME>
1',3'-diphenylspiro[1,3-dihydroindene-2,2'-3,3a,4,8b-tetrahydro-1H-cyclopenta[a]indene]-1,4'-diol
> <PUBCHEM_IUPAC_NAME_MARKUP>
1&apos;,3&apos;-diphenylspiro[1,3-dihydroindene-2,2&apos;-3,3<I>a</I>,4,8<I>b</I>-tetrahydro-1<I>H</I>-cyclopenta[a]indene]-1,4&apos;-diol
> <PUBCHEM_IUPAC_NAME>
1',3'-diphenylspiro[1,3-dihydroindene-2,2'-3,3a,4,8b-tetrahydro-1H-cyclopenta[a]indene]-1,4'-diol
> <PUBCHEM_IUPAC_SYSTEMATIC_NAME>
1',3'-diphenylspiro[1,3-dihydroindene-2,2'-3,3a,4,8b-tetrahydro-1H-cyclopenta[a]indene]-1,4'-diol
> <PUBCHEM_IUPAC_TRADITIONAL_NAME>
1,3-diphenylspiro[3,3a,4,8b-tetrahydro-1H-cyclopent[a]indene-2,2'-indane]-1',4-diol
> <PUBCHEM_IUPAC_INCHI>
InChI=1S/C32H28O2/c33-30-25-18-10-9-17-24(25)26-27(30)29(21-13-5-2-6-14-21)32(28(26)20-11-3-1-4-12-20)19-22-15-7-8-16-23(22)31(32)34/h1-18,26-31,33-34H,19H2
> <PUBCHEM_IUPAC_INCHIKEY>
JDFQXJSUIRPIFZ-UHFFFAOYSA-N
> <PUBCHEM_XLOGP3_AA>
5.4
> <PUBCHEM_EXACT_MASS>
444.208930132
> <PUBCHEM_MOLECULAR_FORMULA>
C32H28O2
> <PUBCHEM_MOLECULAR_WEIGHT>
444.6
> <PUBCHEM_OPENEYE_CAN_SMILES>
C1C2=CC=CC=C2C(C13C(C4C(C3C5=CC=CC=C5)C6=CC=CC=C6C4O)C7=CC=CC=C7)O
> <PUBCHEM_OPENEYE_ISO_SMILES>
C1C2=CC=CC=C2C(C13C(C4C(C3C5=CC=CC=C5)C6=CC=CC=C6C4O)C7=CC=CC=C7)O
> <PUBCHEM_CACTVS_TPSA>
40.5
> <PUBCHEM_MONOISOTOPIC_WEIGHT>
444.208930132
> <PUBCHEM_TOTAL_CHARGE>
0
> <PUBCHEM_HEAVY_ATOM_COUNT>
34
> <PUBCHEM_ATOM_DEF_STEREO_COUNT>
0
> <PUBCHEM_ATOM_UDEF_STEREO_COUNT>
7
> <PUBCHEM_BOND_DEF_STEREO_COUNT>
0
> <PUBCHEM_BOND_UDEF_STEREO_COUNT>
0
> <PUBCHEM_ISOTOPIC_ATOM_COUNT>
0
> <PUBCHEM_COMPONENT_COUNT>
1
> <PUBCHEM_CACTVS_TAUTO_COUNT>
-1
> <PUBCHEM_COORDINATE_TYPE>
1
5
255
> <PUBCHEM_BONDANNOTATIONS>
8  1  3
11  12  8
11  17  8
12  18  8
13  21  8
13  22  8
14  23  8
14  24  8
15  16  8
15  19  8
16  20  8
17  25  8
18  26  8
19  27  8
10  2  3
20  28  8
21  29  8
22  30  8
23  31  8
24  32  8
25  26  8
27  28  8
29  33  8
3  9  3
30  33  8
31  34  8
32  34  8
4  5  3
5  13  3
6  14  3
7  11  3
$$$$
