500237
  -OEChem-10302200282D
 34 37  0     1  0  0  0  0  0999 V2000
    4.6844    2.8893    0.0000 O   0  0  0  0  0  0  0  0  0  0  0  0
    6.8109    3.1256    0.0000 O   0  0  0  0  0  0  0  0  0  0  0  0
    4.6783   -0.6308    0.0000 N   0  0  0  0  0  0  0  0  0  0  0  0
    4.6783   -2.2403    0.0000 N   0  0  0  0  0  0  0  0  0  0  0  0
    2.8660   -0.4356    0.0000 N   0  0  0  0  0  0  0  0  0  0  0  0
    2.0000   -1.9356    0.0000 N   0  0  0  0  0  0  0  0  0  0  0  0
    2.8660   -3.4356    0.0000 N   0  0  0  0  0  0  0  0  0  0  0  0
    5.9422    1.6271    0.0000 C   0  0  3  0  0  0  0  0  0  0  0  0
    5.9405    0.6271    0.0000 C   0  0  3  0  0  0  0  0  0  0  0  0
    6.8079    1.1256    0.0000 C   0  0  0  0  0  0  0  0  0  0  0  0
    4.9889    0.3197    0.0000 C   0  0  3  0  0  0  0  0  0  0  0  0
    4.9917    1.9377    0.0000 C   0  0  3  0  0  0  0  0  0  0  0  0
    4.4026    1.1297    0.0000 C   0  0  0  0  0  0  0  0  0  0  0  0
    5.9440    2.6271    0.0000 C   0  0  0  0  0  0  0  0  0  0  0  0
    3.7320   -0.9356    0.0000 C   0  0  0  0  0  0  0  0  0  0  0  0
    5.2619   -1.4356    0.0000 C   0  0  0  0  0  0  0  0  0  0  0  0
    3.7320   -1.9356    0.0000 C   0  0  0  0  0  0  0  0  0  0  0  0
    2.8660   -2.4356    0.0000 C   0  0  0  0  0  0  0  0  0  0  0  0
    2.0000   -0.9356    0.0000 C   0  0  0  0  0  0  0  0  0  0  0  0
    6.1916    0.0602    0.0000 H   0  0  0  0  0  0  0  0  0  0  0  0
    7.2056    0.6499    0.0000 H   0  0  0  0  0  0  0  0  0  0  0  0
    7.2072    1.5998    0.0000 H   0  0  0  0  0  0  0  0  0  0  0  0
    4.3764    0.2238    0.0000 H   0  0  0  0  0  0  0  0  0  0  0  0
    5.4309    2.3754    0.0000 H   0  0  0  0  0  0  0  0  0  0  0  0
    3.9425    1.5454    0.0000 H   0  0  0  0  0  0  0  0  0  0  0  0
    3.9411    0.7157    0.0000 H   0  0  0  0  0  0  0  0  0  0  0  0
    5.7329    3.2100    0.0000 H   0  0  0  0  0  0  0  0  0  0  0  0
    5.3332    2.5205    0.0000 H   0  0  0  0  0  0  0  0  0  0  0  0
    4.0781    3.0193    0.0000 H   0  0  0  0  0  0  0  0  0  0  0  0
    6.8120    3.7456    0.0000 H   0  0  0  0  0  0  0  0  0  0  0  0
    5.8819   -1.4356    0.0000 H   0  0  0  0  0  0  0  0  0  0  0  0
    1.4631   -0.6256    0.0000 H   0  0  0  0  0  0  0  0  0  0  0  0
    2.3291   -3.7456    0.0000 H   0  0  0  0  0  0  0  0  0  0  0  0
    3.4030   -3.7456    0.0000 H   0  0  0  0  0  0  0  0  0  0  0  0
  1 12  1  0  0  0  0
  1 29  1  0  0  0  0
  2 14  1  0  0  0  0
  2 30  1  0  0  0  0
  3 11  1  0  0  0  0
  3 15  1  0  0  0  0
  3 16  1  0  0  0  0
  4 16  2  0  0  0  0
  4 17  1  0  0  0  0
  5 15  2  0  0  0  0
  5 19  1  0  0  0  0
  6 18  1  0  0  0  0
  6 19  2  0  0  0  0
  7 18  1  0  0  0  0
  7 33  1  0  0  0  0
  7 34  1  0  0  0  0
  8  9  1  0  0  0  0
  8 10  1  0  0  0  0
  8 12  1  0  0  0  0
  8 14  1  0  0  0  0
  9 10  1  0  0  0  0
  9 11  1  0  0  0  0
  9 20  1  0  0  0  0
 10 21  1  0  0  0  0
 10 22  1  0  0  0  0
 11 13  1  0  0  0  0
 11 23  1  0  0  0  0
 12 13  1  0  0  0  0
 12 24  1  0  0  0  0
 13 25  1  0  0  0  0
 13 26  1  0  0  0  0
 14 27  1  0  0  0  0
 14 28  1  0  0  0  0
 15 17  1  0  0  0  0
 16 31  1  0  0  0  0
 17 18  2  0  0  0  0
 19 32  1  0  0  0  0
M  END
> <PUBCHEM_COMPOUND_CID>
500237
> <PUBCHEM_COMPOUND_CANONICALIZED>
1
> <PUBCHEM_CACTVS_COMPLEXITY>
383
> <PUBCHEM_CACTVS_HBOND_ACCEPTOR>
6
> <PUBCHEM_CACTVS_HBOND_DONOR>
3
> <PUBCHEM_CACTVS_ROTATABLE_BOND>
2
> <PUBCHEM_CACTVS_SUBSKEYS>
AAADccBzsAAAAAAAAAAAAAAAGAAAAeIAAAA8QAAAAAAAAFgB+AAAHgAQCAAADzzhlwYF8L9MEgCgAQZhZACAgC0REKABUCAoVBCAWAJAyEAURAgPAALAACGw0DMPgAAAAAAAAAAQAAAEABAAAKEADQAAAA==
> <PUBCHEM_IUPAC_OPENEYE_NAME>
4-(6-aminopurin-9-yl)-1-(hydroxymethyl)bicyclo[3.1.0]hexan-2-ol
> <PUBCHEM_IUPAC_CAS_NAME>
4-(6-aminopurin-9-yl)-1-(hydroxymethyl)-2-bicyclo[3.1.0]hexanol
> <PUBCHEM_IUPAC_NAME_MARKUP>
4-(6-aminopurin-9-yl)-1-(hydroxymethyl)bicyclo[3.1.0]hexan-2-ol
> <PUBCHEM_IUPAC_NAME>
4-(6-aminopurin-9-yl)-1-(hydroxymethyl)bicyclo[3.1.0]hexan-2-ol
> <PUBCHEM_IUPAC_SYSTEMATIC_NAME>
4-(6-aminopurin-9-yl)-1-(hydroxymethyl)bicyclo[3.1.0]hexan-2-ol
> <PUBCHEM_IUPAC_TRADITIONAL_NAME>
4-adenin-9-yl-1-methylol-bicyclo[3.1.0]hexan-2-ol
> <PUBCHEM_IUPAC_INCHI>
InChI=1S/C12H15N5O2/c13-10-9-11(15-4-14-10)17(5-16-9)7-1-8(19)12(3-18)2-6(7)12/h4-8,18-19H,1-3H2,(H2,13,14,15)
> <PUBCHEM_IUPAC_INCHIKEY>
GJDYOCPKYJVOMS-UHFFFAOYSA-N
> <PUBCHEM_XLOGP3_AA>
-0.4
> <PUBCHEM_EXACT_MASS>
261.12257474
> <PUBCHEM_MOLECULAR_FORMULA>
C12H15N5O2
> <PUBCHEM_MOLECULAR_WEIGHT>
261.28
> <PUBCHEM_OPENEYE_CAN_SMILES>
C1C(C2CC2(C1O)CO)N3C=NC4=C(N=CN=C43)N
> <PUBCHEM_OPENEYE_ISO_SMILES>
C1C(C2CC2(C1O)CO)N3C=NC4=C(N=CN=C43)N
> <PUBCHEM_CACTVS_TPSA>
110
> <PUBCHEM_MONOISOTOPIC_WEIGHT>
261.12257474
> <PUBCHEM_TOTAL_CHARGE>
0
> <PUBCHEM_HEAVY_ATOM_COUNT>
19
> <PUBCHEM_ATOM_DEF_STEREO_COUNT>
0
> <PUBCHEM_ATOM_UDEF_STEREO_COUNT>
4
> <PUBCHEM_BOND_DEF_STEREO_COUNT>
0
> <PUBCHEM_BOND_UDEF_STEREO_COUNT>
0
> <PUBCHEM_ISOTOPIC_ATOM_COUNT>
0
> <PUBCHEM_COMPONENT_COUNT>
1
> <PUBCHEM_CACTVS_TAUTO_COUNT>
-1
> <PUBCHEM_COORDINATE_TYPE>
1
5
255
> <PUBCHEM_BONDANNOTATIONS>
12  1  3
15  17  8
17  18  8
11  3  3
3  15  8
3  16  8
4  16  8
4  17  8
5  15  8
5  19  8
6  18  8
6  19  8
8  14  3
9  10  3
$$$$
