500251
  -OEChem-10302200282D
 17 17  0     1  0  0  0  0  0999 V2000
    5.9543    1.1191    0.0000 O   0  0  0  0  0  0  0  0  0  0  0  0
    2.9511    0.5282    0.0000 O   0  0  0  0  0  0  0  0  0  0  0  0
    3.4863   -1.1191    0.0000 O   0  0  0  0  0  0  0  0  0  0  0  0
    7.2144   -0.1410    0.0000 O   0  0  0  0  0  0  0  0  0  0  0  0
    5.4543   -0.4197    0.0000 N   0  0  0  0  0  0  0  0  0  0  0  0
    4.6453    0.1681    0.0000 C   0  0  3  0  0  0  0  0  0  0  0  0
    4.9543    1.1191    0.0000 C   0  0  0  0  0  0  0  0  0  0  0  0
    3.6942   -0.1410    0.0000 C   0  0  0  0  0  0  0  0  0  0  0  0
    6.2633    0.1681    0.0000 C   0  0  0  0  0  0  0  0  0  0  0  0
    2.0000    0.2192    0.0000 C   0  0  0  0  0  0  0  0  0  0  0  0
    4.5483   -0.4443    0.0000 H   0  0  0  0  0  0  0  0  0  0  0  0
    5.0191    1.7357    0.0000 H   0  0  0  0  0  0  0  0  0  0  0  0
    4.3478    1.2480    0.0000 H   0  0  0  0  0  0  0  0  0  0  0  0
    5.4543   -1.0397    0.0000 H   0  0  0  0  0  0  0  0  0  0  0  0
    1.8084    0.8088    0.0000 H   0  0  0  0  0  0  0  0  0  0  0  0
    1.4103    0.0276    0.0000 H   0  0  0  0  0  0  0  0  0  0  0  0
    2.1916   -0.3705    0.0000 H   0  0  0  0  0  0  0  0  0  0  0  0
  1  7  1  0  0  0  0
  1  9  1  0  0  0  0
  2  8  1  0  0  0  0
  2 10  1  0  0  0  0
  3  8  2  0  0  0  0
  4  9  2  0  0  0  0
  5  6  1  0  0  0  0
  5  9  1  0  0  0  0
  5 14  1  0  0  0  0
  6  7  1  0  0  0  0
  6  8  1  0  0  0  0
  6 11  1  0  0  0  0
  7 12  1  0  0  0  0
  7 13  1  0  0  0  0
 10 15  1  0  0  0  0
 10 16  1  0  0  0  0
 10 17  1  0  0  0  0
M  END
> <PUBCHEM_COMPOUND_CID>
500251
> <PUBCHEM_COMPOUND_CANONICALIZED>
1
> <PUBCHEM_CACTVS_COMPLEXITY>
167
> <PUBCHEM_CACTVS_HBOND_ACCEPTOR>
4
> <PUBCHEM_CACTVS_HBOND_DONOR>
1
> <PUBCHEM_CACTVS_ROTATABLE_BOND>
2
> <PUBCHEM_CACTVS_SUBSKEYS>
AAADcYBiOAAAAAAAAAAAAAAAAAAAAWAAAAAAAAAAAAAAAAAAAAAAHgAQAAAACCjhgAYCCALABAAIAACQGAAAAAAAAAAAAIGIAAECAAQAACAJAAABNgAQAAAAAAAAAAAAAAAAAAAAAAAAAAAAAAAAAAAAAA==
> <PUBCHEM_IUPAC_OPENEYE_NAME>
methyl 2-oxooxazolidine-4-carboxylate
> <PUBCHEM_IUPAC_CAS_NAME>
2-oxo-4-oxazolidinecarboxylic acid methyl ester
> <PUBCHEM_IUPAC_NAME_MARKUP>
methyl 2-oxo-1,3-oxazolidine-4-carboxylate
> <PUBCHEM_IUPAC_NAME>
methyl 2-oxo-1,3-oxazolidine-4-carboxylate
> <PUBCHEM_IUPAC_SYSTEMATIC_NAME>
methyl 2-oxidanylidene-1,3-oxazolidine-4-carboxylate
> <PUBCHEM_IUPAC_TRADITIONAL_NAME>
2-ketooxazolidine-4-carboxylic acid methyl ester
> <PUBCHEM_IUPAC_INCHI>
InChI=1S/C5H7NO4/c1-9-4(7)3-2-10-5(8)6-3/h3H,2H2,1H3,(H,6,8)
> <PUBCHEM_IUPAC_INCHIKEY>
PZIWTVKXOORXAZ-UHFFFAOYSA-N
> <PUBCHEM_XLOGP3_AA>
-0.3
> <PUBCHEM_EXACT_MASS>
145.03750770
> <PUBCHEM_MOLECULAR_FORMULA>
C5H7NO4
> <PUBCHEM_MOLECULAR_WEIGHT>
145.11
> <PUBCHEM_OPENEYE_CAN_SMILES>
COC(=O)C1COC(=O)N1
> <PUBCHEM_OPENEYE_ISO_SMILES>
COC(=O)C1COC(=O)N1
> <PUBCHEM_CACTVS_TPSA>
64.6
> <PUBCHEM_MONOISOTOPIC_WEIGHT>
145.03750770
> <PUBCHEM_TOTAL_CHARGE>
0
> <PUBCHEM_HEAVY_ATOM_COUNT>
10
> <PUBCHEM_ATOM_DEF_STEREO_COUNT>
0
> <PUBCHEM_ATOM_UDEF_STEREO_COUNT>
1
> <PUBCHEM_BOND_DEF_STEREO_COUNT>
0
> <PUBCHEM_BOND_UDEF_STEREO_COUNT>
0
> <PUBCHEM_ISOTOPIC_ATOM_COUNT>
0
> <PUBCHEM_COMPONENT_COUNT>
1
> <PUBCHEM_CACTVS_TAUTO_COUNT>
-1
> <PUBCHEM_COORDINATE_TYPE>
1
5
255
> <PUBCHEM_BONDANNOTATIONS>
6  8  3
$$$$
