500299
  -OEChem-10302200282D
 66 67  0     1  0  0  0  0  0999 V2000
    8.9225   -2.7172    0.0000 Si  0  0  0  0  0  0  0  0  0  0  0  0
    7.0614   -0.2526    0.0000 O   0  0  0  0  0  0  0  0  0  0  0  0
    8.3347   -1.9081    0.0000 O   0  0  0  0  0  0  0  0  0  0  0  0
    5.5714   -2.9262    0.0000 O   0  0  0  0  0  0  0  0  0  0  0  0
    7.9844    1.3352    0.0000 O   0  0  0  0  0  0  0  0  0  0  0  0
    6.2524    4.3352    0.0000 O   0  0  0  0  0  0  0  0  0  0  0  0
    5.1646   -2.0127    0.0000 N   0  0  3  0  0  0  0  0  0  0  0  0
    6.2524    1.3352    0.0000 N   0  0  0  0  0  0  0  0  0  0  0  0
    7.1184    2.8352    0.0000 N   0  0  0  0  0  0  0  0  0  0  0  0
    5.7524   -1.2037    0.0000 C   0  0  3  0  0  0  0  0  0  0  0  0
    6.7524   -1.2037    0.0000 C   0  0  3  0  0  0  0  0  0  0  0  0
    5.4434   -0.2526    0.0000 C   0  0  0  0  0  0  0  0  0  0  0  0
    6.2524    0.3352    0.0000 C   0  0  3  0  0  0  0  0  0  0  0  0
    9.5103   -3.5262    0.0000 C   0  0  0  0  0  0  0  0  0  0  0  0
    7.3402   -2.0127    0.0000 C   0  0  0  0  0  0  0  0  0  0  0  0
    9.7315   -2.1294    0.0000 C   0  0  0  0  0  0  0  0  0  0  0  0
    8.1135   -3.3049    0.0000 C   0  0  0  0  0  0  0  0  0  0  0  0
    4.1701   -1.9081    0.0000 C   0  0  0  0  0  0  0  0  0  0  0  0
   10.0981   -4.3352    0.0000 C   0  0  0  0  0  0  0  0  0  0  0  0
   10.3193   -2.9384    0.0000 C   0  0  0  0  0  0  0  0  0  0  0  0
    8.7013   -4.1140    0.0000 C   0  0  0  0  0  0  0  0  0  0  0  0
    3.5823   -2.7172    0.0000 C   0  0  0  0  0  0  0  0  0  0  0  0
    5.3864    1.8352    0.0000 C   0  0  0  0  0  0  0  0  0  0  0  0
    7.1184    1.8352    0.0000 C   0  0  0  0  0  0  0  0  0  0  0  0
    2.5878   -2.6126    0.0000 C   0  0  0  0  0  0  0  0  0  0  0  0
    5.3864    2.8352    0.0000 C   0  0  0  0  0  0  0  0  0  0  0  0
    6.2524    3.3352    0.0000 C   0  0  0  0  0  0  0  0  0  0  0  0
    2.0000   -3.4216    0.0000 C   0  0  0  0  0  0  0  0  0  0  0  0
    4.5204    3.3352    0.0000 C   0  0  0  0  0  0  0  0  0  0  0  0
    5.1400   -1.1067    0.0000 H   0  0  0  0  0  0  0  0  0  0  0  0
    7.3648   -1.1067    0.0000 H   0  0  0  0  0  0  0  0  0  0  0  0
    5.1334    0.2843    0.0000 H   0  0  0  0  0  0  0  0  0  0  0  0
    4.8770   -0.5048    0.0000 H   0  0  0  0  0  0  0  0  0  0  0  0
    5.7000    0.6167    0.0000 H   0  0  0  0  0  0  0  0  0  0  0  0
    6.7829   -2.2845    0.0000 H   0  0  0  0  0  0  0  0  0  0  0  0
    7.5111   -2.6086    0.0000 H   0  0  0  0  0  0  0  0  0  0  0  0
   10.0959   -2.6310    0.0000 H   0  0  0  0  0  0  0  0  0  0  0  0
   10.2331   -1.7649    0.0000 H   0  0  0  0  0  0  0  0  0  0  0  0
    9.3671   -1.6278    0.0000 H   0  0  0  0  0  0  0  0  0  0  0  0
    7.7490   -2.8034    0.0000 H   0  0  0  0  0  0  0  0  0  0  0  0
    7.6119   -3.6694    0.0000 H   0  0  0  0  0  0  0  0  0  0  0  0
    8.4779   -3.8065    0.0000 H   0  0  0  0  0  0  0  0  0  0  0  0
    4.3410   -1.3122    0.0000 H   0  0  0  0  0  0  0  0  0  0  0  0
    3.6128   -1.6364    0.0000 H   0  0  0  0  0  0  0  0  0  0  0  0
    9.5965   -4.6996    0.0000 H   0  0  0  0  0  0  0  0  0  0  0  0
   10.4625   -4.8368    0.0000 H   0  0  0  0  0  0  0  0  0  0  0  0
   10.5997   -3.9708    0.0000 H   0  0  0  0  0  0  0  0  0  0  0  0
   10.6837   -3.4400    0.0000 H   0  0  0  0  0  0  0  0  0  0  0  0
   10.8209   -2.5740    0.0000 H   0  0  0  0  0  0  0  0  0  0  0  0
    9.9549   -2.4368    0.0000 H   0  0  0  0  0  0  0  0  0  0  0  0
    8.3368   -3.6124    0.0000 H   0  0  0  0  0  0  0  0  0  0  0  0
    8.1997   -4.4784    0.0000 H   0  0  0  0  0  0  0  0  0  0  0  0
    9.0657   -4.6156    0.0000 H   0  0  0  0  0  0  0  0  0  0  0  0
    3.4114   -3.3131    0.0000 H   0  0  0  0  0  0  0  0  0  0  0  0
    4.1396   -2.9890    0.0000 H   0  0  0  0  0  0  0  0  0  0  0  0
    4.8494    1.5252    0.0000 H   0  0  0  0  0  0  0  0  0  0  0  0
    5.2069   -3.4278    0.0000 H   0  0  0  0  0  0  0  0  0  0  0  0
    2.7587   -2.0166    0.0000 H   0  0  0  0  0  0  0  0  0  0  0  0
    2.0305   -2.3408    0.0000 H   0  0  0  0  0  0  0  0  0  0  0  0
    7.6554    3.1452    0.0000 H   0  0  0  0  0  0  0  0  0  0  0  0
    1.4984   -3.0572    0.0000 H   0  0  0  0  0  0  0  0  0  0  0  0
    1.6356   -3.9232    0.0000 H   0  0  0  0  0  0  0  0  0  0  0  0
    2.5016   -3.7861    0.0000 H   0  0  0  0  0  0  0  0  0  0  0  0
    4.8304    3.8721    0.0000 H   0  0  0  0  0  0  0  0  0  0  0  0
    3.9834    3.6452    0.0000 H   0  0  0  0  0  0  0  0  0  0  0  0
    4.2104    2.7982    0.0000 H   0  0  0  0  0  0  0  0  0  0  0  0
  1  3  1  0  0  0  0
  1 14  1  0  0  0  0
  1 16  1  0  0  0  0
  1 17  1  0  0  0  0
  2 11  1  0  0  0  0
  2 13  1  0  0  0  0
  3 15  1  0  0  0  0
  4  7  1  0  0  0  0
  4 57  1  0  0  0  0
  5 24  2  0  0  0  0
  6 27  2  0  0  0  0
  7 10  1  0  0  0  0
  7 18  1  0  0  0  0
  8 13  1  0  0  0  0
  8 23  1  0  0  0  0
  8 24  1  0  0  0  0
  9 24  1  0  0  0  0
  9 27  1  0  0  0  0
  9 60  1  0  0  0  0
 10 11  1  0  0  0  0
 10 12  1  0  0  0  0
 10 30  1  0  0  0  0
 11 15  1  0  0  0  0
 11 31  1  0  0  0  0
 12 13  1  0  0  0  0
 12 32  1  0  0  0  0
 12 33  1  0  0  0  0
 13 34  1  0  0  0  0
 14 19  1  0  0  0  0
 14 20  1  0  0  0  0
 14 21  1  0  0  0  0
 15 35  1  0  0  0  0
 15 36  1  0  0  0  0
 16 37  1  0  0  0  0
 16 38  1  0  0  0  0
 16 39  1  0  0  0  0
 17 40  1  0  0  0  0
 17 41  1  0  0  0  0
 17 42  1  0  0  0  0
 18 22  1  0  0  0  0
 18 43  1  0  0  0  0
 18 44  1  0  0  0  0
 19 45  1  0  0  0  0
 19 46  1  0  0  0  0
 19 47  1  0  0  0  0
 20 48  1  0  0  0  0
 20 49  1  0  0  0  0
 20 50  1  0  0  0  0
 21 51  1  0  0  0  0
 21 52  1  0  0  0  0
 21 53  1  0  0  0  0
 22 25  1  0  0  0  0
 22 54  1  0  0  0  0
 22 55  1  0  0  0  0
 23 26  2  0  0  0  0
 23 56  1  0  0  0  0
 25 28  1  0  0  0  0
 25 58  1  0  0  0  0
 25 59  1  0  0  0  0
 26 27  1  0  0  0  0
 26 29  1  0  0  0  0
 28 61  1  0  0  0  0
 28 62  1  0  0  0  0
 28 63  1  0  0  0  0
 29 64  1  0  0  0  0
 29 65  1  0  0  0  0
 29 66  1  0  0  0  0
M  END
> <PUBCHEM_COMPOUND_CID>
500299
> <PUBCHEM_COMPOUND_CANONICALIZED>
1
> <PUBCHEM_CACTVS_COMPLEXITY>
647
> <PUBCHEM_CACTVS_HBOND_ACCEPTOR>
6
> <PUBCHEM_CACTVS_HBOND_DONOR>
2
> <PUBCHEM_CACTVS_ROTATABLE_BOND>
9
> <PUBCHEM_CACTVS_SUBSKEYS>
AAADcfB7OAgAAAAAAAAAAAAAAAAAASAAAAAgAAAAAAAAAAAAAAAAHhAUCEAADDzhoAZDAAPQBAGIAgFWUACAAAAAAAAgAAEIAECDAAIAwQAPAAAOByKSAMCwMAIAAAAAAAAAAAAAAAAAAAAAAAAAAAAAAA==
> <PUBCHEM_IUPAC_OPENEYE_NAME>
1-[5-[[tert-butyl(dimethyl)silyl]oxymethyl]-4-[butyl(hydroxy)amino]tetrahydrofuran-2-yl]-5-methyl-pyrimidine-2,4-dione
> <PUBCHEM_IUPAC_CAS_NAME>
1-[5-[[tert-butyl(dimethyl)silyl]oxymethyl]-4-[butyl(hydroxy)amino]-2-oxolanyl]-5-methylpyrimidine-2,4-dione
> <PUBCHEM_IUPAC_NAME_MARKUP>
1-[5-[[<I>tert</I>-butyl(dimethyl)silyl]oxymethyl]-4-[butyl(hydroxy)amino]oxolan-2-yl]-5-methylpyrimidine-2,4-dione
> <PUBCHEM_IUPAC_NAME>
1-[5-[[tert-butyl(dimethyl)silyl]oxymethyl]-4-[butyl(hydroxy)amino]oxolan-2-yl]-5-methylpyrimidine-2,4-dione
> <PUBCHEM_IUPAC_SYSTEMATIC_NAME>
1-[5-[[tert-butyl(dimethyl)silyl]oxymethyl]-4-[butyl(oxidanyl)amino]oxolan-2-yl]-5-methyl-pyrimidine-2,4-dione
> <PUBCHEM_IUPAC_TRADITIONAL_NAME>
1-[5-[[tert-butyl(dimethyl)silyl]oxymethyl]-4-[butyl(hydroxy)amino]tetrahydrofuran-2-yl]-5-methyl-pyrimidine-2,4-quinone
> <PUBCHEM_IUPAC_INCHI>
InChI=1S/C20H37N3O5Si/c1-8-9-10-23(26)15-11-17(22-12-14(2)18(24)21-19(22)25)28-16(15)13-27-29(6,7)20(3,4)5/h12,15-17,26H,8-11,13H2,1-7H3,(H,21,24,25)
> <PUBCHEM_IUPAC_INCHIKEY>
MKIFHSBKRXGTEZ-UHFFFAOYSA-N
> <PUBCHEM_EXACT_MASS>
427.25024782
> <PUBCHEM_MOLECULAR_FORMULA>
C20H37N3O5Si
> <PUBCHEM_MOLECULAR_WEIGHT>
427.6
> <PUBCHEM_OPENEYE_CAN_SMILES>
CCCCN(C1CC(OC1CO[Si](C)(C)C(C)(C)C)N2C=C(C(=O)NC2=O)C)O
> <PUBCHEM_OPENEYE_ISO_SMILES>
CCCCN(C1CC(OC1CO[Si](C)(C)C(C)(C)C)N2C=C(C(=O)NC2=O)C)O
> <PUBCHEM_CACTVS_TPSA>
91.3
> <PUBCHEM_MONOISOTOPIC_WEIGHT>
427.25024782
> <PUBCHEM_TOTAL_CHARGE>
0
> <PUBCHEM_HEAVY_ATOM_COUNT>
29
> <PUBCHEM_ATOM_DEF_STEREO_COUNT>
0
> <PUBCHEM_ATOM_UDEF_STEREO_COUNT>
3
> <PUBCHEM_BOND_DEF_STEREO_COUNT>
0
> <PUBCHEM_BOND_UDEF_STEREO_COUNT>
0
> <PUBCHEM_ISOTOPIC_ATOM_COUNT>
0
> <PUBCHEM_COMPONENT_COUNT>
1
> <PUBCHEM_CACTVS_TAUTO_COUNT>
-1
> <PUBCHEM_COORDINATE_TYPE>
1
5
255
> <PUBCHEM_BONDANNOTATIONS>
11  15  3
23  26  8
26  27  8
10  7  3
13  8  3
8  23  8
8  24  8
9  24  8
9  27  8
$$$$
