500272
  -OEChem-10302200282D
 23 24  0     1  0  0  0  0  0999 V2000
    2.5369   -3.0280    0.0000 O   0  0  0  0  0  0  0  0  0  0  0  0
    5.6350    0.3380    0.0000 O   0  0  0  0  0  0  0  0  0  0  0  0
    3.9030    3.3380    0.0000 O   0  0  0  0  0  0  0  0  0  0  0  0
    3.9030    0.3380    0.0000 N   0  0  0  0  0  0  0  0  0  0  0  0
    4.7690    1.8380    0.0000 N   0  0  0  0  0  0  0  0  0  0  0  0
    3.9030   -0.6620    0.0000 C   0  0  3  0  0  0  0  0  0  0  0  0
    3.4030   -1.5280    0.0000 C   0  0  3  0  0  0  0  0  0  0  0  0
    4.4030   -1.5280    0.0000 C   0  0  0  0  0  0  0  0  0  0  0  0
    2.5369   -2.0280    0.0000 C   0  0  0  0  0  0  0  0  0  0  0  0
    4.7690    0.8380    0.0000 C   0  0  0  0  0  0  0  0  0  0  0  0
    3.0369    0.8380    0.0000 C   0  0  0  0  0  0  0  0  0  0  0  0
    3.0369    1.8380    0.0000 C   0  0  0  0  0  0  0  0  0  0  0  0
    3.9030    2.3380    0.0000 C   0  0  0  0  0  0  0  0  0  0  0  0
    4.5018   -0.5015    0.0000 H   0  0  0  0  0  0  0  0  0  0  0  0
    3.5634   -2.1269    0.0000 H   0  0  0  0  0  0  0  0  0  0  0  0
    4.5106   -2.1386    0.0000 H   0  0  0  0  0  0  0  0  0  0  0  0
    4.9856   -1.3160    0.0000 H   0  0  0  0  0  0  0  0  0  0  0  0
    2.3249   -1.4454    0.0000 H   0  0  0  0  0  0  0  0  0  0  0  0
    1.9264   -2.1357    0.0000 H   0  0  0  0  0  0  0  0  0  0  0  0
    2.5000    0.5280    0.0000 H   0  0  0  0  0  0  0  0  0  0  0  0
    2.0000   -3.3380    0.0000 H   0  0  0  0  0  0  0  0  0  0  0  0
    5.3059    2.1480    0.0000 H   0  0  0  0  0  0  0  0  0  0  0  0
    2.5000    2.1480    0.0000 H   0  0  0  0  0  0  0  0  0  0  0  0
  1  9  1  0  0  0  0
  1 21  1  0  0  0  0
  2 10  2  0  0  0  0
  3 13  2  0  0  0  0
  4  6  1  0  0  0  0
  4 10  1  0  0  0  0
  4 11  1  0  0  0  0
  5 10  1  0  0  0  0
  5 13  1  0  0  0  0
  5 22  1  0  0  0  0
  6  7  1  0  0  0  0
  6  8  1  0  0  0  0
  6 14  1  0  0  0  0
  7  8  1  0  0  0  0
  7  9  1  0  0  0  0
  7 15  1  0  0  0  0
  8 16  1  0  0  0  0
  8 17  1  0  0  0  0
  9 18  1  0  0  0  0
  9 19  1  0  0  0  0
 11 12  2  0  0  0  0
 11 20  1  0  0  0  0
 12 13  1  0  0  0  0
 12 23  1  0  0  0  0
M  END
> <PUBCHEM_COMPOUND_CID>
500272
> <PUBCHEM_COMPOUND_CANONICALIZED>
1
> <PUBCHEM_CACTVS_COMPLEXITY>
287
> <PUBCHEM_CACTVS_HBOND_ACCEPTOR>
3
> <PUBCHEM_CACTVS_HBOND_DONOR>
2
> <PUBCHEM_CACTVS_ROTATABLE_BOND>
2
> <PUBCHEM_CACTVS_SUBSKEYS>
AAADccBzMAAAAAAAAAAAAAAAGAAAAAAAAAAgAAAAAAAAAAAAAAAAHgAQCAAADSjhgAYBAAPAAgCIACFWUACAAAAAAgAIAAAIAECAEAAAgAAEQAAOFyIAAMAgAAAAAAAAAAAAAAAAAAAAAAAAAAAAAAAAAA==
> <PUBCHEM_IUPAC_OPENEYE_NAME>
1-[2-(hydroxymethyl)cyclopropyl]pyrimidine-2,4-dione
> <PUBCHEM_IUPAC_CAS_NAME>
1-[2-(hydroxymethyl)cyclopropyl]pyrimidine-2,4-dione
> <PUBCHEM_IUPAC_NAME_MARKUP>
1-[2-(hydroxymethyl)cyclopropyl]pyrimidine-2,4-dione
> <PUBCHEM_IUPAC_NAME>
1-[2-(hydroxymethyl)cyclopropyl]pyrimidine-2,4-dione
> <PUBCHEM_IUPAC_SYSTEMATIC_NAME>
1-[2-(hydroxymethyl)cyclopropyl]pyrimidine-2,4-dione
> <PUBCHEM_IUPAC_TRADITIONAL_NAME>
1-(2-methylolcyclopropyl)pyrimidine-2,4-quinone
> <PUBCHEM_IUPAC_INCHI>
InChI=1S/C8H10N2O3/c11-4-5-3-6(5)10-2-1-7(12)9-8(10)13/h1-2,5-6,11H,3-4H2,(H,9,12,13)
> <PUBCHEM_IUPAC_INCHIKEY>
UMIBAQGXMVUTBS-UHFFFAOYSA-N
> <PUBCHEM_XLOGP3_AA>
-1
> <PUBCHEM_EXACT_MASS>
182.06914219
> <PUBCHEM_MOLECULAR_FORMULA>
C8H10N2O3
> <PUBCHEM_MOLECULAR_WEIGHT>
182.18
> <PUBCHEM_OPENEYE_CAN_SMILES>
C1C(C1N2C=CC(=O)NC2=O)CO
> <PUBCHEM_OPENEYE_ISO_SMILES>
C1C(C1N2C=CC(=O)NC2=O)CO
> <PUBCHEM_CACTVS_TPSA>
69.6
> <PUBCHEM_MONOISOTOPIC_WEIGHT>
182.06914219
> <PUBCHEM_TOTAL_CHARGE>
0
> <PUBCHEM_HEAVY_ATOM_COUNT>
13
> <PUBCHEM_ATOM_DEF_STEREO_COUNT>
0
> <PUBCHEM_ATOM_UDEF_STEREO_COUNT>
2
> <PUBCHEM_BOND_DEF_STEREO_COUNT>
0
> <PUBCHEM_BOND_UDEF_STEREO_COUNT>
0
> <PUBCHEM_ISOTOPIC_ATOM_COUNT>
0
> <PUBCHEM_COMPONENT_COUNT>
1
> <PUBCHEM_CACTVS_TAUTO_COUNT>
-1
> <PUBCHEM_COORDINATE_TYPE>
1
5
255
> <PUBCHEM_BONDANNOTATIONS>
11  12  8
12  13  8
4  10  8
4  11  8
6  4  3
5  10  8
5  13  8
7  9  3
$$$$
