500260
  -OEChem-10302200282D
 33 34  0     1  0  0  0  0  0999 V2000
    2.6443   -3.2254    0.0000 F   0  0  0  0  0  0  0  0  0  0  0  0
    4.5411   -1.4653    0.0000 O   0  0  0  0  0  0  0  0  0  0  0  0
    5.8144   -3.1209    0.0000 O   0  0  0  0  0  0  0  0  0  0  0  0
    5.4641    0.1225    0.0000 O   0  0  0  0  0  0  0  0  0  0  0  0
    3.7320    3.1225    0.0000 O   0  0  0  0  0  0  0  0  0  0  0  0
    3.7320    0.1225    0.0000 N   0  0  0  0  0  0  0  0  0  0  0  0
    4.5981    1.6225    0.0000 N   0  0  0  0  0  0  0  0  0  0  0  0
    3.7320   -0.8775    0.0000 C   0  0  2  0  0  0  0  0  0  0  0  0
    2.9230   -1.4653    0.0000 C   0  0  0  0  0  0  0  0  0  0  0  0
    3.2320   -2.4164    0.0000 C   0  0  2  0  0  0  0  0  0  0  0  0
    4.2320   -2.4164    0.0000 C   0  0  2  0  0  0  0  0  0  0  0  0
    4.8198   -3.2254    0.0000 C   0  0  0  0  0  0  0  0  0  0  0  0
    2.8660    0.6225    0.0000 C   0  0  0  0  0  0  0  0  0  0  0  0
    4.5981    0.6225    0.0000 C   0  0  0  0  0  0  0  0  0  0  0  0
    2.8660    1.6225    0.0000 C   0  0  0  0  0  0  0  0  0  0  0  0
    3.7320    2.1225    0.0000 C   0  0  0  0  0  0  0  0  0  0  0  0
    2.0000    2.1225    0.0000 C   0  0  0  0  0  0  0  0  0  0  0  0
    4.5981    3.6225    0.0000 C   0  0  0  0  0  0  0  0  0  0  0  0
    4.2845   -0.5961    0.0000 H   0  0  0  0  0  0  0  0  0  0  0  0
    2.6130   -0.9284    0.0000 H   0  0  0  0  0  0  0  0  0  0  0  0
    2.3566   -1.7175    0.0000 H   0  0  0  0  0  0  0  0  0  0  0  0
    3.5135   -2.9688    0.0000 H   0  0  0  0  0  0  0  0  0  0  0  0
    4.8444   -2.3194    0.0000 H   0  0  0  0  0  0  0  0  0  0  0  0
    4.2626   -3.4972    0.0000 H   0  0  0  0  0  0  0  0  0  0  0  0
    4.9907   -3.8214    0.0000 H   0  0  0  0  0  0  0  0  0  0  0  0
    2.3291    0.3125    0.0000 H   0  0  0  0  0  0  0  0  0  0  0  0
    6.1788   -3.6225    0.0000 H   0  0  0  0  0  0  0  0  0  0  0  0
    2.3100    2.6594    0.0000 H   0  0  0  0  0  0  0  0  0  0  0  0
    1.4631    2.4325    0.0000 H   0  0  0  0  0  0  0  0  0  0  0  0
    1.6900    1.5855    0.0000 H   0  0  0  0  0  0  0  0  0  0  0  0
    4.9081    3.0855    0.0000 H   0  0  0  0  0  0  0  0  0  0  0  0
    5.1350    3.9325    0.0000 H   0  0  0  0  0  0  0  0  0  0  0  0
    4.2881    4.1594    0.0000 H   0  0  0  0  0  0  0  0  0  0  0  0
 10  1  1  6  0  0  0
  2  8  1  0  0  0  0
  2 11  1  0  0  0  0
  3 12  1  0  0  0  0
  3 27  1  0  0  0  0
  4 14  2  0  0  0  0
  5 16  1  0  0  0  0
  5 18  1  0  0  0  0
  8  6  1  1  0  0  0
  6 13  1  0  0  0  0
  6 14  1  0  0  0  0
  7 14  1  0  0  0  0
  7 16  2  0  0  0  0
  8  9  1  0  0  0  0
  8 19  1  0  0  0  0
  9 10  1  0  0  0  0
  9 20  1  0  0  0  0
  9 21  1  0  0  0  0
 10 11  1  0  0  0  0
 10 22  1  0  0  0  0
 11 12  1  1  0  0  0
 11 23  1  0  0  0  0
 12 24  1  0  0  0  0
 12 25  1  0  0  0  0
 13 15  2  0  0  0  0
 13 26  1  0  0  0  0
 15 16  1  0  0  0  0
 15 17  1  0  0  0  0
 17 28  1  0  0  0  0
 17 29  1  0  0  0  0
 17 30  1  0  0  0  0
 18 31  1  0  0  0  0
 18 32  1  0  0  0  0
 18 33  1  0  0  0  0
M  END
> <PUBCHEM_COMPOUND_CID>
500260
> <PUBCHEM_COMPOUND_CANONICALIZED>
1
> <PUBCHEM_CACTVS_COMPLEXITY>
410
> <PUBCHEM_CACTVS_HBOND_ACCEPTOR>
5
> <PUBCHEM_CACTVS_HBOND_DONOR>
1
> <PUBCHEM_CACTVS_ROTATABLE_BOND>
3
> <PUBCHEM_CACTVS_SUBSKEYS>
AAADccBzOQAAAAAAAAAAAAAAAAAAASAAAAAgAAAAAAAAAAAAAAAAHwAACAAADBThgAYDAAMABgCoAgBmVAAAAAAAAAAAAAAoABCBFAIAoQAOQAAEBgIDIACwMAIAAAAAAAAAAAAAAAAAAAAAAAAAAAAAAA==
> <PUBCHEM_IUPAC_OPENEYE_NAME>
1-[(2S,4R,5S)-4-fluoro-5-(hydroxymethyl)tetrahydrofuran-2-yl]-4-methoxy-5-methyl-pyrimidin-2-one
> <PUBCHEM_IUPAC_CAS_NAME>
1-[(2S,4R,5S)-4-fluoro-5-(hydroxymethyl)-2-oxolanyl]-4-methoxy-5-methyl-2-pyrimidinone
> <PUBCHEM_IUPAC_NAME_MARKUP>
1-[(2<I>S</I>,4<I>R</I>,5<I>S</I>)-4-fluoro-5-(hydroxymethyl)oxolan-2-yl]-4-methoxy-5-methylpyrimidin-2-one
> <PUBCHEM_IUPAC_NAME>
1-[(2S,4R,5S)-4-fluoro-5-(hydroxymethyl)oxolan-2-yl]-4-methoxy-5-methylpyrimidin-2-one
> <PUBCHEM_IUPAC_SYSTEMATIC_NAME>
1-[(2S,4R,5S)-4-fluoranyl-5-(hydroxymethyl)oxolan-2-yl]-4-methoxy-5-methyl-pyrimidin-2-one
> <PUBCHEM_IUPAC_TRADITIONAL_NAME>
1-[(2S,4R,5S)-4-fluoro-5-methylol-tetrahydrofuran-2-yl]-4-methoxy-5-methyl-pyrimidin-2-one
> <PUBCHEM_IUPAC_INCHI>
InChI=1S/C11H15FN2O4/c1-6-4-14(11(16)13-10(6)17-2)9-3-7(12)8(5-15)18-9/h4,7-9,15H,3,5H2,1-2H3/t7-,8+,9+/m1/s1
> <PUBCHEM_IUPAC_INCHIKEY>
KBCYHHVUEZPJIB-VGMNWLOBSA-N
> <PUBCHEM_XLOGP3>
0.4
> <PUBCHEM_EXACT_MASS>
258.10158513
> <PUBCHEM_MOLECULAR_FORMULA>
C11H15FN2O4
> <PUBCHEM_MOLECULAR_WEIGHT>
258.25
> <PUBCHEM_OPENEYE_CAN_SMILES>
CC1=CN(C(=O)N=C1OC)C2CC(C(O2)CO)F
> <PUBCHEM_OPENEYE_ISO_SMILES>
CC1=CN(C(=O)N=C1OC)[C@@H]2C[C@H]([C@@H](O2)CO)F
> <PUBCHEM_CACTVS_TPSA>
71.4
> <PUBCHEM_MONOISOTOPIC_WEIGHT>
258.10158513
> <PUBCHEM_TOTAL_CHARGE>
0
> <PUBCHEM_HEAVY_ATOM_COUNT>
18
> <PUBCHEM_ATOM_DEF_STEREO_COUNT>
3
> <PUBCHEM_ATOM_UDEF_STEREO_COUNT>
0
> <PUBCHEM_BOND_DEF_STEREO_COUNT>
0
> <PUBCHEM_BOND_UDEF_STEREO_COUNT>
0
> <PUBCHEM_ISOTOPIC_ATOM_COUNT>
0
> <PUBCHEM_COMPONENT_COUNT>
1
> <PUBCHEM_CACTVS_TAUTO_COUNT>
-1
> <PUBCHEM_COORDINATE_TYPE>
1
5
255
> <PUBCHEM_BONDANNOTATIONS>
10  1  6
11  12  5
13  15  8
15  16  8
6  13  8
6  14  8
8  6  5
7  14  8
7  16  8
$$$$
