500359
  -OEChem-10302200282D
 36 38  0     1  0  0  0  0  0999 V2000
    7.2901   -1.1980    0.0000 O   0  0  0  0  0  0  0  0  0  0  0  0
    7.2785    1.8713    0.0000 O   0  0  0  0  0  0  0  0  0  0  0  0
    9.0602    0.8608    0.0000 O   0  0  0  0  0  0  0  0  0  0  0  0
    3.7817    1.8713    0.0000 O   0  0  0  0  0  0  0  0  0  0  0  0
    2.0000   -1.1875    0.0000 O   0  0  0  0  0  0  0  0  0  0  0  0
    5.5301    0.8367    0.0000 N   0  0  0  0  0  0  0  0  0  0  0  0
    5.5301   -1.1633    0.0000 N   0  0  0  0  0  0  0  0  0  0  0  0
    2.8641    0.3575    0.0000 N   0  0  0  0  0  0  0  0  0  0  0  0
    3.7702   -1.1980    0.0000 N   0  0  0  0  0  0  0  0  0  0  0  0
    6.3961    0.3367    0.0000 C   0  0  3  0  0  0  0  0  0  0  0  0
    7.2901    0.8713    0.0000 C   0  0  3  0  0  0  0  0  0  0  0  0
    6.3961   -0.6633    0.0000 C   0  0  3  0  0  0  0  0  0  0  0  0
    8.1962    0.3575    0.0000 C   0  0  3  0  0  0  0  0  0  0  0  0
    8.1962   -0.6841    0.0000 C   0  0  0  0  0  0  0  0  0  0  0  0
    4.6641    0.3367    0.0000 C   0  0  0  0  0  0  0  0  0  0  0  0
    4.6641   -0.6633    0.0000 C   0  0  0  0  0  0  0  0  0  0  0  0
    3.7702    0.8713    0.0000 C   0  0  0  0  0  0  0  0  0  0  0  0
    2.8641   -0.6841    0.0000 C   0  0  0  0  0  0  0  0  0  0  0  0
    2.0000    0.8608    0.0000 C   0  0  0  0  0  0  0  0  0  0  0  0
    2.0038   -2.1875    0.0000 C   0  0  0  0  0  0  0  0  0  0  0  0
    6.3914    0.9567    0.0000 H   0  0  0  0  0  0  0  0  0  0  0  0
    6.7490    1.1741    0.0000 H   0  0  0  0  0  0  0  0  0  0  0  0
    6.3914   -1.2833    0.0000 H   0  0  0  0  0  0  0  0  0  0  0  0
    8.1926    0.9775    0.0000 H   0  0  0  0  0  0  0  0  0  0  0  0
    8.4052   -1.2678    0.0000 H   0  0  0  0  0  0  0  0  0  0  0  0
    8.8070   -0.5780    0.0000 H   0  0  0  0  0  0  0  0  0  0  0  0
    5.5301    1.4567    0.0000 H   0  0  0  0  0  0  0  0  0  0  0  0
    5.5301   -1.7833    0.0000 H   0  0  0  0  0  0  0  0  0  0  0  0
    7.8118    2.1875    0.0000 H   0  0  0  0  0  0  0  0  0  0  0  0
    9.5984    0.5529    0.0000 H   0  0  0  0  0  0  0  0  0  0  0  0
    2.3121    1.3966    0.0000 H   0  0  0  0  0  0  0  0  0  0  0  0
    1.4643    1.1729    0.0000 H   0  0  0  0  0  0  0  0  0  0  0  0
    1.6879    0.3251    0.0000 H   0  0  0  0  0  0  0  0  0  0  0  0
    1.3839   -2.1898    0.0000 H   0  0  0  0  0  0  0  0  0  0  0  0
    2.0062   -2.8075    0.0000 H   0  0  0  0  0  0  0  0  0  0  0  0
    2.6238   -2.1851    0.0000 H   0  0  0  0  0  0  0  0  0  0  0  0
  1 12  1  0  0  0  0
  1 14  1  0  0  0  0
  2 11  1  0  0  0  0
  2 29  1  0  0  0  0
  3 13  1  0  0  0  0
  3 30  1  0  0  0  0
  4 17  2  0  0  0  0
  5 18  1  0  0  0  0
  5 20  1  0  0  0  0
  6 10  1  0  0  0  0
  6 15  1  0  0  0  0
  6 27  1  0  0  0  0
  7 12  1  0  0  0  0
  7 16  1  0  0  0  0
  7 28  1  0  0  0  0
  8 17  1  0  0  0  0
  8 18  1  0  0  0  0
  8 19  1  0  0  0  0
  9 16  1  0  0  0  0
  9 18  2  0  0  0  0
 10 11  1  0  0  0  0
 10 12  1  0  0  0  0
 10 21  1  0  0  0  0
 11 13  1  0  0  0  0
 11 22  1  0  0  0  0
 12 23  1  0  0  0  0
 13 14  1  0  0  0  0
 13 24  1  0  0  0  0
 14 25  1  0  0  0  0
 14 26  1  0  0  0  0
 15 16  2  0  0  0  0
 15 17  1  0  0  0  0
 19 31  1  0  0  0  0
 19 32  1  0  0  0  0
 19 33  1  0  0  0  0
 20 34  1  0  0  0  0
 20 35  1  0  0  0  0
 20 36  1  0  0  0  0
M  END
> <PUBCHEM_COMPOUND_CID>
500359
> <PUBCHEM_COMPOUND_CANONICALIZED>
1
> <PUBCHEM_CACTVS_COMPLEXITY>
505
> <PUBCHEM_CACTVS_HBOND_ACCEPTOR>
8
> <PUBCHEM_CACTVS_HBOND_DONOR>
4
> <PUBCHEM_CACTVS_ROTATABLE_BOND>
1
> <PUBCHEM_CACTVS_SUBSKEYS>
AAADceBzuAAAAAAAAAAAAAAAAAAAAAAAAAAkQIAAAAAAAACAAAAAHgAQCAAACDzhgAYDAAPABgCoAAVQdACAAAEAAAABAICIAEGDUAIAiCAfQAAHEgKTAEDwEAIAAAAAAAAAAAAAAAAAAAAAAAAAAAAAAA==
> <PUBCHEM_IUPAC_OPENEYE_NAME>
6,7-dihydroxy-2-methoxy-3-methyl-5a,6,7,8,9a,10-hexahydro-5H-pyrano[3,2-g]pteridin-4-one
> <PUBCHEM_IUPAC_CAS_NAME>
6,7-dihydroxy-2-methoxy-3-methyl-5a,6,7,8,9a,10-hexahydro-5H-pyrano[3,2-g]pteridin-4-one
> <PUBCHEM_IUPAC_NAME_MARKUP>
6,7-dihydroxy-2-methoxy-3-methyl-5<I>a</I>,6,7,8,9<I>a</I>,10-hexahydro-5<I>H</I>-pyrano[3,2-g]pteridin-4-one
> <PUBCHEM_IUPAC_NAME>
6,7-dihydroxy-2-methoxy-3-methyl-5a,6,7,8,9a,10-hexahydro-5H-pyrano[3,2-g]pteridin-4-one
> <PUBCHEM_IUPAC_SYSTEMATIC_NAME>
2-methoxy-3-methyl-6,7-bis(oxidanyl)-5a,6,7,8,9a,10-hexahydro-5H-pyrano[3,2-g]pteridin-4-one
> <PUBCHEM_IUPAC_TRADITIONAL_NAME>
6,7-dihydroxy-2-methoxy-3-methyl-5a,6,7,8,9a,10-hexahydro-5H-pyrano[3,2-g]pteridin-4-one
> <PUBCHEM_IUPAC_INCHI>
InChI=1S/C11H16N4O5/c1-15-10(18)6-8(14-11(15)19-2)13-9-5(12-6)7(17)4(16)3-20-9/h4-5,7,9,12-13,16-17H,3H2,1-2H3
> <PUBCHEM_IUPAC_INCHIKEY>
LAAIYQXSCIDRBU-UHFFFAOYSA-N
> <PUBCHEM_XLOGP3_AA>
-1.4
> <PUBCHEM_EXACT_MASS>
284.11206962
> <PUBCHEM_MOLECULAR_FORMULA>
C11H16N4O5
> <PUBCHEM_MOLECULAR_WEIGHT>
284.27
> <PUBCHEM_OPENEYE_CAN_SMILES>
CN1C(=O)C2=C(NC3C(N2)C(C(CO3)O)O)N=C1OC
> <PUBCHEM_OPENEYE_ISO_SMILES>
CN1C(=O)C2=C(NC3C(N2)C(C(CO3)O)O)N=C1OC
> <PUBCHEM_CACTVS_TPSA>
116
> <PUBCHEM_MONOISOTOPIC_WEIGHT>
284.11206962
> <PUBCHEM_TOTAL_CHARGE>
0
> <PUBCHEM_HEAVY_ATOM_COUNT>
20
> <PUBCHEM_ATOM_DEF_STEREO_COUNT>
0
> <PUBCHEM_ATOM_UDEF_STEREO_COUNT>
4
> <PUBCHEM_BOND_DEF_STEREO_COUNT>
0
> <PUBCHEM_BOND_UDEF_STEREO_COUNT>
0
> <PUBCHEM_ISOTOPIC_ATOM_COUNT>
0
> <PUBCHEM_COMPONENT_COUNT>
1
> <PUBCHEM_CACTVS_TAUTO_COUNT>
-1
> <PUBCHEM_COORDINATE_TYPE>
1
5
255
> <PUBCHEM_BONDANNOTATIONS>
12  1  3
15  16  8
15  17  8
11  2  3
13  3  3
10  6  3
8  17  8
8  18  8
9  16  8
9  18  8
$$$$
