500334
  -OEChem-10302200282D
 23 23  0     1  0  0  0  0  0999 V2000
    5.5929    1.2149    0.0000 S   0  0  0  0  0  0  0  0  0  0  0  0
    7.0609   -1.0233    0.0000 O   0  0  0  0  0  0  0  0  0  0  0  0
    8.5472    0.3149    0.0000 O   0  0  0  0  0  0  0  0  0  0  0  0
    2.5896    0.6240    0.0000 O   0  0  0  0  0  0  0  0  0  0  0  0
    3.1249   -1.0233    0.0000 O   0  0  0  0  0  0  0  0  0  0  0  0
    5.0929   -0.3239    0.0000 N   0  0  0  0  0  0  0  0  0  0  0  0
    5.9019    0.2638    0.0000 C   0  0  3  0  0  0  0  0  0  0  0  0
    4.2839    0.2638    0.0000 C   0  0  3  0  0  0  0  0  0  0  0  0
    6.8530   -0.0452    0.0000 C   0  0  3  0  0  0  0  0  0  0  0  0
    4.5929    1.2149    0.0000 C   0  0  0  0  0  0  0  0  0  0  0  0
    7.5961    0.6240    0.0000 C   0  0  0  0  0  0  0  0  0  0  0  0
    3.3328   -0.0452    0.0000 C   0  0  0  0  0  0  0  0  0  0  0  0
    6.3403    0.7023    0.0000 H   0  0  0  0  0  0  0  0  0  0  0  0
    4.1869   -0.3485    0.0000 H   0  0  0  0  0  0  0  0  0  0  0  0
    6.3922   -0.4600    0.0000 H   0  0  0  0  0  0  0  0  0  0  0  0
    5.0929   -0.9439    0.0000 H   0  0  0  0  0  0  0  0  0  0  0  0
    4.6577    1.8315    0.0000 H   0  0  0  0  0  0  0  0  0  0  0  0
    3.9864    1.3438    0.0000 H   0  0  0  0  0  0  0  0  0  0  0  0
    7.8872    1.1714    0.0000 H   0  0  0  0  0  0  0  0  0  0  0  0
    7.1075    1.0057    0.0000 H   0  0  0  0  0  0  0  0  0  0  0  0
    7.6505   -1.2149    0.0000 H   0  0  0  0  0  0  0  0  0  0  0  0
    9.0079    0.7298    0.0000 H   0  0  0  0  0  0  0  0  0  0  0  0
    2.0000    0.4324    0.0000 H   0  0  0  0  0  0  0  0  0  0  0  0
  1  7  1  0  0  0  0
  1 10  1  0  0  0  0
  2  9  1  0  0  0  0
  2 21  1  0  0  0  0
  3 11  1  0  0  0  0
  3 22  1  0  0  0  0
  4 12  1  0  0  0  0
  4 23  1  0  0  0  0
  5 12  2  0  0  0  0
  6  7  1  0  0  0  0
  6  8  1  0  0  0  0
  6 16  1  0  0  0  0
  7  9  1  0  0  0  0
  7 13  1  0  0  0  0
  8 10  1  0  0  0  0
  8 12  1  0  0  0  0
  8 14  1  0  0  0  0
  9 11  1  0  0  0  0
  9 15  1  0  0  0  0
 10 17  1  0  0  0  0
 10 18  1  0  0  0  0
 11 19  1  0  0  0  0
 11 20  1  0  0  0  0
M  END
> <PUBCHEM_COMPOUND_CID>
500334
> <PUBCHEM_COMPOUND_CANONICALIZED>
1
> <PUBCHEM_CACTVS_COMPLEXITY>
177
> <PUBCHEM_CACTVS_HBOND_ACCEPTOR>
6
> <PUBCHEM_CACTVS_HBOND_DONOR>
4
> <PUBCHEM_CACTVS_ROTATABLE_BOND>
3
> <PUBCHEM_CACTVS_SUBSKEYS>
AAADccBiOABAAAAAAAAAAAAAAAAAAWAAAAAAAAAAAAAAAAAAAAAAHgQQCAAACDzlwAaACALAAggIAACQCAAAAABAABAAAIGIAAADEAAgACAEQAACEACxAAAAAAAAAAAAAAAAAAAAAAAAAAAAAAAAAAAAAA==
> <PUBCHEM_IUPAC_OPENEYE_NAME>
2-(1,2-dihydroxyethyl)thiazolidine-4-carboxylic acid
> <PUBCHEM_IUPAC_CAS_NAME>
2-(1,2-dihydroxyethyl)-4-thiazolidinecarboxylic acid
> <PUBCHEM_IUPAC_NAME_MARKUP>
2-(1,2-dihydroxyethyl)-1,3-thiazolidine-4-carboxylic acid
> <PUBCHEM_IUPAC_NAME>
2-(1,2-dihydroxyethyl)-1,3-thiazolidine-4-carboxylic acid
> <PUBCHEM_IUPAC_SYSTEMATIC_NAME>
2-[1,2-bis(oxidanyl)ethyl]-1,3-thiazolidine-4-carboxylic acid
> <PUBCHEM_IUPAC_TRADITIONAL_NAME>
2-(1,2-dihydroxyethyl)thiazolidine-4-carboxylic acid
> <PUBCHEM_IUPAC_INCHI>
InChI=1S/C6H11NO4S/c8-1-4(9)5-7-3(2-12-5)6(10)11/h3-5,7-9H,1-2H2,(H,10,11)
> <PUBCHEM_IUPAC_INCHIKEY>
XRXLURVUXVKGLW-UHFFFAOYSA-N
> <PUBCHEM_XLOGP3_AA>
-3.6
> <PUBCHEM_EXACT_MASS>
193.04087901
> <PUBCHEM_MOLECULAR_FORMULA>
C6H11NO4S
> <PUBCHEM_MOLECULAR_WEIGHT>
193.22
> <PUBCHEM_OPENEYE_CAN_SMILES>
C1C(NC(S1)C(CO)O)C(=O)O
> <PUBCHEM_OPENEYE_ISO_SMILES>
C1C(NC(S1)C(CO)O)C(=O)O
> <PUBCHEM_CACTVS_TPSA>
115
> <PUBCHEM_MONOISOTOPIC_WEIGHT>
193.04087901
> <PUBCHEM_TOTAL_CHARGE>
0
> <PUBCHEM_HEAVY_ATOM_COUNT>
12
> <PUBCHEM_ATOM_DEF_STEREO_COUNT>
0
> <PUBCHEM_ATOM_UDEF_STEREO_COUNT>
3
> <PUBCHEM_BOND_DEF_STEREO_COUNT>
0
> <PUBCHEM_BOND_UDEF_STEREO_COUNT>
0
> <PUBCHEM_ISOTOPIC_ATOM_COUNT>
0
> <PUBCHEM_COMPONENT_COUNT>
1
> <PUBCHEM_CACTVS_TAUTO_COUNT>
-1
> <PUBCHEM_COORDINATE_TYPE>
1
5
255
> <PUBCHEM_BONDANNOTATIONS>
9  2  3
7  6  3
8  12  3
$$$$
