500394
  -OEChem-10302200282D
 86 92  0     1  0  0  0  0  0999 V2000
    5.7961    0.0954    0.0000 O   0  0  0  0  0  0  0  0  0  0  0  0
    9.0843    1.2462    0.0000 O   0  0  0  0  0  0  0  0  0  0  0  0
    6.6699   -1.1276    0.0000 O   0  0  0  0  0  0  0  0  0  0  0  0
    8.4516   -0.1171    0.0000 O   0  0  0  0  0  0  0  0  0  0  0  0
    4.6769    1.5656    0.0000 O   0  0  0  0  0  0  0  0  0  0  0  0
    9.8111    2.9450    0.0000 O   0  0  0  0  0  0  0  0  0  0  0  0
    5.7981   -2.6242    0.0000 O   0  0  0  0  0  0  0  0  0  0  0  0
    6.7196   -0.0971    0.0000 O   0  0  0  0  0  0  0  0  0  0  0  0
    8.4400   -3.1864    0.0000 O   0  0  0  0  0  0  0  0  0  0  0  0
   10.1839   -0.1102    0.0000 O   0  0  0  0  0  0  0  0  0  0  0  0
   11.0781    1.4175    0.0000 O   0  0  0  0  0  0  0  0  0  0  0  0
    2.9322   -1.0704    0.0000 C   0  0  0  0  0  0  0  0  0  0  0  0
    6.6575    3.1623    0.0000 C   0  0  0  0  0  0  0  0  0  0  0  0
    4.0737   -0.6176    0.0000 C   0  0  3  0  0  0  0  0  0  0  0  0
    7.6145    2.3927    0.0000 C   0  0  3  0  0  0  0  0  0  0  0  0
    4.9378   -1.1209    0.0000 C   0  0  3  0  0  0  0  0  0  0  0  0
    7.6030    1.3928    0.0000 C   0  0  3  0  0  0  0  0  0  0  0  0
    4.1522   -2.6842    0.0000 C   0  0  0  0  0  0  0  0  0  0  0  0
    5.8555    1.3050    0.0000 C   0  0  0  0  0  0  0  0  0  0  0  0
    5.1487   -2.6009    0.0000 C   0  0  0  0  0  0  0  0  0  0  0  0
    6.4196    0.4793    0.0000 C   0  0  0  0  0  0  0  0  0  0  0  0
    4.9320    0.5987    0.0000 C   0  0  0  0  0  0  0  0  0  0  0  0
    9.0959    2.2462    0.0000 C   0  0  0  0  0  0  0  0  0  0  0  0
    2.0000   -0.7084    0.0000 C   0  0  0  0  0  0  0  0  0  0  0  0
    2.2999   -1.8451    0.0000 C   0  0  0  0  0  0  0  0  0  0  0  0
    6.5125    4.1517    0.0000 C   0  0  0  0  0  0  0  0  0  0  0  0
    5.6717    3.3302    0.0000 C   0  0  0  0  0  0  0  0  0  0  0  0
    3.2096   -0.1142    0.0000 C   0  0  0  0  0  0  0  0  0  0  0  0
    7.6261    3.3926    0.0000 C   0  0  0  0  0  0  0  0  0  0  0  0
    5.8019   -1.6242    0.0000 C   0  0  0  0  0  0  0  0  0  0  0  0
    7.5914    0.3928    0.0000 C   0  0  0  0  0  0  0  0  0  0  0  0
    7.5340   -1.6309    0.0000 C   0  0  3  0  0  0  0  0  0  0  0  0
    8.4400   -1.1171    0.0000 C   0  0  3  0  0  0  0  0  0  0  0  0
    7.5340   -2.6726    0.0000 C   0  0  0  0  0  0  0  0  0  0  0  0
    9.3340   -1.6517    0.0000 C   0  0  0  0  0  0  0  0  0  0  0  0
    9.3340   -2.6517    0.0000 C   0  0  0  0  0  0  0  0  0  0  0  0
    7.0373   -3.5405    0.0000 C   0  0  0  0  0  0  0  0  0  0  0  0
    6.5340   -2.6764    0.0000 C   0  0  0  0  0  0  0  0  0  0  0  0
   10.2000   -1.1517    0.0000 C   0  0  0  0  0  0  0  0  0  0  0  0
   10.2000   -3.1517    0.0000 C   0  0  0  0  0  0  0  0  0  0  0  0
   11.0660   -1.6517    0.0000 C   0  0  0  0  0  0  0  0  0  0  0  0
   11.0660   -2.6517    0.0000 C   0  0  0  0  0  0  0  0  0  0  0  0
   10.2000   -4.1517    0.0000 C   0  0  0  0  0  0  0  0  0  0  0  0
   11.9760   -1.1449    0.0000 C   0  0  0  0  0  0  0  0  0  0  0  0
   11.0820    0.4175    0.0000 C   0  0  0  0  0  0  0  0  0  0  0  0
   11.9840   -0.1033    0.0000 C   0  0  0  0  0  0  0  0  0  0  0  0
    3.5330   -2.7171    0.0000 H   0  0  0  0  0  0  0  0  0  0  0  0
    4.1944   -3.3028    0.0000 H   0  0  0  0  0  0  0  0  0  0  0  0
    5.5215    1.8273    0.0000 H   0  0  0  0  0  0  0  0  0  0  0  0
    5.3384    0.9631    0.0000 H   0  0  0  0  0  0  0  0  0  0  0  0
    5.2123   -3.2176    0.0000 H   0  0  0  0  0  0  0  0  0  0  0  0
    5.7641   -2.5253    0.0000 H   0  0  0  0  0  0  0  0  0  0  0  0
    5.9145    0.1197    0.0000 H   0  0  0  0  0  0  0  0  0  0  0  0
    6.7889   -0.0188    0.0000 H   0  0  0  0  0  0  0  0  0  0  0  0
    2.2244   -0.1305    0.0000 H   0  0  0  0  0  0  0  0  0  0  0  0
    1.4220   -0.4840    0.0000 H   0  0  0  0  0  0  0  0  0  0  0  0
    1.7756   -1.2864    0.0000 H   0  0  0  0  0  0  0  0  0  0  0  0
    1.8196   -1.4531    0.0000 H   0  0  0  0  0  0  0  0  0  0  0  0
    1.9078   -2.3254    0.0000 H   0  0  0  0  0  0  0  0  0  0  0  0
    2.7802   -2.2371    0.0000 H   0  0  0  0  0  0  0  0  0  0  0  0
    7.1260    4.2416    0.0000 H   0  0  0  0  0  0  0  0  0  0  0  0
    6.4226    4.7652    0.0000 H   0  0  0  0  0  0  0  0  0  0  0  0
    5.8991    4.0618    0.0000 H   0  0  0  0  0  0  0  0  0  0  0  0
    5.7758    3.9414    0.0000 H   0  0  0  0  0  0  0  0  0  0  0  0
    5.0605    3.4342    0.0000 H   0  0  0  0  0  0  0  0  0  0  0  0
    5.5676    2.7190    0.0000 H   0  0  0  0  0  0  0  0  0  0  0  0
    3.5217    0.4215    0.0000 H   0  0  0  0  0  0  0  0  0  0  0  0
    2.6739    0.1978    0.0000 H   0  0  0  0  0  0  0  0  0  0  0  0
    2.8976   -0.6500    0.0000 H   0  0  0  0  0  0  0  0  0  0  0  0
    8.2460    3.3855    0.0000 H   0  0  0  0  0  0  0  0  0  0  0  0
    7.6332    4.0126    0.0000 H   0  0  0  0  0  0  0  0  0  0  0  0
    7.0061    3.3998    0.0000 H   0  0  0  0  0  0  0  0  0  0  0  0
    6.9964   -1.9399    0.0000 H   0  0  0  0  0  0  0  0  0  0  0  0
    8.9811   -0.8143    0.0000 H   0  0  0  0  0  0  0  0  0  0  0  0
    6.4992   -3.2326    0.0000 H   0  0  0  0  0  0  0  0  0  0  0  0
    6.7294   -4.0786    0.0000 H   0  0  0  0  0  0  0  0  0  0  0  0
    7.5754   -3.8484    0.0000 H   0  0  0  0  0  0  0  0  0  0  0  0
    6.5316   -2.0564    0.0000 H   0  0  0  0  0  0  0  0  0  0  0  0
    5.9140   -2.6788    0.0000 H   0  0  0  0  0  0  0  0  0  0  0  0
    6.5364   -3.2964    0.0000 H   0  0  0  0  0  0  0  0  0  0  0  0
   11.6029   -2.9617    0.0000 H   0  0  0  0  0  0  0  0  0  0  0  0
    9.5800   -4.1517    0.0000 H   0  0  0  0  0  0  0  0  0  0  0  0
   10.2000   -4.7717    0.0000 H   0  0  0  0  0  0  0  0  0  0  0  0
   10.8200   -4.1517    0.0000 H   0  0  0  0  0  0  0  0  0  0  0  0
   12.5093   -1.4611    0.0000 H   0  0  0  0  0  0  0  0  0  0  0  0
   12.5222    0.2046    0.0000 H   0  0  0  0  0  0  0  0  0  0  0  0
  1 16  1  0  0  0  0
  1 22  1  0  0  0  0
  2 17  1  0  0  0  0
  2 23  1  0  0  0  0
  3 30  1  0  0  0  0
  3 32  1  0  0  0  0
  4 31  1  0  0  0  0
  4 33  1  0  0  0  0
  5 22  2  0  0  0  0
  6 23  2  0  0  0  0
  7 30  2  0  0  0  0
  8 31  2  0  0  0  0
  9 34  1  0  0  0  0
  9 36  1  0  0  0  0
 10 39  1  0  0  0  0
 10 45  1  0  0  0  0
 11 45  2  0  0  0  0
 12 14  1  0  0  0  0
 12 16  1  0  0  0  0
 12 24  1  0  0  0  0
 12 25  1  0  0  0  0
 13 15  1  0  0  0  0
 13 17  1  0  0  0  0
 13 26  1  0  0  0  0
 13 27  1  0  0  0  0
 14 18  1  0  0  0  0
 14 22  1  0  0  0  0
 14 28  1  0  0  0  0
 15 19  1  0  0  0  0
 15 23  1  0  0  0  0
 15 29  1  0  0  0  0
 16 20  1  0  0  0  0
 16 30  1  0  0  0  0
 17 21  1  0  0  0  0
 17 31  1  0  0  0  0
 18 20  1  0  0  0  0
 18 47  1  0  0  0  0
 18 48  1  0  0  0  0
 19 21  1  0  0  0  0
 19 49  1  0  0  0  0
 19 50  1  0  0  0  0
 20 51  1  0  0  0  0
 20 52  1  0  0  0  0
 21 53  1  0  0  0  0
 21 54  1  0  0  0  0
 24 55  1  0  0  0  0
 24 56  1  0  0  0  0
 24 57  1  0  0  0  0
 25 58  1  0  0  0  0
 25 59  1  0  0  0  0
 25 60  1  0  0  0  0
 26 61  1  0  0  0  0
 26 62  1  0  0  0  0
 26 63  1  0  0  0  0
 27 64  1  0  0  0  0
 27 65  1  0  0  0  0
 27 66  1  0  0  0  0
 28 67  1  0  0  0  0
 28 68  1  0  0  0  0
 28 69  1  0  0  0  0
 29 70  1  0  0  0  0
 29 71  1  0  0  0  0
 29 72  1  0  0  0  0
 32 33  1  0  0  0  0
 32 34  1  0  0  0  0
 32 73  1  0  0  0  0
 33 35  1  0  0  0  0
 33 74  1  0  0  0  0
 34 37  1  0  0  0  0
 34 38  1  0  0  0  0
 35 36  2  0  0  0  0
 35 39  1  0  0  0  0
 36 40  1  0  0  0  0
 37 75  1  0  0  0  0
 37 76  1  0  0  0  0
 37 77  1  0  0  0  0
 38 78  1  0  0  0  0
 38 79  1  0  0  0  0
 38 80  1  0  0  0  0
 39 41  2  0  0  0  0
 40 42  2  0  0  0  0
 40 43  1  0  0  0  0
 41 42  1  0  0  0  0
 41 44  1  0  0  0  0
 42 81  1  0  0  0  0
 43 82  1  0  0  0  0
 43 83  1  0  0  0  0
 43 84  1  0  0  0  0
 44 46  2  0  0  0  0
 44 85  1  0  0  0  0
 45 46  1  0  0  0  0
 46 86  1  0  0  0  0
M  END
> <PUBCHEM_COMPOUND_CID>
500394
> <PUBCHEM_COMPOUND_CANONICALIZED>
1
> <PUBCHEM_CACTVS_COMPLEXITY>
1480
> <PUBCHEM_CACTVS_HBOND_ACCEPTOR>
11
> <PUBCHEM_CACTVS_HBOND_DONOR>
0
> <PUBCHEM_CACTVS_ROTATABLE_BOND>
6
> <PUBCHEM_CACTVS_SUBSKEYS>
AAADcfB8PAAAAAAAAAAAAAAAAAAAAaNECAA0SJECAAAAAACRAAAAGgAAAAAADlSgmAIyDoAABACIAiDSCAICCAAgIAAIiAFECMgNJzKEMR6COiClwBUKqYfK7vzPoAACCAAIAABAAAQQABAAAYAADAAAAA==
> <PUBCHEM_IUPAC_OPENEYE_NAME>
[6,8,8-trimethyl-2-oxo-9-(4,7,7-trimethyl-3-oxo-2-oxabicyclo[2.2.1]heptane-1-carbonyl)oxy-9,10-dihydropyrano[2,3-f]chromen-10-yl] 4,7,7-trimethyl-3-oxo-2-oxabicyclo[2.2.1]heptane-1-carboxylate
> <PUBCHEM_IUPAC_CAS_NAME>
4,7,7-trimethyl-3-oxo-2-oxabicyclo[2.2.1]heptane-1-carboxylic acid [6,8,8-trimethyl-2-oxo-9-[oxo-(4,7,7-trimethyl-3-oxo-2-oxabicyclo[2.2.1]heptan-1-yl)methoxy]-9,10-dihydropyrano[2,3-f][1]benzopyran-10-yl] ester
> <PUBCHEM_IUPAC_NAME_MARKUP>
[6,8,8-trimethyl-2-oxo-9-(4,7,7-trimethyl-3-oxo-2-oxabicyclo[2.2.1]heptane-1-carbonyl)oxy-9,10-dihydropyrano[2,3-f]chromen-10-yl] 4,7,7-trimethyl-3-oxo-2-oxabicyclo[2.2.1]heptane-1-carboxylate
> <PUBCHEM_IUPAC_NAME>
[6,8,8-trimethyl-2-oxo-9-(4,7,7-trimethyl-3-oxo-2-oxabicyclo[2.2.1]heptane-1-carbonyl)oxy-9,10-dihydropyrano[2,3-f]chromen-10-yl] 4,7,7-trimethyl-3-oxo-2-oxabicyclo[2.2.1]heptane-1-carboxylate
> <PUBCHEM_IUPAC_SYSTEMATIC_NAME>
[6,8,8-trimethyl-2-oxidanylidene-9-[(4,7,7-trimethyl-3-oxidanylidene-2-oxabicyclo[2.2.1]heptan-1-yl)carbonyloxy]-9,10-dihydropyrano[2,3-f]chromen-10-yl] 4,7,7-trimethyl-3-oxidanylidene-2-oxabicyclo[2.2.1]heptane-1-carboxylate
> <PUBCHEM_IUPAC_TRADITIONAL_NAME>
3-keto-4,7,7-trimethyl-2-oxabicyclo[2.2.1]heptane-1-carboxylic acid [2-keto-9-(3-keto-4,7,7-trimethyl-2-oxabicyclo[2.2.1]heptane-1-carbonyl)oxy-6,8,8-trimethyl-9,10-dihydropyrano[2,3-f]chromen-10-yl] ester
> <PUBCHEM_IUPAC_INCHI>
InChI=1S/C35H40O11/c1-17-16-18-10-11-19(36)41-22(18)20-21(17)44-29(2,3)24(43-28(40)35-15-13-33(9,26(38)46-35)31(35,6)7)23(20)42-27(39)34-14-12-32(8,25(37)45-34)30(34,4)5/h10-11,16,23-24H,12-15H2,1-9H3
> <PUBCHEM_IUPAC_INCHIKEY>
GXSSXFWLNIQEHQ-UHFFFAOYSA-N
> <PUBCHEM_XLOGP3_AA>
5.4
> <PUBCHEM_EXACT_MASS>
636.25706209
> <PUBCHEM_MOLECULAR_FORMULA>
C35H40O11
> <PUBCHEM_MOLECULAR_WEIGHT>
636.7
> <PUBCHEM_OPENEYE_CAN_SMILES>
CC1=CC2=C(C3=C1OC(C(C3OC(=O)C45CCC(C4(C)C)(C(=O)O5)C)OC(=O)C67CCC(C6(C)C)(C(=O)O7)C)(C)C)OC(=O)C=C2
> <PUBCHEM_OPENEYE_ISO_SMILES>
CC1=CC2=C(C3=C1OC(C(C3OC(=O)C45CCC(C4(C)C)(C(=O)O5)C)OC(=O)C67CCC(C6(C)C)(C(=O)O7)C)(C)C)OC(=O)C=C2
> <PUBCHEM_CACTVS_TPSA>
141
> <PUBCHEM_MONOISOTOPIC_WEIGHT>
636.25706209
> <PUBCHEM_TOTAL_CHARGE>
0
> <PUBCHEM_HEAVY_ATOM_COUNT>
46
> <PUBCHEM_ATOM_DEF_STEREO_COUNT>
0
> <PUBCHEM_ATOM_UDEF_STEREO_COUNT>
6
> <PUBCHEM_BOND_DEF_STEREO_COUNT>
0
> <PUBCHEM_BOND_UDEF_STEREO_COUNT>
0
> <PUBCHEM_ISOTOPIC_ATOM_COUNT>
0
> <PUBCHEM_COMPONENT_COUNT>
1
> <PUBCHEM_CACTVS_TAUTO_COUNT>
-1
> <PUBCHEM_COORDINATE_TYPE>
1
5
255
> <PUBCHEM_BONDANNOTATIONS>
10  39  8
10  45  8
14  28  3
15  29  3
16  30  3
17  31  3
32  3  3
35  36  8
35  39  8
36  40  8
39  41  8
33  4  3
40  42  8
41  42  8
41  44  8
44  46  8
45  46  8
$$$$
