500303
  -OEChem-10302200282D
 25 26  0     1  0  0  0  0  0999 V2000
    4.0823   -3.8815    0.0000 Br  0  0  0  0  0  0  0  0  0  0  0  0
    4.8913    0.7063    0.0000 S   0  0  0  0  0  0  0  0  0  0  0  0
    3.4013    3.3799    0.0000 O   0  0  0  0  0  0  0  0  0  0  0  0
    2.0000    2.3618    0.0000 O   0  0  0  0  0  0  0  0  0  0  0  0
    3.2733    0.7063    0.0000 N   0  0  0  0  0  0  0  0  0  0  0  0
    4.0823    0.1185    0.0000 C   0  0  3  0  0  0  0  0  0  0  0  0
    3.5823    1.6573    0.0000 C   0  0  3  0  0  0  0  0  0  0  0  0
    4.5823    1.6573    0.0000 C   0  0  0  0  0  0  0  0  0  0  0  0
    4.0823   -0.8815    0.0000 C   0  0  0  0  0  0  0  0  0  0  0  0
    2.9945    2.4664    0.0000 C   0  0  0  0  0  0  0  0  0  0  0  0
    3.2163   -1.3815    0.0000 C   0  0  0  0  0  0  0  0  0  0  0  0
    4.9483   -1.3815    0.0000 C   0  0  0  0  0  0  0  0  0  0  0  0
    3.2163   -2.3815    0.0000 C   0  0  0  0  0  0  0  0  0  0  0  0
    4.9483   -2.3815    0.0000 C   0  0  0  0  0  0  0  0  0  0  0  0
    4.0823   -2.8815    0.0000 C   0  0  0  0  0  0  0  0  0  0  0  0
    4.6347   -0.1630    0.0000 H   0  0  0  0  0  0  0  0  0  0  0  0
    2.9699    1.5603    0.0000 H   0  0  0  0  0  0  0  0  0  0  0  0
    5.1888    1.7862    0.0000 H   0  0  0  0  0  0  0  0  0  0  0  0
    4.5175    2.2740    0.0000 H   0  0  0  0  0  0  0  0  0  0  0  0
    2.6836    0.5147    0.0000 H   0  0  0  0  0  0  0  0  0  0  0  0
    2.6794   -1.0715    0.0000 H   0  0  0  0  0  0  0  0  0  0  0  0
    5.4853   -1.0715    0.0000 H   0  0  0  0  0  0  0  0  0  0  0  0
    2.6794   -2.6915    0.0000 H   0  0  0  0  0  0  0  0  0  0  0  0
    5.4853   -2.6915    0.0000 H   0  0  0  0  0  0  0  0  0  0  0  0
    3.0368    3.8815    0.0000 H   0  0  0  0  0  0  0  0  0  0  0  0
  1 15  1  0  0  0  0
  2  6  1  0  0  0  0
  2  8  1  0  0  0  0
  3 10  1  0  0  0  0
  3 25  1  0  0  0  0
  4 10  2  0  0  0  0
  5  6  1  0  0  0  0
  5  7  1  0  0  0  0
  5 20  1  0  0  0  0
  6  9  1  0  0  0  0
  6 16  1  0  0  0  0
  7  8  1  0  0  0  0
  7 10  1  0  0  0  0
  7 17  1  0  0  0  0
  8 18  1  0  0  0  0
  8 19  1  0  0  0  0
  9 11  2  0  0  0  0
  9 12  1  0  0  0  0
 11 13  1  0  0  0  0
 11 21  1  0  0  0  0
 12 14  2  0  0  0  0
 12 22  1  0  0  0  0
 13 15  2  0  0  0  0
 13 23  1  0  0  0  0
 14 15  1  0  0  0  0
 14 24  1  0  0  0  0
M  END
> <PUBCHEM_COMPOUND_CID>
500303
> <PUBCHEM_COMPOUND_CANONICALIZED>
1
> <PUBCHEM_CACTVS_COMPLEXITY>
244
> <PUBCHEM_CACTVS_HBOND_ACCEPTOR>
4
> <PUBCHEM_CACTVS_HBOND_DONOR>
2
> <PUBCHEM_CACTVS_ROTATABLE_BOND>
2
> <PUBCHEM_CACTVS_SUBSKEYS>
AAADccByMABAEAAAAAAAAAAAAAAAAWAAAAAwAAAAAAAAAAABAAAAHgRQCAABrCjF2ASwCILAAgiIAiDSCACCAABgABQIiIGIBKgKICKgkTGEYAhgkAC4ihcQgAAOAgAAAAAAAAAEAAAAAAAAAAAAAAAAAA==
> <PUBCHEM_IUPAC_OPENEYE_NAME>
2-(4-bromophenyl)thiazolidine-4-carboxylic acid
> <PUBCHEM_IUPAC_CAS_NAME>
2-(4-bromophenyl)-4-thiazolidinecarboxylic acid
> <PUBCHEM_IUPAC_NAME_MARKUP>
2-(4-bromophenyl)-1,3-thiazolidine-4-carboxylic acid
> <PUBCHEM_IUPAC_NAME>
2-(4-bromophenyl)-1,3-thiazolidine-4-carboxylic acid
> <PUBCHEM_IUPAC_SYSTEMATIC_NAME>
2-(4-bromophenyl)-1,3-thiazolidine-4-carboxylic acid
> <PUBCHEM_IUPAC_TRADITIONAL_NAME>
2-(4-bromophenyl)thiazolidine-4-carboxylic acid
> <PUBCHEM_IUPAC_INCHI>
InChI=1S/C10H10BrNO2S/c11-7-3-1-6(2-4-7)9-12-8(5-15-9)10(13)14/h1-4,8-9,12H,5H2,(H,13,14)
> <PUBCHEM_IUPAC_INCHIKEY>
TYLJHTCYCWHWRG-UHFFFAOYSA-N
> <PUBCHEM_XLOGP3_AA>
-0.1
> <PUBCHEM_EXACT_MASS>
286.96156
> <PUBCHEM_MOLECULAR_FORMULA>
C10H10BrNO2S
> <PUBCHEM_MOLECULAR_WEIGHT>
288.16
> <PUBCHEM_OPENEYE_CAN_SMILES>
C1C(NC(S1)C2=CC=C(C=C2)Br)C(=O)O
> <PUBCHEM_OPENEYE_ISO_SMILES>
C1C(NC(S1)C2=CC=C(C=C2)Br)C(=O)O
> <PUBCHEM_CACTVS_TPSA>
74.6
> <PUBCHEM_MONOISOTOPIC_WEIGHT>
286.96156
> <PUBCHEM_TOTAL_CHARGE>
0
> <PUBCHEM_HEAVY_ATOM_COUNT>
15
> <PUBCHEM_ATOM_DEF_STEREO_COUNT>
0
> <PUBCHEM_ATOM_UDEF_STEREO_COUNT>
2
> <PUBCHEM_BOND_DEF_STEREO_COUNT>
0
> <PUBCHEM_BOND_UDEF_STEREO_COUNT>
0
> <PUBCHEM_ISOTOPIC_ATOM_COUNT>
0
> <PUBCHEM_COMPONENT_COUNT>
1
> <PUBCHEM_CACTVS_TAUTO_COUNT>
-1
> <PUBCHEM_COORDINATE_TYPE>
1
5
255
> <PUBCHEM_BONDANNOTATIONS>
11  13  8
12  14  8
13  15  8
14  15  8
6  9  3
7  10  3
9  11  8
9  12  8
$$$$
