500367
  -OEChem-10302200282D
 39 40  0     1  0  0  0  0  0999 V2000
    4.1338    3.1285    0.0000 Cl  0  0  0  0  0  0  0  0  0  0  0  0
    3.6270    4.4488    0.0000 Cl  0  0  0  0  0  0  0  0  0  0  0  0
    2.3067    3.9420    0.0000 Cl  0  0  0  0  0  0  0  0  0  0  0  0
    3.4013    1.8126    0.0000 O   0  0  0  0  0  0  0  0  0  0  0  0
    2.0000    0.7946    0.0000 O   0  0  0  0  0  0  0  0  0  0  0  0
    3.5823    0.0901    0.0000 N   0  0  0  0  0  0  0  0  0  0  0  0
    4.0823   -2.4488    0.0000 C   0  0  0  0  0  0  0  0  0  0  0  0
    4.0823   -1.4488    0.0000 C   0  0  3  0  0  0  0  0  0  0  0  0
    4.8913   -0.8610    0.0000 C   0  0  0  0  0  0  0  0  0  0  0  0
    3.2163   -2.9488    0.0000 C   0  0  0  0  0  0  0  0  0  0  0  0
    4.9483   -2.9488    0.0000 C   0  0  0  0  0  0  0  0  0  0  0  0
    3.2733   -0.8610    0.0000 C   0  0  0  0  0  0  0  0  0  0  0  0
    4.5823    0.0901    0.0000 C   0  0  0  0  0  0  0  0  0  0  0  0
    3.2163   -3.9488    0.0000 C   0  0  0  0  0  0  0  0  0  0  0  0
    4.9483   -3.9488    0.0000 C   0  0  0  0  0  0  0  0  0  0  0  0
    4.0823   -4.4488    0.0000 C   0  0  0  0  0  0  0  0  0  0  0  0
    2.9945    0.8991    0.0000 C   0  0  0  0  0  0  0  0  0  0  0  0
    2.8135    2.6217    0.0000 C   0  0  0  0  0  0  0  0  0  0  0  0
    3.2202    3.5352    0.0000 C   0  0  0  0  0  0  0  0  0  0  0  0
    3.5454   -2.1388    0.0000 H   0  0  0  0  0  0  0  0  0  0  0  0
    4.6347   -1.7302    0.0000 H   0  0  0  0  0  0  0  0  0  0  0  0
    5.2013   -1.3979    0.0000 H   0  0  0  0  0  0  0  0  0  0  0  0
    5.4577   -0.6088    0.0000 H   0  0  0  0  0  0  0  0  0  0  0  0
    3.0042   -2.3662    0.0000 H   0  0  0  0  0  0  0  0  0  0  0  0
    2.6057   -3.0564    0.0000 H   0  0  0  0  0  0  0  0  0  0  0  0
    5.5589   -3.0564    0.0000 H   0  0  0  0  0  0  0  0  0  0  0  0
    5.1604   -2.3662    0.0000 H   0  0  0  0  0  0  0  0  0  0  0  0
    2.7069   -0.6088    0.0000 H   0  0  0  0  0  0  0  0  0  0  0  0
    2.9633   -1.3979    0.0000 H   0  0  0  0  0  0  0  0  0  0  0  0
    5.1888    0.2190    0.0000 H   0  0  0  0  0  0  0  0  0  0  0  0
    4.5175    0.7067    0.0000 H   0  0  0  0  0  0  0  0  0  0  0  0
    2.6057   -3.8411    0.0000 H   0  0  0  0  0  0  0  0  0  0  0  0
    3.0042   -4.5314    0.0000 H   0  0  0  0  0  0  0  0  0  0  0  0
    5.1604   -4.5314    0.0000 H   0  0  0  0  0  0  0  0  0  0  0  0
    5.5589   -3.8411    0.0000 H   0  0  0  0  0  0  0  0  0  0  0  0
    3.6838   -4.9237    0.0000 H   0  0  0  0  0  0  0  0  0  0  0  0
    4.4808   -4.9237    0.0000 H   0  0  0  0  0  0  0  0  0  0  0  0
    2.2995    2.9684    0.0000 H   0  0  0  0  0  0  0  0  0  0  0  0
    2.3828    2.1757    0.0000 H   0  0  0  0  0  0  0  0  0  0  0  0
  1 19  1  0  0  0  0
  2 19  1  0  0  0  0
  3 19  1  0  0  0  0
  4 17  1  0  0  0  0
  4 18  1  0  0  0  0
  5 17  2  0  0  0  0
  6 12  1  0  0  0  0
  6 13  1  0  0  0  0
  6 17  1  0  0  0  0
  7  8  1  0  0  0  0
  7 10  1  0  0  0  0
  7 11  1  0  0  0  0
  7 20  1  0  0  0  0
  8  9  1  0  0  0  0
  8 12  1  0  0  0  0
  8 21  1  0  0  0  0
  9 13  1  0  0  0  0
  9 22  1  0  0  0  0
  9 23  1  0  0  0  0
 10 14  1  0  0  0  0
 10 24  1  0  0  0  0
 10 25  1  0  0  0  0
 11 15  1  0  0  0  0
 11 26  1  0  0  0  0
 11 27  1  0  0  0  0
 12 28  1  0  0  0  0
 12 29  1  0  0  0  0
 13 30  1  0  0  0  0
 13 31  1  0  0  0  0
 14 16  1  0  0  0  0
 14 32  1  0  0  0  0
 14 33  1  0  0  0  0
 15 16  1  0  0  0  0
 15 34  1  0  0  0  0
 15 35  1  0  0  0  0
 16 36  1  0  0  0  0
 16 37  1  0  0  0  0
 18 19  1  0  0  0  0
 18 38  1  0  0  0  0
 18 39  1  0  0  0  0
M  END
> <PUBCHEM_COMPOUND_CID>
500367
> <PUBCHEM_COMPOUND_CANONICALIZED>
1
> <PUBCHEM_CACTVS_COMPLEXITY>
314
> <PUBCHEM_CACTVS_HBOND_ACCEPTOR>
2
> <PUBCHEM_CACTVS_HBOND_DONOR>
0
> <PUBCHEM_CACTVS_ROTATABLE_BOND>
3
> <PUBCHEM_CACTVS_SUBSKEYS>
AAADceByMAAGAAAAAAAAAAAAAAAAAWAAAAAwAAAAAAAAAAAAAAAAHgIAAAAADQLhgIYACAMABAAIAAAAGAAAAAAAAAAAAAAIAQAAAAIAgAAMAAAABgCAAAEQgMAOgAAAAAAAAAAAAAAAAAAAAAAAAAAAAA==
> <PUBCHEM_IUPAC_OPENEYE_NAME>
2,2,2-trichloroethyl 3-cyclohexylpyrrolidine-1-carboxylate
> <PUBCHEM_IUPAC_CAS_NAME>
3-cyclohexyl-1-pyrrolidinecarboxylic acid 2,2,2-trichloroethyl ester
> <PUBCHEM_IUPAC_NAME_MARKUP>
2,2,2-trichloroethyl 3-cyclohexylpyrrolidine-1-carboxylate
> <PUBCHEM_IUPAC_NAME>
2,2,2-trichloroethyl 3-cyclohexylpyrrolidine-1-carboxylate
> <PUBCHEM_IUPAC_SYSTEMATIC_NAME>
2,2,2-tris(chloranyl)ethyl 3-cyclohexylpyrrolidine-1-carboxylate
> <PUBCHEM_IUPAC_TRADITIONAL_NAME>
3-cyclohexylpyrrolidine-1-carboxylic acid 2,2,2-trichloroethyl ester
> <PUBCHEM_IUPAC_INCHI>
InChI=1S/C13H20Cl3NO2/c14-13(15,16)9-19-12(18)17-7-6-11(8-17)10-4-2-1-3-5-10/h10-11H,1-9H2
> <PUBCHEM_IUPAC_INCHIKEY>
GZKGPCKVFMKVNB-UHFFFAOYSA-N
> <PUBCHEM_XLOGP3_AA>
5.1
> <PUBCHEM_EXACT_MASS>
327.055962
> <PUBCHEM_MOLECULAR_FORMULA>
C13H20Cl3NO2
> <PUBCHEM_MOLECULAR_WEIGHT>
328.7
> <PUBCHEM_OPENEYE_CAN_SMILES>
C1CCC(CC1)C2CCN(C2)C(=O)OCC(Cl)(Cl)Cl
> <PUBCHEM_OPENEYE_ISO_SMILES>
C1CCC(CC1)C2CCN(C2)C(=O)OCC(Cl)(Cl)Cl
> <PUBCHEM_CACTVS_TPSA>
29.5
> <PUBCHEM_MONOISOTOPIC_WEIGHT>
327.055962
> <PUBCHEM_TOTAL_CHARGE>
0
> <PUBCHEM_HEAVY_ATOM_COUNT>
19
> <PUBCHEM_ATOM_DEF_STEREO_COUNT>
0
> <PUBCHEM_ATOM_UDEF_STEREO_COUNT>
1
> <PUBCHEM_BOND_DEF_STEREO_COUNT>
0
> <PUBCHEM_BOND_UDEF_STEREO_COUNT>
0
> <PUBCHEM_ISOTOPIC_ATOM_COUNT>
0
> <PUBCHEM_COMPONENT_COUNT>
1
> <PUBCHEM_CACTVS_TAUTO_COUNT>
-1
> <PUBCHEM_COORDINATE_TYPE>
1
5
255
> <PUBCHEM_BONDANNOTATIONS>
8  7  3
$$$$
