500372
  -OEChem-10302200282D
 53 56  0     1  0  0  0  0  0999 V2000
    6.8079   -0.7227    0.0000 O   0  0  0  0  0  0  0  0  0  0  0  0
    6.0709    0.9444    0.0000 O   0  0  0  0  0  0  0  0  0  0  0  0
    5.4141   -1.5274    0.0000 O   0  0  0  0  0  0  0  0  0  0  0  0
    3.3926   -0.3603    0.0000 O   0  0  0  0  0  0  0  0  0  0  0  0
    3.3926    1.2491    0.0000 O   0  0  0  0  0  0  0  0  0  0  0  0
    7.0414    1.4389    0.0000 O   0  0  0  0  0  0  0  0  0  0  0  0
    8.5196    0.7808    0.0000 O   0  0  0  0  0  0  0  0  0  0  0  0
    9.0094   -1.2495    0.0000 O   0  0  0  0  0  0  0  0  0  0  0  0
    6.0709   -0.0556    0.0000 C   0  0  3  0  0  0  0  0  0  0  0  0
    5.2049   -0.5556    0.0000 C   0  0  3  0  0  0  0  0  0  0  0  0
    4.3388   -0.0556    0.0000 C   0  0  3  0  0  0  0  0  0  0  0  0
    6.9369    0.4444    0.0000 C   0  0  3  0  0  0  0  0  0  0  0  0
    4.3388    0.9444    0.0000 C   0  0  3  0  0  0  0  0  0  0  0  0
    6.4028   -1.6305    0.0000 C   0  0  0  0  0  0  0  0  0  0  0  0
    5.2049    1.4444    0.0000 C   0  0  0  0  0  0  0  0  0  0  0  0
    7.8505    0.0377    0.0000 C   0  0  3  0  0  0  0  0  0  0  0  0
    2.8090    0.4444    0.0000 C   0  0  0  0  0  0  0  0  0  0  0  0
    8.0196    1.6468    0.0000 C   0  0  0  0  0  0  0  0  0  0  0  0
    6.2983   -2.6250    0.0000 C   0  0  0  0  0  0  0  0  0  0  0  0
    7.3163   -2.0372    0.0000 C   0  0  0  0  0  0  0  0  0  0  0  0
    8.0584   -0.9405    0.0000 C   0  0  0  0  0  0  0  0  0  0  0  0
    2.0000    1.0322    0.0000 C   0  0  0  0  0  0  0  0  0  0  0  0
    2.0000   -0.1434    0.0000 C   0  0  0  0  0  0  0  0  0  0  0  0
    8.8856    2.1468    0.0000 C   0  0  0  0  0  0  0  0  0  0  0  0
    7.8117    2.6250    0.0000 C   0  0  0  0  0  0  0  0  0  0  0  0
    4.7038   -0.9207    0.0000 H   0  0  0  0  0  0  0  0  0  0  0  0
    4.2732   -0.6721    0.0000 H   0  0  0  0  0  0  0  0  0  0  0  0
    7.4739    0.7544    0.0000 H   0  0  0  0  0  0  0  0  0  0  0  0
    4.2732    1.5609    0.0000 H   0  0  0  0  0  0  0  0  0  0  0  0
    5.6034    1.9194    0.0000 H   0  0  0  0  0  0  0  0  0  0  0  0
    4.8063    1.9194    0.0000 H   0  0  0  0  0  0  0  0  0  0  0  0
    8.4493   -0.1228    0.0000 H   0  0  0  0  0  0  0  0  0  0  0  0
    5.6817   -2.5602    0.0000 H   0  0  0  0  0  0  0  0  0  0  0  0
    6.2335   -3.2416    0.0000 H   0  0  0  0  0  0  0  0  0  0  0  0
    6.9149   -2.6898    0.0000 H   0  0  0  0  0  0  0  0  0  0  0  0
    7.0642   -2.6036    0.0000 H   0  0  0  0  0  0  0  0  0  0  0  0
    7.8827   -2.2894    0.0000 H   0  0  0  0  0  0  0  0  0  0  0  0
    7.5685   -1.4708    0.0000 H   0  0  0  0  0  0  0  0  0  0  0  0
    7.4388   -0.9621    0.0000 H   0  0  0  0  0  0  0  0  0  0  0  0
    7.9721   -1.5544    0.0000 H   0  0  0  0  0  0  0  0  0  0  0  0
    2.3644    1.5338    0.0000 H   0  0  0  0  0  0  0  0  0  0  0  0
    1.4984    1.3966    0.0000 H   0  0  0  0  0  0  0  0  0  0  0  0
    1.6356    0.5306    0.0000 H   0  0  0  0  0  0  0  0  0  0  0  0
    1.6356    0.3582    0.0000 H   0  0  0  0  0  0  0  0  0  0  0  0
    1.4984   -0.5078    0.0000 H   0  0  0  0  0  0  0  0  0  0  0  0
    2.3644   -0.6450    0.0000 H   0  0  0  0  0  0  0  0  0  0  0  0
    9.1956    1.6099    0.0000 H   0  0  0  0  0  0  0  0  0  0  0  0
    9.4226    2.4568    0.0000 H   0  0  0  0  0  0  0  0  0  0  0  0
    8.5756    2.6838    0.0000 H   0  0  0  0  0  0  0  0  0  0  0  0
    8.4181    2.7539    0.0000 H   0  0  0  0  0  0  0  0  0  0  0  0
    7.6828    3.2314    0.0000 H   0  0  0  0  0  0  0  0  0  0  0  0
    7.2052    2.4961    0.0000 H   0  0  0  0  0  0  0  0  0  0  0  0
    9.1383   -1.8560    0.0000 H   0  0  0  0  0  0  0  0  0  0  0  0
  1  9  1  0  0  0  0
  1 14  1  0  0  0  0
  2  9  1  0  0  0  0
  2 15  1  0  0  0  0
  3 10  1  0  0  0  0
  3 14  1  0  0  0  0
  4 11  1  0  0  0  0
  4 17  1  0  0  0  0
  5 13  1  0  0  0  0
  5 17  1  0  0  0  0
  6 12  1  0  0  0  0
  6 18  1  0  0  0  0
  7 16  1  0  0  0  0
  7 18  1  0  0  0  0
  8 21  1  0  0  0  0
  8 53  1  0  0  0  0
  9 10  1  0  0  0  0
  9 12  1  0  0  0  0
 10 11  1  0  0  0  0
 10 26  1  0  0  0  0
 11 13  1  0  0  0  0
 11 27  1  0  0  0  0
 12 16  1  0  0  0  0
 12 28  1  0  0  0  0
 13 15  1  0  0  0  0
 13 29  1  0  0  0  0
 14 19  1  0  0  0  0
 14 20  1  0  0  0  0
 15 30  1  0  0  0  0
 15 31  1  0  0  0  0
 16 21  1  0  0  0  0
 16 32  1  0  0  0  0
 17 22  1  0  0  0  0
 17 23  1  0  0  0  0
 18 24  1  0  0  0  0
 18 25  1  0  0  0  0
 19 33  1  0  0  0  0
 19 34  1  0  0  0  0
 19 35  1  0  0  0  0
 20 36  1  0  0  0  0
 20 37  1  0  0  0  0
 20 38  1  0  0  0  0
 21 39  1  0  0  0  0
 21 40  1  0  0  0  0
 22 41  1  0  0  0  0
 22 42  1  0  0  0  0
 22 43  1  0  0  0  0
 23 44  1  0  0  0  0
 23 45  1  0  0  0  0
 23 46  1  0  0  0  0
 24 47  1  0  0  0  0
 24 48  1  0  0  0  0
 24 49  1  0  0  0  0
 25 50  1  0  0  0  0
 25 51  1  0  0  0  0
 25 52  1  0  0  0  0
M  END
> <PUBCHEM_COMPOUND_CID>
500372
> <PUBCHEM_COMPOUND_CANONICALIZED>
1
> <PUBCHEM_CACTVS_COMPLEXITY>
547
> <PUBCHEM_CACTVS_HBOND_ACCEPTOR>
8
> <PUBCHEM_CACTVS_HBOND_DONOR>
1
> <PUBCHEM_CACTVS_ROTATABLE_BOND>
2
> <PUBCHEM_CACTVS_SUBSKEYS>
AAADceB4PAAAAAAAAAAAAAAAAAAAASJEgAAkAAAAAAAAAEgAAAAAGgAACAAACBSggAICCAAABgAAAAAAAAAAAAAAAAAAAAAAAAAREAIAAAAiQAAFAAAHAAHA4KwAAAAAAAAAAAAAAAAAAAAAAAAAAAAAAA==
> <PUBCHEM_IUPAC_OPENEYE_NAME>
[2,2-dimethyl-5-(4,4,11,11-tetramethyl-3,5,7,10,12-pentaoxatricyclo[7.3.0.02,6]dodecan-6-yl)-1,3-dioxolan-4-yl]methanol
> <PUBCHEM_IUPAC_CAS_NAME>
[2,2-dimethyl-5-(4,4,11,11-tetramethyl-3,5,7,10,12-pentaoxatricyclo[7.3.0.02,6]dodecan-6-yl)-1,3-dioxolan-4-yl]methanol
> <PUBCHEM_IUPAC_NAME_MARKUP>
[2,2-dimethyl-5-(4,4,11,11-tetramethyl-3,5,7,10,12-pentaoxatricyclo[7.3.0.0<SUP>2,6</SUP>]dodecan-6-yl)-1,3-dioxolan-4-yl]methanol
> <PUBCHEM_IUPAC_NAME>
[2,2-dimethyl-5-(4,4,11,11-tetramethyl-3,5,7,10,12-pentaoxatricyclo[7.3.0.02,6]dodecan-6-yl)-1,3-dioxolan-4-yl]methanol
> <PUBCHEM_IUPAC_SYSTEMATIC_NAME>
[2,2-dimethyl-5-(4,4,11,11-tetramethyl-3,5,7,10,12-pentaoxatricyclo[7.3.0.02,6]dodecan-6-yl)-1,3-dioxolan-4-yl]methanol
> <PUBCHEM_IUPAC_TRADITIONAL_NAME>
[2,2-dimethyl-5-(4,4,11,11-tetramethyl-3,5,7,10,12-pentaoxatricyclo[7.3.0.02,6]dodecan-6-yl)-1,3-dioxolan-4-yl]methanol
> <PUBCHEM_IUPAC_INCHI>
InChI=1S/C17H28O8/c1-14(2)21-10-8-19-17(12-9(7-18)20-15(3,4)23-12)13(11(10)22-14)24-16(5,6)25-17/h9-13,18H,7-8H2,1-6H3
> <PUBCHEM_IUPAC_INCHIKEY>
TYRFSVLXABMDCR-UHFFFAOYSA-N
> <PUBCHEM_XLOGP3_AA>
0.1
> <PUBCHEM_EXACT_MASS>
360.17841785
> <PUBCHEM_MOLECULAR_FORMULA>
C17H28O8
> <PUBCHEM_MOLECULAR_WEIGHT>
360.4
> <PUBCHEM_OPENEYE_CAN_SMILES>
CC1(OC2COC3(C(C2O1)OC(O3)(C)C)C4C(OC(O4)(C)C)CO)C
> <PUBCHEM_OPENEYE_ISO_SMILES>
CC1(OC2COC3(C(C2O1)OC(O3)(C)C)C4C(OC(O4)(C)C)CO)C
> <PUBCHEM_CACTVS_TPSA>
84.8
> <PUBCHEM_MONOISOTOPIC_WEIGHT>
360.17841785
> <PUBCHEM_TOTAL_CHARGE>
0
> <PUBCHEM_HEAVY_ATOM_COUNT>
25
> <PUBCHEM_ATOM_DEF_STEREO_COUNT>
0
> <PUBCHEM_ATOM_UDEF_STEREO_COUNT>
6
> <PUBCHEM_BOND_DEF_STEREO_COUNT>
0
> <PUBCHEM_BOND_UDEF_STEREO_COUNT>
0
> <PUBCHEM_ISOTOPIC_ATOM_COUNT>
0
> <PUBCHEM_COMPONENT_COUNT>
1
> <PUBCHEM_CACTVS_TAUTO_COUNT>
-1
> <PUBCHEM_COORDINATE_TYPE>
1
5
255
> <PUBCHEM_BONDANNOTATIONS>
13  15  3
16  21  3
10  3  3
11  4  3
12  6  3
9  10  3
$$$$
