500312
  -OEChem-10302200282D
 45 47  0     1  0  0  0  0  0999 V2000
    3.3100   -3.6574    0.0000 F   0  0  0  0  0  0  0  0  0  0  0  0
    2.3100    0.3426    0.0000 O   0  0  0  0  0  0  0  0  0  0  0  0
    6.3100    2.0747    0.0000 N   0  0  0  0  0  0  0  0  0  0  0  0
    7.3045    2.1792    0.0000 C   0  0  0  0  0  0  0  0  0  0  0  0
    5.9033    2.9882    0.0000 C   0  0  0  0  0  0  0  0  0  0  0  0
    7.5124    3.1574    0.0000 C   0  0  0  0  0  0  0  0  0  0  0  0
    6.6464    3.6574    0.0000 C   0  0  0  0  0  0  0  0  0  0  0  0
    5.8100    1.2087    0.0000 C   0  0  0  0  0  0  0  0  0  0  0  0
    3.3100    0.3426    0.0000 C   0  0  3  0  0  0  0  0  0  0  0  0
    4.8100    1.2087    0.0000 C   0  4  0  0  0  0  0  0  0  0  0  0
    4.3100    0.3426    0.0000 C   0  4  0  0  0  0  0  0  0  0  0  0
    3.3100   -0.6574    0.0000 C   0  0  0  0  0  0  0  0  0  0  0  0
    3.3100    1.3426    0.0000 C   0  0  0  0  0  0  0  0  0  0  0  0
    2.4440   -1.1574    0.0000 C   0  0  0  0  0  0  0  0  0  0  0  0
    4.1760   -1.1574    0.0000 C   0  0  0  0  0  0  0  0  0  0  0  0
    2.4440    1.8426    0.0000 C   0  0  0  0  0  0  0  0  0  0  0  0
    4.1760    1.8426    0.0000 C   0  0  0  0  0  0  0  0  0  0  0  0
    2.4440   -2.1574    0.0000 C   0  0  0  0  0  0  0  0  0  0  0  0
    4.1760   -2.1574    0.0000 C   0  0  0  0  0  0  0  0  0  0  0  0
    2.4440    2.8426    0.0000 C   0  0  0  0  0  0  0  0  0  0  0  0
    4.1760    2.8426    0.0000 C   0  0  0  0  0  0  0  0  0  0  0  0
    3.3100   -2.6574    0.0000 C   0  0  0  0  0  0  0  0  0  0  0  0
    3.3100    3.3426    0.0000 C   0  0  0  0  0  0  0  0  0  0  0  0
    7.3045    1.5592    0.0000 H   0  0  0  0  0  0  0  0  0  0  0  0
    7.9211    2.1144    0.0000 H   0  0  0  0  0  0  0  0  0  0  0  0
    5.5388    3.4898    0.0000 H   0  0  0  0  0  0  0  0  0  0  0  0
    5.3663    2.6782    0.0000 H   0  0  0  0  0  0  0  0  0  0  0  0
    8.1021    2.9658    0.0000 H   0  0  0  0  0  0  0  0  0  0  0  0
    7.7646    3.7238    0.0000 H   0  0  0  0  0  0  0  0  0  0  0  0
    7.0108    4.1590    0.0000 H   0  0  0  0  0  0  0  0  0  0  0  0
    6.1857    4.0722    0.0000 H   0  0  0  0  0  0  0  0  0  0  0  0
    5.7023    0.5981    0.0000 H   0  0  0  0  0  0  0  0  0  0  0  0
    6.3926    0.9966    0.0000 H   0  0  0  0  0  0  0  0  0  0  0  0
    4.5000    1.7456    0.0000 H   0  0  0  0  0  0  0  0  0  0  0  0
    4.6200   -0.1943    0.0000 H   0  0  0  0  0  0  0  0  0  0  0  0
    1.9070   -0.8474    0.0000 H   0  0  0  0  0  0  0  0  0  0  0  0
    4.7130   -0.8474    0.0000 H   0  0  0  0  0  0  0  0  0  0  0  0
    1.9070    1.5326    0.0000 H   0  0  0  0  0  0  0  0  0  0  0  0
    4.7130    1.5326    0.0000 H   0  0  0  0  0  0  0  0  0  0  0  0
    2.0000    0.8796    0.0000 H   0  0  0  0  0  0  0  0  0  0  0  0
    1.9070   -2.4674    0.0000 H   0  0  0  0  0  0  0  0  0  0  0  0
    4.7130   -2.4674    0.0000 H   0  0  0  0  0  0  0  0  0  0  0  0
    1.9070    3.1526    0.0000 H   0  0  0  0  0  0  0  0  0  0  0  0
    4.7130    3.1526    0.0000 H   0  0  0  0  0  0  0  0  0  0  0  0
    3.3100    3.9626    0.0000 H   0  0  0  0  0  0  0  0  0  0  0  0
  1 22  1  0  0  0  0
  2  9  1  0  0  0  0
  2 40  1  0  0  0  0
  3  4  1  0  0  0  0
  3  5  1  0  0  0  0
  3  8  1  0  0  0  0
  4  6  1  0  0  0  0
  4 24  1  0  0  0  0
  4 25  1  0  0  0  0
  5  7  1  0  0  0  0
  5 26  1  0  0  0  0
  5 27  1  0  0  0  0
  6  7  1  0  0  0  0
  6 28  1  0  0  0  0
  6 29  1  0  0  0  0
  7 30  1  0  0  0  0
  7 31  1  0  0  0  0
  8 10  1  0  0  0  0
  8 32  1  0  0  0  0
  8 33  1  0  0  0  0
  9 11  1  0  0  0  0
  9 12  1  0  0  0  0
  9 13  1  0  0  0  0
 10 11  1  0  0  0  0
 10 34  1  0  0  0  0
 11 35  1  0  0  0  0
 12 14  2  0  0  0  0
 12 15  1  0  0  0  0
 13 16  2  0  0  0  0
 13 17  1  0  0  0  0
 14 18  1  0  0  0  0
 14 36  1  0  0  0  0
 15 19  2  0  0  0  0
 15 37  1  0  0  0  0
 16 20  1  0  0  0  0
 16 38  1  0  0  0  0
 17 21  2  0  0  0  0
 17 39  1  0  0  0  0
 18 22  2  0  0  0  0
 18 41  1  0  0  0  0
 19 22  1  0  0  0  0
 19 42  1  0  0  0  0
 20 23  2  0  0  0  0
 20 43  1  0  0  0  0
 21 23  1  0  0  0  0
 21 44  1  0  0  0  0
 23 45  1  0  0  0  0
M  RAD  2  10   2  11   2
M  END
> <PUBCHEM_COMPOUND_CID>
500312
> <PUBCHEM_COMPOUND_CANONICALIZED>
1
> <PUBCHEM_CACTVS_COMPLEXITY>
344
> <PUBCHEM_CACTVS_HBOND_ACCEPTOR>
3
> <PUBCHEM_CACTVS_HBOND_DONOR>
1
> <PUBCHEM_CACTVS_ROTATABLE_BOND>
6
> <PUBCHEM_CACTVS_SUBSKEYS>
AAADceB6IQAAAAAAAAAAAAAAAAAAAWAAAAAwYAAAAAAAAAABQAAAHwAACAAADETBmAwwAIMAAgCAAiBCAAACAAAgAAAIiAAICIgIJiKAkRCEcAAkwAGImAewwOAOgAAAAAAAAAAAAAAAAAAAAAAAAAAAAA==
> <PUBCHEM_IUPAC_INCHI>
InChI=1S/C20H22FNO/c21-19-11-9-18(10-12-19)20(23,17-7-2-1-3-8-17)13-6-16-22-14-4-5-15-22/h1-3,6-13,23H,4-5,14-16H2
> <PUBCHEM_IUPAC_INCHIKEY>
VAXACHFJEXRUKE-UHFFFAOYSA-N
> <PUBCHEM_XLOGP3_AA>
3.9
> <PUBCHEM_EXACT_MASS>
311.16854249
> <PUBCHEM_MOLECULAR_FORMULA>
C20H22FNO
> <PUBCHEM_MOLECULAR_WEIGHT>
311.4
> <PUBCHEM_OPENEYE_CAN_SMILES>
C1CCN(C1)C[CH][CH]C(C2=CC=CC=C2)(C3=CC=C(C=C3)F)O
> <PUBCHEM_OPENEYE_ISO_SMILES>
C1CCN(C1)C[CH][CH]C(C2=CC=CC=C2)(C3=CC=C(C=C3)F)O
> <PUBCHEM_CACTVS_TPSA>
23.5
> <PUBCHEM_MONOISOTOPIC_WEIGHT>
311.16854249
> <PUBCHEM_TOTAL_CHARGE>
0
> <PUBCHEM_HEAVY_ATOM_COUNT>
23
> <PUBCHEM_ATOM_DEF_STEREO_COUNT>
0
> <PUBCHEM_ATOM_UDEF_STEREO_COUNT>
1
> <PUBCHEM_BOND_DEF_STEREO_COUNT>
0
> <PUBCHEM_BOND_UDEF_STEREO_COUNT>
0
> <PUBCHEM_ISOTOPIC_ATOM_COUNT>
0
> <PUBCHEM_COMPONENT_COUNT>
1
> <PUBCHEM_CACTVS_TAUTO_COUNT>
-1
> <PUBCHEM_COORDINATE_TYPE>
1
5
255
> <PUBCHEM_BONDANNOTATIONS>
12  14  8
12  15  8
13  16  8
13  17  8
14  18  8
15  19  8
16  20  8
17  21  8
18  22  8
19  22  8
9  2  3
20  23  8
21  23  8
$$$$
