500349
  -OEChem-10302200282D
 78 80  0     1  0  0  0  0  0999 V2000
    3.4123   -1.4189    0.0000 Si  0  0  0  0  0  0  0  0  0  0  0  0
    9.2958   -0.3156    0.0000 Si  0  0  0  0  0  0  0  0  0  0  0  0
    5.3415   -1.8205    0.0000 O   0  0  0  0  0  0  0  0  0  0  0  0
    6.3415    0.5844    0.0000 O   0  0  0  0  0  0  0  0  0  0  0  0
    4.0814   -0.6757    0.0000 O   0  0  0  0  0  0  0  0  0  0  0  0
    8.3447   -0.0065    0.0000 O   0  0  0  0  0  0  0  0  0  0  0  0
    7.2075   -3.3205    0.0000 O   0  0  0  0  0  0  0  0  0  0  0  0
    8.0735   -1.8205    0.0000 O   0  0  0  0  0  0  0  0  0  0  0  0
    6.1550    2.4115    0.0000 O   0  0  0  0  0  0  0  0  0  0  0  0
    2.9903    3.8205    0.0000 O   0  0  0  0  0  0  0  0  0  0  0  0
    4.7537    1.3934    0.0000 N   0  0  0  0  0  0  0  0  0  0  0  0
    4.5726    3.1160    0.0000 N   0  0  0  0  0  0  0  0  0  0  0  0
    5.8415   -0.9544    0.0000 C   0  0  3  0  0  0  0  0  0  0  0  0
    5.0325   -0.3667    0.0000 C   0  0  3  0  0  0  0  0  0  0  0  0
    6.3415   -1.8205    0.0000 C   0  0  3  0  0  0  0  0  0  0  0  0
    6.6505   -0.3667    0.0000 C   0  0  3  0  0  0  0  0  0  0  0  0
    5.3415    0.5844    0.0000 C   0  0  3  0  0  0  0  0  0  0  0  0
    7.6016   -0.6757    0.0000 C   0  0  0  0  0  0  0  0  0  0  0  0
    7.2075   -2.3205    0.0000 C   0  0  0  0  0  0  0  0  0  0  0  0
    2.7432   -2.1620    0.0000 C   0  0  0  0  0  0  0  0  0  0  0  0
    2.6691   -0.7497    0.0000 C   0  0  0  0  0  0  0  0  0  0  0  0
    4.1554   -2.0880    0.0000 C   0  0  0  0  0  0  0  0  0  0  0  0
   10.2468   -0.6246    0.0000 C   0  0  0  0  0  0  0  0  0  0  0  0
    5.1604    2.3070    0.0000 C   0  0  0  0  0  0  0  0  0  0  0  0
    3.7592    1.2889    0.0000 C   0  0  0  0  0  0  0  0  0  0  0  0
    2.0741   -2.9052    0.0000 C   0  0  0  0  0  0  0  0  0  0  0  0
    2.0000   -1.4928    0.0000 C   0  0  0  0  0  0  0  0  0  0  0  0
    3.4863   -2.8311    0.0000 C   0  0  0  0  0  0  0  0  0  0  0  0
    9.6048    0.6355    0.0000 C   0  0  0  0  0  0  0  0  0  0  0  0
    8.9867   -1.2666    0.0000 C   0  0  0  0  0  0  0  0  0  0  0  0
   11.1979   -0.9336    0.0000 C   0  0  0  0  0  0  0  0  0  0  0  0
   10.5558    0.3265    0.0000 C   0  0  0  0  0  0  0  0  0  0  0  0
    9.9378   -1.5756    0.0000 C   0  0  0  0  0  0  0  0  0  0  0  0
    3.1714    2.0979    0.0000 C   0  0  0  0  0  0  0  0  0  0  0  0
    8.0735   -3.8205    0.0000 C   0  0  0  0  0  0  0  0  0  0  0  0
    3.5781    3.0114    0.0000 C   0  0  0  0  0  0  0  0  0  0  0  0
    4.9355   -0.9790    0.0000 H   0  0  0  0  0  0  0  0  0  0  0  0
    6.1810   -2.4193    0.0000 H   0  0  0  0  0  0  0  0  0  0  0  0
    7.0889    0.0717    0.0000 H   0  0  0  0  0  0  0  0  0  0  0  0
    4.7291    0.4874    0.0000 H   0  0  0  0  0  0  0  0  0  0  0  0
    7.3105   -1.2231    0.0000 H   0  0  0  0  0  0  0  0  0  0  0  0
    8.0901   -1.0574    0.0000 H   0  0  0  0  0  0  0  0  0  0  0  0
    3.0840   -0.2889    0.0000 H   0  0  0  0  0  0  0  0  0  0  0  0
    2.2084   -0.3348    0.0000 H   0  0  0  0  0  0  0  0  0  0  0  0
    2.2542   -1.2104    0.0000 H   0  0  0  0  0  0  0  0  0  0  0  0
    3.7406   -2.5487    0.0000 H   0  0  0  0  0  0  0  0  0  0  0  0
    4.6162   -2.5028    0.0000 H   0  0  0  0  0  0  0  0  0  0  0  0
    4.5703   -1.6272    0.0000 H   0  0  0  0  0  0  0  0  0  0  0  0
    3.5070    0.7225    0.0000 H   0  0  0  0  0  0  0  0  0  0  0  0
    1.6133   -2.4903    0.0000 H   0  0  0  0  0  0  0  0  0  0  0  0
    1.6592   -3.3659    0.0000 H   0  0  0  0  0  0  0  0  0  0  0  0
    2.5348   -3.3200    0.0000 H   0  0  0  0  0  0  0  0  0  0  0  0
    2.4149   -1.0321    0.0000 H   0  0  0  0  0  0  0  0  0  0  0  0
    1.5392   -1.0780    0.0000 H   0  0  0  0  0  0  0  0  0  0  0  0
    1.5851   -1.9536    0.0000 H   0  0  0  0  0  0  0  0  0  0  0  0
    3.0714   -3.2918    0.0000 H   0  0  0  0  0  0  0  0  0  0  0  0
    3.9470   -3.2460    0.0000 H   0  0  0  0  0  0  0  0  0  0  0  0
    3.9011   -2.3703    0.0000 H   0  0  0  0  0  0  0  0  0  0  0  0
   10.1944    0.4439    0.0000 H   0  0  0  0  0  0  0  0  0  0  0  0
    9.7964    1.2252    0.0000 H   0  0  0  0  0  0  0  0  0  0  0  0
    9.0151    0.8271    0.0000 H   0  0  0  0  0  0  0  0  0  0  0  0
    8.3971   -1.0750    0.0000 H   0  0  0  0  0  0  0  0  0  0  0  0
    8.7951   -1.8563    0.0000 H   0  0  0  0  0  0  0  0  0  0  0  0
    9.5764   -1.4582    0.0000 H   0  0  0  0  0  0  0  0  0  0  0  0
   11.0063   -1.5232    0.0000 H   0  0  0  0  0  0  0  0  0  0  0  0
   11.7875   -1.1252    0.0000 H   0  0  0  0  0  0  0  0  0  0  0  0
   11.3895   -0.3439    0.0000 H   0  0  0  0  0  0  0  0  0  0  0  0
   11.1455    0.1349    0.0000 H   0  0  0  0  0  0  0  0  0  0  0  0
   10.7474    0.9161    0.0000 H   0  0  0  0  0  0  0  0  0  0  0  0
    9.9662    0.5181    0.0000 H   0  0  0  0  0  0  0  0  0  0  0  0
    9.3481   -1.3840    0.0000 H   0  0  0  0  0  0  0  0  0  0  0  0
    9.7462   -2.1653    0.0000 H   0  0  0  0  0  0  0  0  0  0  0  0
   10.5274   -1.7672    0.0000 H   0  0  0  0  0  0  0  0  0  0  0  0
    4.8248    3.6824    0.0000 H   0  0  0  0  0  0  0  0  0  0  0  0
    2.5548    2.0331    0.0000 H   0  0  0  0  0  0  0  0  0  0  0  0
    7.7635   -4.3574    0.0000 H   0  0  0  0  0  0  0  0  0  0  0  0
    8.6105   -4.1305    0.0000 H   0  0  0  0  0  0  0  0  0  0  0  0
    8.3835   -3.2835    0.0000 H   0  0  0  0  0  0  0  0  0  0  0  0
  1  5  1  0  0  0  0
  1 20  1  0  0  0  0
  1 21  1  0  0  0  0
  1 22  1  0  0  0  0
  2  6  1  0  0  0  0
  2 23  1  0  0  0  0
  2 29  1  0  0  0  0
  2 30  1  0  0  0  0
  3 13  1  0  0  0  0
  3 15  1  0  0  0  0
  4 16  1  0  0  0  0
  4 17  1  0  0  0  0
  5 14  1  0  0  0  0
  6 18  1  0  0  0  0
  7 19  1  0  0  0  0
  7 35  1  0  0  0  0
  8 19  2  0  0  0  0
  9 24  2  0  0  0  0
 10 36  2  0  0  0  0
 11 17  1  0  0  0  0
 11 24  1  0  0  0  0
 11 25  1  0  0  0  0
 12 24  1  0  0  0  0
 12 36  1  0  0  0  0
 12 74  1  0  0  0  0
 13 14  1  0  0  0  0
 13 15  1  0  0  0  0
 13 16  1  0  0  0  0
 14 17  1  0  0  0  0
 14 37  1  0  0  0  0
 15 19  1  0  0  0  0
 15 38  1  0  0  0  0
 16 18  1  0  0  0  0
 16 39  1  0  0  0  0
 17 40  1  0  0  0  0
 18 41  1  0  0  0  0
 18 42  1  0  0  0  0
 20 26  1  0  0  0  0
 20 27  1  0  0  0  0
 20 28  1  0  0  0  0
 21 43  1  0  0  0  0
 21 44  1  0  0  0  0
 21 45  1  0  0  0  0
 22 46  1  0  0  0  0
 22 47  1  0  0  0  0
 22 48  1  0  0  0  0
 23 31  1  0  0  0  0
 23 32  1  0  0  0  0
 23 33  1  0  0  0  0
 25 34  2  0  0  0  0
 25 49  1  0  0  0  0
 26 50  1  0  0  0  0
 26 51  1  0  0  0  0
 26 52  1  0  0  0  0
 27 53  1  0  0  0  0
 27 54  1  0  0  0  0
 27 55  1  0  0  0  0
 28 56  1  0  0  0  0
 28 57  1  0  0  0  0
 28 58  1  0  0  0  0
 29 59  1  0  0  0  0
 29 60  1  0  0  0  0
 29 61  1  0  0  0  0
 30 62  1  0  0  0  0
 30 63  1  0  0  0  0
 30 64  1  0  0  0  0
 31 65  1  0  0  0  0
 31 66  1  0  0  0  0
 31 67  1  0  0  0  0
 32 68  1  0  0  0  0
 32 69  1  0  0  0  0
 32 70  1  0  0  0  0
 33 71  1  0  0  0  0
 33 72  1  0  0  0  0
 33 73  1  0  0  0  0
 34 36  1  0  0  0  0
 34 75  1  0  0  0  0
 35 76  1  0  0  0  0
 35 77  1  0  0  0  0
 35 78  1  0  0  0  0
M  END
> <PUBCHEM_COMPOUND_CID>
500349
> <PUBCHEM_COMPOUND_CANONICALIZED>
1
> <PUBCHEM_CACTVS_COMPLEXITY>
939
> <PUBCHEM_CACTVS_HBOND_ACCEPTOR>
8
> <PUBCHEM_CACTVS_HBOND_DONOR>
1
> <PUBCHEM_CACTVS_ROTATABLE_BOND>
10
> <PUBCHEM_CACTVS_SUBSKEYS>
AAADcfB7PAwAAAAAAAAAAAAAEgAAASAAAAAgAAAAAAAAAAAAAAAAHhAQAEAADFThoAZDCAPABAGIACHWWAKAAAAAAgAIAAFIAECDABYAgAQOAAAPNyISAMD6NQoKAAAAAAAAAAAAAAAAAAAAAAAAAAAAAA==
> <PUBCHEM_IUPAC_OPENEYE_NAME>
methyl 4-[tert-butyl(dimethyl)silyl]oxy-7-[[tert-butyl(dimethyl)silyl]oxymethyl]-5-(2,4-dioxopyrimidin-1-yl)-1,6-dioxaspiro[2.4]heptane-2-carboxylate
> <PUBCHEM_IUPAC_CAS_NAME>
4-[tert-butyl(dimethyl)silyl]oxy-7-[[tert-butyl(dimethyl)silyl]oxymethyl]-5-(2,4-dioxo-1-pyrimidinyl)-1,6-dioxaspiro[2.4]heptane-2-carboxylic acid methyl ester
> <PUBCHEM_IUPAC_NAME_MARKUP>
methyl 4-[<I>tert</I>-butyl(dimethyl)silyl]oxy-7-[[<I>tert</I>-butyl(dimethyl)silyl]oxymethyl]-5-(2,4-dioxopyrimidin-1-yl)-1,6-dioxaspiro[2.4]heptane-2-carboxylate
> <PUBCHEM_IUPAC_NAME>
methyl 4-[tert-butyl(dimethyl)silyl]oxy-7-[[tert-butyl(dimethyl)silyl]oxymethyl]-5-(2,4-dioxopyrimidin-1-yl)-1,6-dioxaspiro[2.4]heptane-2-carboxylate
> <PUBCHEM_IUPAC_SYSTEMATIC_NAME>
methyl 5-[2,4-bis(oxidanylidene)pyrimidin-1-yl]-4-[tert-butyl(dimethyl)silyl]oxy-7-[[tert-butyl(dimethyl)silyl]oxymethyl]-1,6-dioxaspiro[2.4]heptane-2-carboxylate
> <PUBCHEM_IUPAC_TRADITIONAL_NAME>
4-[tert-butyl(dimethyl)silyl]oxy-7-[[tert-butyl(dimethyl)silyl]oxymethyl]-5-(2,4-diketopyrimidin-1-yl)-1,6-dioxaspiro[2.4]heptane-2-carboxylic acid methyl ester
> <PUBCHEM_IUPAC_INCHI>
InChI=1S/C24H42N2O8Si2/c1-22(2,3)35(8,9)31-14-15-24(18(33-24)20(28)30-7)17(34-36(10,11)23(4,5)6)19(32-15)26-13-12-16(27)25-21(26)29/h12-13,15,17-19H,14H2,1-11H3,(H,25,27,29)
> <PUBCHEM_IUPAC_INCHIKEY>
DIOPLPHLHKNLDY-UHFFFAOYSA-N
> <PUBCHEM_EXACT_MASS>
542.24796937
> <PUBCHEM_MOLECULAR_FORMULA>
C24H42N2O8Si2
> <PUBCHEM_MOLECULAR_WEIGHT>
542.8
> <PUBCHEM_OPENEYE_CAN_SMILES>
CC(C)(C)[Si](C)(C)OCC1C2(C(C(O1)N3C=CC(=O)NC3=O)O[Si](C)(C)C(C)(C)C)C(O2)C(=O)OC
> <PUBCHEM_OPENEYE_ISO_SMILES>
CC(C)(C)[Si](C)(C)OCC1C2(C(C(O1)N3C=CC(=O)NC3=O)O[Si](C)(C)C(C)(C)C)C(O2)C(=O)OC
> <PUBCHEM_CACTVS_TPSA>
116
> <PUBCHEM_MONOISOTOPIC_WEIGHT>
542.24796937
> <PUBCHEM_TOTAL_CHARGE>
0
> <PUBCHEM_HEAVY_ATOM_COUNT>
36
> <PUBCHEM_ATOM_DEF_STEREO_COUNT>
0
> <PUBCHEM_ATOM_UDEF_STEREO_COUNT>
5
> <PUBCHEM_BOND_DEF_STEREO_COUNT>
0
> <PUBCHEM_BOND_UDEF_STEREO_COUNT>
0
> <PUBCHEM_ISOTOPIC_ATOM_COUNT>
0
> <PUBCHEM_COMPONENT_COUNT>
1
> <PUBCHEM_CACTVS_TAUTO_COUNT>
-1
> <PUBCHEM_COORDINATE_TYPE>
1
5
255
> <PUBCHEM_BONDANNOTATIONS>
17  11  3
11  24  8
11  25  8
12  24  8
12  36  8
13  16  3
15  19  3
16  18  3
25  34  8
34  36  8
14  5  3
$$$$
