500377
  -OEChem-10302200282D
161169  0     1  0  0  0  0  0999 V2000
    9.1562    4.1557    0.0000 O   0  0  0  0  0  0  0  0  0  0  0  0
    7.6271    5.3876    0.0000 O   0  0  0  0  0  0  0  0  0  0  0  0
    7.7331   -4.0884    0.0000 O   0  0  0  0  0  0  0  0  0  0  0  0
    6.0010   -4.0884    0.0000 O   0  0  0  0  0  0  0  0  0  0  0  0
   11.7907    7.2550    0.0000 O   0  0  0  0  0  0  0  0  0  0  0  0
    7.7331   -6.0884    0.0000 O   0  0  0  0  0  0  0  0  0  0  0  0
    6.0010   -7.0884    0.0000 O   0  0  0  0  0  0  0  0  0  0  0  0
    4.2690   -6.0884    0.0000 O   0  0  0  0  0  0  0  0  0  0  0  0
   13.2881    8.1255    0.0000 O   0  0  0  0  0  0  0  0  0  0  0  0
    8.5991   -4.5884    0.0000 O   0  0  0  0  0  0  0  0  0  0  0  0
    4.2690   -3.0884    0.0000 O   0  0  0  0  0  0  0  0  0  0  0  0
   12.7959    5.5260    0.0000 O   0  0  0  0  0  0  0  0  0  0  0  0
    4.2690   -7.0884    0.0000 O   0  0  0  0  0  0  0  0  0  0  0  0
    9.4651   -7.0884    0.0000 O   0  0  0  0  0  0  0  0  0  0  0  0
   14.7959    5.5319    0.0000 O   0  0  0  0  0  0  0  0  0  0  0  0
   15.7907    7.2670    0.0000 O   0  0  0  0  0  0  0  0  0  0  0  0
    6.0010   -9.0884    0.0000 O   0  0  0  0  0  0  0  0  0  0  0  0
   11.1972   -6.0884    0.0000 O   0  0  0  0  0  0  0  0  0  0  0  0
   11.1972   -4.0884    0.0000 O   0  0  0  0  0  0  0  0  0  0  0  0
    4.2690  -10.0884    0.0000 O   0  0  0  0  0  0  0  0  0  0  0  0
   14.2829    9.8605    0.0000 O   0  0  0  0  0  0  0  0  0  0  0  0
    2.5369   -9.0884    0.0000 O   0  0  0  0  0  0  0  0  0  0  0  0
    2.5369   -6.0884    0.0000 O   0  0  0  0  0  0  0  0  0  0  0  0
    7.7624    2.1085    0.0000 C   0  0  3  0  0  0  0  0  0  0  0  0
    8.6303    1.6118    0.0000 C   0  0  3  0  0  0  0  0  0  0  0  0
    7.9678    3.0811    0.0000 C   0  0  3  0  0  0  0  0  0  0  0  0
    8.6342    0.6118    0.0000 C   0  0  3  0  0  0  0  0  0  0  0  0
    8.9561    3.1880    0.0000 C   0  0  3  0  0  0  0  0  0  0  0  0
    7.7701    0.1085    0.0000 C   0  0  3  0  0  0  0  0  0  0  0  0
    9.3647    2.2817    0.0000 C   0  0  0  0  0  0  0  0  0  0  0  0
    6.8983    1.6051    0.0000 C   0  0  0  0  0  0  0  0  0  0  0  0
    7.5655    3.9837    0.0000 C   0  0  3  0  0  0  0  0  0  0  0  0
    6.9021    0.6051    0.0000 C   0  0  0  0  0  0  0  0  0  0  0  0
    7.7580   -0.9331    0.0000 C   0  0  3  0  0  0  0  0  0  0  0  0
    8.2985    4.6465    0.0000 C   0  0  3  0  0  0  0  0  0  0  0  0
    6.8944    2.6051    0.0000 C   0  0  0  0  0  0  0  0  0  0  0  0
    9.5461    0.1085    0.0000 C   0  0  0  0  0  0  0  0  0  0  0  0
    8.6581   -1.4574    0.0000 C   0  0  0  0  0  0  0  0  0  0  0  0
    6.8081   -1.4574    0.0000 C   0  0  0  0  0  0  0  0  0  0  0  0
    9.5581   -0.9331    0.0000 C   0  0  0  0  0  0  0  0  0  0  0  0
    6.5871    4.1904    0.0000 C   0  0  0  0  0  0  0  0  0  0  0  0
    6.8939   -0.4297    0.0000 C   0  0  0  0  0  0  0  0  0  0  0  0
    8.7959    5.5140    0.0000 C   0  0  0  0  0  0  0  0  0  0  0  0
    8.6706   -2.5423    0.0000 C   0  0  0  0  0  0  0  0  0  0  0  0
    6.7956   -2.5423    0.0000 C   0  0  0  0  0  0  0  0  0  0  0  0
    7.7331   -3.0884    0.0000 C   0  0  3  0  0  0  0  0  0  0  0  0
    9.7959    5.5170    0.0000 C   0  0  0  0  0  0  0  0  0  0  0  0
    7.9333    6.3396    0.0000 C   0  0  0  0  0  0  0  0  0  0  0  0
   10.2933    6.3845    0.0000 C   0  0  3  0  0  0  0  0  0  0  0  0
    6.8671   -4.5884    0.0000 C   0  0  3  0  0  0  0  0  0  0  0  0
   11.2933    6.3875    0.0000 C   0  0  0  0  0  0  0  0  0  0  0  0
    9.7907    7.2490    0.0000 C   0  0  0  0  0  0  0  0  0  0  0  0
    6.8671   -5.5884    0.0000 C   0  0  3  0  0  0  0  0  0  0  0  0
    6.0010   -6.0884    0.0000 C   0  0  3  0  0  0  0  0  0  0  0  0
    5.1350   -4.5884    0.0000 C   0  0  3  0  0  0  0  0  0  0  0  0
    5.1350   -5.5884    0.0000 C   0  0  3  0  0  0  0  0  0  0  0  0
   12.7907    7.2580    0.0000 C   0  0  3  0  0  0  0  0  0  0  0  0
    4.2690   -4.0884    0.0000 C   0  0  0  0  0  0  0  0  0  0  0  0
    8.5991   -5.5884    0.0000 C   0  0  3  0  0  0  0  0  0  0  0  0
   13.2933    6.3935    0.0000 C   0  0  3  0  0  0  0  0  0  0  0  0
    5.1350   -7.5884    0.0000 C   0  0  3  0  0  0  0  0  0  0  0  0
    9.4651   -6.0884    0.0000 C   0  0  3  0  0  0  0  0  0  0  0  0
   14.2933    6.3965    0.0000 C   0  0  3  0  0  0  0  0  0  0  0  0
   14.2881    8.1285    0.0000 C   0  0  3  0  0  0  0  0  0  0  0  0
   14.7907    7.2640    0.0000 C   0  0  3  0  0  0  0  0  0  0  0  0
    5.1350   -8.5884    0.0000 C   0  0  3  0  0  0  0  0  0  0  0  0
   10.3312   -5.5884    0.0000 C   0  0  3  0  0  0  0  0  0  0  0  0
    9.4651   -4.0884    0.0000 C   0  0  3  0  0  0  0  0  0  0  0  0
   10.3312   -4.5884    0.0000 C   0  0  3  0  0  0  0  0  0  0  0  0
    4.2690   -9.0884    0.0000 C   0  0  3  0  0  0  0  0  0  0  0  0
    3.4030   -7.5884    0.0000 C   0  0  3  0  0  0  0  0  0  0  0  0
   14.7855    8.9960    0.0000 C   0  0  0  0  0  0  0  0  0  0  0  0
    3.4030   -8.5884    0.0000 C   0  0  3  0  0  0  0  0  0  0  0  0
    9.4651   -3.0884    0.0000 C   0  0  0  0  0  0  0  0  0  0  0  0
    2.5369   -7.0884    0.0000 C   0  0  0  0  0  0  0  0  0  0  0  0
    9.1980    1.3626    0.0000 H   0  0  0  0  0  0  0  0  0  0  0  0
    7.3512    3.0158    0.0000 H   0  0  0  0  0  0  0  0  0  0  0  0
    9.1675    0.9280    0.0000 H   0  0  0  0  0  0  0  0  0  0  0  0
    9.5724    3.2559    0.0000 H   0  0  0  0  0  0  0  0  0  0  0  0
    8.3058   -0.2036    0.0000 H   0  0  0  0  0  0  0  0  0  0  0  0
    9.7321    1.7823    0.0000 H   0  0  0  0  0  0  0  0  0  0  0  0
    9.9000    2.5946    0.0000 H   0  0  0  0  0  0  0  0  0  0  0  0
    6.6840    2.1869    0.0000 H   0  0  0  0  0  0  0  0  0  0  0  0
    6.2881    1.4951    0.0000 H   0  0  0  0  0  0  0  0  0  0  0  0
    7.4040    4.5823    0.0000 H   0  0  0  0  0  0  0  0  0  0  0  0
    6.2911    0.7105    0.0000 H   0  0  0  0  0  0  0  0  0  0  0  0
    6.6923    0.0217    0.0000 H   0  0  0  0  0  0  0  0  0  0  0  0
    7.2023    3.1433    0.0000 H   0  0  0  0  0  0  0  0  0  0  0  0
    6.3563    2.9131    0.0000 H   0  0  0  0  0  0  0  0  0  0  0  0
    6.5865    2.0670    0.0000 H   0  0  0  0  0  0  0  0  0  0  0  0
   10.1581    0.0095    0.0000 H   0  0  0  0  0  0  0  0  0  0  0  0
    9.7484    0.6946    0.0000 H   0  0  0  0  0  0  0  0  0  0  0  0
    6.6058   -0.8713    0.0000 H   0  0  0  0  0  0  0  0  0  0  0  0
    6.1961   -1.5564    0.0000 H   0  0  0  0  0  0  0  0  0  0  0  0
   10.0975   -1.2389    0.0000 H   0  0  0  0  0  0  0  0  0  0  0  0
    6.7152    4.7970    0.0000 H   0  0  0  0  0  0  0  0  0  0  0  0
    5.9805    4.3185    0.0000 H   0  0  0  0  0  0  0  0  0  0  0  0
    6.4590    3.5838    0.0000 H   0  0  0  0  0  0  0  0  0  0  0  0
    7.2060    0.1060    0.0000 H   0  0  0  0  0  0  0  0  0  0  0  0
    6.3582   -0.1177    0.0000 H   0  0  0  0  0  0  0  0  0  0  0  0
    6.5818   -0.9655    0.0000 H   0  0  0  0  0  0  0  0  0  0  0  0
    8.9017    6.1249    0.0000 H   0  0  0  0  0  0  0  0  0  0  0  0
    8.2126    5.7243    0.0000 H   0  0  0  0  0  0  0  0  0  0  0  0
    8.8864   -3.1235    0.0000 H   0  0  0  0  0  0  0  0  0  0  0  0
    9.2802   -2.4291    0.0000 H   0  0  0  0  0  0  0  0  0  0  0  0
    6.1860   -2.4291    0.0000 H   0  0  0  0  0  0  0  0  0  0  0  0
    6.5798   -3.1235    0.0000 H   0  0  0  0  0  0  0  0  0  0  0  0
    8.2706   -3.3974    0.0000 H   0  0  0  0  0  0  0  0  0  0  0  0
    9.6900    4.9061    0.0000 H   0  0  0  0  0  0  0  0  0  0  0  0
   10.3791    5.3067    0.0000 H   0  0  0  0  0  0  0  0  0  0  0  0
    8.5235    6.1498    0.0000 H   0  0  0  0  0  0  0  0  0  0  0  0
    8.1231    6.9298    0.0000 H   0  0  0  0  0  0  0  0  0  0  0  0
    7.3431    6.5294    0.0000 H   0  0  0  0  0  0  0  0  0  0  0  0
    9.6733    6.3826    0.0000 H   0  0  0  0  0  0  0  0  0  0  0  0
    7.4040   -4.8984    0.0000 H   0  0  0  0  0  0  0  0  0  0  0  0
   11.1875    5.7766    0.0000 H   0  0  0  0  0  0  0  0  0  0  0  0
   11.8765    6.1772    0.0000 H   0  0  0  0  0  0  0  0  0  0  0  0
   10.3267    7.5606    0.0000 H   0  0  0  0  0  0  0  0  0  0  0  0
    9.4791    7.7850    0.0000 H   0  0  0  0  0  0  0  0  0  0  0  0
    9.2547    6.9374    0.0000 H   0  0  0  0  0  0  0  0  0  0  0  0
    6.8671   -6.2084    0.0000 H   0  0  0  0  0  0  0  0  0  0  0  0
    5.4641   -6.3984    0.0000 H   0  0  0  0  0  0  0  0  0  0  0  0
    5.1350   -3.9684    0.0000 H   0  0  0  0  0  0  0  0  0  0  0  0
    4.5981   -5.2784    0.0000 H   0  0  0  0  0  0  0  0  0  0  0  0
   12.4791    7.7940    0.0000 H   0  0  0  0  0  0  0  0  0  0  0  0
    3.6584   -3.9807    0.0000 H   0  0  0  0  0  0  0  0  0  0  0  0
    4.0569   -4.6710    0.0000 H   0  0  0  0  0  0  0  0  0  0  0  0
    8.5991   -6.2084    0.0000 H   0  0  0  0  0  0  0  0  0  0  0  0
   12.6733    6.3916    0.0000 H   0  0  0  0  0  0  0  0  0  0  0  0
    3.7320   -5.7784    0.0000 H   0  0  0  0  0  0  0  0  0  0  0  0
    5.1350   -6.9684    0.0000 H   0  0  0  0  0  0  0  0  0  0  0  0
   10.0021   -6.3984    0.0000 H   0  0  0  0  0  0  0  0  0  0  0  0
   13.9849    5.8586    0.0000 H   0  0  0  0  0  0  0  0  0  0  0  0
   13.9765    8.6645    0.0000 H   0  0  0  0  0  0  0  0  0  0  0  0
   15.1023    6.7280    0.0000 H   0  0  0  0  0  0  0  0  0  0  0  0
    3.7320   -2.7784    0.0000 H   0  0  0  0  0  0  0  0  0  0  0  0
    5.1350   -9.2084    0.0000 H   0  0  0  0  0  0  0  0  0  0  0  0
   10.8681   -5.2784    0.0000 H   0  0  0  0  0  0  0  0  0  0  0  0
    8.9282   -3.7784    0.0000 H   0  0  0  0  0  0  0  0  0  0  0  0
   10.3312   -3.9684    0.0000 H   0  0  0  0  0  0  0  0  0  0  0  0
   13.1075    4.9899    0.0000 H   0  0  0  0  0  0  0  0  0  0  0  0
    3.7320   -9.3984    0.0000 H   0  0  0  0  0  0  0  0  0  0  0  0
    3.4030   -6.9684    0.0000 H   0  0  0  0  0  0  0  0  0  0  0  0
   15.2616    8.5989    0.0000 H   0  0  0  0  0  0  0  0  0  0  0  0
   15.2593    9.3960    0.0000 H   0  0  0  0  0  0  0  0  0  0  0  0
    3.4030   -9.2084    0.0000 H   0  0  0  0  0  0  0  0  0  0  0  0
   10.0021   -7.3984    0.0000 H   0  0  0  0  0  0  0  0  0  0  0  0
   15.4159    5.5338    0.0000 H   0  0  0  0  0  0  0  0  0  0  0  0
   10.0851   -3.0884    0.0000 H   0  0  0  0  0  0  0  0  0  0  0  0
    9.4651   -2.4684    0.0000 H   0  0  0  0  0  0  0  0  0  0  0  0
    8.8451   -3.0884    0.0000 H   0  0  0  0  0  0  0  0  0  0  0  0
   16.0991    7.8048    0.0000 H   0  0  0  0  0  0  0  0  0  0  0  0
    6.0010   -9.7084    0.0000 H   0  0  0  0  0  0  0  0  0  0  0  0
   11.7341   -5.7784    0.0000 H   0  0  0  0  0  0  0  0  0  0  0  0
    1.9264   -6.9807    0.0000 H   0  0  0  0  0  0  0  0  0  0  0  0
    2.3249   -7.6710    0.0000 H   0  0  0  0  0  0  0  0  0  0  0  0
   11.7341   -4.3984    0.0000 H   0  0  0  0  0  0  0  0  0  0  0  0
    3.7320  -10.3984    0.0000 H   0  0  0  0  0  0  0  0  0  0  0  0
   14.5913   10.3984    0.0000 H   0  0  0  0  0  0  0  0  0  0  0  0
    2.0000   -8.7784    0.0000 H   0  0  0  0  0  0  0  0  0  0  0  0
    2.0000   -5.7784    0.0000 H   0  0  0  0  0  0  0  0  0  0  0  0
  1 28  1  0  0  0  0
  1 35  1  0  0  0  0
  2 35  1  0  0  0  0
  2 48  1  0  0  0  0
  3 46  1  0  0  0  0
  3 50  1  0  0  0  0
  4 50  1  0  0  0  0
  4 55  1  0  0  0  0
  5 51  1  0  0  0  0
  5 57  1  0  0  0  0
  6 53  1  0  0  0  0
  6 59  1  0  0  0  0
  7 54  1  0  0  0  0
  7 61  1  0  0  0  0
  8 56  1  0  0  0  0
  8130  1  0  0  0  0
  9 57  1  0  0  0  0
  9 64  1  0  0  0  0
 10 59  1  0  0  0  0
 10 68  1  0  0  0  0
 11 58  1  0  0  0  0
 11136  1  0  0  0  0
 12 60  1  0  0  0  0
 12141  1  0  0  0  0
 13 61  1  0  0  0  0
 13 71  1  0  0  0  0
 14 62  1  0  0  0  0
 14147  1  0  0  0  0
 15 63  1  0  0  0  0
 15148  1  0  0  0  0
 16 65  1  0  0  0  0
 16152  1  0  0  0  0
 17 66  1  0  0  0  0
 17153  1  0  0  0  0
 18 67  1  0  0  0  0
 18154  1  0  0  0  0
 19 69  1  0  0  0  0
 19157  1  0  0  0  0
 20 70  1  0  0  0  0
 20158  1  0  0  0  0
 21 72  1  0  0  0  0
 21159  1  0  0  0  0
 22 73  1  0  0  0  0
 22160  1  0  0  0  0
 23 75  1  0  0  0  0
 23161  1  0  0  0  0
 24 25  1  0  0  0  0
 24 26  1  0  0  0  0
 24 31  1  0  0  0  0
 24 36  1  0  0  0  0
 25 27  1  0  0  0  0
 25 30  1  0  0  0  0
 25 76  1  0  0  0  0
 26 28  1  0  0  0  0
 26 32  1  0  0  0  0
 26 77  1  0  0  0  0
 27 29  1  0  0  0  0
 27 37  1  0  0  0  0
 27 78  1  0  0  0  0
 28 30  1  0  0  0  0
 28 79  1  0  0  0  0
 29 33  1  0  0  0  0
 29 34  1  0  0  0  0
 29 80  1  0  0  0  0
 30 81  1  0  0  0  0
 30 82  1  0  0  0  0
 31 33  1  0  0  0  0
 31 83  1  0  0  0  0
 31 84  1  0  0  0  0
 32 35  1  0  0  0  0
 32 41  1  0  0  0  0
 32 85  1  0  0  0  0
 33 86  1  0  0  0  0
 33 87  1  0  0  0  0
 34 38  1  0  0  0  0
 34 39  1  0  0  0  0
 34 42  1  0  0  0  0
 35 43  1  0  0  0  0
 36 88  1  0  0  0  0
 36 89  1  0  0  0  0
 36 90  1  0  0  0  0
 37 40  1  0  0  0  0
 37 91  1  0  0  0  0
 37 92  1  0  0  0  0
 38 40  2  0  0  0  0
 38 44  1  0  0  0  0
 39 45  1  0  0  0  0
 39 93  1  0  0  0  0
 39 94  1  0  0  0  0
 40 95  1  0  0  0  0
 41 96  1  0  0  0  0
 41 97  1  0  0  0  0
 41 98  1  0  0  0  0
 42 99  1  0  0  0  0
 42100  1  0  0  0  0
 42101  1  0  0  0  0
 43 47  1  0  0  0  0
 43102  1  0  0  0  0
 43103  1  0  0  0  0
 44 46  1  0  0  0  0
 44104  1  0  0  0  0
 44105  1  0  0  0  0
 45 46  1  0  0  0  0
 45106  1  0  0  0  0
 45107  1  0  0  0  0
 46108  1  0  0  0  0
 47 49  1  0  0  0  0
 47109  1  0  0  0  0
 47110  1  0  0  0  0
 48111  1  0  0  0  0
 48112  1  0  0  0  0
 48113  1  0  0  0  0
 49 51  1  0  0  0  0
 49 52  1  0  0  0  0
 49114  1  0  0  0  0
 50 53  1  0  0  0  0
 50115  1  0  0  0  0
 51116  1  0  0  0  0
 51117  1  0  0  0  0
 52118  1  0  0  0  0
 52119  1  0  0  0  0
 52120  1  0  0  0  0
 53 54  1  0  0  0  0
 53121  1  0  0  0  0
 54 56  1  0  0  0  0
 54122  1  0  0  0  0
 55 56  1  0  0  0  0
 55 58  1  0  0  0  0
 55123  1  0  0  0  0
 56124  1  0  0  0  0
 57 60  1  0  0  0  0
 57125  1  0  0  0  0
 58126  1  0  0  0  0
 58127  1  0  0  0  0
 59 62  1  0  0  0  0
 59128  1  0  0  0  0
 60 63  1  0  0  0  0
 60129  1  0  0  0  0
 61 66  1  0  0  0  0
 61131  1  0  0  0  0
 62 67  1  0  0  0  0
 62132  1  0  0  0  0
 63 65  1  0  0  0  0
 63133  1  0  0  0  0
 64 65  1  0  0  0  0
 64 72  1  0  0  0  0
 64134  1  0  0  0  0
 65135  1  0  0  0  0
 66 70  1  0  0  0  0
 66137  1  0  0  0  0
 67 69  1  0  0  0  0
 67138  1  0  0  0  0
 68 69  1  0  0  0  0
 68 74  1  0  0  0  0
 68139  1  0  0  0  0
 69140  1  0  0  0  0
 70 73  1  0  0  0  0
 70142  1  0  0  0  0
 71 73  1  0  0  0  0
 71 75  1  0  0  0  0
 71143  1  0  0  0  0
 72144  1  0  0  0  0
 72145  1  0  0  0  0
 73146  1  0  0  0  0
 74149  1  0  0  0  0
 74150  1  0  0  0  0
 74151  1  0  0  0  0
 75155  1  0  0  0  0
 75156  1  0  0  0  0
M  END
> <PUBCHEM_COMPOUND_CID>
500377
> <PUBCHEM_COMPOUND_CANONICALIZED>
1
> <PUBCHEM_CACTVS_COMPLEXITY>
1940
> <PUBCHEM_CACTVS_HBOND_ACCEPTOR>
23
> <PUBCHEM_CACTVS_HBOND_DONOR>
13
> <PUBCHEM_CACTVS_ROTATABLE_BOND>
16
> <PUBCHEM_CACTVS_SUBSKEYS>
AAADcfB8PgAAAAAAAAAAAAAAAAAAAaIAAAA0aJEiAAASAGCAAAAAGgAACAAADxSwgAMCCAAABgCAAiBCAAAAAAAgAAAACAAAAAgREAIAAQAiQAAFwAAPAAPA4PwPgAAAAAAAAADAAAQAACAAAYAADAAAAA==
> <PUBCHEM_IUPAC_OPENEYE_NAME>
2-[5-hydroxy-6-(hydroxymethyl)-2-[[6-methoxy-7,9,13-trimethyl-6-[3-methyl-4-[3,4,5-trihydroxy-6-(hydroxymethyl)tetrahydropyran-2-yl]oxy-butyl]-5-oxapentacyclo[10.8.0.02,9.04,8.013,18]icos-18-en-16-yl]oxy]-4-[3,4,5-trihydroxy-6-(hydroxymethyl)tetrahydropyran-2-yl]oxy-tetrahydropyran-3-yl]oxy-6-methyl-tetrahydropyran-3,4,5-triol
> <PUBCHEM_IUPAC_CAS_NAME>
2-[[5-hydroxy-6-(hydroxymethyl)-2-[[6-methoxy-7,9,13-trimethyl-6-[3-methyl-4-[[3,4,5-trihydroxy-6-(hydroxymethyl)-2-oxanyl]oxy]butyl]-5-oxapentacyclo[10.8.0.02,9.04,8.013,18]eicos-18-en-16-yl]oxy]-4-[[3,4,5-trihydroxy-6-(hydroxymethyl)-2-oxanyl]oxy]-3-oxanyl]oxy]-6-methyloxane-3,4,5-triol
> <PUBCHEM_IUPAC_NAME_MARKUP>
2-[5-hydroxy-6-(hydroxymethyl)-2-[[6-methoxy-7,9,13-trimethyl-6-[3-methyl-4-[3,4,5-trihydroxy-6-(hydroxymethyl)oxan-2-yl]oxybutyl]-5-oxapentacyclo[10.8.0.0<SUP>2,9</SUP>.0<SUP>4,8</SUP>.0<SUP>13,18</SUP>]icos-18-en-16-yl]oxy]-4-[3,4,5-trihydroxy-6-(hydroxymethyl)oxan-2-yl]oxyoxan-3-yl]oxy-6-methyloxane-3,4,5-triol
> <PUBCHEM_IUPAC_NAME>
2-[5-hydroxy-6-(hydroxymethyl)-2-[[6-methoxy-7,9,13-trimethyl-6-[3-methyl-4-[3,4,5-trihydroxy-6-(hydroxymethyl)oxan-2-yl]oxybutyl]-5-oxapentacyclo[10.8.0.02,9.04,8.013,18]icos-18-en-16-yl]oxy]-4-[3,4,5-trihydroxy-6-(hydroxymethyl)oxan-2-yl]oxyoxan-3-yl]oxy-6-methyloxane-3,4,5-triol
> <PUBCHEM_IUPAC_SYSTEMATIC_NAME>
2-[6-(hydroxymethyl)-4-[6-(hydroxymethyl)-3,4,5-tris(oxidanyl)oxan-2-yl]oxy-2-[[6-[4-[6-(hydroxymethyl)-3,4,5-tris(oxidanyl)oxan-2-yl]oxy-3-methyl-butyl]-6-methoxy-7,9,13-trimethyl-5-oxapentacyclo[10.8.0.02,9.04,8.013,18]icos-18-en-16-yl]oxy]-5-oxidanyl-oxan-3-yl]oxy-6-methyl-oxane-3,4,5-triol
> <PUBCHEM_IUPAC_TRADITIONAL_NAME>
2-[5-hydroxy-2-[[6-methoxy-7,9,13-trimethyl-6-[3-methyl-4-(3,4,5-trihydroxy-6-methylol-tetrahydropyran-2-yl)oxy-butyl]-5-oxapentacyclo[10.8.0.02,9.04,8.013,18]eicos-18-en-16-yl]oxy]-6-methylol-4-(3,4,5-trihydroxy-6-methylol-tetrahydropyran-2-yl)oxy-tetrahydropyran-3-yl]oxy-6-methyl-tetrahydropyran-3,4,5-triol
> <PUBCHEM_IUPAC_INCHI>
InChI=1S/C52H86O23/c1-21(20-67-46-41(63)39(61)35(57)30(17-53)70-46)9-14-52(66-6)22(2)33-29(75-52)16-28-26-8-7-24-15-25(10-12-50(24,4)27(26)11-13-51(28,33)5)69-49-45(74-47-42(64)38(60)34(56)23(3)68-47)44(37(59)32(19-55)72-49)73-48-43(65)40(62)36(58)31(18-54)71-48/h7,21-23,25-49,53-65H,8-20H2,1-6H3
> <PUBCHEM_IUPAC_INCHIKEY>
LOSNTJHBTWBJCC-UHFFFAOYSA-N
> <PUBCHEM_XLOGP3_AA>
-0.7
> <PUBCHEM_EXACT_MASS>
1078.55598899
> <PUBCHEM_MOLECULAR_FORMULA>
C52H86O23
> <PUBCHEM_MOLECULAR_WEIGHT>
1079.2
> <PUBCHEM_OPENEYE_CAN_SMILES>
CC1C2C(CC3C2(CCC4C3CC=C5C4(CCC(C5)OC6C(C(C(C(O6)CO)O)OC7C(C(C(C(O7)CO)O)O)O)OC8C(C(C(C(O8)C)O)O)O)C)C)OC1(CCC(C)COC9C(C(C(C(O9)CO)O)O)O)OC
> <PUBCHEM_OPENEYE_ISO_SMILES>
CC1C2C(CC3C2(CCC4C3CC=C5C4(CCC(C5)OC6C(C(C(C(O6)CO)O)OC7C(C(C(C(O7)CO)O)O)O)OC8C(C(C(C(O8)C)O)O)O)C)C)OC1(CCC(C)COC9C(C(C(C(O9)CO)O)O)O)OC
> <PUBCHEM_CACTVS_TPSA>
355
> <PUBCHEM_MONOISOTOPIC_WEIGHT>
1078.55598899
> <PUBCHEM_TOTAL_CHARGE>
0
> <PUBCHEM_HEAVY_ATOM_COUNT>
75
> <PUBCHEM_ATOM_DEF_STEREO_COUNT>
0
> <PUBCHEM_ATOM_UDEF_STEREO_COUNT>
31
> <PUBCHEM_BOND_DEF_STEREO_COUNT>
0
> <PUBCHEM_BOND_UDEF_STEREO_COUNT>
0
> <PUBCHEM_ISOTOPIC_ATOM_COUNT>
0
> <PUBCHEM_COMPONENT_COUNT>
1
> <PUBCHEM_CACTVS_TAUTO_COUNT>
-1
> <PUBCHEM_COORDINATE_TYPE>
1
5
255
> <PUBCHEM_BONDANNOTATIONS>
60  12  3
62  14  3
63  15  3
65  16  3
66  17  3
67  18  3
69  19  3
70  20  3
73  22  3
24  36  3
25  30  3
26  32  3
27  37  3
28  30  3
29  33  3
46  3  3
50  3  3
32  41  3
34  42  3
35  43  3
49  52  3
57  5  3
55  58  3
53  6  3
59  6  3
64  72  3
68  74  3
54  7  3
61  7  3
71  75  3
56  8  3
$$$$
