500344
  -OEChem-10302200282D
 79 83  0     1  0  0  0  0  0999 V2000
    2.0000   -2.5933    0.0000 O   0  0  0  0  0  0  0  0  0  0  0  0
    5.6610   -0.5410    0.0000 C   0  0  3  0  0  0  0  0  0  0  0  0
    6.5271   -1.0410    0.0000 C   0  0  3  0  0  0  0  0  0  0  0  0
    4.7510   -1.0478    0.0000 C   0  0  3  0  0  0  0  0  0  0  0  0
    7.3931    0.4590    0.0000 C   0  0  3  0  0  0  0  0  0  0  0  0
    8.2870    0.9937    0.0000 C   0  0  3  0  0  0  0  0  0  0  0  0
    4.7430   -2.0894    0.0000 C   0  0  3  0  0  0  0  0  0  0  0  0
    7.3931   -0.5410    0.0000 C   0  0  0  0  0  0  0  0  0  0  0  0
    9.1931    0.4799    0.0000 C   0  0  3  0  0  0  0  0  0  0  0  0
    5.6610    0.4590    0.0000 C   0  0  0  0  0  0  0  0  0  0  0  0
    6.5271    0.9590    0.0000 C   0  0  0  0  0  0  0  0  0  0  0  0
    6.5431   -2.0825    0.0000 C   0  0  0  0  0  0  0  0  0  0  0  0
    5.6451   -2.6102    0.0000 C   0  0  0  0  0  0  0  0  0  0  0  0
    3.8076   -2.6391    0.0000 C   0  0  0  0  0  0  0  0  0  0  0  0
    3.8242   -0.4837    0.0000 C   0  0  0  0  0  0  0  0  0  0  0  0
    8.2619    2.0784    0.0000 C   0  0  0  0  0  0  0  0  0  0  0  0
    9.1931   -0.5618    0.0000 C   0  0  0  0  0  0  0  0  0  0  0  0
    8.2870   -1.0756    0.0000 C   0  0  0  0  0  0  0  0  0  0  0  0
   10.1369    1.0151    0.0000 C   0  0  0  0  0  0  0  0  0  0  0  0
    7.3931   -1.5410    0.0000 C   0  0  0  0  0  0  0  0  0  0  0  0
    9.1931    2.6353    0.0000 C   0  0  0  0  0  0  0  0  0  0  0  0
    4.7587   -0.0478    0.0000 C   0  0  0  0  0  0  0  0  0  0  0  0
    7.3931    1.4590    0.0000 C   0  0  0  0  0  0  0  0  0  0  0  0
   10.1369    2.1001    0.0000 C   0  0  0  0  0  0  0  0  0  0  0  0
    2.8763   -1.0117    0.0000 C   0  0  0  0  0  0  0  0  0  0  0  0
    2.8680   -2.0966    0.0000 C   0  0  0  0  0  0  0  0  0  0  0  0
   10.0629   -0.0135    0.0000 C   0  0  0  0  0  0  0  0  0  0  0  0
    3.3109   -3.5071    0.0000 C   0  0  0  0  0  0  0  0  0  0  0  0
    4.3109   -3.5032    0.0000 C   0  0  0  0  0  0  0  0  0  0  0  0
    9.6830    3.5071    0.0000 C   0  0  0  0  0  0  0  0  0  0  0  0
    8.6831    3.4955    0.0000 C   0  0  0  0  0  0  0  0  0  0  0  0
    6.1980   -0.2310    0.0000 H   0  0  0  0  0  0  0  0  0  0  0  0
    8.8191    1.3119    0.0000 H   0  0  0  0  0  0  0  0  0  0  0  0
    4.7454   -2.7094    0.0000 H   0  0  0  0  0  0  0  0  0  0  0  0
    5.4490    1.0416    0.0000 H   0  0  0  0  0  0  0  0  0  0  0  0
    5.0504    0.3514    0.0000 H   0  0  0  0  0  0  0  0  0  0  0  0
    6.9256    1.4340    0.0000 H   0  0  0  0  0  0  0  0  0  0  0  0
    6.1285    1.4340    0.0000 H   0  0  0  0  0  0  0  0  0  0  0  0
    6.7612   -2.6629    0.0000 H   0  0  0  0  0  0  0  0  0  0  0  0
    7.1523   -1.9670    0.0000 H   0  0  0  0  0  0  0  0  0  0  0  0
    5.2478   -3.0862    0.0000 H   0  0  0  0  0  0  0  0  0  0  0  0
    6.0460   -3.0831    0.0000 H   0  0  0  0  0  0  0  0  0  0  0  0
    4.2324   -0.0171    0.0000 H   0  0  0  0  0  0  0  0  0  0  0  0
    3.4343   -0.0017    0.0000 H   0  0  0  0  0  0  0  0  0  0  0  0
    8.0394    2.6571    0.0000 H   0  0  0  0  0  0  0  0  0  0  0  0
    7.6537    1.9582    0.0000 H   0  0  0  0  0  0  0  0  0  0  0  0
    9.4022   -1.1455    0.0000 H   0  0  0  0  0  0  0  0  0  0  0  0
    9.8040   -0.4557    0.0000 H   0  0  0  0  0  0  0  0  0  0  0  0
    8.2799   -1.6956    0.0000 H   0  0  0  0  0  0  0  0  0  0  0  0
   10.3459    0.4314    0.0000 H   0  0  0  0  0  0  0  0  0  0  0  0
   10.7477    1.1212    0.0000 H   0  0  0  0  0  0  0  0  0  0  0  0
    7.0831   -2.0779    0.0000 H   0  0  0  0  0  0  0  0  0  0  0  0
    7.9300   -1.8510    0.0000 H   0  0  0  0  0  0  0  0  0  0  0  0
    7.7031   -1.0040    0.0000 H   0  0  0  0  0  0  0  0  0  0  0  0
    5.3787   -0.0526    0.0000 H   0  0  0  0  0  0  0  0  0  0  0  0
    4.7635    0.5721    0.0000 H   0  0  0  0  0  0  0  0  0  0  0  0
    4.1388   -0.0431    0.0000 H   0  0  0  0  0  0  0  0  0  0  0  0
    8.0131    1.4590    0.0000 H   0  0  0  0  0  0  0  0  0  0  0  0
    7.3931    2.0790    0.0000 H   0  0  0  0  0  0  0  0  0  0  0  0
    6.7731    1.4590    0.0000 H   0  0  0  0  0  0  0  0  0  0  0  0
   10.7477    1.9940    0.0000 H   0  0  0  0  0  0  0  0  0  0  0  0
   10.3459    2.6838    0.0000 H   0  0  0  0  0  0  0  0  0  0  0  0
    2.6718   -0.4264    0.0000 H   0  0  0  0  0  0  0  0  0  0  0  0
    2.2647   -1.1131    0.0000 H   0  0  0  0  0  0  0  0  0  0  0  0
    9.7571   -0.5528    0.0000 H   0  0  0  0  0  0  0  0  0  0  0  0
   10.6023   -0.3193    0.0000 H   0  0  0  0  0  0  0  0  0  0  0  0
   10.3688    0.5259    0.0000 H   0  0  0  0  0  0  0  0  0  0  0  0
    2.7728   -3.1992    0.0000 H   0  0  0  0  0  0  0  0  0  0  0  0
    3.0030   -4.0452    0.0000 H   0  0  0  0  0  0  0  0  0  0  0  0
    3.8490   -3.8150    0.0000 H   0  0  0  0  0  0  0  0  0  0  0  0
    3.7752   -3.8153    0.0000 H   0  0  0  0  0  0  0  0  0  0  0  0
    4.6230   -4.0390    0.0000 H   0  0  0  0  0  0  0  0  0  0  0  0
    4.8466   -3.1912    0.0000 H   0  0  0  0  0  0  0  0  0  0  0  0
   10.2235    3.2033    0.0000 H   0  0  0  0  0  0  0  0  0  0  0  0
    9.9868    4.0476    0.0000 H   0  0  0  0  0  0  0  0  0  0  0  0
    9.1426    3.8108    0.0000 H   0  0  0  0  0  0  0  0  0  0  0  0
    9.2164    3.8117    0.0000 H   0  0  0  0  0  0  0  0  0  0  0  0
    8.3669    4.0288    0.0000 H   0  0  0  0  0  0  0  0  0  0  0  0
    8.1498    3.1793    0.0000 H   0  0  0  0  0  0  0  0  0  0  0  0
  1 26  2  0  0  0  0
  2  3  1  0  0  0  0
  2  4  1  0  0  0  0
  2 10  1  0  0  0  0
  2 32  1  0  0  0  0
  3  8  1  0  0  0  0
  3 12  1  0  0  0  0
  3 20  1  0  0  0  0
  4  7  1  0  0  0  0
  4 15  1  0  0  0  0
  4 22  1  0  0  0  0
  5  6  1  0  0  0  0
  5  8  1  0  0  0  0
  5 11  1  0  0  0  0
  5 23  1  0  0  0  0
  6  9  1  0  0  0  0
  6 16  1  0  0  0  0
  6 33  1  0  0  0  0
  7 13  1  0  0  0  0
  7 14  1  0  0  0  0
  7 34  1  0  0  0  0
  8 18  2  0  0  0  0
  9 17  1  0  0  0  0
  9 19  1  0  0  0  0
  9 27  1  0  0  0  0
 10 11  1  0  0  0  0
 10 35  1  0  0  0  0
 10 36  1  0  0  0  0
 11 37  1  0  0  0  0
 11 38  1  0  0  0  0
 12 13  1  0  0  0  0
 12 39  1  0  0  0  0
 12 40  1  0  0  0  0
 13 41  1  0  0  0  0
 13 42  1  0  0  0  0
 14 26  1  0  0  0  0
 14 28  1  0  0  0  0
 14 29  1  0  0  0  0
 15 25  1  0  0  0  0
 15 43  1  0  0  0  0
 15 44  1  0  0  0  0
 16 21  1  0  0  0  0
 16 45  1  0  0  0  0
 16 46  1  0  0  0  0
 17 18  1  0  0  0  0
 17 47  1  0  0  0  0
 17 48  1  0  0  0  0
 18 49  1  0  0  0  0
 19 24  1  0  0  0  0
 19 50  1  0  0  0  0
 19 51  1  0  0  0  0
 20 52  1  0  0  0  0
 20 53  1  0  0  0  0
 20 54  1  0  0  0  0
 21 24  1  0  0  0  0
 21 30  1  0  0  0  0
 21 31  1  0  0  0  0
 22 55  1  0  0  0  0
 22 56  1  0  0  0  0
 22 57  1  0  0  0  0
 23 58  1  0  0  0  0
 23 59  1  0  0  0  0
 23 60  1  0  0  0  0
 24 61  1  0  0  0  0
 24 62  1  0  0  0  0
 25 26  1  0  0  0  0
 25 63  1  0  0  0  0
 25 64  1  0  0  0  0
 27 65  1  0  0  0  0
 27 66  1  0  0  0  0
 27 67  1  0  0  0  0
 28 68  1  0  0  0  0
 28 69  1  0  0  0  0
 28 70  1  0  0  0  0
 29 71  1  0  0  0  0
 29 72  1  0  0  0  0
 29 73  1  0  0  0  0
 30 74  1  0  0  0  0
 30 75  1  0  0  0  0
 30 76  1  0  0  0  0
 31 77  1  0  0  0  0
 31 78  1  0  0  0  0
 31 79  1  0  0  0  0
M  END
> <PUBCHEM_COMPOUND_CID>
500344
> <PUBCHEM_COMPOUND_CANONICALIZED>
1
> <PUBCHEM_CACTVS_COMPLEXITY>
831
> <PUBCHEM_CACTVS_HBOND_ACCEPTOR>
1
> <PUBCHEM_CACTVS_HBOND_DONOR>
0
> <PUBCHEM_CACTVS_ROTATABLE_BOND>
0
> <PUBCHEM_CACTVS_SUBSKEYS>
AAADcfB4IAAAAAAAAAAAAAAAAAAAAAAAAAAwYMGCAAAAAADAAAAAGgAAAAAADwSAgAACAAAAAACIAqBSAAAAAAAgAAAACAEAAAgAABIAAAAAAAAAgAAIAAMIiMCPgAAAAAAAAACAAAQAACAAAAAAAAAAAA==
> <PUBCHEM_IUPAC_OPENEYE_NAME>
4,4,6a,6a,8a,11,11,14b-octamethyl-2,4a,5,6,8,9,10,12,12a,13,14,14a-dodecahydro-1H-picen-3-one
> <PUBCHEM_IUPAC_CAS_NAME>
4,4,6a,6a,8a,11,11,14b-octamethyl-2,4a,5,6,8,9,10,12,12a,13,14,14a-dodecahydro-1H-picen-3-one
> <PUBCHEM_IUPAC_NAME_MARKUP>
4,4,6<I>a</I>,6<I>a</I>,8<I>a</I>,11,11,14<I>b</I>-octamethyl-2,4<I>a</I>,5,6,8,9,10,12,12<I>a</I>,13,14,14<I>a</I>-dodecahydro-1<I>H</I>-picen-3-one
> <PUBCHEM_IUPAC_NAME>
4,4,6a,6a,8a,11,11,14b-octamethyl-2,4a,5,6,8,9,10,12,12a,13,14,14a-dodecahydro-1H-picen-3-one
> <PUBCHEM_IUPAC_SYSTEMATIC_NAME>
4,4,6a,6a,8a,11,11,14b-octamethyl-2,4a,5,6,8,9,10,12,12a,13,14,14a-dodecahydro-1H-picen-3-one
> <PUBCHEM_IUPAC_TRADITIONAL_NAME>
4,4,6a,6a,8a,11,11,14b-octamethyl-2,4a,5,6,8,9,10,12,12a,13,14,14a-dodecahydro-1H-picen-3-one
> <PUBCHEM_IUPAC_INCHI>
InChI=1S/C30H48O/c1-25(2)17-18-27(5)13-9-21-29(7)14-10-20-26(3,4)24(31)12-16-28(20,6)22(29)11-15-30(21,8)23(27)19-25/h9,20,22-23H,10-19H2,1-8H3
> <PUBCHEM_IUPAC_INCHIKEY>
DBCAVZSSFGIHQZ-UHFFFAOYSA-N
> <PUBCHEM_XLOGP3_AA>
9
> <PUBCHEM_EXACT_MASS>
424.370516150
> <PUBCHEM_MOLECULAR_FORMULA>
C30H48O
> <PUBCHEM_MOLECULAR_WEIGHT>
424.7
> <PUBCHEM_OPENEYE_CAN_SMILES>
CC1(CCC2(CC=C3C4(CCC5C(C(=O)CCC5(C4CCC3(C2C1)C)C)(C)C)C)C)C
> <PUBCHEM_OPENEYE_ISO_SMILES>
CC1(CCC2(CC=C3C4(CCC5C(C(=O)CCC5(C4CCC3(C2C1)C)C)(C)C)C)C)C
> <PUBCHEM_CACTVS_TPSA>
17.1
> <PUBCHEM_MONOISOTOPIC_WEIGHT>
424.370516150
> <PUBCHEM_TOTAL_CHARGE>
0
> <PUBCHEM_HEAVY_ATOM_COUNT>
31
> <PUBCHEM_ATOM_DEF_STEREO_COUNT>
0
> <PUBCHEM_ATOM_UDEF_STEREO_COUNT>
7
> <PUBCHEM_BOND_DEF_STEREO_COUNT>
0
> <PUBCHEM_BOND_UDEF_STEREO_COUNT>
0
> <PUBCHEM_ISOTOPIC_ATOM_COUNT>
0
> <PUBCHEM_COMPONENT_COUNT>
1
> <PUBCHEM_CACTVS_TAUTO_COUNT>
-1
> <PUBCHEM_COORDINATE_TYPE>
1
5
255
> <PUBCHEM_BONDANNOTATIONS>
2  10  3
3  20  3
4  22  3
5  23  3
6  16  3
7  13  3
9  27  3
$$$$
