500343
  -OEChem-10302200282D
 82 83  0     1  0  0  0  0  0999 V2000
    8.2030   -0.4181    0.0000 O   0  0  0  0  0  0  0  0  0  0  0  0
    7.5643    2.6513    0.0000 O   0  0  0  0  0  0  0  0  0  0  0  0
    6.0123    2.2980    0.0000 O   0  0  0  0  0  0  0  0  0  0  0  0
    4.8115    0.6907    0.0000 O   0  0  0  0  0  0  0  0  0  0  0  0
    6.4656   -1.4088    0.0000 O   0  0  0  0  0  0  0  0  0  0  0  0
    3.6730   -0.4357    0.0000 O   0  0  0  0  0  0  0  0  0  0  0  0
    9.0690    1.0819    0.0000 O   0  0  0  0  0  0  0  0  0  0  0  0
    9.2869    2.8324    0.0000 O   0  0  0  0  0  0  0  0  0  0  0  0
    7.3014    3.4548    0.0000 O   0  0  0  0  0  0  0  0  0  0  0  0
    4.7360    2.4211    0.0000 O   0  0  0  0  0  0  0  0  0  0  0  0
    4.0126   -3.7681    0.0000 O   0  0  0  0  0  0  0  0  0  0  0  0
    2.4483   -1.6605    0.0000 O   0  0  0  0  0  0  0  0  0  0  0  0
    6.4709    0.5819    0.0000 C   0  0  3  0  0  0  0  0  0  0  0  0
    7.3369    0.0819    0.0000 C   0  0  3  0  0  0  0  0  0  0  0  0
    7.6688    1.6568    0.0000 C   0  0  3  0  0  0  0  0  0  0  0  0
    6.6801    1.5537    0.0000 C   0  0  3  0  0  0  0  0  0  0  0  0
    8.0740    0.7490    0.0000 C   0  0  0  0  0  0  0  0  0  0  0  0
    5.6049    0.0819    0.0000 C   0  0  3  0  0  0  0  0  0  0  0  0
    7.3369   -0.9181    0.0000 C   0  0  0  0  0  0  0  0  0  0  0  0
    8.5824    2.0635    0.0000 C   0  0  0  0  0  0  0  0  0  0  0  0
    5.3461   -0.8840    0.0000 C   0  0  0  0  0  0  0  0  0  0  0  0
    7.7944   -1.6605    0.0000 C   0  0  3  0  0  0  0  0  0  0  0  0
    4.3801   -1.1428    0.0000 C   0  0  3  0  0  0  0  0  0  0  0  0
    9.0690    0.0819    0.0000 C   0  0  0  0  0  0  0  0  0  0  0  0
    7.2944   -2.5265    0.0000 C   0  0  0  0  0  0  0  0  0  0  0  0
    8.7861   -1.5324    0.0000 C   0  0  0  0  0  0  0  0  0  0  0  0
    8.3733    3.2391    0.0000 C   0  0  0  0  0  0  0  0  0  0  0  0
    6.3229    3.2486    0.0000 C   0  0  0  0  0  0  0  0  0  0  0  0
    4.1213   -2.1088    0.0000 C   0  0  0  0  0  0  0  0  0  0  0  0
    5.6049   -1.8499    0.0000 C   0  0  0  0  0  0  0  0  0  0  0  0
    5.5872   -3.2336    0.0000 C   0  0  0  0  0  0  0  0  0  0  0  0
    6.2944   -2.5265    0.0000 C   0  0  0  0  0  0  0  0  0  0  0  0
    4.2742    1.5341    0.0000 C   0  0  0  0  0  0  0  0  0  0  0  0
    4.6213   -2.9748    0.0000 C   0  0  0  0  0  0  0  0  0  0  0  0
    9.9350   -0.4181    0.0000 C   0  0  0  0  0  0  0  0  0  0  0  0
    8.2688    4.2336    0.0000 C   0  0  0  0  0  0  0  0  0  0  0  0
    5.6551    3.9928    0.0000 C   0  0  0  0  0  0  0  0  0  0  0  0
    5.5872   -4.2336    0.0000 C   0  0  0  0  0  0  0  0  0  0  0  0
    6.4533   -3.7336    0.0000 C   0  0  0  0  0  0  0  0  0  0  0  0
    3.2752    1.4904    0.0000 C   0  0  0  0  0  0  0  0  0  0  0  0
    2.7071   -0.6945    0.0000 C   0  0  0  0  0  0  0  0  0  0  0  0
    2.0000    0.0126    0.0000 C   0  0  0  0  0  0  0  0  0  0  0  0
    5.9698    0.9470    0.0000 H   0  0  0  0  0  0  0  0  0  0  0  0
    6.9030    2.1323    0.0000 H   0  0  0  0  0  0  0  0  0  0  0  0
    8.4394    0.2481    0.0000 H   0  0  0  0  0  0  0  0  0  0  0  0
    8.6104    1.0598    0.0000 H   0  0  0  0  0  0  0  0  0  0  0  0
    5.0178   -0.1174    0.0000 H   0  0  0  0  0  0  0  0  0  0  0  0
    8.8346    1.4971    0.0000 H   0  0  0  0  0  0  0  0  0  0  0  0
    9.1488    2.3157    0.0000 H   0  0  0  0  0  0  0  0  0  0  0  0
    8.3302    2.6299    0.0000 H   0  0  0  0  0  0  0  0  0  0  0  0
    8.1382   -2.1764    0.0000 H   0  0  0  0  0  0  0  0  0  0  0  0
    4.5406   -0.5440    0.0000 H   0  0  0  0  0  0  0  0  0  0  0  0
    7.6044   -3.0634    0.0000 H   0  0  0  0  0  0  0  0  0  0  0  0
    8.8655   -2.1473    0.0000 H   0  0  0  0  0  0  0  0  0  0  0  0
    9.4010   -1.4530    0.0000 H   0  0  0  0  0  0  0  0  0  0  0  0
    8.7067   -0.9175    0.0000 H   0  0  0  0  0  0  0  0  0  0  0  0
    3.5844   -1.7988    0.0000 H   0  0  0  0  0  0  0  0  0  0  0  0
    3.6829   -2.5472    0.0000 H   0  0  0  0  0  0  0  0  0  0  0  0
    5.1665   -2.2884    0.0000 H   0  0  0  0  0  0  0  0  0  0  0  0
    6.2038   -2.0104    0.0000 H   0  0  0  0  0  0  0  0  0  0  0  0
    6.0571   -1.9537    0.0000 H   0  0  0  0  0  0  0  0  0  0  0  0
    9.6250   -0.9550    0.0000 H   0  0  0  0  0  0  0  0  0  0  0  0
   10.4719   -0.7281    0.0000 H   0  0  0  0  0  0  0  0  0  0  0  0
   10.2450    0.1188    0.0000 H   0  0  0  0  0  0  0  0  0  0  0  0
    8.8854    4.2984    0.0000 H   0  0  0  0  0  0  0  0  0  0  0  0
    8.2040    4.8502    0.0000 H   0  0  0  0  0  0  0  0  0  0  0  0
    7.6522    4.1688    0.0000 H   0  0  0  0  0  0  0  0  0  0  0  0
    6.1166    4.4069    0.0000 H   0  0  0  0  0  0  0  0  0  0  0  0
    5.2410    4.4543    0.0000 H   0  0  0  0  0  0  0  0  0  0  0  0
    5.1936    3.5788    0.0000 H   0  0  0  0  0  0  0  0  0  0  0  0
    4.9672   -4.2336    0.0000 H   0  0  0  0  0  0  0  0  0  0  0  0
    5.5872   -4.8536    0.0000 H   0  0  0  0  0  0  0  0  0  0  0  0
    6.2072   -4.2336    0.0000 H   0  0  0  0  0  0  0  0  0  0  0  0
    6.1433   -4.2705    0.0000 H   0  0  0  0  0  0  0  0  0  0  0  0
    6.9902   -4.0436    0.0000 H   0  0  0  0  0  0  0  0  0  0  0  0
    6.7633   -3.1967    0.0000 H   0  0  0  0  0  0  0  0  0  0  0  0
    3.2481    2.1098    0.0000 H   0  0  0  0  0  0  0  0  0  0  0  0
    2.6558    1.4634    0.0000 H   0  0  0  0  0  0  0  0  0  0  0  0
    3.3022    0.8710    0.0000 H   0  0  0  0  0  0  0  0  0  0  0  0
    2.4384    0.4510    0.0000 H   0  0  0  0  0  0  0  0  0  0  0  0
    1.5616    0.4510    0.0000 H   0  0  0  0  0  0  0  0  0  0  0  0
    1.5616   -0.4258    0.0000 H   0  0  0  0  0  0  0  0  0  0  0  0
  1 14  1  0  0  0  0
  1 24  1  0  0  0  0
  2 15  1  0  0  0  0
  2 27  1  0  0  0  0
  3 16  1  0  0  0  0
  3 28  1  0  0  0  0
  4 18  1  0  0  0  0
  4 33  1  0  0  0  0
  5 19  2  0  0  0  0
  6 23  1  0  0  0  0
  6 41  1  0  0  0  0
  7 24  2  0  0  0  0
  8 27  2  0  0  0  0
  9 28  2  0  0  0  0
 10 33  2  0  0  0  0
 11 34  2  0  0  0  0
 12 41  2  0  0  0  0
 13 14  1  0  0  0  0
 13 16  1  0  0  0  0
 13 18  1  0  0  0  0
 13 43  1  0  0  0  0
 14 17  1  0  0  0  0
 14 19  1  0  0  0  0
 15 16  1  0  0  0  0
 15 17  1  0  0  0  0
 15 20  1  0  0  0  0
 16 44  1  0  0  0  0
 17 45  1  0  0  0  0
 17 46  1  0  0  0  0
 18 21  1  0  0  0  0
 18 47  1  0  0  0  0
 19 22  1  0  0  0  0
 20 48  1  0  0  0  0
 20 49  1  0  0  0  0
 20 50  1  0  0  0  0
 21 23  1  0  0  0  0
 21 30  2  0  0  0  0
 22 25  1  0  0  0  0
 22 26  1  0  0  0  0
 22 51  1  0  0  0  0
 23 29  1  0  0  0  0
 23 52  1  0  0  0  0
 24 35  1  0  0  0  0
 25 32  2  3  0  0  0
 25 53  1  0  0  0  0
 26 54  1  0  0  0  0
 26 55  1  0  0  0  0
 26 56  1  0  0  0  0
 27 36  1  0  0  0  0
 28 37  1  0  0  0  0
 29 34  1  0  0  0  0
 29 57  1  0  0  0  0
 29 58  1  0  0  0  0
 30 59  1  0  0  0  0
 30 60  1  0  0  0  0
 31 32  1  0  0  0  0
 31 34  1  0  0  0  0
 31 38  1  0  0  0  0
 31 39  1  0  0  0  0
 32 61  1  0  0  0  0
 33 40  1  0  0  0  0
 35 62  1  0  0  0  0
 35 63  1  0  0  0  0
 35 64  1  0  0  0  0
 36 65  1  0  0  0  0
 36 66  1  0  0  0  0
 36 67  1  0  0  0  0
 37 68  1  0  0  0  0
 37 69  1  0  0  0  0
 37 70  1  0  0  0  0
 38 71  1  0  0  0  0
 38 72  1  0  0  0  0
 38 73  1  0  0  0  0
 39 74  1  0  0  0  0
 39 75  1  0  0  0  0
 39 76  1  0  0  0  0
 40 77  1  0  0  0  0
 40 78  1  0  0  0  0
 40 79  1  0  0  0  0
 41 42  1  0  0  0  0
 42 80  1  0  0  0  0
 42 81  1  0  0  0  0
 42 82  1  0  0  0  0
M  END
> <PUBCHEM_COMPOUND_CID>
500343
> <PUBCHEM_COMPOUND_CANONICALIZED>
1
> <PUBCHEM_CACTVS_COMPLEXITY>
1210
> <PUBCHEM_CACTVS_HBOND_ACCEPTOR>
12
> <PUBCHEM_CACTVS_HBOND_DONOR>
0
> <PUBCHEM_CACTVS_ROTATABLE_BOND>
10
> <PUBCHEM_CACTVS_SUBSKEYS>
AAADcfB4PAAAAAAAAAAAAAAAAAAAAYAAAAAAAAAAAAAAAAAAAAAAGgAAAAAAD1SggAICCAAABACIAqDSCAIAAAAgAAAICAFAAAgBBBYAIQQCAAAFoAAKIAPK7PzPgAAAAAAAAAAAAAAAAAAAAYQADCAAAA==
> <PUBCHEM_IUPAC_OPENEYE_NAME>
(1,2,3a,13-tetraacetoxy-2,5,8,8-tetramethyl-12-methylene-4,9-dioxo-3,5,10,11,13,13a-hexahydro-1H-cyclopenta[12]annulen-11-yl) acetate
> <PUBCHEM_IUPAC_CAS_NAME>
acetic acid (1,2,3a,13-tetraacetyloxy-2,5,8,8-tetramethyl-12-methylene-4,9-dioxo-3,5,10,11,13,13a-hexahydro-1H-cyclopenta[12]annulen-11-yl) ester
> <PUBCHEM_IUPAC_NAME_MARKUP>
(1,2,3<I>a</I>,13-tetraacetyloxy-2,5,8,8-tetramethyl-12-methylidene-4,9-dioxo-3,5,10,11,13,13<I>a</I>-hexahydro-1<I>H</I>-cyclopenta[12]annulen-11-yl) acetate
> <PUBCHEM_IUPAC_NAME>
(1,2,3a,13-tetraacetyloxy-2,5,8,8-tetramethyl-12-methylidene-4,9-dioxo-3,5,10,11,13,13a-hexahydro-1H-cyclopenta[12]annulen-11-yl) acetate
> <PUBCHEM_IUPAC_SYSTEMATIC_NAME>
[1,2,3a,13-tetraacetyloxy-2,5,8,8-tetramethyl-12-methylidene-4,9-bis(oxidanylidene)-3,5,10,11,13,13a-hexahydro-1H-cyclopenta[12]annulen-11-yl] ethanoate
> <PUBCHEM_IUPAC_TRADITIONAL_NAME>
acetic acid (1,2,3a,13-tetraacetoxy-4,9-diketo-2,5,8,8-tetramethyl-12-methylene-3,5,10,11,13,13a-hexahydro-1H-cyclopentacyclododecen-11-yl) ester
> <PUBCHEM_IUPAC_INCHI>
InChI=1S/C30H40O12/c1-15-11-12-28(8,9)23(36)13-22(38-17(3)31)16(2)25(39-18(4)32)24-27(40-19(5)33)29(10,41-20(6)34)14-30(24,26(15)37)42-21(7)35/h11-12,15,22,24-25,27H,2,13-14H2,1,3-10H3
> <PUBCHEM_IUPAC_INCHIKEY>
DHHVTLZJOAQUPG-UHFFFAOYSA-N
> <PUBCHEM_XLOGP3_AA>
1.9
> <PUBCHEM_EXACT_MASS>
592.25197671
> <PUBCHEM_MOLECULAR_FORMULA>
C30H40O12
> <PUBCHEM_MOLECULAR_WEIGHT>
592.6
> <PUBCHEM_OPENEYE_CAN_SMILES>
CC1C=CC(C(=O)CC(C(=C)C(C2C(C(CC2(C1=O)OC(=O)C)(C)OC(=O)C)OC(=O)C)OC(=O)C)OC(=O)C)(C)C
> <PUBCHEM_OPENEYE_ISO_SMILES>
CC1C=CC(C(=O)CC(C(=C)C(C2C(C(CC2(C1=O)OC(=O)C)(C)OC(=O)C)OC(=O)C)OC(=O)C)OC(=O)C)(C)C
> <PUBCHEM_CACTVS_TPSA>
166
> <PUBCHEM_MONOISOTOPIC_WEIGHT>
592.25197671
> <PUBCHEM_TOTAL_CHARGE>
0
> <PUBCHEM_HEAVY_ATOM_COUNT>
42
> <PUBCHEM_ATOM_DEF_STEREO_COUNT>
0
> <PUBCHEM_ATOM_UDEF_STEREO_COUNT>
7
> <PUBCHEM_BOND_DEF_STEREO_COUNT>
0
> <PUBCHEM_BOND_UDEF_STEREO_COUNT>
1
> <PUBCHEM_ISOTOPIC_ATOM_COUNT>
0
> <PUBCHEM_COMPONENT_COUNT>
1
> <PUBCHEM_CACTVS_TAUTO_COUNT>
-1
> <PUBCHEM_COORDINATE_TYPE>
1
5
255
> <PUBCHEM_BONDANNOTATIONS>
14  1  3
13  18  3
15  20  3
22  26  3
25  32  1
16  3  3
18  4  3
23  6  3
$$$$
