500333
  -OEChem-10302200282D
 28 29  0     1  0  0  0  0  0999 V2000
    2.1910    1.2063    0.0000 S   0  0  0  0  0  0  0  0  0  0  0  0
    3.0000   -4.3815    0.0000 F   0  0  0  0  0  0  0  0  0  0  0  0
    2.0000   -3.3815    0.0000 F   0  0  0  0  0  0  0  0  0  0  0  0
    4.0000   -3.3815    0.0000 F   0  0  0  0  0  0  0  0  0  0  0  0
    3.6810    3.8799    0.0000 O   0  0  0  0  0  0  0  0  0  0  0  0
    5.0823    2.8618    0.0000 O   0  0  0  0  0  0  0  0  0  0  0  0
    3.8090    1.2063    0.0000 N   0  0  0  0  0  0  0  0  0  0  0  0
    3.0000    0.6185    0.0000 C   0  0  3  0  0  0  0  0  0  0  0  0
    3.5000    2.1573    0.0000 C   0  0  3  0  0  0  0  0  0  0  0  0
    2.5000    2.1573    0.0000 C   0  0  0  0  0  0  0  0  0  0  0  0
    3.0000   -0.3815    0.0000 C   0  0  0  0  0  0  0  0  0  0  0  0
    4.0878    2.9664    0.0000 C   0  0  0  0  0  0  0  0  0  0  0  0
    3.8660   -0.8815    0.0000 C   0  0  0  0  0  0  0  0  0  0  0  0
    2.1340   -0.8815    0.0000 C   0  0  0  0  0  0  0  0  0  0  0  0
    3.0000   -2.3815    0.0000 C   0  0  0  0  0  0  0  0  0  0  0  0
    3.8660   -1.8815    0.0000 C   0  0  0  0  0  0  0  0  0  0  0  0
    2.1340   -1.8815    0.0000 C   0  0  0  0  0  0  0  0  0  0  0  0
    3.0000   -3.3815    0.0000 C   0  0  0  0  0  0  0  0  0  0  0  0
    3.5524    0.3370    0.0000 H   0  0  0  0  0  0  0  0  0  0  0  0
    4.1124    2.0604    0.0000 H   0  0  0  0  0  0  0  0  0  0  0  0
    2.5648    2.7740    0.0000 H   0  0  0  0  0  0  0  0  0  0  0  0
    1.8936    2.2862    0.0000 H   0  0  0  0  0  0  0  0  0  0  0  0
    4.3987    1.0147    0.0000 H   0  0  0  0  0  0  0  0  0  0  0  0
    4.4030   -0.5715    0.0000 H   0  0  0  0  0  0  0  0  0  0  0  0
    1.5970   -0.5715    0.0000 H   0  0  0  0  0  0  0  0  0  0  0  0
    4.4030   -2.1915    0.0000 H   0  0  0  0  0  0  0  0  0  0  0  0
    1.5970   -2.1915    0.0000 H   0  0  0  0  0  0  0  0  0  0  0  0
    4.0455    4.3815    0.0000 H   0  0  0  0  0  0  0  0  0  0  0  0
  1  8  1  0  0  0  0
  1 10  1  0  0  0  0
  2 18  1  0  0  0  0
  3 18  1  0  0  0  0
  4 18  1  0  0  0  0
  5 12  1  0  0  0  0
  5 28  1  0  0  0  0
  6 12  2  0  0  0  0
  7  8  1  0  0  0  0
  7  9  1  0  0  0  0
  7 23  1  0  0  0  0
  8 11  1  0  0  0  0
  8 19  1  0  0  0  0
  9 10  1  0  0  0  0
  9 12  1  0  0  0  0
  9 20  1  0  0  0  0
 10 21  1  0  0  0  0
 10 22  1  0  0  0  0
 11 13  2  0  0  0  0
 11 14  1  0  0  0  0
 13 16  1  0  0  0  0
 13 24  1  0  0  0  0
 14 17  2  0  0  0  0
 14 25  1  0  0  0  0
 15 16  2  0  0  0  0
 15 17  1  0  0  0  0
 15 18  1  0  0  0  0
 16 26  1  0  0  0  0
 17 27  1  0  0  0  0
M  END
> <PUBCHEM_COMPOUND_CID>
500333
> <PUBCHEM_COMPOUND_CANONICALIZED>
1
> <PUBCHEM_CACTVS_COMPLEXITY>
316
> <PUBCHEM_CACTVS_HBOND_ACCEPTOR>
7
> <PUBCHEM_CACTVS_HBOND_DONOR>
2
> <PUBCHEM_CACTVS_ROTATABLE_BOND>
2
> <PUBCHEM_CACTVS_SUBSKEYS>
AAADccByMYBAAAAAAAAAAAAAAAAAAWAAAAAwAAAAAAAAAAABAAAAHwQQCAAADCjF2BSwCILAAgiIAiDSCACCAABgABAIiIGIBIgKICKgkTGEYAhgkAC4iAcQgAAOQAAAAAAAAACAAAAAAAAAAAAAAAAAAA==
> <PUBCHEM_IUPAC_OPENEYE_NAME>
2-[4-(trifluoromethyl)phenyl]thiazolidine-4-carboxylic acid
> <PUBCHEM_IUPAC_CAS_NAME>
2-[4-(trifluoromethyl)phenyl]-4-thiazolidinecarboxylic acid
> <PUBCHEM_IUPAC_NAME_MARKUP>
2-[4-(trifluoromethyl)phenyl]-1,3-thiazolidine-4-carboxylic acid
> <PUBCHEM_IUPAC_NAME>
2-[4-(trifluoromethyl)phenyl]-1,3-thiazolidine-4-carboxylic acid
> <PUBCHEM_IUPAC_SYSTEMATIC_NAME>
2-[4-(trifluoromethyl)phenyl]-1,3-thiazolidine-4-carboxylic acid
> <PUBCHEM_IUPAC_TRADITIONAL_NAME>
2-[4-(trifluoromethyl)phenyl]thiazolidine-4-carboxylic acid
> <PUBCHEM_IUPAC_INCHI>
InChI=1S/C11H10F3NO2S/c12-11(13,14)7-3-1-6(2-4-7)9-15-8(5-18-9)10(16)17/h1-4,8-9,15H,5H2,(H,16,17)
> <PUBCHEM_IUPAC_INCHIKEY>
IYXKNSQXIDNVDV-UHFFFAOYSA-N
> <PUBCHEM_XLOGP3_AA>
0.1
> <PUBCHEM_EXACT_MASS>
277.03843422
> <PUBCHEM_MOLECULAR_FORMULA>
C11H10F3NO2S
> <PUBCHEM_MOLECULAR_WEIGHT>
277.26
> <PUBCHEM_OPENEYE_CAN_SMILES>
C1C(NC(S1)C2=CC=C(C=C2)C(F)(F)F)C(=O)O
> <PUBCHEM_OPENEYE_ISO_SMILES>
C1C(NC(S1)C2=CC=C(C=C2)C(F)(F)F)C(=O)O
> <PUBCHEM_CACTVS_TPSA>
74.6
> <PUBCHEM_MONOISOTOPIC_WEIGHT>
277.03843422
> <PUBCHEM_TOTAL_CHARGE>
0
> <PUBCHEM_HEAVY_ATOM_COUNT>
18
> <PUBCHEM_ATOM_DEF_STEREO_COUNT>
0
> <PUBCHEM_ATOM_UDEF_STEREO_COUNT>
2
> <PUBCHEM_BOND_DEF_STEREO_COUNT>
0
> <PUBCHEM_BOND_UDEF_STEREO_COUNT>
0
> <PUBCHEM_ISOTOPIC_ATOM_COUNT>
0
> <PUBCHEM_COMPONENT_COUNT>
1
> <PUBCHEM_CACTVS_TAUTO_COUNT>
-1
> <PUBCHEM_COORDINATE_TYPE>
1
5
255
> <PUBCHEM_BONDANNOTATIONS>
11  13  8
11  14  8
13  16  8
14  17  8
15  16  8
15  17  8
8  11  3
9  12  3
$$$$
