500355
  -OEChem-10302200282D
 45 47  0     1  0  0  0  0  0999 V2000
    3.2320    2.5194    0.0000 S   0  0  0  0  0  0  0  0  0  0  0  0
    3.2320    3.5194    0.0000 O   0  0  0  0  0  0  0  0  0  0  0  0
    2.2810    2.8284    0.0000 O   0  0  0  0  0  0  0  0  0  0  0  0
    3.7320   -0.0194    0.0000 N   0  0  0  0  0  0  0  0  0  0  0  0
    5.4921    1.2594    0.0000 N   0  0  0  0  0  0  0  0  0  0  0  0
    3.7320    0.9806    0.0000 C   0  0  3  0  0  0  0  0  0  0  0  0
    4.5411    1.5684    0.0000 C   0  0  3  0  0  0  0  0  0  0  0  0
    2.9230    1.5684    0.0000 C   0  0  0  0  0  0  0  0  0  0  0  0
    4.2320    2.5194    0.0000 C   0  0  0  0  0  0  0  0  0  0  0  0
    2.8660   -0.5194    0.0000 C   0  0  0  0  0  0  0  0  0  0  0  0
    6.2353    1.9285    0.0000 C   0  0  0  0  0  0  0  0  0  0  0  0
    2.8660   -1.5194    0.0000 C   0  0  0  0  0  0  0  0  0  0  0  0
    7.1863    1.6195    0.0000 C   0  0  0  0  0  0  0  0  0  0  0  0
    2.0000   -2.0194    0.0000 C   0  0  0  0  0  0  0  0  0  0  0  0
    7.3942    0.6413    0.0000 C   0  0  0  0  0  0  0  0  0  0  0  0
    3.7320   -2.0194    0.0000 C   0  0  0  0  0  0  0  0  0  0  0  0
    7.9295    2.2886    0.0000 C   0  0  0  0  0  0  0  0  0  0  0  0
    2.0000   -3.0194    0.0000 C   0  0  0  0  0  0  0  0  0  0  0  0
    8.3453    0.3323    0.0000 C   0  0  0  0  0  0  0  0  0  0  0  0
    3.7320   -3.0194    0.0000 C   0  0  0  0  0  0  0  0  0  0  0  0
    8.8805    1.9796    0.0000 C   0  0  0  0  0  0  0  0  0  0  0  0
    2.8660   -3.5194    0.0000 C   0  0  0  0  0  0  0  0  0  0  0  0
    9.0884    1.0014    0.0000 C   0  0  0  0  0  0  0  0  0  0  0  0
    4.2845    0.6991    0.0000 H   0  0  0  0  0  0  0  0  0  0  0  0
    4.9795    2.0068    0.0000 H   0  0  0  0  0  0  0  0  0  0  0  0
    2.3566    1.8205    0.0000 H   0  0  0  0  0  0  0  0  0  0  0  0
    2.6130    1.0314    0.0000 H   0  0  0  0  0  0  0  0  0  0  0  0
    4.8385    2.6483    0.0000 H   0  0  0  0  0  0  0  0  0  0  0  0
    4.1672    3.1360    0.0000 H   0  0  0  0  0  0  0  0  0  0  0  0
    4.2690   -0.3294    0.0000 H   0  0  0  0  0  0  0  0  0  0  0  0
    5.6210    0.6529    0.0000 H   0  0  0  0  0  0  0  0  0  0  0  0
    2.6540    0.0632    0.0000 H   0  0  0  0  0  0  0  0  0  0  0  0
    2.2554   -0.6271    0.0000 H   0  0  0  0  0  0  0  0  0  0  0  0
    6.5263    2.4759    0.0000 H   0  0  0  0  0  0  0  0  0  0  0  0
    5.7467    2.3102    0.0000 H   0  0  0  0  0  0  0  0  0  0  0  0
    1.4631   -1.7094    0.0000 H   0  0  0  0  0  0  0  0  0  0  0  0
    6.9335    0.2265    0.0000 H   0  0  0  0  0  0  0  0  0  0  0  0
    4.2690   -1.7094    0.0000 H   0  0  0  0  0  0  0  0  0  0  0  0
    7.8006    2.8950    0.0000 H   0  0  0  0  0  0  0  0  0  0  0  0
    1.4631   -3.3294    0.0000 H   0  0  0  0  0  0  0  0  0  0  0  0
    8.4742   -0.2742    0.0000 H   0  0  0  0  0  0  0  0  0  0  0  0
    4.2690   -3.3294    0.0000 H   0  0  0  0  0  0  0  0  0  0  0  0
    9.3413    2.3944    0.0000 H   0  0  0  0  0  0  0  0  0  0  0  0
    2.8660   -4.1394    0.0000 H   0  0  0  0  0  0  0  0  0  0  0  0
    9.6781    0.8098    0.0000 H   0  0  0  0  0  0  0  0  0  0  0  0
  1  2  2  0  0  0  0
  1  3  2  0  0  0  0
  1  8  1  0  0  0  0
  1  9  1  0  0  0  0
  4  6  1  0  0  0  0
  4 10  1  0  0  0  0
  4 30  1  0  0  0  0
  5  7  1  0  0  0  0
  5 11  1  0  0  0  0
  5 31  1  0  0  0  0
  6  7  1  0  0  0  0
  6  8  1  0  0  0  0
  6 24  1  0  0  0  0
  7  9  1  0  0  0  0
  7 25  1  0  0  0  0
  8 26  1  0  0  0  0
  8 27  1  0  0  0  0
  9 28  1  0  0  0  0
  9 29  1  0  0  0  0
 10 12  1  0  0  0  0
 10 32  1  0  0  0  0
 10 33  1  0  0  0  0
 11 13  1  0  0  0  0
 11 34  1  0  0  0  0
 11 35  1  0  0  0  0
 12 14  2  0  0  0  0
 12 16  1  0  0  0  0
 13 15  2  0  0  0  0
 13 17  1  0  0  0  0
 14 18  1  0  0  0  0
 14 36  1  0  0  0  0
 15 19  1  0  0  0  0
 15 37  1  0  0  0  0
 16 20  2  0  0  0  0
 16 38  1  0  0  0  0
 17 21  2  0  0  0  0
 17 39  1  0  0  0  0
 18 22  2  0  0  0  0
 18 40  1  0  0  0  0
 19 23  2  0  0  0  0
 19 41  1  0  0  0  0
 20 22  1  0  0  0  0
 20 42  1  0  0  0  0
 21 23  1  0  0  0  0
 21 43  1  0  0  0  0
 22 44  1  0  0  0  0
 23 45  1  0  0  0  0
M  END
> <PUBCHEM_COMPOUND_CID>
500355
> <PUBCHEM_COMPOUND_CANONICALIZED>
1
> <PUBCHEM_CACTVS_COMPLEXITY>
412
> <PUBCHEM_CACTVS_HBOND_ACCEPTOR>
4
> <PUBCHEM_CACTVS_HBOND_DONOR>
2
> <PUBCHEM_CACTVS_ROTATABLE_BOND>
6
> <PUBCHEM_CACTVS_SUBSKEYS>
AAADceB7MABAAAAAAAAAAAAAAAAAASAAAAAwYAAAAAAAAAABQAAAHAQQAAAADCjFWASwAILAAAqAAiBCAHDCAAAgABAIiIAIBIgIYCKgkRGUIAhgkACoiAcQgAAOAAAAAAAAAAAAAAAAAAAAAAAAAAAAAA==
> <PUBCHEM_IUPAC_OPENEYE_NAME>
N3,N4-dibenzyl-1,1-dioxo-thiolane-3,4-diamine
> <PUBCHEM_IUPAC_CAS_NAME>
1,1-dioxo-N3,N4-bis(phenylmethyl)thiolane-3,4-diamine
> <PUBCHEM_IUPAC_NAME_MARKUP>
3-<I>N</I>,4-<I>N</I>-dibenzyl-1,1-dioxothiolane-3,4-diamine
> <PUBCHEM_IUPAC_NAME>
3-N,4-N-dibenzyl-1,1-dioxothiolane-3,4-diamine
> <PUBCHEM_IUPAC_SYSTEMATIC_NAME>
1,1-bis(oxidanylidene)-N3,N4-bis(phenylmethyl)thiolane-3,4-diamine
> <PUBCHEM_IUPAC_TRADITIONAL_NAME>
benzyl-[4-(benzylamino)-1,1-diketo-thiolan-3-yl]amine
> <PUBCHEM_IUPAC_INCHI>
InChI=1S/C18H22N2O2S/c21-23(22)13-17(19-11-15-7-3-1-4-8-15)18(14-23)20-12-16-9-5-2-6-10-16/h1-10,17-20H,11-14H2
> <PUBCHEM_IUPAC_INCHIKEY>
VBWQFJPGNFMRGR-UHFFFAOYSA-N
> <PUBCHEM_XLOGP3_AA>
1.6
> <PUBCHEM_EXACT_MASS>
330.14019912
> <PUBCHEM_MOLECULAR_FORMULA>
C18H22N2O2S
> <PUBCHEM_MOLECULAR_WEIGHT>
330.4
> <PUBCHEM_OPENEYE_CAN_SMILES>
C1C(C(CS1(=O)=O)NCC2=CC=CC=C2)NCC3=CC=CC=C3
> <PUBCHEM_OPENEYE_ISO_SMILES>
C1C(C(CS1(=O)=O)NCC2=CC=CC=C2)NCC3=CC=CC=C3
> <PUBCHEM_CACTVS_TPSA>
66.6
> <PUBCHEM_MONOISOTOPIC_WEIGHT>
330.14019912
> <PUBCHEM_TOTAL_CHARGE>
0
> <PUBCHEM_HEAVY_ATOM_COUNT>
23
> <PUBCHEM_ATOM_DEF_STEREO_COUNT>
0
> <PUBCHEM_ATOM_UDEF_STEREO_COUNT>
2
> <PUBCHEM_BOND_DEF_STEREO_COUNT>
0
> <PUBCHEM_BOND_UDEF_STEREO_COUNT>
0
> <PUBCHEM_ISOTOPIC_ATOM_COUNT>
0
> <PUBCHEM_COMPONENT_COUNT>
1
> <PUBCHEM_CACTVS_TAUTO_COUNT>
-1
> <PUBCHEM_COORDINATE_TYPE>
1
5
255
> <PUBCHEM_BONDANNOTATIONS>
12  14  8
12  16  8
13  15  8
13  17  8
14  18  8
15  19  8
16  20  8
17  21  8
18  22  8
19  23  8
20  22  8
21  23  8
6  4  3
7  5  3
$$$$
