500354
  -OEChem-10302200282D
 48 52  0     1  0  0  0  0  0999 V2000
    7.5886   -0.7306    0.0000 S   0  0  0  0  0  0  0  0  0  0  0  0
    4.0443   -0.5353    0.0000 O   0  0  0  0  0  0  0  0  0  0  0  0
    5.0475   -1.3184    0.0000 O   0  0  0  0  0  0  0  0  0  0  0  0
    6.6655   -1.3184    0.0000 O   0  0  0  0  0  0  0  0  0  0  0  0
    5.8565    2.2694    0.0000 O   0  0  0  0  0  0  0  0  0  0  0  0
    3.4607    0.2694    0.0000 N   0  0  3  0  0  0  0  0  0  0  0  0
    4.9905    0.7694    0.0000 C   0  0  3  0  0  0  0  0  0  0  0  0
    4.9905   -0.2306    0.0000 C   0  0  3  0  0  0  0  0  0  0  0  0
    4.0443    1.0742    0.0000 C   0  0  3  0  0  0  0  0  0  0  0  0
    5.8565   -0.7306    0.0000 C   0  0  0  0  0  0  0  0  0  0  0  0
    6.7226   -0.2306    0.0000 C   0  0  3  0  0  0  0  0  0  0  0  0
    3.6369    2.0261    0.0000 C   0  0  0  0  0  0  0  0  0  0  0  0
    5.8565    1.2694    0.0000 C   0  0  0  0  0  0  0  0  0  0  0  0
    6.7226    0.7694    0.0000 C   0  0  0  0  0  0  0  0  0  0  0  0
    2.4293    0.3609    0.0000 C   0  0  0  0  0  0  0  0  0  0  0  0
    2.6079    2.1414    0.0000 C   0  0  0  0  0  0  0  0  0  0  0  0
    2.0000    1.3032    0.0000 C   0  0  0  0  0  0  0  0  0  0  0  0
    5.3565   -2.2694    0.0000 C   0  0  0  0  0  0  0  0  0  0  0  0
    6.3565   -2.2694    0.0000 C   0  0  0  0  0  0  0  0  0  0  0  0
    8.4546   -0.2306    0.0000 C   0  0  0  0  0  0  0  0  0  0  0  0
    8.4546    0.7694    0.0000 C   0  0  0  0  0  0  0  0  0  0  0  0
    9.3206   -0.7306    0.0000 C   0  0  0  0  0  0  0  0  0  0  0  0
    9.3206    1.2694    0.0000 C   0  0  0  0  0  0  0  0  0  0  0  0
   10.1867   -0.2306    0.0000 C   0  0  0  0  0  0  0  0  0  0  0  0
   10.1867    0.7694    0.0000 C   0  0  0  0  0  0  0  0  0  0  0  0
    4.9249    1.3859    0.0000 H   0  0  0  0  0  0  0  0  0  0  0  0
    4.9249   -0.8471    0.0000 H   0  0  0  0  0  0  0  0  0  0  0  0
    4.4619    1.5324    0.0000 H   0  0  0  0  0  0  0  0  0  0  0  0
    7.2595    0.0794    0.0000 H   0  0  0  0  0  0  0  0  0  0  0  0
    4.2403    2.1689    0.0000 H   0  0  0  0  0  0  0  0  0  0  0  0
    3.5995    2.6450    0.0000 H   0  0  0  0  0  0  0  0  0  0  0  0
    7.3331    0.6618    0.0000 H   0  0  0  0  0  0  0  0  0  0  0  0
    6.9346    1.3520    0.0000 H   0  0  0  0  0  0  0  0  0  0  0  0
    1.8294    0.2042    0.0000 H   0  0  0  0  0  0  0  0  0  0  0  0
    2.4810   -0.2570    0.0000 H   0  0  0  0  0  0  0  0  0  0  0  0
    2.7814    2.7366    0.0000 H   0  0  0  0  0  0  0  0  0  0  0  0
    2.0511    2.4141    0.0000 H   0  0  0  0  0  0  0  0  0  0  0  0
    1.5678    1.7477    0.0000 H   0  0  0  0  0  0  0  0  0  0  0  0
    1.4881    0.9534    0.0000 H   0  0  0  0  0  0  0  0  0  0  0  0
    4.7501   -2.3983    0.0000 H   0  0  0  0  0  0  0  0  0  0  0  0
    5.4213   -2.8860    0.0000 H   0  0  0  0  0  0  0  0  0  0  0  0
    6.2917   -2.8860    0.0000 H   0  0  0  0  0  0  0  0  0  0  0  0
    6.9630   -2.3983    0.0000 H   0  0  0  0  0  0  0  0  0  0  0  0
    7.9177    1.0794    0.0000 H   0  0  0  0  0  0  0  0  0  0  0  0
    9.3206   -1.3506    0.0000 H   0  0  0  0  0  0  0  0  0  0  0  0
    9.3206    1.8894    0.0000 H   0  0  0  0  0  0  0  0  0  0  0  0
   10.7236   -0.5406    0.0000 H   0  0  0  0  0  0  0  0  0  0  0  0
   10.7236    1.0794    0.0000 H   0  0  0  0  0  0  0  0  0  0  0  0
  1 11  1  0  0  0  0
  1 20  1  0  0  0  0
  2  6  1  0  0  0  0
  2  8  1  0  0  0  0
  3 10  1  0  0  0  0
  3 18  1  0  0  0  0
  4 10  1  0  0  0  0
  4 19  1  0  0  0  0
  5 13  2  0  0  0  0
  6  9  1  0  0  0  0
  6 15  1  0  0  0  0
  7  8  1  0  0  0  0
  7  9  1  0  0  0  0
  7 13  1  0  0  0  0
  7 26  1  0  0  0  0
  8 10  1  0  0  0  0
  8 27  1  0  0  0  0
  9 12  1  0  0  0  0
  9 28  1  0  0  0  0
 10 11  1  0  0  0  0
 11 14  1  0  0  0  0
 11 29  1  0  0  0  0
 12 16  1  0  0  0  0
 12 30  1  0  0  0  0
 12 31  1  0  0  0  0
 13 14  1  0  0  0  0
 14 32  1  0  0  0  0
 14 33  1  0  0  0  0
 15 17  1  0  0  0  0
 15 34  1  0  0  0  0
 15 35  1  0  0  0  0
 16 17  1  0  0  0  0
 16 36  1  0  0  0  0
 16 37  1  0  0  0  0
 17 38  1  0  0  0  0
 17 39  1  0  0  0  0
 18 19  1  0  0  0  0
 18 40  1  0  0  0  0
 18 41  1  0  0  0  0
 19 42  1  0  0  0  0
 19 43  1  0  0  0  0
 20 21  2  0  0  0  0
 20 22  1  0  0  0  0
 21 23  1  0  0  0  0
 21 44  1  0  0  0  0
 22 24  2  0  0  0  0
 22 45  1  0  0  0  0
 23 25  2  0  0  0  0
 23 46  1  0  0  0  0
 24 25  1  0  0  0  0
 24 47  1  0  0  0  0
 25 48  1  0  0  0  0
M  END
> <PUBCHEM_COMPOUND_CID>
500354
> <PUBCHEM_COMPOUND_CANONICALIZED>
1
> <PUBCHEM_CACTVS_COMPLEXITY>
518
> <PUBCHEM_CACTVS_HBOND_ACCEPTOR>
6
> <PUBCHEM_CACTVS_HBOND_DONOR>
0
> <PUBCHEM_CACTVS_ROTATABLE_BOND>
2
> <PUBCHEM_CACTVS_SUBSKEYS>
AAADceB6OABAAAAAAAAAAAAAAAAAAWJAAAA8YIAAAAAAAFgBAAAAHgQEAAAADTzl0AawCYIQBAiIAKBSAAACAAAgCBAoiBkIAIgZID6gkRCmIAAmoACuiAe6zPDOAAAAAAAAAAAgAAIIABDAAAAAAAAAAA==
> <PUBCHEM_IUPAC_OPENEYE_NAME>
11'-phenylsulfanylspiro[1,3-dioxolane-2,10'-8-oxa-7-azatricyclo[7.4.0.02,7]tridecane]-13'-one
> <PUBCHEM_IUPAC_CAS_NAME>
11'-(phenylthio)-13'-spiro[1,3-dioxolane-2,10'-8-oxa-7-azatricyclo[7.4.0.02,7]tridecane]one
> <PUBCHEM_IUPAC_NAME_MARKUP>
11&apos;-phenylsulfanylspiro[1,3-dioxolane-2,10&apos;-8-oxa-7-azatricyclo[7.4.0.0<SUP>2,7</SUP>]tridecane]-13&apos;-one
> <PUBCHEM_IUPAC_NAME>
11'-phenylsulfanylspiro[1,3-dioxolane-2,10'-8-oxa-7-azatricyclo[7.4.0.02,7]tridecane]-13'-one
> <PUBCHEM_IUPAC_SYSTEMATIC_NAME>
11'-phenylsulfanylspiro[1,3-dioxolane-2,10'-8-oxa-7-azatricyclo[7.4.0.02,7]tridecane]-13'-one
> <PUBCHEM_IUPAC_TRADITIONAL_NAME>
3'-(phenylthio)spiro[1,3-dioxolane-2,4'-3,4a,7,8,9,10,10a,10b-octahydro-2H-pyrid[1,2-b]indoxazene]-1'-one
> <PUBCHEM_IUPAC_INCHI>
InChI=1S/C19H23NO4S/c21-15-12-16(25-13-6-2-1-3-7-13)19(22-10-11-23-19)18-17(15)14-8-4-5-9-20(14)24-18/h1-3,6-7,14,16-18H,4-5,8-12H2
> <PUBCHEM_IUPAC_INCHIKEY>
NEGRAHAFWROCCX-UHFFFAOYSA-N
> <PUBCHEM_XLOGP3_AA>
2.3
> <PUBCHEM_EXACT_MASS>
361.13477939
> <PUBCHEM_MOLECULAR_FORMULA>
C19H23NO4S
> <PUBCHEM_MOLECULAR_WEIGHT>
361.5
> <PUBCHEM_OPENEYE_CAN_SMILES>
C1CCN2C(C1)C3C(O2)C4(C(CC3=O)SC5=CC=CC=C5)OCCO4
> <PUBCHEM_OPENEYE_ISO_SMILES>
C1CCN2C(C1)C3C(O2)C4(C(CC3=O)SC5=CC=CC=C5)OCCO4
> <PUBCHEM_CACTVS_TPSA>
73.3
> <PUBCHEM_MONOISOTOPIC_WEIGHT>
361.13477939
> <PUBCHEM_TOTAL_CHARGE>
0
> <PUBCHEM_HEAVY_ATOM_COUNT>
25
> <PUBCHEM_ATOM_DEF_STEREO_COUNT>
0
> <PUBCHEM_ATOM_UDEF_STEREO_COUNT>
4
> <PUBCHEM_BOND_DEF_STEREO_COUNT>
0
> <PUBCHEM_BOND_UDEF_STEREO_COUNT>
0
> <PUBCHEM_ISOTOPIC_ATOM_COUNT>
0
> <PUBCHEM_COMPONENT_COUNT>
1
> <PUBCHEM_CACTVS_TAUTO_COUNT>
-1
> <PUBCHEM_COORDINATE_TYPE>
1
5
255
> <PUBCHEM_BONDANNOTATIONS>
11  1  3
8  2  3
20  21  8
20  22  8
21  23  8
22  24  8
23  25  8
24  25  8
7  13  3
9  12  3
$$$$
