500347
  -OEChem-10302200282D
 30 32  0     1  0  0  0  0  0999 V2000
    3.5698    2.0458    0.0000 O   0  0  0  0  0  0  0  0  0  0  0  0
    4.5037   -2.0458    0.0000 O   0  0  0  0  0  0  0  0  0  0  0  0
    9.0768   -0.3962    0.0000 O   0  5  0  0  0  0  0  0  0  0  0  0
    8.5599    1.2569    0.0000 O   0  0  0  0  0  0  0  0  0  0  0  0
    3.6027   -0.6119    0.0000 N   0  0  0  0  0  0  0  0  0  0  0  0
    5.0037    1.1448    0.0000 N   0  0  0  0  0  0  0  0  0  0  0  0
    8.3411    0.2812    0.0000 N   0  3  0  0  0  0  0  0  0  0  0  0
    3.3802    0.3630    0.0000 C   0  0  3  0  0  0  0  0  0  0  0  0
    2.3899    0.4496    0.0000 C   0  0  0  0  0  0  0  0  0  0  0  0
    2.0000   -0.4649    0.0000 C   0  0  0  0  0  0  0  0  0  0  0  0
    2.7480   -1.1196    0.0000 C   0  0  0  0  0  0  0  0  0  0  0  0
    4.0037    1.1448    0.0000 C   0  0  0  0  0  0  0  0  0  0  0  0
    4.5037   -1.0458    0.0000 C   0  0  0  0  0  0  0  0  0  0  0  0
    5.4047   -0.6119    0.0000 C   0  0  0  0  0  0  0  0  0  0  0  0
    5.6272    0.3630    0.0000 C   0  0  0  0  0  0  0  0  0  0  0  0
    6.1572   -1.3321    0.0000 C   0  0  0  0  0  0  0  0  0  0  0  0
    6.6177    0.6853    0.0000 C   0  0  0  0  0  0  0  0  0  0  0  0
    7.3867   -0.0173    0.0000 C   0  0  0  0  0  0  0  0  0  0  0  0
    7.1549   -1.0328    0.0000 C   0  0  0  0  0  0  0  0  0  0  0  0
    3.1358    0.9328    0.0000 H   0  0  0  0  0  0  0  0  0  0  0  0
    2.5085    1.0581    0.0000 H   0  0  0  0  0  0  0  0  0  0  0  0
    1.7972    0.6315    0.0000 H   0  0  0  0  0  0  0  0  0  0  0  0
    1.4584   -0.1631    0.0000 H   0  0  0  0  0  0  0  0  0  0  0  0
    1.6430   -0.9717    0.0000 H   0  0  0  0  0  0  0  0  0  0  0  0
    2.2929   -1.5406    0.0000 H   0  0  0  0  0  0  0  0  0  0  0  0
    3.1189   -1.6164    0.0000 H   0  0  0  0  0  0  0  0  0  0  0  0
    5.2727    1.7034    0.0000 H   0  0  0  0  0  0  0  0  0  0  0  0
    6.0123   -1.9349    0.0000 H   0  0  0  0  0  0  0  0  0  0  0  0
    6.7487    1.2913    0.0000 H   0  0  0  0  0  0  0  0  0  0  0  0
    7.6078   -1.4562    0.0000 H   0  0  0  0  0  0  0  0  0  0  0  0
  1 12  2  0  0  0  0
  2 13  2  0  0  0  0
  3  7  1  0  0  0  0
  4  7  2  0  0  0  0
  5  8  1  0  0  0  0
  5 11  1  0  0  0  0
  5 13  1  0  0  0  0
  6 12  1  0  0  0  0
  6 15  1  0  0  0  0
  6 27  1  0  0  0  0
  7 18  1  0  0  0  0
  8  9  1  0  0  0  0
  8 12  1  0  0  0  0
  8 20  1  0  0  0  0
  9 10  1  0  0  0  0
  9 21  1  0  0  0  0
  9 22  1  0  0  0  0
 10 11  1  0  0  0  0
 10 23  1  0  0  0  0
 10 24  1  0  0  0  0
 11 25  1  0  0  0  0
 11 26  1  0  0  0  0
 13 14  1  0  0  0  0
 14 15  2  0  0  0  0
 14 16  1  0  0  0  0
 15 17  1  0  0  0  0
 16 19  2  0  0  0  0
 16 28  1  0  0  0  0
 17 18  2  0  0  0  0
 17 29  1  0  0  0  0
 18 19  1  0  0  0  0
 19 30  1  0  0  0  0
M  CHG  2   3  -1   7   1
M  END
> <PUBCHEM_COMPOUND_CID>
500347
> <PUBCHEM_COMPOUND_CANONICALIZED>
1
> <PUBCHEM_CACTVS_COMPLEXITY>
433
> <PUBCHEM_CACTVS_HBOND_ACCEPTOR>
4
> <PUBCHEM_CACTVS_HBOND_DONOR>
1
> <PUBCHEM_CACTVS_ROTATABLE_BOND>
0
> <PUBCHEM_CACTVS_SUBSKEYS>
AAADccBzOAAAAAAAAAAAAAAAAAAAAWAAAAAwAAAABYAAAACxAAAAHgAUAAAADCjBmAQwwIPQQACJAiVSUwCCAAAlAgAoiAGIZMoIYDrA1fGUIYhglgDIyccYiQCeCAAAAAQCAAAQAAAACAQAAAAAAAAAAA==
> <PUBCHEM_IUPAC_OPENEYE_NAME>
3-nitro-6a,7,8,9-tetrahydro-5H-pyrrolo[2,1-c][1,4]benzodiazepine-6,11-dione
> <PUBCHEM_IUPAC_CAS_NAME>
3-nitro-6a,7,8,9-tetrahydro-5H-pyrrolo[2,1-c][1,4]benzodiazepine-6,11-dione
> <PUBCHEM_IUPAC_NAME_MARKUP>
3-nitro-6<I>a</I>,7,8,9-tetrahydro-5<I>H</I>-pyrrolo[2,1-c][1,4]benzodiazepine-6,11-dione
> <PUBCHEM_IUPAC_NAME>
3-nitro-6a,7,8,9-tetrahydro-5H-pyrrolo[2,1-c][1,4]benzodiazepine-6,11-dione
> <PUBCHEM_IUPAC_SYSTEMATIC_NAME>
3-nitro-6a,7,8,9-tetrahydro-5H-pyrrolo[2,1-c][1,4]benzodiazepine-6,11-dione
> <PUBCHEM_IUPAC_TRADITIONAL_NAME>
3-nitro-6a,7,8,9-tetrahydro-5H-pyrrolo[2,1-c][1,4]benzodiazepine-6,11-quinone
> <PUBCHEM_IUPAC_INCHI>
InChI=1S/C12H11N3O4/c16-11-10-2-1-5-14(10)12(17)8-4-3-7(15(18)19)6-9(8)13-11/h3-4,6,10H,1-2,5H2,(H,13,16)
> <PUBCHEM_IUPAC_INCHIKEY>
QLRLVUVGAUQSGD-UHFFFAOYSA-N
> <PUBCHEM_XLOGP3_AA>
0.7
> <PUBCHEM_EXACT_MASS>
261.07495584
> <PUBCHEM_MOLECULAR_FORMULA>
C12H11N3O4
> <PUBCHEM_MOLECULAR_WEIGHT>
261.23
> <PUBCHEM_OPENEYE_CAN_SMILES>
C1CC2C(=O)NC3=C(C=CC(=C3)[N+](=O)[O-])C(=O)N2C1
> <PUBCHEM_OPENEYE_ISO_SMILES>
C1CC2C(=O)NC3=C(C=CC(=C3)[N+](=O)[O-])C(=O)N2C1
> <PUBCHEM_CACTVS_TPSA>
95.2
> <PUBCHEM_MONOISOTOPIC_WEIGHT>
261.07495584
> <PUBCHEM_TOTAL_CHARGE>
0
> <PUBCHEM_HEAVY_ATOM_COUNT>
19
> <PUBCHEM_ATOM_DEF_STEREO_COUNT>
0
> <PUBCHEM_ATOM_UDEF_STEREO_COUNT>
1
> <PUBCHEM_BOND_DEF_STEREO_COUNT>
0
> <PUBCHEM_BOND_UDEF_STEREO_COUNT>
0
> <PUBCHEM_ISOTOPIC_ATOM_COUNT>
0
> <PUBCHEM_COMPONENT_COUNT>
1
> <PUBCHEM_CACTVS_TAUTO_COUNT>
-1
> <PUBCHEM_COORDINATE_TYPE>
1
5
255
> <PUBCHEM_BONDANNOTATIONS>
14  15  8
14  16  8
15  17  8
16  19  8
17  18  8
18  19  8
8  9  3
$$$$
