500371
  -OEChem-10302200282D
145152  0     1  0  0  0  0  0999 V2000
    8.0910    1.3339    0.0000 Cl  0  0  0  0  0  0  0  0  0  0  0  0
    8.0679   -4.6660    0.0000 Cl  0  0  0  0  0  0  0  0  0  0  0  0
    9.8269    2.3273    0.0000 O   0  0  0  0  0  0  0  0  0  0  0  0
    6.3397   -3.6594    0.0000 O   0  0  0  0  0  0  0  0  0  0  0  0
   11.5590    2.3206    0.0000 O   0  0  0  0  0  0  0  0  0  0  0  0
    5.4795   -2.1560    0.0000 O   0  0  0  0  0  0  0  0  0  0  0  0
   12.4192    0.8173    0.0000 O   0  0  0  0  0  0  0  0  0  0  0  0
    6.3513   -0.6594    0.0000 O   0  0  0  0  0  0  0  0  0  0  0  0
    8.1142    7.3339    0.0000 O   0  0  0  0  0  0  0  0  0  0  0  0
    2.8602   -7.6460    0.0000 O   0  0  0  0  0  0  0  0  0  0  0  0
    9.8462    7.3272    0.0000 O   0  0  0  0  0  0  0  0  0  0  0  0
    2.0000   -6.1426    0.0000 O   0  0  0  0  0  0  0  0  0  0  0  0
   17.8007   -0.1304    0.0000 C   0  0  3  0  0  0  0  0  0  0  0  0
   17.8007    0.8696    0.0000 C   0  0  3  0  0  0  0  0  0  0  0  0
   16.9347   -0.6304    0.0000 C   0  0  3  0  0  0  0  0  0  0  0  0
   16.0687   -0.1304    0.0000 C   0  0  3  0  0  0  0  0  0  0  0  0
   15.1587   -0.6372    0.0000 C   0  0  3  0  0  0  0  0  0  0  0  0
   18.7470    1.1743    0.0000 C   0  0  3  0  0  0  0  0  0  0  0  0
   15.1506   -1.6788    0.0000 C   0  0  3  0  0  0  0  0  0  0  0  0
   16.9347    1.3696    0.0000 C   0  0  0  0  0  0  0  0  0  0  0  0
   16.0687    0.8696    0.0000 C   0  0  0  0  0  0  0  0  0  0  0  0
   18.7470   -0.4351    0.0000 C   0  0  0  0  0  0  0  0  0  0  0  0
   16.9508   -1.6719    0.0000 C   0  0  0  0  0  0  0  0  0  0  0  0
   19.3306    0.3696    0.0000 C   0  0  0  0  0  0  0  0  0  0  0  0
   16.0527   -2.1996    0.0000 C   0  0  0  0  0  0  0  0  0  0  0  0
   14.2318   -0.0732    0.0000 C   0  0  0  0  0  0  0  0  0  0  0  0
   14.2152   -2.2286    0.0000 C   0  0  0  0  0  0  0  0  0  0  0  0
   17.8007    1.8696    0.0000 C   0  0  0  0  0  0  0  0  0  0  0  0
   19.0576    2.1249    0.0000 C   0  0  3  0  0  0  0  0  0  0  0  0
   15.1664    0.3627    0.0000 C   0  0  0  0  0  0  0  0  0  0  0  0
   13.2756   -1.6861    0.0000 C   0  0  3  0  0  0  0  0  0  0  0  0
   13.2840   -0.6011    0.0000 C   0  0  0  0  0  0  0  0  0  0  0  0
   20.0361    2.3311    0.0000 C   0  0  0  0  0  0  0  0  0  0  0  0
   12.4076   -2.1827    0.0000 C   0  0  0  0  0  0  0  0  0  0  0  0
   18.3898    2.8692    0.0000 C   0  0  0  0  0  0  0  0  0  0  0  0
   20.3468    3.2816    0.0000 C   0  0  0  0  0  0  0  0  0  0  0  0
   11.5436   -1.6794    0.0000 C   0  0  0  0  0  0  0  0  0  0  0  0
   21.3253    3.4878    0.0000 C   0  0  0  0  0  0  0  0  0  0  0  0
   10.6756   -2.1760    0.0000 C   0  0  0  0  0  0  0  0  0  0  0  0
   21.6359    4.4383    0.0000 C   0  0  0  0  0  0  0  0  0  0  0  0
    9.8115   -1.6727    0.0000 C   0  0  0  0  0  0  0  0  0  0  0  0
   22.6145    4.6446    0.0000 C   0  0  0  0  0  0  0  0  0  0  0  0
   20.9681    5.1826    0.0000 C   0  0  0  0  0  0  0  0  0  0  0  0
    9.8154   -0.6727    0.0000 C   0  0  0  0  0  0  0  0  0  0  0  0
    8.9436   -2.1694    0.0000 C   0  0  0  0  0  0  0  0  0  0  0  0
   10.6833   -0.1761    0.0000 C   0  0  0  0  0  0  0  0  0  0  0  0
    8.0795   -1.6660    0.0000 C   0  0  0  0  0  0  0  0  0  0  0  0
    8.9513   -0.1694    0.0000 C   0  0  0  0  0  0  0  0  0  0  0  0
    8.9397   -3.1694    0.0000 C   0  0  0  0  0  0  0  0  0  0  0  0
   10.6872    0.8239    0.0000 C   0  0  0  0  0  0  0  0  0  0  0  0
    7.2115   -2.1627    0.0000 C   0  0  0  0  0  0  0  0  0  0  0  0
    8.9551    0.8306    0.0000 C   0  0  0  0  0  0  0  0  0  0  0  0
    8.0718   -3.6660    0.0000 C   0  0  0  0  0  0  0  0  0  0  0  0
    9.8231    1.3273    0.0000 C   0  0  0  0  0  0  0  0  0  0  0  0
    7.2077   -3.1627    0.0000 C   0  0  0  0  0  0  0  0  0  0  0  0
   11.5551    1.3206    0.0000 C   0  0  0  0  0  0  0  0  0  0  0  0
    6.3474   -1.6594    0.0000 C   0  0  0  0  0  0  0  0  0  0  0  0
    8.9628    2.8306    0.0000 C   0  0  0  0  0  0  0  0  0  0  0  0
    6.3359   -4.6593    0.0000 C   0  0  0  0  0  0  0  0  0  0  0  0
    8.9667    3.8306    0.0000 C   0  0  0  0  0  0  0  0  0  0  0  0
    5.4679   -5.1560    0.0000 C   0  0  0  0  0  0  0  0  0  0  0  0
    9.8346    4.3272    0.0000 C   0  0  0  0  0  0  0  0  0  0  0  0
    4.6038   -4.6527    0.0000 C   0  0  0  0  0  0  0  0  0  0  0  0
    8.1026    4.3339    0.0000 C   0  0  0  0  0  0  0  0  0  0  0  0
    5.4641   -6.1560    0.0000 C   0  0  0  0  0  0  0  0  0  0  0  0
    9.8385    5.3272    0.0000 C   0  0  0  0  0  0  0  0  0  0  0  0
    3.7359   -5.1493    0.0000 C   0  0  0  0  0  0  0  0  0  0  0  0
    8.1065    5.3339    0.0000 C   0  0  0  0  0  0  0  0  0  0  0  0
    4.5961   -6.6526    0.0000 C   0  0  0  0  0  0  0  0  0  0  0  0
    8.9744    5.8306    0.0000 C   0  0  0  0  0  0  0  0  0  0  0  0
    3.7320   -6.1493    0.0000 C   0  0  0  0  0  0  0  0  0  0  0  0
    8.9783    6.8306    0.0000 C   0  0  0  0  0  0  0  0  0  0  0  0
    2.8641   -6.6460    0.0000 C   0  0  0  0  0  0  0  0  0  0  0  0
   17.8663   -0.7469    0.0000 H   0  0  0  0  0  0  0  0  0  0  0  0
   17.4740   -0.9362    0.0000 H   0  0  0  0  0  0  0  0  0  0  0  0
   16.6056    0.1796    0.0000 H   0  0  0  0  0  0  0  0  0  0  0  0
   19.3594    1.2705    0.0000 H   0  0  0  0  0  0  0  0  0  0  0  0
   15.1530   -2.2988    0.0000 H   0  0  0  0  0  0  0  0  0  0  0  0
   17.3332    1.8446    0.0000 H   0  0  0  0  0  0  0  0  0  0  0  0
   16.5362    1.8446    0.0000 H   0  0  0  0  0  0  0  0  0  0  0  0
   15.8566    1.4522    0.0000 H   0  0  0  0  0  0  0  0  0  0  0  0
   15.4581    0.7619    0.0000 H   0  0  0  0  0  0  0  0  0  0  0  0
   18.4959   -1.0020    0.0000 H   0  0  0  0  0  0  0  0  0  0  0  0
   19.2843   -0.7444    0.0000 H   0  0  0  0  0  0  0  0  0  0  0  0
   17.1688   -2.2523    0.0000 H   0  0  0  0  0  0  0  0  0  0  0  0
   17.5599   -1.5564    0.0000 H   0  0  0  0  0  0  0  0  0  0  0  0
   19.7914   -0.0451    0.0000 H   0  0  0  0  0  0  0  0  0  0  0  0
   19.7914    0.7843    0.0000 H   0  0  0  0  0  0  0  0  0  0  0  0
   15.6554   -2.6756    0.0000 H   0  0  0  0  0  0  0  0  0  0  0  0
   16.4537   -2.6726    0.0000 H   0  0  0  0  0  0  0  0  0  0  0  0
   14.6400    0.3935    0.0000 H   0  0  0  0  0  0  0  0  0  0  0  0
   13.8419    0.4089    0.0000 H   0  0  0  0  0  0  0  0  0  0  0  0
   13.8179   -2.7045    0.0000 H   0  0  0  0  0  0  0  0  0  0  0  0
   14.6162   -2.7015    0.0000 H   0  0  0  0  0  0  0  0  0  0  0  0
   18.4207    1.8696    0.0000 H   0  0  0  0  0  0  0  0  0  0  0  0
   17.8007    2.4896    0.0000 H   0  0  0  0  0  0  0  0  0  0  0  0
   17.1807    1.8696    0.0000 H   0  0  0  0  0  0  0  0  0  0  0  0
   18.4509    1.9970    0.0000 H   0  0  0  0  0  0  0  0  0  0  0  0
   15.7864    0.3580    0.0000 H   0  0  0  0  0  0  0  0  0  0  0  0
   15.1712    0.9827    0.0000 H   0  0  0  0  0  0  0  0  0  0  0  0
   14.5464    0.3675    0.0000 H   0  0  0  0  0  0  0  0  0  0  0  0
   13.2744   -2.3061    0.0000 H   0  0  0  0  0  0  0  0  0  0  0  0
   13.0794   -0.0158    0.0000 H   0  0  0  0  0  0  0  0  0  0  0  0
   12.6723   -0.7025    0.0000 H   0  0  0  0  0  0  0  0  0  0  0  0
   20.0567    1.7114    0.0000 H   0  0  0  0  0  0  0  0  0  0  0  0
   20.6499    2.2437    0.0000 H   0  0  0  0  0  0  0  0  0  0  0  0
   12.0073   -2.6561    0.0000 H   0  0  0  0  0  0  0  0  0  0  0  0
   12.8043   -2.6592    0.0000 H   0  0  0  0  0  0  0  0  0  0  0  0
   18.8512    3.2832    0.0000 H   0  0  0  0  0  0  0  0  0  0  0  0
   17.9757    3.3306    0.0000 H   0  0  0  0  0  0  0  0  0  0  0  0
   17.9283    2.4551    0.0000 H   0  0  0  0  0  0  0  0  0  0  0  0
   20.3262    3.9013    0.0000 H   0  0  0  0  0  0  0  0  0  0  0  0
   19.7330    3.3690    0.0000 H   0  0  0  0  0  0  0  0  0  0  0  0
   11.9439   -1.2060    0.0000 H   0  0  0  0  0  0  0  0  0  0  0  0
   11.1469   -1.2029    0.0000 H   0  0  0  0  0  0  0  0  0  0  0  0
   21.3459    2.8682    0.0000 H   0  0  0  0  0  0  0  0  0  0  0  0
   21.9391    3.4005    0.0000 H   0  0  0  0  0  0  0  0  0  0  0  0
   10.6732   -2.7960    0.0000 H   0  0  0  0  0  0  0  0  0  0  0  0
   21.0293    4.3105    0.0000 H   0  0  0  0  0  0  0  0  0  0  0  0
   22.7423    4.0379    0.0000 H   0  0  0  0  0  0  0  0  0  0  0  0
   23.2211    4.7724    0.0000 H   0  0  0  0  0  0  0  0  0  0  0  0
   22.4866    5.2512    0.0000 H   0  0  0  0  0  0  0  0  0  0  0  0
   21.4296    5.5967    0.0000 H   0  0  0  0  0  0  0  0  0  0  0  0
   20.5540    5.6441    0.0000 H   0  0  0  0  0  0  0  0  0  0  0  0
   20.5066    4.7686    0.0000 H   0  0  0  0  0  0  0  0  0  0  0  0
   11.2191   -0.4881    0.0000 H   0  0  0  0  0  0  0  0  0  0  0  0
    8.0819   -1.0460    0.0000 H   0  0  0  0  0  0  0  0  0  0  0  0
    8.4132   -0.4773    0.0000 H   0  0  0  0  0  0  0  0  0  0  0  0
    9.4754   -3.4814    0.0000 H   0  0  0  0  0  0  0  0  0  0  0  0
   12.0971    2.6285    0.0000 H   0  0  0  0  0  0  0  0  0  0  0  0
    4.9438   -1.8440    0.0000 H   0  0  0  0  0  0  0  0  0  0  0  0
    8.3527    2.9406    0.0000 H   0  0  0  0  0  0  0  0  0  0  0  0
    8.7486    2.2488    0.0000 H   0  0  0  0  0  0  0  0  0  0  0  0
    6.5457   -5.2428    0.0000 H   0  0  0  0  0  0  0  0  0  0  0  0
    6.9469   -4.5540    0.0000 H   0  0  0  0  0  0  0  0  0  0  0  0
   10.3704    4.0152    0.0000 H   0  0  0  0  0  0  0  0  0  0  0  0
    4.6062   -4.0327    0.0000 H   0  0  0  0  0  0  0  0  0  0  0  0
    7.5645    4.0260    0.0000 H   0  0  0  0  0  0  0  0  0  0  0  0
    5.9998   -6.4681    0.0000 H   0  0  0  0  0  0  0  0  0  0  0  0
   10.3766    5.6352    0.0000 H   0  0  0  0  0  0  0  0  0  0  0  0
    3.2002   -4.8372    0.0000 H   0  0  0  0  0  0  0  0  0  0  0  0
    7.5707    5.6460    0.0000 H   0  0  0  0  0  0  0  0  0  0  0  0
    4.5937   -7.2726    0.0000 H   0  0  0  0  0  0  0  0  0  0  0  0
    8.1166    7.9539    0.0000 H   0  0  0  0  0  0  0  0  0  0  0  0
    2.3221   -7.9539    0.0000 H   0  0  0  0  0  0  0  0  0  0  0  0
  1 52  1  0  0  0  0
  2 53  1  0  0  0  0
  3 54  1  0  0  0  0
  3 58  1  0  0  0  0
  4 55  1  0  0  0  0
  4 59  1  0  0  0  0
  5 56  1  0  0  0  0
  5130  1  0  0  0  0
  6 57  1  0  0  0  0
  6131  1  0  0  0  0
  7 56  2  0  0  0  0
  8 57  2  0  0  0  0
  9 72  1  0  0  0  0
  9144  1  0  0  0  0
 10 73  1  0  0  0  0
 10145  1  0  0  0  0
 11 72  2  0  0  0  0
 12 73  2  0  0  0  0
 13 14  1  0  0  0  0
 13 15  1  0  0  0  0
 13 22  1  0  0  0  0
 13 74  1  0  0  0  0
 14 18  1  0  0  0  0
 14 20  1  0  0  0  0
 14 28  1  0  0  0  0
 15 16  1  0  0  0  0
 15 23  1  0  0  0  0
 15 75  1  0  0  0  0
 16 17  1  0  0  0  0
 16 21  1  0  0  0  0
 16 76  1  0  0  0  0
 17 19  1  0  0  0  0
 17 26  1  0  0  0  0
 17 30  1  0  0  0  0
 18 24  1  0  0  0  0
 18 29  1  0  0  0  0
 18 77  1  0  0  0  0
 19 25  1  0  0  0  0
 19 27  1  0  0  0  0
 19 78  1  0  0  0  0
 20 21  1  0  0  0  0
 20 79  1  0  0  0  0
 20 80  1  0  0  0  0
 21 81  1  0  0  0  0
 21 82  1  0  0  0  0
 22 24  1  0  0  0  0
 22 83  1  0  0  0  0
 22 84  1  0  0  0  0
 23 25  1  0  0  0  0
 23 85  1  0  0  0  0
 23 86  1  0  0  0  0
 24 87  1  0  0  0  0
 24 88  1  0  0  0  0
 25 89  1  0  0  0  0
 25 90  1  0  0  0  0
 26 32  1  0  0  0  0
 26 91  1  0  0  0  0
 26 92  1  0  0  0  0
 27 31  1  0  0  0  0
 27 93  1  0  0  0  0
 27 94  1  0  0  0  0
 28 95  1  0  0  0  0
 28 96  1  0  0  0  0
 28 97  1  0  0  0  0
 29 33  1  0  0  0  0
 29 35  1  0  0  0  0
 29 98  1  0  0  0  0
 30 99  1  0  0  0  0
 30100  1  0  0  0  0
 30101  1  0  0  0  0
 31 32  1  0  0  0  0
 31 34  1  0  0  0  0
 31102  1  0  0  0  0
 32103  1  0  0  0  0
 32104  1  0  0  0  0
 33 36  1  0  0  0  0
 33105  1  0  0  0  0
 33106  1  0  0  0  0
 34 37  1  0  0  0  0
 34107  1  0  0  0  0
 34108  1  0  0  0  0
 35109  1  0  0  0  0
 35110  1  0  0  0  0
 35111  1  0  0  0  0
 36 38  1  0  0  0  0
 36112  1  0  0  0  0
 36113  1  0  0  0  0
 37 39  1  0  0  0  0
 37114  1  0  0  0  0
 37115  1  0  0  0  0
 38 40  1  0  0  0  0
 38116  1  0  0  0  0
 38117  1  0  0  0  0
 39 41  2  0  0  0  0
 39118  1  0  0  0  0
 40 42  1  0  0  0  0
 40 43  1  0  0  0  0
 40119  1  0  0  0  0
 41 44  1  0  0  0  0
 41 45  1  0  0  0  0
 42120  1  0  0  0  0
 42121  1  0  0  0  0
 42122  1  0  0  0  0
 43123  1  0  0  0  0
 43124  1  0  0  0  0
 43125  1  0  0  0  0
 44 46  2  0  0  0  0
 44 48  1  0  0  0  0
 45 47  2  0  0  0  0
 45 49  1  0  0  0  0
 46 50  1  0  0  0  0
 46126  1  0  0  0  0
 47 51  1  0  0  0  0
 47127  1  0  0  0  0
 48 52  2  0  0  0  0
 48128  1  0  0  0  0
 49 53  2  0  0  0  0
 49129  1  0  0  0  0
 50 54  2  0  0  0  0
 50 56  1  0  0  0  0
 51 55  2  0  0  0  0
 51 57  1  0  0  0  0
 52 54  1  0  0  0  0
 53 55  1  0  0  0  0
 58 60  1  0  0  0  0
 58132  1  0  0  0  0
 58133  1  0  0  0  0
 59 61  1  0  0  0  0
 59134  1  0  0  0  0
 59135  1  0  0  0  0
 60 62  2  0  0  0  0
 60 64  1  0  0  0  0
 61 63  2  0  0  0  0
 61 65  1  0  0  0  0
 62 66  1  0  0  0  0
 62136  1  0  0  0  0
 63 67  1  0  0  0  0
 63137  1  0  0  0  0
 64 68  2  0  0  0  0
 64138  1  0  0  0  0
 65 69  2  0  0  0  0
 65139  1  0  0  0  0
 66 70  2  0  0  0  0
 66140  1  0  0  0  0
 67 71  2  0  0  0  0
 67141  1  0  0  0  0
 68 70  1  0  0  0  0
 68142  1  0  0  0  0
 69 71  1  0  0  0  0
 69143  1  0  0  0  0
 70 72  1  0  0  0  0
 71 73  1  0  0  0  0
M  END
> <PUBCHEM_COMPOUND_CID>
500371
> <PUBCHEM_COMPOUND_CANONICALIZED>
1
> <PUBCHEM_CACTVS_COMPLEXITY>
1830
> <PUBCHEM_CACTVS_HBOND_ACCEPTOR>
10
> <PUBCHEM_CACTVS_HBOND_DONOR>
4
> <PUBCHEM_CACTVS_ROTATABLE_BOND>
20
> <PUBCHEM_CACTVS_SUBSKEYS>
AAADcfB8PAAGAAAAAAAAAAAAAAAAAYAAAAAwYMGDAAAAAGDBVAAAGgIACAAADwagmCIyDoAABgCIAiDSCAACCAAkJUAIiAEEC8gMJzeFNxqCeWCl4BEIuYeIyPCP4AACIAAICADAAARAADAQAQAACAAAAA==
> <PUBCHEM_IUPAC_OPENEYE_NAME>
5-[1-[3-carboxy-4-[(4-carboxyphenyl)methoxy]-5-chloro-phenyl]-4-[17-(1,5-dimethylhexyl)-10,13-dimethyl-2,3,4,5,6,7,8,9,11,12,14,15,16,17-tetradecahydro-1H-cyclopenta[a]phenanthren-3-yl]but-1-enyl]-2-[(4-carboxyphenyl)methoxy]-3-chloro-benzoic acid
> <PUBCHEM_IUPAC_CAS_NAME>
5-[1-[3-carboxy-4-[(4-carboxyphenyl)methoxy]-5-chlorophenyl]-4-[10,13-dimethyl-17-(6-methylheptan-2-yl)-2,3,4,5,6,7,8,9,11,12,14,15,16,17-tetradecahydro-1H-cyclopenta[a]phenanthren-3-yl]but-1-enyl]-2-[(4-carboxyphenyl)methoxy]-3-chlorobenzoic acid
> <PUBCHEM_IUPAC_NAME_MARKUP>
5-[1-[3-carboxy-4-[(4-carboxyphenyl)methoxy]-5-chlorophenyl]-4-[10,13-dimethyl-17-(6-methylheptan-2-yl)-2,3,4,5,6,7,8,9,11,12,14,15,16,17-tetradecahydro-1<I>H</I>-cyclopenta[a]phenanthren-3-yl]but-1-enyl]-2-[(4-carboxyphenyl)methoxy]-3-chlorobenzoic acid
> <PUBCHEM_IUPAC_NAME>
5-[1-[3-carboxy-4-[(4-carboxyphenyl)methoxy]-5-chlorophenyl]-4-[10,13-dimethyl-17-(6-methylheptan-2-yl)-2,3,4,5,6,7,8,9,11,12,14,15,16,17-tetradecahydro-1H-cyclopenta[a]phenanthren-3-yl]but-1-enyl]-2-[(4-carboxyphenyl)methoxy]-3-chlorobenzoic acid
> <PUBCHEM_IUPAC_SYSTEMATIC_NAME>
5-[1-[3-carboxy-4-[(4-carboxyphenyl)methoxy]-5-chloranyl-phenyl]-4-[10,13-dimethyl-17-(6-methylheptan-2-yl)-2,3,4,5,6,7,8,9,11,12,14,15,16,17-tetradecahydro-1H-cyclopenta[a]phenanthren-3-yl]but-1-enyl]-2-[(4-carboxyphenyl)methoxy]-3-chloranyl-benzoic acid
> <PUBCHEM_IUPAC_TRADITIONAL_NAME>
2-(4-carboxybenzyl)oxy-5-[1-[3-carboxy-4-(4-carboxybenzyl)oxy-5-chloro-phenyl]-4-[17-(1,5-dimethylhexyl)-10,13-dimethyl-2,3,4,5,6,7,8,9,11,12,14,15,16,17-tetradecahydro-1H-cyclopenta[a]phenanthren-3-yl]but-1-enyl]-3-chloro-benzoic acid
> <PUBCHEM_IUPAC_INCHI>
InChI=1S/C61H72Cl2O10/c1-35(2)8-6-9-36(3)49-22-23-50-46-21-20-44-28-37(24-26-60(44,4)51(46)25-27-61(49,50)5)10-7-11-45(42-29-47(58(68)69)54(52(62)31-42)72-33-38-12-16-40(17-13-38)56(64)65)43-30-48(59(70)71)55(53(63)32-43)73-34-39-14-18-41(19-15-39)57(66)67/h11-19,29-32,35-37,44,46,49-51H,6-10,20-28,33-34H2,1-5H3,(H,64,65)(H,66,67)(H,68,69)(H,70,71)
> <PUBCHEM_IUPAC_INCHIKEY>
CBMYONLLLYUFIS-UHFFFAOYSA-N
> <PUBCHEM_XLOGP3_AA>
18.1
> <PUBCHEM_EXACT_MASS>
1034.4502539
> <PUBCHEM_MOLECULAR_FORMULA>
C61H72Cl2O10
> <PUBCHEM_MOLECULAR_WEIGHT>
1036.1
> <PUBCHEM_OPENEYE_CAN_SMILES>
CC(C)CCCC(C)C1CCC2C1(CCC3C2CCC4C3(CCC(C4)CCC=C(C5=CC(=C(C(=C5)Cl)OCC6=CC=C(C=C6)C(=O)O)C(=O)O)C7=CC(=C(C(=C7)Cl)OCC8=CC=C(C=C8)C(=O)O)C(=O)O)C)C
> <PUBCHEM_OPENEYE_ISO_SMILES>
CC(C)CCCC(C)C1CCC2C1(CCC3C2CCC4C3(CCC(C4)CCC=C(C5=CC(=C(C(=C5)Cl)OCC6=CC=C(C=C6)C(=O)O)C(=O)O)C7=CC(=C(C(=C7)Cl)OCC8=CC=C(C=C8)C(=O)O)C(=O)O)C)C
> <PUBCHEM_CACTVS_TPSA>
168
> <PUBCHEM_MONOISOTOPIC_WEIGHT>
1034.4502539
> <PUBCHEM_TOTAL_CHARGE>
0
> <PUBCHEM_HEAVY_ATOM_COUNT>
73
> <PUBCHEM_ATOM_DEF_STEREO_COUNT>
0
> <PUBCHEM_ATOM_UDEF_STEREO_COUNT>
9
> <PUBCHEM_BOND_DEF_STEREO_COUNT>
0
> <PUBCHEM_BOND_UDEF_STEREO_COUNT>
0
> <PUBCHEM_ISOTOPIC_ATOM_COUNT>
0
> <PUBCHEM_COMPONENT_COUNT>
1
> <PUBCHEM_CACTVS_TAUTO_COUNT>
-1
> <PUBCHEM_COORDINATE_TYPE>
1
5
255
> <PUBCHEM_BONDANNOTATIONS>
13  22  3
14  28  3
15  23  3
16  21  3
17  30  3
18  24  3
19  25  3
29  35  3
31  34  3
44  46  8
44  48  8
45  47  8
45  49  8
46  50  8
47  51  8
48  52  8
49  53  8
50  54  8
51  55  8
52  54  8
53  55  8
60  62  8
60  64  8
61  63  8
61  65  8
62  66  8
63  67  8
64  68  8
65  69  8
66  70  8
67  71  8
68  70  8
69  71  8
$$$$
