500373
  -OEChem-10302200282D
173182  0     1  0  0  0  0  0999 V2000
    8.0564   -3.7516    0.0000 Cl  0  0  0  0  0  0  0  0  0  0  0  0
    8.0795    2.2483    0.0000 Cl  0  0  0  0  0  0  0  0  0  0  0  0
    6.3282   -2.7450    0.0000 O   0  0  0  0  0  0  0  0  0  0  0  0
    9.8154    3.2416    0.0000 O   0  0  0  0  0  0  0  0  0  0  0  0
    5.4679   -1.2416    0.0000 O   0  0  0  0  0  0  0  0  0  0  0  0
   11.5474    3.2350    0.0000 O   0  0  0  0  0  0  0  0  0  0  0  0
    6.3397    0.2550    0.0000 O   0  0  0  0  0  0  0  0  0  0  0  0
   12.4076    1.7316    0.0000 O   0  0  0  0  0  0  0  0  0  0  0  0
    6.3128   -6.7449    0.0000 O   0  5  0  0  0  0  0  0  0  0  0  0
    6.3590    5.2550    0.0000 O   0  5  0  0  0  0  0  0  0  0  0  0
    7.1846   -5.2483    0.0000 O   0  0  0  0  0  0  0  0  0  0  0  0
    7.2192    3.7516    0.0000 O   0  0  0  0  0  0  0  0  0  0  0  0
    3.7436    0.7650    0.0000 O   0  5  0  0  0  0  0  0  0  0  0  0
   14.1474    3.7249    0.0000 O   0  5  0  0  0  0  0  0  0  0  0  0
    2.0116    0.7717    0.0000 O   0  0  0  0  0  0  0  0  0  0  0  0
   15.0192    5.2216    0.0000 O   0  0  0  0  0  0  0  0  0  0  0  0
    6.3166   -5.7450    0.0000 N   0  3  0  0  0  0  0  0  0  0  0  0
    7.2231    4.7516    0.0000 N   0  3  0  0  0  0  0  0  0  0  0  0
    2.8757    0.2684    0.0000 N   0  3  0  0  0  0  0  0  0  0  0  0
   14.1512    4.7249    0.0000 N   0  3  0  0  0  0  0  0  0  0  0  0
   17.7892    0.7840    0.0000 C   0  0  3  0  0  0  0  0  0  0  0  0
   17.7892    1.7840    0.0000 C   0  0  3  0  0  0  0  0  0  0  0  0
   16.9231    0.2840    0.0000 C   0  0  3  0  0  0  0  0  0  0  0  0
   16.0571    0.7840    0.0000 C   0  0  3  0  0  0  0  0  0  0  0  0
   15.1471    0.2771    0.0000 C   0  0  3  0  0  0  0  0  0  0  0  0
   18.7354    2.0887    0.0000 C   0  0  3  0  0  0  0  0  0  0  0  0
   15.1391   -0.7645    0.0000 C   0  0  3  0  0  0  0  0  0  0  0  0
   16.9231    2.2840    0.0000 C   0  0  0  0  0  0  0  0  0  0  0  0
   16.0571    1.7840    0.0000 C   0  0  0  0  0  0  0  0  0  0  0  0
   18.7354    0.4792    0.0000 C   0  0  0  0  0  0  0  0  0  0  0  0
   16.9392   -0.7575    0.0000 C   0  0  0  0  0  0  0  0  0  0  0  0
   19.3190    1.2840    0.0000 C   0  0  0  0  0  0  0  0  0  0  0  0
   16.0412   -1.2853    0.0000 C   0  0  0  0  0  0  0  0  0  0  0  0
   14.2203    0.8412    0.0000 C   0  0  0  0  0  0  0  0  0  0  0  0
   14.2037   -1.3142    0.0000 C   0  0  0  0  0  0  0  0  0  0  0  0
   17.7892    2.7840    0.0000 C   0  0  0  0  0  0  0  0  0  0  0  0
   19.0460    3.0392    0.0000 C   0  0  3  0  0  0  0  0  0  0  0  0
   15.1548    1.2771    0.0000 C   0  0  0  0  0  0  0  0  0  0  0  0
   13.2640   -0.7717    0.0000 C   0  0  3  0  0  0  0  0  0  0  0  0
   13.2724    0.3133    0.0000 C   0  0  0  0  0  0  0  0  0  0  0  0
   20.0246    3.2454    0.0000 C   0  0  0  0  0  0  0  0  0  0  0  0
   12.3961   -1.2684    0.0000 C   0  0  0  0  0  0  0  0  0  0  0  0
   18.3782    3.7835    0.0000 C   0  0  0  0  0  0  0  0  0  0  0  0
   20.3352    4.1960    0.0000 C   0  0  0  0  0  0  0  0  0  0  0  0
   11.5320   -0.7650    0.0000 C   0  0  0  0  0  0  0  0  0  0  0  0
   21.3137    4.4022    0.0000 C   0  0  0  0  0  0  0  0  0  0  0  0
   10.6640   -1.2617    0.0000 C   0  0  0  0  0  0  0  0  0  0  0  0
   21.6244    5.3527    0.0000 C   0  0  0  0  0  0  0  0  0  0  0  0
    9.8000   -0.7583    0.0000 C   0  0  0  0  0  0  0  0  0  0  0  0
   22.6029    5.5589    0.0000 C   0  0  0  0  0  0  0  0  0  0  0  0
   20.9565    6.0970    0.0000 C   0  0  0  0  0  0  0  0  0  0  0  0
    8.9320   -1.2550    0.0000 C   0  0  0  0  0  0  0  0  0  0  0  0
    9.8038    0.2417    0.0000 C   0  0  0  0  0  0  0  0  0  0  0  0
    8.0679   -0.7517    0.0000 C   0  0  0  0  0  0  0  0  0  0  0  0
   10.6718    0.7383    0.0000 C   0  0  0  0  0  0  0  0  0  0  0  0
    8.9282   -2.2550    0.0000 C   0  0  0  0  0  0  0  0  0  0  0  0
    8.9397    0.7450    0.0000 C   0  0  0  0  0  0  0  0  0  0  0  0
    7.2000   -1.2483    0.0000 C   0  0  0  0  0  0  0  0  0  0  0  0
   10.6756    1.7383    0.0000 C   0  0  0  0  0  0  0  0  0  0  0  0
    8.0602   -2.7516    0.0000 C   0  0  0  0  0  0  0  0  0  0  0  0
    8.9436    1.7450    0.0000 C   0  0  0  0  0  0  0  0  0  0  0  0
    7.1961   -2.2483    0.0000 C   0  0  0  0  0  0  0  0  0  0  0  0
    9.8115    2.2416    0.0000 C   0  0  0  0  0  0  0  0  0  0  0  0
    6.3359   -0.7450    0.0000 C   0  0  0  0  0  0  0  0  0  0  0  0
   11.5436    2.2350    0.0000 C   0  0  0  0  0  0  0  0  0  0  0  0
    6.3243   -3.7450    0.0000 C   0  0  0  0  0  0  0  0  0  0  0  0
    8.9513    3.7450    0.0000 C   0  0  0  0  0  0  0  0  0  0  0  0
    4.6038   -0.7383    0.0000 C   0  0  0  0  0  0  0  0  0  0  0  0
   12.4154    3.7316    0.0000 C   0  0  0  0  0  0  0  0  0  0  0  0
    5.4564   -4.2416    0.0000 C   0  0  0  0  0  0  0  0  0  0  0  0
    8.9551    4.7450    0.0000 C   0  0  0  0  0  0  0  0  0  0  0  0
    3.7359   -1.2350    0.0000 C   0  0  0  0  0  0  0  0  0  0  0  0
   12.4192    4.7316    0.0000 C   0  0  0  0  0  0  0  0  0  0  0  0
    5.4525   -5.2416    0.0000 C   0  0  0  0  0  0  0  0  0  0  0  0
    8.0910    5.2483    0.0000 C   0  0  0  0  0  0  0  0  0  0  0  0
    4.5923   -3.7383    0.0000 C   0  0  0  0  0  0  0  0  0  0  0  0
    9.8231    5.2416    0.0000 C   0  0  0  0  0  0  0  0  0  0  0  0
    2.8718   -0.7316    0.0000 C   0  0  0  0  0  0  0  0  0  0  0  0
   13.2872    5.2283    0.0000 C   0  0  0  0  0  0  0  0  0  0  0  0
    3.7320   -2.2350    0.0000 C   0  0  0  0  0  0  0  0  0  0  0  0
   11.5551    5.2349    0.0000 C   0  0  0  0  0  0  0  0  0  0  0  0
    4.5846   -5.7383    0.0000 C   0  0  0  0  0  0  0  0  0  0  0  0
    8.0949    6.2483    0.0000 C   0  0  0  0  0  0  0  0  0  0  0  0
    3.7243   -4.2350    0.0000 C   0  0  0  0  0  0  0  0  0  0  0  0
    9.8269    6.2416    0.0000 C   0  0  0  0  0  0  0  0  0  0  0  0
    3.7205   -5.2349    0.0000 C   0  0  0  0  0  0  0  0  0  0  0  0
    8.9628    6.7449    0.0000 C   0  0  0  0  0  0  0  0  0  0  0  0
    2.0038   -1.2283    0.0000 C   0  0  0  0  0  0  0  0  0  0  0  0
   13.2910    6.2283    0.0000 C   0  0  0  0  0  0  0  0  0  0  0  0
    2.8641   -2.7316    0.0000 C   0  0  0  0  0  0  0  0  0  0  0  0
   11.5590    6.2349    0.0000 C   0  0  0  0  0  0  0  0  0  0  0  0
    2.0000   -2.2283    0.0000 C   0  0  0  0  0  0  0  0  0  0  0  0
   12.4269    6.7316    0.0000 C   0  0  0  0  0  0  0  0  0  0  0  0
   17.8548    0.1675    0.0000 H   0  0  0  0  0  0  0  0  0  0  0  0
   17.4625   -0.0219    0.0000 H   0  0  0  0  0  0  0  0  0  0  0  0
   16.5941    1.0940    0.0000 H   0  0  0  0  0  0  0  0  0  0  0  0
   19.3479    2.1849    0.0000 H   0  0  0  0  0  0  0  0  0  0  0  0
   15.1415   -1.3845    0.0000 H   0  0  0  0  0  0  0  0  0  0  0  0
   17.3217    2.7589    0.0000 H   0  0  0  0  0  0  0  0  0  0  0  0
   16.5246    2.7589    0.0000 H   0  0  0  0  0  0  0  0  0  0  0  0
   15.8451    2.3666    0.0000 H   0  0  0  0  0  0  0  0  0  0  0  0
   15.4465    1.6763    0.0000 H   0  0  0  0  0  0  0  0  0  0  0  0
   18.4844   -0.0877    0.0000 H   0  0  0  0  0  0  0  0  0  0  0  0
   19.2728    0.1700    0.0000 H   0  0  0  0  0  0  0  0  0  0  0  0
   17.1572   -1.3379    0.0000 H   0  0  0  0  0  0  0  0  0  0  0  0
   17.5483   -0.6420    0.0000 H   0  0  0  0  0  0  0  0  0  0  0  0
   19.7799    0.8693    0.0000 H   0  0  0  0  0  0  0  0  0  0  0  0
   19.7799    1.6987    0.0000 H   0  0  0  0  0  0  0  0  0  0  0  0
   15.6439   -1.7612    0.0000 H   0  0  0  0  0  0  0  0  0  0  0  0
   16.4421   -1.7582    0.0000 H   0  0  0  0  0  0  0  0  0  0  0  0
   14.6285    1.3079    0.0000 H   0  0  0  0  0  0  0  0  0  0  0  0
   13.8304    1.3233    0.0000 H   0  0  0  0  0  0  0  0  0  0  0  0
   13.8064   -1.7902    0.0000 H   0  0  0  0  0  0  0  0  0  0  0  0
   14.6046   -1.7871    0.0000 H   0  0  0  0  0  0  0  0  0  0  0  0
   18.4092    2.7840    0.0000 H   0  0  0  0  0  0  0  0  0  0  0  0
   17.7892    3.4040    0.0000 H   0  0  0  0  0  0  0  0  0  0  0  0
   17.1692    2.7840    0.0000 H   0  0  0  0  0  0  0  0  0  0  0  0
   19.2387    3.6286    0.0000 H   0  0  0  0  0  0  0  0  0  0  0  0
   15.7748    1.2723    0.0000 H   0  0  0  0  0  0  0  0  0  0  0  0
   15.1596    1.8971    0.0000 H   0  0  0  0  0  0  0  0  0  0  0  0
   14.5348    1.2819    0.0000 H   0  0  0  0  0  0  0  0  0  0  0  0
   13.2628   -1.3917    0.0000 H   0  0  0  0  0  0  0  0  0  0  0  0
   13.0678    0.8986    0.0000 H   0  0  0  0  0  0  0  0  0  0  0  0
   12.6607    0.2119    0.0000 H   0  0  0  0  0  0  0  0  0  0  0  0
   20.0451    2.6258    0.0000 H   0  0  0  0  0  0  0  0  0  0  0  0
   20.6384    3.1581    0.0000 H   0  0  0  0  0  0  0  0  0  0  0  0
   11.9957   -1.7418    0.0000 H   0  0  0  0  0  0  0  0  0  0  0  0
   12.7928   -1.7448    0.0000 H   0  0  0  0  0  0  0  0  0  0  0  0
   18.8397    4.1976    0.0000 H   0  0  0  0  0  0  0  0  0  0  0  0
   17.9641    4.2450    0.0000 H   0  0  0  0  0  0  0  0  0  0  0  0
   17.9167    3.3695    0.0000 H   0  0  0  0  0  0  0  0  0  0  0  0
   20.3147    4.8156    0.0000 H   0  0  0  0  0  0  0  0  0  0  0  0
   19.7214    4.2833    0.0000 H   0  0  0  0  0  0  0  0  0  0  0  0
   11.9323   -0.2916    0.0000 H   0  0  0  0  0  0  0  0  0  0  0  0
   11.1353   -0.2885    0.0000 H   0  0  0  0  0  0  0  0  0  0  0  0
   21.3343    3.7825    0.0000 H   0  0  0  0  0  0  0  0  0  0  0  0
   21.9275    4.3148    0.0000 H   0  0  0  0  0  0  0  0  0  0  0  0
   10.6617   -1.8817    0.0000 H   0  0  0  0  0  0  0  0  0  0  0  0
   22.0384    4.8912    0.0000 H   0  0  0  0  0  0  0  0  0  0  0  0
   22.7307    4.9523    0.0000 H   0  0  0  0  0  0  0  0  0  0  0  0
   23.2096    5.6868    0.0000 H   0  0  0  0  0  0  0  0  0  0  0  0
   22.4750    6.1656    0.0000 H   0  0  0  0  0  0  0  0  0  0  0  0
   21.4180    6.5111    0.0000 H   0  0  0  0  0  0  0  0  0  0  0  0
   20.5425    6.5585    0.0000 H   0  0  0  0  0  0  0  0  0  0  0  0
   20.4951    5.6830    0.0000 H   0  0  0  0  0  0  0  0  0  0  0  0
    8.0703   -0.1317    0.0000 H   0  0  0  0  0  0  0  0  0  0  0  0
   11.2075    0.4262    0.0000 H   0  0  0  0  0  0  0  0  0  0  0  0
    9.4639   -2.5671    0.0000 H   0  0  0  0  0  0  0  0  0  0  0  0
    8.4016    0.4371    0.0000 H   0  0  0  0  0  0  0  0  0  0  0  0
    6.5341   -4.3284    0.0000 H   0  0  0  0  0  0  0  0  0  0  0  0
    6.9353   -3.6397    0.0000 H   0  0  0  0  0  0  0  0  0  0  0  0
    8.3411    3.8550    0.0000 H   0  0  0  0  0  0  0  0  0  0  0  0
    8.7370    3.1632    0.0000 H   0  0  0  0  0  0  0  0  0  0  0  0
    5.0042   -0.2649    0.0000 H   0  0  0  0  0  0  0  0  0  0  0  0
    4.2071   -0.2618    0.0000 H   0  0  0  0  0  0  0  0  0  0  0  0
   12.6252    3.1482    0.0000 H   0  0  0  0  0  0  0  0  0  0  0  0
   13.0263    3.8369    0.0000 H   0  0  0  0  0  0  0  0  0  0  0  0
    4.5947   -3.1183    0.0000 H   0  0  0  0  0  0  0  0  0  0  0  0
   10.3588    4.9296    0.0000 H   0  0  0  0  0  0  0  0  0  0  0  0
    4.2678   -2.5470    0.0000 H   0  0  0  0  0  0  0  0  0  0  0  0
   11.0170    4.9270    0.0000 H   0  0  0  0  0  0  0  0  0  0  0  0
    4.5822   -6.3583    0.0000 H   0  0  0  0  0  0  0  0  0  0  0  0
    7.5592    6.5604    0.0000 H   0  0  0  0  0  0  0  0  0  0  0  0
    3.1886   -3.9229    0.0000 H   0  0  0  0  0  0  0  0  0  0  0  0
   10.3651    6.5495    0.0000 H   0  0  0  0  0  0  0  0  0  0  0  0
    3.1824   -5.5429    0.0000 H   0  0  0  0  0  0  0  0  0  0  0  0
    8.9652    7.3649    0.0000 H   0  0  0  0  0  0  0  0  0  0  0  0
    1.4681   -0.9162    0.0000 H   0  0  0  0  0  0  0  0  0  0  0  0
   13.8291    6.5362    0.0000 H   0  0  0  0  0  0  0  0  0  0  0  0
    2.8617   -3.3516    0.0000 H   0  0  0  0  0  0  0  0  0  0  0  0
   11.0232    6.5470    0.0000 H   0  0  0  0  0  0  0  0  0  0  0  0
    1.4619   -2.5362    0.0000 H   0  0  0  0  0  0  0  0  0  0  0  0
   12.4293    7.3516    0.0000 H   0  0  0  0  0  0  0  0  0  0  0  0
  1 60  1  0  0  0  0
  2 61  1  0  0  0  0
  3 62  1  0  0  0  0
  3 66  1  0  0  0  0
  4 63  1  0  0  0  0
  4 67  1  0  0  0  0
  5 64  1  0  0  0  0
  5 68  1  0  0  0  0
  6 65  1  0  0  0  0
  6 69  1  0  0  0  0
  7 64  2  0  0  0  0
  8 65  2  0  0  0  0
  9 17  1  0  0  0  0
 10 18  1  0  0  0  0
 11 17  2  0  0  0  0
 12 18  2  0  0  0  0
 13 19  1  0  0  0  0
 14 20  1  0  0  0  0
 15 19  2  0  0  0  0
 16 20  2  0  0  0  0
 17 74  1  0  0  0  0
 18 75  1  0  0  0  0
 19 78  1  0  0  0  0
 20 79  1  0  0  0  0
 21 22  1  0  0  0  0
 21 23  1  0  0  0  0
 21 30  1  0  0  0  0
 21 94  1  0  0  0  0
 22 26  1  0  0  0  0
 22 28  1  0  0  0  0
 22 36  1  0  0  0  0
 23 24  1  0  0  0  0
 23 31  1  0  0  0  0
 23 95  1  0  0  0  0
 24 25  1  0  0  0  0
 24 29  1  0  0  0  0
 24 96  1  0  0  0  0
 25 27  1  0  0  0  0
 25 34  1  0  0  0  0
 25 38  1  0  0  0  0
 26 32  1  0  0  0  0
 26 37  1  0  0  0  0
 26 97  1  0  0  0  0
 27 33  1  0  0  0  0
 27 35  1  0  0  0  0
 27 98  1  0  0  0  0
 28 29  1  0  0  0  0
 28 99  1  0  0  0  0
 28100  1  0  0  0  0
 29101  1  0  0  0  0
 29102  1  0  0  0  0
 30 32  1  0  0  0  0
 30103  1  0  0  0  0
 30104  1  0  0  0  0
 31 33  1  0  0  0  0
 31105  1  0  0  0  0
 31106  1  0  0  0  0
 32107  1  0  0  0  0
 32108  1  0  0  0  0
 33109  1  0  0  0  0
 33110  1  0  0  0  0
 34 40  1  0  0  0  0
 34111  1  0  0  0  0
 34112  1  0  0  0  0
 35 39  1  0  0  0  0
 35113  1  0  0  0  0
 35114  1  0  0  0  0
 36115  1  0  0  0  0
 36116  1  0  0  0  0
 36117  1  0  0  0  0
 37 41  1  0  0  0  0
 37 43  1  0  0  0  0
 37118  1  0  0  0  0
 38119  1  0  0  0  0
 38120  1  0  0  0  0
 38121  1  0  0  0  0
 39 40  1  0  0  0  0
 39 42  1  0  0  0  0
 39122  1  0  0  0  0
 40123  1  0  0  0  0
 40124  1  0  0  0  0
 41 44  1  0  0  0  0
 41125  1  0  0  0  0
 41126  1  0  0  0  0
 42 45  1  0  0  0  0
 42127  1  0  0  0  0
 42128  1  0  0  0  0
 43129  1  0  0  0  0
 43130  1  0  0  0  0
 43131  1  0  0  0  0
 44 46  1  0  0  0  0
 44132  1  0  0  0  0
 44133  1  0  0  0  0
 45 47  1  0  0  0  0
 45134  1  0  0  0  0
 45135  1  0  0  0  0
 46 48  1  0  0  0  0
 46136  1  0  0  0  0
 46137  1  0  0  0  0
 47 49  2  0  0  0  0
 47138  1  0  0  0  0
 48 50  1  0  0  0  0
 48 51  1  0  0  0  0
 48139  1  0  0  0  0
 49 52  1  0  0  0  0
 49 53  1  0  0  0  0
 50140  1  0  0  0  0
 50141  1  0  0  0  0
 50142  1  0  0  0  0
 51143  1  0  0  0  0
 51144  1  0  0  0  0
 51145  1  0  0  0  0
 52 54  2  0  0  0  0
 52 56  1  0  0  0  0
 53 55  2  0  0  0  0
 53 57  1  0  0  0  0
 54 58  1  0  0  0  0
 54146  1  0  0  0  0
 55 59  1  0  0  0  0
 55147  1  0  0  0  0
 56 60  2  0  0  0  0
 56148  1  0  0  0  0
 57 61  2  0  0  0  0
 57149  1  0  0  0  0
 58 62  2  0  0  0  0
 58 64  1  0  0  0  0
 59 63  2  0  0  0  0
 59 65  1  0  0  0  0
 60 62  1  0  0  0  0
 61 63  1  0  0  0  0
 66 70  1  0  0  0  0
 66150  1  0  0  0  0
 66151  1  0  0  0  0
 67 71  1  0  0  0  0
 67152  1  0  0  0  0
 67153  1  0  0  0  0
 68 72  1  0  0  0  0
 68154  1  0  0  0  0
 68155  1  0  0  0  0
 69 73  1  0  0  0  0
 69156  1  0  0  0  0
 69157  1  0  0  0  0
 70 74  1  0  0  0  0
 70 76  2  0  0  0  0
 71 75  1  0  0  0  0
 71 77  2  0  0  0  0
 72 78  1  0  0  0  0
 72 80  2  0  0  0  0
 73 79  1  0  0  0  0
 73 81  2  0  0  0  0
 74 82  2  0  0  0  0
 75 83  2  0  0  0  0
 76 84  1  0  0  0  0
 76158  1  0  0  0  0
 77 85  1  0  0  0  0
 77159  1  0  0  0  0
 78 88  2  0  0  0  0
 79 89  2  0  0  0  0
 80 90  1  0  0  0  0
 80160  1  0  0  0  0
 81 91  1  0  0  0  0
 81161  1  0  0  0  0
 82 86  1  0  0  0  0
 82162  1  0  0  0  0
 83 87  1  0  0  0  0
 83163  1  0  0  0  0
 84 86  2  0  0  0  0
 84164  1  0  0  0  0
 85 87  2  0  0  0  0
 85165  1  0  0  0  0
 86166  1  0  0  0  0
 87167  1  0  0  0  0
 88 92  1  0  0  0  0
 88168  1  0  0  0  0
 89 93  1  0  0  0  0
 89169  1  0  0  0  0
 90 92  2  0  0  0  0
 90170  1  0  0  0  0
 91 93  2  0  0  0  0
 91171  1  0  0  0  0
 92172  1  0  0  0  0
 93173  1  0  0  0  0
M  CHG  8   9  -1  10  -1  13  -1  14  -1  17   1  18   1  19   1  20   1
M  END
> <PUBCHEM_COMPOUND_CID>
500373
> <PUBCHEM_COMPOUND_CANONICALIZED>
1
> <PUBCHEM_CACTVS_COMPLEXITY>
2440
> <PUBCHEM_CACTVS_HBOND_ACCEPTOR>
14
> <PUBCHEM_CACTVS_HBOND_DONOR>
0
> <PUBCHEM_CACTVS_ROTATABLE_BOND>
24
> <PUBCHEM_CACTVS_SUBSKEYS>
AAADcfB/vAAGAAAAAAAAAAAAAAAAAYAAAAAwYMGDAAAAAGDBVAAAHgIEAAAADw6hmCIyzoAQRACJAiTSSwCCCAAkJ0AoiAEEb8oMJzeFt5uCOWDn4BEI6YeYyOCPoAACIAAKCADAAARAADQQAQAACAAAAA==
> <PUBCHEM_IUPAC_OPENEYE_NAME>
(2-nitrophenyl)methyl 3-chloro-5-[1-[3-chloro-4-[(2-nitrophenyl)methoxy]-5-[(2-nitrophenyl)methoxycarbonyl]phenyl]-4-[17-(1,5-dimethylhexyl)-10,13-dimethyl-2,3,4,5,6,7,8,9,11,12,14,15,16,17-tetradecahydro-1H-cyclopenta[a]phenanthren-3-yl]but-1-enyl]-2-[(2-nitrophenyl)methoxy]benzoate
> <PUBCHEM_IUPAC_CAS_NAME>
3-chloro-5-[1-[3-chloro-4-[(2-nitrophenyl)methoxy]-5-[(2-nitrophenyl)methoxy-oxomethyl]phenyl]-4-[10,13-dimethyl-17-(6-methylheptan-2-yl)-2,3,4,5,6,7,8,9,11,12,14,15,16,17-tetradecahydro-1H-cyclopenta[a]phenanthren-3-yl]but-1-enyl]-2-[(2-nitrophenyl)methoxy]benzoic acid (2-nitrophenyl)methyl ester
> <PUBCHEM_IUPAC_NAME_MARKUP>
(2-nitrophenyl)methyl 3-chloro-5-[1-[3-chloro-4-[(2-nitrophenyl)methoxy]-5-[(2-nitrophenyl)methoxycarbonyl]phenyl]-4-[10,13-dimethyl-17-(6-methylheptan-2-yl)-2,3,4,5,6,7,8,9,11,12,14,15,16,17-tetradecahydro-1<I>H</I>-cyclopenta[a]phenanthren-3-yl]but-1-enyl]-2-[(2-nitrophenyl)methoxy]benzoate
> <PUBCHEM_IUPAC_NAME>
(2-nitrophenyl)methyl 3-chloro-5-[1-[3-chloro-4-[(2-nitrophenyl)methoxy]-5-[(2-nitrophenyl)methoxycarbonyl]phenyl]-4-[10,13-dimethyl-17-(6-methylheptan-2-yl)-2,3,4,5,6,7,8,9,11,12,14,15,16,17-tetradecahydro-1H-cyclopenta[a]phenanthren-3-yl]but-1-enyl]-2-[(2-nitrophenyl)methoxy]benzoate
> <PUBCHEM_IUPAC_SYSTEMATIC_NAME>
(2-nitrophenyl)methyl 3-chloranyl-5-[1-[3-chloranyl-4-[(2-nitrophenyl)methoxy]-5-[(2-nitrophenyl)methoxycarbonyl]phenyl]-4-[10,13-dimethyl-17-(6-methylheptan-2-yl)-2,3,4,5,6,7,8,9,11,12,14,15,16,17-tetradecahydro-1H-cyclopenta[a]phenanthren-3-yl]but-1-enyl]-2-[(2-nitrophenyl)methoxy]benzoate
> <PUBCHEM_IUPAC_TRADITIONAL_NAME>
3-chloro-5-[1-[3-chloro-4-(2-nitrobenzyl)oxy-5-(2-nitrobenzyl)oxycarbonyl-phenyl]-4-[17-(1,5-dimethylhexyl)-10,13-dimethyl-2,3,4,5,6,7,8,9,11,12,14,15,16,17-tetradecahydro-1H-cyclopenta[a]phenanthren-3-yl]but-1-enyl]-2-(2-nitrobenzyl)oxy-benzoic acid (2-nitrobenzyl) ester
> <PUBCHEM_IUPAC_INCHI>
InChI=1S/C73H80Cl2N4O14/c1-45(2)16-14-17-46(3)59-30-31-60-56-29-28-54-36-47(32-34-72(54,4)61(56)33-35-73(59,60)5)18-15-23-55(52-37-57(70(80)92-43-50-21-8-12-26-66(50)78(86)87)68(62(74)39-52)90-41-48-19-6-10-24-64(48)76(82)83)53-38-58(71(81)93-44-51-22-9-13-27-67(51)79(88)89)69(63(75)40-53)91-42-49-20-7-11-25-65(49)77(84)85/h6-13,19-27,37-40,45-47,54,56,59-61H,14-18,28-36,41-44H2,1-5H3
> <PUBCHEM_IUPAC_INCHIKEY>
HPTLUDMREWASHS-UHFFFAOYSA-N
> <PUBCHEM_XLOGP3_AA>
22
> <PUBCHEM_EXACT_MASS>
1306.5048086
> <PUBCHEM_MOLECULAR_FORMULA>
C73H80Cl2N4O14
> <PUBCHEM_MOLECULAR_WEIGHT>
1308.3
> <PUBCHEM_OPENEYE_CAN_SMILES>
CC(C)CCCC(C)C1CCC2C1(CCC3C2CCC4C3(CCC(C4)CCC=C(C5=CC(=C(C(=C5)Cl)OCC6=CC=CC=C6[N+](=O)[O-])C(=O)OCC7=CC=CC=C7[N+](=O)[O-])C8=CC(=C(C(=C8)Cl)OCC9=CC=CC=C9[N+](=O)[O-])C(=O)OCC1=CC=CC=C1[N+](=O)[O-])C)C
> <PUBCHEM_OPENEYE_ISO_SMILES>
CC(C)CCCC(C)C1CCC2C1(CCC3C2CCC4C3(CCC(C4)CCC=C(C5=CC(=C(C(=C5)Cl)OCC6=CC=CC=C6[N+](=O)[O-])C(=O)OCC7=CC=CC=C7[N+](=O)[O-])C8=CC(=C(C(=C8)Cl)OCC9=CC=CC=C9[N+](=O)[O-])C(=O)OCC1=CC=CC=C1[N+](=O)[O-])C)C
> <PUBCHEM_CACTVS_TPSA>
254
> <PUBCHEM_MONOISOTOPIC_WEIGHT>
1306.5048086
> <PUBCHEM_TOTAL_CHARGE>
0
> <PUBCHEM_HEAVY_ATOM_COUNT>
93
> <PUBCHEM_ATOM_DEF_STEREO_COUNT>
0
> <PUBCHEM_ATOM_UDEF_STEREO_COUNT>
9
> <PUBCHEM_BOND_DEF_STEREO_COUNT>
0
> <PUBCHEM_BOND_UDEF_STEREO_COUNT>
0
> <PUBCHEM_ISOTOPIC_ATOM_COUNT>
0
> <PUBCHEM_COMPONENT_COUNT>
1
> <PUBCHEM_CACTVS_TAUTO_COUNT>
-1
> <PUBCHEM_COORDINATE_TYPE>
1
5
255
> <PUBCHEM_BONDANNOTATIONS>
21  30  3
22  36  3
23  31  3
24  29  3
25  38  3
26  32  3
27  33  3
37  43  3
39  42  3
52  54  8
52  56  8
53  55  8
53  57  8
54  58  8
55  59  8
56  60  8
57  61  8
58  62  8
59  63  8
60  62  8
61  63  8
70  74  8
70  76  8
71  75  8
71  77  8
72  78  8
72  80  8
73  79  8
73  81  8
74  82  8
75  83  8
76  84  8
77  85  8
78  88  8
79  89  8
80  90  8
81  91  8
82  86  8
83  87  8
84  86  8
85  87  8
88  92  8
89  93  8
90  92  8
91  93  8
$$$$
