500397
  -OEChem-10302200282D
 87 93  0     1  0  0  0  0  0999 V2000
    5.7961    0.0954    0.0000 O   0  0  0  0  0  0  0  0  0  0  0  0
    9.0843    1.2462    0.0000 O   0  0  0  0  0  0  0  0  0  0  0  0
    6.6699   -1.1276    0.0000 O   0  0  0  0  0  0  0  0  0  0  0  0
    8.4516   -0.1171    0.0000 O   0  0  0  0  0  0  0  0  0  0  0  0
    4.6769    1.5656    0.0000 O   0  0  0  0  0  0  0  0  0  0  0  0
    9.8111    2.9450    0.0000 O   0  0  0  0  0  0  0  0  0  0  0  0
    5.7981   -2.6242    0.0000 O   0  0  0  0  0  0  0  0  0  0  0  0
    6.7196   -0.0971    0.0000 O   0  0  0  0  0  0  0  0  0  0  0  0
    8.4400   -3.1864    0.0000 O   0  0  0  0  0  0  0  0  0  0  0  0
   10.1839   -0.1102    0.0000 O   0  0  0  0  0  0  0  0  0  0  0  0
   11.9320   -3.1517    0.0000 O   0  0  0  0  0  0  0  0  0  0  0  0
   11.0781    1.4175    0.0000 O   0  0  0  0  0  0  0  0  0  0  0  0
    2.9322   -1.0704    0.0000 C   0  0  0  0  0  0  0  0  0  0  0  0
    6.6575    3.1623    0.0000 C   0  0  0  0  0  0  0  0  0  0  0  0
    4.0737   -0.6176    0.0000 C   0  0  3  0  0  0  0  0  0  0  0  0
    7.6145    2.3927    0.0000 C   0  0  3  0  0  0  0  0  0  0  0  0
    4.9378   -1.1209    0.0000 C   0  0  3  0  0  0  0  0  0  0  0  0
    7.6030    1.3928    0.0000 C   0  0  3  0  0  0  0  0  0  0  0  0
    4.1522   -2.6842    0.0000 C   0  0  0  0  0  0  0  0  0  0  0  0
    5.8555    1.3050    0.0000 C   0  0  0  0  0  0  0  0  0  0  0  0
    5.1487   -2.6009    0.0000 C   0  0  0  0  0  0  0  0  0  0  0  0
    6.4196    0.4793    0.0000 C   0  0  0  0  0  0  0  0  0  0  0  0
    4.9320    0.5987    0.0000 C   0  0  0  0  0  0  0  0  0  0  0  0
    9.0959    2.2462    0.0000 C   0  0  0  0  0  0  0  0  0  0  0  0
    2.0000   -0.7084    0.0000 C   0  0  0  0  0  0  0  0  0  0  0  0
    2.2999   -1.8451    0.0000 C   0  0  0  0  0  0  0  0  0  0  0  0
    6.5125    4.1517    0.0000 C   0  0  0  0  0  0  0  0  0  0  0  0
    5.6717    3.3302    0.0000 C   0  0  0  0  0  0  0  0  0  0  0  0
    3.2096   -0.1142    0.0000 C   0  0  0  0  0  0  0  0  0  0  0  0
    7.6261    3.3926    0.0000 C   0  0  0  0  0  0  0  0  0  0  0  0
    5.8019   -1.6242    0.0000 C   0  0  0  0  0  0  0  0  0  0  0  0
    7.5914    0.3928    0.0000 C   0  0  0  0  0  0  0  0  0  0  0  0
    7.5340   -1.6309    0.0000 C   0  0  3  0  0  0  0  0  0  0  0  0
    8.4400   -1.1171    0.0000 C   0  0  3  0  0  0  0  0  0  0  0  0
    7.5340   -2.6726    0.0000 C   0  0  0  0  0  0  0  0  0  0  0  0
    9.3340   -1.6517    0.0000 C   0  0  0  0  0  0  0  0  0  0  0  0
    9.3340   -2.6517    0.0000 C   0  0  0  0  0  0  0  0  0  0  0  0
    7.0373   -3.5405    0.0000 C   0  0  0  0  0  0  0  0  0  0  0  0
    6.5340   -2.6764    0.0000 C   0  0  0  0  0  0  0  0  0  0  0  0
   10.2000   -1.1517    0.0000 C   0  0  0  0  0  0  0  0  0  0  0  0
   10.2000   -3.1517    0.0000 C   0  0  0  0  0  0  0  0  0  0  0  0
   11.0660   -1.6517    0.0000 C   0  0  0  0  0  0  0  0  0  0  0  0
   11.0660   -2.6517    0.0000 C   0  0  0  0  0  0  0  0  0  0  0  0
   11.9760   -1.1449    0.0000 C   0  0  0  0  0  0  0  0  0  0  0  0
   11.0820    0.4175    0.0000 C   0  0  0  0  0  0  0  0  0  0  0  0
   11.9840   -0.1033    0.0000 C   0  0  0  0  0  0  0  0  0  0  0  0
   11.9320   -4.1517    0.0000 C   0  0  0  0  0  0  0  0  0  0  0  0
    3.5330   -2.7171    0.0000 H   0  0  0  0  0  0  0  0  0  0  0  0
    4.1944   -3.3028    0.0000 H   0  0  0  0  0  0  0  0  0  0  0  0
    5.5215    1.8273    0.0000 H   0  0  0  0  0  0  0  0  0  0  0  0
    5.3384    0.9631    0.0000 H   0  0  0  0  0  0  0  0  0  0  0  0
    5.2123   -3.2176    0.0000 H   0  0  0  0  0  0  0  0  0  0  0  0
    5.7641   -2.5253    0.0000 H   0  0  0  0  0  0  0  0  0  0  0  0
    5.9145    0.1197    0.0000 H   0  0  0  0  0  0  0  0  0  0  0  0
    6.7889   -0.0188    0.0000 H   0  0  0  0  0  0  0  0  0  0  0  0
    2.2244   -0.1305    0.0000 H   0  0  0  0  0  0  0  0  0  0  0  0
    1.4220   -0.4840    0.0000 H   0  0  0  0  0  0  0  0  0  0  0  0
    1.7756   -1.2864    0.0000 H   0  0  0  0  0  0  0  0  0  0  0  0
    1.8196   -1.4531    0.0000 H   0  0  0  0  0  0  0  0  0  0  0  0
    1.9078   -2.3254    0.0000 H   0  0  0  0  0  0  0  0  0  0  0  0
    2.7802   -2.2371    0.0000 H   0  0  0  0  0  0  0  0  0  0  0  0
    7.1260    4.2416    0.0000 H   0  0  0  0  0  0  0  0  0  0  0  0
    6.4226    4.7652    0.0000 H   0  0  0  0  0  0  0  0  0  0  0  0
    5.8991    4.0618    0.0000 H   0  0  0  0  0  0  0  0  0  0  0  0
    5.7758    3.9414    0.0000 H   0  0  0  0  0  0  0  0  0  0  0  0
    5.0605    3.4342    0.0000 H   0  0  0  0  0  0  0  0  0  0  0  0
    5.5676    2.7190    0.0000 H   0  0  0  0  0  0  0  0  0  0  0  0
    3.5217    0.4215    0.0000 H   0  0  0  0  0  0  0  0  0  0  0  0
    2.6739    0.1978    0.0000 H   0  0  0  0  0  0  0  0  0  0  0  0
    2.8976   -0.6500    0.0000 H   0  0  0  0  0  0  0  0  0  0  0  0
    8.2460    3.3855    0.0000 H   0  0  0  0  0  0  0  0  0  0  0  0
    7.6332    4.0126    0.0000 H   0  0  0  0  0  0  0  0  0  0  0  0
    7.0061    3.3998    0.0000 H   0  0  0  0  0  0  0  0  0  0  0  0
    6.9964   -1.9399    0.0000 H   0  0  0  0  0  0  0  0  0  0  0  0
    8.9811   -0.8143    0.0000 H   0  0  0  0  0  0  0  0  0  0  0  0
    6.4992   -3.2326    0.0000 H   0  0  0  0  0  0  0  0  0  0  0  0
    6.7294   -4.0786    0.0000 H   0  0  0  0  0  0  0  0  0  0  0  0
    7.5754   -3.8484    0.0000 H   0  0  0  0  0  0  0  0  0  0  0  0
    6.5316   -2.0564    0.0000 H   0  0  0  0  0  0  0  0  0  0  0  0
    5.9140   -2.6788    0.0000 H   0  0  0  0  0  0  0  0  0  0  0  0
    6.5364   -3.2964    0.0000 H   0  0  0  0  0  0  0  0  0  0  0  0
   10.2000   -3.7717    0.0000 H   0  0  0  0  0  0  0  0  0  0  0  0
   12.5093   -1.4611    0.0000 H   0  0  0  0  0  0  0  0  0  0  0  0
   12.5222    0.2046    0.0000 H   0  0  0  0  0  0  0  0  0  0  0  0
   11.3120   -4.1517    0.0000 H   0  0  0  0  0  0  0  0  0  0  0  0
   11.9320   -4.7717    0.0000 H   0  0  0  0  0  0  0  0  0  0  0  0
   12.5520   -4.1517    0.0000 H   0  0  0  0  0  0  0  0  0  0  0  0
  1 17  1  0  0  0  0
  1 23  1  0  0  0  0
  2 18  1  0  0  0  0
  2 24  1  0  0  0  0
  3 31  1  0  0  0  0
  3 33  1  0  0  0  0
  4 32  1  0  0  0  0
  4 34  1  0  0  0  0
  5 23  2  0  0  0  0
  6 24  2  0  0  0  0
  7 31  2  0  0  0  0
  8 32  2  0  0  0  0
  9 35  1  0  0  0  0
  9 37  1  0  0  0  0
 10 40  1  0  0  0  0
 10 45  1  0  0  0  0
 11 43  1  0  0  0  0
 11 47  1  0  0  0  0
 12 45  2  0  0  0  0
 13 15  1  0  0  0  0
 13 17  1  0  0  0  0
 13 25  1  0  0  0  0
 13 26  1  0  0  0  0
 14 16  1  0  0  0  0
 14 18  1  0  0  0  0
 14 27  1  0  0  0  0
 14 28  1  0  0  0  0
 15 19  1  0  0  0  0
 15 23  1  0  0  0  0
 15 29  1  0  0  0  0
 16 20  1  0  0  0  0
 16 24  1  0  0  0  0
 16 30  1  0  0  0  0
 17 21  1  0  0  0  0
 17 31  1  0  0  0  0
 18 22  1  0  0  0  0
 18 32  1  0  0  0  0
 19 21  1  0  0  0  0
 19 48  1  0  0  0  0
 19 49  1  0  0  0  0
 20 22  1  0  0  0  0
 20 50  1  0  0  0  0
 20 51  1  0  0  0  0
 21 52  1  0  0  0  0
 21 53  1  0  0  0  0
 22 54  1  0  0  0  0
 22 55  1  0  0  0  0
 25 56  1  0  0  0  0
 25 57  1  0  0  0  0
 25 58  1  0  0  0  0
 26 59  1  0  0  0  0
 26 60  1  0  0  0  0
 26 61  1  0  0  0  0
 27 62  1  0  0  0  0
 27 63  1  0  0  0  0
 27 64  1  0  0  0  0
 28 65  1  0  0  0  0
 28 66  1  0  0  0  0
 28 67  1  0  0  0  0
 29 68  1  0  0  0  0
 29 69  1  0  0  0  0
 29 70  1  0  0  0  0
 30 71  1  0  0  0  0
 30 72  1  0  0  0  0
 30 73  1  0  0  0  0
 33 34  1  0  0  0  0
 33 35  1  0  0  0  0
 33 74  1  0  0  0  0
 34 36  1  0  0  0  0
 34 75  1  0  0  0  0
 35 38  1  0  0  0  0
 35 39  1  0  0  0  0
 36 37  1  0  0  0  0
 36 40  2  0  0  0  0
 37 41  2  0  0  0  0
 38 76  1  0  0  0  0
 38 77  1  0  0  0  0
 38 78  1  0  0  0  0
 39 79  1  0  0  0  0
 39 80  1  0  0  0  0
 39 81  1  0  0  0  0
 40 42  1  0  0  0  0
 41 43  1  0  0  0  0
 41 82  1  0  0  0  0
 42 43  2  0  0  0  0
 42 44  1  0  0  0  0
 44 46  2  0  0  0  0
 44 83  1  0  0  0  0
 45 46  1  0  0  0  0
 46 84  1  0  0  0  0
 47 85  1  0  0  0  0
 47 86  1  0  0  0  0
 47 87  1  0  0  0  0
M  END
> <PUBCHEM_COMPOUND_CID>
500397
> <PUBCHEM_COMPOUND_CANONICALIZED>
1
> <PUBCHEM_CACTVS_COMPLEXITY>
1490
> <PUBCHEM_CACTVS_HBOND_ACCEPTOR>
12
> <PUBCHEM_CACTVS_HBOND_DONOR>
0
> <PUBCHEM_CACTVS_ROTATABLE_BOND>
7
> <PUBCHEM_CACTVS_SUBSKEYS>
AAADcfB8PAAAAAAAAAAAAAAAAAAAAaNECAA0SJECAAAAAACRAAAAGgAAAAAADlSgmAIyDoAABACIAiDSCAICCAAgIAAIiAFGCMgNJzKEMB6COiClwBUKqYfK7vzPoAACCAAIAABAAAQQABAAAYAADAAAAA==
> <PUBCHEM_IUPAC_OPENEYE_NAME>
[5-methoxy-8,8-dimethyl-2-oxo-9-(4,7,7-trimethyl-3-oxo-2-oxabicyclo[2.2.1]heptane-1-carbonyl)oxy-9,10-dihydropyrano[2,3-f]chromen-10-yl] 4,7,7-trimethyl-3-oxo-2-oxabicyclo[2.2.1]heptane-1-carboxylate
> <PUBCHEM_IUPAC_CAS_NAME>
4,7,7-trimethyl-3-oxo-2-oxabicyclo[2.2.1]heptane-1-carboxylic acid [5-methoxy-8,8-dimethyl-2-oxo-9-[oxo-(4,7,7-trimethyl-3-oxo-2-oxabicyclo[2.2.1]heptan-1-yl)methoxy]-9,10-dihydropyrano[2,3-f][1]benzopyran-10-yl] ester
> <PUBCHEM_IUPAC_NAME_MARKUP>
[5-methoxy-8,8-dimethyl-2-oxo-9-(4,7,7-trimethyl-3-oxo-2-oxabicyclo[2.2.1]heptane-1-carbonyl)oxy-9,10-dihydropyrano[2,3-f]chromen-10-yl] 4,7,7-trimethyl-3-oxo-2-oxabicyclo[2.2.1]heptane-1-carboxylate
> <PUBCHEM_IUPAC_NAME>
[5-methoxy-8,8-dimethyl-2-oxo-9-(4,7,7-trimethyl-3-oxo-2-oxabicyclo[2.2.1]heptane-1-carbonyl)oxy-9,10-dihydropyrano[2,3-f]chromen-10-yl] 4,7,7-trimethyl-3-oxo-2-oxabicyclo[2.2.1]heptane-1-carboxylate
> <PUBCHEM_IUPAC_SYSTEMATIC_NAME>
[5-methoxy-8,8-dimethyl-2-oxidanylidene-9-[(4,7,7-trimethyl-3-oxidanylidene-2-oxabicyclo[2.2.1]heptan-1-yl)carbonyloxy]-9,10-dihydropyrano[2,3-f]chromen-10-yl] 4,7,7-trimethyl-3-oxidanylidene-2-oxabicyclo[2.2.1]heptane-1-carboxylate
> <PUBCHEM_IUPAC_TRADITIONAL_NAME>
3-keto-4,7,7-trimethyl-2-oxabicyclo[2.2.1]heptane-1-carboxylic acid [2-keto-9-(3-keto-4,7,7-trimethyl-2-oxabicyclo[2.2.1]heptane-1-carbonyl)oxy-5-methoxy-8,8-dimethyl-9,10-dihydropyrano[2,3-f]chromen-10-yl] ester
> <PUBCHEM_IUPAC_INCHI>
InChI=1S/C35H40O12/c1-29(2)24(44-28(40)35-15-13-33(8,26(38)47-35)31(35,5)6)23(43-27(39)34-14-12-32(7,25(37)46-34)30(34,3)4)21-19(45-29)16-18(41-9)17-10-11-20(36)42-22(17)21/h10-11,16,23-24H,12-15H2,1-9H3
> <PUBCHEM_IUPAC_INCHIKEY>
UZWUNBDTCMRVQF-UHFFFAOYSA-N
> <PUBCHEM_XLOGP3_AA>
5
> <PUBCHEM_EXACT_MASS>
652.25197671
> <PUBCHEM_MOLECULAR_FORMULA>
C35H40O12
> <PUBCHEM_MOLECULAR_WEIGHT>
652.7
> <PUBCHEM_OPENEYE_CAN_SMILES>
CC1(C(C(C2=C3C(=C(C=C2O1)OC)C=CC(=O)O3)OC(=O)C45CCC(C4(C)C)(C(=O)O5)C)OC(=O)C67CCC(C6(C)C)(C(=O)O7)C)C
> <PUBCHEM_OPENEYE_ISO_SMILES>
CC1(C(C(C2=C3C(=C(C=C2O1)OC)C=CC(=O)O3)OC(=O)C45CCC(C4(C)C)(C(=O)O5)C)OC(=O)C67CCC(C6(C)C)(C(=O)O7)C)C
> <PUBCHEM_CACTVS_TPSA>
150
> <PUBCHEM_MONOISOTOPIC_WEIGHT>
652.25197671
> <PUBCHEM_TOTAL_CHARGE>
0
> <PUBCHEM_HEAVY_ATOM_COUNT>
47
> <PUBCHEM_ATOM_DEF_STEREO_COUNT>
0
> <PUBCHEM_ATOM_UDEF_STEREO_COUNT>
6
> <PUBCHEM_BOND_DEF_STEREO_COUNT>
0
> <PUBCHEM_BOND_UDEF_STEREO_COUNT>
0
> <PUBCHEM_ISOTOPIC_ATOM_COUNT>
0
> <PUBCHEM_COMPONENT_COUNT>
1
> <PUBCHEM_CACTVS_TAUTO_COUNT>
-1
> <PUBCHEM_COORDINATE_TYPE>
1
5
255
> <PUBCHEM_BONDANNOTATIONS>
10  40  8
10  45  8
15  29  3
16  30  3
17  31  3
18  32  3
33  3  3
36  37  8
36  40  8
37  41  8
34  4  3
40  42  8
41  43  8
42  43  8
42  44  8
44  46  8
45  46  8
$$$$
