500374
  -OEChem-10302200282D
173182  0     1  0  0  0  0  0999 V2000
    9.7845   -4.0066    0.0000 Cl  0  0  0  0  0  0  0  0  0  0  0  0
    9.8077    1.9933    0.0000 Cl  0  0  0  0  0  0  0  0  0  0  0  0
    8.0564   -3.0000    0.0000 O   0  0  0  0  0  0  0  0  0  0  0  0
   11.5436    2.9866    0.0000 O   0  0  0  0  0  0  0  0  0  0  0  0
    7.1961   -1.4966    0.0000 O   0  0  0  0  0  0  0  0  0  0  0  0
   13.2756    2.9800    0.0000 O   0  0  0  0  0  0  0  0  0  0  0  0
    8.0679    0.0000    0.0000 O   0  0  0  0  0  0  0  0  0  0  0  0
   14.1358    1.4766    0.0000 O   0  0  0  0  0  0  0  0  0  0  0  0
    5.4410   -7.4899    0.0000 O   0  5  0  0  0  0  0  0  0  0  0  0
    8.9628    7.4966    0.0000 O   0  5  0  0  0  0  0  0  0  0  0  0
    7.1730   -7.4966    0.0000 O   0  0  0  0  0  0  0  0  0  0  0  0
    8.0910    6.0000    0.0000 O   0  0  0  0  0  0  0  0  0  0  0  0
    2.0000   -1.4766    0.0000 O   0  5  0  0  0  0  0  0  0  0  0  0
   15.8910    7.4699    0.0000 O   0  5  0  0  0  0  0  0  0  0  0  0
    2.8718    0.0200    0.0000 O   0  0  0  0  0  0  0  0  0  0  0  0
   16.7512    5.9666    0.0000 O   0  0  0  0  0  0  0  0  0  0  0  0
    6.3089   -6.9933    0.0000 N   0  3  0  0  0  0  0  0  0  0  0  0
    8.9590    6.4966    0.0000 N   0  3  0  0  0  0  0  0  0  0  0  0
    2.8680   -0.9800    0.0000 N   0  3  0  0  0  0  0  0  0  0  0  0
   15.8871    6.4699    0.0000 N   0  3  0  0  0  0  0  0  0  0  0  0
   19.5173    0.5290    0.0000 C   0  0  3  0  0  0  0  0  0  0  0  0
   19.5173    1.5290    0.0000 C   0  0  3  0  0  0  0  0  0  0  0  0
   18.6513    0.0290    0.0000 C   0  0  3  0  0  0  0  0  0  0  0  0
   17.7853    0.5290    0.0000 C   0  0  3  0  0  0  0  0  0  0  0  0
   16.8753    0.0221    0.0000 C   0  0  3  0  0  0  0  0  0  0  0  0
   20.4636    1.8337    0.0000 C   0  0  3  0  0  0  0  0  0  0  0  0
   16.8673   -1.0195    0.0000 C   0  0  3  0  0  0  0  0  0  0  0  0
   18.6513    2.0290    0.0000 C   0  0  0  0  0  0  0  0  0  0  0  0
   17.7853    1.5290    0.0000 C   0  0  0  0  0  0  0  0  0  0  0  0
   20.4636    0.2242    0.0000 C   0  0  0  0  0  0  0  0  0  0  0  0
   18.6674   -1.0125    0.0000 C   0  0  0  0  0  0  0  0  0  0  0  0
   21.0472    1.0290    0.0000 C   0  0  0  0  0  0  0  0  0  0  0  0
   17.7693   -1.5403    0.0000 C   0  0  0  0  0  0  0  0  0  0  0  0
   15.9485    0.5862    0.0000 C   0  0  0  0  0  0  0  0  0  0  0  0
   15.9318   -1.5692    0.0000 C   0  0  0  0  0  0  0  0  0  0  0  0
   19.5173    2.5290    0.0000 C   0  0  0  0  0  0  0  0  0  0  0  0
   20.7742    2.7842    0.0000 C   0  0  3  0  0  0  0  0  0  0  0  0
   16.8830    1.0221    0.0000 C   0  0  0  0  0  0  0  0  0  0  0  0
   14.9922   -1.0267    0.0000 C   0  0  3  0  0  0  0  0  0  0  0  0
   15.0006    0.0583    0.0000 C   0  0  0  0  0  0  0  0  0  0  0  0
   21.7527    2.9904    0.0000 C   0  0  0  0  0  0  0  0  0  0  0  0
   14.1243   -1.5234    0.0000 C   0  0  0  0  0  0  0  0  0  0  0  0
   20.1064    3.5285    0.0000 C   0  0  0  0  0  0  0  0  0  0  0  0
   22.0634    3.9410    0.0000 C   0  0  0  0  0  0  0  0  0  0  0  0
   13.2602   -1.0200    0.0000 C   0  0  0  0  0  0  0  0  0  0  0  0
   23.0419    4.1472    0.0000 C   0  0  0  0  0  0  0  0  0  0  0  0
   12.3922   -1.5167    0.0000 C   0  0  0  0  0  0  0  0  0  0  0  0
   23.3526    5.0977    0.0000 C   0  0  0  0  0  0  0  0  0  0  0  0
   11.5281   -1.0134    0.0000 C   0  0  0  0  0  0  0  0  0  0  0  0
   24.3311    5.3039    0.0000 C   0  0  0  0  0  0  0  0  0  0  0  0
   22.6847    5.8420    0.0000 C   0  0  0  0  0  0  0  0  0  0  0  0
   10.6602   -1.5100    0.0000 C   0  0  0  0  0  0  0  0  0  0  0  0
   11.5320   -0.0134    0.0000 C   0  0  0  0  0  0  0  0  0  0  0  0
    9.7961   -1.0067    0.0000 C   0  0  0  0  0  0  0  0  0  0  0  0
   12.3999    0.4833    0.0000 C   0  0  0  0  0  0  0  0  0  0  0  0
   10.6563   -2.5100    0.0000 C   0  0  0  0  0  0  0  0  0  0  0  0
   10.6679    0.4900    0.0000 C   0  0  0  0  0  0  0  0  0  0  0  0
    8.9282   -1.5033    0.0000 C   0  0  0  0  0  0  0  0  0  0  0  0
   12.4038    1.4833    0.0000 C   0  0  0  0  0  0  0  0  0  0  0  0
    9.7884   -3.0066    0.0000 C   0  0  0  0  0  0  0  0  0  0  0  0
   10.6718    1.4900    0.0000 C   0  0  0  0  0  0  0  0  0  0  0  0
    8.9243   -2.5033    0.0000 C   0  0  0  0  0  0  0  0  0  0  0  0
   11.5397    1.9866    0.0000 C   0  0  0  0  0  0  0  0  0  0  0  0
    8.0641   -1.0000    0.0000 C   0  0  0  0  0  0  0  0  0  0  0  0
   13.2717    1.9800    0.0000 C   0  0  0  0  0  0  0  0  0  0  0  0
    8.0525   -4.0000    0.0000 C   0  0  0  0  0  0  0  0  0  0  0  0
   10.6795    3.4900    0.0000 C   0  0  0  0  0  0  0  0  0  0  0  0
    6.3320   -0.9933    0.0000 C   0  0  0  0  0  0  0  0  0  0  0  0
   14.1435    3.4766    0.0000 C   0  0  0  0  0  0  0  0  0  0  0  0
    7.1846   -4.4966    0.0000 C   0  0  0  0  0  0  0  0  0  0  0  0
   10.6833    4.4900    0.0000 C   0  0  0  0  0  0  0  0  0  0  0  0
    5.4641   -1.4900    0.0000 C   0  0  0  0  0  0  0  0  0  0  0  0
   14.1474    4.4766    0.0000 C   0  0  0  0  0  0  0  0  0  0  0  0
    7.1807   -5.4966    0.0000 C   0  0  0  0  0  0  0  0  0  0  0  0
    9.8192    4.9933    0.0000 C   0  0  0  0  0  0  0  0  0  0  0  0
    6.3205   -3.9933    0.0000 C   0  0  0  0  0  0  0  0  0  0  0  0
   11.5513    4.9866    0.0000 C   0  0  0  0  0  0  0  0  0  0  0  0
    4.6000   -0.9866    0.0000 C   0  0  0  0  0  0  0  0  0  0  0  0
   15.0153    4.9733    0.0000 C   0  0  0  0  0  0  0  0  0  0  0  0
    5.4602   -2.4900    0.0000 C   0  0  0  0  0  0  0  0  0  0  0  0
   13.2833    4.9799    0.0000 C   0  0  0  0  0  0  0  0  0  0  0  0
    6.3128   -5.9933    0.0000 C   0  0  0  0  0  0  0  0  0  0  0  0
    9.8231    5.9933    0.0000 C   0  0  0  0  0  0  0  0  0  0  0  0
    5.4525   -4.4900    0.0000 C   0  0  0  0  0  0  0  0  0  0  0  0
   11.5551    5.9866    0.0000 C   0  0  0  0  0  0  0  0  0  0  0  0
    5.4487   -5.4899    0.0000 C   0  0  0  0  0  0  0  0  0  0  0  0
   10.6910    6.4899    0.0000 C   0  0  0  0  0  0  0  0  0  0  0  0
    3.7320   -1.4833    0.0000 C   0  0  0  0  0  0  0  0  0  0  0  0
   15.0192    5.9732    0.0000 C   0  0  0  0  0  0  0  0  0  0  0  0
    4.5923   -2.9866    0.0000 C   0  0  0  0  0  0  0  0  0  0  0  0
   13.2872    5.9799    0.0000 C   0  0  0  0  0  0  0  0  0  0  0  0
    3.7282   -2.4833    0.0000 C   0  0  0  0  0  0  0  0  0  0  0  0
   14.1551    6.4766    0.0000 C   0  0  0  0  0  0  0  0  0  0  0  0
   19.5830   -0.0875    0.0000 H   0  0  0  0  0  0  0  0  0  0  0  0
   19.1906   -0.2769    0.0000 H   0  0  0  0  0  0  0  0  0  0  0  0
   18.3222    0.8390    0.0000 H   0  0  0  0  0  0  0  0  0  0  0  0
   21.0761    1.9299    0.0000 H   0  0  0  0  0  0  0  0  0  0  0  0
   16.8697   -1.6395    0.0000 H   0  0  0  0  0  0  0  0  0  0  0  0
   19.0499    2.5039    0.0000 H   0  0  0  0  0  0  0  0  0  0  0  0
   18.2528    2.5039    0.0000 H   0  0  0  0  0  0  0  0  0  0  0  0
   17.5732    2.1116    0.0000 H   0  0  0  0  0  0  0  0  0  0  0  0
   17.1747    1.4213    0.0000 H   0  0  0  0  0  0  0  0  0  0  0  0
   20.2125   -0.3427    0.0000 H   0  0  0  0  0  0  0  0  0  0  0  0
   21.0010   -0.0850    0.0000 H   0  0  0  0  0  0  0  0  0  0  0  0
   18.8854   -1.5929    0.0000 H   0  0  0  0  0  0  0  0  0  0  0  0
   19.2765   -0.8970    0.0000 H   0  0  0  0  0  0  0  0  0  0  0  0
   21.5080    0.6142    0.0000 H   0  0  0  0  0  0  0  0  0  0  0  0
   21.5080    1.4437    0.0000 H   0  0  0  0  0  0  0  0  0  0  0  0
   17.3720   -2.0163    0.0000 H   0  0  0  0  0  0  0  0  0  0  0  0
   18.1703   -2.0132    0.0000 H   0  0  0  0  0  0  0  0  0  0  0  0
   16.3567    1.0529    0.0000 H   0  0  0  0  0  0  0  0  0  0  0  0
   15.5585    1.0682    0.0000 H   0  0  0  0  0  0  0  0  0  0  0  0
   15.5345   -2.0452    0.0000 H   0  0  0  0  0  0  0  0  0  0  0  0
   16.3328   -2.0421    0.0000 H   0  0  0  0  0  0  0  0  0  0  0  0
   20.1374    2.5290    0.0000 H   0  0  0  0  0  0  0  0  0  0  0  0
   19.5173    3.1490    0.0000 H   0  0  0  0  0  0  0  0  0  0  0  0
   18.8973    2.5290    0.0000 H   0  0  0  0  0  0  0  0  0  0  0  0
   20.9668    3.3736    0.0000 H   0  0  0  0  0  0  0  0  0  0  0  0
   17.5030    1.0173    0.0000 H   0  0  0  0  0  0  0  0  0  0  0  0
   16.8878    1.6421    0.0000 H   0  0  0  0  0  0  0  0  0  0  0  0
   16.2630    1.0269    0.0000 H   0  0  0  0  0  0  0  0  0  0  0  0
   14.4571   -0.7136    0.0000 H   0  0  0  0  0  0  0  0  0  0  0  0
   14.7960    0.6436    0.0000 H   0  0  0  0  0  0  0  0  0  0  0  0
   14.3889   -0.0431    0.0000 H   0  0  0  0  0  0  0  0  0  0  0  0
   21.7733    2.3708    0.0000 H   0  0  0  0  0  0  0  0  0  0  0  0
   22.3666    2.9031    0.0000 H   0  0  0  0  0  0  0  0  0  0  0  0
   13.7239   -1.9968    0.0000 H   0  0  0  0  0  0  0  0  0  0  0  0
   14.5210   -1.9998    0.0000 H   0  0  0  0  0  0  0  0  0  0  0  0
   20.5679    3.9426    0.0000 H   0  0  0  0  0  0  0  0  0  0  0  0
   19.6923    3.9900    0.0000 H   0  0  0  0  0  0  0  0  0  0  0  0
   19.6449    3.1145    0.0000 H   0  0  0  0  0  0  0  0  0  0  0  0
   22.0428    4.5606    0.0000 H   0  0  0  0  0  0  0  0  0  0  0  0
   21.4496    4.0283    0.0000 H   0  0  0  0  0  0  0  0  0  0  0  0
   13.6605   -0.5466    0.0000 H   0  0  0  0  0  0  0  0  0  0  0  0
   12.8635   -0.5435    0.0000 H   0  0  0  0  0  0  0  0  0  0  0  0
   23.0625    3.5275    0.0000 H   0  0  0  0  0  0  0  0  0  0  0  0
   23.6557    4.0598    0.0000 H   0  0  0  0  0  0  0  0  0  0  0  0
   12.3898   -2.1367    0.0000 H   0  0  0  0  0  0  0  0  0  0  0  0
   22.7459    4.9698    0.0000 H   0  0  0  0  0  0  0  0  0  0  0  0
   24.4589    4.6973    0.0000 H   0  0  0  0  0  0  0  0  0  0  0  0
   24.9377    5.4318    0.0000 H   0  0  0  0  0  0  0  0  0  0  0  0
   24.2032    5.9106    0.0000 H   0  0  0  0  0  0  0  0  0  0  0  0
   23.1462    6.2561    0.0000 H   0  0  0  0  0  0  0  0  0  0  0  0
   22.2707    6.3035    0.0000 H   0  0  0  0  0  0  0  0  0  0  0  0
   22.2233    5.4280    0.0000 H   0  0  0  0  0  0  0  0  0  0  0  0
    9.7985   -0.3867    0.0000 H   0  0  0  0  0  0  0  0  0  0  0  0
   12.9357    0.1712    0.0000 H   0  0  0  0  0  0  0  0  0  0  0  0
   11.1921   -2.8221    0.0000 H   0  0  0  0  0  0  0  0  0  0  0  0
   10.1298    0.1821    0.0000 H   0  0  0  0  0  0  0  0  0  0  0  0
    8.2623   -4.5834    0.0000 H   0  0  0  0  0  0  0  0  0  0  0  0
    8.6635   -3.8947    0.0000 H   0  0  0  0  0  0  0  0  0  0  0  0
   10.0693    3.6000    0.0000 H   0  0  0  0  0  0  0  0  0  0  0  0
   10.4652    2.9082    0.0000 H   0  0  0  0  0  0  0  0  0  0  0  0
    6.7324   -0.5199    0.0000 H   0  0  0  0  0  0  0  0  0  0  0  0
    5.9353   -0.5168    0.0000 H   0  0  0  0  0  0  0  0  0  0  0  0
   14.3533    2.8932    0.0000 H   0  0  0  0  0  0  0  0  0  0  0  0
   14.7545    3.5819    0.0000 H   0  0  0  0  0  0  0  0  0  0  0  0
    7.7164   -5.8087    0.0000 H   0  0  0  0  0  0  0  0  0  0  0  0
    9.2811    4.6854    0.0000 H   0  0  0  0  0  0  0  0  0  0  0  0
    6.3228   -3.3733    0.0000 H   0  0  0  0  0  0  0  0  0  0  0  0
   12.0870    4.6745    0.0000 H   0  0  0  0  0  0  0  0  0  0  0  0
    4.6024   -0.3666    0.0000 H   0  0  0  0  0  0  0  0  0  0  0  0
   15.5511    4.6612    0.0000 H   0  0  0  0  0  0  0  0  0  0  0  0
    5.9960   -2.8020    0.0000 H   0  0  0  0  0  0  0  0  0  0  0  0
   12.7452    4.6720    0.0000 H   0  0  0  0  0  0  0  0  0  0  0  0
    4.9168   -4.1779    0.0000 H   0  0  0  0  0  0  0  0  0  0  0  0
   12.0932    6.2945    0.0000 H   0  0  0  0  0  0  0  0  0  0  0  0
    4.9105   -5.7979    0.0000 H   0  0  0  0  0  0  0  0  0  0  0  0
   10.6934    7.1099    0.0000 H   0  0  0  0  0  0  0  0  0  0  0  0
    4.5899   -3.6066    0.0000 H   0  0  0  0  0  0  0  0  0  0  0  0
   12.7514    6.2920    0.0000 H   0  0  0  0  0  0  0  0  0  0  0  0
    3.1901   -2.7912    0.0000 H   0  0  0  0  0  0  0  0  0  0  0  0
   14.1575    7.0966    0.0000 H   0  0  0  0  0  0  0  0  0  0  0  0
  1 60  1  0  0  0  0
  2 61  1  0  0  0  0
  3 62  1  0  0  0  0
  3 66  1  0  0  0  0
  4 63  1  0  0  0  0
  4 67  1  0  0  0  0
  5 64  1  0  0  0  0
  5 68  1  0  0  0  0
  6 65  1  0  0  0  0
  6 69  1  0  0  0  0
  7 64  2  0  0  0  0
  8 65  2  0  0  0  0
  9 17  1  0  0  0  0
 10 18  1  0  0  0  0
 11 17  2  0  0  0  0
 12 18  2  0  0  0  0
 13 19  1  0  0  0  0
 14 20  1  0  0  0  0
 15 19  2  0  0  0  0
 16 20  2  0  0  0  0
 17 82  1  0  0  0  0
 18 83  1  0  0  0  0
 19 88  1  0  0  0  0
 20 89  1  0  0  0  0
 21 22  1  0  0  0  0
 21 23  1  0  0  0  0
 21 30  1  0  0  0  0
 21 94  1  0  0  0  0
 22 26  1  0  0  0  0
 22 28  1  0  0  0  0
 22 36  1  0  0  0  0
 23 24  1  0  0  0  0
 23 31  1  0  0  0  0
 23 95  1  0  0  0  0
 24 25  1  0  0  0  0
 24 29  1  0  0  0  0
 24 96  1  0  0  0  0
 25 27  1  0  0  0  0
 25 34  1  0  0  0  0
 25 38  1  0  0  0  0
 26 32  1  0  0  0  0
 26 37  1  0  0  0  0
 26 97  1  0  0  0  0
 27 33  1  0  0  0  0
 27 35  1  0  0  0  0
 27 98  1  0  0  0  0
 28 29  1  0  0  0  0
 28 99  1  0  0  0  0
 28100  1  0  0  0  0
 29101  1  0  0  0  0
 29102  1  0  0  0  0
 30 32  1  0  0  0  0
 30103  1  0  0  0  0
 30104  1  0  0  0  0
 31 33  1  0  0  0  0
 31105  1  0  0  0  0
 31106  1  0  0  0  0
 32107  1  0  0  0  0
 32108  1  0  0  0  0
 33109  1  0  0  0  0
 33110  1  0  0  0  0
 34 40  1  0  0  0  0
 34111  1  0  0  0  0
 34112  1  0  0  0  0
 35 39  1  0  0  0  0
 35113  1  0  0  0  0
 35114  1  0  0  0  0
 36115  1  0  0  0  0
 36116  1  0  0  0  0
 36117  1  0  0  0  0
 37 41  1  0  0  0  0
 37 43  1  0  0  0  0
 37118  1  0  0  0  0
 38119  1  0  0  0  0
 38120  1  0  0  0  0
 38121  1  0  0  0  0
 39 40  1  0  0  0  0
 39 42  1  0  0  0  0
 39122  1  0  0  0  0
 40123  1  0  0  0  0
 40124  1  0  0  0  0
 41 44  1  0  0  0  0
 41125  1  0  0  0  0
 41126  1  0  0  0  0
 42 45  1  0  0  0  0
 42127  1  0  0  0  0
 42128  1  0  0  0  0
 43129  1  0  0  0  0
 43130  1  0  0  0  0
 43131  1  0  0  0  0
 44 46  1  0  0  0  0
 44132  1  0  0  0  0
 44133  1  0  0  0  0
 45 47  1  0  0  0  0
 45134  1  0  0  0  0
 45135  1  0  0  0  0
 46 48  1  0  0  0  0
 46136  1  0  0  0  0
 46137  1  0  0  0  0
 47 49  2  0  0  0  0
 47138  1  0  0  0  0
 48 50  1  0  0  0  0
 48 51  1  0  0  0  0
 48139  1  0  0  0  0
 49 52  1  0  0  0  0
 49 53  1  0  0  0  0
 50140  1  0  0  0  0
 50141  1  0  0  0  0
 50142  1  0  0  0  0
 51143  1  0  0  0  0
 51144  1  0  0  0  0
 51145  1  0  0  0  0
 52 54  2  0  0  0  0
 52 56  1  0  0  0  0
 53 55  2  0  0  0  0
 53 57  1  0  0  0  0
 54 58  1  0  0  0  0
 54146  1  0  0  0  0
 55 59  1  0  0  0  0
 55147  1  0  0  0  0
 56 60  2  0  0  0  0
 56148  1  0  0  0  0
 57 61  2  0  0  0  0
 57149  1  0  0  0  0
 58 62  2  0  0  0  0
 58 64  1  0  0  0  0
 59 63  2  0  0  0  0
 59 65  1  0  0  0  0
 60 62  1  0  0  0  0
 61 63  1  0  0  0  0
 66 70  1  0  0  0  0
 66150  1  0  0  0  0
 66151  1  0  0  0  0
 67 71  1  0  0  0  0
 67152  1  0  0  0  0
 67153  1  0  0  0  0
 68 72  1  0  0  0  0
 68154  1  0  0  0  0
 68155  1  0  0  0  0
 69 73  1  0  0  0  0
 69156  1  0  0  0  0
 69157  1  0  0  0  0
 70 74  2  0  0  0  0
 70 76  1  0  0  0  0
 71 75  2  0  0  0  0
 71 77  1  0  0  0  0
 72 78  2  0  0  0  0
 72 80  1  0  0  0  0
 73 79  2  0  0  0  0
 73 81  1  0  0  0  0
 74 82  1  0  0  0  0
 74158  1  0  0  0  0
 75 83  1  0  0  0  0
 75159  1  0  0  0  0
 76 84  2  0  0  0  0
 76160  1  0  0  0  0
 77 85  2  0  0  0  0
 77161  1  0  0  0  0
 78 88  1  0  0  0  0
 78162  1  0  0  0  0
 79 89  1  0  0  0  0
 79163  1  0  0  0  0
 80 90  2  0  0  0  0
 80164  1  0  0  0  0
 81 91  2  0  0  0  0
 81165  1  0  0  0  0
 82 86  2  0  0  0  0
 83 87  2  0  0  0  0
 84 86  1  0  0  0  0
 84166  1  0  0  0  0
 85 87  1  0  0  0  0
 85167  1  0  0  0  0
 86168  1  0  0  0  0
 87169  1  0  0  0  0
 88 92  2  0  0  0  0
 89 93  2  0  0  0  0
 90 92  1  0  0  0  0
 90170  1  0  0  0  0
 91 93  1  0  0  0  0
 91171  1  0  0  0  0
 92172  1  0  0  0  0
 93173  1  0  0  0  0
M  CHG  8   9  -1  10  -1  13  -1  14  -1  17   1  18   1  19   1  20   1
M  END
> <PUBCHEM_COMPOUND_CID>
500374
> <PUBCHEM_COMPOUND_CANONICALIZED>
1
> <PUBCHEM_CACTVS_COMPLEXITY>
2440
> <PUBCHEM_CACTVS_HBOND_ACCEPTOR>
14
> <PUBCHEM_CACTVS_HBOND_DONOR>
0
> <PUBCHEM_CACTVS_ROTATABLE_BOND>
24
> <PUBCHEM_CACTVS_SUBSKEYS>
AAADcfB/vAAGAAAAAAAAAAAAAAAAAYAAAAAwYMGDAAAAAGDBVAAAHgIEAAAADw6hmCIyzoAQRACJAiTSSwCCCAAkJ0AoiAEEb8oMJzeFt5uCOWDl4BEI6Ye4yOCPoAACYAAICADAAATAADAQAQAACAAAAA==
> <PUBCHEM_IUPAC_OPENEYE_NAME>
(3-nitrophenyl)methyl 3-chloro-5-[1-[3-chloro-4-[(3-nitrophenyl)methoxy]-5-[(3-nitrophenyl)methoxycarbonyl]phenyl]-4-[17-(1,5-dimethylhexyl)-10,13-dimethyl-2,3,4,5,6,7,8,9,11,12,14,15,16,17-tetradecahydro-1H-cyclopenta[a]phenanthren-3-yl]but-1-enyl]-2-[(3-nitrophenyl)methoxy]benzoate
> <PUBCHEM_IUPAC_CAS_NAME>
3-chloro-5-[1-[3-chloro-4-[(3-nitrophenyl)methoxy]-5-[(3-nitrophenyl)methoxy-oxomethyl]phenyl]-4-[10,13-dimethyl-17-(6-methylheptan-2-yl)-2,3,4,5,6,7,8,9,11,12,14,15,16,17-tetradecahydro-1H-cyclopenta[a]phenanthren-3-yl]but-1-enyl]-2-[(3-nitrophenyl)methoxy]benzoic acid (3-nitrophenyl)methyl ester
> <PUBCHEM_IUPAC_NAME_MARKUP>
(3-nitrophenyl)methyl 3-chloro-5-[1-[3-chloro-4-[(3-nitrophenyl)methoxy]-5-[(3-nitrophenyl)methoxycarbonyl]phenyl]-4-[10,13-dimethyl-17-(6-methylheptan-2-yl)-2,3,4,5,6,7,8,9,11,12,14,15,16,17-tetradecahydro-1<I>H</I>-cyclopenta[a]phenanthren-3-yl]but-1-enyl]-2-[(3-nitrophenyl)methoxy]benzoate
> <PUBCHEM_IUPAC_NAME>
(3-nitrophenyl)methyl 3-chloro-5-[1-[3-chloro-4-[(3-nitrophenyl)methoxy]-5-[(3-nitrophenyl)methoxycarbonyl]phenyl]-4-[10,13-dimethyl-17-(6-methylheptan-2-yl)-2,3,4,5,6,7,8,9,11,12,14,15,16,17-tetradecahydro-1H-cyclopenta[a]phenanthren-3-yl]but-1-enyl]-2-[(3-nitrophenyl)methoxy]benzoate
> <PUBCHEM_IUPAC_SYSTEMATIC_NAME>
(3-nitrophenyl)methyl 3-chloranyl-5-[1-[3-chloranyl-4-[(3-nitrophenyl)methoxy]-5-[(3-nitrophenyl)methoxycarbonyl]phenyl]-4-[10,13-dimethyl-17-(6-methylheptan-2-yl)-2,3,4,5,6,7,8,9,11,12,14,15,16,17-tetradecahydro-1H-cyclopenta[a]phenanthren-3-yl]but-1-enyl]-2-[(3-nitrophenyl)methoxy]benzoate
> <PUBCHEM_IUPAC_TRADITIONAL_NAME>
3-chloro-5-[1-[3-chloro-4-(3-nitrobenzyl)oxy-5-(3-nitrobenzyl)oxycarbonyl-phenyl]-4-[17-(1,5-dimethylhexyl)-10,13-dimethyl-2,3,4,5,6,7,8,9,11,12,14,15,16,17-tetradecahydro-1H-cyclopenta[a]phenanthren-3-yl]but-1-enyl]-2-(3-nitrobenzyl)oxy-benzoic acid (3-nitrobenzyl) ester
> <PUBCHEM_IUPAC_INCHI>
InChI=1S/C73H80Cl2N4O14/c1-45(2)12-6-13-46(3)63-26-27-64-60-25-24-54-32-47(28-30-72(54,4)65(60)29-31-73(63,64)5)14-11-23-59(52-37-61(70(80)92-43-50-17-9-21-57(35-50)78(86)87)68(66(74)39-52)90-41-48-15-7-19-55(33-48)76(82)83)53-38-62(71(81)93-44-51-18-10-22-58(36-51)79(88)89)69(67(75)40-53)91-42-49-16-8-20-56(34-49)77(84)85/h7-10,15-23,33-40,45-47,54,60,63-65H,6,11-14,24-32,41-44H2,1-5H3
> <PUBCHEM_IUPAC_INCHIKEY>
TXAXWIGSNPPOOV-UHFFFAOYSA-N
> <PUBCHEM_XLOGP3_AA>
22
> <PUBCHEM_EXACT_MASS>
1306.5048086
> <PUBCHEM_MOLECULAR_FORMULA>
C73H80Cl2N4O14
> <PUBCHEM_MOLECULAR_WEIGHT>
1308.3
> <PUBCHEM_OPENEYE_CAN_SMILES>
CC(C)CCCC(C)C1CCC2C1(CCC3C2CCC4C3(CCC(C4)CCC=C(C5=CC(=C(C(=C5)Cl)OCC6=CC(=CC=C6)[N+](=O)[O-])C(=O)OCC7=CC(=CC=C7)[N+](=O)[O-])C8=CC(=C(C(=C8)Cl)OCC9=CC(=CC=C9)[N+](=O)[O-])C(=O)OCC1=CC(=CC=C1)[N+](=O)[O-])C)C
> <PUBCHEM_OPENEYE_ISO_SMILES>
CC(C)CCCC(C)C1CCC2C1(CCC3C2CCC4C3(CCC(C4)CCC=C(C5=CC(=C(C(=C5)Cl)OCC6=CC(=CC=C6)[N+](=O)[O-])C(=O)OCC7=CC(=CC=C7)[N+](=O)[O-])C8=CC(=C(C(=C8)Cl)OCC9=CC(=CC=C9)[N+](=O)[O-])C(=O)OCC1=CC(=CC=C1)[N+](=O)[O-])C)C
> <PUBCHEM_CACTVS_TPSA>
254
> <PUBCHEM_MONOISOTOPIC_WEIGHT>
1306.5048086
> <PUBCHEM_TOTAL_CHARGE>
0
> <PUBCHEM_HEAVY_ATOM_COUNT>
93
> <PUBCHEM_ATOM_DEF_STEREO_COUNT>
0
> <PUBCHEM_ATOM_UDEF_STEREO_COUNT>
9
> <PUBCHEM_BOND_DEF_STEREO_COUNT>
0
> <PUBCHEM_BOND_UDEF_STEREO_COUNT>
0
> <PUBCHEM_ISOTOPIC_ATOM_COUNT>
0
> <PUBCHEM_COMPONENT_COUNT>
1
> <PUBCHEM_CACTVS_TAUTO_COUNT>
-1
> <PUBCHEM_COORDINATE_TYPE>
1
5
255
> <PUBCHEM_BONDANNOTATIONS>
21  30  3
22  36  3
23  31  3
24  29  3
25  38  3
26  32  3
27  33  3
37  43  3
39  42  3
52  54  8
52  56  8
53  55  8
53  57  8
54  58  8
55  59  8
56  60  8
57  61  8
58  62  8
59  63  8
60  62  8
61  63  8
70  74  8
70  76  8
71  75  8
71  77  8
72  78  8
72  80  8
73  79  8
73  81  8
74  82  8
75  83  8
76  84  8
77  85  8
78  88  8
79  89  8
80  90  8
81  91  8
82  86  8
83  87  8
84  86  8
85  87  8
88  92  8
89  93  8
90  92  8
91  93  8
$$$$
