500309
  -OEChem-10302200282D
 59 53  0     1  0  0  0  0  0999 V2000
    1.4030    0.0000    0.0000 Br  0  0  0  0  0  0  0  0  0  0  0  0
    2.6645   11.5484    0.0000 Co  0  0  0  0  0  0  0  0  0  0  0  0
    3.5305   12.0484    0.0000 Co  0  0  0  0  0  0  0  0  0  0  0  0
    0.4030    4.0000    0.0000 O   0  0  0  0  0  0  0  0  0  0  0  0
    3.6645    9.8163    0.0000 O   0  3  0  0  0  0  0  0  0  0  0  0
    5.2626   13.0484    0.0000 O   0  3  0  0  0  0  0  0  0  0  0  0
    0.9325   10.5484    0.0000 O   0  3  0  0  0  0  0  0  0  0  0  0
    4.5305   10.3163    0.0000 O   0  3  0  0  0  0  0  0  0  0  0  0
    2.5305   13.7804    0.0000 O   0  3  0  0  0  0  0  0  0  0  0  0
    1.6645   13.2804    0.0000 O   0  3  0  0  0  0  0  0  0  0  0  0
    4.4030    5.7320    0.0000 N   0  0  0  0  0  0  0  0  0  0  0  0
    5.3975    5.8366    0.0000 C   0  0  0  0  0  0  0  0  0  0  0  0
    3.9962    6.6456    0.0000 C   0  0  0  0  0  0  0  0  0  0  0  0
    5.6054    6.8147    0.0000 C   0  0  0  0  0  0  0  0  0  0  0  0
    4.7394    7.3147    0.0000 C   0  0  0  0  0  0  0  0  0  0  0  0
    3.9030    4.8660    0.0000 C   0  0  0  0  0  0  0  0  0  0  0  0
    2.9030    4.8660    0.0000 C   0  4  0  0  0  0  0  0  0  0  0  0
    1.4030    4.0000    0.0000 C   0  0  3  0  0  0  0  0  0  0  0  0
    2.4030    4.0000    0.0000 C   0  4  0  0  0  0  0  0  0  0  0  0
    1.4030    3.0000    0.0000 C   0  0  0  0  0  0  0  0  0  0  0  0
    1.4030    5.0000    0.0000 C   0  0  0  0  0  0  0  0  0  0  0  0
    0.5369    2.5000    0.0000 C   0  0  0  0  0  0  0  0  0  0  0  0
    2.2690    2.5000    0.0000 C   0  0  0  0  0  0  0  0  0  0  0  0
    2.2690    5.5000    0.0000 C   0  0  0  0  0  0  0  0  0  0  0  0
    0.5369    5.5000    0.0000 C   0  0  0  0  0  0  0  0  0  0  0  0
    0.5369    1.5000    0.0000 C   0  0  0  0  0  0  0  0  0  0  0  0
    2.2690    1.5000    0.0000 C   0  0  0  0  0  0  0  0  0  0  0  0
    2.2690    6.5000    0.0000 C   0  0  0  0  0  0  0  0  0  0  0  0
    0.5369    6.5000    0.0000 C   0  0  0  0  0  0  0  0  0  0  0  0
    1.4030    1.0000    0.0000 C   0  0  0  0  0  0  0  0  0  0  0  0
    1.4030    7.0000    0.0000 C   0  0  0  0  0  0  0  0  0  0  0  0
    3.1645   10.6823    0.0000 C   0  5  0  0  0  0  0  0  0  0  0  0
    4.3966   12.5484    0.0000 C   0  5  0  0  0  0  0  0  0  0  0  0
    1.7985   11.0484    0.0000 C   0  5  0  0  0  0  0  0  0  0  0  0
    4.0305   11.1823    0.0000 C   0  5  0  0  0  0  0  0  0  0  0  0
    3.0305   12.9144    0.0000 C   0  5  0  0  0  0  0  0  0  0  0  0
    2.1645   12.4144    0.0000 C   0  5  0  0  0  0  0  0  0  0  0  0
    5.3975    5.2166    0.0000 H   0  0  0  0  0  0  0  0  0  0  0  0
    6.0141    5.7718    0.0000 H   0  0  0  0  0  0  0  0  0  0  0  0
    3.6318    7.1472    0.0000 H   0  0  0  0  0  0  0  0  0  0  0  0
    3.4593    6.3356    0.0000 H   0  0  0  0  0  0  0  0  0  0  0  0
    6.1950    6.6231    0.0000 H   0  0  0  0  0  0  0  0  0  0  0  0
    5.8576    7.3811    0.0000 H   0  0  0  0  0  0  0  0  0  0  0  0
    5.1038    7.8163    0.0000 H   0  0  0  0  0  0  0  0  0  0  0  0
    4.2786    7.7296    0.0000 H   0  0  0  0  0  0  0  0  0  0  0  0
    3.7953    4.2554    0.0000 H   0  0  0  0  0  0  0  0  0  0  0  0
    4.4856    4.6540    0.0000 H   0  0  0  0  0  0  0  0  0  0  0  0
    2.5930    5.4030    0.0000 H   0  0  0  0  0  0  0  0  0  0  0  0
    2.7130    3.4631    0.0000 H   0  0  0  0  0  0  0  0  0  0  0  0
    0.0930    4.5369    0.0000 H   0  0  0  0  0  0  0  0  0  0  0  0
    0.0000    2.8100    0.0000 H   0  0  0  0  0  0  0  0  0  0  0  0
    2.8059    2.8100    0.0000 H   0  0  0  0  0  0  0  0  0  0  0  0
    2.8059    5.1900    0.0000 H   0  0  0  0  0  0  0  0  0  0  0  0
    0.0000    5.1900    0.0000 H   0  0  0  0  0  0  0  0  0  0  0  0
    0.0000    1.1900    0.0000 H   0  0  0  0  0  0  0  0  0  0  0  0
    2.8059    1.1900    0.0000 H   0  0  0  0  0  0  0  0  0  0  0  0
    2.8059    6.8100    0.0000 H   0  0  0  0  0  0  0  0  0  0  0  0
    0.0000    6.8100    0.0000 H   0  0  0  0  0  0  0  0  0  0  0  0
    1.4030    7.6200    0.0000 H   0  0  0  0  0  0  0  0  0  0  0  0
  1 30  1  0  0  0  0
  4 18  1  0  0  0  0
  4 50  1  0  0  0  0
  5 32  3  0  0  0  0
  6 33  3  0  0  0  0
  7 34  3  0  0  0  0
  8 35  3  0  0  0  0
  9 36  3  0  0  0  0
 10 37  3  0  0  0  0
 11 12  1  0  0  0  0
 11 13  1  0  0  0  0
 11 16  1  0  0  0  0
 12 14  1  0  0  0  0
 12 38  1  0  0  0  0
 12 39  1  0  0  0  0
 13 15  1  0  0  0  0
 13 40  1  0  0  0  0
 13 41  1  0  0  0  0
 14 15  1  0  0  0  0
 14 42  1  0  0  0  0
 14 43  1  0  0  0  0
 15 44  1  0  0  0  0
 15 45  1  0  0  0  0
 16 17  1  0  0  0  0
 16 46  1  0  0  0  0
 16 47  1  0  0  0  0
 17 19  1  0  0  0  0
 17 48  1  0  0  0  0
 18 19  1  0  0  0  0
 18 20  1  0  0  0  0
 18 21  1  0  0  0  0
 19 49  1  0  0  0  0
 20 22  2  0  0  0  0
 20 23  1  0  0  0  0
 21 24  2  0  0  0  0
 21 25  1  0  0  0  0
 22 26  1  0  0  0  0
 22 51  1  0  0  0  0
 23 27  2  0  0  0  0
 23 52  1  0  0  0  0
 24 28  1  0  0  0  0
 24 53  1  0  0  0  0
 25 29  2  0  0  0  0
 25 54  1  0  0  0  0
 26 30  2  0  0  0  0
 26 55  1  0  0  0  0
 27 30  1  0  0  0  0
 27 56  1  0  0  0  0
 28 31  2  0  0  0  0
 28 57  1  0  0  0  0
 29 31  1  0  0  0  0
 29 58  1  0  0  0  0
 31 59  1  0  0  0  0
M  CHG  8   5   1   6   1   7   1   8   1   9   1  10   1  32  -1  33  -1
M  CHG  4  34  -1  35  -1  36  -1  37  -1
M  RAD  2  17   2  19   2
M  END
> <PUBCHEM_COMPOUND_CID>
500309
> <PUBCHEM_COMPOUND_CANONICALIZED>
1
> <PUBCHEM_CACTVS_COMPLEXITY>
354
> <PUBCHEM_CACTVS_HBOND_ACCEPTOR>
8
> <PUBCHEM_CACTVS_HBOND_DONOR>
1
> <PUBCHEM_CACTVS_ROTATABLE_BOND>
6
> <PUBCHEM_CACTVS_SUBSKEYS>
AAADceB6OAAAEAAQAAAAAAAAAAAAAWAAAAAwYAAAAAAAAAABQAAAHgBACAABrETBmAQwAIMAAgCAAiBCAAACAAAgAAQIiAAICKgIJiKAkRCEcAAkwAGImhewwOAOggAAAAAAAAAEAAAAAAAAAAAAAAAAAA==
> <PUBCHEM_IUPAC_INCHI>
InChI=1S/C20H22BrNO.6CO.2Co/c21-19-11-9-18(10-12-19)20(23,17-7-2-1-3-8-17)13-6-16-22-14-4-5-15-22;6*1-2;;/h1-3,6-13,23H,4-5,14-16H2;;;;;;;;
> <PUBCHEM_IUPAC_INCHIKEY>
OIHYRENFOBBTEJ-UHFFFAOYSA-N
> <PUBCHEM_EXACT_MASS>
656.92435
> <PUBCHEM_MOLECULAR_FORMULA>
C26H22BrCo2NO7
> <PUBCHEM_MOLECULAR_WEIGHT>
658.2
> <PUBCHEM_OPENEYE_CAN_SMILES>
[C-]#[O+].[C-]#[O+].[C-]#[O+].[C-]#[O+].[C-]#[O+].[C-]#[O+].C1CCN(C1)C[CH][CH]C(C2=CC=CC=C2)(C3=CC=C(C=C3)Br)O.[Co].[Co]
> <PUBCHEM_OPENEYE_ISO_SMILES>
[C-]#[O+].[C-]#[O+].[C-]#[O+].[C-]#[O+].[C-]#[O+].[C-]#[O+].C1CCN(C1)C[CH][CH]C(C2=CC=CC=C2)(C3=CC=C(C=C3)Br)O.[Co].[Co]
> <PUBCHEM_CACTVS_TPSA>
29.5
> <PUBCHEM_MONOISOTOPIC_WEIGHT>
656.92435
> <PUBCHEM_TOTAL_CHARGE>
0
> <PUBCHEM_HEAVY_ATOM_COUNT>
37
> <PUBCHEM_ATOM_DEF_STEREO_COUNT>
0
> <PUBCHEM_ATOM_UDEF_STEREO_COUNT>
1
> <PUBCHEM_BOND_DEF_STEREO_COUNT>
0
> <PUBCHEM_BOND_UDEF_STEREO_COUNT>
0
> <PUBCHEM_ISOTOPIC_ATOM_COUNT>
0
> <PUBCHEM_COMPONENT_COUNT>
9
> <PUBCHEM_CACTVS_TAUTO_COUNT>
-1
> <PUBCHEM_NONSTANDARDBOND>
2  3  6
> <PUBCHEM_COORDINATE_TYPE>
1
5
255
> <PUBCHEM_BONDANNOTATIONS>
20  22  8
20  23  8
21  24  8
21  25  8
22  26  8
23  27  8
24  28  8
25  29  8
26  30  8
27  30  8
28  31  8
29  31  8
18  4  3
$$$$
