500313
  -OEChem-10302200282D
 59 53  0     1  0  0  0  0  0999 V2000
    3.5305    2.2320    0.0000 Co  0  0  0  0  0  0  0  0  0  0  0  0
    2.6645    1.7320    0.0000 Co  0  0  0  0  0  0  0  0  0  0  0  0
    1.4030    5.9641    0.0000 Cl  0  0  0  0  0  0  0  0  0  0  0  0
    0.4030    9.9641    0.0000 O   0  0  0  0  0  0  0  0  0  0  0  0
    3.6645    0.0000    0.0000 O   0  3  0  0  0  0  0  0  0  0  0  0
    5.2626    3.2320    0.0000 O   0  3  0  0  0  0  0  0  0  0  0  0
    0.9325    0.7321    0.0000 O   0  3  0  0  0  0  0  0  0  0  0  0
    4.5305    0.5000    0.0000 O   0  3  0  0  0  0  0  0  0  0  0  0
    2.5305    3.9641    0.0000 O   0  3  0  0  0  0  0  0  0  0  0  0
    1.6645    3.4641    0.0000 O   0  3  0  0  0  0  0  0  0  0  0  0
    4.4030   11.6962    0.0000 N   0  0  0  0  0  0  0  0  0  0  0  0
    5.3975   11.8007    0.0000 C   0  0  0  0  0  0  0  0  0  0  0  0
    3.9962   12.6097    0.0000 C   0  0  0  0  0  0  0  0  0  0  0  0
    5.6054   12.7788    0.0000 C   0  0  0  0  0  0  0  0  0  0  0  0
    4.7394   13.2788    0.0000 C   0  0  0  0  0  0  0  0  0  0  0  0
    3.9030   10.8301    0.0000 C   0  0  0  0  0  0  0  0  0  0  0  0
    2.9030   10.8301    0.0000 C   0  4  0  0  0  0  0  0  0  0  0  0
    1.4030    9.9641    0.0000 C   0  0  3  0  0  0  0  0  0  0  0  0
    2.4030    9.9641    0.0000 C   0  4  0  0  0  0  0  0  0  0  0  0
    1.4030    8.9641    0.0000 C   0  0  0  0  0  0  0  0  0  0  0  0
    1.4030   10.9641    0.0000 C   0  0  0  0  0  0  0  0  0  0  0  0
    0.5369    8.4641    0.0000 C   0  0  0  0  0  0  0  0  0  0  0  0
    2.2690    8.4641    0.0000 C   0  0  0  0  0  0  0  0  0  0  0  0
    2.2690   11.4641    0.0000 C   0  0  0  0  0  0  0  0  0  0  0  0
    0.5369   11.4641    0.0000 C   0  0  0  0  0  0  0  0  0  0  0  0
    0.5369    7.4641    0.0000 C   0  0  0  0  0  0  0  0  0  0  0  0
    2.2690    7.4641    0.0000 C   0  0  0  0  0  0  0  0  0  0  0  0
    2.2690   12.4641    0.0000 C   0  0  0  0  0  0  0  0  0  0  0  0
    0.5369   12.4641    0.0000 C   0  0  0  0  0  0  0  0  0  0  0  0
    1.4030    6.9641    0.0000 C   0  0  0  0  0  0  0  0  0  0  0  0
    1.4030   12.9641    0.0000 C   0  0  0  0  0  0  0  0  0  0  0  0
    3.1645    0.8660    0.0000 C   0  5  0  0  0  0  0  0  0  0  0  0
    4.3966    2.7320    0.0000 C   0  5  0  0  0  0  0  0  0  0  0  0
    1.7985    1.2320    0.0000 C   0  5  0  0  0  0  0  0  0  0  0  0
    4.0305    1.3660    0.0000 C   0  5  0  0  0  0  0  0  0  0  0  0
    3.0305    3.0981    0.0000 C   0  5  0  0  0  0  0  0  0  0  0  0
    2.1645    2.5981    0.0000 C   0  5  0  0  0  0  0  0  0  0  0  0
    5.3975   11.1807    0.0000 H   0  0  0  0  0  0  0  0  0  0  0  0
    6.0141   11.7359    0.0000 H   0  0  0  0  0  0  0  0  0  0  0  0
    3.6318   13.1113    0.0000 H   0  0  0  0  0  0  0  0  0  0  0  0
    3.4593   12.2997    0.0000 H   0  0  0  0  0  0  0  0  0  0  0  0
    6.1950   12.5872    0.0000 H   0  0  0  0  0  0  0  0  0  0  0  0
    5.8576   13.3452    0.0000 H   0  0  0  0  0  0  0  0  0  0  0  0
    5.1038   13.7804    0.0000 H   0  0  0  0  0  0  0  0  0  0  0  0
    4.2786   13.6937    0.0000 H   0  0  0  0  0  0  0  0  0  0  0  0
    3.7953   10.2195    0.0000 H   0  0  0  0  0  0  0  0  0  0  0  0
    4.4856   10.6181    0.0000 H   0  0  0  0  0  0  0  0  0  0  0  0
    2.5930   11.3671    0.0000 H   0  0  0  0  0  0  0  0  0  0  0  0
    2.7130    9.4272    0.0000 H   0  0  0  0  0  0  0  0  0  0  0  0
    0.0930   10.5010    0.0000 H   0  0  0  0  0  0  0  0  0  0  0  0
    0.0000    8.7741    0.0000 H   0  0  0  0  0  0  0  0  0  0  0  0
    2.8059    8.7741    0.0000 H   0  0  0  0  0  0  0  0  0  0  0  0
    2.8059   11.1541    0.0000 H   0  0  0  0  0  0  0  0  0  0  0  0
    0.0000   11.1541    0.0000 H   0  0  0  0  0  0  0  0  0  0  0  0
    0.0000    7.1541    0.0000 H   0  0  0  0  0  0  0  0  0  0  0  0
    2.8059    7.1541    0.0000 H   0  0  0  0  0  0  0  0  0  0  0  0
    2.8059   12.7741    0.0000 H   0  0  0  0  0  0  0  0  0  0  0  0
    0.0000   12.7741    0.0000 H   0  0  0  0  0  0  0  0  0  0  0  0
    1.4030   13.5841    0.0000 H   0  0  0  0  0  0  0  0  0  0  0  0
  3 30  1  0  0  0  0
  4 18  1  0  0  0  0
  4 50  1  0  0  0  0
  5 32  3  0  0  0  0
  6 33  3  0  0  0  0
  7 34  3  0  0  0  0
  8 35  3  0  0  0  0
  9 36  3  0  0  0  0
 10 37  3  0  0  0  0
 11 12  1  0  0  0  0
 11 13  1  0  0  0  0
 11 16  1  0  0  0  0
 12 14  1  0  0  0  0
 12 38  1  0  0  0  0
 12 39  1  0  0  0  0
 13 15  1  0  0  0  0
 13 40  1  0  0  0  0
 13 41  1  0  0  0  0
 14 15  1  0  0  0  0
 14 42  1  0  0  0  0
 14 43  1  0  0  0  0
 15 44  1  0  0  0  0
 15 45  1  0  0  0  0
 16 17  1  0  0  0  0
 16 46  1  0  0  0  0
 16 47  1  0  0  0  0
 17 19  1  0  0  0  0
 17 48  1  0  0  0  0
 18 19  1  0  0  0  0
 18 20  1  0  0  0  0
 18 21  1  0  0  0  0
 19 49  1  0  0  0  0
 20 22  2  0  0  0  0
 20 23  1  0  0  0  0
 21 24  2  0  0  0  0
 21 25  1  0  0  0  0
 22 26  1  0  0  0  0
 22 51  1  0  0  0  0
 23 27  2  0  0  0  0
 23 52  1  0  0  0  0
 24 28  1  0  0  0  0
 24 53  1  0  0  0  0
 25 29  2  0  0  0  0
 25 54  1  0  0  0  0
 26 30  2  0  0  0  0
 26 55  1  0  0  0  0
 27 30  1  0  0  0  0
 27 56  1  0  0  0  0
 28 31  2  0  0  0  0
 28 57  1  0  0  0  0
 29 31  1  0  0  0  0
 29 58  1  0  0  0  0
 31 59  1  0  0  0  0
M  CHG  8   5   1   6   1   7   1   8   1   9   1  10   1  32  -1  33  -1
M  CHG  4  34  -1  35  -1  36  -1  37  -1
M  RAD  2  17   2  19   2
M  END
> <PUBCHEM_COMPOUND_CID>
500313
> <PUBCHEM_COMPOUND_CANONICALIZED>
1
> <PUBCHEM_CACTVS_COMPLEXITY>
354
> <PUBCHEM_CACTVS_HBOND_ACCEPTOR>
8
> <PUBCHEM_CACTVS_HBOND_DONOR>
1
> <PUBCHEM_CACTVS_ROTATABLE_BOND>
6
> <PUBCHEM_CACTVS_SUBSKEYS>
AAADceB6OAAEAAAQAAAAAAAAAAAAAWAAAAAwYAAAAAAAAAABQAAAHgIACAAADEbBmCQwAIMAAgCAAiBCAAACAAAgBQAIiAAICogIJiKBkxCEcAAkwAGImAewwOAOhAAAAAAAAAAIAAAAAAAAAAAAAAAAAA==
> <PUBCHEM_IUPAC_INCHI>
InChI=1S/C20H22ClNO.6CO.2Co/c21-19-11-9-18(10-12-19)20(23,17-7-2-1-3-8-17)13-6-16-22-14-4-5-15-22;6*1-2;;/h1-3,6-13,23H,4-5,14-16H2;;;;;;;;
> <PUBCHEM_IUPAC_INCHIKEY>
BOUVLJFUZGOOOP-UHFFFAOYSA-N
> <PUBCHEM_EXACT_MASS>
612.974867
> <PUBCHEM_MOLECULAR_FORMULA>
C26H22ClCo2NO7
> <PUBCHEM_MOLECULAR_WEIGHT>
613.8
> <PUBCHEM_OPENEYE_CAN_SMILES>
[C-]#[O+].[C-]#[O+].[C-]#[O+].[C-]#[O+].[C-]#[O+].[C-]#[O+].C1CCN(C1)C[CH][CH]C(C2=CC=CC=C2)(C3=CC=C(C=C3)Cl)O.[Co].[Co]
> <PUBCHEM_OPENEYE_ISO_SMILES>
[C-]#[O+].[C-]#[O+].[C-]#[O+].[C-]#[O+].[C-]#[O+].[C-]#[O+].C1CCN(C1)C[CH][CH]C(C2=CC=CC=C2)(C3=CC=C(C=C3)Cl)O.[Co].[Co]
> <PUBCHEM_CACTVS_TPSA>
29.5
> <PUBCHEM_MONOISOTOPIC_WEIGHT>
612.974867
> <PUBCHEM_TOTAL_CHARGE>
0
> <PUBCHEM_HEAVY_ATOM_COUNT>
37
> <PUBCHEM_ATOM_DEF_STEREO_COUNT>
0
> <PUBCHEM_ATOM_UDEF_STEREO_COUNT>
1
> <PUBCHEM_BOND_DEF_STEREO_COUNT>
0
> <PUBCHEM_BOND_UDEF_STEREO_COUNT>
0
> <PUBCHEM_ISOTOPIC_ATOM_COUNT>
0
> <PUBCHEM_COMPONENT_COUNT>
9
> <PUBCHEM_CACTVS_TAUTO_COUNT>
-1
> <PUBCHEM_NONSTANDARDBOND>
1  2  6
> <PUBCHEM_COORDINATE_TYPE>
1
5
255
> <PUBCHEM_BONDANNOTATIONS>
20  22  8
20  23  8
21  24  8
21  25  8
22  26  8
23  27  8
24  28  8
25  29  8
26  30  8
27  30  8
28  31  8
29  31  8
18  4  3
$$$$
