500387
  -OEChem-10302200282D
 28 30  0     1  0  0  0  0  0999 V2000
    5.0687    1.4266    0.0000 O   0  0  0  0  0  0  0  0  0  0  0  0
    2.2729   -0.3287    0.0000 O   0  0  0  0  0  0  0  0  0  0  0  0
    3.5298    0.9266    0.0000 N   0  0  0  0  0  0  0  0  0  0  0  0
    3.5298    1.9266    0.0000 C   0  0  3  0  0  0  0  0  0  0  0  0
    2.5836    2.2313    0.0000 C   0  0  0  0  0  0  0  0  0  0  0  0
    4.4809    0.6176    0.0000 C   0  0  3  0  0  0  0  0  0  0  0  0
    4.4809    2.2356    0.0000 C   0  0  0  0  0  0  0  0  0  0  0  0
    2.0000    1.4266    0.0000 C   0  0  0  0  0  0  0  0  0  0  0  0
    2.5836    0.6219    0.0000 C   0  0  0  0  0  0  0  0  0  0  0  0
    4.7899   -0.3335    0.0000 C   0  0  0  0  0  0  0  0  0  0  0  0
    5.7680   -0.5414    0.0000 C   0  0  0  0  0  0  0  0  0  0  0  0
    4.1208   -1.0766    0.0000 C   0  0  0  0  0  0  0  0  0  0  0  0
    6.0771   -1.4925    0.0000 C   0  0  0  0  0  0  0  0  0  0  0  0
    4.4298   -2.0277    0.0000 C   0  0  0  0  0  0  0  0  0  0  0  0
    5.4079   -2.2356    0.0000 C   0  0  0  0  0  0  0  0  0  0  0  0
    3.5287    2.7766    0.0000 H   0  0  0  0  0  0  0  0  0  0  0  0
    2.8346    2.7982    0.0000 H   0  0  0  0  0  0  0  0  0  0  0  0
    2.0462    2.5405    0.0000 H   0  0  0  0  0  0  0  0  0  0  0  0
    5.3204    0.4846    0.0000 H   0  0  0  0  0  0  0  0  0  0  0  0
    5.0178    2.5456    0.0000 H   0  0  0  0  0  0  0  0  0  0  0  0
    4.2287    2.8020    0.0000 H   0  0  0  0  0  0  0  0  0  0  0  0
    1.5391    1.8413    0.0000 H   0  0  0  0  0  0  0  0  0  0  0  0
    1.5391    1.0119    0.0000 H   0  0  0  0  0  0  0  0  0  0  0  0
    6.1829   -0.0807    0.0000 H   0  0  0  0  0  0  0  0  0  0  0  0
    3.5143   -0.9477    0.0000 H   0  0  0  0  0  0  0  0  0  0  0  0
    6.6835   -1.6214    0.0000 H   0  0  0  0  0  0  0  0  0  0  0  0
    4.0149   -2.4884    0.0000 H   0  0  0  0  0  0  0  0  0  0  0  0
    5.5995   -2.8253    0.0000 H   0  0  0  0  0  0  0  0  0  0  0  0
  1  6  1  0  0  0  0
  1  7  1  0  0  0  0
  2  9  2  0  0  0  0
  3  4  1  0  0  0  0
  3  6  1  0  0  0  0
  3  9  1  0  0  0  0
  4  5  1  0  0  0  0
  4  7  1  0  0  0  0
  4 16  1  0  0  0  0
  5  8  1  0  0  0  0
  5 17  1  0  0  0  0
  5 18  1  0  0  0  0
  6 10  1  0  0  0  0
  6 19  1  0  0  0  0
  7 20  1  0  0  0  0
  7 21  1  0  0  0  0
  8  9  1  0  0  0  0
  8 22  1  0  0  0  0
  8 23  1  0  0  0  0
 10 11  2  0  0  0  0
 10 12  1  0  0  0  0
 11 13  1  0  0  0  0
 11 24  1  0  0  0  0
 12 14  2  0  0  0  0
 12 25  1  0  0  0  0
 13 15  2  0  0  0  0
 13 26  1  0  0  0  0
 14 15  1  0  0  0  0
 14 27  1  0  0  0  0
 15 28  1  0  0  0  0
M  END
> <PUBCHEM_COMPOUND_CID>
500387
> <PUBCHEM_COMPOUND_CANONICALIZED>
1
> <PUBCHEM_CACTVS_COMPLEXITY>
260
> <PUBCHEM_CACTVS_HBOND_ACCEPTOR>
2
> <PUBCHEM_CACTVS_HBOND_DONOR>
0
> <PUBCHEM_CACTVS_ROTATABLE_BOND>
1
> <PUBCHEM_CACTVS_SUBSKEYS>
AAADccByMAAAAAAAAAAAAAAAAAAAAWLAAAAwAAAAAAAWAAABAAAAHgAAAAAADCjhmAYwAIMABACIAiFSEACCAAAgAAAIiAEIDIgKJjKAsRmPMAhkxgGYqAec1CIOAAAAAAAAAAAAAAAAAAAAAAAAAAAAAA==
> <PUBCHEM_IUPAC_OPENEYE_NAME>
3-phenyl-3,6,7,7a-tetrahydro-1H-pyrrolo[1,2-c]oxazol-5-one
> <PUBCHEM_IUPAC_CAS_NAME>
3-phenyl-3,6,7,7a-tetrahydro-1H-pyrrolo[1,2-c]oxazol-5-one
> <PUBCHEM_IUPAC_NAME_MARKUP>
3-phenyl-3,6,7,7<I>a</I>-tetrahydro-1<I>H</I>-pyrrolo[1,2-c][1,3]oxazol-5-one
> <PUBCHEM_IUPAC_NAME>
3-phenyl-3,6,7,7a-tetrahydro-1H-pyrrolo[1,2-c][1,3]oxazol-5-one
> <PUBCHEM_IUPAC_SYSTEMATIC_NAME>
3-phenyl-3,6,7,7a-tetrahydro-1H-pyrrolo[1,2-c][1,3]oxazol-5-one
> <PUBCHEM_IUPAC_TRADITIONAL_NAME>
3-phenyl-3,6,7,7a-tetrahydro-1H-pyrrolo[1,2-c]oxazol-5-one
> <PUBCHEM_IUPAC_INCHI>
InChI=1S/C12H13NO2/c14-11-7-6-10-8-15-12(13(10)11)9-4-2-1-3-5-9/h1-5,10,12H,6-8H2
> <PUBCHEM_IUPAC_INCHIKEY>
OURKKNDNLSPPQY-UHFFFAOYSA-N
> <PUBCHEM_XLOGP3_AA>
1.1
> <PUBCHEM_EXACT_MASS>
203.094628657
> <PUBCHEM_MOLECULAR_FORMULA>
C12H13NO2
> <PUBCHEM_MOLECULAR_WEIGHT>
203.24
> <PUBCHEM_OPENEYE_CAN_SMILES>
C1CC(=O)N2C1COC2C3=CC=CC=C3
> <PUBCHEM_OPENEYE_ISO_SMILES>
C1CC(=O)N2C1COC2C3=CC=CC=C3
> <PUBCHEM_CACTVS_TPSA>
29.5
> <PUBCHEM_MONOISOTOPIC_WEIGHT>
203.094628657
> <PUBCHEM_TOTAL_CHARGE>
0
> <PUBCHEM_HEAVY_ATOM_COUNT>
15
> <PUBCHEM_ATOM_DEF_STEREO_COUNT>
0
> <PUBCHEM_ATOM_UDEF_STEREO_COUNT>
2
> <PUBCHEM_BOND_DEF_STEREO_COUNT>
0
> <PUBCHEM_BOND_UDEF_STEREO_COUNT>
0
> <PUBCHEM_ISOTOPIC_ATOM_COUNT>
0
> <PUBCHEM_COMPONENT_COUNT>
1
> <PUBCHEM_CACTVS_TAUTO_COUNT>
2
> <PUBCHEM_COORDINATE_TYPE>
1
5
255
> <PUBCHEM_BONDANNOTATIONS>
10  11  8
10  12  8
11  13  8
12  14  8
13  15  8
14  15  8
4  16  3
6  19  3
$$$$
