500386
  -OEChem-10302200282D
 40 43  0     1  0  0  0  0  0999 V2000
    8.0687    0.5291    0.0000 O   0  0  0  0  0  0  0  0  0  0  0  0
    5.2788   -1.2310    0.0000 O   0  0  0  0  0  0  0  0  0  0  0  0
    3.5000   -0.3369    0.0000 O   0  0  0  0  0  0  0  0  0  0  0  0
    6.5388    0.0291    0.0000 N   0  0  0  0  0  0  0  0  0  0  0  0
    6.5388    1.0291    0.0000 C   0  0  3  0  0  0  0  0  0  0  0  0
    5.5878    1.3381    0.0000 C   0  0  0  0  0  0  0  0  0  0  0  0
    5.0000    0.5291    0.0000 C   0  0  3  0  0  0  0  0  0  0  0  0
    7.4851   -0.2756    0.0000 C   0  0  3  0  0  0  0  0  0  0  0  0
    7.4851    1.3338    0.0000 C   0  0  0  0  0  0  0  0  0  0  0  0
    5.5878   -0.2799    0.0000 C   0  0  0  0  0  0  0  0  0  0  0  0
    4.0000    0.5291    0.0000 C   0  0  0  0  0  0  0  0  0  0  0  0
    7.7957   -1.2261    0.0000 C   0  0  0  0  0  0  0  0  0  0  0  0
    3.5000    1.3951    0.0000 C   0  0  0  0  0  0  0  0  0  0  0  0
    8.7742   -1.4324    0.0000 C   0  0  0  0  0  0  0  0  0  0  0  0
    7.1279   -1.9704    0.0000 C   0  0  0  0  0  0  0  0  0  0  0  0
    9.0849   -2.3829    0.0000 C   0  0  0  0  0  0  0  0  0  0  0  0
    7.4385   -2.9210    0.0000 C   0  0  0  0  0  0  0  0  0  0  0  0
    4.0000    2.2612    0.0000 C   0  0  0  0  0  0  0  0  0  0  0  0
    2.5000    1.3951    0.0000 C   0  0  0  0  0  0  0  0  0  0  0  0
    8.4170   -3.1272    0.0000 C   0  0  0  0  0  0  0  0  0  0  0  0
    3.5000    3.1272    0.0000 C   0  0  0  0  0  0  0  0  0  0  0  0
    2.0000    2.2612    0.0000 C   0  0  0  0  0  0  0  0  0  0  0  0
    2.5000    3.1272    0.0000 C   0  0  0  0  0  0  0  0  0  0  0  0
    6.5396    1.6491    0.0000 H   0  0  0  0  0  0  0  0  0  0  0  0
    5.8400    1.9045    0.0000 H   0  0  0  0  0  0  0  0  0  0  0  0
    5.0508    1.6481    0.0000 H   0  0  0  0  0  0  0  0  0  0  0  0
    4.7185    1.0815    0.0000 H   0  0  0  0  0  0  0  0  0  0  0  0
    8.0976   -0.3718    0.0000 H   0  0  0  0  0  0  0  0  0  0  0  0
    8.0224    1.6431    0.0000 H   0  0  0  0  0  0  0  0  0  0  0  0
    7.2340    1.9008    0.0000 H   0  0  0  0  0  0  0  0  0  0  0  0
    9.1883   -0.9709    0.0000 H   0  0  0  0  0  0  0  0  0  0  0  0
    6.5212   -1.8426    0.0000 H   0  0  0  0  0  0  0  0  0  0  0  0
    9.6916   -2.5107    0.0000 H   0  0  0  0  0  0  0  0  0  0  0  0
    7.0245   -3.3824    0.0000 H   0  0  0  0  0  0  0  0  0  0  0  0
    4.6200    2.2612    0.0000 H   0  0  0  0  0  0  0  0  0  0  0  0
    2.1900    0.8582    0.0000 H   0  0  0  0  0  0  0  0  0  0  0  0
    8.6097   -3.7165    0.0000 H   0  0  0  0  0  0  0  0  0  0  0  0
    3.8100    3.6641    0.0000 H   0  0  0  0  0  0  0  0  0  0  0  0
    1.3800    2.2612    0.0000 H   0  0  0  0  0  0  0  0  0  0  0  0
    2.1900    3.6641    0.0000 H   0  0  0  0  0  0  0  0  0  0  0  0
  1  8  1  0  0  0  0
  1  9  1  0  0  0  0
  2 10  2  0  0  0  0
  3 11  2  0  0  0  0
  4  5  1  0  0  0  0
  4  8  1  0  0  0  0
  4 10  1  0  0  0  0
  5  6  1  0  0  0  0
  5  9  1  0  0  0  0
  5 24  1  0  0  0  0
  6  7  1  0  0  0  0
  6 25  1  0  0  0  0
  6 26  1  0  0  0  0
  7 10  1  0  0  0  0
  7 11  1  0  0  0  0
  7 27  1  0  0  0  0
  8 12  1  0  0  0  0
  8 28  1  0  0  0  0
  9 29  1  0  0  0  0
  9 30  1  0  0  0  0
 11 13  1  0  0  0  0
 12 14  2  0  0  0  0
 12 15  1  0  0  0  0
 13 18  2  0  0  0  0
 13 19  1  0  0  0  0
 14 16  1  0  0  0  0
 14 31  1  0  0  0  0
 15 17  2  0  0  0  0
 15 32  1  0  0  0  0
 16 20  2  0  0  0  0
 16 33  1  0  0  0  0
 17 20  1  0  0  0  0
 17 34  1  0  0  0  0
 18 21  1  0  0  0  0
 18 35  1  0  0  0  0
 19 22  2  0  0  0  0
 19 36  1  0  0  0  0
 20 37  1  0  0  0  0
 21 23  2  0  0  0  0
 21 38  1  0  0  0  0
 22 23  1  0  0  0  0
 22 39  1  0  0  0  0
 23 40  1  0  0  0  0
M  END
> <PUBCHEM_COMPOUND_CID>
500386
> <PUBCHEM_COMPOUND_CANONICALIZED>
1
> <PUBCHEM_CACTVS_COMPLEXITY>
465
> <PUBCHEM_CACTVS_HBOND_ACCEPTOR>
3
> <PUBCHEM_CACTVS_HBOND_DONOR>
0
> <PUBCHEM_CACTVS_ROTATABLE_BOND>
3
> <PUBCHEM_CACTVS_SUBSKEYS>
AAADceB6MAAAAAAAAAAAAAAAAAAAAWLAAAAwYAAAAAAWAAABQAAAHgAAAAAADSzhmAYwAIMABACIAqFSEACCAAAkAAAIiAEIDMgKJjqItRmPMQhkxgGYqYec3OKOAAAAAAAAAAAAAAAAAAAAAAAAAAAAAA==
> <PUBCHEM_IUPAC_OPENEYE_NAME>
6-benzoyl-3-phenyl-3,6,7,7a-tetrahydro-1H-pyrrolo[1,2-c]oxazol-5-one
> <PUBCHEM_IUPAC_CAS_NAME>
6-benzoyl-3-phenyl-3,6,7,7a-tetrahydro-1H-pyrrolo[1,2-c]oxazol-5-one
> <PUBCHEM_IUPAC_NAME_MARKUP>
6-benzoyl-3-phenyl-3,6,7,7<I>a</I>-tetrahydro-1<I>H</I>-pyrrolo[1,2-c][1,3]oxazol-5-one
> <PUBCHEM_IUPAC_NAME>
6-benzoyl-3-phenyl-3,6,7,7a-tetrahydro-1H-pyrrolo[1,2-c][1,3]oxazol-5-one
> <PUBCHEM_IUPAC_SYSTEMATIC_NAME>
3-phenyl-6-(phenylcarbonyl)-3,6,7,7a-tetrahydro-1H-pyrrolo[1,2-c][1,3]oxazol-5-one
> <PUBCHEM_IUPAC_TRADITIONAL_NAME>
6-benzoyl-3-phenyl-3,6,7,7a-tetrahydro-1H-pyrrolo[1,2-c]oxazol-5-one
> <PUBCHEM_IUPAC_INCHI>
InChI=1S/C19H17NO3/c21-17(13-7-3-1-4-8-13)16-11-15-12-23-19(20(15)18(16)22)14-9-5-2-6-10-14/h1-10,15-16,19H,11-12H2
> <PUBCHEM_IUPAC_INCHIKEY>
AMPMVHBZCCVDCX-UHFFFAOYSA-N
> <PUBCHEM_XLOGP3_AA>
2.7
> <PUBCHEM_EXACT_MASS>
307.12084340
> <PUBCHEM_MOLECULAR_FORMULA>
C19H17NO3
> <PUBCHEM_MOLECULAR_WEIGHT>
307.3
> <PUBCHEM_OPENEYE_CAN_SMILES>
C1C2COC(N2C(=O)C1C(=O)C3=CC=CC=C3)C4=CC=CC=C4
> <PUBCHEM_OPENEYE_ISO_SMILES>
C1C2COC(N2C(=O)C1C(=O)C3=CC=CC=C3)C4=CC=CC=C4
> <PUBCHEM_CACTVS_TPSA>
46.6
> <PUBCHEM_MONOISOTOPIC_WEIGHT>
307.12084340
> <PUBCHEM_TOTAL_CHARGE>
0
> <PUBCHEM_HEAVY_ATOM_COUNT>
23
> <PUBCHEM_ATOM_DEF_STEREO_COUNT>
0
> <PUBCHEM_ATOM_UDEF_STEREO_COUNT>
3
> <PUBCHEM_BOND_DEF_STEREO_COUNT>
0
> <PUBCHEM_BOND_UDEF_STEREO_COUNT>
0
> <PUBCHEM_ISOTOPIC_ATOM_COUNT>
0
> <PUBCHEM_COMPONENT_COUNT>
1
> <PUBCHEM_CACTVS_TAUTO_COUNT>
-1
> <PUBCHEM_COORDINATE_TYPE>
1
5
255
> <PUBCHEM_BONDANNOTATIONS>
12  14  8
12  15  8
13  18  8
13  19  8
14  16  8
15  17  8
16  20  8
17  20  8
18  21  8
19  22  8
21  23  8
22  23  8
5  6  3
7  11  3
8  12  3
$$$$
