500302
  -OEChem-10302200282D
 25 26  0     1  0  0  0  0  0999 V2000
    2.0000   -1.3815    0.0000 Cl  0  0  0  0  0  0  0  0  0  0  0  0
    2.9230    0.2063    0.0000 S   0  0  0  0  0  0  0  0  0  0  0  0
    4.4131    2.8799    0.0000 O   0  0  0  0  0  0  0  0  0  0  0  0
    5.8144    1.8618    0.0000 O   0  0  0  0  0  0  0  0  0  0  0  0
    4.5411    0.2063    0.0000 N   0  0  0  0  0  0  0  0  0  0  0  0
    3.7320   -0.3815    0.0000 C   0  0  3  0  0  0  0  0  0  0  0  0
    4.2320    1.1573    0.0000 C   0  0  3  0  0  0  0  0  0  0  0  0
    3.2320    1.1573    0.0000 C   0  0  0  0  0  0  0  0  0  0  0  0
    3.7320   -1.3815    0.0000 C   0  0  0  0  0  0  0  0  0  0  0  0
    4.8198    1.9664    0.0000 C   0  0  0  0  0  0  0  0  0  0  0  0
    2.8660   -1.8815    0.0000 C   0  0  0  0  0  0  0  0  0  0  0  0
    4.5981   -1.8815    0.0000 C   0  0  0  0  0  0  0  0  0  0  0  0
    2.8660   -2.8815    0.0000 C   0  0  0  0  0  0  0  0  0  0  0  0
    4.5981   -2.8815    0.0000 C   0  0  0  0  0  0  0  0  0  0  0  0
    3.7320   -3.3815    0.0000 C   0  0  0  0  0  0  0  0  0  0  0  0
    4.2845   -0.6630    0.0000 H   0  0  0  0  0  0  0  0  0  0  0  0
    4.8444    1.0603    0.0000 H   0  0  0  0  0  0  0  0  0  0  0  0
    3.2969    1.7740    0.0000 H   0  0  0  0  0  0  0  0  0  0  0  0
    2.6256    1.2862    0.0000 H   0  0  0  0  0  0  0  0  0  0  0  0
    5.1307    0.0147    0.0000 H   0  0  0  0  0  0  0  0  0  0  0  0
    5.1350   -1.5715    0.0000 H   0  0  0  0  0  0  0  0  0  0  0  0
    2.3291   -3.1915    0.0000 H   0  0  0  0  0  0  0  0  0  0  0  0
    5.1350   -3.1915    0.0000 H   0  0  0  0  0  0  0  0  0  0  0  0
    3.7320   -4.0015    0.0000 H   0  0  0  0  0  0  0  0  0  0  0  0
    4.7775    3.3815    0.0000 H   0  0  0  0  0  0  0  0  0  0  0  0
  1 11  1  0  0  0  0
  2  6  1  0  0  0  0
  2  8  1  0  0  0  0
  3 10  1  0  0  0  0
  3 25  1  0  0  0  0
  4 10  2  0  0  0  0
  5  6  1  0  0  0  0
  5  7  1  0  0  0  0
  5 20  1  0  0  0  0
  6  9  1  0  0  0  0
  6 16  1  0  0  0  0
  7  8  1  0  0  0  0
  7 10  1  0  0  0  0
  7 17  1  0  0  0  0
  8 18  1  0  0  0  0
  8 19  1  0  0  0  0
  9 11  1  0  0  0  0
  9 12  2  0  0  0  0
 11 13  2  0  0  0  0
 12 14  1  0  0  0  0
 12 21  1  0  0  0  0
 13 15  1  0  0  0  0
 13 22  1  0  0  0  0
 14 15  2  0  0  0  0
 14 23  1  0  0  0  0
 15 24  1  0  0  0  0
M  END
> <PUBCHEM_COMPOUND_CID>
500302
> <PUBCHEM_COMPOUND_CANONICALIZED>
1
> <PUBCHEM_CACTVS_COMPLEXITY>
252
> <PUBCHEM_CACTVS_HBOND_ACCEPTOR>
4
> <PUBCHEM_CACTVS_HBOND_DONOR>
2
> <PUBCHEM_CACTVS_ROTATABLE_BOND>
2
> <PUBCHEM_CACTVS_SUBSKEYS>
AAADccByMABEAAAAAAAAAAAAAAAAAWAAAAAwAAAAAAAAAAABAAAAHgYQCAAADCrF2CSwCILAAgiIAiDSCACCAABgBRAIiIGIBogKICKhkzGEYAhgkAC4iAcQgAAOAAAAAAABAAAAAAAAAAIAAAAAAAAAAA==
> <PUBCHEM_IUPAC_OPENEYE_NAME>
2-(2-chlorophenyl)thiazolidine-4-carboxylic acid
> <PUBCHEM_IUPAC_CAS_NAME>
2-(2-chlorophenyl)-4-thiazolidinecarboxylic acid
> <PUBCHEM_IUPAC_NAME_MARKUP>
2-(2-chlorophenyl)-1,3-thiazolidine-4-carboxylic acid
> <PUBCHEM_IUPAC_NAME>
2-(2-chlorophenyl)-1,3-thiazolidine-4-carboxylic acid
> <PUBCHEM_IUPAC_SYSTEMATIC_NAME>
2-(2-chlorophenyl)-1,3-thiazolidine-4-carboxylic acid
> <PUBCHEM_IUPAC_TRADITIONAL_NAME>
2-(2-chlorophenyl)thiazolidine-4-carboxylic acid
> <PUBCHEM_IUPAC_INCHI>
InChI=1S/C10H10ClNO2S/c11-7-4-2-1-3-6(7)9-12-8(5-15-9)10(13)14/h1-4,8-9,12H,5H2,(H,13,14)
> <PUBCHEM_IUPAC_INCHIKEY>
JMNONJXMGLSVNV-UHFFFAOYSA-N
> <PUBCHEM_XLOGP3_AA>
-0.2
> <PUBCHEM_EXACT_MASS>
243.0120774
> <PUBCHEM_MOLECULAR_FORMULA>
C10H10ClNO2S
> <PUBCHEM_MOLECULAR_WEIGHT>
243.71
> <PUBCHEM_OPENEYE_CAN_SMILES>
C1C(NC(S1)C2=CC=CC=C2Cl)C(=O)O
> <PUBCHEM_OPENEYE_ISO_SMILES>
C1C(NC(S1)C2=CC=CC=C2Cl)C(=O)O
> <PUBCHEM_CACTVS_TPSA>
74.6
> <PUBCHEM_MONOISOTOPIC_WEIGHT>
243.0120774
> <PUBCHEM_TOTAL_CHARGE>
0
> <PUBCHEM_HEAVY_ATOM_COUNT>
15
> <PUBCHEM_ATOM_DEF_STEREO_COUNT>
0
> <PUBCHEM_ATOM_UDEF_STEREO_COUNT>
2
> <PUBCHEM_BOND_DEF_STEREO_COUNT>
0
> <PUBCHEM_BOND_UDEF_STEREO_COUNT>
0
> <PUBCHEM_ISOTOPIC_ATOM_COUNT>
0
> <PUBCHEM_COMPONENT_COUNT>
1
> <PUBCHEM_CACTVS_TAUTO_COUNT>
-1
> <PUBCHEM_COORDINATE_TYPE>
1
5
255
> <PUBCHEM_BONDANNOTATIONS>
11  13  8
12  14  8
13  15  8
14  15  8
6  9  3
7  10  3
9  11  8
9  12  8
$$$$
