500382
  -OEChem-10302200282D
 72 73  0     1  0  0  0  0  0999 V2000
    8.0622    1.0000    0.0000 O   0  0  0  0  0  0  0  0  0  0  0  0
    9.7942   -1.0000    0.0000 O   0  0  0  0  0  0  0  0  0  0  0  0
    8.9282    2.5000    0.0000 O   0  0  0  0  0  0  0  0  0  0  0  0
    8.9282   -2.5000    0.0000 O   0  0  0  0  0  0  0  0  0  0  0  0
    5.4641    6.5000    0.0000 O   0  0  0  0  0  0  0  0  0  0  0  0
   12.3923   -6.5000    0.0000 O   0  0  0  0  0  0  0  0  0  0  0  0
    3.7320    5.5000    0.0000 O   0  0  0  0  0  0  0  0  0  0  0  0
   14.1244   -5.5000    0.0000 O   0  0  0  0  0  0  0  0  0  0  0  0
    7.1962    6.5000    0.0000 O   0  0  0  0  0  0  0  0  0  0  0  0
   10.6603   -6.5000    0.0000 O   0  0  0  0  0  0  0  0  0  0  0  0
    2.8660    4.0000    0.0000 O   0  0  0  0  0  0  0  0  0  0  0  0
   14.9904   -4.0000    0.0000 O   0  0  0  0  0  0  0  0  0  0  0  0
    8.9282    0.5000    0.0000 C   0  0  3  0  0  0  0  0  0  0  0  0
    8.9282   -0.5000    0.0000 C   0  0  3  0  0  0  0  0  0  0  0  0
    9.7942    1.0000    0.0000 C   0  0  0  0  0  0  0  0  0  0  0  0
    8.0622   -1.0000    0.0000 C   0  0  0  0  0  0  0  0  0  0  0  0
    8.0622    2.0000    0.0000 C   0  0  0  0  0  0  0  0  0  0  0  0
    9.7942   -2.0000    0.0000 C   0  0  0  0  0  0  0  0  0  0  0  0
    7.1962    2.5000    0.0000 C   0  0  0  0  0  0  0  0  0  0  0  0
   10.6603   -2.5000    0.0000 C   0  0  0  0  0  0  0  0  0  0  0  0
    6.3301    4.0000    0.0000 C   0  0  0  0  0  0  0  0  0  0  0  0
   11.5263   -4.0000    0.0000 C   0  0  0  0  0  0  0  0  0  0  0  0
    7.1962    3.5000    0.0000 C   0  0  0  0  0  0  0  0  0  0  0  0
   10.6603   -3.5000    0.0000 C   0  0  0  0  0  0  0  0  0  0  0  0
    6.3301    5.0000    0.0000 C   0  0  0  0  0  0  0  0  0  0  0  0
   11.5263   -5.0000    0.0000 C   0  0  0  0  0  0  0  0  0  0  0  0
    5.4641    3.5000    0.0000 C   0  0  0  0  0  0  0  0  0  0  0  0
   12.3923   -3.5000    0.0000 C   0  0  0  0  0  0  0  0  0  0  0  0
    5.4641    5.5000    0.0000 C   0  0  0  0  0  0  0  0  0  0  0  0
   12.3923   -5.5000    0.0000 C   0  0  0  0  0  0  0  0  0  0  0  0
    4.5981    5.0000    0.0000 C   0  0  0  0  0  0  0  0  0  0  0  0
   13.2583   -5.0000    0.0000 C   0  0  0  0  0  0  0  0  0  0  0  0
    4.5981    4.0000    0.0000 C   0  0  0  0  0  0  0  0  0  0  0  0
   13.2583   -4.0000    0.0000 C   0  0  0  0  0  0  0  0  0  0  0  0
    6.3301    7.0000    0.0000 C   0  0  0  0  0  0  0  0  0  0  0  0
   11.5263   -7.0000    0.0000 C   0  0  0  0  0  0  0  0  0  0  0  0
    2.8660    5.0000    0.0000 C   0  0  0  0  0  0  0  0  0  0  0  0
   14.9904   -5.0000    0.0000 C   0  0  0  0  0  0  0  0  0  0  0  0
    6.3301    8.0000    0.0000 C   0  0  0  0  0  0  0  0  0  0  0  0
   11.5263   -8.0000    0.0000 C   0  0  0  0  0  0  0  0  0  0  0  0
    2.0000    5.5000    0.0000 C   0  0  0  0  0  0  0  0  0  0  0  0
   15.8564   -5.5000    0.0000 C   0  0  0  0  0  0  0  0  0  0  0  0
    8.9282    1.1200    0.0000 H   0  0  0  0  0  0  0  0  0  0  0  0
    9.4651   -0.1900    0.0000 H   0  0  0  0  0  0  0  0  0  0  0  0
   10.1042    0.4631    0.0000 H   0  0  0  0  0  0  0  0  0  0  0  0
   10.3312    1.3100    0.0000 H   0  0  0  0  0  0  0  0  0  0  0  0
    9.4842    1.5369    0.0000 H   0  0  0  0  0  0  0  0  0  0  0  0
    7.7522   -0.4631    0.0000 H   0  0  0  0  0  0  0  0  0  0  0  0
    7.5252   -1.3100    0.0000 H   0  0  0  0  0  0  0  0  0  0  0  0
    8.3722   -1.5369    0.0000 H   0  0  0  0  0  0  0  0  0  0  0  0
    6.6592    2.1900    0.0000 H   0  0  0  0  0  0  0  0  0  0  0  0
   11.1972   -2.1900    0.0000 H   0  0  0  0  0  0  0  0  0  0  0  0
    7.7331    3.8100    0.0000 H   0  0  0  0  0  0  0  0  0  0  0  0
   10.1233   -3.8100    0.0000 H   0  0  0  0  0  0  0  0  0  0  0  0
    6.8671    5.3100    0.0000 H   0  0  0  0  0  0  0  0  0  0  0  0
   10.9893   -5.3100    0.0000 H   0  0  0  0  0  0  0  0  0  0  0  0
    5.4641    2.8800    0.0000 H   0  0  0  0  0  0  0  0  0  0  0  0
   12.3923   -2.8800    0.0000 H   0  0  0  0  0  0  0  0  0  0  0  0
    4.0611    3.6900    0.0000 H   0  0  0  0  0  0  0  0  0  0  0  0
   13.7953   -3.6900    0.0000 H   0  0  0  0  0  0  0  0  0  0  0  0
    6.9501    8.0000    0.0000 H   0  0  0  0  0  0  0  0  0  0  0  0
    6.3301    8.6200    0.0000 H   0  0  0  0  0  0  0  0  0  0  0  0
    5.7101    8.0000    0.0000 H   0  0  0  0  0  0  0  0  0  0  0  0
   10.9063   -8.0000    0.0000 H   0  0  0  0  0  0  0  0  0  0  0  0
   11.5263   -8.6200    0.0000 H   0  0  0  0  0  0  0  0  0  0  0  0
   12.1463   -8.0000    0.0000 H   0  0  0  0  0  0  0  0  0  0  0  0
    2.3100    6.0369    0.0000 H   0  0  0  0  0  0  0  0  0  0  0  0
    1.4631    5.8100    0.0000 H   0  0  0  0  0  0  0  0  0  0  0  0
    1.6900    4.9631    0.0000 H   0  0  0  0  0  0  0  0  0  0  0  0
   15.5464   -6.0369    0.0000 H   0  0  0  0  0  0  0  0  0  0  0  0
   16.3933   -5.8100    0.0000 H   0  0  0  0  0  0  0  0  0  0  0  0
   16.1664   -4.9631    0.0000 H   0  0  0  0  0  0  0  0  0  0  0  0
  1 13  1  0  0  0  0
  1 17  1  0  0  0  0
  2 14  1  0  0  0  0
  2 18  1  0  0  0  0
  3 17  2  0  0  0  0
  4 18  2  0  0  0  0
  5 29  1  0  0  0  0
  5 35  1  0  0  0  0
  6 30  1  0  0  0  0
  6 36  1  0  0  0  0
  7 31  1  0  0  0  0
  7 37  1  0  0  0  0
  8 32  1  0  0  0  0
  8 38  1  0  0  0  0
  9 35  2  0  0  0  0
 10 36  2  0  0  0  0
 11 37  2  0  0  0  0
 12 38  2  0  0  0  0
 13 14  1  0  0  0  0
 13 15  1  0  0  0  0
 13 43  1  0  0  0  0
 14 16  1  0  0  0  0
 14 44  1  0  0  0  0
 15 45  1  0  0  0  0
 15 46  1  0  0  0  0
 15 47  1  0  0  0  0
 16 48  1  0  0  0  0
 16 49  1  0  0  0  0
 16 50  1  0  0  0  0
 17 19  1  0  0  0  0
 18 20  1  0  0  0  0
 19 23  2  3  0  0  0
 19 51  1  0  0  0  0
 20 24  2  3  0  0  0
 20 52  1  0  0  0  0
 21 23  1  0  0  0  0
 21 25  2  0  0  0  0
 21 27  1  0  0  0  0
 22 24  1  0  0  0  0
 22 26  2  0  0  0  0
 22 28  1  0  0  0  0
 23 53  1  0  0  0  0
 24 54  1  0  0  0  0
 25 29  1  0  0  0  0
 25 55  1  0  0  0  0
 26 30  1  0  0  0  0
 26 56  1  0  0  0  0
 27 33  2  0  0  0  0
 27 57  1  0  0  0  0
 28 34  2  0  0  0  0
 28 58  1  0  0  0  0
 29 31  2  0  0  0  0
 30 32  2  0  0  0  0
 31 33  1  0  0  0  0
 32 34  1  0  0  0  0
 33 59  1  0  0  0  0
 34 60  1  0  0  0  0
 35 39  1  0  0  0  0
 36 40  1  0  0  0  0
 37 41  1  0  0  0  0
 38 42  1  0  0  0  0
 39 61  1  0  0  0  0
 39 62  1  0  0  0  0
 39 63  1  0  0  0  0
 40 64  1  0  0  0  0
 40 65  1  0  0  0  0
 40 66  1  0  0  0  0
 41 67  1  0  0  0  0
 41 68  1  0  0  0  0
 41 69  1  0  0  0  0
 42 70  1  0  0  0  0
 42 71  1  0  0  0  0
 42 72  1  0  0  0  0
M  END
> <PUBCHEM_COMPOUND_CID>
500382
> <PUBCHEM_COMPOUND_CANONICALIZED>
1
> <PUBCHEM_CACTVS_COMPLEXITY>
965
> <PUBCHEM_CACTVS_HBOND_ACCEPTOR>
12
> <PUBCHEM_CACTVS_HBOND_DONOR>
0
> <PUBCHEM_CACTVS_ROTATABLE_BOND>
17
> <PUBCHEM_CACTVS_SUBSKEYS>
AAADceB4PAAAAAAAAAAAAAAAAAAAAAAAAAAwYAAAAAAAAAABQAAAGgAAAAAADBSgmAIyDoAABACIAiDSCAACCAAgIAAIiAAGiMgNJiKEMRqCOiKkwBEKqYeAwBAOIAABAAAAQABAAAIAAACAAAAAAAAAAA==
> <PUBCHEM_IUPAC_OPENEYE_NAME>
[2-[3-(3,4-diacetoxyphenyl)prop-2-enoyloxy]-1-methyl-propyl] 3-(3,4-diacetoxyphenyl)prop-2-enoate
> <PUBCHEM_IUPAC_CAS_NAME>
3-(3,4-diacetyloxyphenyl)-2-propenoic acid 3-[3-(3,4-diacetyloxyphenyl)-1-oxoprop-2-enoxy]butan-2-yl ester
> <PUBCHEM_IUPAC_NAME_MARKUP>
3-[3-(3,4-diacetyloxyphenyl)prop-2-enoyloxy]butan-2-yl 3-(3,4-diacetyloxyphenyl)prop-2-enoate
> <PUBCHEM_IUPAC_NAME>
3-[3-(3,4-diacetyloxyphenyl)prop-2-enoyloxy]butan-2-yl 3-(3,4-diacetyloxyphenyl)prop-2-enoate
> <PUBCHEM_IUPAC_SYSTEMATIC_NAME>
3-[3-(3,4-diacetyloxyphenyl)prop-2-enoyloxy]butan-2-yl 3-(3,4-diacetyloxyphenyl)prop-2-enoate
> <PUBCHEM_IUPAC_TRADITIONAL_NAME>
3-(3,4-diacetoxyphenyl)acrylic acid [2-[3-(3,4-diacetoxyphenyl)acryloyl]oxy-1-methyl-propyl] ester
> <PUBCHEM_IUPAC_INCHI>
InChI=1S/C30H30O12/c1-17(37-29(35)13-9-23-7-11-25(39-19(3)31)27(15-23)41-21(5)33)18(2)38-30(36)14-10-24-8-12-26(40-20(4)32)28(16-24)42-22(6)34/h7-18H,1-6H3
> <PUBCHEM_IUPAC_INCHIKEY>
QMHVZMRBDMACJL-UHFFFAOYSA-N
> <PUBCHEM_XLOGP3_AA>
4
> <PUBCHEM_EXACT_MASS>
582.17372639
> <PUBCHEM_MOLECULAR_FORMULA>
C30H30O12
> <PUBCHEM_MOLECULAR_WEIGHT>
582.6
> <PUBCHEM_OPENEYE_CAN_SMILES>
CC(C(C)OC(=O)C=CC1=CC(=C(C=C1)OC(=O)C)OC(=O)C)OC(=O)C=CC2=CC(=C(C=C2)OC(=O)C)OC(=O)C
> <PUBCHEM_OPENEYE_ISO_SMILES>
CC(C(C)OC(=O)C=CC1=CC(=C(C=C1)OC(=O)C)OC(=O)C)OC(=O)C=CC2=CC(=C(C=C2)OC(=O)C)OC(=O)C
> <PUBCHEM_CACTVS_TPSA>
158
> <PUBCHEM_MONOISOTOPIC_WEIGHT>
582.17372639
> <PUBCHEM_TOTAL_CHARGE>
0
> <PUBCHEM_HEAVY_ATOM_COUNT>
42
> <PUBCHEM_ATOM_DEF_STEREO_COUNT>
0
> <PUBCHEM_ATOM_UDEF_STEREO_COUNT>
2
> <PUBCHEM_BOND_DEF_STEREO_COUNT>
0
> <PUBCHEM_BOND_UDEF_STEREO_COUNT>
2
> <PUBCHEM_ISOTOPIC_ATOM_COUNT>
0
> <PUBCHEM_COMPONENT_COUNT>
1
> <PUBCHEM_CACTVS_TAUTO_COUNT>
-1
> <PUBCHEM_COORDINATE_TYPE>
1
5
255
> <PUBCHEM_BONDANNOTATIONS>
13  15  3
14  16  3
19  23  1
20  24  1
21  25  8
21  27  8
22  26  8
22  28  8
25  29  8
26  30  8
27  33  8
28  34  8
29  31  8
30  32  8
31  33  8
32  34  8
$$$$
