500408
  -OEChem-10302200282D
126131  0     1  0  0  0  0  0999 V2000
    2.8602   -1.4110    0.0000 Cl  0  0  0  0  0  0  0  0  0  0  0  0
    8.0448   -4.4310    0.0000 Cl  0  0  0  0  0  0  0  0  0  0  0  0
    8.9282    0.0656    0.0000 O   0  0  0  0  0  0  0  0  0  0  0  0
    2.8680    0.5890    0.0000 O   0  0  0  0  0  0  0  0  0  0  0  0
    6.3089   -5.4243    0.0000 O   0  0  0  0  0  0  0  0  0  0  0  0
    3.7398    2.0856    0.0000 O   0  0  0  0  0  0  0  0  0  0  0  0
    4.5769   -5.4176    0.0000 O   0  0  0  0  0  0  0  0  0  0  0  0
    5.4718    2.0790    0.0000 O   0  0  0  0  0  0  0  0  0  0  0  0
    3.7166   -3.9143    0.0000 O   0  0  0  0  0  0  0  0  0  0  0  0
    9.7884   -1.4377    0.0000 N   0  0  0  0  0  0  0  0  0  0  0  0
   15.1815    1.6146    0.0000 C   0  0  3  0  0  0  0  0  0  0  0  0
   15.1815    0.6146    0.0000 C   0  0  3  0  0  0  0  0  0  0  0  0
   14.3154    0.1146    0.0000 C   0  0  3  0  0  0  0  0  0  0  0  0
   13.4494    0.6146    0.0000 C   0  0  3  0  0  0  0  0  0  0  0  0
   12.5394    0.1078    0.0000 C   0  0  3  0  0  0  0  0  0  0  0  0
   16.1277    1.9194    0.0000 C   0  0  3  0  0  0  0  0  0  0  0  0
   12.5314   -0.9338    0.0000 C   0  0  3  0  0  0  0  0  0  0  0  0
   14.3154    2.1146    0.0000 C   0  0  0  0  0  0  0  0  0  0  0  0
   13.4494    1.6146    0.0000 C   0  0  0  0  0  0  0  0  0  0  0  0
   16.1277    0.3099    0.0000 C   0  0  0  0  0  0  0  0  0  0  0  0
   14.3315   -0.9269    0.0000 C   0  0  0  0  0  0  0  0  0  0  0  0
   16.7113    1.1146    0.0000 C   0  0  0  0  0  0  0  0  0  0  0  0
   13.4335   -1.4546    0.0000 C   0  0  0  0  0  0  0  0  0  0  0  0
   11.6126    0.6719    0.0000 C   0  0  0  0  0  0  0  0  0  0  0  0
   15.1815    2.6146    0.0000 C   0  0  0  0  0  0  0  0  0  0  0  0
   11.5960   -1.4835    0.0000 C   0  0  0  0  0  0  0  0  0  0  0  0
   16.4384    2.8699    0.0000 C   0  0  3  0  0  0  0  0  0  0  0  0
   12.5471    1.1078    0.0000 C   0  0  0  0  0  0  0  0  0  0  0  0
   10.6647    0.1439    0.0000 C   0  0  0  0  0  0  0  0  0  0  0  0
   10.6563   -0.9410    0.0000 C   0  0  3  0  0  0  0  0  0  0  0  0
   17.4169    3.0761    0.0000 C   0  0  0  0  0  0  0  0  0  0  0  0
   15.7705    3.6142    0.0000 C   0  0  0  0  0  0  0  0  0  0  0  0
   17.7275    4.0266    0.0000 C   0  0  0  0  0  0  0  0  0  0  0  0
   18.7060    4.2328    0.0000 C   0  0  0  0  0  0  0  0  0  0  0  0
    8.9243   -0.9344    0.0000 C   0  0  0  0  0  0  0  0  0  0  0  0
   19.0167    5.1834    0.0000 C   0  0  0  0  0  0  0  0  0  0  0  0
    8.0564   -1.4310    0.0000 C   0  0  0  0  0  0  0  0  0  0  0  0
   19.9952    5.3896    0.0000 C   0  0  0  0  0  0  0  0  0  0  0  0
   18.3488    5.9277    0.0000 C   0  0  0  0  0  0  0  0  0  0  0  0
    7.1923   -0.9277    0.0000 C   0  0  0  0  0  0  0  0  0  0  0  0
    6.3243   -1.4244    0.0000 C   0  0  0  0  0  0  0  0  0  0  0  0
    5.4602   -0.9210    0.0000 C   0  0  0  0  0  0  0  0  0  0  0  0
    6.3205   -2.4244    0.0000 C   0  0  0  0  0  0  0  0  0  0  0  0
    5.4641    0.0790    0.0000 C   0  0  0  0  0  0  0  0  0  0  0  0
    5.4525   -2.9210    0.0000 C   0  0  0  0  0  0  0  0  0  0  0  0
    4.5923   -1.4177    0.0000 C   0  0  0  0  0  0  0  0  0  0  0  0
    7.1846   -2.9277    0.0000 C   0  0  0  0  0  0  0  0  0  0  0  0
    4.6000    0.5823    0.0000 C   0  0  0  0  0  0  0  0  0  0  0  0
    5.4487   -3.9210    0.0000 C   0  0  0  0  0  0  0  0  0  0  0  0
    3.7282   -0.9143    0.0000 C   0  0  0  0  0  0  0  0  0  0  0  0
    7.1807   -3.9277    0.0000 C   0  0  0  0  0  0  0  0  0  0  0  0
    3.7320    0.0856    0.0000 C   0  0  0  0  0  0  0  0  0  0  0  0
    6.3128   -4.4243    0.0000 C   0  0  0  0  0  0  0  0  0  0  0  0
    4.6038    1.5823    0.0000 C   0  0  0  0  0  0  0  0  0  0  0  0
    4.5807   -4.4176    0.0000 C   0  0  0  0  0  0  0  0  0  0  0  0
    2.0000    0.0923    0.0000 C   0  0  0  0  0  0  0  0  0  0  0  0
    7.1730   -5.9277    0.0000 C   0  0  0  0  0  0  0  0  0  0  0  0
    3.7436    3.0856    0.0000 C   0  0  0  0  0  0  0  0  0  0  0  0
    3.7089   -5.9143    0.0000 C   0  0  0  0  0  0  0  0  0  0  0  0
   15.2471   -0.0019    0.0000 H   0  0  0  0  0  0  0  0  0  0  0  0
   14.8548   -0.1912    0.0000 H   0  0  0  0  0  0  0  0  0  0  0  0
   13.9864    0.9246    0.0000 H   0  0  0  0  0  0  0  0  0  0  0  0
   16.7402    2.0156    0.0000 H   0  0  0  0  0  0  0  0  0  0  0  0
   12.5338   -1.5538    0.0000 H   0  0  0  0  0  0  0  0  0  0  0  0
   14.7140    2.5896    0.0000 H   0  0  0  0  0  0  0  0  0  0  0  0
   13.9169    2.5896    0.0000 H   0  0  0  0  0  0  0  0  0  0  0  0
   13.2374    2.1972    0.0000 H   0  0  0  0  0  0  0  0  0  0  0  0
   12.8388    1.5070    0.0000 H   0  0  0  0  0  0  0  0  0  0  0  0
   15.8767   -0.2570    0.0000 H   0  0  0  0  0  0  0  0  0  0  0  0
   16.6651    0.0007    0.0000 H   0  0  0  0  0  0  0  0  0  0  0  0
   14.5495   -1.5073    0.0000 H   0  0  0  0  0  0  0  0  0  0  0  0
   14.9407   -0.8114    0.0000 H   0  0  0  0  0  0  0  0  0  0  0  0
   17.1722    0.6999    0.0000 H   0  0  0  0  0  0  0  0  0  0  0  0
   17.1722    1.5294    0.0000 H   0  0  0  0  0  0  0  0  0  0  0  0
   13.0362   -1.9306    0.0000 H   0  0  0  0  0  0  0  0  0  0  0  0
   13.8344   -1.9275    0.0000 H   0  0  0  0  0  0  0  0  0  0  0  0
   12.0208    1.1385    0.0000 H   0  0  0  0  0  0  0  0  0  0  0  0
   11.2227    1.1539    0.0000 H   0  0  0  0  0  0  0  0  0  0  0  0
   15.8015    2.6146    0.0000 H   0  0  0  0  0  0  0  0  0  0  0  0
   15.1815    3.2346    0.0000 H   0  0  0  0  0  0  0  0  0  0  0  0
   14.5615    2.6146    0.0000 H   0  0  0  0  0  0  0  0  0  0  0  0
   11.1987   -1.9595    0.0000 H   0  0  0  0  0  0  0  0  0  0  0  0
   11.9969   -1.9564    0.0000 H   0  0  0  0  0  0  0  0  0  0  0  0
   15.8317    2.7420    0.0000 H   0  0  0  0  0  0  0  0  0  0  0  0
   13.1671    1.1030    0.0000 H   0  0  0  0  0  0  0  0  0  0  0  0
   12.5519    1.7277    0.0000 H   0  0  0  0  0  0  0  0  0  0  0  0
   11.9271    1.1125    0.0000 H   0  0  0  0  0  0  0  0  0  0  0  0
   10.4601    0.7292    0.0000 H   0  0  0  0  0  0  0  0  0  0  0  0
   10.0530    0.0425    0.0000 H   0  0  0  0  0  0  0  0  0  0  0  0
   10.1212   -0.6279    0.0000 H   0  0  0  0  0  0  0  0  0  0  0  0
   17.4374    2.4564    0.0000 H   0  0  0  0  0  0  0  0  0  0  0  0
   18.0307    2.9888    0.0000 H   0  0  0  0  0  0  0  0  0  0  0  0
   16.2320    4.0282    0.0000 H   0  0  0  0  0  0  0  0  0  0  0  0
   15.3564    4.0757    0.0000 H   0  0  0  0  0  0  0  0  0  0  0  0
   15.3090    3.2001    0.0000 H   0  0  0  0  0  0  0  0  0  0  0  0
    9.7860   -2.0577    0.0000 H   0  0  0  0  0  0  0  0  0  0  0  0
   17.7070    4.6463    0.0000 H   0  0  0  0  0  0  0  0  0  0  0  0
   17.1137    4.1140    0.0000 H   0  0  0  0  0  0  0  0  0  0  0  0
   18.7266    3.6132    0.0000 H   0  0  0  0  0  0  0  0  0  0  0  0
   19.3198    4.1455    0.0000 H   0  0  0  0  0  0  0  0  0  0  0  0
   18.4100    5.0555    0.0000 H   0  0  0  0  0  0  0  0  0  0  0  0
    7.6560   -1.9044    0.0000 H   0  0  0  0  0  0  0  0  0  0  0  0
    8.4530   -1.9075    0.0000 H   0  0  0  0  0  0  0  0  0  0  0  0
   20.1231    4.7829    0.0000 H   0  0  0  0  0  0  0  0  0  0  0  0
   20.6019    5.5174    0.0000 H   0  0  0  0  0  0  0  0  0  0  0  0
   19.8673    5.9962    0.0000 H   0  0  0  0  0  0  0  0  0  0  0  0
   18.8103    6.3417    0.0000 H   0  0  0  0  0  0  0  0  0  0  0  0
   17.9348    6.3891    0.0000 H   0  0  0  0  0  0  0  0  0  0  0  0
   17.8874    5.5136    0.0000 H   0  0  0  0  0  0  0  0  0  0  0  0
    7.1946   -0.3077    0.0000 H   0  0  0  0  0  0  0  0  0  0  0  0
    6.0022    0.3869    0.0000 H   0  0  0  0  0  0  0  0  0  0  0  0
    4.9168   -2.6089    0.0000 H   0  0  0  0  0  0  0  0  0  0  0  0
    4.5899   -2.0377    0.0000 H   0  0  0  0  0  0  0  0  0  0  0  0
    7.7227   -2.6197    0.0000 H   0  0  0  0  0  0  0  0  0  0  0  0
    1.6921    0.6305    0.0000 H   0  0  0  0  0  0  0  0  0  0  0  0
    1.4619   -0.2156    0.0000 H   0  0  0  0  0  0  0  0  0  0  0  0
    2.3079   -0.4458    0.0000 H   0  0  0  0  0  0  0  0  0  0  0  0
    6.8609   -6.4634    0.0000 H   0  0  0  0  0  0  0  0  0  0  0  0
    7.7087   -6.2397    0.0000 H   0  0  0  0  0  0  0  0  0  0  0  0
    7.4850   -5.3919    0.0000 H   0  0  0  0  0  0  0  0  0  0  0  0
    4.3636    3.0832    0.0000 H   0  0  0  0  0  0  0  0  0  0  0  0
    3.7460    3.7056    0.0000 H   0  0  0  0  0  0  0  0  0  0  0  0
    3.1236    3.0880    0.0000 H   0  0  0  0  0  0  0  0  0  0  0  0
    3.4010   -5.3762    0.0000 H   0  0  0  0  0  0  0  0  0  0  0  0
    3.1708   -6.2222    0.0000 H   0  0  0  0  0  0  0  0  0  0  0  0
    4.0168   -6.4524    0.0000 H   0  0  0  0  0  0  0  0  0  0  0  0
  1 50  1  0  0  0  0
  2 51  1  0  0  0  0
  3 35  2  0  0  0  0
  4 52  1  0  0  0  0
  4 56  1  0  0  0  0
  5 53  1  0  0  0  0
  5 57  1  0  0  0  0
  6 54  1  0  0  0  0
  6 58  1  0  0  0  0
  7 55  1  0  0  0  0
  7 59  1  0  0  0  0
  8 54  2  0  0  0  0
  9 55  2  0  0  0  0
 10 30  1  0  0  0  0
 10 35  1  0  0  0  0
 10 96  1  0  0  0  0
 11 12  1  0  0  0  0
 11 16  1  0  0  0  0
 11 18  1  0  0  0  0
 11 25  1  0  0  0  0
 12 13  1  0  0  0  0
 12 20  1  0  0  0  0
 12 60  1  0  0  0  0
 13 14  1  0  0  0  0
 13 21  1  0  0  0  0
 13 61  1  0  0  0  0
 14 15  1  0  0  0  0
 14 19  1  0  0  0  0
 14 62  1  0  0  0  0
 15 17  1  0  0  0  0
 15 24  1  0  0  0  0
 15 28  1  0  0  0  0
 16 22  1  0  0  0  0
 16 27  1  0  0  0  0
 16 63  1  0  0  0  0
 17 23  1  0  0  0  0
 17 26  1  0  0  0  0
 17 64  1  0  0  0  0
 18 19  1  0  0  0  0
 18 65  1  0  0  0  0
 18 66  1  0  0  0  0
 19 67  1  0  0  0  0
 19 68  1  0  0  0  0
 20 22  1  0  0  0  0
 20 69  1  0  0  0  0
 20 70  1  0  0  0  0
 21 23  1  0  0  0  0
 21 71  1  0  0  0  0
 21 72  1  0  0  0  0
 22 73  1  0  0  0  0
 22 74  1  0  0  0  0
 23 75  1  0  0  0  0
 23 76  1  0  0  0  0
 24 29  1  0  0  0  0
 24 77  1  0  0  0  0
 24 78  1  0  0  0  0
 25 79  1  0  0  0  0
 25 80  1  0  0  0  0
 25 81  1  0  0  0  0
 26 30  1  0  0  0  0
 26 82  1  0  0  0  0
 26 83  1  0  0  0  0
 27 31  1  0  0  0  0
 27 32  1  0  0  0  0
 27 84  1  0  0  0  0
 28 85  1  0  0  0  0
 28 86  1  0  0  0  0
 28 87  1  0  0  0  0
 29 30  1  0  0  0  0
 29 88  1  0  0  0  0
 29 89  1  0  0  0  0
 30 90  1  0  0  0  0
 31 33  1  0  0  0  0
 31 91  1  0  0  0  0
 31 92  1  0  0  0  0
 32 93  1  0  0  0  0
 32 94  1  0  0  0  0
 32 95  1  0  0  0  0
 33 34  1  0  0  0  0
 33 97  1  0  0  0  0
 33 98  1  0  0  0  0
 34 36  1  0  0  0  0
 34 99  1  0  0  0  0
 34100  1  0  0  0  0
 35 37  1  0  0  0  0
 36 38  1  0  0  0  0
 36 39  1  0  0  0  0
 36101  1  0  0  0  0
 37 40  1  0  0  0  0
 37102  1  0  0  0  0
 37103  1  0  0  0  0
 38104  1  0  0  0  0
 38105  1  0  0  0  0
 38106  1  0  0  0  0
 39107  1  0  0  0  0
 39108  1  0  0  0  0
 39109  1  0  0  0  0
 40 41  2  0  0  0  0
 40110  1  0  0  0  0
 41 42  1  0  0  0  0
 41 43  1  0  0  0  0
 42 44  2  0  0  0  0
 42 46  1  0  0  0  0
 43 45  2  0  0  0  0
 43 47  1  0  0  0  0
 44 48  1  0  0  0  0
 44111  1  0  0  0  0
 45 49  1  0  0  0  0
 45112  1  0  0  0  0
 46 50  2  0  0  0  0
 46113  1  0  0  0  0
 47 51  2  0  0  0  0
 47114  1  0  0  0  0
 48 52  2  0  0  0  0
 48 54  1  0  0  0  0
 49 53  2  0  0  0  0
 49 55  1  0  0  0  0
 50 52  1  0  0  0  0
 51 53  1  0  0  0  0
 56115  1  0  0  0  0
 56116  1  0  0  0  0
 56117  1  0  0  0  0
 57118  1  0  0  0  0
 57119  1  0  0  0  0
 57120  1  0  0  0  0
 58121  1  0  0  0  0
 58122  1  0  0  0  0
 58123  1  0  0  0  0
 59124  1  0  0  0  0
 59125  1  0  0  0  0
 59126  1  0  0  0  0
M  END
> <PUBCHEM_COMPOUND_CID>
500408
> <PUBCHEM_COMPOUND_CANONICALIZED>
1
> <PUBCHEM_CACTVS_COMPLEXITY>
1440
> <PUBCHEM_CACTVS_HBOND_ACCEPTOR>
7
> <PUBCHEM_CACTVS_HBOND_DONOR>
1
> <PUBCHEM_CACTVS_ROTATABLE_BOND>
16
> <PUBCHEM_CACTVS_SUBSKEYS>
AAADcfB+OAAGAAAAAAAAAAAAAAAAAYAAAAAwYMGDAAAAAGDBQAAAHgIQAAAADy7BmCYyDoLABACIAiHSGAACCAAkJUAAiIEMC8gMJzeFtxqEMWAl9hGIqYeYyOCPoAACIAAICADQAATAADAQAQAACAAAAA==
> <PUBCHEM_IUPAC_OPENEYE_NAME>
methyl 3-chloro-5-[1-(3-chloro-4-methoxy-5-methoxycarbonyl-phenyl)-4-[[17-(1,5-dimethylhexyl)-10,13-dimethyl-2,3,4,5,6,7,8,9,11,12,14,15,16,17-tetradecahydro-1H-cyclopenta[a]phenanthren-3-yl]amino]-4-oxo-but-1-enyl]-2-methoxy-benzoate
> <PUBCHEM_IUPAC_CAS_NAME>
3-chloro-5-[1-(3-chloro-4-methoxy-5-methoxycarbonylphenyl)-4-[[10,13-dimethyl-17-(6-methylheptan-2-yl)-2,3,4,5,6,7,8,9,11,12,14,15,16,17-tetradecahydro-1H-cyclopenta[a]phenanthren-3-yl]amino]-4-oxobut-1-enyl]-2-methoxybenzoic acid methyl ester
> <PUBCHEM_IUPAC_NAME_MARKUP>
methyl 3-chloro-5-[1-(3-chloro-4-methoxy-5-methoxycarbonylphenyl)-4-[[10,13-dimethyl-17-(6-methylheptan-2-yl)-2,3,4,5,6,7,8,9,11,12,14,15,16,17-tetradecahydro-1<I>H</I>-cyclopenta[a]phenanthren-3-yl]amino]-4-oxobut-1-enyl]-2-methoxybenzoate
> <PUBCHEM_IUPAC_NAME>
methyl 3-chloro-5-[1-(3-chloro-4-methoxy-5-methoxycarbonylphenyl)-4-[[10,13-dimethyl-17-(6-methylheptan-2-yl)-2,3,4,5,6,7,8,9,11,12,14,15,16,17-tetradecahydro-1H-cyclopenta[a]phenanthren-3-yl]amino]-4-oxobut-1-enyl]-2-methoxybenzoate
> <PUBCHEM_IUPAC_SYSTEMATIC_NAME>
methyl 3-chloranyl-5-[1-(3-chloranyl-4-methoxy-5-methoxycarbonyl-phenyl)-4-[[10,13-dimethyl-17-(6-methylheptan-2-yl)-2,3,4,5,6,7,8,9,11,12,14,15,16,17-tetradecahydro-1H-cyclopenta[a]phenanthren-3-yl]amino]-4-oxidanylidene-but-1-enyl]-2-methoxy-benzoate
> <PUBCHEM_IUPAC_TRADITIONAL_NAME>
5-[1-(3-carbomethoxy-5-chloro-4-methoxy-phenyl)-4-[[17-(1,5-dimethylhexyl)-10,13-dimethyl-2,3,4,5,6,7,8,9,11,12,14,15,16,17-tetradecahydro-1H-cyclopenta[a]phenanthren-3-yl]amino]-4-keto-but-1-enyl]-3-chloro-2-methoxy-benzoic acid methyl ester
> <PUBCHEM_IUPAC_INCHI>
InChI=1S/C49H67Cl2NO7/c1-28(2)11-10-12-29(3)38-16-17-39-35-14-13-32-27-33(19-21-48(32,4)40(35)20-22-49(38,39)5)52-43(53)18-15-34(30-23-36(46(54)58-8)44(56-6)41(50)25-30)31-24-37(47(55)59-9)45(57-7)42(51)26-31/h15,23-26,28-29,32-33,35,38-40H,10-14,16-22,27H2,1-9H3,(H,52,53)
> <PUBCHEM_IUPAC_INCHIKEY>
FKNJEIDXTNBHHV-UHFFFAOYSA-N
> <PUBCHEM_XLOGP3_AA>
14.4
> <PUBCHEM_EXACT_MASS>
851.4294589
> <PUBCHEM_MOLECULAR_FORMULA>
C49H67Cl2NO7
> <PUBCHEM_MOLECULAR_WEIGHT>
853.0
> <PUBCHEM_OPENEYE_CAN_SMILES>
CC(C)CCCC(C)C1CCC2C1(CCC3C2CCC4C3(CCC(C4)NC(=O)CC=C(C5=CC(=C(C(=C5)Cl)OC)C(=O)OC)C6=CC(=C(C(=C6)Cl)OC)C(=O)OC)C)C
> <PUBCHEM_OPENEYE_ISO_SMILES>
CC(C)CCCC(C)C1CCC2C1(CCC3C2CCC4C3(CCC(C4)NC(=O)CC=C(C5=CC(=C(C(=C5)Cl)OC)C(=O)OC)C6=CC(=C(C(=C6)Cl)OC)C(=O)OC)C)C
> <PUBCHEM_CACTVS_TPSA>
100
> <PUBCHEM_MONOISOTOPIC_WEIGHT>
851.4294589
> <PUBCHEM_TOTAL_CHARGE>
0
> <PUBCHEM_HEAVY_ATOM_COUNT>
59
> <PUBCHEM_ATOM_DEF_STEREO_COUNT>
0
> <PUBCHEM_ATOM_UDEF_STEREO_COUNT>
9
> <PUBCHEM_BOND_DEF_STEREO_COUNT>
0
> <PUBCHEM_BOND_UDEF_STEREO_COUNT>
0
> <PUBCHEM_ISOTOPIC_ATOM_COUNT>
0
> <PUBCHEM_COMPONENT_COUNT>
1
> <PUBCHEM_CACTVS_TAUTO_COUNT>
-1
> <PUBCHEM_COORDINATE_TYPE>
1
5
255
> <PUBCHEM_BONDANNOTATIONS>
30  10  3
11  25  3
12  20  3
13  21  3
14  19  3
15  28  3
16  22  3
17  23  3
27  32  3
42  44  8
42  46  8
43  45  8
43  47  8
44  48  8
45  49  8
46  50  8
47  51  8
48  52  8
49  53  8
50  52  8
51  53  8
$$$$
