500421
  -OEChem-10302200282D
143147  0     1  0  0  0  0  0999 V2000
    7.7304   -5.9332    0.0000 O   0  0  0  0  0  0  0  0  0  0  0  0
   16.6555   -2.8467    0.0000 O   0  0  0  0  0  0  0  0  0  0  0  0
   13.1837    1.0989    0.0000 O   0  0  0  0  0  0  0  0  0  0  0  0
    6.8702   -4.4298    0.0000 O   0  0  0  0  0  0  0  0  0  0  0  0
   17.5330   -4.3400    0.0000 O   0  0  0  0  0  0  0  0  0  0  0  0
   14.4639    2.2655    0.0000 O   0  0  0  0  0  0  0  0  0  0  0  0
    2.5381   -4.9132    0.0000 O   0  0  0  0  0  0  0  0  0  0  0  0
   21.8592   -3.8066    0.0000 O   0  0  0  0  0  0  0  0  0  0  0  0
    3.3984   -6.4165    0.0000 O   0  0  0  0  0  0  0  0  0  0  0  0
   20.9816   -2.3133    0.0000 O   0  0  0  0  0  0  0  0  0  0  0  0
   13.0499    6.3887    0.0000 O   0  0  0  0  0  0  0  0  0  0  0  0
   11.7697    5.2221    0.0000 O   0  0  0  0  0  0  0  0  0  0  0  0
   13.1235   -3.8808    0.0000 C   0  0  3  0  0  0  0  0  0  0  0  0
   12.2574   -4.3808    0.0000 C   0  0  3  0  0  0  0  0  0  0  0  0
   11.3914   -3.8808    0.0000 C   0  0  3  0  0  0  0  0  0  0  0  0
   13.1235   -2.8808    0.0000 C   0  0  3  0  0  0  0  0  0  0  0  0
   10.4814   -4.3877    0.0000 C   0  0  3  0  0  0  0  0  0  0  0  0
   14.0174   -2.3462    0.0000 C   0  0  3  0  0  0  0  0  0  0  0  0
   14.9235   -2.8600    0.0000 C   0  0  3  0  0  0  0  0  0  0  0  0
   10.4734   -5.4293    0.0000 C   0  0  3  0  0  0  0  0  0  0  0  0
   14.0174   -4.4155    0.0000 C   0  0  0  0  0  0  0  0  0  0  0  0
   12.2735   -5.4224    0.0000 C   0  0  0  0  0  0  0  0  0  0  0  0
   11.3914   -2.8808    0.0000 C   0  0  0  0  0  0  0  0  0  0  0  0
   12.2574   -2.3808    0.0000 C   0  0  0  0  0  0  0  0  0  0  0  0
   14.9235   -3.9017    0.0000 C   0  0  0  0  0  0  0  0  0  0  0  0
   11.3755   -5.9501    0.0000 C   0  0  0  0  0  0  0  0  0  0  0  0
   14.2275   -1.3323    0.0000 C   0  0  3  0  0  0  0  0  0  0  0  0
    9.5380   -5.9790    0.0000 C   0  0  0  0  0  0  0  0  0  0  0  0
    9.5546   -3.8236    0.0000 C   0  0  0  0  0  0  0  0  0  0  0  0
   15.6858   -2.1593    0.0000 C   0  0  0  0  0  0  0  0  0  0  0  0
   13.4656   -4.8205    0.0000 C   0  0  0  0  0  0  0  0  0  0  0  0
   12.9002   -5.1469    0.0000 C   0  0  0  0  0  0  0  0  0  0  0  0
   15.2565   -1.2170    0.0000 C   0  0  0  0  0  0  0  0  0  0  0  0
   10.4891   -3.3877    0.0000 C   0  0  0  0  0  0  0  0  0  0  0  0
    8.5983   -5.4365    0.0000 C   0  0  3  0  0  0  0  0  0  0  0  0
   15.7933   -3.3533    0.0000 C   0  0  0  0  0  0  0  0  0  0  0  0
    8.6067   -4.3516    0.0000 C   0  0  0  0  0  0  0  0  0  0  0  0
   13.5540   -0.5931    0.0000 C   0  0  0  0  0  0  0  0  0  0  0  0
    9.0413   -6.8470    0.0000 C   0  0  0  0  0  0  0  0  0  0  0  0
   10.0413   -6.8431    0.0000 C   0  0  0  0  0  0  0  0  0  0  0  0
   13.8573    0.3598    0.0000 C   0  0  0  0  0  0  0  0  0  0  0  0
   12.5771   -0.8069    0.0000 C   0  0  0  0  0  0  0  0  0  0  0  0
    6.8663   -5.4298    0.0000 C   0  0  0  0  0  0  0  0  0  0  0  0
   17.5253   -3.3400    0.0000 C   0  0  0  0  0  0  0  0  0  0  0  0
    5.9984   -5.9265    0.0000 C   0  0  0  0  0  0  0  0  0  0  0  0
   18.3875   -2.8333    0.0000 C   0  0  0  0  0  0  0  0  0  0  0  0
    5.1343   -5.4232    0.0000 C   0  0  0  0  0  0  0  0  0  0  0  0
   19.2573   -3.3266    0.0000 C   0  0  0  0  0  0  0  0  0  0  0  0
   13.4870    2.0518    0.0000 C   0  0  0  0  0  0  0  0  0  0  0  0
   12.8135    2.7909    0.0000 C   0  0  0  0  0  0  0  0  0  0  0  0
    4.2702   -4.9198    0.0000 C   0  0  0  0  0  0  0  0  0  0  0  0
   20.1272   -3.8199    0.0000 C   0  0  0  0  0  0  0  0  0  0  0  0
    4.6309   -6.2873    0.0000 C   0  0  0  0  0  0  0  0  0  0  0  0
    5.6376   -4.5591    0.0000 C   0  0  0  0  0  0  0  0  0  0  0  0
   19.7506   -2.4568    0.0000 C   0  0  0  0  0  0  0  0  0  0  0  0
   18.7640   -4.1965    0.0000 C   0  0  0  0  0  0  0  0  0  0  0  0
   13.1168    3.7438    0.0000 C   0  0  0  0  0  0  0  0  0  0  0  0
    3.4022   -5.4165    0.0000 C   0  0  0  0  0  0  0  0  0  0  0  0
   20.9893   -3.3133    0.0000 C   0  0  0  0  0  0  0  0  0  0  0  0
   13.4201    4.6967    0.0000 C   0  0  0  0  0  0  0  0  0  0  0  0
   12.1639    4.0471    0.0000 C   0  0  0  0  0  0  0  0  0  0  0  0
   14.0697    3.4405    0.0000 C   0  0  0  0  0  0  0  0  0  0  0  0
   12.7466    5.4358    0.0000 C   0  0  0  0  0  0  0  0  0  0  0  0
   11.9284   -3.5708    0.0000 H   0  0  0  0  0  0  0  0  0  0  0  0
   13.1187   -2.2609    0.0000 H   0  0  0  0  0  0  0  0  0  0  0  0
   13.5121   -1.9869    0.0000 H   0  0  0  0  0  0  0  0  0  0  0  0
   10.4758   -6.0493    0.0000 H   0  0  0  0  0  0  0  0  0  0  0  0
   13.6128   -4.8853    0.0000 H   0  0  0  0  0  0  0  0  0  0  0  0
   14.4110   -4.8945    0.0000 H   0  0  0  0  0  0  0  0  0  0  0  0
   12.4915   -6.0028    0.0000 H   0  0  0  0  0  0  0  0  0  0  0  0
   12.8827   -5.3068    0.0000 H   0  0  0  0  0  0  0  0  0  0  0  0
   11.1794   -2.2982    0.0000 H   0  0  0  0  0  0  0  0  0  0  0  0
   10.7808   -2.9885    0.0000 H   0  0  0  0  0  0  0  0  0  0  0  0
   12.6560   -1.9059    0.0000 H   0  0  0  0  0  0  0  0  0  0  0  0
   11.8589   -1.9059    0.0000 H   0  0  0  0  0  0  0  0  0  0  0  0
   15.1325   -4.4854    0.0000 H   0  0  0  0  0  0  0  0  0  0  0  0
   15.5343   -3.7956    0.0000 H   0  0  0  0  0  0  0  0  0  0  0  0
   10.9782   -6.4261    0.0000 H   0  0  0  0  0  0  0  0  0  0  0  0
   11.7764   -6.4230    0.0000 H   0  0  0  0  0  0  0  0  0  0  0  0
   13.6295   -1.4961    0.0000 H   0  0  0  0  0  0  0  0  0  0  0  0
    9.9628   -3.3570    0.0000 H   0  0  0  0  0  0  0  0  0  0  0  0
    9.1647   -3.3416    0.0000 H   0  0  0  0  0  0  0  0  0  0  0  0
   16.0551   -2.6573    0.0000 H   0  0  0  0  0  0  0  0  0  0  0  0
   16.2199   -1.8444    0.0000 H   0  0  0  0  0  0  0  0  0  0  0  0
   12.8830   -5.0326    0.0000 H   0  0  0  0  0  0  0  0  0  0  0  0
   13.6777   -5.4031    0.0000 H   0  0  0  0  0  0  0  0  0  0  0  0
   14.0482   -4.6084    0.0000 H   0  0  0  0  0  0  0  0  0  0  0  0
   12.4253   -5.5454    0.0000 H   0  0  0  0  0  0  0  0  0  0  0  0
   13.2988   -5.6218    0.0000 H   0  0  0  0  0  0  0  0  0  0  0  0
   13.3752   -4.7484    0.0000 H   0  0  0  0  0  0  0  0  0  0  0  0
   15.8446   -1.0207    0.0000 H   0  0  0  0  0  0  0  0  0  0  0  0
   15.1231   -0.6115    0.0000 H   0  0  0  0  0  0  0  0  0  0  0  0
   11.1091   -3.3925    0.0000 H   0  0  0  0  0  0  0  0  0  0  0  0
   10.4939   -2.7677    0.0000 H   0  0  0  0  0  0  0  0  0  0  0  0
    9.8692   -3.3829    0.0000 H   0  0  0  0  0  0  0  0  0  0  0  0
    8.5971   -6.0565    0.0000 H   0  0  0  0  0  0  0  0  0  0  0  0
   15.3985   -3.8313    0.0000 H   0  0  0  0  0  0  0  0  0  0  0  0
   16.1955   -3.8252    0.0000 H   0  0  0  0  0  0  0  0  0  0  0  0
    8.4022   -3.7663    0.0000 H   0  0  0  0  0  0  0  0  0  0  0  0
    7.9950   -4.4529    0.0000 H   0  0  0  0  0  0  0  0  0  0  0  0
    8.5032   -6.5390    0.0000 H   0  0  0  0  0  0  0  0  0  0  0  0
    8.7334   -7.3851    0.0000 H   0  0  0  0  0  0  0  0  0  0  0  0
    9.5794   -7.1549    0.0000 H   0  0  0  0  0  0  0  0  0  0  0  0
    9.5056   -7.1552    0.0000 H   0  0  0  0  0  0  0  0  0  0  0  0
   10.3534   -7.3788    0.0000 H   0  0  0  0  0  0  0  0  0  0  0  0
   10.5770   -6.5310    0.0000 H   0  0  0  0  0  0  0  0  0  0  0  0
   14.4064    0.0720    0.0000 H   0  0  0  0  0  0  0  0  0  0  0  0
   14.2361    0.8506    0.0000 H   0  0  0  0  0  0  0  0  0  0  0  0
   12.1595   -0.3486    0.0000 H   0  0  0  0  0  0  0  0  0  0  0  0
   12.3890   -1.3977    0.0000 H   0  0  0  0  0  0  0  0  0  0  0  0
    5.5980   -6.3999    0.0000 H   0  0  0  0  0  0  0  0  0  0  0  0
    6.3950   -6.4030    0.0000 H   0  0  0  0  0  0  0  0  0  0  0  0
   18.7823   -2.3553    0.0000 H   0  0  0  0  0  0  0  0  0  0  0  0
   17.9853   -2.3615    0.0000 H   0  0  0  0  0  0  0  0  0  0  0  0
   12.2643    3.0787    0.0000 H   0  0  0  0  0  0  0  0  0  0  0  0
   12.4347    2.3001    0.0000 H   0  0  0  0  0  0  0  0  0  0  0  0
    4.6705   -4.4464    0.0000 H   0  0  0  0  0  0  0  0  0  0  0  0
    3.8735   -4.4434    0.0000 H   0  0  0  0  0  0  0  0  0  0  0  0
   19.7323   -4.2980    0.0000 H   0  0  0  0  0  0  0  0  0  0  0  0
   20.5294   -4.2918    0.0000 H   0  0  0  0  0  0  0  0  0  0  0  0
    4.0952   -5.9752    0.0000 H   0  0  0  0  0  0  0  0  0  0  0  0
    4.3188   -6.8230    0.0000 H   0  0  0  0  0  0  0  0  0  0  0  0
    5.1667   -6.5993    0.0000 H   0  0  0  0  0  0  0  0  0  0  0  0
    6.1733   -4.8711    0.0000 H   0  0  0  0  0  0  0  0  0  0  0  0
    5.9497   -4.0233    0.0000 H   0  0  0  0  0  0  0  0  0  0  0  0
    5.1018   -4.2470    0.0000 H   0  0  0  0  0  0  0  0  0  0  0  0
   20.2900   -2.7626    0.0000 H   0  0  0  0  0  0  0  0  0  0  0  0
   20.0565   -1.9175    0.0000 H   0  0  0  0  0  0  0  0  0  0  0  0
   19.2113   -2.1509    0.0000 H   0  0  0  0  0  0  0  0  0  0  0  0
   18.2247   -3.8906    0.0000 H   0  0  0  0  0  0  0  0  0  0  0  0
   18.4582   -4.7358    0.0000 H   0  0  0  0  0  0  0  0  0  0  0  0
   19.3033   -4.5023    0.0000 H   0  0  0  0  0  0  0  0  0  0  0  0
   13.9693    4.4089    0.0000 H   0  0  0  0  0  0  0  0  0  0  0  0
   13.7989    5.1875    0.0000 H   0  0  0  0  0  0  0  0  0  0  0  0
   12.3520    4.6379    0.0000 H   0  0  0  0  0  0  0  0  0  0  0  0
   11.5731    4.2352    0.0000 H   0  0  0  0  0  0  0  0  0  0  0  0
   11.9759    3.4563    0.0000 H   0  0  0  0  0  0  0  0  0  0  0  0
   13.8816    2.8497    0.0000 H   0  0  0  0  0  0  0  0  0  0  0  0
   14.6605    3.2524    0.0000 H   0  0  0  0  0  0  0  0  0  0  0  0
   14.2578    4.0313    0.0000 H   0  0  0  0  0  0  0  0  0  0  0  0
    2.0000   -5.2211    0.0000 H   0  0  0  0  0  0  0  0  0  0  0  0
   22.3937   -3.4925    0.0000 H   0  0  0  0  0  0  0  0  0  0  0  0
   12.6323    6.8470    0.0000 H   0  0  0  0  0  0  0  0  0  0  0  0
  1 35  1  0  0  0  0
  1 43  1  0  0  0  0
  2 36  1  0  0  0  0
  2 44  1  0  0  0  0
  3 41  1  0  0  0  0
  3 49  1  0  0  0  0
  4 43  2  0  0  0  0
  5 44  2  0  0  0  0
  6 49  2  0  0  0  0
  7 58  1  0  0  0  0
  7141  1  0  0  0  0
  8 59  1  0  0  0  0
  8142  1  0  0  0  0
  9 58  2  0  0  0  0
 10 59  2  0  0  0  0
 11 63  1  0  0  0  0
 11143  1  0  0  0  0
 12 63  2  0  0  0  0
 13 14  1  0  0  0  0
 13 16  1  0  0  0  0
 13 21  1  0  0  0  0
 13 31  1  0  0  0  0
 14 15  1  0  0  0  0
 14 22  1  0  0  0  0
 14 32  1  0  0  0  0
 15 17  1  0  0  0  0
 15 23  1  0  0  0  0
 15 64  1  0  0  0  0
 16 18  1  0  0  0  0
 16 24  1  0  0  0  0
 16 65  1  0  0  0  0
 17 20  1  0  0  0  0
 17 29  1  0  0  0  0
 17 34  1  0  0  0  0
 18 19  1  0  0  0  0
 18 27  1  0  0  0  0
 18 66  1  0  0  0  0
 19 25  1  0  0  0  0
 19 30  1  0  0  0  0
 19 36  1  0  0  0  0
 20 26  1  0  0  0  0
 20 28  1  0  0  0  0
 20 67  1  0  0  0  0
 21 25  1  0  0  0  0
 21 68  1  0  0  0  0
 21 69  1  0  0  0  0
 22 26  1  0  0  0  0
 22 70  1  0  0  0  0
 22 71  1  0  0  0  0
 23 24  1  0  0  0  0
 23 72  1  0  0  0  0
 23 73  1  0  0  0  0
 24 74  1  0  0  0  0
 24 75  1  0  0  0  0
 25 76  1  0  0  0  0
 25 77  1  0  0  0  0
 26 78  1  0  0  0  0
 26 79  1  0  0  0  0
 27 33  1  0  0  0  0
 27 38  1  0  0  0  0
 27 80  1  0  0  0  0
 28 35  1  0  0  0  0
 28 39  1  0  0  0  0
 28 40  1  0  0  0  0
 29 37  1  0  0  0  0
 29 81  1  0  0  0  0
 29 82  1  0  0  0  0
 30 33  1  0  0  0  0
 30 83  1  0  0  0  0
 30 84  1  0  0  0  0
 31 85  1  0  0  0  0
 31 86  1  0  0  0  0
 31 87  1  0  0  0  0
 32 88  1  0  0  0  0
 32 89  1  0  0  0  0
 32 90  1  0  0  0  0
 33 91  1  0  0  0  0
 33 92  1  0  0  0  0
 34 93  1  0  0  0  0
 34 94  1  0  0  0  0
 34 95  1  0  0  0  0
 35 37  1  0  0  0  0
 35 96  1  0  0  0  0
 36 97  1  0  0  0  0
 36 98  1  0  0  0  0
 37 99  1  0  0  0  0
 37100  1  0  0  0  0
 38 41  1  0  0  0  0
 38 42  2  0  0  0  0
 39101  1  0  0  0  0
 39102  1  0  0  0  0
 39103  1  0  0  0  0
 40104  1  0  0  0  0
 40105  1  0  0  0  0
 40106  1  0  0  0  0
 41107  1  0  0  0  0
 41108  1  0  0  0  0
 42109  1  0  0  0  0
 42110  1  0  0  0  0
 43 45  1  0  0  0  0
 44 46  1  0  0  0  0
 45 47  1  0  0  0  0
 45111  1  0  0  0  0
 45112  1  0  0  0  0
 46 48  1  0  0  0  0
 46113  1  0  0  0  0
 46114  1  0  0  0  0
 47 51  1  0  0  0  0
 47 53  1  0  0  0  0
 47 54  1  0  0  0  0
 48 52  1  0  0  0  0
 48 55  1  0  0  0  0
 48 56  1  0  0  0  0
 49 50  1  0  0  0  0
 50 57  1  0  0  0  0
 50115  1  0  0  0  0
 50116  1  0  0  0  0
 51 58  1  0  0  0  0
 51117  1  0  0  0  0
 51118  1  0  0  0  0
 52 59  1  0  0  0  0
 52119  1  0  0  0  0
 52120  1  0  0  0  0
 53121  1  0  0  0  0
 53122  1  0  0  0  0
 53123  1  0  0  0  0
 54124  1  0  0  0  0
 54125  1  0  0  0  0
 54126  1  0  0  0  0
 55127  1  0  0  0  0
 55128  1  0  0  0  0
 55129  1  0  0  0  0
 56130  1  0  0  0  0
 56131  1  0  0  0  0
 56132  1  0  0  0  0
 57 60  1  0  0  0  0
 57 61  1  0  0  0  0
 57 62  1  0  0  0  0
 60 63  1  0  0  0  0
 60133  1  0  0  0  0
 60134  1  0  0  0  0
 61135  1  0  0  0  0
 61136  1  0  0  0  0
 61137  1  0  0  0  0
 62138  1  0  0  0  0
 62139  1  0  0  0  0
 62140  1  0  0  0  0
M  END
> <PUBCHEM_COMPOUND_CID>
500421
> <PUBCHEM_COMPOUND_CANONICALIZED>
1
> <PUBCHEM_CACTVS_COMPLEXITY>
1810
> <PUBCHEM_CACTVS_HBOND_ACCEPTOR>
12
> <PUBCHEM_CACTVS_HBOND_DONOR>
3
> <PUBCHEM_CACTVS_ROTATABLE_BOND>
21
> <PUBCHEM_CACTVS_SUBSKEYS>
AAADcfB8PAAAAAAAAAAAAAAAAAAAAYAAAAAwYMGAAAAAAGDAAAAAGgAACAAADxSggAICCAAABgCIAgDSCAAAAAAgAAAAAAEAAAgABBIAIQACQAAEgAAAIAGI5vgPgAAAAAAAAADAAAYAADAAAQAACAAAAA==
> <PUBCHEM_IUPAC_OPENEYE_NAME>
5-[2-[9-(4-carboxy-3,3-dimethyl-butanoyl)oxy-3a-[(4-carboxy-3,3-dimethyl-butanoyl)oxymethyl]-5a,5b,8,8,11a-pentamethyl-1,2,3,4,5,6,7,7a,9,10,11,11b,12,13,13a,13b-hexadecahydrocyclopenta[a]chrysen-1-yl]allyloxy]-3,3-dimethyl-5-oxo-pentanoic acid
> <PUBCHEM_IUPAC_CAS_NAME>
5-[2-[9-(4-carboxy-3,3-dimethyl-1-oxobutoxy)-3a-[(4-carboxy-3,3-dimethyl-1-oxobutoxy)methyl]-5a,5b,8,8,11a-pentamethyl-1,2,3,4,5,6,7,7a,9,10,11,11b,12,13,13a,13b-hexadecahydrocyclopenta[a]chrysen-1-yl]prop-2-enoxy]-3,3-dimethyl-5-oxopentanoic acid
> <PUBCHEM_IUPAC_NAME_MARKUP>
5-[2-[9-(4-carboxy-3,3-dimethylbutanoyl)oxy-3<I>a</I>-[(4-carboxy-3,3-dimethylbutanoyl)oxymethyl]-5<I>a</I>,5<I>b</I>,8,8,11<I>a</I>-pentamethyl-1,2,3,4,5,6,7,7<I>a</I>,9,10,11,11<I>b</I>,12,13,13<I>a</I>,13<I>b</I>-hexadecahydrocyclopenta[a]chrysen-1-yl]prop-2-enoxy]-3,3-dimethyl-5-oxopentanoic acid
> <PUBCHEM_IUPAC_NAME>
5-[2-[9-(4-carboxy-3,3-dimethylbutanoyl)oxy-3a-[(4-carboxy-3,3-dimethylbutanoyl)oxymethyl]-5a,5b,8,8,11a-pentamethyl-1,2,3,4,5,6,7,7a,9,10,11,11b,12,13,13a,13b-hexadecahydrocyclopenta[a]chrysen-1-yl]prop-2-enoxy]-3,3-dimethyl-5-oxopentanoic acid
> <PUBCHEM_IUPAC_SYSTEMATIC_NAME>
5-[2-[9-(3,3-dimethyl-5-oxidanyl-5-oxidanylidene-pentanoyl)oxy-3a-[(3,3-dimethyl-5-oxidanyl-5-oxidanylidene-pentanoyl)oxymethyl]-5a,5b,8,8,11a-pentamethyl-1,2,3,4,5,6,7,7a,9,10,11,11b,12,13,13a,13b-hexadecahydrocyclopenta[a]chrysen-1-yl]prop-2-enoxy]-3,3-dimethyl-5-oxidanylidene-pentanoic acid
> <PUBCHEM_IUPAC_TRADITIONAL_NAME>
5-[2-[9-(4-carboxy-3,3-dimethyl-butanoyl)oxy-3a-[(4-carboxy-3,3-dimethyl-butanoyl)oxymethyl]-5a,5b,8,8,11a-pentamethyl-1,2,3,4,5,6,7,7a,9,10,11,11b,12,13,13a,13b-hexadecahydrocyclopenta[a]chrysen-1-yl]allyloxy]-5-keto-3,3-dimethyl-valeric acid
> <PUBCHEM_IUPAC_INCHI>
InChI=1S/C51H80O12/c1-31(29-61-40(58)26-44(2,3)23-37(52)53)32-15-20-51(30-62-41(59)27-45(4,5)24-38(54)55)22-21-49(11)33(43(32)51)13-14-35-48(10)18-17-36(47(8,9)34(48)16-19-50(35,49)12)63-42(60)28-46(6,7)25-39(56)57/h32-36,43H,1,13-30H2,2-12H3,(H,52,53)(H,54,55)(H,56,57)
> <PUBCHEM_IUPAC_INCHIKEY>
FYTMAXUJTXOSKV-UHFFFAOYSA-N
> <PUBCHEM_XLOGP3_AA>
10.6
> <PUBCHEM_EXACT_MASS>
884.56497798
> <PUBCHEM_MOLECULAR_FORMULA>
C51H80O12
> <PUBCHEM_MOLECULAR_WEIGHT>
885.2
> <PUBCHEM_OPENEYE_CAN_SMILES>
CC1(C2CCC3(C(C2(CCC1OC(=O)CC(C)(C)CC(=O)O)C)CCC4C3(CCC5(C4C(CC5)C(=C)COC(=O)CC(C)(C)CC(=O)O)COC(=O)CC(C)(C)CC(=O)O)C)C)C
> <PUBCHEM_OPENEYE_ISO_SMILES>
CC1(C2CCC3(C(C2(CCC1OC(=O)CC(C)(C)CC(=O)O)C)CCC4C3(CCC5(C4C(CC5)C(=C)COC(=O)CC(C)(C)CC(=O)O)COC(=O)CC(C)(C)CC(=O)O)C)C)C
> <PUBCHEM_CACTVS_TPSA>
191
> <PUBCHEM_MONOISOTOPIC_WEIGHT>
884.56497798
> <PUBCHEM_TOTAL_CHARGE>
0
> <PUBCHEM_HEAVY_ATOM_COUNT>
63
> <PUBCHEM_ATOM_DEF_STEREO_COUNT>
0
> <PUBCHEM_ATOM_UDEF_STEREO_COUNT>
10
> <PUBCHEM_BOND_DEF_STEREO_COUNT>
0
> <PUBCHEM_BOND_UDEF_STEREO_COUNT>
0
> <PUBCHEM_ISOTOPIC_ATOM_COUNT>
0
> <PUBCHEM_COMPONENT_COUNT>
1
> <PUBCHEM_CACTVS_TAUTO_COUNT>
-1
> <PUBCHEM_COORDINATE_TYPE>
1
5
255
> <PUBCHEM_BONDANNOTATIONS>
35  1  3
13  31  3
14  32  3
15  23  3
16  24  3
17  34  3
18  27  3
19  36  3
20  26  3
27  38  3
$$$$
