500455
  -OEChem-10302200282D
 92 95  0     1  0  0  0  0  0999 V2000
   11.5835   -2.2949    0.0000 O   0  0  0  0  0  0  0  0  0  0  0  0
   10.6385   -1.8334    0.0000 O   0  0  0  0  0  0  0  0  0  0  0  0
   11.3657    0.7733    0.0000 O   0  0  0  0  0  0  0  0  0  0  0  0
   12.5702   -3.7185    0.0000 O   0  0  0  0  0  0  0  0  0  0  0  0
   12.4676    3.8612    0.0000 O   0  0  0  0  0  0  0  0  0  0  0  0
   15.5608    2.4924    0.0000 O   0  0  0  0  0  0  0  0  0  0  0  0
    9.6683   -0.3986    0.0000 O   0  0  0  0  0  0  0  0  0  0  0  0
   17.2159    1.9819    0.0000 O   0  0  0  0  0  0  0  0  0  0  0  0
   13.2614   -1.1319    0.0000 C   0  0  1  0  0  0  0  0  0  0  0  0
   12.4053   -1.7253    0.0000 C   0  0  1  0  0  0  0  0  0  0  0  0
   13.3476   -2.1704    0.0000 C   0  0  0  0  0  0  0  0  0  0  0  0
   13.1676   -0.0945    0.0000 C   0  0  1  0  0  0  0  0  0  0  0  0
   11.4669   -1.2733    0.0000 C   0  0  1  0  0  0  0  0  0  0  0  0
   12.2666    0.3394    0.0000 C   0  0  1  0  0  0  0  0  0  0  0  0
   11.3970   -0.2340    0.0000 C   0  0  2  0  0  0  0  0  0  0  0  0
   14.3442   -2.0880    0.0000 C   0  0  0  0  0  0  0  0  0  0  0  0
   12.9207   -3.0747    0.0000 C   0  0  0  0  0  0  0  0  0  0  0  0
   12.0441    1.3143    0.0000 C   0  0  1  0  0  0  0  0  0  0  0  0
   14.0686    0.3394    0.0000 C   0  0  0  0  0  0  0  0  0  0  0  0
   12.6676    2.0962    0.0000 C   0  0  1  0  0  0  0  0  0  0  0  0
   10.3990   -0.2972    0.0000 C   0  0  0  0  0  0  0  0  0  0  0  0
   14.2911    1.3143    0.0000 C   0  0  0  0  0  0  0  0  0  0  0  0
   13.6676    2.0962    0.0000 C   0  0  0  0  0  0  0  0  0  0  0  0
   11.1143    1.6660    0.0000 C   0  0  0  0  0  0  0  0  0  0  0  0
   11.6659   -3.2915    0.0000 C   0  0  0  0  0  0  0  0  0  0  0  0
   12.1178    2.9244    0.0000 C   0  0  0  0  0  0  0  0  0  0  0  0
   11.1598    2.6591    0.0000 C   0  0  0  0  0  0  0  0  0  0  0  0
    9.7392   -1.3961    0.0000 C   0  0  0  0  0  0  0  0  0  0  0  0
   15.2660    1.5368    0.0000 C   0  0  0  0  0  0  0  0  0  0  0  0
   10.8440   -3.8612    0.0000 C   0  0  0  0  0  0  0  0  0  0  0  0
   10.3779    3.2826    0.0000 C   0  0  0  0  0  0  0  0  0  0  0  0
    8.9108   -1.9562    0.0000 C   0  0  0  0  0  0  0  0  0  0  0  0
    8.0115   -1.5189    0.0000 C   0  0  0  0  0  0  0  0  0  0  0  0
   16.5357    2.7149    0.0000 C   0  0  0  0  0  0  0  0  0  0  0  0
    7.1831   -2.0790    0.0000 C   0  0  0  0  0  0  0  0  0  0  0  0
    6.2838   -1.6416    0.0000 C   0  0  0  0  0  0  0  0  0  0  0  0
   16.8304    3.6705    0.0000 C   0  0  0  0  0  0  0  0  0  0  0  0
    5.4554   -2.2018    0.0000 C   0  0  0  0  0  0  0  0  0  0  0  0
    4.5561   -1.7644    0.0000 C   0  0  0  0  0  0  0  0  0  0  0  0
    3.7277   -2.3246    0.0000 C   0  0  0  0  0  0  0  0  0  0  0  0
    2.8284   -1.8872    0.0000 C   0  0  0  0  0  0  0  0  0  0  0  0
    2.0000   -2.4473    0.0000 C   0  0  0  0  0  0  0  0  0  0  0  0
   14.1083   -1.0584    0.0000 H   0  0  0  0  0  0  0  0  0  0  0  0
   13.9070   -0.5138    0.0000 H   0  0  0  0  0  0  0  0  0  0  0  0
   10.9098   -1.0011    0.0000 H   0  0  0  0  0  0  0  0  0  0  0  0
   11.2002    0.3539    0.0000 H   0  0  0  0  0  0  0  0  0  0  0  0
   14.3953   -2.7059    0.0000 H   0  0  0  0  0  0  0  0  0  0  0  0
   14.9621   -2.0369    0.0000 H   0  0  0  0  0  0  0  0  0  0  0  0
   14.2931   -1.4701    0.0000 H   0  0  0  0  0  0  0  0  0  0  0  0
   12.3600   -2.8100    0.0000 H   0  0  0  0  0  0  0  0  0  0  0  0
   12.6560   -3.6354    0.0000 H   0  0  0  0  0  0  0  0  0  0  0  0
   13.4813   -3.3394    0.0000 H   0  0  0  0  0  0  0  0  0  0  0  0
   12.8728    1.1252    0.0000 H   0  0  0  0  0  0  0  0  0  0  0  0
   14.5533   -0.0472    0.0000 H   0  0  0  0  0  0  0  0  0  0  0  0
   13.0694    2.8452    0.0000 H   0  0  0  0  0  0  0  0  0  0  0  0
   10.3599    0.3215    0.0000 H   0  0  0  0  0  0  0  0  0  0  0  0
    9.7803   -0.3364    0.0000 H   0  0  0  0  0  0  0  0  0  0  0  0
   10.4382   -0.9160    0.0000 H   0  0  0  0  0  0  0  0  0  0  0  0
   10.7474    0.7270    0.0000 H   0  0  0  0  0  0  0  0  0  0  0  0
   14.2262    2.3652    0.0000 H   0  0  0  0  0  0  0  0  0  0  0  0
   13.5296    2.7006    0.0000 H   0  0  0  0  0  0  0  0  0  0  0  0
   10.5963    1.3254    0.0000 H   0  0  0  0  0  0  0  0  0  0  0  0
   15.2969    0.9176    0.0000 H   0  0  0  0  0  0  0  0  0  0  0  0
   15.8812    1.4598    0.0000 H   0  0  0  0  0  0  0  0  0  0  0  0
   10.4908   -3.3516    0.0000 H   0  0  0  0  0  0  0  0  0  0  0  0
   10.3345   -4.2144    0.0000 H   0  0  0  0  0  0  0  0  0  0  0  0
   11.1972   -4.3708    0.0000 H   0  0  0  0  0  0  0  0  0  0  0  0
   10.7645    3.7673    0.0000 H   0  0  0  0  0  0  0  0  0  0  0  0
    9.8932    3.6691    0.0000 H   0  0  0  0  0  0  0  0  0  0  0  0
    9.9914    2.7978    0.0000 H   0  0  0  0  0  0  0  0  0  0  0  0
    8.5469   -2.4582    0.0000 H   0  0  0  0  0  0  0  0  0  0  0  0
    9.3420   -2.4017    0.0000 H   0  0  0  0  0  0  0  0  0  0  0  0
    8.3753   -1.0169    0.0000 H   0  0  0  0  0  0  0  0  0  0  0  0
    7.5803   -1.0734    0.0000 H   0  0  0  0  0  0  0  0  0  0  0  0
    6.8192   -2.5810    0.0000 H   0  0  0  0  0  0  0  0  0  0  0  0
    7.6143   -2.5245    0.0000 H   0  0  0  0  0  0  0  0  0  0  0  0
    6.6476   -1.1396    0.0000 H   0  0  0  0  0  0  0  0  0  0  0  0
    5.8526   -1.1962    0.0000 H   0  0  0  0  0  0  0  0  0  0  0  0
   17.4229    3.4878    0.0000 H   0  0  0  0  0  0  0  0  0  0  0  0
   17.0132    4.2630    0.0000 H   0  0  0  0  0  0  0  0  0  0  0  0
   16.2380    3.8533    0.0000 H   0  0  0  0  0  0  0  0  0  0  0  0
    5.0915   -2.7038    0.0000 H   0  0  0  0  0  0  0  0  0  0  0  0
    5.8866   -2.6473    0.0000 H   0  0  0  0  0  0  0  0  0  0  0  0
    4.9200   -1.2624    0.0000 H   0  0  0  0  0  0  0  0  0  0  0  0
    4.1249   -1.3189    0.0000 H   0  0  0  0  0  0  0  0  0  0  0  0
    3.3638   -2.8266    0.0000 H   0  0  0  0  0  0  0  0  0  0  0  0
    4.1589   -2.7701    0.0000 H   0  0  0  0  0  0  0  0  0  0  0  0
    3.1923   -1.3852    0.0000 H   0  0  0  0  0  0  0  0  0  0  0  0
    2.3972   -1.4417    0.0000 H   0  0  0  0  0  0  0  0  0  0  0  0
    1.6527   -1.9337    0.0000 H   0  0  0  0  0  0  0  0  0  0  0  0
    1.4864   -2.7946    0.0000 H   0  0  0  0  0  0  0  0  0  0  0  0
    2.3473   -2.9610    0.0000 H   0  0  0  0  0  0  0  0  0  0  0  0
 10  1  1  1  0  0  0
  1 25  1  0  0  0  0
 13  2  1  6  0  0  0
  2 28  1  0  0  0  0
 14  3  1  1  0  0  0
  3 59  1  0  0  0  0
  4 25  2  0  0  0  0
  5 26  2  0  0  0  0
  6 29  1  0  0  0  0
  6 34  1  0  0  0  0
  7 28  2  0  0  0  0
  8 34  2  0  0  0  0
  9 10  1  0  0  0  0
  9 11  1  0  0  0  0
  9 12  1  0  0  0  0
  9 43  1  1  0  0  0
 10 11  1  0  0  0  0
 10 13  1  0  0  0  0
 11 16  1  0  0  0  0
 11 17  1  0  0  0  0
 12 14  1  0  0  0  0
 12 19  1  0  0  0  0
 12 44  1  6  0  0  0
 13 15  1  0  0  0  0
 13 45  1  0  0  0  0
 14 15  1  0  0  0  0
 14 18  1  0  0  0  0
 15 21  1  1  0  0  0
 15 46  1  0  0  0  0
 16 47  1  0  0  0  0
 16 48  1  0  0  0  0
 16 49  1  0  0  0  0
 17 50  1  0  0  0  0
 17 51  1  0  0  0  0
 17 52  1  0  0  0  0
 18 20  1  0  0  0  0
 18 24  1  0  0  0  0
 18 53  1  1  0  0  0
 19 22  2  0  0  0  0
 19 54  1  0  0  0  0
 20 23  1  0  0  0  0
 20 26  1  0  0  0  0
 20 55  1  1  0  0  0
 21 56  1  0  0  0  0
 21 57  1  0  0  0  0
 21 58  1  0  0  0  0
 22 23  1  0  0  0  0
 22 29  1  0  0  0  0
 23 60  1  0  0  0  0
 23 61  1  0  0  0  0
 24 27  2  0  0  0  0
 24 62  1  0  0  0  0
 25 30  1  0  0  0  0
 26 27  1  0  0  0  0
 27 31  1  0  0  0  0
 28 32  1  0  0  0  0
 29 63  1  0  0  0  0
 29 64  1  0  0  0  0
 30 65  1  0  0  0  0
 30 66  1  0  0  0  0
 30 67  1  0  0  0  0
 31 68  1  0  0  0  0
 31 69  1  0  0  0  0
 31 70  1  0  0  0  0
 32 33  1  0  0  0  0
 32 71  1  0  0  0  0
 32 72  1  0  0  0  0
 33 35  1  0  0  0  0
 33 73  1  0  0  0  0
 33 74  1  0  0  0  0
 34 37  1  0  0  0  0
 35 36  1  0  0  0  0
 35 75  1  0  0  0  0
 35 76  1  0  0  0  0
 36 38  1  0  0  0  0
 36 77  1  0  0  0  0
 36 78  1  0  0  0  0
 37 79  1  0  0  0  0
 37 80  1  0  0  0  0
 37 81  1  0  0  0  0
 38 39  1  0  0  0  0
 38 82  1  0  0  0  0
 38 83  1  0  0  0  0
 39 40  1  0  0  0  0
 39 84  1  0  0  0  0
 39 85  1  0  0  0  0
 40 41  1  0  0  0  0
 40 86  1  0  0  0  0
 40 87  1  0  0  0  0
 41 42  1  0  0  0  0
 41 88  1  0  0  0  0
 41 89  1  0  0  0  0
 42 90  1  0  0  0  0
 42 91  1  0  0  0  0
 42 92  1  0  0  0  0
M  END
> <PUBCHEM_COMPOUND_CID>
500455
> <PUBCHEM_COMPOUND_CANONICALIZED>
1
> <PUBCHEM_CACTVS_COMPLEXITY>
1150
> <PUBCHEM_CACTVS_HBOND_ACCEPTOR>
8
> <PUBCHEM_CACTVS_HBOND_DONOR>
1
> <PUBCHEM_CACTVS_ROTATABLE_BOND>
15
> <PUBCHEM_CACTVS_SUBSKEYS>
AAADcfB8PAAAAAAAAAAAAAAAGAAAAQAAAAAwAAAABggAAACAAAAAGgAACAAAD1SggAICCAAABgCIAqDSCAAAAAAgAAAACAEAAEgBBBIAIQACUAAFwAAKIYPK7PyPgAAAAAAAAADCAAYQADCAAAAAAAAAAA==
> <PUBCHEM_IUPAC_OPENEYE_NAME>
[(1R,2R,6R,10S,11R,13S,14R,15R)-13-acetoxy-8-(acetoxymethyl)-1-hydroxy-4,12,12,15-tetramethyl-5-oxo-14-tetracyclo[8.5.0.02,6.011,13]pentadeca-3,8-dienyl] decanoate
> <PUBCHEM_IUPAC_CAS_NAME>
decanoic acid [(1R,2R,6R,10S,11R,13S,14R,15R)-13-acetyloxy-8-(acetyloxymethyl)-1-hydroxy-4,12,12,15-tetramethyl-5-oxo-14-tetracyclo[8.5.0.02,6.011,13]pentadeca-3,8-dienyl] ester
> <PUBCHEM_IUPAC_NAME_MARKUP>
[(1<I>R</I>,2<I>R</I>,6<I>R</I>,10<I>S</I>,11<I>R</I>,13<I>S</I>,14<I>R</I>,15<I>R</I>)-13-acetyloxy-8-(acetyloxymethyl)-1-hydroxy-4,12,12,15-tetramethyl-5-oxo-14-tetracyclo[8.5.0.0<SUP>2,6</SUP>.0<SUP>11,13</SUP>]pentadeca-3,8-dienyl] decanoate
> <PUBCHEM_IUPAC_NAME>
[(1R,2R,6R,10S,11R,13S,14R,15R)-13-acetyloxy-8-(acetyloxymethyl)-1-hydroxy-4,12,12,15-tetramethyl-5-oxo-14-tetracyclo[8.5.0.02,6.011,13]pentadeca-3,8-dienyl] decanoate
> <PUBCHEM_IUPAC_SYSTEMATIC_NAME>
[(1R,2R,6R,10S,11R,13S,14R,15R)-13-acetyloxy-8-(acetyloxymethyl)-4,12,12,15-tetramethyl-1-oxidanyl-5-oxidanylidene-14-tetracyclo[8.5.0.02,6.011,13]pentadeca-3,8-dienyl] decanoate
> <PUBCHEM_IUPAC_TRADITIONAL_NAME>
capric acid [(1R,2R,6R,10S,11R,13S,14R,15R)-13-acetoxy-8-(acetoxymethyl)-1-hydroxy-5-keto-4,12,12,15-tetramethyl-14-tetracyclo[8.5.0.02,6.011,13]pentadeca-3,8-dienyl] ester
> <PUBCHEM_IUPAC_INCHI>
InChI=1S/C34H50O8/c1-8-9-10-11-12-13-14-15-28(37)41-31-21(3)33(39)26-16-20(2)29(38)25(26)17-24(19-40-22(4)35)18-27(33)30-32(6,7)34(30,31)42-23(5)36/h16,18,21,25-27,30-31,39H,8-15,17,19H2,1-7H3/t21-,25-,26-,27+,30-,31-,33+,34-/m1/s1
> <PUBCHEM_IUPAC_INCHIKEY>
IPJQDMZTDPCNES-OJUALFAASA-N
> <PUBCHEM_XLOGP3_AA>
5.7
> <PUBCHEM_EXACT_MASS>
586.35056855
> <PUBCHEM_MOLECULAR_FORMULA>
C34H50O8
> <PUBCHEM_MOLECULAR_WEIGHT>
586.8
> <PUBCHEM_OPENEYE_CAN_SMILES>
CCCCCCCCCC(=O)OC1C(C2(C3C=C(C(=O)C3CC(=CC2C4C1(C4(C)C)OC(=O)C)COC(=O)C)C)O)C
> <PUBCHEM_OPENEYE_ISO_SMILES>
CCCCCCCCCC(=O)O[C@@H]1[C@H]([C@@]2([C@@H]3C=C(C(=O)[C@@H]3CC(=C[C@H]2[C@H]4[C@@]1(C4(C)C)OC(=O)C)COC(=O)C)C)O)C
> <PUBCHEM_CACTVS_TPSA>
116
> <PUBCHEM_MONOISOTOPIC_WEIGHT>
586.35056855
> <PUBCHEM_TOTAL_CHARGE>
0
> <PUBCHEM_HEAVY_ATOM_COUNT>
42
> <PUBCHEM_ATOM_DEF_STEREO_COUNT>
8
> <PUBCHEM_ATOM_UDEF_STEREO_COUNT>
0
> <PUBCHEM_BOND_DEF_STEREO_COUNT>
0
> <PUBCHEM_BOND_UDEF_STEREO_COUNT>
0
> <PUBCHEM_ISOTOPIC_ATOM_COUNT>
0
> <PUBCHEM_COMPONENT_COUNT>
1
> <PUBCHEM_CACTVS_TAUTO_COUNT>
-1
> <PUBCHEM_COORDINATE_TYPE>
1
5
255
> <PUBCHEM_BONDANNOTATIONS>
10  1  5
12  44  6
15  21  5
18  53  5
13  2  6
20  55  5
14  3  5
9  43  5
$$$$
