500411
  -OEChem-10302200282D
124129  0     1  0  0  0  0  0999 V2000
    5.4525   -4.9243    0.0000 Cl  0  0  0  0  0  0  0  0  0  0  0  0
    5.4756    1.0756    0.0000 Cl  0  0  0  0  0  0  0  0  0  0  0  0
    3.7243   -3.9177    0.0000 O   0  0  0  0  0  0  0  0  0  0  0  0
    7.2115    2.0689    0.0000 O   0  0  0  0  0  0  0  0  0  0  0  0
    2.8641   -2.4143    0.0000 O   0  0  0  0  0  0  0  0  0  0  0  0
    8.9436    2.0623    0.0000 O   0  0  0  0  0  0  0  0  0  0  0  0
    3.7359   -0.9177    0.0000 O   0  0  0  0  0  0  0  0  0  0  0  0
    9.8038    0.5589    0.0000 O   0  0  0  0  0  0  0  0  0  0  0  0
    9.7922   -2.4410    0.0000 N   0  0  0  0  0  0  0  0  0  0  0  0
   15.1853    0.6113    0.0000 C   0  0  3  0  0  0  0  0  0  0  0  0
   15.1853   -0.3887    0.0000 C   0  0  3  0  0  0  0  0  0  0  0  0
   14.3193   -0.8887    0.0000 C   0  0  3  0  0  0  0  0  0  0  0  0
   13.4533   -0.3887    0.0000 C   0  0  3  0  0  0  0  0  0  0  0  0
   12.5433   -0.8956    0.0000 C   0  0  3  0  0  0  0  0  0  0  0  0
   16.1315    0.9160    0.0000 C   0  0  3  0  0  0  0  0  0  0  0  0
   12.5352   -1.9372    0.0000 C   0  0  3  0  0  0  0  0  0  0  0  0
   14.3193    1.1113    0.0000 C   0  0  0  0  0  0  0  0  0  0  0  0
   13.4533    0.6113    0.0000 C   0  0  0  0  0  0  0  0  0  0  0  0
   16.1315   -0.6934    0.0000 C   0  0  0  0  0  0  0  0  0  0  0  0
   14.3354   -1.9302    0.0000 C   0  0  0  0  0  0  0  0  0  0  0  0
   16.7152    0.1113    0.0000 C   0  0  0  0  0  0  0  0  0  0  0  0
   13.4373   -2.4580    0.0000 C   0  0  0  0  0  0  0  0  0  0  0  0
   11.6164   -0.3315    0.0000 C   0  0  0  0  0  0  0  0  0  0  0  0
   15.1853    1.6113    0.0000 C   0  0  0  0  0  0  0  0  0  0  0  0
   11.5998   -2.4869    0.0000 C   0  0  0  0  0  0  0  0  0  0  0  0
   16.4422    1.8666    0.0000 C   0  0  3  0  0  0  0  0  0  0  0  0
   12.5510    0.1044    0.0000 C   0  0  0  0  0  0  0  0  0  0  0  0
   10.6686   -0.8594    0.0000 C   0  0  0  0  0  0  0  0  0  0  0  0
   10.6602   -1.9444    0.0000 C   0  0  3  0  0  0  0  0  0  0  0  0
   17.4207    2.0728    0.0000 C   0  0  0  0  0  0  0  0  0  0  0  0
   15.7744    2.6108    0.0000 C   0  0  0  0  0  0  0  0  0  0  0  0
   17.7314    3.0233    0.0000 C   0  0  0  0  0  0  0  0  0  0  0  0
    8.9282   -1.9377    0.0000 C   0  0  0  0  0  0  0  0  0  0  0  0
   18.7099    3.2295    0.0000 C   0  0  0  0  0  0  0  0  0  0  0  0
   19.0205    4.1800    0.0000 C   0  0  0  0  0  0  0  0  0  0  0  0
    8.0602   -2.4344    0.0000 C   0  0  0  0  0  0  0  0  0  0  0  0
   19.9991    4.3862    0.0000 C   0  0  0  0  0  0  0  0  0  0  0  0
   18.3527    4.9243    0.0000 C   0  0  0  0  0  0  0  0  0  0  0  0
    7.1961   -1.9310    0.0000 C   0  0  0  0  0  0  0  0  0  0  0  0
    6.3282   -2.4277    0.0000 C   0  0  0  0  0  0  0  0  0  0  0  0
    7.2000   -0.9310    0.0000 C   0  0  0  0  0  0  0  0  0  0  0  0
    5.4641   -1.9244    0.0000 C   0  0  0  0  0  0  0  0  0  0  0  0
    8.0679   -0.4344    0.0000 C   0  0  0  0  0  0  0  0  0  0  0  0
    6.3243   -3.4277    0.0000 C   0  0  0  0  0  0  0  0  0  0  0  0
    6.3359   -0.4277    0.0000 C   0  0  0  0  0  0  0  0  0  0  0  0
    4.5961   -2.4210    0.0000 C   0  0  0  0  0  0  0  0  0  0  0  0
    8.0718    0.5656    0.0000 C   0  0  0  0  0  0  0  0  0  0  0  0
    5.4564   -3.9243    0.0000 C   0  0  0  0  0  0  0  0  0  0  0  0
    6.3397    0.5723    0.0000 C   0  0  0  0  0  0  0  0  0  0  0  0
    4.5923   -3.4210    0.0000 C   0  0  0  0  0  0  0  0  0  0  0  0
    7.2077    1.0690    0.0000 C   0  0  0  0  0  0  0  0  0  0  0  0
    3.7320   -1.9177    0.0000 C   0  0  0  0  0  0  0  0  0  0  0  0
    8.9397    1.0623    0.0000 C   0  0  0  0  0  0  0  0  0  0  0  0
    3.7205   -4.9176    0.0000 C   0  0  0  0  0  0  0  0  0  0  0  0
    6.3474    2.5723    0.0000 C   0  0  0  0  0  0  0  0  0  0  0  0
    2.0000   -1.9110    0.0000 C   0  0  0  0  0  0  0  0  0  0  0  0
    9.8115    2.5589    0.0000 C   0  0  0  0  0  0  0  0  0  0  0  0
   15.2509   -1.0052    0.0000 H   0  0  0  0  0  0  0  0  0  0  0  0
   14.8586   -1.1946    0.0000 H   0  0  0  0  0  0  0  0  0  0  0  0
   13.9902   -0.0787    0.0000 H   0  0  0  0  0  0  0  0  0  0  0  0
   16.7440    1.0122    0.0000 H   0  0  0  0  0  0  0  0  0  0  0  0
   12.5376   -2.5572    0.0000 H   0  0  0  0  0  0  0  0  0  0  0  0
   14.7178    1.5862    0.0000 H   0  0  0  0  0  0  0  0  0  0  0  0
   13.9208    1.5862    0.0000 H   0  0  0  0  0  0  0  0  0  0  0  0
   13.2412    1.1939    0.0000 H   0  0  0  0  0  0  0  0  0  0  0  0
   12.8427    0.5036    0.0000 H   0  0  0  0  0  0  0  0  0  0  0  0
   15.8805   -1.2603    0.0000 H   0  0  0  0  0  0  0  0  0  0  0  0
   16.6689   -1.0027    0.0000 H   0  0  0  0  0  0  0  0  0  0  0  0
   14.5534   -2.5106    0.0000 H   0  0  0  0  0  0  0  0  0  0  0  0
   14.9445   -1.8147    0.0000 H   0  0  0  0  0  0  0  0  0  0  0  0
   17.1760   -0.3034    0.0000 H   0  0  0  0  0  0  0  0  0  0  0  0
   17.1760    0.5260    0.0000 H   0  0  0  0  0  0  0  0  0  0  0  0
   13.0400   -2.9339    0.0000 H   0  0  0  0  0  0  0  0  0  0  0  0
   13.8383   -2.9309    0.0000 H   0  0  0  0  0  0  0  0  0  0  0  0
   12.0246    0.1352    0.0000 H   0  0  0  0  0  0  0  0  0  0  0  0
   11.2265    0.1506    0.0000 H   0  0  0  0  0  0  0  0  0  0  0  0
   15.8053    1.6113    0.0000 H   0  0  0  0  0  0  0  0  0  0  0  0
   15.1853    2.2313    0.0000 H   0  0  0  0  0  0  0  0  0  0  0  0
   14.5653    1.6113    0.0000 H   0  0  0  0  0  0  0  0  0  0  0  0
   11.2025   -2.9628    0.0000 H   0  0  0  0  0  0  0  0  0  0  0  0
   12.0008   -2.9598    0.0000 H   0  0  0  0  0  0  0  0  0  0  0  0
   15.8355    1.7387    0.0000 H   0  0  0  0  0  0  0  0  0  0  0  0
   13.1710    0.0996    0.0000 H   0  0  0  0  0  0  0  0  0  0  0  0
   12.5558    0.7244    0.0000 H   0  0  0  0  0  0  0  0  0  0  0  0
   11.9310    0.1092    0.0000 H   0  0  0  0  0  0  0  0  0  0  0  0
   10.4640   -0.2741    0.0000 H   0  0  0  0  0  0  0  0  0  0  0  0
   10.0569   -0.9608    0.0000 H   0  0  0  0  0  0  0  0  0  0  0  0
   10.6590   -2.5644    0.0000 H   0  0  0  0  0  0  0  0  0  0  0  0
   17.4413    1.4531    0.0000 H   0  0  0  0  0  0  0  0  0  0  0  0
   18.0345    1.9854    0.0000 H   0  0  0  0  0  0  0  0  0  0  0  0
   16.2358    3.0249    0.0000 H   0  0  0  0  0  0  0  0  0  0  0  0
   15.3603    3.0723    0.0000 H   0  0  0  0  0  0  0  0  0  0  0  0
   15.3129    2.1968    0.0000 H   0  0  0  0  0  0  0  0  0  0  0  0
    9.7898   -3.0610    0.0000 H   0  0  0  0  0  0  0  0  0  0  0  0
   17.7108    3.6430    0.0000 H   0  0  0  0  0  0  0  0  0  0  0  0
   17.1176    3.1106    0.0000 H   0  0  0  0  0  0  0  0  0  0  0  0
    9.3285   -1.4643    0.0000 H   0  0  0  0  0  0  0  0  0  0  0  0
    8.5315   -1.4612    0.0000 H   0  0  0  0  0  0  0  0  0  0  0  0
   18.7304    2.6098    0.0000 H   0  0  0  0  0  0  0  0  0  0  0  0
   19.3237    3.1422    0.0000 H   0  0  0  0  0  0  0  0  0  0  0  0
   18.4139    4.0522    0.0000 H   0  0  0  0  0  0  0  0  0  0  0  0
    8.0578   -3.0544    0.0000 H   0  0  0  0  0  0  0  0  0  0  0  0
   20.1269    3.7796    0.0000 H   0  0  0  0  0  0  0  0  0  0  0  0
   20.6057    4.5141    0.0000 H   0  0  0  0  0  0  0  0  0  0  0  0
   19.8712    4.9929    0.0000 H   0  0  0  0  0  0  0  0  0  0  0  0
   18.8142    5.3384    0.0000 H   0  0  0  0  0  0  0  0  0  0  0  0
   17.9386    5.3858    0.0000 H   0  0  0  0  0  0  0  0  0  0  0  0
   17.8912    4.5103    0.0000 H   0  0  0  0  0  0  0  0  0  0  0  0
    5.4665   -1.3043    0.0000 H   0  0  0  0  0  0  0  0  0  0  0  0
    8.6036   -0.7464    0.0000 H   0  0  0  0  0  0  0  0  0  0  0  0
    6.8600   -3.7397    0.0000 H   0  0  0  0  0  0  0  0  0  0  0  0
    5.7978   -0.7356    0.0000 H   0  0  0  0  0  0  0  0  0  0  0  0
    3.1005   -4.9153    0.0000 H   0  0  0  0  0  0  0  0  0  0  0  0
    3.7181   -5.5376    0.0000 H   0  0  0  0  0  0  0  0  0  0  0  0
    4.3405   -4.9200    0.0000 H   0  0  0  0  0  0  0  0  0  0  0  0
    6.6595    3.1080    0.0000 H   0  0  0  0  0  0  0  0  0  0  0  0
    5.8117    2.8844    0.0000 H   0  0  0  0  0  0  0  0  0  0  0  0
    6.0354    2.0365    0.0000 H   0  0  0  0  0  0  0  0  0  0  0  0
    2.3121   -1.3753    0.0000 H   0  0  0  0  0  0  0  0  0  0  0  0
    1.4643   -1.5989    0.0000 H   0  0  0  0  0  0  0  0  0  0  0  0
    1.6879   -2.4467    0.0000 H   0  0  0  0  0  0  0  0  0  0  0  0
   10.1194    2.0208    0.0000 H   0  0  0  0  0  0  0  0  0  0  0  0
   10.3496    2.8668    0.0000 H   0  0  0  0  0  0  0  0  0  0  0  0
    9.5036    3.0970    0.0000 H   0  0  0  0  0  0  0  0  0  0  0  0
  1 48  1  0  0  0  0
  2 49  1  0  0  0  0
  3 50  1  0  0  0  0
  3 54  1  0  0  0  0
  4 51  1  0  0  0  0
  4 55  1  0  0  0  0
  5 52  1  0  0  0  0
  5 56  1  0  0  0  0
  6 53  1  0  0  0  0
  6 57  1  0  0  0  0
  7 52  2  0  0  0  0
  8 53  2  0  0  0  0
  9 29  1  0  0  0  0
  9 33  1  0  0  0  0
  9 94  1  0  0  0  0
 10 11  1  0  0  0  0
 10 15  1  0  0  0  0
 10 17  1  0  0  0  0
 10 24  1  0  0  0  0
 11 12  1  0  0  0  0
 11 19  1  0  0  0  0
 11 58  1  0  0  0  0
 12 13  1  0  0  0  0
 12 20  1  0  0  0  0
 12 59  1  0  0  0  0
 13 14  1  0  0  0  0
 13 18  1  0  0  0  0
 13 60  1  0  0  0  0
 14 16  1  0  0  0  0
 14 23  1  0  0  0  0
 14 27  1  0  0  0  0
 15 21  1  0  0  0  0
 15 26  1  0  0  0  0
 15 61  1  0  0  0  0
 16 22  1  0  0  0  0
 16 25  1  0  0  0  0
 16 62  1  0  0  0  0
 17 18  1  0  0  0  0
 17 63  1  0  0  0  0
 17 64  1  0  0  0  0
 18 65  1  0  0  0  0
 18 66  1  0  0  0  0
 19 21  1  0  0  0  0
 19 67  1  0  0  0  0
 19 68  1  0  0  0  0
 20 22  1  0  0  0  0
 20 69  1  0  0  0  0
 20 70  1  0  0  0  0
 21 71  1  0  0  0  0
 21 72  1  0  0  0  0
 22 73  1  0  0  0  0
 22 74  1  0  0  0  0
 23 28  1  0  0  0  0
 23 75  1  0  0  0  0
 23 76  1  0  0  0  0
 24 77  1  0  0  0  0
 24 78  1  0  0  0  0
 24 79  1  0  0  0  0
 25 29  1  0  0  0  0
 25 80  1  0  0  0  0
 25 81  1  0  0  0  0
 26 30  1  0  0  0  0
 26 31  1  0  0  0  0
 26 82  1  0  0  0  0
 27 83  1  0  0  0  0
 27 84  1  0  0  0  0
 27 85  1  0  0  0  0
 28 29  1  0  0  0  0
 28 86  1  0  0  0  0
 28 87  1  0  0  0  0
 29 88  1  0  0  0  0
 30 32  1  0  0  0  0
 30 89  1  0  0  0  0
 30 90  1  0  0  0  0
 31 91  1  0  0  0  0
 31 92  1  0  0  0  0
 31 93  1  0  0  0  0
 32 34  1  0  0  0  0
 32 95  1  0  0  0  0
 32 96  1  0  0  0  0
 33 36  1  0  0  0  0
 33 97  1  0  0  0  0
 33 98  1  0  0  0  0
 34 35  1  0  0  0  0
 34 99  1  0  0  0  0
 34100  1  0  0  0  0
 35 37  1  0  0  0  0
 35 38  1  0  0  0  0
 35101  1  0  0  0  0
 36 39  2  0  0  0  0
 36102  1  0  0  0  0
 37103  1  0  0  0  0
 37104  1  0  0  0  0
 37105  1  0  0  0  0
 38106  1  0  0  0  0
 38107  1  0  0  0  0
 38108  1  0  0  0  0
 39 40  1  0  0  0  0
 39 41  1  0  0  0  0
 40 42  2  0  0  0  0
 40 44  1  0  0  0  0
 41 43  2  0  0  0  0
 41 45  1  0  0  0  0
 42 46  1  0  0  0  0
 42109  1  0  0  0  0
 43 47  1  0  0  0  0
 43110  1  0  0  0  0
 44 48  2  0  0  0  0
 44111  1  0  0  0  0
 45 49  2  0  0  0  0
 45112  1  0  0  0  0
 46 50  2  0  0  0  0
 46 52  1  0  0  0  0
 47 51  2  0  0  0  0
 47 53  1  0  0  0  0
 48 50  1  0  0  0  0
 49 51  1  0  0  0  0
 54113  1  0  0  0  0
 54114  1  0  0  0  0
 54115  1  0  0  0  0
 55116  1  0  0  0  0
 55117  1  0  0  0  0
 55118  1  0  0  0  0
 56119  1  0  0  0  0
 56120  1  0  0  0  0
 56121  1  0  0  0  0
 57122  1  0  0  0  0
 57123  1  0  0  0  0
 57124  1  0  0  0  0
M  END
> <PUBCHEM_COMPOUND_CID>
500411
> <PUBCHEM_COMPOUND_CANONICALIZED>
1
> <PUBCHEM_CACTVS_COMPLEXITY>
1340
> <PUBCHEM_CACTVS_HBOND_ACCEPTOR>
7
> <PUBCHEM_CACTVS_HBOND_DONOR>
1
> <PUBCHEM_CACTVS_ROTATABLE_BOND>
16
> <PUBCHEM_CACTVS_SUBSKEYS>
AAADcfB+OAAGAAAAAAAAAAAAAAAAAYAAAAAwYMGDAAAAAGDBQAAAHgIQAAAADy7BmCYyDoLABACIAiDSCACCCAAkJUAAiIEMC8gMJzeFtxqEMWAl8BGIqYeYyOCPoAACIAAICADQAATAADAQAQAACAAAAA==
> <PUBCHEM_IUPAC_OPENEYE_NAME>
methyl 3-chloro-5-[1-(3-chloro-4-methoxy-5-methoxycarbonyl-phenyl)-3-[[17-(1,5-dimethylhexyl)-10,13-dimethyl-2,3,4,5,6,7,8,9,11,12,14,15,16,17-tetradecahydro-1H-cyclopenta[a]phenanthren-3-yl]amino]prop-1-enyl]-2-methoxy-benzoate
> <PUBCHEM_IUPAC_CAS_NAME>
3-chloro-5-[1-(3-chloro-4-methoxy-5-methoxycarbonylphenyl)-3-[[10,13-dimethyl-17-(6-methylheptan-2-yl)-2,3,4,5,6,7,8,9,11,12,14,15,16,17-tetradecahydro-1H-cyclopenta[a]phenanthren-3-yl]amino]prop-1-enyl]-2-methoxybenzoic acid methyl ester
> <PUBCHEM_IUPAC_NAME_MARKUP>
methyl 3-chloro-5-[1-(3-chloro-4-methoxy-5-methoxycarbonylphenyl)-3-[[10,13-dimethyl-17-(6-methylheptan-2-yl)-2,3,4,5,6,7,8,9,11,12,14,15,16,17-tetradecahydro-1<I>H</I>-cyclopenta[a]phenanthren-3-yl]amino]prop-1-enyl]-2-methoxybenzoate
> <PUBCHEM_IUPAC_NAME>
methyl 3-chloro-5-[1-(3-chloro-4-methoxy-5-methoxycarbonylphenyl)-3-[[10,13-dimethyl-17-(6-methylheptan-2-yl)-2,3,4,5,6,7,8,9,11,12,14,15,16,17-tetradecahydro-1H-cyclopenta[a]phenanthren-3-yl]amino]prop-1-enyl]-2-methoxybenzoate
> <PUBCHEM_IUPAC_SYSTEMATIC_NAME>
methyl 3-chloranyl-5-[1-(3-chloranyl-4-methoxy-5-methoxycarbonyl-phenyl)-3-[[10,13-dimethyl-17-(6-methylheptan-2-yl)-2,3,4,5,6,7,8,9,11,12,14,15,16,17-tetradecahydro-1H-cyclopenta[a]phenanthren-3-yl]amino]prop-1-enyl]-2-methoxy-benzoate
> <PUBCHEM_IUPAC_TRADITIONAL_NAME>
5-[1-(3-carbomethoxy-5-chloro-4-methoxy-phenyl)-3-[[17-(1,5-dimethylhexyl)-10,13-dimethyl-2,3,4,5,6,7,8,9,11,12,14,15,16,17-tetradecahydro-1H-cyclopenta[a]phenanthren-3-yl]amino]prop-1-enyl]-3-chloro-2-methoxy-benzoic acid methyl ester
> <PUBCHEM_IUPAC_INCHI>
InChI=1S/C48H67Cl2NO6/c1-28(2)11-10-12-29(3)38-15-16-39-35-14-13-32-27-33(17-20-47(32,4)40(35)18-21-48(38,39)5)51-22-19-34(30-23-36(45(52)56-8)43(54-6)41(49)25-30)31-24-37(46(53)57-9)44(55-7)42(50)26-31/h19,23-26,28-29,32-33,35,38-40,51H,10-18,20-22,27H2,1-9H3
> <PUBCHEM_IUPAC_INCHIKEY>
ZYQXAHJPKLUZIV-UHFFFAOYSA-N
> <PUBCHEM_XLOGP3_AA>
14.5
> <PUBCHEM_EXACT_MASS>
823.4345442
> <PUBCHEM_MOLECULAR_FORMULA>
C48H67Cl2NO6
> <PUBCHEM_MOLECULAR_WEIGHT>
824.9
> <PUBCHEM_OPENEYE_CAN_SMILES>
CC(C)CCCC(C)C1CCC2C1(CCC3C2CCC4C3(CCC(C4)NCC=C(C5=CC(=C(C(=C5)Cl)OC)C(=O)OC)C6=CC(=C(C(=C6)Cl)OC)C(=O)OC)C)C
> <PUBCHEM_OPENEYE_ISO_SMILES>
CC(C)CCCC(C)C1CCC2C1(CCC3C2CCC4C3(CCC(C4)NCC=C(C5=CC(=C(C(=C5)Cl)OC)C(=O)OC)C6=CC(=C(C(=C6)Cl)OC)C(=O)OC)C)C
> <PUBCHEM_CACTVS_TPSA>
83.1
> <PUBCHEM_MONOISOTOPIC_WEIGHT>
823.4345442
> <PUBCHEM_TOTAL_CHARGE>
0
> <PUBCHEM_HEAVY_ATOM_COUNT>
57
> <PUBCHEM_ATOM_DEF_STEREO_COUNT>
0
> <PUBCHEM_ATOM_UDEF_STEREO_COUNT>
9
> <PUBCHEM_BOND_DEF_STEREO_COUNT>
0
> <PUBCHEM_BOND_UDEF_STEREO_COUNT>
0
> <PUBCHEM_ISOTOPIC_ATOM_COUNT>
0
> <PUBCHEM_COMPONENT_COUNT>
1
> <PUBCHEM_CACTVS_TAUTO_COUNT>
-1
> <PUBCHEM_COORDINATE_TYPE>
1
5
255
> <PUBCHEM_BONDANNOTATIONS>
10  24  3
11  19  3
12  20  3
13  18  3
14  27  3
15  21  3
16  22  3
26  31  3
40  42  8
40  44  8
41  43  8
41  45  8
42  46  8
43  47  8
44  48  8
45  49  8
46  50  8
47  51  8
48  50  8
49  51  8
29  9  3
$$$$
