500451
  -OEChem-10302200282D
 90 96  0     1  0  0  0  0  0999 V2000
    7.2095   -2.2949    0.0000 O   0  0  0  0  0  0  0  0  0  0  0  0
    6.2645   -1.8334    0.0000 O   0  0  0  0  0  0  0  0  0  0  0  0
    6.9917    0.7733    0.0000 O   0  0  0  0  0  0  0  0  0  0  0  0
    8.9171    2.8780    0.0000 O   0  0  0  0  0  0  0  0  0  0  0  0
    5.2943   -0.3986    0.0000 O   0  0  0  0  0  0  0  0  0  0  0  0
    8.0936    3.8612    0.0000 O   0  0  0  0  0  0  0  0  0  0  0  0
    8.1962   -3.7185    0.0000 O   0  0  0  0  0  0  0  0  0  0  0  0
   11.5722    0.8038    0.0000 O   0  0  0  0  0  0  0  0  0  0  0  0
   12.8419    1.9819    0.0000 O   0  0  0  0  0  0  0  0  0  0  0  0
    8.0314   -1.7253    0.0000 C   0  0  1  0  0  0  0  0  0  0  0  0
    8.8875   -1.1319    0.0000 C   0  0  1  0  0  0  0  0  0  0  0  0
    8.9736   -2.1704    0.0000 C   0  0  0  0  0  0  0  0  0  0  0  0
    8.7936   -0.0945    0.0000 C   0  0  1  0  0  0  0  0  0  0  0  0
    7.0929   -1.2733    0.0000 C   0  0  1  0  0  0  0  0  0  0  0  0
    7.8927    0.3394    0.0000 C   0  0  1  0  0  0  0  0  0  0  0  0
    7.0231   -0.2340    0.0000 C   0  0  2  0  0  0  0  0  0  0  0  0
    9.9702   -2.0880    0.0000 C   0  0  0  0  0  0  0  0  0  0  0  0
    8.5467   -3.0747    0.0000 C   0  0  0  0  0  0  0  0  0  0  0  0
    7.6702    1.3143    0.0000 C   0  0  1  0  0  0  0  0  0  0  0  0
    9.6946    0.3394    0.0000 C   0  0  0  0  0  0  0  0  0  0  0  0
    8.2936    2.0962    0.0000 C   0  0  2  0  0  0  0  0  0  0  0  0
    6.0251   -0.2972    0.0000 C   0  0  0  0  0  0  0  0  0  0  0  0
    4.5368   -1.9562    0.0000 C   0  0  0  0  0  0  0  0  0  0  0  0
    9.9171    1.3143    0.0000 C   0  0  0  0  0  0  0  0  0  0  0  0
    9.2936    2.0962    0.0000 C   0  0  0  0  0  0  0  0  0  0  0  0
    6.7404    1.6660    0.0000 C   0  0  0  0  0  0  0  0  0  0  0  0
    5.3652   -1.3961    0.0000 C   0  0  0  0  0  0  0  0  0  0  0  0
    3.8054   -3.4602    0.0000 C   0  0  0  0  0  0  0  0  0  0  0  0
    2.5895   -2.4387    0.0000 C   0  0  0  0  0  0  0  0  0  0  0  0
    2.8686   -2.0748    0.0000 C   0  0  0  0  0  0  0  0  0  0  0  0
    4.6052   -2.9193    0.0000 C   0  0  0  0  0  0  0  0  0  0  0  0
    3.4554   -1.8532    0.0000 C   0  0  0  0  0  0  0  0  0  0  0  0
    3.6685   -1.5339    0.0000 C   0  0  0  0  0  0  0  0  0  0  0  0
    2.7018   -3.4560    0.0000 C   0  0  0  0  0  0  0  0  0  0  0  0
    3.0862   -2.9371    0.0000 C   0  0  0  0  0  0  0  0  0  0  0  0
    2.0000   -1.6520    0.0000 C   0  0  0  0  0  0  0  0  0  0  0  0
    7.7438    2.9244    0.0000 C   0  0  0  0  0  0  0  0  0  0  0  0
    7.2919   -3.2915    0.0000 C   0  0  0  0  0  0  0  0  0  0  0  0
    6.7858    2.6591    0.0000 C   0  0  0  0  0  0  0  0  0  0  0  0
   10.8921    1.5368    0.0000 C   0  0  0  0  0  0  0  0  0  0  0  0
    6.4701   -3.8612    0.0000 C   0  0  0  0  0  0  0  0  0  0  0  0
    6.0040    3.2826    0.0000 C   0  0  0  0  0  0  0  0  0  0  0  0
   12.5472    1.0263    0.0000 C   0  0  0  0  0  0  0  0  0  0  0  0
   13.2273    0.2933    0.0000 C   0  0  0  0  0  0  0  0  0  0  0  0
    9.7343   -1.0584    0.0000 H   0  0  0  0  0  0  0  0  0  0  0  0
    9.5330   -0.5138    0.0000 H   0  0  0  0  0  0  0  0  0  0  0  0
    6.5359   -1.0011    0.0000 H   0  0  0  0  0  0  0  0  0  0  0  0
    6.8262    0.3539    0.0000 H   0  0  0  0  0  0  0  0  0  0  0  0
   10.0213   -2.7059    0.0000 H   0  0  0  0  0  0  0  0  0  0  0  0
   10.5881   -2.0369    0.0000 H   0  0  0  0  0  0  0  0  0  0  0  0
    9.9191   -1.4701    0.0000 H   0  0  0  0  0  0  0  0  0  0  0  0
    7.9860   -2.8100    0.0000 H   0  0  0  0  0  0  0  0  0  0  0  0
    8.2820   -3.6354    0.0000 H   0  0  0  0  0  0  0  0  0  0  0  0
    9.1074   -3.3394    0.0000 H   0  0  0  0  0  0  0  0  0  0  0  0
    8.4988    1.1252    0.0000 H   0  0  0  0  0  0  0  0  0  0  0  0
   10.1793   -0.0472    0.0000 H   0  0  0  0  0  0  0  0  0  0  0  0
    5.9859    0.3215    0.0000 H   0  0  0  0  0  0  0  0  0  0  0  0
    5.4063   -0.3364    0.0000 H   0  0  0  0  0  0  0  0  0  0  0  0
    6.0643   -0.9160    0.0000 H   0  0  0  0  0  0  0  0  0  0  0  0
    6.3734    0.7270    0.0000 H   0  0  0  0  0  0  0  0  0  0  0  0
    9.8522    2.3652    0.0000 H   0  0  0  0  0  0  0  0  0  0  0  0
    9.1557    2.7006    0.0000 H   0  0  0  0  0  0  0  0  0  0  0  0
    6.2223    1.3254    0.0000 H   0  0  0  0  0  0  0  0  0  0  0  0
    3.9859   -4.0533    0.0000 H   0  0  0  0  0  0  0  0  0  0  0  0
    2.0129   -2.6667    0.0000 H   0  0  0  0  0  0  0  0  0  0  0  0
    3.4479   -2.2958    0.0000 H   0  0  0  0  0  0  0  0  0  0  0  0
    4.8581   -3.4855    0.0000 H   0  0  0  0  0  0  0  0  0  0  0  0
    5.2067   -2.7687    0.0000 H   0  0  0  0  0  0  0  0  0  0  0  0
    3.6904   -1.2795    0.0000 H   0  0  0  0  0  0  0  0  0  0  0  0
    2.9743   -1.4621    0.0000 H   0  0  0  0  0  0  0  0  0  0  0  0
    4.0324   -1.0319    0.0000 H   0  0  0  0  0  0  0  0  0  0  0  0
    3.2373   -1.0884    0.0000 H   0  0  0  0  0  0  0  0  0  0  0  0
    2.0834   -3.5006    0.0000 H   0  0  0  0  0  0  0  0  0  0  0  0
    2.7229   -4.0756    0.0000 H   0  0  0  0  0  0  0  0  0  0  0  0
    2.8813   -3.5222    0.0000 H   0  0  0  0  0  0  0  0  0  0  0  0
    2.4668   -2.9093    0.0000 H   0  0  0  0  0  0  0  0  0  0  0  0
    2.0543   -1.0343    0.0000 H   0  0  0  0  0  0  0  0  0  0  0  0
    1.4038   -1.8219    0.0000 H   0  0  0  0  0  0  0  0  0  0  0  0
    9.5302    2.7856    0.0000 H   0  0  0  0  0  0  0  0  0  0  0  0
   11.4129    1.8732    0.0000 H   0  0  0  0  0  0  0  0  0  0  0  0
   10.6512    2.1082    0.0000 H   0  0  0  0  0  0  0  0  0  0  0  0
    6.1169   -3.3516    0.0000 H   0  0  0  0  0  0  0  0  0  0  0  0
    5.9605   -4.2144    0.0000 H   0  0  0  0  0  0  0  0  0  0  0  0
    6.8233   -4.3708    0.0000 H   0  0  0  0  0  0  0  0  0  0  0  0
    6.3906    3.7673    0.0000 H   0  0  0  0  0  0  0  0  0  0  0  0
    5.5193    3.6691    0.0000 H   0  0  0  0  0  0  0  0  0  0  0  0
    5.6174    2.7978    0.0000 H   0  0  0  0  0  0  0  0  0  0  0  0
   12.7728   -0.1284    0.0000 H   0  0  0  0  0  0  0  0  0  0  0  0
   13.6490   -0.1612    0.0000 H   0  0  0  0  0  0  0  0  0  0  0  0
   13.6818    0.7150    0.0000 H   0  0  0  0  0  0  0  0  0  0  0  0
 10  1  1  1  0  0  0
  1 38  1  0  0  0  0
 14  2  1  6  0  0  0
  2 27  1  0  0  0  0
 15  3  1  1  0  0  0
  3 60  1  0  0  0  0
 21  4  1  1  0  0  0
  4 79  1  0  0  0  0
  5 27  2  0  0  0  0
  6 37  2  0  0  0  0
  7 38  2  0  0  0  0
  8 40  1  0  0  0  0
  8 43  1  0  0  0  0
  9 43  2  0  0  0  0
 10 11  1  0  0  0  0
 10 12  1  0  0  0  0
 10 14  1  0  0  0  0
 11 12  1  0  0  0  0
 11 13  1  0  0  0  0
 11 45  1  1  0  0  0
 12 17  1  0  0  0  0
 12 18  1  0  0  0  0
 13 15  1  0  0  0  0
 13 20  1  0  0  0  0
 13 46  1  6  0  0  0
 14 16  1  0  0  0  0
 14 47  1  0  0  0  0
 15 16  1  0  0  0  0
 15 19  1  0  0  0  0
 16 22  1  1  0  0  0
 16 48  1  0  0  0  0
 17 49  1  0  0  0  0
 17 50  1  0  0  0  0
 17 51  1  0  0  0  0
 18 52  1  0  0  0  0
 18 53  1  0  0  0  0
 18 54  1  0  0  0  0
 19 21  1  0  0  0  0
 19 26  1  0  0  0  0
 19 55  1  1  0  0  0
 20 24  2  0  0  0  0
 20 56  1  0  0  0  0
 21 25  1  0  0  0  0
 21 37  1  0  0  0  0
 22 57  1  0  0  0  0
 22 58  1  0  0  0  0
 22 59  1  0  0  0  0
 23 27  1  0  0  0  0
 23 31  1  0  0  0  0
 23 32  1  0  0  0  0
 23 33  1  0  0  0  0
 24 25  1  0  0  0  0
 24 40  1  0  0  0  0
 25 61  1  0  0  0  0
 25 62  1  0  0  0  0
 26 39  2  0  0  0  0
 26 63  1  0  0  0  0
 28 31  1  0  0  0  0
 28 34  1  0  0  0  0
 28 35  1  0  0  0  0
 28 64  1  0  0  0  0
 29 32  1  0  0  0  0
 29 34  1  0  0  0  0
 29 36  1  0  0  0  0
 29 65  1  0  0  0  0
 30 33  1  0  0  0  0
 30 35  1  0  0  0  0
 30 36  1  0  0  0  0
 30 66  1  0  0  0  0
 31 67  1  0  0  0  0
 31 68  1  0  0  0  0
 32 69  1  0  0  0  0
 32 70  1  0  0  0  0
 33 71  1  0  0  0  0
 33 72  1  0  0  0  0
 34 73  1  0  0  0  0
 34 74  1  0  0  0  0
 35 75  1  0  0  0  0
 35 76  1  0  0  0  0
 36 77  1  0  0  0  0
 36 78  1  0  0  0  0
 37 39  1  0  0  0  0
 38 41  1  0  0  0  0
 39 42  1  0  0  0  0
 40 80  1  0  0  0  0
 40 81  1  0  0  0  0
 41 82  1  0  0  0  0
 41 83  1  0  0  0  0
 41 84  1  0  0  0  0
 42 85  1  0  0  0  0
 42 86  1  0  0  0  0
 42 87  1  0  0  0  0
 43 44  1  0  0  0  0
 44 88  1  0  0  0  0
 44 89  1  0  0  0  0
 44 90  1  0  0  0  0
M  END
> <PUBCHEM_COMPOUND_CID>
500451
> <PUBCHEM_COMPOUND_CANONICALIZED>
1
> <PUBCHEM_CACTVS_COMPLEXITY>
1360
> <PUBCHEM_CACTVS_HBOND_ACCEPTOR>
9
> <PUBCHEM_CACTVS_HBOND_DONOR>
2
> <PUBCHEM_CACTVS_ROTATABLE_BOND>
8
> <PUBCHEM_CACTVS_SUBSKEYS>
AAADcfB8PAAAAAAAAAAAAAAAGAAAAQAAAAAwYMGDBggAAACAAAAAGgAACAAAD1SggAICCAAABgCIAqDSCAIAAAAgAAAACAFAAEgBBBIAIQACUAAFwAAKIYPK7PyPgAAAAAAAAADCAAYQADCAAAAAAAAAAA==
> <PUBCHEM_IUPAC_OPENEYE_NAME>
[(1S,2S,6S,10S,11R,13S,14R,15R)-13-acetoxy-8-(acetoxymethyl)-1,6-dihydroxy-4,12,12,15-tetramethyl-5-oxo-14-tetracyclo[8.5.0.02,6.011,13]pentadeca-3,8-dienyl] adamantane-1-carboxylate
> <PUBCHEM_IUPAC_CAS_NAME>
1-adamantanecarboxylic acid [(1S,2S,6S,10S,11R,13S,14R,15R)-13-acetyloxy-8-(acetyloxymethyl)-1,6-dihydroxy-4,12,12,15-tetramethyl-5-oxo-14-tetracyclo[8.5.0.02,6.011,13]pentadeca-3,8-dienyl] ester
> <PUBCHEM_IUPAC_NAME_MARKUP>
[(1<I>S</I>,2<I>S</I>,6<I>S</I>,10<I>S</I>,11<I>R</I>,13<I>S</I>,14<I>R</I>,15<I>R</I>)-13-acetyloxy-8-(acetyloxymethyl)-1,6-dihydroxy-4,12,12,15-tetramethyl-5-oxo-14-tetracyclo[8.5.0.0<SUP>2,6</SUP>.0<SUP>11,13</SUP>]pentadeca-3,8-dienyl] adamantane-1-carboxylate
> <PUBCHEM_IUPAC_NAME>
[(1S,2S,6S,10S,11R,13S,14R,15R)-13-acetyloxy-8-(acetyloxymethyl)-1,6-dihydroxy-4,12,12,15-tetramethyl-5-oxo-14-tetracyclo[8.5.0.02,6.011,13]pentadeca-3,8-dienyl] adamantane-1-carboxylate
> <PUBCHEM_IUPAC_SYSTEMATIC_NAME>
[(1S,2S,6S,10S,11R,13S,14R,15R)-13-acetyloxy-8-(acetyloxymethyl)-4,12,12,15-tetramethyl-1,6-bis(oxidanyl)-5-oxidanylidene-14-tetracyclo[8.5.0.02,6.011,13]pentadeca-3,8-dienyl] adamantane-1-carboxylate
> <PUBCHEM_IUPAC_TRADITIONAL_NAME>
adamantane-1-carboxylic acid [(1S,2S,6S,10S,11R,13S,14R,15R)-13-acetoxy-8-(acetoxymethyl)-1,6-dihydroxy-5-keto-4,12,12,15-tetramethyl-14-tetracyclo[8.5.0.02,6.011,13]pentadeca-3,8-dienyl] ester
> <PUBCHEM_IUPAC_INCHI>
InChI=1S/C35H46O9/c1-17-7-26-33(40,28(17)38)15-24(16-42-19(3)36)11-25-27-31(5,6)35(27,44-20(4)37)29(18(2)34(25,26)41)43-30(39)32-12-21-8-22(13-32)10-23(9-21)14-32/h7,11,18,21-23,25-27,29,40-41H,8-10,12-16H2,1-6H3/t18-,21?,22?,23?,25+,26-,27-,29-,32?,33+,34-,35-/m1/s1
> <PUBCHEM_IUPAC_INCHIKEY>
SAJDQWZKJSABMX-RSFFZTLUSA-N
> <PUBCHEM_XLOGP3_AA>
3.5
> <PUBCHEM_EXACT_MASS>
610.31418304
> <PUBCHEM_MOLECULAR_FORMULA>
C35H46O9
> <PUBCHEM_MOLECULAR_WEIGHT>
610.7
> <PUBCHEM_OPENEYE_CAN_SMILES>
CC1C(C2(C(C2(C)C)C3C1(C4C=C(C(=O)C4(CC(=C3)COC(=O)C)O)C)O)OC(=O)C)OC(=O)C56CC7CC(C5)CC(C7)C6
> <PUBCHEM_OPENEYE_ISO_SMILES>
C[C@@H]1[C@H]([C@@]2([C@@H](C2(C)C)[C@H]3[C@]1([C@@H]4C=C(C(=O)[C@@]4(CC(=C3)COC(=O)C)O)C)O)OC(=O)C)OC(=O)C56CC7CC(C5)CC(C7)C6
> <PUBCHEM_CACTVS_TPSA>
136
> <PUBCHEM_MONOISOTOPIC_WEIGHT>
610.31418304
> <PUBCHEM_TOTAL_CHARGE>
0
> <PUBCHEM_HEAVY_ATOM_COUNT>
44
> <PUBCHEM_ATOM_DEF_STEREO_COUNT>
8
> <PUBCHEM_ATOM_UDEF_STEREO_COUNT>
0
> <PUBCHEM_BOND_DEF_STEREO_COUNT>
0
> <PUBCHEM_BOND_UDEF_STEREO_COUNT>
0
> <PUBCHEM_ISOTOPIC_ATOM_COUNT>
0
> <PUBCHEM_COMPONENT_COUNT>
1
> <PUBCHEM_CACTVS_TAUTO_COUNT>
-1
> <PUBCHEM_COORDINATE_TYPE>
1
5
255
> <PUBCHEM_BONDANNOTATIONS>
10  1  5
11  45  5
13  46  6
16  22  5
19  55  5
14  2  6
15  3  5
21  4  5
$$$$
