500458
  -OEChem-10302200282D
 57 57  0     1  0  0  0  0  0999 V2000
    7.6751   -0.3973    0.0000 O   0  0  0  0  0  0  0  0  0  0  0  0
    6.5961   -3.3799    0.0000 O   0  0  0  0  0  0  0  0  0  0  0  0
    7.9973   -2.3618    0.0000 O   0  0  0  0  0  0  0  0  0  0  0  0
    5.9150    2.8815    0.0000 O   0  0  0  0  0  0  0  0  0  0  0  0
    6.7810    1.3815    0.0000 N   0  0  0  0  0  0  0  0  0  0  0  0
    4.1550   -0.3973    0.0000 N   0  0  0  0  0  0  0  0  0  0  0  0
    2.4608   -0.7574    0.0000 N   0  0  0  0  0  0  0  0  0  0  0  0
    3.6197   -2.0446    0.0000 N   0  0  0  0  0  0  0  0  0  0  0  0
    5.9150   -0.1185    0.0000 C   0  0  3  0  0  0  0  0  0  0  0  0
    5.9150    0.8815    0.0000 C   0  0  3  0  0  0  0  0  0  0  0  0
    6.7240   -0.7063    0.0000 C   0  0  3  0  0  0  0  0  0  0  0  0
    5.1060   -0.7063    0.0000 C   0  0  3  0  0  0  0  0  0  0  0  0
    6.4150   -1.6573    0.0000 C   0  0  3  0  0  0  0  0  0  0  0  0
    5.4150   -1.6573    0.0000 C   0  0  0  0  0  0  0  0  0  0  0  0
    5.0490    1.3815    0.0000 C   0  0  0  0  0  0  0  0  0  0  0  0
    5.0490    2.3815    0.0000 C   0  0  0  0  0  0  0  0  0  0  0  0
    4.1830    0.8815    0.0000 C   0  0  0  0  0  0  0  0  0  0  0  0
    7.0028   -2.4664    0.0000 C   0  0  0  0  0  0  0  0  0  0  0  0
    4.1830    2.8815    0.0000 C   0  0  0  0  0  0  0  0  0  0  0  0
    3.3170    1.3815    0.0000 C   0  0  0  0  0  0  0  0  0  0  0  0
    6.7810    2.3815    0.0000 C   0  0  0  0  0  0  0  0  0  0  0  0
    3.4118   -1.0664    0.0000 C   0  0  0  0  0  0  0  0  0  0  0  0
    4.1830    3.8815    0.0000 C   0  0  0  0  0  0  0  0  0  0  0  0
    3.3170    2.3815    0.0000 C   0  0  0  0  0  0  0  0  0  0  0  0
    7.6471    2.8815    0.0000 C   0  0  0  0  0  0  0  0  0  0  0  0
    6.4675    0.1630    0.0000 H   0  0  0  0  0  0  0  0  0  0  0  0
    5.9150    1.5015    0.0000 H   0  0  0  0  0  0  0  0  0  0  0  0
    6.8210   -0.0939    0.0000 H   0  0  0  0  0  0  0  0  0  0  0  0
    4.6676   -1.1447    0.0000 H   0  0  0  0  0  0  0  0  0  0  0  0
    7.0274   -1.5603    0.0000 H   0  0  0  0  0  0  0  0  0  0  0  0
    4.8086   -1.7862    0.0000 H   0  0  0  0  0  0  0  0  0  0  0  0
    5.4798   -2.2740    0.0000 H   0  0  0  0  0  0  0  0  0  0  0  0
    5.0490    0.7615    0.0000 H   0  0  0  0  0  0  0  0  0  0  0  0
    5.6596    2.2738    0.0000 H   0  0  0  0  0  0  0  0  0  0  0  0
    5.2610    2.9641    0.0000 H   0  0  0  0  0  0  0  0  0  0  0  0
    3.7844    0.4066    0.0000 H   0  0  0  0  0  0  0  0  0  0  0  0
    4.5815    0.4066    0.0000 H   0  0  0  0  0  0  0  0  0  0  0  0
    7.3180    1.0715    0.0000 H   0  0  0  0  0  0  0  0  0  0  0  0
    8.1358   -0.8121    0.0000 H   0  0  0  0  0  0  0  0  0  0  0  0
    3.5724    2.9892    0.0000 H   0  0  0  0  0  0  0  0  0  0  0  0
    3.9709    2.2989    0.0000 H   0  0  0  0  0  0  0  0  0  0  0  0
    2.7064    1.4892    0.0000 H   0  0  0  0  0  0  0  0  0  0  0  0
    3.1049    0.7989    0.0000 H   0  0  0  0  0  0  0  0  0  0  0  0
    4.8030    3.8815    0.0000 H   0  0  0  0  0  0  0  0  0  0  0  0
    4.1830    4.5015    0.0000 H   0  0  0  0  0  0  0  0  0  0  0  0
    3.5630    3.8815    0.0000 H   0  0  0  0  0  0  0  0  0  0  0  0
    3.9370    2.3815    0.0000 H   0  0  0  0  0  0  0  0  0  0  0  0
    3.3170    3.0015    0.0000 H   0  0  0  0  0  0  0  0  0  0  0  0
    2.6970    2.3815    0.0000 H   0  0  0  0  0  0  0  0  0  0  0  0
    6.9605   -3.8815    0.0000 H   0  0  0  0  0  0  0  0  0  0  0  0
    7.9571    2.3446    0.0000 H   0  0  0  0  0  0  0  0  0  0  0  0
    8.1840    3.1915    0.0000 H   0  0  0  0  0  0  0  0  0  0  0  0
    7.3371    3.4184    0.0000 H   0  0  0  0  0  0  0  0  0  0  0  0
    2.0000   -1.1722    0.0000 H   0  0  0  0  0  0  0  0  0  0  0  0
    2.3318   -0.1509    0.0000 H   0  0  0  0  0  0  0  0  0  0  0  0
    3.1590   -2.4594    0.0000 H   0  0  0  0  0  0  0  0  0  0  0  0
    4.2094   -2.2361    0.0000 H   0  0  0  0  0  0  0  0  0  0  0  0
  1 11  1  0  0  0  0
  1 39  1  0  0  0  0
  2 18  1  0  0  0  0
  2 50  1  0  0  0  0
  3 18  2  0  0  0  0
  4 21  2  0  0  0  0
  5 10  1  0  0  0  0
  5 21  1  0  0  0  0
  5 38  1  0  0  0  0
  6 12  1  0  0  0  0
  6 22  2  0  0  0  0
  7 22  1  0  0  0  0
  7 54  1  0  0  0  0
  7 55  1  0  0  0  0
  8 22  1  0  0  0  0
  8 56  1  0  0  0  0
  8 57  1  0  0  0  0
  9 10  1  0  0  0  0
  9 11  1  0  0  0  0
  9 12  1  0  0  0  0
  9 26  1  0  0  0  0
 10 15  1  0  0  0  0
 10 27  1  0  0  0  0
 11 13  1  0  0  0  0
 11 28  1  0  0  0  0
 12 14  1  0  0  0  0
 12 29  1  0  0  0  0
 13 14  1  0  0  0  0
 13 18  1  0  0  0  0
 13 30  1  0  0  0  0
 14 31  1  0  0  0  0
 14 32  1  0  0  0  0
 15 16  1  0  0  0  0
 15 17  1  0  0  0  0
 15 33  1  0  0  0  0
 16 19  1  0  0  0  0
 16 34  1  0  0  0  0
 16 35  1  0  0  0  0
 17 20  1  0  0  0  0
 17 36  1  0  0  0  0
 17 37  1  0  0  0  0
 19 23  1  0  0  0  0
 19 40  1  0  0  0  0
 19 41  1  0  0  0  0
 20 24  1  0  0  0  0
 20 42  1  0  0  0  0
 20 43  1  0  0  0  0
 21 25  1  0  0  0  0
 23 44  1  0  0  0  0
 23 45  1  0  0  0  0
 23 46  1  0  0  0  0
 24 47  1  0  0  0  0
 24 48  1  0  0  0  0
 24 49  1  0  0  0  0
 25 51  1  0  0  0  0
 25 52  1  0  0  0  0
 25 53  1  0  0  0  0
M  END
> <PUBCHEM_COMPOUND_CID>
500458
> <PUBCHEM_COMPOUND_CANONICALIZED>
1
> <PUBCHEM_CACTVS_COMPLEXITY>
487
> <PUBCHEM_CACTVS_HBOND_ACCEPTOR>
5
> <PUBCHEM_CACTVS_HBOND_DONOR>
5
> <PUBCHEM_CACTVS_ROTATABLE_BOND>
9
> <PUBCHEM_CACTVS_SUBSKEYS>
AAADcfB7uAAAAAAAAAAAAAAAAAAAAYAAAAAAAAAAAAAAAAAAAAAAHgAQCAAADTzhgAYDCALAAgAoAAGQPAAAAAEAAAAAAIEIAAAAEBYAwAAEQAAHNgCAAAG82fOeAAAAAAAAAAAAAAAAAAAAASEABQAAAA==
> <PUBCHEM_IUPAC_OPENEYE_NAME>
3-(1-acetamido-2-propyl-pentyl)-4-guanidino-2-hydroxy-cyclopentanecarboxylic acid
> <PUBCHEM_IUPAC_CAS_NAME>
3-(1-acetamido-2-propylpentyl)-4-(diaminomethylideneamino)-2-hydroxy-1-cyclopentanecarboxylic acid
> <PUBCHEM_IUPAC_NAME_MARKUP>
3-(1-acetamido-2-propylpentyl)-4-(diaminomethylideneamino)-2-hydroxycyclopentane-1-carboxylic acid
> <PUBCHEM_IUPAC_NAME>
3-(1-acetamido-2-propylpentyl)-4-(diaminomethylideneamino)-2-hydroxycyclopentane-1-carboxylic acid
> <PUBCHEM_IUPAC_SYSTEMATIC_NAME>
3-(1-acetamido-2-propyl-pentyl)-4-[bis(azanyl)methylideneamino]-2-oxidanyl-cyclopentane-1-carboxylic acid
> <PUBCHEM_IUPAC_TRADITIONAL_NAME>
3-(1-acetamido-2-propyl-pentyl)-4-guanidino-2-hydroxy-cyclopentanecarboxylic acid
> <PUBCHEM_IUPAC_INCHI>
InChI=1S/C17H32N4O4/c1-4-6-10(7-5-2)14(20-9(3)22)13-12(21-17(18)19)8-11(15(13)23)16(24)25/h10-15,23H,4-8H2,1-3H3,(H,20,22)(H,24,25)(H4,18,19,21)
> <PUBCHEM_IUPAC_INCHIKEY>
IIZTWIZWLKRAMW-UHFFFAOYSA-N
> <PUBCHEM_XLOGP3_AA>
1.1
> <PUBCHEM_EXACT_MASS>
356.24235551
> <PUBCHEM_MOLECULAR_FORMULA>
C17H32N4O4
> <PUBCHEM_MOLECULAR_WEIGHT>
356.5
> <PUBCHEM_OPENEYE_CAN_SMILES>
CCCC(CCC)C(C1C(CC(C1O)C(=O)O)N=C(N)N)NC(=O)C
> <PUBCHEM_OPENEYE_ISO_SMILES>
CCCC(CCC)C(C1C(CC(C1O)C(=O)O)N=C(N)N)NC(=O)C
> <PUBCHEM_CACTVS_TPSA>
151
> <PUBCHEM_MONOISOTOPIC_WEIGHT>
356.24235551
> <PUBCHEM_TOTAL_CHARGE>
0
> <PUBCHEM_HEAVY_ATOM_COUNT>
25
> <PUBCHEM_ATOM_DEF_STEREO_COUNT>
0
> <PUBCHEM_ATOM_UDEF_STEREO_COUNT>
5
> <PUBCHEM_BOND_DEF_STEREO_COUNT>
0
> <PUBCHEM_BOND_UDEF_STEREO_COUNT>
0
> <PUBCHEM_ISOTOPIC_ATOM_COUNT>
0
> <PUBCHEM_COMPONENT_COUNT>
1
> <PUBCHEM_CACTVS_TAUTO_COUNT>
-1
> <PUBCHEM_COORDINATE_TYPE>
1
5
255
> <PUBCHEM_BONDANNOTATIONS>
11  1  3
10  15  3
13  18  3
12  6  3
9  10  3
$$$$
