500476
  -OEChem-10302200282D
 31 33  0     1  0  0  0  0  0999 V2000
    6.3942   -1.7327    0.0000 O   0  0  0  0  0  0  0  0  0  0  0  0
    2.0000    0.7948    0.0000 N   0  0  0  0  0  0  0  0  0  0  0  0
    7.2602   -0.2327    0.0000 C   0  0  3  0  0  0  0  0  0  0  0  0
    6.3942    0.2673    0.0000 C   0  0  0  0  0  0  0  0  0  0  0  0
    7.2602   -1.2327    0.0000 C   0  0  0  0  0  0  0  0  0  0  0  0
    5.5282   -0.2327    0.0000 C   0  0  0  0  0  0  0  0  0  0  0  0
    8.1263    0.2673    0.0000 C   0  0  0  0  0  0  0  0  0  0  0  0
    5.5282   -1.2327    0.0000 C   0  0  0  0  0  0  0  0  0  0  0  0
    4.6342    0.3020    0.0000 C   0  0  0  0  0  0  0  0  0  0  0  0
    8.9923   -0.2327    0.0000 C   0  0  0  0  0  0  0  0  0  0  0  0
    8.1263    1.2673    0.0000 C   0  0  0  0  0  0  0  0  0  0  0  0
    4.6342   -1.7673    0.0000 C   0  0  0  0  0  0  0  0  0  0  0  0
    3.7282   -0.2119    0.0000 C   0  0  0  0  0  0  0  0  0  0  0  0
    3.7282   -1.2535    0.0000 C   0  0  0  0  0  0  0  0  0  0  0  0
    9.8583    0.2673    0.0000 C   0  0  0  0  0  0  0  0  0  0  0  0
    8.9923    1.7673    0.0000 C   0  0  0  0  0  0  0  0  0  0  0  0
    9.8583    1.2673    0.0000 C   0  0  0  0  0  0  0  0  0  0  0  0
    2.8641    0.2915    0.0000 C   0  0  0  0  0  0  0  0  0  0  0  0
    7.2602    0.3873    0.0000 H   0  0  0  0  0  0  0  0  0  0  0  0
    6.7928    0.7423    0.0000 H   0  0  0  0  0  0  0  0  0  0  0  0
    5.9957    0.7423    0.0000 H   0  0  0  0  0  0  0  0  0  0  0  0
    7.4723   -1.8153    0.0000 H   0  0  0  0  0  0  0  0  0  0  0  0
    7.8708   -1.1250    0.0000 H   0  0  0  0  0  0  0  0  0  0  0  0
    4.6414    0.9220    0.0000 H   0  0  0  0  0  0  0  0  0  0  0  0
    8.9923   -0.8527    0.0000 H   0  0  0  0  0  0  0  0  0  0  0  0
    7.5893    1.5773    0.0000 H   0  0  0  0  0  0  0  0  0  0  0  0
    4.6414   -2.3873    0.0000 H   0  0  0  0  0  0  0  0  0  0  0  0
    3.1924   -1.5656    0.0000 H   0  0  0  0  0  0  0  0  0  0  0  0
   10.3953   -0.0427    0.0000 H   0  0  0  0  0  0  0  0  0  0  0  0
    8.9923    2.3873    0.0000 H   0  0  0  0  0  0  0  0  0  0  0  0
   10.3953    1.5773    0.0000 H   0  0  0  0  0  0  0  0  0  0  0  0
  1  5  1  0  0  0  0
  1  8  1  0  0  0  0
  2 18  3  0  0  0  0
  3  4  1  0  0  0  0
  3  5  1  0  0  0  0
  3  7  1  0  0  0  0
  3 19  1  0  0  0  0
  4  6  1  0  0  0  0
  4 20  1  0  0  0  0
  4 21  1  0  0  0  0
  5 22  1  0  0  0  0
  5 23  1  0  0  0  0
  6  8  2  0  0  0  0
  6  9  1  0  0  0  0
  7 10  2  0  0  0  0
  7 11  1  0  0  0  0
  8 12  1  0  0  0  0
  9 13  2  0  0  0  0
  9 24  1  0  0  0  0
 10 15  1  0  0  0  0
 10 25  1  0  0  0  0
 11 16  2  0  0  0  0
 11 26  1  0  0  0  0
 12 14  2  0  0  0  0
 12 27  1  0  0  0  0
 13 14  1  0  0  0  0
 13 18  1  0  0  0  0
 14 28  1  0  0  0  0
 15 17  2  0  0  0  0
 15 29  1  0  0  0  0
 16 17  1  0  0  0  0
 16 30  1  0  0  0  0
 17 31  1  0  0  0  0
M  END
> <PUBCHEM_COMPOUND_CID>
500476
> <PUBCHEM_COMPOUND_CANONICALIZED>
1
> <PUBCHEM_CACTVS_COMPLEXITY>
325
> <PUBCHEM_CACTVS_HBOND_ACCEPTOR>
2
> <PUBCHEM_CACTVS_HBOND_DONOR>
0
> <PUBCHEM_CACTVS_ROTATABLE_BOND>
1
> <PUBCHEM_CACTVS_SUBSKEYS>
AAADccB6IAAAAAAAAAAAAAAAAAAAAAAAAAA0YIAAAAAAAACRQAAAHgAAAAAADQShmAIwBoAABACQBiBCAAAiCAAgIAAIiAAGCIgMpiKEMRqCOCCkwBEIqA+AwPAOoAACAAAIAABAAAQAABAAAAAAAAAAAA==
> <PUBCHEM_IUPAC_OPENEYE_NAME>
3-phenylchromane-6-carbonitrile
> <PUBCHEM_IUPAC_CAS_NAME>
3-phenyl-3,4-dihydro-2H-1-benzopyran-6-carbonitrile
> <PUBCHEM_IUPAC_NAME_MARKUP>
3-phenyl-3,4-dihydro-2<I>H</I>-chromene-6-carbonitrile
> <PUBCHEM_IUPAC_NAME>
3-phenyl-3,4-dihydro-2H-chromene-6-carbonitrile
> <PUBCHEM_IUPAC_SYSTEMATIC_NAME>
3-phenyl-3,4-dihydro-2H-chromene-6-carbonitrile
> <PUBCHEM_IUPAC_TRADITIONAL_NAME>
3-phenylchroman-6-carbonitrile
> <PUBCHEM_IUPAC_INCHI>
InChI=1S/C16H13NO/c17-10-12-6-7-16-14(8-12)9-15(11-18-16)13-4-2-1-3-5-13/h1-8,15H,9,11H2
> <PUBCHEM_IUPAC_INCHIKEY>
ASPSPMUTJMKLJC-UHFFFAOYSA-N
> <PUBCHEM_XLOGP3_AA>
3.4
> <PUBCHEM_EXACT_MASS>
235.099714038
> <PUBCHEM_MOLECULAR_FORMULA>
C16H13NO
> <PUBCHEM_MOLECULAR_WEIGHT>
235.28
> <PUBCHEM_OPENEYE_CAN_SMILES>
C1C(COC2=C1C=C(C=C2)C#N)C3=CC=CC=C3
> <PUBCHEM_OPENEYE_ISO_SMILES>
C1C(COC2=C1C=C(C=C2)C#N)C3=CC=CC=C3
> <PUBCHEM_CACTVS_TPSA>
33
> <PUBCHEM_MONOISOTOPIC_WEIGHT>
235.099714038
> <PUBCHEM_TOTAL_CHARGE>
0
> <PUBCHEM_HEAVY_ATOM_COUNT>
18
> <PUBCHEM_ATOM_DEF_STEREO_COUNT>
0
> <PUBCHEM_ATOM_UDEF_STEREO_COUNT>
1
> <PUBCHEM_BOND_DEF_STEREO_COUNT>
0
> <PUBCHEM_BOND_UDEF_STEREO_COUNT>
0
> <PUBCHEM_ISOTOPIC_ATOM_COUNT>
0
> <PUBCHEM_COMPONENT_COUNT>
1
> <PUBCHEM_CACTVS_TAUTO_COUNT>
-1
> <PUBCHEM_COORDINATE_TYPE>
1
5
255
> <PUBCHEM_BONDANNOTATIONS>
10  15  8
11  16  8
12  14  8
13  14  8
15  17  8
16  17  8
3  7  3
6  8  8
6  9  8
7  10  8
7  11  8
8  12  8
9  13  8
$$$$
