500415
  -OEChem-10302200282D
122126  0     1  0  0  0  0  0999 V2000
    7.7304   -2.6896    0.0000 O   0  0  0  0  0  0  0  0  0  0  0  0
   16.6555    0.3969    0.0000 O   0  0  0  0  0  0  0  0  0  0  0  0
    6.8702   -1.1862    0.0000 O   0  0  0  0  0  0  0  0  0  0  0  0
   17.5330   -1.0964    0.0000 O   0  0  0  0  0  0  0  0  0  0  0  0
    2.5381   -1.6696    0.0000 O   0  0  0  0  0  0  0  0  0  0  0  0
   21.8592   -0.5630    0.0000 O   0  0  0  0  0  0  0  0  0  0  0  0
    3.3984   -3.1729    0.0000 O   0  0  0  0  0  0  0  0  0  0  0  0
   20.9816    0.9303    0.0000 O   0  0  0  0  0  0  0  0  0  0  0  0
   12.2574   -1.1372    0.0000 C   0  0  3  0  0  0  0  0  0  0  0  0
   13.1235   -0.6372    0.0000 C   0  0  3  0  0  0  0  0  0  0  0  0
   11.3914   -0.6372    0.0000 C   0  0  3  0  0  0  0  0  0  0  0  0
   13.1235    0.3628    0.0000 C   0  0  3  0  0  0  0  0  0  0  0  0
   10.4814   -1.1441    0.0000 C   0  0  3  0  0  0  0  0  0  0  0  0
   14.0174    0.8974    0.0000 C   0  0  3  0  0  0  0  0  0  0  0  0
   14.9235    0.3836    0.0000 C   0  0  3  0  0  0  0  0  0  0  0  0
   10.4734   -2.1857    0.0000 C   0  0  3  0  0  0  0  0  0  0  0  0
   14.0174   -1.1719    0.0000 C   0  0  0  0  0  0  0  0  0  0  0  0
   12.2735   -2.1788    0.0000 C   0  0  0  0  0  0  0  0  0  0  0  0
   11.3914    0.3628    0.0000 C   0  0  0  0  0  0  0  0  0  0  0  0
   12.2574    0.8628    0.0000 C   0  0  0  0  0  0  0  0  0  0  0  0
   14.9235   -0.6581    0.0000 C   0  0  0  0  0  0  0  0  0  0  0  0
   11.3755   -2.7065    0.0000 C   0  0  0  0  0  0  0  0  0  0  0  0
   14.2275    1.9113    0.0000 C   0  0  3  0  0  0  0  0  0  0  0  0
    9.5380   -2.7354    0.0000 C   0  0  0  0  0  0  0  0  0  0  0  0
    9.5546   -0.5800    0.0000 C   0  0  0  0  0  0  0  0  0  0  0  0
   15.6858    1.0843    0.0000 C   0  0  0  0  0  0  0  0  0  0  0  0
   12.9002   -1.9033    0.0000 C   0  0  0  0  0  0  0  0  0  0  0  0
   13.4656   -1.5769    0.0000 C   0  0  0  0  0  0  0  0  0  0  0  0
   15.2565    2.0266    0.0000 C   0  0  0  0  0  0  0  0  0  0  0  0
   10.4891   -0.1441    0.0000 C   0  0  0  0  0  0  0  0  0  0  0  0
    8.5983   -2.1929    0.0000 C   0  0  3  0  0  0  0  0  0  0  0  0
   15.7933   -0.1097    0.0000 C   0  0  0  0  0  0  0  0  0  0  0  0
    8.6067   -1.1080    0.0000 C   0  0  0  0  0  0  0  0  0  0  0  0
   13.5540    2.6505    0.0000 C   0  0  0  0  0  0  0  0  0  0  0  0
    9.0413   -3.6034    0.0000 C   0  0  0  0  0  0  0  0  0  0  0  0
   10.0413   -3.5995    0.0000 C   0  0  0  0  0  0  0  0  0  0  0  0
   13.8573    3.6034    0.0000 C   0  0  0  0  0  0  0  0  0  0  0  0
   12.5771    2.4367    0.0000 C   0  0  0  0  0  0  0  0  0  0  0  0
    6.8663   -2.1862    0.0000 C   0  0  0  0  0  0  0  0  0  0  0  0
   17.5253   -0.0964    0.0000 C   0  0  0  0  0  0  0  0  0  0  0  0
    5.9984   -2.6829    0.0000 C   0  0  0  0  0  0  0  0  0  0  0  0
   18.3875    0.4103    0.0000 C   0  0  0  0  0  0  0  0  0  0  0  0
    5.1343   -2.1796    0.0000 C   0  0  0  0  0  0  0  0  0  0  0  0
   19.2573   -0.0830    0.0000 C   0  0  0  0  0  0  0  0  0  0  0  0
    4.2702   -1.6762    0.0000 C   0  0  0  0  0  0  0  0  0  0  0  0
   20.1272   -0.5763    0.0000 C   0  0  0  0  0  0  0  0  0  0  0  0
    4.6309   -3.0437    0.0000 C   0  0  0  0  0  0  0  0  0  0  0  0
    5.6376   -1.3155    0.0000 C   0  0  0  0  0  0  0  0  0  0  0  0
   19.7506    0.7868    0.0000 C   0  0  0  0  0  0  0  0  0  0  0  0
   18.7640   -0.9529    0.0000 C   0  0  0  0  0  0  0  0  0  0  0  0
    3.4022   -2.1729    0.0000 C   0  0  0  0  0  0  0  0  0  0  0  0
   20.9893   -0.0697    0.0000 C   0  0  0  0  0  0  0  0  0  0  0  0
   11.9284   -0.3272    0.0000 H   0  0  0  0  0  0  0  0  0  0  0  0
   13.1187    0.9827    0.0000 H   0  0  0  0  0  0  0  0  0  0  0  0
   13.5121    1.2567    0.0000 H   0  0  0  0  0  0  0  0  0  0  0  0
   10.4758   -2.8057    0.0000 H   0  0  0  0  0  0  0  0  0  0  0  0
   13.6128   -1.6417    0.0000 H   0  0  0  0  0  0  0  0  0  0  0  0
   14.4110   -1.6509    0.0000 H   0  0  0  0  0  0  0  0  0  0  0  0
   12.4915   -2.7592    0.0000 H   0  0  0  0  0  0  0  0  0  0  0  0
   12.8827   -2.0632    0.0000 H   0  0  0  0  0  0  0  0  0  0  0  0
   11.1794    0.9454    0.0000 H   0  0  0  0  0  0  0  0  0  0  0  0
   10.7808    0.2551    0.0000 H   0  0  0  0  0  0  0  0  0  0  0  0
   12.6560    1.3377    0.0000 H   0  0  0  0  0  0  0  0  0  0  0  0
   11.8589    1.3377    0.0000 H   0  0  0  0  0  0  0  0  0  0  0  0
   15.1325   -1.2418    0.0000 H   0  0  0  0  0  0  0  0  0  0  0  0
   15.5343   -0.5520    0.0000 H   0  0  0  0  0  0  0  0  0  0  0  0
   10.9782   -3.1825    0.0000 H   0  0  0  0  0  0  0  0  0  0  0  0
   11.7764   -3.1794    0.0000 H   0  0  0  0  0  0  0  0  0  0  0  0
   13.6295    1.7476    0.0000 H   0  0  0  0  0  0  0  0  0  0  0  0
    9.9628   -0.1134    0.0000 H   0  0  0  0  0  0  0  0  0  0  0  0
    9.1647   -0.0980    0.0000 H   0  0  0  0  0  0  0  0  0  0  0  0
   16.0551    0.5863    0.0000 H   0  0  0  0  0  0  0  0  0  0  0  0
   16.2199    1.3992    0.0000 H   0  0  0  0  0  0  0  0  0  0  0  0
   12.4253   -2.3018    0.0000 H   0  0  0  0  0  0  0  0  0  0  0  0
   13.2988   -2.3782    0.0000 H   0  0  0  0  0  0  0  0  0  0  0  0
   13.3752   -1.5048    0.0000 H   0  0  0  0  0  0  0  0  0  0  0  0
   12.8830   -1.7890    0.0000 H   0  0  0  0  0  0  0  0  0  0  0  0
   13.6777   -2.1595    0.0000 H   0  0  0  0  0  0  0  0  0  0  0  0
   14.0482   -1.3648    0.0000 H   0  0  0  0  0  0  0  0  0  0  0  0
   15.8446    2.2229    0.0000 H   0  0  0  0  0  0  0  0  0  0  0  0
   15.1231    2.6321    0.0000 H   0  0  0  0  0  0  0  0  0  0  0  0
   11.1091   -0.1489    0.0000 H   0  0  0  0  0  0  0  0  0  0  0  0
   10.4939    0.4759    0.0000 H   0  0  0  0  0  0  0  0  0  0  0  0
    9.8692   -0.1393    0.0000 H   0  0  0  0  0  0  0  0  0  0  0  0
    8.5971   -2.8129    0.0000 H   0  0  0  0  0  0  0  0  0  0  0  0
   15.3985   -0.5877    0.0000 H   0  0  0  0  0  0  0  0  0  0  0  0
   16.1955   -0.5816    0.0000 H   0  0  0  0  0  0  0  0  0  0  0  0
    8.4022   -0.5227    0.0000 H   0  0  0  0  0  0  0  0  0  0  0  0
    7.9950   -1.2093    0.0000 H   0  0  0  0  0  0  0  0  0  0  0  0
    8.5032   -3.2954    0.0000 H   0  0  0  0  0  0  0  0  0  0  0  0
    8.7334   -4.1415    0.0000 H   0  0  0  0  0  0  0  0  0  0  0  0
    9.5794   -3.9113    0.0000 H   0  0  0  0  0  0  0  0  0  0  0  0
    9.5056   -3.9116    0.0000 H   0  0  0  0  0  0  0  0  0  0  0  0
   10.3534   -4.1352    0.0000 H   0  0  0  0  0  0  0  0  0  0  0  0
   10.5770   -3.2874    0.0000 H   0  0  0  0  0  0  0  0  0  0  0  0
   14.4481    3.4153    0.0000 H   0  0  0  0  0  0  0  0  0  0  0  0
   14.0453    4.1941    0.0000 H   0  0  0  0  0  0  0  0  0  0  0  0
   13.2665    3.7914    0.0000 H   0  0  0  0  0  0  0  0  0  0  0  0
   12.1595    2.8950    0.0000 H   0  0  0  0  0  0  0  0  0  0  0  0
   12.3890    1.8459    0.0000 H   0  0  0  0  0  0  0  0  0  0  0  0
    5.5980   -3.1563    0.0000 H   0  0  0  0  0  0  0  0  0  0  0  0
    6.3950   -3.1594    0.0000 H   0  0  0  0  0  0  0  0  0  0  0  0
   18.7823    0.8883    0.0000 H   0  0  0  0  0  0  0  0  0  0  0  0
   17.9853    0.8821    0.0000 H   0  0  0  0  0  0  0  0  0  0  0  0
    4.6705   -1.2028    0.0000 H   0  0  0  0  0  0  0  0  0  0  0  0
    3.8735   -1.1998    0.0000 H   0  0  0  0  0  0  0  0  0  0  0  0
   19.7323   -1.0543    0.0000 H   0  0  0  0  0  0  0  0  0  0  0  0
   20.5294   -1.0482    0.0000 H   0  0  0  0  0  0  0  0  0  0  0  0
    4.0952   -2.7316    0.0000 H   0  0  0  0  0  0  0  0  0  0  0  0
    4.3188   -3.5794    0.0000 H   0  0  0  0  0  0  0  0  0  0  0  0
    5.1667   -3.3557    0.0000 H   0  0  0  0  0  0  0  0  0  0  0  0
    6.1733   -1.6275    0.0000 H   0  0  0  0  0  0  0  0  0  0  0  0
    5.9497   -0.7797    0.0000 H   0  0  0  0  0  0  0  0  0  0  0  0
    5.1018   -1.0034    0.0000 H   0  0  0  0  0  0  0  0  0  0  0  0
   20.2900    0.4810    0.0000 H   0  0  0  0  0  0  0  0  0  0  0  0
   20.0565    1.3261    0.0000 H   0  0  0  0  0  0  0  0  0  0  0  0
   19.2113    1.0927    0.0000 H   0  0  0  0  0  0  0  0  0  0  0  0
   18.2247   -0.6470    0.0000 H   0  0  0  0  0  0  0  0  0  0  0  0
   18.4582   -1.4922    0.0000 H   0  0  0  0  0  0  0  0  0  0  0  0
   19.3033   -1.2587    0.0000 H   0  0  0  0  0  0  0  0  0  0  0  0
    2.0000   -1.9775    0.0000 H   0  0  0  0  0  0  0  0  0  0  0  0
   22.3937   -0.2489    0.0000 H   0  0  0  0  0  0  0  0  0  0  0  0
  1 31  1  0  0  0  0
  1 39  1  0  0  0  0
  2 32  1  0  0  0  0
  2 40  1  0  0  0  0
  3 39  2  0  0  0  0
  4 40  2  0  0  0  0
  5 51  1  0  0  0  0
  5121  1  0  0  0  0
  6 52  1  0  0  0  0
  6122  1  0  0  0  0
  7 51  2  0  0  0  0
  8 52  2  0  0  0  0
  9 10  1  0  0  0  0
  9 11  1  0  0  0  0
  9 18  1  0  0  0  0
  9 27  1  0  0  0  0
 10 12  1  0  0  0  0
 10 17  1  0  0  0  0
 10 28  1  0  0  0  0
 11 13  1  0  0  0  0
 11 19  1  0  0  0  0
 11 53  1  0  0  0  0
 12 14  1  0  0  0  0
 12 20  1  0  0  0  0
 12 54  1  0  0  0  0
 13 16  1  0  0  0  0
 13 25  1  0  0  0  0
 13 30  1  0  0  0  0
 14 15  1  0  0  0  0
 14 23  1  0  0  0  0
 14 55  1  0  0  0  0
 15 21  1  0  0  0  0
 15 26  1  0  0  0  0
 15 32  1  0  0  0  0
 16 22  1  0  0  0  0
 16 24  1  0  0  0  0
 16 56  1  0  0  0  0
 17 21  1  0  0  0  0
 17 57  1  0  0  0  0
 17 58  1  0  0  0  0
 18 22  1  0  0  0  0
 18 59  1  0  0  0  0
 18 60  1  0  0  0  0
 19 20  1  0  0  0  0
 19 61  1  0  0  0  0
 19 62  1  0  0  0  0
 20 63  1  0  0  0  0
 20 64  1  0  0  0  0
 21 65  1  0  0  0  0
 21 66  1  0  0  0  0
 22 67  1  0  0  0  0
 22 68  1  0  0  0  0
 23 29  1  0  0  0  0
 23 34  1  0  0  0  0
 23 69  1  0  0  0  0
 24 31  1  0  0  0  0
 24 35  1  0  0  0  0
 24 36  1  0  0  0  0
 25 33  1  0  0  0  0
 25 70  1  0  0  0  0
 25 71  1  0  0  0  0
 26 29  1  0  0  0  0
 26 72  1  0  0  0  0
 26 73  1  0  0  0  0
 27 74  1  0  0  0  0
 27 75  1  0  0  0  0
 27 76  1  0  0  0  0
 28 77  1  0  0  0  0
 28 78  1  0  0  0  0
 28 79  1  0  0  0  0
 29 80  1  0  0  0  0
 29 81  1  0  0  0  0
 30 82  1  0  0  0  0
 30 83  1  0  0  0  0
 30 84  1  0  0  0  0
 31 33  1  0  0  0  0
 31 85  1  0  0  0  0
 32 86  1  0  0  0  0
 32 87  1  0  0  0  0
 33 88  1  0  0  0  0
 33 89  1  0  0  0  0
 34 37  1  0  0  0  0
 34 38  2  0  0  0  0
 35 90  1  0  0  0  0
 35 91  1  0  0  0  0
 35 92  1  0  0  0  0
 36 93  1  0  0  0  0
 36 94  1  0  0  0  0
 36 95  1  0  0  0  0
 37 96  1  0  0  0  0
 37 97  1  0  0  0  0
 37 98  1  0  0  0  0
 38 99  1  0  0  0  0
 38100  1  0  0  0  0
 39 41  1  0  0  0  0
 40 42  1  0  0  0  0
 41 43  1  0  0  0  0
 41101  1  0  0  0  0
 41102  1  0  0  0  0
 42 44  1  0  0  0  0
 42103  1  0  0  0  0
 42104  1  0  0  0  0
 43 45  1  0  0  0  0
 43 47  1  0  0  0  0
 43 48  1  0  0  0  0
 44 46  1  0  0  0  0
 44 49  1  0  0  0  0
 44 50  1  0  0  0  0
 45 51  1  0  0  0  0
 45105  1  0  0  0  0
 45106  1  0  0  0  0
 46 52  1  0  0  0  0
 46107  1  0  0  0  0
 46108  1  0  0  0  0
 47109  1  0  0  0  0
 47110  1  0  0  0  0
 47111  1  0  0  0  0
 48112  1  0  0  0  0
 48113  1  0  0  0  0
 48114  1  0  0  0  0
 49115  1  0  0  0  0
 49116  1  0  0  0  0
 49117  1  0  0  0  0
 50118  1  0  0  0  0
 50119  1  0  0  0  0
 50120  1  0  0  0  0
M  END
> <PUBCHEM_COMPOUND_CID>
500415
> <PUBCHEM_COMPOUND_CANONICALIZED>
1
> <PUBCHEM_CACTVS_COMPLEXITY>
1440
> <PUBCHEM_CACTVS_HBOND_ACCEPTOR>
8
> <PUBCHEM_CACTVS_HBOND_DONOR>
2
> <PUBCHEM_CACTVS_ROTATABLE_BOND>
14
> <PUBCHEM_CACTVS_SUBSKEYS>
AAADcfB8PAAAAAAAAAAAAAAAAAAAAYAAAAAwYMGAAAAAAGDAAAAAGgAACAAADxSggAICCAAABgCIAgDSCAAAAAAgAAAAAAEAAAgAABIAAQACQAAEgAAAAAGI5vgPgAAAAAAAAADAAAYAADAAAQAACAAAAA==
> <PUBCHEM_IUPAC_OPENEYE_NAME>
5-[[9-(4-carboxy-3,3-dimethyl-butanoyl)oxy-1-isopropenyl-5a,5b,8,8,11a-pentamethyl-1,2,3,4,5,6,7,7a,9,10,11,11b,12,13,13a,13b-hexadecahydrocyclopenta[a]chrysen-3a-yl]methoxy]-3,3-dimethyl-5-oxo-pentanoic acid
> <PUBCHEM_IUPAC_CAS_NAME>
5-[[9-(4-carboxy-3,3-dimethyl-1-oxobutoxy)-5a,5b,8,8,11a-pentamethyl-1-(1-methylethenyl)-1,2,3,4,5,6,7,7a,9,10,11,11b,12,13,13a,13b-hexadecahydrocyclopenta[a]chrysen-3a-yl]methoxy]-3,3-dimethyl-5-oxopentanoic acid
> <PUBCHEM_IUPAC_NAME_MARKUP>
5-[[9-(4-carboxy-3,3-dimethylbutanoyl)oxy-5<I>a</I>,5<I>b</I>,8,8,11<I>a</I>-pentamethyl-1-prop-1-en-2-yl-1,2,3,4,5,6,7,7<I>a</I>,9,10,11,11<I>b</I>,12,13,13<I>a</I>,13<I>b</I>-hexadecahydrocyclopenta[a]chrysen-3<I>a</I>-yl]methoxy]-3,3-dimethyl-5-oxopentanoic acid
> <PUBCHEM_IUPAC_NAME>
5-[[9-(4-carboxy-3,3-dimethylbutanoyl)oxy-5a,5b,8,8,11a-pentamethyl-1-prop-1-en-2-yl-1,2,3,4,5,6,7,7a,9,10,11,11b,12,13,13a,13b-hexadecahydrocyclopenta[a]chrysen-3a-yl]methoxy]-3,3-dimethyl-5-oxopentanoic acid
> <PUBCHEM_IUPAC_SYSTEMATIC_NAME>
5-[[9-(3,3-dimethyl-5-oxidanyl-5-oxidanylidene-pentanoyl)oxy-5a,5b,8,8,11a-pentamethyl-1-prop-1-en-2-yl-1,2,3,4,5,6,7,7a,9,10,11,11b,12,13,13a,13b-hexadecahydrocyclopenta[a]chrysen-3a-yl]methoxy]-3,3-dimethyl-5-oxidanylidene-pentanoic acid
> <PUBCHEM_IUPAC_TRADITIONAL_NAME>
5-[[9-(4-carboxy-3,3-dimethyl-butanoyl)oxy-1-isopropenyl-5a,5b,8,8,11a-pentamethyl-1,2,3,4,5,6,7,7a,9,10,11,11b,12,13,13a,13b-hexadecahydrocyclopenta[a]chrysen-3a-yl]methoxy]-5-keto-3,3-dimethyl-valeric acid
> <PUBCHEM_IUPAC_INCHI>
InChI=1S/C44H70O8/c1-27(2)28-14-19-44(26-51-35(49)24-38(3,4)22-33(45)46)21-20-42(10)29(37(28)44)12-13-31-41(9)17-16-32(40(7,8)30(41)15-18-43(31,42)11)52-36(50)25-39(5,6)23-34(47)48/h28-32,37H,1,12-26H2,2-11H3,(H,45,46)(H,47,48)
> <PUBCHEM_IUPAC_INCHIKEY>
MPCSQAWQRMXLDD-UHFFFAOYSA-N
> <PUBCHEM_XLOGP3_AA>
10.7
> <PUBCHEM_EXACT_MASS>
726.50706919
> <PUBCHEM_MOLECULAR_FORMULA>
C44H70O8
> <PUBCHEM_MOLECULAR_WEIGHT>
727.0
> <PUBCHEM_OPENEYE_CAN_SMILES>
CC(=C)C1CCC2(C1C3CCC4C5(CCC(C(C5CCC4(C3(CC2)C)C)(C)C)OC(=O)CC(C)(C)CC(=O)O)C)COC(=O)CC(C)(C)CC(=O)O
> <PUBCHEM_OPENEYE_ISO_SMILES>
CC(=C)C1CCC2(C1C3CCC4C5(CCC(C(C5CCC4(C3(CC2)C)C)(C)C)OC(=O)CC(C)(C)CC(=O)O)C)COC(=O)CC(C)(C)CC(=O)O
> <PUBCHEM_CACTVS_TPSA>
127
> <PUBCHEM_MONOISOTOPIC_WEIGHT>
726.50706919
> <PUBCHEM_TOTAL_CHARGE>
0
> <PUBCHEM_HEAVY_ATOM_COUNT>
52
> <PUBCHEM_ATOM_DEF_STEREO_COUNT>
0
> <PUBCHEM_ATOM_UDEF_STEREO_COUNT>
10
> <PUBCHEM_BOND_DEF_STEREO_COUNT>
0
> <PUBCHEM_BOND_UDEF_STEREO_COUNT>
0
> <PUBCHEM_ISOTOPIC_ATOM_COUNT>
0
> <PUBCHEM_COMPONENT_COUNT>
1
> <PUBCHEM_CACTVS_TAUTO_COUNT>
-1
> <PUBCHEM_COORDINATE_TYPE>
1
5
255
> <PUBCHEM_BONDANNOTATIONS>
31  1  3
10  28  3
11  19  3
12  20  3
13  30  3
14  23  3
15  32  3
16  22  3
23  34  3
9  27  3
$$$$
