500472
  -OEChem-10302200282D
 30 32  0     1  0  0  0  0  0999 V2000
    4.6660   -1.7327    0.0000 O   0  0  0  0  0  0  0  0  0  0  0  0
    5.5321   -0.2327    0.0000 C   0  0  3  0  0  0  0  0  0  0  0  0
    4.6660    0.2673    0.0000 C   0  0  0  0  0  0  0  0  0  0  0  0
    5.5321   -1.2327    0.0000 C   0  0  0  0  0  0  0  0  0  0  0  0
    3.8000   -0.2327    0.0000 C   0  0  0  0  0  0  0  0  0  0  0  0
    6.3981    0.2673    0.0000 C   0  0  0  0  0  0  0  0  0  0  0  0
    3.8000   -1.2327    0.0000 C   0  0  0  0  0  0  0  0  0  0  0  0
    2.9061    0.3020    0.0000 C   0  0  0  0  0  0  0  0  0  0  0  0
    7.2641   -0.2327    0.0000 C   0  0  0  0  0  0  0  0  0  0  0  0
    6.3981    1.2673    0.0000 C   0  0  0  0  0  0  0  0  0  0  0  0
    2.9061   -1.7673    0.0000 C   0  0  0  0  0  0  0  0  0  0  0  0
    2.0000   -0.2119    0.0000 C   0  0  0  0  0  0  0  0  0  0  0  0
    2.0000   -1.2535    0.0000 C   0  0  0  0  0  0  0  0  0  0  0  0
    8.1301    0.2673    0.0000 C   0  0  0  0  0  0  0  0  0  0  0  0
    7.2641    1.7673    0.0000 C   0  0  0  0  0  0  0  0  0  0  0  0
    8.1301    1.2673    0.0000 C   0  0  0  0  0  0  0  0  0  0  0  0
    5.5321    0.3873    0.0000 H   0  0  0  0  0  0  0  0  0  0  0  0
    5.0646    0.7423    0.0000 H   0  0  0  0  0  0  0  0  0  0  0  0
    4.2675    0.7423    0.0000 H   0  0  0  0  0  0  0  0  0  0  0  0
    5.7441   -1.8153    0.0000 H   0  0  0  0  0  0  0  0  0  0  0  0
    6.1426   -1.1250    0.0000 H   0  0  0  0  0  0  0  0  0  0  0  0
    2.9132    0.9220    0.0000 H   0  0  0  0  0  0  0  0  0  0  0  0
    7.2641   -0.8527    0.0000 H   0  0  0  0  0  0  0  0  0  0  0  0
    5.8612    1.5773    0.0000 H   0  0  0  0  0  0  0  0  0  0  0  0
    2.9132   -2.3873    0.0000 H   0  0  0  0  0  0  0  0  0  0  0  0
    1.4643    0.1002    0.0000 H   0  0  0  0  0  0  0  0  0  0  0  0
    1.4643   -1.5656    0.0000 H   0  0  0  0  0  0  0  0  0  0  0  0
    8.6671   -0.0427    0.0000 H   0  0  0  0  0  0  0  0  0  0  0  0
    7.2641    2.3873    0.0000 H   0  0  0  0  0  0  0  0  0  0  0  0
    8.6671    1.5773    0.0000 H   0  0  0  0  0  0  0  0  0  0  0  0
  1  4  1  0  0  0  0
  1  7  1  0  0  0  0
  2  3  1  0  0  0  0
  2  4  1  0  0  0  0
  2  6  1  0  0  0  0
  2 17  1  0  0  0  0
  3  5  1  0  0  0  0
  3 18  1  0  0  0  0
  3 19  1  0  0  0  0
  4 20  1  0  0  0  0
  4 21  1  0  0  0  0
  5  7  1  0  0  0  0
  5  8  2  0  0  0  0
  6  9  2  0  0  0  0
  6 10  1  0  0  0  0
  7 11  2  0  0  0  0
  8 12  1  0  0  0  0
  8 22  1  0  0  0  0
  9 14  1  0  0  0  0
  9 23  1  0  0  0  0
 10 15  2  0  0  0  0
 10 24  1  0  0  0  0
 11 13  1  0  0  0  0
 11 25  1  0  0  0  0
 12 13  2  0  0  0  0
 12 26  1  0  0  0  0
 13 27  1  0  0  0  0
 14 16  2  0  0  0  0
 14 28  1  0  0  0  0
 15 16  1  0  0  0  0
 15 29  1  0  0  0  0
 16 30  1  0  0  0  0
M  END
> <PUBCHEM_COMPOUND_CID>
500472
> <PUBCHEM_COMPOUND_CANONICALIZED>
1
> <PUBCHEM_CACTVS_COMPLEXITY>
220
> <PUBCHEM_CACTVS_HBOND_ACCEPTOR>
1
> <PUBCHEM_CACTVS_HBOND_DONOR>
0
> <PUBCHEM_CACTVS_ROTATABLE_BOND>
1
> <PUBCHEM_CACTVS_SUBSKEYS>
AAADccBwIAAAAAAAAAAAAAAAAAAAAAAAAAA0YIAAAAAAAACRQAAAGgAAAAAADQSgmAIwBoAABACAAiBCAAACCAAgIAAIiAAGCIgMJiKEMRqCOCCkwBEIqAeAwPAOgAAAAAAIAAAAAAAAABAAAAAAAAAAAA==
> <PUBCHEM_IUPAC_OPENEYE_NAME>
3-phenylchromane
> <PUBCHEM_IUPAC_CAS_NAME>
3-phenyl-3,4-dihydro-2H-1-benzopyran
> <PUBCHEM_IUPAC_NAME_MARKUP>
3-phenyl-3,4-dihydro-2<I>H</I>-chromene
> <PUBCHEM_IUPAC_NAME>
3-phenyl-3,4-dihydro-2H-chromene
> <PUBCHEM_IUPAC_SYSTEMATIC_NAME>
3-phenyl-3,4-dihydro-2H-chromene
> <PUBCHEM_IUPAC_TRADITIONAL_NAME>
isoflavan
> <PUBCHEM_IUPAC_INCHI>
InChI=1S/C15H14O/c1-2-6-12(7-3-1)14-10-13-8-4-5-9-15(13)16-11-14/h1-9,14H,10-11H2
> <PUBCHEM_IUPAC_INCHIKEY>
NNQSGBRGJHSRFN-UHFFFAOYSA-N
> <PUBCHEM_XLOGP3_AA>
3.7
> <PUBCHEM_EXACT_MASS>
210.104465066
> <PUBCHEM_MOLECULAR_FORMULA>
C15H14O
> <PUBCHEM_MOLECULAR_WEIGHT>
210.27
> <PUBCHEM_OPENEYE_CAN_SMILES>
C1C(COC2=CC=CC=C21)C3=CC=CC=C3
> <PUBCHEM_OPENEYE_ISO_SMILES>
C1C(COC2=CC=CC=C21)C3=CC=CC=C3
> <PUBCHEM_CACTVS_TPSA>
9.2
> <PUBCHEM_MONOISOTOPIC_WEIGHT>
210.104465066
> <PUBCHEM_TOTAL_CHARGE>
0
> <PUBCHEM_HEAVY_ATOM_COUNT>
16
> <PUBCHEM_ATOM_DEF_STEREO_COUNT>
0
> <PUBCHEM_ATOM_UDEF_STEREO_COUNT>
1
> <PUBCHEM_BOND_DEF_STEREO_COUNT>
0
> <PUBCHEM_BOND_UDEF_STEREO_COUNT>
0
> <PUBCHEM_ISOTOPIC_ATOM_COUNT>
0
> <PUBCHEM_COMPONENT_COUNT>
1
> <PUBCHEM_CACTVS_TAUTO_COUNT>
1
> <PUBCHEM_COORDINATE_TYPE>
1
5
255
> <PUBCHEM_BONDANNOTATIONS>
10  15  8
11  13  8
12  13  8
14  16  8
15  16  8
2  6  3
5  7  8
5  8  8
6  10  8
6  9  8
7  11  8
8  12  8
9  14  8
$$$$
