500459
  -OEChem-10302200282D
 56 56  0     1  0  0  0  0  0999 V2000
    6.5961   -3.3799    0.0000 O   0  0  0  0  0  0  0  0  0  0  0  0
    7.9973   -2.3618    0.0000 O   0  0  0  0  0  0  0  0  0  0  0  0
    5.9150    2.8815    0.0000 O   0  0  0  0  0  0  0  0  0  0  0  0
    5.0490    1.3815    0.0000 N   0  0  0  0  0  0  0  0  0  0  0  0
    4.1550   -0.3973    0.0000 N   0  0  0  0  0  0  0  0  0  0  0  0
    2.4608   -0.7574    0.0000 N   0  0  0  0  0  0  0  0  0  0  0  0
    3.6197   -2.0446    0.0000 N   0  0  0  0  0  0  0  0  0  0  0  0
    5.9150   -0.1185    0.0000 C   0  0  3  0  0  0  0  0  0  0  0  0
    5.9150    0.8815    0.0000 C   0  0  3  0  0  0  0  0  0  0  0  0
    5.1060   -0.7063    0.0000 C   0  0  3  0  0  0  0  0  0  0  0  0
    6.7240   -0.7063    0.0000 C   0  0  0  0  0  0  0  0  0  0  0  0
    6.4150   -1.6573    0.0000 C   0  0  3  0  0  0  0  0  0  0  0  0
    5.4150   -1.6573    0.0000 C   0  0  0  0  0  0  0  0  0  0  0  0
    6.7810    1.3815    0.0000 C   0  0  0  0  0  0  0  0  0  0  0  0
    6.7810    2.3815    0.0000 C   0  0  0  0  0  0  0  0  0  0  0  0
    7.6471    0.8815    0.0000 C   0  0  0  0  0  0  0  0  0  0  0  0
    7.0028   -2.4664    0.0000 C   0  0  0  0  0  0  0  0  0  0  0  0
    7.6471    2.8815    0.0000 C   0  0  0  0  0  0  0  0  0  0  0  0
    8.5131    1.3815    0.0000 C   0  0  0  0  0  0  0  0  0  0  0  0
    5.0490    2.3815    0.0000 C   0  0  0  0  0  0  0  0  0  0  0  0
    3.4118   -1.0664    0.0000 C   0  0  0  0  0  0  0  0  0  0  0  0
    7.6471    3.8815    0.0000 C   0  0  0  0  0  0  0  0  0  0  0  0
    9.3791    0.8815    0.0000 C   0  0  0  0  0  0  0  0  0  0  0  0
    4.1830    2.8815    0.0000 C   0  0  0  0  0  0  0  0  0  0  0  0
    6.4675    0.1630    0.0000 H   0  0  0  0  0  0  0  0  0  0  0  0
    5.9150    1.5015    0.0000 H   0  0  0  0  0  0  0  0  0  0  0  0
    4.6676   -1.1447    0.0000 H   0  0  0  0  0  0  0  0  0  0  0  0
    7.2904   -0.9585    0.0000 H   0  0  0  0  0  0  0  0  0  0  0  0
    7.0340   -0.1694    0.0000 H   0  0  0  0  0  0  0  0  0  0  0  0
    7.0274   -1.5603    0.0000 H   0  0  0  0  0  0  0  0  0  0  0  0
    4.8086   -1.7862    0.0000 H   0  0  0  0  0  0  0  0  0  0  0  0
    5.4798   -2.2740    0.0000 H   0  0  0  0  0  0  0  0  0  0  0  0
    6.7810    0.7615    0.0000 H   0  0  0  0  0  0  0  0  0  0  0  0
    6.5690    2.9641    0.0000 H   0  0  0  0  0  0  0  0  0  0  0  0
    6.1705    2.2738    0.0000 H   0  0  0  0  0  0  0  0  0  0  0  0
    7.2486    0.4066    0.0000 H   0  0  0  0  0  0  0  0  0  0  0  0
    8.0456    0.4066    0.0000 H   0  0  0  0  0  0  0  0  0  0  0  0
    4.5121    1.0715    0.0000 H   0  0  0  0  0  0  0  0  0  0  0  0
    7.8591    2.2989    0.0000 H   0  0  0  0  0  0  0  0  0  0  0  0
    8.2577    2.9892    0.0000 H   0  0  0  0  0  0  0  0  0  0  0  0
    8.9116    1.8564    0.0000 H   0  0  0  0  0  0  0  0  0  0  0  0
    8.1146    1.8564    0.0000 H   0  0  0  0  0  0  0  0  0  0  0  0
    8.2671    3.8815    0.0000 H   0  0  0  0  0  0  0  0  0  0  0  0
    7.6471    4.5015    0.0000 H   0  0  0  0  0  0  0  0  0  0  0  0
    7.0271    3.8815    0.0000 H   0  0  0  0  0  0  0  0  0  0  0  0
    9.0691    0.3446    0.0000 H   0  0  0  0  0  0  0  0  0  0  0  0
    9.9161    0.5715    0.0000 H   0  0  0  0  0  0  0  0  0  0  0  0
    9.6891    1.4184    0.0000 H   0  0  0  0  0  0  0  0  0  0  0  0
    6.9605   -3.8815    0.0000 H   0  0  0  0  0  0  0  0  0  0  0  0
    4.4930    3.4184    0.0000 H   0  0  0  0  0  0  0  0  0  0  0  0
    3.6460    3.1915    0.0000 H   0  0  0  0  0  0  0  0  0  0  0  0
    3.8730    2.3446    0.0000 H   0  0  0  0  0  0  0  0  0  0  0  0
    2.0000   -1.1722    0.0000 H   0  0  0  0  0  0  0  0  0  0  0  0
    2.3318   -0.1509    0.0000 H   0  0  0  0  0  0  0  0  0  0  0  0
    3.1590   -2.4594    0.0000 H   0  0  0  0  0  0  0  0  0  0  0  0
    4.2094   -2.2361    0.0000 H   0  0  0  0  0  0  0  0  0  0  0  0
  1 17  1  0  0  0  0
  1 49  1  0  0  0  0
  2 17  2  0  0  0  0
  3 20  2  0  0  0  0
  4  9  1  0  0  0  0
  4 20  1  0  0  0  0
  4 38  1  0  0  0  0
  5 10  1  0  0  0  0
  5 21  2  0  0  0  0
  6 21  1  0  0  0  0
  6 53  1  0  0  0  0
  6 54  1  0  0  0  0
  7 21  1  0  0  0  0
  7 55  1  0  0  0  0
  7 56  1  0  0  0  0
  8  9  1  0  0  0  0
  8 10  1  0  0  0  0
  8 11  1  0  0  0  0
  8 25  1  0  0  0  0
  9 14  1  0  0  0  0
  9 26  1  0  0  0  0
 10 13  1  0  0  0  0
 10 27  1  0  0  0  0
 11 12  1  0  0  0  0
 11 28  1  0  0  0  0
 11 29  1  0  0  0  0
 12 13  1  0  0  0  0
 12 17  1  0  0  0  0
 12 30  1  0  0  0  0
 13 31  1  0  0  0  0
 13 32  1  0  0  0  0
 14 15  1  0  0  0  0
 14 16  1  0  0  0  0
 14 33  1  0  0  0  0
 15 18  1  0  0  0  0
 15 34  1  0  0  0  0
 15 35  1  0  0  0  0
 16 19  1  0  0  0  0
 16 36  1  0  0  0  0
 16 37  1  0  0  0  0
 18 22  1  0  0  0  0
 18 39  1  0  0  0  0
 18 40  1  0  0  0  0
 19 23  1  0  0  0  0
 19 41  1  0  0  0  0
 19 42  1  0  0  0  0
 20 24  1  0  0  0  0
 22 43  1  0  0  0  0
 22 44  1  0  0  0  0
 22 45  1  0  0  0  0
 23 46  1  0  0  0  0
 23 47  1  0  0  0  0
 23 48  1  0  0  0  0
 24 50  1  0  0  0  0
 24 51  1  0  0  0  0
 24 52  1  0  0  0  0
M  END
> <PUBCHEM_COMPOUND_CID>
500459
> <PUBCHEM_COMPOUND_CANONICALIZED>
1
> <PUBCHEM_CACTVS_COMPLEXITY>
457
> <PUBCHEM_CACTVS_HBOND_ACCEPTOR>
4
> <PUBCHEM_CACTVS_HBOND_DONOR>
4
> <PUBCHEM_CACTVS_ROTATABLE_BOND>
9
> <PUBCHEM_CACTVS_SUBSKEYS>
AAADcfB7sAAAAAAAAAAAAAAAAAAAAYAAAAAAAAAAAAAAAAAAAAAAHgAQCAAADSjBgAQDCALAAgAoAAGQPAAAAAEAAAAAAIEIAAAAABIAwAAEQAAEFgCAAAG82fOeAAAAAAAAAAAAAAAAAAAAASAAAQAAAA==
> <PUBCHEM_IUPAC_OPENEYE_NAME>
3-(1-acetamido-2-propyl-pentyl)-4-guanidino-cyclopentanecarboxylic acid
> <PUBCHEM_IUPAC_CAS_NAME>
3-(1-acetamido-2-propylpentyl)-4-(diaminomethylideneamino)-1-cyclopentanecarboxylic acid
> <PUBCHEM_IUPAC_NAME_MARKUP>
3-(1-acetamido-2-propylpentyl)-4-(diaminomethylideneamino)cyclopentane-1-carboxylic acid
> <PUBCHEM_IUPAC_NAME>
3-(1-acetamido-2-propylpentyl)-4-(diaminomethylideneamino)cyclopentane-1-carboxylic acid
> <PUBCHEM_IUPAC_SYSTEMATIC_NAME>
3-(1-acetamido-2-propyl-pentyl)-4-[bis(azanyl)methylideneamino]cyclopentane-1-carboxylic acid
> <PUBCHEM_IUPAC_TRADITIONAL_NAME>
3-(1-acetamido-2-propyl-pentyl)-4-guanidino-cyclopentanecarboxylic acid
> <PUBCHEM_IUPAC_INCHI>
InChI=1S/C17H32N4O3/c1-4-6-11(7-5-2)15(20-10(3)22)13-8-12(16(23)24)9-14(13)21-17(18)19/h11-15H,4-9H2,1-3H3,(H,20,22)(H,23,24)(H4,18,19,21)
> <PUBCHEM_IUPAC_INCHIKEY>
VUROMZOEXLKRSQ-UHFFFAOYSA-N
> <PUBCHEM_XLOGP3_AA>
1.5
> <PUBCHEM_EXACT_MASS>
340.24744090
> <PUBCHEM_MOLECULAR_FORMULA>
C17H32N4O3
> <PUBCHEM_MOLECULAR_WEIGHT>
340.5
> <PUBCHEM_OPENEYE_CAN_SMILES>
CCCC(CCC)C(C1CC(CC1N=C(N)N)C(=O)O)NC(=O)C
> <PUBCHEM_OPENEYE_ISO_SMILES>
CCCC(CCC)C(C1CC(CC1N=C(N)N)C(=O)O)NC(=O)C
> <PUBCHEM_CACTVS_TPSA>
131
> <PUBCHEM_MONOISOTOPIC_WEIGHT>
340.24744090
> <PUBCHEM_TOTAL_CHARGE>
0
> <PUBCHEM_HEAVY_ATOM_COUNT>
24
> <PUBCHEM_ATOM_DEF_STEREO_COUNT>
0
> <PUBCHEM_ATOM_UDEF_STEREO_COUNT>
4
> <PUBCHEM_BOND_DEF_STEREO_COUNT>
0
> <PUBCHEM_BOND_UDEF_STEREO_COUNT>
0
> <PUBCHEM_ISOTOPIC_ATOM_COUNT>
0
> <PUBCHEM_COMPONENT_COUNT>
1
> <PUBCHEM_CACTVS_TAUTO_COUNT>
-1
> <PUBCHEM_COORDINATE_TYPE>
1
5
255
> <PUBCHEM_BONDANNOTATIONS>
12  17  3
10  5  3
8  11  3
9  14  3
$$$$
