500404
  -OEChem-10302200282D
 53 56  0     1  0  0  0  0  0999 V2000
    5.9796    0.7929    0.0000 O   0  0  0  0  0  0  0  0  0  0  0  0
    7.0913   -0.7445    0.0000 O   0  0  0  0  0  0  0  0  0  0  0  0
    5.7892   -1.6906    0.0000 O   0  0  0  0  0  0  0  0  0  0  0  0
    3.6552   -0.3904    0.0000 O   0  0  0  0  0  0  0  0  0  0  0  0
    7.0976    1.4296    0.0000 O   0  0  0  0  0  0  0  0  0  0  0  0
    8.6365    0.9296    0.0000 O   0  0  0  0  0  0  0  0  0  0  0  0
    3.2741    1.3689    0.0000 O   0  0  0  0  0  0  0  0  0  0  0  0
    9.3359   -1.0384    0.0000 O   0  0  0  0  0  0  0  0  0  0  0  0
    6.2886   -0.1582    0.0000 C   0  0  3  0  0  0  0  0  0  0  0  0
    5.4796   -0.7459    0.0000 C   0  0  3  0  0  0  0  0  0  0  0  0
    4.6706   -0.1582    0.0000 C   0  0  3  0  0  0  0  0  0  0  0  0
    7.0976    0.4296    0.0000 C   0  0  3  0  0  0  0  0  0  0  0  0
    4.9796    0.7929    0.0000 C   0  0  3  0  0  0  0  0  0  0  0  0
    6.7833   -1.6897    0.0000 C   0  0  0  0  0  0  0  0  0  0  0  0
    8.0487    0.1206    0.0000 C   0  0  3  0  0  0  0  0  0  0  0  0
    4.2946    1.5776    0.0000 C   0  0  0  0  0  0  0  0  0  0  0  0
    8.0487    1.7386    0.0000 C   0  0  0  0  0  0  0  0  0  0  0  0
    2.9522    0.3783    0.0000 C   0  0  0  0  0  0  0  0  0  0  0  0
    6.7833   -2.6897    0.0000 C   0  0  0  0  0  0  0  0  0  0  0  0
    7.7344   -1.9987    0.0000 C   0  0  0  0  0  0  0  0  0  0  0  0
    8.3577   -0.8304    0.0000 C   0  0  0  0  0  0  0  0  0  0  0  0
    8.8577    2.3264    0.0000 C   0  0  0  0  0  0  0  0  0  0  0  0
    7.7397    2.6897    0.0000 C   0  0  0  0  0  0  0  0  0  0  0  0
    2.0000    0.6836    0.0000 C   0  0  0  0  0  0  0  0  0  0  0  0
    2.2117   -0.2937    0.0000 C   0  0  0  0  0  0  0  0  0  0  0  0
    4.9785   -1.1110    0.0000 H   0  0  0  0  0  0  0  0  0  0  0  0
    4.5464   -0.7656    0.0000 H   0  0  0  0  0  0  0  0  0  0  0  0
    7.5992    0.7941    0.0000 H   0  0  0  0  0  0  0  0  0  0  0  0
    5.2361    1.3573    0.0000 H   0  0  0  0  0  0  0  0  0  0  0  0
    8.6611    0.0236    0.0000 H   0  0  0  0  0  0  0  0  0  0  0  0
    4.8246    1.8994    0.0000 H   0  0  0  0  0  0  0  0  0  0  0  0
    4.0683    2.1548    0.0000 H   0  0  0  0  0  0  0  0  0  0  0  0
    6.1633   -2.6897    0.0000 H   0  0  0  0  0  0  0  0  0  0  0  0
    6.7833   -3.3097    0.0000 H   0  0  0  0  0  0  0  0  0  0  0  0
    7.4033   -2.6897    0.0000 H   0  0  0  0  0  0  0  0  0  0  0  0
    7.5428   -2.5884    0.0000 H   0  0  0  0  0  0  0  0  0  0  0  0
    8.3240   -2.1903    0.0000 H   0  0  0  0  0  0  0  0  0  0  0  0
    7.9260   -1.4091    0.0000 H   0  0  0  0  0  0  0  0  0  0  0  0
    7.7437   -0.9167    0.0000 H   0  0  0  0  0  0  0  0  0  0  0  0
    8.3361   -1.4501    0.0000 H   0  0  0  0  0  0  0  0  0  0  0  0
    9.2221    1.8248    0.0000 H   0  0  0  0  0  0  0  0  0  0  0  0
    9.3593    2.6909    0.0000 H   0  0  0  0  0  0  0  0  0  0  0  0
    8.4933    2.8280    0.0000 H   0  0  0  0  0  0  0  0  0  0  0  0
    8.3293    2.8813    0.0000 H   0  0  0  0  0  0  0  0  0  0  0  0
    7.5481    3.2794    0.0000 H   0  0  0  0  0  0  0  0  0  0  0  0
    7.1500    2.4981    0.0000 H   0  0  0  0  0  0  0  0  0  0  0  0
    2.1893    1.2740    0.0000 H   0  0  0  0  0  0  0  0  0  0  0  0
    1.4096    0.8729    0.0000 H   0  0  0  0  0  0  0  0  0  0  0  0
    1.8107    0.0932    0.0000 H   0  0  0  0  0  0  0  0  0  0  0  0
    1.7950    0.1654    0.0000 H   0  0  0  0  0  0  0  0  0  0  0  0
    1.7525   -0.7103    0.0000 H   0  0  0  0  0  0  0  0  0  0  0  0
    2.6283   -0.7529    0.0000 H   0  0  0  0  0  0  0  0  0  0  0  0
    9.5274   -1.6280    0.0000 H   0  0  0  0  0  0  0  0  0  0  0  0
  1  9  1  0  0  0  0
  1 13  1  0  0  0  0
  2  9  1  0  0  0  0
  2 14  1  0  0  0  0
  3 10  1  0  0  0  0
  3 14  1  0  0  0  0
  4 11  1  0  0  0  0
  4 18  1  0  0  0  0
  5 12  1  0  0  0  0
  5 17  1  0  0  0  0
  6 15  1  0  0  0  0
  6 17  1  0  0  0  0
  7 16  1  0  0  0  0
  7 18  1  0  0  0  0
  8 21  1  0  0  0  0
  8 53  1  0  0  0  0
  9 10  1  0  0  0  0
  9 12  1  0  0  0  0
 10 11  1  0  0  0  0
 10 26  1  0  0  0  0
 11 13  1  0  0  0  0
 11 27  1  0  0  0  0
 12 15  1  0  0  0  0
 12 28  1  0  0  0  0
 13 16  1  0  0  0  0
 13 29  1  0  0  0  0
 14 19  1  0  0  0  0
 14 20  1  0  0  0  0
 15 21  1  0  0  0  0
 15 30  1  0  0  0  0
 16 31  1  0  0  0  0
 16 32  1  0  0  0  0
 17 22  1  0  0  0  0
 17 23  1  0  0  0  0
 18 24  1  0  0  0  0
 18 25  1  0  0  0  0
 19 33  1  0  0  0  0
 19 34  1  0  0  0  0
 19 35  1  0  0  0  0
 20 36  1  0  0  0  0
 20 37  1  0  0  0  0
 20 38  1  0  0  0  0
 21 39  1  0  0  0  0
 21 40  1  0  0  0  0
 22 41  1  0  0  0  0
 22 42  1  0  0  0  0
 22 43  1  0  0  0  0
 23 44  1  0  0  0  0
 23 45  1  0  0  0  0
 23 46  1  0  0  0  0
 24 47  1  0  0  0  0
 24 48  1  0  0  0  0
 24 49  1  0  0  0  0
 25 50  1  0  0  0  0
 25 51  1  0  0  0  0
 25 52  1  0  0  0  0
M  END
> <PUBCHEM_COMPOUND_CID>
500404
> <PUBCHEM_COMPOUND_CANONICALIZED>
1
> <PUBCHEM_CACTVS_COMPLEXITY>
547
> <PUBCHEM_CACTVS_HBOND_ACCEPTOR>
8
> <PUBCHEM_CACTVS_HBOND_DONOR>
1
> <PUBCHEM_CACTVS_ROTATABLE_BOND>
2
> <PUBCHEM_CACTVS_SUBSKEYS>
AAADceB4PAAAAAAAAAAAAAAAAAAAASJEgAAkAAAAAAASAEgAAAAAGgAACAAACBSggAICCAAABgAAAAAAAAAAAAAAAAAAAAAAAAAREAIAAAAiQAAFAAAHAAHA4KwAAAAAAAAAAAAAAAAAAAAAAAAAAAAAAA==
> <PUBCHEM_IUPAC_OPENEYE_NAME>
[2,2-dimethyl-5-(4,4,11,11-tetramethyl-3,5,7,10,12-pentaoxatricyclo[6.4.0.02,6]dodecan-6-yl)-1,3-dioxolan-4-yl]methanol
> <PUBCHEM_IUPAC_CAS_NAME>
[2,2-dimethyl-5-(4,4,11,11-tetramethyl-3,5,7,10,12-pentaoxatricyclo[6.4.0.02,6]dodecan-6-yl)-1,3-dioxolan-4-yl]methanol
> <PUBCHEM_IUPAC_NAME_MARKUP>
[2,2-dimethyl-5-(4,4,11,11-tetramethyl-3,5,7,10,12-pentaoxatricyclo[6.4.0.0<SUP>2,6</SUP>]dodecan-6-yl)-1,3-dioxolan-4-yl]methanol
> <PUBCHEM_IUPAC_NAME>
[2,2-dimethyl-5-(4,4,11,11-tetramethyl-3,5,7,10,12-pentaoxatricyclo[6.4.0.02,6]dodecan-6-yl)-1,3-dioxolan-4-yl]methanol
> <PUBCHEM_IUPAC_SYSTEMATIC_NAME>
[2,2-dimethyl-5-(4,4,11,11-tetramethyl-3,5,7,10,12-pentaoxatricyclo[6.4.0.02,6]dodecan-6-yl)-1,3-dioxolan-4-yl]methanol
> <PUBCHEM_IUPAC_TRADITIONAL_NAME>
[2,2-dimethyl-5-(4,4,11,11-tetramethyl-3,5,7,10,12-pentaoxatricyclo[6.4.0.02,6]dodecan-6-yl)-1,3-dioxolan-4-yl]methanol
> <PUBCHEM_IUPAC_INCHI>
InChI=1S/C17H28O8/c1-14(2)19-8-10-11(22-14)13-17(21-10,25-16(5,6)24-13)12-9(7-18)20-15(3,4)23-12/h9-13,18H,7-8H2,1-6H3
> <PUBCHEM_IUPAC_INCHIKEY>
AEXMLOVBBGJYHK-UHFFFAOYSA-N
> <PUBCHEM_XLOGP3_AA>
0.1
> <PUBCHEM_EXACT_MASS>
360.17841785
> <PUBCHEM_MOLECULAR_FORMULA>
C17H28O8
> <PUBCHEM_MOLECULAR_WEIGHT>
360.4
> <PUBCHEM_OPENEYE_CAN_SMILES>
CC1(OCC2C(O1)C3C(O2)(OC(O3)(C)C)C4C(OC(O4)(C)C)CO)C
> <PUBCHEM_OPENEYE_ISO_SMILES>
CC1(OCC2C(O1)C3C(O2)(OC(O3)(C)C)C4C(OC(O4)(C)C)CO)C
> <PUBCHEM_CACTVS_TPSA>
84.8
> <PUBCHEM_MONOISOTOPIC_WEIGHT>
360.17841785
> <PUBCHEM_TOTAL_CHARGE>
0
> <PUBCHEM_HEAVY_ATOM_COUNT>
25
> <PUBCHEM_ATOM_DEF_STEREO_COUNT>
0
> <PUBCHEM_ATOM_UDEF_STEREO_COUNT>
6
> <PUBCHEM_BOND_DEF_STEREO_COUNT>
0
> <PUBCHEM_BOND_UDEF_STEREO_COUNT>
0
> <PUBCHEM_ISOTOPIC_ATOM_COUNT>
0
> <PUBCHEM_COMPONENT_COUNT>
1
> <PUBCHEM_CACTVS_TAUTO_COUNT>
-1
> <PUBCHEM_COORDINATE_TYPE>
1
5
255
> <PUBCHEM_BONDANNOTATIONS>
13  16  3
15  21  3
10  3  3
11  4  3
12  5  3
9  10  3
$$$$
