500478
  -OEChem-10302200282D
 32 34  0     1  0  0  0  0  0999 V2000
    6.3942   -1.9827    0.0000 O   0  0  0  0  0  0  0  0  0  0  0  0
    2.0000    0.5448    0.0000 N   0  0  0  0  0  0  0  0  0  0  0  0
   11.5904    2.0173    0.0000 N   0  0  0  0  0  0  0  0  0  0  0  0
    7.2602   -0.4827    0.0000 C   0  0  3  0  0  0  0  0  0  0  0  0
    6.3942    0.0173    0.0000 C   0  0  0  0  0  0  0  0  0  0  0  0
    7.2602   -1.4827    0.0000 C   0  0  0  0  0  0  0  0  0  0  0  0
    5.5282   -0.4827    0.0000 C   0  0  0  0  0  0  0  0  0  0  0  0
    8.1263    0.0173    0.0000 C   0  0  0  0  0  0  0  0  0  0  0  0
    5.5282   -1.4827    0.0000 C   0  0  0  0  0  0  0  0  0  0  0  0
    4.6342    0.0520    0.0000 C   0  0  0  0  0  0  0  0  0  0  0  0
    8.9923   -0.4827    0.0000 C   0  0  0  0  0  0  0  0  0  0  0  0
    8.1263    1.0173    0.0000 C   0  0  0  0  0  0  0  0  0  0  0  0
    4.6342   -2.0173    0.0000 C   0  0  0  0  0  0  0  0  0  0  0  0
    3.7282   -0.4619    0.0000 C   0  0  0  0  0  0  0  0  0  0  0  0
    3.7282   -1.5035    0.0000 C   0  0  0  0  0  0  0  0  0  0  0  0
    9.8583    0.0173    0.0000 C   0  0  0  0  0  0  0  0  0  0  0  0
    8.9923    1.5173    0.0000 C   0  0  0  0  0  0  0  0  0  0  0  0
    9.8583    1.0173    0.0000 C   0  0  0  0  0  0  0  0  0  0  0  0
    2.8641    0.0415    0.0000 C   0  0  0  0  0  0  0  0  0  0  0  0
   10.7243    1.5173    0.0000 C   0  0  0  0  0  0  0  0  0  0  0  0
    7.2602    0.1373    0.0000 H   0  0  0  0  0  0  0  0  0  0  0  0
    6.7928    0.4923    0.0000 H   0  0  0  0  0  0  0  0  0  0  0  0
    5.9957    0.4923    0.0000 H   0  0  0  0  0  0  0  0  0  0  0  0
    7.4723   -2.0653    0.0000 H   0  0  0  0  0  0  0  0  0  0  0  0
    7.8708   -1.3750    0.0000 H   0  0  0  0  0  0  0  0  0  0  0  0
    4.6414    0.6720    0.0000 H   0  0  0  0  0  0  0  0  0  0  0  0
    8.9923   -1.1027    0.0000 H   0  0  0  0  0  0  0  0  0  0  0  0
    7.5893    1.3273    0.0000 H   0  0  0  0  0  0  0  0  0  0  0  0
    4.6414   -2.6373    0.0000 H   0  0  0  0  0  0  0  0  0  0  0  0
    3.1924   -1.8156    0.0000 H   0  0  0  0  0  0  0  0  0  0  0  0
   10.3953   -0.2927    0.0000 H   0  0  0  0  0  0  0  0  0  0  0  0
    8.9923    2.1373    0.0000 H   0  0  0  0  0  0  0  0  0  0  0  0
  1  6  1  0  0  0  0
  1  9  1  0  0  0  0
  2 19  3  0  0  0  0
  3 20  3  0  0  0  0
  4  5  1  0  0  0  0
  4  6  1  0  0  0  0
  4  8  1  0  0  0  0
  4 21  1  0  0  0  0
  5  7  1  0  0  0  0
  5 22  1  0  0  0  0
  5 23  1  0  0  0  0
  6 24  1  0  0  0  0
  6 25  1  0  0  0  0
  7  9  2  0  0  0  0
  7 10  1  0  0  0  0
  8 11  2  0  0  0  0
  8 12  1  0  0  0  0
  9 13  1  0  0  0  0
 10 14  2  0  0  0  0
 10 26  1  0  0  0  0
 11 16  1  0  0  0  0
 11 27  1  0  0  0  0
 12 17  2  0  0  0  0
 12 28  1  0  0  0  0
 13 15  2  0  0  0  0
 13 29  1  0  0  0  0
 14 15  1  0  0  0  0
 14 19  1  0  0  0  0
 15 30  1  0  0  0  0
 16 18  2  0  0  0  0
 16 31  1  0  0  0  0
 17 18  1  0  0  0  0
 17 32  1  0  0  0  0
 18 20  1  0  0  0  0
M  END
> <PUBCHEM_COMPOUND_CID>
500478
> <PUBCHEM_COMPOUND_CANONICALIZED>
1
> <PUBCHEM_CACTVS_COMPLEXITY>
434
> <PUBCHEM_CACTVS_HBOND_ACCEPTOR>
3
> <PUBCHEM_CACTVS_HBOND_DONOR>
0
> <PUBCHEM_CACTVS_ROTATABLE_BOND>
1
> <PUBCHEM_CACTVS_SUBSKEYS>
AAADccB7IAAAAAAAAAAAAAAAAAAAAAAAAAA0YIAAAAAAAACRQAAAHgAAAAAADQShmAIwBoAABACQBiBCAAAiCAAgIAAIiAAGCIgMpiKEMRqCOCCkwBEIqA+AwPAO4AACAAAIAADAAAQAABAAAAAAAAAAAA==
> <PUBCHEM_IUPAC_OPENEYE_NAME>
3-(4-cyanophenyl)chromane-6-carbonitrile
> <PUBCHEM_IUPAC_CAS_NAME>
3-(4-cyanophenyl)-3,4-dihydro-2H-1-benzopyran-6-carbonitrile
> <PUBCHEM_IUPAC_NAME_MARKUP>
3-(4-cyanophenyl)-3,4-dihydro-2<I>H</I>-chromene-6-carbonitrile
> <PUBCHEM_IUPAC_NAME>
3-(4-cyanophenyl)-3,4-dihydro-2H-chromene-6-carbonitrile
> <PUBCHEM_IUPAC_SYSTEMATIC_NAME>
3-(4-cyanophenyl)-3,4-dihydro-2H-chromene-6-carbonitrile
> <PUBCHEM_IUPAC_TRADITIONAL_NAME>
3-(4-cyanophenyl)chroman-6-carbonitrile
> <PUBCHEM_IUPAC_INCHI>
InChI=1S/C17H12N2O/c18-9-12-1-4-14(5-2-12)16-8-15-7-13(10-19)3-6-17(15)20-11-16/h1-7,16H,8,11H2
> <PUBCHEM_IUPAC_INCHIKEY>
RSSLFCUVCYAAAL-UHFFFAOYSA-N
> <PUBCHEM_XLOGP3_AA>
3.1
> <PUBCHEM_EXACT_MASS>
260.094963011
> <PUBCHEM_MOLECULAR_FORMULA>
C17H12N2O
> <PUBCHEM_MOLECULAR_WEIGHT>
260.29
> <PUBCHEM_OPENEYE_CAN_SMILES>
C1C(COC2=C1C=C(C=C2)C#N)C3=CC=C(C=C3)C#N
> <PUBCHEM_OPENEYE_ISO_SMILES>
C1C(COC2=C1C=C(C=C2)C#N)C3=CC=C(C=C3)C#N
> <PUBCHEM_CACTVS_TPSA>
56.8
> <PUBCHEM_MONOISOTOPIC_WEIGHT>
260.094963011
> <PUBCHEM_TOTAL_CHARGE>
0
> <PUBCHEM_HEAVY_ATOM_COUNT>
20
> <PUBCHEM_ATOM_DEF_STEREO_COUNT>
0
> <PUBCHEM_ATOM_UDEF_STEREO_COUNT>
1
> <PUBCHEM_BOND_DEF_STEREO_COUNT>
0
> <PUBCHEM_BOND_UDEF_STEREO_COUNT>
0
> <PUBCHEM_ISOTOPIC_ATOM_COUNT>
0
> <PUBCHEM_COMPONENT_COUNT>
1
> <PUBCHEM_CACTVS_TAUTO_COUNT>
-1
> <PUBCHEM_COORDINATE_TYPE>
1
5
255
> <PUBCHEM_BONDANNOTATIONS>
10  14  8
11  16  8
12  17  8
13  15  8
14  15  8
16  18  8
17  18  8
4  8  3
7  10  8
7  9  8
8  11  8
8  12  8
9  13  8
$$$$
