500418
  -OEChem-10302200282D
130134  0     1  0  0  0  0  0999 V2000
   16.6555    0.5510    0.0000 O   0  0  0  0  0  0  0  0  0  0  0  0
    7.7304   -2.5354    0.0000 O   0  0  0  0  0  0  0  0  0  0  0  0
   17.5330   -0.9422    0.0000 O   0  0  0  0  0  0  0  0  0  0  0  0
    6.8702   -1.0321    0.0000 O   0  0  0  0  0  0  0  0  0  0  0  0
   21.8592   -0.4089    0.0000 O   0  0  0  0  0  0  0  0  0  0  0  0
    2.5381   -1.5154    0.0000 O   0  0  0  0  0  0  0  0  0  0  0  0
   20.9816    1.0844    0.0000 O   0  0  0  0  0  0  0  0  0  0  0  0
    3.3984   -3.0188    0.0000 O   0  0  0  0  0  0  0  0  0  0  0  0
   13.1235   -0.4831    0.0000 C   0  0  3  0  0  0  0  0  0  0  0  0
   12.2574   -0.9831    0.0000 C   0  0  3  0  0  0  0  0  0  0  0  0
   13.1235    0.5169    0.0000 C   0  0  3  0  0  0  0  0  0  0  0  0
   11.3914   -0.4831    0.0000 C   0  0  3  0  0  0  0  0  0  0  0  0
   14.0174    1.0515    0.0000 C   0  0  3  0  0  0  0  0  0  0  0  0
   10.4814   -0.9900    0.0000 C   0  0  3  0  0  0  0  0  0  0  0  0
   14.9235    0.5377    0.0000 C   0  0  3  0  0  0  0  0  0  0  0  0
   10.4734   -2.0316    0.0000 C   0  0  3  0  0  0  0  0  0  0  0  0
   14.0174   -1.0178    0.0000 C   0  0  0  0  0  0  0  0  0  0  0  0
   12.2574    1.0169    0.0000 C   0  0  0  0  0  0  0  0  0  0  0  0
   11.3914    0.5169    0.0000 C   0  0  0  0  0  0  0  0  0  0  0  0
   12.2735   -2.0246    0.0000 C   0  0  0  0  0  0  0  0  0  0  0  0
   14.2275    2.0655    0.0000 C   0  0  3  0  0  0  0  0  0  0  0  0
   14.9235   -0.5039    0.0000 C   0  0  0  0  0  0  0  0  0  0  0  0
   11.3755   -2.5524    0.0000 C   0  0  0  0  0  0  0  0  0  0  0  0
   15.6858    1.2384    0.0000 C   0  0  0  0  0  0  0  0  0  0  0  0
    9.5380   -2.5813    0.0000 C   0  0  0  0  0  0  0  0  0  0  0  0
   13.4656   -1.4228    0.0000 C   0  0  0  0  0  0  0  0  0  0  0  0
    9.5546   -0.4259    0.0000 C   0  0  0  0  0  0  0  0  0  0  0  0
   12.9002   -1.7492    0.0000 C   0  0  0  0  0  0  0  0  0  0  0  0
   15.2565    2.1807    0.0000 C   0  0  0  0  0  0  0  0  0  0  0  0
   10.4891    0.0100    0.0000 C   0  0  0  0  0  0  0  0  0  0  0  0
   15.7933    0.0444    0.0000 C   0  0  0  0  0  0  0  0  0  0  0  0
    8.5983   -2.0388    0.0000 C   0  0  3  0  0  0  0  0  0  0  0  0
    8.6067   -0.9538    0.0000 C   0  0  0  0  0  0  0  0  0  0  0  0
   13.5540    2.8046    0.0000 C   0  0  0  0  0  0  0  0  0  0  0  0
    9.0413   -3.4492    0.0000 C   0  0  0  0  0  0  0  0  0  0  0  0
   10.0413   -3.4454    0.0000 C   0  0  0  0  0  0  0  0  0  0  0  0
   13.8573    3.7575    0.0000 C   0  0  0  0  0  0  0  0  0  0  0  0
   12.5771    2.5908    0.0000 C   0  0  0  0  0  0  0  0  0  0  0  0
   17.5253    0.0577    0.0000 C   0  0  0  0  0  0  0  0  0  0  0  0
    6.8663   -2.0321    0.0000 C   0  0  0  0  0  0  0  0  0  0  0  0
   18.3875    0.5644    0.0000 C   0  0  0  0  0  0  0  0  0  0  0  0
    5.9984   -2.5288    0.0000 C   0  0  0  0  0  0  0  0  0  0  0  0
   19.2573    0.0711    0.0000 C   0  0  3  0  0  0  0  0  0  0  0  0
    5.1343   -2.0254    0.0000 C   0  0  3  0  0  0  0  0  0  0  0  0
   19.7506    0.9409    0.0000 C   0  0  0  0  0  0  0  0  0  0  0  0
    4.6309   -2.8895    0.0000 C   0  0  0  0  0  0  0  0  0  0  0  0
   20.1272   -0.4222    0.0000 C   0  0  0  0  0  0  0  0  0  0  0  0
    4.2702   -1.5221    0.0000 C   0  0  0  0  0  0  0  0  0  0  0  0
   18.7640   -0.7988    0.0000 C   0  0  0  0  0  0  0  0  0  0  0  0
    5.6376   -1.1614    0.0000 C   0  0  0  0  0  0  0  0  0  0  0  0
   19.2440    1.8031    0.0000 C   0  0  0  0  0  0  0  0  0  0  0  0
    5.1276   -3.7575    0.0000 C   0  0  0  0  0  0  0  0  0  0  0  0
   20.9893    0.0844    0.0000 C   0  0  0  0  0  0  0  0  0  0  0  0
    3.4022   -2.0188    0.0000 C   0  0  0  0  0  0  0  0  0  0  0  0
   13.1187    1.1369    0.0000 H   0  0  0  0  0  0  0  0  0  0  0  0
   11.9284   -0.1731    0.0000 H   0  0  0  0  0  0  0  0  0  0  0  0
   13.5121    1.4108    0.0000 H   0  0  0  0  0  0  0  0  0  0  0  0
   10.4758   -2.6516    0.0000 H   0  0  0  0  0  0  0  0  0  0  0  0
   13.6128   -1.4876    0.0000 H   0  0  0  0  0  0  0  0  0  0  0  0
   14.4110   -1.4968    0.0000 H   0  0  0  0  0  0  0  0  0  0  0  0
   12.6560    1.4918    0.0000 H   0  0  0  0  0  0  0  0  0  0  0  0
   11.8589    1.4918    0.0000 H   0  0  0  0  0  0  0  0  0  0  0  0
   11.1794    1.0995    0.0000 H   0  0  0  0  0  0  0  0  0  0  0  0
   10.7808    0.4092    0.0000 H   0  0  0  0  0  0  0  0  0  0  0  0
   12.4915   -2.6050    0.0000 H   0  0  0  0  0  0  0  0  0  0  0  0
   12.8827   -1.9091    0.0000 H   0  0  0  0  0  0  0  0  0  0  0  0
   14.6451    1.6072    0.0000 H   0  0  0  0  0  0  0  0  0  0  0  0
   15.1325   -1.0876    0.0000 H   0  0  0  0  0  0  0  0  0  0  0  0
   15.5343   -0.3978    0.0000 H   0  0  0  0  0  0  0  0  0  0  0  0
   10.9782   -3.0284    0.0000 H   0  0  0  0  0  0  0  0  0  0  0  0
   11.7764   -3.0253    0.0000 H   0  0  0  0  0  0  0  0  0  0  0  0
   16.0551    0.7404    0.0000 H   0  0  0  0  0  0  0  0  0  0  0  0
   16.2199    1.5534    0.0000 H   0  0  0  0  0  0  0  0  0  0  0  0
   12.8830   -1.6349    0.0000 H   0  0  0  0  0  0  0  0  0  0  0  0
   13.6777   -2.0054    0.0000 H   0  0  0  0  0  0  0  0  0  0  0  0
   14.0482   -1.2107    0.0000 H   0  0  0  0  0  0  0  0  0  0  0  0
    9.9628    0.0408    0.0000 H   0  0  0  0  0  0  0  0  0  0  0  0
    9.1647    0.0562    0.0000 H   0  0  0  0  0  0  0  0  0  0  0  0
   12.4253   -2.1477    0.0000 H   0  0  0  0  0  0  0  0  0  0  0  0
   13.2988   -2.2241    0.0000 H   0  0  0  0  0  0  0  0  0  0  0  0
   13.3752   -1.3506    0.0000 H   0  0  0  0  0  0  0  0  0  0  0  0
   15.8446    2.3770    0.0000 H   0  0  0  0  0  0  0  0  0  0  0  0
   15.1231    2.7862    0.0000 H   0  0  0  0  0  0  0  0  0  0  0  0
   11.1091    0.0052    0.0000 H   0  0  0  0  0  0  0  0  0  0  0  0
   10.4939    0.6300    0.0000 H   0  0  0  0  0  0  0  0  0  0  0  0
    9.8692    0.0148    0.0000 H   0  0  0  0  0  0  0  0  0  0  0  0
   15.3985   -0.4336    0.0000 H   0  0  0  0  0  0  0  0  0  0  0  0
   16.1955   -0.4275    0.0000 H   0  0  0  0  0  0  0  0  0  0  0  0
    8.5971   -2.6588    0.0000 H   0  0  0  0  0  0  0  0  0  0  0  0
    8.4022   -0.3685    0.0000 H   0  0  0  0  0  0  0  0  0  0  0  0
    7.9950   -1.0552    0.0000 H   0  0  0  0  0  0  0  0  0  0  0  0
   14.1596    2.9371    0.0000 H   0  0  0  0  0  0  0  0  0  0  0  0
    8.5032   -3.1413    0.0000 H   0  0  0  0  0  0  0  0  0  0  0  0
    8.7334   -3.9874    0.0000 H   0  0  0  0  0  0  0  0  0  0  0  0
    9.5794   -3.7572    0.0000 H   0  0  0  0  0  0  0  0  0  0  0  0
    9.5056   -3.7574    0.0000 H   0  0  0  0  0  0  0  0  0  0  0  0
   10.3534   -3.9811    0.0000 H   0  0  0  0  0  0  0  0  0  0  0  0
   10.5770   -3.1333    0.0000 H   0  0  0  0  0  0  0  0  0  0  0  0
   14.4481    3.5694    0.0000 H   0  0  0  0  0  0  0  0  0  0  0  0
   14.0453    4.3483    0.0000 H   0  0  0  0  0  0  0  0  0  0  0  0
   13.2665    3.9455    0.0000 H   0  0  0  0  0  0  0  0  0  0  0  0
   12.4445    3.1965    0.0000 H   0  0  0  0  0  0  0  0  0  0  0  0
   11.9714    2.4583    0.0000 H   0  0  0  0  0  0  0  0  0  0  0  0
   12.7096    1.9852    0.0000 H   0  0  0  0  0  0  0  0  0  0  0  0
   18.7823    1.0424    0.0000 H   0  0  0  0  0  0  0  0  0  0  0  0
   17.9853    1.0363    0.0000 H   0  0  0  0  0  0  0  0  0  0  0  0
    5.5980   -3.0022    0.0000 H   0  0  0  0  0  0  0  0  0  0  0  0
    6.3950   -3.0053    0.0000 H   0  0  0  0  0  0  0  0  0  0  0  0
   20.2286    0.5461    0.0000 H   0  0  0  0  0  0  0  0  0  0  0  0
   20.2225    1.3431    0.0000 H   0  0  0  0  0  0  0  0  0  0  0  0
    4.1575   -2.4892    0.0000 H   0  0  0  0  0  0  0  0  0  0  0  0
    4.1544   -3.2862    0.0000 H   0  0  0  0  0  0  0  0  0  0  0  0
   19.7323   -0.9002    0.0000 H   0  0  0  0  0  0  0  0  0  0  0  0
   20.5294   -0.8941    0.0000 H   0  0  0  0  0  0  0  0  0  0  0  0
    4.6705   -1.0487    0.0000 H   0  0  0  0  0  0  0  0  0  0  0  0
    3.8735   -1.0456    0.0000 H   0  0  0  0  0  0  0  0  0  0  0  0
   18.2247   -0.4929    0.0000 H   0  0  0  0  0  0  0  0  0  0  0  0
   18.4582   -1.3381    0.0000 H   0  0  0  0  0  0  0  0  0  0  0  0
   19.3033   -1.1046    0.0000 H   0  0  0  0  0  0  0  0  0  0  0  0
    6.1733   -1.4734    0.0000 H   0  0  0  0  0  0  0  0  0  0  0  0
    5.9497   -0.6256    0.0000 H   0  0  0  0  0  0  0  0  0  0  0  0
    5.1018   -0.8493    0.0000 H   0  0  0  0  0  0  0  0  0  0  0  0
   19.7785    2.1172    0.0000 H   0  0  0  0  0  0  0  0  0  0  0  0
   18.9299    2.3376    0.0000 H   0  0  0  0  0  0  0  0  0  0  0  0
   18.7094    1.4890    0.0000 H   0  0  0  0  0  0  0  0  0  0  0  0
    4.5894   -4.0654    0.0000 H   0  0  0  0  0  0  0  0  0  0  0  0
    5.4355   -4.2956    0.0000 H   0  0  0  0  0  0  0  0  0  0  0  0
    5.6657   -3.4496    0.0000 H   0  0  0  0  0  0  0  0  0  0  0  0
   22.3937   -0.0947    0.0000 H   0  0  0  0  0  0  0  0  0  0  0  0
    2.0000   -1.8234    0.0000 H   0  0  0  0  0  0  0  0  0  0  0  0
  1 31  1  0  0  0  0
  1 39  1  0  0  0  0
  2 32  1  0  0  0  0
  2 40  1  0  0  0  0
  3 39  2  0  0  0  0
  4 40  2  0  0  0  0
  5 53  1  0  0  0  0
  5129  1  0  0  0  0
  6 54  1  0  0  0  0
  6130  1  0  0  0  0
  7 53  2  0  0  0  0
  8 54  2  0  0  0  0
  9 10  1  0  0  0  0
  9 11  1  0  0  0  0
  9 17  1  0  0  0  0
  9 26  1  0  0  0  0
 10 12  1  0  0  0  0
 10 20  1  0  0  0  0
 10 28  1  0  0  0  0
 11 13  1  0  0  0  0
 11 18  1  0  0  0  0
 11 55  1  0  0  0  0
 12 14  1  0  0  0  0
 12 19  1  0  0  0  0
 12 56  1  0  0  0  0
 13 15  1  0  0  0  0
 13 21  1  0  0  0  0
 13 57  1  0  0  0  0
 14 16  1  0  0  0  0
 14 27  1  0  0  0  0
 14 30  1  0  0  0  0
 15 22  1  0  0  0  0
 15 24  1  0  0  0  0
 15 31  1  0  0  0  0
 16 23  1  0  0  0  0
 16 25  1  0  0  0  0
 16 58  1  0  0  0  0
 17 22  1  0  0  0  0
 17 59  1  0  0  0  0
 17 60  1  0  0  0  0
 18 19  1  0  0  0  0
 18 61  1  0  0  0  0
 18 62  1  0  0  0  0
 19 63  1  0  0  0  0
 19 64  1  0  0  0  0
 20 23  1  0  0  0  0
 20 65  1  0  0  0  0
 20 66  1  0  0  0  0
 21 29  1  0  0  0  0
 21 34  1  0  0  0  0
 21 67  1  0  0  0  0
 22 68  1  0  0  0  0
 22 69  1  0  0  0  0
 23 70  1  0  0  0  0
 23 71  1  0  0  0  0
 24 29  1  0  0  0  0
 24 72  1  0  0  0  0
 24 73  1  0  0  0  0
 25 32  1  0  0  0  0
 25 35  1  0  0  0  0
 25 36  1  0  0  0  0
 26 74  1  0  0  0  0
 26 75  1  0  0  0  0
 26 76  1  0  0  0  0
 27 33  1  0  0  0  0
 27 77  1  0  0  0  0
 27 78  1  0  0  0  0
 28 79  1  0  0  0  0
 28 80  1  0  0  0  0
 28 81  1  0  0  0  0
 29 82  1  0  0  0  0
 29 83  1  0  0  0  0
 30 84  1  0  0  0  0
 30 85  1  0  0  0  0
 30 86  1  0  0  0  0
 31 87  1  0  0  0  0
 31 88  1  0  0  0  0
 32 33  1  0  0  0  0
 32 89  1  0  0  0  0
 33 90  1  0  0  0  0
 33 91  1  0  0  0  0
 34 37  1  0  0  0  0
 34 38  1  0  0  0  0
 34 92  1  0  0  0  0
 35 93  1  0  0  0  0
 35 94  1  0  0  0  0
 35 95  1  0  0  0  0
 36 96  1  0  0  0  0
 36 97  1  0  0  0  0
 36 98  1  0  0  0  0
 37 99  1  0  0  0  0
 37100  1  0  0  0  0
 37101  1  0  0  0  0
 38102  1  0  0  0  0
 38103  1  0  0  0  0
 38104  1  0  0  0  0
 39 41  1  0  0  0  0
 40 42  1  0  0  0  0
 41 43  1  0  0  0  0
 41105  1  0  0  0  0
 41106  1  0  0  0  0
 42 44  1  0  0  0  0
 42107  1  0  0  0  0
 42108  1  0  0  0  0
 43 45  1  0  0  0  0
 43 47  1  0  0  0  0
 43 49  1  0  0  0  0
 44 46  1  0  0  0  0
 44 48  1  0  0  0  0
 44 50  1  0  0  0  0
 45 51  1  0  0  0  0
 45109  1  0  0  0  0
 45110  1  0  0  0  0
 46 52  1  0  0  0  0
 46111  1  0  0  0  0
 46112  1  0  0  0  0
 47 53  1  0  0  0  0
 47113  1  0  0  0  0
 47114  1  0  0  0  0
 48 54  1  0  0  0  0
 48115  1  0  0  0  0
 48116  1  0  0  0  0
 49117  1  0  0  0  0
 49118  1  0  0  0  0
 49119  1  0  0  0  0
 50120  1  0  0  0  0
 50121  1  0  0  0  0
 50122  1  0  0  0  0
 51123  1  0  0  0  0
 51124  1  0  0  0  0
 51125  1  0  0  0  0
 52126  1  0  0  0  0
 52127  1  0  0  0  0
 52128  1  0  0  0  0
M  END
> <PUBCHEM_COMPOUND_CID>
500418
> <PUBCHEM_COMPOUND_CANONICALIZED>
1
> <PUBCHEM_CACTVS_COMPLEXITY>
1440
> <PUBCHEM_CACTVS_HBOND_ACCEPTOR>
8
> <PUBCHEM_CACTVS_HBOND_DONOR>
2
> <PUBCHEM_CACTVS_ROTATABLE_BOND>
16
> <PUBCHEM_CACTVS_SUBSKEYS>
AAADcfB8PAAAAAAAAAAAAAAAAAAAAYAAAAAwYMGAAAAAAGDAAAAAGgAACAAADxSggAICCAAABgAIAACQCAAAAAAAAAAAAAEAAAAAABIAAAACQAAEAAAAAAGI5vgPgAAAAAAAAADAAAYAADAAAQAACAAAAA==
> <PUBCHEM_IUPAC_OPENEYE_NAME>
5-[[9-[3-(carboxymethyl)-3-methyl-pentanoyl]oxy-1-isopropyl-5a,5b,8,8,11a-pentamethyl-1,2,3,4,5,6,7,7a,9,10,11,11b,12,13,13a,13b-hexadecahydrocyclopenta[a]chrysen-3a-yl]methoxy]-3-ethyl-3-methyl-5-oxo-pentanoic acid
> <PUBCHEM_IUPAC_CAS_NAME>
5-[[9-[3-(carboxymethyl)-3-methyl-1-oxopentoxy]-5a,5b,8,8,11a-pentamethyl-1-propan-2-yl-1,2,3,4,5,6,7,7a,9,10,11,11b,12,13,13a,13b-hexadecahydrocyclopenta[a]chrysen-3a-yl]methoxy]-3-ethyl-3-methyl-5-oxopentanoic acid
> <PUBCHEM_IUPAC_NAME_MARKUP>
5-[[9-[3-(carboxymethyl)-3-methylpentanoyl]oxy-5<I>a</I>,5<I>b</I>,8,8,11<I>a</I>-pentamethyl-1-propan-2-yl-1,2,3,4,5,6,7,7<I>a</I>,9,10,11,11<I>b</I>,12,13,13<I>a</I>,13<I>b</I>-hexadecahydrocyclopenta[a]chrysen-3<I>a</I>-yl]methoxy]-3-ethyl-3-methyl-5-oxopentanoic acid
> <PUBCHEM_IUPAC_NAME>
5-[[9-[3-(carboxymethyl)-3-methylpentanoyl]oxy-5a,5b,8,8,11a-pentamethyl-1-propan-2-yl-1,2,3,4,5,6,7,7a,9,10,11,11b,12,13,13a,13b-hexadecahydrocyclopenta[a]chrysen-3a-yl]methoxy]-3-ethyl-3-methyl-5-oxopentanoic acid
> <PUBCHEM_IUPAC_SYSTEMATIC_NAME>
3-ethyl-5-[[9-(3-ethyl-3-methyl-5-oxidanyl-5-oxidanylidene-pentanoyl)oxy-5a,5b,8,8,11a-pentamethyl-1-propan-2-yl-1,2,3,4,5,6,7,7a,9,10,11,11b,12,13,13a,13b-hexadecahydrocyclopenta[a]chrysen-3a-yl]methoxy]-3-methyl-5-oxidanylidene-pentanoic acid
> <PUBCHEM_IUPAC_TRADITIONAL_NAME>
5-[[9-[3-(carboxymethyl)-3-methyl-pentanoyl]oxy-1-isopropyl-5a,5b,8,8,11a-pentamethyl-1,2,3,4,5,6,7,7a,9,10,11,11b,12,13,13a,13b-hexadecahydrocyclopenta[a]chrysen-3a-yl]methoxy]-3-ethyl-5-keto-3-methyl-valeric acid
> <PUBCHEM_IUPAC_INCHI>
InChI=1S/C46H76O8/c1-12-41(7,24-35(47)48)26-37(51)53-28-46-21-16-30(29(3)4)39(46)31-14-15-33-43(9)19-18-34(54-38(52)27-42(8,13-2)25-36(49)50)40(5,6)32(43)17-20-45(33,11)44(31,10)22-23-46/h29-34,39H,12-28H2,1-11H3,(H,47,48)(H,49,50)
> <PUBCHEM_IUPAC_INCHIKEY>
AYPOMMQBIVYJRS-UHFFFAOYSA-N
> <PUBCHEM_XLOGP3_AA>
11.8
> <PUBCHEM_EXACT_MASS>
756.55401938
> <PUBCHEM_MOLECULAR_FORMULA>
C46H76O8
> <PUBCHEM_MOLECULAR_WEIGHT>
757.1
> <PUBCHEM_OPENEYE_CAN_SMILES>
CCC(C)(CC(=O)O)CC(=O)OCC12CCC(C1C3CCC4C5(CCC(C(C5CCC4(C3(CC2)C)C)(C)C)OC(=O)CC(C)(CC)CC(=O)O)C)C(C)C
> <PUBCHEM_OPENEYE_ISO_SMILES>
CCC(C)(CC(=O)O)CC(=O)OCC12CCC(C1C3CCC4C5(CCC(C(C5CCC4(C3(CC2)C)C)(C)C)OC(=O)CC(C)(CC)CC(=O)O)C)C(C)C
> <PUBCHEM_CACTVS_TPSA>
127
> <PUBCHEM_MONOISOTOPIC_WEIGHT>
756.55401938
> <PUBCHEM_TOTAL_CHARGE>
0
> <PUBCHEM_HEAVY_ATOM_COUNT>
54
> <PUBCHEM_ATOM_DEF_STEREO_COUNT>
0
> <PUBCHEM_ATOM_UDEF_STEREO_COUNT>
12
> <PUBCHEM_BOND_DEF_STEREO_COUNT>
0
> <PUBCHEM_BOND_UDEF_STEREO_COUNT>
0
> <PUBCHEM_ISOTOPIC_ATOM_COUNT>
0
> <PUBCHEM_COMPONENT_COUNT>
1
> <PUBCHEM_CACTVS_TAUTO_COUNT>
-1
> <PUBCHEM_COORDINATE_TYPE>
1
5
255
> <PUBCHEM_BONDANNOTATIONS>
10  28  3
11  18  3
12  19  3
13  21  3
14  30  3
15  31  3
16  23  3
32  2  3
21  34  3
43  49  3
44  50  3
9  26  3
$$$$
