500475
  -OEChem-10302200282D
 30 32  0     1  0  0  0  0  0999 V2000
    2.0000    0.2915    0.0000 Cl  0  0  0  0  0  0  0  0  0  0  0  0
    9.8602    1.7673    0.0000 Cl  0  0  0  0  0  0  0  0  0  0  0  0
    5.5301   -1.7327    0.0000 O   0  0  0  0  0  0  0  0  0  0  0  0
    6.3961   -0.2327    0.0000 C   0  0  3  0  0  0  0  0  0  0  0  0
    5.5301    0.2673    0.0000 C   0  0  0  0  0  0  0  0  0  0  0  0
    6.3961   -1.2327    0.0000 C   0  0  0  0  0  0  0  0  0  0  0  0
    4.6641   -0.2327    0.0000 C   0  0  0  0  0  0  0  0  0  0  0  0
    7.2622    0.2673    0.0000 C   0  0  0  0  0  0  0  0  0  0  0  0
    4.6641   -1.2327    0.0000 C   0  0  0  0  0  0  0  0  0  0  0  0
    3.7702    0.3020    0.0000 C   0  0  0  0  0  0  0  0  0  0  0  0
    8.1282   -0.2327    0.0000 C   0  0  0  0  0  0  0  0  0  0  0  0
    7.2622    1.2673    0.0000 C   0  0  0  0  0  0  0  0  0  0  0  0
    3.7702   -1.7673    0.0000 C   0  0  0  0  0  0  0  0  0  0  0  0
    2.8641   -0.2119    0.0000 C   0  0  0  0  0  0  0  0  0  0  0  0
    2.8641   -1.2535    0.0000 C   0  0  0  0  0  0  0  0  0  0  0  0
    8.9942    0.2673    0.0000 C   0  0  0  0  0  0  0  0  0  0  0  0
    8.1282    1.7673    0.0000 C   0  0  0  0  0  0  0  0  0  0  0  0
    8.9942    1.2673    0.0000 C   0  0  0  0  0  0  0  0  0  0  0  0
    6.9331   -0.5427    0.0000 H   0  0  0  0  0  0  0  0  0  0  0  0
    5.9286    0.7423    0.0000 H   0  0  0  0  0  0  0  0  0  0  0  0
    5.1316    0.7423    0.0000 H   0  0  0  0  0  0  0  0  0  0  0  0
    6.6082   -1.8153    0.0000 H   0  0  0  0  0  0  0  0  0  0  0  0
    7.0067   -1.1250    0.0000 H   0  0  0  0  0  0  0  0  0  0  0  0
    3.7773    0.9220    0.0000 H   0  0  0  0  0  0  0  0  0  0  0  0
    8.1282   -0.8527    0.0000 H   0  0  0  0  0  0  0  0  0  0  0  0
    6.7252    1.5773    0.0000 H   0  0  0  0  0  0  0  0  0  0  0  0
    3.7773   -2.3873    0.0000 H   0  0  0  0  0  0  0  0  0  0  0  0
    2.3284   -1.5656    0.0000 H   0  0  0  0  0  0  0  0  0  0  0  0
    9.5312   -0.0427    0.0000 H   0  0  0  0  0  0  0  0  0  0  0  0
    8.1282    2.3873    0.0000 H   0  0  0  0  0  0  0  0  0  0  0  0
  1 14  1  0  0  0  0
  2 18  1  0  0  0  0
  3  6  1  0  0  0  0
  3  9  1  0  0  0  0
  4  5  1  0  0  0  0
  4  6  1  0  0  0  0
  4  8  1  0  0  0  0
  4 19  1  0  0  0  0
  5  7  1  0  0  0  0
  5 20  1  0  0  0  0
  5 21  1  0  0  0  0
  6 22  1  0  0  0  0
  6 23  1  0  0  0  0
  7  9  2  0  0  0  0
  7 10  1  0  0  0  0
  8 11  2  0  0  0  0
  8 12  1  0  0  0  0
  9 13  1  0  0  0  0
 10 14  2  0  0  0  0
 10 24  1  0  0  0  0
 11 16  1  0  0  0  0
 11 25  1  0  0  0  0
 12 17  2  0  0  0  0
 12 26  1  0  0  0  0
 13 15  2  0  0  0  0
 13 27  1  0  0  0  0
 14 15  1  0  0  0  0
 15 28  1  0  0  0  0
 16 18  2  0  0  0  0
 16 29  1  0  0  0  0
 17 18  1  0  0  0  0
 17 30  1  0  0  0  0
M  END
> <PUBCHEM_COMPOUND_CID>
500475
> <PUBCHEM_COMPOUND_CANONICALIZED>
1
> <PUBCHEM_CACTVS_COMPLEXITY>
276
> <PUBCHEM_CACTVS_HBOND_ACCEPTOR>
1
> <PUBCHEM_CACTVS_HBOND_DONOR>
0
> <PUBCHEM_CACTVS_ROTATABLE_BOND>
1
> <PUBCHEM_CACTVS_SUBSKEYS>
AAADccBwIAAGAAAAAAAAAAAAAAAAAAAAAAA0YIAAAAAAAACRQAAAGgIAAAAADQagmCIwBoAABACAAiBCAAACCAAgJQAIiAAGCogMJiKFMxqCOCCkwBEIqAeAwPAOhCAAIAAIAAAIQABAABAAAAAAAAAAAA==
> <PUBCHEM_IUPAC_OPENEYE_NAME>
6-chloro-3-(4-chlorophenyl)chromane
> <PUBCHEM_IUPAC_CAS_NAME>
6-chloro-3-(4-chlorophenyl)-3,4-dihydro-2H-1-benzopyran
> <PUBCHEM_IUPAC_NAME_MARKUP>
6-chloro-3-(4-chlorophenyl)-3,4-dihydro-2<I>H</I>-chromene
> <PUBCHEM_IUPAC_NAME>
6-chloro-3-(4-chlorophenyl)-3,4-dihydro-2H-chromene
> <PUBCHEM_IUPAC_SYSTEMATIC_NAME>
6-chloranyl-3-(4-chlorophenyl)-3,4-dihydro-2H-chromene
> <PUBCHEM_IUPAC_TRADITIONAL_NAME>
6-chloro-3-(4-chlorophenyl)chroman
> <PUBCHEM_IUPAC_INCHI>
InChI=1S/C15H12Cl2O/c16-13-3-1-10(2-4-13)12-7-11-8-14(17)5-6-15(11)18-9-12/h1-6,8,12H,7,9H2
> <PUBCHEM_IUPAC_INCHIKEY>
RWDZXKPGEKJLLQ-UHFFFAOYSA-N
> <PUBCHEM_XLOGP3_AA>
4.9
> <PUBCHEM_EXACT_MASS>
278.0265204
> <PUBCHEM_MOLECULAR_FORMULA>
C15H12Cl2O
> <PUBCHEM_MOLECULAR_WEIGHT>
279.2
> <PUBCHEM_OPENEYE_CAN_SMILES>
C1C(COC2=C1C=C(C=C2)Cl)C3=CC=C(C=C3)Cl
> <PUBCHEM_OPENEYE_ISO_SMILES>
C1C(COC2=C1C=C(C=C2)Cl)C3=CC=C(C=C3)Cl
> <PUBCHEM_CACTVS_TPSA>
9.2
> <PUBCHEM_MONOISOTOPIC_WEIGHT>
278.0265204
> <PUBCHEM_TOTAL_CHARGE>
0
> <PUBCHEM_HEAVY_ATOM_COUNT>
18
> <PUBCHEM_ATOM_DEF_STEREO_COUNT>
0
> <PUBCHEM_ATOM_UDEF_STEREO_COUNT>
1
> <PUBCHEM_BOND_DEF_STEREO_COUNT>
0
> <PUBCHEM_BOND_UDEF_STEREO_COUNT>
0
> <PUBCHEM_ISOTOPIC_ATOM_COUNT>
0
> <PUBCHEM_COMPONENT_COUNT>
1
> <PUBCHEM_CACTVS_TAUTO_COUNT>
-1
> <PUBCHEM_COORDINATE_TYPE>
1
5
255
> <PUBCHEM_BONDANNOTATIONS>
10  14  8
11  16  8
12  17  8
13  15  8
14  15  8
16  18  8
17  18  8
4  8  3
7  10  8
7  9  8
8  11  8
8  12  8
9  13  8
$$$$
