500454
  -OEChem-10302200282D
 63 66  0     1  0  0  0  0  0999 V2000
    3.5026   -2.2949    0.0000 O   0  0  0  0  0  0  0  0  0  0  0  0
    2.5576   -1.8334    0.0000 O   0  0  0  0  0  0  0  0  0  0  0  0
    3.2847    0.7733    0.0000 O   0  0  0  0  0  0  0  0  0  0  0  0
    4.3867    3.8612    0.0000 O   0  0  0  0  0  0  0  0  0  0  0  0
    4.4893   -3.7185    0.0000 O   0  0  0  0  0  0  0  0  0  0  0  0
    7.4798    2.4924    0.0000 O   0  0  0  0  0  0  0  0  0  0  0  0
    9.1350    1.9819    0.0000 O   0  0  0  0  0  0  0  0  0  0  0  0
    5.1805   -1.1319    0.0000 C   0  0  1  0  0  0  0  0  0  0  0  0
    4.3244   -1.7253    0.0000 C   0  0  1  0  0  0  0  0  0  0  0  0
    5.2667   -2.1704    0.0000 C   0  0  0  0  0  0  0  0  0  0  0  0
    5.0867   -0.0945    0.0000 C   0  0  1  0  0  0  0  0  0  0  0  0
    3.3860   -1.2733    0.0000 C   0  0  1  0  0  0  0  0  0  0  0  0
    4.1857    0.3394    0.0000 C   0  0  1  0  0  0  0  0  0  0  0  0
    3.3161   -0.2340    0.0000 C   0  0  2  0  0  0  0  0  0  0  0  0
    6.2633   -2.0880    0.0000 C   0  0  0  0  0  0  0  0  0  0  0  0
    4.8398   -3.0747    0.0000 C   0  0  0  0  0  0  0  0  0  0  0  0
    3.9632    1.3143    0.0000 C   0  0  1  0  0  0  0  0  0  0  0  0
    5.9876    0.3394    0.0000 C   0  0  0  0  0  0  0  0  0  0  0  0
    4.5867    2.0962    0.0000 C   0  0  1  0  0  0  0  0  0  0  0  0
    2.3181   -0.2972    0.0000 C   0  0  0  0  0  0  0  0  0  0  0  0
    6.2102    1.3143    0.0000 C   0  0  0  0  0  0  0  0  0  0  0  0
    5.5867    2.0962    0.0000 C   0  0  0  0  0  0  0  0  0  0  0  0
    3.0334    1.6660    0.0000 C   0  0  0  0  0  0  0  0  0  0  0  0
    4.0369    2.9244    0.0000 C   0  0  0  0  0  0  0  0  0  0  0  0
    3.5850   -3.2915    0.0000 C   0  0  0  0  0  0  0  0  0  0  0  0
    3.0789    2.6591    0.0000 C   0  0  0  0  0  0  0  0  0  0  0  0
    7.1851    1.5368    0.0000 C   0  0  0  0  0  0  0  0  0  0  0  0
    2.7631   -3.8612    0.0000 C   0  0  0  0  0  0  0  0  0  0  0  0
    2.2970    3.2826    0.0000 C   0  0  0  0  0  0  0  0  0  0  0  0
    8.4548    2.7149    0.0000 C   0  0  0  0  0  0  0  0  0  0  0  0
    8.7495    3.6705    0.0000 C   0  0  0  0  0  0  0  0  0  0  0  0
    6.0274   -1.0584    0.0000 H   0  0  0  0  0  0  0  0  0  0  0  0
    5.8261   -0.5138    0.0000 H   0  0  0  0  0  0  0  0  0  0  0  0
    2.8289   -1.0011    0.0000 H   0  0  0  0  0  0  0  0  0  0  0  0
    3.1193    0.3539    0.0000 H   0  0  0  0  0  0  0  0  0  0  0  0
    6.3144   -2.7059    0.0000 H   0  0  0  0  0  0  0  0  0  0  0  0
    6.8812   -2.0369    0.0000 H   0  0  0  0  0  0  0  0  0  0  0  0
    6.2122   -1.4701    0.0000 H   0  0  0  0  0  0  0  0  0  0  0  0
    4.2791   -2.8100    0.0000 H   0  0  0  0  0  0  0  0  0  0  0  0
    4.5751   -3.6354    0.0000 H   0  0  0  0  0  0  0  0  0  0  0  0
    5.4004   -3.3394    0.0000 H   0  0  0  0  0  0  0  0  0  0  0  0
    4.7919    1.1252    0.0000 H   0  0  0  0  0  0  0  0  0  0  0  0
    6.4724   -0.0472    0.0000 H   0  0  0  0  0  0  0  0  0  0  0  0
    4.9885    2.8452    0.0000 H   0  0  0  0  0  0  0  0  0  0  0  0
    2.2790    0.3215    0.0000 H   0  0  0  0  0  0  0  0  0  0  0  0
    1.6994   -0.3364    0.0000 H   0  0  0  0  0  0  0  0  0  0  0  0
    2.3573   -0.9160    0.0000 H   0  0  0  0  0  0  0  0  0  0  0  0
    2.0000   -1.5623    0.0000 H   0  0  0  0  0  0  0  0  0  0  0  0
    2.6665    0.7270    0.0000 H   0  0  0  0  0  0  0  0  0  0  0  0
    6.1453    2.3652    0.0000 H   0  0  0  0  0  0  0  0  0  0  0  0
    5.4487    2.7006    0.0000 H   0  0  0  0  0  0  0  0  0  0  0  0
    2.5154    1.3254    0.0000 H   0  0  0  0  0  0  0  0  0  0  0  0
    7.2160    0.9176    0.0000 H   0  0  0  0  0  0  0  0  0  0  0  0
    7.8003    1.4598    0.0000 H   0  0  0  0  0  0  0  0  0  0  0  0
    2.4099   -3.3516    0.0000 H   0  0  0  0  0  0  0  0  0  0  0  0
    2.2536   -4.2144    0.0000 H   0  0  0  0  0  0  0  0  0  0  0  0
    3.1163   -4.3708    0.0000 H   0  0  0  0  0  0  0  0  0  0  0  0
    2.6836    3.7673    0.0000 H   0  0  0  0  0  0  0  0  0  0  0  0
    1.8123    3.6691    0.0000 H   0  0  0  0  0  0  0  0  0  0  0  0
    1.9105    2.7978    0.0000 H   0  0  0  0  0  0  0  0  0  0  0  0
    9.3420    3.4878    0.0000 H   0  0  0  0  0  0  0  0  0  0  0  0
    8.9323    4.2630    0.0000 H   0  0  0  0  0  0  0  0  0  0  0  0
    8.1571    3.8533    0.0000 H   0  0  0  0  0  0  0  0  0  0  0  0
  9  1  1  1  0  0  0
  1 25  1  0  0  0  0
 12  2  1  6  0  0  0
  2 48  1  0  0  0  0
 13  3  1  1  0  0  0
  3 49  1  0  0  0  0
  4 24  2  0  0  0  0
  5 25  2  0  0  0  0
  6 27  1  0  0  0  0
  6 30  1  0  0  0  0
  7 30  2  0  0  0  0
  8  9  1  0  0  0  0
  8 10  1  0  0  0  0
  8 11  1  0  0  0  0
  8 32  1  1  0  0  0
  9 10  1  0  0  0  0
  9 12  1  0  0  0  0
 10 15  1  0  0  0  0
 10 16  1  0  0  0  0
 11 13  1  0  0  0  0
 11 18  1  0  0  0  0
 11 33  1  6  0  0  0
 12 14  1  0  0  0  0
 12 34  1  0  0  0  0
 13 14  1  0  0  0  0
 13 17  1  0  0  0  0
 14 20  1  1  0  0  0
 14 35  1  0  0  0  0
 15 36  1  0  0  0  0
 15 37  1  0  0  0  0
 15 38  1  0  0  0  0
 16 39  1  0  0  0  0
 16 40  1  0  0  0  0
 16 41  1  0  0  0  0
 17 19  1  0  0  0  0
 17 23  1  0  0  0  0
 17 42  1  1  0  0  0
 18 21  2  0  0  0  0
 18 43  1  0  0  0  0
 19 22  1  0  0  0  0
 19 24  1  0  0  0  0
 19 44  1  1  0  0  0
 20 45  1  0  0  0  0
 20 46  1  0  0  0  0
 20 47  1  0  0  0  0
 21 22  1  0  0  0  0
 21 27  1  0  0  0  0
 22 50  1  0  0  0  0
 22 51  1  0  0  0  0
 23 26  2  0  0  0  0
 23 52  1  0  0  0  0
 24 26  1  0  0  0  0
 25 28  1  0  0  0  0
 26 29  1  0  0  0  0
 27 53  1  0  0  0  0
 27 54  1  0  0  0  0
 28 55  1  0  0  0  0
 28 56  1  0  0  0  0
 28 57  1  0  0  0  0
 29 58  1  0  0  0  0
 29 59  1  0  0  0  0
 29 60  1  0  0  0  0
 30 31  1  0  0  0  0
 31 61  1  0  0  0  0
 31 62  1  0  0  0  0
 31 63  1  0  0  0  0
M  END
> <PUBCHEM_COMPOUND_CID>
500454
> <PUBCHEM_COMPOUND_CANONICALIZED>
1
> <PUBCHEM_CACTVS_COMPLEXITY>
915
> <PUBCHEM_CACTVS_HBOND_ACCEPTOR>
7
> <PUBCHEM_CACTVS_HBOND_DONOR>
2
> <PUBCHEM_CACTVS_ROTATABLE_BOND>
5
> <PUBCHEM_CACTVS_SUBSKEYS>
AAADcfB4OAAAAAAAAAAAAAAAGAAAAQAAAAAwAAAABggAAACAAAAAGgAACAAAD1SggAICCAAABgCIAqDSCAAAAAAgAAAACAEAAEgBFBIAIQACUAAFwAALIYPK7PyPgAAAAAAAAADCAAYQADCAAAAAAAAAAA==
> <PUBCHEM_IUPAC_OPENEYE_NAME>
[(1R,2R,6R,10S,11R,13S,14R,15R)-13-acetoxy-1,14-dihydroxy-4,12,12,15-tetramethyl-5-oxo-8-tetracyclo[8.5.0.02,6.011,13]pentadeca-3,8-dienyl]methyl acetate
> <PUBCHEM_IUPAC_CAS_NAME>
acetic acid [(1R,2R,6R,10S,11R,13S,14R,15R)-13-acetyloxy-1,14-dihydroxy-4,12,12,15-tetramethyl-5-oxo-8-tetracyclo[8.5.0.02,6.011,13]pentadeca-3,8-dienyl]methyl ester
> <PUBCHEM_IUPAC_NAME_MARKUP>
[(1<I>R</I>,2<I>R</I>,6<I>R</I>,10<I>S</I>,11<I>R</I>,13<I>S</I>,14<I>R</I>,15<I>R</I>)-13-acetyloxy-1,14-dihydroxy-4,12,12,15-tetramethyl-5-oxo-8-tetracyclo[8.5.0.0<SUP>2,6</SUP>.0<SUP>11,13</SUP>]pentadeca-3,8-dienyl]methyl acetate
> <PUBCHEM_IUPAC_NAME>
[(1R,2R,6R,10S,11R,13S,14R,15R)-13-acetyloxy-1,14-dihydroxy-4,12,12,15-tetramethyl-5-oxo-8-tetracyclo[8.5.0.02,6.011,13]pentadeca-3,8-dienyl]methyl acetate
> <PUBCHEM_IUPAC_SYSTEMATIC_NAME>
[(1R,2R,6R,10S,11R,13S,14R,15R)-13-acetyloxy-4,12,12,15-tetramethyl-1,14-bis(oxidanyl)-5-oxidanylidene-8-tetracyclo[8.5.0.02,6.011,13]pentadeca-3,8-dienyl]methyl ethanoate
> <PUBCHEM_IUPAC_TRADITIONAL_NAME>
acetic acid [(1R,2R,6R,10S,11R,13S,14R,15R)-13-acetoxy-1,14-dihydroxy-5-keto-4,12,12,15-tetramethyl-8-tetracyclo[8.5.0.02,6.011,13]pentadeca-3,8-dienyl]methyl ester
> <PUBCHEM_IUPAC_INCHI>
InChI=1S/C24H32O7/c1-11-7-17-16(19(11)27)8-15(10-30-13(3)25)9-18-20-22(5,6)24(20,31-14(4)26)21(28)12(2)23(17,18)29/h7,9,12,16-18,20-21,28-29H,8,10H2,1-6H3/t12-,16-,17-,18+,20-,21-,23+,24-/m1/s1
> <PUBCHEM_IUPAC_INCHIKEY>
BQHYSBSELLEXGP-FAZPMBSGSA-N
> <PUBCHEM_XLOGP3_AA>
1.1
> <PUBCHEM_EXACT_MASS>
432.21480336
> <PUBCHEM_MOLECULAR_FORMULA>
C24H32O7
> <PUBCHEM_MOLECULAR_WEIGHT>
432.5
> <PUBCHEM_OPENEYE_CAN_SMILES>
CC1C(C2(C(C2(C)C)C3C1(C4C=C(C(=O)C4CC(=C3)COC(=O)C)C)O)OC(=O)C)O
> <PUBCHEM_OPENEYE_ISO_SMILES>
C[C@@H]1[C@H]([C@@]2([C@@H](C2(C)C)[C@H]3[C@]1([C@@H]4C=C(C(=O)[C@@H]4CC(=C3)COC(=O)C)C)O)OC(=O)C)O
> <PUBCHEM_CACTVS_TPSA>
110
> <PUBCHEM_MONOISOTOPIC_WEIGHT>
432.21480336
> <PUBCHEM_TOTAL_CHARGE>
0
> <PUBCHEM_HEAVY_ATOM_COUNT>
31
> <PUBCHEM_ATOM_DEF_STEREO_COUNT>
8
> <PUBCHEM_ATOM_UDEF_STEREO_COUNT>
0
> <PUBCHEM_BOND_DEF_STEREO_COUNT>
0
> <PUBCHEM_BOND_UDEF_STEREO_COUNT>
0
> <PUBCHEM_ISOTOPIC_ATOM_COUNT>
0
> <PUBCHEM_COMPONENT_COUNT>
1
> <PUBCHEM_CACTVS_TAUTO_COUNT>
7
> <PUBCHEM_COORDINATE_TYPE>
1
5
255
> <PUBCHEM_BONDANNOTATIONS>
9  1  5
11  33  6
14  20  5
17  42  5
19  44  5
12  2  6
13  3  5
8  32  5
$$$$
