500448
  -OEChem-10302200282D
 99102  0     1  0  0  0  0  0999 V2000
   13.3112   -2.2949    0.0000 O   0  0  0  0  0  0  0  0  0  0  0  0
   12.3662   -1.8334    0.0000 O   0  0  0  0  0  0  0  0  0  0  0  0
   13.0933    0.7733    0.0000 O   0  0  0  0  0  0  0  0  0  0  0  0
   15.0188    2.8780    0.0000 O   0  0  0  0  0  0  0  0  0  0  0  0
   14.1953    3.8612    0.0000 O   0  0  0  0  0  0  0  0  0  0  0  0
   14.2979   -3.7185    0.0000 O   0  0  0  0  0  0  0  0  0  0  0  0
   17.6739    0.8038    0.0000 O   0  0  0  0  0  0  0  0  0  0  0  0
   11.3960   -0.3986    0.0000 O   0  0  0  0  0  0  0  0  0  0  0  0
   18.9436    1.9819    0.0000 O   0  0  0  0  0  0  0  0  0  0  0  0
   14.9891   -1.1319    0.0000 C   0  0  1  0  0  0  0  0  0  0  0  0
   14.1330   -1.7253    0.0000 C   0  0  1  0  0  0  0  0  0  0  0  0
   15.0753   -2.1704    0.0000 C   0  0  0  0  0  0  0  0  0  0  0  0
   14.8953   -0.0945    0.0000 C   0  0  1  0  0  0  0  0  0  0  0  0
   13.1946   -1.2733    0.0000 C   0  0  1  0  0  0  0  0  0  0  0  0
   13.9943    0.3394    0.0000 C   0  0  1  0  0  0  0  0  0  0  0  0
   13.1247   -0.2340    0.0000 C   0  0  2  0  0  0  0  0  0  0  0  0
   16.0719   -2.0880    0.0000 C   0  0  0  0  0  0  0  0  0  0  0  0
   14.6484   -3.0747    0.0000 C   0  0  0  0  0  0  0  0  0  0  0  0
   13.7718    1.3143    0.0000 C   0  0  1  0  0  0  0  0  0  0  0  0
   15.7963    0.3394    0.0000 C   0  0  0  0  0  0  0  0  0  0  0  0
   14.3953    2.0962    0.0000 C   0  0  2  0  0  0  0  0  0  0  0  0
   12.1267   -0.2972    0.0000 C   0  0  0  0  0  0  0  0  0  0  0  0
   16.0188    1.3143    0.0000 C   0  0  0  0  0  0  0  0  0  0  0  0
   15.3953    2.0962    0.0000 C   0  0  0  0  0  0  0  0  0  0  0  0
   12.8420    1.6660    0.0000 C   0  0  0  0  0  0  0  0  0  0  0  0
   13.8455    2.9244    0.0000 C   0  0  0  0  0  0  0  0  0  0  0  0
   13.3936   -3.2915    0.0000 C   0  0  0  0  0  0  0  0  0  0  0  0
   12.8875    2.6591    0.0000 C   0  0  0  0  0  0  0  0  0  0  0  0
   11.4669   -1.3961    0.0000 C   0  0  0  0  0  0  0  0  0  0  0  0
   16.9937    1.5368    0.0000 C   0  0  0  0  0  0  0  0  0  0  0  0
   12.5717   -3.8612    0.0000 C   0  0  0  0  0  0  0  0  0  0  0  0
   12.1056    3.2826    0.0000 C   0  0  0  0  0  0  0  0  0  0  0  0
   10.6385   -1.9562    0.0000 C   0  0  0  0  0  0  0  0  0  0  0  0
    9.7392   -1.5189    0.0000 C   0  0  0  0  0  0  0  0  0  0  0  0
   18.6488    1.0263    0.0000 C   0  0  0  0  0  0  0  0  0  0  0  0
    8.9108   -2.0790    0.0000 C   0  0  0  0  0  0  0  0  0  0  0  0
    8.0115   -1.6416    0.0000 C   0  0  0  0  0  0  0  0  0  0  0  0
   19.3290    0.2933    0.0000 C   0  0  0  0  0  0  0  0  0  0  0  0
    7.1831   -2.2018    0.0000 C   0  0  0  0  0  0  0  0  0  0  0  0
    6.2838   -1.7644    0.0000 C   0  0  0  0  0  0  0  0  0  0  0  0
    5.4554   -2.3246    0.0000 C   0  0  0  0  0  0  0  0  0  0  0  0
    4.5561   -1.8872    0.0000 C   0  0  0  0  0  0  0  0  0  0  0  0
    3.7277   -2.4473    0.0000 C   0  0  0  0  0  0  0  0  0  0  0  0
    2.8284   -2.0100    0.0000 C   0  0  0  0  0  0  0  0  0  0  0  0
    2.0000   -2.5701    0.0000 C   0  0  0  0  0  0  0  0  0  0  0  0
   15.8360   -1.0584    0.0000 H   0  0  0  0  0  0  0  0  0  0  0  0
   15.6347   -0.5138    0.0000 H   0  0  0  0  0  0  0  0  0  0  0  0
   12.6375   -1.0011    0.0000 H   0  0  0  0  0  0  0  0  0  0  0  0
   12.9279    0.3539    0.0000 H   0  0  0  0  0  0  0  0  0  0  0  0
   16.1230   -2.7059    0.0000 H   0  0  0  0  0  0  0  0  0  0  0  0
   16.6898   -2.0369    0.0000 H   0  0  0  0  0  0  0  0  0  0  0  0
   16.0208   -1.4701    0.0000 H   0  0  0  0  0  0  0  0  0  0  0  0
   14.0877   -2.8100    0.0000 H   0  0  0  0  0  0  0  0  0  0  0  0
   14.3837   -3.6354    0.0000 H   0  0  0  0  0  0  0  0  0  0  0  0
   15.2090   -3.3394    0.0000 H   0  0  0  0  0  0  0  0  0  0  0  0
   14.6005    1.1252    0.0000 H   0  0  0  0  0  0  0  0  0  0  0  0
   16.2810   -0.0472    0.0000 H   0  0  0  0  0  0  0  0  0  0  0  0
   12.0876    0.3215    0.0000 H   0  0  0  0  0  0  0  0  0  0  0  0
   11.5080   -0.3364    0.0000 H   0  0  0  0  0  0  0  0  0  0  0  0
   12.1659   -0.9160    0.0000 H   0  0  0  0  0  0  0  0  0  0  0  0
   12.4751    0.7270    0.0000 H   0  0  0  0  0  0  0  0  0  0  0  0
   15.9539    2.3652    0.0000 H   0  0  0  0  0  0  0  0  0  0  0  0
   15.2573    2.7006    0.0000 H   0  0  0  0  0  0  0  0  0  0  0  0
   12.3240    1.3254    0.0000 H   0  0  0  0  0  0  0  0  0  0  0  0
   15.6318    2.7856    0.0000 H   0  0  0  0  0  0  0  0  0  0  0  0
   17.5145    1.8732    0.0000 H   0  0  0  0  0  0  0  0  0  0  0  0
   16.7529    2.1082    0.0000 H   0  0  0  0  0  0  0  0  0  0  0  0
   12.2185   -3.3516    0.0000 H   0  0  0  0  0  0  0  0  0  0  0  0
   12.0622   -4.2144    0.0000 H   0  0  0  0  0  0  0  0  0  0  0  0
   12.9249   -4.3708    0.0000 H   0  0  0  0  0  0  0  0  0  0  0  0
   12.4922    3.7673    0.0000 H   0  0  0  0  0  0  0  0  0  0  0  0
   11.6209    3.6691    0.0000 H   0  0  0  0  0  0  0  0  0  0  0  0
   11.7191    2.7978    0.0000 H   0  0  0  0  0  0  0  0  0  0  0  0
   10.2746   -2.4582    0.0000 H   0  0  0  0  0  0  0  0  0  0  0  0
   11.0697   -2.4017    0.0000 H   0  0  0  0  0  0  0  0  0  0  0  0
   10.1030   -1.0169    0.0000 H   0  0  0  0  0  0  0  0  0  0  0  0
    9.3080   -1.0734    0.0000 H   0  0  0  0  0  0  0  0  0  0  0  0
    8.5469   -2.5810    0.0000 H   0  0  0  0  0  0  0  0  0  0  0  0
    9.3420   -2.5245    0.0000 H   0  0  0  0  0  0  0  0  0  0  0  0
    8.3753   -1.1396    0.0000 H   0  0  0  0  0  0  0  0  0  0  0  0
    7.5803   -1.1962    0.0000 H   0  0  0  0  0  0  0  0  0  0  0  0
   18.8745   -0.1284    0.0000 H   0  0  0  0  0  0  0  0  0  0  0  0
   19.7507   -0.1612    0.0000 H   0  0  0  0  0  0  0  0  0  0  0  0
   19.7835    0.7150    0.0000 H   0  0  0  0  0  0  0  0  0  0  0  0
    6.8192   -2.7038    0.0000 H   0  0  0  0  0  0  0  0  0  0  0  0
    7.6143   -2.6473    0.0000 H   0  0  0  0  0  0  0  0  0  0  0  0
    6.6476   -1.2624    0.0000 H   0  0  0  0  0  0  0  0  0  0  0  0
    5.8526   -1.3189    0.0000 H   0  0  0  0  0  0  0  0  0  0  0  0
    5.0915   -2.8266    0.0000 H   0  0  0  0  0  0  0  0  0  0  0  0
    5.8866   -2.7701    0.0000 H   0  0  0  0  0  0  0  0  0  0  0  0
    4.9200   -1.3852    0.0000 H   0  0  0  0  0  0  0  0  0  0  0  0
    4.1249   -1.4417    0.0000 H   0  0  0  0  0  0  0  0  0  0  0  0
    3.3638   -2.9493    0.0000 H   0  0  0  0  0  0  0  0  0  0  0  0
    4.1589   -2.8928    0.0000 H   0  0  0  0  0  0  0  0  0  0  0  0
    3.1923   -1.5080    0.0000 H   0  0  0  0  0  0  0  0  0  0  0  0
    2.3972   -1.5645    0.0000 H   0  0  0  0  0  0  0  0  0  0  0  0
    1.6527   -2.0565    0.0000 H   0  0  0  0  0  0  0  0  0  0  0  0
    1.4864   -2.9174    0.0000 H   0  0  0  0  0  0  0  0  0  0  0  0
    2.3473   -3.0837    0.0000 H   0  0  0  0  0  0  0  0  0  0  0  0
 11  1  1  1  0  0  0
  1 27  1  0  0  0  0
 14  2  1  6  0  0  0
  2 29  1  0  0  0  0
 15  3  1  1  0  0  0
  3 61  1  0  0  0  0
 21  4  1  1  0  0  0
  4 65  1  0  0  0  0
  5 26  2  0  0  0  0
  6 27  2  0  0  0  0
  7 30  1  0  0  0  0
  7 35  1  0  0  0  0
  8 29  2  0  0  0  0
  9 35  2  0  0  0  0
 10 11  1  0  0  0  0
 10 12  1  0  0  0  0
 10 13  1  0  0  0  0
 10 46  1  1  0  0  0
 11 12  1  0  0  0  0
 11 14  1  0  0  0  0
 12 17  1  0  0  0  0
 12 18  1  0  0  0  0
 13 15  1  0  0  0  0
 13 20  1  0  0  0  0
 13 47  1  6  0  0  0
 14 16  1  0  0  0  0
 14 48  1  0  0  0  0
 15 16  1  0  0  0  0
 15 19  1  0  0  0  0
 16 22  1  1  0  0  0
 16 49  1  0  0  0  0
 17 50  1  0  0  0  0
 17 51  1  0  0  0  0
 17 52  1  0  0  0  0
 18 53  1  0  0  0  0
 18 54  1  0  0  0  0
 18 55  1  0  0  0  0
 19 21  1  0  0  0  0
 19 25  1  0  0  0  0
 19 56  1  1  0  0  0
 20 23  2  0  0  0  0
 20 57  1  0  0  0  0
 21 24  1  0  0  0  0
 21 26  1  0  0  0  0
 22 58  1  0  0  0  0
 22 59  1  0  0  0  0
 22 60  1  0  0  0  0
 23 24  1  0  0  0  0
 23 30  1  0  0  0  0
 24 62  1  0  0  0  0
 24 63  1  0  0  0  0
 25 28  2  0  0  0  0
 25 64  1  0  0  0  0
 26 28  1  0  0  0  0
 27 31  1  0  0  0  0
 28 32  1  0  0  0  0
 29 33  1  0  0  0  0
 30 66  1  0  0  0  0
 30 67  1  0  0  0  0
 31 68  1  0  0  0  0
 31 69  1  0  0  0  0
 31 70  1  0  0  0  0
 32 71  1  0  0  0  0
 32 72  1  0  0  0  0
 32 73  1  0  0  0  0
 33 34  1  0  0  0  0
 33 74  1  0  0  0  0
 33 75  1  0  0  0  0
 34 36  1  0  0  0  0
 34 76  1  0  0  0  0
 34 77  1  0  0  0  0
 35 38  1  0  0  0  0
 36 37  1  0  0  0  0
 36 78  1  0  0  0  0
 36 79  1  0  0  0  0
 37 39  1  0  0  0  0
 37 80  1  0  0  0  0
 37 81  1  0  0  0  0
 38 82  1  0  0  0  0
 38 83  1  0  0  0  0
 38 84  1  0  0  0  0
 39 40  1  0  0  0  0
 39 85  1  0  0  0  0
 39 86  1  0  0  0  0
 40 41  1  0  0  0  0
 40 87  1  0  0  0  0
 40 88  1  0  0  0  0
 41 42  1  0  0  0  0
 41 89  1  0  0  0  0
 41 90  1  0  0  0  0
 42 43  1  0  0  0  0
 42 91  1  0  0  0  0
 42 92  1  0  0  0  0
 43 44  1  0  0  0  0
 43 93  1  0  0  0  0
 43 94  1  0  0  0  0
 44 45  1  0  0  0  0
 44 95  1  0  0  0  0
 44 96  1  0  0  0  0
 45 97  1  0  0  0  0
 45 98  1  0  0  0  0
 45 99  1  0  0  0  0
M  END
> <PUBCHEM_COMPOUND_CID>
500448
> <PUBCHEM_COMPOUND_CANONICALIZED>
1
> <PUBCHEM_CACTVS_COMPLEXITY>
1230
> <PUBCHEM_CACTVS_HBOND_ACCEPTOR>
9
> <PUBCHEM_CACTVS_HBOND_DONOR>
2
> <PUBCHEM_CACTVS_ROTATABLE_BOND>
17
> <PUBCHEM_CACTVS_SUBSKEYS>
AAADcfB8PAAAAAAAAAAAAAAAGAAAAQAAAAAwAAAABggAAACAAAAAGgAACAAAD1SggAICCAAABgCIAqDSCAIAAAAgAAAACAFAAEgBBBIAIQACUAAFwAAKIYPK7PyPgAAAAAAAAADCAAYQADCAAAAAAAAAAA==
> <PUBCHEM_IUPAC_OPENEYE_NAME>
[(1S,2S,6S,10S,11R,13S,14R,15R)-13-acetoxy-8-(acetoxymethyl)-1,6-dihydroxy-4,12,12,15-tetramethyl-5-oxo-14-tetracyclo[8.5.0.02,6.011,13]pentadeca-3,8-dienyl] dodecanoate
> <PUBCHEM_IUPAC_CAS_NAME>
dodecanoic acid [(1S,2S,6S,10S,11R,13S,14R,15R)-13-acetyloxy-8-(acetyloxymethyl)-1,6-dihydroxy-4,12,12,15-tetramethyl-5-oxo-14-tetracyclo[8.5.0.02,6.011,13]pentadeca-3,8-dienyl] ester
> <PUBCHEM_IUPAC_NAME_MARKUP>
[(1<I>S</I>,2<I>S</I>,6<I>S</I>,10<I>S</I>,11<I>R</I>,13<I>S</I>,14<I>R</I>,15<I>R</I>)-13-acetyloxy-8-(acetyloxymethyl)-1,6-dihydroxy-4,12,12,15-tetramethyl-5-oxo-14-tetracyclo[8.5.0.0<SUP>2,6</SUP>.0<SUP>11,13</SUP>]pentadeca-3,8-dienyl] dodecanoate
> <PUBCHEM_IUPAC_NAME>
[(1S,2S,6S,10S,11R,13S,14R,15R)-13-acetyloxy-8-(acetyloxymethyl)-1,6-dihydroxy-4,12,12,15-tetramethyl-5-oxo-14-tetracyclo[8.5.0.02,6.011,13]pentadeca-3,8-dienyl] dodecanoate
> <PUBCHEM_IUPAC_SYSTEMATIC_NAME>
[(1S,2S,6S,10S,11R,13S,14R,15R)-13-acetyloxy-8-(acetyloxymethyl)-4,12,12,15-tetramethyl-1,6-bis(oxidanyl)-5-oxidanylidene-14-tetracyclo[8.5.0.02,6.011,13]pentadeca-3,8-dienyl] dodecanoate
> <PUBCHEM_IUPAC_TRADITIONAL_NAME>
lauric acid [(1S,2S,6S,10S,11R,13S,14R,15R)-13-acetoxy-8-(acetoxymethyl)-1,6-dihydroxy-5-keto-4,12,12,15-tetramethyl-14-tetracyclo[8.5.0.02,6.011,13]pentadeca-3,8-dienyl] ester
> <PUBCHEM_IUPAC_INCHI>
InChI=1S/C36H54O9/c1-8-9-10-11-12-13-14-15-16-17-29(39)44-32-23(3)35(42)27(30-33(6,7)36(30,32)45-25(5)38)19-26(21-43-24(4)37)20-34(41)28(35)18-22(2)31(34)40/h18-19,23,27-28,30,32,41-42H,8-17,20-21H2,1-7H3/t23-,27+,28-,30-,32-,34+,35-,36-/m1/s1
> <PUBCHEM_IUPAC_INCHIKEY>
YXOHYFMZMQGANI-JLZJCOMISA-N
> <PUBCHEM_XLOGP3_AA>
6
> <PUBCHEM_EXACT_MASS>
630.37678330
> <PUBCHEM_MOLECULAR_FORMULA>
C36H54O9
> <PUBCHEM_MOLECULAR_WEIGHT>
630.8
> <PUBCHEM_OPENEYE_CAN_SMILES>
CCCCCCCCCCCC(=O)OC1C(C2(C(C=C(CC3(C2C=C(C3=O)C)O)COC(=O)C)C4C1(C4(C)C)OC(=O)C)O)C
> <PUBCHEM_OPENEYE_ISO_SMILES>
CCCCCCCCCCCC(=O)O[C@@H]1[C@H]([C@]2([C@@H](C=C(C[C@@]3([C@H]2C=C(C3=O)C)O)COC(=O)C)[C@H]4[C@@]1(C4(C)C)OC(=O)C)O)C
> <PUBCHEM_CACTVS_TPSA>
136
> <PUBCHEM_MONOISOTOPIC_WEIGHT>
630.37678330
> <PUBCHEM_TOTAL_CHARGE>
0
> <PUBCHEM_HEAVY_ATOM_COUNT>
45
> <PUBCHEM_ATOM_DEF_STEREO_COUNT>
8
> <PUBCHEM_ATOM_UDEF_STEREO_COUNT>
0
> <PUBCHEM_BOND_DEF_STEREO_COUNT>
0
> <PUBCHEM_BOND_UDEF_STEREO_COUNT>
0
> <PUBCHEM_ISOTOPIC_ATOM_COUNT>
0
> <PUBCHEM_COMPONENT_COUNT>
1
> <PUBCHEM_CACTVS_TAUTO_COUNT>
-1
> <PUBCHEM_COORDINATE_TYPE>
1
5
255
> <PUBCHEM_BONDANNOTATIONS>
11  1  5
10  46  5
13  47  6
16  22  5
19  56  5
14  2  6
15  3  5
21  4  5
$$$$
