500550
  -OEChem-10302200282D
142147  0     1  0  0  0  0  0999 V2000
   12.6167    5.4028    0.0000 O   0  0  0  0  0  0  0  0  0  0  0  0
   11.2824    6.3028    0.0000 O   0  0  0  0  0  0  0  0  0  0  0  0
    9.9456    2.8819    0.0000 O   0  0  0  0  0  0  0  0  0  0  0  0
    9.0700    1.8384    0.0000 O   0  0  0  0  0  0  0  0  0  0  0  0
    5.9508    0.0301    0.0000 O   0  0  0  0  0  0  0  0  0  0  0  0
    7.6378   -3.1564    0.0000 O   0  0  0  0  0  0  0  0  0  0  0  0
    4.5185   -4.9648    0.0000 O   0  0  0  0  0  0  0  0  0  0  0  0
    2.5960   -4.4135    0.0000 O   0  0  0  0  0  0  0  0  0  0  0  0
    3.0734   -2.7485    0.0000 O   0  0  0  0  0  0  0  0  0  0  0  0
    4.5249   -8.5703    0.0000 O   0  0  0  0  0  0  0  0  0  0  0  0
    6.2055   -8.1513    0.0000 O   0  0  0  0  0  0  0  0  0  0  0  0
   10.0664    4.6097    0.0000 N   0  0  0  0  0  0  0  0  0  0  0  0
    7.8669    3.0844    0.0000 N   0  0  0  0  0  0  0  0  0  0  0  0
    7.6314    0.4491    0.0000 N   0  0  0  0  0  0  0  0  0  0  0  0
    6.4346   -1.9105    0.0000 N   0  0  0  0  0  0  0  0  0  0  0  0
    6.1991   -4.5457    0.0000 N   0  0  0  0  0  0  0  0  0  0  0  0
    6.6830   -6.4863    0.0000 N   0  0  0  0  0  0  0  0  0  0  0  0
   14.1142    7.2233    0.0000 C   0  0  2  0  0  0  0  0  0  0  0  0
   15.5131    7.2322    0.0000 C   0  0  0  0  0  0  0  0  0  0  0  0
   14.3730    8.1893    0.0000 C   0  0  1  0  0  0  0  0  0  0  0  0
   12.8931    6.3577    0.0000 C   0  0  1  0  0  0  0  0  0  0  0  0
   13.6364    9.1719    0.0000 C   0  0  0  0  0  0  0  0  0  0  0  0
   12.3397    7.8781    0.0000 C   0  0  0  0  0  0  0  0  0  0  0  0
   12.0641    6.9169    0.0000 C   0  0  1  0  0  0  0  0  0  0  0  0
   16.3791    7.7322    0.0000 C   0  0  0  0  0  0  0  0  0  0  0  0
   16.0131    6.3661    0.0000 C   0  0  0  0  0  0  0  0  0  0  0  0
   13.7222    5.7985    0.0000 C   0  0  0  0  0  0  0  0  0  0  0  0
   11.0640    4.5400    0.0000 C   0  0  1  0  0  0  0  0  0  0  0  0
   11.5023    3.6412    0.0000 C   0  0  0  0  0  0  0  0  0  0  0  0
   10.9431    2.8121    0.0000 C   0  0  0  0  0  0  0  0  0  0  0  0
    9.5072    3.7807    0.0000 C   0  0  0  0  0  0  0  0  0  0  0  0
    8.5096    3.8504    0.0000 C   0  0  2  0  0  0  0  0  0  0  0  0
   11.3815    1.9133    0.0000 C   0  0  0  0  0  0  0  0  0  0  0  0
    7.9797    4.6985    0.0000 C   0  0  0  0  0  0  0  0  0  0  0  0
    7.0094    4.4566    0.0000 C   0  0  0  0  0  0  0  0  0  0  0  0
    6.9397    3.4590    0.0000 C   0  0  0  0  0  0  0  0  0  0  0  0
   12.3791    1.8436    0.0000 C   0  0  0  0  0  0  0  0  0  0  0  0
   10.8223    1.0843    0.0000 C   0  0  0  0  0  0  0  0  0  0  0  0
    8.1088    2.1141    0.0000 C   0  0  0  0  0  0  0  0  0  0  0  0
   12.8175    0.9448    0.0000 C   0  0  0  0  0  0  0  0  0  0  0  0
   11.2607    0.1855    0.0000 C   0  0  0  0  0  0  0  0  0  0  0  0
   12.2583    0.1157    0.0000 C   0  0  0  0  0  0  0  0  0  0  0  0
    7.3894    1.4194    0.0000 C   0  0  2  0  0  0  0  0  0  0  0  0
   12.6966   -0.7831    0.0000 C   0  0  0  0  0  0  0  0  0  0  0  0
    6.4282    1.6951    0.0000 C   0  0  0  0  0  0  0  0  0  0  0  0
   12.1374   -1.6121    0.0000 C   0  0  0  0  0  0  0  0  0  0  0  0
   13.6942   -0.8528    0.0000 C   0  0  0  0  0  0  0  0  0  0  0  0
   12.5758   -2.5109    0.0000 C   0  0  0  0  0  0  0  0  0  0  0  0
   14.1326   -1.7516    0.0000 C   0  0  0  0  0  0  0  0  0  0  0  0
   13.5734   -2.5806    0.0000 C   0  0  0  0  0  0  0  0  0  0  0  0
    5.7088    1.0004    0.0000 C   0  0  0  0  0  0  0  0  0  0  0  0
    6.1863    2.6654    0.0000 C   0  0  0  0  0  0  0  0  0  0  0  0
    6.9120   -0.2455    0.0000 C   0  0  0  0  0  0  0  0  0  0  0  0
    7.1539   -1.2158    0.0000 C   0  0  2  0  0  0  0  0  0  0  0  0
    8.1152   -1.4915    0.0000 C   0  0  0  0  0  0  0  0  0  0  0  0
    8.3571   -2.4618    0.0000 C   0  0  0  0  0  0  0  0  0  0  0  0
    8.8345   -0.7968    0.0000 C   0  0  0  0  0  0  0  0  0  0  0  0
    6.6765   -2.8808    0.0000 C   0  0  0  0  0  0  0  0  0  0  0  0
    5.9572   -3.5754    0.0000 C   0  0  2  0  0  0  0  0  0  0  0  0
    4.9959   -3.2998    0.0000 C   0  0  0  0  0  0  0  0  0  0  0  0
    4.2766   -3.9945    0.0000 C   0  0  0  0  0  0  0  0  0  0  0  0
    5.4798   -5.2404    0.0000 C   0  0  0  0  0  0  0  0  0  0  0  0
    5.7217   -6.2107    0.0000 C   0  0  2  0  0  0  0  0  0  0  0  0
    3.3153   -3.7188    0.0000 C   0  0  0  0  0  0  0  0  0  0  0  0
    5.0024   -6.9053    0.0000 C   0  0  0  0  0  0  0  0  0  0  0  0
    5.2443   -7.8756    0.0000 C   0  0  0  0  0  0  0  0  0  0  0  0
   11.6232    5.3690    0.0000 B   0  0  0  0  0  0  0  0  0  0  0  0
   13.8942    6.4023    0.0000 H   0  0  0  0  0  0  0  0  0  0  0  0
   14.5930    9.0103    0.0000 H   0  0  0  0  0  0  0  0  0  0  0  0
   13.9542    9.7042    0.0000 H   0  0  0  0  0  0  0  0  0  0  0  0
   13.0232    9.2638    0.0000 H   0  0  0  0  0  0  0  0  0  0  0  0
   12.3347    8.4981    0.0000 H   0  0  0  0  0  0  0  0  0  0  0  0
   11.7254    7.9619    0.0000 H   0  0  0  0  0  0  0  0  0  0  0  0
   11.3594    7.3922    0.0000 H   0  0  0  0  0  0  0  0  0  0  0  0
   16.6891    7.1952    0.0000 H   0  0  0  0  0  0  0  0  0  0  0  0
   16.9161    8.0422    0.0000 H   0  0  0  0  0  0  0  0  0  0  0  0
   16.0691    8.2691    0.0000 H   0  0  0  0  0  0  0  0  0  0  0  0
   15.4762    6.0561    0.0000 H   0  0  0  0  0  0  0  0  0  0  0  0
   16.3231    5.8292    0.0000 H   0  0  0  0  0  0  0  0  0  0  0  0
   16.5500    6.6761    0.0000 H   0  0  0  0  0  0  0  0  0  0  0  0
   13.3755    5.2845    0.0000 H   0  0  0  0  0  0  0  0  0  0  0  0
   14.2362    5.4518    0.0000 H   0  0  0  0  0  0  0  0  0  0  0  0
   14.0689    6.3125    0.0000 H   0  0  0  0  0  0  0  0  0  0  0  0
   10.7922    5.0972    0.0000 H   0  0  0  0  0  0  0  0  0  0  0  0
   11.9483    3.2105    0.0000 H   0  0  0  0  0  0  0  0  0  0  0  0
   12.0039    4.0056    0.0000 H   0  0  0  0  0  0  0  0  0  0  0  0
    9.7946    5.1670    0.0000 H   0  0  0  0  0  0  0  0  0  0  0  0
   10.4972    3.2428    0.0000 H   0  0  0  0  0  0  0  0  0  0  0  0
   10.4416    2.4477    0.0000 H   0  0  0  0  0  0  0  0  0  0  0  0
    8.7519    3.2797    0.0000 H   0  0  0  0  0  0  0  0  0  0  0  0
    8.5370    4.9703    0.0000 H   0  0  0  0  0  0  0  0  0  0  0  0
    7.7677    5.2811    0.0000 H   0  0  0  0  0  0  0  0  0  0  0  0
    6.9231    5.0705    0.0000 H   0  0  0  0  0  0  0  0  0  0  0  0
    6.3898    4.4349    0.0000 H   0  0  0  0  0  0  0  0  0  0  0  0
    6.3291    3.5666    0.0000 H   0  0  0  0  0  0  0  0  0  0  0  0
    6.7688    2.8630    0.0000 H   0  0  0  0  0  0  0  0  0  0  0  0
   12.7258    2.3576    0.0000 H   0  0  0  0  0  0  0  0  0  0  0  0
   10.2038    1.1275    0.0000 H   0  0  0  0  0  0  0  0  0  0  0  0
   13.4359    0.9015    0.0000 H   0  0  0  0  0  0  0  0  0  0  0  0
   10.9140   -0.3285    0.0000 H   0  0  0  0  0  0  0  0  0  0  0  0
    6.9434    0.9887    0.0000 H   0  0  0  0  0  0  0  0  0  0  0  0
   13.0433   -0.2691    0.0000 H   0  0  0  0  0  0  0  0  0  0  0  0
    6.8742    2.1258    0.0000 H   0  0  0  0  0  0  0  0  0  0  0  0
   11.6914   -1.1814    0.0000 H   0  0  0  0  0  0  0  0  0  0  0  0
   11.6358   -1.9765    0.0000 H   0  0  0  0  0  0  0  0  0  0  0  0
   14.2902   -0.6819    0.0000 H   0  0  0  0  0  0  0  0  0  0  0  0
   13.6294   -0.2362    0.0000 H   0  0  0  0  0  0  0  0  0  0  0  0
    8.2273    0.2782    0.0000 H   0  0  0  0  0  0  0  0  0  0  0  0
   11.9798   -2.6818    0.0000 H   0  0  0  0  0  0  0  0  0  0  0  0
   12.6406   -3.1275    0.0000 H   0  0  0  0  0  0  0  0  0  0  0  0
   14.5786   -2.1823    0.0000 H   0  0  0  0  0  0  0  0  0  0  0  0
   14.6342   -1.3872    0.0000 H   0  0  0  0  0  0  0  0  0  0  0  0
   13.4234   -3.1822    0.0000 H   0  0  0  0  0  0  0  0  0  0  0  0
   14.1398   -2.8328    0.0000 H   0  0  0  0  0  0  0  0  0  0  0  0
    5.2782    1.4464    0.0000 H   0  0  0  0  0  0  0  0  0  0  0  0
    5.2628    0.5697    0.0000 H   0  0  0  0  0  0  0  0  0  0  0  0
    6.1395    0.5544    0.0000 H   0  0  0  0  0  0  0  0  0  0  0  0
    6.7878    2.8154    0.0000 H   0  0  0  0  0  0  0  0  0  0  0  0
    6.0363    3.2669    0.0000 H   0  0  0  0  0  0  0  0  0  0  0  0
    5.5847    2.5154    0.0000 H   0  0  0  0  0  0  0  0  0  0  0  0
    7.3039   -1.8174    0.0000 H   0  0  0  0  0  0  0  0  0  0  0  0
    8.7112   -1.6624    0.0000 H   0  0  0  0  0  0  0  0  0  0  0  0
    5.8386   -1.7396    0.0000 H   0  0  0  0  0  0  0  0  0  0  0  0
    7.7555   -2.6117    0.0000 H   0  0  0  0  0  0  0  0  0  0  0  0
    8.5071   -3.0633    0.0000 H   0  0  0  0  0  0  0  0  0  0  0  0
    8.9587   -2.3118    0.0000 H   0  0  0  0  0  0  0  0  0  0  0  0
    9.2652   -1.2428    0.0000 H   0  0  0  0  0  0  0  0  0  0  0  0
    9.2805   -0.3661    0.0000 H   0  0  0  0  0  0  0  0  0  0  0  0
    8.4039   -0.3508    0.0000 H   0  0  0  0  0  0  0  0  0  0  0  0
    5.5112   -4.0061    0.0000 H   0  0  0  0  0  0  0  0  0  0  0  0
    5.2677   -2.7425    0.0000 H   0  0  0  0  0  0  0  0  0  0  0  0
    4.4943   -2.9354    0.0000 H   0  0  0  0  0  0  0  0  0  0  0  0
    6.7951   -4.7166    0.0000 H   0  0  0  0  0  0  0  0  0  0  0  0
    4.0048   -4.5517    0.0000 H   0  0  0  0  0  0  0  0  0  0  0  0
    4.7782   -4.3589    0.0000 H   0  0  0  0  0  0  0  0  0  0  0  0
    5.8717   -6.8123    0.0000 H   0  0  0  0  0  0  0  0  0  0  0  0
    4.6556   -6.3913    0.0000 H   0  0  0  0  0  0  0  0  0  0  0  0
    4.4360   -7.1575    0.0000 H   0  0  0  0  0  0  0  0  0  0  0  0
    6.8329   -7.0879    0.0000 H   0  0  0  0  0  0  0  0  0  0  0  0
    7.1289   -6.0556    0.0000 H   0  0  0  0  0  0  0  0  0  0  0  0
    2.0000   -4.2426    0.0000 H   0  0  0  0  0  0  0  0  0  0  0  0
    4.6749   -9.1719    0.0000 H   0  0  0  0  0  0  0  0  0  0  0  0
  1 21  1  0  0  0  0
  1 67  1  0  0  0  0
  2 24  1  0  0  0  0
  2 67  1  0  0  0  0
  3 31  2  0  0  0  0
  4 39  2  0  0  0  0
  5 53  2  0  0  0  0
  6 58  2  0  0  0  0
  7 62  2  0  0  0  0
  8 64  1  0  0  0  0
  8141  1  0  0  0  0
  9 64  2  0  0  0  0
 10 66  1  0  0  0  0
 10142  1  0  0  0  0
 11 66  2  0  0  0  0
 28 12  1  6  0  0  0
 12 31  1  0  0  0  0
 12 87  1  0  0  0  0
 13 32  1  0  0  0  0
 13 36  1  0  0  0  0
 13 39  1  0  0  0  0
 43 14  1  1  0  0  0
 14 53  1  0  0  0  0
 14108  1  0  0  0  0
 54 15  1  6  0  0  0
 15 58  1  0  0  0  0
 15123  1  0  0  0  0
 59 16  1  1  0  0  0
 16 62  1  0  0  0  0
 16133  1  0  0  0  0
 63 17  1  1  0  0  0
 17139  1  0  0  0  0
 17140  1  0  0  0  0
 18 19  1  0  0  0  0
 18 21  1  0  0  0  0
 18 22  1  0  0  0  0
 18 68  1  1  0  0  0
 19 20  1  0  0  0  0
 19 25  1  0  0  0  0
 19 26  1  0  0  0  0
 20 22  1  0  0  0  0
 20 23  1  0  0  0  0
 20 69  1  1  0  0  0
 21 24  1  0  0  0  0
 21 27  1  1  0  0  0
 22 70  1  0  0  0  0
 22 71  1  0  0  0  0
 23 24  1  0  0  0  0
 23 72  1  0  0  0  0
 23 73  1  0  0  0  0
 24 74  1  1  0  0  0
 25 75  1  0  0  0  0
 25 76  1  0  0  0  0
 25 77  1  0  0  0  0
 26 78  1  0  0  0  0
 26 79  1  0  0  0  0
 26 80  1  0  0  0  0
 27 81  1  0  0  0  0
 27 82  1  0  0  0  0
 27 83  1  0  0  0  0
 28 29  1  0  0  0  0
 28 67  1  0  0  0  0
 28 84  1  0  0  0  0
 29 30  1  0  0  0  0
 29 85  1  0  0  0  0
 29 86  1  0  0  0  0
 30 33  1  0  0  0  0
 30 88  1  0  0  0  0
 30 89  1  0  0  0  0
 32 31  1  1  0  0  0
 32 34  1  0  0  0  0
 32 90  1  0  0  0  0
 33 37  2  0  0  0  0
 33 38  1  0  0  0  0
 34 35  1  0  0  0  0
 34 91  1  0  0  0  0
 34 92  1  0  0  0  0
 35 36  1  0  0  0  0
 35 93  1  0  0  0  0
 35 94  1  0  0  0  0
 36 95  1  0  0  0  0
 36 96  1  0  0  0  0
 37 40  1  0  0  0  0
 37 97  1  0  0  0  0
 38 41  2  0  0  0  0
 38 98  1  0  0  0  0
 39 43  1  0  0  0  0
 40 42  2  0  0  0  0
 40 99  1  0  0  0  0
 41 42  1  0  0  0  0
 41100  1  0  0  0  0
 42 44  1  0  0  0  0
 43 45  1  0  0  0  0
 43101  1  0  0  0  0
 44 46  1  0  0  0  0
 44 47  1  0  0  0  0
 44102  1  0  0  0  0
 45 51  1  0  0  0  0
 45 52  1  0  0  0  0
 45103  1  0  0  0  0
 46 48  1  0  0  0  0
 46104  1  0  0  0  0
 46105  1  0  0  0  0
 47 49  1  0  0  0  0
 47106  1  0  0  0  0
 47107  1  0  0  0  0
 48 50  1  0  0  0  0
 48109  1  0  0  0  0
 48110  1  0  0  0  0
 49 50  1  0  0  0  0
 49111  1  0  0  0  0
 49112  1  0  0  0  0
 50113  1  0  0  0  0
 50114  1  0  0  0  0
 51115  1  0  0  0  0
 51116  1  0  0  0  0
 51117  1  0  0  0  0
 52118  1  0  0  0  0
 52119  1  0  0  0  0
 52120  1  0  0  0  0
 53 54  1  0  0  0  0
 54 55  1  0  0  0  0
 54121  1  0  0  0  0
 55 56  1  0  0  0  0
 55 57  1  0  0  0  0
 55122  1  0  0  0  0
 56124  1  0  0  0  0
 56125  1  0  0  0  0
 56126  1  0  0  0  0
 57127  1  0  0  0  0
 57128  1  0  0  0  0
 57129  1  0  0  0  0
 58 59  1  0  0  0  0
 59 60  1  0  0  0  0
 59130  1  0  0  0  0
 60 61  1  0  0  0  0
 60131  1  0  0  0  0
 60132  1  0  0  0  0
 61 64  1  0  0  0  0
 61134  1  0  0  0  0
 61135  1  0  0  0  0
 62 63  1  0  0  0  0
 63 65  1  0  0  0  0
 63136  1  0  0  0  0
 65 66  1  0  0  0  0
 65137  1  0  0  0  0
 65138  1  0  0  0  0
M  END
> <PUBCHEM_COMPOUND_CID>
500550
> <PUBCHEM_COMPOUND_CANONICALIZED>
1
> <PUBCHEM_CACTVS_COMPLEXITY>
1800
> <PUBCHEM_CACTVS_HBOND_ACCEPTOR>
12
> <PUBCHEM_CACTVS_HBOND_DONOR>
7
> <PUBCHEM_CACTVS_ROTATABLE_BOND>
21
> <PUBCHEM_CACTVS_SUBSKEYS>
AAADcfJ/vAAAAAAAAAAAAAAAAABgAWJAAAAwYMGAAAAAAEgBAAAoHgAQCAAAD3zhmAYyCIPAAgCIAiHSGAACAAAgAAAIiIGIAIgJYDqAkTCUYAAmlgCIiAe/1/IPwAAAAAAAAADAAAYAADCAAAAAAAAAAA==
> <PUBCHEM_IUPAC_OPENEYE_NAME>
(4S)-4-[[(2S)-2-amino-3-carboxy-propanoyl]amino]-5-[[(1S)-1-[[(1S)-1-[(2S)-2-[[(1R)-3-(4-cyclohexylphenyl)-1-[(1R,2S,6R,8S)-2,9,9-trimethyl-3,5-dioxa-4-boratricyclo[6.1.1.02,6]decan-4-yl]propyl]carbamoyl]pyrrolidine-1-carbonyl]-2-methyl-propyl]carbamoyl]-2-methyl-propyl]amino]-5-oxo-pentanoic acid
> <PUBCHEM_IUPAC_CAS_NAME>
(4S)-4-[[(2S)-2-amino-3-carboxy-1-oxopropyl]amino]-5-[[(2S)-1-[[(2S)-1-[(2S)-2-[[[(1R)-3-(4-cyclohexylphenyl)-1-[(1R,2S,6R,8S)-2,9,9-trimethyl-3,5-dioxa-4-boratricyclo[6.1.1.02,6]decan-4-yl]propyl]amino]-oxomethyl]-1-pyrrolidinyl]-3-methyl-1-oxobutan-2-yl]amino]-3-methyl-1-oxobutan-2-yl]amino]-5-oxopentanoic acid
> <PUBCHEM_IUPAC_NAME_MARKUP>
(4<I>S</I>)-4-[[(2<I>S</I>)-2-amino-3-carboxypropanoyl]amino]-5-[[(2<I>S</I>)-1-[[(2<I>S</I>)-1-[(2<I>S</I>)-2-[[(1<I>R</I>)-3-(4-cyclohexylphenyl)-1-[(1<I>R</I>,2<I>S</I>,6<I>R</I>,8<I>S</I>)-2,9,9-trimethyl-3,5-dioxa-4-boratricyclo[6.1.1.0<SUP>2,6</SUP>]decan-4-yl]propyl]carbamoyl]pyrrolidin-1-yl]-3-methyl-1-oxobutan-2-yl]amino]-3-methyl-1-oxobutan-2-yl]amino]-5-oxopentanoic acid
> <PUBCHEM_IUPAC_NAME>
(4S)-4-[[(2S)-2-amino-3-carboxypropanoyl]amino]-5-[[(2S)-1-[[(2S)-1-[(2S)-2-[[(1R)-3-(4-cyclohexylphenyl)-1-[(1R,2S,6R,8S)-2,9,9-trimethyl-3,5-dioxa-4-boratricyclo[6.1.1.02,6]decan-4-yl]propyl]carbamoyl]pyrrolidin-1-yl]-3-methyl-1-oxobutan-2-yl]amino]-3-methyl-1-oxobutan-2-yl]amino]-5-oxopentanoic acid
> <PUBCHEM_IUPAC_SYSTEMATIC_NAME>
(4S)-4-[[(2S)-2-azanyl-4-oxidanyl-4-oxidanylidene-butanoyl]amino]-5-[[(2S)-1-[[(2S)-1-[(2S)-2-[[(1R)-3-(4-cyclohexylphenyl)-1-[(1R,2S,6R,8S)-2,9,9-trimethyl-3,5-dioxa-4-boratricyclo[6.1.1.02,6]decan-4-yl]propyl]carbamoyl]pyrrolidin-1-yl]-3-methyl-1-oxidanylidene-butan-2-yl]amino]-3-methyl-1-oxidanylidene-butan-2-yl]amino]-5-oxidanylidene-pentanoic acid
> <PUBCHEM_IUPAC_TRADITIONAL_NAME>
(4S)-4-[[(2S)-2-amino-3-carboxy-propanoyl]amino]-5-[[(1S)-1-[[(1S)-1-[(2S)-2-[[(1R)-3-(4-cyclohexylphenyl)-1-[(1R,2S,6R,8S)-2,9,9-trimethyl-3,5-dioxa-4-boratricyclo[6.1.1.02,6]decan-4-yl]propyl]carbamoyl]pyrrolidine-1-carbonyl]-2-methyl-propyl]carbamoyl]-2-methyl-propyl]amino]-5-keto-valeric acid
> <PUBCHEM_IUPAC_INCHI>
InChI=1S/C49H75BN6O11/c1-27(2)41(54-44(62)34(20-22-39(57)58)52-43(61)33(51)26-40(59)60)46(64)55-42(28(3)4)47(65)56-23-11-14-35(56)45(63)53-38(21-17-29-15-18-31(19-16-29)30-12-9-8-10-13-30)50-66-37-25-32-24-36(48(32,5)6)49(37,7)67-50/h15-16,18-19,27-28,30,32-38,41-42H,8-14,17,20-26,51H2,1-7H3,(H,52,61)(H,53,63)(H,54,62)(H,55,64)(H,57,58)(H,59,60)/t32-,33-,34-,35-,36+,37+,38-,41-,42-,49-/m0/s1
> <PUBCHEM_IUPAC_INCHIKEY>
BIOAIESFQROFGZ-HOGDODMKSA-N
> <PUBCHEM_EXACT_MASS>
934.5586874
> <PUBCHEM_MOLECULAR_FORMULA>
C49H75BN6O11
> <PUBCHEM_MOLECULAR_WEIGHT>
935.0
> <PUBCHEM_OPENEYE_CAN_SMILES>
B1(OC2CC3CC(C3(C)C)C2(O1)C)C(CCC4=CC=C(C=C4)C5CCCCC5)NC(=O)C6CCCN6C(=O)C(C(C)C)NC(=O)C(C(C)C)NC(=O)C(CCC(=O)O)NC(=O)C(CC(=O)O)N
> <PUBCHEM_OPENEYE_ISO_SMILES>
B1(O[C@@H]2C[C@@H]3C[C@@H]([C@@]2(O1)C)C3(C)C)[C@H](CCC4=CC=C(C=C4)C5CCCCC5)NC(=O)[C@@H]6CCCN6C(=O)[C@H](C(C)C)NC(=O)[C@H](C(C)C)NC(=O)[C@H](CCC(=O)O)NC(=O)[C@H](CC(=O)O)N
> <PUBCHEM_CACTVS_TPSA>
256
> <PUBCHEM_MONOISOTOPIC_WEIGHT>
934.5586874
> <PUBCHEM_TOTAL_CHARGE>
0
> <PUBCHEM_HEAVY_ATOM_COUNT>
67
> <PUBCHEM_ATOM_DEF_STEREO_COUNT>
10
> <PUBCHEM_ATOM_UDEF_STEREO_COUNT>
0
> <PUBCHEM_BOND_DEF_STEREO_COUNT>
0
> <PUBCHEM_BOND_UDEF_STEREO_COUNT>
0
> <PUBCHEM_ISOTOPIC_ATOM_COUNT>
0
> <PUBCHEM_COMPONENT_COUNT>
1
> <PUBCHEM_CACTVS_TAUTO_COUNT>
-1
> <PUBCHEM_COORDINATE_TYPE>
1
5
255
> <PUBCHEM_BONDANNOTATIONS>
28  12  6
43  14  5
54  15  6
59  16  5
63  17  5
18  68  5
20  69  5
21  27  5
24  74  5
32  31  5
33  37  8
33  38  8
37  40  8
38  41  8
40  42  8
41  42  8
$$$$
