500559
  -OEChem-10302200282D
188190  0     1  0  0  0  0  0999 V2000
   10.6603   -6.0000    0.0000 S   0  0  0  0  0  0  0  0  0  0  0  0
   11.9046   -2.4460    0.0000 O   0  0  0  0  0  0  0  0  0  0  0  0
   16.0361   -3.8353    0.0000 O   0  0  0  0  0  0  0  0  0  0  0  0
    8.0622   -5.5000    0.0000 O   0  0  0  0  0  0  0  0  0  0  0  0
   10.6603   -3.0000    0.0000 O   0  0  0  0  0  0  0  0  0  0  0  0
    5.4641   -3.0000    0.0000 O   0  0  0  0  0  0  0  0  0  0  0  0
   17.6109   -0.5919    0.0000 O   0  0  0  0  0  0  0  0  0  0  0  0
    6.3301    0.5000    0.0000 O   0  0  0  0  0  0  0  0  0  0  0  0
   18.8893   -2.9083    0.0000 O   0  0  0  0  0  0  0  0  0  0  0  0
   18.3541   -1.2610    0.0000 O   0  0  0  0  0  0  0  0  0  0  0  0
   14.4304    1.1065    0.0000 O   0  0  0  0  0  0  0  0  0  0  0  0
    6.3301    1.5000    0.0000 O   0  0  0  0  0  0  0  0  0  0  0  0
    5.4641    5.0000    0.0000 O   0  0  0  0  0  0  0  0  0  0  0  0
    3.7320    6.0000    0.0000 O   0  0  0  0  0  0  0  0  0  0  0  0
    2.8660    4.5000    0.0000 O   0  0  0  0  0  0  0  0  0  0  0  0
    9.7942    4.5000    0.0000 O   0  0  0  0  0  0  0  0  0  0  0  0
    8.9282    6.0000    0.0000 O   0  0  0  0  0  0  0  0  0  0  0  0
   11.5263   -4.5000    0.0000 N   0  0  0  0  0  0  0  0  0  0  0  0
   13.5988   -2.8061    0.0000 N   0  0  0  0  0  0  0  0  0  0  0  0
    7.1962   -3.0000    0.0000 N   0  0  0  0  0  0  0  0  0  0  0  0
    8.9282   -4.0000    0.0000 N   0  0  0  0  0  0  0  0  0  0  0  0
   15.5009   -2.1881    0.0000 N   0  0  0  0  0  0  0  0  0  0  0  0
    5.4641   -1.0000    0.0000 N   0  0  0  0  0  0  0  0  0  0  0  0
   15.9167   -0.2318    0.0000 N   0  0  0  0  0  0  0  0  0  0  0  0
    4.5981    1.5000    0.0000 N   0  0  0  0  0  0  0  0  0  0  0  0
    6.3301    3.5000    0.0000 N   0  0  0  0  0  0  0  0  0  0  0  0
    7.1962    6.0000    0.0000 N   0  0  0  0  0  0  0  0  0  0  0  0
   14.8772   -5.1225    0.0000 C   0  0  0  0  0  0  0  0  0  0  0  0
    6.3301   -5.5000    0.0000 C   0  0  0  0  0  0  0  0  0  0  0  0
   15.8282   -4.8135    0.0000 C   0  0  0  0  0  0  0  0  0  0  0  0
   14.6693   -6.1007    0.0000 C   0  0  0  0  0  0  0  0  0  0  0  0
   14.1340   -4.4534    0.0000 C   0  0  0  0  0  0  0  0  0  0  0  0
    5.4641   -6.0000    0.0000 C   0  0  0  0  0  0  0  0  0  0  0  0
    7.1962   -6.0000    0.0000 C   0  0  0  0  0  0  0  0  0  0  0  0
   16.5714   -5.4826    0.0000 C   0  0  0  0  0  0  0  0  0  0  0  0
   15.4124   -6.7698    0.0000 C   0  0  0  0  0  0  0  0  0  0  0  0
    6.3301   -4.5000    0.0000 C   0  0  0  0  0  0  0  0  0  0  0  0
   16.3635   -6.4608    0.0000 C   0  0  0  0  0  0  0  0  0  0  0  0
    5.4641   -7.0000    0.0000 C   0  0  0  0  0  0  0  0  0  0  0  0
    7.1962   -7.0000    0.0000 C   0  0  0  0  0  0  0  0  0  0  0  0
    6.3301   -7.5000    0.0000 C   0  0  0  0  0  0  0  0  0  0  0  0
   14.3419   -3.4752    0.0000 C   0  0  1  0  0  0  0  0  0  0  0  0
    7.1962   -4.0000    0.0000 C   0  0  1  0  0  0  0  0  0  0  0  0
   12.4398   -4.0933    0.0000 C   0  0  1  0  0  0  0  0  0  0  0  0
   13.1090   -4.8364    0.0000 C   0  0  0  0  0  0  0  0  0  0  0  0
   12.6090   -5.7024    0.0000 C   0  0  0  0  0  0  0  0  0  0  0  0
   11.6308   -5.4945    0.0000 C   0  0  0  0  0  0  0  0  0  0  0  0
   12.6477   -3.1151    0.0000 C   0  0  0  0  0  0  0  0  0  0  0  0
   15.2930   -3.1662    0.0000 C   0  0  0  0  0  0  0  0  0  0  0  0
    8.0622   -4.5000    0.0000 C   0  0  0  0  0  0  0  0  0  0  0  0
    9.7942   -4.5000    0.0000 C   0  0  2  0  0  0  0  0  0  0  0  0
   10.6603   -4.0000    0.0000 C   0  0  0  0  0  0  0  0  0  0  0  0
    6.3301   -2.5000    0.0000 C   0  0  0  0  0  0  0  0  0  0  0  0
    6.3301   -1.5000    0.0000 C   0  0  2  0  0  0  0  0  0  0  0  0
    9.7942   -5.5000    0.0000 C   0  0  0  0  0  0  0  0  0  0  0  0
    7.1962   -1.0000    0.0000 C   0  0  2  0  0  0  0  0  0  0  0  0
   16.4520   -1.8790    0.0000 C   0  0  1  0  0  0  0  0  0  0  0  0
    7.1962    0.0000    0.0000 C   0  0  0  0  0  0  0  0  0  0  0  0
   17.1951   -2.5482    0.0000 C   0  0  0  0  0  0  0  0  0  0  0  0
    8.0622   -1.5000    0.0000 C   0  0  0  0  0  0  0  0  0  0  0  0
   16.6599   -0.9009    0.0000 C   0  0  0  0  0  0  0  0  0  0  0  0
    5.4641    0.0000    0.0000 C   0  0  0  0  0  0  0  0  0  0  0  0
    4.5981    0.5000    0.0000 C   0  0  2  0  0  0  0  0  0  0  0  0
    8.0622    0.5000    0.0000 C   0  0  0  0  0  0  0  0  0  0  0  0
    3.7320    0.0000    0.0000 C   0  0  0  0  0  0  0  0  0  0  0  0
   16.1246    0.7464    0.0000 C   0  0  1  0  0  0  0  0  0  0  0  0
   18.1462   -2.2392    0.0000 C   0  0  0  0  0  0  0  0  0  0  0  0
    2.8660    0.5000    0.0000 C   0  0  0  0  0  0  0  0  0  0  0  0
   17.0757    1.0554    0.0000 C   0  0  0  0  0  0  0  0  0  0  0  0
   17.2836    2.0335    0.0000 C   0  0  0  0  0  0  0  0  0  0  0  0
   15.3815    1.4155    0.0000 C   0  0  0  0  0  0  0  0  0  0  0  0
    2.0000    0.0000    0.0000 C   0  0  0  0  0  0  0  0  0  0  0  0
    2.8660    1.5000    0.0000 C   0  0  0  0  0  0  0  0  0  0  0  0
    5.4641    2.0000    0.0000 C   0  0  0  0  0  0  0  0  0  0  0  0
    5.4641    3.0000    0.0000 C   0  0  1  0  0  0  0  0  0  0  0  0
   18.2347    2.3426    0.0000 C   0  0  0  0  0  0  0  0  0  0  0  0
   16.5405    2.7027    0.0000 C   0  0  0  0  0  0  0  0  0  0  0  0
   15.5894    2.3937    0.0000 C   0  0  0  0  0  0  0  0  0  0  0  0
    4.5981    3.5000    0.0000 C   0  0  0  0  0  0  0  0  0  0  0  0
    4.5981    4.5000    0.0000 C   0  0  0  0  0  0  0  0  0  0  0  0
    6.3301    4.5000    0.0000 C   0  0  0  0  0  0  0  0  0  0  0  0
    7.1962    5.0000    0.0000 C   0  0  2  0  0  0  0  0  0  0  0  0
    3.7320    5.0000    0.0000 C   0  0  0  0  0  0  0  0  0  0  0  0
    8.0622    4.5000    0.0000 C   0  0  0  0  0  0  0  0  0  0  0  0
    6.3301    6.5000    0.0000 C   0  0  0  0  0  0  0  0  0  0  0  0
    8.9282    5.0000    0.0000 C   0  0  0  0  0  0  0  0  0  0  0  0
    6.3301    7.5000    0.0000 C   0  0  0  0  0  0  0  0  0  0  0  0
    5.4641    6.0000    0.0000 C   0  0  0  0  0  0  0  0  0  0  0  0
   15.0061   -4.5161    0.0000 H   0  0  0  0  0  0  0  0  0  0  0  0
    6.8671   -5.1900    0.0000 H   0  0  0  0  0  0  0  0  0  0  0  0
   16.3168   -4.4318    0.0000 H   0  0  0  0  0  0  0  0  0  0  0  0
   15.5372   -4.2661    0.0000 H   0  0  0  0  0  0  0  0  0  0  0  0
   14.0944   -5.8684    0.0000 H   0  0  0  0  0  0  0  0  0  0  0  0
   14.3407   -6.6264    0.0000 H   0  0  0  0  0  0  0  0  0  0  0  0
   13.5592   -4.2211    0.0000 H   0  0  0  0  0  0  0  0  0  0  0  0
   13.8055   -4.9792    0.0000 H   0  0  0  0  0  0  0  0  0  0  0  0
    5.2520   -5.4174    0.0000 H   0  0  0  0  0  0  0  0  0  0  0  0
    4.8535   -6.1077    0.0000 H   0  0  0  0  0  0  0  0  0  0  0  0
    7.8067   -6.1077    0.0000 H   0  0  0  0  0  0  0  0  0  0  0  0
    7.4082   -5.4174    0.0000 H   0  0  0  0  0  0  0  0  0  0  0  0
   17.1462   -5.7149    0.0000 H   0  0  0  0  0  0  0  0  0  0  0  0
   16.8999   -4.9568    0.0000 H   0  0  0  0  0  0  0  0  0  0  0  0
   14.9238   -7.1515    0.0000 H   0  0  0  0  0  0  0  0  0  0  0  0
   15.7035   -7.3172    0.0000 H   0  0  0  0  0  0  0  0  0  0  0  0
    6.1181   -3.9174    0.0000 H   0  0  0  0  0  0  0  0  0  0  0  0
    5.7196   -4.6077    0.0000 H   0  0  0  0  0  0  0  0  0  0  0  0
   16.4497   -7.0747    0.0000 H   0  0  0  0  0  0  0  0  0  0  0  0
   16.9831   -6.4824    0.0000 H   0  0  0  0  0  0  0  0  0  0  0  0
    4.8535   -6.8923    0.0000 H   0  0  0  0  0  0  0  0  0  0  0  0
    5.2520   -7.5826    0.0000 H   0  0  0  0  0  0  0  0  0  0  0  0
    7.4082   -7.5826    0.0000 H   0  0  0  0  0  0  0  0  0  0  0  0
    7.8067   -6.8923    0.0000 H   0  0  0  0  0  0  0  0  0  0  0  0
    5.9316   -7.9750    0.0000 H   0  0  0  0  0  0  0  0  0  0  0  0
    6.7287   -7.9750    0.0000 H   0  0  0  0  0  0  0  0  0  0  0  0
   14.4708   -2.8688    0.0000 H   0  0  0  0  0  0  0  0  0  0  0  0
    6.6592   -3.6900    0.0000 H   0  0  0  0  0  0  0  0  0  0  0  0
   11.9580   -3.7031    0.0000 H   0  0  0  0  0  0  0  0  0  0  0  0
   13.6105   -5.2008    0.0000 H   0  0  0  0  0  0  0  0  0  0  0  0
   13.5238   -4.3757    0.0000 H   0  0  0  0  0  0  0  0  0  0  0  0
   12.4174   -6.2921    0.0000 H   0  0  0  0  0  0  0  0  0  0  0  0
   13.1754   -5.9546    0.0000 H   0  0  0  0  0  0  0  0  0  0  0  0
   11.0108   -5.4945    0.0000 H   0  0  0  0  0  0  0  0  0  0  0  0
   11.5660   -6.1111    0.0000 H   0  0  0  0  0  0  0  0  0  0  0  0
   13.7277   -2.1996    0.0000 H   0  0  0  0  0  0  0  0  0  0  0  0
    9.2573   -4.8100    0.0000 H   0  0  0  0  0  0  0  0  0  0  0  0
    7.7331   -2.6900    0.0000 H   0  0  0  0  0  0  0  0  0  0  0  0
    8.9282   -3.3800    0.0000 H   0  0  0  0  0  0  0  0  0  0  0  0
    5.7932   -1.8100    0.0000 H   0  0  0  0  0  0  0  0  0  0  0  0
   15.0402   -1.7732    0.0000 H   0  0  0  0  0  0  0  0  0  0  0  0
    9.1836   -5.3923    0.0000 H   0  0  0  0  0  0  0  0  0  0  0  0
    9.5822   -6.0826    0.0000 H   0  0  0  0  0  0  0  0  0  0  0  0
    7.7331   -0.6900    0.0000 H   0  0  0  0  0  0  0  0  0  0  0  0
   16.3231   -2.4855    0.0000 H   0  0  0  0  0  0  0  0  0  0  0  0
    4.9272   -1.3100    0.0000 H   0  0  0  0  0  0  0  0  0  0  0  0
    6.9841    0.5826    0.0000 H   0  0  0  0  0  0  0  0  0  0  0  0
    6.5856   -0.1077    0.0000 H   0  0  0  0  0  0  0  0  0  0  0  0
   16.7065   -2.9299    0.0000 H   0  0  0  0  0  0  0  0  0  0  0  0
   17.4862   -3.0956    0.0000 H   0  0  0  0  0  0  0  0  0  0  0  0
    7.7522   -2.0369    0.0000 H   0  0  0  0  0  0  0  0  0  0  0  0
    8.5991   -1.8100    0.0000 H   0  0  0  0  0  0  0  0  0  0  0  0
    8.3722   -0.9631    0.0000 H   0  0  0  0  0  0  0  0  0  0  0  0
   10.6603   -6.6200    0.0000 H   0  0  0  0  0  0  0  0  0  0  0  0
    5.1350    0.8100    0.0000 H   0  0  0  0  0  0  0  0  0  0  0  0
    8.3722   -0.0369    0.0000 H   0  0  0  0  0  0  0  0  0  0  0  0
    8.5991    0.8100    0.0000 H   0  0  0  0  0  0  0  0  0  0  0  0
    7.7522    1.0369    0.0000 H   0  0  0  0  0  0  0  0  0  0  0  0
   15.3271   -0.4234    0.0000 H   0  0  0  0  0  0  0  0  0  0  0  0
    3.3335   -0.4749    0.0000 H   0  0  0  0  0  0  0  0  0  0  0  0
    4.1306   -0.4749    0.0000 H   0  0  0  0  0  0  0  0  0  0  0  0
   16.5854    0.3315    0.0000 H   0  0  0  0  0  0  0  0  0  0  0  0
    2.8660   -0.1200    0.0000 H   0  0  0  0  0  0  0  0  0  0  0  0
   17.1620    0.4414    0.0000 H   0  0  0  0  0  0  0  0  0  0  0  0
   17.6953    1.0338    0.0000 H   0  0  0  0  0  0  0  0  0  0  0  0
    4.0611    1.8100    0.0000 H   0  0  0  0  0  0  0  0  0  0  0  0
   17.4125    2.6400    0.0000 H   0  0  0  0  0  0  0  0  0  0  0  0
    1.6900    0.5369    0.0000 H   0  0  0  0  0  0  0  0  0  0  0  0
    1.4631   -0.3100    0.0000 H   0  0  0  0  0  0  0  0  0  0  0  0
    2.3100   -0.5369    0.0000 H   0  0  0  0  0  0  0  0  0  0  0  0
    3.4860    1.5000    0.0000 H   0  0  0  0  0  0  0  0  0  0  0  0
    2.8660    2.1200    0.0000 H   0  0  0  0  0  0  0  0  0  0  0  0
    2.2460    1.5000    0.0000 H   0  0  0  0  0  0  0  0  0  0  0  0
    5.4641    3.6200    0.0000 H   0  0  0  0  0  0  0  0  0  0  0  0
   19.4790   -2.7167    0.0000 H   0  0  0  0  0  0  0  0  0  0  0  0
   18.4263    1.7529    0.0000 H   0  0  0  0  0  0  0  0  0  0  0  0
   18.8243    2.5342    0.0000 H   0  0  0  0  0  0  0  0  0  0  0  0
   18.0431    2.9322    0.0000 H   0  0  0  0  0  0  0  0  0  0  0  0
   16.9553    3.1634    0.0000 H   0  0  0  0  0  0  0  0  0  0  0  0
   16.0797    3.1175    0.0000 H   0  0  0  0  0  0  0  0  0  0  0  0
   16.1256    2.2419    0.0000 H   0  0  0  0  0  0  0  0  0  0  0  0
   16.1959    2.2648    0.0000 H   0  0  0  0  0  0  0  0  0  0  0  0
   15.7183    3.0001    0.0000 H   0  0  0  0  0  0  0  0  0  0  0  0
   14.9830    2.5226    0.0000 H   0  0  0  0  0  0  0  0  0  0  0  0
    3.9875    3.6077    0.0000 H   0  0  0  0  0  0  0  0  0  0  0  0
    4.3860    2.9174    0.0000 H   0  0  0  0  0  0  0  0  0  0  0  0
    6.8671    3.1900    0.0000 H   0  0  0  0  0  0  0  0  0  0  0  0
    5.2087    4.3923    0.0000 H   0  0  0  0  0  0  0  0  0  0  0  0
    4.8101    5.0826    0.0000 H   0  0  0  0  0  0  0  0  0  0  0  0
    6.6592    5.3100    0.0000 H   0  0  0  0  0  0  0  0  0  0  0  0
    7.6636    4.0250    0.0000 H   0  0  0  0  0  0  0  0  0  0  0  0
    8.4607    4.0250    0.0000 H   0  0  0  0  0  0  0  0  0  0  0  0
    7.7331    6.3100    0.0000 H   0  0  0  0  0  0  0  0  0  0  0  0
    3.1951    6.3100    0.0000 H   0  0  0  0  0  0  0  0  0  0  0  0
    6.9501    7.5000    0.0000 H   0  0  0  0  0  0  0  0  0  0  0  0
    6.3301    8.1200    0.0000 H   0  0  0  0  0  0  0  0  0  0  0  0
    5.7101    7.5000    0.0000 H   0  0  0  0  0  0  0  0  0  0  0  0
    4.9272    6.3100    0.0000 H   0  0  0  0  0  0  0  0  0  0  0  0
    5.4641    5.3800    0.0000 H   0  0  0  0  0  0  0  0  0  0  0  0
   10.3312    4.8100    0.0000 H   0  0  0  0  0  0  0  0  0  0  0  0
  1 55  1  0  0  0  0
  1142  1  0  0  0  0
  2 48  2  0  0  0  0
  3 49  2  0  0  0  0
  4 50  2  0  0  0  0
  5 52  2  0  0  0  0
  6 53  2  0  0  0  0
  7 61  2  0  0  0  0
  8 62  2  0  0  0  0
  9 67  1  0  0  0  0
  9163  1  0  0  0  0
 10 67  2  0  0  0  0
 11 71  2  0  0  0  0
 12 74  2  0  0  0  0
 13 81  2  0  0  0  0
 14 83  1  0  0  0  0
 14182  1  0  0  0  0
 15 83  2  0  0  0  0
 16 86  1  0  0  0  0
 16188  1  0  0  0  0
 17 86  2  0  0  0  0
 18 44  1  0  0  0  0
 18 47  1  0  0  0  0
 18 52  1  0  0  0  0
 42 19  1  6  0  0  0
 19 48  1  0  0  0  0
 19124  1  0  0  0  0
 43 20  1  6  0  0  0
 20 53  1  0  0  0  0
 20126  1  0  0  0  0
 21 50  1  0  0  0  0
 51 21  1  6  0  0  0
 21127  1  0  0  0  0
 22 49  1  0  0  0  0
 57 22  1  6  0  0  0
 22129  1  0  0  0  0
 54 23  1  1  0  0  0
 23 62  1  0  0  0  0
 23134  1  0  0  0  0
 24 61  1  0  0  0  0
 66 24  1  6  0  0  0
 24147  1  0  0  0  0
 63 25  1  6  0  0  0
 25 74  1  0  0  0  0
 25154  1  0  0  0  0
 75 26  1  1  0  0  0
 26 81  1  0  0  0  0
 26175  1  0  0  0  0
 82 27  1  1  0  0  0
 27 85  1  0  0  0  0
 27181  1  0  0  0  0
 28 30  1  0  0  0  0
 28 31  1  0  0  0  0
 28 32  1  0  0  0  0
 28 89  1  0  0  0  0
 29 33  1  0  0  0  0
 29 34  1  0  0  0  0
 29 37  1  0  0  0  0
 29 90  1  0  0  0  0
 30 35  1  0  0  0  0
 30 91  1  0  0  0  0
 30 92  1  0  0  0  0
 31 36  1  0  0  0  0
 31 93  1  0  0  0  0
 31 94  1  0  0  0  0
 32 42  1  0  0  0  0
 32 95  1  0  0  0  0
 32 96  1  0  0  0  0
 33 39  1  0  0  0  0
 33 97  1  0  0  0  0
 33 98  1  0  0  0  0
 34 40  1  0  0  0  0
 34 99  1  0  0  0  0
 34100  1  0  0  0  0
 35 38  1  0  0  0  0
 35101  1  0  0  0  0
 35102  1  0  0  0  0
 36 38  1  0  0  0  0
 36103  1  0  0  0  0
 36104  1  0  0  0  0
 37 43  1  0  0  0  0
 37105  1  0  0  0  0
 37106  1  0  0  0  0
 38107  1  0  0  0  0
 38108  1  0  0  0  0
 39 41  1  0  0  0  0
 39109  1  0  0  0  0
 39110  1  0  0  0  0
 40 41  1  0  0  0  0
 40111  1  0  0  0  0
 40112  1  0  0  0  0
 41113  1  0  0  0  0
 41114  1  0  0  0  0
 42 49  1  0  0  0  0
 42115  1  0  0  0  0
 43 50  1  0  0  0  0
 43116  1  0  0  0  0
 44 45  1  0  0  0  0
 44 48  1  6  0  0  0
 44117  1  0  0  0  0
 45 46  1  0  0  0  0
 45118  1  0  0  0  0
 45119  1  0  0  0  0
 46 47  1  0  0  0  0
 46120  1  0  0  0  0
 46121  1  0  0  0  0
 47122  1  0  0  0  0
 47123  1  0  0  0  0
 51 52  1  0  0  0  0
 51 55  1  0  0  0  0
 51125  1  0  0  0  0
 53 54  1  0  0  0  0
 54 56  1  0  0  0  0
 54128  1  0  0  0  0
 55130  1  0  0  0  0
 55131  1  0  0  0  0
 56 58  1  0  0  0  0
 56 60  1  6  0  0  0
 56132  1  0  0  0  0
 57 59  1  0  0  0  0
 57 61  1  0  0  0  0
 57133  1  0  0  0  0
 58 64  1  0  0  0  0
 58135  1  0  0  0  0
 58136  1  0  0  0  0
 59 67  1  0  0  0  0
 59137  1  0  0  0  0
 59138  1  0  0  0  0
 60139  1  0  0  0  0
 60140  1  0  0  0  0
 60141  1  0  0  0  0
 62 63  1  0  0  0  0
 63 65  1  0  0  0  0
 63143  1  0  0  0  0
 64144  1  0  0  0  0
 64145  1  0  0  0  0
 64146  1  0  0  0  0
 65 68  1  0  0  0  0
 65148  1  0  0  0  0
 65149  1  0  0  0  0
 66 69  1  0  0  0  0
 66 71  1  0  0  0  0
 66150  1  0  0  0  0
 68 72  1  0  0  0  0
 68 73  1  0  0  0  0
 68151  1  0  0  0  0
 69 70  1  0  0  0  0
 69152  1  0  0  0  0
 69153  1  0  0  0  0
 70 76  1  0  0  0  0
 70 77  1  0  0  0  0
 70155  1  0  0  0  0
 71 78  1  0  0  0  0
 72156  1  0  0  0  0
 72157  1  0  0  0  0
 72158  1  0  0  0  0
 73159  1  0  0  0  0
 73160  1  0  0  0  0
 73161  1  0  0  0  0
 74 75  1  0  0  0  0
 75 79  1  0  0  0  0
 75162  1  0  0  0  0
 76164  1  0  0  0  0
 76165  1  0  0  0  0
 76166  1  0  0  0  0
 77167  1  0  0  0  0
 77168  1  0  0  0  0
 77169  1  0  0  0  0
 78170  1  0  0  0  0
 78171  1  0  0  0  0
 78172  1  0  0  0  0
 79 80  1  0  0  0  0
 79173  1  0  0  0  0
 79174  1  0  0  0  0
 80 83  1  0  0  0  0
 80176  1  0  0  0  0
 80177  1  0  0  0  0
 81 82  1  0  0  0  0
 82 84  1  0  0  0  0
 82178  1  0  0  0  0
 84 86  1  0  0  0  0
 84179  1  0  0  0  0
 84180  1  0  0  0  0
 85 87  1  0  0  0  0
 85 88  2  0  0  0  0
 87183  1  0  0  0  0
 87184  1  0  0  0  0
 87185  1  0  0  0  0
 88186  1  0  0  0  0
 88187  1  0  0  0  0
M  END
> <PUBCHEM_COMPOUND_CID>
500559
> <PUBCHEM_COMPOUND_CANONICALIZED>
1
> <PUBCHEM_CACTVS_COMPLEXITY>
2450
> <PUBCHEM_CACTVS_HBOND_ACCEPTOR>
18
> <PUBCHEM_CACTVS_HBOND_DONOR>
13
> <PUBCHEM_CACTVS_ROTATABLE_BOND>
38
> <PUBCHEM_CACTVS_SUBSKEYS>
AAADcfB//gBAAAAAAAAAAAAAAAAAAWAAAAAwYAAAAAAAAAAAAAAAHgQQCAAADSzFwASCCAPAAgSIAIXSWAAAAAAAAgAAAIGIAAAAQBoAgSAUQAAGFgCAAAG/n4KOAAAAAAAAAAAAAAAAAAAAAAAAAAAAAA==
> <PUBCHEM_IUPAC_OPENEYE_NAME>
(4R)-5-[[(1S)-1-[[(1S,2S)-1-[[(1S)-2-[[(1R)-2-[(2S)-2-[[(1S)-2-[[(1S)-2-[[(1S)-1-acetyl-3-methyl-butyl]amino]-1-(carboxymethyl)-2-oxo-ethyl]amino]-1-(cyclohexylmethyl)-2-oxo-ethyl]carbamoyl]pyrrolidin-1-yl]-2-oxo-1-(sulfanylmethyl)ethyl]amino]-1-(cyclohexylmethyl)-2-oxo-ethyl]carbamoyl]-2-methyl-butyl]carbamoyl]-3-methyl-butyl]amino]-4-[[(2S)-3-carboxy-2-(isopropenylamino)propanoyl]amino]-5-oxo-pentanoic acid
> <PUBCHEM_IUPAC_CAS_NAME>
(4R)-4-[[(2S)-3-carboxy-2-(1-methylethenylamino)-1-oxopropyl]amino]-5-[[(2S)-1-[[(2S,3S)-1-[[(2S)-1-[[(2R)-1-[(2S)-2-[[[(2S)-1-[[(2S)-3-carboxy-1-[[(3S)-5-methyl-2-oxohexan-3-yl]amino]-1-oxopropan-2-yl]amino]-3-cyclohexyl-1-oxopropan-2-yl]amino]-oxomethyl]-1-pyrrolidinyl]-3-mercapto-1-oxopropan-2-yl]amino]-3-cyclohexyl-1-oxopropan-2-yl]amino]-3-methyl-1-oxopentan-2-yl]amino]-4-methyl-1-oxopentan-2-yl]amino]-5-oxopentanoic acid
> <PUBCHEM_IUPAC_NAME_MARKUP>
(4<I>R</I>)-5-[[(2<I>S</I>)-1-[[(2<I>S</I>,3<I>S</I>)-1-[[(2<I>S</I>)-1-[[(2<I>R</I>)-1-[(2<I>S</I>)-2-[[(2<I>S</I>)-1-[[(2<I>S</I>)-3-carboxy-1-[[(3<I>S</I>)-5-methyl-2-oxohexan-3-yl]amino]-1-oxopropan-2-yl]amino]-3-cyclohexyl-1-oxopropan-2-yl]carbamoyl]pyrrolidin-1-yl]-1-oxo-3-sulfanylpropan-2-yl]amino]-3-cyclohexyl-1-oxopropan-2-yl]amino]-3-methyl-1-oxopentan-2-yl]amino]-4-methyl-1-oxopentan-2-yl]amino]-4-[[(2<I>S</I>)-3-carboxy-2-(prop-1-en-2-ylamino)propanoyl]amino]-5-oxopentanoic acid
> <PUBCHEM_IUPAC_NAME>
(4R)-5-[[(2S)-1-[[(2S,3S)-1-[[(2S)-1-[[(2R)-1-[(2S)-2-[[(2S)-1-[[(2S)-3-carboxy-1-[[(3S)-5-methyl-2-oxohexan-3-yl]amino]-1-oxopropan-2-yl]amino]-3-cyclohexyl-1-oxopropan-2-yl]carbamoyl]pyrrolidin-1-yl]-1-oxo-3-sulfanylpropan-2-yl]amino]-3-cyclohexyl-1-oxopropan-2-yl]amino]-3-methyl-1-oxopentan-2-yl]amino]-4-methyl-1-oxopentan-2-yl]amino]-4-[[(2S)-3-carboxy-2-(prop-1-en-2-ylamino)propanoyl]amino]-5-oxopentanoic acid
> <PUBCHEM_IUPAC_SYSTEMATIC_NAME>
(4R)-5-[[(2S)-1-[[(2S,3S)-1-[[(2S)-3-cyclohexyl-1-[[(2R)-1-[(2S)-2-[[(2S)-3-cyclohexyl-1-[[(2S)-1-[[(3S)-5-methyl-2-oxidanylidene-hexan-3-yl]amino]-4-oxidanyl-1,4-bis(oxidanylidene)butan-2-yl]amino]-1-oxidanylidene-propan-2-yl]carbamoyl]pyrrolidin-1-yl]-1-oxidanylidene-3-sulfanyl-propan-2-yl]amino]-1-oxidanylidene-propan-2-yl]amino]-3-methyl-1-oxidanylidene-pentan-2-yl]amino]-4-methyl-1-oxidanylidene-pentan-2-yl]amino]-5-oxidanylidene-4-[[(2S)-4-oxidanyl-4-oxidanylidene-2-(prop-1-en-2-ylamino)butanoyl]amino]pentanoic acid
> <PUBCHEM_IUPAC_TRADITIONAL_NAME>
(4R)-5-[[(1S)-1-[[(1S,2S)-1-[[(1S)-2-[[(1R)-2-[(2S)-2-[[(1S)-2-[[(1S)-2-[[(1S)-1-acetyl-3-methyl-butyl]amino]-1-(carboxymethyl)-2-keto-ethyl]amino]-1-(cyclohexylmethyl)-2-keto-ethyl]carbamoyl]pyrrolidino]-2-keto-1-(mercaptomethyl)ethyl]amino]-1-(cyclohexylmethyl)-2-keto-ethyl]carbamoyl]-2-methyl-butyl]carbamoyl]-3-methyl-butyl]amino]-4-[[(2S)-3-carboxy-2-(isopropenylamino)propanoyl]amino]-5-keto-valeric acid
> <PUBCHEM_IUPAC_INCHI>
InChI=1S/C61H100N10O16S/c1-10-36(8)52(70-58(84)42(27-34(4)5)65-53(79)40(23-24-49(73)74)63-56(82)45(30-50(75)76)62-35(6)7)60(86)68-44(29-39-20-15-12-16-21-39)55(81)69-47(32-88)61(87)71-25-17-22-48(71)59(85)67-43(28-38-18-13-11-14-19-38)54(80)66-46(31-51(77)78)57(83)64-41(37(9)72)26-33(2)3/h33-34,36,38-48,52,62,88H,6,10-32H2,1-5,7-9H3,(H,63,82)(H,64,83)(H,65,79)(H,66,80)(H,67,85)(H,68,86)(H,69,81)(H,70,84)(H,73,74)(H,75,76)(H,77,78)/t36-,40+,41-,42-,43-,44-,45-,46-,47-,48-,52-/m0/s1
> <PUBCHEM_IUPAC_INCHIKEY>
KBGZSRVZTFPYPI-MSLLBBJESA-N
> <PUBCHEM_XLOGP3_AA>
6.5
> <PUBCHEM_EXACT_MASS>
1260.70394831
> <PUBCHEM_MOLECULAR_FORMULA>
C61H100N10O16S
> <PUBCHEM_MOLECULAR_WEIGHT>
1261.6
> <PUBCHEM_OPENEYE_CAN_SMILES>
CCC(C)C(C(=O)NC(CC1CCCCC1)C(=O)NC(CS)C(=O)N2CCCC2C(=O)NC(CC3CCCCC3)C(=O)NC(CC(=O)O)C(=O)NC(CC(C)C)C(=O)C)NC(=O)C(CC(C)C)NC(=O)C(CCC(=O)O)NC(=O)C(CC(=O)O)NC(=C)C
> <PUBCHEM_OPENEYE_ISO_SMILES>
CC[C@H](C)[C@@H](C(=O)N[C@@H](CC1CCCCC1)C(=O)N[C@@H](CS)C(=O)N2CCC[C@H]2C(=O)N[C@@H](CC3CCCCC3)C(=O)N[C@@H](CC(=O)O)C(=O)N[C@@H](CC(C)C)C(=O)C)NC(=O)[C@H](CC(C)C)NC(=O)[C@@H](CCC(=O)O)NC(=O)[C@H](CC(=O)O)NC(=C)C
> <PUBCHEM_CACTVS_TPSA>
395
> <PUBCHEM_MONOISOTOPIC_WEIGHT>
1260.70394831
> <PUBCHEM_TOTAL_CHARGE>
0
> <PUBCHEM_HEAVY_ATOM_COUNT>
88
> <PUBCHEM_ATOM_DEF_STEREO_COUNT>
11
> <PUBCHEM_ATOM_UDEF_STEREO_COUNT>
0
> <PUBCHEM_BOND_DEF_STEREO_COUNT>
0
> <PUBCHEM_BOND_UDEF_STEREO_COUNT>
0
> <PUBCHEM_ISOTOPIC_ATOM_COUNT>
0
> <PUBCHEM_COMPONENT_COUNT>
1
> <PUBCHEM_CACTVS_TAUTO_COUNT>
-1
> <PUBCHEM_COORDINATE_TYPE>
1
5
255
> <PUBCHEM_BONDANNOTATIONS>
42  19  6
43  20  6
51  21  6
57  22  6
54  23  5
66  24  6
63  25  6
75  26  5
82  27  5
44  48  6
56  60  6
$$$$
