500558
  -OEChem-10302200282D
 96 96  0     1  0  0  0  0  0999 V2000
   13.2124    3.7686    0.0000 S   0  0  0  0  0  0  0  0  0  0  0  0
    9.4651    2.9169    0.0000 O   0  0  0  0  0  0  0  0  0  0  0  0
   10.5671    3.7175    0.0000 O   0  0  0  0  0  0  0  0  0  0  0  0
    6.0010    1.9169    0.0000 O   0  0  0  0  0  0  0  0  0  0  0  0
    6.8671   -1.5831    0.0000 O   0  0  0  0  0  0  0  0  0  0  0  0
   13.7476    5.4159    0.0000 O   0  0  0  0  0  0  0  0  0  0  0  0
   12.5886    6.7031    0.0000 O   0  0  0  0  0  0  0  0  0  0  0  0
    6.8671   -2.5831    0.0000 O   0  0  0  0  0  0  0  0  0  0  0  0
    2.5369   -1.0831    0.0000 O   0  0  0  0  0  0  0  0  0  0  0  0
    3.4030   -2.5831    0.0000 O   0  0  0  0  0  0  0  0  0  0  0  0
    4.2690   -6.0831    0.0000 O   0  0  0  0  0  0  0  0  0  0  0  0
    6.0010   -6.0831    0.0000 O   0  0  0  0  0  0  0  0  0  0  0  0
    8.5991    4.4169    0.0000 N   0  0  0  0  0  0  0  0  0  0  0  0
    7.7331    1.9169    0.0000 N   0  0  0  0  0  0  0  0  0  0  0  0
   11.1023    5.3648    0.0000 N   0  0  0  0  0  0  0  0  0  0  0  0
    6.0010   -0.0831    0.0000 N   0  0  0  0  0  0  0  0  0  0  0  0
    5.1350   -2.5831    0.0000 N   0  0  0  0  0  0  0  0  0  0  0  0
    6.8671   -4.5831    0.0000 N   0  0  0  0  0  0  0  0  0  0  0  0
    9.4081    5.0047    0.0000 C   0  0  1  0  0  0  0  0  0  0  0  0
    9.0991    5.9558    0.0000 C   0  0  0  0  0  0  0  0  0  0  0  0
    7.7901    5.0047    0.0000 C   0  0  0  0  0  0  0  0  0  0  0  0
    8.0991    5.9558    0.0000 C   0  0  0  0  0  0  0  0  0  0  0  0
    7.7331    2.9169    0.0000 C   0  0  2  0  0  0  0  0  0  0  0  0
    8.5991    3.4169    0.0000 C   0  0  0  0  0  0  0  0  0  0  0  0
    6.8671    3.4169    0.0000 C   0  0  0  0  0  0  0  0  0  0  0  0
   10.3592    4.6957    0.0000 C   0  0  0  0  0  0  0  0  0  0  0  0
    6.8671    0.4169    0.0000 C   0  0  1  0  0  0  0  0  0  0  0  0
    7.7331   -0.0831    0.0000 C   0  0  2  0  0  0  0  0  0  0  0  0
    6.8671    1.4169    0.0000 C   0  0  0  0  0  0  0  0  0  0  0  0
    6.0010    2.9169    0.0000 C   0  0  0  0  0  0  0  0  0  0  0  0
    6.8671    4.4169    0.0000 C   0  0  0  0  0  0  0  0  0  0  0  0
    7.7331   -1.0831    0.0000 C   0  0  0  0  0  0  0  0  0  0  0  0
   12.0534    5.0558    0.0000 C   0  0  1  0  0  0  0  0  0  0  0  0
    8.5991    0.4169    0.0000 C   0  0  0  0  0  0  0  0  0  0  0  0
    6.0010   -1.0831    0.0000 C   0  0  0  0  0  0  0  0  0  0  0  0
    8.5991   -1.5831    0.0000 C   0  0  0  0  0  0  0  0  0  0  0  0
   12.2613    4.0776    0.0000 C   0  0  0  0  0  0  0  0  0  0  0  0
    5.1350   -1.5831    0.0000 C   0  0  1  0  0  0  0  0  0  0  0  0
   12.7965    5.7249    0.0000 C   0  0  0  0  0  0  0  0  0  0  0  0
    4.2690   -1.0831    0.0000 C   0  0  0  0  0  0  0  0  0  0  0  0
    6.0010   -3.0831    0.0000 C   0  0  0  0  0  0  0  0  0  0  0  0
    6.0010   -4.0831    0.0000 C   0  0  2  0  0  0  0  0  0  0  0  0
    3.4030   -1.5831    0.0000 C   0  0  0  0  0  0  0  0  0  0  0  0
    5.1350   -4.5831    0.0000 C   0  0  0  0  0  0  0  0  0  0  0  0
    7.7331   -4.0831    0.0000 C   0  0  0  0  0  0  0  0  0  0  0  0
    5.1350   -5.5831    0.0000 C   0  0  0  0  0  0  0  0  0  0  0  0
    8.5991   -4.5831    0.0000 C   0  0  0  0  0  0  0  0  0  0  0  0
    7.7331   -3.0831    0.0000 C   0  0  0  0  0  0  0  0  0  0  0  0
    9.5051    4.3923    0.0000 H   0  0  0  0  0  0  0  0  0  0  0  0
    9.7056    6.0847    0.0000 H   0  0  0  0  0  0  0  0  0  0  0  0
    9.0343    6.5724    0.0000 H   0  0  0  0  0  0  0  0  0  0  0  0
    7.2237    5.2569    0.0000 H   0  0  0  0  0  0  0  0  0  0  0  0
    7.4801    4.4678    0.0000 H   0  0  0  0  0  0  0  0  0  0  0  0
    8.1639    6.5724    0.0000 H   0  0  0  0  0  0  0  0  0  0  0  0
    7.4927    6.0847    0.0000 H   0  0  0  0  0  0  0  0  0  0  0  0
    8.2700    2.6069    0.0000 H   0  0  0  0  0  0  0  0  0  0  0  0
    6.3301    3.7269    0.0000 H   0  0  0  0  0  0  0  0  0  0  0  0
    8.2700    1.6069    0.0000 H   0  0  0  0  0  0  0  0  0  0  0  0
    6.3301    0.7269    0.0000 H   0  0  0  0  0  0  0  0  0  0  0  0
    7.7331    0.5369    0.0000 H   0  0  0  0  0  0  0  0  0  0  0  0
    5.6910    3.4539    0.0000 H   0  0  0  0  0  0  0  0  0  0  0  0
    5.4641    2.6069    0.0000 H   0  0  0  0  0  0  0  0  0  0  0  0
    6.3110    2.3800    0.0000 H   0  0  0  0  0  0  0  0  0  0  0  0
    7.4871    4.4169    0.0000 H   0  0  0  0  0  0  0  0  0  0  0  0
    6.8671    5.0369    0.0000 H   0  0  0  0  0  0  0  0  0  0  0  0
    6.2471    4.4169    0.0000 H   0  0  0  0  0  0  0  0  0  0  0  0
   10.9734    5.9713    0.0000 H   0  0  0  0  0  0  0  0  0  0  0  0
    7.1225   -0.9754    0.0000 H   0  0  0  0  0  0  0  0  0  0  0  0
    7.5210   -1.6657    0.0000 H   0  0  0  0  0  0  0  0  0  0  0  0
   11.5926    4.6409    0.0000 H   0  0  0  0  0  0  0  0  0  0  0  0
    5.4641    0.2269    0.0000 H   0  0  0  0  0  0  0  0  0  0  0  0
    8.9091   -0.1200    0.0000 H   0  0  0  0  0  0  0  0  0  0  0  0
    9.1360    0.7269    0.0000 H   0  0  0  0  0  0  0  0  0  0  0  0
    8.2891    0.9539    0.0000 H   0  0  0  0  0  0  0  0  0  0  0  0
    8.2891   -2.1200    0.0000 H   0  0  0  0  0  0  0  0  0  0  0  0
    9.1360   -1.8931    0.0000 H   0  0  0  0  0  0  0  0  0  0  0  0
    8.9091   -1.0461    0.0000 H   0  0  0  0  0  0  0  0  0  0  0  0
    5.6720   -1.8931    0.0000 H   0  0  0  0  0  0  0  0  0  0  0  0
   11.6417    4.0560    0.0000 H   0  0  0  0  0  0  0  0  0  0  0  0
   12.1750    3.4637    0.0000 H   0  0  0  0  0  0  0  0  0  0  0  0
    4.6675   -0.6081    0.0000 H   0  0  0  0  0  0  0  0  0  0  0  0
    3.8705   -0.6081    0.0000 H   0  0  0  0  0  0  0  0  0  0  0  0
    4.5981   -2.8931    0.0000 H   0  0  0  0  0  0  0  0  0  0  0  0
   13.3413    3.1622    0.0000 H   0  0  0  0  0  0  0  0  0  0  0  0
    6.5380   -3.7731    0.0000 H   0  0  0  0  0  0  0  0  0  0  0  0
   14.2083    5.8308    0.0000 H   0  0  0  0  0  0  0  0  0  0  0  0
    4.9230   -4.0005    0.0000 H   0  0  0  0  0  0  0  0  0  0  0  0
    4.5244   -4.6907    0.0000 H   0  0  0  0  0  0  0  0  0  0  0  0
    6.8671   -5.2031    0.0000 H   0  0  0  0  0  0  0  0  0  0  0  0
    2.0000   -1.3931    0.0000 H   0  0  0  0  0  0  0  0  0  0  0  0
    8.2891   -5.1200    0.0000 H   0  0  0  0  0  0  0  0  0  0  0  0
    9.1360   -4.8931    0.0000 H   0  0  0  0  0  0  0  0  0  0  0  0
    8.9091   -4.0461    0.0000 H   0  0  0  0  0  0  0  0  0  0  0  0
    8.2700   -2.7731    0.0000 H   0  0  0  0  0  0  0  0  0  0  0  0
    7.1962   -2.7731    0.0000 H   0  0  0  0  0  0  0  0  0  0  0  0
    4.2690   -6.7031    0.0000 H   0  0  0  0  0  0  0  0  0  0  0  0
  1 37  1  0  0  0  0
  1 84  1  0  0  0  0
  2 24  2  0  0  0  0
  3 26  2  0  0  0  0
  4 29  2  0  0  0  0
  5 35  2  0  0  0  0
  6 39  1  0  0  0  0
  6 86  1  0  0  0  0
  7 39  2  0  0  0  0
  8 41  2  0  0  0  0
  9 43  1  0  0  0  0
  9 90  1  0  0  0  0
 10 43  2  0  0  0  0
 11 46  1  0  0  0  0
 11 96  1  0  0  0  0
 12 46  2  0  0  0  0
 13 19  1  0  0  0  0
 13 21  1  0  0  0  0
 13 24  1  0  0  0  0
 23 14  1  1  0  0  0
 14 29  1  0  0  0  0
 14 58  1  0  0  0  0
 15 26  1  0  0  0  0
 33 15  1  6  0  0  0
 15 67  1  0  0  0  0
 27 16  1  6  0  0  0
 16 35  1  0  0  0  0
 16 71  1  0  0  0  0
 38 17  1  6  0  0  0
 17 41  1  0  0  0  0
 17 83  1  0  0  0  0
 42 18  1  1  0  0  0
 18 45  1  0  0  0  0
 18 89  1  0  0  0  0
 19 20  1  0  0  0  0
 19 26  1  1  0  0  0
 19 49  1  0  0  0  0
 20 22  1  0  0  0  0
 20 50  1  0  0  0  0
 20 51  1  0  0  0  0
 21 22  1  0  0  0  0
 21 52  1  0  0  0  0
 21 53  1  0  0  0  0
 22 54  1  0  0  0  0
 22 55  1  0  0  0  0
 23 24  1  0  0  0  0
 23 25  1  0  0  0  0
 23 56  1  0  0  0  0
 25 30  1  0  0  0  0
 25 31  1  0  0  0  0
 25 57  1  0  0  0  0
 27 28  1  0  0  0  0
 27 29  1  0  0  0  0
 27 59  1  0  0  0  0
 28 32  1  0  0  0  0
 28 34  1  1  0  0  0
 28 60  1  0  0  0  0
 30 61  1  0  0  0  0
 30 62  1  0  0  0  0
 30 63  1  0  0  0  0
 31 64  1  0  0  0  0
 31 65  1  0  0  0  0
 31 66  1  0  0  0  0
 32 36  1  0  0  0  0
 32 68  1  0  0  0  0
 32 69  1  0  0  0  0
 33 37  1  0  0  0  0
 33 39  1  0  0  0  0
 33 70  1  0  0  0  0
 34 72  1  0  0  0  0
 34 73  1  0  0  0  0
 34 74  1  0  0  0  0
 35 38  1  0  0  0  0
 36 75  1  0  0  0  0
 36 76  1  0  0  0  0
 36 77  1  0  0  0  0
 37 79  1  0  0  0  0
 37 80  1  0  0  0  0
 38 40  1  0  0  0  0
 38 78  1  0  0  0  0
 40 43  1  0  0  0  0
 40 81  1  0  0  0  0
 40 82  1  0  0  0  0
 41 42  1  0  0  0  0
 42 44  1  0  0  0  0
 42 85  1  0  0  0  0
 44 46  1  0  0  0  0
 44 87  1  0  0  0  0
 44 88  1  0  0  0  0
 45 47  1  0  0  0  0
 45 48  2  0  0  0  0
 47 91  1  0  0  0  0
 47 92  1  0  0  0  0
 47 93  1  0  0  0  0
 48 94  1  0  0  0  0
 48 95  1  0  0  0  0
M  END
> <PUBCHEM_COMPOUND_CID>
500558
> <PUBCHEM_COMPOUND_CANONICALIZED>
1
> <PUBCHEM_CACTVS_COMPLEXITY>
1250
> <PUBCHEM_CACTVS_HBOND_ACCEPTOR>
13
> <PUBCHEM_CACTVS_HBOND_DONOR>
9
> <PUBCHEM_CACTVS_ROTATABLE_BOND>
20
> <PUBCHEM_CACTVS_SUBSKEYS>
AAADcfB7vABAAAAAAAAAAAAAAAAAAWAAAAAAAAAAAAAAAAAAAAAAHgQQCAAADSjFwASCCAPAAgSIAAXSWAAAAAAAAgAAAIGIAAACQBoAgSAUQAAGFgCQAAA/AQAKAAAAAAAAAAAAAAAAAAAAAAAAAAAAAA==
> <PUBCHEM_IUPAC_OPENEYE_NAME>
(3S)-4-[[(1R)-1-(carboxymethyl)-2-[[(1S,2S)-1-[[(1S)-1-[(2S)-2-[[(1R)-1-carboxy-2-sulfanyl-ethyl]carbamoyl]pyrrolidine-1-carbonyl]-2-methyl-propyl]carbamoyl]-2-methyl-butyl]amino]-2-oxo-ethyl]amino]-3-(isopropenylamino)-4-oxo-butanoic acid
> <PUBCHEM_IUPAC_CAS_NAME>
(3S)-4-[[(2R)-3-carboxy-1-[[(2S,3S)-1-[[(2S)-1-[(2S)-2-[[[(1R)-1-carboxy-2-mercaptoethyl]amino]-oxomethyl]-1-pyrrolidinyl]-3-methyl-1-oxobutan-2-yl]amino]-3-methyl-1-oxopentan-2-yl]amino]-1-oxopropan-2-yl]amino]-3-(1-methylethenylamino)-4-oxobutanoic acid
> <PUBCHEM_IUPAC_NAME_MARKUP>
(3<I>S</I>)-4-[[(2<I>R</I>)-3-carboxy-1-[[(2<I>S</I>,3<I>S</I>)-1-[[(2<I>S</I>)-1-[(2<I>S</I>)-2-[[(1<I>R</I>)-1-carboxy-2-sulfanylethyl]carbamoyl]pyrrolidin-1-yl]-3-methyl-1-oxobutan-2-yl]amino]-3-methyl-1-oxopentan-2-yl]amino]-1-oxopropan-2-yl]amino]-4-oxo-3-(prop-1-en-2-ylamino)butanoic acid
> <PUBCHEM_IUPAC_NAME>
(3S)-4-[[(2R)-3-carboxy-1-[[(2S,3S)-1-[[(2S)-1-[(2S)-2-[[(1R)-1-carboxy-2-sulfanylethyl]carbamoyl]pyrrolidin-1-yl]-3-methyl-1-oxobutan-2-yl]amino]-3-methyl-1-oxopentan-2-yl]amino]-1-oxopropan-2-yl]amino]-4-oxo-3-(prop-1-en-2-ylamino)butanoic acid
> <PUBCHEM_IUPAC_SYSTEMATIC_NAME>
(3S)-4-[[(2R)-1-[[(2S,3S)-3-methyl-1-[[(2S)-3-methyl-1-oxidanylidene-1-[(2S)-2-[[(2R)-1-oxidanyl-1-oxidanylidene-3-sulfanyl-propan-2-yl]carbamoyl]pyrrolidin-1-yl]butan-2-yl]amino]-1-oxidanylidene-pentan-2-yl]amino]-4-oxidanyl-1,4-bis(oxidanylidene)butan-2-yl]amino]-4-oxidanylidene-3-(prop-1-en-2-ylamino)butanoic acid
> <PUBCHEM_IUPAC_TRADITIONAL_NAME>
(3S)-4-[[(1R)-2-[[(1S,2S)-1-[[(1S)-1-[(2S)-2-[[(1R)-1-carboxy-2-mercapto-ethyl]carbamoyl]pyrrolidine-1-carbonyl]-2-methyl-propyl]carbamoyl]-2-methyl-butyl]amino]-1-(carboxymethyl)-2-keto-ethyl]amino]-3-(isopropenylamino)-4-keto-butyric acid
> <PUBCHEM_IUPAC_INCHI>
InChI=1S/C30H48N6O11S/c1-7-16(6)24(35-26(42)18(12-22(39)40)32-25(41)17(11-21(37)38)31-15(4)5)28(44)34-23(14(2)3)29(45)36-10-8-9-20(36)27(43)33-19(13-48)30(46)47/h14,16-20,23-24,31,48H,4,7-13H2,1-3,5-6H3,(H,32,41)(H,33,43)(H,34,44)(H,35,42)(H,37,38)(H,39,40)(H,46,47)/t16-,17-,18+,19-,20-,23-,24-/m0/s1
> <PUBCHEM_IUPAC_INCHIKEY>
QKTMRYKBBSZTJI-CFYKOPIISA-N
> <PUBCHEM_XLOGP3_AA>
0.7
> <PUBCHEM_EXACT_MASS>
700.31017754
> <PUBCHEM_MOLECULAR_FORMULA>
C30H48N6O11S
> <PUBCHEM_MOLECULAR_WEIGHT>
700.8
> <PUBCHEM_OPENEYE_CAN_SMILES>
CCC(C)C(C(=O)NC(C(C)C)C(=O)N1CCCC1C(=O)NC(CS)C(=O)O)NC(=O)C(CC(=O)O)NC(=O)C(CC(=O)O)NC(=C)C
> <PUBCHEM_OPENEYE_ISO_SMILES>
CC[C@H](C)[C@@H](C(=O)N[C@@H](C(C)C)C(=O)N1CCC[C@H]1C(=O)N[C@@H](CS)C(=O)O)NC(=O)[C@@H](CC(=O)O)NC(=O)[C@H](CC(=O)O)NC(=C)C
> <PUBCHEM_CACTVS_TPSA>
262
> <PUBCHEM_MONOISOTOPIC_WEIGHT>
700.31017754
> <PUBCHEM_TOTAL_CHARGE>
0
> <PUBCHEM_HEAVY_ATOM_COUNT>
48
> <PUBCHEM_ATOM_DEF_STEREO_COUNT>
7
> <PUBCHEM_ATOM_UDEF_STEREO_COUNT>
0
> <PUBCHEM_BOND_DEF_STEREO_COUNT>
0
> <PUBCHEM_BOND_UDEF_STEREO_COUNT>
0
> <PUBCHEM_ISOTOPIC_ATOM_COUNT>
0
> <PUBCHEM_COMPONENT_COUNT>
1
> <PUBCHEM_CACTVS_TAUTO_COUNT>
-1
> <PUBCHEM_COORDINATE_TYPE>
1
5
255
> <PUBCHEM_BONDANNOTATIONS>
23  14  5
33  15  6
27  16  6
38  17  6
42  18  5
19  26  5
28  34  5
$$$$
