500531
  -OEChem-10302200282D
123127  0     1  0  0  0  0  0999 V2000
   11.3062   -4.6431    0.0000 O   0  0  0  0  0  0  0  0  0  0  0  0
    9.9718   -3.7431    0.0000 O   0  0  0  0  0  0  0  0  0  0  0  0
    8.8767   -3.7084    0.0000 O   0  0  0  0  0  0  0  0  0  0  0  0
    8.1549   -2.5532    0.0000 O   0  0  0  0  0  0  0  0  0  0  0  0
    5.3177   -0.3284    0.0000 O   0  0  0  0  0  0  0  0  0  0  0  0
    7.4318    2.5923    0.0000 O   0  0  0  0  0  0  0  0  0  0  0  0
    4.5945    4.8172    0.0000 O   0  0  0  0  0  0  0  0  0  0  0  0
    2.6140    4.5388    0.0000 O   0  0  0  0  0  0  0  0  0  0  0  0
    2.8550    2.8237    0.0000 O   0  0  0  0  0  0  0  0  0  0  0  0
    5.1027    8.3868    0.0000 O   0  0  0  0  0  0  0  0  0  0  0  0
    6.7086    7.7379    0.0000 O   0  0  0  0  0  0  0  0  0  0  0  0
    8.7559   -5.4362    0.0000 N   0  0  0  0  0  0  0  0  0  0  0  0
    6.7900   -3.6196    0.0000 N   0  0  0  0  0  0  0  0  0  0  0  0
    6.9236   -0.9772    0.0000 N   0  0  0  0  0  0  0  0  0  0  0  0
    6.0669    1.5260    0.0000 N   0  0  0  0  0  0  0  0  0  0  0  0
    6.2004    4.1684    0.0000 N   0  0  0  0  0  0  0  0  0  0  0  0
    6.9496    6.0227    0.0000 N   0  0  0  0  0  0  0  0  0  0  0  0
   12.8037   -2.8226    0.0000 C   0  0  1  0  0  0  0  0  0  0  0  0
   14.2026   -2.8138    0.0000 C   0  0  0  0  0  0  0  0  0  0  0  0
   13.0625   -1.8566    0.0000 C   0  0  1  0  0  0  0  0  0  0  0  0
   12.3259   -0.8740    0.0000 C   0  0  0  0  0  0  0  0  0  0  0  0
   11.5826   -3.6882    0.0000 C   0  0  1  0  0  0  0  0  0  0  0  0
   11.0292   -2.1678    0.0000 C   0  0  0  0  0  0  0  0  0  0  0  0
   10.7536   -3.1290    0.0000 C   0  0  1  0  0  0  0  0  0  0  0  0
   15.0686   -2.3138    0.0000 C   0  0  0  0  0  0  0  0  0  0  0  0
   14.7026   -3.6798    0.0000 C   0  0  0  0  0  0  0  0  0  0  0  0
   12.4117   -4.2474    0.0000 C   0  0  0  0  0  0  0  0  0  0  0  0
    9.7535   -5.5060    0.0000 C   0  0  1  0  0  0  0  0  0  0  0  0
   10.1918   -6.4048    0.0000 C   0  0  0  0  0  0  0  0  0  0  0  0
    9.6326   -7.2338    0.0000 C   0  0  0  0  0  0  0  0  0  0  0  0
    8.3175   -4.5374    0.0000 C   0  0  0  0  0  0  0  0  0  0  0  0
    7.3200   -4.4676    0.0000 C   0  0  2  0  0  0  0  0  0  0  0  0
   10.0710   -8.1326    0.0000 C   0  0  0  0  0  0  0  0  0  0  0  0
    8.6351   -7.1640    0.0000 C   0  0  0  0  0  0  0  0  0  0  0  0
    6.6772   -5.2337    0.0000 C   0  0  0  0  0  0  0  0  0  0  0  0
    5.7500   -4.8591    0.0000 C   0  0  0  0  0  0  0  0  0  0  0  0
    5.8198   -3.8615    0.0000 C   0  0  0  0  0  0  0  0  0  0  0  0
    9.5118   -8.9616    0.0000 C   0  0  0  0  0  0  0  0  0  0  0  0
    8.0759   -7.9931    0.0000 C   0  0  0  0  0  0  0  0  0  0  0  0
    7.1646   -2.6924    0.0000 C   0  0  0  0  0  0  0  0  0  0  0  0
    8.5143   -8.8919    0.0000 C   0  0  0  0  0  0  0  0  0  0  0  0
    6.5490   -1.9044    0.0000 C   0  0  2  0  0  0  0  0  0  0  0  0
    5.5587   -2.0436    0.0000 C   0  0  0  0  0  0  0  0  0  0  0  0
    4.9431   -1.2556    0.0000 C   0  0  0  0  0  0  0  0  0  0  0  0
    5.1841   -2.9708    0.0000 C   0  0  0  0  0  0  0  0  0  0  0  0
    6.3079   -0.1892    0.0000 C   0  0  0  0  0  0  0  0  0  0  0  0
    6.6825    0.7380    0.0000 C   0  0  2  0  0  0  0  0  0  0  0  0
    7.6728    0.8771    0.0000 C   0  0  0  0  0  0  0  0  0  0  0  0
    8.0474    1.8043    0.0000 C   0  0  0  0  0  0  0  0  0  0  0  0
    8.2885    0.0891    0.0000 C   0  0  0  0  0  0  0  0  0  0  0  0
    6.4415    2.4532    0.0000 C   0  0  0  0  0  0  0  0  0  0  0  0
    5.8258    3.2412    0.0000 C   0  0  2  0  0  0  0  0  0  0  0  0
    4.8356    3.1020    0.0000 C   0  0  0  0  0  0  0  0  0  0  0  0
    4.2199    3.8900    0.0000 C   0  0  0  0  0  0  0  0  0  0  0  0
    5.5848    4.9564    0.0000 C   0  0  0  0  0  0  0  0  0  0  0  0
    5.9594    5.8836    0.0000 C   0  0  2  0  0  0  0  0  0  0  0  0
    3.2296    3.7508    0.0000 C   0  0  0  0  0  0  0  0  0  0  0  0
    5.3437    6.6716    0.0000 C   0  0  0  0  0  0  0  0  0  0  0  0
    5.7183    7.5988    0.0000 C   0  0  0  0  0  0  0  0  0  0  0  0
   10.3127   -4.6769    0.0000 B   0  0  0  0  0  0  0  0  0  0  0  0
   12.5837   -3.6436    0.0000 H   0  0  0  0  0  0  0  0  0  0  0  0
   13.2825   -1.0356    0.0000 H   0  0  0  0  0  0  0  0  0  0  0  0
   12.6437   -0.3417    0.0000 H   0  0  0  0  0  0  0  0  0  0  0  0
   11.7127   -0.7821    0.0000 H   0  0  0  0  0  0  0  0  0  0  0  0
   11.0242   -1.5478    0.0000 H   0  0  0  0  0  0  0  0  0  0  0  0
   10.4149   -2.0840    0.0000 H   0  0  0  0  0  0  0  0  0  0  0  0
   10.0489   -2.6537    0.0000 H   0  0  0  0  0  0  0  0  0  0  0  0
   15.3786   -2.8507    0.0000 H   0  0  0  0  0  0  0  0  0  0  0  0
   15.6056   -2.0038    0.0000 H   0  0  0  0  0  0  0  0  0  0  0  0
   14.7586   -1.7768    0.0000 H   0  0  0  0  0  0  0  0  0  0  0  0
   14.1657   -3.9898    0.0000 H   0  0  0  0  0  0  0  0  0  0  0  0
   15.0126   -4.2167    0.0000 H   0  0  0  0  0  0  0  0  0  0  0  0
   15.2395   -3.3698    0.0000 H   0  0  0  0  0  0  0  0  0  0  0  0
   12.0650   -4.7614    0.0000 H   0  0  0  0  0  0  0  0  0  0  0  0
   12.9257   -4.5941    0.0000 H   0  0  0  0  0  0  0  0  0  0  0  0
   12.7584   -3.7334    0.0000 H   0  0  0  0  0  0  0  0  0  0  0  0
    9.4068   -6.0200    0.0000 H   0  0  0  0  0  0  0  0  0  0  0  0
   10.6378   -6.8354    0.0000 H   0  0  0  0  0  0  0  0  0  0  0  0
   10.6934   -6.0403    0.0000 H   0  0  0  0  0  0  0  0  0  0  0  0
    8.4092   -5.9502    0.0000 H   0  0  0  0  0  0  0  0  0  0  0  0
    7.6393   -3.9362    0.0000 H   0  0  0  0  0  0  0  0  0  0  0  0
   10.6895   -8.1758    0.0000 H   0  0  0  0  0  0  0  0  0  0  0  0
    8.3633   -6.6068    0.0000 H   0  0  0  0  0  0  0  0  0  0  0  0
    6.3861   -5.7811    0.0000 H   0  0  0  0  0  0  0  0  0  0  0  0
    7.1912   -5.5804    0.0000 H   0  0  0  0  0  0  0  0  0  0  0  0
    5.1394   -4.7514    0.0000 H   0  0  0  0  0  0  0  0  0  0  0  0
    5.5791   -5.4551    0.0000 H   0  0  0  0  0  0  0  0  0  0  0  0
    5.7335   -3.2476    0.0000 H   0  0  0  0  0  0  0  0  0  0  0  0
    5.2001   -3.8832    0.0000 H   0  0  0  0  0  0  0  0  0  0  0  0
    9.7836   -9.5189    0.0000 H   0  0  0  0  0  0  0  0  0  0  0  0
    7.4574   -7.9498    0.0000 H   0  0  0  0  0  0  0  0  0  0  0  0
    8.1676   -9.4059    0.0000 H   0  0  0  0  0  0  0  0  0  0  0  0
    7.1630   -1.8181    0.0000 H   0  0  0  0  0  0  0  0  0  0  0  0
    5.7910   -1.4687    0.0000 H   0  0  0  0  0  0  0  0  0  0  0  0
    7.5376   -0.8909    0.0000 H   0  0  0  0  0  0  0  0  0  0  0  0
    5.4316   -0.8739    0.0000 H   0  0  0  0  0  0  0  0  0  0  0  0
    4.5614   -0.7670    0.0000 H   0  0  0  0  0  0  0  0  0  0  0  0
    4.4545   -1.6373    0.0000 H   0  0  0  0  0  0  0  0  0  0  0  0
    4.6093   -2.7385    0.0000 H   0  0  0  0  0  0  0  0  0  0  0  0
    4.9519   -3.5456    0.0000 H   0  0  0  0  0  0  0  0  0  0  0  0
    5.7590   -3.2030    0.0000 H   0  0  0  0  0  0  0  0  0  0  0  0
    6.9148    1.3128    0.0000 H   0  0  0  0  0  0  0  0  0  0  0  0
    7.2911    1.3657    0.0000 H   0  0  0  0  0  0  0  0  0  0  0  0
    5.4529    1.4397    0.0000 H   0  0  0  0  0  0  0  0  0  0  0  0
    8.6223    1.5721    0.0000 H   0  0  0  0  0  0  0  0  0  0  0  0
    8.2797    2.3792    0.0000 H   0  0  0  0  0  0  0  0  0  0  0  0
    7.4726    2.0366    0.0000 H   0  0  0  0  0  0  0  0  0  0  0  0
    7.7999   -0.2926    0.0000 H   0  0  0  0  0  0  0  0  0  0  0  0
    8.6702   -0.3994    0.0000 H   0  0  0  0  0  0  0  0  0  0  0  0
    8.7770    0.4708    0.0000 H   0  0  0  0  0  0  0  0  0  0  0  0
    5.4441    3.7298    0.0000 H   0  0  0  0  0  0  0  0  0  0  0  0
    4.2881    2.8109    0.0000 H   0  0  0  0  0  0  0  0  0  0  0  0
    5.0272    2.5124    0.0000 H   0  0  0  0  0  0  0  0  0  0  0  0
    6.8144    4.2546    0.0000 H   0  0  0  0  0  0  0  0  0  0  0  0
    4.7673    4.1811    0.0000 H   0  0  0  0  0  0  0  0  0  0  0  0
    4.0283    4.4797    0.0000 H   0  0  0  0  0  0  0  0  0  0  0  0
    6.3411    5.3950    0.0000 H   0  0  0  0  0  0  0  0  0  0  0  0
    4.8179    7.0001    0.0000 H   0  0  0  0  0  0  0  0  0  0  0  0
    4.9288    6.2108    0.0000 H   0  0  0  0  0  0  0  0  0  0  0  0
    7.1819    6.5976    0.0000 H   0  0  0  0  0  0  0  0  0  0  0  0
    7.3314    5.5342    0.0000 H   0  0  0  0  0  0  0  0  0  0  0  0
    2.0000    4.4526    0.0000 H   0  0  0  0  0  0  0  0  0  0  0  0
    5.3349    8.9616    0.0000 H   0  0  0  0  0  0  0  0  0  0  0  0
  1 22  1  0  0  0  0
  1 60  1  0  0  0  0
  2 24  1  0  0  0  0
  2 60  1  0  0  0  0
  3 31  2  0  0  0  0
  4 40  2  0  0  0  0
  5 46  2  0  0  0  0
  6 51  2  0  0  0  0
  7 55  2  0  0  0  0
  8 57  1  0  0  0  0
  8122  1  0  0  0  0
  9 57  2  0  0  0  0
 10 59  1  0  0  0  0
 10123  1  0  0  0  0
 11 59  2  0  0  0  0
 28 12  1  6  0  0  0
 12 31  1  0  0  0  0
 12 80  1  0  0  0  0
 13 32  1  0  0  0  0
 13 37  1  0  0  0  0
 13 40  1  0  0  0  0
 42 14  1  6  0  0  0
 14 46  1  0  0  0  0
 14 95  1  0  0  0  0
 47 15  1  1  0  0  0
 15 51  1  0  0  0  0
 15104  1  0  0  0  0
 52 16  1  6  0  0  0
 16 55  1  0  0  0  0
 16114  1  0  0  0  0
 56 17  1  6  0  0  0
 17120  1  0  0  0  0
 17121  1  0  0  0  0
 18 19  1  0  0  0  0
 18 21  1  0  0  0  0
 18 22  1  0  0  0  0
 18 61  1  1  0  0  0
 19 20  1  0  0  0  0
 19 25  1  0  0  0  0
 19 26  1  0  0  0  0
 20 21  1  0  0  0  0
 20 23  1  0  0  0  0
 20 62  1  1  0  0  0
 21 63  1  0  0  0  0
 21 64  1  0  0  0  0
 22 24  1  0  0  0  0
 22 27  1  1  0  0  0
 23 24  1  0  0  0  0
 23 65  1  0  0  0  0
 23 66  1  0  0  0  0
 24 67  1  1  0  0  0
 25 68  1  0  0  0  0
 25 69  1  0  0  0  0
 25 70  1  0  0  0  0
 26 71  1  0  0  0  0
 26 72  1  0  0  0  0
 26 73  1  0  0  0  0
 27 74  1  0  0  0  0
 27 75  1  0  0  0  0
 27 76  1  0  0  0  0
 28 29  1  0  0  0  0
 28 60  1  0  0  0  0
 28 77  1  0  0  0  0
 29 30  1  0  0  0  0
 29 78  1  0  0  0  0
 29 79  1  0  0  0  0
 30 33  2  0  0  0  0
 30 34  1  0  0  0  0
 32 31  1  6  0  0  0
 32 35  1  0  0  0  0
 32 81  1  0  0  0  0
 33 38  1  0  0  0  0
 33 82  1  0  0  0  0
 34 39  2  0  0  0  0
 34 83  1  0  0  0  0
 35 36  1  0  0  0  0
 35 84  1  0  0  0  0
 35 85  1  0  0  0  0
 36 37  1  0  0  0  0
 36 86  1  0  0  0  0
 36 87  1  0  0  0  0
 37 88  1  0  0  0  0
 37 89  1  0  0  0  0
 38 41  2  0  0  0  0
 38 90  1  0  0  0  0
 39 41  1  0  0  0  0
 39 91  1  0  0  0  0
 40 42  1  0  0  0  0
 41 92  1  0  0  0  0
 42 43  1  0  0  0  0
 42 93  1  0  0  0  0
 43 44  1  0  0  0  0
 43 45  1  0  0  0  0
 43 94  1  0  0  0  0
 44 96  1  0  0  0  0
 44 97  1  0  0  0  0
 44 98  1  0  0  0  0
 45 99  1  0  0  0  0
 45100  1  0  0  0  0
 45101  1  0  0  0  0
 46 47  1  0  0  0  0
 47 48  1  0  0  0  0
 47102  1  0  0  0  0
 48 49  1  0  0  0  0
 48 50  1  0  0  0  0
 48103  1  0  0  0  0
 49105  1  0  0  0  0
 49106  1  0  0  0  0
 49107  1  0  0  0  0
 50108  1  0  0  0  0
 50109  1  0  0  0  0
 50110  1  0  0  0  0
 51 52  1  0  0  0  0
 52 53  1  0  0  0  0
 52111  1  0  0  0  0
 53 54  1  0  0  0  0
 53112  1  0  0  0  0
 53113  1  0  0  0  0
 54 57  1  0  0  0  0
 54115  1  0  0  0  0
 54116  1  0  0  0  0
 55 56  1  0  0  0  0
 56 58  1  0  0  0  0
 56117  1  0  0  0  0
 58 59  1  0  0  0  0
 58118  1  0  0  0  0
 58119  1  0  0  0  0
M  END
> <PUBCHEM_COMPOUND_CID>
500531
> <PUBCHEM_COMPOUND_CANONICALIZED>
1
> <PUBCHEM_CACTVS_COMPLEXITY>
1620
> <PUBCHEM_CACTVS_HBOND_ACCEPTOR>
12
> <PUBCHEM_CACTVS_HBOND_DONOR>
7
> <PUBCHEM_CACTVS_ROTATABLE_BOND>
19
> <PUBCHEM_CACTVS_SUBSKEYS>
AAADcfJ/vAAAAAAAAAAAAAAAAABgAWJAAAAwYMAAAAAAAEgBAAAoHgAQCAAAD3zhmAYyCIPAAgCIAiHSGAACAAAgAAAIiIGIAIgJYDqAkTGUYAAmlgCIiAe/1/IPgAAAAAAAAADAAAYAADCAAAAAAAAAAA==
> <PUBCHEM_IUPAC_OPENEYE_NAME>
(4S)-4-[[(2S)-2-amino-3-carboxy-propanoyl]amino]-5-[[(1S)-2-methyl-1-[[(1S)-2-methyl-1-[(2S)-2-[[(1R)-2-phenyl-1-[(1R,2S,6R,8S)-2,9,9-trimethyl-3,5-dioxa-4-boratricyclo[6.1.1.02,6]decan-4-yl]ethyl]carbamoyl]pyrrolidine-1-carbonyl]propyl]carbamoyl]propyl]amino]-5-oxo-pentanoic acid
> <PUBCHEM_IUPAC_CAS_NAME>
(4S)-4-[[(2S)-2-amino-3-carboxy-1-oxopropyl]amino]-5-[[(2S)-3-methyl-1-[[(2S)-3-methyl-1-oxo-1-[(2S)-2-[oxo-[[(1R)-2-phenyl-1-[(1R,2S,6R,8S)-2,9,9-trimethyl-3,5-dioxa-4-boratricyclo[6.1.1.02,6]decan-4-yl]ethyl]amino]methyl]-1-pyrrolidinyl]butan-2-yl]amino]-1-oxobutan-2-yl]amino]-5-oxopentanoic acid
> <PUBCHEM_IUPAC_NAME_MARKUP>
(4<I>S</I>)-4-[[(2<I>S</I>)-2-amino-3-carboxypropanoyl]amino]-5-[[(2<I>S</I>)-3-methyl-1-[[(2<I>S</I>)-3-methyl-1-oxo-1-[(2<I>S</I>)-2-[[(1<I>R</I>)-2-phenyl-1-[(1<I>R</I>,2<I>S</I>,6<I>R</I>,8<I>S</I>)-2,9,9-trimethyl-3,5-dioxa-4-boratricyclo[6.1.1.0<SUP>2,6</SUP>]decan-4-yl]ethyl]carbamoyl]pyrrolidin-1-yl]butan-2-yl]amino]-1-oxobutan-2-yl]amino]-5-oxopentanoic acid
> <PUBCHEM_IUPAC_NAME>
(4S)-4-[[(2S)-2-amino-3-carboxypropanoyl]amino]-5-[[(2S)-3-methyl-1-[[(2S)-3-methyl-1-oxo-1-[(2S)-2-[[(1R)-2-phenyl-1-[(1R,2S,6R,8S)-2,9,9-trimethyl-3,5-dioxa-4-boratricyclo[6.1.1.02,6]decan-4-yl]ethyl]carbamoyl]pyrrolidin-1-yl]butan-2-yl]amino]-1-oxobutan-2-yl]amino]-5-oxopentanoic acid
> <PUBCHEM_IUPAC_SYSTEMATIC_NAME>
(4S)-4-[[(2S)-2-azanyl-4-oxidanyl-4-oxidanylidene-butanoyl]amino]-5-[[(2S)-3-methyl-1-[[(2S)-3-methyl-1-oxidanylidene-1-[(2S)-2-[[(1R)-2-phenyl-1-[(1R,2S,6R,8S)-2,9,9-trimethyl-3,5-dioxa-4-boratricyclo[6.1.1.02,6]decan-4-yl]ethyl]carbamoyl]pyrrolidin-1-yl]butan-2-yl]amino]-1-oxidanylidene-butan-2-yl]amino]-5-oxidanylidene-pentanoic acid
> <PUBCHEM_IUPAC_TRADITIONAL_NAME>
(4S)-4-[[(2S)-2-amino-3-carboxy-propanoyl]amino]-5-keto-5-[[(1S)-2-methyl-1-[[(1S)-2-methyl-1-[(2S)-2-[[(1R)-2-phenyl-1-[(1R,2S,6R,8S)-2,9,9-trimethyl-3,5-dioxa-4-boratricyclo[6.1.1.02,6]decan-4-yl]ethyl]carbamoyl]pyrrolidine-1-carbonyl]propyl]carbamoyl]propyl]amino]valeric acid
> <PUBCHEM_IUPAC_INCHI>
InChI=1S/C42H63BN6O11/c1-22(2)34(47-37(55)27(15-16-32(50)51)45-36(54)26(44)21-33(52)53)39(57)48-35(23(3)4)40(58)49-17-11-14-28(49)38(56)46-31(18-24-12-9-8-10-13-24)43-59-30-20-25-19-29(41(25,5)6)42(30,7)60-43/h8-10,12-13,22-23,25-31,34-35H,11,14-21,44H2,1-7H3,(H,45,54)(H,46,56)(H,47,55)(H,48,57)(H,50,51)(H,52,53)/t25-,26-,27-,28-,29+,30+,31-,34-,35-,42-/m0/s1
> <PUBCHEM_IUPAC_INCHIKEY>
LLEUUNMVDOWADP-GPDSAWQZSA-N
> <PUBCHEM_EXACT_MASS>
838.4647870
> <PUBCHEM_MOLECULAR_FORMULA>
C42H63BN6O11
> <PUBCHEM_MOLECULAR_WEIGHT>
838.8
> <PUBCHEM_OPENEYE_CAN_SMILES>
B1(OC2CC3CC(C3(C)C)C2(O1)C)C(CC4=CC=CC=C4)NC(=O)C5CCCN5C(=O)C(C(C)C)NC(=O)C(C(C)C)NC(=O)C(CCC(=O)O)NC(=O)C(CC(=O)O)N
> <PUBCHEM_OPENEYE_ISO_SMILES>
B1(O[C@@H]2C[C@@H]3C[C@@H]([C@@]2(O1)C)C3(C)C)[C@H](CC4=CC=CC=C4)NC(=O)[C@@H]5CCCN5C(=O)[C@H](C(C)C)NC(=O)[C@H](C(C)C)NC(=O)[C@H](CCC(=O)O)NC(=O)[C@H](CC(=O)O)N
> <PUBCHEM_CACTVS_TPSA>
256
> <PUBCHEM_MONOISOTOPIC_WEIGHT>
838.4647870
> <PUBCHEM_TOTAL_CHARGE>
0
> <PUBCHEM_HEAVY_ATOM_COUNT>
60
> <PUBCHEM_ATOM_DEF_STEREO_COUNT>
10
> <PUBCHEM_ATOM_UDEF_STEREO_COUNT>
0
> <PUBCHEM_BOND_DEF_STEREO_COUNT>
0
> <PUBCHEM_BOND_UDEF_STEREO_COUNT>
0
> <PUBCHEM_ISOTOPIC_ATOM_COUNT>
0
> <PUBCHEM_COMPONENT_COUNT>
1
> <PUBCHEM_CACTVS_TAUTO_COUNT>
-1
> <PUBCHEM_COORDINATE_TYPE>
1
5
255
> <PUBCHEM_BONDANNOTATIONS>
28  12  6
42  14  6
47  15  5
52  16  6
56  17  6
18  61  5
20  62  5
22  27  5
24  67  5
30  33  8
30  34  8
32  31  6
33  38  8
34  39  8
38  41  8
39  41  8
$$$$
