500548
  -OEChem-10302200282D
136141  0     1  0  0  0  0  0999 V2000
   12.6167    5.4028    0.0000 O   0  0  0  0  0  0  0  0  0  0  0  0
   11.2824    6.3028    0.0000 O   0  0  0  0  0  0  0  0  0  0  0  0
    9.9456    2.8819    0.0000 O   0  0  0  0  0  0  0  0  0  0  0  0
    9.0700    1.8384    0.0000 O   0  0  0  0  0  0  0  0  0  0  0  0
    5.9508    0.0301    0.0000 O   0  0  0  0  0  0  0  0  0  0  0  0
    7.6378   -3.1564    0.0000 O   0  0  0  0  0  0  0  0  0  0  0  0
    4.5185   -4.9648    0.0000 O   0  0  0  0  0  0  0  0  0  0  0  0
    2.5960   -4.4135    0.0000 O   0  0  0  0  0  0  0  0  0  0  0  0
    3.0734   -2.7485    0.0000 O   0  0  0  0  0  0  0  0  0  0  0  0
    4.5249   -8.5703    0.0000 O   0  0  0  0  0  0  0  0  0  0  0  0
    6.2055   -8.1513    0.0000 O   0  0  0  0  0  0  0  0  0  0  0  0
   10.0664    4.6097    0.0000 N   0  0  0  0  0  0  0  0  0  0  0  0
    7.8669    3.0844    0.0000 N   0  0  0  0  0  0  0  0  0  0  0  0
    7.6314    0.4491    0.0000 N   0  0  0  0  0  0  0  0  0  0  0  0
    6.4346   -1.9105    0.0000 N   0  0  0  0  0  0  0  0  0  0  0  0
    6.1991   -4.5457    0.0000 N   0  0  0  0  0  0  0  0  0  0  0  0
    6.6830   -6.4863    0.0000 N   0  0  0  0  0  0  0  0  0  0  0  0
   14.1142    7.2233    0.0000 C   0  0  2  0  0  0  0  0  0  0  0  0
   15.5131    7.2322    0.0000 C   0  0  0  0  0  0  0  0  0  0  0  0
   14.3730    8.1893    0.0000 C   0  0  1  0  0  0  0  0  0  0  0  0
   12.8931    6.3577    0.0000 C   0  0  1  0  0  0  0  0  0  0  0  0
   13.6364    9.1719    0.0000 C   0  0  0  0  0  0  0  0  0  0  0  0
   12.3397    7.8781    0.0000 C   0  0  0  0  0  0  0  0  0  0  0  0
   12.0641    6.9169    0.0000 C   0  0  1  0  0  0  0  0  0  0  0  0
   16.3791    7.7322    0.0000 C   0  0  0  0  0  0  0  0  0  0  0  0
   16.0131    6.3661    0.0000 C   0  0  0  0  0  0  0  0  0  0  0  0
   13.7222    5.7985    0.0000 C   0  0  0  0  0  0  0  0  0  0  0  0
   11.0640    4.5400    0.0000 C   0  0  1  0  0  0  0  0  0  0  0  0
   11.5023    3.6412    0.0000 C   0  0  0  0  0  0  0  0  0  0  0  0
   10.9431    2.8121    0.0000 C   0  0  0  0  0  0  0  0  0  0  0  0
    9.5072    3.7807    0.0000 C   0  0  0  0  0  0  0  0  0  0  0  0
    8.5096    3.8504    0.0000 C   0  0  2  0  0  0  0  0  0  0  0  0
   11.3815    1.9133    0.0000 C   0  0  0  0  0  0  0  0  0  0  0  0
    7.9797    4.6985    0.0000 C   0  0  0  0  0  0  0  0  0  0  0  0
    7.0094    4.4566    0.0000 C   0  0  0  0  0  0  0  0  0  0  0  0
    6.9397    3.4590    0.0000 C   0  0  0  0  0  0  0  0  0  0  0  0
   12.3791    1.8436    0.0000 C   0  0  0  0  0  0  0  0  0  0  0  0
   10.8223    1.0843    0.0000 C   0  0  0  0  0  0  0  0  0  0  0  0
    8.1088    2.1141    0.0000 C   0  0  0  0  0  0  0  0  0  0  0  0
   12.8175    0.9448    0.0000 C   0  0  0  0  0  0  0  0  0  0  0  0
   11.2607    0.1855    0.0000 C   0  0  0  0  0  0  0  0  0  0  0  0
    7.3894    1.4194    0.0000 C   0  0  2  0  0  0  0  0  0  0  0  0
   12.2583    0.1157    0.0000 C   0  0  0  0  0  0  0  0  0  0  0  0
    6.4282    1.6951    0.0000 C   0  0  0  0  0  0  0  0  0  0  0  0
   12.6966   -0.7831    0.0000 C   0  0  0  0  0  0  0  0  0  0  0  0
    5.7088    1.0004    0.0000 C   0  0  0  0  0  0  0  0  0  0  0  0
    6.1863    2.6654    0.0000 C   0  0  0  0  0  0  0  0  0  0  0  0
    6.9120   -0.2455    0.0000 C   0  0  0  0  0  0  0  0  0  0  0  0
   13.6942   -0.8528    0.0000 C   0  0  0  0  0  0  0  0  0  0  0  0
   12.1374   -1.6121    0.0000 C   0  0  0  0  0  0  0  0  0  0  0  0
    7.1539   -1.2158    0.0000 C   0  0  2  0  0  0  0  0  0  0  0  0
   14.1326   -1.7516    0.0000 C   0  0  0  0  0  0  0  0  0  0  0  0
   12.5758   -2.5109    0.0000 C   0  0  0  0  0  0  0  0  0  0  0  0
    8.1152   -1.4915    0.0000 C   0  0  0  0  0  0  0  0  0  0  0  0
   13.5734   -2.5806    0.0000 C   0  0  0  0  0  0  0  0  0  0  0  0
    8.3571   -2.4618    0.0000 C   0  0  0  0  0  0  0  0  0  0  0  0
    8.8345   -0.7968    0.0000 C   0  0  0  0  0  0  0  0  0  0  0  0
    6.6765   -2.8808    0.0000 C   0  0  0  0  0  0  0  0  0  0  0  0
    5.9572   -3.5754    0.0000 C   0  0  2  0  0  0  0  0  0  0  0  0
    4.9959   -3.2998    0.0000 C   0  0  0  0  0  0  0  0  0  0  0  0
    4.2766   -3.9945    0.0000 C   0  0  0  0  0  0  0  0  0  0  0  0
    5.4798   -5.2404    0.0000 C   0  0  0  0  0  0  0  0  0  0  0  0
    5.7217   -6.2107    0.0000 C   0  0  2  0  0  0  0  0  0  0  0  0
    3.3153   -3.7188    0.0000 C   0  0  0  0  0  0  0  0  0  0  0  0
    5.0024   -6.9053    0.0000 C   0  0  0  0  0  0  0  0  0  0  0  0
    5.2443   -7.8756    0.0000 C   0  0  0  0  0  0  0  0  0  0  0  0
   11.6232    5.3690    0.0000 B   0  0  0  0  0  0  0  0  0  0  0  0
   13.8942    6.4023    0.0000 H   0  0  0  0  0  0  0  0  0  0  0  0
   14.5930    9.0103    0.0000 H   0  0  0  0  0  0  0  0  0  0  0  0
   13.9542    9.7042    0.0000 H   0  0  0  0  0  0  0  0  0  0  0  0
   13.0232    9.2638    0.0000 H   0  0  0  0  0  0  0  0  0  0  0  0
   12.3347    8.4981    0.0000 H   0  0  0  0  0  0  0  0  0  0  0  0
   11.7254    7.9619    0.0000 H   0  0  0  0  0  0  0  0  0  0  0  0
   11.3594    7.3922    0.0000 H   0  0  0  0  0  0  0  0  0  0  0  0
   16.6891    7.1952    0.0000 H   0  0  0  0  0  0  0  0  0  0  0  0
   16.9161    8.0422    0.0000 H   0  0  0  0  0  0  0  0  0  0  0  0
   16.0691    8.2691    0.0000 H   0  0  0  0  0  0  0  0  0  0  0  0
   15.4762    6.0561    0.0000 H   0  0  0  0  0  0  0  0  0  0  0  0
   16.3231    5.8292    0.0000 H   0  0  0  0  0  0  0  0  0  0  0  0
   16.5500    6.6761    0.0000 H   0  0  0  0  0  0  0  0  0  0  0  0
   13.3755    5.2845    0.0000 H   0  0  0  0  0  0  0  0  0  0  0  0
   14.2362    5.4518    0.0000 H   0  0  0  0  0  0  0  0  0  0  0  0
   14.0689    6.3125    0.0000 H   0  0  0  0  0  0  0  0  0  0  0  0
   10.7922    5.0972    0.0000 H   0  0  0  0  0  0  0  0  0  0  0  0
   11.9483    3.2105    0.0000 H   0  0  0  0  0  0  0  0  0  0  0  0
   12.0039    4.0056    0.0000 H   0  0  0  0  0  0  0  0  0  0  0  0
    9.7946    5.1670    0.0000 H   0  0  0  0  0  0  0  0  0  0  0  0
   10.4972    3.2428    0.0000 H   0  0  0  0  0  0  0  0  0  0  0  0
   10.4416    2.4477    0.0000 H   0  0  0  0  0  0  0  0  0  0  0  0
    8.7519    3.2797    0.0000 H   0  0  0  0  0  0  0  0  0  0  0  0
    8.5370    4.9703    0.0000 H   0  0  0  0  0  0  0  0  0  0  0  0
    7.7677    5.2811    0.0000 H   0  0  0  0  0  0  0  0  0  0  0  0
    6.9231    5.0705    0.0000 H   0  0  0  0  0  0  0  0  0  0  0  0
    6.3898    4.4349    0.0000 H   0  0  0  0  0  0  0  0  0  0  0  0
    6.3291    3.5666    0.0000 H   0  0  0  0  0  0  0  0  0  0  0  0
    6.7688    2.8630    0.0000 H   0  0  0  0  0  0  0  0  0  0  0  0
   12.7258    2.3576    0.0000 H   0  0  0  0  0  0  0  0  0  0  0  0
   10.2038    1.1275    0.0000 H   0  0  0  0  0  0  0  0  0  0  0  0
   13.4359    0.9015    0.0000 H   0  0  0  0  0  0  0  0  0  0  0  0
   10.9140   -0.3285    0.0000 H   0  0  0  0  0  0  0  0  0  0  0  0
    6.9434    0.9887    0.0000 H   0  0  0  0  0  0  0  0  0  0  0  0
    6.8742    2.1258    0.0000 H   0  0  0  0  0  0  0  0  0  0  0  0
    8.2273    0.2782    0.0000 H   0  0  0  0  0  0  0  0  0  0  0  0
    5.2782    1.4464    0.0000 H   0  0  0  0  0  0  0  0  0  0  0  0
    5.2628    0.5697    0.0000 H   0  0  0  0  0  0  0  0  0  0  0  0
    6.1395    0.5544    0.0000 H   0  0  0  0  0  0  0  0  0  0  0  0
    6.7878    2.8154    0.0000 H   0  0  0  0  0  0  0  0  0  0  0  0
    6.0363    3.2669    0.0000 H   0  0  0  0  0  0  0  0  0  0  0  0
    5.5847    2.5154    0.0000 H   0  0  0  0  0  0  0  0  0  0  0  0
   14.0409   -0.3388    0.0000 H   0  0  0  0  0  0  0  0  0  0  0  0
   11.5189   -1.5688    0.0000 H   0  0  0  0  0  0  0  0  0  0  0  0
    7.3039   -1.8174    0.0000 H   0  0  0  0  0  0  0  0  0  0  0  0
   14.7511   -1.7949    0.0000 H   0  0  0  0  0  0  0  0  0  0  0  0
   12.2291   -3.0249    0.0000 H   0  0  0  0  0  0  0  0  0  0  0  0
    8.7112   -1.6624    0.0000 H   0  0  0  0  0  0  0  0  0  0  0  0
   13.8452   -3.1379    0.0000 H   0  0  0  0  0  0  0  0  0  0  0  0
    5.8386   -1.7396    0.0000 H   0  0  0  0  0  0  0  0  0  0  0  0
    7.7555   -2.6117    0.0000 H   0  0  0  0  0  0  0  0  0  0  0  0
    8.5071   -3.0633    0.0000 H   0  0  0  0  0  0  0  0  0  0  0  0
    8.9587   -2.3118    0.0000 H   0  0  0  0  0  0  0  0  0  0  0  0
    9.2652   -1.2428    0.0000 H   0  0  0  0  0  0  0  0  0  0  0  0
    9.2805   -0.3661    0.0000 H   0  0  0  0  0  0  0  0  0  0  0  0
    8.4039   -0.3508    0.0000 H   0  0  0  0  0  0  0  0  0  0  0  0
    5.5112   -4.0061    0.0000 H   0  0  0  0  0  0  0  0  0  0  0  0
    5.2677   -2.7425    0.0000 H   0  0  0  0  0  0  0  0  0  0  0  0
    4.4943   -2.9354    0.0000 H   0  0  0  0  0  0  0  0  0  0  0  0
    6.7951   -4.7166    0.0000 H   0  0  0  0  0  0  0  0  0  0  0  0
    4.0048   -4.5517    0.0000 H   0  0  0  0  0  0  0  0  0  0  0  0
    4.7782   -4.3589    0.0000 H   0  0  0  0  0  0  0  0  0  0  0  0
    5.8717   -6.8123    0.0000 H   0  0  0  0  0  0  0  0  0  0  0  0
    4.6556   -6.3913    0.0000 H   0  0  0  0  0  0  0  0  0  0  0  0
    4.4360   -7.1575    0.0000 H   0  0  0  0  0  0  0  0  0  0  0  0
    6.8329   -7.0879    0.0000 H   0  0  0  0  0  0  0  0  0  0  0  0
    7.1289   -6.0556    0.0000 H   0  0  0  0  0  0  0  0  0  0  0  0
    2.0000   -4.2426    0.0000 H   0  0  0  0  0  0  0  0  0  0  0  0
    4.6749   -9.1719    0.0000 H   0  0  0  0  0  0  0  0  0  0  0  0
  1 21  1  0  0  0  0
  1 67  1  0  0  0  0
  2 24  1  0  0  0  0
  2 67  1  0  0  0  0
  3 31  2  0  0  0  0
  4 39  2  0  0  0  0
  5 48  2  0  0  0  0
  6 58  2  0  0  0  0
  7 62  2  0  0  0  0
  8 64  1  0  0  0  0
  8135  1  0  0  0  0
  9 64  2  0  0  0  0
 10 66  1  0  0  0  0
 10136  1  0  0  0  0
 11 66  2  0  0  0  0
 28 12  1  6  0  0  0
 12 31  1  0  0  0  0
 12 87  1  0  0  0  0
 13 32  1  0  0  0  0
 13 36  1  0  0  0  0
 13 39  1  0  0  0  0
 42 14  1  1  0  0  0
 14 48  1  0  0  0  0
 14103  1  0  0  0  0
 51 15  1  6  0  0  0
 15 58  1  0  0  0  0
 15117  1  0  0  0  0
 59 16  1  1  0  0  0
 16 62  1  0  0  0  0
 16127  1  0  0  0  0
 63 17  1  1  0  0  0
 17133  1  0  0  0  0
 17134  1  0  0  0  0
 18 19  1  0  0  0  0
 18 21  1  0  0  0  0
 18 22  1  0  0  0  0
 18 68  1  1  0  0  0
 19 20  1  0  0  0  0
 19 25  1  0  0  0  0
 19 26  1  0  0  0  0
 20 22  1  0  0  0  0
 20 23  1  0  0  0  0
 20 69  1  1  0  0  0
 21 24  1  0  0  0  0
 21 27  1  1  0  0  0
 22 70  1  0  0  0  0
 22 71  1  0  0  0  0
 23 24  1  0  0  0  0
 23 72  1  0  0  0  0
 23 73  1  0  0  0  0
 24 74  1  1  0  0  0
 25 75  1  0  0  0  0
 25 76  1  0  0  0  0
 25 77  1  0  0  0  0
 26 78  1  0  0  0  0
 26 79  1  0  0  0  0
 26 80  1  0  0  0  0
 27 81  1  0  0  0  0
 27 82  1  0  0  0  0
 27 83  1  0  0  0  0
 28 29  1  0  0  0  0
 28 67  1  0  0  0  0
 28 84  1  0  0  0  0
 29 30  1  0  0  0  0
 29 85  1  0  0  0  0
 29 86  1  0  0  0  0
 30 33  1  0  0  0  0
 30 88  1  0  0  0  0
 30 89  1  0  0  0  0
 32 31  1  1  0  0  0
 32 34  1  0  0  0  0
 32 90  1  0  0  0  0
 33 37  2  0  0  0  0
 33 38  1  0  0  0  0
 34 35  1  0  0  0  0
 34 91  1  0  0  0  0
 34 92  1  0  0  0  0
 35 36  1  0  0  0  0
 35 93  1  0  0  0  0
 35 94  1  0  0  0  0
 36 95  1  0  0  0  0
 36 96  1  0  0  0  0
 37 40  1  0  0  0  0
 37 97  1  0  0  0  0
 38 41  2  0  0  0  0
 38 98  1  0  0  0  0
 39 42  1  0  0  0  0
 40 43  2  0  0  0  0
 40 99  1  0  0  0  0
 41 43  1  0  0  0  0
 41100  1  0  0  0  0
 42 44  1  0  0  0  0
 42101  1  0  0  0  0
 43 45  1  0  0  0  0
 44 46  1  0  0  0  0
 44 47  1  0  0  0  0
 44102  1  0  0  0  0
 45 49  2  0  0  0  0
 45 50  1  0  0  0  0
 46104  1  0  0  0  0
 46105  1  0  0  0  0
 46106  1  0  0  0  0
 47107  1  0  0  0  0
 47108  1  0  0  0  0
 47109  1  0  0  0  0
 48 51  1  0  0  0  0
 49 52  1  0  0  0  0
 49110  1  0  0  0  0
 50 53  2  0  0  0  0
 50111  1  0  0  0  0
 51 54  1  0  0  0  0
 51112  1  0  0  0  0
 52 55  2  0  0  0  0
 52113  1  0  0  0  0
 53 55  1  0  0  0  0
 53114  1  0  0  0  0
 54 56  1  0  0  0  0
 54 57  1  0  0  0  0
 54115  1  0  0  0  0
 55116  1  0  0  0  0
 56118  1  0  0  0  0
 56119  1  0  0  0  0
 56120  1  0  0  0  0
 57121  1  0  0  0  0
 57122  1  0  0  0  0
 57123  1  0  0  0  0
 58 59  1  0  0  0  0
 59 60  1  0  0  0  0
 59124  1  0  0  0  0
 60 61  1  0  0  0  0
 60125  1  0  0  0  0
 60126  1  0  0  0  0
 61 64  1  0  0  0  0
 61128  1  0  0  0  0
 61129  1  0  0  0  0
 62 63  1  0  0  0  0
 63 65  1  0  0  0  0
 63130  1  0  0  0  0
 65 66  1  0  0  0  0
 65131  1  0  0  0  0
 65132  1  0  0  0  0
M  END
> <PUBCHEM_COMPOUND_CID>
500548
> <PUBCHEM_COMPOUND_CANONICALIZED>
1
> <PUBCHEM_CACTVS_COMPLEXITY>
1800
> <PUBCHEM_CACTVS_HBOND_ACCEPTOR>
12
> <PUBCHEM_CACTVS_HBOND_DONOR>
7
> <PUBCHEM_CACTVS_ROTATABLE_BOND>
21
> <PUBCHEM_CACTVS_SUBSKEYS>
AAADcfJ/vAAAAAAAAAAAAAAAAABgAWJAAAAwYMGAAAAAAEgBQAAoHgAQCAAAD3zhmAYyCIPAAgCIAiHSGAACAAAgAAAIiIGIAIgJYDqAkTCUYAAmlgCIiAe/1/IPwAAAAAAAAADAAAYAADCAAAAAAAAAAA==
> <PUBCHEM_IUPAC_OPENEYE_NAME>
(4S)-4-[[(2S)-2-amino-3-carboxy-propanoyl]amino]-5-[[(1S)-2-methyl-1-[[(1S)-2-methyl-1-[(2S)-2-[[(1R)-3-(4-phenylphenyl)-1-[(1R,2S,6R,8S)-2,9,9-trimethyl-3,5-dioxa-4-boratricyclo[6.1.1.02,6]decan-4-yl]propyl]carbamoyl]pyrrolidine-1-carbonyl]propyl]carbamoyl]propyl]amino]-5-oxo-pentanoic acid
> <PUBCHEM_IUPAC_CAS_NAME>
(4S)-4-[[(2S)-2-amino-3-carboxy-1-oxopropyl]amino]-5-[[(2S)-3-methyl-1-[[(2S)-3-methyl-1-oxo-1-[(2S)-2-[oxo-[[(1R)-3-(4-phenylphenyl)-1-[(1R,2S,6R,8S)-2,9,9-trimethyl-3,5-dioxa-4-boratricyclo[6.1.1.02,6]decan-4-yl]propyl]amino]methyl]-1-pyrrolidinyl]butan-2-yl]amino]-1-oxobutan-2-yl]amino]-5-oxopentanoic acid
> <PUBCHEM_IUPAC_NAME_MARKUP>
(4<I>S</I>)-4-[[(2<I>S</I>)-2-amino-3-carboxypropanoyl]amino]-5-[[(2<I>S</I>)-3-methyl-1-[[(2<I>S</I>)-3-methyl-1-oxo-1-[(2<I>S</I>)-2-[[(1<I>R</I>)-3-(4-phenylphenyl)-1-[(1<I>R</I>,2<I>S</I>,6<I>R</I>,8<I>S</I>)-2,9,9-trimethyl-3,5-dioxa-4-boratricyclo[6.1.1.0<SUP>2,6</SUP>]decan-4-yl]propyl]carbamoyl]pyrrolidin-1-yl]butan-2-yl]amino]-1-oxobutan-2-yl]amino]-5-oxopentanoic acid
> <PUBCHEM_IUPAC_NAME>
(4S)-4-[[(2S)-2-amino-3-carboxypropanoyl]amino]-5-[[(2S)-3-methyl-1-[[(2S)-3-methyl-1-oxo-1-[(2S)-2-[[(1R)-3-(4-phenylphenyl)-1-[(1R,2S,6R,8S)-2,9,9-trimethyl-3,5-dioxa-4-boratricyclo[6.1.1.02,6]decan-4-yl]propyl]carbamoyl]pyrrolidin-1-yl]butan-2-yl]amino]-1-oxobutan-2-yl]amino]-5-oxopentanoic acid
> <PUBCHEM_IUPAC_SYSTEMATIC_NAME>
(4S)-4-[[(2S)-2-azanyl-4-oxidanyl-4-oxidanylidene-butanoyl]amino]-5-[[(2S)-3-methyl-1-[[(2S)-3-methyl-1-oxidanylidene-1-[(2S)-2-[[(1R)-3-(4-phenylphenyl)-1-[(1R,2S,6R,8S)-2,9,9-trimethyl-3,5-dioxa-4-boratricyclo[6.1.1.02,6]decan-4-yl]propyl]carbamoyl]pyrrolidin-1-yl]butan-2-yl]amino]-1-oxidanylidene-butan-2-yl]amino]-5-oxidanylidene-pentanoic acid
> <PUBCHEM_IUPAC_TRADITIONAL_NAME>
(4S)-4-[[(2S)-2-amino-3-carboxy-propanoyl]amino]-5-keto-5-[[(1S)-2-methyl-1-[[(1S)-2-methyl-1-[(2S)-2-[[(1R)-3-(4-phenylphenyl)-1-[(1R,2S,6R,8S)-2,9,9-trimethyl-3,5-dioxa-4-boratricyclo[6.1.1.02,6]decan-4-yl]propyl]carbamoyl]pyrrolidine-1-carbonyl]propyl]carbamoyl]propyl]amino]valeric acid
> <PUBCHEM_IUPAC_INCHI>
InChI=1S/C49H69BN6O11/c1-27(2)41(54-44(62)34(20-22-39(57)58)52-43(61)33(51)26-40(59)60)46(64)55-42(28(3)4)47(65)56-23-11-14-35(56)45(63)53-38(21-17-29-15-18-31(19-16-29)30-12-9-8-10-13-30)50-66-37-25-32-24-36(48(32,5)6)49(37,7)67-50/h8-10,12-13,15-16,18-19,27-28,32-38,41-42H,11,14,17,20-26,51H2,1-7H3,(H,52,61)(H,53,63)(H,54,62)(H,55,64)(H,57,58)(H,59,60)/t32-,33-,34-,35-,36+,37+,38-,41-,42-,49-/m0/s1
> <PUBCHEM_IUPAC_INCHIKEY>
DAVZLVYISUEAQE-HOGDODMKSA-N
> <PUBCHEM_EXACT_MASS>
928.5117372
> <PUBCHEM_MOLECULAR_FORMULA>
C49H69BN6O11
> <PUBCHEM_MOLECULAR_WEIGHT>
928.9
> <PUBCHEM_OPENEYE_CAN_SMILES>
B1(OC2CC3CC(C3(C)C)C2(O1)C)C(CCC4=CC=C(C=C4)C5=CC=CC=C5)NC(=O)C6CCCN6C(=O)C(C(C)C)NC(=O)C(C(C)C)NC(=O)C(CCC(=O)O)NC(=O)C(CC(=O)O)N
> <PUBCHEM_OPENEYE_ISO_SMILES>
B1(O[C@@H]2C[C@@H]3C[C@@H]([C@@]2(O1)C)C3(C)C)[C@H](CCC4=CC=C(C=C4)C5=CC=CC=C5)NC(=O)[C@@H]6CCCN6C(=O)[C@H](C(C)C)NC(=O)[C@H](C(C)C)NC(=O)[C@H](CCC(=O)O)NC(=O)[C@H](CC(=O)O)N
> <PUBCHEM_CACTVS_TPSA>
256
> <PUBCHEM_MONOISOTOPIC_WEIGHT>
928.5117372
> <PUBCHEM_TOTAL_CHARGE>
0
> <PUBCHEM_HEAVY_ATOM_COUNT>
67
> <PUBCHEM_ATOM_DEF_STEREO_COUNT>
10
> <PUBCHEM_ATOM_UDEF_STEREO_COUNT>
0
> <PUBCHEM_BOND_DEF_STEREO_COUNT>
0
> <PUBCHEM_BOND_UDEF_STEREO_COUNT>
0
> <PUBCHEM_ISOTOPIC_ATOM_COUNT>
0
> <PUBCHEM_COMPONENT_COUNT>
1
> <PUBCHEM_CACTVS_TAUTO_COUNT>
-1
> <PUBCHEM_COORDINATE_TYPE>
1
5
255
> <PUBCHEM_BONDANNOTATIONS>
28  12  6
42  14  5
51  15  6
59  16  5
63  17  5
18  68  5
20  69  5
21  27  5
24  74  5
32  31  5
33  37  8
33  38  8
37  40  8
38  41  8
40  43  8
41  43  8
45  49  8
45  50  8
49  52  8
50  53  8
52  55  8
53  55  8
$$$$
