500579
  -OEChem-10302200282D
117118  0     1  0  0  0  0  0999 V2000
    6.8690   -3.2540    0.0000 O   0  0  0  0  0  0  0  0  0  0  0  0
    7.5500    1.0074    0.0000 O   0  0  0  0  0  0  0  0  0  0  0  0
    6.1880    1.0074    0.0000 O   0  0  0  0  0  0  0  0  0  0  0  0
   10.9404   -0.2197    0.0000 O   0  0  0  0  0  0  0  0  0  0  0  0
    2.7976   -0.2197    0.0000 O   0  0  0  0  0  0  0  0  0  0  0  0
   12.2970    3.1209    0.0000 O   0  0  0  0  0  0  0  0  0  0  0  0
   15.6873    1.8937    0.0000 O   0  0  0  0  0  0  0  0  0  0  0  0
   16.5007    0.0666    0.0000 O   0  0  0  0  0  0  0  0  0  0  0  0
   14.9184   -0.6378    0.0000 O   0  0  0  0  0  0  0  0  0  0  0  0
   15.6426    6.2524    0.0000 O   0  0  0  0  0  0  0  0  0  0  0  0
   17.0439    5.2343    0.0000 O   0  0  0  0  0  0  0  0  0  0  0  0
   16.6818    1.7892    0.0000 O   0  0  0  0  0  0  0  0  0  0  0  0
    7.3690   -0.7152    0.0000 N   0  0  0  0  0  0  0  0  0  0  0  0
    9.5391    0.7983    0.0000 N   0  0  0  0  0  0  0  0  0  0  0  0
    4.7867   -0.0107    0.0000 N   0  0  0  0  0  0  0  0  0  0  0  0
   12.1159    1.3983    0.0000 N   0  0  0  0  0  0  0  0  0  0  0  0
    2.6166    1.5028    0.0000 N   0  0  0  0  0  0  0  0  0  0  0  0
   14.2860    2.9118    0.0000 N   0  0  0  0  0  0  0  0  0  0  0  0
   16.8628    3.5118    0.0000 N   0  0  0  0  0  0  0  0  0  0  0  0
    6.3690   -0.7152    0.0000 C   0  0  1  0  0  0  0  0  0  0  0  0
    6.8690   -2.2540    0.0000 C   0  0  2  0  0  0  0  0  0  0  0  0
    6.0600   -1.6662    0.0000 C   0  0  0  0  0  0  0  0  0  0  0  0
    7.6780   -1.6662    0.0000 C   0  0  0  0  0  0  0  0  0  0  0  0
    7.9568    0.0939    0.0000 C   0  0  0  0  0  0  0  0  0  0  0  0
    8.9513   -0.0107    0.0000 C   0  0  2  0  0  0  0  0  0  0  0  0
    5.7812    0.0939    0.0000 C   0  0  0  0  0  0  0  0  0  0  0  0
    9.3580   -0.9242    0.0000 C   0  0  0  0  0  0  0  0  0  0  0  0
    6.0030   -3.7540    0.0000 C   0  0  0  0  0  0  0  0  0  0  0  0
   11.1214    1.5028    0.0000 C   0  0  2  0  0  0  0  0  0  0  0  0
   10.3526   -1.0287    0.0000 C   0  0  0  0  0  0  0  0  0  0  0  0
    8.7703   -1.7332    0.0000 C   0  0  0  0  0  0  0  0  0  0  0  0
    4.1989    0.7983    0.0000 C   0  0  3  0  0  0  0  0  0  0  0  0
   10.5336    0.6938    0.0000 C   0  0  0  0  0  0  0  0  0  0  0  0
   10.7147    2.4164    0.0000 C   0  0  2  0  0  0  0  0  0  0  0  0
    4.6056    1.7119    0.0000 C   0  0  0  0  0  0  0  0  0  0  0  0
   11.3025    3.2254    0.0000 C   0  0  0  0  0  0  0  0  0  0  0  0
    6.0030   -4.7540    0.0000 C   0  0  0  0  0  0  0  0  0  0  0  0
    9.7201    2.5209    0.0000 C   0  0  0  0  0  0  0  0  0  0  0  0
    3.2044    0.6938    0.0000 C   0  0  0  0  0  0  0  0  0  0  0  0
    4.0179    2.5209    0.0000 C   0  0  0  0  0  0  0  0  0  0  0  0
   12.7037    2.2073    0.0000 C   0  0  0  0  0  0  0  0  0  0  0  0
   10.8957    4.1389    0.0000 C   0  0  0  0  0  0  0  0  0  0  0  0
   13.6982    2.1028    0.0000 C   0  0  1  0  0  0  0  0  0  0  0  0
    6.8690   -5.2540    0.0000 C   0  0  0  0  0  0  0  0  0  0  0  0
    5.1370   -5.2540    0.0000 C   0  0  0  0  0  0  0  0  0  0  0  0
    4.4246    3.4345    0.0000 C   0  0  0  0  0  0  0  0  0  0  0  0
   14.1050    1.1892    0.0000 C   0  0  0  0  0  0  0  0  0  0  0  0
    6.8690   -6.2540    0.0000 C   0  0  0  0  0  0  0  0  0  0  0  0
    5.1370   -6.2540    0.0000 C   0  0  0  0  0  0  0  0  0  0  0  0
   15.0995    1.0847    0.0000 C   0  0  0  0  0  0  0  0  0  0  0  0
    6.0030   -6.7540    0.0000 C   0  0  0  0  0  0  0  0  0  0  0  0
   15.2805    2.8073    0.0000 C   0  0  0  0  0  0  0  0  0  0  0  0
   15.8683    3.6163    0.0000 C   0  0  2  0  0  0  0  0  0  0  0  0
   15.5062    0.1712    0.0000 C   0  0  0  0  0  0  0  0  0  0  0  0
   15.4616    4.5298    0.0000 C   0  0  0  0  0  0  0  0  0  0  0  0
   16.0494    5.3389    0.0000 C   0  0  0  0  0  0  0  0  0  0  0  0
   17.2696    2.5982    0.0000 C   0  0  0  0  0  0  0  0  0  0  0  0
   18.2641    2.4937    0.0000 C   0  0  0  0  0  0  0  0  0  0  0  0
    6.6505   -0.1627    0.0000 H   0  0  0  0  0  0  0  0  0  0  0  0
    7.4214   -2.5355    0.0000 H   0  0  0  0  0  0  0  0  0  0  0  0
    5.4936   -1.4140    0.0000 H   0  0  0  0  0  0  0  0  0  0  0  0
    5.7500   -2.2032    0.0000 H   0  0  0  0  0  0  0  0  0  0  0  0
    7.9880   -2.2032    0.0000 H   0  0  0  0  0  0  0  0  0  0  0  0
    8.2444   -1.4140    0.0000 H   0  0  0  0  0  0  0  0  0  0  0  0
    8.6991    0.5557    0.0000 H   0  0  0  0  0  0  0  0  0  0  0  0
    8.7414   -0.8594    0.0000 H   0  0  0  0  0  0  0  0  0  0  0  0
    9.2869    1.3647    0.0000 H   0  0  0  0  0  0  0  0  0  0  0  0
    4.5345   -0.5771    0.0000 H   0  0  0  0  0  0  0  0  0  0  0  0
   11.3736    0.9364    0.0000 H   0  0  0  0  0  0  0  0  0  0  0  0
    5.7909   -3.1714    0.0000 H   0  0  0  0  0  0  0  0  0  0  0  0
    5.3924   -3.8617    0.0000 H   0  0  0  0  0  0  0  0  0  0  0  0
   10.2878   -1.6454    0.0000 H   0  0  0  0  0  0  0  0  0  0  0  0
   10.9692   -1.0936    0.0000 H   0  0  0  0  0  0  0  0  0  0  0  0
   10.4174   -0.4121    0.0000 H   0  0  0  0  0  0  0  0  0  0  0  0
    8.2687   -1.3688    0.0000 H   0  0  0  0  0  0  0  0  0  0  0  0
    8.4058   -2.2348    0.0000 H   0  0  0  0  0  0  0  0  0  0  0  0
    9.2718   -2.0977    0.0000 H   0  0  0  0  0  0  0  0  0  0  0  0
    3.9467    0.2319    0.0000 H   0  0  0  0  0  0  0  0  0  0  0  0
   10.4625    2.9828    0.0000 H   0  0  0  0  0  0  0  0  0  0  0  0
    5.1196    1.3652    0.0000 H   0  0  0  0  0  0  0  0  0  0  0  0
    5.0363    2.1579    0.0000 H   0  0  0  0  0  0  0  0  0  0  0  0
   11.7331    2.7794    0.0000 H   0  0  0  0  0  0  0  0  0  0  0  0
   11.8165    3.5721    0.0000 H   0  0  0  0  0  0  0  0  0  0  0  0
   12.3681    0.8319    0.0000 H   0  0  0  0  0  0  0  0  0  0  0  0
    9.7850    3.1375    0.0000 H   0  0  0  0  0  0  0  0  0  0  0  0
    9.1035    2.5857    0.0000 H   0  0  0  0  0  0  0  0  0  0  0  0
    9.6553    1.9043    0.0000 H   0  0  0  0  0  0  0  0  0  0  0  0
    3.5039    2.8676    0.0000 H   0  0  0  0  0  0  0  0  0  0  0  0
    3.5872    2.0749    0.0000 H   0  0  0  0  0  0  0  0  0  0  0  0
   11.4621    4.3911    0.0000 H   0  0  0  0  0  0  0  0  0  0  0  0
   10.6435    4.7053    0.0000 H   0  0  0  0  0  0  0  0  0  0  0  0
   10.3293    3.8868    0.0000 H   0  0  0  0  0  0  0  0  0  0  0  0
   13.4461    2.6692    0.0000 H   0  0  0  0  0  0  0  0  0  0  0  0
    7.4059   -4.9440    0.0000 H   0  0  0  0  0  0  0  0  0  0  0  0
    4.6000   -4.9440    0.0000 H   0  0  0  0  0  0  0  0  0  0  0  0
    4.9910    3.1823    0.0000 H   0  0  0  0  0  0  0  0  0  0  0  0
    4.6768    4.0008    0.0000 H   0  0  0  0  0  0  0  0  0  0  0  0
    3.8582    3.6866    0.0000 H   0  0  0  0  0  0  0  0  0  0  0  0
   13.5034    1.0393    0.0000 H   0  0  0  0  0  0  0  0  0  0  0  0
   14.1482    0.5708    0.0000 H   0  0  0  0  0  0  0  0  0  0  0  0
    2.0000    1.4380    0.0000 H   0  0  0  0  0  0  0  0  0  0  0  0
    2.8688    2.0692    0.0000 H   0  0  0  0  0  0  0  0  0  0  0  0
   14.0338    3.4782    0.0000 H   0  0  0  0  0  0  0  0  0  0  0  0
    7.4059   -6.5640    0.0000 H   0  0  0  0  0  0  0  0  0  0  0  0
    4.6000   -6.5640    0.0000 H   0  0  0  0  0  0  0  0  0  0  0  0
   15.7011    1.2347    0.0000 H   0  0  0  0  0  0  0  0  0  0  0  0
   15.0562    1.7032    0.0000 H   0  0  0  0  0  0  0  0  0  0  0  0
    6.0030   -7.3740    0.0000 H   0  0  0  0  0  0  0  0  0  0  0  0
   16.1205    3.0499    0.0000 H   0  0  0  0  0  0  0  0  0  0  0  0
   15.0309    4.9758    0.0000 H   0  0  0  0  0  0  0  0  0  0  0  0
   14.9476    4.1832    0.0000 H   0  0  0  0  0  0  0  0  0  0  0  0
   17.2273    4.0134    0.0000 H   0  0  0  0  0  0  0  0  0  0  0  0
   16.7529   -0.4998    0.0000 H   0  0  0  0  0  0  0  0  0  0  0  0
   18.1993    1.8771    0.0000 H   0  0  0  0  0  0  0  0  0  0  0  0
   18.8807    2.4289    0.0000 H   0  0  0  0  0  0  0  0  0  0  0  0
   18.3289    3.1103    0.0000 H   0  0  0  0  0  0  0  0  0  0  0  0
   16.0071    6.7540    0.0000 H   0  0  0  0  0  0  0  0  0  0  0  0
 21  1  1  6  0  0  0
  1 28  1  0  0  0  0
  2 24  2  0  0  0  0
  3 26  2  0  0  0  0
  4 33  2  0  0  0  0
  5 39  2  0  0  0  0
  6 41  2  0  0  0  0
  7 52  2  0  0  0  0
  8 54  1  0  0  0  0
  8113  1  0  0  0  0
  9 54  2  0  0  0  0
 10 56  1  0  0  0  0
 10117  1  0  0  0  0
 11 56  2  0  0  0  0
 12 57  2  0  0  0  0
 13 20  1  0  0  0  0
 13 23  1  0  0  0  0
 13 24  1  0  0  0  0
 25 14  1  1  0  0  0
 14 33  1  0  0  0  0
 14 67  1  0  0  0  0
 15 26  1  0  0  0  0
 15 32  1  0  0  0  0
 15 68  1  0  0  0  0
 29 16  1  6  0  0  0
 16 41  1  0  0  0  0
 16 84  1  0  0  0  0
 17 39  1  0  0  0  0
 17101  1  0  0  0  0
 17102  1  0  0  0  0
 43 18  1  6  0  0  0
 18 52  1  0  0  0  0
 18103  1  0  0  0  0
 53 19  1  6  0  0  0
 19 57  1  0  0  0  0
 19112  1  0  0  0  0
 20 22  1  0  0  0  0
 20 26  1  1  0  0  0
 20 59  1  0  0  0  0
 21 22  1  0  0  0  0
 21 23  1  0  0  0  0
 21 60  1  0  0  0  0
 22 61  1  0  0  0  0
 22 62  1  0  0  0  0
 23 63  1  0  0  0  0
 23 64  1  0  0  0  0
 24 25  1  0  0  0  0
 25 27  1  0  0  0  0
 25 65  1  0  0  0  0
 27 30  1  0  0  0  0
 27 31  1  0  0  0  0
 27 66  1  0  0  0  0
 28 37  1  0  0  0  0
 28 70  1  0  0  0  0
 28 71  1  0  0  0  0
 29 33  1  0  0  0  0
 29 34  1  0  0  0  0
 29 69  1  0  0  0  0
 30 72  1  0  0  0  0
 30 73  1  0  0  0  0
 30 74  1  0  0  0  0
 31 75  1  0  0  0  0
 31 76  1  0  0  0  0
 31 77  1  0  0  0  0
 32 35  1  0  0  0  0
 32 39  1  0  0  0  0
 32 78  1  0  0  0  0
 34 36  1  0  0  0  0
 34 38  1  1  0  0  0
 34 79  1  0  0  0  0
 35 40  1  0  0  0  0
 35 80  1  0  0  0  0
 35 81  1  0  0  0  0
 36 42  1  0  0  0  0
 36 82  1  0  0  0  0
 36 83  1  0  0  0  0
 37 44  2  0  0  0  0
 37 45  1  0  0  0  0
 38 85  1  0  0  0  0
 38 86  1  0  0  0  0
 38 87  1  0  0  0  0
 40 46  1  0  0  0  0
 40 88  1  0  0  0  0
 40 89  1  0  0  0  0
 41 43  1  0  0  0  0
 42 90  1  0  0  0  0
 42 91  1  0  0  0  0
 42 92  1  0  0  0  0
 43 47  1  0  0  0  0
 43 93  1  0  0  0  0
 44 48  1  0  0  0  0
 44 94  1  0  0  0  0
 45 49  2  0  0  0  0
 45 95  1  0  0  0  0
 46 96  1  0  0  0  0
 46 97  1  0  0  0  0
 46 98  1  0  0  0  0
 47 50  1  0  0  0  0
 47 99  1  0  0  0  0
 47100  1  0  0  0  0
 48 51  2  0  0  0  0
 48104  1  0  0  0  0
 49 51  1  0  0  0  0
 49105  1  0  0  0  0
 50 54  1  0  0  0  0
 50106  1  0  0  0  0
 50107  1  0  0  0  0
 51108  1  0  0  0  0
 52 53  1  0  0  0  0
 53 55  1  0  0  0  0
 53109  1  0  0  0  0
 55 56  1  0  0  0  0
 55110  1  0  0  0  0
 55111  1  0  0  0  0
 57 58  1  0  0  0  0
 58114  1  0  0  0  0
 58115  1  0  0  0  0
 58116  1  0  0  0  0
M  END
> <PUBCHEM_COMPOUND_CID>
500579
> <PUBCHEM_COMPOUND_CANONICALIZED>
1
> <PUBCHEM_CACTVS_COMPLEXITY>
1470
> <PUBCHEM_CACTVS_HBOND_ACCEPTOR>
12
> <PUBCHEM_CACTVS_HBOND_DONOR>
8
> <PUBCHEM_CACTVS_ROTATABLE_BOND>
24
> <PUBCHEM_CACTVS_SUBSKEYS>
AAADcfB/vAAAAAAAAAAAAAAAAAAAAWAAAAAwAAAAAAAAAAABAAAAHgAQCAAADTzhmAYyCIPABgCIAiHSGAACAAAgAAAIiIGICIgKZjqAsTiXcAAm1gGYqAe/1yIOAAAAAAAAAAAAAAAAAAAAAAAAAAAAAA==
> <PUBCHEM_IUPAC_OPENEYE_NAME>
(4R)-4-[[(2S)-2-acetamido-3-carboxy-propanoyl]amino]-5-[[(1S,2S)-1-[[(1S)-1-[(2S,4R)-4-benzyloxy-2-(1-carbamoylbutylcarbamoyl)pyrrolidine-1-carbonyl]-2-methyl-propyl]carbamoyl]-2-methyl-butyl]amino]-5-oxo-pentanoic acid
> <PUBCHEM_IUPAC_CAS_NAME>
(4R)-4-[[(2S)-2-acetamido-3-carboxy-1-oxopropyl]amino]-5-[[(2S,3S)-1-[[(2S)-1-[(2S,4R)-2-[[(1-amino-1-oxopentan-2-yl)amino]-oxomethyl]-4-phenylmethoxy-1-pyrrolidinyl]-3-methyl-1-oxobutan-2-yl]amino]-3-methyl-1-oxopentan-2-yl]amino]-5-oxopentanoic acid
> <PUBCHEM_IUPAC_NAME_MARKUP>
(4<I>R</I>)-4-[[(2<I>S</I>)-2-acetamido-3-carboxypropanoyl]amino]-5-[[(2<I>S</I>,3<I>S</I>)-1-[[(2<I>S</I>)-1-[(2<I>S</I>,4<I>R</I>)-2-[(1-amino-1-oxopentan-2-yl)carbamoyl]-4-phenylmethoxypyrrolidin-1-yl]-3-methyl-1-oxobutan-2-yl]amino]-3-methyl-1-oxopentan-2-yl]amino]-5-oxopentanoic acid
> <PUBCHEM_IUPAC_NAME>
(4R)-4-[[(2S)-2-acetamido-3-carboxypropanoyl]amino]-5-[[(2S,3S)-1-[[(2S)-1-[(2S,4R)-2-[(1-amino-1-oxopentan-2-yl)carbamoyl]-4-phenylmethoxypyrrolidin-1-yl]-3-methyl-1-oxobutan-2-yl]amino]-3-methyl-1-oxopentan-2-yl]amino]-5-oxopentanoic acid
> <PUBCHEM_IUPAC_SYSTEMATIC_NAME>
(4R)-4-[[(2S)-2-acetamido-4-oxidanyl-4-oxidanylidene-butanoyl]amino]-5-[[(2S,3S)-1-[[(2S)-1-[(2S,4R)-2-[(1-azanyl-1-oxidanylidene-pentan-2-yl)carbamoyl]-4-phenylmethoxy-pyrrolidin-1-yl]-3-methyl-1-oxidanylidene-butan-2-yl]amino]-3-methyl-1-oxidanylidene-pentan-2-yl]amino]-5-oxidanylidene-pentanoic acid
> <PUBCHEM_IUPAC_TRADITIONAL_NAME>
(4R)-4-[[(2S)-2-acetamido-3-carboxy-propanoyl]amino]-5-[[(1S,2S)-1-[[(1S)-1-[(2S,4R)-4-benzoxy-2-(1-carbamoylbutylcarbamoyl)pyrrolidine-1-carbonyl]-2-methyl-propyl]carbamoyl]-2-methyl-butyl]amino]-5-keto-valeric acid
> <PUBCHEM_IUPAC_INCHI>
InChI=1S/C39H59N7O12/c1-7-12-26(34(40)52)42-37(55)29-17-25(58-20-24-13-10-9-11-14-24)19-46(29)39(57)32(21(3)4)44-38(56)33(22(5)8-2)45-35(53)27(15-16-30(48)49)43-36(54)28(18-31(50)51)41-23(6)47/h9-11,13-14,21-22,25-29,32-33H,7-8,12,15-20H2,1-6H3,(H2,40,52)(H,41,47)(H,42,55)(H,43,54)(H,44,56)(H,45,53)(H,48,49)(H,50,51)/t22-,25+,26?,27+,28-,29-,32-,33-/m0/s1
> <PUBCHEM_IUPAC_INCHIKEY>
NGJQVUOJRMLXSR-ACTWHFCGSA-N
> <PUBCHEM_XLOGP3_AA>
0.8
> <PUBCHEM_EXACT_MASS>
817.42217034
> <PUBCHEM_MOLECULAR_FORMULA>
C39H59N7O12
> <PUBCHEM_MOLECULAR_WEIGHT>
817.9
> <PUBCHEM_OPENEYE_CAN_SMILES>
CCCC(C(=O)N)NC(=O)C1CC(CN1C(=O)C(C(C)C)NC(=O)C(C(C)CC)NC(=O)C(CCC(=O)O)NC(=O)C(CC(=O)O)NC(=O)C)OCC2=CC=CC=C2
> <PUBCHEM_OPENEYE_ISO_SMILES>
CCCC(C(=O)N)NC(=O)[C@@H]1C[C@H](CN1C(=O)[C@H](C(C)C)NC(=O)[C@H]([C@@H](C)CC)NC(=O)[C@@H](CCC(=O)O)NC(=O)[C@H](CC(=O)O)NC(=O)C)OCC2=CC=CC=C2
> <PUBCHEM_CACTVS_TPSA>
293
> <PUBCHEM_MONOISOTOPIC_WEIGHT>
817.42217034
> <PUBCHEM_TOTAL_CHARGE>
0
> <PUBCHEM_HEAVY_ATOM_COUNT>
58
> <PUBCHEM_ATOM_DEF_STEREO_COUNT>
7
> <PUBCHEM_ATOM_UDEF_STEREO_COUNT>
1
> <PUBCHEM_BOND_DEF_STEREO_COUNT>
0
> <PUBCHEM_BOND_UDEF_STEREO_COUNT>
0
> <PUBCHEM_ISOTOPIC_ATOM_COUNT>
0
> <PUBCHEM_COMPONENT_COUNT>
1
> <PUBCHEM_CACTVS_TAUTO_COUNT>
-1
> <PUBCHEM_COORDINATE_TYPE>
1
5
255
> <PUBCHEM_BONDANNOTATIONS>
21  1  6
25  14  5
29  16  6
43  18  6
53  19  6
20  26  5
32  35  3
34  38  5
37  44  8
37  45  8
44  48  8
45  49  8
48  51  8
49  51  8
$$$$
