500582
  -OEChem-10302200282D
133135  0     1  0  0  0  0  0999 V2000
    4.3763    3.1332    0.0000 O   0  0  0  0  0  0  0  0  0  0  0  0
    7.4321    0.0860    0.0000 O   0  0  0  0  0  0  0  0  0  0  0  0
    6.3301   -0.7146    0.0000 O   0  0  0  0  0  0  0  0  0  0  0  0
    9.4536    3.0715    0.0000 O   0  0  0  0  0  0  0  0  0  0  0  0
    2.8660   -1.7146    0.0000 O   0  0  0  0  0  0  0  0  0  0  0  0
   12.5147    1.1663    0.0000 O   0  0  0  0  0  0  0  0  0  0  0  0
   14.5362    4.1519    0.0000 O   0  0  0  0  0  0  0  0  0  0  0  0
   14.1204    6.1082    0.0000 O   0  0  0  0  0  0  0  0  0  0  0  0
   12.4262    5.7481    0.0000 O   0  0  0  0  0  0  0  0  0  0  0  0
   17.0621    0.5994    0.0000 O   0  0  0  0  0  0  0  0  0  0  0  0
   17.5973    2.2467    0.0000 O   0  0  0  0  0  0  0  0  0  0  0  0
   15.2794    4.8210    0.0000 O   0  0  0  0  0  0  0  0  0  0  0  0
    6.2731    1.3732    0.0000 N   0  0  0  0  0  0  0  0  0  0  0  0
    8.9184    1.4243    0.0000 N   0  0  0  0  0  0  0  0  0  0  0  0
    4.5981   -0.7146    0.0000 N   0  0  0  0  0  0  0  0  0  0  0  0
   11.3557    2.4535    0.0000 N   0  0  0  0  0  0  0  0  0  0  0  0
    3.7320   -3.2146    0.0000 N   0  0  0  0  0  0  0  0  0  0  0  0
   14.0010    2.5046    0.0000 N   0  0  0  0  0  0  0  0  0  0  0  0
   16.4383    3.5338    0.0000 N   0  0  0  0  0  0  0  0  0  0  0  0
    5.4641    0.7854    0.0000 C   0  0  1  0  0  0  0  0  0  0  0  0
    4.9641    2.3242    0.0000 C   0  0  2  0  0  0  0  0  0  0  0  0
    4.6551    1.3732    0.0000 C   0  0  0  0  0  0  0  0  0  0  0  0
    5.9641    2.3242    0.0000 C   0  0  0  0  0  0  0  0  0  0  0  0
    7.2242    1.0641    0.0000 C   0  0  0  0  0  0  0  0  0  0  0  0
    7.9673    1.7333    0.0000 C   0  0  2  0  0  0  0  0  0  0  0  0
    5.4641   -0.2146    0.0000 C   0  0  0  0  0  0  0  0  0  0  0  0
    7.7594    2.7114    0.0000 C   0  0  0  0  0  0  0  0  0  0  0  0
    4.5981   -1.7146    0.0000 C   0  0  3  0  0  0  0  0  0  0  0  0
    4.7830    4.0468    0.0000 C   0  0  0  0  0  0  0  0  0  0  0  0
    8.5026    3.3806    0.0000 C   0  0  0  0  0  0  0  0  0  0  0  0
    6.8084    3.0204    0.0000 C   0  0  0  0  0  0  0  0  0  0  0  0
   10.6126    1.7844    0.0000 C   0  0  2  0  0  0  0  0  0  0  0  0
    9.6615    2.0934    0.0000 C   0  0  0  0  0  0  0  0  0  0  0  0
   10.8205    0.8062    0.0000 C   0  0  2  0  0  0  0  0  0  0  0  0
    5.4641   -2.2146    0.0000 C   0  0  0  0  0  0  0  0  0  0  0  0
    4.1953    4.8558    0.0000 C   0  0  0  0  0  0  0  0  0  0  0  0
    3.7320   -2.2146    0.0000 C   0  0  0  0  0  0  0  0  0  0  0  0
   11.7715    0.4972    0.0000 C   0  0  0  0  0  0  0  0  0  0  0  0
    6.3301   -1.7146    0.0000 C   0  0  0  0  0  0  0  0  0  0  0  0
   10.0773    0.1371    0.0000 C   0  0  0  0  0  0  0  0  0  0  0  0
   12.3068    2.1445    0.0000 C   0  0  0  0  0  0  0  0  0  0  0  0
   11.9795   -0.4809    0.0000 C   0  0  0  0  0  0  0  0  0  0  0  0
    3.2008    4.7513    0.0000 C   0  0  0  0  0  0  0  0  0  0  0  0
    4.6020    5.7693    0.0000 C   0  0  0  0  0  0  0  0  0  0  0  0
   13.0499    2.8136    0.0000 C   0  0  1  0  0  0  0  0  0  0  0  0
    7.1962   -2.2146    0.0000 C   0  0  0  0  0  0  0  0  0  0  0  0
    2.8660   -3.7146    0.0000 C   0  0  2  0  0  0  0  0  0  0  0  0
   12.8420    3.7918    0.0000 C   0  0  0  0  0  0  0  0  0  0  0  0
    2.6130    5.5603    0.0000 C   0  0  0  0  0  0  0  0  0  0  0  0
    4.0142    6.5784    0.0000 C   0  0  0  0  0  0  0  0  0  0  0  0
    2.8660   -4.7146    0.0000 C   0  0  0  0  0  0  0  0  0  0  0  0
    3.0197    6.4738    0.0000 C   0  0  0  0  0  0  0  0  0  0  0  0
    2.0000   -3.2146    0.0000 C   0  0  0  0  0  0  0  0  0  0  0  0
   13.5852    4.4609    0.0000 C   0  0  0  0  0  0  0  0  0  0  0  0
   14.7441    3.1737    0.0000 C   0  0  0  0  0  0  0  0  0  0  0  0
   15.6952    2.8647    0.0000 C   0  0  2  0  0  0  0  0  0  0  0  0
    3.7320   -5.2146    0.0000 C   0  0  0  0  0  0  0  0  0  0  0  0
    2.0000   -5.2146    0.0000 C   0  0  0  0  0  0  0  0  0  0  0  0
   13.3772    5.4390    0.0000 C   0  0  0  0  0  0  0  0  0  0  0  0
   15.9031    1.8866    0.0000 C   0  0  0  0  0  0  0  0  0  0  0  0
    3.7320   -6.2146    0.0000 C   0  0  0  0  0  0  0  0  0  0  0  0
    2.0000   -6.2146    0.0000 C   0  0  0  0  0  0  0  0  0  0  0  0
    2.8660   -6.7146    0.0000 C   0  0  0  0  0  0  0  0  0  0  0  0
   16.8542    1.5776    0.0000 C   0  0  0  0  0  0  0  0  0  0  0  0
   16.2304    4.5120    0.0000 C   0  0  0  0  0  0  0  0  0  0  0  0
   16.9736    5.1811    0.0000 C   0  0  0  0  0  0  0  0  0  0  0  0
    6.0165    0.5039    0.0000 H   0  0  0  0  0  0  0  0  0  0  0  0
    5.2456    2.8766    0.0000 H   0  0  0  0  0  0  0  0  0  0  0  0
    4.0887    1.6253    0.0000 H   0  0  0  0  0  0  0  0  0  0  0  0
    4.3451    0.8362    0.0000 H   0  0  0  0  0  0  0  0  0  0  0  0
    6.5706    2.4531    0.0000 H   0  0  0  0  0  0  0  0  0  0  0  0
    5.8993    2.9408    0.0000 H   0  0  0  0  0  0  0  0  0  0  0  0
    8.0962    1.1268    0.0000 H   0  0  0  0  0  0  0  0  0  0  0  0
    8.3491    2.5198    0.0000 H   0  0  0  0  0  0  0  0  0  0  0  0
    9.0473    0.8178    0.0000 H   0  0  0  0  0  0  0  0  0  0  0  0
    4.0611   -0.4046    0.0000 H   0  0  0  0  0  0  0  0  0  0  0  0
    4.0611   -1.4046    0.0000 H   0  0  0  0  0  0  0  0  0  0  0  0
    5.2971    3.7001    0.0000 H   0  0  0  0  0  0  0  0  0  0  0  0
    5.2137    4.4928    0.0000 H   0  0  0  0  0  0  0  0  0  0  0  0
    8.9174    2.9198    0.0000 H   0  0  0  0  0  0  0  0  0  0  0  0
    8.9633    3.7954    0.0000 H   0  0  0  0  0  0  0  0  0  0  0  0
    8.0877    3.8413    0.0000 H   0  0  0  0  0  0  0  0  0  0  0  0
    6.9999    3.6101    0.0000 H   0  0  0  0  0  0  0  0  0  0  0  0
    6.2187    3.2120    0.0000 H   0  0  0  0  0  0  0  0  0  0  0  0
    6.6168    2.4308    0.0000 H   0  0  0  0  0  0  0  0  0  0  0  0
   10.4837    2.3908    0.0000 H   0  0  0  0  0  0  0  0  0  0  0  0
   10.9494    0.1998    0.0000 H   0  0  0  0  0  0  0  0  0  0  0  0
    5.0656   -2.6896    0.0000 H   0  0  0  0  0  0  0  0  0  0  0  0
    5.8626   -2.6896    0.0000 H   0  0  0  0  0  0  0  0  0  0  0  0
   12.3912    0.5188    0.0000 H   0  0  0  0  0  0  0  0  0  0  0  0
   11.8578    1.1112    0.0000 H   0  0  0  0  0  0  0  0  0  0  0  0
   11.2268    3.0600    0.0000 H   0  0  0  0  0  0  0  0  0  0  0  0
    6.7287   -1.2397    0.0000 H   0  0  0  0  0  0  0  0  0  0  0  0
    5.9316   -1.2397    0.0000 H   0  0  0  0  0  0  0  0  0  0  0  0
    9.6625    0.5978    0.0000 H   0  0  0  0  0  0  0  0  0  0  0  0
    9.6166   -0.2778    0.0000 H   0  0  0  0  0  0  0  0  0  0  0  0
   10.4922   -0.3237    0.0000 H   0  0  0  0  0  0  0  0  0  0  0  0
    4.2690   -3.5246    0.0000 H   0  0  0  0  0  0  0  0  0  0  0  0
   11.3730   -0.6098    0.0000 H   0  0  0  0  0  0  0  0  0  0  0  0
   12.1084   -1.0874    0.0000 H   0  0  0  0  0  0  0  0  0  0  0  0
   12.5859   -0.3520    0.0000 H   0  0  0  0  0  0  0  0  0  0  0  0
    2.9486    4.1849    0.0000 H   0  0  0  0  0  0  0  0  0  0  0  0
    5.2186    5.8342    0.0000 H   0  0  0  0  0  0  0  0  0  0  0  0
   13.1788    2.2072    0.0000 H   0  0  0  0  0  0  0  0  0  0  0  0
    6.8862   -2.7516    0.0000 H   0  0  0  0  0  0  0  0  0  0  0  0
    7.7331   -2.5246    0.0000 H   0  0  0  0  0  0  0  0  0  0  0  0
    7.5062   -1.6777    0.0000 H   0  0  0  0  0  0  0  0  0  0  0  0
    2.8660   -3.0946    0.0000 H   0  0  0  0  0  0  0  0  0  0  0  0
   12.5135    4.3176    0.0000 H   0  0  0  0  0  0  0  0  0  0  0  0
   12.2672    3.5595    0.0000 H   0  0  0  0  0  0  0  0  0  0  0  0
    1.9964    5.4955    0.0000 H   0  0  0  0  0  0  0  0  0  0  0  0
    4.2664    7.1448    0.0000 H   0  0  0  0  0  0  0  0  0  0  0  0
   14.1299    1.8982    0.0000 H   0  0  0  0  0  0  0  0  0  0  0  0
    2.6553    6.9754    0.0000 H   0  0  0  0  0  0  0  0  0  0  0  0
    2.3100   -2.6777    0.0000 H   0  0  0  0  0  0  0  0  0  0  0  0
    1.4631   -2.9046    0.0000 H   0  0  0  0  0  0  0  0  0  0  0  0
    1.6900   -3.7516    0.0000 H   0  0  0  0  0  0  0  0  0  0  0  0
   13.9137    3.9351    0.0000 H   0  0  0  0  0  0  0  0  0  0  0  0
   14.1600    4.6932    0.0000 H   0  0  0  0  0  0  0  0  0  0  0  0
   16.2848    2.6731    0.0000 H   0  0  0  0  0  0  0  0  0  0  0  0
    4.2690   -4.9046    0.0000 H   0  0  0  0  0  0  0  0  0  0  0  0
    1.4631   -4.9046    0.0000 H   0  0  0  0  0  0  0  0  0  0  0  0
   15.2835    1.8649    0.0000 H   0  0  0  0  0  0  0  0  0  0  0  0
   15.8168    1.2726    0.0000 H   0  0  0  0  0  0  0  0  0  0  0  0
    4.2690   -6.5246    0.0000 H   0  0  0  0  0  0  0  0  0  0  0  0
    1.4631   -6.5246    0.0000 H   0  0  0  0  0  0  0  0  0  0  0  0
   17.0280    3.3422    0.0000 H   0  0  0  0  0  0  0  0  0  0  0  0
    2.8660   -7.3346    0.0000 H   0  0  0  0  0  0  0  0  0  0  0  0
   13.9915    6.7146    0.0000 H   0  0  0  0  0  0  0  0  0  0  0  0
   17.3884    4.7204    0.0000 H   0  0  0  0  0  0  0  0  0  0  0  0
   17.4343    5.5960    0.0000 H   0  0  0  0  0  0  0  0  0  0  0  0
   16.5587    5.6419    0.0000 H   0  0  0  0  0  0  0  0  0  0  0  0
   17.6517    0.4078    0.0000 H   0  0  0  0  0  0  0  0  0  0  0  0
 21  1  1  1  0  0  0
  1 29  1  0  0  0  0
  2 24  2  0  0  0  0
  3 26  2  0  0  0  0
  4 33  2  0  0  0  0
  5 37  2  0  0  0  0
  6 41  2  0  0  0  0
  7 55  2  0  0  0  0
  8 59  1  0  0  0  0
  8129  1  0  0  0  0
  9 59  2  0  0  0  0
 10 64  1  0  0  0  0
 10133  1  0  0  0  0
 11 64  2  0  0  0  0
 12 65  2  0  0  0  0
 13 20  1  0  0  0  0
 13 23  1  0  0  0  0
 13 24  1  0  0  0  0
 25 14  1  6  0  0  0
 14 33  1  0  0  0  0
 14 75  1  0  0  0  0
 15 26  1  0  0  0  0
 15 28  1  0  0  0  0
 15 76  1  0  0  0  0
 32 16  1  1  0  0  0
 16 41  1  0  0  0  0
 16 92  1  0  0  0  0
 17 37  1  0  0  0  0
 47 17  1  6  0  0  0
 17 98  1  0  0  0  0
 45 18  1  1  0  0  0
 18 55  1  0  0  0  0
 18113  1  0  0  0  0
 56 19  1  1  0  0  0
 19 65  1  0  0  0  0
 19127  1  0  0  0  0
 20 22  1  0  0  0  0
 20 26  1  6  0  0  0
 20 67  1  0  0  0  0
 21 22  1  0  0  0  0
 21 23  1  0  0  0  0
 21 68  1  0  0  0  0
 22 69  1  0  0  0  0
 22 70  1  0  0  0  0
 23 71  1  0  0  0  0
 23 72  1  0  0  0  0
 24 25  1  0  0  0  0
 25 27  1  0  0  0  0
 25 73  1  0  0  0  0
 27 30  1  0  0  0  0
 27 31  1  0  0  0  0
 27 74  1  0  0  0  0
 28 35  1  0  0  0  0
 28 37  1  0  0  0  0
 28 77  1  0  0  0  0
 29 36  1  0  0  0  0
 29 78  1  0  0  0  0
 29 79  1  0  0  0  0
 30 80  1  0  0  0  0
 30 81  1  0  0  0  0
 30 82  1  0  0  0  0
 31 83  1  0  0  0  0
 31 84  1  0  0  0  0
 31 85  1  0  0  0  0
 32 33  1  0  0  0  0
 32 34  1  0  0  0  0
 32 86  1  0  0  0  0
 34 38  1  0  0  0  0
 34 40  1  6  0  0  0
 34 87  1  0  0  0  0
 35 39  1  0  0  0  0
 35 88  1  0  0  0  0
 35 89  1  0  0  0  0
 36 43  2  0  0  0  0
 36 44  1  0  0  0  0
 38 42  1  0  0  0  0
 38 90  1  0  0  0  0
 38 91  1  0  0  0  0
 39 46  1  0  0  0  0
 39 93  1  0  0  0  0
 39 94  1  0  0  0  0
 40 95  1  0  0  0  0
 40 96  1  0  0  0  0
 40 97  1  0  0  0  0
 41 45  1  0  0  0  0
 42 99  1  0  0  0  0
 42100  1  0  0  0  0
 42101  1  0  0  0  0
 43 49  1  0  0  0  0
 43102  1  0  0  0  0
 44 50  2  0  0  0  0
 44103  1  0  0  0  0
 45 48  1  0  0  0  0
 45104  1  0  0  0  0
 46105  1  0  0  0  0
 46106  1  0  0  0  0
 46107  1  0  0  0  0
 47 51  1  0  0  0  0
 47 53  1  0  0  0  0
 47108  1  0  0  0  0
 48 54  1  0  0  0  0
 48109  1  0  0  0  0
 48110  1  0  0  0  0
 49 52  2  0  0  0  0
 49111  1  0  0  0  0
 50 52  1  0  0  0  0
 50112  1  0  0  0  0
 51 57  2  0  0  0  0
 51 58  1  0  0  0  0
 52114  1  0  0  0  0
 53115  1  0  0  0  0
 53116  1  0  0  0  0
 53117  1  0  0  0  0
 54 59  1  0  0  0  0
 54118  1  0  0  0  0
 54119  1  0  0  0  0
 55 56  1  0  0  0  0
 56 60  1  0  0  0  0
 56120  1  0  0  0  0
 57 61  1  0  0  0  0
 57121  1  0  0  0  0
 58 62  2  0  0  0  0
 58122  1  0  0  0  0
 60 64  1  0  0  0  0
 60123  1  0  0  0  0
 60124  1  0  0  0  0
 61 63  2  0  0  0  0
 61125  1  0  0  0  0
 62 63  1  0  0  0  0
 62126  1  0  0  0  0
 63128  1  0  0  0  0
 65 66  1  0  0  0  0
 66130  1  0  0  0  0
 66131  1  0  0  0  0
 66132  1  0  0  0  0
M  END
> <PUBCHEM_COMPOUND_CID>
500582
> <PUBCHEM_COMPOUND_CANONICALIZED>
1
> <PUBCHEM_CACTVS_COMPLEXITY>
1670
> <PUBCHEM_CACTVS_HBOND_ACCEPTOR>
12
> <PUBCHEM_CACTVS_HBOND_DONOR>
8
> <PUBCHEM_CACTVS_ROTATABLE_BOND>
26
> <PUBCHEM_CACTVS_SUBSKEYS>
AAADcfB/vAAAAAAAAAAAAAAAAAAAAWAAAAAwYAAAAAAAAAABQAAAHgAQCAAADTzhmAYyCIPABgCIAiHSGACCAAAgAAAIiIGIDIgKZjqAsTmXcAhm1gGYqAe/16IOAAAAAAAAAAAAAAAAAAAAAAAAAAAAAA==
> <PUBCHEM_IUPAC_OPENEYE_NAME>
(4R)-4-[[(2S)-2-acetamido-3-carboxy-propanoyl]amino]-5-[[(1S,2S)-1-[[(1S)-1-[(2S,4R)-4-benzyloxy-2-[1-[[(1S)-1-phenylethyl]carbamoyl]butylcarbamoyl]pyrrolidine-1-carbonyl]-2-methyl-propyl]carbamoyl]-2-methyl-butyl]amino]-5-oxo-pentanoic acid
> <PUBCHEM_IUPAC_CAS_NAME>
(4R)-4-[[(2S)-2-acetamido-3-carboxy-1-oxopropyl]amino]-5-[[(2S,3S)-3-methyl-1-[[(2S)-3-methyl-1-oxo-1-[(2S,4R)-2-[oxo-[[1-oxo-1-[[(1S)-1-phenylethyl]amino]pentan-2-yl]amino]methyl]-4-phenylmethoxy-1-pyrrolidinyl]butan-2-yl]amino]-1-oxopentan-2-yl]amino]-5-oxopentanoic acid
> <PUBCHEM_IUPAC_NAME_MARKUP>
(4<I>R</I>)-4-[[(2<I>S</I>)-2-acetamido-3-carboxypropanoyl]amino]-5-[[(2<I>S</I>,3<I>S</I>)-3-methyl-1-[[(2<I>S</I>)-3-methyl-1-oxo-1-[(2<I>S</I>,4<I>R</I>)-2-[[1-oxo-1-[[(1<I>S</I>)-1-phenylethyl]amino]pentan-2-yl]carbamoyl]-4-phenylmethoxypyrrolidin-1-yl]butan-2-yl]amino]-1-oxopentan-2-yl]amino]-5-oxopentanoic acid
> <PUBCHEM_IUPAC_NAME>
(4R)-4-[[(2S)-2-acetamido-3-carboxypropanoyl]amino]-5-[[(2S,3S)-3-methyl-1-[[(2S)-3-methyl-1-oxo-1-[(2S,4R)-2-[[1-oxo-1-[[(1S)-1-phenylethyl]amino]pentan-2-yl]carbamoyl]-4-phenylmethoxypyrrolidin-1-yl]butan-2-yl]amino]-1-oxopentan-2-yl]amino]-5-oxopentanoic acid
> <PUBCHEM_IUPAC_SYSTEMATIC_NAME>
(4R)-4-[[(2S)-2-acetamido-4-oxidanyl-4-oxidanylidene-butanoyl]amino]-5-[[(2S,3S)-3-methyl-1-[[(2S)-3-methyl-1-oxidanylidene-1-[(2S,4R)-2-[[1-oxidanylidene-1-[[(1S)-1-phenylethyl]amino]pentan-2-yl]carbamoyl]-4-phenylmethoxy-pyrrolidin-1-yl]butan-2-yl]amino]-1-oxidanylidene-pentan-2-yl]amino]-5-oxidanylidene-pentanoic acid
> <PUBCHEM_IUPAC_TRADITIONAL_NAME>
(4R)-4-[[(2S)-2-acetamido-3-carboxy-propanoyl]amino]-5-[[(1S,2S)-1-[[(1S)-1-[(2S,4R)-4-benzoxy-2-[1-[[(1S)-1-phenylethyl]carbamoyl]butylcarbamoyl]pyrrolidine-1-carbonyl]-2-methyl-propyl]carbamoyl]-2-methyl-butyl]amino]-5-keto-valeric acid
> <PUBCHEM_IUPAC_INCHI>
InChI=1S/C47H67N7O12/c1-8-16-34(42(60)48-29(6)32-19-14-11-15-20-32)51-45(63)37-23-33(66-26-31-17-12-10-13-18-31)25-54(37)47(65)40(27(3)4)52-46(64)41(28(5)9-2)53-43(61)35(21-22-38(56)57)50-44(62)36(24-39(58)59)49-30(7)55/h10-15,17-20,27-29,33-37,40-41H,8-9,16,21-26H2,1-7H3,(H,48,60)(H,49,55)(H,50,62)(H,51,63)(H,52,64)(H,53,61)(H,56,57)(H,58,59)/t28-,29-,33+,34?,35+,36-,37-,40-,41-/m0/s1
> <PUBCHEM_IUPAC_INCHIKEY>
ACTQAGVJCRVEQV-WXWLVIGQSA-N
> <PUBCHEM_XLOGP3_AA>
3.1
> <PUBCHEM_EXACT_MASS>
921.48477060
> <PUBCHEM_MOLECULAR_FORMULA>
C47H67N7O12
> <PUBCHEM_MOLECULAR_WEIGHT>
922.1
> <PUBCHEM_OPENEYE_CAN_SMILES>
CCCC(C(=O)NC(C)C1=CC=CC=C1)NC(=O)C2CC(CN2C(=O)C(C(C)C)NC(=O)C(C(C)CC)NC(=O)C(CCC(=O)O)NC(=O)C(CC(=O)O)NC(=O)C)OCC3=CC=CC=C3
> <PUBCHEM_OPENEYE_ISO_SMILES>
CCCC(C(=O)N[C@@H](C)C1=CC=CC=C1)NC(=O)[C@@H]2C[C@H](CN2C(=O)[C@H](C(C)C)NC(=O)[C@H]([C@@H](C)CC)NC(=O)[C@@H](CCC(=O)O)NC(=O)[C@H](CC(=O)O)NC(=O)C)OCC3=CC=CC=C3
> <PUBCHEM_CACTVS_TPSA>
279
> <PUBCHEM_MONOISOTOPIC_WEIGHT>
921.48477060
> <PUBCHEM_TOTAL_CHARGE>
0
> <PUBCHEM_HEAVY_ATOM_COUNT>
66
> <PUBCHEM_ATOM_DEF_STEREO_COUNT>
8
> <PUBCHEM_ATOM_UDEF_STEREO_COUNT>
1
> <PUBCHEM_BOND_DEF_STEREO_COUNT>
0
> <PUBCHEM_BOND_UDEF_STEREO_COUNT>
0
> <PUBCHEM_ISOTOPIC_ATOM_COUNT>
0
> <PUBCHEM_COMPONENT_COUNT>
1
> <PUBCHEM_CACTVS_TAUTO_COUNT>
-1
> <PUBCHEM_COORDINATE_TYPE>
1
5
255
> <PUBCHEM_BONDANNOTATIONS>
21  1  5
25  14  6
32  16  5
47  17  6
45  18  5
56  19  5
20  26  6
28  35  3
34  40  6
36  43  8
36  44  8
43  49  8
44  50  8
49  52  8
50  52  8
51  57  8
51  58  8
57  61  8
58  62  8
61  63  8
62  63  8
$$$$
