500567
  -OEChem-10302200282D
122122  0     1  0  0  0  0  0999 V2000
    4.5981   -0.0950    0.0000 O   0  0  0  0  0  0  0  0  0  0  0  0
    8.0622   -1.0950    0.0000 O   0  0  0  0  0  0  0  0  0  0  0  0
    3.7320    3.4050    0.0000 O   0  0  0  0  0  0  0  0  0  0  0  0
    8.9282   -1.5950    0.0000 O   0  0  0  0  0  0  0  0  0  0  0  0
    6.3301    5.9050    0.0000 O   0  0  0  0  0  0  0  0  0  0  0  0
   11.5263   -4.0950    0.0000 O   0  0  0  0  0  0  0  0  0  0  0  0
   11.5263   -6.0950    0.0000 O   0  0  0  0  0  0  0  0  0  0  0  0
    9.7942   -6.0950    0.0000 O   0  0  0  0  0  0  0  0  0  0  0  0
   13.2583   -0.0950    0.0000 O   0  0  0  0  0  0  0  0  0  0  0  0
   12.3923   -4.5950    0.0000 O   0  0  0  0  0  0  0  0  0  0  0  0
   14.1244   -1.5950    0.0000 O   0  0  0  0  0  0  0  0  0  0  0  0
   14.9904   -7.0950    0.0000 O   0  0  0  0  0  0  0  0  0  0  0  0
   15.8564   -5.5950    0.0000 O   0  0  0  0  0  0  0  0  0  0  0  0
    6.3301   -1.0950    0.0000 N   0  0  0  0  0  0  0  0  0  0  0  0
    5.4641    1.4050    0.0000 N   0  0  0  0  0  0  0  0  0  0  0  0
    8.0622   -3.0950    0.0000 N   0  0  0  0  0  0  0  0  0  0  0  0
    5.4641    3.4050    0.0000 N   0  0  0  0  0  0  0  0  0  0  0  0
   10.6603   -2.5950    0.0000 N   0  0  0  0  0  0  0  0  0  0  0  0
   13.2583   -3.0950    0.0000 N   0  0  0  0  0  0  0  0  0  0  0  0
    7.1962    0.4050    0.0000 C   0  0  0  0  0  0  0  0  0  0  0  0
    6.3301   -0.0950    0.0000 C   0  0  1  0  0  0  0  0  0  0  0  0
    8.0622    0.9050    0.0000 C   0  0  0  0  0  0  0  0  0  0  0  0
    6.6962    1.2710    0.0000 C   0  0  0  0  0  0  0  0  0  0  0  0
    7.6962   -0.4610    0.0000 C   0  0  0  0  0  0  0  0  0  0  0  0
    5.4641    0.4050    0.0000 C   0  0  0  0  0  0  0  0  0  0  0  0
    4.5981    1.9050    0.0000 C   0  0  1  0  0  0  0  0  0  0  0  0
    3.7320    1.4050    0.0000 C   0  0  0  0  0  0  0  0  0  0  0  0
    2.8660    1.9050    0.0000 C   0  0  0  0  0  0  0  0  0  0  0  0
    7.1962   -2.5950    0.0000 C   0  0  2  0  0  0  0  0  0  0  0  0
    7.1962   -1.5950    0.0000 C   0  0  0  0  0  0  0  0  0  0  0  0
    4.5981    2.9050    0.0000 C   0  0  0  0  0  0  0  0  0  0  0  0
    6.3301   -3.0950    0.0000 C   0  0  0  0  0  0  0  0  0  0  0  0
    2.0000    1.4050    0.0000 C   0  0  0  0  0  0  0  0  0  0  0  0
    2.8660    2.9050    0.0000 C   0  0  0  0  0  0  0  0  0  0  0  0
    5.4641    4.4050    0.0000 C   0  0  3  0  0  0  0  0  0  0  0  0
    6.3301   -4.0950    0.0000 C   0  0  0  0  0  0  0  0  0  0  0  0
    9.7942   -3.0950    0.0000 C   0  0  2  0  0  0  0  0  0  0  0  0
    8.9282   -2.5950    0.0000 C   0  0  0  0  0  0  0  0  0  0  0  0
    4.5981    4.9050    0.0000 C   0  0  0  0  0  0  0  0  0  0  0  0
    9.7942   -4.0950    0.0000 C   0  0  0  0  0  0  0  0  0  0  0  0
    4.5981    5.9050    0.0000 C   0  0  0  0  0  0  0  0  0  0  0  0
    5.4641   -4.5950    0.0000 C   0  0  0  0  0  0  0  0  0  0  0  0
    7.1962   -4.5950    0.0000 C   0  0  0  0  0  0  0  0  0  0  0  0
    6.3301    4.9050    0.0000 C   0  0  0  0  0  0  0  0  0  0  0  0
    3.7320    6.4050    0.0000 C   0  0  0  0  0  0  0  0  0  0  0  0
   10.6603   -4.5950    0.0000 C   0  0  0  0  0  0  0  0  0  0  0  0
    5.4641   -5.5950    0.0000 C   0  0  0  0  0  0  0  0  0  0  0  0
    4.5981   -4.0950    0.0000 C   0  0  0  0  0  0  0  0  0  0  0  0
   11.5263   -3.0950    0.0000 C   0  0  0  0  0  0  0  0  0  0  0  0
    7.1962   -5.5950    0.0000 C   0  0  0  0  0  0  0  0  0  0  0  0
   12.3923   -2.5950    0.0000 C   0  0  2  0  0  0  0  0  0  0  0  0
    6.3301   -6.0950    0.0000 C   0  0  0  0  0  0  0  0  0  0  0  0
    3.7320    7.4050    0.0000 C   0  0  0  0  0  0  0  0  0  0  0  0
   12.3923   -1.5950    0.0000 C   0  0  0  0  0  0  0  0  0  0  0  0
   10.6603   -5.5950    0.0000 C   0  0  0  0  0  0  0  0  0  0  0  0
   13.2583   -4.0950    0.0000 C   0  0  0  0  0  0  0  0  0  0  0  0
   13.2583   -1.0950    0.0000 C   0  0  0  0  0  0  0  0  0  0  0  0
   14.1244   -4.5950    0.0000 C   0  0  0  0  0  0  0  0  0  0  0  0
   14.1244   -5.5950    0.0000 C   0  0  0  0  0  0  0  0  0  0  0  0
   14.9904   -6.0950    0.0000 C   0  0  0  0  0  0  0  0  0  0  0  0
    6.8671   -0.4050    0.0000 H   0  0  0  0  0  0  0  0  0  0  0  0
    8.3722    0.3681    0.0000 H   0  0  0  0  0  0  0  0  0  0  0  0
    8.5991    1.2150    0.0000 H   0  0  0  0  0  0  0  0  0  0  0  0
    7.7522    1.4419    0.0000 H   0  0  0  0  0  0  0  0  0  0  0  0
    7.2331    1.5810    0.0000 H   0  0  0  0  0  0  0  0  0  0  0  0
    6.3862    1.8080    0.0000 H   0  0  0  0  0  0  0  0  0  0  0  0
    6.1592    0.9610    0.0000 H   0  0  0  0  0  0  0  0  0  0  0  0
    7.1592   -0.7710    0.0000 H   0  0  0  0  0  0  0  0  0  0  0  0
    8.0062   -0.9980    0.0000 H   0  0  0  0  0  0  0  0  0  0  0  0
    8.2331   -0.1510    0.0000 H   0  0  0  0  0  0  0  0  0  0  0  0
    5.7932   -1.4050    0.0000 H   0  0  0  0  0  0  0  0  0  0  0  0
    4.5981    1.2850    0.0000 H   0  0  0  0  0  0  0  0  0  0  0  0
    3.3335    0.9301    0.0000 H   0  0  0  0  0  0  0  0  0  0  0  0
    4.1306    0.9301    0.0000 H   0  0  0  0  0  0  0  0  0  0  0  0
    6.0010    1.7150    0.0000 H   0  0  0  0  0  0  0  0  0  0  0  0
    2.8660    1.2850    0.0000 H   0  0  0  0  0  0  0  0  0  0  0  0
    7.7331   -2.2850    0.0000 H   0  0  0  0  0  0  0  0  0  0  0  0
    6.1181   -2.5124    0.0000 H   0  0  0  0  0  0  0  0  0  0  0  0
    5.7196   -3.2027    0.0000 H   0  0  0  0  0  0  0  0  0  0  0  0
    8.0622   -3.7150    0.0000 H   0  0  0  0  0  0  0  0  0  0  0  0
    1.6900    1.9419    0.0000 H   0  0  0  0  0  0  0  0  0  0  0  0
    1.4631    1.0950    0.0000 H   0  0  0  0  0  0  0  0  0  0  0  0
    2.3100    0.8681    0.0000 H   0  0  0  0  0  0  0  0  0  0  0  0
    3.4860    2.9050    0.0000 H   0  0  0  0  0  0  0  0  0  0  0  0
    2.8660    3.5250    0.0000 H   0  0  0  0  0  0  0  0  0  0  0  0
    2.2460    2.9050    0.0000 H   0  0  0  0  0  0  0  0  0  0  0  0
    6.0010    3.0950    0.0000 H   0  0  0  0  0  0  0  0  0  0  0  0
    6.0010    4.0950    0.0000 H   0  0  0  0  0  0  0  0  0  0  0  0
    9.7942   -2.4750    0.0000 H   0  0  0  0  0  0  0  0  0  0  0  0
    3.9875    5.0127    0.0000 H   0  0  0  0  0  0  0  0  0  0  0  0
    4.3860    4.3224    0.0000 H   0  0  0  0  0  0  0  0  0  0  0  0
    9.1836   -3.9873    0.0000 H   0  0  0  0  0  0  0  0  0  0  0  0
    9.5822   -4.6776    0.0000 H   0  0  0  0  0  0  0  0  0  0  0  0
    5.2087    5.7973    0.0000 H   0  0  0  0  0  0  0  0  0  0  0  0
    4.8101    6.4876    0.0000 H   0  0  0  0  0  0  0  0  0  0  0  0
    7.7331   -4.2850    0.0000 H   0  0  0  0  0  0  0  0  0  0  0  0
   10.6603   -1.9750    0.0000 H   0  0  0  0  0  0  0  0  0  0  0  0
    6.8671    4.5950    0.0000 H   0  0  0  0  0  0  0  0  0  0  0  0
    3.1215    6.5127    0.0000 H   0  0  0  0  0  0  0  0  0  0  0  0
    3.5200    5.8224    0.0000 H   0  0  0  0  0  0  0  0  0  0  0  0
   11.2708   -4.7027    0.0000 H   0  0  0  0  0  0  0  0  0  0  0  0
   10.8723   -4.0124    0.0000 H   0  0  0  0  0  0  0  0  0  0  0  0
    4.9272   -5.9050    0.0000 H   0  0  0  0  0  0  0  0  0  0  0  0
    4.9081   -3.5581    0.0000 H   0  0  0  0  0  0  0  0  0  0  0  0
    4.0611   -3.7850    0.0000 H   0  0  0  0  0  0  0  0  0  0  0  0
    4.2881   -4.6319    0.0000 H   0  0  0  0  0  0  0  0  0  0  0  0
    7.7331   -5.9050    0.0000 H   0  0  0  0  0  0  0  0  0  0  0  0
   12.3923   -3.2150    0.0000 H   0  0  0  0  0  0  0  0  0  0  0  0
    6.3301   -6.7150    0.0000 H   0  0  0  0  0  0  0  0  0  0  0  0
    4.3520    7.4050    0.0000 H   0  0  0  0  0  0  0  0  0  0  0  0
    3.7320    8.0250    0.0000 H   0  0  0  0  0  0  0  0  0  0  0  0
    3.1120    7.4050    0.0000 H   0  0  0  0  0  0  0  0  0  0  0  0
   12.1803   -1.0124    0.0000 H   0  0  0  0  0  0  0  0  0  0  0  0
   11.7817   -1.7027    0.0000 H   0  0  0  0  0  0  0  0  0  0  0  0
   13.7953   -2.7850    0.0000 H   0  0  0  0  0  0  0  0  0  0  0  0
   14.7349   -4.7027    0.0000 H   0  0  0  0  0  0  0  0  0  0  0  0
   14.3364   -4.0124    0.0000 H   0  0  0  0  0  0  0  0  0  0  0  0
   11.5263   -6.7150    0.0000 H   0  0  0  0  0  0  0  0  0  0  0  0
   13.5138   -5.4873    0.0000 H   0  0  0  0  0  0  0  0  0  0  0  0
   13.9123   -6.1776    0.0000 H   0  0  0  0  0  0  0  0  0  0  0  0
   13.7953    0.2150    0.0000 H   0  0  0  0  0  0  0  0  0  0  0  0
   15.5273   -7.4050    0.0000 H   0  0  0  0  0  0  0  0  0  0  0  0
  1 25  2  0  0  0  0
  2 30  2  0  0  0  0
  3 31  2  0  0  0  0
  4 38  2  0  0  0  0
  5 44  2  0  0  0  0
  6 49  2  0  0  0  0
  7 55  1  0  0  0  0
  7118  1  0  0  0  0
  8 55  2  0  0  0  0
  9 57  1  0  0  0  0
  9121  1  0  0  0  0
 10 56  2  0  0  0  0
 11 57  2  0  0  0  0
 12 60  1  0  0  0  0
 12122  1  0  0  0  0
 13 60  2  0  0  0  0
 21 14  1  6  0  0  0
 14 30  1  0  0  0  0
 14 71  1  0  0  0  0
 15 25  1  0  0  0  0
 26 15  1  1  0  0  0
 15 75  1  0  0  0  0
 29 16  1  1  0  0  0
 16 38  1  0  0  0  0
 16 80  1  0  0  0  0
 17 31  1  0  0  0  0
 17 35  1  0  0  0  0
 17 87  1  0  0  0  0
 37 18  1  1  0  0  0
 18 49  1  0  0  0  0
 18 97  1  0  0  0  0
 51 19  1  6  0  0  0
 19 56  1  0  0  0  0
 19115  1  0  0  0  0
 20 21  1  0  0  0  0
 20 22  1  0  0  0  0
 20 23  1  0  0  0  0
 20 24  1  0  0  0  0
 21 25  1  0  0  0  0
 21 61  1  0  0  0  0
 22 62  1  0  0  0  0
 22 63  1  0  0  0  0
 22 64  1  0  0  0  0
 23 65  1  0  0  0  0
 23 66  1  0  0  0  0
 23 67  1  0  0  0  0
 24 68  1  0  0  0  0
 24 69  1  0  0  0  0
 24 70  1  0  0  0  0
 26 27  1  0  0  0  0
 26 31  1  0  0  0  0
 26 72  1  0  0  0  0
 27 28  1  0  0  0  0
 27 73  1  0  0  0  0
 27 74  1  0  0  0  0
 28 33  1  0  0  0  0
 28 34  1  0  0  0  0
 28 76  1  0  0  0  0
 29 30  1  0  0  0  0
 29 32  1  0  0  0  0
 29 77  1  0  0  0  0
 32 36  1  0  0  0  0
 32 78  1  0  0  0  0
 32 79  1  0  0  0  0
 33 81  1  0  0  0  0
 33 82  1  0  0  0  0
 33 83  1  0  0  0  0
 34 84  1  0  0  0  0
 34 85  1  0  0  0  0
 34 86  1  0  0  0  0
 35 39  1  0  0  0  0
 35 44  1  0  0  0  0
 35 88  1  0  0  0  0
 36 42  1  0  0  0  0
 36 43  2  0  0  0  0
 37 38  1  0  0  0  0
 37 40  1  0  0  0  0
 37 89  1  0  0  0  0
 39 41  1  0  0  0  0
 39 90  1  0  0  0  0
 39 91  1  0  0  0  0
 40 46  1  0  0  0  0
 40 92  1  0  0  0  0
 40 93  1  0  0  0  0
 41 45  1  0  0  0  0
 41 94  1  0  0  0  0
 41 95  1  0  0  0  0
 42 47  2  0  0  0  0
 42 48  1  0  0  0  0
 43 50  1  0  0  0  0
 43 96  1  0  0  0  0
 44 98  1  0  0  0  0
 45 53  1  0  0  0  0
 45 99  1  0  0  0  0
 45100  1  0  0  0  0
 46 55  1  0  0  0  0
 46101  1  0  0  0  0
 46102  1  0  0  0  0
 47 52  1  0  0  0  0
 47103  1  0  0  0  0
 48104  1  0  0  0  0
 48105  1  0  0  0  0
 48106  1  0  0  0  0
 49 51  1  0  0  0  0
 50 52  2  0  0  0  0
 50107  1  0  0  0  0
 51 54  1  0  0  0  0
 51108  1  0  0  0  0
 52109  1  0  0  0  0
 53110  1  0  0  0  0
 53111  1  0  0  0  0
 53112  1  0  0  0  0
 54 57  1  0  0  0  0
 54113  1  0  0  0  0
 54114  1  0  0  0  0
 56 58  1  0  0  0  0
 58 59  1  0  0  0  0
 58116  1  0  0  0  0
 58117  1  0  0  0  0
 59 60  1  0  0  0  0
 59119  1  0  0  0  0
 59120  1  0  0  0  0
M  END
> <PUBCHEM_COMPOUND_CID>
500567
> <PUBCHEM_COMPOUND_CANONICALIZED>
1
> <PUBCHEM_CACTVS_COMPLEXITY>
1510
> <PUBCHEM_CACTVS_HBOND_ACCEPTOR>
13
> <PUBCHEM_CACTVS_HBOND_DONOR>
9
> <PUBCHEM_CACTVS_ROTATABLE_BOND>
28
> <PUBCHEM_CACTVS_SUBSKEYS>
AAADcfB/vAAAAAAAAAAAAAAAAAAAAAAAAAAwAAAAAAAAAAABAAAAHgAQCAAADyjhmAYyCILAAgCIAinSmAACAAAgAAAIiIGIAIgIYDqAkTGUYAAmlgCIiAe/n4KPgAAAAAAQAAAAAAAAACAAAAAAAAAAAA==
> <PUBCHEM_IUPAC_OPENEYE_NAME>
(4S)-4-[[(2S)-3-carboxy-2-(3-carboxypropanoylamino)propanoyl]amino]-5-[[(1S)-2-[[(1S)-1-[[(1S)-1-(1-formylpentylcarbamoyl)-3-methyl-butyl]carbamoyl]-2,2-dimethyl-propyl]amino]-1-(o-tolylmethyl)-2-oxo-ethyl]amino]-5-oxo-pentanoic acid
> <PUBCHEM_IUPAC_CAS_NAME>
(4S)-4-[[(2S)-3-carboxy-2-[(3-carboxy-1-oxopropyl)amino]-1-oxopropyl]amino]-5-[[(2S)-1-[[(2S)-3,3-dimethyl-1-[[(2S)-4-methyl-1-oxo-1-(1-oxohexan-2-ylamino)pentan-2-yl]amino]-1-oxobutan-2-yl]amino]-3-(2-methylphenyl)-1-oxopropan-2-yl]amino]-5-oxopentanoic acid
> <PUBCHEM_IUPAC_NAME_MARKUP>
(4<I>S</I>)-4-[[(2<I>S</I>)-3-carboxy-2-(3-carboxypropanoylamino)propanoyl]amino]-5-[[(2<I>S</I>)-1-[[(2<I>S</I>)-3,3-dimethyl-1-[[(2<I>S</I>)-4-methyl-1-oxo-1-(1-oxohexan-2-ylamino)pentan-2-yl]amino]-1-oxobutan-2-yl]amino]-3-(2-methylphenyl)-1-oxopropan-2-yl]amino]-5-oxopentanoic acid
> <PUBCHEM_IUPAC_NAME>
(4S)-4-[[(2S)-3-carboxy-2-(3-carboxypropanoylamino)propanoyl]amino]-5-[[(2S)-1-[[(2S)-3,3-dimethyl-1-[[(2S)-4-methyl-1-oxo-1-(1-oxohexan-2-ylamino)pentan-2-yl]amino]-1-oxobutan-2-yl]amino]-3-(2-methylphenyl)-1-oxopropan-2-yl]amino]-5-oxopentanoic acid
> <PUBCHEM_IUPAC_SYSTEMATIC_NAME>
(4S)-5-[[(2S)-1-[[(2S)-3,3-dimethyl-1-[[(2S)-4-methyl-1-oxidanylidene-1-(1-oxidanylidenehexan-2-ylamino)pentan-2-yl]amino]-1-oxidanylidene-butan-2-yl]amino]-3-(2-methylphenyl)-1-oxidanylidene-propan-2-yl]amino]-5-oxidanylidene-4-[[(2S)-4-oxidanyl-4-oxidanylidene-2-[(4-oxidanyl-4-oxidanylidene-butanoyl)amino]butanoyl]amino]pentanoic acid
> <PUBCHEM_IUPAC_TRADITIONAL_NAME>
(4S)-4-[[(2S)-3-carboxy-2-(3-carboxypropanoylamino)propanoyl]amino]-5-[[(1S)-2-[[(1S)-1-[[(1S)-1-(1-formylpentylcarbamoyl)-3-methyl-butyl]carbamoyl]-2,2-dimethyl-propyl]amino]-2-keto-1-(2-methylbenzyl)ethyl]amino]-5-keto-valeric acid
> <PUBCHEM_IUPAC_INCHI>
InChI=1S/C41H62N6O13/c1-8-9-14-26(22-48)42-37(57)28(19-23(2)3)46-40(60)35(41(5,6)7)47-39(59)29(20-25-13-11-10-12-24(25)4)45-36(56)27(15-17-32(50)51)44-38(58)30(21-34(54)55)43-31(49)16-18-33(52)53/h10-13,22-23,26-30,35H,8-9,14-21H2,1-7H3,(H,42,57)(H,43,49)(H,44,58)(H,45,56)(H,46,60)(H,47,59)(H,50,51)(H,52,53)(H,54,55)/t26?,27-,28-,29-,30-,35+/m0/s1
> <PUBCHEM_IUPAC_INCHIKEY>
JNVSOXAVPXZJOV-HNZXQDQSSA-N
> <PUBCHEM_XLOGP3_AA>
2.3
> <PUBCHEM_EXACT_MASS>
846.43748605
> <PUBCHEM_MOLECULAR_FORMULA>
C41H62N6O13
> <PUBCHEM_MOLECULAR_WEIGHT>
847.0
> <PUBCHEM_OPENEYE_CAN_SMILES>
CCCCC(C=O)NC(=O)C(CC(C)C)NC(=O)C(C(C)(C)C)NC(=O)C(CC1=CC=CC=C1C)NC(=O)C(CCC(=O)O)NC(=O)C(CC(=O)O)NC(=O)CCC(=O)O
> <PUBCHEM_OPENEYE_ISO_SMILES>
CCCCC(C=O)NC(=O)[C@H](CC(C)C)NC(=O)[C@H](C(C)(C)C)NC(=O)[C@H](CC1=CC=CC=C1C)NC(=O)[C@H](CCC(=O)O)NC(=O)[C@H](CC(=O)O)NC(=O)CCC(=O)O
> <PUBCHEM_CACTVS_TPSA>
304
> <PUBCHEM_MONOISOTOPIC_WEIGHT>
846.43748605
> <PUBCHEM_TOTAL_CHARGE>
0
> <PUBCHEM_HEAVY_ATOM_COUNT>
60
> <PUBCHEM_ATOM_DEF_STEREO_COUNT>
5
> <PUBCHEM_ATOM_UDEF_STEREO_COUNT>
1
> <PUBCHEM_BOND_DEF_STEREO_COUNT>
0
> <PUBCHEM_BOND_UDEF_STEREO_COUNT>
0
> <PUBCHEM_ISOTOPIC_ATOM_COUNT>
0
> <PUBCHEM_COMPONENT_COUNT>
1
> <PUBCHEM_CACTVS_TAUTO_COUNT>
-1
> <PUBCHEM_COORDINATE_TYPE>
1
5
255
> <PUBCHEM_BONDANNOTATIONS>
21  14  6
26  15  5
29  16  5
37  18  5
51  19  6
35  39  3
36  42  8
36  43  8
42  47  8
43  50  8
47  52  8
50  52  8
$$$$
