500552
  -OEChem-10302200282D
127131  0     1  0  0  0  0  0999 V2000
   17.1275   -0.1314    0.0000 O   0  0  0  0  0  0  0  0  0  0  0  0
   15.7932    0.7686    0.0000 O   0  0  0  0  0  0  0  0  0  0  0  0
   14.4565   -2.6523    0.0000 O   0  0  0  0  0  0  0  0  0  0  0  0
   13.8555    0.2306    0.0000 O   0  0  0  0  0  0  0  0  0  0  0  0
   17.2075   -6.3172    0.0000 O   0  0  0  0  0  0  0  0  0  0  0  0
   11.0182    2.4555    0.0000 O   0  0  0  0  0  0  0  0  0  0  0  0
    7.6728    1.1108    0.0000 O   0  0  0  0  0  0  0  0  0  0  0  0
    6.2004    4.4020    0.0000 O   0  0  0  0  0  0  0  0  0  0  0  0
    6.9496    6.2564    0.0000 O   0  0  0  0  0  0  0  0  0  0  0  0
    8.5556    5.6076    0.0000 O   0  0  0  0  0  0  0  0  0  0  0  0
    2.6140    4.7725    0.0000 O   0  0  0  0  0  0  0  0  0  0  0  0
    2.8550    3.0573    0.0000 O   0  0  0  0  0  0  0  0  0  0  0  0
   14.5773   -0.9245    0.0000 N   0  0  0  0  0  0  0  0  0  0  0  0
   12.4906   -0.8357    0.0000 N   0  0  0  0  0  0  0  0  0  0  0  0
   11.2593    0.7403    0.0000 N   0  0  0  0  0  0  0  0  0  0  0  0
    9.0377    2.1772    0.0000 N   0  0  0  0  0  0  0  0  0  0  0  0
    6.4415    2.6868    0.0000 N   0  0  0  0  0  0  0  0  0  0  0  0
    4.4610    2.4085    0.0000 N   0  0  0  0  0  0  0  0  0  0  0  0
   18.6250    1.6892    0.0000 C   0  0  2  0  0  0  0  0  0  0  0  0
   20.0240    1.6980    0.0000 C   0  0  0  0  0  0  0  0  0  0  0  0
   18.8839    2.6551    0.0000 C   0  0  1  0  0  0  0  0  0  0  0  0
   17.4040    0.8235    0.0000 C   0  0  1  0  0  0  0  0  0  0  0  0
   18.1472    3.6377    0.0000 C   0  0  0  0  0  0  0  0  0  0  0  0
   16.8506    2.3440    0.0000 C   0  0  0  0  0  0  0  0  0  0  0  0
   16.5750    1.3827    0.0000 C   0  0  1  0  0  0  0  0  0  0  0  0
   20.8900    2.1980    0.0000 C   0  0  0  0  0  0  0  0  0  0  0  0
   20.5240    0.8320    0.0000 C   0  0  0  0  0  0  0  0  0  0  0  0
   18.2331    0.2643    0.0000 C   0  0  0  0  0  0  0  0  0  0  0  0
   15.5748   -0.9942    0.0000 C   0  0  1  0  0  0  0  0  0  0  0  0
   16.0132   -1.8930    0.0000 C   0  0  0  0  0  0  0  0  0  0  0  0
   15.4540   -2.7221    0.0000 C   0  0  0  0  0  0  0  0  0  0  0  0
   14.0181   -1.7535    0.0000 C   0  0  0  0  0  0  0  0  0  0  0  0
   13.0205   -1.6838    0.0000 C   0  0  2  0  0  0  0  0  0  0  0  0
   15.8924   -3.6209    0.0000 C   0  0  0  0  0  0  0  0  0  0  0  0
   12.3777   -2.4498    0.0000 C   0  0  0  0  0  0  0  0  0  0  0  0
   11.4505   -2.0752    0.0000 C   0  0  0  0  0  0  0  0  0  0  0  0
   11.5203   -1.0776    0.0000 C   0  0  0  0  0  0  0  0  0  0  0  0
   16.8900   -3.6906    0.0000 C   0  0  0  0  0  0  0  0  0  0  0  0
   15.3332   -4.4499    0.0000 C   0  0  0  0  0  0  0  0  0  0  0  0
   12.8652    0.0915    0.0000 C   0  0  0  0  0  0  0  0  0  0  0  0
   17.3283   -4.5894    0.0000 C   0  0  0  0  0  0  0  0  0  0  0  0
   15.7716   -5.3487    0.0000 C   0  0  0  0  0  0  0  0  0  0  0  0
   12.2495    0.8795    0.0000 C   0  0  2  0  0  0  0  0  0  0  0  0
   16.7691   -5.4184    0.0000 C   0  0  0  0  0  0  0  0  0  0  0  0
   12.6242    1.8067    0.0000 C   0  0  0  0  0  0  0  0  0  0  0  0
   12.0085    2.5947    0.0000 C   0  0  0  0  0  0  0  0  0  0  0  0
   13.6144    1.9458    0.0000 C   0  0  0  0  0  0  0  0  0  0  0  0
   10.6436    1.5283    0.0000 C   0  0  0  0  0  0  0  0  0  0  0  0
    9.6534    1.3892    0.0000 C   0  0  2  0  0  0  0  0  0  0  0  0
    9.2787    0.4620    0.0000 C   0  0  0  0  0  0  0  0  0  0  0  0
    8.2885    0.3228    0.0000 C   0  0  0  0  0  0  0  0  0  0  0  0
    9.8944   -0.3260    0.0000 C   0  0  0  0  0  0  0  0  0  0  0  0
    8.0474    2.0380    0.0000 C   0  0  0  0  0  0  0  0  0  0  0  0
    7.4318    2.8260    0.0000 C   0  0  2  0  0  0  0  0  0  0  0  0
    7.8064    3.7532    0.0000 C   0  0  0  0  0  0  0  0  0  0  0  0
    7.1907    4.5412    0.0000 C   0  0  0  0  0  0  0  0  0  0  0  0
    5.8258    3.4748    0.0000 C   0  0  0  0  0  0  0  0  0  0  0  0
    4.8356    3.3357    0.0000 C   0  0  2  0  0  0  0  0  0  0  0  0
    7.5653    5.4684    0.0000 C   0  0  0  0  0  0  0  0  0  0  0  0
    4.2199    4.1237    0.0000 C   0  0  0  0  0  0  0  0  0  0  0  0
    3.2296    3.9845    0.0000 C   0  0  0  0  0  0  0  0  0  0  0  0
   16.1340   -0.1652    0.0000 B   0  0  0  0  0  0  0  0  0  0  0  0
   18.4050    0.8681    0.0000 H   0  0  0  0  0  0  0  0  0  0  0  0
   19.1039    3.4761    0.0000 H   0  0  0  0  0  0  0  0  0  0  0  0
   18.4650    4.1700    0.0000 H   0  0  0  0  0  0  0  0  0  0  0  0
   17.5341    3.7296    0.0000 H   0  0  0  0  0  0  0  0  0  0  0  0
   16.8456    2.9639    0.0000 H   0  0  0  0  0  0  0  0  0  0  0  0
   16.2363    2.4277    0.0000 H   0  0  0  0  0  0  0  0  0  0  0  0
   15.8703    1.8580    0.0000 H   0  0  0  0  0  0  0  0  0  0  0  0
   21.2000    1.6610    0.0000 H   0  0  0  0  0  0  0  0  0  0  0  0
   21.4269    2.5080    0.0000 H   0  0  0  0  0  0  0  0  0  0  0  0
   20.5800    2.7349    0.0000 H   0  0  0  0  0  0  0  0  0  0  0  0
   19.9870    0.5220    0.0000 H   0  0  0  0  0  0  0  0  0  0  0  0
   20.8340    0.2950    0.0000 H   0  0  0  0  0  0  0  0  0  0  0  0
   21.0609    1.1420    0.0000 H   0  0  0  0  0  0  0  0  0  0  0  0
   17.8864   -0.2497    0.0000 H   0  0  0  0  0  0  0  0  0  0  0  0
   18.7471   -0.0824    0.0000 H   0  0  0  0  0  0  0  0  0  0  0  0
   18.5798    0.7783    0.0000 H   0  0  0  0  0  0  0  0  0  0  0  0
   15.2281   -1.5082    0.0000 H   0  0  0  0  0  0  0  0  0  0  0  0
   16.4592   -2.3237    0.0000 H   0  0  0  0  0  0  0  0  0  0  0  0
   16.5148   -1.5286    0.0000 H   0  0  0  0  0  0  0  0  0  0  0  0
   14.3055   -0.3672    0.0000 H   0  0  0  0  0  0  0  0  0  0  0  0
   15.0080   -2.2914    0.0000 H   0  0  0  0  0  0  0  0  0  0  0  0
   14.9524   -3.0865    0.0000 H   0  0  0  0  0  0  0  0  0  0  0  0
   13.3398   -1.1523    0.0000 H   0  0  0  0  0  0  0  0  0  0  0  0
   12.0867   -2.9972    0.0000 H   0  0  0  0  0  0  0  0  0  0  0  0
   12.8917   -2.7965    0.0000 H   0  0  0  0  0  0  0  0  0  0  0  0
   10.8400   -1.9675    0.0000 H   0  0  0  0  0  0  0  0  0  0  0  0
   11.2797   -2.6712    0.0000 H   0  0  0  0  0  0  0  0  0  0  0  0
   11.4340   -0.4637    0.0000 H   0  0  0  0  0  0  0  0  0  0  0  0
   10.9007   -1.0993    0.0000 H   0  0  0  0  0  0  0  0  0  0  0  0
   17.2367   -3.1766    0.0000 H   0  0  0  0  0  0  0  0  0  0  0  0
   14.7147   -4.4066    0.0000 H   0  0  0  0  0  0  0  0  0  0  0  0
   17.9468   -4.6327    0.0000 H   0  0  0  0  0  0  0  0  0  0  0  0
   15.4249   -5.8627    0.0000 H   0  0  0  0  0  0  0  0  0  0  0  0
   11.8678    1.3680    0.0000 H   0  0  0  0  0  0  0  0  0  0  0  0
   13.0059    1.3181    0.0000 H   0  0  0  0  0  0  0  0  0  0  0  0
   11.0270    0.1655    0.0000 H   0  0  0  0  0  0  0  0  0  0  0  0
   16.8608   -6.8312    0.0000 H   0  0  0  0  0  0  0  0  0  0  0  0
   12.4971    2.9764    0.0000 H   0  0  0  0  0  0  0  0  0  0  0  0
   11.6268    3.0832    0.0000 H   0  0  0  0  0  0  0  0  0  0  0  0
   11.5199    2.2130    0.0000 H   0  0  0  0  0  0  0  0  0  0  0  0
   13.7007    1.3319    0.0000 H   0  0  0  0  0  0  0  0  0  0  0  0
   14.2284    2.0321    0.0000 H   0  0  0  0  0  0  0  0  0  0  0  0
   13.5281    2.5598    0.0000 H   0  0  0  0  0  0  0  0  0  0  0  0
    9.8856    1.9640    0.0000 H   0  0  0  0  0  0  0  0  0  0  0  0
    8.8970    0.9505    0.0000 H   0  0  0  0  0  0  0  0  0  0  0  0
    9.2699    2.7520    0.0000 H   0  0  0  0  0  0  0  0  0  0  0  0
    8.2022    0.9368    0.0000 H   0  0  0  0  0  0  0  0  0  0  0  0
    7.6745    0.2365    0.0000 H   0  0  0  0  0  0  0  0  0  0  0  0
    8.3748   -0.2912    0.0000 H   0  0  0  0  0  0  0  0  0  0  0  0
    9.4058   -0.7078    0.0000 H   0  0  0  0  0  0  0  0  0  0  0  0
   10.2761   -0.8146    0.0000 H   0  0  0  0  0  0  0  0  0  0  0  0
   10.3830    0.0557    0.0000 H   0  0  0  0  0  0  0  0  0  0  0  0
    7.1995    2.2512    0.0000 H   0  0  0  0  0  0  0  0  0  0  0  0
    8.3322    3.4246    0.0000 H   0  0  0  0  0  0  0  0  0  0  0  0
    8.2212    4.2139    0.0000 H   0  0  0  0  0  0  0  0  0  0  0  0
    6.2092    2.1120    0.0000 H   0  0  0  0  0  0  0  0  0  0  0  0
    6.6649    4.8697    0.0000 H   0  0  0  0  0  0  0  0  0  0  0  0
    6.7758    4.0804    0.0000 H   0  0  0  0  0  0  0  0  0  0  0  0
    4.2216    3.2494    0.0000 H   0  0  0  0  0  0  0  0  0  0  0  0
    4.7673    4.4148    0.0000 H   0  0  0  0  0  0  0  0  0  0  0  0
    4.0283    4.7133    0.0000 H   0  0  0  0  0  0  0  0  0  0  0  0
    3.8470    2.3222    0.0000 H   0  0  0  0  0  0  0  0  0  0  0  0
    4.8427    1.9199    0.0000 H   0  0  0  0  0  0  0  0  0  0  0  0
    7.1819    6.8312    0.0000 H   0  0  0  0  0  0  0  0  0  0  0  0
    2.0000    4.6862    0.0000 H   0  0  0  0  0  0  0  0  0  0  0  0
  1 22  1  0  0  0  0
  1 62  1  0  0  0  0
  2 25  1  0  0  0  0
  2 62  1  0  0  0  0
  3 32  2  0  0  0  0
  4 40  2  0  0  0  0
  5 44  1  0  0  0  0
  5 99  1  0  0  0  0
  6 48  2  0  0  0  0
  7 53  2  0  0  0  0
  8 57  2  0  0  0  0
  9 59  1  0  0  0  0
  9126  1  0  0  0  0
 10 59  2  0  0  0  0
 11 61  1  0  0  0  0
 11127  1  0  0  0  0
 12 61  2  0  0  0  0
 29 13  1  6  0  0  0
 13 32  1  0  0  0  0
 13 82  1  0  0  0  0
 14 33  1  0  0  0  0
 14 37  1  0  0  0  0
 14 40  1  0  0  0  0
 43 15  1  1  0  0  0
 15 48  1  0  0  0  0
 15 98  1  0  0  0  0
 49 16  1  6  0  0  0
 16 53  1  0  0  0  0
 16108  1  0  0  0  0
 54 17  1  1  0  0  0
 17 57  1  0  0  0  0
 17118  1  0  0  0  0
 58 18  1  1  0  0  0
 18124  1  0  0  0  0
 18125  1  0  0  0  0
 19 20  1  0  0  0  0
 19 22  1  0  0  0  0
 19 23  1  0  0  0  0
 19 63  1  1  0  0  0
 20 21  1  0  0  0  0
 20 26  1  0  0  0  0
 20 27  1  0  0  0  0
 21 23  1  0  0  0  0
 21 24  1  0  0  0  0
 21 64  1  1  0  0  0
 22 25  1  0  0  0  0
 22 28  1  1  0  0  0
 23 65  1  0  0  0  0
 23 66  1  0  0  0  0
 24 25  1  0  0  0  0
 24 67  1  0  0  0  0
 24 68  1  0  0  0  0
 25 69  1  1  0  0  0
 26 70  1  0  0  0  0
 26 71  1  0  0  0  0
 26 72  1  0  0  0  0
 27 73  1  0  0  0  0
 27 74  1  0  0  0  0
 27 75  1  0  0  0  0
 28 76  1  0  0  0  0
 28 77  1  0  0  0  0
 28 78  1  0  0  0  0
 29 30  1  0  0  0  0
 29 62  1  0  0  0  0
 29 79  1  0  0  0  0
 30 31  1  0  0  0  0
 30 80  1  0  0  0  0
 30 81  1  0  0  0  0
 31 34  1  0  0  0  0
 31 83  1  0  0  0  0
 31 84  1  0  0  0  0
 33 32  1  6  0  0  0
 33 35  1  0  0  0  0
 33 85  1  0  0  0  0
 34 38  2  0  0  0  0
 34 39  1  0  0  0  0
 35 36  1  0  0  0  0
 35 86  1  0  0  0  0
 35 87  1  0  0  0  0
 36 37  1  0  0  0  0
 36 88  1  0  0  0  0
 36 89  1  0  0  0  0
 37 90  1  0  0  0  0
 37 91  1  0  0  0  0
 38 41  1  0  0  0  0
 38 92  1  0  0  0  0
 39 42  2  0  0  0  0
 39 93  1  0  0  0  0
 40 43  1  0  0  0  0
 41 44  2  0  0  0  0
 41 94  1  0  0  0  0
 42 44  1  0  0  0  0
 42 95  1  0  0  0  0
 43 45  1  0  0  0  0
 43 96  1  0  0  0  0
 45 46  1  0  0  0  0
 45 47  1  0  0  0  0
 45 97  1  0  0  0  0
 46100  1  0  0  0  0
 46101  1  0  0  0  0
 46102  1  0  0  0  0
 47103  1  0  0  0  0
 47104  1  0  0  0  0
 47105  1  0  0  0  0
 48 49  1  0  0  0  0
 49 50  1  0  0  0  0
 49106  1  0  0  0  0
 50 51  1  0  0  0  0
 50 52  1  0  0  0  0
 50107  1  0  0  0  0
 51109  1  0  0  0  0
 51110  1  0  0  0  0
 51111  1  0  0  0  0
 52112  1  0  0  0  0
 52113  1  0  0  0  0
 52114  1  0  0  0  0
 53 54  1  0  0  0  0
 54 55  1  0  0  0  0
 54115  1  0  0  0  0
 55 56  1  0  0  0  0
 55116  1  0  0  0  0
 55117  1  0  0  0  0
 56 59  1  0  0  0  0
 56119  1  0  0  0  0
 56120  1  0  0  0  0
 57 58  1  0  0  0  0
 58 60  1  0  0  0  0
 58121  1  0  0  0  0
 60 61  1  0  0  0  0
 60122  1  0  0  0  0
 60123  1  0  0  0  0
M  END
> <PUBCHEM_COMPOUND_CID>
500552
> <PUBCHEM_COMPOUND_CANONICALIZED>
1
> <PUBCHEM_CACTVS_COMPLEXITY>
1670
> <PUBCHEM_CACTVS_HBOND_ACCEPTOR>
13
> <PUBCHEM_CACTVS_HBOND_DONOR>
8
> <PUBCHEM_CACTVS_ROTATABLE_BOND>
20
> <PUBCHEM_CACTVS_SUBSKEYS>
AAADcfJ/vAAAAAAAAAAAAAAAAABgAWJAAAAwYMAAAAAAAEgBAAAoHgAQCAAAD3zhmAYyDoPAAgCIAiHSGAACAAAgIAAIiIGOCIgJZjqCkTKUcAAm1hGImAe/1/IPoAAAAAAAAADAAAYAADCAAAAAAAAAAA==
> <PUBCHEM_IUPAC_OPENEYE_NAME>
(4S)-4-[[(2S)-2-amino-3-carboxy-propanoyl]amino]-5-[[(1S)-1-[[(1S)-1-[(2S)-2-[[(1R)-3-(4-hydroxyphenyl)-1-[(1R,2S,6R,8S)-2,9,9-trimethyl-3,5-dioxa-4-boratricyclo[6.1.1.02,6]decan-4-yl]propyl]carbamoyl]pyrrolidine-1-carbonyl]-2-methyl-propyl]carbamoyl]-2-methyl-propyl]amino]-5-oxo-pentanoic acid
> <PUBCHEM_IUPAC_CAS_NAME>
(4S)-4-[[(2S)-2-amino-3-carboxy-1-oxopropyl]amino]-5-[[(2S)-1-[[(2S)-1-[(2S)-2-[[[(1R)-3-(4-hydroxyphenyl)-1-[(1R,2S,6R,8S)-2,9,9-trimethyl-3,5-dioxa-4-boratricyclo[6.1.1.02,6]decan-4-yl]propyl]amino]-oxomethyl]-1-pyrrolidinyl]-3-methyl-1-oxobutan-2-yl]amino]-3-methyl-1-oxobutan-2-yl]amino]-5-oxopentanoic acid
> <PUBCHEM_IUPAC_NAME_MARKUP>
(4<I>S</I>)-4-[[(2<I>S</I>)-2-amino-3-carboxypropanoyl]amino]-5-[[(2<I>S</I>)-1-[[(2<I>S</I>)-1-[(2<I>S</I>)-2-[[(1<I>R</I>)-3-(4-hydroxyphenyl)-1-[(1<I>R</I>,2<I>S</I>,6<I>R</I>,8<I>S</I>)-2,9,9-trimethyl-3,5-dioxa-4-boratricyclo[6.1.1.0<SUP>2,6</SUP>]decan-4-yl]propyl]carbamoyl]pyrrolidin-1-yl]-3-methyl-1-oxobutan-2-yl]amino]-3-methyl-1-oxobutan-2-yl]amino]-5-oxopentanoic acid
> <PUBCHEM_IUPAC_NAME>
(4S)-4-[[(2S)-2-amino-3-carboxypropanoyl]amino]-5-[[(2S)-1-[[(2S)-1-[(2S)-2-[[(1R)-3-(4-hydroxyphenyl)-1-[(1R,2S,6R,8S)-2,9,9-trimethyl-3,5-dioxa-4-boratricyclo[6.1.1.02,6]decan-4-yl]propyl]carbamoyl]pyrrolidin-1-yl]-3-methyl-1-oxobutan-2-yl]amino]-3-methyl-1-oxobutan-2-yl]amino]-5-oxopentanoic acid
> <PUBCHEM_IUPAC_SYSTEMATIC_NAME>
(4S)-4-[[(2S)-2-azanyl-4-oxidanyl-4-oxidanylidene-butanoyl]amino]-5-[[(2S)-1-[[(2S)-1-[(2S)-2-[[(1R)-3-(4-hydroxyphenyl)-1-[(1R,2S,6R,8S)-2,9,9-trimethyl-3,5-dioxa-4-boratricyclo[6.1.1.02,6]decan-4-yl]propyl]carbamoyl]pyrrolidin-1-yl]-3-methyl-1-oxidanylidene-butan-2-yl]amino]-3-methyl-1-oxidanylidene-butan-2-yl]amino]-5-oxidanylidene-pentanoic acid
> <PUBCHEM_IUPAC_TRADITIONAL_NAME>
(4S)-4-[[(2S)-2-amino-3-carboxy-propanoyl]amino]-5-[[(1S)-1-[[(1S)-1-[(2S)-2-[[(1R)-3-(4-hydroxyphenyl)-1-[(1R,2S,6R,8S)-2,9,9-trimethyl-3,5-dioxa-4-boratricyclo[6.1.1.02,6]decan-4-yl]propyl]carbamoyl]pyrrolidine-1-carbonyl]-2-methyl-propyl]carbamoyl]-2-methyl-propyl]amino]-5-keto-valeric acid
> <PUBCHEM_IUPAC_INCHI>
InChI=1S/C43H65BN6O12/c1-22(2)35(48-38(57)28(15-17-33(52)53)46-37(56)27(45)21-34(54)55)40(59)49-36(23(3)4)41(60)50-18-8-9-29(50)39(58)47-32(16-12-24-10-13-26(51)14-11-24)44-61-31-20-25-19-30(42(25,5)6)43(31,7)62-44/h10-11,13-14,22-23,25,27-32,35-36,51H,8-9,12,15-21,45H2,1-7H3,(H,46,56)(H,47,58)(H,48,57)(H,49,59)(H,52,53)(H,54,55)/t25-,27-,28-,29-,30+,31+,32-,35-,36-,43-/m0/s1
> <PUBCHEM_IUPAC_INCHIKEY>
KVKFNRODEGEMQZ-LHWUUHGHSA-N
> <PUBCHEM_EXACT_MASS>
868.4753517
> <PUBCHEM_MOLECULAR_FORMULA>
C43H65BN6O12
> <PUBCHEM_MOLECULAR_WEIGHT>
868.8
> <PUBCHEM_OPENEYE_CAN_SMILES>
B1(OC2CC3CC(C3(C)C)C2(O1)C)C(CCC4=CC=C(C=C4)O)NC(=O)C5CCCN5C(=O)C(C(C)C)NC(=O)C(C(C)C)NC(=O)C(CCC(=O)O)NC(=O)C(CC(=O)O)N
> <PUBCHEM_OPENEYE_ISO_SMILES>
B1(O[C@@H]2C[C@@H]3C[C@@H]([C@@]2(O1)C)C3(C)C)[C@H](CCC4=CC=C(C=C4)O)NC(=O)[C@@H]5CCCN5C(=O)[C@H](C(C)C)NC(=O)[C@H](C(C)C)NC(=O)[C@H](CCC(=O)O)NC(=O)[C@H](CC(=O)O)N
> <PUBCHEM_CACTVS_TPSA>
276
> <PUBCHEM_MONOISOTOPIC_WEIGHT>
868.4753517
> <PUBCHEM_TOTAL_CHARGE>
0
> <PUBCHEM_HEAVY_ATOM_COUNT>
62
> <PUBCHEM_ATOM_DEF_STEREO_COUNT>
10
> <PUBCHEM_ATOM_UDEF_STEREO_COUNT>
0
> <PUBCHEM_BOND_DEF_STEREO_COUNT>
0
> <PUBCHEM_BOND_UDEF_STEREO_COUNT>
0
> <PUBCHEM_ISOTOPIC_ATOM_COUNT>
0
> <PUBCHEM_COMPONENT_COUNT>
1
> <PUBCHEM_CACTVS_TAUTO_COUNT>
-1
> <PUBCHEM_COORDINATE_TYPE>
1
5
255
> <PUBCHEM_BONDANNOTATIONS>
29  13  6
43  15  5
49  16  6
54  17  5
58  18  5
19  63  5
21  64  5
22  28  5
25  69  5
33  32  6
34  38  8
34  39  8
38  41  8
39  42  8
41  44  8
42  44  8
$$$$
