500561
  -OEChem-10302200282D
120121  0     1  0  0  0  0  0999 V2000
    4.5981   -0.1550    0.0000 O   0  0  0  0  0  0  0  0  0  0  0  0
    8.0622   -1.1550    0.0000 O   0  0  0  0  0  0  0  0  0  0  0  0
    3.7320    3.3450    0.0000 O   0  0  0  0  0  0  0  0  0  0  0  0
    8.9282   -1.6550    0.0000 O   0  0  0  0  0  0  0  0  0  0  0  0
    6.3301    5.8450    0.0000 O   0  0  0  0  0  0  0  0  0  0  0  0
    7.1962    4.3450    0.0000 O   0  0  0  0  0  0  0  0  0  0  0  0
   11.5263   -4.1550    0.0000 O   0  0  0  0  0  0  0  0  0  0  0  0
   13.2583   -1.1550    0.0000 O   0  0  0  0  0  0  0  0  0  0  0  0
   11.5263   -1.1550    0.0000 O   0  0  0  0  0  0  0  0  0  0  0  0
   14.9904   -3.1550    0.0000 O   0  0  0  0  0  0  0  0  0  0  0  0
   14.1244   -1.6550    0.0000 O   0  0  0  0  0  0  0  0  0  0  0  0
    6.3301   -1.1550    0.0000 N   0  0  0  0  0  0  0  0  0  0  0  0
    5.4641    1.3450    0.0000 N   0  0  0  0  0  0  0  0  0  0  0  0
    8.0622   -3.1550    0.0000 N   0  0  0  0  0  0  0  0  0  0  0  0
    5.4641    3.3450    0.0000 N   0  0  0  0  0  0  0  0  0  0  0  0
   10.6603   -2.6550    0.0000 N   0  0  0  0  0  0  0  0  0  0  0  0
   13.2583   -3.1550    0.0000 N   0  0  0  0  0  0  0  0  0  0  0  0
    7.1962    0.3450    0.0000 C   0  0  0  0  0  0  0  0  0  0  0  0
    6.3301   -0.1550    0.0000 C   0  0  1  0  0  0  0  0  0  0  0  0
    8.0622    0.8450    0.0000 C   0  0  0  0  0  0  0  0  0  0  0  0
    6.6962    1.2110    0.0000 C   0  0  0  0  0  0  0  0  0  0  0  0
    7.6962   -0.5210    0.0000 C   0  0  0  0  0  0  0  0  0  0  0  0
    5.4641    0.3450    0.0000 C   0  0  0  0  0  0  0  0  0  0  0  0
    4.5981    1.8450    0.0000 C   0  0  1  0  0  0  0  0  0  0  0  0
    3.7320    1.3450    0.0000 C   0  0  0  0  0  0  0  0  0  0  0  0
    7.1962   -2.6550    0.0000 C   0  0  2  0  0  0  0  0  0  0  0  0
    7.1962   -1.6550    0.0000 C   0  0  0  0  0  0  0  0  0  0  0  0
    2.8660    1.8450    0.0000 C   0  0  0  0  0  0  0  0  0  0  0  0
    6.3301   -3.1550    0.0000 C   0  0  0  0  0  0  0  0  0  0  0  0
    4.5981    2.8450    0.0000 C   0  0  0  0  0  0  0  0  0  0  0  0
    9.7942   -3.1550    0.0000 C   0  0  2  0  0  0  0  0  0  0  0  0
    9.7942   -4.1550    0.0000 C   0  0  0  0  0  0  0  0  0  0  0  0
    2.0000    1.3450    0.0000 C   0  0  0  0  0  0  0  0  0  0  0  0
    2.8660    2.8450    0.0000 C   0  0  0  0  0  0  0  0  0  0  0  0
    8.9282   -2.6550    0.0000 C   0  0  0  0  0  0  0  0  0  0  0  0
    6.3301   -4.1550    0.0000 C   0  0  0  0  0  0  0  0  0  0  0  0
    5.4641    4.3450    0.0000 C   0  0  3  0  0  0  0  0  0  0  0  0
    5.4641   -4.6550    0.0000 C   0  0  0  0  0  0  0  0  0  0  0  0
   10.6603   -4.6550    0.0000 C   0  0  0  0  0  0  0  0  0  0  0  0
    8.9282   -4.6550    0.0000 C   0  0  0  0  0  0  0  0  0  0  0  0
    7.1962   -4.6550    0.0000 C   0  0  0  0  0  0  0  0  0  0  0  0
    4.5981    4.8450    0.0000 C   0  0  0  0  0  0  0  0  0  0  0  0
   11.5263   -3.1550    0.0000 C   0  0  0  0  0  0  0  0  0  0  0  0
    5.4641   -5.6550    0.0000 C   0  0  0  0  0  0  0  0  0  0  0  0
    4.5981   -4.1550    0.0000 C   0  0  0  0  0  0  0  0  0  0  0  0
    7.1962   -5.6550    0.0000 C   0  0  0  0  0  0  0  0  0  0  0  0
    4.5981    5.8450    0.0000 C   0  0  0  0  0  0  0  0  0  0  0  0
    6.3301   -6.1550    0.0000 C   0  0  0  0  0  0  0  0  0  0  0  0
   12.3923   -2.6550    0.0000 C   0  0  2  0  0  0  0  0  0  0  0  0
   12.3923   -1.6550    0.0000 C   0  0  0  0  0  0  0  0  0  0  0  0
   14.1244   -2.6550    0.0000 C   0  0  0  0  0  0  0  0  0  0  0  0
   15.8564   -2.6550    0.0000 C   0  0  0  0  0  0  0  0  0  0  0  0
   16.7224   -3.1550    0.0000 C   0  0  0  0  0  0  0  0  0  0  0  0
   17.5885   -2.6550    0.0000 C   0  0  0  0  0  0  0  0  0  0  0  0
   16.7224   -4.1550    0.0000 C   0  0  0  0  0  0  0  0  0  0  0  0
   18.4545   -3.1550    0.0000 C   0  0  0  0  0  0  0  0  0  0  0  0
   17.5885   -4.6550    0.0000 C   0  0  0  0  0  0  0  0  0  0  0  0
   18.4545   -4.1550    0.0000 C   0  0  0  0  0  0  0  0  0  0  0  0
    6.3301    4.8450    0.0000 B   0  0  0  0  0  0  0  0  0  0  0  0
    6.8671   -0.4650    0.0000 H   0  0  0  0  0  0  0  0  0  0  0  0
    8.3722    0.3081    0.0000 H   0  0  0  0  0  0  0  0  0  0  0  0
    8.5991    1.1550    0.0000 H   0  0  0  0  0  0  0  0  0  0  0  0
    7.7522    1.3819    0.0000 H   0  0  0  0  0  0  0  0  0  0  0  0
    7.2331    1.5210    0.0000 H   0  0  0  0  0  0  0  0  0  0  0  0
    6.3862    1.7480    0.0000 H   0  0  0  0  0  0  0  0  0  0  0  0
    6.1592    0.9010    0.0000 H   0  0  0  0  0  0  0  0  0  0  0  0
    7.1592   -0.8310    0.0000 H   0  0  0  0  0  0  0  0  0  0  0  0
    8.0062   -1.0580    0.0000 H   0  0  0  0  0  0  0  0  0  0  0  0
    8.2331   -0.2110    0.0000 H   0  0  0  0  0  0  0  0  0  0  0  0
    5.7932   -1.4650    0.0000 H   0  0  0  0  0  0  0  0  0  0  0  0
    4.5981    1.2250    0.0000 H   0  0  0  0  0  0  0  0  0  0  0  0
    3.3335    0.8701    0.0000 H   0  0  0  0  0  0  0  0  0  0  0  0
    4.1306    0.8701    0.0000 H   0  0  0  0  0  0  0  0  0  0  0  0
    6.0010    1.6550    0.0000 H   0  0  0  0  0  0  0  0  0  0  0  0
    7.7331   -2.3450    0.0000 H   0  0  0  0  0  0  0  0  0  0  0  0
    2.8660    1.2250    0.0000 H   0  0  0  0  0  0  0  0  0  0  0  0
    6.1181   -2.5724    0.0000 H   0  0  0  0  0  0  0  0  0  0  0  0
    5.7196   -3.2627    0.0000 H   0  0  0  0  0  0  0  0  0  0  0  0
    8.0622   -3.7750    0.0000 H   0  0  0  0  0  0  0  0  0  0  0  0
    9.7942   -2.5350    0.0000 H   0  0  0  0  0  0  0  0  0  0  0  0
    9.2573   -3.8450    0.0000 H   0  0  0  0  0  0  0  0  0  0  0  0
    1.6900    1.8819    0.0000 H   0  0  0  0  0  0  0  0  0  0  0  0
    1.4631    1.0350    0.0000 H   0  0  0  0  0  0  0  0  0  0  0  0
    2.3100    0.8081    0.0000 H   0  0  0  0  0  0  0  0  0  0  0  0
    3.4860    2.8450    0.0000 H   0  0  0  0  0  0  0  0  0  0  0  0
    2.8660    3.4650    0.0000 H   0  0  0  0  0  0  0  0  0  0  0  0
    2.2460    2.8450    0.0000 H   0  0  0  0  0  0  0  0  0  0  0  0
    6.0010    3.0350    0.0000 H   0  0  0  0  0  0  0  0  0  0  0  0
    4.9272    4.0350    0.0000 H   0  0  0  0  0  0  0  0  0  0  0  0
   10.6603   -2.0350    0.0000 H   0  0  0  0  0  0  0  0  0  0  0  0
   10.3503   -5.1919    0.0000 H   0  0  0  0  0  0  0  0  0  0  0  0
   11.1972   -4.9650    0.0000 H   0  0  0  0  0  0  0  0  0  0  0  0
   10.9703   -4.1181    0.0000 H   0  0  0  0  0  0  0  0  0  0  0  0
    8.6182   -4.1181    0.0000 H   0  0  0  0  0  0  0  0  0  0  0  0
    8.3913   -4.9650    0.0000 H   0  0  0  0  0  0  0  0  0  0  0  0
    9.2382   -5.1919    0.0000 H   0  0  0  0  0  0  0  0  0  0  0  0
    7.7331   -4.3450    0.0000 H   0  0  0  0  0  0  0  0  0  0  0  0
    3.9875    4.9527    0.0000 H   0  0  0  0  0  0  0  0  0  0  0  0
    4.3860    4.2624    0.0000 H   0  0  0  0  0  0  0  0  0  0  0  0
    4.9272   -5.9650    0.0000 H   0  0  0  0  0  0  0  0  0  0  0  0
    4.9081   -3.6181    0.0000 H   0  0  0  0  0  0  0  0  0  0  0  0
    4.0611   -3.8450    0.0000 H   0  0  0  0  0  0  0  0  0  0  0  0
    4.2881   -4.6919    0.0000 H   0  0  0  0  0  0  0  0  0  0  0  0
    7.7331   -5.9650    0.0000 H   0  0  0  0  0  0  0  0  0  0  0  0
    5.2181    5.8450    0.0000 H   0  0  0  0  0  0  0  0  0  0  0  0
    4.5981    6.4650    0.0000 H   0  0  0  0  0  0  0  0  0  0  0  0
    3.9781    5.8450    0.0000 H   0  0  0  0  0  0  0  0  0  0  0  0
    6.3301   -6.7750    0.0000 H   0  0  0  0  0  0  0  0  0  0  0  0
   12.3923   -3.2750    0.0000 H   0  0  0  0  0  0  0  0  0  0  0  0
   13.2583   -3.7750    0.0000 H   0  0  0  0  0  0  0  0  0  0  0  0
    6.8671    6.1550    0.0000 H   0  0  0  0  0  0  0  0  0  0  0  0
    7.7331    4.6550    0.0000 H   0  0  0  0  0  0  0  0  0  0  0  0
   13.2583   -0.5350    0.0000 H   0  0  0  0  0  0  0  0  0  0  0  0
   16.2549   -2.1800    0.0000 H   0  0  0  0  0  0  0  0  0  0  0  0
   15.4579   -2.1800    0.0000 H   0  0  0  0  0  0  0  0  0  0  0  0
   17.5885   -2.0350    0.0000 H   0  0  0  0  0  0  0  0  0  0  0  0
   16.1855   -4.4650    0.0000 H   0  0  0  0  0  0  0  0  0  0  0  0
   18.9914   -2.8450    0.0000 H   0  0  0  0  0  0  0  0  0  0  0  0
   17.5885   -5.2750    0.0000 H   0  0  0  0  0  0  0  0  0  0  0  0
   18.9914   -4.4650    0.0000 H   0  0  0  0  0  0  0  0  0  0  0  0
  1 23  2  0  0  0  0
  2 27  2  0  0  0  0
  3 30  2  0  0  0  0
  4 35  2  0  0  0  0
  5 59  1  0  0  0  0
  5111  1  0  0  0  0
  6 59  1  0  0  0  0
  6112  1  0  0  0  0
  7 43  2  0  0  0  0
  8 50  1  0  0  0  0
  8113  1  0  0  0  0
  9 50  2  0  0  0  0
 10 51  1  0  0  0  0
 10 52  1  0  0  0  0
 11 51  2  0  0  0  0
 19 12  1  6  0  0  0
 12 27  1  0  0  0  0
 12 70  1  0  0  0  0
 13 23  1  0  0  0  0
 24 13  1  1  0  0  0
 13 74  1  0  0  0  0
 26 14  1  1  0  0  0
 14 35  1  0  0  0  0
 14 79  1  0  0  0  0
 15 30  1  0  0  0  0
 15 37  1  0  0  0  0
 15 88  1  0  0  0  0
 31 16  1  6  0  0  0
 16 43  1  0  0  0  0
 16 90  1  0  0  0  0
 49 17  1  6  0  0  0
 17 51  1  0  0  0  0
 17110  1  0  0  0  0
 18 19  1  0  0  0  0
 18 20  1  0  0  0  0
 18 21  1  0  0  0  0
 18 22  1  0  0  0  0
 19 23  1  0  0  0  0
 19 60  1  0  0  0  0
 20 61  1  0  0  0  0
 20 62  1  0  0  0  0
 20 63  1  0  0  0  0
 21 64  1  0  0  0  0
 21 65  1  0  0  0  0
 21 66  1  0  0  0  0
 22 67  1  0  0  0  0
 22 68  1  0  0  0  0
 22 69  1  0  0  0  0
 24 25  1  0  0  0  0
 24 30  1  0  0  0  0
 24 71  1  0  0  0  0
 25 28  1  0  0  0  0
 25 72  1  0  0  0  0
 25 73  1  0  0  0  0
 26 27  1  0  0  0  0
 26 29  1  0  0  0  0
 26 75  1  0  0  0  0
 28 33  1  0  0  0  0
 28 34  1  0  0  0  0
 28 76  1  0  0  0  0
 29 36  1  0  0  0  0
 29 77  1  0  0  0  0
 29 78  1  0  0  0  0
 31 32  1  0  0  0  0
 31 35  1  0  0  0  0
 31 80  1  0  0  0  0
 32 39  1  0  0  0  0
 32 40  1  0  0  0  0
 32 81  1  0  0  0  0
 33 82  1  0  0  0  0
 33 83  1  0  0  0  0
 33 84  1  0  0  0  0
 34 85  1  0  0  0  0
 34 86  1  0  0  0  0
 34 87  1  0  0  0  0
 36 38  1  0  0  0  0
 36 41  2  0  0  0  0
 37 42  1  0  0  0  0
 37 59  1  0  0  0  0
 37 89  1  0  0  0  0
 38 44  2  0  0  0  0
 38 45  1  0  0  0  0
 39 91  1  0  0  0  0
 39 92  1  0  0  0  0
 39 93  1  0  0  0  0
 40 94  1  0  0  0  0
 40 95  1  0  0  0  0
 40 96  1  0  0  0  0
 41 46  1  0  0  0  0
 41 97  1  0  0  0  0
 42 47  1  0  0  0  0
 42 98  1  0  0  0  0
 42 99  1  0  0  0  0
 43 49  1  0  0  0  0
 44 48  1  0  0  0  0
 44100  1  0  0  0  0
 45101  1  0  0  0  0
 45102  1  0  0  0  0
 45103  1  0  0  0  0
 46 48  2  0  0  0  0
 46104  1  0  0  0  0
 47105  1  0  0  0  0
 47106  1  0  0  0  0
 47107  1  0  0  0  0
 48108  1  0  0  0  0
 49 50  1  0  0  0  0
 49109  1  0  0  0  0
 52 53  1  0  0  0  0
 52114  1  0  0  0  0
 52115  1  0  0  0  0
 53 54  2  0  0  0  0
 53 55  1  0  0  0  0
 54 56  1  0  0  0  0
 54116  1  0  0  0  0
 55 57  2  0  0  0  0
 55117  1  0  0  0  0
 56 58  2  0  0  0  0
 56118  1  0  0  0  0
 57 58  1  0  0  0  0
 57119  1  0  0  0  0
 58120  1  0  0  0  0
M  END
> <PUBCHEM_COMPOUND_CID>
500561
> <PUBCHEM_COMPOUND_CANONICALIZED>
1
> <PUBCHEM_CACTVS_COMPLEXITY>
1420
> <PUBCHEM_CACTVS_HBOND_ACCEPTOR>
11
> <PUBCHEM_CACTVS_HBOND_DONOR>
9
> <PUBCHEM_CACTVS_ROTATABLE_BOND>
23
> <PUBCHEM_CACTVS_SUBSKEYS>
AAADcfJ/vAAAAAAAAAAAAAAAAAAAAAAAAAAwYAAAAAAAAAABQAAoHgAQCAAADyjhmAYyCILABgCIAiHSGAACAAAgAAAIiIGICIkKZj6IsTmccAAm9gGYqAeYyKCPgAAAAAAQAAAAAAAAACAAAAAAAAAAAA==
> <PUBCHEM_IUPAC_OPENEYE_NAME>
(2R)-2-(benzyloxycarbonylamino)-3-[[(1R)-1-[[(1S)-2-[[(1S)-1-[[(1S)-1-(1-boronopropylcarbamoyl)-3-methyl-butyl]carbamoyl]-2,2-dimethyl-propyl]amino]-1-(o-tolylmethyl)-2-oxo-ethyl]carbamoyl]-2-methyl-propyl]amino]-3-oxo-propanoic acid
> <PUBCHEM_IUPAC_CAS_NAME>
(2R)-3-[[(2R)-1-[[(2S)-1-[[(2S)-1-[[(2S)-1-(1-boronopropylamino)-4-methyl-1-oxopentan-2-yl]amino]-3,3-dimethyl-1-oxobutan-2-yl]amino]-3-(2-methylphenyl)-1-oxopropan-2-yl]amino]-3-methyl-1-oxobutan-2-yl]amino]-3-oxo-2-(phenylmethoxycarbonylamino)propanoic acid
> <PUBCHEM_IUPAC_NAME_MARKUP>
(2<I>R</I>)-3-[[(2<I>R</I>)-1-[[(2<I>S</I>)-1-[[(2<I>S</I>)-1-[[(2<I>S</I>)-1-(1-boronopropylamino)-4-methyl-1-oxopentan-2-yl]amino]-3,3-dimethyl-1-oxobutan-2-yl]amino]-3-(2-methylphenyl)-1-oxopropan-2-yl]amino]-3-methyl-1-oxobutan-2-yl]amino]-3-oxo-2-(phenylmethoxycarbonylamino)propanoic acid
> <PUBCHEM_IUPAC_NAME>
(2R)-3-[[(2R)-1-[[(2S)-1-[[(2S)-1-[[(2S)-1-(1-boronopropylamino)-4-methyl-1-oxopentan-2-yl]amino]-3,3-dimethyl-1-oxobutan-2-yl]amino]-3-(2-methylphenyl)-1-oxopropan-2-yl]amino]-3-methyl-1-oxobutan-2-yl]amino]-3-oxo-2-(phenylmethoxycarbonylamino)propanoic acid
> <PUBCHEM_IUPAC_SYSTEMATIC_NAME>
(2R)-3-[[(2R)-1-[[(2S)-1-[[(2S)-1-[[(2S)-1-[1-(dihydroxyboranyl)propylamino]-4-methyl-1-oxidanylidene-pentan-2-yl]amino]-3,3-dimethyl-1-oxidanylidene-butan-2-yl]amino]-3-(2-methylphenyl)-1-oxidanylidene-propan-2-yl]amino]-3-methyl-1-oxidanylidene-butan-2-yl]amino]-3-oxidanylidene-2-(phenylmethoxycarbonylamino)propanoic acid
> <PUBCHEM_IUPAC_TRADITIONAL_NAME>
(2R)-2-(benzyloxycarbonylamino)-3-[[(1R)-1-[[(1S)-2-[[(1S)-1-[[(1S)-1-(1-boronopropylcarbamoyl)-3-methyl-butyl]carbamoyl]-2,2-dimethyl-propyl]amino]-2-keto-1-(2-methylbenzyl)ethyl]carbamoyl]-2-methyl-propyl]amino]-3-keto-propionic acid
> <PUBCHEM_IUPAC_INCHI>
InChI=1S/C41H61BN6O11/c1-10-30(42(57)58)45-34(49)28(20-23(2)3)44-38(53)33(41(7,8)9)48-35(50)29(21-27-19-15-14-16-25(27)6)43-36(51)31(24(4)5)46-37(52)32(39(54)55)47-40(56)59-22-26-17-12-11-13-18-26/h11-19,23-24,28-33,57-58H,10,20-22H2,1-9H3,(H,43,51)(H,44,53)(H,45,49)(H,46,52)(H,47,56)(H,48,50)(H,54,55)/t28-,29-,30?,31+,32+,33+/m0/s1
> <PUBCHEM_IUPAC_INCHIKEY>
PLLIJJYJLIWMHC-JDZBVQLFSA-N
> <PUBCHEM_EXACT_MASS>
824.4491369
> <PUBCHEM_MOLECULAR_FORMULA>
C41H61BN6O11
> <PUBCHEM_MOLECULAR_WEIGHT>
824.8
> <PUBCHEM_OPENEYE_CAN_SMILES>
B(C(CC)NC(=O)C(CC(C)C)NC(=O)C(C(C)(C)C)NC(=O)C(CC1=CC=CC=C1C)NC(=O)C(C(C)C)NC(=O)C(C(=O)O)NC(=O)OCC2=CC=CC=C2)(O)O
> <PUBCHEM_OPENEYE_ISO_SMILES>
B(C(CC)NC(=O)[C@H](CC(C)C)NC(=O)[C@H](C(C)(C)C)NC(=O)[C@H](CC1=CC=CC=C1C)NC(=O)[C@@H](C(C)C)NC(=O)[C@H](C(=O)O)NC(=O)OCC2=CC=CC=C2)(O)O
> <PUBCHEM_CACTVS_TPSA>
262
> <PUBCHEM_MONOISOTOPIC_WEIGHT>
824.4491369
> <PUBCHEM_TOTAL_CHARGE>
0
> <PUBCHEM_HEAVY_ATOM_COUNT>
59
> <PUBCHEM_ATOM_DEF_STEREO_COUNT>
5
> <PUBCHEM_ATOM_UDEF_STEREO_COUNT>
1
> <PUBCHEM_BOND_DEF_STEREO_COUNT>
0
> <PUBCHEM_BOND_UDEF_STEREO_COUNT>
0
> <PUBCHEM_ISOTOPIC_ATOM_COUNT>
0
> <PUBCHEM_COMPONENT_COUNT>
1
> <PUBCHEM_CACTVS_TAUTO_COUNT>
-1
> <PUBCHEM_COORDINATE_TYPE>
1
5
255
> <PUBCHEM_BONDANNOTATIONS>
19  12  6
24  13  5
26  14  5
31  16  6
49  17  6
36  38  8
36  41  8
37  42  3
38  44  8
41  46  8
44  48  8
46  48  8
53  54  8
53  55  8
54  56  8
55  57  8
56  58  8
57  58  8
$$$$
