500585
  -OEChem-10302200282D
134137  0     1  0  0  0  0  0999 V2000
   11.3516   -5.0072    0.0000 O   0  0  0  0  0  0  0  0  0  0  0  0
   10.2405   -0.8372    0.0000 O   0  0  0  0  0  0  0  0  0  0  0  0
    8.9962   -1.3912    0.0000 O   0  0  0  0  0  0  0  0  0  0  0  0
   13.8368   -0.5793    0.0000 O   0  0  0  0  0  0  0  0  0  0  0  0
    6.3981   -3.8912    0.0000 O   0  0  0  0  0  0  0  0  0  0  0  0
   13.7174    3.0243    0.0000 O   0  0  0  0  0  0  0  0  0  0  0  0
   17.3137    3.2822    0.0000 O   0  0  0  0  0  0  0  0  0  0  0  0
   18.8000    1.9440    0.0000 O   0  0  0  0  0  0  0  0  0  0  0  0
   17.6410    0.6568    0.0000 O   0  0  0  0  0  0  0  0  0  0  0  0
   15.5001    7.2459    0.0000 O   0  0  0  0  0  0  0  0  0  0  0  0
   17.1943    6.8858    0.0000 O   0  0  0  0  0  0  0  0  0  0  0  0
   18.2648    3.5912    0.0000 O   0  0  0  0  0  0  0  0  0  0  0  0
   10.7757   -2.4845    0.0000 N   0  0  0  0  0  0  0  0  0  0  0  0
    8.1301   -2.8912    0.0000 N   0  0  0  0  0  0  0  0  0  0  0  0
   12.1426   -0.2192    0.0000 N   0  0  0  0  0  0  0  0  0  0  0  0
    5.5321   -2.3912    0.0000 N   0  0  0  0  0  0  0  0  0  0  0  0
   14.2526    1.3770    0.0000 N   0  0  0  0  0  0  0  0  0  0  0  0
   15.6195    3.6423    0.0000 N   0  0  0  0  0  0  0  0  0  0  0  0
   17.7295    5.2385    0.0000 N   0  0  0  0  0  0  0  0  0  0  0  0
    9.8622   -2.8912    0.0000 C   0  0  1  0  0  0  0  0  0  0  0  0
   10.9449   -4.0936    0.0000 C   0  0  2  0  0  0  0  0  0  0  0  0
    9.9667   -3.8857    0.0000 C   0  0  0  0  0  0  0  0  0  0  0  0
   11.4449   -3.2276    0.0000 C   0  0  0  0  0  0  0  0  0  0  0  0
   10.9836   -1.5063    0.0000 C   0  0  0  0  0  0  0  0  0  0  0  0
   11.9347   -1.1973    0.0000 C   0  0  2  0  0  0  0  0  0  0  0  0
    8.9962   -2.3912    0.0000 C   0  0  0  0  0  0  0  0  0  0  0  0
   12.6778   -1.8664    0.0000 C   0  0  0  0  0  0  0  0  0  0  0  0
    7.2641   -2.3912    0.0000 C   0  0  3  0  0  0  0  0  0  0  0  0
   12.3461   -5.1117    0.0000 C   0  0  0  0  0  0  0  0  0  0  0  0
   13.6289   -1.5574    0.0000 C   0  0  0  0  0  0  0  0  0  0  0  0
   12.4699   -2.8446    0.0000 C   0  0  0  0  0  0  0  0  0  0  0  0
   13.3016    1.0680    0.0000 C   0  0  2  0  0  0  0  0  0  0  0  0
    7.2641   -1.3912    0.0000 C   0  0  0  0  0  0  0  0  0  0  0  0
   13.0937    0.0899    0.0000 C   0  0  0  0  0  0  0  0  0  0  0  0
    6.3981   -2.8912    0.0000 C   0  0  0  0  0  0  0  0  0  0  0  0
   12.5584    1.7371    0.0000 C   0  0  2  0  0  0  0  0  0  0  0  0
    8.1301   -0.8912    0.0000 C   0  0  0  0  0  0  0  0  0  0  0  0
    5.5321   -1.3912    0.0000 C   0  0  0  0  0  0  0  0  0  0  0  0
   12.7529   -6.0253    0.0000 C   0  0  0  0  0  0  0  0  0  0  0  0
    4.6660   -2.8912    0.0000 C   0  0  0  0  0  0  0  0  0  0  0  0
   12.7663    2.7153    0.0000 C   0  0  0  0  0  0  0  0  0  0  0  0
    4.6660   -0.8912    0.0000 C   0  0  0  0  0  0  0  0  0  0  0  0
   11.6074    1.4281    0.0000 C   0  0  0  0  0  0  0  0  0  0  0  0
    3.8000   -2.3912    0.0000 C   0  0  0  0  0  0  0  0  0  0  0  0
    3.8000   -1.3912    0.0000 C   0  0  0  0  0  0  0  0  0  0  0  0
    8.1301    0.1088    0.0000 C   0  0  0  0  0  0  0  0  0  0  0  0
   14.4605    2.3552    0.0000 C   0  0  0  0  0  0  0  0  0  0  0  0
   13.7474   -6.1298    0.0000 C   0  0  0  0  0  0  0  0  0  0  0  0
   12.1651   -6.8343    0.0000 C   0  0  0  0  0  0  0  0  0  0  0  0
   12.0232    3.3844    0.0000 C   0  0  0  0  0  0  0  0  0  0  0  0
   15.4116    2.6642    0.0000 C   0  0  1  0  0  0  0  0  0  0  0  0
    2.9061   -2.9259    0.0000 C   0  0  0  0  0  0  0  0  0  0  0  0
    2.9061   -0.8566    0.0000 C   0  0  0  0  0  0  0  0  0  0  0  0
   16.1547    1.9950    0.0000 C   0  0  0  0  0  0  0  0  0  0  0  0
   14.1541   -7.0433    0.0000 C   0  0  0  0  0  0  0  0  0  0  0  0
   12.5718   -7.7478    0.0000 C   0  0  0  0  0  0  0  0  0  0  0  0
    2.0000   -2.4120    0.0000 C   0  0  0  0  0  0  0  0  0  0  0  0
    2.0000   -1.3704    0.0000 C   0  0  0  0  0  0  0  0  0  0  0  0
   13.5663   -7.8524    0.0000 C   0  0  0  0  0  0  0  0  0  0  0  0
   17.1058    2.3041    0.0000 C   0  0  0  0  0  0  0  0  0  0  0  0
   16.5706    3.9514    0.0000 C   0  0  0  0  0  0  0  0  0  0  0  0
   16.7785    4.9295    0.0000 C   0  0  2  0  0  0  0  0  0  0  0  0
   17.8490    1.6349    0.0000 C   0  0  0  0  0  0  0  0  0  0  0  0
   16.0353    5.5986    0.0000 C   0  0  0  0  0  0  0  0  0  0  0  0
   16.2433    6.5768    0.0000 C   0  0  0  0  0  0  0  0  0  0  0  0
   18.4727    4.5694    0.0000 C   0  0  0  0  0  0  0  0  0  0  0  0
   19.4237    4.8784    0.0000 C   0  0  0  0  0  0  0  0  0  0  0  0
    9.8946   -2.2721    0.0000 H   0  0  0  0  0  0  0  0  0  0  0  0
   10.5547   -4.5755    0.0000 H   0  0  0  0  0  0  0  0  0  0  0  0
    9.3467   -3.8857    0.0000 H   0  0  0  0  0  0  0  0  0  0  0  0
    9.9019   -4.5023    0.0000 H   0  0  0  0  0  0  0  0  0  0  0  0
   11.9465   -3.5920    0.0000 H   0  0  0  0  0  0  0  0  0  0  0  0
   11.8597   -2.7669    0.0000 H   0  0  0  0  0  0  0  0  0  0  0  0
   11.4740   -0.7824    0.0000 H   0  0  0  0  0  0  0  0  0  0  0  0
   12.0882   -2.0580    0.0000 H   0  0  0  0  0  0  0  0  0  0  0  0
    8.1301   -3.5112    0.0000 H   0  0  0  0  0  0  0  0  0  0  0  0
    7.8010   -2.0812    0.0000 H   0  0  0  0  0  0  0  0  0  0  0  0
   11.6819    0.1957    0.0000 H   0  0  0  0  0  0  0  0  0  0  0  0
   12.9477   -4.9617    0.0000 H   0  0  0  0  0  0  0  0  0  0  0  0
   12.3029   -4.4932    0.0000 H   0  0  0  0  0  0  0  0  0  0  0  0
   13.8205   -2.1471    0.0000 H   0  0  0  0  0  0  0  0  0  0  0  0
   14.2186   -1.3658    0.0000 H   0  0  0  0  0  0  0  0  0  0  0  0
   13.4373   -0.9678    0.0000 H   0  0  0  0  0  0  0  0  0  0  0  0
   11.8635   -2.7157    0.0000 H   0  0  0  0  0  0  0  0  0  0  0  0
   12.3410   -3.4510    0.0000 H   0  0  0  0  0  0  0  0  0  0  0  0
   13.0764   -2.9735    0.0000 H   0  0  0  0  0  0  0  0  0  0  0  0
   13.4305    1.6744    0.0000 H   0  0  0  0  0  0  0  0  0  0  0  0
    7.0521   -0.8086    0.0000 H   0  0  0  0  0  0  0  0  0  0  0  0
    6.6535   -1.4989    0.0000 H   0  0  0  0  0  0  0  0  0  0  0  0
   12.4295    1.1307    0.0000 H   0  0  0  0  0  0  0  0  0  0  0  0
    8.3422   -1.4738    0.0000 H   0  0  0  0  0  0  0  0  0  0  0  0
    8.7407   -0.7836    0.0000 H   0  0  0  0  0  0  0  0  0  0  0  0
    6.1426   -1.4989    0.0000 H   0  0  0  0  0  0  0  0  0  0  0  0
    5.7441   -0.8086    0.0000 H   0  0  0  0  0  0  0  0  0  0  0  0
    4.2675   -3.3662    0.0000 H   0  0  0  0  0  0  0  0  0  0  0  0
    5.0646   -3.3662    0.0000 H   0  0  0  0  0  0  0  0  0  0  0  0
   13.3412    2.4830    0.0000 H   0  0  0  0  0  0  0  0  0  0  0  0
   13.0949    3.2411    0.0000 H   0  0  0  0  0  0  0  0  0  0  0  0
   14.7134    0.9622    0.0000 H   0  0  0  0  0  0  0  0  0  0  0  0
    5.0646   -0.4163    0.0000 H   0  0  0  0  0  0  0  0  0  0  0  0
    4.2675   -0.4163    0.0000 H   0  0  0  0  0  0  0  0  0  0  0  0
   11.4158    2.0178    0.0000 H   0  0  0  0  0  0  0  0  0  0  0  0
   11.0177    1.2365    0.0000 H   0  0  0  0  0  0  0  0  0  0  0  0
   11.7990    0.8385    0.0000 H   0  0  0  0  0  0  0  0  0  0  0  0
    8.7501    0.1088    0.0000 H   0  0  0  0  0  0  0  0  0  0  0  0
    8.1301    0.7288    0.0000 H   0  0  0  0  0  0  0  0  0  0  0  0
    7.5101    0.1088    0.0000 H   0  0  0  0  0  0  0  0  0  0  0  0
   14.1118   -5.6282    0.0000 H   0  0  0  0  0  0  0  0  0  0  0  0
   11.5485   -6.7695    0.0000 H   0  0  0  0  0  0  0  0  0  0  0  0
   12.4381    3.8452    0.0000 H   0  0  0  0  0  0  0  0  0  0  0  0
   11.5625    3.7993    0.0000 H   0  0  0  0  0  0  0  0  0  0  0  0
   11.6083    2.9237    0.0000 H   0  0  0  0  0  0  0  0  0  0  0  0
   16.0013    2.8558    0.0000 H   0  0  0  0  0  0  0  0  0  0  0  0
    2.9132   -3.5458    0.0000 H   0  0  0  0  0  0  0  0  0  0  0  0
    2.9132   -0.2366    0.0000 H   0  0  0  0  0  0  0  0  0  0  0  0
   15.6662    1.6133    0.0000 H   0  0  0  0  0  0  0  0  0  0  0  0
   16.4458    1.4476    0.0000 H   0  0  0  0  0  0  0  0  0  0  0  0
   14.7707   -7.1082    0.0000 H   0  0  0  0  0  0  0  0  0  0  0  0
   12.2074   -8.2494    0.0000 H   0  0  0  0  0  0  0  0  0  0  0  0
    1.4643   -2.7241    0.0000 H   0  0  0  0  0  0  0  0  0  0  0  0
    1.4643   -1.0583    0.0000 H   0  0  0  0  0  0  0  0  0  0  0  0
   15.1588    4.0572    0.0000 H   0  0  0  0  0  0  0  0  0  0  0  0
   13.8185   -8.4188    0.0000 H   0  0  0  0  0  0  0  0  0  0  0  0
   17.5944    2.6858    0.0000 H   0  0  0  0  0  0  0  0  0  0  0  0
   16.8147    2.8515    0.0000 H   0  0  0  0  0  0  0  0  0  0  0  0
   16.9074    5.5360    0.0000 H   0  0  0  0  0  0  0  0  0  0  0  0
   15.4605    5.8309    0.0000 H   0  0  0  0  0  0  0  0  0  0  0  0
   15.7068    5.0728    0.0000 H   0  0  0  0  0  0  0  0  0  0  0  0
   17.8584    5.8450    0.0000 H   0  0  0  0  0  0  0  0  0  0  0  0
   19.2608    1.5291    0.0000 H   0  0  0  0  0  0  0  0  0  0  0  0
   19.6153    4.2887    0.0000 H   0  0  0  0  0  0  0  0  0  0  0  0
   20.0134    5.0700    0.0000 H   0  0  0  0  0  0  0  0  0  0  0  0
   19.2322    5.4680    0.0000 H   0  0  0  0  0  0  0  0  0  0  0  0
   15.6290    7.8524    0.0000 H   0  0  0  0  0  0  0  0  0  0  0  0
 21  1  1  6  0  0  0
  1 29  1  0  0  0  0
  2 24  2  0  0  0  0
  3 26  2  0  0  0  0
  4 34  2  0  0  0  0
  5 35  2  0  0  0  0
  6 47  2  0  0  0  0
  7 61  2  0  0  0  0
  8 63  1  0  0  0  0
  8130  1  0  0  0  0
  9 63  2  0  0  0  0
 10 65  1  0  0  0  0
 10134  1  0  0  0  0
 11 65  2  0  0  0  0
 12 66  2  0  0  0  0
 13 20  1  0  0  0  0
 13 23  1  0  0  0  0
 13 24  1  0  0  0  0
 14 26  1  0  0  0  0
 14 28  1  0  0  0  0
 14 76  1  0  0  0  0
 25 15  1  1  0  0  0
 15 34  1  0  0  0  0
 15 78  1  0  0  0  0
 16 35  1  0  0  0  0
 16 38  1  0  0  0  0
 16 40  1  0  0  0  0
 32 17  1  6  0  0  0
 17 47  1  0  0  0  0
 17 99  1  0  0  0  0
 51 18  1  6  0  0  0
 18 61  1  0  0  0  0
 18122  1  0  0  0  0
 62 19  1  6  0  0  0
 19 66  1  0  0  0  0
 19129  1  0  0  0  0
 20 22  1  0  0  0  0
 20 26  1  1  0  0  0
 20 68  1  0  0  0  0
 21 22  1  0  0  0  0
 21 23  1  0  0  0  0
 21 69  1  0  0  0  0
 22 70  1  0  0  0  0
 22 71  1  0  0  0  0
 23 72  1  0  0  0  0
 23 73  1  0  0  0  0
 24 25  1  0  0  0  0
 25 27  1  0  0  0  0
 25 74  1  0  0  0  0
 27 30  1  0  0  0  0
 27 31  1  0  0  0  0
 27 75  1  0  0  0  0
 28 33  1  0  0  0  0
 28 35  1  0  0  0  0
 28 77  1  0  0  0  0
 29 39  1  0  0  0  0
 29 79  1  0  0  0  0
 29 80  1  0  0  0  0
 30 81  1  0  0  0  0
 30 82  1  0  0  0  0
 30 83  1  0  0  0  0
 31 84  1  0  0  0  0
 31 85  1  0  0  0  0
 31 86  1  0  0  0  0
 32 34  1  0  0  0  0
 32 36  1  0  0  0  0
 32 87  1  0  0  0  0
 33 37  1  0  0  0  0
 33 88  1  0  0  0  0
 33 89  1  0  0  0  0
 36 41  1  0  0  0  0
 36 43  1  1  0  0  0
 36 90  1  0  0  0  0
 37 46  1  0  0  0  0
 37 91  1  0  0  0  0
 37 92  1  0  0  0  0
 38 42  1  0  0  0  0
 38 93  1  0  0  0  0
 38 94  1  0  0  0  0
 39 48  2  0  0  0  0
 39 49  1  0  0  0  0
 40 44  1  0  0  0  0
 40 95  1  0  0  0  0
 40 96  1  0  0  0  0
 41 50  1  0  0  0  0
 41 97  1  0  0  0  0
 41 98  1  0  0  0  0
 42 45  1  0  0  0  0
 42100  1  0  0  0  0
 42101  1  0  0  0  0
 43102  1  0  0  0  0
 43103  1  0  0  0  0
 43104  1  0  0  0  0
 44 45  1  0  0  0  0
 44 52  2  0  0  0  0
 45 53  2  0  0  0  0
 46105  1  0  0  0  0
 46106  1  0  0  0  0
 46107  1  0  0  0  0
 47 51  1  0  0  0  0
 48 55  1  0  0  0  0
 48108  1  0  0  0  0
 49 56  2  0  0  0  0
 49109  1  0  0  0  0
 50110  1  0  0  0  0
 50111  1  0  0  0  0
 50112  1  0  0  0  0
 51 54  1  0  0  0  0
 51113  1  0  0  0  0
 52 57  1  0  0  0  0
 52114  1  0  0  0  0
 53 58  1  0  0  0  0
 53115  1  0  0  0  0
 54 60  1  0  0  0  0
 54116  1  0  0  0  0
 54117  1  0  0  0  0
 55 59  2  0  0  0  0
 55118  1  0  0  0  0
 56 59  1  0  0  0  0
 56119  1  0  0  0  0
 57 58  2  0  0  0  0
 57120  1  0  0  0  0
 58121  1  0  0  0  0
 59123  1  0  0  0  0
 60 63  1  0  0  0  0
 60124  1  0  0  0  0
 60125  1  0  0  0  0
 61 62  1  0  0  0  0
 62 64  1  0  0  0  0
 62126  1  0  0  0  0
 64 65  1  0  0  0  0
 64127  1  0  0  0  0
 64128  1  0  0  0  0
 66 67  1  0  0  0  0
 67131  1  0  0  0  0
 67132  1  0  0  0  0
 67133  1  0  0  0  0
M  END
> <PUBCHEM_COMPOUND_CID>
500585
> <PUBCHEM_COMPOUND_CANONICALIZED>
1
> <PUBCHEM_CACTVS_COMPLEXITY>
1740
> <PUBCHEM_CACTVS_HBOND_ACCEPTOR>
12
> <PUBCHEM_CACTVS_HBOND_DONOR>
7
> <PUBCHEM_CACTVS_ROTATABLE_BOND>
24
> <PUBCHEM_CACTVS_SUBSKEYS>
AAADcfB/vAAAAAAAAAAAAAAAAAAAAWAAAAA8YIAAAAAAAACxQAAAHgAQCAAADTzhmAYyCIPABgCIAiHSGACCAAAgAAAIiIGIDIgKZjqAsTmXcAhm1gGYqAe/16IOgAAAAAAQAAAAAAAAACAAAAAAAAAAAA==
> <PUBCHEM_IUPAC_OPENEYE_NAME>
(4R)-4-[[(2S)-2-acetamido-3-carboxy-propanoyl]amino]-5-[[(1S,2S)-1-[[(1S)-1-[(2S,4R)-4-benzyloxy-2-[1-(3,4-dihydro-1H-isoquinoline-2-carbonyl)butylcarbamoyl]pyrrolidine-1-carbonyl]-2-methyl-propyl]carbamoyl]-2-methyl-butyl]amino]-5-oxo-pentanoic acid
> <PUBCHEM_IUPAC_CAS_NAME>
(4R)-4-[[(2S)-2-acetamido-3-carboxy-1-oxopropyl]amino]-5-[[(2S,3S)-1-[[(2S)-1-[(2S,4R)-2-[[[1-(3,4-dihydro-1H-isoquinolin-2-yl)-1-oxopentan-2-yl]amino]-oxomethyl]-4-phenylmethoxy-1-pyrrolidinyl]-3-methyl-1-oxobutan-2-yl]amino]-3-methyl-1-oxopentan-2-yl]amino]-5-oxopentanoic acid
> <PUBCHEM_IUPAC_NAME_MARKUP>
(4<I>R</I>)-4-[[(2<I>S</I>)-2-acetamido-3-carboxypropanoyl]amino]-5-[[(2<I>S</I>,3<I>S</I>)-1-[[(2<I>S</I>)-1-[(2<I>S</I>,4<I>R</I>)-2-[[1-(3,4-dihydro-1<I>H</I>-isoquinolin-2-yl)-1-oxopentan-2-yl]carbamoyl]-4-phenylmethoxypyrrolidin-1-yl]-3-methyl-1-oxobutan-2-yl]amino]-3-methyl-1-oxopentan-2-yl]amino]-5-oxopentanoic acid
> <PUBCHEM_IUPAC_NAME>
(4R)-4-[[(2S)-2-acetamido-3-carboxypropanoyl]amino]-5-[[(2S,3S)-1-[[(2S)-1-[(2S,4R)-2-[[1-(3,4-dihydro-1H-isoquinolin-2-yl)-1-oxopentan-2-yl]carbamoyl]-4-phenylmethoxypyrrolidin-1-yl]-3-methyl-1-oxobutan-2-yl]amino]-3-methyl-1-oxopentan-2-yl]amino]-5-oxopentanoic acid
> <PUBCHEM_IUPAC_SYSTEMATIC_NAME>
(4R)-4-[[(2S)-2-acetamido-4-oxidanyl-4-oxidanylidene-butanoyl]amino]-5-[[(2S,3S)-1-[[(2S)-1-[(2S,4R)-2-[[1-(3,4-dihydro-1H-isoquinolin-2-yl)-1-oxidanylidene-pentan-2-yl]carbamoyl]-4-phenylmethoxy-pyrrolidin-1-yl]-3-methyl-1-oxidanylidene-butan-2-yl]amino]-3-methyl-1-oxidanylidene-pentan-2-yl]amino]-5-oxidanylidene-pentanoic acid
> <PUBCHEM_IUPAC_TRADITIONAL_NAME>
(4R)-4-[[(2S)-2-acetamido-3-carboxy-propanoyl]amino]-5-[[(1S,2S)-1-[[(1S)-1-[(2S,4R)-4-benzoxy-2-[1-(3,4-dihydro-1H-isoquinoline-2-carbonyl)butylcarbamoyl]pyrrolidine-1-carbonyl]-2-methyl-propyl]carbamoyl]-2-methyl-butyl]amino]-5-keto-valeric acid
> <PUBCHEM_IUPAC_INCHI>
InChI=1S/C48H67N7O12/c1-7-14-36(47(65)54-22-21-32-17-12-13-18-33(32)25-54)51-45(63)38-23-34(67-27-31-15-10-9-11-16-31)26-55(38)48(66)41(28(3)4)52-46(64)42(29(5)8-2)53-43(61)35(19-20-39(57)58)50-44(62)37(24-40(59)60)49-30(6)56/h9-13,15-18,28-29,34-38,41-42H,7-8,14,19-27H2,1-6H3,(H,49,56)(H,50,62)(H,51,63)(H,52,64)(H,53,61)(H,57,58)(H,59,60)/t29-,34+,35+,36?,37-,38-,41-,42-/m0/s1
> <PUBCHEM_IUPAC_INCHIKEY>
XMADAEREGHQYRS-UGBVPJIDSA-N
> <PUBCHEM_XLOGP3_AA>
2.9
> <PUBCHEM_EXACT_MASS>
933.48477060
> <PUBCHEM_MOLECULAR_FORMULA>
C48H67N7O12
> <PUBCHEM_MOLECULAR_WEIGHT>
934.1
> <PUBCHEM_OPENEYE_CAN_SMILES>
CCCC(C(=O)N1CCC2=CC=CC=C2C1)NC(=O)C3CC(CN3C(=O)C(C(C)C)NC(=O)C(C(C)CC)NC(=O)C(CCC(=O)O)NC(=O)C(CC(=O)O)NC(=O)C)OCC4=CC=CC=C4
> <PUBCHEM_OPENEYE_ISO_SMILES>
CCCC(C(=O)N1CCC2=CC=CC=C2C1)NC(=O)[C@@H]3C[C@H](CN3C(=O)[C@H](C(C)C)NC(=O)[C@H]([C@@H](C)CC)NC(=O)[C@@H](CCC(=O)O)NC(=O)[C@H](CC(=O)O)NC(=O)C)OCC4=CC=CC=C4
> <PUBCHEM_CACTVS_TPSA>
270
> <PUBCHEM_MONOISOTOPIC_WEIGHT>
933.48477060
> <PUBCHEM_TOTAL_CHARGE>
0
> <PUBCHEM_HEAVY_ATOM_COUNT>
67
> <PUBCHEM_ATOM_DEF_STEREO_COUNT>
7
> <PUBCHEM_ATOM_UDEF_STEREO_COUNT>
1
> <PUBCHEM_BOND_DEF_STEREO_COUNT>
0
> <PUBCHEM_BOND_UDEF_STEREO_COUNT>
0
> <PUBCHEM_ISOTOPIC_ATOM_COUNT>
0
> <PUBCHEM_COMPONENT_COUNT>
1
> <PUBCHEM_CACTVS_TAUTO_COUNT>
-1
> <PUBCHEM_COORDINATE_TYPE>
1
5
255
> <PUBCHEM_BONDANNOTATIONS>
21  1  6
25  15  5
32  17  6
51  18  6
62  19  6
20  26  5
28  33  3
36  43  5
39  48  8
39  49  8
44  45  8
44  52  8
45  53  8
48  55  8
49  56  8
52  57  8
53  58  8
55  59  8
56  59  8
57  58  8
$$$$
