500535
  -OEChem-10302200282D
129133  0     1  0  0  0  0  0999 V2000
   17.1275   -0.8378    0.0000 O   0  0  0  0  0  0  0  0  0  0  0  0
   15.7932    0.0622    0.0000 O   0  0  0  0  0  0  0  0  0  0  0  0
   14.4565   -3.3587    0.0000 O   0  0  0  0  0  0  0  0  0  0  0  0
   13.8555   -0.4758    0.0000 O   0  0  0  0  0  0  0  0  0  0  0  0
   11.0182    1.7491    0.0000 O   0  0  0  0  0  0  0  0  0  0  0  0
    7.6728    0.4044    0.0000 O   0  0  0  0  0  0  0  0  0  0  0  0
    6.2004    3.6956    0.0000 O   0  0  0  0  0  0  0  0  0  0  0  0
    6.9496    5.5500    0.0000 O   0  0  0  0  0  0  0  0  0  0  0  0
    8.5556    4.9012    0.0000 O   0  0  0  0  0  0  0  0  0  0  0  0
    2.6140    4.0661    0.0000 O   0  0  0  0  0  0  0  0  0  0  0  0
    2.8550    2.3509    0.0000 O   0  0  0  0  0  0  0  0  0  0  0  0
   14.5773   -1.6309    0.0000 N   0  0  0  0  0  0  0  0  0  0  0  0
   12.4906   -1.5421    0.0000 N   0  0  0  0  0  0  0  0  0  0  0  0
   11.2593    0.0339    0.0000 N   0  0  0  0  0  0  0  0  0  0  0  0
    9.0377    1.4708    0.0000 N   0  0  0  0  0  0  0  0  0  0  0  0
    6.4415    1.9804    0.0000 N   0  0  0  0  0  0  0  0  0  0  0  0
    4.4610    1.7021    0.0000 N   0  0  0  0  0  0  0  0  0  0  0  0
   18.6250    0.9828    0.0000 C   0  0  2  0  0  0  0  0  0  0  0  0
   20.0240    0.9916    0.0000 C   0  0  0  0  0  0  0  0  0  0  0  0
   18.8839    1.9487    0.0000 C   0  0  1  0  0  0  0  0  0  0  0  0
   17.4040    0.1171    0.0000 C   0  0  1  0  0  0  0  0  0  0  0  0
   18.1472    2.9313    0.0000 C   0  0  0  0  0  0  0  0  0  0  0  0
   16.8506    1.6376    0.0000 C   0  0  0  0  0  0  0  0  0  0  0  0
   16.5750    0.6763    0.0000 C   0  0  1  0  0  0  0  0  0  0  0  0
   20.8900    1.4916    0.0000 C   0  0  0  0  0  0  0  0  0  0  0  0
   20.5240    0.1256    0.0000 C   0  0  0  0  0  0  0  0  0  0  0  0
   18.2331   -0.4421    0.0000 C   0  0  0  0  0  0  0  0  0  0  0  0
   15.5748   -1.7006    0.0000 C   0  0  1  0  0  0  0  0  0  0  0  0
   16.0132   -2.5994    0.0000 C   0  0  0  0  0  0  0  0  0  0  0  0
   15.4540   -3.4285    0.0000 C   0  0  0  0  0  0  0  0  0  0  0  0
   14.0181   -2.4599    0.0000 C   0  0  0  0  0  0  0  0  0  0  0  0
   13.0205   -2.3902    0.0000 C   0  0  2  0  0  0  0  0  0  0  0  0
   15.8924   -4.3273    0.0000 C   0  0  0  0  0  0  0  0  0  0  0  0
   12.3777   -3.1562    0.0000 C   0  0  0  0  0  0  0  0  0  0  0  0
   11.4505   -2.7816    0.0000 C   0  0  0  0  0  0  0  0  0  0  0  0
   15.3332   -5.1563    0.0000 C   0  0  0  0  0  0  0  0  0  0  0  0
   11.5203   -1.7840    0.0000 C   0  0  0  0  0  0  0  0  0  0  0  0
   16.8900   -4.3970    0.0000 C   0  0  0  0  0  0  0  0  0  0  0  0
   12.8652   -0.6149    0.0000 C   0  0  0  0  0  0  0  0  0  0  0  0
   15.7716   -6.0551    0.0000 C   0  0  0  0  0  0  0  0  0  0  0  0
   14.3356   -5.0865    0.0000 C   0  0  0  0  0  0  0  0  0  0  0  0
   17.3283   -5.2958    0.0000 C   0  0  0  0  0  0  0  0  0  0  0  0
   12.2495    0.1731    0.0000 C   0  0  2  0  0  0  0  0  0  0  0  0
   16.7691   -6.1248    0.0000 C   0  0  0  0  0  0  0  0  0  0  0  0
   12.6242    1.1003    0.0000 C   0  0  0  0  0  0  0  0  0  0  0  0
   12.0085    1.8883    0.0000 C   0  0  0  0  0  0  0  0  0  0  0  0
   13.6144    1.2394    0.0000 C   0  0  0  0  0  0  0  0  0  0  0  0
   10.6436    0.8219    0.0000 C   0  0  0  0  0  0  0  0  0  0  0  0
    9.6534    0.6828    0.0000 C   0  0  2  0  0  0  0  0  0  0  0  0
    9.2787   -0.2444    0.0000 C   0  0  0  0  0  0  0  0  0  0  0  0
    8.2885   -0.3836    0.0000 C   0  0  0  0  0  0  0  0  0  0  0  0
    9.8944   -1.0324    0.0000 C   0  0  0  0  0  0  0  0  0  0  0  0
    8.0474    1.3316    0.0000 C   0  0  0  0  0  0  0  0  0  0  0  0
    7.4318    2.1196    0.0000 C   0  0  2  0  0  0  0  0  0  0  0  0
    7.8064    3.0468    0.0000 C   0  0  0  0  0  0  0  0  0  0  0  0
    7.1907    3.8348    0.0000 C   0  0  0  0  0  0  0  0  0  0  0  0
    5.8258    2.7684    0.0000 C   0  0  0  0  0  0  0  0  0  0  0  0
    4.8356    2.6293    0.0000 C   0  0  2  0  0  0  0  0  0  0  0  0
    7.5653    4.7620    0.0000 C   0  0  0  0  0  0  0  0  0  0  0  0
    4.2199    3.4173    0.0000 C   0  0  0  0  0  0  0  0  0  0  0  0
    3.2296    3.2781    0.0000 C   0  0  0  0  0  0  0  0  0  0  0  0
   16.1340   -0.8716    0.0000 B   0  0  0  0  0  0  0  0  0  0  0  0
   18.4050    0.1617    0.0000 H   0  0  0  0  0  0  0  0  0  0  0  0
   19.1039    2.7697    0.0000 H   0  0  0  0  0  0  0  0  0  0  0  0
   18.4650    3.4636    0.0000 H   0  0  0  0  0  0  0  0  0  0  0  0
   17.5341    3.0232    0.0000 H   0  0  0  0  0  0  0  0  0  0  0  0
   16.8456    2.2575    0.0000 H   0  0  0  0  0  0  0  0  0  0  0  0
   16.2363    1.7213    0.0000 H   0  0  0  0  0  0  0  0  0  0  0  0
   15.8703    1.1516    0.0000 H   0  0  0  0  0  0  0  0  0  0  0  0
   21.2000    0.9546    0.0000 H   0  0  0  0  0  0  0  0  0  0  0  0
   21.4269    1.8016    0.0000 H   0  0  0  0  0  0  0  0  0  0  0  0
   20.5800    2.0285    0.0000 H   0  0  0  0  0  0  0  0  0  0  0  0
   19.9870   -0.1844    0.0000 H   0  0  0  0  0  0  0  0  0  0  0  0
   20.8340   -0.4114    0.0000 H   0  0  0  0  0  0  0  0  0  0  0  0
   21.0609    0.4356    0.0000 H   0  0  0  0  0  0  0  0  0  0  0  0
   17.8864   -0.9561    0.0000 H   0  0  0  0  0  0  0  0  0  0  0  0
   18.7471   -0.7888    0.0000 H   0  0  0  0  0  0  0  0  0  0  0  0
   18.5798    0.0719    0.0000 H   0  0  0  0  0  0  0  0  0  0  0  0
   15.2281   -2.2146    0.0000 H   0  0  0  0  0  0  0  0  0  0  0  0
   16.4592   -3.0301    0.0000 H   0  0  0  0  0  0  0  0  0  0  0  0
   16.5148   -2.2350    0.0000 H   0  0  0  0  0  0  0  0  0  0  0  0
   14.3055   -1.0736    0.0000 H   0  0  0  0  0  0  0  0  0  0  0  0
   15.0080   -2.9978    0.0000 H   0  0  0  0  0  0  0  0  0  0  0  0
   14.9524   -3.7929    0.0000 H   0  0  0  0  0  0  0  0  0  0  0  0
   13.3398   -1.8587    0.0000 H   0  0  0  0  0  0  0  0  0  0  0  0
   12.0867   -3.7036    0.0000 H   0  0  0  0  0  0  0  0  0  0  0  0
   12.8917   -3.5029    0.0000 H   0  0  0  0  0  0  0  0  0  0  0  0
   10.8400   -2.6739    0.0000 H   0  0  0  0  0  0  0  0  0  0  0  0
   11.2797   -3.3776    0.0000 H   0  0  0  0  0  0  0  0  0  0  0  0
   11.4340   -1.1701    0.0000 H   0  0  0  0  0  0  0  0  0  0  0  0
   10.9007   -1.8057    0.0000 H   0  0  0  0  0  0  0  0  0  0  0  0
   17.2367   -3.8830    0.0000 H   0  0  0  0  0  0  0  0  0  0  0  0
   15.4249   -6.5691    0.0000 H   0  0  0  0  0  0  0  0  0  0  0  0
   14.3789   -4.4680    0.0000 H   0  0  0  0  0  0  0  0  0  0  0  0
   13.7171   -5.0433    0.0000 H   0  0  0  0  0  0  0  0  0  0  0  0
   14.2924   -5.7050    0.0000 H   0  0  0  0  0  0  0  0  0  0  0  0
   17.9468   -5.3391    0.0000 H   0  0  0  0  0  0  0  0  0  0  0  0
   11.8678    0.6617    0.0000 H   0  0  0  0  0  0  0  0  0  0  0  0
   17.0409   -6.6821    0.0000 H   0  0  0  0  0  0  0  0  0  0  0  0
   13.0059    0.6117    0.0000 H   0  0  0  0  0  0  0  0  0  0  0  0
   11.0270   -0.5409    0.0000 H   0  0  0  0  0  0  0  0  0  0  0  0
   12.4971    2.2700    0.0000 H   0  0  0  0  0  0  0  0  0  0  0  0
   11.6268    2.3768    0.0000 H   0  0  0  0  0  0  0  0  0  0  0  0
   11.5199    1.5066    0.0000 H   0  0  0  0  0  0  0  0  0  0  0  0
   13.7007    0.6255    0.0000 H   0  0  0  0  0  0  0  0  0  0  0  0
   14.2284    1.3257    0.0000 H   0  0  0  0  0  0  0  0  0  0  0  0
   13.5281    1.8534    0.0000 H   0  0  0  0  0  0  0  0  0  0  0  0
    9.8856    1.2576    0.0000 H   0  0  0  0  0  0  0  0  0  0  0  0
    8.8970    0.2441    0.0000 H   0  0  0  0  0  0  0  0  0  0  0  0
    9.2699    2.0456    0.0000 H   0  0  0  0  0  0  0  0  0  0  0  0
    8.2022    0.2304    0.0000 H   0  0  0  0  0  0  0  0  0  0  0  0
    7.6745   -0.4699    0.0000 H   0  0  0  0  0  0  0  0  0  0  0  0
    8.3748   -0.9976    0.0000 H   0  0  0  0  0  0  0  0  0  0  0  0
    9.4058   -1.4142    0.0000 H   0  0  0  0  0  0  0  0  0  0  0  0
   10.2761   -1.5210    0.0000 H   0  0  0  0  0  0  0  0  0  0  0  0
   10.3830   -0.6507    0.0000 H   0  0  0  0  0  0  0  0  0  0  0  0
    7.1995    1.5448    0.0000 H   0  0  0  0  0  0  0  0  0  0  0  0
    8.3322    2.7182    0.0000 H   0  0  0  0  0  0  0  0  0  0  0  0
    8.2212    3.5075    0.0000 H   0  0  0  0  0  0  0  0  0  0  0  0
    6.2092    1.4056    0.0000 H   0  0  0  0  0  0  0  0  0  0  0  0
    6.6649    4.1634    0.0000 H   0  0  0  0  0  0  0  0  0  0  0  0
    6.7758    3.3740    0.0000 H   0  0  0  0  0  0  0  0  0  0  0  0
    4.2216    2.5430    0.0000 H   0  0  0  0  0  0  0  0  0  0  0  0
    4.7673    3.7084    0.0000 H   0  0  0  0  0  0  0  0  0  0  0  0
    4.0283    4.0069    0.0000 H   0  0  0  0  0  0  0  0  0  0  0  0
    3.8470    1.6158    0.0000 H   0  0  0  0  0  0  0  0  0  0  0  0
    4.8427    1.2135    0.0000 H   0  0  0  0  0  0  0  0  0  0  0  0
    7.1819    6.1248    0.0000 H   0  0  0  0  0  0  0  0  0  0  0  0
    2.0000    3.9798    0.0000 H   0  0  0  0  0  0  0  0  0  0  0  0
  1 21  1  0  0  0  0
  1 62  1  0  0  0  0
  2 24  1  0  0  0  0
  2 62  1  0  0  0  0
  3 31  2  0  0  0  0
  4 39  2  0  0  0  0
  5 48  2  0  0  0  0
  6 53  2  0  0  0  0
  7 57  2  0  0  0  0
  8 59  1  0  0  0  0
  8128  1  0  0  0  0
  9 59  2  0  0  0  0
 10 61  1  0  0  0  0
 10129  1  0  0  0  0
 11 61  2  0  0  0  0
 28 12  1  6  0  0  0
 12 31  1  0  0  0  0
 12 82  1  0  0  0  0
 13 32  1  0  0  0  0
 13 37  1  0  0  0  0
 13 39  1  0  0  0  0
 43 14  1  1  0  0  0
 14 48  1  0  0  0  0
 14101  1  0  0  0  0
 49 15  1  6  0  0  0
 15 53  1  0  0  0  0
 15110  1  0  0  0  0
 54 16  1  1  0  0  0
 16 57  1  0  0  0  0
 16120  1  0  0  0  0
 58 17  1  1  0  0  0
 17126  1  0  0  0  0
 17127  1  0  0  0  0
 18 19  1  0  0  0  0
 18 21  1  0  0  0  0
 18 22  1  0  0  0  0
 18 63  1  1  0  0  0
 19 20  1  0  0  0  0
 19 25  1  0  0  0  0
 19 26  1  0  0  0  0
 20 22  1  0  0  0  0
 20 23  1  0  0  0  0
 20 64  1  1  0  0  0
 21 24  1  0  0  0  0
 21 27  1  1  0  0  0
 22 65  1  0  0  0  0
 22 66  1  0  0  0  0
 23 24  1  0  0  0  0
 23 67  1  0  0  0  0
 23 68  1  0  0  0  0
 24 69  1  1  0  0  0
 25 70  1  0  0  0  0
 25 71  1  0  0  0  0
 25 72  1  0  0  0  0
 26 73  1  0  0  0  0
 26 74  1  0  0  0  0
 26 75  1  0  0  0  0
 27 76  1  0  0  0  0
 27 77  1  0  0  0  0
 27 78  1  0  0  0  0
 28 29  1  0  0  0  0
 28 62  1  0  0  0  0
 28 79  1  0  0  0  0
 29 30  1  0  0  0  0
 29 80  1  0  0  0  0
 29 81  1  0  0  0  0
 30 33  1  0  0  0  0
 30 83  1  0  0  0  0
 30 84  1  0  0  0  0
 32 31  1  6  0  0  0
 32 34  1  0  0  0  0
 32 85  1  0  0  0  0
 33 36  1  0  0  0  0
 33 38  2  0  0  0  0
 34 35  1  0  0  0  0
 34 86  1  0  0  0  0
 34 87  1  0  0  0  0
 35 37  1  0  0  0  0
 35 88  1  0  0  0  0
 35 89  1  0  0  0  0
 36 40  2  0  0  0  0
 36 41  1  0  0  0  0
 37 90  1  0  0  0  0
 37 91  1  0  0  0  0
 38 42  1  0  0  0  0
 38 92  1  0  0  0  0
 39 43  1  0  0  0  0
 40 44  1  0  0  0  0
 40 93  1  0  0  0  0
 41 94  1  0  0  0  0
 41 95  1  0  0  0  0
 41 96  1  0  0  0  0
 42 44  2  0  0  0  0
 42 97  1  0  0  0  0
 43 45  1  0  0  0  0
 43 98  1  0  0  0  0
 44 99  1  0  0  0  0
 45 46  1  0  0  0  0
 45 47  1  0  0  0  0
 45100  1  0  0  0  0
 46102  1  0  0  0  0
 46103  1  0  0  0  0
 46104  1  0  0  0  0
 47105  1  0  0  0  0
 47106  1  0  0  0  0
 47107  1  0  0  0  0
 48 49  1  0  0  0  0
 49 50  1  0  0  0  0
 49108  1  0  0  0  0
 50 51  1  0  0  0  0
 50 52  1  0  0  0  0
 50109  1  0  0  0  0
 51111  1  0  0  0  0
 51112  1  0  0  0  0
 51113  1  0  0  0  0
 52114  1  0  0  0  0
 52115  1  0  0  0  0
 52116  1  0  0  0  0
 53 54  1  0  0  0  0
 54 55  1  0  0  0  0
 54117  1  0  0  0  0
 55 56  1  0  0  0  0
 55118  1  0  0  0  0
 55119  1  0  0  0  0
 56 59  1  0  0  0  0
 56121  1  0  0  0  0
 56122  1  0  0  0  0
 57 58  1  0  0  0  0
 58 60  1  0  0  0  0
 58123  1  0  0  0  0
 60 61  1  0  0  0  0
 60124  1  0  0  0  0
 60125  1  0  0  0  0
M  END
> <PUBCHEM_COMPOUND_CID>
500535
> <PUBCHEM_COMPOUND_CANONICALIZED>
1
> <PUBCHEM_CACTVS_COMPLEXITY>
1680
> <PUBCHEM_CACTVS_HBOND_ACCEPTOR>
12
> <PUBCHEM_CACTVS_HBOND_DONOR>
7
> <PUBCHEM_CACTVS_ROTATABLE_BOND>
20
> <PUBCHEM_CACTVS_SUBSKEYS>
AAADcfJ/vAAAAAAAAAAAAAAAAABgAWJAAAAwYMAAAAAAAEgBAAAoHgAQCAAAD3zhmAYyCIPAAgCIAiHSGAACAAAgAAAIiIGIAIgJYDqAkTCUYAAmlgCIiAe/1/IPgAAAAAAQAADAAAYAADCAAAAAAAAAAA==
> <PUBCHEM_IUPAC_OPENEYE_NAME>
(4S)-4-[[(2S)-2-amino-3-carboxy-propanoyl]amino]-5-[[(1S)-2-methyl-1-[[(1S)-2-methyl-1-[(2S)-2-[[(1R)-3-(o-tolyl)-1-[(1R,2S,6R,8S)-2,9,9-trimethyl-3,5-dioxa-4-boratricyclo[6.1.1.02,6]decan-4-yl]propyl]carbamoyl]pyrrolidine-1-carbonyl]propyl]carbamoyl]propyl]amino]-5-oxo-pentanoic acid
> <PUBCHEM_IUPAC_CAS_NAME>
(4S)-4-[[(2S)-2-amino-3-carboxy-1-oxopropyl]amino]-5-[[(2S)-3-methyl-1-[[(2S)-3-methyl-1-[(2S)-2-[[[(1R)-3-(2-methylphenyl)-1-[(1R,2S,6R,8S)-2,9,9-trimethyl-3,5-dioxa-4-boratricyclo[6.1.1.02,6]decan-4-yl]propyl]amino]-oxomethyl]-1-pyrrolidinyl]-1-oxobutan-2-yl]amino]-1-oxobutan-2-yl]amino]-5-oxopentanoic acid
> <PUBCHEM_IUPAC_NAME_MARKUP>
(4<I>S</I>)-4-[[(2<I>S</I>)-2-amino-3-carboxypropanoyl]amino]-5-[[(2<I>S</I>)-3-methyl-1-[[(2<I>S</I>)-3-methyl-1-[(2<I>S</I>)-2-[[(1<I>R</I>)-3-(2-methylphenyl)-1-[(1<I>R</I>,2<I>S</I>,6<I>R</I>,8<I>S</I>)-2,9,9-trimethyl-3,5-dioxa-4-boratricyclo[6.1.1.0<SUP>2,6</SUP>]decan-4-yl]propyl]carbamoyl]pyrrolidin-1-yl]-1-oxobutan-2-yl]amino]-1-oxobutan-2-yl]amino]-5-oxopentanoic acid
> <PUBCHEM_IUPAC_NAME>
(4S)-4-[[(2S)-2-amino-3-carboxypropanoyl]amino]-5-[[(2S)-3-methyl-1-[[(2S)-3-methyl-1-[(2S)-2-[[(1R)-3-(2-methylphenyl)-1-[(1R,2S,6R,8S)-2,9,9-trimethyl-3,5-dioxa-4-boratricyclo[6.1.1.02,6]decan-4-yl]propyl]carbamoyl]pyrrolidin-1-yl]-1-oxobutan-2-yl]amino]-1-oxobutan-2-yl]amino]-5-oxopentanoic acid
> <PUBCHEM_IUPAC_SYSTEMATIC_NAME>
(4S)-4-[[(2S)-2-azanyl-4-oxidanyl-4-oxidanylidene-butanoyl]amino]-5-[[(2S)-3-methyl-1-[[(2S)-3-methyl-1-[(2S)-2-[[(1R)-3-(2-methylphenyl)-1-[(1R,2S,6R,8S)-2,9,9-trimethyl-3,5-dioxa-4-boratricyclo[6.1.1.02,6]decan-4-yl]propyl]carbamoyl]pyrrolidin-1-yl]-1-oxidanylidene-butan-2-yl]amino]-1-oxidanylidene-butan-2-yl]amino]-5-oxidanylidene-pentanoic acid
> <PUBCHEM_IUPAC_TRADITIONAL_NAME>
(4S)-4-[[(2S)-2-amino-3-carboxy-propanoyl]amino]-5-keto-5-[[(1S)-2-methyl-1-[[(1S)-2-methyl-1-[(2S)-2-[[(1R)-3-(o-tolyl)-1-[(1R,2S,6R,8S)-2,9,9-trimethyl-3,5-dioxa-4-boratricyclo[6.1.1.02,6]decan-4-yl]propyl]carbamoyl]pyrrolidine-1-carbonyl]propyl]carbamoyl]propyl]amino]valeric acid
> <PUBCHEM_IUPAC_INCHI>
InChI=1S/C44H67BN6O11/c1-23(2)36(49-39(57)29(16-18-34(52)53)47-38(56)28(46)22-35(54)55)41(59)50-37(24(3)4)42(60)51-19-11-14-30(51)40(58)48-33(17-15-26-13-10-9-12-25(26)5)45-61-32-21-27-20-31(43(27,6)7)44(32,8)62-45/h9-10,12-13,23-24,27-33,36-37H,11,14-22,46H2,1-8H3,(H,47,56)(H,48,58)(H,49,57)(H,50,59)(H,52,53)(H,54,55)/t27-,28-,29-,30-,31+,32+,33-,36-,37-,44-/m0/s1
> <PUBCHEM_IUPAC_INCHIKEY>
NHTWPUVEDWYFLH-RUCUBMSCSA-N
> <PUBCHEM_EXACT_MASS>
866.4960871
> <PUBCHEM_MOLECULAR_FORMULA>
C44H67BN6O11
> <PUBCHEM_MOLECULAR_WEIGHT>
866.8
> <PUBCHEM_OPENEYE_CAN_SMILES>
B1(OC2CC3CC(C3(C)C)C2(O1)C)C(CCC4=CC=CC=C4C)NC(=O)C5CCCN5C(=O)C(C(C)C)NC(=O)C(C(C)C)NC(=O)C(CCC(=O)O)NC(=O)C(CC(=O)O)N
> <PUBCHEM_OPENEYE_ISO_SMILES>
B1(O[C@@H]2C[C@@H]3C[C@@H]([C@@]2(O1)C)C3(C)C)[C@H](CCC4=CC=CC=C4C)NC(=O)[C@@H]5CCCN5C(=O)[C@H](C(C)C)NC(=O)[C@H](C(C)C)NC(=O)[C@H](CCC(=O)O)NC(=O)[C@H](CC(=O)O)N
> <PUBCHEM_CACTVS_TPSA>
256
> <PUBCHEM_MONOISOTOPIC_WEIGHT>
866.4960871
> <PUBCHEM_TOTAL_CHARGE>
0
> <PUBCHEM_HEAVY_ATOM_COUNT>
62
> <PUBCHEM_ATOM_DEF_STEREO_COUNT>
10
> <PUBCHEM_ATOM_UDEF_STEREO_COUNT>
0
> <PUBCHEM_BOND_DEF_STEREO_COUNT>
0
> <PUBCHEM_BOND_UDEF_STEREO_COUNT>
0
> <PUBCHEM_ISOTOPIC_ATOM_COUNT>
0
> <PUBCHEM_COMPONENT_COUNT>
1
> <PUBCHEM_CACTVS_TAUTO_COUNT>
-1
> <PUBCHEM_COORDINATE_TYPE>
1
5
255
> <PUBCHEM_BONDANNOTATIONS>
28  12  6
43  14  5
49  15  6
54  16  5
58  17  5
18  63  5
20  64  5
21  27  5
24  69  5
32  31  6
33  36  8
33  38  8
36  40  8
38  42  8
40  44  8
42  44  8
$$$$
