500597
  -OEChem-10302200282D
118119  0     1  0  0  0  0  0999 V2000
    6.2524   -3.2540    0.0000 O   0  0  0  0  0  0  0  0  0  0  0  0
    6.9334    1.0074    0.0000 O   0  0  0  0  0  0  0  0  0  0  0  0
    5.5714    1.0074    0.0000 O   0  0  0  0  0  0  0  0  0  0  0  0
   10.3238   -0.2197    0.0000 O   0  0  0  0  0  0  0  0  0  0  0  0
   11.9061    0.4848    0.0000 O   0  0  0  0  0  0  0  0  0  0  0  0
   11.6804    3.1209    0.0000 O   0  0  0  0  0  0  0  0  0  0  0  0
    2.1810   -0.2197    0.0000 O   0  0  0  0  0  0  0  0  0  0  0  0
   15.0707    1.8937    0.0000 O   0  0  0  0  0  0  0  0  0  0  0  0
   15.8841    0.0666    0.0000 O   0  0  0  0  0  0  0  0  0  0  0  0
   14.3018   -0.6378    0.0000 O   0  0  0  0  0  0  0  0  0  0  0  0
   15.0260    6.2524    0.0000 O   0  0  0  0  0  0  0  0  0  0  0  0
   16.4273    5.2343    0.0000 O   0  0  0  0  0  0  0  0  0  0  0  0
   16.0652    1.7892    0.0000 O   0  0  0  0  0  0  0  0  0  0  0  0
    6.7524   -0.7152    0.0000 N   0  0  0  0  0  0  0  0  0  0  0  0
    8.9225    0.7983    0.0000 N   0  0  0  0  0  0  0  0  0  0  0  0
    4.1701   -0.0107    0.0000 N   0  0  0  0  0  0  0  0  0  0  0  0
   11.4993    1.3983    0.0000 N   0  0  0  0  0  0  0  0  0  0  0  0
    3.5823    0.7983    0.0000 N   0  0  0  0  0  0  0  0  0  0  0  0
   13.6694    2.9118    0.0000 N   0  0  0  0  0  0  0  0  0  0  0  0
   16.2462    3.5118    0.0000 N   0  0  0  0  0  0  0  0  0  0  0  0
    5.7524   -0.7152    0.0000 C   0  0  1  0  0  0  0  0  0  0  0  0
    6.2524   -2.2540    0.0000 C   0  0  2  0  0  0  0  0  0  0  0  0
    5.4434   -1.6662    0.0000 C   0  0  0  0  0  0  0  0  0  0  0  0
    7.0614   -1.6662    0.0000 C   0  0  0  0  0  0  0  0  0  0  0  0
    8.3347   -0.0107    0.0000 C   0  0  2  0  0  0  0  0  0  0  0  0
    7.3402    0.0939    0.0000 C   0  0  0  0  0  0  0  0  0  0  0  0
    5.1646    0.0939    0.0000 C   0  0  0  0  0  0  0  0  0  0  0  0
    8.7414   -0.9242    0.0000 C   0  0  0  0  0  0  0  0  0  0  0  0
   10.5048    1.5028    0.0000 C   0  0  1  0  0  0  0  0  0  0  0  0
    5.3864   -3.7540    0.0000 C   0  0  0  0  0  0  0  0  0  0  0  0
    9.7360   -1.0287    0.0000 C   0  0  0  0  0  0  0  0  0  0  0  0
    8.1537   -1.7332    0.0000 C   0  0  0  0  0  0  0  0  0  0  0  0
   10.0981    2.4164    0.0000 C   0  0  2  0  0  0  0  0  0  0  0  0
    9.9170    0.6938    0.0000 C   0  0  0  0  0  0  0  0  0  0  0  0
   10.6858    3.2254    0.0000 C   0  0  0  0  0  0  0  0  0  0  0  0
    5.3864   -4.7540    0.0000 C   0  0  0  0  0  0  0  0  0  0  0  0
    9.1035    2.5209    0.0000 C   0  0  0  0  0  0  0  0  0  0  0  0
    3.9890    1.7119    0.0000 C   0  0  0  0  0  0  0  0  0  0  0  0
   12.0871    2.2073    0.0000 C   0  0  0  0  0  0  0  0  0  0  0  0
   13.0816    2.1028    0.0000 C   0  0  1  0  0  0  0  0  0  0  0  0
   10.2791    4.1389    0.0000 C   0  0  0  0  0  0  0  0  0  0  0  0
    2.5878    0.6938    0.0000 C   0  0  0  0  0  0  0  0  0  0  0  0
    4.5204   -5.2540    0.0000 C   0  0  0  0  0  0  0  0  0  0  0  0
    6.2524   -5.2540    0.0000 C   0  0  0  0  0  0  0  0  0  0  0  0
    3.4013    2.5209    0.0000 C   0  0  0  0  0  0  0  0  0  0  0  0
   13.4884    1.1892    0.0000 C   0  0  0  0  0  0  0  0  0  0  0  0
    4.5204   -6.2540    0.0000 C   0  0  0  0  0  0  0  0  0  0  0  0
    6.2524   -6.2540    0.0000 C   0  0  0  0  0  0  0  0  0  0  0  0
    2.0000    1.5028    0.0000 C   0  0  0  0  0  0  0  0  0  0  0  0
   14.4829    1.0847    0.0000 C   0  0  0  0  0  0  0  0  0  0  0  0
    3.8080    3.4345    0.0000 C   0  0  0  0  0  0  0  0  0  0  0  0
    5.3864   -6.7540    0.0000 C   0  0  0  0  0  0  0  0  0  0  0  0
   14.6639    2.8073    0.0000 C   0  0  0  0  0  0  0  0  0  0  0  0
   15.2517    3.6163    0.0000 C   0  0  2  0  0  0  0  0  0  0  0  0
   14.8896    0.1712    0.0000 C   0  0  0  0  0  0  0  0  0  0  0  0
   14.8450    4.5298    0.0000 C   0  0  0  0  0  0  0  0  0  0  0  0
   15.4328    5.3389    0.0000 C   0  0  0  0  0  0  0  0  0  0  0  0
   16.6530    2.5982    0.0000 C   0  0  0  0  0  0  0  0  0  0  0  0
   17.6475    2.4937    0.0000 C   0  0  0  0  0  0  0  0  0  0  0  0
    6.0339   -0.1627    0.0000 H   0  0  0  0  0  0  0  0  0  0  0  0
    5.7000   -2.5355    0.0000 H   0  0  0  0  0  0  0  0  0  0  0  0
    4.8770   -1.4140    0.0000 H   0  0  0  0  0  0  0  0  0  0  0  0
    5.1334   -2.2032    0.0000 H   0  0  0  0  0  0  0  0  0  0  0  0
    7.3714   -2.2032    0.0000 H   0  0  0  0  0  0  0  0  0  0  0  0
    7.6278   -1.4140    0.0000 H   0  0  0  0  0  0  0  0  0  0  0  0
    8.0825    0.5557    0.0000 H   0  0  0  0  0  0  0  0  0  0  0  0
    9.1059   -0.4226    0.0000 H   0  0  0  0  0  0  0  0  0  0  0  0
    8.6703    1.3647    0.0000 H   0  0  0  0  0  0  0  0  0  0  0  0
   10.7570    0.9364    0.0000 H   0  0  0  0  0  0  0  0  0  0  0  0
    5.1743   -3.1714    0.0000 H   0  0  0  0  0  0  0  0  0  0  0  0
    4.7758   -3.8617    0.0000 H   0  0  0  0  0  0  0  0  0  0  0  0
    9.6712   -1.6454    0.0000 H   0  0  0  0  0  0  0  0  0  0  0  0
   10.3526   -1.0936    0.0000 H   0  0  0  0  0  0  0  0  0  0  0  0
    9.8008   -0.4121    0.0000 H   0  0  0  0  0  0  0  0  0  0  0  0
    7.6521   -1.3688    0.0000 H   0  0  0  0  0  0  0  0  0  0  0  0
    7.7892   -2.2348    0.0000 H   0  0  0  0  0  0  0  0  0  0  0  0
    8.6552   -2.0977    0.0000 H   0  0  0  0  0  0  0  0  0  0  0  0
    9.8459    2.9828    0.0000 H   0  0  0  0  0  0  0  0  0  0  0  0
    3.9179   -0.5771    0.0000 H   0  0  0  0  0  0  0  0  0  0  0  0
   11.1165    2.7794    0.0000 H   0  0  0  0  0  0  0  0  0  0  0  0
   11.1999    3.5721    0.0000 H   0  0  0  0  0  0  0  0  0  0  0  0
    9.1684    3.1375    0.0000 H   0  0  0  0  0  0  0  0  0  0  0  0
    8.4869    2.5857    0.0000 H   0  0  0  0  0  0  0  0  0  0  0  0
    9.0387    1.9043    0.0000 H   0  0  0  0  0  0  0  0  0  0  0  0
    4.5030    1.3652    0.0000 H   0  0  0  0  0  0  0  0  0  0  0  0
    4.4197    2.1579    0.0000 H   0  0  0  0  0  0  0  0  0  0  0  0
   12.8295    2.6692    0.0000 H   0  0  0  0  0  0  0  0  0  0  0  0
   10.8455    4.3911    0.0000 H   0  0  0  0  0  0  0  0  0  0  0  0
   10.0269    4.7053    0.0000 H   0  0  0  0  0  0  0  0  0  0  0  0
    9.7127    3.8868    0.0000 H   0  0  0  0  0  0  0  0  0  0  0  0
    3.9834   -4.9440    0.0000 H   0  0  0  0  0  0  0  0  0  0  0  0
    6.7893   -4.9440    0.0000 H   0  0  0  0  0  0  0  0  0  0  0  0
    2.8873    2.8676    0.0000 H   0  0  0  0  0  0  0  0  0  0  0  0
    2.9706    2.0749    0.0000 H   0  0  0  0  0  0  0  0  0  0  0  0
   12.8868    1.0393    0.0000 H   0  0  0  0  0  0  0  0  0  0  0  0
   13.5316    0.5708    0.0000 H   0  0  0  0  0  0  0  0  0  0  0  0
   12.5227    0.4200    0.0000 H   0  0  0  0  0  0  0  0  0  0  0  0
   13.4172    3.4782    0.0000 H   0  0  0  0  0  0  0  0  0  0  0  0
    3.9834   -6.5640    0.0000 H   0  0  0  0  0  0  0  0  0  0  0  0
    6.7893   -6.5640    0.0000 H   0  0  0  0  0  0  0  0  0  0  0  0
    2.5016    1.8673    0.0000 H   0  0  0  0  0  0  0  0  0  0  0  0
    1.6356    2.0044    0.0000 H   0  0  0  0  0  0  0  0  0  0  0  0
    1.4984    1.1384    0.0000 H   0  0  0  0  0  0  0  0  0  0  0  0
   15.0845    1.2347    0.0000 H   0  0  0  0  0  0  0  0  0  0  0  0
   14.4396    1.7032    0.0000 H   0  0  0  0  0  0  0  0  0  0  0  0
    4.3744    3.1823    0.0000 H   0  0  0  0  0  0  0  0  0  0  0  0
    4.0602    4.0008    0.0000 H   0  0  0  0  0  0  0  0  0  0  0  0
    3.2416    3.6866    0.0000 H   0  0  0  0  0  0  0  0  0  0  0  0
    5.3864   -7.3740    0.0000 H   0  0  0  0  0  0  0  0  0  0  0  0
   15.5039    3.0499    0.0000 H   0  0  0  0  0  0  0  0  0  0  0  0
   14.4143    4.9758    0.0000 H   0  0  0  0  0  0  0  0  0  0  0  0
   14.3310    4.1832    0.0000 H   0  0  0  0  0  0  0  0  0  0  0  0
   16.6107    4.0134    0.0000 H   0  0  0  0  0  0  0  0  0  0  0  0
   16.1363   -0.4998    0.0000 H   0  0  0  0  0  0  0  0  0  0  0  0
   17.5827    1.8771    0.0000 H   0  0  0  0  0  0  0  0  0  0  0  0
   18.2641    2.4289    0.0000 H   0  0  0  0  0  0  0  0  0  0  0  0
   17.7123    3.1103    0.0000 H   0  0  0  0  0  0  0  0  0  0  0  0
   15.3905    6.7540    0.0000 H   0  0  0  0  0  0  0  0  0  0  0  0
 22  1  1  6  0  0  0
  1 30  1  0  0  0  0
  2 26  2  0  0  0  0
  3 27  2  0  0  0  0
  4 34  2  0  0  0  0
  5 17  1  0  0  0  0
  5 97  1  0  0  0  0
  6 39  2  0  0  0  0
  7 42  2  0  0  0  0
  8 53  2  0  0  0  0
  9 55  1  0  0  0  0
  9114  1  0  0  0  0
 10 55  2  0  0  0  0
 11 57  1  0  0  0  0
 11118  1  0  0  0  0
 12 57  2  0  0  0  0
 13 58  2  0  0  0  0
 14 21  1  0  0  0  0
 14 24  1  0  0  0  0
 14 26  1  0  0  0  0
 25 15  1  1  0  0  0
 15 34  1  0  0  0  0
 15 68  1  0  0  0  0
 16 18  1  0  0  0  0
 16 27  1  0  0  0  0
 16 79  1  0  0  0  0
 29 17  1  6  0  0  0
 17 39  1  0  0  0  0
 18 38  1  0  0  0  0
 18 42  1  0  0  0  0
 40 19  1  6  0  0  0
 19 53  1  0  0  0  0
 19 98  1  0  0  0  0
 54 20  1  6  0  0  0
 20 58  1  0  0  0  0
 20113  1  0  0  0  0
 21 23  1  0  0  0  0
 21 27  1  1  0  0  0
 21 60  1  0  0  0  0
 22 23  1  0  0  0  0
 22 24  1  0  0  0  0
 22 61  1  0  0  0  0
 23 62  1  0  0  0  0
 23 63  1  0  0  0  0
 24 64  1  0  0  0  0
 24 65  1  0  0  0  0
 25 26  1  0  0  0  0
 25 28  1  0  0  0  0
 25 66  1  0  0  0  0
 28 31  1  0  0  0  0
 28 32  1  0  0  0  0
 28 67  1  0  0  0  0
 29 33  1  0  0  0  0
 29 34  1  0  0  0  0
 29 69  1  0  0  0  0
 30 36  1  0  0  0  0
 30 70  1  0  0  0  0
 30 71  1  0  0  0  0
 31 72  1  0  0  0  0
 31 73  1  0  0  0  0
 31 74  1  0  0  0  0
 32 75  1  0  0  0  0
 32 76  1  0  0  0  0
 32 77  1  0  0  0  0
 33 35  1  0  0  0  0
 33 37  1  1  0  0  0
 33 78  1  0  0  0  0
 35 41  1  0  0  0  0
 35 80  1  0  0  0  0
 35 81  1  0  0  0  0
 36 43  2  0  0  0  0
 36 44  1  0  0  0  0
 37 82  1  0  0  0  0
 37 83  1  0  0  0  0
 37 84  1  0  0  0  0
 38 45  1  0  0  0  0
 38 85  1  0  0  0  0
 38 86  1  0  0  0  0
 39 40  1  0  0  0  0
 40 46  1  0  0  0  0
 40 87  1  0  0  0  0
 41 88  1  0  0  0  0
 41 89  1  0  0  0  0
 41 90  1  0  0  0  0
 42 49  1  0  0  0  0
 43 47  1  0  0  0  0
 43 91  1  0  0  0  0
 44 48  2  0  0  0  0
 44 92  1  0  0  0  0
 45 51  1  0  0  0  0
 45 93  1  0  0  0  0
 45 94  1  0  0  0  0
 46 50  1  0  0  0  0
 46 95  1  0  0  0  0
 46 96  1  0  0  0  0
 47 52  2  0  0  0  0
 47 99  1  0  0  0  0
 48 52  1  0  0  0  0
 48100  1  0  0  0  0
 49101  1  0  0  0  0
 49102  1  0  0  0  0
 49103  1  0  0  0  0
 50 55  1  0  0  0  0
 50104  1  0  0  0  0
 50105  1  0  0  0  0
 51106  1  0  0  0  0
 51107  1  0  0  0  0
 51108  1  0  0  0  0
 52109  1  0  0  0  0
 53 54  1  0  0  0  0
 54 56  1  0  0  0  0
 54110  1  0  0  0  0
 56 57  1  0  0  0  0
 56111  1  0  0  0  0
 56112  1  0  0  0  0
 58 59  1  0  0  0  0
 59115  1  0  0  0  0
 59116  1  0  0  0  0
 59117  1  0  0  0  0
M  END
> <PUBCHEM_COMPOUND_CID>
500597
> <PUBCHEM_COMPOUND_CANONICALIZED>
1
> <PUBCHEM_CACTVS_COMPLEXITY>
1500
> <PUBCHEM_CACTVS_HBOND_ACCEPTOR>
13
> <PUBCHEM_CACTVS_HBOND_DONOR>
7
> <PUBCHEM_CACTVS_ROTATABLE_BOND>
22
> <PUBCHEM_CACTVS_SUBSKEYS>
AAADcfB/vAAAAAAAAAAAAAAAAAAAAWAAAAAwAAAAAAAAAAABAAAAHgAcCAAADTzhmAYyCIPyBgCIAiHSGAACAAAgAAA6qIGICIgKZjqAsTiXcAAm1gGYqAe/1yIOAAAAAAAAAAAAAAAAAAAAAAAAAAAAAA==
> <PUBCHEM_IUPAC_OPENEYE_NAME>
(4R)-4-[[(2S)-2-acetamido-3-carboxy-propanoyl]amino]-5-[[(1S,2S)-1-[[(1S)-1-[(2S,4R)-2-[[acetyl(propyl)amino]carbamoyl]-4-benzyloxy-pyrrolidine-1-carbonyl]-2-methyl-propyl]carbamoyl]-2-methyl-butyl]-hydroxy-amino]-5-oxo-pentanoic acid
> <PUBCHEM_IUPAC_CAS_NAME>
(4R)-4-[[(2S)-2-acetamido-3-carboxy-1-oxopropyl]amino]-5-[[(2S,3S)-1-[[(2S)-1-[(2S,4R)-2-[(2-acetyl-2-propylhydrazinyl)-oxomethyl]-4-phenylmethoxy-1-pyrrolidinyl]-3-methyl-1-oxobutan-2-yl]amino]-3-methyl-1-oxopentan-2-yl]-hydroxyamino]-5-oxopentanoic acid
> <PUBCHEM_IUPAC_NAME_MARKUP>
(4<I>R</I>)-4-[[(2<I>S</I>)-2-acetamido-3-carboxypropanoyl]amino]-5-[[(2<I>S</I>,3<I>S</I>)-1-[[(2<I>S</I>)-1-[(2<I>S</I>,4<I>R</I>)-2-[[acetyl(propyl)amino]carbamoyl]-4-phenylmethoxypyrrolidin-1-yl]-3-methyl-1-oxobutan-2-yl]amino]-3-methyl-1-oxopentan-2-yl]-hydroxyamino]-5-oxopentanoic acid
> <PUBCHEM_IUPAC_NAME>
(4R)-4-[[(2S)-2-acetamido-3-carboxypropanoyl]amino]-5-[[(2S,3S)-1-[[(2S)-1-[(2S,4R)-2-[[acetyl(propyl)amino]carbamoyl]-4-phenylmethoxypyrrolidin-1-yl]-3-methyl-1-oxobutan-2-yl]amino]-3-methyl-1-oxopentan-2-yl]-hydroxyamino]-5-oxopentanoic acid
> <PUBCHEM_IUPAC_SYSTEMATIC_NAME>
(4R)-4-[[(2S)-2-acetamido-4-oxidanyl-4-oxidanylidene-butanoyl]amino]-5-[[(2S,3S)-1-[[(2S)-1-[(2S,4R)-2-[[ethanoyl(propyl)amino]carbamoyl]-4-phenylmethoxy-pyrrolidin-1-yl]-3-methyl-1-oxidanylidene-butan-2-yl]amino]-3-methyl-1-oxidanylidene-pentan-2-yl]-oxidanyl-amino]-5-oxidanylidene-pentanoic acid
> <PUBCHEM_IUPAC_TRADITIONAL_NAME>
(4R)-4-[[(2S)-2-acetamido-3-carboxy-propanoyl]amino]-5-[[(1S,2S)-1-[[(1S)-1-[(2S,4R)-2-[[acetyl(propyl)amino]carbamoyl]-4-benzoxy-pyrrolidine-1-carbonyl]-2-methyl-propyl]carbamoyl]-2-methyl-butyl]-hydroxy-amino]-5-keto-valeric acid
> <PUBCHEM_IUPAC_INCHI>
InChI=1S/C39H59N7O13/c1-8-17-45(25(7)48)43-36(54)30-18-27(59-21-26-13-11-10-12-14-26)20-44(30)39(57)33(22(3)4)42-37(55)34(23(5)9-2)46(58)38(56)28(15-16-31(49)50)41-35(53)29(19-32(51)52)40-24(6)47/h10-14,22-23,27-30,33-34,58H,8-9,15-21H2,1-7H3,(H,40,47)(H,41,53)(H,42,55)(H,43,54)(H,49,50)(H,51,52)/t23-,27+,28+,29-,30-,33-,34-/m0/s1
> <PUBCHEM_IUPAC_INCHIKEY>
GAHNHQNBLVRHIE-RTADNNTHSA-N
> <PUBCHEM_XLOGP3_AA>
0.8
> <PUBCHEM_EXACT_MASS>
833.41708496
> <PUBCHEM_MOLECULAR_FORMULA>
C39H59N7O13
> <PUBCHEM_MOLECULAR_WEIGHT>
833.9
> <PUBCHEM_OPENEYE_CAN_SMILES>
CCCN(C(=O)C)NC(=O)C1CC(CN1C(=O)C(C(C)C)NC(=O)C(C(C)CC)N(C(=O)C(CCC(=O)O)NC(=O)C(CC(=O)O)NC(=O)C)O)OCC2=CC=CC=C2
> <PUBCHEM_OPENEYE_ISO_SMILES>
CCCN(C(=O)C)NC(=O)[C@@H]1C[C@H](CN1C(=O)[C@H](C(C)C)NC(=O)[C@H]([C@@H](C)CC)N(C(=O)[C@@H](CCC(=O)O)NC(=O)[C@H](CC(=O)O)NC(=O)C)O)OCC2=CC=CC=C2
> <PUBCHEM_CACTVS_TPSA>
281
> <PUBCHEM_MONOISOTOPIC_WEIGHT>
833.41708496
> <PUBCHEM_TOTAL_CHARGE>
0
> <PUBCHEM_HEAVY_ATOM_COUNT>
59
> <PUBCHEM_ATOM_DEF_STEREO_COUNT>
7
> <PUBCHEM_ATOM_UDEF_STEREO_COUNT>
0
> <PUBCHEM_BOND_DEF_STEREO_COUNT>
0
> <PUBCHEM_BOND_UDEF_STEREO_COUNT>
0
> <PUBCHEM_ISOTOPIC_ATOM_COUNT>
0
> <PUBCHEM_COMPONENT_COUNT>
1
> <PUBCHEM_CACTVS_TAUTO_COUNT>
-1
> <PUBCHEM_COORDINATE_TYPE>
1
5
255
> <PUBCHEM_BONDANNOTATIONS>
22  1  6
25  15  5
29  17  6
40  19  6
54  20  6
21  27  5
33  37  5
36  43  8
36  44  8
43  47  8
44  48  8
47  52  8
48  52  8
$$$$
