500589
  -OEChem-10302200282D
108111  0     1  0  0  0  0  0999 V2000
    5.4641   -1.5200    0.0000 O   0  0  0  0  0  0  0  0  0  0  0  0
    5.6065   -0.1653    0.0000 O   0  0  0  0  0  0  0  0  0  0  0  0
    6.3301   -5.0200    0.0000 O   0  0  0  0  0  0  0  0  0  0  0  0
    2.8660   -6.0200    0.0000 O   0  0  0  0  0  0  0  0  0  0  0  0
    7.1813    3.0781    0.0000 O   0  0  0  0  0  0  0  0  0  0  0  0
    4.5360    3.1292    0.0000 O   0  0  0  0  0  0  0  0  0  0  0  0
    7.1962   -1.5200    0.0000 N   0  0  0  0  0  0  0  0  0  0  0  0
    5.4641   -3.5200    0.0000 N   0  0  0  0  0  0  0  0  0  0  0  0
    6.7654    1.1218    0.0000 N   0  0  0  0  0  0  0  0  0  0  0  0
    3.7320   -4.5200    0.0000 N   0  0  0  0  0  0  0  0  0  0  0  0
    5.6950    4.4164    0.0000 N   0  0  0  0  0  0  0  0  0  0  0  0
    5.5756    8.0200    0.0000 N   0  0  0  0  0  0  0  0  0  0  0  0
    8.7788   -1.1836    0.0000 C   0  0  2  0  0  0  0  0  0  0  0  0
    8.2788   -0.3175    0.0000 C   0  0  0  0  0  0  0  0  0  0  0  0
    7.3007   -0.5254    0.0000 C   0  0  1  0  0  0  0  0  0  0  0  0
    8.1097   -1.9267    0.0000 C   0  0  0  0  0  0  0  0  0  0  0  0
    9.7734   -1.2881    0.0000 C   0  0  0  0  0  0  0  0  0  0  0  0
    4.5981   -6.0200    0.0000 C   0  0  0  0  0  0  0  0  0  0  0  0
    6.3301   -2.0200    0.0000 C   0  0  0  0  0  0  0  0  0  0  0  0
    6.3301   -3.0200    0.0000 C   0  0  2  0  0  0  0  0  0  0  0  0
    3.7320   -6.5200    0.0000 C   0  0  0  0  0  0  0  0  0  0  0  0
    5.4641   -6.5200    0.0000 C   0  0  0  0  0  0  0  0  0  0  0  0
    4.5981   -5.0200    0.0000 C   0  0  3  0  0  0  0  0  0  0  0  0
    6.5575    0.1437    0.0000 C   0  0  0  0  0  0  0  0  0  0  0  0
    3.7320   -7.5200    0.0000 C   0  0  0  0  0  0  0  0  0  0  0  0
    5.4641   -7.5200    0.0000 C   0  0  0  0  0  0  0  0  0  0  0  0
   10.3611   -0.4791    0.0000 C   0  0  0  0  0  0  0  0  0  0  0  0
    4.5981   -8.0200    0.0000 C   0  0  0  0  0  0  0  0  0  0  0  0
    7.1962   -3.5200    0.0000 C   0  0  0  0  0  0  0  0  0  0  0  0
    5.4641   -4.5200    0.0000 C   0  0  0  0  0  0  0  0  0  0  0  0
   11.3557   -0.5836    0.0000 C   0  0  0  0  0  0  0  0  0  0  0  0
    7.1962   -4.5200    0.0000 C   0  0  0  0  0  0  0  0  0  0  0  0
    8.0622   -3.0200    0.0000 C   0  0  0  0  0  0  0  0  0  0  0  0
    6.0223    1.7910    0.0000 C   0  0  3  0  0  0  0  0  0  0  0  0
    5.0712    1.4820    0.0000 C   0  0  0  0  0  0  0  0  0  0  0  0
    2.8660   -5.0200    0.0000 C   0  0  0  0  0  0  0  0  0  0  0  0
   11.7624   -1.4971    0.0000 C   0  0  0  0  0  0  0  0  0  0  0  0
   11.9434    0.2254    0.0000 C   0  0  0  0  0  0  0  0  0  0  0  0
    6.2302    2.7691    0.0000 C   0  0  0  0  0  0  0  0  0  0  0  0
    4.3281    2.1511    0.0000 C   0  0  0  0  0  0  0  0  0  0  0  0
   12.7569   -1.6017    0.0000 C   0  0  0  0  0  0  0  0  0  0  0  0
   12.9380    0.1209    0.0000 C   0  0  0  0  0  0  0  0  0  0  0  0
    2.0000   -4.5200    0.0000 C   0  0  0  0  0  0  0  0  0  0  0  0
   13.3447   -0.7927    0.0000 C   0  0  0  0  0  0  0  0  0  0  0  0
    5.4871    3.4382    0.0000 C   0  0  0  0  0  0  0  0  0  0  0  0
    3.3770    1.8421    0.0000 C   0  0  0  0  0  0  0  0  0  0  0  0
    4.9518    5.0855    0.0000 C   0  0  0  0  0  0  0  0  0  0  0  0
    5.1598    6.0637    0.0000 C   0  0  0  0  0  0  0  0  0  0  0  0
    6.1108    6.3727    0.0000 C   0  0  0  0  0  0  0  0  0  0  0  0
    4.4166    6.7328    0.0000 C   0  0  0  0  0  0  0  0  0  0  0  0
    6.3187    7.3508    0.0000 C   0  0  0  0  0  0  0  0  0  0  0  0
    4.6245    7.7110    0.0000 C   0  0  0  0  0  0  0  0  0  0  0  0
    9.1165   -0.6636    0.0000 H   0  0  0  0  0  0  0  0  0  0  0  0
    8.8452   -0.0654    0.0000 H   0  0  0  0  0  0  0  0  0  0  0  0
    8.0872    0.2721    0.0000 H   0  0  0  0  0  0  0  0  0  0  0  0
    6.7219   -0.7476    0.0000 H   0  0  0  0  0  0  0  0  0  0  0  0
    7.7997   -2.4636    0.0000 H   0  0  0  0  0  0  0  0  0  0  0  0
    8.6113   -2.2911    0.0000 H   0  0  0  0  0  0  0  0  0  0  0  0
    9.6025   -1.8841    0.0000 H   0  0  0  0  0  0  0  0  0  0  0  0
   10.3306   -1.5599    0.0000 H   0  0  0  0  0  0  0  0  0  0  0  0
    5.1350   -5.7100    0.0000 H   0  0  0  0  0  0  0  0  0  0  0  0
    5.7932   -2.7100    0.0000 H   0  0  0  0  0  0  0  0  0  0  0  0
    3.5200   -5.9374    0.0000 H   0  0  0  0  0  0  0  0  0  0  0  0
    3.1215   -6.6276    0.0000 H   0  0  0  0  0  0  0  0  0  0  0  0
    6.0747   -6.6276    0.0000 H   0  0  0  0  0  0  0  0  0  0  0  0
    5.6762   -5.9374    0.0000 H   0  0  0  0  0  0  0  0  0  0  0  0
    4.5981   -4.4000    0.0000 H   0  0  0  0  0  0  0  0  0  0  0  0
    3.1215   -7.4123    0.0000 H   0  0  0  0  0  0  0  0  0  0  0  0
    3.5200   -8.1026    0.0000 H   0  0  0  0  0  0  0  0  0  0  0  0
    5.6762   -8.1026    0.0000 H   0  0  0  0  0  0  0  0  0  0  0  0
    6.0747   -7.4123    0.0000 H   0  0  0  0  0  0  0  0  0  0  0  0
   10.5320    0.1169    0.0000 H   0  0  0  0  0  0  0  0  0  0  0  0
    9.8039   -0.2073    0.0000 H   0  0  0  0  0  0  0  0  0  0  0  0
    4.1996   -8.4949    0.0000 H   0  0  0  0  0  0  0  0  0  0  0  0
    4.9966   -8.4949    0.0000 H   0  0  0  0  0  0  0  0  0  0  0  0
    6.6592   -3.8300    0.0000 H   0  0  0  0  0  0  0  0  0  0  0  0
    4.9272   -3.2100    0.0000 H   0  0  0  0  0  0  0  0  0  0  0  0
    7.3551    1.3134    0.0000 H   0  0  0  0  0  0  0  0  0  0  0  0
    3.7320   -3.9000    0.0000 H   0  0  0  0  0  0  0  0  0  0  0  0
    6.5762   -4.5200    0.0000 H   0  0  0  0  0  0  0  0  0  0  0  0
    7.1962   -5.1400    0.0000 H   0  0  0  0  0  0  0  0  0  0  0  0
    7.8162   -4.5200    0.0000 H   0  0  0  0  0  0  0  0  0  0  0  0
    8.3722   -3.5569    0.0000 H   0  0  0  0  0  0  0  0  0  0  0  0
    8.5991   -2.7100    0.0000 H   0  0  0  0  0  0  0  0  0  0  0  0
    7.7522   -2.4830    0.0000 H   0  0  0  0  0  0  0  0  0  0  0  0
    6.6120    1.9826    0.0000 H   0  0  0  0  0  0  0  0  0  0  0  0
    4.5827    1.1002    0.0000 H   0  0  0  0  0  0  0  0  0  0  0  0
    5.3623    0.9345    0.0000 H   0  0  0  0  0  0  0  0  0  0  0  0
   11.3980   -1.9987    0.0000 H   0  0  0  0  0  0  0  0  0  0  0  0
   11.6913    0.7918    0.0000 H   0  0  0  0  0  0  0  0  0  0  0  0
    4.8167    2.5328    0.0000 H   0  0  0  0  0  0  0  0  0  0  0  0
    4.0370    2.6985    0.0000 H   0  0  0  0  0  0  0  0  0  0  0  0
   13.0091   -2.1681    0.0000 H   0  0  0  0  0  0  0  0  0  0  0  0
   13.3024    0.6225    0.0000 H   0  0  0  0  0  0  0  0  0  0  0  0
    2.3100   -3.9830    0.0000 H   0  0  0  0  0  0  0  0  0  0  0  0
    1.4631   -4.2100    0.0000 H   0  0  0  0  0  0  0  0  0  0  0  0
    1.6900   -5.0569    0.0000 H   0  0  0  0  0  0  0  0  0  0  0  0
   13.9613   -0.8575    0.0000 H   0  0  0  0  0  0  0  0  0  0  0  0
    3.1854    2.4317    0.0000 H   0  0  0  0  0  0  0  0  0  0  0  0
    2.7874    1.6505    0.0000 H   0  0  0  0  0  0  0  0  0  0  0  0
    3.5686    1.2524    0.0000 H   0  0  0  0  0  0  0  0  0  0  0  0
    6.2846    4.6080    0.0000 H   0  0  0  0  0  0  0  0  0  0  0  0
    4.3770    5.3178    0.0000 H   0  0  0  0  0  0  0  0  0  0  0  0
    4.6233    4.5597    0.0000 H   0  0  0  0  0  0  0  0  0  0  0  0
    6.5716    5.9578    0.0000 H   0  0  0  0  0  0  0  0  0  0  0  0
    3.8270    6.5412    0.0000 H   0  0  0  0  0  0  0  0  0  0  0  0
    6.9084    7.5424    0.0000 H   0  0  0  0  0  0  0  0  0  0  0  0
    4.1638    8.1258    0.0000 H   0  0  0  0  0  0  0  0  0  0  0  0
  1 19  2  0  0  0  0
  2 24  2  0  0  0  0
  3 30  2  0  0  0  0
  4 36  2  0  0  0  0
  5 39  2  0  0  0  0
  6 45  2  0  0  0  0
  7 15  1  0  0  0  0
  7 16  1  0  0  0  0
  7 19  1  0  0  0  0
 20  8  1  6  0  0  0
  8 30  1  0  0  0  0
  8 77  1  0  0  0  0
  9 24  1  0  0  0  0
  9 34  1  0  0  0  0
  9 78  1  0  0  0  0
 10 23  1  0  0  0  0
 10 36  1  0  0  0  0
 10 79  1  0  0  0  0
 11 45  1  0  0  0  0
 11 47  1  0  0  0  0
 11102  1  0  0  0  0
 12 51  2  0  0  0  0
 12 52  1  0  0  0  0
 13 14  1  0  0  0  0
 13 16  1  0  0  0  0
 13 17  1  1  0  0  0
 13 53  1  0  0  0  0
 14 15  1  0  0  0  0
 14 54  1  0  0  0  0
 14 55  1  0  0  0  0
 15 24  1  6  0  0  0
 15 56  1  0  0  0  0
 16 57  1  0  0  0  0
 16 58  1  0  0  0  0
 17 27  1  0  0  0  0
 17 59  1  0  0  0  0
 17 60  1  0  0  0  0
 18 21  1  0  0  0  0
 18 22  1  0  0  0  0
 18 23  1  0  0  0  0
 18 61  1  0  0  0  0
 19 20  1  0  0  0  0
 20 29  1  0  0  0  0
 20 62  1  0  0  0  0
 21 25  1  0  0  0  0
 21 63  1  0  0  0  0
 21 64  1  0  0  0  0
 22 26  1  0  0  0  0
 22 65  1  0  0  0  0
 22 66  1  0  0  0  0
 23 30  1  0  0  0  0
 23 67  1  0  0  0  0
 25 28  1  0  0  0  0
 25 68  1  0  0  0  0
 25 69  1  0  0  0  0
 26 28  1  0  0  0  0
 26 70  1  0  0  0  0
 26 71  1  0  0  0  0
 27 31  1  0  0  0  0
 27 72  1  0  0  0  0
 27 73  1  0  0  0  0
 28 74  1  0  0  0  0
 28 75  1  0  0  0  0
 29 32  1  0  0  0  0
 29 33  1  0  0  0  0
 29 76  1  0  0  0  0
 31 37  2  0  0  0  0
 31 38  1  0  0  0  0
 32 80  1  0  0  0  0
 32 81  1  0  0  0  0
 32 82  1  0  0  0  0
 33 83  1  0  0  0  0
 33 84  1  0  0  0  0
 33 85  1  0  0  0  0
 34 35  1  0  0  0  0
 34 39  1  0  0  0  0
 34 86  1  0  0  0  0
 35 40  1  0  0  0  0
 35 87  1  0  0  0  0
 35 88  1  0  0  0  0
 36 43  1  0  0  0  0
 37 41  1  0  0  0  0
 37 89  1  0  0  0  0
 38 42  2  0  0  0  0
 38 90  1  0  0  0  0
 39 45  1  0  0  0  0
 40 46  1  0  0  0  0
 40 91  1  0  0  0  0
 40 92  1  0  0  0  0
 41 44  2  0  0  0  0
 41 93  1  0  0  0  0
 42 44  1  0  0  0  0
 42 94  1  0  0  0  0
 43 95  1  0  0  0  0
 43 96  1  0  0  0  0
 43 97  1  0  0  0  0
 44 98  1  0  0  0  0
 46 99  1  0  0  0  0
 46100  1  0  0  0  0
 46101  1  0  0  0  0
 47 48  1  0  0  0  0
 47103  1  0  0  0  0
 47104  1  0  0  0  0
 48 49  2  0  0  0  0
 48 50  1  0  0  0  0
 49 51  1  0  0  0  0
 49105  1  0  0  0  0
 50 52  2  0  0  0  0
 50106  1  0  0  0  0
 51107  1  0  0  0  0
 52108  1  0  0  0  0
M  END
> <PUBCHEM_COMPOUND_CID>
500589
> <PUBCHEM_COMPOUND_CANONICALIZED>
1
> <PUBCHEM_CACTVS_COMPLEXITY>
1210
> <PUBCHEM_CACTVS_HBOND_ACCEPTOR>
7
> <PUBCHEM_CACTVS_HBOND_DONOR>
4
> <PUBCHEM_CACTVS_ROTATABLE_BOND>
17
> <PUBCHEM_CACTVS_SUBSKEYS>
AAADcfB/uAAAAAAAAAAAAAAAAAAAAWAAAAA8YIAAAAAAAAABwAAAHgAQAAAADSzBmgQ+gJPIEACoArF3VACCgCAxAiAI2KG4ZJgIYHrA0bGUIAhglgDIyAcYicCOAAAAAAAAAAAAAAAAAAAAAAAAAAAAAA==
> <PUBCHEM_IUPAC_OPENEYE_NAME>
(2S,4R)-1-[(2S)-2-[(2-acetamido-2-cyclohexyl-acetyl)amino]-3-methyl-butanoyl]-N-[1-[2-oxo-2-(4-pyridylmethylamino)acetyl]butyl]-4-(2-phenylethyl)pyrrolidine-2-carboxamide
> <PUBCHEM_IUPAC_CAS_NAME>
(2S,4R)-1-[(2S)-2-[(2-acetamido-2-cyclohexyl-1-oxoethyl)amino]-3-methyl-1-oxobutyl]-N-[1,2-dioxo-1-(pyridin-4-ylmethylamino)hexan-3-yl]-4-(2-phenylethyl)-2-pyrrolidinecarboxamide
> <PUBCHEM_IUPAC_NAME_MARKUP>
(2<I>S</I>,4<I>R</I>)-1-[(2<I>S</I>)-2-[(2-acetamido-2-cyclohexylacetyl)amino]-3-methylbutanoyl]-<I>N</I>-[1,2-dioxo-1-(pyridin-4-ylmethylamino)hexan-3-yl]-4-(2-phenylethyl)pyrrolidine-2-carboxamide
> <PUBCHEM_IUPAC_NAME>
(2S,4R)-1-[(2S)-2-[(2-acetamido-2-cyclohexylacetyl)amino]-3-methylbutanoyl]-N-[1,2-dioxo-1-(pyridin-4-ylmethylamino)hexan-3-yl]-4-(2-phenylethyl)pyrrolidine-2-carboxamide
> <PUBCHEM_IUPAC_SYSTEMATIC_NAME>
(2S,4R)-1-[(2S)-2-[(2-acetamido-2-cyclohexyl-ethanoyl)amino]-3-methyl-butanoyl]-N-[1,2-bis(oxidanylidene)-1-(pyridin-4-ylmethylamino)hexan-3-yl]-4-(2-phenylethyl)pyrrolidine-2-carboxamide
> <PUBCHEM_IUPAC_TRADITIONAL_NAME>
(2S,4R)-1-[(2S)-2-[(2-acetamido-2-cyclohexyl-acetyl)amino]-3-methyl-butanoyl]-N-[1-[2-keto-2-(4-pyridylmethylamino)acetyl]butyl]-4-phenethyl-pyrrolidine-2-carboxamide
> <PUBCHEM_IUPAC_INCHI>
InChI=1S/C40H56N6O6/c1-5-12-32(36(48)39(51)42-24-29-19-21-41-22-20-29)44-37(49)33-23-30(18-17-28-13-8-6-9-14-28)25-46(33)40(52)34(26(2)3)45-38(50)35(43-27(4)47)31-15-10-7-11-16-31/h6,8-9,13-14,19-22,26,30-35H,5,7,10-12,15-18,23-25H2,1-4H3,(H,42,51)(H,43,47)(H,44,49)(H,45,50)/t30-,32?,33+,34+,35?/m1/s1
> <PUBCHEM_IUPAC_INCHIKEY>
WNFRIPCFAWNYGC-CYTQMTEBSA-N
> <PUBCHEM_XLOGP3_AA>
5.2
> <PUBCHEM_EXACT_MASS>
716.42613353
> <PUBCHEM_MOLECULAR_FORMULA>
C40H56N6O6
> <PUBCHEM_MOLECULAR_WEIGHT>
716.9
> <PUBCHEM_OPENEYE_CAN_SMILES>
CCCC(C(=O)C(=O)NCC1=CC=NC=C1)NC(=O)C2CC(CN2C(=O)C(C(C)C)NC(=O)C(C3CCCCC3)NC(=O)C)CCC4=CC=CC=C4
> <PUBCHEM_OPENEYE_ISO_SMILES>
CCCC(C(=O)C(=O)NCC1=CC=NC=C1)NC(=O)[C@@H]2C[C@H](CN2C(=O)[C@H](C(C)C)NC(=O)C(C3CCCCC3)NC(=O)C)CCC4=CC=CC=C4
> <PUBCHEM_CACTVS_TPSA>
167
> <PUBCHEM_MONOISOTOPIC_WEIGHT>
716.42613353
> <PUBCHEM_TOTAL_CHARGE>
0
> <PUBCHEM_HEAVY_ATOM_COUNT>
52
> <PUBCHEM_ATOM_DEF_STEREO_COUNT>
3
> <PUBCHEM_ATOM_UDEF_STEREO_COUNT>
2
> <PUBCHEM_BOND_DEF_STEREO_COUNT>
0
> <PUBCHEM_BOND_UDEF_STEREO_COUNT>
0
> <PUBCHEM_ISOTOPIC_ATOM_COUNT>
0
> <PUBCHEM_COMPONENT_COUNT>
1
> <PUBCHEM_CACTVS_TAUTO_COUNT>
-1
> <PUBCHEM_COORDINATE_TYPE>
1
5
255
> <PUBCHEM_BONDANNOTATIONS>
12  51  8
12  52  8
13  17  5
15  24  6
23  30  3
31  37  8
31  38  8
34  35  3
37  41  8
38  42  8
41  44  8
42  44  8
48  49  8
48  50  8
49  51  8
50  52  8
20  8  6
$$$$
