500596
  -OEChem-10302200282D
123124  0     1  0  0  0  0  0999 V2000
    9.1937   -3.2540    0.0000 O   0  0  0  0  0  0  0  0  0  0  0  0
    9.8747    1.0074    0.0000 O   0  0  0  0  0  0  0  0  0  0  0  0
    8.5126    1.0074    0.0000 O   0  0  0  0  0  0  0  0  0  0  0  0
   13.2650   -0.2197    0.0000 O   0  0  0  0  0  0  0  0  0  0  0  0
   14.8473    0.4848    0.0000 O   0  0  0  0  0  0  0  0  0  0  0  0
   14.6216    3.1209    0.0000 O   0  0  0  0  0  0  0  0  0  0  0  0
    5.1223   -0.2197    0.0000 O   0  0  0  0  0  0  0  0  0  0  0  0
   18.0119    1.8937    0.0000 O   0  0  0  0  0  0  0  0  0  0  0  0
   18.8254    0.0666    0.0000 O   0  0  0  0  0  0  0  0  0  0  0  0
   17.2431   -0.6378    0.0000 O   0  0  0  0  0  0  0  0  0  0  0  0
    2.3644    2.1028    0.0000 O   0  0  0  0  0  0  0  0  0  0  0  0
    3.7657    3.1209    0.0000 O   0  0  0  0  0  0  0  0  0  0  0  0
   17.9673    6.2524    0.0000 O   0  0  0  0  0  0  0  0  0  0  0  0
   19.3685    5.2343    0.0000 O   0  0  0  0  0  0  0  0  0  0  0  0
   19.0065    1.7892    0.0000 O   0  0  0  0  0  0  0  0  0  0  0  0
    9.6937   -0.7152    0.0000 N   0  0  0  0  0  0  0  0  0  0  0  0
   11.8637    0.7983    0.0000 N   0  0  0  0  0  0  0  0  0  0  0  0
    7.1114   -0.0107    0.0000 N   0  0  0  0  0  0  0  0  0  0  0  0
    6.5236    0.7983    0.0000 N   0  0  0  0  0  0  0  0  0  0  0  0
   14.4406    1.3983    0.0000 N   0  0  0  0  0  0  0  0  0  0  0  0
   16.6107    2.9118    0.0000 N   0  0  0  0  0  0  0  0  0  0  0  0
    4.9413    1.5028    0.0000 N   0  0  0  0  0  0  0  0  0  0  0  0
   19.1875    3.5118    0.0000 N   0  0  0  0  0  0  0  0  0  0  0  0
    8.6937   -0.7152    0.0000 C   0  0  1  0  0  0  0  0  0  0  0  0
    9.1937   -2.2540    0.0000 C   0  0  2  0  0  0  0  0  0  0  0  0
    8.3846   -1.6662    0.0000 C   0  0  0  0  0  0  0  0  0  0  0  0
   10.0027   -1.6662    0.0000 C   0  0  0  0  0  0  0  0  0  0  0  0
   11.2760   -0.0107    0.0000 C   0  0  2  0  0  0  0  0  0  0  0  0
   10.2814    0.0939    0.0000 C   0  0  0  0  0  0  0  0  0  0  0  0
    8.1059    0.0939    0.0000 C   0  0  0  0  0  0  0  0  0  0  0  0
   11.6827   -0.9242    0.0000 C   0  0  0  0  0  0  0  0  0  0  0  0
   13.4461    1.5028    0.0000 C   0  0  2  0  0  0  0  0  0  0  0  0
    8.3276   -3.7540    0.0000 C   0  0  0  0  0  0  0  0  0  0  0  0
   12.6772   -1.0287    0.0000 C   0  0  0  0  0  0  0  0  0  0  0  0
   11.0949   -1.7332    0.0000 C   0  0  0  0  0  0  0  0  0  0  0  0
   12.8583    0.6938    0.0000 C   0  0  0  0  0  0  0  0  0  0  0  0
   13.0393    2.4164    0.0000 C   0  0  2  0  0  0  0  0  0  0  0  0
   13.6271    3.2254    0.0000 C   0  0  0  0  0  0  0  0  0  0  0  0
    8.3276   -4.7540    0.0000 C   0  0  0  0  0  0  0  0  0  0  0  0
   12.0448    2.5209    0.0000 C   0  0  0  0  0  0  0  0  0  0  0  0
    6.9303    1.7119    0.0000 C   0  0  0  0  0  0  0  0  0  0  0  0
   15.0284    2.2073    0.0000 C   0  0  0  0  0  0  0  0  0  0  0  0
   16.0229    2.1028    0.0000 C   0  0  1  0  0  0  0  0  0  0  0  0
   13.2204    4.1389    0.0000 C   0  0  0  0  0  0  0  0  0  0  0  0
    5.5290    0.6938    0.0000 C   0  0  0  0  0  0  0  0  0  0  0  0
    9.1937   -5.2540    0.0000 C   0  0  0  0  0  0  0  0  0  0  0  0
    7.4616   -5.2540    0.0000 C   0  0  0  0  0  0  0  0  0  0  0  0
    6.3425    2.5209    0.0000 C   0  0  0  0  0  0  0  0  0  0  0  0
   16.4296    1.1892    0.0000 C   0  0  0  0  0  0  0  0  0  0  0  0
    9.1937   -6.2540    0.0000 C   0  0  0  0  0  0  0  0  0  0  0  0
    7.4616   -6.2540    0.0000 C   0  0  0  0  0  0  0  0  0  0  0  0
   17.4241    1.0847    0.0000 C   0  0  0  0  0  0  0  0  0  0  0  0
    6.7492    3.4345    0.0000 C   0  0  0  0  0  0  0  0  0  0  0  0
    8.3276   -6.7540    0.0000 C   0  0  0  0  0  0  0  0  0  0  0  0
   17.6052    2.8073    0.0000 C   0  0  0  0  0  0  0  0  0  0  0  0
   18.1930    3.6163    0.0000 C   0  0  2  0  0  0  0  0  0  0  0  0
    3.9467    1.3983    0.0000 C   0  0  0  0  0  0  0  0  0  0  0  0
   17.8309    0.1712    0.0000 C   0  0  0  0  0  0  0  0  0  0  0  0
   17.7862    4.5298    0.0000 C   0  0  0  0  0  0  0  0  0  0  0  0
    3.3590    2.2073    0.0000 C   0  0  0  0  0  0  0  0  0  0  0  0
   18.3740    5.3389    0.0000 C   0  0  0  0  0  0  0  0  0  0  0  0
   19.5942    2.5982    0.0000 C   0  0  0  0  0  0  0  0  0  0  0  0
   20.5888    2.4937    0.0000 C   0  0  0  0  0  0  0  0  0  0  0  0
    8.9751   -0.1627    0.0000 H   0  0  0  0  0  0  0  0  0  0  0  0
    8.6412   -2.5355    0.0000 H   0  0  0  0  0  0  0  0  0  0  0  0
    7.8182   -1.4140    0.0000 H   0  0  0  0  0  0  0  0  0  0  0  0
    8.0746   -2.2032    0.0000 H   0  0  0  0  0  0  0  0  0  0  0  0
   10.3127   -2.2032    0.0000 H   0  0  0  0  0  0  0  0  0  0  0  0
   10.5691   -1.4140    0.0000 H   0  0  0  0  0  0  0  0  0  0  0  0
   11.8926   -0.0755    0.0000 H   0  0  0  0  0  0  0  0  0  0  0  0
   11.0661   -0.8594    0.0000 H   0  0  0  0  0  0  0  0  0  0  0  0
   11.6116    1.3647    0.0000 H   0  0  0  0  0  0  0  0  0  0  0  0
   13.8105    2.0044    0.0000 H   0  0  0  0  0  0  0  0  0  0  0  0
    8.1156   -3.1714    0.0000 H   0  0  0  0  0  0  0  0  0  0  0  0
    7.7170   -3.8617    0.0000 H   0  0  0  0  0  0  0  0  0  0  0  0
   12.6124   -1.6454    0.0000 H   0  0  0  0  0  0  0  0  0  0  0  0
   13.2938   -1.0936    0.0000 H   0  0  0  0  0  0  0  0  0  0  0  0
   12.7420   -0.4121    0.0000 H   0  0  0  0  0  0  0  0  0  0  0  0
   10.5933   -1.3688    0.0000 H   0  0  0  0  0  0  0  0  0  0  0  0
   10.7305   -2.2348    0.0000 H   0  0  0  0  0  0  0  0  0  0  0  0
   11.5965   -2.0977    0.0000 H   0  0  0  0  0  0  0  0  0  0  0  0
    6.8592   -0.5771    0.0000 H   0  0  0  0  0  0  0  0  0  0  0  0
   12.6749    1.9148    0.0000 H   0  0  0  0  0  0  0  0  0  0  0  0
   14.0578    2.7794    0.0000 H   0  0  0  0  0  0  0  0  0  0  0  0
   14.1411    3.5721    0.0000 H   0  0  0  0  0  0  0  0  0  0  0  0
   12.1096    3.1375    0.0000 H   0  0  0  0  0  0  0  0  0  0  0  0
   11.4282    2.5857    0.0000 H   0  0  0  0  0  0  0  0  0  0  0  0
   11.9800    1.9043    0.0000 H   0  0  0  0  0  0  0  0  0  0  0  0
    7.4443    1.3652    0.0000 H   0  0  0  0  0  0  0  0  0  0  0  0
    7.3610    2.1579    0.0000 H   0  0  0  0  0  0  0  0  0  0  0  0
   15.7707    2.6692    0.0000 H   0  0  0  0  0  0  0  0  0  0  0  0
   13.7868    4.3911    0.0000 H   0  0  0  0  0  0  0  0  0  0  0  0
   12.9682    4.7053    0.0000 H   0  0  0  0  0  0  0  0  0  0  0  0
   12.6540    3.8868    0.0000 H   0  0  0  0  0  0  0  0  0  0  0  0
    9.7306   -4.9440    0.0000 H   0  0  0  0  0  0  0  0  0  0  0  0
    6.9247   -4.9440    0.0000 H   0  0  0  0  0  0  0  0  0  0  0  0
    5.8285    2.8676    0.0000 H   0  0  0  0  0  0  0  0  0  0  0  0
    5.9118    2.0749    0.0000 H   0  0  0  0  0  0  0  0  0  0  0  0
   15.8280    1.0393    0.0000 H   0  0  0  0  0  0  0  0  0  0  0  0
   16.4729    0.5708    0.0000 H   0  0  0  0  0  0  0  0  0  0  0  0
   15.4639    0.4200    0.0000 H   0  0  0  0  0  0  0  0  0  0  0  0
   16.3585    3.4782    0.0000 H   0  0  0  0  0  0  0  0  0  0  0  0
    9.7306   -6.5640    0.0000 H   0  0  0  0  0  0  0  0  0  0  0  0
    6.9247   -6.5640    0.0000 H   0  0  0  0  0  0  0  0  0  0  0  0
   18.0257    1.2347    0.0000 H   0  0  0  0  0  0  0  0  0  0  0  0
   17.3809    1.7032    0.0000 H   0  0  0  0  0  0  0  0  0  0  0  0
    5.1934    2.0692    0.0000 H   0  0  0  0  0  0  0  0  0  0  0  0
    7.3156    3.1823    0.0000 H   0  0  0  0  0  0  0  0  0  0  0  0
    7.0014    4.0008    0.0000 H   0  0  0  0  0  0  0  0  0  0  0  0
    6.1828    3.6866    0.0000 H   0  0  0  0  0  0  0  0  0  0  0  0
    8.3276   -7.3740    0.0000 H   0  0  0  0  0  0  0  0  0  0  0  0
   18.4452    3.0499    0.0000 H   0  0  0  0  0  0  0  0  0  0  0  0
    3.3895    1.1265    0.0000 H   0  0  0  0  0  0  0  0  0  0  0  0
    4.1176    0.8023    0.0000 H   0  0  0  0  0  0  0  0  0  0  0  0
   17.3556    4.9758    0.0000 H   0  0  0  0  0  0  0  0  0  0  0  0
   17.2722    4.1832    0.0000 H   0  0  0  0  0  0  0  0  0  0  0  0
   19.5519    4.0134    0.0000 H   0  0  0  0  0  0  0  0  0  0  0  0
   19.0776   -0.4998    0.0000 H   0  0  0  0  0  0  0  0  0  0  0  0
    2.0000    2.6044    0.0000 H   0  0  0  0  0  0  0  0  0  0  0  0
   20.5239    1.8771    0.0000 H   0  0  0  0  0  0  0  0  0  0  0  0
   21.2054    2.4289    0.0000 H   0  0  0  0  0  0  0  0  0  0  0  0
   20.6536    3.1103    0.0000 H   0  0  0  0  0  0  0  0  0  0  0  0
   18.3317    6.7540    0.0000 H   0  0  0  0  0  0  0  0  0  0  0  0
 25  1  1  6  0  0  0
  1 33  1  0  0  0  0
  2 29  2  0  0  0  0
  3 30  2  0  0  0  0
  4 36  2  0  0  0  0
  5 20  1  0  0  0  0
  5101  1  0  0  0  0
  6 42  2  0  0  0  0
  7 45  2  0  0  0  0
  8 55  2  0  0  0  0
  9 58  1  0  0  0  0
  9118  1  0  0  0  0
 10 58  2  0  0  0  0
 11 60  1  0  0  0  0
 11119  1  0  0  0  0
 12 60  2  0  0  0  0
 13 61  1  0  0  0  0
 13123  1  0  0  0  0
 14 61  2  0  0  0  0
 15 62  2  0  0  0  0
 16 24  1  0  0  0  0
 16 27  1  0  0  0  0
 16 29  1  0  0  0  0
 28 17  1  1  0  0  0
 17 36  1  0  0  0  0
 17 72  1  0  0  0  0
 18 19  1  0  0  0  0
 18 30  1  0  0  0  0
 18 82  1  0  0  0  0
 19 41  1  0  0  0  0
 19 45  1  0  0  0  0
 32 20  1  6  0  0  0
 20 42  1  0  0  0  0
 43 21  1  6  0  0  0
 21 55  1  0  0  0  0
 21102  1  0  0  0  0
 22 45  1  0  0  0  0
 22 57  1  0  0  0  0
 22107  1  0  0  0  0
 56 23  1  6  0  0  0
 23 62  1  0  0  0  0
 23117  1  0  0  0  0
 24 26  1  0  0  0  0
 24 30  1  1  0  0  0
 24 64  1  0  0  0  0
 25 26  1  0  0  0  0
 25 27  1  0  0  0  0
 25 65  1  0  0  0  0
 26 66  1  0  0  0  0
 26 67  1  0  0  0  0
 27 68  1  0  0  0  0
 27 69  1  0  0  0  0
 28 29  1  0  0  0  0
 28 31  1  0  0  0  0
 28 70  1  0  0  0  0
 31 34  1  0  0  0  0
 31 35  1  0  0  0  0
 31 71  1  0  0  0  0
 32 36  1  0  0  0  0
 32 37  1  0  0  0  0
 32 73  1  0  0  0  0
 33 39  1  0  0  0  0
 33 74  1  0  0  0  0
 33 75  1  0  0  0  0
 34 76  1  0  0  0  0
 34 77  1  0  0  0  0
 34 78  1  0  0  0  0
 35 79  1  0  0  0  0
 35 80  1  0  0  0  0
 35 81  1  0  0  0  0
 37 38  1  0  0  0  0
 37 40  1  1  0  0  0
 37 83  1  0  0  0  0
 38 44  1  0  0  0  0
 38 84  1  0  0  0  0
 38 85  1  0  0  0  0
 39 46  2  0  0  0  0
 39 47  1  0  0  0  0
 40 86  1  0  0  0  0
 40 87  1  0  0  0  0
 40 88  1  0  0  0  0
 41 48  1  0  0  0  0
 41 89  1  0  0  0  0
 41 90  1  0  0  0  0
 42 43  1  0  0  0  0
 43 49  1  0  0  0  0
 43 91  1  0  0  0  0
 44 92  1  0  0  0  0
 44 93  1  0  0  0  0
 44 94  1  0  0  0  0
 46 50  1  0  0  0  0
 46 95  1  0  0  0  0
 47 51  2  0  0  0  0
 47 96  1  0  0  0  0
 48 53  1  0  0  0  0
 48 97  1  0  0  0  0
 48 98  1  0  0  0  0
 49 52  1  0  0  0  0
 49 99  1  0  0  0  0
 49100  1  0  0  0  0
 50 54  2  0  0  0  0
 50103  1  0  0  0  0
 51 54  1  0  0  0  0
 51104  1  0  0  0  0
 52 58  1  0  0  0  0
 52105  1  0  0  0  0
 52106  1  0  0  0  0
 53108  1  0  0  0  0
 53109  1  0  0  0  0
 53110  1  0  0  0  0
 54111  1  0  0  0  0
 55 56  1  0  0  0  0
 56 59  1  0  0  0  0
 56112  1  0  0  0  0
 57 60  1  0  0  0  0
 57113  1  0  0  0  0
 57114  1  0  0  0  0
 59 61  1  0  0  0  0
 59115  1  0  0  0  0
 59116  1  0  0  0  0
 62 63  1  0  0  0  0
 63120  1  0  0  0  0
 63121  1  0  0  0  0
 63122  1  0  0  0  0
M  END
> <PUBCHEM_COMPOUND_CID>
500596
> <PUBCHEM_COMPOUND_CANONICALIZED>
1
> <PUBCHEM_CACTVS_COMPLEXITY>
1640
> <PUBCHEM_CACTVS_HBOND_ACCEPTOR>
15
> <PUBCHEM_CACTVS_HBOND_DONOR>
9
> <PUBCHEM_CACTVS_ROTATABLE_BOND>
24
> <PUBCHEM_CACTVS_SUBSKEYS>
AAADcfB//AAAAAAAAAAAAAAAAAAAAWAAAAAwAAAAAAAAAAABAAAAHgAcCAAADTzhmAYzCIPyBgCIAiHSGAACAAAgAAA+qIGICIiKZjqAsTiXcAA+1gOYqAe/1yIOAAAAAAAAAAAAAAAAAAAAAAAAAAAAAA==
> <PUBCHEM_IUPAC_OPENEYE_NAME>
(4R)-4-[[(2S)-2-acetamido-3-carboxy-propanoyl]amino]-5-[[(1S,2S)-1-[[(1S)-1-[(2S,4R)-4-benzyloxy-2-[[carboxymethylcarbamoyl(propyl)amino]carbamoyl]pyrrolidine-1-carbonyl]-2-methyl-propyl]carbamoyl]-2-methyl-butyl]-hydroxy-amino]-5-oxo-pentanoic acid
> <PUBCHEM_IUPAC_CAS_NAME>
(4R)-4-[[(2S)-2-acetamido-3-carboxy-1-oxopropyl]amino]-5-[[(2S,3S)-1-[[(2S)-1-[(2S,4R)-2-[[2-[(carboxymethylamino)-oxomethyl]-2-propylhydrazinyl]-oxomethyl]-4-phenylmethoxy-1-pyrrolidinyl]-3-methyl-1-oxobutan-2-yl]amino]-3-methyl-1-oxopentan-2-yl]-hydroxyamino]-5-oxopentanoic acid
> <PUBCHEM_IUPAC_NAME_MARKUP>
(4<I>R</I>)-4-[[(2<I>S</I>)-2-acetamido-3-carboxypropanoyl]amino]-5-[[(2<I>S</I>,3<I>S</I>)-1-[[(2<I>S</I>)-1-[(2<I>S</I>,4<I>R</I>)-2-[[carboxymethylcarbamoyl(propyl)amino]carbamoyl]-4-phenylmethoxypyrrolidin-1-yl]-3-methyl-1-oxobutan-2-yl]amino]-3-methyl-1-oxopentan-2-yl]-hydroxyamino]-5-oxopentanoic acid
> <PUBCHEM_IUPAC_NAME>
(4R)-4-[[(2S)-2-acetamido-3-carboxypropanoyl]amino]-5-[[(2S,3S)-1-[[(2S)-1-[(2S,4R)-2-[[carboxymethylcarbamoyl(propyl)amino]carbamoyl]-4-phenylmethoxypyrrolidin-1-yl]-3-methyl-1-oxobutan-2-yl]amino]-3-methyl-1-oxopentan-2-yl]-hydroxyamino]-5-oxopentanoic acid
> <PUBCHEM_IUPAC_SYSTEMATIC_NAME>
(4R)-4-[[(2S)-2-acetamido-4-oxidanyl-4-oxidanylidene-butanoyl]amino]-5-[[(2S,3S)-1-[[(2S)-1-[(2S,4R)-2-[[2-hydroxy-2-oxoethylcarbamoyl(propyl)amino]carbamoyl]-4-phenylmethoxy-pyrrolidin-1-yl]-3-methyl-1-oxidanylidene-butan-2-yl]amino]-3-methyl-1-oxidanylidene-pentan-2-yl]-oxidanyl-amino]-5-oxidanylidene-pentanoic acid
> <PUBCHEM_IUPAC_TRADITIONAL_NAME>
(4R)-4-[[(2S)-2-acetamido-3-carboxy-propanoyl]amino]-5-[[(1S,2S)-1-[[(1S)-1-[(2S,4R)-4-benzoxy-2-[[carboxymethylcarbamoyl(propyl)amino]carbamoyl]pyrrolidine-1-carbonyl]-2-methyl-propyl]carbamoyl]-2-methyl-butyl]-hydroxy-amino]-5-keto-valeric acid
> <PUBCHEM_IUPAC_INCHI>
InChI=1S/C40H60N8O15/c1-7-16-47(40(61)41-19-32(54)55)45-36(57)29-17-26(63-21-25-12-10-9-11-13-25)20-46(29)39(60)33(22(3)4)44-37(58)34(23(5)8-2)48(62)38(59)27(14-15-30(50)51)43-35(56)28(18-31(52)53)42-24(6)49/h9-13,22-23,26-29,33-34,62H,7-8,14-21H2,1-6H3,(H,41,61)(H,42,49)(H,43,56)(H,44,58)(H,45,57)(H,50,51)(H,52,53)(H,54,55)/t23-,26+,27+,28-,29-,33-,34-/m0/s1
> <PUBCHEM_IUPAC_INCHIKEY>
KYAOVYDHFLQSES-YFXMERCQSA-N
> <PUBCHEM_XLOGP3_AA>
0.2
> <PUBCHEM_EXACT_MASS>
892.41781324
> <PUBCHEM_MOLECULAR_FORMULA>
C40H60N8O15
> <PUBCHEM_MOLECULAR_WEIGHT>
892.9
> <PUBCHEM_OPENEYE_CAN_SMILES>
CCCN(C(=O)NCC(=O)O)NC(=O)C1CC(CN1C(=O)C(C(C)C)NC(=O)C(C(C)CC)N(C(=O)C(CCC(=O)O)NC(=O)C(CC(=O)O)NC(=O)C)O)OCC2=CC=CC=C2
> <PUBCHEM_OPENEYE_ISO_SMILES>
CCCN(C(=O)NCC(=O)O)NC(=O)[C@@H]1C[C@H](CN1C(=O)[C@H](C(C)C)NC(=O)[C@H]([C@@H](C)CC)N(C(=O)[C@@H](CCC(=O)O)NC(=O)[C@H](CC(=O)O)NC(=O)C)O)OCC2=CC=CC=C2
> <PUBCHEM_CACTVS_TPSA>
331
> <PUBCHEM_MONOISOTOPIC_WEIGHT>
892.41781324
> <PUBCHEM_TOTAL_CHARGE>
0
> <PUBCHEM_HEAVY_ATOM_COUNT>
63
> <PUBCHEM_ATOM_DEF_STEREO_COUNT>
7
> <PUBCHEM_ATOM_UDEF_STEREO_COUNT>
0
> <PUBCHEM_BOND_DEF_STEREO_COUNT>
0
> <PUBCHEM_BOND_UDEF_STEREO_COUNT>
0
> <PUBCHEM_ISOTOPIC_ATOM_COUNT>
0
> <PUBCHEM_COMPONENT_COUNT>
1
> <PUBCHEM_CACTVS_TAUTO_COUNT>
-1
> <PUBCHEM_COORDINATE_TYPE>
1
5
255
> <PUBCHEM_BONDANNOTATIONS>
25  1  6
28  17  5
32  20  6
43  21  6
56  23  6
24  30  5
37  40  5
39  46  8
39  47  8
46  50  8
47  51  8
50  54  8
51  54  8
$$$$
