500533
  -OEChem-10302200282D
129133  0     1  0  0  0  0  0999 V2000
   17.9068    2.7014    0.0000 O   0  0  0  0  0  0  0  0  0  0  0  0
   16.5725    3.6014    0.0000 O   0  0  0  0  0  0  0  0  0  0  0  0
   15.2357    0.1805    0.0000 O   0  0  0  0  0  0  0  0  0  0  0  0
   14.3602   -0.8629    0.0000 O   0  0  0  0  0  0  0  0  0  0  0  0
   11.2409   -2.6713    0.0000 O   0  0  0  0  0  0  0  0  0  0  0  0
    8.1152   -0.8741    0.0000 O   0  0  0  0  0  0  0  0  0  0  0  0
    6.1991   -3.9283    0.0000 O   0  0  0  0  0  0  0  0  0  0  0  0
    6.6830   -5.8689    0.0000 O   0  0  0  0  0  0  0  0  0  0  0  0
    8.3636   -5.4499    0.0000 O   0  0  0  0  0  0  0  0  0  0  0  0
    2.5960   -3.7961    0.0000 O   0  0  0  0  0  0  0  0  0  0  0  0
    3.0734   -2.1311    0.0000 O   0  0  0  0  0  0  0  0  0  0  0  0
   15.3566    1.9083    0.0000 N   0  0  0  0  0  0  0  0  0  0  0  0
   13.1570    0.3830    0.0000 N   0  0  0  0  0  0  0  0  0  0  0  0
   11.7183   -1.0063    0.0000 N   0  0  0  0  0  0  0  0  0  0  0  0
    9.3184   -2.1200    0.0000 N   0  0  0  0  0  0  0  0  0  0  0  0
    6.6765   -2.2634    0.0000 N   0  0  0  0  0  0  0  0  0  0  0  0
    4.7540   -1.7121    0.0000 N   0  0  0  0  0  0  0  0  0  0  0  0
   19.4043    4.5220    0.0000 C   0  0  2  0  0  0  0  0  0  0  0  0
   20.8033    4.5308    0.0000 C   0  0  0  0  0  0  0  0  0  0  0  0
   19.6631    5.4879    0.0000 C   0  0  1  0  0  0  0  0  0  0  0  0
   18.1833    3.6563    0.0000 C   0  0  1  0  0  0  0  0  0  0  0  0
   18.9265    6.4705    0.0000 C   0  0  0  0  0  0  0  0  0  0  0  0
   17.6299    5.1768    0.0000 C   0  0  0  0  0  0  0  0  0  0  0  0
   17.3543    4.2155    0.0000 C   0  0  1  0  0  0  0  0  0  0  0  0
   21.6693    5.0308    0.0000 C   0  0  0  0  0  0  0  0  0  0  0  0
   21.3033    3.6648    0.0000 C   0  0  0  0  0  0  0  0  0  0  0  0
   19.0123    3.0971    0.0000 C   0  0  0  0  0  0  0  0  0  0  0  0
   16.3541    1.8386    0.0000 C   0  0  1  0  0  0  0  0  0  0  0  0
   16.7925    0.9398    0.0000 C   0  0  0  0  0  0  0  0  0  0  0  0
   16.2333    0.1107    0.0000 C   0  0  0  0  0  0  0  0  0  0  0  0
   14.7974    1.0793    0.0000 C   0  0  0  0  0  0  0  0  0  0  0  0
   16.6717   -0.7881    0.0000 C   0  0  0  0  0  0  0  0  0  0  0  0
   13.7998    1.1490    0.0000 C   0  0  2  0  0  0  0  0  0  0  0  0
   13.2699    1.9971    0.0000 C   0  0  0  0  0  0  0  0  0  0  0  0
   16.1125   -1.6171    0.0000 C   0  0  0  0  0  0  0  0  0  0  0  0
   12.2996    1.7552    0.0000 C   0  0  0  0  0  0  0  0  0  0  0  0
   12.2298    0.7576    0.0000 C   0  0  0  0  0  0  0  0  0  0  0  0
   13.3989   -0.5873    0.0000 C   0  0  0  0  0  0  0  0  0  0  0  0
   15.1149   -1.5473    0.0000 C   0  0  0  0  0  0  0  0  0  0  0  0
   16.5508   -2.5159    0.0000 C   0  0  0  0  0  0  0  0  0  0  0  0
   12.6796   -1.2820    0.0000 C   0  0  2  0  0  0  0  0  0  0  0  0
   14.5557   -2.3764    0.0000 C   0  0  0  0  0  0  0  0  0  0  0  0
   15.9917   -3.3449    0.0000 C   0  0  0  0  0  0  0  0  0  0  0  0
   12.9215   -2.2522    0.0000 C   0  0  0  0  0  0  0  0  0  0  0  0
   14.9941   -3.2752    0.0000 C   0  0  0  0  0  0  0  0  0  0  0  0
   12.2022   -2.9469    0.0000 C   0  0  0  0  0  0  0  0  0  0  0  0
   13.8828   -2.5279    0.0000 C   0  0  0  0  0  0  0  0  0  0  0  0
   10.9990   -1.7010    0.0000 C   0  0  0  0  0  0  0  0  0  0  0  0
   10.0377   -1.4253    0.0000 C   0  0  2  0  0  0  0  0  0  0  0  0
    9.7958   -0.4550    0.0000 C   0  0  0  0  0  0  0  0  0  0  0  0
    8.8345   -0.1794    0.0000 C   0  0  0  0  0  0  0  0  0  0  0  0
   10.5151    0.2396    0.0000 C   0  0  0  0  0  0  0  0  0  0  0  0
    8.3571   -1.8444    0.0000 C   0  0  0  0  0  0  0  0  0  0  0  0
    7.6378   -2.5390    0.0000 C   0  0  2  0  0  0  0  0  0  0  0  0
    7.8797   -3.5093    0.0000 C   0  0  0  0  0  0  0  0  0  0  0  0
    7.1604   -4.2040    0.0000 C   0  0  0  0  0  0  0  0  0  0  0  0
    5.9572   -2.9580    0.0000 C   0  0  0  0  0  0  0  0  0  0  0  0
    4.9959   -2.6824    0.0000 C   0  0  2  0  0  0  0  0  0  0  0  0
    7.4023   -5.1743    0.0000 C   0  0  0  0  0  0  0  0  0  0  0  0
    4.2766   -3.3770    0.0000 C   0  0  0  0  0  0  0  0  0  0  0  0
    3.3153   -3.1014    0.0000 C   0  0  0  0  0  0  0  0  0  0  0  0
   16.9133    2.6676    0.0000 B   0  0  0  0  0  0  0  0  0  0  0  0
   19.1843    3.7009    0.0000 H   0  0  0  0  0  0  0  0  0  0  0  0
   19.8831    6.3089    0.0000 H   0  0  0  0  0  0  0  0  0  0  0  0
   19.2443    7.0029    0.0000 H   0  0  0  0  0  0  0  0  0  0  0  0
   18.3134    6.5625    0.0000 H   0  0  0  0  0  0  0  0  0  0  0  0
   17.6248    5.7967    0.0000 H   0  0  0  0  0  0  0  0  0  0  0  0
   17.0156    5.2605    0.0000 H   0  0  0  0  0  0  0  0  0  0  0  0
   16.6496    4.6908    0.0000 H   0  0  0  0  0  0  0  0  0  0  0  0
   21.9793    4.4938    0.0000 H   0  0  0  0  0  0  0  0  0  0  0  0
   22.2062    5.3408    0.0000 H   0  0  0  0  0  0  0  0  0  0  0  0
   21.3593    5.5677    0.0000 H   0  0  0  0  0  0  0  0  0  0  0  0
   20.7663    3.3548    0.0000 H   0  0  0  0  0  0  0  0  0  0  0  0
   21.6133    3.1278    0.0000 H   0  0  0  0  0  0  0  0  0  0  0  0
   21.8402    3.9748    0.0000 H   0  0  0  0  0  0  0  0  0  0  0  0
   18.6656    2.5831    0.0000 H   0  0  0  0  0  0  0  0  0  0  0  0
   19.5263    2.7504    0.0000 H   0  0  0  0  0  0  0  0  0  0  0  0
   19.3590    3.6111    0.0000 H   0  0  0  0  0  0  0  0  0  0  0  0
   16.0823    2.3958    0.0000 H   0  0  0  0  0  0  0  0  0  0  0  0
   17.2385    0.5091    0.0000 H   0  0  0  0  0  0  0  0  0  0  0  0
   17.2941    1.3042    0.0000 H   0  0  0  0  0  0  0  0  0  0  0  0
   15.0848    2.4656    0.0000 H   0  0  0  0  0  0  0  0  0  0  0  0
   15.7873    0.5414    0.0000 H   0  0  0  0  0  0  0  0  0  0  0  0
   15.7317   -0.2537    0.0000 H   0  0  0  0  0  0  0  0  0  0  0  0
   17.1177   -1.2187    0.0000 H   0  0  0  0  0  0  0  0  0  0  0  0
   17.1733   -0.4236    0.0000 H   0  0  0  0  0  0  0  0  0  0  0  0
   14.0421    0.5783    0.0000 H   0  0  0  0  0  0  0  0  0  0  0  0
   13.8271    2.2689    0.0000 H   0  0  0  0  0  0  0  0  0  0  0  0
   13.0578    2.5797    0.0000 H   0  0  0  0  0  0  0  0  0  0  0  0
   12.2133    2.3691    0.0000 H   0  0  0  0  0  0  0  0  0  0  0  0
   11.6800    1.7335    0.0000 H   0  0  0  0  0  0  0  0  0  0  0  0
   11.6192    0.8653    0.0000 H   0  0  0  0  0  0  0  0  0  0  0  0
   12.0589    0.1616    0.0000 H   0  0  0  0  0  0  0  0  0  0  0  0
   14.8431   -0.9901    0.0000 H   0  0  0  0  0  0  0  0  0  0  0  0
   17.1693   -2.5591    0.0000 H   0  0  0  0  0  0  0  0  0  0  0  0
   12.2336   -1.7126    0.0000 H   0  0  0  0  0  0  0  0  0  0  0  0
   13.9372   -2.3331    0.0000 H   0  0  0  0  0  0  0  0  0  0  0  0
   16.2634   -3.9022    0.0000 H   0  0  0  0  0  0  0  0  0  0  0  0
   13.3675   -1.8216    0.0000 H   0  0  0  0  0  0  0  0  0  0  0  0
   14.6474   -3.7892    0.0000 H   0  0  0  0  0  0  0  0  0  0  0  0
   11.5683   -0.4047    0.0000 H   0  0  0  0  0  0  0  0  0  0  0  0
   11.7715   -2.5009    0.0000 H   0  0  0  0  0  0  0  0  0  0  0  0
   11.7562   -3.3776    0.0000 H   0  0  0  0  0  0  0  0  0  0  0  0
   12.6329   -3.3929    0.0000 H   0  0  0  0  0  0  0  0  0  0  0  0
   13.7119   -3.1239    0.0000 H   0  0  0  0  0  0  0  0  0  0  0  0
   14.4788   -2.6988    0.0000 H   0  0  0  0  0  0  0  0  0  0  0  0
   14.0537   -1.9319    0.0000 H   0  0  0  0  0  0  0  0  0  0  0  0
   10.1877   -2.0269    0.0000 H   0  0  0  0  0  0  0  0  0  0  0  0
    9.6458    0.1465    0.0000 H   0  0  0  0  0  0  0  0  0  0  0  0
    9.4684   -2.7216    0.0000 H   0  0  0  0  0  0  0  0  0  0  0  0
    9.0054    0.4166    0.0000 H   0  0  0  0  0  0  0  0  0  0  0  0
    8.2386   -0.0085    0.0000 H   0  0  0  0  0  0  0  0  0  0  0  0
    8.6636   -0.7754    0.0000 H   0  0  0  0  0  0  0  0  0  0  0  0
   10.9458   -0.2064    0.0000 H   0  0  0  0  0  0  0  0  0  0  0  0
   10.9611    0.6703    0.0000 H   0  0  0  0  0  0  0  0  0  0  0  0
   10.0845    0.6856    0.0000 H   0  0  0  0  0  0  0  0  0  0  0  0
    7.1918   -2.9697    0.0000 H   0  0  0  0  0  0  0  0  0  0  0  0
    8.2264   -4.0233    0.0000 H   0  0  0  0  0  0  0  0  0  0  0  0
    8.4461   -3.2571    0.0000 H   0  0  0  0  0  0  0  0  0  0  0  0
    6.5265   -1.6618    0.0000 H   0  0  0  0  0  0  0  0  0  0  0  0
    6.8137   -3.6900    0.0000 H   0  0  0  0  0  0  0  0  0  0  0  0
    6.5940   -4.4561    0.0000 H   0  0  0  0  0  0  0  0  0  0  0  0
    4.3999   -2.5115    0.0000 H   0  0  0  0  0  0  0  0  0  0  0  0
    4.0048   -3.9343    0.0000 H   0  0  0  0  0  0  0  0  0  0  0  0
    4.7782   -3.7415    0.0000 H   0  0  0  0  0  0  0  0  0  0  0  0
    4.1580   -1.5412    0.0000 H   0  0  0  0  0  0  0  0  0  0  0  0
    5.2000   -1.2814    0.0000 H   0  0  0  0  0  0  0  0  0  0  0  0
    6.8329   -6.4705    0.0000 H   0  0  0  0  0  0  0  0  0  0  0  0
    2.0000   -3.6252    0.0000 H   0  0  0  0  0  0  0  0  0  0  0  0
  1 21  1  0  0  0  0
  1 62  1  0  0  0  0
  2 24  1  0  0  0  0
  2 62  1  0  0  0  0
  3 31  2  0  0  0  0
  4 38  2  0  0  0  0
  5 48  2  0  0  0  0
  6 53  2  0  0  0  0
  7 57  2  0  0  0  0
  8 59  1  0  0  0  0
  8128  1  0  0  0  0
  9 59  2  0  0  0  0
 10 61  1  0  0  0  0
 10129  1  0  0  0  0
 11 61  2  0  0  0  0
 28 12  1  6  0  0  0
 12 31  1  0  0  0  0
 12 82  1  0  0  0  0
 13 33  1  0  0  0  0
 13 37  1  0  0  0  0
 13 38  1  0  0  0  0
 41 14  1  6  0  0  0
 14 48  1  0  0  0  0
 14101  1  0  0  0  0
 49 15  1  1  0  0  0
 15 53  1  0  0  0  0
 15110  1  0  0  0  0
 54 16  1  6  0  0  0
 16 57  1  0  0  0  0
 16120  1  0  0  0  0
 58 17  1  6  0  0  0
 17126  1  0  0  0  0
 17127  1  0  0  0  0
 18 19  1  0  0  0  0
 18 21  1  0  0  0  0
 18 22  1  0  0  0  0
 18 63  1  1  0  0  0
 19 20  1  0  0  0  0
 19 25  1  0  0  0  0
 19 26  1  0  0  0  0
 20 22  1  0  0  0  0
 20 23  1  0  0  0  0
 20 64  1  1  0  0  0
 21 24  1  0  0  0  0
 21 27  1  1  0  0  0
 22 65  1  0  0  0  0
 22 66  1  0  0  0  0
 23 24  1  0  0  0  0
 23 67  1  0  0  0  0
 23 68  1  0  0  0  0
 24 69  1  1  0  0  0
 25 70  1  0  0  0  0
 25 71  1  0  0  0  0
 25 72  1  0  0  0  0
 26 73  1  0  0  0  0
 26 74  1  0  0  0  0
 26 75  1  0  0  0  0
 27 76  1  0  0  0  0
 27 77  1  0  0  0  0
 27 78  1  0  0  0  0
 28 29  1  0  0  0  0
 28 62  1  0  0  0  0
 28 79  1  0  0  0  0
 29 30  1  0  0  0  0
 29 80  1  0  0  0  0
 29 81  1  0  0  0  0
 30 32  1  0  0  0  0
 30 83  1  0  0  0  0
 30 84  1  0  0  0  0
 33 31  1  1  0  0  0
 32 35  1  0  0  0  0
 32 85  1  0  0  0  0
 32 86  1  0  0  0  0
 33 34  1  0  0  0  0
 33 87  1  0  0  0  0
 34 36  1  0  0  0  0
 34 88  1  0  0  0  0
 34 89  1  0  0  0  0
 35 39  2  0  0  0  0
 35 40  1  0  0  0  0
 36 37  1  0  0  0  0
 36 90  1  0  0  0  0
 36 91  1  0  0  0  0
 37 92  1  0  0  0  0
 37 93  1  0  0  0  0
 38 41  1  0  0  0  0
 39 42  1  0  0  0  0
 39 94  1  0  0  0  0
 40 43  2  0  0  0  0
 40 95  1  0  0  0  0
 41 44  1  0  0  0  0
 41 96  1  0  0  0  0
 42 45  2  0  0  0  0
 42 97  1  0  0  0  0
 43 45  1  0  0  0  0
 43 98  1  0  0  0  0
 44 46  1  0  0  0  0
 44 47  1  0  0  0  0
 44 99  1  0  0  0  0
 45100  1  0  0  0  0
 46102  1  0  0  0  0
 46103  1  0  0  0  0
 46104  1  0  0  0  0
 47105  1  0  0  0  0
 47106  1  0  0  0  0
 47107  1  0  0  0  0
 48 49  1  0  0  0  0
 49 50  1  0  0  0  0
 49108  1  0  0  0  0
 50 51  1  0  0  0  0
 50 52  1  0  0  0  0
 50109  1  0  0  0  0
 51111  1  0  0  0  0
 51112  1  0  0  0  0
 51113  1  0  0  0  0
 52114  1  0  0  0  0
 52115  1  0  0  0  0
 52116  1  0  0  0  0
 53 54  1  0  0  0  0
 54 55  1  0  0  0  0
 54117  1  0  0  0  0
 55 56  1  0  0  0  0
 55118  1  0  0  0  0
 55119  1  0  0  0  0
 56 59  1  0  0  0  0
 56121  1  0  0  0  0
 56122  1  0  0  0  0
 57 58  1  0  0  0  0
 58 60  1  0  0  0  0
 58123  1  0  0  0  0
 60 61  1  0  0  0  0
 60124  1  0  0  0  0
 60125  1  0  0  0  0
M  END
> <PUBCHEM_COMPOUND_CID>
500533
> <PUBCHEM_COMPOUND_CANONICALIZED>
1
> <PUBCHEM_CACTVS_COMPLEXITY>
1660
> <PUBCHEM_CACTVS_HBOND_ACCEPTOR>
12
> <PUBCHEM_CACTVS_HBOND_DONOR>
7
> <PUBCHEM_CACTVS_ROTATABLE_BOND>
21
> <PUBCHEM_CACTVS_SUBSKEYS>
AAADcfJ/vAAAAAAAAAAAAAAAAABgAWJAAAAwYMAAAAAAAEgBAAAoHgAQCAAAD3zhmAYyCIPAAgCIAiHSGAACAAAgAAAIiIGIAIgJYDqAkTCUYAAmlgCIiAe/1/IPgAAAAAAAAADAAAYAADCAAAAAAAAAAA==
> <PUBCHEM_IUPAC_OPENEYE_NAME>
(4S)-4-[[(2S)-2-amino-3-carboxy-propanoyl]amino]-5-[[(1S)-2-methyl-1-[[(1S)-2-methyl-1-[(2S)-2-[[(1R)-4-phenyl-1-[(1R,2S,6R,8S)-2,9,9-trimethyl-3,5-dioxa-4-boratricyclo[6.1.1.02,6]decan-4-yl]butyl]carbamoyl]pyrrolidine-1-carbonyl]propyl]carbamoyl]propyl]amino]-5-oxo-pentanoic acid
> <PUBCHEM_IUPAC_CAS_NAME>
(4S)-4-[[(2S)-2-amino-3-carboxy-1-oxopropyl]amino]-5-[[(2S)-3-methyl-1-[[(2S)-3-methyl-1-oxo-1-[(2S)-2-[oxo-[[(1R)-4-phenyl-1-[(1R,2S,6R,8S)-2,9,9-trimethyl-3,5-dioxa-4-boratricyclo[6.1.1.02,6]decan-4-yl]butyl]amino]methyl]-1-pyrrolidinyl]butan-2-yl]amino]-1-oxobutan-2-yl]amino]-5-oxopentanoic acid
> <PUBCHEM_IUPAC_NAME_MARKUP>
(4<I>S</I>)-4-[[(2<I>S</I>)-2-amino-3-carboxypropanoyl]amino]-5-[[(2<I>S</I>)-3-methyl-1-[[(2<I>S</I>)-3-methyl-1-oxo-1-[(2<I>S</I>)-2-[[(1<I>R</I>)-4-phenyl-1-[(1<I>R</I>,2<I>S</I>,6<I>R</I>,8<I>S</I>)-2,9,9-trimethyl-3,5-dioxa-4-boratricyclo[6.1.1.0<SUP>2,6</SUP>]decan-4-yl]butyl]carbamoyl]pyrrolidin-1-yl]butan-2-yl]amino]-1-oxobutan-2-yl]amino]-5-oxopentanoic acid
> <PUBCHEM_IUPAC_NAME>
(4S)-4-[[(2S)-2-amino-3-carboxypropanoyl]amino]-5-[[(2S)-3-methyl-1-[[(2S)-3-methyl-1-oxo-1-[(2S)-2-[[(1R)-4-phenyl-1-[(1R,2S,6R,8S)-2,9,9-trimethyl-3,5-dioxa-4-boratricyclo[6.1.1.02,6]decan-4-yl]butyl]carbamoyl]pyrrolidin-1-yl]butan-2-yl]amino]-1-oxobutan-2-yl]amino]-5-oxopentanoic acid
> <PUBCHEM_IUPAC_SYSTEMATIC_NAME>
(4S)-4-[[(2S)-2-azanyl-4-oxidanyl-4-oxidanylidene-butanoyl]amino]-5-[[(2S)-3-methyl-1-[[(2S)-3-methyl-1-oxidanylidene-1-[(2S)-2-[[(1R)-4-phenyl-1-[(1R,2S,6R,8S)-2,9,9-trimethyl-3,5-dioxa-4-boratricyclo[6.1.1.02,6]decan-4-yl]butyl]carbamoyl]pyrrolidin-1-yl]butan-2-yl]amino]-1-oxidanylidene-butan-2-yl]amino]-5-oxidanylidene-pentanoic acid
> <PUBCHEM_IUPAC_TRADITIONAL_NAME>
(4S)-4-[[(2S)-2-amino-3-carboxy-propanoyl]amino]-5-keto-5-[[(1S)-2-methyl-1-[[(1S)-2-methyl-1-[(2S)-2-[[(1R)-4-phenyl-1-[(1R,2S,6R,8S)-2,9,9-trimethyl-3,5-dioxa-4-boratricyclo[6.1.1.02,6]decan-4-yl]butyl]carbamoyl]pyrrolidine-1-carbonyl]propyl]carbamoyl]propyl]amino]valeric acid
> <PUBCHEM_IUPAC_INCHI>
InChI=1S/C44H67BN6O11/c1-24(2)36(49-39(57)29(18-19-34(52)53)47-38(56)28(46)23-35(54)55)41(59)50-37(25(3)4)42(60)51-20-12-16-30(51)40(58)48-33(17-11-15-26-13-9-8-10-14-26)45-61-32-22-27-21-31(43(27,5)6)44(32,7)62-45/h8-10,13-14,24-25,27-33,36-37H,11-12,15-23,46H2,1-7H3,(H,47,56)(H,48,58)(H,49,57)(H,50,59)(H,52,53)(H,54,55)/t27-,28-,29-,30-,31+,32+,33-,36-,37-,44-/m0/s1
> <PUBCHEM_IUPAC_INCHIKEY>
NGEKXINEQSWDRC-RUCUBMSCSA-N
> <PUBCHEM_EXACT_MASS>
866.4960871
> <PUBCHEM_MOLECULAR_FORMULA>
C44H67BN6O11
> <PUBCHEM_MOLECULAR_WEIGHT>
866.8
> <PUBCHEM_OPENEYE_CAN_SMILES>
B1(OC2CC3CC(C3(C)C)C2(O1)C)C(CCCC4=CC=CC=C4)NC(=O)C5CCCN5C(=O)C(C(C)C)NC(=O)C(C(C)C)NC(=O)C(CCC(=O)O)NC(=O)C(CC(=O)O)N
> <PUBCHEM_OPENEYE_ISO_SMILES>
B1(O[C@@H]2C[C@@H]3C[C@@H]([C@@]2(O1)C)C3(C)C)[C@H](CCCC4=CC=CC=C4)NC(=O)[C@@H]5CCCN5C(=O)[C@H](C(C)C)NC(=O)[C@H](C(C)C)NC(=O)[C@H](CCC(=O)O)NC(=O)[C@H](CC(=O)O)N
> <PUBCHEM_CACTVS_TPSA>
256
> <PUBCHEM_MONOISOTOPIC_WEIGHT>
866.4960871
> <PUBCHEM_TOTAL_CHARGE>
0
> <PUBCHEM_HEAVY_ATOM_COUNT>
62
> <PUBCHEM_ATOM_DEF_STEREO_COUNT>
10
> <PUBCHEM_ATOM_UDEF_STEREO_COUNT>
0
> <PUBCHEM_BOND_DEF_STEREO_COUNT>
0
> <PUBCHEM_BOND_UDEF_STEREO_COUNT>
0
> <PUBCHEM_ISOTOPIC_ATOM_COUNT>
0
> <PUBCHEM_COMPONENT_COUNT>
1
> <PUBCHEM_CACTVS_TAUTO_COUNT>
-1
> <PUBCHEM_COORDINATE_TYPE>
1
5
255
> <PUBCHEM_BONDANNOTATIONS>
28  12  6
41  14  6
49  15  5
54  16  6
58  17  6
18  63  5
20  64  5
21  27  5
24  69  5
33  31  5
35  39  8
35  40  8
39  42  8
40  43  8
42  45  8
43  45  8
$$$$
