500522
  -OEChem-10302200282D
 94 97  0     1  0  0  0  0  0999 V2000
    6.4367    1.6207    0.0000 O   0  0  0  0  0  0  0  0  0  0  0  0
    5.4917    2.0822    0.0000 O   0  0  0  0  0  0  0  0  0  0  0  0
    6.2189    4.6890    0.0000 O   0  0  0  0  0  0  0  0  0  0  0  0
    8.1443    6.7937    0.0000 O   0  0  0  0  0  0  0  0  0  0  0  0
    7.4234    0.1972    0.0000 O   0  0  0  0  0  0  0  0  0  0  0  0
    7.3208    7.7769    0.0000 O   0  0  0  0  0  0  0  0  0  0  0  0
   10.7994    4.7195    0.0000 O   0  0  0  0  0  0  0  0  0  0  0  0
    4.5216    3.5171    0.0000 O   0  0  0  0  0  0  0  0  0  0  0  0
    8.1147    2.7838    0.0000 C   0  0  1  0  0  0  0  0  0  0  0  0
    7.2586    2.1904    0.0000 C   0  0  1  0  0  0  0  0  0  0  0  0
    8.2009    1.7453    0.0000 C   0  0  0  0  0  0  0  0  0  0  0  0
    8.0208    3.8212    0.0000 C   0  0  1  0  0  0  0  0  0  0  0  0
    6.3201    2.6424    0.0000 C   0  0  1  0  0  0  0  0  0  0  0  0
    7.1199    4.2551    0.0000 C   0  0  1  0  0  0  0  0  0  0  0  0
    6.2503    3.6816    0.0000 C   0  0  2  0  0  0  0  0  0  0  0  0
    9.1974    1.8277    0.0000 C   0  0  0  0  0  0  0  0  0  0  0  0
    7.7739    0.8410    0.0000 C   0  0  0  0  0  0  0  0  0  0  0  0
    6.8974    5.2300    0.0000 C   0  0  1  0  0  0  0  0  0  0  0  0
    8.9218    4.2551    0.0000 C   0  0  0  0  0  0  0  0  0  0  0  0
    7.5208    6.0118    0.0000 C   0  0  1  0  0  0  0  0  0  0  0  0
    5.2523    3.6184    0.0000 C   0  0  0  0  0  0  0  0  0  0  0  0
    9.1443    5.2300    0.0000 C   0  0  0  0  0  0  0  0  0  0  0  0
    8.5208    6.0118    0.0000 C   0  0  0  0  0  0  0  0  0  0  0  0
    5.9676    5.5817    0.0000 C   0  0  0  0  0  0  0  0  0  0  0  0
    6.5192    0.6241    0.0000 C   0  0  0  0  0  0  0  0  0  0  0  0
    6.9711    6.8400    0.0000 C   0  0  0  0  0  0  0  0  0  0  0  0
    6.0130    6.5748    0.0000 C   0  0  0  0  0  0  0  0  0  0  0  0
    4.5924    2.5196    0.0000 C   0  0  0  0  0  0  0  0  0  0  0  0
   10.1193    5.4525    0.0000 C   0  0  0  0  0  0  0  0  0  0  0  0
    5.6973    0.0545    0.0000 C   0  0  0  0  0  0  0  0  0  0  0  0
    5.2312    7.1982    0.0000 C   0  0  0  0  0  0  0  0  0  0  0  0
    3.7640    1.9594    0.0000 C   0  0  0  0  0  0  0  0  0  0  0  0
    5.7797   -0.9421    0.0000 C   0  0  0  0  0  0  0  0  0  0  0  0
    4.9578   -1.5118    0.0000 C   0  0  0  0  0  0  0  0  0  0  0  0
    5.0402   -2.5084    0.0000 C   0  0  0  0  0  0  0  0  0  0  0  0
    4.2184   -3.0781    0.0000 C   0  0  0  0  0  0  0  0  0  0  0  0
    4.3008   -4.0747    0.0000 C   0  0  0  0  0  0  0  0  0  0  0  0
    3.4789   -4.6444    0.0000 C   0  0  0  0  0  0  0  0  0  0  0  0
    3.5613   -5.6409    0.0000 C   0  0  0  0  0  0  0  0  0  0  0  0
    2.7395   -6.2106    0.0000 C   0  0  0  0  0  0  0  0  0  0  0  0
    2.8219   -7.2072    0.0000 C   0  0  0  0  0  0  0  0  0  0  0  0
    2.0000   -7.7769    0.0000 C   0  0  0  0  0  0  0  0  0  0  0  0
    8.9615    2.8572    0.0000 H   0  0  0  0  0  0  0  0  0  0  0  0
    8.7602    3.4019    0.0000 H   0  0  0  0  0  0  0  0  0  0  0  0
    5.7631    2.9146    0.0000 H   0  0  0  0  0  0  0  0  0  0  0  0
    6.0534    4.2696    0.0000 H   0  0  0  0  0  0  0  0  0  0  0  0
    9.2485    1.2098    0.0000 H   0  0  0  0  0  0  0  0  0  0  0  0
    9.8153    1.8788    0.0000 H   0  0  0  0  0  0  0  0  0  0  0  0
    9.1464    2.4456    0.0000 H   0  0  0  0  0  0  0  0  0  0  0  0
    7.2133    1.1057    0.0000 H   0  0  0  0  0  0  0  0  0  0  0  0
    7.5092    0.2803    0.0000 H   0  0  0  0  0  0  0  0  0  0  0  0
    8.3346    0.5763    0.0000 H   0  0  0  0  0  0  0  0  0  0  0  0
    7.7260    5.0409    0.0000 H   0  0  0  0  0  0  0  0  0  0  0  0
    9.4066    3.8685    0.0000 H   0  0  0  0  0  0  0  0  0  0  0  0
    5.2131    4.2372    0.0000 H   0  0  0  0  0  0  0  0  0  0  0  0
    4.6335    3.5793    0.0000 H   0  0  0  0  0  0  0  0  0  0  0  0
    5.2915    2.9997    0.0000 H   0  0  0  0  0  0  0  0  0  0  0  0
    5.6006    4.6427    0.0000 H   0  0  0  0  0  0  0  0  0  0  0  0
    9.0794    6.2808    0.0000 H   0  0  0  0  0  0  0  0  0  0  0  0
    8.3829    6.6163    0.0000 H   0  0  0  0  0  0  0  0  0  0  0  0
    5.4496    5.2411    0.0000 H   0  0  0  0  0  0  0  0  0  0  0  0
    8.7574    6.7013    0.0000 H   0  0  0  0  0  0  0  0  0  0  0  0
   10.6401    5.7889    0.0000 H   0  0  0  0  0  0  0  0  0  0  0  0
    9.8784    6.0238    0.0000 H   0  0  0  0  0  0  0  0  0  0  0  0
    5.4379    0.6176    0.0000 H   0  0  0  0  0  0  0  0  0  0  0  0
    5.0976   -0.1031    0.0000 H   0  0  0  0  0  0  0  0  0  0  0  0
    5.6178    7.6830    0.0000 H   0  0  0  0  0  0  0  0  0  0  0  0
    4.7465    7.5848    0.0000 H   0  0  0  0  0  0  0  0  0  0  0  0
    4.8446    6.7135    0.0000 H   0  0  0  0  0  0  0  0  0  0  0  0
    3.4168    2.4731    0.0000 H   0  0  0  0  0  0  0  0  0  0  0  0
    3.2504    1.6122    0.0000 H   0  0  0  0  0  0  0  0  0  0  0  0
    4.1113    1.4458    0.0000 H   0  0  0  0  0  0  0  0  0  0  0  0
    6.0390   -1.5053    0.0000 H   0  0  0  0  0  0  0  0  0  0  0  0
    6.3793   -0.7845    0.0000 H   0  0  0  0  0  0  0  0  0  0  0  0
   11.4039    4.8574    0.0000 H   0  0  0  0  0  0  0  0  0  0  0  0
    4.6985   -0.9487    0.0000 H   0  0  0  0  0  0  0  0  0  0  0  0
    4.3582   -1.6694    0.0000 H   0  0  0  0  0  0  0  0  0  0  0  0
    5.2996   -3.0715    0.0000 H   0  0  0  0  0  0  0  0  0  0  0  0
    5.6399   -2.3508    0.0000 H   0  0  0  0  0  0  0  0  0  0  0  0
    3.9590   -2.5149    0.0000 H   0  0  0  0  0  0  0  0  0  0  0  0
    3.6187   -3.2357    0.0000 H   0  0  0  0  0  0  0  0  0  0  0  0
    4.5601   -4.6378    0.0000 H   0  0  0  0  0  0  0  0  0  0  0  0
    4.9004   -3.9171    0.0000 H   0  0  0  0  0  0  0  0  0  0  0  0
    3.2196   -4.0812    0.0000 H   0  0  0  0  0  0  0  0  0  0  0  0
    2.8793   -4.8020    0.0000 H   0  0  0  0  0  0  0  0  0  0  0  0
    3.8207   -6.2041    0.0000 H   0  0  0  0  0  0  0  0  0  0  0  0
    4.1610   -5.4833    0.0000 H   0  0  0  0  0  0  0  0  0  0  0  0
    2.4801   -5.6475    0.0000 H   0  0  0  0  0  0  0  0  0  0  0  0
    2.1398   -6.3682    0.0000 H   0  0  0  0  0  0  0  0  0  0  0  0
    3.0812   -7.7704    0.0000 H   0  0  0  0  0  0  0  0  0  0  0  0
    3.4215   -7.0496    0.0000 H   0  0  0  0  0  0  0  0  0  0  0  0
    1.6468   -7.2673    0.0000 H   0  0  0  0  0  0  0  0  0  0  0  0
    1.4904   -8.1301    0.0000 H   0  0  0  0  0  0  0  0  0  0  0  0
    2.3532   -8.2864    0.0000 H   0  0  0  0  0  0  0  0  0  0  0  0
 10  1  1  1  0  0  0
  1 25  1  0  0  0  0
 13  2  1  6  0  0  0
  2 28  1  0  0  0  0
 14  3  1  1  0  0  0
  3 58  1  0  0  0  0
 20  4  1  6  0  0  0
  4 62  1  0  0  0  0
  5 25  2  0  0  0  0
  6 26  2  0  0  0  0
  7 29  1  0  0  0  0
  7 75  1  0  0  0  0
  8 28  2  0  0  0  0
  9 10  1  0  0  0  0
  9 11  1  0  0  0  0
  9 12  1  0  0  0  0
  9 43  1  1  0  0  0
 10 11  1  0  0  0  0
 10 13  1  0  0  0  0
 11 16  1  0  0  0  0
 11 17  1  0  0  0  0
 12 14  1  0  0  0  0
 12 19  1  0  0  0  0
 12 44  1  6  0  0  0
 13 15  1  0  0  0  0
 13 45  1  0  0  0  0
 14 15  1  0  0  0  0
 14 18  1  0  0  0  0
 15 21  1  1  0  0  0
 15 46  1  0  0  0  0
 16 47  1  0  0  0  0
 16 48  1  0  0  0  0
 16 49  1  0  0  0  0
 17 50  1  0  0  0  0
 17 51  1  0  0  0  0
 17 52  1  0  0  0  0
 18 20  1  0  0  0  0
 18 24  1  0  0  0  0
 18 53  1  1  0  0  0
 19 22  2  0  0  0  0
 19 54  1  0  0  0  0
 20 23  1  0  0  0  0
 20 26  1  0  0  0  0
 21 55  1  0  0  0  0
 21 56  1  0  0  0  0
 21 57  1  0  0  0  0
 22 23  1  0  0  0  0
 22 29  1  0  0  0  0
 23 59  1  0  0  0  0
 23 60  1  0  0  0  0
 24 27  2  0  0  0  0
 24 61  1  0  0  0  0
 25 30  1  0  0  0  0
 26 27  1  0  0  0  0
 27 31  1  0  0  0  0
 28 32  1  0  0  0  0
 29 63  1  0  0  0  0
 29 64  1  0  0  0  0
 30 33  1  0  0  0  0
 30 65  1  0  0  0  0
 30 66  1  0  0  0  0
 31 67  1  0  0  0  0
 31 68  1  0  0  0  0
 31 69  1  0  0  0  0
 32 70  1  0  0  0  0
 32 71  1  0  0  0  0
 32 72  1  0  0  0  0
 33 34  1  0  0  0  0
 33 73  1  0  0  0  0
 33 74  1  0  0  0  0
 34 35  1  0  0  0  0
 34 76  1  0  0  0  0
 34 77  1  0  0  0  0
 35 36  1  0  0  0  0
 35 78  1  0  0  0  0
 35 79  1  0  0  0  0
 36 37  1  0  0  0  0
 36 80  1  0  0  0  0
 36 81  1  0  0  0  0
 37 38  1  0  0  0  0
 37 82  1  0  0  0  0
 37 83  1  0  0  0  0
 38 39  1  0  0  0  0
 38 84  1  0  0  0  0
 38 85  1  0  0  0  0
 39 40  1  0  0  0  0
 39 86  1  0  0  0  0
 39 87  1  0  0  0  0
 40 41  1  0  0  0  0
 40 88  1  0  0  0  0
 40 89  1  0  0  0  0
 41 42  1  0  0  0  0
 41 90  1  0  0  0  0
 41 91  1  0  0  0  0
 42 92  1  0  0  0  0
 42 93  1  0  0  0  0
 42 94  1  0  0  0  0
M  END
> <PUBCHEM_COMPOUND_CID>
500522
> <PUBCHEM_COMPOUND_CANONICALIZED>
1
> <PUBCHEM_CACTVS_COMPLEXITY>
1120
> <PUBCHEM_CACTVS_HBOND_ACCEPTOR>
8
> <PUBCHEM_CACTVS_HBOND_DONOR>
3
> <PUBCHEM_CACTVS_ROTATABLE_BOND>
15
> <PUBCHEM_CACTVS_SUBSKEYS>
AAADcfB8PAAAAAAAAAAAAAAAGAAAAQAAAAAwAAAABggAAACAAAAAGgAACAAAD1SggAICCAAABgCIAqDSCAIAAAAgAAAACAFAAEgBFBIAAQACUAAFwAAKEYPK7PyPgAAAAAAAAADCAAYQADCAAAAAAAAAAA==
> <PUBCHEM_IUPAC_OPENEYE_NAME>
[(1S,2S,6R,10S,11R,13S,14R,15R)-14-acetoxy-1,6-dihydroxy-8-(hydroxymethyl)-4,12,12,15-tetramethyl-5-oxo-13-tetracyclo[8.5.0.02,6.011,13]pentadeca-3,8-dienyl] dodecanoate
> <PUBCHEM_IUPAC_CAS_NAME>
dodecanoic acid [(1S,2S,6R,10S,11R,13S,14R,15R)-14-acetyloxy-1,6-dihydroxy-8-(hydroxymethyl)-4,12,12,15-tetramethyl-5-oxo-13-tetracyclo[8.5.0.02,6.011,13]pentadeca-3,8-dienyl] ester
> <PUBCHEM_IUPAC_NAME_MARKUP>
[(1<I>S</I>,2<I>S</I>,6<I>R</I>,10<I>S</I>,11<I>R</I>,13<I>S</I>,14<I>R</I>,15<I>R</I>)-14-acetyloxy-1,6-dihydroxy-8-(hydroxymethyl)-4,12,12,15-tetramethyl-5-oxo-13-tetracyclo[8.5.0.0<SUP>2,6</SUP>.0<SUP>11,13</SUP>]pentadeca-3,8-dienyl] dodecanoate
> <PUBCHEM_IUPAC_NAME>
[(1S,2S,6R,10S,11R,13S,14R,15R)-14-acetyloxy-1,6-dihydroxy-8-(hydroxymethyl)-4,12,12,15-tetramethyl-5-oxo-13-tetracyclo[8.5.0.02,6.011,13]pentadeca-3,8-dienyl] dodecanoate
> <PUBCHEM_IUPAC_SYSTEMATIC_NAME>
[(1S,2S,6R,10S,11R,13S,14R,15R)-14-acetyloxy-8-(hydroxymethyl)-4,12,12,15-tetramethyl-1,6-bis(oxidanyl)-5-oxidanylidene-13-tetracyclo[8.5.0.02,6.011,13]pentadeca-3,8-dienyl] dodecanoate
> <PUBCHEM_IUPAC_TRADITIONAL_NAME>
lauric acid [(1S,2S,6R,10S,11R,13S,14R,15R)-14-acetoxy-1,6-dihydroxy-5-keto-4,12,12,15-tetramethyl-8-methylol-13-tetracyclo[8.5.0.02,6.011,13]pentadeca-3,8-dienyl] ester
> <PUBCHEM_IUPAC_INCHI>
InChI=1S/C34H52O8/c1-7-8-9-10-11-12-13-14-15-16-27(37)42-34-28(31(34,5)6)25-18-24(20-35)19-32(39)26(17-21(2)29(32)38)33(25,40)22(3)30(34)41-23(4)36/h17-18,22,25-26,28,30,35,39-40H,7-16,19-20H2,1-6H3/t22-,25+,26-,28-,30-,32-,33-,34-/m1/s1
> <PUBCHEM_IUPAC_INCHIKEY>
PSBLORXWXFKGFT-WVMKKHFXSA-N
> <PUBCHEM_XLOGP3_AA>
5.5
> <PUBCHEM_EXACT_MASS>
588.36621861
> <PUBCHEM_MOLECULAR_FORMULA>
C34H52O8
> <PUBCHEM_MOLECULAR_WEIGHT>
588.8
> <PUBCHEM_OPENEYE_CAN_SMILES>
CCCCCCCCCCCC(=O)OC12C(C1(C)C)C3C=C(CC4(C(C3(C(C2OC(=O)C)C)O)C=C(C4=O)C)O)CO
> <PUBCHEM_OPENEYE_ISO_SMILES>
CCCCCCCCCCCC(=O)O[C@@]12[C@@H](C1(C)C)[C@@H]3C=C(C[C@]4([C@H]([C@]3([C@@H]([C@H]2OC(=O)C)C)O)C=C(C4=O)C)O)CO
> <PUBCHEM_CACTVS_TPSA>
130
> <PUBCHEM_MONOISOTOPIC_WEIGHT>
588.36621861
> <PUBCHEM_TOTAL_CHARGE>
0
> <PUBCHEM_HEAVY_ATOM_COUNT>
42
> <PUBCHEM_ATOM_DEF_STEREO_COUNT>
8
> <PUBCHEM_ATOM_UDEF_STEREO_COUNT>
0
> <PUBCHEM_BOND_DEF_STEREO_COUNT>
0
> <PUBCHEM_BOND_UDEF_STEREO_COUNT>
0
> <PUBCHEM_ISOTOPIC_ATOM_COUNT>
0
> <PUBCHEM_COMPONENT_COUNT>
1
> <PUBCHEM_CACTVS_TAUTO_COUNT>
-1
> <PUBCHEM_COORDINATE_TYPE>
1
5
255
> <PUBCHEM_BONDANNOTATIONS>
10  1  5
12  44  6
15  21  5
18  53  5
13  2  6
14  3  5
20  4  6
9  43  5
$$$$
