500565
  -OEChem-10302200282D
116116  0     1  0  0  0  0  0999 V2000
    4.5981    0.6550    0.0000 O   0  0  0  0  0  0  0  0  0  0  0  0
    8.0622   -0.3450    0.0000 O   0  0  0  0  0  0  0  0  0  0  0  0
    3.7320    4.1550    0.0000 O   0  0  0  0  0  0  0  0  0  0  0  0
    8.9282   -0.8450    0.0000 O   0  0  0  0  0  0  0  0  0  0  0  0
   11.5263   -3.3450    0.0000 O   0  0  0  0  0  0  0  0  0  0  0  0
    6.3301    6.6550    0.0000 O   0  0  0  0  0  0  0  0  0  0  0  0
   11.5263   -5.3450    0.0000 O   0  0  0  0  0  0  0  0  0  0  0  0
    9.7942   -5.3450    0.0000 O   0  0  0  0  0  0  0  0  0  0  0  0
   13.2583    0.6550    0.0000 O   0  0  0  0  0  0  0  0  0  0  0  0
   12.3923   -3.8450    0.0000 O   0  0  0  0  0  0  0  0  0  0  0  0
   14.1244   -0.8450    0.0000 O   0  0  0  0  0  0  0  0  0  0  0  0
   14.9904   -6.3450    0.0000 O   0  0  0  0  0  0  0  0  0  0  0  0
   15.8564   -4.8450    0.0000 O   0  0  0  0  0  0  0  0  0  0  0  0
    6.3301   -0.3450    0.0000 N   0  0  0  0  0  0  0  0  0  0  0  0
    5.4641    2.1550    0.0000 N   0  0  0  0  0  0  0  0  0  0  0  0
    8.0622   -2.3450    0.0000 N   0  0  0  0  0  0  0  0  0  0  0  0
    5.4641    4.1550    0.0000 N   0  0  0  0  0  0  0  0  0  0  0  0
   10.6603   -1.8450    0.0000 N   0  0  0  0  0  0  0  0  0  0  0  0
   13.2583   -2.3450    0.0000 N   0  0  0  0  0  0  0  0  0  0  0  0
    7.1962    1.1550    0.0000 C   0  0  0  0  0  0  0  0  0  0  0  0
    6.3301    0.6550    0.0000 C   0  0  1  0  0  0  0  0  0  0  0  0
    8.0622    1.6550    0.0000 C   0  0  0  0  0  0  0  0  0  0  0  0
    6.6962    2.0210    0.0000 C   0  0  0  0  0  0  0  0  0  0  0  0
    7.6962    0.2890    0.0000 C   0  0  0  0  0  0  0  0  0  0  0  0
    5.4641    1.1550    0.0000 C   0  0  0  0  0  0  0  0  0  0  0  0
    4.5981    2.6550    0.0000 C   0  0  1  0  0  0  0  0  0  0  0  0
    3.7320    2.1550    0.0000 C   0  0  0  0  0  0  0  0  0  0  0  0
    7.1962   -1.8450    0.0000 C   0  0  2  0  0  0  0  0  0  0  0  0
    7.1962   -0.8450    0.0000 C   0  0  0  0  0  0  0  0  0  0  0  0
    2.8660    2.6550    0.0000 C   0  0  0  0  0  0  0  0  0  0  0  0
    6.3301   -2.3450    0.0000 C   0  0  0  0  0  0  0  0  0  0  0  0
    4.5981    3.6550    0.0000 C   0  0  0  0  0  0  0  0  0  0  0  0
    2.0000    2.1550    0.0000 C   0  0  0  0  0  0  0  0  0  0  0  0
    2.8660    3.6550    0.0000 C   0  0  0  0  0  0  0  0  0  0  0  0
    6.3301   -3.3450    0.0000 C   0  0  0  0  0  0  0  0  0  0  0  0
    9.7942   -2.3450    0.0000 C   0  0  2  0  0  0  0  0  0  0  0  0
    8.9282   -1.8450    0.0000 C   0  0  0  0  0  0  0  0  0  0  0  0
    5.4641    5.1550    0.0000 C   0  0  3  0  0  0  0  0  0  0  0  0
    9.7942   -3.3450    0.0000 C   0  0  0  0  0  0  0  0  0  0  0  0
    5.4641   -3.8450    0.0000 C   0  0  0  0  0  0  0  0  0  0  0  0
    7.1962   -3.8450    0.0000 C   0  0  0  0  0  0  0  0  0  0  0  0
    4.5981    5.6550    0.0000 C   0  0  0  0  0  0  0  0  0  0  0  0
   10.6603   -3.8450    0.0000 C   0  0  0  0  0  0  0  0  0  0  0  0
    5.4641   -4.8450    0.0000 C   0  0  0  0  0  0  0  0  0  0  0  0
   11.5263   -2.3450    0.0000 C   0  0  0  0  0  0  0  0  0  0  0  0
    4.5981   -3.3450    0.0000 C   0  0  0  0  0  0  0  0  0  0  0  0
   12.3923   -1.8450    0.0000 C   0  0  2  0  0  0  0  0  0  0  0  0
    7.1962   -4.8450    0.0000 C   0  0  0  0  0  0  0  0  0  0  0  0
    6.3301    5.6550    0.0000 C   0  0  0  0  0  0  0  0  0  0  0  0
    6.3301   -5.3450    0.0000 C   0  0  0  0  0  0  0  0  0  0  0  0
    4.5981    6.6550    0.0000 C   0  0  0  0  0  0  0  0  0  0  0  0
   12.3923   -0.8450    0.0000 C   0  0  0  0  0  0  0  0  0  0  0  0
   10.6603   -4.8450    0.0000 C   0  0  0  0  0  0  0  0  0  0  0  0
   13.2583   -3.3450    0.0000 C   0  0  0  0  0  0  0  0  0  0  0  0
   13.2583   -0.3450    0.0000 C   0  0  0  0  0  0  0  0  0  0  0  0
   14.1244   -3.8450    0.0000 C   0  0  0  0  0  0  0  0  0  0  0  0
   14.1244   -4.8450    0.0000 C   0  0  0  0  0  0  0  0  0  0  0  0
   14.9904   -5.3450    0.0000 C   0  0  0  0  0  0  0  0  0  0  0  0
    6.8671    0.3450    0.0000 H   0  0  0  0  0  0  0  0  0  0  0  0
    8.3722    1.1181    0.0000 H   0  0  0  0  0  0  0  0  0  0  0  0
    8.5991    1.9650    0.0000 H   0  0  0  0  0  0  0  0  0  0  0  0
    7.7522    2.1919    0.0000 H   0  0  0  0  0  0  0  0  0  0  0  0
    7.2331    2.3310    0.0000 H   0  0  0  0  0  0  0  0  0  0  0  0
    6.3862    2.5580    0.0000 H   0  0  0  0  0  0  0  0  0  0  0  0
    6.1592    1.7110    0.0000 H   0  0  0  0  0  0  0  0  0  0  0  0
    7.1592   -0.0210    0.0000 H   0  0  0  0  0  0  0  0  0  0  0  0
    8.0062   -0.2480    0.0000 H   0  0  0  0  0  0  0  0  0  0  0  0
    8.2331    0.5990    0.0000 H   0  0  0  0  0  0  0  0  0  0  0  0
    5.7932   -0.6550    0.0000 H   0  0  0  0  0  0  0  0  0  0  0  0
    4.5981    2.0350    0.0000 H   0  0  0  0  0  0  0  0  0  0  0  0
    3.3335    1.6800    0.0000 H   0  0  0  0  0  0  0  0  0  0  0  0
    4.1306    1.6800    0.0000 H   0  0  0  0  0  0  0  0  0  0  0  0
    6.0010    2.4650    0.0000 H   0  0  0  0  0  0  0  0  0  0  0  0
    7.7331   -1.5350    0.0000 H   0  0  0  0  0  0  0  0  0  0  0  0
    2.8660    2.0350    0.0000 H   0  0  0  0  0  0  0  0  0  0  0  0
    6.1181   -1.7624    0.0000 H   0  0  0  0  0  0  0  0  0  0  0  0
    5.7196   -2.4527    0.0000 H   0  0  0  0  0  0  0  0  0  0  0  0
    8.0622   -2.9650    0.0000 H   0  0  0  0  0  0  0  0  0  0  0  0
    1.6900    2.6919    0.0000 H   0  0  0  0  0  0  0  0  0  0  0  0
    1.4631    1.8450    0.0000 H   0  0  0  0  0  0  0  0  0  0  0  0
    2.3100    1.6181    0.0000 H   0  0  0  0  0  0  0  0  0  0  0  0
    3.4860    3.6550    0.0000 H   0  0  0  0  0  0  0  0  0  0  0  0
    2.8660    4.2750    0.0000 H   0  0  0  0  0  0  0  0  0  0  0  0
    2.2460    3.6550    0.0000 H   0  0  0  0  0  0  0  0  0  0  0  0
    9.7942   -1.7250    0.0000 H   0  0  0  0  0  0  0  0  0  0  0  0
    6.0010    3.8450    0.0000 H   0  0  0  0  0  0  0  0  0  0  0  0
    6.0010    4.8450    0.0000 H   0  0  0  0  0  0  0  0  0  0  0  0
    9.1836   -3.2373    0.0000 H   0  0  0  0  0  0  0  0  0  0  0  0
    9.5822   -3.9276    0.0000 H   0  0  0  0  0  0  0  0  0  0  0  0
    7.7331   -3.5350    0.0000 H   0  0  0  0  0  0  0  0  0  0  0  0
   10.6603   -1.2250    0.0000 H   0  0  0  0  0  0  0  0  0  0  0  0
    3.9875    5.7627    0.0000 H   0  0  0  0  0  0  0  0  0  0  0  0
    4.3860    5.0724    0.0000 H   0  0  0  0  0  0  0  0  0  0  0  0
   11.2708   -3.9527    0.0000 H   0  0  0  0  0  0  0  0  0  0  0  0
   10.8723   -3.2624    0.0000 H   0  0  0  0  0  0  0  0  0  0  0  0
    4.9272   -5.1550    0.0000 H   0  0  0  0  0  0  0  0  0  0  0  0
    4.9081   -2.8081    0.0000 H   0  0  0  0  0  0  0  0  0  0  0  0
    4.0611   -3.0350    0.0000 H   0  0  0  0  0  0  0  0  0  0  0  0
    4.2881   -3.8819    0.0000 H   0  0  0  0  0  0  0  0  0  0  0  0
   12.3923   -2.4650    0.0000 H   0  0  0  0  0  0  0  0  0  0  0  0
    7.7331   -5.1550    0.0000 H   0  0  0  0  0  0  0  0  0  0  0  0
    6.8671    5.3450    0.0000 H   0  0  0  0  0  0  0  0  0  0  0  0
    6.3301   -5.9650    0.0000 H   0  0  0  0  0  0  0  0  0  0  0  0
    5.2181    6.6550    0.0000 H   0  0  0  0  0  0  0  0  0  0  0  0
    4.5981    7.2750    0.0000 H   0  0  0  0  0  0  0  0  0  0  0  0
    3.9781    6.6550    0.0000 H   0  0  0  0  0  0  0  0  0  0  0  0
   12.1803   -0.2624    0.0000 H   0  0  0  0  0  0  0  0  0  0  0  0
   11.7817   -0.9527    0.0000 H   0  0  0  0  0  0  0  0  0  0  0  0
   13.7953   -2.0350    0.0000 H   0  0  0  0  0  0  0  0  0  0  0  0
   14.7349   -3.9527    0.0000 H   0  0  0  0  0  0  0  0  0  0  0  0
   14.3364   -3.2624    0.0000 H   0  0  0  0  0  0  0  0  0  0  0  0
   11.5263   -5.9650    0.0000 H   0  0  0  0  0  0  0  0  0  0  0  0
   13.5138   -4.7373    0.0000 H   0  0  0  0  0  0  0  0  0  0  0  0
   13.9123   -5.4276    0.0000 H   0  0  0  0  0  0  0  0  0  0  0  0
   13.7953    0.9650    0.0000 H   0  0  0  0  0  0  0  0  0  0  0  0
   15.5273   -6.6550    0.0000 H   0  0  0  0  0  0  0  0  0  0  0  0
  1 25  2  0  0  0  0
  2 29  2  0  0  0  0
  3 32  2  0  0  0  0
  4 37  2  0  0  0  0
  5 45  2  0  0  0  0
  6 49  2  0  0  0  0
  7 53  1  0  0  0  0
  7112  1  0  0  0  0
  8 53  2  0  0  0  0
  9 55  1  0  0  0  0
  9115  1  0  0  0  0
 10 54  2  0  0  0  0
 11 55  2  0  0  0  0
 12 58  1  0  0  0  0
 12116  1  0  0  0  0
 13 58  2  0  0  0  0
 21 14  1  6  0  0  0
 14 29  1  0  0  0  0
 14 69  1  0  0  0  0
 15 25  1  0  0  0  0
 26 15  1  1  0  0  0
 15 73  1  0  0  0  0
 28 16  1  1  0  0  0
 16 37  1  0  0  0  0
 16 78  1  0  0  0  0
 17 32  1  0  0  0  0
 17 38  1  0  0  0  0
 17 86  1  0  0  0  0
 36 18  1  1  0  0  0
 18 45  1  0  0  0  0
 18 91  1  0  0  0  0
 47 19  1  6  0  0  0
 19 54  1  0  0  0  0
 19109  1  0  0  0  0
 20 21  1  0  0  0  0
 20 22  1  0  0  0  0
 20 23  1  0  0  0  0
 20 24  1  0  0  0  0
 21 25  1  0  0  0  0
 21 59  1  0  0  0  0
 22 60  1  0  0  0  0
 22 61  1  0  0  0  0
 22 62  1  0  0  0  0
 23 63  1  0  0  0  0
 23 64  1  0  0  0  0
 23 65  1  0  0  0  0
 24 66  1  0  0  0  0
 24 67  1  0  0  0  0
 24 68  1  0  0  0  0
 26 27  1  0  0  0  0
 26 32  1  0  0  0  0
 26 70  1  0  0  0  0
 27 30  1  0  0  0  0
 27 71  1  0  0  0  0
 27 72  1  0  0  0  0
 28 29  1  0  0  0  0
 28 31  1  0  0  0  0
 28 74  1  0  0  0  0
 30 33  1  0  0  0  0
 30 34  1  0  0  0  0
 30 75  1  0  0  0  0
 31 35  1  0  0  0  0
 31 76  1  0  0  0  0
 31 77  1  0  0  0  0
 33 79  1  0  0  0  0
 33 80  1  0  0  0  0
 33 81  1  0  0  0  0
 34 82  1  0  0  0  0
 34 83  1  0  0  0  0
 34 84  1  0  0  0  0
 35 40  1  0  0  0  0
 35 41  2  0  0  0  0
 36 37  1  0  0  0  0
 36 39  1  0  0  0  0
 36 85  1  0  0  0  0
 38 42  1  0  0  0  0
 38 49  1  0  0  0  0
 38 87  1  0  0  0  0
 39 43  1  0  0  0  0
 39 88  1  0  0  0  0
 39 89  1  0  0  0  0
 40 44  2  0  0  0  0
 40 46  1  0  0  0  0
 41 48  1  0  0  0  0
 41 90  1  0  0  0  0
 42 51  1  0  0  0  0
 42 92  1  0  0  0  0
 42 93  1  0  0  0  0
 43 53  1  0  0  0  0
 43 94  1  0  0  0  0
 43 95  1  0  0  0  0
 44 50  1  0  0  0  0
 44 96  1  0  0  0  0
 45 47  1  0  0  0  0
 46 97  1  0  0  0  0
 46 98  1  0  0  0  0
 46 99  1  0  0  0  0
 47 52  1  0  0  0  0
 47100  1  0  0  0  0
 48 50  2  0  0  0  0
 48101  1  0  0  0  0
 49102  1  0  0  0  0
 50103  1  0  0  0  0
 51104  1  0  0  0  0
 51105  1  0  0  0  0
 51106  1  0  0  0  0
 52 55  1  0  0  0  0
 52107  1  0  0  0  0
 52108  1  0  0  0  0
 54 56  1  0  0  0  0
 56 57  1  0  0  0  0
 56110  1  0  0  0  0
 56111  1  0  0  0  0
 57 58  1  0  0  0  0
 57113  1  0  0  0  0
 57114  1  0  0  0  0
M  END
> <PUBCHEM_COMPOUND_CID>
500565
> <PUBCHEM_COMPOUND_CANONICALIZED>
1
> <PUBCHEM_CACTVS_COMPLEXITY>
1480
> <PUBCHEM_CACTVS_HBOND_ACCEPTOR>
13
> <PUBCHEM_CACTVS_HBOND_DONOR>
9
> <PUBCHEM_CACTVS_ROTATABLE_BOND>
26
> <PUBCHEM_CACTVS_SUBSKEYS>
AAADcfB/vAAAAAAAAAAAAAAAAAAAAAAAAAAwAAAAAAAAAAABAAAAHgAQCAAADyjhmAYyCILAAgCIAinSmAACAAAgAAAIiIGIAIgIYDqAkTGUYAAmlgCIiAe/n4KPgAAAAAAQAAAAAAAAACAAAAAAAAAAAA==
> <PUBCHEM_IUPAC_OPENEYE_NAME>
(4S)-4-[[(2S)-3-carboxy-2-(3-carboxypropanoylamino)propanoyl]amino]-5-[[(1S)-2-[[(1S)-1-[[(1S)-1-(1-formylpropylcarbamoyl)-3-methyl-butyl]carbamoyl]-2,2-dimethyl-propyl]amino]-1-(o-tolylmethyl)-2-oxo-ethyl]amino]-5-oxo-pentanoic acid
> <PUBCHEM_IUPAC_CAS_NAME>
(4S)-4-[[(2S)-3-carboxy-2-[(3-carboxy-1-oxopropyl)amino]-1-oxopropyl]amino]-5-[[(2S)-1-[[(2S)-3,3-dimethyl-1-[[(2S)-4-methyl-1-oxo-1-(1-oxobutan-2-ylamino)pentan-2-yl]amino]-1-oxobutan-2-yl]amino]-3-(2-methylphenyl)-1-oxopropan-2-yl]amino]-5-oxopentanoic acid
> <PUBCHEM_IUPAC_NAME_MARKUP>
(4<I>S</I>)-4-[[(2<I>S</I>)-3-carboxy-2-(3-carboxypropanoylamino)propanoyl]amino]-5-[[(2<I>S</I>)-1-[[(2<I>S</I>)-3,3-dimethyl-1-[[(2<I>S</I>)-4-methyl-1-oxo-1-(1-oxobutan-2-ylamino)pentan-2-yl]amino]-1-oxobutan-2-yl]amino]-3-(2-methylphenyl)-1-oxopropan-2-yl]amino]-5-oxopentanoic acid
> <PUBCHEM_IUPAC_NAME>
(4S)-4-[[(2S)-3-carboxy-2-(3-carboxypropanoylamino)propanoyl]amino]-5-[[(2S)-1-[[(2S)-3,3-dimethyl-1-[[(2S)-4-methyl-1-oxo-1-(1-oxobutan-2-ylamino)pentan-2-yl]amino]-1-oxobutan-2-yl]amino]-3-(2-methylphenyl)-1-oxopropan-2-yl]amino]-5-oxopentanoic acid
> <PUBCHEM_IUPAC_SYSTEMATIC_NAME>
(4S)-5-[[(2S)-1-[[(2S)-3,3-dimethyl-1-[[(2S)-4-methyl-1-oxidanylidene-1-(1-oxidanylidenebutan-2-ylamino)pentan-2-yl]amino]-1-oxidanylidene-butan-2-yl]amino]-3-(2-methylphenyl)-1-oxidanylidene-propan-2-yl]amino]-5-oxidanylidene-4-[[(2S)-4-oxidanyl-4-oxidanylidene-2-[(4-oxidanyl-4-oxidanylidene-butanoyl)amino]butanoyl]amino]pentanoic acid
> <PUBCHEM_IUPAC_TRADITIONAL_NAME>
(4S)-4-[[(2S)-3-carboxy-2-(3-carboxypropanoylamino)propanoyl]amino]-5-[[(1S)-2-[[(1S)-1-[[(1S)-1-(1-formylpropylcarbamoyl)-3-methyl-butyl]carbamoyl]-2,2-dimethyl-propyl]amino]-2-keto-1-(2-methylbenzyl)ethyl]amino]-5-keto-valeric acid
> <PUBCHEM_IUPAC_INCHI>
InChI=1S/C39H58N6O13/c1-8-24(20-46)40-35(55)26(17-21(2)3)44-38(58)33(39(5,6)7)45-37(57)27(18-23-12-10-9-11-22(23)4)43-34(54)25(13-15-30(48)49)42-36(56)28(19-32(52)53)41-29(47)14-16-31(50)51/h9-12,20-21,24-28,33H,8,13-19H2,1-7H3,(H,40,55)(H,41,47)(H,42,56)(H,43,54)(H,44,58)(H,45,57)(H,48,49)(H,50,51)(H,52,53)/t24?,25-,26-,27-,28-,33+/m0/s1
> <PUBCHEM_IUPAC_INCHIKEY>
MIPKIHVPIQRVQE-SIBQVGNPSA-N
> <PUBCHEM_XLOGP3_AA>
1.4
> <PUBCHEM_EXACT_MASS>
818.40618593
> <PUBCHEM_MOLECULAR_FORMULA>
C39H58N6O13
> <PUBCHEM_MOLECULAR_WEIGHT>
818.9
> <PUBCHEM_OPENEYE_CAN_SMILES>
CCC(C=O)NC(=O)C(CC(C)C)NC(=O)C(C(C)(C)C)NC(=O)C(CC1=CC=CC=C1C)NC(=O)C(CCC(=O)O)NC(=O)C(CC(=O)O)NC(=O)CCC(=O)O
> <PUBCHEM_OPENEYE_ISO_SMILES>
CCC(C=O)NC(=O)[C@H](CC(C)C)NC(=O)[C@H](C(C)(C)C)NC(=O)[C@H](CC1=CC=CC=C1C)NC(=O)[C@H](CCC(=O)O)NC(=O)[C@H](CC(=O)O)NC(=O)CCC(=O)O
> <PUBCHEM_CACTVS_TPSA>
304
> <PUBCHEM_MONOISOTOPIC_WEIGHT>
818.40618593
> <PUBCHEM_TOTAL_CHARGE>
0
> <PUBCHEM_HEAVY_ATOM_COUNT>
58
> <PUBCHEM_ATOM_DEF_STEREO_COUNT>
5
> <PUBCHEM_ATOM_UDEF_STEREO_COUNT>
1
> <PUBCHEM_BOND_DEF_STEREO_COUNT>
0
> <PUBCHEM_BOND_UDEF_STEREO_COUNT>
0
> <PUBCHEM_ISOTOPIC_ATOM_COUNT>
0
> <PUBCHEM_COMPONENT_COUNT>
1
> <PUBCHEM_CACTVS_TAUTO_COUNT>
-1
> <PUBCHEM_COORDINATE_TYPE>
1
5
255
> <PUBCHEM_BONDANNOTATIONS>
21  14  6
26  15  5
28  16  5
36  18  5
47  19  6
35  40  8
35  41  8
38  42  3
40  44  8
41  48  8
44  50  8
48  50  8
$$$$
