500521
  -OEChem-10302200282D
 69 74  0     1  0  0  0  0  0999 V2000
    1.7500  -12.1500    0.0000 O   0  0  0  0  0  0  0  0  0  0  0  0
    6.4167  -10.1500    0.0000 O   0  0  0  0  0  0  0  0  0  0  0  0
    6.5000  -13.8000    0.0000 O   0  0  0  0  0  0  0  0  0  0  0  0
    1.7500  -10.1500    0.0000 O   0  0  0  0  0  0  0  0  0  0  0  0
    1.1667  -16.3500    0.0000 O   0  0  0  0  0  0  0  0  0  0  0  0
    3.5000    0.0000    0.0000 O   0  0  0  0  0  0  0  0  0  0  0  0
    3.5000  -18.1500    0.0000 O   0  0  0  0  0  0  0  0  0  0  0  0
    1.7500  -20.3500    0.0000 O   0  0  0  0  0  0  0  0  0  0  0  0
    3.5000   -4.1500    0.0000 O   0  0  0  0  0  0  0  0  0  0  0  0
    3.5000   -6.1500    0.0000 C   0  0  3  0  0  0  0  0  0  0  0  0
    2.1000   -8.1500    0.0000 C   0  0  3  0  0  0  0  0  0  0  0  0
    1.1667   -4.3500    0.0000 C   0  0  1  0  0  0  0  0  0  0  0  0
    1.1667   -6.3500    0.0000 C   0  0  2  0  0  0  0  0  0  0  0  0
    4.9000   -8.0000    0.0000 C   0  0  2  0  0  0  0  0  0  0  0  0
    0.5833  -10.3500    0.0000 C   0  0  1  0  0  0  0  0  0  0  0  0
    2.9167   -9.8000    0.0000 C   0  0  2  0  0  0  0  0  0  0  0  0
    4.0833  -10.0000    0.0000 C   0  0  3  0  0  0  0  0  0  0  0  0
    6.3000   -8.3500    0.0000 C   0  0  2  0  0  0  0  0  0  0  0  0
    5.2500  -12.3500    0.0000 C   0  0  1  0  0  0  0  0  0  0  0  0
    5.8333   -5.8000    0.0000 C   0  0  0  0  0  0  0  0  0  0  0  0
    4.0833  -12.0000    0.0000 C   0  0  0  0  0  0  0  0  0  0  0  0
    3.5000   -7.8000    0.0000 C   0  0  0  0  0  0  0  0  0  0  0  0
    2.9167  -11.8000    0.0000 C   0  0  1  0  0  0  0  0  0  0  0  0
    2.5000  -13.8000    0.0000 C   0  0  1  0  0  0  0  0  0  0  0  0
    1.7500   -2.3500    0.0000 C   0  0  0  0  0  0  0  0  0  0  0  0
    0.7000   -8.3500    0.0000 C   0  0  0  0  0  0  0  0  0  0  0  0
    4.5000  -14.3500    0.0000 C   0  0  0  0  0  0  0  0  0  0  0  0
    5.5000  -14.1500    0.0000 C   0  0  0  0  0  0  0  0  0  0  0  0
    1.5000  -14.1500    0.0000 C   0  0  0  0  0  0  0  0  0  0  0  0
    5.8333  -15.8000    0.0000 C   0  0  0  0  0  0  0  0  0  0  0  0
    1.1667  -18.3500    0.0000 C   0  0  0  0  0  0  0  0  0  0  0  0
    5.2500   -2.1500    0.0000 C   0  0  0  0  0  0  0  0  0  0  0  0
    5.8333  -17.8000    0.0000 C   0  0  0  0  0  0  0  0  0  0  0  0
    5.2500  -20.1500    0.0000 C   0  0  0  0  0  0  0  0  0  0  0  0
    5.8333   -3.8000    0.0000 C   0  0  0  0  0  0  0  0  0  0  0  0
    4.6434   -5.0172    0.0000 H   0  0  0  0  0  0  0  0  0  0  0  0
    3.4219   -9.0683    0.0000 H   0  0  0  0  0  0  0  0  0  0  0  0
    5.2500  -10.3500    0.0000 H   0  0  0  0  0  0  0  0  0  0  0  0
    0.5833  -12.3500    0.0000 H   0  0  0  0  0  0  0  0  0  0  0  0
    2.5039   -9.6900    0.0000 H   0  0  0  0  0  0  0  0  0  0  0  0
    7.4425   -5.7674    0.0000 H   0  0  0  0  0  0  0  0  0  0  0  0
    6.0587   -4.2063    0.0000 H   0  0  0  0  0  0  0  0  0  0  0  0
    3.5000  -14.0000    0.0000 H   0  0  0  0  0  0  0  0  0  0  0  0
    3.5000  -16.1500    0.0000 H   0  0  0  0  0  0  0  0  0  0  0  0
    0.9421   -0.9579    0.0000 H   0  0  0  0  0  0  0  0  0  0  0  0
    3.1908   -3.0673    0.0000 H   0  0  0  0  0  0  0  0  0  0  0  0
   -0.8674   -7.9843    0.0000 H   0  0  0  0  0  0  0  0  0  0  0  0
    0.3343   -9.9174    0.0000 H   0  0  0  0  0  0  0  0  0  0  0  0
    2.2674   -8.7157    0.0000 H   0  0  0  0  0  0  0  0  0  0  0  0
    0.5000  -14.3500    0.0000 H   0  0  0  0  0  0  0  0  0  0  0  0
    2.9152  -14.6310    0.0000 H   0  0  0  0  0  0  0  0  0  0  0  0
    4.7810  -15.9348    0.0000 H   0  0  0  0  0  0  0  0  0  0  0  0
    6.0848  -14.0690    0.0000 H   0  0  0  0  0  0  0  0  0  0  0  0
    4.1560  -15.0356    0.0000 H   0  0  0  0  0  0  0  0  0  0  0  0
    6.3856  -15.4940    0.0000 H   0  0  0  0  0  0  0  0  0  0  0  0
    6.8440  -13.2644    0.0000 H   0  0  0  0  0  0  0  0  0  0  0  0
    6.4167  -12.1500    0.0000 H   0  0  0  0  0  0  0  0  0  0  0  0
    0.1216  -13.3190    0.0000 H   0  0  0  0  0  0  0  0  0  0  0  0
    0.6690  -15.5284    0.0000 H   0  0  0  0  0  0  0  0  0  0  0  0
    2.8784  -14.9810    0.0000 H   0  0  0  0  0  0  0  0  0  0  0  0
    4.2238  -17.8000    0.0000 H   0  0  0  0  0  0  0  0  0  0  0  0
    5.8333  -19.4095    0.0000 H   0  0  0  0  0  0  0  0  0  0  0  0
    7.4429  -17.8000    0.0000 H   0  0  0  0  0  0  0  0  0  0  0  0
    4.6008  -21.6228    0.0000 H   0  0  0  0  0  0  0  0  0  0  0  0
    6.7228  -20.7992    0.0000 H   0  0  0  0  0  0  0  0  0  0  0  0
    5.8992  -18.6772    0.0000 H   0  0  0  0  0  0  0  0  0  0  0  0
    4.3158   -4.3365    0.0000 H   0  0  0  0  0  0  0  0  0  0  0  0
    6.3698   -5.3175    0.0000 H   0  0  0  0  0  0  0  0  0  0  0  0
    7.3508   -3.2635    0.0000 H   0  0  0  0  0  0  0  0  0  0  0  0
  1 16  1  0  0  0  0
  1 50  1  0  0  0  0
  2 18  1  0  0  0  0
  2 57  1  0  0  0  0
  3 19  1  0  0  0  0
  3 30  1  0  0  0  0
  4 22  2  0  0  0  0
  5 24  1  0  0  0  0
  5 31  1  0  0  0  0
  6 25  1  0  0  0  0
  6 32  1  0  0  0  0
  7 30  2  0  0  0  0
  8 31  2  0  0  0  0
  9 32  2  0  0  0  0
 10 11  1  0  0  0  0
 10 12  1  0  0  0  0
 10 14  1  0  0  0  0
 10 36  1  0  0  0  0
 11 13  1  0  0  0  0
 11 15  1  0  0  0  0
 11 37  1  0  0  0  0
 12 13  1  0  0  0  0
 12 20  1  0  0  0  0
 12 25  1  0  0  0  0
 13 22  1  0  0  0  0
 13 26  1  0  0  0  0
 14 16  1  0  0  0  0
 14 17  1  0  0  0  0
 14 38  1  0  0  0  0
 15 16  1  0  0  0  0
 15 18  1  0  0  0  0
 15 39  1  0  0  0  0
 16 23  1  0  0  0  0
 17 19  1  0  0  0  0
 17 21  1  0  0  0  0
 17 40  1  0  0  0  0
 18 20  1  0  0  0  0
 18 22  1  0  0  0  0
 19 21  1  0  0  0  0
 19 24  1  0  0  0  0
 20 41  1  0  0  0  0
 20 42  1  0  0  0  0
 21 27  1  0  0  0  0
 21 28  1  0  0  0  0
 23 24  1  0  0  0  0
 23 29  1  0  0  0  0
 23 43  1  0  0  0  0
 24 44  1  0  0  0  0
 25 45  1  0  0  0  0
 25 46  1  0  0  0  0
 26 47  1  0  0  0  0
 26 48  1  0  0  0  0
 26 49  1  0  0  0  0
 27 51  1  0  0  0  0
 27 52  1  0  0  0  0
 27 53  1  0  0  0  0
 28 54  1  0  0  0  0
 28 55  1  0  0  0  0
 28 56  1  0  0  0  0
 29 58  1  0  0  0  0
 29 59  1  0  0  0  0
 29 60  1  0  0  0  0
 30 33  1  0  0  0  0
 31 34  1  0  0  0  0
 32 35  1  0  0  0  0
 33 61  1  0  0  0  0
 33 62  1  0  0  0  0
 33 63  1  0  0  0  0
 34 64  1  0  0  0  0
 34 65  1  0  0  0  0
 34 66  1  0  0  0  0
 35 67  1  0  0  0  0
 35 68  1  0  0  0  0
 35 69  1  0  0  0  0
M  END
> <PUBCHEM_COMPOUND_CID>
500521
> <PUBCHEM_COMPOUND_CANONICALIZED>
1
> <PUBCHEM_CACTVS_COMPLEXITY>
1110
> <PUBCHEM_CACTVS_HBOND_ACCEPTOR>
9
> <PUBCHEM_CACTVS_HBOND_DONOR>
2
> <PUBCHEM_CACTVS_ROTATABLE_BOND>
7
> <PUBCHEM_CACTVS_SUBSKEYS>
AAADcfB4PAAAAAAAAAAAAAAAGABgAYMGAAAwAAAABgwAAGAAAAAAGgAACAAAD1SggAICCAAABgAIAICQCAIAAAAAAAAAAAFAAAABABIAAAACQAAFAAACAAHK7PzPgAAAAAAAAADCAAYQADCAAYAADAAAAA==
> <PUBCHEM_IUPAC_OPENEYE_NAME>
[(1S,2S,4R,6S,8R,10S,13S,14R,15R)-13,14-diacetoxy-1,6-dihydroxy-4,12,12,15-tetramethyl-5-oxo-8-hexacyclo[8.5.0.02,6.03,9.04,8.011,13]pentadecanyl]methyl acetate
> <PUBCHEM_IUPAC_CAS_NAME>
acetic acid [(1S,2S,4R,6S,8R,10S,13S,14R,15R)-13,14-diacetyloxy-1,6-dihydroxy-4,12,12,15-tetramethyl-5-oxo-8-hexacyclo[8.5.0.02,6.03,9.04,8.011,13]pentadecanyl]methyl ester
> <PUBCHEM_IUPAC_NAME_MARKUP>
[(1<I>S</I>,2<I>S</I>,4<I>R</I>,6<I>S</I>,8<I>R</I>,10<I>S</I>,13<I>S</I>,14<I>R</I>,15<I>R</I>)-13,14-diacetyloxy-1,6-dihydroxy-4,12,12,15-tetramethyl-5-oxo-8-hexacyclo[8.5.0.0<SUP>2,6</SUP>.0<SUP>3,9</SUP>.0<SUP>4,8</SUP>.0<SUP>11,13</SUP>]pentadecanyl]methyl acetate
> <PUBCHEM_IUPAC_NAME>
[(1S,2S,4R,6S,8R,10S,13S,14R,15R)-13,14-diacetyloxy-1,6-dihydroxy-4,12,12,15-tetramethyl-5-oxo-8-hexacyclo[8.5.0.02,6.03,9.04,8.011,13]pentadecanyl]methyl acetate
> <PUBCHEM_IUPAC_SYSTEMATIC_NAME>
[(1S,2S,4R,6S,8R,10S,13S,14R,15R)-13,14-diacetyloxy-4,12,12,15-tetramethyl-1,6-bis(oxidanyl)-5-oxidanylidene-8-hexacyclo[8.5.0.02,6.03,9.04,8.011,13]pentadecanyl]methyl ethanoate
> <PUBCHEM_IUPAC_TRADITIONAL_NAME>
acetic acid [(1S,2S,4R,6S,8R,10S,13S,14R,15R)-13,14-diacetoxy-1,6-dihydroxy-5-keto-4,12,12,15-tetramethyl-8-hexacyclo[8.5.0.02,6.03,9.04,8.011,13]pentadecanyl]methyl ester
> <PUBCHEM_IUPAC_INCHI>
InChI=1S/C26H34O9/c1-10-19(34-12(3)28)26(35-13(4)29)17(21(26,5)6)16-14-15-18(25(10,16)32)24(31)8-23(14,9-33-11(2)27)22(15,7)20(24)30/h10,14-19,31-32H,8-9H2,1-7H3/t10-,14?,15?,16+,17?,18-,19-,22+,23-,24+,25-,26-/m1/s1
> <PUBCHEM_IUPAC_INCHIKEY>
DETAHNVSLBCZAA-ARJGXJLFSA-N
> <PUBCHEM_XLOGP3_AA>
0.8
> <PUBCHEM_EXACT_MASS>
490.22028266
> <PUBCHEM_MOLECULAR_FORMULA>
C26H34O9
> <PUBCHEM_MOLECULAR_WEIGHT>
490.5
> <PUBCHEM_OPENEYE_CAN_SMILES>
CC1C(C2(C(C2(C)C)C3C1(C4C5C3C6(C5(C(=O)C4(C6)O)C)COC(=O)C)O)OC(=O)C)OC(=O)C
> <PUBCHEM_OPENEYE_ISO_SMILES>
C[C@@H]1[C@H]([C@@]2(C(C2(C)C)[C@H]3[C@]1([C@@H]4C5C3[C@]6([C@@]5(C(=O)[C@@]4(C6)O)C)COC(=O)C)O)OC(=O)C)OC(=O)C
> <PUBCHEM_CACTVS_TPSA>
136
> <PUBCHEM_MONOISOTOPIC_WEIGHT>
490.22028266
> <PUBCHEM_TOTAL_CHARGE>
0
> <PUBCHEM_HEAVY_ATOM_COUNT>
35
> <PUBCHEM_ATOM_DEF_STEREO_COUNT>
9
> <PUBCHEM_ATOM_UDEF_STEREO_COUNT>
3
> <PUBCHEM_BOND_DEF_STEREO_COUNT>
0
> <PUBCHEM_BOND_UDEF_STEREO_COUNT>
0
> <PUBCHEM_ISOTOPIC_ATOM_COUNT>
0
> <PUBCHEM_COMPONENT_COUNT>
1
> <PUBCHEM_CACTVS_TAUTO_COUNT>
-1
> <PUBCHEM_COORDINATE_TYPE>
1
5
255
> <PUBCHEM_BONDANNOTATIONS>
10  11  3
11  15  3
17  21  3
$$$$
