500572
  -OEChem-10302200282D
 97 97  0     1  0  0  0  0  0999 V2000
   10.3312    2.9169    0.0000 O   0  0  0  0  0  0  0  0  0  0  0  0
   11.4331    3.7175    0.0000 O   0  0  0  0  0  0  0  0  0  0  0  0
    6.8671    1.9169    0.0000 O   0  0  0  0  0  0  0  0  0  0  0  0
    7.7331   -1.5831    0.0000 O   0  0  0  0  0  0  0  0  0  0  0  0
   13.4546    6.7031    0.0000 O   0  0  0  0  0  0  0  0  0  0  0  0
   15.3568    6.0850    0.0000 O   0  0  0  0  0  0  0  0  0  0  0  0
   14.8215    4.4378    0.0000 O   0  0  0  0  0  0  0  0  0  0  0  0
    4.2690   -2.5831    0.0000 O   0  0  0  0  0  0  0  0  0  0  0  0
    2.5369   -1.5831    0.0000 O   0  0  0  0  0  0  0  0  0  0  0  0
    3.4030   -0.0831    0.0000 O   0  0  0  0  0  0  0  0  0  0  0  0
    3.4030   -6.0831    0.0000 O   0  0  0  0  0  0  0  0  0  0  0  0
    5.1350   -6.0831    0.0000 O   0  0  0  0  0  0  0  0  0  0  0  0
    9.4651    4.4169    0.0000 N   0  0  0  0  0  0  0  0  0  0  0  0
    8.5991    1.9169    0.0000 N   0  0  0  0  0  0  0  0  0  0  0  0
   11.9684    5.3648    0.0000 N   0  0  0  0  0  0  0  0  0  0  0  0
    6.8671   -0.0831    0.0000 N   0  0  0  0  0  0  0  0  0  0  0  0
    6.0010   -2.5831    0.0000 N   0  0  0  0  0  0  0  0  0  0  0  0
    6.0010   -4.5831    0.0000 N   0  0  0  0  0  0  0  0  0  0  0  0
   10.2742    5.0047    0.0000 C   0  0  1  0  0  0  0  0  0  0  0  0
    9.9651    5.9558    0.0000 C   0  0  0  0  0  0  0  0  0  0  0  0
    8.6561    5.0047    0.0000 C   0  0  0  0  0  0  0  0  0  0  0  0
    8.9651    5.9558    0.0000 C   0  0  0  0  0  0  0  0  0  0  0  0
    8.5991    2.9169    0.0000 C   0  0  2  0  0  0  0  0  0  0  0  0
    9.4651    3.4169    0.0000 C   0  0  0  0  0  0  0  0  0  0  0  0
    7.7331    3.4169    0.0000 C   0  0  0  0  0  0  0  0  0  0  0  0
   11.2252    4.6957    0.0000 C   0  0  0  0  0  0  0  0  0  0  0  0
    7.7331    0.4169    0.0000 C   0  0  2  0  0  0  0  0  0  0  0  0
    6.8671    2.9169    0.0000 C   0  0  0  0  0  0  0  0  0  0  0  0
    7.7331    4.4169    0.0000 C   0  0  0  0  0  0  0  0  0  0  0  0
    7.7331    1.4169    0.0000 C   0  0  0  0  0  0  0  0  0  0  0  0
    8.5991   -0.0831    0.0000 C   0  0  0  0  0  0  0  0  0  0  0  0
   12.9194    5.0558    0.0000 C   0  0  3  0  0  0  0  0  0  0  0  0
   13.1273    4.0776    0.0000 C   0  0  0  0  0  0  0  0  0  0  0  0
    8.5991   -1.0831    0.0000 C   0  0  0  0  0  0  0  0  0  0  0  0
    9.4651    0.4169    0.0000 C   0  0  0  0  0  0  0  0  0  0  0  0
    6.8671   -1.0831    0.0000 C   0  0  0  0  0  0  0  0  0  0  0  0
    6.0010   -1.5831    0.0000 C   0  0  2  0  0  0  0  0  0  0  0  0
   13.6626    5.7249    0.0000 C   0  0  0  0  0  0  0  0  0  0  0  0
    5.1350   -1.0831    0.0000 C   0  0  0  0  0  0  0  0  0  0  0  0
   14.0784    3.7686    0.0000 C   0  0  0  0  0  0  0  0  0  0  0  0
    4.2690   -1.5831    0.0000 C   0  0  0  0  0  0  0  0  0  0  0  0
   14.6136    5.4159    0.0000 C   0  0  0  0  0  0  0  0  0  0  0  0
    5.1350   -3.0831    0.0000 C   0  0  0  0  0  0  0  0  0  0  0  0
    5.1350   -4.0831    0.0000 C   0  0  2  0  0  0  0  0  0  0  0  0
   14.2863    2.7905    0.0000 C   0  0  0  0  0  0  0  0  0  0  0  0
    3.4030   -1.0831    0.0000 C   0  0  0  0  0  0  0  0  0  0  0  0
    4.2690   -4.5831    0.0000 C   0  0  0  0  0  0  0  0  0  0  0  0
   16.3078    5.7760    0.0000 C   0  0  0  0  0  0  0  0  0  0  0  0
    4.2690   -5.5831    0.0000 C   0  0  0  0  0  0  0  0  0  0  0  0
   10.3711    4.3923    0.0000 H   0  0  0  0  0  0  0  0  0  0  0  0
   10.5716    6.0847    0.0000 H   0  0  0  0  0  0  0  0  0  0  0  0
    9.9003    6.5724    0.0000 H   0  0  0  0  0  0  0  0  0  0  0  0
    8.0897    5.2569    0.0000 H   0  0  0  0  0  0  0  0  0  0  0  0
    8.3461    4.4678    0.0000 H   0  0  0  0  0  0  0  0  0  0  0  0
    9.0300    6.5724    0.0000 H   0  0  0  0  0  0  0  0  0  0  0  0
    8.3587    6.0847    0.0000 H   0  0  0  0  0  0  0  0  0  0  0  0
    9.1360    2.6069    0.0000 H   0  0  0  0  0  0  0  0  0  0  0  0
    7.7331    2.7969    0.0000 H   0  0  0  0  0  0  0  0  0  0  0  0
    9.1360    1.6069    0.0000 H   0  0  0  0  0  0  0  0  0  0  0  0
    7.7331   -0.2031    0.0000 H   0  0  0  0  0  0  0  0  0  0  0  0
   11.8395    5.9713    0.0000 H   0  0  0  0  0  0  0  0  0  0  0  0
    6.5571    3.4539    0.0000 H   0  0  0  0  0  0  0  0  0  0  0  0
    6.3301    2.6069    0.0000 H   0  0  0  0  0  0  0  0  0  0  0  0
    7.1771    2.3800    0.0000 H   0  0  0  0  0  0  0  0  0  0  0  0
    8.3531    4.4169    0.0000 H   0  0  0  0  0  0  0  0  0  0  0  0
    7.7331    5.0369    0.0000 H   0  0  0  0  0  0  0  0  0  0  0  0
    7.1131    4.4169    0.0000 H   0  0  0  0  0  0  0  0  0  0  0  0
    8.5991    0.5369    0.0000 H   0  0  0  0  0  0  0  0  0  0  0  0
   12.4587    4.6409    0.0000 H   0  0  0  0  0  0  0  0  0  0  0  0
    6.3301    0.2269    0.0000 H   0  0  0  0  0  0  0  0  0  0  0  0
   12.5077    4.0560    0.0000 H   0  0  0  0  0  0  0  0  0  0  0  0
   13.0410    3.4637    0.0000 H   0  0  0  0  0  0  0  0  0  0  0  0
    7.9791   -1.0831    0.0000 H   0  0  0  0  0  0  0  0  0  0  0  0
    8.5991   -1.7031    0.0000 H   0  0  0  0  0  0  0  0  0  0  0  0
    9.2191   -1.0831    0.0000 H   0  0  0  0  0  0  0  0  0  0  0  0
    9.7751   -0.1200    0.0000 H   0  0  0  0  0  0  0  0  0  0  0  0
   10.0021    0.7269    0.0000 H   0  0  0  0  0  0  0  0  0  0  0  0
    9.1551    0.9539    0.0000 H   0  0  0  0  0  0  0  0  0  0  0  0
    6.5380   -1.8931    0.0000 H   0  0  0  0  0  0  0  0  0  0  0  0
    5.5335   -0.6081    0.0000 H   0  0  0  0  0  0  0  0  0  0  0  0
    4.7365   -0.6081    0.0000 H   0  0  0  0  0  0  0  0  0  0  0  0
   14.5391    4.1835    0.0000 H   0  0  0  0  0  0  0  0  0  0  0  0
    6.5380   -2.8931    0.0000 H   0  0  0  0  0  0  0  0  0  0  0  0
    3.8705   -2.0580    0.0000 H   0  0  0  0  0  0  0  0  0  0  0  0
    4.6675   -2.0580    0.0000 H   0  0  0  0  0  0  0  0  0  0  0  0
    5.1350   -4.7031    0.0000 H   0  0  0  0  0  0  0  0  0  0  0  0
   13.8255    2.3756    0.0000 H   0  0  0  0  0  0  0  0  0  0  0  0
   14.8759    2.5989    0.0000 H   0  0  0  0  0  0  0  0  0  0  0  0
    4.0569   -4.0005    0.0000 H   0  0  0  0  0  0  0  0  0  0  0  0
    3.6584   -4.6907    0.0000 H   0  0  0  0  0  0  0  0  0  0  0  0
    6.0010   -5.2031    0.0000 H   0  0  0  0  0  0  0  0  0  0  0  0
    6.5380   -4.2731    0.0000 H   0  0  0  0  0  0  0  0  0  0  0  0
   16.1162    5.1864    0.0000 H   0  0  0  0  0  0  0  0  0  0  0  0
   16.8975    5.5844    0.0000 H   0  0  0  0  0  0  0  0  0  0  0  0
   16.4994    6.3657    0.0000 H   0  0  0  0  0  0  0  0  0  0  0  0
    2.0000   -1.2731    0.0000 H   0  0  0  0  0  0  0  0  0  0  0  0
    3.4030   -6.7031    0.0000 H   0  0  0  0  0  0  0  0  0  0  0  0
  1 24  2  0  0  0  0
  2 26  2  0  0  0  0
  3 30  2  0  0  0  0
  4 36  2  0  0  0  0
  5 38  2  0  0  0  0
  6 42  1  0  0  0  0
  6 48  1  0  0  0  0
  7 42  2  0  0  0  0
  8 43  2  0  0  0  0
  9 46  1  0  0  0  0
  9 96  1  0  0  0  0
 10 46  2  0  0  0  0
 11 49  1  0  0  0  0
 11 97  1  0  0  0  0
 12 49  2  0  0  0  0
 13 19  1  0  0  0  0
 13 21  1  0  0  0  0
 13 24  1  0  0  0  0
 23 14  1  1  0  0  0
 14 30  1  0  0  0  0
 14 59  1  0  0  0  0
 15 26  1  0  0  0  0
 15 32  1  0  0  0  0
 15 61  1  0  0  0  0
 27 16  1  6  0  0  0
 16 36  1  0  0  0  0
 16 70  1  0  0  0  0
 37 17  1  1  0  0  0
 17 43  1  0  0  0  0
 17 83  1  0  0  0  0
 44 18  1  1  0  0  0
 18 91  1  0  0  0  0
 18 92  1  0  0  0  0
 19 20  1  0  0  0  0
 19 26  1  1  0  0  0
 19 50  1  0  0  0  0
 20 22  1  0  0  0  0
 20 51  1  0  0  0  0
 20 52  1  0  0  0  0
 21 22  1  0  0  0  0
 21 53  1  0  0  0  0
 21 54  1  0  0  0  0
 22 55  1  0  0  0  0
 22 56  1  0  0  0  0
 23 24  1  0  0  0  0
 23 25  1  0  0  0  0
 23 57  1  0  0  0  0
 25 28  1  0  0  0  0
 25 29  1  0  0  0  0
 25 58  1  0  0  0  0
 27 30  1  0  0  0  0
 27 31  1  0  0  0  0
 27 60  1  0  0  0  0
 28 62  1  0  0  0  0
 28 63  1  0  0  0  0
 28 64  1  0  0  0  0
 29 65  1  0  0  0  0
 29 66  1  0  0  0  0
 29 67  1  0  0  0  0
 31 34  1  0  0  0  0
 31 35  1  0  0  0  0
 31 68  1  0  0  0  0
 32 33  1  0  0  0  0
 32 38  1  0  0  0  0
 32 69  1  0  0  0  0
 33 40  1  0  0  0  0
 33 71  1  0  0  0  0
 33 72  1  0  0  0  0
 34 73  1  0  0  0  0
 34 74  1  0  0  0  0
 34 75  1  0  0  0  0
 35 76  1  0  0  0  0
 35 77  1  0  0  0  0
 35 78  1  0  0  0  0
 36 37  1  0  0  0  0
 37 39  1  0  0  0  0
 37 79  1  0  0  0  0
 38 42  1  0  0  0  0
 39 41  1  0  0  0  0
 39 80  1  0  0  0  0
 39 81  1  0  0  0  0
 40 45  2  0  0  0  0
 40 82  1  0  0  0  0
 41 46  1  0  0  0  0
 41 84  1  0  0  0  0
 41 85  1  0  0  0  0
 43 44  1  0  0  0  0
 44 47  1  0  0  0  0
 44 86  1  0  0  0  0
 45 87  1  0  0  0  0
 45 88  1  0  0  0  0
 47 49  1  0  0  0  0
 47 89  1  0  0  0  0
 47 90  1  0  0  0  0
 48 93  1  0  0  0  0
 48 94  1  0  0  0  0
 48 95  1  0  0  0  0
M  END
> <PUBCHEM_COMPOUND_CID>
500572
> <PUBCHEM_COMPOUND_CANONICALIZED>
1
> <PUBCHEM_CACTVS_COMPLEXITY>
1290
> <PUBCHEM_CACTVS_HBOND_ACCEPTOR>
13
> <PUBCHEM_CACTVS_HBOND_DONOR>
7
> <PUBCHEM_CACTVS_ROTATABLE_BOND>
21
> <PUBCHEM_CACTVS_SUBSKEYS>
AAADcfB7vAAAAAAAAAAAAAAAAAAAAWAAAAAAAAAAAAAAAAAAAAAAHgAQCAAADSzBgAYCCAPABgCIAKHSGAIAAAAgAAAIAIHIAAgAQBoAgSQUQAAGlgCAAAC/FwIIAAAAAAAAAAAAAAAAAAAAAAAAAAAAAA==
> <PUBCHEM_IUPAC_OPENEYE_NAME>
(4S)-4-[[(2S)-2-amino-3-carboxy-propanoyl]amino]-5-[[(1S)-1-[[(1S)-1-[(2S)-2-[1-(2-methoxy-2-oxo-acetyl)but-3-enylcarbamoyl]pyrrolidine-1-carbonyl]-2-methyl-propyl]carbamoyl]-2-methyl-propyl]amino]-5-oxo-pentanoic acid
> <PUBCHEM_IUPAC_CAS_NAME>
(4S)-4-[[(2S)-2-amino-3-carboxy-1-oxopropyl]amino]-5-[[(2S)-1-[[(2S)-1-[(2S)-2-[[(1-methoxy-1,2-dioxohex-5-en-3-yl)amino]-oxomethyl]-1-pyrrolidinyl]-3-methyl-1-oxobutan-2-yl]amino]-3-methyl-1-oxobutan-2-yl]amino]-5-oxopentanoic acid
> <PUBCHEM_IUPAC_NAME_MARKUP>
(4<I>S</I>)-4-[[(2<I>S</I>)-2-amino-3-carboxypropanoyl]amino]-5-[[(2<I>S</I>)-1-[[(2<I>S</I>)-1-[(2<I>S</I>)-2-[(1-methoxy-1,2-dioxohex-5-en-3-yl)carbamoyl]pyrrolidin-1-yl]-3-methyl-1-oxobutan-2-yl]amino]-3-methyl-1-oxobutan-2-yl]amino]-5-oxopentanoic acid
> <PUBCHEM_IUPAC_NAME>
(4S)-4-[[(2S)-2-amino-3-carboxypropanoyl]amino]-5-[[(2S)-1-[[(2S)-1-[(2S)-2-[(1-methoxy-1,2-dioxohex-5-en-3-yl)carbamoyl]pyrrolidin-1-yl]-3-methyl-1-oxobutan-2-yl]amino]-3-methyl-1-oxobutan-2-yl]amino]-5-oxopentanoic acid
> <PUBCHEM_IUPAC_SYSTEMATIC_NAME>
(4S)-4-[[(2S)-2-azanyl-4-oxidanyl-4-oxidanylidene-butanoyl]amino]-5-[[(2S)-1-[[(2S)-1-[(2S)-2-[[1-methoxy-1,2-bis(oxidanylidene)hex-5-en-3-yl]carbamoyl]pyrrolidin-1-yl]-3-methyl-1-oxidanylidene-butan-2-yl]amino]-3-methyl-1-oxidanylidene-butan-2-yl]amino]-5-oxidanylidene-pentanoic acid
> <PUBCHEM_IUPAC_TRADITIONAL_NAME>
(4S)-4-[[(2S)-2-amino-3-carboxy-propanoyl]amino]-5-keto-5-[[(1S)-1-[[(1S)-1-[(2S)-2-(1-methoxalylbut-3-enylcarbamoyl)pyrrolidine-1-carbonyl]-2-methyl-propyl]carbamoyl]-2-methyl-propyl]amino]valeric acid
> <PUBCHEM_IUPAC_INCHI>
InChI=1S/C31H48N6O12/c1-7-9-18(25(42)31(48)49-6)33-28(45)20-10-8-13-37(20)30(47)24(16(4)5)36-29(46)23(15(2)3)35-27(44)19(11-12-21(38)39)34-26(43)17(32)14-22(40)41/h7,15-20,23-24H,1,8-14,32H2,2-6H3,(H,33,45)(H,34,43)(H,35,44)(H,36,46)(H,38,39)(H,40,41)/t17-,18?,19-,20-,23-,24-/m0/s1
> <PUBCHEM_IUPAC_INCHIKEY>
JTFSSEVIIPUQMC-UGAOYVDOSA-N
> <PUBCHEM_XLOGP3_AA>
-2.5
> <PUBCHEM_EXACT_MASS>
696.33302099
> <PUBCHEM_MOLECULAR_FORMULA>
C31H48N6O12
> <PUBCHEM_MOLECULAR_WEIGHT>
696.7
> <PUBCHEM_OPENEYE_CAN_SMILES>
CC(C)C(C(=O)NC(C(C)C)C(=O)N1CCCC1C(=O)NC(CC=C)C(=O)C(=O)OC)NC(=O)C(CCC(=O)O)NC(=O)C(CC(=O)O)N
> <PUBCHEM_OPENEYE_ISO_SMILES>
CC(C)[C@@H](C(=O)N[C@@H](C(C)C)C(=O)N1CCC[C@H]1C(=O)NC(CC=C)C(=O)C(=O)OC)NC(=O)[C@H](CCC(=O)O)NC(=O)[C@H](CC(=O)O)N
> <PUBCHEM_CACTVS_TPSA>
281
> <PUBCHEM_MONOISOTOPIC_WEIGHT>
696.33302099
> <PUBCHEM_TOTAL_CHARGE>
0
> <PUBCHEM_HEAVY_ATOM_COUNT>
49
> <PUBCHEM_ATOM_DEF_STEREO_COUNT>
5
> <PUBCHEM_ATOM_UDEF_STEREO_COUNT>
1
> <PUBCHEM_BOND_DEF_STEREO_COUNT>
0
> <PUBCHEM_BOND_UDEF_STEREO_COUNT>
0
> <PUBCHEM_ISOTOPIC_ATOM_COUNT>
0
> <PUBCHEM_COMPONENT_COUNT>
1
> <PUBCHEM_CACTVS_TAUTO_COUNT>
-1
> <PUBCHEM_COORDINATE_TYPE>
1
5
255
> <PUBCHEM_BONDANNOTATIONS>
23  14  5
27  16  6
37  17  5
44  18  5
19  26  5
32  33  3
$$$$
