500576
  -OEChem-10302200282D
121122  0     1  0  0  0  0  0999 V2000
    2.8900    2.3928    0.0000 F   0  0  0  0  0  0  0  0  0  0  0  0
    2.0000    1.2938    0.0000 F   0  0  0  0  0  0  0  0  0  0  0  0
    3.0990    0.4038    0.0000 F   0  0  0  0  0  0  0  0  0  0  0  0
    8.2414   -3.2540    0.0000 O   0  0  0  0  0  0  0  0  0  0  0  0
    8.9225    1.0074    0.0000 O   0  0  0  0  0  0  0  0  0  0  0  0
    7.5604    1.0074    0.0000 O   0  0  0  0  0  0  0  0  0  0  0  0
   12.3128   -0.2197    0.0000 O   0  0  0  0  0  0  0  0  0  0  0  0
    4.1701   -0.2197    0.0000 O   0  0  0  0  0  0  0  0  0  0  0  0
   13.6694    3.1209    0.0000 O   0  0  0  0  0  0  0  0  0  0  0  0
   17.0597    1.8937    0.0000 O   0  0  0  0  0  0  0  0  0  0  0  0
   17.8732    0.0666    0.0000 O   0  0  0  0  0  0  0  0  0  0  0  0
   16.2909   -0.6378    0.0000 O   0  0  0  0  0  0  0  0  0  0  0  0
   17.0151    6.2524    0.0000 O   0  0  0  0  0  0  0  0  0  0  0  0
   18.4163    5.2343    0.0000 O   0  0  0  0  0  0  0  0  0  0  0  0
   18.0542    1.7892    0.0000 O   0  0  0  0  0  0  0  0  0  0  0  0
    8.7414   -0.7152    0.0000 N   0  0  0  0  0  0  0  0  0  0  0  0
   10.9115    0.7983    0.0000 N   0  0  0  0  0  0  0  0  0  0  0  0
    6.1591   -0.0107    0.0000 N   0  0  0  0  0  0  0  0  0  0  0  0
   13.4884    1.3983    0.0000 N   0  0  0  0  0  0  0  0  0  0  0  0
   15.6585    2.9118    0.0000 N   0  0  0  0  0  0  0  0  0  0  0  0
   18.2353    3.5118    0.0000 N   0  0  0  0  0  0  0  0  0  0  0  0
    7.7414   -0.7152    0.0000 C   0  0  1  0  0  0  0  0  0  0  0  0
    8.2414   -2.2540    0.0000 C   0  0  2  0  0  0  0  0  0  0  0  0
    7.4324   -1.6662    0.0000 C   0  0  0  0  0  0  0  0  0  0  0  0
    9.0505   -1.6662    0.0000 C   0  0  0  0  0  0  0  0  0  0  0  0
    9.3292    0.0939    0.0000 C   0  0  0  0  0  0  0  0  0  0  0  0
   10.3238   -0.0107    0.0000 C   0  0  2  0  0  0  0  0  0  0  0  0
    7.1537    0.0939    0.0000 C   0  0  0  0  0  0  0  0  0  0  0  0
   10.7305   -0.9242    0.0000 C   0  0  0  0  0  0  0  0  0  0  0  0
    5.5714    0.7983    0.0000 C   0  0  3  0  0  0  0  0  0  0  0  0
    7.3754   -3.7540    0.0000 C   0  0  0  0  0  0  0  0  0  0  0  0
   12.4938    1.5028    0.0000 C   0  0  2  0  0  0  0  0  0  0  0  0
   11.7250   -1.0287    0.0000 C   0  0  0  0  0  0  0  0  0  0  0  0
   10.1427   -1.7332    0.0000 C   0  0  0  0  0  0  0  0  0  0  0  0
   11.9061    0.6938    0.0000 C   0  0  0  0  0  0  0  0  0  0  0  0
   12.0871    2.4164    0.0000 C   0  0  2  0  0  0  0  0  0  0  0  0
    5.9781    1.7119    0.0000 C   0  0  0  0  0  0  0  0  0  0  0  0
    4.5768    0.6938    0.0000 C   0  0  0  0  0  0  0  0  0  0  0  0
    7.3754   -4.7540    0.0000 C   0  0  0  0  0  0  0  0  0  0  0  0
   12.6749    3.2254    0.0000 C   0  0  0  0  0  0  0  0  0  0  0  0
    5.3903    2.5209    0.0000 C   0  0  0  0  0  0  0  0  0  0  0  0
   11.0926    2.5209    0.0000 C   0  0  0  0  0  0  0  0  0  0  0  0
    3.9890    1.5028    0.0000 C   0  0  0  0  0  0  0  0  0  0  0  0
   14.0761    2.2073    0.0000 C   0  0  0  0  0  0  0  0  0  0  0  0
   12.2682    4.1389    0.0000 C   0  0  0  0  0  0  0  0  0  0  0  0
   15.0707    2.1028    0.0000 C   0  0  1  0  0  0  0  0  0  0  0  0
    8.2414   -5.2540    0.0000 C   0  0  0  0  0  0  0  0  0  0  0  0
    6.5094   -5.2540    0.0000 C   0  0  0  0  0  0  0  0  0  0  0  0
    5.7970    3.4345    0.0000 C   0  0  0  0  0  0  0  0  0  0  0  0
   15.4774    1.1892    0.0000 C   0  0  0  0  0  0  0  0  0  0  0  0
    2.9945    1.3983    0.0000 C   0  0  0  0  0  0  0  0  0  0  0  0
    8.2414   -6.2540    0.0000 C   0  0  0  0  0  0  0  0  0  0  0  0
    6.5094   -6.2540    0.0000 C   0  0  0  0  0  0  0  0  0  0  0  0
    7.3754   -6.7540    0.0000 C   0  0  0  0  0  0  0  0  0  0  0  0
   16.4719    1.0847    0.0000 C   0  0  0  0  0  0  0  0  0  0  0  0
   16.6530    2.8073    0.0000 C   0  0  0  0  0  0  0  0  0  0  0  0
   17.2408    3.6163    0.0000 C   0  0  2  0  0  0  0  0  0  0  0  0
   16.8787    0.1712    0.0000 C   0  0  0  0  0  0  0  0  0  0  0  0
   16.8340    4.5298    0.0000 C   0  0  0  0  0  0  0  0  0  0  0  0
   17.4218    5.3389    0.0000 C   0  0  0  0  0  0  0  0  0  0  0  0
   18.6420    2.5982    0.0000 C   0  0  0  0  0  0  0  0  0  0  0  0
   19.6365    2.4937    0.0000 C   0  0  0  0  0  0  0  0  0  0  0  0
    8.0229   -0.1627    0.0000 H   0  0  0  0  0  0  0  0  0  0  0  0
    8.7939   -2.5355    0.0000 H   0  0  0  0  0  0  0  0  0  0  0  0
    6.8660   -1.4140    0.0000 H   0  0  0  0  0  0  0  0  0  0  0  0
    7.1224   -2.2032    0.0000 H   0  0  0  0  0  0  0  0  0  0  0  0
    9.3605   -2.2032    0.0000 H   0  0  0  0  0  0  0  0  0  0  0  0
    9.6169   -1.4140    0.0000 H   0  0  0  0  0  0  0  0  0  0  0  0
   10.9404   -0.0755    0.0000 H   0  0  0  0  0  0  0  0  0  0  0  0
   10.1139   -0.8594    0.0000 H   0  0  0  0  0  0  0  0  0  0  0  0
   10.6594    1.3647    0.0000 H   0  0  0  0  0  0  0  0  0  0  0  0
    5.9070   -0.5771    0.0000 H   0  0  0  0  0  0  0  0  0  0  0  0
    6.1880    0.8632    0.0000 H   0  0  0  0  0  0  0  0  0  0  0  0
    7.1634   -3.1714    0.0000 H   0  0  0  0  0  0  0  0  0  0  0  0
    6.7648   -3.8617    0.0000 H   0  0  0  0  0  0  0  0  0  0  0  0
   12.7460    0.9364    0.0000 H   0  0  0  0  0  0  0  0  0  0  0  0
   11.6602   -1.6454    0.0000 H   0  0  0  0  0  0  0  0  0  0  0  0
   12.3416   -1.0936    0.0000 H   0  0  0  0  0  0  0  0  0  0  0  0
   11.7898   -0.4121    0.0000 H   0  0  0  0  0  0  0  0  0  0  0  0
    9.6411   -1.3688    0.0000 H   0  0  0  0  0  0  0  0  0  0  0  0
    9.7783   -2.2348    0.0000 H   0  0  0  0  0  0  0  0  0  0  0  0
   10.6443   -2.0977    0.0000 H   0  0  0  0  0  0  0  0  0  0  0  0
   11.8349    2.9828    0.0000 H   0  0  0  0  0  0  0  0  0  0  0  0
    6.4921    1.3652    0.0000 H   0  0  0  0  0  0  0  0  0  0  0  0
    6.4088    2.1579    0.0000 H   0  0  0  0  0  0  0  0  0  0  0  0
   13.1056    2.7794    0.0000 H   0  0  0  0  0  0  0  0  0  0  0  0
   13.1889    3.5721    0.0000 H   0  0  0  0  0  0  0  0  0  0  0  0
   13.7405    0.8319    0.0000 H   0  0  0  0  0  0  0  0  0  0  0  0
    4.8763    2.8676    0.0000 H   0  0  0  0  0  0  0  0  0  0  0  0
    4.9596    2.0749    0.0000 H   0  0  0  0  0  0  0  0  0  0  0  0
   11.1574    3.1375    0.0000 H   0  0  0  0  0  0  0  0  0  0  0  0
   10.4760    2.5857    0.0000 H   0  0  0  0  0  0  0  0  0  0  0  0
   11.0278    1.9043    0.0000 H   0  0  0  0  0  0  0  0  0  0  0  0
    4.5463    1.7746    0.0000 H   0  0  0  0  0  0  0  0  0  0  0  0
    3.8182    2.0988    0.0000 H   0  0  0  0  0  0  0  0  0  0  0  0
   12.8346    4.3911    0.0000 H   0  0  0  0  0  0  0  0  0  0  0  0
   12.0160    4.7053    0.0000 H   0  0  0  0  0  0  0  0  0  0  0  0
   11.7018    3.8868    0.0000 H   0  0  0  0  0  0  0  0  0  0  0  0
   15.6873    2.0380    0.0000 H   0  0  0  0  0  0  0  0  0  0  0  0
    8.7784   -4.9440    0.0000 H   0  0  0  0  0  0  0  0  0  0  0  0
    5.9725   -4.9440    0.0000 H   0  0  0  0  0  0  0  0  0  0  0  0
    6.3634    3.1823    0.0000 H   0  0  0  0  0  0  0  0  0  0  0  0
    6.0492    4.0008    0.0000 H   0  0  0  0  0  0  0  0  0  0  0  0
    5.2306    3.6866    0.0000 H   0  0  0  0  0  0  0  0  0  0  0  0
   14.8758    1.0393    0.0000 H   0  0  0  0  0  0  0  0  0  0  0  0
   15.5207    0.5708    0.0000 H   0  0  0  0  0  0  0  0  0  0  0  0
    8.7784   -6.5640    0.0000 H   0  0  0  0  0  0  0  0  0  0  0  0
    5.9725   -6.5640    0.0000 H   0  0  0  0  0  0  0  0  0  0  0  0
   15.4063    3.4782    0.0000 H   0  0  0  0  0  0  0  0  0  0  0  0
    7.3754   -7.3740    0.0000 H   0  0  0  0  0  0  0  0  0  0  0  0
   17.0735    1.2347    0.0000 H   0  0  0  0  0  0  0  0  0  0  0  0
   16.4287    1.7032    0.0000 H   0  0  0  0  0  0  0  0  0  0  0  0
   17.4929    3.0499    0.0000 H   0  0  0  0  0  0  0  0  0  0  0  0
   16.4033    4.9758    0.0000 H   0  0  0  0  0  0  0  0  0  0  0  0
   16.3200    4.1832    0.0000 H   0  0  0  0  0  0  0  0  0  0  0  0
   18.5997    4.0134    0.0000 H   0  0  0  0  0  0  0  0  0  0  0  0
   18.1254   -0.4998    0.0000 H   0  0  0  0  0  0  0  0  0  0  0  0
   19.5717    1.8771    0.0000 H   0  0  0  0  0  0  0  0  0  0  0  0
   20.2531    2.4289    0.0000 H   0  0  0  0  0  0  0  0  0  0  0  0
   19.7014    3.1103    0.0000 H   0  0  0  0  0  0  0  0  0  0  0  0
   17.3795    6.7540    0.0000 H   0  0  0  0  0  0  0  0  0  0  0  0
  1 51  1  0  0  0  0
  2 51  1  0  0  0  0
  3 51  1  0  0  0  0
 23  4  1  6  0  0  0
  4 31  1  0  0  0  0
  5 26  2  0  0  0  0
  6 28  2  0  0  0  0
  7 35  2  0  0  0  0
  8 38  2  0  0  0  0
  9 44  2  0  0  0  0
 10 56  2  0  0  0  0
 11 58  1  0  0  0  0
 11117  1  0  0  0  0
 12 58  2  0  0  0  0
 13 60  1  0  0  0  0
 13121  1  0  0  0  0
 14 60  2  0  0  0  0
 15 61  2  0  0  0  0
 16 22  1  0  0  0  0
 16 25  1  0  0  0  0
 16 26  1  0  0  0  0
 27 17  1  1  0  0  0
 17 35  1  0  0  0  0
 17 71  1  0  0  0  0
 18 28  1  0  0  0  0
 18 30  1  0  0  0  0
 18 72  1  0  0  0  0
 32 19  1  6  0  0  0
 19 44  1  0  0  0  0
 19 88  1  0  0  0  0
 46 20  1  6  0  0  0
 20 56  1  0  0  0  0
 20109  1  0  0  0  0
 57 21  1  6  0  0  0
 21 61  1  0  0  0  0
 21116  1  0  0  0  0
 22 24  1  0  0  0  0
 22 28  1  1  0  0  0
 22 63  1  0  0  0  0
 23 24  1  0  0  0  0
 23 25  1  0  0  0  0
 23 64  1  0  0  0  0
 24 65  1  0  0  0  0
 24 66  1  0  0  0  0
 25 67  1  0  0  0  0
 25 68  1  0  0  0  0
 26 27  1  0  0  0  0
 27 29  1  0  0  0  0
 27 69  1  0  0  0  0
 29 33  1  0  0  0  0
 29 34  1  0  0  0  0
 29 70  1  0  0  0  0
 30 37  1  0  0  0  0
 30 38  1  0  0  0  0
 30 73  1  0  0  0  0
 31 39  1  0  0  0  0
 31 74  1  0  0  0  0
 31 75  1  0  0  0  0
 32 35  1  0  0  0  0
 32 36  1  0  0  0  0
 32 76  1  0  0  0  0
 33 77  1  0  0  0  0
 33 78  1  0  0  0  0
 33 79  1  0  0  0  0
 34 80  1  0  0  0  0
 34 81  1  0  0  0  0
 34 82  1  0  0  0  0
 36 40  1  0  0  0  0
 36 42  1  1  0  0  0
 36 83  1  0  0  0  0
 37 41  1  0  0  0  0
 37 84  1  0  0  0  0
 37 85  1  0  0  0  0
 38 43  1  0  0  0  0
 39 47  2  0  0  0  0
 39 48  1  0  0  0  0
 40 45  1  0  0  0  0
 40 86  1  0  0  0  0
 40 87  1  0  0  0  0
 41 49  1  0  0  0  0
 41 89  1  0  0  0  0
 41 90  1  0  0  0  0
 42 91  1  0  0  0  0
 42 92  1  0  0  0  0
 42 93  1  0  0  0  0
 43 51  1  0  0  0  0
 43 94  1  0  0  0  0
 43 95  1  0  0  0  0
 44 46  1  0  0  0  0
 45 96  1  0  0  0  0
 45 97  1  0  0  0  0
 45 98  1  0  0  0  0
 46 50  1  0  0  0  0
 46 99  1  0  0  0  0
 47 52  1  0  0  0  0
 47100  1  0  0  0  0
 48 53  2  0  0  0  0
 48101  1  0  0  0  0
 49102  1  0  0  0  0
 49103  1  0  0  0  0
 49104  1  0  0  0  0
 50 55  1  0  0  0  0
 50105  1  0  0  0  0
 50106  1  0  0  0  0
 52 54  2  0  0  0  0
 52107  1  0  0  0  0
 53 54  1  0  0  0  0
 53108  1  0  0  0  0
 54110  1  0  0  0  0
 55 58  1  0  0  0  0
 55111  1  0  0  0  0
 55112  1  0  0  0  0
 56 57  1  0  0  0  0
 57 59  1  0  0  0  0
 57113  1  0  0  0  0
 59 60  1  0  0  0  0
 59114  1  0  0  0  0
 59115  1  0  0  0  0
 61 62  1  0  0  0  0
 62118  1  0  0  0  0
 62119  1  0  0  0  0
 62120  1  0  0  0  0
M  END
> <PUBCHEM_COMPOUND_CID>
500576
> <PUBCHEM_COMPOUND_CANONICALIZED>
1
> <PUBCHEM_CACTVS_COMPLEXITY>
1590
> <PUBCHEM_CACTVS_HBOND_ACCEPTOR>
15
> <PUBCHEM_CACTVS_HBOND_DONOR>
7
> <PUBCHEM_CACTVS_ROTATABLE_BOND>
25
> <PUBCHEM_CACTVS_SUBSKEYS>
AAADcfB/vYAAAAAAAAAAAAAAAAAAAWAAAAAwAAAAAAAAAAABAAAAHwAQCAAADTzhmBYyCIPABgCIAqHSGAACAAAgAAAIiIGICIgKZjqAsTiXcAAm1gGYqAe/1yIOAAAAAAAAAAAAAAAAAAAAAAAAAAAAAA==
> <PUBCHEM_IUPAC_OPENEYE_NAME>
(4R)-4-[[(2S)-2-acetamido-3-carboxy-propanoyl]amino]-5-[[(1S,2S)-1-[[(1S)-1-[(2S,4R)-4-benzyloxy-2-[(4,4,4-trifluoro-2-oxo-1-propyl-butyl)carbamoyl]pyrrolidine-1-carbonyl]-2-methyl-propyl]carbamoyl]-2-methyl-butyl]amino]-5-oxo-pentanoic acid
> <PUBCHEM_IUPAC_CAS_NAME>
(4R)-4-[[(2S)-2-acetamido-3-carboxy-1-oxopropyl]amino]-5-[[(2S,3S)-3-methyl-1-[[(2S)-3-methyl-1-oxo-1-[(2S,4R)-2-[oxo-[(1,1,1-trifluoro-3-oxoheptan-4-yl)amino]methyl]-4-phenylmethoxy-1-pyrrolidinyl]butan-2-yl]amino]-1-oxopentan-2-yl]amino]-5-oxopentanoic acid
> <PUBCHEM_IUPAC_NAME_MARKUP>
(4<I>R</I>)-4-[[(2<I>S</I>)-2-acetamido-3-carboxypropanoyl]amino]-5-[[(2<I>S</I>,3<I>S</I>)-3-methyl-1-[[(2<I>S</I>)-3-methyl-1-oxo-1-[(2<I>S</I>,4<I>R</I>)-4-phenylmethoxy-2-[(1,1,1-trifluoro-3-oxoheptan-4-yl)carbamoyl]pyrrolidin-1-yl]butan-2-yl]amino]-1-oxopentan-2-yl]amino]-5-oxopentanoic acid
> <PUBCHEM_IUPAC_NAME>
(4R)-4-[[(2S)-2-acetamido-3-carboxypropanoyl]amino]-5-[[(2S,3S)-3-methyl-1-[[(2S)-3-methyl-1-oxo-1-[(2S,4R)-4-phenylmethoxy-2-[(1,1,1-trifluoro-3-oxoheptan-4-yl)carbamoyl]pyrrolidin-1-yl]butan-2-yl]amino]-1-oxopentan-2-yl]amino]-5-oxopentanoic acid
> <PUBCHEM_IUPAC_SYSTEMATIC_NAME>
(4R)-4-[[(2S)-2-acetamido-4-oxidanyl-4-oxidanylidene-butanoyl]amino]-5-[[(2S,3S)-3-methyl-1-[[(2S)-3-methyl-1-oxidanylidene-1-[(2S,4R)-4-phenylmethoxy-2-[[1,1,1-tris(fluoranyl)-3-oxidanylidene-heptan-4-yl]carbamoyl]pyrrolidin-1-yl]butan-2-yl]amino]-1-oxidanylidene-pentan-2-yl]amino]-5-oxidanylidene-pentanoic acid
> <PUBCHEM_IUPAC_TRADITIONAL_NAME>
(4R)-4-[[(2S)-2-acetamido-3-carboxy-propanoyl]amino]-5-[[(1S,2S)-1-[[(1S)-1-[(2S,4R)-4-benzoxy-2-[(4,4,4-trifluoro-2-keto-1-propyl-butyl)carbamoyl]pyrrolidine-1-carbonyl]-2-methyl-propyl]carbamoyl]-2-methyl-butyl]amino]-5-keto-valeric acid
> <PUBCHEM_IUPAC_INCHI>
InChI=1S/C41H59F3N6O12/c1-7-12-27(31(52)19-41(42,43)44)46-38(59)30-17-26(62-21-25-13-10-9-11-14-25)20-50(30)40(61)34(22(3)4)48-39(60)35(23(5)8-2)49-36(57)28(15-16-32(53)54)47-37(58)29(18-33(55)56)45-24(6)51/h9-11,13-14,22-23,26-30,34-35H,7-8,12,15-21H2,1-6H3,(H,45,51)(H,46,59)(H,47,58)(H,48,60)(H,49,57)(H,53,54)(H,55,56)/t23-,26+,27?,28+,29-,30-,34-,35-/m0/s1
> <PUBCHEM_IUPAC_INCHIKEY>
UTZVUEABEXDBIJ-SGQMXKGGSA-N
> <PUBCHEM_XLOGP3_AA>
2.6
> <PUBCHEM_EXACT_MASS>
884.41430582
> <PUBCHEM_MOLECULAR_FORMULA>
C41H59F3N6O12
> <PUBCHEM_MOLECULAR_WEIGHT>
884.9
> <PUBCHEM_OPENEYE_CAN_SMILES>
CCCC(C(=O)CC(F)(F)F)NC(=O)C1CC(CN1C(=O)C(C(C)C)NC(=O)C(C(C)CC)NC(=O)C(CCC(=O)O)NC(=O)C(CC(=O)O)NC(=O)C)OCC2=CC=CC=C2
> <PUBCHEM_OPENEYE_ISO_SMILES>
CCCC(C(=O)CC(F)(F)F)NC(=O)[C@@H]1C[C@H](CN1C(=O)[C@H](C(C)C)NC(=O)[C@H]([C@@H](C)CC)NC(=O)[C@@H](CCC(=O)O)NC(=O)[C@H](CC(=O)O)NC(=O)C)OCC2=CC=CC=C2
> <PUBCHEM_CACTVS_TPSA>
267
> <PUBCHEM_MONOISOTOPIC_WEIGHT>
884.41430582
> <PUBCHEM_TOTAL_CHARGE>
0
> <PUBCHEM_HEAVY_ATOM_COUNT>
62
> <PUBCHEM_ATOM_DEF_STEREO_COUNT>
7
> <PUBCHEM_ATOM_UDEF_STEREO_COUNT>
1
> <PUBCHEM_BOND_DEF_STEREO_COUNT>
0
> <PUBCHEM_BOND_UDEF_STEREO_COUNT>
0
> <PUBCHEM_ISOTOPIC_ATOM_COUNT>
0
> <PUBCHEM_COMPONENT_COUNT>
1
> <PUBCHEM_CACTVS_TAUTO_COUNT>
-1
> <PUBCHEM_COORDINATE_TYPE>
1
5
255
> <PUBCHEM_BONDANNOTATIONS>
27  17  5
32  19  6
46  20  6
57  21  6
22  28  5
30  37  3
36  42  5
39  47  8
39  48  8
23  4  6
47  52  8
48  53  8
52  54  8
53  54  8
$$$$
