500530
  -OEChem-10302200282D
120124  0     1  0  0  0  0  0999 V2000
    6.5454    3.7761    0.0000 O   0  0  0  0  0  0  0  0  0  0  0  0
    5.2111    4.6761    0.0000 O   0  0  0  0  0  0  0  0  0  0  0  0
    3.8743    1.2552    0.0000 O   0  0  0  0  0  0  0  0  0  0  0  0
    6.7725    1.7779    0.0000 O   0  0  0  0  0  0  0  0  0  0  0  0
    9.8982   -0.0193    0.0000 O   0  0  0  0  0  0  0  0  0  0  0  0
    9.9046   -3.6248    0.0000 O   0  0  0  0  0  0  0  0  0  0  0  0
   13.5077   -3.7571    0.0000 O   0  0  0  0  0  0  0  0  0  0  0  0
   14.9464   -2.3678    0.0000 O   0  0  0  0  0  0  0  0  0  0  0  0
   13.7432   -1.1218    0.0000 O   0  0  0  0  0  0  0  0  0  0  0  0
   15.1948   -6.9436    0.0000 O   0  0  0  0  0  0  0  0  0  0  0  0
   13.5142   -7.3626    0.0000 O   0  0  0  0  0  0  0  0  0  0  0  0
    5.4311    2.0145    0.0000 N   0  0  0  0  0  0  0  0  0  0  0  0
    6.2950    0.1130    0.0000 N   0  0  0  0  0  0  0  0  0  0  0  0
    8.2176   -0.4383    0.0000 N   0  0  0  0  0  0  0  0  0  0  0  0
   10.3820   -1.9599    0.0000 N   0  0  0  0  0  0  0  0  0  0  0  0
   11.8271   -4.1761    0.0000 N   0  0  0  0  0  0  0  0  0  0  0  0
   12.3110   -6.1167    0.0000 N   0  0  0  0  0  0  0  0  0  0  0  0
    8.0429    5.5966    0.0000 C   0  0  1  0  0  0  0  0  0  0  0  0
    9.4418    5.6055    0.0000 C   0  0  0  0  0  0  0  0  0  0  0  0
    8.3017    6.5626    0.0000 C   0  0  1  0  0  0  0  0  0  0  0  0
    7.5651    7.5452    0.0000 C   0  0  0  0  0  0  0  0  0  0  0  0
    6.8219    4.7310    0.0000 C   0  0  1  0  0  0  0  0  0  0  0  0
    6.2685    6.2514    0.0000 C   0  0  0  0  0  0  0  0  0  0  0  0
    5.9928    5.2902    0.0000 C   0  0  1  0  0  0  0  0  0  0  0  0
   10.3079    6.1055    0.0000 C   0  0  0  0  0  0  0  0  0  0  0  0
    9.9418    4.7394    0.0000 C   0  0  0  0  0  0  0  0  0  0  0  0
    7.6509    4.1718    0.0000 C   0  0  0  0  0  0  0  0  0  0  0  0
    4.9927    2.9132    0.0000 C   0  0  1  0  0  0  0  0  0  0  0  0
    3.9951    2.9830    0.0000 C   0  0  0  0  0  0  0  0  0  0  0  0
    4.8719    1.1854    0.0000 C   0  0  0  0  0  0  0  0  0  0  0  0
    3.4359    2.1540    0.0000 C   0  0  0  0  0  0  0  0  0  0  0  0
    3.5568    3.8818    0.0000 C   0  0  0  0  0  0  0  0  0  0  0  0
    5.3102    0.2866    0.0000 C   0  0  2  0  0  0  0  0  0  0  0  0
    2.4384    2.2237    0.0000 C   0  0  0  0  0  0  0  0  0  0  0  0
    2.5592    3.9516    0.0000 C   0  0  0  0  0  0  0  0  0  0  0  0
    4.8408   -0.5963    0.0000 C   0  0  0  0  0  0  0  0  0  0  0  0
    2.0000    3.1225    0.0000 C   0  0  0  0  0  0  0  0  0  0  0  0
    5.5354   -1.3157    0.0000 C   0  0  0  0  0  0  0  0  0  0  0  0
    6.4342   -0.8773    0.0000 C   0  0  0  0  0  0  0  0  0  0  0  0
    7.0144    0.8076    0.0000 C   0  0  0  0  0  0  0  0  0  0  0  0
    7.9756    0.5320    0.0000 C   0  0  2  0  0  0  0  0  0  0  0  0
    8.6950    1.2267    0.0000 C   0  0  0  0  0  0  0  0  0  0  0  0
    9.6562    0.9510    0.0000 C   0  0  0  0  0  0  0  0  0  0  0  0
    8.4531    2.1970    0.0000 C   0  0  0  0  0  0  0  0  0  0  0  0
    9.1788   -0.7139    0.0000 C   0  0  0  0  0  0  0  0  0  0  0  0
    9.4208   -1.6842    0.0000 C   0  0  2  0  0  0  0  0  0  0  0  0
    8.7014   -2.3789    0.0000 C   0  0  0  0  0  0  0  0  0  0  0  0
    8.9433   -3.3492    0.0000 C   0  0  0  0  0  0  0  0  0  0  0  0
    7.7402   -2.1032    0.0000 C   0  0  0  0  0  0  0  0  0  0  0  0
   10.6239   -2.9302    0.0000 C   0  0  0  0  0  0  0  0  0  0  0  0
   11.5852   -3.2058    0.0000 C   0  0  2  0  0  0  0  0  0  0  0  0
   12.3045   -2.5111    0.0000 C   0  0  0  0  0  0  0  0  0  0  0  0
   13.2658   -2.7868    0.0000 C   0  0  0  0  0  0  0  0  0  0  0  0
   12.7884   -4.4517    0.0000 C   0  0  0  0  0  0  0  0  0  0  0  0
   13.0303   -5.4220    0.0000 C   0  0  2  0  0  0  0  0  0  0  0  0
   13.9851   -2.0921    0.0000 C   0  0  0  0  0  0  0  0  0  0  0  0
   13.9916   -5.6977    0.0000 C   0  0  0  0  0  0  0  0  0  0  0  0
   14.2335   -6.6680    0.0000 C   0  0  0  0  0  0  0  0  0  0  0  0
    5.5519    3.7423    0.0000 B   0  0  0  0  0  0  0  0  0  0  0  0
    7.8229    4.7756    0.0000 H   0  0  0  0  0  0  0  0  0  0  0  0
    8.5217    7.3836    0.0000 H   0  0  0  0  0  0  0  0  0  0  0  0
    7.8829    8.0775    0.0000 H   0  0  0  0  0  0  0  0  0  0  0  0
    6.9520    7.6371    0.0000 H   0  0  0  0  0  0  0  0  0  0  0  0
    6.2634    6.8714    0.0000 H   0  0  0  0  0  0  0  0  0  0  0  0
    5.6542    6.3352    0.0000 H   0  0  0  0  0  0  0  0  0  0  0  0
    5.2882    5.7655    0.0000 H   0  0  0  0  0  0  0  0  0  0  0  0
   10.6179    5.5685    0.0000 H   0  0  0  0  0  0  0  0  0  0  0  0
   10.8448    6.4155    0.0000 H   0  0  0  0  0  0  0  0  0  0  0  0
    9.9979    6.6424    0.0000 H   0  0  0  0  0  0  0  0  0  0  0  0
    9.4049    4.4294    0.0000 H   0  0  0  0  0  0  0  0  0  0  0  0
   10.2518    4.2025    0.0000 H   0  0  0  0  0  0  0  0  0  0  0  0
   10.4788    5.0494    0.0000 H   0  0  0  0  0  0  0  0  0  0  0  0
    7.3042    3.6578    0.0000 H   0  0  0  0  0  0  0  0  0  0  0  0
    8.1649    3.8251    0.0000 H   0  0  0  0  0  0  0  0  0  0  0  0
    7.9976    4.6858    0.0000 H   0  0  0  0  0  0  0  0  0  0  0  0
    4.6460    2.3992    0.0000 H   0  0  0  0  0  0  0  0  0  0  0  0
    6.0496    1.9712    0.0000 H   0  0  0  0  0  0  0  0  0  0  0  0
    3.7077    1.5967    0.0000 H   0  0  0  0  0  0  0  0  0  0  0  0
    3.9035    4.3958    0.0000 H   0  0  0  0  0  0  0  0  0  0  0  0
    5.6834    0.7818    0.0000 H   0  0  0  0  0  0  0  0  0  0  0  0
    2.0917    1.7097    0.0000 H   0  0  0  0  0  0  0  0  0  0  0  0
    2.2874    4.5088    0.0000 H   0  0  0  0  0  0  0  0  0  0  0  0
    4.3268   -0.2496    0.0000 H   0  0  0  0  0  0  0  0  0  0  0  0
    4.4422   -1.0713    0.0000 H   0  0  0  0  0  0  0  0  0  0  0  0
    1.3815    3.1658    0.0000 H   0  0  0  0  0  0  0  0  0  0  0  0
    5.0469   -1.6974    0.0000 H   0  0  0  0  0  0  0  0  0  0  0  0
    5.8640   -1.8414    0.0000 H   0  0  0  0  0  0  0  0  0  0  0  0
    6.6463   -1.4599    0.0000 H   0  0  0  0  0  0  0  0  0  0  0  0
    7.0358   -0.7273    0.0000 H   0  0  0  0  0  0  0  0  0  0  0  0
    8.5716    0.3611    0.0000 H   0  0  0  0  0  0  0  0  0  0  0  0
    8.0990    1.3976    0.0000 H   0  0  0  0  0  0  0  0  0  0  0  0
    7.7716   -0.8690    0.0000 H   0  0  0  0  0  0  0  0  0  0  0  0
    9.4854    0.3550    0.0000 H   0  0  0  0  0  0  0  0  0  0  0  0
   10.2522    0.7801    0.0000 H   0  0  0  0  0  0  0  0  0  0  0  0
    9.8272    1.5470    0.0000 H   0  0  0  0  0  0  0  0  0  0  0  0
    9.0546    2.3470    0.0000 H   0  0  0  0  0  0  0  0  0  0  0  0
    8.3031    2.7985    0.0000 H   0  0  0  0  0  0  0  0  0  0  0  0
    7.8515    2.0470    0.0000 H   0  0  0  0  0  0  0  0  0  0  0  0
    9.8668   -1.2535    0.0000 H   0  0  0  0  0  0  0  0  0  0  0  0
    8.2554   -2.8096    0.0000 H   0  0  0  0  0  0  0  0  0  0  0  0
   10.8280   -1.5292    0.0000 H   0  0  0  0  0  0  0  0  0  0  0  0
    8.3418   -3.4992    0.0000 H   0  0  0  0  0  0  0  0  0  0  0  0
    9.0933   -3.9508    0.0000 H   0  0  0  0  0  0  0  0  0  0  0  0
    9.5449   -3.1992    0.0000 H   0  0  0  0  0  0  0  0  0  0  0  0
    7.9110   -1.5073    0.0000 H   0  0  0  0  0  0  0  0  0  0  0  0
    7.1442   -1.9324    0.0000 H   0  0  0  0  0  0  0  0  0  0  0  0
    7.5693   -2.6992    0.0000 H   0  0  0  0  0  0  0  0  0  0  0  0
   11.1392   -3.6365    0.0000 H   0  0  0  0  0  0  0  0  0  0  0  0
   12.5763   -1.9539    0.0000 H   0  0  0  0  0  0  0  0  0  0  0  0
   11.8030   -2.1467    0.0000 H   0  0  0  0  0  0  0  0  0  0  0  0
   11.3811   -4.6068    0.0000 H   0  0  0  0  0  0  0  0  0  0  0  0
   12.9940   -3.3440    0.0000 H   0  0  0  0  0  0  0  0  0  0  0  0
   13.7674   -3.1512    0.0000 H   0  0  0  0  0  0  0  0  0  0  0  0
   12.4343   -5.2511    0.0000 H   0  0  0  0  0  0  0  0  0  0  0  0
   14.6101   -5.6544    0.0000 H   0  0  0  0  0  0  0  0  0  0  0  0
   14.0564   -5.0811    0.0000 H   0  0  0  0  0  0  0  0  0  0  0  0
   12.4610   -6.7183    0.0000 H   0  0  0  0  0  0  0  0  0  0  0  0
   11.7150   -5.9458    0.0000 H   0  0  0  0  0  0  0  0  0  0  0  0
   15.3924   -1.9371    0.0000 H   0  0  0  0  0  0  0  0  0  0  0  0
   15.3447   -7.5452    0.0000 H   0  0  0  0  0  0  0  0  0  0  0  0
  1 22  1  0  0  0  0
  1 59  1  0  0  0  0
  2 24  1  0  0  0  0
  2 59  1  0  0  0  0
  3 30  2  0  0  0  0
  4 40  2  0  0  0  0
  5 45  2  0  0  0  0
  6 50  2  0  0  0  0
  7 54  2  0  0  0  0
  8 56  1  0  0  0  0
  8119  1  0  0  0  0
  9 56  2  0  0  0  0
 10 58  1  0  0  0  0
 10120  1  0  0  0  0
 11 58  2  0  0  0  0
 28 12  1  1  0  0  0
 12 30  1  0  0  0  0
 12 77  1  0  0  0  0
 13 33  1  0  0  0  0
 13 39  1  0  0  0  0
 13 40  1  0  0  0  0
 41 14  1  6  0  0  0
 14 45  1  0  0  0  0
 14 92  1  0  0  0  0
 46 15  1  1  0  0  0
 15 50  1  0  0  0  0
 15101  1  0  0  0  0
 51 16  1  6  0  0  0
 16 54  1  0  0  0  0
 16111  1  0  0  0  0
 55 17  1  6  0  0  0
 17117  1  0  0  0  0
 17118  1  0  0  0  0
 18 19  1  0  0  0  0
 18 21  1  0  0  0  0
 18 22  1  0  0  0  0
 18 60  1  1  0  0  0
 19 20  1  0  0  0  0
 19 25  1  0  0  0  0
 19 26  1  0  0  0  0
 20 21  1  0  0  0  0
 20 23  1  0  0  0  0
 20 61  1  1  0  0  0
 21 62  1  0  0  0  0
 21 63  1  0  0  0  0
 22 24  1  0  0  0  0
 22 27  1  1  0  0  0
 23 24  1  0  0  0  0
 23 64  1  0  0  0  0
 23 65  1  0  0  0  0
 24 66  1  1  0  0  0
 25 67  1  0  0  0  0
 25 68  1  0  0  0  0
 25 69  1  0  0  0  0
 26 70  1  0  0  0  0
 26 71  1  0  0  0  0
 26 72  1  0  0  0  0
 27 73  1  0  0  0  0
 27 74  1  0  0  0  0
 27 75  1  0  0  0  0
 28 29  1  0  0  0  0
 28 59  1  0  0  0  0
 28 76  1  0  0  0  0
 29 31  2  0  0  0  0
 29 32  1  0  0  0  0
 33 30  1  1  0  0  0
 31 34  1  0  0  0  0
 31 78  1  0  0  0  0
 32 35  2  0  0  0  0
 32 79  1  0  0  0  0
 33 36  1  0  0  0  0
 33 80  1  0  0  0  0
 34 37  2  0  0  0  0
 34 81  1  0  0  0  0
 35 37  1  0  0  0  0
 35 82  1  0  0  0  0
 36 38  1  0  0  0  0
 36 83  1  0  0  0  0
 36 84  1  0  0  0  0
 37 85  1  0  0  0  0
 38 39  1  0  0  0  0
 38 86  1  0  0  0  0
 38 87  1  0  0  0  0
 39 88  1  0  0  0  0
 39 89  1  0  0  0  0
 40 41  1  0  0  0  0
 41 42  1  0  0  0  0
 41 90  1  0  0  0  0
 42 43  1  0  0  0  0
 42 44  1  0  0  0  0
 42 91  1  0  0  0  0
 43 93  1  0  0  0  0
 43 94  1  0  0  0  0
 43 95  1  0  0  0  0
 44 96  1  0  0  0  0
 44 97  1  0  0  0  0
 44 98  1  0  0  0  0
 45 46  1  0  0  0  0
 46 47  1  0  0  0  0
 46 99  1  0  0  0  0
 47 48  1  0  0  0  0
 47 49  1  0  0  0  0
 47100  1  0  0  0  0
 48102  1  0  0  0  0
 48103  1  0  0  0  0
 48104  1  0  0  0  0
 49105  1  0  0  0  0
 49106  1  0  0  0  0
 49107  1  0  0  0  0
 50 51  1  0  0  0  0
 51 52  1  0  0  0  0
 51108  1  0  0  0  0
 52 53  1  0  0  0  0
 52109  1  0  0  0  0
 52110  1  0  0  0  0
 53 56  1  0  0  0  0
 53112  1  0  0  0  0
 53113  1  0  0  0  0
 54 55  1  0  0  0  0
 55 57  1  0  0  0  0
 55114  1  0  0  0  0
 57 58  1  0  0  0  0
 57115  1  0  0  0  0
 57116  1  0  0  0  0
M  END
> <PUBCHEM_COMPOUND_CID>
500530
> <PUBCHEM_COMPOUND_CANONICALIZED>
1
> <PUBCHEM_CACTVS_COMPLEXITY>
1610
> <PUBCHEM_CACTVS_HBOND_ACCEPTOR>
12
> <PUBCHEM_CACTVS_HBOND_DONOR>
7
> <PUBCHEM_CACTVS_ROTATABLE_BOND>
18
> <PUBCHEM_CACTVS_SUBSKEYS>
AAADcfJ/vAAAAAAAAAAAAAAAAABgAWJAAAAwYMAAAAAAAEgBAAAoHgAQCAAAD3zhmAYyCIPAAgCIAiHSGACCAAAgAAAIiIGIBIgJYDqAkTGUYAhmlgCIiAe/1/IPgAAAAAAAAADAAAYAADCAAAAAAAAAAA==
> <PUBCHEM_IUPAC_OPENEYE_NAME>
(4S)-4-[[(2S)-2-amino-3-carboxy-propanoyl]amino]-5-[[(1S)-2-methyl-1-[[(1S)-2-methyl-1-[(2S)-2-[[(R)-phenyl-[(1R,2S,6R,8S)-2,9,9-trimethyl-3,5-dioxa-4-boratricyclo[6.1.1.02,6]decan-4-yl]methyl]carbamoyl]pyrrolidine-1-carbonyl]propyl]carbamoyl]propyl]amino]-5-oxo-pentanoic acid
> <PUBCHEM_IUPAC_CAS_NAME>
(4S)-4-[[(2S)-2-amino-3-carboxy-1-oxopropyl]amino]-5-[[(2S)-3-methyl-1-[[(2S)-3-methyl-1-oxo-1-[(2S)-2-[oxo-[[(R)-phenyl-[(1R,2S,6R,8S)-2,9,9-trimethyl-3,5-dioxa-4-boratricyclo[6.1.1.02,6]decan-4-yl]methyl]amino]methyl]-1-pyrrolidinyl]butan-2-yl]amino]-1-oxobutan-2-yl]amino]-5-oxopentanoic acid
> <PUBCHEM_IUPAC_NAME_MARKUP>
(4<I>S</I>)-4-[[(2<I>S</I>)-2-amino-3-carboxypropanoyl]amino]-5-[[(2<I>S</I>)-3-methyl-1-[[(2<I>S</I>)-3-methyl-1-oxo-1-[(2<I>S</I>)-2-[[(<I>R</I>)-phenyl-[(1<I>R</I>,2<I>S</I>,6<I>R</I>,8<I>S</I>)-2,9,9-trimethyl-3,5-dioxa-4-boratricyclo[6.1.1.0<SUP>2,6</SUP>]decan-4-yl]methyl]carbamoyl]pyrrolidin-1-yl]butan-2-yl]amino]-1-oxobutan-2-yl]amino]-5-oxopentanoic acid
> <PUBCHEM_IUPAC_NAME>
(4S)-4-[[(2S)-2-amino-3-carboxypropanoyl]amino]-5-[[(2S)-3-methyl-1-[[(2S)-3-methyl-1-oxo-1-[(2S)-2-[[(R)-phenyl-[(1R,2S,6R,8S)-2,9,9-trimethyl-3,5-dioxa-4-boratricyclo[6.1.1.02,6]decan-4-yl]methyl]carbamoyl]pyrrolidin-1-yl]butan-2-yl]amino]-1-oxobutan-2-yl]amino]-5-oxopentanoic acid
> <PUBCHEM_IUPAC_SYSTEMATIC_NAME>
(4S)-4-[[(2S)-2-azanyl-4-oxidanyl-4-oxidanylidene-butanoyl]amino]-5-[[(2S)-3-methyl-1-[[(2S)-3-methyl-1-oxidanylidene-1-[(2S)-2-[[(R)-phenyl-[(1R,2S,6R,8S)-2,9,9-trimethyl-3,5-dioxa-4-boratricyclo[6.1.1.02,6]decan-4-yl]methyl]carbamoyl]pyrrolidin-1-yl]butan-2-yl]amino]-1-oxidanylidene-butan-2-yl]amino]-5-oxidanylidene-pentanoic acid
> <PUBCHEM_IUPAC_TRADITIONAL_NAME>
(4S)-4-[[(2S)-2-amino-3-carboxy-propanoyl]amino]-5-keto-5-[[(1S)-2-methyl-1-[[(1S)-2-methyl-1-[(2S)-2-[[(R)-phenyl-[(1R,2S,6R,8S)-2,9,9-trimethyl-3,5-dioxa-4-boratricyclo[6.1.1.02,6]decan-4-yl]methyl]carbamoyl]pyrrolidine-1-carbonyl]propyl]carbamoyl]propyl]amino]valeric acid
> <PUBCHEM_IUPAC_INCHI>
InChI=1S/C41H61BN6O11/c1-21(2)32(45-36(54)26(15-16-30(49)50)44-35(53)25(43)20-31(51)52)38(56)46-33(22(3)4)39(57)48-17-11-14-27(48)37(55)47-34(23-12-9-8-10-13-23)42-58-29-19-24-18-28(40(24,5)6)41(29,7)59-42/h8-10,12-13,21-22,24-29,32-34H,11,14-20,43H2,1-7H3,(H,44,53)(H,45,54)(H,46,56)(H,47,55)(H,49,50)(H,51,52)/t24-,25-,26-,27-,28+,29+,32-,33-,34-,41-/m0/s1
> <PUBCHEM_IUPAC_INCHIKEY>
QHOUVKREXGQEMQ-QNFNVSRISA-N
> <PUBCHEM_EXACT_MASS>
824.4491369
> <PUBCHEM_MOLECULAR_FORMULA>
C41H61BN6O11
> <PUBCHEM_MOLECULAR_WEIGHT>
824.8
> <PUBCHEM_OPENEYE_CAN_SMILES>
B1(OC2CC3CC(C3(C)C)C2(O1)C)C(C4=CC=CC=C4)NC(=O)C5CCCN5C(=O)C(C(C)C)NC(=O)C(C(C)C)NC(=O)C(CCC(=O)O)NC(=O)C(CC(=O)O)N
> <PUBCHEM_OPENEYE_ISO_SMILES>
B1(O[C@@H]2C[C@@H]3C[C@@H]([C@@]2(O1)C)C3(C)C)[C@H](C4=CC=CC=C4)NC(=O)[C@@H]5CCCN5C(=O)[C@H](C(C)C)NC(=O)[C@H](C(C)C)NC(=O)[C@H](CCC(=O)O)NC(=O)[C@H](CC(=O)O)N
> <PUBCHEM_CACTVS_TPSA>
256
> <PUBCHEM_MONOISOTOPIC_WEIGHT>
824.4491369
> <PUBCHEM_TOTAL_CHARGE>
0
> <PUBCHEM_HEAVY_ATOM_COUNT>
59
> <PUBCHEM_ATOM_DEF_STEREO_COUNT>
10
> <PUBCHEM_ATOM_UDEF_STEREO_COUNT>
0
> <PUBCHEM_BOND_DEF_STEREO_COUNT>
0
> <PUBCHEM_BOND_UDEF_STEREO_COUNT>
0
> <PUBCHEM_ISOTOPIC_ATOM_COUNT>
0
> <PUBCHEM_COMPONENT_COUNT>
1
> <PUBCHEM_CACTVS_TAUTO_COUNT>
-1
> <PUBCHEM_COORDINATE_TYPE>
1
5
255
> <PUBCHEM_BONDANNOTATIONS>
28  12  5
41  14  6
46  15  5
51  16  6
55  17  6
18  60  5
20  61  5
22  27  5
24  66  5
29  31  8
29  32  8
33  30  5
31  34  8
32  35  8
34  37  8
35  37  8
$$$$
