500556
  -OEChem-10302200282D
132134  0     1  0  0  0  0  0999 V2000
   15.3488   -2.7474    0.0000 S   0  0  0  0  0  0  0  0  0  0  0  0
   11.7279    7.6414    0.0000 S   0  0  0  0  0  0  0  0  0  0  0  0
   13.2144   -0.1555    0.0000 O   0  0  0  0  0  0  0  0  0  0  0  0
   15.6595   -1.7969    0.0000 O   0  0  0  0  0  0  0  0  0  0  0  0
   11.7189    2.4452    0.0000 O   0  0  0  0  0  0  0  0  0  0  0  0
   12.2204    3.3104    0.0000 O   0  0  0  0  0  0  0  0  0  0  0  0
   12.0561   -1.6712    0.0000 O   0  0  0  0  0  0  0  0  0  0  0  0
   15.2234    5.0372    0.0000 O   0  0  0  0  0  0  0  0  0  0  0  0
   11.0776   -1.8775    0.0000 O   0  0  0  0  0  0  0  0  0  0  0  0
   14.7249    5.9041    0.0000 O   0  0  0  0  0  0  0  0  0  0  0  0
   11.7920   -5.2671    0.0000 O   0  0  0  0  0  0  0  0  0  0  0  0
   12.2294    8.5065    0.0000 O   0  0  0  0  0  0  0  0  0  0  0  0
    6.3246  -10.8446    0.0000 O   0  0  0  0  0  0  0  0  0  0  0  0
    7.9244   -8.7373    0.0000 O   0  0  0  0  0  0  0  0  0  0  0  0
    8.1886   -5.1414    0.0000 O   0  0  0  0  0  0  0  0  0  0  0  0
    7.2101   -5.3477    0.0000 O   0  0  0  0  0  0  0  0  0  0  0  0
   13.2354   11.9689    0.0000 O   0  0  0  0  0  0  0  0  0  0  0  0
   14.7339   11.1003    0.0000 O   0  0  0  0  0  0  0  0  0  0  0  0
   14.7159    0.7080    0.0000 N   0  0  0  0  0  0  0  0  0  0  0  0
   14.0131   -1.2588    0.0000 N   0  0  0  0  0  0  0  0  0  0  0  0
   13.7189    2.4418    0.0000 N   0  0  0  0  0  0  0  0  0  0  0  0
   12.4133   -3.3661    0.0000 N   0  0  0  0  0  0  0  0  0  0  0  0
   13.2234    5.0407    0.0000 N   0  0  0  0  0  0  0  0  0  0  0  0
   10.1456   -4.7290    0.0000 N   0  0  0  0  0  0  0  0  0  0  0  0
   13.7279    7.6379    0.0000 N   0  0  0  0  0  0  0  0  0  0  0  0
    6.2781   -8.1992    0.0000 N   0  0  0  0  0  0  0  0  0  0  0  0
    4.6783  -11.9160    0.0000 N   0  0  0  0  0  0  0  0  0  0  0  0
    8.5458   -6.8363    0.0000 N   0  0  0  0  0  0  0  0  0  0  0  0
   14.7309    9.3682    0.0000 N   0  0  0  0  0  0  0  0  0  0  0  0
   15.3023   -0.1021    0.0000 C   0  0  1  0  0  0  0  0  0  0  0  0
   16.2539    0.2053    0.0000 C   0  0  0  0  0  0  0  0  0  0  0  0
   16.2556    1.2053    0.0000 C   0  0  0  0  0  0  0  0  0  0  0  0
   15.3051    1.5160    0.0000 C   0  0  0  0  0  0  0  0  0  0  0  0
   13.7159    0.7097    0.0000 C   0  0  0  0  0  0  0  0  0  0  0  0
   14.9916   -1.0526    0.0000 C   0  0  0  0  0  0  0  0  0  0  0  0
   13.2174    1.5766    0.0000 C   0  0  2  0  0  0  0  0  0  0  0  0
   12.2174    1.5783    0.0000 C   0  0  1  0  0  0  0  0  0  0  0  0
   13.7024   -2.2093    0.0000 C   0  0  1  0  0  0  0  0  0  0  0  0
   11.7159    0.7132    0.0000 C   0  0  0  0  0  0  0  0  0  0  0  0
   13.2204    3.3086    0.0000 C   0  0  0  0  0  0  0  0  0  0  0  0
   14.3703   -2.9536    0.0000 C   0  0  0  0  0  0  0  0  0  0  0  0
   12.7239   -2.4155    0.0000 C   0  0  0  0  0  0  0  0  0  0  0  0
   13.7219    4.1738    0.0000 C   0  0  2  0  0  0  0  0  0  0  0  0
   14.7219    4.1721    0.0000 C   0  0  0  0  0  0  0  0  0  0  0  0
   11.4348   -3.5723    0.0000 C   0  0  1  0  0  0  0  0  0  0  0  0
   13.7249    5.9058    0.0000 C   0  0  0  0  0  0  0  0  0  0  0  0
   10.7669   -2.8280    0.0000 C   0  0  0  0  0  0  0  0  0  0  0  0
   13.2264    6.7727    0.0000 C   0  0  2  0  0  0  0  0  0  0  0  0
   11.1241   -4.5228    0.0000 C   0  0  0  0  0  0  0  0  0  0  0  0
   12.2264    6.7745    0.0000 C   0  0  0  0  0  0  0  0  0  0  0  0
    5.9674   -9.1497    0.0000 C   0  0  1  0  0  0  0  0  0  0  0  0
    4.9889   -9.3560    0.0000 C   0  0  0  0  0  0  0  0  0  0  0  0
    4.6783  -10.3065    0.0000 C   0  0  0  0  0  0  0  0  0  0  0  0
    3.7320  -10.6112    0.0000 C   0  0  0  0  0  0  0  0  0  0  0  0
    9.8349   -5.6795    0.0000 C   0  0  0  0  0  0  0  0  0  0  0  0
    3.7320  -11.6112    0.0000 C   0  0  0  0  0  0  0  0  0  0  0  0
    7.5673   -7.0425    0.0000 C   0  0  2  0  0  0  0  0  0  0  0  0
    5.2619  -11.1112    0.0000 C   0  0  0  0  0  0  0  0  0  0  0  0
   13.2294    8.5048    0.0000 C   0  0  0  0  0  0  0  0  0  0  0  0
    6.6353   -9.8941    0.0000 C   0  0  0  0  0  0  0  0  0  0  0  0
    7.2566   -7.9930    0.0000 C   0  0  0  0  0  0  0  0  0  0  0  0
    8.8564   -5.8858    0.0000 C   0  0  0  0  0  0  0  0  0  0  0  0
   13.7309    9.3699    0.0000 C   0  0  2  0  0  0  0  0  0  0  0  0
    2.8660  -10.1112    0.0000 C   0  0  0  0  0  0  0  0  0  0  0  0
    2.8660  -12.1112    0.0000 C   0  0  0  0  0  0  0  0  0  0  0  0
    6.8994   -6.2982    0.0000 C   0  0  0  0  0  0  0  0  0  0  0  0
    7.6138   -9.6878    0.0000 C   0  0  0  0  0  0  0  0  0  0  0  0
    2.0000  -10.6112    0.0000 C   0  0  0  0  0  0  0  0  0  0  0  0
    2.0000  -11.6112    0.0000 C   0  0  0  0  0  0  0  0  0  0  0  0
   13.2324   10.2368    0.0000 C   0  0  0  0  0  0  0  0  0  0  0  0
   13.7339   11.1020    0.0000 C   0  0  0  0  0  0  0  0  0  0  0  0
   14.6897   -0.1980    0.0000 H   0  0  0  0  0  0  0  0  0  0  0  0
   16.3817   -0.4014    0.0000 H   0  0  0  0  0  0  0  0  0  0  0  0
   16.8706    0.2691    0.0000 H   0  0  0  0  0  0  0  0  0  0  0  0
   16.8721    1.1394    0.0000 H   0  0  0  0  0  0  0  0  0  0  0  0
   16.3856    1.8115    0.0000 H   0  0  0  0  0  0  0  0  0  0  0  0
   15.5582    2.0819    0.0000 H   0  0  0  0  0  0  0  0  0  0  0  0
   14.7687    1.8269    0.0000 H   0  0  0  0  0  0  0  0  0  0  0  0
   13.8374    1.5755    0.0000 H   0  0  0  0  0  0  0  0  0  0  0  0
   12.5283    2.1147    0.0000 H   0  0  0  0  0  0  0  0  0  0  0  0
   13.5990   -0.7973    0.0000 H   0  0  0  0  0  0  0  0  0  0  0  0
   14.3389    2.4407    0.0000 H   0  0  0  0  0  0  0  0  0  0  0  0
   13.2884   -1.7478    0.0000 H   0  0  0  0  0  0  0  0  0  0  0  0
   11.1795    1.0241    0.0000 H   0  0  0  0  0  0  0  0  0  0  0  0
   11.4050    0.1768    0.0000 H   0  0  0  0  0  0  0  0  0  0  0  0
   12.2523    0.4022    0.0000 H   0  0  0  0  0  0  0  0  0  0  0  0
   13.8439   -3.2813    0.0000 H   0  0  0  0  0  0  0  0  0  0  0  0
   14.6016   -3.5289    0.0000 H   0  0  0  0  0  0  0  0  0  0  0  0
   14.0328    4.7102    0.0000 H   0  0  0  0  0  0  0  0  0  0  0  0
   11.0989    2.4463    0.0000 H   0  0  0  0  0  0  0  0  0  0  0  0
   12.8273   -3.8275    0.0000 H   0  0  0  0  0  0  0  0  0  0  0  0
   14.6132    3.5617    0.0000 H   0  0  0  0  0  0  0  0  0  0  0  0
   15.3041    3.9590    0.0000 H   0  0  0  0  0  0  0  0  0  0  0  0
   12.6034    5.0418    0.0000 H   0  0  0  0  0  0  0  0  0  0  0  0
   11.8488   -4.0337    0.0000 H   0  0  0  0  0  0  0  0  0  0  0  0
   15.7629   -3.2089    0.0000 H   0  0  0  0  0  0  0  0  0  0  0  0
   10.2200   -2.5360    0.0000 H   0  0  0  0  0  0  0  0  0  0  0  0
   10.3844   -3.3159    0.0000 H   0  0  0  0  0  0  0  0  0  0  0  0
   12.9173    7.3102    0.0000 H   0  0  0  0  0  0  0  0  0  0  0  0
   15.8434    5.0362    0.0000 H   0  0  0  0  0  0  0  0  0  0  0  0
   11.6434    6.5634    0.0000 H   0  0  0  0  0  0  0  0  0  0  0  0
   12.3330    6.1637    0.0000 H   0  0  0  0  0  0  0  0  0  0  0  0
    5.5534   -8.6883    0.0000 H   0  0  0  0  0  0  0  0  0  0  0  0
    4.9684   -8.7363    0.0000 H   0  0  0  0  0  0  0  0  0  0  0  0
    4.3751   -9.2686    0.0000 H   0  0  0  0  0  0  0  0  0  0  0  0
    9.7315   -4.2676    0.0000 H   0  0  0  0  0  0  0  0  0  0  0  0
   14.3479    7.6368    0.0000 H   0  0  0  0  0  0  0  0  0  0  0  0
    9.8555   -6.2992    0.0000 H   0  0  0  0  0  0  0  0  0  0  0  0
   10.4488   -5.7669    0.0000 H   0  0  0  0  0  0  0  0  0  0  0  0
   10.6635   -1.4160    0.0000 H   0  0  0  0  0  0  0  0  0  0  0  0
    5.8640   -7.7378    0.0000 H   0  0  0  0  0  0  0  0  0  0  0  0
    7.9813   -7.5040    0.0000 H   0  0  0  0  0  0  0  0  0  0  0  0
    5.8819  -11.1112    0.0000 H   0  0  0  0  0  0  0  0  0  0  0  0
    4.8709  -12.5053    0.0000 H   0  0  0  0  0  0  0  0  0  0  0  0
    8.9598   -7.2977    0.0000 H   0  0  0  0  0  0  0  0  0  0  0  0
   14.0418    9.9063    0.0000 H   0  0  0  0  0  0  0  0  0  0  0  0
    2.8660   -9.4912    0.0000 H   0  0  0  0  0  0  0  0  0  0  0  0
    2.8660  -12.7312    0.0000 H   0  0  0  0  0  0  0  0  0  0  0  0
    6.3525   -6.0062    0.0000 H   0  0  0  0  0  0  0  0  0  0  0  0
    6.5169   -6.7861    0.0000 H   0  0  0  0  0  0  0  0  0  0  0  0
   11.1079    7.6424    0.0000 H   0  0  0  0  0  0  0  0  0  0  0  0
    7.7416  -10.2945    0.0000 H   0  0  0  0  0  0  0  0  0  0  0  0
    8.2205   -9.5600    0.0000 H   0  0  0  0  0  0  0  0  0  0  0  0
    7.4859   -9.0812    0.0000 H   0  0  0  0  0  0  0  0  0  0  0  0
    1.4631  -10.3012    0.0000 H   0  0  0  0  0  0  0  0  0  0  0  0
    1.4631  -11.9212    0.0000 H   0  0  0  0  0  0  0  0  0  0  0  0
   12.7581   10.6362    0.0000 H   0  0  0  0  0  0  0  0  0  0  0  0
   12.7567    9.8391    0.0000 H   0  0  0  0  0  0  0  0  0  0  0  0
   15.0418    9.9046    0.0000 H   0  0  0  0  0  0  0  0  0  0  0  0
   15.0400    8.8307    0.0000 H   0  0  0  0  0  0  0  0  0  0  0  0
    6.7960   -4.8862    0.0000 H   0  0  0  0  0  0  0  0  0  0  0  0
   13.5463   12.5053    0.0000 H   0  0  0  0  0  0  0  0  0  0  0  0
  1 41  1  0  0  0  0
  1 96  1  0  0  0  0
  2 50  1  0  0  0  0
  2121  1  0  0  0  0
  3 34  2  0  0  0  0
  4 35  2  0  0  0  0
 37  5  1  1  0  0  0
  5 90  1  0  0  0  0
  6 40  2  0  0  0  0
  7 42  2  0  0  0  0
  8 44  1  0  0  0  0
  8100  1  0  0  0  0
  9 47  1  0  0  0  0
  9110  1  0  0  0  0
 10 46  2  0  0  0  0
 11 49  2  0  0  0  0
 12 59  2  0  0  0  0
 13 60  2  0  0  0  0
 14 61  2  0  0  0  0
 15 62  2  0  0  0  0
 16 66  1  0  0  0  0
 16131  1  0  0  0  0
 17 71  1  0  0  0  0
 17132  1  0  0  0  0
 18 71  2  0  0  0  0
 19 30  1  0  0  0  0
 19 33  1  0  0  0  0
 19 34  1  0  0  0  0
 20 35  1  0  0  0  0
 38 20  1  1  0  0  0
 20 81  1  0  0  0  0
 36 21  1  6  0  0  0
 21 40  1  0  0  0  0
 21 82  1  0  0  0  0
 22 42  1  0  0  0  0
 45 22  1  6  0  0  0
 22 91  1  0  0  0  0
 43 23  1  1  0  0  0
 23 46  1  0  0  0  0
 23 94  1  0  0  0  0
 24 49  1  0  0  0  0
 24 55  1  0  0  0  0
 24106  1  0  0  0  0
 48 25  1  6  0  0  0
 25 59  1  0  0  0  0
 25107  1  0  0  0  0
 51 26  1  6  0  0  0
 26 61  1  0  0  0  0
 26111  1  0  0  0  0
 27 56  1  0  0  0  0
 27 58  1  0  0  0  0
 27114  1  0  0  0  0
 57 28  1  6  0  0  0
 28 62  1  0  0  0  0
 28115  1  0  0  0  0
 63 29  1  6  0  0  0
 29129  1  0  0  0  0
 29130  1  0  0  0  0
 30 31  1  0  0  0  0
 30 35  1  1  0  0  0
 30 72  1  0  0  0  0
 31 32  1  0  0  0  0
 31 73  1  0  0  0  0
 31 74  1  0  0  0  0
 32 33  1  0  0  0  0
 32 75  1  0  0  0  0
 32 76  1  0  0  0  0
 33 77  1  0  0  0  0
 33 78  1  0  0  0  0
 34 36  1  0  0  0  0
 36 37  1  0  0  0  0
 36 79  1  0  0  0  0
 37 39  1  0  0  0  0
 37 80  1  0  0  0  0
 38 41  1  0  0  0  0
 38 42  1  0  0  0  0
 38 83  1  0  0  0  0
 39 84  1  0  0  0  0
 39 85  1  0  0  0  0
 39 86  1  0  0  0  0
 40 43  1  0  0  0  0
 41 87  1  0  0  0  0
 41 88  1  0  0  0  0
 43 44  1  0  0  0  0
 43 89  1  0  0  0  0
 44 92  1  0  0  0  0
 44 93  1  0  0  0  0
 45 47  1  0  0  0  0
 45 49  1  0  0  0  0
 45 95  1  0  0  0  0
 46 48  1  0  0  0  0
 47 97  1  0  0  0  0
 47 98  1  0  0  0  0
 48 50  1  0  0  0  0
 48 99  1  0  0  0  0
 50101  1  0  0  0  0
 50102  1  0  0  0  0
 51 52  1  0  0  0  0
 51 60  1  0  0  0  0
 51103  1  0  0  0  0
 52 53  1  0  0  0  0
 52104  1  0  0  0  0
 52105  1  0  0  0  0
 53 54  1  0  0  0  0
 53 58  2  0  0  0  0
 54 56  1  0  0  0  0
 54 64  2  0  0  0  0
 55 62  1  0  0  0  0
 55108  1  0  0  0  0
 55109  1  0  0  0  0
 56 65  2  0  0  0  0
 57 61  1  0  0  0  0
 57 66  1  0  0  0  0
 57112  1  0  0  0  0
 58113  1  0  0  0  0
 59 63  1  0  0  0  0
 60 67  1  0  0  0  0
 63 70  1  0  0  0  0
 63116  1  0  0  0  0
 64 68  1  0  0  0  0
 64117  1  0  0  0  0
 65 69  1  0  0  0  0
 65118  1  0  0  0  0
 66119  1  0  0  0  0
 66120  1  0  0  0  0
 67122  1  0  0  0  0
 67123  1  0  0  0  0
 67124  1  0  0  0  0
 68 69  2  0  0  0  0
 68125  1  0  0  0  0
 69126  1  0  0  0  0
 70 71  1  0  0  0  0
 70127  1  0  0  0  0
 70128  1  0  0  0  0
M  END
> <PUBCHEM_COMPOUND_CID>
500556
> <PUBCHEM_COMPOUND_CANONICALIZED>
1
> <PUBCHEM_CACTVS_COMPLEXITY>
1940
> <PUBCHEM_CACTVS_HBOND_ACCEPTOR>
19
> <PUBCHEM_CACTVS_HBOND_DONOR>
17
> <PUBCHEM_CACTVS_ROTATABLE_BOND>
28
> <PUBCHEM_CACTVS_SUBSKEYS>
AAADcfB//gBgAAAAAAAAAAAAAAAAAWLAAAAwAAAAAAAAAFgB8AAAHgQQCAAADDzl3ga+yPPJkgSoA7X3XACCgCAxAiAI2aG4ZJgKcP7AkbGUYAhmtgDYyAc/icCOgAAAAAACAAAAAAAAAAQAAAAAAAAAAA==
> <PUBCHEM_IUPAC_OPENEYE_NAME>
(3S)-3-amino-4-[[(1R)-2-[[(1S)-2-[[(1S,2R)-2-hydroxy-1-[(2S)-2-[[(1R)-2-[[(1S)-1-(hydroxymethyl)-2-[[2-[[(1S)-1-(hydroxymethyl)-2-[[(1S)-1-(1H-indol-3-ylmethyl)-2-oxo-propyl]amino]-2-oxo-ethyl]amino]-2-oxo-ethyl]amino]-2-oxo-ethyl]amino]-2-oxo-1-(sulfanylmethyl)ethyl]carbamoyl]pyrrolidine-1-carbonyl]propyl]amino]-1-(hydroxymethyl)-2-oxo-ethyl]amino]-2-oxo-1-(sulfanylmethyl)ethyl]amino]-4-oxo-butanoic acid
> <PUBCHEM_IUPAC_CAS_NAME>
(3S)-3-amino-4-[[(2R)-1-[[(2S)-3-hydroxy-1-[[(2S,3R)-3-hydroxy-1-[(2S)-2-[[[(2R)-1-[[(2S)-3-hydroxy-1-[[2-[[(2S)-3-hydroxy-1-[[(2S)-1-(1H-indol-3-yl)-3-oxobutan-2-yl]amino]-1-oxopropan-2-yl]amino]-2-oxoethyl]amino]-1-oxopropan-2-yl]amino]-3-mercapto-1-oxopropan-2-yl]amino]-oxomethyl]-1-pyrrolidinyl]-1-oxobutan-2-yl]amino]-1-oxopropan-2-yl]amino]-3-mercapto-1-oxopropan-2-yl]amino]-4-oxobutanoic acid
> <PUBCHEM_IUPAC_NAME_MARKUP>
(3<I>S</I>)-3-amino-4-[[(2<I>R</I>)-1-[[(2<I>S</I>)-3-hydroxy-1-[[(2<I>S</I>,3<I>R</I>)-3-hydroxy-1-[(2<I>S</I>)-2-[[(2<I>R</I>)-1-[[(2<I>S</I>)-3-hydroxy-1-[[2-[[(2<I>S</I>)-3-hydroxy-1-[[(2<I>S</I>)-1-(1<I>H</I>-indol-3-yl)-3-oxobutan-2-yl]amino]-1-oxopropan-2-yl]amino]-2-oxoethyl]amino]-1-oxopropan-2-yl]amino]-1-oxo-3-sulfanylpropan-2-yl]carbamoyl]pyrrolidin-1-yl]-1-oxobutan-2-yl]amino]-1-oxopropan-2-yl]amino]-1-oxo-3-sulfanylpropan-2-yl]amino]-4-oxobutanoic acid
> <PUBCHEM_IUPAC_NAME>
(3S)-3-amino-4-[[(2R)-1-[[(2S)-3-hydroxy-1-[[(2S,3R)-3-hydroxy-1-[(2S)-2-[[(2R)-1-[[(2S)-3-hydroxy-1-[[2-[[(2S)-3-hydroxy-1-[[(2S)-1-(1H-indol-3-yl)-3-oxobutan-2-yl]amino]-1-oxopropan-2-yl]amino]-2-oxoethyl]amino]-1-oxopropan-2-yl]amino]-1-oxo-3-sulfanylpropan-2-yl]carbamoyl]pyrrolidin-1-yl]-1-oxobutan-2-yl]amino]-1-oxopropan-2-yl]amino]-1-oxo-3-sulfanylpropan-2-yl]amino]-4-oxobutanoic acid
> <PUBCHEM_IUPAC_SYSTEMATIC_NAME>
(3S)-3-azanyl-4-[[(2R)-1-[[(2S)-1-[[(2S,3R)-1-[(2S)-2-[[(2R)-1-[[(2S)-1-[[2-[[(2S)-1-[[(2S)-1-(1H-indol-3-yl)-3-oxidanylidene-butan-2-yl]amino]-3-oxidanyl-1-oxidanylidene-propan-2-yl]amino]-2-oxidanylidene-ethyl]amino]-3-oxidanyl-1-oxidanylidene-propan-2-yl]amino]-1-oxidanylidene-3-sulfanyl-propan-2-yl]carbamoyl]pyrrolidin-1-yl]-3-oxidanyl-1-oxidanylidene-butan-2-yl]amino]-3-oxidanyl-1-oxidanylidene-propan-2-yl]amino]-1-oxidanylidene-3-sulfanyl-propan-2-yl]amino]-4-oxidanylidene-butanoic acid
> <PUBCHEM_IUPAC_TRADITIONAL_NAME>
(3S)-3-amino-4-[[(1R)-2-[[(1S)-2-[[(1S,2R)-2-hydroxy-1-[(2S)-2-[[(1R)-2-[[(1S)-2-[[2-[[(1S)-2-[[(1S)-1-(1H-indol-3-ylmethyl)-2-keto-propyl]amino]-2-keto-1-methylol-ethyl]amino]-2-keto-ethyl]amino]-2-keto-1-methylol-ethyl]amino]-2-keto-1-(mercaptomethyl)ethyl]carbamoyl]pyrrolidine-1-carbonyl]propyl]amino]-2-keto-1-methylol-ethyl]amino]-2-keto-1-(mercaptomethyl)ethyl]amino]-4-keto-butyric acid
> <PUBCHEM_IUPAC_INCHI>
InChI=1S/C42H61N11O16S2/c1-19(57)25(10-21-12-44-24-7-4-3-6-22(21)24)47-37(64)27(15-55)46-32(59)13-45-36(63)26(14-54)48-40(67)30(18-71)51-41(68)31-8-5-9-53(31)42(69)34(20(2)58)52-38(65)28(16-56)49-39(66)29(17-70)50-35(62)23(43)11-33(60)61/h3-4,6-7,12,20,23,25-31,34,44,54-56,58,70-71H,5,8-11,13-18,43H2,1-2H3,(H,45,63)(H,46,59)(H,47,64)(H,48,67)(H,49,66)(H,50,62)(H,51,68)(H,52,65)(H,60,61)/t20-,23+,25+,26+,27+,28+,29+,30+,31+,34+/m1/s1
> <PUBCHEM_IUPAC_INCHIKEY>
LCMPJMLYWLLZGR-GCJPYANWSA-N
> <PUBCHEM_XLOGP3_AA>
-8.3
> <PUBCHEM_EXACT_MASS>
1039.37391725
> <PUBCHEM_MOLECULAR_FORMULA>
C42H61N11O16S2
> <PUBCHEM_MOLECULAR_WEIGHT>
1040.1
> <PUBCHEM_OPENEYE_CAN_SMILES>
CC(C(C(=O)N1CCCC1C(=O)NC(CS)C(=O)NC(CO)C(=O)NCC(=O)NC(CO)C(=O)NC(CC2=CNC3=CC=CC=C32)C(=O)C)NC(=O)C(CO)NC(=O)C(CS)NC(=O)C(CC(=O)O)N)O
> <PUBCHEM_OPENEYE_ISO_SMILES>
C[C@H]([C@@H](C(=O)N1CCC[C@H]1C(=O)N[C@@H](CS)C(=O)N[C@@H](CO)C(=O)NCC(=O)N[C@@H](CO)C(=O)N[C@@H](CC2=CNC3=CC=CC=C32)C(=O)C)NC(=O)[C@H](CO)NC(=O)[C@H](CS)NC(=O)[C@H](CC(=O)O)N)O
> <PUBCHEM_CACTVS_TPSA>
432
> <PUBCHEM_MONOISOTOPIC_WEIGHT>
1039.37391725
> <PUBCHEM_TOTAL_CHARGE>
0
> <PUBCHEM_HEAVY_ATOM_COUNT>
71
> <PUBCHEM_ATOM_DEF_STEREO_COUNT>
10
> <PUBCHEM_ATOM_UDEF_STEREO_COUNT>
0
> <PUBCHEM_BOND_DEF_STEREO_COUNT>
0
> <PUBCHEM_BOND_UDEF_STEREO_COUNT>
0
> <PUBCHEM_ISOTOPIC_ATOM_COUNT>
0
> <PUBCHEM_COMPONENT_COUNT>
1
> <PUBCHEM_CACTVS_TAUTO_COUNT>
-1
> <PUBCHEM_COORDINATE_TYPE>
1
5
255
> <PUBCHEM_BONDANNOTATIONS>
38  20  5
36  21  6
45  22  6
43  23  5
48  25  6
51  26  6
27  56  8
27  58  8
57  28  6
63  29  6
30  35  5
37  5  5
53  54  8
53  58  8
54  56  8
54  64  8
56  65  8
64  68  8
65  69  8
68  69  8
$$$$
