500568
  -OEChem-10302200282D
118118  0     1  0  0  0  0  0999 V2000
    4.5981    0.5000    0.0000 O   0  0  0  0  0  0  0  0  0  0  0  0
    8.0622   -0.5000    0.0000 O   0  0  0  0  0  0  0  0  0  0  0  0
    3.7320    4.0000    0.0000 O   0  0  0  0  0  0  0  0  0  0  0  0
    8.9282   -1.0000    0.0000 O   0  0  0  0  0  0  0  0  0  0  0  0
    6.3301    6.5000    0.0000 O   0  0  0  0  0  0  0  0  0  0  0  0
    7.1962    5.0000    0.0000 O   0  0  0  0  0  0  0  0  0  0  0  0
   11.5263   -3.5000    0.0000 O   0  0  0  0  0  0  0  0  0  0  0  0
   11.5263   -5.5000    0.0000 O   0  0  0  0  0  0  0  0  0  0  0  0
    9.7942   -5.5000    0.0000 O   0  0  0  0  0  0  0  0  0  0  0  0
   13.2583    0.5000    0.0000 O   0  0  0  0  0  0  0  0  0  0  0  0
   12.3923   -4.0000    0.0000 O   0  0  0  0  0  0  0  0  0  0  0  0
   14.1244   -1.0000    0.0000 O   0  0  0  0  0  0  0  0  0  0  0  0
   14.9904   -6.5000    0.0000 O   0  0  0  0  0  0  0  0  0  0  0  0
   15.8564   -5.0000    0.0000 O   0  0  0  0  0  0  0  0  0  0  0  0
    6.3301   -0.5000    0.0000 N   0  0  0  0  0  0  0  0  0  0  0  0
    5.4641    2.0000    0.0000 N   0  0  0  0  0  0  0  0  0  0  0  0
    8.0622   -2.5000    0.0000 N   0  0  0  0  0  0  0  0  0  0  0  0
    5.4641    4.0000    0.0000 N   0  0  0  0  0  0  0  0  0  0  0  0
   10.6603   -2.0000    0.0000 N   0  0  0  0  0  0  0  0  0  0  0  0
   13.2583   -2.5000    0.0000 N   0  0  0  0  0  0  0  0  0  0  0  0
    7.1962    1.0000    0.0000 C   0  0  0  0  0  0  0  0  0  0  0  0
    6.3301    0.5000    0.0000 C   0  0  1  0  0  0  0  0  0  0  0  0
    8.0622    1.5000    0.0000 C   0  0  0  0  0  0  0  0  0  0  0  0
    6.6962    1.8660    0.0000 C   0  0  0  0  0  0  0  0  0  0  0  0
    7.6962    0.1340    0.0000 C   0  0  0  0  0  0  0  0  0  0  0  0
    5.4641    1.0000    0.0000 C   0  0  0  0  0  0  0  0  0  0  0  0
    4.5981    2.5000    0.0000 C   0  0  1  0  0  0  0  0  0  0  0  0
    3.7320    2.0000    0.0000 C   0  0  0  0  0  0  0  0  0  0  0  0
    7.1962   -2.0000    0.0000 C   0  0  2  0  0  0  0  0  0  0  0  0
    2.8660    2.5000    0.0000 C   0  0  0  0  0  0  0  0  0  0  0  0
    7.1962   -1.0000    0.0000 C   0  0  0  0  0  0  0  0  0  0  0  0
    6.3301   -2.5000    0.0000 C   0  0  0  0  0  0  0  0  0  0  0  0
    4.5981    3.5000    0.0000 C   0  0  0  0  0  0  0  0  0  0  0  0
    2.0000    2.0000    0.0000 C   0  0  0  0  0  0  0  0  0  0  0  0
    2.8660    3.5000    0.0000 C   0  0  0  0  0  0  0  0  0  0  0  0
    6.3301   -3.5000    0.0000 C   0  0  0  0  0  0  0  0  0  0  0  0
    9.7942   -2.5000    0.0000 C   0  0  2  0  0  0  0  0  0  0  0  0
    8.9282   -2.0000    0.0000 C   0  0  0  0  0  0  0  0  0  0  0  0
    5.4641    5.0000    0.0000 C   0  0  3  0  0  0  0  0  0  0  0  0
    9.7942   -3.5000    0.0000 C   0  0  0  0  0  0  0  0  0  0  0  0
    5.4641   -4.0000    0.0000 C   0  0  0  0  0  0  0  0  0  0  0  0
    4.5981    5.5000    0.0000 C   0  0  0  0  0  0  0  0  0  0  0  0
    7.1962   -4.0000    0.0000 C   0  0  0  0  0  0  0  0  0  0  0  0
   10.6603   -4.0000    0.0000 C   0  0  0  0  0  0  0  0  0  0  0  0
    5.4641   -5.0000    0.0000 C   0  0  0  0  0  0  0  0  0  0  0  0
   11.5263   -2.5000    0.0000 C   0  0  0  0  0  0  0  0  0  0  0  0
    4.5981   -3.5000    0.0000 C   0  0  0  0  0  0  0  0  0  0  0  0
   12.3923   -2.0000    0.0000 C   0  0  2  0  0  0  0  0  0  0  0  0
    7.1962   -5.0000    0.0000 C   0  0  0  0  0  0  0  0  0  0  0  0
    4.5981    6.5000    0.0000 C   0  0  0  0  0  0  0  0  0  0  0  0
    6.3301   -5.5000    0.0000 C   0  0  0  0  0  0  0  0  0  0  0  0
   12.3923   -1.0000    0.0000 C   0  0  0  0  0  0  0  0  0  0  0  0
   10.6603   -5.0000    0.0000 C   0  0  0  0  0  0  0  0  0  0  0  0
   13.2583   -3.5000    0.0000 C   0  0  0  0  0  0  0  0  0  0  0  0
   13.2583   -0.5000    0.0000 C   0  0  0  0  0  0  0  0  0  0  0  0
   14.1244   -4.0000    0.0000 C   0  0  0  0  0  0  0  0  0  0  0  0
   14.1244   -5.0000    0.0000 C   0  0  0  0  0  0  0  0  0  0  0  0
   14.9904   -5.5000    0.0000 C   0  0  0  0  0  0  0  0  0  0  0  0
    6.3301    5.5000    0.0000 B   0  0  0  0  0  0  0  0  0  0  0  0
    6.8671    0.1900    0.0000 H   0  0  0  0  0  0  0  0  0  0  0  0
    8.3722    0.9631    0.0000 H   0  0  0  0  0  0  0  0  0  0  0  0
    8.5991    1.8100    0.0000 H   0  0  0  0  0  0  0  0  0  0  0  0
    7.7522    2.0369    0.0000 H   0  0  0  0  0  0  0  0  0  0  0  0
    7.2331    2.1760    0.0000 H   0  0  0  0  0  0  0  0  0  0  0  0
    6.3862    2.4030    0.0000 H   0  0  0  0  0  0  0  0  0  0  0  0
    6.1592    1.5560    0.0000 H   0  0  0  0  0  0  0  0  0  0  0  0
    7.1592   -0.1760    0.0000 H   0  0  0  0  0  0  0  0  0  0  0  0
    8.0062   -0.4030    0.0000 H   0  0  0  0  0  0  0  0  0  0  0  0
    8.2331    0.4440    0.0000 H   0  0  0  0  0  0  0  0  0  0  0  0
    5.7932   -0.8100    0.0000 H   0  0  0  0  0  0  0  0  0  0  0  0
    4.5981    1.8800    0.0000 H   0  0  0  0  0  0  0  0  0  0  0  0
    3.3335    1.5250    0.0000 H   0  0  0  0  0  0  0  0  0  0  0  0
    4.1306    1.5250    0.0000 H   0  0  0  0  0  0  0  0  0  0  0  0
    6.0010    2.3100    0.0000 H   0  0  0  0  0  0  0  0  0  0  0  0
    7.7331   -1.6900    0.0000 H   0  0  0  0  0  0  0  0  0  0  0  0
    2.8660    1.8800    0.0000 H   0  0  0  0  0  0  0  0  0  0  0  0
    6.1181   -1.9174    0.0000 H   0  0  0  0  0  0  0  0  0  0  0  0
    5.7196   -2.6077    0.0000 H   0  0  0  0  0  0  0  0  0  0  0  0
    8.0622   -3.1200    0.0000 H   0  0  0  0  0  0  0  0  0  0  0  0
    1.6900    2.5369    0.0000 H   0  0  0  0  0  0  0  0  0  0  0  0
    1.4631    1.6900    0.0000 H   0  0  0  0  0  0  0  0  0  0  0  0
    2.3100    1.4631    0.0000 H   0  0  0  0  0  0  0  0  0  0  0  0
    3.4860    3.5000    0.0000 H   0  0  0  0  0  0  0  0  0  0  0  0
    2.8660    4.1200    0.0000 H   0  0  0  0  0  0  0  0  0  0  0  0
    2.2460    3.5000    0.0000 H   0  0  0  0  0  0  0  0  0  0  0  0
    6.0010    3.6900    0.0000 H   0  0  0  0  0  0  0  0  0  0  0  0
    9.7942   -1.8800    0.0000 H   0  0  0  0  0  0  0  0  0  0  0  0
    4.9272    4.6900    0.0000 H   0  0  0  0  0  0  0  0  0  0  0  0
    9.1836   -3.3923    0.0000 H   0  0  0  0  0  0  0  0  0  0  0  0
    9.5822   -4.0826    0.0000 H   0  0  0  0  0  0  0  0  0  0  0  0
    3.9875    5.6077    0.0000 H   0  0  0  0  0  0  0  0  0  0  0  0
    4.3860    4.9174    0.0000 H   0  0  0  0  0  0  0  0  0  0  0  0
    7.7331   -3.6900    0.0000 H   0  0  0  0  0  0  0  0  0  0  0  0
   10.6603   -1.3800    0.0000 H   0  0  0  0  0  0  0  0  0  0  0  0
   11.2708   -4.1077    0.0000 H   0  0  0  0  0  0  0  0  0  0  0  0
   10.8723   -3.4174    0.0000 H   0  0  0  0  0  0  0  0  0  0  0  0
    4.9272   -5.3100    0.0000 H   0  0  0  0  0  0  0  0  0  0  0  0
    4.9081   -2.9631    0.0000 H   0  0  0  0  0  0  0  0  0  0  0  0
    4.0611   -3.1900    0.0000 H   0  0  0  0  0  0  0  0  0  0  0  0
    4.2881   -4.0369    0.0000 H   0  0  0  0  0  0  0  0  0  0  0  0
   12.3923   -2.6200    0.0000 H   0  0  0  0  0  0  0  0  0  0  0  0
    7.7331   -5.3100    0.0000 H   0  0  0  0  0  0  0  0  0  0  0  0
    5.2181    6.5000    0.0000 H   0  0  0  0  0  0  0  0  0  0  0  0
    4.5981    7.1200    0.0000 H   0  0  0  0  0  0  0  0  0  0  0  0
    3.9781    6.5000    0.0000 H   0  0  0  0  0  0  0  0  0  0  0  0
    6.3301   -6.1200    0.0000 H   0  0  0  0  0  0  0  0  0  0  0  0
   12.1803   -0.4174    0.0000 H   0  0  0  0  0  0  0  0  0  0  0  0
   11.7817   -1.1077    0.0000 H   0  0  0  0  0  0  0  0  0  0  0  0
   13.7953   -2.1900    0.0000 H   0  0  0  0  0  0  0  0  0  0  0  0
    6.8671    6.8100    0.0000 H   0  0  0  0  0  0  0  0  0  0  0  0
    7.7331    5.3100    0.0000 H   0  0  0  0  0  0  0  0  0  0  0  0
   14.7349   -4.1077    0.0000 H   0  0  0  0  0  0  0  0  0  0  0  0
   14.3364   -3.4174    0.0000 H   0  0  0  0  0  0  0  0  0  0  0  0
   11.5263   -6.1200    0.0000 H   0  0  0  0  0  0  0  0  0  0  0  0
   13.5138   -4.8923    0.0000 H   0  0  0  0  0  0  0  0  0  0  0  0
   13.9123   -5.5826    0.0000 H   0  0  0  0  0  0  0  0  0  0  0  0
   13.7953    0.8100    0.0000 H   0  0  0  0  0  0  0  0  0  0  0  0
   15.5273   -6.8100    0.0000 H   0  0  0  0  0  0  0  0  0  0  0  0
  1 26  2  0  0  0  0
  2 31  2  0  0  0  0
  3 33  2  0  0  0  0
  4 38  2  0  0  0  0
  5 59  1  0  0  0  0
  5110  1  0  0  0  0
  6 59  1  0  0  0  0
  6111  1  0  0  0  0
  7 46  2  0  0  0  0
  8 53  1  0  0  0  0
  8114  1  0  0  0  0
  9 53  2  0  0  0  0
 10 55  1  0  0  0  0
 10117  1  0  0  0  0
 11 54  2  0  0  0  0
 12 55  2  0  0  0  0
 13 58  1  0  0  0  0
 13118  1  0  0  0  0
 14 58  2  0  0  0  0
 22 15  1  6  0  0  0
 15 31  1  0  0  0  0
 15 70  1  0  0  0  0
 16 26  1  0  0  0  0
 27 16  1  1  0  0  0
 16 74  1  0  0  0  0
 29 17  1  1  0  0  0
 17 38  1  0  0  0  0
 17 79  1  0  0  0  0
 18 33  1  0  0  0  0
 18 39  1  0  0  0  0
 18 86  1  0  0  0  0
 37 19  1  1  0  0  0
 19 46  1  0  0  0  0
 19 94  1  0  0  0  0
 48 20  1  6  0  0  0
 20 54  1  0  0  0  0
 20109  1  0  0  0  0
 21 22  1  0  0  0  0
 21 23  1  0  0  0  0
 21 24  1  0  0  0  0
 21 25  1  0  0  0  0
 22 26  1  0  0  0  0
 22 60  1  0  0  0  0
 23 61  1  0  0  0  0
 23 62  1  0  0  0  0
 23 63  1  0  0  0  0
 24 64  1  0  0  0  0
 24 65  1  0  0  0  0
 24 66  1  0  0  0  0
 25 67  1  0  0  0  0
 25 68  1  0  0  0  0
 25 69  1  0  0  0  0
 27 28  1  0  0  0  0
 27 33  1  0  0  0  0
 27 71  1  0  0  0  0
 28 30  1  0  0  0  0
 28 72  1  0  0  0  0
 28 73  1  0  0  0  0
 29 31  1  0  0  0  0
 29 32  1  0  0  0  0
 29 75  1  0  0  0  0
 30 34  1  0  0  0  0
 30 35  1  0  0  0  0
 30 76  1  0  0  0  0
 32 36  1  0  0  0  0
 32 77  1  0  0  0  0
 32 78  1  0  0  0  0
 34 80  1  0  0  0  0
 34 81  1  0  0  0  0
 34 82  1  0  0  0  0
 35 83  1  0  0  0  0
 35 84  1  0  0  0  0
 35 85  1  0  0  0  0
 36 41  1  0  0  0  0
 36 43  2  0  0  0  0
 37 38  1  0  0  0  0
 37 40  1  0  0  0  0
 37 87  1  0  0  0  0
 39 42  1  0  0  0  0
 39 59  1  0  0  0  0
 39 88  1  0  0  0  0
 40 44  1  0  0  0  0
 40 89  1  0  0  0  0
 40 90  1  0  0  0  0
 41 45  2  0  0  0  0
 41 47  1  0  0  0  0
 42 50  1  0  0  0  0
 42 91  1  0  0  0  0
 42 92  1  0  0  0  0
 43 49  1  0  0  0  0
 43 93  1  0  0  0  0
 44 53  1  0  0  0  0
 44 95  1  0  0  0  0
 44 96  1  0  0  0  0
 45 51  1  0  0  0  0
 45 97  1  0  0  0  0
 46 48  1  0  0  0  0
 47 98  1  0  0  0  0
 47 99  1  0  0  0  0
 47100  1  0  0  0  0
 48 52  1  0  0  0  0
 48101  1  0  0  0  0
 49 51  2  0  0  0  0
 49102  1  0  0  0  0
 50103  1  0  0  0  0
 50104  1  0  0  0  0
 50105  1  0  0  0  0
 51106  1  0  0  0  0
 52 55  1  0  0  0  0
 52107  1  0  0  0  0
 52108  1  0  0  0  0
 54 56  1  0  0  0  0
 56 57  1  0  0  0  0
 56112  1  0  0  0  0
 56113  1  0  0  0  0
 57 58  1  0  0  0  0
 57115  1  0  0  0  0
 57116  1  0  0  0  0
M  END
> <PUBCHEM_COMPOUND_CID>
500568
> <PUBCHEM_COMPOUND_CANONICALIZED>
1
> <PUBCHEM_CACTVS_COMPLEXITY>
1490
> <PUBCHEM_CACTVS_HBOND_ACCEPTOR>
14
> <PUBCHEM_CACTVS_HBOND_DONOR>
11
> <PUBCHEM_CACTVS_ROTATABLE_BOND>
26
> <PUBCHEM_CACTVS_SUBSKEYS>
AAADcfJ/vAAAAAAAAAAAAAAAAAAAAAAAAAAwAAAAAAAAAAABAAAoHgAQCAAADyjBmAQyCILAAgCIAiHSGAACAAAgAAAIiIGIAIgIYDqAkTGUYAAmlgCIiAe/n4KPgAAAAAAQAAAAAAAAACAAAAAAAAAAAA==
> <PUBCHEM_IUPAC_OPENEYE_NAME>
(4S)-5-[[(1S)-2-[[(1S)-1-[[(1S)-1-(1-boronopropylcarbamoyl)-3-methyl-butyl]carbamoyl]-2,2-dimethyl-propyl]amino]-1-(o-tolylmethyl)-2-oxo-ethyl]amino]-4-[[(2S)-3-carboxy-2-(3-carboxypropanoylamino)propanoyl]amino]-5-oxo-pentanoic acid
> <PUBCHEM_IUPAC_CAS_NAME>
(4S)-5-[[(2S)-1-[[(2S)-1-[[(2S)-1-(1-boronopropylamino)-4-methyl-1-oxopentan-2-yl]amino]-3,3-dimethyl-1-oxobutan-2-yl]amino]-3-(2-methylphenyl)-1-oxopropan-2-yl]amino]-4-[[(2S)-3-carboxy-2-[(3-carboxy-1-oxopropyl)amino]-1-oxopropyl]amino]-5-oxopentanoic acid
> <PUBCHEM_IUPAC_NAME_MARKUP>
(4<I>S</I>)-5-[[(2<I>S</I>)-1-[[(2<I>S</I>)-1-[[(2<I>S</I>)-1-(1-boronopropylamino)-4-methyl-1-oxopentan-2-yl]amino]-3,3-dimethyl-1-oxobutan-2-yl]amino]-3-(2-methylphenyl)-1-oxopropan-2-yl]amino]-4-[[(2<I>S</I>)-3-carboxy-2-(3-carboxypropanoylamino)propanoyl]amino]-5-oxopentanoic acid
> <PUBCHEM_IUPAC_NAME>
(4S)-5-[[(2S)-1-[[(2S)-1-[[(2S)-1-(1-boronopropylamino)-4-methyl-1-oxopentan-2-yl]amino]-3,3-dimethyl-1-oxobutan-2-yl]amino]-3-(2-methylphenyl)-1-oxopropan-2-yl]amino]-4-[[(2S)-3-carboxy-2-(3-carboxypropanoylamino)propanoyl]amino]-5-oxopentanoic acid
> <PUBCHEM_IUPAC_SYSTEMATIC_NAME>
(4S)-5-[[(2S)-1-[[(2S)-1-[[(2S)-1-[1-(dihydroxyboranyl)propylamino]-4-methyl-1-oxidanylidene-pentan-2-yl]amino]-3,3-dimethyl-1-oxidanylidene-butan-2-yl]amino]-3-(2-methylphenyl)-1-oxidanylidene-propan-2-yl]amino]-5-oxidanylidene-4-[[(2S)-4-oxidanyl-4-oxidanylidene-2-[(4-oxidanyl-4-oxidanylidene-butanoyl)amino]butanoyl]amino]pentanoic acid
> <PUBCHEM_IUPAC_TRADITIONAL_NAME>
(4S)-5-[[(1S)-2-[[(1S)-1-[[(1S)-1-(1-boronopropylcarbamoyl)-3-methyl-butyl]carbamoyl]-2,2-dimethyl-propyl]amino]-2-keto-1-(2-methylbenzyl)ethyl]amino]-4-[[(2S)-3-carboxy-2-(3-carboxypropanoylamino)propanoyl]amino]-5-keto-valeric acid
> <PUBCHEM_IUPAC_INCHI>
InChI=1S/C38H59BN6O14/c1-8-27(39(58)59)44-35(55)24(17-20(2)3)43-37(57)32(38(5,6)7)45-36(56)25(18-22-12-10-9-11-21(22)4)42-33(53)23(13-15-29(47)48)41-34(54)26(19-31(51)52)40-28(46)14-16-30(49)50/h9-12,20,23-27,32,58-59H,8,13-19H2,1-7H3,(H,40,46)(H,41,54)(H,42,53)(H,43,57)(H,44,55)(H,45,56)(H,47,48)(H,49,50)(H,51,52)/t23-,24-,25-,26-,27?,32+/m0/s1
> <PUBCHEM_IUPAC_INCHIKEY>
PQCMWXMZNUANNC-GCHLHXSTSA-N
> <PUBCHEM_EXACT_MASS>
834.4182307
> <PUBCHEM_MOLECULAR_FORMULA>
C38H59BN6O14
> <PUBCHEM_MOLECULAR_WEIGHT>
834.7
> <PUBCHEM_OPENEYE_CAN_SMILES>
B(C(CC)NC(=O)C(CC(C)C)NC(=O)C(C(C)(C)C)NC(=O)C(CC1=CC=CC=C1C)NC(=O)C(CCC(=O)O)NC(=O)C(CC(=O)O)NC(=O)CCC(=O)O)(O)O
> <PUBCHEM_OPENEYE_ISO_SMILES>
B(C(CC)NC(=O)[C@H](CC(C)C)NC(=O)[C@H](C(C)(C)C)NC(=O)[C@H](CC1=CC=CC=C1C)NC(=O)[C@H](CCC(=O)O)NC(=O)[C@H](CC(=O)O)NC(=O)CCC(=O)O)(O)O
> <PUBCHEM_CACTVS_TPSA>
327
> <PUBCHEM_MONOISOTOPIC_WEIGHT>
834.4182307
> <PUBCHEM_TOTAL_CHARGE>
0
> <PUBCHEM_HEAVY_ATOM_COUNT>
59
> <PUBCHEM_ATOM_DEF_STEREO_COUNT>
5
> <PUBCHEM_ATOM_UDEF_STEREO_COUNT>
1
> <PUBCHEM_BOND_DEF_STEREO_COUNT>
0
> <PUBCHEM_BOND_UDEF_STEREO_COUNT>
0
> <PUBCHEM_ISOTOPIC_ATOM_COUNT>
0
> <PUBCHEM_COMPONENT_COUNT>
1
> <PUBCHEM_CACTVS_TAUTO_COUNT>
-1
> <PUBCHEM_COORDINATE_TYPE>
1
5
255
> <PUBCHEM_BONDANNOTATIONS>
22  15  6
27  16  5
29  17  5
37  19  5
48  20  6
36  41  8
36  43  8
39  42  3
41  45  8
43  49  8
45  51  8
49  51  8
$$$$
