500592
  -OEChem-10302200282D
130132  0     1  0  0  0  0  0999 V2000
    4.3763    3.1332    0.0000 O   0  0  0  0  0  0  0  0  0  0  0  0
    7.4321    0.0860    0.0000 O   0  0  0  0  0  0  0  0  0  0  0  0
    6.3301   -0.7146    0.0000 O   0  0  0  0  0  0  0  0  0  0  0  0
    9.4536    3.0715    0.0000 O   0  0  0  0  0  0  0  0  0  0  0  0
   11.1478    3.4316    0.0000 O   0  0  0  0  0  0  0  0  0  0  0  0
   12.5147    1.1663    0.0000 O   0  0  0  0  0  0  0  0  0  0  0  0
    2.8660   -1.7146    0.0000 O   0  0  0  0  0  0  0  0  0  0  0  0
   14.5362    4.1519    0.0000 O   0  0  0  0  0  0  0  0  0  0  0  0
   14.1204    6.1082    0.0000 O   0  0  0  0  0  0  0  0  0  0  0  0
   12.4262    5.7481    0.0000 O   0  0  0  0  0  0  0  0  0  0  0  0
   17.0621    0.5994    0.0000 O   0  0  0  0  0  0  0  0  0  0  0  0
   17.5973    2.2467    0.0000 O   0  0  0  0  0  0  0  0  0  0  0  0
   15.2794    4.8210    0.0000 O   0  0  0  0  0  0  0  0  0  0  0  0
    6.2731    1.3732    0.0000 N   0  0  0  0  0  0  0  0  0  0  0  0
    8.9184    1.4243    0.0000 N   0  0  0  0  0  0  0  0  0  0  0  0
    4.5981   -0.7146    0.0000 N   0  0  0  0  0  0  0  0  0  0  0  0
    4.5981   -1.7146    0.0000 N   0  0  0  0  0  0  0  0  0  0  0  0
   11.3557    2.4535    0.0000 N   0  0  0  0  0  0  0  0  0  0  0  0
   14.0010    2.5046    0.0000 N   0  0  0  0  0  0  0  0  0  0  0  0
    3.7320   -3.2146    0.0000 N   0  0  0  0  0  0  0  0  0  0  0  0
   16.4383    3.5338    0.0000 N   0  0  0  0  0  0  0  0  0  0  0  0
    5.4641    0.7854    0.0000 C   0  0  1  0  0  0  0  0  0  0  0  0
    4.9641    2.3242    0.0000 C   0  0  2  0  0  0  0  0  0  0  0  0
    4.6551    1.3732    0.0000 C   0  0  0  0  0  0  0  0  0  0  0  0
    5.9641    2.3242    0.0000 C   0  0  0  0  0  0  0  0  0  0  0  0
    7.2242    1.0641    0.0000 C   0  0  0  0  0  0  0  0  0  0  0  0
    7.9673    1.7333    0.0000 C   0  0  2  0  0  0  0  0  0  0  0  0
    5.4641   -0.2146    0.0000 C   0  0  0  0  0  0  0  0  0  0  0  0
    7.7594    2.7114    0.0000 C   0  0  0  0  0  0  0  0  0  0  0  0
   10.6126    1.7844    0.0000 C   0  0  2  0  0  0  0  0  0  0  0  0
    4.7830    4.0468    0.0000 C   0  0  0  0  0  0  0  0  0  0  0  0
    8.5026    3.3806    0.0000 C   0  0  0  0  0  0  0  0  0  0  0  0
    6.8084    3.0204    0.0000 C   0  0  0  0  0  0  0  0  0  0  0  0
    9.6615    2.0934    0.0000 C   0  0  0  0  0  0  0  0  0  0  0  0
   10.8205    0.8062    0.0000 C   0  0  2  0  0  0  0  0  0  0  0  0
   11.7715    0.4972    0.0000 C   0  0  0  0  0  0  0  0  0  0  0  0
    4.1953    4.8558    0.0000 C   0  0  0  0  0  0  0  0  0  0  0  0
   10.0773    0.1371    0.0000 C   0  0  0  0  0  0  0  0  0  0  0  0
    5.4641   -2.2146    0.0000 C   0  0  0  0  0  0  0  0  0  0  0  0
   12.3068    2.1445    0.0000 C   0  0  0  0  0  0  0  0  0  0  0  0
   11.9795   -0.4809    0.0000 C   0  0  0  0  0  0  0  0  0  0  0  0
   13.0499    2.8136    0.0000 C   0  0  1  0  0  0  0  0  0  0  0  0
    3.7320   -2.2146    0.0000 C   0  0  0  0  0  0  0  0  0  0  0  0
    4.6020    5.7693    0.0000 C   0  0  0  0  0  0  0  0  0  0  0  0
    3.2008    4.7513    0.0000 C   0  0  0  0  0  0  0  0  0  0  0  0
    6.3301   -1.7146    0.0000 C   0  0  0  0  0  0  0  0  0  0  0  0
   12.8420    3.7918    0.0000 C   0  0  0  0  0  0  0  0  0  0  0  0
    4.0142    6.5784    0.0000 C   0  0  0  0  0  0  0  0  0  0  0  0
    2.6130    5.5603    0.0000 C   0  0  0  0  0  0  0  0  0  0  0  0
    7.1962   -2.2146    0.0000 C   0  0  0  0  0  0  0  0  0  0  0  0
   13.5852    4.4609    0.0000 C   0  0  0  0  0  0  0  0  0  0  0  0
    3.0197    6.4738    0.0000 C   0  0  0  0  0  0  0  0  0  0  0  0
   14.7441    3.1737    0.0000 C   0  0  0  0  0  0  0  0  0  0  0  0
    2.8660   -3.7146    0.0000 C   0  0  0  0  0  0  0  0  0  0  0  0
   15.6952    2.8647    0.0000 C   0  0  2  0  0  0  0  0  0  0  0  0
   13.3772    5.4390    0.0000 C   0  0  0  0  0  0  0  0  0  0  0  0
    2.8660   -4.7146    0.0000 C   0  0  0  0  0  0  0  0  0  0  0  0
   15.9031    1.8866    0.0000 C   0  0  0  0  0  0  0  0  0  0  0  0
    3.7320   -5.2146    0.0000 C   0  0  0  0  0  0  0  0  0  0  0  0
    2.0000   -5.2146    0.0000 C   0  0  0  0  0  0  0  0  0  0  0  0
   16.8542    1.5776    0.0000 C   0  0  0  0  0  0  0  0  0  0  0  0
   16.2304    4.5120    0.0000 C   0  0  0  0  0  0  0  0  0  0  0  0
    3.7320   -6.2146    0.0000 C   0  0  0  0  0  0  0  0  0  0  0  0
    2.0000   -6.2146    0.0000 C   0  0  0  0  0  0  0  0  0  0  0  0
    2.8660   -6.7146    0.0000 C   0  0  0  0  0  0  0  0  0  0  0  0
   16.9736    5.1811    0.0000 C   0  0  0  0  0  0  0  0  0  0  0  0
    6.0165    0.5039    0.0000 H   0  0  0  0  0  0  0  0  0  0  0  0
    5.2456    2.8766    0.0000 H   0  0  0  0  0  0  0  0  0  0  0  0
    4.0887    1.6253    0.0000 H   0  0  0  0  0  0  0  0  0  0  0  0
    4.3451    0.8362    0.0000 H   0  0  0  0  0  0  0  0  0  0  0  0
    6.5706    2.4531    0.0000 H   0  0  0  0  0  0  0  0  0  0  0  0
    5.8993    2.9408    0.0000 H   0  0  0  0  0  0  0  0  0  0  0  0
    8.0962    1.1268    0.0000 H   0  0  0  0  0  0  0  0  0  0  0  0
    8.3491    2.5198    0.0000 H   0  0  0  0  0  0  0  0  0  0  0  0
    9.0473    0.8178    0.0000 H   0  0  0  0  0  0  0  0  0  0  0  0
   10.4837    2.3908    0.0000 H   0  0  0  0  0  0  0  0  0  0  0  0
    5.2971    3.7001    0.0000 H   0  0  0  0  0  0  0  0  0  0  0  0
    5.2137    4.4928    0.0000 H   0  0  0  0  0  0  0  0  0  0  0  0
    8.9174    2.9198    0.0000 H   0  0  0  0  0  0  0  0  0  0  0  0
    8.9633    3.7954    0.0000 H   0  0  0  0  0  0  0  0  0  0  0  0
    8.0877    3.8413    0.0000 H   0  0  0  0  0  0  0  0  0  0  0  0
    6.9999    3.6101    0.0000 H   0  0  0  0  0  0  0  0  0  0  0  0
    6.2187    3.2120    0.0000 H   0  0  0  0  0  0  0  0  0  0  0  0
    6.6168    2.4308    0.0000 H   0  0  0  0  0  0  0  0  0  0  0  0
    4.0611   -0.4046    0.0000 H   0  0  0  0  0  0  0  0  0  0  0  0
   10.9494    0.1998    0.0000 H   0  0  0  0  0  0  0  0  0  0  0  0
   12.3912    0.5188    0.0000 H   0  0  0  0  0  0  0  0  0  0  0  0
   11.8578    1.1112    0.0000 H   0  0  0  0  0  0  0  0  0  0  0  0
    9.6625    0.5978    0.0000 H   0  0  0  0  0  0  0  0  0  0  0  0
    9.6166   -0.2778    0.0000 H   0  0  0  0  0  0  0  0  0  0  0  0
   10.4922   -0.3237    0.0000 H   0  0  0  0  0  0  0  0  0  0  0  0
    5.0656   -2.6896    0.0000 H   0  0  0  0  0  0  0  0  0  0  0  0
    5.8626   -2.6896    0.0000 H   0  0  0  0  0  0  0  0  0  0  0  0
   11.3730   -0.6098    0.0000 H   0  0  0  0  0  0  0  0  0  0  0  0
   12.1084   -1.0874    0.0000 H   0  0  0  0  0  0  0  0  0  0  0  0
   12.5859   -0.3520    0.0000 H   0  0  0  0  0  0  0  0  0  0  0  0
   13.1788    2.2072    0.0000 H   0  0  0  0  0  0  0  0  0  0  0  0
    5.2186    5.8342    0.0000 H   0  0  0  0  0  0  0  0  0  0  0  0
    2.9486    4.1849    0.0000 H   0  0  0  0  0  0  0  0  0  0  0  0
    6.7287   -1.2397    0.0000 H   0  0  0  0  0  0  0  0  0  0  0  0
    5.9316   -1.2397    0.0000 H   0  0  0  0  0  0  0  0  0  0  0  0
   12.5135    4.3176    0.0000 H   0  0  0  0  0  0  0  0  0  0  0  0
   12.2672    3.5595    0.0000 H   0  0  0  0  0  0  0  0  0  0  0  0
   11.6086    3.8465    0.0000 H   0  0  0  0  0  0  0  0  0  0  0  0
   14.1299    1.8982    0.0000 H   0  0  0  0  0  0  0  0  0  0  0  0
    4.2664    7.1448    0.0000 H   0  0  0  0  0  0  0  0  0  0  0  0
    1.9964    5.4955    0.0000 H   0  0  0  0  0  0  0  0  0  0  0  0
    4.2690   -3.5246    0.0000 H   0  0  0  0  0  0  0  0  0  0  0  0
    6.8862   -2.7516    0.0000 H   0  0  0  0  0  0  0  0  0  0  0  0
    7.7331   -2.5246    0.0000 H   0  0  0  0  0  0  0  0  0  0  0  0
    7.5062   -1.6777    0.0000 H   0  0  0  0  0  0  0  0  0  0  0  0
   13.9137    3.9351    0.0000 H   0  0  0  0  0  0  0  0  0  0  0  0
   14.1600    4.6932    0.0000 H   0  0  0  0  0  0  0  0  0  0  0  0
    2.6553    6.9754    0.0000 H   0  0  0  0  0  0  0  0  0  0  0  0
    2.6540   -3.1320    0.0000 H   0  0  0  0  0  0  0  0  0  0  0  0
    2.2554   -3.8223    0.0000 H   0  0  0  0  0  0  0  0  0  0  0  0
   16.2848    2.6731    0.0000 H   0  0  0  0  0  0  0  0  0  0  0  0
   15.2835    1.8649    0.0000 H   0  0  0  0  0  0  0  0  0  0  0  0
   15.8168    1.2726    0.0000 H   0  0  0  0  0  0  0  0  0  0  0  0
   17.0280    3.3422    0.0000 H   0  0  0  0  0  0  0  0  0  0  0  0
    4.2690   -4.9046    0.0000 H   0  0  0  0  0  0  0  0  0  0  0  0
    1.4631   -4.9046    0.0000 H   0  0  0  0  0  0  0  0  0  0  0  0
   13.9915    6.7146    0.0000 H   0  0  0  0  0  0  0  0  0  0  0  0
    4.2690   -6.5246    0.0000 H   0  0  0  0  0  0  0  0  0  0  0  0
    1.4631   -6.5246    0.0000 H   0  0  0  0  0  0  0  0  0  0  0  0
    2.8660   -7.3346    0.0000 H   0  0  0  0  0  0  0  0  0  0  0  0
   17.3884    4.7204    0.0000 H   0  0  0  0  0  0  0  0  0  0  0  0
   17.4343    5.5960    0.0000 H   0  0  0  0  0  0  0  0  0  0  0  0
   16.5587    5.6419    0.0000 H   0  0  0  0  0  0  0  0  0  0  0  0
   17.6517    0.4078    0.0000 H   0  0  0  0  0  0  0  0  0  0  0  0
 23  1  1  1  0  0  0
  1 31  1  0  0  0  0
  2 26  2  0  0  0  0
  3 28  2  0  0  0  0
  4 34  2  0  0  0  0
  5 18  1  0  0  0  0
  5104  1  0  0  0  0
  6 40  2  0  0  0  0
  7 43  2  0  0  0  0
  8 53  2  0  0  0  0
  9 56  1  0  0  0  0
  9123  1  0  0  0  0
 10 56  2  0  0  0  0
 11 61  1  0  0  0  0
 11130  1  0  0  0  0
 12 61  2  0  0  0  0
 13 62  2  0  0  0  0
 14 22  1  0  0  0  0
 14 25  1  0  0  0  0
 14 26  1  0  0  0  0
 27 15  1  6  0  0  0
 15 34  1  0  0  0  0
 15 75  1  0  0  0  0
 16 17  1  0  0  0  0
 16 28  1  0  0  0  0
 16 85  1  0  0  0  0
 17 39  1  0  0  0  0
 17 43  1  0  0  0  0
 30 18  1  1  0  0  0
 18 40  1  0  0  0  0
 42 19  1  1  0  0  0
 19 53  1  0  0  0  0
 19105  1  0  0  0  0
 20 43  1  0  0  0  0
 20 54  1  0  0  0  0
 20108  1  0  0  0  0
 55 21  1  1  0  0  0
 21 62  1  0  0  0  0
 21120  1  0  0  0  0
 22 24  1  0  0  0  0
 22 28  1  6  0  0  0
 22 67  1  0  0  0  0
 23 24  1  0  0  0  0
 23 25  1  0  0  0  0
 23 68  1  0  0  0  0
 24 69  1  0  0  0  0
 24 70  1  0  0  0  0
 25 71  1  0  0  0  0
 25 72  1  0  0  0  0
 26 27  1  0  0  0  0
 27 29  1  0  0  0  0
 27 73  1  0  0  0  0
 29 32  1  0  0  0  0
 29 33  1  0  0  0  0
 29 74  1  0  0  0  0
 30 34  1  0  0  0  0
 30 35  1  0  0  0  0
 30 76  1  0  0  0  0
 31 37  1  0  0  0  0
 31 77  1  0  0  0  0
 31 78  1  0  0  0  0
 32 79  1  0  0  0  0
 32 80  1  0  0  0  0
 32 81  1  0  0  0  0
 33 82  1  0  0  0  0
 33 83  1  0  0  0  0
 33 84  1  0  0  0  0
 35 36  1  0  0  0  0
 35 38  1  6  0  0  0
 35 86  1  0  0  0  0
 36 41  1  0  0  0  0
 36 87  1  0  0  0  0
 36 88  1  0  0  0  0
 37 44  2  0  0  0  0
 37 45  1  0  0  0  0
 38 89  1  0  0  0  0
 38 90  1  0  0  0  0
 38 91  1  0  0  0  0
 39 46  1  0  0  0  0
 39 92  1  0  0  0  0
 39 93  1  0  0  0  0
 40 42  1  0  0  0  0
 41 94  1  0  0  0  0
 41 95  1  0  0  0  0
 41 96  1  0  0  0  0
 42 47  1  0  0  0  0
 42 97  1  0  0  0  0
 44 48  1  0  0  0  0
 44 98  1  0  0  0  0
 45 49  2  0  0  0  0
 45 99  1  0  0  0  0
 46 50  1  0  0  0  0
 46100  1  0  0  0  0
 46101  1  0  0  0  0
 47 51  1  0  0  0  0
 47102  1  0  0  0  0
 47103  1  0  0  0  0
 48 52  2  0  0  0  0
 48106  1  0  0  0  0
 49 52  1  0  0  0  0
 49107  1  0  0  0  0
 50109  1  0  0  0  0
 50110  1  0  0  0  0
 50111  1  0  0  0  0
 51 56  1  0  0  0  0
 51112  1  0  0  0  0
 51113  1  0  0  0  0
 52114  1  0  0  0  0
 53 55  1  0  0  0  0
 54 57  1  0  0  0  0
 54115  1  0  0  0  0
 54116  1  0  0  0  0
 55 58  1  0  0  0  0
 55117  1  0  0  0  0
 57 59  2  0  0  0  0
 57 60  1  0  0  0  0
 58 61  1  0  0  0  0
 58118  1  0  0  0  0
 58119  1  0  0  0  0
 59 63  1  0  0  0  0
 59121  1  0  0  0  0
 60 64  2  0  0  0  0
 60122  1  0  0  0  0
 62 66  1  0  0  0  0
 63 65  2  0  0  0  0
 63124  1  0  0  0  0
 64 65  1  0  0  0  0
 64125  1  0  0  0  0
 65126  1  0  0  0  0
 66127  1  0  0  0  0
 66128  1  0  0  0  0
 66129  1  0  0  0  0
M  END
> <PUBCHEM_COMPOUND_CID>
500592
> <PUBCHEM_COMPOUND_CANONICALIZED>
1
> <PUBCHEM_CACTVS_COMPLEXITY>
1670
> <PUBCHEM_CACTVS_HBOND_ACCEPTOR>
13
> <PUBCHEM_CACTVS_HBOND_DONOR>
8
> <PUBCHEM_CACTVS_ROTATABLE_BOND>
24
> <PUBCHEM_CACTVS_SUBSKEYS>
AAADcfB//AAAAAAAAAAAAAAAAAAAAWAAAAAwYAAAAAAAAAABQAAAHgAcCAAADTzhmAYzCIPyBgCIAiHSGACCAAAgAAA+qIGIDIiKZjqAsTmXcAh+1gOYqAe/1yIOAAAAAAAAAAAAAAAAAAAAAAAAAAAAAA==
> <PUBCHEM_IUPAC_OPENEYE_NAME>
(4R)-4-[[(2S)-2-acetamido-3-carboxy-propanoyl]amino]-5-[[(1S,2S)-1-[[(1S)-1-[(2S,4R)-2-[[benzylcarbamoyl(propyl)amino]carbamoyl]-4-benzyloxy-pyrrolidine-1-carbonyl]-2-methyl-propyl]carbamoyl]-2-methyl-butyl]-hydroxy-amino]-5-oxo-pentanoic acid
> <PUBCHEM_IUPAC_CAS_NAME>
(4R)-4-[[(2S)-2-acetamido-3-carboxy-1-oxopropyl]amino]-5-[hydroxy-[(2S,3S)-3-methyl-1-[[(2S)-3-methyl-1-oxo-1-[(2S,4R)-2-[oxo-[2-[oxo-[(phenylmethyl)amino]methyl]-2-propylhydrazinyl]methyl]-4-phenylmethoxy-1-pyrrolidinyl]butan-2-yl]amino]-1-oxopentan-2-yl]amino]-5-oxopentanoic acid
> <PUBCHEM_IUPAC_NAME_MARKUP>
(4<I>R</I>)-4-[[(2<I>S</I>)-2-acetamido-3-carboxypropanoyl]amino]-5-[[(2<I>S</I>,3<I>S</I>)-1-[[(2<I>S</I>)-1-[(2<I>S</I>,4<I>R</I>)-2-[[benzylcarbamoyl(propyl)amino]carbamoyl]-4-phenylmethoxypyrrolidin-1-yl]-3-methyl-1-oxobutan-2-yl]amino]-3-methyl-1-oxopentan-2-yl]-hydroxyamino]-5-oxopentanoic acid
> <PUBCHEM_IUPAC_NAME>
(4R)-4-[[(2S)-2-acetamido-3-carboxypropanoyl]amino]-5-[[(2S,3S)-1-[[(2S)-1-[(2S,4R)-2-[[benzylcarbamoyl(propyl)amino]carbamoyl]-4-phenylmethoxypyrrolidin-1-yl]-3-methyl-1-oxobutan-2-yl]amino]-3-methyl-1-oxopentan-2-yl]-hydroxyamino]-5-oxopentanoic acid
> <PUBCHEM_IUPAC_SYSTEMATIC_NAME>
(4R)-4-[[(2S)-2-acetamido-4-oxidanyl-4-oxidanylidene-butanoyl]amino]-5-[[(2S,3S)-3-methyl-1-[[(2S)-3-methyl-1-oxidanylidene-1-[(2S,4R)-4-phenylmethoxy-2-[[(phenylmethyl)carbamoyl-propyl-amino]carbamoyl]pyrrolidin-1-yl]butan-2-yl]amino]-1-oxidanylidene-pentan-2-yl]-oxidanyl-amino]-5-oxidanylidene-pentanoic acid
> <PUBCHEM_IUPAC_TRADITIONAL_NAME>
(4R)-4-[[(2S)-2-acetamido-3-carboxy-propanoyl]amino]-5-[[(1S,2S)-1-[[(1S)-1-[(2S,4R)-4-benzoxy-2-[[benzylcarbamoyl(propyl)amino]carbamoyl]pyrrolidine-1-carbonyl]-2-methyl-propyl]carbamoyl]-2-methyl-butyl]-hydroxy-amino]-5-keto-valeric acid
> <PUBCHEM_IUPAC_INCHI>
InChI=1S/C45H64N8O13/c1-7-21-52(45(64)46-24-30-15-11-9-12-16-30)50-41(60)35-22-32(66-26-31-17-13-10-14-18-31)25-51(35)44(63)38(27(3)4)49-42(61)39(28(5)8-2)53(65)43(62)33(19-20-36(55)56)48-40(59)34(23-37(57)58)47-29(6)54/h9-18,27-28,32-35,38-39,65H,7-8,19-26H2,1-6H3,(H,46,64)(H,47,54)(H,48,59)(H,49,61)(H,50,60)(H,55,56)(H,57,58)/t28-,32+,33+,34-,35-,38-,39-/m0/s1
> <PUBCHEM_IUPAC_INCHIKEY>
MHHVDVWVVXYJGW-YEFARLPMSA-N
> <PUBCHEM_XLOGP3_AA>
2.1
> <PUBCHEM_EXACT_MASS>
924.45928413
> <PUBCHEM_MOLECULAR_FORMULA>
C45H64N8O13
> <PUBCHEM_MOLECULAR_WEIGHT>
925.0
> <PUBCHEM_OPENEYE_CAN_SMILES>
CCCN(C(=O)NCC1=CC=CC=C1)NC(=O)C2CC(CN2C(=O)C(C(C)C)NC(=O)C(C(C)CC)N(C(=O)C(CCC(=O)O)NC(=O)C(CC(=O)O)NC(=O)C)O)OCC3=CC=CC=C3
> <PUBCHEM_OPENEYE_ISO_SMILES>
CCCN(C(=O)NCC1=CC=CC=C1)NC(=O)[C@@H]2C[C@H](CN2C(=O)[C@H](C(C)C)NC(=O)[C@H]([C@@H](C)CC)N(C(=O)[C@@H](CCC(=O)O)NC(=O)[C@H](CC(=O)O)NC(=O)C)O)OCC3=CC=CC=C3
> <PUBCHEM_CACTVS_TPSA>
293
> <PUBCHEM_MONOISOTOPIC_WEIGHT>
924.45928413
> <PUBCHEM_TOTAL_CHARGE>
0
> <PUBCHEM_HEAVY_ATOM_COUNT>
66
> <PUBCHEM_ATOM_DEF_STEREO_COUNT>
7
> <PUBCHEM_ATOM_UDEF_STEREO_COUNT>
0
> <PUBCHEM_BOND_DEF_STEREO_COUNT>
0
> <PUBCHEM_BOND_UDEF_STEREO_COUNT>
0
> <PUBCHEM_ISOTOPIC_ATOM_COUNT>
0
> <PUBCHEM_COMPONENT_COUNT>
1
> <PUBCHEM_CACTVS_TAUTO_COUNT>
-1
> <PUBCHEM_COORDINATE_TYPE>
1
5
255
> <PUBCHEM_BONDANNOTATIONS>
23  1  5
27  15  6
30  18  5
42  19  5
55  21  5
22  28  6
35  38  6
37  44  8
37  45  8
44  48  8
45  49  8
48  52  8
49  52  8
57  59  8
57  60  8
59  63  8
60  64  8
63  65  8
64  65  8
$$$$
