500570
  -OEChem-10302200282D
117117  0     1  0  0  0  0  0999 V2000
    4.5981    0.4050    0.0000 O   0  0  0  0  0  0  0  0  0  0  0  0
    8.0622   -0.5950    0.0000 O   0  0  0  0  0  0  0  0  0  0  0  0
    3.7320    3.9050    0.0000 O   0  0  0  0  0  0  0  0  0  0  0  0
    8.9282   -1.0950    0.0000 O   0  0  0  0  0  0  0  0  0  0  0  0
   11.5263   -3.5950    0.0000 O   0  0  0  0  0  0  0  0  0  0  0  0
    6.3301    6.4050    0.0000 O   0  0  0  0  0  0  0  0  0  0  0  0
   11.5263   -5.5950    0.0000 O   0  0  0  0  0  0  0  0  0  0  0  0
    9.7942   -5.5950    0.0000 O   0  0  0  0  0  0  0  0  0  0  0  0
   13.2583    0.4050    0.0000 O   0  0  0  0  0  0  0  0  0  0  0  0
   12.3923   -4.0950    0.0000 O   0  0  0  0  0  0  0  0  0  0  0  0
   14.1244   -1.0950    0.0000 O   0  0  0  0  0  0  0  0  0  0  0  0
   14.9904   -6.5950    0.0000 O   0  0  0  0  0  0  0  0  0  0  0  0
   15.8564   -5.0950    0.0000 O   0  0  0  0  0  0  0  0  0  0  0  0
    6.3301   -0.5950    0.0000 N   0  0  0  0  0  0  0  0  0  0  0  0
    5.4641    1.9050    0.0000 N   0  0  0  0  0  0  0  0  0  0  0  0
    8.0622   -2.5950    0.0000 N   0  0  0  0  0  0  0  0  0  0  0  0
    5.4641    3.9050    0.0000 N   0  0  0  0  0  0  0  0  0  0  0  0
   10.6603   -2.0950    0.0000 N   0  0  0  0  0  0  0  0  0  0  0  0
   13.2583   -2.5950    0.0000 N   0  0  0  0  0  0  0  0  0  0  0  0
    7.1962    0.9050    0.0000 C   0  0  0  0  0  0  0  0  0  0  0  0
    6.3301    0.4050    0.0000 C   0  0  1  0  0  0  0  0  0  0  0  0
    8.0622    1.4050    0.0000 C   0  0  0  0  0  0  0  0  0  0  0  0
    6.6962    1.7710    0.0000 C   0  0  0  0  0  0  0  0  0  0  0  0
    7.6962    0.0390    0.0000 C   0  0  0  0  0  0  0  0  0  0  0  0
    5.4641    0.9050    0.0000 C   0  0  0  0  0  0  0  0  0  0  0  0
    4.5981    2.4050    0.0000 C   0  0  1  0  0  0  0  0  0  0  0  0
    3.7320    1.9050    0.0000 C   0  0  0  0  0  0  0  0  0  0  0  0
    7.1962   -2.0950    0.0000 C   0  0  2  0  0  0  0  0  0  0  0  0
    7.1962   -1.0950    0.0000 C   0  0  0  0  0  0  0  0  0  0  0  0
    2.8660    2.4050    0.0000 C   0  0  0  0  0  0  0  0  0  0  0  0
    6.3301   -2.5950    0.0000 C   0  0  0  0  0  0  0  0  0  0  0  0
    4.5981    3.4050    0.0000 C   0  0  0  0  0  0  0  0  0  0  0  0
    2.0000    1.9050    0.0000 C   0  0  0  0  0  0  0  0  0  0  0  0
    2.8660    3.4050    0.0000 C   0  0  0  0  0  0  0  0  0  0  0  0
    6.3301   -3.5950    0.0000 C   0  0  0  0  0  0  0  0  0  0  0  0
    9.7942   -2.5950    0.0000 C   0  0  2  0  0  0  0  0  0  0  0  0
    8.9282   -2.0950    0.0000 C   0  0  0  0  0  0  0  0  0  0  0  0
    5.4641    4.9050    0.0000 C   0  0  3  0  0  0  0  0  0  0  0  0
    9.7942   -3.5950    0.0000 C   0  0  0  0  0  0  0  0  0  0  0  0
    5.4641   -4.0950    0.0000 C   0  0  0  0  0  0  0  0  0  0  0  0
    7.1962   -4.0950    0.0000 C   0  0  0  0  0  0  0  0  0  0  0  0
    4.5981    5.4050    0.0000 C   0  0  0  0  0  0  0  0  0  0  0  0
   10.6603   -4.0950    0.0000 C   0  0  0  0  0  0  0  0  0  0  0  0
    5.4641   -5.0950    0.0000 C   0  0  0  0  0  0  0  0  0  0  0  0
   11.5263   -2.5950    0.0000 C   0  0  0  0  0  0  0  0  0  0  0  0
    4.5981   -3.5950    0.0000 C   0  0  0  0  0  0  0  0  0  0  0  0
   12.3923   -2.0950    0.0000 C   0  0  2  0  0  0  0  0  0  0  0  0
    7.1962   -5.0950    0.0000 C   0  0  0  0  0  0  0  0  0  0  0  0
    6.3301    5.4050    0.0000 C   0  0  0  0  0  0  0  0  0  0  0  0
    6.3301   -5.5950    0.0000 C   0  0  0  0  0  0  0  0  0  0  0  0
   12.3923   -1.0950    0.0000 C   0  0  0  0  0  0  0  0  0  0  0  0
    4.5981    6.4050    0.0000 C   0  0  0  0  0  0  0  0  0  0  0  0
   10.6603   -5.0950    0.0000 C   0  0  0  0  0  0  0  0  0  0  0  0
   13.2583   -3.5950    0.0000 C   0  0  0  0  0  0  0  0  0  0  0  0
   13.2583   -0.5950    0.0000 C   0  0  0  0  0  0  0  0  0  0  0  0
    3.7320    6.9050    0.0000 C   0  0  0  0  0  0  0  0  0  0  0  0
   14.1244   -4.0950    0.0000 C   0  0  0  0  0  0  0  0  0  0  0  0
   14.1244   -5.0950    0.0000 C   0  0  0  0  0  0  0  0  0  0  0  0
   14.9904   -5.5950    0.0000 C   0  0  0  0  0  0  0  0  0  0  0  0
    6.8671    0.0950    0.0000 H   0  0  0  0  0  0  0  0  0  0  0  0
    8.3722    0.8681    0.0000 H   0  0  0  0  0  0  0  0  0  0  0  0
    8.5991    1.7150    0.0000 H   0  0  0  0  0  0  0  0  0  0  0  0
    7.7522    1.9419    0.0000 H   0  0  0  0  0  0  0  0  0  0  0  0
    7.2331    2.0810    0.0000 H   0  0  0  0  0  0  0  0  0  0  0  0
    6.3862    2.3080    0.0000 H   0  0  0  0  0  0  0  0  0  0  0  0
    6.1592    1.4610    0.0000 H   0  0  0  0  0  0  0  0  0  0  0  0
    7.1592   -0.2710    0.0000 H   0  0  0  0  0  0  0  0  0  0  0  0
    8.0062   -0.4980    0.0000 H   0  0  0  0  0  0  0  0  0  0  0  0
    8.2331    0.3490    0.0000 H   0  0  0  0  0  0  0  0  0  0  0  0
    5.7932   -0.9050    0.0000 H   0  0  0  0  0  0  0  0  0  0  0  0
    4.5981    1.7850    0.0000 H   0  0  0  0  0  0  0  0  0  0  0  0
    3.3335    1.4300    0.0000 H   0  0  0  0  0  0  0  0  0  0  0  0
    4.1306    1.4300    0.0000 H   0  0  0  0  0  0  0  0  0  0  0  0
    6.0010    2.2150    0.0000 H   0  0  0  0  0  0  0  0  0  0  0  0
    7.7331   -1.7850    0.0000 H   0  0  0  0  0  0  0  0  0  0  0  0
    2.8660    1.7850    0.0000 H   0  0  0  0  0  0  0  0  0  0  0  0
    6.1181   -2.0124    0.0000 H   0  0  0  0  0  0  0  0  0  0  0  0
    5.7196   -2.7027    0.0000 H   0  0  0  0  0  0  0  0  0  0  0  0
    8.0622   -3.2150    0.0000 H   0  0  0  0  0  0  0  0  0  0  0  0
    1.6900    2.4419    0.0000 H   0  0  0  0  0  0  0  0  0  0  0  0
    1.4631    1.5950    0.0000 H   0  0  0  0  0  0  0  0  0  0  0  0
    2.3100    1.3681    0.0000 H   0  0  0  0  0  0  0  0  0  0  0  0
    3.4860    3.4050    0.0000 H   0  0  0  0  0  0  0  0  0  0  0  0
    2.8660    4.0250    0.0000 H   0  0  0  0  0  0  0  0  0  0  0  0
    2.2460    3.4050    0.0000 H   0  0  0  0  0  0  0  0  0  0  0  0
    9.7942   -1.9750    0.0000 H   0  0  0  0  0  0  0  0  0  0  0  0
    6.0010    3.5950    0.0000 H   0  0  0  0  0  0  0  0  0  0  0  0
    6.0010    4.5950    0.0000 H   0  0  0  0  0  0  0  0  0  0  0  0
    9.1836   -3.4873    0.0000 H   0  0  0  0  0  0  0  0  0  0  0  0
    9.5822   -4.1776    0.0000 H   0  0  0  0  0  0  0  0  0  0  0  0
    7.7331   -3.7850    0.0000 H   0  0  0  0  0  0  0  0  0  0  0  0
   10.6603   -1.4750    0.0000 H   0  0  0  0  0  0  0  0  0  0  0  0
   11.2708   -4.2027    0.0000 H   0  0  0  0  0  0  0  0  0  0  0  0
   10.8723   -3.5124    0.0000 H   0  0  0  0  0  0  0  0  0  0  0  0
    3.9875    5.5127    0.0000 H   0  0  0  0  0  0  0  0  0  0  0  0
    4.3860    4.8224    0.0000 H   0  0  0  0  0  0  0  0  0  0  0  0
    4.9272   -5.4050    0.0000 H   0  0  0  0  0  0  0  0  0  0  0  0
    4.9081   -3.0581    0.0000 H   0  0  0  0  0  0  0  0  0  0  0  0
    4.0611   -3.2850    0.0000 H   0  0  0  0  0  0  0  0  0  0  0  0
    4.2881   -4.1319    0.0000 H   0  0  0  0  0  0  0  0  0  0  0  0
   12.3923   -2.7150    0.0000 H   0  0  0  0  0  0  0  0  0  0  0  0
    7.7331   -5.4050    0.0000 H   0  0  0  0  0  0  0  0  0  0  0  0
    6.8671    5.0950    0.0000 H   0  0  0  0  0  0  0  0  0  0  0  0
    6.3301   -6.2150    0.0000 H   0  0  0  0  0  0  0  0  0  0  0  0
   12.1803   -0.5124    0.0000 H   0  0  0  0  0  0  0  0  0  0  0  0
   11.7817   -1.2027    0.0000 H   0  0  0  0  0  0  0  0  0  0  0  0
    5.1350    6.7150    0.0000 H   0  0  0  0  0  0  0  0  0  0  0  0
   13.7953   -2.2850    0.0000 H   0  0  0  0  0  0  0  0  0  0  0  0
    3.7320    7.5250    0.0000 H   0  0  0  0  0  0  0  0  0  0  0  0
    3.1951    6.5950    0.0000 H   0  0  0  0  0  0  0  0  0  0  0  0
   14.7349   -4.2027    0.0000 H   0  0  0  0  0  0  0  0  0  0  0  0
   14.3364   -3.5124    0.0000 H   0  0  0  0  0  0  0  0  0  0  0  0
   11.5263   -6.2150    0.0000 H   0  0  0  0  0  0  0  0  0  0  0  0
   13.5138   -4.9873    0.0000 H   0  0  0  0  0  0  0  0  0  0  0  0
   13.9123   -5.6776    0.0000 H   0  0  0  0  0  0  0  0  0  0  0  0
   13.7953    0.7150    0.0000 H   0  0  0  0  0  0  0  0  0  0  0  0
   15.5273   -6.9050    0.0000 H   0  0  0  0  0  0  0  0  0  0  0  0
  1 25  2  0  0  0  0
  2 29  2  0  0  0  0
  3 32  2  0  0  0  0
  4 37  2  0  0  0  0
  5 45  2  0  0  0  0
  6 49  2  0  0  0  0
  7 53  1  0  0  0  0
  7113  1  0  0  0  0
  8 53  2  0  0  0  0
  9 55  1  0  0  0  0
  9116  1  0  0  0  0
 10 54  2  0  0  0  0
 11 55  2  0  0  0  0
 12 59  1  0  0  0  0
 12117  1  0  0  0  0
 13 59  2  0  0  0  0
 21 14  1  6  0  0  0
 14 29  1  0  0  0  0
 14 70  1  0  0  0  0
 15 25  1  0  0  0  0
 26 15  1  1  0  0  0
 15 74  1  0  0  0  0
 28 16  1  1  0  0  0
 16 37  1  0  0  0  0
 16 79  1  0  0  0  0
 17 32  1  0  0  0  0
 17 38  1  0  0  0  0
 17 87  1  0  0  0  0
 36 18  1  1  0  0  0
 18 45  1  0  0  0  0
 18 92  1  0  0  0  0
 47 19  1  6  0  0  0
 19 54  1  0  0  0  0
 19108  1  0  0  0  0
 20 21  1  0  0  0  0
 20 22  1  0  0  0  0
 20 23  1  0  0  0  0
 20 24  1  0  0  0  0
 21 25  1  0  0  0  0
 21 60  1  0  0  0  0
 22 61  1  0  0  0  0
 22 62  1  0  0  0  0
 22 63  1  0  0  0  0
 23 64  1  0  0  0  0
 23 65  1  0  0  0  0
 23 66  1  0  0  0  0
 24 67  1  0  0  0  0
 24 68  1  0  0  0  0
 24 69  1  0  0  0  0
 26 27  1  0  0  0  0
 26 32  1  0  0  0  0
 26 71  1  0  0  0  0
 27 30  1  0  0  0  0
 27 72  1  0  0  0  0
 27 73  1  0  0  0  0
 28 29  1  0  0  0  0
 28 31  1  0  0  0  0
 28 75  1  0  0  0  0
 30 33  1  0  0  0  0
 30 34  1  0  0  0  0
 30 76  1  0  0  0  0
 31 35  1  0  0  0  0
 31 77  1  0  0  0  0
 31 78  1  0  0  0  0
 33 80  1  0  0  0  0
 33 81  1  0  0  0  0
 33 82  1  0  0  0  0
 34 83  1  0  0  0  0
 34 84  1  0  0  0  0
 34 85  1  0  0  0  0
 35 40  1  0  0  0  0
 35 41  2  0  0  0  0
 36 37  1  0  0  0  0
 36 39  1  0  0  0  0
 36 86  1  0  0  0  0
 38 42  1  0  0  0  0
 38 49  1  0  0  0  0
 38 88  1  0  0  0  0
 39 43  1  0  0  0  0
 39 89  1  0  0  0  0
 39 90  1  0  0  0  0
 40 44  2  0  0  0  0
 40 46  1  0  0  0  0
 41 48  1  0  0  0  0
 41 91  1  0  0  0  0
 42 52  1  0  0  0  0
 42 95  1  0  0  0  0
 42 96  1  0  0  0  0
 43 53  1  0  0  0  0
 43 93  1  0  0  0  0
 43 94  1  0  0  0  0
 44 50  1  0  0  0  0
 44 97  1  0  0  0  0
 45 47  1  0  0  0  0
 46 98  1  0  0  0  0
 46 99  1  0  0  0  0
 46100  1  0  0  0  0
 47 51  1  0  0  0  0
 47101  1  0  0  0  0
 48 50  2  0  0  0  0
 48102  1  0  0  0  0
 49103  1  0  0  0  0
 50104  1  0  0  0  0
 51 55  1  0  0  0  0
 51105  1  0  0  0  0
 51106  1  0  0  0  0
 52 56  2  0  0  0  0
 52107  1  0  0  0  0
 54 57  1  0  0  0  0
 56109  1  0  0  0  0
 56110  1  0  0  0  0
 57 58  1  0  0  0  0
 57111  1  0  0  0  0
 57112  1  0  0  0  0
 58 59  1  0  0  0  0
 58114  1  0  0  0  0
 58115  1  0  0  0  0
M  END
> <PUBCHEM_COMPOUND_CID>
500570
> <PUBCHEM_COMPOUND_CANONICALIZED>
1
> <PUBCHEM_CACTVS_COMPLEXITY>
1530
> <PUBCHEM_CACTVS_HBOND_ACCEPTOR>
13
> <PUBCHEM_CACTVS_HBOND_DONOR>
9
> <PUBCHEM_CACTVS_ROTATABLE_BOND>
27
> <PUBCHEM_CACTVS_SUBSKEYS>
AAADcfB/vAAAAAAAAAAAAAAAAAAAAAAAAAAwAAAAAAAAAAABAAAAHgAQCAAADyjhmAYyCILAAgCIAinSmAACAAAgAAAIiIGIAIgIYDqAkTGUYAAmlgCIiAe/n4KPgAAAAAAQAAAAAAAAACAAAAAAAAAAAA==
> <PUBCHEM_IUPAC_OPENEYE_NAME>
(4S)-4-[[(2S)-3-carboxy-2-(3-carboxypropanoylamino)propanoyl]amino]-5-[[(1S)-2-[[(1S)-1-[[(1S)-1-(1-formylbut-3-enylcarbamoyl)-3-methyl-butyl]carbamoyl]-2,2-dimethyl-propyl]amino]-1-(o-tolylmethyl)-2-oxo-ethyl]amino]-5-oxo-pentanoic acid
> <PUBCHEM_IUPAC_CAS_NAME>
(4S)-4-[[(2S)-3-carboxy-2-[(3-carboxy-1-oxopropyl)amino]-1-oxopropyl]amino]-5-[[(2S)-1-[[(2S)-3,3-dimethyl-1-[[(2S)-4-methyl-1-oxo-1-(1-oxopent-4-en-2-ylamino)pentan-2-yl]amino]-1-oxobutan-2-yl]amino]-3-(2-methylphenyl)-1-oxopropan-2-yl]amino]-5-oxopentanoic acid
> <PUBCHEM_IUPAC_NAME_MARKUP>
(4<I>S</I>)-4-[[(2<I>S</I>)-3-carboxy-2-(3-carboxypropanoylamino)propanoyl]amino]-5-[[(2<I>S</I>)-1-[[(2<I>S</I>)-3,3-dimethyl-1-[[(2<I>S</I>)-4-methyl-1-oxo-1-(1-oxopent-4-en-2-ylamino)pentan-2-yl]amino]-1-oxobutan-2-yl]amino]-3-(2-methylphenyl)-1-oxopropan-2-yl]amino]-5-oxopentanoic acid
> <PUBCHEM_IUPAC_NAME>
(4S)-4-[[(2S)-3-carboxy-2-(3-carboxypropanoylamino)propanoyl]amino]-5-[[(2S)-1-[[(2S)-3,3-dimethyl-1-[[(2S)-4-methyl-1-oxo-1-(1-oxopent-4-en-2-ylamino)pentan-2-yl]amino]-1-oxobutan-2-yl]amino]-3-(2-methylphenyl)-1-oxopropan-2-yl]amino]-5-oxopentanoic acid
> <PUBCHEM_IUPAC_SYSTEMATIC_NAME>
(4S)-5-[[(2S)-1-[[(2S)-3,3-dimethyl-1-[[(2S)-4-methyl-1-oxidanylidene-1-(1-oxidanylidenepent-4-en-2-ylamino)pentan-2-yl]amino]-1-oxidanylidene-butan-2-yl]amino]-3-(2-methylphenyl)-1-oxidanylidene-propan-2-yl]amino]-5-oxidanylidene-4-[[(2S)-4-oxidanyl-4-oxidanylidene-2-[(4-oxidanyl-4-oxidanylidene-butanoyl)amino]butanoyl]amino]pentanoic acid
> <PUBCHEM_IUPAC_TRADITIONAL_NAME>
(4S)-4-[[(2S)-3-carboxy-2-(3-carboxypropanoylamino)propanoyl]amino]-5-[[(1S)-2-[[(1S)-1-[[(1S)-1-(1-formylbut-3-enylcarbamoyl)-3-methyl-butyl]carbamoyl]-2,2-dimethyl-propyl]amino]-2-keto-1-(2-methylbenzyl)ethyl]amino]-5-keto-valeric acid
> <PUBCHEM_IUPAC_INCHI>
InChI=1S/C40H58N6O13/c1-8-11-25(21-47)41-36(56)27(18-22(2)3)45-39(59)34(40(5,6)7)46-38(58)28(19-24-13-10-9-12-23(24)4)44-35(55)26(14-16-31(49)50)43-37(57)29(20-33(53)54)42-30(48)15-17-32(51)52/h8-10,12-13,21-22,25-29,34H,1,11,14-20H2,2-7H3,(H,41,56)(H,42,48)(H,43,57)(H,44,55)(H,45,59)(H,46,58)(H,49,50)(H,51,52)(H,53,54)/t25?,26-,27-,28-,29-,34+/m0/s1
> <PUBCHEM_IUPAC_INCHIKEY>
SCLNSSVPUXRVGL-XHCBGMKXSA-N
> <PUBCHEM_XLOGP3_AA>
1.6
> <PUBCHEM_EXACT_MASS>
830.40618593
> <PUBCHEM_MOLECULAR_FORMULA>
C40H58N6O13
> <PUBCHEM_MOLECULAR_WEIGHT>
830.9
> <PUBCHEM_OPENEYE_CAN_SMILES>
CC1=CC=CC=C1CC(C(=O)NC(C(=O)NC(CC(C)C)C(=O)NC(CC=C)C=O)C(C)(C)C)NC(=O)C(CCC(=O)O)NC(=O)C(CC(=O)O)NC(=O)CCC(=O)O
> <PUBCHEM_OPENEYE_ISO_SMILES>
CC1=CC=CC=C1C[C@@H](C(=O)N[C@H](C(=O)N[C@@H](CC(C)C)C(=O)NC(CC=C)C=O)C(C)(C)C)NC(=O)[C@H](CCC(=O)O)NC(=O)[C@H](CC(=O)O)NC(=O)CCC(=O)O
> <PUBCHEM_CACTVS_TPSA>
304
> <PUBCHEM_MONOISOTOPIC_WEIGHT>
830.40618593
> <PUBCHEM_TOTAL_CHARGE>
0
> <PUBCHEM_HEAVY_ATOM_COUNT>
59
> <PUBCHEM_ATOM_DEF_STEREO_COUNT>
5
> <PUBCHEM_ATOM_UDEF_STEREO_COUNT>
1
> <PUBCHEM_BOND_DEF_STEREO_COUNT>
0
> <PUBCHEM_BOND_UDEF_STEREO_COUNT>
0
> <PUBCHEM_ISOTOPIC_ATOM_COUNT>
0
> <PUBCHEM_COMPONENT_COUNT>
1
> <PUBCHEM_CACTVS_TAUTO_COUNT>
-1
> <PUBCHEM_COORDINATE_TYPE>
1
5
255
> <PUBCHEM_BONDANNOTATIONS>
21  14  6
26  15  5
28  16  5
36  18  5
47  19  6
35  40  8
35  41  8
38  42  3
40  44  8
41  48  8
44  50  8
48  50  8
$$$$
