500583
  -OEChem-10302200282D
109112  0     1  0  0  0  0  0999 V2000
    5.4641   -1.5200    0.0000 O   0  0  0  0  0  0  0  0  0  0  0  0
    5.6065   -0.1653    0.0000 O   0  0  0  0  0  0  0  0  0  0  0  0
    6.3301   -5.0200    0.0000 O   0  0  0  0  0  0  0  0  0  0  0  0
    2.8660   -6.0200    0.0000 O   0  0  0  0  0  0  0  0  0  0  0  0
    7.1813    3.0781    0.0000 O   0  0  0  0  0  0  0  0  0  0  0  0
    4.5360    3.1292    0.0000 O   0  0  0  0  0  0  0  0  0  0  0  0
    7.1962   -1.5200    0.0000 N   0  0  0  0  0  0  0  0  0  0  0  0
    5.4641   -3.5200    0.0000 N   0  0  0  0  0  0  0  0  0  0  0  0
    6.7654    1.1218    0.0000 N   0  0  0  0  0  0  0  0  0  0  0  0
    3.7320   -4.5200    0.0000 N   0  0  0  0  0  0  0  0  0  0  0  0
    5.6950    4.4164    0.0000 N   0  0  0  0  0  0  0  0  0  0  0  0
    8.7788   -1.1836    0.0000 C   0  0  2  0  0  0  0  0  0  0  0  0
    8.2788   -0.3175    0.0000 C   0  0  0  0  0  0  0  0  0  0  0  0
    7.3007   -0.5254    0.0000 C   0  0  1  0  0  0  0  0  0  0  0  0
    8.1097   -1.9267    0.0000 C   0  0  0  0  0  0  0  0  0  0  0  0
    9.7734   -1.2881    0.0000 C   0  0  0  0  0  0  0  0  0  0  0  0
    4.5981   -6.0200    0.0000 C   0  0  0  0  0  0  0  0  0  0  0  0
    6.3301   -2.0200    0.0000 C   0  0  0  0  0  0  0  0  0  0  0  0
    6.3301   -3.0200    0.0000 C   0  0  2  0  0  0  0  0  0  0  0  0
    3.7320   -6.5200    0.0000 C   0  0  0  0  0  0  0  0  0  0  0  0
    5.4641   -6.5200    0.0000 C   0  0  0  0  0  0  0  0  0  0  0  0
    4.5981   -5.0200    0.0000 C   0  0  3  0  0  0  0  0  0  0  0  0
    6.5575    0.1437    0.0000 C   0  0  0  0  0  0  0  0  0  0  0  0
    3.7320   -7.5200    0.0000 C   0  0  0  0  0  0  0  0  0  0  0  0
    5.4641   -7.5200    0.0000 C   0  0  0  0  0  0  0  0  0  0  0  0
   10.3611   -0.4791    0.0000 C   0  0  0  0  0  0  0  0  0  0  0  0
    4.5981   -8.0200    0.0000 C   0  0  0  0  0  0  0  0  0  0  0  0
    7.1962   -3.5200    0.0000 C   0  0  0  0  0  0  0  0  0  0  0  0
    5.4641   -4.5200    0.0000 C   0  0  0  0  0  0  0  0  0  0  0  0
   11.3557   -0.5836    0.0000 C   0  0  0  0  0  0  0  0  0  0  0  0
    7.1962   -4.5200    0.0000 C   0  0  0  0  0  0  0  0  0  0  0  0
    8.0622   -3.0200    0.0000 C   0  0  0  0  0  0  0  0  0  0  0  0
    6.0223    1.7910    0.0000 C   0  0  3  0  0  0  0  0  0  0  0  0
    5.0712    1.4820    0.0000 C   0  0  0  0  0  0  0  0  0  0  0  0
    2.8660   -5.0200    0.0000 C   0  0  0  0  0  0  0  0  0  0  0  0
   11.7624   -1.4971    0.0000 C   0  0  0  0  0  0  0  0  0  0  0  0
   11.9434    0.2254    0.0000 C   0  0  0  0  0  0  0  0  0  0  0  0
    6.2302    2.7691    0.0000 C   0  0  0  0  0  0  0  0  0  0  0  0
    4.3281    2.1511    0.0000 C   0  0  0  0  0  0  0  0  0  0  0  0
   12.7569   -1.6017    0.0000 C   0  0  0  0  0  0  0  0  0  0  0  0
   12.9380    0.1209    0.0000 C   0  0  0  0  0  0  0  0  0  0  0  0
    2.0000   -4.5200    0.0000 C   0  0  0  0  0  0  0  0  0  0  0  0
   13.3447   -0.7927    0.0000 C   0  0  0  0  0  0  0  0  0  0  0  0
    5.4871    3.4382    0.0000 C   0  0  0  0  0  0  0  0  0  0  0  0
    3.3770    1.8421    0.0000 C   0  0  0  0  0  0  0  0  0  0  0  0
    4.9518    5.0855    0.0000 C   0  0  0  0  0  0  0  0  0  0  0  0
    5.1598    6.0637    0.0000 C   0  0  0  0  0  0  0  0  0  0  0  0
    6.1108    6.3727    0.0000 C   0  0  0  0  0  0  0  0  0  0  0  0
    4.4166    6.7328    0.0000 C   0  0  0  0  0  0  0  0  0  0  0  0
    6.3187    7.3508    0.0000 C   0  0  0  0  0  0  0  0  0  0  0  0
    4.6245    7.7110    0.0000 C   0  0  0  0  0  0  0  0  0  0  0  0
    5.5756    8.0200    0.0000 C   0  0  0  0  0  0  0  0  0  0  0  0
    9.1165   -0.6636    0.0000 H   0  0  0  0  0  0  0  0  0  0  0  0
    8.8452   -0.0654    0.0000 H   0  0  0  0  0  0  0  0  0  0  0  0
    8.0872    0.2721    0.0000 H   0  0  0  0  0  0  0  0  0  0  0  0
    6.7219   -0.7476    0.0000 H   0  0  0  0  0  0  0  0  0  0  0  0
    7.7997   -2.4636    0.0000 H   0  0  0  0  0  0  0  0  0  0  0  0
    8.6113   -2.2911    0.0000 H   0  0  0  0  0  0  0  0  0  0  0  0
    9.6025   -1.8841    0.0000 H   0  0  0  0  0  0  0  0  0  0  0  0
   10.3306   -1.5599    0.0000 H   0  0  0  0  0  0  0  0  0  0  0  0
    5.1350   -5.7100    0.0000 H   0  0  0  0  0  0  0  0  0  0  0  0
    5.7932   -2.7100    0.0000 H   0  0  0  0  0  0  0  0  0  0  0  0
    3.5200   -5.9374    0.0000 H   0  0  0  0  0  0  0  0  0  0  0  0
    3.1215   -6.6276    0.0000 H   0  0  0  0  0  0  0  0  0  0  0  0
    6.0747   -6.6276    0.0000 H   0  0  0  0  0  0  0  0  0  0  0  0
    5.6762   -5.9374    0.0000 H   0  0  0  0  0  0  0  0  0  0  0  0
    4.5981   -4.4000    0.0000 H   0  0  0  0  0  0  0  0  0  0  0  0
    3.1215   -7.4123    0.0000 H   0  0  0  0  0  0  0  0  0  0  0  0
    3.5200   -8.1026    0.0000 H   0  0  0  0  0  0  0  0  0  0  0  0
    5.6762   -8.1026    0.0000 H   0  0  0  0  0  0  0  0  0  0  0  0
    6.0747   -7.4123    0.0000 H   0  0  0  0  0  0  0  0  0  0  0  0
   10.5320    0.1169    0.0000 H   0  0  0  0  0  0  0  0  0  0  0  0
    9.8039   -0.2073    0.0000 H   0  0  0  0  0  0  0  0  0  0  0  0
    4.1996   -8.4949    0.0000 H   0  0  0  0  0  0  0  0  0  0  0  0
    4.9966   -8.4949    0.0000 H   0  0  0  0  0  0  0  0  0  0  0  0
    6.6592   -3.8300    0.0000 H   0  0  0  0  0  0  0  0  0  0  0  0
    4.9272   -3.2100    0.0000 H   0  0  0  0  0  0  0  0  0  0  0  0
    7.3551    1.3134    0.0000 H   0  0  0  0  0  0  0  0  0  0  0  0
    3.7320   -3.9000    0.0000 H   0  0  0  0  0  0  0  0  0  0  0  0
    6.5762   -4.5200    0.0000 H   0  0  0  0  0  0  0  0  0  0  0  0
    7.1962   -5.1400    0.0000 H   0  0  0  0  0  0  0  0  0  0  0  0
    7.8162   -4.5200    0.0000 H   0  0  0  0  0  0  0  0  0  0  0  0
    8.3722   -3.5569    0.0000 H   0  0  0  0  0  0  0  0  0  0  0  0
    8.5991   -2.7100    0.0000 H   0  0  0  0  0  0  0  0  0  0  0  0
    7.7522   -2.4830    0.0000 H   0  0  0  0  0  0  0  0  0  0  0  0
    6.6120    1.9826    0.0000 H   0  0  0  0  0  0  0  0  0  0  0  0
    4.5827    1.1002    0.0000 H   0  0  0  0  0  0  0  0  0  0  0  0
    5.3623    0.9345    0.0000 H   0  0  0  0  0  0  0  0  0  0  0  0
   11.3980   -1.9987    0.0000 H   0  0  0  0  0  0  0  0  0  0  0  0
   11.6913    0.7918    0.0000 H   0  0  0  0  0  0  0  0  0  0  0  0
    4.8167    2.5328    0.0000 H   0  0  0  0  0  0  0  0  0  0  0  0
    4.0370    2.6985    0.0000 H   0  0  0  0  0  0  0  0  0  0  0  0
   13.0091   -2.1681    0.0000 H   0  0  0  0  0  0  0  0  0  0  0  0
   13.3024    0.6225    0.0000 H   0  0  0  0  0  0  0  0  0  0  0  0
    2.3100   -3.9830    0.0000 H   0  0  0  0  0  0  0  0  0  0  0  0
    1.4631   -4.2100    0.0000 H   0  0  0  0  0  0  0  0  0  0  0  0
    1.6900   -5.0569    0.0000 H   0  0  0  0  0  0  0  0  0  0  0  0
   13.9613   -0.8575    0.0000 H   0  0  0  0  0  0  0  0  0  0  0  0
    3.1854    2.4317    0.0000 H   0  0  0  0  0  0  0  0  0  0  0  0
    2.7874    1.6505    0.0000 H   0  0  0  0  0  0  0  0  0  0  0  0
    3.5686    1.2524    0.0000 H   0  0  0  0  0  0  0  0  0  0  0  0
    6.2846    4.6080    0.0000 H   0  0  0  0  0  0  0  0  0  0  0  0
    4.3770    5.3178    0.0000 H   0  0  0  0  0  0  0  0  0  0  0  0
    4.6233    4.5597    0.0000 H   0  0  0  0  0  0  0  0  0  0  0  0
    6.5716    5.9578    0.0000 H   0  0  0  0  0  0  0  0  0  0  0  0
    3.8270    6.5412    0.0000 H   0  0  0  0  0  0  0  0  0  0  0  0
    6.9084    7.5424    0.0000 H   0  0  0  0  0  0  0  0  0  0  0  0
    4.1638    8.1258    0.0000 H   0  0  0  0  0  0  0  0  0  0  0  0
    5.7045    8.6264    0.0000 H   0  0  0  0  0  0  0  0  0  0  0  0
  1 18  2  0  0  0  0
  2 23  2  0  0  0  0
  3 29  2  0  0  0  0
  4 35  2  0  0  0  0
  5 38  2  0  0  0  0
  6 44  2  0  0  0  0
  7 14  1  0  0  0  0
  7 15  1  0  0  0  0
  7 18  1  0  0  0  0
 19  8  1  6  0  0  0
  8 29  1  0  0  0  0
  8 77  1  0  0  0  0
  9 23  1  0  0  0  0
  9 33  1  0  0  0  0
  9 78  1  0  0  0  0
 10 22  1  0  0  0  0
 10 35  1  0  0  0  0
 10 79  1  0  0  0  0
 11 44  1  0  0  0  0
 11 46  1  0  0  0  0
 11102  1  0  0  0  0
 12 13  1  0  0  0  0
 12 15  1  0  0  0  0
 12 16  1  1  0  0  0
 12 53  1  0  0  0  0
 13 14  1  0  0  0  0
 13 54  1  0  0  0  0
 13 55  1  0  0  0  0
 14 23  1  6  0  0  0
 14 56  1  0  0  0  0
 15 57  1  0  0  0  0
 15 58  1  0  0  0  0
 16 26  1  0  0  0  0
 16 59  1  0  0  0  0
 16 60  1  0  0  0  0
 17 20  1  0  0  0  0
 17 21  1  0  0  0  0
 17 22  1  0  0  0  0
 17 61  1  0  0  0  0
 18 19  1  0  0  0  0
 19 28  1  0  0  0  0
 19 62  1  0  0  0  0
 20 24  1  0  0  0  0
 20 63  1  0  0  0  0
 20 64  1  0  0  0  0
 21 25  1  0  0  0  0
 21 65  1  0  0  0  0
 21 66  1  0  0  0  0
 22 29  1  0  0  0  0
 22 67  1  0  0  0  0
 24 27  1  0  0  0  0
 24 68  1  0  0  0  0
 24 69  1  0  0  0  0
 25 27  1  0  0  0  0
 25 70  1  0  0  0  0
 25 71  1  0  0  0  0
 26 30  1  0  0  0  0
 26 72  1  0  0  0  0
 26 73  1  0  0  0  0
 27 74  1  0  0  0  0
 27 75  1  0  0  0  0
 28 31  1  0  0  0  0
 28 32  1  0  0  0  0
 28 76  1  0  0  0  0
 30 36  2  0  0  0  0
 30 37  1  0  0  0  0
 31 80  1  0  0  0  0
 31 81  1  0  0  0  0
 31 82  1  0  0  0  0
 32 83  1  0  0  0  0
 32 84  1  0  0  0  0
 32 85  1  0  0  0  0
 33 34  1  0  0  0  0
 33 38  1  0  0  0  0
 33 86  1  0  0  0  0
 34 39  1  0  0  0  0
 34 87  1  0  0  0  0
 34 88  1  0  0  0  0
 35 42  1  0  0  0  0
 36 40  1  0  0  0  0
 36 89  1  0  0  0  0
 37 41  2  0  0  0  0
 37 90  1  0  0  0  0
 38 44  1  0  0  0  0
 39 45  1  0  0  0  0
 39 91  1  0  0  0  0
 39 92  1  0  0  0  0
 40 43  2  0  0  0  0
 40 93  1  0  0  0  0
 41 43  1  0  0  0  0
 41 94  1  0  0  0  0
 42 95  1  0  0  0  0
 42 96  1  0  0  0  0
 42 97  1  0  0  0  0
 43 98  1  0  0  0  0
 45 99  1  0  0  0  0
 45100  1  0  0  0  0
 45101  1  0  0  0  0
 46 47  1  0  0  0  0
 46103  1  0  0  0  0
 46104  1  0  0  0  0
 47 48  2  0  0  0  0
 47 49  1  0  0  0  0
 48 50  1  0  0  0  0
 48105  1  0  0  0  0
 49 51  2  0  0  0  0
 49106  1  0  0  0  0
 50 52  2  0  0  0  0
 50107  1  0  0  0  0
 51 52  1  0  0  0  0
 51108  1  0  0  0  0
 52109  1  0  0  0  0
M  END
> <PUBCHEM_COMPOUND_CID>
500583
> <PUBCHEM_COMPOUND_CANONICALIZED>
1
> <PUBCHEM_CACTVS_COMPLEXITY>
1210
> <PUBCHEM_CACTVS_HBOND_ACCEPTOR>
6
> <PUBCHEM_CACTVS_HBOND_DONOR>
4
> <PUBCHEM_CACTVS_ROTATABLE_BOND>
17
> <PUBCHEM_CACTVS_SUBSKEYS>
AAADcfB/uAAAAAAAAAAAAAAAAAAAAWAAAAAwYMAAAAAAAAABQAAAHgAQAAAADSzBmAQyAIPAAACIAqFSEACCAAAgAAAIiIGIBIgIYDqA0TGUIAhglgCIiAcYicCOAAAAAAAAAAAAAAAAAAAAAAAAAAAAAA==
> <PUBCHEM_IUPAC_OPENEYE_NAME>
(2S,4R)-1-[(2S)-2-[(2-acetamido-2-cyclohexyl-acetyl)amino]-3-methyl-butanoyl]-N-[1-[2-(benzylamino)-2-oxo-acetyl]butyl]-4-(2-phenylethyl)pyrrolidine-2-carboxamide
> <PUBCHEM_IUPAC_CAS_NAME>
(2S,4R)-1-[(2S)-2-[(2-acetamido-2-cyclohexyl-1-oxoethyl)amino]-3-methyl-1-oxobutyl]-N-[1,2-dioxo-1-[(phenylmethyl)amino]hexan-3-yl]-4-(2-phenylethyl)-2-pyrrolidinecarboxamide
> <PUBCHEM_IUPAC_NAME_MARKUP>
(2<I>S</I>,4<I>R</I>)-1-[(2<I>S</I>)-2-[(2-acetamido-2-cyclohexylacetyl)amino]-3-methylbutanoyl]-<I>N</I>-[1-(benzylamino)-1,2-dioxohexan-3-yl]-4-(2-phenylethyl)pyrrolidine-2-carboxamide
> <PUBCHEM_IUPAC_NAME>
(2S,4R)-1-[(2S)-2-[(2-acetamido-2-cyclohexylacetyl)amino]-3-methylbutanoyl]-N-[1-(benzylamino)-1,2-dioxohexan-3-yl]-4-(2-phenylethyl)pyrrolidine-2-carboxamide
> <PUBCHEM_IUPAC_SYSTEMATIC_NAME>
(2S,4R)-1-[(2S)-2-[(2-acetamido-2-cyclohexyl-ethanoyl)amino]-3-methyl-butanoyl]-N-[1,2-bis(oxidanylidene)-1-[(phenylmethyl)amino]hexan-3-yl]-4-(2-phenylethyl)pyrrolidine-2-carboxamide
> <PUBCHEM_IUPAC_TRADITIONAL_NAME>
(2S,4R)-1-[(2S)-2-[(2-acetamido-2-cyclohexyl-acetyl)amino]-3-methyl-butanoyl]-N-[1-[2-(benzylamino)-2-keto-acetyl]butyl]-4-phenethyl-pyrrolidine-2-carboxamide
> <PUBCHEM_IUPAC_INCHI>
InChI=1S/C41H57N5O6/c1-5-15-33(37(48)40(51)42-25-30-18-11-7-12-19-30)44-38(49)34-24-31(23-22-29-16-9-6-10-17-29)26-46(34)41(52)35(27(2)3)45-39(50)36(43-28(4)47)32-20-13-8-14-21-32/h6-7,9-12,16-19,27,31-36H,5,8,13-15,20-26H2,1-4H3,(H,42,51)(H,43,47)(H,44,49)(H,45,50)/t31-,33?,34+,35+,36?/m1/s1
> <PUBCHEM_IUPAC_INCHIKEY>
SNCGVCGXHRCYJC-QFMHMUCRSA-N
> <PUBCHEM_XLOGP3_AA>
6.3
> <PUBCHEM_EXACT_MASS>
715.43088455
> <PUBCHEM_MOLECULAR_FORMULA>
C41H57N5O6
> <PUBCHEM_MOLECULAR_WEIGHT>
715.9
> <PUBCHEM_OPENEYE_CAN_SMILES>
CCCC(C(=O)C(=O)NCC1=CC=CC=C1)NC(=O)C2CC(CN2C(=O)C(C(C)C)NC(=O)C(C3CCCCC3)NC(=O)C)CCC4=CC=CC=C4
> <PUBCHEM_OPENEYE_ISO_SMILES>
CCCC(C(=O)C(=O)NCC1=CC=CC=C1)NC(=O)[C@@H]2C[C@H](CN2C(=O)[C@H](C(C)C)NC(=O)C(C3CCCCC3)NC(=O)C)CCC4=CC=CC=C4
> <PUBCHEM_CACTVS_TPSA>
154
> <PUBCHEM_MONOISOTOPIC_WEIGHT>
715.43088455
> <PUBCHEM_TOTAL_CHARGE>
0
> <PUBCHEM_HEAVY_ATOM_COUNT>
52
> <PUBCHEM_ATOM_DEF_STEREO_COUNT>
3
> <PUBCHEM_ATOM_UDEF_STEREO_COUNT>
2
> <PUBCHEM_BOND_DEF_STEREO_COUNT>
0
> <PUBCHEM_BOND_UDEF_STEREO_COUNT>
0
> <PUBCHEM_ISOTOPIC_ATOM_COUNT>
0
> <PUBCHEM_COMPONENT_COUNT>
1
> <PUBCHEM_CACTVS_TAUTO_COUNT>
-1
> <PUBCHEM_COORDINATE_TYPE>
1
5
255
> <PUBCHEM_BONDANNOTATIONS>
12  16  5
14  23  6
22  29  3
30  36  8
30  37  8
33  34  3
36  40  8
37  41  8
40  43  8
41  43  8
47  48  8
47  49  8
48  50  8
49  51  8
50  52  8
51  52  8
19  8  6
$$$$
