500698
  -OEChem-10302200282D
100104  0     1  0  0  0  0  0999 V2000
   12.6438   -1.8758    0.0000 O   0  0  0  0  0  0  0  0  0  0  0  0
   11.0615   -2.5802    0.0000 O   0  0  0  0  0  0  0  0  0  0  0  0
    6.3981   -0.5715    0.0000 O   0  0  0  0  0  0  0  0  0  0  0  0
   10.4291    0.9694    0.0000 O   0  0  0  0  0  0  0  0  0  0  0  0
    9.7480    2.1490    0.0000 O   0  0  0  0  0  0  0  0  0  0  0  0
    5.5889    3.4535    0.0000 O   0  0  0  0  0  0  0  0  0  0  0  0
    6.9902    4.4715    0.0000 O   0  0  0  0  0  0  0  0  0  0  0  0
   10.2480   -0.7532    0.0000 N   0  0  0  0  0  0  0  0  0  0  0  0
    8.3468    1.1309    0.0000 N   0  0  0  0  0  0  0  0  0  0  0  0
    7.1712    2.7490    0.0000 N   0  0  0  0  0  0  0  0  0  0  0  0
    6.3981   -3.5715    0.0000 N   0  0  0  0  0  0  0  0  0  0  0  0
    2.8680   -3.5956    0.0000 N   0  0  0  0  0  0  0  0  0  0  0  0
   11.2426   -0.8577    0.0000 C   0  0  3  0  0  0  0  0  0  0  0  0
   12.1561   -0.4510    0.0000 C   0  0  2  0  0  0  0  0  0  0  0  0
   11.3471    0.1368    0.0000 C   0  0  0  0  0  0  0  0  0  0  0  0
   11.6493   -1.7712    0.0000 C   0  0  0  0  0  0  0  0  0  0  0  0
   13.1506   -0.5555    0.0000 C   0  0  0  0  0  0  0  0  0  0  0  0
    8.8468    0.2649    0.0000 C   0  0  2  0  0  0  0  0  0  0  0  0
    9.8413    0.1604    0.0000 C   0  0  0  0  0  0  0  0  0  0  0  0
    8.1776   -0.4782    0.0000 C   0  0  0  0  0  0  0  0  0  0  0  0
    7.2641   -0.0715    0.0000 C   0  0  2  0  0  0  0  0  0  0  0  0
    7.3686    0.9230    0.0000 C   0  0  0  0  0  0  0  0  0  0  0  0
    8.7535    2.0445    0.0000 C   0  0  0  0  0  0  0  0  0  0  0  0
   13.7384    0.2535    0.0000 C   0  0  0  0  0  0  0  0  0  0  0  0
    8.1657    2.8535    0.0000 C   0  0  2  0  0  0  0  0  0  0  0  0
    8.5725    3.7670    0.0000 C   0  0  0  0  0  0  0  0  0  0  0  0
    8.9792    4.6806    0.0000 C   0  0  0  0  0  0  0  0  0  0  0  0
    7.6589    4.1738    0.0000 C   0  0  0  0  0  0  0  0  0  0  0  0
    9.4860    3.3603    0.0000 C   0  0  0  0  0  0  0  0  0  0  0  0
    6.3981   -1.5715    0.0000 C   0  0  0  0  0  0  0  0  0  0  0  0
    5.5320   -2.0715    0.0000 C   0  0  0  0  0  0  0  0  0  0  0  0
    6.5834    3.5580    0.0000 C   0  0  0  0  0  0  0  0  0  0  0  0
    7.2641   -2.0715    0.0000 C   0  0  0  0  0  0  0  0  0  0  0  0
    5.5320   -3.0715    0.0000 C   0  0  0  0  0  0  0  0  0  0  0  0
    7.2641   -3.0715    0.0000 C   0  0  0  0  0  0  0  0  0  0  0  0
    4.6381   -1.5368    0.0000 C   0  0  0  0  0  0  0  0  0  0  0  0
    5.0011    4.2625    0.0000 C   0  0  0  0  0  0  0  0  0  0  0  0
    4.6381   -3.6062    0.0000 C   0  0  0  0  0  0  0  0  0  0  0  0
    3.7320   -2.0507    0.0000 C   0  0  0  0  0  0  0  0  0  0  0  0
    3.7320   -3.0923    0.0000 C   0  0  0  0  0  0  0  0  0  0  0  0
    8.1301   -3.5715    0.0000 C   0  0  0  0  0  0  0  0  0  0  0  0
    4.4133    5.0715    0.0000 C   0  0  0  0  0  0  0  0  0  0  0  0
    4.1921    3.6747    0.0000 C   0  0  0  0  0  0  0  0  0  0  0  0
    5.8101    4.8503    0.0000 C   0  0  0  0  0  0  0  0  0  0  0  0
    8.9962   -3.0715    0.0000 C   0  0  0  0  0  0  0  0  0  0  0  0
    8.1301   -4.5715    0.0000 C   0  0  0  0  0  0  0  0  0  0  0  0
    2.0000   -3.0990    0.0000 C   0  0  0  0  0  0  0  0  0  0  0  0
    2.8718   -4.5956    0.0000 C   0  0  0  0  0  0  0  0  0  0  0  0
    9.8622   -3.5715    0.0000 C   0  0  0  0  0  0  0  0  0  0  0  0
    8.9962   -5.0715    0.0000 C   0  0  0  0  0  0  0  0  0  0  0  0
    9.8622   -4.5715    0.0000 C   0  0  0  0  0  0  0  0  0  0  0  0
   12.3783    0.1279    0.0000 H   0  0  0  0  0  0  0  0  0  0  0  0
   11.6189    0.6941    0.0000 H   0  0  0  0  0  0  0  0  0  0  0  0
   10.7511    0.3077    0.0000 H   0  0  0  0  0  0  0  0  0  0  0  0
    9.8836   -1.2548    0.0000 H   0  0  0  0  0  0  0  0  0  0  0  0
   13.4028   -1.1219    0.0000 H   0  0  0  0  0  0  0  0  0  0  0  0
    9.1844    0.7849    0.0000 H   0  0  0  0  0  0  0  0  0  0  0  0
    7.8676   -1.0152    0.0000 H   0  0  0  0  0  0  0  0  0  0  0  0
    8.6792   -0.8427    0.0000 H   0  0  0  0  0  0  0  0  0  0  0  0
    6.7441    0.2662    0.0000 H   0  0  0  0  0  0  0  0  0  0  0  0
    7.3038    1.5396    0.0000 H   0  0  0  0  0  0  0  0  0  0  0  0
    6.7486    0.9230    0.0000 H   0  0  0  0  0  0  0  0  0  0  0  0
   14.3550    0.1887    0.0000 H   0  0  0  0  0  0  0  0  0  0  0  0
   13.4862    0.8199    0.0000 H   0  0  0  0  0  0  0  0  0  0  0  0
    7.8013    3.3551    0.0000 H   0  0  0  0  0  0  0  0  0  0  0  0
   12.8960   -2.4422    0.0000 H   0  0  0  0  0  0  0  0  0  0  0  0
    6.9190    2.1826    0.0000 H   0  0  0  0  0  0  0  0  0  0  0  0
    9.5456    4.4284    0.0000 H   0  0  0  0  0  0  0  0  0  0  0  0
    9.2314    5.2470    0.0000 H   0  0  0  0  0  0  0  0  0  0  0  0
    8.4128    4.9328    0.0000 H   0  0  0  0  0  0  0  0  0  0  0  0
    7.9111    4.7402    0.0000 H   0  0  0  0  0  0  0  0  0  0  0  0
    7.0925    4.4260    0.0000 H   0  0  0  0  0  0  0  0  0  0  0  0
    7.4067    3.6074    0.0000 H   0  0  0  0  0  0  0  0  0  0  0  0
    9.2338    2.7939    0.0000 H   0  0  0  0  0  0  0  0  0  0  0  0
   10.0524    3.1081    0.0000 H   0  0  0  0  0  0  0  0  0  0  0  0
    9.7382    3.9267    0.0000 H   0  0  0  0  0  0  0  0  0  0  0  0
    7.8010   -1.7615    0.0000 H   0  0  0  0  0  0  0  0  0  0  0  0
    4.6453   -0.9169    0.0000 H   0  0  0  0  0  0  0  0  0  0  0  0
    4.6453   -4.2261    0.0000 H   0  0  0  0  0  0  0  0  0  0  0  0
    3.1963   -1.7386    0.0000 H   0  0  0  0  0  0  0  0  0  0  0  0
    4.9149    5.4359    0.0000 H   0  0  0  0  0  0  0  0  0  0  0  0
    4.0489    5.5731    0.0000 H   0  0  0  0  0  0  0  0  0  0  0  0
    3.9117    4.7071    0.0000 H   0  0  0  0  0  0  0  0  0  0  0  0
    3.8277    4.1763    0.0000 H   0  0  0  0  0  0  0  0  0  0  0  0
    3.6905    3.3103    0.0000 H   0  0  0  0  0  0  0  0  0  0  0  0
    4.5565    3.1731    0.0000 H   0  0  0  0  0  0  0  0  0  0  0  0
    6.1746    4.3487    0.0000 H   0  0  0  0  0  0  0  0  0  0  0  0
    6.3117    5.2147    0.0000 H   0  0  0  0  0  0  0  0  0  0  0  0
    5.4457    5.3518    0.0000 H   0  0  0  0  0  0  0  0  0  0  0  0
    8.9962   -2.4515    0.0000 H   0  0  0  0  0  0  0  0  0  0  0  0
    7.5932   -4.8815    0.0000 H   0  0  0  0  0  0  0  0  0  0  0  0
    2.3079   -2.5609    0.0000 H   0  0  0  0  0  0  0  0  0  0  0  0
    1.4619   -2.7911    0.0000 H   0  0  0  0  0  0  0  0  0  0  0  0
    1.6921   -3.6371    0.0000 H   0  0  0  0  0  0  0  0  0  0  0  0
    2.2518   -4.5980    0.0000 H   0  0  0  0  0  0  0  0  0  0  0  0
    2.8742   -5.2156    0.0000 H   0  0  0  0  0  0  0  0  0  0  0  0
    3.4918   -4.5932    0.0000 H   0  0  0  0  0  0  0  0  0  0  0  0
   10.3991   -3.2615    0.0000 H   0  0  0  0  0  0  0  0  0  0  0  0
    8.9962   -5.6915    0.0000 H   0  0  0  0  0  0  0  0  0  0  0  0
   10.3991   -4.8815    0.0000 H   0  0  0  0  0  0  0  0  0  0  0  0
  1 16  1  0  0  0  0
  1 66  1  0  0  0  0
  2 16  2  0  0  0  0
 21  3  1  1  0  0  0
  3 30  1  0  0  0  0
  4 19  2  0  0  0  0
  5 23  2  0  0  0  0
  6 32  1  0  0  0  0
  6 37  1  0  0  0  0
  7 32  2  0  0  0  0
  8 13  1  0  0  0  0
  8 19  1  0  0  0  0
  8 55  1  0  0  0  0
  9 18  1  0  0  0  0
  9 22  1  0  0  0  0
  9 23  1  0  0  0  0
 25 10  1  1  0  0  0
 10 32  1  0  0  0  0
 10 67  1  0  0  0  0
 11 34  1  0  0  0  0
 11 35  2  0  0  0  0
 12 40  1  0  0  0  0
 12 47  1  0  0  0  0
 12 48  1  0  0  0  0
 13 14  1  0  0  0  0
 13 15  1  0  0  0  0
 13 16  1  0  0  0  0
 14 15  1  0  0  0  0
 14 17  1  6  0  0  0
 14 52  1  0  0  0  0
 15 53  1  0  0  0  0
 15 54  1  0  0  0  0
 17 24  2  0  0  0  0
 17 56  1  0  0  0  0
 18 19  1  6  0  0  0
 18 20  1  0  0  0  0
 18 57  1  0  0  0  0
 20 21  1  0  0  0  0
 20 58  1  0  0  0  0
 20 59  1  0  0  0  0
 21 22  1  0  0  0  0
 21 60  1  0  0  0  0
 22 61  1  0  0  0  0
 22 62  1  0  0  0  0
 23 25  1  0  0  0  0
 24 63  1  0  0  0  0
 24 64  1  0  0  0  0
 25 26  1  0  0  0  0
 25 65  1  0  0  0  0
 26 27  1  0  0  0  0
 26 28  1  0  0  0  0
 26 29  1  0  0  0  0
 27 68  1  0  0  0  0
 27 69  1  0  0  0  0
 27 70  1  0  0  0  0
 28 71  1  0  0  0  0
 28 72  1  0  0  0  0
 28 73  1  0  0  0  0
 29 74  1  0  0  0  0
 29 75  1  0  0  0  0
 29 76  1  0  0  0  0
 30 31  1  0  0  0  0
 30 33  2  0  0  0  0
 31 34  2  0  0  0  0
 31 36  1  0  0  0  0
 33 35  1  0  0  0  0
 33 77  1  0  0  0  0
 34 38  1  0  0  0  0
 35 41  1  0  0  0  0
 36 39  2  0  0  0  0
 36 78  1  0  0  0  0
 37 42  1  0  0  0  0
 37 43  1  0  0  0  0
 37 44  1  0  0  0  0
 38 40  2  0  0  0  0
 38 79  1  0  0  0  0
 39 40  1  0  0  0  0
 39 80  1  0  0  0  0
 41 45  2  0  0  0  0
 41 46  1  0  0  0  0
 42 81  1  0  0  0  0
 42 82  1  0  0  0  0
 42 83  1  0  0  0  0
 43 84  1  0  0  0  0
 43 85  1  0  0  0  0
 43 86  1  0  0  0  0
 44 87  1  0  0  0  0
 44 88  1  0  0  0  0
 44 89  1  0  0  0  0
 45 49  1  0  0  0  0
 45 90  1  0  0  0  0
 46 50  2  0  0  0  0
 46 91  1  0  0  0  0
 47 92  1  0  0  0  0
 47 93  1  0  0  0  0
 47 94  1  0  0  0  0
 48 95  1  0  0  0  0
 48 96  1  0  0  0  0
 48 97  1  0  0  0  0
 49 51  2  0  0  0  0
 49 98  1  0  0  0  0
 50 51  1  0  0  0  0
 50 99  1  0  0  0  0
 51100  1  0  0  0  0
M  END
> <PUBCHEM_COMPOUND_CID>
500698
> <PUBCHEM_COMPOUND_CANONICALIZED>
1
> <PUBCHEM_CACTVS_COMPLEXITY>
1300
> <PUBCHEM_CACTVS_HBOND_ACCEPTOR>
9
> <PUBCHEM_CACTVS_HBOND_DONOR>
3
> <PUBCHEM_CACTVS_ROTATABLE_BOND>
13
> <PUBCHEM_CACTVS_SUBSKEYS>
AAADcfB/uAAAAAAAAAAAAAAAGAAAAWAAAAA8YIAAAAAAAACx9AAAHgAQCAAAD/zhngYyzvPIFgCoAyXyXACCiCAhIiAImKG+bJkOZvLE8fuffCjm1hnY6Ae60eMPCAAAAAQCAAAQAAAACAQAAAAAAAAAAA==
> <PUBCHEM_IUPAC_OPENEYE_NAME>
(2R)-1-[[(2S,4R)-1-[(2S)-2-(tert-butoxycarbonylamino)-3,3-dimethyl-butanoyl]-4-[[7-(dimethylamino)-2-phenyl-4-quinolyl]oxy]pyrrolidine-2-carbonyl]amino]-2-vinyl-cyclopropanecarboxylic acid
> <PUBCHEM_IUPAC_CAS_NAME>
(2R)-1-[[[(2S,4R)-4-[[7-(dimethylamino)-2-phenyl-4-quinolinyl]oxy]-1-[(2S)-3,3-dimethyl-2-[[(2-methylpropan-2-yl)oxy-oxomethyl]amino]-1-oxobutyl]-2-pyrrolidinyl]-oxomethyl]amino]-2-ethenyl-1-cyclopropanecarboxylic acid
> <PUBCHEM_IUPAC_NAME_MARKUP>
(2<I>R</I>)-1-[[(2<I>S</I>,4<I>R</I>)-4-[7-(dimethylamino)-2-phenylquinolin-4-yl]oxy-1-[(2<I>S</I>)-3,3-dimethyl-2-[(2-methylpropan-2-yl)oxycarbonylamino]butanoyl]pyrrolidine-2-carbonyl]amino]-2-ethenylcyclopropane-1-carboxylic acid
> <PUBCHEM_IUPAC_NAME>
(2R)-1-[[(2S,4R)-4-[7-(dimethylamino)-2-phenylquinolin-4-yl]oxy-1-[(2S)-3,3-dimethyl-2-[(2-methylpropan-2-yl)oxycarbonylamino]butanoyl]pyrrolidine-2-carbonyl]amino]-2-ethenylcyclopropane-1-carboxylic acid
> <PUBCHEM_IUPAC_SYSTEMATIC_NAME>
(2R)-1-[[(2S,4R)-4-[7-(dimethylamino)-2-phenyl-quinolin-4-yl]oxy-1-[(2S)-3,3-dimethyl-2-[(2-methylpropan-2-yl)oxycarbonylamino]butanoyl]pyrrolidin-2-yl]carbonylamino]-2-ethenyl-cyclopropane-1-carboxylic acid
> <PUBCHEM_IUPAC_TRADITIONAL_NAME>
(2R)-1-[[(2S,4R)-1-[(2S)-2-(tert-butoxycarbonylamino)-3,3-dimethyl-butanoyl]-4-[[7-(dimethylamino)-2-phenyl-4-quinolyl]oxy]prolyl]amino]-2-vinyl-cyclopropanecarboxylic acid
> <PUBCHEM_IUPAC_INCHI>
InChI=1S/C39H49N5O7/c1-10-24-21-39(24,35(47)48)42-33(45)30-19-26(22-44(30)34(46)32(37(2,3)4)41-36(49)51-38(5,6)7)50-31-20-28(23-14-12-11-13-15-23)40-29-18-25(43(8)9)16-17-27(29)31/h10-18,20,24,26,30,32H,1,19,21-22H2,2-9H3,(H,41,49)(H,42,45)(H,47,48)/t24-,26+,30-,32+,39?/m0/s1
> <PUBCHEM_IUPAC_INCHIKEY>
ACTWPNDQYNUFNT-NXAPKZNWSA-N
> <PUBCHEM_XLOGP3_AA>
6
> <PUBCHEM_EXACT_MASS>
699.36319892
> <PUBCHEM_MOLECULAR_FORMULA>
C39H49N5O7
> <PUBCHEM_MOLECULAR_WEIGHT>
699.8
> <PUBCHEM_OPENEYE_CAN_SMILES>
CC(C)(C)C(C(=O)N1CC(CC1C(=O)NC2(CC2C=C)C(=O)O)OC3=CC(=NC4=C3C=CC(=C4)N(C)C)C5=CC=CC=C5)NC(=O)OC(C)(C)C
> <PUBCHEM_OPENEYE_ISO_SMILES>
CC(C)(C)[C@@H](C(=O)N1C[C@@H](C[C@H]1C(=O)NC2(C[C@@H]2C=C)C(=O)O)OC3=CC(=NC4=C3C=CC(=C4)N(C)C)C5=CC=CC=C5)NC(=O)OC(C)(C)C
> <PUBCHEM_CACTVS_TPSA>
150
> <PUBCHEM_MONOISOTOPIC_WEIGHT>
699.36319892
> <PUBCHEM_TOTAL_CHARGE>
0
> <PUBCHEM_HEAVY_ATOM_COUNT>
51
> <PUBCHEM_ATOM_DEF_STEREO_COUNT>
4
> <PUBCHEM_ATOM_UDEF_STEREO_COUNT>
1
> <PUBCHEM_BOND_DEF_STEREO_COUNT>
0
> <PUBCHEM_BOND_UDEF_STEREO_COUNT>
0
> <PUBCHEM_ISOTOPIC_ATOM_COUNT>
0
> <PUBCHEM_COMPONENT_COUNT>
1
> <PUBCHEM_CACTVS_TAUTO_COUNT>
-1
> <PUBCHEM_COORDINATE_TYPE>
1
5
255
> <PUBCHEM_BONDANNOTATIONS>
25  10  5
11  34  8
11  35  8
13  16  3
14  17  6
18  19  6
21  3  5
30  31  8
30  33  8
31  34  8
31  36  8
33  35  8
34  38  8
36  39  8
38  40  8
39  40  8
41  45  8
41  46  8
45  49  8
46  50  8
49  51  8
50  51  8
$$$$
