500625
  -OEChem-10302200282D
 95100  0     1  0  0  0  0  0999 V2000
    8.8739    1.1201    0.0000 O   0  0  0  0  0  0  0  0  0  0  0  0
   13.1263   -3.6367    0.0000 O   0  0  0  0  0  0  0  0  0  0  0  0
    9.5549   -3.1413    0.0000 O   0  0  0  0  0  0  0  0  0  0  0  0
    8.1928   -3.1413    0.0000 O   0  0  0  0  0  0  0  0  0  0  0  0
   12.9452   -1.9142    0.0000 O   0  0  0  0  0  0  0  0  0  0  0  0
    4.8025   -1.9142    0.0000 O   0  0  0  0  0  0  0  0  0  0  0  0
    8.3739   -1.4187    0.0000 N   0  0  0  0  0  0  0  0  0  0  0  0
   10.9562   -2.1232    0.0000 N   0  0  0  0  0  0  0  0  0  0  0  0
    6.3848   -1.2097    0.0000 N   0  0  0  0  0  0  0  0  0  0  0  0
   11.5440   -2.9322    0.0000 C   0  0  0  0  0  0  0  0  0  0  0  0
   10.7349   -3.5200    0.0000 C   0  0  0  0  0  0  0  0  0  0  0  0
   11.6485   -3.9267    0.0000 C   0  0  0  0  0  0  0  0  0  0  0  0
    9.3739   -1.4187    0.0000 C   0  0  1  0  0  0  0  0  0  0  0  0
    6.2038   -2.9322    0.0000 C   0  0  0  0  0  0  0  0  0  0  0  0
    6.7916   -2.1232    0.0000 C   0  0  1  0  0  0  0  0  0  0  0  0
    9.6829   -0.4677    0.0000 C   0  0  0  0  0  0  0  0  0  0  0  0
    8.8739    0.1201    0.0000 C   0  0  2  0  0  0  0  0  0  0  0  0
    8.0648   -0.4677    0.0000 C   0  0  0  0  0  0  0  0  0  0  0  0
    5.2092   -2.8277    0.0000 C   0  0  0  0  0  0  0  0  0  0  0  0
    6.6105   -3.8458    0.0000 C   0  0  0  0  0  0  0  0  0  0  0  0
    9.9616   -2.2277    0.0000 C   0  0  0  0  0  0  0  0  0  0  0  0
    7.7861   -2.2277    0.0000 C   0  0  0  0  0  0  0  0  0  0  0  0
    3.9890   -0.0871    0.0000 C   0  0  0  0  0  0  0  0  0  0  0  0
   12.5385   -2.8277    0.0000 C   0  0  0  0  0  0  0  0  0  0  0  0
    4.6215   -3.6367    0.0000 C   0  0  0  0  0  0  0  0  0  0  0  0
    6.0227   -4.6548    0.0000 C   0  0  0  0  0  0  0  0  0  0  0  0
    5.0282   -4.5503    0.0000 C   0  0  0  0  0  0  0  0  0  0  0  0
    4.9836   -0.1916    0.0000 C   0  0  3  0  0  0  0  0  0  0  0  0
    3.4013   -0.8961    0.0000 C   0  0  0  0  0  0  0  0  0  0  0  0
    3.5823    0.8265    0.0000 C   0  0  0  0  0  0  0  0  0  0  0  0
    5.3903   -1.1051    0.0000 C   0  0  0  0  0  0  0  0  0  0  0  0
    2.4067   -0.7915    0.0000 C   0  0  0  0  0  0  0  0  0  0  0  0
    2.5878    0.9310    0.0000 C   0  0  0  0  0  0  0  0  0  0  0  0
    2.0000    0.1220    0.0000 C   0  0  0  0  0  0  0  0  0  0  0  0
    5.5714    0.6174    0.0000 C   0  0  0  0  0  0  0  0  0  0  0  0
    9.7399    1.6201    0.0000 C   0  0  0  0  0  0  0  0  0  0  0  0
    9.7399    2.6201    0.0000 C   0  0  0  0  0  0  0  0  0  0  0  0
   10.6059    3.1201    0.0000 C   0  0  0  0  0  0  0  0  0  0  0  0
    8.8739    3.1201    0.0000 C   0  0  0  0  0  0  0  0  0  0  0  0
   10.6059    4.1201    0.0000 C   0  0  0  0  0  0  0  0  0  0  0  0
    8.8739    4.1201    0.0000 C   0  0  0  0  0  0  0  0  0  0  0  0
   11.4999    2.5855    0.0000 C   0  0  0  0  0  0  0  0  0  0  0  0
    9.7399    4.6201    0.0000 C   0  0  0  0  0  0  0  0  0  0  0  0
   11.4999    4.6548    0.0000 C   0  0  0  0  0  0  0  0  0  0  0  0
   12.4059    3.0993    0.0000 C   0  0  0  0  0  0  0  0  0  0  0  0
   12.4059    4.1409    0.0000 C   0  0  0  0  0  0  0  0  0  0  0  0
   10.2890   -3.0893    0.0000 H   0  0  0  0  0  0  0  0  0  0  0  0
   10.3882   -4.0340    0.0000 H   0  0  0  0  0  0  0  0  0  0  0  0
   11.4985   -4.5283    0.0000 H   0  0  0  0  0  0  0  0  0  0  0  0
   12.2670   -3.9700    0.0000 H   0  0  0  0  0  0  0  0  0  0  0  0
    9.0924   -1.9711    0.0000 H   0  0  0  0  0  0  0  0  0  0  0  0
    6.8204   -2.9970    0.0000 H   0  0  0  0  0  0  0  0  0  0  0  0
    6.1750   -2.0584    0.0000 H   0  0  0  0  0  0  0  0  0  0  0  0
   11.2084   -1.5568    0.0000 H   0  0  0  0  0  0  0  0  0  0  0  0
   10.2493   -0.7198    0.0000 H   0  0  0  0  0  0  0  0  0  0  0  0
    9.9929    0.0693    0.0000 H   0  0  0  0  0  0  0  0  0  0  0  0
    9.4263    0.4016    0.0000 H   0  0  0  0  0  0  0  0  0  0  0  0
    7.7548    0.0693    0.0000 H   0  0  0  0  0  0  0  0  0  0  0  0
    7.4984   -0.7198    0.0000 H   0  0  0  0  0  0  0  0  0  0  0  0
    5.3802   -2.2317    0.0000 H   0  0  0  0  0  0  0  0  0  0  0  0
    4.6520   -2.5559    0.0000 H   0  0  0  0  0  0  0  0  0  0  0  0
    7.0412   -4.2918    0.0000 H   0  0  0  0  0  0  0  0  0  0  0  0
    7.1245   -3.4991    0.0000 H   0  0  0  0  0  0  0  0  0  0  0  0
    4.2412   -0.6535    0.0000 H   0  0  0  0  0  0  0  0  0  0  0  0
    4.1908   -3.1907    0.0000 H   0  0  0  0  0  0  0  0  0  0  0  0
    4.1075   -3.9834    0.0000 H   0  0  0  0  0  0  0  0  0  0  0  0
    5.8518   -5.2508    0.0000 H   0  0  0  0  0  0  0  0  0  0  0  0
    6.5800   -4.9266    0.0000 H   0  0  0  0  0  0  0  0  0  0  0  0
    5.6002   -0.2564    0.0000 H   0  0  0  0  0  0  0  0  0  0  0  0
    4.4266   -4.7002    0.0000 H   0  0  0  0  0  0  0  0  0  0  0  0
    5.0714   -5.1688    0.0000 H   0  0  0  0  0  0  0  0  0  0  0  0
    6.7492   -0.7081    0.0000 H   0  0  0  0  0  0  0  0  0  0  0  0
    3.2304   -1.4921    0.0000 H   0  0  0  0  0  0  0  0  0  0  0  0
    3.9585   -1.1679    0.0000 H   0  0  0  0  0  0  0  0  0  0  0  0
    4.1839    0.9765    0.0000 H   0  0  0  0  0  0  0  0  0  0  0  0
    3.5391    1.4450    0.0000 H   0  0  0  0  0  0  0  0  0  0  0  0
    1.8052   -0.9415    0.0000 H   0  0  0  0  0  0  0  0  0  0  0  0
    2.4500   -1.4100    0.0000 H   0  0  0  0  0  0  0  0  0  0  0  0
    2.7587    1.5270    0.0000 H   0  0  0  0  0  0  0  0  0  0  0  0
    2.0305    1.2028    0.0000 H   0  0  0  0  0  0  0  0  0  0  0  0
    1.5693    0.5680    0.0000 H   0  0  0  0  0  0  0  0  0  0  0  0
    1.4860   -0.2247    0.0000 H   0  0  0  0  0  0  0  0  0  0  0  0
    6.0729    0.2530    0.0000 H   0  0  0  0  0  0  0  0  0  0  0  0
    5.9358    1.1190    0.0000 H   0  0  0  0  0  0  0  0  0  0  0  0
    5.0698    0.9819    0.0000 H   0  0  0  0  0  0  0  0  0  0  0  0
   13.7429   -3.5719    0.0000 H   0  0  0  0  0  0  0  0  0  0  0  0
    9.9520    1.0375    0.0000 H   0  0  0  0  0  0  0  0  0  0  0  0
   10.3505    1.7278    0.0000 H   0  0  0  0  0  0  0  0  0  0  0  0
    8.3369    2.8101    0.0000 H   0  0  0  0  0  0  0  0  0  0  0  0
    8.3369    4.4301    0.0000 H   0  0  0  0  0  0  0  0  0  0  0  0
   11.4927    1.9655    0.0000 H   0  0  0  0  0  0  0  0  0  0  0  0
    9.7399    5.2401    0.0000 H   0  0  0  0  0  0  0  0  0  0  0  0
   11.4927    5.2747    0.0000 H   0  0  0  0  0  0  0  0  0  0  0  0
   12.9417    2.7872    0.0000 H   0  0  0  0  0  0  0  0  0  0  0  0
   12.9417    4.4530    0.0000 H   0  0  0  0  0  0  0  0  0  0  0  0
 17  1  1  6  0  0  0
  1 36  1  0  0  0  0
  2 24  1  0  0  0  0
  2 86  1  0  0  0  0
  3 21  2  0  0  0  0
  4 22  2  0  0  0  0
  5 24  2  0  0  0  0
  6 31  2  0  0  0  0
  7 13  1  0  0  0  0
  7 18  1  0  0  0  0
  7 22  1  0  0  0  0
  8 10  1  0  0  0  0
  8 21  1  0  0  0  0
  8 54  1  0  0  0  0
 15  9  1  6  0  0  0
  9 31  1  0  0  0  0
  9 72  1  0  0  0  0
 10 11  1  0  0  0  0
 10 12  1  0  0  0  0
 10 24  1  0  0  0  0
 11 12  1  0  0  0  0
 11 47  1  0  0  0  0
 11 48  1  0  0  0  0
 12 49  1  0  0  0  0
 12 50  1  0  0  0  0
 13 16  1  0  0  0  0
 13 21  1  1  0  0  0
 13 51  1  0  0  0  0
 14 15  1  0  0  0  0
 14 19  1  0  0  0  0
 14 20  1  0  0  0  0
 14 52  1  0  0  0  0
 15 22  1  0  0  0  0
 15 53  1  0  0  0  0
 16 17  1  0  0  0  0
 16 55  1  0  0  0  0
 16 56  1  0  0  0  0
 17 18  1  0  0  0  0
 17 57  1  0  0  0  0
 18 58  1  0  0  0  0
 18 59  1  0  0  0  0
 19 25  1  0  0  0  0
 19 60  1  0  0  0  0
 19 61  1  0  0  0  0
 20 26  1  0  0  0  0
 20 62  1  0  0  0  0
 20 63  1  0  0  0  0
 23 28  1  0  0  0  0
 23 29  1  0  0  0  0
 23 30  1  0  0  0  0
 23 64  1  0  0  0  0
 25 27  1  0  0  0  0
 25 65  1  0  0  0  0
 25 66  1  0  0  0  0
 26 27  1  0  0  0  0
 26 67  1  0  0  0  0
 26 68  1  0  0  0  0
 27 70  1  0  0  0  0
 27 71  1  0  0  0  0
 28 31  1  0  0  0  0
 28 35  1  0  0  0  0
 28 69  1  0  0  0  0
 29 32  1  0  0  0  0
 29 73  1  0  0  0  0
 29 74  1  0  0  0  0
 30 33  1  0  0  0  0
 30 75  1  0  0  0  0
 30 76  1  0  0  0  0
 32 34  1  0  0  0  0
 32 77  1  0  0  0  0
 32 78  1  0  0  0  0
 33 34  1  0  0  0  0
 33 79  1  0  0  0  0
 33 80  1  0  0  0  0
 34 81  1  0  0  0  0
 34 82  1  0  0  0  0
 35 83  1  0  0  0  0
 35 84  1  0  0  0  0
 35 85  1  0  0  0  0
 36 37  1  0  0  0  0
 36 87  1  0  0  0  0
 36 88  1  0  0  0  0
 37 38  1  0  0  0  0
 37 39  2  0  0  0  0
 38 40  1  0  0  0  0
 38 42  2  0  0  0  0
 39 41  1  0  0  0  0
 39 89  1  0  0  0  0
 40 43  1  0  0  0  0
 40 44  2  0  0  0  0
 41 43  2  0  0  0  0
 41 90  1  0  0  0  0
 42 45  1  0  0  0  0
 42 91  1  0  0  0  0
 43 92  1  0  0  0  0
 44 46  1  0  0  0  0
 44 93  1  0  0  0  0
 45 46  2  0  0  0  0
 45 94  1  0  0  0  0
 46 95  1  0  0  0  0
M  END
> <PUBCHEM_COMPOUND_CID>
500625
> <PUBCHEM_COMPOUND_CANONICALIZED>
1
> <PUBCHEM_CACTVS_COMPLEXITY>
1100
> <PUBCHEM_CACTVS_HBOND_ACCEPTOR>
6
> <PUBCHEM_CACTVS_HBOND_DONOR>
3
> <PUBCHEM_CACTVS_ROTATABLE_BOND>
11
> <PUBCHEM_CACTVS_SUBSKEYS>
AAADcfB/OAAAAAAAAAAAAAAAGAAAAWAAAAAwYMGAAAAAAADBUAAAHgAQCAAADbzhmAYyCMPABgCIAiHSGAACAAAgAAAIiIGICIgKZjKAsTiXcAAm1gGYqAe6yeCOgAACAAAQAAAAAAQAACAAAAAAAAAAAA==
> <PUBCHEM_IUPAC_OPENEYE_NAME>
1-[[(2S,4R)-1-[(2S)-2-cyclohexyl-2-(2-cyclohexylpropanoylamino)acetyl]-4-(1-naphthylmethoxy)pyrrolidine-2-carbonyl]amino]cyclopropanecarboxylic acid
> <PUBCHEM_IUPAC_CAS_NAME>
1-[[[(2S,4R)-1-[(2S)-2-cyclohexyl-2-[(2-cyclohexyl-1-oxopropyl)amino]-1-oxoethyl]-4-(1-naphthalenylmethoxy)-2-pyrrolidinyl]-oxomethyl]amino]-1-cyclopropanecarboxylic acid
> <PUBCHEM_IUPAC_NAME_MARKUP>
1-[[(2<I>S</I>,4<I>R</I>)-1-[(2<I>S</I>)-2-cyclohexyl-2-(2-cyclohexylpropanoylamino)acetyl]-4-(naphthalen-1-ylmethoxy)pyrrolidine-2-carbonyl]amino]cyclopropane-1-carboxylic acid
> <PUBCHEM_IUPAC_NAME>
1-[[(2S,4R)-1-[(2S)-2-cyclohexyl-2-(2-cyclohexylpropanoylamino)acetyl]-4-(naphthalen-1-ylmethoxy)pyrrolidine-2-carbonyl]amino]cyclopropane-1-carboxylic acid
> <PUBCHEM_IUPAC_SYSTEMATIC_NAME>
1-[[(2S,4R)-1-[(2S)-2-cyclohexyl-2-(2-cyclohexylpropanoylamino)ethanoyl]-4-(naphthalen-1-ylmethoxy)pyrrolidin-2-yl]carbonylamino]cyclopropane-1-carboxylic acid
> <PUBCHEM_IUPAC_TRADITIONAL_NAME>
1-[[(2S,4R)-1-[(2S)-2-cyclohexyl-2-(2-cyclohexylpropanoylamino)acetyl]-4-(1-naphthylmethoxy)prolyl]amino]cyclopropanecarboxylic acid
> <PUBCHEM_IUPAC_INCHI>
InChI=1S/C37H49N3O6/c1-24(25-11-4-2-5-12-25)33(41)38-32(27-14-6-3-7-15-27)35(43)40-22-29(21-31(40)34(42)39-37(19-20-37)36(44)45)46-23-28-17-10-16-26-13-8-9-18-30(26)28/h8-10,13,16-18,24-25,27,29,31-32H,2-7,11-12,14-15,19-23H2,1H3,(H,38,41)(H,39,42)(H,44,45)/t24?,29-,31+,32+/m1/s1
> <PUBCHEM_IUPAC_INCHIKEY>
SODYLEJBBDNULJ-AZHFNRCASA-N
> <PUBCHEM_XLOGP3_AA>
6.8
> <PUBCHEM_EXACT_MASS>
631.36213629
> <PUBCHEM_MOLECULAR_FORMULA>
C37H49N3O6
> <PUBCHEM_MOLECULAR_WEIGHT>
631.8
> <PUBCHEM_OPENEYE_CAN_SMILES>
CC(C1CCCCC1)C(=O)NC(C2CCCCC2)C(=O)N3CC(CC3C(=O)NC4(CC4)C(=O)O)OCC5=CC=CC6=CC=CC=C65
> <PUBCHEM_OPENEYE_ISO_SMILES>
CC(C1CCCCC1)C(=O)N[C@@H](C2CCCCC2)C(=O)N3C[C@@H](C[C@H]3C(=O)NC4(CC4)C(=O)O)OCC5=CC=CC6=CC=CC=C65
> <PUBCHEM_CACTVS_TPSA>
125
> <PUBCHEM_MONOISOTOPIC_WEIGHT>
631.36213629
> <PUBCHEM_TOTAL_CHARGE>
0
> <PUBCHEM_HEAVY_ATOM_COUNT>
46
> <PUBCHEM_ATOM_DEF_STEREO_COUNT>
3
> <PUBCHEM_ATOM_UDEF_STEREO_COUNT>
1
> <PUBCHEM_BOND_DEF_STEREO_COUNT>
0
> <PUBCHEM_BOND_UDEF_STEREO_COUNT>
0
> <PUBCHEM_ISOTOPIC_ATOM_COUNT>
0
> <PUBCHEM_COMPONENT_COUNT>
1
> <PUBCHEM_CACTVS_TAUTO_COUNT>
-1
> <PUBCHEM_COORDINATE_TYPE>
1
5
255
> <PUBCHEM_BONDANNOTATIONS>
17  1  6
13  21  5
28  35  3
37  38  8
37  39  8
38  40  8
38  42  8
39  41  8
40  43  8
40  44  8
41  43  8
42  45  8
44  46  8
45  46  8
15  9  6
$$$$
