500648
  -OEChem-10302200282D
 86 90  0     1  0  0  0  0  0999 V2000
    2.6280    0.5754    0.0000 O   0  0  0  0  0  0  0  0  0  0  0  0
    9.2358   -1.5655    0.0000 O   0  0  0  0  0  0  0  0  0  0  0  0
    4.0292    1.5934    0.0000 O   0  0  0  0  0  0  0  0  0  0  0  0
    5.3858   -1.7472    0.0000 O   0  0  0  0  0  0  0  0  0  0  0  0
    5.8858    1.1550    0.0000 O   0  0  0  0  0  0  0  0  0  0  0  0
   10.0450    2.4595    0.0000 O   0  0  0  0  0  0  0  0  0  0  0  0
    8.6437    3.4775    0.0000 O   0  0  0  0  0  0  0  0  0  0  0  0
    5.2048   -0.0246    0.0000 N   0  0  0  0  0  0  0  0  0  0  0  0
    7.2871    0.1369    0.0000 N   0  0  0  0  0  0  0  0  0  0  0  0
    8.4627    1.7550    0.0000 N   0  0  0  0  0  0  0  0  0  0  0  0
   10.9958   -4.6002    0.0000 N   0  0  0  0  0  0  0  0  0  0  0  0
    4.2103   -0.1291    0.0000 C   0  0  3  0  0  0  0  0  0  0  0  0
    3.4013   -0.7169    0.0000 C   0  0  2  0  0  0  0  0  0  0  0  0
    4.3148   -1.1236    0.0000 C   0  0  0  0  0  0  0  0  0  0  0  0
    6.7871   -0.7291    0.0000 C   0  0  2  0  0  0  0  0  0  0  0  0
    3.6225    0.6799    0.0000 C   0  0  0  0  0  0  0  0  0  0  0  0
    2.4067   -0.8214    0.0000 C   0  0  0  0  0  0  0  0  0  0  0  0
    5.7926   -0.8336    0.0000 C   0  0  0  0  0  0  0  0  0  0  0  0
    7.4562   -1.4722    0.0000 C   0  0  0  0  0  0  0  0  0  0  0  0
    8.3698   -1.0655    0.0000 C   0  0  2  0  0  0  0  0  0  0  0  0
    7.0614    2.7731    0.0000 C   0  0  0  0  0  0  0  0  0  0  0  0
    8.2652   -0.0710    0.0000 C   0  0  0  0  0  0  0  0  0  0  0  0
    7.4682    1.8595    0.0000 C   0  0  1  0  0  0  0  0  0  0  0  0
    6.8804    1.0505    0.0000 C   0  0  0  0  0  0  0  0  0  0  0  0
    7.6492    3.5821    0.0000 C   0  0  0  0  0  0  0  0  0  0  0  0
    6.0669    2.8776    0.0000 C   0  0  0  0  0  0  0  0  0  0  0  0
    7.2425    4.4956    0.0000 C   0  0  0  0  0  0  0  0  0  0  0  0
    5.6602    3.7911    0.0000 C   0  0  0  0  0  0  0  0  0  0  0  0
    6.2479    4.6002    0.0000 C   0  0  0  0  0  0  0  0  0  0  0  0
    2.0000   -1.7350    0.0000 C   0  0  0  0  0  0  0  0  0  0  0  0
    9.2358   -2.5655    0.0000 C   0  0  0  0  0  0  0  0  0  0  0  0
    9.0505    2.5640    0.0000 C   0  0  0  0  0  0  0  0  0  0  0  0
   10.1018   -3.0655    0.0000 C   0  0  0  0  0  0  0  0  0  0  0  0
    8.3698   -3.0655    0.0000 C   0  0  0  0  0  0  0  0  0  0  0  0
   10.6328    3.2685    0.0000 C   0  0  0  0  0  0  0  0  0  0  0  0
   10.1018   -4.0655    0.0000 C   0  0  0  0  0  0  0  0  0  0  0  0
    8.3698   -4.0655    0.0000 C   0  0  0  0  0  0  0  0  0  0  0  0
   10.9958   -2.5308    0.0000 C   0  0  0  0  0  0  0  0  0  0  0  0
    9.2358   -4.5655    0.0000 C   0  0  0  0  0  0  0  0  0  0  0  0
   11.2206    4.0775    0.0000 C   0  0  0  0  0  0  0  0  0  0  0  0
   11.4418    2.6807    0.0000 C   0  0  0  0  0  0  0  0  0  0  0  0
    9.8238    3.8563    0.0000 C   0  0  0  0  0  0  0  0  0  0  0  0
   11.9018   -3.0447    0.0000 C   0  0  0  0  0  0  0  0  0  0  0  0
   11.9018   -4.0863    0.0000 C   0  0  0  0  0  0  0  0  0  0  0  0
    3.1791   -0.1381    0.0000 H   0  0  0  0  0  0  0  0  0  0  0  0
    4.1648   -1.7252    0.0000 H   0  0  0  0  0  0  0  0  0  0  0  0
    4.9333   -1.1669    0.0000 H   0  0  0  0  0  0  0  0  0  0  0  0
    5.4570    0.5418    0.0000 H   0  0  0  0  0  0  0  0  0  0  0  0
    6.4494   -0.2091    0.0000 H   0  0  0  0  0  0  0  0  0  0  0  0
    2.0423   -0.3198    0.0000 H   0  0  0  0  0  0  0  0  0  0  0  0
    6.9546   -1.8366    0.0000 H   0  0  0  0  0  0  0  0  0  0  0  0
    7.7662   -2.0092    0.0000 H   0  0  0  0  0  0  0  0  0  0  0  0
    8.3373   -1.6846    0.0000 H   0  0  0  0  0  0  0  0  0  0  0  0
    7.6780    2.7082    0.0000 H   0  0  0  0  0  0  0  0  0  0  0  0
    8.8852   -0.0710    0.0000 H   0  0  0  0  0  0  0  0  0  0  0  0
    8.3301    0.5456    0.0000 H   0  0  0  0  0  0  0  0  0  0  0  0
    7.7203    1.2931    0.0000 H   0  0  0  0  0  0  0  0  0  0  0  0
    8.0799    3.1361    0.0000 H   0  0  0  0  0  0  0  0  0  0  0  0
    8.1632    3.9288    0.0000 H   0  0  0  0  0  0  0  0  0  0  0  0
    5.4653    2.7276    0.0000 H   0  0  0  0  0  0  0  0  0  0  0  0
    6.1101    2.2591    0.0000 H   0  0  0  0  0  0  0  0  0  0  0  0
    7.8440    4.6456    0.0000 H   0  0  0  0  0  0  0  0  0  0  0  0
    7.1992    5.1141    0.0000 H   0  0  0  0  0  0  0  0  0  0  0  0
    5.2295    4.2371    0.0000 H   0  0  0  0  0  0  0  0  0  0  0  0
    5.1461    3.4444    0.0000 H   0  0  0  0  0  0  0  0  0  0  0  0
    6.4188    5.1961    0.0000 H   0  0  0  0  0  0  0  0  0  0  0  0
    5.6907    4.8719    0.0000 H   0  0  0  0  0  0  0  0  0  0  0  0
    1.3834   -1.7998    0.0000 H   0  0  0  0  0  0  0  0  0  0  0  0
    2.3644   -2.2366    0.0000 H   0  0  0  0  0  0  0  0  0  0  0  0
    2.2635    1.0770    0.0000 H   0  0  0  0  0  0  0  0  0  0  0  0
    8.7148    1.1886    0.0000 H   0  0  0  0  0  0  0  0  0  0  0  0
    7.8328   -2.7555    0.0000 H   0  0  0  0  0  0  0  0  0  0  0  0
    7.8328   -4.3755    0.0000 H   0  0  0  0  0  0  0  0  0  0  0  0
   10.9886   -1.9109    0.0000 H   0  0  0  0  0  0  0  0  0  0  0  0
    9.2358   -5.1855    0.0000 H   0  0  0  0  0  0  0  0  0  0  0  0
   11.7221    3.7131    0.0000 H   0  0  0  0  0  0  0  0  0  0  0  0
   11.5850    4.5791    0.0000 H   0  0  0  0  0  0  0  0  0  0  0  0
   10.7190    4.4419    0.0000 H   0  0  0  0  0  0  0  0  0  0  0  0
   11.0774    2.1791    0.0000 H   0  0  0  0  0  0  0  0  0  0  0  0
   11.9434    2.3163    0.0000 H   0  0  0  0  0  0  0  0  0  0  0  0
   11.8062    3.1823    0.0000 H   0  0  0  0  0  0  0  0  0  0  0  0
   10.1882    4.3579    0.0000 H   0  0  0  0  0  0  0  0  0  0  0  0
    9.3222    4.2207    0.0000 H   0  0  0  0  0  0  0  0  0  0  0  0
    9.4593    3.3547    0.0000 H   0  0  0  0  0  0  0  0  0  0  0  0
   12.4376   -2.7326    0.0000 H   0  0  0  0  0  0  0  0  0  0  0  0
   12.4376   -4.3984    0.0000 H   0  0  0  0  0  0  0  0  0  0  0  0
  1 16  1  0  0  0  0
  1 70  1  0  0  0  0
 20  2  1  6  0  0  0
  2 31  1  0  0  0  0
  3 16  2  0  0  0  0
  4 18  2  0  0  0  0
  5 24  2  0  0  0  0
  6 32  1  0  0  0  0
  6 35  1  0  0  0  0
  7 32  2  0  0  0  0
  8 12  1  0  0  0  0
  8 18  1  0  0  0  0
  8 48  1  0  0  0  0
  9 15  1  0  0  0  0
  9 22  1  0  0  0  0
  9 24  1  0  0  0  0
 23 10  1  6  0  0  0
 10 32  1  0  0  0  0
 10 71  1  0  0  0  0
 11 36  1  0  0  0  0
 11 44  2  0  0  0  0
 12 13  1  0  0  0  0
 12 14  1  0  0  0  0
 12 16  1  0  0  0  0
 13 14  1  0  0  0  0
 13 17  1  6  0  0  0
 13 45  1  0  0  0  0
 14 46  1  0  0  0  0
 14 47  1  0  0  0  0
 15 18  1  1  0  0  0
 15 19  1  0  0  0  0
 15 49  1  0  0  0  0
 17 30  2  0  0  0  0
 17 50  1  0  0  0  0
 19 20  1  0  0  0  0
 19 51  1  0  0  0  0
 19 52  1  0  0  0  0
 20 22  1  0  0  0  0
 20 53  1  0  0  0  0
 21 23  1  0  0  0  0
 21 25  1  0  0  0  0
 21 26  1  0  0  0  0
 21 54  1  0  0  0  0
 22 55  1  0  0  0  0
 22 56  1  0  0  0  0
 23 24  1  0  0  0  0
 23 57  1  0  0  0  0
 25 27  1  0  0  0  0
 25 58  1  0  0  0  0
 25 59  1  0  0  0  0
 26 28  1  0  0  0  0
 26 60  1  0  0  0  0
 26 61  1  0  0  0  0
 27 29  1  0  0  0  0
 27 62  1  0  0  0  0
 27 63  1  0  0  0  0
 28 29  1  0  0  0  0
 28 64  1  0  0  0  0
 28 65  1  0  0  0  0
 29 66  1  0  0  0  0
 29 67  1  0  0  0  0
 30 68  1  0  0  0  0
 30 69  1  0  0  0  0
 31 33  1  0  0  0  0
 31 34  2  0  0  0  0
 33 36  2  0  0  0  0
 33 38  1  0  0  0  0
 34 37  1  0  0  0  0
 34 72  1  0  0  0  0
 35 40  1  0  0  0  0
 35 41  1  0  0  0  0
 35 42  1  0  0  0  0
 36 39  1  0  0  0  0
 37 39  2  0  0  0  0
 37 73  1  0  0  0  0
 38 43  2  0  0  0  0
 38 74  1  0  0  0  0
 39 75  1  0  0  0  0
 40 76  1  0  0  0  0
 40 77  1  0  0  0  0
 40 78  1  0  0  0  0
 41 79  1  0  0  0  0
 41 80  1  0  0  0  0
 41 81  1  0  0  0  0
 42 82  1  0  0  0  0
 42 83  1  0  0  0  0
 42 84  1  0  0  0  0
 43 44  1  0  0  0  0
 43 85  1  0  0  0  0
 44 86  1  0  0  0  0
M  END
> <PUBCHEM_COMPOUND_CID>
500648
> <PUBCHEM_COMPOUND_CANONICALIZED>
1
> <PUBCHEM_CACTVS_COMPLEXITY>
1100
> <PUBCHEM_CACTVS_HBOND_ACCEPTOR>
8
> <PUBCHEM_CACTVS_HBOND_DONOR>
3
> <PUBCHEM_CACTVS_ROTATABLE_BOND>
11
> <PUBCHEM_CACTVS_SUBSKEYS>
AAADcfB/uAAAAAAAAAAAAAAAGAAAAWAAAAA8YIAAAAAAAACx8AAAHgAQCAAADfzhngY+zvPIFgCoAzX3XACCiCAxIiAI2KG+bJkOZvLEsbufeCjm1hnY6Ae62aOOAAAAAgAKAAAAAAAEABQAAAAAAAAAAA==
> <PUBCHEM_IUPAC_OPENEYE_NAME>
(2R)-1-[[(2S,4R)-1-[(2S)-2-(tert-butoxycarbonylamino)-2-cyclohexyl-acetyl]-4-(5-quinolyloxy)pyrrolidine-2-carbonyl]amino]-2-vinyl-cyclopropanecarboxylic acid
> <PUBCHEM_IUPAC_CAS_NAME>
(2R)-1-[[[(2S,4R)-1-[(2S)-2-cyclohexyl-2-[[(2-methylpropan-2-yl)oxy-oxomethyl]amino]-1-oxoethyl]-4-(5-quinolinyloxy)-2-pyrrolidinyl]-oxomethyl]amino]-2-ethenyl-1-cyclopropanecarboxylic acid
> <PUBCHEM_IUPAC_NAME_MARKUP>
(2<I>R</I>)-1-[[(2<I>S</I>,4<I>R</I>)-1-[(2<I>S</I>)-2-cyclohexyl-2-[(2-methylpropan-2-yl)oxycarbonylamino]acetyl]-4-quinolin-5-yloxypyrrolidine-2-carbonyl]amino]-2-ethenylcyclopropane-1-carboxylic acid
> <PUBCHEM_IUPAC_NAME>
(2R)-1-[[(2S,4R)-1-[(2S)-2-cyclohexyl-2-[(2-methylpropan-2-yl)oxycarbonylamino]acetyl]-4-quinolin-5-yloxypyrrolidine-2-carbonyl]amino]-2-ethenylcyclopropane-1-carboxylic acid
> <PUBCHEM_IUPAC_SYSTEMATIC_NAME>
(2R)-1-[[(2S,4R)-1-[(2S)-2-cyclohexyl-2-[(2-methylpropan-2-yl)oxycarbonylamino]ethanoyl]-4-quinolin-5-yloxy-pyrrolidin-2-yl]carbonylamino]-2-ethenyl-cyclopropane-1-carboxylic acid
> <PUBCHEM_IUPAC_TRADITIONAL_NAME>
(2R)-1-[[(2S,4R)-1-[(2S)-2-(tert-butoxycarbonylamino)-2-cyclohexyl-acetyl]-4-(5-quinolyloxy)prolyl]amino]-2-vinyl-cyclopropanecarboxylic acid
> <PUBCHEM_IUPAC_INCHI>
InChI=1S/C33H42N4O7/c1-5-21-18-33(21,30(40)41)36-28(38)25-17-22(43-26-15-9-14-24-23(26)13-10-16-34-24)19-37(25)29(39)27(20-11-7-6-8-12-20)35-31(42)44-32(2,3)4/h5,9-10,13-16,20-22,25,27H,1,6-8,11-12,17-19H2,2-4H3,(H,35,42)(H,36,38)(H,40,41)/t21-,22+,25-,27-,33?/m0/s1
> <PUBCHEM_IUPAC_INCHIKEY>
FKEWBAYTMDGUBL-UCLSUPCESA-N
> <PUBCHEM_XLOGP3_AA>
4.9
> <PUBCHEM_EXACT_MASS>
606.30534969
> <PUBCHEM_MOLECULAR_FORMULA>
C33H42N4O7
> <PUBCHEM_MOLECULAR_WEIGHT>
606.7
> <PUBCHEM_OPENEYE_CAN_SMILES>
CC(C)(C)OC(=O)NC(C1CCCCC1)C(=O)N2CC(CC2C(=O)NC3(CC3C=C)C(=O)O)OC4=CC=CC5=C4C=CC=N5
> <PUBCHEM_OPENEYE_ISO_SMILES>
CC(C)(C)OC(=O)N[C@@H](C1CCCCC1)C(=O)N2C[C@@H](C[C@H]2C(=O)NC3(C[C@@H]3C=C)C(=O)O)OC4=CC=CC5=C4C=CC=N5
> <PUBCHEM_CACTVS_TPSA>
147
> <PUBCHEM_MONOISOTOPIC_WEIGHT>
606.30534969
> <PUBCHEM_TOTAL_CHARGE>
0
> <PUBCHEM_HEAVY_ATOM_COUNT>
44
> <PUBCHEM_ATOM_DEF_STEREO_COUNT>
4
> <PUBCHEM_ATOM_UDEF_STEREO_COUNT>
1
> <PUBCHEM_BOND_DEF_STEREO_COUNT>
0
> <PUBCHEM_BOND_UDEF_STEREO_COUNT>
0
> <PUBCHEM_ISOTOPIC_ATOM_COUNT>
0
> <PUBCHEM_COMPONENT_COUNT>
1
> <PUBCHEM_CACTVS_TAUTO_COUNT>
-1
> <PUBCHEM_COORDINATE_TYPE>
1
5
255
> <PUBCHEM_BONDANNOTATIONS>
23  10  6
11  36  8
11  44  8
12  16  3
13  17  6
15  18  5
20  2  6
31  33  8
31  34  8
33  36  8
33  38  8
34  37  8
36  39  8
37  39  8
38  43  8
43  44  8
$$$$
