500667
  -OEChem-10302200282D
103108  0     1  0  0  0  0  0999 V2000
    8.2417    5.5677    0.0000 O   0  0  0  0  0  0  0  0  0  0  0  0
    8.4227    3.8452    0.0000 O   0  0  0  0  0  0  0  0  0  0  0  0
    4.6660    0.2111    0.0000 O   0  0  0  0  0  0  0  0  0  0  0  0
    8.0160    2.9316    0.0000 O   0  0  0  0  0  0  0  0  0  0  0  0
    8.6970    1.7520    0.0000 O   0  0  0  0  0  0  0  0  0  0  0  0
   10.5497   -4.5383    0.0000 O   0  0  0  0  0  0  0  0  0  0  0  0
    6.4337    3.6361    0.0000 N   0  0  0  0  0  0  0  0  0  0  0  0
    7.1147    1.0475    0.0000 N   0  0  0  0  0  0  0  0  0  0  0  0
    9.5105   -0.0751    0.0000 N   0  0  0  0  0  0  0  0  0  0  0  0
    4.6660   -2.7889    0.0000 N   0  0  0  0  0  0  0  0  0  0  0  0
   12.1320   -3.8338    0.0000 N   0  0  0  0  0  0  0  0  0  0  0  0
    6.8404    4.5497    0.0000 C   0  0  3  0  0  0  0  0  0  0  0  0
    5.9269    4.9564    0.0000 C   0  0  2  0  0  0  0  0  0  0  0  0
    6.7359    5.5442    0.0000 C   0  0  0  0  0  0  0  0  0  0  0  0
    7.8350    4.6542    0.0000 C   0  0  0  0  0  0  0  0  0  0  0  0
    4.9324    4.8519    0.0000 C   0  0  0  0  0  0  0  0  0  0  0  0
    6.6147    1.9136    0.0000 C   0  0  2  0  0  0  0  0  0  0  0  0
    7.0215    2.8271    0.0000 C   0  0  0  0  0  0  0  0  0  0  0  0
    5.6366    1.7056    0.0000 C   0  0  0  0  0  0  0  0  0  0  0  0
    5.5321    0.7111    0.0000 C   0  0  2  0  0  0  0  0  0  0  0  0
    6.4456    0.3044    0.0000 C   0  0  0  0  0  0  0  0  0  0  0  0
    8.1093    0.9430    0.0000 C   0  0  0  0  0  0  0  0  0  0  0  0
    4.3446    5.6609    0.0000 C   0  0  0  0  0  0  0  0  0  0  0  0
    8.5160    0.0294    0.0000 C   0  0  2  0  0  0  0  0  0  0  0  0
    7.9282   -0.7796    0.0000 C   0  0  0  0  0  0  0  0  0  0  0  0
    8.7372   -1.3674    0.0000 C   0  0  0  0  0  0  0  0  0  0  0  0
    7.1192   -0.1918    0.0000 C   0  0  0  0  0  0  0  0  0  0  0  0
    7.3404   -1.5886    0.0000 C   0  0  0  0  0  0  0  0  0  0  0  0
    4.6660   -0.7889    0.0000 C   0  0  0  0  0  0  0  0  0  0  0  0
    9.9172   -0.9886    0.0000 C   0  0  0  0  0  0  0  0  0  0  0  0
    3.8000   -1.2889    0.0000 C   0  0  0  0  0  0  0  0  0  0  0  0
    5.5321   -1.2889    0.0000 C   0  0  0  0  0  0  0  0  0  0  0  0
    9.3295   -1.7976    0.0000 C   0  0  0  0  0  0  0  0  0  0  0  0
   10.9118   -1.0932    0.0000 C   0  0  0  0  0  0  0  0  0  0  0  0
    3.8000   -2.2889    0.0000 C   0  0  0  0  0  0  0  0  0  0  0  0
    5.5321   -2.2889    0.0000 C   0  0  0  0  0  0  0  0  0  0  0  0
    2.9061   -0.7542    0.0000 C   0  0  0  0  0  0  0  0  0  0  0  0
    9.7362   -2.7112    0.0000 C   0  0  0  0  0  0  0  0  0  0  0  0
   11.3185   -2.0067    0.0000 C   0  0  0  0  0  0  0  0  0  0  0  0
    2.9061   -2.8236    0.0000 C   0  0  0  0  0  0  0  0  0  0  0  0
   10.7307   -2.8157    0.0000 C   0  0  0  0  0  0  0  0  0  0  0  0
    6.3981   -2.7889    0.0000 C   0  0  0  0  0  0  0  0  0  0  0  0
    2.0000   -1.2681    0.0000 C   0  0  0  0  0  0  0  0  0  0  0  0
    2.0000   -2.3097    0.0000 C   0  0  0  0  0  0  0  0  0  0  0  0
   11.1375   -3.7293    0.0000 C   0  0  0  0  0  0  0  0  0  0  0  0
    7.2641   -2.2889    0.0000 C   0  0  0  0  0  0  0  0  0  0  0  0
    6.3981   -3.7889    0.0000 C   0  0  0  0  0  0  0  0  0  0  0  0
   12.5387   -4.7473    0.0000 C   0  0  0  0  0  0  0  0  0  0  0  0
    8.1301   -2.7889    0.0000 C   0  0  0  0  0  0  0  0  0  0  0  0
    7.2641   -4.2889    0.0000 C   0  0  0  0  0  0  0  0  0  0  0  0
   12.9455   -5.6609    0.0000 C   0  0  0  0  0  0  0  0  0  0  0  0
   13.4523   -4.3406    0.0000 C   0  0  0  0  0  0  0  0  0  0  0  0
   11.6252   -5.1541    0.0000 C   0  0  0  0  0  0  0  0  0  0  0  0
    8.1301   -3.7889    0.0000 C   0  0  0  0  0  0  0  0  0  0  0  0
    5.8299    4.3440    0.0000 H   0  0  0  0  0  0  0  0  0  0  0  0
    7.3319    5.7151    0.0000 H   0  0  0  0  0  0  0  0  0  0  0  0
    6.4641    6.1014    0.0000 H   0  0  0  0  0  0  0  0  0  0  0  0
    5.8171    3.5713    0.0000 H   0  0  0  0  0  0  0  0  0  0  0  0
    4.6802    4.2855    0.0000 H   0  0  0  0  0  0  0  0  0  0  0  0
    7.2339    1.9460    0.0000 H   0  0  0  0  0  0  0  0  0  0  0  0
    5.5718    2.3222    0.0000 H   0  0  0  0  0  0  0  0  0  0  0  0
    5.0166    1.7056    0.0000 H   0  0  0  0  0  0  0  0  0  0  0  0
    5.5645    0.0920    0.0000 H   0  0  0  0  0  0  0  0  0  0  0  0
    6.1356   -0.2326    0.0000 H   0  0  0  0  0  0  0  0  0  0  0  0
    6.9472   -0.0600    0.0000 H   0  0  0  0  0  0  0  0  0  0  0  0
    4.5968    6.2273    0.0000 H   0  0  0  0  0  0  0  0  0  0  0  0
    3.7280    5.5961    0.0000 H   0  0  0  0  0  0  0  0  0  0  0  0
    8.7682   -0.5370    0.0000 H   0  0  0  0  0  0  0  0  0  0  0  0
    8.8583    5.6325    0.0000 H   0  0  0  0  0  0  0  0  0  0  0  0
    9.8749    0.4265    0.0000 H   0  0  0  0  0  0  0  0  0  0  0  0
    8.3728   -1.8689    0.0000 H   0  0  0  0  0  0  0  0  0  0  0  0
    9.2388   -1.7318    0.0000 H   0  0  0  0  0  0  0  0  0  0  0  0
    9.1016   -0.8658    0.0000 H   0  0  0  0  0  0  0  0  0  0  0  0
    7.4836    0.3098    0.0000 H   0  0  0  0  0  0  0  0  0  0  0  0
    6.6176    0.1726    0.0000 H   0  0  0  0  0  0  0  0  0  0  0  0
    6.7548   -0.6934    0.0000 H   0  0  0  0  0  0  0  0  0  0  0  0
    6.8388   -1.2242    0.0000 H   0  0  0  0  0  0  0  0  0  0  0  0
    6.9760   -2.0902    0.0000 H   0  0  0  0  0  0  0  0  0  0  0  0
    7.8420   -1.9530    0.0000 H   0  0  0  0  0  0  0  0  0  0  0  0
    6.0690   -0.9789    0.0000 H   0  0  0  0  0  0  0  0  0  0  0  0
    8.7129   -1.7328    0.0000 H   0  0  0  0  0  0  0  0  0  0  0  0
   11.2762   -0.5916    0.0000 H   0  0  0  0  0  0  0  0  0  0  0  0
    2.9132   -0.1343    0.0000 H   0  0  0  0  0  0  0  0  0  0  0  0
    9.3718   -3.2128    0.0000 H   0  0  0  0  0  0  0  0  0  0  0  0
   11.9351   -2.0715    0.0000 H   0  0  0  0  0  0  0  0  0  0  0  0
    2.9132   -3.4435    0.0000 H   0  0  0  0  0  0  0  0  0  0  0  0
    1.4643   -0.9560    0.0000 H   0  0  0  0  0  0  0  0  0  0  0  0
    1.4643   -2.6218    0.0000 H   0  0  0  0  0  0  0  0  0  0  0  0
    7.2641   -1.6689    0.0000 H   0  0  0  0  0  0  0  0  0  0  0  0
    5.8612   -4.0989    0.0000 H   0  0  0  0  0  0  0  0  0  0  0  0
   12.4964   -3.3322    0.0000 H   0  0  0  0  0  0  0  0  0  0  0  0
    8.6671   -2.4789    0.0000 H   0  0  0  0  0  0  0  0  0  0  0  0
    7.2641   -4.9089    0.0000 H   0  0  0  0  0  0  0  0  0  0  0  0
   12.3791   -5.9131    0.0000 H   0  0  0  0  0  0  0  0  0  0  0  0
   13.1976   -6.2273    0.0000 H   0  0  0  0  0  0  0  0  0  0  0  0
   13.5119   -5.4087    0.0000 H   0  0  0  0  0  0  0  0  0  0  0  0
   13.7044   -4.9070    0.0000 H   0  0  0  0  0  0  0  0  0  0  0  0
   14.0187   -4.0884    0.0000 H   0  0  0  0  0  0  0  0  0  0  0  0
   13.2001   -3.7742    0.0000 H   0  0  0  0  0  0  0  0  0  0  0  0
   11.3730   -4.5877    0.0000 H   0  0  0  0  0  0  0  0  0  0  0  0
   11.0588   -5.4062    0.0000 H   0  0  0  0  0  0  0  0  0  0  0  0
   11.8774   -5.7205    0.0000 H   0  0  0  0  0  0  0  0  0  0  0  0
    8.6671   -4.0989    0.0000 H   0  0  0  0  0  0  0  0  0  0  0  0
  1 15  1  0  0  0  0
  1 69  1  0  0  0  0
  2 15  2  0  0  0  0
 20  3  1  6  0  0  0
  3 29  1  0  0  0  0
  4 18  2  0  0  0  0
  5 22  2  0  0  0  0
  6 45  2  0  0  0  0
  7 12  1  0  0  0  0
  7 18  1  0  0  0  0
  7 58  1  0  0  0  0
  8 17  1  0  0  0  0
  8 21  1  0  0  0  0
  8 22  1  0  0  0  0
 24  9  1  1  0  0  0
  9 30  1  0  0  0  0
  9 70  1  0  0  0  0
 10 35  1  0  0  0  0
 10 36  2  0  0  0  0
 11 45  1  0  0  0  0
 11 48  1  0  0  0  0
 11 91  1  0  0  0  0
 12 13  1  0  0  0  0
 12 14  1  0  0  0  0
 12 15  1  0  0  0  0
 13 14  1  0  0  0  0
 13 16  1  1  0  0  0
 13 55  1  0  0  0  0
 14 56  1  0  0  0  0
 14 57  1  0  0  0  0
 16 23  2  0  0  0  0
 16 59  1  0  0  0  0
 17 18  1  1  0  0  0
 17 19  1  0  0  0  0
 17 60  1  0  0  0  0
 19 20  1  0  0  0  0
 19 61  1  0  0  0  0
 19 62  1  0  0  0  0
 20 21  1  0  0  0  0
 20 63  1  0  0  0  0
 21 64  1  0  0  0  0
 21 65  1  0  0  0  0
 22 24  1  0  0  0  0
 23 66  1  0  0  0  0
 23 67  1  0  0  0  0
 24 25  1  0  0  0  0
 24 68  1  0  0  0  0
 25 26  1  0  0  0  0
 25 27  1  0  0  0  0
 25 28  1  0  0  0  0
 26 71  1  0  0  0  0
 26 72  1  0  0  0  0
 26 73  1  0  0  0  0
 27 74  1  0  0  0  0
 27 75  1  0  0  0  0
 27 76  1  0  0  0  0
 28 77  1  0  0  0  0
 28 78  1  0  0  0  0
 28 79  1  0  0  0  0
 29 31  1  0  0  0  0
 29 32  2  0  0  0  0
 30 33  2  0  0  0  0
 30 34  1  0  0  0  0
 31 35  1  0  0  0  0
 31 37  2  0  0  0  0
 32 36  1  0  0  0  0
 32 80  1  0  0  0  0
 33 38  1  0  0  0  0
 33 81  1  0  0  0  0
 34 39  2  0  0  0  0
 34 82  1  0  0  0  0
 35 40  2  0  0  0  0
 36 42  1  0  0  0  0
 37 43  1  0  0  0  0
 37 83  1  0  0  0  0
 38 41  2  0  0  0  0
 38 84  1  0  0  0  0
 39 41  1  0  0  0  0
 39 85  1  0  0  0  0
 40 44  1  0  0  0  0
 40 86  1  0  0  0  0
 41 45  1  0  0  0  0
 42 46  2  0  0  0  0
 42 47  1  0  0  0  0
 43 44  2  0  0  0  0
 43 87  1  0  0  0  0
 44 88  1  0  0  0  0
 46 49  1  0  0  0  0
 46 89  1  0  0  0  0
 47 50  2  0  0  0  0
 47 90  1  0  0  0  0
 48 51  1  0  0  0  0
 48 52  1  0  0  0  0
 48 53  1  0  0  0  0
 49 54  2  0  0  0  0
 49 92  1  0  0  0  0
 50 54  1  0  0  0  0
 50 93  1  0  0  0  0
 51 94  1  0  0  0  0
 51 95  1  0  0  0  0
 51 96  1  0  0  0  0
 52 97  1  0  0  0  0
 52 98  1  0  0  0  0
 52 99  1  0  0  0  0
 53100  1  0  0  0  0
 53101  1  0  0  0  0
 53102  1  0  0  0  0
 54103  1  0  0  0  0
M  END
> <PUBCHEM_COMPOUND_CID>
500667
> <PUBCHEM_COMPOUND_CANONICALIZED>
1
> <PUBCHEM_CACTVS_COMPLEXITY>
1380
> <PUBCHEM_CACTVS_HBOND_ACCEPTOR>
8
> <PUBCHEM_CACTVS_HBOND_DONOR>
4
> <PUBCHEM_CACTVS_ROTATABLE_BOND>
13
> <PUBCHEM_CACTVS_SUBSKEYS>
AAADcfB/uAAAAAAAAAAAAAAAGAAAAWAAAAA8YMEAAAAAAACx9AAAHgAQCAAAD7zhngYyzvPIFgCoAyXyXACCiCAlIiAImKG+bNgOZvLEtbuXeSjm1hnY6Ye6yeCfCAAAAAACAAAQAAAAAAQAAAAAAAAAAA==
> <PUBCHEM_IUPAC_OPENEYE_NAME>
(2R)-1-[[(2S,4R)-1-[(2S)-2-[4-(tert-butylcarbamoyl)anilino]-3,3-dimethyl-butanoyl]-4-[(2-phenyl-4-quinolyl)oxy]pyrrolidine-2-carbonyl]amino]-2-vinyl-cyclopropanecarboxylic acid
> <PUBCHEM_IUPAC_CAS_NAME>
(2R)-1-[[[(2S,4R)-1-[(2S)-2-[4-[(tert-butylamino)-oxomethyl]anilino]-3,3-dimethyl-1-oxobutyl]-4-[(2-phenyl-4-quinolinyl)oxy]-2-pyrrolidinyl]-oxomethyl]amino]-2-ethenyl-1-cyclopropanecarboxylic acid
> <PUBCHEM_IUPAC_NAME_MARKUP>
(2<I>R</I>)-1-[[(2<I>S</I>,4<I>R</I>)-1-[(2<I>S</I>)-2-[4-(<I>tert</I>-butylcarbamoyl)anilino]-3,3-dimethylbutanoyl]-4-(2-phenylquinolin-4-yl)oxypyrrolidine-2-carbonyl]amino]-2-ethenylcyclopropane-1-carboxylic acid
> <PUBCHEM_IUPAC_NAME>
(2R)-1-[[(2S,4R)-1-[(2S)-2-[4-(tert-butylcarbamoyl)anilino]-3,3-dimethylbutanoyl]-4-(2-phenylquinolin-4-yl)oxypyrrolidine-2-carbonyl]amino]-2-ethenylcyclopropane-1-carboxylic acid
> <PUBCHEM_IUPAC_SYSTEMATIC_NAME>
(2R)-1-[[(2S,4R)-1-[(2S)-2-[[4-(tert-butylcarbamoyl)phenyl]amino]-3,3-dimethyl-butanoyl]-4-(2-phenylquinolin-4-yl)oxy-pyrrolidin-2-yl]carbonylamino]-2-ethenyl-cyclopropane-1-carboxylic acid
> <PUBCHEM_IUPAC_TRADITIONAL_NAME>
(2R)-1-[[(2S,4R)-1-[(2S)-2-[4-(tert-butylcarbamoyl)anilino]-3,3-dimethyl-butanoyl]-4-[(2-phenyl-4-quinolyl)oxy]prolyl]amino]-2-vinyl-cyclopropanecarboxylic acid
> <PUBCHEM_IUPAC_INCHI>
InChI=1S/C43H49N5O6/c1-8-28-24-43(28,40(52)53)47-38(50)34-22-30(54-35-23-33(26-14-10-9-11-15-26)45-32-17-13-12-16-31(32)35)25-48(34)39(51)36(41(2,3)4)44-29-20-18-27(19-21-29)37(49)46-42(5,6)7/h8-21,23,28,30,34,36,44H,1,22,24-25H2,2-7H3,(H,46,49)(H,47,50)(H,52,53)/t28-,30+,34-,36+,43?/m0/s1
> <PUBCHEM_IUPAC_INCHIKEY>
OWJGMTHQVJZHSF-BGIZLZHSSA-N
> <PUBCHEM_XLOGP3_AA>
7.1
> <PUBCHEM_EXACT_MASS>
731.36828430
> <PUBCHEM_MOLECULAR_FORMULA>
C43H49N5O6
> <PUBCHEM_MOLECULAR_WEIGHT>
731.9
> <PUBCHEM_OPENEYE_CAN_SMILES>
CC(C)(C)C(C(=O)N1CC(CC1C(=O)NC2(CC2C=C)C(=O)O)OC3=CC(=NC4=CC=CC=C43)C5=CC=CC=C5)NC6=CC=C(C=C6)C(=O)NC(C)(C)C
> <PUBCHEM_OPENEYE_ISO_SMILES>
CC(C)(C)[C@@H](C(=O)N1C[C@@H](C[C@H]1C(=O)NC2(C[C@@H]2C=C)C(=O)O)OC3=CC(=NC4=CC=CC=C43)C5=CC=CC=C5)NC6=CC=C(C=C6)C(=O)NC(C)(C)C
> <PUBCHEM_CACTVS_TPSA>
150
> <PUBCHEM_MONOISOTOPIC_WEIGHT>
731.36828430
> <PUBCHEM_TOTAL_CHARGE>
0
> <PUBCHEM_HEAVY_ATOM_COUNT>
54
> <PUBCHEM_ATOM_DEF_STEREO_COUNT>
4
> <PUBCHEM_ATOM_UDEF_STEREO_COUNT>
1
> <PUBCHEM_BOND_DEF_STEREO_COUNT>
0
> <PUBCHEM_BOND_UDEF_STEREO_COUNT>
0
> <PUBCHEM_ISOTOPIC_ATOM_COUNT>
0
> <PUBCHEM_COMPONENT_COUNT>
1
> <PUBCHEM_CACTVS_TAUTO_COUNT>
-1
> <PUBCHEM_COORDINATE_TYPE>
1
5
255
> <PUBCHEM_BONDANNOTATIONS>
10  35  8
10  36  8
12  15  3
13  16  5
17  18  5
29  31  8
29  32  8
20  3  6
30  33  8
30  34  8
31  35  8
31  37  8
32  36  8
33  38  8
34  39  8
35  40  8
37  43  8
38  41  8
39  41  8
40  44  8
42  46  8
42  47  8
43  44  8
46  49  8
47  50  8
49  54  8
50  54  8
24  9  5
$$$$
