500679
  -OEChem-10302200282D
 89 92  0     1  0  0  0  0  0999 V2000
    8.2417    4.3929    0.0000 O   0  0  0  0  0  0  0  0  0  0  0  0
    8.4227    2.6703    0.0000 O   0  0  0  0  0  0  0  0  0  0  0  0
    4.6660   -0.9638    0.0000 O   0  0  0  0  0  0  0  0  0  0  0  0
    8.0160    1.7568    0.0000 O   0  0  0  0  0  0  0  0  0  0  0  0
    8.6970    0.5771    0.0000 O   0  0  0  0  0  0  0  0  0  0  0  0
    8.3349   -2.8680    0.0000 O   0  0  0  0  0  0  0  0  0  0  0  0
   10.9118   -2.2680    0.0000 O   0  0  0  0  0  0  0  0  0  0  0  0
    9.3295   -2.9725    0.0000 O   0  0  0  0  0  0  0  0  0  0  0  0
    6.4337    2.4612    0.0000 N   0  0  0  0  0  0  0  0  0  0  0  0
    7.1147   -0.1273    0.0000 N   0  0  0  0  0  0  0  0  0  0  0  0
    9.5105   -1.2499    0.0000 N   0  0  0  0  0  0  0  0  0  0  0  0
    4.6660   -3.9638    0.0000 N   0  0  0  0  0  0  0  0  0  0  0  0
    6.8404    3.3748    0.0000 C   0  0  3  0  0  0  0  0  0  0  0  0
    5.9269    3.7815    0.0000 C   0  0  2  0  0  0  0  0  0  0  0  0
    6.7359    4.3693    0.0000 C   0  0  0  0  0  0  0  0  0  0  0  0
    7.8350    3.4793    0.0000 C   0  0  0  0  0  0  0  0  0  0  0  0
    4.9324    3.6770    0.0000 C   0  0  0  0  0  0  0  0  0  0  0  0
    6.6147    0.7387    0.0000 C   0  0  2  0  0  0  0  0  0  0  0  0
    7.0215    1.6522    0.0000 C   0  0  0  0  0  0  0  0  0  0  0  0
    5.6366    0.5308    0.0000 C   0  0  0  0  0  0  0  0  0  0  0  0
    5.5321   -0.4638    0.0000 C   0  0  2  0  0  0  0  0  0  0  0  0
    6.4456   -0.8705    0.0000 C   0  0  0  0  0  0  0  0  0  0  0  0
    4.3446    4.4860    0.0000 C   0  0  0  0  0  0  0  0  0  0  0  0
    8.1093   -0.2319    0.0000 C   0  0  0  0  0  0  0  0  0  0  0  0
    8.5160   -1.1454    0.0000 C   0  0  2  0  0  0  0  0  0  0  0  0
    7.9282   -1.9544    0.0000 C   0  0  3  0  0  0  0  0  0  0  0  0
    4.6660   -1.9638    0.0000 C   0  0  0  0  0  0  0  0  0  0  0  0
    6.9337   -1.8499    0.0000 C   0  0  0  0  0  0  0  0  0  0  0  0
    7.7472   -3.6770    0.0000 C   0  0  0  0  0  0  0  0  0  0  0  0
    3.8000   -2.4638    0.0000 C   0  0  0  0  0  0  0  0  0  0  0  0
    5.5321   -2.4638    0.0000 C   0  0  0  0  0  0  0  0  0  0  0  0
    9.9172   -2.1635    0.0000 C   0  0  0  0  0  0  0  0  0  0  0  0
    7.1594   -4.4860    0.0000 C   0  0  0  0  0  0  0  0  0  0  0  0
    8.5562   -4.2648    0.0000 C   0  0  0  0  0  0  0  0  0  0  0  0
    6.9381   -3.0892    0.0000 C   0  0  0  0  0  0  0  0  0  0  0  0
    3.8000   -3.4638    0.0000 C   0  0  0  0  0  0  0  0  0  0  0  0
    2.9061   -1.9291    0.0000 C   0  0  0  0  0  0  0  0  0  0  0  0
    5.5321   -3.4638    0.0000 C   0  0  0  0  0  0  0  0  0  0  0  0
   11.3185   -3.1816    0.0000 C   0  0  0  0  0  0  0  0  0  0  0  0
    2.9061   -3.9984    0.0000 C   0  0  0  0  0  0  0  0  0  0  0  0
    2.0000   -2.4429    0.0000 C   0  0  0  0  0  0  0  0  0  0  0  0
    2.0000   -3.4846    0.0000 C   0  0  0  0  0  0  0  0  0  0  0  0
   11.7252   -4.0951    0.0000 C   0  0  0  0  0  0  0  0  0  0  0  0
   12.2321   -2.7748    0.0000 C   0  0  0  0  0  0  0  0  0  0  0  0
   10.4050   -3.5883    0.0000 C   0  0  0  0  0  0  0  0  0  0  0  0
    5.8299    3.1692    0.0000 H   0  0  0  0  0  0  0  0  0  0  0  0
    7.3319    4.5402    0.0000 H   0  0  0  0  0  0  0  0  0  0  0  0
    6.4641    4.9266    0.0000 H   0  0  0  0  0  0  0  0  0  0  0  0
    5.8171    2.3964    0.0000 H   0  0  0  0  0  0  0  0  0  0  0  0
    4.6802    3.1106    0.0000 H   0  0  0  0  0  0  0  0  0  0  0  0
    7.2339    0.7711    0.0000 H   0  0  0  0  0  0  0  0  0  0  0  0
    5.5718    1.1474    0.0000 H   0  0  0  0  0  0  0  0  0  0  0  0
    5.0166    0.5308    0.0000 H   0  0  0  0  0  0  0  0  0  0  0  0
    5.5645   -1.0829    0.0000 H   0  0  0  0  0  0  0  0  0  0  0  0
    6.1356   -1.4074    0.0000 H   0  0  0  0  0  0  0  0  0  0  0  0
    6.9472   -1.2349    0.0000 H   0  0  0  0  0  0  0  0  0  0  0  0
    4.5968    5.0524    0.0000 H   0  0  0  0  0  0  0  0  0  0  0  0
    3.7280    4.4212    0.0000 H   0  0  0  0  0  0  0  0  0  0  0  0
    8.8583    4.4577    0.0000 H   0  0  0  0  0  0  0  0  0  0  0  0
    8.7682   -1.7118    0.0000 H   0  0  0  0  0  0  0  0  0  0  0  0
    7.5638   -2.4560    0.0000 H   0  0  0  0  0  0  0  0  0  0  0  0
    9.8749   -0.7484    0.0000 H   0  0  0  0  0  0  0  0  0  0  0  0
    6.9985   -1.2333    0.0000 H   0  0  0  0  0  0  0  0  0  0  0  0
    6.3171   -1.7851    0.0000 H   0  0  0  0  0  0  0  0  0  0  0  0
    6.8689   -2.4665    0.0000 H   0  0  0  0  0  0  0  0  0  0  0  0
    6.0690   -2.1538    0.0000 H   0  0  0  0  0  0  0  0  0  0  0  0
    6.6578   -4.1216    0.0000 H   0  0  0  0  0  0  0  0  0  0  0  0
    6.7950   -4.9876    0.0000 H   0  0  0  0  0  0  0  0  0  0  0  0
    7.6610   -4.8504    0.0000 H   0  0  0  0  0  0  0  0  0  0  0  0
    8.1918   -4.7664    0.0000 H   0  0  0  0  0  0  0  0  0  0  0  0
    9.0578   -4.6292    0.0000 H   0  0  0  0  0  0  0  0  0  0  0  0
    8.9206   -3.7632    0.0000 H   0  0  0  0  0  0  0  0  0  0  0  0
    7.3026   -2.5876    0.0000 H   0  0  0  0  0  0  0  0  0  0  0  0
    6.4366   -2.7248    0.0000 H   0  0  0  0  0  0  0  0  0  0  0  0
    6.5737   -3.5908    0.0000 H   0  0  0  0  0  0  0  0  0  0  0  0
    2.9132   -1.3091    0.0000 H   0  0  0  0  0  0  0  0  0  0  0  0
    6.0690   -3.7738    0.0000 H   0  0  0  0  0  0  0  0  0  0  0  0
    2.9132   -4.6184    0.0000 H   0  0  0  0  0  0  0  0  0  0  0  0
    1.4643   -2.1309    0.0000 H   0  0  0  0  0  0  0  0  0  0  0  0
    1.4643   -3.7966    0.0000 H   0  0  0  0  0  0  0  0  0  0  0  0
   11.1589   -4.3473    0.0000 H   0  0  0  0  0  0  0  0  0  0  0  0
   11.9774   -4.6615    0.0000 H   0  0  0  0  0  0  0  0  0  0  0  0
   12.2916   -3.8429    0.0000 H   0  0  0  0  0  0  0  0  0  0  0  0
   12.4842   -3.3412    0.0000 H   0  0  0  0  0  0  0  0  0  0  0  0
   12.7985   -2.5226    0.0000 H   0  0  0  0  0  0  0  0  0  0  0  0
   11.9799   -2.2084    0.0000 H   0  0  0  0  0  0  0  0  0  0  0  0
   10.1528   -3.0219    0.0000 H   0  0  0  0  0  0  0  0  0  0  0  0
    9.8386   -3.8405    0.0000 H   0  0  0  0  0  0  0  0  0  0  0  0
   10.6571   -4.1547    0.0000 H   0  0  0  0  0  0  0  0  0  0  0  0
  1 16  1  0  0  0  0
  1 59  1  0  0  0  0
  2 16  2  0  0  0  0
 21  3  1  6  0  0  0
  3 27  1  0  0  0  0
  4 19  2  0  0  0  0
  5 24  2  0  0  0  0
  6 26  1  0  0  0  0
  6 29  1  0  0  0  0
  7 32  1  0  0  0  0
  7 39  1  0  0  0  0
  8 32  2  0  0  0  0
  9 13  1  0  0  0  0
  9 19  1  0  0  0  0
  9 49  1  0  0  0  0
 10 18  1  0  0  0  0
 10 22  1  0  0  0  0
 10 24  1  0  0  0  0
 25 11  1  1  0  0  0
 11 32  1  0  0  0  0
 11 62  1  0  0  0  0
 12 36  1  0  0  0  0
 12 38  2  0  0  0  0
 13 14  1  0  0  0  0
 13 15  1  0  0  0  0
 13 16  1  0  0  0  0
 14 15  1  0  0  0  0
 14 17  1  1  0  0  0
 14 46  1  0  0  0  0
 15 47  1  0  0  0  0
 15 48  1  0  0  0  0
 17 23  2  0  0  0  0
 17 50  1  0  0  0  0
 18 19  1  1  0  0  0
 18 20  1  0  0  0  0
 18 51  1  0  0  0  0
 20 21  1  0  0  0  0
 20 52  1  0  0  0  0
 20 53  1  0  0  0  0
 21 22  1  0  0  0  0
 21 54  1  0  0  0  0
 22 55  1  0  0  0  0
 22 56  1  0  0  0  0
 23 57  1  0  0  0  0
 23 58  1  0  0  0  0
 24 25  1  0  0  0  0
 25 26  1  0  0  0  0
 25 60  1  0  0  0  0
 26 28  1  0  0  0  0
 26 61  1  0  0  0  0
 27 30  1  0  0  0  0
 27 31  2  0  0  0  0
 28 63  1  0  0  0  0
 28 64  1  0  0  0  0
 28 65  1  0  0  0  0
 29 33  1  0  0  0  0
 29 34  1  0  0  0  0
 29 35  1  0  0  0  0
 30 36  1  0  0  0  0
 30 37  2  0  0  0  0
 31 38  1  0  0  0  0
 31 66  1  0  0  0  0
 33 67  1  0  0  0  0
 33 68  1  0  0  0  0
 33 69  1  0  0  0  0
 34 70  1  0  0  0  0
 34 71  1  0  0  0  0
 34 72  1  0  0  0  0
 35 73  1  0  0  0  0
 35 74  1  0  0  0  0
 35 75  1  0  0  0  0
 36 40  2  0  0  0  0
 37 41  1  0  0  0  0
 37 76  1  0  0  0  0
 38 77  1  0  0  0  0
 39 43  1  0  0  0  0
 39 44  1  0  0  0  0
 39 45  1  0  0  0  0
 40 42  1  0  0  0  0
 40 78  1  0  0  0  0
 41 42  2  0  0  0  0
 41 79  1  0  0  0  0
 42 80  1  0  0  0  0
 43 81  1  0  0  0  0
 43 82  1  0  0  0  0
 43 83  1  0  0  0  0
 44 84  1  0  0  0  0
 44 85  1  0  0  0  0
 44 86  1  0  0  0  0
 45 87  1  0  0  0  0
 45 88  1  0  0  0  0
 45 89  1  0  0  0  0
M  END
> <PUBCHEM_COMPOUND_CID>
500679
> <PUBCHEM_COMPOUND_CANONICALIZED>
1
> <PUBCHEM_CACTVS_COMPLEXITY>
1130
> <PUBCHEM_CACTVS_HBOND_ACCEPTOR>
9
> <PUBCHEM_CACTVS_HBOND_DONOR>
3
> <PUBCHEM_CACTVS_ROTATABLE_BOND>
13
> <PUBCHEM_CACTVS_SUBSKEYS>
AAADcfB/vAAAAAAAAAAAAAAAGAAAAWAAAAA8QAAAAAAAAACx8AAAHgAQCAAADfzhngY+zvPIFgCoAzX3XACCiCAxIiAI2KG+bJkOZvbEsbufeCjm9hnY6Ae6waAOAAAAAAACAAAAAAAAAAQAAAAAAAAAAA==
> <PUBCHEM_IUPAC_OPENEYE_NAME>
(2R)-1-[[(2S,4R)-1-[(2S)-3-tert-butoxy-2-(tert-butoxycarbonylamino)butanoyl]-4-(4-quinolyloxy)pyrrolidine-2-carbonyl]amino]-2-vinyl-cyclopropanecarboxylic acid
> <PUBCHEM_IUPAC_CAS_NAME>
(2R)-2-ethenyl-1-[[[(2S,4R)-1-[(2S)-3-[(2-methylpropan-2-yl)oxy]-2-[[(2-methylpropan-2-yl)oxy-oxomethyl]amino]-1-oxobutyl]-4-(4-quinolinyloxy)-2-pyrrolidinyl]-oxomethyl]amino]-1-cyclopropanecarboxylic acid
> <PUBCHEM_IUPAC_NAME_MARKUP>
(2<I>R</I>)-2-ethenyl-1-[[(2<I>S</I>,4<I>R</I>)-1-[(2<I>S</I>)-3-[(2-methylpropan-2-yl)oxy]-2-[(2-methylpropan-2-yl)oxycarbonylamino]butanoyl]-4-quinolin-4-yloxypyrrolidine-2-carbonyl]amino]cyclopropane-1-carboxylic acid
> <PUBCHEM_IUPAC_NAME>
(2R)-2-ethenyl-1-[[(2S,4R)-1-[(2S)-3-[(2-methylpropan-2-yl)oxy]-2-[(2-methylpropan-2-yl)oxycarbonylamino]butanoyl]-4-quinolin-4-yloxypyrrolidine-2-carbonyl]amino]cyclopropane-1-carboxylic acid
> <PUBCHEM_IUPAC_SYSTEMATIC_NAME>
(2R)-2-ethenyl-1-[[(2S,4R)-1-[(2S)-3-[(2-methylpropan-2-yl)oxy]-2-[(2-methylpropan-2-yl)oxycarbonylamino]butanoyl]-4-quinolin-4-yloxy-pyrrolidin-2-yl]carbonylamino]cyclopropane-1-carboxylic acid
> <PUBCHEM_IUPAC_TRADITIONAL_NAME>
(2R)-1-[[(2S,4R)-1-[(2S)-3-tert-butoxy-2-(tert-butoxycarbonylamino)butanoyl]-4-(4-quinolyloxy)prolyl]amino]-2-vinyl-cyclopropanecarboxylic acid
> <PUBCHEM_IUPAC_INCHI>
InChI=1S/C33H44N4O8/c1-9-20-17-33(20,29(40)41)36-27(38)24-16-21(43-25-14-15-34-23-13-11-10-12-22(23)25)18-37(24)28(39)26(19(2)44-31(3,4)5)35-30(42)45-32(6,7)8/h9-15,19-21,24,26H,1,16-18H2,2-8H3,(H,35,42)(H,36,38)(H,40,41)/t19?,20-,21+,24-,26-,33?/m0/s1
> <PUBCHEM_IUPAC_INCHIKEY>
KKVACSRSUCBEHP-RAOVYUEWSA-N
> <PUBCHEM_XLOGP3_AA>
3.8
> <PUBCHEM_EXACT_MASS>
624.31591437
> <PUBCHEM_MOLECULAR_FORMULA>
C33H44N4O8
> <PUBCHEM_MOLECULAR_WEIGHT>
624.7
> <PUBCHEM_OPENEYE_CAN_SMILES>
CC(C(C(=O)N1CC(CC1C(=O)NC2(CC2C=C)C(=O)O)OC3=CC=NC4=CC=CC=C43)NC(=O)OC(C)(C)C)OC(C)(C)C
> <PUBCHEM_OPENEYE_ISO_SMILES>
CC([C@@H](C(=O)N1C[C@@H](C[C@H]1C(=O)NC2(C[C@@H]2C=C)C(=O)O)OC3=CC=NC4=CC=CC=C43)NC(=O)OC(C)(C)C)OC(C)(C)C
> <PUBCHEM_CACTVS_TPSA>
156
> <PUBCHEM_MONOISOTOPIC_WEIGHT>
624.31591437
> <PUBCHEM_TOTAL_CHARGE>
0
> <PUBCHEM_HEAVY_ATOM_COUNT>
45
> <PUBCHEM_ATOM_DEF_STEREO_COUNT>
4
> <PUBCHEM_ATOM_UDEF_STEREO_COUNT>
2
> <PUBCHEM_BOND_DEF_STEREO_COUNT>
0
> <PUBCHEM_BOND_UDEF_STEREO_COUNT>
0
> <PUBCHEM_ISOTOPIC_ATOM_COUNT>
0
> <PUBCHEM_COMPONENT_COUNT>
1
> <PUBCHEM_CACTVS_TAUTO_COUNT>
-1
> <PUBCHEM_COORDINATE_TYPE>
1
5
255
> <PUBCHEM_BONDANNOTATIONS>
25  11  5
12  36  8
12  38  8
13  16  3
14  17  5
18  19  5
26  28  3
27  30  8
27  31  8
21  3  6
30  36  8
30  37  8
31  38  8
36  40  8
37  41  8
40  42  8
41  42  8
$$$$
