500607
  -OEChem-10302200282D
139141  0     1  0  0  0  0  0999 V2000
    4.3763    3.1332    0.0000 O   0  0  0  0  0  0  0  0  0  0  0  0
    7.4321    0.0860    0.0000 O   0  0  0  0  0  0  0  0  0  0  0  0
    6.3301   -0.7146    0.0000 O   0  0  0  0  0  0  0  0  0  0  0  0
    9.4536    3.0715    0.0000 O   0  0  0  0  0  0  0  0  0  0  0  0
   11.1478    3.4316    0.0000 O   0  0  0  0  0  0  0  0  0  0  0  0
   12.5147    1.1663    0.0000 O   0  0  0  0  0  0  0  0  0  0  0  0
    2.8660   -1.7146    0.0000 O   0  0  0  0  0  0  0  0  0  0  0  0
   14.5362    4.1519    0.0000 O   0  0  0  0  0  0  0  0  0  0  0  0
   14.1204    6.1082    0.0000 O   0  0  0  0  0  0  0  0  0  0  0  0
   12.4262    5.7481    0.0000 O   0  0  0  0  0  0  0  0  0  0  0  0
   17.0621    0.5994    0.0000 O   0  0  0  0  0  0  0  0  0  0  0  0
   17.5973    2.2467    0.0000 O   0  0  0  0  0  0  0  0  0  0  0  0
   15.2794    4.8210    0.0000 O   0  0  0  0  0  0  0  0  0  0  0  0
    6.2731    1.3732    0.0000 N   0  0  0  0  0  0  0  0  0  0  0  0
    8.9184    1.4243    0.0000 N   0  0  0  0  0  0  0  0  0  0  0  0
    4.5981   -0.7146    0.0000 N   0  0  0  0  0  0  0  0  0  0  0  0
    4.5981   -1.7146    0.0000 N   0  0  0  0  0  0  0  0  0  0  0  0
   11.3557    2.4535    0.0000 N   0  0  0  0  0  0  0  0  0  0  0  0
    3.7320   -3.2146    0.0000 N   0  0  0  0  0  0  0  0  0  0  0  0
   14.0010    2.5046    0.0000 N   0  0  0  0  0  0  0  0  0  0  0  0
   16.4383    3.5338    0.0000 N   0  0  0  0  0  0  0  0  0  0  0  0
    5.4641    0.7854    0.0000 C   0  0  1  0  0  0  0  0  0  0  0  0
    4.9641    2.3242    0.0000 C   0  0  2  0  0  0  0  0  0  0  0  0
    4.6551    1.3732    0.0000 C   0  0  0  0  0  0  0  0  0  0  0  0
    5.9641    2.3242    0.0000 C   0  0  0  0  0  0  0  0  0  0  0  0
    7.2242    1.0641    0.0000 C   0  0  0  0  0  0  0  0  0  0  0  0
    7.9673    1.7333    0.0000 C   0  0  2  0  0  0  0  0  0  0  0  0
    5.4641   -0.2146    0.0000 C   0  0  0  0  0  0  0  0  0  0  0  0
    7.7594    2.7114    0.0000 C   0  0  0  0  0  0  0  0  0  0  0  0
    4.7830    4.0468    0.0000 C   0  0  0  0  0  0  0  0  0  0  0  0
   10.6126    1.7844    0.0000 C   0  0  2  0  0  0  0  0  0  0  0  0
    8.5026    3.3806    0.0000 C   0  0  0  0  0  0  0  0  0  0  0  0
    6.8084    3.0204    0.0000 C   0  0  0  0  0  0  0  0  0  0  0  0
    9.6615    2.0934    0.0000 C   0  0  0  0  0  0  0  0  0  0  0  0
   10.8205    0.8062    0.0000 C   0  0  2  0  0  0  0  0  0  0  0  0
   11.7715    0.4972    0.0000 C   0  0  0  0  0  0  0  0  0  0  0  0
    4.1953    4.8558    0.0000 C   0  0  0  0  0  0  0  0  0  0  0  0
    5.4641   -2.2146    0.0000 C   0  0  0  0  0  0  0  0  0  0  0  0
   10.0773    0.1371    0.0000 C   0  0  0  0  0  0  0  0  0  0  0  0
    6.3301   -1.7146    0.0000 C   0  0  0  0  0  0  0  0  0  0  0  0
    3.7320   -2.2146    0.0000 C   0  0  0  0  0  0  0  0  0  0  0  0
   12.3068    2.1445    0.0000 C   0  0  0  0  0  0  0  0  0  0  0  0
    7.1962   -2.2146    0.0000 C   0  0  0  0  0  0  0  0  0  0  0  0
   11.9795   -0.4809    0.0000 C   0  0  0  0  0  0  0  0  0  0  0  0
   13.0499    2.8136    0.0000 C   0  0  1  0  0  0  0  0  0  0  0  0
    4.6020    5.7693    0.0000 C   0  0  0  0  0  0  0  0  0  0  0  0
    3.2008    4.7513    0.0000 C   0  0  0  0  0  0  0  0  0  0  0  0
   12.8420    3.7918    0.0000 C   0  0  0  0  0  0  0  0  0  0  0  0
    8.0622   -1.7146    0.0000 C   0  0  0  0  0  0  0  0  0  0  0  0
    7.1962   -3.2146    0.0000 C   0  0  0  0  0  0  0  0  0  0  0  0
    4.0142    6.5784    0.0000 C   0  0  0  0  0  0  0  0  0  0  0  0
    2.6130    5.5603    0.0000 C   0  0  0  0  0  0  0  0  0  0  0  0
    2.8660   -3.7146    0.0000 C   0  0  2  0  0  0  0  0  0  0  0  0
    3.0197    6.4738    0.0000 C   0  0  0  0  0  0  0  0  0  0  0  0
   13.5852    4.4609    0.0000 C   0  0  0  0  0  0  0  0  0  0  0  0
   14.7441    3.1737    0.0000 C   0  0  0  0  0  0  0  0  0  0  0  0
    2.8660   -4.7146    0.0000 C   0  0  0  0  0  0  0  0  0  0  0  0
    2.0000   -3.2146    0.0000 C   0  0  0  0  0  0  0  0  0  0  0  0
   15.6952    2.8647    0.0000 C   0  0  2  0  0  0  0  0  0  0  0  0
   13.3772    5.4390    0.0000 C   0  0  0  0  0  0  0  0  0  0  0  0
   15.9031    1.8866    0.0000 C   0  0  0  0  0  0  0  0  0  0  0  0
    2.0000   -5.2146    0.0000 C   0  0  0  0  0  0  0  0  0  0  0  0
    3.7320   -5.2146    0.0000 C   0  0  0  0  0  0  0  0  0  0  0  0
    2.0000   -6.2146    0.0000 C   0  0  0  0  0  0  0  0  0  0  0  0
    3.7320   -6.2146    0.0000 C   0  0  0  0  0  0  0  0  0  0  0  0
   16.8542    1.5776    0.0000 C   0  0  0  0  0  0  0  0  0  0  0  0
    2.8660   -6.7146    0.0000 C   0  0  0  0  0  0  0  0  0  0  0  0
   16.2304    4.5120    0.0000 C   0  0  0  0  0  0  0  0  0  0  0  0
   16.9736    5.1811    0.0000 C   0  0  0  0  0  0  0  0  0  0  0  0
    6.0165    0.5039    0.0000 H   0  0  0  0  0  0  0  0  0  0  0  0
    5.2456    2.8766    0.0000 H   0  0  0  0  0  0  0  0  0  0  0  0
    4.0887    1.6253    0.0000 H   0  0  0  0  0  0  0  0  0  0  0  0
    4.3451    0.8362    0.0000 H   0  0  0  0  0  0  0  0  0  0  0  0
    6.5706    2.4531    0.0000 H   0  0  0  0  0  0  0  0  0  0  0  0
    5.8993    2.9408    0.0000 H   0  0  0  0  0  0  0  0  0  0  0  0
    8.0962    1.1268    0.0000 H   0  0  0  0  0  0  0  0  0  0  0  0
    8.3491    2.5198    0.0000 H   0  0  0  0  0  0  0  0  0  0  0  0
    9.0473    0.8178    0.0000 H   0  0  0  0  0  0  0  0  0  0  0  0
    4.0611   -0.4046    0.0000 H   0  0  0  0  0  0  0  0  0  0  0  0
   10.4837    2.3908    0.0000 H   0  0  0  0  0  0  0  0  0  0  0  0
    5.2971    3.7001    0.0000 H   0  0  0  0  0  0  0  0  0  0  0  0
    5.2137    4.4928    0.0000 H   0  0  0  0  0  0  0  0  0  0  0  0
    8.9174    2.9198    0.0000 H   0  0  0  0  0  0  0  0  0  0  0  0
    8.9633    3.7954    0.0000 H   0  0  0  0  0  0  0  0  0  0  0  0
    8.0877    3.8413    0.0000 H   0  0  0  0  0  0  0  0  0  0  0  0
    6.9999    3.6101    0.0000 H   0  0  0  0  0  0  0  0  0  0  0  0
    6.2187    3.2120    0.0000 H   0  0  0  0  0  0  0  0  0  0  0  0
    6.6168    2.4308    0.0000 H   0  0  0  0  0  0  0  0  0  0  0  0
   10.9494    0.1998    0.0000 H   0  0  0  0  0  0  0  0  0  0  0  0
   12.3912    0.5188    0.0000 H   0  0  0  0  0  0  0  0  0  0  0  0
   11.8578    1.1112    0.0000 H   0  0  0  0  0  0  0  0  0  0  0  0
    5.0656   -2.6896    0.0000 H   0  0  0  0  0  0  0  0  0  0  0  0
    5.8626   -2.6896    0.0000 H   0  0  0  0  0  0  0  0  0  0  0  0
    9.6625    0.5978    0.0000 H   0  0  0  0  0  0  0  0  0  0  0  0
    9.6166   -0.2778    0.0000 H   0  0  0  0  0  0  0  0  0  0  0  0
   10.4922   -0.3237    0.0000 H   0  0  0  0  0  0  0  0  0  0  0  0
    6.7287   -1.2397    0.0000 H   0  0  0  0  0  0  0  0  0  0  0  0
    5.9316   -1.2397    0.0000 H   0  0  0  0  0  0  0  0  0  0  0  0
    6.6592   -2.5246    0.0000 H   0  0  0  0  0  0  0  0  0  0  0  0
   11.3730   -0.6098    0.0000 H   0  0  0  0  0  0  0  0  0  0  0  0
   12.1084   -1.0874    0.0000 H   0  0  0  0  0  0  0  0  0  0  0  0
   12.5859   -0.3520    0.0000 H   0  0  0  0  0  0  0  0  0  0  0  0
   13.1788    2.2072    0.0000 H   0  0  0  0  0  0  0  0  0  0  0  0
    5.2186    5.8342    0.0000 H   0  0  0  0  0  0  0  0  0  0  0  0
    2.9486    4.1849    0.0000 H   0  0  0  0  0  0  0  0  0  0  0  0
   12.5135    4.3176    0.0000 H   0  0  0  0  0  0  0  0  0  0  0  0
   12.2672    3.5595    0.0000 H   0  0  0  0  0  0  0  0  0  0  0  0
    4.2690   -3.5246    0.0000 H   0  0  0  0  0  0  0  0  0  0  0  0
   11.6086    3.8465    0.0000 H   0  0  0  0  0  0  0  0  0  0  0  0
    8.3722   -2.2516    0.0000 H   0  0  0  0  0  0  0  0  0  0  0  0
    8.5991   -1.4046    0.0000 H   0  0  0  0  0  0  0  0  0  0  0  0
    7.7522   -1.1777    0.0000 H   0  0  0  0  0  0  0  0  0  0  0  0
    6.5762   -3.2146    0.0000 H   0  0  0  0  0  0  0  0  0  0  0  0
    7.1962   -3.8346    0.0000 H   0  0  0  0  0  0  0  0  0  0  0  0
    7.8162   -3.2146    0.0000 H   0  0  0  0  0  0  0  0  0  0  0  0
    4.2664    7.1448    0.0000 H   0  0  0  0  0  0  0  0  0  0  0  0
    1.9964    5.4955    0.0000 H   0  0  0  0  0  0  0  0  0  0  0  0
   14.1299    1.8982    0.0000 H   0  0  0  0  0  0  0  0  0  0  0  0
    2.8660   -3.0946    0.0000 H   0  0  0  0  0  0  0  0  0  0  0  0
    2.6553    6.9754    0.0000 H   0  0  0  0  0  0  0  0  0  0  0  0
   13.9137    3.9351    0.0000 H   0  0  0  0  0  0  0  0  0  0  0  0
   14.1600    4.6932    0.0000 H   0  0  0  0  0  0  0  0  0  0  0  0
    2.3100   -2.6777    0.0000 H   0  0  0  0  0  0  0  0  0  0  0  0
    1.4631   -2.9046    0.0000 H   0  0  0  0  0  0  0  0  0  0  0  0
    1.6900   -3.7516    0.0000 H   0  0  0  0  0  0  0  0  0  0  0  0
   16.2848    2.6731    0.0000 H   0  0  0  0  0  0  0  0  0  0  0  0
   15.2835    1.8649    0.0000 H   0  0  0  0  0  0  0  0  0  0  0  0
   15.8168    1.2726    0.0000 H   0  0  0  0  0  0  0  0  0  0  0  0
    1.4631   -4.9046    0.0000 H   0  0  0  0  0  0  0  0  0  0  0  0
    4.2690   -4.9046    0.0000 H   0  0  0  0  0  0  0  0  0  0  0  0
   17.0280    3.3422    0.0000 H   0  0  0  0  0  0  0  0  0  0  0  0
    1.4631   -6.5246    0.0000 H   0  0  0  0  0  0  0  0  0  0  0  0
    4.2690   -6.5246    0.0000 H   0  0  0  0  0  0  0  0  0  0  0  0
    2.8660   -7.3346    0.0000 H   0  0  0  0  0  0  0  0  0  0  0  0
   13.9915    6.7146    0.0000 H   0  0  0  0  0  0  0  0  0  0  0  0
   17.3884    4.7204    0.0000 H   0  0  0  0  0  0  0  0  0  0  0  0
   17.4343    5.5960    0.0000 H   0  0  0  0  0  0  0  0  0  0  0  0
   16.5587    5.6419    0.0000 H   0  0  0  0  0  0  0  0  0  0  0  0
   17.6517    0.4078    0.0000 H   0  0  0  0  0  0  0  0  0  0  0  0
 23  1  1  1  0  0  0
  1 30  1  0  0  0  0
  2 26  2  0  0  0  0
  3 28  2  0  0  0  0
  4 34  2  0  0  0  0
  5 18  1  0  0  0  0
  5109  1  0  0  0  0
  6 42  2  0  0  0  0
  7 41  2  0  0  0  0
  8 56  2  0  0  0  0
  9 60  1  0  0  0  0
  9135  1  0  0  0  0
 10 60  2  0  0  0  0
 11 66  1  0  0  0  0
 11139  1  0  0  0  0
 12 66  2  0  0  0  0
 13 68  2  0  0  0  0
 14 22  1  0  0  0  0
 14 25  1  0  0  0  0
 14 26  1  0  0  0  0
 27 15  1  6  0  0  0
 15 34  1  0  0  0  0
 15 78  1  0  0  0  0
 16 17  1  0  0  0  0
 16 28  1  0  0  0  0
 16 79  1  0  0  0  0
 17 38  1  0  0  0  0
 17 41  1  0  0  0  0
 31 18  1  1  0  0  0
 18 42  1  0  0  0  0
 19 41  1  0  0  0  0
 53 19  1  6  0  0  0
 19108  1  0  0  0  0
 45 20  1  1  0  0  0
 20 56  1  0  0  0  0
 20118  1  0  0  0  0
 59 21  1  1  0  0  0
 21 68  1  0  0  0  0
 21131  1  0  0  0  0
 22 24  1  0  0  0  0
 22 28  1  6  0  0  0
 22 70  1  0  0  0  0
 23 24  1  0  0  0  0
 23 25  1  0  0  0  0
 23 71  1  0  0  0  0
 24 72  1  0  0  0  0
 24 73  1  0  0  0  0
 25 74  1  0  0  0  0
 25 75  1  0  0  0  0
 26 27  1  0  0  0  0
 27 29  1  0  0  0  0
 27 76  1  0  0  0  0
 29 32  1  0  0  0  0
 29 33  1  0  0  0  0
 29 77  1  0  0  0  0
 30 37  1  0  0  0  0
 30 81  1  0  0  0  0
 30 82  1  0  0  0  0
 31 34  1  0  0  0  0
 31 35  1  0  0  0  0
 31 80  1  0  0  0  0
 32 83  1  0  0  0  0
 32 84  1  0  0  0  0
 32 85  1  0  0  0  0
 33 86  1  0  0  0  0
 33 87  1  0  0  0  0
 33 88  1  0  0  0  0
 35 36  1  0  0  0  0
 35 39  1  6  0  0  0
 35 89  1  0  0  0  0
 36 44  1  0  0  0  0
 36 90  1  0  0  0  0
 36 91  1  0  0  0  0
 37 46  2  0  0  0  0
 37 47  1  0  0  0  0
 38 40  1  0  0  0  0
 38 92  1  0  0  0  0
 38 93  1  0  0  0  0
 39 94  1  0  0  0  0
 39 95  1  0  0  0  0
 39 96  1  0  0  0  0
 40 43  1  0  0  0  0
 40 97  1  0  0  0  0
 40 98  1  0  0  0  0
 42 45  1  0  0  0  0
 43 49  1  0  0  0  0
 43 50  1  0  0  0  0
 43 99  1  0  0  0  0
 44100  1  0  0  0  0
 44101  1  0  0  0  0
 44102  1  0  0  0  0
 45 48  1  0  0  0  0
 45103  1  0  0  0  0
 46 51  1  0  0  0  0
 46104  1  0  0  0  0
 47 52  2  0  0  0  0
 47105  1  0  0  0  0
 48 55  1  0  0  0  0
 48106  1  0  0  0  0
 48107  1  0  0  0  0
 49110  1  0  0  0  0
 49111  1  0  0  0  0
 49112  1  0  0  0  0
 50113  1  0  0  0  0
 50114  1  0  0  0  0
 50115  1  0  0  0  0
 51 54  2  0  0  0  0
 51116  1  0  0  0  0
 52 54  1  0  0  0  0
 52117  1  0  0  0  0
 53 57  1  0  0  0  0
 53 58  1  0  0  0  0
 53119  1  0  0  0  0
 54120  1  0  0  0  0
 55 60  1  0  0  0  0
 55121  1  0  0  0  0
 55122  1  0  0  0  0
 56 59  1  0  0  0  0
 57 62  2  0  0  0  0
 57 63  1  0  0  0  0
 58123  1  0  0  0  0
 58124  1  0  0  0  0
 58125  1  0  0  0  0
 59 61  1  0  0  0  0
 59126  1  0  0  0  0
 61 66  1  0  0  0  0
 61127  1  0  0  0  0
 61128  1  0  0  0  0
 62 64  1  0  0  0  0
 62129  1  0  0  0  0
 63 65  2  0  0  0  0
 63130  1  0  0  0  0
 64 67  2  0  0  0  0
 64132  1  0  0  0  0
 65 67  1  0  0  0  0
 65133  1  0  0  0  0
 67134  1  0  0  0  0
 68 69  1  0  0  0  0
 69136  1  0  0  0  0
 69137  1  0  0  0  0
 69138  1  0  0  0  0
M  END
> <PUBCHEM_COMPOUND_CID>
500607
> <PUBCHEM_COMPOUND_CANONICALIZED>
1
> <PUBCHEM_CACTVS_COMPLEXITY>
1750
> <PUBCHEM_CACTVS_HBOND_ACCEPTOR>
13
> <PUBCHEM_CACTVS_HBOND_DONOR>
8
> <PUBCHEM_CACTVS_ROTATABLE_BOND>
25
> <PUBCHEM_CACTVS_SUBSKEYS>
AAADcfB//AAAAAAAAAAAAAAAAAAAAWAAAAAwYAAAAAAAAAABQAAAHgAcCAAADTzhmAYzCIPyBgCIAiHSGACCAAAgAAA+qIGIDIiKZjqAsTmXcAh+1gOYqAe/16IOAAAAAAAAAAAAAAAAAAAAAAAAAAAAAA==
> <PUBCHEM_IUPAC_OPENEYE_NAME>
(4R)-4-[[(2S)-2-acetamido-3-carboxy-propanoyl]amino]-5-[[(1S,2S)-1-[[(1S)-1-[(2S,4R)-4-benzyloxy-2-[[isopentyl-[[(1S)-1-phenylethyl]carbamoyl]amino]carbamoyl]pyrrolidine-1-carbonyl]-2-methyl-propyl]carbamoyl]-2-methyl-butyl]-hydroxy-amino]-5-oxo-pentanoic acid
> <PUBCHEM_IUPAC_CAS_NAME>
(4R)-4-[[(2S)-2-acetamido-3-carboxy-1-oxopropyl]amino]-5-[hydroxy-[(2S,3S)-3-methyl-1-[[(2S)-3-methyl-1-[(2S,4R)-2-[[2-(3-methylbutyl)-2-[oxo-[[(1S)-1-phenylethyl]amino]methyl]hydrazinyl]-oxomethyl]-4-phenylmethoxy-1-pyrrolidinyl]-1-oxobutan-2-yl]amino]-1-oxopentan-2-yl]amino]-5-oxopentanoic acid
> <PUBCHEM_IUPAC_NAME_MARKUP>
(4<I>R</I>)-4-[[(2<I>S</I>)-2-acetamido-3-carboxypropanoyl]amino]-5-[hydroxy-[(2<I>S</I>,3<I>S</I>)-3-methyl-1-[[(2<I>S</I>)-3-methyl-1-[(2<I>S</I>,4<I>R</I>)-2-[[3-methylbutyl-[[(1<I>S</I>)-1-phenylethyl]carbamoyl]amino]carbamoyl]-4-phenylmethoxypyrrolidin-1-yl]-1-oxobutan-2-yl]amino]-1-oxopentan-2-yl]amino]-5-oxopentanoic acid
> <PUBCHEM_IUPAC_NAME>
(4R)-4-[[(2S)-2-acetamido-3-carboxypropanoyl]amino]-5-[hydroxy-[(2S,3S)-3-methyl-1-[[(2S)-3-methyl-1-[(2S,4R)-2-[[3-methylbutyl-[[(1S)-1-phenylethyl]carbamoyl]amino]carbamoyl]-4-phenylmethoxypyrrolidin-1-yl]-1-oxobutan-2-yl]amino]-1-oxopentan-2-yl]amino]-5-oxopentanoic acid
> <PUBCHEM_IUPAC_SYSTEMATIC_NAME>
(4R)-4-[[(2S)-2-acetamido-4-oxidanyl-4-oxidanylidene-butanoyl]amino]-5-[[(2S,3S)-3-methyl-1-[[(2S)-3-methyl-1-[(2S,4R)-2-[[3-methylbutyl-[[(1S)-1-phenylethyl]carbamoyl]amino]carbamoyl]-4-phenylmethoxy-pyrrolidin-1-yl]-1-oxidanylidene-butan-2-yl]amino]-1-oxidanylidene-pentan-2-yl]-oxidanyl-amino]-5-oxidanylidene-pentanoic acid
> <PUBCHEM_IUPAC_TRADITIONAL_NAME>
(4R)-4-[[(2S)-2-acetamido-3-carboxy-propanoyl]amino]-5-[[(1S,2S)-1-[[(1S)-1-[(2S,4R)-4-benzoxy-2-[[isoamyl-[[(1S)-1-phenylethyl]carbamoyl]amino]carbamoyl]pyrrolidine-1-carbonyl]-2-methyl-propyl]carbamoyl]-2-methyl-butyl]-hydroxy-amino]-5-keto-valeric acid
> <PUBCHEM_IUPAC_INCHI>
InChI=1S/C48H70N8O13/c1-9-30(6)42(56(68)46(65)36(20-21-39(58)59)51-43(62)37(25-40(60)61)50-32(8)57)45(64)52-41(29(4)5)47(66)54-26-35(69-27-33-16-12-10-13-17-33)24-38(54)44(63)53-55(23-22-28(2)3)48(67)49-31(7)34-18-14-11-15-19-34/h10-19,28-31,35-38,41-42,68H,9,20-27H2,1-8H3,(H,49,67)(H,50,57)(H,51,62)(H,52,64)(H,53,63)(H,58,59)(H,60,61)/t30-,31-,35+,36+,37-,38-,41-,42-/m0/s1
> <PUBCHEM_IUPAC_INCHIKEY>
BRZCEXFUVGYXCH-UOCYIBCNSA-N
> <PUBCHEM_XLOGP3_AA>
3.3
> <PUBCHEM_EXACT_MASS>
966.50623432
> <PUBCHEM_MOLECULAR_FORMULA>
C48H70N8O13
> <PUBCHEM_MOLECULAR_WEIGHT>
967.1
> <PUBCHEM_OPENEYE_CAN_SMILES>
CCC(C)C(C(=O)NC(C(C)C)C(=O)N1CC(CC1C(=O)NN(CCC(C)C)C(=O)NC(C)C2=CC=CC=C2)OCC3=CC=CC=C3)N(C(=O)C(CCC(=O)O)NC(=O)C(CC(=O)O)NC(=O)C)O
> <PUBCHEM_OPENEYE_ISO_SMILES>
CC[C@H](C)[C@@H](C(=O)N[C@@H](C(C)C)C(=O)N1C[C@@H](C[C@H]1C(=O)NN(CCC(C)C)C(=O)N[C@@H](C)C2=CC=CC=C2)OCC3=CC=CC=C3)N(C(=O)[C@@H](CCC(=O)O)NC(=O)[C@H](CC(=O)O)NC(=O)C)O
> <PUBCHEM_CACTVS_TPSA>
293
> <PUBCHEM_MONOISOTOPIC_WEIGHT>
966.50623432
> <PUBCHEM_TOTAL_CHARGE>
0
> <PUBCHEM_HEAVY_ATOM_COUNT>
69
> <PUBCHEM_ATOM_DEF_STEREO_COUNT>
8
> <PUBCHEM_ATOM_UDEF_STEREO_COUNT>
0
> <PUBCHEM_BOND_DEF_STEREO_COUNT>
0
> <PUBCHEM_BOND_UDEF_STEREO_COUNT>
0
> <PUBCHEM_ISOTOPIC_ATOM_COUNT>
0
> <PUBCHEM_COMPONENT_COUNT>
1
> <PUBCHEM_CACTVS_TAUTO_COUNT>
-1
> <PUBCHEM_COORDINATE_TYPE>
1
5
255
> <PUBCHEM_BONDANNOTATIONS>
23  1  5
27  15  6
31  18  5
53  19  6
45  20  5
59  21  5
22  28  6
35  39  6
37  46  8
37  47  8
46  51  8
47  52  8
51  54  8
52  54  8
57  62  8
57  63  8
62  64  8
63  65  8
64  67  8
65  67  8
$$$$
