500676
  -OEChem-10302200282D
101105  0     1  0  0  0  0  0999 V2000
   11.9470   -2.9490    0.0000 O   0  0  0  0  0  0  0  0  0  0  0  0
   10.2245   -2.7680    0.0000 O   0  0  0  0  0  0  0  0  0  0  0  0
    6.3981   -1.0805    0.0000 O   0  0  0  0  0  0  0  0  0  0  0  0
   10.4291    0.4604    0.0000 O   0  0  0  0  0  0  0  0  0  0  0  0
    9.7480    1.6400    0.0000 O   0  0  0  0  0  0  0  0  0  0  0  0
    6.9902    3.9625    0.0000 O   0  0  0  0  0  0  0  0  0  0  0  0
    5.5889    2.9444    0.0000 O   0  0  0  0  0  0  0  0  0  0  0  0
    2.8680   -4.1047    0.0000 O   0  0  0  0  0  0  0  0  0  0  0  0
   10.2480   -1.2622    0.0000 N   0  0  0  0  0  0  0  0  0  0  0  0
    8.3468    0.6219    0.0000 N   0  0  0  0  0  0  0  0  0  0  0  0
    7.1712    2.2399    0.0000 N   0  0  0  0  0  0  0  0  0  0  0  0
    6.3981   -4.0805    0.0000 N   0  0  0  0  0  0  0  0  0  0  0  0
   11.2426   -1.3667    0.0000 C   0  0  3  0  0  0  0  0  0  0  0  0
   11.3471   -0.3722    0.0000 C   0  0  3  0  0  0  0  0  0  0  0  0
   12.2371   -1.4712    0.0000 C   0  0  0  0  0  0  0  0  0  0  0  0
   12.3416   -0.4767    0.0000 C   0  0  0  0  0  0  0  0  0  0  0  0
   11.3645    0.6276    0.0000 C   0  0  0  0  0  0  0  0  0  0  0  0
   11.1380   -2.3612    0.0000 C   0  0  0  0  0  0  0  0  0  0  0  0
    8.8468   -0.2441    0.0000 C   0  0  2  0  0  0  0  0  0  0  0  0
    9.8413   -0.3487    0.0000 C   0  0  0  0  0  0  0  0  0  0  0  0
    8.1776   -0.9873    0.0000 C   0  0  0  0  0  0  0  0  0  0  0  0
   12.2392    1.1124    0.0000 C   0  0  0  0  0  0  0  0  0  0  0  0
    7.2641   -0.5805    0.0000 C   0  0  2  0  0  0  0  0  0  0  0  0
    7.3686    0.4140    0.0000 C   0  0  0  0  0  0  0  0  0  0  0  0
    8.7535    1.5354    0.0000 C   0  0  0  0  0  0  0  0  0  0  0  0
    8.1657    2.3445    0.0000 C   0  0  2  0  0  0  0  0  0  0  0  0
    8.5725    3.2580    0.0000 C   0  0  0  0  0  0  0  0  0  0  0  0
    8.9792    4.1716    0.0000 C   0  0  0  0  0  0  0  0  0  0  0  0
    7.6589    3.6648    0.0000 C   0  0  0  0  0  0  0  0  0  0  0  0
    9.4860    2.8513    0.0000 C   0  0  0  0  0  0  0  0  0  0  0  0
    6.3981   -2.0805    0.0000 C   0  0  0  0  0  0  0  0  0  0  0  0
    5.5320   -2.5805    0.0000 C   0  0  0  0  0  0  0  0  0  0  0  0
    6.5834    3.0490    0.0000 C   0  0  0  0  0  0  0  0  0  0  0  0
    7.2641   -2.5805    0.0000 C   0  0  0  0  0  0  0  0  0  0  0  0
    5.5320   -3.5805    0.0000 C   0  0  0  0  0  0  0  0  0  0  0  0
    7.2641   -3.5805    0.0000 C   0  0  0  0  0  0  0  0  0  0  0  0
    4.6381   -2.0459    0.0000 C   0  0  0  0  0  0  0  0  0  0  0  0
    6.4024    4.7715    0.0000 C   0  0  0  0  0  0  0  0  0  0  0  0
    4.6381   -4.1152    0.0000 C   0  0  0  0  0  0  0  0  0  0  0  0
    3.7320   -2.5597    0.0000 C   0  0  0  0  0  0  0  0  0  0  0  0
    8.1301   -4.0805    0.0000 C   0  0  0  0  0  0  0  0  0  0  0  0
    3.7320   -3.6014    0.0000 C   0  0  0  0  0  0  0  0  0  0  0  0
    5.8146    5.5805    0.0000 C   0  0  0  0  0  0  0  0  0  0  0  0
    7.2114    5.3593    0.0000 C   0  0  0  0  0  0  0  0  0  0  0  0
    5.5934    4.1837    0.0000 C   0  0  0  0  0  0  0  0  0  0  0  0
    8.1301   -5.0805    0.0000 C   0  0  0  0  0  0  0  0  0  0  0  0
    8.9962   -3.5805    0.0000 C   0  0  0  0  0  0  0  0  0  0  0  0
    8.9962   -5.5805    0.0000 C   0  0  0  0  0  0  0  0  0  0  0  0
    9.8622   -4.0805    0.0000 C   0  0  0  0  0  0  0  0  0  0  0  0
    9.8622   -5.0805    0.0000 C   0  0  0  0  0  0  0  0  0  0  0  0
    2.0000   -3.6080    0.0000 C   0  0  0  0  0  0  0  0  0  0  0  0
   10.7282   -0.3344    0.0000 H   0  0  0  0  0  0  0  0  0  0  0  0
   12.1723   -2.0879    0.0000 H   0  0  0  0  0  0  0  0  0  0  0  0
   12.8537   -1.5361    0.0000 H   0  0  0  0  0  0  0  0  0  0  0  0
   12.9582   -0.5415    0.0000 H   0  0  0  0  0  0  0  0  0  0  0  0
   12.4064    0.1399    0.0000 H   0  0  0  0  0  0  0  0  0  0  0  0
   11.1627    1.2139    0.0000 H   0  0  0  0  0  0  0  0  0  0  0  0
   10.7522    0.5307    0.0000 H   0  0  0  0  0  0  0  0  0  0  0  0
    9.8836   -1.7638    0.0000 H   0  0  0  0  0  0  0  0  0  0  0  0
    9.1844    0.2759    0.0000 H   0  0  0  0  0  0  0  0  0  0  0  0
    7.8676   -1.5242    0.0000 H   0  0  0  0  0  0  0  0  0  0  0  0
    8.6792   -1.3517    0.0000 H   0  0  0  0  0  0  0  0  0  0  0  0
   12.5397    0.5702    0.0000 H   0  0  0  0  0  0  0  0  0  0  0  0
   12.7814    1.4130    0.0000 H   0  0  0  0  0  0  0  0  0  0  0  0
   11.9386    1.6547    0.0000 H   0  0  0  0  0  0  0  0  0  0  0  0
    7.2966   -1.1997    0.0000 H   0  0  0  0  0  0  0  0  0  0  0  0
    7.3038    1.0306    0.0000 H   0  0  0  0  0  0  0  0  0  0  0  0
    6.7486    0.4140    0.0000 H   0  0  0  0  0  0  0  0  0  0  0  0
    7.8013    2.8460    0.0000 H   0  0  0  0  0  0  0  0  0  0  0  0
   11.8822   -3.5656    0.0000 H   0  0  0  0  0  0  0  0  0  0  0  0
    6.9190    1.6735    0.0000 H   0  0  0  0  0  0  0  0  0  0  0  0
    9.5456    3.9194    0.0000 H   0  0  0  0  0  0  0  0  0  0  0  0
    9.2314    4.7380    0.0000 H   0  0  0  0  0  0  0  0  0  0  0  0
    8.4128    4.4237    0.0000 H   0  0  0  0  0  0  0  0  0  0  0  0
    7.9111    4.2311    0.0000 H   0  0  0  0  0  0  0  0  0  0  0  0
    7.0925    3.9169    0.0000 H   0  0  0  0  0  0  0  0  0  0  0  0
    7.4067    3.0984    0.0000 H   0  0  0  0  0  0  0  0  0  0  0  0
    9.2338    2.2849    0.0000 H   0  0  0  0  0  0  0  0  0  0  0  0
   10.0524    2.5991    0.0000 H   0  0  0  0  0  0  0  0  0  0  0  0
    9.7382    3.4177    0.0000 H   0  0  0  0  0  0  0  0  0  0  0  0
    7.8010   -2.2705    0.0000 H   0  0  0  0  0  0  0  0  0  0  0  0
    4.6453   -1.4259    0.0000 H   0  0  0  0  0  0  0  0  0  0  0  0
    4.6453   -4.7352    0.0000 H   0  0  0  0  0  0  0  0  0  0  0  0
    3.1963   -2.2476    0.0000 H   0  0  0  0  0  0  0  0  0  0  0  0
    6.3162    5.9450    0.0000 H   0  0  0  0  0  0  0  0  0  0  0  0
    5.4502    6.0821    0.0000 H   0  0  0  0  0  0  0  0  0  0  0  0
    5.3130    5.2161    0.0000 H   0  0  0  0  0  0  0  0  0  0  0  0
    7.5758    4.8577    0.0000 H   0  0  0  0  0  0  0  0  0  0  0  0
    7.7130    5.7237    0.0000 H   0  0  0  0  0  0  0  0  0  0  0  0
    6.8470    5.8609    0.0000 H   0  0  0  0  0  0  0  0  0  0  0  0
    5.2289    4.6853    0.0000 H   0  0  0  0  0  0  0  0  0  0  0  0
    5.0918    3.8193    0.0000 H   0  0  0  0  0  0  0  0  0  0  0  0
    5.9578    3.6821    0.0000 H   0  0  0  0  0  0  0  0  0  0  0  0
    7.5932   -5.3905    0.0000 H   0  0  0  0  0  0  0  0  0  0  0  0
    8.9962   -2.9605    0.0000 H   0  0  0  0  0  0  0  0  0  0  0  0
    8.9962   -6.2005    0.0000 H   0  0  0  0  0  0  0  0  0  0  0  0
   10.3991   -3.7705    0.0000 H   0  0  0  0  0  0  0  0  0  0  0  0
   10.3991   -5.3905    0.0000 H   0  0  0  0  0  0  0  0  0  0  0  0
    2.3079   -3.0699    0.0000 H   0  0  0  0  0  0  0  0  0  0  0  0
    1.4619   -3.3001    0.0000 H   0  0  0  0  0  0  0  0  0  0  0  0
    1.6921   -4.1461    0.0000 H   0  0  0  0  0  0  0  0  0  0  0  0
  1 18  1  0  0  0  0
  1 70  1  0  0  0  0
  2 18  2  0  0  0  0
 23  3  1  1  0  0  0
  3 31  1  0  0  0  0
  4 20  2  0  0  0  0
  5 25  2  0  0  0  0
  6 33  1  0  0  0  0
  6 38  1  0  0  0  0
  7 33  2  0  0  0  0
  8 42  1  0  0  0  0
  8 51  1  0  0  0  0
  9 13  1  0  0  0  0
  9 20  1  0  0  0  0
  9 59  1  0  0  0  0
 10 19  1  0  0  0  0
 10 24  1  0  0  0  0
 10 25  1  0  0  0  0
 26 11  1  1  0  0  0
 11 33  1  0  0  0  0
 11 71  1  0  0  0  0
 12 35  1  0  0  0  0
 12 36  2  0  0  0  0
 13 14  1  0  0  0  0
 13 15  1  0  0  0  0
 13 18  1  0  0  0  0
 14 16  1  0  0  0  0
 14 17  1  0  0  0  0
 14 52  1  0  0  0  0
 15 16  1  0  0  0  0
 15 53  1  0  0  0  0
 15 54  1  0  0  0  0
 16 55  1  0  0  0  0
 16 56  1  0  0  0  0
 17 22  1  0  0  0  0
 17 57  1  0  0  0  0
 17 58  1  0  0  0  0
 19 20  1  6  0  0  0
 19 21  1  0  0  0  0
 19 60  1  0  0  0  0
 21 23  1  0  0  0  0
 21 61  1  0  0  0  0
 21 62  1  0  0  0  0
 22 63  1  0  0  0  0
 22 64  1  0  0  0  0
 22 65  1  0  0  0  0
 23 24  1  0  0  0  0
 23 66  1  0  0  0  0
 24 67  1  0  0  0  0
 24 68  1  0  0  0  0
 25 26  1  0  0  0  0
 26 27  1  0  0  0  0
 26 69  1  0  0  0  0
 27 28  1  0  0  0  0
 27 29  1  0  0  0  0
 27 30  1  0  0  0  0
 28 72  1  0  0  0  0
 28 73  1  0  0  0  0
 28 74  1  0  0  0  0
 29 75  1  0  0  0  0
 29 76  1  0  0  0  0
 29 77  1  0  0  0  0
 30 78  1  0  0  0  0
 30 79  1  0  0  0  0
 30 80  1  0  0  0  0
 31 32  1  0  0  0  0
 31 34  2  0  0  0  0
 32 35  2  0  0  0  0
 32 37  1  0  0  0  0
 34 36  1  0  0  0  0
 34 81  1  0  0  0  0
 35 39  1  0  0  0  0
 36 41  1  0  0  0  0
 37 40  2  0  0  0  0
 37 82  1  0  0  0  0
 38 43  1  0  0  0  0
 38 44  1  0  0  0  0
 38 45  1  0  0  0  0
 39 42  2  0  0  0  0
 39 83  1  0  0  0  0
 40 42  1  0  0  0  0
 40 84  1  0  0  0  0
 41 46  2  0  0  0  0
 41 47  1  0  0  0  0
 43 85  1  0  0  0  0
 43 86  1  0  0  0  0
 43 87  1  0  0  0  0
 44 88  1  0  0  0  0
 44 89  1  0  0  0  0
 44 90  1  0  0  0  0
 45 91  1  0  0  0  0
 45 92  1  0  0  0  0
 45 93  1  0  0  0  0
 46 48  1  0  0  0  0
 46 94  1  0  0  0  0
 47 49  2  0  0  0  0
 47 95  1  0  0  0  0
 48 50  2  0  0  0  0
 48 96  1  0  0  0  0
 49 50  1  0  0  0  0
 49 97  1  0  0  0  0
 50 98  1  0  0  0  0
 51 99  1  0  0  0  0
 51100  1  0  0  0  0
 51101  1  0  0  0  0
M  END
> <PUBCHEM_COMPOUND_CID>
500676
> <PUBCHEM_COMPOUND_CANONICALIZED>
1
> <PUBCHEM_CACTVS_COMPLEXITY>
1260
> <PUBCHEM_CACTVS_HBOND_ACCEPTOR>
9
> <PUBCHEM_CACTVS_HBOND_DONOR>
3
> <PUBCHEM_CACTVS_ROTATABLE_BOND>
13
> <PUBCHEM_CACTVS_SUBSKEYS>
AAADcfB/vAAAAAAAAAAAAAAAAABgAWAAAAA8YIAAAAAAAACx9AAAHgAQCAAAD/zhngYyzvPIFgCoAyXyXACCiCAhIiAImKG+bJkOZvLEsbufeCjm1hnY6Ae6+e+PoAAAAgACAABAAAAEAAQAAAAAAAAAAA==
> <PUBCHEM_IUPAC_OPENEYE_NAME>
1-[[(2S,4R)-1-[(2S)-2-(tert-butoxycarbonylamino)-3,3-dimethyl-butanoyl]-4-[(7-methoxy-2-phenyl-4-quinolyl)oxy]pyrrolidine-2-carbonyl]amino]-2-ethyl-cyclobutanecarboxylic acid
> <PUBCHEM_IUPAC_CAS_NAME>
1-[[[(2S,4R)-1-[(2S)-3,3-dimethyl-2-[[(2-methylpropan-2-yl)oxy-oxomethyl]amino]-1-oxobutyl]-4-[(7-methoxy-2-phenyl-4-quinolinyl)oxy]-2-pyrrolidinyl]-oxomethyl]amino]-2-ethyl-1-cyclobutanecarboxylic acid
> <PUBCHEM_IUPAC_NAME_MARKUP>
1-[[(2<I>S</I>,4<I>R</I>)-1-[(2<I>S</I>)-3,3-dimethyl-2-[(2-methylpropan-2-yl)oxycarbonylamino]butanoyl]-4-(7-methoxy-2-phenylquinolin-4-yl)oxypyrrolidine-2-carbonyl]amino]-2-ethylcyclobutane-1-carboxylic acid
> <PUBCHEM_IUPAC_NAME>
1-[[(2S,4R)-1-[(2S)-3,3-dimethyl-2-[(2-methylpropan-2-yl)oxycarbonylamino]butanoyl]-4-(7-methoxy-2-phenylquinolin-4-yl)oxypyrrolidine-2-carbonyl]amino]-2-ethylcyclobutane-1-carboxylic acid
> <PUBCHEM_IUPAC_SYSTEMATIC_NAME>
1-[[(2S,4R)-1-[(2S)-3,3-dimethyl-2-[(2-methylpropan-2-yl)oxycarbonylamino]butanoyl]-4-(7-methoxy-2-phenyl-quinolin-4-yl)oxy-pyrrolidin-2-yl]carbonylamino]-2-ethyl-cyclobutane-1-carboxylic acid
> <PUBCHEM_IUPAC_TRADITIONAL_NAME>
1-[[(2S,4R)-1-[(2S)-2-(tert-butoxycarbonylamino)-3,3-dimethyl-butanoyl]-4-[(7-methoxy-2-phenyl-4-quinolyl)oxy]prolyl]amino]-2-ethyl-cyclobutanecarboxylic acid
> <PUBCHEM_IUPAC_INCHI>
InChI=1S/C39H50N4O8/c1-9-24-17-18-39(24,35(46)47)42-33(44)30-20-26(22-43(30)34(45)32(37(2,3)4)41-36(48)51-38(5,6)7)50-31-21-28(23-13-11-10-12-14-23)40-29-19-25(49-8)15-16-27(29)31/h10-16,19,21,24,26,30,32H,9,17-18,20,22H2,1-8H3,(H,41,48)(H,42,44)(H,46,47)/t24?,26-,30+,32-,39?/m1/s1
> <PUBCHEM_IUPAC_INCHIKEY>
GEEDEDAXFZXZRJ-XNISKSKISA-N
> <PUBCHEM_XLOGP3_AA>
6.5
> <PUBCHEM_EXACT_MASS>
702.36286457
> <PUBCHEM_MOLECULAR_FORMULA>
C39H50N4O8
> <PUBCHEM_MOLECULAR_WEIGHT>
702.8
> <PUBCHEM_OPENEYE_CAN_SMILES>
CCC1CCC1(C(=O)O)NC(=O)C2CC(CN2C(=O)C(C(C)(C)C)NC(=O)OC(C)(C)C)OC3=CC(=NC4=C3C=CC(=C4)OC)C5=CC=CC=C5
> <PUBCHEM_OPENEYE_ISO_SMILES>
CCC1CCC1(C(=O)O)NC(=O)[C@@H]2C[C@H](CN2C(=O)[C@H](C(C)(C)C)NC(=O)OC(C)(C)C)OC3=CC(=NC4=C3C=CC(=C4)OC)C5=CC=CC=C5
> <PUBCHEM_CACTVS_TPSA>
156
> <PUBCHEM_MONOISOTOPIC_WEIGHT>
702.36286457
> <PUBCHEM_TOTAL_CHARGE>
0
> <PUBCHEM_HEAVY_ATOM_COUNT>
51
> <PUBCHEM_ATOM_DEF_STEREO_COUNT>
3
> <PUBCHEM_ATOM_UDEF_STEREO_COUNT>
2
> <PUBCHEM_BOND_DEF_STEREO_COUNT>
0
> <PUBCHEM_BOND_UDEF_STEREO_COUNT>
0
> <PUBCHEM_ISOTOPIC_ATOM_COUNT>
0
> <PUBCHEM_COMPONENT_COUNT>
1
> <PUBCHEM_CACTVS_TAUTO_COUNT>
-1
> <PUBCHEM_COORDINATE_TYPE>
1
5
255
> <PUBCHEM_BONDANNOTATIONS>
26  11  5
12  35  8
12  36  8
13  18  3
14  17  3
19  20  6
23  3  5
31  32  8
31  34  8
32  35  8
32  37  8
34  36  8
35  39  8
37  40  8
39  42  8
40  42  8
41  46  8
41  47  8
46  48  8
47  49  8
48  50  8
49  50  8
$$$$
