500628
  -OEChem-10302200282D
 91 96  0     1  0  0  0  0  0999 V2000
    8.8739    1.1201    0.0000 O   0  0  0  0  0  0  0  0  0  0  0  0
   13.1263   -3.6367    0.0000 O   0  0  0  0  0  0  0  0  0  0  0  0
    9.5549   -3.1413    0.0000 O   0  0  0  0  0  0  0  0  0  0  0  0
    8.1928   -3.1413    0.0000 O   0  0  0  0  0  0  0  0  0  0  0  0
   12.9452   -1.9142    0.0000 O   0  0  0  0  0  0  0  0  0  0  0  0
    4.8025   -1.9142    0.0000 O   0  0  0  0  0  0  0  0  0  0  0  0
   10.9562   -2.1232    0.0000 N   0  0  0  0  0  0  0  0  0  0  0  0
    8.3739   -1.4187    0.0000 N   0  0  0  0  0  0  0  0  0  0  0  0
    6.3848   -1.2097    0.0000 N   0  0  0  0  0  0  0  0  0  0  0  0
    4.9836   -0.1916    0.0000 N   0  0  0  0  0  0  0  0  0  0  0  0
   11.5440   -2.9322    0.0000 C   0  0  0  0  0  0  0  0  0  0  0  0
   10.7349   -3.5200    0.0000 C   0  0  0  0  0  0  0  0  0  0  0  0
   11.6485   -3.9267    0.0000 C   0  0  0  0  0  0  0  0  0  0  0  0
    9.3739   -1.4187    0.0000 C   0  0  1  0  0  0  0  0  0  0  0  0
    6.2038   -2.9322    0.0000 C   0  0  0  0  0  0  0  0  0  0  0  0
    9.6829   -0.4677    0.0000 C   0  0  0  0  0  0  0  0  0  0  0  0
    6.7916   -2.1232    0.0000 C   0  0  1  0  0  0  0  0  0  0  0  0
    8.8739    0.1201    0.0000 C   0  0  2  0  0  0  0  0  0  0  0  0
    8.0648   -0.4677    0.0000 C   0  0  0  0  0  0  0  0  0  0  0  0
    9.9616   -2.2277    0.0000 C   0  0  0  0  0  0  0  0  0  0  0  0
    5.2092   -2.8277    0.0000 C   0  0  0  0  0  0  0  0  0  0  0  0
    6.6105   -3.8458    0.0000 C   0  0  0  0  0  0  0  0  0  0  0  0
    7.7861   -2.2277    0.0000 C   0  0  0  0  0  0  0  0  0  0  0  0
   12.5385   -2.8277    0.0000 C   0  0  0  0  0  0  0  0  0  0  0  0
    4.6215   -3.6367    0.0000 C   0  0  0  0  0  0  0  0  0  0  0  0
    6.0227   -4.6548    0.0000 C   0  0  0  0  0  0  0  0  0  0  0  0
    5.0282   -4.5503    0.0000 C   0  0  0  0  0  0  0  0  0  0  0  0
    3.9890   -0.0871    0.0000 C   0  0  0  0  0  0  0  0  0  0  0  0
    5.3903   -1.1051    0.0000 C   0  0  0  0  0  0  0  0  0  0  0  0
    3.5823    0.8265    0.0000 C   0  0  0  0  0  0  0  0  0  0  0  0
    3.4013   -0.8961    0.0000 C   0  0  0  0  0  0  0  0  0  0  0  0
    9.7399    1.6201    0.0000 C   0  0  0  0  0  0  0  0  0  0  0  0
    2.5878    0.9310    0.0000 C   0  0  0  0  0  0  0  0  0  0  0  0
    2.4067   -0.7915    0.0000 C   0  0  0  0  0  0  0  0  0  0  0  0
    2.0000    0.1220    0.0000 C   0  0  0  0  0  0  0  0  0  0  0  0
    9.7399    2.6201    0.0000 C   0  0  0  0  0  0  0  0  0  0  0  0
   10.6059    3.1201    0.0000 C   0  0  0  0  0  0  0  0  0  0  0  0
    8.8739    3.1201    0.0000 C   0  0  0  0  0  0  0  0  0  0  0  0
   10.6059    4.1201    0.0000 C   0  0  0  0  0  0  0  0  0  0  0  0
    8.8739    4.1201    0.0000 C   0  0  0  0  0  0  0  0  0  0  0  0
   11.4999    2.5855    0.0000 C   0  0  0  0  0  0  0  0  0  0  0  0
    9.7399    4.6201    0.0000 C   0  0  0  0  0  0  0  0  0  0  0  0
   11.4999    4.6548    0.0000 C   0  0  0  0  0  0  0  0  0  0  0  0
   12.4059    3.0993    0.0000 C   0  0  0  0  0  0  0  0  0  0  0  0
   12.4059    4.1409    0.0000 C   0  0  0  0  0  0  0  0  0  0  0  0
   10.2890   -3.0893    0.0000 H   0  0  0  0  0  0  0  0  0  0  0  0
   10.3882   -4.0340    0.0000 H   0  0  0  0  0  0  0  0  0  0  0  0
   11.4985   -4.5283    0.0000 H   0  0  0  0  0  0  0  0  0  0  0  0
   12.2670   -3.9700    0.0000 H   0  0  0  0  0  0  0  0  0  0  0  0
    9.0924   -1.9711    0.0000 H   0  0  0  0  0  0  0  0  0  0  0  0
    6.8204   -2.9970    0.0000 H   0  0  0  0  0  0  0  0  0  0  0  0
   11.2084   -1.5568    0.0000 H   0  0  0  0  0  0  0  0  0  0  0  0
   10.2493   -0.7198    0.0000 H   0  0  0  0  0  0  0  0  0  0  0  0
    9.9929    0.0693    0.0000 H   0  0  0  0  0  0  0  0  0  0  0  0
    6.1750   -2.0584    0.0000 H   0  0  0  0  0  0  0  0  0  0  0  0
    9.4263    0.4016    0.0000 H   0  0  0  0  0  0  0  0  0  0  0  0
    7.7548    0.0693    0.0000 H   0  0  0  0  0  0  0  0  0  0  0  0
    7.4984   -0.7198    0.0000 H   0  0  0  0  0  0  0  0  0  0  0  0
    5.3802   -2.2317    0.0000 H   0  0  0  0  0  0  0  0  0  0  0  0
    4.6520   -2.5559    0.0000 H   0  0  0  0  0  0  0  0  0  0  0  0
    7.0412   -4.2918    0.0000 H   0  0  0  0  0  0  0  0  0  0  0  0
    7.1245   -3.4991    0.0000 H   0  0  0  0  0  0  0  0  0  0  0  0
    4.1908   -3.1907    0.0000 H   0  0  0  0  0  0  0  0  0  0  0  0
    4.1075   -3.9834    0.0000 H   0  0  0  0  0  0  0  0  0  0  0  0
    5.8518   -5.2508    0.0000 H   0  0  0  0  0  0  0  0  0  0  0  0
    6.5800   -4.9266    0.0000 H   0  0  0  0  0  0  0  0  0  0  0  0
    4.4266   -4.7002    0.0000 H   0  0  0  0  0  0  0  0  0  0  0  0
    5.0714   -5.1688    0.0000 H   0  0  0  0  0  0  0  0  0  0  0  0
    6.7492   -0.7081    0.0000 H   0  0  0  0  0  0  0  0  0  0  0  0
    4.2412   -0.6535    0.0000 H   0  0  0  0  0  0  0  0  0  0  0  0
   13.7429   -3.5719    0.0000 H   0  0  0  0  0  0  0  0  0  0  0  0
    4.1839    0.9765    0.0000 H   0  0  0  0  0  0  0  0  0  0  0  0
    3.5391    1.4450    0.0000 H   0  0  0  0  0  0  0  0  0  0  0  0
    3.2304   -1.4921    0.0000 H   0  0  0  0  0  0  0  0  0  0  0  0
    3.9585   -1.1679    0.0000 H   0  0  0  0  0  0  0  0  0  0  0  0
    9.9520    1.0375    0.0000 H   0  0  0  0  0  0  0  0  0  0  0  0
   10.3505    1.7278    0.0000 H   0  0  0  0  0  0  0  0  0  0  0  0
    5.3480    0.3100    0.0000 H   0  0  0  0  0  0  0  0  0  0  0  0
    2.7587    1.5270    0.0000 H   0  0  0  0  0  0  0  0  0  0  0  0
    2.0305    1.2028    0.0000 H   0  0  0  0  0  0  0  0  0  0  0  0
    1.8052   -0.9415    0.0000 H   0  0  0  0  0  0  0  0  0  0  0  0
    2.4500   -1.4100    0.0000 H   0  0  0  0  0  0  0  0  0  0  0  0
    1.5693    0.5680    0.0000 H   0  0  0  0  0  0  0  0  0  0  0  0
    1.4860   -0.2247    0.0000 H   0  0  0  0  0  0  0  0  0  0  0  0
    8.3369    2.8101    0.0000 H   0  0  0  0  0  0  0  0  0  0  0  0
    8.3369    4.4301    0.0000 H   0  0  0  0  0  0  0  0  0  0  0  0
   11.4927    1.9655    0.0000 H   0  0  0  0  0  0  0  0  0  0  0  0
    9.7399    5.2401    0.0000 H   0  0  0  0  0  0  0  0  0  0  0  0
   11.4927    5.2747    0.0000 H   0  0  0  0  0  0  0  0  0  0  0  0
   12.9417    2.7872    0.0000 H   0  0  0  0  0  0  0  0  0  0  0  0
   12.9417    4.4530    0.0000 H   0  0  0  0  0  0  0  0  0  0  0  0
 18  1  1  6  0  0  0
  1 32  1  0  0  0  0
  2 24  1  0  0  0  0
  2 71  1  0  0  0  0
  3 20  2  0  0  0  0
  4 23  2  0  0  0  0
  5 24  2  0  0  0  0
  6 29  2  0  0  0  0
  7 11  1  0  0  0  0
  7 20  1  0  0  0  0
  7 52  1  0  0  0  0
  8 14  1  0  0  0  0
  8 19  1  0  0  0  0
  8 23  1  0  0  0  0
 17  9  1  6  0  0  0
  9 29  1  0  0  0  0
  9 69  1  0  0  0  0
 10 28  1  0  0  0  0
 10 29  1  0  0  0  0
 10 78  1  0  0  0  0
 11 12  1  0  0  0  0
 11 13  1  0  0  0  0
 11 24  1  0  0  0  0
 12 13  1  0  0  0  0
 12 46  1  0  0  0  0
 12 47  1  0  0  0  0
 13 48  1  0  0  0  0
 13 49  1  0  0  0  0
 14 16  1  0  0  0  0
 14 20  1  1  0  0  0
 14 50  1  0  0  0  0
 15 17  1  0  0  0  0
 15 21  1  0  0  0  0
 15 22  1  0  0  0  0
 15 51  1  0  0  0  0
 16 18  1  0  0  0  0
 16 53  1  0  0  0  0
 16 54  1  0  0  0  0
 17 23  1  0  0  0  0
 17 55  1  0  0  0  0
 18 19  1  0  0  0  0
 18 56  1  0  0  0  0
 19 57  1  0  0  0  0
 19 58  1  0  0  0  0
 21 25  1  0  0  0  0
 21 59  1  0  0  0  0
 21 60  1  0  0  0  0
 22 26  1  0  0  0  0
 22 61  1  0  0  0  0
 22 62  1  0  0  0  0
 25 27  1  0  0  0  0
 25 63  1  0  0  0  0
 25 64  1  0  0  0  0
 26 27  1  0  0  0  0
 26 65  1  0  0  0  0
 26 66  1  0  0  0  0
 27 67  1  0  0  0  0
 27 68  1  0  0  0  0
 28 30  1  0  0  0  0
 28 31  1  0  0  0  0
 28 70  1  0  0  0  0
 30 33  1  0  0  0  0
 30 72  1  0  0  0  0
 30 73  1  0  0  0  0
 31 34  1  0  0  0  0
 31 74  1  0  0  0  0
 31 75  1  0  0  0  0
 32 36  1  0  0  0  0
 32 76  1  0  0  0  0
 32 77  1  0  0  0  0
 33 35  1  0  0  0  0
 33 79  1  0  0  0  0
 33 80  1  0  0  0  0
 34 35  1  0  0  0  0
 34 81  1  0  0  0  0
 34 82  1  0  0  0  0
 35 83  1  0  0  0  0
 35 84  1  0  0  0  0
 36 37  1  0  0  0  0
 36 38  2  0  0  0  0
 37 39  1  0  0  0  0
 37 41  2  0  0  0  0
 38 40  1  0  0  0  0
 38 85  1  0  0  0  0
 39 42  1  0  0  0  0
 39 43  2  0  0  0  0
 40 42  2  0  0  0  0
 40 86  1  0  0  0  0
 41 44  1  0  0  0  0
 41 87  1  0  0  0  0
 42 88  1  0  0  0  0
 43 45  1  0  0  0  0
 43 89  1  0  0  0  0
 44 45  2  0  0  0  0
 44 90  1  0  0  0  0
 45 91  1  0  0  0  0
M  END
> <PUBCHEM_COMPOUND_CID>
500628
> <PUBCHEM_COMPOUND_CANONICALIZED>
1
> <PUBCHEM_CACTVS_COMPLEXITY>
1070
> <PUBCHEM_CACTVS_HBOND_ACCEPTOR>
6
> <PUBCHEM_CACTVS_HBOND_DONOR>
4
> <PUBCHEM_CACTVS_ROTATABLE_BOND>
10
> <PUBCHEM_CACTVS_SUBSKEYS>
AAADcfB/uAAAAAAAAAAAAAAAGAAAAWAAAAAwYMGAAAAAAADBUAAAHgAQCAAADbzhmAYxCMPABgCIAiHSGAACAAAgAAAIiIGICIiKZjKAsTiXcAAu1gOYqAe6yeCOgAACAAAQAAAAAAQAACAAAAAAAAAAAA==
> <PUBCHEM_IUPAC_OPENEYE_NAME>
1-[[(2S,4R)-1-[(2S)-2-cyclohexyl-2-(cyclohexylcarbamoylamino)acetyl]-4-(1-naphthylmethoxy)pyrrolidine-2-carbonyl]amino]cyclopropanecarboxylic acid
> <PUBCHEM_IUPAC_CAS_NAME>
1-[[[(2S,4R)-1-[(2S)-2-cyclohexyl-2-[[(cyclohexylamino)-oxomethyl]amino]-1-oxoethyl]-4-(1-naphthalenylmethoxy)-2-pyrrolidinyl]-oxomethyl]amino]-1-cyclopropanecarboxylic acid
> <PUBCHEM_IUPAC_NAME_MARKUP>
1-[[(2<I>S</I>,4<I>R</I>)-1-[(2<I>S</I>)-2-cyclohexyl-2-(cyclohexylcarbamoylamino)acetyl]-4-(naphthalen-1-ylmethoxy)pyrrolidine-2-carbonyl]amino]cyclopropane-1-carboxylic acid
> <PUBCHEM_IUPAC_NAME>
1-[[(2S,4R)-1-[(2S)-2-cyclohexyl-2-(cyclohexylcarbamoylamino)acetyl]-4-(naphthalen-1-ylmethoxy)pyrrolidine-2-carbonyl]amino]cyclopropane-1-carboxylic acid
> <PUBCHEM_IUPAC_SYSTEMATIC_NAME>
1-[[(2S,4R)-1-[(2S)-2-cyclohexyl-2-(cyclohexylcarbamoylamino)ethanoyl]-4-(naphthalen-1-ylmethoxy)pyrrolidin-2-yl]carbonylamino]cyclopropane-1-carboxylic acid
> <PUBCHEM_IUPAC_TRADITIONAL_NAME>
1-[[(2S,4R)-1-[(2S)-2-cyclohexyl-2-(cyclohexylcarbamoylamino)acetyl]-4-(1-naphthylmethoxy)prolyl]amino]cyclopropanecarboxylic acid
> <PUBCHEM_IUPAC_INCHI>
InChI=1S/C35H46N4O6/c40-31(38-35(18-19-35)33(42)43)29-20-27(45-22-25-14-9-13-23-10-7-8-17-28(23)25)21-39(29)32(41)30(24-11-3-1-4-12-24)37-34(44)36-26-15-5-2-6-16-26/h7-10,13-14,17,24,26-27,29-30H,1-6,11-12,15-16,18-22H2,(H,38,40)(H,42,43)(H2,36,37,44)/t27-,29+,30+/m1/s1
> <PUBCHEM_IUPAC_INCHIKEY>
WEPDXWQCMVLBQP-GGCFSWKVSA-N
> <PUBCHEM_XLOGP3_AA>
5.2
> <PUBCHEM_EXACT_MASS>
618.34173520
> <PUBCHEM_MOLECULAR_FORMULA>
C35H46N4O6
> <PUBCHEM_MOLECULAR_WEIGHT>
618.8
> <PUBCHEM_OPENEYE_CAN_SMILES>
C1CCC(CC1)C(C(=O)N2CC(CC2C(=O)NC3(CC3)C(=O)O)OCC4=CC=CC5=CC=CC=C54)NC(=O)NC6CCCCC6
> <PUBCHEM_OPENEYE_ISO_SMILES>
C1CCC(CC1)[C@@H](C(=O)N2C[C@@H](C[C@H]2C(=O)NC3(CC3)C(=O)O)OCC4=CC=CC5=CC=CC=C54)NC(=O)NC6CCCCC6
> <PUBCHEM_CACTVS_TPSA>
137
> <PUBCHEM_MONOISOTOPIC_WEIGHT>
618.34173520
> <PUBCHEM_TOTAL_CHARGE>
0
> <PUBCHEM_HEAVY_ATOM_COUNT>
45
> <PUBCHEM_ATOM_DEF_STEREO_COUNT>
3
> <PUBCHEM_ATOM_UDEF_STEREO_COUNT>
0
> <PUBCHEM_BOND_DEF_STEREO_COUNT>
0
> <PUBCHEM_BOND_UDEF_STEREO_COUNT>
0
> <PUBCHEM_ISOTOPIC_ATOM_COUNT>
0
> <PUBCHEM_COMPONENT_COUNT>
1
> <PUBCHEM_CACTVS_TAUTO_COUNT>
-1
> <PUBCHEM_COORDINATE_TYPE>
1
5
255
> <PUBCHEM_BONDANNOTATIONS>
18  1  6
14  20  5
36  37  8
36  38  8
37  39  8
37  41  8
38  40  8
39  42  8
39  43  8
40  42  8
41  44  8
43  45  8
44  45  8
17  9  6
$$$$
