500627
  -OEChem-10302200282D
114120  0     1  0  0  0  0  0999 V2000
    9.0549    1.1201    0.0000 O   0  0  0  0  0  0  0  0  0  0  0  0
    8.3739   -3.1413    0.0000 O   0  0  0  0  0  0  0  0  0  0  0  0
   13.3073   -3.6367    0.0000 O   0  0  0  0  0  0  0  0  0  0  0  0
    9.7360   -3.1413    0.0000 O   0  0  0  0  0  0  0  0  0  0  0  0
    4.9836   -1.9142    0.0000 O   0  0  0  0  0  0  0  0  0  0  0  0
   13.1263   -1.9142    0.0000 O   0  0  0  0  0  0  0  0  0  0  0  0
    8.5549   -1.4187    0.0000 N   0  0  0  0  0  0  0  0  0  0  0  0
   11.1372   -2.1232    0.0000 N   0  0  0  0  0  0  0  0  0  0  0  0
    6.5659   -1.2097    0.0000 N   0  0  0  0  0  0  0  0  0  0  0  0
   11.7250   -2.9322    0.0000 C   0  0  0  0  0  0  0  0  0  0  0  0
   10.9160   -3.5200    0.0000 C   0  0  0  0  0  0  0  0  0  0  0  0
   11.8295   -3.9267    0.0000 C   0  0  0  0  0  0  0  0  0  0  0  0
    5.1646   -0.1916    0.0000 C   0  0  0  0  0  0  0  0  0  0  0  0
    6.3848   -2.9322    0.0000 C   0  0  0  0  0  0  0  0  0  0  0  0
    3.5823   -0.8961    0.0000 C   0  0  0  0  0  0  0  0  0  0  0  0
    5.3457    1.5310    0.0000 C   0  0  0  0  0  0  0  0  0  0  0  0
    6.9726   -2.1232    0.0000 C   0  0  1  0  0  0  0  0  0  0  0  0
    9.5549   -1.4187    0.0000 C   0  0  1  0  0  0  0  0  0  0  0  0
    4.1701   -0.0871    0.0000 C   0  0  0  0  0  0  0  0  0  0  0  0
    5.7524    0.6174    0.0000 C   0  0  0  0  0  0  0  0  0  0  0  0
    9.8639   -0.4677    0.0000 C   0  0  0  0  0  0  0  0  0  0  0  0
    5.3903   -2.8277    0.0000 C   0  0  0  0  0  0  0  0  0  0  0  0
    6.7916   -3.8458    0.0000 C   0  0  0  0  0  0  0  0  0  0  0  0
    9.0549    0.1201    0.0000 C   0  0  2  0  0  0  0  0  0  0  0  0
    8.2459   -0.4677    0.0000 C   0  0  0  0  0  0  0  0  0  0  0  0
    3.9890   -1.8096    0.0000 C   0  0  0  0  0  0  0  0  0  0  0  0
    2.5878   -0.7915    0.0000 C   0  0  0  0  0  0  0  0  0  0  0  0
    5.9334    2.3400    0.0000 C   0  0  0  0  0  0  0  0  0  0  0  0
    4.3511    1.6355    0.0000 C   0  0  0  0  0  0  0  0  0  0  0  0
    7.9671   -2.2277    0.0000 C   0  0  0  0  0  0  0  0  0  0  0  0
   10.1427   -2.2277    0.0000 C   0  0  0  0  0  0  0  0  0  0  0  0
    5.5714   -1.1051    0.0000 C   0  0  0  0  0  0  0  0  0  0  0  0
    4.8025   -3.6367    0.0000 C   0  0  0  0  0  0  0  0  0  0  0  0
    6.2038   -4.6548    0.0000 C   0  0  0  0  0  0  0  0  0  0  0  0
   12.7195   -2.8277    0.0000 C   0  0  0  0  0  0  0  0  0  0  0  0
    3.4013   -2.6186    0.0000 C   0  0  0  0  0  0  0  0  0  0  0  0
    2.0000   -1.6006    0.0000 C   0  0  0  0  0  0  0  0  0  0  0  0
    5.5267    3.2535    0.0000 C   0  0  0  0  0  0  0  0  0  0  0  0
    3.9444    2.5490    0.0000 C   0  0  0  0  0  0  0  0  0  0  0  0
    5.2092   -4.5503    0.0000 C   0  0  0  0  0  0  0  0  0  0  0  0
    2.4067   -2.5141    0.0000 C   0  0  0  0  0  0  0  0  0  0  0  0
    4.5322    3.3581    0.0000 C   0  0  0  0  0  0  0  0  0  0  0  0
    9.9209    1.6201    0.0000 C   0  0  0  0  0  0  0  0  0  0  0  0
    9.9209    2.6201    0.0000 C   0  0  0  0  0  0  0  0  0  0  0  0
   10.7870    3.1201    0.0000 C   0  0  0  0  0  0  0  0  0  0  0  0
    9.0549    3.1201    0.0000 C   0  0  0  0  0  0  0  0  0  0  0  0
   10.7870    4.1201    0.0000 C   0  0  0  0  0  0  0  0  0  0  0  0
    9.0549    4.1201    0.0000 C   0  0  0  0  0  0  0  0  0  0  0  0
   11.6809    2.5855    0.0000 C   0  0  0  0  0  0  0  0  0  0  0  0
    9.9209    4.6201    0.0000 C   0  0  0  0  0  0  0  0  0  0  0  0
   11.6809    4.6548    0.0000 C   0  0  0  0  0  0  0  0  0  0  0  0
   12.5870    3.0993    0.0000 C   0  0  0  0  0  0  0  0  0  0  0  0
   12.5870    4.1409    0.0000 C   0  0  0  0  0  0  0  0  0  0  0  0
   10.4700   -3.0893    0.0000 H   0  0  0  0  0  0  0  0  0  0  0  0
   10.5693   -4.0340    0.0000 H   0  0  0  0  0  0  0  0  0  0  0  0
   11.6795   -4.5283    0.0000 H   0  0  0  0  0  0  0  0  0  0  0  0
   12.4480   -3.9700    0.0000 H   0  0  0  0  0  0  0  0  0  0  0  0
    4.8002   -0.6932    0.0000 H   0  0  0  0  0  0  0  0  0  0  0  0
    7.0014   -2.9970    0.0000 H   0  0  0  0  0  0  0  0  0  0  0  0
    3.3301   -0.3297    0.0000 H   0  0  0  0  0  0  0  0  0  0  0  0
    5.9623    1.4662    0.0000 H   0  0  0  0  0  0  0  0  0  0  0  0
    7.3370   -1.6216    0.0000 H   0  0  0  0  0  0  0  0  0  0  0  0
    9.2734   -1.9711    0.0000 H   0  0  0  0  0  0  0  0  0  0  0  0
    4.3410    0.5089    0.0000 H   0  0  0  0  0  0  0  0  0  0  0  0
    3.6128    0.1847    0.0000 H   0  0  0  0  0  0  0  0  0  0  0  0
    6.1831    0.1714    0.0000 H   0  0  0  0  0  0  0  0  0  0  0  0
    6.2664    0.9641    0.0000 H   0  0  0  0  0  0  0  0  0  0  0  0
   10.4303   -0.7198    0.0000 H   0  0  0  0  0  0  0  0  0  0  0  0
   10.1739    0.0693    0.0000 H   0  0  0  0  0  0  0  0  0  0  0  0
   11.3894   -1.5568    0.0000 H   0  0  0  0  0  0  0  0  0  0  0  0
    5.5612   -2.2317    0.0000 H   0  0  0  0  0  0  0  0  0  0  0  0
    4.8330   -2.5559    0.0000 H   0  0  0  0  0  0  0  0  0  0  0  0
    7.2222   -4.2918    0.0000 H   0  0  0  0  0  0  0  0  0  0  0  0
    7.3056   -3.4991    0.0000 H   0  0  0  0  0  0  0  0  0  0  0  0
    9.6073    0.4016    0.0000 H   0  0  0  0  0  0  0  0  0  0  0  0
    7.9359    0.0693    0.0000 H   0  0  0  0  0  0  0  0  0  0  0  0
    7.6795   -0.7198    0.0000 H   0  0  0  0  0  0  0  0  0  0  0  0
    4.4197   -2.2556    0.0000 H   0  0  0  0  0  0  0  0  0  0  0  0
    4.5030   -1.4629    0.0000 H   0  0  0  0  0  0  0  0  0  0  0  0
    2.7587   -0.1956    0.0000 H   0  0  0  0  0  0  0  0  0  0  0  0
    2.0305   -0.5198    0.0000 H   0  0  0  0  0  0  0  0  0  0  0  0
    6.3641    1.8940    0.0000 H   0  0  0  0  0  0  0  0  0  0  0  0
    6.4474    2.6867    0.0000 H   0  0  0  0  0  0  0  0  0  0  0  0
    3.7496    1.4855    0.0000 H   0  0  0  0  0  0  0  0  0  0  0  0
    4.3944    1.0170    0.0000 H   0  0  0  0  0  0  0  0  0  0  0  0
    6.9303   -0.7081    0.0000 H   0  0  0  0  0  0  0  0  0  0  0  0
    4.3718   -3.1907    0.0000 H   0  0  0  0  0  0  0  0  0  0  0  0
    4.2885   -3.9834    0.0000 H   0  0  0  0  0  0  0  0  0  0  0  0
    6.0329   -5.2508    0.0000 H   0  0  0  0  0  0  0  0  0  0  0  0
    6.7610   -4.9266    0.0000 H   0  0  0  0  0  0  0  0  0  0  0  0
    3.2304   -3.2146    0.0000 H   0  0  0  0  0  0  0  0  0  0  0  0
    3.9585   -2.8904    0.0000 H   0  0  0  0  0  0  0  0  0  0  0  0
    1.5693   -1.1546    0.0000 H   0  0  0  0  0  0  0  0  0  0  0  0
    1.4860   -1.9473    0.0000 H   0  0  0  0  0  0  0  0  0  0  0  0
    6.1283    3.4035    0.0000 H   0  0  0  0  0  0  0  0  0  0  0  0
    5.4835    3.8720    0.0000 H   0  0  0  0  0  0  0  0  0  0  0  0
    3.5137    2.9950    0.0000 H   0  0  0  0  0  0  0  0  0  0  0  0
    3.4304    2.2024    0.0000 H   0  0  0  0  0  0  0  0  0  0  0  0
    4.6077   -4.7002    0.0000 H   0  0  0  0  0  0  0  0  0  0  0  0
    5.2525   -5.1688    0.0000 H   0  0  0  0  0  0  0  0  0  0  0  0
    1.8052   -2.6641    0.0000 H   0  0  0  0  0  0  0  0  0  0  0  0
    2.4500   -3.1326    0.0000 H   0  0  0  0  0  0  0  0  0  0  0  0
    4.7031    3.9540    0.0000 H   0  0  0  0  0  0  0  0  0  0  0  0
    3.9749    3.6299    0.0000 H   0  0  0  0  0  0  0  0  0  0  0  0
   13.9239   -3.5719    0.0000 H   0  0  0  0  0  0  0  0  0  0  0  0
   10.1330    1.0375    0.0000 H   0  0  0  0  0  0  0  0  0  0  0  0
   10.5315    1.7278    0.0000 H   0  0  0  0  0  0  0  0  0  0  0  0
    8.5180    2.8101    0.0000 H   0  0  0  0  0  0  0  0  0  0  0  0
    8.5180    4.4301    0.0000 H   0  0  0  0  0  0  0  0  0  0  0  0
   11.6737    1.9655    0.0000 H   0  0  0  0  0  0  0  0  0  0  0  0
    9.9209    5.2401    0.0000 H   0  0  0  0  0  0  0  0  0  0  0  0
   11.6737    5.2747    0.0000 H   0  0  0  0  0  0  0  0  0  0  0  0
   13.1227    2.7872    0.0000 H   0  0  0  0  0  0  0  0  0  0  0  0
   13.1227    4.4530    0.0000 H   0  0  0  0  0  0  0  0  0  0  0  0
 24  1  1  6  0  0  0
  1 43  1  0  0  0  0
  2 30  2  0  0  0  0
  3 35  1  0  0  0  0
  3105  1  0  0  0  0
  4 31  2  0  0  0  0
  5 32  2  0  0  0  0
  6 35  2  0  0  0  0
  7 18  1  0  0  0  0
  7 25  1  0  0  0  0
  7 30  1  0  0  0  0
  8 10  1  0  0  0  0
  8 31  1  0  0  0  0
  8 70  1  0  0  0  0
 17  9  1  6  0  0  0
  9 32  1  0  0  0  0
  9 86  1  0  0  0  0
 10 11  1  0  0  0  0
 10 12  1  0  0  0  0
 10 35  1  0  0  0  0
 11 12  1  0  0  0  0
 11 54  1  0  0  0  0
 11 55  1  0  0  0  0
 12 56  1  0  0  0  0
 12 57  1  0  0  0  0
 13 19  1  0  0  0  0
 13 20  1  0  0  0  0
 13 32  1  0  0  0  0
 13 58  1  0  0  0  0
 14 17  1  0  0  0  0
 14 22  1  0  0  0  0
 14 23  1  0  0  0  0
 14 59  1  0  0  0  0
 15 19  1  0  0  0  0
 15 26  1  0  0  0  0
 15 27  1  0  0  0  0
 15 60  1  0  0  0  0
 16 20  1  0  0  0  0
 16 28  1  0  0  0  0
 16 29  1  0  0  0  0
 16 61  1  0  0  0  0
 17 30  1  0  0  0  0
 17 62  1  0  0  0  0
 18 21  1  0  0  0  0
 18 31  1  1  0  0  0
 18 63  1  0  0  0  0
 19 64  1  0  0  0  0
 19 65  1  0  0  0  0
 20 66  1  0  0  0  0
 20 67  1  0  0  0  0
 21 24  1  0  0  0  0
 21 68  1  0  0  0  0
 21 69  1  0  0  0  0
 22 33  1  0  0  0  0
 22 71  1  0  0  0  0
 22 72  1  0  0  0  0
 23 34  1  0  0  0  0
 23 73  1  0  0  0  0
 23 74  1  0  0  0  0
 24 25  1  0  0  0  0
 24 75  1  0  0  0  0
 25 76  1  0  0  0  0
 25 77  1  0  0  0  0
 26 36  1  0  0  0  0
 26 78  1  0  0  0  0
 26 79  1  0  0  0  0
 27 37  1  0  0  0  0
 27 80  1  0  0  0  0
 27 81  1  0  0  0  0
 28 38  1  0  0  0  0
 28 82  1  0  0  0  0
 28 83  1  0  0  0  0
 29 39  1  0  0  0  0
 29 84  1  0  0  0  0
 29 85  1  0  0  0  0
 33 40  1  0  0  0  0
 33 87  1  0  0  0  0
 33 88  1  0  0  0  0
 34 40  1  0  0  0  0
 34 89  1  0  0  0  0
 34 90  1  0  0  0  0
 36 41  1  0  0  0  0
 36 91  1  0  0  0  0
 36 92  1  0  0  0  0
 37 41  1  0  0  0  0
 37 93  1  0  0  0  0
 37 94  1  0  0  0  0
 38 42  1  0  0  0  0
 38 95  1  0  0  0  0
 38 96  1  0  0  0  0
 39 42  1  0  0  0  0
 39 97  1  0  0  0  0
 39 98  1  0  0  0  0
 40 99  1  0  0  0  0
 40100  1  0  0  0  0
 41101  1  0  0  0  0
 41102  1  0  0  0  0
 42103  1  0  0  0  0
 42104  1  0  0  0  0
 43 44  1  0  0  0  0
 43106  1  0  0  0  0
 43107  1  0  0  0  0
 44 45  1  0  0  0  0
 44 46  2  0  0  0  0
 45 47  1  0  0  0  0
 45 49  2  0  0  0  0
 46 48  1  0  0  0  0
 46108  1  0  0  0  0
 47 50  1  0  0  0  0
 47 51  2  0  0  0  0
 48 50  2  0  0  0  0
 48109  1  0  0  0  0
 49 52  1  0  0  0  0
 49110  1  0  0  0  0
 50111  1  0  0  0  0
 51 53  1  0  0  0  0
 51112  1  0  0  0  0
 52 53  2  0  0  0  0
 52113  1  0  0  0  0
 53114  1  0  0  0  0
M  END
> <PUBCHEM_COMPOUND_CID>
500627
> <PUBCHEM_COMPOUND_CANONICALIZED>
1
> <PUBCHEM_CACTVS_COMPLEXITY>
1230
> <PUBCHEM_CACTVS_HBOND_ACCEPTOR>
6
> <PUBCHEM_CACTVS_HBOND_DONOR>
3
> <PUBCHEM_CACTVS_ROTATABLE_BOND>
14
> <PUBCHEM_CACTVS_SUBSKEYS>
AAADcfB/OAAAAAAAAAAAAAAAGAAAAWAAAAAwYMGDAAAAAADBUAAAHgAQCAAADbzhmAYwCMPABgCIAiHSGAACAAAgAAAIiIGICIgKZjKAsTiXcAAm1gGYqAe6yeCOgAACAAAQAAAAAAQAACAAAAAAAAAAAA==
> <PUBCHEM_IUPAC_OPENEYE_NAME>
1-[[(2S,4R)-1-[(2S)-2-cyclohexyl-2-[[3-cyclohexyl-2-(cyclohexylmethyl)propanoyl]amino]acetyl]-4-(1-naphthylmethoxy)pyrrolidine-2-carbonyl]amino]cyclopropanecarboxylic acid
> <PUBCHEM_IUPAC_CAS_NAME>
1-[[[(2S,4R)-1-[(2S)-2-cyclohexyl-2-[[3-cyclohexyl-2-(cyclohexylmethyl)-1-oxopropyl]amino]-1-oxoethyl]-4-(1-naphthalenylmethoxy)-2-pyrrolidinyl]-oxomethyl]amino]-1-cyclopropanecarboxylic acid
> <PUBCHEM_IUPAC_NAME_MARKUP>
1-[[(2<I>S</I>,4<I>R</I>)-1-[(2<I>S</I>)-2-cyclohexyl-2-[[3-cyclohexyl-2-(cyclohexylmethyl)propanoyl]amino]acetyl]-4-(naphthalen-1-ylmethoxy)pyrrolidine-2-carbonyl]amino]cyclopropane-1-carboxylic acid
> <PUBCHEM_IUPAC_NAME>
1-[[(2S,4R)-1-[(2S)-2-cyclohexyl-2-[[3-cyclohexyl-2-(cyclohexylmethyl)propanoyl]amino]acetyl]-4-(naphthalen-1-ylmethoxy)pyrrolidine-2-carbonyl]amino]cyclopropane-1-carboxylic acid
> <PUBCHEM_IUPAC_SYSTEMATIC_NAME>
1-[[(2S,4R)-1-[(2S)-2-cyclohexyl-2-[[3-cyclohexyl-2-(cyclohexylmethyl)propanoyl]amino]ethanoyl]-4-(naphthalen-1-ylmethoxy)pyrrolidin-2-yl]carbonylamino]cyclopropane-1-carboxylic acid
> <PUBCHEM_IUPAC_TRADITIONAL_NAME>
1-[[(2S,4R)-1-[(2S)-2-cyclohexyl-2-[[3-cyclohexyl-2-(cyclohexylmethyl)propanoyl]amino]acetyl]-4-(1-naphthylmethoxy)prolyl]amino]cyclopropanecarboxylic acid
> <PUBCHEM_IUPAC_INCHI>
InChI=1S/C44H61N3O6/c48-40(35(25-30-13-4-1-5-14-30)26-31-15-6-2-7-16-31)45-39(33-18-8-3-9-19-33)42(50)47-28-36(27-38(47)41(49)46-44(23-24-44)43(51)52)53-29-34-21-12-20-32-17-10-11-22-37(32)34/h10-12,17,20-22,30-31,33,35-36,38-39H,1-9,13-16,18-19,23-29H2,(H,45,48)(H,46,49)(H,51,52)/t36-,38+,39+/m1/s1
> <PUBCHEM_IUPAC_INCHIKEY>
GFDCJYFYUCNOMG-SHMWHNMASA-N
> <PUBCHEM_XLOGP3_AA>
9.7
> <PUBCHEM_EXACT_MASS>
727.45603667
> <PUBCHEM_MOLECULAR_FORMULA>
C44H61N3O6
> <PUBCHEM_MOLECULAR_WEIGHT>
728.0
> <PUBCHEM_OPENEYE_CAN_SMILES>
C1CCC(CC1)CC(CC2CCCCC2)C(=O)NC(C3CCCCC3)C(=O)N4CC(CC4C(=O)NC5(CC5)C(=O)O)OCC6=CC=CC7=CC=CC=C76
> <PUBCHEM_OPENEYE_ISO_SMILES>
C1CCC(CC1)CC(CC2CCCCC2)C(=O)N[C@@H](C3CCCCC3)C(=O)N4C[C@@H](C[C@H]4C(=O)NC5(CC5)C(=O)O)OCC6=CC=CC7=CC=CC=C76
> <PUBCHEM_CACTVS_TPSA>
125
> <PUBCHEM_MONOISOTOPIC_WEIGHT>
727.45603667
> <PUBCHEM_TOTAL_CHARGE>
0
> <PUBCHEM_HEAVY_ATOM_COUNT>
53
> <PUBCHEM_ATOM_DEF_STEREO_COUNT>
3
> <PUBCHEM_ATOM_UDEF_STEREO_COUNT>
0
> <PUBCHEM_BOND_DEF_STEREO_COUNT>
0
> <PUBCHEM_BOND_UDEF_STEREO_COUNT>
0
> <PUBCHEM_ISOTOPIC_ATOM_COUNT>
0
> <PUBCHEM_COMPONENT_COUNT>
1
> <PUBCHEM_CACTVS_TAUTO_COUNT>
-1
> <PUBCHEM_COORDINATE_TYPE>
1
5
255
> <PUBCHEM_BONDANNOTATIONS>
24  1  6
18  31  5
44  45  8
44  46  8
45  47  8
45  49  8
46  48  8
47  50  8
47  51  8
48  50  8
49  52  8
51  53  8
52  53  8
17  9  6
$$$$
