500606
  -OEChem-10302200282D
119120  0     1  0  0  0  0  0999 V2000
   12.2196    0.0860    0.0000 O   0  0  0  0  0  0  0  0  0  0  0  0
   15.0536   -0.7146    0.0000 O   0  0  0  0  0  0  0  0  0  0  0  0
   10.1981    3.0715    0.0000 O   0  0  0  0  0  0  0  0  0  0  0  0
    8.5039    3.4316    0.0000 O   0  0  0  0  0  0  0  0  0  0  0  0
    7.1370    1.1663    0.0000 O   0  0  0  0  0  0  0  0  0  0  0  0
   11.5895   -1.7146    0.0000 O   0  0  0  0  0  0  0  0  0  0  0  0
    5.1155    4.1519    0.0000 O   0  0  0  0  0  0  0  0  0  0  0  0
    5.5313    6.1082    0.0000 O   0  0  0  0  0  0  0  0  0  0  0  0
    7.2255    5.7481    0.0000 O   0  0  0  0  0  0  0  0  0  0  0  0
    2.5896    0.5994    0.0000 O   0  0  0  0  0  0  0  0  0  0  0  0
    2.0544    2.2467    0.0000 O   0  0  0  0  0  0  0  0  0  0  0  0
    4.3724    4.8210    0.0000 O   0  0  0  0  0  0  0  0  0  0  0  0
   13.3786    1.3732    0.0000 N   0  0  0  0  0  0  0  0  0  0  0  0
   10.7333    1.4243    0.0000 N   0  0  0  0  0  0  0  0  0  0  0  0
   13.3216   -0.7146    0.0000 N   0  0  0  0  0  0  0  0  0  0  0  0
    8.2960    2.4535    0.0000 N   0  0  0  0  0  0  0  0  0  0  0  0
   13.3216   -1.7146    0.0000 N   0  0  0  0  0  0  0  0  0  0  0  0
    5.6507    2.5046    0.0000 N   0  0  0  0  0  0  0  0  0  0  0  0
   12.4556   -3.2146    0.0000 N   0  0  0  0  0  0  0  0  0  0  0  0
    3.2134    3.5338    0.0000 N   0  0  0  0  0  0  0  0  0  0  0  0
   14.1876    0.7854    0.0000 C   0  0  1  0  0  0  0  0  0  0  0  0
   14.9966    1.3732    0.0000 C   0  0  0  0  0  0  0  0  0  0  0  0
   13.6876    2.3242    0.0000 C   0  0  0  0  0  0  0  0  0  0  0  0
   14.6876    2.3242    0.0000 C   0  0  0  0  0  0  0  0  0  0  0  0
   11.6844    1.7333    0.0000 C   0  0  2  0  0  0  0  0  0  0  0  0
   12.4275    1.0641    0.0000 C   0  0  0  0  0  0  0  0  0  0  0  0
   11.8923    2.7114    0.0000 C   0  0  0  0  0  0  0  0  0  0  0  0
   14.1876   -0.2146    0.0000 C   0  0  0  0  0  0  0  0  0  0  0  0
    9.0391    1.7844    0.0000 C   0  0  1  0  0  0  0  0  0  0  0  0
    8.8312    0.8062    0.0000 C   0  0  2  0  0  0  0  0  0  0  0  0
    9.9902    2.0934    0.0000 C   0  0  0  0  0  0  0  0  0  0  0  0
   11.1492    3.3806    0.0000 C   0  0  0  0  0  0  0  0  0  0  0  0
   12.8434    3.0204    0.0000 C   0  0  0  0  0  0  0  0  0  0  0  0
    7.8802    0.4972    0.0000 C   0  0  0  0  0  0  0  0  0  0  0  0
    9.5744    0.1371    0.0000 C   0  0  0  0  0  0  0  0  0  0  0  0
    7.3449    2.1445    0.0000 C   0  0  0  0  0  0  0  0  0  0  0  0
    6.6018    2.8136    0.0000 C   0  0  1  0  0  0  0  0  0  0  0  0
    7.6723   -0.4809    0.0000 C   0  0  0  0  0  0  0  0  0  0  0  0
   14.1876   -2.2146    0.0000 C   0  0  0  0  0  0  0  0  0  0  0  0
    6.8097    3.7918    0.0000 C   0  0  0  0  0  0  0  0  0  0  0  0
   12.4556   -2.2146    0.0000 C   0  0  0  0  0  0  0  0  0  0  0  0
   15.0536   -1.7146    0.0000 C   0  0  0  0  0  0  0  0  0  0  0  0
    6.0666    4.4609    0.0000 C   0  0  0  0  0  0  0  0  0  0  0  0
    4.9076    3.1737    0.0000 C   0  0  0  0  0  0  0  0  0  0  0  0
   11.5895   -3.7146    0.0000 C   0  0  2  0  0  0  0  0  0  0  0  0
   15.9197   -2.2146    0.0000 C   0  0  0  0  0  0  0  0  0  0  0  0
    3.9565    2.8647    0.0000 C   0  0  2  0  0  0  0  0  0  0  0  0
    6.2745    5.4390    0.0000 C   0  0  0  0  0  0  0  0  0  0  0  0
   11.5895   -4.7146    0.0000 C   0  0  0  0  0  0  0  0  0  0  0  0
    3.7486    1.8866    0.0000 C   0  0  0  0  0  0  0  0  0  0  0  0
   10.7235   -3.2146    0.0000 C   0  0  0  0  0  0  0  0  0  0  0  0
   10.7235   -5.2146    0.0000 C   0  0  0  0  0  0  0  0  0  0  0  0
   12.4556   -5.2146    0.0000 C   0  0  0  0  0  0  0  0  0  0  0  0
    2.7976    1.5776    0.0000 C   0  0  0  0  0  0  0  0  0  0  0  0
    3.4213    4.5120    0.0000 C   0  0  0  0  0  0  0  0  0  0  0  0
   10.7235   -6.2146    0.0000 C   0  0  0  0  0  0  0  0  0  0  0  0
   12.4556   -6.2146    0.0000 C   0  0  0  0  0  0  0  0  0  0  0  0
   11.5895   -6.7146    0.0000 C   0  0  0  0  0  0  0  0  0  0  0  0
    2.6782    5.1811    0.0000 C   0  0  0  0  0  0  0  0  0  0  0  0
   13.6352    0.5039    0.0000 H   0  0  0  0  0  0  0  0  0  0  0  0
   15.3066    0.8362    0.0000 H   0  0  0  0  0  0  0  0  0  0  0  0
   15.5630    1.6253    0.0000 H   0  0  0  0  0  0  0  0  0  0  0  0
   13.7524    2.9408    0.0000 H   0  0  0  0  0  0  0  0  0  0  0  0
   13.0812    2.4531    0.0000 H   0  0  0  0  0  0  0  0  0  0  0  0
   15.2941    2.4531    0.0000 H   0  0  0  0  0  0  0  0  0  0  0  0
   14.6228    2.9408    0.0000 H   0  0  0  0  0  0  0  0  0  0  0  0
   11.5555    1.1268    0.0000 H   0  0  0  0  0  0  0  0  0  0  0  0
   12.0212    3.3179    0.0000 H   0  0  0  0  0  0  0  0  0  0  0  0
   10.6044    0.8178    0.0000 H   0  0  0  0  0  0  0  0  0  0  0  0
    9.1680    2.3908    0.0000 H   0  0  0  0  0  0  0  0  0  0  0  0
    8.7023    0.1998    0.0000 H   0  0  0  0  0  0  0  0  0  0  0  0
   11.5640    3.8413    0.0000 H   0  0  0  0  0  0  0  0  0  0  0  0
   10.6884    3.7954    0.0000 H   0  0  0  0  0  0  0  0  0  0  0  0
   10.7343    2.9198    0.0000 H   0  0  0  0  0  0  0  0  0  0  0  0
   13.0350    2.4308    0.0000 H   0  0  0  0  0  0  0  0  0  0  0  0
   13.4330    3.2120    0.0000 H   0  0  0  0  0  0  0  0  0  0  0  0
   12.6518    3.6101    0.0000 H   0  0  0  0  0  0  0  0  0  0  0  0
   12.7847   -0.4046    0.0000 H   0  0  0  0  0  0  0  0  0  0  0  0
    7.7939    1.1112    0.0000 H   0  0  0  0  0  0  0  0  0  0  0  0
    7.2606    0.5188    0.0000 H   0  0  0  0  0  0  0  0  0  0  0  0
    9.1595   -0.3237    0.0000 H   0  0  0  0  0  0  0  0  0  0  0  0
   10.0351   -0.2778    0.0000 H   0  0  0  0  0  0  0  0  0  0  0  0
    9.9892    0.5978    0.0000 H   0  0  0  0  0  0  0  0  0  0  0  0
    6.4729    2.2072    0.0000 H   0  0  0  0  0  0  0  0  0  0  0  0
    7.0658   -0.3520    0.0000 H   0  0  0  0  0  0  0  0  0  0  0  0
    7.5434   -1.0874    0.0000 H   0  0  0  0  0  0  0  0  0  0  0  0
    8.2787   -0.6098    0.0000 H   0  0  0  0  0  0  0  0  0  0  0  0
   13.7891   -2.6896    0.0000 H   0  0  0  0  0  0  0  0  0  0  0  0
   14.5861   -2.6896    0.0000 H   0  0  0  0  0  0  0  0  0  0  0  0
    7.3846    3.5595    0.0000 H   0  0  0  0  0  0  0  0  0  0  0  0
    7.1382    4.3176    0.0000 H   0  0  0  0  0  0  0  0  0  0  0  0
    8.0432    3.8465    0.0000 H   0  0  0  0  0  0  0  0  0  0  0  0
   15.4522   -1.2397    0.0000 H   0  0  0  0  0  0  0  0  0  0  0  0
   14.6551   -1.2397    0.0000 H   0  0  0  0  0  0  0  0  0  0  0  0
    5.5218    1.8982    0.0000 H   0  0  0  0  0  0  0  0  0  0  0  0
    5.4917    4.6932    0.0000 H   0  0  0  0  0  0  0  0  0  0  0  0
    5.7380    3.9351    0.0000 H   0  0  0  0  0  0  0  0  0  0  0  0
   12.9925   -3.5246    0.0000 H   0  0  0  0  0  0  0  0  0  0  0  0
   11.5895   -3.0946    0.0000 H   0  0  0  0  0  0  0  0  0  0  0  0
   15.6097   -2.7516    0.0000 H   0  0  0  0  0  0  0  0  0  0  0  0
   16.4566   -2.5246    0.0000 H   0  0  0  0  0  0  0  0  0  0  0  0
   16.2297   -1.6777    0.0000 H   0  0  0  0  0  0  0  0  0  0  0  0
    4.0854    3.4712    0.0000 H   0  0  0  0  0  0  0  0  0  0  0  0
    3.8349    1.2726    0.0000 H   0  0  0  0  0  0  0  0  0  0  0  0
    4.3682    1.8649    0.0000 H   0  0  0  0  0  0  0  0  0  0  0  0
   11.0335   -2.6777    0.0000 H   0  0  0  0  0  0  0  0  0  0  0  0
   10.1866   -2.9046    0.0000 H   0  0  0  0  0  0  0  0  0  0  0  0
   10.4135   -3.7516    0.0000 H   0  0  0  0  0  0  0  0  0  0  0  0
    2.6237    3.3422    0.0000 H   0  0  0  0  0  0  0  0  0  0  0  0
   10.1866   -4.9046    0.0000 H   0  0  0  0  0  0  0  0  0  0  0  0
   12.9925   -4.9046    0.0000 H   0  0  0  0  0  0  0  0  0  0  0  0
    5.6602    6.7146    0.0000 H   0  0  0  0  0  0  0  0  0  0  0  0
   10.1866   -6.5246    0.0000 H   0  0  0  0  0  0  0  0  0  0  0  0
   12.9925   -6.5246    0.0000 H   0  0  0  0  0  0  0  0  0  0  0  0
   11.5895   -7.3346    0.0000 H   0  0  0  0  0  0  0  0  0  0  0  0
    3.0930    5.6419    0.0000 H   0  0  0  0  0  0  0  0  0  0  0  0
    2.2174    5.5960    0.0000 H   0  0  0  0  0  0  0  0  0  0  0  0
    2.2633    4.7204    0.0000 H   0  0  0  0  0  0  0  0  0  0  0  0
    2.0000    0.4078    0.0000 H   0  0  0  0  0  0  0  0  0  0  0  0
  1 26  2  0  0  0  0
  2 28  2  0  0  0  0
  3 31  2  0  0  0  0
  4 16  1  0  0  0  0
  4 92  1  0  0  0  0
  5 36  2  0  0  0  0
  6 41  2  0  0  0  0
  7 44  2  0  0  0  0
  8 48  1  0  0  0  0
  8112  1  0  0  0  0
  9 48  2  0  0  0  0
 10 54  1  0  0  0  0
 10119  1  0  0  0  0
 11 54  2  0  0  0  0
 12 55  2  0  0  0  0
 13 21  1  0  0  0  0
 13 23  1  0  0  0  0
 13 26  1  0  0  0  0
 25 14  1  1  0  0  0
 14 31  1  0  0  0  0
 14 69  1  0  0  0  0
 15 17  1  0  0  0  0
 15 28  1  0  0  0  0
 15 78  1  0  0  0  0
 29 16  1  6  0  0  0
 16 36  1  0  0  0  0
 17 39  1  0  0  0  0
 17 41  1  0  0  0  0
 37 18  1  6  0  0  0
 18 44  1  0  0  0  0
 18 95  1  0  0  0  0
 19 41  1  0  0  0  0
 45 19  1  6  0  0  0
 19 98  1  0  0  0  0
 47 20  1  6  0  0  0
 20 55  1  0  0  0  0
 20109  1  0  0  0  0
 21 22  1  0  0  0  0
 21 28  1  1  0  0  0
 21 60  1  0  0  0  0
 22 24  1  0  0  0  0
 22 61  1  0  0  0  0
 22 62  1  0  0  0  0
 23 24  1  0  0  0  0
 23 63  1  0  0  0  0
 23 64  1  0  0  0  0
 24 65  1  0  0  0  0
 24 66  1  0  0  0  0
 25 26  1  0  0  0  0
 25 27  1  0  0  0  0
 25 67  1  0  0  0  0
 27 32  1  0  0  0  0
 27 33  1  0  0  0  0
 27 68  1  0  0  0  0
 29 30  1  0  0  0  0
 29 31  1  0  0  0  0
 29 70  1  0  0  0  0
 30 34  1  0  0  0  0
 30 35  1  1  0  0  0
 30 71  1  0  0  0  0
 32 72  1  0  0  0  0
 32 73  1  0  0  0  0
 32 74  1  0  0  0  0
 33 75  1  0  0  0  0
 33 76  1  0  0  0  0
 33 77  1  0  0  0  0
 34 38  1  0  0  0  0
 34 79  1  0  0  0  0
 34 80  1  0  0  0  0
 35 81  1  0  0  0  0
 35 82  1  0  0  0  0
 35 83  1  0  0  0  0
 36 37  1  0  0  0  0
 37 40  1  0  0  0  0
 37 84  1  0  0  0  0
 38 85  1  0  0  0  0
 38 86  1  0  0  0  0
 38 87  1  0  0  0  0
 39 42  1  0  0  0  0
 39 88  1  0  0  0  0
 39 89  1  0  0  0  0
 40 43  1  0  0  0  0
 40 90  1  0  0  0  0
 40 91  1  0  0  0  0
 42 46  1  0  0  0  0
 42 93  1  0  0  0  0
 42 94  1  0  0  0  0
 43 48  1  0  0  0  0
 43 96  1  0  0  0  0
 43 97  1  0  0  0  0
 44 47  1  0  0  0  0
 45 49  1  0  0  0  0
 45 51  1  0  0  0  0
 45 99  1  0  0  0  0
 46100  1  0  0  0  0
 46101  1  0  0  0  0
 46102  1  0  0  0  0
 47 50  1  0  0  0  0
 47103  1  0  0  0  0
 49 52  2  0  0  0  0
 49 53  1  0  0  0  0
 50 54  1  0  0  0  0
 50104  1  0  0  0  0
 50105  1  0  0  0  0
 51106  1  0  0  0  0
 51107  1  0  0  0  0
 51108  1  0  0  0  0
 52 56  1  0  0  0  0
 52110  1  0  0  0  0
 53 57  2  0  0  0  0
 53111  1  0  0  0  0
 55 59  1  0  0  0  0
 56 58  2  0  0  0  0
 56113  1  0  0  0  0
 57 58  1  0  0  0  0
 57114  1  0  0  0  0
 58115  1  0  0  0  0
 59116  1  0  0  0  0
 59117  1  0  0  0  0
 59118  1  0  0  0  0
M  END
> <PUBCHEM_COMPOUND_CID>
500606
> <PUBCHEM_COMPOUND_CANONICALIZED>
1
> <PUBCHEM_CACTVS_COMPLEXITY>
1510
> <PUBCHEM_CACTVS_HBOND_ACCEPTOR>
12
> <PUBCHEM_CACTVS_HBOND_DONOR>
8
> <PUBCHEM_CACTVS_ROTATABLE_BOND>
21
> <PUBCHEM_CACTVS_SUBSKEYS>
AAADcfB//AAAAAAAAAAAAAAAAAAAAWAAAAAwAAAAAAAAAAABAAAAHgAcCAAADSjBmAQzCIPyAgCIAiHSGACCAAAgAAA+qIGIBIiIYDqAkTGUYAh+lgKIiAe/l4IOAAAAAAAAAAAAAAAAAAAAAAAAAAAAAA==
> <PUBCHEM_IUPAC_OPENEYE_NAME>
(4R)-4-[[(2S)-2-acetamido-3-carboxy-propanoyl]amino]-5-[hydroxy-[(1S,2S)-2-methyl-1-[[(1S)-2-methyl-1-[(2S)-2-[[[(1S)-1-phenylethyl]carbamoyl-propyl-amino]carbamoyl]pyrrolidine-1-carbonyl]propyl]carbamoyl]butyl]amino]-5-oxo-pentanoic acid
> <PUBCHEM_IUPAC_CAS_NAME>
(4R)-4-[[(2S)-2-acetamido-3-carboxy-1-oxopropyl]amino]-5-[hydroxy-[(2S,3S)-3-methyl-1-[[(2S)-3-methyl-1-oxo-1-[(2S)-2-[oxo-[2-[oxo-[[(1S)-1-phenylethyl]amino]methyl]-2-propylhydrazinyl]methyl]-1-pyrrolidinyl]butan-2-yl]amino]-1-oxopentan-2-yl]amino]-5-oxopentanoic acid
> <PUBCHEM_IUPAC_NAME_MARKUP>
(4<I>R</I>)-4-[[(2<I>S</I>)-2-acetamido-3-carboxypropanoyl]amino]-5-[hydroxy-[(2<I>S</I>,3<I>S</I>)-3-methyl-1-[[(2<I>S</I>)-3-methyl-1-oxo-1-[(2<I>S</I>)-2-[[[(1<I>S</I>)-1-phenylethyl]carbamoyl-propylamino]carbamoyl]pyrrolidin-1-yl]butan-2-yl]amino]-1-oxopentan-2-yl]amino]-5-oxopentanoic acid
> <PUBCHEM_IUPAC_NAME>
(4R)-4-[[(2S)-2-acetamido-3-carboxypropanoyl]amino]-5-[hydroxy-[(2S,3S)-3-methyl-1-[[(2S)-3-methyl-1-oxo-1-[(2S)-2-[[[(1S)-1-phenylethyl]carbamoyl-propylamino]carbamoyl]pyrrolidin-1-yl]butan-2-yl]amino]-1-oxopentan-2-yl]amino]-5-oxopentanoic acid
> <PUBCHEM_IUPAC_SYSTEMATIC_NAME>
(4R)-4-[[(2S)-2-acetamido-4-oxidanyl-4-oxidanylidene-butanoyl]amino]-5-[[(2S,3S)-3-methyl-1-[[(2S)-3-methyl-1-oxidanylidene-1-[(2S)-2-[[[(1S)-1-phenylethyl]carbamoyl-propyl-amino]carbamoyl]pyrrolidin-1-yl]butan-2-yl]amino]-1-oxidanylidene-pentan-2-yl]-oxidanyl-amino]-5-oxidanylidene-pentanoic acid
> <PUBCHEM_IUPAC_TRADITIONAL_NAME>
(4R)-4-[[(2S)-2-acetamido-3-carboxy-propanoyl]amino]-5-[hydroxy-[(1S,2S)-2-methyl-1-[[(1S)-2-methyl-1-[(2S)-2-[[[(1S)-1-phenylethyl]carbamoyl-propyl-amino]carbamoyl]pyrrolidine-1-carbonyl]propyl]carbamoyl]butyl]amino]-5-keto-valeric acid
> <PUBCHEM_IUPAC_INCHI>
InChI=1S/C39H60N8O12/c1-8-19-46(39(58)40-24(6)26-14-11-10-12-15-26)44-35(54)29-16-13-20-45(29)38(57)32(22(3)4)43-36(55)33(23(5)9-2)47(59)37(56)27(17-18-30(49)50)42-34(53)28(21-31(51)52)41-25(7)48/h10-12,14-15,22-24,27-29,32-33,59H,8-9,13,16-21H2,1-7H3,(H,40,58)(H,41,48)(H,42,53)(H,43,55)(H,44,54)(H,49,50)(H,51,52)/t23-,24-,27+,28-,29-,32-,33-/m0/s1
> <PUBCHEM_IUPAC_INCHIKEY>
WWKNURINQHELAL-ULVJCUJWSA-N
> <PUBCHEM_XLOGP3_AA>
1.5
> <PUBCHEM_EXACT_MASS>
832.43306938
> <PUBCHEM_MOLECULAR_FORMULA>
C39H60N8O12
> <PUBCHEM_MOLECULAR_WEIGHT>
832.9
> <PUBCHEM_OPENEYE_CAN_SMILES>
CCCN(C(=O)NC(C)C1=CC=CC=C1)NC(=O)C2CCCN2C(=O)C(C(C)C)NC(=O)C(C(C)CC)N(C(=O)C(CCC(=O)O)NC(=O)C(CC(=O)O)NC(=O)C)O
> <PUBCHEM_OPENEYE_ISO_SMILES>
CCCN(C(=O)N[C@@H](C)C1=CC=CC=C1)NC(=O)[C@@H]2CCCN2C(=O)[C@H](C(C)C)NC(=O)[C@H]([C@@H](C)CC)N(C(=O)[C@@H](CCC(=O)O)NC(=O)[C@H](CC(=O)O)NC(=O)C)O
> <PUBCHEM_CACTVS_TPSA>
284
> <PUBCHEM_MONOISOTOPIC_WEIGHT>
832.43306938
> <PUBCHEM_TOTAL_CHARGE>
0
> <PUBCHEM_HEAVY_ATOM_COUNT>
59
> <PUBCHEM_ATOM_DEF_STEREO_COUNT>
7
> <PUBCHEM_ATOM_UDEF_STEREO_COUNT>
0
> <PUBCHEM_BOND_DEF_STEREO_COUNT>
0
> <PUBCHEM_BOND_UDEF_STEREO_COUNT>
0
> <PUBCHEM_ISOTOPIC_ATOM_COUNT>
0
> <PUBCHEM_COMPONENT_COUNT>
1
> <PUBCHEM_CACTVS_TAUTO_COUNT>
-1
> <PUBCHEM_COORDINATE_TYPE>
1
5
255
> <PUBCHEM_BONDANNOTATIONS>
25  14  5
29  16  6
37  18  6
45  19  6
47  20  6
21  28  5
30  35  5
49  52  8
49  53  8
52  56  8
53  57  8
56  58  8
57  58  8
$$$$
