500633
  -OEChem-10302200282D
 75 78  0     1  0  0  0  0  0999 V2000
    2.0000   -4.7398    0.0000 Cl  0  0  0  0  0  0  0  0  0  0  0  0
    5.5301   -1.7157    0.0000 O   0  0  0  0  0  0  0  0  0  0  0  0
    7.5235    4.3454    0.0000 O   0  0  0  0  0  0  0  0  0  0  0  0
    8.8801    1.0048    0.0000 O   0  0  0  0  0  0  0  0  0  0  0  0
    6.1222    3.3274    0.0000 O   0  0  0  0  0  0  0  0  0  0  0  0
    9.5611   -0.1748    0.0000 O   0  0  0  0  0  0  0  0  0  0  0  0
   11.7759   -3.0199    0.0000 O   0  0  0  0  0  0  0  0  0  0  0  0
   10.1936   -3.7244    0.0000 O   0  0  0  0  0  0  0  0  0  0  0  0
    7.2978    1.7093    0.0000 N   0  0  0  0  0  0  0  0  0  0  0  0
    7.9788   -0.8793    0.0000 N   0  0  0  0  0  0  0  0  0  0  0  0
   10.3746   -2.0019    0.0000 N   0  0  0  0  0  0  0  0  0  0  0  0
    5.5301   -4.7157    0.0000 N   0  0  0  0  0  0  0  0  0  0  0  0
    7.7045    2.6229    0.0000 C   0  0  0  0  0  0  0  0  0  0  0  0
    8.6181    2.2161    0.0000 C   0  0  0  0  0  0  0  0  0  0  0  0
    8.5135    3.2107    0.0000 C   0  0  0  0  0  0  0  0  0  0  0  0
    7.4788   -0.0132    0.0000 C   0  0  1  0  0  0  0  0  0  0  0  0
    6.5007   -0.2211    0.0000 C   0  0  0  0  0  0  0  0  0  0  0  0
    7.8856    0.9003    0.0000 C   0  0  0  0  0  0  0  0  0  0  0  0
    6.3961   -1.2157    0.0000 C   0  0  2  0  0  0  0  0  0  0  0  0
    7.1167    3.4319    0.0000 C   0  0  0  0  0  0  0  0  0  0  0  0
    7.3097   -1.6224    0.0000 C   0  0  0  0  0  0  0  0  0  0  0  0
    8.9734   -0.9838    0.0000 C   0  0  0  0  0  0  0  0  0  0  0  0
    9.3801   -1.8973    0.0000 C   0  0  2  0  0  0  0  0  0  0  0  0
    8.7923   -2.7064    0.0000 C   0  0  0  0  0  0  0  0  0  0  0  0
    5.5301   -2.7157    0.0000 C   0  0  0  0  0  0  0  0  0  0  0  0
    9.1990   -3.6199    0.0000 C   0  0  0  0  0  0  0  0  0  0  0  0
    7.7978   -2.6018    0.0000 C   0  0  0  0  0  0  0  0  0  0  0  0
    4.6641   -3.2157    0.0000 C   0  0  0  0  0  0  0  0  0  0  0  0
   10.7813   -2.9154    0.0000 C   0  0  0  0  0  0  0  0  0  0  0  0
    6.3961   -3.2157    0.0000 C   0  0  0  0  0  0  0  0  0  0  0  0
    4.6641   -4.2157    0.0000 C   0  0  0  0  0  0  0  0  0  0  0  0
    3.7702   -2.6810    0.0000 C   0  0  0  0  0  0  0  0  0  0  0  0
   12.1826   -3.9335    0.0000 C   0  0  0  0  0  0  0  0  0  0  0  0
    6.3961   -4.2157    0.0000 C   0  0  0  0  0  0  0  0  0  0  0  0
    3.7702   -4.7503    0.0000 C   0  0  0  0  0  0  0  0  0  0  0  0
    2.8641   -3.1949    0.0000 C   0  0  0  0  0  0  0  0  0  0  0  0
   12.5893   -4.8470    0.0000 C   0  0  0  0  0  0  0  0  0  0  0  0
   13.0961   -3.5267    0.0000 C   0  0  0  0  0  0  0  0  0  0  0  0
   11.2691   -4.3402    0.0000 C   0  0  0  0  0  0  0  0  0  0  0  0
    2.8641   -4.2365    0.0000 C   0  0  0  0  0  0  0  0  0  0  0  0
    8.4681    1.6146    0.0000 H   0  0  0  0  0  0  0  0  0  0  0  0
    9.2366    2.1729    0.0000 H   0  0  0  0  0  0  0  0  0  0  0  0
    9.1095    3.3816    0.0000 H   0  0  0  0  0  0  0  0  0  0  0  0
    8.2417    3.7679    0.0000 H   0  0  0  0  0  0  0  0  0  0  0  0
    8.0980    0.0192    0.0000 H   0  0  0  0  0  0  0  0  0  0  0  0
    6.6812    1.6445    0.0000 H   0  0  0  0  0  0  0  0  0  0  0  0
    6.4359    0.3955    0.0000 H   0  0  0  0  0  0  0  0  0  0  0  0
    5.8807   -0.2211    0.0000 H   0  0  0  0  0  0  0  0  0  0  0  0
    5.8762   -0.8780    0.0000 H   0  0  0  0  0  0  0  0  0  0  0  0
    6.9997   -2.1593    0.0000 H   0  0  0  0  0  0  0  0  0  0  0  0
    7.8113   -1.9868    0.0000 H   0  0  0  0  0  0  0  0  0  0  0  0
    9.6323   -2.4637    0.0000 H   0  0  0  0  0  0  0  0  0  0  0  0
    8.4279   -3.2079    0.0000 H   0  0  0  0  0  0  0  0  0  0  0  0
    7.1590    4.8470    0.0000 H   0  0  0  0  0  0  0  0  0  0  0  0
   10.7390   -1.5003    0.0000 H   0  0  0  0  0  0  0  0  0  0  0  0
    8.6326   -3.8721    0.0000 H   0  0  0  0  0  0  0  0  0  0  0  0
    9.4512   -4.1863    0.0000 H   0  0  0  0  0  0  0  0  0  0  0  0
    9.7654   -3.3677    0.0000 H   0  0  0  0  0  0  0  0  0  0  0  0
    7.8626   -1.9852    0.0000 H   0  0  0  0  0  0  0  0  0  0  0  0
    7.1812   -2.5370    0.0000 H   0  0  0  0  0  0  0  0  0  0  0  0
    7.7330   -3.2184    0.0000 H   0  0  0  0  0  0  0  0  0  0  0  0
    6.9331   -2.9057    0.0000 H   0  0  0  0  0  0  0  0  0  0  0  0
    3.7773   -2.0610    0.0000 H   0  0  0  0  0  0  0  0  0  0  0  0
    6.9331   -4.5257    0.0000 H   0  0  0  0  0  0  0  0  0  0  0  0
    3.7773   -5.3703    0.0000 H   0  0  0  0  0  0  0  0  0  0  0  0
    2.3284   -2.8828    0.0000 H   0  0  0  0  0  0  0  0  0  0  0  0
   12.0229   -5.0992    0.0000 H   0  0  0  0  0  0  0  0  0  0  0  0
   12.8415   -5.4134    0.0000 H   0  0  0  0  0  0  0  0  0  0  0  0
   13.1557   -4.5948    0.0000 H   0  0  0  0  0  0  0  0  0  0  0  0
   13.3483   -4.0931    0.0000 H   0  0  0  0  0  0  0  0  0  0  0  0
   13.6625   -3.2746    0.0000 H   0  0  0  0  0  0  0  0  0  0  0  0
   12.8440   -2.9604    0.0000 H   0  0  0  0  0  0  0  0  0  0  0  0
   11.0169   -3.7738    0.0000 H   0  0  0  0  0  0  0  0  0  0  0  0
   10.7027   -4.5924    0.0000 H   0  0  0  0  0  0  0  0  0  0  0  0
   11.5212   -4.9066    0.0000 H   0  0  0  0  0  0  0  0  0  0  0  0
  1 40  1  0  0  0  0
 19  2  1  6  0  0  0
  2 25  1  0  0  0  0
  3 20  1  0  0  0  0
  3 54  1  0  0  0  0
  4 18  2  0  0  0  0
  5 20  2  0  0  0  0
  6 22  2  0  0  0  0
  7 29  1  0  0  0  0
  7 33  1  0  0  0  0
  8 29  2  0  0  0  0
  9 13  1  0  0  0  0
  9 18  1  0  0  0  0
  9 46  1  0  0  0  0
 10 16  1  0  0  0  0
 10 21  1  0  0  0  0
 10 22  1  0  0  0  0
 23 11  1  1  0  0  0
 11 29  1  0  0  0  0
 11 55  1  0  0  0  0
 12 31  2  0  0  0  0
 12 34  1  0  0  0  0
 13 14  1  0  0  0  0
 13 15  1  0  0  0  0
 13 20  1  0  0  0  0
 14 15  1  0  0  0  0
 14 41  1  0  0  0  0
 14 42  1  0  0  0  0
 15 43  1  0  0  0  0
 15 44  1  0  0  0  0
 16 17  1  0  0  0  0
 16 18  1  1  0  0  0
 16 45  1  0  0  0  0
 17 19  1  0  0  0  0
 17 47  1  0  0  0  0
 17 48  1  0  0  0  0
 19 21  1  0  0  0  0
 19 49  1  0  0  0  0
 21 50  1  0  0  0  0
 21 51  1  0  0  0  0
 22 23  1  0  0  0  0
 23 24  1  0  0  0  0
 23 52  1  0  0  0  0
 24 26  1  0  0  0  0
 24 27  1  0  0  0  0
 24 53  1  0  0  0  0
 25 28  2  0  0  0  0
 25 30  1  0  0  0  0
 26 56  1  0  0  0  0
 26 57  1  0  0  0  0
 26 58  1  0  0  0  0
 27 59  1  0  0  0  0
 27 60  1  0  0  0  0
 27 61  1  0  0  0  0
 28 31  1  0  0  0  0
 28 32  1  0  0  0  0
 30 34  2  0  0  0  0
 30 62  1  0  0  0  0
 31 35  1  0  0  0  0
 32 36  2  0  0  0  0
 32 63  1  0  0  0  0
 33 37  1  0  0  0  0
 33 38  1  0  0  0  0
 33 39  1  0  0  0  0
 34 64  1  0  0  0  0
 35 40  2  0  0  0  0
 35 65  1  0  0  0  0
 36 40  1  0  0  0  0
 36 66  1  0  0  0  0
 37 67  1  0  0  0  0
 37 68  1  0  0  0  0
 37 69  1  0  0  0  0
 38 70  1  0  0  0  0
 38 71  1  0  0  0  0
 38 72  1  0  0  0  0
 39 73  1  0  0  0  0
 39 74  1  0  0  0  0
 39 75  1  0  0  0  0
M  END
> <PUBCHEM_COMPOUND_CID>
500633
> <PUBCHEM_COMPOUND_CANONICALIZED>
1
> <PUBCHEM_CACTVS_COMPLEXITY>
982
> <PUBCHEM_CACTVS_HBOND_ACCEPTOR>
8
> <PUBCHEM_CACTVS_HBOND_DONOR>
3
> <PUBCHEM_CACTVS_ROTATABLE_BOND>
10
> <PUBCHEM_CACTVS_SUBSKEYS>
AAADcfB7uAAEAAAAAAAAAAAAGAAAAWAAAAA8QAAAAAAAAACx8AAAHgIQCAAADf7hniY+zvPIFgCoAzX3XACCiCAxJyAI2KG+bpkOZvLFs7ufeCjm1hnY6Ae6waAOBAAAAAICAAAIAAAABAQAAAAAAAAAAA==
> <PUBCHEM_IUPAC_OPENEYE_NAME>
1-[[(2S,4R)-1-[(2S)-2-(tert-butoxycarbonylamino)-3-methyl-butanoyl]-4-[(7-chloro-4-quinolyl)oxy]pyrrolidine-2-carbonyl]amino]cyclopropanecarboxylic acid
> <PUBCHEM_IUPAC_CAS_NAME>
1-[[[(2S,4R)-4-[(7-chloro-4-quinolinyl)oxy]-1-[(2S)-3-methyl-2-[[(2-methylpropan-2-yl)oxy-oxomethyl]amino]-1-oxobutyl]-2-pyrrolidinyl]-oxomethyl]amino]-1-cyclopropanecarboxylic acid
> <PUBCHEM_IUPAC_NAME_MARKUP>
1-[[(2<I>S</I>,4<I>R</I>)-4-(7-chloroquinolin-4-yl)oxy-1-[(2<I>S</I>)-3-methyl-2-[(2-methylpropan-2-yl)oxycarbonylamino]butanoyl]pyrrolidine-2-carbonyl]amino]cyclopropane-1-carboxylic acid
> <PUBCHEM_IUPAC_NAME>
1-[[(2S,4R)-4-(7-chloroquinolin-4-yl)oxy-1-[(2S)-3-methyl-2-[(2-methylpropan-2-yl)oxycarbonylamino]butanoyl]pyrrolidine-2-carbonyl]amino]cyclopropane-1-carboxylic acid
> <PUBCHEM_IUPAC_SYSTEMATIC_NAME>
1-[[(2S,4R)-4-(7-chloranylquinolin-4-yl)oxy-1-[(2S)-3-methyl-2-[(2-methylpropan-2-yl)oxycarbonylamino]butanoyl]pyrrolidin-2-yl]carbonylamino]cyclopropane-1-carboxylic acid
> <PUBCHEM_IUPAC_TRADITIONAL_NAME>
1-[[(2S,4R)-1-[(2S)-2-(tert-butoxycarbonylamino)-3-methyl-butanoyl]-4-[(7-chloro-4-quinolyl)oxy]prolyl]amino]cyclopropanecarboxylic acid
> <PUBCHEM_IUPAC_INCHI>
InChI=1S/C28H35ClN4O7/c1-15(2)22(31-26(38)40-27(3,4)5)24(35)33-14-17(13-20(33)23(34)32-28(9-10-28)25(36)37)39-21-8-11-30-19-12-16(29)6-7-18(19)21/h6-8,11-12,15,17,20,22H,9-10,13-14H2,1-5H3,(H,31,38)(H,32,34)(H,36,37)/t17-,20+,22+/m1/s1
> <PUBCHEM_IUPAC_INCHIKEY>
MTWCDOOZHZJBMN-AGHHOFFYSA-N
> <PUBCHEM_XLOGP3_AA>
3.9
> <PUBCHEM_EXACT_MASS>
574.2194272
> <PUBCHEM_MOLECULAR_FORMULA>
C28H35ClN4O7
> <PUBCHEM_MOLECULAR_WEIGHT>
575.1
> <PUBCHEM_OPENEYE_CAN_SMILES>
CC(C)C(C(=O)N1CC(CC1C(=O)NC2(CC2)C(=O)O)OC3=C4C=CC(=CC4=NC=C3)Cl)NC(=O)OC(C)(C)C
> <PUBCHEM_OPENEYE_ISO_SMILES>
CC(C)[C@@H](C(=O)N1C[C@@H](C[C@H]1C(=O)NC2(CC2)C(=O)O)OC3=C4C=CC(=CC4=NC=C3)Cl)NC(=O)OC(C)(C)C
> <PUBCHEM_CACTVS_TPSA>
147
> <PUBCHEM_MONOISOTOPIC_WEIGHT>
574.2194272
> <PUBCHEM_TOTAL_CHARGE>
0
> <PUBCHEM_HEAVY_ATOM_COUNT>
40
> <PUBCHEM_ATOM_DEF_STEREO_COUNT>
3
> <PUBCHEM_ATOM_UDEF_STEREO_COUNT>
0
> <PUBCHEM_BOND_DEF_STEREO_COUNT>
0
> <PUBCHEM_BOND_UDEF_STEREO_COUNT>
0
> <PUBCHEM_ISOTOPIC_ATOM_COUNT>
0
> <PUBCHEM_COMPONENT_COUNT>
1
> <PUBCHEM_CACTVS_TAUTO_COUNT>
-1
> <PUBCHEM_COORDINATE_TYPE>
1
5
255
> <PUBCHEM_BONDANNOTATIONS>
23  11  5
12  31  8
12  34  8
16  18  5
19  2  6
25  28  8
25  30  8
28  31  8
28  32  8
30  34  8
31  35  8
32  36  8
35  40  8
36  40  8
$$$$
