500672
  -OEChem-10302200282D
 81 84  0     1  0  0  0  0  0999 V2000
    2.0000   -4.1022    0.0000 Cl  0  0  0  0  0  0  0  0  0  0  0  0
    5.5301   -1.0781    0.0000 O   0  0  0  0  0  0  0  0  0  0  0  0
    8.8801    1.6424    0.0000 O   0  0  0  0  0  0  0  0  0  0  0  0
    6.6864    4.6617    0.0000 O   0  0  0  0  0  0  0  0  0  0  0  0
    5.9820    3.0794    0.0000 O   0  0  0  0  0  0  0  0  0  0  0  0
    9.5611    0.4628    0.0000 O   0  0  0  0  0  0  0  0  0  0  0  0
   10.1936   -3.0868    0.0000 O   0  0  0  0  0  0  0  0  0  0  0  0
    8.6112   -3.7913    0.0000 O   0  0  0  0  0  0  0  0  0  0  0  0
    7.9788   -0.2417    0.0000 N   0  0  0  0  0  0  0  0  0  0  0  0
    7.2978    2.3469    0.0000 N   0  0  0  0  0  0  0  0  0  0  0  0
    8.7923   -2.0688    0.0000 N   0  0  0  0  0  0  0  0  0  0  0  0
    5.5301   -4.0781    0.0000 N   0  0  0  0  0  0  0  0  0  0  0  0
    7.7045    3.2605    0.0000 C   0  0  0  0  0  0  0  0  0  0  0  0
    8.6181    2.8537    0.0000 C   0  0  0  0  0  0  0  0  0  0  0  0
    8.1112    4.1740    0.0000 C   0  0  0  0  0  0  0  0  0  0  0  0
    9.0248    3.7673    0.0000 C   0  0  0  0  0  0  0  0  0  0  0  0
    7.4788    0.6244    0.0000 C   0  0  1  0  0  0  0  0  0  0  0  0
    6.5007    0.4165    0.0000 C   0  0  0  0  0  0  0  0  0  0  0  0
    6.3961   -0.5781    0.0000 C   0  0  2  0  0  0  0  0  0  0  0  0
    7.3097   -0.9848    0.0000 C   0  0  0  0  0  0  0  0  0  0  0  0
    7.8856    1.5379    0.0000 C   0  0  0  0  0  0  0  0  0  0  0  0
    6.7910    3.6672    0.0000 C   0  0  0  0  0  0  0  0  0  0  0  0
    9.3801   -1.2597    0.0000 C   0  0  2  0  0  0  0  0  0  0  0  0
    8.9734   -0.3462    0.0000 C   0  0  0  0  0  0  0  0  0  0  0  0
   10.3746   -1.3643    0.0000 C   0  0  0  0  0  0  0  0  0  0  0  0
   11.3691   -1.4688    0.0000 C   0  0  0  0  0  0  0  0  0  0  0  0
   10.2701   -2.3588    0.0000 C   0  0  0  0  0  0  0  0  0  0  0  0
   10.4791   -0.3697    0.0000 C   0  0  0  0  0  0  0  0  0  0  0  0
    5.5301   -2.0781    0.0000 C   0  0  0  0  0  0  0  0  0  0  0  0
    9.1990   -2.9823    0.0000 C   0  0  0  0  0  0  0  0  0  0  0  0
    4.6641   -2.5781    0.0000 C   0  0  0  0  0  0  0  0  0  0  0  0
    6.3961   -2.5781    0.0000 C   0  0  0  0  0  0  0  0  0  0  0  0
    4.6641   -3.5781    0.0000 C   0  0  0  0  0  0  0  0  0  0  0  0
   10.6003   -4.0004    0.0000 C   0  0  0  0  0  0  0  0  0  0  0  0
    3.7702   -2.0434    0.0000 C   0  0  0  0  0  0  0  0  0  0  0  0
    6.3961   -3.5781    0.0000 C   0  0  0  0  0  0  0  0  0  0  0  0
    3.7702   -4.1127    0.0000 C   0  0  0  0  0  0  0  0  0  0  0  0
   11.0070   -4.9139    0.0000 C   0  0  0  0  0  0  0  0  0  0  0  0
   11.5138   -3.5936    0.0000 C   0  0  0  0  0  0  0  0  0  0  0  0
    9.6868   -4.4071    0.0000 C   0  0  0  0  0  0  0  0  0  0  0  0
    2.8641   -2.5572    0.0000 C   0  0  0  0  0  0  0  0  0  0  0  0
    2.8641   -3.5989    0.0000 C   0  0  0  0  0  0  0  0  0  0  0  0
    8.3659    2.2873    0.0000 H   0  0  0  0  0  0  0  0  0  0  0  0
    9.1845    2.6016    0.0000 H   0  0  0  0  0  0  0  0  0  0  0  0
    8.3634    4.7404    0.0000 H   0  0  0  0  0  0  0  0  0  0  0  0
    7.5448    4.4262    0.0000 H   0  0  0  0  0  0  0  0  0  0  0  0
    9.5912    3.5151    0.0000 H   0  0  0  0  0  0  0  0  0  0  0  0
    9.2770    4.3337    0.0000 H   0  0  0  0  0  0  0  0  0  0  0  0
    8.0980    0.6568    0.0000 H   0  0  0  0  0  0  0  0  0  0  0  0
    6.4359    1.0331    0.0000 H   0  0  0  0  0  0  0  0  0  0  0  0
    5.8807    0.4165    0.0000 H   0  0  0  0  0  0  0  0  0  0  0  0
    6.4286   -1.1972    0.0000 H   0  0  0  0  0  0  0  0  0  0  0  0
    6.6812    2.2821    0.0000 H   0  0  0  0  0  0  0  0  0  0  0  0
    6.9997   -1.5217    0.0000 H   0  0  0  0  0  0  0  0  0  0  0  0
    7.8113   -1.3492    0.0000 H   0  0  0  0  0  0  0  0  0  0  0  0
    9.6323   -1.8261    0.0000 H   0  0  0  0  0  0  0  0  0  0  0  0
   11.3043   -2.0854    0.0000 H   0  0  0  0  0  0  0  0  0  0  0  0
   11.9857   -1.5336    0.0000 H   0  0  0  0  0  0  0  0  0  0  0  0
   11.4339   -0.8522    0.0000 H   0  0  0  0  0  0  0  0  0  0  0  0
    9.6535   -2.2940    0.0000 H   0  0  0  0  0  0  0  0  0  0  0  0
   10.2053   -2.9754    0.0000 H   0  0  0  0  0  0  0  0  0  0  0  0
   10.8867   -2.4236    0.0000 H   0  0  0  0  0  0  0  0  0  0  0  0
   11.0957   -0.4345    0.0000 H   0  0  0  0  0  0  0  0  0  0  0  0
   10.5439    0.2469    0.0000 H   0  0  0  0  0  0  0  0  0  0  0  0
    9.8625   -0.3049    0.0000 H   0  0  0  0  0  0  0  0  0  0  0  0
    8.1757   -2.0039    0.0000 H   0  0  0  0  0  0  0  0  0  0  0  0
    6.1200    4.9139    0.0000 H   0  0  0  0  0  0  0  0  0  0  0  0
    6.9331   -2.2681    0.0000 H   0  0  0  0  0  0  0  0  0  0  0  0
    3.7773   -1.4234    0.0000 H   0  0  0  0  0  0  0  0  0  0  0  0
    6.9331   -3.8881    0.0000 H   0  0  0  0  0  0  0  0  0  0  0  0
    3.7773   -4.7327    0.0000 H   0  0  0  0  0  0  0  0  0  0  0  0
   10.4406   -5.1661    0.0000 H   0  0  0  0  0  0  0  0  0  0  0  0
   11.2592   -5.4803    0.0000 H   0  0  0  0  0  0  0  0  0  0  0  0
   11.5734   -4.6617    0.0000 H   0  0  0  0  0  0  0  0  0  0  0  0
   11.7660   -4.1600    0.0000 H   0  0  0  0  0  0  0  0  0  0  0  0
   12.0802   -3.3414    0.0000 H   0  0  0  0  0  0  0  0  0  0  0  0
   11.2617   -3.0272    0.0000 H   0  0  0  0  0  0  0  0  0  0  0  0
    9.4346   -3.8407    0.0000 H   0  0  0  0  0  0  0  0  0  0  0  0
    9.1204   -4.6593    0.0000 H   0  0  0  0  0  0  0  0  0  0  0  0
    9.9389   -4.9735    0.0000 H   0  0  0  0  0  0  0  0  0  0  0  0
    2.3284   -2.2452    0.0000 H   0  0  0  0  0  0  0  0  0  0  0  0
  1 42  1  0  0  0  0
 19  2  1  6  0  0  0
  2 29  1  0  0  0  0
  3 21  2  0  0  0  0
  4 22  1  0  0  0  0
  4 67  1  0  0  0  0
  5 22  2  0  0  0  0
  6 24  2  0  0  0  0
  7 30  1  0  0  0  0
  7 34  1  0  0  0  0
  8 30  2  0  0  0  0
  9 17  1  0  0  0  0
  9 20  1  0  0  0  0
  9 24  1  0  0  0  0
 10 13  1  0  0  0  0
 10 21  1  0  0  0  0
 10 53  1  0  0  0  0
 23 11  1  6  0  0  0
 11 30  1  0  0  0  0
 11 66  1  0  0  0  0
 12 33  2  0  0  0  0
 12 36  1  0  0  0  0
 13 14  1  0  0  0  0
 13 15  1  0  0  0  0
 13 22  1  0  0  0  0
 14 16  1  0  0  0  0
 14 43  1  0  0  0  0
 14 44  1  0  0  0  0
 15 16  1  0  0  0  0
 15 45  1  0  0  0  0
 15 46  1  0  0  0  0
 16 47  1  0  0  0  0
 16 48  1  0  0  0  0
 17 18  1  0  0  0  0
 17 21  1  1  0  0  0
 17 49  1  0  0  0  0
 18 19  1  0  0  0  0
 18 50  1  0  0  0  0
 18 51  1  0  0  0  0
 19 20  1  0  0  0  0
 19 52  1  0  0  0  0
 20 54  1  0  0  0  0
 20 55  1  0  0  0  0
 23 24  1  0  0  0  0
 23 25  1  0  0  0  0
 23 56  1  0  0  0  0
 25 26  1  0  0  0  0
 25 27  1  0  0  0  0
 25 28  1  0  0  0  0
 26 57  1  0  0  0  0
 26 58  1  0  0  0  0
 26 59  1  0  0  0  0
 27 60  1  0  0  0  0
 27 61  1  0  0  0  0
 27 62  1  0  0  0  0
 28 63  1  0  0  0  0
 28 64  1  0  0  0  0
 28 65  1  0  0  0  0
 29 31  2  0  0  0  0
 29 32  1  0  0  0  0
 31 33  1  0  0  0  0
 31 35  1  0  0  0  0
 32 36  2  0  0  0  0
 32 68  1  0  0  0  0
 33 37  1  0  0  0  0
 34 38  1  0  0  0  0
 34 39  1  0  0  0  0
 34 40  1  0  0  0  0
 35 41  2  0  0  0  0
 35 69  1  0  0  0  0
 36 70  1  0  0  0  0
 37 42  2  0  0  0  0
 37 71  1  0  0  0  0
 38 72  1  0  0  0  0
 38 73  1  0  0  0  0
 38 74  1  0  0  0  0
 39 75  1  0  0  0  0
 39 76  1  0  0  0  0
 39 77  1  0  0  0  0
 40 78  1  0  0  0  0
 40 79  1  0  0  0  0
 40 80  1  0  0  0  0
 41 42  1  0  0  0  0
 41 81  1  0  0  0  0
M  END
> <PUBCHEM_COMPOUND_CID>
500672
> <PUBCHEM_COMPOUND_CANONICALIZED>
1
> <PUBCHEM_CACTVS_COMPLEXITY>
1040
> <PUBCHEM_CACTVS_HBOND_ACCEPTOR>
8
> <PUBCHEM_CACTVS_HBOND_DONOR>
3
> <PUBCHEM_CACTVS_ROTATABLE_BOND>
10
> <PUBCHEM_CACTVS_SUBSKEYS>
AAADcfB7uAAEAAAAAAAAAAAAAABgAWAAAAA8QAAAAAAAAACx8AAAHgIQCAAADv7hniY+zvPIFgCoAzX3XACCiCAxJyAI2KG+bpkOZvLFs7ufeCjm1hnY6Ae6waAPBAAAAAICAAAIAAAABAQAAAAAAAAAAA==
> <PUBCHEM_IUPAC_OPENEYE_NAME>
1-[[(2S,4R)-1-[(2S)-2-(tert-butoxycarbonylamino)-3,3-dimethyl-butanoyl]-4-[(7-chloro-4-quinolyl)oxy]pyrrolidine-2-carbonyl]amino]cyclobutanecarboxylic acid
> <PUBCHEM_IUPAC_CAS_NAME>
1-[[[(2S,4R)-4-[(7-chloro-4-quinolinyl)oxy]-1-[(2S)-3,3-dimethyl-2-[[(2-methylpropan-2-yl)oxy-oxomethyl]amino]-1-oxobutyl]-2-pyrrolidinyl]-oxomethyl]amino]-1-cyclobutanecarboxylic acid
> <PUBCHEM_IUPAC_NAME_MARKUP>
1-[[(2<I>S</I>,4<I>R</I>)-4-(7-chloroquinolin-4-yl)oxy-1-[(2<I>S</I>)-3,3-dimethyl-2-[(2-methylpropan-2-yl)oxycarbonylamino]butanoyl]pyrrolidine-2-carbonyl]amino]cyclobutane-1-carboxylic acid
> <PUBCHEM_IUPAC_NAME>
1-[[(2S,4R)-4-(7-chloroquinolin-4-yl)oxy-1-[(2S)-3,3-dimethyl-2-[(2-methylpropan-2-yl)oxycarbonylamino]butanoyl]pyrrolidine-2-carbonyl]amino]cyclobutane-1-carboxylic acid
> <PUBCHEM_IUPAC_SYSTEMATIC_NAME>
1-[[(2S,4R)-4-(7-chloranylquinolin-4-yl)oxy-1-[(2S)-3,3-dimethyl-2-[(2-methylpropan-2-yl)oxycarbonylamino]butanoyl]pyrrolidin-2-yl]carbonylamino]cyclobutane-1-carboxylic acid
> <PUBCHEM_IUPAC_TRADITIONAL_NAME>
1-[[(2S,4R)-1-[(2S)-2-(tert-butoxycarbonylamino)-3,3-dimethyl-butanoyl]-4-[(7-chloro-4-quinolyl)oxy]prolyl]amino]cyclobutanecarboxylic acid
> <PUBCHEM_IUPAC_INCHI>
InChI=1S/C30H39ClN4O7/c1-28(2,3)23(33-27(40)42-29(4,5)6)25(37)35-16-18(15-21(35)24(36)34-30(26(38)39)11-7-12-30)41-22-10-13-32-20-14-17(31)8-9-19(20)22/h8-10,13-14,18,21,23H,7,11-12,15-16H2,1-6H3,(H,33,40)(H,34,36)(H,38,39)/t18-,21+,23-/m1/s1
> <PUBCHEM_IUPAC_INCHIKEY>
DTTJSOUHEAQAEC-RZFNWQHOSA-N
> <PUBCHEM_XLOGP3_AA>
4.7
> <PUBCHEM_EXACT_MASS>
602.2507273
> <PUBCHEM_MOLECULAR_FORMULA>
C30H39ClN4O7
> <PUBCHEM_MOLECULAR_WEIGHT>
603.1
> <PUBCHEM_OPENEYE_CAN_SMILES>
CC(C)(C)C(C(=O)N1CC(CC1C(=O)NC2(CCC2)C(=O)O)OC3=C4C=CC(=CC4=NC=C3)Cl)NC(=O)OC(C)(C)C
> <PUBCHEM_OPENEYE_ISO_SMILES>
CC(C)(C)[C@@H](C(=O)N1C[C@@H](C[C@H]1C(=O)NC2(CCC2)C(=O)O)OC3=C4C=CC(=CC4=NC=C3)Cl)NC(=O)OC(C)(C)C
> <PUBCHEM_CACTVS_TPSA>
147
> <PUBCHEM_MONOISOTOPIC_WEIGHT>
602.2507273
> <PUBCHEM_TOTAL_CHARGE>
0
> <PUBCHEM_HEAVY_ATOM_COUNT>
42
> <PUBCHEM_ATOM_DEF_STEREO_COUNT>
3
> <PUBCHEM_ATOM_UDEF_STEREO_COUNT>
0
> <PUBCHEM_BOND_DEF_STEREO_COUNT>
0
> <PUBCHEM_BOND_UDEF_STEREO_COUNT>
0
> <PUBCHEM_ISOTOPIC_ATOM_COUNT>
0
> <PUBCHEM_COMPONENT_COUNT>
1
> <PUBCHEM_CACTVS_TAUTO_COUNT>
-1
> <PUBCHEM_COORDINATE_TYPE>
1
5
255
> <PUBCHEM_BONDANNOTATIONS>
23  11  6
12  33  8
12  36  8
17  21  5
19  2  6
29  31  8
29  32  8
31  33  8
31  35  8
32  36  8
33  37  8
35  41  8
37  42  8
41  42  8
$$$$
