500610
  -OEChem-10302200282D
127129  0     1  0  0  0  0  0999 V2000
    4.3763    3.1332    0.0000 O   0  0  0  0  0  0  0  0  0  0  0  0
    7.4321    0.0860    0.0000 O   0  0  0  0  0  0  0  0  0  0  0  0
    6.3301   -0.7146    0.0000 O   0  0  0  0  0  0  0  0  0  0  0  0
    9.4536    3.0715    0.0000 O   0  0  0  0  0  0  0  0  0  0  0  0
   11.1478    3.4316    0.0000 O   0  0  0  0  0  0  0  0  0  0  0  0
   12.5147    1.1663    0.0000 O   0  0  0  0  0  0  0  0  0  0  0  0
    2.8660   -1.7146    0.0000 O   0  0  0  0  0  0  0  0  0  0  0  0
   14.5362    4.1519    0.0000 O   0  0  0  0  0  0  0  0  0  0  0  0
   14.1204    6.1082    0.0000 O   0  0  0  0  0  0  0  0  0  0  0  0
   12.4262    5.7481    0.0000 O   0  0  0  0  0  0  0  0  0  0  0  0
   17.0621    0.5994    0.0000 O   0  0  0  0  0  0  0  0  0  0  0  0
   17.5973    2.2467    0.0000 O   0  0  0  0  0  0  0  0  0  0  0  0
   15.2794    4.8210    0.0000 O   0  0  0  0  0  0  0  0  0  0  0  0
    6.2731    1.3732    0.0000 N   0  0  0  0  0  0  0  0  0  0  0  0
    8.9184    1.4243    0.0000 N   0  0  0  0  0  0  0  0  0  0  0  0
    4.5981   -0.7146    0.0000 N   0  0  0  0  0  0  0  0  0  0  0  0
   11.3557    2.4535    0.0000 N   0  0  0  0  0  0  0  0  0  0  0  0
    4.5981   -1.7146    0.0000 N   0  0  0  0  0  0  0  0  0  0  0  0
   14.0010    2.5046    0.0000 N   0  0  0  0  0  0  0  0  0  0  0  0
    3.7320   -3.2146    0.0000 N   0  0  0  0  0  0  0  0  0  0  0  0
   16.4383    3.5338    0.0000 N   0  0  0  0  0  0  0  0  0  0  0  0
    5.4641    0.7854    0.0000 C   0  0  1  0  0  0  0  0  0  0  0  0
    4.9641    2.3242    0.0000 C   0  0  2  0  0  0  0  0  0  0  0  0
    4.6551    1.3732    0.0000 C   0  0  0  0  0  0  0  0  0  0  0  0
    5.9641    2.3242    0.0000 C   0  0  0  0  0  0  0  0  0  0  0  0
    7.9673    1.7333    0.0000 C   0  0  2  0  0  0  0  0  0  0  0  0
    7.2242    1.0641    0.0000 C   0  0  0  0  0  0  0  0  0  0  0  0
    5.4641   -0.2146    0.0000 C   0  0  0  0  0  0  0  0  0  0  0  0
    7.7594    2.7114    0.0000 C   0  0  0  0  0  0  0  0  0  0  0  0
   10.6126    1.7844    0.0000 C   0  0  2  0  0  0  0  0  0  0  0  0
    4.7830    4.0468    0.0000 C   0  0  0  0  0  0  0  0  0  0  0  0
    8.5026    3.3806    0.0000 C   0  0  0  0  0  0  0  0  0  0  0  0
    6.8084    3.0204    0.0000 C   0  0  0  0  0  0  0  0  0  0  0  0
    9.6615    2.0934    0.0000 C   0  0  0  0  0  0  0  0  0  0  0  0
   10.8205    0.8062    0.0000 C   0  0  2  0  0  0  0  0  0  0  0  0
   11.7715    0.4972    0.0000 C   0  0  0  0  0  0  0  0  0  0  0  0
    4.1953    4.8558    0.0000 C   0  0  0  0  0  0  0  0  0  0  0  0
   10.0773    0.1371    0.0000 C   0  0  0  0  0  0  0  0  0  0  0  0
   12.3068    2.1445    0.0000 C   0  0  0  0  0  0  0  0  0  0  0  0
   13.0499    2.8136    0.0000 C   0  0  1  0  0  0  0  0  0  0  0  0
   11.9795   -0.4809    0.0000 C   0  0  0  0  0  0  0  0  0  0  0  0
    5.4641   -2.2146    0.0000 C   0  0  0  0  0  0  0  0  0  0  0  0
    3.2008    4.7513    0.0000 C   0  0  0  0  0  0  0  0  0  0  0  0
    4.6020    5.7693    0.0000 C   0  0  0  0  0  0  0  0  0  0  0  0
    3.7320   -2.2146    0.0000 C   0  0  0  0  0  0  0  0  0  0  0  0
   12.8420    3.7918    0.0000 C   0  0  0  0  0  0  0  0  0  0  0  0
    2.6130    5.5603    0.0000 C   0  0  0  0  0  0  0  0  0  0  0  0
    4.0142    6.5784    0.0000 C   0  0  0  0  0  0  0  0  0  0  0  0
   13.5852    4.4609    0.0000 C   0  0  0  0  0  0  0  0  0  0  0  0
    3.0197    6.4738    0.0000 C   0  0  0  0  0  0  0  0  0  0  0  0
    2.8660   -3.7146    0.0000 C   0  0  2  0  0  0  0  0  0  0  0  0
   14.7441    3.1737    0.0000 C   0  0  0  0  0  0  0  0  0  0  0  0
   15.6952    2.8647    0.0000 C   0  0  2  0  0  0  0  0  0  0  0  0
    2.8660   -4.7146    0.0000 C   0  0  0  0  0  0  0  0  0  0  0  0
   13.3772    5.4390    0.0000 C   0  0  0  0  0  0  0  0  0  0  0  0
    2.0000   -3.2146    0.0000 C   0  0  0  0  0  0  0  0  0  0  0  0
   15.9031    1.8866    0.0000 C   0  0  0  0  0  0  0  0  0  0  0  0
    3.7320   -5.2146    0.0000 C   0  0  0  0  0  0  0  0  0  0  0  0
    2.0000   -5.2146    0.0000 C   0  0  0  0  0  0  0  0  0  0  0  0
   16.8542    1.5776    0.0000 C   0  0  0  0  0  0  0  0  0  0  0  0
   16.2304    4.5120    0.0000 C   0  0  0  0  0  0  0  0  0  0  0  0
    3.7320   -6.2146    0.0000 C   0  0  0  0  0  0  0  0  0  0  0  0
    2.0000   -6.2146    0.0000 C   0  0  0  0  0  0  0  0  0  0  0  0
    2.8660   -6.7146    0.0000 C   0  0  0  0  0  0  0  0  0  0  0  0
   16.9736    5.1811    0.0000 C   0  0  0  0  0  0  0  0  0  0  0  0
    6.0165    0.5039    0.0000 H   0  0  0  0  0  0  0  0  0  0  0  0
    5.2456    2.8766    0.0000 H   0  0  0  0  0  0  0  0  0  0  0  0
    4.0887    1.6253    0.0000 H   0  0  0  0  0  0  0  0  0  0  0  0
    4.3451    0.8362    0.0000 H   0  0  0  0  0  0  0  0  0  0  0  0
    6.5706    2.4531    0.0000 H   0  0  0  0  0  0  0  0  0  0  0  0
    5.8993    2.9408    0.0000 H   0  0  0  0  0  0  0  0  0  0  0  0
    8.0962    1.1268    0.0000 H   0  0  0  0  0  0  0  0  0  0  0  0
    8.3491    2.5198    0.0000 H   0  0  0  0  0  0  0  0  0  0  0  0
    9.0473    0.8178    0.0000 H   0  0  0  0  0  0  0  0  0  0  0  0
   10.4837    2.3908    0.0000 H   0  0  0  0  0  0  0  0  0  0  0  0
    5.2971    3.7001    0.0000 H   0  0  0  0  0  0  0  0  0  0  0  0
    5.2137    4.4928    0.0000 H   0  0  0  0  0  0  0  0  0  0  0  0
    8.9174    2.9198    0.0000 H   0  0  0  0  0  0  0  0  0  0  0  0
    8.9633    3.7954    0.0000 H   0  0  0  0  0  0  0  0  0  0  0  0
    8.0877    3.8413    0.0000 H   0  0  0  0  0  0  0  0  0  0  0  0
    6.9999    3.6101    0.0000 H   0  0  0  0  0  0  0  0  0  0  0  0
    6.2187    3.2120    0.0000 H   0  0  0  0  0  0  0  0  0  0  0  0
    6.6168    2.4308    0.0000 H   0  0  0  0  0  0  0  0  0  0  0  0
   10.9494    0.1998    0.0000 H   0  0  0  0  0  0  0  0  0  0  0  0
    4.0611   -0.4046    0.0000 H   0  0  0  0  0  0  0  0  0  0  0  0
   12.3912    0.5188    0.0000 H   0  0  0  0  0  0  0  0  0  0  0  0
   11.8578    1.1112    0.0000 H   0  0  0  0  0  0  0  0  0  0  0  0
    9.6625    0.5978    0.0000 H   0  0  0  0  0  0  0  0  0  0  0  0
    9.6166   -0.2778    0.0000 H   0  0  0  0  0  0  0  0  0  0  0  0
   10.4922   -0.3237    0.0000 H   0  0  0  0  0  0  0  0  0  0  0  0
   13.1788    2.2072    0.0000 H   0  0  0  0  0  0  0  0  0  0  0  0
   11.3730   -0.6098    0.0000 H   0  0  0  0  0  0  0  0  0  0  0  0
   12.1084   -1.0874    0.0000 H   0  0  0  0  0  0  0  0  0  0  0  0
   12.5859   -0.3520    0.0000 H   0  0  0  0  0  0  0  0  0  0  0  0
    5.1541   -2.7516    0.0000 H   0  0  0  0  0  0  0  0  0  0  0  0
    6.0010   -2.5246    0.0000 H   0  0  0  0  0  0  0  0  0  0  0  0
    5.7741   -1.6777    0.0000 H   0  0  0  0  0  0  0  0  0  0  0  0
    2.9486    4.1849    0.0000 H   0  0  0  0  0  0  0  0  0  0  0  0
    5.2186    5.8342    0.0000 H   0  0  0  0  0  0  0  0  0  0  0  0
   12.5135    4.3176    0.0000 H   0  0  0  0  0  0  0  0  0  0  0  0
   12.2672    3.5595    0.0000 H   0  0  0  0  0  0  0  0  0  0  0  0
   11.6086    3.8465    0.0000 H   0  0  0  0  0  0  0  0  0  0  0  0
   14.1299    1.8982    0.0000 H   0  0  0  0  0  0  0  0  0  0  0  0
    1.9964    5.4955    0.0000 H   0  0  0  0  0  0  0  0  0  0  0  0
    4.2664    7.1448    0.0000 H   0  0  0  0  0  0  0  0  0  0  0  0
    4.2690   -3.5246    0.0000 H   0  0  0  0  0  0  0  0  0  0  0  0
   13.9137    3.9351    0.0000 H   0  0  0  0  0  0  0  0  0  0  0  0
   14.1600    4.6932    0.0000 H   0  0  0  0  0  0  0  0  0  0  0  0
    2.6553    6.9754    0.0000 H   0  0  0  0  0  0  0  0  0  0  0  0
    2.8660   -3.0946    0.0000 H   0  0  0  0  0  0  0  0  0  0  0  0
   16.2848    2.6731    0.0000 H   0  0  0  0  0  0  0  0  0  0  0  0
    2.3100   -2.6777    0.0000 H   0  0  0  0  0  0  0  0  0  0  0  0
    1.4631   -2.9046    0.0000 H   0  0  0  0  0  0  0  0  0  0  0  0
    1.6900   -3.7516    0.0000 H   0  0  0  0  0  0  0  0  0  0  0  0
   15.2835    1.8649    0.0000 H   0  0  0  0  0  0  0  0  0  0  0  0
   15.8168    1.2726    0.0000 H   0  0  0  0  0  0  0  0  0  0  0  0
   17.0280    3.3422    0.0000 H   0  0  0  0  0  0  0  0  0  0  0  0
    4.2690   -4.9046    0.0000 H   0  0  0  0  0  0  0  0  0  0  0  0
    1.4631   -4.9046    0.0000 H   0  0  0  0  0  0  0  0  0  0  0  0
   13.9915    6.7146    0.0000 H   0  0  0  0  0  0  0  0  0  0  0  0
    4.2690   -6.5246    0.0000 H   0  0  0  0  0  0  0  0  0  0  0  0
    1.4631   -6.5246    0.0000 H   0  0  0  0  0  0  0  0  0  0  0  0
    2.8660   -7.3346    0.0000 H   0  0  0  0  0  0  0  0  0  0  0  0
   17.3884    4.7204    0.0000 H   0  0  0  0  0  0  0  0  0  0  0  0
   17.4343    5.5960    0.0000 H   0  0  0  0  0  0  0  0  0  0  0  0
   16.5587    5.6419    0.0000 H   0  0  0  0  0  0  0  0  0  0  0  0
   17.6517    0.4078    0.0000 H   0  0  0  0  0  0  0  0  0  0  0  0
 23  1  1  1  0  0  0
  1 31  1  0  0  0  0
  2 27  2  0  0  0  0
  3 28  2  0  0  0  0
  4 34  2  0  0  0  0
  5 17  1  0  0  0  0
  5102  1  0  0  0  0
  6 39  2  0  0  0  0
  7 45  2  0  0  0  0
  8 52  2  0  0  0  0
  9 55  1  0  0  0  0
  9120  1  0  0  0  0
 10 55  2  0  0  0  0
 11 60  1  0  0  0  0
 11127  1  0  0  0  0
 12 60  2  0  0  0  0
 13 61  2  0  0  0  0
 14 22  1  0  0  0  0
 14 25  1  0  0  0  0
 14 27  1  0  0  0  0
 26 15  1  6  0  0  0
 15 34  1  0  0  0  0
 15 74  1  0  0  0  0
 16 18  1  0  0  0  0
 16 28  1  0  0  0  0
 16 85  1  0  0  0  0
 30 17  1  1  0  0  0
 17 39  1  0  0  0  0
 18 42  1  0  0  0  0
 18 45  1  0  0  0  0
 40 19  1  1  0  0  0
 19 52  1  0  0  0  0
 19103  1  0  0  0  0
 20 45  1  0  0  0  0
 51 20  1  6  0  0  0
 20106  1  0  0  0  0
 53 21  1  1  0  0  0
 21 61  1  0  0  0  0
 21117  1  0  0  0  0
 22 24  1  0  0  0  0
 22 28  1  6  0  0  0
 22 66  1  0  0  0  0
 23 24  1  0  0  0  0
 23 25  1  0  0  0  0
 23 67  1  0  0  0  0
 24 68  1  0  0  0  0
 24 69  1  0  0  0  0
 25 70  1  0  0  0  0
 25 71  1  0  0  0  0
 26 27  1  0  0  0  0
 26 29  1  0  0  0  0
 26 72  1  0  0  0  0
 29 32  1  0  0  0  0
 29 33  1  0  0  0  0
 29 73  1  0  0  0  0
 30 34  1  0  0  0  0
 30 35  1  0  0  0  0
 30 75  1  0  0  0  0
 31 37  1  0  0  0  0
 31 76  1  0  0  0  0
 31 77  1  0  0  0  0
 32 78  1  0  0  0  0
 32 79  1  0  0  0  0
 32 80  1  0  0  0  0
 33 81  1  0  0  0  0
 33 82  1  0  0  0  0
 33 83  1  0  0  0  0
 35 36  1  0  0  0  0
 35 38  1  6  0  0  0
 35 84  1  0  0  0  0
 36 41  1  0  0  0  0
 36 86  1  0  0  0  0
 36 87  1  0  0  0  0
 37 43  2  0  0  0  0
 37 44  1  0  0  0  0
 38 88  1  0  0  0  0
 38 89  1  0  0  0  0
 38 90  1  0  0  0  0
 39 40  1  0  0  0  0
 40 46  1  0  0  0  0
 40 91  1  0  0  0  0
 41 92  1  0  0  0  0
 41 93  1  0  0  0  0
 41 94  1  0  0  0  0
 42 95  1  0  0  0  0
 42 96  1  0  0  0  0
 42 97  1  0  0  0  0
 43 47  1  0  0  0  0
 43 98  1  0  0  0  0
 44 48  2  0  0  0  0
 44 99  1  0  0  0  0
 46 49  1  0  0  0  0
 46100  1  0  0  0  0
 46101  1  0  0  0  0
 47 50  2  0  0  0  0
 47104  1  0  0  0  0
 48 50  1  0  0  0  0
 48105  1  0  0  0  0
 49 55  1  0  0  0  0
 49107  1  0  0  0  0
 49108  1  0  0  0  0
 50109  1  0  0  0  0
 51 54  1  0  0  0  0
 51 56  1  0  0  0  0
 51110  1  0  0  0  0
 52 53  1  0  0  0  0
 53 57  1  0  0  0  0
 53111  1  0  0  0  0
 54 58  2  0  0  0  0
 54 59  1  0  0  0  0
 56112  1  0  0  0  0
 56113  1  0  0  0  0
 56114  1  0  0  0  0
 57 60  1  0  0  0  0
 57115  1  0  0  0  0
 57116  1  0  0  0  0
 58 62  1  0  0  0  0
 58118  1  0  0  0  0
 59 63  2  0  0  0  0
 59119  1  0  0  0  0
 61 65  1  0  0  0  0
 62 64  2  0  0  0  0
 62121  1  0  0  0  0
 63 64  1  0  0  0  0
 63122  1  0  0  0  0
 64123  1  0  0  0  0
 65124  1  0  0  0  0
 65125  1  0  0  0  0
 65126  1  0  0  0  0
M  END
> <PUBCHEM_COMPOUND_CID>
500610
> <PUBCHEM_COMPOUND_CANONICALIZED>
1
> <PUBCHEM_CACTVS_COMPLEXITY>
1670
> <PUBCHEM_CACTVS_HBOND_ACCEPTOR>
13
> <PUBCHEM_CACTVS_HBOND_DONOR>
8
> <PUBCHEM_CACTVS_ROTATABLE_BOND>
22
> <PUBCHEM_CACTVS_SUBSKEYS>
AAADcfB//AAAAAAAAAAAAAAAAAAAAWAAAAAwYAAAAAAAAAABQAAAHgAcCAAADTzhmAYzCIPyBgCIAiHSGACCAAAgAAA+qIGIDIiKZjqAsTmXcAh+1gOYqAe/16IOAAAAAAAAAAAAAAAAAAAAAAAAAAAAAA==
> <PUBCHEM_IUPAC_OPENEYE_NAME>
(4R)-4-[[(2S)-2-acetamido-3-carboxy-propanoyl]amino]-5-[[(1S,2S)-1-[[(1S)-1-[(2S,4R)-4-benzyloxy-2-[[methyl-[[(1S)-1-phenylethyl]carbamoyl]amino]carbamoyl]pyrrolidine-1-carbonyl]-2-methyl-propyl]carbamoyl]-2-methyl-butyl]-hydroxy-amino]-5-oxo-pentanoic acid
> <PUBCHEM_IUPAC_CAS_NAME>
(4R)-4-[[(2S)-2-acetamido-3-carboxy-1-oxopropyl]amino]-5-[hydroxy-[(2S,3S)-3-methyl-1-[[(2S)-3-methyl-1-[(2S,4R)-2-[[2-methyl-2-[oxo-[[(1S)-1-phenylethyl]amino]methyl]hydrazinyl]-oxomethyl]-4-phenylmethoxy-1-pyrrolidinyl]-1-oxobutan-2-yl]amino]-1-oxopentan-2-yl]amino]-5-oxopentanoic acid
> <PUBCHEM_IUPAC_NAME_MARKUP>
(4<I>R</I>)-4-[[(2<I>S</I>)-2-acetamido-3-carboxypropanoyl]amino]-5-[hydroxy-[(2<I>S</I>,3<I>S</I>)-3-methyl-1-[[(2<I>S</I>)-3-methyl-1-[(2<I>S</I>,4<I>R</I>)-2-[[methyl-[[(1<I>S</I>)-1-phenylethyl]carbamoyl]amino]carbamoyl]-4-phenylmethoxypyrrolidin-1-yl]-1-oxobutan-2-yl]amino]-1-oxopentan-2-yl]amino]-5-oxopentanoic acid
> <PUBCHEM_IUPAC_NAME>
(4R)-4-[[(2S)-2-acetamido-3-carboxypropanoyl]amino]-5-[hydroxy-[(2S,3S)-3-methyl-1-[[(2S)-3-methyl-1-[(2S,4R)-2-[[methyl-[[(1S)-1-phenylethyl]carbamoyl]amino]carbamoyl]-4-phenylmethoxypyrrolidin-1-yl]-1-oxobutan-2-yl]amino]-1-oxopentan-2-yl]amino]-5-oxopentanoic acid
> <PUBCHEM_IUPAC_SYSTEMATIC_NAME>
(4R)-4-[[(2S)-2-acetamido-4-oxidanyl-4-oxidanylidene-butanoyl]amino]-5-[[(2S,3S)-3-methyl-1-[[(2S)-3-methyl-1-[(2S,4R)-2-[[methyl-[[(1S)-1-phenylethyl]carbamoyl]amino]carbamoyl]-4-phenylmethoxy-pyrrolidin-1-yl]-1-oxidanylidene-butan-2-yl]amino]-1-oxidanylidene-pentan-2-yl]-oxidanyl-amino]-5-oxidanylidene-pentanoic acid
> <PUBCHEM_IUPAC_TRADITIONAL_NAME>
(4R)-4-[[(2S)-2-acetamido-3-carboxy-propanoyl]amino]-5-[[(1S,2S)-1-[[(1S)-1-[(2S,4R)-4-benzoxy-2-[[methyl-[[(1S)-1-phenylethyl]carbamoyl]amino]carbamoyl]pyrrolidine-1-carbonyl]-2-methyl-propyl]carbamoyl]-2-methyl-butyl]-hydroxy-amino]-5-keto-valeric acid
> <PUBCHEM_IUPAC_INCHI>
InChI=1S/C44H62N8O13/c1-8-26(4)38(52(64)42(61)32(19-20-35(54)55)47-39(58)33(22-36(56)57)46-28(6)53)41(60)48-37(25(2)3)43(62)51-23-31(65-24-29-15-11-9-12-16-29)21-34(51)40(59)49-50(7)44(63)45-27(5)30-17-13-10-14-18-30/h9-18,25-27,31-34,37-38,64H,8,19-24H2,1-7H3,(H,45,63)(H,46,53)(H,47,58)(H,48,60)(H,49,59)(H,54,55)(H,56,57)/t26-,27-,31+,32+,33-,34-,37-,38-/m0/s1
> <PUBCHEM_IUPAC_INCHIKEY>
CRFZJFKRRSRULV-OKIAJNCWSA-N
> <PUBCHEM_XLOGP3_AA>
1.6
> <PUBCHEM_EXACT_MASS>
910.44363406
> <PUBCHEM_MOLECULAR_FORMULA>
C44H62N8O13
> <PUBCHEM_MOLECULAR_WEIGHT>
911.0
> <PUBCHEM_OPENEYE_CAN_SMILES>
CCC(C)C(C(=O)NC(C(C)C)C(=O)N1CC(CC1C(=O)NN(C)C(=O)NC(C)C2=CC=CC=C2)OCC3=CC=CC=C3)N(C(=O)C(CCC(=O)O)NC(=O)C(CC(=O)O)NC(=O)C)O
> <PUBCHEM_OPENEYE_ISO_SMILES>
CC[C@H](C)[C@@H](C(=O)N[C@@H](C(C)C)C(=O)N1C[C@@H](C[C@H]1C(=O)NN(C)C(=O)N[C@@H](C)C2=CC=CC=C2)OCC3=CC=CC=C3)N(C(=O)[C@@H](CCC(=O)O)NC(=O)[C@H](CC(=O)O)NC(=O)C)O
> <PUBCHEM_CACTVS_TPSA>
293
> <PUBCHEM_MONOISOTOPIC_WEIGHT>
910.44363406
> <PUBCHEM_TOTAL_CHARGE>
0
> <PUBCHEM_HEAVY_ATOM_COUNT>
65
> <PUBCHEM_ATOM_DEF_STEREO_COUNT>
8
> <PUBCHEM_ATOM_UDEF_STEREO_COUNT>
0
> <PUBCHEM_BOND_DEF_STEREO_COUNT>
0
> <PUBCHEM_BOND_UDEF_STEREO_COUNT>
0
> <PUBCHEM_ISOTOPIC_ATOM_COUNT>
0
> <PUBCHEM_COMPONENT_COUNT>
1
> <PUBCHEM_CACTVS_TAUTO_COUNT>
-1
> <PUBCHEM_COORDINATE_TYPE>
1
5
255
> <PUBCHEM_BONDANNOTATIONS>
23  1  5
26  15  6
30  17  5
40  19  5
51  20  6
53  21  5
22  28  6
35  38  6
37  43  8
37  44  8
43  47  8
44  48  8
47  50  8
48  50  8
54  58  8
54  59  8
58  62  8
59  63  8
62  64  8
63  64  8
$$$$
