500605
  -OEChem-10302200282D
129131  0     1  0  0  0  0  0999 V2000
   10.9980   -2.6008    0.0000 O   0  0  0  0  0  0  0  0  0  0  0  0
    6.8311   -1.4780    0.0000 O   0  0  0  0  0  0  0  0  0  0  0  0
    6.6887   -2.8327    0.0000 O   0  0  0  0  0  0  0  0  0  0  0  0
    8.4059    1.7654    0.0000 O   0  0  0  0  0  0  0  0  0  0  0  0
    7.8707    3.4127    0.0000 O   0  0  0  0  0  0  0  0  0  0  0  0
    5.2254    3.4638    0.0000 O   0  0  0  0  0  0  0  0  0  0  0  0
    7.5548   -6.3327    0.0000 O   0  0  0  0  0  0  0  0  0  0  0  0
    4.9567   -5.8327    0.0000 O   0  0  0  0  0  0  0  0  0  0  0  0
    6.8002    6.7072    0.0000 O   0  0  0  0  0  0  0  0  0  0  0  0
    8.7023    7.3253    0.0000 O   0  0  0  0  0  0  0  0  0  0  0  0
    9.2376    5.6780    0.0000 O   0  0  0  0  0  0  0  0  0  0  0  0
    2.4608    7.1185    0.0000 O   0  0  0  0  0  0  0  0  0  0  0  0
    3.6197    8.4056    0.0000 O   0  0  0  0  0  0  0  0  0  0  0  0
    7.0081    7.6854    0.0000 O   0  0  0  0  0  0  0  0  0  0  0  0
    8.5253   -1.8382    0.0000 N   0  0  0  0  0  0  0  0  0  0  0  0
    7.2469    0.4783    0.0000 N   0  0  0  0  0  0  0  0  0  0  0  0
    7.5548   -4.3327    0.0000 N   0  0  0  0  0  0  0  0  0  0  0  0
    6.6887   -4.8327    0.0000 N   0  0  0  0  0  0  0  0  0  0  0  0
    6.9196    3.1037    0.0000 N   0  0  0  0  0  0  0  0  0  0  0  0
    5.6412    5.4201    0.0000 N   0  0  0  0  0  0  0  0  0  0  0  0
    5.3139    8.0455    0.0000 N   0  0  0  0  0  0  0  0  0  0  0  0
    8.4208   -2.8327    0.0000 C   0  0  1  0  0  0  0  0  0  0  0  0
   10.0035   -2.4963    0.0000 C   0  0  2  0  0  0  0  0  0  0  0  0
    9.3343   -3.2394    0.0000 C   0  0  0  0  0  0  0  0  0  0  0  0
    9.5035   -1.6302    0.0000 C   0  0  0  0  0  0  0  0  0  0  0  0
    7.7822   -1.1690    0.0000 C   0  0  0  0  0  0  0  0  0  0  0  0
    7.9901   -0.1909    0.0000 C   0  0  2  0  0  0  0  0  0  0  0  0
    7.5548   -3.3327    0.0000 C   0  0  0  0  0  0  0  0  0  0  0  0
    8.9411    0.1181    0.0000 C   0  0  0  0  0  0  0  0  0  0  0  0
    6.7117    2.1255    0.0000 C   0  0  2  0  0  0  0  0  0  0  0  0
   11.5858   -1.7918    0.0000 C   0  0  0  0  0  0  0  0  0  0  0  0
    9.1491    1.0963    0.0000 C   0  0  0  0  0  0  0  0  0  0  0  0
    9.6843   -0.5510    0.0000 C   0  0  0  0  0  0  0  0  0  0  0  0
    7.4548    1.4564    0.0000 C   0  0  0  0  0  0  0  0  0  0  0  0
    5.7606    1.8165    0.0000 C   0  0  2  0  0  0  0  0  0  0  0  0
    5.0175    2.4856    0.0000 C   0  0  0  0  0  0  0  0  0  0  0  0
   12.5803   -1.8963    0.0000 C   0  0  0  0  0  0  0  0  0  0  0  0
    5.5527    0.8384    0.0000 C   0  0  0  0  0  0  0  0  0  0  0  0
    5.8227   -4.3327    0.0000 C   0  0  0  0  0  0  0  0  0  0  0  0
    6.1765    3.7728    0.0000 C   0  0  0  0  0  0  0  0  0  0  0  0
    6.6887   -5.8327    0.0000 C   0  0  0  0  0  0  0  0  0  0  0  0
    4.0664    2.1766    0.0000 C   0  0  0  0  0  0  0  0  0  0  0  0
    6.3844    4.7510    0.0000 C   0  0  1  0  0  0  0  0  0  0  0  0
   13.1681   -1.0873    0.0000 C   0  0  0  0  0  0  0  0  0  0  0  0
   12.9870   -2.8098    0.0000 C   0  0  0  0  0  0  0  0  0  0  0  0
    5.8227   -3.3327    0.0000 C   0  0  0  0  0  0  0  0  0  0  0  0
    5.8227   -6.3327    0.0000 C   0  0  1  0  0  0  0  0  0  0  0  0
    7.3354    5.0600    0.0000 C   0  0  0  0  0  0  0  0  0  0  0  0
   14.1626   -1.1918    0.0000 C   0  0  0  0  0  0  0  0  0  0  0  0
   13.9816   -2.9144    0.0000 C   0  0  0  0  0  0  0  0  0  0  0  0
    4.9567   -2.8327    0.0000 C   0  0  0  0  0  0  0  0  0  0  0  0
    7.5434    6.0381    0.0000 C   0  0  0  0  0  0  0  0  0  0  0  0
   14.5693   -2.1054    0.0000 C   0  0  0  0  0  0  0  0  0  0  0  0
    5.8227   -7.3327    0.0000 C   0  0  0  0  0  0  0  0  0  0  0  0
    5.8492    6.3982    0.0000 C   0  0  0  0  0  0  0  0  0  0  0  0
    5.1060    7.0674    0.0000 C   0  0  2  0  0  0  0  0  0  0  0  0
    6.6887   -7.8327    0.0000 C   0  0  0  0  0  0  0  0  0  0  0  0
    4.9567   -7.8327    0.0000 C   0  0  0  0  0  0  0  0  0  0  0  0
    8.4944    6.3471    0.0000 C   0  0  0  0  0  0  0  0  0  0  0  0
    4.1550    6.7584    0.0000 C   0  0  0  0  0  0  0  0  0  0  0  0
    6.6887   -8.8327    0.0000 C   0  0  0  0  0  0  0  0  0  0  0  0
    4.9567   -8.8327    0.0000 C   0  0  0  0  0  0  0  0  0  0  0  0
    5.8227   -9.3327    0.0000 C   0  0  0  0  0  0  0  0  0  0  0  0
    3.4118    7.4275    0.0000 C   0  0  0  0  0  0  0  0  0  0  0  0
    6.2650    8.3545    0.0000 C   0  0  0  0  0  0  0  0  0  0  0  0
    6.4729    9.3327    0.0000 C   0  0  0  0  0  0  0  0  0  0  0  0
    7.9008   -2.4950    0.0000 H   0  0  0  0  0  0  0  0  0  0  0  0
   10.3411   -1.9763    0.0000 H   0  0  0  0  0  0  0  0  0  0  0  0
    9.0243   -3.7764    0.0000 H   0  0  0  0  0  0  0  0  0  0  0  0
    9.8359   -3.6038    0.0000 H   0  0  0  0  0  0  0  0  0  0  0  0
   10.0699   -1.3781    0.0000 H   0  0  0  0  0  0  0  0  0  0  0  0
    9.3119   -1.0406    0.0000 H   0  0  0  0  0  0  0  0  0  0  0  0
    8.1190    0.4156    0.0000 H   0  0  0  0  0  0  0  0  0  0  0  0
    8.4804    0.5330    0.0000 H   0  0  0  0  0  0  0  0  0  0  0  0
    6.6573    0.2867    0.0000 H   0  0  0  0  0  0  0  0  0  0  0  0
    7.3014    2.3171    0.0000 H   0  0  0  0  0  0  0  0  0  0  0  0
   11.7567   -1.1958    0.0000 H   0  0  0  0  0  0  0  0  0  0  0  0
   11.0285   -1.5200    0.0000 H   0  0  0  0  0  0  0  0  0  0  0  0
    8.0917   -4.6427    0.0000 H   0  0  0  0  0  0  0  0  0  0  0  0
    9.7555    0.9674    0.0000 H   0  0  0  0  0  0  0  0  0  0  0  0
    9.2780    1.7027    0.0000 H   0  0  0  0  0  0  0  0  0  0  0  0
    8.5426    1.2252    0.0000 H   0  0  0  0  0  0  0  0  0  0  0  0
    9.2694   -1.0117    0.0000 H   0  0  0  0  0  0  0  0  0  0  0  0
   10.1450   -0.9659    0.0000 H   0  0  0  0  0  0  0  0  0  0  0  0
   10.0991   -0.0902    0.0000 H   0  0  0  0  0  0  0  0  0  0  0  0
    6.2214    1.4016    0.0000 H   0  0  0  0  0  0  0  0  0  0  0  0
    5.5061    2.8674    0.0000 H   0  0  0  0  0  0  0  0  0  0  0  0
    4.7264    3.0331    0.0000 H   0  0  0  0  0  0  0  0  0  0  0  0
    4.9463    0.9673    0.0000 H   0  0  0  0  0  0  0  0  0  0  0  0
    5.4238    0.2319    0.0000 H   0  0  0  0  0  0  0  0  0  0  0  0
    6.1592    0.7095    0.0000 H   0  0  0  0  0  0  0  0  0  0  0  0
    5.2121   -4.2250    0.0000 H   0  0  0  0  0  0  0  0  0  0  0  0
    5.6107   -4.9153    0.0000 H   0  0  0  0  0  0  0  0  0  0  0  0
    3.8749    2.7663    0.0000 H   0  0  0  0  0  0  0  0  0  0  0  0
    3.4768    1.9850    0.0000 H   0  0  0  0  0  0  0  0  0  0  0  0
    4.2580    1.5870    0.0000 H   0  0  0  0  0  0  0  0  0  0  0  0
    6.5133    5.3574    0.0000 H   0  0  0  0  0  0  0  0  0  0  0  0
   12.9159   -0.5209    0.0000 H   0  0  0  0  0  0  0  0  0  0  0  0
   12.6226   -3.3114    0.0000 H   0  0  0  0  0  0  0  0  0  0  0  0
    6.4333   -3.4403    0.0000 H   0  0  0  0  0  0  0  0  0  0  0  0
    6.0348   -2.7501    0.0000 H   0  0  0  0  0  0  0  0  0  0  0  0
    7.4217    4.4460    0.0000 H   0  0  0  0  0  0  0  0  0  0  0  0
    7.9551    5.0383    0.0000 H   0  0  0  0  0  0  0  0  0  0  0  0
    5.8227   -5.7127    0.0000 H   0  0  0  0  0  0  0  0  0  0  0  0
    7.9996    4.0192    0.0000 H   0  0  0  0  0  0  0  0  0  0  0  0
    5.0516    5.2285    0.0000 H   0  0  0  0  0  0  0  0  0  0  0  0
   14.5270   -0.6902    0.0000 H   0  0  0  0  0  0  0  0  0  0  0  0
   14.2337   -3.4808    0.0000 H   0  0  0  0  0  0  0  0  0  0  0  0
    5.2667   -2.2957    0.0000 H   0  0  0  0  0  0  0  0  0  0  0  0
    4.4197   -2.5227    0.0000 H   0  0  0  0  0  0  0  0  0  0  0  0
    4.6467   -3.3696    0.0000 H   0  0  0  0  0  0  0  0  0  0  0  0
    7.4571    6.6521    0.0000 H   0  0  0  0  0  0  0  0  0  0  0  0
    6.9237    6.0598    0.0000 H   0  0  0  0  0  0  0  0  0  0  0  0
   15.1859   -2.1702    0.0000 H   0  0  0  0  0  0  0  0  0  0  0  0
    4.6453    7.4822    0.0000 H   0  0  0  0  0  0  0  0  0  0  0  0
    4.9567   -5.2127    0.0000 H   0  0  0  0  0  0  0  0  0  0  0  0
    7.2257   -7.5227    0.0000 H   0  0  0  0  0  0  0  0  0  0  0  0
    4.4197   -7.5227    0.0000 H   0  0  0  0  0  0  0  0  0  0  0  0
    3.6664    6.3766    0.0000 H   0  0  0  0  0  0  0  0  0  0  0  0
    4.4460    6.2109    0.0000 H   0  0  0  0  0  0  0  0  0  0  0  0
    4.8532    8.4604    0.0000 H   0  0  0  0  0  0  0  0  0  0  0  0
    7.2257   -9.1427    0.0000 H   0  0  0  0  0  0  0  0  0  0  0  0
    4.4197   -9.1427    0.0000 H   0  0  0  0  0  0  0  0  0  0  0  0
    5.8227   -9.9527    0.0000 H   0  0  0  0  0  0  0  0  0  0  0  0
    9.2920    7.5169    0.0000 H   0  0  0  0  0  0  0  0  0  0  0  0
    7.0793    9.2038    0.0000 H   0  0  0  0  0  0  0  0  0  0  0  0
    6.6018    9.9391    0.0000 H   0  0  0  0  0  0  0  0  0  0  0  0
    5.8664    9.4616    0.0000 H   0  0  0  0  0  0  0  0  0  0  0  0
    2.0000    7.5333    0.0000 H   0  0  0  0  0  0  0  0  0  0  0  0
 23  1  1  6  0  0  0
  1 31  1  0  0  0  0
  2 26  2  0  0  0  0
  3 28  2  0  0  0  0
  4 34  2  0  0  0  0
  5 19  1  0  0  0  0
  5105  1  0  0  0  0
  6 40  2  0  0  0  0
  7 41  2  0  0  0  0
 47  8  1  1  0  0  0
  8116  1  0  0  0  0
  9 55  2  0  0  0  0
 10 59  1  0  0  0  0
 10125  1  0  0  0  0
 11 59  2  0  0  0  0
 12 64  1  0  0  0  0
 12129  1  0  0  0  0
 13 64  2  0  0  0  0
 14 65  2  0  0  0  0
 15 22  1  0  0  0  0
 15 25  1  0  0  0  0
 15 26  1  0  0  0  0
 27 16  1  1  0  0  0
 16 34  1  0  0  0  0
 16 75  1  0  0  0  0
 17 18  1  0  0  0  0
 17 28  1  0  0  0  0
 17 79  1  0  0  0  0
 18 39  1  0  0  0  0
 18 41  1  0  0  0  0
 30 19  1  6  0  0  0
 19 40  1  0  0  0  0
 43 20  1  6  0  0  0
 20 55  1  0  0  0  0
 20106  1  0  0  0  0
 56 21  1  6  0  0  0
 21 65  1  0  0  0  0
 21121  1  0  0  0  0
 22 24  1  0  0  0  0
 22 28  1  1  0  0  0
 22 67  1  0  0  0  0
 23 24  1  0  0  0  0
 23 25  1  0  0  0  0
 23 68  1  0  0  0  0
 24 69  1  0  0  0  0
 24 70  1  0  0  0  0
 25 71  1  0  0  0  0
 25 72  1  0  0  0  0
 26 27  1  0  0  0  0
 27 29  1  0  0  0  0
 27 73  1  0  0  0  0
 29 32  1  0  0  0  0
 29 33  1  0  0  0  0
 29 74  1  0  0  0  0
 30 34  1  0  0  0  0
 30 35  1  0  0  0  0
 30 76  1  0  0  0  0
 31 37  1  0  0  0  0
 31 77  1  0  0  0  0
 31 78  1  0  0  0  0
 32 80  1  0  0  0  0
 32 81  1  0  0  0  0
 32 82  1  0  0  0  0
 33 83  1  0  0  0  0
 33 84  1  0  0  0  0
 33 85  1  0  0  0  0
 35 36  1  0  0  0  0
 35 38  1  1  0  0  0
 35 86  1  0  0  0  0
 36 42  1  0  0  0  0
 36 87  1  0  0  0  0
 36 88  1  0  0  0  0
 37 44  2  0  0  0  0
 37 45  1  0  0  0  0
 38 89  1  0  0  0  0
 38 90  1  0  0  0  0
 38 91  1  0  0  0  0
 39 46  1  0  0  0  0
 39 92  1  0  0  0  0
 39 93  1  0  0  0  0
 40 43  1  0  0  0  0
 41 47  1  0  0  0  0
 42 94  1  0  0  0  0
 42 95  1  0  0  0  0
 42 96  1  0  0  0  0
 43 48  1  0  0  0  0
 43 97  1  0  0  0  0
 44 49  1  0  0  0  0
 44 98  1  0  0  0  0
 45 50  2  0  0  0  0
 45 99  1  0  0  0  0
 46 51  1  0  0  0  0
 46100  1  0  0  0  0
 46101  1  0  0  0  0
 47 54  1  0  0  0  0
 47104  1  0  0  0  0
 48 52  1  0  0  0  0
 48102  1  0  0  0  0
 48103  1  0  0  0  0
 49 53  2  0  0  0  0
 49107  1  0  0  0  0
 50 53  1  0  0  0  0
 50108  1  0  0  0  0
 51109  1  0  0  0  0
 51110  1  0  0  0  0
 51111  1  0  0  0  0
 52 59  1  0  0  0  0
 52112  1  0  0  0  0
 52113  1  0  0  0  0
 53114  1  0  0  0  0
 54 57  2  0  0  0  0
 54 58  1  0  0  0  0
 55 56  1  0  0  0  0
 56 60  1  0  0  0  0
 56115  1  0  0  0  0
 57 61  1  0  0  0  0
 57117  1  0  0  0  0
 58 62  2  0  0  0  0
 58118  1  0  0  0  0
 60 64  1  0  0  0  0
 60119  1  0  0  0  0
 60120  1  0  0  0  0
 61 63  2  0  0  0  0
 61122  1  0  0  0  0
 62 63  1  0  0  0  0
 62123  1  0  0  0  0
 63124  1  0  0  0  0
 65 66  1  0  0  0  0
 66126  1  0  0  0  0
 66127  1  0  0  0  0
 66128  1  0  0  0  0
M  END
> <PUBCHEM_COMPOUND_CID>
500605
> <PUBCHEM_COMPOUND_CANONICALIZED>
1
> <PUBCHEM_CACTVS_COMPLEXITY>
1690
> <PUBCHEM_CACTVS_HBOND_ACCEPTOR>
14
> <PUBCHEM_CACTVS_HBOND_DONOR>
8
> <PUBCHEM_CACTVS_ROTATABLE_BOND>
24
> <PUBCHEM_CACTVS_SUBSKEYS>
AAADcfB/vAAAAAAAAAAAAAAAAAAAAWAAAAAwYAAAAAAAAAABQAAAHgAcCAAADTzhmAYyCIPyBgCIAiHSGAICAAAgAAA6qIHICIgKdjqAtTmXcAAm1gGYuAe/36KOAAAAAAAAAAAAAAAAAAAAAAAAAAAAAA==
> <PUBCHEM_IUPAC_OPENEYE_NAME>
(4R)-4-[[(2S)-2-acetamido-3-carboxy-propanoyl]amino]-5-[[(1S,2S)-1-[[(1S)-1-[(2S,4R)-4-benzyloxy-2-[[[(2R)-2-hydroxy-2-phenyl-acetyl]-propyl-amino]carbamoyl]pyrrolidine-1-carbonyl]-2-methyl-propyl]carbamoyl]-2-methyl-butyl]-hydroxy-amino]-5-oxo-pentanoic acid
> <PUBCHEM_IUPAC_CAS_NAME>
(4R)-4-[[(2S)-2-acetamido-3-carboxy-1-oxopropyl]amino]-5-[hydroxy-[(2S,3S)-1-[[(2S)-1-[(2S,4R)-2-[[2-[(2R)-2-hydroxy-1-oxo-2-phenylethyl]-2-propylhydrazinyl]-oxomethyl]-4-phenylmethoxy-1-pyrrolidinyl]-3-methyl-1-oxobutan-2-yl]amino]-3-methyl-1-oxopentan-2-yl]amino]-5-oxopentanoic acid
> <PUBCHEM_IUPAC_NAME_MARKUP>
(4<I>R</I>)-4-[[(2<I>S</I>)-2-acetamido-3-carboxypropanoyl]amino]-5-[hydroxy-[(2<I>S</I>,3<I>S</I>)-1-[[(2<I>S</I>)-1-[(2<I>S</I>,4<I>R</I>)-2-[[[(2<I>R</I>)-2-hydroxy-2-phenylacetyl]-propylamino]carbamoyl]-4-phenylmethoxypyrrolidin-1-yl]-3-methyl-1-oxobutan-2-yl]amino]-3-methyl-1-oxopentan-2-yl]amino]-5-oxopentanoic acid
> <PUBCHEM_IUPAC_NAME>
(4R)-4-[[(2S)-2-acetamido-3-carboxypropanoyl]amino]-5-[hydroxy-[(2S,3S)-1-[[(2S)-1-[(2S,4R)-2-[[[(2R)-2-hydroxy-2-phenylacetyl]-propylamino]carbamoyl]-4-phenylmethoxypyrrolidin-1-yl]-3-methyl-1-oxobutan-2-yl]amino]-3-methyl-1-oxopentan-2-yl]amino]-5-oxopentanoic acid
> <PUBCHEM_IUPAC_SYSTEMATIC_NAME>
(4R)-4-[[(2S)-2-acetamido-4-oxidanyl-4-oxidanylidene-butanoyl]amino]-5-[[(2S,3S)-3-methyl-1-[[(2S)-3-methyl-1-oxidanylidene-1-[(2S,4R)-2-[[[(2R)-2-oxidanyl-2-phenyl-ethanoyl]-propyl-amino]carbamoyl]-4-phenylmethoxy-pyrrolidin-1-yl]butan-2-yl]amino]-1-oxidanylidene-pentan-2-yl]-oxidanyl-amino]-5-oxidanylidene-pentanoic acid
> <PUBCHEM_IUPAC_TRADITIONAL_NAME>
(4R)-4-[[(2S)-2-acetamido-3-carboxy-propanoyl]amino]-5-[[(1S,2S)-1-[[(1S)-1-[(2S,4R)-4-benzoxy-2-[[[(2R)-2-hydroxy-2-phenyl-acetyl]-propyl-amino]carbamoyl]pyrrolidine-1-carbonyl]-2-methyl-propyl]carbamoyl]-2-methyl-butyl]-hydroxy-amino]-5-keto-valeric acid
> <PUBCHEM_IUPAC_INCHI>
InChI=1S/C45H63N7O14/c1-7-21-51(45(64)39(58)30-17-13-10-14-18-30)49-41(60)34-22-31(66-25-29-15-11-9-12-16-29)24-50(34)44(63)37(26(3)4)48-42(61)38(27(5)8-2)52(65)43(62)32(19-20-35(54)55)47-40(59)33(23-36(56)57)46-28(6)53/h9-18,26-27,31-34,37-39,58,65H,7-8,19-25H2,1-6H3,(H,46,53)(H,47,59)(H,48,61)(H,49,60)(H,54,55)(H,56,57)/t27-,31+,32+,33-,34-,37-,38-,39+/m0/s1
> <PUBCHEM_IUPAC_INCHIKEY>
IYCAVFZSDLWQDL-UYJGDDIKSA-N
> <PUBCHEM_XLOGP3_AA>
1.9
> <PUBCHEM_EXACT_MASS>
925.44329971
> <PUBCHEM_MOLECULAR_FORMULA>
C45H63N7O14
> <PUBCHEM_MOLECULAR_WEIGHT>
926.0
> <PUBCHEM_OPENEYE_CAN_SMILES>
CCCN(C(=O)C(C1=CC=CC=C1)O)NC(=O)C2CC(CN2C(=O)C(C(C)C)NC(=O)C(C(C)CC)N(C(=O)C(CCC(=O)O)NC(=O)C(CC(=O)O)NC(=O)C)O)OCC3=CC=CC=C3
> <PUBCHEM_OPENEYE_ISO_SMILES>
CCCN(C(=O)[C@@H](C1=CC=CC=C1)O)NC(=O)[C@@H]2C[C@H](CN2C(=O)[C@H](C(C)C)NC(=O)[C@H]([C@@H](C)CC)N(C(=O)[C@@H](CCC(=O)O)NC(=O)[C@H](CC(=O)O)NC(=O)C)O)OCC3=CC=CC=C3
> <PUBCHEM_CACTVS_TPSA>
302
> <PUBCHEM_MONOISOTOPIC_WEIGHT>
925.44329971
> <PUBCHEM_TOTAL_CHARGE>
0
> <PUBCHEM_HEAVY_ATOM_COUNT>
66
> <PUBCHEM_ATOM_DEF_STEREO_COUNT>
8
> <PUBCHEM_ATOM_UDEF_STEREO_COUNT>
0
> <PUBCHEM_BOND_DEF_STEREO_COUNT>
0
> <PUBCHEM_BOND_UDEF_STEREO_COUNT>
0
> <PUBCHEM_ISOTOPIC_ATOM_COUNT>
0
> <PUBCHEM_COMPONENT_COUNT>
1
> <PUBCHEM_CACTVS_TAUTO_COUNT>
-1
> <PUBCHEM_COORDINATE_TYPE>
1
5
255
> <PUBCHEM_BONDANNOTATIONS>
23  1  6
27  16  5
30  19  6
43  20  6
56  21  6
22  28  5
35  38  5
37  44  8
37  45  8
44  49  8
45  50  8
49  53  8
50  53  8
54  57  8
54  58  8
57  61  8
58  62  8
61  63  8
62  63  8
47  8  5
$$$$
