500631
  -OEChem-10302200282D
 87 91  0     1  0  0  0  0  0999 V2000
    6.3981   -1.0314    0.0000 O   0  0  0  0  0  0  0  0  0  0  0  0
    8.3914    5.0298    0.0000 O   0  0  0  0  0  0  0  0  0  0  0  0
    6.9902    4.0117    0.0000 O   0  0  0  0  0  0  0  0  0  0  0  0
    9.7480    1.6892    0.0000 O   0  0  0  0  0  0  0  0  0  0  0  0
   10.4291    0.5095    0.0000 O   0  0  0  0  0  0  0  0  0  0  0  0
   12.6438   -2.3356    0.0000 O   0  0  0  0  0  0  0  0  0  0  0  0
   11.0615   -3.0401    0.0000 O   0  0  0  0  0  0  0  0  0  0  0  0
    2.0000   -2.5039    0.0000 O   0  5  0  0  0  0  0  0  0  0  0  0
    2.8718   -1.0072    0.0000 O   0  0  0  0  0  0  0  0  0  0  0  0
    8.1657    2.3936    0.0000 N   0  0  0  0  0  0  0  0  0  0  0  0
    8.8468   -0.1949    0.0000 N   0  0  0  0  0  0  0  0  0  0  0  0
   11.2426   -1.3175    0.0000 N   0  0  0  0  0  0  0  0  0  0  0  0
    6.3981   -4.0314    0.0000 N   0  0  0  0  0  0  0  0  0  0  0  0
    2.8680   -2.0072    0.0000 N   0  3  0  0  0  0  0  0  0  0  0  0
    8.5725    3.3072    0.0000 C   0  0  0  0  0  0  0  0  0  0  0  0
    9.4860    2.9005    0.0000 C   0  0  0  0  0  0  0  0  0  0  0  0
    9.3815    3.8950    0.0000 C   0  0  0  0  0  0  0  0  0  0  0  0
    8.3468    0.6711    0.0000 C   0  0  1  0  0  0  0  0  0  0  0  0
    7.3686    0.4632    0.0000 C   0  0  0  0  0  0  0  0  0  0  0  0
    7.9847    4.1162    0.0000 C   0  0  0  0  0  0  0  0  0  0  0  0
    8.7535    1.5846    0.0000 C   0  0  0  0  0  0  0  0  0  0  0  0
    7.2641   -0.5313    0.0000 C   0  0  2  0  0  0  0  0  0  0  0  0
    8.1776   -0.9381    0.0000 C   0  0  0  0  0  0  0  0  0  0  0  0
    9.8413   -0.2995    0.0000 C   0  0  0  0  0  0  0  0  0  0  0  0
   10.2480   -1.2130    0.0000 C   0  0  2  0  0  0  0  0  0  0  0  0
    9.6602   -2.0220    0.0000 C   0  0  0  0  0  0  0  0  0  0  0  0
    6.3981   -2.0314    0.0000 C   0  0  0  0  0  0  0  0  0  0  0  0
   10.0670   -2.9356    0.0000 C   0  0  0  0  0  0  0  0  0  0  0  0
    8.6657   -1.9175    0.0000 C   0  0  0  0  0  0  0  0  0  0  0  0
    5.5320   -2.5314    0.0000 C   0  0  0  0  0  0  0  0  0  0  0  0
    7.2641   -2.5314    0.0000 C   0  0  0  0  0  0  0  0  0  0  0  0
   11.6493   -2.2311    0.0000 C   0  0  0  0  0  0  0  0  0  0  0  0
    5.5320   -3.5314    0.0000 C   0  0  0  0  0  0  0  0  0  0  0  0
    7.2641   -3.5314    0.0000 C   0  0  0  0  0  0  0  0  0  0  0  0
    4.6381   -1.9967    0.0000 C   0  0  0  0  0  0  0  0  0  0  0  0
   13.0505   -3.2492    0.0000 C   0  0  0  0  0  0  0  0  0  0  0  0
    4.6381   -4.0660    0.0000 C   0  0  0  0  0  0  0  0  0  0  0  0
    3.7320   -2.5105    0.0000 C   0  0  0  0  0  0  0  0  0  0  0  0
    8.1301   -4.0314    0.0000 C   0  0  0  0  0  0  0  0  0  0  0  0
    3.7320   -3.5522    0.0000 C   0  0  0  0  0  0  0  0  0  0  0  0
   13.4573   -4.1627    0.0000 C   0  0  0  0  0  0  0  0  0  0  0  0
   13.9641   -2.8424    0.0000 C   0  0  0  0  0  0  0  0  0  0  0  0
   12.1370   -3.6559    0.0000 C   0  0  0  0  0  0  0  0  0  0  0  0
    8.9962   -3.5314    0.0000 C   0  0  0  0  0  0  0  0  0  0  0  0
    8.1301   -5.0314    0.0000 C   0  0  0  0  0  0  0  0  0  0  0  0
    9.8622   -4.0314    0.0000 C   0  0  0  0  0  0  0  0  0  0  0  0
    8.9962   -5.5314    0.0000 C   0  0  0  0  0  0  0  0  0  0  0  0
    9.8622   -5.0314    0.0000 C   0  0  0  0  0  0  0  0  0  0  0  0
    9.3360    2.2989    0.0000 H   0  0  0  0  0  0  0  0  0  0  0  0
   10.1045    2.8572    0.0000 H   0  0  0  0  0  0  0  0  0  0  0  0
    9.9775    4.0659    0.0000 H   0  0  0  0  0  0  0  0  0  0  0  0
    9.1097    4.4522    0.0000 H   0  0  0  0  0  0  0  0  0  0  0  0
    7.5491    2.3288    0.0000 H   0  0  0  0  0  0  0  0  0  0  0  0
    8.9659    0.7035    0.0000 H   0  0  0  0  0  0  0  0  0  0  0  0
    7.3038    1.0798    0.0000 H   0  0  0  0  0  0  0  0  0  0  0  0
    6.7486    0.4632    0.0000 H   0  0  0  0  0  0  0  0  0  0  0  0
    6.7441   -0.1937    0.0000 H   0  0  0  0  0  0  0  0  0  0  0  0
    7.8676   -1.4750    0.0000 H   0  0  0  0  0  0  0  0  0  0  0  0
    8.6792   -1.3025    0.0000 H   0  0  0  0  0  0  0  0  0  0  0  0
   10.6125   -0.7114    0.0000 H   0  0  0  0  0  0  0  0  0  0  0  0
    8.0270    5.5314    0.0000 H   0  0  0  0  0  0  0  0  0  0  0  0
    9.4081   -1.4556    0.0000 H   0  0  0  0  0  0  0  0  0  0  0  0
   11.6070   -0.8160    0.0000 H   0  0  0  0  0  0  0  0  0  0  0  0
    9.5006   -3.1878    0.0000 H   0  0  0  0  0  0  0  0  0  0  0  0
   10.3192   -3.5020    0.0000 H   0  0  0  0  0  0  0  0  0  0  0  0
   10.6334   -2.6834    0.0000 H   0  0  0  0  0  0  0  0  0  0  0  0
    8.7305   -1.3009    0.0000 H   0  0  0  0  0  0  0  0  0  0  0  0
    8.0491   -1.8527    0.0000 H   0  0  0  0  0  0  0  0  0  0  0  0
    8.6009   -2.5341    0.0000 H   0  0  0  0  0  0  0  0  0  0  0  0
    7.8010   -2.2214    0.0000 H   0  0  0  0  0  0  0  0  0  0  0  0
    4.6453   -1.3767    0.0000 H   0  0  0  0  0  0  0  0  0  0  0  0
    4.6453   -4.6860    0.0000 H   0  0  0  0  0  0  0  0  0  0  0  0
    3.1963   -3.8642    0.0000 H   0  0  0  0  0  0  0  0  0  0  0  0
   12.8909   -4.4149    0.0000 H   0  0  0  0  0  0  0  0  0  0  0  0
   13.7095   -4.7291    0.0000 H   0  0  0  0  0  0  0  0  0  0  0  0
   14.0237   -3.9105    0.0000 H   0  0  0  0  0  0  0  0  0  0  0  0
   14.2163   -3.4088    0.0000 H   0  0  0  0  0  0  0  0  0  0  0  0
   14.5305   -2.5902    0.0000 H   0  0  0  0  0  0  0  0  0  0  0  0
   13.7119   -2.2760    0.0000 H   0  0  0  0  0  0  0  0  0  0  0  0
   11.8848   -3.0895    0.0000 H   0  0  0  0  0  0  0  0  0  0  0  0
   11.5706   -3.9081    0.0000 H   0  0  0  0  0  0  0  0  0  0  0  0
   12.3892   -4.2223    0.0000 H   0  0  0  0  0  0  0  0  0  0  0  0
    8.9962   -2.9114    0.0000 H   0  0  0  0  0  0  0  0  0  0  0  0
    7.5932   -5.3414    0.0000 H   0  0  0  0  0  0  0  0  0  0  0  0
   10.3991   -3.7214    0.0000 H   0  0  0  0  0  0  0  0  0  0  0  0
    8.9962   -6.1514    0.0000 H   0  0  0  0  0  0  0  0  0  0  0  0
   10.3991   -5.3414    0.0000 H   0  0  0  0  0  0  0  0  0  0  0  0
 22  1  1  6  0  0  0
  1 27  1  0  0  0  0
  2 20  1  0  0  0  0
  2 61  1  0  0  0  0
  3 20  2  0  0  0  0
  4 21  2  0  0  0  0
  5 24  2  0  0  0  0
  6 32  1  0  0  0  0
  6 36  1  0  0  0  0
  7 32  2  0  0  0  0
  8 14  1  0  0  0  0
  9 14  2  0  0  0  0
 10 15  1  0  0  0  0
 10 21  1  0  0  0  0
 10 53  1  0  0  0  0
 11 18  1  0  0  0  0
 11 23  1  0  0  0  0
 11 24  1  0  0  0  0
 25 12  1  1  0  0  0
 12 32  1  0  0  0  0
 12 63  1  0  0  0  0
 13 33  1  0  0  0  0
 13 34  2  0  0  0  0
 14 38  1  0  0  0  0
 15 16  1  0  0  0  0
 15 17  1  0  0  0  0
 15 20  1  0  0  0  0
 16 17  1  0  0  0  0
 16 49  1  0  0  0  0
 16 50  1  0  0  0  0
 17 51  1  0  0  0  0
 17 52  1  0  0  0  0
 18 19  1  0  0  0  0
 18 21  1  1  0  0  0
 18 54  1  0  0  0  0
 19 22  1  0  0  0  0
 19 55  1  0  0  0  0
 19 56  1  0  0  0  0
 22 23  1  0  0  0  0
 22 57  1  0  0  0  0
 23 58  1  0  0  0  0
 23 59  1  0  0  0  0
 24 25  1  0  0  0  0
 25 26  1  0  0  0  0
 25 60  1  0  0  0  0
 26 28  1  0  0  0  0
 26 29  1  0  0  0  0
 26 62  1  0  0  0  0
 27 30  1  0  0  0  0
 27 31  2  0  0  0  0
 28 64  1  0  0  0  0
 28 65  1  0  0  0  0
 28 66  1  0  0  0  0
 29 67  1  0  0  0  0
 29 68  1  0  0  0  0
 29 69  1  0  0  0  0
 30 33  2  0  0  0  0
 30 35  1  0  0  0  0
 31 34  1  0  0  0  0
 31 70  1  0  0  0  0
 33 37  1  0  0  0  0
 34 39  1  0  0  0  0
 35 38  2  0  0  0  0
 35 71  1  0  0  0  0
 36 41  1  0  0  0  0
 36 42  1  0  0  0  0
 36 43  1  0  0  0  0
 37 40  2  0  0  0  0
 37 72  1  0  0  0  0
 38 40  1  0  0  0  0
 39 44  2  0  0  0  0
 39 45  1  0  0  0  0
 40 73  1  0  0  0  0
 41 74  1  0  0  0  0
 41 75  1  0  0  0  0
 41 76  1  0  0  0  0
 42 77  1  0  0  0  0
 42 78  1  0  0  0  0
 42 79  1  0  0  0  0
 43 80  1  0  0  0  0
 43 81  1  0  0  0  0
 43 82  1  0  0  0  0
 44 46  1  0  0  0  0
 44 83  1  0  0  0  0
 45 47  2  0  0  0  0
 45 84  1  0  0  0  0
 46 48  2  0  0  0  0
 46 85  1  0  0  0  0
 47 48  1  0  0  0  0
 47 86  1  0  0  0  0
 48 87  1  0  0  0  0
M  CHG  2   8  -1  14   1
M  END
> <PUBCHEM_COMPOUND_CID>
500631
> <PUBCHEM_COMPOUND_CANONICALIZED>
1
> <PUBCHEM_CACTVS_COMPLEXITY>
1220
> <PUBCHEM_CACTVS_HBOND_ACCEPTOR>
10
> <PUBCHEM_CACTVS_HBOND_DONOR>
3
> <PUBCHEM_CACTVS_ROTATABLE_BOND>
11
> <PUBCHEM_CACTVS_SUBSKEYS>
AAADcfB/vAAAAAAAAAAAAAAAGAAAAWAAAAA8YIAAAAAAAACx9AAAHgAUCAAADfzhngYyzvPYVgCpAyXyXwCCiCAhIiAomKG+bJsOZvLEsbufeCjm1hnY6Ae6weAOAACAQAACAAAAAQCAAAQAAAAAAAAAAA==
> <PUBCHEM_IUPAC_OPENEYE_NAME>
1-[[(2S,4R)-1-[(2S)-2-(tert-butoxycarbonylamino)-3-methyl-butanoyl]-4-[(6-nitro-2-phenyl-4-quinolyl)oxy]pyrrolidine-2-carbonyl]amino]cyclopropanecarboxylic acid
> <PUBCHEM_IUPAC_CAS_NAME>
1-[[[(2S,4R)-1-[(2S)-3-methyl-2-[[(2-methylpropan-2-yl)oxy-oxomethyl]amino]-1-oxobutyl]-4-[(6-nitro-2-phenyl-4-quinolinyl)oxy]-2-pyrrolidinyl]-oxomethyl]amino]-1-cyclopropanecarboxylic acid
> <PUBCHEM_IUPAC_NAME_MARKUP>
1-[[(2<I>S</I>,4<I>R</I>)-1-[(2<I>S</I>)-3-methyl-2-[(2-methylpropan-2-yl)oxycarbonylamino]butanoyl]-4-(6-nitro-2-phenylquinolin-4-yl)oxypyrrolidine-2-carbonyl]amino]cyclopropane-1-carboxylic acid
> <PUBCHEM_IUPAC_NAME>
1-[[(2S,4R)-1-[(2S)-3-methyl-2-[(2-methylpropan-2-yl)oxycarbonylamino]butanoyl]-4-(6-nitro-2-phenylquinolin-4-yl)oxypyrrolidine-2-carbonyl]amino]cyclopropane-1-carboxylic acid
> <PUBCHEM_IUPAC_SYSTEMATIC_NAME>
1-[[(2S,4R)-1-[(2S)-3-methyl-2-[(2-methylpropan-2-yl)oxycarbonylamino]butanoyl]-4-(6-nitro-2-phenyl-quinolin-4-yl)oxy-pyrrolidin-2-yl]carbonylamino]cyclopropane-1-carboxylic acid
> <PUBCHEM_IUPAC_TRADITIONAL_NAME>
1-[[(2S,4R)-1-[(2S)-2-(tert-butoxycarbonylamino)-3-methyl-butanoyl]-4-[(6-nitro-2-phenyl-4-quinolyl)oxy]prolyl]amino]cyclopropanecarboxylic acid
> <PUBCHEM_IUPAC_INCHI>
InChI=1S/C34H39N5O9/c1-19(2)28(36-32(44)48-33(3,4)5)30(41)38-18-22(16-26(38)29(40)37-34(13-14-34)31(42)43)47-27-17-25(20-9-7-6-8-10-20)35-24-12-11-21(39(45)46)15-23(24)27/h6-12,15,17,19,22,26,28H,13-14,16,18H2,1-5H3,(H,36,44)(H,37,40)(H,42,43)/t22-,26+,28+/m1/s1
> <PUBCHEM_IUPAC_INCHIKEY>
PNHFXSKYUOEKEC-ZEZZXZOMSA-N
> <PUBCHEM_XLOGP3_AA>
4.8
> <PUBCHEM_EXACT_MASS>
661.27477784
> <PUBCHEM_MOLECULAR_FORMULA>
C34H39N5O9
> <PUBCHEM_MOLECULAR_WEIGHT>
661.7
> <PUBCHEM_OPENEYE_CAN_SMILES>
CC(C)C(C(=O)N1CC(CC1C(=O)NC2(CC2)C(=O)O)OC3=CC(=NC4=C3C=C(C=C4)[N+](=O)[O-])C5=CC=CC=C5)NC(=O)OC(C)(C)C
> <PUBCHEM_OPENEYE_ISO_SMILES>
CC(C)[C@@H](C(=O)N1C[C@@H](C[C@H]1C(=O)NC2(CC2)C(=O)O)OC3=CC(=NC4=C3C=C(C=C4)[N+](=O)[O-])C5=CC=CC=C5)NC(=O)OC(C)(C)C
> <PUBCHEM_CACTVS_TPSA>
193
> <PUBCHEM_MONOISOTOPIC_WEIGHT>
661.27477784
> <PUBCHEM_TOTAL_CHARGE>
0
> <PUBCHEM_HEAVY_ATOM_COUNT>
48
> <PUBCHEM_ATOM_DEF_STEREO_COUNT>
3
> <PUBCHEM_ATOM_UDEF_STEREO_COUNT>
0
> <PUBCHEM_BOND_DEF_STEREO_COUNT>
0
> <PUBCHEM_BOND_UDEF_STEREO_COUNT>
0
> <PUBCHEM_ISOTOPIC_ATOM_COUNT>
0
> <PUBCHEM_COMPONENT_COUNT>
1
> <PUBCHEM_CACTVS_TAUTO_COUNT>
-1
> <PUBCHEM_COORDINATE_TYPE>
1
5
255
> <PUBCHEM_BONDANNOTATIONS>
22  1  6
25  12  5
13  33  8
13  34  8
18  21  5
27  30  8
27  31  8
30  33  8
30  35  8
31  34  8
33  37  8
35  38  8
37  40  8
38  40  8
39  44  8
39  45  8
44  46  8
45  47  8
46  48  8
47  48  8
$$$$
