500674
  -OEChem-10302200282D
 96100  0     1  0  0  0  0  0999 V2000
    6.3981   -1.0805    0.0000 O   0  0  0  0  0  0  0  0  0  0  0  0
   10.4291    0.4604    0.0000 O   0  0  0  0  0  0  0  0  0  0  0  0
    9.7480    1.6400    0.0000 O   0  0  0  0  0  0  0  0  0  0  0  0
   11.9470   -2.9490    0.0000 O   0  0  0  0  0  0  0  0  0  0  0  0
   10.2245   -2.7680    0.0000 O   0  0  0  0  0  0  0  0  0  0  0  0
    6.9902    3.9625    0.0000 O   0  0  0  0  0  0  0  0  0  0  0  0
    5.5889    2.9444    0.0000 O   0  0  0  0  0  0  0  0  0  0  0  0
    2.8680   -4.1047    0.0000 O   0  0  0  0  0  0  0  0  0  0  0  0
    8.3468    0.6219    0.0000 N   0  0  0  0  0  0  0  0  0  0  0  0
   10.2480   -1.2622    0.0000 N   0  0  0  0  0  0  0  0  0  0  0  0
    7.1712    2.2399    0.0000 N   0  0  0  0  0  0  0  0  0  0  0  0
    6.3981   -4.0805    0.0000 N   0  0  0  0  0  0  0  0  0  0  0  0
    8.8468   -0.2441    0.0000 C   0  0  1  0  0  0  0  0  0  0  0  0
   11.2426   -1.3667    0.0000 C   0  0  0  0  0  0  0  0  0  0  0  0
    8.1776   -0.9873    0.0000 C   0  0  0  0  0  0  0  0  0  0  0  0
    7.2641   -0.5805    0.0000 C   0  0  2  0  0  0  0  0  0  0  0  0
    7.3686    0.4140    0.0000 C   0  0  0  0  0  0  0  0  0  0  0  0
   11.3471   -0.3722    0.0000 C   0  0  0  0  0  0  0  0  0  0  0  0
   12.2371   -1.4712    0.0000 C   0  0  0  0  0  0  0  0  0  0  0  0
    9.8413   -0.3487    0.0000 C   0  0  0  0  0  0  0  0  0  0  0  0
   12.3416   -0.4767    0.0000 C   0  0  0  0  0  0  0  0  0  0  0  0
    8.1657    2.3445    0.0000 C   0  0  2  0  0  0  0  0  0  0  0  0
    8.7535    1.5354    0.0000 C   0  0  0  0  0  0  0  0  0  0  0  0
    8.5725    3.2580    0.0000 C   0  0  0  0  0  0  0  0  0  0  0  0
   11.1380   -2.3612    0.0000 C   0  0  0  0  0  0  0  0  0  0  0  0
    8.9792    4.1716    0.0000 C   0  0  0  0  0  0  0  0  0  0  0  0
    7.6589    3.6648    0.0000 C   0  0  0  0  0  0  0  0  0  0  0  0
    9.4860    2.8513    0.0000 C   0  0  0  0  0  0  0  0  0  0  0  0
   13.1188    0.1526    0.0000 C   0  0  0  0  0  0  0  0  0  0  0  0
    6.3981   -2.0805    0.0000 C   0  0  0  0  0  0  0  0  0  0  0  0
    6.5834    3.0490    0.0000 C   0  0  0  0  0  0  0  0  0  0  0  0
    5.5320   -2.5805    0.0000 C   0  0  0  0  0  0  0  0  0  0  0  0
    7.2641   -2.5805    0.0000 C   0  0  0  0  0  0  0  0  0  0  0  0
    5.5320   -3.5805    0.0000 C   0  0  0  0  0  0  0  0  0  0  0  0
    7.2641   -3.5805    0.0000 C   0  0  0  0  0  0  0  0  0  0  0  0
    6.4024    4.7715    0.0000 C   0  0  0  0  0  0  0  0  0  0  0  0
    4.6381   -2.0459    0.0000 C   0  0  0  0  0  0  0  0  0  0  0  0
    4.6381   -4.1152    0.0000 C   0  0  0  0  0  0  0  0  0  0  0  0
    3.7320   -2.5597    0.0000 C   0  0  0  0  0  0  0  0  0  0  0  0
    8.1301   -4.0805    0.0000 C   0  0  0  0  0  0  0  0  0  0  0  0
    5.8146    5.5805    0.0000 C   0  0  0  0  0  0  0  0  0  0  0  0
    7.2114    5.3593    0.0000 C   0  0  0  0  0  0  0  0  0  0  0  0
    5.5934    4.1837    0.0000 C   0  0  0  0  0  0  0  0  0  0  0  0
    3.7320   -3.6014    0.0000 C   0  0  0  0  0  0  0  0  0  0  0  0
    8.9962   -3.5805    0.0000 C   0  0  0  0  0  0  0  0  0  0  0  0
    8.1301   -5.0805    0.0000 C   0  0  0  0  0  0  0  0  0  0  0  0
    9.8622   -4.0805    0.0000 C   0  0  0  0  0  0  0  0  0  0  0  0
    8.9962   -5.5805    0.0000 C   0  0  0  0  0  0  0  0  0  0  0  0
    9.8622   -5.0805    0.0000 C   0  0  0  0  0  0  0  0  0  0  0  0
    2.0000   -3.6080    0.0000 C   0  0  0  0  0  0  0  0  0  0  0  0
    9.1844    0.2759    0.0000 H   0  0  0  0  0  0  0  0  0  0  0  0
    7.8676   -1.5242    0.0000 H   0  0  0  0  0  0  0  0  0  0  0  0
    8.6792   -1.3517    0.0000 H   0  0  0  0  0  0  0  0  0  0  0  0
    7.2966   -1.1997    0.0000 H   0  0  0  0  0  0  0  0  0  0  0  0
    7.3038    1.0306    0.0000 H   0  0  0  0  0  0  0  0  0  0  0  0
    6.7486    0.4140    0.0000 H   0  0  0  0  0  0  0  0  0  0  0  0
   11.4119    0.2444    0.0000 H   0  0  0  0  0  0  0  0  0  0  0  0
   10.7305   -0.3074    0.0000 H   0  0  0  0  0  0  0  0  0  0  0  0
   12.1723   -2.0879    0.0000 H   0  0  0  0  0  0  0  0  0  0  0  0
   12.8537   -1.5361    0.0000 H   0  0  0  0  0  0  0  0  0  0  0  0
    9.8836   -1.7638    0.0000 H   0  0  0  0  0  0  0  0  0  0  0  0
    7.8013    2.8460    0.0000 H   0  0  0  0  0  0  0  0  0  0  0  0
    9.5456    3.9194    0.0000 H   0  0  0  0  0  0  0  0  0  0  0  0
    9.2314    4.7380    0.0000 H   0  0  0  0  0  0  0  0  0  0  0  0
    8.4128    4.4237    0.0000 H   0  0  0  0  0  0  0  0  0  0  0  0
    7.9111    4.2311    0.0000 H   0  0  0  0  0  0  0  0  0  0  0  0
    7.0925    3.9169    0.0000 H   0  0  0  0  0  0  0  0  0  0  0  0
    7.4067    3.0984    0.0000 H   0  0  0  0  0  0  0  0  0  0  0  0
    9.2338    2.2849    0.0000 H   0  0  0  0  0  0  0  0  0  0  0  0
   10.0524    2.5991    0.0000 H   0  0  0  0  0  0  0  0  0  0  0  0
    9.7382    3.4177    0.0000 H   0  0  0  0  0  0  0  0  0  0  0  0
    6.9190    1.6735    0.0000 H   0  0  0  0  0  0  0  0  0  0  0  0
   13.6976   -0.0696    0.0000 H   0  0  0  0  0  0  0  0  0  0  0  0
   13.0218    0.7650    0.0000 H   0  0  0  0  0  0  0  0  0  0  0  0
   11.8822   -3.5656    0.0000 H   0  0  0  0  0  0  0  0  0  0  0  0
    7.8010   -2.2705    0.0000 H   0  0  0  0  0  0  0  0  0  0  0  0
    4.6453   -1.4259    0.0000 H   0  0  0  0  0  0  0  0  0  0  0  0
    4.6453   -4.7352    0.0000 H   0  0  0  0  0  0  0  0  0  0  0  0
    3.1963   -2.2476    0.0000 H   0  0  0  0  0  0  0  0  0  0  0  0
    6.3162    5.9450    0.0000 H   0  0  0  0  0  0  0  0  0  0  0  0
    5.4502    6.0821    0.0000 H   0  0  0  0  0  0  0  0  0  0  0  0
    5.3130    5.2161    0.0000 H   0  0  0  0  0  0  0  0  0  0  0  0
    7.5758    4.8577    0.0000 H   0  0  0  0  0  0  0  0  0  0  0  0
    7.7130    5.7237    0.0000 H   0  0  0  0  0  0  0  0  0  0  0  0
    6.8470    5.8609    0.0000 H   0  0  0  0  0  0  0  0  0  0  0  0
    5.2289    4.6853    0.0000 H   0  0  0  0  0  0  0  0  0  0  0  0
    5.0918    3.8193    0.0000 H   0  0  0  0  0  0  0  0  0  0  0  0
    5.9578    3.6821    0.0000 H   0  0  0  0  0  0  0  0  0  0  0  0
    8.9962   -2.9605    0.0000 H   0  0  0  0  0  0  0  0  0  0  0  0
    7.5932   -5.3905    0.0000 H   0  0  0  0  0  0  0  0  0  0  0  0
   10.3991   -3.7705    0.0000 H   0  0  0  0  0  0  0  0  0  0  0  0
    8.9962   -6.2005    0.0000 H   0  0  0  0  0  0  0  0  0  0  0  0
   10.3991   -5.3905    0.0000 H   0  0  0  0  0  0  0  0  0  0  0  0
    2.3079   -3.0699    0.0000 H   0  0  0  0  0  0  0  0  0  0  0  0
    1.4619   -3.3001    0.0000 H   0  0  0  0  0  0  0  0  0  0  0  0
    1.6921   -4.1461    0.0000 H   0  0  0  0  0  0  0  0  0  0  0  0
 16  1  1  1  0  0  0
  1 30  1  0  0  0  0
  2 20  2  0  0  0  0
  3 23  2  0  0  0  0
  4 25  1  0  0  0  0
  4 75  1  0  0  0  0
  5 25  2  0  0  0  0
  6 31  1  0  0  0  0
  6 36  1  0  0  0  0
  7 31  2  0  0  0  0
  8 44  1  0  0  0  0
  8 50  1  0  0  0  0
  9 13  1  0  0  0  0
  9 17  1  0  0  0  0
  9 23  1  0  0  0  0
 10 14  1  0  0  0  0
 10 20  1  0  0  0  0
 10 61  1  0  0  0  0
 22 11  1  1  0  0  0
 11 31  1  0  0  0  0
 11 72  1  0  0  0  0
 12 34  1  0  0  0  0
 12 35  2  0  0  0  0
 13 15  1  0  0  0  0
 13 20  1  6  0  0  0
 13 51  1  0  0  0  0
 14 18  1  0  0  0  0
 14 19  1  0  0  0  0
 14 25  1  0  0  0  0
 15 16  1  0  0  0  0
 15 52  1  0  0  0  0
 15 53  1  0  0  0  0
 16 17  1  0  0  0  0
 16 54  1  0  0  0  0
 17 55  1  0  0  0  0
 17 56  1  0  0  0  0
 18 21  1  0  0  0  0
 18 57  1  0  0  0  0
 18 58  1  0  0  0  0
 19 21  1  0  0  0  0
 19 59  1  0  0  0  0
 19 60  1  0  0  0  0
 21 29  2  0  0  0  0
 22 23  1  0  0  0  0
 22 24  1  0  0  0  0
 22 62  1  0  0  0  0
 24 26  1  0  0  0  0
 24 27  1  0  0  0  0
 24 28  1  0  0  0  0
 26 63  1  0  0  0  0
 26 64  1  0  0  0  0
 26 65  1  0  0  0  0
 27 66  1  0  0  0  0
 27 67  1  0  0  0  0
 27 68  1  0  0  0  0
 28 69  1  0  0  0  0
 28 70  1  0  0  0  0
 28 71  1  0  0  0  0
 29 73  1  0  0  0  0
 29 74  1  0  0  0  0
 30 32  1  0  0  0  0
 30 33  2  0  0  0  0
 32 34  2  0  0  0  0
 32 37  1  0  0  0  0
 33 35  1  0  0  0  0
 33 76  1  0  0  0  0
 34 38  1  0  0  0  0
 35 40  1  0  0  0  0
 36 41  1  0  0  0  0
 36 42  1  0  0  0  0
 36 43  1  0  0  0  0
 37 39  2  0  0  0  0
 37 77  1  0  0  0  0
 38 44  2  0  0  0  0
 38 78  1  0  0  0  0
 39 44  1  0  0  0  0
 39 79  1  0  0  0  0
 40 45  2  0  0  0  0
 40 46  1  0  0  0  0
 41 80  1  0  0  0  0
 41 81  1  0  0  0  0
 41 82  1  0  0  0  0
 42 83  1  0  0  0  0
 42 84  1  0  0  0  0
 42 85  1  0  0  0  0
 43 86  1  0  0  0  0
 43 87  1  0  0  0  0
 43 88  1  0  0  0  0
 45 47  1  0  0  0  0
 45 89  1  0  0  0  0
 46 48  2  0  0  0  0
 46 90  1  0  0  0  0
 47 49  2  0  0  0  0
 47 91  1  0  0  0  0
 48 49  1  0  0  0  0
 48 92  1  0  0  0  0
 49 93  1  0  0  0  0
 50 94  1  0  0  0  0
 50 95  1  0  0  0  0
 50 96  1  0  0  0  0
M  END
> <PUBCHEM_COMPOUND_CID>
500674
> <PUBCHEM_COMPOUND_CANONICALIZED>
1
> <PUBCHEM_CACTVS_COMPLEXITY>
1280
> <PUBCHEM_CACTVS_HBOND_ACCEPTOR>
9
> <PUBCHEM_CACTVS_HBOND_DONOR>
3
> <PUBCHEM_CACTVS_ROTATABLE_BOND>
12
> <PUBCHEM_CACTVS_SUBSKEYS>
AAADcfB/vAAAAAAAAAAAAAAAAABgAWAAAAA8YIAAAAAAAACx9AAAHgAQCAAADvzhngYyzvPIFgCoAyXyXACCiCAhIiAImKG+bJkOZvLEsbufeCjm1hnY6Ae68e8PIAAAAgACAABAAAAEAAQAAAAAAAAAAA==
> <PUBCHEM_IUPAC_OPENEYE_NAME>
1-[[(2S,4R)-1-[(2S)-2-(tert-butoxycarbonylamino)-3,3-dimethyl-butanoyl]-4-[(7-methoxy-2-phenyl-4-quinolyl)oxy]pyrrolidine-2-carbonyl]amino]-3-methylene-cyclobutanecarboxylic acid
> <PUBCHEM_IUPAC_CAS_NAME>
1-[[[(2S,4R)-1-[(2S)-3,3-dimethyl-2-[[(2-methylpropan-2-yl)oxy-oxomethyl]amino]-1-oxobutyl]-4-[(7-methoxy-2-phenyl-4-quinolinyl)oxy]-2-pyrrolidinyl]-oxomethyl]amino]-3-methylene-1-cyclobutanecarboxylic acid
> <PUBCHEM_IUPAC_NAME_MARKUP>
1-[[(2<I>S</I>,4<I>R</I>)-1-[(2<I>S</I>)-3,3-dimethyl-2-[(2-methylpropan-2-yl)oxycarbonylamino]butanoyl]-4-(7-methoxy-2-phenylquinolin-4-yl)oxypyrrolidine-2-carbonyl]amino]-3-methylidenecyclobutane-1-carboxylic acid
> <PUBCHEM_IUPAC_NAME>
1-[[(2S,4R)-1-[(2S)-3,3-dimethyl-2-[(2-methylpropan-2-yl)oxycarbonylamino]butanoyl]-4-(7-methoxy-2-phenylquinolin-4-yl)oxypyrrolidine-2-carbonyl]amino]-3-methylidenecyclobutane-1-carboxylic acid
> <PUBCHEM_IUPAC_SYSTEMATIC_NAME>
1-[[(2S,4R)-1-[(2S)-3,3-dimethyl-2-[(2-methylpropan-2-yl)oxycarbonylamino]butanoyl]-4-(7-methoxy-2-phenyl-quinolin-4-yl)oxy-pyrrolidin-2-yl]carbonylamino]-3-methylidene-cyclobutane-1-carboxylic acid
> <PUBCHEM_IUPAC_TRADITIONAL_NAME>
1-[[(2S,4R)-1-[(2S)-2-(tert-butoxycarbonylamino)-3,3-dimethyl-butanoyl]-4-[(7-methoxy-2-phenyl-4-quinolyl)oxy]prolyl]amino]-3-methylene-cyclobutanecarboxylic acid
> <PUBCHEM_IUPAC_INCHI>
InChI=1S/C38H46N4O8/c1-22-19-38(20-22,34(45)46)41-32(43)29-17-25(21-42(29)33(44)31(36(2,3)4)40-35(47)50-37(5,6)7)49-30-18-27(23-12-10-9-11-13-23)39-28-16-24(48-8)14-15-26(28)30/h9-16,18,25,29,31H,1,17,19-21H2,2-8H3,(H,40,47)(H,41,43)(H,45,46)/t25-,29+,31-/m1/s1
> <PUBCHEM_IUPAC_INCHIKEY>
KUOYRGGSCBNGRQ-JEVIFJNESA-N
> <PUBCHEM_XLOGP3_AA>
5.6
> <PUBCHEM_EXACT_MASS>
686.33156444
> <PUBCHEM_MOLECULAR_FORMULA>
C38H46N4O8
> <PUBCHEM_MOLECULAR_WEIGHT>
686.8
> <PUBCHEM_OPENEYE_CAN_SMILES>
CC(C)(C)C(C(=O)N1CC(CC1C(=O)NC2(CC(=C)C2)C(=O)O)OC3=CC(=NC4=C3C=CC(=C4)OC)C5=CC=CC=C5)NC(=O)OC(C)(C)C
> <PUBCHEM_OPENEYE_ISO_SMILES>
CC(C)(C)[C@@H](C(=O)N1C[C@@H](C[C@H]1C(=O)NC2(CC(=C)C2)C(=O)O)OC3=CC(=NC4=C3C=CC(=C4)OC)C5=CC=CC=C5)NC(=O)OC(C)(C)C
> <PUBCHEM_CACTVS_TPSA>
156
> <PUBCHEM_MONOISOTOPIC_WEIGHT>
686.33156444
> <PUBCHEM_TOTAL_CHARGE>
0
> <PUBCHEM_HEAVY_ATOM_COUNT>
50
> <PUBCHEM_ATOM_DEF_STEREO_COUNT>
3
> <PUBCHEM_ATOM_UDEF_STEREO_COUNT>
0
> <PUBCHEM_BOND_DEF_STEREO_COUNT>
0
> <PUBCHEM_BOND_UDEF_STEREO_COUNT>
0
> <PUBCHEM_ISOTOPIC_ATOM_COUNT>
0
> <PUBCHEM_COMPONENT_COUNT>
1
> <PUBCHEM_CACTVS_TAUTO_COUNT>
-1
> <PUBCHEM_COORDINATE_TYPE>
1
5
255
> <PUBCHEM_BONDANNOTATIONS>
16  1  5
22  11  5
12  34  8
12  35  8
13  20  6
30  32  8
30  33  8
32  34  8
32  37  8
33  35  8
34  38  8
37  39  8
38  44  8
39  44  8
40  45  8
40  46  8
45  47  8
46  48  8
47  49  8
48  49  8
$$$$
