500658
  -OEChem-10302200282D
 98102  0     1  0  0  0  0  0999 V2000
    6.9804   -4.6698    0.0000 F   0  0  0  0  0  0  0  0  0  0  0  0
    7.3464   -6.0358    0.0000 F   0  0  0  0  0  0  0  0  0  0  0  0
    5.9804   -6.4019    0.0000 F   0  0  0  0  0  0  0  0  0  0  0  0
    3.0115   -7.5704    0.0000 F   0  0  0  0  0  0  0  0  0  0  0  0
    2.0000   -6.5820    0.0000 F   0  0  0  0  0  0  0  0  0  0  0  0
    3.9999   -6.5589    0.0000 F   0  0  0  0  0  0  0  0  0  0  0  0
   11.1751   -2.1175    0.0000 O   0  0  0  0  0  0  0  0  0  0  0  0
    9.7739   -1.0995    0.0000 O   0  0  0  0  0  0  0  0  0  0  0  0
    4.7483   -2.5358    0.0000 O   0  0  0  0  0  0  0  0  0  0  0  0
    8.7794   -0.9949    0.0000 O   0  0  0  0  0  0  0  0  0  0  0  0
    8.0983    0.1847    0.0000 O   0  0  0  0  0  0  0  0  0  0  0  0
    4.9783    5.9523    0.0000 O   0  0  0  0  0  0  0  0  0  0  0  0
    3.5771    4.9342    0.0000 O   0  0  0  0  0  0  0  0  0  0  0  0
    8.5983   -2.7175    0.0000 N   0  0  0  0  0  0  0  0  0  0  0  0
    6.6970   -0.8334    0.0000 N   0  0  0  0  0  0  0  0  0  0  0  0
    6.9227    1.8027    0.0000 N   0  0  0  0  0  0  0  0  0  0  0  0
    4.7483   -5.5358    0.0000 N   0  0  0  0  0  0  0  0  0  0  0  0
    9.5928   -2.8220    0.0000 C   0  0  3  0  0  0  0  0  0  0  0  0
    9.4883   -3.8166    0.0000 C   0  0  2  0  0  0  0  0  0  0  0  0
   10.4018   -3.4098    0.0000 C   0  0  0  0  0  0  0  0  0  0  0  0
   10.1806   -2.0130    0.0000 C   0  0  0  0  0  0  0  0  0  0  0  0
    8.9005   -4.6256    0.0000 C   0  0  0  0  0  0  0  0  0  0  0  0
    7.1970   -1.6994    0.0000 C   0  0  2  0  0  0  0  0  0  0  0  0
    8.1916   -1.8040    0.0000 C   0  0  0  0  0  0  0  0  0  0  0  0
    6.5279   -2.4426    0.0000 C   0  0  0  0  0  0  0  0  0  0  0  0
    5.6144   -2.0358    0.0000 C   0  0  2  0  0  0  0  0  0  0  0  0
    5.7189   -1.0413    0.0000 C   0  0  0  0  0  0  0  0  0  0  0  0
    7.1038    0.0801    0.0000 C   0  0  0  0  0  0  0  0  0  0  0  0
    9.3072   -5.5391    0.0000 C   0  0  0  0  0  0  0  0  0  0  0  0
    6.5160    0.8892    0.0000 C   0  0  2  0  0  0  0  0  0  0  0  0
    5.5215    0.7846    0.0000 C   0  0  0  0  0  0  0  0  0  0  0  0
    5.4169    1.7792    0.0000 C   0  0  0  0  0  0  0  0  0  0  0  0
    5.6260   -0.2099    0.0000 C   0  0  0  0  0  0  0  0  0  0  0  0
    4.5270    0.6801    0.0000 C   0  0  0  0  0  0  0  0  0  0  0  0
    4.7483   -3.5358    0.0000 C   0  0  0  0  0  0  0  0  0  0  0  0
    6.3349    2.6117    0.0000 C   0  0  0  0  0  0  0  0  0  0  0  0
    3.8823   -4.0358    0.0000 C   0  0  0  0  0  0  0  0  0  0  0  0
    5.6144   -4.0358    0.0000 C   0  0  0  0  0  0  0  0  0  0  0  0
    3.8823   -5.0358    0.0000 C   0  0  0  0  0  0  0  0  0  0  0  0
    6.7417    3.5253    0.0000 C   0  0  0  0  0  0  0  0  0  0  0  0
    5.3404    2.5072    0.0000 C   0  0  0  0  0  0  0  0  0  0  0  0
    5.6144   -5.0358    0.0000 C   0  0  0  0  0  0  0  0  0  0  0  0
    2.9884   -3.5012    0.0000 C   0  0  0  0  0  0  0  0  0  0  0  0
    2.9884   -5.5705    0.0000 C   0  0  0  0  0  0  0  0  0  0  0  0
    6.1539    4.3343    0.0000 C   0  0  0  0  0  0  0  0  0  0  0  0
    4.7526    3.3162    0.0000 C   0  0  0  0  0  0  0  0  0  0  0  0
    2.0823   -4.0150    0.0000 C   0  0  0  0  0  0  0  0  0  0  0  0
    5.1594    4.2298    0.0000 C   0  0  0  0  0  0  0  0  0  0  0  0
    6.4804   -5.5358    0.0000 C   0  0  0  0  0  0  0  0  0  0  0  0
    2.0823   -5.0566    0.0000 C   0  0  0  0  0  0  0  0  0  0  0  0
    2.9999   -6.5704    0.0000 C   0  0  0  0  0  0  0  0  0  0  0  0
    4.5716    5.0388    0.0000 C   0  0  0  0  0  0  0  0  0  0  0  0
    4.3905    6.7613    0.0000 C   0  0  0  0  0  0  0  0  0  0  0  0
    3.8028    7.5704    0.0000 C   0  0  0  0  0  0  0  0  0  0  0  0
    5.1996    7.3491    0.0000 C   0  0  0  0  0  0  0  0  0  0  0  0
    3.5815    6.1736    0.0000 C   0  0  0  0  0  0  0  0  0  0  0  0
    9.8785   -4.2984    0.0000 H   0  0  0  0  0  0  0  0  0  0  0  0
   10.7485   -3.9238    0.0000 H   0  0  0  0  0  0  0  0  0  0  0  0
   10.8478   -2.9791    0.0000 H   0  0  0  0  0  0  0  0  0  0  0  0
    8.2339   -3.2191    0.0000 H   0  0  0  0  0  0  0  0  0  0  0  0
    8.2839   -4.5608    0.0000 H   0  0  0  0  0  0  0  0  0  0  0  0
    7.5347   -1.1795    0.0000 H   0  0  0  0  0  0  0  0  0  0  0  0
    6.2179   -2.9795    0.0000 H   0  0  0  0  0  0  0  0  0  0  0  0
    7.0295   -2.8070    0.0000 H   0  0  0  0  0  0  0  0  0  0  0  0
    5.0944   -1.6982    0.0000 H   0  0  0  0  0  0  0  0  0  0  0  0
    5.6541   -0.4247    0.0000 H   0  0  0  0  0  0  0  0  0  0  0  0
    5.0989   -1.0413    0.0000 H   0  0  0  0  0  0  0  0  0  0  0  0
    8.9428   -6.0407    0.0000 H   0  0  0  0  0  0  0  0  0  0  0  0
    9.9238   -5.6039    0.0000 H   0  0  0  0  0  0  0  0  0  0  0  0
    6.1516    1.3908    0.0000 H   0  0  0  0  0  0  0  0  0  0  0  0
   11.5396   -1.6160    0.0000 H   0  0  0  0  0  0  0  0  0  0  0  0
    7.5393    1.8675    0.0000 H   0  0  0  0  0  0  0  0  0  0  0  0
    6.0335    1.8440    0.0000 H   0  0  0  0  0  0  0  0  0  0  0  0
    5.3521    2.3958    0.0000 H   0  0  0  0  0  0  0  0  0  0  0  0
    4.8003    1.7144    0.0000 H   0  0  0  0  0  0  0  0  0  0  0  0
    5.0094   -0.2747    0.0000 H   0  0  0  0  0  0  0  0  0  0  0  0
    5.6908   -0.8265    0.0000 H   0  0  0  0  0  0  0  0  0  0  0  0
    6.2426   -0.1451    0.0000 H   0  0  0  0  0  0  0  0  0  0  0  0
    4.4621    1.2967    0.0000 H   0  0  0  0  0  0  0  0  0  0  0  0
    3.9103    0.6153    0.0000 H   0  0  0  0  0  0  0  0  0  0  0  0
    4.5918    0.0635    0.0000 H   0  0  0  0  0  0  0  0  0  0  0  0
    6.1513   -3.7258    0.0000 H   0  0  0  0  0  0  0  0  0  0  0  0
    7.3583    3.5901    0.0000 H   0  0  0  0  0  0  0  0  0  0  0  0
    5.0882    1.9408    0.0000 H   0  0  0  0  0  0  0  0  0  0  0  0
    2.9955   -2.8812    0.0000 H   0  0  0  0  0  0  0  0  0  0  0  0
    6.4061    4.9007    0.0000 H   0  0  0  0  0  0  0  0  0  0  0  0
    4.1360    3.2514    0.0000 H   0  0  0  0  0  0  0  0  0  0  0  0
    1.5466   -3.7030    0.0000 H   0  0  0  0  0  0  0  0  0  0  0  0
    1.5466   -5.3687    0.0000 H   0  0  0  0  0  0  0  0  0  0  0  0
    4.3043    7.9348    0.0000 H   0  0  0  0  0  0  0  0  0  0  0  0
    3.4383    8.0720    0.0000 H   0  0  0  0  0  0  0  0  0  0  0  0
    3.3012    7.2059    0.0000 H   0  0  0  0  0  0  0  0  0  0  0  0
    5.5640    6.8475    0.0000 H   0  0  0  0  0  0  0  0  0  0  0  0
    5.7011    7.7136    0.0000 H   0  0  0  0  0  0  0  0  0  0  0  0
    4.8351    7.8507    0.0000 H   0  0  0  0  0  0  0  0  0  0  0  0
    3.2171    6.6752    0.0000 H   0  0  0  0  0  0  0  0  0  0  0  0
    3.0799    5.8091    0.0000 H   0  0  0  0  0  0  0  0  0  0  0  0
    3.9460    5.6720    0.0000 H   0  0  0  0  0  0  0  0  0  0  0  0
  1 49  1  0  0  0  0
  2 49  1  0  0  0  0
  3 49  1  0  0  0  0
  4 51  1  0  0  0  0
  5 51  1  0  0  0  0
  6 51  1  0  0  0  0
  7 21  1  0  0  0  0
  7 71  1  0  0  0  0
  8 21  2  0  0  0  0
 26  9  1  1  0  0  0
  9 35  1  0  0  0  0
 10 24  2  0  0  0  0
 11 28  2  0  0  0  0
 12 52  1  0  0  0  0
 12 53  1  0  0  0  0
 13 52  2  0  0  0  0
 14 18  1  0  0  0  0
 14 24  1  0  0  0  0
 14 60  1  0  0  0  0
 15 23  1  0  0  0  0
 15 27  1  0  0  0  0
 15 28  1  0  0  0  0
 30 16  1  6  0  0  0
 16 36  1  0  0  0  0
 16 72  1  0  0  0  0
 17 39  1  0  0  0  0
 17 42  2  0  0  0  0
 18 19  1  0  0  0  0
 18 20  1  0  0  0  0
 18 21  1  0  0  0  0
 19 20  1  0  0  0  0
 19 22  1  6  0  0  0
 19 57  1  0  0  0  0
 20 58  1  0  0  0  0
 20 59  1  0  0  0  0
 22 29  2  0  0  0  0
 22 61  1  0  0  0  0
 23 24  1  6  0  0  0
 23 25  1  0  0  0  0
 23 62  1  0  0  0  0
 25 26  1  0  0  0  0
 25 63  1  0  0  0  0
 25 64  1  0  0  0  0
 26 27  1  0  0  0  0
 26 65  1  0  0  0  0
 27 66  1  0  0  0  0
 27 67  1  0  0  0  0
 28 30  1  0  0  0  0
 29 68  1  0  0  0  0
 29 69  1  0  0  0  0
 30 31  1  0  0  0  0
 30 70  1  0  0  0  0
 31 32  1  0  0  0  0
 31 33  1  0  0  0  0
 31 34  1  0  0  0  0
 32 73  1  0  0  0  0
 32 74  1  0  0  0  0
 32 75  1  0  0  0  0
 33 76  1  0  0  0  0
 33 77  1  0  0  0  0
 33 78  1  0  0  0  0
 34 79  1  0  0  0  0
 34 80  1  0  0  0  0
 34 81  1  0  0  0  0
 35 37  1  0  0  0  0
 35 38  2  0  0  0  0
 36 40  2  0  0  0  0
 36 41  1  0  0  0  0
 37 39  2  0  0  0  0
 37 43  1  0  0  0  0
 38 42  1  0  0  0  0
 38 82  1  0  0  0  0
 39 44  1  0  0  0  0
 40 45  1  0  0  0  0
 40 83  1  0  0  0  0
 41 46  2  0  0  0  0
 41 84  1  0  0  0  0
 42 49  1  0  0  0  0
 43 47  2  0  0  0  0
 43 85  1  0  0  0  0
 44 50  2  0  0  0  0
 44 51  1  0  0  0  0
 45 48  2  0  0  0  0
 45 86  1  0  0  0  0
 46 48  1  0  0  0  0
 46 87  1  0  0  0  0
 47 50  1  0  0  0  0
 47 88  1  0  0  0  0
 48 52  1  0  0  0  0
 50 89  1  0  0  0  0
 53 54  1  0  0  0  0
 53 55  1  0  0  0  0
 53 56  1  0  0  0  0
 54 90  1  0  0  0  0
 54 91  1  0  0  0  0
 54 92  1  0  0  0  0
 55 93  1  0  0  0  0
 55 94  1  0  0  0  0
 55 95  1  0  0  0  0
 56 96  1  0  0  0  0
 56 97  1  0  0  0  0
 56 98  1  0  0  0  0
M  END
> <PUBCHEM_COMPOUND_CID>
500658
> <PUBCHEM_COMPOUND_CANONICALIZED>
1
> <PUBCHEM_CACTVS_COMPLEXITY>
1490
> <PUBCHEM_CACTVS_HBOND_ACCEPTOR>
15
> <PUBCHEM_CACTVS_HBOND_DONOR>
3
> <PUBCHEM_CACTVS_ROTATABLE_BOND>
13
> <PUBCHEM_CACTVS_SUBSKEYS>
AAADcfB/ucAAAAAAAAAAAAAAGAAAAWAAAAA8YIAAAAAAAACx9AAAHwAQCAAAD/zhnhYyzvPIFgCoAyXyXACCiCAlIiAImKG+bNgOZvLEtbuXeSjm1hnY6Ye62eOfCAACAAACAAAQAAQAAAQAAAAAAAAAAA==
> <PUBCHEM_IUPAC_OPENEYE_NAME>
(2R)-1-[[(2S,4R)-4-[[2,8-bis(trifluoromethyl)-4-quinolyl]oxy]-1-[(2S)-2-(4-tert-butoxycarbonylanilino)-3,3-dimethyl-butanoyl]pyrrolidine-2-carbonyl]amino]-2-vinyl-cyclopropanecarboxylic acid
> <PUBCHEM_IUPAC_CAS_NAME>
(2R)-1-[[[(2S,4R)-4-[[2,8-bis(trifluoromethyl)-4-quinolinyl]oxy]-1-[(2S)-3,3-dimethyl-2-[4-[(2-methylpropan-2-yl)oxy-oxomethyl]anilino]-1-oxobutyl]-2-pyrrolidinyl]-oxomethyl]amino]-2-ethenyl-1-cyclopropanecarboxylic acid
> <PUBCHEM_IUPAC_NAME_MARKUP>
(2<I>R</I>)-1-[[(2<I>S</I>,4<I>R</I>)-4-[2,8-bis(trifluoromethyl)quinolin-4-yl]oxy-1-[(2<I>S</I>)-3,3-dimethyl-2-[4-[(2-methylpropan-2-yl)oxycarbonyl]anilino]butanoyl]pyrrolidine-2-carbonyl]amino]-2-ethenylcyclopropane-1-carboxylic acid
> <PUBCHEM_IUPAC_NAME>
(2R)-1-[[(2S,4R)-4-[2,8-bis(trifluoromethyl)quinolin-4-yl]oxy-1-[(2S)-3,3-dimethyl-2-[4-[(2-methylpropan-2-yl)oxycarbonyl]anilino]butanoyl]pyrrolidine-2-carbonyl]amino]-2-ethenylcyclopropane-1-carboxylic acid
> <PUBCHEM_IUPAC_SYSTEMATIC_NAME>
(2R)-1-[[(2S,4R)-4-[2,8-bis(trifluoromethyl)quinolin-4-yl]oxy-1-[(2S)-3,3-dimethyl-2-[[4-[(2-methylpropan-2-yl)oxycarbonyl]phenyl]amino]butanoyl]pyrrolidin-2-yl]carbonylamino]-2-ethenyl-cyclopropane-1-carboxylic acid
> <PUBCHEM_IUPAC_TRADITIONAL_NAME>
(2R)-1-[[(2S,4R)-4-[[2,8-bis(trifluoromethyl)-4-quinolyl]oxy]-1-[(2S)-2-(4-tert-butoxycarbonylanilino)-3,3-dimethyl-butanoyl]prolyl]amino]-2-vinyl-cyclopropanecarboxylic acid
> <PUBCHEM_IUPAC_INCHI>
InChI=1S/C39H42F6N4O7/c1-8-21-18-37(21,34(53)54)48-31(50)26-16-23(55-27-17-28(39(43,44)45)47-29-24(27)10-9-11-25(29)38(40,41)42)19-49(26)32(51)30(35(2,3)4)46-22-14-12-20(13-15-22)33(52)56-36(5,6)7/h8-15,17,21,23,26,30,46H,1,16,18-19H2,2-7H3,(H,48,50)(H,53,54)/t21-,23+,26-,30+,37?/m0/s1
> <PUBCHEM_IUPAC_INCHIKEY>
MINCOUKEKFYNRL-LJKNCDLQSA-N
> <PUBCHEM_XLOGP3_AA>
7.8
> <PUBCHEM_EXACT_MASS>
792.29576866
> <PUBCHEM_MOLECULAR_FORMULA>
C39H42F6N4O7
> <PUBCHEM_MOLECULAR_WEIGHT>
792.8
> <PUBCHEM_OPENEYE_CAN_SMILES>
CC(C)(C)C(C(=O)N1CC(CC1C(=O)NC2(CC2C=C)C(=O)O)OC3=CC(=NC4=C3C=CC=C4C(F)(F)F)C(F)(F)F)NC5=CC=C(C=C5)C(=O)OC(C)(C)C
> <PUBCHEM_OPENEYE_ISO_SMILES>
CC(C)(C)[C@@H](C(=O)N1C[C@@H](C[C@H]1C(=O)NC2(C[C@@H]2C=C)C(=O)O)OC3=CC(=NC4=C3C=CC=C4C(F)(F)F)C(F)(F)F)NC5=CC=C(C=C5)C(=O)OC(C)(C)C
> <PUBCHEM_CACTVS_TPSA>
147
> <PUBCHEM_MONOISOTOPIC_WEIGHT>
792.29576866
> <PUBCHEM_TOTAL_CHARGE>
0
> <PUBCHEM_HEAVY_ATOM_COUNT>
56
> <PUBCHEM_ATOM_DEF_STEREO_COUNT>
4
> <PUBCHEM_ATOM_UDEF_STEREO_COUNT>
1
> <PUBCHEM_BOND_DEF_STEREO_COUNT>
0
> <PUBCHEM_BOND_UDEF_STEREO_COUNT>
0
> <PUBCHEM_ISOTOPIC_ATOM_COUNT>
0
> <PUBCHEM_COMPONENT_COUNT>
1
> <PUBCHEM_CACTVS_TAUTO_COUNT>
-1
> <PUBCHEM_COORDINATE_TYPE>
1
5
255
> <PUBCHEM_BONDANNOTATIONS>
30  16  6
17  39  8
17  42  8
18  21  3
19  22  6
23  24  6
35  37  8
35  38  8
36  40  8
36  41  8
37  39  8
37  43  8
38  42  8
39  44  8
40  45  8
41  46  8
43  47  8
44  50  8
45  48  8
46  48  8
47  50  8
26  9  5
$$$$
