500616
  -OEChem-10302200282D
130132  0     1  0  0  0  0  0999 V2000
   17.6517   -1.2146    0.0000 F   0  0  0  0  0  0  0  0  0  0  0  0
   17.2857   -2.5806    0.0000 F   0  0  0  0  0  0  0  0  0  0  0  0
   16.2857   -0.8486    0.0000 F   0  0  0  0  0  0  0  0  0  0  0  0
   15.2754    3.1332    0.0000 O   0  0  0  0  0  0  0  0  0  0  0  0
   12.2196    0.0860    0.0000 O   0  0  0  0  0  0  0  0  0  0  0  0
   13.3216   -0.7146    0.0000 O   0  0  0  0  0  0  0  0  0  0  0  0
   10.1981    3.0715    0.0000 O   0  0  0  0  0  0  0  0  0  0  0  0
    8.5039    3.4316    0.0000 O   0  0  0  0  0  0  0  0  0  0  0  0
    7.1370    1.1663    0.0000 O   0  0  0  0  0  0  0  0  0  0  0  0
   13.3216   -1.7146    0.0000 O   0  0  0  0  0  0  0  0  0  0  0  0
    5.1155    4.1519    0.0000 O   0  0  0  0  0  0  0  0  0  0  0  0
    5.5313    6.1082    0.0000 O   0  0  0  0  0  0  0  0  0  0  0  0
    7.2255    5.7481    0.0000 O   0  0  0  0  0  0  0  0  0  0  0  0
    2.5896    0.5994    0.0000 O   0  0  0  0  0  0  0  0  0  0  0  0
    2.0544    2.2467    0.0000 O   0  0  0  0  0  0  0  0  0  0  0  0
    4.3724    4.8210    0.0000 O   0  0  0  0  0  0  0  0  0  0  0  0
   13.3786    1.3732    0.0000 N   0  0  0  0  0  0  0  0  0  0  0  0
   10.7333    1.4243    0.0000 N   0  0  0  0  0  0  0  0  0  0  0  0
   15.0536   -0.7146    0.0000 N   0  0  0  0  0  0  0  0  0  0  0  0
   15.0536   -1.7146    0.0000 N   0  0  0  0  0  0  0  0  0  0  0  0
    8.2960    2.4535    0.0000 N   0  0  0  0  0  0  0  0  0  0  0  0
    5.6507    2.5046    0.0000 N   0  0  0  0  0  0  0  0  0  0  0  0
   14.1876   -3.2146    0.0000 N   0  0  0  0  0  0  0  0  0  0  0  0
    3.2134    3.5338    0.0000 N   0  0  0  0  0  0  0  0  0  0  0  0
   14.1876    0.7854    0.0000 C   0  0  1  0  0  0  0  0  0  0  0  0
   14.6876    2.3242    0.0000 C   0  0  2  0  0  0  0  0  0  0  0  0
   14.9966    1.3732    0.0000 C   0  0  0  0  0  0  0  0  0  0  0  0
   13.6876    2.3242    0.0000 C   0  0  0  0  0  0  0  0  0  0  0  0
   12.4275    1.0641    0.0000 C   0  0  0  0  0  0  0  0  0  0  0  0
   11.6844    1.7333    0.0000 C   0  0  2  0  0  0  0  0  0  0  0  0
   14.1876   -0.2146    0.0000 C   0  0  0  0  0  0  0  0  0  0  0  0
   11.8923    2.7114    0.0000 C   0  0  0  0  0  0  0  0  0  0  0  0
    9.0391    1.7844    0.0000 C   0  0  2  0  0  0  0  0  0  0  0  0
   14.8687    4.0468    0.0000 C   0  0  0  0  0  0  0  0  0  0  0  0
   11.1492    3.3806    0.0000 C   0  0  0  0  0  0  0  0  0  0  0  0
   12.8434    3.0204    0.0000 C   0  0  0  0  0  0  0  0  0  0  0  0
    9.9902    2.0934    0.0000 C   0  0  0  0  0  0  0  0  0  0  0  0
    8.8312    0.8062    0.0000 C   0  0  2  0  0  0  0  0  0  0  0  0
    7.8802    0.4972    0.0000 C   0  0  0  0  0  0  0  0  0  0  0  0
   15.4564    4.8558    0.0000 C   0  0  0  0  0  0  0  0  0  0  0  0
    9.5744    0.1371    0.0000 C   0  0  0  0  0  0  0  0  0  0  0  0
   15.9197   -2.2146    0.0000 C   0  0  0  0  0  0  0  0  0  0  0  0
    7.3449    2.1445    0.0000 C   0  0  0  0  0  0  0  0  0  0  0  0
    7.6723   -0.4809    0.0000 C   0  0  0  0  0  0  0  0  0  0  0  0
    6.6018    2.8136    0.0000 C   0  0  1  0  0  0  0  0  0  0  0  0
   14.1876   -2.2146    0.0000 C   0  0  0  0  0  0  0  0  0  0  0  0
   16.4510    4.7513    0.0000 C   0  0  0  0  0  0  0  0  0  0  0  0
   15.0497    5.7693    0.0000 C   0  0  0  0  0  0  0  0  0  0  0  0
    6.8097    3.7918    0.0000 C   0  0  0  0  0  0  0  0  0  0  0  0
   16.7857   -1.7146    0.0000 C   0  0  0  0  0  0  0  0  0  0  0  0
   17.0388    5.5603    0.0000 C   0  0  0  0  0  0  0  0  0  0  0  0
   15.6375    6.5784    0.0000 C   0  0  0  0  0  0  0  0  0  0  0  0
    6.0666    4.4609    0.0000 C   0  0  0  0  0  0  0  0  0  0  0  0
   13.3216   -3.7146    0.0000 C   0  0  2  0  0  0  0  0  0  0  0  0
   16.6320    6.4738    0.0000 C   0  0  0  0  0  0  0  0  0  0  0  0
    4.9076    3.1737    0.0000 C   0  0  0  0  0  0  0  0  0  0  0  0
    3.9565    2.8647    0.0000 C   0  0  2  0  0  0  0  0  0  0  0  0
   13.3216   -4.7146    0.0000 C   0  0  0  0  0  0  0  0  0  0  0  0
   12.4556   -3.2146    0.0000 C   0  0  0  0  0  0  0  0  0  0  0  0
    6.2745    5.4390    0.0000 C   0  0  0  0  0  0  0  0  0  0  0  0
    3.7486    1.8866    0.0000 C   0  0  0  0  0  0  0  0  0  0  0  0
   12.4556   -5.2146    0.0000 C   0  0  0  0  0  0  0  0  0  0  0  0
   14.1876   -5.2146    0.0000 C   0  0  0  0  0  0  0  0  0  0  0  0
    2.7976    1.5776    0.0000 C   0  0  0  0  0  0  0  0  0  0  0  0
   12.4556   -6.2146    0.0000 C   0  0  0  0  0  0  0  0  0  0  0  0
   14.1876   -6.2146    0.0000 C   0  0  0  0  0  0  0  0  0  0  0  0
    3.4213    4.5120    0.0000 C   0  0  0  0  0  0  0  0  0  0  0  0
   13.3216   -6.7146    0.0000 C   0  0  0  0  0  0  0  0  0  0  0  0
    2.6782    5.1811    0.0000 C   0  0  0  0  0  0  0  0  0  0  0  0
   13.6352    0.5039    0.0000 H   0  0  0  0  0  0  0  0  0  0  0  0
   15.3000    2.2272    0.0000 H   0  0  0  0  0  0  0  0  0  0  0  0
   15.3066    0.8362    0.0000 H   0  0  0  0  0  0  0  0  0  0  0  0
   15.5630    1.6253    0.0000 H   0  0  0  0  0  0  0  0  0  0  0  0
   13.7524    2.9408    0.0000 H   0  0  0  0  0  0  0  0  0  0  0  0
   13.0812    2.4531    0.0000 H   0  0  0  0  0  0  0  0  0  0  0  0
   11.5555    1.1268    0.0000 H   0  0  0  0  0  0  0  0  0  0  0  0
   12.0212    3.3179    0.0000 H   0  0  0  0  0  0  0  0  0  0  0  0
   10.6044    0.8178    0.0000 H   0  0  0  0  0  0  0  0  0  0  0  0
    9.1680    2.3908    0.0000 H   0  0  0  0  0  0  0  0  0  0  0  0
   14.4380    4.4928    0.0000 H   0  0  0  0  0  0  0  0  0  0  0  0
   14.3547    3.7001    0.0000 H   0  0  0  0  0  0  0  0  0  0  0  0
   11.5640    3.8413    0.0000 H   0  0  0  0  0  0  0  0  0  0  0  0
   10.6884    3.7954    0.0000 H   0  0  0  0  0  0  0  0  0  0  0  0
   10.7343    2.9198    0.0000 H   0  0  0  0  0  0  0  0  0  0  0  0
   13.0350    2.4308    0.0000 H   0  0  0  0  0  0  0  0  0  0  0  0
   13.4330    3.2120    0.0000 H   0  0  0  0  0  0  0  0  0  0  0  0
   12.6518    3.6101    0.0000 H   0  0  0  0  0  0  0  0  0  0  0  0
   15.5906   -0.4046    0.0000 H   0  0  0  0  0  0  0  0  0  0  0  0
    8.7023    0.1998    0.0000 H   0  0  0  0  0  0  0  0  0  0  0  0
    7.7939    1.1112    0.0000 H   0  0  0  0  0  0  0  0  0  0  0  0
    7.2606    0.5188    0.0000 H   0  0  0  0  0  0  0  0  0  0  0  0
    9.1595   -0.3237    0.0000 H   0  0  0  0  0  0  0  0  0  0  0  0
   10.0351   -0.2778    0.0000 H   0  0  0  0  0  0  0  0  0  0  0  0
    9.9892    0.5978    0.0000 H   0  0  0  0  0  0  0  0  0  0  0  0
   15.5211   -2.6896    0.0000 H   0  0  0  0  0  0  0  0  0  0  0  0
   16.3182   -2.6896    0.0000 H   0  0  0  0  0  0  0  0  0  0  0  0
    7.0658   -0.3520    0.0000 H   0  0  0  0  0  0  0  0  0  0  0  0
    7.5434   -1.0874    0.0000 H   0  0  0  0  0  0  0  0  0  0  0  0
    8.2787   -0.6098    0.0000 H   0  0  0  0  0  0  0  0  0  0  0  0
    6.4729    2.2072    0.0000 H   0  0  0  0  0  0  0  0  0  0  0  0
   16.7031    4.1849    0.0000 H   0  0  0  0  0  0  0  0  0  0  0  0
   14.4331    5.8342    0.0000 H   0  0  0  0  0  0  0  0  0  0  0  0
    7.3846    3.5595    0.0000 H   0  0  0  0  0  0  0  0  0  0  0  0
    7.1382    4.3176    0.0000 H   0  0  0  0  0  0  0  0  0  0  0  0
    8.0432    3.8465    0.0000 H   0  0  0  0  0  0  0  0  0  0  0  0
    5.5218    1.8982    0.0000 H   0  0  0  0  0  0  0  0  0  0  0  0
   14.7246   -3.5246    0.0000 H   0  0  0  0  0  0  0  0  0  0  0  0
   17.6554    5.4955    0.0000 H   0  0  0  0  0  0  0  0  0  0  0  0
   15.3853    7.1448    0.0000 H   0  0  0  0  0  0  0  0  0  0  0  0
    5.4917    4.6932    0.0000 H   0  0  0  0  0  0  0  0  0  0  0  0
    5.7380    3.9351    0.0000 H   0  0  0  0  0  0  0  0  0  0  0  0
   13.3216   -3.0946    0.0000 H   0  0  0  0  0  0  0  0  0  0  0  0
   16.9964    6.9754    0.0000 H   0  0  0  0  0  0  0  0  0  0  0  0
    4.0854    3.4712    0.0000 H   0  0  0  0  0  0  0  0  0  0  0  0
   12.7656   -2.6777    0.0000 H   0  0  0  0  0  0  0  0  0  0  0  0
   11.9186   -2.9046    0.0000 H   0  0  0  0  0  0  0  0  0  0  0  0
   12.1456   -3.7516    0.0000 H   0  0  0  0  0  0  0  0  0  0  0  0
    3.8349    1.2726    0.0000 H   0  0  0  0  0  0  0  0  0  0  0  0
    4.3682    1.8649    0.0000 H   0  0  0  0  0  0  0  0  0  0  0  0
    2.6237    3.3422    0.0000 H   0  0  0  0  0  0  0  0  0  0  0  0
   11.9186   -4.9046    0.0000 H   0  0  0  0  0  0  0  0  0  0  0  0
   14.7246   -4.9046    0.0000 H   0  0  0  0  0  0  0  0  0  0  0  0
    5.6602    6.7146    0.0000 H   0  0  0  0  0  0  0  0  0  0  0  0
   11.9186   -6.5246    0.0000 H   0  0  0  0  0  0  0  0  0  0  0  0
   14.7246   -6.5246    0.0000 H   0  0  0  0  0  0  0  0  0  0  0  0
   13.3216   -7.3346    0.0000 H   0  0  0  0  0  0  0  0  0  0  0  0
    3.0930    5.6419    0.0000 H   0  0  0  0  0  0  0  0  0  0  0  0
    2.2174    5.5960    0.0000 H   0  0  0  0  0  0  0  0  0  0  0  0
    2.2633    4.7204    0.0000 H   0  0  0  0  0  0  0  0  0  0  0  0
    2.0000    0.4078    0.0000 H   0  0  0  0  0  0  0  0  0  0  0  0
  1 50  1  0  0  0  0
  2 50  1  0  0  0  0
  3 50  1  0  0  0  0
 26  4  1  6  0  0  0
  4 34  1  0  0  0  0
  5 29  2  0  0  0  0
  6 31  2  0  0  0  0
  7 37  2  0  0  0  0
  8 21  1  0  0  0  0
  8105  1  0  0  0  0
  9 43  2  0  0  0  0
 10 46  2  0  0  0  0
 11 56  2  0  0  0  0
 12 60  1  0  0  0  0
 12123  1  0  0  0  0
 13 60  2  0  0  0  0
 14 64  1  0  0  0  0
 14130  1  0  0  0  0
 15 64  2  0  0  0  0
 16 67  2  0  0  0  0
 17 25  1  0  0  0  0
 17 28  1  0  0  0  0
 17 29  1  0  0  0  0
 30 18  1  1  0  0  0
 18 37  1  0  0  0  0
 18 78  1  0  0  0  0
 19 20  1  0  0  0  0
 19 31  1  0  0  0  0
 19 88  1  0  0  0  0
 20 42  1  0  0  0  0
 20 46  1  0  0  0  0
 33 21  1  6  0  0  0
 21 43  1  0  0  0  0
 45 22  1  6  0  0  0
 22 56  1  0  0  0  0
 22106  1  0  0  0  0
 23 46  1  0  0  0  0
 54 23  1  6  0  0  0
 23107  1  0  0  0  0
 57 24  1  6  0  0  0
 24 67  1  0  0  0  0
 24120  1  0  0  0  0
 25 27  1  0  0  0  0
 25 31  1  1  0  0  0
 25 70  1  0  0  0  0
 26 27  1  0  0  0  0
 26 28  1  0  0  0  0
 26 71  1  0  0  0  0
 27 72  1  0  0  0  0
 27 73  1  0  0  0  0
 28 74  1  0  0  0  0
 28 75  1  0  0  0  0
 29 30  1  0  0  0  0
 30 32  1  0  0  0  0
 30 76  1  0  0  0  0
 32 35  1  0  0  0  0
 32 36  1  0  0  0  0
 32 77  1  0  0  0  0
 33 37  1  0  0  0  0
 33 38  1  0  0  0  0
 33 79  1  0  0  0  0
 34 40  1  0  0  0  0
 34 80  1  0  0  0  0
 34 81  1  0  0  0  0
 35 82  1  0  0  0  0
 35 83  1  0  0  0  0
 35 84  1  0  0  0  0
 36 85  1  0  0  0  0
 36 86  1  0  0  0  0
 36 87  1  0  0  0  0
 38 39  1  0  0  0  0
 38 41  1  1  0  0  0
 38 89  1  0  0  0  0
 39 44  1  0  0  0  0
 39 90  1  0  0  0  0
 39 91  1  0  0  0  0
 40 47  2  0  0  0  0
 40 48  1  0  0  0  0
 41 92  1  0  0  0  0
 41 93  1  0  0  0  0
 41 94  1  0  0  0  0
 42 50  1  0  0  0  0
 42 95  1  0  0  0  0
 42 96  1  0  0  0  0
 43 45  1  0  0  0  0
 44 97  1  0  0  0  0
 44 98  1  0  0  0  0
 44 99  1  0  0  0  0
 45 49  1  0  0  0  0
 45100  1  0  0  0  0
 47 51  1  0  0  0  0
 47101  1  0  0  0  0
 48 52  2  0  0  0  0
 48102  1  0  0  0  0
 49 53  1  0  0  0  0
 49103  1  0  0  0  0
 49104  1  0  0  0  0
 51 55  2  0  0  0  0
 51108  1  0  0  0  0
 52 55  1  0  0  0  0
 52109  1  0  0  0  0
 53 60  1  0  0  0  0
 53110  1  0  0  0  0
 53111  1  0  0  0  0
 54 58  1  0  0  0  0
 54 59  1  0  0  0  0
 54112  1  0  0  0  0
 55113  1  0  0  0  0
 56 57  1  0  0  0  0
 57 61  1  0  0  0  0
 57114  1  0  0  0  0
 58 62  2  0  0  0  0
 58 63  1  0  0  0  0
 59115  1  0  0  0  0
 59116  1  0  0  0  0
 59117  1  0  0  0  0
 61 64  1  0  0  0  0
 61118  1  0  0  0  0
 61119  1  0  0  0  0
 62 65  1  0  0  0  0
 62121  1  0  0  0  0
 63 66  2  0  0  0  0
 63122  1  0  0  0  0
 65 68  2  0  0  0  0
 65124  1  0  0  0  0
 66 68  1  0  0  0  0
 66125  1  0  0  0  0
 67 69  1  0  0  0  0
 68126  1  0  0  0  0
 69127  1  0  0  0  0
 69128  1  0  0  0  0
 69129  1  0  0  0  0
M  END
> <PUBCHEM_COMPOUND_CID>
500616
> <PUBCHEM_COMPOUND_CANONICALIZED>
1
> <PUBCHEM_CACTVS_COMPLEXITY>
1800
> <PUBCHEM_CACTVS_HBOND_ACCEPTOR>
16
> <PUBCHEM_CACTVS_HBOND_DONOR>
8
> <PUBCHEM_CACTVS_ROTATABLE_BOND>
23
> <PUBCHEM_CACTVS_SUBSKEYS>
AAADcfB//YAAAAAAAAAAAAAAAAAAAWAAAAAwYAAAAAAAAAABQAAAHwAcCAAADTzhmBYzCIPyBgCIAiHSGACCAAAgAAA+qIGIDIiKZjqAsTmXcAh+1gOYqAe/16IOAAAAAAAAAAAAAAAAAAAAAAAAAAAAAA==
> <PUBCHEM_IUPAC_OPENEYE_NAME>
(4R)-4-[[(2S)-2-acetamido-3-carboxy-propanoyl]amino]-5-[[(1S,2S)-1-[[(1S)-1-[(2S,4R)-4-benzyloxy-2-[[[(1S)-1-phenylethyl]carbamoyl-(2,2,2-trifluoroethyl)amino]carbamoyl]pyrrolidine-1-carbonyl]-2-methyl-propyl]carbamoyl]-2-methyl-butyl]-hydroxy-amino]-5-oxo-pentanoic acid
> <PUBCHEM_IUPAC_CAS_NAME>
(4R)-4-[[(2S)-2-acetamido-3-carboxy-1-oxopropyl]amino]-5-[hydroxy-[(2S,3S)-3-methyl-1-[[(2S)-3-methyl-1-oxo-1-[(2S,4R)-2-[oxo-[2-[oxo-[[(1S)-1-phenylethyl]amino]methyl]-2-(2,2,2-trifluoroethyl)hydrazinyl]methyl]-4-phenylmethoxy-1-pyrrolidinyl]butan-2-yl]amino]-1-oxopentan-2-yl]amino]-5-oxopentanoic acid
> <PUBCHEM_IUPAC_NAME_MARKUP>
(4<I>R</I>)-4-[[(2<I>S</I>)-2-acetamido-3-carboxypropanoyl]amino]-5-[hydroxy-[(2<I>S</I>,3<I>S</I>)-3-methyl-1-[[(2<I>S</I>)-3-methyl-1-oxo-1-[(2<I>S</I>,4<I>R</I>)-2-[[[(1<I>S</I>)-1-phenylethyl]carbamoyl-(2,2,2-trifluoroethyl)amino]carbamoyl]-4-phenylmethoxypyrrolidin-1-yl]butan-2-yl]amino]-1-oxopentan-2-yl]amino]-5-oxopentanoic acid
> <PUBCHEM_IUPAC_NAME>
(4R)-4-[[(2S)-2-acetamido-3-carboxypropanoyl]amino]-5-[hydroxy-[(2S,3S)-3-methyl-1-[[(2S)-3-methyl-1-oxo-1-[(2S,4R)-2-[[[(1S)-1-phenylethyl]carbamoyl-(2,2,2-trifluoroethyl)amino]carbamoyl]-4-phenylmethoxypyrrolidin-1-yl]butan-2-yl]amino]-1-oxopentan-2-yl]amino]-5-oxopentanoic acid
> <PUBCHEM_IUPAC_SYSTEMATIC_NAME>
(4R)-4-[[(2S)-2-acetamido-4-oxidanyl-4-oxidanylidene-butanoyl]amino]-5-[[(2S,3S)-3-methyl-1-[[(2S)-3-methyl-1-oxidanylidene-1-[(2S,4R)-2-[[[(1S)-1-phenylethyl]carbamoyl-[2,2,2-tris(fluoranyl)ethyl]amino]carbamoyl]-4-phenylmethoxy-pyrrolidin-1-yl]butan-2-yl]amino]-1-oxidanylidene-pentan-2-yl]-oxidanyl-amino]-5-oxidanylidene-pentanoic acid
> <PUBCHEM_IUPAC_TRADITIONAL_NAME>
(4R)-4-[[(2S)-2-acetamido-3-carboxy-propanoyl]amino]-5-[[(1S,2S)-1-[[(1S)-1-[(2S,4R)-4-benzoxy-2-[[[(1S)-1-phenylethyl]carbamoyl-(2,2,2-trifluoroethyl)amino]carbamoyl]pyrrolidine-1-carbonyl]-2-methyl-propyl]carbamoyl]-2-methyl-butyl]-hydroxy-amino]-5-keto-valeric acid
> <PUBCHEM_IUPAC_INCHI>
InChI=1S/C45H61F3N8O13/c1-7-26(4)38(56(68)42(65)32(18-19-35(58)59)51-39(62)33(21-36(60)61)50-28(6)57)41(64)52-37(25(2)3)43(66)54-22-31(69-23-29-14-10-8-11-15-29)20-34(54)40(63)53-55(24-45(46,47)48)44(67)49-27(5)30-16-12-9-13-17-30/h8-17,25-27,31-34,37-38,68H,7,18-24H2,1-6H3,(H,49,67)(H,50,57)(H,51,62)(H,52,64)(H,53,63)(H,58,59)(H,60,61)/t26-,27-,31+,32+,33-,34-,37-,38-/m0/s1
> <PUBCHEM_IUPAC_INCHIKEY>
PIBPNWVGDAWOFJ-OKIAJNCWSA-N
> <PUBCHEM_XLOGP3_AA>
2.8
> <PUBCHEM_EXACT_MASS>
978.43101852
> <PUBCHEM_MOLECULAR_FORMULA>
C45H61F3N8O13
> <PUBCHEM_MOLECULAR_WEIGHT>
979.0
> <PUBCHEM_OPENEYE_CAN_SMILES>
CCC(C)C(C(=O)NC(C(C)C)C(=O)N1CC(CC1C(=O)NN(CC(F)(F)F)C(=O)NC(C)C2=CC=CC=C2)OCC3=CC=CC=C3)N(C(=O)C(CCC(=O)O)NC(=O)C(CC(=O)O)NC(=O)C)O
> <PUBCHEM_OPENEYE_ISO_SMILES>
CC[C@H](C)[C@@H](C(=O)N[C@@H](C(C)C)C(=O)N1C[C@@H](C[C@H]1C(=O)NN(CC(F)(F)F)C(=O)N[C@@H](C)C2=CC=CC=C2)OCC3=CC=CC=C3)N(C(=O)[C@@H](CCC(=O)O)NC(=O)[C@H](CC(=O)O)NC(=O)C)O
> <PUBCHEM_CACTVS_TPSA>
293
> <PUBCHEM_MONOISOTOPIC_WEIGHT>
978.43101852
> <PUBCHEM_TOTAL_CHARGE>
0
> <PUBCHEM_HEAVY_ATOM_COUNT>
69
> <PUBCHEM_ATOM_DEF_STEREO_COUNT>
8
> <PUBCHEM_ATOM_UDEF_STEREO_COUNT>
0
> <PUBCHEM_BOND_DEF_STEREO_COUNT>
0
> <PUBCHEM_BOND_UDEF_STEREO_COUNT>
0
> <PUBCHEM_ISOTOPIC_ATOM_COUNT>
0
> <PUBCHEM_COMPONENT_COUNT>
1
> <PUBCHEM_CACTVS_TAUTO_COUNT>
-1
> <PUBCHEM_COORDINATE_TYPE>
1
5
255
> <PUBCHEM_BONDANNOTATIONS>
30  18  5
33  21  6
45  22  6
54  23  6
57  24  6
25  31  5
38  41  5
26  4  6
40  47  8
40  48  8
47  51  8
48  52  8
51  55  8
52  55  8
58  62  8
58  63  8
62  65  8
63  66  8
65  68  8
66  68  8
$$$$
