500615
  -OEChem-10302200282D
 92 94  0     1  0  0  0  0  0999 V2000
    9.7734    0.3063    0.0000 O   0  0  0  0  0  0  0  0  0  0  0  0
    5.4641    0.0744    0.0000 O   0  0  0  0  0  0  0  0  0  0  0  0
    6.3301   -3.4256    0.0000 O   0  0  0  0  0  0  0  0  0  0  0  0
    5.6065    1.4290    0.0000 O   0  0  0  0  0  0  0  0  0  0  0  0
    2.8660   -4.4256    0.0000 O   0  0  0  0  0  0  0  0  0  0  0  0
    7.1813    4.6725    0.0000 O   0  0  0  0  0  0  0  0  0  0  0  0
    5.6950    6.0108    0.0000 O   0  0  0  0  0  0  0  0  0  0  0  0
    4.5360    4.7236    0.0000 O   0  0  0  0  0  0  0  0  0  0  0  0
    7.1962    0.0744    0.0000 N   0  0  0  0  0  0  0  0  0  0  0  0
    5.4641   -1.9256    0.0000 N   0  0  0  0  0  0  0  0  0  0  0  0
    3.7320   -2.9256    0.0000 N   0  0  0  0  0  0  0  0  0  0  0  0
    6.7654    2.7162    0.0000 N   0  0  0  0  0  0  0  0  0  0  0  0
    6.0223    3.3853    0.0000 N   0  0  0  0  0  0  0  0  0  0  0  0
    4.5981   -4.4256    0.0000 C   0  0  0  0  0  0  0  0  0  0  0  0
    3.7320   -4.9256    0.0000 C   0  0  0  0  0  0  0  0  0  0  0  0
    5.4641   -4.9256    0.0000 C   0  0  0  0  0  0  0  0  0  0  0  0
    4.5981   -3.4256    0.0000 C   0  0  3  0  0  0  0  0  0  0  0  0
    3.7320   -5.9256    0.0000 C   0  0  0  0  0  0  0  0  0  0  0  0
    5.4641   -5.9256    0.0000 C   0  0  0  0  0  0  0  0  0  0  0  0
    7.3007    1.0689    0.0000 C   0  0  1  0  0  0  0  0  0  0  0  0
    4.5981   -6.4256    0.0000 C   0  0  0  0  0  0  0  0  0  0  0  0
    8.7788    0.4108    0.0000 C   0  0  2  0  0  0  0  0  0  0  0  0
    8.2788    1.2768    0.0000 C   0  0  0  0  0  0  0  0  0  0  0  0
    8.1097   -0.3323    0.0000 C   0  0  0  0  0  0  0  0  0  0  0  0
    6.3301   -1.4256    0.0000 C   0  0  2  0  0  0  0  0  0  0  0  0
    6.3301   -0.4256    0.0000 C   0  0  0  0  0  0  0  0  0  0  0  0
    5.4641   -2.9256    0.0000 C   0  0  0  0  0  0  0  0  0  0  0  0
    7.1962   -1.9256    0.0000 C   0  0  0  0  0  0  0  0  0  0  0  0
    6.5575    1.7380    0.0000 C   0  0  0  0  0  0  0  0  0  0  0  0
    7.1962   -2.9256    0.0000 C   0  0  0  0  0  0  0  0  0  0  0  0
    8.0622   -1.4256    0.0000 C   0  0  0  0  0  0  0  0  0  0  0  0
    2.8660   -3.4256    0.0000 C   0  0  0  0  0  0  0  0  0  0  0  0
   10.3611    1.1153    0.0000 C   0  0  0  0  0  0  0  0  0  0  0  0
   11.3557    1.0108    0.0000 C   0  0  0  0  0  0  0  0  0  0  0  0
    2.0000   -2.9256    0.0000 C   0  0  0  0  0  0  0  0  0  0  0  0
    5.0712    3.0763    0.0000 C   0  0  0  0  0  0  0  0  0  0  0  0
   11.7624    0.0972    0.0000 C   0  0  0  0  0  0  0  0  0  0  0  0
   11.9434    1.8198    0.0000 C   0  0  0  0  0  0  0  0  0  0  0  0
    6.2302    4.3635    0.0000 C   0  0  0  0  0  0  0  0  0  0  0  0
    4.3281    3.7454    0.0000 C   0  0  0  0  0  0  0  0  0  0  0  0
   12.7569   -0.0073    0.0000 C   0  0  0  0  0  0  0  0  0  0  0  0
   12.9380    1.7152    0.0000 C   0  0  0  0  0  0  0  0  0  0  0  0
    3.3770    3.4364    0.0000 C   0  0  0  0  0  0  0  0  0  0  0  0
   13.3447    0.8017    0.0000 C   0  0  0  0  0  0  0  0  0  0  0  0
    5.4871    5.0326    0.0000 C   0  0  0  0  0  0  0  0  0  0  0  0
    5.1350   -4.1156    0.0000 H   0  0  0  0  0  0  0  0  0  0  0  0
    3.5200   -4.3430    0.0000 H   0  0  0  0  0  0  0  0  0  0  0  0
    3.1215   -5.0333    0.0000 H   0  0  0  0  0  0  0  0  0  0  0  0
    6.0747   -5.0333    0.0000 H   0  0  0  0  0  0  0  0  0  0  0  0
    5.6762   -4.3430    0.0000 H   0  0  0  0  0  0  0  0  0  0  0  0
    4.5981   -2.8056    0.0000 H   0  0  0  0  0  0  0  0  0  0  0  0
    3.1215   -5.8180    0.0000 H   0  0  0  0  0  0  0  0  0  0  0  0
    3.5200   -6.5082    0.0000 H   0  0  0  0  0  0  0  0  0  0  0  0
    5.6762   -6.5082    0.0000 H   0  0  0  0  0  0  0  0  0  0  0  0
    6.0747   -5.8180    0.0000 H   0  0  0  0  0  0  0  0  0  0  0  0
    6.7219    0.8467    0.0000 H   0  0  0  0  0  0  0  0  0  0  0  0
    4.1996   -6.9006    0.0000 H   0  0  0  0  0  0  0  0  0  0  0  0
    4.9966   -6.9006    0.0000 H   0  0  0  0  0  0  0  0  0  0  0  0
    9.1165    0.9308    0.0000 H   0  0  0  0  0  0  0  0  0  0  0  0
    8.8452    1.5290    0.0000 H   0  0  0  0  0  0  0  0  0  0  0  0
    8.0872    1.8665    0.0000 H   0  0  0  0  0  0  0  0  0  0  0  0
    7.7997   -0.8693    0.0000 H   0  0  0  0  0  0  0  0  0  0  0  0
    8.6113   -0.6968    0.0000 H   0  0  0  0  0  0  0  0  0  0  0  0
    5.7932   -1.1156    0.0000 H   0  0  0  0  0  0  0  0  0  0  0  0
    6.6592   -2.2356    0.0000 H   0  0  0  0  0  0  0  0  0  0  0  0
    4.9272   -1.6156    0.0000 H   0  0  0  0  0  0  0  0  0  0  0  0
    3.7320   -2.3056    0.0000 H   0  0  0  0  0  0  0  0  0  0  0  0
    6.5762   -2.9256    0.0000 H   0  0  0  0  0  0  0  0  0  0  0  0
    7.1962   -3.5456    0.0000 H   0  0  0  0  0  0  0  0  0  0  0  0
    7.8162   -2.9256    0.0000 H   0  0  0  0  0  0  0  0  0  0  0  0
    8.3722   -1.9625    0.0000 H   0  0  0  0  0  0  0  0  0  0  0  0
    8.5991   -1.1156    0.0000 H   0  0  0  0  0  0  0  0  0  0  0  0
    7.7522   -0.8887    0.0000 H   0  0  0  0  0  0  0  0  0  0  0  0
   10.5320    1.7113    0.0000 H   0  0  0  0  0  0  0  0  0  0  0  0
    9.8039    1.3871    0.0000 H   0  0  0  0  0  0  0  0  0  0  0  0
    7.3551    2.9078    0.0000 H   0  0  0  0  0  0  0  0  0  0  0  0
    2.3100   -2.3887    0.0000 H   0  0  0  0  0  0  0  0  0  0  0  0
    1.4631   -2.6156    0.0000 H   0  0  0  0  0  0  0  0  0  0  0  0
    1.6900   -3.4625    0.0000 H   0  0  0  0  0  0  0  0  0  0  0  0
    4.5827    2.6946    0.0000 H   0  0  0  0  0  0  0  0  0  0  0  0
    5.3623    2.5289    0.0000 H   0  0  0  0  0  0  0  0  0  0  0  0
   11.3980   -0.4044    0.0000 H   0  0  0  0  0  0  0  0  0  0  0  0
   11.6913    2.3862    0.0000 H   0  0  0  0  0  0  0  0  0  0  0  0
    4.8167    4.1272    0.0000 H   0  0  0  0  0  0  0  0  0  0  0  0
    4.0370    4.2929    0.0000 H   0  0  0  0  0  0  0  0  0  0  0  0
   13.0091   -0.5737    0.0000 H   0  0  0  0  0  0  0  0  0  0  0  0
   13.3024    2.2168    0.0000 H   0  0  0  0  0  0  0  0  0  0  0  0
    3.1854    4.0261    0.0000 H   0  0  0  0  0  0  0  0  0  0  0  0
    2.7874    3.2448    0.0000 H   0  0  0  0  0  0  0  0  0  0  0  0
    3.5686    2.8468    0.0000 H   0  0  0  0  0  0  0  0  0  0  0  0
   13.9613    0.7369    0.0000 H   0  0  0  0  0  0  0  0  0  0  0  0
    5.2342    6.4256    0.0000 H   0  0  0  0  0  0  0  0  0  0  0  0
 22  1  1  1  0  0  0
  1 33  1  0  0  0  0
  2 26  2  0  0  0  0
  3 27  2  0  0  0  0
  4 29  2  0  0  0  0
  5 32  2  0  0  0  0
  6 39  2  0  0  0  0
  7 45  1  0  0  0  0
  7 92  1  0  0  0  0
  8 45  2  0  0  0  0
  9 20  1  0  0  0  0
  9 24  1  0  0  0  0
  9 26  1  0  0  0  0
 25 10  1  6  0  0  0
 10 27  1  0  0  0  0
 10 66  1  0  0  0  0
 11 17  1  0  0  0  0
 11 32  1  0  0  0  0
 11 67  1  0  0  0  0
 12 13  1  0  0  0  0
 12 29  1  0  0  0  0
 12 76  1  0  0  0  0
 13 36  1  0  0  0  0
 13 39  1  0  0  0  0
 14 15  1  0  0  0  0
 14 16  1  0  0  0  0
 14 17  1  0  0  0  0
 14 46  1  0  0  0  0
 15 18  1  0  0  0  0
 15 47  1  0  0  0  0
 15 48  1  0  0  0  0
 16 19  1  0  0  0  0
 16 49  1  0  0  0  0
 16 50  1  0  0  0  0
 17 27  1  0  0  0  0
 17 51  1  0  0  0  0
 18 21  1  0  0  0  0
 18 52  1  0  0  0  0
 18 53  1  0  0  0  0
 19 21  1  0  0  0  0
 19 54  1  0  0  0  0
 19 55  1  0  0  0  0
 20 23  1  0  0  0  0
 20 29  1  6  0  0  0
 20 56  1  0  0  0  0
 21 57  1  0  0  0  0
 21 58  1  0  0  0  0
 22 23  1  0  0  0  0
 22 24  1  0  0  0  0
 22 59  1  0  0  0  0
 23 60  1  0  0  0  0
 23 61  1  0  0  0  0
 24 62  1  0  0  0  0
 24 63  1  0  0  0  0
 25 26  1  0  0  0  0
 25 28  1  0  0  0  0
 25 64  1  0  0  0  0
 28 30  1  0  0  0  0
 28 31  1  0  0  0  0
 28 65  1  0  0  0  0
 30 68  1  0  0  0  0
 30 69  1  0  0  0  0
 30 70  1  0  0  0  0
 31 71  1  0  0  0  0
 31 72  1  0  0  0  0
 31 73  1  0  0  0  0
 32 35  1  0  0  0  0
 33 34  1  0  0  0  0
 33 74  1  0  0  0  0
 33 75  1  0  0  0  0
 34 37  2  0  0  0  0
 34 38  1  0  0  0  0
 35 77  1  0  0  0  0
 35 78  1  0  0  0  0
 35 79  1  0  0  0  0
 36 40  1  0  0  0  0
 36 80  1  0  0  0  0
 36 81  1  0  0  0  0
 37 41  1  0  0  0  0
 37 82  1  0  0  0  0
 38 42  2  0  0  0  0
 38 83  1  0  0  0  0
 39 45  1  0  0  0  0
 40 43  1  0  0  0  0
 40 84  1  0  0  0  0
 40 85  1  0  0  0  0
 41 44  2  0  0  0  0
 41 86  1  0  0  0  0
 42 44  1  0  0  0  0
 42 87  1  0  0  0  0
 43 88  1  0  0  0  0
 43 89  1  0  0  0  0
 43 90  1  0  0  0  0
 44 91  1  0  0  0  0
M  END
> <PUBCHEM_COMPOUND_CID>
500615
> <PUBCHEM_COMPOUND_CANONICALIZED>
1
> <PUBCHEM_CACTVS_COMPLEXITY>
1060
> <PUBCHEM_CACTVS_HBOND_ACCEPTOR>
8
> <PUBCHEM_CACTVS_HBOND_DONOR>
4
> <PUBCHEM_CACTVS_ROTATABLE_BOND>
13
> <PUBCHEM_CACTVS_SUBSKEYS>
AAADcfB/vAAAAAAAAAAAAAAAAAAAAWAAAAAwYAAAAAAAAAABAAAAHgAYCAAADTzhmAYyCIPiBgCIAiHSGAICAAAgAAAaqIHICIgKZjKAsTiXMAAm1gGYqAe6yaCOAAAAAAAAAAAAAAAAAAAAAAAAAAAAAA==
> <PUBCHEM_IUPAC_OPENEYE_NAME>
2-[[[(2S,4R)-1-[(2S)-2-[(2-acetamido-2-cyclohexyl-acetyl)amino]-3-methyl-butanoyl]-4-benzyloxy-pyrrolidine-2-carbonyl]amino]-propyl-amino]-2-oxo-acetic acid
> <PUBCHEM_IUPAC_CAS_NAME>
2-[[[[(2S,4R)-1-[(2S)-2-[(2-acetamido-2-cyclohexyl-1-oxoethyl)amino]-3-methyl-1-oxobutyl]-4-phenylmethoxy-2-pyrrolidinyl]-oxomethyl]amino]-propylamino]-2-oxoacetic acid
> <PUBCHEM_IUPAC_NAME_MARKUP>
2-[[[(2<I>S</I>,4<I>R</I>)-1-[(2<I>S</I>)-2-[(2-acetamido-2-cyclohexylacetyl)amino]-3-methylbutanoyl]-4-phenylmethoxypyrrolidine-2-carbonyl]amino]-propylamino]-2-oxoacetic acid
> <PUBCHEM_IUPAC_NAME>
2-[[[(2S,4R)-1-[(2S)-2-[(2-acetamido-2-cyclohexylacetyl)amino]-3-methylbutanoyl]-4-phenylmethoxypyrrolidine-2-carbonyl]amino]-propylamino]-2-oxoacetic acid
> <PUBCHEM_IUPAC_SYSTEMATIC_NAME>
2-[[[(2S,4R)-1-[(2S)-2-[(2-acetamido-2-cyclohexyl-ethanoyl)amino]-3-methyl-butanoyl]-4-phenylmethoxy-pyrrolidin-2-yl]carbonylamino]-propyl-amino]-2-oxidanylidene-ethanoic acid
> <PUBCHEM_IUPAC_TRADITIONAL_NAME>
2-[[[(2S,4R)-1-[(2S)-2-[(2-acetamido-2-cyclohexyl-acetyl)amino]-3-methyl-butanoyl]-4-benzoxy-prolyl]amino]-propyl-amino]-2-keto-acetic acid
> <PUBCHEM_IUPAC_INCHI>
InChI=1S/C32H47N5O8/c1-5-16-37(31(42)32(43)44)35-28(39)25-17-24(45-19-22-12-8-6-9-13-22)18-36(25)30(41)26(20(2)3)34-29(40)27(33-21(4)38)23-14-10-7-11-15-23/h6,8-9,12-13,20,23-27H,5,7,10-11,14-19H2,1-4H3,(H,33,38)(H,34,40)(H,35,39)(H,43,44)/t24-,25+,26+,27?/m1/s1
> <PUBCHEM_IUPAC_INCHIKEY>
JRBNYWOQSWOCNQ-RAMLRSSZSA-N
> <PUBCHEM_XLOGP3_AA>
4.2
> <PUBCHEM_EXACT_MASS>
629.34246347
> <PUBCHEM_MOLECULAR_FORMULA>
C32H47N5O8
> <PUBCHEM_MOLECULAR_WEIGHT>
629.7
> <PUBCHEM_OPENEYE_CAN_SMILES>
CCCN(C(=O)C(=O)O)NC(=O)C1CC(CN1C(=O)C(C(C)C)NC(=O)C(C2CCCCC2)NC(=O)C)OCC3=CC=CC=C3
> <PUBCHEM_OPENEYE_ISO_SMILES>
CCCN(C(=O)C(=O)O)NC(=O)[C@@H]1C[C@H](CN1C(=O)[C@H](C(C)C)NC(=O)C(C2CCCCC2)NC(=O)C)OCC3=CC=CC=C3
> <PUBCHEM_CACTVS_TPSA>
174
> <PUBCHEM_MONOISOTOPIC_WEIGHT>
629.34246347
> <PUBCHEM_TOTAL_CHARGE>
0
> <PUBCHEM_HEAVY_ATOM_COUNT>
45
> <PUBCHEM_ATOM_DEF_STEREO_COUNT>
3
> <PUBCHEM_ATOM_UDEF_STEREO_COUNT>
1
> <PUBCHEM_BOND_DEF_STEREO_COUNT>
0
> <PUBCHEM_BOND_UDEF_STEREO_COUNT>
0
> <PUBCHEM_ISOTOPIC_ATOM_COUNT>
0
> <PUBCHEM_COMPONENT_COUNT>
1
> <PUBCHEM_CACTVS_TAUTO_COUNT>
-1
> <PUBCHEM_COORDINATE_TYPE>
1
5
255
> <PUBCHEM_BONDANNOTATIONS>
22  1  5
25  10  6
17  27  3
20  29  6
34  37  8
34  38  8
37  41  8
38  42  8
41  44  8
42  44  8
$$$$
