500699
  -OEChem-10302200282D
 95 99  0     1  0  0  0  0  0999 V2000
   11.0928   -0.6622    0.0000 O   0  0  0  0  0  0  0  0  0  0  0  0
    9.6916    0.3558    0.0000 O   0  0  0  0  0  0  0  0  0  0  0  0
    4.6660   -1.0805    0.0000 O   0  0  0  0  0  0  0  0  0  0  0  0
    8.6970    0.4604    0.0000 O   0  0  0  0  0  0  0  0  0  0  0  0
    8.0160    1.6400    0.0000 O   0  0  0  0  0  0  0  0  0  0  0  0
    5.2581    3.9625    0.0000 O   0  0  0  0  0  0  0  0  0  0  0  0
    3.8569    2.9444    0.0000 O   0  0  0  0  0  0  0  0  0  0  0  0
    8.1301   -5.0805    0.0000 O   0  0  0  0  0  0  0  0  0  0  0  0
    8.5160   -1.2622    0.0000 N   0  0  0  0  0  0  0  0  0  0  0  0
    6.6147    0.6219    0.0000 N   0  0  0  0  0  0  0  0  0  0  0  0
    5.4392    2.2399    0.0000 N   0  0  0  0  0  0  0  0  0  0  0  0
    6.3981   -4.0805    0.0000 N   0  0  0  0  0  0  0  0  0  0  0  0
    4.6660   -4.0805    0.0000 N   0  0  0  0  0  0  0  0  0  0  0  0
    9.5105   -1.3667    0.0000 C   0  0  3  0  0  0  0  0  0  0  0  0
    9.4060   -2.3612    0.0000 C   0  0  2  0  0  0  0  0  0  0  0  0
   10.3195   -1.9545    0.0000 C   0  0  0  0  0  0  0  0  0  0  0  0
   10.0983   -0.5577    0.0000 C   0  0  0  0  0  0  0  0  0  0  0  0
    8.8182   -3.1703    0.0000 C   0  0  0  0  0  0  0  0  0  0  0  0
    7.1147   -0.2441    0.0000 C   0  0  2  0  0  0  0  0  0  0  0  0
    8.1093   -0.3487    0.0000 C   0  0  0  0  0  0  0  0  0  0  0  0
    6.4456   -0.9873    0.0000 C   0  0  0  0  0  0  0  0  0  0  0  0
    5.5321   -0.5805    0.0000 C   0  0  2  0  0  0  0  0  0  0  0  0
    5.6366    0.4140    0.0000 C   0  0  0  0  0  0  0  0  0  0  0  0
    7.0215    1.5354    0.0000 C   0  0  0  0  0  0  0  0  0  0  0  0
    9.2249   -4.0838    0.0000 C   0  0  0  0  0  0  0  0  0  0  0  0
    6.4337    2.3445    0.0000 C   0  0  2  0  0  0  0  0  0  0  0  0
    6.8404    3.2580    0.0000 C   0  0  0  0  0  0  0  0  0  0  0  0
    7.2472    4.1716    0.0000 C   0  0  0  0  0  0  0  0  0  0  0  0
    5.9269    3.6648    0.0000 C   0  0  0  0  0  0  0  0  0  0  0  0
    7.7540    2.8513    0.0000 C   0  0  0  0  0  0  0  0  0  0  0  0
    4.6660   -2.0805    0.0000 C   0  0  0  0  0  0  0  0  0  0  0  0
    3.8000   -2.5805    0.0000 C   0  0  0  0  0  0  0  0  0  0  0  0
    4.8514    3.0490    0.0000 C   0  0  0  0  0  0  0  0  0  0  0  0
    5.5321   -2.5805    0.0000 C   0  0  0  0  0  0  0  0  0  0  0  0
    5.5321   -3.5805    0.0000 C   0  0  0  0  0  0  0  0  0  0  0  0
    3.8000   -3.5805    0.0000 C   0  0  0  0  0  0  0  0  0  0  0  0
    2.9061   -2.0459    0.0000 C   0  0  0  0  0  0  0  0  0  0  0  0
    4.6703    4.7715    0.0000 C   0  0  0  0  0  0  0  0  0  0  0  0
    2.9061   -4.1152    0.0000 C   0  0  0  0  0  0  0  0  0  0  0  0
    7.2641   -3.5805    0.0000 C   0  0  0  0  0  0  0  0  0  0  0  0
    6.3981   -5.0805    0.0000 C   0  0  0  0  0  0  0  0  0  0  0  0
    2.0000   -2.5597    0.0000 C   0  0  0  0  0  0  0  0  0  0  0  0
    2.0000   -3.6014    0.0000 C   0  0  0  0  0  0  0  0  0  0  0  0
    8.1301   -4.0805    0.0000 C   0  0  0  0  0  0  0  0  0  0  0  0
    7.2641   -5.5805    0.0000 C   0  0  0  0  0  0  0  0  0  0  0  0
    4.0826    5.5805    0.0000 C   0  0  0  0  0  0  0  0  0  0  0  0
    5.4794    5.3593    0.0000 C   0  0  0  0  0  0  0  0  0  0  0  0
    3.8613    4.1837    0.0000 C   0  0  0  0  0  0  0  0  0  0  0  0
    9.7962   -2.8431    0.0000 H   0  0  0  0  0  0  0  0  0  0  0  0
   10.6662   -2.4685    0.0000 H   0  0  0  0  0  0  0  0  0  0  0  0
   10.7655   -1.5238    0.0000 H   0  0  0  0  0  0  0  0  0  0  0  0
    8.1516   -1.7638    0.0000 H   0  0  0  0  0  0  0  0  0  0  0  0
    8.2016   -3.1055    0.0000 H   0  0  0  0  0  0  0  0  0  0  0  0
    7.4524    0.2759    0.0000 H   0  0  0  0  0  0  0  0  0  0  0  0
    6.1356   -1.5242    0.0000 H   0  0  0  0  0  0  0  0  0  0  0  0
    6.9472   -1.3517    0.0000 H   0  0  0  0  0  0  0  0  0  0  0  0
    5.5645   -1.1997    0.0000 H   0  0  0  0  0  0  0  0  0  0  0  0
    5.5718    1.0306    0.0000 H   0  0  0  0  0  0  0  0  0  0  0  0
    5.0166    0.4140    0.0000 H   0  0  0  0  0  0  0  0  0  0  0  0
    8.8605   -4.5854    0.0000 H   0  0  0  0  0  0  0  0  0  0  0  0
    9.8415   -4.1486    0.0000 H   0  0  0  0  0  0  0  0  0  0  0  0
    6.1815    1.7781    0.0000 H   0  0  0  0  0  0  0  0  0  0  0  0
   11.4573   -0.1606    0.0000 H   0  0  0  0  0  0  0  0  0  0  0  0
    5.1870    1.6735    0.0000 H   0  0  0  0  0  0  0  0  0  0  0  0
    7.8136    3.9194    0.0000 H   0  0  0  0  0  0  0  0  0  0  0  0
    7.4993    4.7380    0.0000 H   0  0  0  0  0  0  0  0  0  0  0  0
    6.6808    4.4237    0.0000 H   0  0  0  0  0  0  0  0  0  0  0  0
    6.1791    4.2311    0.0000 H   0  0  0  0  0  0  0  0  0  0  0  0
    5.3605    3.9169    0.0000 H   0  0  0  0  0  0  0  0  0  0  0  0
    5.6747    3.0984    0.0000 H   0  0  0  0  0  0  0  0  0  0  0  0
    7.5018    2.2849    0.0000 H   0  0  0  0  0  0  0  0  0  0  0  0
    8.3204    2.5991    0.0000 H   0  0  0  0  0  0  0  0  0  0  0  0
    8.0062    3.4177    0.0000 H   0  0  0  0  0  0  0  0  0  0  0  0
    6.0690   -2.2705    0.0000 H   0  0  0  0  0  0  0  0  0  0  0  0
    2.9132   -1.4259    0.0000 H   0  0  0  0  0  0  0  0  0  0  0  0
    7.6626   -3.1056    0.0000 H   0  0  0  0  0  0  0  0  0  0  0  0
    6.8656   -3.1056    0.0000 H   0  0  0  0  0  0  0  0  0  0  0  0
    5.7875   -4.9729    0.0000 H   0  0  0  0  0  0  0  0  0  0  0  0
    6.1860   -5.6631    0.0000 H   0  0  0  0  0  0  0  0  0  0  0  0
    2.9132   -4.7352    0.0000 H   0  0  0  0  0  0  0  0  0  0  0  0
    1.4643   -2.2476    0.0000 H   0  0  0  0  0  0  0  0  0  0  0  0
    1.4643   -3.9134    0.0000 H   0  0  0  0  0  0  0  0  0  0  0  0
    8.7407   -4.1882    0.0000 H   0  0  0  0  0  0  0  0  0  0  0  0
    8.3422   -3.4979    0.0000 H   0  0  0  0  0  0  0  0  0  0  0  0
    6.8656   -6.0555    0.0000 H   0  0  0  0  0  0  0  0  0  0  0  0
    7.6626   -6.0555    0.0000 H   0  0  0  0  0  0  0  0  0  0  0  0
    4.5841    5.9450    0.0000 H   0  0  0  0  0  0  0  0  0  0  0  0
    3.7181    6.0821    0.0000 H   0  0  0  0  0  0  0  0  0  0  0  0
    3.5810    5.2161    0.0000 H   0  0  0  0  0  0  0  0  0  0  0  0
    5.8438    4.8577    0.0000 H   0  0  0  0  0  0  0  0  0  0  0  0
    5.9809    5.7237    0.0000 H   0  0  0  0  0  0  0  0  0  0  0  0
    5.1149    5.8609    0.0000 H   0  0  0  0  0  0  0  0  0  0  0  0
    3.4969    4.6853    0.0000 H   0  0  0  0  0  0  0  0  0  0  0  0
    3.3597    3.8193    0.0000 H   0  0  0  0  0  0  0  0  0  0  0  0
    4.2257    3.6821    0.0000 H   0  0  0  0  0  0  0  0  0  0  0  0
  1 17  1  0  0  0  0
  1 63  1  0  0  0  0
  2 17  2  0  0  0  0
 22  3  1  1  0  0  0
  3 31  1  0  0  0  0
  4 20  2  0  0  0  0
  5 24  2  0  0  0  0
  6 33  1  0  0  0  0
  6 38  1  0  0  0  0
  7 33  2  0  0  0  0
  8 44  1  0  0  0  0
  8 45  1  0  0  0  0
  9 14  1  0  0  0  0
  9 20  1  0  0  0  0
  9 52  1  0  0  0  0
 10 19  1  0  0  0  0
 10 23  1  0  0  0  0
 10 24  1  0  0  0  0
 26 11  1  1  0  0  0
 11 33  1  0  0  0  0
 11 64  1  0  0  0  0
 12 35  1  0  0  0  0
 12 40  1  0  0  0  0
 12 41  1  0  0  0  0
 13 35  2  0  0  0  0
 13 36  1  0  0  0  0
 14 15  1  0  0  0  0
 14 16  1  0  0  0  0
 14 17  1  0  0  0  0
 15 16  1  0  0  0  0
 15 18  1  6  0  0  0
 15 49  1  0  0  0  0
 16 50  1  0  0  0  0
 16 51  1  0  0  0  0
 18 25  2  0  0  0  0
 18 53  1  0  0  0  0
 19 20  1  6  0  0  0
 19 21  1  0  0  0  0
 19 54  1  0  0  0  0
 21 22  1  0  0  0  0
 21 55  1  0  0  0  0
 21 56  1  0  0  0  0
 22 23  1  0  0  0  0
 22 57  1  0  0  0  0
 23 58  1  0  0  0  0
 23 59  1  0  0  0  0
 24 26  1  0  0  0  0
 25 60  1  0  0  0  0
 25 61  1  0  0  0  0
 26 27  1  0  0  0  0
 26 62  1  0  0  0  0
 27 28  1  0  0  0  0
 27 29  1  0  0  0  0
 27 30  1  0  0  0  0
 28 65  1  0  0  0  0
 28 66  1  0  0  0  0
 28 67  1  0  0  0  0
 29 68  1  0  0  0  0
 29 69  1  0  0  0  0
 29 70  1  0  0  0  0
 30 71  1  0  0  0  0
 30 72  1  0  0  0  0
 30 73  1  0  0  0  0
 31 32  1  0  0  0  0
 31 34  2  0  0  0  0
 32 36  1  0  0  0  0
 32 37  2  0  0  0  0
 34 35  1  0  0  0  0
 34 74  1  0  0  0  0
 36 39  2  0  0  0  0
 37 42  1  0  0  0  0
 37 75  1  0  0  0  0
 38 46  1  0  0  0  0
 38 47  1  0  0  0  0
 38 48  1  0  0  0  0
 39 43  1  0  0  0  0
 39 80  1  0  0  0  0
 40 44  1  0  0  0  0
 40 76  1  0  0  0  0
 40 77  1  0  0  0  0
 41 45  1  0  0  0  0
 41 78  1  0  0  0  0
 41 79  1  0  0  0  0
 42 43  2  0  0  0  0
 42 81  1  0  0  0  0
 43 82  1  0  0  0  0
 44 83  1  0  0  0  0
 44 84  1  0  0  0  0
 45 85  1  0  0  0  0
 45 86  1  0  0  0  0
 46 87  1  0  0  0  0
 46 88  1  0  0  0  0
 46 89  1  0  0  0  0
 47 90  1  0  0  0  0
 47 91  1  0  0  0  0
 47 92  1  0  0  0  0
 48 93  1  0  0  0  0
 48 94  1  0  0  0  0
 48 95  1  0  0  0  0
M  END
> <PUBCHEM_COMPOUND_CID>
500699
> <PUBCHEM_COMPOUND_CANONICALIZED>
1
> <PUBCHEM_CACTVS_COMPLEXITY>
1230
> <PUBCHEM_CACTVS_HBOND_ACCEPTOR>
10
> <PUBCHEM_CACTVS_HBOND_DONOR>
3
> <PUBCHEM_CACTVS_ROTATABLE_BOND>
12
> <PUBCHEM_CACTVS_SUBSKEYS>
AAADcfB/vAAAAAAAAAAAAAAAGAAAAWAAAAA8WIAAAAAAAACx8AAAHgAQCAAAD/zhngYz/vPIFgCoAyfyfACCiCkhIiAJmKG+bJmOZvLEubufeCju1hvY6Ce6waAPAAAAAAACAAAAAAAAAAQAAAAAAAAAAA==
> <PUBCHEM_IUPAC_OPENEYE_NAME>
(2R)-1-[[(2S,4R)-1-[(2S)-2-(tert-butoxycarbonylamino)-3,3-dimethyl-butanoyl]-4-[(2-morpholino-4-quinolyl)oxy]pyrrolidine-2-carbonyl]amino]-2-vinyl-cyclopropanecarboxylic acid
> <PUBCHEM_IUPAC_CAS_NAME>
(2R)-1-[[[(2S,4R)-1-[(2S)-3,3-dimethyl-2-[[(2-methylpropan-2-yl)oxy-oxomethyl]amino]-1-oxobutyl]-4-[[2-(4-morpholinyl)-4-quinolinyl]oxy]-2-pyrrolidinyl]-oxomethyl]amino]-2-ethenyl-1-cyclopropanecarboxylic acid
> <PUBCHEM_IUPAC_NAME_MARKUP>
(2<I>R</I>)-1-[[(2<I>S</I>,4<I>R</I>)-1-[(2<I>S</I>)-3,3-dimethyl-2-[(2-methylpropan-2-yl)oxycarbonylamino]butanoyl]-4-(2-morpholin-4-ylquinolin-4-yl)oxypyrrolidine-2-carbonyl]amino]-2-ethenylcyclopropane-1-carboxylic acid
> <PUBCHEM_IUPAC_NAME>
(2R)-1-[[(2S,4R)-1-[(2S)-3,3-dimethyl-2-[(2-methylpropan-2-yl)oxycarbonylamino]butanoyl]-4-(2-morpholin-4-ylquinolin-4-yl)oxypyrrolidine-2-carbonyl]amino]-2-ethenylcyclopropane-1-carboxylic acid
> <PUBCHEM_IUPAC_SYSTEMATIC_NAME>
(2R)-1-[[(2S,4R)-1-[(2S)-3,3-dimethyl-2-[(2-methylpropan-2-yl)oxycarbonylamino]butanoyl]-4-(2-morpholin-4-ylquinolin-4-yl)oxy-pyrrolidin-2-yl]carbonylamino]-2-ethenyl-cyclopropane-1-carboxylic acid
> <PUBCHEM_IUPAC_TRADITIONAL_NAME>
(2R)-1-[[(2S,4R)-1-[(2S)-2-(tert-butoxycarbonylamino)-3,3-dimethyl-butanoyl]-4-[(2-morpholino-4-quinolyl)oxy]prolyl]amino]-2-vinyl-cyclopropanecarboxylic acid
> <PUBCHEM_IUPAC_INCHI>
InChI=1S/C35H47N5O8/c1-8-21-19-35(21,31(43)44)38-29(41)25-17-22(20-40(25)30(42)28(33(2,3)4)37-32(45)48-34(5,6)7)47-26-18-27(39-13-15-46-16-14-39)36-24-12-10-9-11-23(24)26/h8-12,18,21-22,25,28H,1,13-17,19-20H2,2-7H3,(H,37,45)(H,38,41)(H,43,44)/t21-,22+,25-,28+,35?/m0/s1
> <PUBCHEM_IUPAC_INCHIKEY>
TVRIMMZXVNOABB-NMARXOEHSA-N
> <PUBCHEM_XLOGP3_AA>
4.3
> <PUBCHEM_EXACT_MASS>
665.34246347
> <PUBCHEM_MOLECULAR_FORMULA>
C35H47N5O8
> <PUBCHEM_MOLECULAR_WEIGHT>
665.8
> <PUBCHEM_OPENEYE_CAN_SMILES>
CC(C)(C)C(C(=O)N1CC(CC1C(=O)NC2(CC2C=C)C(=O)O)OC3=CC(=NC4=CC=CC=C43)N5CCOCC5)NC(=O)OC(C)(C)C
> <PUBCHEM_OPENEYE_ISO_SMILES>
CC(C)(C)[C@@H](C(=O)N1C[C@@H](C[C@H]1C(=O)NC2(C[C@@H]2C=C)C(=O)O)OC3=CC(=NC4=CC=CC=C43)N5CCOCC5)NC(=O)OC(C)(C)C
> <PUBCHEM_CACTVS_TPSA>
160
> <PUBCHEM_MONOISOTOPIC_WEIGHT>
665.34246347
> <PUBCHEM_TOTAL_CHARGE>
0
> <PUBCHEM_HEAVY_ATOM_COUNT>
48
> <PUBCHEM_ATOM_DEF_STEREO_COUNT>
4
> <PUBCHEM_ATOM_UDEF_STEREO_COUNT>
1
> <PUBCHEM_BOND_DEF_STEREO_COUNT>
0
> <PUBCHEM_BOND_UDEF_STEREO_COUNT>
0
> <PUBCHEM_ISOTOPIC_ATOM_COUNT>
0
> <PUBCHEM_COMPONENT_COUNT>
1
> <PUBCHEM_CACTVS_TAUTO_COUNT>
-1
> <PUBCHEM_COORDINATE_TYPE>
1
5
255
> <PUBCHEM_BONDANNOTATIONS>
26  11  5
13  35  8
13  36  8
14  17  3
15  18  6
19  20  6
22  3  5
31  32  8
31  34  8
32  36  8
32  37  8
34  35  8
36  39  8
37  42  8
39  43  8
42  43  8
$$$$
