500624
  -OEChem-10302200282D
 86 90  0     1  0  0  0  0  0999 V2000
    7.8794    1.1201    0.0000 O   0  0  0  0  0  0  0  0  0  0  0  0
   12.1317   -3.6367    0.0000 O   0  0  0  0  0  0  0  0  0  0  0  0
    8.5604   -3.1413    0.0000 O   0  0  0  0  0  0  0  0  0  0  0  0
   11.9507   -1.9142    0.0000 O   0  0  0  0  0  0  0  0  0  0  0  0
    7.1983   -3.1413    0.0000 O   0  0  0  0  0  0  0  0  0  0  0  0
    3.9890   -0.1916    0.0000 O   0  0  0  0  0  0  0  0  0  0  0  0
    3.8080   -1.9142    0.0000 O   0  0  0  0  0  0  0  0  0  0  0  0
    9.9616   -2.1232    0.0000 N   0  0  0  0  0  0  0  0  0  0  0  0
    7.3794   -1.4187    0.0000 N   0  0  0  0  0  0  0  0  0  0  0  0
    5.3903   -1.2097    0.0000 N   0  0  0  0  0  0  0  0  0  0  0  0
   10.5494   -2.9322    0.0000 C   0  0  0  0  0  0  0  0  0  0  0  0
    9.7404   -3.5200    0.0000 C   0  0  0  0  0  0  0  0  0  0  0  0
   10.6540   -3.9267    0.0000 C   0  0  0  0  0  0  0  0  0  0  0  0
    8.3794   -1.4187    0.0000 C   0  0  1  0  0  0  0  0  0  0  0  0
    5.2092   -2.9322    0.0000 C   0  0  0  0  0  0  0  0  0  0  0  0
    8.6884   -0.4677    0.0000 C   0  0  0  0  0  0  0  0  0  0  0  0
    7.8794    0.1201    0.0000 C   0  0  2  0  0  0  0  0  0  0  0  0
    5.7970   -2.1232    0.0000 C   0  0  1  0  0  0  0  0  0  0  0  0
    7.0703   -0.4677    0.0000 C   0  0  0  0  0  0  0  0  0  0  0  0
    8.9671   -2.2277    0.0000 C   0  0  0  0  0  0  0  0  0  0  0  0
    4.2147   -2.8277    0.0000 C   0  0  0  0  0  0  0  0  0  0  0  0
    5.6160   -3.8458    0.0000 C   0  0  0  0  0  0  0  0  0  0  0  0
   11.5440   -2.8277    0.0000 C   0  0  0  0  0  0  0  0  0  0  0  0
    6.7916   -2.2277    0.0000 C   0  0  0  0  0  0  0  0  0  0  0  0
    3.6270   -3.6367    0.0000 C   0  0  0  0  0  0  0  0  0  0  0  0
    5.0282   -4.6548    0.0000 C   0  0  0  0  0  0  0  0  0  0  0  0
    4.0337   -4.5503    0.0000 C   0  0  0  0  0  0  0  0  0  0  0  0
    8.7454    1.6201    0.0000 C   0  0  0  0  0  0  0  0  0  0  0  0
    4.3958   -1.1051    0.0000 C   0  0  0  0  0  0  0  0  0  0  0  0
    8.7454    2.6201    0.0000 C   0  0  0  0  0  0  0  0  0  0  0  0
    2.9945   -0.0871    0.0000 C   0  0  0  0  0  0  0  0  0  0  0  0
    9.6114    3.1201    0.0000 C   0  0  0  0  0  0  0  0  0  0  0  0
    7.8794    3.1201    0.0000 C   0  0  0  0  0  0  0  0  0  0  0  0
    9.6114    4.1201    0.0000 C   0  0  0  0  0  0  0  0  0  0  0  0
    2.0000    0.0175    0.0000 C   0  0  0  0  0  0  0  0  0  0  0  0
    3.0990    0.9075    0.0000 C   0  0  0  0  0  0  0  0  0  0  0  0
    2.8900   -1.0816    0.0000 C   0  0  0  0  0  0  0  0  0  0  0  0
    7.8794    4.1201    0.0000 C   0  0  0  0  0  0  0  0  0  0  0  0
   10.5053    2.5855    0.0000 C   0  0  0  0  0  0  0  0  0  0  0  0
    8.7454    4.6201    0.0000 C   0  0  0  0  0  0  0  0  0  0  0  0
   10.5053    4.6548    0.0000 C   0  0  0  0  0  0  0  0  0  0  0  0
   11.4114    3.0993    0.0000 C   0  0  0  0  0  0  0  0  0  0  0  0
   11.4114    4.1409    0.0000 C   0  0  0  0  0  0  0  0  0  0  0  0
    9.2944   -3.0893    0.0000 H   0  0  0  0  0  0  0  0  0  0  0  0
    9.3937   -4.0340    0.0000 H   0  0  0  0  0  0  0  0  0  0  0  0
   10.5040   -4.5283    0.0000 H   0  0  0  0  0  0  0  0  0  0  0  0
   11.2725   -3.9700    0.0000 H   0  0  0  0  0  0  0  0  0  0  0  0
    8.0979   -1.9711    0.0000 H   0  0  0  0  0  0  0  0  0  0  0  0
    5.8259   -2.9970    0.0000 H   0  0  0  0  0  0  0  0  0  0  0  0
   10.2138   -1.5568    0.0000 H   0  0  0  0  0  0  0  0  0  0  0  0
    9.2548   -0.7198    0.0000 H   0  0  0  0  0  0  0  0  0  0  0  0
    8.9984    0.0693    0.0000 H   0  0  0  0  0  0  0  0  0  0  0  0
    7.3269    0.4016    0.0000 H   0  0  0  0  0  0  0  0  0  0  0  0
    6.1615   -1.6216    0.0000 H   0  0  0  0  0  0  0  0  0  0  0  0
    6.7603    0.0693    0.0000 H   0  0  0  0  0  0  0  0  0  0  0  0
    6.5039   -0.7198    0.0000 H   0  0  0  0  0  0  0  0  0  0  0  0
    4.3856   -2.2317    0.0000 H   0  0  0  0  0  0  0  0  0  0  0  0
    3.6575   -2.5559    0.0000 H   0  0  0  0  0  0  0  0  0  0  0  0
    6.0467   -4.2918    0.0000 H   0  0  0  0  0  0  0  0  0  0  0  0
    6.1300   -3.4991    0.0000 H   0  0  0  0  0  0  0  0  0  0  0  0
    3.1963   -3.1907    0.0000 H   0  0  0  0  0  0  0  0  0  0  0  0
    3.1129   -3.9834    0.0000 H   0  0  0  0  0  0  0  0  0  0  0  0
    4.8573   -5.2508    0.0000 H   0  0  0  0  0  0  0  0  0  0  0  0
    5.5855   -4.9266    0.0000 H   0  0  0  0  0  0  0  0  0  0  0  0
    3.4321   -4.7002    0.0000 H   0  0  0  0  0  0  0  0  0  0  0  0
    4.0769   -5.1688    0.0000 H   0  0  0  0  0  0  0  0  0  0  0  0
    5.7547   -0.7081    0.0000 H   0  0  0  0  0  0  0  0  0  0  0  0
   12.7483   -3.5719    0.0000 H   0  0  0  0  0  0  0  0  0  0  0  0
    8.9574    1.0375    0.0000 H   0  0  0  0  0  0  0  0  0  0  0  0
    9.3560    1.7278    0.0000 H   0  0  0  0  0  0  0  0  0  0  0  0
    7.3424    2.8101    0.0000 H   0  0  0  0  0  0  0  0  0  0  0  0
    2.0648    0.6341    0.0000 H   0  0  0  0  0  0  0  0  0  0  0  0
    1.3834    0.0823    0.0000 H   0  0  0  0  0  0  0  0  0  0  0  0
    1.9352   -0.5991    0.0000 H   0  0  0  0  0  0  0  0  0  0  0  0
    3.7156    0.8427    0.0000 H   0  0  0  0  0  0  0  0  0  0  0  0
    3.1639    1.5241    0.0000 H   0  0  0  0  0  0  0  0  0  0  0  0
    2.4824    0.9723    0.0000 H   0  0  0  0  0  0  0  0  0  0  0  0
    2.2734   -1.0168    0.0000 H   0  0  0  0  0  0  0  0  0  0  0  0
    2.8252   -1.6982    0.0000 H   0  0  0  0  0  0  0  0  0  0  0  0
    3.5066   -1.1464    0.0000 H   0  0  0  0  0  0  0  0  0  0  0  0
    7.3424    4.4301    0.0000 H   0  0  0  0  0  0  0  0  0  0  0  0
   10.4982    1.9655    0.0000 H   0  0  0  0  0  0  0  0  0  0  0  0
    8.7454    5.2401    0.0000 H   0  0  0  0  0  0  0  0  0  0  0  0
   10.4982    5.2747    0.0000 H   0  0  0  0  0  0  0  0  0  0  0  0
   11.9471    2.7872    0.0000 H   0  0  0  0  0  0  0  0  0  0  0  0
   11.9471    4.4530    0.0000 H   0  0  0  0  0  0  0  0  0  0  0  0
 17  1  1  6  0  0  0
  1 28  1  0  0  0  0
  2 23  1  0  0  0  0
  2 68  1  0  0  0  0
  3 20  2  0  0  0  0
  4 23  2  0  0  0  0
  5 24  2  0  0  0  0
  6 29  1  0  0  0  0
  6 31  1  0  0  0  0
  7 29  2  0  0  0  0
  8 11  1  0  0  0  0
  8 20  1  0  0  0  0
  8 50  1  0  0  0  0
  9 14  1  0  0  0  0
  9 19  1  0  0  0  0
  9 24  1  0  0  0  0
 18 10  1  6  0  0  0
 10 29  1  0  0  0  0
 10 67  1  0  0  0  0
 11 12  1  0  0  0  0
 11 13  1  0  0  0  0
 11 23  1  0  0  0  0
 12 13  1  0  0  0  0
 12 44  1  0  0  0  0
 12 45  1  0  0  0  0
 13 46  1  0  0  0  0
 13 47  1  0  0  0  0
 14 16  1  0  0  0  0
 14 20  1  1  0  0  0
 14 48  1  0  0  0  0
 15 18  1  0  0  0  0
 15 21  1  0  0  0  0
 15 22  1  0  0  0  0
 15 49  1  0  0  0  0
 16 17  1  0  0  0  0
 16 51  1  0  0  0  0
 16 52  1  0  0  0  0
 17 19  1  0  0  0  0
 17 53  1  0  0  0  0
 18 24  1  0  0  0  0
 18 54  1  0  0  0  0
 19 55  1  0  0  0  0
 19 56  1  0  0  0  0
 21 25  1  0  0  0  0
 21 57  1  0  0  0  0
 21 58  1  0  0  0  0
 22 26  1  0  0  0  0
 22 59  1  0  0  0  0
 22 60  1  0  0  0  0
 25 27  1  0  0  0  0
 25 61  1  0  0  0  0
 25 62  1  0  0  0  0
 26 27  1  0  0  0  0
 26 63  1  0  0  0  0
 26 64  1  0  0  0  0
 27 65  1  0  0  0  0
 27 66  1  0  0  0  0
 28 30  1  0  0  0  0
 28 69  1  0  0  0  0
 28 70  1  0  0  0  0
 30 32  1  0  0  0  0
 30 33  2  0  0  0  0
 31 35  1  0  0  0  0
 31 36  1  0  0  0  0
 31 37  1  0  0  0  0
 32 34  1  0  0  0  0
 32 39  2  0  0  0  0
 33 38  1  0  0  0  0
 33 71  1  0  0  0  0
 34 40  1  0  0  0  0
 34 41  2  0  0  0  0
 35 72  1  0  0  0  0
 35 73  1  0  0  0  0
 35 74  1  0  0  0  0
 36 75  1  0  0  0  0
 36 76  1  0  0  0  0
 36 77  1  0  0  0  0
 37 78  1  0  0  0  0
 37 79  1  0  0  0  0
 37 80  1  0  0  0  0
 38 40  2  0  0  0  0
 38 81  1  0  0  0  0
 39 42  1  0  0  0  0
 39 82  1  0  0  0  0
 40 83  1  0  0  0  0
 41 43  1  0  0  0  0
 41 84  1  0  0  0  0
 42 43  2  0  0  0  0
 42 85  1  0  0  0  0
 43 86  1  0  0  0  0
M  END
> <PUBCHEM_COMPOUND_CID>
500624
> <PUBCHEM_COMPOUND_CANONICALIZED>
1
> <PUBCHEM_CACTVS_COMPLEXITY>
1030
> <PUBCHEM_CACTVS_HBOND_ACCEPTOR>
7
> <PUBCHEM_CACTVS_HBOND_DONOR>
3
> <PUBCHEM_CACTVS_ROTATABLE_BOND>
11
> <PUBCHEM_CACTVS_SUBSKEYS>
AAADcfB/OAAAAAAAAAAAAAAAGAAAAWAAAAAwYMAAAAAAAADBUAAAHgAQCAAADfzhmAYyCMPABgCIAiHSGAACAAAgAAAIiIGICIkKZjKAsTifcAAm1gGYqAe6yeCOgAACAAAQAAAAAAQAACAAAAAAAAAAAA==
> <PUBCHEM_IUPAC_OPENEYE_NAME>
1-[[(2S,4R)-1-[(2S)-2-(tert-butoxycarbonylamino)-2-cyclohexyl-acetyl]-4-(1-naphthylmethoxy)pyrrolidine-2-carbonyl]amino]cyclopropanecarboxylic acid
> <PUBCHEM_IUPAC_CAS_NAME>
1-[[[(2S,4R)-1-[(2S)-2-cyclohexyl-2-[[(2-methylpropan-2-yl)oxy-oxomethyl]amino]-1-oxoethyl]-4-(1-naphthalenylmethoxy)-2-pyrrolidinyl]-oxomethyl]amino]-1-cyclopropanecarboxylic acid
> <PUBCHEM_IUPAC_NAME_MARKUP>
1-[[(2<I>S</I>,4<I>R</I>)-1-[(2<I>S</I>)-2-cyclohexyl-2-[(2-methylpropan-2-yl)oxycarbonylamino]acetyl]-4-(naphthalen-1-ylmethoxy)pyrrolidine-2-carbonyl]amino]cyclopropane-1-carboxylic acid
> <PUBCHEM_IUPAC_NAME>
1-[[(2S,4R)-1-[(2S)-2-cyclohexyl-2-[(2-methylpropan-2-yl)oxycarbonylamino]acetyl]-4-(naphthalen-1-ylmethoxy)pyrrolidine-2-carbonyl]amino]cyclopropane-1-carboxylic acid
> <PUBCHEM_IUPAC_SYSTEMATIC_NAME>
1-[[(2S,4R)-1-[(2S)-2-cyclohexyl-2-[(2-methylpropan-2-yl)oxycarbonylamino]ethanoyl]-4-(naphthalen-1-ylmethoxy)pyrrolidin-2-yl]carbonylamino]cyclopropane-1-carboxylic acid
> <PUBCHEM_IUPAC_TRADITIONAL_NAME>
1-[[(2S,4R)-1-[(2S)-2-(tert-butoxycarbonylamino)-2-cyclohexyl-acetyl]-4-(1-naphthylmethoxy)prolyl]amino]cyclopropanecarboxylic acid
> <PUBCHEM_IUPAC_INCHI>
InChI=1S/C33H43N3O7/c1-32(2,3)43-31(41)34-27(22-11-5-4-6-12-22)29(38)36-19-24(18-26(36)28(37)35-33(16-17-33)30(39)40)42-20-23-14-9-13-21-10-7-8-15-25(21)23/h7-10,13-15,22,24,26-27H,4-6,11-12,16-20H2,1-3H3,(H,34,41)(H,35,37)(H,39,40)/t24-,26+,27+/m1/s1
> <PUBCHEM_IUPAC_INCHIKEY>
YPMIBCXISHQGCG-STXQHDJLSA-N
> <PUBCHEM_XLOGP3_AA>
5
> <PUBCHEM_EXACT_MASS>
593.31010072
> <PUBCHEM_MOLECULAR_FORMULA>
C33H43N3O7
> <PUBCHEM_MOLECULAR_WEIGHT>
593.7
> <PUBCHEM_OPENEYE_CAN_SMILES>
CC(C)(C)OC(=O)NC(C1CCCCC1)C(=O)N2CC(CC2C(=O)NC3(CC3)C(=O)O)OCC4=CC=CC5=CC=CC=C54
> <PUBCHEM_OPENEYE_ISO_SMILES>
CC(C)(C)OC(=O)N[C@@H](C1CCCCC1)C(=O)N2C[C@@H](C[C@H]2C(=O)NC3(CC3)C(=O)O)OCC4=CC=CC5=CC=CC=C54
> <PUBCHEM_CACTVS_TPSA>
134
> <PUBCHEM_MONOISOTOPIC_WEIGHT>
593.31010072
> <PUBCHEM_TOTAL_CHARGE>
0
> <PUBCHEM_HEAVY_ATOM_COUNT>
43
> <PUBCHEM_ATOM_DEF_STEREO_COUNT>
3
> <PUBCHEM_ATOM_UDEF_STEREO_COUNT>
0
> <PUBCHEM_BOND_DEF_STEREO_COUNT>
0
> <PUBCHEM_BOND_UDEF_STEREO_COUNT>
0
> <PUBCHEM_ISOTOPIC_ATOM_COUNT>
0
> <PUBCHEM_COMPONENT_COUNT>
1
> <PUBCHEM_CACTVS_TAUTO_COUNT>
-1
> <PUBCHEM_COORDINATE_TYPE>
1
5
255
> <PUBCHEM_BONDANNOTATIONS>
17  1  6
18  10  6
14  20  5
30  32  8
30  33  8
32  34  8
32  39  8
33  38  8
34  40  8
34  41  8
38  40  8
39  42  8
41  43  8
42  43  8
$$$$
