500696
  -OEChem-10302200282D
 98102  0     1  0  0  0  0  0999 V2000
    8.2417    5.6317    0.0000 O   0  0  0  0  0  0  0  0  0  0  0  0
    8.4227    3.9092    0.0000 O   0  0  0  0  0  0  0  0  0  0  0  0
    4.6660    0.2751    0.0000 O   0  0  0  0  0  0  0  0  0  0  0  0
    8.0160    2.9956    0.0000 O   0  0  0  0  0  0  0  0  0  0  0  0
    8.6970    1.8160    0.0000 O   0  0  0  0  0  0  0  0  0  0  0  0
    9.3295   -1.7336    0.0000 O   0  0  0  0  0  0  0  0  0  0  0  0
    7.7472   -2.4381    0.0000 O   0  0  0  0  0  0  0  0  0  0  0  0
    6.3981   -5.7249    0.0000 O   0  0  0  0  0  0  0  0  0  0  0  0
    6.4337    3.7001    0.0000 N   0  0  0  0  0  0  0  0  0  0  0  0
    7.1147    1.1115    0.0000 N   0  0  0  0  0  0  0  0  0  0  0  0
    7.9282   -0.7156    0.0000 N   0  0  0  0  0  0  0  0  0  0  0  0
    4.6660   -2.7249    0.0000 N   0  0  0  0  0  0  0  0  0  0  0  0
    6.3981   -3.7249    0.0000 N   0  0  0  0  0  0  0  0  0  0  0  0
    6.8404    4.6137    0.0000 C   0  0  3  0  0  0  0  0  0  0  0  0
    5.9269    5.0204    0.0000 C   0  0  2  0  0  0  0  0  0  0  0  0
    6.7359    5.6082    0.0000 C   0  0  0  0  0  0  0  0  0  0  0  0
    7.8350    4.7182    0.0000 C   0  0  0  0  0  0  0  0  0  0  0  0
    4.9324    4.9159    0.0000 C   0  0  0  0  0  0  0  0  0  0  0  0
    6.6147    1.9776    0.0000 C   0  0  2  0  0  0  0  0  0  0  0  0
    7.0215    2.8911    0.0000 C   0  0  0  0  0  0  0  0  0  0  0  0
    5.6366    1.7696    0.0000 C   0  0  0  0  0  0  0  0  0  0  0  0
    5.5321    0.7751    0.0000 C   0  0  2  0  0  0  0  0  0  0  0  0
    6.4456    0.3684    0.0000 C   0  0  0  0  0  0  0  0  0  0  0  0
    8.1093    1.0070    0.0000 C   0  0  0  0  0  0  0  0  0  0  0  0
    4.3446    5.7249    0.0000 C   0  0  0  0  0  0  0  0  0  0  0  0
    8.5160    0.0935    0.0000 C   0  0  2  0  0  0  0  0  0  0  0  0
    9.5105   -0.0111    0.0000 C   0  0  0  0  0  0  0  0  0  0  0  0
   10.5050   -0.1156    0.0000 C   0  0  0  0  0  0  0  0  0  0  0  0
    9.6150    0.9834    0.0000 C   0  0  0  0  0  0  0  0  0  0  0  0
    9.4060   -1.0056    0.0000 C   0  0  0  0  0  0  0  0  0  0  0  0
    4.6660   -0.7249    0.0000 C   0  0  0  0  0  0  0  0  0  0  0  0
    3.8000   -1.2249    0.0000 C   0  0  0  0  0  0  0  0  0  0  0  0
    8.3349   -1.6291    0.0000 C   0  0  0  0  0  0  0  0  0  0  0  0
    5.5321   -1.2249    0.0000 C   0  0  0  0  0  0  0  0  0  0  0  0
    5.5321   -2.2249    0.0000 C   0  0  0  0  0  0  0  0  0  0  0  0
    3.8000   -2.2249    0.0000 C   0  0  0  0  0  0  0  0  0  0  0  0
    2.9061   -0.6902    0.0000 C   0  0  0  0  0  0  0  0  0  0  0  0
    6.3981   -2.7249    0.0000 C   0  0  0  0  0  0  0  0  0  0  0  0
    9.7362   -2.6472    0.0000 C   0  0  0  0  0  0  0  0  0  0  0  0
    2.9061   -2.7595    0.0000 C   0  0  0  0  0  0  0  0  0  0  0  0
    2.0000   -1.2041    0.0000 C   0  0  0  0  0  0  0  0  0  0  0  0
    5.5321   -4.2249    0.0000 C   0  0  0  0  0  0  0  0  0  0  0  0
    7.2641   -4.2249    0.0000 C   0  0  0  0  0  0  0  0  0  0  0  0
    2.0000   -2.2457    0.0000 C   0  0  0  0  0  0  0  0  0  0  0  0
   10.1429   -3.5607    0.0000 C   0  0  0  0  0  0  0  0  0  0  0  0
   10.6497   -2.2404    0.0000 C   0  0  0  0  0  0  0  0  0  0  0  0
    8.8227   -3.0539    0.0000 C   0  0  0  0  0  0  0  0  0  0  0  0
    5.5321   -5.2249    0.0000 C   0  0  0  0  0  0  0  0  0  0  0  0
    7.2641   -5.2249    0.0000 C   0  0  0  0  0  0  0  0  0  0  0  0
    5.7047    5.5992    0.0000 H   0  0  0  0  0  0  0  0  0  0  0  0
    7.3319    5.7791    0.0000 H   0  0  0  0  0  0  0  0  0  0  0  0
    6.4641    6.1654    0.0000 H   0  0  0  0  0  0  0  0  0  0  0  0
    5.8171    3.6353    0.0000 H   0  0  0  0  0  0  0  0  0  0  0  0
    4.6802    4.3495    0.0000 H   0  0  0  0  0  0  0  0  0  0  0  0
    7.2339    2.0100    0.0000 H   0  0  0  0  0  0  0  0  0  0  0  0
    5.5718    2.3862    0.0000 H   0  0  0  0  0  0  0  0  0  0  0  0
    5.0166    1.7696    0.0000 H   0  0  0  0  0  0  0  0  0  0  0  0
    5.5645    0.1560    0.0000 H   0  0  0  0  0  0  0  0  0  0  0  0
    6.1356   -0.1686    0.0000 H   0  0  0  0  0  0  0  0  0  0  0  0
    6.9472    0.0040    0.0000 H   0  0  0  0  0  0  0  0  0  0  0  0
    4.5968    6.2913    0.0000 H   0  0  0  0  0  0  0  0  0  0  0  0
    3.7280    5.6601    0.0000 H   0  0  0  0  0  0  0  0  0  0  0  0
    7.8994    0.1583    0.0000 H   0  0  0  0  0  0  0  0  0  0  0  0
    8.8583    5.6965    0.0000 H   0  0  0  0  0  0  0  0  0  0  0  0
    7.3116   -0.6508    0.0000 H   0  0  0  0  0  0  0  0  0  0  0  0
   10.4402   -0.7322    0.0000 H   0  0  0  0  0  0  0  0  0  0  0  0
   11.1216   -0.1804    0.0000 H   0  0  0  0  0  0  0  0  0  0  0  0
   10.5698    0.5010    0.0000 H   0  0  0  0  0  0  0  0  0  0  0  0
   10.2316    0.9186    0.0000 H   0  0  0  0  0  0  0  0  0  0  0  0
    9.6798    1.6000    0.0000 H   0  0  0  0  0  0  0  0  0  0  0  0
    8.9984    1.0482    0.0000 H   0  0  0  0  0  0  0  0  0  0  0  0
    8.7894   -0.9408    0.0000 H   0  0  0  0  0  0  0  0  0  0  0  0
    9.3412   -1.6222    0.0000 H   0  0  0  0  0  0  0  0  0  0  0  0
   10.0226   -1.0704    0.0000 H   0  0  0  0  0  0  0  0  0  0  0  0
    6.0690   -0.9149    0.0000 H   0  0  0  0  0  0  0  0  0  0  0  0
    2.9132   -0.0703    0.0000 H   0  0  0  0  0  0  0  0  0  0  0  0
    7.0087   -2.8326    0.0000 H   0  0  0  0  0  0  0  0  0  0  0  0
    6.6101   -2.1423    0.0000 H   0  0  0  0  0  0  0  0  0  0  0  0
    2.9132   -3.3795    0.0000 H   0  0  0  0  0  0  0  0  0  0  0  0
    1.4643   -0.8920    0.0000 H   0  0  0  0  0  0  0  0  0  0  0  0
    5.3200   -3.6423    0.0000 H   0  0  0  0  0  0  0  0  0  0  0  0
    4.9215   -4.3326    0.0000 H   0  0  0  0  0  0  0  0  0  0  0  0
    7.8747   -4.3326    0.0000 H   0  0  0  0  0  0  0  0  0  0  0  0
    7.4762   -3.6423    0.0000 H   0  0  0  0  0  0  0  0  0  0  0  0
    1.4643   -2.5578    0.0000 H   0  0  0  0  0  0  0  0  0  0  0  0
    9.5765   -3.8129    0.0000 H   0  0  0  0  0  0  0  0  0  0  0  0
   10.3951   -4.1271    0.0000 H   0  0  0  0  0  0  0  0  0  0  0  0
   10.7093   -3.3086    0.0000 H   0  0  0  0  0  0  0  0  0  0  0  0
   10.9019   -2.8068    0.0000 H   0  0  0  0  0  0  0  0  0  0  0  0
   11.2161   -1.9883    0.0000 H   0  0  0  0  0  0  0  0  0  0  0  0
   10.3976   -1.6740    0.0000 H   0  0  0  0  0  0  0  0  0  0  0  0
    8.5705   -2.4875    0.0000 H   0  0  0  0  0  0  0  0  0  0  0  0
    8.2563   -3.3061    0.0000 H   0  0  0  0  0  0  0  0  0  0  0  0
    9.0748   -3.6203    0.0000 H   0  0  0  0  0  0  0  0  0  0  0  0
    4.9215   -5.1172    0.0000 H   0  0  0  0  0  0  0  0  0  0  0  0
    5.3200   -5.8075    0.0000 H   0  0  0  0  0  0  0  0  0  0  0  0
    7.4762   -5.8075    0.0000 H   0  0  0  0  0  0  0  0  0  0  0  0
    7.8747   -5.1172    0.0000 H   0  0  0  0  0  0  0  0  0  0  0  0
  1 17  1  0  0  0  0
  1 64  1  0  0  0  0
  2 17  2  0  0  0  0
 22  3  1  6  0  0  0
  3 31  1  0  0  0  0
  4 20  2  0  0  0  0
  5 24  2  0  0  0  0
  6 33  1  0  0  0  0
  6 39  1  0  0  0  0
  7 33  2  0  0  0  0
  8 48  1  0  0  0  0
  8 49  1  0  0  0  0
  9 14  1  0  0  0  0
  9 20  1  0  0  0  0
  9 53  1  0  0  0  0
 10 19  1  0  0  0  0
 10 23  1  0  0  0  0
 10 24  1  0  0  0  0
 26 11  1  6  0  0  0
 11 33  1  0  0  0  0
 11 65  1  0  0  0  0
 12 35  2  0  0  0  0
 12 36  1  0  0  0  0
 13 38  1  0  0  0  0
 13 42  1  0  0  0  0
 13 43  1  0  0  0  0
 14 15  1  0  0  0  0
 14 16  1  0  0  0  0
 14 17  1  0  0  0  0
 15 16  1  0  0  0  0
 15 18  1  1  0  0  0
 15 50  1  0  0  0  0
 16 51  1  0  0  0  0
 16 52  1  0  0  0  0
 18 25  2  0  0  0  0
 18 54  1  0  0  0  0
 19 20  1  1  0  0  0
 19 21  1  0  0  0  0
 19 55  1  0  0  0  0
 21 22  1  0  0  0  0
 21 56  1  0  0  0  0
 21 57  1  0  0  0  0
 22 23  1  0  0  0  0
 22 58  1  0  0  0  0
 23 59  1  0  0  0  0
 23 60  1  0  0  0  0
 24 26  1  0  0  0  0
 25 61  1  0  0  0  0
 25 62  1  0  0  0  0
 26 27  1  0  0  0  0
 26 63  1  0  0  0  0
 27 28  1  0  0  0  0
 27 29  1  0  0  0  0
 27 30  1  0  0  0  0
 28 66  1  0  0  0  0
 28 67  1  0  0  0  0
 28 68  1  0  0  0  0
 29 69  1  0  0  0  0
 29 70  1  0  0  0  0
 29 71  1  0  0  0  0
 30 72  1  0  0  0  0
 30 73  1  0  0  0  0
 30 74  1  0  0  0  0
 31 32  1  0  0  0  0
 31 34  2  0  0  0  0
 32 36  1  0  0  0  0
 32 37  2  0  0  0  0
 34 35  1  0  0  0  0
 34 75  1  0  0  0  0
 35 38  1  0  0  0  0
 36 40  2  0  0  0  0
 37 41  1  0  0  0  0
 37 76  1  0  0  0  0
 38 77  1  0  0  0  0
 38 78  1  0  0  0  0
 39 45  1  0  0  0  0
 39 46  1  0  0  0  0
 39 47  1  0  0  0  0
 40 44  1  0  0  0  0
 40 79  1  0  0  0  0
 41 44  2  0  0  0  0
 41 80  1  0  0  0  0
 42 48  1  0  0  0  0
 42 81  1  0  0  0  0
 42 82  1  0  0  0  0
 43 49  1  0  0  0  0
 43 83  1  0  0  0  0
 43 84  1  0  0  0  0
 44 85  1  0  0  0  0
 45 86  1  0  0  0  0
 45 87  1  0  0  0  0
 45 88  1  0  0  0  0
 46 89  1  0  0  0  0
 46 90  1  0  0  0  0
 46 91  1  0  0  0  0
 47 92  1  0  0  0  0
 47 93  1  0  0  0  0
 47 94  1  0  0  0  0
 48 95  1  0  0  0  0
 48 96  1  0  0  0  0
 49 97  1  0  0  0  0
 49 98  1  0  0  0  0
M  END
> <PUBCHEM_COMPOUND_CID>
500696
> <PUBCHEM_COMPOUND_CANONICALIZED>
1
> <PUBCHEM_CACTVS_COMPLEXITY>
1240
> <PUBCHEM_CACTVS_HBOND_ACCEPTOR>
10
> <PUBCHEM_CACTVS_HBOND_DONOR>
3
> <PUBCHEM_CACTVS_ROTATABLE_BOND>
13
> <PUBCHEM_CACTVS_SUBSKEYS>
AAADcfB/vAAAAAAAAAAAAAAAGAAAAWAAAAA8WIAAAAAAAACx8AAAHgAQCAAAD/zhngYyzvPIFgCoAyXyXACCiCAhIiAImKG+bJkOZvLEsbufeCjm1hnY6Ae6waAPAAAAAAACAAAAAAAAAAQAAAAAAAAAAA==
> <PUBCHEM_IUPAC_OPENEYE_NAME>
(2R)-1-[[(2S,4R)-1-[(2S)-2-(tert-butoxycarbonylamino)-3,3-dimethyl-butanoyl]-4-[[2-(morpholinomethyl)-4-quinolyl]oxy]pyrrolidine-2-carbonyl]amino]-2-vinyl-cyclopropanecarboxylic acid
> <PUBCHEM_IUPAC_CAS_NAME>
(2R)-1-[[[(2S,4R)-1-[(2S)-3,3-dimethyl-2-[[(2-methylpropan-2-yl)oxy-oxomethyl]amino]-1-oxobutyl]-4-[[2-(4-morpholinylmethyl)-4-quinolinyl]oxy]-2-pyrrolidinyl]-oxomethyl]amino]-2-ethenyl-1-cyclopropanecarboxylic acid
> <PUBCHEM_IUPAC_NAME_MARKUP>
(2<I>R</I>)-1-[[(2<I>S</I>,4<I>R</I>)-1-[(2<I>S</I>)-3,3-dimethyl-2-[(2-methylpropan-2-yl)oxycarbonylamino]butanoyl]-4-[2-(morpholin-4-ylmethyl)quinolin-4-yl]oxypyrrolidine-2-carbonyl]amino]-2-ethenylcyclopropane-1-carboxylic acid
> <PUBCHEM_IUPAC_NAME>
(2R)-1-[[(2S,4R)-1-[(2S)-3,3-dimethyl-2-[(2-methylpropan-2-yl)oxycarbonylamino]butanoyl]-4-[2-(morpholin-4-ylmethyl)quinolin-4-yl]oxypyrrolidine-2-carbonyl]amino]-2-ethenylcyclopropane-1-carboxylic acid
> <PUBCHEM_IUPAC_SYSTEMATIC_NAME>
(2R)-1-[[(2S,4R)-1-[(2S)-3,3-dimethyl-2-[(2-methylpropan-2-yl)oxycarbonylamino]butanoyl]-4-[2-(morpholin-4-ylmethyl)quinolin-4-yl]oxy-pyrrolidin-2-yl]carbonylamino]-2-ethenyl-cyclopropane-1-carboxylic acid
> <PUBCHEM_IUPAC_TRADITIONAL_NAME>
(2R)-1-[[(2S,4R)-1-[(2S)-2-(tert-butoxycarbonylamino)-3,3-dimethyl-butanoyl]-4-[[2-(morpholinomethyl)-4-quinolyl]oxy]prolyl]amino]-2-vinyl-cyclopropanecarboxylic acid
> <PUBCHEM_IUPAC_INCHI>
InChI=1S/C36H49N5O8/c1-8-22-19-36(22,32(44)45)39-30(42)27-18-24(21-41(27)31(43)29(34(2,3)4)38-33(46)49-35(5,6)7)48-28-17-23(20-40-13-15-47-16-14-40)37-26-12-10-9-11-25(26)28/h8-12,17,22,24,27,29H,1,13-16,18-21H2,2-7H3,(H,38,46)(H,39,42)(H,44,45)/t22-,24+,27-,29+,36?/m0/s1
> <PUBCHEM_IUPAC_INCHIKEY>
OBLHBQFSGUMIKZ-NMCINUODSA-N
> <PUBCHEM_XLOGP3_AA>
1.4
> <PUBCHEM_EXACT_MASS>
679.35811354
> <PUBCHEM_MOLECULAR_FORMULA>
C36H49N5O8
> <PUBCHEM_MOLECULAR_WEIGHT>
679.8
> <PUBCHEM_OPENEYE_CAN_SMILES>
CC(C)(C)C(C(=O)N1CC(CC1C(=O)NC2(CC2C=C)C(=O)O)OC3=CC(=NC4=CC=CC=C43)CN5CCOCC5)NC(=O)OC(C)(C)C
> <PUBCHEM_OPENEYE_ISO_SMILES>
CC(C)(C)[C@@H](C(=O)N1C[C@@H](C[C@H]1C(=O)NC2(C[C@@H]2C=C)C(=O)O)OC3=CC(=NC4=CC=CC=C43)CN5CCOCC5)NC(=O)OC(C)(C)C
> <PUBCHEM_CACTVS_TPSA>
160
> <PUBCHEM_MONOISOTOPIC_WEIGHT>
679.35811354
> <PUBCHEM_TOTAL_CHARGE>
0
> <PUBCHEM_HEAVY_ATOM_COUNT>
49
> <PUBCHEM_ATOM_DEF_STEREO_COUNT>
4
> <PUBCHEM_ATOM_UDEF_STEREO_COUNT>
1
> <PUBCHEM_BOND_DEF_STEREO_COUNT>
0
> <PUBCHEM_BOND_UDEF_STEREO_COUNT>
0
> <PUBCHEM_ISOTOPIC_ATOM_COUNT>
0
> <PUBCHEM_COMPONENT_COUNT>
1
> <PUBCHEM_CACTVS_TAUTO_COUNT>
-1
> <PUBCHEM_COORDINATE_TYPE>
1
5
255
> <PUBCHEM_BONDANNOTATIONS>
26  11  6
12  35  8
12  36  8
14  17  3
15  18  5
19  20  5
22  3  6
31  32  8
31  34  8
32  36  8
32  37  8
34  35  8
36  40  8
37  41  8
40  44  8
41  44  8
$$$$
