500613
  -OEChem-10302200282D
120121  0     1  0  0  0  0  0999 V2000
    7.2469   -3.2540    0.0000 O   0  0  0  0  0  0  0  0  0  0  0  0
    7.9280    1.0074    0.0000 O   0  0  0  0  0  0  0  0  0  0  0  0
    6.5659    1.0074    0.0000 O   0  0  0  0  0  0  0  0  0  0  0  0
   11.3183   -0.2197    0.0000 O   0  0  0  0  0  0  0  0  0  0  0  0
   12.9006    0.4848    0.0000 O   0  0  0  0  0  0  0  0  0  0  0  0
   12.6749    3.1209    0.0000 O   0  0  0  0  0  0  0  0  0  0  0  0
    3.1756   -0.2197    0.0000 O   0  0  0  0  0  0  0  0  0  0  0  0
    3.4013    2.4164    0.0000 O   0  0  0  0  0  0  0  0  0  0  0  0
   16.0652    1.8937    0.0000 O   0  0  0  0  0  0  0  0  0  0  0  0
   16.8787    0.0666    0.0000 O   0  0  0  0  0  0  0  0  0  0  0  0
   15.2964   -0.6378    0.0000 O   0  0  0  0  0  0  0  0  0  0  0  0
   16.0206    6.2524    0.0000 O   0  0  0  0  0  0  0  0  0  0  0  0
   17.4218    5.2343    0.0000 O   0  0  0  0  0  0  0  0  0  0  0  0
   17.0597    1.7892    0.0000 O   0  0  0  0  0  0  0  0  0  0  0  0
    7.7469   -0.7152    0.0000 N   0  0  0  0  0  0  0  0  0  0  0  0
    9.9170    0.7983    0.0000 N   0  0  0  0  0  0  0  0  0  0  0  0
    5.1646   -0.0107    0.0000 N   0  0  0  0  0  0  0  0  0  0  0  0
   12.4938    1.3983    0.0000 N   0  0  0  0  0  0  0  0  0  0  0  0
    4.5768    0.7983    0.0000 N   0  0  0  0  0  0  0  0  0  0  0  0
   14.6639    2.9118    0.0000 N   0  0  0  0  0  0  0  0  0  0  0  0
   17.2408    3.5118    0.0000 N   0  0  0  0  0  0  0  0  0  0  0  0
    6.7469   -0.7152    0.0000 C   0  0  1  0  0  0  0  0  0  0  0  0
    7.2469   -2.2540    0.0000 C   0  0  2  0  0  0  0  0  0  0  0  0
    6.4379   -1.6662    0.0000 C   0  0  0  0  0  0  0  0  0  0  0  0
    8.0559   -1.6662    0.0000 C   0  0  0  0  0  0  0  0  0  0  0  0
    9.3292   -0.0107    0.0000 C   0  0  2  0  0  0  0  0  0  0  0  0
    8.3347    0.0939    0.0000 C   0  0  0  0  0  0  0  0  0  0  0  0
    6.1591    0.0939    0.0000 C   0  0  0  0  0  0  0  0  0  0  0  0
    9.7360   -0.9242    0.0000 C   0  0  0  0  0  0  0  0  0  0  0  0
   11.4993    1.5028    0.0000 C   0  0  1  0  0  0  0  0  0  0  0  0
    6.3809   -3.7540    0.0000 C   0  0  0  0  0  0  0  0  0  0  0  0
   10.7305   -1.0287    0.0000 C   0  0  0  0  0  0  0  0  0  0  0  0
    9.1482   -1.7332    0.0000 C   0  0  0  0  0  0  0  0  0  0  0  0
   11.0926    2.4164    0.0000 C   0  0  2  0  0  0  0  0  0  0  0  0
   10.9115    0.6938    0.0000 C   0  0  0  0  0  0  0  0  0  0  0  0
   11.6804    3.2254    0.0000 C   0  0  0  0  0  0  0  0  0  0  0  0
    6.3809   -4.7540    0.0000 C   0  0  0  0  0  0  0  0  0  0  0  0
   10.0981    2.5209    0.0000 C   0  0  0  0  0  0  0  0  0  0  0  0
    4.9836    1.7119    0.0000 C   0  0  0  0  0  0  0  0  0  0  0  0
   13.0816    2.2073    0.0000 C   0  0  0  0  0  0  0  0  0  0  0  0
   14.0761    2.1028    0.0000 C   0  0  1  0  0  0  0  0  0  0  0  0
   11.2736    4.1389    0.0000 C   0  0  0  0  0  0  0  0  0  0  0  0
    3.5823    0.6938    0.0000 C   0  0  0  0  0  0  0  0  0  0  0  0
    5.5149   -5.2540    0.0000 C   0  0  0  0  0  0  0  0  0  0  0  0
    7.2469   -5.2540    0.0000 C   0  0  0  0  0  0  0  0  0  0  0  0
    4.3958    2.5209    0.0000 C   0  0  0  0  0  0  0  0  0  0  0  0
   14.4829    1.1892    0.0000 C   0  0  0  0  0  0  0  0  0  0  0  0
    5.5149   -6.2540    0.0000 C   0  0  0  0  0  0  0  0  0  0  0  0
    7.2469   -6.2540    0.0000 C   0  0  0  0  0  0  0  0  0  0  0  0
   15.4774    1.0847    0.0000 C   0  0  0  0  0  0  0  0  0  0  0  0
    2.9945    1.5028    0.0000 C   0  0  0  0  0  0  0  0  0  0  0  0
    4.8025    3.4345    0.0000 C   0  0  0  0  0  0  0  0  0  0  0  0
    6.3809   -6.7540    0.0000 C   0  0  0  0  0  0  0  0  0  0  0  0
   15.6585    2.8073    0.0000 C   0  0  0  0  0  0  0  0  0  0  0  0
   16.2462    3.6163    0.0000 C   0  0  2  0  0  0  0  0  0  0  0  0
    2.0000    1.3983    0.0000 C   0  0  0  0  0  0  0  0  0  0  0  0
   15.8841    0.1712    0.0000 C   0  0  0  0  0  0  0  0  0  0  0  0
   15.8395    4.5298    0.0000 C   0  0  0  0  0  0  0  0  0  0  0  0
   16.4273    5.3389    0.0000 C   0  0  0  0  0  0  0  0  0  0  0  0
   17.6475    2.5982    0.0000 C   0  0  0  0  0  0  0  0  0  0  0  0
   18.6420    2.4937    0.0000 C   0  0  0  0  0  0  0  0  0  0  0  0
    7.0284   -0.1627    0.0000 H   0  0  0  0  0  0  0  0  0  0  0  0
    7.7994   -2.5355    0.0000 H   0  0  0  0  0  0  0  0  0  0  0  0
    5.8715   -1.4140    0.0000 H   0  0  0  0  0  0  0  0  0  0  0  0
    6.1279   -2.2032    0.0000 H   0  0  0  0  0  0  0  0  0  0  0  0
    8.3659   -2.2032    0.0000 H   0  0  0  0  0  0  0  0  0  0  0  0
    8.6223   -1.4140    0.0000 H   0  0  0  0  0  0  0  0  0  0  0  0
    9.0770    0.5557    0.0000 H   0  0  0  0  0  0  0  0  0  0  0  0
    9.1194   -0.8594    0.0000 H   0  0  0  0  0  0  0  0  0  0  0  0
    9.6648    1.3647    0.0000 H   0  0  0  0  0  0  0  0  0  0  0  0
   11.7515    0.9364    0.0000 H   0  0  0  0  0  0  0  0  0  0  0  0
    6.1688   -3.1714    0.0000 H   0  0  0  0  0  0  0  0  0  0  0  0
    5.7703   -3.8617    0.0000 H   0  0  0  0  0  0  0  0  0  0  0  0
   10.6657   -1.6454    0.0000 H   0  0  0  0  0  0  0  0  0  0  0  0
   11.3471   -1.0936    0.0000 H   0  0  0  0  0  0  0  0  0  0  0  0
   10.7953   -0.4121    0.0000 H   0  0  0  0  0  0  0  0  0  0  0  0
    8.6466   -1.3688    0.0000 H   0  0  0  0  0  0  0  0  0  0  0  0
    8.7838   -2.2348    0.0000 H   0  0  0  0  0  0  0  0  0  0  0  0
    9.6498   -2.0977    0.0000 H   0  0  0  0  0  0  0  0  0  0  0  0
   10.8404    2.9828    0.0000 H   0  0  0  0  0  0  0  0  0  0  0  0
    4.9124   -0.5771    0.0000 H   0  0  0  0  0  0  0  0  0  0  0  0
   12.1111    2.7794    0.0000 H   0  0  0  0  0  0  0  0  0  0  0  0
   12.1944    3.5721    0.0000 H   0  0  0  0  0  0  0  0  0  0  0  0
   10.1629    3.1375    0.0000 H   0  0  0  0  0  0  0  0  0  0  0  0
    9.4815    2.5857    0.0000 H   0  0  0  0  0  0  0  0  0  0  0  0
   10.0333    1.9043    0.0000 H   0  0  0  0  0  0  0  0  0  0  0  0
    5.4976    1.3652    0.0000 H   0  0  0  0  0  0  0  0  0  0  0  0
    5.4142    2.1579    0.0000 H   0  0  0  0  0  0  0  0  0  0  0  0
   13.8240    2.6692    0.0000 H   0  0  0  0  0  0  0  0  0  0  0  0
   11.8400    4.3911    0.0000 H   0  0  0  0  0  0  0  0  0  0  0  0
   11.0215    4.7053    0.0000 H   0  0  0  0  0  0  0  0  0  0  0  0
   10.7072    3.8868    0.0000 H   0  0  0  0  0  0  0  0  0  0  0  0
    4.9779   -4.9440    0.0000 H   0  0  0  0  0  0  0  0  0  0  0  0
    7.7839   -4.9440    0.0000 H   0  0  0  0  0  0  0  0  0  0  0  0
    3.8818    2.8676    0.0000 H   0  0  0  0  0  0  0  0  0  0  0  0
    3.9651    2.0749    0.0000 H   0  0  0  0  0  0  0  0  0  0  0  0
   13.8813    1.0393    0.0000 H   0  0  0  0  0  0  0  0  0  0  0  0
   14.5261    0.5708    0.0000 H   0  0  0  0  0  0  0  0  0  0  0  0
   13.5172    0.4200    0.0000 H   0  0  0  0  0  0  0  0  0  0  0  0
   14.4118    3.4782    0.0000 H   0  0  0  0  0  0  0  0  0  0  0  0
    4.9779   -6.5640    0.0000 H   0  0  0  0  0  0  0  0  0  0  0  0
    7.7839   -6.5640    0.0000 H   0  0  0  0  0  0  0  0  0  0  0  0
   16.0790    1.2347    0.0000 H   0  0  0  0  0  0  0  0  0  0  0  0
   15.4342    1.7032    0.0000 H   0  0  0  0  0  0  0  0  0  0  0  0
    5.3689    3.1823    0.0000 H   0  0  0  0  0  0  0  0  0  0  0  0
    5.0547    4.0008    0.0000 H   0  0  0  0  0  0  0  0  0  0  0  0
    4.2361    3.6866    0.0000 H   0  0  0  0  0  0  0  0  0  0  0  0
    6.3809   -7.3740    0.0000 H   0  0  0  0  0  0  0  0  0  0  0  0
   16.4984    3.0499    0.0000 H   0  0  0  0  0  0  0  0  0  0  0  0
    1.9352    2.0149    0.0000 H   0  0  0  0  0  0  0  0  0  0  0  0
    1.3834    1.3335    0.0000 H   0  0  0  0  0  0  0  0  0  0  0  0
    2.0648    0.7817    0.0000 H   0  0  0  0  0  0  0  0  0  0  0  0
   15.4088    4.9758    0.0000 H   0  0  0  0  0  0  0  0  0  0  0  0
   15.3255    4.1832    0.0000 H   0  0  0  0  0  0  0  0  0  0  0  0
   17.6052    4.0134    0.0000 H   0  0  0  0  0  0  0  0  0  0  0  0
   17.1308   -0.4998    0.0000 H   0  0  0  0  0  0  0  0  0  0  0  0
   18.5772    1.8771    0.0000 H   0  0  0  0  0  0  0  0  0  0  0  0
   19.2586    2.4289    0.0000 H   0  0  0  0  0  0  0  0  0  0  0  0
   18.7068    3.1103    0.0000 H   0  0  0  0  0  0  0  0  0  0  0  0
   16.3850    6.7540    0.0000 H   0  0  0  0  0  0  0  0  0  0  0  0
 23  1  1  6  0  0  0
  1 31  1  0  0  0  0
  2 27  2  0  0  0  0
  3 28  2  0  0  0  0
  4 35  2  0  0  0  0
  5 18  1  0  0  0  0
  5 99  1  0  0  0  0
  6 40  2  0  0  0  0
  7 43  2  0  0  0  0
  8 51  2  0  0  0  0
  9 54  2  0  0  0  0
 10 57  1  0  0  0  0
 10116  1  0  0  0  0
 11 57  2  0  0  0  0
 12 59  1  0  0  0  0
 12120  1  0  0  0  0
 13 59  2  0  0  0  0
 14 60  2  0  0  0  0
 15 22  1  0  0  0  0
 15 25  1  0  0  0  0
 15 27  1  0  0  0  0
 26 16  1  1  0  0  0
 16 35  1  0  0  0  0
 16 70  1  0  0  0  0
 17 19  1  0  0  0  0
 17 28  1  0  0  0  0
 17 81  1  0  0  0  0
 30 18  1  6  0  0  0
 18 40  1  0  0  0  0
 19 39  1  0  0  0  0
 19 43  1  0  0  0  0
 41 20  1  6  0  0  0
 20 54  1  0  0  0  0
 20100  1  0  0  0  0
 55 21  1  6  0  0  0
 21 60  1  0  0  0  0
 21115  1  0  0  0  0
 22 24  1  0  0  0  0
 22 28  1  1  0  0  0
 22 62  1  0  0  0  0
 23 24  1  0  0  0  0
 23 25  1  0  0  0  0
 23 63  1  0  0  0  0
 24 64  1  0  0  0  0
 24 65  1  0  0  0  0
 25 66  1  0  0  0  0
 25 67  1  0  0  0  0
 26 27  1  0  0  0  0
 26 29  1  0  0  0  0
 26 68  1  0  0  0  0
 29 32  1  0  0  0  0
 29 33  1  0  0  0  0
 29 69  1  0  0  0  0
 30 34  1  0  0  0  0
 30 35  1  0  0  0  0
 30 71  1  0  0  0  0
 31 37  1  0  0  0  0
 31 72  1  0  0  0  0
 31 73  1  0  0  0  0
 32 74  1  0  0  0  0
 32 75  1  0  0  0  0
 32 76  1  0  0  0  0
 33 77  1  0  0  0  0
 33 78  1  0  0  0  0
 33 79  1  0  0  0  0
 34 36  1  0  0  0  0
 34 38  1  1  0  0  0
 34 80  1  0  0  0  0
 36 42  1  0  0  0  0
 36 82  1  0  0  0  0
 36 83  1  0  0  0  0
 37 44  2  0  0  0  0
 37 45  1  0  0  0  0
 38 84  1  0  0  0  0
 38 85  1  0  0  0  0
 38 86  1  0  0  0  0
 39 46  1  0  0  0  0
 39 87  1  0  0  0  0
 39 88  1  0  0  0  0
 40 41  1  0  0  0  0
 41 47  1  0  0  0  0
 41 89  1  0  0  0  0
 42 90  1  0  0  0  0
 42 91  1  0  0  0  0
 42 92  1  0  0  0  0
 43 51  1  0  0  0  0
 44 48  1  0  0  0  0
 44 93  1  0  0  0  0
 45 49  2  0  0  0  0
 45 94  1  0  0  0  0
 46 52  1  0  0  0  0
 46 95  1  0  0  0  0
 46 96  1  0  0  0  0
 47 50  1  0  0  0  0
 47 97  1  0  0  0  0
 47 98  1  0  0  0  0
 48 53  2  0  0  0  0
 48101  1  0  0  0  0
 49 53  1  0  0  0  0
 49102  1  0  0  0  0
 50 57  1  0  0  0  0
 50103  1  0  0  0  0
 50104  1  0  0  0  0
 51 56  1  0  0  0  0
 52105  1  0  0  0  0
 52106  1  0  0  0  0
 52107  1  0  0  0  0
 53108  1  0  0  0  0
 54 55  1  0  0  0  0
 55 58  1  0  0  0  0
 55109  1  0  0  0  0
 56110  1  0  0  0  0
 56111  1  0  0  0  0
 56112  1  0  0  0  0
 58 59  1  0  0  0  0
 58113  1  0  0  0  0
 58114  1  0  0  0  0
 60 61  1  0  0  0  0
 61117  1  0  0  0  0
 61118  1  0  0  0  0
 61119  1  0  0  0  0
M  END
> <PUBCHEM_COMPOUND_CID>
500613
> <PUBCHEM_COMPOUND_CANONICALIZED>
1
> <PUBCHEM_CACTVS_COMPLEXITY>
1600
> <PUBCHEM_CACTVS_HBOND_ACCEPTOR>
14
> <PUBCHEM_CACTVS_HBOND_DONOR>
7
> <PUBCHEM_CACTVS_ROTATABLE_BOND>
23
> <PUBCHEM_CACTVS_SUBSKEYS>
AAADcfB/vAAAAAAAAAAAAAAAAAAAAWAAAAAwAAAAAAAAAAABAAAAHgAcCAAADTzhmAYyCIPyBgCIAqHSGAACAAAgAAA6qIGICIgKZjqAsTiXcAAm1gGYqAe/1yIOAAAAAAAAAAAAAAAAAAAAAAAAAAAAAA==
> <PUBCHEM_IUPAC_OPENEYE_NAME>
(4R)-4-[[(2S)-2-acetamido-3-carboxy-propanoyl]amino]-5-[[(1S,2S)-1-[[(1S)-1-[(2S,4R)-4-benzyloxy-2-[[2-oxopropanoyl(propyl)amino]carbamoyl]pyrrolidine-1-carbonyl]-2-methyl-propyl]carbamoyl]-2-methyl-butyl]-hydroxy-amino]-5-oxo-pentanoic acid
> <PUBCHEM_IUPAC_CAS_NAME>
(4R)-4-[[(2S)-2-acetamido-3-carboxy-1-oxopropyl]amino]-5-[[(2S,3S)-1-[[(2S)-1-[(2S,4R)-2-[[2-(1,2-dioxopropyl)-2-propylhydrazinyl]-oxomethyl]-4-phenylmethoxy-1-pyrrolidinyl]-3-methyl-1-oxobutan-2-yl]amino]-3-methyl-1-oxopentan-2-yl]-hydroxyamino]-5-oxopentanoic acid
> <PUBCHEM_IUPAC_NAME_MARKUP>
(4<I>R</I>)-4-[[(2<I>S</I>)-2-acetamido-3-carboxypropanoyl]amino]-5-[hydroxy-[(2<I>S</I>,3<I>S</I>)-3-methyl-1-[[(2<I>S</I>)-3-methyl-1-oxo-1-[(2<I>S</I>,4<I>R</I>)-2-[[2-oxopropanoyl(propyl)amino]carbamoyl]-4-phenylmethoxypyrrolidin-1-yl]butan-2-yl]amino]-1-oxopentan-2-yl]amino]-5-oxopentanoic acid
> <PUBCHEM_IUPAC_NAME>
(4R)-4-[[(2S)-2-acetamido-3-carboxypropanoyl]amino]-5-[hydroxy-[(2S,3S)-3-methyl-1-[[(2S)-3-methyl-1-oxo-1-[(2S,4R)-2-[[2-oxopropanoyl(propyl)amino]carbamoyl]-4-phenylmethoxypyrrolidin-1-yl]butan-2-yl]amino]-1-oxopentan-2-yl]amino]-5-oxopentanoic acid
> <PUBCHEM_IUPAC_SYSTEMATIC_NAME>
(4R)-4-[[(2S)-2-acetamido-4-oxidanyl-4-oxidanylidene-butanoyl]amino]-5-[[(2S,3S)-3-methyl-1-[[(2S)-3-methyl-1-oxidanylidene-1-[(2S,4R)-2-[[2-oxidanylidenepropanoyl(propyl)amino]carbamoyl]-4-phenylmethoxy-pyrrolidin-1-yl]butan-2-yl]amino]-1-oxidanylidene-pentan-2-yl]-oxidanyl-amino]-5-oxidanylidene-pentanoic acid
> <PUBCHEM_IUPAC_TRADITIONAL_NAME>
(4R)-4-[[(2S)-2-acetamido-3-carboxy-propanoyl]amino]-5-[[(1S,2S)-1-[[(1S)-1-[(2S,4R)-4-benzoxy-2-[[propyl(pyruvoyl)amino]carbamoyl]pyrrolidine-1-carbonyl]-2-methyl-propyl]carbamoyl]-2-methyl-butyl]-hydroxy-amino]-5-keto-valeric acid
> <PUBCHEM_IUPAC_INCHI>
InChI=1S/C40H59N7O14/c1-8-17-46(38(57)24(6)48)44-36(55)30-18-27(61-21-26-13-11-10-12-14-26)20-45(30)40(59)33(22(3)4)43-37(56)34(23(5)9-2)47(60)39(58)28(15-16-31(50)51)42-35(54)29(19-32(52)53)41-25(7)49/h10-14,22-23,27-30,33-34,60H,8-9,15-21H2,1-7H3,(H,41,49)(H,42,54)(H,43,56)(H,44,55)(H,50,51)(H,52,53)/t23-,27+,28+,29-,30-,33-,34-/m0/s1
> <PUBCHEM_IUPAC_INCHIKEY>
CUXHGXUFXVRHAT-RTADNNTHSA-N
> <PUBCHEM_XLOGP3_AA>
1.2
> <PUBCHEM_EXACT_MASS>
861.41199958
> <PUBCHEM_MOLECULAR_FORMULA>
C40H59N7O14
> <PUBCHEM_MOLECULAR_WEIGHT>
861.9
> <PUBCHEM_OPENEYE_CAN_SMILES>
CCCN(C(=O)C(=O)C)NC(=O)C1CC(CN1C(=O)C(C(C)C)NC(=O)C(C(C)CC)N(C(=O)C(CCC(=O)O)NC(=O)C(CC(=O)O)NC(=O)C)O)OCC2=CC=CC=C2
> <PUBCHEM_OPENEYE_ISO_SMILES>
CCCN(C(=O)C(=O)C)NC(=O)[C@@H]1C[C@H](CN1C(=O)[C@H](C(C)C)NC(=O)[C@H]([C@@H](C)CC)N(C(=O)[C@@H](CCC(=O)O)NC(=O)[C@H](CC(=O)O)NC(=O)C)O)OCC2=CC=CC=C2
> <PUBCHEM_CACTVS_TPSA>
299
> <PUBCHEM_MONOISOTOPIC_WEIGHT>
861.41199958
> <PUBCHEM_TOTAL_CHARGE>
0
> <PUBCHEM_HEAVY_ATOM_COUNT>
61
> <PUBCHEM_ATOM_DEF_STEREO_COUNT>
7
> <PUBCHEM_ATOM_UDEF_STEREO_COUNT>
0
> <PUBCHEM_BOND_DEF_STEREO_COUNT>
0
> <PUBCHEM_BOND_UDEF_STEREO_COUNT>
0
> <PUBCHEM_ISOTOPIC_ATOM_COUNT>
0
> <PUBCHEM_COMPONENT_COUNT>
1
> <PUBCHEM_CACTVS_TAUTO_COUNT>
-1
> <PUBCHEM_COORDINATE_TYPE>
1
5
255
> <PUBCHEM_BONDANNOTATIONS>
23  1  6
26  16  5
30  18  6
41  20  6
55  21  6
22  28  5
34  38  5
37  44  8
37  45  8
44  48  8
45  49  8
48  53  8
49  53  8
$$$$
