500689
  -OEChem-10302200282D
100104  0     1  0  0  0  0  0999 V2000
   12.6438   -1.8535    0.0000 O   0  0  0  0  0  0  0  0  0  0  0  0
   11.0615   -2.5580    0.0000 O   0  0  0  0  0  0  0  0  0  0  0  0
    6.3981   -0.5492    0.0000 O   0  0  0  0  0  0  0  0  0  0  0  0
   10.4291    0.9917    0.0000 O   0  0  0  0  0  0  0  0  0  0  0  0
    9.7480    2.1713    0.0000 O   0  0  0  0  0  0  0  0  0  0  0  0
    5.5889    3.4758    0.0000 O   0  0  0  0  0  0  0  0  0  0  0  0
    6.9902    4.4938    0.0000 O   0  0  0  0  0  0  0  0  0  0  0  0
    4.6497   -4.5838    0.0000 O   0  0  0  0  0  0  0  0  0  0  0  0
    2.8680   -3.5734    0.0000 O   0  0  0  0  0  0  0  0  0  0  0  0
   10.2480   -0.7309    0.0000 N   0  0  0  0  0  0  0  0  0  0  0  0
    8.3468    1.1532    0.0000 N   0  0  0  0  0  0  0  0  0  0  0  0
    7.1712    2.7713    0.0000 N   0  0  0  0  0  0  0  0  0  0  0  0
    6.3981   -3.5492    0.0000 N   0  0  0  0  0  0  0  0  0  0  0  0
   11.2426   -0.8354    0.0000 C   0  0  3  0  0  0  0  0  0  0  0  0
   12.1561   -0.4287    0.0000 C   0  0  2  0  0  0  0  0  0  0  0  0
   11.3471    0.1591    0.0000 C   0  0  0  0  0  0  0  0  0  0  0  0
   11.6493   -1.7490    0.0000 C   0  0  0  0  0  0  0  0  0  0  0  0
   13.1506   -0.5332    0.0000 C   0  0  0  0  0  0  0  0  0  0  0  0
    8.8468    0.2872    0.0000 C   0  0  2  0  0  0  0  0  0  0  0  0
    9.8413    0.1827    0.0000 C   0  0  0  0  0  0  0  0  0  0  0  0
    8.1776   -0.4559    0.0000 C   0  0  0  0  0  0  0  0  0  0  0  0
    7.2641   -0.0492    0.0000 C   0  0  2  0  0  0  0  0  0  0  0  0
    7.3686    0.9453    0.0000 C   0  0  0  0  0  0  0  0  0  0  0  0
    8.7535    2.0668    0.0000 C   0  0  0  0  0  0  0  0  0  0  0  0
   13.7384    0.2758    0.0000 C   0  0  0  0  0  0  0  0  0  0  0  0
    8.1657    2.8758    0.0000 C   0  0  2  0  0  0  0  0  0  0  0  0
    8.5725    3.7893    0.0000 C   0  0  0  0  0  0  0  0  0  0  0  0
    8.9792    4.7029    0.0000 C   0  0  0  0  0  0  0  0  0  0  0  0
    7.6589    4.1961    0.0000 C   0  0  0  0  0  0  0  0  0  0  0  0
    9.4860    3.3826    0.0000 C   0  0  0  0  0  0  0  0  0  0  0  0
    6.3981   -1.5492    0.0000 C   0  0  0  0  0  0  0  0  0  0  0  0
    5.5320   -2.0492    0.0000 C   0  0  0  0  0  0  0  0  0  0  0  0
    6.5834    3.5803    0.0000 C   0  0  0  0  0  0  0  0  0  0  0  0
    7.2641   -2.0492    0.0000 C   0  0  0  0  0  0  0  0  0  0  0  0
    5.5320   -3.0492    0.0000 C   0  0  0  0  0  0  0  0  0  0  0  0
    7.2641   -3.0492    0.0000 C   0  0  0  0  0  0  0  0  0  0  0  0
    4.6381   -1.5146    0.0000 C   0  0  0  0  0  0  0  0  0  0  0  0
    5.0011    4.2848    0.0000 C   0  0  0  0  0  0  0  0  0  0  0  0
    4.6381   -3.5839    0.0000 C   0  0  0  0  0  0  0  0  0  0  0  0
    3.7320   -2.0284    0.0000 C   0  0  0  0  0  0  0  0  0  0  0  0
    8.1301   -3.5492    0.0000 C   0  0  0  0  0  0  0  0  0  0  0  0
    3.7320   -3.0700    0.0000 C   0  0  0  0  0  0  0  0  0  0  0  0
    4.4133    5.0938    0.0000 C   0  0  0  0  0  0  0  0  0  0  0  0
    4.1921    3.6970    0.0000 C   0  0  0  0  0  0  0  0  0  0  0  0
    5.8101    4.8726    0.0000 C   0  0  0  0  0  0  0  0  0  0  0  0
    8.9962   -3.0492    0.0000 C   0  0  0  0  0  0  0  0  0  0  0  0
    8.1301   -4.5492    0.0000 C   0  0  0  0  0  0  0  0  0  0  0  0
    9.8622   -3.5492    0.0000 C   0  0  0  0  0  0  0  0  0  0  0  0
    8.9962   -5.0492    0.0000 C   0  0  0  0  0  0  0  0  0  0  0  0
    3.7895   -5.0938    0.0000 C   0  0  0  0  0  0  0  0  0  0  0  0
    9.8622   -4.5492    0.0000 C   0  0  0  0  0  0  0  0  0  0  0  0
    2.0000   -3.0767    0.0000 C   0  0  0  0  0  0  0  0  0  0  0  0
   12.3783    0.1502    0.0000 H   0  0  0  0  0  0  0  0  0  0  0  0
   11.6189    0.7164    0.0000 H   0  0  0  0  0  0  0  0  0  0  0  0
   10.7511    0.3300    0.0000 H   0  0  0  0  0  0  0  0  0  0  0  0
    9.8836   -1.2325    0.0000 H   0  0  0  0  0  0  0  0  0  0  0  0
   13.4028   -1.0996    0.0000 H   0  0  0  0  0  0  0  0  0  0  0  0
    9.1844    0.8072    0.0000 H   0  0  0  0  0  0  0  0  0  0  0  0
    7.8676   -0.9929    0.0000 H   0  0  0  0  0  0  0  0  0  0  0  0
    8.6792   -0.8204    0.0000 H   0  0  0  0  0  0  0  0  0  0  0  0
    6.7441    0.2885    0.0000 H   0  0  0  0  0  0  0  0  0  0  0  0
    7.3038    1.5619    0.0000 H   0  0  0  0  0  0  0  0  0  0  0  0
    6.7486    0.9453    0.0000 H   0  0  0  0  0  0  0  0  0  0  0  0
   14.3550    0.2110    0.0000 H   0  0  0  0  0  0  0  0  0  0  0  0
   13.4862    0.8422    0.0000 H   0  0  0  0  0  0  0  0  0  0  0  0
    7.8013    3.3774    0.0000 H   0  0  0  0  0  0  0  0  0  0  0  0
   12.8960   -2.4199    0.0000 H   0  0  0  0  0  0  0  0  0  0  0  0
    6.9190    2.2049    0.0000 H   0  0  0  0  0  0  0  0  0  0  0  0
    9.5456    4.4507    0.0000 H   0  0  0  0  0  0  0  0  0  0  0  0
    9.2314    5.2693    0.0000 H   0  0  0  0  0  0  0  0  0  0  0  0
    8.4128    4.9551    0.0000 H   0  0  0  0  0  0  0  0  0  0  0  0
    7.9111    4.7625    0.0000 H   0  0  0  0  0  0  0  0  0  0  0  0
    7.0925    4.4482    0.0000 H   0  0  0  0  0  0  0  0  0  0  0  0
    7.4067    3.6297    0.0000 H   0  0  0  0  0  0  0  0  0  0  0  0
    9.2338    2.8162    0.0000 H   0  0  0  0  0  0  0  0  0  0  0  0
   10.0524    3.1304    0.0000 H   0  0  0  0  0  0  0  0  0  0  0  0
    9.7382    3.9490    0.0000 H   0  0  0  0  0  0  0  0  0  0  0  0
    7.8010   -1.7392    0.0000 H   0  0  0  0  0  0  0  0  0  0  0  0
    4.6453   -0.8946    0.0000 H   0  0  0  0  0  0  0  0  0  0  0  0
    3.1963   -1.7163    0.0000 H   0  0  0  0  0  0  0  0  0  0  0  0
    4.9149    5.4582    0.0000 H   0  0  0  0  0  0  0  0  0  0  0  0
    4.0489    5.5954    0.0000 H   0  0  0  0  0  0  0  0  0  0  0  0
    3.9117    4.7294    0.0000 H   0  0  0  0  0  0  0  0  0  0  0  0
    3.8277    4.1986    0.0000 H   0  0  0  0  0  0  0  0  0  0  0  0
    3.6905    3.3326    0.0000 H   0  0  0  0  0  0  0  0  0  0  0  0
    4.5565    3.1954    0.0000 H   0  0  0  0  0  0  0  0  0  0  0  0
    6.1746    4.3710    0.0000 H   0  0  0  0  0  0  0  0  0  0  0  0
    6.3117    5.2370    0.0000 H   0  0  0  0  0  0  0  0  0  0  0  0
    5.4457    5.3741    0.0000 H   0  0  0  0  0  0  0  0  0  0  0  0
    8.9962   -2.4292    0.0000 H   0  0  0  0  0  0  0  0  0  0  0  0
    7.5932   -4.8592    0.0000 H   0  0  0  0  0  0  0  0  0  0  0  0
   10.3991   -3.2392    0.0000 H   0  0  0  0  0  0  0  0  0  0  0  0
    8.9962   -5.6692    0.0000 H   0  0  0  0  0  0  0  0  0  0  0  0
    3.4733   -4.5605    0.0000 H   0  0  0  0  0  0  0  0  0  0  0  0
    3.2562   -5.4100    0.0000 H   0  0  0  0  0  0  0  0  0  0  0  0
    4.1057   -5.6271    0.0000 H   0  0  0  0  0  0  0  0  0  0  0  0
   10.3991   -4.8592    0.0000 H   0  0  0  0  0  0  0  0  0  0  0  0
    2.3079   -2.5386    0.0000 H   0  0  0  0  0  0  0  0  0  0  0  0
    1.4619   -2.7688    0.0000 H   0  0  0  0  0  0  0  0  0  0  0  0
    1.6921   -3.6148    0.0000 H   0  0  0  0  0  0  0  0  0  0  0  0
  1 17  1  0  0  0  0
  1 67  1  0  0  0  0
  2 17  2  0  0  0  0
 22  3  1  1  0  0  0
  3 31  1  0  0  0  0
  4 20  2  0  0  0  0
  5 24  2  0  0  0  0
  6 33  1  0  0  0  0
  6 38  1  0  0  0  0
  7 33  2  0  0  0  0
  8 39  1  0  0  0  0
  8 50  1  0  0  0  0
  9 42  1  0  0  0  0
  9 52  1  0  0  0  0
 10 14  1  0  0  0  0
 10 20  1  0  0  0  0
 10 56  1  0  0  0  0
 11 19  1  0  0  0  0
 11 23  1  0  0  0  0
 11 24  1  0  0  0  0
 26 12  1  1  0  0  0
 12 33  1  0  0  0  0
 12 68  1  0  0  0  0
 13 35  1  0  0  0  0
 13 36  2  0  0  0  0
 14 15  1  0  0  0  0
 14 16  1  0  0  0  0
 14 17  1  0  0  0  0
 15 16  1  0  0  0  0
 15 18  1  6  0  0  0
 15 53  1  0  0  0  0
 16 54  1  0  0  0  0
 16 55  1  0  0  0  0
 18 25  2  0  0  0  0
 18 57  1  0  0  0  0
 19 20  1  6  0  0  0
 19 21  1  0  0  0  0
 19 58  1  0  0  0  0
 21 22  1  0  0  0  0
 21 59  1  0  0  0  0
 21 60  1  0  0  0  0
 22 23  1  0  0  0  0
 22 61  1  0  0  0  0
 23 62  1  0  0  0  0
 23 63  1  0  0  0  0
 24 26  1  0  0  0  0
 25 64  1  0  0  0  0
 25 65  1  0  0  0  0
 26 27  1  0  0  0  0
 26 66  1  0  0  0  0
 27 28  1  0  0  0  0
 27 29  1  0  0  0  0
 27 30  1  0  0  0  0
 28 69  1  0  0  0  0
 28 70  1  0  0  0  0
 28 71  1  0  0  0  0
 29 72  1  0  0  0  0
 29 73  1  0  0  0  0
 29 74  1  0  0  0  0
 30 75  1  0  0  0  0
 30 76  1  0  0  0  0
 30 77  1  0  0  0  0
 31 32  1  0  0  0  0
 31 34  2  0  0  0  0
 32 35  2  0  0  0  0
 32 37  1  0  0  0  0
 34 36  1  0  0  0  0
 34 78  1  0  0  0  0
 35 39  1  0  0  0  0
 36 41  1  0  0  0  0
 37 40  2  0  0  0  0
 37 79  1  0  0  0  0
 38 43  1  0  0  0  0
 38 44  1  0  0  0  0
 38 45  1  0  0  0  0
 39 42  2  0  0  0  0
 40 42  1  0  0  0  0
 40 80  1  0  0  0  0
 41 46  2  0  0  0  0
 41 47  1  0  0  0  0
 43 81  1  0  0  0  0
 43 82  1  0  0  0  0
 43 83  1  0  0  0  0
 44 84  1  0  0  0  0
 44 85  1  0  0  0  0
 44 86  1  0  0  0  0
 45 87  1  0  0  0  0
 45 88  1  0  0  0  0
 45 89  1  0  0  0  0
 46 48  1  0  0  0  0
 46 90  1  0  0  0  0
 47 49  2  0  0  0  0
 47 91  1  0  0  0  0
 48 51  2  0  0  0  0
 48 92  1  0  0  0  0
 49 51  1  0  0  0  0
 49 93  1  0  0  0  0
 50 94  1  0  0  0  0
 50 95  1  0  0  0  0
 50 96  1  0  0  0  0
 51 97  1  0  0  0  0
 52 98  1  0  0  0  0
 52 99  1  0  0  0  0
 52100  1  0  0  0  0
M  END
> <PUBCHEM_COMPOUND_CID>
500689
> <PUBCHEM_COMPOUND_CANONICALIZED>
1
> <PUBCHEM_CACTVS_COMPLEXITY>
1320
> <PUBCHEM_CACTVS_HBOND_ACCEPTOR>
10
> <PUBCHEM_CACTVS_HBOND_DONOR>
3
> <PUBCHEM_CACTVS_ROTATABLE_BOND>
14
> <PUBCHEM_CACTVS_SUBSKEYS>
AAADcfB/vAAAAAAAAAAAAAAAGAAAAWAAAAA8YIAAAAAAAACx9AAAHgAQCAAAD/zhngYyzvPIFgCoAyXyXASCiCAhYiAImKG/7JkPZvLEsbufeCrm1hna6Af68f8PIAABAgACUABAAAIEAASgAAAAAAAAAA==
> <PUBCHEM_IUPAC_OPENEYE_NAME>
(2R)-1-[[(2S,4R)-1-[(2S)-2-(tert-butoxycarbonylamino)-3,3-dimethyl-butanoyl]-4-[(7,8-dimethoxy-2-phenyl-4-quinolyl)oxy]pyrrolidine-2-carbonyl]amino]-2-vinyl-cyclopropanecarboxylic acid
> <PUBCHEM_IUPAC_CAS_NAME>
(2R)-1-[[[(2S,4R)-4-[(7,8-dimethoxy-2-phenyl-4-quinolinyl)oxy]-1-[(2S)-3,3-dimethyl-2-[[(2-methylpropan-2-yl)oxy-oxomethyl]amino]-1-oxobutyl]-2-pyrrolidinyl]-oxomethyl]amino]-2-ethenyl-1-cyclopropanecarboxylic acid
> <PUBCHEM_IUPAC_NAME_MARKUP>
(2<I>R</I>)-1-[[(2<I>S</I>,4<I>R</I>)-4-(7,8-dimethoxy-2-phenylquinolin-4-yl)oxy-1-[(2<I>S</I>)-3,3-dimethyl-2-[(2-methylpropan-2-yl)oxycarbonylamino]butanoyl]pyrrolidine-2-carbonyl]amino]-2-ethenylcyclopropane-1-carboxylic acid
> <PUBCHEM_IUPAC_NAME>
(2R)-1-[[(2S,4R)-4-(7,8-dimethoxy-2-phenylquinolin-4-yl)oxy-1-[(2S)-3,3-dimethyl-2-[(2-methylpropan-2-yl)oxycarbonylamino]butanoyl]pyrrolidine-2-carbonyl]amino]-2-ethenylcyclopropane-1-carboxylic acid
> <PUBCHEM_IUPAC_SYSTEMATIC_NAME>
(2R)-1-[[(2S,4R)-4-(7,8-dimethoxy-2-phenyl-quinolin-4-yl)oxy-1-[(2S)-3,3-dimethyl-2-[(2-methylpropan-2-yl)oxycarbonylamino]butanoyl]pyrrolidin-2-yl]carbonylamino]-2-ethenyl-cyclopropane-1-carboxylic acid
> <PUBCHEM_IUPAC_TRADITIONAL_NAME>
(2R)-1-[[(2S,4R)-1-[(2S)-2-(tert-butoxycarbonylamino)-3,3-dimethyl-butanoyl]-4-[(7,8-dimethoxy-2-phenyl-4-quinolyl)oxy]prolyl]amino]-2-vinyl-cyclopropanecarboxylic acid
> <PUBCHEM_IUPAC_INCHI>
InChI=1S/C39H48N4O9/c1-10-23-20-39(23,35(46)47)42-33(44)27-18-24(21-43(27)34(45)32(37(2,3)4)41-36(48)52-38(5,6)7)51-29-19-26(22-14-12-11-13-15-22)40-30-25(29)16-17-28(49-8)31(30)50-9/h10-17,19,23-24,27,32H,1,18,20-21H2,2-9H3,(H,41,48)(H,42,44)(H,46,47)/t23-,24+,27-,32+,39?/m0/s1
> <PUBCHEM_IUPAC_INCHIKEY>
UJEVUTAZZJRUDR-CMCIEQEGSA-N
> <PUBCHEM_XLOGP3_AA>
5.8
> <PUBCHEM_EXACT_MASS>
716.34212912
> <PUBCHEM_MOLECULAR_FORMULA>
C39H48N4O9
> <PUBCHEM_MOLECULAR_WEIGHT>
716.8
> <PUBCHEM_OPENEYE_CAN_SMILES>
CC(C)(C)C(C(=O)N1CC(CC1C(=O)NC2(CC2C=C)C(=O)O)OC3=CC(=NC4=C3C=CC(=C4OC)OC)C5=CC=CC=C5)NC(=O)OC(C)(C)C
> <PUBCHEM_OPENEYE_ISO_SMILES>
CC(C)(C)[C@@H](C(=O)N1C[C@@H](C[C@H]1C(=O)NC2(C[C@@H]2C=C)C(=O)O)OC3=CC(=NC4=C3C=CC(=C4OC)OC)C5=CC=CC=C5)NC(=O)OC(C)(C)C
> <PUBCHEM_CACTVS_TPSA>
166
> <PUBCHEM_MONOISOTOPIC_WEIGHT>
716.34212912
> <PUBCHEM_TOTAL_CHARGE>
0
> <PUBCHEM_HEAVY_ATOM_COUNT>
52
> <PUBCHEM_ATOM_DEF_STEREO_COUNT>
4
> <PUBCHEM_ATOM_UDEF_STEREO_COUNT>
1
> <PUBCHEM_BOND_DEF_STEREO_COUNT>
0
> <PUBCHEM_BOND_UDEF_STEREO_COUNT>
0
> <PUBCHEM_ISOTOPIC_ATOM_COUNT>
0
> <PUBCHEM_COMPONENT_COUNT>
1
> <PUBCHEM_CACTVS_TAUTO_COUNT>
-1
> <PUBCHEM_COORDINATE_TYPE>
1
5
255
> <PUBCHEM_BONDANNOTATIONS>
26  12  5
13  35  8
13  36  8
14  17  3
15  18  6
19  20  6
22  3  5
31  32  8
31  34  8
32  35  8
32  37  8
34  36  8
35  39  8
37  40  8
39  42  8
40  42  8
41  46  8
41  47  8
46  48  8
47  49  8
48  51  8
49  51  8
$$$$
