500626
  -OEChem-10302200282D
 90 95  0     1  0  0  0  0  0999 V2000
   10.2751    1.1201    0.0000 O   0  0  0  0  0  0  0  0  0  0  0  0
   14.5275   -3.6367    0.0000 O   0  0  0  0  0  0  0  0  0  0  0  0
   10.9562   -3.1413    0.0000 O   0  0  0  0  0  0  0  0  0  0  0  0
   14.3465   -1.9142    0.0000 O   0  0  0  0  0  0  0  0  0  0  0  0
    9.5941   -3.1413    0.0000 O   0  0  0  0  0  0  0  0  0  0  0  0
    3.4013    0.1220    0.0000 O   0  0  0  0  0  0  0  0  0  0  0  0
    3.2202   -1.6006    0.0000 O   0  0  0  0  0  0  0  0  0  0  0  0
   12.3574   -2.1232    0.0000 N   0  0  0  0  0  0  0  0  0  0  0  0
    9.7751   -1.4187    0.0000 N   0  0  0  0  0  0  0  0  0  0  0  0
    7.7861   -1.2097    0.0000 N   0  0  0  0  0  0  0  0  0  0  0  0
   12.9452   -2.9322    0.0000 C   0  0  0  0  0  0  0  0  0  0  0  0
   12.1362   -3.5200    0.0000 C   0  0  0  0  0  0  0  0  0  0  0  0
   13.0497   -3.9267    0.0000 C   0  0  0  0  0  0  0  0  0  0  0  0
   10.7751   -1.4187    0.0000 C   0  0  1  0  0  0  0  0  0  0  0  0
    7.6050   -2.9322    0.0000 C   0  0  0  0  0  0  0  0  0  0  0  0
   11.0841   -0.4677    0.0000 C   0  0  0  0  0  0  0  0  0  0  0  0
   10.2751    0.1201    0.0000 C   0  0  2  0  0  0  0  0  0  0  0  0
    8.1928   -2.1232    0.0000 C   0  0  1  0  0  0  0  0  0  0  0  0
    9.4661   -0.4677    0.0000 C   0  0  0  0  0  0  0  0  0  0  0  0
   11.3629   -2.2277    0.0000 C   0  0  0  0  0  0  0  0  0  0  0  0
    6.6105   -2.8277    0.0000 C   0  0  0  0  0  0  0  0  0  0  0  0
    8.0118   -3.8458    0.0000 C   0  0  0  0  0  0  0  0  0  0  0  0
   13.9397   -2.8277    0.0000 C   0  0  0  0  0  0  0  0  0  0  0  0
    9.1873   -2.2277    0.0000 C   0  0  0  0  0  0  0  0  0  0  0  0
    6.0227   -3.6367    0.0000 C   0  0  0  0  0  0  0  0  0  0  0  0
    7.4240   -4.6548    0.0000 C   0  0  0  0  0  0  0  0  0  0  0  0
    6.4295   -4.5503    0.0000 C   0  0  0  0  0  0  0  0  0  0  0  0
   11.1412    1.6201    0.0000 C   0  0  0  0  0  0  0  0  0  0  0  0
    6.7916   -1.1051    0.0000 C   0  0  0  0  0  0  0  0  0  0  0  0
   11.1412    2.6201    0.0000 C   0  0  0  0  0  0  0  0  0  0  0  0
    6.3848   -0.1916    0.0000 C   0  0  0  0  0  0  0  0  0  0  0  0
    6.2038   -1.9142    0.0000 C   0  0  0  0  0  0  0  0  0  0  0  0
   12.0072    3.1201    0.0000 C   0  0  0  0  0  0  0  0  0  0  0  0
    5.3903   -0.0871    0.0000 C   0  0  0  0  0  0  0  0  0  0  0  0
    5.2092   -1.8096    0.0000 C   0  0  0  0  0  0  0  0  0  0  0  0
   10.2751    3.1201    0.0000 C   0  0  0  0  0  0  0  0  0  0  0  0
    4.8025   -0.8961    0.0000 C   0  0  0  0  0  0  0  0  0  0  0  0
   12.0072    4.1201    0.0000 C   0  0  0  0  0  0  0  0  0  0  0  0
   10.2751    4.1201    0.0000 C   0  0  0  0  0  0  0  0  0  0  0  0
   12.9011    2.5855    0.0000 C   0  0  0  0  0  0  0  0  0  0  0  0
   11.1412    4.6201    0.0000 C   0  0  0  0  0  0  0  0  0  0  0  0
   12.9011    4.6548    0.0000 C   0  0  0  0  0  0  0  0  0  0  0  0
    3.8080   -0.7915    0.0000 C   0  0  0  0  0  0  0  0  0  0  0  0
   13.8072    3.0993    0.0000 C   0  0  0  0  0  0  0  0  0  0  0  0
   13.8072    4.1409    0.0000 C   0  0  0  0  0  0  0  0  0  0  0  0
    2.4067    0.2265    0.0000 C   0  0  0  0  0  0  0  0  0  0  0  0
    2.0000    1.1401    0.0000 C   0  0  0  0  0  0  0  0  0  0  0  0
   11.6902   -3.0893    0.0000 H   0  0  0  0  0  0  0  0  0  0  0  0
   11.7895   -4.0340    0.0000 H   0  0  0  0  0  0  0  0  0  0  0  0
   12.8998   -4.5283    0.0000 H   0  0  0  0  0  0  0  0  0  0  0  0
   13.6682   -3.9700    0.0000 H   0  0  0  0  0  0  0  0  0  0  0  0
   10.4937   -1.9711    0.0000 H   0  0  0  0  0  0  0  0  0  0  0  0
    7.3529   -2.3658    0.0000 H   0  0  0  0  0  0  0  0  0  0  0  0
   12.6096   -1.5568    0.0000 H   0  0  0  0  0  0  0  0  0  0  0  0
   11.6505   -0.7198    0.0000 H   0  0  0  0  0  0  0  0  0  0  0  0
   11.3941    0.0693    0.0000 H   0  0  0  0  0  0  0  0  0  0  0  0
   10.8276    0.4016    0.0000 H   0  0  0  0  0  0  0  0  0  0  0  0
    8.5572   -1.6216    0.0000 H   0  0  0  0  0  0  0  0  0  0  0  0
    9.1561    0.0693    0.0000 H   0  0  0  0  0  0  0  0  0  0  0  0
    8.8997   -0.7198    0.0000 H   0  0  0  0  0  0  0  0  0  0  0  0
    6.7814   -2.2317    0.0000 H   0  0  0  0  0  0  0  0  0  0  0  0
    6.0533   -2.5559    0.0000 H   0  0  0  0  0  0  0  0  0  0  0  0
    8.4425   -4.2918    0.0000 H   0  0  0  0  0  0  0  0  0  0  0  0
    8.5258   -3.4991    0.0000 H   0  0  0  0  0  0  0  0  0  0  0  0
    5.5920   -3.1907    0.0000 H   0  0  0  0  0  0  0  0  0  0  0  0
    5.5087   -3.9834    0.0000 H   0  0  0  0  0  0  0  0  0  0  0  0
    7.2531   -5.2508    0.0000 H   0  0  0  0  0  0  0  0  0  0  0  0
    7.9812   -4.9266    0.0000 H   0  0  0  0  0  0  0  0  0  0  0  0
    5.8279   -4.7002    0.0000 H   0  0  0  0  0  0  0  0  0  0  0  0
    6.4727   -5.1688    0.0000 H   0  0  0  0  0  0  0  0  0  0  0  0
    8.1505   -0.7081    0.0000 H   0  0  0  0  0  0  0  0  0  0  0  0
   15.1441   -3.5719    0.0000 H   0  0  0  0  0  0  0  0  0  0  0  0
   11.3532    1.0375    0.0000 H   0  0  0  0  0  0  0  0  0  0  0  0
   11.7517    1.7278    0.0000 H   0  0  0  0  0  0  0  0  0  0  0  0
    6.7492    0.3100    0.0000 H   0  0  0  0  0  0  0  0  0  0  0  0
    6.4559   -2.4806    0.0000 H   0  0  0  0  0  0  0  0  0  0  0  0
    5.1381    0.4793    0.0000 H   0  0  0  0  0  0  0  0  0  0  0  0
    4.8448   -2.3112    0.0000 H   0  0  0  0  0  0  0  0  0  0  0  0
    9.7382    2.8101    0.0000 H   0  0  0  0  0  0  0  0  0  0  0  0
    9.7382    4.4301    0.0000 H   0  0  0  0  0  0  0  0  0  0  0  0
   12.8939    1.9655    0.0000 H   0  0  0  0  0  0  0  0  0  0  0  0
   11.1412    5.2401    0.0000 H   0  0  0  0  0  0  0  0  0  0  0  0
   12.8940    5.2747    0.0000 H   0  0  0  0  0  0  0  0  0  0  0  0
   14.3429    2.7872    0.0000 H   0  0  0  0  0  0  0  0  0  0  0  0
   14.3429    4.4530    0.0000 H   0  0  0  0  0  0  0  0  0  0  0  0
    1.8052    0.0765    0.0000 H   0  0  0  0  0  0  0  0  0  0  0  0
    2.4500   -0.3920    0.0000 H   0  0  0  0  0  0  0  0  0  0  0  0
    2.5664    1.3922    0.0000 H   0  0  0  0  0  0  0  0  0  0  0  0
    1.7478    1.7065    0.0000 H   0  0  0  0  0  0  0  0  0  0  0  0
    1.4336    0.8879    0.0000 H   0  0  0  0  0  0  0  0  0  0  0  0
 17  1  1  6  0  0  0
  1 28  1  0  0  0  0
  2 23  1  0  0  0  0
  2 72  1  0  0  0  0
  3 20  2  0  0  0  0
  4 23  2  0  0  0  0
  5 24  2  0  0  0  0
  6 43  1  0  0  0  0
  6 46  1  0  0  0  0
  7 43  2  0  0  0  0
  8 11  1  0  0  0  0
  8 20  1  0  0  0  0
  8 54  1  0  0  0  0
  9 14  1  0  0  0  0
  9 19  1  0  0  0  0
  9 24  1  0  0  0  0
 18 10  1  6  0  0  0
 10 29  1  0  0  0  0
 10 71  1  0  0  0  0
 11 12  1  0  0  0  0
 11 13  1  0  0  0  0
 11 23  1  0  0  0  0
 12 13  1  0  0  0  0
 12 48  1  0  0  0  0
 12 49  1  0  0  0  0
 13 50  1  0  0  0  0
 13 51  1  0  0  0  0
 14 16  1  0  0  0  0
 14 20  1  1  0  0  0
 14 52  1  0  0  0  0
 15 18  1  0  0  0  0
 15 21  1  0  0  0  0
 15 22  1  0  0  0  0
 15 53  1  0  0  0  0
 16 17  1  0  0  0  0
 16 55  1  0  0  0  0
 16 56  1  0  0  0  0
 17 19  1  0  0  0  0
 17 57  1  0  0  0  0
 18 24  1  0  0  0  0
 18 58  1  0  0  0  0
 19 59  1  0  0  0  0
 19 60  1  0  0  0  0
 21 25  1  0  0  0  0
 21 61  1  0  0  0  0
 21 62  1  0  0  0  0
 22 26  1  0  0  0  0
 22 63  1  0  0  0  0
 22 64  1  0  0  0  0
 25 27  1  0  0  0  0
 25 65  1  0  0  0  0
 25 66  1  0  0  0  0
 26 27  1  0  0  0  0
 26 67  1  0  0  0  0
 26 68  1  0  0  0  0
 27 69  1  0  0  0  0
 27 70  1  0  0  0  0
 28 30  1  0  0  0  0
 28 73  1  0  0  0  0
 28 74  1  0  0  0  0
 29 31  2  0  0  0  0
 29 32  1  0  0  0  0
 30 33  1  0  0  0  0
 30 36  2  0  0  0  0
 31 34  1  0  0  0  0
 31 75  1  0  0  0  0
 32 35  2  0  0  0  0
 32 76  1  0  0  0  0
 33 38  1  0  0  0  0
 33 40  2  0  0  0  0
 34 37  2  0  0  0  0
 34 77  1  0  0  0  0
 35 37  1  0  0  0  0
 35 78  1  0  0  0  0
 36 39  1  0  0  0  0
 36 79  1  0  0  0  0
 37 43  1  0  0  0  0
 38 41  1  0  0  0  0
 38 42  2  0  0  0  0
 39 41  2  0  0  0  0
 39 80  1  0  0  0  0
 40 44  1  0  0  0  0
 40 81  1  0  0  0  0
 41 82  1  0  0  0  0
 42 45  1  0  0  0  0
 42 83  1  0  0  0  0
 44 45  2  0  0  0  0
 44 84  1  0  0  0  0
 45 85  1  0  0  0  0
 46 47  1  0  0  0  0
 46 86  1  0  0  0  0
 46 87  1  0  0  0  0
 47 88  1  0  0  0  0
 47 89  1  0  0  0  0
 47 90  1  0  0  0  0
M  END
> <PUBCHEM_COMPOUND_CID>
500626
> <PUBCHEM_COMPOUND_CANONICALIZED>
1
> <PUBCHEM_CACTVS_COMPLEXITY>
1110
> <PUBCHEM_CACTVS_HBOND_ACCEPTOR>
8
> <PUBCHEM_CACTVS_HBOND_DONOR>
3
> <PUBCHEM_CACTVS_ROTATABLE_BOND>
13
> <PUBCHEM_CACTVS_SUBSKEYS>
AAADcfB/OAAAAAAAAAAAAAAAGAAAAWAAAAAwYMGAAAAAAADBVAAAHgAQCAAADbzhmAYyyMPABgCIAiXSWACCAAAlAgAIiIGIbMgKZjLAtbmXcQhm1gHY6Ye62eOeiAACAAAQAAAQAAQAACAAAAAAAAAAAA==
> <PUBCHEM_IUPAC_OPENEYE_NAME>
1-[[(2S,4R)-1-[(2S)-2-cyclohexyl-2-(4-ethoxycarbonylanilino)acetyl]-4-(1-naphthylmethoxy)pyrrolidine-2-carbonyl]amino]cyclopropanecarboxylic acid
> <PUBCHEM_IUPAC_CAS_NAME>
1-[[[(2S,4R)-1-[(2S)-2-cyclohexyl-2-(4-ethoxycarbonylanilino)-1-oxoethyl]-4-(1-naphthalenylmethoxy)-2-pyrrolidinyl]-oxomethyl]amino]-1-cyclopropanecarboxylic acid
> <PUBCHEM_IUPAC_NAME_MARKUP>
1-[[(2<I>S</I>,4<I>R</I>)-1-[(2<I>S</I>)-2-cyclohexyl-2-(4-ethoxycarbonylanilino)acetyl]-4-(naphthalen-1-ylmethoxy)pyrrolidine-2-carbonyl]amino]cyclopropane-1-carboxylic acid
> <PUBCHEM_IUPAC_NAME>
1-[[(2S,4R)-1-[(2S)-2-cyclohexyl-2-(4-ethoxycarbonylanilino)acetyl]-4-(naphthalen-1-ylmethoxy)pyrrolidine-2-carbonyl]amino]cyclopropane-1-carboxylic acid
> <PUBCHEM_IUPAC_SYSTEMATIC_NAME>
1-[[(2S,4R)-1-[(2S)-2-cyclohexyl-2-[(4-ethoxycarbonylphenyl)amino]ethanoyl]-4-(naphthalen-1-ylmethoxy)pyrrolidin-2-yl]carbonylamino]cyclopropane-1-carboxylic acid
> <PUBCHEM_IUPAC_TRADITIONAL_NAME>
1-[[(2S,4R)-1-[(2S)-2-(4-carbethoxyanilino)-2-cyclohexyl-acetyl]-4-(1-naphthylmethoxy)prolyl]amino]cyclopropanecarboxylic acid
> <PUBCHEM_IUPAC_INCHI>
InChI=1S/C37H43N3O7/c1-2-46-35(43)26-15-17-28(18-16-26)38-32(25-10-4-3-5-11-25)34(42)40-22-29(21-31(40)33(41)39-37(19-20-37)36(44)45)47-23-27-13-8-12-24-9-6-7-14-30(24)27/h6-9,12-18,25,29,31-32,38H,2-5,10-11,19-23H2,1H3,(H,39,41)(H,44,45)/t29-,31+,32+/m1/s1
> <PUBCHEM_IUPAC_INCHIKEY>
YDLKGPMSEXWGHS-GHPAMLPFSA-N
> <PUBCHEM_XLOGP3_AA>
6.2
> <PUBCHEM_EXACT_MASS>
641.31010072
> <PUBCHEM_MOLECULAR_FORMULA>
C37H43N3O7
> <PUBCHEM_MOLECULAR_WEIGHT>
641.8
> <PUBCHEM_OPENEYE_CAN_SMILES>
CCOC(=O)C1=CC=C(C=C1)NC(C2CCCCC2)C(=O)N3CC(CC3C(=O)NC4(CC4)C(=O)O)OCC5=CC=CC6=CC=CC=C65
> <PUBCHEM_OPENEYE_ISO_SMILES>
CCOC(=O)C1=CC=C(C=C1)N[C@@H](C2CCCCC2)C(=O)N3C[C@@H](C[C@H]3C(=O)NC4(CC4)C(=O)O)OCC5=CC=CC6=CC=CC=C65
> <PUBCHEM_CACTVS_TPSA>
134
> <PUBCHEM_MONOISOTOPIC_WEIGHT>
641.31010072
> <PUBCHEM_TOTAL_CHARGE>
0
> <PUBCHEM_HEAVY_ATOM_COUNT>
47
> <PUBCHEM_ATOM_DEF_STEREO_COUNT>
3
> <PUBCHEM_ATOM_UDEF_STEREO_COUNT>
0
> <PUBCHEM_BOND_DEF_STEREO_COUNT>
0
> <PUBCHEM_BOND_UDEF_STEREO_COUNT>
0
> <PUBCHEM_ISOTOPIC_ATOM_COUNT>
0
> <PUBCHEM_COMPONENT_COUNT>
1
> <PUBCHEM_CACTVS_TAUTO_COUNT>
-1
> <PUBCHEM_COORDINATE_TYPE>
1
5
255
> <PUBCHEM_BONDANNOTATIONS>
17  1  6
18  10  6
14  20  5
29  31  8
29  32  8
30  33  8
30  36  8
31  34  8
32  35  8
33  38  8
33  40  8
34  37  8
35  37  8
36  39  8
38  41  8
38  42  8
39  41  8
40  44  8
42  45  8
44  45  8
$$$$
