500694
  -OEChem-10302200282D
 79 82  0     1  0  0  0  0  0999 V2000
    2.0000   -4.1834    0.0000 Cl  0  0  0  0  0  0  0  0  0  0  0  0
    9.1058    4.1974    0.0000 O   0  0  0  0  0  0  0  0  0  0  0  0
    9.2868    2.4748    0.0000 O   0  0  0  0  0  0  0  0  0  0  0  0
    5.5301   -1.1592    0.0000 O   0  0  0  0  0  0  0  0  0  0  0  0
    8.8801    1.5613    0.0000 O   0  0  0  0  0  0  0  0  0  0  0  0
    9.5611    0.3817    0.0000 O   0  0  0  0  0  0  0  0  0  0  0  0
   11.7759   -2.4635    0.0000 O   0  0  0  0  0  0  0  0  0  0  0  0
   10.1936   -3.1680    0.0000 O   0  0  0  0  0  0  0  0  0  0  0  0
    7.2978    2.2658    0.0000 N   0  0  0  0  0  0  0  0  0  0  0  0
    7.9788   -0.3228    0.0000 N   0  0  0  0  0  0  0  0  0  0  0  0
   10.3746   -1.4454    0.0000 N   0  0  0  0  0  0  0  0  0  0  0  0
    5.5301   -4.1592    0.0000 N   0  0  0  0  0  0  0  0  0  0  0  0
    7.7045    3.1793    0.0000 C   0  0  3  0  0  0  0  0  0  0  0  0
    6.7910    3.5861    0.0000 C   0  0  2  0  0  0  0  0  0  0  0  0
    7.6000    4.1739    0.0000 C   0  0  0  0  0  0  0  0  0  0  0  0
    8.6990    3.2839    0.0000 C   0  0  0  0  0  0  0  0  0  0  0  0
    5.7964    3.4816    0.0000 C   0  0  0  0  0  0  0  0  0  0  0  0
    7.4788    0.5432    0.0000 C   0  0  2  0  0  0  0  0  0  0  0  0
    7.8856    1.4568    0.0000 C   0  0  0  0  0  0  0  0  0  0  0  0
    6.5007    0.3353    0.0000 C   0  0  0  0  0  0  0  0  0  0  0  0
    6.3961   -0.6592    0.0000 C   0  0  2  0  0  0  0  0  0  0  0  0
    7.3097   -1.0659    0.0000 C   0  0  0  0  0  0  0  0  0  0  0  0
    5.2087    4.2906    0.0000 C   0  0  0  0  0  0  0  0  0  0  0  0
    8.9734   -0.4273    0.0000 C   0  0  0  0  0  0  0  0  0  0  0  0
    9.3801   -1.3409    0.0000 C   0  0  2  0  0  0  0  0  0  0  0  0
    8.7923   -2.1499    0.0000 C   0  0  0  0  0  0  0  0  0  0  0  0
    5.5301   -2.1592    0.0000 C   0  0  0  0  0  0  0  0  0  0  0  0
    9.1990   -3.0634    0.0000 C   0  0  0  0  0  0  0  0  0  0  0  0
    7.7978   -2.0454    0.0000 C   0  0  0  0  0  0  0  0  0  0  0  0
    4.6641   -2.6592    0.0000 C   0  0  0  0  0  0  0  0  0  0  0  0
    6.3961   -2.6592    0.0000 C   0  0  0  0  0  0  0  0  0  0  0  0
   10.7813   -2.3589    0.0000 C   0  0  0  0  0  0  0  0  0  0  0  0
    4.6641   -3.6592    0.0000 C   0  0  0  0  0  0  0  0  0  0  0  0
    3.7702   -2.1245    0.0000 C   0  0  0  0  0  0  0  0  0  0  0  0
    6.3961   -3.6592    0.0000 C   0  0  0  0  0  0  0  0  0  0  0  0
   12.1826   -3.3770    0.0000 C   0  0  0  0  0  0  0  0  0  0  0  0
    3.7702   -4.1939    0.0000 C   0  0  0  0  0  0  0  0  0  0  0  0
    2.8641   -2.6384    0.0000 C   0  0  0  0  0  0  0  0  0  0  0  0
    2.8641   -3.6800    0.0000 C   0  0  0  0  0  0  0  0  0  0  0  0
   12.5893   -4.2906    0.0000 C   0  0  0  0  0  0  0  0  0  0  0  0
   13.0961   -2.9703    0.0000 C   0  0  0  0  0  0  0  0  0  0  0  0
   11.2691   -3.7838    0.0000 C   0  0  0  0  0  0  0  0  0  0  0  0
    6.5688    4.1649    0.0000 H   0  0  0  0  0  0  0  0  0  0  0  0
    8.1960    4.3448    0.0000 H   0  0  0  0  0  0  0  0  0  0  0  0
    7.3282    4.7311    0.0000 H   0  0  0  0  0  0  0  0  0  0  0  0
    6.6812    2.2010    0.0000 H   0  0  0  0  0  0  0  0  0  0  0  0
    5.5443    2.9152    0.0000 H   0  0  0  0  0  0  0  0  0  0  0  0
    8.0980    0.5757    0.0000 H   0  0  0  0  0  0  0  0  0  0  0  0
    6.4359    0.9519    0.0000 H   0  0  0  0  0  0  0  0  0  0  0  0
    5.8807    0.3353    0.0000 H   0  0  0  0  0  0  0  0  0  0  0  0
    6.4286   -1.2784    0.0000 H   0  0  0  0  0  0  0  0  0  0  0  0
    6.9997   -1.6029    0.0000 H   0  0  0  0  0  0  0  0  0  0  0  0
    7.8113   -1.4304    0.0000 H   0  0  0  0  0  0  0  0  0  0  0  0
    5.4608    4.8570    0.0000 H   0  0  0  0  0  0  0  0  0  0  0  0
    4.5921    4.2258    0.0000 H   0  0  0  0  0  0  0  0  0  0  0  0
    9.7224    4.2622    0.0000 H   0  0  0  0  0  0  0  0  0  0  0  0
    9.6323   -1.9073    0.0000 H   0  0  0  0  0  0  0  0  0  0  0  0
    8.4279   -2.6515    0.0000 H   0  0  0  0  0  0  0  0  0  0  0  0
   10.7390   -0.9438    0.0000 H   0  0  0  0  0  0  0  0  0  0  0  0
    8.6326   -3.3156    0.0000 H   0  0  0  0  0  0  0  0  0  0  0  0
    9.4512   -3.6298    0.0000 H   0  0  0  0  0  0  0  0  0  0  0  0
    9.7654   -2.8112    0.0000 H   0  0  0  0  0  0  0  0  0  0  0  0
    7.8626   -1.4288    0.0000 H   0  0  0  0  0  0  0  0  0  0  0  0
    7.1812   -1.9806    0.0000 H   0  0  0  0  0  0  0  0  0  0  0  0
    7.7330   -2.6620    0.0000 H   0  0  0  0  0  0  0  0  0  0  0  0
    6.9331   -2.3492    0.0000 H   0  0  0  0  0  0  0  0  0  0  0  0
    3.7773   -1.5046    0.0000 H   0  0  0  0  0  0  0  0  0  0  0  0
    6.9331   -3.9692    0.0000 H   0  0  0  0  0  0  0  0  0  0  0  0
    3.7773   -4.8138    0.0000 H   0  0  0  0  0  0  0  0  0  0  0  0
    2.3284   -2.3263    0.0000 H   0  0  0  0  0  0  0  0  0  0  0  0
   12.0229   -4.5427    0.0000 H   0  0  0  0  0  0  0  0  0  0  0  0
   12.8415   -4.8570    0.0000 H   0  0  0  0  0  0  0  0  0  0  0  0
   13.1557   -4.0384    0.0000 H   0  0  0  0  0  0  0  0  0  0  0  0
   13.3483   -3.5367    0.0000 H   0  0  0  0  0  0  0  0  0  0  0  0
   13.6625   -2.7181    0.0000 H   0  0  0  0  0  0  0  0  0  0  0  0
   12.8440   -2.4039    0.0000 H   0  0  0  0  0  0  0  0  0  0  0  0
   11.0169   -3.2174    0.0000 H   0  0  0  0  0  0  0  0  0  0  0  0
   10.7027   -4.0359    0.0000 H   0  0  0  0  0  0  0  0  0  0  0  0
   11.5212   -4.3502    0.0000 H   0  0  0  0  0  0  0  0  0  0  0  0
  1 39  1  0  0  0  0
  2 16  1  0  0  0  0
  2 56  1  0  0  0  0
  3 16  2  0  0  0  0
 21  4  1  6  0  0  0
  4 27  1  0  0  0  0
  5 19  2  0  0  0  0
  6 24  2  0  0  0  0
  7 32  1  0  0  0  0
  7 36  1  0  0  0  0
  8 32  2  0  0  0  0
  9 13  1  0  0  0  0
  9 19  1  0  0  0  0
  9 46  1  0  0  0  0
 10 18  1  0  0  0  0
 10 22  1  0  0  0  0
 10 24  1  0  0  0  0
 25 11  1  1  0  0  0
 11 32  1  0  0  0  0
 11 59  1  0  0  0  0
 12 33  2  0  0  0  0
 12 35  1  0  0  0  0
 13 14  1  0  0  0  0
 13 15  1  0  0  0  0
 13 16  1  0  0  0  0
 14 15  1  0  0  0  0
 14 17  1  1  0  0  0
 14 43  1  0  0  0  0
 15 44  1  0  0  0  0
 15 45  1  0  0  0  0
 17 23  2  0  0  0  0
 17 47  1  0  0  0  0
 18 19  1  1  0  0  0
 18 20  1  0  0  0  0
 18 48  1  0  0  0  0
 20 21  1  0  0  0  0
 20 49  1  0  0  0  0
 20 50  1  0  0  0  0
 21 22  1  0  0  0  0
 21 51  1  0  0  0  0
 22 52  1  0  0  0  0
 22 53  1  0  0  0  0
 23 54  1  0  0  0  0
 23 55  1  0  0  0  0
 24 25  1  0  0  0  0
 25 26  1  0  0  0  0
 25 57  1  0  0  0  0
 26 28  1  0  0  0  0
 26 29  1  0  0  0  0
 26 58  1  0  0  0  0
 27 30  2  0  0  0  0
 27 31  1  0  0  0  0
 28 60  1  0  0  0  0
 28 61  1  0  0  0  0
 28 62  1  0  0  0  0
 29 63  1  0  0  0  0
 29 64  1  0  0  0  0
 29 65  1  0  0  0  0
 30 33  1  0  0  0  0
 30 34  1  0  0  0  0
 31 35  2  0  0  0  0
 31 66  1  0  0  0  0
 33 37  1  0  0  0  0
 34 38  2  0  0  0  0
 34 67  1  0  0  0  0
 35 68  1  0  0  0  0
 36 40  1  0  0  0  0
 36 41  1  0  0  0  0
 36 42  1  0  0  0  0
 37 39  2  0  0  0  0
 37 69  1  0  0  0  0
 38 39  1  0  0  0  0
 38 70  1  0  0  0  0
 40 71  1  0  0  0  0
 40 72  1  0  0  0  0
 40 73  1  0  0  0  0
 41 74  1  0  0  0  0
 41 75  1  0  0  0  0
 41 76  1  0  0  0  0
 42 77  1  0  0  0  0
 42 78  1  0  0  0  0
 42 79  1  0  0  0  0
M  END
> <PUBCHEM_COMPOUND_CID>
500694
> <PUBCHEM_COMPOUND_CANONICALIZED>
1
> <PUBCHEM_CACTVS_COMPLEXITY>
1060
> <PUBCHEM_CACTVS_HBOND_ACCEPTOR>
8
> <PUBCHEM_CACTVS_HBOND_DONOR>
3
> <PUBCHEM_CACTVS_ROTATABLE_BOND>
11
> <PUBCHEM_CACTVS_SUBSKEYS>
AAADcfB7uAAEAAAAAAAAAAAAGAAAAWAAAAA8QAAAAAAAAACx8AAAHgIQCAAADf7hniY+zvPIFgCoAzX3XACCiCAxJyAI2KG+bpkOZvLFs7ufeCjm1hnY6Ae6waAOBAAAAAICAAAIAAAABAQAAAAAAAAAAA==
> <PUBCHEM_IUPAC_OPENEYE_NAME>
(2R)-1-[[(2S,4R)-1-[(2S)-2-(tert-butoxycarbonylamino)-3-methyl-butanoyl]-4-[(7-chloro-4-quinolyl)oxy]pyrrolidine-2-carbonyl]amino]-2-vinyl-cyclopropanecarboxylic acid
> <PUBCHEM_IUPAC_CAS_NAME>
(2R)-1-[[[(2S,4R)-4-[(7-chloro-4-quinolinyl)oxy]-1-[(2S)-3-methyl-2-[[(2-methylpropan-2-yl)oxy-oxomethyl]amino]-1-oxobutyl]-2-pyrrolidinyl]-oxomethyl]amino]-2-ethenyl-1-cyclopropanecarboxylic acid
> <PUBCHEM_IUPAC_NAME_MARKUP>
(2<I>R</I>)-1-[[(2<I>S</I>,4<I>R</I>)-4-(7-chloroquinolin-4-yl)oxy-1-[(2<I>S</I>)-3-methyl-2-[(2-methylpropan-2-yl)oxycarbonylamino]butanoyl]pyrrolidine-2-carbonyl]amino]-2-ethenylcyclopropane-1-carboxylic acid
> <PUBCHEM_IUPAC_NAME>
(2R)-1-[[(2S,4R)-4-(7-chloroquinolin-4-yl)oxy-1-[(2S)-3-methyl-2-[(2-methylpropan-2-yl)oxycarbonylamino]butanoyl]pyrrolidine-2-carbonyl]amino]-2-ethenylcyclopropane-1-carboxylic acid
> <PUBCHEM_IUPAC_SYSTEMATIC_NAME>
(2R)-1-[[(2S,4R)-4-(7-chloranylquinolin-4-yl)oxy-1-[(2S)-3-methyl-2-[(2-methylpropan-2-yl)oxycarbonylamino]butanoyl]pyrrolidin-2-yl]carbonylamino]-2-ethenyl-cyclopropane-1-carboxylic acid
> <PUBCHEM_IUPAC_TRADITIONAL_NAME>
(2R)-1-[[(2S,4R)-1-[(2S)-2-(tert-butoxycarbonylamino)-3-methyl-butanoyl]-4-[(7-chloro-4-quinolyl)oxy]prolyl]amino]-2-vinyl-cyclopropanecarboxylic acid
> <PUBCHEM_IUPAC_INCHI>
InChI=1S/C30H37ClN4O7/c1-7-17-14-30(17,27(38)39)34-25(36)22-13-19(41-23-10-11-32-21-12-18(31)8-9-20(21)23)15-35(22)26(37)24(16(2)3)33-28(40)42-29(4,5)6/h7-12,16-17,19,22,24H,1,13-15H2,2-6H3,(H,33,40)(H,34,36)(H,38,39)/t17-,19+,22-,24-,30?/m0/s1
> <PUBCHEM_IUPAC_INCHIKEY>
TWQZDJFIQDLHAH-OADLDYQKSA-N
> <PUBCHEM_XLOGP3_AA>
4.4
> <PUBCHEM_EXACT_MASS>
600.2350772
> <PUBCHEM_MOLECULAR_FORMULA>
C30H37ClN4O7
> <PUBCHEM_MOLECULAR_WEIGHT>
601.1
> <PUBCHEM_OPENEYE_CAN_SMILES>
CC(C)C(C(=O)N1CC(CC1C(=O)NC2(CC2C=C)C(=O)O)OC3=C4C=CC(=CC4=NC=C3)Cl)NC(=O)OC(C)(C)C
> <PUBCHEM_OPENEYE_ISO_SMILES>
CC(C)[C@@H](C(=O)N1C[C@@H](C[C@H]1C(=O)NC2(C[C@@H]2C=C)C(=O)O)OC3=C4C=CC(=CC4=NC=C3)Cl)NC(=O)OC(C)(C)C
> <PUBCHEM_CACTVS_TPSA>
147
> <PUBCHEM_MONOISOTOPIC_WEIGHT>
600.2350772
> <PUBCHEM_TOTAL_CHARGE>
0
> <PUBCHEM_HEAVY_ATOM_COUNT>
42
> <PUBCHEM_ATOM_DEF_STEREO_COUNT>
4
> <PUBCHEM_ATOM_UDEF_STEREO_COUNT>
1
> <PUBCHEM_BOND_DEF_STEREO_COUNT>
0
> <PUBCHEM_BOND_UDEF_STEREO_COUNT>
0
> <PUBCHEM_ISOTOPIC_ATOM_COUNT>
0
> <PUBCHEM_COMPONENT_COUNT>
1
> <PUBCHEM_CACTVS_TAUTO_COUNT>
-1
> <PUBCHEM_COORDINATE_TYPE>
1
5
255
> <PUBCHEM_BONDANNOTATIONS>
25  11  5
12  33  8
12  35  8
13  16  3
14  17  5
18  19  5
27  30  8
27  31  8
30  33  8
30  34  8
31  35  8
33  37  8
34  38  8
37  39  8
38  39  8
21  4  6
$$$$
