500637
  -OEChem-10302200282D
 92 96  0     1  0  0  0  0  0999 V2000
   11.9507   -1.4169    0.0000 O   0  0  0  0  0  0  0  0  0  0  0  0
   12.1317   -3.1394    0.0000 O   0  0  0  0  0  0  0  0  0  0  0  0
    8.5604   -2.6440    0.0000 O   0  0  0  0  0  0  0  0  0  0  0  0
    7.8794    1.6174    0.0000 O   0  0  0  0  0  0  0  0  0  0  0  0
    7.1983   -2.6440    0.0000 O   0  0  0  0  0  0  0  0  0  0  0  0
    3.9890    0.3057    0.0000 O   0  0  0  0  0  0  0  0  0  0  0  0
    3.8080   -1.4169    0.0000 O   0  0  0  0  0  0  0  0  0  0  0  0
    9.9616   -1.6260    0.0000 N   0  0  0  0  0  0  0  0  0  0  0  0
    7.3794   -0.9215    0.0000 N   0  0  0  0  0  0  0  0  0  0  0  0
    5.3903   -0.7124    0.0000 N   0  0  0  0  0  0  0  0  0  0  0  0
   10.5494   -2.4350    0.0000 C   0  0  3  0  0  0  0  0  0  0  0  0
   10.6540   -3.4295    0.0000 C   0  0  2  0  0  0  0  0  0  0  0  0
    9.7404   -3.0228    0.0000 C   0  0  0  0  0  0  0  0  0  0  0  0
   11.2418   -4.2385    0.0000 C   0  0  0  0  0  0  0  0  0  0  0  0
   11.5440   -2.3304    0.0000 C   0  0  0  0  0  0  0  0  0  0  0  0
    8.3794   -0.9215    0.0000 C   0  0  2  0  0  0  0  0  0  0  0  0
    8.9671   -1.7305    0.0000 C   0  0  0  0  0  0  0  0  0  0  0  0
   10.8350   -5.1520    0.0000 C   0  0  0  0  0  0  0  0  0  0  0  0
    8.6884    0.0296    0.0000 C   0  0  0  0  0  0  0  0  0  0  0  0
    7.8794    0.6174    0.0000 C   0  0  2  0  0  0  0  0  0  0  0  0
    7.0703    0.0296    0.0000 C   0  0  0  0  0  0  0  0  0  0  0  0
    5.2092   -2.4350    0.0000 C   0  0  0  0  0  0  0  0  0  0  0  0
    5.7970   -1.6260    0.0000 C   0  0  1  0  0  0  0  0  0  0  0  0
    6.7916   -1.7305    0.0000 C   0  0  0  0  0  0  0  0  0  0  0  0
    4.2147   -2.3304    0.0000 C   0  0  0  0  0  0  0  0  0  0  0  0
    5.6160   -3.3485    0.0000 C   0  0  0  0  0  0  0  0  0  0  0  0
    3.6270   -3.1394    0.0000 C   0  0  0  0  0  0  0  0  0  0  0  0
    5.0282   -4.1575    0.0000 C   0  0  0  0  0  0  0  0  0  0  0  0
    4.0337   -4.0530    0.0000 C   0  0  0  0  0  0  0  0  0  0  0  0
    8.7454    2.1174    0.0000 C   0  0  0  0  0  0  0  0  0  0  0  0
    4.3958   -0.6079    0.0000 C   0  0  0  0  0  0  0  0  0  0  0  0
    8.7454    3.1174    0.0000 C   0  0  0  0  0  0  0  0  0  0  0  0
    9.6114    3.6174    0.0000 C   0  0  0  0  0  0  0  0  0  0  0  0
    2.9945    0.4102    0.0000 C   0  0  0  0  0  0  0  0  0  0  0  0
    7.8794    3.6174    0.0000 C   0  0  0  0  0  0  0  0  0  0  0  0
    9.6114    4.6174    0.0000 C   0  0  0  0  0  0  0  0  0  0  0  0
    7.8794    4.6174    0.0000 C   0  0  0  0  0  0  0  0  0  0  0  0
   10.5053    3.0827    0.0000 C   0  0  0  0  0  0  0  0  0  0  0  0
    2.0000    0.5147    0.0000 C   0  0  0  0  0  0  0  0  0  0  0  0
    3.0990    1.4047    0.0000 C   0  0  0  0  0  0  0  0  0  0  0  0
    2.8900   -0.5843    0.0000 C   0  0  0  0  0  0  0  0  0  0  0  0
    8.7454    5.1174    0.0000 C   0  0  0  0  0  0  0  0  0  0  0  0
   10.5053    5.1520    0.0000 C   0  0  0  0  0  0  0  0  0  0  0  0
   11.4114    3.5966    0.0000 C   0  0  0  0  0  0  0  0  0  0  0  0
   11.4114    4.6382    0.0000 C   0  0  0  0  0  0  0  0  0  0  0  0
   10.2638   -3.9113    0.0000 H   0  0  0  0  0  0  0  0  0  0  0  0
    9.2944   -2.5921    0.0000 H   0  0  0  0  0  0  0  0  0  0  0  0
    9.3937   -3.5368    0.0000 H   0  0  0  0  0  0  0  0  0  0  0  0
   11.7558   -4.5852    0.0000 H   0  0  0  0  0  0  0  0  0  0  0  0
   11.6724   -3.7925    0.0000 H   0  0  0  0  0  0  0  0  0  0  0  0
   10.2138   -1.0596    0.0000 H   0  0  0  0  0  0  0  0  0  0  0  0
    8.0979   -1.4739    0.0000 H   0  0  0  0  0  0  0  0  0  0  0  0
   10.2686   -4.8999    0.0000 H   0  0  0  0  0  0  0  0  0  0  0  0
   10.5828   -5.7184    0.0000 H   0  0  0  0  0  0  0  0  0  0  0  0
   11.4014   -5.4042    0.0000 H   0  0  0  0  0  0  0  0  0  0  0  0
    9.2548   -0.2226    0.0000 H   0  0  0  0  0  0  0  0  0  0  0  0
    8.9984    0.5665    0.0000 H   0  0  0  0  0  0  0  0  0  0  0  0
    7.3269    0.8989    0.0000 H   0  0  0  0  0  0  0  0  0  0  0  0
    6.7603    0.5665    0.0000 H   0  0  0  0  0  0  0  0  0  0  0  0
    6.5039   -0.2226    0.0000 H   0  0  0  0  0  0  0  0  0  0  0  0
    5.8259   -2.4998    0.0000 H   0  0  0  0  0  0  0  0  0  0  0  0
    6.1615   -1.1244    0.0000 H   0  0  0  0  0  0  0  0  0  0  0  0
   12.5673   -1.3521    0.0000 H   0  0  0  0  0  0  0  0  0  0  0  0
    4.3856   -1.7344    0.0000 H   0  0  0  0  0  0  0  0  0  0  0  0
    3.6575   -2.0586    0.0000 H   0  0  0  0  0  0  0  0  0  0  0  0
    6.0467   -3.7945    0.0000 H   0  0  0  0  0  0  0  0  0  0  0  0
    6.1300   -3.0018    0.0000 H   0  0  0  0  0  0  0  0  0  0  0  0
    3.1963   -2.6935    0.0000 H   0  0  0  0  0  0  0  0  0  0  0  0
    3.1129   -3.4862    0.0000 H   0  0  0  0  0  0  0  0  0  0  0  0
    4.8573   -4.7535    0.0000 H   0  0  0  0  0  0  0  0  0  0  0  0
    5.5855   -4.4293    0.0000 H   0  0  0  0  0  0  0  0  0  0  0  0
    3.4321   -4.2030    0.0000 H   0  0  0  0  0  0  0  0  0  0  0  0
    4.0769   -4.6715    0.0000 H   0  0  0  0  0  0  0  0  0  0  0  0
    5.7547   -0.2108    0.0000 H   0  0  0  0  0  0  0  0  0  0  0  0
    8.9574    1.5348    0.0000 H   0  0  0  0  0  0  0  0  0  0  0  0
    9.3560    2.2250    0.0000 H   0  0  0  0  0  0  0  0  0  0  0  0
    7.3424    3.3074    0.0000 H   0  0  0  0  0  0  0  0  0  0  0  0
    7.3424    4.9274    0.0000 H   0  0  0  0  0  0  0  0  0  0  0  0
   10.4982    2.4628    0.0000 H   0  0  0  0  0  0  0  0  0  0  0  0
    2.0648    1.1313    0.0000 H   0  0  0  0  0  0  0  0  0  0  0  0
    1.3834    0.5795    0.0000 H   0  0  0  0  0  0  0  0  0  0  0  0
    1.9352   -0.1019    0.0000 H   0  0  0  0  0  0  0  0  0  0  0  0
    3.7156    1.3399    0.0000 H   0  0  0  0  0  0  0  0  0  0  0  0
    3.1639    2.0213    0.0000 H   0  0  0  0  0  0  0  0  0  0  0  0
    2.4824    1.4695    0.0000 H   0  0  0  0  0  0  0  0  0  0  0  0
    2.2734   -0.5195    0.0000 H   0  0  0  0  0  0  0  0  0  0  0  0
    2.8252   -1.2009    0.0000 H   0  0  0  0  0  0  0  0  0  0  0  0
    3.5066   -0.6491    0.0000 H   0  0  0  0  0  0  0  0  0  0  0  0
    8.7454    5.7374    0.0000 H   0  0  0  0  0  0  0  0  0  0  0  0
   10.4982    5.7720    0.0000 H   0  0  0  0  0  0  0  0  0  0  0  0
   11.9471    3.2845    0.0000 H   0  0  0  0  0  0  0  0  0  0  0  0
   11.9471    4.9503    0.0000 H   0  0  0  0  0  0  0  0  0  0  0  0
  1 15  1  0  0  0  0
  1 63  1  0  0  0  0
  2 15  2  0  0  0  0
  3 17  2  0  0  0  0
 20  4  1  6  0  0  0
  4 30  1  0  0  0  0
  5 24  2  0  0  0  0
  6 31  1  0  0  0  0
  6 34  1  0  0  0  0
  7 31  2  0  0  0  0
  8 11  1  0  0  0  0
  8 17  1  0  0  0  0
  8 51  1  0  0  0  0
  9 16  1  0  0  0  0
  9 21  1  0  0  0  0
  9 24  1  0  0  0  0
 23 10  1  6  0  0  0
 10 31  1  0  0  0  0
 10 74  1  0  0  0  0
 11 12  1  0  0  0  0
 11 13  1  0  0  0  0
 11 15  1  0  0  0  0
 12 13  1  0  0  0  0
 12 14  1  1  0  0  0
 12 46  1  0  0  0  0
 13 47  1  0  0  0  0
 13 48  1  0  0  0  0
 14 18  1  0  0  0  0
 14 49  1  0  0  0  0
 14 50  1  0  0  0  0
 16 17  1  1  0  0  0
 16 19  1  0  0  0  0
 16 52  1  0  0  0  0
 18 53  1  0  0  0  0
 18 54  1  0  0  0  0
 18 55  1  0  0  0  0
 19 20  1  0  0  0  0
 19 56  1  0  0  0  0
 19 57  1  0  0  0  0
 20 21  1  0  0  0  0
 20 58  1  0  0  0  0
 21 59  1  0  0  0  0
 21 60  1  0  0  0  0
 22 23  1  0  0  0  0
 22 25  1  0  0  0  0
 22 26  1  0  0  0  0
 22 61  1  0  0  0  0
 23 24  1  0  0  0  0
 23 62  1  0  0  0  0
 25 27  1  0  0  0  0
 25 64  1  0  0  0  0
 25 65  1  0  0  0  0
 26 28  1  0  0  0  0
 26 66  1  0  0  0  0
 26 67  1  0  0  0  0
 27 29  1  0  0  0  0
 27 68  1  0  0  0  0
 27 69  1  0  0  0  0
 28 29  1  0  0  0  0
 28 70  1  0  0  0  0
 28 71  1  0  0  0  0
 29 72  1  0  0  0  0
 29 73  1  0  0  0  0
 30 32  1  0  0  0  0
 30 75  1  0  0  0  0
 30 76  1  0  0  0  0
 32 33  1  0  0  0  0
 32 35  2  0  0  0  0
 33 36  1  0  0  0  0
 33 38  2  0  0  0  0
 34 39  1  0  0  0  0
 34 40  1  0  0  0  0
 34 41  1  0  0  0  0
 35 37  1  0  0  0  0
 35 77  1  0  0  0  0
 36 42  1  0  0  0  0
 36 43  2  0  0  0  0
 37 42  2  0  0  0  0
 37 78  1  0  0  0  0
 38 44  1  0  0  0  0
 38 79  1  0  0  0  0
 39 80  1  0  0  0  0
 39 81  1  0  0  0  0
 39 82  1  0  0  0  0
 40 83  1  0  0  0  0
 40 84  1  0  0  0  0
 40 85  1  0  0  0  0
 41 86  1  0  0  0  0
 41 87  1  0  0  0  0
 41 88  1  0  0  0  0
 42 89  1  0  0  0  0
 43 45  1  0  0  0  0
 43 90  1  0  0  0  0
 44 45  2  0  0  0  0
 44 91  1  0  0  0  0
 45 92  1  0  0  0  0
M  END
> <PUBCHEM_COMPOUND_CID>
500637
> <PUBCHEM_COMPOUND_CANONICALIZED>
1
> <PUBCHEM_CACTVS_COMPLEXITY>
1090
> <PUBCHEM_CACTVS_HBOND_ACCEPTOR>
7
> <PUBCHEM_CACTVS_HBOND_DONOR>
3
> <PUBCHEM_CACTVS_ROTATABLE_BOND>
12
> <PUBCHEM_CACTVS_SUBSKEYS>
AAADcfB/OAAAAAAAAAAAAAAAGAAAAWAAAAAwYMAAAAAAAADBUAAAHgAQCAAADfzhmAYyCMPABgCIAiHSGAACAAAgAAAIiIGICIkKZjKAsTifcAAm1gGYqAe6yeCOgAACAAAQAAAAAAQAACAAAAAAAAAAAA==
> <PUBCHEM_IUPAC_OPENEYE_NAME>
(2S)-1-[[(2S,4R)-1-[(2S)-2-(tert-butoxycarbonylamino)-2-cyclohexyl-acetyl]-4-(1-naphthylmethoxy)pyrrolidine-2-carbonyl]amino]-2-ethyl-cyclopropanecarboxylic acid
> <PUBCHEM_IUPAC_CAS_NAME>
(2S)-1-[[[(2S,4R)-1-[(2S)-2-cyclohexyl-2-[[(2-methylpropan-2-yl)oxy-oxomethyl]amino]-1-oxoethyl]-4-(1-naphthalenylmethoxy)-2-pyrrolidinyl]-oxomethyl]amino]-2-ethyl-1-cyclopropanecarboxylic acid
> <PUBCHEM_IUPAC_NAME_MARKUP>
(2<I>S</I>)-1-[[(2<I>S</I>,4<I>R</I>)-1-[(2<I>S</I>)-2-cyclohexyl-2-[(2-methylpropan-2-yl)oxycarbonylamino]acetyl]-4-(naphthalen-1-ylmethoxy)pyrrolidine-2-carbonyl]amino]-2-ethylcyclopropane-1-carboxylic acid
> <PUBCHEM_IUPAC_NAME>
(2S)-1-[[(2S,4R)-1-[(2S)-2-cyclohexyl-2-[(2-methylpropan-2-yl)oxycarbonylamino]acetyl]-4-(naphthalen-1-ylmethoxy)pyrrolidine-2-carbonyl]amino]-2-ethylcyclopropane-1-carboxylic acid
> <PUBCHEM_IUPAC_SYSTEMATIC_NAME>
(2S)-1-[[(2S,4R)-1-[(2S)-2-cyclohexyl-2-[(2-methylpropan-2-yl)oxycarbonylamino]ethanoyl]-4-(naphthalen-1-ylmethoxy)pyrrolidin-2-yl]carbonylamino]-2-ethyl-cyclopropane-1-carboxylic acid
> <PUBCHEM_IUPAC_TRADITIONAL_NAME>
(2S)-1-[[(2S,4R)-1-[(2S)-2-(tert-butoxycarbonylamino)-2-cyclohexyl-acetyl]-4-(1-naphthylmethoxy)prolyl]amino]-2-ethyl-cyclopropanecarboxylic acid
> <PUBCHEM_IUPAC_INCHI>
InChI=1S/C35H47N3O7/c1-5-25-19-35(25,32(41)42)37-30(39)28-18-26(44-21-24-16-11-15-22-12-9-10-17-27(22)24)20-38(28)31(40)29(23-13-7-6-8-14-23)36-33(43)45-34(2,3)4/h9-12,15-17,23,25-26,28-29H,5-8,13-14,18-21H2,1-4H3,(H,36,43)(H,37,39)(H,41,42)/t25-,26+,28-,29-,35?/m0/s1
> <PUBCHEM_IUPAC_INCHIKEY>
YBEZLWKKRDZMMF-QPZJFWSTSA-N
> <PUBCHEM_XLOGP3_AA>
5.8
> <PUBCHEM_EXACT_MASS>
621.34140085
> <PUBCHEM_MOLECULAR_FORMULA>
C35H47N3O7
> <PUBCHEM_MOLECULAR_WEIGHT>
621.8
> <PUBCHEM_OPENEYE_CAN_SMILES>
CCC1CC1(C(=O)O)NC(=O)C2CC(CN2C(=O)C(C3CCCCC3)NC(=O)OC(C)(C)C)OCC4=CC=CC5=CC=CC=C54
> <PUBCHEM_OPENEYE_ISO_SMILES>
CC[C@H]1CC1(C(=O)O)NC(=O)[C@@H]2C[C@H](CN2C(=O)[C@H](C3CCCCC3)NC(=O)OC(C)(C)C)OCC4=CC=CC5=CC=CC=C54
> <PUBCHEM_CACTVS_TPSA>
134
> <PUBCHEM_MONOISOTOPIC_WEIGHT>
621.34140085
> <PUBCHEM_TOTAL_CHARGE>
0
> <PUBCHEM_HEAVY_ATOM_COUNT>
45
> <PUBCHEM_ATOM_DEF_STEREO_COUNT>
4
> <PUBCHEM_ATOM_UDEF_STEREO_COUNT>
1
> <PUBCHEM_BOND_DEF_STEREO_COUNT>
0
> <PUBCHEM_BOND_UDEF_STEREO_COUNT>
0
> <PUBCHEM_ISOTOPIC_ATOM_COUNT>
0
> <PUBCHEM_COMPONENT_COUNT>
1
> <PUBCHEM_CACTVS_TAUTO_COUNT>
-1
> <PUBCHEM_COORDINATE_TYPE>
1
5
255
> <PUBCHEM_BONDANNOTATIONS>
23  10  6
11  15  3
12  14  5
16  17  5
32  33  8
32  35  8
33  36  8
33  38  8
35  37  8
36  42  8
36  43  8
37  42  8
38  44  8
20  4  6
43  45  8
44  45  8
$$$$
