500687
  -OEChem-10302200282D
 90 94  0     1  0  0  0  0  0999 V2000
    8.2417    4.9019    0.0000 O   0  0  0  0  0  0  0  0  0  0  0  0
    8.4227    3.1793    0.0000 O   0  0  0  0  0  0  0  0  0  0  0  0
    4.6660   -0.4547    0.0000 O   0  0  0  0  0  0  0  0  0  0  0  0
    8.0160    2.2658    0.0000 O   0  0  0  0  0  0  0  0  0  0  0  0
    9.9172   -1.6544    0.0000 O   0  0  0  0  0  0  0  0  0  0  0  0
    8.6970    1.0862    0.0000 O   0  0  0  0  0  0  0  0  0  0  0  0
    7.7472   -3.1680    0.0000 O   0  0  0  0  0  0  0  0  0  0  0  0
    9.3295   -2.4635    0.0000 O   0  0  0  0  0  0  0  0  0  0  0  0
    6.4337    2.9703    0.0000 N   0  0  0  0  0  0  0  0  0  0  0  0
    7.1147    0.3817    0.0000 N   0  0  0  0  0  0  0  0  0  0  0  0
    7.9282   -1.4454    0.0000 N   0  0  0  0  0  0  0  0  0  0  0  0
    4.6660   -3.4547    0.0000 N   0  0  0  0  0  0  0  0  0  0  0  0
    6.8404    3.8838    0.0000 C   0  0  3  0  0  0  0  0  0  0  0  0
    5.9269    4.2906    0.0000 C   0  0  2  0  0  0  0  0  0  0  0  0
    6.7359    4.8784    0.0000 C   0  0  0  0  0  0  0  0  0  0  0  0
    6.6147    1.2477    0.0000 C   0  0  2  0  0  0  0  0  0  0  0  0
    7.8350    3.9884    0.0000 C   0  0  0  0  0  0  0  0  0  0  0  0
    4.9324    4.1860    0.0000 C   0  0  0  0  0  0  0  0  0  0  0  0
    7.0215    2.1613    0.0000 C   0  0  0  0  0  0  0  0  0  0  0  0
    5.6366    1.0398    0.0000 C   0  0  0  0  0  0  0  0  0  0  0  0
    5.5321    0.0453    0.0000 C   0  0  2  0  0  0  0  0  0  0  0  0
    6.4456   -0.3615    0.0000 C   0  0  0  0  0  0  0  0  0  0  0  0
   10.0983    0.0681    0.0000 C   0  0  0  0  0  0  0  0  0  0  0  0
    9.5105   -0.7409    0.0000 C   0  0  3  0  0  0  0  0  0  0  0  0
    8.5160   -0.6364    0.0000 C   0  0  1  0  0  0  0  0  0  0  0  0
    8.1093    0.2772    0.0000 C   0  0  0  0  0  0  0  0  0  0  0  0
   11.0928   -0.0364    0.0000 C   0  0  0  0  0  0  0  0  0  0  0  0
    9.6916    0.9817    0.0000 C   0  0  0  0  0  0  0  0  0  0  0  0
   11.6806    0.7726    0.0000 C   0  0  0  0  0  0  0  0  0  0  0  0
   10.2794    1.7907    0.0000 C   0  0  0  0  0  0  0  0  0  0  0  0
   11.2739    1.6861    0.0000 C   0  0  0  0  0  0  0  0  0  0  0  0
    4.3446    4.9950    0.0000 C   0  0  0  0  0  0  0  0  0  0  0  0
    4.6660   -1.4547    0.0000 C   0  0  0  0  0  0  0  0  0  0  0  0
    8.3349   -2.3589    0.0000 C   0  0  0  0  0  0  0  0  0  0  0  0
    3.8000   -1.9547    0.0000 C   0  0  0  0  0  0  0  0  0  0  0  0
    5.5321   -1.9547    0.0000 C   0  0  0  0  0  0  0  0  0  0  0  0
    8.1539   -4.0815    0.0000 C   0  0  0  0  0  0  0  0  0  0  0  0
    3.8000   -2.9547    0.0000 C   0  0  0  0  0  0  0  0  0  0  0  0
    2.9061   -1.4200    0.0000 C   0  0  0  0  0  0  0  0  0  0  0  0
    5.5321   -2.9547    0.0000 C   0  0  0  0  0  0  0  0  0  0  0  0
    8.5606   -4.9950    0.0000 C   0  0  0  0  0  0  0  0  0  0  0  0
    7.2404   -4.4882    0.0000 C   0  0  0  0  0  0  0  0  0  0  0  0
    9.0674   -3.6748    0.0000 C   0  0  0  0  0  0  0  0  0  0  0  0
    2.9061   -3.4894    0.0000 C   0  0  0  0  0  0  0  0  0  0  0  0
    2.0000   -1.9339    0.0000 C   0  0  0  0  0  0  0  0  0  0  0  0
    2.0000   -2.9755    0.0000 C   0  0  0  0  0  0  0  0  0  0  0  0
    5.8299    3.6782    0.0000 H   0  0  0  0  0  0  0  0  0  0  0  0
    7.3319    5.0492    0.0000 H   0  0  0  0  0  0  0  0  0  0  0  0
    6.4641    5.4356    0.0000 H   0  0  0  0  0  0  0  0  0  0  0  0
    5.8171    2.9055    0.0000 H   0  0  0  0  0  0  0  0  0  0  0  0
    7.2339    1.2802    0.0000 H   0  0  0  0  0  0  0  0  0  0  0  0
    4.6802    3.6196    0.0000 H   0  0  0  0  0  0  0  0  0  0  0  0
    5.5718    1.6564    0.0000 H   0  0  0  0  0  0  0  0  0  0  0  0
    5.0166    1.0398    0.0000 H   0  0  0  0  0  0  0  0  0  0  0  0
    5.5645   -0.5739    0.0000 H   0  0  0  0  0  0  0  0  0  0  0  0
    6.1356   -0.8984    0.0000 H   0  0  0  0  0  0  0  0  0  0  0  0
    6.9472   -0.7259    0.0000 H   0  0  0  0  0  0  0  0  0  0  0  0
    9.4817    0.1329    0.0000 H   0  0  0  0  0  0  0  0  0  0  0  0
   10.1271   -0.8057    0.0000 H   0  0  0  0  0  0  0  0  0  0  0  0
    7.8994   -0.5716    0.0000 H   0  0  0  0  0  0  0  0  0  0  0  0
   10.9219   -0.6324    0.0000 H   0  0  0  0  0  0  0  0  0  0  0  0
   11.6501   -0.3082    0.0000 H   0  0  0  0  0  0  0  0  0  0  0  0
    9.2609    1.4276    0.0000 H   0  0  0  0  0  0  0  0  0  0  0  0
    9.1776    0.6350    0.0000 H   0  0  0  0  0  0  0  0  0  0  0  0
   12.1113    0.3266    0.0000 H   0  0  0  0  0  0  0  0  0  0  0  0
   12.1946    1.1193    0.0000 H   0  0  0  0  0  0  0  0  0  0  0  0
   10.4502    2.3866    0.0000 H   0  0  0  0  0  0  0  0  0  0  0  0
    9.7221    2.0625    0.0000 H   0  0  0  0  0  0  0  0  0  0  0  0
   11.8755    1.8361    0.0000 H   0  0  0  0  0  0  0  0  0  0  0  0
   11.2306    2.3046    0.0000 H   0  0  0  0  0  0  0  0  0  0  0  0
    4.5968    5.5614    0.0000 H   0  0  0  0  0  0  0  0  0  0  0  0
    3.7280    4.9302    0.0000 H   0  0  0  0  0  0  0  0  0  0  0  0
    8.8583    4.9667    0.0000 H   0  0  0  0  0  0  0  0  0  0  0  0
    7.3116   -1.3806    0.0000 H   0  0  0  0  0  0  0  0  0  0  0  0
   10.5339   -1.7193    0.0000 H   0  0  0  0  0  0  0  0  0  0  0  0
    6.0690   -1.6447    0.0000 H   0  0  0  0  0  0  0  0  0  0  0  0
    2.9132   -0.8001    0.0000 H   0  0  0  0  0  0  0  0  0  0  0  0
    6.0690   -3.2647    0.0000 H   0  0  0  0  0  0  0  0  0  0  0  0
    7.9942   -5.2472    0.0000 H   0  0  0  0  0  0  0  0  0  0  0  0
    8.8128   -5.5614    0.0000 H   0  0  0  0  0  0  0  0  0  0  0  0
    9.1270   -4.7429    0.0000 H   0  0  0  0  0  0  0  0  0  0  0  0
    6.9882   -3.9218    0.0000 H   0  0  0  0  0  0  0  0  0  0  0  0
    6.6740   -4.7404    0.0000 H   0  0  0  0  0  0  0  0  0  0  0  0
    7.4925   -5.0546    0.0000 H   0  0  0  0  0  0  0  0  0  0  0  0
    9.3196   -4.2412    0.0000 H   0  0  0  0  0  0  0  0  0  0  0  0
    9.6338   -3.4226    0.0000 H   0  0  0  0  0  0  0  0  0  0  0  0
    8.8153   -3.1084    0.0000 H   0  0  0  0  0  0  0  0  0  0  0  0
    2.9132   -4.1093    0.0000 H   0  0  0  0  0  0  0  0  0  0  0  0
    1.4643   -1.6218    0.0000 H   0  0  0  0  0  0  0  0  0  0  0  0
    1.4643   -3.2876    0.0000 H   0  0  0  0  0  0  0  0  0  0  0  0
  1 17  1  0  0  0  0
  1 73  1  0  0  0  0
  2 17  2  0  0  0  0
 21  3  1  6  0  0  0
  3 33  1  0  0  0  0
  4 19  2  0  0  0  0
  5 24  1  0  0  0  0
  5 75  1  0  0  0  0
  6 26  2  0  0  0  0
  7 34  1  0  0  0  0
  7 37  1  0  0  0  0
  8 34  2  0  0  0  0
  9 13  1  0  0  0  0
  9 19  1  0  0  0  0
  9 50  1  0  0  0  0
 10 16  1  0  0  0  0
 10 22  1  0  0  0  0
 10 26  1  0  0  0  0
 25 11  1  6  0  0  0
 11 34  1  0  0  0  0
 11 74  1  0  0  0  0
 12 38  1  0  0  0  0
 12 40  2  0  0  0  0
 13 14  1  0  0  0  0
 13 15  1  0  0  0  0
 13 17  1  0  0  0  0
 14 15  1  0  0  0  0
 14 18  1  1  0  0  0
 14 47  1  0  0  0  0
 15 48  1  0  0  0  0
 15 49  1  0  0  0  0
 16 19  1  1  0  0  0
 16 20  1  0  0  0  0
 16 51  1  0  0  0  0
 18 32  2  0  0  0  0
 18 52  1  0  0  0  0
 20 21  1  0  0  0  0
 20 53  1  0  0  0  0
 20 54  1  0  0  0  0
 21 22  1  0  0  0  0
 21 55  1  0  0  0  0
 22 56  1  0  0  0  0
 22 57  1  0  0  0  0
 23 24  1  0  0  0  0
 23 27  1  0  0  0  0
 23 28  1  0  0  0  0
 23 58  1  0  0  0  0
 24 25  1  0  0  0  0
 24 59  1  0  0  0  0
 25 26  1  0  0  0  0
 25 60  1  0  0  0  0
 27 29  1  0  0  0  0
 27 61  1  0  0  0  0
 27 62  1  0  0  0  0
 28 30  1  0  0  0  0
 28 63  1  0  0  0  0
 28 64  1  0  0  0  0
 29 31  1  0  0  0  0
 29 65  1  0  0  0  0
 29 66  1  0  0  0  0
 30 31  1  0  0  0  0
 30 67  1  0  0  0  0
 30 68  1  0  0  0  0
 31 69  1  0  0  0  0
 31 70  1  0  0  0  0
 32 71  1  0  0  0  0
 32 72  1  0  0  0  0
 33 35  1  0  0  0  0
 33 36  2  0  0  0  0
 35 38  1  0  0  0  0
 35 39  2  0  0  0  0
 36 40  1  0  0  0  0
 36 76  1  0  0  0  0
 37 41  1  0  0  0  0
 37 42  1  0  0  0  0
 37 43  1  0  0  0  0
 38 44  2  0  0  0  0
 39 45  1  0  0  0  0
 39 77  1  0  0  0  0
 40 78  1  0  0  0  0
 41 79  1  0  0  0  0
 41 80  1  0  0  0  0
 41 81  1  0  0  0  0
 42 82  1  0  0  0  0
 42 83  1  0  0  0  0
 42 84  1  0  0  0  0
 43 85  1  0  0  0  0
 43 86  1  0  0  0  0
 43 87  1  0  0  0  0
 44 46  1  0  0  0  0
 44 88  1  0  0  0  0
 45 46  2  0  0  0  0
 45 89  1  0  0  0  0
 46 90  1  0  0  0  0
M  END
> <PUBCHEM_COMPOUND_CID>
500687
> <PUBCHEM_COMPOUND_CANONICALIZED>
1
> <PUBCHEM_CACTVS_COMPLEXITY>
1150
> <PUBCHEM_CACTVS_HBOND_ACCEPTOR>
9
> <PUBCHEM_CACTVS_HBOND_DONOR>
4
> <PUBCHEM_CACTVS_ROTATABLE_BOND>
12
> <PUBCHEM_CACTVS_SUBSKEYS>
AAADcfB/vAAAAAAAAAAAAAAAGAAAAWAAAAA8YIAAAAAAAACx8AAAHgAQCAAADfzhngY+zvPIFgCoAzX3XACCiCAxIiAI2KG+bJkOdvbEsbufeCjm9hnY6Ae6yaCOAAAAAAACAAAAAAAAAAQAAAAAAAAAAA==
> <PUBCHEM_IUPAC_OPENEYE_NAME>
(2R)-1-[[(2S,4R)-1-[(2S)-2-(tert-butoxycarbonylamino)-3-cyclohexyl-3-hydroxy-propanoyl]-4-(4-quinolyloxy)pyrrolidine-2-carbonyl]amino]-2-vinyl-cyclopropanecarboxylic acid
> <PUBCHEM_IUPAC_CAS_NAME>
(2R)-1-[[[(2S,4R)-1-[(2S)-3-cyclohexyl-3-hydroxy-2-[[(2-methylpropan-2-yl)oxy-oxomethyl]amino]-1-oxopropyl]-4-(4-quinolinyloxy)-2-pyrrolidinyl]-oxomethyl]amino]-2-ethenyl-1-cyclopropanecarboxylic acid
> <PUBCHEM_IUPAC_NAME_MARKUP>
(2<I>R</I>)-1-[[(2<I>S</I>,4<I>R</I>)-1-[(2<I>S</I>)-3-cyclohexyl-3-hydroxy-2-[(2-methylpropan-2-yl)oxycarbonylamino]propanoyl]-4-quinolin-4-yloxypyrrolidine-2-carbonyl]amino]-2-ethenylcyclopropane-1-carboxylic acid
> <PUBCHEM_IUPAC_NAME>
(2R)-1-[[(2S,4R)-1-[(2S)-3-cyclohexyl-3-hydroxy-2-[(2-methylpropan-2-yl)oxycarbonylamino]propanoyl]-4-quinolin-4-yloxypyrrolidine-2-carbonyl]amino]-2-ethenylcyclopropane-1-carboxylic acid
> <PUBCHEM_IUPAC_SYSTEMATIC_NAME>
(2R)-1-[[(2S,4R)-1-[(2S)-3-cyclohexyl-2-[(2-methylpropan-2-yl)oxycarbonylamino]-3-oxidanyl-propanoyl]-4-quinolin-4-yloxy-pyrrolidin-2-yl]carbonylamino]-2-ethenyl-cyclopropane-1-carboxylic acid
> <PUBCHEM_IUPAC_TRADITIONAL_NAME>
(2R)-1-[[(2S,4R)-1-[(2S)-2-(tert-butoxycarbonylamino)-3-cyclohexyl-3-hydroxy-propanoyl]-4-(4-quinolyloxy)prolyl]amino]-2-vinyl-cyclopropanecarboxylic acid
> <PUBCHEM_IUPAC_INCHI>
InChI=1S/C34H44N4O8/c1-5-21-18-34(21,31(42)43)37-29(40)25-17-22(45-26-15-16-35-24-14-10-9-13-23(24)26)19-38(25)30(41)27(36-32(44)46-33(2,3)4)28(39)20-11-7-6-8-12-20/h5,9-10,13-16,20-22,25,27-28,39H,1,6-8,11-12,17-19H2,2-4H3,(H,36,44)(H,37,40)(H,42,43)/t21-,22+,25-,27-,28?,34?/m0/s1
> <PUBCHEM_IUPAC_INCHIKEY>
AYKPZWHECWANFY-KEZKFPDHSA-N
> <PUBCHEM_XLOGP3_AA>
4.2
> <PUBCHEM_EXACT_MASS>
636.31591437
> <PUBCHEM_MOLECULAR_FORMULA>
C34H44N4O8
> <PUBCHEM_MOLECULAR_WEIGHT>
636.7
> <PUBCHEM_OPENEYE_CAN_SMILES>
CC(C)(C)OC(=O)NC(C(C1CCCCC1)O)C(=O)N2CC(CC2C(=O)NC3(CC3C=C)C(=O)O)OC4=CC=NC5=CC=CC=C54
> <PUBCHEM_OPENEYE_ISO_SMILES>
CC(C)(C)OC(=O)N[C@@H](C(C1CCCCC1)O)C(=O)N2C[C@@H](C[C@H]2C(=O)NC3(C[C@@H]3C=C)C(=O)O)OC4=CC=NC5=CC=CC=C54
> <PUBCHEM_CACTVS_TPSA>
167
> <PUBCHEM_MONOISOTOPIC_WEIGHT>
636.31591437
> <PUBCHEM_TOTAL_CHARGE>
0
> <PUBCHEM_HEAVY_ATOM_COUNT>
46
> <PUBCHEM_ATOM_DEF_STEREO_COUNT>
4
> <PUBCHEM_ATOM_UDEF_STEREO_COUNT>
2
> <PUBCHEM_BOND_DEF_STEREO_COUNT>
0
> <PUBCHEM_BOND_UDEF_STEREO_COUNT>
0
> <PUBCHEM_ISOTOPIC_ATOM_COUNT>
0
> <PUBCHEM_COMPONENT_COUNT>
1
> <PUBCHEM_CACTVS_TAUTO_COUNT>
-1
> <PUBCHEM_COORDINATE_TYPE>
1
5
255
> <PUBCHEM_BONDANNOTATIONS>
25  11  6
12  38  8
12  40  8
13  17  3
14  18  5
16  19  5
21  3  6
33  35  8
33  36  8
35  38  8
35  39  8
36  40  8
38  44  8
39  45  8
44  46  8
45  46  8
24  5  3
$$$$
