500683
  -OEChem-10302200282D
 90 93  0     1  0  0  0  0  0999 V2000
   10.5050   -1.1977    0.0000 S   0  0  0  0  0  0  0  0  0  0  0  0
    8.2417    4.5497    0.0000 O   0  0  0  0  0  0  0  0  0  0  0  0
    8.4227    2.8271    0.0000 O   0  0  0  0  0  0  0  0  0  0  0  0
    4.6660   -0.8070    0.0000 O   0  0  0  0  0  0  0  0  0  0  0  0
    8.0160    1.9136    0.0000 O   0  0  0  0  0  0  0  0  0  0  0  0
    8.6970    0.7339    0.0000 O   0  0  0  0  0  0  0  0  0  0  0  0
    9.3295   -2.8157    0.0000 O   0  0  0  0  0  0  0  0  0  0  0  0
    7.7472   -3.5202    0.0000 O   0  0  0  0  0  0  0  0  0  0  0  0
   12.2684    1.2294    0.0000 O   0  0  0  0  0  0  0  0  0  0  0  0
    6.4337    2.6180    0.0000 N   0  0  0  0  0  0  0  0  0  0  0  0
    7.1147    0.0294    0.0000 N   0  0  0  0  0  0  0  0  0  0  0  0
    7.9282   -1.7976    0.0000 N   0  0  0  0  0  0  0  0  0  0  0  0
   12.0873   -0.4932    0.0000 N   0  0  0  0  0  0  0  0  0  0  0  0
    4.6660   -3.8070    0.0000 N   0  0  0  0  0  0  0  0  0  0  0  0
    6.8404    3.5316    0.0000 C   0  0  3  0  0  0  0  0  0  0  0  0
    5.9269    3.9383    0.0000 C   0  0  2  0  0  0  0  0  0  0  0  0
    6.7359    4.5261    0.0000 C   0  0  0  0  0  0  0  0  0  0  0  0
    7.8350    3.6361    0.0000 C   0  0  0  0  0  0  0  0  0  0  0  0
    4.9324    3.8338    0.0000 C   0  0  0  0  0  0  0  0  0  0  0  0
    6.6147    0.8955    0.0000 C   0  0  2  0  0  0  0  0  0  0  0  0
    7.0215    1.8090    0.0000 C   0  0  0  0  0  0  0  0  0  0  0  0
    5.6366    0.6876    0.0000 C   0  0  0  0  0  0  0  0  0  0  0  0
    5.5321   -0.3070    0.0000 C   0  0  2  0  0  0  0  0  0  0  0  0
    6.4456   -0.7137    0.0000 C   0  0  0  0  0  0  0  0  0  0  0  0
    4.3446    4.6428    0.0000 C   0  0  0  0  0  0  0  0  0  0  0  0
    8.1093   -0.0751    0.0000 C   0  0  0  0  0  0  0  0  0  0  0  0
    8.5160   -0.9886    0.0000 C   0  0  2  0  0  0  0  0  0  0  0  0
    9.5105   -1.0932    0.0000 C   0  0  0  0  0  0  0  0  0  0  0  0
    4.6660   -1.8070    0.0000 C   0  0  0  0  0  0  0  0  0  0  0  0
    9.6150   -0.0986    0.0000 C   0  0  0  0  0  0  0  0  0  0  0  0
    9.4060   -2.0877    0.0000 C   0  0  0  0  0  0  0  0  0  0  0  0
    3.8000   -2.3070    0.0000 C   0  0  0  0  0  0  0  0  0  0  0  0
    8.3349   -2.7112    0.0000 C   0  0  0  0  0  0  0  0  0  0  0  0
    5.5321   -2.3070    0.0000 C   0  0  0  0  0  0  0  0  0  0  0  0
   11.0928   -0.3887    0.0000 C   0  0  0  0  0  0  0  0  0  0  0  0
    3.8000   -3.3070    0.0000 C   0  0  0  0  0  0  0  0  0  0  0  0
    2.9061   -1.7723    0.0000 C   0  0  0  0  0  0  0  0  0  0  0  0
    5.5321   -3.3070    0.0000 C   0  0  0  0  0  0  0  0  0  0  0  0
    9.7362   -3.7293    0.0000 C   0  0  0  0  0  0  0  0  0  0  0  0
    2.9061   -3.8416    0.0000 C   0  0  0  0  0  0  0  0  0  0  0  0
    2.0000   -2.2861    0.0000 C   0  0  0  0  0  0  0  0  0  0  0  0
    2.0000   -3.3278    0.0000 C   0  0  0  0  0  0  0  0  0  0  0  0
   10.1429   -4.6428    0.0000 C   0  0  0  0  0  0  0  0  0  0  0  0
   10.6497   -3.3225    0.0000 C   0  0  0  0  0  0  0  0  0  0  0  0
    8.8227   -4.1360    0.0000 C   0  0  0  0  0  0  0  0  0  0  0  0
   12.6751    0.3158    0.0000 C   0  0  0  0  0  0  0  0  0  0  0  0
   13.6697    0.2113    0.0000 C   0  0  0  0  0  0  0  0  0  0  0  0
    5.8299    3.3260    0.0000 H   0  0  0  0  0  0  0  0  0  0  0  0
    7.3319    4.6970    0.0000 H   0  0  0  0  0  0  0  0  0  0  0  0
    6.4641    5.0834    0.0000 H   0  0  0  0  0  0  0  0  0  0  0  0
    5.8171    2.5532    0.0000 H   0  0  0  0  0  0  0  0  0  0  0  0
    4.6802    3.2674    0.0000 H   0  0  0  0  0  0  0  0  0  0  0  0
    7.2339    0.9279    0.0000 H   0  0  0  0  0  0  0  0  0  0  0  0
    5.5718    1.3042    0.0000 H   0  0  0  0  0  0  0  0  0  0  0  0
    5.0166    0.6876    0.0000 H   0  0  0  0  0  0  0  0  0  0  0  0
    5.5645   -0.9261    0.0000 H   0  0  0  0  0  0  0  0  0  0  0  0
    6.1356   -1.2506    0.0000 H   0  0  0  0  0  0  0  0  0  0  0  0
    6.9472   -1.0781    0.0000 H   0  0  0  0  0  0  0  0  0  0  0  0
    4.5968    5.2092    0.0000 H   0  0  0  0  0  0  0  0  0  0  0  0
    3.7280    4.5780    0.0000 H   0  0  0  0  0  0  0  0  0  0  0  0
    8.8583    4.6145    0.0000 H   0  0  0  0  0  0  0  0  0  0  0  0
    7.8994   -0.9238    0.0000 H   0  0  0  0  0  0  0  0  0  0  0  0
    7.3116   -1.7328    0.0000 H   0  0  0  0  0  0  0  0  0  0  0  0
   10.2316   -0.1634    0.0000 H   0  0  0  0  0  0  0  0  0  0  0  0
    9.6798    0.5180    0.0000 H   0  0  0  0  0  0  0  0  0  0  0  0
    8.9984   -0.0338    0.0000 H   0  0  0  0  0  0  0  0  0  0  0  0
    8.7894   -2.0229    0.0000 H   0  0  0  0  0  0  0  0  0  0  0  0
    9.3412   -2.7043    0.0000 H   0  0  0  0  0  0  0  0  0  0  0  0
   10.0226   -2.1525    0.0000 H   0  0  0  0  0  0  0  0  0  0  0  0
    6.0690   -1.9970    0.0000 H   0  0  0  0  0  0  0  0  0  0  0  0
   11.2637    0.2073    0.0000 H   0  0  0  0  0  0  0  0  0  0  0  0
   10.5356   -0.1169    0.0000 H   0  0  0  0  0  0  0  0  0  0  0  0
    2.9132   -1.1523    0.0000 H   0  0  0  0  0  0  0  0  0  0  0  0
    6.0690   -3.6170    0.0000 H   0  0  0  0  0  0  0  0  0  0  0  0
   12.3395   -1.0596    0.0000 H   0  0  0  0  0  0  0  0  0  0  0  0
    2.9132   -4.4616    0.0000 H   0  0  0  0  0  0  0  0  0  0  0  0
    1.4643   -1.9741    0.0000 H   0  0  0  0  0  0  0  0  0  0  0  0
    1.4643   -3.6398    0.0000 H   0  0  0  0  0  0  0  0  0  0  0  0
    9.5765   -4.8950    0.0000 H   0  0  0  0  0  0  0  0  0  0  0  0
   10.3951   -5.2092    0.0000 H   0  0  0  0  0  0  0  0  0  0  0  0
   10.7093   -4.3906    0.0000 H   0  0  0  0  0  0  0  0  0  0  0  0
   10.9019   -3.8889    0.0000 H   0  0  0  0  0  0  0  0  0  0  0  0
   11.2161   -3.0704    0.0000 H   0  0  0  0  0  0  0  0  0  0  0  0
   10.3976   -2.7561    0.0000 H   0  0  0  0  0  0  0  0  0  0  0  0
    8.5705   -3.5696    0.0000 H   0  0  0  0  0  0  0  0  0  0  0  0
    8.2563   -4.3882    0.0000 H   0  0  0  0  0  0  0  0  0  0  0  0
    9.0748   -4.7024    0.0000 H   0  0  0  0  0  0  0  0  0  0  0  0
   13.6048   -0.4053    0.0000 H   0  0  0  0  0  0  0  0  0  0  0  0
   14.2863    0.1465    0.0000 H   0  0  0  0  0  0  0  0  0  0  0  0
   13.7345    0.8279    0.0000 H   0  0  0  0  0  0  0  0  0  0  0  0
  1 28  1  0  0  0  0
  1 35  1  0  0  0  0
  2 18  1  0  0  0  0
  2 61  1  0  0  0  0
  3 18  2  0  0  0  0
 23  4  1  6  0  0  0
  4 29  1  0  0  0  0
  5 21  2  0  0  0  0
  6 26  2  0  0  0  0
  7 33  1  0  0  0  0
  7 39  1  0  0  0  0
  8 33  2  0  0  0  0
  9 46  2  0  0  0  0
 10 15  1  0  0  0  0
 10 21  1  0  0  0  0
 10 51  1  0  0  0  0
 11 20  1  0  0  0  0
 11 24  1  0  0  0  0
 11 26  1  0  0  0  0
 27 12  1  6  0  0  0
 12 33  1  0  0  0  0
 12 63  1  0  0  0  0
 13 35  1  0  0  0  0
 13 46  1  0  0  0  0
 13 75  1  0  0  0  0
 14 36  1  0  0  0  0
 14 38  2  0  0  0  0
 15 16  1  0  0  0  0
 15 17  1  0  0  0  0
 15 18  1  0  0  0  0
 16 17  1  0  0  0  0
 16 19  1  1  0  0  0
 16 48  1  0  0  0  0
 17 49  1  0  0  0  0
 17 50  1  0  0  0  0
 19 25  2  0  0  0  0
 19 52  1  0  0  0  0
 20 21  1  1  0  0  0
 20 22  1  0  0  0  0
 20 53  1  0  0  0  0
 22 23  1  0  0  0  0
 22 54  1  0  0  0  0
 22 55  1  0  0  0  0
 23 24  1  0  0  0  0
 23 56  1  0  0  0  0
 24 57  1  0  0  0  0
 24 58  1  0  0  0  0
 25 59  1  0  0  0  0
 25 60  1  0  0  0  0
 26 27  1  0  0  0  0
 27 28  1  0  0  0  0
 27 62  1  0  0  0  0
 28 30  1  0  0  0  0
 28 31  1  0  0  0  0
 29 32  1  0  0  0  0
 29 34  2  0  0  0  0
 30 64  1  0  0  0  0
 30 65  1  0  0  0  0
 30 66  1  0  0  0  0
 31 67  1  0  0  0  0
 31 68  1  0  0  0  0
 31 69  1  0  0  0  0
 32 36  1  0  0  0  0
 32 37  2  0  0  0  0
 34 38  1  0  0  0  0
 34 70  1  0  0  0  0
 35 71  1  0  0  0  0
 35 72  1  0  0  0  0
 36 40  2  0  0  0  0
 37 41  1  0  0  0  0
 37 73  1  0  0  0  0
 38 74  1  0  0  0  0
 39 43  1  0  0  0  0
 39 44  1  0  0  0  0
 39 45  1  0  0  0  0
 40 42  1  0  0  0  0
 40 76  1  0  0  0  0
 41 42  2  0  0  0  0
 41 77  1  0  0  0  0
 42 78  1  0  0  0  0
 43 79  1  0  0  0  0
 43 80  1  0  0  0  0
 43 81  1  0  0  0  0
 44 82  1  0  0  0  0
 44 83  1  0  0  0  0
 44 84  1  0  0  0  0
 45 85  1  0  0  0  0
 45 86  1  0  0  0  0
 45 87  1  0  0  0  0
 46 47  1  0  0  0  0
 47 88  1  0  0  0  0
 47 89  1  0  0  0  0
 47 90  1  0  0  0  0
M  END
> <PUBCHEM_COMPOUND_CID>
500683
> <PUBCHEM_COMPOUND_CANONICALIZED>
1
> <PUBCHEM_CACTVS_COMPLEXITY>
1220
> <PUBCHEM_CACTVS_HBOND_ACCEPTOR>
10
> <PUBCHEM_CACTVS_HBOND_DONOR>
4
> <PUBCHEM_CACTVS_ROTATABLE_BOND>
14
> <PUBCHEM_CACTVS_SUBSKEYS>
AAADcfB/vABAAAAAAAAAAAAAGAAAAWAAAAA8QAAAAAAAAACx8AAAHgQQCAAADfzh3ga+zvPIFgioAzX3XACCiCBxIjAI2KG+bJkOZvLksbufeCjm1hnY6Ae6waAOAAAAAAACAAAAAAAAAAQAAAAAAAAAAA==
> <PUBCHEM_IUPAC_OPENEYE_NAME>
(2R)-1-[[(2S,4R)-1-[(2R)-3-(acetamidomethylsulfanyl)-2-(tert-butoxycarbonylamino)-3-methyl-butanoyl]-4-(4-quinolyloxy)pyrrolidine-2-carbonyl]amino]-2-vinyl-cyclopropanecarboxylic acid
> <PUBCHEM_IUPAC_CAS_NAME>
(2R)-1-[[[(2S,4R)-1-[(2R)-3-(acetamidomethylthio)-3-methyl-2-[[(2-methylpropan-2-yl)oxy-oxomethyl]amino]-1-oxobutyl]-4-(4-quinolinyloxy)-2-pyrrolidinyl]-oxomethyl]amino]-2-ethenyl-1-cyclopropanecarboxylic acid
> <PUBCHEM_IUPAC_NAME_MARKUP>
(2<I>R</I>)-1-[[(2<I>S</I>,4<I>R</I>)-1-[(2<I>R</I>)-3-(acetamidomethylsulfanyl)-3-methyl-2-[(2-methylpropan-2-yl)oxycarbonylamino]butanoyl]-4-quinolin-4-yloxypyrrolidine-2-carbonyl]amino]-2-ethenylcyclopropane-1-carboxylic acid
> <PUBCHEM_IUPAC_NAME>
(2R)-1-[[(2S,4R)-1-[(2R)-3-(acetamidomethylsulfanyl)-3-methyl-2-[(2-methylpropan-2-yl)oxycarbonylamino]butanoyl]-4-quinolin-4-yloxypyrrolidine-2-carbonyl]amino]-2-ethenylcyclopropane-1-carboxylic acid
> <PUBCHEM_IUPAC_SYSTEMATIC_NAME>
(2R)-1-[[(2S,4R)-1-[(2R)-3-(acetamidomethylsulfanyl)-3-methyl-2-[(2-methylpropan-2-yl)oxycarbonylamino]butanoyl]-4-quinolin-4-yloxy-pyrrolidin-2-yl]carbonylamino]-2-ethenyl-cyclopropane-1-carboxylic acid
> <PUBCHEM_IUPAC_TRADITIONAL_NAME>
(2R)-1-[[(2S,4R)-1-[(2R)-3-(acetamidomethylthio)-2-(tert-butoxycarbonylamino)-3-methyl-butanoyl]-4-(4-quinolyloxy)prolyl]amino]-2-vinyl-cyclopropanecarboxylic acid
> <PUBCHEM_IUPAC_INCHI>
InChI=1S/C33H43N5O8S/c1-8-20-16-33(20,29(42)43)37-27(40)24-15-21(45-25-13-14-34-23-12-10-9-11-22(23)25)17-38(24)28(41)26(36-30(44)46-31(3,4)5)32(6,7)47-18-35-19(2)39/h8-14,20-21,24,26H,1,15-18H2,2-7H3,(H,35,39)(H,36,44)(H,37,40)(H,42,43)/t20-,21+,24-,26+,33?/m0/s1
> <PUBCHEM_IUPAC_INCHIKEY>
OQPDUKRBGAKVSX-NPKNHMFKSA-N
> <PUBCHEM_XLOGP3_AA>
3.2
> <PUBCHEM_EXACT_MASS>
669.28323452
> <PUBCHEM_MOLECULAR_FORMULA>
C33H43N5O8S
> <PUBCHEM_MOLECULAR_WEIGHT>
669.8
> <PUBCHEM_OPENEYE_CAN_SMILES>
CC(=O)NCSC(C)(C)C(C(=O)N1CC(CC1C(=O)NC2(CC2C=C)C(=O)O)OC3=CC=NC4=CC=CC=C43)NC(=O)OC(C)(C)C
> <PUBCHEM_OPENEYE_ISO_SMILES>
CC(=O)NCSC(C)(C)[C@@H](C(=O)N1C[C@@H](C[C@H]1C(=O)NC2(C[C@@H]2C=C)C(=O)O)OC3=CC=NC4=CC=CC=C43)NC(=O)OC(C)(C)C
> <PUBCHEM_CACTVS_TPSA>
202
> <PUBCHEM_MONOISOTOPIC_WEIGHT>
669.28323452
> <PUBCHEM_TOTAL_CHARGE>
0
> <PUBCHEM_HEAVY_ATOM_COUNT>
47
> <PUBCHEM_ATOM_DEF_STEREO_COUNT>
4
> <PUBCHEM_ATOM_UDEF_STEREO_COUNT>
1
> <PUBCHEM_BOND_DEF_STEREO_COUNT>
0
> <PUBCHEM_BOND_UDEF_STEREO_COUNT>
0
> <PUBCHEM_ISOTOPIC_ATOM_COUNT>
0
> <PUBCHEM_COMPONENT_COUNT>
1
> <PUBCHEM_CACTVS_TAUTO_COUNT>
-1
> <PUBCHEM_COORDINATE_TYPE>
1
5
255
> <PUBCHEM_BONDANNOTATIONS>
27  12  6
14  36  8
14  38  8
15  18  3
16  19  5
20  21  5
29  32  8
29  34  8
32  36  8
32  37  8
34  38  8
36  40  8
37  41  8
23  4  6
40  42  8
41  42  8
$$$$
