500604
  -OEChem-10302200282D
111114  0     1  0  0  0  0  0999 V2000
    5.4641   -1.5200    0.0000 O   0  0  0  0  0  0  0  0  0  0  0  0
    5.6065   -0.1653    0.0000 O   0  0  0  0  0  0  0  0  0  0  0  0
    6.3301   -5.0200    0.0000 O   0  0  0  0  0  0  0  0  0  0  0  0
    2.8660   -6.0200    0.0000 O   0  0  0  0  0  0  0  0  0  0  0  0
    7.1813    3.0781    0.0000 O   0  0  0  0  0  0  0  0  0  0  0  0
    4.5360    3.1292    0.0000 O   0  0  0  0  0  0  0  0  0  0  0  0
    7.1962   -1.5200    0.0000 N   0  0  0  0  0  0  0  0  0  0  0  0
    5.4641   -3.5200    0.0000 N   0  0  0  0  0  0  0  0  0  0  0  0
    3.7320   -4.5200    0.0000 N   0  0  0  0  0  0  0  0  0  0  0  0
    6.7654    1.1218    0.0000 N   0  0  0  0  0  0  0  0  0  0  0  0
    6.0223    1.7910    0.0000 N   0  0  0  0  0  0  0  0  0  0  0  0
    5.6950    4.4164    0.0000 N   0  0  0  0  0  0  0  0  0  0  0  0
    8.7788   -1.1836    0.0000 C   0  0  2  0  0  0  0  0  0  0  0  0
    8.2788   -0.3175    0.0000 C   0  0  0  0  0  0  0  0  0  0  0  0
    7.3007   -0.5254    0.0000 C   0  0  1  0  0  0  0  0  0  0  0  0
    8.1097   -1.9267    0.0000 C   0  0  0  0  0  0  0  0  0  0  0  0
    9.7734   -1.2881    0.0000 C   0  0  0  0  0  0  0  0  0  0  0  0
    4.5981   -6.0200    0.0000 C   0  0  0  0  0  0  0  0  0  0  0  0
    6.3301   -2.0200    0.0000 C   0  0  0  0  0  0  0  0  0  0  0  0
    3.7320   -6.5200    0.0000 C   0  0  0  0  0  0  0  0  0  0  0  0
    5.4641   -6.5200    0.0000 C   0  0  0  0  0  0  0  0  0  0  0  0
    6.3301   -3.0200    0.0000 C   0  0  2  0  0  0  0  0  0  0  0  0
    4.5981   -5.0200    0.0000 C   0  0  3  0  0  0  0  0  0  0  0  0
    3.7320   -7.5200    0.0000 C   0  0  0  0  0  0  0  0  0  0  0  0
    5.4641   -7.5200    0.0000 C   0  0  0  0  0  0  0  0  0  0  0  0
    4.5981   -8.0200    0.0000 C   0  0  0  0  0  0  0  0  0  0  0  0
    6.5575    0.1437    0.0000 C   0  0  0  0  0  0  0  0  0  0  0  0
   10.3611   -0.4791    0.0000 C   0  0  0  0  0  0  0  0  0  0  0  0
    7.1962   -3.5200    0.0000 C   0  0  0  0  0  0  0  0  0  0  0  0
    5.4641   -4.5200    0.0000 C   0  0  0  0  0  0  0  0  0  0  0  0
   11.3557   -0.5836    0.0000 C   0  0  0  0  0  0  0  0  0  0  0  0
    7.1962   -4.5200    0.0000 C   0  0  0  0  0  0  0  0  0  0  0  0
    8.0622   -3.0200    0.0000 C   0  0  0  0  0  0  0  0  0  0  0  0
    2.8660   -5.0200    0.0000 C   0  0  0  0  0  0  0  0  0  0  0  0
   11.7624   -1.4971    0.0000 C   0  0  0  0  0  0  0  0  0  0  0  0
   11.9434    0.2254    0.0000 C   0  0  0  0  0  0  0  0  0  0  0  0
    5.0712    1.4820    0.0000 C   0  0  0  0  0  0  0  0  0  0  0  0
    2.0000   -4.5200    0.0000 C   0  0  0  0  0  0  0  0  0  0  0  0
   12.7569   -1.6017    0.0000 C   0  0  0  0  0  0  0  0  0  0  0  0
   12.9380    0.1209    0.0000 C   0  0  0  0  0  0  0  0  0  0  0  0
    6.2302    2.7691    0.0000 C   0  0  0  0  0  0  0  0  0  0  0  0
    4.3281    2.1511    0.0000 C   0  0  0  0  0  0  0  0  0  0  0  0
   13.3447   -0.7927    0.0000 C   0  0  0  0  0  0  0  0  0  0  0  0
    5.4871    3.4382    0.0000 C   0  0  0  0  0  0  0  0  0  0  0  0
    3.3770    1.8421    0.0000 C   0  0  0  0  0  0  0  0  0  0  0  0
    4.9518    5.0855    0.0000 C   0  0  2  0  0  0  0  0  0  0  0  0
    5.1598    6.0637    0.0000 C   0  0  0  0  0  0  0  0  0  0  0  0
    4.0008    4.7765    0.0000 C   0  0  0  0  0  0  0  0  0  0  0  0
    6.1108    6.3727    0.0000 C   0  0  0  0  0  0  0  0  0  0  0  0
    4.4166    6.7328    0.0000 C   0  0  0  0  0  0  0  0  0  0  0  0
    6.3187    7.3508    0.0000 C   0  0  0  0  0  0  0  0  0  0  0  0
    4.6245    7.7110    0.0000 C   0  0  0  0  0  0  0  0  0  0  0  0
    5.5756    8.0200    0.0000 C   0  0  0  0  0  0  0  0  0  0  0  0
    9.1165   -0.6636    0.0000 H   0  0  0  0  0  0  0  0  0  0  0  0
    8.8452   -0.0654    0.0000 H   0  0  0  0  0  0  0  0  0  0  0  0
    8.0872    0.2721    0.0000 H   0  0  0  0  0  0  0  0  0  0  0  0
    6.7219   -0.7476    0.0000 H   0  0  0  0  0  0  0  0  0  0  0  0
    7.7997   -2.4636    0.0000 H   0  0  0  0  0  0  0  0  0  0  0  0
    8.6113   -2.2911    0.0000 H   0  0  0  0  0  0  0  0  0  0  0  0
    9.6025   -1.8841    0.0000 H   0  0  0  0  0  0  0  0  0  0  0  0
   10.3306   -1.5599    0.0000 H   0  0  0  0  0  0  0  0  0  0  0  0
    5.1350   -5.7100    0.0000 H   0  0  0  0  0  0  0  0  0  0  0  0
    3.5200   -5.9374    0.0000 H   0  0  0  0  0  0  0  0  0  0  0  0
    3.1215   -6.6276    0.0000 H   0  0  0  0  0  0  0  0  0  0  0  0
    6.0747   -6.6276    0.0000 H   0  0  0  0  0  0  0  0  0  0  0  0
    5.6762   -5.9374    0.0000 H   0  0  0  0  0  0  0  0  0  0  0  0
    5.7932   -2.7100    0.0000 H   0  0  0  0  0  0  0  0  0  0  0  0
    4.5981   -4.4000    0.0000 H   0  0  0  0  0  0  0  0  0  0  0  0
    3.1215   -7.4123    0.0000 H   0  0  0  0  0  0  0  0  0  0  0  0
    3.5200   -8.1026    0.0000 H   0  0  0  0  0  0  0  0  0  0  0  0
    5.6762   -8.1026    0.0000 H   0  0  0  0  0  0  0  0  0  0  0  0
    6.0747   -7.4123    0.0000 H   0  0  0  0  0  0  0  0  0  0  0  0
    4.1996   -8.4949    0.0000 H   0  0  0  0  0  0  0  0  0  0  0  0
    4.9966   -8.4949    0.0000 H   0  0  0  0  0  0  0  0  0  0  0  0
   10.5320    0.1169    0.0000 H   0  0  0  0  0  0  0  0  0  0  0  0
    9.8039   -0.2073    0.0000 H   0  0  0  0  0  0  0  0  0  0  0  0
    6.6592   -3.8300    0.0000 H   0  0  0  0  0  0  0  0  0  0  0  0
    4.9272   -3.2100    0.0000 H   0  0  0  0  0  0  0  0  0  0  0  0
    3.7320   -3.9000    0.0000 H   0  0  0  0  0  0  0  0  0  0  0  0
    7.3551    1.3134    0.0000 H   0  0  0  0  0  0  0  0  0  0  0  0
    6.5762   -4.5200    0.0000 H   0  0  0  0  0  0  0  0  0  0  0  0
    7.1962   -5.1400    0.0000 H   0  0  0  0  0  0  0  0  0  0  0  0
    7.8162   -4.5200    0.0000 H   0  0  0  0  0  0  0  0  0  0  0  0
    8.3722   -3.5569    0.0000 H   0  0  0  0  0  0  0  0  0  0  0  0
    8.5991   -2.7100    0.0000 H   0  0  0  0  0  0  0  0  0  0  0  0
    7.7522   -2.4830    0.0000 H   0  0  0  0  0  0  0  0  0  0  0  0
   11.3980   -1.9987    0.0000 H   0  0  0  0  0  0  0  0  0  0  0  0
   11.6913    0.7918    0.0000 H   0  0  0  0  0  0  0  0  0  0  0  0
    4.5827    1.1002    0.0000 H   0  0  0  0  0  0  0  0  0  0  0  0
    5.3623    0.9345    0.0000 H   0  0  0  0  0  0  0  0  0  0  0  0
    2.3100   -3.9830    0.0000 H   0  0  0  0  0  0  0  0  0  0  0  0
    1.4631   -4.2100    0.0000 H   0  0  0  0  0  0  0  0  0  0  0  0
    1.6900   -5.0569    0.0000 H   0  0  0  0  0  0  0  0  0  0  0  0
   13.0091   -2.1681    0.0000 H   0  0  0  0  0  0  0  0  0  0  0  0
   13.3024    0.6225    0.0000 H   0  0  0  0  0  0  0  0  0  0  0  0
    4.8167    2.5328    0.0000 H   0  0  0  0  0  0  0  0  0  0  0  0
    4.0370    2.6985    0.0000 H   0  0  0  0  0  0  0  0  0  0  0  0
   13.9613   -0.8575    0.0000 H   0  0  0  0  0  0  0  0  0  0  0  0
    3.1854    2.4317    0.0000 H   0  0  0  0  0  0  0  0  0  0  0  0
    2.7874    1.6505    0.0000 H   0  0  0  0  0  0  0  0  0  0  0  0
    3.5686    1.2524    0.0000 H   0  0  0  0  0  0  0  0  0  0  0  0
    6.2846    4.6080    0.0000 H   0  0  0  0  0  0  0  0  0  0  0  0
    4.8229    4.4791    0.0000 H   0  0  0  0  0  0  0  0  0  0  0  0
    3.8092    5.3662    0.0000 H   0  0  0  0  0  0  0  0  0  0  0  0
    3.4111    4.5849    0.0000 H   0  0  0  0  0  0  0  0  0  0  0  0
    4.1924    4.1868    0.0000 H   0  0  0  0  0  0  0  0  0  0  0  0
    6.5716    5.9578    0.0000 H   0  0  0  0  0  0  0  0  0  0  0  0
    3.8270    6.5412    0.0000 H   0  0  0  0  0  0  0  0  0  0  0  0
    6.9084    7.5424    0.0000 H   0  0  0  0  0  0  0  0  0  0  0  0
    4.1638    8.1258    0.0000 H   0  0  0  0  0  0  0  0  0  0  0  0
    5.7045    8.6264    0.0000 H   0  0  0  0  0  0  0  0  0  0  0  0
  1 19  2  0  0  0  0
  2 27  2  0  0  0  0
  3 30  2  0  0  0  0
  4 34  2  0  0  0  0
  5 41  2  0  0  0  0
  6 44  2  0  0  0  0
  7 15  1  0  0  0  0
  7 16  1  0  0  0  0
  7 19  1  0  0  0  0
 22  8  1  6  0  0  0
  8 30  1  0  0  0  0
  8 78  1  0  0  0  0
  9 23  1  0  0  0  0
  9 34  1  0  0  0  0
  9 79  1  0  0  0  0
 10 11  1  0  0  0  0
 10 27  1  0  0  0  0
 10 80  1  0  0  0  0
 11 37  1  0  0  0  0
 11 41  1  0  0  0  0
 12 44  1  0  0  0  0
 46 12  1  1  0  0  0
 12102  1  0  0  0  0
 13 14  1  0  0  0  0
 13 16  1  0  0  0  0
 13 17  1  1  0  0  0
 13 54  1  0  0  0  0
 14 15  1  0  0  0  0
 14 55  1  0  0  0  0
 14 56  1  0  0  0  0
 15 27  1  6  0  0  0
 15 57  1  0  0  0  0
 16 58  1  0  0  0  0
 16 59  1  0  0  0  0
 17 28  1  0  0  0  0
 17 60  1  0  0  0  0
 17 61  1  0  0  0  0
 18 20  1  0  0  0  0
 18 21  1  0  0  0  0
 18 23  1  0  0  0  0
 18 62  1  0  0  0  0
 19 22  1  0  0  0  0
 20 24  1  0  0  0  0
 20 63  1  0  0  0  0
 20 64  1  0  0  0  0
 21 25  1  0  0  0  0
 21 65  1  0  0  0  0
 21 66  1  0  0  0  0
 22 29  1  0  0  0  0
 22 67  1  0  0  0  0
 23 30  1  0  0  0  0
 23 68  1  0  0  0  0
 24 26  1  0  0  0  0
 24 69  1  0  0  0  0
 24 70  1  0  0  0  0
 25 26  1  0  0  0  0
 25 71  1  0  0  0  0
 25 72  1  0  0  0  0
 26 73  1  0  0  0  0
 26 74  1  0  0  0  0
 28 31  1  0  0  0  0
 28 75  1  0  0  0  0
 28 76  1  0  0  0  0
 29 32  1  0  0  0  0
 29 33  1  0  0  0  0
 29 77  1  0  0  0  0
 31 35  2  0  0  0  0
 31 36  1  0  0  0  0
 32 81  1  0  0  0  0
 32 82  1  0  0  0  0
 32 83  1  0  0  0  0
 33 84  1  0  0  0  0
 33 85  1  0  0  0  0
 33 86  1  0  0  0  0
 34 38  1  0  0  0  0
 35 39  1  0  0  0  0
 35 87  1  0  0  0  0
 36 40  2  0  0  0  0
 36 88  1  0  0  0  0
 37 42  1  0  0  0  0
 37 89  1  0  0  0  0
 37 90  1  0  0  0  0
 38 91  1  0  0  0  0
 38 92  1  0  0  0  0
 38 93  1  0  0  0  0
 39 43  2  0  0  0  0
 39 94  1  0  0  0  0
 40 43  1  0  0  0  0
 40 95  1  0  0  0  0
 41 44  1  0  0  0  0
 42 45  1  0  0  0  0
 42 96  1  0  0  0  0
 42 97  1  0  0  0  0
 43 98  1  0  0  0  0
 45 99  1  0  0  0  0
 45100  1  0  0  0  0
 45101  1  0  0  0  0
 46 47  1  0  0  0  0
 46 48  1  0  0  0  0
 46103  1  0  0  0  0
 47 49  2  0  0  0  0
 47 50  1  0  0  0  0
 48104  1  0  0  0  0
 48105  1  0  0  0  0
 48106  1  0  0  0  0
 49 51  1  0  0  0  0
 49107  1  0  0  0  0
 50 52  2  0  0  0  0
 50108  1  0  0  0  0
 51 53  2  0  0  0  0
 51109  1  0  0  0  0
 52 53  1  0  0  0  0
 52110  1  0  0  0  0
 53111  1  0  0  0  0
M  END
> <PUBCHEM_COMPOUND_CID>
500604
> <PUBCHEM_COMPOUND_CANONICALIZED>
1
> <PUBCHEM_CACTVS_COMPLEXITY>
1240
> <PUBCHEM_CACTVS_HBOND_ACCEPTOR>
6
> <PUBCHEM_CACTVS_HBOND_DONOR>
4
> <PUBCHEM_CACTVS_ROTATABLE_BOND>
14
> <PUBCHEM_CACTVS_SUBSKEYS>
AAADcfB/uAAAAAAAAAAAAAAAAAAAAWAAAAAwYMAAAAAAAAABQAAAHgAYAAAADSjBmAQyAIPiAACIAiFSEACCAAAgAAAaqIGIBIgIYDKAkTGUIAhglgCIiAcYicCOAAAAAAAAAAAAAAAAAAAAAAAAAAAAAA==
> <PUBCHEM_IUPAC_OPENEYE_NAME>
2-acetamido-2-cyclohexyl-N-[(1S)-2-methyl-1-[(2S,4R)-2-[[[2-oxo-2-[[(1S)-1-phenylethyl]amino]acetyl]-propyl-amino]carbamoyl]-4-(2-phenylethyl)pyrrolidine-1-carbonyl]propyl]acetamide
> <PUBCHEM_IUPAC_CAS_NAME>
2-acetamido-2-cyclohexyl-N-[(2S)-1-[(2S,4R)-2-[[2-[1,2-dioxo-2-[[(1S)-1-phenylethyl]amino]ethyl]-2-propylhydrazinyl]-oxomethyl]-4-(2-phenylethyl)-1-pyrrolidinyl]-3-methyl-1-oxobutan-2-yl]acetamide
> <PUBCHEM_IUPAC_NAME_MARKUP>
2-acetamido-2-cyclohexyl-<I>N</I>-[(2<I>S</I>)-3-methyl-1-oxo-1-[(2<I>S</I>,4<I>R</I>)-2-[[[2-oxo-2-[[(1<I>S</I>)-1-phenylethyl]amino]acetyl]-propylamino]carbamoyl]-4-(2-phenylethyl)pyrrolidin-1-yl]butan-2-yl]acetamide
> <PUBCHEM_IUPAC_NAME>
2-acetamido-2-cyclohexyl-N-[(2S)-3-methyl-1-oxo-1-[(2S,4R)-2-[[[2-oxo-2-[[(1S)-1-phenylethyl]amino]acetyl]-propylamino]carbamoyl]-4-(2-phenylethyl)pyrrolidin-1-yl]butan-2-yl]acetamide
> <PUBCHEM_IUPAC_SYSTEMATIC_NAME>
2-acetamido-2-cyclohexyl-N-[(2S)-3-methyl-1-oxidanylidene-1-[(2S,4R)-2-[[[2-oxidanylidene-2-[[(1S)-1-phenylethyl]amino]ethanoyl]-propyl-amino]carbamoyl]-4-(2-phenylethyl)pyrrolidin-1-yl]butan-2-yl]ethanamide
> <PUBCHEM_IUPAC_TRADITIONAL_NAME>
2-acetamido-2-cyclohexyl-N-[(1S)-1-[(2S,4R)-2-[[[2-keto-2-[[(1S)-1-phenylethyl]amino]acetyl]-propyl-amino]carbamoyl]-4-phenethyl-pyrrolidine-1-carbonyl]-2-methyl-propyl]acetamide
> <PUBCHEM_IUPAC_INCHI>
InChI=1S/C41H58N6O6/c1-6-24-47(41(53)39(51)42-28(4)32-18-12-8-13-19-32)45-37(49)34-25-31(23-22-30-16-10-7-11-17-30)26-46(34)40(52)35(27(2)3)44-38(50)36(43-29(5)48)33-20-14-9-15-21-33/h7-8,10-13,16-19,27-28,31,33-36H,6,9,14-15,20-26H2,1-5H3,(H,42,51)(H,43,48)(H,44,50)(H,45,49)/t28-,31+,34-,35-,36?/m0/s1
> <PUBCHEM_IUPAC_INCHIKEY>
PXFPMYPJPSYCOW-HGVHHOHFSA-N
> <PUBCHEM_XLOGP3_AA>
7
> <PUBCHEM_EXACT_MASS>
730.44178359
> <PUBCHEM_MOLECULAR_FORMULA>
C41H58N6O6
> <PUBCHEM_MOLECULAR_WEIGHT>
730.9
> <PUBCHEM_OPENEYE_CAN_SMILES>
CCCN(C(=O)C(=O)NC(C)C1=CC=CC=C1)NC(=O)C2CC(CN2C(=O)C(C(C)C)NC(=O)C(C3CCCCC3)NC(=O)C)CCC4=CC=CC=C4
> <PUBCHEM_OPENEYE_ISO_SMILES>
CCCN(C(=O)C(=O)N[C@@H](C)C1=CC=CC=C1)NC(=O)[C@@H]2C[C@H](CN2C(=O)[C@H](C(C)C)NC(=O)C(C3CCCCC3)NC(=O)C)CCC4=CC=CC=C4
> <PUBCHEM_CACTVS_TPSA>
157
> <PUBCHEM_MONOISOTOPIC_WEIGHT>
730.44178359
> <PUBCHEM_TOTAL_CHARGE>
0
> <PUBCHEM_HEAVY_ATOM_COUNT>
53
> <PUBCHEM_ATOM_DEF_STEREO_COUNT>
4
> <PUBCHEM_ATOM_UDEF_STEREO_COUNT>
1
> <PUBCHEM_BOND_DEF_STEREO_COUNT>
0
> <PUBCHEM_BOND_UDEF_STEREO_COUNT>
0
> <PUBCHEM_ISOTOPIC_ATOM_COUNT>
0
> <PUBCHEM_COMPONENT_COUNT>
1
> <PUBCHEM_CACTVS_TAUTO_COUNT>
-1
> <PUBCHEM_COORDINATE_TYPE>
1
5
255
> <PUBCHEM_BONDANNOTATIONS>
46  12  5
13  17  5
15  27  6
23  30  3
31  35  8
31  36  8
35  39  8
36  40  8
39  43  8
40  43  8
47  49  8
47  50  8
49  51  8
50  52  8
51  53  8
52  53  8
22  8  6
$$$$
