500630
  -OEChem-10302200282D
 86 90  0     1  0  0  0  0  0999 V2000
    3.0990    1.0120    0.0000 Cl  0  0  0  0  0  0  0  0  0  0  0  0
    2.0000    0.1220    0.0000 Cl  0  0  0  0  0  0  0  0  0  0  0  0
    2.8900   -0.9771    0.0000 Cl  0  0  0  0  0  0  0  0  0  0  0  0
    8.8739    1.1201    0.0000 O   0  0  0  0  0  0  0  0  0  0  0  0
   13.1263   -3.6367    0.0000 O   0  0  0  0  0  0  0  0  0  0  0  0
    9.5549   -3.1413    0.0000 O   0  0  0  0  0  0  0  0  0  0  0  0
   12.9452   -1.9142    0.0000 O   0  0  0  0  0  0  0  0  0  0  0  0
    8.1928   -3.1413    0.0000 O   0  0  0  0  0  0  0  0  0  0  0  0
    4.9836   -0.1916    0.0000 O   0  0  0  0  0  0  0  0  0  0  0  0
    4.8025   -1.9142    0.0000 O   0  0  0  0  0  0  0  0  0  0  0  0
   10.9562   -2.1232    0.0000 N   0  0  0  0  0  0  0  0  0  0  0  0
    8.3739   -1.4187    0.0000 N   0  0  0  0  0  0  0  0  0  0  0  0
    6.3848   -1.2097    0.0000 N   0  0  0  0  0  0  0  0  0  0  0  0
   11.5440   -2.9322    0.0000 C   0  0  0  0  0  0  0  0  0  0  0  0
   10.7349   -3.5200    0.0000 C   0  0  0  0  0  0  0  0  0  0  0  0
   11.6485   -3.9267    0.0000 C   0  0  0  0  0  0  0  0  0  0  0  0
    9.3739   -1.4187    0.0000 C   0  0  1  0  0  0  0  0  0  0  0  0
    6.2038   -2.9322    0.0000 C   0  0  0  0  0  0  0  0  0  0  0  0
    9.6829   -0.4677    0.0000 C   0  0  0  0  0  0  0  0  0  0  0  0
    8.8739    0.1201    0.0000 C   0  0  2  0  0  0  0  0  0  0  0  0
    6.7916   -2.1232    0.0000 C   0  0  1  0  0  0  0  0  0  0  0  0
    8.0648   -0.4677    0.0000 C   0  0  0  0  0  0  0  0  0  0  0  0
    9.9616   -2.2277    0.0000 C   0  0  0  0  0  0  0  0  0  0  0  0
    5.2092   -2.8277    0.0000 C   0  0  0  0  0  0  0  0  0  0  0  0
    6.6105   -3.8458    0.0000 C   0  0  0  0  0  0  0  0  0  0  0  0
   12.5385   -2.8277    0.0000 C   0  0  0  0  0  0  0  0  0  0  0  0
    7.7861   -2.2277    0.0000 C   0  0  0  0  0  0  0  0  0  0  0  0
    4.6215   -3.6367    0.0000 C   0  0  0  0  0  0  0  0  0  0  0  0
    6.0227   -4.6548    0.0000 C   0  0  0  0  0  0  0  0  0  0  0  0
    5.0282   -4.5503    0.0000 C   0  0  0  0  0  0  0  0  0  0  0  0
    9.7399    1.6201    0.0000 C   0  0  0  0  0  0  0  0  0  0  0  0
    5.3903   -1.1051    0.0000 C   0  0  0  0  0  0  0  0  0  0  0  0
    9.7399    2.6201    0.0000 C   0  0  0  0  0  0  0  0  0  0  0  0
    3.9890   -0.0871    0.0000 C   0  0  0  0  0  0  0  0  0  0  0  0
   10.6059    3.1201    0.0000 C   0  0  0  0  0  0  0  0  0  0  0  0
    8.8739    3.1201    0.0000 C   0  0  0  0  0  0  0  0  0  0  0  0
   10.6059    4.1201    0.0000 C   0  0  0  0  0  0  0  0  0  0  0  0
    2.9945    0.0175    0.0000 C   0  0  0  0  0  0  0  0  0  0  0  0
    4.0936    0.9075    0.0000 C   0  0  0  0  0  0  0  0  0  0  0  0
    3.8845   -1.0816    0.0000 C   0  0  0  0  0  0  0  0  0  0  0  0
    8.8739    4.1201    0.0000 C   0  0  0  0  0  0  0  0  0  0  0  0
   11.4999    2.5855    0.0000 C   0  0  0  0  0  0  0  0  0  0  0  0
    9.7399    4.6201    0.0000 C   0  0  0  0  0  0  0  0  0  0  0  0
   11.4999    4.6548    0.0000 C   0  0  0  0  0  0  0  0  0  0  0  0
   12.4059    3.0993    0.0000 C   0  0  0  0  0  0  0  0  0  0  0  0
   12.4059    4.1409    0.0000 C   0  0  0  0  0  0  0  0  0  0  0  0
   10.2890   -3.0893    0.0000 H   0  0  0  0  0  0  0  0  0  0  0  0
   10.3882   -4.0340    0.0000 H   0  0  0  0  0  0  0  0  0  0  0  0
   11.4985   -4.5283    0.0000 H   0  0  0  0  0  0  0  0  0  0  0  0
   12.2670   -3.9700    0.0000 H   0  0  0  0  0  0  0  0  0  0  0  0
    9.0924   -1.9711    0.0000 H   0  0  0  0  0  0  0  0  0  0  0  0
    6.8204   -2.9970    0.0000 H   0  0  0  0  0  0  0  0  0  0  0  0
   11.2084   -1.5568    0.0000 H   0  0  0  0  0  0  0  0  0  0  0  0
   10.2493   -0.7198    0.0000 H   0  0  0  0  0  0  0  0  0  0  0  0
    9.9929    0.0693    0.0000 H   0  0  0  0  0  0  0  0  0  0  0  0
    9.4263    0.4016    0.0000 H   0  0  0  0  0  0  0  0  0  0  0  0
    6.1750   -2.0584    0.0000 H   0  0  0  0  0  0  0  0  0  0  0  0
    7.7548    0.0693    0.0000 H   0  0  0  0  0  0  0  0  0  0  0  0
    7.4984   -0.7198    0.0000 H   0  0  0  0  0  0  0  0  0  0  0  0
    5.3802   -2.2317    0.0000 H   0  0  0  0  0  0  0  0  0  0  0  0
    4.6520   -2.5559    0.0000 H   0  0  0  0  0  0  0  0  0  0  0  0
    7.0412   -4.2918    0.0000 H   0  0  0  0  0  0  0  0  0  0  0  0
    7.1245   -3.4991    0.0000 H   0  0  0  0  0  0  0  0  0  0  0  0
    4.1908   -3.1907    0.0000 H   0  0  0  0  0  0  0  0  0  0  0  0
    4.1075   -3.9834    0.0000 H   0  0  0  0  0  0  0  0  0  0  0  0
    5.8518   -5.2508    0.0000 H   0  0  0  0  0  0  0  0  0  0  0  0
    6.5800   -4.9266    0.0000 H   0  0  0  0  0  0  0  0  0  0  0  0
    4.4266   -4.7002    0.0000 H   0  0  0  0  0  0  0  0  0  0  0  0
    5.0714   -5.1688    0.0000 H   0  0  0  0  0  0  0  0  0  0  0  0
    6.7492   -0.7081    0.0000 H   0  0  0  0  0  0  0  0  0  0  0  0
   13.7429   -3.5719    0.0000 H   0  0  0  0  0  0  0  0  0  0  0  0
    9.9520    1.0375    0.0000 H   0  0  0  0  0  0  0  0  0  0  0  0
   10.3505    1.7278    0.0000 H   0  0  0  0  0  0  0  0  0  0  0  0
    8.3369    2.8101    0.0000 H   0  0  0  0  0  0  0  0  0  0  0  0
    4.7102    0.8427    0.0000 H   0  0  0  0  0  0  0  0  0  0  0  0
    4.1584    1.5241    0.0000 H   0  0  0  0  0  0  0  0  0  0  0  0
    3.4770    0.9723    0.0000 H   0  0  0  0  0  0  0  0  0  0  0  0
    3.2679   -1.0168    0.0000 H   0  0  0  0  0  0  0  0  0  0  0  0
    3.8197   -1.6982    0.0000 H   0  0  0  0  0  0  0  0  0  0  0  0
    4.5011   -1.1464    0.0000 H   0  0  0  0  0  0  0  0  0  0  0  0
    8.3369    4.4301    0.0000 H   0  0  0  0  0  0  0  0  0  0  0  0
   11.4927    1.9655    0.0000 H   0  0  0  0  0  0  0  0  0  0  0  0
    9.7399    5.2401    0.0000 H   0  0  0  0  0  0  0  0  0  0  0  0
   11.4927    5.2747    0.0000 H   0  0  0  0  0  0  0  0  0  0  0  0
   12.9417    2.7872    0.0000 H   0  0  0  0  0  0  0  0  0  0  0  0
   12.9417    4.4530    0.0000 H   0  0  0  0  0  0  0  0  0  0  0  0
  1 38  1  0  0  0  0
  2 38  1  0  0  0  0
  3 38  1  0  0  0  0
 20  4  1  6  0  0  0
  4 31  1  0  0  0  0
  5 26  1  0  0  0  0
  5 71  1  0  0  0  0
  6 23  2  0  0  0  0
  7 26  2  0  0  0  0
  8 27  2  0  0  0  0
  9 32  1  0  0  0  0
  9 34  1  0  0  0  0
 10 32  2  0  0  0  0
 11 14  1  0  0  0  0
 11 23  1  0  0  0  0
 11 53  1  0  0  0  0
 12 17  1  0  0  0  0
 12 22  1  0  0  0  0
 12 27  1  0  0  0  0
 21 13  1  6  0  0  0
 13 32  1  0  0  0  0
 13 70  1  0  0  0  0
 14 15  1  0  0  0  0
 14 16  1  0  0  0  0
 14 26  1  0  0  0  0
 15 16  1  0  0  0  0
 15 47  1  0  0  0  0
 15 48  1  0  0  0  0
 16 49  1  0  0  0  0
 16 50  1  0  0  0  0
 17 19  1  0  0  0  0
 17 23  1  1  0  0  0
 17 51  1  0  0  0  0
 18 21  1  0  0  0  0
 18 24  1  0  0  0  0
 18 25  1  0  0  0  0
 18 52  1  0  0  0  0
 19 20  1  0  0  0  0
 19 54  1  0  0  0  0
 19 55  1  0  0  0  0
 20 22  1  0  0  0  0
 20 56  1  0  0  0  0
 21 27  1  0  0  0  0
 21 57  1  0  0  0  0
 22 58  1  0  0  0  0
 22 59  1  0  0  0  0
 24 28  1  0  0  0  0
 24 60  1  0  0  0  0
 24 61  1  0  0  0  0
 25 29  1  0  0  0  0
 25 62  1  0  0  0  0
 25 63  1  0  0  0  0
 28 30  1  0  0  0  0
 28 64  1  0  0  0  0
 28 65  1  0  0  0  0
 29 30  1  0  0  0  0
 29 66  1  0  0  0  0
 29 67  1  0  0  0  0
 30 68  1  0  0  0  0
 30 69  1  0  0  0  0
 31 33  1  0  0  0  0
 31 72  1  0  0  0  0
 31 73  1  0  0  0  0
 33 35  1  0  0  0  0
 33 36  2  0  0  0  0
 34 38  1  0  0  0  0
 34 39  1  0  0  0  0
 34 40  1  0  0  0  0
 35 37  1  0  0  0  0
 35 42  2  0  0  0  0
 36 41  1  0  0  0  0
 36 74  1  0  0  0  0
 37 43  1  0  0  0  0
 37 44  2  0  0  0  0
 39 75  1  0  0  0  0
 39 76  1  0  0  0  0
 39 77  1  0  0  0  0
 40 78  1  0  0  0  0
 40 79  1  0  0  0  0
 40 80  1  0  0  0  0
 41 43  2  0  0  0  0
 41 81  1  0  0  0  0
 42 45  1  0  0  0  0
 42 82  1  0  0  0  0
 43 83  1  0  0  0  0
 44 46  1  0  0  0  0
 44 84  1  0  0  0  0
 45 46  2  0  0  0  0
 45 85  1  0  0  0  0
 46 86  1  0  0  0  0
M  END
> <PUBCHEM_COMPOUND_CID>
500630
> <PUBCHEM_COMPOUND_CANONICALIZED>
1
> <PUBCHEM_CACTVS_COMPLEXITY>
1140
> <PUBCHEM_CACTVS_HBOND_ACCEPTOR>
7
> <PUBCHEM_CACTVS_HBOND_DONOR>
3
> <PUBCHEM_CACTVS_ROTATABLE_BOND>
11
> <PUBCHEM_CACTVS_SUBSKEYS>
AAADcfB/OAAGAAAAAAAAAAAAGAAAAWAAAAAwYMAAAAAAAADBUAAAHgIQCAAADf7hmIYyCMPABgCIAiHSGAACAAAgAAAIiIGIC4kKZjKAsTifcAAm1gGYqAe6yeCOgAACAAAQAAAAAAQAACAAAAAAAAAAAA==
> <PUBCHEM_IUPAC_OPENEYE_NAME>
1-[[(2S,4R)-1-[(2S)-2-cyclohexyl-2-[(2,2,2-trichloro-1,1-dimethyl-ethoxy)carbonylamino]acetyl]-4-(1-naphthylmethoxy)pyrrolidine-2-carbonyl]amino]cyclopropanecarboxylic acid
> <PUBCHEM_IUPAC_CAS_NAME>
1-[[[(2S,4R)-1-[(2S)-2-cyclohexyl-1-oxo-2-[[oxo-(1,1,1-trichloro-2-methylpropan-2-yl)oxymethyl]amino]ethyl]-4-(1-naphthalenylmethoxy)-2-pyrrolidinyl]-oxomethyl]amino]-1-cyclopropanecarboxylic acid
> <PUBCHEM_IUPAC_NAME_MARKUP>
1-[[(2<I>S</I>,4<I>R</I>)-1-[(2<I>S</I>)-2-cyclohexyl-2-[(1,1,1-trichloro-2-methylpropan-2-yl)oxycarbonylamino]acetyl]-4-(naphthalen-1-ylmethoxy)pyrrolidine-2-carbonyl]amino]cyclopropane-1-carboxylic acid
> <PUBCHEM_IUPAC_NAME>
1-[[(2S,4R)-1-[(2S)-2-cyclohexyl-2-[(1,1,1-trichloro-2-methylpropan-2-yl)oxycarbonylamino]acetyl]-4-(naphthalen-1-ylmethoxy)pyrrolidine-2-carbonyl]amino]cyclopropane-1-carboxylic acid
> <PUBCHEM_IUPAC_SYSTEMATIC_NAME>
1-[[(2S,4R)-1-[(2S)-2-cyclohexyl-2-[[1,1,1-tris(chloranyl)-2-methyl-propan-2-yl]oxycarbonylamino]ethanoyl]-4-(naphthalen-1-ylmethoxy)pyrrolidin-2-yl]carbonylamino]cyclopropane-1-carboxylic acid
> <PUBCHEM_IUPAC_TRADITIONAL_NAME>
1-[[(2S,4R)-1-[(2S)-2-cyclohexyl-2-[(2,2,2-trichloro-1,1-dimethyl-ethoxy)carbonylamino]acetyl]-4-(1-naphthylmethoxy)prolyl]amino]cyclopropanecarboxylic acid
> <PUBCHEM_IUPAC_INCHI>
InChI=1S/C33H40Cl3N3O7/c1-31(2,33(34,35)36)46-30(44)37-26(21-10-4-3-5-11-21)28(41)39-18-23(17-25(39)27(40)38-32(15-16-32)29(42)43)45-19-22-13-8-12-20-9-6-7-14-24(20)22/h6-9,12-14,21,23,25-26H,3-5,10-11,15-19H2,1-2H3,(H,37,44)(H,38,40)(H,42,43)/t23-,25+,26+/m1/s1
> <PUBCHEM_IUPAC_INCHIKEY>
FWKCAPHZZRUNPI-AFESJLNVSA-N
> <PUBCHEM_XLOGP3_AA>
6.5
> <PUBCHEM_EXACT_MASS>
695.193184
> <PUBCHEM_MOLECULAR_FORMULA>
C33H40Cl3N3O7
> <PUBCHEM_MOLECULAR_WEIGHT>
697.0
> <PUBCHEM_OPENEYE_CAN_SMILES>
CC(C)(C(Cl)(Cl)Cl)OC(=O)NC(C1CCCCC1)C(=O)N2CC(CC2C(=O)NC3(CC3)C(=O)O)OCC4=CC=CC5=CC=CC=C54
> <PUBCHEM_OPENEYE_ISO_SMILES>
CC(C)(C(Cl)(Cl)Cl)OC(=O)N[C@@H](C1CCCCC1)C(=O)N2C[C@@H](C[C@H]2C(=O)NC3(CC3)C(=O)O)OCC4=CC=CC5=CC=CC=C54
> <PUBCHEM_CACTVS_TPSA>
134
> <PUBCHEM_MONOISOTOPIC_WEIGHT>
695.193184
> <PUBCHEM_TOTAL_CHARGE>
0
> <PUBCHEM_HEAVY_ATOM_COUNT>
46
> <PUBCHEM_ATOM_DEF_STEREO_COUNT>
3
> <PUBCHEM_ATOM_UDEF_STEREO_COUNT>
0
> <PUBCHEM_BOND_DEF_STEREO_COUNT>
0
> <PUBCHEM_BOND_UDEF_STEREO_COUNT>
0
> <PUBCHEM_ISOTOPIC_ATOM_COUNT>
0
> <PUBCHEM_COMPONENT_COUNT>
1
> <PUBCHEM_CACTVS_TAUTO_COUNT>
-1
> <PUBCHEM_COORDINATE_TYPE>
1
5
255
> <PUBCHEM_BONDANNOTATIONS>
21  13  6
17  23  5
33  35  8
33  36  8
35  37  8
35  42  8
36  41  8
37  43  8
37  44  8
20  4  6
41  43  8
42  45  8
44  46  8
45  46  8
$$$$
