500677
  -OEChem-10302200282D
 82 85  0     1  0  0  0  0  0999 V2000
    8.2417    4.5497    0.0000 O   0  0  0  0  0  0  0  0  0  0  0  0
    8.4227    2.8271    0.0000 O   0  0  0  0  0  0  0  0  0  0  0  0
    4.6660   -0.8070    0.0000 O   0  0  0  0  0  0  0  0  0  0  0  0
    8.0160    1.9136    0.0000 O   0  0  0  0  0  0  0  0  0  0  0  0
    8.6970    0.7339    0.0000 O   0  0  0  0  0  0  0  0  0  0  0  0
    9.3295   -2.8157    0.0000 O   0  0  0  0  0  0  0  0  0  0  0  0
    7.7472   -3.5202    0.0000 O   0  0  0  0  0  0  0  0  0  0  0  0
    6.4337    2.6180    0.0000 N   0  0  0  0  0  0  0  0  0  0  0  0
    7.1147    0.0294    0.0000 N   0  0  0  0  0  0  0  0  0  0  0  0
    7.9282   -1.7976    0.0000 N   0  0  0  0  0  0  0  0  0  0  0  0
    4.6660   -3.8070    0.0000 N   0  0  0  0  0  0  0  0  0  0  0  0
    6.8404    3.5316    0.0000 C   0  0  3  0  0  0  0  0  0  0  0  0
    5.9269    3.9383    0.0000 C   0  0  2  0  0  0  0  0  0  0  0  0
    6.7359    4.5261    0.0000 C   0  0  0  0  0  0  0  0  0  0  0  0
    7.8350    3.6361    0.0000 C   0  0  0  0  0  0  0  0  0  0  0  0
    6.6147    0.8955    0.0000 C   0  0  2  0  0  0  0  0  0  0  0  0
    4.9324    3.8338    0.0000 C   0  0  0  0  0  0  0  0  0  0  0  0
    7.0215    1.8090    0.0000 C   0  0  0  0  0  0  0  0  0  0  0  0
    5.6366    0.6876    0.0000 C   0  0  0  0  0  0  0  0  0  0  0  0
    5.5321   -0.3070    0.0000 C   0  0  2  0  0  0  0  0  0  0  0  0
    6.4456   -0.7137    0.0000 C   0  0  0  0  0  0  0  0  0  0  0  0
    8.1093   -0.0751    0.0000 C   0  0  0  0  0  0  0  0  0  0  0  0
    8.5160   -0.9886    0.0000 C   0  0  2  0  0  0  0  0  0  0  0  0
    4.3446    4.6428    0.0000 C   0  0  0  0  0  0  0  0  0  0  0  0
    9.5105   -1.0932    0.0000 C   0  0  0  0  0  0  0  0  0  0  0  0
   10.5050   -1.1977    0.0000 C   0  0  0  0  0  0  0  0  0  0  0  0
    9.6150   -0.0986    0.0000 C   0  0  0  0  0  0  0  0  0  0  0  0
    9.4060   -2.0877    0.0000 C   0  0  0  0  0  0  0  0  0  0  0  0
    4.6660   -1.8070    0.0000 C   0  0  0  0  0  0  0  0  0  0  0  0
    8.3349   -2.7112    0.0000 C   0  0  0  0  0  0  0  0  0  0  0  0
    3.8000   -2.3070    0.0000 C   0  0  0  0  0  0  0  0  0  0  0  0
    5.5321   -2.3070    0.0000 C   0  0  0  0  0  0  0  0  0  0  0  0
    3.8000   -3.3070    0.0000 C   0  0  0  0  0  0  0  0  0  0  0  0
    9.7362   -3.7293    0.0000 C   0  0  0  0  0  0  0  0  0  0  0  0
    2.9061   -1.7723    0.0000 C   0  0  0  0  0  0  0  0  0  0  0  0
    5.5321   -3.3070    0.0000 C   0  0  0  0  0  0  0  0  0  0  0  0
    2.9061   -3.8416    0.0000 C   0  0  0  0  0  0  0  0  0  0  0  0
    2.0000   -2.2861    0.0000 C   0  0  0  0  0  0  0  0  0  0  0  0
   10.1429   -4.6428    0.0000 C   0  0  0  0  0  0  0  0  0  0  0  0
   10.6497   -3.3225    0.0000 C   0  0  0  0  0  0  0  0  0  0  0  0
    8.8227   -4.1360    0.0000 C   0  0  0  0  0  0  0  0  0  0  0  0
    2.0000   -3.3278    0.0000 C   0  0  0  0  0  0  0  0  0  0  0  0
    5.8299    3.3260    0.0000 H   0  0  0  0  0  0  0  0  0  0  0  0
    7.3319    4.6970    0.0000 H   0  0  0  0  0  0  0  0  0  0  0  0
    6.4641    5.0834    0.0000 H   0  0  0  0  0  0  0  0  0  0  0  0
    5.8171    2.5532    0.0000 H   0  0  0  0  0  0  0  0  0  0  0  0
    7.2339    0.9279    0.0000 H   0  0  0  0  0  0  0  0  0  0  0  0
    4.6802    3.2674    0.0000 H   0  0  0  0  0  0  0  0  0  0  0  0
    5.5718    1.3042    0.0000 H   0  0  0  0  0  0  0  0  0  0  0  0
    5.0166    0.6876    0.0000 H   0  0  0  0  0  0  0  0  0  0  0  0
    5.5645   -0.9261    0.0000 H   0  0  0  0  0  0  0  0  0  0  0  0
    6.1356   -1.2506    0.0000 H   0  0  0  0  0  0  0  0  0  0  0  0
    6.9472   -1.0781    0.0000 H   0  0  0  0  0  0  0  0  0  0  0  0
    7.8994   -0.9238    0.0000 H   0  0  0  0  0  0  0  0  0  0  0  0
    4.5968    5.2092    0.0000 H   0  0  0  0  0  0  0  0  0  0  0  0
    3.7280    4.5780    0.0000 H   0  0  0  0  0  0  0  0  0  0  0  0
    8.8583    4.6145    0.0000 H   0  0  0  0  0  0  0  0  0  0  0  0
   10.4402   -1.8143    0.0000 H   0  0  0  0  0  0  0  0  0  0  0  0
   11.1216   -1.2625    0.0000 H   0  0  0  0  0  0  0  0  0  0  0  0
   10.5698   -0.5811    0.0000 H   0  0  0  0  0  0  0  0  0  0  0  0
   10.2316   -0.1634    0.0000 H   0  0  0  0  0  0  0  0  0  0  0  0
    9.6798    0.5180    0.0000 H   0  0  0  0  0  0  0  0  0  0  0  0
    8.9984   -0.0338    0.0000 H   0  0  0  0  0  0  0  0  0  0  0  0
    8.7894   -2.0229    0.0000 H   0  0  0  0  0  0  0  0  0  0  0  0
    9.3412   -2.7043    0.0000 H   0  0  0  0  0  0  0  0  0  0  0  0
   10.0226   -2.1525    0.0000 H   0  0  0  0  0  0  0  0  0  0  0  0
    7.3116   -1.7328    0.0000 H   0  0  0  0  0  0  0  0  0  0  0  0
    6.0690   -1.9970    0.0000 H   0  0  0  0  0  0  0  0  0  0  0  0
    2.9132   -1.1523    0.0000 H   0  0  0  0  0  0  0  0  0  0  0  0
    6.0690   -3.6170    0.0000 H   0  0  0  0  0  0  0  0  0  0  0  0
    2.9132   -4.4616    0.0000 H   0  0  0  0  0  0  0  0  0  0  0  0
    1.4643   -1.9741    0.0000 H   0  0  0  0  0  0  0  0  0  0  0  0
    9.5765   -4.8950    0.0000 H   0  0  0  0  0  0  0  0  0  0  0  0
   10.3951   -5.2092    0.0000 H   0  0  0  0  0  0  0  0  0  0  0  0
   10.7093   -4.3906    0.0000 H   0  0  0  0  0  0  0  0  0  0  0  0
   10.9019   -3.8889    0.0000 H   0  0  0  0  0  0  0  0  0  0  0  0
   11.2161   -3.0704    0.0000 H   0  0  0  0  0  0  0  0  0  0  0  0
   10.3976   -2.7561    0.0000 H   0  0  0  0  0  0  0  0  0  0  0  0
    8.5705   -3.5696    0.0000 H   0  0  0  0  0  0  0  0  0  0  0  0
    8.2563   -4.3882    0.0000 H   0  0  0  0  0  0  0  0  0  0  0  0
    9.0748   -4.7024    0.0000 H   0  0  0  0  0  0  0  0  0  0  0  0
    1.4643   -3.6398    0.0000 H   0  0  0  0  0  0  0  0  0  0  0  0
  1 15  1  0  0  0  0
  1 57  1  0  0  0  0
  2 15  2  0  0  0  0
 20  3  1  6  0  0  0
  3 29  1  0  0  0  0
  4 18  2  0  0  0  0
  5 22  2  0  0  0  0
  6 30  1  0  0  0  0
  6 34  1  0  0  0  0
  7 30  2  0  0  0  0
  8 12  1  0  0  0  0
  8 18  1  0  0  0  0
  8 46  1  0  0  0  0
  9 16  1  0  0  0  0
  9 21  1  0  0  0  0
  9 22  1  0  0  0  0
 23 10  1  6  0  0  0
 10 30  1  0  0  0  0
 10 67  1  0  0  0  0
 11 33  1  0  0  0  0
 11 36  2  0  0  0  0
 12 13  1  0  0  0  0
 12 14  1  0  0  0  0
 12 15  1  0  0  0  0
 13 14  1  0  0  0  0
 13 17  1  1  0  0  0
 13 43  1  0  0  0  0
 14 44  1  0  0  0  0
 14 45  1  0  0  0  0
 16 18  1  1  0  0  0
 16 19  1  0  0  0  0
 16 47  1  0  0  0  0
 17 24  2  0  0  0  0
 17 48  1  0  0  0  0
 19 20  1  0  0  0  0
 19 49  1  0  0  0  0
 19 50  1  0  0  0  0
 20 21  1  0  0  0  0
 20 51  1  0  0  0  0
 21 52  1  0  0  0  0
 21 53  1  0  0  0  0
 22 23  1  0  0  0  0
 23 25  1  0  0  0  0
 23 54  1  0  0  0  0
 24 55  1  0  0  0  0
 24 56  1  0  0  0  0
 25 26  1  0  0  0  0
 25 27  1  0  0  0  0
 25 28  1  0  0  0  0
 26 58  1  0  0  0  0
 26 59  1  0  0  0  0
 26 60  1  0  0  0  0
 27 61  1  0  0  0  0
 27 62  1  0  0  0  0
 27 63  1  0  0  0  0
 28 64  1  0  0  0  0
 28 65  1  0  0  0  0
 28 66  1  0  0  0  0
 29 31  1  0  0  0  0
 29 32  2  0  0  0  0
 31 33  1  0  0  0  0
 31 35  2  0  0  0  0
 32 36  1  0  0  0  0
 32 68  1  0  0  0  0
 33 37  2  0  0  0  0
 34 39  1  0  0  0  0
 34 40  1  0  0  0  0
 34 41  1  0  0  0  0
 35 38  1  0  0  0  0
 35 69  1  0  0  0  0
 36 70  1  0  0  0  0
 37 42  1  0  0  0  0
 37 71  1  0  0  0  0
 38 42  2  0  0  0  0
 38 72  1  0  0  0  0
 39 73  1  0  0  0  0
 39 74  1  0  0  0  0
 39 75  1  0  0  0  0
 40 76  1  0  0  0  0
 40 77  1  0  0  0  0
 40 78  1  0  0  0  0
 41 79  1  0  0  0  0
 41 80  1  0  0  0  0
 41 81  1  0  0  0  0
 42 82  1  0  0  0  0
M  END
> <PUBCHEM_COMPOUND_CID>
500677
> <PUBCHEM_COMPOUND_CANONICALIZED>
1
> <PUBCHEM_CACTVS_COMPLEXITY>
1070
> <PUBCHEM_CACTVS_HBOND_ACCEPTOR>
8
> <PUBCHEM_CACTVS_HBOND_DONOR>
3
> <PUBCHEM_CACTVS_ROTATABLE_BOND>
11
> <PUBCHEM_CACTVS_SUBSKEYS>
AAADcfB7uAAAAAAAAAAAAAAAGAAAAWAAAAA8QAAAAAAAAACx8AAAHgAQCAAAD/zhngY+zvPIFgCoAzX3XACCiCAxIiAI2KG+bJkOZvLEsbufeCjm1hnY6Ae6waAPAAAAAAACAAAAAAAAAAQAAAAAAAAAAA==
> <PUBCHEM_IUPAC_OPENEYE_NAME>
(2R)-1-[[(2S,4R)-1-[(2S)-2-(tert-butoxycarbonylamino)-3,3-dimethyl-butanoyl]-4-(4-quinolyloxy)pyrrolidine-2-carbonyl]amino]-2-vinyl-cyclopropanecarboxylic acid
> <PUBCHEM_IUPAC_CAS_NAME>
(2R)-1-[[[(2S,4R)-1-[(2S)-3,3-dimethyl-2-[[(2-methylpropan-2-yl)oxy-oxomethyl]amino]-1-oxobutyl]-4-(4-quinolinyloxy)-2-pyrrolidinyl]-oxomethyl]amino]-2-ethenyl-1-cyclopropanecarboxylic acid
> <PUBCHEM_IUPAC_NAME_MARKUP>
(2<I>R</I>)-1-[[(2<I>S</I>,4<I>R</I>)-1-[(2<I>S</I>)-3,3-dimethyl-2-[(2-methylpropan-2-yl)oxycarbonylamino]butanoyl]-4-quinolin-4-yloxypyrrolidine-2-carbonyl]amino]-2-ethenylcyclopropane-1-carboxylic acid
> <PUBCHEM_IUPAC_NAME>
(2R)-1-[[(2S,4R)-1-[(2S)-3,3-dimethyl-2-[(2-methylpropan-2-yl)oxycarbonylamino]butanoyl]-4-quinolin-4-yloxypyrrolidine-2-carbonyl]amino]-2-ethenylcyclopropane-1-carboxylic acid
> <PUBCHEM_IUPAC_SYSTEMATIC_NAME>
(2R)-1-[[(2S,4R)-1-[(2S)-3,3-dimethyl-2-[(2-methylpropan-2-yl)oxycarbonylamino]butanoyl]-4-quinolin-4-yloxy-pyrrolidin-2-yl]carbonylamino]-2-ethenyl-cyclopropane-1-carboxylic acid
> <PUBCHEM_IUPAC_TRADITIONAL_NAME>
(2R)-1-[[(2S,4R)-1-[(2S)-2-(tert-butoxycarbonylamino)-3,3-dimethyl-butanoyl]-4-(4-quinolyloxy)prolyl]amino]-2-vinyl-cyclopropanecarboxylic acid
> <PUBCHEM_IUPAC_INCHI>
InChI=1S/C31H40N4O7/c1-8-18-16-31(18,27(38)39)34-25(36)22-15-19(41-23-13-14-32-21-12-10-9-11-20(21)23)17-35(22)26(37)24(29(2,3)4)33-28(40)42-30(5,6)7/h8-14,18-19,22,24H,1,15-17H2,2-7H3,(H,33,40)(H,34,36)(H,38,39)/t18-,19+,22-,24+,31?/m0/s1
> <PUBCHEM_IUPAC_INCHIKEY>
DDFUZAULQGHJAW-OQNPFJRWSA-N
> <PUBCHEM_XLOGP3_AA>
4.2
> <PUBCHEM_EXACT_MASS>
580.28969963
> <PUBCHEM_MOLECULAR_FORMULA>
C31H40N4O7
> <PUBCHEM_MOLECULAR_WEIGHT>
580.7
> <PUBCHEM_OPENEYE_CAN_SMILES>
CC(C)(C)C(C(=O)N1CC(CC1C(=O)NC2(CC2C=C)C(=O)O)OC3=CC=NC4=CC=CC=C43)NC(=O)OC(C)(C)C
> <PUBCHEM_OPENEYE_ISO_SMILES>
CC(C)(C)[C@@H](C(=O)N1C[C@@H](C[C@H]1C(=O)NC2(C[C@@H]2C=C)C(=O)O)OC3=CC=NC4=CC=CC=C43)NC(=O)OC(C)(C)C
> <PUBCHEM_CACTVS_TPSA>
147
> <PUBCHEM_MONOISOTOPIC_WEIGHT>
580.28969963
> <PUBCHEM_TOTAL_CHARGE>
0
> <PUBCHEM_HEAVY_ATOM_COUNT>
42
> <PUBCHEM_ATOM_DEF_STEREO_COUNT>
4
> <PUBCHEM_ATOM_UDEF_STEREO_COUNT>
1
> <PUBCHEM_BOND_DEF_STEREO_COUNT>
0
> <PUBCHEM_BOND_UDEF_STEREO_COUNT>
0
> <PUBCHEM_ISOTOPIC_ATOM_COUNT>
0
> <PUBCHEM_COMPONENT_COUNT>
1
> <PUBCHEM_CACTVS_TAUTO_COUNT>
-1
> <PUBCHEM_COORDINATE_TYPE>
1
5
255
> <PUBCHEM_BONDANNOTATIONS>
23  10  6
11  33  8
11  36  8
12  15  3
13  17  5
16  18  5
29  31  8
29  32  8
20  3  6
31  33  8
31  35  8
32  36  8
33  37  8
35  38  8
37  42  8
38  42  8
$$$$
