500620
  -OEChem-10302200282D
135138  0     1  0  0  0  0  0999 V2000
   14.3411   -3.0770    0.0000 O   0  0  0  0  0  0  0  0  0  0  0  0
   12.7889    0.9497    0.0000 O   0  0  0  0  0  0  0  0  0  0  0  0
   14.1213    1.2329    0.0000 O   0  0  0  0  0  0  0  0  0  0  0  0
    9.7279   -0.9555    0.0000 O   0  0  0  0  0  0  0  0  0  0  0  0
    8.0337   -0.5954    0.0000 O   0  0  0  0  0  0  0  0  0  0  0  0
    7.7063    2.0300    0.0000 O   0  0  0  0  0  0  0  0  0  0  0  0
   17.6926    0.7375    0.0000 O   0  0  0  0  0  0  0  0  0  0  0  0
    4.6453    0.1249    0.0000 O   0  0  0  0  0  0  0  0  0  0  0  0
   18.4128    4.3441    0.0000 O   0  0  0  0  0  0  0  0  0  0  0  0
    4.2294   -1.8314    0.0000 O   0  0  0  0  0  0  0  0  0  0  0  0
    5.9236   -2.1916    0.0000 O   0  0  0  0  0  0  0  0  0  0  0  0
    3.7827    4.3976    0.0000 O   0  0  0  0  0  0  0  0  0  0  0  0
    2.6237    3.1104    0.0000 O   0  0  0  0  0  0  0  0  0  0  0  0
    3.6942   -0.1842    0.0000 O   0  0  0  0  0  0  0  0  0  0  0  0
   13.3242   -0.6976    0.0000 N   0  0  0  0  0  0  0  0  0  0  0  0
   10.8868    0.3317    0.0000 N   0  0  0  0  0  0  0  0  0  0  0  0
   15.7036    0.5284    0.0000 N   0  0  0  0  0  0  0  0  0  0  0  0
   16.1103    1.4420    0.0000 N   0  0  0  0  0  0  0  0  0  0  0  0
    8.2416    0.3828    0.0000 N   0  0  0  0  0  0  0  0  0  0  0  0
    5.8042    1.4120    0.0000 N   0  0  0  0  0  0  0  0  0  0  0  0
    3.1590    1.4631    0.0000 N   0  0  0  0  0  0  0  0  0  0  0  0
   19.8910    3.6860    0.0000 N   0  0  0  0  0  0  0  0  0  0  0  0
   19.0820    5.0873    0.0000 N   0  0  0  0  0  0  0  0  0  0  0  0
   21.7276    4.6806    0.0000 N   0  0  0  0  0  0  0  0  0  0  0  0
   14.3023   -0.4897    0.0000 C   0  0  1  0  0  0  0  0  0  0  0  0
   14.1332   -2.0988    0.0000 C   0  0  2  0  0  0  0  0  0  0  0  0
   14.8023   -1.3557    0.0000 C   0  0  0  0  0  0  0  0  0  0  0  0
   13.2196   -1.6921    0.0000 C   0  0  0  0  0  0  0  0  0  0  0  0
   12.5810   -0.0284    0.0000 C   0  0  0  0  0  0  0  0  0  0  0  0
   11.6300   -0.3375    0.0000 C   0  0  2  0  0  0  0  0  0  0  0  0
   14.7091    0.4239    0.0000 C   0  0  0  0  0  0  0  0  0  0  0  0
   11.4221   -1.3156    0.0000 C   0  0  0  0  0  0  0  0  0  0  0  0
    9.1926    0.6918    0.0000 C   0  0  2  0  0  0  0  0  0  0  0  0
   13.5980   -3.7461    0.0000 C   0  0  0  0  0  0  0  0  0  0  0  0
   10.4710   -1.6246    0.0000 C   0  0  0  0  0  0  0  0  0  0  0  0
   12.1652   -1.9847    0.0000 C   0  0  0  0  0  0  0  0  0  0  0  0
    9.9358    0.0227    0.0000 C   0  0  0  0  0  0  0  0  0  0  0  0
    9.4005    1.6699    0.0000 C   0  0  2  0  0  0  0  0  0  0  0  0
    8.6574    2.3391    0.0000 C   0  0  0  0  0  0  0  0  0  0  0  0
   13.8059   -4.7242    0.0000 C   0  0  0  0  0  0  0  0  0  0  0  0
   10.3516    1.9790    0.0000 C   0  0  0  0  0  0  0  0  0  0  0  0
   15.5225    2.2510    0.0000 C   0  0  0  0  0  0  0  0  0  0  0  0
    7.4984    1.0519    0.0000 C   0  0  0  0  0  0  0  0  0  0  0  0
   17.1048    1.5465    0.0000 C   0  0  0  0  0  0  0  0  0  0  0  0
    8.8653    3.3172    0.0000 C   0  0  0  0  0  0  0  0  0  0  0  0
    6.5474    0.7429    0.0000 C   0  0  1  0  0  0  0  0  0  0  0  0
   14.7569   -5.0333    0.0000 C   0  0  0  0  0  0  0  0  0  0  0  0
   13.0627   -5.3934    0.0000 C   0  0  0  0  0  0  0  0  0  0  0  0
   14.5280    2.1465    0.0000 C   0  0  0  0  0  0  0  0  0  0  0  0
   17.5116    2.4600    0.0000 C   0  0  0  0  0  0  0  0  0  0  0  0
    6.3395   -0.2353    0.0000 C   0  0  0  0  0  0  0  0  0  0  0  0
   14.9648   -6.0114    0.0000 C   0  0  0  0  0  0  0  0  0  0  0  0
   13.2706   -6.3715    0.0000 C   0  0  0  0  0  0  0  0  0  0  0  0
   13.9402    2.9555    0.0000 C   0  0  0  0  0  0  0  0  0  0  0  0
   18.5061    2.5646    0.0000 C   0  0  0  0  0  0  0  0  0  0  0  0
    5.3884   -0.5443    0.0000 C   0  0  0  0  0  0  0  0  0  0  0  0
   14.2217   -6.6806    0.0000 C   0  0  0  0  0  0  0  0  0  0  0  0
    4.8532    1.1030    0.0000 C   0  0  0  0  0  0  0  0  0  0  0  0
    4.1100    1.7721    0.0000 C   0  0  2  0  0  0  0  0  0  0  0  0
   18.9128    3.4781    0.0000 C   0  0  0  0  0  0  0  0  0  0  0  0
    5.1805   -1.5224    0.0000 C   0  0  0  0  0  0  0  0  0  0  0  0
    4.3179    2.7503    0.0000 C   0  0  0  0  0  0  0  0  0  0  0  0
    3.5748    3.4194    0.0000 C   0  0  0  0  0  0  0  0  0  0  0  0
   19.9955    4.6806    0.0000 C   0  0  0  0  0  0  0  0  0  0  0  0
    2.9511    0.4850    0.0000 C   0  0  0  0  0  0  0  0  0  0  0  0
    2.0000    0.1760    0.0000 C   0  0  0  0  0  0  0  0  0  0  0  0
   20.8615    5.1806    0.0000 C   0  0  0  0  0  0  0  0  0  0  0  0
   20.8615    6.1806    0.0000 C   0  0  0  0  0  0  0  0  0  0  0  0
   21.7276    6.6806    0.0000 C   0  0  0  0  0  0  0  0  0  0  0  0
   22.5936    5.1806    0.0000 C   0  0  0  0  0  0  0  0  0  0  0  0
   22.5936    6.1806    0.0000 C   0  0  0  0  0  0  0  0  0  0  0  0
   13.9121   -0.0078    0.0000 H   0  0  0  0  0  0  0  0  0  0  0  0
   13.6514   -2.4890    0.0000 H   0  0  0  0  0  0  0  0  0  0  0  0
   15.2172   -1.8164    0.0000 H   0  0  0  0  0  0  0  0  0  0  0  0
   15.3039   -0.9913    0.0000 H   0  0  0  0  0  0  0  0  0  0  0  0
   12.6132   -1.5632    0.0000 H   0  0  0  0  0  0  0  0  0  0  0  0
   13.0281   -2.2817    0.0000 H   0  0  0  0  0  0  0  0  0  0  0  0
   11.7589    0.2690    0.0000 H   0  0  0  0  0  0  0  0  0  0  0  0
   10.9613   -0.9007    0.0000 H   0  0  0  0  0  0  0  0  0  0  0  0
   11.0157    0.9381    0.0000 H   0  0  0  0  0  0  0  0  0  0  0  0
    9.0637    0.0853    0.0000 H   0  0  0  0  0  0  0  0  0  0  0  0
   13.2694   -3.2203    0.0000 H   0  0  0  0  0  0  0  0  0  0  0  0
   13.0231   -3.9784    0.0000 H   0  0  0  0  0  0  0  0  0  0  0  0
   16.0680    0.0268    0.0000 H   0  0  0  0  0  0  0  0  0  0  0  0
   10.2794   -1.0350    0.0000 H   0  0  0  0  0  0  0  0  0  0  0  0
    9.8814   -1.8162    0.0000 H   0  0  0  0  0  0  0  0  0  0  0  0
   10.6626   -2.2143    0.0000 H   0  0  0  0  0  0  0  0  0  0  0  0
   11.7503   -2.4455    0.0000 H   0  0  0  0  0  0  0  0  0  0  0  0
   12.6260   -2.3996    0.0000 H   0  0  0  0  0  0  0  0  0  0  0  0
   12.5801   -1.5240    0.0000 H   0  0  0  0  0  0  0  0  0  0  0  0
    9.5294    2.2764    0.0000 H   0  0  0  0  0  0  0  0  0  0  0  0
    8.0825    2.5713    0.0000 H   0  0  0  0  0  0  0  0  0  0  0  0
    8.3288    1.8133    0.0000 H   0  0  0  0  0  0  0  0  0  0  0  0
   10.5432    1.3893    0.0000 H   0  0  0  0  0  0  0  0  0  0  0  0
   10.9413    2.1706    0.0000 H   0  0  0  0  0  0  0  0  0  0  0  0
   10.1600    2.5686    0.0000 H   0  0  0  0  0  0  0  0  0  0  0  0
   16.0798    2.5228    0.0000 H   0  0  0  0  0  0  0  0  0  0  0  0
   15.3516    2.8470    0.0000 H   0  0  0  0  0  0  0  0  0  0  0  0
    9.4718    3.1883    0.0000 H   0  0  0  0  0  0  0  0  0  0  0  0
    8.9942    3.9237    0.0000 H   0  0  0  0  0  0  0  0  0  0  0  0
    8.2588    3.4461    0.0000 H   0  0  0  0  0  0  0  0  0  0  0  0
    6.6763    1.3493    0.0000 H   0  0  0  0  0  0  0  0  0  0  0  0
   15.2177   -4.6184    0.0000 H   0  0  0  0  0  0  0  0  0  0  0  0
   12.4731   -5.2018    0.0000 H   0  0  0  0  0  0  0  0  0  0  0  0
   13.9708    1.8747    0.0000 H   0  0  0  0  0  0  0  0  0  0  0  0
   14.6989    1.5505    0.0000 H   0  0  0  0  0  0  0  0  0  0  0  0
   17.5548    3.0785    0.0000 H   0  0  0  0  0  0  0  0  0  0  0  0
   16.9100    2.6100    0.0000 H   0  0  0  0  0  0  0  0  0  0  0  0
    6.4258   -0.8492    0.0000 H   0  0  0  0  0  0  0  0  0  0  0  0
    6.9591   -0.2569    0.0000 H   0  0  0  0  0  0  0  0  0  0  0  0
    7.4440   -0.7870    0.0000 H   0  0  0  0  0  0  0  0  0  0  0  0
    5.9331    2.0185    0.0000 H   0  0  0  0  0  0  0  0  0  0  0  0
   15.5545   -6.2030    0.0000 H   0  0  0  0  0  0  0  0  0  0  0  0
   12.8099   -6.7864    0.0000 H   0  0  0  0  0  0  0  0  0  0  0  0
   14.4418    3.3199    0.0000 H   0  0  0  0  0  0  0  0  0  0  0  0
   13.5758    3.4571    0.0000 H   0  0  0  0  0  0  0  0  0  0  0  0
   13.4386    2.5910    0.0000 H   0  0  0  0  0  0  0  0  0  0  0  0
   18.4629    1.9461    0.0000 H   0  0  0  0  0  0  0  0  0  0  0  0
   19.1077    2.4146    0.0000 H   0  0  0  0  0  0  0  0  0  0  0  0
    5.3021    0.0697    0.0000 H   0  0  0  0  0  0  0  0  0  0  0  0
    4.7688   -0.5226    0.0000 H   0  0  0  0  0  0  0  0  0  0  0  0
   14.3506   -7.2870    0.0000 H   0  0  0  0  0  0  0  0  0  0  0  0
    3.9811    1.1657    0.0000 H   0  0  0  0  0  0  0  0  0  0  0  0
    4.8928    2.5180    0.0000 H   0  0  0  0  0  0  0  0  0  0  0  0
    4.6465    3.2761    0.0000 H   0  0  0  0  0  0  0  0  0  0  0  0
    2.6982    1.8780    0.0000 H   0  0  0  0  0  0  0  0  0  0  0  0
    4.1005   -2.4379    0.0000 H   0  0  0  0  0  0  0  0  0  0  0  0
    1.8084    0.7656    0.0000 H   0  0  0  0  0  0  0  0  0  0  0  0
    1.4103   -0.0156    0.0000 H   0  0  0  0  0  0  0  0  0  0  0  0
    2.1916   -0.4137    0.0000 H   0  0  0  0  0  0  0  0  0  0  0  0
    3.3220    4.8124    0.0000 H   0  0  0  0  0  0  0  0  0  0  0  0
   20.3246    6.4906    0.0000 H   0  0  0  0  0  0  0  0  0  0  0  0
   21.7276    7.3006    0.0000 H   0  0  0  0  0  0  0  0  0  0  0  0
   23.1305    4.8706    0.0000 H   0  0  0  0  0  0  0  0  0  0  0  0
   23.1305    6.4906    0.0000 H   0  0  0  0  0  0  0  0  0  0  0  0
 26  1  1  1  0  0  0
  1 34  1  0  0  0  0
  2 29  2  0  0  0  0
  3 31  2  0  0  0  0
  4 37  2  0  0  0  0
  5 19  1  0  0  0  0
  5111  1  0  0  0  0
  6 43  2  0  0  0  0
  7 44  2  0  0  0  0
  8 58  2  0  0  0  0
  9 23  1  0  0  0  0
  9 60  1  0  0  0  0
 10 61  1  0  0  0  0
 10127  1  0  0  0  0
 11 61  2  0  0  0  0
 12 63  1  0  0  0  0
 12131  1  0  0  0  0
 13 63  2  0  0  0  0
 14 65  2  0  0  0  0
 15 25  1  0  0  0  0
 15 28  1  0  0  0  0
 15 29  1  0  0  0  0
 30 16  1  6  0  0  0
 16 37  1  0  0  0  0
 16 80  1  0  0  0  0
 17 18  1  0  0  0  0
 17 31  1  0  0  0  0
 17 84  1  0  0  0  0
 18 42  1  0  0  0  0
 18 44  1  0  0  0  0
 33 19  1  1  0  0  0
 19 43  1  0  0  0  0
 46 20  1  1  0  0  0
 20 58  1  0  0  0  0
 20112  1  0  0  0  0
 59 21  1  1  0  0  0
 21 65  1  0  0  0  0
 21126  1  0  0  0  0
 22 60  2  0  0  0  0
 22 64  1  0  0  0  0
 23 64  2  0  0  0  0
 24 67  1  0  0  0  0
 24 70  2  0  0  0  0
 25 27  1  0  0  0  0
 25 31  1  6  0  0  0
 25 72  1  0  0  0  0
 26 27  1  0  0  0  0
 26 28  1  0  0  0  0
 26 73  1  0  0  0  0
 27 74  1  0  0  0  0
 27 75  1  0  0  0  0
 28 76  1  0  0  0  0
 28 77  1  0  0  0  0
 29 30  1  0  0  0  0
 30 32  1  0  0  0  0
 30 78  1  0  0  0  0
 32 35  1  0  0  0  0
 32 36  1  0  0  0  0
 32 79  1  0  0  0  0
 33 37  1  0  0  0  0
 33 38  1  0  0  0  0
 33 81  1  0  0  0  0
 34 40  1  0  0  0  0
 34 82  1  0  0  0  0
 34 83  1  0  0  0  0
 35 85  1  0  0  0  0
 35 86  1  0  0  0  0
 35 87  1  0  0  0  0
 36 88  1  0  0  0  0
 36 89  1  0  0  0  0
 36 90  1  0  0  0  0
 38 39  1  0  0  0  0
 38 41  1  6  0  0  0
 38 91  1  0  0  0  0
 39 45  1  0  0  0  0
 39 92  1  0  0  0  0
 39 93  1  0  0  0  0
 40 47  2  0  0  0  0
 40 48  1  0  0  0  0
 41 94  1  0  0  0  0
 41 95  1  0  0  0  0
 41 96  1  0  0  0  0
 42 49  1  0  0  0  0
 42 97  1  0  0  0  0
 42 98  1  0  0  0  0
 43 46  1  0  0  0  0
 44 50  1  0  0  0  0
 45 99  1  0  0  0  0
 45100  1  0  0  0  0
 45101  1  0  0  0  0
 46 51  1  0  0  0  0
 46102  1  0  0  0  0
 47 52  1  0  0  0  0
 47103  1  0  0  0  0
 48 53  2  0  0  0  0
 48104  1  0  0  0  0
 49 54  1  0  0  0  0
 49105  1  0  0  0  0
 49106  1  0  0  0  0
 50 55  1  0  0  0  0
 50107  1  0  0  0  0
 50108  1  0  0  0  0
 51 56  1  0  0  0  0
 51109  1  0  0  0  0
 51110  1  0  0  0  0
 52 57  2  0  0  0  0
 52113  1  0  0  0  0
 53 57  1  0  0  0  0
 53114  1  0  0  0  0
 54115  1  0  0  0  0
 54116  1  0  0  0  0
 54117  1  0  0  0  0
 55 60  1  0  0  0  0
 55118  1  0  0  0  0
 55119  1  0  0  0  0
 56 61  1  0  0  0  0
 56120  1  0  0  0  0
 56121  1  0  0  0  0
 57122  1  0  0  0  0
 58 59  1  0  0  0  0
 59 62  1  0  0  0  0
 59123  1  0  0  0  0
 62 63  1  0  0  0  0
 62124  1  0  0  0  0
 62125  1  0  0  0  0
 64 67  1  0  0  0  0
 65 66  1  0  0  0  0
 66128  1  0  0  0  0
 66129  1  0  0  0  0
 66130  1  0  0  0  0
 67 68  2  0  0  0  0
 68 69  1  0  0  0  0
 68132  1  0  0  0  0
 69 71  2  0  0  0  0
 69133  1  0  0  0  0
 70 71  1  0  0  0  0
 70134  1  0  0  0  0
 71135  1  0  0  0  0
M  END
> <PUBCHEM_COMPOUND_CID>
500620
> <PUBCHEM_COMPOUND_CANONICALIZED>
1
> <PUBCHEM_CACTVS_COMPLEXITY>
1840
> <PUBCHEM_CACTVS_HBOND_ACCEPTOR>
17
> <PUBCHEM_CACTVS_HBOND_DONOR>
7
> <PUBCHEM_CACTVS_ROTATABLE_BOND>
26
> <PUBCHEM_CACTVS_SUBSKEYS>
AAADcfB//AAAAAAAAAAAAAAAAAAAAWLAAAA8QAAAAAAAAAAB8AAAHgAcCAAADTzhnwY/mJf6FgCpAzf3fgCCgCkxAqA7+KG4bJiKbvrAubmXcAhm1wPY6Ae/1yIOAAAAAAAAAAAAAAAAAAAAAAAAAAAAAA==
> <PUBCHEM_IUPAC_OPENEYE_NAME>
(4R)-4-[[(2S)-2-acetamido-3-carboxy-propanoyl]amino]-5-[[(1S,2S)-1-[[(1S)-1-[(2S,4R)-4-benzyloxy-2-[[propyl-[3-[3-(2-pyridyl)-1,2,4-oxadiazol-5-yl]propanoyl]amino]carbamoyl]pyrrolidine-1-carbonyl]-2-methyl-propyl]carbamoyl]-2-methyl-butyl]-hydroxy-amino]-5-oxo-pentanoic acid
> <PUBCHEM_IUPAC_CAS_NAME>
(4R)-4-[[(2S)-2-acetamido-3-carboxy-1-oxopropyl]amino]-5-[hydroxy-[(2S,3S)-3-methyl-1-[[(2S)-3-methyl-1-oxo-1-[(2S,4R)-2-[oxo-[2-[1-oxo-3-[3-(2-pyridinyl)-1,2,4-oxadiazol-5-yl]propyl]-2-propylhydrazinyl]methyl]-4-phenylmethoxy-1-pyrrolidinyl]butan-2-yl]amino]-1-oxopentan-2-yl]amino]-5-oxopentanoic acid
> <PUBCHEM_IUPAC_NAME_MARKUP>
(4<I>R</I>)-4-[[(2<I>S</I>)-2-acetamido-3-carboxypropanoyl]amino]-5-[hydroxy-[(2<I>S</I>,3<I>S</I>)-3-methyl-1-[[(2<I>S</I>)-3-methyl-1-oxo-1-[(2<I>S</I>,4<I>R</I>)-4-phenylmethoxy-2-[[propyl-[3-(3-pyridin-2-yl-1,2,4-oxadiazol-5-yl)propanoyl]amino]carbamoyl]pyrrolidin-1-yl]butan-2-yl]amino]-1-oxopentan-2-yl]amino]-5-oxopentanoic acid
> <PUBCHEM_IUPAC_NAME>
(4R)-4-[[(2S)-2-acetamido-3-carboxypropanoyl]amino]-5-[hydroxy-[(2S,3S)-3-methyl-1-[[(2S)-3-methyl-1-oxo-1-[(2S,4R)-4-phenylmethoxy-2-[[propyl-[3-(3-pyridin-2-yl-1,2,4-oxadiazol-5-yl)propanoyl]amino]carbamoyl]pyrrolidin-1-yl]butan-2-yl]amino]-1-oxopentan-2-yl]amino]-5-oxopentanoic acid
> <PUBCHEM_IUPAC_SYSTEMATIC_NAME>
(4R)-4-[[(2S)-2-acetamido-4-oxidanyl-4-oxidanylidene-butanoyl]amino]-5-[[(2S,3S)-3-methyl-1-[[(2S)-3-methyl-1-oxidanylidene-1-[(2S,4R)-4-phenylmethoxy-2-[[propyl-[3-(3-pyridin-2-yl-1,2,4-oxadiazol-5-yl)propanoyl]amino]carbamoyl]pyrrolidin-1-yl]butan-2-yl]amino]-1-oxidanylidene-pentan-2-yl]-oxidanyl-amino]-5-oxidanylidene-pentanoic acid
> <PUBCHEM_IUPAC_TRADITIONAL_NAME>
(4R)-4-[[(2S)-2-acetamido-3-carboxy-propanoyl]amino]-5-[[(1S,2S)-1-[[(1S)-1-[(2S,4R)-4-benzoxy-2-[[propyl-[3-[3-(2-pyridyl)-1,2,4-oxadiazol-5-yl]propanoyl]amino]carbamoyl]pyrrolidine-1-carbonyl]-2-methyl-propyl]carbamoyl]-2-methyl-butyl]-hydroxy-amino]-5-keto-valeric acid
> <PUBCHEM_IUPAC_INCHI>
InChI=1S/C47H64N10O14/c1-7-22-56(37(59)19-18-36-51-42(54-71-36)32-16-12-13-21-48-32)53-44(65)35-23-31(70-26-30-14-10-9-11-15-30)25-55(35)47(68)40(27(3)4)52-45(66)41(28(5)8-2)57(69)46(67)33(17-20-38(60)61)50-43(64)34(24-39(62)63)49-29(6)58/h9-16,21,27-28,31,33-35,40-41,69H,7-8,17-20,22-26H2,1-6H3,(H,49,58)(H,50,64)(H,52,66)(H,53,65)(H,60,61)(H,62,63)/t28-,31+,33+,34-,35-,40-,41-/m0/s1
> <PUBCHEM_IUPAC_INCHIKEY>
XPYRKJBGHIEEPA-AWNLDCQNSA-N
> <PUBCHEM_XLOGP3_AA>
1.6
> <PUBCHEM_EXACT_MASS>
992.46034675
> <PUBCHEM_MOLECULAR_FORMULA>
C47H64N10O14
> <PUBCHEM_MOLECULAR_WEIGHT>
993.1
> <PUBCHEM_OPENEYE_CAN_SMILES>
CCCN(C(=O)CCC1=NC(=NO1)C2=CC=CC=N2)NC(=O)C3CC(CN3C(=O)C(C(C)C)NC(=O)C(C(C)CC)N(C(=O)C(CCC(=O)O)NC(=O)C(CC(=O)O)NC(=O)C)O)OCC4=CC=CC=C4
> <PUBCHEM_OPENEYE_ISO_SMILES>
CCCN(C(=O)CCC1=NC(=NO1)C2=CC=CC=N2)NC(=O)[C@@H]3C[C@H](CN3C(=O)[C@H](C(C)C)NC(=O)[C@H]([C@@H](C)CC)N(C(=O)[C@@H](CCC(=O)O)NC(=O)[C@H](CC(=O)O)NC(=O)C)O)OCC4=CC=CC=C4
> <PUBCHEM_CACTVS_TPSA>
333
> <PUBCHEM_MONOISOTOPIC_WEIGHT>
992.46034675
> <PUBCHEM_TOTAL_CHARGE>
0
> <PUBCHEM_HEAVY_ATOM_COUNT>
71
> <PUBCHEM_ATOM_DEF_STEREO_COUNT>
7
> <PUBCHEM_ATOM_UDEF_STEREO_COUNT>
0
> <PUBCHEM_BOND_DEF_STEREO_COUNT>
0
> <PUBCHEM_BOND_UDEF_STEREO_COUNT>
0
> <PUBCHEM_ISOTOPIC_ATOM_COUNT>
0
> <PUBCHEM_COMPONENT_COUNT>
1
> <PUBCHEM_CACTVS_TAUTO_COUNT>
-1
> <PUBCHEM_COORDINATE_TYPE>
1
5
255
> <PUBCHEM_BONDANNOTATIONS>
26  1  5
30  16  6
33  19  5
46  20  5
59  21  5
22  60  8
22  64  8
23  64  8
24  67  8
24  70  8
25  31  6
38  41  6
40  47  8
40  48  8
47  52  8
48  53  8
52  57  8
53  57  8
67  68  8
68  69  8
69  71  8
70  71  8
9  23  8
9  60  8
$$$$
