500668
  -OEChem-10302200282D
108113  0     1  0  0  0  0  0999 V2000
    9.9737    5.5677    0.0000 O   0  0  0  0  0  0  0  0  0  0  0  0
   10.1548    3.8452    0.0000 O   0  0  0  0  0  0  0  0  0  0  0  0
    9.7480    2.9316    0.0000 O   0  0  0  0  0  0  0  0  0  0  0  0
    6.3981    0.2111    0.0000 O   0  0  0  0  0  0  0  0  0  0  0  0
   10.4291    1.7520    0.0000 O   0  0  0  0  0  0  0  0  0  0  0  0
    2.8680   -2.8130    0.0000 O   0  0  0  0  0  0  0  0  0  0  0  0
   13.8640   -3.8338    0.0000 O   0  0  0  0  0  0  0  0  0  0  0  0
   12.2817   -4.5383    0.0000 O   0  0  0  0  0  0  0  0  0  0  0  0
    8.1657    3.6361    0.0000 N   0  0  0  0  0  0  0  0  0  0  0  0
    8.8468    1.0475    0.0000 N   0  0  0  0  0  0  0  0  0  0  0  0
   11.2426   -0.0751    0.0000 N   0  0  0  0  0  0  0  0  0  0  0  0
    6.3981   -2.7889    0.0000 N   0  0  0  0  0  0  0  0  0  0  0  0
    8.5725    4.5497    0.0000 C   0  0  3  0  0  0  0  0  0  0  0  0
    7.6589    4.9564    0.0000 C   0  0  2  0  0  0  0  0  0  0  0  0
    8.4679    5.5442    0.0000 C   0  0  0  0  0  0  0  0  0  0  0  0
    6.6644    4.8519    0.0000 C   0  0  0  0  0  0  0  0  0  0  0  0
    9.5670    4.6542    0.0000 C   0  0  0  0  0  0  0  0  0  0  0  0
    8.7535    2.8271    0.0000 C   0  0  0  0  0  0  0  0  0  0  0  0
    8.3468    1.9136    0.0000 C   0  0  2  0  0  0  0  0  0  0  0  0
    6.0766    5.6609    0.0000 C   0  0  0  0  0  0  0  0  0  0  0  0
    7.3686    1.7056    0.0000 C   0  0  0  0  0  0  0  0  0  0  0  0
    7.2641    0.7111    0.0000 C   0  0  2  0  0  0  0  0  0  0  0  0
    8.1776    0.3044    0.0000 C   0  0  0  0  0  0  0  0  0  0  0  0
    9.8413    0.9430    0.0000 C   0  0  0  0  0  0  0  0  0  0  0  0
   10.2480    0.0294    0.0000 C   0  0  2  0  0  0  0  0  0  0  0  0
    9.6602   -0.7796    0.0000 C   0  0  0  0  0  0  0  0  0  0  0  0
   10.4693   -1.3674    0.0000 C   0  0  0  0  0  0  0  0  0  0  0  0
    8.8512   -0.1918    0.0000 C   0  0  0  0  0  0  0  0  0  0  0  0
    9.0725   -1.5886    0.0000 C   0  0  0  0  0  0  0  0  0  0  0  0
    6.3981   -0.7889    0.0000 C   0  0  0  0  0  0  0  0  0  0  0  0
   11.6493   -0.9886    0.0000 C   0  0  0  0  0  0  0  0  0  0  0  0
    5.5320   -1.2889    0.0000 C   0  0  0  0  0  0  0  0  0  0  0  0
    7.2641   -1.2889    0.0000 C   0  0  0  0  0  0  0  0  0  0  0  0
    5.5320   -2.2889    0.0000 C   0  0  0  0  0  0  0  0  0  0  0  0
   12.6438   -1.0932    0.0000 C   0  0  0  0  0  0  0  0  0  0  0  0
   11.0615   -1.7976    0.0000 C   0  0  0  0  0  0  0  0  0  0  0  0
    7.2641   -2.2889    0.0000 C   0  0  0  0  0  0  0  0  0  0  0  0
    4.6381   -0.7542    0.0000 C   0  0  0  0  0  0  0  0  0  0  0  0
    4.6381   -2.8236    0.0000 C   0  0  0  0  0  0  0  0  0  0  0  0
   13.0505   -2.0067    0.0000 C   0  0  0  0  0  0  0  0  0  0  0  0
   11.4682   -2.7112    0.0000 C   0  0  0  0  0  0  0  0  0  0  0  0
    3.7320   -1.2681    0.0000 C   0  0  0  0  0  0  0  0  0  0  0  0
    8.1301   -2.7889    0.0000 C   0  0  0  0  0  0  0  0  0  0  0  0
   12.4628   -2.8157    0.0000 C   0  0  0  0  0  0  0  0  0  0  0  0
    3.7320   -2.3097    0.0000 C   0  0  0  0  0  0  0  0  0  0  0  0
    8.9962   -2.2889    0.0000 C   0  0  0  0  0  0  0  0  0  0  0  0
    8.1301   -3.7889    0.0000 C   0  0  0  0  0  0  0  0  0  0  0  0
   12.8695   -3.7293    0.0000 C   0  0  0  0  0  0  0  0  0  0  0  0
    9.8622   -2.7889    0.0000 C   0  0  0  0  0  0  0  0  0  0  0  0
    8.9962   -4.2889    0.0000 C   0  0  0  0  0  0  0  0  0  0  0  0
    9.8622   -3.7889    0.0000 C   0  0  0  0  0  0  0  0  0  0  0  0
   14.2708   -4.7473    0.0000 C   0  0  0  0  0  0  0  0  0  0  0  0
    2.0000   -2.3164    0.0000 C   0  0  0  0  0  0  0  0  0  0  0  0
   14.6775   -5.6609    0.0000 C   0  0  0  0  0  0  0  0  0  0  0  0
   15.1843   -4.3406    0.0000 C   0  0  0  0  0  0  0  0  0  0  0  0
   13.3572   -5.1541    0.0000 C   0  0  0  0  0  0  0  0  0  0  0  0
    7.5619    4.3440    0.0000 H   0  0  0  0  0  0  0  0  0  0  0  0
    9.0639    5.7151    0.0000 H   0  0  0  0  0  0  0  0  0  0  0  0
    8.1961    6.1014    0.0000 H   0  0  0  0  0  0  0  0  0  0  0  0
    6.1071    4.5801    0.0000 H   0  0  0  0  0  0  0  0  0  0  0  0
    6.8353    4.2559    0.0000 H   0  0  0  0  0  0  0  0  0  0  0  0
    7.5491    3.5713    0.0000 H   0  0  0  0  0  0  0  0  0  0  0  0
    8.9659    1.9460    0.0000 H   0  0  0  0  0  0  0  0  0  0  0  0
    6.5782    6.0253    0.0000 H   0  0  0  0  0  0  0  0  0  0  0  0
    5.7122    6.1625    0.0000 H   0  0  0  0  0  0  0  0  0  0  0  0
    5.5750    5.2964    0.0000 H   0  0  0  0  0  0  0  0  0  0  0  0
    7.3038    2.3222    0.0000 H   0  0  0  0  0  0  0  0  0  0  0  0
    6.7486    1.7056    0.0000 H   0  0  0  0  0  0  0  0  0  0  0  0
    7.2966    0.0920    0.0000 H   0  0  0  0  0  0  0  0  0  0  0  0
    7.8676   -0.2326    0.0000 H   0  0  0  0  0  0  0  0  0  0  0  0
    8.6792   -0.0600    0.0000 H   0  0  0  0  0  0  0  0  0  0  0  0
   10.5903    5.6325    0.0000 H   0  0  0  0  0  0  0  0  0  0  0  0
   10.6125    0.5310    0.0000 H   0  0  0  0  0  0  0  0  0  0  0  0
   11.6070    0.4265    0.0000 H   0  0  0  0  0  0  0  0  0  0  0  0
   10.1048   -1.8689    0.0000 H   0  0  0  0  0  0  0  0  0  0  0  0
   10.9709   -1.7318    0.0000 H   0  0  0  0  0  0  0  0  0  0  0  0
   10.8337   -0.8658    0.0000 H   0  0  0  0  0  0  0  0  0  0  0  0
    9.2157    0.3098    0.0000 H   0  0  0  0  0  0  0  0  0  0  0  0
    8.3496    0.1726    0.0000 H   0  0  0  0  0  0  0  0  0  0  0  0
    8.4868   -0.6934    0.0000 H   0  0  0  0  0  0  0  0  0  0  0  0
    8.5709   -1.2242    0.0000 H   0  0  0  0  0  0  0  0  0  0  0  0
    8.7080   -2.0902    0.0000 H   0  0  0  0  0  0  0  0  0  0  0  0
    9.5740   -1.9530    0.0000 H   0  0  0  0  0  0  0  0  0  0  0  0
    7.8010   -0.9789    0.0000 H   0  0  0  0  0  0  0  0  0  0  0  0
   13.0082   -0.5916    0.0000 H   0  0  0  0  0  0  0  0  0  0  0  0
   10.4449   -1.7328    0.0000 H   0  0  0  0  0  0  0  0  0  0  0  0
    4.6453   -0.1343    0.0000 H   0  0  0  0  0  0  0  0  0  0  0  0
    4.6453   -3.4435    0.0000 H   0  0  0  0  0  0  0  0  0  0  0  0
   13.6672   -2.0715    0.0000 H   0  0  0  0  0  0  0  0  0  0  0  0
   11.1038   -3.2128    0.0000 H   0  0  0  0  0  0  0  0  0  0  0  0
    3.1963   -0.9560    0.0000 H   0  0  0  0  0  0  0  0  0  0  0  0
    8.9962   -1.6689    0.0000 H   0  0  0  0  0  0  0  0  0  0  0  0
    7.5932   -4.0989    0.0000 H   0  0  0  0  0  0  0  0  0  0  0  0
   10.3991   -2.4789    0.0000 H   0  0  0  0  0  0  0  0  0  0  0  0
    8.9962   -4.9089    0.0000 H   0  0  0  0  0  0  0  0  0  0  0  0
   10.3991   -4.0989    0.0000 H   0  0  0  0  0  0  0  0  0  0  0  0
    2.3079   -1.7782    0.0000 H   0  0  0  0  0  0  0  0  0  0  0  0
    1.4619   -2.0084    0.0000 H   0  0  0  0  0  0  0  0  0  0  0  0
    1.6921   -2.8545    0.0000 H   0  0  0  0  0  0  0  0  0  0  0  0
   14.1111   -5.9131    0.0000 H   0  0  0  0  0  0  0  0  0  0  0  0
   14.9297   -6.2273    0.0000 H   0  0  0  0  0  0  0  0  0  0  0  0
   15.2439   -5.4087    0.0000 H   0  0  0  0  0  0  0  0  0  0  0  0
   15.4365   -4.9070    0.0000 H   0  0  0  0  0  0  0  0  0  0  0  0
   15.7507   -4.0884    0.0000 H   0  0  0  0  0  0  0  0  0  0  0  0
   14.9321   -3.7742    0.0000 H   0  0  0  0  0  0  0  0  0  0  0  0
   13.1050   -4.5877    0.0000 H   0  0  0  0  0  0  0  0  0  0  0  0
   12.7908   -5.4062    0.0000 H   0  0  0  0  0  0  0  0  0  0  0  0
   13.6094   -5.7205    0.0000 H   0  0  0  0  0  0  0  0  0  0  0  0
  1 17  1  0  0  0  0
  1 72  1  0  0  0  0
  2 17  2  0  0  0  0
  3 18  2  0  0  0  0
 22  4  1  6  0  0  0
  4 30  1  0  0  0  0
  5 24  2  0  0  0  0
  6 45  1  0  0  0  0
  6 53  1  0  0  0  0
  7 48  1  0  0  0  0
  7 52  1  0  0  0  0
  8 48  2  0  0  0  0
  9 13  1  0  0  0  0
  9 18  1  0  0  0  0
  9 62  1  0  0  0  0
 10 19  1  0  0  0  0
 10 23  1  0  0  0  0
 10 24  1  0  0  0  0
 25 11  1  1  0  0  0
 11 31  1  0  0  0  0
 11 74  1  0  0  0  0
 12 34  1  0  0  0  0
 12 37  2  0  0  0  0
 13 14  1  0  0  0  0
 13 15  1  0  0  0  0
 13 17  1  0  0  0  0
 14 15  1  0  0  0  0
 14 16  1  1  0  0  0
 14 57  1  0  0  0  0
 15 58  1  0  0  0  0
 15 59  1  0  0  0  0
 16 20  1  0  0  0  0
 16 60  1  0  0  0  0
 16 61  1  0  0  0  0
 19 18  1  1  0  0  0
 19 21  1  0  0  0  0
 19 63  1  0  0  0  0
 20 64  1  0  0  0  0
 20 65  1  0  0  0  0
 20 66  1  0  0  0  0
 21 22  1  0  0  0  0
 21 67  1  0  0  0  0
 21 68  1  0  0  0  0
 22 23  1  0  0  0  0
 22 69  1  0  0  0  0
 23 70  1  0  0  0  0
 23 71  1  0  0  0  0
 24 25  1  0  0  0  0
 25 26  1  0  0  0  0
 25 73  1  0  0  0  0
 26 27  1  0  0  0  0
 26 28  1  0  0  0  0
 26 29  1  0  0  0  0
 27 75  1  0  0  0  0
 27 76  1  0  0  0  0
 27 77  1  0  0  0  0
 28 78  1  0  0  0  0
 28 79  1  0  0  0  0
 28 80  1  0  0  0  0
 29 81  1  0  0  0  0
 29 82  1  0  0  0  0
 29 83  1  0  0  0  0
 30 32  1  0  0  0  0
 30 33  2  0  0  0  0
 31 35  2  0  0  0  0
 31 36  1  0  0  0  0
 32 34  2  0  0  0  0
 32 38  1  0  0  0  0
 33 37  1  0  0  0  0
 33 84  1  0  0  0  0
 34 39  1  0  0  0  0
 35 40  1  0  0  0  0
 35 85  1  0  0  0  0
 36 41  2  0  0  0  0
 36 86  1  0  0  0  0
 37 43  1  0  0  0  0
 38 42  2  0  0  0  0
 38 87  1  0  0  0  0
 39 45  2  0  0  0  0
 39 88  1  0  0  0  0
 40 44  2  0  0  0  0
 40 89  1  0  0  0  0
 41 44  1  0  0  0  0
 41 90  1  0  0  0  0
 42 45  1  0  0  0  0
 42 91  1  0  0  0  0
 43 46  2  0  0  0  0
 43 47  1  0  0  0  0
 44 48  1  0  0  0  0
 46 49  1  0  0  0  0
 46 92  1  0  0  0  0
 47 50  2  0  0  0  0
 47 93  1  0  0  0  0
 49 51  2  0  0  0  0
 49 94  1  0  0  0  0
 50 51  1  0  0  0  0
 50 95  1  0  0  0  0
 51 96  1  0  0  0  0
 52 54  1  0  0  0  0
 52 55  1  0  0  0  0
 52 56  1  0  0  0  0
 53 97  1  0  0  0  0
 53 98  1  0  0  0  0
 53 99  1  0  0  0  0
 54100  1  0  0  0  0
 54101  1  0  0  0  0
 54102  1  0  0  0  0
 55103  1  0  0  0  0
 55104  1  0  0  0  0
 55105  1  0  0  0  0
 56106  1  0  0  0  0
 56107  1  0  0  0  0
 56108  1  0  0  0  0
M  END
> <PUBCHEM_COMPOUND_CID>
500668
> <PUBCHEM_COMPOUND_CANONICALIZED>
1
> <PUBCHEM_CACTVS_COMPLEXITY>
1400
> <PUBCHEM_CACTVS_HBOND_ACCEPTOR>
10
> <PUBCHEM_CACTVS_HBOND_DONOR>
3
> <PUBCHEM_CACTVS_ROTATABLE_BOND>
15
> <PUBCHEM_CACTVS_SUBSKEYS>
AAADcfB/vAAAAAAAAAAAAAAAGAAAAWAAAAA8YMEAAAAAAACx9AAAHgAQCAAAD/zhngYyzvPIFgCoAyXyXACCiCAlIiAImKG+bNgOZvLEtbuXeSjm1hnY6Ye6+e+fKAAAAgACAABQAAAEAAQAAAAAAAAAAA==
> <PUBCHEM_IUPAC_OPENEYE_NAME>
(2S)-1-[[(2S,4R)-1-[(2S)-2-(4-tert-butoxycarbonylanilino)-3,3-dimethyl-butanoyl]-4-[(7-methoxy-2-phenyl-4-quinolyl)oxy]pyrrolidine-2-carbonyl]amino]-2-ethyl-cyclopropanecarboxylic acid
> <PUBCHEM_IUPAC_CAS_NAME>
(2S)-1-[[[(2S,4R)-1-[(2S)-3,3-dimethyl-2-[4-[(2-methylpropan-2-yl)oxy-oxomethyl]anilino]-1-oxobutyl]-4-[(7-methoxy-2-phenyl-4-quinolinyl)oxy]-2-pyrrolidinyl]-oxomethyl]amino]-2-ethyl-1-cyclopropanecarboxylic acid
> <PUBCHEM_IUPAC_NAME_MARKUP>
(2<I>S</I>)-1-[[(2<I>S</I>,4<I>R</I>)-1-[(2<I>S</I>)-3,3-dimethyl-2-[4-[(2-methylpropan-2-yl)oxycarbonyl]anilino]butanoyl]-4-(7-methoxy-2-phenylquinolin-4-yl)oxypyrrolidine-2-carbonyl]amino]-2-ethylcyclopropane-1-carboxylic acid
> <PUBCHEM_IUPAC_NAME>
(2S)-1-[[(2S,4R)-1-[(2S)-3,3-dimethyl-2-[4-[(2-methylpropan-2-yl)oxycarbonyl]anilino]butanoyl]-4-(7-methoxy-2-phenylquinolin-4-yl)oxypyrrolidine-2-carbonyl]amino]-2-ethylcyclopropane-1-carboxylic acid
> <PUBCHEM_IUPAC_SYSTEMATIC_NAME>
(2S)-1-[[(2S,4R)-1-[(2S)-3,3-dimethyl-2-[[4-[(2-methylpropan-2-yl)oxycarbonyl]phenyl]amino]butanoyl]-4-(7-methoxy-2-phenyl-quinolin-4-yl)oxy-pyrrolidin-2-yl]carbonylamino]-2-ethyl-cyclopropane-1-carboxylic acid
> <PUBCHEM_IUPAC_TRADITIONAL_NAME>
(2S)-1-[[(2S,4R)-1-[(2S)-2-(4-tert-butoxycarbonylanilino)-3,3-dimethyl-butanoyl]-4-[(7-methoxy-2-phenyl-4-quinolyl)oxy]prolyl]amino]-2-ethyl-cyclopropanecarboxylic acid
> <PUBCHEM_IUPAC_INCHI>
InChI=1S/C44H52N4O8/c1-9-28-24-44(28,41(52)53)47-38(49)35-22-31(55-36-23-33(26-13-11-10-12-14-26)46-34-21-30(54-8)19-20-32(34)36)25-48(35)39(50)37(42(2,3)4)45-29-17-15-27(16-18-29)40(51)56-43(5,6)7/h10-21,23,28,31,35,37,45H,9,22,24-25H2,1-8H3,(H,47,49)(H,52,53)/t28-,31+,35-,37+,44?/m0/s1
> <PUBCHEM_IUPAC_INCHIKEY>
GCOWHULAWVSBCZ-AYGGIPJKSA-N
> <PUBCHEM_XLOGP3_AA>
7.9
> <PUBCHEM_EXACT_MASS>
764.37851463
> <PUBCHEM_MOLECULAR_FORMULA>
C44H52N4O8
> <PUBCHEM_MOLECULAR_WEIGHT>
764.9
> <PUBCHEM_OPENEYE_CAN_SMILES>
CCC1CC1(C(=O)O)NC(=O)C2CC(CN2C(=O)C(C(C)(C)C)NC3=CC=C(C=C3)C(=O)OC(C)(C)C)OC4=CC(=NC5=C4C=CC(=C5)OC)C6=CC=CC=C6
> <PUBCHEM_OPENEYE_ISO_SMILES>
CC[C@H]1CC1(C(=O)O)NC(=O)[C@@H]2C[C@H](CN2C(=O)[C@H](C(C)(C)C)NC3=CC=C(C=C3)C(=O)OC(C)(C)C)OC4=CC(=NC5=C4C=CC(=C5)OC)C6=CC=CC=C6
> <PUBCHEM_CACTVS_TPSA>
156
> <PUBCHEM_MONOISOTOPIC_WEIGHT>
764.37851463
> <PUBCHEM_TOTAL_CHARGE>
0
> <PUBCHEM_HEAVY_ATOM_COUNT>
56
> <PUBCHEM_ATOM_DEF_STEREO_COUNT>
4
> <PUBCHEM_ATOM_UDEF_STEREO_COUNT>
1
> <PUBCHEM_BOND_DEF_STEREO_COUNT>
0
> <PUBCHEM_BOND_UDEF_STEREO_COUNT>
0
> <PUBCHEM_ISOTOPIC_ATOM_COUNT>
0
> <PUBCHEM_COMPONENT_COUNT>
1
> <PUBCHEM_CACTVS_TAUTO_COUNT>
-1
> <PUBCHEM_COORDINATE_TYPE>
1
5
255
> <PUBCHEM_BONDANNOTATIONS>
25  11  5
12  34  8
12  37  8
13  17  3
14  16  5
19  18  5
30  32  8
30  33  8
31  35  8
31  36  8
32  34  8
32  38  8
33  37  8
34  39  8
35  40  8
36  41  8
38  42  8
39  45  8
22  4  6
40  44  8
41  44  8
42  45  8
43  46  8
43  47  8
46  49  8
47  50  8
49  51  8
50  51  8
$$$$
