500684
  -OEChem-10302200282D
 96100  0     1  0  0  0  0  0999 V2000
   10.5050   -1.1977    0.0000 S   0  0  0  0  0  0  0  0  0  0  0  0
    8.2417    4.5497    0.0000 O   0  0  0  0  0  0  0  0  0  0  0  0
    8.4227    2.8271    0.0000 O   0  0  0  0  0  0  0  0  0  0  0  0
    4.6660   -0.8070    0.0000 O   0  0  0  0  0  0  0  0  0  0  0  0
    8.0160    1.9136    0.0000 O   0  0  0  0  0  0  0  0  0  0  0  0
    8.6970    0.7339    0.0000 O   0  0  0  0  0  0  0  0  0  0  0  0
    9.3295   -2.8157    0.0000 O   0  0  0  0  0  0  0  0  0  0  0  0
    7.7472   -3.5202    0.0000 O   0  0  0  0  0  0  0  0  0  0  0  0
    6.4337    2.6180    0.0000 N   0  0  0  0  0  0  0  0  0  0  0  0
    7.1147    0.0294    0.0000 N   0  0  0  0  0  0  0  0  0  0  0  0
    7.9282   -1.7976    0.0000 N   0  0  0  0  0  0  0  0  0  0  0  0
    4.6660   -3.8070    0.0000 N   0  0  0  0  0  0  0  0  0  0  0  0
    6.8404    3.5316    0.0000 C   0  0  3  0  0  0  0  0  0  0  0  0
    5.9269    3.9383    0.0000 C   0  0  2  0  0  0  0  0  0  0  0  0
    6.7359    4.5261    0.0000 C   0  0  0  0  0  0  0  0  0  0  0  0
    7.8350    3.6361    0.0000 C   0  0  0  0  0  0  0  0  0  0  0  0
    4.9324    3.8338    0.0000 C   0  0  0  0  0  0  0  0  0  0  0  0
    6.6147    0.8955    0.0000 C   0  0  2  0  0  0  0  0  0  0  0  0
    7.0215    1.8090    0.0000 C   0  0  0  0  0  0  0  0  0  0  0  0
    5.6366    0.6876    0.0000 C   0  0  0  0  0  0  0  0  0  0  0  0
    5.5321   -0.3070    0.0000 C   0  0  2  0  0  0  0  0  0  0  0  0
    6.4456   -0.7137    0.0000 C   0  0  0  0  0  0  0  0  0  0  0  0
    4.3446    4.6428    0.0000 C   0  0  0  0  0  0  0  0  0  0  0  0
    8.1093   -0.0751    0.0000 C   0  0  0  0  0  0  0  0  0  0  0  0
    8.5160   -0.9886    0.0000 C   0  0  2  0  0  0  0  0  0  0  0  0
    9.5105   -1.0932    0.0000 C   0  0  0  0  0  0  0  0  0  0  0  0
    4.6660   -1.8070    0.0000 C   0  0  0  0  0  0  0  0  0  0  0  0
    9.6150   -0.0986    0.0000 C   0  0  0  0  0  0  0  0  0  0  0  0
    9.4060   -2.0877    0.0000 C   0  0  0  0  0  0  0  0  0  0  0  0
    3.8000   -2.3070    0.0000 C   0  0  0  0  0  0  0  0  0  0  0  0
    8.3349   -2.7112    0.0000 C   0  0  0  0  0  0  0  0  0  0  0  0
    5.5321   -2.3070    0.0000 C   0  0  0  0  0  0  0  0  0  0  0  0
   11.0928   -0.3887    0.0000 C   0  0  0  0  0  0  0  0  0  0  0  0
    3.8000   -3.3070    0.0000 C   0  0  0  0  0  0  0  0  0  0  0  0
    2.9061   -1.7723    0.0000 C   0  0  0  0  0  0  0  0  0  0  0  0
    5.5321   -3.3070    0.0000 C   0  0  0  0  0  0  0  0  0  0  0  0
   12.0873   -0.4932    0.0000 C   0  0  0  0  0  0  0  0  0  0  0  0
    9.7362   -3.7293    0.0000 C   0  0  0  0  0  0  0  0  0  0  0  0
    2.9061   -3.8416    0.0000 C   0  0  0  0  0  0  0  0  0  0  0  0
    2.0000   -2.2861    0.0000 C   0  0  0  0  0  0  0  0  0  0  0  0
   12.4941   -1.4067    0.0000 C   0  0  0  0  0  0  0  0  0  0  0  0
   12.6751    0.3158    0.0000 C   0  0  0  0  0  0  0  0  0  0  0  0
    2.0000   -3.3278    0.0000 C   0  0  0  0  0  0  0  0  0  0  0  0
   10.1429   -4.6428    0.0000 C   0  0  0  0  0  0  0  0  0  0  0  0
   10.6497   -3.3225    0.0000 C   0  0  0  0  0  0  0  0  0  0  0  0
    8.8227   -4.1360    0.0000 C   0  0  0  0  0  0  0  0  0  0  0  0
   13.4886   -1.5113    0.0000 C   0  0  0  0  0  0  0  0  0  0  0  0
   13.6697    0.2113    0.0000 C   0  0  0  0  0  0  0  0  0  0  0  0
   14.0764   -0.7023    0.0000 C   0  0  0  0  0  0  0  0  0  0  0  0
   15.0709   -0.8068    0.0000 C   0  0  0  0  0  0  0  0  0  0  0  0
    5.8299    3.3260    0.0000 H   0  0  0  0  0  0  0  0  0  0  0  0
    7.3319    4.6970    0.0000 H   0  0  0  0  0  0  0  0  0  0  0  0
    6.4641    5.0834    0.0000 H   0  0  0  0  0  0  0  0  0  0  0  0
    5.8171    2.5532    0.0000 H   0  0  0  0  0  0  0  0  0  0  0  0
    4.6802    3.2674    0.0000 H   0  0  0  0  0  0  0  0  0  0  0  0
    7.2339    0.9279    0.0000 H   0  0  0  0  0  0  0  0  0  0  0  0
    5.5718    1.3042    0.0000 H   0  0  0  0  0  0  0  0  0  0  0  0
    5.0166    0.6876    0.0000 H   0  0  0  0  0  0  0  0  0  0  0  0
    5.5645   -0.9261    0.0000 H   0  0  0  0  0  0  0  0  0  0  0  0
    6.1356   -1.2506    0.0000 H   0  0  0  0  0  0  0  0  0  0  0  0
    6.9472   -1.0781    0.0000 H   0  0  0  0  0  0  0  0  0  0  0  0
    4.5968    5.2092    0.0000 H   0  0  0  0  0  0  0  0  0  0  0  0
    3.7280    4.5780    0.0000 H   0  0  0  0  0  0  0  0  0  0  0  0
    8.8583    4.6145    0.0000 H   0  0  0  0  0  0  0  0  0  0  0  0
    7.8994   -0.9238    0.0000 H   0  0  0  0  0  0  0  0  0  0  0  0
    7.3116   -1.7328    0.0000 H   0  0  0  0  0  0  0  0  0  0  0  0
   10.2316   -0.1634    0.0000 H   0  0  0  0  0  0  0  0  0  0  0  0
    9.6798    0.5180    0.0000 H   0  0  0  0  0  0  0  0  0  0  0  0
    8.9984   -0.0338    0.0000 H   0  0  0  0  0  0  0  0  0  0  0  0
    8.7894   -2.0229    0.0000 H   0  0  0  0  0  0  0  0  0  0  0  0
    9.3412   -2.7043    0.0000 H   0  0  0  0  0  0  0  0  0  0  0  0
   10.0226   -2.1525    0.0000 H   0  0  0  0  0  0  0  0  0  0  0  0
    6.0690   -1.9970    0.0000 H   0  0  0  0  0  0  0  0  0  0  0  0
   11.2637    0.2073    0.0000 H   0  0  0  0  0  0  0  0  0  0  0  0
   10.5356   -0.1169    0.0000 H   0  0  0  0  0  0  0  0  0  0  0  0
    2.9132   -1.1523    0.0000 H   0  0  0  0  0  0  0  0  0  0  0  0
    6.0690   -3.6170    0.0000 H   0  0  0  0  0  0  0  0  0  0  0  0
    2.9132   -4.4616    0.0000 H   0  0  0  0  0  0  0  0  0  0  0  0
    1.4643   -1.9741    0.0000 H   0  0  0  0  0  0  0  0  0  0  0  0
   12.1297   -1.9083    0.0000 H   0  0  0  0  0  0  0  0  0  0  0  0
   12.4230    0.8822    0.0000 H   0  0  0  0  0  0  0  0  0  0  0  0
    1.4643   -3.6398    0.0000 H   0  0  0  0  0  0  0  0  0  0  0  0
    9.5765   -4.8950    0.0000 H   0  0  0  0  0  0  0  0  0  0  0  0
   10.3951   -5.2092    0.0000 H   0  0  0  0  0  0  0  0  0  0  0  0
   10.7093   -4.3906    0.0000 H   0  0  0  0  0  0  0  0  0  0  0  0
   10.9019   -3.8889    0.0000 H   0  0  0  0  0  0  0  0  0  0  0  0
   11.2161   -3.0704    0.0000 H   0  0  0  0  0  0  0  0  0  0  0  0
   10.3976   -2.7561    0.0000 H   0  0  0  0  0  0  0  0  0  0  0  0
    8.5705   -3.5696    0.0000 H   0  0  0  0  0  0  0  0  0  0  0  0
    8.2563   -4.3882    0.0000 H   0  0  0  0  0  0  0  0  0  0  0  0
    9.0748   -4.7024    0.0000 H   0  0  0  0  0  0  0  0  0  0  0  0
   13.7408   -2.0777    0.0000 H   0  0  0  0  0  0  0  0  0  0  0  0
   14.0341    0.7129    0.0000 H   0  0  0  0  0  0  0  0  0  0  0  0
   15.0061   -1.4234    0.0000 H   0  0  0  0  0  0  0  0  0  0  0  0
   15.6875   -0.8716    0.0000 H   0  0  0  0  0  0  0  0  0  0  0  0
   15.1357   -0.1902    0.0000 H   0  0  0  0  0  0  0  0  0  0  0  0
  1 26  1  0  0  0  0
  1 33  1  0  0  0  0
  2 16  1  0  0  0  0
  2 64  1  0  0  0  0
  3 16  2  0  0  0  0
 21  4  1  6  0  0  0
  4 27  1  0  0  0  0
  5 19  2  0  0  0  0
  6 24  2  0  0  0  0
  7 31  1  0  0  0  0
  7 38  1  0  0  0  0
  8 31  2  0  0  0  0
  9 13  1  0  0  0  0
  9 19  1  0  0  0  0
  9 54  1  0  0  0  0
 10 18  1  0  0  0  0
 10 22  1  0  0  0  0
 10 24  1  0  0  0  0
 25 11  1  6  0  0  0
 11 31  1  0  0  0  0
 11 66  1  0  0  0  0
 12 34  1  0  0  0  0
 12 36  2  0  0  0  0
 13 14  1  0  0  0  0
 13 15  1  0  0  0  0
 13 16  1  0  0  0  0
 14 15  1  0  0  0  0
 14 17  1  1  0  0  0
 14 51  1  0  0  0  0
 15 52  1  0  0  0  0
 15 53  1  0  0  0  0
 17 23  2  0  0  0  0
 17 55  1  0  0  0  0
 18 19  1  1  0  0  0
 18 20  1  0  0  0  0
 18 56  1  0  0  0  0
 20 21  1  0  0  0  0
 20 57  1  0  0  0  0
 20 58  1  0  0  0  0
 21 22  1  0  0  0  0
 21 59  1  0  0  0  0
 22 60  1  0  0  0  0
 22 61  1  0  0  0  0
 23 62  1  0  0  0  0
 23 63  1  0  0  0  0
 24 25  1  0  0  0  0
 25 26  1  0  0  0  0
 25 65  1  0  0  0  0
 26 28  1  0  0  0  0
 26 29  1  0  0  0  0
 27 30  1  0  0  0  0
 27 32  2  0  0  0  0
 28 67  1  0  0  0  0
 28 68  1  0  0  0  0
 28 69  1  0  0  0  0
 29 70  1  0  0  0  0
 29 71  1  0  0  0  0
 29 72  1  0  0  0  0
 30 34  1  0  0  0  0
 30 35  2  0  0  0  0
 32 36  1  0  0  0  0
 32 73  1  0  0  0  0
 33 37  1  0  0  0  0
 33 74  1  0  0  0  0
 33 75  1  0  0  0  0
 34 39  2  0  0  0  0
 35 40  1  0  0  0  0
 35 76  1  0  0  0  0
 36 77  1  0  0  0  0
 37 41  2  0  0  0  0
 37 42  1  0  0  0  0
 38 44  1  0  0  0  0
 38 45  1  0  0  0  0
 38 46  1  0  0  0  0
 39 43  1  0  0  0  0
 39 78  1  0  0  0  0
 40 43  2  0  0  0  0
 40 79  1  0  0  0  0
 41 47  1  0  0  0  0
 41 80  1  0  0  0  0
 42 48  2  0  0  0  0
 42 81  1  0  0  0  0
 43 82  1  0  0  0  0
 44 83  1  0  0  0  0
 44 84  1  0  0  0  0
 44 85  1  0  0  0  0
 45 86  1  0  0  0  0
 45 87  1  0  0  0  0
 45 88  1  0  0  0  0
 46 89  1  0  0  0  0
 46 90  1  0  0  0  0
 46 91  1  0  0  0  0
 47 49  2  0  0  0  0
 47 92  1  0  0  0  0
 48 49  1  0  0  0  0
 48 93  1  0  0  0  0
 49 50  1  0  0  0  0
 50 94  1  0  0  0  0
 50 95  1  0  0  0  0
 50 96  1  0  0  0  0
M  END
> <PUBCHEM_COMPOUND_CID>
500684
> <PUBCHEM_COMPOUND_CANONICALIZED>
1
> <PUBCHEM_CACTVS_COMPLEXITY>
1260
> <PUBCHEM_CACTVS_HBOND_ACCEPTOR>
9
> <PUBCHEM_CACTVS_HBOND_DONOR>
3
> <PUBCHEM_CACTVS_ROTATABLE_BOND>
14
> <PUBCHEM_CACTVS_SUBSKEYS>
AAADcfB/uABAAAAAAAAAAAAAGAAAAWAAAAA8YIAAAAAAAACx9AAAHgQQCAAADfzl3ga+zvPIFgioAzX3XACCiCAxIjAI2KG+bJkOZvLksbufeCjm1hn46Ae6waAOQAAAAAACAACAAAAAAAQAAAAAAAAAAA==
> <PUBCHEM_IUPAC_OPENEYE_NAME>
(2R)-1-[[(2S,4R)-1-[(2R)-2-(tert-butoxycarbonylamino)-3-methyl-3-(p-tolylmethylsulfanyl)butanoyl]-4-(4-quinolyloxy)pyrrolidine-2-carbonyl]amino]-2-vinyl-cyclopropanecarboxylic acid
> <PUBCHEM_IUPAC_CAS_NAME>
(2R)-2-ethenyl-1-[[[(2S,4R)-1-[(2R)-3-methyl-3-[(4-methylphenyl)methylthio]-2-[[(2-methylpropan-2-yl)oxy-oxomethyl]amino]-1-oxobutyl]-4-(4-quinolinyloxy)-2-pyrrolidinyl]-oxomethyl]amino]-1-cyclopropanecarboxylic acid
> <PUBCHEM_IUPAC_NAME_MARKUP>
(2<I>R</I>)-2-ethenyl-1-[[(2<I>S</I>,4<I>R</I>)-1-[(2<I>R</I>)-3-methyl-3-[(4-methylphenyl)methylsulfanyl]-2-[(2-methylpropan-2-yl)oxycarbonylamino]butanoyl]-4-quinolin-4-yloxypyrrolidine-2-carbonyl]amino]cyclopropane-1-carboxylic acid
> <PUBCHEM_IUPAC_NAME>
(2R)-2-ethenyl-1-[[(2S,4R)-1-[(2R)-3-methyl-3-[(4-methylphenyl)methylsulfanyl]-2-[(2-methylpropan-2-yl)oxycarbonylamino]butanoyl]-4-quinolin-4-yloxypyrrolidine-2-carbonyl]amino]cyclopropane-1-carboxylic acid
> <PUBCHEM_IUPAC_SYSTEMATIC_NAME>
(2R)-2-ethenyl-1-[[(2S,4R)-1-[(2R)-3-methyl-3-[(4-methylphenyl)methylsulfanyl]-2-[(2-methylpropan-2-yl)oxycarbonylamino]butanoyl]-4-quinolin-4-yloxy-pyrrolidin-2-yl]carbonylamino]cyclopropane-1-carboxylic acid
> <PUBCHEM_IUPAC_TRADITIONAL_NAME>
(2R)-1-[[(2S,4R)-1-[(2R)-2-(tert-butoxycarbonylamino)-3-methyl-3-[(4-methylbenzyl)thio]butanoyl]-4-(4-quinolyloxy)prolyl]amino]-2-vinyl-cyclopropanecarboxylic acid
> <PUBCHEM_IUPAC_INCHI>
InChI=1S/C38H46N4O7S/c1-8-25-20-38(25,34(45)46)41-32(43)29-19-26(48-30-17-18-39-28-12-10-9-11-27(28)30)21-42(29)33(44)31(40-35(47)49-36(3,4)5)37(6,7)50-22-24-15-13-23(2)14-16-24/h8-18,25-26,29,31H,1,19-22H2,2-7H3,(H,40,47)(H,41,43)(H,45,46)/t25-,26+,29-,31+,38?/m0/s1
> <PUBCHEM_IUPAC_INCHIKEY>
BNOGNKFHKFPZHW-YJCYMGEESA-N
> <PUBCHEM_XLOGP3_AA>
5.6
> <PUBCHEM_EXACT_MASS>
702.30872099
> <PUBCHEM_MOLECULAR_FORMULA>
C38H46N4O7S
> <PUBCHEM_MOLECULAR_WEIGHT>
702.9
> <PUBCHEM_OPENEYE_CAN_SMILES>
CC1=CC=C(C=C1)CSC(C)(C)C(C(=O)N2CC(CC2C(=O)NC3(CC3C=C)C(=O)O)OC4=CC=NC5=CC=CC=C54)NC(=O)OC(C)(C)C
> <PUBCHEM_OPENEYE_ISO_SMILES>
CC1=CC=C(C=C1)CSC(C)(C)[C@@H](C(=O)N2C[C@@H](C[C@H]2C(=O)NC3(C[C@@H]3C=C)C(=O)O)OC4=CC=NC5=CC=CC=C54)NC(=O)OC(C)(C)C
> <PUBCHEM_CACTVS_TPSA>
173
> <PUBCHEM_MONOISOTOPIC_WEIGHT>
702.30872099
> <PUBCHEM_TOTAL_CHARGE>
0
> <PUBCHEM_HEAVY_ATOM_COUNT>
50
> <PUBCHEM_ATOM_DEF_STEREO_COUNT>
4
> <PUBCHEM_ATOM_UDEF_STEREO_COUNT>
1
> <PUBCHEM_BOND_DEF_STEREO_COUNT>
0
> <PUBCHEM_BOND_UDEF_STEREO_COUNT>
0
> <PUBCHEM_ISOTOPIC_ATOM_COUNT>
0
> <PUBCHEM_COMPONENT_COUNT>
1
> <PUBCHEM_CACTVS_TAUTO_COUNT>
-1
> <PUBCHEM_COORDINATE_TYPE>
1
5
255
> <PUBCHEM_BONDANNOTATIONS>
25  11  6
12  34  8
12  36  8
13  16  3
14  17  5
18  19  5
27  30  8
27  32  8
30  34  8
30  35  8
32  36  8
34  39  8
35  40  8
37  41  8
37  42  8
39  43  8
21  4  6
40  43  8
41  47  8
42  48  8
47  49  8
48  49  8
$$$$
