500654
  -OEChem-10302200282D
 79 83  0     1  0  0  0  0  0999 V2000
   10.8072   -2.7737    0.0000 F   0  0  0  0  0  0  0  0  0  0  0  0
   11.9063   -1.8837    0.0000 F   0  0  0  0  0  0  0  0  0  0  0  0
   11.0163   -0.7846    0.0000 F   0  0  0  0  0  0  0  0  0  0  0  0
    8.2417    4.8817    0.0000 O   0  0  0  0  0  0  0  0  0  0  0  0
    8.4227    3.1592    0.0000 O   0  0  0  0  0  0  0  0  0  0  0  0
    4.6660   -0.4749    0.0000 O   0  0  0  0  0  0  0  0  0  0  0  0
    8.0160    2.2456    0.0000 O   0  0  0  0  0  0  0  0  0  0  0  0
    8.6970    1.0660    0.0000 O   0  0  0  0  0  0  0  0  0  0  0  0
    9.3295   -2.4836    0.0000 O   0  0  0  0  0  0  0  0  0  0  0  0
    6.4337    2.9501    0.0000 N   0  0  0  0  0  0  0  0  0  0  0  0
    7.1147    0.3615    0.0000 N   0  0  0  0  0  0  0  0  0  0  0  0
    9.5105   -0.7611    0.0000 N   0  0  0  0  0  0  0  0  0  0  0  0
    4.6660   -3.4749    0.0000 N   0  0  0  0  0  0  0  0  0  0  0  0
    6.8404    3.8637    0.0000 C   0  0  3  0  0  0  0  0  0  0  0  0
    5.9269    4.2704    0.0000 C   0  0  2  0  0  0  0  0  0  0  0  0
    6.7359    4.8582    0.0000 C   0  0  0  0  0  0  0  0  0  0  0  0
    7.8350    3.9682    0.0000 C   0  0  0  0  0  0  0  0  0  0  0  0
    4.9324    4.1659    0.0000 C   0  0  0  0  0  0  0  0  0  0  0  0
    6.6147    1.2276    0.0000 C   0  0  2  0  0  0  0  0  0  0  0  0
    7.0215    2.1411    0.0000 C   0  0  0  0  0  0  0  0  0  0  0  0
    5.6366    1.0196    0.0000 C   0  0  0  0  0  0  0  0  0  0  0  0
    5.5321    0.0251    0.0000 C   0  0  2  0  0  0  0  0  0  0  0  0
    6.4456   -0.3816    0.0000 C   0  0  0  0  0  0  0  0  0  0  0  0
    4.3446    4.9749    0.0000 C   0  0  0  0  0  0  0  0  0  0  0  0
    8.1093    0.2570    0.0000 C   0  0  0  0  0  0  0  0  0  0  0  0
    8.5160   -0.6565    0.0000 C   0  0  2  0  0  0  0  0  0  0  0  0
    7.9282   -1.4656    0.0000 C   0  0  0  0  0  0  0  0  0  0  0  0
    4.6660   -1.4749    0.0000 C   0  0  0  0  0  0  0  0  0  0  0  0
    8.3349   -2.3791    0.0000 C   0  0  0  0  0  0  0  0  0  0  0  0
    6.9337   -1.3610    0.0000 C   0  0  0  0  0  0  0  0  0  0  0  0
    3.8000   -1.9749    0.0000 C   0  0  0  0  0  0  0  0  0  0  0  0
    5.5321   -1.9749    0.0000 C   0  0  0  0  0  0  0  0  0  0  0  0
    9.9172   -1.6746    0.0000 C   0  0  0  0  0  0  0  0  0  0  0  0
    3.8000   -2.9749    0.0000 C   0  0  0  0  0  0  0  0  0  0  0  0
    5.5321   -2.9749    0.0000 C   0  0  0  0  0  0  0  0  0  0  0  0
    2.9061   -1.4402    0.0000 C   0  0  0  0  0  0  0  0  0  0  0  0
   10.9118   -1.7792    0.0000 C   0  0  0  0  0  0  0  0  0  0  0  0
    2.9061   -3.5095    0.0000 C   0  0  0  0  0  0  0  0  0  0  0  0
    6.3981   -3.4749    0.0000 C   0  0  0  0  0  0  0  0  0  0  0  0
    2.0000   -1.9541    0.0000 C   0  0  0  0  0  0  0  0  0  0  0  0
    2.0000   -2.9957    0.0000 C   0  0  0  0  0  0  0  0  0  0  0  0
    7.2641   -2.9749    0.0000 C   0  0  0  0  0  0  0  0  0  0  0  0
    6.3981   -4.4749    0.0000 C   0  0  0  0  0  0  0  0  0  0  0  0
    8.1301   -3.4749    0.0000 C   0  0  0  0  0  0  0  0  0  0  0  0
    7.2641   -4.9749    0.0000 C   0  0  0  0  0  0  0  0  0  0  0  0
    8.1301   -4.4749    0.0000 C   0  0  0  0  0  0  0  0  0  0  0  0
    5.8299    3.6580    0.0000 H   0  0  0  0  0  0  0  0  0  0  0  0
    7.3319    5.0291    0.0000 H   0  0  0  0  0  0  0  0  0  0  0  0
    6.4641    5.4154    0.0000 H   0  0  0  0  0  0  0  0  0  0  0  0
    5.8171    2.8853    0.0000 H   0  0  0  0  0  0  0  0  0  0  0  0
    4.6802    3.5995    0.0000 H   0  0  0  0  0  0  0  0  0  0  0  0
    7.2339    1.2600    0.0000 H   0  0  0  0  0  0  0  0  0  0  0  0
    5.5718    1.6362    0.0000 H   0  0  0  0  0  0  0  0  0  0  0  0
    5.0166    1.0196    0.0000 H   0  0  0  0  0  0  0  0  0  0  0  0
    5.5645   -0.5940    0.0000 H   0  0  0  0  0  0  0  0  0  0  0  0
    6.1356   -0.9186    0.0000 H   0  0  0  0  0  0  0  0  0  0  0  0
    6.9472   -0.7460    0.0000 H   0  0  0  0  0  0  0  0  0  0  0  0
    4.5968    5.5413    0.0000 H   0  0  0  0  0  0  0  0  0  0  0  0
    3.7280    4.9101    0.0000 H   0  0  0  0  0  0  0  0  0  0  0  0
    8.8583    4.9465    0.0000 H   0  0  0  0  0  0  0  0  0  0  0  0
    8.7682   -1.2230    0.0000 H   0  0  0  0  0  0  0  0  0  0  0  0
    7.5638   -1.9672    0.0000 H   0  0  0  0  0  0  0  0  0  0  0  0
    9.8749   -0.2595    0.0000 H   0  0  0  0  0  0  0  0  0  0  0  0
    7.7686   -2.6313    0.0000 H   0  0  0  0  0  0  0  0  0  0  0  0
    8.5871   -2.9455    0.0000 H   0  0  0  0  0  0  0  0  0  0  0  0
    8.9013   -2.1269    0.0000 H   0  0  0  0  0  0  0  0  0  0  0  0
    6.9985   -0.7444    0.0000 H   0  0  0  0  0  0  0  0  0  0  0  0
    6.3171   -1.2962    0.0000 H   0  0  0  0  0  0  0  0  0  0  0  0
    6.8689   -1.9776    0.0000 H   0  0  0  0  0  0  0  0  0  0  0  0
    6.0690   -1.6649    0.0000 H   0  0  0  0  0  0  0  0  0  0  0  0
    2.9132   -0.8203    0.0000 H   0  0  0  0  0  0  0  0  0  0  0  0
    2.9132   -4.1295    0.0000 H   0  0  0  0  0  0  0  0  0  0  0  0
    1.4643   -1.6420    0.0000 H   0  0  0  0  0  0  0  0  0  0  0  0
    1.4643   -3.3078    0.0000 H   0  0  0  0  0  0  0  0  0  0  0  0
    7.2641   -2.3549    0.0000 H   0  0  0  0  0  0  0  0  0  0  0  0
    5.8612   -4.7849    0.0000 H   0  0  0  0  0  0  0  0  0  0  0  0
    8.6671   -3.1649    0.0000 H   0  0  0  0  0  0  0  0  0  0  0  0
    7.2641   -5.5949    0.0000 H   0  0  0  0  0  0  0  0  0  0  0  0
    8.6671   -4.7849    0.0000 H   0  0  0  0  0  0  0  0  0  0  0  0
  1 37  1  0  0  0  0
  2 37  1  0  0  0  0
  3 37  1  0  0  0  0
  4 17  1  0  0  0  0
  4 60  1  0  0  0  0
  5 17  2  0  0  0  0
 22  6  1  6  0  0  0
  6 28  1  0  0  0  0
  7 20  2  0  0  0  0
  8 25  2  0  0  0  0
  9 33  2  0  0  0  0
 10 14  1  0  0  0  0
 10 20  1  0  0  0  0
 10 50  1  0  0  0  0
 11 19  1  0  0  0  0
 11 23  1  0  0  0  0
 11 25  1  0  0  0  0
 26 12  1  1  0  0  0
 12 33  1  0  0  0  0
 12 63  1  0  0  0  0
 13 34  1  0  0  0  0
 13 35  2  0  0  0  0
 14 15  1  0  0  0  0
 14 16  1  0  0  0  0
 14 17  1  0  0  0  0
 15 16  1  0  0  0  0
 15 18  1  1  0  0  0
 15 47  1  0  0  0  0
 16 48  1  0  0  0  0
 16 49  1  0  0  0  0
 18 24  2  0  0  0  0
 18 51  1  0  0  0  0
 19 20  1  1  0  0  0
 19 21  1  0  0  0  0
 19 52  1  0  0  0  0
 21 22  1  0  0  0  0
 21 53  1  0  0  0  0
 21 54  1  0  0  0  0
 22 23  1  0  0  0  0
 22 55  1  0  0  0  0
 23 56  1  0  0  0  0
 23 57  1  0  0  0  0
 24 58  1  0  0  0  0
 24 59  1  0  0  0  0
 25 26  1  0  0  0  0
 26 27  1  0  0  0  0
 26 61  1  0  0  0  0
 27 29  1  0  0  0  0
 27 30  1  0  0  0  0
 27 62  1  0  0  0  0
 28 31  1  0  0  0  0
 28 32  2  0  0  0  0
 29 64  1  0  0  0  0
 29 65  1  0  0  0  0
 29 66  1  0  0  0  0
 30 67  1  0  0  0  0
 30 68  1  0  0  0  0
 30 69  1  0  0  0  0
 31 34  1  0  0  0  0
 31 36  2  0  0  0  0
 32 35  1  0  0  0  0
 32 70  1  0  0  0  0
 33 37  1  0  0  0  0
 34 38  2  0  0  0  0
 35 39  1  0  0  0  0
 36 40  1  0  0  0  0
 36 71  1  0  0  0  0
 38 41  1  0  0  0  0
 38 72  1  0  0  0  0
 39 42  2  0  0  0  0
 39 43  1  0  0  0  0
 40 41  2  0  0  0  0
 40 73  1  0  0  0  0
 41 74  1  0  0  0  0
 42 44  1  0  0  0  0
 42 75  1  0  0  0  0
 43 45  2  0  0  0  0
 43 76  1  0  0  0  0
 44 46  2  0  0  0  0
 44 77  1  0  0  0  0
 45 46  1  0  0  0  0
 45 78  1  0  0  0  0
 46 79  1  0  0  0  0
M  END
> <PUBCHEM_COMPOUND_CID>
500654
> <PUBCHEM_COMPOUND_CANONICALIZED>
1
> <PUBCHEM_CACTVS_COMPLEXITY>
1180
> <PUBCHEM_CACTVS_HBOND_ACCEPTOR>
10
> <PUBCHEM_CACTVS_HBOND_DONOR>
3
> <PUBCHEM_CACTVS_ROTATABLE_BOND>
10
> <PUBCHEM_CACTVS_SUBSKEYS>
AAADcfB/uYAAAAAAAAAAAAAAGAAAAWAAAAA8YIAAAAAAAACx9AAAHwAQCAAADbzhnhYyzvPIFgCoAyXyXACCiCAhIiAImKG+bJgOZvLEsbuXeCjm1hnY6Ae6weAOAAAAAAACAAAAAAAAAAQAAAAAAAAAAA==
> <PUBCHEM_IUPAC_OPENEYE_NAME>
(2R)-1-[[(2S,4R)-1-[(2S)-3-methyl-2-[(2,2,2-trifluoroacetyl)amino]butanoyl]-4-[(2-phenyl-4-quinolyl)oxy]pyrrolidine-2-carbonyl]amino]-2-vinyl-cyclopropanecarboxylic acid
> <PUBCHEM_IUPAC_CAS_NAME>
(2R)-2-ethenyl-1-[[[(2S,4R)-1-[(2S)-3-methyl-1-oxo-2-[(2,2,2-trifluoro-1-oxoethyl)amino]butyl]-4-[(2-phenyl-4-quinolinyl)oxy]-2-pyrrolidinyl]-oxomethyl]amino]-1-cyclopropanecarboxylic acid
> <PUBCHEM_IUPAC_NAME_MARKUP>
(2<I>R</I>)-2-ethenyl-1-[[(2<I>S</I>,4<I>R</I>)-1-[(2<I>S</I>)-3-methyl-2-[(2,2,2-trifluoroacetyl)amino]butanoyl]-4-(2-phenylquinolin-4-yl)oxypyrrolidine-2-carbonyl]amino]cyclopropane-1-carboxylic acid
> <PUBCHEM_IUPAC_NAME>
(2R)-2-ethenyl-1-[[(2S,4R)-1-[(2S)-3-methyl-2-[(2,2,2-trifluoroacetyl)amino]butanoyl]-4-(2-phenylquinolin-4-yl)oxypyrrolidine-2-carbonyl]amino]cyclopropane-1-carboxylic acid
> <PUBCHEM_IUPAC_SYSTEMATIC_NAME>
(2R)-2-ethenyl-1-[[(2S,4R)-1-[(2S)-3-methyl-2-[2,2,2-tris(fluoranyl)ethanoylamino]butanoyl]-4-(2-phenylquinolin-4-yl)oxy-pyrrolidin-2-yl]carbonylamino]cyclopropane-1-carboxylic acid
> <PUBCHEM_IUPAC_TRADITIONAL_NAME>
(2R)-1-[[(2S,4R)-1-[(2S)-3-methyl-2-[(2,2,2-trifluoroacetyl)amino]butanoyl]-4-[(2-phenyl-4-quinolyl)oxy]prolyl]amino]-2-vinyl-cyclopropanecarboxylic acid
> <PUBCHEM_IUPAC_INCHI>
InChI=1S/C33H33F3N4O6/c1-4-20-16-32(20,31(44)45)39-28(41)25-14-21(17-40(25)29(42)27(18(2)3)38-30(43)33(34,35)36)46-26-15-24(19-10-6-5-7-11-19)37-23-13-9-8-12-22(23)26/h4-13,15,18,20-21,25,27H,1,14,16-17H2,2-3H3,(H,38,43)(H,39,41)(H,44,45)/t20-,21+,25-,27-,32?/m0/s1
> <PUBCHEM_IUPAC_INCHIKEY>
UDZUVGKGZNKVTM-JAAKGDCSSA-N
> <PUBCHEM_XLOGP3_AA>
5.2
> <PUBCHEM_EXACT_MASS>
638.23521927
> <PUBCHEM_MOLECULAR_FORMULA>
C33H33F3N4O6
> <PUBCHEM_MOLECULAR_WEIGHT>
638.6
> <PUBCHEM_OPENEYE_CAN_SMILES>
CC(C)C(C(=O)N1CC(CC1C(=O)NC2(CC2C=C)C(=O)O)OC3=CC(=NC4=CC=CC=C43)C5=CC=CC=C5)NC(=O)C(F)(F)F
> <PUBCHEM_OPENEYE_ISO_SMILES>
CC(C)[C@@H](C(=O)N1C[C@@H](C[C@H]1C(=O)NC2(C[C@@H]2C=C)C(=O)O)OC3=CC(=NC4=CC=CC=C43)C5=CC=CC=C5)NC(=O)C(F)(F)F
> <PUBCHEM_CACTVS_TPSA>
138
> <PUBCHEM_MONOISOTOPIC_WEIGHT>
638.23521927
> <PUBCHEM_TOTAL_CHARGE>
0
> <PUBCHEM_HEAVY_ATOM_COUNT>
46
> <PUBCHEM_ATOM_DEF_STEREO_COUNT>
4
> <PUBCHEM_ATOM_UDEF_STEREO_COUNT>
1
> <PUBCHEM_BOND_DEF_STEREO_COUNT>
0
> <PUBCHEM_BOND_UDEF_STEREO_COUNT>
0
> <PUBCHEM_ISOTOPIC_ATOM_COUNT>
0
> <PUBCHEM_COMPONENT_COUNT>
1
> <PUBCHEM_CACTVS_TAUTO_COUNT>
-1
> <PUBCHEM_COORDINATE_TYPE>
1
5
255
> <PUBCHEM_BONDANNOTATIONS>
26  12  5
13  34  8
13  35  8
14  17  3
15  18  5
19  20  5
28  31  8
28  32  8
31  34  8
31  36  8
32  35  8
34  38  8
36  40  8
38  41  8
39  42  8
39  43  8
40  41  8
42  44  8
43  45  8
44  46  8
45  46  8
22  6  6
$$$$
