500644
  -OEChem-10302200282D
 87 91  0     1  0  0  0  0  0999 V2000
    5.2579   -4.9019    0.0000 O   0  0  0  0  0  0  0  0  0  0  0  0
    8.8335    0.4547    0.0000 O   0  0  0  0  0  0  0  0  0  0  0  0
    5.0768   -3.1793    0.0000 O   0  0  0  0  0  0  0  0  0  0  0  0
    5.4836   -2.2658    0.0000 O   0  0  0  0  0  0  0  0  0  0  0  0
    4.8025   -1.0862    0.0000 O   0  0  0  0  0  0  0  0  0  0  0  0
    5.7524    3.1680    0.0000 O   0  0  0  0  0  0  0  0  0  0  0  0
    4.1701    2.4635    0.0000 O   0  0  0  0  0  0  0  0  0  0  0  0
    7.0659   -2.9703    0.0000 N   0  0  0  0  0  0  0  0  0  0  0  0
    6.3848   -0.3817    0.0000 N   0  0  0  0  0  0  0  0  0  0  0  0
    5.5714    1.4454    0.0000 N   0  0  0  0  0  0  0  0  0  0  0  0
    6.6591   -3.8838    0.0000 C   0  0  3  0  0  0  0  0  0  0  0  0
    7.5727   -4.2906    0.0000 C   0  0  2  0  0  0  0  0  0  0  0  0
    6.7637   -4.8784    0.0000 C   0  0  0  0  0  0  0  0  0  0  0  0
    6.8848   -1.2477    0.0000 C   0  0  2  0  0  0  0  0  0  0  0  0
    5.6646   -3.9884    0.0000 C   0  0  0  0  0  0  0  0  0  0  0  0
    8.5672   -4.1860    0.0000 C   0  0  0  0  0  0  0  0  0  0  0  0
    6.4781   -2.1613    0.0000 C   0  0  0  0  0  0  0  0  0  0  0  0
    7.8630   -1.0398    0.0000 C   0  0  0  0  0  0  0  0  0  0  0  0
    7.9675   -0.0453    0.0000 C   0  0  2  0  0  0  0  0  0  0  0  0
    3.9890    0.7409    0.0000 C   0  0  0  0  0  0  0  0  0  0  0  0
    7.0540    0.3615    0.0000 C   0  0  0  0  0  0  0  0  0  0  0  0
    4.9836    0.6364    0.0000 C   0  0  1  0  0  0  0  0  0  0  0  0
    5.3903   -0.2772    0.0000 C   0  0  0  0  0  0  0  0  0  0  0  0
    3.5823    1.6544    0.0000 C   0  0  0  0  0  0  0  0  0  0  0  0
    3.4013   -0.0681    0.0000 C   0  0  0  0  0  0  0  0  0  0  0  0
    2.5878    1.7590    0.0000 C   0  0  0  0  0  0  0  0  0  0  0  0
    2.4067    0.0364    0.0000 C   0  0  0  0  0  0  0  0  0  0  0  0
    2.0000    0.9500    0.0000 C   0  0  0  0  0  0  0  0  0  0  0  0
    9.1550   -4.9950    0.0000 C   0  0  0  0  0  0  0  0  0  0  0  0
    8.8335    1.4547    0.0000 C   0  0  0  0  0  0  0  0  0  0  0  0
    5.1646    2.3589    0.0000 C   0  0  0  0  0  0  0  0  0  0  0  0
    9.6996    1.9547    0.0000 C   0  0  0  0  0  0  0  0  0  0  0  0
    7.9675    1.9547    0.0000 C   0  0  0  0  0  0  0  0  0  0  0  0
    5.3457    4.0815    0.0000 C   0  0  0  0  0  0  0  0  0  0  0  0
    9.6996    2.9547    0.0000 C   0  0  0  0  0  0  0  0  0  0  0  0
    7.9675    2.9547    0.0000 C   0  0  0  0  0  0  0  0  0  0  0  0
   10.5935    1.4200    0.0000 C   0  0  0  0  0  0  0  0  0  0  0  0
    8.8335    3.4547    0.0000 C   0  0  0  0  0  0  0  0  0  0  0  0
    4.9389    4.9950    0.0000 C   0  0  0  0  0  0  0  0  0  0  0  0
    6.2592    4.4882    0.0000 C   0  0  0  0  0  0  0  0  0  0  0  0
    4.4321    3.6748    0.0000 C   0  0  0  0  0  0  0  0  0  0  0  0
   10.5935    3.4894    0.0000 C   0  0  0  0  0  0  0  0  0  0  0  0
   11.4996    1.9339    0.0000 C   0  0  0  0  0  0  0  0  0  0  0  0
   11.4996    2.9755    0.0000 C   0  0  0  0  0  0  0  0  0  0  0  0
    7.6697   -3.6782    0.0000 H   0  0  0  0  0  0  0  0  0  0  0  0
    6.1677   -5.0492    0.0000 H   0  0  0  0  0  0  0  0  0  0  0  0
    7.0354   -5.4356    0.0000 H   0  0  0  0  0  0  0  0  0  0  0  0
    7.6825   -2.9055    0.0000 H   0  0  0  0  0  0  0  0  0  0  0  0
    6.2657   -1.2802    0.0000 H   0  0  0  0  0  0  0  0  0  0  0  0
    8.8194   -3.6196    0.0000 H   0  0  0  0  0  0  0  0  0  0  0  0
    7.9278   -1.6564    0.0000 H   0  0  0  0  0  0  0  0  0  0  0  0
    8.4830   -1.0398    0.0000 H   0  0  0  0  0  0  0  0  0  0  0  0
    7.9350    0.5739    0.0000 H   0  0  0  0  0  0  0  0  0  0  0  0
    4.2412    0.1745    0.0000 H   0  0  0  0  0  0  0  0  0  0  0  0
    7.3640    0.8984    0.0000 H   0  0  0  0  0  0  0  0  0  0  0  0
    6.5524    0.7259    0.0000 H   0  0  0  0  0  0  0  0  0  0  0  0
    5.6002    0.5716    0.0000 H   0  0  0  0  0  0  0  0  0  0  0  0
    4.1839    1.8044    0.0000 H   0  0  0  0  0  0  0  0  0  0  0  0
    3.5391    2.2729    0.0000 H   0  0  0  0  0  0  0  0  0  0  0  0
    3.2304   -0.6641    0.0000 H   0  0  0  0  0  0  0  0  0  0  0  0
    3.9585   -0.3399    0.0000 H   0  0  0  0  0  0  0  0  0  0  0  0
    2.7587    2.3550    0.0000 H   0  0  0  0  0  0  0  0  0  0  0  0
    2.0305    2.0308    0.0000 H   0  0  0  0  0  0  0  0  0  0  0  0
    1.8052   -0.1136    0.0000 H   0  0  0  0  0  0  0  0  0  0  0  0
    2.4500   -0.5821    0.0000 H   0  0  0  0  0  0  0  0  0  0  0  0
    1.5693    1.3960    0.0000 H   0  0  0  0  0  0  0  0  0  0  0  0
    1.4860    0.6033    0.0000 H   0  0  0  0  0  0  0  0  0  0  0  0
    8.9028   -5.5614    0.0000 H   0  0  0  0  0  0  0  0  0  0  0  0
    9.7716   -4.9302    0.0000 H   0  0  0  0  0  0  0  0  0  0  0  0
    4.6413   -4.9667    0.0000 H   0  0  0  0  0  0  0  0  0  0  0  0
    6.1880    1.3806    0.0000 H   0  0  0  0  0  0  0  0  0  0  0  0
    7.4306    1.6447    0.0000 H   0  0  0  0  0  0  0  0  0  0  0  0
    7.4306    3.2647    0.0000 H   0  0  0  0  0  0  0  0  0  0  0  0
   10.5863    0.8001    0.0000 H   0  0  0  0  0  0  0  0  0  0  0  0
    8.8335    4.0747    0.0000 H   0  0  0  0  0  0  0  0  0  0  0  0
    5.5053    5.2472    0.0000 H   0  0  0  0  0  0  0  0  0  0  0  0
    4.6868    5.5614    0.0000 H   0  0  0  0  0  0  0  0  0  0  0  0
    4.3725    4.7429    0.0000 H   0  0  0  0  0  0  0  0  0  0  0  0
    6.5114    3.9218    0.0000 H   0  0  0  0  0  0  0  0  0  0  0  0
    6.8256    4.7404    0.0000 H   0  0  0  0  0  0  0  0  0  0  0  0
    6.0070    5.0546    0.0000 H   0  0  0  0  0  0  0  0  0  0  0  0
    4.1799    4.2412    0.0000 H   0  0  0  0  0  0  0  0  0  0  0  0
    3.8657    3.4226    0.0000 H   0  0  0  0  0  0  0  0  0  0  0  0
    4.6843    3.1084    0.0000 H   0  0  0  0  0  0  0  0  0  0  0  0
   10.5863    4.1093    0.0000 H   0  0  0  0  0  0  0  0  0  0  0  0
   12.0353    1.6218    0.0000 H   0  0  0  0  0  0  0  0  0  0  0  0
   12.0353    3.2876    0.0000 H   0  0  0  0  0  0  0  0  0  0  0  0
  1 15  1  0  0  0  0
  1 70  1  0  0  0  0
 19  2  1  6  0  0  0
  2 30  1  0  0  0  0
  3 15  2  0  0  0  0
  4 17  2  0  0  0  0
  5 23  2  0  0  0  0
  6 31  1  0  0  0  0
  6 34  1  0  0  0  0
  7 31  2  0  0  0  0
  8 11  1  0  0  0  0
  8 17  1  0  0  0  0
  8 48  1  0  0  0  0
  9 14  1  0  0  0  0
  9 21  1  0  0  0  0
  9 23  1  0  0  0  0
 22 10  1  6  0  0  0
 10 31  1  0  0  0  0
 10 71  1  0  0  0  0
 11 12  1  0  0  0  0
 11 13  1  0  0  0  0
 11 15  1  0  0  0  0
 12 13  1  0  0  0  0
 12 16  1  1  0  0  0
 12 45  1  0  0  0  0
 13 46  1  0  0  0  0
 13 47  1  0  0  0  0
 14 17  1  1  0  0  0
 14 18  1  0  0  0  0
 14 49  1  0  0  0  0
 16 29  2  0  0  0  0
 16 50  1  0  0  0  0
 18 19  1  0  0  0  0
 18 51  1  0  0  0  0
 18 52  1  0  0  0  0
 19 21  1  0  0  0  0
 19 53  1  0  0  0  0
 20 22  1  0  0  0  0
 20 24  1  0  0  0  0
 20 25  1  0  0  0  0
 20 54  1  0  0  0  0
 21 55  1  0  0  0  0
 21 56  1  0  0  0  0
 22 23  1  0  0  0  0
 22 57  1  0  0  0  0
 24 26  1  0  0  0  0
 24 58  1  0  0  0  0
 24 59  1  0  0  0  0
 25 27  1  0  0  0  0
 25 60  1  0  0  0  0
 25 61  1  0  0  0  0
 26 28  1  0  0  0  0
 26 62  1  0  0  0  0
 26 63  1  0  0  0  0
 27 28  1  0  0  0  0
 27 64  1  0  0  0  0
 27 65  1  0  0  0  0
 28 66  1  0  0  0  0
 28 67  1  0  0  0  0
 29 68  1  0  0  0  0
 29 69  1  0  0  0  0
 30 32  1  0  0  0  0
 30 33  2  0  0  0  0
 32 35  1  0  0  0  0
 32 37  2  0  0  0  0
 33 36  1  0  0  0  0
 33 72  1  0  0  0  0
 34 39  1  0  0  0  0
 34 40  1  0  0  0  0
 34 41  1  0  0  0  0
 35 38  1  0  0  0  0
 35 42  2  0  0  0  0
 36 38  2  0  0  0  0
 36 73  1  0  0  0  0
 37 43  1  0  0  0  0
 37 74  1  0  0  0  0
 38 75  1  0  0  0  0
 39 76  1  0  0  0  0
 39 77  1  0  0  0  0
 39 78  1  0  0  0  0
 40 79  1  0  0  0  0
 40 80  1  0  0  0  0
 40 81  1  0  0  0  0
 41 82  1  0  0  0  0
 41 83  1  0  0  0  0
 41 84  1  0  0  0  0
 42 44  1  0  0  0  0
 42 85  1  0  0  0  0
 43 44  2  0  0  0  0
 43 86  1  0  0  0  0
 44 87  1  0  0  0  0
M  END
> <PUBCHEM_COMPOUND_CID>
500644
> <PUBCHEM_COMPOUND_CANONICALIZED>
1
> <PUBCHEM_CACTVS_COMPLEXITY>
1100
> <PUBCHEM_CACTVS_HBOND_ACCEPTOR>
7
> <PUBCHEM_CACTVS_HBOND_DONOR>
3
> <PUBCHEM_CACTVS_ROTATABLE_BOND>
11
> <PUBCHEM_CACTVS_SUBSKEYS>
AAADcfB/OAAAAAAAAAAAAAAAGAAAAWAAAAAwYMAAAAAAAADBUAAAHgAQCAAADfzhmAYyDsPABgCIAiHSGAACCAAgIAAIiIGOCIkOZjKEsTqfeCCm1hGYqAe6ybCOgAABAAAYAAAAAAIAADAAAAAAAAAAAA==
> <PUBCHEM_IUPAC_OPENEYE_NAME>
(2R)-1-[[(2S,4R)-1-[(2S)-2-(tert-butoxycarbonylamino)-2-cyclohexyl-acetyl]-4-(1-naphthyloxy)pyrrolidine-2-carbonyl]amino]-2-vinyl-cyclopropanecarboxylic acid
> <PUBCHEM_IUPAC_CAS_NAME>
(2R)-1-[[[(2S,4R)-1-[(2S)-2-cyclohexyl-2-[[(2-methylpropan-2-yl)oxy-oxomethyl]amino]-1-oxoethyl]-4-(1-naphthalenyloxy)-2-pyrrolidinyl]-oxomethyl]amino]-2-ethenyl-1-cyclopropanecarboxylic acid
> <PUBCHEM_IUPAC_NAME_MARKUP>
(2<I>R</I>)-1-[[(2<I>S</I>,4<I>R</I>)-1-[(2<I>S</I>)-2-cyclohexyl-2-[(2-methylpropan-2-yl)oxycarbonylamino]acetyl]-4-naphthalen-1-yloxypyrrolidine-2-carbonyl]amino]-2-ethenylcyclopropane-1-carboxylic acid
> <PUBCHEM_IUPAC_NAME>
(2R)-1-[[(2S,4R)-1-[(2S)-2-cyclohexyl-2-[(2-methylpropan-2-yl)oxycarbonylamino]acetyl]-4-naphthalen-1-yloxypyrrolidine-2-carbonyl]amino]-2-ethenylcyclopropane-1-carboxylic acid
> <PUBCHEM_IUPAC_SYSTEMATIC_NAME>
(2R)-1-[[(2S,4R)-1-[(2S)-2-cyclohexyl-2-[(2-methylpropan-2-yl)oxycarbonylamino]ethanoyl]-4-naphthalen-1-yloxy-pyrrolidin-2-yl]carbonylamino]-2-ethenyl-cyclopropane-1-carboxylic acid
> <PUBCHEM_IUPAC_TRADITIONAL_NAME>
(2R)-1-[[(2S,4R)-1-[(2S)-2-(tert-butoxycarbonylamino)-2-cyclohexyl-acetyl]-4-(1-naphthoxy)prolyl]amino]-2-vinyl-cyclopropanecarboxylic acid
> <PUBCHEM_IUPAC_INCHI>
InChI=1S/C34H43N3O7/c1-5-23-19-34(23,31(40)41)36-29(38)26-18-24(43-27-17-11-15-21-12-9-10-16-25(21)27)20-37(26)30(39)28(22-13-7-6-8-14-22)35-32(42)44-33(2,3)4/h5,9-12,15-17,22-24,26,28H,1,6-8,13-14,18-20H2,2-4H3,(H,35,42)(H,36,38)(H,40,41)/t23-,24+,26-,28-,34?/m0/s1
> <PUBCHEM_IUPAC_INCHIKEY>
QBDOXRUCHQZZLA-FLICGIGGSA-N
> <PUBCHEM_XLOGP3_AA>
5.8
> <PUBCHEM_EXACT_MASS>
605.31010072
> <PUBCHEM_MOLECULAR_FORMULA>
C34H43N3O7
> <PUBCHEM_MOLECULAR_WEIGHT>
605.7
> <PUBCHEM_OPENEYE_CAN_SMILES>
CC(C)(C)OC(=O)NC(C1CCCCC1)C(=O)N2CC(CC2C(=O)NC3(CC3C=C)C(=O)O)OC4=CC=CC5=CC=CC=C54
> <PUBCHEM_OPENEYE_ISO_SMILES>
CC(C)(C)OC(=O)N[C@@H](C1CCCCC1)C(=O)N2C[C@@H](C[C@H]2C(=O)NC3(C[C@@H]3C=C)C(=O)O)OC4=CC=CC5=CC=CC=C54
> <PUBCHEM_CACTVS_TPSA>
134
> <PUBCHEM_MONOISOTOPIC_WEIGHT>
605.31010072
> <PUBCHEM_TOTAL_CHARGE>
0
> <PUBCHEM_HEAVY_ATOM_COUNT>
44
> <PUBCHEM_ATOM_DEF_STEREO_COUNT>
4
> <PUBCHEM_ATOM_UDEF_STEREO_COUNT>
1
> <PUBCHEM_BOND_DEF_STEREO_COUNT>
0
> <PUBCHEM_BOND_UDEF_STEREO_COUNT>
0
> <PUBCHEM_ISOTOPIC_ATOM_COUNT>
0
> <PUBCHEM_COMPONENT_COUNT>
1
> <PUBCHEM_CACTVS_TAUTO_COUNT>
-1
> <PUBCHEM_COORDINATE_TYPE>
1
5
255
> <PUBCHEM_BONDANNOTATIONS>
22  10  6
11  15  3
12  16  5
14  17  5
19  2  6
30  32  8
30  33  8
32  35  8
32  37  8
33  36  8
35  38  8
35  42  8
36  38  8
37  43  8
42  44  8
43  44  8
$$$$
