500692
  -OEChem-10302200282D
102106  0     1  0  0  0  0  0999 V2000
   13.6890   -0.6622    0.0000 O   0  0  0  0  0  0  0  0  0  0  0  0
   12.2877    0.3558    0.0000 O   0  0  0  0  0  0  0  0  0  0  0  0
    7.2622   -1.0805    0.0000 O   0  0  0  0  0  0  0  0  0  0  0  0
   11.2932    0.4604    0.0000 O   0  0  0  0  0  0  0  0  0  0  0  0
   10.6121    1.6400    0.0000 O   0  0  0  0  0  0  0  0  0  0  0  0
    7.8542    3.9625    0.0000 O   0  0  0  0  0  0  0  0  0  0  0  0
    6.4530    2.9444    0.0000 O   0  0  0  0  0  0  0  0  0  0  0  0
    3.7320   -4.1047    0.0000 O   0  0  0  0  0  0  0  0  0  0  0  0
   11.1121   -1.2622    0.0000 N   0  0  0  0  0  0  0  0  0  0  0  0
    9.2109    0.6219    0.0000 N   0  0  0  0  0  0  0  0  0  0  0  0
    8.0353    2.2399    0.0000 N   0  0  0  0  0  0  0  0  0  0  0  0
    7.2622   -4.0805    0.0000 N   0  0  0  0  0  0  0  0  0  0  0  0
   12.1066   -1.3667    0.0000 C   0  0  3  0  0  0  0  0  0  0  0  0
   12.0021   -2.3612    0.0000 C   0  0  2  0  0  0  0  0  0  0  0  0
   12.9157   -1.9545    0.0000 C   0  0  0  0  0  0  0  0  0  0  0  0
   12.6944   -0.5577    0.0000 C   0  0  0  0  0  0  0  0  0  0  0  0
   11.4143   -3.1703    0.0000 C   0  0  0  0  0  0  0  0  0  0  0  0
    9.7109   -0.2441    0.0000 C   0  0  2  0  0  0  0  0  0  0  0  0
   10.7054   -0.3487    0.0000 C   0  0  0  0  0  0  0  0  0  0  0  0
    9.0417   -0.9873    0.0000 C   0  0  0  0  0  0  0  0  0  0  0  0
    8.1282   -0.5805    0.0000 C   0  0  2  0  0  0  0  0  0  0  0  0
    8.2327    0.4140    0.0000 C   0  0  0  0  0  0  0  0  0  0  0  0
   11.8211   -4.0838    0.0000 C   0  0  0  0  0  0  0  0  0  0  0  0
    9.6176    1.5354    0.0000 C   0  0  0  0  0  0  0  0  0  0  0  0
    9.0298    2.3445    0.0000 C   0  0  2  0  0  0  0  0  0  0  0  0
    9.4366    3.2580    0.0000 C   0  0  0  0  0  0  0  0  0  0  0  0
    9.8433    4.1716    0.0000 C   0  0  0  0  0  0  0  0  0  0  0  0
    8.5230    3.6648    0.0000 C   0  0  0  0  0  0  0  0  0  0  0  0
   10.3501    2.8513    0.0000 C   0  0  0  0  0  0  0  0  0  0  0  0
    7.2622   -2.0805    0.0000 C   0  0  0  0  0  0  0  0  0  0  0  0
    6.3961   -2.5805    0.0000 C   0  0  0  0  0  0  0  0  0  0  0  0
    7.4475    3.0490    0.0000 C   0  0  0  0  0  0  0  0  0  0  0  0
    8.1282   -2.5805    0.0000 C   0  0  0  0  0  0  0  0  0  0  0  0
    6.3961   -3.5805    0.0000 C   0  0  0  0  0  0  0  0  0  0  0  0
    8.1282   -3.5805    0.0000 C   0  0  0  0  0  0  0  0  0  0  0  0
    5.5022   -2.0459    0.0000 C   0  0  0  0  0  0  0  0  0  0  0  0
    7.2665    4.7715    0.0000 C   0  0  0  0  0  0  0  0  0  0  0  0
    5.5022   -4.1152    0.0000 C   0  0  0  0  0  0  0  0  0  0  0  0
    4.5961   -2.5597    0.0000 C   0  0  0  0  0  0  0  0  0  0  0  0
    8.9942   -4.0805    0.0000 C   0  0  0  0  0  0  0  0  0  0  0  0
    4.5961   -3.6014    0.0000 C   0  0  0  0  0  0  0  0  0  0  0  0
    6.6787    5.5805    0.0000 C   0  0  0  0  0  0  0  0  0  0  0  0
    8.0755    5.3593    0.0000 C   0  0  0  0  0  0  0  0  0  0  0  0
    6.4574    4.1837    0.0000 C   0  0  0  0  0  0  0  0  0  0  0  0
    9.8602   -3.5805    0.0000 C   0  0  0  0  0  0  0  0  0  0  0  0
    8.9942   -5.0805    0.0000 C   0  0  0  0  0  0  0  0  0  0  0  0
    2.8641   -3.6080    0.0000 C   0  0  0  0  0  0  0  0  0  0  0  0
   10.7263   -4.0805    0.0000 C   0  0  0  0  0  0  0  0  0  0  0  0
    9.8602   -5.5805    0.0000 C   0  0  0  0  0  0  0  0  0  0  0  0
   10.7263   -5.0805    0.0000 C   0  0  0  0  0  0  0  0  0  0  0  0
    2.0000   -4.1114    0.0000 C   0  0  0  0  0  0  0  0  0  0  0  0
    2.8602   -2.6080    0.0000 C   0  0  0  0  0  0  0  0  0  0  0  0
   11.4233   -2.1391    0.0000 H   0  0  0  0  0  0  0  0  0  0  0  0
   13.2624   -2.4685    0.0000 H   0  0  0  0  0  0  0  0  0  0  0  0
   13.3617   -1.5238    0.0000 H   0  0  0  0  0  0  0  0  0  0  0  0
   10.7477   -1.7638    0.0000 H   0  0  0  0  0  0  0  0  0  0  0  0
   10.7977   -3.1055    0.0000 H   0  0  0  0  0  0  0  0  0  0  0  0
   10.0485    0.2759    0.0000 H   0  0  0  0  0  0  0  0  0  0  0  0
    8.7317   -1.5242    0.0000 H   0  0  0  0  0  0  0  0  0  0  0  0
    9.5433   -1.3517    0.0000 H   0  0  0  0  0  0  0  0  0  0  0  0
    8.1606   -1.1997    0.0000 H   0  0  0  0  0  0  0  0  0  0  0  0
    8.1679    1.0306    0.0000 H   0  0  0  0  0  0  0  0  0  0  0  0
    7.6127    0.4140    0.0000 H   0  0  0  0  0  0  0  0  0  0  0  0
   11.4566   -4.5854    0.0000 H   0  0  0  0  0  0  0  0  0  0  0  0
   12.4377   -4.1486    0.0000 H   0  0  0  0  0  0  0  0  0  0  0  0
    8.7776    1.7781    0.0000 H   0  0  0  0  0  0  0  0  0  0  0  0
   14.0534   -0.1606    0.0000 H   0  0  0  0  0  0  0  0  0  0  0  0
    7.7831    1.6735    0.0000 H   0  0  0  0  0  0  0  0  0  0  0  0
   10.4097    3.9194    0.0000 H   0  0  0  0  0  0  0  0  0  0  0  0
   10.0955    4.7380    0.0000 H   0  0  0  0  0  0  0  0  0  0  0  0
    9.2769    4.4237    0.0000 H   0  0  0  0  0  0  0  0  0  0  0  0
    8.7752    4.2311    0.0000 H   0  0  0  0  0  0  0  0  0  0  0  0
    7.9566    3.9169    0.0000 H   0  0  0  0  0  0  0  0  0  0  0  0
    8.2708    3.0984    0.0000 H   0  0  0  0  0  0  0  0  0  0  0  0
   10.0979    2.2849    0.0000 H   0  0  0  0  0  0  0  0  0  0  0  0
   10.9165    2.5991    0.0000 H   0  0  0  0  0  0  0  0  0  0  0  0
   10.6023    3.4177    0.0000 H   0  0  0  0  0  0  0  0  0  0  0  0
    8.6651   -2.2705    0.0000 H   0  0  0  0  0  0  0  0  0  0  0  0
    5.5094   -1.4259    0.0000 H   0  0  0  0  0  0  0  0  0  0  0  0
    5.5094   -4.7352    0.0000 H   0  0  0  0  0  0  0  0  0  0  0  0
    4.0604   -2.2476    0.0000 H   0  0  0  0  0  0  0  0  0  0  0  0
    7.1803    5.9450    0.0000 H   0  0  0  0  0  0  0  0  0  0  0  0
    6.3142    6.0821    0.0000 H   0  0  0  0  0  0  0  0  0  0  0  0
    6.1771    5.2161    0.0000 H   0  0  0  0  0  0  0  0  0  0  0  0
    8.4399    4.8577    0.0000 H   0  0  0  0  0  0  0  0  0  0  0  0
    8.5771    5.7237    0.0000 H   0  0  0  0  0  0  0  0  0  0  0  0
    7.7110    5.8609    0.0000 H   0  0  0  0  0  0  0  0  0  0  0  0
    6.0930    4.6853    0.0000 H   0  0  0  0  0  0  0  0  0  0  0  0
    5.9558    3.8193    0.0000 H   0  0  0  0  0  0  0  0  0  0  0  0
    6.8219    3.6821    0.0000 H   0  0  0  0  0  0  0  0  0  0  0  0
    9.8602   -2.9605    0.0000 H   0  0  0  0  0  0  0  0  0  0  0  0
    8.4573   -5.3905    0.0000 H   0  0  0  0  0  0  0  0  0  0  0  0
    3.3998   -3.2960    0.0000 H   0  0  0  0  0  0  0  0  0  0  0  0
   11.2632   -3.7705    0.0000 H   0  0  0  0  0  0  0  0  0  0  0  0
    9.8602   -6.2005    0.0000 H   0  0  0  0  0  0  0  0  0  0  0  0
   11.2632   -5.3905    0.0000 H   0  0  0  0  0  0  0  0  0  0  0  0
    1.6879   -3.5756    0.0000 H   0  0  0  0  0  0  0  0  0  0  0  0
    1.4643   -4.4234    0.0000 H   0  0  0  0  0  0  0  0  0  0  0  0
    2.3121   -4.6471    0.0000 H   0  0  0  0  0  0  0  0  0  0  0  0
    3.4802   -2.6056    0.0000 H   0  0  0  0  0  0  0  0  0  0  0  0
    2.8578   -1.9880    0.0000 H   0  0  0  0  0  0  0  0  0  0  0  0
    2.2402   -2.6104    0.0000 H   0  0  0  0  0  0  0  0  0  0  0  0
  1 16  1  0  0  0  0
  1 67  1  0  0  0  0
  2 16  2  0  0  0  0
 21  3  1  1  0  0  0
  3 30  1  0  0  0  0
  4 19  2  0  0  0  0
  5 24  2  0  0  0  0
  6 32  1  0  0  0  0
  6 37  1  0  0  0  0
  7 32  2  0  0  0  0
  8 41  1  0  0  0  0
  8 47  1  0  0  0  0
  9 13  1  0  0  0  0
  9 19  1  0  0  0  0
  9 56  1  0  0  0  0
 10 18  1  0  0  0  0
 10 22  1  0  0  0  0
 10 24  1  0  0  0  0
 25 11  1  1  0  0  0
 11 32  1  0  0  0  0
 11 68  1  0  0  0  0
 12 34  1  0  0  0  0
 12 35  2  0  0  0  0
 13 14  1  0  0  0  0
 13 15  1  0  0  0  0
 13 16  1  0  0  0  0
 14 15  1  0  0  0  0
 14 17  1  6  0  0  0
 14 53  1  0  0  0  0
 15 54  1  0  0  0  0
 15 55  1  0  0  0  0
 17 23  2  0  0  0  0
 17 57  1  0  0  0  0
 18 19  1  6  0  0  0
 18 20  1  0  0  0  0
 18 58  1  0  0  0  0
 20 21  1  0  0  0  0
 20 59  1  0  0  0  0
 20 60  1  0  0  0  0
 21 22  1  0  0  0  0
 21 61  1  0  0  0  0
 22 62  1  0  0  0  0
 22 63  1  0  0  0  0
 23 64  1  0  0  0  0
 23 65  1  0  0  0  0
 24 25  1  0  0  0  0
 25 26  1  0  0  0  0
 25 66  1  0  0  0  0
 26 27  1  0  0  0  0
 26 28  1  0  0  0  0
 26 29  1  0  0  0  0
 27 69  1  0  0  0  0
 27 70  1  0  0  0  0
 27 71  1  0  0  0  0
 28 72  1  0  0  0  0
 28 73  1  0  0  0  0
 28 74  1  0  0  0  0
 29 75  1  0  0  0  0
 29 76  1  0  0  0  0
 29 77  1  0  0  0  0
 30 31  1  0  0  0  0
 30 33  2  0  0  0  0
 31 34  2  0  0  0  0
 31 36  1  0  0  0  0
 33 35  1  0  0  0  0
 33 78  1  0  0  0  0
 34 38  1  0  0  0  0
 35 40  1  0  0  0  0
 36 39  2  0  0  0  0
 36 79  1  0  0  0  0
 37 42  1  0  0  0  0
 37 43  1  0  0  0  0
 37 44  1  0  0  0  0
 38 41  2  0  0  0  0
 38 80  1  0  0  0  0
 39 41  1  0  0  0  0
 39 81  1  0  0  0  0
 40 45  2  0  0  0  0
 40 46  1  0  0  0  0
 42 82  1  0  0  0  0
 42 83  1  0  0  0  0
 42 84  1  0  0  0  0
 43 85  1  0  0  0  0
 43 86  1  0  0  0  0
 43 87  1  0  0  0  0
 44 88  1  0  0  0  0
 44 89  1  0  0  0  0
 44 90  1  0  0  0  0
 45 48  1  0  0  0  0
 45 91  1  0  0  0  0
 46 49  2  0  0  0  0
 46 92  1  0  0  0  0
 47 51  1  0  0  0  0
 47 52  1  0  0  0  0
 47 93  1  0  0  0  0
 48 50  2  0  0  0  0
 48 94  1  0  0  0  0
 49 50  1  0  0  0  0
 49 95  1  0  0  0  0
 50 96  1  0  0  0  0
 51 97  1  0  0  0  0
 51 98  1  0  0  0  0
 51 99  1  0  0  0  0
 52100  1  0  0  0  0
 52101  1  0  0  0  0
 52102  1  0  0  0  0
M  END
> <PUBCHEM_COMPOUND_CID>
500692
> <PUBCHEM_COMPOUND_CANONICALIZED>
1
> <PUBCHEM_CACTVS_COMPLEXITY>
1320
> <PUBCHEM_CACTVS_HBOND_ACCEPTOR>
9
> <PUBCHEM_CACTVS_HBOND_DONOR>
3
> <PUBCHEM_CACTVS_ROTATABLE_BOND>
14
> <PUBCHEM_CACTVS_SUBSKEYS>
AAADcfB/vAAAAAAAAAAAAAAAGAAAAWAAAAA8YIAAAAAAAACx9AAAHgAQCAAAD/zhngYyzvPIFgCoAyXyXACCiCAhIiAImKG+bJkOZvLEsbufeCjm1hnY6Ae68e8PIAAAAgACAABAAAAEAAQAAAAAAAAAAA==
> <PUBCHEM_IUPAC_OPENEYE_NAME>
(2R)-1-[[(2S,4R)-1-[(2S)-2-(tert-butoxycarbonylamino)-3,3-dimethyl-butanoyl]-4-[(7-isopropoxy-2-phenyl-4-quinolyl)oxy]pyrrolidine-2-carbonyl]amino]-2-vinyl-cyclopropanecarboxylic acid
> <PUBCHEM_IUPAC_CAS_NAME>
(2R)-1-[[[(2S,4R)-1-[(2S)-3,3-dimethyl-2-[[(2-methylpropan-2-yl)oxy-oxomethyl]amino]-1-oxobutyl]-4-[(2-phenyl-7-propan-2-yloxy-4-quinolinyl)oxy]-2-pyrrolidinyl]-oxomethyl]amino]-2-ethenyl-1-cyclopropanecarboxylic acid
> <PUBCHEM_IUPAC_NAME_MARKUP>
(2<I>R</I>)-1-[[(2<I>S</I>,4<I>R</I>)-1-[(2<I>S</I>)-3,3-dimethyl-2-[(2-methylpropan-2-yl)oxycarbonylamino]butanoyl]-4-(2-phenyl-7-propan-2-yloxyquinolin-4-yl)oxypyrrolidine-2-carbonyl]amino]-2-ethenylcyclopropane-1-carboxylic acid
> <PUBCHEM_IUPAC_NAME>
(2R)-1-[[(2S,4R)-1-[(2S)-3,3-dimethyl-2-[(2-methylpropan-2-yl)oxycarbonylamino]butanoyl]-4-(2-phenyl-7-propan-2-yloxyquinolin-4-yl)oxypyrrolidine-2-carbonyl]amino]-2-ethenylcyclopropane-1-carboxylic acid
> <PUBCHEM_IUPAC_SYSTEMATIC_NAME>
(2R)-1-[[(2S,4R)-1-[(2S)-3,3-dimethyl-2-[(2-methylpropan-2-yl)oxycarbonylamino]butanoyl]-4-(2-phenyl-7-propan-2-yloxy-quinolin-4-yl)oxy-pyrrolidin-2-yl]carbonylamino]-2-ethenyl-cyclopropane-1-carboxylic acid
> <PUBCHEM_IUPAC_TRADITIONAL_NAME>
(2R)-1-[[(2S,4R)-1-[(2S)-2-(tert-butoxycarbonylamino)-3,3-dimethyl-butanoyl]-4-[(7-isopropoxy-2-phenyl-4-quinolyl)oxy]prolyl]amino]-2-vinyl-cyclopropanecarboxylic acid
> <PUBCHEM_IUPAC_INCHI>
InChI=1S/C40H50N4O8/c1-10-25-21-40(25,36(47)48)43-34(45)31-19-27(22-44(31)35(46)33(38(4,5)6)42-37(49)52-39(7,8)9)51-32-20-29(24-14-12-11-13-15-24)41-30-18-26(50-23(2)3)16-17-28(30)32/h10-18,20,23,25,27,31,33H,1,19,21-22H2,2-9H3,(H,42,49)(H,43,45)(H,47,48)/t25-,27+,31-,33+,40?/m0/s1
> <PUBCHEM_IUPAC_INCHIKEY>
NZPSKHGMBSTDHO-BLSLMYKKSA-N
> <PUBCHEM_XLOGP3_AA>
6.6
> <PUBCHEM_EXACT_MASS>
714.36286457
> <PUBCHEM_MOLECULAR_FORMULA>
C40H50N4O8
> <PUBCHEM_MOLECULAR_WEIGHT>
714.8
> <PUBCHEM_OPENEYE_CAN_SMILES>
CC(C)OC1=CC2=C(C=C1)C(=CC(=N2)C3=CC=CC=C3)OC4CC(N(C4)C(=O)C(C(C)(C)C)NC(=O)OC(C)(C)C)C(=O)NC5(CC5C=C)C(=O)O
> <PUBCHEM_OPENEYE_ISO_SMILES>
CC(C)OC1=CC2=C(C=C1)C(=CC(=N2)C3=CC=CC=C3)O[C@@H]4C[C@H](N(C4)C(=O)[C@H](C(C)(C)C)NC(=O)OC(C)(C)C)C(=O)NC5(C[C@@H]5C=C)C(=O)O
> <PUBCHEM_CACTVS_TPSA>
156
> <PUBCHEM_MONOISOTOPIC_WEIGHT>
714.36286457
> <PUBCHEM_TOTAL_CHARGE>
0
> <PUBCHEM_HEAVY_ATOM_COUNT>
52
> <PUBCHEM_ATOM_DEF_STEREO_COUNT>
4
> <PUBCHEM_ATOM_UDEF_STEREO_COUNT>
1
> <PUBCHEM_BOND_DEF_STEREO_COUNT>
0
> <PUBCHEM_BOND_UDEF_STEREO_COUNT>
0
> <PUBCHEM_ISOTOPIC_ATOM_COUNT>
0
> <PUBCHEM_COMPONENT_COUNT>
1
> <PUBCHEM_CACTVS_TAUTO_COUNT>
-1
> <PUBCHEM_COORDINATE_TYPE>
1
5
255
> <PUBCHEM_BONDANNOTATIONS>
25  11  5
12  34  8
12  35  8
13  16  3
14  17  6
18  19  6
21  3  5
30  31  8
30  33  8
31  34  8
31  36  8
33  35  8
34  38  8
36  39  8
38  41  8
39  41  8
40  45  8
40  46  8
45  48  8
46  49  8
48  50  8
49  50  8
$$$$
