500646
  -OEChem-10302200282D
 86 90  0     1  0  0  0  0  0999 V2000
    8.2414    4.2826    0.0000 O   0  0  0  0  0  0  0  0  0  0  0  0
    8.8335   -0.7604    0.0000 O   0  0  0  0  0  0  0  0  0  0  0  0
    6.8402    5.3007    0.0000 O   0  0  0  0  0  0  0  0  0  0  0  0
    5.4836    1.9601    0.0000 O   0  0  0  0  0  0  0  0  0  0  0  0
    4.8025    0.7805    0.0000 O   0  0  0  0  0  0  0  0  0  0  0  0
    5.7524   -3.4736    0.0000 O   0  0  0  0  0  0  0  0  0  0  0  0
    4.1701   -2.7691    0.0000 O   0  0  0  0  0  0  0  0  0  0  0  0
    7.0659    2.6646    0.0000 N   0  0  0  0  0  0  0  0  0  0  0  0
    6.3848    0.0760    0.0000 N   0  0  0  0  0  0  0  0  0  0  0  0
    5.5714   -1.7511    0.0000 N   0  0  0  0  0  0  0  0  0  0  0  0
   11.4996   -3.2812    0.0000 N   0  0  0  0  0  0  0  0  0  0  0  0
    6.6591    3.5782    0.0000 C   0  0  3  0  0  0  0  0  0  0  0  0
    5.8501    4.1659    0.0000 C   0  0  2  0  0  0  0  0  0  0  0  0
    5.7456    3.1714    0.0000 C   0  0  0  0  0  0  0  0  0  0  0  0
    6.8848    0.9420    0.0000 C   0  0  2  0  0  0  0  0  0  0  0  0
    7.2469    4.3872    0.0000 C   0  0  0  0  0  0  0  0  0  0  0  0
    5.4434    5.0795    0.0000 C   0  0  0  0  0  0  0  0  0  0  0  0
    6.4781    1.8556    0.0000 C   0  0  0  0  0  0  0  0  0  0  0  0
    7.8630    0.7341    0.0000 C   0  0  0  0  0  0  0  0  0  0  0  0
    7.9675   -0.2604    0.0000 C   0  0  2  0  0  0  0  0  0  0  0  0
    3.9890   -1.0466    0.0000 C   0  0  0  0  0  0  0  0  0  0  0  0
    7.0540   -0.6671    0.0000 C   0  0  0  0  0  0  0  0  0  0  0  0
    4.9836   -0.9420    0.0000 C   0  0  1  0  0  0  0  0  0  0  0  0
    5.3903   -0.0285    0.0000 C   0  0  0  0  0  0  0  0  0  0  0  0
    3.4013   -0.2376    0.0000 C   0  0  0  0  0  0  0  0  0  0  0  0
    3.5823   -1.9601    0.0000 C   0  0  0  0  0  0  0  0  0  0  0  0
    2.4067   -0.3421    0.0000 C   0  0  0  0  0  0  0  0  0  0  0  0
    2.5878   -2.0646    0.0000 C   0  0  0  0  0  0  0  0  0  0  0  0
    2.0000   -1.2556    0.0000 C   0  0  0  0  0  0  0  0  0  0  0  0
    4.4489    5.1840    0.0000 C   0  0  0  0  0  0  0  0  0  0  0  0
    8.8335   -1.7604    0.0000 C   0  0  0  0  0  0  0  0  0  0  0  0
    5.1646   -2.6646    0.0000 C   0  0  0  0  0  0  0  0  0  0  0  0
    9.6996   -2.2604    0.0000 C   0  0  0  0  0  0  0  0  0  0  0  0
    7.9675   -2.2604    0.0000 C   0  0  0  0  0  0  0  0  0  0  0  0
    5.3457   -4.3872    0.0000 C   0  0  0  0  0  0  0  0  0  0  0  0
    9.6996   -3.2604    0.0000 C   0  0  0  0  0  0  0  0  0  0  0  0
    7.9675   -3.2604    0.0000 C   0  0  0  0  0  0  0  0  0  0  0  0
   10.5935   -1.7257    0.0000 C   0  0  0  0  0  0  0  0  0  0  0  0
    8.8335   -3.7604    0.0000 C   0  0  0  0  0  0  0  0  0  0  0  0
    4.9389   -5.3007    0.0000 C   0  0  0  0  0  0  0  0  0  0  0  0
    6.2592   -4.7939    0.0000 C   0  0  0  0  0  0  0  0  0  0  0  0
    4.4321   -3.9804    0.0000 C   0  0  0  0  0  0  0  0  0  0  0  0
   10.5935   -3.7950    0.0000 C   0  0  0  0  0  0  0  0  0  0  0  0
   11.4996   -2.2396    0.0000 C   0  0  0  0  0  0  0  0  0  0  0  0
    5.2378    4.0690    0.0000 H   0  0  0  0  0  0  0  0  0  0  0  0
    5.1271    3.1282    0.0000 H   0  0  0  0  0  0  0  0  0  0  0  0
    5.8956    2.5698    0.0000 H   0  0  0  0  0  0  0  0  0  0  0  0
    7.6825    2.5998    0.0000 H   0  0  0  0  0  0  0  0  0  0  0  0
    6.2657    0.9745    0.0000 H   0  0  0  0  0  0  0  0  0  0  0  0
    5.8078    5.5811    0.0000 H   0  0  0  0  0  0  0  0  0  0  0  0
    8.4830    0.7341    0.0000 H   0  0  0  0  0  0  0  0  0  0  0  0
    7.9278    1.3507    0.0000 H   0  0  0  0  0  0  0  0  0  0  0  0
    7.9350   -0.8795    0.0000 H   0  0  0  0  0  0  0  0  0  0  0  0
    4.3535   -1.5482    0.0000 H   0  0  0  0  0  0  0  0  0  0  0  0
    6.5524   -1.0316    0.0000 H   0  0  0  0  0  0  0  0  0  0  0  0
    7.3640   -1.2041    0.0000 H   0  0  0  0  0  0  0  0  0  0  0  0
    5.6002   -0.8772    0.0000 H   0  0  0  0  0  0  0  0  0  0  0  0
    3.9585    0.0342    0.0000 H   0  0  0  0  0  0  0  0  0  0  0  0
    3.2304    0.3584    0.0000 H   0  0  0  0  0  0  0  0  0  0  0  0
    3.5391   -2.5786    0.0000 H   0  0  0  0  0  0  0  0  0  0  0  0
    4.1839   -2.1101    0.0000 H   0  0  0  0  0  0  0  0  0  0  0  0
    2.4500    0.2764    0.0000 H   0  0  0  0  0  0  0  0  0  0  0  0
    1.8052   -0.1921    0.0000 H   0  0  0  0  0  0  0  0  0  0  0  0
    2.0305   -2.3364    0.0000 H   0  0  0  0  0  0  0  0  0  0  0  0
    2.7587   -2.6606    0.0000 H   0  0  0  0  0  0  0  0  0  0  0  0
    1.4860   -0.9089    0.0000 H   0  0  0  0  0  0  0  0  0  0  0  0
    1.5693   -1.7016    0.0000 H   0  0  0  0  0  0  0  0  0  0  0  0
    4.1967    5.7504    0.0000 H   0  0  0  0  0  0  0  0  0  0  0  0
    4.0844    4.6824    0.0000 H   0  0  0  0  0  0  0  0  0  0  0  0
    8.6059    4.7842    0.0000 H   0  0  0  0  0  0  0  0  0  0  0  0
    6.1880   -1.6863    0.0000 H   0  0  0  0  0  0  0  0  0  0  0  0
    7.4306   -1.9504    0.0000 H   0  0  0  0  0  0  0  0  0  0  0  0
    7.4306   -3.5704    0.0000 H   0  0  0  0  0  0  0  0  0  0  0  0
   10.5863   -1.1058    0.0000 H   0  0  0  0  0  0  0  0  0  0  0  0
    8.8335   -4.3804    0.0000 H   0  0  0  0  0  0  0  0  0  0  0  0
    4.3725   -5.0485    0.0000 H   0  0  0  0  0  0  0  0  0  0  0  0
    4.6868   -5.8671    0.0000 H   0  0  0  0  0  0  0  0  0  0  0  0
    5.5053   -5.5529    0.0000 H   0  0  0  0  0  0  0  0  0  0  0  0
    6.0070   -5.3603    0.0000 H   0  0  0  0  0  0  0  0  0  0  0  0
    6.8256   -5.0461    0.0000 H   0  0  0  0  0  0  0  0  0  0  0  0
    6.5114   -4.2275    0.0000 H   0  0  0  0  0  0  0  0  0  0  0  0
    4.6843   -3.4140    0.0000 H   0  0  0  0  0  0  0  0  0  0  0  0
    3.8657   -3.7283    0.0000 H   0  0  0  0  0  0  0  0  0  0  0  0
    4.1799   -4.5468    0.0000 H   0  0  0  0  0  0  0  0  0  0  0  0
   10.5863   -4.4150    0.0000 H   0  0  0  0  0  0  0  0  0  0  0  0
   12.0353   -1.9275    0.0000 H   0  0  0  0  0  0  0  0  0  0  0  0
  1 16  1  0  0  0  0
  1 70  1  0  0  0  0
 20  2  1  1  0  0  0
  2 31  1  0  0  0  0
  3 16  2  0  0  0  0
  4 18  2  0  0  0  0
  5 24  2  0  0  0  0
  6 32  1  0  0  0  0
  6 35  1  0  0  0  0
  7 32  2  0  0  0  0
  8 12  1  0  0  0  0
  8 18  1  0  0  0  0
  8 48  1  0  0  0  0
  9 15  1  0  0  0  0
  9 22  1  0  0  0  0
  9 24  1  0  0  0  0
 23 10  1  1  0  0  0
 10 32  1  0  0  0  0
 10 71  1  0  0  0  0
 11 43  2  0  0  0  0
 11 44  1  0  0  0  0
 12 13  1  0  0  0  0
 12 14  1  0  0  0  0
 12 16  1  0  0  0  0
 13 14  1  0  0  0  0
 13 17  1  6  0  0  0
 13 45  1  0  0  0  0
 14 46  1  0  0  0  0
 14 47  1  0  0  0  0
 15 18  1  6  0  0  0
 15 19  1  0  0  0  0
 15 49  1  0  0  0  0
 17 30  2  0  0  0  0
 17 50  1  0  0  0  0
 19 20  1  0  0  0  0
 19 51  1  0  0  0  0
 19 52  1  0  0  0  0
 20 22  1  0  0  0  0
 20 53  1  0  0  0  0
 21 23  1  0  0  0  0
 21 25  1  0  0  0  0
 21 26  1  0  0  0  0
 21 54  1  0  0  0  0
 22 55  1  0  0  0  0
 22 56  1  0  0  0  0
 23 24  1  0  0  0  0
 23 57  1  0  0  0  0
 25 27  1  0  0  0  0
 25 58  1  0  0  0  0
 25 59  1  0  0  0  0
 26 28  1  0  0  0  0
 26 60  1  0  0  0  0
 26 61  1  0  0  0  0
 27 29  1  0  0  0  0
 27 62  1  0  0  0  0
 27 63  1  0  0  0  0
 28 29  1  0  0  0  0
 28 64  1  0  0  0  0
 28 65  1  0  0  0  0
 29 66  1  0  0  0  0
 29 67  1  0  0  0  0
 30 68  1  0  0  0  0
 30 69  1  0  0  0  0
 31 33  1  0  0  0  0
 31 34  2  0  0  0  0
 33 36  2  0  0  0  0
 33 38  1  0  0  0  0
 34 37  1  0  0  0  0
 34 72  1  0  0  0  0
 35 40  1  0  0  0  0
 35 41  1  0  0  0  0
 35 42  1  0  0  0  0
 36 39  1  0  0  0  0
 36 43  1  0  0  0  0
 37 39  2  0  0  0  0
 37 73  1  0  0  0  0
 38 44  2  0  0  0  0
 38 74  1  0  0  0  0
 39 75  1  0  0  0  0
 40 76  1  0  0  0  0
 40 77  1  0  0  0  0
 40 78  1  0  0  0  0
 41 79  1  0  0  0  0
 41 80  1  0  0  0  0
 41 81  1  0  0  0  0
 42 82  1  0  0  0  0
 42 83  1  0  0  0  0
 42 84  1  0  0  0  0
 43 85  1  0  0  0  0
 44 86  1  0  0  0  0
M  END
> <PUBCHEM_COMPOUND_CID>
500646
> <PUBCHEM_COMPOUND_CANONICALIZED>
1
> <PUBCHEM_CACTVS_COMPLEXITY>
1100
> <PUBCHEM_CACTVS_HBOND_ACCEPTOR>
8
> <PUBCHEM_CACTVS_HBOND_DONOR>
3
> <PUBCHEM_CACTVS_ROTATABLE_BOND>
11
> <PUBCHEM_CACTVS_SUBSKEYS>
AAADcfB/uAAAAAAAAAAAAAAAGAAAAWAAAAA8YIAAAAAAAACx8AAAHgAQCAAADfzhmgY+jtPIFgCoAjH3XACCiCAxIiAI2KG+bJkOZvLEsbufeCjm1hHY6Ae6ybCOgAABAAAYAAAAAAIAADAAAAAAAAAAAA==
> <PUBCHEM_IUPAC_OPENEYE_NAME>
(2R)-1-[[(2S,4R)-1-[(2S)-2-(tert-butoxycarbonylamino)-2-cyclohexyl-acetyl]-4-(5-isoquinolyloxy)pyrrolidine-2-carbonyl]amino]-2-vinyl-cyclopropanecarboxylic acid
> <PUBCHEM_IUPAC_CAS_NAME>
(2R)-1-[[[(2S,4R)-1-[(2S)-2-cyclohexyl-2-[[(2-methylpropan-2-yl)oxy-oxomethyl]amino]-1-oxoethyl]-4-(5-isoquinolinyloxy)-2-pyrrolidinyl]-oxomethyl]amino]-2-ethenyl-1-cyclopropanecarboxylic acid
> <PUBCHEM_IUPAC_NAME_MARKUP>
(2<I>R</I>)-1-[[(2<I>S</I>,4<I>R</I>)-1-[(2<I>S</I>)-2-cyclohexyl-2-[(2-methylpropan-2-yl)oxycarbonylamino]acetyl]-4-isoquinolin-5-yloxypyrrolidine-2-carbonyl]amino]-2-ethenylcyclopropane-1-carboxylic acid
> <PUBCHEM_IUPAC_NAME>
(2R)-1-[[(2S,4R)-1-[(2S)-2-cyclohexyl-2-[(2-methylpropan-2-yl)oxycarbonylamino]acetyl]-4-isoquinolin-5-yloxypyrrolidine-2-carbonyl]amino]-2-ethenylcyclopropane-1-carboxylic acid
> <PUBCHEM_IUPAC_SYSTEMATIC_NAME>
(2R)-1-[[(2S,4R)-1-[(2S)-2-cyclohexyl-2-[(2-methylpropan-2-yl)oxycarbonylamino]ethanoyl]-4-isoquinolin-5-yloxy-pyrrolidin-2-yl]carbonylamino]-2-ethenyl-cyclopropane-1-carboxylic acid
> <PUBCHEM_IUPAC_TRADITIONAL_NAME>
(2R)-1-[[(2S,4R)-1-[(2S)-2-(tert-butoxycarbonylamino)-2-cyclohexyl-acetyl]-4-(5-isoquinolyloxy)prolyl]amino]-2-vinyl-cyclopropanecarboxylic acid
> <PUBCHEM_IUPAC_INCHI>
InChI=1S/C33H42N4O7/c1-5-22-17-33(22,30(40)41)36-28(38)25-16-23(43-26-13-9-12-21-18-34-15-14-24(21)26)19-37(25)29(39)27(20-10-7-6-8-11-20)35-31(42)44-32(2,3)4/h5,9,12-15,18,20,22-23,25,27H,1,6-8,10-11,16-17,19H2,2-4H3,(H,35,42)(H,36,38)(H,40,41)/t22-,23+,25-,27-,33?/m0/s1
> <PUBCHEM_IUPAC_INCHIKEY>
CMAHNJGZDOTWFA-QMMNYWPWSA-N
> <PUBCHEM_XLOGP3_AA>
4.8
> <PUBCHEM_EXACT_MASS>
606.30534969
> <PUBCHEM_MOLECULAR_FORMULA>
C33H42N4O7
> <PUBCHEM_MOLECULAR_WEIGHT>
606.7
> <PUBCHEM_OPENEYE_CAN_SMILES>
CC(C)(C)OC(=O)NC(C1CCCCC1)C(=O)N2CC(CC2C(=O)NC3(CC3C=C)C(=O)O)OC4=CC=CC5=C4C=CN=C5
> <PUBCHEM_OPENEYE_ISO_SMILES>
CC(C)(C)OC(=O)N[C@@H](C1CCCCC1)C(=O)N2C[C@@H](C[C@H]2C(=O)NC3(C[C@@H]3C=C)C(=O)O)OC4=CC=CC5=C4C=CN=C5
> <PUBCHEM_CACTVS_TPSA>
147
> <PUBCHEM_MONOISOTOPIC_WEIGHT>
606.30534969
> <PUBCHEM_TOTAL_CHARGE>
0
> <PUBCHEM_HEAVY_ATOM_COUNT>
44
> <PUBCHEM_ATOM_DEF_STEREO_COUNT>
4
> <PUBCHEM_ATOM_UDEF_STEREO_COUNT>
1
> <PUBCHEM_BOND_DEF_STEREO_COUNT>
0
> <PUBCHEM_BOND_UDEF_STEREO_COUNT>
0
> <PUBCHEM_ISOTOPIC_ATOM_COUNT>
0
> <PUBCHEM_COMPONENT_COUNT>
1
> <PUBCHEM_CACTVS_TAUTO_COUNT>
-1
> <PUBCHEM_COORDINATE_TYPE>
1
5
255
> <PUBCHEM_BONDANNOTATIONS>
23  10  5
11  43  8
11  44  8
12  16  3
13  17  6
15  18  6
20  2  5
31  33  8
31  34  8
33  36  8
33  38  8
34  37  8
36  39  8
36  43  8
37  39  8
38  44  8
$$$$
