500665
  -OEChem-10302200282D
104109  0     1  0  0  0  0  0999 V2000
    9.0398    5.5677    0.0000 O   0  0  0  0  0  0  0  0  0  0  0  0
    9.2208    3.8452    0.0000 O   0  0  0  0  0  0  0  0  0  0  0  0
    5.4641    0.2111    0.0000 O   0  0  0  0  0  0  0  0  0  0  0  0
    8.8141    2.9316    0.0000 O   0  0  0  0  0  0  0  0  0  0  0  0
    9.4951    1.7520    0.0000 O   0  0  0  0  0  0  0  0  0  0  0  0
   12.9301   -3.8338    0.0000 O   0  0  0  0  0  0  0  0  0  0  0  0
   11.3477   -4.5383    0.0000 O   0  0  0  0  0  0  0  0  0  0  0  0
    7.2318    3.6361    0.0000 N   0  0  0  0  0  0  0  0  0  0  0  0
    7.9128    1.0475    0.0000 N   0  0  0  0  0  0  0  0  0  0  0  0
   10.3086   -0.0751    0.0000 N   0  0  0  0  0  0  0  0  0  0  0  0
    5.4641   -2.7889    0.0000 N   0  0  0  0  0  0  0  0  0  0  0  0
    8.0622   -2.2889    0.0000 N   0  0  0  0  0  0  0  0  0  0  0  0
    3.7320   -3.7889    0.0000 N   0  0  0  0  0  0  0  0  0  0  0  0
    7.6385    4.5497    0.0000 C   0  0  3  0  0  0  0  0  0  0  0  0
    6.7250    4.9564    0.0000 C   0  0  2  0  0  0  0  0  0  0  0  0
    7.5340    5.5442    0.0000 C   0  0  0  0  0  0  0  0  0  0  0  0
    8.6330    4.6542    0.0000 C   0  0  0  0  0  0  0  0  0  0  0  0
    5.7304    4.8519    0.0000 C   0  0  0  0  0  0  0  0  0  0  0  0
    7.4128    1.9136    0.0000 C   0  0  2  0  0  0  0  0  0  0  0  0
    7.8195    2.8271    0.0000 C   0  0  0  0  0  0  0  0  0  0  0  0
    6.4347    1.7056    0.0000 C   0  0  0  0  0  0  0  0  0  0  0  0
    6.3301    0.7111    0.0000 C   0  0  2  0  0  0  0  0  0  0  0  0
    7.2437    0.3044    0.0000 C   0  0  0  0  0  0  0  0  0  0  0  0
    5.1426    5.6609    0.0000 C   0  0  0  0  0  0  0  0  0  0  0  0
    8.9073    0.9430    0.0000 C   0  0  0  0  0  0  0  0  0  0  0  0
    9.3141    0.0294    0.0000 C   0  0  2  0  0  0  0  0  0  0  0  0
    8.7263   -0.7796    0.0000 C   0  0  0  0  0  0  0  0  0  0  0  0
    9.5353   -1.3674    0.0000 C   0  0  0  0  0  0  0  0  0  0  0  0
    7.9173   -0.1918    0.0000 C   0  0  0  0  0  0  0  0  0  0  0  0
    8.1385   -1.5886    0.0000 C   0  0  0  0  0  0  0  0  0  0  0  0
    5.4641   -0.7889    0.0000 C   0  0  0  0  0  0  0  0  0  0  0  0
   10.7153   -0.9886    0.0000 C   0  0  0  0  0  0  0  0  0  0  0  0
    6.3301   -1.2889    0.0000 C   0  0  0  0  0  0  0  0  0  0  0  0
    4.5981   -1.2889    0.0000 C   0  0  0  0  0  0  0  0  0  0  0  0
   10.1275   -1.7976    0.0000 C   0  0  0  0  0  0  0  0  0  0  0  0
   11.7098   -1.0932    0.0000 C   0  0  0  0  0  0  0  0  0  0  0  0
    6.3301   -2.2889    0.0000 C   0  0  0  0  0  0  0  0  0  0  0  0
    4.5981   -2.2889    0.0000 C   0  0  0  0  0  0  0  0  0  0  0  0
   10.5343   -2.7112    0.0000 C   0  0  0  0  0  0  0  0  0  0  0  0
   12.1166   -2.0067    0.0000 C   0  0  0  0  0  0  0  0  0  0  0  0
   11.5288   -2.8157    0.0000 C   0  0  0  0  0  0  0  0  0  0  0  0
    7.1962   -2.7889    0.0000 C   0  0  0  0  0  0  0  0  0  0  0  0
    3.7320   -2.7889    0.0000 C   0  0  0  0  0  0  0  0  0  0  0  0
   11.9355   -3.7293    0.0000 C   0  0  0  0  0  0  0  0  0  0  0  0
    7.1962   -3.7889    0.0000 C   0  0  0  0  0  0  0  0  0  0  0  0
    2.8660   -2.2889    0.0000 C   0  0  0  0  0  0  0  0  0  0  0  0
   13.3368   -4.7473    0.0000 C   0  0  0  0  0  0  0  0  0  0  0  0
    8.0622   -4.2889    0.0000 C   0  0  0  0  0  0  0  0  0  0  0  0
    2.0000   -2.7889    0.0000 C   0  0  0  0  0  0  0  0  0  0  0  0
    8.9282   -2.7889    0.0000 C   0  0  0  0  0  0  0  0  0  0  0  0
    2.8660   -4.2889    0.0000 C   0  0  0  0  0  0  0  0  0  0  0  0
    8.9282   -3.7889    0.0000 C   0  0  0  0  0  0  0  0  0  0  0  0
    2.0000   -3.7889    0.0000 C   0  0  0  0  0  0  0  0  0  0  0  0
   13.7435   -5.6609    0.0000 C   0  0  0  0  0  0  0  0  0  0  0  0
   14.2503   -4.3406    0.0000 C   0  0  0  0  0  0  0  0  0  0  0  0
   12.4232   -5.1541    0.0000 C   0  0  0  0  0  0  0  0  0  0  0  0
    6.6280    4.3440    0.0000 H   0  0  0  0  0  0  0  0  0  0  0  0
    8.1299    5.7151    0.0000 H   0  0  0  0  0  0  0  0  0  0  0  0
    7.2622    6.1014    0.0000 H   0  0  0  0  0  0  0  0  0  0  0  0
    6.6152    3.5713    0.0000 H   0  0  0  0  0  0  0  0  0  0  0  0
    5.4782    4.2855    0.0000 H   0  0  0  0  0  0  0  0  0  0  0  0
    8.0320    1.9460    0.0000 H   0  0  0  0  0  0  0  0  0  0  0  0
    6.3698    2.3222    0.0000 H   0  0  0  0  0  0  0  0  0  0  0  0
    5.8147    1.7056    0.0000 H   0  0  0  0  0  0  0  0  0  0  0  0
    6.3626    0.0920    0.0000 H   0  0  0  0  0  0  0  0  0  0  0  0
    6.9337   -0.2326    0.0000 H   0  0  0  0  0  0  0  0  0  0  0  0
    7.7453   -0.0600    0.0000 H   0  0  0  0  0  0  0  0  0  0  0  0
    5.3948    6.2273    0.0000 H   0  0  0  0  0  0  0  0  0  0  0  0
    4.5260    5.5961    0.0000 H   0  0  0  0  0  0  0  0  0  0  0  0
    9.6785    0.5310    0.0000 H   0  0  0  0  0  0  0  0  0  0  0  0
    9.6564    5.6325    0.0000 H   0  0  0  0  0  0  0  0  0  0  0  0
   10.6730    0.4265    0.0000 H   0  0  0  0  0  0  0  0  0  0  0  0
    9.1709   -1.8689    0.0000 H   0  0  0  0  0  0  0  0  0  0  0  0
   10.0369   -1.7318    0.0000 H   0  0  0  0  0  0  0  0  0  0  0  0
    9.8997   -0.8658    0.0000 H   0  0  0  0  0  0  0  0  0  0  0  0
    8.2817    0.3098    0.0000 H   0  0  0  0  0  0  0  0  0  0  0  0
    7.4157    0.1726    0.0000 H   0  0  0  0  0  0  0  0  0  0  0  0
    7.5528   -0.6934    0.0000 H   0  0  0  0  0  0  0  0  0  0  0  0
    7.6369   -1.2242    0.0000 H   0  0  0  0  0  0  0  0  0  0  0  0
    7.7741   -2.0902    0.0000 H   0  0  0  0  0  0  0  0  0  0  0  0
    8.6401   -1.9530    0.0000 H   0  0  0  0  0  0  0  0  0  0  0  0
    6.8671   -0.9789    0.0000 H   0  0  0  0  0  0  0  0  0  0  0  0
    4.0611   -0.9789    0.0000 H   0  0  0  0  0  0  0  0  0  0  0  0
    9.5109   -1.7328    0.0000 H   0  0  0  0  0  0  0  0  0  0  0  0
   12.0743   -0.5916    0.0000 H   0  0  0  0  0  0  0  0  0  0  0  0
   10.1698   -3.2128    0.0000 H   0  0  0  0  0  0  0  0  0  0  0  0
   12.7332   -2.0715    0.0000 H   0  0  0  0  0  0  0  0  0  0  0  0
    6.6592   -4.0989    0.0000 H   0  0  0  0  0  0  0  0  0  0  0  0
    2.8660   -1.6689    0.0000 H   0  0  0  0  0  0  0  0  0  0  0  0
    8.0622   -4.9089    0.0000 H   0  0  0  0  0  0  0  0  0  0  0  0
    1.4631   -2.4789    0.0000 H   0  0  0  0  0  0  0  0  0  0  0  0
    9.4651   -2.4789    0.0000 H   0  0  0  0  0  0  0  0  0  0  0  0
    2.8660   -4.9089    0.0000 H   0  0  0  0  0  0  0  0  0  0  0  0
    9.4651   -4.0989    0.0000 H   0  0  0  0  0  0  0  0  0  0  0  0
    1.4631   -4.0989    0.0000 H   0  0  0  0  0  0  0  0  0  0  0  0
   13.1771   -5.9131    0.0000 H   0  0  0  0  0  0  0  0  0  0  0  0
   13.9957   -6.2273    0.0000 H   0  0  0  0  0  0  0  0  0  0  0  0
   14.3099   -5.4087    0.0000 H   0  0  0  0  0  0  0  0  0  0  0  0
   14.5025   -4.9070    0.0000 H   0  0  0  0  0  0  0  0  0  0  0  0
   14.8167   -4.0884    0.0000 H   0  0  0  0  0  0  0  0  0  0  0  0
   13.9982   -3.7742    0.0000 H   0  0  0  0  0  0  0  0  0  0  0  0
   12.1711   -4.5877    0.0000 H   0  0  0  0  0  0  0  0  0  0  0  0
   11.8568   -5.4062    0.0000 H   0  0  0  0  0  0  0  0  0  0  0  0
   12.6754   -5.7205    0.0000 H   0  0  0  0  0  0  0  0  0  0  0  0
  1 17  1  0  0  0  0
  1 71  1  0  0  0  0
  2 17  2  0  0  0  0
 22  3  1  6  0  0  0
  3 31  1  0  0  0  0
  4 20  2  0  0  0  0
  5 25  2  0  0  0  0
  6 44  1  0  0  0  0
  6 47  1  0  0  0  0
  7 44  2  0  0  0  0
  8 14  1  0  0  0  0
  8 20  1  0  0  0  0
  8 60  1  0  0  0  0
  9 19  1  0  0  0  0
  9 23  1  0  0  0  0
  9 25  1  0  0  0  0
 26 10  1  1  0  0  0
 10 32  1  0  0  0  0
 10 72  1  0  0  0  0
 11 37  2  0  0  0  0
 11 38  1  0  0  0  0
 12 42  1  0  0  0  0
 12 50  2  0  0  0  0
 13 43  1  0  0  0  0
 13 51  2  0  0  0  0
 14 15  1  0  0  0  0
 14 16  1  0  0  0  0
 14 17  1  0  0  0  0
 15 16  1  0  0  0  0
 15 18  1  1  0  0  0
 15 57  1  0  0  0  0
 16 58  1  0  0  0  0
 16 59  1  0  0  0  0
 18 24  2  0  0  0  0
 18 61  1  0  0  0  0
 19 20  1  1  0  0  0
 19 21  1  0  0  0  0
 19 62  1  0  0  0  0
 21 22  1  0  0  0  0
 21 63  1  0  0  0  0
 21 64  1  0  0  0  0
 22 23  1  0  0  0  0
 22 65  1  0  0  0  0
 23 66  1  0  0  0  0
 23 67  1  0  0  0  0
 24 68  1  0  0  0  0
 24 69  1  0  0  0  0
 25 26  1  0  0  0  0
 26 27  1  0  0  0  0
 26 70  1  0  0  0  0
 27 28  1  0  0  0  0
 27 29  1  0  0  0  0
 27 30  1  0  0  0  0
 28 73  1  0  0  0  0
 28 74  1  0  0  0  0
 28 75  1  0  0  0  0
 29 76  1  0  0  0  0
 29 77  1  0  0  0  0
 29 78  1  0  0  0  0
 30 79  1  0  0  0  0
 30 80  1  0  0  0  0
 30 81  1  0  0  0  0
 31 33  2  0  0  0  0
 31 34  1  0  0  0  0
 32 35  2  0  0  0  0
 32 36  1  0  0  0  0
 33 37  1  0  0  0  0
 33 82  1  0  0  0  0
 34 38  2  0  0  0  0
 34 83  1  0  0  0  0
 35 39  1  0  0  0  0
 35 84  1  0  0  0  0
 36 40  2  0  0  0  0
 36 85  1  0  0  0  0
 37 42  1  0  0  0  0
 38 43  1  0  0  0  0
 39 41  2  0  0  0  0
 39 86  1  0  0  0  0
 40 41  1  0  0  0  0
 40 87  1  0  0  0  0
 41 44  1  0  0  0  0
 42 45  2  0  0  0  0
 43 46  2  0  0  0  0
 45 48  1  0  0  0  0
 45 88  1  0  0  0  0
 46 49  1  0  0  0  0
 46 89  1  0  0  0  0
 47 54  1  0  0  0  0
 47 55  1  0  0  0  0
 47 56  1  0  0  0  0
 48 52  2  0  0  0  0
 48 90  1  0  0  0  0
 49 53  2  0  0  0  0
 49 91  1  0  0  0  0
 50 52  1  0  0  0  0
 50 92  1  0  0  0  0
 51 53  1  0  0  0  0
 51 93  1  0  0  0  0
 52 94  1  0  0  0  0
 53 95  1  0  0  0  0
 54 96  1  0  0  0  0
 54 97  1  0  0  0  0
 54 98  1  0  0  0  0
 55 99  1  0  0  0  0
 55100  1  0  0  0  0
 55101  1  0  0  0  0
 56102  1  0  0  0  0
 56103  1  0  0  0  0
 56104  1  0  0  0  0
M  END
> <PUBCHEM_COMPOUND_CID>
500665
> <PUBCHEM_COMPOUND_CANONICALIZED>
1
> <PUBCHEM_CACTVS_COMPLEXITY>
1400
> <PUBCHEM_CACTVS_HBOND_ACCEPTOR>
11
> <PUBCHEM_CACTVS_HBOND_DONOR>
3
> <PUBCHEM_CACTVS_ROTATABLE_BOND>
15
> <PUBCHEM_CACTVS_SUBSKEYS>
AAADcfB/uAAAAAAAAAAAAAAAGAAAAWAAAAA8WLEAAAAAAAAB/AAAHgAQCAAAD/zhngY+zpPIFgCoAzX3XACCiCA1IiAI2KG+bNgOZvLEtbuXeSjm1hnY6Ye62aOfCAAAAAAAAAAQAAAAAAAAAAAAAAAAAA==
> <PUBCHEM_IUPAC_OPENEYE_NAME>
(2R)-1-[[(2S,4R)-4-[[2,6-bis(2-pyridyl)-4-pyridyl]oxy]-1-[(2S)-2-(4-tert-butoxycarbonylanilino)-3,3-dimethyl-butanoyl]pyrrolidine-2-carbonyl]amino]-2-vinyl-cyclopropanecarboxylic acid
> <PUBCHEM_IUPAC_CAS_NAME>
(2R)-1-[[[(2S,4R)-4-[[2,6-bis(2-pyridinyl)-4-pyridinyl]oxy]-1-[(2S)-3,3-dimethyl-2-[4-[(2-methylpropan-2-yl)oxy-oxomethyl]anilino]-1-oxobutyl]-2-pyrrolidinyl]-oxomethyl]amino]-2-ethenyl-1-cyclopropanecarboxylic acid
> <PUBCHEM_IUPAC_NAME_MARKUP>
(2<I>R</I>)-1-[[(2<I>S</I>,4<I>R</I>)-1-[(2<I>S</I>)-3,3-dimethyl-2-[4-[(2-methylpropan-2-yl)oxycarbonyl]anilino]butanoyl]-4-(2,6-dipyridin-2-ylpyridin-4-yl)oxypyrrolidine-2-carbonyl]amino]-2-ethenylcyclopropane-1-carboxylic acid
> <PUBCHEM_IUPAC_NAME>
(2R)-1-[[(2S,4R)-1-[(2S)-3,3-dimethyl-2-[4-[(2-methylpropan-2-yl)oxycarbonyl]anilino]butanoyl]-4-(2,6-dipyridin-2-ylpyridin-4-yl)oxypyrrolidine-2-carbonyl]amino]-2-ethenylcyclopropane-1-carboxylic acid
> <PUBCHEM_IUPAC_SYSTEMATIC_NAME>
(2R)-1-[[(2S,4R)-1-[(2S)-3,3-dimethyl-2-[[4-[(2-methylpropan-2-yl)oxycarbonyl]phenyl]amino]butanoyl]-4-(2,6-dipyridin-2-ylpyridin-4-yl)oxy-pyrrolidin-2-yl]carbonylamino]-2-ethenyl-cyclopropane-1-carboxylic acid
> <PUBCHEM_IUPAC_TRADITIONAL_NAME>
(2R)-1-[[(2S,4R)-4-[[2,6-bis(2-pyridyl)-4-pyridyl]oxy]-1-[(2S)-2-(4-tert-butoxycarbonylanilino)-3,3-dimethyl-butanoyl]prolyl]amino]-2-vinyl-cyclopropanecarboxylic acid
> <PUBCHEM_IUPAC_INCHI>
InChI=1S/C43H48N6O7/c1-8-27-24-43(27,40(53)54)48-37(50)35-23-30(55-29-21-33(31-13-9-11-19-44-31)47-34(22-29)32-14-10-12-20-45-32)25-49(35)38(51)36(41(2,3)4)46-28-17-15-26(16-18-28)39(52)56-42(5,6)7/h8-22,27,30,35-36,46H,1,23-25H2,2-7H3,(H,48,50)(H,53,54)/t27-,30+,35-,36+,43?/m0/s1
> <PUBCHEM_IUPAC_INCHIKEY>
ZBKIEWPDSWFQBT-WQJFHJSQSA-N
> <PUBCHEM_XLOGP3_AA>
5.9
> <PUBCHEM_EXACT_MASS>
760.35844789
> <PUBCHEM_MOLECULAR_FORMULA>
C43H48N6O7
> <PUBCHEM_MOLECULAR_WEIGHT>
760.9
> <PUBCHEM_OPENEYE_CAN_SMILES>
CC(C)(C)C(C(=O)N1CC(CC1C(=O)NC2(CC2C=C)C(=O)O)OC3=CC(=NC(=C3)C4=CC=CC=N4)C5=CC=CC=N5)NC6=CC=C(C=C6)C(=O)OC(C)(C)C
> <PUBCHEM_OPENEYE_ISO_SMILES>
CC(C)(C)[C@@H](C(=O)N1C[C@@H](C[C@H]1C(=O)NC2(C[C@@H]2C=C)C(=O)O)OC3=CC(=NC(=C3)C4=CC=CC=N4)C5=CC=CC=N5)NC6=CC=C(C=C6)C(=O)OC(C)(C)C
> <PUBCHEM_CACTVS_TPSA>
173
> <PUBCHEM_MONOISOTOPIC_WEIGHT>
760.35844789
> <PUBCHEM_TOTAL_CHARGE>
0
> <PUBCHEM_HEAVY_ATOM_COUNT>
56
> <PUBCHEM_ATOM_DEF_STEREO_COUNT>
4
> <PUBCHEM_ATOM_UDEF_STEREO_COUNT>
1
> <PUBCHEM_BOND_DEF_STEREO_COUNT>
0
> <PUBCHEM_BOND_UDEF_STEREO_COUNT>
0
> <PUBCHEM_ISOTOPIC_ATOM_COUNT>
0
> <PUBCHEM_COMPONENT_COUNT>
1
> <PUBCHEM_CACTVS_TAUTO_COUNT>
-1
> <PUBCHEM_COORDINATE_TYPE>
1
5
255
> <PUBCHEM_BONDANNOTATIONS>
26  10  5
11  37  8
11  38  8
12  42  8
12  50  8
13  43  8
13  51  8
14  17  3
15  18  5
19  20  5
22  3  6
31  33  8
31  34  8
32  35  8
32  36  8
33  37  8
34  38  8
35  39  8
36  40  8
39  41  8
40  41  8
42  45  8
43  46  8
45  48  8
46  49  8
48  52  8
49  53  8
50  52  8
51  53  8
$$$$
