500642
  -OEChem-10302200282D
 86 90  0     1  0  0  0  0  0999 V2000
    8.2417    4.9019    0.0000 O   0  0  0  0  0  0  0  0  0  0  0  0
    4.6660   -0.4547    0.0000 O   0  0  0  0  0  0  0  0  0  0  0  0
    8.4227    3.1793    0.0000 O   0  0  0  0  0  0  0  0  0  0  0  0
    8.0160    2.2658    0.0000 O   0  0  0  0  0  0  0  0  0  0  0  0
    8.6970    1.0862    0.0000 O   0  0  0  0  0  0  0  0  0  0  0  0
    7.7472   -3.1680    0.0000 O   0  0  0  0  0  0  0  0  0  0  0  0
    9.3295   -2.4635    0.0000 O   0  0  0  0  0  0  0  0  0  0  0  0
    6.4337    2.9703    0.0000 N   0  0  0  0  0  0  0  0  0  0  0  0
    7.1147    0.3817    0.0000 N   0  0  0  0  0  0  0  0  0  0  0  0
    7.9282   -1.4454    0.0000 N   0  0  0  0  0  0  0  0  0  0  0  0
    4.6660   -3.4547    0.0000 N   0  0  0  0  0  0  0  0  0  0  0  0
    6.8404    3.8838    0.0000 C   0  0  3  0  0  0  0  0  0  0  0  0
    5.9269    4.2906    0.0000 C   0  0  2  0  0  0  0  0  0  0  0  0
    6.7359    4.8784    0.0000 C   0  0  0  0  0  0  0  0  0  0  0  0
    6.6147    1.2477    0.0000 C   0  0  2  0  0  0  0  0  0  0  0  0
    7.8350    3.9884    0.0000 C   0  0  0  0  0  0  0  0  0  0  0  0
    4.9324    4.1860    0.0000 C   0  0  0  0  0  0  0  0  0  0  0  0
    7.0215    2.1613    0.0000 C   0  0  0  0  0  0  0  0  0  0  0  0
    5.6366    1.0398    0.0000 C   0  0  0  0  0  0  0  0  0  0  0  0
    5.5321    0.0453    0.0000 C   0  0  2  0  0  0  0  0  0  0  0  0
    9.5105   -0.7409    0.0000 C   0  0  0  0  0  0  0  0  0  0  0  0
    6.4456   -0.3615    0.0000 C   0  0  0  0  0  0  0  0  0  0  0  0
    8.5160   -0.6364    0.0000 C   0  0  1  0  0  0  0  0  0  0  0  0
    8.1093    0.2772    0.0000 C   0  0  0  0  0  0  0  0  0  0  0  0
    9.9172   -1.6544    0.0000 C   0  0  0  0  0  0  0  0  0  0  0  0
   10.0983    0.0681    0.0000 C   0  0  0  0  0  0  0  0  0  0  0  0
   10.9118   -1.7590    0.0000 C   0  0  0  0  0  0  0  0  0  0  0  0
   11.0928   -0.0364    0.0000 C   0  0  0  0  0  0  0  0  0  0  0  0
   11.4996   -0.9500    0.0000 C   0  0  0  0  0  0  0  0  0  0  0  0
    4.3446    4.9950    0.0000 C   0  0  0  0  0  0  0  0  0  0  0  0
    4.6660   -1.4547    0.0000 C   0  0  0  0  0  0  0  0  0  0  0  0
    8.3349   -2.3589    0.0000 C   0  0  0  0  0  0  0  0  0  0  0  0
    3.8000   -1.9547    0.0000 C   0  0  0  0  0  0  0  0  0  0  0  0
    5.5321   -1.9547    0.0000 C   0  0  0  0  0  0  0  0  0  0  0  0
    8.1539   -4.0815    0.0000 C   0  0  0  0  0  0  0  0  0  0  0  0
    3.8000   -2.9547    0.0000 C   0  0  0  0  0  0  0  0  0  0  0  0
    2.9061   -1.4200    0.0000 C   0  0  0  0  0  0  0  0  0  0  0  0
    5.5321   -2.9547    0.0000 C   0  0  0  0  0  0  0  0  0  0  0  0
    8.5606   -4.9950    0.0000 C   0  0  0  0  0  0  0  0  0  0  0  0
    7.2404   -4.4882    0.0000 C   0  0  0  0  0  0  0  0  0  0  0  0
    9.0674   -3.6748    0.0000 C   0  0  0  0  0  0  0  0  0  0  0  0
    2.9061   -3.4894    0.0000 C   0  0  0  0  0  0  0  0  0  0  0  0
    2.0000   -1.9339    0.0000 C   0  0  0  0  0  0  0  0  0  0  0  0
    2.0000   -2.9755    0.0000 C   0  0  0  0  0  0  0  0  0  0  0  0
    5.8299    3.6782    0.0000 H   0  0  0  0  0  0  0  0  0  0  0  0
    7.3319    5.0492    0.0000 H   0  0  0  0  0  0  0  0  0  0  0  0
    6.4641    5.4356    0.0000 H   0  0  0  0  0  0  0  0  0  0  0  0
    5.8171    2.9055    0.0000 H   0  0  0  0  0  0  0  0  0  0  0  0
    7.2339    1.2802    0.0000 H   0  0  0  0  0  0  0  0  0  0  0  0
    4.6802    3.6196    0.0000 H   0  0  0  0  0  0  0  0  0  0  0  0
    5.5718    1.6564    0.0000 H   0  0  0  0  0  0  0  0  0  0  0  0
    5.0166    1.0398    0.0000 H   0  0  0  0  0  0  0  0  0  0  0  0
    5.5645   -0.5739    0.0000 H   0  0  0  0  0  0  0  0  0  0  0  0
    9.2583   -0.1745    0.0000 H   0  0  0  0  0  0  0  0  0  0  0  0
    6.1356   -0.8984    0.0000 H   0  0  0  0  0  0  0  0  0  0  0  0
    6.9472   -0.7259    0.0000 H   0  0  0  0  0  0  0  0  0  0  0  0
    7.8994   -0.5716    0.0000 H   0  0  0  0  0  0  0  0  0  0  0  0
    9.3157   -1.8044    0.0000 H   0  0  0  0  0  0  0  0  0  0  0  0
    9.9605   -2.2729    0.0000 H   0  0  0  0  0  0  0  0  0  0  0  0
   10.2692    0.6641    0.0000 H   0  0  0  0  0  0  0  0  0  0  0  0
    9.5410    0.3399    0.0000 H   0  0  0  0  0  0  0  0  0  0  0  0
   10.7409   -2.3550    0.0000 H   0  0  0  0  0  0  0  0  0  0  0  0
   11.4690   -2.0308    0.0000 H   0  0  0  0  0  0  0  0  0  0  0  0
   11.6944    0.1136    0.0000 H   0  0  0  0  0  0  0  0  0  0  0  0
   11.0496    0.5821    0.0000 H   0  0  0  0  0  0  0  0  0  0  0  0
   11.9302   -1.3960    0.0000 H   0  0  0  0  0  0  0  0  0  0  0  0
   12.0136   -0.6033    0.0000 H   0  0  0  0  0  0  0  0  0  0  0  0
    4.5968    5.5614    0.0000 H   0  0  0  0  0  0  0  0  0  0  0  0
    3.7280    4.9302    0.0000 H   0  0  0  0  0  0  0  0  0  0  0  0
    8.8583    4.9667    0.0000 H   0  0  0  0  0  0  0  0  0  0  0  0
    7.3116   -1.3806    0.0000 H   0  0  0  0  0  0  0  0  0  0  0  0
    6.0690   -1.6447    0.0000 H   0  0  0  0  0  0  0  0  0  0  0  0
    2.9132   -0.8001    0.0000 H   0  0  0  0  0  0  0  0  0  0  0  0
    6.0690   -3.2647    0.0000 H   0  0  0  0  0  0  0  0  0  0  0  0
    7.9942   -5.2472    0.0000 H   0  0  0  0  0  0  0  0  0  0  0  0
    8.8128   -5.5614    0.0000 H   0  0  0  0  0  0  0  0  0  0  0  0
    9.1270   -4.7429    0.0000 H   0  0  0  0  0  0  0  0  0  0  0  0
    6.9882   -3.9218    0.0000 H   0  0  0  0  0  0  0  0  0  0  0  0
    6.6740   -4.7404    0.0000 H   0  0  0  0  0  0  0  0  0  0  0  0
    7.4925   -5.0546    0.0000 H   0  0  0  0  0  0  0  0  0  0  0  0
    9.3196   -4.2412    0.0000 H   0  0  0  0  0  0  0  0  0  0  0  0
    9.6338   -3.4226    0.0000 H   0  0  0  0  0  0  0  0  0  0  0  0
    8.8153   -3.1084    0.0000 H   0  0  0  0  0  0  0  0  0  0  0  0
    2.9132   -4.1093    0.0000 H   0  0  0  0  0  0  0  0  0  0  0  0
    1.4643   -1.6218    0.0000 H   0  0  0  0  0  0  0  0  0  0  0  0
    1.4643   -3.2876    0.0000 H   0  0  0  0  0  0  0  0  0  0  0  0
  1 16  1  0  0  0  0
  1 70  1  0  0  0  0
 20  2  1  6  0  0  0
  2 31  1  0  0  0  0
  3 16  2  0  0  0  0
  4 18  2  0  0  0  0
  5 24  2  0  0  0  0
  6 32  1  0  0  0  0
  6 35  1  0  0  0  0
  7 32  2  0  0  0  0
  8 12  1  0  0  0  0
  8 18  1  0  0  0  0
  8 48  1  0  0  0  0
  9 15  1  0  0  0  0
  9 22  1  0  0  0  0
  9 24  1  0  0  0  0
 23 10  1  6  0  0  0
 10 32  1  0  0  0  0
 10 71  1  0  0  0  0
 11 36  1  0  0  0  0
 11 38  2  0  0  0  0
 12 13  1  0  0  0  0
 12 14  1  0  0  0  0
 12 16  1  0  0  0  0
 13 14  1  0  0  0  0
 13 17  1  1  0  0  0
 13 45  1  0  0  0  0
 14 46  1  0  0  0  0
 14 47  1  0  0  0  0
 15 18  1  1  0  0  0
 15 19  1  0  0  0  0
 15 49  1  0  0  0  0
 17 30  2  0  0  0  0
 17 50  1  0  0  0  0
 19 20  1  0  0  0  0
 19 51  1  0  0  0  0
 19 52  1  0  0  0  0
 20 22  1  0  0  0  0
 20 53  1  0  0  0  0
 21 23  1  0  0  0  0
 21 25  1  0  0  0  0
 21 26  1  0  0  0  0
 21 54  1  0  0  0  0
 22 55  1  0  0  0  0
 22 56  1  0  0  0  0
 23 24  1  0  0  0  0
 23 57  1  0  0  0  0
 25 27  1  0  0  0  0
 25 58  1  0  0  0  0
 25 59  1  0  0  0  0
 26 28  1  0  0  0  0
 26 60  1  0  0  0  0
 26 61  1  0  0  0  0
 27 29  1  0  0  0  0
 27 62  1  0  0  0  0
 27 63  1  0  0  0  0
 28 29  1  0  0  0  0
 28 64  1  0  0  0  0
 28 65  1  0  0  0  0
 29 66  1  0  0  0  0
 29 67  1  0  0  0  0
 30 68  1  0  0  0  0
 30 69  1  0  0  0  0
 31 33  1  0  0  0  0
 31 34  2  0  0  0  0
 33 36  1  0  0  0  0
 33 37  2  0  0  0  0
 34 38  1  0  0  0  0
 34 72  1  0  0  0  0
 35 39  1  0  0  0  0
 35 40  1  0  0  0  0
 35 41  1  0  0  0  0
 36 42  2  0  0  0  0
 37 43  1  0  0  0  0
 37 73  1  0  0  0  0
 38 74  1  0  0  0  0
 39 75  1  0  0  0  0
 39 76  1  0  0  0  0
 39 77  1  0  0  0  0
 40 78  1  0  0  0  0
 40 79  1  0  0  0  0
 40 80  1  0  0  0  0
 41 81  1  0  0  0  0
 41 82  1  0  0  0  0
 41 83  1  0  0  0  0
 42 44  1  0  0  0  0
 42 84  1  0  0  0  0
 43 44  2  0  0  0  0
 43 85  1  0  0  0  0
 44 86  1  0  0  0  0
M  END
> <PUBCHEM_COMPOUND_CID>
500642
> <PUBCHEM_COMPOUND_CANONICALIZED>
1
> <PUBCHEM_CACTVS_COMPLEXITY>
1100
> <PUBCHEM_CACTVS_HBOND_ACCEPTOR>
8
> <PUBCHEM_CACTVS_HBOND_DONOR>
3
> <PUBCHEM_CACTVS_ROTATABLE_BOND>
11
> <PUBCHEM_CACTVS_SUBSKEYS>
AAADcfB/uAAAAAAAAAAAAAAAGAAAAWAAAAA8YIAAAAAAAACx8AAAHgAQCAAADfzhngY+zvPIFgCoAzX3XACCiCAxIiAI2KG+bJkOZvLEsbufeCjm1hnY6Ae6yaCOAAAAAAACAAAAAAAAAAQAAAAAAAAAAA==
> <PUBCHEM_IUPAC_OPENEYE_NAME>
(2R)-1-[[(2S,4R)-1-[(2S)-2-(tert-butoxycarbonylamino)-2-cyclohexyl-acetyl]-4-(4-quinolyloxy)pyrrolidine-2-carbonyl]amino]-2-vinyl-cyclopropanecarboxylic acid
> <PUBCHEM_IUPAC_CAS_NAME>
(2R)-1-[[[(2S,4R)-1-[(2S)-2-cyclohexyl-2-[[(2-methylpropan-2-yl)oxy-oxomethyl]amino]-1-oxoethyl]-4-(4-quinolinyloxy)-2-pyrrolidinyl]-oxomethyl]amino]-2-ethenyl-1-cyclopropanecarboxylic acid
> <PUBCHEM_IUPAC_NAME_MARKUP>
(2<I>R</I>)-1-[[(2<I>S</I>,4<I>R</I>)-1-[(2<I>S</I>)-2-cyclohexyl-2-[(2-methylpropan-2-yl)oxycarbonylamino]acetyl]-4-quinolin-4-yloxypyrrolidine-2-carbonyl]amino]-2-ethenylcyclopropane-1-carboxylic acid
> <PUBCHEM_IUPAC_NAME>
(2R)-1-[[(2S,4R)-1-[(2S)-2-cyclohexyl-2-[(2-methylpropan-2-yl)oxycarbonylamino]acetyl]-4-quinolin-4-yloxypyrrolidine-2-carbonyl]amino]-2-ethenylcyclopropane-1-carboxylic acid
> <PUBCHEM_IUPAC_SYSTEMATIC_NAME>
(2R)-1-[[(2S,4R)-1-[(2S)-2-cyclohexyl-2-[(2-methylpropan-2-yl)oxycarbonylamino]ethanoyl]-4-quinolin-4-yloxy-pyrrolidin-2-yl]carbonylamino]-2-ethenyl-cyclopropane-1-carboxylic acid
> <PUBCHEM_IUPAC_TRADITIONAL_NAME>
(2R)-1-[[(2S,4R)-1-[(2S)-2-(tert-butoxycarbonylamino)-2-cyclohexyl-acetyl]-4-(4-quinolyloxy)prolyl]amino]-2-vinyl-cyclopropanecarboxylic acid
> <PUBCHEM_IUPAC_INCHI>
InChI=1S/C33H42N4O7/c1-5-21-18-33(21,30(40)41)36-28(38)25-17-22(43-26-15-16-34-24-14-10-9-13-23(24)26)19-37(25)29(39)27(20-11-7-6-8-12-20)35-31(42)44-32(2,3)4/h5,9-10,13-16,20-22,25,27H,1,6-8,11-12,17-19H2,2-4H3,(H,35,42)(H,36,38)(H,40,41)/t21-,22+,25-,27-,33?/m0/s1
> <PUBCHEM_IUPAC_INCHIKEY>
HWZNEGIFVJYGCG-UCLSUPCESA-N
> <PUBCHEM_XLOGP3_AA>
4.9
> <PUBCHEM_EXACT_MASS>
606.30534969
> <PUBCHEM_MOLECULAR_FORMULA>
C33H42N4O7
> <PUBCHEM_MOLECULAR_WEIGHT>
606.7
> <PUBCHEM_OPENEYE_CAN_SMILES>
CC(C)(C)OC(=O)NC(C1CCCCC1)C(=O)N2CC(CC2C(=O)NC3(CC3C=C)C(=O)O)OC4=CC=NC5=CC=CC=C54
> <PUBCHEM_OPENEYE_ISO_SMILES>
CC(C)(C)OC(=O)N[C@@H](C1CCCCC1)C(=O)N2C[C@@H](C[C@H]2C(=O)NC3(C[C@@H]3C=C)C(=O)O)OC4=CC=NC5=CC=CC=C54
> <PUBCHEM_CACTVS_TPSA>
147
> <PUBCHEM_MONOISOTOPIC_WEIGHT>
606.30534969
> <PUBCHEM_TOTAL_CHARGE>
0
> <PUBCHEM_HEAVY_ATOM_COUNT>
44
> <PUBCHEM_ATOM_DEF_STEREO_COUNT>
4
> <PUBCHEM_ATOM_UDEF_STEREO_COUNT>
1
> <PUBCHEM_BOND_DEF_STEREO_COUNT>
0
> <PUBCHEM_BOND_UDEF_STEREO_COUNT>
0
> <PUBCHEM_ISOTOPIC_ATOM_COUNT>
0
> <PUBCHEM_COMPONENT_COUNT>
1
> <PUBCHEM_CACTVS_TAUTO_COUNT>
-1
> <PUBCHEM_COORDINATE_TYPE>
1
5
255
> <PUBCHEM_BONDANNOTATIONS>
23  10  6
11  36  8
11  38  8
12  16  3
13  17  5
15  18  5
20  2  6
31  33  8
31  34  8
33  36  8
33  37  8
34  38  8
36  42  8
37  43  8
42  44  8
43  44  8
$$$$
