500653
  -OEChem-10302200282D
103108  0     1  0  0  0  0  0999 V2000
   13.6890   -0.6622    0.0000 O   0  0  0  0  0  0  0  0  0  0  0  0
   12.2877    0.3558    0.0000 O   0  0  0  0  0  0  0  0  0  0  0  0
    7.2622   -1.0805    0.0000 O   0  0  0  0  0  0  0  0  0  0  0  0
   11.2932    0.4604    0.0000 O   0  0  0  0  0  0  0  0  0  0  0  0
   10.6121    1.6400    0.0000 O   0  0  0  0  0  0  0  0  0  0  0  0
    7.8542    3.9625    0.0000 O   0  0  0  0  0  0  0  0  0  0  0  0
    6.4530    2.9444    0.0000 O   0  0  0  0  0  0  0  0  0  0  0  0
    2.8602   -3.5530    0.0000 O   0  0  0  0  0  0  0  0  0  0  0  0
   11.1121   -1.2622    0.0000 N   0  0  0  0  0  0  0  0  0  0  0  0
    9.2109    0.6219    0.0000 N   0  0  0  0  0  0  0  0  0  0  0  0
    8.0353    2.2399    0.0000 N   0  0  0  0  0  0  0  0  0  0  0  0
    7.2622   -4.0805    0.0000 N   0  0  0  0  0  0  0  0  0  0  0  0
    3.7320   -2.0564    0.0000 N   0  0  0  0  0  0  0  0  0  0  0  0
   12.1066   -1.3667    0.0000 C   0  0  3  0  0  0  0  0  0  0  0  0
   12.0021   -2.3612    0.0000 C   0  0  2  0  0  0  0  0  0  0  0  0
   12.9157   -1.9545    0.0000 C   0  0  0  0  0  0  0  0  0  0  0  0
    9.7109   -0.2441    0.0000 C   0  0  2  0  0  0  0  0  0  0  0  0
   12.6944   -0.5577    0.0000 C   0  0  0  0  0  0  0  0  0  0  0  0
   11.4143   -3.1703    0.0000 C   0  0  0  0  0  0  0  0  0  0  0  0
   10.7054   -0.3487    0.0000 C   0  0  0  0  0  0  0  0  0  0  0  0
    9.0417   -0.9873    0.0000 C   0  0  0  0  0  0  0  0  0  0  0  0
    8.1282   -0.5805    0.0000 C   0  0  2  0  0  0  0  0  0  0  0  0
    8.2327    0.4140    0.0000 C   0  0  0  0  0  0  0  0  0  0  0  0
    9.4366    3.2580    0.0000 C   0  0  0  0  0  0  0  0  0  0  0  0
    9.0298    2.3445    0.0000 C   0  0  1  0  0  0  0  0  0  0  0  0
    9.6176    1.5354    0.0000 C   0  0  0  0  0  0  0  0  0  0  0  0
    8.8488    4.0670    0.0000 C   0  0  0  0  0  0  0  0  0  0  0  0
   10.4311    3.3625    0.0000 C   0  0  0  0  0  0  0  0  0  0  0  0
    9.2555    4.9806    0.0000 C   0  0  0  0  0  0  0  0  0  0  0  0
   10.8378    4.2761    0.0000 C   0  0  0  0  0  0  0  0  0  0  0  0
   11.8211   -4.0838    0.0000 C   0  0  0  0  0  0  0  0  0  0  0  0
   10.2500    5.0851    0.0000 C   0  0  0  0  0  0  0  0  0  0  0  0
    7.2622   -2.0805    0.0000 C   0  0  0  0  0  0  0  0  0  0  0  0
    7.4475    3.0490    0.0000 C   0  0  0  0  0  0  0  0  0  0  0  0
    6.3961   -2.5805    0.0000 C   0  0  0  0  0  0  0  0  0  0  0  0
    8.1282   -2.5805    0.0000 C   0  0  0  0  0  0  0  0  0  0  0  0
    7.2665    4.7715    0.0000 C   0  0  0  0  0  0  0  0  0  0  0  0
    6.3961   -3.5805    0.0000 C   0  0  0  0  0  0  0  0  0  0  0  0
    8.1282   -3.5805    0.0000 C   0  0  0  0  0  0  0  0  0  0  0  0
    5.5022   -2.0459    0.0000 C   0  0  0  0  0  0  0  0  0  0  0  0
    5.5022   -4.1152    0.0000 C   0  0  0  0  0  0  0  0  0  0  0  0
    6.6787    5.5805    0.0000 C   0  0  0  0  0  0  0  0  0  0  0  0
    8.0755    5.3593    0.0000 C   0  0  0  0  0  0  0  0  0  0  0  0
    6.4574    4.1837    0.0000 C   0  0  0  0  0  0  0  0  0  0  0  0
    4.5961   -2.5597    0.0000 C   0  0  0  0  0  0  0  0  0  0  0  0
    8.9942   -4.0805    0.0000 C   0  0  0  0  0  0  0  0  0  0  0  0
    4.5961   -3.6014    0.0000 C   0  0  0  0  0  0  0  0  0  0  0  0
    8.9942   -5.0805    0.0000 C   0  0  0  0  0  0  0  0  0  0  0  0
    9.8602   -3.5805    0.0000 C   0  0  0  0  0  0  0  0  0  0  0  0
    9.8602   -5.5805    0.0000 C   0  0  0  0  0  0  0  0  0  0  0  0
   10.7263   -4.0805    0.0000 C   0  0  0  0  0  0  0  0  0  0  0  0
    2.8641   -2.5530    0.0000 C   0  0  0  0  0  0  0  0  0  0  0  0
   10.7263   -5.0805    0.0000 C   0  0  0  0  0  0  0  0  0  0  0  0
    2.0000   -2.0497    0.0000 C   0  0  0  0  0  0  0  0  0  0  0  0
   11.4233   -2.1391    0.0000 H   0  0  0  0  0  0  0  0  0  0  0  0
   13.2624   -2.4685    0.0000 H   0  0  0  0  0  0  0  0  0  0  0  0
   13.3617   -1.5238    0.0000 H   0  0  0  0  0  0  0  0  0  0  0  0
   10.7477   -1.7638    0.0000 H   0  0  0  0  0  0  0  0  0  0  0  0
   10.0485    0.2759    0.0000 H   0  0  0  0  0  0  0  0  0  0  0  0
   10.7977   -3.1055    0.0000 H   0  0  0  0  0  0  0  0  0  0  0  0
    8.7317   -1.5242    0.0000 H   0  0  0  0  0  0  0  0  0  0  0  0
    9.5433   -1.3517    0.0000 H   0  0  0  0  0  0  0  0  0  0  0  0
    8.1606   -1.1997    0.0000 H   0  0  0  0  0  0  0  0  0  0  0  0
    8.1679    1.0306    0.0000 H   0  0  0  0  0  0  0  0  0  0  0  0
    7.6127    0.4140    0.0000 H   0  0  0  0  0  0  0  0  0  0  0  0
    8.8200    3.1932    0.0000 H   0  0  0  0  0  0  0  0  0  0  0  0
    8.7776    1.7781    0.0000 H   0  0  0  0  0  0  0  0  0  0  0  0
    8.3348    4.4137    0.0000 H   0  0  0  0  0  0  0  0  0  0  0  0
    8.4181    3.6210    0.0000 H   0  0  0  0  0  0  0  0  0  0  0  0
   10.3878    2.7440    0.0000 H   0  0  0  0  0  0  0  0  0  0  0  0
   11.0327    3.2125    0.0000 H   0  0  0  0  0  0  0  0  0  0  0  0
    9.2988    5.5991    0.0000 H   0  0  0  0  0  0  0  0  0  0  0  0
    8.6539    5.1306    0.0000 H   0  0  0  0  0  0  0  0  0  0  0  0
   11.3518    3.9294    0.0000 H   0  0  0  0  0  0  0  0  0  0  0  0
   11.2685    4.7221    0.0000 H   0  0  0  0  0  0  0  0  0  0  0  0
   11.4566   -4.5854    0.0000 H   0  0  0  0  0  0  0  0  0  0  0  0
   12.4377   -4.1486    0.0000 H   0  0  0  0  0  0  0  0  0  0  0  0
   10.8073    5.3569    0.0000 H   0  0  0  0  0  0  0  0  0  0  0  0
   10.0791    5.6811    0.0000 H   0  0  0  0  0  0  0  0  0  0  0  0
   14.0534   -0.1606    0.0000 H   0  0  0  0  0  0  0  0  0  0  0  0
    7.7831    1.6735    0.0000 H   0  0  0  0  0  0  0  0  0  0  0  0
    8.6651   -2.2705    0.0000 H   0  0  0  0  0  0  0  0  0  0  0  0
    5.5094   -1.4259    0.0000 H   0  0  0  0  0  0  0  0  0  0  0  0
    5.5094   -4.7352    0.0000 H   0  0  0  0  0  0  0  0  0  0  0  0
    7.1803    5.9450    0.0000 H   0  0  0  0  0  0  0  0  0  0  0  0
    6.3142    6.0821    0.0000 H   0  0  0  0  0  0  0  0  0  0  0  0
    6.1771    5.2161    0.0000 H   0  0  0  0  0  0  0  0  0  0  0  0
    8.4399    4.8577    0.0000 H   0  0  0  0  0  0  0  0  0  0  0  0
    8.5771    5.7237    0.0000 H   0  0  0  0  0  0  0  0  0  0  0  0
    7.7110    5.8609    0.0000 H   0  0  0  0  0  0  0  0  0  0  0  0
    6.0930    4.6853    0.0000 H   0  0  0  0  0  0  0  0  0  0  0  0
    5.9558    3.8193    0.0000 H   0  0  0  0  0  0  0  0  0  0  0  0
    6.8219    3.6821    0.0000 H   0  0  0  0  0  0  0  0  0  0  0  0
    4.0604   -3.9134    0.0000 H   0  0  0  0  0  0  0  0  0  0  0  0
    3.7344   -1.4364    0.0000 H   0  0  0  0  0  0  0  0  0  0  0  0
    8.4573   -5.3905    0.0000 H   0  0  0  0  0  0  0  0  0  0  0  0
    9.8602   -2.9605    0.0000 H   0  0  0  0  0  0  0  0  0  0  0  0
    9.8602   -6.2005    0.0000 H   0  0  0  0  0  0  0  0  0  0  0  0
   11.2632   -3.7705    0.0000 H   0  0  0  0  0  0  0  0  0  0  0  0
   11.2632   -5.3905    0.0000 H   0  0  0  0  0  0  0  0  0  0  0  0
    2.3121   -1.5140    0.0000 H   0  0  0  0  0  0  0  0  0  0  0  0
    1.4643   -1.7376    0.0000 H   0  0  0  0  0  0  0  0  0  0  0  0
    1.6879   -2.5854    0.0000 H   0  0  0  0  0  0  0  0  0  0  0  0
  1 18  1  0  0  0  0
  1 80  1  0  0  0  0
  2 18  2  0  0  0  0
 22  3  1  1  0  0  0
  3 33  1  0  0  0  0
  4 20  2  0  0  0  0
  5 26  2  0  0  0  0
  6 34  1  0  0  0  0
  6 37  1  0  0  0  0
  7 34  2  0  0  0  0
  8 52  2  0  0  0  0
  9 14  1  0  0  0  0
  9 20  1  0  0  0  0
  9 58  1  0  0  0  0
 10 17  1  0  0  0  0
 10 23  1  0  0  0  0
 10 26  1  0  0  0  0
 25 11  1  1  0  0  0
 11 34  1  0  0  0  0
 11 81  1  0  0  0  0
 12 38  1  0  0  0  0
 12 39  2  0  0  0  0
 13 45  1  0  0  0  0
 13 52  1  0  0  0  0
 13 95  1  0  0  0  0
 14 15  1  0  0  0  0
 14 16  1  0  0  0  0
 14 18  1  0  0  0  0
 15 16  1  0  0  0  0
 15 19  1  6  0  0  0
 15 55  1  0  0  0  0
 16 56  1  0  0  0  0
 16 57  1  0  0  0  0
 17 20  1  6  0  0  0
 17 21  1  0  0  0  0
 17 59  1  0  0  0  0
 19 31  2  0  0  0  0
 19 60  1  0  0  0  0
 21 22  1  0  0  0  0
 21 61  1  0  0  0  0
 21 62  1  0  0  0  0
 22 23  1  0  0  0  0
 22 63  1  0  0  0  0
 23 64  1  0  0  0  0
 23 65  1  0  0  0  0
 24 25  1  0  0  0  0
 24 27  1  0  0  0  0
 24 28  1  0  0  0  0
 24 66  1  0  0  0  0
 25 26  1  0  0  0  0
 25 67  1  0  0  0  0
 27 29  1  0  0  0  0
 27 68  1  0  0  0  0
 27 69  1  0  0  0  0
 28 30  1  0  0  0  0
 28 70  1  0  0  0  0
 28 71  1  0  0  0  0
 29 32  1  0  0  0  0
 29 72  1  0  0  0  0
 29 73  1  0  0  0  0
 30 32  1  0  0  0  0
 30 74  1  0  0  0  0
 30 75  1  0  0  0  0
 31 76  1  0  0  0  0
 31 77  1  0  0  0  0
 32 78  1  0  0  0  0
 32 79  1  0  0  0  0
 33 35  1  0  0  0  0
 33 36  2  0  0  0  0
 35 38  2  0  0  0  0
 35 40  1  0  0  0  0
 36 39  1  0  0  0  0
 36 82  1  0  0  0  0
 37 42  1  0  0  0  0
 37 43  1  0  0  0  0
 37 44  1  0  0  0  0
 38 41  1  0  0  0  0
 39 46  1  0  0  0  0
 40 45  2  0  0  0  0
 40 83  1  0  0  0  0
 41 47  2  0  0  0  0
 41 84  1  0  0  0  0
 42 85  1  0  0  0  0
 42 86  1  0  0  0  0
 42 87  1  0  0  0  0
 43 88  1  0  0  0  0
 43 89  1  0  0  0  0
 43 90  1  0  0  0  0
 44 91  1  0  0  0  0
 44 92  1  0  0  0  0
 44 93  1  0  0  0  0
 45 47  1  0  0  0  0
 46 48  2  0  0  0  0
 46 49  1  0  0  0  0
 47 94  1  0  0  0  0
 48 50  1  0  0  0  0
 48 96  1  0  0  0  0
 49 51  2  0  0  0  0
 49 97  1  0  0  0  0
 50 53  2  0  0  0  0
 50 98  1  0  0  0  0
 51 53  1  0  0  0  0
 51 99  1  0  0  0  0
 52 54  1  0  0  0  0
 53100  1  0  0  0  0
 54101  1  0  0  0  0
 54102  1  0  0  0  0
 54103  1  0  0  0  0
M  END
> <PUBCHEM_COMPOUND_CID>
500653
> <PUBCHEM_COMPOUND_CANONICALIZED>
1
> <PUBCHEM_CACTVS_COMPLEXITY>
1410
> <PUBCHEM_CACTVS_HBOND_ACCEPTOR>
9
> <PUBCHEM_CACTVS_HBOND_DONOR>
4
> <PUBCHEM_CACTVS_ROTATABLE_BOND>
13
> <PUBCHEM_CACTVS_SUBSKEYS>
AAADcfB/vAAAAAAAAAAAAAAAGAAAAWAAAAA8YMEAAAAAAACx9AAAHgAQCAAADfzhngYyzvPIFgCoAyXyXACCiCAhIiAImKG+bJkOZvLEsbufeCjm1hnY6Ae6yeCOAACAQAACAAAAAQCAAAQAAAAAAAAAAA==
> <PUBCHEM_IUPAC_OPENEYE_NAME>
(2R)-1-[[(2S,4R)-4-[(6-acetamido-2-phenyl-4-quinolyl)oxy]-1-[(2S)-2-(tert-butoxycarbonylamino)-2-cyclohexyl-acetyl]pyrrolidine-2-carbonyl]amino]-2-vinyl-cyclopropanecarboxylic acid
> <PUBCHEM_IUPAC_CAS_NAME>
(2R)-1-[[[(2S,4R)-4-[(6-acetamido-2-phenyl-4-quinolinyl)oxy]-1-[(2S)-2-cyclohexyl-2-[[(2-methylpropan-2-yl)oxy-oxomethyl]amino]-1-oxoethyl]-2-pyrrolidinyl]-oxomethyl]amino]-2-ethenyl-1-cyclopropanecarboxylic acid
> <PUBCHEM_IUPAC_NAME_MARKUP>
(2<I>R</I>)-1-[[(2<I>S</I>,4<I>R</I>)-4-(6-acetamido-2-phenylquinolin-4-yl)oxy-1-[(2<I>S</I>)-2-cyclohexyl-2-[(2-methylpropan-2-yl)oxycarbonylamino]acetyl]pyrrolidine-2-carbonyl]amino]-2-ethenylcyclopropane-1-carboxylic acid
> <PUBCHEM_IUPAC_NAME>
(2R)-1-[[(2S,4R)-4-(6-acetamido-2-phenylquinolin-4-yl)oxy-1-[(2S)-2-cyclohexyl-2-[(2-methylpropan-2-yl)oxycarbonylamino]acetyl]pyrrolidine-2-carbonyl]amino]-2-ethenylcyclopropane-1-carboxylic acid
> <PUBCHEM_IUPAC_SYSTEMATIC_NAME>
(2R)-1-[[(2S,4R)-4-(6-acetamido-2-phenyl-quinolin-4-yl)oxy-1-[(2S)-2-cyclohexyl-2-[(2-methylpropan-2-yl)oxycarbonylamino]ethanoyl]pyrrolidin-2-yl]carbonylamino]-2-ethenyl-cyclopropane-1-carboxylic acid
> <PUBCHEM_IUPAC_TRADITIONAL_NAME>
(2R)-1-[[(2S,4R)-4-[(6-acetamido-2-phenyl-4-quinolyl)oxy]-1-[(2S)-2-(tert-butoxycarbonylamino)-2-cyclohexyl-acetyl]prolyl]amino]-2-vinyl-cyclopropanecarboxylic acid
> <PUBCHEM_IUPAC_INCHI>
InChI=1S/C41H49N5O8/c1-6-27-22-41(27,38(50)51)45-36(48)33-20-29(23-46(33)37(49)35(26-15-11-8-12-16-26)44-39(52)54-40(3,4)5)53-34-21-32(25-13-9-7-10-14-25)43-31-18-17-28(19-30(31)34)42-24(2)47/h6-7,9-10,13-14,17-19,21,26-27,29,33,35H,1,8,11-12,15-16,20,22-23H2,2-5H3,(H,42,47)(H,44,52)(H,45,48)(H,50,51)/t27-,29+,33-,35-,41?/m0/s1
> <PUBCHEM_IUPAC_INCHIKEY>
LPCHZFSKFJFPRM-AFDQUIMISA-N
> <PUBCHEM_XLOGP3_AA>
5.7
> <PUBCHEM_EXACT_MASS>
739.35811354
> <PUBCHEM_MOLECULAR_FORMULA>
C41H49N5O8
> <PUBCHEM_MOLECULAR_WEIGHT>
739.9
> <PUBCHEM_OPENEYE_CAN_SMILES>
CC(=O)NC1=CC2=C(C=C1)N=C(C=C2OC3CC(N(C3)C(=O)C(C4CCCCC4)NC(=O)OC(C)(C)C)C(=O)NC5(CC5C=C)C(=O)O)C6=CC=CC=C6
> <PUBCHEM_OPENEYE_ISO_SMILES>
CC(=O)NC1=CC2=C(C=C1)N=C(C=C2O[C@@H]3C[C@H](N(C3)C(=O)[C@H](C4CCCCC4)NC(=O)OC(C)(C)C)C(=O)NC5(C[C@@H]5C=C)C(=O)O)C6=CC=CC=C6
> <PUBCHEM_CACTVS_TPSA>
176
> <PUBCHEM_MONOISOTOPIC_WEIGHT>
739.35811354
> <PUBCHEM_TOTAL_CHARGE>
0
> <PUBCHEM_HEAVY_ATOM_COUNT>
54
> <PUBCHEM_ATOM_DEF_STEREO_COUNT>
4
> <PUBCHEM_ATOM_UDEF_STEREO_COUNT>
1
> <PUBCHEM_BOND_DEF_STEREO_COUNT>
0
> <PUBCHEM_BOND_UDEF_STEREO_COUNT>
0
> <PUBCHEM_ISOTOPIC_ATOM_COUNT>
0
> <PUBCHEM_COMPONENT_COUNT>
1
> <PUBCHEM_CACTVS_TAUTO_COUNT>
-1
> <PUBCHEM_COORDINATE_TYPE>
1
5
255
> <PUBCHEM_BONDANNOTATIONS>
25  11  5
12  38  8
12  39  8
14  18  3
15  19  6
17  20  6
22  3  5
33  35  8
33  36  8
35  38  8
35  40  8
36  39  8
38  41  8
40  45  8
41  47  8
45  47  8
46  48  8
46  49  8
48  50  8
49  51  8
50  53  8
51  53  8
$$$$
