500619
  -OEChem-10302200282D
133136  0     1  0  0  0  0  0999 V2000
   10.0721    5.0072    0.0000 O   0  0  0  0  0  0  0  0  0  0  0  0
   11.1832    0.8372    0.0000 O   0  0  0  0  0  0  0  0  0  0  0  0
   12.4276    1.3912    0.0000 O   0  0  0  0  0  0  0  0  0  0  0  0
    7.5869    0.5793    0.0000 O   0  0  0  0  0  0  0  0  0  0  0  0
    6.4280   -0.7079    0.0000 O   0  0  0  0  0  0  0  0  0  0  0  0
    7.7063   -3.0243    0.0000 O   0  0  0  0  0  0  0  0  0  0  0  0
   15.0257    3.8912    0.0000 O   0  0  0  0  0  0  0  0  0  0  0  0
    4.1100   -3.2822    0.0000 O   0  0  0  0  0  0  0  0  0  0  0  0
    2.6237   -1.9440    0.0000 O   0  0  0  0  0  0  0  0  0  0  0  0
    3.7827   -0.6568    0.0000 O   0  0  0  0  0  0  0  0  0  0  0  0
   20.3020    2.6959    0.0000 O   0  0  0  0  0  0  0  0  0  0  0  0
   20.3020    1.0865    0.0000 O   0  0  0  0  0  0  0  0  0  0  0  0
    5.9236   -7.2459    0.0000 O   0  0  0  0  0  0  0  0  0  0  0  0
    4.2294   -6.8858    0.0000 O   0  0  0  0  0  0  0  0  0  0  0  0
    3.1590   -3.5912    0.0000 O   0  0  0  0  0  0  0  0  0  0  0  0
   10.6480    2.4845    0.0000 N   0  0  0  0  0  0  0  0  0  0  0  0
    9.2811    0.2192    0.0000 N   0  0  0  0  0  0  0  0  0  0  0  0
   13.2936    2.8912    0.0000 N   0  0  0  0  0  0  0  0  0  0  0  0
   14.1596    2.3912    0.0000 N   0  0  0  0  0  0  0  0  0  0  0  0
    7.1711   -1.3770    0.0000 N   0  0  0  0  0  0  0  0  0  0  0  0
    5.8042   -3.6423    0.0000 N   0  0  0  0  0  0  0  0  0  0  0  0
   15.8917    2.3912    0.0000 N   0  0  0  0  0  0  0  0  0  0  0  0
    3.6942   -5.2385    0.0000 N   0  0  0  0  0  0  0  0  0  0  0  0
   11.5616    2.8912    0.0000 C   0  0  1  0  0  0  0  0  0  0  0  0
   10.4789    4.0936    0.0000 C   0  0  2  0  0  0  0  0  0  0  0  0
   11.4570    3.8857    0.0000 C   0  0  0  0  0  0  0  0  0  0  0  0
    9.9789    3.2276    0.0000 C   0  0  0  0  0  0  0  0  0  0  0  0
   10.4401    1.5063    0.0000 C   0  0  0  0  0  0  0  0  0  0  0  0
    9.4890    1.1973    0.0000 C   0  0  2  0  0  0  0  0  0  0  0  0
   12.4276    2.3912    0.0000 C   0  0  0  0  0  0  0  0  0  0  0  0
    8.7459    1.8664    0.0000 C   0  0  0  0  0  0  0  0  0  0  0  0
    8.1222   -1.0680    0.0000 C   0  0  2  0  0  0  0  0  0  0  0  0
    9.0776    5.1117    0.0000 C   0  0  0  0  0  0  0  0  0  0  0  0
    7.7948    1.5574    0.0000 C   0  0  0  0  0  0  0  0  0  0  0  0
    8.9538    2.8446    0.0000 C   0  0  0  0  0  0  0  0  0  0  0  0
    8.3301   -0.0899    0.0000 C   0  0  0  0  0  0  0  0  0  0  0  0
    8.8653   -1.7371    0.0000 C   0  0  2  0  0  0  0  0  0  0  0  0
    8.6574   -2.7153    0.0000 C   0  0  0  0  0  0  0  0  0  0  0  0
    8.6709    6.0253    0.0000 C   0  0  0  0  0  0  0  0  0  0  0  0
    9.8164   -1.4281    0.0000 C   0  0  0  0  0  0  0  0  0  0  0  0
   14.1596    1.3912    0.0000 C   0  0  0  0  0  0  0  0  0  0  0  0
    6.9632   -2.3552    0.0000 C   0  0  0  0  0  0  0  0  0  0  0  0
    9.4005   -3.3844    0.0000 C   0  0  0  0  0  0  0  0  0  0  0  0
    6.0121   -2.6642    0.0000 C   0  0  1  0  0  0  0  0  0  0  0  0
   15.0257    2.8912    0.0000 C   0  0  0  0  0  0  0  0  0  0  0  0
    9.2587    6.8343    0.0000 C   0  0  0  0  0  0  0  0  0  0  0  0
    7.6764    6.1298    0.0000 C   0  0  0  0  0  0  0  0  0  0  0  0
   13.2936    0.8912    0.0000 C   0  0  0  0  0  0  0  0  0  0  0  0
    5.2690   -1.9950    0.0000 C   0  0  0  0  0  0  0  0  0  0  0  0
    8.8519    7.7478    0.0000 C   0  0  0  0  0  0  0  0  0  0  0  0
    7.2696    7.0433    0.0000 C   0  0  0  0  0  0  0  0  0  0  0  0
   13.2936   -0.1088    0.0000 C   0  0  0  0  0  0  0  0  0  0  0  0
    4.3179   -2.3041    0.0000 C   0  0  0  0  0  0  0  0  0  0  0  0
    7.8574    7.8524    0.0000 C   0  0  0  0  0  0  0  0  0  0  0  0
   16.7577    2.8912    0.0000 C   0  0  0  0  0  0  0  0  0  0  0  0
    4.8532   -3.9514    0.0000 C   0  0  0  0  0  0  0  0  0  0  0  0
    4.6453   -4.9295    0.0000 C   0  0  2  0  0  0  0  0  0  0  0  0
    3.5748   -1.6349    0.0000 C   0  0  0  0  0  0  0  0  0  0  0  0
   17.6237    2.3912    0.0000 C   0  0  0  0  0  0  0  0  0  0  0  0
    5.3884   -5.5986    0.0000 C   0  0  0  0  0  0  0  0  0  0  0  0
   18.4898    2.8912    0.0000 C   0  0  0  0  0  0  0  0  0  0  0  0
   17.6237    1.3912    0.0000 C   0  0  0  0  0  0  0  0  0  0  0  0
    5.1805   -6.5768    0.0000 C   0  0  0  0  0  0  0  0  0  0  0  0
   19.3558    2.3912    0.0000 C   0  0  0  0  0  0  0  0  0  0  0  0
    2.9511   -4.5694    0.0000 C   0  0  0  0  0  0  0  0  0  0  0  0
   18.4898    0.8912    0.0000 C   0  0  0  0  0  0  0  0  0  0  0  0
   19.3558    1.3912    0.0000 C   0  0  0  0  0  0  0  0  0  0  0  0
    2.0000   -4.8784    0.0000 C   0  0  0  0  0  0  0  0  0  0  0  0
   20.8856    1.8912    0.0000 C   0  0  0  0  0  0  0  0  0  0  0  0
   11.5291    2.2721    0.0000 H   0  0  0  0  0  0  0  0  0  0  0  0
    9.8597    4.1261    0.0000 H   0  0  0  0  0  0  0  0  0  0  0  0
   12.0770    3.8857    0.0000 H   0  0  0  0  0  0  0  0  0  0  0  0
   11.5218    4.5023    0.0000 H   0  0  0  0  0  0  0  0  0  0  0  0
    9.4773    3.5920    0.0000 H   0  0  0  0  0  0  0  0  0  0  0  0
    9.5640    2.7669    0.0000 H   0  0  0  0  0  0  0  0  0  0  0  0
    8.8994    1.0057    0.0000 H   0  0  0  0  0  0  0  0  0  0  0  0
    9.3356    2.0580    0.0000 H   0  0  0  0  0  0  0  0  0  0  0  0
    9.7419   -0.1957    0.0000 H   0  0  0  0  0  0  0  0  0  0  0  0
    7.9933   -1.6744    0.0000 H   0  0  0  0  0  0  0  0  0  0  0  0
    8.4760    4.9617    0.0000 H   0  0  0  0  0  0  0  0  0  0  0  0
    9.1209    4.4932    0.0000 H   0  0  0  0  0  0  0  0  0  0  0  0
    7.6032    2.1471    0.0000 H   0  0  0  0  0  0  0  0  0  0  0  0
    7.2052    1.3658    0.0000 H   0  0  0  0  0  0  0  0  0  0  0  0
    7.9864    0.9678    0.0000 H   0  0  0  0  0  0  0  0  0  0  0  0
    9.5603    2.7157    0.0000 H   0  0  0  0  0  0  0  0  0  0  0  0
    9.0827    3.4510    0.0000 H   0  0  0  0  0  0  0  0  0  0  0  0
    8.3474    2.9735    0.0000 H   0  0  0  0  0  0  0  0  0  0  0  0
   13.2936    3.5112    0.0000 H   0  0  0  0  0  0  0  0  0  0  0  0
    8.9942   -1.1307    0.0000 H   0  0  0  0  0  0  0  0  0  0  0  0
    8.0825   -2.4830    0.0000 H   0  0  0  0  0  0  0  0  0  0  0  0
    8.3288   -3.2411    0.0000 H   0  0  0  0  0  0  0  0  0  0  0  0
   10.0080   -2.0178    0.0000 H   0  0  0  0  0  0  0  0  0  0  0  0
   10.4060   -1.2365    0.0000 H   0  0  0  0  0  0  0  0  0  0  0  0
    9.6248   -0.8385    0.0000 H   0  0  0  0  0  0  0  0  0  0  0  0
   14.3717    0.8086    0.0000 H   0  0  0  0  0  0  0  0  0  0  0  0
   14.7702    1.4989    0.0000 H   0  0  0  0  0  0  0  0  0  0  0  0
    8.9857   -3.8452    0.0000 H   0  0  0  0  0  0  0  0  0  0  0  0
    9.8613   -3.7993    0.0000 H   0  0  0  0  0  0  0  0  0  0  0  0
    9.8154   -2.9237    0.0000 H   0  0  0  0  0  0  0  0  0  0  0  0
    6.4729   -3.0790    0.0000 H   0  0  0  0  0  0  0  0  0  0  0  0
    9.8753    6.7695    0.0000 H   0  0  0  0  0  0  0  0  0  0  0  0
    7.3119    5.6282    0.0000 H   0  0  0  0  0  0  0  0  0  0  0  0
   13.0816    1.4738    0.0000 H   0  0  0  0  0  0  0  0  0  0  0  0
   12.6830    0.7836    0.0000 H   0  0  0  0  0  0  0  0  0  0  0  0
    5.7576   -1.6133    0.0000 H   0  0  0  0  0  0  0  0  0  0  0  0
    4.9779   -1.4476    0.0000 H   0  0  0  0  0  0  0  0  0  0  0  0
    5.8383   -0.8995    0.0000 H   0  0  0  0  0  0  0  0  0  0  0  0
    6.2650   -4.0572    0.0000 H   0  0  0  0  0  0  0  0  0  0  0  0
    9.2164    8.2494    0.0000 H   0  0  0  0  0  0  0  0  0  0  0  0
    6.6530    7.1082    0.0000 H   0  0  0  0  0  0  0  0  0  0  0  0
   15.8917    1.7712    0.0000 H   0  0  0  0  0  0  0  0  0  0  0  0
   12.6736   -0.1088    0.0000 H   0  0  0  0  0  0  0  0  0  0  0  0
   13.2936   -0.7288    0.0000 H   0  0  0  0  0  0  0  0  0  0  0  0
   13.9136   -0.1088    0.0000 H   0  0  0  0  0  0  0  0  0  0  0  0
    3.8294   -2.6858    0.0000 H   0  0  0  0  0  0  0  0  0  0  0  0
    4.6090   -2.8515    0.0000 H   0  0  0  0  0  0  0  0  0  0  0  0
    7.6052    8.4188    0.0000 H   0  0  0  0  0  0  0  0  0  0  0  0
   17.1562    3.3662    0.0000 H   0  0  0  0  0  0  0  0  0  0  0  0
   16.3592    3.3662    0.0000 H   0  0  0  0  0  0  0  0  0  0  0  0
    4.1845   -4.5146    0.0000 H   0  0  0  0  0  0  0  0  0  0  0  0
    5.9633   -5.8309    0.0000 H   0  0  0  0  0  0  0  0  0  0  0  0
    5.7170   -5.0728    0.0000 H   0  0  0  0  0  0  0  0  0  0  0  0
    3.5653   -5.8450    0.0000 H   0  0  0  0  0  0  0  0  0  0  0  0
   18.4898    3.5112    0.0000 H   0  0  0  0  0  0  0  0  0  0  0  0
   17.0868    1.0812    0.0000 H   0  0  0  0  0  0  0  0  0  0  0  0
    2.1630   -1.5291    0.0000 H   0  0  0  0  0  0  0  0  0  0  0  0
   18.4898    0.2712    0.0000 H   0  0  0  0  0  0  0  0  0  0  0  0
    1.8084   -4.2887    0.0000 H   0  0  0  0  0  0  0  0  0  0  0  0
    1.4103   -5.0700    0.0000 H   0  0  0  0  0  0  0  0  0  0  0  0
    2.1916   -5.4680    0.0000 H   0  0  0  0  0  0  0  0  0  0  0  0
   21.3465    1.4765    0.0000 H   0  0  0  0  0  0  0  0  0  0  0  0
   21.3465    2.3059    0.0000 H   0  0  0  0  0  0  0  0  0  0  0  0
    5.7947   -7.8524    0.0000 H   0  0  0  0  0  0  0  0  0  0  0  0
 25  1  1  6  0  0  0
  1 33  1  0  0  0  0
  2 28  2  0  0  0  0
  3 30  2  0  0  0  0
  4 36  2  0  0  0  0
  5 20  1  0  0  0  0
  5107  1  0  0  0  0
  6 42  2  0  0  0  0
  7 45  2  0  0  0  0
  8 56  2  0  0  0  0
  9 58  1  0  0  0  0
  9126  1  0  0  0  0
 10 58  2  0  0  0  0
 11 64  1  0  0  0  0
 11 69  1  0  0  0  0
 12 67  1  0  0  0  0
 12 69  1  0  0  0  0
 13 63  1  0  0  0  0
 13133  1  0  0  0  0
 14 63  2  0  0  0  0
 15 65  2  0  0  0  0
 16 24  1  0  0  0  0
 16 27  1  0  0  0  0
 16 28  1  0  0  0  0
 29 17  1  1  0  0  0
 17 36  1  0  0  0  0
 17 78  1  0  0  0  0
 18 19  1  0  0  0  0
 18 30  1  0  0  0  0
 18 88  1  0  0  0  0
 19 41  1  0  0  0  0
 19 45  1  0  0  0  0
 32 20  1  6  0  0  0
 20 42  1  0  0  0  0
 44 21  1  6  0  0  0
 21 56  1  0  0  0  0
 21108  1  0  0  0  0
 22 45  1  0  0  0  0
 22 55  1  0  0  0  0
 22111  1  0  0  0  0
 57 23  1  6  0  0  0
 23 65  1  0  0  0  0
 23123  1  0  0  0  0
 24 26  1  0  0  0  0
 24 30  1  1  0  0  0
 24 70  1  0  0  0  0
 25 26  1  0  0  0  0
 25 27  1  0  0  0  0
 25 71  1  0  0  0  0
 26 72  1  0  0  0  0
 26 73  1  0  0  0  0
 27 74  1  0  0  0  0
 27 75  1  0  0  0  0
 28 29  1  0  0  0  0
 29 31  1  0  0  0  0
 29 76  1  0  0  0  0
 31 34  1  0  0  0  0
 31 35  1  0  0  0  0
 31 77  1  0  0  0  0
 32 36  1  0  0  0  0
 32 37  1  0  0  0  0
 32 79  1  0  0  0  0
 33 39  1  0  0  0  0
 33 80  1  0  0  0  0
 33 81  1  0  0  0  0
 34 82  1  0  0  0  0
 34 83  1  0  0  0  0
 34 84  1  0  0  0  0
 35 85  1  0  0  0  0
 35 86  1  0  0  0  0
 35 87  1  0  0  0  0
 37 38  1  0  0  0  0
 37 40  1  1  0  0  0
 37 89  1  0  0  0  0
 38 43  1  0  0  0  0
 38 90  1  0  0  0  0
 38 91  1  0  0  0  0
 39 46  2  0  0  0  0
 39 47  1  0  0  0  0
 40 92  1  0  0  0  0
 40 93  1  0  0  0  0
 40 94  1  0  0  0  0
 41 48  1  0  0  0  0
 41 95  1  0  0  0  0
 41 96  1  0  0  0  0
 42 44  1  0  0  0  0
 43 97  1  0  0  0  0
 43 98  1  0  0  0  0
 43 99  1  0  0  0  0
 44 49  1  0  0  0  0
 44100  1  0  0  0  0
 46 50  1  0  0  0  0
 46101  1  0  0  0  0
 47 51  2  0  0  0  0
 47102  1  0  0  0  0
 48 52  1  0  0  0  0
 48103  1  0  0  0  0
 48104  1  0  0  0  0
 49 53  1  0  0  0  0
 49105  1  0  0  0  0
 49106  1  0  0  0  0
 50 54  2  0  0  0  0
 50109  1  0  0  0  0
 51 54  1  0  0  0  0
 51110  1  0  0  0  0
 52112  1  0  0  0  0
 52113  1  0  0  0  0
 52114  1  0  0  0  0
 53 58  1  0  0  0  0
 53115  1  0  0  0  0
 53116  1  0  0  0  0
 54117  1  0  0  0  0
 55 59  1  0  0  0  0
 55118  1  0  0  0  0
 55119  1  0  0  0  0
 56 57  1  0  0  0  0
 57 60  1  0  0  0  0
 57120  1  0  0  0  0
 59 61  2  0  0  0  0
 59 62  1  0  0  0  0
 60 63  1  0  0  0  0
 60121  1  0  0  0  0
 60122  1  0  0  0  0
 61 64  1  0  0  0  0
 61124  1  0  0  0  0
 62 66  2  0  0  0  0
 62125  1  0  0  0  0
 64 67  2  0  0  0  0
 65 68  1  0  0  0  0
 66 67  1  0  0  0  0
 66127  1  0  0  0  0
 68128  1  0  0  0  0
 68129  1  0  0  0  0
 68130  1  0  0  0  0
 69131  1  0  0  0  0
 69132  1  0  0  0  0
M  END
> <PUBCHEM_COMPOUND_CID>
500619
> <PUBCHEM_COMPOUND_CANONICALIZED>
1
> <PUBCHEM_CACTVS_COMPLEXITY>
1800
> <PUBCHEM_CACTVS_HBOND_ACCEPTOR>
15
> <PUBCHEM_CACTVS_HBOND_DONOR>
8
> <PUBCHEM_CACTVS_ROTATABLE_BOND>
24
> <PUBCHEM_CACTVS_SUBSKEYS>
AAADcfB//AAAAAAAAAAAAAAAAAAAAWJAAAAwYAAAAAAAAEgBQAAAHgAcCAAADTzhmAczDoPyBgCIAiHSGACCCAAgIAA+qIGOjIifZjqEsTu3cCp+1hOeqAe/1zIOIAABAAAAQABAAAIAAACAAAAAAAAAAA==
> <PUBCHEM_IUPAC_OPENEYE_NAME>
(4R)-4-[[(2S)-2-acetamido-3-carboxy-propanoyl]amino]-5-[[(1S,2S)-1-[[(1S)-1-[(2S,4R)-2-[[1,3-benzodioxol-5-ylmethylcarbamoyl(propyl)amino]carbamoyl]-4-benzyloxy-pyrrolidine-1-carbonyl]-2-methyl-propyl]carbamoyl]-2-methyl-butyl]-hydroxy-amino]-5-oxo-pentanoic acid
> <PUBCHEM_IUPAC_CAS_NAME>
(4R)-4-[[(2S)-2-acetamido-3-carboxy-1-oxopropyl]amino]-5-[[(2S,3S)-1-[[(2S)-1-[(2S,4R)-2-[[2-[(1,3-benzodioxol-5-ylmethylamino)-oxomethyl]-2-propylhydrazinyl]-oxomethyl]-4-phenylmethoxy-1-pyrrolidinyl]-3-methyl-1-oxobutan-2-yl]amino]-3-methyl-1-oxopentan-2-yl]-hydroxyamino]-5-oxopentanoic acid
> <PUBCHEM_IUPAC_NAME_MARKUP>
(4<I>R</I>)-4-[[(2<I>S</I>)-2-acetamido-3-carboxypropanoyl]amino]-5-[[(2<I>S</I>,3<I>S</I>)-1-[[(2<I>S</I>)-1-[(2<I>S</I>,4<I>R</I>)-2-[[1,3-benzodioxol-5-ylmethylcarbamoyl(propyl)amino]carbamoyl]-4-phenylmethoxypyrrolidin-1-yl]-3-methyl-1-oxobutan-2-yl]amino]-3-methyl-1-oxopentan-2-yl]-hydroxyamino]-5-oxopentanoic acid
> <PUBCHEM_IUPAC_NAME>
(4R)-4-[[(2S)-2-acetamido-3-carboxypropanoyl]amino]-5-[[(2S,3S)-1-[[(2S)-1-[(2S,4R)-2-[[1,3-benzodioxol-5-ylmethylcarbamoyl(propyl)amino]carbamoyl]-4-phenylmethoxypyrrolidin-1-yl]-3-methyl-1-oxobutan-2-yl]amino]-3-methyl-1-oxopentan-2-yl]-hydroxyamino]-5-oxopentanoic acid
> <PUBCHEM_IUPAC_SYSTEMATIC_NAME>
(4R)-4-[[(2S)-2-acetamido-4-oxidanyl-4-oxidanylidene-butanoyl]amino]-5-[[(2S,3S)-1-[[(2S)-1-[(2S,4R)-2-[[1,3-benzodioxol-5-ylmethylcarbamoyl(propyl)amino]carbamoyl]-4-phenylmethoxy-pyrrolidin-1-yl]-3-methyl-1-oxidanylidene-butan-2-yl]amino]-3-methyl-1-oxidanylidene-pentan-2-yl]-oxidanyl-amino]-5-oxidanylidene-pentanoic acid
> <PUBCHEM_IUPAC_TRADITIONAL_NAME>
(4R)-4-[[(2S)-2-acetamido-3-carboxy-propanoyl]amino]-5-[[(1S,2S)-1-[[(1S)-1-[(2S,4R)-4-benzoxy-2-[[piperonylcarbamoyl(propyl)amino]carbamoyl]pyrrolidine-1-carbonyl]-2-methyl-propyl]carbamoyl]-2-methyl-butyl]-hydroxy-amino]-5-keto-valeric acid
> <PUBCHEM_IUPAC_INCHI>
InChI=1S/C46H64N8O15/c1-7-18-53(46(65)47-22-30-14-16-35-36(19-30)69-25-68-35)51-42(61)34-20-31(67-24-29-12-10-9-11-13-29)23-52(34)45(64)39(26(3)4)50-43(62)40(27(5)8-2)54(66)44(63)32(15-17-37(56)57)49-41(60)33(21-38(58)59)48-28(6)55/h9-14,16,19,26-27,31-34,39-40,66H,7-8,15,17-18,20-25H2,1-6H3,(H,47,65)(H,48,55)(H,49,60)(H,50,62)(H,51,61)(H,56,57)(H,58,59)/t27-,31+,32+,33-,34-,39-,40-/m0/s1
> <PUBCHEM_IUPAC_INCHIKEY>
FZZBZBUDQJSTBY-JIWJADGLSA-N
> <PUBCHEM_XLOGP3_AA>
2
> <PUBCHEM_EXACT_MASS>
968.44911336
> <PUBCHEM_MOLECULAR_FORMULA>
C46H64N8O15
> <PUBCHEM_MOLECULAR_WEIGHT>
969.0
> <PUBCHEM_OPENEYE_CAN_SMILES>
CCCN(C(=O)NCC1=CC2=C(C=C1)OCO2)NC(=O)C3CC(CN3C(=O)C(C(C)C)NC(=O)C(C(C)CC)N(C(=O)C(CCC(=O)O)NC(=O)C(CC(=O)O)NC(=O)C)O)OCC4=CC=CC=C4
> <PUBCHEM_OPENEYE_ISO_SMILES>
CCCN(C(=O)NCC1=CC2=C(C=C1)OCO2)NC(=O)[C@@H]3C[C@H](CN3C(=O)[C@H](C(C)C)NC(=O)[C@H]([C@@H](C)CC)N(C(=O)[C@@H](CCC(=O)O)NC(=O)[C@H](CC(=O)O)NC(=O)C)O)OCC4=CC=CC=C4
> <PUBCHEM_CACTVS_TPSA>
312
> <PUBCHEM_MONOISOTOPIC_WEIGHT>
968.44911336
> <PUBCHEM_TOTAL_CHARGE>
0
> <PUBCHEM_HEAVY_ATOM_COUNT>
69
> <PUBCHEM_ATOM_DEF_STEREO_COUNT>
7
> <PUBCHEM_ATOM_UDEF_STEREO_COUNT>
0
> <PUBCHEM_BOND_DEF_STEREO_COUNT>
0
> <PUBCHEM_BOND_UDEF_STEREO_COUNT>
0
> <PUBCHEM_ISOTOPIC_ATOM_COUNT>
0
> <PUBCHEM_COMPONENT_COUNT>
1
> <PUBCHEM_CACTVS_TAUTO_COUNT>
-1
> <PUBCHEM_COORDINATE_TYPE>
1
5
255
> <PUBCHEM_BONDANNOTATIONS>
25  1  6
29  17  5
32  20  6
44  21  6
57  23  6
24  30  5
37  40  5
39  46  8
39  47  8
46  50  8
47  51  8
50  54  8
51  54  8
59  61  8
59  62  8
61  64  8
62  66  8
64  67  8
66  67  8
$$$$
