500614
  -OEChem-10302200282D
131134  0     1  0  0  0  0  0999 V2000
    7.2627   -2.0208    0.0000 O   0  0  0  0  0  0  0  0  0  0  0  0
    9.2206    1.8250    0.0000 O   0  0  0  0  0  0  0  0  0  0  0  0
    7.9244    2.2436    0.0000 O   0  0  0  0  0  0  0  0  0  0  0  0
   12.0696   -0.3848    0.0000 O   0  0  0  0  0  0  0  0  0  0  0  0
   13.7918   -0.2008    0.0000 O   0  0  0  0  0  0  0  0  0  0  0  0
    4.3211    2.1180    0.0000 O   0  0  0  0  0  0  0  0  0  0  0  0
   14.3873    2.3771    0.0000 O   0  0  0  0  0  0  0  0  0  0  0  0
   17.2363    0.1673    0.0000 O   0  0  0  0  0  0  0  0  0  0  0  0
   17.4488   -1.8214    0.0000 O   0  0  0  0  0  0  0  0  0  0  0  0
   15.7266   -2.0054    0.0000 O   0  0  0  0  0  0  0  0  0  0  0  0
   18.5336    4.3286    0.0000 O   0  0  0  0  0  0  0  0  0  0  0  0
   19.5541    2.9292    0.0000 O   0  0  0  0  0  0  0  0  0  0  0  0
   18.1506   -0.2379    0.0000 O   0  0  0  0  0  0  0  0  0  0  0  0
    8.5189    0.2415    0.0000 N   0  0  0  0  0  0  0  0  0  0  0  0
   11.0491    1.0147    0.0000 N   0  0  0  0  0  0  0  0  0  0  0  0
    6.2781    1.7056    0.0000 N   0  0  0  0  0  0  0  0  0  0  0  0
    5.9674    2.6561    0.0000 N   0  0  0  0  0  0  0  0  0  0  0  0
   13.6856    0.7935    0.0000 N   0  0  0  0  0  0  0  0  0  0  0  0
    4.6783    3.8128    0.0000 N   0  0  0  0  0  0  0  0  0  0  0  0
   16.2158    1.5668    0.0000 N   0  0  0  0  0  0  0  0  0  0  0  0
   18.8523    1.3456    0.0000 N   0  0  0  0  0  0  0  0  0  0  0  0
    7.5673    0.5488    0.0000 C   0  0  1  0  0  0  0  0  0  0  0  0
    7.5701   -1.0692    0.0000 C   0  0  2  0  0  0  0  0  0  0  0  0
    6.9809   -0.2612    0.0000 C   0  0  0  0  0  0  0  0  0  0  0  0
    8.5206   -0.7585    0.0000 C   0  0  0  0  0  0  0  0  0  0  0  0
    9.3269    0.8306    0.0000 C   0  0  0  0  0  0  0  0  0  0  0  0
   10.2411    0.4255    0.0000 C   0  0  2  0  0  0  0  0  0  0  0  0
    7.2566    1.4993    0.0000 C   0  0  0  0  0  0  0  0  0  0  0  0
   10.3474   -0.5689    0.0000 C   0  0  0  0  0  0  0  0  0  0  0  0
   12.7714    1.1987    0.0000 C   0  0  2  0  0  0  0  0  0  0  0  0
    7.9331   -2.7628    0.0000 C   0  0  0  0  0  0  0  0  0  0  0  0
   11.2616   -0.9740    0.0000 C   0  0  0  0  0  0  0  0  0  0  0  0
    9.5394   -1.1580    0.0000 C   0  0  0  0  0  0  0  0  0  0  0  0
   11.9634    0.6095    0.0000 C   0  0  0  0  0  0  0  0  0  0  0  0
   12.6651    2.1930    0.0000 C   0  0  2  0  0  0  0  0  0  0  0  0
   13.4731    2.7822    0.0000 C   0  0  0  0  0  0  0  0  0  0  0  0
    7.6257   -3.7144    0.0000 C   0  0  0  0  0  0  0  0  0  0  0  0
    6.6353    3.4004    0.0000 C   0  0  0  0  0  0  0  0  0  0  0  0
   11.7509    2.5982    0.0000 C   0  0  0  0  0  0  0  0  0  0  0  0
    4.9889    2.8623    0.0000 C   0  0  0  0  0  0  0  0  0  0  0  0
   14.4936    1.3827    0.0000 C   0  0  0  0  0  0  0  0  0  0  0  0
    5.2619    4.6175    0.0000 C   0  0  0  0  0  0  0  0  0  0  0  0
   13.3669    3.7766    0.0000 C   0  0  0  0  0  0  0  0  0  0  0  0
   15.4078    0.9776    0.0000 C   0  0  1  0  0  0  0  0  0  0  0  0
    7.6138    3.1942    0.0000 C   0  0  0  0  0  0  0  0  0  0  0  0
    3.7320    4.1175    0.0000 C   0  0  0  0  0  0  0  0  0  0  0  0
    4.6783    5.4223    0.0000 C   0  0  0  0  0  0  0  0  0  0  0  0
    8.2962   -4.4564    0.0000 C   0  0  0  0  0  0  0  0  0  0  0  0
    6.6480   -3.9240    0.0000 C   0  0  0  0  0  0  0  0  0  0  0  0
    3.7320    5.1175    0.0000 C   0  0  0  0  0  0  0  0  0  0  0  0
   15.5141   -0.0168    0.0000 C   0  0  0  0  0  0  0  0  0  0  0  0
    8.2816    3.9385    0.0000 C   0  0  0  0  0  0  0  0  0  0  0  0
    2.8660    3.6176    0.0000 C   0  0  0  0  0  0  0  0  0  0  0  0
    7.9888   -5.4079    0.0000 C   0  0  0  0  0  0  0  0  0  0  0  0
    6.3406   -4.8756    0.0000 C   0  0  0  0  0  0  0  0  0  0  0  0
    2.8660    5.6175    0.0000 C   0  0  0  0  0  0  0  0  0  0  0  0
   16.4283   -0.4219    0.0000 C   0  0  0  0  0  0  0  0  0  0  0  0
    7.0110   -5.6175    0.0000 C   0  0  0  0  0  0  0  0  0  0  0  0
    2.0000    4.1175    0.0000 C   0  0  0  0  0  0  0  0  0  0  0  0
    2.0000    5.1175    0.0000 C   0  0  0  0  0  0  0  0  0  0  0  0
   17.1301    1.1616    0.0000 C   0  0  0  0  0  0  0  0  0  0  0  0
   17.9381    1.7508    0.0000 C   0  0  2  0  0  0  0  0  0  0  0  0
   16.5346   -1.4163    0.0000 C   0  0  0  0  0  0  0  0  0  0  0  0
   17.8318    2.7451    0.0000 C   0  0  0  0  0  0  0  0  0  0  0  0
   18.6398    3.3343    0.0000 C   0  0  0  0  0  0  0  0  0  0  0  0
   18.9586    0.3513    0.0000 C   0  0  0  0  0  0  0  0  0  0  0  0
   19.8728   -0.0539    0.0000 C   0  0  0  0  0  0  0  0  0  0  0  0
    8.0049    0.9880    0.0000 H   0  0  0  0  0  0  0  0  0  0  0  0
    6.9579   -1.1673    0.0000 H   0  0  0  0  0  0  0  0  0  0  0  0
    6.5194    0.1529    0.0000 H   0  0  0  0  0  0  0  0  0  0  0  0
    6.5208   -0.6769    0.0000 H   0  0  0  0  0  0  0  0  0  0  0  0
    8.6505   -1.3648    0.0000 H   0  0  0  0  0  0  0  0  0  0  0  0
    9.1371   -0.6927    0.0000 H   0  0  0  0  0  0  0  0  0  0  0  0
   10.8079    0.1743    0.0000 H   0  0  0  0  0  0  0  0  0  0  0  0
    9.7805   -0.3177    0.0000 H   0  0  0  0  0  0  0  0  0  0  0  0
   10.9832    1.6312    0.0000 H   0  0  0  0  0  0  0  0  0  0  0  0
    5.8640    1.2441    0.0000 H   0  0  0  0  0  0  0  0  0  0  0  0
   12.8372    0.5822    0.0000 H   0  0  0  0  0  0  0  0  0  0  0  0
    8.4810   -3.0529    0.0000 H   0  0  0  0  0  0  0  0  0  0  0  0
    8.3140   -2.2736    0.0000 H   0  0  0  0  0  0  0  0  0  0  0  0
   11.0104   -1.5408    0.0000 H   0  0  0  0  0  0  0  0  0  0  0  0
   11.8284   -1.2252    0.0000 H   0  0  0  0  0  0  0  0  0  0  0  0
   11.5128   -0.4072    0.0000 H   0  0  0  0  0  0  0  0  0  0  0  0
    9.1741   -0.6571    0.0000 H   0  0  0  0  0  0  0  0  0  0  0  0
    9.0384   -1.5233    0.0000 H   0  0  0  0  0  0  0  0  0  0  0  0
    9.9046   -1.6590    0.0000 H   0  0  0  0  0  0  0  0  0  0  0  0
   12.5992    2.8095    0.0000 H   0  0  0  0  0  0  0  0  0  0  0  0
   13.7459    2.2254    0.0000 H   0  0  0  0  0  0  0  0  0  0  0  0
   14.0688    2.9542    0.0000 H   0  0  0  0  0  0  0  0  0  0  0  0
   12.0020    3.1650    0.0000 H   0  0  0  0  0  0  0  0  0  0  0  0
   11.1840    2.8494    0.0000 H   0  0  0  0  0  0  0  0  0  0  0  0
   11.4997    2.0314    0.0000 H   0  0  0  0  0  0  0  0  0  0  0  0
    6.8665    3.9756    0.0000 H   0  0  0  0  0  0  0  0  0  0  0  0
    6.1089    3.7280    0.0000 H   0  0  0  0  0  0  0  0  0  0  0  0
    5.7227    4.2028    0.0000 H   0  0  0  0  0  0  0  0  0  0  0  0
    5.7227    5.0323    0.0000 H   0  0  0  0  0  0  0  0  0  0  0  0
   13.9833    3.8424    0.0000 H   0  0  0  0  0  0  0  0  0  0  0  0
   13.3010    4.3930    0.0000 H   0  0  0  0  0  0  0  0  0  0  0  0
   12.7504    3.7107    0.0000 H   0  0  0  0  0  0  0  0  0  0  0  0
   15.9747    0.7264    0.0000 H   0  0  0  0  0  0  0  0  0  0  0  0
    7.3825    2.6189    0.0000 H   0  0  0  0  0  0  0  0  0  0  0  0
    8.1402    2.8665    0.0000 H   0  0  0  0  0  0  0  0  0  0  0  0
    5.2156    5.7315    0.0000 H   0  0  0  0  0  0  0  0  0  0  0  0
    4.4272    5.9892    0.0000 H   0  0  0  0  0  0  0  0  0  0  0  0
    8.9024   -4.3264    0.0000 H   0  0  0  0  0  0  0  0  0  0  0  0
    6.2323   -3.4640    0.0000 H   0  0  0  0  0  0  0  0  0  0  0  0
   14.8955    0.0254    0.0000 H   0  0  0  0  0  0  0  0  0  0  0  0
   15.3651   -0.6186    0.0000 H   0  0  0  0  0  0  0  0  0  0  0  0
   14.3587   -0.4520    0.0000 H   0  0  0  0  0  0  0  0  0  0  0  0
    8.7431    3.5244    0.0000 H   0  0  0  0  0  0  0  0  0  0  0  0
    8.6957    4.3999    0.0000 H   0  0  0  0  0  0  0  0  0  0  0  0
    7.8202    4.3525    0.0000 H   0  0  0  0  0  0  0  0  0  0  0  0
   16.1500    2.1832    0.0000 H   0  0  0  0  0  0  0  0  0  0  0  0
    2.8660    2.9976    0.0000 H   0  0  0  0  0  0  0  0  0  0  0  0
    8.4044   -5.8680    0.0000 H   0  0  0  0  0  0  0  0  0  0  0  0
    5.7344   -5.0055    0.0000 H   0  0  0  0  0  0  0  0  0  0  0  0
    2.8660    6.2376    0.0000 H   0  0  0  0  0  0  0  0  0  0  0  0
   17.0469   -0.4641    0.0000 H   0  0  0  0  0  0  0  0  0  0  0  0
   16.5773    0.1799    0.0000 H   0  0  0  0  0  0  0  0  0  0  0  0
    6.8204   -6.2075    0.0000 H   0  0  0  0  0  0  0  0  0  0  0  0
    1.4631    3.8076    0.0000 H   0  0  0  0  0  0  0  0  0  0  0  0
    1.4631    5.4276    0.0000 H   0  0  0  0  0  0  0  0  0  0  0  0
   18.4391    2.1161    0.0000 H   0  0  0  0  0  0  0  0  0  0  0  0
   17.5591    3.3019    0.0000 H   0  0  0  0  0  0  0  0  0  0  0  0
   17.2362    2.5732    0.0000 H   0  0  0  0  0  0  0  0  0  0  0  0
   19.3533    1.7109    0.0000 H   0  0  0  0  0  0  0  0  0  0  0  0
   17.5147   -2.4379    0.0000 H   0  0  0  0  0  0  0  0  0  0  0  0
   19.6216   -0.6207    0.0000 H   0  0  0  0  0  0  0  0  0  0  0  0
   20.4397   -0.3051    0.0000 H   0  0  0  0  0  0  0  0  0  0  0  0
   20.1240    0.5130    0.0000 H   0  0  0  0  0  0  0  0  0  0  0  0
   19.0345    4.6939    0.0000 H   0  0  0  0  0  0  0  0  0  0  0  0
 23  1  1  6  0  0  0
  1 31  1  0  0  0  0
  2 26  2  0  0  0  0
  3 28  2  0  0  0  0
  4 34  2  0  0  0  0
  5 18  1  0  0  0  0
  5109  1  0  0  0  0
  6 40  2  0  0  0  0
  7 41  2  0  0  0  0
  8 61  2  0  0  0  0
  9 63  1  0  0  0  0
  9127  1  0  0  0  0
 10 63  2  0  0  0  0
 11 65  1  0  0  0  0
 11131  1  0  0  0  0
 12 65  2  0  0  0  0
 13 66  2  0  0  0  0
 14 22  1  0  0  0  0
 14 25  1  0  0  0  0
 14 26  1  0  0  0  0
 27 15  1  1  0  0  0
 15 34  1  0  0  0  0
 15 76  1  0  0  0  0
 16 17  1  0  0  0  0
 16 28  1  0  0  0  0
 16 77  1  0  0  0  0
 17 38  1  0  0  0  0
 17 40  1  0  0  0  0
 30 18  1  6  0  0  0
 18 41  1  0  0  0  0
 19 40  1  0  0  0  0
 19 42  1  0  0  0  0
 19 46  1  0  0  0  0
 44 20  1  6  0  0  0
 20 61  1  0  0  0  0
 20113  1  0  0  0  0
 62 21  1  6  0  0  0
 21 66  1  0  0  0  0
 21126  1  0  0  0  0
 22 24  1  0  0  0  0
 22 28  1  1  0  0  0
 22 68  1  0  0  0  0
 23 24  1  0  0  0  0
 23 25  1  0  0  0  0
 23 69  1  0  0  0  0
 24 70  1  0  0  0  0
 24 71  1  0  0  0  0
 25 72  1  0  0  0  0
 25 73  1  0  0  0  0
 26 27  1  0  0  0  0
 27 29  1  0  0  0  0
 27 74  1  0  0  0  0
 29 32  1  0  0  0  0
 29 33  1  0  0  0  0
 29 75  1  0  0  0  0
 30 34  1  0  0  0  0
 30 35  1  0  0  0  0
 30 78  1  0  0  0  0
 31 37  1  0  0  0  0
 31 79  1  0  0  0  0
 31 80  1  0  0  0  0
 32 81  1  0  0  0  0
 32 82  1  0  0  0  0
 32 83  1  0  0  0  0
 33 84  1  0  0  0  0
 33 85  1  0  0  0  0
 33 86  1  0  0  0  0
 35 36  1  0  0  0  0
 35 39  1  1  0  0  0
 35 87  1  0  0  0  0
 36 43  1  0  0  0  0
 36 88  1  0  0  0  0
 36 89  1  0  0  0  0
 37 48  2  0  0  0  0
 37 49  1  0  0  0  0
 38 45  1  0  0  0  0
 38 93  1  0  0  0  0
 38 94  1  0  0  0  0
 39 90  1  0  0  0  0
 39 91  1  0  0  0  0
 39 92  1  0  0  0  0
 41 44  1  0  0  0  0
 42 47  1  0  0  0  0
 42 95  1  0  0  0  0
 42 96  1  0  0  0  0
 43 97  1  0  0  0  0
 43 98  1  0  0  0  0
 43 99  1  0  0  0  0
 44 51  1  0  0  0  0
 44100  1  0  0  0  0
 45 52  1  0  0  0  0
 45101  1  0  0  0  0
 45102  1  0  0  0  0
 46 50  1  0  0  0  0
 46 53  2  0  0  0  0
 47 50  1  0  0  0  0
 47103  1  0  0  0  0
 47104  1  0  0  0  0
 48 54  1  0  0  0  0
 48105  1  0  0  0  0
 49 55  2  0  0  0  0
 49106  1  0  0  0  0
 50 56  2  0  0  0  0
 51 57  1  0  0  0  0
 51107  1  0  0  0  0
 51108  1  0  0  0  0
 52110  1  0  0  0  0
 52111  1  0  0  0  0
 52112  1  0  0  0  0
 53 59  1  0  0  0  0
 53114  1  0  0  0  0
 54 58  2  0  0  0  0
 54115  1  0  0  0  0
 55 58  1  0  0  0  0
 55116  1  0  0  0  0
 56 60  1  0  0  0  0
 56117  1  0  0  0  0
 57 63  1  0  0  0  0
 57118  1  0  0  0  0
 57119  1  0  0  0  0
 58120  1  0  0  0  0
 59 60  2  0  0  0  0
 59121  1  0  0  0  0
 60122  1  0  0  0  0
 61 62  1  0  0  0  0
 62 64  1  0  0  0  0
 62123  1  0  0  0  0
 64 65  1  0  0  0  0
 64124  1  0  0  0  0
 64125  1  0  0  0  0
 66 67  1  0  0  0  0
 67128  1  0  0  0  0
 67129  1  0  0  0  0
 67130  1  0  0  0  0
M  END
> <PUBCHEM_COMPOUND_CID>
500614
> <PUBCHEM_COMPOUND_CANONICALIZED>
1
> <PUBCHEM_CACTVS_COMPLEXITY>
1760
> <PUBCHEM_CACTVS_HBOND_ACCEPTOR>
13
> <PUBCHEM_CACTVS_HBOND_DONOR>
7
> <PUBCHEM_CACTVS_ROTATABLE_BOND>
22
> <PUBCHEM_CACTVS_SUBSKEYS>
AAADcfB//AAAAAAAAAAAAAAAAAAAAWLAAAAwYAAAAAAAAFgBQAAAHgAcCAAADTzhmAYzyIPyBgCIAiXSWACCAAAhAgA+qIGIbIiKZjrAsbmXcAhu1gPY6Ce/16IOAAAAAAACAAAAAAAAAAQAAAAAAAAAAA==
> <PUBCHEM_IUPAC_OPENEYE_NAME>
(4R)-4-[[(2S)-2-acetamido-3-carboxy-propanoyl]amino]-5-[[(1S,2S)-1-[[(1S)-1-[(2S,4R)-4-benzyloxy-2-[[indoline-1-carbonyl(propyl)amino]carbamoyl]pyrrolidine-1-carbonyl]-2-methyl-propyl]carbamoyl]-2-methyl-butyl]-hydroxy-amino]-5-oxo-pentanoic acid
> <PUBCHEM_IUPAC_CAS_NAME>
(4R)-4-[[(2S)-2-acetamido-3-carboxy-1-oxopropyl]amino]-5-[[(2S,3S)-1-[[(2S)-1-[(2S,4R)-2-[[2-[2,3-dihydroindol-1-yl(oxo)methyl]-2-propylhydrazinyl]-oxomethyl]-4-phenylmethoxy-1-pyrrolidinyl]-3-methyl-1-oxobutan-2-yl]amino]-3-methyl-1-oxopentan-2-yl]-hydroxyamino]-5-oxopentanoic acid
> <PUBCHEM_IUPAC_NAME_MARKUP>
(4<I>R</I>)-4-[[(2<I>S</I>)-2-acetamido-3-carboxypropanoyl]amino]-5-[[(2<I>S</I>,3<I>S</I>)-1-[[(2<I>S</I>)-1-[(2<I>S</I>,4<I>R</I>)-2-[[2,3-dihydroindole-1-carbonyl(propyl)amino]carbamoyl]-4-phenylmethoxypyrrolidin-1-yl]-3-methyl-1-oxobutan-2-yl]amino]-3-methyl-1-oxopentan-2-yl]-hydroxyamino]-5-oxopentanoic acid
> <PUBCHEM_IUPAC_NAME>
(4R)-4-[[(2S)-2-acetamido-3-carboxypropanoyl]amino]-5-[[(2S,3S)-1-[[(2S)-1-[(2S,4R)-2-[[2,3-dihydroindole-1-carbonyl(propyl)amino]carbamoyl]-4-phenylmethoxypyrrolidin-1-yl]-3-methyl-1-oxobutan-2-yl]amino]-3-methyl-1-oxopentan-2-yl]-hydroxyamino]-5-oxopentanoic acid
> <PUBCHEM_IUPAC_SYSTEMATIC_NAME>
(4R)-4-[[(2S)-2-acetamido-4-oxidanyl-4-oxidanylidene-butanoyl]amino]-5-[[(2S,3S)-1-[[(2S)-1-[(2S,4R)-2-[[2,3-dihydroindol-1-ylcarbonyl(propyl)amino]carbamoyl]-4-phenylmethoxy-pyrrolidin-1-yl]-3-methyl-1-oxidanylidene-butan-2-yl]amino]-3-methyl-1-oxidanylidene-pentan-2-yl]-oxidanyl-amino]-5-oxidanylidene-pentanoic acid
> <PUBCHEM_IUPAC_TRADITIONAL_NAME>
(4R)-4-[[(2S)-2-acetamido-3-carboxy-propanoyl]amino]-5-[[(1S,2S)-1-[[(1S)-1-[(2S,4R)-4-benzoxy-2-[[indoline-1-carbonyl(propyl)amino]carbamoyl]pyrrolidine-1-carbonyl]-2-methyl-propyl]carbamoyl]-2-methyl-butyl]-hydroxy-amino]-5-keto-valeric acid
> <PUBCHEM_IUPAC_INCHI>
InChI=1S/C46H64N8O13/c1-7-21-53(46(65)51-22-20-31-16-12-13-17-35(31)51)50-42(61)36-23-32(67-26-30-14-10-9-11-15-30)25-52(36)45(64)39(27(3)4)49-43(62)40(28(5)8-2)54(66)44(63)33(18-19-37(56)57)48-41(60)34(24-38(58)59)47-29(6)55/h9-17,27-28,32-34,36,39-40,66H,7-8,18-26H2,1-6H3,(H,47,55)(H,48,60)(H,49,62)(H,50,61)(H,56,57)(H,58,59)/t28-,32+,33+,34-,36-,39-,40-/m0/s1
> <PUBCHEM_IUPAC_INCHIKEY>
FMISWZMJHORTIH-IRBJYVHQSA-N
> <PUBCHEM_XLOGP3_AA>
2.4
> <PUBCHEM_EXACT_MASS>
936.45928413
> <PUBCHEM_MOLECULAR_FORMULA>
C46H64N8O13
> <PUBCHEM_MOLECULAR_WEIGHT>
937.0
> <PUBCHEM_OPENEYE_CAN_SMILES>
CCCN(C(=O)N1CCC2=CC=CC=C21)NC(=O)C3CC(CN3C(=O)C(C(C)C)NC(=O)C(C(C)CC)N(C(=O)C(CCC(=O)O)NC(=O)C(CC(=O)O)NC(=O)C)O)OCC4=CC=CC=C4
> <PUBCHEM_OPENEYE_ISO_SMILES>
CCCN(C(=O)N1CCC2=CC=CC=C21)NC(=O)[C@@H]3C[C@H](CN3C(=O)[C@H](C(C)C)NC(=O)[C@H]([C@@H](C)CC)N(C(=O)[C@@H](CCC(=O)O)NC(=O)[C@H](CC(=O)O)NC(=O)C)O)OCC4=CC=CC=C4
> <PUBCHEM_CACTVS_TPSA>
285
> <PUBCHEM_MONOISOTOPIC_WEIGHT>
936.45928413
> <PUBCHEM_TOTAL_CHARGE>
0
> <PUBCHEM_HEAVY_ATOM_COUNT>
67
> <PUBCHEM_ATOM_DEF_STEREO_COUNT>
7
> <PUBCHEM_ATOM_UDEF_STEREO_COUNT>
0
> <PUBCHEM_BOND_DEF_STEREO_COUNT>
0
> <PUBCHEM_BOND_UDEF_STEREO_COUNT>
0
> <PUBCHEM_ISOTOPIC_ATOM_COUNT>
0
> <PUBCHEM_COMPONENT_COUNT>
1
> <PUBCHEM_CACTVS_TAUTO_COUNT>
-1
> <PUBCHEM_COORDINATE_TYPE>
1
5
255
> <PUBCHEM_BONDANNOTATIONS>
23  1  6
27  15  5
30  18  6
44  20  6
62  21  6
22  28  5
35  39  5
37  48  8
37  49  8
46  50  8
46  53  8
48  54  8
49  55  8
50  56  8
53  59  8
54  58  8
55  58  8
56  60  8
59  60  8
$$$$
