500688
  -OEChem-10302200282D
 93 97  0     1  0  0  0  0  0999 V2000
    9.9737    4.8817    0.0000 O   0  0  0  0  0  0  0  0  0  0  0  0
   10.1548    3.1592    0.0000 O   0  0  0  0  0  0  0  0  0  0  0  0
    6.3981   -0.4749    0.0000 O   0  0  0  0  0  0  0  0  0  0  0  0
    9.7480    2.2456    0.0000 O   0  0  0  0  0  0  0  0  0  0  0  0
   10.4291    1.0660    0.0000 O   0  0  0  0  0  0  0  0  0  0  0  0
   12.6438   -1.7792    0.0000 O   0  0  0  0  0  0  0  0  0  0  0  0
   11.0615   -2.4836    0.0000 O   0  0  0  0  0  0  0  0  0  0  0  0
    2.8680   -3.4990    0.0000 O   0  0  0  0  0  0  0  0  0  0  0  0
    8.1657    2.9501    0.0000 N   0  0  0  0  0  0  0  0  0  0  0  0
    8.8468    0.3615    0.0000 N   0  0  0  0  0  0  0  0  0  0  0  0
   11.2426   -0.7611    0.0000 N   0  0  0  0  0  0  0  0  0  0  0  0
    6.3981   -3.4749    0.0000 N   0  0  0  0  0  0  0  0  0  0  0  0
    8.5725    3.8637    0.0000 C   0  0  3  0  0  0  0  0  0  0  0  0
    7.6589    4.2704    0.0000 C   0  0  2  0  0  0  0  0  0  0  0  0
    8.4679    4.8582    0.0000 C   0  0  0  0  0  0  0  0  0  0  0  0
    9.5670    3.9682    0.0000 C   0  0  0  0  0  0  0  0  0  0  0  0
    6.6644    4.1659    0.0000 C   0  0  0  0  0  0  0  0  0  0  0  0
    8.3468    1.2276    0.0000 C   0  0  2  0  0  0  0  0  0  0  0  0
    8.7535    2.1411    0.0000 C   0  0  0  0  0  0  0  0  0  0  0  0
    7.3686    1.0196    0.0000 C   0  0  0  0  0  0  0  0  0  0  0  0
    7.2641    0.0251    0.0000 C   0  0  2  0  0  0  0  0  0  0  0  0
    8.1776   -0.3816    0.0000 C   0  0  0  0  0  0  0  0  0  0  0  0
    6.0766    4.9749    0.0000 C   0  0  0  0  0  0  0  0  0  0  0  0
    9.8413    0.2570    0.0000 C   0  0  0  0  0  0  0  0  0  0  0  0
   10.2480   -0.6565    0.0000 C   0  0  2  0  0  0  0  0  0  0  0  0
    9.6602   -1.4656    0.0000 C   0  0  0  0  0  0  0  0  0  0  0  0
    6.3981   -1.4749    0.0000 C   0  0  0  0  0  0  0  0  0  0  0  0
   10.0670   -2.3791    0.0000 C   0  0  0  0  0  0  0  0  0  0  0  0
    8.6657   -1.3610    0.0000 C   0  0  0  0  0  0  0  0  0  0  0  0
    5.5320   -1.9749    0.0000 C   0  0  0  0  0  0  0  0  0  0  0  0
    7.2641   -1.9749    0.0000 C   0  0  0  0  0  0  0  0  0  0  0  0
   11.6493   -1.6746    0.0000 C   0  0  0  0  0  0  0  0  0  0  0  0
    5.5320   -2.9749    0.0000 C   0  0  0  0  0  0  0  0  0  0  0  0
    7.2641   -2.9749    0.0000 C   0  0  0  0  0  0  0  0  0  0  0  0
    4.6381   -1.4402    0.0000 C   0  0  0  0  0  0  0  0  0  0  0  0
   13.0505   -2.6927    0.0000 C   0  0  0  0  0  0  0  0  0  0  0  0
    4.6381   -3.5095    0.0000 C   0  0  0  0  0  0  0  0  0  0  0  0
    3.7320   -1.9541    0.0000 C   0  0  0  0  0  0  0  0  0  0  0  0
    8.1301   -3.4749    0.0000 C   0  0  0  0  0  0  0  0  0  0  0  0
    3.7320   -2.9957    0.0000 C   0  0  0  0  0  0  0  0  0  0  0  0
   13.4573   -3.6062    0.0000 C   0  0  0  0  0  0  0  0  0  0  0  0
   13.9641   -2.2860    0.0000 C   0  0  0  0  0  0  0  0  0  0  0  0
   12.1370   -3.0994    0.0000 C   0  0  0  0  0  0  0  0  0  0  0  0
    8.9962   -2.9749    0.0000 C   0  0  0  0  0  0  0  0  0  0  0  0
    8.1301   -4.4749    0.0000 C   0  0  0  0  0  0  0  0  0  0  0  0
    9.8622   -3.4749    0.0000 C   0  0  0  0  0  0  0  0  0  0  0  0
    8.9962   -4.9749    0.0000 C   0  0  0  0  0  0  0  0  0  0  0  0
    9.8622   -4.4749    0.0000 C   0  0  0  0  0  0  0  0  0  0  0  0
    2.0000   -3.0024    0.0000 C   0  0  0  0  0  0  0  0  0  0  0  0
    7.4367    4.8492    0.0000 H   0  0  0  0  0  0  0  0  0  0  0  0
    9.0639    5.0291    0.0000 H   0  0  0  0  0  0  0  0  0  0  0  0
    8.1961    5.4154    0.0000 H   0  0  0  0  0  0  0  0  0  0  0  0
    7.5491    2.8853    0.0000 H   0  0  0  0  0  0  0  0  0  0  0  0
    6.4122    3.5995    0.0000 H   0  0  0  0  0  0  0  0  0  0  0  0
    8.9659    1.2600    0.0000 H   0  0  0  0  0  0  0  0  0  0  0  0
    7.3038    1.6362    0.0000 H   0  0  0  0  0  0  0  0  0  0  0  0
    6.7486    1.0196    0.0000 H   0  0  0  0  0  0  0  0  0  0  0  0
    6.7441    0.3628    0.0000 H   0  0  0  0  0  0  0  0  0  0  0  0
    7.8676   -0.9186    0.0000 H   0  0  0  0  0  0  0  0  0  0  0  0
    8.6792   -0.7460    0.0000 H   0  0  0  0  0  0  0  0  0  0  0  0
    6.3288    5.5413    0.0000 H   0  0  0  0  0  0  0  0  0  0  0  0
    5.4600    4.9101    0.0000 H   0  0  0  0  0  0  0  0  0  0  0  0
   10.5903    4.9465    0.0000 H   0  0  0  0  0  0  0  0  0  0  0  0
   10.6125   -0.1550    0.0000 H   0  0  0  0  0  0  0  0  0  0  0  0
    9.4081   -0.8992    0.0000 H   0  0  0  0  0  0  0  0  0  0  0  0
   11.6070   -0.2595    0.0000 H   0  0  0  0  0  0  0  0  0  0  0  0
    9.5006   -2.6313    0.0000 H   0  0  0  0  0  0  0  0  0  0  0  0
   10.3192   -2.9455    0.0000 H   0  0  0  0  0  0  0  0  0  0  0  0
   10.6334   -2.1269    0.0000 H   0  0  0  0  0  0  0  0  0  0  0  0
    8.7305   -0.7444    0.0000 H   0  0  0  0  0  0  0  0  0  0  0  0
    8.0491   -1.2962    0.0000 H   0  0  0  0  0  0  0  0  0  0  0  0
    8.6009   -1.9776    0.0000 H   0  0  0  0  0  0  0  0  0  0  0  0
    7.8010   -1.6649    0.0000 H   0  0  0  0  0  0  0  0  0  0  0  0
    4.6453   -0.8203    0.0000 H   0  0  0  0  0  0  0  0  0  0  0  0
    4.6453   -4.1295    0.0000 H   0  0  0  0  0  0  0  0  0  0  0  0
    3.1963   -1.6420    0.0000 H   0  0  0  0  0  0  0  0  0  0  0  0
   12.8909   -3.8584    0.0000 H   0  0  0  0  0  0  0  0  0  0  0  0
   13.7095   -4.1726    0.0000 H   0  0  0  0  0  0  0  0  0  0  0  0
   14.0237   -3.3541    0.0000 H   0  0  0  0  0  0  0  0  0  0  0  0
   14.2163   -2.8524    0.0000 H   0  0  0  0  0  0  0  0  0  0  0  0
   14.5305   -2.0338    0.0000 H   0  0  0  0  0  0  0  0  0  0  0  0
   13.7119   -1.7196    0.0000 H   0  0  0  0  0  0  0  0  0  0  0  0
   11.8848   -2.5330    0.0000 H   0  0  0  0  0  0  0  0  0  0  0  0
   11.5706   -3.3516    0.0000 H   0  0  0  0  0  0  0  0  0  0  0  0
   12.3892   -3.6658    0.0000 H   0  0  0  0  0  0  0  0  0  0  0  0
    8.9962   -2.3549    0.0000 H   0  0  0  0  0  0  0  0  0  0  0  0
    7.5932   -4.7849    0.0000 H   0  0  0  0  0  0  0  0  0  0  0  0
   10.3991   -3.1649    0.0000 H   0  0  0  0  0  0  0  0  0  0  0  0
    8.9962   -5.5949    0.0000 H   0  0  0  0  0  0  0  0  0  0  0  0
   10.3991   -4.7849    0.0000 H   0  0  0  0  0  0  0  0  0  0  0  0
    2.3079   -2.4642    0.0000 H   0  0  0  0  0  0  0  0  0  0  0  0
    1.4619   -2.6944    0.0000 H   0  0  0  0  0  0  0  0  0  0  0  0
    1.6921   -3.5405    0.0000 H   0  0  0  0  0  0  0  0  0  0  0  0
  1 16  1  0  0  0  0
  1 63  1  0  0  0  0
  2 16  2  0  0  0  0
 21  3  1  6  0  0  0
  3 27  1  0  0  0  0
  4 19  2  0  0  0  0
  5 24  2  0  0  0  0
  6 32  1  0  0  0  0
  6 36  1  0  0  0  0
  7 32  2  0  0  0  0
  8 40  1  0  0  0  0
  8 49  1  0  0  0  0
  9 13  1  0  0  0  0
  9 19  1  0  0  0  0
  9 53  1  0  0  0  0
 10 18  1  0  0  0  0
 10 22  1  0  0  0  0
 10 24  1  0  0  0  0
 25 11  1  1  0  0  0
 11 32  1  0  0  0  0
 11 66  1  0  0  0  0
 12 33  1  0  0  0  0
 12 34  2  0  0  0  0
 13 14  1  0  0  0  0
 13 15  1  0  0  0  0
 13 16  1  0  0  0  0
 14 15  1  0  0  0  0
 14 17  1  1  0  0  0
 14 50  1  0  0  0  0
 15 51  1  0  0  0  0
 15 52  1  0  0  0  0
 17 23  2  0  0  0  0
 17 54  1  0  0  0  0
 18 19  1  1  0  0  0
 18 20  1  0  0  0  0
 18 55  1  0  0  0  0
 20 21  1  0  0  0  0
 20 56  1  0  0  0  0
 20 57  1  0  0  0  0
 21 22  1  0  0  0  0
 21 58  1  0  0  0  0
 22 59  1  0  0  0  0
 22 60  1  0  0  0  0
 23 61  1  0  0  0  0
 23 62  1  0  0  0  0
 24 25  1  0  0  0  0
 25 26  1  0  0  0  0
 25 64  1  0  0  0  0
 26 28  1  0  0  0  0
 26 29  1  0  0  0  0
 26 65  1  0  0  0  0
 27 30  1  0  0  0  0
 27 31  2  0  0  0  0
 28 67  1  0  0  0  0
 28 68  1  0  0  0  0
 28 69  1  0  0  0  0
 29 70  1  0  0  0  0
 29 71  1  0  0  0  0
 29 72  1  0  0  0  0
 30 33  2  0  0  0  0
 30 35  1  0  0  0  0
 31 34  1  0  0  0  0
 31 73  1  0  0  0  0
 33 37  1  0  0  0  0
 34 39  1  0  0  0  0
 35 38  2  0  0  0  0
 35 74  1  0  0  0  0
 36 41  1  0  0  0  0
 36 42  1  0  0  0  0
 36 43  1  0  0  0  0
 37 40  2  0  0  0  0
 37 75  1  0  0  0  0
 38 40  1  0  0  0  0
 38 76  1  0  0  0  0
 39 44  2  0  0  0  0
 39 45  1  0  0  0  0
 41 77  1  0  0  0  0
 41 78  1  0  0  0  0
 41 79  1  0  0  0  0
 42 80  1  0  0  0  0
 42 81  1  0  0  0  0
 42 82  1  0  0  0  0
 43 83  1  0  0  0  0
 43 84  1  0  0  0  0
 43 85  1  0  0  0  0
 44 46  1  0  0  0  0
 44 86  1  0  0  0  0
 45 47  2  0  0  0  0
 45 87  1  0  0  0  0
 46 48  2  0  0  0  0
 46 88  1  0  0  0  0
 47 48  1  0  0  0  0
 47 89  1  0  0  0  0
 48 90  1  0  0  0  0
 49 91  1  0  0  0  0
 49 92  1  0  0  0  0
 49 93  1  0  0  0  0
M  END
> <PUBCHEM_COMPOUND_CID>
500688
> <PUBCHEM_COMPOUND_CANONICALIZED>
1
> <PUBCHEM_CACTVS_COMPLEXITY>
1230
> <PUBCHEM_CACTVS_HBOND_ACCEPTOR>
9
> <PUBCHEM_CACTVS_HBOND_DONOR>
3
> <PUBCHEM_CACTVS_ROTATABLE_BOND>
13
> <PUBCHEM_CACTVS_SUBSKEYS>
AAADcfB/vAAAAAAAAAAAAAAAGAAAAWAAAAA8YIAAAAAAAACx9AAAHgAQCAAADfzhngYyzvPIFgCoAyXyXACCiCAhIiAImKG+bJkOZvLEsbufeCjm1hnY6Ae68e8OIAAAAgACAABAAAAEAAQAAAAAAAAAAA==
> <PUBCHEM_IUPAC_OPENEYE_NAME>
(2R)-1-[[(2S,4R)-1-[(2S)-2-(tert-butoxycarbonylamino)-3-methyl-butanoyl]-4-[(7-methoxy-2-phenyl-4-quinolyl)oxy]pyrrolidine-2-carbonyl]amino]-2-vinyl-cyclopropanecarboxylic acid
> <PUBCHEM_IUPAC_CAS_NAME>
(2R)-2-ethenyl-1-[[[(2S,4R)-4-[(7-methoxy-2-phenyl-4-quinolinyl)oxy]-1-[(2S)-3-methyl-2-[[(2-methylpropan-2-yl)oxy-oxomethyl]amino]-1-oxobutyl]-2-pyrrolidinyl]-oxomethyl]amino]-1-cyclopropanecarboxylic acid
> <PUBCHEM_IUPAC_NAME_MARKUP>
(2<I>R</I>)-2-ethenyl-1-[[(2<I>S</I>,4<I>R</I>)-4-(7-methoxy-2-phenylquinolin-4-yl)oxy-1-[(2<I>S</I>)-3-methyl-2-[(2-methylpropan-2-yl)oxycarbonylamino]butanoyl]pyrrolidine-2-carbonyl]amino]cyclopropane-1-carboxylic acid
> <PUBCHEM_IUPAC_NAME>
(2R)-2-ethenyl-1-[[(2S,4R)-4-(7-methoxy-2-phenylquinolin-4-yl)oxy-1-[(2S)-3-methyl-2-[(2-methylpropan-2-yl)oxycarbonylamino]butanoyl]pyrrolidine-2-carbonyl]amino]cyclopropane-1-carboxylic acid
> <PUBCHEM_IUPAC_SYSTEMATIC_NAME>
(2R)-2-ethenyl-1-[[(2S,4R)-4-(7-methoxy-2-phenyl-quinolin-4-yl)oxy-1-[(2S)-3-methyl-2-[(2-methylpropan-2-yl)oxycarbonylamino]butanoyl]pyrrolidin-2-yl]carbonylamino]cyclopropane-1-carboxylic acid
> <PUBCHEM_IUPAC_TRADITIONAL_NAME>
(2R)-1-[[(2S,4R)-1-[(2S)-2-(tert-butoxycarbonylamino)-3-methyl-butanoyl]-4-[(7-methoxy-2-phenyl-4-quinolyl)oxy]prolyl]amino]-2-vinyl-cyclopropanecarboxylic acid
> <PUBCHEM_IUPAC_INCHI>
InChI=1S/C37H44N4O8/c1-8-23-19-37(23,34(44)45)40-32(42)29-17-25(20-41(29)33(43)31(21(2)3)39-35(46)49-36(4,5)6)48-30-18-27(22-12-10-9-11-13-22)38-28-16-24(47-7)14-15-26(28)30/h8-16,18,21,23,25,29,31H,1,17,19-20H2,2-7H3,(H,39,46)(H,40,42)(H,44,45)/t23-,25+,29-,31-,37?/m0/s1
> <PUBCHEM_IUPAC_INCHIKEY>
LWIRHLBCIJVXPB-PVZNPYDNSA-N
> <PUBCHEM_XLOGP3_AA>
5.4
> <PUBCHEM_EXACT_MASS>
672.31591437
> <PUBCHEM_MOLECULAR_FORMULA>
C37H44N4O8
> <PUBCHEM_MOLECULAR_WEIGHT>
672.8
> <PUBCHEM_OPENEYE_CAN_SMILES>
CC(C)C(C(=O)N1CC(CC1C(=O)NC2(CC2C=C)C(=O)O)OC3=CC(=NC4=C3C=CC(=C4)OC)C5=CC=CC=C5)NC(=O)OC(C)(C)C
> <PUBCHEM_OPENEYE_ISO_SMILES>
CC(C)[C@@H](C(=O)N1C[C@@H](C[C@H]1C(=O)NC2(C[C@@H]2C=C)C(=O)O)OC3=CC(=NC4=C3C=CC(=C4)OC)C5=CC=CC=C5)NC(=O)OC(C)(C)C
> <PUBCHEM_CACTVS_TPSA>
156
> <PUBCHEM_MONOISOTOPIC_WEIGHT>
672.31591437
> <PUBCHEM_TOTAL_CHARGE>
0
> <PUBCHEM_HEAVY_ATOM_COUNT>
49
> <PUBCHEM_ATOM_DEF_STEREO_COUNT>
4
> <PUBCHEM_ATOM_UDEF_STEREO_COUNT>
1
> <PUBCHEM_BOND_DEF_STEREO_COUNT>
0
> <PUBCHEM_BOND_UDEF_STEREO_COUNT>
0
> <PUBCHEM_ISOTOPIC_ATOM_COUNT>
0
> <PUBCHEM_COMPONENT_COUNT>
1
> <PUBCHEM_CACTVS_TAUTO_COUNT>
-1
> <PUBCHEM_COORDINATE_TYPE>
1
5
255
> <PUBCHEM_BONDANNOTATIONS>
25  11  5
12  33  8
12  34  8
13  16  3
14  17  5
18  19  5
27  30  8
27  31  8
21  3  6
30  33  8
30  35  8
31  34  8
33  37  8
35  38  8
37  40  8
38  40  8
39  44  8
39  45  8
44  46  8
45  47  8
46  48  8
47  48  8
$$$$
