500695
  -OEChem-10302200282D
 82 85  0     1  0  0  0  0  0999 V2000
    2.0000   -4.2317    0.0000 Cl  0  0  0  0  0  0  0  0  0  0  0  0
    9.1058    4.1491    0.0000 O   0  0  0  0  0  0  0  0  0  0  0  0
    9.2868    2.4265    0.0000 O   0  0  0  0  0  0  0  0  0  0  0  0
    5.5301   -1.2075    0.0000 O   0  0  0  0  0  0  0  0  0  0  0  0
    8.8801    1.5130    0.0000 O   0  0  0  0  0  0  0  0  0  0  0  0
    9.5611    0.3333    0.0000 O   0  0  0  0  0  0  0  0  0  0  0  0
   11.9569   -0.7893    0.0000 O   0  0  0  0  0  0  0  0  0  0  0  0
   10.5557    0.2288    0.0000 O   0  0  0  0  0  0  0  0  0  0  0  0
    7.2978    2.2174    0.0000 N   0  0  0  0  0  0  0  0  0  0  0  0
    7.9788   -0.3711    0.0000 N   0  0  0  0  0  0  0  0  0  0  0  0
   10.3746   -1.4938    0.0000 N   0  0  0  0  0  0  0  0  0  0  0  0
    5.5301   -4.2076    0.0000 N   0  0  0  0  0  0  0  0  0  0  0  0
    7.7045    3.1310    0.0000 C   0  0  3  0  0  0  0  0  0  0  0  0
    6.7910    3.5377    0.0000 C   0  0  2  0  0  0  0  0  0  0  0  0
    7.6000    4.1255    0.0000 C   0  0  0  0  0  0  0  0  0  0  0  0
    8.6990    3.2355    0.0000 C   0  0  0  0  0  0  0  0  0  0  0  0
    5.7964    3.4332    0.0000 C   0  0  0  0  0  0  0  0  0  0  0  0
    7.4788    0.4949    0.0000 C   0  0  2  0  0  0  0  0  0  0  0  0
    7.8856    1.4084    0.0000 C   0  0  0  0  0  0  0  0  0  0  0  0
    6.5007    0.2870    0.0000 C   0  0  0  0  0  0  0  0  0  0  0  0
    6.3961   -0.7076    0.0000 C   0  0  2  0  0  0  0  0  0  0  0  0
    7.3097   -1.1143    0.0000 C   0  0  0  0  0  0  0  0  0  0  0  0
    5.2087    4.2422    0.0000 C   0  0  0  0  0  0  0  0  0  0  0  0
    8.9734   -0.4757    0.0000 C   0  0  0  0  0  0  0  0  0  0  0  0
    9.3801   -1.3892    0.0000 C   0  0  2  0  0  0  0  0  0  0  0  0
    8.7923   -2.1982    0.0000 C   0  0  0  0  0  0  0  0  0  0  0  0
    9.1990   -3.1118    0.0000 C   0  0  0  0  0  0  0  0  0  0  0  0
    5.5301   -2.2076    0.0000 C   0  0  0  0  0  0  0  0  0  0  0  0
    8.6112   -3.9208    0.0000 C   0  0  0  0  0  0  0  0  0  0  0  0
   10.1936   -3.2163    0.0000 C   0  0  0  0  0  0  0  0  0  0  0  0
    4.6641   -2.7076    0.0000 C   0  0  0  0  0  0  0  0  0  0  0  0
    6.3961   -2.7076    0.0000 C   0  0  0  0  0  0  0  0  0  0  0  0
   10.9624   -0.6847    0.0000 C   0  0  0  0  0  0  0  0  0  0  0  0
    4.6641   -3.7076    0.0000 C   0  0  0  0  0  0  0  0  0  0  0  0
    3.7702   -2.1729    0.0000 C   0  0  0  0  0  0  0  0  0  0  0  0
    6.3961   -3.7076    0.0000 C   0  0  0  0  0  0  0  0  0  0  0  0
   12.5447    0.0198    0.0000 C   0  0  0  0  0  0  0  0  0  0  0  0
    3.7702   -4.2422    0.0000 C   0  0  0  0  0  0  0  0  0  0  0  0
    2.8641   -2.6867    0.0000 C   0  0  0  0  0  0  0  0  0  0  0  0
    2.8641   -3.7284    0.0000 C   0  0  0  0  0  0  0  0  0  0  0  0
   13.1325    0.8288    0.0000 C   0  0  0  0  0  0  0  0  0  0  0  0
   13.3537   -0.5680    0.0000 C   0  0  0  0  0  0  0  0  0  0  0  0
   11.7357    0.6075    0.0000 C   0  0  0  0  0  0  0  0  0  0  0  0
    6.5688    4.1166    0.0000 H   0  0  0  0  0  0  0  0  0  0  0  0
    8.1960    4.2964    0.0000 H   0  0  0  0  0  0  0  0  0  0  0  0
    7.3282    4.6828    0.0000 H   0  0  0  0  0  0  0  0  0  0  0  0
    6.6812    2.1526    0.0000 H   0  0  0  0  0  0  0  0  0  0  0  0
    5.5443    2.8668    0.0000 H   0  0  0  0  0  0  0  0  0  0  0  0
    8.0980    0.5273    0.0000 H   0  0  0  0  0  0  0  0  0  0  0  0
    6.4359    0.9036    0.0000 H   0  0  0  0  0  0  0  0  0  0  0  0
    5.8807    0.2870    0.0000 H   0  0  0  0  0  0  0  0  0  0  0  0
    5.8762   -0.3699    0.0000 H   0  0  0  0  0  0  0  0  0  0  0  0
    6.9997   -1.6512    0.0000 H   0  0  0  0  0  0  0  0  0  0  0  0
    7.8113   -1.4787    0.0000 H   0  0  0  0  0  0  0  0  0  0  0  0
    5.4608    4.8086    0.0000 H   0  0  0  0  0  0  0  0  0  0  0  0
    4.5921    4.1774    0.0000 H   0  0  0  0  0  0  0  0  0  0  0  0
    9.7224    4.2139    0.0000 H   0  0  0  0  0  0  0  0  0  0  0  0
    9.6323   -1.9556    0.0000 H   0  0  0  0  0  0  0  0  0  0  0  0
    8.3616   -1.7522    0.0000 H   0  0  0  0  0  0  0  0  0  0  0  0
    8.2783   -2.5449    0.0000 H   0  0  0  0  0  0  0  0  0  0  0  0
    9.5635   -2.6102    0.0000 H   0  0  0  0  0  0  0  0  0  0  0  0
   10.6268   -2.0602    0.0000 H   0  0  0  0  0  0  0  0  0  0  0  0
    8.1097   -3.5564    0.0000 H   0  0  0  0  0  0  0  0  0  0  0  0
    8.2468   -4.4224    0.0000 H   0  0  0  0  0  0  0  0  0  0  0  0
    9.1128   -4.2852    0.0000 H   0  0  0  0  0  0  0  0  0  0  0  0
   10.1288   -3.8329    0.0000 H   0  0  0  0  0  0  0  0  0  0  0  0
   10.8102   -3.2811    0.0000 H   0  0  0  0  0  0  0  0  0  0  0  0
   10.2584   -2.5997    0.0000 H   0  0  0  0  0  0  0  0  0  0  0  0
    6.9331   -2.3976    0.0000 H   0  0  0  0  0  0  0  0  0  0  0  0
    3.7773   -1.5529    0.0000 H   0  0  0  0  0  0  0  0  0  0  0  0
    6.9331   -4.0176    0.0000 H   0  0  0  0  0  0  0  0  0  0  0  0
    3.7773   -4.8622    0.0000 H   0  0  0  0  0  0  0  0  0  0  0  0
    2.3284   -2.3747    0.0000 H   0  0  0  0  0  0  0  0  0  0  0  0
   13.6341    0.4643    0.0000 H   0  0  0  0  0  0  0  0  0  0  0  0
   13.4969    1.3304    0.0000 H   0  0  0  0  0  0  0  0  0  0  0  0
   12.6309    1.1932    0.0000 H   0  0  0  0  0  0  0  0  0  0  0  0
   12.9893   -1.0696    0.0000 H   0  0  0  0  0  0  0  0  0  0  0  0
   13.8553   -0.9325    0.0000 H   0  0  0  0  0  0  0  0  0  0  0  0
   13.7181   -0.0664    0.0000 H   0  0  0  0  0  0  0  0  0  0  0  0
   12.1001    1.1091    0.0000 H   0  0  0  0  0  0  0  0  0  0  0  0
   11.2341    0.9720    0.0000 H   0  0  0  0  0  0  0  0  0  0  0  0
   11.3713    0.1060    0.0000 H   0  0  0  0  0  0  0  0  0  0  0  0
  1 40  1  0  0  0  0
  2 16  1  0  0  0  0
  2 57  1  0  0  0  0
  3 16  2  0  0  0  0
 21  4  1  6  0  0  0
  4 28  1  0  0  0  0
  5 19  2  0  0  0  0
  6 24  2  0  0  0  0
  7 33  1  0  0  0  0
  7 37  1  0  0  0  0
  8 33  2  0  0  0  0
  9 13  1  0  0  0  0
  9 19  1  0  0  0  0
  9 47  1  0  0  0  0
 10 18  1  0  0  0  0
 10 22  1  0  0  0  0
 10 24  1  0  0  0  0
 25 11  1  1  0  0  0
 11 33  1  0  0  0  0
 11 62  1  0  0  0  0
 12 34  2  0  0  0  0
 12 36  1  0  0  0  0
 13 14  1  0  0  0  0
 13 15  1  0  0  0  0
 13 16  1  0  0  0  0
 14 15  1  0  0  0  0
 14 17  1  1  0  0  0
 14 44  1  0  0  0  0
 15 45  1  0  0  0  0
 15 46  1  0  0  0  0
 17 23  2  0  0  0  0
 17 48  1  0  0  0  0
 18 19  1  1  0  0  0
 18 20  1  0  0  0  0
 18 49  1  0  0  0  0
 20 21  1  0  0  0  0
 20 50  1  0  0  0  0
 20 51  1  0  0  0  0
 21 22  1  0  0  0  0
 21 52  1  0  0  0  0
 22 53  1  0  0  0  0
 22 54  1  0  0  0  0
 23 55  1  0  0  0  0
 23 56  1  0  0  0  0
 24 25  1  0  0  0  0
 25 26  1  0  0  0  0
 25 58  1  0  0  0  0
 26 27  1  0  0  0  0
 26 59  1  0  0  0  0
 26 60  1  0  0  0  0
 27 29  1  0  0  0  0
 27 30  1  0  0  0  0
 27 61  1  0  0  0  0
 28 31  2  0  0  0  0
 28 32  1  0  0  0  0
 29 63  1  0  0  0  0
 29 64  1  0  0  0  0
 29 65  1  0  0  0  0
 30 66  1  0  0  0  0
 30 67  1  0  0  0  0
 30 68  1  0  0  0  0
 31 34  1  0  0  0  0
 31 35  1  0  0  0  0
 32 36  2  0  0  0  0
 32 69  1  0  0  0  0
 34 38  1  0  0  0  0
 35 39  2  0  0  0  0
 35 70  1  0  0  0  0
 36 71  1  0  0  0  0
 37 41  1  0  0  0  0
 37 42  1  0  0  0  0
 37 43  1  0  0  0  0
 38 40  2  0  0  0  0
 38 72  1  0  0  0  0
 39 40  1  0  0  0  0
 39 73  1  0  0  0  0
 41 74  1  0  0  0  0
 41 75  1  0  0  0  0
 41 76  1  0  0  0  0
 42 77  1  0  0  0  0
 42 78  1  0  0  0  0
 42 79  1  0  0  0  0
 43 80  1  0  0  0  0
 43 81  1  0  0  0  0
 43 82  1  0  0  0  0
M  END
> <PUBCHEM_COMPOUND_CID>
500695
> <PUBCHEM_COMPOUND_CANONICALIZED>
1
> <PUBCHEM_CACTVS_COMPLEXITY>
1080
> <PUBCHEM_CACTVS_HBOND_ACCEPTOR>
8
> <PUBCHEM_CACTVS_HBOND_DONOR>
3
> <PUBCHEM_CACTVS_ROTATABLE_BOND>
12
> <PUBCHEM_CACTVS_SUBSKEYS>
AAADcfB7uAAEAAAAAAAAAAAAGAAAAWAAAAA8QAAAAAAAAACx8AAAHgIQCAAADf7hniY+zvPIFgCoAzX3XACCiCAxJyAI2KG+bpkOZvLFs7ufeCjm1hnY6Ae6waAOBAAAAAICAAAIAAAABAQAAAAAAAAAAA==
> <PUBCHEM_IUPAC_OPENEYE_NAME>
(2R)-1-[[(2S,4R)-1-[(2S)-2-(tert-butoxycarbonylamino)-4-methyl-pentanoyl]-4-[(7-chloro-4-quinolyl)oxy]pyrrolidine-2-carbonyl]amino]-2-vinyl-cyclopropanecarboxylic acid
> <PUBCHEM_IUPAC_CAS_NAME>
(2R)-1-[[[(2S,4R)-4-[(7-chloro-4-quinolinyl)oxy]-1-[(2S)-4-methyl-2-[[(2-methylpropan-2-yl)oxy-oxomethyl]amino]-1-oxopentyl]-2-pyrrolidinyl]-oxomethyl]amino]-2-ethenyl-1-cyclopropanecarboxylic acid
> <PUBCHEM_IUPAC_NAME_MARKUP>
(2<I>R</I>)-1-[[(2<I>S</I>,4<I>R</I>)-4-(7-chloroquinolin-4-yl)oxy-1-[(2<I>S</I>)-4-methyl-2-[(2-methylpropan-2-yl)oxycarbonylamino]pentanoyl]pyrrolidine-2-carbonyl]amino]-2-ethenylcyclopropane-1-carboxylic acid
> <PUBCHEM_IUPAC_NAME>
(2R)-1-[[(2S,4R)-4-(7-chloroquinolin-4-yl)oxy-1-[(2S)-4-methyl-2-[(2-methylpropan-2-yl)oxycarbonylamino]pentanoyl]pyrrolidine-2-carbonyl]amino]-2-ethenylcyclopropane-1-carboxylic acid
> <PUBCHEM_IUPAC_SYSTEMATIC_NAME>
(2R)-1-[[(2S,4R)-4-(7-chloranylquinolin-4-yl)oxy-1-[(2S)-4-methyl-2-[(2-methylpropan-2-yl)oxycarbonylamino]pentanoyl]pyrrolidin-2-yl]carbonylamino]-2-ethenyl-cyclopropane-1-carboxylic acid
> <PUBCHEM_IUPAC_TRADITIONAL_NAME>
(2R)-1-[[(2S,4R)-1-[(2S)-2-(tert-butoxycarbonylamino)-4-methyl-pentanoyl]-4-[(7-chloro-4-quinolyl)oxy]prolyl]amino]-2-vinyl-cyclopropanecarboxylic acid
> <PUBCHEM_IUPAC_INCHI>
InChI=1S/C31H39ClN4O7/c1-7-18-15-31(18,28(39)40)35-26(37)24-14-20(42-25-10-11-33-22-13-19(32)8-9-21(22)25)16-36(24)27(38)23(12-17(2)3)34-29(41)43-30(4,5)6/h7-11,13,17-18,20,23-24H,1,12,14-16H2,2-6H3,(H,34,41)(H,35,37)(H,39,40)/t18-,20+,23-,24-,31?/m0/s1
> <PUBCHEM_IUPAC_INCHIKEY>
WWIBXLCYDRAPKC-ZDGZABMISA-N
> <PUBCHEM_XLOGP3_AA>
4.8
> <PUBCHEM_EXACT_MASS>
614.2507273
> <PUBCHEM_MOLECULAR_FORMULA>
C31H39ClN4O7
> <PUBCHEM_MOLECULAR_WEIGHT>
615.1
> <PUBCHEM_OPENEYE_CAN_SMILES>
CC(C)CC(C(=O)N1CC(CC1C(=O)NC2(CC2C=C)C(=O)O)OC3=C4C=CC(=CC4=NC=C3)Cl)NC(=O)OC(C)(C)C
> <PUBCHEM_OPENEYE_ISO_SMILES>
CC(C)C[C@@H](C(=O)N1C[C@@H](C[C@H]1C(=O)NC2(C[C@@H]2C=C)C(=O)O)OC3=C4C=CC(=CC4=NC=C3)Cl)NC(=O)OC(C)(C)C
> <PUBCHEM_CACTVS_TPSA>
147
> <PUBCHEM_MONOISOTOPIC_WEIGHT>
614.2507273
> <PUBCHEM_TOTAL_CHARGE>
0
> <PUBCHEM_HEAVY_ATOM_COUNT>
43
> <PUBCHEM_ATOM_DEF_STEREO_COUNT>
4
> <PUBCHEM_ATOM_UDEF_STEREO_COUNT>
1
> <PUBCHEM_BOND_DEF_STEREO_COUNT>
0
> <PUBCHEM_BOND_UDEF_STEREO_COUNT>
0
> <PUBCHEM_ISOTOPIC_ATOM_COUNT>
0
> <PUBCHEM_COMPONENT_COUNT>
1
> <PUBCHEM_CACTVS_TAUTO_COUNT>
-1
> <PUBCHEM_COORDINATE_TYPE>
1
5
255
> <PUBCHEM_BONDANNOTATIONS>
25  11  5
12  34  8
12  36  8
13  16  3
14  17  5
18  19  5
28  31  8
28  32  8
31  34  8
31  35  8
32  36  8
34  38  8
35  39  8
38  40  8
39  40  8
21  4  6
$$$$
