500664
  -OEChem-10302200282D
 92 96  0     1  0  0  0  0  0999 V2000
    4.6660    3.2111    0.0000 Cl  0  0  0  0  0  0  0  0  0  0  0  0
    9.9737    5.5677    0.0000 O   0  0  0  0  0  0  0  0  0  0  0  0
   10.1548    3.8452    0.0000 O   0  0  0  0  0  0  0  0  0  0  0  0
    6.3981    0.2111    0.0000 O   0  0  0  0  0  0  0  0  0  0  0  0
    9.7480    2.9316    0.0000 O   0  0  0  0  0  0  0  0  0  0  0  0
   10.4291    1.7520    0.0000 O   0  0  0  0  0  0  0  0  0  0  0  0
   13.8640   -3.8338    0.0000 O   0  0  0  0  0  0  0  0  0  0  0  0
   12.2817   -4.5383    0.0000 O   0  0  0  0  0  0  0  0  0  0  0  0
    8.1657    3.6361    0.0000 N   0  0  0  0  0  0  0  0  0  0  0  0
    8.8468    1.0475    0.0000 N   0  0  0  0  0  0  0  0  0  0  0  0
   11.2426   -0.0751    0.0000 N   0  0  0  0  0  0  0  0  0  0  0  0
    4.6660    0.2111    0.0000 N   0  0  0  0  0  0  0  0  0  0  0  0
    8.5725    4.5497    0.0000 C   0  0  3  0  0  0  0  0  0  0  0  0
    7.6589    4.9564    0.0000 C   0  0  2  0  0  0  0  0  0  0  0  0
    8.4680    5.5442    0.0000 C   0  0  0  0  0  0  0  0  0  0  0  0
    9.5670    4.6542    0.0000 C   0  0  0  0  0  0  0  0  0  0  0  0
    6.6644    4.8519    0.0000 C   0  0  0  0  0  0  0  0  0  0  0  0
    8.3468    1.9136    0.0000 C   0  0  2  0  0  0  0  0  0  0  0  0
    8.7535    2.8271    0.0000 C   0  0  0  0  0  0  0  0  0  0  0  0
    7.3686    1.7056    0.0000 C   0  0  0  0  0  0  0  0  0  0  0  0
    7.2641    0.7111    0.0000 C   0  0  2  0  0  0  0  0  0  0  0  0
    8.1777    0.3044    0.0000 C   0  0  0  0  0  0  0  0  0  0  0  0
    9.8413    0.9430    0.0000 C   0  0  0  0  0  0  0  0  0  0  0  0
    6.0766    5.6609    0.0000 C   0  0  0  0  0  0  0  0  0  0  0  0
   10.2480    0.0294    0.0000 C   0  0  2  0  0  0  0  0  0  0  0  0
    9.6603   -0.7796    0.0000 C   0  0  0  0  0  0  0  0  0  0  0  0
    9.0725   -1.5886    0.0000 C   0  0  0  0  0  0  0  0  0  0  0  0
   10.4693   -1.3674    0.0000 C   0  0  0  0  0  0  0  0  0  0  0  0
    8.8512   -0.1918    0.0000 C   0  0  0  0  0  0  0  0  0  0  0  0
    5.5321    0.7111    0.0000 C   0  0  0  0  0  0  0  0  0  0  0  0
   11.6493   -0.9886    0.0000 C   0  0  0  0  0  0  0  0  0  0  0  0
    5.5321    1.7111    0.0000 C   0  0  0  0  0  0  0  0  0  0  0  0
   11.0615   -1.7976    0.0000 C   0  0  0  0  0  0  0  0  0  0  0  0
   12.6438   -1.0932    0.0000 C   0  0  0  0  0  0  0  0  0  0  0  0
    4.6660    2.2111    0.0000 C   0  0  0  0  0  0  0  0  0  0  0  0
    3.8000    0.7111    0.0000 C   0  0  0  0  0  0  0  0  0  0  0  0
    3.8000    1.7111    0.0000 C   0  0  0  0  0  0  0  0  0  0  0  0
   11.4683   -2.7112    0.0000 C   0  0  0  0  0  0  0  0  0  0  0  0
   13.0506   -2.0067    0.0000 C   0  0  0  0  0  0  0  0  0  0  0  0
   12.4628   -2.8157    0.0000 C   0  0  0  0  0  0  0  0  0  0  0  0
    2.9061    0.1765    0.0000 C   0  0  0  0  0  0  0  0  0  0  0  0
    2.9061    2.2458    0.0000 C   0  0  0  0  0  0  0  0  0  0  0  0
   12.8695   -3.7293    0.0000 C   0  0  0  0  0  0  0  0  0  0  0  0
    2.0000    0.6903    0.0000 C   0  0  0  0  0  0  0  0  0  0  0  0
    2.0000    1.7319    0.0000 C   0  0  0  0  0  0  0  0  0  0  0  0
   14.2708   -4.7473    0.0000 C   0  0  0  0  0  0  0  0  0  0  0  0
   14.6775   -5.6609    0.0000 C   0  0  0  0  0  0  0  0  0  0  0  0
   15.1843   -4.3406    0.0000 C   0  0  0  0  0  0  0  0  0  0  0  0
   13.3572   -5.1541    0.0000 C   0  0  0  0  0  0  0  0  0  0  0  0
    7.5619    4.3440    0.0000 H   0  0  0  0  0  0  0  0  0  0  0  0
    9.0639    5.7151    0.0000 H   0  0  0  0  0  0  0  0  0  0  0  0
    8.1962    6.1014    0.0000 H   0  0  0  0  0  0  0  0  0  0  0  0
    7.5491    3.5713    0.0000 H   0  0  0  0  0  0  0  0  0  0  0  0
    6.4122    4.2855    0.0000 H   0  0  0  0  0  0  0  0  0  0  0  0
    8.9659    1.9460    0.0000 H   0  0  0  0  0  0  0  0  0  0  0  0
    7.3038    2.3222    0.0000 H   0  0  0  0  0  0  0  0  0  0  0  0
    6.7486    1.7056    0.0000 H   0  0  0  0  0  0  0  0  0  0  0  0
    7.2966    0.0920    0.0000 H   0  0  0  0  0  0  0  0  0  0  0  0
    7.8677   -0.2326    0.0000 H   0  0  0  0  0  0  0  0  0  0  0  0
    8.6792   -0.0600    0.0000 H   0  0  0  0  0  0  0  0  0  0  0  0
   10.6125    0.5310    0.0000 H   0  0  0  0  0  0  0  0  0  0  0  0
    6.3288    6.2273    0.0000 H   0  0  0  0  0  0  0  0  0  0  0  0
    5.4600    5.5961    0.0000 H   0  0  0  0  0  0  0  0  0  0  0  0
   10.5903    5.6325    0.0000 H   0  0  0  0  0  0  0  0  0  0  0  0
   11.6070    0.4265    0.0000 H   0  0  0  0  0  0  0  0  0  0  0  0
    8.5709   -1.2242    0.0000 H   0  0  0  0  0  0  0  0  0  0  0  0
    8.7080   -2.0902    0.0000 H   0  0  0  0  0  0  0  0  0  0  0  0
    9.5741   -1.9530    0.0000 H   0  0  0  0  0  0  0  0  0  0  0  0
   10.1048   -1.8689    0.0000 H   0  0  0  0  0  0  0  0  0  0  0  0
   10.9709   -1.7318    0.0000 H   0  0  0  0  0  0  0  0  0  0  0  0
   10.8337   -0.8658    0.0000 H   0  0  0  0  0  0  0  0  0  0  0  0
    9.2157    0.3098    0.0000 H   0  0  0  0  0  0  0  0  0  0  0  0
    8.3496    0.1726    0.0000 H   0  0  0  0  0  0  0  0  0  0  0  0
    8.4868   -0.6934    0.0000 H   0  0  0  0  0  0  0  0  0  0  0  0
    6.0690    2.0211    0.0000 H   0  0  0  0  0  0  0  0  0  0  0  0
   10.4449   -1.7328    0.0000 H   0  0  0  0  0  0  0  0  0  0  0  0
   13.0083   -0.5916    0.0000 H   0  0  0  0  0  0  0  0  0  0  0  0
   11.1038   -3.2128    0.0000 H   0  0  0  0  0  0  0  0  0  0  0  0
   13.6672   -2.0715    0.0000 H   0  0  0  0  0  0  0  0  0  0  0  0
    2.9132   -0.4435    0.0000 H   0  0  0  0  0  0  0  0  0  0  0  0
    2.9132    2.8657    0.0000 H   0  0  0  0  0  0  0  0  0  0  0  0
    1.4643    0.3782    0.0000 H   0  0  0  0  0  0  0  0  0  0  0  0
    1.4643    2.0440    0.0000 H   0  0  0  0  0  0  0  0  0  0  0  0
   14.1111   -5.9131    0.0000 H   0  0  0  0  0  0  0  0  0  0  0  0
   14.9297   -6.2273    0.0000 H   0  0  0  0  0  0  0  0  0  0  0  0
   15.2439   -5.4087    0.0000 H   0  0  0  0  0  0  0  0  0  0  0  0
   15.4365   -4.9070    0.0000 H   0  0  0  0  0  0  0  0  0  0  0  0
   15.7507   -4.0884    0.0000 H   0  0  0  0  0  0  0  0  0  0  0  0
   14.9321   -3.7742    0.0000 H   0  0  0  0  0  0  0  0  0  0  0  0
   13.1050   -4.5877    0.0000 H   0  0  0  0  0  0  0  0  0  0  0  0
   12.7908   -5.4062    0.0000 H   0  0  0  0  0  0  0  0  0  0  0  0
   13.6094   -5.7205    0.0000 H   0  0  0  0  0  0  0  0  0  0  0  0
  1 35  1  0  0  0  0
  2 16  1  0  0  0  0
  2 64  1  0  0  0  0
  3 16  2  0  0  0  0
 21  4  1  6  0  0  0
  4 30  1  0  0  0  0
  5 19  2  0  0  0  0
  6 23  2  0  0  0  0
  7 43  1  0  0  0  0
  7 46  1  0  0  0  0
  8 43  2  0  0  0  0
  9 13  1  0  0  0  0
  9 19  1  0  0  0  0
  9 53  1  0  0  0  0
 10 18  1  0  0  0  0
 10 22  1  0  0  0  0
 10 23  1  0  0  0  0
 25 11  1  1  0  0  0
 11 31  1  0  0  0  0
 11 65  1  0  0  0  0
 12 30  2  0  0  0  0
 12 36  1  0  0  0  0
 13 14  1  0  0  0  0
 13 15  1  0  0  0  0
 13 16  1  0  0  0  0
 14 15  1  0  0  0  0
 14 17  1  1  0  0  0
 14 50  1  0  0  0  0
 15 51  1  0  0  0  0
 15 52  1  0  0  0  0
 17 24  2  0  0  0  0
 17 54  1  0  0  0  0
 18 19  1  1  0  0  0
 18 20  1  0  0  0  0
 18 55  1  0  0  0  0
 20 21  1  0  0  0  0
 20 56  1  0  0  0  0
 20 57  1  0  0  0  0
 21 22  1  0  0  0  0
 21 58  1  0  0  0  0
 22 59  1  0  0  0  0
 22 60  1  0  0  0  0
 23 25  1  0  0  0  0
 24 62  1  0  0  0  0
 24 63  1  0  0  0  0
 25 26  1  0  0  0  0
 25 61  1  0  0  0  0
 26 27  1  0  0  0  0
 26 28  1  0  0  0  0
 26 29  1  0  0  0  0
 27 66  1  0  0  0  0
 27 67  1  0  0  0  0
 27 68  1  0  0  0  0
 28 69  1  0  0  0  0
 28 70  1  0  0  0  0
 28 71  1  0  0  0  0
 29 72  1  0  0  0  0
 29 73  1  0  0  0  0
 29 74  1  0  0  0  0
 30 32  1  0  0  0  0
 31 33  2  0  0  0  0
 31 34  1  0  0  0  0
 32 35  2  0  0  0  0
 32 75  1  0  0  0  0
 33 38  1  0  0  0  0
 33 76  1  0  0  0  0
 34 39  2  0  0  0  0
 34 77  1  0  0  0  0
 35 37  1  0  0  0  0
 36 37  1  0  0  0  0
 36 41  2  0  0  0  0
 37 42  2  0  0  0  0
 38 40  2  0  0  0  0
 38 78  1  0  0  0  0
 39 40  1  0  0  0  0
 39 79  1  0  0  0  0
 40 43  1  0  0  0  0
 41 44  1  0  0  0  0
 41 80  1  0  0  0  0
 42 45  1  0  0  0  0
 42 81  1  0  0  0  0
 44 45  2  0  0  0  0
 44 82  1  0  0  0  0
 45 83  1  0  0  0  0
 46 47  1  0  0  0  0
 46 48  1  0  0  0  0
 46 49  1  0  0  0  0
 47 84  1  0  0  0  0
 47 85  1  0  0  0  0
 47 86  1  0  0  0  0
 48 87  1  0  0  0  0
 48 88  1  0  0  0  0
 48 89  1  0  0  0  0
 49 90  1  0  0  0  0
 49 91  1  0  0  0  0
 49 92  1  0  0  0  0
M  END
> <PUBCHEM_COMPOUND_CID>
500664
> <PUBCHEM_COMPOUND_CANONICALIZED>
1
> <PUBCHEM_CACTVS_COMPLEXITY>
1260
> <PUBCHEM_CACTVS_HBOND_ACCEPTOR>
9
> <PUBCHEM_CACTVS_HBOND_DONOR>
3
> <PUBCHEM_CACTVS_ROTATABLE_BOND>
13
> <PUBCHEM_CACTVS_SUBSKEYS>
AAADcfB/uAAEAAAAAAAAAAAAGAAAAWAAAAA8YIAAAAAAAACx9AAAHgIQCAAAD/7hniYyzPPIFgCoAyXyXACCiCAlJyAImKG+btgOZvLFt7ufeSjm1hHY6Ye62aOfCAAAAAACAAAQAAAAAAQAAAAAAAAAAA==
> <PUBCHEM_IUPAC_OPENEYE_NAME>
(2R)-1-[[(2S,4R)-1-[(2S)-2-(4-tert-butoxycarbonylanilino)-3,3-dimethyl-butanoyl]-4-[(4-chloro-2-quinolyl)oxy]pyrrolidine-2-carbonyl]amino]-2-vinyl-cyclopropanecarboxylic acid
> <PUBCHEM_IUPAC_CAS_NAME>
(2R)-1-[[[(2S,4R)-4-[(4-chloro-2-quinolinyl)oxy]-1-[(2S)-3,3-dimethyl-2-[4-[(2-methylpropan-2-yl)oxy-oxomethyl]anilino]-1-oxobutyl]-2-pyrrolidinyl]-oxomethyl]amino]-2-ethenyl-1-cyclopropanecarboxylic acid
> <PUBCHEM_IUPAC_NAME_MARKUP>
(2<I>R</I>)-1-[[(2<I>S</I>,4<I>R</I>)-4-(4-chloroquinolin-2-yl)oxy-1-[(2<I>S</I>)-3,3-dimethyl-2-[4-[(2-methylpropan-2-yl)oxycarbonyl]anilino]butanoyl]pyrrolidine-2-carbonyl]amino]-2-ethenylcyclopropane-1-carboxylic acid
> <PUBCHEM_IUPAC_NAME>
(2R)-1-[[(2S,4R)-4-(4-chloroquinolin-2-yl)oxy-1-[(2S)-3,3-dimethyl-2-[4-[(2-methylpropan-2-yl)oxycarbonyl]anilino]butanoyl]pyrrolidine-2-carbonyl]amino]-2-ethenylcyclopropane-1-carboxylic acid
> <PUBCHEM_IUPAC_SYSTEMATIC_NAME>
(2R)-1-[[(2S,4R)-4-(4-chloranylquinolin-2-yl)oxy-1-[(2S)-3,3-dimethyl-2-[[4-[(2-methylpropan-2-yl)oxycarbonyl]phenyl]amino]butanoyl]pyrrolidin-2-yl]carbonylamino]-2-ethenyl-cyclopropane-1-carboxylic acid
> <PUBCHEM_IUPAC_TRADITIONAL_NAME>
(2R)-1-[[(2S,4R)-1-[(2S)-2-(4-tert-butoxycarbonylanilino)-3,3-dimethyl-butanoyl]-4-[(4-chloro-2-quinolyl)oxy]prolyl]amino]-2-vinyl-cyclopropanecarboxylic acid
> <PUBCHEM_IUPAC_INCHI>
InChI=1S/C37H43ClN4O7/c1-8-22-19-37(22,34(46)47)41-31(43)28-17-24(48-29-18-26(38)25-11-9-10-12-27(25)40-29)20-42(28)32(44)30(35(2,3)4)39-23-15-13-21(14-16-23)33(45)49-36(5,6)7/h8-16,18,22,24,28,30,39H,1,17,19-20H2,2-7H3,(H,41,43)(H,46,47)/t22-,24+,28-,30+,37?/m0/s1
> <PUBCHEM_IUPAC_INCHIKEY>
DASWMJPFHFOJIX-GCMNKBHVSA-N
> <PUBCHEM_XLOGP3_AA>
7
> <PUBCHEM_EXACT_MASS>
690.2820274
> <PUBCHEM_MOLECULAR_FORMULA>
C37H43ClN4O7
> <PUBCHEM_MOLECULAR_WEIGHT>
691.2
> <PUBCHEM_OPENEYE_CAN_SMILES>
CC(C)(C)C(C(=O)N1CC(CC1C(=O)NC2(CC2C=C)C(=O)O)OC3=NC4=CC=CC=C4C(=C3)Cl)NC5=CC=C(C=C5)C(=O)OC(C)(C)C
> <PUBCHEM_OPENEYE_ISO_SMILES>
CC(C)(C)[C@@H](C(=O)N1C[C@@H](C[C@H]1C(=O)NC2(C[C@@H]2C=C)C(=O)O)OC3=NC4=CC=CC=C4C(=C3)Cl)NC5=CC=C(C=C5)C(=O)OC(C)(C)C
> <PUBCHEM_CACTVS_TPSA>
147
> <PUBCHEM_MONOISOTOPIC_WEIGHT>
690.2820274
> <PUBCHEM_TOTAL_CHARGE>
0
> <PUBCHEM_HEAVY_ATOM_COUNT>
49
> <PUBCHEM_ATOM_DEF_STEREO_COUNT>
4
> <PUBCHEM_ATOM_UDEF_STEREO_COUNT>
1
> <PUBCHEM_BOND_DEF_STEREO_COUNT>
0
> <PUBCHEM_BOND_UDEF_STEREO_COUNT>
0
> <PUBCHEM_ISOTOPIC_ATOM_COUNT>
0
> <PUBCHEM_COMPONENT_COUNT>
1
> <PUBCHEM_CACTVS_TAUTO_COUNT>
-1
> <PUBCHEM_COORDINATE_TYPE>
1
5
255
> <PUBCHEM_BONDANNOTATIONS>
25  11  5
12  30  8
12  36  8
13  16  3
14  17  5
18  19  5
30  32  8
31  33  8
31  34  8
32  35  8
33  38  8
34  39  8
35  37  8
36  37  8
36  41  8
37  42  8
38  40  8
39  40  8
21  4  6
41  44  8
42  45  8
44  45  8
$$$$
