500652
  -OEChem-10302200282D
 86 91  0     1  0  0  0  0  0999 V2000
   11.0928   -0.4145    0.0000 O   0  0  0  0  0  0  0  0  0  0  0  0
    4.6660   -0.8328    0.0000 O   0  0  0  0  0  0  0  0  0  0  0  0
    9.6916    0.6036    0.0000 O   0  0  0  0  0  0  0  0  0  0  0  0
    8.6970    0.7081    0.0000 O   0  0  0  0  0  0  0  0  0  0  0  0
    8.0160    1.8877    0.0000 O   0  0  0  0  0  0  0  0  0  0  0  0
    3.8569    3.1921    0.0000 O   0  0  0  0  0  0  0  0  0  0  0  0
    8.5160   -1.0145    0.0000 N   0  0  0  0  0  0  0  0  0  0  0  0
    6.6147    0.8696    0.0000 N   0  0  0  0  0  0  0  0  0  0  0  0
    5.4392    2.4876    0.0000 N   0  0  0  0  0  0  0  0  0  0  0  0
    4.6660   -3.8328    0.0000 N   0  0  0  0  0  0  0  0  0  0  0  0
    9.5105   -1.1190    0.0000 C   0  0  3  0  0  0  0  0  0  0  0  0
    9.4060   -2.1135    0.0000 C   0  0  2  0  0  0  0  0  0  0  0  0
   10.3195   -1.7068    0.0000 C   0  0  0  0  0  0  0  0  0  0  0  0
    7.1147    0.0036    0.0000 C   0  0  2  0  0  0  0  0  0  0  0  0
   10.0983   -0.3100    0.0000 C   0  0  0  0  0  0  0  0  0  0  0  0
    8.8182   -2.9226    0.0000 C   0  0  0  0  0  0  0  0  0  0  0  0
    8.1093   -0.1009    0.0000 C   0  0  0  0  0  0  0  0  0  0  0  0
    6.4456   -0.7396    0.0000 C   0  0  0  0  0  0  0  0  0  0  0  0
    5.5321   -0.3328    0.0000 C   0  0  2  0  0  0  0  0  0  0  0  0
    6.8404    3.5057    0.0000 C   0  0  0  0  0  0  0  0  0  0  0  0
    5.6366    0.6617    0.0000 C   0  0  0  0  0  0  0  0  0  0  0  0
    6.4337    2.5922    0.0000 C   0  0  1  0  0  0  0  0  0  0  0  0
    7.0215    1.7832    0.0000 C   0  0  0  0  0  0  0  0  0  0  0  0
    6.2526    4.3147    0.0000 C   0  0  0  0  0  0  0  0  0  0  0  0
    7.8350    3.6102    0.0000 C   0  0  0  0  0  0  0  0  0  0  0  0
    6.6594    5.2283    0.0000 C   0  0  0  0  0  0  0  0  0  0  0  0
    8.2417    4.5238    0.0000 C   0  0  0  0  0  0  0  0  0  0  0  0
    7.6539    5.3328    0.0000 C   0  0  0  0  0  0  0  0  0  0  0  0
    9.2249   -3.8361    0.0000 C   0  0  0  0  0  0  0  0  0  0  0  0
    4.6660   -1.8328    0.0000 C   0  0  0  0  0  0  0  0  0  0  0  0
    4.8514    3.2967    0.0000 C   0  0  0  0  0  0  0  0  0  0  0  0
    3.8000   -2.3328    0.0000 C   0  0  0  0  0  0  0  0  0  0  0  0
    5.5321   -2.3328    0.0000 C   0  0  0  0  0  0  0  0  0  0  0  0
    5.2581    4.2102    0.0000 C   0  0  0  0  0  0  0  0  0  0  0  0
    3.8000   -3.3328    0.0000 C   0  0  0  0  0  0  0  0  0  0  0  0
    5.5321   -3.3328    0.0000 C   0  0  0  0  0  0  0  0  0  0  0  0
    2.9061   -1.7982    0.0000 C   0  0  0  0  0  0  0  0  0  0  0  0
    2.9061   -3.8675    0.0000 C   0  0  0  0  0  0  0  0  0  0  0  0
    6.3981   -3.8328    0.0000 C   0  0  0  0  0  0  0  0  0  0  0  0
    2.0000   -2.3120    0.0000 C   0  0  0  0  0  0  0  0  0  0  0  0
    2.0000   -3.3536    0.0000 C   0  0  0  0  0  0  0  0  0  0  0  0
    7.2641   -3.3328    0.0000 C   0  0  0  0  0  0  0  0  0  0  0  0
    6.3981   -4.8328    0.0000 C   0  0  0  0  0  0  0  0  0  0  0  0
    8.1301   -3.8328    0.0000 C   0  0  0  0  0  0  0  0  0  0  0  0
    7.2641   -5.3328    0.0000 C   0  0  0  0  0  0  0  0  0  0  0  0
    8.1301   -4.8328    0.0000 C   0  0  0  0  0  0  0  0  0  0  0  0
    9.7962   -2.5954    0.0000 H   0  0  0  0  0  0  0  0  0  0  0  0
   10.6662   -2.2208    0.0000 H   0  0  0  0  0  0  0  0  0  0  0  0
   10.7655   -1.2761    0.0000 H   0  0  0  0  0  0  0  0  0  0  0  0
    8.1516   -1.5161    0.0000 H   0  0  0  0  0  0  0  0  0  0  0  0
    7.4524    0.5236    0.0000 H   0  0  0  0  0  0  0  0  0  0  0  0
    8.2016   -2.8577    0.0000 H   0  0  0  0  0  0  0  0  0  0  0  0
    6.1356   -1.2765    0.0000 H   0  0  0  0  0  0  0  0  0  0  0  0
    6.9472   -1.1040    0.0000 H   0  0  0  0  0  0  0  0  0  0  0  0
    5.5645   -0.9520    0.0000 H   0  0  0  0  0  0  0  0  0  0  0  0
    6.2238    3.4409    0.0000 H   0  0  0  0  0  0  0  0  0  0  0  0
    5.5718    1.2783    0.0000 H   0  0  0  0  0  0  0  0  0  0  0  0
    5.0166    0.6617    0.0000 H   0  0  0  0  0  0  0  0  0  0  0  0
    6.1815    2.0258    0.0000 H   0  0  0  0  0  0  0  0  0  0  0  0
    5.7386    4.6614    0.0000 H   0  0  0  0  0  0  0  0  0  0  0  0
    5.8220    3.8688    0.0000 H   0  0  0  0  0  0  0  0  0  0  0  0
    7.7917    2.9918    0.0000 H   0  0  0  0  0  0  0  0  0  0  0  0
    8.4365    3.4603    0.0000 H   0  0  0  0  0  0  0  0  0  0  0  0
    6.7026    5.8468    0.0000 H   0  0  0  0  0  0  0  0  0  0  0  0
    6.0578    5.3783    0.0000 H   0  0  0  0  0  0  0  0  0  0  0  0
    8.7557    4.1771    0.0000 H   0  0  0  0  0  0  0  0  0  0  0  0
    8.6724    4.9698    0.0000 H   0  0  0  0  0  0  0  0  0  0  0  0
    8.2112    5.6046    0.0000 H   0  0  0  0  0  0  0  0  0  0  0  0
    7.4830    5.9288    0.0000 H   0  0  0  0  0  0  0  0  0  0  0  0
    8.8605   -4.3377    0.0000 H   0  0  0  0  0  0  0  0  0  0  0  0
    9.8415   -3.9009    0.0000 H   0  0  0  0  0  0  0  0  0  0  0  0
   11.4573    0.0871    0.0000 H   0  0  0  0  0  0  0  0  0  0  0  0
    5.1870    1.9212    0.0000 H   0  0  0  0  0  0  0  0  0  0  0  0
    6.0690   -2.0228    0.0000 H   0  0  0  0  0  0  0  0  0  0  0  0
    5.8245    3.9580    0.0000 H   0  0  0  0  0  0  0  0  0  0  0  0
    5.5103    4.7766    0.0000 H   0  0  0  0  0  0  0  0  0  0  0  0
    4.6917    4.4624    0.0000 H   0  0  0  0  0  0  0  0  0  0  0  0
    2.9132   -1.1782    0.0000 H   0  0  0  0  0  0  0  0  0  0  0  0
    2.9132   -4.4874    0.0000 H   0  0  0  0  0  0  0  0  0  0  0  0
    1.4643   -1.9999    0.0000 H   0  0  0  0  0  0  0  0  0  0  0  0
    1.4643   -3.6657    0.0000 H   0  0  0  0  0  0  0  0  0  0  0  0
    7.2641   -2.7128    0.0000 H   0  0  0  0  0  0  0  0  0  0  0  0
    5.8612   -5.1428    0.0000 H   0  0  0  0  0  0  0  0  0  0  0  0
    8.6671   -3.5228    0.0000 H   0  0  0  0  0  0  0  0  0  0  0  0
    7.2641   -5.9528    0.0000 H   0  0  0  0  0  0  0  0  0  0  0  0
    8.6671   -5.1428    0.0000 H   0  0  0  0  0  0  0  0  0  0  0  0
  1 15  1  0  0  0  0
  1 72  1  0  0  0  0
 19  2  1  1  0  0  0
  2 30  1  0  0  0  0
  3 15  2  0  0  0  0
  4 17  2  0  0  0  0
  5 23  2  0  0  0  0
  6 31  2  0  0  0  0
  7 11  1  0  0  0  0
  7 17  1  0  0  0  0
  7 50  1  0  0  0  0
  8 14  1  0  0  0  0
  8 21  1  0  0  0  0
  8 23  1  0  0  0  0
 22  9  1  1  0  0  0
  9 31  1  0  0  0  0
  9 73  1  0  0  0  0
 10 35  1  0  0  0  0
 10 36  2  0  0  0  0
 11 12  1  0  0  0  0
 11 13  1  0  0  0  0
 11 15  1  0  0  0  0
 12 13  1  0  0  0  0
 12 16  1  6  0  0  0
 12 47  1  0  0  0  0
 13 48  1  0  0  0  0
 13 49  1  0  0  0  0
 14 17  1  6  0  0  0
 14 18  1  0  0  0  0
 14 51  1  0  0  0  0
 16 29  2  0  0  0  0
 16 52  1  0  0  0  0
 18 19  1  0  0  0  0
 18 53  1  0  0  0  0
 18 54  1  0  0  0  0
 19 21  1  0  0  0  0
 19 55  1  0  0  0  0
 20 22  1  0  0  0  0
 20 24  1  0  0  0  0
 20 25  1  0  0  0  0
 20 56  1  0  0  0  0
 21 57  1  0  0  0  0
 21 58  1  0  0  0  0
 22 23  1  0  0  0  0
 22 59  1  0  0  0  0
 24 26  1  0  0  0  0
 24 60  1  0  0  0  0
 24 61  1  0  0  0  0
 25 27  1  0  0  0  0
 25 62  1  0  0  0  0
 25 63  1  0  0  0  0
 26 28  1  0  0  0  0
 26 64  1  0  0  0  0
 26 65  1  0  0  0  0
 27 28  1  0  0  0  0
 27 66  1  0  0  0  0
 27 67  1  0  0  0  0
 28 68  1  0  0  0  0
 28 69  1  0  0  0  0
 29 70  1  0  0  0  0
 29 71  1  0  0  0  0
 30 32  1  0  0  0  0
 30 33  2  0  0  0  0
 31 34  1  0  0  0  0
 32 35  1  0  0  0  0
 32 37  2  0  0  0  0
 33 36  1  0  0  0  0
 33 74  1  0  0  0  0
 34 75  1  0  0  0  0
 34 76  1  0  0  0  0
 34 77  1  0  0  0  0
 35 38  2  0  0  0  0
 36 39  1  0  0  0  0
 37 40  1  0  0  0  0
 37 78  1  0  0  0  0
 38 41  1  0  0  0  0
 38 79  1  0  0  0  0
 39 42  2  0  0  0  0
 39 43  1  0  0  0  0
 40 41  2  0  0  0  0
 40 80  1  0  0  0  0
 41 81  1  0  0  0  0
 42 44  1  0  0  0  0
 42 82  1  0  0  0  0
 43 45  2  0  0  0  0
 43 83  1  0  0  0  0
 44 46  2  0  0  0  0
 44 84  1  0  0  0  0
 45 46  1  0  0  0  0
 45 85  1  0  0  0  0
 46 86  1  0  0  0  0
M  END
> <PUBCHEM_COMPOUND_CID>
500652
> <PUBCHEM_COMPOUND_CANONICALIZED>
1
> <PUBCHEM_CACTVS_COMPLEXITY>
1150
> <PUBCHEM_CACTVS_HBOND_ACCEPTOR>
7
> <PUBCHEM_CACTVS_HBOND_DONOR>
3
> <PUBCHEM_CACTVS_ROTATABLE_BOND>
10
> <PUBCHEM_CACTVS_SUBSKEYS>
AAADcfB/uAAAAAAAAAAAAAAAGAAAAWAAAAA8YMEAAAAAAACx9AAAHgAQCAAADbzhngYyzvPIFgCoAyXyXACCiCAhIiAImKG+bJgOZvLEsbuXeCjm1hnY6Ae6yeCOAAAAAAACAAAAAAAAAAQAAAAAAAAAAA==
> <PUBCHEM_IUPAC_OPENEYE_NAME>
(2R)-1-[[(2S,4R)-1-[(2S)-2-acetamido-2-cyclohexyl-acetyl]-4-[(2-phenyl-4-quinolyl)oxy]pyrrolidine-2-carbonyl]amino]-2-vinyl-cyclopropanecarboxylic acid
> <PUBCHEM_IUPAC_CAS_NAME>
(2R)-1-[[[(2S,4R)-1-[(2S)-2-acetamido-2-cyclohexyl-1-oxoethyl]-4-[(2-phenyl-4-quinolinyl)oxy]-2-pyrrolidinyl]-oxomethyl]amino]-2-ethenyl-1-cyclopropanecarboxylic acid
> <PUBCHEM_IUPAC_NAME_MARKUP>
(2<I>R</I>)-1-[[(2<I>S</I>,4<I>R</I>)-1-[(2<I>S</I>)-2-acetamido-2-cyclohexylacetyl]-4-(2-phenylquinolin-4-yl)oxypyrrolidine-2-carbonyl]amino]-2-ethenylcyclopropane-1-carboxylic acid
> <PUBCHEM_IUPAC_NAME>
(2R)-1-[[(2S,4R)-1-[(2S)-2-acetamido-2-cyclohexylacetyl]-4-(2-phenylquinolin-4-yl)oxypyrrolidine-2-carbonyl]amino]-2-ethenylcyclopropane-1-carboxylic acid
> <PUBCHEM_IUPAC_SYSTEMATIC_NAME>
(2R)-1-[[(2S,4R)-1-[(2S)-2-acetamido-2-cyclohexyl-ethanoyl]-4-(2-phenylquinolin-4-yl)oxy-pyrrolidin-2-yl]carbonylamino]-2-ethenyl-cyclopropane-1-carboxylic acid
> <PUBCHEM_IUPAC_TRADITIONAL_NAME>
(2R)-1-[[(2S,4R)-1-[(2S)-2-acetamido-2-cyclohexyl-acetyl]-4-[(2-phenyl-4-quinolyl)oxy]prolyl]amino]-2-vinyl-cyclopropanecarboxylic acid
> <PUBCHEM_IUPAC_INCHI>
InChI=1S/C36H40N4O6/c1-3-25-20-36(25,35(44)45)39-33(42)30-18-26(21-40(30)34(43)32(37-22(2)41)24-14-8-5-9-15-24)46-31-19-29(23-12-6-4-7-13-23)38-28-17-11-10-16-27(28)31/h3-4,6-7,10-13,16-17,19,24-26,30,32H,1,5,8-9,14-15,18,20-21H2,2H3,(H,37,41)(H,39,42)(H,44,45)/t25-,26+,30-,32-,36?/m0/s1
> <PUBCHEM_IUPAC_INCHIKEY>
OHNIEJODDXSVAB-LVORELRQSA-N
> <PUBCHEM_XLOGP3_AA>
5.1
> <PUBCHEM_EXACT_MASS>
624.29478501
> <PUBCHEM_MOLECULAR_FORMULA>
C36H40N4O6
> <PUBCHEM_MOLECULAR_WEIGHT>
624.7
> <PUBCHEM_OPENEYE_CAN_SMILES>
CC(=O)NC(C1CCCCC1)C(=O)N2CC(CC2C(=O)NC3(CC3C=C)C(=O)O)OC4=CC(=NC5=CC=CC=C54)C6=CC=CC=C6
> <PUBCHEM_OPENEYE_ISO_SMILES>
CC(=O)N[C@@H](C1CCCCC1)C(=O)N2C[C@@H](C[C@H]2C(=O)NC3(C[C@@H]3C=C)C(=O)O)OC4=CC(=NC5=CC=CC=C54)C6=CC=CC=C6
> <PUBCHEM_CACTVS_TPSA>
138
> <PUBCHEM_MONOISOTOPIC_WEIGHT>
624.29478501
> <PUBCHEM_TOTAL_CHARGE>
0
> <PUBCHEM_HEAVY_ATOM_COUNT>
46
> <PUBCHEM_ATOM_DEF_STEREO_COUNT>
4
> <PUBCHEM_ATOM_UDEF_STEREO_COUNT>
1
> <PUBCHEM_BOND_DEF_STEREO_COUNT>
0
> <PUBCHEM_BOND_UDEF_STEREO_COUNT>
0
> <PUBCHEM_ISOTOPIC_ATOM_COUNT>
0
> <PUBCHEM_COMPONENT_COUNT>
1
> <PUBCHEM_CACTVS_TAUTO_COUNT>
-1
> <PUBCHEM_COORDINATE_TYPE>
1
5
255
> <PUBCHEM_BONDANNOTATIONS>
10  35  8
10  36  8
11  15  3
12  16  6
14  17  6
19  2  5
30  32  8
30  33  8
32  35  8
32  37  8
33  36  8
35  38  8
37  40  8
38  41  8
39  42  8
39  43  8
40  41  8
42  44  8
43  45  8
44  46  8
45  46  8
22  9  5
$$$$
