500618
  -OEChem-10302200282D
123124  0     1  0  0  0  0  0999 V2000
    7.8347   -3.2540    0.0000 O   0  0  0  0  0  0  0  0  0  0  0  0
    8.5158    1.0074    0.0000 O   0  0  0  0  0  0  0  0  0  0  0  0
    7.1537    1.0074    0.0000 O   0  0  0  0  0  0  0  0  0  0  0  0
   11.9061   -0.2197    0.0000 O   0  0  0  0  0  0  0  0  0  0  0  0
   13.4884    0.4848    0.0000 O   0  0  0  0  0  0  0  0  0  0  0  0
   13.2627    3.1209    0.0000 O   0  0  0  0  0  0  0  0  0  0  0  0
    3.7634   -0.2197    0.0000 O   0  0  0  0  0  0  0  0  0  0  0  0
   16.6530    1.8937    0.0000 O   0  0  0  0  0  0  0  0  0  0  0  0
   17.4665    0.0666    0.0000 O   0  0  0  0  0  0  0  0  0  0  0  0
   15.8841   -0.6378    0.0000 O   0  0  0  0  0  0  0  0  0  0  0  0
   16.6083    6.2524    0.0000 O   0  0  0  0  0  0  0  0  0  0  0  0
   18.0096    5.2343    0.0000 O   0  0  0  0  0  0  0  0  0  0  0  0
   17.6475    1.7892    0.0000 O   0  0  0  0  0  0  0  0  0  0  0  0
    8.3347   -0.7152    0.0000 N   0  0  0  0  0  0  0  0  0  0  0  0
   10.5048    0.7983    0.0000 N   0  0  0  0  0  0  0  0  0  0  0  0
    5.7524   -0.0107    0.0000 N   0  0  0  0  0  0  0  0  0  0  0  0
    5.1646    0.7983    0.0000 N   0  0  0  0  0  0  0  0  0  0  0  0
   13.0816    1.3983    0.0000 N   0  0  0  0  0  0  0  0  0  0  0  0
   15.2517    2.9118    0.0000 N   0  0  0  0  0  0  0  0  0  0  0  0
    3.5823    1.5028    0.0000 N   0  0  0  0  0  0  0  0  0  0  0  0
   17.8286    3.5118    0.0000 N   0  0  0  0  0  0  0  0  0  0  0  0
    7.3347   -0.7152    0.0000 C   0  0  1  0  0  0  0  0  0  0  0  0
    7.8347   -2.2540    0.0000 C   0  0  2  0  0  0  0  0  0  0  0  0
    7.0257   -1.6662    0.0000 C   0  0  0  0  0  0  0  0  0  0  0  0
    8.6437   -1.6662    0.0000 C   0  0  0  0  0  0  0  0  0  0  0  0
    9.9170   -0.0107    0.0000 C   0  0  2  0  0  0  0  0  0  0  0  0
    8.9225    0.0939    0.0000 C   0  0  0  0  0  0  0  0  0  0  0  0
    6.7469    0.0939    0.0000 C   0  0  0  0  0  0  0  0  0  0  0  0
   10.3238   -0.9242    0.0000 C   0  0  0  0  0  0  0  0  0  0  0  0
   12.0871    1.5028    0.0000 C   0  0  2  0  0  0  0  0  0  0  0  0
    6.9687   -3.7540    0.0000 C   0  0  0  0  0  0  0  0  0  0  0  0
   11.3183   -1.0287    0.0000 C   0  0  0  0  0  0  0  0  0  0  0  0
    9.7360   -1.7332    0.0000 C   0  0  0  0  0  0  0  0  0  0  0  0
   11.4993    0.6938    0.0000 C   0  0  0  0  0  0  0  0  0  0  0  0
   11.6804    2.4164    0.0000 C   0  0  2  0  0  0  0  0  0  0  0  0
   12.2682    3.2254    0.0000 C   0  0  0  0  0  0  0  0  0  0  0  0
    6.9687   -4.7540    0.0000 C   0  0  0  0  0  0  0  0  0  0  0  0
   10.6858    2.5209    0.0000 C   0  0  0  0  0  0  0  0  0  0  0  0
    5.5714    1.7119    0.0000 C   0  0  0  0  0  0  0  0  0  0  0  0
   13.6694    2.2073    0.0000 C   0  0  0  0  0  0  0  0  0  0  0  0
   14.6639    2.1028    0.0000 C   0  0  1  0  0  0  0  0  0  0  0  0
   11.8614    4.1389    0.0000 C   0  0  0  0  0  0  0  0  0  0  0  0
    4.1701    0.6938    0.0000 C   0  0  0  0  0  0  0  0  0  0  0  0
    7.8347   -5.2540    0.0000 C   0  0  0  0  0  0  0  0  0  0  0  0
    6.1027   -5.2540    0.0000 C   0  0  0  0  0  0  0  0  0  0  0  0
    4.9836    2.5209    0.0000 C   0  0  0  0  0  0  0  0  0  0  0  0
   15.0707    1.1892    0.0000 C   0  0  0  0  0  0  0  0  0  0  0  0
    7.8347   -6.2540    0.0000 C   0  0  0  0  0  0  0  0  0  0  0  0
    6.1027   -6.2540    0.0000 C   0  0  0  0  0  0  0  0  0  0  0  0
   16.0652    1.0847    0.0000 C   0  0  0  0  0  0  0  0  0  0  0  0
    5.3903    3.4345    0.0000 C   0  0  0  0  0  0  0  0  0  0  0  0
    6.9687   -6.7540    0.0000 C   0  0  0  0  0  0  0  0  0  0  0  0
   16.2462    2.8073    0.0000 C   0  0  0  0  0  0  0  0  0  0  0  0
    2.5878    1.3983    0.0000 C   0  0  0  0  0  0  0  0  0  0  0  0
   16.8340    3.6163    0.0000 C   0  0  2  0  0  0  0  0  0  0  0  0
   16.4719    0.1712    0.0000 C   0  0  0  0  0  0  0  0  0  0  0  0
   16.4273    4.5298    0.0000 C   0  0  0  0  0  0  0  0  0  0  0  0
    2.0000    2.2073    0.0000 C   0  0  0  0  0  0  0  0  0  0  0  0
   17.0151    5.3389    0.0000 C   0  0  0  0  0  0  0  0  0  0  0  0
   18.2353    2.5982    0.0000 C   0  0  0  0  0  0  0  0  0  0  0  0
   19.2298    2.4937    0.0000 C   0  0  0  0  0  0  0  0  0  0  0  0
    7.6162   -0.1627    0.0000 H   0  0  0  0  0  0  0  0  0  0  0  0
    8.3871   -2.5355    0.0000 H   0  0  0  0  0  0  0  0  0  0  0  0
    6.4593   -1.4140    0.0000 H   0  0  0  0  0  0  0  0  0  0  0  0
    6.7157   -2.2032    0.0000 H   0  0  0  0  0  0  0  0  0  0  0  0
    8.9537   -2.2032    0.0000 H   0  0  0  0  0  0  0  0  0  0  0  0
    9.2101   -1.4140    0.0000 H   0  0  0  0  0  0  0  0  0  0  0  0
   10.5336   -0.0755    0.0000 H   0  0  0  0  0  0  0  0  0  0  0  0
   10.5759   -1.4906    0.0000 H   0  0  0  0  0  0  0  0  0  0  0  0
   10.2526    1.3647    0.0000 H   0  0  0  0  0  0  0  0  0  0  0  0
   12.4515    2.0044    0.0000 H   0  0  0  0  0  0  0  0  0  0  0  0
    6.7566   -3.1714    0.0000 H   0  0  0  0  0  0  0  0  0  0  0  0
    6.3581   -3.8617    0.0000 H   0  0  0  0  0  0  0  0  0  0  0  0
   11.2535   -1.6454    0.0000 H   0  0  0  0  0  0  0  0  0  0  0  0
   11.9349   -1.0936    0.0000 H   0  0  0  0  0  0  0  0  0  0  0  0
   11.3831   -0.4121    0.0000 H   0  0  0  0  0  0  0  0  0  0  0  0
    9.2344   -1.3688    0.0000 H   0  0  0  0  0  0  0  0  0  0  0  0
    9.3715   -2.2348    0.0000 H   0  0  0  0  0  0  0  0  0  0  0  0
   10.2376   -2.0977    0.0000 H   0  0  0  0  0  0  0  0  0  0  0  0
    5.5002   -0.5771    0.0000 H   0  0  0  0  0  0  0  0  0  0  0  0
   11.3159    1.9148    0.0000 H   0  0  0  0  0  0  0  0  0  0  0  0
   12.6988    2.7794    0.0000 H   0  0  0  0  0  0  0  0  0  0  0  0
   12.7822    3.5721    0.0000 H   0  0  0  0  0  0  0  0  0  0  0  0
   10.7507    3.1375    0.0000 H   0  0  0  0  0  0  0  0  0  0  0  0
   10.0692    2.5857    0.0000 H   0  0  0  0  0  0  0  0  0  0  0  0
   10.6210    1.9043    0.0000 H   0  0  0  0  0  0  0  0  0  0  0  0
    6.0854    1.3652    0.0000 H   0  0  0  0  0  0  0  0  0  0  0  0
    6.0020    2.1579    0.0000 H   0  0  0  0  0  0  0  0  0  0  0  0
   15.2805    2.0380    0.0000 H   0  0  0  0  0  0  0  0  0  0  0  0
   12.4278    4.3911    0.0000 H   0  0  0  0  0  0  0  0  0  0  0  0
   11.6092    4.7053    0.0000 H   0  0  0  0  0  0  0  0  0  0  0  0
   11.2950    3.8868    0.0000 H   0  0  0  0  0  0  0  0  0  0  0  0
    8.3716   -4.9440    0.0000 H   0  0  0  0  0  0  0  0  0  0  0  0
    5.5657   -4.9440    0.0000 H   0  0  0  0  0  0  0  0  0  0  0  0
    4.4696    2.8676    0.0000 H   0  0  0  0  0  0  0  0  0  0  0  0
    4.5529    2.0749    0.0000 H   0  0  0  0  0  0  0  0  0  0  0  0
   14.4691    1.0393    0.0000 H   0  0  0  0  0  0  0  0  0  0  0  0
   15.1139    0.5708    0.0000 H   0  0  0  0  0  0  0  0  0  0  0  0
   14.1050    0.4200    0.0000 H   0  0  0  0  0  0  0  0  0  0  0  0
   14.9995    3.4782    0.0000 H   0  0  0  0  0  0  0  0  0  0  0  0
    8.3716   -6.5640    0.0000 H   0  0  0  0  0  0  0  0  0  0  0  0
    5.5657   -6.5640    0.0000 H   0  0  0  0  0  0  0  0  0  0  0  0
    3.8345    2.0692    0.0000 H   0  0  0  0  0  0  0  0  0  0  0  0
   16.6668    1.2347    0.0000 H   0  0  0  0  0  0  0  0  0  0  0  0
   16.0219    1.7032    0.0000 H   0  0  0  0  0  0  0  0  0  0  0  0
    5.9567    3.1823    0.0000 H   0  0  0  0  0  0  0  0  0  0  0  0
    5.6425    4.0008    0.0000 H   0  0  0  0  0  0  0  0  0  0  0  0
    4.8239    3.6866    0.0000 H   0  0  0  0  0  0  0  0  0  0  0  0
    6.9687   -7.3740    0.0000 H   0  0  0  0  0  0  0  0  0  0  0  0
    2.0305    1.1265    0.0000 H   0  0  0  0  0  0  0  0  0  0  0  0
    2.7587    0.8023    0.0000 H   0  0  0  0  0  0  0  0  0  0  0  0
   17.0862    3.0499    0.0000 H   0  0  0  0  0  0  0  0  0  0  0  0
   15.9966    4.9758    0.0000 H   0  0  0  0  0  0  0  0  0  0  0  0
   15.9133    4.1832    0.0000 H   0  0  0  0  0  0  0  0  0  0  0  0
    2.5016    2.5718    0.0000 H   0  0  0  0  0  0  0  0  0  0  0  0
    1.6356    2.7089    0.0000 H   0  0  0  0  0  0  0  0  0  0  0  0
    1.4984    1.8429    0.0000 H   0  0  0  0  0  0  0  0  0  0  0  0
   18.1930    4.0134    0.0000 H   0  0  0  0  0  0  0  0  0  0  0  0
   17.7186   -0.4998    0.0000 H   0  0  0  0  0  0  0  0  0  0  0  0
   19.1650    1.8771    0.0000 H   0  0  0  0  0  0  0  0  0  0  0  0
   19.8464    2.4289    0.0000 H   0  0  0  0  0  0  0  0  0  0  0  0
   19.2946    3.1103    0.0000 H   0  0  0  0  0  0  0  0  0  0  0  0
   16.9728    6.7540    0.0000 H   0  0  0  0  0  0  0  0  0  0  0  0
 23  1  1  6  0  0  0
  1 31  1  0  0  0  0
  2 27  2  0  0  0  0
  3 28  2  0  0  0  0
  4 34  2  0  0  0  0
  5 18  1  0  0  0  0
  5 99  1  0  0  0  0
  6 40  2  0  0  0  0
  7 43  2  0  0  0  0
  8 53  2  0  0  0  0
  9 56  1  0  0  0  0
  9119  1  0  0  0  0
 10 56  2  0  0  0  0
 11 59  1  0  0  0  0
 11123  1  0  0  0  0
 12 59  2  0  0  0  0
 13 60  2  0  0  0  0
 14 22  1  0  0  0  0
 14 25  1  0  0  0  0
 14 27  1  0  0  0  0
 26 15  1  1  0  0  0
 15 34  1  0  0  0  0
 15 70  1  0  0  0  0
 16 17  1  0  0  0  0
 16 28  1  0  0  0  0
 16 80  1  0  0  0  0
 17 39  1  0  0  0  0
 17 43  1  0  0  0  0
 30 18  1  6  0  0  0
 18 40  1  0  0  0  0
 41 19  1  6  0  0  0
 19 53  1  0  0  0  0
 19100  1  0  0  0  0
 20 43  1  0  0  0  0
 20 54  1  0  0  0  0
 20103  1  0  0  0  0
 55 21  1  6  0  0  0
 21 60  1  0  0  0  0
 21118  1  0  0  0  0
 22 24  1  0  0  0  0
 22 28  1  1  0  0  0
 22 62  1  0  0  0  0
 23 24  1  0  0  0  0
 23 25  1  0  0  0  0
 23 63  1  0  0  0  0
 24 64  1  0  0  0  0
 24 65  1  0  0  0  0
 25 66  1  0  0  0  0
 25 67  1  0  0  0  0
 26 27  1  0  0  0  0
 26 29  1  0  0  0  0
 26 68  1  0  0  0  0
 29 32  1  0  0  0  0
 29 33  1  0  0  0  0
 29 69  1  0  0  0  0
 30 34  1  0  0  0  0
 30 35  1  0  0  0  0
 30 71  1  0  0  0  0
 31 37  1  0  0  0  0
 31 72  1  0  0  0  0
 31 73  1  0  0  0  0
 32 74  1  0  0  0  0
 32 75  1  0  0  0  0
 32 76  1  0  0  0  0
 33 77  1  0  0  0  0
 33 78  1  0  0  0  0
 33 79  1  0  0  0  0
 35 36  1  0  0  0  0
 35 38  1  1  0  0  0
 35 81  1  0  0  0  0
 36 42  1  0  0  0  0
 36 82  1  0  0  0  0
 36 83  1  0  0  0  0
 37 44  2  0  0  0  0
 37 45  1  0  0  0  0
 38 84  1  0  0  0  0
 38 85  1  0  0  0  0
 38 86  1  0  0  0  0
 39 46  1  0  0  0  0
 39 87  1  0  0  0  0
 39 88  1  0  0  0  0
 40 41  1  0  0  0  0
 41 47  1  0  0  0  0
 41 89  1  0  0  0  0
 42 90  1  0  0  0  0
 42 91  1  0  0  0  0
 42 92  1  0  0  0  0
 44 48  1  0  0  0  0
 44 93  1  0  0  0  0
 45 49  2  0  0  0  0
 45 94  1  0  0  0  0
 46 51  1  0  0  0  0
 46 95  1  0  0  0  0
 46 96  1  0  0  0  0
 47 50  1  0  0  0  0
 47 97  1  0  0  0  0
 47 98  1  0  0  0  0
 48 52  2  0  0  0  0
 48101  1  0  0  0  0
 49 52  1  0  0  0  0
 49102  1  0  0  0  0
 50 56  1  0  0  0  0
 50104  1  0  0  0  0
 50105  1  0  0  0  0
 51106  1  0  0  0  0
 51107  1  0  0  0  0
 51108  1  0  0  0  0
 52109  1  0  0  0  0
 53 55  1  0  0  0  0
 54 58  1  0  0  0  0
 54110  1  0  0  0  0
 54111  1  0  0  0  0
 55 57  1  0  0  0  0
 55112  1  0  0  0  0
 57 59  1  0  0  0  0
 57113  1  0  0  0  0
 57114  1  0  0  0  0
 58115  1  0  0  0  0
 58116  1  0  0  0  0
 58117  1  0  0  0  0
 60 61  1  0  0  0  0
 61120  1  0  0  0  0
 61121  1  0  0  0  0
 61122  1  0  0  0  0
M  END
> <PUBCHEM_COMPOUND_CID>
500618
> <PUBCHEM_COMPOUND_CANONICALIZED>
1
> <PUBCHEM_CACTVS_COMPLEXITY>
1540
> <PUBCHEM_CACTVS_HBOND_ACCEPTOR>
13
> <PUBCHEM_CACTVS_HBOND_DONOR>
8
> <PUBCHEM_CACTVS_ROTATABLE_BOND>
23
> <PUBCHEM_CACTVS_SUBSKEYS>
AAADcfB//AAAAAAAAAAAAAAAAAAAAWAAAAAwAAAAAAAAAAABAAAAHgAcCAAADTzhmAYzCIPyBgCIAiHSGAACAAAgAAA+qIGICIiKZjqAsTiXcAA+1gOYqAe/1yIOAAAAAAAAAAAAAAAAAAAAAAAAAAAAAA==
> <PUBCHEM_IUPAC_OPENEYE_NAME>
(4R)-4-[[(2S)-2-acetamido-3-carboxy-propanoyl]amino]-5-[[(1S,2S)-1-[[(1S)-1-[(2S,4R)-4-benzyloxy-2-[[ethylcarbamoyl(propyl)amino]carbamoyl]pyrrolidine-1-carbonyl]-2-methyl-propyl]carbamoyl]-2-methyl-butyl]-hydroxy-amino]-5-oxo-pentanoic acid
> <PUBCHEM_IUPAC_CAS_NAME>
(4R)-4-[[(2S)-2-acetamido-3-carboxy-1-oxopropyl]amino]-5-[[(2S,3S)-1-[[(2S)-1-[(2S,4R)-2-[[2-(ethylcarbamoyl)-2-propylhydrazinyl]-oxomethyl]-4-phenylmethoxy-1-pyrrolidinyl]-3-methyl-1-oxobutan-2-yl]amino]-3-methyl-1-oxopentan-2-yl]-hydroxyamino]-5-oxopentanoic acid
> <PUBCHEM_IUPAC_NAME_MARKUP>
(4<I>R</I>)-4-[[(2<I>S</I>)-2-acetamido-3-carboxypropanoyl]amino]-5-[[(2<I>S</I>,3<I>S</I>)-1-[[(2<I>S</I>)-1-[(2<I>S</I>,4<I>R</I>)-2-[[ethylcarbamoyl(propyl)amino]carbamoyl]-4-phenylmethoxypyrrolidin-1-yl]-3-methyl-1-oxobutan-2-yl]amino]-3-methyl-1-oxopentan-2-yl]-hydroxyamino]-5-oxopentanoic acid
> <PUBCHEM_IUPAC_NAME>
(4R)-4-[[(2S)-2-acetamido-3-carboxypropanoyl]amino]-5-[[(2S,3S)-1-[[(2S)-1-[(2S,4R)-2-[[ethylcarbamoyl(propyl)amino]carbamoyl]-4-phenylmethoxypyrrolidin-1-yl]-3-methyl-1-oxobutan-2-yl]amino]-3-methyl-1-oxopentan-2-yl]-hydroxyamino]-5-oxopentanoic acid
> <PUBCHEM_IUPAC_SYSTEMATIC_NAME>
(4R)-4-[[(2S)-2-acetamido-4-oxidanyl-4-oxidanylidene-butanoyl]amino]-5-[[(2S,3S)-1-[[(2S)-1-[(2S,4R)-2-[[ethylcarbamoyl(propyl)amino]carbamoyl]-4-phenylmethoxy-pyrrolidin-1-yl]-3-methyl-1-oxidanylidene-butan-2-yl]amino]-3-methyl-1-oxidanylidene-pentan-2-yl]-oxidanyl-amino]-5-oxidanylidene-pentanoic acid
> <PUBCHEM_IUPAC_TRADITIONAL_NAME>
(4R)-4-[[(2S)-2-acetamido-3-carboxy-propanoyl]amino]-5-[[(1S,2S)-1-[[(1S)-1-[(2S,4R)-4-benzoxy-2-[[ethylcarbamoyl(propyl)amino]carbamoyl]pyrrolidine-1-carbonyl]-2-methyl-propyl]carbamoyl]-2-methyl-butyl]-hydroxy-amino]-5-keto-valeric acid
> <PUBCHEM_IUPAC_INCHI>
InChI=1S/C40H62N8O13/c1-8-18-47(40(59)41-10-3)45-36(55)30-19-27(61-22-26-14-12-11-13-15-26)21-46(30)39(58)33(23(4)5)44-37(56)34(24(6)9-2)48(60)38(57)28(16-17-31(50)51)43-35(54)29(20-32(52)53)42-25(7)49/h11-15,23-24,27-30,33-34,60H,8-10,16-22H2,1-7H3,(H,41,59)(H,42,49)(H,43,54)(H,44,56)(H,45,55)(H,50,51)(H,52,53)/t24-,27+,28+,29-,30-,33-,34-/m0/s1
> <PUBCHEM_IUPAC_INCHIKEY>
GICNSTREUBLVTG-BWFWWLJTSA-N
> <PUBCHEM_XLOGP3_AA>
1
> <PUBCHEM_EXACT_MASS>
862.44363406
> <PUBCHEM_MOLECULAR_FORMULA>
C40H62N8O13
> <PUBCHEM_MOLECULAR_WEIGHT>
863.0
> <PUBCHEM_OPENEYE_CAN_SMILES>
CCCN(C(=O)NCC)NC(=O)C1CC(CN1C(=O)C(C(C)C)NC(=O)C(C(C)CC)N(C(=O)C(CCC(=O)O)NC(=O)C(CC(=O)O)NC(=O)C)O)OCC2=CC=CC=C2
> <PUBCHEM_OPENEYE_ISO_SMILES>
CCCN(C(=O)NCC)NC(=O)[C@@H]1C[C@H](CN1C(=O)[C@H](C(C)C)NC(=O)[C@H]([C@@H](C)CC)N(C(=O)[C@@H](CCC(=O)O)NC(=O)[C@H](CC(=O)O)NC(=O)C)O)OCC2=CC=CC=C2
> <PUBCHEM_CACTVS_TPSA>
293
> <PUBCHEM_MONOISOTOPIC_WEIGHT>
862.44363406
> <PUBCHEM_TOTAL_CHARGE>
0
> <PUBCHEM_HEAVY_ATOM_COUNT>
61
> <PUBCHEM_ATOM_DEF_STEREO_COUNT>
7
> <PUBCHEM_ATOM_UDEF_STEREO_COUNT>
0
> <PUBCHEM_BOND_DEF_STEREO_COUNT>
0
> <PUBCHEM_BOND_UDEF_STEREO_COUNT>
0
> <PUBCHEM_ISOTOPIC_ATOM_COUNT>
0
> <PUBCHEM_COMPONENT_COUNT>
1
> <PUBCHEM_CACTVS_TAUTO_COUNT>
-1
> <PUBCHEM_COORDINATE_TYPE>
1
5
255
> <PUBCHEM_BONDANNOTATIONS>
23  1  6
26  15  5
30  18  6
41  19  6
55  21  6
22  28  5
35  38  5
37  44  8
37  45  8
44  48  8
45  49  8
48  52  8
49  52  8
$$$$
