500663
  -OEChem-10302200282D
 97101  0     1  0  0  0  0  0999 V2000
    9.9737    5.5677    0.0000 O   0  0  0  0  0  0  0  0  0  0  0  0
   10.1548    3.8452    0.0000 O   0  0  0  0  0  0  0  0  0  0  0  0
    6.3981    0.2111    0.0000 O   0  0  0  0  0  0  0  0  0  0  0  0
    9.7480    2.9316    0.0000 O   0  0  0  0  0  0  0  0  0  0  0  0
   10.4291    1.7520    0.0000 O   0  0  0  0  0  0  0  0  0  0  0  0
    2.8680   -2.8130    0.0000 O   0  0  0  0  0  0  0  0  0  0  0  0
   12.2817   -4.5383    0.0000 O   0  0  0  0  0  0  0  0  0  0  0  0
    8.1657    3.6361    0.0000 N   0  0  0  0  0  0  0  0  0  0  0  0
    8.8468    1.0475    0.0000 N   0  0  0  0  0  0  0  0  0  0  0  0
   11.2426   -0.0751    0.0000 N   0  0  0  0  0  0  0  0  0  0  0  0
    6.3981   -2.7889    0.0000 N   0  0  0  0  0  0  0  0  0  0  0  0
   13.8640   -3.8338    0.0000 N   0  0  0  0  0  0  0  0  0  0  0  0
    8.5725    4.5497    0.0000 C   0  0  3  0  0  0  0  0  0  0  0  0
    7.6589    4.9564    0.0000 C   0  0  2  0  0  0  0  0  0  0  0  0
    8.4679    5.5442    0.0000 C   0  0  0  0  0  0  0  0  0  0  0  0
    9.5670    4.6542    0.0000 C   0  0  0  0  0  0  0  0  0  0  0  0
    6.6644    4.8519    0.0000 C   0  0  0  0  0  0  0  0  0  0  0  0
    8.3468    1.9136    0.0000 C   0  0  2  0  0  0  0  0  0  0  0  0
    8.7535    2.8271    0.0000 C   0  0  0  0  0  0  0  0  0  0  0  0
    7.3686    1.7056    0.0000 C   0  0  0  0  0  0  0  0  0  0  0  0
    7.2641    0.7111    0.0000 C   0  0  2  0  0  0  0  0  0  0  0  0
    8.1776    0.3044    0.0000 C   0  0  0  0  0  0  0  0  0  0  0  0
    9.8413    0.9430    0.0000 C   0  0  0  0  0  0  0  0  0  0  0  0
    6.0766    5.6609    0.0000 C   0  0  0  0  0  0  0  0  0  0  0  0
   10.2480    0.0294    0.0000 C   0  0  2  0  0  0  0  0  0  0  0  0
    9.6602   -0.7796    0.0000 C   0  0  0  0  0  0  0  0  0  0  0  0
   10.4693   -1.3674    0.0000 C   0  0  0  0  0  0  0  0  0  0  0  0
    8.8512   -0.1918    0.0000 C   0  0  0  0  0  0  0  0  0  0  0  0
    9.0725   -1.5886    0.0000 C   0  0  0  0  0  0  0  0  0  0  0  0
    6.3981   -0.7889    0.0000 C   0  0  0  0  0  0  0  0  0  0  0  0
   11.6493   -0.9886    0.0000 C   0  0  0  0  0  0  0  0  0  0  0  0
    5.5320   -1.2889    0.0000 C   0  0  0  0  0  0  0  0  0  0  0  0
    7.2641   -1.2889    0.0000 C   0  0  0  0  0  0  0  0  0  0  0  0
   11.0615   -1.7976    0.0000 C   0  0  0  0  0  0  0  0  0  0  0  0
   12.6438   -1.0932    0.0000 C   0  0  0  0  0  0  0  0  0  0  0  0
    5.5320   -2.2889    0.0000 C   0  0  0  0  0  0  0  0  0  0  0  0
    4.6381   -0.7542    0.0000 C   0  0  0  0  0  0  0  0  0  0  0  0
    7.2641   -2.2889    0.0000 C   0  0  0  0  0  0  0  0  0  0  0  0
   11.4682   -2.7112    0.0000 C   0  0  0  0  0  0  0  0  0  0  0  0
   13.0505   -2.0067    0.0000 C   0  0  0  0  0  0  0  0  0  0  0  0
   12.4628   -2.8157    0.0000 C   0  0  0  0  0  0  0  0  0  0  0  0
    4.6381   -2.8236    0.0000 C   0  0  0  0  0  0  0  0  0  0  0  0
    3.7320   -1.2681    0.0000 C   0  0  0  0  0  0  0  0  0  0  0  0
    3.7320   -2.3097    0.0000 C   0  0  0  0  0  0  0  0  0  0  0  0
   12.8695   -3.7293    0.0000 C   0  0  0  0  0  0  0  0  0  0  0  0
   14.2708   -4.7473    0.0000 C   0  0  0  0  0  0  0  0  0  0  0  0
   14.6775   -5.6609    0.0000 C   0  0  0  0  0  0  0  0  0  0  0  0
   15.1843   -4.3406    0.0000 C   0  0  0  0  0  0  0  0  0  0  0  0
   13.3572   -5.1541    0.0000 C   0  0  0  0  0  0  0  0  0  0  0  0
    2.0000   -2.3164    0.0000 C   0  0  0  0  0  0  0  0  0  0  0  0
    7.5619    4.3440    0.0000 H   0  0  0  0  0  0  0  0  0  0  0  0
    9.0639    5.7151    0.0000 H   0  0  0  0  0  0  0  0  0  0  0  0
    8.1961    6.1014    0.0000 H   0  0  0  0  0  0  0  0  0  0  0  0
    7.5491    3.5713    0.0000 H   0  0  0  0  0  0  0  0  0  0  0  0
    6.4122    4.2855    0.0000 H   0  0  0  0  0  0  0  0  0  0  0  0
    8.9659    1.9460    0.0000 H   0  0  0  0  0  0  0  0  0  0  0  0
    7.3038    2.3222    0.0000 H   0  0  0  0  0  0  0  0  0  0  0  0
    6.7486    1.7056    0.0000 H   0  0  0  0  0  0  0  0  0  0  0  0
    7.2966    0.0920    0.0000 H   0  0  0  0  0  0  0  0  0  0  0  0
    7.8676   -0.2326    0.0000 H   0  0  0  0  0  0  0  0  0  0  0  0
    8.6792   -0.0600    0.0000 H   0  0  0  0  0  0  0  0  0  0  0  0
    6.3288    6.2273    0.0000 H   0  0  0  0  0  0  0  0  0  0  0  0
    5.4600    5.5961    0.0000 H   0  0  0  0  0  0  0  0  0  0  0  0
   10.6125    0.5310    0.0000 H   0  0  0  0  0  0  0  0  0  0  0  0
   10.5903    5.6325    0.0000 H   0  0  0  0  0  0  0  0  0  0  0  0
   11.6070    0.4265    0.0000 H   0  0  0  0  0  0  0  0  0  0  0  0
   10.1048   -1.8689    0.0000 H   0  0  0  0  0  0  0  0  0  0  0  0
   10.9709   -1.7318    0.0000 H   0  0  0  0  0  0  0  0  0  0  0  0
   10.8337   -0.8658    0.0000 H   0  0  0  0  0  0  0  0  0  0  0  0
    9.2157    0.3098    0.0000 H   0  0  0  0  0  0  0  0  0  0  0  0
    8.3496    0.1726    0.0000 H   0  0  0  0  0  0  0  0  0  0  0  0
    8.4868   -0.6934    0.0000 H   0  0  0  0  0  0  0  0  0  0  0  0
    8.5709   -1.2242    0.0000 H   0  0  0  0  0  0  0  0  0  0  0  0
    8.7080   -2.0902    0.0000 H   0  0  0  0  0  0  0  0  0  0  0  0
    9.5740   -1.9530    0.0000 H   0  0  0  0  0  0  0  0  0  0  0  0
    7.8010   -0.9789    0.0000 H   0  0  0  0  0  0  0  0  0  0  0  0
   10.4449   -1.7328    0.0000 H   0  0  0  0  0  0  0  0  0  0  0  0
   13.0082   -0.5916    0.0000 H   0  0  0  0  0  0  0  0  0  0  0  0
    4.6453   -0.1343    0.0000 H   0  0  0  0  0  0  0  0  0  0  0  0
    7.8010   -2.5989    0.0000 H   0  0  0  0  0  0  0  0  0  0  0  0
   11.1038   -3.2128    0.0000 H   0  0  0  0  0  0  0  0  0  0  0  0
   13.6672   -2.0715    0.0000 H   0  0  0  0  0  0  0  0  0  0  0  0
    4.6453   -3.4435    0.0000 H   0  0  0  0  0  0  0  0  0  0  0  0
    3.1963   -0.9560    0.0000 H   0  0  0  0  0  0  0  0  0  0  0  0
   14.2284   -3.3322    0.0000 H   0  0  0  0  0  0  0  0  0  0  0  0
   14.1111   -5.9131    0.0000 H   0  0  0  0  0  0  0  0  0  0  0  0
   14.9297   -6.2273    0.0000 H   0  0  0  0  0  0  0  0  0  0  0  0
   15.2439   -5.4087    0.0000 H   0  0  0  0  0  0  0  0  0  0  0  0
   15.4365   -4.9070    0.0000 H   0  0  0  0  0  0  0  0  0  0  0  0
   15.7507   -4.0884    0.0000 H   0  0  0  0  0  0  0  0  0  0  0  0
   14.9321   -3.7742    0.0000 H   0  0  0  0  0  0  0  0  0  0  0  0
   13.1050   -4.5877    0.0000 H   0  0  0  0  0  0  0  0  0  0  0  0
   12.7908   -5.4062    0.0000 H   0  0  0  0  0  0  0  0  0  0  0  0
   13.6094   -5.7205    0.0000 H   0  0  0  0  0  0  0  0  0  0  0  0
    2.3079   -1.7782    0.0000 H   0  0  0  0  0  0  0  0  0  0  0  0
    1.4619   -2.0084    0.0000 H   0  0  0  0  0  0  0  0  0  0  0  0
    1.6921   -2.8545    0.0000 H   0  0  0  0  0  0  0  0  0  0  0  0
  1 16  1  0  0  0  0
  1 65  1  0  0  0  0
  2 16  2  0  0  0  0
 21  3  1  6  0  0  0
  3 30  1  0  0  0  0
  4 19  2  0  0  0  0
  5 23  2  0  0  0  0
  6 44  1  0  0  0  0
  6 50  1  0  0  0  0
  7 45  2  0  0  0  0
  8 13  1  0  0  0  0
  8 19  1  0  0  0  0
  8 54  1  0  0  0  0
  9 18  1  0  0  0  0
  9 22  1  0  0  0  0
  9 23  1  0  0  0  0
 25 10  1  1  0  0  0
 10 31  1  0  0  0  0
 10 66  1  0  0  0  0
 11 36  2  0  0  0  0
 11 38  1  0  0  0  0
 12 45  1  0  0  0  0
 12 46  1  0  0  0  0
 12 85  1  0  0  0  0
 13 14  1  0  0  0  0
 13 15  1  0  0  0  0
 13 16  1  0  0  0  0
 14 15  1  0  0  0  0
 14 17  1  1  0  0  0
 14 51  1  0  0  0  0
 15 52  1  0  0  0  0
 15 53  1  0  0  0  0
 17 24  2  0  0  0  0
 17 55  1  0  0  0  0
 18 19  1  1  0  0  0
 18 20  1  0  0  0  0
 18 56  1  0  0  0  0
 20 21  1  0  0  0  0
 20 57  1  0  0  0  0
 20 58  1  0  0  0  0
 21 22  1  0  0  0  0
 21 59  1  0  0  0  0
 22 60  1  0  0  0  0
 22 61  1  0  0  0  0
 23 25  1  0  0  0  0
 24 62  1  0  0  0  0
 24 63  1  0  0  0  0
 25 26  1  0  0  0  0
 25 64  1  0  0  0  0
 26 27  1  0  0  0  0
 26 28  1  0  0  0  0
 26 29  1  0  0  0  0
 27 67  1  0  0  0  0
 27 68  1  0  0  0  0
 27 69  1  0  0  0  0
 28 70  1  0  0  0  0
 28 71  1  0  0  0  0
 28 72  1  0  0  0  0
 29 73  1  0  0  0  0
 29 74  1  0  0  0  0
 29 75  1  0  0  0  0
 30 32  2  0  0  0  0
 30 33  1  0  0  0  0
 31 34  2  0  0  0  0
 31 35  1  0  0  0  0
 32 36  1  0  0  0  0
 32 37  1  0  0  0  0
 33 38  2  0  0  0  0
 33 76  1  0  0  0  0
 34 39  1  0  0  0  0
 34 77  1  0  0  0  0
 35 40  2  0  0  0  0
 35 78  1  0  0  0  0
 36 42  1  0  0  0  0
 37 43  2  0  0  0  0
 37 79  1  0  0  0  0
 38 80  1  0  0  0  0
 39 41  2  0  0  0  0
 39 81  1  0  0  0  0
 40 41  1  0  0  0  0
 40 82  1  0  0  0  0
 41 45  1  0  0  0  0
 42 44  2  0  0  0  0
 42 83  1  0  0  0  0
 43 44  1  0  0  0  0
 43 84  1  0  0  0  0
 46 47  1  0  0  0  0
 46 48  1  0  0  0  0
 46 49  1  0  0  0  0
 47 86  1  0  0  0  0
 47 87  1  0  0  0  0
 47 88  1  0  0  0  0
 48 89  1  0  0  0  0
 48 90  1  0  0  0  0
 48 91  1  0  0  0  0
 49 92  1  0  0  0  0
 49 93  1  0  0  0  0
 49 94  1  0  0  0  0
 50 95  1  0  0  0  0
 50 96  1  0  0  0  0
 50 97  1  0  0  0  0
M  END
> <PUBCHEM_COMPOUND_CID>
500663
> <PUBCHEM_COMPOUND_CANONICALIZED>
1
> <PUBCHEM_CACTVS_COMPLEXITY>
1270
> <PUBCHEM_CACTVS_HBOND_ACCEPTOR>
9
> <PUBCHEM_CACTVS_HBOND_DONOR>
4
> <PUBCHEM_CACTVS_ROTATABLE_BOND>
13
> <PUBCHEM_CACTVS_SUBSKEYS>
AAADcfB/uAAAAAAAAAAAAAAAGAAAAWAAAAA8YIAAAAAAAACx9AAAHgAQCAAAD7zhngY+zvPIFgCoAzX3XACCiCA1IiAI2KG+bNgOZvLEtbuXeSjm1hnY6Ye6+a+fKAAAAgACAABQAAAEAAQAAAAAAAAAAA==
> <PUBCHEM_IUPAC_OPENEYE_NAME>
(2R)-1-[[(2S,4R)-1-[(2S)-2-[4-(tert-butylcarbamoyl)anilino]-3,3-dimethyl-butanoyl]-4-[(7-methoxy-4-quinolyl)oxy]pyrrolidine-2-carbonyl]amino]-2-vinyl-cyclopropanecarboxylic acid
> <PUBCHEM_IUPAC_CAS_NAME>
(2R)-1-[[[(2S,4R)-1-[(2S)-2-[4-[(tert-butylamino)-oxomethyl]anilino]-3,3-dimethyl-1-oxobutyl]-4-[(7-methoxy-4-quinolinyl)oxy]-2-pyrrolidinyl]-oxomethyl]amino]-2-ethenyl-1-cyclopropanecarboxylic acid
> <PUBCHEM_IUPAC_NAME_MARKUP>
(2<I>R</I>)-1-[[(2<I>S</I>,4<I>R</I>)-1-[(2<I>S</I>)-2-[4-(<I>tert</I>-butylcarbamoyl)anilino]-3,3-dimethylbutanoyl]-4-(7-methoxyquinolin-4-yl)oxypyrrolidine-2-carbonyl]amino]-2-ethenylcyclopropane-1-carboxylic acid
> <PUBCHEM_IUPAC_NAME>
(2R)-1-[[(2S,4R)-1-[(2S)-2-[4-(tert-butylcarbamoyl)anilino]-3,3-dimethylbutanoyl]-4-(7-methoxyquinolin-4-yl)oxypyrrolidine-2-carbonyl]amino]-2-ethenylcyclopropane-1-carboxylic acid
> <PUBCHEM_IUPAC_SYSTEMATIC_NAME>
(2R)-1-[[(2S,4R)-1-[(2S)-2-[[4-(tert-butylcarbamoyl)phenyl]amino]-3,3-dimethyl-butanoyl]-4-(7-methoxyquinolin-4-yl)oxy-pyrrolidin-2-yl]carbonylamino]-2-ethenyl-cyclopropane-1-carboxylic acid
> <PUBCHEM_IUPAC_TRADITIONAL_NAME>
(2R)-1-[[(2S,4R)-1-[(2S)-2-[4-(tert-butylcarbamoyl)anilino]-3,3-dimethyl-butanoyl]-4-[(7-methoxy-4-quinolyl)oxy]prolyl]amino]-2-vinyl-cyclopropanecarboxylic acid
> <PUBCHEM_IUPAC_INCHI>
InChI=1S/C38H47N5O7/c1-9-23-20-38(23,35(47)48)42-33(45)29-19-26(50-30-16-17-39-28-18-25(49-8)14-15-27(28)30)21-43(29)34(46)31(36(2,3)4)40-24-12-10-22(11-13-24)32(44)41-37(5,6)7/h9-18,23,26,29,31,40H,1,19-21H2,2-8H3,(H,41,44)(H,42,45)(H,47,48)/t23-,26+,29-,31+,38?/m0/s1
> <PUBCHEM_IUPAC_INCHIKEY>
ZAHJXAWUMQORFO-NBLVJPJISA-N
> <PUBCHEM_XLOGP3_AA>
5.4
> <PUBCHEM_EXACT_MASS>
685.34754886
> <PUBCHEM_MOLECULAR_FORMULA>
C38H47N5O7
> <PUBCHEM_MOLECULAR_WEIGHT>
685.8
> <PUBCHEM_OPENEYE_CAN_SMILES>
CC(C)(C)C(C(=O)N1CC(CC1C(=O)NC2(CC2C=C)C(=O)O)OC3=C4C=CC(=CC4=NC=C3)OC)NC5=CC=C(C=C5)C(=O)NC(C)(C)C
> <PUBCHEM_OPENEYE_ISO_SMILES>
CC(C)(C)[C@@H](C(=O)N1C[C@@H](C[C@H]1C(=O)NC2(C[C@@H]2C=C)C(=O)O)OC3=C4C=CC(=CC4=NC=C3)OC)NC5=CC=C(C=C5)C(=O)NC(C)(C)C
> <PUBCHEM_CACTVS_TPSA>
159
> <PUBCHEM_MONOISOTOPIC_WEIGHT>
685.34754886
> <PUBCHEM_TOTAL_CHARGE>
0
> <PUBCHEM_HEAVY_ATOM_COUNT>
50
> <PUBCHEM_ATOM_DEF_STEREO_COUNT>
4
> <PUBCHEM_ATOM_UDEF_STEREO_COUNT>
1
> <PUBCHEM_BOND_DEF_STEREO_COUNT>
0
> <PUBCHEM_BOND_UDEF_STEREO_COUNT>
0
> <PUBCHEM_ISOTOPIC_ATOM_COUNT>
0
> <PUBCHEM_COMPONENT_COUNT>
1
> <PUBCHEM_CACTVS_TAUTO_COUNT>
-1
> <PUBCHEM_COORDINATE_TYPE>
1
5
255
> <PUBCHEM_BONDANNOTATIONS>
25  10  5
11  36  8
11  38  8
13  16  3
14  17  5
18  19  5
21  3  6
30  32  8
30  33  8
31  34  8
31  35  8
32  36  8
32  37  8
33  38  8
34  39  8
35  40  8
36  42  8
37  43  8
39  41  8
40  41  8
42  44  8
43  44  8
$$$$
