500645
  -OEChem-10302200282D
 87 91  0     1  0  0  0  0  0999 V2000
    5.2579    4.6977    0.0000 O   0  0  0  0  0  0  0  0  0  0  0  0
    8.8335   -0.6589    0.0000 O   0  0  0  0  0  0  0  0  0  0  0  0
    6.6591    3.6796    0.0000 O   0  0  0  0  0  0  0  0  0  0  0  0
    7.0659    2.7661    0.0000 O   0  0  0  0  0  0  0  0  0  0  0  0
    4.8025    0.8820    0.0000 O   0  0  0  0  0  0  0  0  0  0  0  0
    5.7524   -3.3722    0.0000 O   0  0  0  0  0  0  0  0  0  0  0  0
    4.1701   -2.6677    0.0000 O   0  0  0  0  0  0  0  0  0  0  0  0
    5.4836    2.0616    0.0000 N   0  0  0  0  0  0  0  0  0  0  0  0
    6.3848    0.1775    0.0000 N   0  0  0  0  0  0  0  0  0  0  0  0
    5.5714   -1.6496    0.0000 N   0  0  0  0  0  0  0  0  0  0  0  0
    5.0768    2.9751    0.0000 C   0  0  3  0  0  0  0  0  0  0  0  0
    4.1633    2.5684    0.0000 C   0  0  2  0  0  0  0  0  0  0  0  0
    4.2678    3.5629    0.0000 C   0  0  0  0  0  0  0  0  0  0  0  0
    6.8848    1.0435    0.0000 C   0  0  2  0  0  0  0  0  0  0  0  0
    5.6646    3.7841    0.0000 C   0  0  0  0  0  0  0  0  0  0  0  0
    3.5755    1.7594    0.0000 C   0  0  0  0  0  0  0  0  0  0  0  0
    6.4781    1.9570    0.0000 C   0  0  0  0  0  0  0  0  0  0  0  0
    7.8630    0.8356    0.0000 C   0  0  0  0  0  0  0  0  0  0  0  0
    7.9675   -0.1589    0.0000 C   0  0  2  0  0  0  0  0  0  0  0  0
    3.9890   -0.9451    0.0000 C   0  0  0  0  0  0  0  0  0  0  0  0
    7.0540   -0.5657    0.0000 C   0  0  0  0  0  0  0  0  0  0  0  0
    4.9836   -0.8406    0.0000 C   0  0  1  0  0  0  0  0  0  0  0  0
    5.3903    0.0729    0.0000 C   0  0  0  0  0  0  0  0  0  0  0  0
    3.4013   -0.1361    0.0000 C   0  0  0  0  0  0  0  0  0  0  0  0
    3.5823   -1.8587    0.0000 C   0  0  0  0  0  0  0  0  0  0  0  0
    2.4067   -0.2406    0.0000 C   0  0  0  0  0  0  0  0  0  0  0  0
    2.5878   -1.9632    0.0000 C   0  0  0  0  0  0  0  0  0  0  0  0
    2.0000   -1.1542    0.0000 C   0  0  0  0  0  0  0  0  0  0  0  0
    2.5810    1.8639    0.0000 C   0  0  0  0  0  0  0  0  0  0  0  0
    9.6996   -0.1589    0.0000 C   0  0  0  0  0  0  0  0  0  0  0  0
    5.1646   -2.5632    0.0000 C   0  0  0  0  0  0  0  0  0  0  0  0
   10.5656   -0.6589    0.0000 C   0  0  0  0  0  0  0  0  0  0  0  0
    9.6996    0.8411    0.0000 C   0  0  0  0  0  0  0  0  0  0  0  0
    5.3457   -4.2857    0.0000 C   0  0  0  0  0  0  0  0  0  0  0  0
   11.4316   -0.1589    0.0000 C   0  0  0  0  0  0  0  0  0  0  0  0
   10.5656    1.3411    0.0000 C   0  0  0  0  0  0  0  0  0  0  0  0
   11.4316    0.8411    0.0000 C   0  0  0  0  0  0  0  0  0  0  0  0
    4.9389   -5.1993    0.0000 C   0  0  0  0  0  0  0  0  0  0  0  0
    6.2592   -4.6925    0.0000 C   0  0  0  0  0  0  0  0  0  0  0  0
    4.4321   -3.8790    0.0000 C   0  0  0  0  0  0  0  0  0  0  0  0
   12.3255   -0.6936    0.0000 C   0  0  0  0  0  0  0  0  0  0  0  0
   12.3255    1.3757    0.0000 C   0  0  0  0  0  0  0  0  0  0  0  0
   13.2316   -0.1798    0.0000 C   0  0  0  0  0  0  0  0  0  0  0  0
   13.2316    0.8619    0.0000 C   0  0  0  0  0  0  0  0  0  0  0  0
    3.5845    2.7906    0.0000 H   0  0  0  0  0  0  0  0  0  0  0  0
    4.5396    4.1202    0.0000 H   0  0  0  0  0  0  0  0  0  0  0  0
    3.6718    3.7338    0.0000 H   0  0  0  0  0  0  0  0  0  0  0  0
    5.1191    1.5600    0.0000 H   0  0  0  0  0  0  0  0  0  0  0  0
    6.2657    1.0760    0.0000 H   0  0  0  0  0  0  0  0  0  0  0  0
    3.8277    1.1930    0.0000 H   0  0  0  0  0  0  0  0  0  0  0  0
    8.4830    0.8356    0.0000 H   0  0  0  0  0  0  0  0  0  0  0  0
    7.9278    1.4522    0.0000 H   0  0  0  0  0  0  0  0  0  0  0  0
    7.9350   -0.7781    0.0000 H   0  0  0  0  0  0  0  0  0  0  0  0
    4.2412   -0.3787    0.0000 H   0  0  0  0  0  0  0  0  0  0  0  0
    6.5524   -0.9301    0.0000 H   0  0  0  0  0  0  0  0  0  0  0  0
    7.3640   -1.1026    0.0000 H   0  0  0  0  0  0  0  0  0  0  0  0
    5.6002   -0.7758    0.0000 H   0  0  0  0  0  0  0  0  0  0  0  0
    3.9585    0.1357    0.0000 H   0  0  0  0  0  0  0  0  0  0  0  0
    3.2304    0.4599    0.0000 H   0  0  0  0  0  0  0  0  0  0  0  0
    3.5391   -2.4772    0.0000 H   0  0  0  0  0  0  0  0  0  0  0  0
    4.1839   -2.0087    0.0000 H   0  0  0  0  0  0  0  0  0  0  0  0
    2.4500    0.3778    0.0000 H   0  0  0  0  0  0  0  0  0  0  0  0
    1.8052   -0.0906    0.0000 H   0  0  0  0  0  0  0  0  0  0  0  0
    2.0305   -2.2350    0.0000 H   0  0  0  0  0  0  0  0  0  0  0  0
    2.7587   -2.5592    0.0000 H   0  0  0  0  0  0  0  0  0  0  0  0
    1.4860   -0.8075    0.0000 H   0  0  0  0  0  0  0  0  0  0  0  0
    1.5693   -1.6002    0.0000 H   0  0  0  0  0  0  0  0  0  0  0  0
    2.3288    2.4303    0.0000 H   0  0  0  0  0  0  0  0  0  0  0  0
    2.2165    1.3623    0.0000 H   0  0  0  0  0  0  0  0  0  0  0  0
    5.6223    5.1993    0.0000 H   0  0  0  0  0  0  0  0  0  0  0  0
    6.1880   -1.5848    0.0000 H   0  0  0  0  0  0  0  0  0  0  0  0
   10.5656   -1.2789    0.0000 H   0  0  0  0  0  0  0  0  0  0  0  0
    9.1626    1.1511    0.0000 H   0  0  0  0  0  0  0  0  0  0  0  0
   10.5656    1.9611    0.0000 H   0  0  0  0  0  0  0  0  0  0  0  0
    4.3725   -4.9471    0.0000 H   0  0  0  0  0  0  0  0  0  0  0  0
    4.6868   -5.7657    0.0000 H   0  0  0  0  0  0  0  0  0  0  0  0
    5.5053   -5.4514    0.0000 H   0  0  0  0  0  0  0  0  0  0  0  0
    6.0070   -5.2589    0.0000 H   0  0  0  0  0  0  0  0  0  0  0  0
    6.8256   -4.9446    0.0000 H   0  0  0  0  0  0  0  0  0  0  0  0
    6.5114   -4.1261    0.0000 H   0  0  0  0  0  0  0  0  0  0  0  0
    4.6843   -3.3126    0.0000 H   0  0  0  0  0  0  0  0  0  0  0  0
    3.8657   -3.6268    0.0000 H   0  0  0  0  0  0  0  0  0  0  0  0
    4.1799   -4.4454    0.0000 H   0  0  0  0  0  0  0  0  0  0  0  0
   12.3184   -1.3136    0.0000 H   0  0  0  0  0  0  0  0  0  0  0  0
   12.3184    1.9957    0.0000 H   0  0  0  0  0  0  0  0  0  0  0  0
   13.7673   -0.4918    0.0000 H   0  0  0  0  0  0  0  0  0  0  0  0
   13.7673    1.1740    0.0000 H   0  0  0  0  0  0  0  0  0  0  0  0
  1 15  1  0  0  0  0
  1 70  1  0  0  0  0
 19  2  1  1  0  0  0
  2 30  1  0  0  0  0
  3 15  2  0  0  0  0
  4 17  2  0  0  0  0
  5 23  2  0  0  0  0
  6 31  1  0  0  0  0
  6 34  1  0  0  0  0
  7 31  2  0  0  0  0
  8 11  1  0  0  0  0
  8 17  1  0  0  0  0
  8 48  1  0  0  0  0
  9 14  1  0  0  0  0
  9 21  1  0  0  0  0
  9 23  1  0  0  0  0
 22 10  1  1  0  0  0
 10 31  1  0  0  0  0
 10 71  1  0  0  0  0
 11 12  1  0  0  0  0
 11 13  1  0  0  0  0
 11 15  1  0  0  0  0
 12 13  1  0  0  0  0
 12 16  1  1  0  0  0
 12 45  1  0  0  0  0
 13 46  1  0  0  0  0
 13 47  1  0  0  0  0
 14 17  1  6  0  0  0
 14 18  1  0  0  0  0
 14 49  1  0  0  0  0
 16 29  2  0  0  0  0
 16 50  1  0  0  0  0
 18 19  1  0  0  0  0
 18 51  1  0  0  0  0
 18 52  1  0  0  0  0
 19 21  1  0  0  0  0
 19 53  1  0  0  0  0
 20 22  1  0  0  0  0
 20 24  1  0  0  0  0
 20 25  1  0  0  0  0
 20 54  1  0  0  0  0
 21 55  1  0  0  0  0
 21 56  1  0  0  0  0
 22 23  1  0  0  0  0
 22 57  1  0  0  0  0
 24 26  1  0  0  0  0
 24 58  1  0  0  0  0
 24 59  1  0  0  0  0
 25 27  1  0  0  0  0
 25 60  1  0  0  0  0
 25 61  1  0  0  0  0
 26 28  1  0  0  0  0
 26 62  1  0  0  0  0
 26 63  1  0  0  0  0
 27 28  1  0  0  0  0
 27 64  1  0  0  0  0
 27 65  1  0  0  0  0
 28 66  1  0  0  0  0
 28 67  1  0  0  0  0
 29 68  1  0  0  0  0
 29 69  1  0  0  0  0
 30 32  2  0  0  0  0
 30 33  1  0  0  0  0
 32 35  1  0  0  0  0
 32 72  1  0  0  0  0
 33 36  2  0  0  0  0
 33 73  1  0  0  0  0
 34 38  1  0  0  0  0
 34 39  1  0  0  0  0
 34 40  1  0  0  0  0
 35 37  1  0  0  0  0
 35 41  2  0  0  0  0
 36 37  1  0  0  0  0
 36 74  1  0  0  0  0
 37 42  2  0  0  0  0
 38 75  1  0  0  0  0
 38 76  1  0  0  0  0
 38 77  1  0  0  0  0
 39 78  1  0  0  0  0
 39 79  1  0  0  0  0
 39 80  1  0  0  0  0
 40 81  1  0  0  0  0
 40 82  1  0  0  0  0
 40 83  1  0  0  0  0
 41 43  1  0  0  0  0
 41 84  1  0  0  0  0
 42 44  1  0  0  0  0
 42 85  1  0  0  0  0
 43 44  2  0  0  0  0
 43 86  1  0  0  0  0
 44 87  1  0  0  0  0
M  END
> <PUBCHEM_COMPOUND_CID>
500645
> <PUBCHEM_COMPOUND_CANONICALIZED>
1
> <PUBCHEM_CACTVS_COMPLEXITY>
1100
> <PUBCHEM_CACTVS_HBOND_ACCEPTOR>
7
> <PUBCHEM_CACTVS_HBOND_DONOR>
3
> <PUBCHEM_CACTVS_ROTATABLE_BOND>
11
> <PUBCHEM_CACTVS_SUBSKEYS>
AAADcfB/OAAAAAAAAAAAAAAAGAAAAWAAAAAwYMAAAAAAAADBUAAAHgAQCAAADfzhmAYyDsPABgCIAiHSGAACCAAgIAAIiIGOCIkOZjKEsTqfeCCm1hGYqAe6ybCOoAABAAAQAABAAAIAACAAAAAAAAAAAA==
> <PUBCHEM_IUPAC_OPENEYE_NAME>
(2R)-1-[[(2S,4R)-1-[(2S)-2-(tert-butoxycarbonylamino)-2-cyclohexyl-acetyl]-4-(2-naphthyloxy)pyrrolidine-2-carbonyl]amino]-2-vinyl-cyclopropanecarboxylic acid
> <PUBCHEM_IUPAC_CAS_NAME>
(2R)-1-[[[(2S,4R)-1-[(2S)-2-cyclohexyl-2-[[(2-methylpropan-2-yl)oxy-oxomethyl]amino]-1-oxoethyl]-4-(2-naphthalenyloxy)-2-pyrrolidinyl]-oxomethyl]amino]-2-ethenyl-1-cyclopropanecarboxylic acid
> <PUBCHEM_IUPAC_NAME_MARKUP>
(2<I>R</I>)-1-[[(2<I>S</I>,4<I>R</I>)-1-[(2<I>S</I>)-2-cyclohexyl-2-[(2-methylpropan-2-yl)oxycarbonylamino]acetyl]-4-naphthalen-2-yloxypyrrolidine-2-carbonyl]amino]-2-ethenylcyclopropane-1-carboxylic acid
> <PUBCHEM_IUPAC_NAME>
(2R)-1-[[(2S,4R)-1-[(2S)-2-cyclohexyl-2-[(2-methylpropan-2-yl)oxycarbonylamino]acetyl]-4-naphthalen-2-yloxypyrrolidine-2-carbonyl]amino]-2-ethenylcyclopropane-1-carboxylic acid
> <PUBCHEM_IUPAC_SYSTEMATIC_NAME>
(2R)-1-[[(2S,4R)-1-[(2S)-2-cyclohexyl-2-[(2-methylpropan-2-yl)oxycarbonylamino]ethanoyl]-4-naphthalen-2-yloxy-pyrrolidin-2-yl]carbonylamino]-2-ethenyl-cyclopropane-1-carboxylic acid
> <PUBCHEM_IUPAC_TRADITIONAL_NAME>
(2R)-1-[[(2S,4R)-1-[(2S)-2-(tert-butoxycarbonylamino)-2-cyclohexyl-acetyl]-4-(2-naphthoxy)prolyl]amino]-2-vinyl-cyclopropanecarboxylic acid
> <PUBCHEM_IUPAC_INCHI>
InChI=1S/C34H43N3O7/c1-5-24-19-34(24,31(40)41)36-29(38)27-18-26(43-25-16-15-21-11-9-10-14-23(21)17-25)20-37(27)30(39)28(22-12-7-6-8-13-22)35-32(42)44-33(2,3)4/h5,9-11,14-17,22,24,26-28H,1,6-8,12-13,18-20H2,2-4H3,(H,35,42)(H,36,38)(H,40,41)/t24-,26+,27-,28-,34?/m0/s1
> <PUBCHEM_IUPAC_INCHIKEY>
OETNBTVGWURZOW-MVZHGASDSA-N
> <PUBCHEM_XLOGP3_AA>
5.8
> <PUBCHEM_EXACT_MASS>
605.31010072
> <PUBCHEM_MOLECULAR_FORMULA>
C34H43N3O7
> <PUBCHEM_MOLECULAR_WEIGHT>
605.7
> <PUBCHEM_OPENEYE_CAN_SMILES>
CC(C)(C)OC(=O)NC(C1CCCCC1)C(=O)N2CC(CC2C(=O)NC3(CC3C=C)C(=O)O)OC4=CC5=CC=CC=C5C=C4
> <PUBCHEM_OPENEYE_ISO_SMILES>
CC(C)(C)OC(=O)N[C@@H](C1CCCCC1)C(=O)N2C[C@@H](C[C@H]2C(=O)NC3(C[C@@H]3C=C)C(=O)O)OC4=CC5=CC=CC=C5C=C4
> <PUBCHEM_CACTVS_TPSA>
134
> <PUBCHEM_MONOISOTOPIC_WEIGHT>
605.31010072
> <PUBCHEM_TOTAL_CHARGE>
0
> <PUBCHEM_HEAVY_ATOM_COUNT>
44
> <PUBCHEM_ATOM_DEF_STEREO_COUNT>
4
> <PUBCHEM_ATOM_UDEF_STEREO_COUNT>
1
> <PUBCHEM_BOND_DEF_STEREO_COUNT>
0
> <PUBCHEM_BOND_UDEF_STEREO_COUNT>
0
> <PUBCHEM_ISOTOPIC_ATOM_COUNT>
0
> <PUBCHEM_COMPONENT_COUNT>
1
> <PUBCHEM_CACTVS_TAUTO_COUNT>
-1
> <PUBCHEM_COORDINATE_TYPE>
1
5
255
> <PUBCHEM_BONDANNOTATIONS>
22  10  5
11  15  3
12  16  5
14  17  6
19  2  5
30  32  8
30  33  8
32  35  8
33  36  8
35  37  8
35  41  8
36  37  8
37  42  8
41  43  8
42  44  8
43  44  8
$$$$
