500657
  -OEChem-10302200282D
101106  0     1  0  0  0  0  0999 V2000
   11.0928    2.3848    0.0000 O   0  0  0  0  0  0  0  0  0  0  0  0
    9.6916    1.3667    0.0000 O   0  0  0  0  0  0  0  0  0  0  0  0
    4.6660    2.8031    0.0000 O   0  0  0  0  0  0  0  0  0  0  0  0
    8.6970    1.2622    0.0000 O   0  0  0  0  0  0  0  0  0  0  0  0
    8.0160    0.0826    0.0000 O   0  0  0  0  0  0  0  0  0  0  0  0
    4.8960   -5.6851    0.0000 O   0  0  0  0  0  0  0  0  0  0  0  0
    3.4948   -4.6670    0.0000 O   0  0  0  0  0  0  0  0  0  0  0  0
    8.5160    2.9848    0.0000 N   0  0  0  0  0  0  0  0  0  0  0  0
    6.6147    1.1007    0.0000 N   0  0  0  0  0  0  0  0  0  0  0  0
    6.8404   -1.5354    0.0000 N   0  0  0  0  0  0  0  0  0  0  0  0
    5.5321    4.3031    0.0000 N   0  0  0  0  0  0  0  0  0  0  0  0
    4.6660    5.8031    0.0000 N   0  0  0  0  0  0  0  0  0  0  0  0
    9.5105    3.0893    0.0000 C   0  0  3  0  0  0  0  0  0  0  0  0
    9.4060    4.0838    0.0000 C   0  0  2  0  0  0  0  0  0  0  0  0
   10.3195    3.6771    0.0000 C   0  0  0  0  0  0  0  0  0  0  0  0
   10.0983    2.2803    0.0000 C   0  0  0  0  0  0  0  0  0  0  0  0
    8.8182    4.8928    0.0000 C   0  0  0  0  0  0  0  0  0  0  0  0
    7.1147    1.9667    0.0000 C   0  0  2  0  0  0  0  0  0  0  0  0
    8.1093    2.0712    0.0000 C   0  0  0  0  0  0  0  0  0  0  0  0
    6.4456    2.7098    0.0000 C   0  0  0  0  0  0  0  0  0  0  0  0
    5.5321    2.3031    0.0000 C   0  0  2  0  0  0  0  0  0  0  0  0
    5.6366    1.3086    0.0000 C   0  0  0  0  0  0  0  0  0  0  0  0
    7.0215    0.1871    0.0000 C   0  0  0  0  0  0  0  0  0  0  0  0
    9.2249    5.8064    0.0000 C   0  0  0  0  0  0  0  0  0  0  0  0
    6.4337   -0.6219    0.0000 C   0  0  2  0  0  0  0  0  0  0  0  0
    5.4392   -0.5174    0.0000 C   0  0  0  0  0  0  0  0  0  0  0  0
    4.4446   -0.4128    0.0000 C   0  0  0  0  0  0  0  0  0  0  0  0
    5.3346   -1.5119    0.0000 C   0  0  0  0  0  0  0  0  0  0  0  0
    5.5437    0.4771    0.0000 C   0  0  0  0  0  0  0  0  0  0  0  0
    4.6660    3.8031    0.0000 C   0  0  0  0  0  0  0  0  0  0  0  0
    6.2526   -2.3445    0.0000 C   0  0  0  0  0  0  0  0  0  0  0  0
    3.8000    4.3031    0.0000 C   0  0  0  0  0  0  0  0  0  0  0  0
    5.2581   -2.2399    0.0000 C   0  0  0  0  0  0  0  0  0  0  0  0
    6.6594   -3.2580    0.0000 C   0  0  0  0  0  0  0  0  0  0  0  0
    3.8000    5.3031    0.0000 C   0  0  0  0  0  0  0  0  0  0  0  0
    2.9061    3.7684    0.0000 C   0  0  0  0  0  0  0  0  0  0  0  0
    5.5321    5.3031    0.0000 C   0  0  0  0  0  0  0  0  0  0  0  0
    4.6703   -3.0490    0.0000 C   0  0  0  0  0  0  0  0  0  0  0  0
    6.0716   -4.0670    0.0000 C   0  0  0  0  0  0  0  0  0  0  0  0
    5.0771   -3.9625    0.0000 C   0  0  0  0  0  0  0  0  0  0  0  0
    2.9061    5.8378    0.0000 C   0  0  0  0  0  0  0  0  0  0  0  0
    2.0000    4.2823    0.0000 C   0  0  0  0  0  0  0  0  0  0  0  0
    6.3981    5.8031    0.0000 C   0  0  0  0  0  0  0  0  0  0  0  0
    2.0000    5.3239    0.0000 C   0  0  0  0  0  0  0  0  0  0  0  0
    4.4893   -4.7715    0.0000 C   0  0  0  0  0  0  0  0  0  0  0  0
    6.3981    6.8031    0.0000 C   0  0  0  0  0  0  0  0  0  0  0  0
    7.2641    5.3031    0.0000 C   0  0  0  0  0  0  0  0  0  0  0  0
    4.3082   -6.4941    0.0000 C   0  0  0  0  0  0  0  0  0  0  0  0
    7.2641    7.3031    0.0000 C   0  0  0  0  0  0  0  0  0  0  0  0
    8.1301    5.8031    0.0000 C   0  0  0  0  0  0  0  0  0  0  0  0
    8.1301    6.8031    0.0000 C   0  0  0  0  0  0  0  0  0  0  0  0
    3.7204   -7.3031    0.0000 C   0  0  0  0  0  0  0  0  0  0  0  0
    5.1172   -7.0819    0.0000 C   0  0  0  0  0  0  0  0  0  0  0  0
    3.4992   -5.9063    0.0000 C   0  0  0  0  0  0  0  0  0  0  0  0
    9.7962    4.5656    0.0000 H   0  0  0  0  0  0  0  0  0  0  0  0
   10.7655    3.2464    0.0000 H   0  0  0  0  0  0  0  0  0  0  0  0
   10.6662    4.1911    0.0000 H   0  0  0  0  0  0  0  0  0  0  0  0
    8.1516    3.4864    0.0000 H   0  0  0  0  0  0  0  0  0  0  0  0
    8.2016    4.8280    0.0000 H   0  0  0  0  0  0  0  0  0  0  0  0
    7.4524    1.4467    0.0000 H   0  0  0  0  0  0  0  0  0  0  0  0
    6.9472    3.0743    0.0000 H   0  0  0  0  0  0  0  0  0  0  0  0
    6.1356    3.2468    0.0000 H   0  0  0  0  0  0  0  0  0  0  0  0
    5.5645    2.9222    0.0000 H   0  0  0  0  0  0  0  0  0  0  0  0
    5.0166    1.3086    0.0000 H   0  0  0  0  0  0  0  0  0  0  0  0
    5.5718    0.6920    0.0000 H   0  0  0  0  0  0  0  0  0  0  0  0
    9.8415    5.8712    0.0000 H   0  0  0  0  0  0  0  0  0  0  0  0
    8.8605    6.3080    0.0000 H   0  0  0  0  0  0  0  0  0  0  0  0
    7.0503   -0.6867    0.0000 H   0  0  0  0  0  0  0  0  0  0  0  0
   11.4573    1.8832    0.0000 H   0  0  0  0  0  0  0  0  0  0  0  0
    7.4570   -1.6002    0.0000 H   0  0  0  0  0  0  0  0  0  0  0  0
    4.5094    0.2038    0.0000 H   0  0  0  0  0  0  0  0  0  0  0  0
    3.8280   -0.3480    0.0000 H   0  0  0  0  0  0  0  0  0  0  0  0
    4.3798   -1.0294    0.0000 H   0  0  0  0  0  0  0  0  0  0  0  0
    4.7180   -1.4471    0.0000 H   0  0  0  0  0  0  0  0  0  0  0  0
    5.2698   -2.1285    0.0000 H   0  0  0  0  0  0  0  0  0  0  0  0
    5.9512   -1.5767    0.0000 H   0  0  0  0  0  0  0  0  0  0  0  0
    6.1603    0.4123    0.0000 H   0  0  0  0  0  0  0  0  0  0  0  0
    5.6085    1.0938    0.0000 H   0  0  0  0  0  0  0  0  0  0  0  0
    4.9271    0.5420    0.0000 H   0  0  0  0  0  0  0  0  0  0  0  0
    5.0059   -1.6735    0.0000 H   0  0  0  0  0  0  0  0  0  0  0  0
    7.2760   -3.3228    0.0000 H   0  0  0  0  0  0  0  0  0  0  0  0
    2.9132    3.1485    0.0000 H   0  0  0  0  0  0  0  0  0  0  0  0
    4.0537   -2.9841    0.0000 H   0  0  0  0  0  0  0  0  0  0  0  0
    6.3238   -4.6334    0.0000 H   0  0  0  0  0  0  0  0  0  0  0  0
    2.9132    6.4577    0.0000 H   0  0  0  0  0  0  0  0  0  0  0  0
    1.4643    3.9702    0.0000 H   0  0  0  0  0  0  0  0  0  0  0  0
    1.4643    5.6360    0.0000 H   0  0  0  0  0  0  0  0  0  0  0  0
    5.8612    7.1131    0.0000 H   0  0  0  0  0  0  0  0  0  0  0  0
    7.2641    4.6831    0.0000 H   0  0  0  0  0  0  0  0  0  0  0  0
    7.2641    7.9231    0.0000 H   0  0  0  0  0  0  0  0  0  0  0  0
    8.6671    5.4931    0.0000 H   0  0  0  0  0  0  0  0  0  0  0  0
    8.6671    7.1131    0.0000 H   0  0  0  0  0  0  0  0  0  0  0  0
    3.2189   -6.9387    0.0000 H   0  0  0  0  0  0  0  0  0  0  0  0
    3.3560   -7.8047    0.0000 H   0  0  0  0  0  0  0  0  0  0  0  0
    4.2220   -7.6675    0.0000 H   0  0  0  0  0  0  0  0  0  0  0  0
    4.7528   -7.5834    0.0000 H   0  0  0  0  0  0  0  0  0  0  0  0
    5.6188   -7.4463    0.0000 H   0  0  0  0  0  0  0  0  0  0  0  0
    5.4817   -6.5803    0.0000 H   0  0  0  0  0  0  0  0  0  0  0  0
    3.8636   -5.4047    0.0000 H   0  0  0  0  0  0  0  0  0  0  0  0
    2.9976   -5.5419    0.0000 H   0  0  0  0  0  0  0  0  0  0  0  0
    3.1348   -6.4079    0.0000 H   0  0  0  0  0  0  0  0  0  0  0  0
  1 16  1  0  0  0  0
  1 69  1  0  0  0  0
  2 16  2  0  0  0  0
 21  3  1  6  0  0  0
  3 30  1  0  0  0  0
  4 19  2  0  0  0  0
  5 23  2  0  0  0  0
  6 45  1  0  0  0  0
  6 48  1  0  0  0  0
  7 45  2  0  0  0  0
  8 13  1  0  0  0  0
  8 19  1  0  0  0  0
  8 58  1  0  0  0  0
  9 18  1  0  0  0  0
  9 22  1  0  0  0  0
  9 23  1  0  0  0  0
 25 10  1  1  0  0  0
 10 31  1  0  0  0  0
 10 70  1  0  0  0  0
 11 30  2  0  0  0  0
 11 37  1  0  0  0  0
 12 35  1  0  0  0  0
 12 37  2  0  0  0  0
 13 14  1  0  0  0  0
 13 15  1  0  0  0  0
 13 16  1  0  0  0  0
 14 15  1  0  0  0  0
 14 17  1  1  0  0  0
 14 55  1  0  0  0  0
 15 56  1  0  0  0  0
 15 57  1  0  0  0  0
 17 24  2  0  0  0  0
 17 59  1  0  0  0  0
 18 19  1  1  0  0  0
 18 20  1  0  0  0  0
 18 60  1  0  0  0  0
 20 21  1  0  0  0  0
 20 61  1  0  0  0  0
 20 62  1  0  0  0  0
 21 22  1  0  0  0  0
 21 63  1  0  0  0  0
 22 64  1  0  0  0  0
 22 65  1  0  0  0  0
 23 25  1  0  0  0  0
 24 66  1  0  0  0  0
 24 67  1  0  0  0  0
 25 26  1  0  0  0  0
 25 68  1  0  0  0  0
 26 27  1  0  0  0  0
 26 28  1  0  0  0  0
 26 29  1  0  0  0  0
 27 71  1  0  0  0  0
 27 72  1  0  0  0  0
 27 73  1  0  0  0  0
 28 74  1  0  0  0  0
 28 75  1  0  0  0  0
 28 76  1  0  0  0  0
 29 77  1  0  0  0  0
 29 78  1  0  0  0  0
 29 79  1  0  0  0  0
 30 32  1  0  0  0  0
 31 33  2  0  0  0  0
 31 34  1  0  0  0  0
 32 35  1  0  0  0  0
 32 36  2  0  0  0  0
 33 38  1  0  0  0  0
 33 80  1  0  0  0  0
 34 39  2  0  0  0  0
 34 81  1  0  0  0  0
 35 41  2  0  0  0  0
 36 42  1  0  0  0  0
 36 82  1  0  0  0  0
 37 43  1  0  0  0  0
 38 40  2  0  0  0  0
 38 83  1  0  0  0  0
 39 40  1  0  0  0  0
 39 84  1  0  0  0  0
 40 45  1  0  0  0  0
 41 44  1  0  0  0  0
 41 85  1  0  0  0  0
 42 44  2  0  0  0  0
 42 86  1  0  0  0  0
 43 46  2  0  0  0  0
 43 47  1  0  0  0  0
 44 87  1  0  0  0  0
 46 49  1  0  0  0  0
 46 88  1  0  0  0  0
 47 50  2  0  0  0  0
 47 89  1  0  0  0  0
 48 52  1  0  0  0  0
 48 53  1  0  0  0  0
 48 54  1  0  0  0  0
 49 51  2  0  0  0  0
 49 90  1  0  0  0  0
 50 51  1  0  0  0  0
 50 91  1  0  0  0  0
 51 92  1  0  0  0  0
 52 93  1  0  0  0  0
 52 94  1  0  0  0  0
 52 95  1  0  0  0  0
 53 96  1  0  0  0  0
 53 97  1  0  0  0  0
 53 98  1  0  0  0  0
 54 99  1  0  0  0  0
 54100  1  0  0  0  0
 54101  1  0  0  0  0
M  END
> <PUBCHEM_COMPOUND_CID>
500657
> <PUBCHEM_COMPOUND_CANONICALIZED>
1
> <PUBCHEM_CACTVS_COMPLEXITY>
1380
> <PUBCHEM_CACTVS_HBOND_ACCEPTOR>
10
> <PUBCHEM_CACTVS_HBOND_DONOR>
3
> <PUBCHEM_CACTVS_ROTATABLE_BOND>
14
> <PUBCHEM_CACTVS_SUBSKEYS>
AAADcfB/uAAAAAAAAAAAAAAAGAAAAWAAAAA8YMEAAAAAAACx9AAAHgAQCAAAD/zhnwYz3PfIFgCoAyfyfACCiCklIqAJmKG8bNiObrLE/fuffSju1hvY6ae62SOfCAAAAAACAAAQAAAAAAQAAAAAAAAAAA==
> <PUBCHEM_IUPAC_OPENEYE_NAME>
(2R)-1-[[(2S,4R)-1-[(2S)-2-(4-tert-butoxycarbonylanilino)-3,3-dimethyl-butanoyl]-4-(2-phenylquinazolin-4-yl)oxy-pyrrolidine-2-carbonyl]amino]-2-vinyl-cyclopropanecarboxylic acid
> <PUBCHEM_IUPAC_CAS_NAME>
(2R)-1-[[[(2S,4R)-1-[(2S)-3,3-dimethyl-2-[4-[(2-methylpropan-2-yl)oxy-oxomethyl]anilino]-1-oxobutyl]-4-[(2-phenyl-4-quinazolinyl)oxy]-2-pyrrolidinyl]-oxomethyl]amino]-2-ethenyl-1-cyclopropanecarboxylic acid
> <PUBCHEM_IUPAC_NAME_MARKUP>
(2<I>R</I>)-1-[[(2<I>S</I>,4<I>R</I>)-1-[(2<I>S</I>)-3,3-dimethyl-2-[4-[(2-methylpropan-2-yl)oxycarbonyl]anilino]butanoyl]-4-(2-phenylquinazolin-4-yl)oxypyrrolidine-2-carbonyl]amino]-2-ethenylcyclopropane-1-carboxylic acid
> <PUBCHEM_IUPAC_NAME>
(2R)-1-[[(2S,4R)-1-[(2S)-3,3-dimethyl-2-[4-[(2-methylpropan-2-yl)oxycarbonyl]anilino]butanoyl]-4-(2-phenylquinazolin-4-yl)oxypyrrolidine-2-carbonyl]amino]-2-ethenylcyclopropane-1-carboxylic acid
> <PUBCHEM_IUPAC_SYSTEMATIC_NAME>
(2R)-1-[[(2S,4R)-1-[(2S)-3,3-dimethyl-2-[[4-[(2-methylpropan-2-yl)oxycarbonyl]phenyl]amino]butanoyl]-4-(2-phenylquinazolin-4-yl)oxy-pyrrolidin-2-yl]carbonylamino]-2-ethenyl-cyclopropane-1-carboxylic acid
> <PUBCHEM_IUPAC_TRADITIONAL_NAME>
(2R)-1-[[(2S,4R)-1-[(2S)-2-(4-tert-butoxycarbonylanilino)-3,3-dimethyl-butanoyl]-4-(2-phenylquinazolin-4-yl)oxy-prolyl]amino]-2-vinyl-cyclopropanecarboxylic acid
> <PUBCHEM_IUPAC_INCHI>
InChI=1S/C42H47N5O7/c1-8-27-23-42(27,39(51)52)46-35(48)32-22-29(53-36-30-16-12-13-17-31(30)44-34(45-36)25-14-10-9-11-15-25)24-47(32)37(49)33(40(2,3)4)43-28-20-18-26(19-21-28)38(50)54-41(5,6)7/h8-21,27,29,32-33,43H,1,22-24H2,2-7H3,(H,46,48)(H,51,52)/t27-,29+,32-,33+,42?/m0/s1
> <PUBCHEM_IUPAC_INCHIKEY>
FUFFTKGIRLPVSQ-PLIAYPHESA-N
> <PUBCHEM_XLOGP3_AA>
7.4
> <PUBCHEM_EXACT_MASS>
733.34754886
> <PUBCHEM_MOLECULAR_FORMULA>
C42H47N5O7
> <PUBCHEM_MOLECULAR_WEIGHT>
733.9
> <PUBCHEM_OPENEYE_CAN_SMILES>
CC(C)(C)C(C(=O)N1CC(CC1C(=O)NC2(CC2C=C)C(=O)O)OC3=NC(=NC4=CC=CC=C43)C5=CC=CC=C5)NC6=CC=C(C=C6)C(=O)OC(C)(C)C
> <PUBCHEM_OPENEYE_ISO_SMILES>
CC(C)(C)[C@@H](C(=O)N1C[C@@H](C[C@H]1C(=O)NC2(C[C@@H]2C=C)C(=O)O)OC3=NC(=NC4=CC=CC=C43)C5=CC=CC=C5)NC6=CC=C(C=C6)C(=O)OC(C)(C)C
> <PUBCHEM_CACTVS_TPSA>
160
> <PUBCHEM_MONOISOTOPIC_WEIGHT>
733.34754886
> <PUBCHEM_TOTAL_CHARGE>
0
> <PUBCHEM_HEAVY_ATOM_COUNT>
54
> <PUBCHEM_ATOM_DEF_STEREO_COUNT>
4
> <PUBCHEM_ATOM_UDEF_STEREO_COUNT>
1
> <PUBCHEM_BOND_DEF_STEREO_COUNT>
0
> <PUBCHEM_BOND_UDEF_STEREO_COUNT>
0
> <PUBCHEM_ISOTOPIC_ATOM_COUNT>
0
> <PUBCHEM_COMPONENT_COUNT>
1
> <PUBCHEM_CACTVS_TAUTO_COUNT>
-1
> <PUBCHEM_COORDINATE_TYPE>
1
5
255
> <PUBCHEM_BONDANNOTATIONS>
25  10  5
11  30  8
11  37  8
12  35  8
12  37  8
13  16  3
14  17  5
18  19  5
21  3  6
30  32  8
31  33  8
31  34  8
32  35  8
32  36  8
33  38  8
34  39  8
35  41  8
36  42  8
38  40  8
39  40  8
41  44  8
42  44  8
43  46  8
43  47  8
46  49  8
47  50  8
49  51  8
50  51  8
$$$$
