500782
  -OEChem-10302200282D
 87 91  0     1  0  0  0  0  0999 V2000
   12.8249   -0.2577    0.0000 O   0  0  0  0  0  0  0  0  0  0  0  0
   11.4236    0.7603    0.0000 O   0  0  0  0  0  0  0  0  0  0  0  0
    6.3981   -0.6760    0.0000 O   0  0  0  0  0  0  0  0  0  0  0  0
   10.4291    0.8649    0.0000 O   0  0  0  0  0  0  0  0  0  0  0  0
    9.7480    2.0445    0.0000 O   0  0  0  0  0  0  0  0  0  0  0  0
    6.9902    4.3670    0.0000 O   0  0  0  0  0  0  0  0  0  0  0  0
    5.5889    3.3489    0.0000 O   0  0  0  0  0  0  0  0  0  0  0  0
    2.8680   -3.7002    0.0000 O   0  0  0  0  0  0  0  0  0  0  0  0
   10.2480   -0.8577    0.0000 N   0  0  0  0  0  0  0  0  0  0  0  0
    8.3468    1.0264    0.0000 N   0  0  0  0  0  0  0  0  0  0  0  0
    7.1712    2.6444    0.0000 N   0  0  0  0  0  0  0  0  0  0  0  0
    6.3981   -3.6760    0.0000 N   0  0  0  0  0  0  0  0  0  0  0  0
   11.2426   -0.9622    0.0000 C   0  0  3  0  0  0  0  0  0  0  0  0
   11.1380   -1.9567    0.0000 C   0  0  2  0  0  0  0  0  0  0  0  0
   12.0516   -1.5500    0.0000 C   0  0  0  0  0  0  0  0  0  0  0  0
   11.8303   -0.1532    0.0000 C   0  0  0  0  0  0  0  0  0  0  0  0
   10.5502   -2.7658    0.0000 C   0  0  0  0  0  0  0  0  0  0  0  0
    8.8468    0.1604    0.0000 C   0  0  2  0  0  0  0  0  0  0  0  0
    9.8413    0.0559    0.0000 C   0  0  0  0  0  0  0  0  0  0  0  0
    8.1776   -0.5828    0.0000 C   0  0  0  0  0  0  0  0  0  0  0  0
    7.2641   -0.1760    0.0000 C   0  0  2  0  0  0  0  0  0  0  0  0
    7.3686    0.8185    0.0000 C   0  0  0  0  0  0  0  0  0  0  0  0
    8.7535    1.9400    0.0000 C   0  0  0  0  0  0  0  0  0  0  0  0
   10.9570   -3.6793    0.0000 C   0  0  0  0  0  0  0  0  0  0  0  0
    8.1657    2.7490    0.0000 C   0  0  2  0  0  0  0  0  0  0  0  0
    8.5725    3.6625    0.0000 C   0  0  0  0  0  0  0  0  0  0  0  0
    8.9792    4.5761    0.0000 C   0  0  0  0  0  0  0  0  0  0  0  0
    7.6589    4.0692    0.0000 C   0  0  0  0  0  0  0  0  0  0  0  0
    9.4860    3.2558    0.0000 C   0  0  0  0  0  0  0  0  0  0  0  0
    6.3981   -1.6760    0.0000 C   0  0  0  0  0  0  0  0  0  0  0  0
    5.5320   -2.1760    0.0000 C   0  0  0  0  0  0  0  0  0  0  0  0
    6.5834    3.4535    0.0000 C   0  0  0  0  0  0  0  0  0  0  0  0
    7.2641   -2.1760    0.0000 C   0  0  0  0  0  0  0  0  0  0  0  0
    5.5320   -3.1760    0.0000 C   0  0  0  0  0  0  0  0  0  0  0  0
    7.2641   -3.1760    0.0000 C   0  0  0  0  0  0  0  0  0  0  0  0
    4.6381   -1.6414    0.0000 C   0  0  0  0  0  0  0  0  0  0  0  0
    4.6381   -3.7107    0.0000 C   0  0  0  0  0  0  0  0  0  0  0  0
    3.7320   -2.1552    0.0000 C   0  0  0  0  0  0  0  0  0  0  0  0
    8.1301   -3.6760    0.0000 C   0  0  0  0  0  0  0  0  0  0  0  0
    3.7320   -3.1968    0.0000 C   0  0  0  0  0  0  0  0  0  0  0  0
    6.4024    5.1760    0.0000 C   0  0  0  0  0  0  0  0  0  0  0  0
    8.9962   -3.1760    0.0000 C   0  0  0  0  0  0  0  0  0  0  0  0
    8.1301   -4.6760    0.0000 C   0  0  0  0  0  0  0  0  0  0  0  0
    9.8622   -3.6760    0.0000 C   0  0  0  0  0  0  0  0  0  0  0  0
    8.9962   -5.1760    0.0000 C   0  0  0  0  0  0  0  0  0  0  0  0
    9.8622   -4.6760    0.0000 C   0  0  0  0  0  0  0  0  0  0  0  0
    2.0000   -3.2035    0.0000 C   0  0  0  0  0  0  0  0  0  0  0  0
   10.5592   -1.7346    0.0000 H   0  0  0  0  0  0  0  0  0  0  0  0
   12.3983   -2.0640    0.0000 H   0  0  0  0  0  0  0  0  0  0  0  0
   12.4976   -1.1193    0.0000 H   0  0  0  0  0  0  0  0  0  0  0  0
    9.8836   -1.3593    0.0000 H   0  0  0  0  0  0  0  0  0  0  0  0
    9.9336   -2.7010    0.0000 H   0  0  0  0  0  0  0  0  0  0  0  0
    9.1844    0.6804    0.0000 H   0  0  0  0  0  0  0  0  0  0  0  0
    7.8676   -1.1197    0.0000 H   0  0  0  0  0  0  0  0  0  0  0  0
    8.6792   -0.9472    0.0000 H   0  0  0  0  0  0  0  0  0  0  0  0
    6.7441    0.1617    0.0000 H   0  0  0  0  0  0  0  0  0  0  0  0
    7.3038    1.4351    0.0000 H   0  0  0  0  0  0  0  0  0  0  0  0
    6.7486    0.8185    0.0000 H   0  0  0  0  0  0  0  0  0  0  0  0
    7.8013    3.2506    0.0000 H   0  0  0  0  0  0  0  0  0  0  0  0
   10.5926   -4.1809    0.0000 H   0  0  0  0  0  0  0  0  0  0  0  0
   11.5736   -3.7441    0.0000 H   0  0  0  0  0  0  0  0  0  0  0  0
   13.1893    0.2439    0.0000 H   0  0  0  0  0  0  0  0  0  0  0  0
    9.5456    4.3239    0.0000 H   0  0  0  0  0  0  0  0  0  0  0  0
    9.2314    5.1425    0.0000 H   0  0  0  0  0  0  0  0  0  0  0  0
    8.4128    4.8282    0.0000 H   0  0  0  0  0  0  0  0  0  0  0  0
    7.9111    4.6356    0.0000 H   0  0  0  0  0  0  0  0  0  0  0  0
    7.0925    4.3214    0.0000 H   0  0  0  0  0  0  0  0  0  0  0  0
    7.4067    3.5029    0.0000 H   0  0  0  0  0  0  0  0  0  0  0  0
    9.2338    2.6894    0.0000 H   0  0  0  0  0  0  0  0  0  0  0  0
   10.0524    3.0036    0.0000 H   0  0  0  0  0  0  0  0  0  0  0  0
    9.7382    3.8222    0.0000 H   0  0  0  0  0  0  0  0  0  0  0  0
    6.9190    2.0780    0.0000 H   0  0  0  0  0  0  0  0  0  0  0  0
    7.8010   -1.8660    0.0000 H   0  0  0  0  0  0  0  0  0  0  0  0
    4.6453   -1.0214    0.0000 H   0  0  0  0  0  0  0  0  0  0  0  0
    4.6453   -4.3306    0.0000 H   0  0  0  0  0  0  0  0  0  0  0  0
    3.1963   -1.8431    0.0000 H   0  0  0  0  0  0  0  0  0  0  0  0
    6.9040    5.5404    0.0000 H   0  0  0  0  0  0  0  0  0  0  0  0
    6.0379    5.6776    0.0000 H   0  0  0  0  0  0  0  0  0  0  0  0
    5.9008    4.8116    0.0000 H   0  0  0  0  0  0  0  0  0  0  0  0
    8.9962   -2.5560    0.0000 H   0  0  0  0  0  0  0  0  0  0  0  0
    7.5932   -4.9860    0.0000 H   0  0  0  0  0  0  0  0  0  0  0  0
   10.3991   -3.3660    0.0000 H   0  0  0  0  0  0  0  0  0  0  0  0
    8.9962   -5.7960    0.0000 H   0  0  0  0  0  0  0  0  0  0  0  0
   10.3991   -4.9860    0.0000 H   0  0  0  0  0  0  0  0  0  0  0  0
    2.3079   -2.6654    0.0000 H   0  0  0  0  0  0  0  0  0  0  0  0
    1.4619   -2.8956    0.0000 H   0  0  0  0  0  0  0  0  0  0  0  0
    1.6921   -3.7416    0.0000 H   0  0  0  0  0  0  0  0  0  0  0  0
  1 16  1  0  0  0  0
  1 62  1  0  0  0  0
  2 16  2  0  0  0  0
 21  3  1  1  0  0  0
  3 30  1  0  0  0  0
  4 19  2  0  0  0  0
  5 23  2  0  0  0  0
  6 32  1  0  0  0  0
  6 41  1  0  0  0  0
  7 32  2  0  0  0  0
  8 40  1  0  0  0  0
  8 47  1  0  0  0  0
  9 13  1  0  0  0  0
  9 19  1  0  0  0  0
  9 51  1  0  0  0  0
 10 18  1  0  0  0  0
 10 22  1  0  0  0  0
 10 23  1  0  0  0  0
 25 11  1  1  0  0  0
 11 32  1  0  0  0  0
 11 72  1  0  0  0  0
 12 34  1  0  0  0  0
 12 35  2  0  0  0  0
 13 14  1  0  0  0  0
 13 15  1  0  0  0  0
 13 16  1  0  0  0  0
 14 15  1  0  0  0  0
 14 17  1  6  0  0  0
 14 48  1  0  0  0  0
 15 49  1  0  0  0  0
 15 50  1  0  0  0  0
 17 24  2  0  0  0  0
 17 52  1  0  0  0  0
 18 19  1  6  0  0  0
 18 20  1  0  0  0  0
 18 53  1  0  0  0  0
 20 21  1  0  0  0  0
 20 54  1  0  0  0  0
 20 55  1  0  0  0  0
 21 22  1  0  0  0  0
 21 56  1  0  0  0  0
 22 57  1  0  0  0  0
 22 58  1  0  0  0  0
 23 25  1  0  0  0  0
 24 60  1  0  0  0  0
 24 61  1  0  0  0  0
 25 26  1  0  0  0  0
 25 59  1  0  0  0  0
 26 27  1  0  0  0  0
 26 28  1  0  0  0  0
 26 29  1  0  0  0  0
 27 63  1  0  0  0  0
 27 64  1  0  0  0  0
 27 65  1  0  0  0  0
 28 66  1  0  0  0  0
 28 67  1  0  0  0  0
 28 68  1  0  0  0  0
 29 69  1  0  0  0  0
 29 70  1  0  0  0  0
 29 71  1  0  0  0  0
 30 31  1  0  0  0  0
 30 33  2  0  0  0  0
 31 34  2  0  0  0  0
 31 36  1  0  0  0  0
 33 35  1  0  0  0  0
 33 73  1  0  0  0  0
 34 37  1  0  0  0  0
 35 39  1  0  0  0  0
 36 38  2  0  0  0  0
 36 74  1  0  0  0  0
 37 40  2  0  0  0  0
 37 75  1  0  0  0  0
 38 40  1  0  0  0  0
 38 76  1  0  0  0  0
 39 42  2  0  0  0  0
 39 43  1  0  0  0  0
 41 77  1  0  0  0  0
 41 78  1  0  0  0  0
 41 79  1  0  0  0  0
 42 44  1  0  0  0  0
 42 80  1  0  0  0  0
 43 45  2  0  0  0  0
 43 81  1  0  0  0  0
 44 46  2  0  0  0  0
 44 82  1  0  0  0  0
 45 46  1  0  0  0  0
 45 83  1  0  0  0  0
 46 84  1  0  0  0  0
 47 85  1  0  0  0  0
 47 86  1  0  0  0  0
 47 87  1  0  0  0  0
M  END
> <PUBCHEM_COMPOUND_CID>
500782
> <PUBCHEM_COMPOUND_CANONICALIZED>
1
> <PUBCHEM_CACTVS_COMPLEXITY>
1180
> <PUBCHEM_CACTVS_HBOND_ACCEPTOR>
9
> <PUBCHEM_CACTVS_HBOND_DONOR>
3
> <PUBCHEM_CACTVS_ROTATABLE_BOND>
12
> <PUBCHEM_CACTVS_SUBSKEYS>
AAADcfB/vAAAAAAAAAAAAAAAGAAAAWAAAAA8YIAAAAAAAACx9AAAHgAQCAAAD7zhngYyzvPIFgCoAyXyXACCiCAhIiAImKG+bJkOZvLEsbuXeCjm1hnY6Ae68e8PIAAAAgACAABAAAAEAAQAAAAAAAAAAA==
> <PUBCHEM_IUPAC_OPENEYE_NAME>
(2R)-1-[[(2S,4R)-1-[(2S)-2-(methoxycarbonylamino)-3,3-dimethyl-butanoyl]-4-[(7-methoxy-2-phenyl-4-quinolyl)oxy]pyrrolidine-2-carbonyl]amino]-2-vinyl-cyclopropanecarboxylic acid
> <PUBCHEM_IUPAC_CAS_NAME>
(2R)-2-ethenyl-1-[[[(2S,4R)-1-[(2S)-2-(methoxycarbonylamino)-3,3-dimethyl-1-oxobutyl]-4-[(7-methoxy-2-phenyl-4-quinolinyl)oxy]-2-pyrrolidinyl]-oxomethyl]amino]-1-cyclopropanecarboxylic acid
> <PUBCHEM_IUPAC_NAME_MARKUP>
(2<I>R</I>)-2-ethenyl-1-[[(2<I>S</I>,4<I>R</I>)-1-[(2<I>S</I>)-2-(methoxycarbonylamino)-3,3-dimethylbutanoyl]-4-(7-methoxy-2-phenylquinolin-4-yl)oxypyrrolidine-2-carbonyl]amino]cyclopropane-1-carboxylic acid
> <PUBCHEM_IUPAC_NAME>
(2R)-2-ethenyl-1-[[(2S,4R)-1-[(2S)-2-(methoxycarbonylamino)-3,3-dimethylbutanoyl]-4-(7-methoxy-2-phenylquinolin-4-yl)oxypyrrolidine-2-carbonyl]amino]cyclopropane-1-carboxylic acid
> <PUBCHEM_IUPAC_SYSTEMATIC_NAME>
(2R)-2-ethenyl-1-[[(2S,4R)-1-[(2S)-2-(methoxycarbonylamino)-3,3-dimethyl-butanoyl]-4-(7-methoxy-2-phenyl-quinolin-4-yl)oxy-pyrrolidin-2-yl]carbonylamino]cyclopropane-1-carboxylic acid
> <PUBCHEM_IUPAC_TRADITIONAL_NAME>
(2R)-1-[[(2S,4R)-1-[(2S)-2-(carbomethoxyamino)-3,3-dimethyl-butanoyl]-4-[(7-methoxy-2-phenyl-4-quinolyl)oxy]prolyl]amino]-2-vinyl-cyclopropanecarboxylic acid
> <PUBCHEM_IUPAC_INCHI>
InChI=1S/C35H40N4O8/c1-7-21-18-35(21,32(42)43)38-30(40)27-16-23(19-39(27)31(41)29(34(2,3)4)37-33(44)46-6)47-28-17-25(20-11-9-8-10-12-20)36-26-15-22(45-5)13-14-24(26)28/h7-15,17,21,23,27,29H,1,16,18-19H2,2-6H3,(H,37,44)(H,38,40)(H,42,43)/t21-,23+,27-,29+,35?/m0/s1
> <PUBCHEM_IUPAC_INCHIKEY>
RWFKIKZZYUBJSJ-GDBFUMSDSA-N
> <PUBCHEM_XLOGP3_AA>
4.9
> <PUBCHEM_EXACT_MASS>
644.28461425
> <PUBCHEM_MOLECULAR_FORMULA>
C35H40N4O8
> <PUBCHEM_MOLECULAR_WEIGHT>
644.7
> <PUBCHEM_OPENEYE_CAN_SMILES>
CC(C)(C)C(C(=O)N1CC(CC1C(=O)NC2(CC2C=C)C(=O)O)OC3=CC(=NC4=C3C=CC(=C4)OC)C5=CC=CC=C5)NC(=O)OC
> <PUBCHEM_OPENEYE_ISO_SMILES>
CC(C)(C)[C@@H](C(=O)N1C[C@@H](C[C@H]1C(=O)NC2(C[C@@H]2C=C)C(=O)O)OC3=CC(=NC4=C3C=CC(=C4)OC)C5=CC=CC=C5)NC(=O)OC
> <PUBCHEM_CACTVS_TPSA>
156
> <PUBCHEM_MONOISOTOPIC_WEIGHT>
644.28461425
> <PUBCHEM_TOTAL_CHARGE>
0
> <PUBCHEM_HEAVY_ATOM_COUNT>
47
> <PUBCHEM_ATOM_DEF_STEREO_COUNT>
4
> <PUBCHEM_ATOM_UDEF_STEREO_COUNT>
1
> <PUBCHEM_BOND_DEF_STEREO_COUNT>
0
> <PUBCHEM_BOND_UDEF_STEREO_COUNT>
0
> <PUBCHEM_ISOTOPIC_ATOM_COUNT>
0
> <PUBCHEM_COMPONENT_COUNT>
1
> <PUBCHEM_CACTVS_TAUTO_COUNT>
-1
> <PUBCHEM_COORDINATE_TYPE>
1
5
255
> <PUBCHEM_BONDANNOTATIONS>
25  11  5
12  34  8
12  35  8
13  16  3
14  17  6
18  19  6
21  3  5
30  31  8
30  33  8
31  34  8
31  36  8
33  35  8
34  37  8
36  38  8
37  40  8
38  40  8
39  42  8
39  43  8
42  44  8
43  45  8
44  46  8
45  46  8
$$$$
