500729
  -OEChem-10302200282D
 94 97  0     1  0  0  0  0  0999 V2000
   12.8249   -0.9122    0.0000 O   0  0  0  0  0  0  0  0  0  0  0  0
   11.4236    0.1058    0.0000 O   0  0  0  0  0  0  0  0  0  0  0  0
    6.3981   -1.3305    0.0000 O   0  0  0  0  0  0  0  0  0  0  0  0
   10.4291    0.2104    0.0000 O   0  0  0  0  0  0  0  0  0  0  0  0
    9.7480    1.3900    0.0000 O   0  0  0  0  0  0  0  0  0  0  0  0
    6.9902    3.7125    0.0000 O   0  0  0  0  0  0  0  0  0  0  0  0
    5.5889    2.6944    0.0000 O   0  0  0  0  0  0  0  0  0  0  0  0
    2.8680   -4.3547    0.0000 O   0  0  0  0  0  0  0  0  0  0  0  0
   10.2480   -1.5122    0.0000 N   0  0  0  0  0  0  0  0  0  0  0  0
    8.3468    0.3719    0.0000 N   0  0  0  0  0  0  0  0  0  0  0  0
    7.1712    1.9899    0.0000 N   0  0  0  0  0  0  0  0  0  0  0  0
    6.3981   -4.3305    0.0000 N   0  0  0  0  0  0  0  0  0  0  0  0
    8.1301   -4.3305    0.0000 N   0  0  0  0  0  0  0  0  0  0  0  0
   11.2426   -1.6167    0.0000 C   0  0  3  0  0  0  0  0  0  0  0  0
   11.1380   -2.6112    0.0000 C   0  0  2  0  0  0  0  0  0  0  0  0
   12.0516   -2.2045    0.0000 C   0  0  0  0  0  0  0  0  0  0  0  0
   11.8303   -0.8077    0.0000 C   0  0  0  0  0  0  0  0  0  0  0  0
   10.5502   -3.4203    0.0000 C   0  0  0  0  0  0  0  0  0  0  0  0
    8.8468   -0.4941    0.0000 C   0  0  2  0  0  0  0  0  0  0  0  0
    9.8413   -0.5987    0.0000 C   0  0  0  0  0  0  0  0  0  0  0  0
    8.1776   -1.2373    0.0000 C   0  0  0  0  0  0  0  0  0  0  0  0
    7.2641   -0.8305    0.0000 C   0  0  2  0  0  0  0  0  0  0  0  0
    7.3686    0.1640    0.0000 C   0  0  0  0  0  0  0  0  0  0  0  0
    8.7535    1.2854    0.0000 C   0  0  0  0  0  0  0  0  0  0  0  0
   10.9570   -4.3338    0.0000 C   0  0  0  0  0  0  0  0  0  0  0  0
    8.1657    2.0945    0.0000 C   0  0  2  0  0  0  0  0  0  0  0  0
    8.5725    3.0080    0.0000 C   0  0  0  0  0  0  0  0  0  0  0  0
    8.9792    3.9216    0.0000 C   0  0  0  0  0  0  0  0  0  0  0  0
    9.4860    2.6013    0.0000 C   0  0  0  0  0  0  0  0  0  0  0  0
    7.6589    3.4148    0.0000 C   0  0  0  0  0  0  0  0  0  0  0  0
    6.3981   -2.3305    0.0000 C   0  0  0  0  0  0  0  0  0  0  0  0
    6.5834    2.7990    0.0000 C   0  0  0  0  0  0  0  0  0  0  0  0
    5.5320   -2.8305    0.0000 C   0  0  0  0  0  0  0  0  0  0  0  0
    7.2641   -2.8305    0.0000 C   0  0  0  0  0  0  0  0  0  0  0  0
    5.5320   -3.8305    0.0000 C   0  0  0  0  0  0  0  0  0  0  0  0
    7.2641   -3.8305    0.0000 C   0  0  0  0  0  0  0  0  0  0  0  0
    4.6381   -2.2959    0.0000 C   0  0  0  0  0  0  0  0  0  0  0  0
    6.4024    4.5215    0.0000 C   0  0  0  0  0  0  0  0  0  0  0  0
    4.6381   -4.3652    0.0000 C   0  0  0  0  0  0  0  0  0  0  0  0
    3.7320   -2.8097    0.0000 C   0  0  0  0  0  0  0  0  0  0  0  0
    3.7320   -3.8514    0.0000 C   0  0  0  0  0  0  0  0  0  0  0  0
    5.8146    5.3305    0.0000 C   0  0  0  0  0  0  0  0  0  0  0  0
    7.2114    5.1093    0.0000 C   0  0  0  0  0  0  0  0  0  0  0  0
    5.5934    3.9337    0.0000 C   0  0  0  0  0  0  0  0  0  0  0  0
    8.1301   -5.3305    0.0000 C   0  0  0  0  0  0  0  0  0  0  0  0
    8.9962   -3.8305    0.0000 C   0  0  0  0  0  0  0  0  0  0  0  0
    2.0000   -3.8580    0.0000 C   0  0  0  0  0  0  0  0  0  0  0  0
   10.5592   -2.3891    0.0000 H   0  0  0  0  0  0  0  0  0  0  0  0
   12.3983   -2.7185    0.0000 H   0  0  0  0  0  0  0  0  0  0  0  0
   12.4976   -1.7738    0.0000 H   0  0  0  0  0  0  0  0  0  0  0  0
    9.8836   -2.0138    0.0000 H   0  0  0  0  0  0  0  0  0  0  0  0
    9.9336   -3.3555    0.0000 H   0  0  0  0  0  0  0  0  0  0  0  0
    9.1844    0.0259    0.0000 H   0  0  0  0  0  0  0  0  0  0  0  0
    7.8676   -1.7742    0.0000 H   0  0  0  0  0  0  0  0  0  0  0  0
    8.6792   -1.6017    0.0000 H   0  0  0  0  0  0  0  0  0  0  0  0
    7.2966   -1.4497    0.0000 H   0  0  0  0  0  0  0  0  0  0  0  0
    7.3038    0.7806    0.0000 H   0  0  0  0  0  0  0  0  0  0  0  0
    6.7486    0.1640    0.0000 H   0  0  0  0  0  0  0  0  0  0  0  0
   10.5926   -4.8354    0.0000 H   0  0  0  0  0  0  0  0  0  0  0  0
   11.5736   -4.3986    0.0000 H   0  0  0  0  0  0  0  0  0  0  0  0
    7.8013    2.5960    0.0000 H   0  0  0  0  0  0  0  0  0  0  0  0
   13.1893   -0.4106    0.0000 H   0  0  0  0  0  0  0  0  0  0  0  0
    6.9190    1.4235    0.0000 H   0  0  0  0  0  0  0  0  0  0  0  0
    9.5456    3.6694    0.0000 H   0  0  0  0  0  0  0  0  0  0  0  0
    9.2314    4.4880    0.0000 H   0  0  0  0  0  0  0  0  0  0  0  0
    8.4128    4.1737    0.0000 H   0  0  0  0  0  0  0  0  0  0  0  0
    9.2338    2.0349    0.0000 H   0  0  0  0  0  0  0  0  0  0  0  0
   10.0524    2.3491    0.0000 H   0  0  0  0  0  0  0  0  0  0  0  0
    9.7382    3.1677    0.0000 H   0  0  0  0  0  0  0  0  0  0  0  0
    7.9111    3.9811    0.0000 H   0  0  0  0  0  0  0  0  0  0  0  0
    7.0925    3.6669    0.0000 H   0  0  0  0  0  0  0  0  0  0  0  0
    7.4067    2.8484    0.0000 H   0  0  0  0  0  0  0  0  0  0  0  0
    7.8010   -2.5205    0.0000 H   0  0  0  0  0  0  0  0  0  0  0  0
    4.6453   -1.6759    0.0000 H   0  0  0  0  0  0  0  0  0  0  0  0
    4.6453   -4.9852    0.0000 H   0  0  0  0  0  0  0  0  0  0  0  0
    3.1963   -2.4976    0.0000 H   0  0  0  0  0  0  0  0  0  0  0  0
    6.3162    5.6950    0.0000 H   0  0  0  0  0  0  0  0  0  0  0  0
    5.4502    5.8321    0.0000 H   0  0  0  0  0  0  0  0  0  0  0  0
    5.3130    4.9661    0.0000 H   0  0  0  0  0  0  0  0  0  0  0  0
    7.5758    4.6077    0.0000 H   0  0  0  0  0  0  0  0  0  0  0  0
    7.7130    5.4737    0.0000 H   0  0  0  0  0  0  0  0  0  0  0  0
    6.8470    5.6109    0.0000 H   0  0  0  0  0  0  0  0  0  0  0  0
    5.2289    4.4353    0.0000 H   0  0  0  0  0  0  0  0  0  0  0  0
    5.0918    3.5693    0.0000 H   0  0  0  0  0  0  0  0  0  0  0  0
    5.9578    3.4321    0.0000 H   0  0  0  0  0  0  0  0  0  0  0  0
    7.5101   -5.3305    0.0000 H   0  0  0  0  0  0  0  0  0  0  0  0
    8.1301   -5.9505    0.0000 H   0  0  0  0  0  0  0  0  0  0  0  0
    8.7501   -5.3305    0.0000 H   0  0  0  0  0  0  0  0  0  0  0  0
    9.3062   -4.3675    0.0000 H   0  0  0  0  0  0  0  0  0  0  0  0
    9.5331   -3.5205    0.0000 H   0  0  0  0  0  0  0  0  0  0  0  0
    8.6862   -3.2936    0.0000 H   0  0  0  0  0  0  0  0  0  0  0  0
    2.3079   -3.3199    0.0000 H   0  0  0  0  0  0  0  0  0  0  0  0
    1.4619   -3.5501    0.0000 H   0  0  0  0  0  0  0  0  0  0  0  0
    1.6921   -4.3961    0.0000 H   0  0  0  0  0  0  0  0  0  0  0  0
  1 17  1  0  0  0  0
  1 62  1  0  0  0  0
  2 17  2  0  0  0  0
 22  3  1  1  0  0  0
  3 31  1  0  0  0  0
  4 20  2  0  0  0  0
  5 24  2  0  0  0  0
  6 32  1  0  0  0  0
  6 38  1  0  0  0  0
  7 32  2  0  0  0  0
  8 41  1  0  0  0  0
  8 47  1  0  0  0  0
  9 14  1  0  0  0  0
  9 20  1  0  0  0  0
  9 51  1  0  0  0  0
 10 19  1  0  0  0  0
 10 23  1  0  0  0  0
 10 24  1  0  0  0  0
 26 11  1  1  0  0  0
 11 32  1  0  0  0  0
 11 63  1  0  0  0  0
 12 35  1  0  0  0  0
 12 36  2  0  0  0  0
 13 36  1  0  0  0  0
 13 45  1  0  0  0  0
 13 46  1  0  0  0  0
 14 15  1  0  0  0  0
 14 16  1  0  0  0  0
 14 17  1  0  0  0  0
 15 16  1  0  0  0  0
 15 18  1  6  0  0  0
 15 48  1  0  0  0  0
 16 49  1  0  0  0  0
 16 50  1  0  0  0  0
 18 25  2  0  0  0  0
 18 52  1  0  0  0  0
 19 20  1  6  0  0  0
 19 21  1  0  0  0  0
 19 53  1  0  0  0  0
 21 22  1  0  0  0  0
 21 54  1  0  0  0  0
 21 55  1  0  0  0  0
 22 23  1  0  0  0  0
 22 56  1  0  0  0  0
 23 57  1  0  0  0  0
 23 58  1  0  0  0  0
 24 26  1  0  0  0  0
 25 59  1  0  0  0  0
 25 60  1  0  0  0  0
 26 27  1  0  0  0  0
 26 61  1  0  0  0  0
 27 28  1  0  0  0  0
 27 29  1  0  0  0  0
 27 30  1  0  0  0  0
 28 64  1  0  0  0  0
 28 65  1  0  0  0  0
 28 66  1  0  0  0  0
 29 67  1  0  0  0  0
 29 68  1  0  0  0  0
 29 69  1  0  0  0  0
 30 70  1  0  0  0  0
 30 71  1  0  0  0  0
 30 72  1  0  0  0  0
 31 33  1  0  0  0  0
 31 34  2  0  0  0  0
 33 35  2  0  0  0  0
 33 37  1  0  0  0  0
 34 36  1  0  0  0  0
 34 73  1  0  0  0  0
 35 39  1  0  0  0  0
 37 40  2  0  0  0  0
 37 74  1  0  0  0  0
 38 42  1  0  0  0  0
 38 43  1  0  0  0  0
 38 44  1  0  0  0  0
 39 41  2  0  0  0  0
 39 75  1  0  0  0  0
 40 41  1  0  0  0  0
 40 76  1  0  0  0  0
 42 77  1  0  0  0  0
 42 78  1  0  0  0  0
 42 79  1  0  0  0  0
 43 80  1  0  0  0  0
 43 81  1  0  0  0  0
 43 82  1  0  0  0  0
 44 83  1  0  0  0  0
 44 84  1  0  0  0  0
 44 85  1  0  0  0  0
 45 86  1  0  0  0  0
 45 87  1  0  0  0  0
 45 88  1  0  0  0  0
 46 89  1  0  0  0  0
 46 90  1  0  0  0  0
 46 91  1  0  0  0  0
 47 92  1  0  0  0  0
 47 93  1  0  0  0  0
 47 94  1  0  0  0  0
M  END
> <PUBCHEM_COMPOUND_CID>
500729
> <PUBCHEM_COMPOUND_CANONICALIZED>
1
> <PUBCHEM_CACTVS_COMPLEXITY>
1200
> <PUBCHEM_CACTVS_HBOND_ACCEPTOR>
10
> <PUBCHEM_CACTVS_HBOND_DONOR>
3
> <PUBCHEM_CACTVS_ROTATABLE_BOND>
13
> <PUBCHEM_CACTVS_SUBSKEYS>
AAADcfB/vAAAAAAAAAAAAAAAGAAAAWAAAAA8QAAAAAAAAACx8AAAHgAQCAAAD/zhngYz/vPIFgCoAyfyfACCiCkhIiAJmKG+bJmOZvLEsbufeCju1hvY6Ce68a8PIAAAAgACAABAAAAEAAQAAAAAAAAAAA==
> <PUBCHEM_IUPAC_OPENEYE_NAME>
(2R)-1-[[(2S,4R)-1-[(2S)-2-(tert-butoxycarbonylamino)-3,3-dimethyl-butanoyl]-4-[[2-(dimethylamino)-7-methoxy-4-quinolyl]oxy]pyrrolidine-2-carbonyl]amino]-2-vinyl-cyclopropanecarboxylic acid
> <PUBCHEM_IUPAC_CAS_NAME>
(2R)-1-[[[(2S,4R)-4-[[2-(dimethylamino)-7-methoxy-4-quinolinyl]oxy]-1-[(2S)-3,3-dimethyl-2-[[(2-methylpropan-2-yl)oxy-oxomethyl]amino]-1-oxobutyl]-2-pyrrolidinyl]-oxomethyl]amino]-2-ethenyl-1-cyclopropanecarboxylic acid
> <PUBCHEM_IUPAC_NAME_MARKUP>
(2<I>R</I>)-1-[[(2<I>S</I>,4<I>R</I>)-4-[2-(dimethylamino)-7-methoxyquinolin-4-yl]oxy-1-[(2<I>S</I>)-3,3-dimethyl-2-[(2-methylpropan-2-yl)oxycarbonylamino]butanoyl]pyrrolidine-2-carbonyl]amino]-2-ethenylcyclopropane-1-carboxylic acid
> <PUBCHEM_IUPAC_NAME>
(2R)-1-[[(2S,4R)-4-[2-(dimethylamino)-7-methoxyquinolin-4-yl]oxy-1-[(2S)-3,3-dimethyl-2-[(2-methylpropan-2-yl)oxycarbonylamino]butanoyl]pyrrolidine-2-carbonyl]amino]-2-ethenylcyclopropane-1-carboxylic acid
> <PUBCHEM_IUPAC_SYSTEMATIC_NAME>
(2R)-1-[[(2S,4R)-4-[2-(dimethylamino)-7-methoxy-quinolin-4-yl]oxy-1-[(2S)-3,3-dimethyl-2-[(2-methylpropan-2-yl)oxycarbonylamino]butanoyl]pyrrolidin-2-yl]carbonylamino]-2-ethenyl-cyclopropane-1-carboxylic acid
> <PUBCHEM_IUPAC_TRADITIONAL_NAME>
(2R)-1-[[(2S,4R)-1-[(2S)-2-(tert-butoxycarbonylamino)-3,3-dimethyl-butanoyl]-4-[[2-(dimethylamino)-7-methoxy-4-quinolyl]oxy]prolyl]amino]-2-vinyl-cyclopropanecarboxylic acid
> <PUBCHEM_IUPAC_INCHI>
InChI=1S/C34H47N5O8/c1-11-19-17-34(19,30(42)43)37-28(40)24-15-21(18-39(24)29(41)27(32(2,3)4)36-31(44)47-33(5,6)7)46-25-16-26(38(8)9)35-23-14-20(45-10)12-13-22(23)25/h11-14,16,19,21,24,27H,1,15,17-18H2,2-10H3,(H,36,44)(H,37,40)(H,42,43)/t19-,21+,24-,27+,34?/m0/s1
> <PUBCHEM_IUPAC_INCHIKEY>
NHNPIAZWQZSYEK-YACONBFDSA-N
> <PUBCHEM_XLOGP3_AA>
4.6
> <PUBCHEM_EXACT_MASS>
653.34246347
> <PUBCHEM_MOLECULAR_FORMULA>
C34H47N5O8
> <PUBCHEM_MOLECULAR_WEIGHT>
653.8
> <PUBCHEM_OPENEYE_CAN_SMILES>
CC(C)(C)C(C(=O)N1CC(CC1C(=O)NC2(CC2C=C)C(=O)O)OC3=CC(=NC4=C3C=CC(=C4)OC)N(C)C)NC(=O)OC(C)(C)C
> <PUBCHEM_OPENEYE_ISO_SMILES>
CC(C)(C)[C@@H](C(=O)N1C[C@@H](C[C@H]1C(=O)NC2(C[C@@H]2C=C)C(=O)O)OC3=CC(=NC4=C3C=CC(=C4)OC)N(C)C)NC(=O)OC(C)(C)C
> <PUBCHEM_CACTVS_TPSA>
160
> <PUBCHEM_MONOISOTOPIC_WEIGHT>
653.34246347
> <PUBCHEM_TOTAL_CHARGE>
0
> <PUBCHEM_HEAVY_ATOM_COUNT>
47
> <PUBCHEM_ATOM_DEF_STEREO_COUNT>
4
> <PUBCHEM_ATOM_UDEF_STEREO_COUNT>
1
> <PUBCHEM_BOND_DEF_STEREO_COUNT>
0
> <PUBCHEM_BOND_UDEF_STEREO_COUNT>
0
> <PUBCHEM_ISOTOPIC_ATOM_COUNT>
0
> <PUBCHEM_COMPONENT_COUNT>
1
> <PUBCHEM_CACTVS_TAUTO_COUNT>
-1
> <PUBCHEM_COORDINATE_TYPE>
1
5
255
> <PUBCHEM_BONDANNOTATIONS>
26  11  5
12  35  8
12  36  8
14  17  3
15  18  6
19  20  6
22  3  5
31  33  8
31  34  8
33  35  8
33  37  8
34  36  8
35  39  8
37  40  8
39  41  8
40  41  8
$$$$
