500750
  -OEChem-10302200282D
 93 96  0     1  0  0  0  0  0999 V2000
    8.1301   -3.5715    0.0000 S   0  0  0  0  0  0  0  0  0  0  0  0
   12.6438   -1.8758    0.0000 O   0  0  0  0  0  0  0  0  0  0  0  0
   11.0615   -2.5802    0.0000 O   0  0  0  0  0  0  0  0  0  0  0  0
    6.3981   -0.5715    0.0000 O   0  0  0  0  0  0  0  0  0  0  0  0
   10.4291    0.9694    0.0000 O   0  0  0  0  0  0  0  0  0  0  0  0
    9.7480    2.1490    0.0000 O   0  0  0  0  0  0  0  0  0  0  0  0
    5.5889    3.4535    0.0000 O   0  0  0  0  0  0  0  0  0  0  0  0
    6.9902    4.4715    0.0000 O   0  0  0  0  0  0  0  0  0  0  0  0
    2.8680   -3.5956    0.0000 O   0  0  0  0  0  0  0  0  0  0  0  0
   10.2480   -0.7532    0.0000 N   0  0  0  0  0  0  0  0  0  0  0  0
    8.3468    1.1309    0.0000 N   0  0  0  0  0  0  0  0  0  0  0  0
    7.1712    2.7490    0.0000 N   0  0  0  0  0  0  0  0  0  0  0  0
    6.3981   -3.5715    0.0000 N   0  0  0  0  0  0  0  0  0  0  0  0
   11.2426   -0.8577    0.0000 C   0  0  3  0  0  0  0  0  0  0  0  0
   12.1561   -0.4510    0.0000 C   0  0  2  0  0  0  0  0  0  0  0  0
   11.3471    0.1368    0.0000 C   0  0  0  0  0  0  0  0  0  0  0  0
   11.6493   -1.7712    0.0000 C   0  0  0  0  0  0  0  0  0  0  0  0
   13.1506   -0.5555    0.0000 C   0  0  0  0  0  0  0  0  0  0  0  0
    8.8468    0.2649    0.0000 C   0  0  2  0  0  0  0  0  0  0  0  0
    9.8413    0.1604    0.0000 C   0  0  0  0  0  0  0  0  0  0  0  0
    8.1776   -0.4782    0.0000 C   0  0  0  0  0  0  0  0  0  0  0  0
    7.2641   -0.0715    0.0000 C   0  0  2  0  0  0  0  0  0  0  0  0
    7.3686    0.9230    0.0000 C   0  0  0  0  0  0  0  0  0  0  0  0
    8.7535    2.0445    0.0000 C   0  0  0  0  0  0  0  0  0  0  0  0
   13.7384    0.2535    0.0000 C   0  0  0  0  0  0  0  0  0  0  0  0
    8.1657    2.8535    0.0000 C   0  0  2  0  0  0  0  0  0  0  0  0
    8.5725    3.7670    0.0000 C   0  0  0  0  0  0  0  0  0  0  0  0
    8.9792    4.6806    0.0000 C   0  0  0  0  0  0  0  0  0  0  0  0
    7.6589    4.1738    0.0000 C   0  0  0  0  0  0  0  0  0  0  0  0
    9.4860    3.3603    0.0000 C   0  0  0  0  0  0  0  0  0  0  0  0
    6.3981   -1.5715    0.0000 C   0  0  0  0  0  0  0  0  0  0  0  0
    6.5834    3.5580    0.0000 C   0  0  0  0  0  0  0  0  0  0  0  0
    5.5320   -2.0715    0.0000 C   0  0  0  0  0  0  0  0  0  0  0  0
    7.2641   -2.0715    0.0000 C   0  0  0  0  0  0  0  0  0  0  0  0
    5.5320   -3.0715    0.0000 C   0  0  0  0  0  0  0  0  0  0  0  0
    7.2641   -3.0715    0.0000 C   0  0  0  0  0  0  0  0  0  0  0  0
    4.6381   -1.5368    0.0000 C   0  0  0  0  0  0  0  0  0  0  0  0
    5.0011    4.2625    0.0000 C   0  0  0  0  0  0  0  0  0  0  0  0
    4.6381   -3.6062    0.0000 C   0  0  0  0  0  0  0  0  0  0  0  0
    3.7320   -2.0507    0.0000 C   0  0  0  0  0  0  0  0  0  0  0  0
    3.7320   -3.0923    0.0000 C   0  0  0  0  0  0  0  0  0  0  0  0
    4.4133    5.0715    0.0000 C   0  0  0  0  0  0  0  0  0  0  0  0
    4.1921    3.6747    0.0000 C   0  0  0  0  0  0  0  0  0  0  0  0
    5.8101    4.8503    0.0000 C   0  0  0  0  0  0  0  0  0  0  0  0
    8.1301   -4.5715    0.0000 C   0  0  0  0  0  0  0  0  0  0  0  0
    8.9962   -5.0715    0.0000 C   0  0  0  0  0  0  0  0  0  0  0  0
    2.0000   -3.0990    0.0000 C   0  0  0  0  0  0  0  0  0  0  0  0
   12.3783    0.1279    0.0000 H   0  0  0  0  0  0  0  0  0  0  0  0
   11.6189    0.6941    0.0000 H   0  0  0  0  0  0  0  0  0  0  0  0
   10.7511    0.3077    0.0000 H   0  0  0  0  0  0  0  0  0  0  0  0
    9.8836   -1.2548    0.0000 H   0  0  0  0  0  0  0  0  0  0  0  0
   13.4028   -1.1219    0.0000 H   0  0  0  0  0  0  0  0  0  0  0  0
    9.1844    0.7849    0.0000 H   0  0  0  0  0  0  0  0  0  0  0  0
    7.8676   -1.0152    0.0000 H   0  0  0  0  0  0  0  0  0  0  0  0
    8.6792   -0.8427    0.0000 H   0  0  0  0  0  0  0  0  0  0  0  0
    6.7441    0.2662    0.0000 H   0  0  0  0  0  0  0  0  0  0  0  0
    7.3038    1.5396    0.0000 H   0  0  0  0  0  0  0  0  0  0  0  0
    6.7486    0.9230    0.0000 H   0  0  0  0  0  0  0  0  0  0  0  0
   14.3550    0.1887    0.0000 H   0  0  0  0  0  0  0  0  0  0  0  0
   13.4862    0.8199    0.0000 H   0  0  0  0  0  0  0  0  0  0  0  0
    7.8013    3.3551    0.0000 H   0  0  0  0  0  0  0  0  0  0  0  0
   12.8960   -2.4422    0.0000 H   0  0  0  0  0  0  0  0  0  0  0  0
    6.9190    2.1826    0.0000 H   0  0  0  0  0  0  0  0  0  0  0  0
    9.5456    4.4284    0.0000 H   0  0  0  0  0  0  0  0  0  0  0  0
    9.2314    5.2470    0.0000 H   0  0  0  0  0  0  0  0  0  0  0  0
    8.4128    4.9328    0.0000 H   0  0  0  0  0  0  0  0  0  0  0  0
    7.9111    4.7402    0.0000 H   0  0  0  0  0  0  0  0  0  0  0  0
    7.0925    4.4260    0.0000 H   0  0  0  0  0  0  0  0  0  0  0  0
    7.4067    3.6074    0.0000 H   0  0  0  0  0  0  0  0  0  0  0  0
    9.2338    2.7939    0.0000 H   0  0  0  0  0  0  0  0  0  0  0  0
   10.0524    3.1081    0.0000 H   0  0  0  0  0  0  0  0  0  0  0  0
    9.7382    3.9267    0.0000 H   0  0  0  0  0  0  0  0  0  0  0  0
    7.8010   -1.7615    0.0000 H   0  0  0  0  0  0  0  0  0  0  0  0
    4.6453   -0.9169    0.0000 H   0  0  0  0  0  0  0  0  0  0  0  0
    4.6453   -4.2261    0.0000 H   0  0  0  0  0  0  0  0  0  0  0  0
    3.1963   -1.7386    0.0000 H   0  0  0  0  0  0  0  0  0  0  0  0
    4.9149    5.4359    0.0000 H   0  0  0  0  0  0  0  0  0  0  0  0
    4.0489    5.5731    0.0000 H   0  0  0  0  0  0  0  0  0  0  0  0
    3.9117    4.7071    0.0000 H   0  0  0  0  0  0  0  0  0  0  0  0
    3.8277    4.1763    0.0000 H   0  0  0  0  0  0  0  0  0  0  0  0
    3.6905    3.3103    0.0000 H   0  0  0  0  0  0  0  0  0  0  0  0
    4.5565    3.1731    0.0000 H   0  0  0  0  0  0  0  0  0  0  0  0
    6.1746    4.3487    0.0000 H   0  0  0  0  0  0  0  0  0  0  0  0
    6.3117    5.2147    0.0000 H   0  0  0  0  0  0  0  0  0  0  0  0
    5.4457    5.3518    0.0000 H   0  0  0  0  0  0  0  0  0  0  0  0
    7.5195   -4.4638    0.0000 H   0  0  0  0  0  0  0  0  0  0  0  0
    7.9181   -5.1541    0.0000 H   0  0  0  0  0  0  0  0  0  0  0  0
    8.6862   -5.6084    0.0000 H   0  0  0  0  0  0  0  0  0  0  0  0
    9.5331   -5.3815    0.0000 H   0  0  0  0  0  0  0  0  0  0  0  0
    9.3062   -4.5346    0.0000 H   0  0  0  0  0  0  0  0  0  0  0  0
    2.3079   -2.5609    0.0000 H   0  0  0  0  0  0  0  0  0  0  0  0
    1.4619   -2.7911    0.0000 H   0  0  0  0  0  0  0  0  0  0  0  0
    1.6921   -3.6371    0.0000 H   0  0  0  0  0  0  0  0  0  0  0  0
  1 36  1  0  0  0  0
  1 45  1  0  0  0  0
  2 17  1  0  0  0  0
  2 62  1  0  0  0  0
  3 17  2  0  0  0  0
 22  4  1  1  0  0  0
  4 31  1  0  0  0  0
  5 20  2  0  0  0  0
  6 24  2  0  0  0  0
  7 32  1  0  0  0  0
  7 38  1  0  0  0  0
  8 32  2  0  0  0  0
  9 41  1  0  0  0  0
  9 47  1  0  0  0  0
 10 14  1  0  0  0  0
 10 20  1  0  0  0  0
 10 51  1  0  0  0  0
 11 19  1  0  0  0  0
 11 23  1  0  0  0  0
 11 24  1  0  0  0  0
 26 12  1  1  0  0  0
 12 32  1  0  0  0  0
 12 63  1  0  0  0  0
 13 35  1  0  0  0  0
 13 36  2  0  0  0  0
 14 15  1  0  0  0  0
 14 16  1  0  0  0  0
 14 17  1  0  0  0  0
 15 16  1  0  0  0  0
 15 18  1  6  0  0  0
 15 48  1  0  0  0  0
 16 49  1  0  0  0  0
 16 50  1  0  0  0  0
 18 25  2  0  0  0  0
 18 52  1  0  0  0  0
 19 20  1  6  0  0  0
 19 21  1  0  0  0  0
 19 53  1  0  0  0  0
 21 22  1  0  0  0  0
 21 54  1  0  0  0  0
 21 55  1  0  0  0  0
 22 23  1  0  0  0  0
 22 56  1  0  0  0  0
 23 57  1  0  0  0  0
 23 58  1  0  0  0  0
 24 26  1  0  0  0  0
 25 59  1  0  0  0  0
 25 60  1  0  0  0  0
 26 27  1  0  0  0  0
 26 61  1  0  0  0  0
 27 28  1  0  0  0  0
 27 29  1  0  0  0  0
 27 30  1  0  0  0  0
 28 64  1  0  0  0  0
 28 65  1  0  0  0  0
 28 66  1  0  0  0  0
 29 67  1  0  0  0  0
 29 68  1  0  0  0  0
 29 69  1  0  0  0  0
 30 70  1  0  0  0  0
 30 71  1  0  0  0  0
 30 72  1  0  0  0  0
 31 33  1  0  0  0  0
 31 34  2  0  0  0  0
 33 35  2  0  0  0  0
 33 37  1  0  0  0  0
 34 36  1  0  0  0  0
 34 73  1  0  0  0  0
 35 39  1  0  0  0  0
 37 40  2  0  0  0  0
 37 74  1  0  0  0  0
 38 42  1  0  0  0  0
 38 43  1  0  0  0  0
 38 44  1  0  0  0  0
 39 41  2  0  0  0  0
 39 75  1  0  0  0  0
 40 41  1  0  0  0  0
 40 76  1  0  0  0  0
 42 77  1  0  0  0  0
 42 78  1  0  0  0  0
 42 79  1  0  0  0  0
 43 80  1  0  0  0  0
 43 81  1  0  0  0  0
 43 82  1  0  0  0  0
 44 83  1  0  0  0  0
 44 84  1  0  0  0  0
 44 85  1  0  0  0  0
 45 46  1  0  0  0  0
 45 86  1  0  0  0  0
 45 87  1  0  0  0  0
 46 88  1  0  0  0  0
 46 89  1  0  0  0  0
 46 90  1  0  0  0  0
 47 91  1  0  0  0  0
 47 92  1  0  0  0  0
 47 93  1  0  0  0  0
M  END
> <PUBCHEM_COMPOUND_CID>
500750
> <PUBCHEM_COMPOUND_CANONICALIZED>
1
> <PUBCHEM_CACTVS_COMPLEXITY>
1190
> <PUBCHEM_CACTVS_HBOND_ACCEPTOR>
10
> <PUBCHEM_CACTVS_HBOND_DONOR>
3
> <PUBCHEM_CACTVS_ROTATABLE_BOND>
14
> <PUBCHEM_CACTVS_SUBSKEYS>
AAADcfB/vABAAAAAAAAAAAAAGAAAAWAAAAA8QAAAAAAAAACx8AAAHgQQCAAAD/zl3gayz/PIFgioAyXyXACC2CBhKjAImLm+bJkOZvLksbufeCjm1hn46Ae68a8PIAAAAgACAABAAAAEAAQAAAAAAAAAAA==
> <PUBCHEM_IUPAC_OPENEYE_NAME>
(2R)-1-[[(2S,4R)-1-[(2S)-2-(tert-butoxycarbonylamino)-3,3-dimethyl-butanoyl]-4-[(2-ethylsulfanyl-7-methoxy-4-quinolyl)oxy]pyrrolidine-2-carbonyl]amino]-2-vinyl-cyclopropanecarboxylic acid
> <PUBCHEM_IUPAC_CAS_NAME>
(2R)-1-[[[(2S,4R)-1-[(2S)-3,3-dimethyl-2-[[(2-methylpropan-2-yl)oxy-oxomethyl]amino]-1-oxobutyl]-4-[[2-(ethylthio)-7-methoxy-4-quinolinyl]oxy]-2-pyrrolidinyl]-oxomethyl]amino]-2-ethenyl-1-cyclopropanecarboxylic acid
> <PUBCHEM_IUPAC_NAME_MARKUP>
(2<I>R</I>)-1-[[(2<I>S</I>,4<I>R</I>)-1-[(2<I>S</I>)-3,3-dimethyl-2-[(2-methylpropan-2-yl)oxycarbonylamino]butanoyl]-4-(2-ethylsulfanyl-7-methoxyquinolin-4-yl)oxypyrrolidine-2-carbonyl]amino]-2-ethenylcyclopropane-1-carboxylic acid
> <PUBCHEM_IUPAC_NAME>
(2R)-1-[[(2S,4R)-1-[(2S)-3,3-dimethyl-2-[(2-methylpropan-2-yl)oxycarbonylamino]butanoyl]-4-(2-ethylsulfanyl-7-methoxyquinolin-4-yl)oxypyrrolidine-2-carbonyl]amino]-2-ethenylcyclopropane-1-carboxylic acid
> <PUBCHEM_IUPAC_SYSTEMATIC_NAME>
(2R)-1-[[(2S,4R)-1-[(2S)-3,3-dimethyl-2-[(2-methylpropan-2-yl)oxycarbonylamino]butanoyl]-4-(2-ethylsulfanyl-7-methoxy-quinolin-4-yl)oxy-pyrrolidin-2-yl]carbonylamino]-2-ethenyl-cyclopropane-1-carboxylic acid
> <PUBCHEM_IUPAC_TRADITIONAL_NAME>
(2R)-1-[[(2S,4R)-1-[(2S)-2-(tert-butoxycarbonylamino)-3,3-dimethyl-butanoyl]-4-[[2-(ethylthio)-7-methoxy-4-quinolyl]oxy]prolyl]amino]-2-vinyl-cyclopropanecarboxylic acid
> <PUBCHEM_IUPAC_INCHI>
InChI=1S/C34H46N4O8S/c1-10-19-17-34(19,30(41)42)37-28(39)24-15-21(18-38(24)29(40)27(32(3,4)5)36-31(43)46-33(6,7)8)45-25-16-26(47-11-2)35-23-14-20(44-9)12-13-22(23)25/h10,12-14,16,19,21,24,27H,1,11,15,17-18H2,2-9H3,(H,36,43)(H,37,39)(H,41,42)/t19-,21+,24-,27+,34?/m0/s1
> <PUBCHEM_IUPAC_INCHIKEY>
HLYHHMXGUUIGOL-YACONBFDSA-N
> <PUBCHEM_XLOGP3_AA>
5.4
> <PUBCHEM_EXACT_MASS>
670.30363561
> <PUBCHEM_MOLECULAR_FORMULA>
C34H46N4O8S
> <PUBCHEM_MOLECULAR_WEIGHT>
670.8
> <PUBCHEM_OPENEYE_CAN_SMILES>
CCSC1=NC2=C(C=CC(=C2)OC)C(=C1)OC3CC(N(C3)C(=O)C(C(C)(C)C)NC(=O)OC(C)(C)C)C(=O)NC4(CC4C=C)C(=O)O
> <PUBCHEM_OPENEYE_ISO_SMILES>
CCSC1=NC2=C(C=CC(=C2)OC)C(=C1)O[C@@H]3C[C@H](N(C3)C(=O)[C@H](C(C)(C)C)NC(=O)OC(C)(C)C)C(=O)NC4(C[C@@H]4C=C)C(=O)O
> <PUBCHEM_CACTVS_TPSA>
182
> <PUBCHEM_MONOISOTOPIC_WEIGHT>
670.30363561
> <PUBCHEM_TOTAL_CHARGE>
0
> <PUBCHEM_HEAVY_ATOM_COUNT>
47
> <PUBCHEM_ATOM_DEF_STEREO_COUNT>
4
> <PUBCHEM_ATOM_UDEF_STEREO_COUNT>
1
> <PUBCHEM_BOND_DEF_STEREO_COUNT>
0
> <PUBCHEM_BOND_UDEF_STEREO_COUNT>
0
> <PUBCHEM_ISOTOPIC_ATOM_COUNT>
0
> <PUBCHEM_COMPONENT_COUNT>
1
> <PUBCHEM_CACTVS_TAUTO_COUNT>
-1
> <PUBCHEM_COORDINATE_TYPE>
1
5
255
> <PUBCHEM_BONDANNOTATIONS>
26  12  5
13  35  8
13  36  8
14  17  3
15  18  6
19  20  6
31  33  8
31  34  8
33  35  8
33  37  8
34  36  8
35  39  8
37  40  8
39  41  8
22  4  5
40  41  8
$$$$
