500730
  -OEChem-10302200282D
 92 96  0     1  0  0  0  0  0999 V2000
    9.2128   -5.4318    0.0000 S   0  0  0  0  0  0  0  0  0  0  0  0
   12.8249   -0.8110    0.0000 O   0  0  0  0  0  0  0  0  0  0  0  0
   11.4236    0.2071    0.0000 O   0  0  0  0  0  0  0  0  0  0  0  0
    6.3981   -1.2293    0.0000 O   0  0  0  0  0  0  0  0  0  0  0  0
   10.4291    0.3116    0.0000 O   0  0  0  0  0  0  0  0  0  0  0  0
    9.7480    1.4912    0.0000 O   0  0  0  0  0  0  0  0  0  0  0  0
    6.9902    3.8137    0.0000 O   0  0  0  0  0  0  0  0  0  0  0  0
    5.5889    2.7956    0.0000 O   0  0  0  0  0  0  0  0  0  0  0  0
    2.8680   -4.2535    0.0000 O   0  0  0  0  0  0  0  0  0  0  0  0
   10.2480   -1.4110    0.0000 N   0  0  0  0  0  0  0  0  0  0  0  0
    8.3468    0.4731    0.0000 N   0  0  0  0  0  0  0  0  0  0  0  0
    7.1712    2.0912    0.0000 N   0  0  0  0  0  0  0  0  0  0  0  0
    6.3981   -4.2293    0.0000 N   0  0  0  0  0  0  0  0  0  0  0  0
    9.0437   -3.8226    0.0000 N   0  0  0  0  0  0  0  0  0  0  0  0
   11.2426   -1.5155    0.0000 C   0  0  3  0  0  0  0  0  0  0  0  0
   11.1380   -2.5100    0.0000 C   0  0  2  0  0  0  0  0  0  0  0  0
   12.0516   -2.1033    0.0000 C   0  0  0  0  0  0  0  0  0  0  0  0
   11.8303   -0.7065    0.0000 C   0  0  0  0  0  0  0  0  0  0  0  0
   10.5502   -3.3190    0.0000 C   0  0  0  0  0  0  0  0  0  0  0  0
    8.8468   -0.3929    0.0000 C   0  0  2  0  0  0  0  0  0  0  0  0
    9.8413   -0.4974    0.0000 C   0  0  0  0  0  0  0  0  0  0  0  0
    8.1776   -1.1360    0.0000 C   0  0  0  0  0  0  0  0  0  0  0  0
    7.2641   -0.7293    0.0000 C   0  0  2  0  0  0  0  0  0  0  0  0
    7.3686    0.2652    0.0000 C   0  0  0  0  0  0  0  0  0  0  0  0
    8.7535    1.3867    0.0000 C   0  0  0  0  0  0  0  0  0  0  0  0
   10.9570   -4.2326    0.0000 C   0  0  0  0  0  0  0  0  0  0  0  0
    8.1657    2.1957    0.0000 C   0  0  2  0  0  0  0  0  0  0  0  0
    8.5725    3.1092    0.0000 C   0  0  0  0  0  0  0  0  0  0  0  0
    8.9792    4.0228    0.0000 C   0  0  0  0  0  0  0  0  0  0  0  0
    7.6589    3.5160    0.0000 C   0  0  0  0  0  0  0  0  0  0  0  0
    9.4860    2.7025    0.0000 C   0  0  0  0  0  0  0  0  0  0  0  0
    6.3981   -2.2293    0.0000 C   0  0  0  0  0  0  0  0  0  0  0  0
    6.5834    2.9002    0.0000 C   0  0  0  0  0  0  0  0  0  0  0  0
    5.5320   -2.7293    0.0000 C   0  0  0  0  0  0  0  0  0  0  0  0
    7.2641   -2.7293    0.0000 C   0  0  0  0  0  0  0  0  0  0  0  0
    5.5320   -3.7293    0.0000 C   0  0  0  0  0  0  0  0  0  0  0  0
    7.2641   -3.7293    0.0000 C   0  0  0  0  0  0  0  0  0  0  0  0
    4.6381   -2.1947    0.0000 C   0  0  0  0  0  0  0  0  0  0  0  0
    6.4024    4.6227    0.0000 C   0  0  0  0  0  0  0  0  0  0  0  0
    4.6381   -4.2640    0.0000 C   0  0  0  0  0  0  0  0  0  0  0  0
    3.7320   -2.7085    0.0000 C   0  0  0  0  0  0  0  0  0  0  0  0
    8.1301   -4.2293    0.0000 C   0  0  0  0  0  0  0  0  0  0  0  0
    3.7320   -3.7501    0.0000 C   0  0  0  0  0  0  0  0  0  0  0  0
    5.8146    5.4318    0.0000 C   0  0  0  0  0  0  0  0  0  0  0  0
    7.2114    5.2105    0.0000 C   0  0  0  0  0  0  0  0  0  0  0  0
    5.5934    4.0350    0.0000 C   0  0  0  0  0  0  0  0  0  0  0  0
    8.2346   -5.2238    0.0000 C   0  0  0  0  0  0  0  0  0  0  0  0
    9.7128   -4.5657    0.0000 C   0  0  0  0  0  0  0  0  0  0  0  0
    2.0000   -3.7568    0.0000 C   0  0  0  0  0  0  0  0  0  0  0  0
   10.5592   -2.2878    0.0000 H   0  0  0  0  0  0  0  0  0  0  0  0
   12.3983   -2.6173    0.0000 H   0  0  0  0  0  0  0  0  0  0  0  0
   12.4976   -1.6726    0.0000 H   0  0  0  0  0  0  0  0  0  0  0  0
    9.8836   -1.9126    0.0000 H   0  0  0  0  0  0  0  0  0  0  0  0
    9.9336   -3.2542    0.0000 H   0  0  0  0  0  0  0  0  0  0  0  0
    9.1844    0.1271    0.0000 H   0  0  0  0  0  0  0  0  0  0  0  0
    7.8676   -1.6730    0.0000 H   0  0  0  0  0  0  0  0  0  0  0  0
    8.6792   -1.5005    0.0000 H   0  0  0  0  0  0  0  0  0  0  0  0
    7.2966   -1.3485    0.0000 H   0  0  0  0  0  0  0  0  0  0  0  0
    7.3038    0.8818    0.0000 H   0  0  0  0  0  0  0  0  0  0  0  0
    6.7486    0.2652    0.0000 H   0  0  0  0  0  0  0  0  0  0  0  0
   10.5926   -4.7342    0.0000 H   0  0  0  0  0  0  0  0  0  0  0  0
   11.5736   -4.2974    0.0000 H   0  0  0  0  0  0  0  0  0  0  0  0
    7.8013    2.6973    0.0000 H   0  0  0  0  0  0  0  0  0  0  0  0
   13.1893   -0.3094    0.0000 H   0  0  0  0  0  0  0  0  0  0  0  0
    6.9190    1.5248    0.0000 H   0  0  0  0  0  0  0  0  0  0  0  0
    9.5456    3.7706    0.0000 H   0  0  0  0  0  0  0  0  0  0  0  0
    9.2314    4.5892    0.0000 H   0  0  0  0  0  0  0  0  0  0  0  0
    8.4128    4.2749    0.0000 H   0  0  0  0  0  0  0  0  0  0  0  0
    7.9111    4.0824    0.0000 H   0  0  0  0  0  0  0  0  0  0  0  0
    7.0925    3.7681    0.0000 H   0  0  0  0  0  0  0  0  0  0  0  0
    7.4067    2.9496    0.0000 H   0  0  0  0  0  0  0  0  0  0  0  0
    9.2338    2.1361    0.0000 H   0  0  0  0  0  0  0  0  0  0  0  0
   10.0524    2.4503    0.0000 H   0  0  0  0  0  0  0  0  0  0  0  0
    9.7382    3.2689    0.0000 H   0  0  0  0  0  0  0  0  0  0  0  0
    7.8010   -2.4193    0.0000 H   0  0  0  0  0  0  0  0  0  0  0  0
    4.6453   -1.5747    0.0000 H   0  0  0  0  0  0  0  0  0  0  0  0
    4.6453   -4.8839    0.0000 H   0  0  0  0  0  0  0  0  0  0  0  0
    3.1963   -2.3964    0.0000 H   0  0  0  0  0  0  0  0  0  0  0  0
    6.3162    5.7962    0.0000 H   0  0  0  0  0  0  0  0  0  0  0  0
    5.4502    5.9333    0.0000 H   0  0  0  0  0  0  0  0  0  0  0  0
    5.3130    5.0673    0.0000 H   0  0  0  0  0  0  0  0  0  0  0  0
    7.5758    4.7089    0.0000 H   0  0  0  0  0  0  0  0  0  0  0  0
    7.7130    5.5749    0.0000 H   0  0  0  0  0  0  0  0  0  0  0  0
    6.8470    5.7121    0.0000 H   0  0  0  0  0  0  0  0  0  0  0  0
    5.2289    4.5365    0.0000 H   0  0  0  0  0  0  0  0  0  0  0  0
    5.0918    3.6705    0.0000 H   0  0  0  0  0  0  0  0  0  0  0  0
    5.9578    3.5334    0.0000 H   0  0  0  0  0  0  0  0  0  0  0  0
    7.7739   -5.6387    0.0000 H   0  0  0  0  0  0  0  0  0  0  0  0
   10.3294   -4.5009    0.0000 H   0  0  0  0  0  0  0  0  0  0  0  0
    2.3079   -3.2187    0.0000 H   0  0  0  0  0  0  0  0  0  0  0  0
    1.4619   -3.4489    0.0000 H   0  0  0  0  0  0  0  0  0  0  0  0
    1.6921   -4.2949    0.0000 H   0  0  0  0  0  0  0  0  0  0  0  0
  1 47  1  0  0  0  0
  1 48  1  0  0  0  0
  2 18  1  0  0  0  0
  2 64  1  0  0  0  0
  3 18  2  0  0  0  0
 23  4  1  1  0  0  0
  4 32  1  0  0  0  0
  5 21  2  0  0  0  0
  6 25  2  0  0  0  0
  7 33  1  0  0  0  0
  7 39  1  0  0  0  0
  8 33  2  0  0  0  0
  9 43  1  0  0  0  0
  9 49  1  0  0  0  0
 10 15  1  0  0  0  0
 10 21  1  0  0  0  0
 10 53  1  0  0  0  0
 11 20  1  0  0  0  0
 11 24  1  0  0  0  0
 11 25  1  0  0  0  0
 27 12  1  1  0  0  0
 12 33  1  0  0  0  0
 12 65  1  0  0  0  0
 13 36  1  0  0  0  0
 13 37  2  0  0  0  0
 14 42  1  0  0  0  0
 14 48  2  0  0  0  0
 15 16  1  0  0  0  0
 15 17  1  0  0  0  0
 15 18  1  0  0  0  0
 16 17  1  0  0  0  0
 16 19  1  6  0  0  0
 16 50  1  0  0  0  0
 17 51  1  0  0  0  0
 17 52  1  0  0  0  0
 19 26  2  0  0  0  0
 19 54  1  0  0  0  0
 20 21  1  6  0  0  0
 20 22  1  0  0  0  0
 20 55  1  0  0  0  0
 22 23  1  0  0  0  0
 22 56  1  0  0  0  0
 22 57  1  0  0  0  0
 23 24  1  0  0  0  0
 23 58  1  0  0  0  0
 24 59  1  0  0  0  0
 24 60  1  0  0  0  0
 25 27  1  0  0  0  0
 26 61  1  0  0  0  0
 26 62  1  0  0  0  0
 27 28  1  0  0  0  0
 27 63  1  0  0  0  0
 28 29  1  0  0  0  0
 28 30  1  0  0  0  0
 28 31  1  0  0  0  0
 29 66  1  0  0  0  0
 29 67  1  0  0  0  0
 29 68  1  0  0  0  0
 30 69  1  0  0  0  0
 30 70  1  0  0  0  0
 30 71  1  0  0  0  0
 31 72  1  0  0  0  0
 31 73  1  0  0  0  0
 31 74  1  0  0  0  0
 32 34  1  0  0  0  0
 32 35  2  0  0  0  0
 34 36  2  0  0  0  0
 34 38  1  0  0  0  0
 35 37  1  0  0  0  0
 35 75  1  0  0  0  0
 36 40  1  0  0  0  0
 37 42  1  0  0  0  0
 38 41  2  0  0  0  0
 38 76  1  0  0  0  0
 39 44  1  0  0  0  0
 39 45  1  0  0  0  0
 39 46  1  0  0  0  0
 40 43  2  0  0  0  0
 40 77  1  0  0  0  0
 41 43  1  0  0  0  0
 41 78  1  0  0  0  0
 42 47  2  0  0  0  0
 44 79  1  0  0  0  0
 44 80  1  0  0  0  0
 44 81  1  0  0  0  0
 45 82  1  0  0  0  0
 45 83  1  0  0  0  0
 45 84  1  0  0  0  0
 46 85  1  0  0  0  0
 46 86  1  0  0  0  0
 46 87  1  0  0  0  0
 47 88  1  0  0  0  0
 48 89  1  0  0  0  0
 49 90  1  0  0  0  0
 49 91  1  0  0  0  0
 49 92  1  0  0  0  0
M  END
> <PUBCHEM_COMPOUND_CID>
500730
> <PUBCHEM_COMPOUND_CANONICALIZED>
1
> <PUBCHEM_CACTVS_COMPLEXITY>
1270
> <PUBCHEM_CACTVS_HBOND_ACCEPTOR>
11
> <PUBCHEM_CACTVS_HBOND_DONOR>
3
> <PUBCHEM_CACTVS_ROTATABLE_BOND>
13
> <PUBCHEM_CACTVS_SUBSKEYS>
AAADcfB/vABAAAAAAAAAAAAAGAAAAWLAAAA8QAAAAAAAAACx/AAAHgQQCAAAD/zl3ga2z/PIFgisAyXzXACC+KBxKjgI2LW+bJkOZvLksbufeCjm1hnY6Ae68e8PIAAAAgACAABAAAAEAAQAAAAAAAAAAA==
> <PUBCHEM_IUPAC_OPENEYE_NAME>
(2R)-1-[[(2S,4R)-1-[(2S)-2-(tert-butoxycarbonylamino)-3,3-dimethyl-butanoyl]-4-[(7-methoxy-2-thiazol-4-yl-4-quinolyl)oxy]pyrrolidine-2-carbonyl]amino]-2-vinyl-cyclopropanecarboxylic acid
> <PUBCHEM_IUPAC_CAS_NAME>
(2R)-1-[[[(2S,4R)-1-[(2S)-3,3-dimethyl-2-[[(2-methylpropan-2-yl)oxy-oxomethyl]amino]-1-oxobutyl]-4-[[7-methoxy-2-(4-thiazolyl)-4-quinolinyl]oxy]-2-pyrrolidinyl]-oxomethyl]amino]-2-ethenyl-1-cyclopropanecarboxylic acid
> <PUBCHEM_IUPAC_NAME_MARKUP>
(2<I>R</I>)-1-[[(2<I>S</I>,4<I>R</I>)-1-[(2<I>S</I>)-3,3-dimethyl-2-[(2-methylpropan-2-yl)oxycarbonylamino]butanoyl]-4-[7-methoxy-2-(1,3-thiazol-4-yl)quinolin-4-yl]oxypyrrolidine-2-carbonyl]amino]-2-ethenylcyclopropane-1-carboxylic acid
> <PUBCHEM_IUPAC_NAME>
(2R)-1-[[(2S,4R)-1-[(2S)-3,3-dimethyl-2-[(2-methylpropan-2-yl)oxycarbonylamino]butanoyl]-4-[7-methoxy-2-(1,3-thiazol-4-yl)quinolin-4-yl]oxypyrrolidine-2-carbonyl]amino]-2-ethenylcyclopropane-1-carboxylic acid
> <PUBCHEM_IUPAC_SYSTEMATIC_NAME>
(2R)-1-[[(2S,4R)-1-[(2S)-3,3-dimethyl-2-[(2-methylpropan-2-yl)oxycarbonylamino]butanoyl]-4-[7-methoxy-2-(1,3-thiazol-4-yl)quinolin-4-yl]oxy-pyrrolidin-2-yl]carbonylamino]-2-ethenyl-cyclopropane-1-carboxylic acid
> <PUBCHEM_IUPAC_TRADITIONAL_NAME>
(2R)-1-[[(2S,4R)-1-[(2S)-2-(tert-butoxycarbonylamino)-3,3-dimethyl-butanoyl]-4-[(7-methoxy-2-thiazol-4-yl-4-quinolyl)oxy]prolyl]amino]-2-vinyl-cyclopropanecarboxylic acid
> <PUBCHEM_IUPAC_INCHI>
InChI=1S/C35H43N5O8S/c1-9-19-15-35(19,31(43)44)39-29(41)26-13-21(16-40(26)30(42)28(33(2,3)4)38-32(45)48-34(5,6)7)47-27-14-24(25-17-49-18-36-25)37-23-12-20(46-8)10-11-22(23)27/h9-12,14,17-19,21,26,28H,1,13,15-16H2,2-8H3,(H,38,45)(H,39,41)(H,43,44)/t19-,21+,26-,28+,35?/m0/s1
> <PUBCHEM_IUPAC_INCHIKEY>
YERQWNQEHMYAJP-ZTHOCPBXSA-N
> <PUBCHEM_XLOGP3_AA>
4.9
> <PUBCHEM_EXACT_MASS>
693.28323452
> <PUBCHEM_MOLECULAR_FORMULA>
C35H43N5O8S
> <PUBCHEM_MOLECULAR_WEIGHT>
693.8
> <PUBCHEM_OPENEYE_CAN_SMILES>
CC(C)(C)C(C(=O)N1CC(CC1C(=O)NC2(CC2C=C)C(=O)O)OC3=CC(=NC4=C3C=CC(=C4)OC)C5=CSC=N5)NC(=O)OC(C)(C)C
> <PUBCHEM_OPENEYE_ISO_SMILES>
CC(C)(C)[C@@H](C(=O)N1C[C@@H](C[C@H]1C(=O)NC2(C[C@@H]2C=C)C(=O)O)OC3=CC(=NC4=C3C=CC(=C4)OC)C5=CSC=N5)NC(=O)OC(C)(C)C
> <PUBCHEM_CACTVS_TPSA>
198
> <PUBCHEM_MONOISOTOPIC_WEIGHT>
693.28323452
> <PUBCHEM_TOTAL_CHARGE>
0
> <PUBCHEM_HEAVY_ATOM_COUNT>
49
> <PUBCHEM_ATOM_DEF_STEREO_COUNT>
4
> <PUBCHEM_ATOM_UDEF_STEREO_COUNT>
1
> <PUBCHEM_BOND_DEF_STEREO_COUNT>
0
> <PUBCHEM_BOND_UDEF_STEREO_COUNT>
0
> <PUBCHEM_ISOTOPIC_ATOM_COUNT>
0
> <PUBCHEM_COMPONENT_COUNT>
1
> <PUBCHEM_CACTVS_TAUTO_COUNT>
-1
> <PUBCHEM_COORDINATE_TYPE>
1
5
255
> <PUBCHEM_BONDANNOTATIONS>
1  47  8
1  48  8
27  12  5
13  36  8
13  37  8
14  42  8
14  48  8
15  18  3
16  19  6
20  21  6
32  34  8
32  35  8
34  36  8
34  38  8
35  37  8
36  40  8
38  41  8
23  4  5
40  43  8
41  43  8
42  47  8
$$$$
