500710
  -OEChem-10302200282D
 86 89  0     1  0  0  0  0  0999 V2000
    8.2417    4.6317    0.0000 O   0  0  0  0  0  0  0  0  0  0  0  0
    8.4227    2.9092    0.0000 O   0  0  0  0  0  0  0  0  0  0  0  0
    4.6660   -0.7249    0.0000 O   0  0  0  0  0  0  0  0  0  0  0  0
    8.0160    1.9956    0.0000 O   0  0  0  0  0  0  0  0  0  0  0  0
    8.6970    0.8160    0.0000 O   0  0  0  0  0  0  0  0  0  0  0  0
    9.3295   -2.7336    0.0000 O   0  0  0  0  0  0  0  0  0  0  0  0
    7.7472   -3.4381    0.0000 O   0  0  0  0  0  0  0  0  0  0  0  0
    6.3981   -3.7249    0.0000 O   0  0  0  0  0  0  0  0  0  0  0  0
    6.4337    2.7001    0.0000 N   0  0  0  0  0  0  0  0  0  0  0  0
    7.1147    0.1115    0.0000 N   0  0  0  0  0  0  0  0  0  0  0  0
    7.9282   -1.7156    0.0000 N   0  0  0  0  0  0  0  0  0  0  0  0
    4.6660   -3.7249    0.0000 N   0  0  0  0  0  0  0  0  0  0  0  0
    6.8404    3.6137    0.0000 C   0  0  3  0  0  0  0  0  0  0  0  0
    5.9269    4.0204    0.0000 C   0  0  2  0  0  0  0  0  0  0  0  0
    6.7359    4.6082    0.0000 C   0  0  0  0  0  0  0  0  0  0  0  0
    7.8350    3.7182    0.0000 C   0  0  0  0  0  0  0  0  0  0  0  0
    4.9324    3.9159    0.0000 C   0  0  0  0  0  0  0  0  0  0  0  0
    6.6147    0.9776    0.0000 C   0  0  2  0  0  0  0  0  0  0  0  0
    7.0215    1.8911    0.0000 C   0  0  0  0  0  0  0  0  0  0  0  0
    5.6366    0.7696    0.0000 C   0  0  0  0  0  0  0  0  0  0  0  0
    5.5321   -0.2249    0.0000 C   0  0  2  0  0  0  0  0  0  0  0  0
    6.4456   -0.6316    0.0000 C   0  0  0  0  0  0  0  0  0  0  0  0
    8.1093    0.0070    0.0000 C   0  0  0  0  0  0  0  0  0  0  0  0
    8.5160   -0.9065    0.0000 C   0  0  2  0  0  0  0  0  0  0  0  0
    4.3446    4.7249    0.0000 C   0  0  0  0  0  0  0  0  0  0  0  0
    9.5105   -1.0111    0.0000 C   0  0  0  0  0  0  0  0  0  0  0  0
   10.5050   -1.1156    0.0000 C   0  0  0  0  0  0  0  0  0  0  0  0
    9.6150   -0.0166    0.0000 C   0  0  0  0  0  0  0  0  0  0  0  0
    9.4060   -2.0056    0.0000 C   0  0  0  0  0  0  0  0  0  0  0  0
    4.6660   -1.7249    0.0000 C   0  0  0  0  0  0  0  0  0  0  0  0
    8.3349   -2.6291    0.0000 C   0  0  0  0  0  0  0  0  0  0  0  0
    3.8000   -2.2249    0.0000 C   0  0  0  0  0  0  0  0  0  0  0  0
    5.5321   -2.2249    0.0000 C   0  0  0  0  0  0  0  0  0  0  0  0
    3.8000   -3.2249    0.0000 C   0  0  0  0  0  0  0  0  0  0  0  0
    5.5321   -3.2249    0.0000 C   0  0  0  0  0  0  0  0  0  0  0  0
    2.9061   -1.6902    0.0000 C   0  0  0  0  0  0  0  0  0  0  0  0
    9.7362   -3.6472    0.0000 C   0  0  0  0  0  0  0  0  0  0  0  0
    2.9061   -3.7595    0.0000 C   0  0  0  0  0  0  0  0  0  0  0  0
    2.0000   -2.2041    0.0000 C   0  0  0  0  0  0  0  0  0  0  0  0
   10.1429   -4.5607    0.0000 C   0  0  0  0  0  0  0  0  0  0  0  0
   10.6497   -3.2404    0.0000 C   0  0  0  0  0  0  0  0  0  0  0  0
    8.8227   -4.0539    0.0000 C   0  0  0  0  0  0  0  0  0  0  0  0
    2.0000   -3.2457    0.0000 C   0  0  0  0  0  0  0  0  0  0  0  0
    6.3981   -4.7249    0.0000 C   0  0  0  0  0  0  0  0  0  0  0  0
    5.8299    3.4080    0.0000 H   0  0  0  0  0  0  0  0  0  0  0  0
    7.3319    4.7791    0.0000 H   0  0  0  0  0  0  0  0  0  0  0  0
    6.4641    5.1654    0.0000 H   0  0  0  0  0  0  0  0  0  0  0  0
    5.8171    2.6353    0.0000 H   0  0  0  0  0  0  0  0  0  0  0  0
    7.2339    1.0100    0.0000 H   0  0  0  0  0  0  0  0  0  0  0  0
    4.6802    3.3495    0.0000 H   0  0  0  0  0  0  0  0  0  0  0  0
    5.5718    1.3862    0.0000 H   0  0  0  0  0  0  0  0  0  0  0  0
    5.0166    0.7696    0.0000 H   0  0  0  0  0  0  0  0  0  0  0  0
    5.5645   -0.8440    0.0000 H   0  0  0  0  0  0  0  0  0  0  0  0
    6.1356   -1.1686    0.0000 H   0  0  0  0  0  0  0  0  0  0  0  0
    6.9472   -0.9960    0.0000 H   0  0  0  0  0  0  0  0  0  0  0  0
    7.8994   -0.8417    0.0000 H   0  0  0  0  0  0  0  0  0  0  0  0
    4.5968    5.2913    0.0000 H   0  0  0  0  0  0  0  0  0  0  0  0
    3.7280    4.6601    0.0000 H   0  0  0  0  0  0  0  0  0  0  0  0
    8.8583    4.6965    0.0000 H   0  0  0  0  0  0  0  0  0  0  0  0
    7.3116   -1.6508    0.0000 H   0  0  0  0  0  0  0  0  0  0  0  0
   10.4402   -1.7322    0.0000 H   0  0  0  0  0  0  0  0  0  0  0  0
   11.1216   -1.1804    0.0000 H   0  0  0  0  0  0  0  0  0  0  0  0
   10.5698   -0.4990    0.0000 H   0  0  0  0  0  0  0  0  0  0  0  0
   10.2316   -0.0814    0.0000 H   0  0  0  0  0  0  0  0  0  0  0  0
    9.6798    0.6000    0.0000 H   0  0  0  0  0  0  0  0  0  0  0  0
    8.9984    0.0483    0.0000 H   0  0  0  0  0  0  0  0  0  0  0  0
    8.7894   -1.9408    0.0000 H   0  0  0  0  0  0  0  0  0  0  0  0
    9.3412   -2.6222    0.0000 H   0  0  0  0  0  0  0  0  0  0  0  0
   10.0226   -2.0704    0.0000 H   0  0  0  0  0  0  0  0  0  0  0  0
    6.0690   -1.9149    0.0000 H   0  0  0  0  0  0  0  0  0  0  0  0
    2.9132   -1.0703    0.0000 H   0  0  0  0  0  0  0  0  0  0  0  0
    2.9132   -4.3795    0.0000 H   0  0  0  0  0  0  0  0  0  0  0  0
    1.4643   -1.8920    0.0000 H   0  0  0  0  0  0  0  0  0  0  0  0
    9.5765   -4.8129    0.0000 H   0  0  0  0  0  0  0  0  0  0  0  0
   10.3951   -5.1271    0.0000 H   0  0  0  0  0  0  0  0  0  0  0  0
   10.7093   -4.3086    0.0000 H   0  0  0  0  0  0  0  0  0  0  0  0
   10.9019   -3.8068    0.0000 H   0  0  0  0  0  0  0  0  0  0  0  0
   11.2161   -2.9883    0.0000 H   0  0  0  0  0  0  0  0  0  0  0  0
   10.3976   -2.6740    0.0000 H   0  0  0  0  0  0  0  0  0  0  0  0
    8.5705   -3.4875    0.0000 H   0  0  0  0  0  0  0  0  0  0  0  0
    8.2563   -4.3061    0.0000 H   0  0  0  0  0  0  0  0  0  0  0  0
    9.0748   -4.6203    0.0000 H   0  0  0  0  0  0  0  0  0  0  0  0
    1.4643   -3.5578    0.0000 H   0  0  0  0  0  0  0  0  0  0  0  0
    5.7781   -4.7249    0.0000 H   0  0  0  0  0  0  0  0  0  0  0  0
    6.3981   -5.3449    0.0000 H   0  0  0  0  0  0  0  0  0  0  0  0
    7.0181   -4.7249    0.0000 H   0  0  0  0  0  0  0  0  0  0  0  0
  1 16  1  0  0  0  0
  1 59  1  0  0  0  0
  2 16  2  0  0  0  0
 21  3  1  6  0  0  0
  3 30  1  0  0  0  0
  4 19  2  0  0  0  0
  5 23  2  0  0  0  0
  6 31  1  0  0  0  0
  6 37  1  0  0  0  0
  7 31  2  0  0  0  0
  8 35  1  0  0  0  0
  8 44  1  0  0  0  0
  9 13  1  0  0  0  0
  9 19  1  0  0  0  0
  9 48  1  0  0  0  0
 10 18  1  0  0  0  0
 10 22  1  0  0  0  0
 10 23  1  0  0  0  0
 24 11  1  6  0  0  0
 11 31  1  0  0  0  0
 11 60  1  0  0  0  0
 12 34  1  0  0  0  0
 12 35  2  0  0  0  0
 13 14  1  0  0  0  0
 13 15  1  0  0  0  0
 13 16  1  0  0  0  0
 14 15  1  0  0  0  0
 14 17  1  1  0  0  0
 14 45  1  0  0  0  0
 15 46  1  0  0  0  0
 15 47  1  0  0  0  0
 17 25  2  0  0  0  0
 17 50  1  0  0  0  0
 18 19  1  1  0  0  0
 18 20  1  0  0  0  0
 18 49  1  0  0  0  0
 20 21  1  0  0  0  0
 20 51  1  0  0  0  0
 20 52  1  0  0  0  0
 21 22  1  0  0  0  0
 21 53  1  0  0  0  0
 22 54  1  0  0  0  0
 22 55  1  0  0  0  0
 23 24  1  0  0  0  0
 24 26  1  0  0  0  0
 24 56  1  0  0  0  0
 25 57  1  0  0  0  0
 25 58  1  0  0  0  0
 26 27  1  0  0  0  0
 26 28  1  0  0  0  0
 26 29  1  0  0  0  0
 27 61  1  0  0  0  0
 27 62  1  0  0  0  0
 27 63  1  0  0  0  0
 28 64  1  0  0  0  0
 28 65  1  0  0  0  0
 28 66  1  0  0  0  0
 29 67  1  0  0  0  0
 29 68  1  0  0  0  0
 29 69  1  0  0  0  0
 30 32  1  0  0  0  0
 30 33  2  0  0  0  0
 32 34  1  0  0  0  0
 32 36  2  0  0  0  0
 33 35  1  0  0  0  0
 33 70  1  0  0  0  0
 34 38  2  0  0  0  0
 36 39  1  0  0  0  0
 36 71  1  0  0  0  0
 37 40  1  0  0  0  0
 37 41  1  0  0  0  0
 37 42  1  0  0  0  0
 38 43  1  0  0  0  0
 38 72  1  0  0  0  0
 39 43  2  0  0  0  0
 39 73  1  0  0  0  0
 40 74  1  0  0  0  0
 40 75  1  0  0  0  0
 40 76  1  0  0  0  0
 41 77  1  0  0  0  0
 41 78  1  0  0  0  0
 41 79  1  0  0  0  0
 42 80  1  0  0  0  0
 42 81  1  0  0  0  0
 42 82  1  0  0  0  0
 43 83  1  0  0  0  0
 44 84  1  0  0  0  0
 44 85  1  0  0  0  0
 44 86  1  0  0  0  0
M  END
> <PUBCHEM_COMPOUND_CID>
500710
> <PUBCHEM_COMPOUND_CANONICALIZED>
1
> <PUBCHEM_CACTVS_COMPLEXITY>
1120
> <PUBCHEM_CACTVS_HBOND_ACCEPTOR>
9
> <PUBCHEM_CACTVS_HBOND_DONOR>
3
> <PUBCHEM_CACTVS_ROTATABLE_BOND>
12
> <PUBCHEM_CACTVS_SUBSKEYS>
AAADcfB/vAAAAAAAAAAAAAAAGAAAAWAAAAA8QAAAAAAAAACx8AAAHgAQCAAAD/zhngYyzvPIFgCoAyXyXACCiCAhIiAImKG+bJkOZ/LEsbufeCjn1h3Y6Ae60aEPAAAAAAACAAAAAAAAAAQAAAAAAAAAAA==
> <PUBCHEM_IUPAC_OPENEYE_NAME>
(2R)-1-[[(2S,4R)-1-[(2S)-2-(tert-butoxycarbonylamino)-3,3-dimethyl-butanoyl]-4-[(2-methoxy-4-quinolyl)oxy]pyrrolidine-2-carbonyl]amino]-2-vinyl-cyclopropanecarboxylic acid
> <PUBCHEM_IUPAC_CAS_NAME>
(2R)-1-[[[(2S,4R)-1-[(2S)-3,3-dimethyl-2-[[(2-methylpropan-2-yl)oxy-oxomethyl]amino]-1-oxobutyl]-4-[(2-methoxy-4-quinolinyl)oxy]-2-pyrrolidinyl]-oxomethyl]amino]-2-ethenyl-1-cyclopropanecarboxylic acid
> <PUBCHEM_IUPAC_NAME_MARKUP>
(2<I>R</I>)-1-[[(2<I>S</I>,4<I>R</I>)-1-[(2<I>S</I>)-3,3-dimethyl-2-[(2-methylpropan-2-yl)oxycarbonylamino]butanoyl]-4-(2-methoxyquinolin-4-yl)oxypyrrolidine-2-carbonyl]amino]-2-ethenylcyclopropane-1-carboxylic acid
> <PUBCHEM_IUPAC_NAME>
(2R)-1-[[(2S,4R)-1-[(2S)-3,3-dimethyl-2-[(2-methylpropan-2-yl)oxycarbonylamino]butanoyl]-4-(2-methoxyquinolin-4-yl)oxypyrrolidine-2-carbonyl]amino]-2-ethenylcyclopropane-1-carboxylic acid
> <PUBCHEM_IUPAC_SYSTEMATIC_NAME>
(2R)-1-[[(2S,4R)-1-[(2S)-3,3-dimethyl-2-[(2-methylpropan-2-yl)oxycarbonylamino]butanoyl]-4-(2-methoxyquinolin-4-yl)oxy-pyrrolidin-2-yl]carbonylamino]-2-ethenyl-cyclopropane-1-carboxylic acid
> <PUBCHEM_IUPAC_TRADITIONAL_NAME>
(2R)-1-[[(2S,4R)-1-[(2S)-2-(tert-butoxycarbonylamino)-3,3-dimethyl-butanoyl]-4-[(2-methoxy-4-quinolyl)oxy]prolyl]amino]-2-vinyl-cyclopropanecarboxylic acid
> <PUBCHEM_IUPAC_INCHI>
InChI=1S/C32H42N4O8/c1-9-18-16-32(18,28(39)40)35-26(37)22-14-19(43-23-15-24(42-8)33-21-13-11-10-12-20(21)23)17-36(22)27(38)25(30(2,3)4)34-29(41)44-31(5,6)7/h9-13,15,18-19,22,25H,1,14,16-17H2,2-8H3,(H,34,41)(H,35,37)(H,39,40)/t18-,19+,22-,25+,32?/m0/s1
> <PUBCHEM_IUPAC_INCHIKEY>
BZZHFNPPYQDYJN-DRGUVBSFSA-N
> <PUBCHEM_XLOGP3_AA>
4.5
> <PUBCHEM_EXACT_MASS>
610.30026431
> <PUBCHEM_MOLECULAR_FORMULA>
C32H42N4O8
> <PUBCHEM_MOLECULAR_WEIGHT>
610.7
> <PUBCHEM_OPENEYE_CAN_SMILES>
CC(C)(C)C(C(=O)N1CC(CC1C(=O)NC2(CC2C=C)C(=O)O)OC3=CC(=NC4=CC=CC=C43)OC)NC(=O)OC(C)(C)C
> <PUBCHEM_OPENEYE_ISO_SMILES>
CC(C)(C)[C@@H](C(=O)N1C[C@@H](C[C@H]1C(=O)NC2(C[C@@H]2C=C)C(=O)O)OC3=CC(=NC4=CC=CC=C43)OC)NC(=O)OC(C)(C)C
> <PUBCHEM_CACTVS_TPSA>
156
> <PUBCHEM_MONOISOTOPIC_WEIGHT>
610.30026431
> <PUBCHEM_TOTAL_CHARGE>
0
> <PUBCHEM_HEAVY_ATOM_COUNT>
44
> <PUBCHEM_ATOM_DEF_STEREO_COUNT>
4
> <PUBCHEM_ATOM_UDEF_STEREO_COUNT>
1
> <PUBCHEM_BOND_DEF_STEREO_COUNT>
0
> <PUBCHEM_BOND_UDEF_STEREO_COUNT>
0
> <PUBCHEM_ISOTOPIC_ATOM_COUNT>
0
> <PUBCHEM_COMPONENT_COUNT>
1
> <PUBCHEM_CACTVS_TAUTO_COUNT>
-1
> <PUBCHEM_COORDINATE_TYPE>
1
5
255
> <PUBCHEM_BONDANNOTATIONS>
24  11  6
12  34  8
12  35  8
13  16  3
14  17  5
18  19  5
21  3  6
30  32  8
30  33  8
32  34  8
32  36  8
33  35  8
34  38  8
36  39  8
38  43  8
39  43  8
$$$$
