500771
  -OEChem-10302200282D
 95100  0     1  0  0  0  0  0999 V2000
    9.9737    5.0064    0.0000 O   0  0  0  0  0  0  0  0  0  0  0  0
   10.1548    3.2839    0.0000 O   0  0  0  0  0  0  0  0  0  0  0  0
    6.3981   -0.3502    0.0000 O   0  0  0  0  0  0  0  0  0  0  0  0
    9.7480    2.3703    0.0000 O   0  0  0  0  0  0  0  0  0  0  0  0
   10.4291    1.1907    0.0000 O   0  0  0  0  0  0  0  0  0  0  0  0
    2.8680   -3.3743    0.0000 O   0  0  0  0  0  0  0  0  0  0  0  0
   14.6329   -1.8635    0.0000 O   0  5  0  0  0  0  0  0  0  0  0  0
   14.4518   -3.5861    0.0000 O   0  0  0  0  0  0  0  0  0  0  0  0
   12.2817   -5.0996    0.0000 O   0  5  0  0  0  0  0  0  0  0  0  0
   13.8640   -4.3951    0.0000 O   0  0  0  0  0  0  0  0  0  0  0  0
    8.1657    3.0748    0.0000 N   0  0  0  0  0  0  0  0  0  0  0  0
    8.8468    0.4862    0.0000 N   0  0  0  0  0  0  0  0  0  0  0  0
   11.2426   -0.6364    0.0000 N   0  0  0  0  0  0  0  0  0  0  0  0
    6.3981   -3.3502    0.0000 N   0  0  0  0  0  0  0  0  0  0  0  0
   14.0451   -2.6725    0.0000 N   0  3  0  0  0  0  0  0  0  0  0  0
   12.8695   -4.2906    0.0000 N   0  3  0  0  0  0  0  0  0  0  0  0
    8.5725    3.9884    0.0000 C   0  0  3  0  0  0  0  0  0  0  0  0
    7.6589    4.3951    0.0000 C   0  0  2  0  0  0  0  0  0  0  0  0
    8.4679    4.9829    0.0000 C   0  0  0  0  0  0  0  0  0  0  0  0
    9.5670    4.0929    0.0000 C   0  0  0  0  0  0  0  0  0  0  0  0
    6.6644    4.2906    0.0000 C   0  0  0  0  0  0  0  0  0  0  0  0
    8.3468    1.3522    0.0000 C   0  0  2  0  0  0  0  0  0  0  0  0
    8.7535    2.2658    0.0000 C   0  0  0  0  0  0  0  0  0  0  0  0
    7.3686    1.1443    0.0000 C   0  0  0  0  0  0  0  0  0  0  0  0
    7.2641    0.1498    0.0000 C   0  0  2  0  0  0  0  0  0  0  0  0
    8.1776   -0.2569    0.0000 C   0  0  0  0  0  0  0  0  0  0  0  0
    9.8413    0.3817    0.0000 C   0  0  0  0  0  0  0  0  0  0  0  0
    6.0766    5.0996    0.0000 C   0  0  0  0  0  0  0  0  0  0  0  0
   10.2480   -0.5319    0.0000 C   0  0  2  0  0  0  0  0  0  0  0  0
    9.6602   -1.3409    0.0000 C   0  0  0  0  0  0  0  0  0  0  0  0
   10.4693   -1.9286    0.0000 C   0  0  0  0  0  0  0  0  0  0  0  0
    8.8512   -0.7531    0.0000 C   0  0  0  0  0  0  0  0  0  0  0  0
    9.0725   -2.1499    0.0000 C   0  0  0  0  0  0  0  0  0  0  0  0
    6.3981   -1.3502    0.0000 C   0  0  0  0  0  0  0  0  0  0  0  0
   11.6493   -1.5499    0.0000 C   0  0  0  0  0  0  0  0  0  0  0  0
    5.5320   -1.8502    0.0000 C   0  0  0  0  0  0  0  0  0  0  0  0
    7.2641   -1.8502    0.0000 C   0  0  0  0  0  0  0  0  0  0  0  0
   12.6438   -1.6544    0.0000 C   0  0  0  0  0  0  0  0  0  0  0  0
   11.0615   -2.3589    0.0000 C   0  0  0  0  0  0  0  0  0  0  0  0
    5.5320   -2.8502    0.0000 C   0  0  0  0  0  0  0  0  0  0  0  0
    7.2641   -2.8502    0.0000 C   0  0  0  0  0  0  0  0  0  0  0  0
    4.6381   -1.3155    0.0000 C   0  0  0  0  0  0  0  0  0  0  0  0
   13.0505   -2.5680    0.0000 C   0  0  0  0  0  0  0  0  0  0  0  0
   11.4682   -3.2725    0.0000 C   0  0  0  0  0  0  0  0  0  0  0  0
    4.6381   -3.3848    0.0000 C   0  0  0  0  0  0  0  0  0  0  0  0
   12.4628   -3.3770    0.0000 C   0  0  0  0  0  0  0  0  0  0  0  0
    3.7320   -1.8294    0.0000 C   0  0  0  0  0  0  0  0  0  0  0  0
    8.1301   -3.3502    0.0000 C   0  0  0  0  0  0  0  0  0  0  0  0
    3.7320   -2.8710    0.0000 C   0  0  0  0  0  0  0  0  0  0  0  0
    8.9962   -2.8502    0.0000 C   0  0  0  0  0  0  0  0  0  0  0  0
    8.1301   -4.3502    0.0000 C   0  0  0  0  0  0  0  0  0  0  0  0
    9.8622   -3.3502    0.0000 C   0  0  0  0  0  0  0  0  0  0  0  0
    8.9962   -4.8502    0.0000 C   0  0  0  0  0  0  0  0  0  0  0  0
    9.8622   -4.3502    0.0000 C   0  0  0  0  0  0  0  0  0  0  0  0
    2.0000   -2.8777    0.0000 C   0  0  0  0  0  0  0  0  0  0  0  0
    7.4367    4.9739    0.0000 H   0  0  0  0  0  0  0  0  0  0  0  0
    9.0639    5.1538    0.0000 H   0  0  0  0  0  0  0  0  0  0  0  0
    8.1961    5.5401    0.0000 H   0  0  0  0  0  0  0  0  0  0  0  0
    7.5491    3.0100    0.0000 H   0  0  0  0  0  0  0  0  0  0  0  0
    6.4122    3.7242    0.0000 H   0  0  0  0  0  0  0  0  0  0  0  0
    8.9659    1.3847    0.0000 H   0  0  0  0  0  0  0  0  0  0  0  0
    7.3038    1.7609    0.0000 H   0  0  0  0  0  0  0  0  0  0  0  0
    6.7486    1.1443    0.0000 H   0  0  0  0  0  0  0  0  0  0  0  0
    6.7441    0.4875    0.0000 H   0  0  0  0  0  0  0  0  0  0  0  0
    7.8676   -0.7939    0.0000 H   0  0  0  0  0  0  0  0  0  0  0  0
    8.6792   -0.6214    0.0000 H   0  0  0  0  0  0  0  0  0  0  0  0
    6.3288    5.6660    0.0000 H   0  0  0  0  0  0  0  0  0  0  0  0
    5.4600    5.0348    0.0000 H   0  0  0  0  0  0  0  0  0  0  0  0
   10.6125   -0.0303    0.0000 H   0  0  0  0  0  0  0  0  0  0  0  0
   10.5903    5.0712    0.0000 H   0  0  0  0  0  0  0  0  0  0  0  0
   11.6070   -0.1348    0.0000 H   0  0  0  0  0  0  0  0  0  0  0  0
   10.1048   -2.4302    0.0000 H   0  0  0  0  0  0  0  0  0  0  0  0
   10.9709   -2.2931    0.0000 H   0  0  0  0  0  0  0  0  0  0  0  0
   10.8337   -1.4271    0.0000 H   0  0  0  0  0  0  0  0  0  0  0  0
    9.2157   -0.2515    0.0000 H   0  0  0  0  0  0  0  0  0  0  0  0
    8.3496   -0.3887    0.0000 H   0  0  0  0  0  0  0  0  0  0  0  0
    8.4868   -1.2547    0.0000 H   0  0  0  0  0  0  0  0  0  0  0  0
    8.5709   -1.7855    0.0000 H   0  0  0  0  0  0  0  0  0  0  0  0
    8.7080   -2.6515    0.0000 H   0  0  0  0  0  0  0  0  0  0  0  0
    9.5740   -2.5143    0.0000 H   0  0  0  0  0  0  0  0  0  0  0  0
    7.8010   -1.5402    0.0000 H   0  0  0  0  0  0  0  0  0  0  0  0
   13.0082   -1.1529    0.0000 H   0  0  0  0  0  0  0  0  0  0  0  0
   10.4449   -2.2941    0.0000 H   0  0  0  0  0  0  0  0  0  0  0  0
    4.6453   -0.6956    0.0000 H   0  0  0  0  0  0  0  0  0  0  0  0
   11.1038   -3.7741    0.0000 H   0  0  0  0  0  0  0  0  0  0  0  0
    4.6453   -4.0048    0.0000 H   0  0  0  0  0  0  0  0  0  0  0  0
    3.1963   -1.5173    0.0000 H   0  0  0  0  0  0  0  0  0  0  0  0
    8.9962   -2.2302    0.0000 H   0  0  0  0  0  0  0  0  0  0  0  0
    7.5932   -4.6602    0.0000 H   0  0  0  0  0  0  0  0  0  0  0  0
   10.3991   -3.0402    0.0000 H   0  0  0  0  0  0  0  0  0  0  0  0
    8.9962   -5.4702    0.0000 H   0  0  0  0  0  0  0  0  0  0  0  0
   10.3991   -4.6602    0.0000 H   0  0  0  0  0  0  0  0  0  0  0  0
    2.3079   -2.3396    0.0000 H   0  0  0  0  0  0  0  0  0  0  0  0
    1.4619   -2.5698    0.0000 H   0  0  0  0  0  0  0  0  0  0  0  0
    1.6921   -3.4158    0.0000 H   0  0  0  0  0  0  0  0  0  0  0  0
  1 20  1  0  0  0  0
  1 70  1  0  0  0  0
  2 20  2  0  0  0  0
 25  3  1  6  0  0  0
  3 34  1  0  0  0  0
  4 23  2  0  0  0  0
  5 27  2  0  0  0  0
  6 49  1  0  0  0  0
  6 55  1  0  0  0  0
  7 15  1  0  0  0  0
  8 15  2  0  0  0  0
  9 16  1  0  0  0  0
 10 16  2  0  0  0  0
 11 17  1  0  0  0  0
 11 23  1  0  0  0  0
 11 59  1  0  0  0  0
 12 22  1  0  0  0  0
 12 26  1  0  0  0  0
 12 27  1  0  0  0  0
 29 13  1  1  0  0  0
 13 35  1  0  0  0  0
 13 71  1  0  0  0  0
 14 40  1  0  0  0  0
 14 41  2  0  0  0  0
 15 43  1  0  0  0  0
 16 46  1  0  0  0  0
 17 18  1  0  0  0  0
 17 19  1  0  0  0  0
 17 20  1  0  0  0  0
 18 19  1  0  0  0  0
 18 21  1  1  0  0  0
 18 56  1  0  0  0  0
 19 57  1  0  0  0  0
 19 58  1  0  0  0  0
 21 28  2  0  0  0  0
 21 60  1  0  0  0  0
 22 23  1  1  0  0  0
 22 24  1  0  0  0  0
 22 61  1  0  0  0  0
 24 25  1  0  0  0  0
 24 62  1  0  0  0  0
 24 63  1  0  0  0  0
 25 26  1  0  0  0  0
 25 64  1  0  0  0  0
 26 65  1  0  0  0  0
 26 66  1  0  0  0  0
 27 29  1  0  0  0  0
 28 67  1  0  0  0  0
 28 68  1  0  0  0  0
 29 30  1  0  0  0  0
 29 69  1  0  0  0  0
 30 31  1  0  0  0  0
 30 32  1  0  0  0  0
 30 33  1  0  0  0  0
 31 72  1  0  0  0  0
 31 73  1  0  0  0  0
 31 74  1  0  0  0  0
 32 75  1  0  0  0  0
 32 76  1  0  0  0  0
 32 77  1  0  0  0  0
 33 78  1  0  0  0  0
 33 79  1  0  0  0  0
 33 80  1  0  0  0  0
 34 36  1  0  0  0  0
 34 37  2  0  0  0  0
 35 38  2  0  0  0  0
 35 39  1  0  0  0  0
 36 40  2  0  0  0  0
 36 42  1  0  0  0  0
 37 41  1  0  0  0  0
 37 81  1  0  0  0  0
 38 43  1  0  0  0  0
 38 82  1  0  0  0  0
 39 44  2  0  0  0  0
 39 83  1  0  0  0  0
 40 45  1  0  0  0  0
 41 48  1  0  0  0  0
 42 47  2  0  0  0  0
 42 84  1  0  0  0  0
 43 46  2  0  0  0  0
 44 46  1  0  0  0  0
 44 85  1  0  0  0  0
 45 49  2  0  0  0  0
 45 86  1  0  0  0  0
 47 49  1  0  0  0  0
 47 87  1  0  0  0  0
 48 50  2  0  0  0  0
 48 51  1  0  0  0  0
 50 52  1  0  0  0  0
 50 88  1  0  0  0  0
 51 53  2  0  0  0  0
 51 89  1  0  0  0  0
 52 54  2  0  0  0  0
 52 90  1  0  0  0  0
 53 54  1  0  0  0  0
 53 91  1  0  0  0  0
 54 92  1  0  0  0  0
 55 93  1  0  0  0  0
 55 94  1  0  0  0  0
 55 95  1  0  0  0  0
M  CHG  4   7  -1   9  -1  15   1  16   1
M  END
> <PUBCHEM_COMPOUND_CID>
500771
> <PUBCHEM_COMPOUND_CANONICALIZED>
1
> <PUBCHEM_CACTVS_COMPLEXITY>
1460
> <PUBCHEM_CACTVS_HBOND_ACCEPTOR>
12
> <PUBCHEM_CACTVS_HBOND_DONOR>
3
> <PUBCHEM_CACTVS_ROTATABLE_BOND>
12
> <PUBCHEM_CACTVS_SUBSKEYS>
AAADcfB/vAAAAAAAAAAAAAAAGAAAAWAAAAA8YMEAAAAAAACx9AAAHgAUCAAAD7zhngYyzvPYVgCpAyXyXwCCiCAhIiAomKG+fJoOZvLE8fuXeCjm1pnY6Ae68e8PIACAAgQCACBAAQAECAQAQAAAAAAAAA==
> <PUBCHEM_IUPAC_OPENEYE_NAME>
(2R)-1-[[(2S,4R)-1-[(2S)-2-(3,4-dinitroanilino)-3,3-dimethyl-butanoyl]-4-[(7-methoxy-2-phenyl-4-quinolyl)oxy]pyrrolidine-2-carbonyl]amino]-2-vinyl-cyclopropanecarboxylic acid
> <PUBCHEM_IUPAC_CAS_NAME>
(2R)-1-[[[(2S,4R)-1-[(2S)-2-(3,4-dinitroanilino)-3,3-dimethyl-1-oxobutyl]-4-[(7-methoxy-2-phenyl-4-quinolinyl)oxy]-2-pyrrolidinyl]-oxomethyl]amino]-2-ethenyl-1-cyclopropanecarboxylic acid
> <PUBCHEM_IUPAC_NAME_MARKUP>
(2<I>R</I>)-1-[[(2<I>S</I>,4<I>R</I>)-1-[(2<I>S</I>)-2-(3,4-dinitroanilino)-3,3-dimethylbutanoyl]-4-(7-methoxy-2-phenylquinolin-4-yl)oxypyrrolidine-2-carbonyl]amino]-2-ethenylcyclopropane-1-carboxylic acid
> <PUBCHEM_IUPAC_NAME>
(2R)-1-[[(2S,4R)-1-[(2S)-2-(3,4-dinitroanilino)-3,3-dimethylbutanoyl]-4-(7-methoxy-2-phenylquinolin-4-yl)oxypyrrolidine-2-carbonyl]amino]-2-ethenylcyclopropane-1-carboxylic acid
> <PUBCHEM_IUPAC_SYSTEMATIC_NAME>
(2R)-1-[[(2S,4R)-1-[(2S)-2-[(3,4-dinitrophenyl)amino]-3,3-dimethyl-butanoyl]-4-(7-methoxy-2-phenyl-quinolin-4-yl)oxy-pyrrolidin-2-yl]carbonylamino]-2-ethenyl-cyclopropane-1-carboxylic acid
> <PUBCHEM_IUPAC_TRADITIONAL_NAME>
(2R)-1-[[(2S,4R)-1-[(2S)-2-(3,4-dinitroanilino)-3,3-dimethyl-butanoyl]-4-[(7-methoxy-2-phenyl-4-quinolyl)oxy]prolyl]amino]-2-vinyl-cyclopropanecarboxylic acid
> <PUBCHEM_IUPAC_INCHI>
InChI=1S/C39H40N6O10/c1-6-23-20-39(23,37(48)49)42-35(46)32-18-26(55-33-19-28(22-10-8-7-9-11-22)41-29-17-25(54-5)13-14-27(29)33)21-43(32)36(47)34(38(2,3)4)40-24-12-15-30(44(50)51)31(16-24)45(52)53/h6-17,19,23,26,32,34,40H,1,18,20-21H2,2-5H3,(H,42,46)(H,48,49)/t23-,26+,32-,34+,39?/m0/s1
> <PUBCHEM_IUPAC_INCHIKEY>
CPCZSXMCJQISEC-FXYIESHGSA-N
> <PUBCHEM_XLOGP3_AA>
6.5
> <PUBCHEM_EXACT_MASS>
752.28059149
> <PUBCHEM_MOLECULAR_FORMULA>
C39H40N6O10
> <PUBCHEM_MOLECULAR_WEIGHT>
752.8
> <PUBCHEM_OPENEYE_CAN_SMILES>
CC(C)(C)C(C(=O)N1CC(CC1C(=O)NC2(CC2C=C)C(=O)O)OC3=CC(=NC4=C3C=CC(=C4)OC)C5=CC=CC=C5)NC6=CC(=C(C=C6)[N+](=O)[O-])[N+](=O)[O-]
> <PUBCHEM_OPENEYE_ISO_SMILES>
CC(C)(C)[C@@H](C(=O)N1C[C@@H](C[C@H]1C(=O)NC2(C[C@@H]2C=C)C(=O)O)OC3=CC(=NC4=C3C=CC(=C4)OC)C5=CC=CC=C5)NC6=CC(=C(C=C6)[N+](=O)[O-])[N+](=O)[O-]
> <PUBCHEM_CACTVS_TPSA>
222
> <PUBCHEM_MONOISOTOPIC_WEIGHT>
752.28059149
> <PUBCHEM_TOTAL_CHARGE>
0
> <PUBCHEM_HEAVY_ATOM_COUNT>
55
> <PUBCHEM_ATOM_DEF_STEREO_COUNT>
4
> <PUBCHEM_ATOM_UDEF_STEREO_COUNT>
1
> <PUBCHEM_BOND_DEF_STEREO_COUNT>
0
> <PUBCHEM_BOND_UDEF_STEREO_COUNT>
0
> <PUBCHEM_ISOTOPIC_ATOM_COUNT>
0
> <PUBCHEM_COMPONENT_COUNT>
1
> <PUBCHEM_CACTVS_TAUTO_COUNT>
-1
> <PUBCHEM_COORDINATE_TYPE>
1
5
255
> <PUBCHEM_BONDANNOTATIONS>
29  13  5
14  40  8
14  41  8
17  20  3
18  21  5
22  23  5
25  3  6
34  36  8
34  37  8
35  38  8
35  39  8
36  40  8
36  42  8
37  41  8
38  43  8
39  44  8
40  45  8
42  47  8
43  46  8
44  46  8
45  49  8
47  49  8
48  50  8
48  51  8
50  52  8
51  53  8
52  54  8
53  54  8
$$$$
