500752
  -OEChem-10302200282D
 98101  0     1  0  0  0  0  0999 V2000
    9.9737    4.5647    0.0000 O   0  0  0  0  0  0  0  0  0  0  0  0
   10.1548    2.8422    0.0000 O   0  0  0  0  0  0  0  0  0  0  0  0
    6.3981   -0.7919    0.0000 O   0  0  0  0  0  0  0  0  0  0  0  0
    9.7480    1.9286    0.0000 O   0  0  0  0  0  0  0  0  0  0  0  0
   10.4291    0.7490    0.0000 O   0  0  0  0  0  0  0  0  0  0  0  0
   11.0615   -2.8006    0.0000 O   0  0  0  0  0  0  0  0  0  0  0  0
    9.4792   -3.5051    0.0000 O   0  0  0  0  0  0  0  0  0  0  0  0
    2.8680   -3.8160    0.0000 O   0  0  0  0  0  0  0  0  0  0  0  0
    8.1657    2.6331    0.0000 N   0  0  0  0  0  0  0  0  0  0  0  0
    8.8468    0.0445    0.0000 N   0  0  0  0  0  0  0  0  0  0  0  0
    9.6602   -1.7826    0.0000 N   0  0  0  0  0  0  0  0  0  0  0  0
    6.3981   -3.7919    0.0000 N   0  0  0  0  0  0  0  0  0  0  0  0
    8.5725    3.5467    0.0000 C   0  0  3  0  0  0  0  0  0  0  0  0
    7.6589    3.9534    0.0000 C   0  0  2  0  0  0  0  0  0  0  0  0
    8.4679    4.5412    0.0000 C   0  0  0  0  0  0  0  0  0  0  0  0
    9.5670    3.6512    0.0000 C   0  0  0  0  0  0  0  0  0  0  0  0
    6.6644    3.8489    0.0000 C   0  0  0  0  0  0  0  0  0  0  0  0
    8.3468    0.9106    0.0000 C   0  0  2  0  0  0  0  0  0  0  0  0
    8.7535    1.8241    0.0000 C   0  0  0  0  0  0  0  0  0  0  0  0
    7.3686    0.7027    0.0000 C   0  0  0  0  0  0  0  0  0  0  0  0
    7.2641   -0.2919    0.0000 C   0  0  2  0  0  0  0  0  0  0  0  0
    8.1776   -0.6986    0.0000 C   0  0  0  0  0  0  0  0  0  0  0  0
    9.8413   -0.0600    0.0000 C   0  0  0  0  0  0  0  0  0  0  0  0
    6.0766    4.6579    0.0000 C   0  0  0  0  0  0  0  0  0  0  0  0
   10.2480   -0.9735    0.0000 C   0  0  2  0  0  0  0  0  0  0  0  0
   11.2426   -1.0781    0.0000 C   0  0  0  0  0  0  0  0  0  0  0  0
   12.2371   -1.1826    0.0000 C   0  0  0  0  0  0  0  0  0  0  0  0
   11.1380   -2.0726    0.0000 C   0  0  0  0  0  0  0  0  0  0  0  0
   11.3471   -0.0835    0.0000 C   0  0  0  0  0  0  0  0  0  0  0  0
    6.3981   -1.7919    0.0000 C   0  0  0  0  0  0  0  0  0  0  0  0
    5.5320   -2.2919    0.0000 C   0  0  0  0  0  0  0  0  0  0  0  0
    7.2641   -2.2919    0.0000 C   0  0  0  0  0  0  0  0  0  0  0  0
   10.0670   -2.6961    0.0000 C   0  0  0  0  0  0  0  0  0  0  0  0
    7.2641   -3.2919    0.0000 C   0  0  0  0  0  0  0  0  0  0  0  0
    8.1301   -3.7919    0.0000 C   0  0  0  0  0  0  0  0  0  0  0  0
    5.5320   -3.2919    0.0000 C   0  0  0  0  0  0  0  0  0  0  0  0
    4.6381   -1.7572    0.0000 C   0  0  0  0  0  0  0  0  0  0  0  0
   11.4682   -3.7142    0.0000 C   0  0  0  0  0  0  0  0  0  0  0  0
    8.9962   -4.2919    0.0000 C   0  0  0  0  0  0  0  0  0  0  0  0
    7.6301   -4.6579    0.0000 C   0  0  0  0  0  0  0  0  0  0  0  0
    8.6301   -2.9258    0.0000 C   0  0  0  0  0  0  0  0  0  0  0  0
    4.6381   -3.8265    0.0000 C   0  0  0  0  0  0  0  0  0  0  0  0
    3.7320   -2.2711    0.0000 C   0  0  0  0  0  0  0  0  0  0  0  0
    3.7320   -3.3127    0.0000 C   0  0  0  0  0  0  0  0  0  0  0  0
   11.8750   -4.6277    0.0000 C   0  0  0  0  0  0  0  0  0  0  0  0
   12.3818   -3.3074    0.0000 C   0  0  0  0  0  0  0  0  0  0  0  0
   10.5547   -4.1209    0.0000 C   0  0  0  0  0  0  0  0  0  0  0  0
    2.0000   -3.3194    0.0000 C   0  0  0  0  0  0  0  0  0  0  0  0
    7.4367    4.5322    0.0000 H   0  0  0  0  0  0  0  0  0  0  0  0
    9.0639    4.7121    0.0000 H   0  0  0  0  0  0  0  0  0  0  0  0
    8.1961    5.0984    0.0000 H   0  0  0  0  0  0  0  0  0  0  0  0
    7.5491    2.5683    0.0000 H   0  0  0  0  0  0  0  0  0  0  0  0
    6.4122    3.2825    0.0000 H   0  0  0  0  0  0  0  0  0  0  0  0
    8.9659    0.9430    0.0000 H   0  0  0  0  0  0  0  0  0  0  0  0
    7.3038    1.3192    0.0000 H   0  0  0  0  0  0  0  0  0  0  0  0
    6.7486    0.7027    0.0000 H   0  0  0  0  0  0  0  0  0  0  0  0
    6.7441    0.0458    0.0000 H   0  0  0  0  0  0  0  0  0  0  0  0
    7.8676   -1.2355    0.0000 H   0  0  0  0  0  0  0  0  0  0  0  0
    8.6792   -1.0630    0.0000 H   0  0  0  0  0  0  0  0  0  0  0  0
    6.3288    5.2243    0.0000 H   0  0  0  0  0  0  0  0  0  0  0  0
    5.4600    4.5931    0.0000 H   0  0  0  0  0  0  0  0  0  0  0  0
   10.5002   -1.5399    0.0000 H   0  0  0  0  0  0  0  0  0  0  0  0
   10.5903    4.6296    0.0000 H   0  0  0  0  0  0  0  0  0  0  0  0
    9.0436   -1.7178    0.0000 H   0  0  0  0  0  0  0  0  0  0  0  0
   12.1723   -1.7992    0.0000 H   0  0  0  0  0  0  0  0  0  0  0  0
   12.8537   -1.2474    0.0000 H   0  0  0  0  0  0  0  0  0  0  0  0
   12.3019   -0.5660    0.0000 H   0  0  0  0  0  0  0  0  0  0  0  0
   10.5214   -2.0078    0.0000 H   0  0  0  0  0  0  0  0  0  0  0  0
   11.0732   -2.6892    0.0000 H   0  0  0  0  0  0  0  0  0  0  0  0
   11.7546   -2.1374    0.0000 H   0  0  0  0  0  0  0  0  0  0  0  0
   11.9637   -0.1484    0.0000 H   0  0  0  0  0  0  0  0  0  0  0  0
   11.4119    0.5331    0.0000 H   0  0  0  0  0  0  0  0  0  0  0  0
   10.7305   -0.0187    0.0000 H   0  0  0  0  0  0  0  0  0  0  0  0
    7.8010   -1.9819    0.0000 H   0  0  0  0  0  0  0  0  0  0  0  0
    4.6453   -1.1373    0.0000 H   0  0  0  0  0  0  0  0  0  0  0  0
    8.6862   -4.8288    0.0000 H   0  0  0  0  0  0  0  0  0  0  0  0
    9.5331   -4.6019    0.0000 H   0  0  0  0  0  0  0  0  0  0  0  0
    9.3062   -3.7549    0.0000 H   0  0  0  0  0  0  0  0  0  0  0  0
    7.0932   -4.3479    0.0000 H   0  0  0  0  0  0  0  0  0  0  0  0
    7.3201   -5.1948    0.0000 H   0  0  0  0  0  0  0  0  0  0  0  0
    8.1671   -4.9679    0.0000 H   0  0  0  0  0  0  0  0  0  0  0  0
    9.1671   -3.2358    0.0000 H   0  0  0  0  0  0  0  0  0  0  0  0
    8.9401   -2.3889    0.0000 H   0  0  0  0  0  0  0  0  0  0  0  0
    8.0932   -2.6158    0.0000 H   0  0  0  0  0  0  0  0  0  0  0  0
    4.6453   -4.4465    0.0000 H   0  0  0  0  0  0  0  0  0  0  0  0
    3.1963   -1.9590    0.0000 H   0  0  0  0  0  0  0  0  0  0  0  0
   11.3086   -4.8799    0.0000 H   0  0  0  0  0  0  0  0  0  0  0  0
   12.1272   -5.1941    0.0000 H   0  0  0  0  0  0  0  0  0  0  0  0
   12.4414   -4.3755    0.0000 H   0  0  0  0  0  0  0  0  0  0  0  0
   12.6340   -3.8738    0.0000 H   0  0  0  0  0  0  0  0  0  0  0  0
   12.9482   -3.0553    0.0000 H   0  0  0  0  0  0  0  0  0  0  0  0
   12.1296   -2.7410    0.0000 H   0  0  0  0  0  0  0  0  0  0  0  0
   10.3025   -3.5545    0.0000 H   0  0  0  0  0  0  0  0  0  0  0  0
    9.9883   -4.3731    0.0000 H   0  0  0  0  0  0  0  0  0  0  0  0
   10.8069   -4.6873    0.0000 H   0  0  0  0  0  0  0  0  0  0  0  0
    2.3079   -2.7812    0.0000 H   0  0  0  0  0  0  0  0  0  0  0  0
    1.4619   -3.0114    0.0000 H   0  0  0  0  0  0  0  0  0  0  0  0
    1.6921   -3.8575    0.0000 H   0  0  0  0  0  0  0  0  0  0  0  0
  1 16  1  0  0  0  0
  1 63  1  0  0  0  0
  2 16  2  0  0  0  0
 21  3  1  6  0  0  0
  3 30  1  0  0  0  0
  4 19  2  0  0  0  0
  5 23  2  0  0  0  0
  6 33  1  0  0  0  0
  6 38  1  0  0  0  0
  7 33  2  0  0  0  0
  8 44  1  0  0  0  0
  8 48  1  0  0  0  0
  9 13  1  0  0  0  0
  9 19  1  0  0  0  0
  9 52  1  0  0  0  0
 10 18  1  0  0  0  0
 10 22  1  0  0  0  0
 10 23  1  0  0  0  0
 25 11  1  6  0  0  0
 11 33  1  0  0  0  0
 11 64  1  0  0  0  0
 12 34  2  0  0  0  0
 12 36  1  0  0  0  0
 13 14  1  0  0  0  0
 13 15  1  0  0  0  0
 13 16  1  0  0  0  0
 14 15  1  0  0  0  0
 14 17  1  1  0  0  0
 14 49  1  0  0  0  0
 15 50  1  0  0  0  0
 15 51  1  0  0  0  0
 17 24  2  0  0  0  0
 17 53  1  0  0  0  0
 18 19  1  1  0  0  0
 18 20  1  0  0  0  0
 18 54  1  0  0  0  0
 20 21  1  0  0  0  0
 20 55  1  0  0  0  0
 20 56  1  0  0  0  0
 21 22  1  0  0  0  0
 21 57  1  0  0  0  0
 22 58  1  0  0  0  0
 22 59  1  0  0  0  0
 23 25  1  0  0  0  0
 24 60  1  0  0  0  0
 24 61  1  0  0  0  0
 25 26  1  0  0  0  0
 25 62  1  0  0  0  0
 26 27  1  0  0  0  0
 26 28  1  0  0  0  0
 26 29  1  0  0  0  0
 27 65  1  0  0  0  0
 27 66  1  0  0  0  0
 27 67  1  0  0  0  0
 28 68  1  0  0  0  0
 28 69  1  0  0  0  0
 28 70  1  0  0  0  0
 29 71  1  0  0  0  0
 29 72  1  0  0  0  0
 29 73  1  0  0  0  0
 30 31  1  0  0  0  0
 30 32  2  0  0  0  0
 31 36  2  0  0  0  0
 31 37  1  0  0  0  0
 32 34  1  0  0  0  0
 32 74  1  0  0  0  0
 34 35  1  0  0  0  0
 35 39  1  0  0  0  0
 35 40  1  0  0  0  0
 35 41  1  0  0  0  0
 36 42  1  0  0  0  0
 37 43  2  0  0  0  0
 37 75  1  0  0  0  0
 38 45  1  0  0  0  0
 38 46  1  0  0  0  0
 38 47  1  0  0  0  0
 39 76  1  0  0  0  0
 39 77  1  0  0  0  0
 39 78  1  0  0  0  0
 40 79  1  0  0  0  0
 40 80  1  0  0  0  0
 40 81  1  0  0  0  0
 41 82  1  0  0  0  0
 41 83  1  0  0  0  0
 41 84  1  0  0  0  0
 42 44  2  0  0  0  0
 42 85  1  0  0  0  0
 43 44  1  0  0  0  0
 43 86  1  0  0  0  0
 45 87  1  0  0  0  0
 45 88  1  0  0  0  0
 45 89  1  0  0  0  0
 46 90  1  0  0  0  0
 46 91  1  0  0  0  0
 46 92  1  0  0  0  0
 47 93  1  0  0  0  0
 47 94  1  0  0  0  0
 47 95  1  0  0  0  0
 48 96  1  0  0  0  0
 48 97  1  0  0  0  0
 48 98  1  0  0  0  0
M  END
> <PUBCHEM_COMPOUND_CID>
500752
> <PUBCHEM_COMPOUND_CANONICALIZED>
1
> <PUBCHEM_CACTVS_COMPLEXITY>
1240
> <PUBCHEM_CACTVS_HBOND_ACCEPTOR>
9
> <PUBCHEM_CACTVS_HBOND_DONOR>
3
> <PUBCHEM_CACTVS_ROTATABLE_BOND>
13
> <PUBCHEM_CACTVS_SUBSKEYS>
AAADcfB/vAAAAAAAAAAAAAAAGAAAAWAAAAA8QAAAAAAAAACx8AAAHgAQCAAAD/zhngYyzvPIFgCoAyXyXACCiCAhIiAImKG+bJkOZvLEsbufeCjm1hnY6Ae68e8PIAAAAgACAABAAAAEAAQAAAAAAAAAAA==
> <PUBCHEM_IUPAC_OPENEYE_NAME>
(2R)-1-[[(2S,4R)-1-[(2S)-2-(tert-butoxycarbonylamino)-3,3-dimethyl-butanoyl]-4-[(2-tert-butyl-7-methoxy-4-quinolyl)oxy]pyrrolidine-2-carbonyl]amino]-2-vinyl-cyclopropanecarboxylic acid
> <PUBCHEM_IUPAC_CAS_NAME>
(2R)-1-[[[(2S,4R)-4-[(2-tert-butyl-7-methoxy-4-quinolinyl)oxy]-1-[(2S)-3,3-dimethyl-2-[[(2-methylpropan-2-yl)oxy-oxomethyl]amino]-1-oxobutyl]-2-pyrrolidinyl]-oxomethyl]amino]-2-ethenyl-1-cyclopropanecarboxylic acid
> <PUBCHEM_IUPAC_NAME_MARKUP>
(2<I>R</I>)-1-[[(2<I>S</I>,4<I>R</I>)-4-(2-<I>tert</I>-butyl-7-methoxyquinolin-4-yl)oxy-1-[(2<I>S</I>)-3,3-dimethyl-2-[(2-methylpropan-2-yl)oxycarbonylamino]butanoyl]pyrrolidine-2-carbonyl]amino]-2-ethenylcyclopropane-1-carboxylic acid
> <PUBCHEM_IUPAC_NAME>
(2R)-1-[[(2S,4R)-4-(2-tert-butyl-7-methoxyquinolin-4-yl)oxy-1-[(2S)-3,3-dimethyl-2-[(2-methylpropan-2-yl)oxycarbonylamino]butanoyl]pyrrolidine-2-carbonyl]amino]-2-ethenylcyclopropane-1-carboxylic acid
> <PUBCHEM_IUPAC_SYSTEMATIC_NAME>
(2R)-1-[[(2S,4R)-4-(2-tert-butyl-7-methoxy-quinolin-4-yl)oxy-1-[(2S)-3,3-dimethyl-2-[(2-methylpropan-2-yl)oxycarbonylamino]butanoyl]pyrrolidin-2-yl]carbonylamino]-2-ethenyl-cyclopropane-1-carboxylic acid
> <PUBCHEM_IUPAC_TRADITIONAL_NAME>
(2R)-1-[[(2S,4R)-1-[(2S)-2-(tert-butoxycarbonylamino)-3,3-dimethyl-butanoyl]-4-[(2-tert-butyl-7-methoxy-4-quinolyl)oxy]prolyl]amino]-2-vinyl-cyclopropanecarboxylic acid
> <PUBCHEM_IUPAC_INCHI>
InChI=1S/C36H50N4O8/c1-12-20-18-36(20,31(43)44)39-29(41)25-16-22(19-40(25)30(42)28(34(5,6)7)38-32(45)48-35(8,9)10)47-26-17-27(33(2,3)4)37-24-15-21(46-11)13-14-23(24)26/h12-15,17,20,22,25,28H,1,16,18-19H2,2-11H3,(H,38,45)(H,39,41)(H,43,44)/t20-,22+,25-,28+,36?/m0/s1
> <PUBCHEM_IUPAC_INCHIKEY>
QSRZHVOQPPZJRW-VEWBJZMMSA-N
> <PUBCHEM_XLOGP3_AA>
5.9
> <PUBCHEM_EXACT_MASS>
666.36286457
> <PUBCHEM_MOLECULAR_FORMULA>
C36H50N4O8
> <PUBCHEM_MOLECULAR_WEIGHT>
666.8
> <PUBCHEM_OPENEYE_CAN_SMILES>
CC(C)(C)C1=NC2=C(C=CC(=C2)OC)C(=C1)OC3CC(N(C3)C(=O)C(C(C)(C)C)NC(=O)OC(C)(C)C)C(=O)NC4(CC4C=C)C(=O)O
> <PUBCHEM_OPENEYE_ISO_SMILES>
CC(C)(C)C1=NC2=C(C=CC(=C2)OC)C(=C1)O[C@@H]3C[C@H](N(C3)C(=O)[C@H](C(C)(C)C)NC(=O)OC(C)(C)C)C(=O)NC4(C[C@@H]4C=C)C(=O)O
> <PUBCHEM_CACTVS_TPSA>
156
> <PUBCHEM_MONOISOTOPIC_WEIGHT>
666.36286457
> <PUBCHEM_TOTAL_CHARGE>
0
> <PUBCHEM_HEAVY_ATOM_COUNT>
48
> <PUBCHEM_ATOM_DEF_STEREO_COUNT>
4
> <PUBCHEM_ATOM_UDEF_STEREO_COUNT>
1
> <PUBCHEM_BOND_DEF_STEREO_COUNT>
0
> <PUBCHEM_BOND_UDEF_STEREO_COUNT>
0
> <PUBCHEM_ISOTOPIC_ATOM_COUNT>
0
> <PUBCHEM_COMPONENT_COUNT>
1
> <PUBCHEM_CACTVS_TAUTO_COUNT>
-1
> <PUBCHEM_COORDINATE_TYPE>
1
5
255
> <PUBCHEM_BONDANNOTATIONS>
25  11  6
12  34  8
12  36  8
13  16  3
14  17  5
18  19  5
21  3  6
30  31  8
30  32  8
31  36  8
31  37  8
32  34  8
36  42  8
37  43  8
42  44  8
43  44  8
$$$$
