500749
  -OEChem-10302200282D
106110  0     1  0  0  0  0  0999 V2000
    9.2128   -4.8000    0.0000 S   0  0  0  0  0  0  0  0  0  0  0  0
    7.9287    5.0830    0.0000 O   0  0  0  0  0  0  0  0  0  0  0  0
    8.9467    3.6818    0.0000 O   0  0  0  0  0  0  0  0  0  0  0  0
    6.3981   -0.5975    0.0000 O   0  0  0  0  0  0  0  0  0  0  0  0
    9.0513    2.6872    0.0000 O   0  0  0  0  0  0  0  0  0  0  0  0
   10.2480   -0.7792    0.0000 O   0  0  0  0  0  0  0  0  0  0  0  0
   12.5819    1.3546    0.0000 O   0  0  0  0  0  0  0  0  0  0  0  0
   13.2864   -0.2277    0.0000 O   0  0  0  0  0  0  0  0  0  0  0  0
    2.8680   -3.6217    0.0000 O   0  0  0  0  0  0  0  0  0  0  0  0
    7.3287    2.5062    0.0000 N   0  0  0  0  0  0  0  0  0  0  0  0
    8.8468    0.2389    0.0000 N   0  0  0  0  0  0  0  0  0  0  0  0
   11.5639   -0.0467    0.0000 N   0  0  0  0  0  0  0  0  0  0  0  0
    6.3981   -3.5975    0.0000 N   0  0  0  0  0  0  0  0  0  0  0  0
    9.0437   -3.1908    0.0000 N   0  0  0  0  0  0  0  0  0  0  0  0
   10.7073   -3.8294    0.0000 N   0  0  0  0  0  0  0  0  0  0  0  0
    7.2242    3.5007    0.0000 C   0  0  3  0  0  0  0  0  0  0  0  0
    6.2296    3.3962    0.0000 C   0  0  2  0  0  0  0  0  0  0  0  0
    6.6364    4.3097    0.0000 C   0  0  0  0  0  0  0  0  0  0  0  0
    8.0332    4.0885    0.0000 C   0  0  0  0  0  0  0  0  0  0  0  0
    5.4206    2.8084    0.0000 C   0  0  0  0  0  0  0  0  0  0  0  0
    8.3468    1.1049    0.0000 C   0  0  2  0  0  0  0  0  0  0  0  0
    8.2422    2.0994    0.0000 C   0  0  0  0  0  0  0  0  0  0  0  0
    7.3686    0.8970    0.0000 C   0  0  0  0  0  0  0  0  0  0  0  0
    7.2641   -0.0975    0.0000 C   0  0  2  0  0  0  0  0  0  0  0  0
    8.1776   -0.5043    0.0000 C   0  0  0  0  0  0  0  0  0  0  0  0
    4.5071    3.2151    0.0000 C   0  0  0  0  0  0  0  0  0  0  0  0
    9.8413    0.1344    0.0000 C   0  0  0  0  0  0  0  0  0  0  0  0
   10.7548    0.5411    0.0000 C   0  0  2  0  0  0  0  0  0  0  0  0
   10.8594    1.5356    0.0000 C   0  0  0  0  0  0  0  0  0  0  0  0
   10.9639    2.5301    0.0000 C   0  0  0  0  0  0  0  0  0  0  0  0
   11.8539    1.4311    0.0000 C   0  0  0  0  0  0  0  0  0  0  0  0
    9.8648    1.6402    0.0000 C   0  0  0  0  0  0  0  0  0  0  0  0
    6.3981   -1.5975    0.0000 C   0  0  0  0  0  0  0  0  0  0  0  0
    5.5320   -2.0975    0.0000 C   0  0  0  0  0  0  0  0  0  0  0  0
   12.4774    0.3601    0.0000 C   0  0  0  0  0  0  0  0  0  0  0  0
    7.2641   -2.0975    0.0000 C   0  0  0  0  0  0  0  0  0  0  0  0
    5.5320   -3.0975    0.0000 C   0  0  0  0  0  0  0  0  0  0  0  0
    7.2641   -3.0975    0.0000 C   0  0  0  0  0  0  0  0  0  0  0  0
    4.6381   -1.5629    0.0000 C   0  0  0  0  0  0  0  0  0  0  0  0
   13.4955    1.7613    0.0000 C   0  0  0  0  0  0  0  0  0  0  0  0
    4.6381   -3.6322    0.0000 C   0  0  0  0  0  0  0  0  0  0  0  0
    3.7320   -2.0767    0.0000 C   0  0  0  0  0  0  0  0  0  0  0  0
    8.1301   -3.5975    0.0000 C   0  0  0  0  0  0  0  0  0  0  0  0
    3.7320   -3.1183    0.0000 C   0  0  0  0  0  0  0  0  0  0  0  0
   14.4090    2.1680    0.0000 C   0  0  0  0  0  0  0  0  0  0  0  0
   13.0887    2.6748    0.0000 C   0  0  0  0  0  0  0  0  0  0  0  0
   13.9022    0.8478    0.0000 C   0  0  0  0  0  0  0  0  0  0  0  0
    8.2346   -4.5920    0.0000 C   0  0  0  0  0  0  0  0  0  0  0  0
    9.7128   -3.9339    0.0000 C   0  0  0  0  0  0  0  0  0  0  0  0
   11.2951   -4.6384    0.0000 C   0  0  0  0  0  0  0  0  0  0  0  0
    2.0000   -3.1250    0.0000 C   0  0  0  0  0  0  0  0  0  0  0  0
   11.8829   -5.4474    0.0000 C   0  0  0  0  0  0  0  0  0  0  0  0
   12.1041   -4.0506    0.0000 C   0  0  0  0  0  0  0  0  0  0  0  0
   10.4861   -5.2262    0.0000 C   0  0  0  0  0  0  0  0  0  0  0  0
    6.4518    2.8173    0.0000 H   0  0  0  0  0  0  0  0  0  0  0  0
    7.0671    4.7557    0.0000 H   0  0  0  0  0  0  0  0  0  0  0  0
    6.1224    4.6564    0.0000 H   0  0  0  0  0  0  0  0  0  0  0  0
    6.8271    2.1418    0.0000 H   0  0  0  0  0  0  0  0  0  0  0  0
    5.4854    2.1918    0.0000 H   0  0  0  0  0  0  0  0  0  0  0  0
    8.9364    1.2965    0.0000 H   0  0  0  0  0  0  0  0  0  0  0  0
    7.3038    1.5136    0.0000 H   0  0  0  0  0  0  0  0  0  0  0  0
    6.7486    0.8970    0.0000 H   0  0  0  0  0  0  0  0  0  0  0  0
    6.7441    0.2402    0.0000 H   0  0  0  0  0  0  0  0  0  0  0  0
    7.8676   -1.0412    0.0000 H   0  0  0  0  0  0  0  0  0  0  0  0
    8.6792   -0.8687    0.0000 H   0  0  0  0  0  0  0  0  0  0  0  0
    4.4423    3.8317    0.0000 H   0  0  0  0  0  0  0  0  0  0  0  0
    4.0055    2.8507    0.0000 H   0  0  0  0  0  0  0  0  0  0  0  0
   10.6900   -0.0755    0.0000 H   0  0  0  0  0  0  0  0  0  0  0  0
    8.4302    5.4474    0.0000 H   0  0  0  0  0  0  0  0  0  0  0  0
   11.4991   -0.6633    0.0000 H   0  0  0  0  0  0  0  0  0  0  0  0
   11.5805    2.4653    0.0000 H   0  0  0  0  0  0  0  0  0  0  0  0
   11.0287    3.1468    0.0000 H   0  0  0  0  0  0  0  0  0  0  0  0
   10.3473    2.5950    0.0000 H   0  0  0  0  0  0  0  0  0  0  0  0
   11.7891    0.8145    0.0000 H   0  0  0  0  0  0  0  0  0  0  0  0
   12.4705    1.3663    0.0000 H   0  0  0  0  0  0  0  0  0  0  0  0
   11.9187    2.0477    0.0000 H   0  0  0  0  0  0  0  0  0  0  0  0
    9.9297    2.2567    0.0000 H   0  0  0  0  0  0  0  0  0  0  0  0
    9.2482    1.7050    0.0000 H   0  0  0  0  0  0  0  0  0  0  0  0
    9.8000    1.0236    0.0000 H   0  0  0  0  0  0  0  0  0  0  0  0
    7.8010   -1.7875    0.0000 H   0  0  0  0  0  0  0  0  0  0  0  0
    4.6453   -0.9429    0.0000 H   0  0  0  0  0  0  0  0  0  0  0  0
    4.6453   -4.2521    0.0000 H   0  0  0  0  0  0  0  0  0  0  0  0
    3.1963   -1.7646    0.0000 H   0  0  0  0  0  0  0  0  0  0  0  0
   14.6612    1.6016    0.0000 H   0  0  0  0  0  0  0  0  0  0  0  0
   14.9754    2.4202    0.0000 H   0  0  0  0  0  0  0  0  0  0  0  0
   14.1568    2.7344    0.0000 H   0  0  0  0  0  0  0  0  0  0  0  0
   13.6551    2.9270    0.0000 H   0  0  0  0  0  0  0  0  0  0  0  0
   12.8366    3.2412    0.0000 H   0  0  0  0  0  0  0  0  0  0  0  0
   12.5223    2.4227    0.0000 H   0  0  0  0  0  0  0  0  0  0  0  0
   13.3358    0.5956    0.0000 H   0  0  0  0  0  0  0  0  0  0  0  0
   14.1544    0.2814    0.0000 H   0  0  0  0  0  0  0  0  0  0  0  0
   14.4686    1.0999    0.0000 H   0  0  0  0  0  0  0  0  0  0  0  0
    7.7739   -5.0069    0.0000 H   0  0  0  0  0  0  0  0  0  0  0  0
   10.9595   -3.2630    0.0000 H   0  0  0  0  0  0  0  0  0  0  0  0
    2.3079   -2.5869    0.0000 H   0  0  0  0  0  0  0  0  0  0  0  0
    1.4619   -2.8171    0.0000 H   0  0  0  0  0  0  0  0  0  0  0  0
    1.6921   -3.6631    0.0000 H   0  0  0  0  0  0  0  0  0  0  0  0
   11.3813   -5.8119    0.0000 H   0  0  0  0  0  0  0  0  0  0  0  0
   12.2473   -5.9490    0.0000 H   0  0  0  0  0  0  0  0  0  0  0  0
   12.3845   -5.0830    0.0000 H   0  0  0  0  0  0  0  0  0  0  0  0
   12.4685   -4.5522    0.0000 H   0  0  0  0  0  0  0  0  0  0  0  0
   12.6057   -3.6862    0.0000 H   0  0  0  0  0  0  0  0  0  0  0  0
   11.7397   -3.5490    0.0000 H   0  0  0  0  0  0  0  0  0  0  0  0
   10.1217   -4.7246    0.0000 H   0  0  0  0  0  0  0  0  0  0  0  0
    9.9845   -5.5906    0.0000 H   0  0  0  0  0  0  0  0  0  0  0  0
   10.8505   -5.7278    0.0000 H   0  0  0  0  0  0  0  0  0  0  0  0
  1 48  1  0  0  0  0
  1 49  1  0  0  0  0
  2 19  1  0  0  0  0
  2 69  1  0  0  0  0
  3 19  2  0  0  0  0
 24  4  1  6  0  0  0
  4 33  1  0  0  0  0
  5 22  2  0  0  0  0
  6 27  2  0  0  0  0
  7 35  1  0  0  0  0
  7 40  1  0  0  0  0
  8 35  2  0  0  0  0
  9 44  1  0  0  0  0
  9 51  1  0  0  0  0
 10 16  1  0  0  0  0
 10 22  1  0  0  0  0
 10 58  1  0  0  0  0
 11 21  1  0  0  0  0
 11 25  1  0  0  0  0
 11 27  1  0  0  0  0
 28 12  1  6  0  0  0
 12 35  1  0  0  0  0
 12 70  1  0  0  0  0
 13 37  1  0  0  0  0
 13 38  2  0  0  0  0
 14 43  1  0  0  0  0
 14 49  2  0  0  0  0
 15 49  1  0  0  0  0
 15 50  1  0  0  0  0
 15 94  1  0  0  0  0
 16 17  1  0  0  0  0
 16 18  1  0  0  0  0
 16 19  1  0  0  0  0
 17 18  1  0  0  0  0
 17 20  1  1  0  0  0
 17 55  1  0  0  0  0
 18 56  1  0  0  0  0
 18 57  1  0  0  0  0
 20 26  2  0  0  0  0
 20 59  1  0  0  0  0
 21 22  1  1  0  0  0
 21 23  1  0  0  0  0
 21 60  1  0  0  0  0
 23 24  1  0  0  0  0
 23 61  1  0  0  0  0
 23 62  1  0  0  0  0
 24 25  1  0  0  0  0
 24 63  1  0  0  0  0
 25 64  1  0  0  0  0
 25 65  1  0  0  0  0
 26 66  1  0  0  0  0
 26 67  1  0  0  0  0
 27 28  1  0  0  0  0
 28 29  1  0  0  0  0
 28 68  1  0  0  0  0
 29 30  1  0  0  0  0
 29 31  1  0  0  0  0
 29 32  1  0  0  0  0
 30 71  1  0  0  0  0
 30 72  1  0  0  0  0
 30 73  1  0  0  0  0
 31 74  1  0  0  0  0
 31 75  1  0  0  0  0
 31 76  1  0  0  0  0
 32 77  1  0  0  0  0
 32 78  1  0  0  0  0
 32 79  1  0  0  0  0
 33 34  1  0  0  0  0
 33 36  2  0  0  0  0
 34 37  2  0  0  0  0
 34 39  1  0  0  0  0
 36 38  1  0  0  0  0
 36 80  1  0  0  0  0
 37 41  1  0  0  0  0
 38 43  1  0  0  0  0
 39 42  2  0  0  0  0
 39 81  1  0  0  0  0
 40 45  1  0  0  0  0
 40 46  1  0  0  0  0
 40 47  1  0  0  0  0
 41 44  2  0  0  0  0
 41 82  1  0  0  0  0
 42 44  1  0  0  0  0
 42 83  1  0  0  0  0
 43 48  2  0  0  0  0
 45 84  1  0  0  0  0
 45 85  1  0  0  0  0
 45 86  1  0  0  0  0
 46 87  1  0  0  0  0
 46 88  1  0  0  0  0
 46 89  1  0  0  0  0
 47 90  1  0  0  0  0
 47 91  1  0  0  0  0
 47 92  1  0  0  0  0
 48 93  1  0  0  0  0
 50 52  1  0  0  0  0
 50 53  1  0  0  0  0
 50 54  1  0  0  0  0
 51 95  1  0  0  0  0
 51 96  1  0  0  0  0
 51 97  1  0  0  0  0
 52 98  1  0  0  0  0
 52 99  1  0  0  0  0
 52100  1  0  0  0  0
 53101  1  0  0  0  0
 53102  1  0  0  0  0
 53103  1  0  0  0  0
 54104  1  0  0  0  0
 54105  1  0  0  0  0
 54106  1  0  0  0  0
M  END
> <PUBCHEM_COMPOUND_CID>
500749
> <PUBCHEM_COMPOUND_CANONICALIZED>
1
> <PUBCHEM_CACTVS_COMPLEXITY>
1410
> <PUBCHEM_CACTVS_HBOND_ACCEPTOR>
12
> <PUBCHEM_CACTVS_HBOND_DONOR>
4
> <PUBCHEM_CACTVS_ROTATABLE_BOND>
15
> <PUBCHEM_CACTVS_SUBSKEYS>
AAADcfB/vABAAAAAAAAAAAAAGAAAAWLAAAA8QAAAAAAAAACx/AAAHgQQCAAAD/zl3gaz3/PIFgisAyXyfACC+KlhKjkJmLW+bJmOZvLkubufeCju1hvY6Ce68e8PIAAAAgACAABAAAAEAAQAAAAAAAAAAA==
> <PUBCHEM_IUPAC_OPENEYE_NAME>
(2R)-1-[[(2S,4R)-1-[(2S)-2-(tert-butoxycarbonylamino)-3,3-dimethyl-butanoyl]-4-[[2-[2-(tert-butylamino)thiazol-4-yl]-7-methoxy-4-quinolyl]oxy]pyrrolidine-2-carbonyl]amino]-2-vinyl-cyclopropanecarboxylic acid
> <PUBCHEM_IUPAC_CAS_NAME>
(2R)-1-[[[(2S,4R)-4-[[2-[2-(tert-butylamino)-4-thiazolyl]-7-methoxy-4-quinolinyl]oxy]-1-[(2S)-3,3-dimethyl-2-[[(2-methylpropan-2-yl)oxy-oxomethyl]amino]-1-oxobutyl]-2-pyrrolidinyl]-oxomethyl]amino]-2-ethenyl-1-cyclopropanecarboxylic acid
> <PUBCHEM_IUPAC_NAME_MARKUP>
(2<I>R</I>)-1-[[(2<I>S</I>,4<I>R</I>)-4-[2-[2-(<I>tert</I>-butylamino)-1,3-thiazol-4-yl]-7-methoxyquinolin-4-yl]oxy-1-[(2<I>S</I>)-3,3-dimethyl-2-[(2-methylpropan-2-yl)oxycarbonylamino]butanoyl]pyrrolidine-2-carbonyl]amino]-2-ethenylcyclopropane-1-carboxylic acid
> <PUBCHEM_IUPAC_NAME>
(2R)-1-[[(2S,4R)-4-[2-[2-(tert-butylamino)-1,3-thiazol-4-yl]-7-methoxyquinolin-4-yl]oxy-1-[(2S)-3,3-dimethyl-2-[(2-methylpropan-2-yl)oxycarbonylamino]butanoyl]pyrrolidine-2-carbonyl]amino]-2-ethenylcyclopropane-1-carboxylic acid
> <PUBCHEM_IUPAC_SYSTEMATIC_NAME>
(2R)-1-[[(2S,4R)-4-[2-[2-(tert-butylamino)-1,3-thiazol-4-yl]-7-methoxy-quinolin-4-yl]oxy-1-[(2S)-3,3-dimethyl-2-[(2-methylpropan-2-yl)oxycarbonylamino]butanoyl]pyrrolidin-2-yl]carbonylamino]-2-ethenyl-cyclopropane-1-carboxylic acid
> <PUBCHEM_IUPAC_TRADITIONAL_NAME>
(2R)-1-[[(2S,4R)-1-[(2S)-2-(tert-butoxycarbonylamino)-3,3-dimethyl-butanoyl]-4-[[2-[2-(tert-butylamino)thiazol-4-yl]-7-methoxy-4-quinolyl]oxy]prolyl]amino]-2-vinyl-cyclopropanecarboxylic acid
> <PUBCHEM_IUPAC_INCHI>
InChI=1S/C39H52N6O8S/c1-12-21-18-39(21,33(48)49)43-31(46)28-16-23(19-45(28)32(47)30(36(2,3)4)42-35(50)53-38(8,9)10)52-29-17-26(27-20-54-34(41-27)44-37(5,6)7)40-25-15-22(51-11)13-14-24(25)29/h12-15,17,20-21,23,28,30H,1,16,18-19H2,2-11H3,(H,41,44)(H,42,50)(H,43,46)(H,48,49)/t21-,23+,28-,30+,39?/m0/s1
> <PUBCHEM_IUPAC_INCHIKEY>
OPRVYFQOZLEDBP-JXIQFPIASA-N
> <PUBCHEM_XLOGP3_AA>
6.2
> <PUBCHEM_EXACT_MASS>
764.35673381
> <PUBCHEM_MOLECULAR_FORMULA>
C39H52N6O8S
> <PUBCHEM_MOLECULAR_WEIGHT>
764.9
> <PUBCHEM_OPENEYE_CAN_SMILES>
CC(C)(C)C(C(=O)N1CC(CC1C(=O)NC2(CC2C=C)C(=O)O)OC3=CC(=NC4=C3C=CC(=C4)OC)C5=CSC(=N5)NC(C)(C)C)NC(=O)OC(C)(C)C
> <PUBCHEM_OPENEYE_ISO_SMILES>
CC(C)(C)[C@@H](C(=O)N1C[C@@H](C[C@H]1C(=O)NC2(C[C@@H]2C=C)C(=O)O)OC3=CC(=NC4=C3C=CC(=C4)OC)C5=CSC(=N5)NC(C)(C)C)NC(=O)OC(C)(C)C
> <PUBCHEM_CACTVS_TPSA>
210
> <PUBCHEM_MONOISOTOPIC_WEIGHT>
764.35673381
> <PUBCHEM_TOTAL_CHARGE>
0
> <PUBCHEM_HEAVY_ATOM_COUNT>
54
> <PUBCHEM_ATOM_DEF_STEREO_COUNT>
4
> <PUBCHEM_ATOM_UDEF_STEREO_COUNT>
1
> <PUBCHEM_BOND_DEF_STEREO_COUNT>
0
> <PUBCHEM_BOND_UDEF_STEREO_COUNT>
0
> <PUBCHEM_ISOTOPIC_ATOM_COUNT>
0
> <PUBCHEM_COMPONENT_COUNT>
1
> <PUBCHEM_CACTVS_TAUTO_COUNT>
-1
> <PUBCHEM_COORDINATE_TYPE>
1
5
255
> <PUBCHEM_BONDANNOTATIONS>
1  48  8
1  49  8
28  12  6
13  37  8
13  38  8
14  43  8
14  49  8
16  19  3
17  20  5
21  22  5
33  34  8
33  36  8
34  37  8
34  39  8
36  38  8
37  41  8
39  42  8
24  4  6
41  44  8
42  44  8
43  48  8
$$$$
