500777
  -OEChem-10302200282D
100104  0     1  0  0  0  0  0999 V2000
   12.8249   -0.1622    0.0000 O   0  0  0  0  0  0  0  0  0  0  0  0
   11.4236    0.8558    0.0000 O   0  0  0  0  0  0  0  0  0  0  0  0
    6.3981   -0.5805    0.0000 O   0  0  0  0  0  0  0  0  0  0  0  0
   10.4291    0.9604    0.0000 O   0  0  0  0  0  0  0  0  0  0  0  0
    9.7480    2.1400    0.0000 O   0  0  0  0  0  0  0  0  0  0  0  0
    6.9902    4.4625    0.0000 O   0  0  0  0  0  0  0  0  0  0  0  0
    5.5889    3.4444    0.0000 O   0  0  0  0  0  0  0  0  0  0  0  0
    2.8680   -3.6047    0.0000 O   0  0  0  0  0  0  0  0  0  0  0  0
   10.7282   -5.0805    0.0000 O   0  0  0  0  0  0  0  0  0  0  0  0
   10.2480   -0.7622    0.0000 N   0  0  0  0  0  0  0  0  0  0  0  0
    8.3468    1.1219    0.0000 N   0  0  0  0  0  0  0  0  0  0  0  0
    7.1712    2.7399    0.0000 N   0  0  0  0  0  0  0  0  0  0  0  0
    6.3981   -3.5805    0.0000 N   0  0  0  0  0  0  0  0  0  0  0  0
   11.2426   -0.8667    0.0000 C   0  0  3  0  0  0  0  0  0  0  0  0
   11.1380   -1.8612    0.0000 C   0  0  2  0  0  0  0  0  0  0  0  0
   12.0516   -1.4545    0.0000 C   0  0  0  0  0  0  0  0  0  0  0  0
   11.8303   -0.0577    0.0000 C   0  0  0  0  0  0  0  0  0  0  0  0
   10.5502   -2.6703    0.0000 C   0  0  0  0  0  0  0  0  0  0  0  0
    8.8468    0.2559    0.0000 C   0  0  2  0  0  0  0  0  0  0  0  0
    9.8413    0.1513    0.0000 C   0  0  0  0  0  0  0  0  0  0  0  0
    8.1776   -0.4873    0.0000 C   0  0  0  0  0  0  0  0  0  0  0  0
    7.2641   -0.0805    0.0000 C   0  0  2  0  0  0  0  0  0  0  0  0
    7.3686    0.9140    0.0000 C   0  0  0  0  0  0  0  0  0  0  0  0
    8.7535    2.0354    0.0000 C   0  0  0  0  0  0  0  0  0  0  0  0
   10.9570   -3.5838    0.0000 C   0  0  0  0  0  0  0  0  0  0  0  0
    8.1657    2.8445    0.0000 C   0  0  2  0  0  0  0  0  0  0  0  0
    8.5725    3.7580    0.0000 C   0  0  0  0  0  0  0  0  0  0  0  0
    8.9792    4.6716    0.0000 C   0  0  0  0  0  0  0  0  0  0  0  0
    7.6589    4.1648    0.0000 C   0  0  0  0  0  0  0  0  0  0  0  0
    9.4860    3.3513    0.0000 C   0  0  0  0  0  0  0  0  0  0  0  0
    6.3981   -1.5805    0.0000 C   0  0  0  0  0  0  0  0  0  0  0  0
    5.5320   -2.0805    0.0000 C   0  0  0  0  0  0  0  0  0  0  0  0
    6.5834    3.5490    0.0000 C   0  0  0  0  0  0  0  0  0  0  0  0
    7.2641   -2.0805    0.0000 C   0  0  0  0  0  0  0  0  0  0  0  0
    5.5320   -3.0805    0.0000 C   0  0  0  0  0  0  0  0  0  0  0  0
    7.2641   -3.0805    0.0000 C   0  0  0  0  0  0  0  0  0  0  0  0
    4.6381   -1.5459    0.0000 C   0  0  0  0  0  0  0  0  0  0  0  0
    6.4024    5.2715    0.0000 C   0  0  0  0  0  0  0  0  0  0  0  0
    4.6381   -3.6152    0.0000 C   0  0  0  0  0  0  0  0  0  0  0  0
    3.7320   -2.0597    0.0000 C   0  0  0  0  0  0  0  0  0  0  0  0
    8.1301   -3.5805    0.0000 C   0  0  0  0  0  0  0  0  0  0  0  0
    3.7320   -3.1014    0.0000 C   0  0  0  0  0  0  0  0  0  0  0  0
    5.8146    6.0805    0.0000 C   0  0  0  0  0  0  0  0  0  0  0  0
    7.2114    5.8593    0.0000 C   0  0  0  0  0  0  0  0  0  0  0  0
    5.5934    4.6837    0.0000 C   0  0  0  0  0  0  0  0  0  0  0  0
    8.9962   -3.0805    0.0000 C   0  0  0  0  0  0  0  0  0  0  0  0
    8.1301   -4.5805    0.0000 C   0  0  0  0  0  0  0  0  0  0  0  0
    9.8622   -3.5805    0.0000 C   0  0  0  0  0  0  0  0  0  0  0  0
    8.9962   -5.0805    0.0000 C   0  0  0  0  0  0  0  0  0  0  0  0
    9.8622   -4.5805    0.0000 C   0  0  0  0  0  0  0  0  0  0  0  0
    2.0000   -3.1080    0.0000 C   0  0  0  0  0  0  0  0  0  0  0  0
   10.7282   -6.0805    0.0000 C   0  0  0  0  0  0  0  0  0  0  0  0
   10.5592   -1.6391    0.0000 H   0  0  0  0  0  0  0  0  0  0  0  0
   12.3983   -1.9685    0.0000 H   0  0  0  0  0  0  0  0  0  0  0  0
   12.4976   -1.0238    0.0000 H   0  0  0  0  0  0  0  0  0  0  0  0
    9.8836   -1.2638    0.0000 H   0  0  0  0  0  0  0  0  0  0  0  0
    9.9336   -2.6055    0.0000 H   0  0  0  0  0  0  0  0  0  0  0  0
    9.1844    0.7759    0.0000 H   0  0  0  0  0  0  0  0  0  0  0  0
    7.8676   -1.0242    0.0000 H   0  0  0  0  0  0  0  0  0  0  0  0
    8.6792   -0.8517    0.0000 H   0  0  0  0  0  0  0  0  0  0  0  0
    6.7441    0.2571    0.0000 H   0  0  0  0  0  0  0  0  0  0  0  0
    7.3038    1.5306    0.0000 H   0  0  0  0  0  0  0  0  0  0  0  0
    6.7486    0.9140    0.0000 H   0  0  0  0  0  0  0  0  0  0  0  0
   10.5926   -4.0854    0.0000 H   0  0  0  0  0  0  0  0  0  0  0  0
   11.5736   -3.6486    0.0000 H   0  0  0  0  0  0  0  0  0  0  0  0
    7.8013    3.3460    0.0000 H   0  0  0  0  0  0  0  0  0  0  0  0
   13.1893    0.3394    0.0000 H   0  0  0  0  0  0  0  0  0  0  0  0
    6.9190    2.1735    0.0000 H   0  0  0  0  0  0  0  0  0  0  0  0
    9.5456    4.4194    0.0000 H   0  0  0  0  0  0  0  0  0  0  0  0
    9.2314    5.2380    0.0000 H   0  0  0  0  0  0  0  0  0  0  0  0
    8.4128    4.9237    0.0000 H   0  0  0  0  0  0  0  0  0  0  0  0
    7.9111    4.7311    0.0000 H   0  0  0  0  0  0  0  0  0  0  0  0
    7.0925    4.4169    0.0000 H   0  0  0  0  0  0  0  0  0  0  0  0
    7.4067    3.5984    0.0000 H   0  0  0  0  0  0  0  0  0  0  0  0
    9.2338    2.7849    0.0000 H   0  0  0  0  0  0  0  0  0  0  0  0
   10.0524    3.0991    0.0000 H   0  0  0  0  0  0  0  0  0  0  0  0
    9.7382    3.9177    0.0000 H   0  0  0  0  0  0  0  0  0  0  0  0
    7.8010   -1.7705    0.0000 H   0  0  0  0  0  0  0  0  0  0  0  0
    4.6453   -0.9259    0.0000 H   0  0  0  0  0  0  0  0  0  0  0  0
    4.6453   -4.2352    0.0000 H   0  0  0  0  0  0  0  0  0  0  0  0
    3.1963   -1.7476    0.0000 H   0  0  0  0  0  0  0  0  0  0  0  0
    6.3162    6.4450    0.0000 H   0  0  0  0  0  0  0  0  0  0  0  0
    5.4502    6.5821    0.0000 H   0  0  0  0  0  0  0  0  0  0  0  0
    5.3130    5.7161    0.0000 H   0  0  0  0  0  0  0  0  0  0  0  0
    7.5758    5.3577    0.0000 H   0  0  0  0  0  0  0  0  0  0  0  0
    7.7130    6.2237    0.0000 H   0  0  0  0  0  0  0  0  0  0  0  0
    6.8470    6.3609    0.0000 H   0  0  0  0  0  0  0  0  0  0  0  0
    5.2289    5.1853    0.0000 H   0  0  0  0  0  0  0  0  0  0  0  0
    5.0918    4.3193    0.0000 H   0  0  0  0  0  0  0  0  0  0  0  0
    5.9578    4.1821    0.0000 H   0  0  0  0  0  0  0  0  0  0  0  0
    8.9962   -2.4605    0.0000 H   0  0  0  0  0  0  0  0  0  0  0  0
    7.5932   -4.8905    0.0000 H   0  0  0  0  0  0  0  0  0  0  0  0
   10.3991   -3.2705    0.0000 H   0  0  0  0  0  0  0  0  0  0  0  0
    8.9962   -5.7005    0.0000 H   0  0  0  0  0  0  0  0  0  0  0  0
    2.3079   -2.5699    0.0000 H   0  0  0  0  0  0  0  0  0  0  0  0
    1.4619   -2.8001    0.0000 H   0  0  0  0  0  0  0  0  0  0  0  0
    1.6921   -3.6462    0.0000 H   0  0  0  0  0  0  0  0  0  0  0  0
   10.1082   -6.0805    0.0000 H   0  0  0  0  0  0  0  0  0  0  0  0
   10.7282   -6.7005    0.0000 H   0  0  0  0  0  0  0  0  0  0  0  0
   11.3482   -6.0805    0.0000 H   0  0  0  0  0  0  0  0  0  0  0  0
  1 17  1  0  0  0  0
  1 67  1  0  0  0  0
  2 17  2  0  0  0  0
 22  3  1  1  0  0  0
  3 31  1  0  0  0  0
  4 20  2  0  0  0  0
  5 24  2  0  0  0  0
  6 33  1  0  0  0  0
  6 38  1  0  0  0  0
  7 33  2  0  0  0  0
  8 42  1  0  0  0  0
  8 51  1  0  0  0  0
  9 50  1  0  0  0  0
  9 52  1  0  0  0  0
 10 14  1  0  0  0  0
 10 20  1  0  0  0  0
 10 56  1  0  0  0  0
 11 19  1  0  0  0  0
 11 23  1  0  0  0  0
 11 24  1  0  0  0  0
 26 12  1  1  0  0  0
 12 33  1  0  0  0  0
 12 68  1  0  0  0  0
 13 35  1  0  0  0  0
 13 36  2  0  0  0  0
 14 15  1  0  0  0  0
 14 16  1  0  0  0  0
 14 17  1  0  0  0  0
 15 16  1  0  0  0  0
 15 18  1  6  0  0  0
 15 53  1  0  0  0  0
 16 54  1  0  0  0  0
 16 55  1  0  0  0  0
 18 25  2  0  0  0  0
 18 57  1  0  0  0  0
 19 20  1  6  0  0  0
 19 21  1  0  0  0  0
 19 58  1  0  0  0  0
 21 22  1  0  0  0  0
 21 59  1  0  0  0  0
 21 60  1  0  0  0  0
 22 23  1  0  0  0  0
 22 61  1  0  0  0  0
 23 62  1  0  0  0  0
 23 63  1  0  0  0  0
 24 26  1  0  0  0  0
 25 64  1  0  0  0  0
 25 65  1  0  0  0  0
 26 27  1  0  0  0  0
 26 66  1  0  0  0  0
 27 28  1  0  0  0  0
 27 29  1  0  0  0  0
 27 30  1  0  0  0  0
 28 69  1  0  0  0  0
 28 70  1  0  0  0  0
 28 71  1  0  0  0  0
 29 72  1  0  0  0  0
 29 73  1  0  0  0  0
 29 74  1  0  0  0  0
 30 75  1  0  0  0  0
 30 76  1  0  0  0  0
 30 77  1  0  0  0  0
 31 32  1  0  0  0  0
 31 34  2  0  0  0  0
 32 35  2  0  0  0  0
 32 37  1  0  0  0  0
 34 36  1  0  0  0  0
 34 78  1  0  0  0  0
 35 39  1  0  0  0  0
 36 41  1  0  0  0  0
 37 40  2  0  0  0  0
 37 79  1  0  0  0  0
 38 43  1  0  0  0  0
 38 44  1  0  0  0  0
 38 45  1  0  0  0  0
 39 42  2  0  0  0  0
 39 80  1  0  0  0  0
 40 42  1  0  0  0  0
 40 81  1  0  0  0  0
 41 46  2  0  0  0  0
 41 47  1  0  0  0  0
 43 82  1  0  0  0  0
 43 83  1  0  0  0  0
 43 84  1  0  0  0  0
 44 85  1  0  0  0  0
 44 86  1  0  0  0  0
 44 87  1  0  0  0  0
 45 88  1  0  0  0  0
 45 89  1  0  0  0  0
 45 90  1  0  0  0  0
 46 48  1  0  0  0  0
 46 91  1  0  0  0  0
 47 49  2  0  0  0  0
 47 92  1  0  0  0  0
 48 50  2  0  0  0  0
 48 93  1  0  0  0  0
 49 50  1  0  0  0  0
 49 94  1  0  0  0  0
 51 95  1  0  0  0  0
 51 96  1  0  0  0  0
 51 97  1  0  0  0  0
 52 98  1  0  0  0  0
 52 99  1  0  0  0  0
 52100  1  0  0  0  0
M  END
> <PUBCHEM_COMPOUND_CID>
500777
> <PUBCHEM_COMPOUND_CANONICALIZED>
1
> <PUBCHEM_CACTVS_COMPLEXITY>
1320
> <PUBCHEM_CACTVS_HBOND_ACCEPTOR>
10
> <PUBCHEM_CACTVS_HBOND_DONOR>
3
> <PUBCHEM_CACTVS_ROTATABLE_BOND>
14
> <PUBCHEM_CACTVS_SUBSKEYS>
AAADcfB/vAAAAAAAAAAAAAAAGAAAAWAAAAA8YIAAAAAAAACx9AAAHgAQCAAAD/zhngYyzvPIFgCoAyXyXACCiCAhIiAImKG+bJkOZvLEsbufeCjm1hnY6Ae68e8PIAAAAgACAABAAAAEAAQAAAAAAAAAAA==
> <PUBCHEM_IUPAC_OPENEYE_NAME>
(2R)-1-[[(2S,4R)-1-[(2S)-2-(tert-butoxycarbonylamino)-3,3-dimethyl-butanoyl]-4-[[7-methoxy-2-(4-methoxyphenyl)-4-quinolyl]oxy]pyrrolidine-2-carbonyl]amino]-2-vinyl-cyclopropanecarboxylic acid
> <PUBCHEM_IUPAC_CAS_NAME>
(2R)-1-[[[(2S,4R)-1-[(2S)-3,3-dimethyl-2-[[(2-methylpropan-2-yl)oxy-oxomethyl]amino]-1-oxobutyl]-4-[[7-methoxy-2-(4-methoxyphenyl)-4-quinolinyl]oxy]-2-pyrrolidinyl]-oxomethyl]amino]-2-ethenyl-1-cyclopropanecarboxylic acid
> <PUBCHEM_IUPAC_NAME_MARKUP>
(2<I>R</I>)-1-[[(2<I>S</I>,4<I>R</I>)-1-[(2<I>S</I>)-3,3-dimethyl-2-[(2-methylpropan-2-yl)oxycarbonylamino]butanoyl]-4-[7-methoxy-2-(4-methoxyphenyl)quinolin-4-yl]oxypyrrolidine-2-carbonyl]amino]-2-ethenylcyclopropane-1-carboxylic acid
> <PUBCHEM_IUPAC_NAME>
(2R)-1-[[(2S,4R)-1-[(2S)-3,3-dimethyl-2-[(2-methylpropan-2-yl)oxycarbonylamino]butanoyl]-4-[7-methoxy-2-(4-methoxyphenyl)quinolin-4-yl]oxypyrrolidine-2-carbonyl]amino]-2-ethenylcyclopropane-1-carboxylic acid
> <PUBCHEM_IUPAC_SYSTEMATIC_NAME>
(2R)-1-[[(2S,4R)-1-[(2S)-3,3-dimethyl-2-[(2-methylpropan-2-yl)oxycarbonylamino]butanoyl]-4-[7-methoxy-2-(4-methoxyphenyl)quinolin-4-yl]oxy-pyrrolidin-2-yl]carbonylamino]-2-ethenyl-cyclopropane-1-carboxylic acid
> <PUBCHEM_IUPAC_TRADITIONAL_NAME>
(2R)-1-[[(2S,4R)-1-[(2S)-2-(tert-butoxycarbonylamino)-3,3-dimethyl-butanoyl]-4-[[7-methoxy-2-(4-methoxyphenyl)-4-quinolyl]oxy]prolyl]amino]-2-vinyl-cyclopropanecarboxylic acid
> <PUBCHEM_IUPAC_INCHI>
InChI=1S/C39H48N4O9/c1-10-23-20-39(23,35(46)47)42-33(44)30-18-26(21-43(30)34(45)32(37(2,3)4)41-36(48)52-38(5,6)7)51-31-19-28(22-11-13-24(49-8)14-12-22)40-29-17-25(50-9)15-16-27(29)31/h10-17,19,23,26,30,32H,1,18,20-21H2,2-9H3,(H,41,48)(H,42,44)(H,46,47)/t23-,26+,30-,32+,39?/m0/s1
> <PUBCHEM_IUPAC_INCHIKEY>
BFEFKVAORMOXGG-YICLFWTESA-N
> <PUBCHEM_XLOGP3_AA>
5.8
> <PUBCHEM_EXACT_MASS>
716.34212912
> <PUBCHEM_MOLECULAR_FORMULA>
C39H48N4O9
> <PUBCHEM_MOLECULAR_WEIGHT>
716.8
> <PUBCHEM_OPENEYE_CAN_SMILES>
CC(C)(C)C(C(=O)N1CC(CC1C(=O)NC2(CC2C=C)C(=O)O)OC3=CC(=NC4=C3C=CC(=C4)OC)C5=CC=C(C=C5)OC)NC(=O)OC(C)(C)C
> <PUBCHEM_OPENEYE_ISO_SMILES>
CC(C)(C)[C@@H](C(=O)N1C[C@@H](C[C@H]1C(=O)NC2(C[C@@H]2C=C)C(=O)O)OC3=CC(=NC4=C3C=CC(=C4)OC)C5=CC=C(C=C5)OC)NC(=O)OC(C)(C)C
> <PUBCHEM_CACTVS_TPSA>
166
> <PUBCHEM_MONOISOTOPIC_WEIGHT>
716.34212912
> <PUBCHEM_TOTAL_CHARGE>
0
> <PUBCHEM_HEAVY_ATOM_COUNT>
52
> <PUBCHEM_ATOM_DEF_STEREO_COUNT>
4
> <PUBCHEM_ATOM_UDEF_STEREO_COUNT>
1
> <PUBCHEM_BOND_DEF_STEREO_COUNT>
0
> <PUBCHEM_BOND_UDEF_STEREO_COUNT>
0
> <PUBCHEM_ISOTOPIC_ATOM_COUNT>
0
> <PUBCHEM_COMPONENT_COUNT>
1
> <PUBCHEM_CACTVS_TAUTO_COUNT>
-1
> <PUBCHEM_COORDINATE_TYPE>
1
5
255
> <PUBCHEM_BONDANNOTATIONS>
26  12  5
13  35  8
13  36  8
14  17  3
15  18  6
19  20  6
22  3  5
31  32  8
31  34  8
32  35  8
32  37  8
34  36  8
35  39  8
37  40  8
39  42  8
40  42  8
41  46  8
41  47  8
46  48  8
47  49  8
48  50  8
49  50  8
$$$$
