500738
  -OEChem-10302200282D
105109  0     1  0  0  0  0  0999 V2000
   12.8249   -0.1622    0.0000 O   0  0  0  0  0  0  0  0  0  0  0  0
   11.4236    0.8558    0.0000 O   0  0  0  0  0  0  0  0  0  0  0  0
    6.3981   -0.5805    0.0000 O   0  0  0  0  0  0  0  0  0  0  0  0
   10.4291    0.9604    0.0000 O   0  0  0  0  0  0  0  0  0  0  0  0
    9.7480    2.1400    0.0000 O   0  0  0  0  0  0  0  0  0  0  0  0
    6.9902    4.4625    0.0000 O   0  0  0  0  0  0  0  0  0  0  0  0
   10.7282   -5.0805    0.0000 O   0  0  0  0  0  0  0  0  0  0  0  0
    5.5889    3.4444    0.0000 O   0  0  0  0  0  0  0  0  0  0  0  0
    2.8680   -3.6047    0.0000 O   0  0  0  0  0  0  0  0  0  0  0  0
   10.2480   -0.7622    0.0000 N   0  0  0  0  0  0  0  0  0  0  0  0
    8.3468    1.1219    0.0000 N   0  0  0  0  0  0  0  0  0  0  0  0
    7.1712    2.7399    0.0000 N   0  0  0  0  0  0  0  0  0  0  0  0
    8.1301   -3.5805    0.0000 N   0  0  0  0  0  0  0  0  0  0  0  0
    6.3981   -3.5805    0.0000 N   0  0  0  0  0  0  0  0  0  0  0  0
   11.2426   -0.8667    0.0000 C   0  0  3  0  0  0  0  0  0  0  0  0
   11.1380   -1.8612    0.0000 C   0  0  2  0  0  0  0  0  0  0  0  0
   12.0516   -1.4545    0.0000 C   0  0  0  0  0  0  0  0  0  0  0  0
   11.8303   -0.0577    0.0000 C   0  0  0  0  0  0  0  0  0  0  0  0
   10.5502   -2.6703    0.0000 C   0  0  0  0  0  0  0  0  0  0  0  0
    8.8468    0.2559    0.0000 C   0  0  2  0  0  0  0  0  0  0  0  0
    9.8413    0.1513    0.0000 C   0  0  0  0  0  0  0  0  0  0  0  0
    8.1776   -0.4873    0.0000 C   0  0  0  0  0  0  0  0  0  0  0  0
    7.2641   -0.0805    0.0000 C   0  0  2  0  0  0  0  0  0  0  0  0
    7.3686    0.9140    0.0000 C   0  0  0  0  0  0  0  0  0  0  0  0
   10.9570   -3.5838    0.0000 C   0  0  0  0  0  0  0  0  0  0  0  0
    8.7535    2.0354    0.0000 C   0  0  0  0  0  0  0  0  0  0  0  0
    8.1657    2.8445    0.0000 C   0  0  2  0  0  0  0  0  0  0  0  0
    8.5725    3.7580    0.0000 C   0  0  0  0  0  0  0  0  0  0  0  0
    8.9792    4.6716    0.0000 C   0  0  0  0  0  0  0  0  0  0  0  0
    7.6589    4.1648    0.0000 C   0  0  0  0  0  0  0  0  0  0  0  0
    9.4860    3.3513    0.0000 C   0  0  0  0  0  0  0  0  0  0  0  0
    6.3981   -1.5805    0.0000 C   0  0  0  0  0  0  0  0  0  0  0  0
    5.5320   -2.0805    0.0000 C   0  0  0  0  0  0  0  0  0  0  0  0
    7.2641   -2.0805    0.0000 C   0  0  0  0  0  0  0  0  0  0  0  0
    6.5834    3.5490    0.0000 C   0  0  0  0  0  0  0  0  0  0  0  0
    7.2641   -3.0805    0.0000 C   0  0  0  0  0  0  0  0  0  0  0  0
    8.1301   -4.5805    0.0000 C   0  0  0  0  0  0  0  0  0  0  0  0
    8.9962   -3.0805    0.0000 C   0  0  0  0  0  0  0  0  0  0  0  0
    9.8622   -4.5805    0.0000 C   0  0  0  0  0  0  0  0  0  0  0  0
    8.9962   -5.0805    0.0000 C   0  0  0  0  0  0  0  0  0  0  0  0
    9.8622   -3.5805    0.0000 C   0  0  0  0  0  0  0  0  0  0  0  0
    5.5320   -3.0805    0.0000 C   0  0  0  0  0  0  0  0  0  0  0  0
    4.6381   -1.5459    0.0000 C   0  0  0  0  0  0  0  0  0  0  0  0
    4.6381   -3.6152    0.0000 C   0  0  0  0  0  0  0  0  0  0  0  0
    6.4024    5.2715    0.0000 C   0  0  0  0  0  0  0  0  0  0  0  0
    3.7320   -2.0597    0.0000 C   0  0  0  0  0  0  0  0  0  0  0  0
    3.7320   -3.1014    0.0000 C   0  0  0  0  0  0  0  0  0  0  0  0
    5.8146    6.0805    0.0000 C   0  0  0  0  0  0  0  0  0  0  0  0
    7.2114    5.8593    0.0000 C   0  0  0  0  0  0  0  0  0  0  0  0
    5.5934    4.6837    0.0000 C   0  0  0  0  0  0  0  0  0  0  0  0
   10.7282   -6.0805    0.0000 C   0  0  0  0  0  0  0  0  0  0  0  0
    2.0000   -3.1080    0.0000 C   0  0  0  0  0  0  0  0  0  0  0  0
   10.5592   -1.6391    0.0000 H   0  0  0  0  0  0  0  0  0  0  0  0
   12.3983   -1.9685    0.0000 H   0  0  0  0  0  0  0  0  0  0  0  0
   12.4976   -1.0238    0.0000 H   0  0  0  0  0  0  0  0  0  0  0  0
    9.8836   -1.2638    0.0000 H   0  0  0  0  0  0  0  0  0  0  0  0
    9.9336   -2.6055    0.0000 H   0  0  0  0  0  0  0  0  0  0  0  0
    9.1844    0.7759    0.0000 H   0  0  0  0  0  0  0  0  0  0  0  0
    7.8676   -1.0242    0.0000 H   0  0  0  0  0  0  0  0  0  0  0  0
    8.6792   -0.8517    0.0000 H   0  0  0  0  0  0  0  0  0  0  0  0
    6.7441    0.2571    0.0000 H   0  0  0  0  0  0  0  0  0  0  0  0
    7.3038    1.5306    0.0000 H   0  0  0  0  0  0  0  0  0  0  0  0
    6.7486    0.9140    0.0000 H   0  0  0  0  0  0  0  0  0  0  0  0
   10.5926   -4.0854    0.0000 H   0  0  0  0  0  0  0  0  0  0  0  0
   11.5736   -3.6486    0.0000 H   0  0  0  0  0  0  0  0  0  0  0  0
    7.8013    3.3460    0.0000 H   0  0  0  0  0  0  0  0  0  0  0  0
   13.1893    0.3394    0.0000 H   0  0  0  0  0  0  0  0  0  0  0  0
    6.9190    2.1735    0.0000 H   0  0  0  0  0  0  0  0  0  0  0  0
    9.5456    4.4194    0.0000 H   0  0  0  0  0  0  0  0  0  0  0  0
    9.2314    5.2380    0.0000 H   0  0  0  0  0  0  0  0  0  0  0  0
    8.4128    4.9237    0.0000 H   0  0  0  0  0  0  0  0  0  0  0  0
    7.9111    4.7311    0.0000 H   0  0  0  0  0  0  0  0  0  0  0  0
    7.0925    4.4169    0.0000 H   0  0  0  0  0  0  0  0  0  0  0  0
    7.4067    3.5984    0.0000 H   0  0  0  0  0  0  0  0  0  0  0  0
    9.2338    2.7849    0.0000 H   0  0  0  0  0  0  0  0  0  0  0  0
   10.0524    3.0991    0.0000 H   0  0  0  0  0  0  0  0  0  0  0  0
    9.7382    3.9177    0.0000 H   0  0  0  0  0  0  0  0  0  0  0  0
    7.8010   -1.7705    0.0000 H   0  0  0  0  0  0  0  0  0  0  0  0
    7.5195   -4.4729    0.0000 H   0  0  0  0  0  0  0  0  0  0  0  0
    7.9181   -5.1631    0.0000 H   0  0  0  0  0  0  0  0  0  0  0  0
    9.3947   -2.6056    0.0000 H   0  0  0  0  0  0  0  0  0  0  0  0
    8.5976   -2.6056    0.0000 H   0  0  0  0  0  0  0  0  0  0  0  0
   10.3991   -4.2705    0.0000 H   0  0  0  0  0  0  0  0  0  0  0  0
    8.5976   -5.5555    0.0000 H   0  0  0  0  0  0  0  0  0  0  0  0
    9.3947   -5.5555    0.0000 H   0  0  0  0  0  0  0  0  0  0  0  0
   10.4728   -3.6882    0.0000 H   0  0  0  0  0  0  0  0  0  0  0  0
   10.0742   -2.9979    0.0000 H   0  0  0  0  0  0  0  0  0  0  0  0
    4.6453   -0.9259    0.0000 H   0  0  0  0  0  0  0  0  0  0  0  0
    4.6453   -4.2352    0.0000 H   0  0  0  0  0  0  0  0  0  0  0  0
    3.1963   -1.7476    0.0000 H   0  0  0  0  0  0  0  0  0  0  0  0
    6.3162    6.4450    0.0000 H   0  0  0  0  0  0  0  0  0  0  0  0
    5.4502    6.5821    0.0000 H   0  0  0  0  0  0  0  0  0  0  0  0
    5.3130    5.7161    0.0000 H   0  0  0  0  0  0  0  0  0  0  0  0
    7.5758    5.3577    0.0000 H   0  0  0  0  0  0  0  0  0  0  0  0
    7.7130    6.2237    0.0000 H   0  0  0  0  0  0  0  0  0  0  0  0
    6.8470    6.3609    0.0000 H   0  0  0  0  0  0  0  0  0  0  0  0
    5.2289    5.1853    0.0000 H   0  0  0  0  0  0  0  0  0  0  0  0
    5.0918    4.3193    0.0000 H   0  0  0  0  0  0  0  0  0  0  0  0
    5.9578    4.1821    0.0000 H   0  0  0  0  0  0  0  0  0  0  0  0
   10.1082   -6.0805    0.0000 H   0  0  0  0  0  0  0  0  0  0  0  0
   10.7282   -6.7005    0.0000 H   0  0  0  0  0  0  0  0  0  0  0  0
   11.3482   -6.0805    0.0000 H   0  0  0  0  0  0  0  0  0  0  0  0
    2.3079   -2.5699    0.0000 H   0  0  0  0  0  0  0  0  0  0  0  0
    1.4619   -2.8001    0.0000 H   0  0  0  0  0  0  0  0  0  0  0  0
    1.6921   -3.6462    0.0000 H   0  0  0  0  0  0  0  0  0  0  0  0
  1 18  1  0  0  0  0
  1 67  1  0  0  0  0
  2 18  2  0  0  0  0
 23  3  1  1  0  0  0
  3 32  1  0  0  0  0
  4 21  2  0  0  0  0
  5 26  2  0  0  0  0
  6 35  1  0  0  0  0
  6 45  1  0  0  0  0
  7 39  1  0  0  0  0
  7 51  1  0  0  0  0
  8 35  2  0  0  0  0
  9 47  1  0  0  0  0
  9 52  1  0  0  0  0
 10 15  1  0  0  0  0
 10 21  1  0  0  0  0
 10 56  1  0  0  0  0
 11 20  1  0  0  0  0
 11 24  1  0  0  0  0
 11 26  1  0  0  0  0
 27 12  1  1  0  0  0
 12 35  1  0  0  0  0
 12 68  1  0  0  0  0
 13 36  1  0  0  0  0
 13 37  1  0  0  0  0
 13 38  1  0  0  0  0
 14 36  2  0  0  0  0
 14 42  1  0  0  0  0
 15 16  1  0  0  0  0
 15 17  1  0  0  0  0
 15 18  1  0  0  0  0
 16 17  1  0  0  0  0
 16 19  1  6  0  0  0
 16 53  1  0  0  0  0
 17 54  1  0  0  0  0
 17 55  1  0  0  0  0
 19 25  2  0  0  0  0
 19 57  1  0  0  0  0
 20 21  1  6  0  0  0
 20 22  1  0  0  0  0
 20 58  1  0  0  0  0
 22 23  1  0  0  0  0
 22 59  1  0  0  0  0
 22 60  1  0  0  0  0
 23 24  1  0  0  0  0
 23 61  1  0  0  0  0
 24 62  1  0  0  0  0
 24 63  1  0  0  0  0
 25 64  1  0  0  0  0
 25 65  1  0  0  0  0
 26 27  1  0  0  0  0
 27 28  1  0  0  0  0
 27 66  1  0  0  0  0
 28 29  1  0  0  0  0
 28 30  1  0  0  0  0
 28 31  1  0  0  0  0
 29 69  1  0  0  0  0
 29 70  1  0  0  0  0
 29 71  1  0  0  0  0
 30 72  1  0  0  0  0
 30 73  1  0  0  0  0
 30 74  1  0  0  0  0
 31 75  1  0  0  0  0
 31 76  1  0  0  0  0
 31 77  1  0  0  0  0
 32 33  1  0  0  0  0
 32 34  2  0  0  0  0
 33 42  2  0  0  0  0
 33 43  1  0  0  0  0
 34 36  1  0  0  0  0
 34 78  1  0  0  0  0
 37 40  1  0  0  0  0
 37 79  1  0  0  0  0
 37 80  1  0  0  0  0
 38 41  1  0  0  0  0
 38 81  1  0  0  0  0
 38 82  1  0  0  0  0
 39 40  1  0  0  0  0
 39 41  1  0  0  0  0
 39 83  1  0  0  0  0
 40 84  1  0  0  0  0
 40 85  1  0  0  0  0
 41 86  1  0  0  0  0
 41 87  1  0  0  0  0
 42 44  1  0  0  0  0
 43 46  2  0  0  0  0
 43 88  1  0  0  0  0
 44 47  2  0  0  0  0
 44 89  1  0  0  0  0
 45 48  1  0  0  0  0
 45 49  1  0  0  0  0
 45 50  1  0  0  0  0
 46 47  1  0  0  0  0
 46 90  1  0  0  0  0
 48 91  1  0  0  0  0
 48 92  1  0  0  0  0
 48 93  1  0  0  0  0
 49 94  1  0  0  0  0
 49 95  1  0  0  0  0
 49 96  1  0  0  0  0
 50 97  1  0  0  0  0
 50 98  1  0  0  0  0
 50 99  1  0  0  0  0
 51100  1  0  0  0  0
 51101  1  0  0  0  0
 51102  1  0  0  0  0
 52103  1  0  0  0  0
 52104  1  0  0  0  0
 52105  1  0  0  0  0
M  END
> <PUBCHEM_COMPOUND_CID>
500738
> <PUBCHEM_COMPOUND_CANONICALIZED>
1
> <PUBCHEM_CACTVS_COMPLEXITY>
1320
> <PUBCHEM_CACTVS_HBOND_ACCEPTOR>
11
> <PUBCHEM_CACTVS_HBOND_DONOR>
3
> <PUBCHEM_CACTVS_ROTATABLE_BOND>
14
> <PUBCHEM_CACTVS_SUBSKEYS>
AAADcfB/vAAAAAAAAAAAAAAAGAAAAWAAAAA8WIAAAAAAAACx8AAAHgAQCAAAD/zhngYz/vPIFgCoAyfyfACCiCkhIiAJmKG+bJmOZvLEubufeCju1hvY6Ce68a8PIAAAAgACAABAAAAEAAQAAAAAAAAAAA==
> <PUBCHEM_IUPAC_OPENEYE_NAME>
(2R)-1-[[(2S,4R)-1-[(2S)-2-(tert-butoxycarbonylamino)-3,3-dimethyl-butanoyl]-4-[[7-methoxy-2-(4-methoxy-1-piperidyl)-4-quinolyl]oxy]pyrrolidine-2-carbonyl]amino]-2-vinyl-cyclopropanecarboxylic acid
> <PUBCHEM_IUPAC_CAS_NAME>
(2R)-1-[[[(2S,4R)-1-[(2S)-3,3-dimethyl-2-[[(2-methylpropan-2-yl)oxy-oxomethyl]amino]-1-oxobutyl]-4-[[7-methoxy-2-(4-methoxy-1-piperidinyl)-4-quinolinyl]oxy]-2-pyrrolidinyl]-oxomethyl]amino]-2-ethenyl-1-cyclopropanecarboxylic acid
> <PUBCHEM_IUPAC_NAME_MARKUP>
(2<I>R</I>)-1-[[(2<I>S</I>,4<I>R</I>)-1-[(2<I>S</I>)-3,3-dimethyl-2-[(2-methylpropan-2-yl)oxycarbonylamino]butanoyl]-4-[7-methoxy-2-(4-methoxypiperidin-1-yl)quinolin-4-yl]oxypyrrolidine-2-carbonyl]amino]-2-ethenylcyclopropane-1-carboxylic acid
> <PUBCHEM_IUPAC_NAME>
(2R)-1-[[(2S,4R)-1-[(2S)-3,3-dimethyl-2-[(2-methylpropan-2-yl)oxycarbonylamino]butanoyl]-4-[7-methoxy-2-(4-methoxypiperidin-1-yl)quinolin-4-yl]oxypyrrolidine-2-carbonyl]amino]-2-ethenylcyclopropane-1-carboxylic acid
> <PUBCHEM_IUPAC_SYSTEMATIC_NAME>
(2R)-1-[[(2S,4R)-1-[(2S)-3,3-dimethyl-2-[(2-methylpropan-2-yl)oxycarbonylamino]butanoyl]-4-[7-methoxy-2-(4-methoxypiperidin-1-yl)quinolin-4-yl]oxy-pyrrolidin-2-yl]carbonylamino]-2-ethenyl-cyclopropane-1-carboxylic acid
> <PUBCHEM_IUPAC_TRADITIONAL_NAME>
(2R)-1-[[(2S,4R)-1-[(2S)-2-(tert-butoxycarbonylamino)-3,3-dimethyl-butanoyl]-4-[[7-methoxy-2-(4-methoxypiperidino)-4-quinolyl]oxy]prolyl]amino]-2-vinyl-cyclopropanecarboxylic acid
> <PUBCHEM_IUPAC_INCHI>
InChI=1S/C38H53N5O9/c1-10-22-20-38(22,34(46)47)41-32(44)28-18-25(21-43(28)33(45)31(36(2,3)4)40-35(48)52-37(5,6)7)51-29-19-30(42-15-13-23(49-8)14-16-42)39-27-17-24(50-9)11-12-26(27)29/h10-12,17,19,22-23,25,28,31H,1,13-16,18,20-21H2,2-9H3,(H,40,48)(H,41,44)(H,46,47)/t22-,25+,28-,31+,38?/m0/s1
> <PUBCHEM_IUPAC_INCHIKEY>
ULCOTRZTFDRBMM-WCDLIZTESA-N
> <PUBCHEM_XLOGP3_AA>
5
> <PUBCHEM_EXACT_MASS>
723.38432829
> <PUBCHEM_MOLECULAR_FORMULA>
C38H53N5O9
> <PUBCHEM_MOLECULAR_WEIGHT>
723.9
> <PUBCHEM_OPENEYE_CAN_SMILES>
CC(C)(C)C(C(=O)N1CC(CC1C(=O)NC2(CC2C=C)C(=O)O)OC3=CC(=NC4=C3C=CC(=C4)OC)N5CCC(CC5)OC)NC(=O)OC(C)(C)C
> <PUBCHEM_OPENEYE_ISO_SMILES>
CC(C)(C)[C@@H](C(=O)N1C[C@@H](C[C@H]1C(=O)NC2(C[C@@H]2C=C)C(=O)O)OC3=CC(=NC4=C3C=CC(=C4)OC)N5CCC(CC5)OC)NC(=O)OC(C)(C)C
> <PUBCHEM_CACTVS_TPSA>
169
> <PUBCHEM_MONOISOTOPIC_WEIGHT>
723.38432829
> <PUBCHEM_TOTAL_CHARGE>
0
> <PUBCHEM_HEAVY_ATOM_COUNT>
52
> <PUBCHEM_ATOM_DEF_STEREO_COUNT>
4
> <PUBCHEM_ATOM_UDEF_STEREO_COUNT>
1
> <PUBCHEM_BOND_DEF_STEREO_COUNT>
0
> <PUBCHEM_BOND_UDEF_STEREO_COUNT>
0
> <PUBCHEM_ISOTOPIC_ATOM_COUNT>
0
> <PUBCHEM_COMPONENT_COUNT>
1
> <PUBCHEM_CACTVS_TAUTO_COUNT>
-1
> <PUBCHEM_COORDINATE_TYPE>
1
5
255
> <PUBCHEM_BONDANNOTATIONS>
27  12  5
14  36  8
14  42  8
15  18  3
16  19  6
20  21  6
23  3  5
32  33  8
32  34  8
33  42  8
33  43  8
34  36  8
42  44  8
43  46  8
44  47  8
46  47  8
$$$$
