500739
  -OEChem-10302200282D
100104  0     1  0  0  0  0  0999 V2000
    9.2128   -5.1237    0.0000 S   0  0  0  0  0  0  0  0  0  0  0  0
    7.9287    4.7593    0.0000 O   0  0  0  0  0  0  0  0  0  0  0  0
    8.9467    3.3580    0.0000 O   0  0  0  0  0  0  0  0  0  0  0  0
    6.3981   -0.9213    0.0000 O   0  0  0  0  0  0  0  0  0  0  0  0
    9.0513    2.3635    0.0000 O   0  0  0  0  0  0  0  0  0  0  0  0
   10.2480   -1.1029    0.0000 O   0  0  0  0  0  0  0  0  0  0  0  0
   12.5819    1.0308    0.0000 O   0  0  0  0  0  0  0  0  0  0  0  0
   13.2864   -0.5515    0.0000 O   0  0  0  0  0  0  0  0  0  0  0  0
    2.8680   -3.9454    0.0000 O   0  0  0  0  0  0  0  0  0  0  0  0
    7.3287    2.1824    0.0000 N   0  0  0  0  0  0  0  0  0  0  0  0
    8.8468   -0.0848    0.0000 N   0  0  0  0  0  0  0  0  0  0  0  0
   11.5639   -0.3704    0.0000 N   0  0  0  0  0  0  0  0  0  0  0  0
    6.3981   -3.9213    0.0000 N   0  0  0  0  0  0  0  0  0  0  0  0
    9.0437   -3.5145    0.0000 N   0  0  0  0  0  0  0  0  0  0  0  0
   10.7073   -4.1531    0.0000 N   0  0  0  0  0  0  0  0  0  0  0  0
    7.2242    3.1770    0.0000 C   0  0  3  0  0  0  0  0  0  0  0  0
    6.2296    3.0724    0.0000 C   0  0  2  0  0  0  0  0  0  0  0  0
    6.6364    3.9860    0.0000 C   0  0  0  0  0  0  0  0  0  0  0  0
    8.0332    3.7647    0.0000 C   0  0  0  0  0  0  0  0  0  0  0  0
    5.4206    2.4846    0.0000 C   0  0  0  0  0  0  0  0  0  0  0  0
    8.3468    0.7812    0.0000 C   0  0  2  0  0  0  0  0  0  0  0  0
    8.2422    1.7757    0.0000 C   0  0  0  0  0  0  0  0  0  0  0  0
    7.3686    0.5733    0.0000 C   0  0  0  0  0  0  0  0  0  0  0  0
    7.2641   -0.4213    0.0000 C   0  0  2  0  0  0  0  0  0  0  0  0
    8.1776   -0.8280    0.0000 C   0  0  0  0  0  0  0  0  0  0  0  0
    9.8413   -0.1894    0.0000 C   0  0  0  0  0  0  0  0  0  0  0  0
    4.5071    2.8914    0.0000 C   0  0  0  0  0  0  0  0  0  0  0  0
   10.7548    0.2174    0.0000 C   0  0  2  0  0  0  0  0  0  0  0  0
   10.8594    1.2119    0.0000 C   0  0  0  0  0  0  0  0  0  0  0  0
   10.9639    2.2064    0.0000 C   0  0  0  0  0  0  0  0  0  0  0  0
   11.8539    1.1074    0.0000 C   0  0  0  0  0  0  0  0  0  0  0  0
    9.8648    1.3164    0.0000 C   0  0  0  0  0  0  0  0  0  0  0  0
    6.3981   -1.9213    0.0000 C   0  0  0  0  0  0  0  0  0  0  0  0
    5.5320   -2.4213    0.0000 C   0  0  0  0  0  0  0  0  0  0  0  0
   12.4774    0.0363    0.0000 C   0  0  0  0  0  0  0  0  0  0  0  0
    7.2641   -2.4213    0.0000 C   0  0  0  0  0  0  0  0  0  0  0  0
    5.5320   -3.4213    0.0000 C   0  0  0  0  0  0  0  0  0  0  0  0
    7.2641   -3.4213    0.0000 C   0  0  0  0  0  0  0  0  0  0  0  0
    4.6381   -1.8866    0.0000 C   0  0  0  0  0  0  0  0  0  0  0  0
   13.4955    1.4376    0.0000 C   0  0  0  0  0  0  0  0  0  0  0  0
    4.6381   -3.9559    0.0000 C   0  0  0  0  0  0  0  0  0  0  0  0
    3.7320   -2.4004    0.0000 C   0  0  0  0  0  0  0  0  0  0  0  0
    8.1301   -3.9213    0.0000 C   0  0  0  0  0  0  0  0  0  0  0  0
    3.7320   -3.4421    0.0000 C   0  0  0  0  0  0  0  0  0  0  0  0
   14.4090    1.8443    0.0000 C   0  0  0  0  0  0  0  0  0  0  0  0
   13.0887    2.3511    0.0000 C   0  0  0  0  0  0  0  0  0  0  0  0
   13.9022    0.5240    0.0000 C   0  0  0  0  0  0  0  0  0  0  0  0
    8.2346   -4.9158    0.0000 C   0  0  0  0  0  0  0  0  0  0  0  0
    9.7128   -4.2577    0.0000 C   0  0  0  0  0  0  0  0  0  0  0  0
    2.0000   -3.4488    0.0000 C   0  0  0  0  0  0  0  0  0  0  0  0
   11.2951   -4.9622    0.0000 C   0  0  0  0  0  0  0  0  0  0  0  0
   12.2896   -4.8576    0.0000 C   0  0  0  0  0  0  0  0  0  0  0  0
    6.4518    2.4936    0.0000 H   0  0  0  0  0  0  0  0  0  0  0  0
    7.0671    4.4320    0.0000 H   0  0  0  0  0  0  0  0  0  0  0  0
    6.1224    4.3327    0.0000 H   0  0  0  0  0  0  0  0  0  0  0  0
    6.8271    1.8180    0.0000 H   0  0  0  0  0  0  0  0  0  0  0  0
    5.4854    1.8680    0.0000 H   0  0  0  0  0  0  0  0  0  0  0  0
    8.9364    0.9728    0.0000 H   0  0  0  0  0  0  0  0  0  0  0  0
    7.3038    1.1899    0.0000 H   0  0  0  0  0  0  0  0  0  0  0  0
    6.7486    0.5733    0.0000 H   0  0  0  0  0  0  0  0  0  0  0  0
    6.7441   -0.0836    0.0000 H   0  0  0  0  0  0  0  0  0  0  0  0
    7.8676   -1.3649    0.0000 H   0  0  0  0  0  0  0  0  0  0  0  0
    8.6792   -1.1924    0.0000 H   0  0  0  0  0  0  0  0  0  0  0  0
    4.4423    3.5080    0.0000 H   0  0  0  0  0  0  0  0  0  0  0  0
    4.0055    2.5269    0.0000 H   0  0  0  0  0  0  0  0  0  0  0  0
   10.6900   -0.3992    0.0000 H   0  0  0  0  0  0  0  0  0  0  0  0
    8.4302    5.1237    0.0000 H   0  0  0  0  0  0  0  0  0  0  0  0
   11.4991   -0.9870    0.0000 H   0  0  0  0  0  0  0  0  0  0  0  0
   11.5805    2.1416    0.0000 H   0  0  0  0  0  0  0  0  0  0  0  0
   11.0287    2.8230    0.0000 H   0  0  0  0  0  0  0  0  0  0  0  0
   10.3473    2.2712    0.0000 H   0  0  0  0  0  0  0  0  0  0  0  0
   11.7891    0.4907    0.0000 H   0  0  0  0  0  0  0  0  0  0  0  0
   12.4705    1.0425    0.0000 H   0  0  0  0  0  0  0  0  0  0  0  0
   11.9187    1.7240    0.0000 H   0  0  0  0  0  0  0  0  0  0  0  0
    9.9297    1.9330    0.0000 H   0  0  0  0  0  0  0  0  0  0  0  0
    9.2482    1.3812    0.0000 H   0  0  0  0  0  0  0  0  0  0  0  0
    9.8000    0.6998    0.0000 H   0  0  0  0  0  0  0  0  0  0  0  0
    7.8010   -2.1113    0.0000 H   0  0  0  0  0  0  0  0  0  0  0  0
    4.6453   -1.2666    0.0000 H   0  0  0  0  0  0  0  0  0  0  0  0
    4.6453   -4.5759    0.0000 H   0  0  0  0  0  0  0  0  0  0  0  0
    3.1963   -2.0884    0.0000 H   0  0  0  0  0  0  0  0  0  0  0  0
   14.6612    1.2779    0.0000 H   0  0  0  0  0  0  0  0  0  0  0  0
   14.9754    2.0965    0.0000 H   0  0  0  0  0  0  0  0  0  0  0  0
   14.1568    2.4107    0.0000 H   0  0  0  0  0  0  0  0  0  0  0  0
   13.6551    2.6033    0.0000 H   0  0  0  0  0  0  0  0  0  0  0  0
   12.8366    2.9175    0.0000 H   0  0  0  0  0  0  0  0  0  0  0  0
   12.5223    2.0989    0.0000 H   0  0  0  0  0  0  0  0  0  0  0  0
   13.3358    0.2718    0.0000 H   0  0  0  0  0  0  0  0  0  0  0  0
   14.1544   -0.0424    0.0000 H   0  0  0  0  0  0  0  0  0  0  0  0
   14.4686    0.7762    0.0000 H   0  0  0  0  0  0  0  0  0  0  0  0
    7.7739   -5.3306    0.0000 H   0  0  0  0  0  0  0  0  0  0  0  0
    2.3079   -2.9106    0.0000 H   0  0  0  0  0  0  0  0  0  0  0  0
    1.4619   -3.1408    0.0000 H   0  0  0  0  0  0  0  0  0  0  0  0
    1.6921   -3.9869    0.0000 H   0  0  0  0  0  0  0  0  0  0  0  0
   10.9595   -3.5867    0.0000 H   0  0  0  0  0  0  0  0  0  0  0  0
   10.7379   -5.2339    0.0000 H   0  0  0  0  0  0  0  0  0  0  0  0
   11.4660   -5.5581    0.0000 H   0  0  0  0  0  0  0  0  0  0  0  0
   12.3544   -5.4742    0.0000 H   0  0  0  0  0  0  0  0  0  0  0  0
   12.9062   -4.7928    0.0000 H   0  0  0  0  0  0  0  0  0  0  0  0
   12.2248   -4.2410    0.0000 H   0  0  0  0  0  0  0  0  0  0  0  0
  1 48  1  0  0  0  0
  1 49  1  0  0  0  0
  2 19  1  0  0  0  0
  2 67  1  0  0  0  0
  3 19  2  0  0  0  0
 24  4  1  6  0  0  0
  4 33  1  0  0  0  0
  5 22  2  0  0  0  0
  6 26  2  0  0  0  0
  7 35  1  0  0  0  0
  7 40  1  0  0  0  0
  8 35  2  0  0  0  0
  9 44  1  0  0  0  0
  9 50  1  0  0  0  0
 10 16  1  0  0  0  0
 10 22  1  0  0  0  0
 10 56  1  0  0  0  0
 11 21  1  0  0  0  0
 11 25  1  0  0  0  0
 11 26  1  0  0  0  0
 28 12  1  6  0  0  0
 12 35  1  0  0  0  0
 12 68  1  0  0  0  0
 13 37  1  0  0  0  0
 13 38  2  0  0  0  0
 14 43  1  0  0  0  0
 14 49  2  0  0  0  0
 15 49  1  0  0  0  0
 15 51  1  0  0  0  0
 15 95  1  0  0  0  0
 16 17  1  0  0  0  0
 16 18  1  0  0  0  0
 16 19  1  0  0  0  0
 17 18  1  0  0  0  0
 17 20  1  1  0  0  0
 17 53  1  0  0  0  0
 18 54  1  0  0  0  0
 18 55  1  0  0  0  0
 20 27  2  0  0  0  0
 20 57  1  0  0  0  0
 21 22  1  1  0  0  0
 21 23  1  0  0  0  0
 21 58  1  0  0  0  0
 23 24  1  0  0  0  0
 23 59  1  0  0  0  0
 23 60  1  0  0  0  0
 24 25  1  0  0  0  0
 24 61  1  0  0  0  0
 25 62  1  0  0  0  0
 25 63  1  0  0  0  0
 26 28  1  0  0  0  0
 27 64  1  0  0  0  0
 27 65  1  0  0  0  0
 28 29  1  0  0  0  0
 28 66  1  0  0  0  0
 29 30  1  0  0  0  0
 29 31  1  0  0  0  0
 29 32  1  0  0  0  0
 30 69  1  0  0  0  0
 30 70  1  0  0  0  0
 30 71  1  0  0  0  0
 31 72  1  0  0  0  0
 31 73  1  0  0  0  0
 31 74  1  0  0  0  0
 32 75  1  0  0  0  0
 32 76  1  0  0  0  0
 32 77  1  0  0  0  0
 33 34  1  0  0  0  0
 33 36  2  0  0  0  0
 34 37  2  0  0  0  0
 34 39  1  0  0  0  0
 36 38  1  0  0  0  0
 36 78  1  0  0  0  0
 37 41  1  0  0  0  0
 38 43  1  0  0  0  0
 39 42  2  0  0  0  0
 39 79  1  0  0  0  0
 40 45  1  0  0  0  0
 40 46  1  0  0  0  0
 40 47  1  0  0  0  0
 41 44  2  0  0  0  0
 41 80  1  0  0  0  0
 42 44  1  0  0  0  0
 42 81  1  0  0  0  0
 43 48  2  0  0  0  0
 45 82  1  0  0  0  0
 45 83  1  0  0  0  0
 45 84  1  0  0  0  0
 46 85  1  0  0  0  0
 46 86  1  0  0  0  0
 46 87  1  0  0  0  0
 47 88  1  0  0  0  0
 47 89  1  0  0  0  0
 47 90  1  0  0  0  0
 48 91  1  0  0  0  0
 50 92  1  0  0  0  0
 50 93  1  0  0  0  0
 50 94  1  0  0  0  0
 51 52  1  0  0  0  0
 51 96  1  0  0  0  0
 51 97  1  0  0  0  0
 52 98  1  0  0  0  0
 52 99  1  0  0  0  0
 52100  1  0  0  0  0
M  END
> <PUBCHEM_COMPOUND_CID>
500739
> <PUBCHEM_COMPOUND_CANONICALIZED>
1
> <PUBCHEM_CACTVS_COMPLEXITY>
1340
> <PUBCHEM_CACTVS_HBOND_ACCEPTOR>
12
> <PUBCHEM_CACTVS_HBOND_DONOR>
4
> <PUBCHEM_CACTVS_ROTATABLE_BOND>
15
> <PUBCHEM_CACTVS_SUBSKEYS>
AAADcfB/vABAAAAAAAAAAAAAGAAAAWLAAAA8QAAAAAAAAACx/AAAHgQQCAAAD/zl3gaz3/PIFgisAyXyfACC+KlhKjkJmLW+bJmOZvLkubufeCju1hvY6Ce68e8PIAAAAgACAABAAAAEAAQAAAAAAAAAAA==
> <PUBCHEM_IUPAC_OPENEYE_NAME>
(2R)-1-[[(2S,4R)-1-[(2S)-2-(tert-butoxycarbonylamino)-3,3-dimethyl-butanoyl]-4-[[2-[2-(ethylamino)thiazol-4-yl]-7-methoxy-4-quinolyl]oxy]pyrrolidine-2-carbonyl]amino]-2-vinyl-cyclopropanecarboxylic acid
> <PUBCHEM_IUPAC_CAS_NAME>
(2R)-1-[[[(2S,4R)-1-[(2S)-3,3-dimethyl-2-[[(2-methylpropan-2-yl)oxy-oxomethyl]amino]-1-oxobutyl]-4-[[2-[2-(ethylamino)-4-thiazolyl]-7-methoxy-4-quinolinyl]oxy]-2-pyrrolidinyl]-oxomethyl]amino]-2-ethenyl-1-cyclopropanecarboxylic acid
> <PUBCHEM_IUPAC_NAME_MARKUP>
(2<I>R</I>)-1-[[(2<I>S</I>,4<I>R</I>)-1-[(2<I>S</I>)-3,3-dimethyl-2-[(2-methylpropan-2-yl)oxycarbonylamino]butanoyl]-4-[2-[2-(ethylamino)-1,3-thiazol-4-yl]-7-methoxyquinolin-4-yl]oxypyrrolidine-2-carbonyl]amino]-2-ethenylcyclopropane-1-carboxylic acid
> <PUBCHEM_IUPAC_NAME>
(2R)-1-[[(2S,4R)-1-[(2S)-3,3-dimethyl-2-[(2-methylpropan-2-yl)oxycarbonylamino]butanoyl]-4-[2-[2-(ethylamino)-1,3-thiazol-4-yl]-7-methoxyquinolin-4-yl]oxypyrrolidine-2-carbonyl]amino]-2-ethenylcyclopropane-1-carboxylic acid
> <PUBCHEM_IUPAC_SYSTEMATIC_NAME>
(2R)-1-[[(2S,4R)-1-[(2S)-3,3-dimethyl-2-[(2-methylpropan-2-yl)oxycarbonylamino]butanoyl]-4-[2-[2-(ethylamino)-1,3-thiazol-4-yl]-7-methoxy-quinolin-4-yl]oxy-pyrrolidin-2-yl]carbonylamino]-2-ethenyl-cyclopropane-1-carboxylic acid
> <PUBCHEM_IUPAC_TRADITIONAL_NAME>
(2R)-1-[[(2S,4R)-1-[(2S)-2-(tert-butoxycarbonylamino)-3,3-dimethyl-butanoyl]-4-[[2-[2-(ethylamino)thiazol-4-yl]-7-methoxy-4-quinolyl]oxy]prolyl]amino]-2-vinyl-cyclopropanecarboxylic acid
> <PUBCHEM_IUPAC_INCHI>
InChI=1S/C37H48N6O8S/c1-10-20-17-37(20,32(46)47)42-30(44)27-15-22(18-43(27)31(45)29(35(3,4)5)41-34(48)51-36(6,7)8)50-28-16-25(26-19-52-33(40-26)38-11-2)39-24-14-21(49-9)12-13-23(24)28/h10,12-14,16,19-20,22,27,29H,1,11,15,17-18H2,2-9H3,(H,38,40)(H,41,48)(H,42,44)(H,46,47)/t20-,22+,27-,29+,37?/m0/s1
> <PUBCHEM_IUPAC_INCHIKEY>
DGSZSRKFNUTDGX-ZXCHLXFJSA-N
> <PUBCHEM_XLOGP3_AA>
5.6
> <PUBCHEM_EXACT_MASS>
736.32543368
> <PUBCHEM_MOLECULAR_FORMULA>
C37H48N6O8S
> <PUBCHEM_MOLECULAR_WEIGHT>
736.9
> <PUBCHEM_OPENEYE_CAN_SMILES>
CCNC1=NC(=CS1)C2=NC3=C(C=CC(=C3)OC)C(=C2)OC4CC(N(C4)C(=O)C(C(C)(C)C)NC(=O)OC(C)(C)C)C(=O)NC5(CC5C=C)C(=O)O
> <PUBCHEM_OPENEYE_ISO_SMILES>
CCNC1=NC(=CS1)C2=NC3=C(C=CC(=C3)OC)C(=C2)O[C@@H]4C[C@H](N(C4)C(=O)[C@H](C(C)(C)C)NC(=O)OC(C)(C)C)C(=O)NC5(C[C@@H]5C=C)C(=O)O
> <PUBCHEM_CACTVS_TPSA>
210
> <PUBCHEM_MONOISOTOPIC_WEIGHT>
736.32543368
> <PUBCHEM_TOTAL_CHARGE>
0
> <PUBCHEM_HEAVY_ATOM_COUNT>
52
> <PUBCHEM_ATOM_DEF_STEREO_COUNT>
4
> <PUBCHEM_ATOM_UDEF_STEREO_COUNT>
1
> <PUBCHEM_BOND_DEF_STEREO_COUNT>
0
> <PUBCHEM_BOND_UDEF_STEREO_COUNT>
0
> <PUBCHEM_ISOTOPIC_ATOM_COUNT>
0
> <PUBCHEM_COMPONENT_COUNT>
1
> <PUBCHEM_CACTVS_TAUTO_COUNT>
-1
> <PUBCHEM_COORDINATE_TYPE>
1
5
255
> <PUBCHEM_BONDANNOTATIONS>
1  48  8
1  49  8
28  12  6
13  37  8
13  38  8
14  43  8
14  49  8
16  19  3
17  20  5
21  22  5
33  34  8
33  36  8
34  37  8
34  39  8
36  38  8
37  41  8
39  42  8
24  4  6
41  44  8
42  44  8
43  48  8
$$$$
