500707
  -OEChem-10302200282D
 99103  0     1  0  0  0  0  0999 V2000
   10.9118   -1.8758    0.0000 O   0  0  0  0  0  0  0  0  0  0  0  0
    9.3295   -2.5802    0.0000 O   0  0  0  0  0  0  0  0  0  0  0  0
    4.6660   -0.5715    0.0000 O   0  0  0  0  0  0  0  0  0  0  0  0
    8.6970    0.9694    0.0000 O   0  0  0  0  0  0  0  0  0  0  0  0
    8.0160    2.1490    0.0000 O   0  0  0  0  0  0  0  0  0  0  0  0
    3.8569    3.4535    0.0000 O   0  0  0  0  0  0  0  0  0  0  0  0
    5.2581    4.4715    0.0000 O   0  0  0  0  0  0  0  0  0  0  0  0
    8.5160   -0.7532    0.0000 N   0  0  0  0  0  0  0  0  0  0  0  0
    6.6147    1.1309    0.0000 N   0  0  0  0  0  0  0  0  0  0  0  0
    5.4392    2.7490    0.0000 N   0  0  0  0  0  0  0  0  0  0  0  0
    6.3981   -3.5715    0.0000 N   0  0  0  0  0  0  0  0  0  0  0  0
    4.6660   -3.5715    0.0000 N   0  0  0  0  0  0  0  0  0  0  0  0
    8.1301   -4.5715    0.0000 N   0  0  0  0  0  0  0  0  0  0  0  0
    9.5105   -0.8577    0.0000 C   0  0  3  0  0  0  0  0  0  0  0  0
   10.4241   -0.4510    0.0000 C   0  0  2  0  0  0  0  0  0  0  0  0
    9.6150    0.1368    0.0000 C   0  0  0  0  0  0  0  0  0  0  0  0
    9.9172   -1.7712    0.0000 C   0  0  0  0  0  0  0  0  0  0  0  0
   11.4186   -0.5555    0.0000 C   0  0  0  0  0  0  0  0  0  0  0  0
    7.1147    0.2649    0.0000 C   0  0  2  0  0  0  0  0  0  0  0  0
    8.1093    0.1604    0.0000 C   0  0  0  0  0  0  0  0  0  0  0  0
    6.4456   -0.4782    0.0000 C   0  0  0  0  0  0  0  0  0  0  0  0
    5.5321   -0.0715    0.0000 C   0  0  2  0  0  0  0  0  0  0  0  0
    5.6366    0.9230    0.0000 C   0  0  0  0  0  0  0  0  0  0  0  0
    7.0215    2.0445    0.0000 C   0  0  0  0  0  0  0  0  0  0  0  0
   12.0064    0.2535    0.0000 C   0  0  0  0  0  0  0  0  0  0  0  0
    6.4337    2.8535    0.0000 C   0  0  2  0  0  0  0  0  0  0  0  0
    6.8404    3.7670    0.0000 C   0  0  0  0  0  0  0  0  0  0  0  0
    7.2472    4.6806    0.0000 C   0  0  0  0  0  0  0  0  0  0  0  0
    5.9269    4.1738    0.0000 C   0  0  0  0  0  0  0  0  0  0  0  0
    7.7540    3.3603    0.0000 C   0  0  0  0  0  0  0  0  0  0  0  0
    4.6660   -1.5715    0.0000 C   0  0  0  0  0  0  0  0  0  0  0  0
    3.8000   -2.0715    0.0000 C   0  0  0  0  0  0  0  0  0  0  0  0
    5.5321   -2.0715    0.0000 C   0  0  0  0  0  0  0  0  0  0  0  0
    4.8514    3.5580    0.0000 C   0  0  0  0  0  0  0  0  0  0  0  0
    5.5321   -3.0715    0.0000 C   0  0  0  0  0  0  0  0  0  0  0  0
    3.8000   -3.0715    0.0000 C   0  0  0  0  0  0  0  0  0  0  0  0
    6.3981   -4.5715    0.0000 C   0  0  0  0  0  0  0  0  0  0  0  0
    7.2641   -3.0715    0.0000 C   0  0  0  0  0  0  0  0  0  0  0  0
    2.9061   -1.5368    0.0000 C   0  0  0  0  0  0  0  0  0  0  0  0
    7.2641   -5.0715    0.0000 C   0  0  0  0  0  0  0  0  0  0  0  0
    8.1301   -3.5715    0.0000 C   0  0  0  0  0  0  0  0  0  0  0  0
    3.2691    4.2625    0.0000 C   0  0  0  0  0  0  0  0  0  0  0  0
    2.9061   -3.6062    0.0000 C   0  0  0  0  0  0  0  0  0  0  0  0
    2.0000   -2.0507    0.0000 C   0  0  0  0  0  0  0  0  0  0  0  0
    2.0000   -3.0923    0.0000 C   0  0  0  0  0  0  0  0  0  0  0  0
    8.9962   -5.0715    0.0000 C   0  0  0  0  0  0  0  0  0  0  0  0
    2.6813    5.0715    0.0000 C   0  0  0  0  0  0  0  0  0  0  0  0
    2.4601    3.6747    0.0000 C   0  0  0  0  0  0  0  0  0  0  0  0
    4.0781    4.8503    0.0000 C   0  0  0  0  0  0  0  0  0  0  0  0
   10.6462    0.1279    0.0000 H   0  0  0  0  0  0  0  0  0  0  0  0
    9.8868    0.6941    0.0000 H   0  0  0  0  0  0  0  0  0  0  0  0
    9.0191    0.3077    0.0000 H   0  0  0  0  0  0  0  0  0  0  0  0
    8.1516   -1.2548    0.0000 H   0  0  0  0  0  0  0  0  0  0  0  0
   11.6708   -1.1219    0.0000 H   0  0  0  0  0  0  0  0  0  0  0  0
    7.4524    0.7849    0.0000 H   0  0  0  0  0  0  0  0  0  0  0  0
    6.1356   -1.0152    0.0000 H   0  0  0  0  0  0  0  0  0  0  0  0
    6.9472   -0.8427    0.0000 H   0  0  0  0  0  0  0  0  0  0  0  0
    5.5645   -0.6906    0.0000 H   0  0  0  0  0  0  0  0  0  0  0  0
    5.5718    1.5396    0.0000 H   0  0  0  0  0  0  0  0  0  0  0  0
    5.0166    0.9230    0.0000 H   0  0  0  0  0  0  0  0  0  0  0  0
   12.6230    0.1887    0.0000 H   0  0  0  0  0  0  0  0  0  0  0  0
   11.7542    0.8199    0.0000 H   0  0  0  0  0  0  0  0  0  0  0  0
    6.0693    3.3551    0.0000 H   0  0  0  0  0  0  0  0  0  0  0  0
   11.1640   -2.4422    0.0000 H   0  0  0  0  0  0  0  0  0  0  0  0
    5.1870    2.1826    0.0000 H   0  0  0  0  0  0  0  0  0  0  0  0
    7.8136    4.4284    0.0000 H   0  0  0  0  0  0  0  0  0  0  0  0
    7.4993    5.2470    0.0000 H   0  0  0  0  0  0  0  0  0  0  0  0
    6.6808    4.9328    0.0000 H   0  0  0  0  0  0  0  0  0  0  0  0
    6.1791    4.7402    0.0000 H   0  0  0  0  0  0  0  0  0  0  0  0
    5.3605    4.4260    0.0000 H   0  0  0  0  0  0  0  0  0  0  0  0
    5.6747    3.6074    0.0000 H   0  0  0  0  0  0  0  0  0  0  0  0
    7.5018    2.7939    0.0000 H   0  0  0  0  0  0  0  0  0  0  0  0
    8.3204    3.1081    0.0000 H   0  0  0  0  0  0  0  0  0  0  0  0
    8.0062    3.9267    0.0000 H   0  0  0  0  0  0  0  0  0  0  0  0
    6.0690   -1.7615    0.0000 H   0  0  0  0  0  0  0  0  0  0  0  0
    5.7875   -4.4638    0.0000 H   0  0  0  0  0  0  0  0  0  0  0  0
    6.1860   -5.1541    0.0000 H   0  0  0  0  0  0  0  0  0  0  0  0
    7.6626   -2.5966    0.0000 H   0  0  0  0  0  0  0  0  0  0  0  0
    6.8656   -2.5966    0.0000 H   0  0  0  0  0  0  0  0  0  0  0  0
    2.9132   -0.9169    0.0000 H   0  0  0  0  0  0  0  0  0  0  0  0
    6.8656   -5.5464    0.0000 H   0  0  0  0  0  0  0  0  0  0  0  0
    7.6626   -5.5464    0.0000 H   0  0  0  0  0  0  0  0  0  0  0  0
    8.7407   -3.6792    0.0000 H   0  0  0  0  0  0  0  0  0  0  0  0
    8.3422   -2.9889    0.0000 H   0  0  0  0  0  0  0  0  0  0  0  0
    2.9132   -4.2261    0.0000 H   0  0  0  0  0  0  0  0  0  0  0  0
    1.4643   -1.7386    0.0000 H   0  0  0  0  0  0  0  0  0  0  0  0
    1.4643   -3.4044    0.0000 H   0  0  0  0  0  0  0  0  0  0  0  0
    8.6862   -5.6084    0.0000 H   0  0  0  0  0  0  0  0  0  0  0  0
    9.5331   -5.3815    0.0000 H   0  0  0  0  0  0  0  0  0  0  0  0
    9.3062   -4.5346    0.0000 H   0  0  0  0  0  0  0  0  0  0  0  0
    3.1829    5.4359    0.0000 H   0  0  0  0  0  0  0  0  0  0  0  0
    2.3169    5.5731    0.0000 H   0  0  0  0  0  0  0  0  0  0  0  0
    2.1797    4.7071    0.0000 H   0  0  0  0  0  0  0  0  0  0  0  0
    2.0956    4.1763    0.0000 H   0  0  0  0  0  0  0  0  0  0  0  0
    1.9585    3.3103    0.0000 H   0  0  0  0  0  0  0  0  0  0  0  0
    2.8245    3.1731    0.0000 H   0  0  0  0  0  0  0  0  0  0  0  0
    4.4425    4.3487    0.0000 H   0  0  0  0  0  0  0  0  0  0  0  0
    4.5797    5.2147    0.0000 H   0  0  0  0  0  0  0  0  0  0  0  0
    3.7137    5.3518    0.0000 H   0  0  0  0  0  0  0  0  0  0  0  0
  1 17  1  0  0  0  0
  1 64  1  0  0  0  0
  2 17  2  0  0  0  0
 22  3  1  1  0  0  0
  3 31  1  0  0  0  0
  4 20  2  0  0  0  0
  5 24  2  0  0  0  0
  6 34  1  0  0  0  0
  6 42  1  0  0  0  0
  7 34  2  0  0  0  0
  8 14  1  0  0  0  0
  8 20  1  0  0  0  0
  8 53  1  0  0  0  0
  9 19  1  0  0  0  0
  9 23  1  0  0  0  0
  9 24  1  0  0  0  0
 26 10  1  1  0  0  0
 10 34  1  0  0  0  0
 10 65  1  0  0  0  0
 11 35  1  0  0  0  0
 11 37  1  0  0  0  0
 11 38  1  0  0  0  0
 12 35  2  0  0  0  0
 12 36  1  0  0  0  0
 13 40  1  0  0  0  0
 13 41  1  0  0  0  0
 13 46  1  0  0  0  0
 14 15  1  0  0  0  0
 14 16  1  0  0  0  0
 14 17  1  0  0  0  0
 15 16  1  0  0  0  0
 15 18  1  6  0  0  0
 15 50  1  0  0  0  0
 16 51  1  0  0  0  0
 16 52  1  0  0  0  0
 18 25  2  0  0  0  0
 18 54  1  0  0  0  0
 19 20  1  6  0  0  0
 19 21  1  0  0  0  0
 19 55  1  0  0  0  0
 21 22  1  0  0  0  0
 21 56  1  0  0  0  0
 21 57  1  0  0  0  0
 22 23  1  0  0  0  0
 22 58  1  0  0  0  0
 23 59  1  0  0  0  0
 23 60  1  0  0  0  0
 24 26  1  0  0  0  0
 25 61  1  0  0  0  0
 25 62  1  0  0  0  0
 26 27  1  0  0  0  0
 26 63  1  0  0  0  0
 27 28  1  0  0  0  0
 27 29  1  0  0  0  0
 27 30  1  0  0  0  0
 28 66  1  0  0  0  0
 28 67  1  0  0  0  0
 28 68  1  0  0  0  0
 29 69  1  0  0  0  0
 29 70  1  0  0  0  0
 29 71  1  0  0  0  0
 30 72  1  0  0  0  0
 30 73  1  0  0  0  0
 30 74  1  0  0  0  0
 31 32  1  0  0  0  0
 31 33  2  0  0  0  0
 32 36  1  0  0  0  0
 32 39  2  0  0  0  0
 33 35  1  0  0  0  0
 33 75  1  0  0  0  0
 36 43  2  0  0  0  0
 37 40  1  0  0  0  0
 37 76  1  0  0  0  0
 37 77  1  0  0  0  0
 38 41  1  0  0  0  0
 38 78  1  0  0  0  0
 38 79  1  0  0  0  0
 39 44  1  0  0  0  0
 39 80  1  0  0  0  0
 40 81  1  0  0  0  0
 40 82  1  0  0  0  0
 41 83  1  0  0  0  0
 41 84  1  0  0  0  0
 42 47  1  0  0  0  0
 42 48  1  0  0  0  0
 42 49  1  0  0  0  0
 43 45  1  0  0  0  0
 43 85  1  0  0  0  0
 44 45  2  0  0  0  0
 44 86  1  0  0  0  0
 45 87  1  0  0  0  0
 46 88  1  0  0  0  0
 46 89  1  0  0  0  0
 46 90  1  0  0  0  0
 47 91  1  0  0  0  0
 47 92  1  0  0  0  0
 47 93  1  0  0  0  0
 48 94  1  0  0  0  0
 48 95  1  0  0  0  0
 48 96  1  0  0  0  0
 49 97  1  0  0  0  0
 49 98  1  0  0  0  0
 49 99  1  0  0  0  0
M  END
> <PUBCHEM_COMPOUND_CID>
500707
> <PUBCHEM_COMPOUND_CANONICALIZED>
1
> <PUBCHEM_CACTVS_COMPLEXITY>
1260
> <PUBCHEM_CACTVS_HBOND_ACCEPTOR>
10
> <PUBCHEM_CACTVS_HBOND_DONOR>
3
> <PUBCHEM_CACTVS_ROTATABLE_BOND>
12
> <PUBCHEM_CACTVS_SUBSKEYS>
AAADcfB/uAAAAAAAAAAAAAAAGAAAAWAAAAA8WIAAAAAAAACx8AAAHgAQCAAAD/zhngYz/vPIFgCoAyfyfACCiCkhIiAJmKG+bJmOZvLEubufeCju1hvY6Ce6waAPAAAAAAACAAAAAAAAAAQAAAAAAAAAAA==
> <PUBCHEM_IUPAC_OPENEYE_NAME>
(2R)-1-[[(2S,4R)-1-[(2S)-2-(tert-butoxycarbonylamino)-3,3-dimethyl-butanoyl]-4-[[2-(4-methylpiperazin-1-yl)-4-quinolyl]oxy]pyrrolidine-2-carbonyl]amino]-2-vinyl-cyclopropanecarboxylic acid
> <PUBCHEM_IUPAC_CAS_NAME>
(2R)-1-[[[(2S,4R)-1-[(2S)-3,3-dimethyl-2-[[(2-methylpropan-2-yl)oxy-oxomethyl]amino]-1-oxobutyl]-4-[[2-(4-methyl-1-piperazinyl)-4-quinolinyl]oxy]-2-pyrrolidinyl]-oxomethyl]amino]-2-ethenyl-1-cyclopropanecarboxylic acid
> <PUBCHEM_IUPAC_NAME_MARKUP>
(2<I>R</I>)-1-[[(2<I>S</I>,4<I>R</I>)-1-[(2<I>S</I>)-3,3-dimethyl-2-[(2-methylpropan-2-yl)oxycarbonylamino]butanoyl]-4-[2-(4-methylpiperazin-1-yl)quinolin-4-yl]oxypyrrolidine-2-carbonyl]amino]-2-ethenylcyclopropane-1-carboxylic acid
> <PUBCHEM_IUPAC_NAME>
(2R)-1-[[(2S,4R)-1-[(2S)-3,3-dimethyl-2-[(2-methylpropan-2-yl)oxycarbonylamino]butanoyl]-4-[2-(4-methylpiperazin-1-yl)quinolin-4-yl]oxypyrrolidine-2-carbonyl]amino]-2-ethenylcyclopropane-1-carboxylic acid
> <PUBCHEM_IUPAC_SYSTEMATIC_NAME>
(2R)-1-[[(2S,4R)-1-[(2S)-3,3-dimethyl-2-[(2-methylpropan-2-yl)oxycarbonylamino]butanoyl]-4-[2-(4-methylpiperazin-1-yl)quinolin-4-yl]oxy-pyrrolidin-2-yl]carbonylamino]-2-ethenyl-cyclopropane-1-carboxylic acid
> <PUBCHEM_IUPAC_TRADITIONAL_NAME>
(2R)-1-[[(2S,4R)-1-[(2S)-2-(tert-butoxycarbonylamino)-3,3-dimethyl-butanoyl]-4-[[2-(4-methylpiperazino)-4-quinolyl]oxy]prolyl]amino]-2-vinyl-cyclopropanecarboxylic acid
> <PUBCHEM_IUPAC_INCHI>
InChI=1S/C36H50N6O7/c1-9-22-20-36(22,32(45)46)39-30(43)26-18-23(21-42(26)31(44)29(34(2,3)4)38-33(47)49-35(5,6)7)48-27-19-28(41-16-14-40(8)15-17-41)37-25-13-11-10-12-24(25)27/h9-13,19,22-23,26,29H,1,14-18,20-21H2,2-8H3,(H,38,47)(H,39,43)(H,45,46)/t22-,23+,26-,29+,36?/m0/s1
> <PUBCHEM_IUPAC_INCHIKEY>
NHEKMXHNMMJMMY-GJGGEEINSA-N
> <PUBCHEM_XLOGP3_AA>
2.2
> <PUBCHEM_EXACT_MASS>
678.37409796
> <PUBCHEM_MOLECULAR_FORMULA>
C36H50N6O7
> <PUBCHEM_MOLECULAR_WEIGHT>
678.8
> <PUBCHEM_OPENEYE_CAN_SMILES>
CC(C)(C)C(C(=O)N1CC(CC1C(=O)NC2(CC2C=C)C(=O)O)OC3=CC(=NC4=CC=CC=C43)N5CCN(CC5)C)NC(=O)OC(C)(C)C
> <PUBCHEM_OPENEYE_ISO_SMILES>
CC(C)(C)[C@@H](C(=O)N1C[C@@H](C[C@H]1C(=O)NC2(C[C@@H]2C=C)C(=O)O)OC3=CC(=NC4=CC=CC=C43)N5CCN(CC5)C)NC(=O)OC(C)(C)C
> <PUBCHEM_CACTVS_TPSA>
154
> <PUBCHEM_MONOISOTOPIC_WEIGHT>
678.37409796
> <PUBCHEM_TOTAL_CHARGE>
0
> <PUBCHEM_HEAVY_ATOM_COUNT>
49
> <PUBCHEM_ATOM_DEF_STEREO_COUNT>
4
> <PUBCHEM_ATOM_UDEF_STEREO_COUNT>
1
> <PUBCHEM_BOND_DEF_STEREO_COUNT>
0
> <PUBCHEM_BOND_UDEF_STEREO_COUNT>
0
> <PUBCHEM_ISOTOPIC_ATOM_COUNT>
0
> <PUBCHEM_COMPONENT_COUNT>
1
> <PUBCHEM_CACTVS_TAUTO_COUNT>
-1
> <PUBCHEM_COORDINATE_TYPE>
1
5
255
> <PUBCHEM_BONDANNOTATIONS>
26  10  5
12  35  8
12  36  8
14  17  3
15  18  6
19  20  6
22  3  5
31  32  8
31  33  8
32  36  8
32  39  8
33  35  8
36  43  8
39  44  8
43  45  8
44  45  8
$$$$
