500758
  -OEChem-10302200282D
 86 90  0     1  0  0  0  0  0999 V2000
   12.8249    0.0423    0.0000 O   0  0  0  0  0  0  0  0  0  0  0  0
   11.4236    1.0603    0.0000 O   0  0  0  0  0  0  0  0  0  0  0  0
    6.3981   -0.3760    0.0000 O   0  0  0  0  0  0  0  0  0  0  0  0
   10.4291    1.1648    0.0000 O   0  0  0  0  0  0  0  0  0  0  0  0
    9.7480    2.3445    0.0000 O   0  0  0  0  0  0  0  0  0  0  0  0
    5.5889    3.6489    0.0000 O   0  0  0  0  0  0  0  0  0  0  0  0
    2.8680   -3.4002    0.0000 O   0  0  0  0  0  0  0  0  0  0  0  0
   10.2480   -0.5577    0.0000 N   0  0  0  0  0  0  0  0  0  0  0  0
    8.3468    1.3264    0.0000 N   0  0  0  0  0  0  0  0  0  0  0  0
    7.1712    2.9444    0.0000 N   0  0  0  0  0  0  0  0  0  0  0  0
    6.3981   -3.3760    0.0000 N   0  0  0  0  0  0  0  0  0  0  0  0
   11.2426   -0.6622    0.0000 C   0  0  3  0  0  0  0  0  0  0  0  0
   11.1380   -1.6568    0.0000 C   0  0  2  0  0  0  0  0  0  0  0  0
   12.0516   -1.2500    0.0000 C   0  0  0  0  0  0  0  0  0  0  0  0
   11.8303    0.1468    0.0000 C   0  0  0  0  0  0  0  0  0  0  0  0
   10.5502   -2.4658    0.0000 C   0  0  0  0  0  0  0  0  0  0  0  0
    8.8468    0.4604    0.0000 C   0  0  2  0  0  0  0  0  0  0  0  0
    9.8413    0.3558    0.0000 C   0  0  0  0  0  0  0  0  0  0  0  0
    8.1776   -0.2828    0.0000 C   0  0  0  0  0  0  0  0  0  0  0  0
    7.2641    0.1240    0.0000 C   0  0  2  0  0  0  0  0  0  0  0  0
    7.3686    1.1185    0.0000 C   0  0  0  0  0  0  0  0  0  0  0  0
    8.7535    2.2399    0.0000 C   0  0  0  0  0  0  0  0  0  0  0  0
    8.1657    3.0490    0.0000 C   0  0  2  0  0  0  0  0  0  0  0  0
   10.9570   -3.3793    0.0000 C   0  0  0  0  0  0  0  0  0  0  0  0
    8.5725    3.9625    0.0000 C   0  0  0  0  0  0  0  0  0  0  0  0
    8.9792    4.8760    0.0000 C   0  0  0  0  0  0  0  0  0  0  0  0
    7.6589    4.3692    0.0000 C   0  0  0  0  0  0  0  0  0  0  0  0
    9.4860    3.5558    0.0000 C   0  0  0  0  0  0  0  0  0  0  0  0
    6.3981   -1.3760    0.0000 C   0  0  0  0  0  0  0  0  0  0  0  0
    6.5834    3.7534    0.0000 C   0  0  0  0  0  0  0  0  0  0  0  0
    5.5320   -1.8760    0.0000 C   0  0  0  0  0  0  0  0  0  0  0  0
    7.2641   -1.8760    0.0000 C   0  0  0  0  0  0  0  0  0  0  0  0
    5.5320   -2.8760    0.0000 C   0  0  0  0  0  0  0  0  0  0  0  0
    7.2641   -2.8760    0.0000 C   0  0  0  0  0  0  0  0  0  0  0  0
    6.9902    4.6670    0.0000 C   0  0  0  0  0  0  0  0  0  0  0  0
    4.6381   -1.3414    0.0000 C   0  0  0  0  0  0  0  0  0  0  0  0
    4.6381   -3.4107    0.0000 C   0  0  0  0  0  0  0  0  0  0  0  0
    3.7320   -1.8552    0.0000 C   0  0  0  0  0  0  0  0  0  0  0  0
    8.1301   -3.3760    0.0000 C   0  0  0  0  0  0  0  0  0  0  0  0
    3.7320   -2.8969    0.0000 C   0  0  0  0  0  0  0  0  0  0  0  0
    8.1301   -4.3760    0.0000 C   0  0  0  0  0  0  0  0  0  0  0  0
    8.9962   -2.8760    0.0000 C   0  0  0  0  0  0  0  0  0  0  0  0
    8.9962   -4.8760    0.0000 C   0  0  0  0  0  0  0  0  0  0  0  0
    9.8622   -3.3760    0.0000 C   0  0  0  0  0  0  0  0  0  0  0  0
    9.8622   -4.3760    0.0000 C   0  0  0  0  0  0  0  0  0  0  0  0
    2.0000   -2.9035    0.0000 C   0  0  0  0  0  0  0  0  0  0  0  0
   10.5592   -1.4346    0.0000 H   0  0  0  0  0  0  0  0  0  0  0  0
   12.3983   -1.7640    0.0000 H   0  0  0  0  0  0  0  0  0  0  0  0
   12.4976   -0.8193    0.0000 H   0  0  0  0  0  0  0  0  0  0  0  0
    9.8836   -1.0593    0.0000 H   0  0  0  0  0  0  0  0  0  0  0  0
    9.1844    0.9803    0.0000 H   0  0  0  0  0  0  0  0  0  0  0  0
    9.9336   -2.4010    0.0000 H   0  0  0  0  0  0  0  0  0  0  0  0
    7.8676   -0.8197    0.0000 H   0  0  0  0  0  0  0  0  0  0  0  0
    8.6792   -0.6472    0.0000 H   0  0  0  0  0  0  0  0  0  0  0  0
    6.7441    0.4616    0.0000 H   0  0  0  0  0  0  0  0  0  0  0  0
    7.3038    1.7351    0.0000 H   0  0  0  0  0  0  0  0  0  0  0  0
    6.7486    1.1185    0.0000 H   0  0  0  0  0  0  0  0  0  0  0  0
    7.8013    3.5505    0.0000 H   0  0  0  0  0  0  0  0  0  0  0  0
   10.5926   -3.8809    0.0000 H   0  0  0  0  0  0  0  0  0  0  0  0
   11.5736   -3.4441    0.0000 H   0  0  0  0  0  0  0  0  0  0  0  0
   13.1893    0.5438    0.0000 H   0  0  0  0  0  0  0  0  0  0  0  0
    6.9190    2.3780    0.0000 H   0  0  0  0  0  0  0  0  0  0  0  0
    9.5456    4.6239    0.0000 H   0  0  0  0  0  0  0  0  0  0  0  0
    9.2314    5.4424    0.0000 H   0  0  0  0  0  0  0  0  0  0  0  0
    8.4128    5.1282    0.0000 H   0  0  0  0  0  0  0  0  0  0  0  0
    7.9111    4.9356    0.0000 H   0  0  0  0  0  0  0  0  0  0  0  0
    7.0925    4.6214    0.0000 H   0  0  0  0  0  0  0  0  0  0  0  0
    7.4067    3.8028    0.0000 H   0  0  0  0  0  0  0  0  0  0  0  0
    9.2338    2.9894    0.0000 H   0  0  0  0  0  0  0  0  0  0  0  0
   10.0524    3.3036    0.0000 H   0  0  0  0  0  0  0  0  0  0  0  0
    9.7382    4.1222    0.0000 H   0  0  0  0  0  0  0  0  0  0  0  0
    7.8010   -1.5660    0.0000 H   0  0  0  0  0  0  0  0  0  0  0  0
    7.5566    4.4148    0.0000 H   0  0  0  0  0  0  0  0  0  0  0  0
    7.2423    5.2334    0.0000 H   0  0  0  0  0  0  0  0  0  0  0  0
    6.4238    4.9192    0.0000 H   0  0  0  0  0  0  0  0  0  0  0  0
    4.6453   -0.7214    0.0000 H   0  0  0  0  0  0  0  0  0  0  0  0
    4.6453   -4.0307    0.0000 H   0  0  0  0  0  0  0  0  0  0  0  0
    3.1963   -1.5432    0.0000 H   0  0  0  0  0  0  0  0  0  0  0  0
    7.5932   -4.6860    0.0000 H   0  0  0  0  0  0  0  0  0  0  0  0
    8.9962   -2.2560    0.0000 H   0  0  0  0  0  0  0  0  0  0  0  0
    8.9962   -5.4960    0.0000 H   0  0  0  0  0  0  0  0  0  0  0  0
   10.3991   -3.0660    0.0000 H   0  0  0  0  0  0  0  0  0  0  0  0
   10.3991   -4.6860    0.0000 H   0  0  0  0  0  0  0  0  0  0  0  0
    2.3079   -2.3654    0.0000 H   0  0  0  0  0  0  0  0  0  0  0  0
    1.4619   -2.5956    0.0000 H   0  0  0  0  0  0  0  0  0  0  0  0
    1.6921   -3.4417    0.0000 H   0  0  0  0  0  0  0  0  0  0  0  0
  1 15  1  0  0  0  0
  1 61  1  0  0  0  0
  2 15  2  0  0  0  0
 20  3  1  1  0  0  0
  3 29  1  0  0  0  0
  4 18  2  0  0  0  0
  5 22  2  0  0  0  0
  6 30  2  0  0  0  0
  7 40  1  0  0  0  0
  7 46  1  0  0  0  0
  8 12  1  0  0  0  0
  8 18  1  0  0  0  0
  8 50  1  0  0  0  0
  9 17  1  0  0  0  0
  9 21  1  0  0  0  0
  9 22  1  0  0  0  0
 23 10  1  1  0  0  0
 10 30  1  0  0  0  0
 10 62  1  0  0  0  0
 11 33  1  0  0  0  0
 11 34  2  0  0  0  0
 12 13  1  0  0  0  0
 12 14  1  0  0  0  0
 12 15  1  0  0  0  0
 13 14  1  0  0  0  0
 13 16  1  6  0  0  0
 13 47  1  0  0  0  0
 14 48  1  0  0  0  0
 14 49  1  0  0  0  0
 16 24  2  0  0  0  0
 16 52  1  0  0  0  0
 17 18  1  6  0  0  0
 17 19  1  0  0  0  0
 17 51  1  0  0  0  0
 19 20  1  0  0  0  0
 19 53  1  0  0  0  0
 19 54  1  0  0  0  0
 20 21  1  0  0  0  0
 20 55  1  0  0  0  0
 21 56  1  0  0  0  0
 21 57  1  0  0  0  0
 22 23  1  0  0  0  0
 23 25  1  0  0  0  0
 23 58  1  0  0  0  0
 24 59  1  0  0  0  0
 24 60  1  0  0  0  0
 25 26  1  0  0  0  0
 25 27  1  0  0  0  0
 25 28  1  0  0  0  0
 26 63  1  0  0  0  0
 26 64  1  0  0  0  0
 26 65  1  0  0  0  0
 27 66  1  0  0  0  0
 27 67  1  0  0  0  0
 27 68  1  0  0  0  0
 28 69  1  0  0  0  0
 28 70  1  0  0  0  0
 28 71  1  0  0  0  0
 29 31  1  0  0  0  0
 29 32  2  0  0  0  0
 30 35  1  0  0  0  0
 31 33  2  0  0  0  0
 31 36  1  0  0  0  0
 32 34  1  0  0  0  0
 32 72  1  0  0  0  0
 33 37  1  0  0  0  0
 34 39  1  0  0  0  0
 35 73  1  0  0  0  0
 35 74  1  0  0  0  0
 35 75  1  0  0  0  0
 36 38  2  0  0  0  0
 36 76  1  0  0  0  0
 37 40  2  0  0  0  0
 37 77  1  0  0  0  0
 38 40  1  0  0  0  0
 38 78  1  0  0  0  0
 39 41  2  0  0  0  0
 39 42  1  0  0  0  0
 41 43  1  0  0  0  0
 41 79  1  0  0  0  0
 42 44  2  0  0  0  0
 42 80  1  0  0  0  0
 43 45  2  0  0  0  0
 43 81  1  0  0  0  0
 44 45  1  0  0  0  0
 44 82  1  0  0  0  0
 45 83  1  0  0  0  0
 46 84  1  0  0  0  0
 46 85  1  0  0  0  0
 46 86  1  0  0  0  0
M  END
> <PUBCHEM_COMPOUND_CID>
500758
> <PUBCHEM_COMPOUND_CANONICALIZED>
1
> <PUBCHEM_CACTVS_COMPLEXITY>
1170
> <PUBCHEM_CACTVS_HBOND_ACCEPTOR>
8
> <PUBCHEM_CACTVS_HBOND_DONOR>
3
> <PUBCHEM_CACTVS_ROTATABLE_BOND>
11
> <PUBCHEM_CACTVS_SUBSKEYS>
AAADcfB/uAAAAAAAAAAAAAAAGAAAAWAAAAA8YIAAAAAAAACx9AAAHgAQCAAAD7zhngYyzvPIFgCoAyXyXACCiCAhIiAImKG+bJgOZvLEsbuXeCjm1hnY6Ae68e8PIAAAAgACAABAAAAEAAQAAAAAAAAAAA==
> <PUBCHEM_IUPAC_OPENEYE_NAME>
(2R)-1-[[(2S,4R)-1-[(2S)-2-acetamido-3,3-dimethyl-butanoyl]-4-[(7-methoxy-2-phenyl-4-quinolyl)oxy]pyrrolidine-2-carbonyl]amino]-2-vinyl-cyclopropanecarboxylic acid
> <PUBCHEM_IUPAC_CAS_NAME>
(2R)-1-[[[(2S,4R)-1-[(2S)-2-acetamido-3,3-dimethyl-1-oxobutyl]-4-[(7-methoxy-2-phenyl-4-quinolinyl)oxy]-2-pyrrolidinyl]-oxomethyl]amino]-2-ethenyl-1-cyclopropanecarboxylic acid
> <PUBCHEM_IUPAC_NAME_MARKUP>
(2<I>R</I>)-1-[[(2<I>S</I>,4<I>R</I>)-1-[(2<I>S</I>)-2-acetamido-3,3-dimethylbutanoyl]-4-(7-methoxy-2-phenylquinolin-4-yl)oxypyrrolidine-2-carbonyl]amino]-2-ethenylcyclopropane-1-carboxylic acid
> <PUBCHEM_IUPAC_NAME>
(2R)-1-[[(2S,4R)-1-[(2S)-2-acetamido-3,3-dimethylbutanoyl]-4-(7-methoxy-2-phenylquinolin-4-yl)oxypyrrolidine-2-carbonyl]amino]-2-ethenylcyclopropane-1-carboxylic acid
> <PUBCHEM_IUPAC_SYSTEMATIC_NAME>
(2R)-1-[[(2S,4R)-1-[(2S)-2-acetamido-3,3-dimethyl-butanoyl]-4-(7-methoxy-2-phenyl-quinolin-4-yl)oxy-pyrrolidin-2-yl]carbonylamino]-2-ethenyl-cyclopropane-1-carboxylic acid
> <PUBCHEM_IUPAC_TRADITIONAL_NAME>
(2R)-1-[[(2S,4R)-1-[(2S)-2-acetamido-3,3-dimethyl-butanoyl]-4-[(7-methoxy-2-phenyl-4-quinolyl)oxy]prolyl]amino]-2-vinyl-cyclopropanecarboxylic acid
> <PUBCHEM_IUPAC_INCHI>
InChI=1S/C35H40N4O7/c1-7-22-18-35(22,33(43)44)38-31(41)28-16-24(19-39(28)32(42)30(34(3,4)5)36-20(2)40)46-29-17-26(21-11-9-8-10-12-21)37-27-15-23(45-6)13-14-25(27)29/h7-15,17,22,24,28,30H,1,16,18-19H2,2-6H3,(H,36,40)(H,38,41)(H,43,44)/t22-,24+,28-,30+,35?/m0/s1
> <PUBCHEM_IUPAC_INCHIKEY>
MNYXDJGDVOFFCS-WWCLRGDYSA-N
> <PUBCHEM_XLOGP3_AA>
4.5
> <PUBCHEM_EXACT_MASS>
628.28969963
> <PUBCHEM_MOLECULAR_FORMULA>
C35H40N4O7
> <PUBCHEM_MOLECULAR_WEIGHT>
628.7
> <PUBCHEM_OPENEYE_CAN_SMILES>
CC(=O)NC(C(=O)N1CC(CC1C(=O)NC2(CC2C=C)C(=O)O)OC3=CC(=NC4=C3C=CC(=C4)OC)C5=CC=CC=C5)C(C)(C)C
> <PUBCHEM_OPENEYE_ISO_SMILES>
CC(=O)N[C@H](C(=O)N1C[C@@H](C[C@H]1C(=O)NC2(C[C@@H]2C=C)C(=O)O)OC3=CC(=NC4=C3C=CC(=C4)OC)C5=CC=CC=C5)C(C)(C)C
> <PUBCHEM_CACTVS_TPSA>
147
> <PUBCHEM_MONOISOTOPIC_WEIGHT>
628.28969963
> <PUBCHEM_TOTAL_CHARGE>
0
> <PUBCHEM_HEAVY_ATOM_COUNT>
46
> <PUBCHEM_ATOM_DEF_STEREO_COUNT>
4
> <PUBCHEM_ATOM_UDEF_STEREO_COUNT>
1
> <PUBCHEM_BOND_DEF_STEREO_COUNT>
0
> <PUBCHEM_BOND_UDEF_STEREO_COUNT>
0
> <PUBCHEM_ISOTOPIC_ATOM_COUNT>
0
> <PUBCHEM_COMPONENT_COUNT>
1
> <PUBCHEM_CACTVS_TAUTO_COUNT>
-1
> <PUBCHEM_COORDINATE_TYPE>
1
5
255
> <PUBCHEM_BONDANNOTATIONS>
23  10  5
11  33  8
11  34  8
12  15  3
13  16  6
17  18  6
29  31  8
29  32  8
20  3  5
31  33  8
31  36  8
32  34  8
33  37  8
36  38  8
37  40  8
38  40  8
39  41  8
39  42  8
41  43  8
42  44  8
43  45  8
44  45  8
$$$$
