500796
  -OEChem-10302200282D
101105  0     1  0  0  0  0  0999 V2000
    9.9737    5.3817    0.0000 O   0  0  0  0  0  0  0  0  0  0  0  0
   10.1548    3.6592    0.0000 O   0  0  0  0  0  0  0  0  0  0  0  0
    6.3981    0.0251    0.0000 O   0  0  0  0  0  0  0  0  0  0  0  0
    9.7480    2.7456    0.0000 O   0  0  0  0  0  0  0  0  0  0  0  0
   10.4291    1.5660    0.0000 O   0  0  0  0  0  0  0  0  0  0  0  0
   11.0615   -1.9836    0.0000 O   0  0  0  0  0  0  0  0  0  0  0  0
    2.8680   -2.9990    0.0000 O   0  0  0  0  0  0  0  0  0  0  0  0
   10.7282   -4.4749    0.0000 O   0  0  0  0  0  0  0  0  0  0  0  0
    8.1657    3.4501    0.0000 N   0  0  0  0  0  0  0  0  0  0  0  0
    8.8468    0.8615    0.0000 N   0  0  0  0  0  0  0  0  0  0  0  0
   11.2426   -0.2611    0.0000 N   0  0  0  0  0  0  0  0  0  0  0  0
   12.6438   -1.2792    0.0000 N   0  0  0  0  0  0  0  0  0  0  0  0
    6.3981   -2.9749    0.0000 N   0  0  0  0  0  0  0  0  0  0  0  0
    8.5725    4.3637    0.0000 C   0  0  3  0  0  0  0  0  0  0  0  0
    7.6589    4.7704    0.0000 C   0  0  2  0  0  0  0  0  0  0  0  0
    8.4679    5.3582    0.0000 C   0  0  0  0  0  0  0  0  0  0  0  0
    9.5670    4.4682    0.0000 C   0  0  0  0  0  0  0  0  0  0  0  0
    6.6644    4.6659    0.0000 C   0  0  0  0  0  0  0  0  0  0  0  0
    8.3468    1.7276    0.0000 C   0  0  2  0  0  0  0  0  0  0  0  0
    8.7535    2.6411    0.0000 C   0  0  0  0  0  0  0  0  0  0  0  0
    7.3686    1.5196    0.0000 C   0  0  0  0  0  0  0  0  0  0  0  0
    7.2641    0.5251    0.0000 C   0  0  2  0  0  0  0  0  0  0  0  0
    8.1776    0.1184    0.0000 C   0  0  0  0  0  0  0  0  0  0  0  0
    9.8413    0.7570    0.0000 C   0  0  0  0  0  0  0  0  0  0  0  0
    6.0766    5.4749    0.0000 C   0  0  0  0  0  0  0  0  0  0  0  0
   10.2480   -0.1565    0.0000 C   0  0  2  0  0  0  0  0  0  0  0  0
    9.6602   -0.9656    0.0000 C   0  0  0  0  0  0  0  0  0  0  0  0
   10.4693   -1.5534    0.0000 C   0  0  0  0  0  0  0  0  0  0  0  0
    8.8512   -0.3778    0.0000 C   0  0  0  0  0  0  0  0  0  0  0  0
    9.0725   -1.7746    0.0000 C   0  0  0  0  0  0  0  0  0  0  0  0
    6.3981   -0.9749    0.0000 C   0  0  0  0  0  0  0  0  0  0  0  0
   11.6493   -1.1746    0.0000 C   0  0  0  0  0  0  0  0  0  0  0  0
    5.5320   -1.4749    0.0000 C   0  0  0  0  0  0  0  0  0  0  0  0
    7.2641   -1.4749    0.0000 C   0  0  0  0  0  0  0  0  0  0  0  0
   13.0505   -2.1927    0.0000 C   0  0  0  0  0  0  0  0  0  0  0  0
    5.5320   -2.4749    0.0000 C   0  0  0  0  0  0  0  0  0  0  0  0
    7.2641   -2.4749    0.0000 C   0  0  0  0  0  0  0  0  0  0  0  0
    4.6381   -0.9402    0.0000 C   0  0  0  0  0  0  0  0  0  0  0  0
    4.6381   -3.0095    0.0000 C   0  0  0  0  0  0  0  0  0  0  0  0
   13.4573   -3.1062    0.0000 C   0  0  0  0  0  0  0  0  0  0  0  0
   13.9641   -1.7860    0.0000 C   0  0  0  0  0  0  0  0  0  0  0  0
   12.1370   -2.5994    0.0000 C   0  0  0  0  0  0  0  0  0  0  0  0
    3.7320   -1.4541    0.0000 C   0  0  0  0  0  0  0  0  0  0  0  0
    8.1301   -2.9749    0.0000 C   0  0  0  0  0  0  0  0  0  0  0  0
    3.7320   -2.4957    0.0000 C   0  0  0  0  0  0  0  0  0  0  0  0
    8.9962   -2.4749    0.0000 C   0  0  0  0  0  0  0  0  0  0  0  0
    8.1301   -3.9749    0.0000 C   0  0  0  0  0  0  0  0  0  0  0  0
    9.8622   -2.9749    0.0000 C   0  0  0  0  0  0  0  0  0  0  0  0
    8.9962   -4.4749    0.0000 C   0  0  0  0  0  0  0  0  0  0  0  0
    9.8622   -3.9749    0.0000 C   0  0  0  0  0  0  0  0  0  0  0  0
    2.0000   -2.5024    0.0000 C   0  0  0  0  0  0  0  0  0  0  0  0
   10.7282   -5.4749    0.0000 C   0  0  0  0  0  0  0  0  0  0  0  0
    7.4367    5.3492    0.0000 H   0  0  0  0  0  0  0  0  0  0  0  0
    9.0639    5.5291    0.0000 H   0  0  0  0  0  0  0  0  0  0  0  0
    8.1961    5.9154    0.0000 H   0  0  0  0  0  0  0  0  0  0  0  0
    7.5491    3.3853    0.0000 H   0  0  0  0  0  0  0  0  0  0  0  0
    6.4122    4.0995    0.0000 H   0  0  0  0  0  0  0  0  0  0  0  0
    8.9659    1.7600    0.0000 H   0  0  0  0  0  0  0  0  0  0  0  0
    7.3038    2.1362    0.0000 H   0  0  0  0  0  0  0  0  0  0  0  0
    6.7486    1.5196    0.0000 H   0  0  0  0  0  0  0  0  0  0  0  0
    6.7441    0.8628    0.0000 H   0  0  0  0  0  0  0  0  0  0  0  0
    7.8676   -0.4186    0.0000 H   0  0  0  0  0  0  0  0  0  0  0  0
    8.6792   -0.2460    0.0000 H   0  0  0  0  0  0  0  0  0  0  0  0
    6.3288    6.0413    0.0000 H   0  0  0  0  0  0  0  0  0  0  0  0
    5.4600    5.4101    0.0000 H   0  0  0  0  0  0  0  0  0  0  0  0
   10.6125    0.3450    0.0000 H   0  0  0  0  0  0  0  0  0  0  0  0
   10.5903    5.4465    0.0000 H   0  0  0  0  0  0  0  0  0  0  0  0
   11.6070    0.2405    0.0000 H   0  0  0  0  0  0  0  0  0  0  0  0
   10.1048   -2.0549    0.0000 H   0  0  0  0  0  0  0  0  0  0  0  0
   10.9709   -1.9178    0.0000 H   0  0  0  0  0  0  0  0  0  0  0  0
   10.8337   -1.0518    0.0000 H   0  0  0  0  0  0  0  0  0  0  0  0
    9.2157    0.1238    0.0000 H   0  0  0  0  0  0  0  0  0  0  0  0
    8.3496   -0.0134    0.0000 H   0  0  0  0  0  0  0  0  0  0  0  0
    8.4868   -0.8794    0.0000 H   0  0  0  0  0  0  0  0  0  0  0  0
    8.5709   -1.4102    0.0000 H   0  0  0  0  0  0  0  0  0  0  0  0
    8.7080   -2.2762    0.0000 H   0  0  0  0  0  0  0  0  0  0  0  0
    9.5740   -2.1390    0.0000 H   0  0  0  0  0  0  0  0  0  0  0  0
    7.8010   -1.1649    0.0000 H   0  0  0  0  0  0  0  0  0  0  0  0
   13.0082   -0.7776    0.0000 H   0  0  0  0  0  0  0  0  0  0  0  0
    4.6453   -0.3203    0.0000 H   0  0  0  0  0  0  0  0  0  0  0  0
    4.6453   -3.6295    0.0000 H   0  0  0  0  0  0  0  0  0  0  0  0
   12.8909   -3.3584    0.0000 H   0  0  0  0  0  0  0  0  0  0  0  0
   13.7095   -3.6726    0.0000 H   0  0  0  0  0  0  0  0  0  0  0  0
   14.0237   -2.8541    0.0000 H   0  0  0  0  0  0  0  0  0  0  0  0
   14.2163   -2.3524    0.0000 H   0  0  0  0  0  0  0  0  0  0  0  0
   14.5305   -1.5338    0.0000 H   0  0  0  0  0  0  0  0  0  0  0  0
   13.7119   -1.2196    0.0000 H   0  0  0  0  0  0  0  0  0  0  0  0
   11.8848   -2.0330    0.0000 H   0  0  0  0  0  0  0  0  0  0  0  0
   11.5706   -2.8516    0.0000 H   0  0  0  0  0  0  0  0  0  0  0  0
   12.3892   -3.1658    0.0000 H   0  0  0  0  0  0  0  0  0  0  0  0
    3.1963   -1.1420    0.0000 H   0  0  0  0  0  0  0  0  0  0  0  0
    8.9962   -1.8549    0.0000 H   0  0  0  0  0  0  0  0  0  0  0  0
    7.5932   -4.2849    0.0000 H   0  0  0  0  0  0  0  0  0  0  0  0
   10.3991   -2.6649    0.0000 H   0  0  0  0  0  0  0  0  0  0  0  0
    8.9962   -5.0949    0.0000 H   0  0  0  0  0  0  0  0  0  0  0  0
    2.3079   -1.9642    0.0000 H   0  0  0  0  0  0  0  0  0  0  0  0
    1.4619   -2.1944    0.0000 H   0  0  0  0  0  0  0  0  0  0  0  0
    1.6921   -3.0405    0.0000 H   0  0  0  0  0  0  0  0  0  0  0  0
   10.1082   -5.4749    0.0000 H   0  0  0  0  0  0  0  0  0  0  0  0
   10.7282   -6.0949    0.0000 H   0  0  0  0  0  0  0  0  0  0  0  0
   11.3482   -5.4749    0.0000 H   0  0  0  0  0  0  0  0  0  0  0  0
  1 17  1  0  0  0  0
  1 67  1  0  0  0  0
  2 17  2  0  0  0  0
 22  3  1  6  0  0  0
  3 31  1  0  0  0  0
  4 20  2  0  0  0  0
  5 24  2  0  0  0  0
  6 32  2  0  0  0  0
  7 45  1  0  0  0  0
  7 51  1  0  0  0  0
  8 50  1  0  0  0  0
  8 52  1  0  0  0  0
  9 14  1  0  0  0  0
  9 20  1  0  0  0  0
  9 56  1  0  0  0  0
 10 19  1  0  0  0  0
 10 23  1  0  0  0  0
 10 24  1  0  0  0  0
 26 11  1  1  0  0  0
 11 32  1  0  0  0  0
 11 68  1  0  0  0  0
 12 32  1  0  0  0  0
 12 35  1  0  0  0  0
 12 79  1  0  0  0  0
 13 36  1  0  0  0  0
 13 37  2  0  0  0  0
 14 15  1  0  0  0  0
 14 16  1  0  0  0  0
 14 17  1  0  0  0  0
 15 16  1  0  0  0  0
 15 18  1  1  0  0  0
 15 53  1  0  0  0  0
 16 54  1  0  0  0  0
 16 55  1  0  0  0  0
 18 25  2  0  0  0  0
 18 57  1  0  0  0  0
 19 20  1  1  0  0  0
 19 21  1  0  0  0  0
 19 58  1  0  0  0  0
 21 22  1  0  0  0  0
 21 59  1  0  0  0  0
 21 60  1  0  0  0  0
 22 23  1  0  0  0  0
 22 61  1  0  0  0  0
 23 62  1  0  0  0  0
 23 63  1  0  0  0  0
 24 26  1  0  0  0  0
 25 64  1  0  0  0  0
 25 65  1  0  0  0  0
 26 27  1  0  0  0  0
 26 66  1  0  0  0  0
 27 28  1  0  0  0  0
 27 29  1  0  0  0  0
 27 30  1  0  0  0  0
 28 69  1  0  0  0  0
 28 70  1  0  0  0  0
 28 71  1  0  0  0  0
 29 72  1  0  0  0  0
 29 73  1  0  0  0  0
 29 74  1  0  0  0  0
 30 75  1  0  0  0  0
 30 76  1  0  0  0  0
 30 77  1  0  0  0  0
 31 33  1  0  0  0  0
 31 34  2  0  0  0  0
 33 36  2  0  0  0  0
 33 38  1  0  0  0  0
 34 37  1  0  0  0  0
 34 78  1  0  0  0  0
 35 40  1  0  0  0  0
 35 41  1  0  0  0  0
 35 42  1  0  0  0  0
 36 39  1  0  0  0  0
 37 44  1  0  0  0  0
 38 43  2  0  0  0  0
 38 80  1  0  0  0  0
 39 45  2  0  0  0  0
 39 81  1  0  0  0  0
 40 82  1  0  0  0  0
 40 83  1  0  0  0  0
 40 84  1  0  0  0  0
 41 85  1  0  0  0  0
 41 86  1  0  0  0  0
 41 87  1  0  0  0  0
 42 88  1  0  0  0  0
 42 89  1  0  0  0  0
 42 90  1  0  0  0  0
 43 45  1  0  0  0  0
 43 91  1  0  0  0  0
 44 46  2  0  0  0  0
 44 47  1  0  0  0  0
 46 48  1  0  0  0  0
 46 92  1  0  0  0  0
 47 49  2  0  0  0  0
 47 93  1  0  0  0  0
 48 50  2  0  0  0  0
 48 94  1  0  0  0  0
 49 50  1  0  0  0  0
 49 95  1  0  0  0  0
 51 96  1  0  0  0  0
 51 97  1  0  0  0  0
 51 98  1  0  0  0  0
 52 99  1  0  0  0  0
 52100  1  0  0  0  0
 52101  1  0  0  0  0
M  END
> <PUBCHEM_COMPOUND_CID>
500796
> <PUBCHEM_COMPOUND_CANONICALIZED>
1
> <PUBCHEM_CACTVS_COMPLEXITY>
1320
> <PUBCHEM_CACTVS_HBOND_ACCEPTOR>
9
> <PUBCHEM_CACTVS_HBOND_DONOR>
4
> <PUBCHEM_CACTVS_ROTATABLE_BOND>
13
> <PUBCHEM_CACTVS_SUBSKEYS>
AAADcfB/vAAAAAAAAAAAAAAAGAAAAWAAAAA8YIAAAAAAAACx9AAAHgAQCAAAD7zhngYzzvPIFgCoAyXyXACCiCAhIiAImKG+bJiOZvLEsbuXeCju1hvY6Ae68e8PIAAAAgACAABAAAAEAAQAAAAAAAAAAA==
> <PUBCHEM_IUPAC_OPENEYE_NAME>
(2R)-1-[[(2S,4R)-1-[(2S)-2-(tert-butylcarbamoylamino)-3,3-dimethyl-butanoyl]-4-[[7-methoxy-2-(4-methoxyphenyl)-4-quinolyl]oxy]pyrrolidine-2-carbonyl]amino]-2-vinyl-cyclopropanecarboxylic acid
> <PUBCHEM_IUPAC_CAS_NAME>
(2R)-1-[[[(2S,4R)-1-[(2S)-2-[[(tert-butylamino)-oxomethyl]amino]-3,3-dimethyl-1-oxobutyl]-4-[[7-methoxy-2-(4-methoxyphenyl)-4-quinolinyl]oxy]-2-pyrrolidinyl]-oxomethyl]amino]-2-ethenyl-1-cyclopropanecarboxylic acid
> <PUBCHEM_IUPAC_NAME_MARKUP>
(2<I>R</I>)-1-[[(2<I>S</I>,4<I>R</I>)-1-[(2<I>S</I>)-2-(<I>tert</I>-butylcarbamoylamino)-3,3-dimethylbutanoyl]-4-[7-methoxy-2-(4-methoxyphenyl)quinolin-4-yl]oxypyrrolidine-2-carbonyl]amino]-2-ethenylcyclopropane-1-carboxylic acid
> <PUBCHEM_IUPAC_NAME>
(2R)-1-[[(2S,4R)-1-[(2S)-2-(tert-butylcarbamoylamino)-3,3-dimethylbutanoyl]-4-[7-methoxy-2-(4-methoxyphenyl)quinolin-4-yl]oxypyrrolidine-2-carbonyl]amino]-2-ethenylcyclopropane-1-carboxylic acid
> <PUBCHEM_IUPAC_SYSTEMATIC_NAME>
(2R)-1-[[(2S,4R)-1-[(2S)-2-(tert-butylcarbamoylamino)-3,3-dimethyl-butanoyl]-4-[7-methoxy-2-(4-methoxyphenyl)quinolin-4-yl]oxy-pyrrolidin-2-yl]carbonylamino]-2-ethenyl-cyclopropane-1-carboxylic acid
> <PUBCHEM_IUPAC_TRADITIONAL_NAME>
(2R)-1-[[(2S,4R)-1-[(2S)-2-(tert-butylcarbamoylamino)-3,3-dimethyl-butanoyl]-4-[[7-methoxy-2-(4-methoxyphenyl)-4-quinolyl]oxy]prolyl]amino]-2-vinyl-cyclopropanecarboxylic acid
> <PUBCHEM_IUPAC_INCHI>
InChI=1S/C39H49N5O8/c1-10-23-20-39(23,35(47)48)42-33(45)30-18-26(21-44(30)34(46)32(37(2,3)4)41-36(49)43-38(5,6)7)52-31-19-28(22-11-13-24(50-8)14-12-22)40-29-17-25(51-9)15-16-27(29)31/h10-17,19,23,26,30,32H,1,18,20-21H2,2-9H3,(H,42,45)(H,47,48)(H2,41,43,49)/t23-,26+,30-,32+,39?/m0/s1
> <PUBCHEM_IUPAC_INCHIKEY>
HUDJSAXLRMSUMR-YICLFWTESA-N
> <PUBCHEM_XLOGP3_AA>
5.2
> <PUBCHEM_EXACT_MASS>
715.35811354
> <PUBCHEM_MOLECULAR_FORMULA>
C39H49N5O8
> <PUBCHEM_MOLECULAR_WEIGHT>
715.8
> <PUBCHEM_OPENEYE_CAN_SMILES>
CC(C)(C)C(C(=O)N1CC(CC1C(=O)NC2(CC2C=C)C(=O)O)OC3=CC(=NC4=C3C=CC(=C4)OC)C5=CC=C(C=C5)OC)NC(=O)NC(C)(C)C
> <PUBCHEM_OPENEYE_ISO_SMILES>
CC(C)(C)[C@@H](C(=O)N1C[C@@H](C[C@H]1C(=O)NC2(C[C@@H]2C=C)C(=O)O)OC3=CC(=NC4=C3C=CC(=C4)OC)C5=CC=C(C=C5)OC)NC(=O)NC(C)(C)C
> <PUBCHEM_CACTVS_TPSA>
168
> <PUBCHEM_MONOISOTOPIC_WEIGHT>
715.35811354
> <PUBCHEM_TOTAL_CHARGE>
0
> <PUBCHEM_HEAVY_ATOM_COUNT>
52
> <PUBCHEM_ATOM_DEF_STEREO_COUNT>
4
> <PUBCHEM_ATOM_UDEF_STEREO_COUNT>
1
> <PUBCHEM_BOND_DEF_STEREO_COUNT>
0
> <PUBCHEM_BOND_UDEF_STEREO_COUNT>
0
> <PUBCHEM_ISOTOPIC_ATOM_COUNT>
0
> <PUBCHEM_COMPONENT_COUNT>
1
> <PUBCHEM_CACTVS_TAUTO_COUNT>
-1
> <PUBCHEM_COORDINATE_TYPE>
1
5
255
> <PUBCHEM_BONDANNOTATIONS>
26  11  5
13  36  8
13  37  8
14  17  3
15  18  5
19  20  5
22  3  6
31  33  8
31  34  8
33  36  8
33  38  8
34  37  8
36  39  8
38  43  8
39  45  8
43  45  8
44  46  8
44  47  8
46  48  8
47  49  8
48  50  8
49  50  8
$$$$
