500706
  -OEChem-10302200282D
100104  0     1  0  0  0  0  0999 V2000
    8.2417    5.6317    0.0000 O   0  0  0  0  0  0  0  0  0  0  0  0
    8.4227    3.9092    0.0000 O   0  0  0  0  0  0  0  0  0  0  0  0
    4.6660    0.2751    0.0000 O   0  0  0  0  0  0  0  0  0  0  0  0
    8.0160    2.9956    0.0000 O   0  0  0  0  0  0  0  0  0  0  0  0
    8.6970    1.8160    0.0000 O   0  0  0  0  0  0  0  0  0  0  0  0
    9.3295   -1.7336    0.0000 O   0  0  0  0  0  0  0  0  0  0  0  0
    7.7472   -2.4381    0.0000 O   0  0  0  0  0  0  0  0  0  0  0  0
    6.4337    3.7001    0.0000 N   0  0  0  0  0  0  0  0  0  0  0  0
    7.1147    1.1115    0.0000 N   0  0  0  0  0  0  0  0  0  0  0  0
    7.9282   -0.7156    0.0000 N   0  0  0  0  0  0  0  0  0  0  0  0
    4.6660   -2.7249    0.0000 N   0  0  0  0  0  0  0  0  0  0  0  0
    6.3981   -3.7249    0.0000 N   0  0  3  0  0  0  0  0  0  0  0  0
    6.8404    4.6137    0.0000 C   0  0  3  0  0  0  0  0  0  0  0  0
    5.9269    5.0204    0.0000 C   0  0  2  0  0  0  0  0  0  0  0  0
    6.7359    5.6082    0.0000 C   0  0  0  0  0  0  0  0  0  0  0  0
    7.8350    4.7182    0.0000 C   0  0  0  0  0  0  0  0  0  0  0  0
    4.9324    4.9159    0.0000 C   0  0  0  0  0  0  0  0  0  0  0  0
    6.6147    1.9776    0.0000 C   0  0  2  0  0  0  0  0  0  0  0  0
    7.0215    2.8911    0.0000 C   0  0  0  0  0  0  0  0  0  0  0  0
    5.6366    1.7696    0.0000 C   0  0  0  0  0  0  0  0  0  0  0  0
    5.5321    0.7751    0.0000 C   0  0  2  0  0  0  0  0  0  0  0  0
    6.4456    0.3684    0.0000 C   0  0  0  0  0  0  0  0  0  0  0  0
    8.1093    1.0070    0.0000 C   0  0  0  0  0  0  0  0  0  0  0  0
    4.3446    5.7249    0.0000 C   0  0  0  0  0  0  0  0  0  0  0  0
    8.5160    0.0935    0.0000 C   0  0  2  0  0  0  0  0  0  0  0  0
    9.5105   -0.0111    0.0000 C   0  0  0  0  0  0  0  0  0  0  0  0
   10.5050   -0.1156    0.0000 C   0  0  0  0  0  0  0  0  0  0  0  0
    9.4060   -1.0056    0.0000 C   0  0  0  0  0  0  0  0  0  0  0  0
    9.6150    0.9834    0.0000 C   0  0  0  0  0  0  0  0  0  0  0  0
    4.6660   -0.7249    0.0000 C   0  0  0  0  0  0  0  0  0  0  0  0
    3.8000   -1.2249    0.0000 C   0  0  0  0  0  0  0  0  0  0  0  0
    8.3349   -1.6291    0.0000 C   0  0  0  0  0  0  0  0  0  0  0  0
    5.5321   -1.2249    0.0000 C   0  0  0  0  0  0  0  0  0  0  0  0
    3.8000   -2.2249    0.0000 C   0  0  0  0  0  0  0  0  0  0  0  0
    5.5321   -2.2249    0.0000 C   0  0  0  0  0  0  0  0  0  0  0  0
    2.9061   -0.6902    0.0000 C   0  0  0  0  0  0  0  0  0  0  0  0
    9.7362   -2.6472    0.0000 C   0  0  0  0  0  0  0  0  0  0  0  0
    6.3981   -2.7249    0.0000 C   0  0  0  0  0  0  0  0  0  0  0  0
    2.9061   -2.7595    0.0000 C   0  0  0  0  0  0  0  0  0  0  0  0
    2.0000   -1.2041    0.0000 C   0  0  0  0  0  0  0  0  0  0  0  0
    2.0000   -2.2457    0.0000 C   0  0  0  0  0  0  0  0  0  0  0  0
   10.1429   -3.5607    0.0000 C   0  0  0  0  0  0  0  0  0  0  0  0
   10.6497   -2.2404    0.0000 C   0  0  0  0  0  0  0  0  0  0  0  0
    8.8227   -3.0539    0.0000 C   0  0  0  0  0  0  0  0  0  0  0  0
    7.2641   -4.2249    0.0000 C   0  0  0  0  0  0  0  0  0  0  0  0
    5.5321   -4.2249    0.0000 C   0  0  0  0  0  0  0  0  0  0  0  0
    8.1301   -3.7249    0.0000 C   0  0  0  0  0  0  0  0  0  0  0  0
    7.2641   -5.2249    0.0000 C   0  0  0  0  0  0  0  0  0  0  0  0
    8.9962   -4.2249    0.0000 C   0  0  0  0  0  0  0  0  0  0  0  0
    8.1301   -5.7249    0.0000 C   0  0  0  0  0  0  0  0  0  0  0  0
    8.9962   -5.2249    0.0000 C   0  0  0  0  0  0  0  0  0  0  0  0
    5.7047    5.5992    0.0000 H   0  0  0  0  0  0  0  0  0  0  0  0
    7.3319    5.7791    0.0000 H   0  0  0  0  0  0  0  0  0  0  0  0
    6.4641    6.1654    0.0000 H   0  0  0  0  0  0  0  0  0  0  0  0
    5.8171    3.6353    0.0000 H   0  0  0  0  0  0  0  0  0  0  0  0
    4.6802    4.3495    0.0000 H   0  0  0  0  0  0  0  0  0  0  0  0
    7.2339    2.0100    0.0000 H   0  0  0  0  0  0  0  0  0  0  0  0
    5.5718    2.3862    0.0000 H   0  0  0  0  0  0  0  0  0  0  0  0
    5.0166    1.7696    0.0000 H   0  0  0  0  0  0  0  0  0  0  0  0
    5.5645    0.1560    0.0000 H   0  0  0  0  0  0  0  0  0  0  0  0
    6.1356   -0.1686    0.0000 H   0  0  0  0  0  0  0  0  0  0  0  0
    6.9472    0.0040    0.0000 H   0  0  0  0  0  0  0  0  0  0  0  0
    4.5968    6.2913    0.0000 H   0  0  0  0  0  0  0  0  0  0  0  0
    3.7280    5.6601    0.0000 H   0  0  0  0  0  0  0  0  0  0  0  0
    7.8994    0.1583    0.0000 H   0  0  0  0  0  0  0  0  0  0  0  0
    8.8583    5.6965    0.0000 H   0  0  0  0  0  0  0  0  0  0  0  0
    7.3116   -0.6508    0.0000 H   0  0  0  0  0  0  0  0  0  0  0  0
   10.4402   -0.7322    0.0000 H   0  0  0  0  0  0  0  0  0  0  0  0
   11.1216   -0.1804    0.0000 H   0  0  0  0  0  0  0  0  0  0  0  0
   10.5698    0.5010    0.0000 H   0  0  0  0  0  0  0  0  0  0  0  0
    8.7894   -0.9408    0.0000 H   0  0  0  0  0  0  0  0  0  0  0  0
    9.3412   -1.6222    0.0000 H   0  0  0  0  0  0  0  0  0  0  0  0
   10.0226   -1.0704    0.0000 H   0  0  0  0  0  0  0  0  0  0  0  0
   10.2316    0.9186    0.0000 H   0  0  0  0  0  0  0  0  0  0  0  0
    9.6798    1.6000    0.0000 H   0  0  0  0  0  0  0  0  0  0  0  0
    8.9984    1.0482    0.0000 H   0  0  0  0  0  0  0  0  0  0  0  0
    6.0690   -0.9149    0.0000 H   0  0  0  0  0  0  0  0  0  0  0  0
    2.9132   -0.0703    0.0000 H   0  0  0  0  0  0  0  0  0  0  0  0
    7.0087   -2.8326    0.0000 H   0  0  0  0  0  0  0  0  0  0  0  0
    6.6101   -2.1423    0.0000 H   0  0  0  0  0  0  0  0  0  0  0  0
    2.9132   -3.3795    0.0000 H   0  0  0  0  0  0  0  0  0  0  0  0
    1.4643   -0.8920    0.0000 H   0  0  0  0  0  0  0  0  0  0  0  0
    1.4643   -2.5578    0.0000 H   0  0  0  0  0  0  0  0  0  0  0  0
    9.5765   -3.8129    0.0000 H   0  0  0  0  0  0  0  0  0  0  0  0
   10.3951   -4.1271    0.0000 H   0  0  0  0  0  0  0  0  0  0  0  0
   10.7093   -3.3086    0.0000 H   0  0  0  0  0  0  0  0  0  0  0  0
   10.9019   -2.8068    0.0000 H   0  0  0  0  0  0  0  0  0  0  0  0
   11.2161   -1.9883    0.0000 H   0  0  0  0  0  0  0  0  0  0  0  0
   10.3976   -1.6740    0.0000 H   0  0  0  0  0  0  0  0  0  0  0  0
    8.5705   -2.4875    0.0000 H   0  0  0  0  0  0  0  0  0  0  0  0
    8.2563   -3.3061    0.0000 H   0  0  0  0  0  0  0  0  0  0  0  0
    9.0748   -3.6203    0.0000 H   0  0  0  0  0  0  0  0  0  0  0  0
    5.2221   -3.6880    0.0000 H   0  0  0  0  0  0  0  0  0  0  0  0
    4.9951   -4.5349    0.0000 H   0  0  0  0  0  0  0  0  0  0  0  0
    5.8421   -4.7618    0.0000 H   0  0  0  0  0  0  0  0  0  0  0  0
    8.1301   -3.1049    0.0000 H   0  0  0  0  0  0  0  0  0  0  0  0
    6.7272   -5.5349    0.0000 H   0  0  0  0  0  0  0  0  0  0  0  0
    9.5331   -3.9149    0.0000 H   0  0  0  0  0  0  0  0  0  0  0  0
    8.1301   -6.3449    0.0000 H   0  0  0  0  0  0  0  0  0  0  0  0
    9.5331   -5.5349    0.0000 H   0  0  0  0  0  0  0  0  0  0  0  0
  1 16  1  0  0  0  0
  1 66  1  0  0  0  0
  2 16  2  0  0  0  0
 21  3  1  6  0  0  0
  3 30  1  0  0  0  0
  4 19  2  0  0  0  0
  5 23  2  0  0  0  0
  6 32  1  0  0  0  0
  6 37  1  0  0  0  0
  7 32  2  0  0  0  0
  8 13  1  0  0  0  0
  8 19  1  0  0  0  0
  8 55  1  0  0  0  0
  9 18  1  0  0  0  0
  9 22  1  0  0  0  0
  9 23  1  0  0  0  0
 25 10  1  6  0  0  0
 10 32  1  0  0  0  0
 10 67  1  0  0  0  0
 11 34  1  0  0  0  0
 11 35  2  0  0  0  0
 12 38  1  0  0  0  0
 12 45  1  0  0  0  0
 12 46  1  0  0  0  0
 13 14  1  0  0  0  0
 13 15  1  0  0  0  0
 13 16  1  0  0  0  0
 14 15  1  0  0  0  0
 14 17  1  1  0  0  0
 14 52  1  0  0  0  0
 15 53  1  0  0  0  0
 15 54  1  0  0  0  0
 17 24  2  0  0  0  0
 17 56  1  0  0  0  0
 18 19  1  1  0  0  0
 18 20  1  0  0  0  0
 18 57  1  0  0  0  0
 20 21  1  0  0  0  0
 20 58  1  0  0  0  0
 20 59  1  0  0  0  0
 21 22  1  0  0  0  0
 21 60  1  0  0  0  0
 22 61  1  0  0  0  0
 22 62  1  0  0  0  0
 23 25  1  0  0  0  0
 24 63  1  0  0  0  0
 24 64  1  0  0  0  0
 25 26  1  0  0  0  0
 25 65  1  0  0  0  0
 26 27  1  0  0  0  0
 26 28  1  0  0  0  0
 26 29  1  0  0  0  0
 27 68  1  0  0  0  0
 27 69  1  0  0  0  0
 27 70  1  0  0  0  0
 28 71  1  0  0  0  0
 28 72  1  0  0  0  0
 28 73  1  0  0  0  0
 29 74  1  0  0  0  0
 29 75  1  0  0  0  0
 29 76  1  0  0  0  0
 30 31  1  0  0  0  0
 30 33  2  0  0  0  0
 31 34  1  0  0  0  0
 31 36  2  0  0  0  0
 33 35  1  0  0  0  0
 33 77  1  0  0  0  0
 34 39  2  0  0  0  0
 35 38  1  0  0  0  0
 36 40  1  0  0  0  0
 36 78  1  0  0  0  0
 37 42  1  0  0  0  0
 37 43  1  0  0  0  0
 37 44  1  0  0  0  0
 38 79  1  0  0  0  0
 38 80  1  0  0  0  0
 39 41  1  0  0  0  0
 39 81  1  0  0  0  0
 40 41  2  0  0  0  0
 40 82  1  0  0  0  0
 41 83  1  0  0  0  0
 42 84  1  0  0  0  0
 42 85  1  0  0  0  0
 42 86  1  0  0  0  0
 43 87  1  0  0  0  0
 43 88  1  0  0  0  0
 43 89  1  0  0  0  0
 44 90  1  0  0  0  0
 44 91  1  0  0  0  0
 44 92  1  0  0  0  0
 45 47  2  0  0  0  0
 45 48  1  0  0  0  0
 46 93  1  0  0  0  0
 46 94  1  0  0  0  0
 46 95  1  0  0  0  0
 47 49  1  0  0  0  0
 47 96  1  0  0  0  0
 48 50  2  0  0  0  0
 48 97  1  0  0  0  0
 49 51  2  0  0  0  0
 49 98  1  0  0  0  0
 50 51  1  0  0  0  0
 50 99  1  0  0  0  0
 51100  1  0  0  0  0
M  END
> <PUBCHEM_COMPOUND_CID>
500706
> <PUBCHEM_COMPOUND_CANONICALIZED>
1
> <PUBCHEM_CACTVS_COMPLEXITY>
1290
> <PUBCHEM_CACTVS_HBOND_ACCEPTOR>
9
> <PUBCHEM_CACTVS_HBOND_DONOR>
3
> <PUBCHEM_CACTVS_ROTATABLE_BOND>
14
> <PUBCHEM_CACTVS_SUBSKEYS>
AAADcfB/uAAAAAAAAAAAAAAAGAAAAWAAAAA8YIAAAAAAAACx9AAAHgAQCAAAD/zhngYyzvPIFgCoAyXyXACCiCAhIiAImKG+bJkOZvLEsbufeCjm1hnY6Ae6waAPAAAAAAACAAAAAAAAAAQAAAAAAAAAAA==
> <PUBCHEM_IUPAC_OPENEYE_NAME>
(2R)-1-[[(2S,4R)-1-[(2S)-2-(tert-butoxycarbonylamino)-3,3-dimethyl-butanoyl]-4-[[2-[(N-methylanilino)methyl]-4-quinolyl]oxy]pyrrolidine-2-carbonyl]amino]-2-vinyl-cyclopropanecarboxylic acid
> <PUBCHEM_IUPAC_CAS_NAME>
(2R)-1-[[[(2S,4R)-1-[(2S)-3,3-dimethyl-2-[[(2-methylpropan-2-yl)oxy-oxomethyl]amino]-1-oxobutyl]-4-[[2-[(N-methylanilino)methyl]-4-quinolinyl]oxy]-2-pyrrolidinyl]-oxomethyl]amino]-2-ethenyl-1-cyclopropanecarboxylic acid
> <PUBCHEM_IUPAC_NAME_MARKUP>
(2<I>R</I>)-1-[[(2<I>S</I>,4<I>R</I>)-1-[(2<I>S</I>)-3,3-dimethyl-2-[(2-methylpropan-2-yl)oxycarbonylamino]butanoyl]-4-[2-[(<I>N</I>-methylanilino)methyl]quinolin-4-yl]oxypyrrolidine-2-carbonyl]amino]-2-ethenylcyclopropane-1-carboxylic acid
> <PUBCHEM_IUPAC_NAME>
(2R)-1-[[(2S,4R)-1-[(2S)-3,3-dimethyl-2-[(2-methylpropan-2-yl)oxycarbonylamino]butanoyl]-4-[2-[(N-methylanilino)methyl]quinolin-4-yl]oxypyrrolidine-2-carbonyl]amino]-2-ethenylcyclopropane-1-carboxylic acid
> <PUBCHEM_IUPAC_SYSTEMATIC_NAME>
(2R)-1-[[(2S,4R)-1-[(2S)-3,3-dimethyl-2-[(2-methylpropan-2-yl)oxycarbonylamino]butanoyl]-4-[2-[[methyl(phenyl)amino]methyl]quinolin-4-yl]oxy-pyrrolidin-2-yl]carbonylamino]-2-ethenyl-cyclopropane-1-carboxylic acid
> <PUBCHEM_IUPAC_TRADITIONAL_NAME>
(2R)-1-[[(2S,4R)-1-[(2S)-2-(tert-butoxycarbonylamino)-3,3-dimethyl-butanoyl]-4-[[2-[(N-methylanilino)methyl]-4-quinolyl]oxy]prolyl]amino]-2-vinyl-cyclopropanecarboxylic acid
> <PUBCHEM_IUPAC_INCHI>
InChI=1S/C39H49N5O7/c1-9-24-21-39(24,35(47)48)42-33(45)30-20-27(23-44(30)34(46)32(37(2,3)4)41-36(49)51-38(5,6)7)50-31-19-25(40-29-18-14-13-17-28(29)31)22-43(8)26-15-11-10-12-16-26/h9-19,24,27,30,32H,1,20-23H2,2-8H3,(H,41,49)(H,42,45)(H,47,48)/t24-,27+,30-,32+,39?/m0/s1
> <PUBCHEM_IUPAC_INCHIKEY>
GQNCZQLLEWLTAQ-QWTRJUFZSA-N
> <PUBCHEM_XLOGP3_AA>
5.9
> <PUBCHEM_EXACT_MASS>
699.36319892
> <PUBCHEM_MOLECULAR_FORMULA>
C39H49N5O7
> <PUBCHEM_MOLECULAR_WEIGHT>
699.8
> <PUBCHEM_OPENEYE_CAN_SMILES>
CC(C)(C)C(C(=O)N1CC(CC1C(=O)NC2(CC2C=C)C(=O)O)OC3=CC(=NC4=CC=CC=C43)CN(C)C5=CC=CC=C5)NC(=O)OC(C)(C)C
> <PUBCHEM_OPENEYE_ISO_SMILES>
CC(C)(C)[C@@H](C(=O)N1C[C@@H](C[C@H]1C(=O)NC2(C[C@@H]2C=C)C(=O)O)OC3=CC(=NC4=CC=CC=C43)CN(C)C5=CC=CC=C5)NC(=O)OC(C)(C)C
> <PUBCHEM_CACTVS_TPSA>
150
> <PUBCHEM_MONOISOTOPIC_WEIGHT>
699.36319892
> <PUBCHEM_TOTAL_CHARGE>
0
> <PUBCHEM_HEAVY_ATOM_COUNT>
51
> <PUBCHEM_ATOM_DEF_STEREO_COUNT>
4
> <PUBCHEM_ATOM_UDEF_STEREO_COUNT>
1
> <PUBCHEM_BOND_DEF_STEREO_COUNT>
0
> <PUBCHEM_BOND_UDEF_STEREO_COUNT>
0
> <PUBCHEM_ISOTOPIC_ATOM_COUNT>
0
> <PUBCHEM_COMPONENT_COUNT>
1
> <PUBCHEM_CACTVS_TAUTO_COUNT>
-1
> <PUBCHEM_COORDINATE_TYPE>
1
5
255
> <PUBCHEM_BONDANNOTATIONS>
25  10  6
11  34  8
11  35  8
13  16  3
14  17  5
18  19  5
21  3  6
30  31  8
30  33  8
31  34  8
31  36  8
33  35  8
34  39  8
36  40  8
39  41  8
40  41  8
45  47  8
45  48  8
47  49  8
48  50  8
49  51  8
50  51  8
$$$$
