500791
  -OEChem-10302200282D
 89 94  0     1  0  0  0  0  0999 V2000
    9.9737    5.0587    0.0000 O   0  0  0  0  0  0  0  0  0  0  0  0
   10.1548    3.3361    0.0000 O   0  0  0  0  0  0  0  0  0  0  0  0
    6.3981   -0.2979    0.0000 O   0  0  0  0  0  0  0  0  0  0  0  0
    9.7480    2.4226    0.0000 O   0  0  0  0  0  0  0  0  0  0  0  0
   10.4291    1.2430    0.0000 O   0  0  0  0  0  0  0  0  0  0  0  0
    2.8680   -3.3221    0.0000 O   0  0  0  0  0  0  0  0  0  0  0  0
    8.1657    3.1271    0.0000 N   0  0  0  0  0  0  0  0  0  0  0  0
    8.8468    0.5385    0.0000 N   0  0  0  0  0  0  0  0  0  0  0  0
   11.2426   -0.5841    0.0000 N   0  0  0  0  0  0  0  0  0  0  0  0
    6.3981   -3.2979    0.0000 N   0  0  0  0  0  0  0  0  0  0  0  0
   13.2762   -5.1518    0.0000 N   0  0  0  0  0  0  0  0  0  0  0  0
    8.5725    4.0406    0.0000 C   0  0  3  0  0  0  0  0  0  0  0  0
    7.6589    4.4474    0.0000 C   0  0  2  0  0  0  0  0  0  0  0  0
    8.4679    5.0351    0.0000 C   0  0  0  0  0  0  0  0  0  0  0  0
    9.5670    4.1452    0.0000 C   0  0  0  0  0  0  0  0  0  0  0  0
    6.6644    4.3428    0.0000 C   0  0  0  0  0  0  0  0  0  0  0  0
    8.3468    1.4045    0.0000 C   0  0  2  0  0  0  0  0  0  0  0  0
    8.7535    2.3181    0.0000 C   0  0  0  0  0  0  0  0  0  0  0  0
    7.3686    1.1966    0.0000 C   0  0  0  0  0  0  0  0  0  0  0  0
    7.2641    0.2021    0.0000 C   0  0  2  0  0  0  0  0  0  0  0  0
    8.1776   -0.2047    0.0000 C   0  0  0  0  0  0  0  0  0  0  0  0
    6.0766    5.1518    0.0000 C   0  0  0  0  0  0  0  0  0  0  0  0
    9.8413    0.4340    0.0000 C   0  0  0  0  0  0  0  0  0  0  0  0
   10.2480   -0.4796    0.0000 C   0  0  2  0  0  0  0  0  0  0  0  0
    9.6602   -1.2886    0.0000 C   0  0  0  0  0  0  0  0  0  0  0  0
    6.3981   -1.2979    0.0000 C   0  0  0  0  0  0  0  0  0  0  0  0
    8.6657   -1.1841    0.0000 C   0  0  0  0  0  0  0  0  0  0  0  0
   10.0670   -2.2022    0.0000 C   0  0  0  0  0  0  0  0  0  0  0  0
    5.5320   -1.7979    0.0000 C   0  0  0  0  0  0  0  0  0  0  0  0
   11.6493   -1.4977    0.0000 C   0  0  0  0  0  0  0  0  0  0  0  0
    7.2641   -1.7979    0.0000 C   0  0  0  0  0  0  0  0  0  0  0  0
    5.5320   -2.7979    0.0000 C   0  0  0  0  0  0  0  0  0  0  0  0
    7.2641   -2.7979    0.0000 C   0  0  0  0  0  0  0  0  0  0  0  0
    4.6381   -1.2633    0.0000 C   0  0  0  0  0  0  0  0  0  0  0  0
   11.0615   -2.3067    0.0000 C   0  0  0  0  0  0  0  0  0  0  0  0
   12.6438   -1.6022    0.0000 C   0  0  0  0  0  0  0  0  0  0  0  0
    4.6381   -3.3326    0.0000 C   0  0  0  0  0  0  0  0  0  0  0  0
    3.7320   -1.7771    0.0000 C   0  0  0  0  0  0  0  0  0  0  0  0
    8.1301   -3.2979    0.0000 C   0  0  0  0  0  0  0  0  0  0  0  0
   11.4682   -3.2202    0.0000 C   0  0  0  0  0  0  0  0  0  0  0  0
   13.0505   -2.5157    0.0000 C   0  0  0  0  0  0  0  0  0  0  0  0
    3.7320   -2.8187    0.0000 C   0  0  0  0  0  0  0  0  0  0  0  0
   12.4628   -3.3248    0.0000 C   0  0  0  0  0  0  0  0  0  0  0  0
    8.9962   -2.7979    0.0000 C   0  0  0  0  0  0  0  0  0  0  0  0
    8.1301   -4.2979    0.0000 C   0  0  0  0  0  0  0  0  0  0  0  0
    9.8622   -3.2979    0.0000 C   0  0  0  0  0  0  0  0  0  0  0  0
    8.9962   -4.7979    0.0000 C   0  0  0  0  0  0  0  0  0  0  0  0
   12.8695   -4.2383    0.0000 C   0  0  0  0  0  0  0  0  0  0  0  0
    9.8622   -4.2979    0.0000 C   0  0  0  0  0  0  0  0  0  0  0  0
    2.0000   -2.8254    0.0000 C   0  0  0  0  0  0  0  0  0  0  0  0
    7.4367    5.0262    0.0000 H   0  0  0  0  0  0  0  0  0  0  0  0
    9.0639    5.2060    0.0000 H   0  0  0  0  0  0  0  0  0  0  0  0
    8.1961    5.5924    0.0000 H   0  0  0  0  0  0  0  0  0  0  0  0
    7.5491    3.0623    0.0000 H   0  0  0  0  0  0  0  0  0  0  0  0
    6.4122    3.7764    0.0000 H   0  0  0  0  0  0  0  0  0  0  0  0
    8.9659    1.4370    0.0000 H   0  0  0  0  0  0  0  0  0  0  0  0
    7.3038    1.8132    0.0000 H   0  0  0  0  0  0  0  0  0  0  0  0
    6.7486    1.1966    0.0000 H   0  0  0  0  0  0  0  0  0  0  0  0
    6.7441    0.5398    0.0000 H   0  0  0  0  0  0  0  0  0  0  0  0
    7.8676   -0.7416    0.0000 H   0  0  0  0  0  0  0  0  0  0  0  0
    8.6792   -0.5691    0.0000 H   0  0  0  0  0  0  0  0  0  0  0  0
    6.3288    5.7182    0.0000 H   0  0  0  0  0  0  0  0  0  0  0  0
    5.4600    5.0870    0.0000 H   0  0  0  0  0  0  0  0  0  0  0  0
   10.5903    5.1235    0.0000 H   0  0  0  0  0  0  0  0  0  0  0  0
   10.6125    0.0220    0.0000 H   0  0  0  0  0  0  0  0  0  0  0  0
    9.4081   -0.7222    0.0000 H   0  0  0  0  0  0  0  0  0  0  0  0
   11.6070   -0.0825    0.0000 H   0  0  0  0  0  0  0  0  0  0  0  0
    8.7305   -0.5675    0.0000 H   0  0  0  0  0  0  0  0  0  0  0  0
    8.0491   -1.1193    0.0000 H   0  0  0  0  0  0  0  0  0  0  0  0
    8.6009   -1.8007    0.0000 H   0  0  0  0  0  0  0  0  0  0  0  0
    9.5006   -2.4543    0.0000 H   0  0  0  0  0  0  0  0  0  0  0  0
   10.3192   -2.7686    0.0000 H   0  0  0  0  0  0  0  0  0  0  0  0
   10.6334   -1.9500    0.0000 H   0  0  0  0  0  0  0  0  0  0  0  0
    7.8010   -1.4879    0.0000 H   0  0  0  0  0  0  0  0  0  0  0  0
    4.6453   -0.6433    0.0000 H   0  0  0  0  0  0  0  0  0  0  0  0
   10.4449   -2.2419    0.0000 H   0  0  0  0  0  0  0  0  0  0  0  0
   13.0082   -1.1006    0.0000 H   0  0  0  0  0  0  0  0  0  0  0  0
    4.6453   -3.9525    0.0000 H   0  0  0  0  0  0  0  0  0  0  0  0
    3.1963   -1.4650    0.0000 H   0  0  0  0  0  0  0  0  0  0  0  0
   11.1038   -3.7218    0.0000 H   0  0  0  0  0  0  0  0  0  0  0  0
   13.6672   -2.5805    0.0000 H   0  0  0  0  0  0  0  0  0  0  0  0
    8.9962   -2.1779    0.0000 H   0  0  0  0  0  0  0  0  0  0  0  0
    7.5932   -4.6079    0.0000 H   0  0  0  0  0  0  0  0  0  0  0  0
   10.3991   -2.9879    0.0000 H   0  0  0  0  0  0  0  0  0  0  0  0
    8.9962   -5.4179    0.0000 H   0  0  0  0  0  0  0  0  0  0  0  0
   10.3991   -4.6079    0.0000 H   0  0  0  0  0  0  0  0  0  0  0  0
    2.3079   -2.2873    0.0000 H   0  0  0  0  0  0  0  0  0  0  0  0
    1.4619   -2.5175    0.0000 H   0  0  0  0  0  0  0  0  0  0  0  0
    1.6921   -3.3635    0.0000 H   0  0  0  0  0  0  0  0  0  0  0  0
  1 15  1  0  0  0  0
  1 64  1  0  0  0  0
  2 15  2  0  0  0  0
 20  3  1  6  0  0  0
  3 26  1  0  0  0  0
  4 18  2  0  0  0  0
  5 23  2  0  0  0  0
  6 42  1  0  0  0  0
  6 50  1  0  0  0  0
  7 12  1  0  0  0  0
  7 18  1  0  0  0  0
  7 54  1  0  0  0  0
  8 17  1  0  0  0  0
  8 21  1  0  0  0  0
  8 23  1  0  0  0  0
 24  9  1  1  0  0  0
  9 30  1  0  0  0  0
  9 67  1  0  0  0  0
 10 32  1  0  0  0  0
 10 33  2  0  0  0  0
 11 48  3  0  0  0  0
 12 13  1  0  0  0  0
 12 14  1  0  0  0  0
 12 15  1  0  0  0  0
 13 14  1  0  0  0  0
 13 16  1  1  0  0  0
 13 51  1  0  0  0  0
 14 52  1  0  0  0  0
 14 53  1  0  0  0  0
 16 22  2  0  0  0  0
 16 55  1  0  0  0  0
 17 18  1  1  0  0  0
 17 19  1  0  0  0  0
 17 56  1  0  0  0  0
 19 20  1  0  0  0  0
 19 57  1  0  0  0  0
 19 58  1  0  0  0  0
 20 21  1  0  0  0  0
 20 59  1  0  0  0  0
 21 60  1  0  0  0  0
 21 61  1  0  0  0  0
 22 62  1  0  0  0  0
 22 63  1  0  0  0  0
 23 24  1  0  0  0  0
 24 25  1  0  0  0  0
 24 65  1  0  0  0  0
 25 27  1  0  0  0  0
 25 28  1  0  0  0  0
 25 66  1  0  0  0  0
 26 29  1  0  0  0  0
 26 31  2  0  0  0  0
 27 68  1  0  0  0  0
 27 69  1  0  0  0  0
 27 70  1  0  0  0  0
 28 71  1  0  0  0  0
 28 72  1  0  0  0  0
 28 73  1  0  0  0  0
 29 32  2  0  0  0  0
 29 34  1  0  0  0  0
 30 35  2  0  0  0  0
 30 36  1  0  0  0  0
 31 33  1  0  0  0  0
 31 74  1  0  0  0  0
 32 37  1  0  0  0  0
 33 39  1  0  0  0  0
 34 38  2  0  0  0  0
 34 75  1  0  0  0  0
 35 40  1  0  0  0  0
 35 76  1  0  0  0  0
 36 41  2  0  0  0  0
 36 77  1  0  0  0  0
 37 42  2  0  0  0  0
 37 78  1  0  0  0  0
 38 42  1  0  0  0  0
 38 79  1  0  0  0  0
 39 44  2  0  0  0  0
 39 45  1  0  0  0  0
 40 43  2  0  0  0  0
 40 80  1  0  0  0  0
 41 43  1  0  0  0  0
 41 81  1  0  0  0  0
 43 48  1  0  0  0  0
 44 46  1  0  0  0  0
 44 82  1  0  0  0  0
 45 47  2  0  0  0  0
 45 83  1  0  0  0  0
 46 49  2  0  0  0  0
 46 84  1  0  0  0  0
 47 49  1  0  0  0  0
 47 85  1  0  0  0  0
 49 86  1  0  0  0  0
 50 87  1  0  0  0  0
 50 88  1  0  0  0  0
 50 89  1  0  0  0  0
M  END
> <PUBCHEM_COMPOUND_CID>
500791
> <PUBCHEM_COMPOUND_CANONICALIZED>
1
> <PUBCHEM_CACTVS_COMPLEXITY>
1290
> <PUBCHEM_CACTVS_HBOND_ACCEPTOR>
9
> <PUBCHEM_CACTVS_HBOND_DONOR>
3
> <PUBCHEM_CACTVS_ROTATABLE_BOND>
12
> <PUBCHEM_CACTVS_SUBSKEYS>
AAADcfB/uAAAAAAAAAAAAAAAGAAAAWAAAAA8YMEAAAAAAACx9AAAHgAQCAAADbzhngYyzvPIFgC4ByXyXACiiCAhIiAImKG+bJgO5vLEsbuXeCjm1hnY6A+68e8OKAAAAgACAABQAAAEAAQAAAAAAAAAAA==
> <PUBCHEM_IUPAC_OPENEYE_NAME>
(2R)-1-[[(2S,4R)-1-[(2S)-2-(4-cyanoanilino)-3-methyl-butanoyl]-4-[(7-methoxy-2-phenyl-4-quinolyl)oxy]pyrrolidine-2-carbonyl]amino]-2-vinyl-cyclopropanecarboxylic acid
> <PUBCHEM_IUPAC_CAS_NAME>
(2R)-1-[[[(2S,4R)-1-[(2S)-2-(4-cyanoanilino)-3-methyl-1-oxobutyl]-4-[(7-methoxy-2-phenyl-4-quinolinyl)oxy]-2-pyrrolidinyl]-oxomethyl]amino]-2-ethenyl-1-cyclopropanecarboxylic acid
> <PUBCHEM_IUPAC_NAME_MARKUP>
(2<I>R</I>)-1-[[(2<I>S</I>,4<I>R</I>)-1-[(2<I>S</I>)-2-(4-cyanoanilino)-3-methylbutanoyl]-4-(7-methoxy-2-phenylquinolin-4-yl)oxypyrrolidine-2-carbonyl]amino]-2-ethenylcyclopropane-1-carboxylic acid
> <PUBCHEM_IUPAC_NAME>
(2R)-1-[[(2S,4R)-1-[(2S)-2-(4-cyanoanilino)-3-methylbutanoyl]-4-(7-methoxy-2-phenylquinolin-4-yl)oxypyrrolidine-2-carbonyl]amino]-2-ethenylcyclopropane-1-carboxylic acid
> <PUBCHEM_IUPAC_SYSTEMATIC_NAME>
(2R)-1-[[(2S,4R)-1-[(2S)-2-[(4-cyanophenyl)amino]-3-methyl-butanoyl]-4-(7-methoxy-2-phenyl-quinolin-4-yl)oxy-pyrrolidin-2-yl]carbonylamino]-2-ethenyl-cyclopropane-1-carboxylic acid
> <PUBCHEM_IUPAC_TRADITIONAL_NAME>
(2R)-1-[[(2S,4R)-1-[(2S)-2-(4-cyanoanilino)-3-methyl-butanoyl]-4-[(7-methoxy-2-phenyl-4-quinolyl)oxy]prolyl]amino]-2-vinyl-cyclopropanecarboxylic acid
> <PUBCHEM_IUPAC_INCHI>
InChI=1S/C39H39N5O6/c1-5-26-20-39(26,38(47)48)43-36(45)33-18-29(22-44(33)37(46)35(23(2)3)41-27-13-11-24(21-40)12-14-27)50-34-19-31(25-9-7-6-8-10-25)42-32-17-28(49-4)15-16-30(32)34/h5-17,19,23,26,29,33,35,41H,1,18,20,22H2,2-4H3,(H,43,45)(H,47,48)/t26-,29+,33-,35-,39?/m0/s1
> <PUBCHEM_IUPAC_INCHIKEY>
PCSHQRDHURWEJK-DPXADZTDSA-N
> <PUBCHEM_XLOGP3_AA>
6.1
> <PUBCHEM_EXACT_MASS>
673.29003398
> <PUBCHEM_MOLECULAR_FORMULA>
C39H39N5O6
> <PUBCHEM_MOLECULAR_WEIGHT>
673.8
> <PUBCHEM_OPENEYE_CAN_SMILES>
CC(C)C(C(=O)N1CC(CC1C(=O)NC2(CC2C=C)C(=O)O)OC3=CC(=NC4=C3C=CC(=C4)OC)C5=CC=CC=C5)NC6=CC=C(C=C6)C#N
> <PUBCHEM_OPENEYE_ISO_SMILES>
CC(C)[C@@H](C(=O)N1C[C@@H](C[C@H]1C(=O)NC2(C[C@@H]2C=C)C(=O)O)OC3=CC(=NC4=C3C=CC(=C4)OC)C5=CC=CC=C5)NC6=CC=C(C=C6)C#N
> <PUBCHEM_CACTVS_TPSA>
154
> <PUBCHEM_MONOISOTOPIC_WEIGHT>
673.29003398
> <PUBCHEM_TOTAL_CHARGE>
0
> <PUBCHEM_HEAVY_ATOM_COUNT>
50
> <PUBCHEM_ATOM_DEF_STEREO_COUNT>
4
> <PUBCHEM_ATOM_UDEF_STEREO_COUNT>
1
> <PUBCHEM_BOND_DEF_STEREO_COUNT>
0
> <PUBCHEM_BOND_UDEF_STEREO_COUNT>
0
> <PUBCHEM_ISOTOPIC_ATOM_COUNT>
0
> <PUBCHEM_COMPONENT_COUNT>
1
> <PUBCHEM_CACTVS_TAUTO_COUNT>
-1
> <PUBCHEM_COORDINATE_TYPE>
1
5
255
> <PUBCHEM_BONDANNOTATIONS>
10  32  8
10  33  8
12  15  3
13  16  5
17  18  5
26  29  8
26  31  8
29  32  8
29  34  8
20  3  6
30  35  8
30  36  8
31  33  8
32  37  8
34  38  8
35  40  8
36  41  8
37  42  8
38  42  8
39  44  8
39  45  8
40  43  8
41  43  8
44  46  8
45  47  8
46  49  8
47  49  8
24  9  5
$$$$
