500751
  -OEChem-10302200282D
 99102  0     1  0  0  0  0  0999 V2000
   12.6438   -1.3758    0.0000 O   0  0  0  0  0  0  0  0  0  0  0  0
   11.0615   -2.0802    0.0000 O   0  0  0  0  0  0  0  0  0  0  0  0
    6.3981   -0.0715    0.0000 O   0  0  0  0  0  0  0  0  0  0  0  0
   10.4291    1.4694    0.0000 O   0  0  0  0  0  0  0  0  0  0  0  0
    9.7480    2.6490    0.0000 O   0  0  0  0  0  0  0  0  0  0  0  0
    5.5889    3.9535    0.0000 O   0  0  0  0  0  0  0  0  0  0  0  0
    6.9902    4.9715    0.0000 O   0  0  0  0  0  0  0  0  0  0  0  0
    8.1301   -3.0715    0.0000 O   0  0  0  0  0  0  0  0  0  0  0  0
    2.8680   -3.0956    0.0000 O   0  0  0  0  0  0  0  0  0  0  0  0
   10.2480   -0.2532    0.0000 N   0  0  0  0  0  0  0  0  0  0  0  0
    8.3468    1.6309    0.0000 N   0  0  0  0  0  0  0  0  0  0  0  0
    7.1712    3.2490    0.0000 N   0  0  0  0  0  0  0  0  0  0  0  0
    6.3981   -3.0715    0.0000 N   0  0  0  0  0  0  0  0  0  0  0  0
   11.2426   -0.3577    0.0000 C   0  0  3  0  0  0  0  0  0  0  0  0
   12.1561    0.0490    0.0000 C   0  0  2  0  0  0  0  0  0  0  0  0
   11.3471    0.6368    0.0000 C   0  0  0  0  0  0  0  0  0  0  0  0
   11.6493   -1.2712    0.0000 C   0  0  0  0  0  0  0  0  0  0  0  0
   13.1506   -0.0555    0.0000 C   0  0  0  0  0  0  0  0  0  0  0  0
    8.8468    0.7649    0.0000 C   0  0  2  0  0  0  0  0  0  0  0  0
    9.8413    0.6604    0.0000 C   0  0  0  0  0  0  0  0  0  0  0  0
    8.1776    0.0218    0.0000 C   0  0  0  0  0  0  0  0  0  0  0  0
    7.2641    0.4285    0.0000 C   0  0  2  0  0  0  0  0  0  0  0  0
    7.3686    1.4230    0.0000 C   0  0  0  0  0  0  0  0  0  0  0  0
    8.7535    2.5445    0.0000 C   0  0  0  0  0  0  0  0  0  0  0  0
   13.7384    0.7535    0.0000 C   0  0  0  0  0  0  0  0  0  0  0  0
    8.1657    3.3535    0.0000 C   0  0  2  0  0  0  0  0  0  0  0  0
    8.5725    4.2670    0.0000 C   0  0  0  0  0  0  0  0  0  0  0  0
    8.9792    5.1806    0.0000 C   0  0  0  0  0  0  0  0  0  0  0  0
    7.6589    4.6738    0.0000 C   0  0  0  0  0  0  0  0  0  0  0  0
    9.4860    3.8603    0.0000 C   0  0  0  0  0  0  0  0  0  0  0  0
    6.3981   -1.0715    0.0000 C   0  0  0  0  0  0  0  0  0  0  0  0
    6.5834    4.0580    0.0000 C   0  0  0  0  0  0  0  0  0  0  0  0
    5.5320   -1.5715    0.0000 C   0  0  0  0  0  0  0  0  0  0  0  0
    7.2641   -1.5715    0.0000 C   0  0  0  0  0  0  0  0  0  0  0  0
    5.5320   -2.5715    0.0000 C   0  0  0  0  0  0  0  0  0  0  0  0
    7.2641   -2.5715    0.0000 C   0  0  0  0  0  0  0  0  0  0  0  0
    4.6381   -1.0368    0.0000 C   0  0  0  0  0  0  0  0  0  0  0  0
    5.0011    4.7625    0.0000 C   0  0  0  0  0  0  0  0  0  0  0  0
    4.6381   -3.1062    0.0000 C   0  0  0  0  0  0  0  0  0  0  0  0
    3.7320   -1.5507    0.0000 C   0  0  0  0  0  0  0  0  0  0  0  0
    3.7320   -2.5923    0.0000 C   0  0  0  0  0  0  0  0  0  0  0  0
    4.4133    5.5715    0.0000 C   0  0  0  0  0  0  0  0  0  0  0  0
    4.1921    4.1747    0.0000 C   0  0  0  0  0  0  0  0  0  0  0  0
    5.8101    5.3503    0.0000 C   0  0  0  0  0  0  0  0  0  0  0  0
    8.1301   -4.0715    0.0000 C   0  0  0  0  0  0  0  0  0  0  0  0
    8.9962   -4.5715    0.0000 C   0  0  0  0  0  0  0  0  0  0  0  0
    8.9962   -5.5715    0.0000 C   0  0  0  0  0  0  0  0  0  0  0  0
    9.8622   -4.0715    0.0000 C   0  0  0  0  0  0  0  0  0  0  0  0
    2.0000   -2.5990    0.0000 C   0  0  0  0  0  0  0  0  0  0  0  0
   12.3783    0.6279    0.0000 H   0  0  0  0  0  0  0  0  0  0  0  0
   11.6189    1.1941    0.0000 H   0  0  0  0  0  0  0  0  0  0  0  0
   10.7511    0.8077    0.0000 H   0  0  0  0  0  0  0  0  0  0  0  0
    9.8836   -0.7548    0.0000 H   0  0  0  0  0  0  0  0  0  0  0  0
   13.4028   -0.6219    0.0000 H   0  0  0  0  0  0  0  0  0  0  0  0
    9.1844    1.2849    0.0000 H   0  0  0  0  0  0  0  0  0  0  0  0
    7.8676   -0.5152    0.0000 H   0  0  0  0  0  0  0  0  0  0  0  0
    8.6792   -0.3427    0.0000 H   0  0  0  0  0  0  0  0  0  0  0  0
    6.7441    0.7662    0.0000 H   0  0  0  0  0  0  0  0  0  0  0  0
    7.3038    2.0396    0.0000 H   0  0  0  0  0  0  0  0  0  0  0  0
    6.7486    1.4230    0.0000 H   0  0  0  0  0  0  0  0  0  0  0  0
   14.3550    0.6887    0.0000 H   0  0  0  0  0  0  0  0  0  0  0  0
   13.4862    1.3199    0.0000 H   0  0  0  0  0  0  0  0  0  0  0  0
    7.8013    3.8551    0.0000 H   0  0  0  0  0  0  0  0  0  0  0  0
   12.8960   -1.9422    0.0000 H   0  0  0  0  0  0  0  0  0  0  0  0
    6.9190    2.6826    0.0000 H   0  0  0  0  0  0  0  0  0  0  0  0
    9.5456    4.9284    0.0000 H   0  0  0  0  0  0  0  0  0  0  0  0
    9.2314    5.7470    0.0000 H   0  0  0  0  0  0  0  0  0  0  0  0
    8.4128    5.4328    0.0000 H   0  0  0  0  0  0  0  0  0  0  0  0
    7.9111    5.2402    0.0000 H   0  0  0  0  0  0  0  0  0  0  0  0
    7.0925    4.9260    0.0000 H   0  0  0  0  0  0  0  0  0  0  0  0
    7.4067    4.1074    0.0000 H   0  0  0  0  0  0  0  0  0  0  0  0
    9.2338    3.2939    0.0000 H   0  0  0  0  0  0  0  0  0  0  0  0
   10.0524    3.6081    0.0000 H   0  0  0  0  0  0  0  0  0  0  0  0
    9.7382    4.4267    0.0000 H   0  0  0  0  0  0  0  0  0  0  0  0
    7.8010   -1.2615    0.0000 H   0  0  0  0  0  0  0  0  0  0  0  0
    4.6453   -0.4169    0.0000 H   0  0  0  0  0  0  0  0  0  0  0  0
    4.6453   -3.7261    0.0000 H   0  0  0  0  0  0  0  0  0  0  0  0
    3.1963   -1.2386    0.0000 H   0  0  0  0  0  0  0  0  0  0  0  0
    4.9149    5.9359    0.0000 H   0  0  0  0  0  0  0  0  0  0  0  0
    4.0489    6.0731    0.0000 H   0  0  0  0  0  0  0  0  0  0  0  0
    3.9117    5.2071    0.0000 H   0  0  0  0  0  0  0  0  0  0  0  0
    3.8277    4.6763    0.0000 H   0  0  0  0  0  0  0  0  0  0  0  0
    3.6905    3.8103    0.0000 H   0  0  0  0  0  0  0  0  0  0  0  0
    4.5565    3.6731    0.0000 H   0  0  0  0  0  0  0  0  0  0  0  0
    6.1746    4.8487    0.0000 H   0  0  0  0  0  0  0  0  0  0  0  0
    6.3117    5.7147    0.0000 H   0  0  0  0  0  0  0  0  0  0  0  0
    5.4457    5.8518    0.0000 H   0  0  0  0  0  0  0  0  0  0  0  0
    7.5195   -3.9638    0.0000 H   0  0  0  0  0  0  0  0  0  0  0  0
    7.9181   -4.6541    0.0000 H   0  0  0  0  0  0  0  0  0  0  0  0
    8.4592   -4.8815    0.0000 H   0  0  0  0  0  0  0  0  0  0  0  0
    8.3762   -5.5715    0.0000 H   0  0  0  0  0  0  0  0  0  0  0  0
    8.9962   -6.1915    0.0000 H   0  0  0  0  0  0  0  0  0  0  0  0
    9.6162   -5.5715    0.0000 H   0  0  0  0  0  0  0  0  0  0  0  0
   10.1722   -4.6084    0.0000 H   0  0  0  0  0  0  0  0  0  0  0  0
   10.3991   -3.7615    0.0000 H   0  0  0  0  0  0  0  0  0  0  0  0
    9.5522   -3.5346    0.0000 H   0  0  0  0  0  0  0  0  0  0  0  0
    2.3079   -2.0609    0.0000 H   0  0  0  0  0  0  0  0  0  0  0  0
    1.4619   -2.2911    0.0000 H   0  0  0  0  0  0  0  0  0  0  0  0
    1.6921   -3.1371    0.0000 H   0  0  0  0  0  0  0  0  0  0  0  0
  1 17  1  0  0  0  0
  1 64  1  0  0  0  0
  2 17  2  0  0  0  0
 22  3  1  1  0  0  0
  3 31  1  0  0  0  0
  4 20  2  0  0  0  0
  5 24  2  0  0  0  0
  6 32  1  0  0  0  0
  6 38  1  0  0  0  0
  7 32  2  0  0  0  0
  8 36  1  0  0  0  0
  8 45  1  0  0  0  0
  9 41  1  0  0  0  0
  9 49  1  0  0  0  0
 10 14  1  0  0  0  0
 10 20  1  0  0  0  0
 10 53  1  0  0  0  0
 11 19  1  0  0  0  0
 11 23  1  0  0  0  0
 11 24  1  0  0  0  0
 26 12  1  1  0  0  0
 12 32  1  0  0  0  0
 12 65  1  0  0  0  0
 13 35  1  0  0  0  0
 13 36  2  0  0  0  0
 14 15  1  0  0  0  0
 14 16  1  0  0  0  0
 14 17  1  0  0  0  0
 15 16  1  0  0  0  0
 15 18  1  6  0  0  0
 15 50  1  0  0  0  0
 16 51  1  0  0  0  0
 16 52  1  0  0  0  0
 18 25  2  0  0  0  0
 18 54  1  0  0  0  0
 19 20  1  6  0  0  0
 19 21  1  0  0  0  0
 19 55  1  0  0  0  0
 21 22  1  0  0  0  0
 21 56  1  0  0  0  0
 21 57  1  0  0  0  0
 22 23  1  0  0  0  0
 22 58  1  0  0  0  0
 23 59  1  0  0  0  0
 23 60  1  0  0  0  0
 24 26  1  0  0  0  0
 25 61  1  0  0  0  0
 25 62  1  0  0  0  0
 26 27  1  0  0  0  0
 26 63  1  0  0  0  0
 27 28  1  0  0  0  0
 27 29  1  0  0  0  0
 27 30  1  0  0  0  0
 28 66  1  0  0  0  0
 28 67  1  0  0  0  0
 28 68  1  0  0  0  0
 29 69  1  0  0  0  0
 29 70  1  0  0  0  0
 29 71  1  0  0  0  0
 30 72  1  0  0  0  0
 30 73  1  0  0  0  0
 30 74  1  0  0  0  0
 31 33  1  0  0  0  0
 31 34  2  0  0  0  0
 33 35  2  0  0  0  0
 33 37  1  0  0  0  0
 34 36  1  0  0  0  0
 34 75  1  0  0  0  0
 35 39  1  0  0  0  0
 37 40  2  0  0  0  0
 37 76  1  0  0  0  0
 38 42  1  0  0  0  0
 38 43  1  0  0  0  0
 38 44  1  0  0  0  0
 39 41  2  0  0  0  0
 39 77  1  0  0  0  0
 40 41  1  0  0  0  0
 40 78  1  0  0  0  0
 42 79  1  0  0  0  0
 42 80  1  0  0  0  0
 42 81  1  0  0  0  0
 43 82  1  0  0  0  0
 43 83  1  0  0  0  0
 43 84  1  0  0  0  0
 44 85  1  0  0  0  0
 44 86  1  0  0  0  0
 44 87  1  0  0  0  0
 45 46  1  0  0  0  0
 45 88  1  0  0  0  0
 45 89  1  0  0  0  0
 46 47  1  0  0  0  0
 46 48  1  0  0  0  0
 46 90  1  0  0  0  0
 47 91  1  0  0  0  0
 47 92  1  0  0  0  0
 47 93  1  0  0  0  0
 48 94  1  0  0  0  0
 48 95  1  0  0  0  0
 48 96  1  0  0  0  0
 49 97  1  0  0  0  0
 49 98  1  0  0  0  0
 49 99  1  0  0  0  0
M  END
> <PUBCHEM_COMPOUND_CID>
500751
> <PUBCHEM_COMPOUND_CANONICALIZED>
1
> <PUBCHEM_CACTVS_COMPLEXITY>
1230
> <PUBCHEM_CACTVS_HBOND_ACCEPTOR>
10
> <PUBCHEM_CACTVS_HBOND_DONOR>
3
> <PUBCHEM_CACTVS_ROTATABLE_BOND>
15
> <PUBCHEM_CACTVS_SUBSKEYS>
AAADcfB/vAAAAAAAAAAAAAAAGAAAAWAAAAA8QAAAAAAAAACx8AAAHgAQCAAAD/zhngYyzvPIFgCoAyXyXACCiCAhIiAImKG+bJkOZ/LEsbufeCjn1h3Y6Ae68a8PIAAAAgACAABAAAAEAAQAAAAAAAAAAA==
> <PUBCHEM_IUPAC_OPENEYE_NAME>
(2R)-1-[[(2S,4R)-1-[(2S)-2-(tert-butoxycarbonylamino)-3,3-dimethyl-butanoyl]-4-[(2-isobutoxy-7-methoxy-4-quinolyl)oxy]pyrrolidine-2-carbonyl]amino]-2-vinyl-cyclopropanecarboxylic acid
> <PUBCHEM_IUPAC_CAS_NAME>
(2R)-1-[[[(2S,4R)-1-[(2S)-3,3-dimethyl-2-[[(2-methylpropan-2-yl)oxy-oxomethyl]amino]-1-oxobutyl]-4-[[7-methoxy-2-(2-methylpropoxy)-4-quinolinyl]oxy]-2-pyrrolidinyl]-oxomethyl]amino]-2-ethenyl-1-cyclopropanecarboxylic acid
> <PUBCHEM_IUPAC_NAME_MARKUP>
(2<I>R</I>)-1-[[(2<I>S</I>,4<I>R</I>)-1-[(2<I>S</I>)-3,3-dimethyl-2-[(2-methylpropan-2-yl)oxycarbonylamino]butanoyl]-4-[7-methoxy-2-(2-methylpropoxy)quinolin-4-yl]oxypyrrolidine-2-carbonyl]amino]-2-ethenylcyclopropane-1-carboxylic acid
> <PUBCHEM_IUPAC_NAME>
(2R)-1-[[(2S,4R)-1-[(2S)-3,3-dimethyl-2-[(2-methylpropan-2-yl)oxycarbonylamino]butanoyl]-4-[7-methoxy-2-(2-methylpropoxy)quinolin-4-yl]oxypyrrolidine-2-carbonyl]amino]-2-ethenylcyclopropane-1-carboxylic acid
> <PUBCHEM_IUPAC_SYSTEMATIC_NAME>
(2R)-1-[[(2S,4R)-1-[(2S)-3,3-dimethyl-2-[(2-methylpropan-2-yl)oxycarbonylamino]butanoyl]-4-[7-methoxy-2-(2-methylpropoxy)quinolin-4-yl]oxy-pyrrolidin-2-yl]carbonylamino]-2-ethenyl-cyclopropane-1-carboxylic acid
> <PUBCHEM_IUPAC_TRADITIONAL_NAME>
(2R)-1-[[(2S,4R)-1-[(2S)-2-(tert-butoxycarbonylamino)-3,3-dimethyl-butanoyl]-4-[(2-isobutoxy-7-methoxy-4-quinolyl)oxy]prolyl]amino]-2-vinyl-cyclopropanecarboxylic acid
> <PUBCHEM_IUPAC_INCHI>
InChI=1S/C36H50N4O9/c1-11-21-17-36(21,32(43)44)39-30(41)26-15-23(18-40(26)31(42)29(34(4,5)6)38-33(45)49-35(7,8)9)48-27-16-28(47-19-20(2)3)37-25-14-22(46-10)12-13-24(25)27/h11-14,16,20-21,23,26,29H,1,15,17-19H2,2-10H3,(H,38,45)(H,39,41)(H,43,44)/t21-,23+,26-,29+,36?/m0/s1
> <PUBCHEM_IUPAC_INCHIKEY>
TYEKUIUUSWIWPJ-ZLEFTDIZSA-N
> <PUBCHEM_XLOGP3_AA>
5.8
> <PUBCHEM_EXACT_MASS>
682.35777919
> <PUBCHEM_MOLECULAR_FORMULA>
C36H50N4O9
> <PUBCHEM_MOLECULAR_WEIGHT>
682.8
> <PUBCHEM_OPENEYE_CAN_SMILES>
CC(C)COC1=NC2=C(C=CC(=C2)OC)C(=C1)OC3CC(N(C3)C(=O)C(C(C)(C)C)NC(=O)OC(C)(C)C)C(=O)NC4(CC4C=C)C(=O)O
> <PUBCHEM_OPENEYE_ISO_SMILES>
CC(C)COC1=NC2=C(C=CC(=C2)OC)C(=C1)O[C@@H]3C[C@H](N(C3)C(=O)[C@H](C(C)(C)C)NC(=O)OC(C)(C)C)C(=O)NC4(C[C@@H]4C=C)C(=O)O
> <PUBCHEM_CACTVS_TPSA>
166
> <PUBCHEM_MONOISOTOPIC_WEIGHT>
682.35777919
> <PUBCHEM_TOTAL_CHARGE>
0
> <PUBCHEM_HEAVY_ATOM_COUNT>
49
> <PUBCHEM_ATOM_DEF_STEREO_COUNT>
4
> <PUBCHEM_ATOM_UDEF_STEREO_COUNT>
1
> <PUBCHEM_BOND_DEF_STEREO_COUNT>
0
> <PUBCHEM_BOND_UDEF_STEREO_COUNT>
0
> <PUBCHEM_ISOTOPIC_ATOM_COUNT>
0
> <PUBCHEM_COMPONENT_COUNT>
1
> <PUBCHEM_CACTVS_TAUTO_COUNT>
-1
> <PUBCHEM_COORDINATE_TYPE>
1
5
255
> <PUBCHEM_BONDANNOTATIONS>
26  12  5
13  35  8
13  36  8
14  17  3
15  18  6
19  20  6
22  3  5
31  33  8
31  34  8
33  35  8
33  37  8
34  36  8
35  39  8
37  40  8
39  41  8
40  41  8
$$$$
