500772
  -OEChem-10302200282D
 93 98  0     1  0  0  0  0  0999 V2000
    4.4133    3.8225    0.0000 F   0  0  0  0  0  0  0  0  0  0  0  0
    5.3033    4.9215    0.0000 F   0  0  0  0  0  0  0  0  0  0  0  0
    5.5124    2.9325    0.0000 F   0  0  0  0  0  0  0  0  0  0  0  0
   12.8249   -1.4022    0.0000 O   0  0  0  0  0  0  0  0  0  0  0  0
   11.4236   -0.3841    0.0000 O   0  0  0  0  0  0  0  0  0  0  0  0
    6.3981   -1.8205    0.0000 O   0  0  0  0  0  0  0  0  0  0  0  0
   10.4291   -0.2796    0.0000 O   0  0  0  0  0  0  0  0  0  0  0  0
    9.7480    0.9000    0.0000 O   0  0  0  0  0  0  0  0  0  0  0  0
    2.8680   -4.8446    0.0000 O   0  0  0  0  0  0  0  0  0  0  0  0
   10.2480   -2.0022    0.0000 N   0  0  0  0  0  0  0  0  0  0  0  0
    8.3468   -0.1181    0.0000 N   0  0  0  0  0  0  0  0  0  0  0  0
    8.5725    2.5180    0.0000 N   0  0  0  0  0  0  0  0  0  0  0  0
    6.3981   -4.8205    0.0000 N   0  0  0  0  0  0  0  0  0  0  0  0
    6.2213    5.7541    0.0000 N   0  0  0  0  0  0  0  0  0  0  0  0
   11.2426   -2.1067    0.0000 C   0  0  3  0  0  0  0  0  0  0  0  0
   11.1380   -3.1012    0.0000 C   0  0  2  0  0  0  0  0  0  0  0  0
   12.0516   -2.6945    0.0000 C   0  0  0  0  0  0  0  0  0  0  0  0
   11.8303   -1.2977    0.0000 C   0  0  0  0  0  0  0  0  0  0  0  0
   10.5502   -3.9102    0.0000 C   0  0  0  0  0  0  0  0  0  0  0  0
    8.8468   -0.9841    0.0000 C   0  0  2  0  0  0  0  0  0  0  0  0
    9.8413   -1.0886    0.0000 C   0  0  0  0  0  0  0  0  0  0  0  0
    8.1776   -1.7272    0.0000 C   0  0  0  0  0  0  0  0  0  0  0  0
    7.2641   -1.3205    0.0000 C   0  0  2  0  0  0  0  0  0  0  0  0
    7.3686   -0.3260    0.0000 C   0  0  0  0  0  0  0  0  0  0  0  0
   10.9570   -4.8238    0.0000 C   0  0  0  0  0  0  0  0  0  0  0  0
    8.7535    0.7955    0.0000 C   0  0  0  0  0  0  0  0  0  0  0  0
    8.1657    1.6045    0.0000 C   0  0  2  0  0  0  0  0  0  0  0  0
    7.1712    1.5000    0.0000 C   0  0  0  0  0  0  0  0  0  0  0  0
    6.3981   -2.8205    0.0000 C   0  0  0  0  0  0  0  0  0  0  0  0
    6.7645    0.5864    0.0000 C   0  0  0  0  0  0  0  0  0  0  0  0
    6.5834    2.3090    0.0000 C   0  0  0  0  0  0  0  0  0  0  0  0
    5.5320   -3.3205    0.0000 C   0  0  0  0  0  0  0  0  0  0  0  0
    7.9847    3.3270    0.0000 C   0  0  0  0  0  0  0  0  0  0  0  0
    7.2641   -3.3205    0.0000 C   0  0  0  0  0  0  0  0  0  0  0  0
    5.5320   -4.3205    0.0000 C   0  0  0  0  0  0  0  0  0  0  0  0
    7.2641   -4.3205    0.0000 C   0  0  0  0  0  0  0  0  0  0  0  0
    6.9902    3.2225    0.0000 C   0  0  0  0  0  0  0  0  0  0  0  0
    4.6381   -2.7858    0.0000 C   0  0  0  0  0  0  0  0  0  0  0  0
    8.3914    4.2406    0.0000 C   0  0  0  0  0  0  0  0  0  0  0  0
    4.6381   -4.8552    0.0000 C   0  0  0  0  0  0  0  0  0  0  0  0
    6.4024    4.0315    0.0000 C   0  0  0  0  0  0  0  0  0  0  0  0
    3.7320   -3.2997    0.0000 C   0  0  0  0  0  0  0  0  0  0  0  0
    7.8036    5.0496    0.0000 C   0  0  0  0  0  0  0  0  0  0  0  0
    8.1301   -4.8205    0.0000 C   0  0  0  0  0  0  0  0  0  0  0  0
    6.8091    4.9451    0.0000 C   0  0  0  0  0  0  0  0  0  0  0  0
    3.7320   -4.3413    0.0000 C   0  0  0  0  0  0  0  0  0  0  0  0
    5.4078    3.9270    0.0000 C   0  0  0  0  0  0  0  0  0  0  0  0
    8.9962   -4.3205    0.0000 C   0  0  0  0  0  0  0  0  0  0  0  0
    8.1301   -5.8205    0.0000 C   0  0  0  0  0  0  0  0  0  0  0  0
    9.8622   -4.8205    0.0000 C   0  0  0  0  0  0  0  0  0  0  0  0
    8.9962   -6.3205    0.0000 C   0  0  0  0  0  0  0  0  0  0  0  0
    9.8622   -5.8205    0.0000 C   0  0  0  0  0  0  0  0  0  0  0  0
    2.0000   -4.3480    0.0000 C   0  0  0  0  0  0  0  0  0  0  0  0
   10.5592   -2.8790    0.0000 H   0  0  0  0  0  0  0  0  0  0  0  0
   12.3983   -3.2085    0.0000 H   0  0  0  0  0  0  0  0  0  0  0  0
   12.4976   -2.2638    0.0000 H   0  0  0  0  0  0  0  0  0  0  0  0
    9.8836   -2.5038    0.0000 H   0  0  0  0  0  0  0  0  0  0  0  0
    9.9336   -3.8454    0.0000 H   0  0  0  0  0  0  0  0  0  0  0  0
    9.1844   -0.4641    0.0000 H   0  0  0  0  0  0  0  0  0  0  0  0
    7.8676   -2.2642    0.0000 H   0  0  0  0  0  0  0  0  0  0  0  0
    8.6792   -2.0917    0.0000 H   0  0  0  0  0  0  0  0  0  0  0  0
    6.7441   -0.9828    0.0000 H   0  0  0  0  0  0  0  0  0  0  0  0
    7.3038    0.2906    0.0000 H   0  0  0  0  0  0  0  0  0  0  0  0
    6.7486   -0.3260    0.0000 H   0  0  0  0  0  0  0  0  0  0  0  0
   10.5926   -5.3254    0.0000 H   0  0  0  0  0  0  0  0  0  0  0  0
   11.5736   -4.8886    0.0000 H   0  0  0  0  0  0  0  0  0  0  0  0
   13.1893   -0.9006    0.0000 H   0  0  0  0  0  0  0  0  0  0  0  0
    7.8013    2.1061    0.0000 H   0  0  0  0  0  0  0  0  0  0  0  0
    7.5356    0.9984    0.0000 H   0  0  0  0  0  0  0  0  0  0  0  0
    9.1891    2.5828    0.0000 H   0  0  0  0  0  0  0  0  0  0  0  0
    6.1981    0.8386    0.0000 H   0  0  0  0  0  0  0  0  0  0  0  0
    6.5123    0.0200    0.0000 H   0  0  0  0  0  0  0  0  0  0  0  0
    7.3309    0.3342    0.0000 H   0  0  0  0  0  0  0  0  0  0  0  0
    7.0850    2.6734    0.0000 H   0  0  0  0  0  0  0  0  0  0  0  0
    6.2190    2.8106    0.0000 H   0  0  0  0  0  0  0  0  0  0  0  0
    6.0818    1.9446    0.0000 H   0  0  0  0  0  0  0  0  0  0  0  0
    7.8010   -3.0105    0.0000 H   0  0  0  0  0  0  0  0  0  0  0  0
    6.7380    2.6561    0.0000 H   0  0  0  0  0  0  0  0  0  0  0  0
    4.6453   -2.1659    0.0000 H   0  0  0  0  0  0  0  0  0  0  0  0
    9.0080    4.3054    0.0000 H   0  0  0  0  0  0  0  0  0  0  0  0
    4.6453   -5.4751    0.0000 H   0  0  0  0  0  0  0  0  0  0  0  0
    3.1963   -2.9876    0.0000 H   0  0  0  0  0  0  0  0  0  0  0  0
    8.0558    5.6160    0.0000 H   0  0  0  0  0  0  0  0  0  0  0  0
    8.9962   -3.7005    0.0000 H   0  0  0  0  0  0  0  0  0  0  0  0
    7.5932   -6.1305    0.0000 H   0  0  0  0  0  0  0  0  0  0  0  0
    6.4735    6.3205    0.0000 H   0  0  0  0  0  0  0  0  0  0  0  0
    5.6047    5.6893    0.0000 H   0  0  0  0  0  0  0  0  0  0  0  0
   10.3991   -4.5105    0.0000 H   0  0  0  0  0  0  0  0  0  0  0  0
    8.9962   -6.9405    0.0000 H   0  0  0  0  0  0  0  0  0  0  0  0
   10.3991   -6.1305    0.0000 H   0  0  0  0  0  0  0  0  0  0  0  0
    2.3079   -3.8099    0.0000 H   0  0  0  0  0  0  0  0  0  0  0  0
    1.4619   -4.0401    0.0000 H   0  0  0  0  0  0  0  0  0  0  0  0
    1.6921   -4.8861    0.0000 H   0  0  0  0  0  0  0  0  0  0  0  0
  1 47  1  0  0  0  0
  2 47  1  0  0  0  0
  3 47  1  0  0  0  0
  4 18  1  0  0  0  0
  4 67  1  0  0  0  0
  5 18  2  0  0  0  0
 23  6  1  1  0  0  0
  6 29  1  0  0  0  0
  7 21  2  0  0  0  0
  8 26  2  0  0  0  0
  9 46  1  0  0  0  0
  9 53  1  0  0  0  0
 10 15  1  0  0  0  0
 10 21  1  0  0  0  0
 10 57  1  0  0  0  0
 11 20  1  0  0  0  0
 11 24  1  0  0  0  0
 11 26  1  0  0  0  0
 27 12  1  6  0  0  0
 12 33  1  0  0  0  0
 12 70  1  0  0  0  0
 13 35  1  0  0  0  0
 13 36  2  0  0  0  0
 14 45  1  0  0  0  0
 14 86  1  0  0  0  0
 14 87  1  0  0  0  0
 15 16  1  0  0  0  0
 15 17  1  0  0  0  0
 15 18  1  0  0  0  0
 16 17  1  0  0  0  0
 16 19  1  6  0  0  0
 16 54  1  0  0  0  0
 17 55  1  0  0  0  0
 17 56  1  0  0  0  0
 19 25  2  0  0  0  0
 19 58  1  0  0  0  0
 20 21  1  6  0  0  0
 20 22  1  0  0  0  0
 20 59  1  0  0  0  0
 22 23  1  0  0  0  0
 22 60  1  0  0  0  0
 22 61  1  0  0  0  0
 23 24  1  0  0  0  0
 23 62  1  0  0  0  0
 24 63  1  0  0  0  0
 24 64  1  0  0  0  0
 25 65  1  0  0  0  0
 25 66  1  0  0  0  0
 26 27  1  0  0  0  0
 27 28  1  0  0  0  0
 27 68  1  0  0  0  0
 28 30  1  0  0  0  0
 28 31  1  0  0  0  0
 28 69  1  0  0  0  0
 29 32  1  0  0  0  0
 29 34  2  0  0  0  0
 30 71  1  0  0  0  0
 30 72  1  0  0  0  0
 30 73  1  0  0  0  0
 31 74  1  0  0  0  0
 31 75  1  0  0  0  0
 31 76  1  0  0  0  0
 32 35  2  0  0  0  0
 32 38  1  0  0  0  0
 33 37  2  0  0  0  0
 33 39  1  0  0  0  0
 34 36  1  0  0  0  0
 34 77  1  0  0  0  0
 35 40  1  0  0  0  0
 36 44  1  0  0  0  0
 37 41  1  0  0  0  0
 37 78  1  0  0  0  0
 38 42  2  0  0  0  0
 38 79  1  0  0  0  0
 39 43  2  0  0  0  0
 39 80  1  0  0  0  0
 40 46  2  0  0  0  0
 40 81  1  0  0  0  0
 41 45  2  0  0  0  0
 41 47  1  0  0  0  0
 42 46  1  0  0  0  0
 42 82  1  0  0  0  0
 43 45  1  0  0  0  0
 43 83  1  0  0  0  0
 44 48  2  0  0  0  0
 44 49  1  0  0  0  0
 48 50  1  0  0  0  0
 48 84  1  0  0  0  0
 49 51  2  0  0  0  0
 49 85  1  0  0  0  0
 50 52  2  0  0  0  0
 50 88  1  0  0  0  0
 51 52  1  0  0  0  0
 51 89  1  0  0  0  0
 52 90  1  0  0  0  0
 53 91  1  0  0  0  0
 53 92  1  0  0  0  0
 53 93  1  0  0  0  0
M  END
> <PUBCHEM_COMPOUND_CID>
500772
> <PUBCHEM_COMPOUND_CANONICALIZED>
1
> <PUBCHEM_CACTVS_COMPLEXITY>
1330
> <PUBCHEM_CACTVS_HBOND_ACCEPTOR>
12
> <PUBCHEM_CACTVS_HBOND_DONOR>
4
> <PUBCHEM_CACTVS_ROTATABLE_BOND>
12
> <PUBCHEM_CACTVS_SUBSKEYS>
AAADcfB/uYAAAAAAAAAAAAAAGAAAAWAAAAA8YMEAAAAAAACx9AAAHwAQCAAADbzhnhYyzvPIFgCoAyXyXACCiCAhIiAImKG+bJgOZvLEsbuXeCjm1hnY6Ae68e8OIACAQgACAABAAQCEAAQAAAAAAAAAAA==
> <PUBCHEM_IUPAC_OPENEYE_NAME>
(2R)-1-[[(2S,4R)-1-[(2S)-2-[4-amino-3-(trifluoromethyl)anilino]-3-methyl-butanoyl]-4-[(7-methoxy-2-phenyl-4-quinolyl)oxy]pyrrolidine-2-carbonyl]amino]-2-vinyl-cyclopropanecarboxylic acid
> <PUBCHEM_IUPAC_CAS_NAME>
(2R)-1-[[[(2S,4R)-1-[(2S)-2-[4-amino-3-(trifluoromethyl)anilino]-3-methyl-1-oxobutyl]-4-[(7-methoxy-2-phenyl-4-quinolinyl)oxy]-2-pyrrolidinyl]-oxomethyl]amino]-2-ethenyl-1-cyclopropanecarboxylic acid
> <PUBCHEM_IUPAC_NAME_MARKUP>
(2<I>R</I>)-1-[[(2<I>S</I>,4<I>R</I>)-1-[(2<I>S</I>)-2-[4-amino-3-(trifluoromethyl)anilino]-3-methylbutanoyl]-4-(7-methoxy-2-phenylquinolin-4-yl)oxypyrrolidine-2-carbonyl]amino]-2-ethenylcyclopropane-1-carboxylic acid
> <PUBCHEM_IUPAC_NAME>
(2R)-1-[[(2S,4R)-1-[(2S)-2-[4-amino-3-(trifluoromethyl)anilino]-3-methylbutanoyl]-4-(7-methoxy-2-phenylquinolin-4-yl)oxypyrrolidine-2-carbonyl]amino]-2-ethenylcyclopropane-1-carboxylic acid
> <PUBCHEM_IUPAC_SYSTEMATIC_NAME>
(2R)-1-[[(2S,4R)-1-[(2S)-2-[[4-azanyl-3-(trifluoromethyl)phenyl]amino]-3-methyl-butanoyl]-4-(7-methoxy-2-phenyl-quinolin-4-yl)oxy-pyrrolidin-2-yl]carbonylamino]-2-ethenyl-cyclopropane-1-carboxylic acid
> <PUBCHEM_IUPAC_TRADITIONAL_NAME>
(2R)-1-[[(2S,4R)-1-[(2S)-2-[4-amino-3-(trifluoromethyl)anilino]-3-methyl-butanoyl]-4-[(7-methoxy-2-phenyl-4-quinolyl)oxy]prolyl]amino]-2-vinyl-cyclopropanecarboxylic acid
> <PUBCHEM_IUPAC_INCHI>
InChI=1S/C39H40F3N5O6/c1-5-23-19-38(23,37(50)51)46-35(48)32-17-26(20-47(32)36(49)34(21(2)3)44-24-11-14-29(43)28(15-24)39(40,41)42)53-33-18-30(22-9-7-6-8-10-22)45-31-16-25(52-4)12-13-27(31)33/h5-16,18,21,23,26,32,34,44H,1,17,19-20,43H2,2-4H3,(H,46,48)(H,50,51)/t23-,26+,32-,34-,38?/m0/s1
> <PUBCHEM_IUPAC_INCHIKEY>
JPTFKUJIEMLAEU-QPTMOBQQSA-N
> <PUBCHEM_XLOGP3_AA>
6.6
> <PUBCHEM_EXACT_MASS>
731.29306850
> <PUBCHEM_MOLECULAR_FORMULA>
C39H40F3N5O6
> <PUBCHEM_MOLECULAR_WEIGHT>
731.8
> <PUBCHEM_OPENEYE_CAN_SMILES>
CC(C)C(C(=O)N1CC(CC1C(=O)NC2(CC2C=C)C(=O)O)OC3=CC(=NC4=C3C=CC(=C4)OC)C5=CC=CC=C5)NC6=CC(=C(C=C6)N)C(F)(F)F
> <PUBCHEM_OPENEYE_ISO_SMILES>
CC(C)[C@@H](C(=O)N1C[C@@H](C[C@H]1C(=O)NC2(C[C@@H]2C=C)C(=O)O)OC3=CC(=NC4=C3C=CC(=C4)OC)C5=CC=CC=C5)NC6=CC(=C(C=C6)N)C(F)(F)F
> <PUBCHEM_CACTVS_TPSA>
156
> <PUBCHEM_MONOISOTOPIC_WEIGHT>
731.29306850
> <PUBCHEM_TOTAL_CHARGE>
0
> <PUBCHEM_HEAVY_ATOM_COUNT>
53
> <PUBCHEM_ATOM_DEF_STEREO_COUNT>
4
> <PUBCHEM_ATOM_UDEF_STEREO_COUNT>
1
> <PUBCHEM_BOND_DEF_STEREO_COUNT>
0
> <PUBCHEM_BOND_UDEF_STEREO_COUNT>
0
> <PUBCHEM_ISOTOPIC_ATOM_COUNT>
0
> <PUBCHEM_COMPONENT_COUNT>
1
> <PUBCHEM_CACTVS_TAUTO_COUNT>
-1
> <PUBCHEM_COORDINATE_TYPE>
1
5
255
> <PUBCHEM_BONDANNOTATIONS>
27  12  6
13  35  8
13  36  8
15  18  3
16  19  6
20  21  6
29  32  8
29  34  8
32  35  8
32  38  8
33  37  8
33  39  8
34  36  8
35  40  8
37  41  8
38  42  8
39  43  8
40  46  8
41  45  8
42  46  8
43  45  8
44  48  8
44  49  8
48  50  8
49  51  8
50  52  8
51  52  8
23  6  5
$$$$
