500701
  -OEChem-10302200282D
 97101  0     1  0  0  0  0  0999 V2000
    8.2417    5.4012    0.0000 O   0  0  0  0  0  0  0  0  0  0  0  0
    8.4227    3.6786    0.0000 O   0  0  0  0  0  0  0  0  0  0  0  0
    4.6660    0.0445    0.0000 O   0  0  0  0  0  0  0  0  0  0  0  0
    8.0160    2.7650    0.0000 O   0  0  0  0  0  0  0  0  0  0  0  0
    8.6970    1.5854    0.0000 O   0  0  0  0  0  0  0  0  0  0  0  0
    9.3295   -1.9642    0.0000 O   0  0  0  0  0  0  0  0  0  0  0  0
    7.7472   -2.6687    0.0000 O   0  0  0  0  0  0  0  0  0  0  0  0
    6.4337    3.4695    0.0000 N   0  0  0  0  0  0  0  0  0  0  0  0
    7.1147    0.8809    0.0000 N   0  0  0  0  0  0  0  0  0  0  0  0
    7.9282   -0.9461    0.0000 N   0  0  0  0  0  0  0  0  0  0  0  0
    6.3981   -3.9555    0.0000 N   0  0  0  0  0  0  0  0  0  0  0  0
    4.6660   -2.9555    0.0000 N   0  0  0  0  0  0  0  0  0  0  0  0
    6.8404    4.3831    0.0000 C   0  0  3  0  0  0  0  0  0  0  0  0
    5.9269    4.7898    0.0000 C   0  0  2  0  0  0  0  0  0  0  0  0
    6.7359    5.3776    0.0000 C   0  0  0  0  0  0  0  0  0  0  0  0
    7.8350    4.4876    0.0000 C   0  0  0  0  0  0  0  0  0  0  0  0
    4.9324    4.6853    0.0000 C   0  0  0  0  0  0  0  0  0  0  0  0
    6.6147    1.7470    0.0000 C   0  0  2  0  0  0  0  0  0  0  0  0
    7.0215    2.6605    0.0000 C   0  0  0  0  0  0  0  0  0  0  0  0
    5.6366    1.5391    0.0000 C   0  0  0  0  0  0  0  0  0  0  0  0
    5.5321    0.5445    0.0000 C   0  0  2  0  0  0  0  0  0  0  0  0
    6.4456    0.1378    0.0000 C   0  0  0  0  0  0  0  0  0  0  0  0
    8.1093    0.7764    0.0000 C   0  0  0  0  0  0  0  0  0  0  0  0
    4.3446    5.4943    0.0000 C   0  0  0  0  0  0  0  0  0  0  0  0
    8.5160   -0.1371    0.0000 C   0  0  2  0  0  0  0  0  0  0  0  0
    9.5105   -0.2417    0.0000 C   0  0  0  0  0  0  0  0  0  0  0  0
   10.5050   -0.3462    0.0000 C   0  0  0  0  0  0  0  0  0  0  0  0
    9.6150    0.7529    0.0000 C   0  0  0  0  0  0  0  0  0  0  0  0
    9.4060   -1.2362    0.0000 C   0  0  0  0  0  0  0  0  0  0  0  0
    4.6660   -0.9555    0.0000 C   0  0  0  0  0  0  0  0  0  0  0  0
    3.8000   -1.4555    0.0000 C   0  0  0  0  0  0  0  0  0  0  0  0
    5.5321   -1.4555    0.0000 C   0  0  0  0  0  0  0  0  0  0  0  0
    8.3349   -1.8597    0.0000 C   0  0  0  0  0  0  0  0  0  0  0  0
    5.5321   -2.4555    0.0000 C   0  0  0  0  0  0  0  0  0  0  0  0
    6.3981   -2.9555    0.0000 C   0  0  0  0  0  0  0  0  0  0  0  0
    5.5891   -4.5432    0.0000 C   0  0  0  0  0  0  0  0  0  0  0  0
    7.2071   -4.5432    0.0000 C   0  0  0  0  0  0  0  0  0  0  0  0
    5.8981   -5.4943    0.0000 C   0  0  0  0  0  0  0  0  0  0  0  0
    6.8981   -5.4943    0.0000 C   0  0  0  0  0  0  0  0  0  0  0  0
    3.8000   -2.4555    0.0000 C   0  0  0  0  0  0  0  0  0  0  0  0
    2.9061   -0.9208    0.0000 C   0  0  0  0  0  0  0  0  0  0  0  0
    9.7362   -2.8778    0.0000 C   0  0  0  0  0  0  0  0  0  0  0  0
    2.9061   -2.9901    0.0000 C   0  0  0  0  0  0  0  0  0  0  0  0
    2.0000   -1.4346    0.0000 C   0  0  0  0  0  0  0  0  0  0  0  0
    2.0000   -2.4763    0.0000 C   0  0  0  0  0  0  0  0  0  0  0  0
   10.1429   -3.7913    0.0000 C   0  0  0  0  0  0  0  0  0  0  0  0
   10.6497   -2.4710    0.0000 C   0  0  0  0  0  0  0  0  0  0  0  0
    8.8227   -3.2845    0.0000 C   0  0  0  0  0  0  0  0  0  0  0  0
    5.7047    5.3686    0.0000 H   0  0  0  0  0  0  0  0  0  0  0  0
    7.3319    5.5485    0.0000 H   0  0  0  0  0  0  0  0  0  0  0  0
    6.4641    5.9348    0.0000 H   0  0  0  0  0  0  0  0  0  0  0  0
    5.8171    3.4047    0.0000 H   0  0  0  0  0  0  0  0  0  0  0  0
    4.6802    4.1189    0.0000 H   0  0  0  0  0  0  0  0  0  0  0  0
    7.2339    1.7794    0.0000 H   0  0  0  0  0  0  0  0  0  0  0  0
    5.5718    2.1557    0.0000 H   0  0  0  0  0  0  0  0  0  0  0  0
    5.0166    1.5391    0.0000 H   0  0  0  0  0  0  0  0  0  0  0  0
    5.5645   -0.0746    0.0000 H   0  0  0  0  0  0  0  0  0  0  0  0
    6.1356   -0.3991    0.0000 H   0  0  0  0  0  0  0  0  0  0  0  0
    6.9472   -0.2266    0.0000 H   0  0  0  0  0  0  0  0  0  0  0  0
    4.5968    6.0607    0.0000 H   0  0  0  0  0  0  0  0  0  0  0  0
    3.7280    5.4295    0.0000 H   0  0  0  0  0  0  0  0  0  0  0  0
    7.8994   -0.0723    0.0000 H   0  0  0  0  0  0  0  0  0  0  0  0
    8.8583    5.4660    0.0000 H   0  0  0  0  0  0  0  0  0  0  0  0
    7.3116   -0.8813    0.0000 H   0  0  0  0  0  0  0  0  0  0  0  0
   10.4402   -0.9628    0.0000 H   0  0  0  0  0  0  0  0  0  0  0  0
   11.1216   -0.4110    0.0000 H   0  0  0  0  0  0  0  0  0  0  0  0
   10.5698    0.2704    0.0000 H   0  0  0  0  0  0  0  0  0  0  0  0
   10.2316    0.6881    0.0000 H   0  0  0  0  0  0  0  0  0  0  0  0
    9.6798    1.3695    0.0000 H   0  0  0  0  0  0  0  0  0  0  0  0
    8.9984    0.8177    0.0000 H   0  0  0  0  0  0  0  0  0  0  0  0
    8.7894   -1.1714    0.0000 H   0  0  0  0  0  0  0  0  0  0  0  0
    9.3412   -1.8528    0.0000 H   0  0  0  0  0  0  0  0  0  0  0  0
   10.0226   -1.3010    0.0000 H   0  0  0  0  0  0  0  0  0  0  0  0
    6.0690   -1.1455    0.0000 H   0  0  0  0  0  0  0  0  0  0  0  0
    7.0087   -3.0631    0.0000 H   0  0  0  0  0  0  0  0  0  0  0  0
    6.6101   -2.3728    0.0000 H   0  0  0  0  0  0  0  0  0  0  0  0
    5.2791   -4.0063    0.0000 H   0  0  0  0  0  0  0  0  0  0  0  0
    5.0227   -4.7954    0.0000 H   0  0  0  0  0  0  0  0  0  0  0  0
    7.7735   -4.7954    0.0000 H   0  0  0  0  0  0  0  0  0  0  0  0
    7.5171   -4.0063    0.0000 H   0  0  0  0  0  0  0  0  0  0  0  0
    5.2916   -5.6232    0.0000 H   0  0  0  0  0  0  0  0  0  0  0  0
    5.9629   -6.1109    0.0000 H   0  0  0  0  0  0  0  0  0  0  0  0
    6.8333   -6.1109    0.0000 H   0  0  0  0  0  0  0  0  0  0  0  0
    7.5045   -5.6232    0.0000 H   0  0  0  0  0  0  0  0  0  0  0  0
    2.9132   -0.3008    0.0000 H   0  0  0  0  0  0  0  0  0  0  0  0
    2.9132   -3.6101    0.0000 H   0  0  0  0  0  0  0  0  0  0  0  0
    1.4643   -1.1226    0.0000 H   0  0  0  0  0  0  0  0  0  0  0  0
    1.4643   -2.7884    0.0000 H   0  0  0  0  0  0  0  0  0  0  0  0
    9.5765   -4.0435    0.0000 H   0  0  0  0  0  0  0  0  0  0  0  0
   10.3951   -4.3577    0.0000 H   0  0  0  0  0  0  0  0  0  0  0  0
   10.7093   -3.5391    0.0000 H   0  0  0  0  0  0  0  0  0  0  0  0
   10.9019   -3.0374    0.0000 H   0  0  0  0  0  0  0  0  0  0  0  0
   11.2161   -2.2189    0.0000 H   0  0  0  0  0  0  0  0  0  0  0  0
   10.3976   -1.9046    0.0000 H   0  0  0  0  0  0  0  0  0  0  0  0
    8.5705   -2.7181    0.0000 H   0  0  0  0  0  0  0  0  0  0  0  0
    8.2563   -3.5367    0.0000 H   0  0  0  0  0  0  0  0  0  0  0  0
    9.0748   -3.8509    0.0000 H   0  0  0  0  0  0  0  0  0  0  0  0
  1 16  1  0  0  0  0
  1 63  1  0  0  0  0
  2 16  2  0  0  0  0
 21  3  1  6  0  0  0
  3 30  1  0  0  0  0
  4 19  2  0  0  0  0
  5 23  2  0  0  0  0
  6 33  1  0  0  0  0
  6 42  1  0  0  0  0
  7 33  2  0  0  0  0
  8 13  1  0  0  0  0
  8 19  1  0  0  0  0
  8 52  1  0  0  0  0
  9 18  1  0  0  0  0
  9 22  1  0  0  0  0
  9 23  1  0  0  0  0
 25 10  1  6  0  0  0
 10 33  1  0  0  0  0
 10 64  1  0  0  0  0
 11 35  1  0  0  0  0
 11 36  1  0  0  0  0
 11 37  1  0  0  0  0
 12 34  2  0  0  0  0
 12 40  1  0  0  0  0
 13 14  1  0  0  0  0
 13 15  1  0  0  0  0
 13 16  1  0  0  0  0
 14 15  1  0  0  0  0
 14 17  1  1  0  0  0
 14 49  1  0  0  0  0
 15 50  1  0  0  0  0
 15 51  1  0  0  0  0
 17 24  2  0  0  0  0
 17 53  1  0  0  0  0
 18 19  1  1  0  0  0
 18 20  1  0  0  0  0
 18 54  1  0  0  0  0
 20 21  1  0  0  0  0
 20 55  1  0  0  0  0
 20 56  1  0  0  0  0
 21 22  1  0  0  0  0
 21 57  1  0  0  0  0
 22 58  1  0  0  0  0
 22 59  1  0  0  0  0
 23 25  1  0  0  0  0
 24 60  1  0  0  0  0
 24 61  1  0  0  0  0
 25 26  1  0  0  0  0
 25 62  1  0  0  0  0
 26 27  1  0  0  0  0
 26 28  1  0  0  0  0
 26 29  1  0  0  0  0
 27 65  1  0  0  0  0
 27 66  1  0  0  0  0
 27 67  1  0  0  0  0
 28 68  1  0  0  0  0
 28 69  1  0  0  0  0
 28 70  1  0  0  0  0
 29 71  1  0  0  0  0
 29 72  1  0  0  0  0
 29 73  1  0  0  0  0
 30 31  1  0  0  0  0
 30 32  2  0  0  0  0
 31 40  1  0  0  0  0
 31 41  2  0  0  0  0
 32 34  1  0  0  0  0
 32 74  1  0  0  0  0
 34 35  1  0  0  0  0
 35 75  1  0  0  0  0
 35 76  1  0  0  0  0
 36 38  1  0  0  0  0
 36 77  1  0  0  0  0
 36 78  1  0  0  0  0
 37 39  1  0  0  0  0
 37 79  1  0  0  0  0
 37 80  1  0  0  0  0
 38 39  1  0  0  0  0
 38 81  1  0  0  0  0
 38 82  1  0  0  0  0
 39 83  1  0  0  0  0
 39 84  1  0  0  0  0
 40 43  2  0  0  0  0
 41 44  1  0  0  0  0
 41 85  1  0  0  0  0
 42 46  1  0  0  0  0
 42 47  1  0  0  0  0
 42 48  1  0  0  0  0
 43 45  1  0  0  0  0
 43 86  1  0  0  0  0
 44 45  2  0  0  0  0
 44 87  1  0  0  0  0
 45 88  1  0  0  0  0
 46 89  1  0  0  0  0
 46 90  1  0  0  0  0
 46 91  1  0  0  0  0
 47 92  1  0  0  0  0
 47 93  1  0  0  0  0
 47 94  1  0  0  0  0
 48 95  1  0  0  0  0
 48 96  1  0  0  0  0
 48 97  1  0  0  0  0
M  END
> <PUBCHEM_COMPOUND_CID>
500701
> <PUBCHEM_COMPOUND_CANONICALIZED>
1
> <PUBCHEM_CACTVS_COMPLEXITY>
1220
> <PUBCHEM_CACTVS_HBOND_ACCEPTOR>
9
> <PUBCHEM_CACTVS_HBOND_DONOR>
3
> <PUBCHEM_CACTVS_ROTATABLE_BOND>
13
> <PUBCHEM_CACTVS_SUBSKEYS>
AAADcfB/uAAAAAAAAAAAAAAAGAAAAWLAAAA8QAAAAAAAAACx8AAAHgAQCAAAD/zhngYyzvPIFgCoAyXyXACCiCAhIiAImKG+bJkOZvLEsbufeCjm1hnY6Ae6waAPAAAAAAACAAAAAAAAAAQAAAAAAAAAAA==
> <PUBCHEM_IUPAC_OPENEYE_NAME>
(2R)-1-[[(2S,4R)-1-[(2S)-2-(tert-butoxycarbonylamino)-3,3-dimethyl-butanoyl]-4-[[2-(pyrrolidin-1-ylmethyl)-4-quinolyl]oxy]pyrrolidine-2-carbonyl]amino]-2-vinyl-cyclopropanecarboxylic acid
> <PUBCHEM_IUPAC_CAS_NAME>
(2R)-1-[[[(2S,4R)-1-[(2S)-3,3-dimethyl-2-[[(2-methylpropan-2-yl)oxy-oxomethyl]amino]-1-oxobutyl]-4-[[2-(1-pyrrolidinylmethyl)-4-quinolinyl]oxy]-2-pyrrolidinyl]-oxomethyl]amino]-2-ethenyl-1-cyclopropanecarboxylic acid
> <PUBCHEM_IUPAC_NAME_MARKUP>
(2<I>R</I>)-1-[[(2<I>S</I>,4<I>R</I>)-1-[(2<I>S</I>)-3,3-dimethyl-2-[(2-methylpropan-2-yl)oxycarbonylamino]butanoyl]-4-[2-(pyrrolidin-1-ylmethyl)quinolin-4-yl]oxypyrrolidine-2-carbonyl]amino]-2-ethenylcyclopropane-1-carboxylic acid
> <PUBCHEM_IUPAC_NAME>
(2R)-1-[[(2S,4R)-1-[(2S)-3,3-dimethyl-2-[(2-methylpropan-2-yl)oxycarbonylamino]butanoyl]-4-[2-(pyrrolidin-1-ylmethyl)quinolin-4-yl]oxypyrrolidine-2-carbonyl]amino]-2-ethenylcyclopropane-1-carboxylic acid
> <PUBCHEM_IUPAC_SYSTEMATIC_NAME>
(2R)-1-[[(2S,4R)-1-[(2S)-3,3-dimethyl-2-[(2-methylpropan-2-yl)oxycarbonylamino]butanoyl]-4-[2-(pyrrolidin-1-ylmethyl)quinolin-4-yl]oxy-pyrrolidin-2-yl]carbonylamino]-2-ethenyl-cyclopropane-1-carboxylic acid
> <PUBCHEM_IUPAC_TRADITIONAL_NAME>
(2R)-1-[[(2S,4R)-1-[(2S)-2-(tert-butoxycarbonylamino)-3,3-dimethyl-butanoyl]-4-[[2-(pyrrolidinomethyl)-4-quinolyl]oxy]prolyl]amino]-2-vinyl-cyclopropanecarboxylic acid
> <PUBCHEM_IUPAC_INCHI>
InChI=1S/C36H49N5O7/c1-8-22-19-36(22,32(44)45)39-30(42)27-18-24(21-41(27)31(43)29(34(2,3)4)38-33(46)48-35(5,6)7)47-28-17-23(20-40-15-11-12-16-40)37-26-14-10-9-13-25(26)28/h8-10,13-14,17,22,24,27,29H,1,11-12,15-16,18-21H2,2-7H3,(H,38,46)(H,39,42)(H,44,45)/t22-,24+,27-,29+,36?/m0/s1
> <PUBCHEM_IUPAC_INCHIKEY>
HVWQLVCWKBDVQL-NMCINUODSA-N
> <PUBCHEM_XLOGP3_AA>
2.3
> <PUBCHEM_EXACT_MASS>
663.36319892
> <PUBCHEM_MOLECULAR_FORMULA>
C36H49N5O7
> <PUBCHEM_MOLECULAR_WEIGHT>
663.8
> <PUBCHEM_OPENEYE_CAN_SMILES>
CC(C)(C)C(C(=O)N1CC(CC1C(=O)NC2(CC2C=C)C(=O)O)OC3=CC(=NC4=CC=CC=C43)CN5CCCC5)NC(=O)OC(C)(C)C
> <PUBCHEM_OPENEYE_ISO_SMILES>
CC(C)(C)[C@@H](C(=O)N1C[C@@H](C[C@H]1C(=O)NC2(C[C@@H]2C=C)C(=O)O)OC3=CC(=NC4=CC=CC=C43)CN5CCCC5)NC(=O)OC(C)(C)C
> <PUBCHEM_CACTVS_TPSA>
150
> <PUBCHEM_MONOISOTOPIC_WEIGHT>
663.36319892
> <PUBCHEM_TOTAL_CHARGE>
0
> <PUBCHEM_HEAVY_ATOM_COUNT>
48
> <PUBCHEM_ATOM_DEF_STEREO_COUNT>
4
> <PUBCHEM_ATOM_UDEF_STEREO_COUNT>
1
> <PUBCHEM_BOND_DEF_STEREO_COUNT>
0
> <PUBCHEM_BOND_UDEF_STEREO_COUNT>
0
> <PUBCHEM_ISOTOPIC_ATOM_COUNT>
0
> <PUBCHEM_COMPONENT_COUNT>
1
> <PUBCHEM_CACTVS_TAUTO_COUNT>
-1
> <PUBCHEM_COORDINATE_TYPE>
1
5
255
> <PUBCHEM_BONDANNOTATIONS>
25  10  6
12  34  8
12  40  8
13  16  3
14  17  5
18  19  5
21  3  6
30  31  8
30  32  8
31  40  8
31  41  8
32  34  8
40  43  8
41  44  8
43  45  8
44  45  8
$$$$
