500798
  -OEChem-10302200282D
 91 97  0     1  0  0  0  0  0999 V2000
    9.9737    4.8817    0.0000 O   0  0  0  0  0  0  0  0  0  0  0  0
   10.1548    3.1592    0.0000 O   0  0  0  0  0  0  0  0  0  0  0  0
    6.3981   -0.4749    0.0000 O   0  0  0  0  0  0  0  0  0  0  0  0
    9.7480    2.2456    0.0000 O   0  0  0  0  0  0  0  0  0  0  0  0
   10.4291    1.0660    0.0000 O   0  0  0  0  0  0  0  0  0  0  0  0
   13.9952   -3.0023    0.0000 O   0  0  0  0  0  0  0  0  0  0  0  0
   13.0492   -4.3044    0.0000 O   0  0  0  0  0  0  0  0  0  0  0  0
    2.8680   -3.4990    0.0000 O   0  0  0  0  0  0  0  0  0  0  0  0
    8.1657    2.9501    0.0000 N   0  0  0  0  0  0  0  0  0  0  0  0
    8.8468    0.3615    0.0000 N   0  0  0  0  0  0  0  0  0  0  0  0
   11.2426   -0.7611    0.0000 N   0  0  0  0  0  0  0  0  0  0  0  0
    6.3981   -3.4749    0.0000 N   0  0  0  0  0  0  0  0  0  0  0  0
    8.5725    3.8637    0.0000 C   0  0  3  0  0  0  0  0  0  0  0  0
    7.6589    4.2704    0.0000 C   0  0  2  0  0  0  0  0  0  0  0  0
    8.4679    4.8582    0.0000 C   0  0  0  0  0  0  0  0  0  0  0  0
    9.5670    3.9682    0.0000 C   0  0  0  0  0  0  0  0  0  0  0  0
    6.6644    4.1659    0.0000 C   0  0  0  0  0  0  0  0  0  0  0  0
    8.3468    1.2276    0.0000 C   0  0  2  0  0  0  0  0  0  0  0  0
    8.7535    2.1411    0.0000 C   0  0  0  0  0  0  0  0  0  0  0  0
    7.3686    1.0196    0.0000 C   0  0  0  0  0  0  0  0  0  0  0  0
    7.2641    0.0251    0.0000 C   0  0  2  0  0  0  0  0  0  0  0  0
    8.1776   -0.3816    0.0000 C   0  0  0  0  0  0  0  0  0  0  0  0
    6.0766    4.9749    0.0000 C   0  0  0  0  0  0  0  0  0  0  0  0
    9.8413    0.2570    0.0000 C   0  0  0  0  0  0  0  0  0  0  0  0
   10.2480   -0.6565    0.0000 C   0  0  2  0  0  0  0  0  0  0  0  0
    9.6602   -1.4656    0.0000 C   0  0  0  0  0  0  0  0  0  0  0  0
    6.3981   -1.4749    0.0000 C   0  0  0  0  0  0  0  0  0  0  0  0
    8.6657   -1.3610    0.0000 C   0  0  0  0  0  0  0  0  0  0  0  0
   10.0670   -2.3791    0.0000 C   0  0  0  0  0  0  0  0  0  0  0  0
    5.5320   -1.9749    0.0000 C   0  0  0  0  0  0  0  0  0  0  0  0
   11.6493   -1.6746    0.0000 C   0  0  0  0  0  0  0  0  0  0  0  0
    7.2641   -1.9749    0.0000 C   0  0  0  0  0  0  0  0  0  0  0  0
    5.5320   -2.9749    0.0000 C   0  0  0  0  0  0  0  0  0  0  0  0
    7.2641   -2.9749    0.0000 C   0  0  0  0  0  0  0  0  0  0  0  0
   12.6438   -1.7792    0.0000 C   0  0  0  0  0  0  0  0  0  0  0  0
    4.6381   -1.4402    0.0000 C   0  0  0  0  0  0  0  0  0  0  0  0
   11.0615   -2.4836    0.0000 C   0  0  0  0  0  0  0  0  0  0  0  0
    4.6381   -3.5095    0.0000 C   0  0  0  0  0  0  0  0  0  0  0  0
   13.0505   -2.6927    0.0000 C   0  0  0  0  0  0  0  0  0  0  0  0
   11.4682   -3.3972    0.0000 C   0  0  0  0  0  0  0  0  0  0  0  0
    3.7320   -1.9541    0.0000 C   0  0  0  0  0  0  0  0  0  0  0  0
    8.1301   -3.4749    0.0000 C   0  0  0  0  0  0  0  0  0  0  0  0
   12.4628   -3.5017    0.0000 C   0  0  0  0  0  0  0  0  0  0  0  0
    3.7320   -2.9957    0.0000 C   0  0  0  0  0  0  0  0  0  0  0  0
    8.9962   -2.9749    0.0000 C   0  0  0  0  0  0  0  0  0  0  0  0
    8.1301   -4.4749    0.0000 C   0  0  0  0  0  0  0  0  0  0  0  0
   13.9943   -3.9964    0.0000 C   0  0  0  0  0  0  0  0  0  0  0  0
    9.8622   -3.4749    0.0000 C   0  0  0  0  0  0  0  0  0  0  0  0
    8.9962   -4.9749    0.0000 C   0  0  0  0  0  0  0  0  0  0  0  0
    9.8622   -4.4749    0.0000 C   0  0  0  0  0  0  0  0  0  0  0  0
    2.0000   -3.0024    0.0000 C   0  0  0  0  0  0  0  0  0  0  0  0
    7.4367    4.8492    0.0000 H   0  0  0  0  0  0  0  0  0  0  0  0
    9.0639    5.0291    0.0000 H   0  0  0  0  0  0  0  0  0  0  0  0
    8.1961    5.4154    0.0000 H   0  0  0  0  0  0  0  0  0  0  0  0
    7.5491    2.8853    0.0000 H   0  0  0  0  0  0  0  0  0  0  0  0
    6.4122    3.5995    0.0000 H   0  0  0  0  0  0  0  0  0  0  0  0
    8.9659    1.2600    0.0000 H   0  0  0  0  0  0  0  0  0  0  0  0
    7.3038    1.6362    0.0000 H   0  0  0  0  0  0  0  0  0  0  0  0
    6.7486    1.0196    0.0000 H   0  0  0  0  0  0  0  0  0  0  0  0
    6.7441    0.3628    0.0000 H   0  0  0  0  0  0  0  0  0  0  0  0
    7.8676   -0.9186    0.0000 H   0  0  0  0  0  0  0  0  0  0  0  0
    8.6792   -0.7460    0.0000 H   0  0  0  0  0  0  0  0  0  0  0  0
    6.3288    5.5413    0.0000 H   0  0  0  0  0  0  0  0  0  0  0  0
    5.4600    4.9101    0.0000 H   0  0  0  0  0  0  0  0  0  0  0  0
   10.5903    4.9465    0.0000 H   0  0  0  0  0  0  0  0  0  0  0  0
   10.6125   -0.1550    0.0000 H   0  0  0  0  0  0  0  0  0  0  0  0
    9.4081   -0.8992    0.0000 H   0  0  0  0  0  0  0  0  0  0  0  0
   11.6070   -0.2595    0.0000 H   0  0  0  0  0  0  0  0  0  0  0  0
    8.7305   -0.7444    0.0000 H   0  0  0  0  0  0  0  0  0  0  0  0
    8.0491   -1.2962    0.0000 H   0  0  0  0  0  0  0  0  0  0  0  0
    8.6009   -1.9776    0.0000 H   0  0  0  0  0  0  0  0  0  0  0  0
    9.5006   -2.6313    0.0000 H   0  0  0  0  0  0  0  0  0  0  0  0
   10.3192   -2.9455    0.0000 H   0  0  0  0  0  0  0  0  0  0  0  0
   10.6334   -2.1269    0.0000 H   0  0  0  0  0  0  0  0  0  0  0  0
    7.8010   -1.6649    0.0000 H   0  0  0  0  0  0  0  0  0  0  0  0
   13.0082   -1.2776    0.0000 H   0  0  0  0  0  0  0  0  0  0  0  0
    4.6453   -0.8203    0.0000 H   0  0  0  0  0  0  0  0  0  0  0  0
   10.4449   -2.4188    0.0000 H   0  0  0  0  0  0  0  0  0  0  0  0
    4.6453   -4.1295    0.0000 H   0  0  0  0  0  0  0  0  0  0  0  0
   11.1038   -3.8988    0.0000 H   0  0  0  0  0  0  0  0  0  0  0  0
    3.1963   -1.6420    0.0000 H   0  0  0  0  0  0  0  0  0  0  0  0
    8.9962   -2.3549    0.0000 H   0  0  0  0  0  0  0  0  0  0  0  0
    7.5932   -4.7849    0.0000 H   0  0  0  0  0  0  0  0  0  0  0  0
   14.1234   -4.6028    0.0000 H   0  0  0  0  0  0  0  0  0  0  0  0
   14.6109   -3.9318    0.0000 H   0  0  0  0  0  0  0  0  0  0  0  0
   10.3991   -3.1649    0.0000 H   0  0  0  0  0  0  0  0  0  0  0  0
    8.9962   -5.5949    0.0000 H   0  0  0  0  0  0  0  0  0  0  0  0
   10.3991   -4.7849    0.0000 H   0  0  0  0  0  0  0  0  0  0  0  0
    2.3079   -2.4642    0.0000 H   0  0  0  0  0  0  0  0  0  0  0  0
    1.4619   -2.6944    0.0000 H   0  0  0  0  0  0  0  0  0  0  0  0
    1.6921   -3.5405    0.0000 H   0  0  0  0  0  0  0  0  0  0  0  0
  1 16  1  0  0  0  0
  1 65  1  0  0  0  0
  2 16  2  0  0  0  0
 21  3  1  6  0  0  0
  3 27  1  0  0  0  0
  4 19  2  0  0  0  0
  5 24  2  0  0  0  0
  6 39  1  0  0  0  0
  6 47  1  0  0  0  0
  7 43  1  0  0  0  0
  7 47  1  0  0  0  0
  8 44  1  0  0  0  0
  8 51  1  0  0  0  0
  9 13  1  0  0  0  0
  9 19  1  0  0  0  0
  9 55  1  0  0  0  0
 10 18  1  0  0  0  0
 10 22  1  0  0  0  0
 10 24  1  0  0  0  0
 25 11  1  1  0  0  0
 11 31  1  0  0  0  0
 11 68  1  0  0  0  0
 12 33  1  0  0  0  0
 12 34  2  0  0  0  0
 13 14  1  0  0  0  0
 13 15  1  0  0  0  0
 13 16  1  0  0  0  0
 14 15  1  0  0  0  0
 14 17  1  1  0  0  0
 14 52  1  0  0  0  0
 15 53  1  0  0  0  0
 15 54  1  0  0  0  0
 17 23  2  0  0  0  0
 17 56  1  0  0  0  0
 18 19  1  1  0  0  0
 18 20  1  0  0  0  0
 18 57  1  0  0  0  0
 20 21  1  0  0  0  0
 20 58  1  0  0  0  0
 20 59  1  0  0  0  0
 21 22  1  0  0  0  0
 21 60  1  0  0  0  0
 22 61  1  0  0  0  0
 22 62  1  0  0  0  0
 23 63  1  0  0  0  0
 23 64  1  0  0  0  0
 24 25  1  0  0  0  0
 25 26  1  0  0  0  0
 25 66  1  0  0  0  0
 26 28  1  0  0  0  0
 26 29  1  0  0  0  0
 26 67  1  0  0  0  0
 27 30  1  0  0  0  0
 27 32  2  0  0  0  0
 28 69  1  0  0  0  0
 28 70  1  0  0  0  0
 28 71  1  0  0  0  0
 29 72  1  0  0  0  0
 29 73  1  0  0  0  0
 29 74  1  0  0  0  0
 30 33  2  0  0  0  0
 30 36  1  0  0  0  0
 31 35  2  0  0  0  0
 31 37  1  0  0  0  0
 32 34  1  0  0  0  0
 32 75  1  0  0  0  0
 33 38  1  0  0  0  0
 34 42  1  0  0  0  0
 35 39  1  0  0  0  0
 35 76  1  0  0  0  0
 36 41  2  0  0  0  0
 36 77  1  0  0  0  0
 37 40  2  0  0  0  0
 37 78  1  0  0  0  0
 38 44  2  0  0  0  0
 38 79  1  0  0  0  0
 39 43  2  0  0  0  0
 40 43  1  0  0  0  0
 40 80  1  0  0  0  0
 41 44  1  0  0  0  0
 41 81  1  0  0  0  0
 42 45  2  0  0  0  0
 42 46  1  0  0  0  0
 45 48  1  0  0  0  0
 45 82  1  0  0  0  0
 46 49  2  0  0  0  0
 46 83  1  0  0  0  0
 47 84  1  0  0  0  0
 47 85  1  0  0  0  0
 48 50  2  0  0  0  0
 48 86  1  0  0  0  0
 49 50  1  0  0  0  0
 49 87  1  0  0  0  0
 50 88  1  0  0  0  0
 51 89  1  0  0  0  0
 51 90  1  0  0  0  0
 51 91  1  0  0  0  0
M  END
> <PUBCHEM_COMPOUND_CID>
500798
> <PUBCHEM_COMPOUND_CANONICALIZED>
1
> <PUBCHEM_CACTVS_COMPLEXITY>
1280
> <PUBCHEM_CACTVS_HBOND_ACCEPTOR>
10
> <PUBCHEM_CACTVS_HBOND_DONOR>
3
> <PUBCHEM_CACTVS_ROTATABLE_BOND>
12
> <PUBCHEM_CACTVS_SUBSKEYS>
AAADcfB/vAAAAAAAAAAAAAAAGAAAAWJAAAA8YMEAAAAAAEix9AAAHgAQCAAADbzhngcyzvPIFgCoAyXyXACCiCAhIiAImKG+7JgfZvLEsbu3eCrm1hne6Ae68e8OIEAAAgACQABAgAAEAASAAAAAAAAAAA==
> <PUBCHEM_IUPAC_OPENEYE_NAME>
(2R)-1-[[(2S,4R)-1-[(2S)-2-(1,3-benzodioxol-5-ylamino)-3-methyl-butanoyl]-4-[(7-methoxy-2-phenyl-4-quinolyl)oxy]pyrrolidine-2-carbonyl]amino]-2-vinyl-cyclopropanecarboxylic acid
> <PUBCHEM_IUPAC_CAS_NAME>
(2R)-1-[[[(2S,4R)-1-[(2S)-2-(1,3-benzodioxol-5-ylamino)-3-methyl-1-oxobutyl]-4-[(7-methoxy-2-phenyl-4-quinolinyl)oxy]-2-pyrrolidinyl]-oxomethyl]amino]-2-ethenyl-1-cyclopropanecarboxylic acid
> <PUBCHEM_IUPAC_NAME_MARKUP>
(2<I>R</I>)-1-[[(2<I>S</I>,4<I>R</I>)-1-[(2<I>S</I>)-2-(1,3-benzodioxol-5-ylamino)-3-methylbutanoyl]-4-(7-methoxy-2-phenylquinolin-4-yl)oxypyrrolidine-2-carbonyl]amino]-2-ethenylcyclopropane-1-carboxylic acid
> <PUBCHEM_IUPAC_NAME>
(2R)-1-[[(2S,4R)-1-[(2S)-2-(1,3-benzodioxol-5-ylamino)-3-methylbutanoyl]-4-(7-methoxy-2-phenylquinolin-4-yl)oxypyrrolidine-2-carbonyl]amino]-2-ethenylcyclopropane-1-carboxylic acid
> <PUBCHEM_IUPAC_SYSTEMATIC_NAME>
(2R)-1-[[(2S,4R)-1-[(2S)-2-(1,3-benzodioxol-5-ylamino)-3-methyl-butanoyl]-4-(7-methoxy-2-phenyl-quinolin-4-yl)oxy-pyrrolidin-2-yl]carbonylamino]-2-ethenyl-cyclopropane-1-carboxylic acid
> <PUBCHEM_IUPAC_TRADITIONAL_NAME>
(2R)-1-[[(2S,4R)-1-[(2S)-2-(1,3-benzodioxol-5-ylamino)-3-methyl-butanoyl]-4-[(7-methoxy-2-phenyl-4-quinolyl)oxy]prolyl]amino]-2-vinyl-cyclopropanecarboxylic acid
> <PUBCHEM_IUPAC_INCHI>
InChI=1S/C39H40N4O8/c1-5-24-19-39(24,38(46)47)42-36(44)31-17-27(20-43(31)37(45)35(22(2)3)40-25-11-14-32-34(15-25)50-21-49-32)51-33-18-29(23-9-7-6-8-10-23)41-30-16-26(48-4)12-13-28(30)33/h5-16,18,22,24,27,31,35,40H,1,17,19-21H2,2-4H3,(H,42,44)(H,46,47)/t24-,27+,31-,35-,39?/m0/s1
> <PUBCHEM_IUPAC_INCHIKEY>
ISJVYSJVRDVDMW-BFEPWMQGSA-N
> <PUBCHEM_XLOGP3_AA>
6.2
> <PUBCHEM_EXACT_MASS>
692.28461425
> <PUBCHEM_MOLECULAR_FORMULA>
C39H40N4O8
> <PUBCHEM_MOLECULAR_WEIGHT>
692.8
> <PUBCHEM_OPENEYE_CAN_SMILES>
CC(C)C(C(=O)N1CC(CC1C(=O)NC2(CC2C=C)C(=O)O)OC3=CC(=NC4=C3C=CC(=C4)OC)C5=CC=CC=C5)NC6=CC7=C(C=C6)OCO7
> <PUBCHEM_OPENEYE_ISO_SMILES>
CC(C)[C@@H](C(=O)N1C[C@@H](C[C@H]1C(=O)NC2(C[C@@H]2C=C)C(=O)O)OC3=CC(=NC4=C3C=CC(=C4)OC)C5=CC=CC=C5)NC6=CC7=C(C=C6)OCO7
> <PUBCHEM_CACTVS_TPSA>
149
> <PUBCHEM_MONOISOTOPIC_WEIGHT>
692.28461425
> <PUBCHEM_TOTAL_CHARGE>
0
> <PUBCHEM_HEAVY_ATOM_COUNT>
51
> <PUBCHEM_ATOM_DEF_STEREO_COUNT>
4
> <PUBCHEM_ATOM_UDEF_STEREO_COUNT>
1
> <PUBCHEM_BOND_DEF_STEREO_COUNT>
0
> <PUBCHEM_BOND_UDEF_STEREO_COUNT>
0
> <PUBCHEM_ISOTOPIC_ATOM_COUNT>
0
> <PUBCHEM_COMPONENT_COUNT>
1
> <PUBCHEM_CACTVS_TAUTO_COUNT>
-1
> <PUBCHEM_COORDINATE_TYPE>
1
5
255
> <PUBCHEM_BONDANNOTATIONS>
25  11  5
12  33  8
12  34  8
13  16  3
14  17  5
18  19  5
27  30  8
27  32  8
21  3  6
30  33  8
30  36  8
31  35  8
31  37  8
32  34  8
33  38  8
35  39  8
36  41  8
37  40  8
38  44  8
39  43  8
40  43  8
41  44  8
42  45  8
42  46  8
45  48  8
46  49  8
48  50  8
49  50  8
$$$$
