500773
  -OEChem-10302200282D
 92 97  0     1  0  0  0  0  0999 V2000
    9.9737    4.9542    0.0000 O   0  0  0  0  0  0  0  0  0  0  0  0
   10.1548    3.2316    0.0000 O   0  0  0  0  0  0  0  0  0  0  0  0
    6.3981   -0.4025    0.0000 O   0  0  0  0  0  0  0  0  0  0  0  0
    9.7480    2.3181    0.0000 O   0  0  0  0  0  0  0  0  0  0  0  0
   10.4291    1.1384    0.0000 O   0  0  0  0  0  0  0  0  0  0  0  0
   10.8805   -4.1338    0.0000 O   0  0  0  0  0  0  0  0  0  0  0  0
    2.8680   -3.4266    0.0000 O   0  0  0  0  0  0  0  0  0  0  0  0
    8.1657    3.0226    0.0000 N   0  0  0  0  0  0  0  0  0  0  0  0
    8.8468    0.4340    0.0000 N   0  0  0  0  0  0  0  0  0  0  0  0
   11.2426   -0.6886    0.0000 N   0  0  0  0  0  0  0  0  0  0  0  0
    6.3981   -3.4024    0.0000 N   0  0  0  0  0  0  0  0  0  0  0  0
    8.5725    3.9361    0.0000 C   0  0  3  0  0  0  0  0  0  0  0  0
    7.6589    4.3428    0.0000 C   0  0  2  0  0  0  0  0  0  0  0  0
    8.4679    4.9306    0.0000 C   0  0  0  0  0  0  0  0  0  0  0  0
    9.5670    4.0406    0.0000 C   0  0  0  0  0  0  0  0  0  0  0  0
    6.6644    4.2383    0.0000 C   0  0  0  0  0  0  0  0  0  0  0  0
    8.3468    1.3000    0.0000 C   0  0  2  0  0  0  0  0  0  0  0  0
    8.7535    2.2135    0.0000 C   0  0  0  0  0  0  0  0  0  0  0  0
    7.3686    1.0921    0.0000 C   0  0  0  0  0  0  0  0  0  0  0  0
    7.2641    0.0975    0.0000 C   0  0  2  0  0  0  0  0  0  0  0  0
    8.1776   -0.3092    0.0000 C   0  0  0  0  0  0  0  0  0  0  0  0
    6.0766    5.0473    0.0000 C   0  0  0  0  0  0  0  0  0  0  0  0
    9.8413    0.3294    0.0000 C   0  0  0  0  0  0  0  0  0  0  0  0
   10.2480   -0.5841    0.0000 C   0  0  2  0  0  0  0  0  0  0  0  0
    9.6602   -1.3931    0.0000 C   0  0  0  0  0  0  0  0  0  0  0  0
    6.3981   -1.4024    0.0000 C   0  0  0  0  0  0  0  0  0  0  0  0
    8.6657   -1.2886    0.0000 C   0  0  0  0  0  0  0  0  0  0  0  0
   10.0670   -2.3067    0.0000 C   0  0  0  0  0  0  0  0  0  0  0  0
    5.5320   -1.9024    0.0000 C   0  0  0  0  0  0  0  0  0  0  0  0
   11.6493   -1.6022    0.0000 C   0  0  0  0  0  0  0  0  0  0  0  0
    7.2641   -1.9024    0.0000 C   0  0  0  0  0  0  0  0  0  0  0  0
    5.5320   -2.9024    0.0000 C   0  0  0  0  0  0  0  0  0  0  0  0
    7.2641   -2.9024    0.0000 C   0  0  0  0  0  0  0  0  0  0  0  0
    4.6381   -1.3678    0.0000 C   0  0  0  0  0  0  0  0  0  0  0  0
   11.0615   -2.4112    0.0000 C   0  0  0  0  0  0  0  0  0  0  0  0
   12.6438   -1.7067    0.0000 C   0  0  0  0  0  0  0  0  0  0  0  0
    4.6381   -3.4371    0.0000 C   0  0  0  0  0  0  0  0  0  0  0  0
    3.7320   -1.8816    0.0000 C   0  0  0  0  0  0  0  0  0  0  0  0
    8.1301   -3.4024    0.0000 C   0  0  0  0  0  0  0  0  0  0  0  0
   11.4682   -3.3248    0.0000 C   0  0  0  0  0  0  0  0  0  0  0  0
   13.0505   -2.6203    0.0000 C   0  0  0  0  0  0  0  0  0  0  0  0
    3.7320   -2.9233    0.0000 C   0  0  0  0  0  0  0  0  0  0  0  0
   12.4628   -3.4293    0.0000 C   0  0  0  0  0  0  0  0  0  0  0  0
    8.9962   -2.9024    0.0000 C   0  0  0  0  0  0  0  0  0  0  0  0
    8.1301   -4.4024    0.0000 C   0  0  0  0  0  0  0  0  0  0  0  0
    9.8622   -3.4024    0.0000 C   0  0  0  0  0  0  0  0  0  0  0  0
    8.9962   -4.9024    0.0000 C   0  0  0  0  0  0  0  0  0  0  0  0
    9.8622   -4.4024    0.0000 C   0  0  0  0  0  0  0  0  0  0  0  0
   11.2872   -5.0473    0.0000 C   0  0  0  0  0  0  0  0  0  0  0  0
    2.0000   -2.9299    0.0000 C   0  0  0  0  0  0  0  0  0  0  0  0
    7.4367    4.9216    0.0000 H   0  0  0  0  0  0  0  0  0  0  0  0
    9.0639    5.1015    0.0000 H   0  0  0  0  0  0  0  0  0  0  0  0
    8.1961    5.4879    0.0000 H   0  0  0  0  0  0  0  0  0  0  0  0
    7.5491    2.9577    0.0000 H   0  0  0  0  0  0  0  0  0  0  0  0
    6.4122    3.6719    0.0000 H   0  0  0  0  0  0  0  0  0  0  0  0
    8.9659    1.3324    0.0000 H   0  0  0  0  0  0  0  0  0  0  0  0
    7.3038    1.7087    0.0000 H   0  0  0  0  0  0  0  0  0  0  0  0
    6.7486    1.0921    0.0000 H   0  0  0  0  0  0  0  0  0  0  0  0
    6.7441    0.4352    0.0000 H   0  0  0  0  0  0  0  0  0  0  0  0
    7.8676   -0.8461    0.0000 H   0  0  0  0  0  0  0  0  0  0  0  0
    8.6792   -0.6736    0.0000 H   0  0  0  0  0  0  0  0  0  0  0  0
    6.3288    5.6137    0.0000 H   0  0  0  0  0  0  0  0  0  0  0  0
    5.4600    4.9825    0.0000 H   0  0  0  0  0  0  0  0  0  0  0  0
   10.5903    5.0190    0.0000 H   0  0  0  0  0  0  0  0  0  0  0  0
   10.6125   -0.0825    0.0000 H   0  0  0  0  0  0  0  0  0  0  0  0
    9.4081   -0.8267    0.0000 H   0  0  0  0  0  0  0  0  0  0  0  0
   11.6070   -0.1871    0.0000 H   0  0  0  0  0  0  0  0  0  0  0  0
    8.7305   -0.6720    0.0000 H   0  0  0  0  0  0  0  0  0  0  0  0
    8.0491   -1.2238    0.0000 H   0  0  0  0  0  0  0  0  0  0  0  0
    8.6009   -1.9052    0.0000 H   0  0  0  0  0  0  0  0  0  0  0  0
    9.5006   -2.5589    0.0000 H   0  0  0  0  0  0  0  0  0  0  0  0
   10.3192   -2.8731    0.0000 H   0  0  0  0  0  0  0  0  0  0  0  0
   10.6334   -2.0545    0.0000 H   0  0  0  0  0  0  0  0  0  0  0  0
    7.8010   -1.5924    0.0000 H   0  0  0  0  0  0  0  0  0  0  0  0
    4.6453   -0.7478    0.0000 H   0  0  0  0  0  0  0  0  0  0  0  0
   10.4449   -2.3464    0.0000 H   0  0  0  0  0  0  0  0  0  0  0  0
   13.0082   -1.2051    0.0000 H   0  0  0  0  0  0  0  0  0  0  0  0
    4.6453   -4.0571    0.0000 H   0  0  0  0  0  0  0  0  0  0  0  0
    3.1963   -1.5696    0.0000 H   0  0  0  0  0  0  0  0  0  0  0  0
   13.6672   -2.6851    0.0000 H   0  0  0  0  0  0  0  0  0  0  0  0
   12.7149   -3.9957    0.0000 H   0  0  0  0  0  0  0  0  0  0  0  0
    8.9962   -2.2824    0.0000 H   0  0  0  0  0  0  0  0  0  0  0  0
    7.5932   -4.7124    0.0000 H   0  0  0  0  0  0  0  0  0  0  0  0
   10.3991   -3.0924    0.0000 H   0  0  0  0  0  0  0  0  0  0  0  0
    8.9962   -5.5224    0.0000 H   0  0  0  0  0  0  0  0  0  0  0  0
   10.3991   -4.7124    0.0000 H   0  0  0  0  0  0  0  0  0  0  0  0
   10.7208   -5.2995    0.0000 H   0  0  0  0  0  0  0  0  0  0  0  0
   11.5394   -5.6137    0.0000 H   0  0  0  0  0  0  0  0  0  0  0  0
   11.8536   -4.7951    0.0000 H   0  0  0  0  0  0  0  0  0  0  0  0
    2.3079   -2.3918    0.0000 H   0  0  0  0  0  0  0  0  0  0  0  0
    1.4619   -2.6220    0.0000 H   0  0  0  0  0  0  0  0  0  0  0  0
    1.6921   -3.4681    0.0000 H   0  0  0  0  0  0  0  0  0  0  0  0
  1 15  1  0  0  0  0
  1 64  1  0  0  0  0
  2 15  2  0  0  0  0
 20  3  1  6  0  0  0
  3 26  1  0  0  0  0
  4 18  2  0  0  0  0
  5 23  2  0  0  0  0
  6 40  1  0  0  0  0
  6 49  1  0  0  0  0
  7 42  1  0  0  0  0
  7 50  1  0  0  0  0
  8 12  1  0  0  0  0
  8 18  1  0  0  0  0
  8 54  1  0  0  0  0
  9 17  1  0  0  0  0
  9 21  1  0  0  0  0
  9 23  1  0  0  0  0
 24 10  1  1  0  0  0
 10 30  1  0  0  0  0
 10 67  1  0  0  0  0
 11 32  1  0  0  0  0
 11 33  2  0  0  0  0
 12 13  1  0  0  0  0
 12 14  1  0  0  0  0
 12 15  1  0  0  0  0
 13 14  1  0  0  0  0
 13 16  1  1  0  0  0
 13 51  1  0  0  0  0
 14 52  1  0  0  0  0
 14 53  1  0  0  0  0
 16 22  2  0  0  0  0
 16 55  1  0  0  0  0
 17 18  1  1  0  0  0
 17 19  1  0  0  0  0
 17 56  1  0  0  0  0
 19 20  1  0  0  0  0
 19 57  1  0  0  0  0
 19 58  1  0  0  0  0
 20 21  1  0  0  0  0
 20 59  1  0  0  0  0
 21 60  1  0  0  0  0
 21 61  1  0  0  0  0
 22 62  1  0  0  0  0
 22 63  1  0  0  0  0
 23 24  1  0  0  0  0
 24 25  1  0  0  0  0
 24 65  1  0  0  0  0
 25 27  1  0  0  0  0
 25 28  1  0  0  0  0
 25 66  1  0  0  0  0
 26 29  1  0  0  0  0
 26 31  2  0  0  0  0
 27 68  1  0  0  0  0
 27 69  1  0  0  0  0
 27 70  1  0  0  0  0
 28 71  1  0  0  0  0
 28 72  1  0  0  0  0
 28 73  1  0  0  0  0
 29 32  2  0  0  0  0
 29 34  1  0  0  0  0
 30 35  2  0  0  0  0
 30 36  1  0  0  0  0
 31 33  1  0  0  0  0
 31 74  1  0  0  0  0
 32 37  1  0  0  0  0
 33 39  1  0  0  0  0
 34 38  2  0  0  0  0
 34 75  1  0  0  0  0
 35 40  1  0  0  0  0
 35 76  1  0  0  0  0
 36 41  2  0  0  0  0
 36 77  1  0  0  0  0
 37 42  2  0  0  0  0
 37 78  1  0  0  0  0
 38 42  1  0  0  0  0
 38 79  1  0  0  0  0
 39 44  2  0  0  0  0
 39 45  1  0  0  0  0
 40 43  2  0  0  0  0
 41 43  1  0  0  0  0
 41 80  1  0  0  0  0
 43 81  1  0  0  0  0
 44 46  1  0  0  0  0
 44 82  1  0  0  0  0
 45 47  2  0  0  0  0
 45 83  1  0  0  0  0
 46 48  2  0  0  0  0
 46 84  1  0  0  0  0
 47 48  1  0  0  0  0
 47 85  1  0  0  0  0
 48 86  1  0  0  0  0
 49 87  1  0  0  0  0
 49 88  1  0  0  0  0
 49 89  1  0  0  0  0
 50 90  1  0  0  0  0
 50 91  1  0  0  0  0
 50 92  1  0  0  0  0
M  END
> <PUBCHEM_COMPOUND_CID>
500773
> <PUBCHEM_COMPOUND_CANONICALIZED>
1
> <PUBCHEM_CACTVS_COMPLEXITY>
1210
> <PUBCHEM_CACTVS_HBOND_ACCEPTOR>
9
> <PUBCHEM_CACTVS_HBOND_DONOR>
3
> <PUBCHEM_CACTVS_ROTATABLE_BOND>
13
> <PUBCHEM_CACTVS_SUBSKEYS>
AAADcfB/uAAAAAAAAAAAAAAAGAAAAWAAAAA8YMEAAAAAAACx9AAAHgAQCAAADbzhngYyzvPIFgCoAyXyXACCiCAhIiAImKG+bJgOZvLEsbuXeCjm1hnY6Ae68e8OIAAAAgACAABAAAAEAAQAAAAAAAAAAA==
> <PUBCHEM_IUPAC_OPENEYE_NAME>
(2R)-1-[[(2S,4R)-1-[(2S)-2-(3-methoxyanilino)-3-methyl-butanoyl]-4-[(7-methoxy-2-phenyl-4-quinolyl)oxy]pyrrolidine-2-carbonyl]amino]-2-vinyl-cyclopropanecarboxylic acid
> <PUBCHEM_IUPAC_CAS_NAME>
(2R)-2-ethenyl-1-[[[(2S,4R)-1-[(2S)-2-(3-methoxyanilino)-3-methyl-1-oxobutyl]-4-[(7-methoxy-2-phenyl-4-quinolinyl)oxy]-2-pyrrolidinyl]-oxomethyl]amino]-1-cyclopropanecarboxylic acid
> <PUBCHEM_IUPAC_NAME_MARKUP>
(2<I>R</I>)-2-ethenyl-1-[[(2<I>S</I>,4<I>R</I>)-1-[(2<I>S</I>)-2-(3-methoxyanilino)-3-methylbutanoyl]-4-(7-methoxy-2-phenylquinolin-4-yl)oxypyrrolidine-2-carbonyl]amino]cyclopropane-1-carboxylic acid
> <PUBCHEM_IUPAC_NAME>
(2R)-2-ethenyl-1-[[(2S,4R)-1-[(2S)-2-(3-methoxyanilino)-3-methylbutanoyl]-4-(7-methoxy-2-phenylquinolin-4-yl)oxypyrrolidine-2-carbonyl]amino]cyclopropane-1-carboxylic acid
> <PUBCHEM_IUPAC_SYSTEMATIC_NAME>
(2R)-2-ethenyl-1-[[(2S,4R)-1-[(2S)-2-[(3-methoxyphenyl)amino]-3-methyl-butanoyl]-4-(7-methoxy-2-phenyl-quinolin-4-yl)oxy-pyrrolidin-2-yl]carbonylamino]cyclopropane-1-carboxylic acid
> <PUBCHEM_IUPAC_TRADITIONAL_NAME>
(2R)-1-[[(2S,4R)-1-[(2S)-2-(m-anisidino)-3-methyl-butanoyl]-4-[(7-methoxy-2-phenyl-4-quinolyl)oxy]prolyl]amino]-2-vinyl-cyclopropanecarboxylic acid
> <PUBCHEM_IUPAC_INCHI>
InChI=1S/C39H42N4O7/c1-6-25-21-39(25,38(46)47)42-36(44)33-19-29(22-43(33)37(45)35(23(2)3)40-26-13-10-14-27(17-26)48-4)50-34-20-31(24-11-8-7-9-12-24)41-32-18-28(49-5)15-16-30(32)34/h6-18,20,23,25,29,33,35,40H,1,19,21-22H2,2-5H3,(H,42,44)(H,46,47)/t25-,29+,33-,35-,39?/m0/s1
> <PUBCHEM_IUPAC_INCHIKEY>
JMEWBIQHEFPBOV-LMYQYASZSA-N
> <PUBCHEM_XLOGP3_AA>
6.4
> <PUBCHEM_EXACT_MASS>
678.30534969
> <PUBCHEM_MOLECULAR_FORMULA>
C39H42N4O7
> <PUBCHEM_MOLECULAR_WEIGHT>
678.8
> <PUBCHEM_OPENEYE_CAN_SMILES>
CC(C)C(C(=O)N1CC(CC1C(=O)NC2(CC2C=C)C(=O)O)OC3=CC(=NC4=C3C=CC(=C4)OC)C5=CC=CC=C5)NC6=CC(=CC=C6)OC
> <PUBCHEM_OPENEYE_ISO_SMILES>
CC(C)[C@@H](C(=O)N1C[C@@H](C[C@H]1C(=O)NC2(C[C@@H]2C=C)C(=O)O)OC3=CC(=NC4=C3C=CC(=C4)OC)C5=CC=CC=C5)NC6=CC(=CC=C6)OC
> <PUBCHEM_CACTVS_TPSA>
139
> <PUBCHEM_MONOISOTOPIC_WEIGHT>
678.30534969
> <PUBCHEM_TOTAL_CHARGE>
0
> <PUBCHEM_HEAVY_ATOM_COUNT>
50
> <PUBCHEM_ATOM_DEF_STEREO_COUNT>
4
> <PUBCHEM_ATOM_UDEF_STEREO_COUNT>
1
> <PUBCHEM_BOND_DEF_STEREO_COUNT>
0
> <PUBCHEM_BOND_UDEF_STEREO_COUNT>
0
> <PUBCHEM_ISOTOPIC_ATOM_COUNT>
0
> <PUBCHEM_COMPONENT_COUNT>
1
> <PUBCHEM_CACTVS_TAUTO_COUNT>
-1
> <PUBCHEM_COORDINATE_TYPE>
1
5
255
> <PUBCHEM_BONDANNOTATIONS>
24  10  5
11  32  8
11  33  8
12  15  3
13  16  5
17  18  5
26  29  8
26  31  8
29  32  8
29  34  8
20  3  6
30  35  8
30  36  8
31  33  8
32  37  8
34  38  8
35  40  8
36  41  8
37  42  8
38  42  8
39  44  8
39  45  8
40  43  8
41  43  8
44  46  8
45  47  8
46  48  8
47  48  8
$$$$
