500709
  -OEChem-10302200282D
 89 92  0     1  0  0  0  0  0999 V2000
    8.2417    4.8817    0.0000 O   0  0  0  0  0  0  0  0  0  0  0  0
    8.4227    3.1592    0.0000 O   0  0  0  0  0  0  0  0  0  0  0  0
    4.6660   -0.4749    0.0000 O   0  0  0  0  0  0  0  0  0  0  0  0
    8.0160    2.2456    0.0000 O   0  0  0  0  0  0  0  0  0  0  0  0
    8.6970    1.0660    0.0000 O   0  0  0  0  0  0  0  0  0  0  0  0
    9.3295   -2.4836    0.0000 O   0  0  0  0  0  0  0  0  0  0  0  0
    7.7472   -3.1881    0.0000 O   0  0  0  0  0  0  0  0  0  0  0  0
    6.3981   -3.4749    0.0000 O   0  0  0  0  0  0  0  0  0  0  0  0
    6.4337    2.9501    0.0000 N   0  0  0  0  0  0  0  0  0  0  0  0
    7.1147    0.3615    0.0000 N   0  0  0  0  0  0  0  0  0  0  0  0
    7.9282   -1.4656    0.0000 N   0  0  0  0  0  0  0  0  0  0  0  0
    4.6660   -3.4749    0.0000 N   0  0  0  0  0  0  0  0  0  0  0  0
    6.8404    3.8637    0.0000 C   0  0  3  0  0  0  0  0  0  0  0  0
    5.9269    4.2704    0.0000 C   0  0  2  0  0  0  0  0  0  0  0  0
    6.7359    4.8582    0.0000 C   0  0  0  0  0  0  0  0  0  0  0  0
    7.8350    3.9682    0.0000 C   0  0  0  0  0  0  0  0  0  0  0  0
    4.9324    4.1659    0.0000 C   0  0  0  0  0  0  0  0  0  0  0  0
    6.6147    1.2276    0.0000 C   0  0  2  0  0  0  0  0  0  0  0  0
    7.0215    2.1411    0.0000 C   0  0  0  0  0  0  0  0  0  0  0  0
    5.6366    1.0196    0.0000 C   0  0  0  0  0  0  0  0  0  0  0  0
    5.5321    0.0251    0.0000 C   0  0  2  0  0  0  0  0  0  0  0  0
    6.4456   -0.3816    0.0000 C   0  0  0  0  0  0  0  0  0  0  0  0
    8.1093    0.2570    0.0000 C   0  0  0  0  0  0  0  0  0  0  0  0
    4.3446    4.9749    0.0000 C   0  0  0  0  0  0  0  0  0  0  0  0
    8.5160   -0.6565    0.0000 C   0  0  2  0  0  0  0  0  0  0  0  0
    9.5105   -0.7611    0.0000 C   0  0  0  0  0  0  0  0  0  0  0  0
   10.5050   -0.8656    0.0000 C   0  0  0  0  0  0  0  0  0  0  0  0
    9.6150    0.2334    0.0000 C   0  0  0  0  0  0  0  0  0  0  0  0
    9.4060   -1.7556    0.0000 C   0  0  0  0  0  0  0  0  0  0  0  0
    4.6660   -1.4749    0.0000 C   0  0  0  0  0  0  0  0  0  0  0  0
    8.3349   -2.3791    0.0000 C   0  0  0  0  0  0  0  0  0  0  0  0
    3.8000   -1.9749    0.0000 C   0  0  0  0  0  0  0  0  0  0  0  0
    5.5321   -1.9749    0.0000 C   0  0  0  0  0  0  0  0  0  0  0  0
    3.8000   -2.9749    0.0000 C   0  0  0  0  0  0  0  0  0  0  0  0
    5.5321   -2.9749    0.0000 C   0  0  0  0  0  0  0  0  0  0  0  0
    2.9061   -1.4402    0.0000 C   0  0  0  0  0  0  0  0  0  0  0  0
    9.7362   -3.3972    0.0000 C   0  0  0  0  0  0  0  0  0  0  0  0
    2.9061   -3.5095    0.0000 C   0  0  0  0  0  0  0  0  0  0  0  0
    2.0000   -1.9541    0.0000 C   0  0  0  0  0  0  0  0  0  0  0  0
   10.1429   -4.3107    0.0000 C   0  0  0  0  0  0  0  0  0  0  0  0
   10.6497   -2.9904    0.0000 C   0  0  0  0  0  0  0  0  0  0  0  0
    8.8227   -3.8039    0.0000 C   0  0  0  0  0  0  0  0  0  0  0  0
    2.0000   -2.9957    0.0000 C   0  0  0  0  0  0  0  0  0  0  0  0
    6.3981   -4.4749    0.0000 C   0  0  0  0  0  0  0  0  0  0  0  0
    7.2641   -4.9749    0.0000 C   0  0  0  0  0  0  0  0  0  0  0  0
    5.8299    3.6580    0.0000 H   0  0  0  0  0  0  0  0  0  0  0  0
    7.3319    5.0291    0.0000 H   0  0  0  0  0  0  0  0  0  0  0  0
    6.4641    5.4154    0.0000 H   0  0  0  0  0  0  0  0  0  0  0  0
    5.8171    2.8853    0.0000 H   0  0  0  0  0  0  0  0  0  0  0  0
    4.6802    3.5995    0.0000 H   0  0  0  0  0  0  0  0  0  0  0  0
    7.2339    1.2600    0.0000 H   0  0  0  0  0  0  0  0  0  0  0  0
    5.5718    1.6362    0.0000 H   0  0  0  0  0  0  0  0  0  0  0  0
    5.0166    1.0196    0.0000 H   0  0  0  0  0  0  0  0  0  0  0  0
    5.5645   -0.5940    0.0000 H   0  0  0  0  0  0  0  0  0  0  0  0
    6.1356   -0.9186    0.0000 H   0  0  0  0  0  0  0  0  0  0  0  0
    6.9472   -0.7460    0.0000 H   0  0  0  0  0  0  0  0  0  0  0  0
    7.8994   -0.5917    0.0000 H   0  0  0  0  0  0  0  0  0  0  0  0
    4.5968    5.5413    0.0000 H   0  0  0  0  0  0  0  0  0  0  0  0
    3.7280    4.9101    0.0000 H   0  0  0  0  0  0  0  0  0  0  0  0
    8.8583    4.9465    0.0000 H   0  0  0  0  0  0  0  0  0  0  0  0
    7.3116   -1.4008    0.0000 H   0  0  0  0  0  0  0  0  0  0  0  0
   10.4402   -1.4822    0.0000 H   0  0  0  0  0  0  0  0  0  0  0  0
   11.1216   -0.9304    0.0000 H   0  0  0  0  0  0  0  0  0  0  0  0
   10.5698   -0.2490    0.0000 H   0  0  0  0  0  0  0  0  0  0  0  0
   10.2316    0.1686    0.0000 H   0  0  0  0  0  0  0  0  0  0  0  0
    9.6798    0.8500    0.0000 H   0  0  0  0  0  0  0  0  0  0  0  0
    8.9984    0.2983    0.0000 H   0  0  0  0  0  0  0  0  0  0  0  0
    8.7894   -1.6908    0.0000 H   0  0  0  0  0  0  0  0  0  0  0  0
    9.3412   -2.3722    0.0000 H   0  0  0  0  0  0  0  0  0  0  0  0
   10.0226   -1.8204    0.0000 H   0  0  0  0  0  0  0  0  0  0  0  0
    6.0690   -1.6649    0.0000 H   0  0  0  0  0  0  0  0  0  0  0  0
    2.9132   -0.8203    0.0000 H   0  0  0  0  0  0  0  0  0  0  0  0
    2.9132   -4.1295    0.0000 H   0  0  0  0  0  0  0  0  0  0  0  0
    1.4643   -1.6420    0.0000 H   0  0  0  0  0  0  0  0  0  0  0  0
    9.5765   -4.5629    0.0000 H   0  0  0  0  0  0  0  0  0  0  0  0
   10.3951   -4.8771    0.0000 H   0  0  0  0  0  0  0  0  0  0  0  0
   10.7093   -4.0586    0.0000 H   0  0  0  0  0  0  0  0  0  0  0  0
   10.9019   -3.5568    0.0000 H   0  0  0  0  0  0  0  0  0  0  0  0
   11.2161   -2.7383    0.0000 H   0  0  0  0  0  0  0  0  0  0  0  0
   10.3976   -2.4240    0.0000 H   0  0  0  0  0  0  0  0  0  0  0  0
    8.5705   -3.2375    0.0000 H   0  0  0  0  0  0  0  0  0  0  0  0
    8.2563   -4.0561    0.0000 H   0  0  0  0  0  0  0  0  0  0  0  0
    9.0748   -4.3703    0.0000 H   0  0  0  0  0  0  0  0  0  0  0  0
    1.4643   -3.3078    0.0000 H   0  0  0  0  0  0  0  0  0  0  0  0
    5.7875   -4.3672    0.0000 H   0  0  0  0  0  0  0  0  0  0  0  0
    6.1860   -5.0575    0.0000 H   0  0  0  0  0  0  0  0  0  0  0  0
    6.9541   -5.5118    0.0000 H   0  0  0  0  0  0  0  0  0  0  0  0
    7.8010   -5.2849    0.0000 H   0  0  0  0  0  0  0  0  0  0  0  0
    7.5741   -4.4380    0.0000 H   0  0  0  0  0  0  0  0  0  0  0  0
  1 16  1  0  0  0  0
  1 60  1  0  0  0  0
  2 16  2  0  0  0  0
 21  3  1  6  0  0  0
  3 30  1  0  0  0  0
  4 19  2  0  0  0  0
  5 23  2  0  0  0  0
  6 31  1  0  0  0  0
  6 37  1  0  0  0  0
  7 31  2  0  0  0  0
  8 35  1  0  0  0  0
  8 44  1  0  0  0  0
  9 13  1  0  0  0  0
  9 19  1  0  0  0  0
  9 49  1  0  0  0  0
 10 18  1  0  0  0  0
 10 22  1  0  0  0  0
 10 23  1  0  0  0  0
 25 11  1  6  0  0  0
 11 31  1  0  0  0  0
 11 61  1  0  0  0  0
 12 34  1  0  0  0  0
 12 35  2  0  0  0  0
 13 14  1  0  0  0  0
 13 15  1  0  0  0  0
 13 16  1  0  0  0  0
 14 15  1  0  0  0  0
 14 17  1  1  0  0  0
 14 46  1  0  0  0  0
 15 47  1  0  0  0  0
 15 48  1  0  0  0  0
 17 24  2  0  0  0  0
 17 50  1  0  0  0  0
 18 19  1  1  0  0  0
 18 20  1  0  0  0  0
 18 51  1  0  0  0  0
 20 21  1  0  0  0  0
 20 52  1  0  0  0  0
 20 53  1  0  0  0  0
 21 22  1  0  0  0  0
 21 54  1  0  0  0  0
 22 55  1  0  0  0  0
 22 56  1  0  0  0  0
 23 25  1  0  0  0  0
 24 58  1  0  0  0  0
 24 59  1  0  0  0  0
 25 26  1  0  0  0  0
 25 57  1  0  0  0  0
 26 27  1  0  0  0  0
 26 28  1  0  0  0  0
 26 29  1  0  0  0  0
 27 62  1  0  0  0  0
 27 63  1  0  0  0  0
 27 64  1  0  0  0  0
 28 65  1  0  0  0  0
 28 66  1  0  0  0  0
 28 67  1  0  0  0  0
 29 68  1  0  0  0  0
 29 69  1  0  0  0  0
 29 70  1  0  0  0  0
 30 32  1  0  0  0  0
 30 33  2  0  0  0  0
 32 34  1  0  0  0  0
 32 36  2  0  0  0  0
 33 35  1  0  0  0  0
 33 71  1  0  0  0  0
 34 38  2  0  0  0  0
 36 39  1  0  0  0  0
 36 72  1  0  0  0  0
 37 40  1  0  0  0  0
 37 41  1  0  0  0  0
 37 42  1  0  0  0  0
 38 43  1  0  0  0  0
 38 73  1  0  0  0  0
 39 43  2  0  0  0  0
 39 74  1  0  0  0  0
 40 75  1  0  0  0  0
 40 76  1  0  0  0  0
 40 77  1  0  0  0  0
 41 78  1  0  0  0  0
 41 79  1  0  0  0  0
 41 80  1  0  0  0  0
 42 81  1  0  0  0  0
 42 82  1  0  0  0  0
 42 83  1  0  0  0  0
 43 84  1  0  0  0  0
 44 45  1  0  0  0  0
 44 85  1  0  0  0  0
 44 86  1  0  0  0  0
 45 87  1  0  0  0  0
 45 88  1  0  0  0  0
 45 89  1  0  0  0  0
M  END
> <PUBCHEM_COMPOUND_CID>
500709
> <PUBCHEM_COMPOUND_CANONICALIZED>
1
> <PUBCHEM_CACTVS_COMPLEXITY>
1130
> <PUBCHEM_CACTVS_HBOND_ACCEPTOR>
9
> <PUBCHEM_CACTVS_HBOND_DONOR>
3
> <PUBCHEM_CACTVS_ROTATABLE_BOND>
13
> <PUBCHEM_CACTVS_SUBSKEYS>
AAADcfB/vAAAAAAAAAAAAAAAGAAAAWAAAAA8QAAAAAAAAACx8AAAHgAQCAAAD/zhngYyzvPIFgCoAyXyXACCiCAhIiAImKG+bJkOZ/LEsbufeCjn1h3Y6Ae60aEPAAAAAAACAAAAAAAAAAQAAAAAAAAAAA==
> <PUBCHEM_IUPAC_OPENEYE_NAME>
(2R)-1-[[(2S,4R)-1-[(2S)-2-(tert-butoxycarbonylamino)-3,3-dimethyl-butanoyl]-4-[(2-ethoxy-4-quinolyl)oxy]pyrrolidine-2-carbonyl]amino]-2-vinyl-cyclopropanecarboxylic acid
> <PUBCHEM_IUPAC_CAS_NAME>
(2R)-1-[[[(2S,4R)-1-[(2S)-3,3-dimethyl-2-[[(2-methylpropan-2-yl)oxy-oxomethyl]amino]-1-oxobutyl]-4-[(2-ethoxy-4-quinolinyl)oxy]-2-pyrrolidinyl]-oxomethyl]amino]-2-ethenyl-1-cyclopropanecarboxylic acid
> <PUBCHEM_IUPAC_NAME_MARKUP>
(2<I>R</I>)-1-[[(2<I>S</I>,4<I>R</I>)-1-[(2<I>S</I>)-3,3-dimethyl-2-[(2-methylpropan-2-yl)oxycarbonylamino]butanoyl]-4-(2-ethoxyquinolin-4-yl)oxypyrrolidine-2-carbonyl]amino]-2-ethenylcyclopropane-1-carboxylic acid
> <PUBCHEM_IUPAC_NAME>
(2R)-1-[[(2S,4R)-1-[(2S)-3,3-dimethyl-2-[(2-methylpropan-2-yl)oxycarbonylamino]butanoyl]-4-(2-ethoxyquinolin-4-yl)oxypyrrolidine-2-carbonyl]amino]-2-ethenylcyclopropane-1-carboxylic acid
> <PUBCHEM_IUPAC_SYSTEMATIC_NAME>
(2R)-1-[[(2S,4R)-1-[(2S)-3,3-dimethyl-2-[(2-methylpropan-2-yl)oxycarbonylamino]butanoyl]-4-(2-ethoxyquinolin-4-yl)oxy-pyrrolidin-2-yl]carbonylamino]-2-ethenyl-cyclopropane-1-carboxylic acid
> <PUBCHEM_IUPAC_TRADITIONAL_NAME>
(2R)-1-[[(2S,4R)-1-[(2S)-2-(tert-butoxycarbonylamino)-3,3-dimethyl-butanoyl]-4-[(2-ethoxy-4-quinolyl)oxy]prolyl]amino]-2-vinyl-cyclopropanecarboxylic acid
> <PUBCHEM_IUPAC_INCHI>
InChI=1S/C33H44N4O8/c1-9-19-17-33(19,29(40)41)36-27(38)23-15-20(44-24-16-25(43-10-2)34-22-14-12-11-13-21(22)24)18-37(23)28(39)26(31(3,4)5)35-30(42)45-32(6,7)8/h9,11-14,16,19-20,23,26H,1,10,15,17-18H2,2-8H3,(H,35,42)(H,36,38)(H,40,41)/t19-,20+,23-,26+,33?/m0/s1
> <PUBCHEM_IUPAC_INCHIKEY>
WJGYREMKOTVROB-HUUOEHCUSA-N
> <PUBCHEM_XLOGP3_AA>
4.9
> <PUBCHEM_EXACT_MASS>
624.31591437
> <PUBCHEM_MOLECULAR_FORMULA>
C33H44N4O8
> <PUBCHEM_MOLECULAR_WEIGHT>
624.7
> <PUBCHEM_OPENEYE_CAN_SMILES>
CCOC1=NC2=CC=CC=C2C(=C1)OC3CC(N(C3)C(=O)C(C(C)(C)C)NC(=O)OC(C)(C)C)C(=O)NC4(CC4C=C)C(=O)O
> <PUBCHEM_OPENEYE_ISO_SMILES>
CCOC1=NC2=CC=CC=C2C(=C1)O[C@@H]3C[C@H](N(C3)C(=O)[C@H](C(C)(C)C)NC(=O)OC(C)(C)C)C(=O)NC4(C[C@@H]4C=C)C(=O)O
> <PUBCHEM_CACTVS_TPSA>
156
> <PUBCHEM_MONOISOTOPIC_WEIGHT>
624.31591437
> <PUBCHEM_TOTAL_CHARGE>
0
> <PUBCHEM_HEAVY_ATOM_COUNT>
45
> <PUBCHEM_ATOM_DEF_STEREO_COUNT>
4
> <PUBCHEM_ATOM_UDEF_STEREO_COUNT>
1
> <PUBCHEM_BOND_DEF_STEREO_COUNT>
0
> <PUBCHEM_BOND_UDEF_STEREO_COUNT>
0
> <PUBCHEM_ISOTOPIC_ATOM_COUNT>
0
> <PUBCHEM_COMPONENT_COUNT>
1
> <PUBCHEM_CACTVS_TAUTO_COUNT>
-1
> <PUBCHEM_COORDINATE_TYPE>
1
5
255
> <PUBCHEM_BONDANNOTATIONS>
25  11  6
12  34  8
12  35  8
13  16  3
14  17  5
18  19  5
21  3  6
30  32  8
30  33  8
32  34  8
32  36  8
33  35  8
34  38  8
36  39  8
38  43  8
39  43  8
$$$$
