500727
  -OEChem-10302200282D
 89 92  0     1  0  0  0  0  0999 V2000
   12.8249   -0.7572    0.0000 O   0  0  0  0  0  0  0  0  0  0  0  0
   11.4236    0.2608    0.0000 O   0  0  0  0  0  0  0  0  0  0  0  0
    6.3981   -1.1755    0.0000 O   0  0  0  0  0  0  0  0  0  0  0  0
   10.4291    0.3654    0.0000 O   0  0  0  0  0  0  0  0  0  0  0  0
    9.7480    1.5450    0.0000 O   0  0  0  0  0  0  0  0  0  0  0  0
    6.9902    3.8675    0.0000 O   0  0  0  0  0  0  0  0  0  0  0  0
    5.5889    2.8494    0.0000 O   0  0  0  0  0  0  0  0  0  0  0  0
    2.8680   -4.1997    0.0000 O   0  0  0  0  0  0  0  0  0  0  0  0
    8.1301   -5.1755    0.0000 O   0  0  0  0  0  0  0  0  0  0  0  0
    8.9962   -3.6755    0.0000 O   0  0  0  0  0  0  0  0  0  0  0  0
   10.2480   -1.3572    0.0000 N   0  0  0  0  0  0  0  0  0  0  0  0
    8.3468    0.5269    0.0000 N   0  0  0  0  0  0  0  0  0  0  0  0
    7.1712    2.1449    0.0000 N   0  0  0  0  0  0  0  0  0  0  0  0
    6.3981   -4.1755    0.0000 N   0  0  0  0  0  0  0  0  0  0  0  0
   11.2426   -1.4617    0.0000 C   0  0  3  0  0  0  0  0  0  0  0  0
   11.1380   -2.4562    0.0000 C   0  0  2  0  0  0  0  0  0  0  0  0
   12.0516   -2.0495    0.0000 C   0  0  0  0  0  0  0  0  0  0  0  0
   11.8303   -0.6527    0.0000 C   0  0  0  0  0  0  0  0  0  0  0  0
   10.5502   -3.2653    0.0000 C   0  0  0  0  0  0  0  0  0  0  0  0
    8.8468   -0.3391    0.0000 C   0  0  2  0  0  0  0  0  0  0  0  0
    9.8413   -0.4437    0.0000 C   0  0  0  0  0  0  0  0  0  0  0  0
    8.1776   -1.0823    0.0000 C   0  0  0  0  0  0  0  0  0  0  0  0
    7.2641   -0.6755    0.0000 C   0  0  2  0  0  0  0  0  0  0  0  0
    7.3686    0.3190    0.0000 C   0  0  0  0  0  0  0  0  0  0  0  0
    8.7535    1.4404    0.0000 C   0  0  0  0  0  0  0  0  0  0  0  0
   10.9570   -4.1788    0.0000 C   0  0  0  0  0  0  0  0  0  0  0  0
    8.1657    2.2495    0.0000 C   0  0  2  0  0  0  0  0  0  0  0  0
    8.5725    3.1630    0.0000 C   0  0  0  0  0  0  0  0  0  0  0  0
    8.9792    4.0766    0.0000 C   0  0  0  0  0  0  0  0  0  0  0  0
    7.6589    3.5698    0.0000 C   0  0  0  0  0  0  0  0  0  0  0  0
    9.4860    2.7563    0.0000 C   0  0  0  0  0  0  0  0  0  0  0  0
    6.3981   -2.1755    0.0000 C   0  0  0  0  0  0  0  0  0  0  0  0
    6.5834    2.9540    0.0000 C   0  0  0  0  0  0  0  0  0  0  0  0
    5.5320   -2.6755    0.0000 C   0  0  0  0  0  0  0  0  0  0  0  0
    7.2641   -2.6755    0.0000 C   0  0  0  0  0  0  0  0  0  0  0  0
    5.5320   -3.6755    0.0000 C   0  0  0  0  0  0  0  0  0  0  0  0
    7.2641   -3.6755    0.0000 C   0  0  0  0  0  0  0  0  0  0  0  0
    4.6381   -2.1409    0.0000 C   0  0  0  0  0  0  0  0  0  0  0  0
    6.4024    4.6765    0.0000 C   0  0  0  0  0  0  0  0  0  0  0  0
    4.6381   -4.2102    0.0000 C   0  0  0  0  0  0  0  0  0  0  0  0
    3.7320   -2.6547    0.0000 C   0  0  0  0  0  0  0  0  0  0  0  0
    3.7320   -3.6964    0.0000 C   0  0  0  0  0  0  0  0  0  0  0  0
    5.8146    5.4855    0.0000 C   0  0  0  0  0  0  0  0  0  0  0  0
    7.2114    5.2643    0.0000 C   0  0  0  0  0  0  0  0  0  0  0  0
    5.5934    4.0887    0.0000 C   0  0  0  0  0  0  0  0  0  0  0  0
    8.1301   -4.1755    0.0000 C   0  0  0  0  0  0  0  0  0  0  0  0
    2.0000   -3.7030    0.0000 C   0  0  0  0  0  0  0  0  0  0  0  0
   10.5592   -2.2341    0.0000 H   0  0  0  0  0  0  0  0  0  0  0  0
   12.3983   -2.5635    0.0000 H   0  0  0  0  0  0  0  0  0  0  0  0
   12.4976   -1.6188    0.0000 H   0  0  0  0  0  0  0  0  0  0  0  0
    9.8836   -1.8588    0.0000 H   0  0  0  0  0  0  0  0  0  0  0  0
    9.9336   -3.2005    0.0000 H   0  0  0  0  0  0  0  0  0  0  0  0
    9.1844    0.1809    0.0000 H   0  0  0  0  0  0  0  0  0  0  0  0
    7.8676   -1.6192    0.0000 H   0  0  0  0  0  0  0  0  0  0  0  0
    8.6792   -1.4467    0.0000 H   0  0  0  0  0  0  0  0  0  0  0  0
    6.7441   -0.3379    0.0000 H   0  0  0  0  0  0  0  0  0  0  0  0
    7.3038    0.9356    0.0000 H   0  0  0  0  0  0  0  0  0  0  0  0
    6.7486    0.3190    0.0000 H   0  0  0  0  0  0  0  0  0  0  0  0
    7.8013    2.7511    0.0000 H   0  0  0  0  0  0  0  0  0  0  0  0
   10.5926   -4.6804    0.0000 H   0  0  0  0  0  0  0  0  0  0  0  0
   11.5736   -4.2436    0.0000 H   0  0  0  0  0  0  0  0  0  0  0  0
   13.1893   -0.2556    0.0000 H   0  0  0  0  0  0  0  0  0  0  0  0
    6.9190    1.5785    0.0000 H   0  0  0  0  0  0  0  0  0  0  0  0
    9.5456    3.8244    0.0000 H   0  0  0  0  0  0  0  0  0  0  0  0
    9.2314    4.6430    0.0000 H   0  0  0  0  0  0  0  0  0  0  0  0
    8.4128    4.3287    0.0000 H   0  0  0  0  0  0  0  0  0  0  0  0
    7.9111    4.1361    0.0000 H   0  0  0  0  0  0  0  0  0  0  0  0
    7.0925    3.8219    0.0000 H   0  0  0  0  0  0  0  0  0  0  0  0
    7.4067    3.0034    0.0000 H   0  0  0  0  0  0  0  0  0  0  0  0
    9.2338    2.1899    0.0000 H   0  0  0  0  0  0  0  0  0  0  0  0
   10.0524    2.5041    0.0000 H   0  0  0  0  0  0  0  0  0  0  0  0
    9.7382    3.3227    0.0000 H   0  0  0  0  0  0  0  0  0  0  0  0
    7.8010   -2.3655    0.0000 H   0  0  0  0  0  0  0  0  0  0  0  0
    4.6453   -1.5209    0.0000 H   0  0  0  0  0  0  0  0  0  0  0  0
    4.6453   -4.8302    0.0000 H   0  0  0  0  0  0  0  0  0  0  0  0
    3.1963   -2.3426    0.0000 H   0  0  0  0  0  0  0  0  0  0  0  0
    6.3162    5.8500    0.0000 H   0  0  0  0  0  0  0  0  0  0  0  0
    5.4502    5.9871    0.0000 H   0  0  0  0  0  0  0  0  0  0  0  0
    5.3130    5.1211    0.0000 H   0  0  0  0  0  0  0  0  0  0  0  0
    7.5758    4.7627    0.0000 H   0  0  0  0  0  0  0  0  0  0  0  0
    7.7130    5.6287    0.0000 H   0  0  0  0  0  0  0  0  0  0  0  0
    6.8470    5.7659    0.0000 H   0  0  0  0  0  0  0  0  0  0  0  0
    5.2289    4.5903    0.0000 H   0  0  0  0  0  0  0  0  0  0  0  0
    5.0918    3.7243    0.0000 H   0  0  0  0  0  0  0  0  0  0  0  0
    5.9578    3.5871    0.0000 H   0  0  0  0  0  0  0  0  0  0  0  0
    8.6671   -5.4855    0.0000 H   0  0  0  0  0  0  0  0  0  0  0  0
    2.3079   -3.1649    0.0000 H   0  0  0  0  0  0  0  0  0  0  0  0
    1.4619   -3.3951    0.0000 H   0  0  0  0  0  0  0  0  0  0  0  0
    1.6921   -4.2412    0.0000 H   0  0  0  0  0  0  0  0  0  0  0  0
  1 18  1  0  0  0  0
  1 62  1  0  0  0  0
  2 18  2  0  0  0  0
 23  3  1  1  0  0  0
  3 32  1  0  0  0  0
  4 21  2  0  0  0  0
  5 25  2  0  0  0  0
  6 33  1  0  0  0  0
  6 39  1  0  0  0  0
  7 33  2  0  0  0  0
  8 42  1  0  0  0  0
  8 47  1  0  0  0  0
  9 46  1  0  0  0  0
  9 86  1  0  0  0  0
 10 46  2  0  0  0  0
 11 15  1  0  0  0  0
 11 21  1  0  0  0  0
 11 51  1  0  0  0  0
 12 20  1  0  0  0  0
 12 24  1  0  0  0  0
 12 25  1  0  0  0  0
 27 13  1  1  0  0  0
 13 33  1  0  0  0  0
 13 63  1  0  0  0  0
 14 36  1  0  0  0  0
 14 37  2  0  0  0  0
 15 16  1  0  0  0  0
 15 17  1  0  0  0  0
 15 18  1  0  0  0  0
 16 17  1  0  0  0  0
 16 19  1  6  0  0  0
 16 48  1  0  0  0  0
 17 49  1  0  0  0  0
 17 50  1  0  0  0  0
 19 26  2  0  0  0  0
 19 52  1  0  0  0  0
 20 21  1  6  0  0  0
 20 22  1  0  0  0  0
 20 53  1  0  0  0  0
 22 23  1  0  0  0  0
 22 54  1  0  0  0  0
 22 55  1  0  0  0  0
 23 24  1  0  0  0  0
 23 56  1  0  0  0  0
 24 57  1  0  0  0  0
 24 58  1  0  0  0  0
 25 27  1  0  0  0  0
 26 60  1  0  0  0  0
 26 61  1  0  0  0  0
 27 28  1  0  0  0  0
 27 59  1  0  0  0  0
 28 29  1  0  0  0  0
 28 30  1  0  0  0  0
 28 31  1  0  0  0  0
 29 64  1  0  0  0  0
 29 65  1  0  0  0  0
 29 66  1  0  0  0  0
 30 67  1  0  0  0  0
 30 68  1  0  0  0  0
 30 69  1  0  0  0  0
 31 70  1  0  0  0  0
 31 71  1  0  0  0  0
 31 72  1  0  0  0  0
 32 34  1  0  0  0  0
 32 35  2  0  0  0  0
 34 36  2  0  0  0  0
 34 38  1  0  0  0  0
 35 37  1  0  0  0  0
 35 73  1  0  0  0  0
 36 40  1  0  0  0  0
 37 46  1  0  0  0  0
 38 41  2  0  0  0  0
 38 74  1  0  0  0  0
 39 43  1  0  0  0  0
 39 44  1  0  0  0  0
 39 45  1  0  0  0  0
 40 42  2  0  0  0  0
 40 75  1  0  0  0  0
 41 42  1  0  0  0  0
 41 76  1  0  0  0  0
 43 77  1  0  0  0  0
 43 78  1  0  0  0  0
 43 79  1  0  0  0  0
 44 80  1  0  0  0  0
 44 81  1  0  0  0  0
 44 82  1  0  0  0  0
 45 83  1  0  0  0  0
 45 84  1  0  0  0  0
 45 85  1  0  0  0  0
 47 87  1  0  0  0  0
 47 88  1  0  0  0  0
 47 89  1  0  0  0  0
M  END
> <PUBCHEM_COMPOUND_CID>
500727
> <PUBCHEM_COMPOUND_CANONICALIZED>
1
> <PUBCHEM_CACTVS_COMPLEXITY>
1240
> <PUBCHEM_CACTVS_HBOND_ACCEPTOR>
11
> <PUBCHEM_CACTVS_HBOND_DONOR>
4
> <PUBCHEM_CACTVS_ROTATABLE_BOND>
13
> <PUBCHEM_CACTVS_SUBSKEYS>
AAADcfB/vAAAAAAAAAAAAAAAGAAAAWAAAAA8QAAAAAAAAACx8AAAHgAQCAAAD/zhngYyzvPIFgCoAyXyXASCiCAnIiAImKG+bNkOZvLEtbufeSjm1hnY+Yf6+b+PIAAAAgACAABAAAAEAAQAAAAAAAAAAA==
> <PUBCHEM_IUPAC_OPENEYE_NAME>
4-[(3R,5S)-1-[(2S)-2-(tert-butoxycarbonylamino)-3,3-dimethyl-butanoyl]-5-[[(2R)-1-carboxy-2-vinyl-cyclopropyl]carbamoyl]pyrrolidin-3-yl]oxy-7-methoxy-quinoline-2-carboxylic acid
> <PUBCHEM_IUPAC_CAS_NAME>
4-[[(3R,5S)-5-[[[(2R)-1-carboxy-2-ethenylcyclopropyl]amino]-oxomethyl]-1-[(2S)-3,3-dimethyl-2-[[(2-methylpropan-2-yl)oxy-oxomethyl]amino]-1-oxobutyl]-3-pyrrolidinyl]oxy]-7-methoxy-2-quinolinecarboxylic acid
> <PUBCHEM_IUPAC_NAME_MARKUP>
4-[(3<I>R</I>,5<I>S</I>)-5-[[(2<I>R</I>)-1-carboxy-2-ethenylcyclopropyl]carbamoyl]-1-[(2<I>S</I>)-3,3-dimethyl-2-[(2-methylpropan-2-yl)oxycarbonylamino]butanoyl]pyrrolidin-3-yl]oxy-7-methoxyquinoline-2-carboxylic acid
> <PUBCHEM_IUPAC_NAME>
4-[(3R,5S)-5-[[(2R)-1-carboxy-2-ethenylcyclopropyl]carbamoyl]-1-[(2S)-3,3-dimethyl-2-[(2-methylpropan-2-yl)oxycarbonylamino]butanoyl]pyrrolidin-3-yl]oxy-7-methoxyquinoline-2-carboxylic acid
> <PUBCHEM_IUPAC_SYSTEMATIC_NAME>
4-[(3R,5S)-5-[[(2R)-1-carboxy-2-ethenyl-cyclopropyl]carbamoyl]-1-[(2S)-3,3-dimethyl-2-[(2-methylpropan-2-yl)oxycarbonylamino]butanoyl]pyrrolidin-3-yl]oxy-7-methoxy-quinoline-2-carboxylic acid
> <PUBCHEM_IUPAC_TRADITIONAL_NAME>
4-[(3R,5S)-1-[(2S)-2-(tert-butoxycarbonylamino)-3,3-dimethyl-butanoyl]-5-[[(2R)-1-carboxy-2-vinyl-cyclopropyl]carbamoyl]pyrrolidin-3-yl]oxy-7-methoxy-quinaldic acid
> <PUBCHEM_IUPAC_INCHI>
InChI=1S/C33H42N4O10/c1-9-17-15-33(17,29(42)43)36-26(38)23-13-19(16-37(23)27(39)25(31(2,3)4)35-30(44)47-32(5,6)7)46-24-14-22(28(40)41)34-21-12-18(45-8)10-11-20(21)24/h9-12,14,17,19,23,25H,1,13,15-16H2,2-8H3,(H,35,44)(H,36,38)(H,40,41)(H,42,43)/t17-,19+,23-,25+,33?/m0/s1
> <PUBCHEM_IUPAC_INCHIKEY>
WLKHHVHGPVHDFS-XLVIRSAGSA-N
> <PUBCHEM_XLOGP3_AA>
4
> <PUBCHEM_EXACT_MASS>
654.29009355
> <PUBCHEM_MOLECULAR_FORMULA>
C33H42N4O10
> <PUBCHEM_MOLECULAR_WEIGHT>
654.7
> <PUBCHEM_OPENEYE_CAN_SMILES>
CC(C)(C)C(C(=O)N1CC(CC1C(=O)NC2(CC2C=C)C(=O)O)OC3=CC(=NC4=C3C=CC(=C4)OC)C(=O)O)NC(=O)OC(C)(C)C
> <PUBCHEM_OPENEYE_ISO_SMILES>
CC(C)(C)[C@@H](C(=O)N1C[C@@H](C[C@H]1C(=O)NC2(C[C@@H]2C=C)C(=O)O)OC3=CC(=NC4=C3C=CC(=C4)OC)C(=O)O)NC(=O)OC(C)(C)C
> <PUBCHEM_CACTVS_TPSA>
194
> <PUBCHEM_MONOISOTOPIC_WEIGHT>
654.29009355
> <PUBCHEM_TOTAL_CHARGE>
0
> <PUBCHEM_HEAVY_ATOM_COUNT>
47
> <PUBCHEM_ATOM_DEF_STEREO_COUNT>
4
> <PUBCHEM_ATOM_UDEF_STEREO_COUNT>
1
> <PUBCHEM_BOND_DEF_STEREO_COUNT>
0
> <PUBCHEM_BOND_UDEF_STEREO_COUNT>
0
> <PUBCHEM_ISOTOPIC_ATOM_COUNT>
0
> <PUBCHEM_COMPONENT_COUNT>
1
> <PUBCHEM_CACTVS_TAUTO_COUNT>
-1
> <PUBCHEM_COORDINATE_TYPE>
1
5
255
> <PUBCHEM_BONDANNOTATIONS>
27  13  5
14  36  8
14  37  8
15  18  3
16  19  6
20  21  6
23  3  5
32  34  8
32  35  8
34  36  8
34  38  8
35  37  8
36  40  8
38  41  8
40  42  8
41  42  8
$$$$
