500764
  -OEChem-10302200282D
 96100  0     1  0  0  0  0  0999 V2000
   10.7282   -5.5805    0.0000 Cl  0  0  0  0  0  0  0  0  0  0  0  0
   12.8249   -0.6622    0.0000 O   0  0  0  0  0  0  0  0  0  0  0  0
   11.4236    0.3558    0.0000 O   0  0  0  0  0  0  0  0  0  0  0  0
    6.3981   -1.0805    0.0000 O   0  0  0  0  0  0  0  0  0  0  0  0
   10.4291    0.4604    0.0000 O   0  0  0  0  0  0  0  0  0  0  0  0
    9.7480    1.6400    0.0000 O   0  0  0  0  0  0  0  0  0  0  0  0
    6.9902    3.9625    0.0000 O   0  0  0  0  0  0  0  0  0  0  0  0
    5.5889    2.9444    0.0000 O   0  0  0  0  0  0  0  0  0  0  0  0
    2.8680   -4.1047    0.0000 O   0  0  0  0  0  0  0  0  0  0  0  0
   10.2480   -1.2622    0.0000 N   0  0  0  0  0  0  0  0  0  0  0  0
    8.3468    0.6219    0.0000 N   0  0  0  0  0  0  0  0  0  0  0  0
    7.1712    2.2399    0.0000 N   0  0  0  0  0  0  0  0  0  0  0  0
    6.3981   -4.0805    0.0000 N   0  0  0  0  0  0  0  0  0  0  0  0
   11.2426   -1.3667    0.0000 C   0  0  3  0  0  0  0  0  0  0  0  0
   11.1380   -2.3612    0.0000 C   0  0  2  0  0  0  0  0  0  0  0  0
   12.0516   -1.9545    0.0000 C   0  0  0  0  0  0  0  0  0  0  0  0
   11.8303   -0.5577    0.0000 C   0  0  0  0  0  0  0  0  0  0  0  0
   10.5502   -3.1703    0.0000 C   0  0  0  0  0  0  0  0  0  0  0  0
    8.8468   -0.2441    0.0000 C   0  0  2  0  0  0  0  0  0  0  0  0
    9.8413   -0.3487    0.0000 C   0  0  0  0  0  0  0  0  0  0  0  0
    8.1776   -0.9873    0.0000 C   0  0  0  0  0  0  0  0  0  0  0  0
    7.2641   -0.5805    0.0000 C   0  0  2  0  0  0  0  0  0  0  0  0
    7.3686    0.4140    0.0000 C   0  0  0  0  0  0  0  0  0  0  0  0
    8.7535    1.5354    0.0000 C   0  0  0  0  0  0  0  0  0  0  0  0
   10.9570   -4.0838    0.0000 C   0  0  0  0  0  0  0  0  0  0  0  0
    8.1657    2.3445    0.0000 C   0  0  2  0  0  0  0  0  0  0  0  0
    8.5725    3.2580    0.0000 C   0  0  0  0  0  0  0  0  0  0  0  0
    8.9792    4.1716    0.0000 C   0  0  0  0  0  0  0  0  0  0  0  0
    7.6589    3.6648    0.0000 C   0  0  0  0  0  0  0  0  0  0  0  0
    9.4860    2.8513    0.0000 C   0  0  0  0  0  0  0  0  0  0  0  0
    6.3981   -2.0805    0.0000 C   0  0  0  0  0  0  0  0  0  0  0  0
    6.5834    3.0490    0.0000 C   0  0  0  0  0  0  0  0  0  0  0  0
    5.5320   -2.5805    0.0000 C   0  0  0  0  0  0  0  0  0  0  0  0
    7.2641   -2.5805    0.0000 C   0  0  0  0  0  0  0  0  0  0  0  0
    5.5320   -3.5805    0.0000 C   0  0  0  0  0  0  0  0  0  0  0  0
    7.2641   -3.5805    0.0000 C   0  0  0  0  0  0  0  0  0  0  0  0
    4.6381   -2.0459    0.0000 C   0  0  0  0  0  0  0  0  0  0  0  0
    6.4024    4.7715    0.0000 C   0  0  0  0  0  0  0  0  0  0  0  0
    4.6381   -4.1152    0.0000 C   0  0  0  0  0  0  0  0  0  0  0  0
    3.7320   -2.5597    0.0000 C   0  0  0  0  0  0  0  0  0  0  0  0
    8.1301   -4.0805    0.0000 C   0  0  0  0  0  0  0  0  0  0  0  0
    3.7320   -3.6014    0.0000 C   0  0  0  0  0  0  0  0  0  0  0  0
    5.8146    5.5805    0.0000 C   0  0  0  0  0  0  0  0  0  0  0  0
    7.2114    5.3593    0.0000 C   0  0  0  0  0  0  0  0  0  0  0  0
    5.5934    4.1837    0.0000 C   0  0  0  0  0  0  0  0  0  0  0  0
    8.9962   -3.5805    0.0000 C   0  0  0  0  0  0  0  0  0  0  0  0
    8.1301   -5.0805    0.0000 C   0  0  0  0  0  0  0  0  0  0  0  0
    9.8622   -4.0805    0.0000 C   0  0  0  0  0  0  0  0  0  0  0  0
    8.9962   -5.5805    0.0000 C   0  0  0  0  0  0  0  0  0  0  0  0
    9.8622   -5.0805    0.0000 C   0  0  0  0  0  0  0  0  0  0  0  0
    2.0000   -3.6080    0.0000 C   0  0  0  0  0  0  0  0  0  0  0  0
   10.5592   -2.1391    0.0000 H   0  0  0  0  0  0  0  0  0  0  0  0
   12.3983   -2.4685    0.0000 H   0  0  0  0  0  0  0  0  0  0  0  0
   12.4976   -1.5238    0.0000 H   0  0  0  0  0  0  0  0  0  0  0  0
    9.8836   -1.7638    0.0000 H   0  0  0  0  0  0  0  0  0  0  0  0
    9.9336   -3.1055    0.0000 H   0  0  0  0  0  0  0  0  0  0  0  0
    9.1844    0.2759    0.0000 H   0  0  0  0  0  0  0  0  0  0  0  0
    7.8676   -1.5242    0.0000 H   0  0  0  0  0  0  0  0  0  0  0  0
    8.6792   -1.3517    0.0000 H   0  0  0  0  0  0  0  0  0  0  0  0
    7.2966   -1.1997    0.0000 H   0  0  0  0  0  0  0  0  0  0  0  0
    7.3038    1.0306    0.0000 H   0  0  0  0  0  0  0  0  0  0  0  0
    6.7486    0.4140    0.0000 H   0  0  0  0  0  0  0  0  0  0  0  0
   10.5926   -4.5854    0.0000 H   0  0  0  0  0  0  0  0  0  0  0  0
   11.5736   -4.1486    0.0000 H   0  0  0  0  0  0  0  0  0  0  0  0
    7.8013    2.8460    0.0000 H   0  0  0  0  0  0  0  0  0  0  0  0
   13.1893   -0.1606    0.0000 H   0  0  0  0  0  0  0  0  0  0  0  0
    6.9190    1.6735    0.0000 H   0  0  0  0  0  0  0  0  0  0  0  0
    9.5456    3.9194    0.0000 H   0  0  0  0  0  0  0  0  0  0  0  0
    9.2314    4.7380    0.0000 H   0  0  0  0  0  0  0  0  0  0  0  0
    8.4128    4.4237    0.0000 H   0  0  0  0  0  0  0  0  0  0  0  0
    7.9111    4.2311    0.0000 H   0  0  0  0  0  0  0  0  0  0  0  0
    7.0925    3.9169    0.0000 H   0  0  0  0  0  0  0  0  0  0  0  0
    7.4067    3.0984    0.0000 H   0  0  0  0  0  0  0  0  0  0  0  0
    9.2338    2.2849    0.0000 H   0  0  0  0  0  0  0  0  0  0  0  0
   10.0524    2.5991    0.0000 H   0  0  0  0  0  0  0  0  0  0  0  0
    9.7382    3.4177    0.0000 H   0  0  0  0  0  0  0  0  0  0  0  0
    7.8010   -2.2705    0.0000 H   0  0  0  0  0  0  0  0  0  0  0  0
    4.6453   -1.4259    0.0000 H   0  0  0  0  0  0  0  0  0  0  0  0
    4.6453   -4.7352    0.0000 H   0  0  0  0  0  0  0  0  0  0  0  0
    3.1963   -2.2476    0.0000 H   0  0  0  0  0  0  0  0  0  0  0  0
    6.3162    5.9450    0.0000 H   0  0  0  0  0  0  0  0  0  0  0  0
    5.4502    6.0821    0.0000 H   0  0  0  0  0  0  0  0  0  0  0  0
    5.3130    5.2161    0.0000 H   0  0  0  0  0  0  0  0  0  0  0  0
    7.5758    4.8577    0.0000 H   0  0  0  0  0  0  0  0  0  0  0  0
    7.7130    5.7237    0.0000 H   0  0  0  0  0  0  0  0  0  0  0  0
    6.8470    5.8609    0.0000 H   0  0  0  0  0  0  0  0  0  0  0  0
    5.2289    4.6853    0.0000 H   0  0  0  0  0  0  0  0  0  0  0  0
    5.0918    3.8193    0.0000 H   0  0  0  0  0  0  0  0  0  0  0  0
    5.9578    3.6821    0.0000 H   0  0  0  0  0  0  0  0  0  0  0  0
    8.9962   -2.9605    0.0000 H   0  0  0  0  0  0  0  0  0  0  0  0
    7.5932   -5.3905    0.0000 H   0  0  0  0  0  0  0  0  0  0  0  0
   10.3991   -3.7705    0.0000 H   0  0  0  0  0  0  0  0  0  0  0  0
    8.9962   -6.2005    0.0000 H   0  0  0  0  0  0  0  0  0  0  0  0
    2.3079   -3.0699    0.0000 H   0  0  0  0  0  0  0  0  0  0  0  0
    1.4619   -3.3001    0.0000 H   0  0  0  0  0  0  0  0  0  0  0  0
    1.6921   -4.1461    0.0000 H   0  0  0  0  0  0  0  0  0  0  0  0
  1 50  1  0  0  0  0
  2 17  1  0  0  0  0
  2 66  1  0  0  0  0
  3 17  2  0  0  0  0
 22  4  1  1  0  0  0
  4 31  1  0  0  0  0
  5 20  2  0  0  0  0
  6 24  2  0  0  0  0
  7 32  1  0  0  0  0
  7 38  1  0  0  0  0
  8 32  2  0  0  0  0
  9 42  1  0  0  0  0
  9 51  1  0  0  0  0
 10 14  1  0  0  0  0
 10 20  1  0  0  0  0
 10 55  1  0  0  0  0
 11 19  1  0  0  0  0
 11 23  1  0  0  0  0
 11 24  1  0  0  0  0
 26 12  1  1  0  0  0
 12 32  1  0  0  0  0
 12 67  1  0  0  0  0
 13 35  1  0  0  0  0
 13 36  2  0  0  0  0
 14 15  1  0  0  0  0
 14 16  1  0  0  0  0
 14 17  1  0  0  0  0
 15 16  1  0  0  0  0
 15 18  1  6  0  0  0
 15 52  1  0  0  0  0
 16 53  1  0  0  0  0
 16 54  1  0  0  0  0
 18 25  2  0  0  0  0
 18 56  1  0  0  0  0
 19 20  1  6  0  0  0
 19 21  1  0  0  0  0
 19 57  1  0  0  0  0
 21 22  1  0  0  0  0
 21 58  1  0  0  0  0
 21 59  1  0  0  0  0
 22 23  1  0  0  0  0
 22 60  1  0  0  0  0
 23 61  1  0  0  0  0
 23 62  1  0  0  0  0
 24 26  1  0  0  0  0
 25 63  1  0  0  0  0
 25 64  1  0  0  0  0
 26 27  1  0  0  0  0
 26 65  1  0  0  0  0
 27 28  1  0  0  0  0
 27 29  1  0  0  0  0
 27 30  1  0  0  0  0
 28 68  1  0  0  0  0
 28 69  1  0  0  0  0
 28 70  1  0  0  0  0
 29 71  1  0  0  0  0
 29 72  1  0  0  0  0
 29 73  1  0  0  0  0
 30 74  1  0  0  0  0
 30 75  1  0  0  0  0
 30 76  1  0  0  0  0
 31 33  1  0  0  0  0
 31 34  2  0  0  0  0
 33 35  2  0  0  0  0
 33 37  1  0  0  0  0
 34 36  1  0  0  0  0
 34 77  1  0  0  0  0
 35 39  1  0  0  0  0
 36 41  1  0  0  0  0
 37 40  2  0  0  0  0
 37 78  1  0  0  0  0
 38 43  1  0  0  0  0
 38 44  1  0  0  0  0
 38 45  1  0  0  0  0
 39 42  2  0  0  0  0
 39 79  1  0  0  0  0
 40 42  1  0  0  0  0
 40 80  1  0  0  0  0
 41 46  2  0  0  0  0
 41 47  1  0  0  0  0
 43 81  1  0  0  0  0
 43 82  1  0  0  0  0
 43 83  1  0  0  0  0
 44 84  1  0  0  0  0
 44 85  1  0  0  0  0
 44 86  1  0  0  0  0
 45 87  1  0  0  0  0
 45 88  1  0  0  0  0
 45 89  1  0  0  0  0
 46 48  1  0  0  0  0
 46 90  1  0  0  0  0
 47 49  2  0  0  0  0
 47 91  1  0  0  0  0
 48 50  2  0  0  0  0
 48 92  1  0  0  0  0
 49 50  1  0  0  0  0
 49 93  1  0  0  0  0
 51 94  1  0  0  0  0
 51 95  1  0  0  0  0
 51 96  1  0  0  0  0
M  END
> <PUBCHEM_COMPOUND_CID>
500764
> <PUBCHEM_COMPOUND_CANONICALIZED>
1
> <PUBCHEM_CACTVS_COMPLEXITY>
1310
> <PUBCHEM_CACTVS_HBOND_ACCEPTOR>
9
> <PUBCHEM_CACTVS_HBOND_DONOR>
3
> <PUBCHEM_CACTVS_ROTATABLE_BOND>
13
> <PUBCHEM_CACTVS_SUBSKEYS>
AAADcfB/vAAEAAAAAAAAAAAAGAAAAWAAAAA8YIAAAAAAAACx9AAAHgIQCAAAD/7hniYyzvPIFgCoAyXyXACCiCAhJyAImKG+bpkOZvLFs7ufeCjm1hnY6Ae68e8PJAAAAgACAABIAAAEAAQAAAAAAAAAAA==
> <PUBCHEM_IUPAC_OPENEYE_NAME>
(2R)-1-[[(2S,4R)-1-[(2S)-2-(tert-butoxycarbonylamino)-3,3-dimethyl-butanoyl]-4-[[2-(4-chlorophenyl)-7-methoxy-4-quinolyl]oxy]pyrrolidine-2-carbonyl]amino]-2-vinyl-cyclopropanecarboxylic acid
> <PUBCHEM_IUPAC_CAS_NAME>
(2R)-1-[[[(2S,4R)-4-[[2-(4-chlorophenyl)-7-methoxy-4-quinolinyl]oxy]-1-[(2S)-3,3-dimethyl-2-[[(2-methylpropan-2-yl)oxy-oxomethyl]amino]-1-oxobutyl]-2-pyrrolidinyl]-oxomethyl]amino]-2-ethenyl-1-cyclopropanecarboxylic acid
> <PUBCHEM_IUPAC_NAME_MARKUP>
(2<I>R</I>)-1-[[(2<I>S</I>,4<I>R</I>)-4-[2-(4-chlorophenyl)-7-methoxyquinolin-4-yl]oxy-1-[(2<I>S</I>)-3,3-dimethyl-2-[(2-methylpropan-2-yl)oxycarbonylamino]butanoyl]pyrrolidine-2-carbonyl]amino]-2-ethenylcyclopropane-1-carboxylic acid
> <PUBCHEM_IUPAC_NAME>
(2R)-1-[[(2S,4R)-4-[2-(4-chlorophenyl)-7-methoxyquinolin-4-yl]oxy-1-[(2S)-3,3-dimethyl-2-[(2-methylpropan-2-yl)oxycarbonylamino]butanoyl]pyrrolidine-2-carbonyl]amino]-2-ethenylcyclopropane-1-carboxylic acid
> <PUBCHEM_IUPAC_SYSTEMATIC_NAME>
(2R)-1-[[(2S,4R)-4-[2-(4-chlorophenyl)-7-methoxy-quinolin-4-yl]oxy-1-[(2S)-3,3-dimethyl-2-[(2-methylpropan-2-yl)oxycarbonylamino]butanoyl]pyrrolidin-2-yl]carbonylamino]-2-ethenyl-cyclopropane-1-carboxylic acid
> <PUBCHEM_IUPAC_TRADITIONAL_NAME>
(2R)-1-[[(2S,4R)-1-[(2S)-2-(tert-butoxycarbonylamino)-3,3-dimethyl-butanoyl]-4-[[2-(4-chlorophenyl)-7-methoxy-4-quinolyl]oxy]prolyl]amino]-2-vinyl-cyclopropanecarboxylic acid
> <PUBCHEM_IUPAC_INCHI>
InChI=1S/C38H45ClN4O8/c1-9-22-19-38(22,34(46)47)42-32(44)29-17-25(20-43(29)33(45)31(36(2,3)4)41-35(48)51-37(5,6)7)50-30-18-27(21-10-12-23(39)13-11-21)40-28-16-24(49-8)14-15-26(28)30/h9-16,18,22,25,29,31H,1,17,19-20H2,2-8H3,(H,41,48)(H,42,44)(H,46,47)/t22-,25+,29-,31+,38?/m0/s1
> <PUBCHEM_IUPAC_INCHIKEY>
BTQYNDVGBUETEO-PLDAKMIESA-N
> <PUBCHEM_XLOGP3_AA>
6.5
> <PUBCHEM_EXACT_MASS>
720.2925921
> <PUBCHEM_MOLECULAR_FORMULA>
C38H45ClN4O8
> <PUBCHEM_MOLECULAR_WEIGHT>
721.2
> <PUBCHEM_OPENEYE_CAN_SMILES>
CC(C)(C)C(C(=O)N1CC(CC1C(=O)NC2(CC2C=C)C(=O)O)OC3=CC(=NC4=C3C=CC(=C4)OC)C5=CC=C(C=C5)Cl)NC(=O)OC(C)(C)C
> <PUBCHEM_OPENEYE_ISO_SMILES>
CC(C)(C)[C@@H](C(=O)N1C[C@@H](C[C@H]1C(=O)NC2(C[C@@H]2C=C)C(=O)O)OC3=CC(=NC4=C3C=CC(=C4)OC)C5=CC=C(C=C5)Cl)NC(=O)OC(C)(C)C
> <PUBCHEM_CACTVS_TPSA>
156
> <PUBCHEM_MONOISOTOPIC_WEIGHT>
720.2925921
> <PUBCHEM_TOTAL_CHARGE>
0
> <PUBCHEM_HEAVY_ATOM_COUNT>
51
> <PUBCHEM_ATOM_DEF_STEREO_COUNT>
4
> <PUBCHEM_ATOM_UDEF_STEREO_COUNT>
1
> <PUBCHEM_BOND_DEF_STEREO_COUNT>
0
> <PUBCHEM_BOND_UDEF_STEREO_COUNT>
0
> <PUBCHEM_ISOTOPIC_ATOM_COUNT>
0
> <PUBCHEM_COMPONENT_COUNT>
1
> <PUBCHEM_CACTVS_TAUTO_COUNT>
-1
> <PUBCHEM_COORDINATE_TYPE>
1
5
255
> <PUBCHEM_BONDANNOTATIONS>
26  12  5
13  35  8
13  36  8
14  17  3
15  18  6
19  20  6
31  33  8
31  34  8
33  35  8
33  37  8
34  36  8
35  39  8
37  40  8
39  42  8
22  4  5
40  42  8
41  46  8
41  47  8
46  48  8
47  49  8
48  50  8
49  50  8
$$$$
