500763
  -OEChem-10302200282D
103108  0     1  0  0  0  0  0999 V2000
   12.8249   -1.6280    0.0000 O   0  0  0  0  0  0  0  0  0  0  0  0
   11.4236   -0.6100    0.0000 O   0  0  0  0  0  0  0  0  0  0  0  0
    6.3981   -2.0463    0.0000 O   0  0  0  0  0  0  0  0  0  0  0  0
   10.4291   -0.5054    0.0000 O   0  0  0  0  0  0  0  0  0  0  0  0
    9.7480    0.6742    0.0000 O   0  0  0  0  0  0  0  0  0  0  0  0
    5.5889    1.9786    0.0000 O   0  0  0  0  0  0  0  0  0  0  0  0
    6.4024    3.8057    0.0000 O   0  0  0  0  0  0  0  0  0  0  0  0
    2.8680   -5.0705    0.0000 O   0  0  0  0  0  0  0  0  0  0  0  0
   10.2480   -2.2280    0.0000 N   0  0  0  0  0  0  0  0  0  0  0  0
    8.3468   -0.3439    0.0000 N   0  0  0  0  0  0  0  0  0  0  0  0
    7.1712    1.2741    0.0000 N   0  0  0  0  0  0  0  0  0  0  0  0
    6.3981   -5.0463    0.0000 N   0  0  0  0  0  0  0  0  0  0  0  0
   11.2426   -2.3325    0.0000 C   0  0  3  0  0  0  0  0  0  0  0  0
   11.1380   -3.3271    0.0000 C   0  0  2  0  0  0  0  0  0  0  0  0
   12.0516   -2.9203    0.0000 C   0  0  0  0  0  0  0  0  0  0  0  0
   11.8303   -1.5235    0.0000 C   0  0  0  0  0  0  0  0  0  0  0  0
   10.5502   -4.1361    0.0000 C   0  0  0  0  0  0  0  0  0  0  0  0
    8.8468   -1.2099    0.0000 C   0  0  2  0  0  0  0  0  0  0  0  0
    9.8413   -1.3145    0.0000 C   0  0  0  0  0  0  0  0  0  0  0  0
    8.1776   -1.9531    0.0000 C   0  0  0  0  0  0  0  0  0  0  0  0
    7.2641   -1.5463    0.0000 C   0  0  2  0  0  0  0  0  0  0  0  0
    7.3686   -0.5518    0.0000 C   0  0  0  0  0  0  0  0  0  0  0  0
   10.9570   -5.0496    0.0000 C   0  0  0  0  0  0  0  0  0  0  0  0
    8.7535    0.5696    0.0000 C   0  0  0  0  0  0  0  0  0  0  0  0
    8.1657    1.3786    0.0000 C   0  0  2  0  0  0  0  0  0  0  0  0
    8.5725    2.2922    0.0000 C   0  0  0  0  0  0  0  0  0  0  0  0
    8.9792    3.2058    0.0000 C   0  0  0  0  0  0  0  0  0  0  0  0
    7.6589    2.6989    0.0000 C   0  0  0  0  0  0  0  0  0  0  0  0
    9.4860    1.8855    0.0000 C   0  0  0  0  0  0  0  0  0  0  0  0
    6.3981   -3.0463    0.0000 C   0  0  0  0  0  0  0  0  0  0  0  0
    6.5834    2.0831    0.0000 C   0  0  0  0  0  0  0  0  0  0  0  0
    5.5320   -3.5463    0.0000 C   0  0  0  0  0  0  0  0  0  0  0  0
    7.2641   -3.5463    0.0000 C   0  0  0  0  0  0  0  0  0  0  0  0
    5.5320   -4.5463    0.0000 C   0  0  0  0  0  0  0  0  0  0  0  0
    6.9902    2.9967    0.0000 C   0  0  0  0  0  0  0  0  0  0  0  0
    7.2641   -4.5463    0.0000 C   0  0  0  0  0  0  0  0  0  0  0  0
    4.6381   -3.0117    0.0000 C   0  0  0  0  0  0  0  0  0  0  0  0
    4.6381   -5.0810    0.0000 C   0  0  0  0  0  0  0  0  0  0  0  0
    3.7320   -3.5255    0.0000 C   0  0  0  0  0  0  0  0  0  0  0  0
    8.1301   -5.0463    0.0000 C   0  0  0  0  0  0  0  0  0  0  0  0
    3.7320   -4.5672    0.0000 C   0  0  0  0  0  0  0  0  0  0  0  0
    6.8091    4.7192    0.0000 C   0  0  0  0  0  0  0  0  0  0  0  0
    8.9962   -4.5463    0.0000 C   0  0  0  0  0  0  0  0  0  0  0  0
    8.1301   -6.0463    0.0000 C   0  0  0  0  0  0  0  0  0  0  0  0
    6.2213    5.5283    0.0000 C   0  0  0  0  0  0  0  0  0  0  0  0
    7.8036    4.8238    0.0000 C   0  0  0  0  0  0  0  0  0  0  0  0
    9.8622   -5.0463    0.0000 C   0  0  0  0  0  0  0  0  0  0  0  0
    8.9962   -6.5463    0.0000 C   0  0  0  0  0  0  0  0  0  0  0  0
    9.8622   -6.0463    0.0000 C   0  0  0  0  0  0  0  0  0  0  0  0
    2.0000   -4.5738    0.0000 C   0  0  0  0  0  0  0  0  0  0  0  0
    6.6281    6.4418    0.0000 C   0  0  0  0  0  0  0  0  0  0  0  0
    8.2104    5.7373    0.0000 C   0  0  0  0  0  0  0  0  0  0  0  0
    5.2268    5.4237    0.0000 C   0  0  0  0  0  0  0  0  0  0  0  0
    8.3914    4.0148    0.0000 C   0  0  0  0  0  0  0  0  0  0  0  0
    7.6226    6.5463    0.0000 C   0  0  0  0  0  0  0  0  0  0  0  0
   10.5592   -3.1049    0.0000 H   0  0  0  0  0  0  0  0  0  0  0  0
   12.3983   -3.4343    0.0000 H   0  0  0  0  0  0  0  0  0  0  0  0
   12.4976   -2.4896    0.0000 H   0  0  0  0  0  0  0  0  0  0  0  0
    9.8836   -2.7296    0.0000 H   0  0  0  0  0  0  0  0  0  0  0  0
    9.9336   -4.0713    0.0000 H   0  0  0  0  0  0  0  0  0  0  0  0
    9.1844   -0.6900    0.0000 H   0  0  0  0  0  0  0  0  0  0  0  0
    7.8676   -2.4900    0.0000 H   0  0  0  0  0  0  0  0  0  0  0  0
    8.6792   -2.3175    0.0000 H   0  0  0  0  0  0  0  0  0  0  0  0
    6.7441   -1.2087    0.0000 H   0  0  0  0  0  0  0  0  0  0  0  0
    7.3038    0.0648    0.0000 H   0  0  0  0  0  0  0  0  0  0  0  0
    6.7486   -0.5518    0.0000 H   0  0  0  0  0  0  0  0  0  0  0  0
   10.5926   -5.5512    0.0000 H   0  0  0  0  0  0  0  0  0  0  0  0
   11.5736   -5.1144    0.0000 H   0  0  0  0  0  0  0  0  0  0  0  0
    7.8013    1.8802    0.0000 H   0  0  0  0  0  0  0  0  0  0  0  0
   13.1893   -1.1265    0.0000 H   0  0  0  0  0  0  0  0  0  0  0  0
    6.9190    0.7077    0.0000 H   0  0  0  0  0  0  0  0  0  0  0  0
    9.5456    2.9536    0.0000 H   0  0  0  0  0  0  0  0  0  0  0  0
    9.2314    3.7721    0.0000 H   0  0  0  0  0  0  0  0  0  0  0  0
    8.4128    3.4579    0.0000 H   0  0  0  0  0  0  0  0  0  0  0  0
    7.9111    3.2653    0.0000 H   0  0  0  0  0  0  0  0  0  0  0  0
    7.0925    2.9511    0.0000 H   0  0  0  0  0  0  0  0  0  0  0  0
    7.4067    2.1325    0.0000 H   0  0  0  0  0  0  0  0  0  0  0  0
    9.2338    1.3191    0.0000 H   0  0  0  0  0  0  0  0  0  0  0  0
   10.0524    1.6333    0.0000 H   0  0  0  0  0  0  0  0  0  0  0  0
    9.7382    2.4519    0.0000 H   0  0  0  0  0  0  0  0  0  0  0  0
    7.8010   -3.2363    0.0000 H   0  0  0  0  0  0  0  0  0  0  0  0
    7.5042    2.6500    0.0000 H   0  0  0  0  0  0  0  0  0  0  0  0
    7.4208    3.4427    0.0000 H   0  0  0  0  0  0  0  0  0  0  0  0
    4.6453   -2.3917    0.0000 H   0  0  0  0  0  0  0  0  0  0  0  0
    4.6453   -5.7010    0.0000 H   0  0  0  0  0  0  0  0  0  0  0  0
    3.1963   -3.2135    0.0000 H   0  0  0  0  0  0  0  0  0  0  0  0
    8.9962   -3.9263    0.0000 H   0  0  0  0  0  0  0  0  0  0  0  0
    7.5932   -6.3563    0.0000 H   0  0  0  0  0  0  0  0  0  0  0  0
   10.3991   -4.7363    0.0000 H   0  0  0  0  0  0  0  0  0  0  0  0
    8.9962   -7.1663    0.0000 H   0  0  0  0  0  0  0  0  0  0  0  0
   10.3991   -6.3563    0.0000 H   0  0  0  0  0  0  0  0  0  0  0  0
    2.3079   -4.0357    0.0000 H   0  0  0  0  0  0  0  0  0  0  0  0
    1.4619   -4.2659    0.0000 H   0  0  0  0  0  0  0  0  0  0  0  0
    1.6921   -5.1120    0.0000 H   0  0  0  0  0  0  0  0  0  0  0  0
    6.2636    6.9434    0.0000 H   0  0  0  0  0  0  0  0  0  0  0  0
    8.8270    5.8021    0.0000 H   0  0  0  0  0  0  0  0  0  0  0  0
    5.1620    6.0403    0.0000 H   0  0  0  0  0  0  0  0  0  0  0  0
    4.6102    5.3589    0.0000 H   0  0  0  0  0  0  0  0  0  0  0  0
    5.2916    4.8071    0.0000 H   0  0  0  0  0  0  0  0  0  0  0  0
    7.8898    3.6503    0.0000 H   0  0  0  0  0  0  0  0  0  0  0  0
    8.7558    3.5132    0.0000 H   0  0  0  0  0  0  0  0  0  0  0  0
    8.8930    4.3792    0.0000 H   0  0  0  0  0  0  0  0  0  0  0  0
    7.8748    7.1127    0.0000 H   0  0  0  0  0  0  0  0  0  0  0  0
  1 16  1  0  0  0  0
  1 70  1  0  0  0  0
  2 16  2  0  0  0  0
 21  3  1  1  0  0  0
  3 30  1  0  0  0  0
  4 19  2  0  0  0  0
  5 24  2  0  0  0  0
  6 31  2  0  0  0  0
  7 35  1  0  0  0  0
  7 42  1  0  0  0  0
  8 41  1  0  0  0  0
  8 50  1  0  0  0  0
  9 13  1  0  0  0  0
  9 19  1  0  0  0  0
  9 59  1  0  0  0  0
 10 18  1  0  0  0  0
 10 22  1  0  0  0  0
 10 24  1  0  0  0  0
 25 11  1  1  0  0  0
 11 31  1  0  0  0  0
 11 71  1  0  0  0  0
 12 34  1  0  0  0  0
 12 36  2  0  0  0  0
 13 14  1  0  0  0  0
 13 15  1  0  0  0  0
 13 16  1  0  0  0  0
 14 15  1  0  0  0  0
 14 17  1  6  0  0  0
 14 56  1  0  0  0  0
 15 57  1  0  0  0  0
 15 58  1  0  0  0  0
 17 23  2  0  0  0  0
 17 60  1  0  0  0  0
 18 19  1  6  0  0  0
 18 20  1  0  0  0  0
 18 61  1  0  0  0  0
 20 21  1  0  0  0  0
 20 62  1  0  0  0  0
 20 63  1  0  0  0  0
 21 22  1  0  0  0  0
 21 64  1  0  0  0  0
 22 65  1  0  0  0  0
 22 66  1  0  0  0  0
 23 67  1  0  0  0  0
 23 68  1  0  0  0  0
 24 25  1  0  0  0  0
 25 26  1  0  0  0  0
 25 69  1  0  0  0  0
 26 27  1  0  0  0  0
 26 28  1  0  0  0  0
 26 29  1  0  0  0  0
 27 72  1  0  0  0  0
 27 73  1  0  0  0  0
 27 74  1  0  0  0  0
 28 75  1  0  0  0  0
 28 76  1  0  0  0  0
 28 77  1  0  0  0  0
 29 78  1  0  0  0  0
 29 79  1  0  0  0  0
 29 80  1  0  0  0  0
 30 32  1  0  0  0  0
 30 33  2  0  0  0  0
 31 35  1  0  0  0  0
 32 34  2  0  0  0  0
 32 37  1  0  0  0  0
 33 36  1  0  0  0  0
 33 81  1  0  0  0  0
 34 38  1  0  0  0  0
 35 82  1  0  0  0  0
 35 83  1  0  0  0  0
 36 40  1  0  0  0  0
 37 39  2  0  0  0  0
 37 84  1  0  0  0  0
 38 41  2  0  0  0  0
 38 85  1  0  0  0  0
 39 41  1  0  0  0  0
 39 86  1  0  0  0  0
 40 43  2  0  0  0  0
 40 44  1  0  0  0  0
 42 45  2  0  0  0  0
 42 46  1  0  0  0  0
 43 47  1  0  0  0  0
 43 87  1  0  0  0  0
 44 48  2  0  0  0  0
 44 88  1  0  0  0  0
 45 51  1  0  0  0  0
 45 53  1  0  0  0  0
 46 52  2  0  0  0  0
 46 54  1  0  0  0  0
 47 49  2  0  0  0  0
 47 89  1  0  0  0  0
 48 49  1  0  0  0  0
 48 90  1  0  0  0  0
 49 91  1  0  0  0  0
 50 92  1  0  0  0  0
 50 93  1  0  0  0  0
 50 94  1  0  0  0  0
 51 55  2  0  0  0  0
 51 95  1  0  0  0  0
 52 55  1  0  0  0  0
 52 96  1  0  0  0  0
 53 97  1  0  0  0  0
 53 98  1  0  0  0  0
 53 99  1  0  0  0  0
 54100  1  0  0  0  0
 54101  1  0  0  0  0
 54102  1  0  0  0  0
 55103  1  0  0  0  0
M  END
> <PUBCHEM_COMPOUND_CID>
500763
> <PUBCHEM_COMPOUND_CANONICALIZED>
1
> <PUBCHEM_CACTVS_COMPLEXITY>
1390
> <PUBCHEM_CACTVS_HBOND_ACCEPTOR>
9
> <PUBCHEM_CACTVS_HBOND_DONOR>
3
> <PUBCHEM_CACTVS_ROTATABLE_BOND>
14
> <PUBCHEM_CACTVS_SUBSKEYS>
AAADcfB/vAAAAAAAAAAAAAAAGAAAAWAAAAA8YMEAAAAAAACx9AAAHgAQCAAAD7zhngYyzvPIFgCoAyXyXAKCiCAhIiAImKH+bJgOZvLEsb+XeCjm1hnY6Ae68e8PIAACAgAKAABAAAQEABQAAAAAAAAAAA==
> <PUBCHEM_IUPAC_OPENEYE_NAME>
(2R)-1-[[(2S,4R)-1-[(2S)-2-[[2-(2,6-dimethylphenoxy)acetyl]amino]-3,3-dimethyl-butanoyl]-4-[(7-methoxy-2-phenyl-4-quinolyl)oxy]pyrrolidine-2-carbonyl]amino]-2-vinyl-cyclopropanecarboxylic acid
> <PUBCHEM_IUPAC_CAS_NAME>
(2R)-1-[[[(2S,4R)-1-[(2S)-2-[[2-(2,6-dimethylphenoxy)-1-oxoethyl]amino]-3,3-dimethyl-1-oxobutyl]-4-[(7-methoxy-2-phenyl-4-quinolinyl)oxy]-2-pyrrolidinyl]-oxomethyl]amino]-2-ethenyl-1-cyclopropanecarboxylic acid
> <PUBCHEM_IUPAC_NAME_MARKUP>
(2<I>R</I>)-1-[[(2<I>S</I>,4<I>R</I>)-1-[(2<I>S</I>)-2-[[2-(2,6-dimethylphenoxy)acetyl]amino]-3,3-dimethylbutanoyl]-4-(7-methoxy-2-phenylquinolin-4-yl)oxypyrrolidine-2-carbonyl]amino]-2-ethenylcyclopropane-1-carboxylic acid
> <PUBCHEM_IUPAC_NAME>
(2R)-1-[[(2S,4R)-1-[(2S)-2-[[2-(2,6-dimethylphenoxy)acetyl]amino]-3,3-dimethylbutanoyl]-4-(7-methoxy-2-phenylquinolin-4-yl)oxypyrrolidine-2-carbonyl]amino]-2-ethenylcyclopropane-1-carboxylic acid
> <PUBCHEM_IUPAC_SYSTEMATIC_NAME>
(2R)-1-[[(2S,4R)-1-[(2S)-2-[2-(2,6-dimethylphenoxy)ethanoylamino]-3,3-dimethyl-butanoyl]-4-(7-methoxy-2-phenyl-quinolin-4-yl)oxy-pyrrolidin-2-yl]carbonylamino]-2-ethenyl-cyclopropane-1-carboxylic acid
> <PUBCHEM_IUPAC_TRADITIONAL_NAME>
(2R)-1-[[(2S,4R)-1-[(2S)-2-[[2-(2,6-dimethylphenoxy)acetyl]amino]-3,3-dimethyl-butanoyl]-4-[(7-methoxy-2-phenyl-4-quinolyl)oxy]prolyl]amino]-2-vinyl-cyclopropanecarboxylic acid
> <PUBCHEM_IUPAC_INCHI>
InChI=1S/C43H48N4O8/c1-8-28-22-43(28,41(51)52)46-39(49)34-20-30(55-35-21-32(27-15-10-9-11-16-27)44-33-19-29(53-7)17-18-31(33)35)23-47(34)40(50)38(42(4,5)6)45-36(48)24-54-37-25(2)13-12-14-26(37)3/h8-19,21,28,30,34,38H,1,20,22-24H2,2-7H3,(H,45,48)(H,46,49)(H,51,52)/t28-,30+,34-,38+,43?/m0/s1
> <PUBCHEM_IUPAC_INCHIKEY>
PORRUIXHNFVVJV-UELWSCPASA-N
> <PUBCHEM_XLOGP3_AA>
6.9
> <PUBCHEM_EXACT_MASS>
748.34721450
> <PUBCHEM_MOLECULAR_FORMULA>
C43H48N4O8
> <PUBCHEM_MOLECULAR_WEIGHT>
748.9
> <PUBCHEM_OPENEYE_CAN_SMILES>
CC1=C(C(=CC=C1)C)OCC(=O)NC(C(=O)N2CC(CC2C(=O)NC3(CC3C=C)C(=O)O)OC4=CC(=NC5=C4C=CC(=C5)OC)C6=CC=CC=C6)C(C)(C)C
> <PUBCHEM_OPENEYE_ISO_SMILES>
CC1=C(C(=CC=C1)C)OCC(=O)N[C@H](C(=O)N2C[C@@H](C[C@H]2C(=O)NC3(C[C@@H]3C=C)C(=O)O)OC4=CC(=NC5=C4C=CC(=C5)OC)C6=CC=CC=C6)C(C)(C)C
> <PUBCHEM_CACTVS_TPSA>
156
> <PUBCHEM_MONOISOTOPIC_WEIGHT>
748.34721450
> <PUBCHEM_TOTAL_CHARGE>
0
> <PUBCHEM_HEAVY_ATOM_COUNT>
55
> <PUBCHEM_ATOM_DEF_STEREO_COUNT>
4
> <PUBCHEM_ATOM_UDEF_STEREO_COUNT>
1
> <PUBCHEM_BOND_DEF_STEREO_COUNT>
0
> <PUBCHEM_BOND_UDEF_STEREO_COUNT>
0
> <PUBCHEM_ISOTOPIC_ATOM_COUNT>
0
> <PUBCHEM_COMPONENT_COUNT>
1
> <PUBCHEM_CACTVS_TAUTO_COUNT>
-1
> <PUBCHEM_COORDINATE_TYPE>
1
5
255
> <PUBCHEM_BONDANNOTATIONS>
25  11  5
12  34  8
12  36  8
13  16  3
14  17  6
18  19  6
21  3  5
30  32  8
30  33  8
32  34  8
32  37  8
33  36  8
34  38  8
37  39  8
38  41  8
39  41  8
40  43  8
40  44  8
42  45  8
42  46  8
43  47  8
44  48  8
45  51  8
46  52  8
47  49  8
48  49  8
51  55  8
52  55  8
$$$$
