500717
  -OEChem-10302200282D
109113  0     1  0  0  0  0  0999 V2000
   10.0769   -4.7477    0.0000 S   0  0  0  0  0  0  0  0  0  0  0  0
    8.7928    5.1353    0.0000 O   0  0  0  0  0  0  0  0  0  0  0  0
    9.8108    3.7340    0.0000 O   0  0  0  0  0  0  0  0  0  0  0  0
    7.2622   -0.5453    0.0000 O   0  0  0  0  0  0  0  0  0  0  0  0
    9.9154    2.7395    0.0000 O   0  0  0  0  0  0  0  0  0  0  0  0
   11.1121   -0.7269    0.0000 O   0  0  0  0  0  0  0  0  0  0  0  0
   13.4460    1.4068    0.0000 O   0  0  0  0  0  0  0  0  0  0  0  0
   14.1505   -0.1755    0.0000 O   0  0  0  0  0  0  0  0  0  0  0  0
   11.7525   -5.4997    0.0000 O   0  0  0  0  0  0  0  0  0  0  0  0
    8.1928    2.5584    0.0000 N   0  0  0  0  0  0  0  0  0  0  0  0
    9.7109    0.2912    0.0000 N   0  0  0  0  0  0  0  0  0  0  0  0
   12.4279    0.0056    0.0000 N   0  0  0  0  0  0  0  0  0  0  0  0
    7.2622   -3.5452    0.0000 N   0  0  0  0  0  0  0  0  0  0  0  0
    3.7320   -3.5694    0.0000 N   0  0  0  0  0  0  0  0  0  0  0  0
    9.9078   -3.1385    0.0000 N   0  0  0  0  0  0  0  0  0  0  0  0
   11.5714   -3.7771    0.0000 N   0  0  0  0  0  0  0  0  0  0  0  0
    8.0883    3.5530    0.0000 C   0  0  3  0  0  0  0  0  0  0  0  0
    7.0937    3.4484    0.0000 C   0  0  2  0  0  0  0  0  0  0  0  0
    7.5005    4.3620    0.0000 C   0  0  0  0  0  0  0  0  0  0  0  0
    8.8973    4.1408    0.0000 C   0  0  0  0  0  0  0  0  0  0  0  0
    6.2847    2.8606    0.0000 C   0  0  0  0  0  0  0  0  0  0  0  0
    9.2109    1.1572    0.0000 C   0  0  2  0  0  0  0  0  0  0  0  0
    9.1063    2.1517    0.0000 C   0  0  0  0  0  0  0  0  0  0  0  0
    8.2327    0.9493    0.0000 C   0  0  0  0  0  0  0  0  0  0  0  0
    8.1282   -0.0453    0.0000 C   0  0  2  0  0  0  0  0  0  0  0  0
    9.0417   -0.4520    0.0000 C   0  0  0  0  0  0  0  0  0  0  0  0
    5.3712    3.2674    0.0000 C   0  0  0  0  0  0  0  0  0  0  0  0
   10.7054    0.1866    0.0000 C   0  0  0  0  0  0  0  0  0  0  0  0
   11.6189    0.5934    0.0000 C   0  0  2  0  0  0  0  0  0  0  0  0
   11.7235    1.5879    0.0000 C   0  0  0  0  0  0  0  0  0  0  0  0
   11.8280    2.5824    0.0000 C   0  0  0  0  0  0  0  0  0  0  0  0
   12.7180    1.4834    0.0000 C   0  0  0  0  0  0  0  0  0  0  0  0
   10.7289    1.6924    0.0000 C   0  0  0  0  0  0  0  0  0  0  0  0
    7.2622   -1.5452    0.0000 C   0  0  0  0  0  0  0  0  0  0  0  0
    6.3961   -2.0452    0.0000 C   0  0  0  0  0  0  0  0  0  0  0  0
   13.3415    0.4123    0.0000 C   0  0  0  0  0  0  0  0  0  0  0  0
    8.1282   -2.0452    0.0000 C   0  0  0  0  0  0  0  0  0  0  0  0
    6.3961   -3.0452    0.0000 C   0  0  0  0  0  0  0  0  0  0  0  0
    8.1282   -3.0452    0.0000 C   0  0  0  0  0  0  0  0  0  0  0  0
    5.5022   -1.5106    0.0000 C   0  0  0  0  0  0  0  0  0  0  0  0
   14.3596    1.8136    0.0000 C   0  0  0  0  0  0  0  0  0  0  0  0
    5.5022   -3.5799    0.0000 C   0  0  0  0  0  0  0  0  0  0  0  0
    4.5961   -2.0244    0.0000 C   0  0  0  0  0  0  0  0  0  0  0  0
    4.5961   -3.0661    0.0000 C   0  0  0  0  0  0  0  0  0  0  0  0
    8.9942   -3.5452    0.0000 C   0  0  0  0  0  0  0  0  0  0  0  0
   15.2731    2.2203    0.0000 C   0  0  0  0  0  0  0  0  0  0  0  0
   13.9528    2.7271    0.0000 C   0  0  0  0  0  0  0  0  0  0  0  0
   14.7663    0.9000    0.0000 C   0  0  0  0  0  0  0  0  0  0  0  0
    9.0987   -4.5398    0.0000 C   0  0  0  0  0  0  0  0  0  0  0  0
    2.8641   -3.0727    0.0000 C   0  0  0  0  0  0  0  0  0  0  0  0
    3.7359   -4.5694    0.0000 C   0  0  0  0  0  0  0  0  0  0  0  0
   10.5769   -3.8817    0.0000 C   0  0  0  0  0  0  0  0  0  0  0  0
    2.0000   -3.5761    0.0000 C   0  0  0  0  0  0  0  0  0  0  0  0
    2.8718   -5.0727    0.0000 C   0  0  0  0  0  0  0  0  0  0  0  0
   12.1592   -4.5862    0.0000 C   0  0  0  0  0  0  0  0  0  0  0  0
   13.1537   -4.4816    0.0000 C   0  0  0  0  0  0  0  0  0  0  0  0
    6.6119    3.8386    0.0000 H   0  0  0  0  0  0  0  0  0  0  0  0
    7.9312    4.8080    0.0000 H   0  0  0  0  0  0  0  0  0  0  0  0
    6.9865    4.7087    0.0000 H   0  0  0  0  0  0  0  0  0  0  0  0
    7.6912    2.1940    0.0000 H   0  0  0  0  0  0  0  0  0  0  0  0
    6.3495    2.2440    0.0000 H   0  0  0  0  0  0  0  0  0  0  0  0
    9.8005    1.3488    0.0000 H   0  0  0  0  0  0  0  0  0  0  0  0
    8.1679    1.5659    0.0000 H   0  0  0  0  0  0  0  0  0  0  0  0
    7.6127    0.9493    0.0000 H   0  0  0  0  0  0  0  0  0  0  0  0
    8.1606   -0.6644    0.0000 H   0  0  0  0  0  0  0  0  0  0  0  0
    8.7317   -0.9889    0.0000 H   0  0  0  0  0  0  0  0  0  0  0  0
    9.5433   -0.8164    0.0000 H   0  0  0  0  0  0  0  0  0  0  0  0
    5.3064    3.8840    0.0000 H   0  0  0  0  0  0  0  0  0  0  0  0
    4.8696    2.9030    0.0000 H   0  0  0  0  0  0  0  0  0  0  0  0
    9.2943    5.4997    0.0000 H   0  0  0  0  0  0  0  0  0  0  0  0
   11.5541   -0.0232    0.0000 H   0  0  0  0  0  0  0  0  0  0  0  0
   12.3631   -0.6110    0.0000 H   0  0  0  0  0  0  0  0  0  0  0  0
   12.4446    2.5176    0.0000 H   0  0  0  0  0  0  0  0  0  0  0  0
   11.8928    3.1990    0.0000 H   0  0  0  0  0  0  0  0  0  0  0  0
   11.2114    2.6472    0.0000 H   0  0  0  0  0  0  0  0  0  0  0  0
   12.6532    0.8668    0.0000 H   0  0  0  0  0  0  0  0  0  0  0  0
   13.3346    1.4186    0.0000 H   0  0  0  0  0  0  0  0  0  0  0  0
   12.7828    2.1000    0.0000 H   0  0  0  0  0  0  0  0  0  0  0  0
   10.7937    2.3090    0.0000 H   0  0  0  0  0  0  0  0  0  0  0  0
   10.1123    1.7572    0.0000 H   0  0  0  0  0  0  0  0  0  0  0  0
   10.6641    1.0758    0.0000 H   0  0  0  0  0  0  0  0  0  0  0  0
    8.6651   -1.7352    0.0000 H   0  0  0  0  0  0  0  0  0  0  0  0
    5.5094   -0.8906    0.0000 H   0  0  0  0  0  0  0  0  0  0  0  0
    5.5094   -4.1999    0.0000 H   0  0  0  0  0  0  0  0  0  0  0  0
    4.0604   -1.7124    0.0000 H   0  0  0  0  0  0  0  0  0  0  0  0
   15.5253    1.6539    0.0000 H   0  0  0  0  0  0  0  0  0  0  0  0
   15.8395    2.4725    0.0000 H   0  0  0  0  0  0  0  0  0  0  0  0
   15.0209    2.7867    0.0000 H   0  0  0  0  0  0  0  0  0  0  0  0
   14.5192    2.9793    0.0000 H   0  0  0  0  0  0  0  0  0  0  0  0
   13.7007    3.2935    0.0000 H   0  0  0  0  0  0  0  0  0  0  0  0
   13.3864    2.4749    0.0000 H   0  0  0  0  0  0  0  0  0  0  0  0
   14.1999    0.6479    0.0000 H   0  0  0  0  0  0  0  0  0  0  0  0
   15.0185    0.3336    0.0000 H   0  0  0  0  0  0  0  0  0  0  0  0
   15.3327    1.1522    0.0000 H   0  0  0  0  0  0  0  0  0  0  0  0
    8.6380   -4.9546    0.0000 H   0  0  0  0  0  0  0  0  0  0  0  0
    3.2608   -2.5963    0.0000 H   0  0  0  0  0  0  0  0  0  0  0  0
    2.4637   -2.5993    0.0000 H   0  0  0  0  0  0  0  0  0  0  0  0
    3.9502   -5.1512    0.0000 H   0  0  0  0  0  0  0  0  0  0  0  0
    4.3460   -4.4594    0.0000 H   0  0  0  0  0  0  0  0  0  0  0  0
    1.6879   -3.0403    0.0000 H   0  0  0  0  0  0  0  0  0  0  0  0
    1.4643   -3.8882    0.0000 H   0  0  0  0  0  0  0  0  0  0  0  0
    2.3121   -4.1118    0.0000 H   0  0  0  0  0  0  0  0  0  0  0  0
    2.5597   -4.5370    0.0000 H   0  0  0  0  0  0  0  0  0  0  0  0
    2.3361   -5.3848    0.0000 H   0  0  0  0  0  0  0  0  0  0  0  0
    3.1839   -5.6085    0.0000 H   0  0  0  0  0  0  0  0  0  0  0  0
   11.8236   -3.2107    0.0000 H   0  0  0  0  0  0  0  0  0  0  0  0
   13.2185   -5.0982    0.0000 H   0  0  0  0  0  0  0  0  0  0  0  0
   13.7703   -4.4168    0.0000 H   0  0  0  0  0  0  0  0  0  0  0  0
   13.0889   -3.8650    0.0000 H   0  0  0  0  0  0  0  0  0  0  0  0
  1 49  1  0  0  0  0
  1 52  1  0  0  0  0
  2 20  1  0  0  0  0
  2 70  1  0  0  0  0
  3 20  2  0  0  0  0
 25  4  1  6  0  0  0
  4 34  1  0  0  0  0
  5 23  2  0  0  0  0
  6 28  2  0  0  0  0
  7 36  1  0  0  0  0
  7 41  1  0  0  0  0
  8 36  2  0  0  0  0
  9 55  2  0  0  0  0
 10 17  1  0  0  0  0
 10 23  1  0  0  0  0
 10 60  1  0  0  0  0
 11 22  1  0  0  0  0
 11 26  1  0  0  0  0
 11 28  1  0  0  0  0
 29 12  1  6  0  0  0
 12 36  1  0  0  0  0
 12 72  1  0  0  0  0
 13 38  1  0  0  0  0
 13 39  2  0  0  0  0
 14 44  1  0  0  0  0
 14 50  1  0  0  0  0
 14 51  1  0  0  0  0
 15 45  1  0  0  0  0
 15 52  2  0  0  0  0
 16 52  1  0  0  0  0
 16 55  1  0  0  0  0
 16106  1  0  0  0  0
 17 18  1  0  0  0  0
 17 19  1  0  0  0  0
 17 20  1  0  0  0  0
 18 19  1  0  0  0  0
 18 21  1  1  0  0  0
 18 57  1  0  0  0  0
 19 58  1  0  0  0  0
 19 59  1  0  0  0  0
 21 27  2  0  0  0  0
 21 61  1  0  0  0  0
 22 23  1  1  0  0  0
 22 24  1  0  0  0  0
 22 62  1  0  0  0  0
 24 25  1  0  0  0  0
 24 63  1  0  0  0  0
 24 64  1  0  0  0  0
 25 26  1  0  0  0  0
 25 65  1  0  0  0  0
 26 66  1  0  0  0  0
 26 67  1  0  0  0  0
 27 68  1  0  0  0  0
 27 69  1  0  0  0  0
 28 29  1  0  0  0  0
 29 30  1  0  0  0  0
 29 71  1  0  0  0  0
 30 31  1  0  0  0  0
 30 32  1  0  0  0  0
 30 33  1  0  0  0  0
 31 73  1  0  0  0  0
 31 74  1  0  0  0  0
 31 75  1  0  0  0  0
 32 76  1  0  0  0  0
 32 77  1  0  0  0  0
 32 78  1  0  0  0  0
 33 79  1  0  0  0  0
 33 80  1  0  0  0  0
 33 81  1  0  0  0  0
 34 35  1  0  0  0  0
 34 37  2  0  0  0  0
 35 38  2  0  0  0  0
 35 40  1  0  0  0  0
 37 39  1  0  0  0  0
 37 82  1  0  0  0  0
 38 42  1  0  0  0  0
 39 45  1  0  0  0  0
 40 43  2  0  0  0  0
 40 83  1  0  0  0  0
 41 46  1  0  0  0  0
 41 47  1  0  0  0  0
 41 48  1  0  0  0  0
 42 44  2  0  0  0  0
 42 84  1  0  0  0  0
 43 44  1  0  0  0  0
 43 85  1  0  0  0  0
 45 49  2  0  0  0  0
 46 86  1  0  0  0  0
 46 87  1  0  0  0  0
 46 88  1  0  0  0  0
 47 89  1  0  0  0  0
 47 90  1  0  0  0  0
 47 91  1  0  0  0  0
 48 92  1  0  0  0  0
 48 93  1  0  0  0  0
 48 94  1  0  0  0  0
 49 95  1  0  0  0  0
 50 53  1  0  0  0  0
 50 96  1  0  0  0  0
 50 97  1  0  0  0  0
 51 54  1  0  0  0  0
 51 98  1  0  0  0  0
 51 99  1  0  0  0  0
 53100  1  0  0  0  0
 53101  1  0  0  0  0
 53102  1  0  0  0  0
 54103  1  0  0  0  0
 54104  1  0  0  0  0
 54105  1  0  0  0  0
 55 56  1  0  0  0  0
 56107  1  0  0  0  0
 56108  1  0  0  0  0
 56109  1  0  0  0  0
M  END
> <PUBCHEM_COMPOUND_CID>
500717
> <PUBCHEM_COMPOUND_CANONICALIZED>
1
> <PUBCHEM_CACTVS_COMPLEXITY>
1480
> <PUBCHEM_CACTVS_HBOND_ACCEPTOR>
12
> <PUBCHEM_CACTVS_HBOND_DONOR>
4
> <PUBCHEM_CACTVS_ROTATABLE_BOND>
16
> <PUBCHEM_CACTVS_SUBSKEYS>
AAADcfB/vABAAAAAAAAAAAAAGAAAAWLAAAA8QAAAAAAAAACx/AAAHgQQCAAAD/zl3gaz3/PIFgisAyXyfACC+KlhKjkJmLW+bJmOZvLk+fuffCju1xvY6Ce60eMPCAAAAAQCAAAQAAAACAQAAAAAAAAAAA==
> <PUBCHEM_IUPAC_OPENEYE_NAME>
(2R)-1-[[(2S,4R)-4-[[2-(2-acetamidothiazol-4-yl)-7-(diethylamino)-4-quinolyl]oxy]-1-[(2S)-2-(tert-butoxycarbonylamino)-3,3-dimethyl-butanoyl]pyrrolidine-2-carbonyl]amino]-2-vinyl-cyclopropanecarboxylic acid
> <PUBCHEM_IUPAC_CAS_NAME>
(2R)-1-[[[(2S,4R)-4-[[2-(2-acetamido-4-thiazolyl)-7-(diethylamino)-4-quinolinyl]oxy]-1-[(2S)-3,3-dimethyl-2-[[(2-methylpropan-2-yl)oxy-oxomethyl]amino]-1-oxobutyl]-2-pyrrolidinyl]-oxomethyl]amino]-2-ethenyl-1-cyclopropanecarboxylic acid
> <PUBCHEM_IUPAC_NAME_MARKUP>
(2<I>R</I>)-1-[[(2<I>S</I>,4<I>R</I>)-4-[2-(2-acetamido-1,3-thiazol-4-yl)-7-(diethylamino)quinolin-4-yl]oxy-1-[(2<I>S</I>)-3,3-dimethyl-2-[(2-methylpropan-2-yl)oxycarbonylamino]butanoyl]pyrrolidine-2-carbonyl]amino]-2-ethenylcyclopropane-1-carboxylic acid
> <PUBCHEM_IUPAC_NAME>
(2R)-1-[[(2S,4R)-4-[2-(2-acetamido-1,3-thiazol-4-yl)-7-(diethylamino)quinolin-4-yl]oxy-1-[(2S)-3,3-dimethyl-2-[(2-methylpropan-2-yl)oxycarbonylamino]butanoyl]pyrrolidine-2-carbonyl]amino]-2-ethenylcyclopropane-1-carboxylic acid
> <PUBCHEM_IUPAC_SYSTEMATIC_NAME>
(2R)-1-[[(2S,4R)-4-[2-(2-acetamido-1,3-thiazol-4-yl)-7-(diethylamino)quinolin-4-yl]oxy-1-[(2S)-3,3-dimethyl-2-[(2-methylpropan-2-yl)oxycarbonylamino]butanoyl]pyrrolidin-2-yl]carbonylamino]-2-ethenyl-cyclopropane-1-carboxylic acid
> <PUBCHEM_IUPAC_TRADITIONAL_NAME>
(2R)-1-[[(2S,4R)-4-[[2-(2-acetamidothiazol-4-yl)-7-(diethylamino)-4-quinolyl]oxy]-1-[(2S)-2-(tert-butoxycarbonylamino)-3,3-dimethyl-butanoyl]prolyl]amino]-2-vinyl-cyclopropanecarboxylic acid
> <PUBCHEM_IUPAC_INCHI>
InChI=1S/C40H53N7O8S/c1-11-23-19-40(23,35(51)52)45-33(49)30-17-25(20-47(30)34(50)32(38(5,6)7)44-37(53)55-39(8,9)10)54-31-18-28(29-21-56-36(43-29)41-22(4)48)42-27-16-24(14-15-26(27)31)46(12-2)13-3/h11,14-16,18,21,23,25,30,32H,1,12-13,17,19-20H2,2-10H3,(H,44,53)(H,45,49)(H,51,52)(H,41,43,48)/t23-,25+,30-,32+,40?/m0/s1
> <PUBCHEM_IUPAC_INCHIKEY>
JDZSSQXHFOISTH-DFTOPXFISA-N
> <PUBCHEM_XLOGP3_AA>
5.3
> <PUBCHEM_EXACT_MASS>
791.36763285
> <PUBCHEM_MOLECULAR_FORMULA>
C40H53N7O8S
> <PUBCHEM_MOLECULAR_WEIGHT>
792.0
> <PUBCHEM_OPENEYE_CAN_SMILES>
CCN(CC)C1=CC2=C(C=C1)C(=CC(=N2)C3=CSC(=N3)NC(=O)C)OC4CC(N(C4)C(=O)C(C(C)(C)C)NC(=O)OC(C)(C)C)C(=O)NC5(CC5C=C)C(=O)O
> <PUBCHEM_OPENEYE_ISO_SMILES>
CCN(CC)C1=CC2=C(C=C1)C(=CC(=N2)C3=CSC(=N3)NC(=O)C)O[C@@H]4C[C@H](N(C4)C(=O)[C@H](C(C)(C)C)NC(=O)OC(C)(C)C)C(=O)NC5(C[C@@H]5C=C)C(=O)O
> <PUBCHEM_CACTVS_TPSA>
221
> <PUBCHEM_MONOISOTOPIC_WEIGHT>
791.36763285
> <PUBCHEM_TOTAL_CHARGE>
0
> <PUBCHEM_HEAVY_ATOM_COUNT>
56
> <PUBCHEM_ATOM_DEF_STEREO_COUNT>
4
> <PUBCHEM_ATOM_UDEF_STEREO_COUNT>
1
> <PUBCHEM_BOND_DEF_STEREO_COUNT>
0
> <PUBCHEM_BOND_UDEF_STEREO_COUNT>
0
> <PUBCHEM_ISOTOPIC_ATOM_COUNT>
0
> <PUBCHEM_COMPONENT_COUNT>
1
> <PUBCHEM_CACTVS_TAUTO_COUNT>
-1
> <PUBCHEM_COORDINATE_TYPE>
1
5
255
> <PUBCHEM_BONDANNOTATIONS>
1  49  8
1  52  8
29  12  6
13  38  8
13  39  8
15  45  8
15  52  8
17  20  3
18  21  5
22  23  5
34  35  8
34  37  8
35  38  8
35  40  8
37  39  8
38  42  8
25  4  6
40  43  8
42  44  8
43  44  8
45  49  8
$$$$
