500704
  -OEChem-10302200282D
 97101  0     1  0  0  0  0  0999 V2000
   11.0928   -0.6622    0.0000 O   0  0  0  0  0  0  0  0  0  0  0  0
    9.6916    0.3558    0.0000 O   0  0  0  0  0  0  0  0  0  0  0  0
    4.6660   -1.0805    0.0000 O   0  0  0  0  0  0  0  0  0  0  0  0
    8.6970    0.4604    0.0000 O   0  0  0  0  0  0  0  0  0  0  0  0
    8.0160    1.6400    0.0000 O   0  0  0  0  0  0  0  0  0  0  0  0
    5.2581    3.9625    0.0000 O   0  0  0  0  0  0  0  0  0  0  0  0
    3.8569    2.9444    0.0000 O   0  0  0  0  0  0  0  0  0  0  0  0
    8.5160   -1.2622    0.0000 N   0  0  0  0  0  0  0  0  0  0  0  0
    6.6147    0.6219    0.0000 N   0  0  0  0  0  0  0  0  0  0  0  0
    5.4392    2.2399    0.0000 N   0  0  0  0  0  0  0  0  0  0  0  0
    6.3981   -4.0805    0.0000 N   0  0  0  0  0  0  0  0  0  0  0  0
    4.6660   -4.0805    0.0000 N   0  0  0  0  0  0  0  0  0  0  0  0
    9.5105   -1.3667    0.0000 C   0  0  3  0  0  0  0  0  0  0  0  0
    9.4060   -2.3612    0.0000 C   0  0  2  0  0  0  0  0  0  0  0  0
   10.3195   -1.9545    0.0000 C   0  0  0  0  0  0  0  0  0  0  0  0
   10.0983   -0.5577    0.0000 C   0  0  0  0  0  0  0  0  0  0  0  0
    8.8182   -3.1703    0.0000 C   0  0  0  0  0  0  0  0  0  0  0  0
    7.1147   -0.2441    0.0000 C   0  0  2  0  0  0  0  0  0  0  0  0
    8.1093   -0.3487    0.0000 C   0  0  0  0  0  0  0  0  0  0  0  0
    6.4456   -0.9873    0.0000 C   0  0  0  0  0  0  0  0  0  0  0  0
    5.5321   -0.5805    0.0000 C   0  0  2  0  0  0  0  0  0  0  0  0
    5.6366    0.4140    0.0000 C   0  0  0  0  0  0  0  0  0  0  0  0
    7.0215    1.5354    0.0000 C   0  0  0  0  0  0  0  0  0  0  0  0
    9.2249   -4.0838    0.0000 C   0  0  0  0  0  0  0  0  0  0  0  0
    6.4337    2.3445    0.0000 C   0  0  2  0  0  0  0  0  0  0  0  0
    6.8404    3.2580    0.0000 C   0  0  0  0  0  0  0  0  0  0  0  0
    7.2472    4.1716    0.0000 C   0  0  0  0  0  0  0  0  0  0  0  0
    5.9269    3.6648    0.0000 C   0  0  0  0  0  0  0  0  0  0  0  0
    7.7540    2.8513    0.0000 C   0  0  0  0  0  0  0  0  0  0  0  0
    4.6660   -2.0805    0.0000 C   0  0  0  0  0  0  0  0  0  0  0  0
    3.8000   -2.5805    0.0000 C   0  0  0  0  0  0  0  0  0  0  0  0
    5.5321   -2.5805    0.0000 C   0  0  0  0  0  0  0  0  0  0  0  0
    4.8514    3.0490    0.0000 C   0  0  0  0  0  0  0  0  0  0  0  0
    5.5321   -3.5805    0.0000 C   0  0  0  0  0  0  0  0  0  0  0  0
    3.8000   -3.5805    0.0000 C   0  0  0  0  0  0  0  0  0  0  0  0
    6.3981   -5.0805    0.0000 C   0  0  0  0  0  0  0  0  0  0  0  0
    7.2641   -3.5805    0.0000 C   0  0  0  0  0  0  0  0  0  0  0  0
    7.2641   -5.5805    0.0000 C   0  0  0  0  0  0  0  0  0  0  0  0
    8.1301   -4.0805    0.0000 C   0  0  0  0  0  0  0  0  0  0  0  0
    8.1301   -5.0805    0.0000 C   0  0  0  0  0  0  0  0  0  0  0  0
    2.9061   -2.0459    0.0000 C   0  0  0  0  0  0  0  0  0  0  0  0
    4.6703    4.7715    0.0000 C   0  0  0  0  0  0  0  0  0  0  0  0
    2.9061   -4.1152    0.0000 C   0  0  0  0  0  0  0  0  0  0  0  0
    2.0000   -2.5597    0.0000 C   0  0  0  0  0  0  0  0  0  0  0  0
    2.0000   -3.6014    0.0000 C   0  0  0  0  0  0  0  0  0  0  0  0
    4.0826    5.5805    0.0000 C   0  0  0  0  0  0  0  0  0  0  0  0
    5.4794    5.3593    0.0000 C   0  0  0  0  0  0  0  0  0  0  0  0
    3.8613    4.1837    0.0000 C   0  0  0  0  0  0  0  0  0  0  0  0
    9.7962   -2.8431    0.0000 H   0  0  0  0  0  0  0  0  0  0  0  0
   10.6662   -2.4685    0.0000 H   0  0  0  0  0  0  0  0  0  0  0  0
   10.7655   -1.5238    0.0000 H   0  0  0  0  0  0  0  0  0  0  0  0
    8.1516   -1.7638    0.0000 H   0  0  0  0  0  0  0  0  0  0  0  0
    8.2016   -3.1055    0.0000 H   0  0  0  0  0  0  0  0  0  0  0  0
    7.4524    0.2759    0.0000 H   0  0  0  0  0  0  0  0  0  0  0  0
    6.1356   -1.5242    0.0000 H   0  0  0  0  0  0  0  0  0  0  0  0
    6.9472   -1.3517    0.0000 H   0  0  0  0  0  0  0  0  0  0  0  0
    5.5645   -1.1997    0.0000 H   0  0  0  0  0  0  0  0  0  0  0  0
    5.5718    1.0306    0.0000 H   0  0  0  0  0  0  0  0  0  0  0  0
    5.0166    0.4140    0.0000 H   0  0  0  0  0  0  0  0  0  0  0  0
    8.8605   -4.5854    0.0000 H   0  0  0  0  0  0  0  0  0  0  0  0
    9.8415   -4.1486    0.0000 H   0  0  0  0  0  0  0  0  0  0  0  0
    6.1815    1.7781    0.0000 H   0  0  0  0  0  0  0  0  0  0  0  0
   11.4573   -0.1606    0.0000 H   0  0  0  0  0  0  0  0  0  0  0  0
    5.1870    1.6735    0.0000 H   0  0  0  0  0  0  0  0  0  0  0  0
    7.8136    3.9194    0.0000 H   0  0  0  0  0  0  0  0  0  0  0  0
    7.4993    4.7380    0.0000 H   0  0  0  0  0  0  0  0  0  0  0  0
    6.6808    4.4237    0.0000 H   0  0  0  0  0  0  0  0  0  0  0  0
    6.1791    4.2311    0.0000 H   0  0  0  0  0  0  0  0  0  0  0  0
    5.3605    3.9169    0.0000 H   0  0  0  0  0  0  0  0  0  0  0  0
    5.6747    3.0984    0.0000 H   0  0  0  0  0  0  0  0  0  0  0  0
    7.5018    2.2849    0.0000 H   0  0  0  0  0  0  0  0  0  0  0  0
    8.3204    2.5991    0.0000 H   0  0  0  0  0  0  0  0  0  0  0  0
    8.0062    3.4177    0.0000 H   0  0  0  0  0  0  0  0  0  0  0  0
    6.0690   -2.2705    0.0000 H   0  0  0  0  0  0  0  0  0  0  0  0
    5.7875   -4.9729    0.0000 H   0  0  0  0  0  0  0  0  0  0  0  0
    6.1860   -5.6631    0.0000 H   0  0  0  0  0  0  0  0  0  0  0  0
    7.6626   -3.1056    0.0000 H   0  0  0  0  0  0  0  0  0  0  0  0
    6.8656   -3.1056    0.0000 H   0  0  0  0  0  0  0  0  0  0  0  0
    6.8656   -6.0555    0.0000 H   0  0  0  0  0  0  0  0  0  0  0  0
    7.6626   -6.0555    0.0000 H   0  0  0  0  0  0  0  0  0  0  0  0
    8.7407   -4.1882    0.0000 H   0  0  0  0  0  0  0  0  0  0  0  0
    8.3422   -3.4979    0.0000 H   0  0  0  0  0  0  0  0  0  0  0  0
    8.3422   -5.6631    0.0000 H   0  0  0  0  0  0  0  0  0  0  0  0
    8.7407   -4.9729    0.0000 H   0  0  0  0  0  0  0  0  0  0  0  0
    2.9132   -1.4259    0.0000 H   0  0  0  0  0  0  0  0  0  0  0  0
    2.9132   -4.7352    0.0000 H   0  0  0  0  0  0  0  0  0  0  0  0
    1.4643   -2.2476    0.0000 H   0  0  0  0  0  0  0  0  0  0  0  0
    1.4643   -3.9134    0.0000 H   0  0  0  0  0  0  0  0  0  0  0  0
    4.5841    5.9450    0.0000 H   0  0  0  0  0  0  0  0  0  0  0  0
    3.7181    6.0821    0.0000 H   0  0  0  0  0  0  0  0  0  0  0  0
    3.5810    5.2161    0.0000 H   0  0  0  0  0  0  0  0  0  0  0  0
    5.8438    4.8577    0.0000 H   0  0  0  0  0  0  0  0  0  0  0  0
    5.9809    5.7237    0.0000 H   0  0  0  0  0  0  0  0  0  0  0  0
    5.1149    5.8609    0.0000 H   0  0  0  0  0  0  0  0  0  0  0  0
    3.4969    4.6853    0.0000 H   0  0  0  0  0  0  0  0  0  0  0  0
    3.3597    3.8193    0.0000 H   0  0  0  0  0  0  0  0  0  0  0  0
    4.2257    3.6821    0.0000 H   0  0  0  0  0  0  0  0  0  0  0  0
  1 16  1  0  0  0  0
  1 63  1  0  0  0  0
  2 16  2  0  0  0  0
 21  3  1  1  0  0  0
  3 30  1  0  0  0  0
  4 19  2  0  0  0  0
  5 23  2  0  0  0  0
  6 33  1  0  0  0  0
  6 42  1  0  0  0  0
  7 33  2  0  0  0  0
  8 13  1  0  0  0  0
  8 19  1  0  0  0  0
  8 52  1  0  0  0  0
  9 18  1  0  0  0  0
  9 22  1  0  0  0  0
  9 23  1  0  0  0  0
 25 10  1  1  0  0  0
 10 33  1  0  0  0  0
 10 64  1  0  0  0  0
 11 34  1  0  0  0  0
 11 36  1  0  0  0  0
 11 37  1  0  0  0  0
 12 34  2  0  0  0  0
 12 35  1  0  0  0  0
 13 14  1  0  0  0  0
 13 15  1  0  0  0  0
 13 16  1  0  0  0  0
 14 15  1  0  0  0  0
 14 17  1  6  0  0  0
 14 49  1  0  0  0  0
 15 50  1  0  0  0  0
 15 51  1  0  0  0  0
 17 24  2  0  0  0  0
 17 53  1  0  0  0  0
 18 19  1  6  0  0  0
 18 20  1  0  0  0  0
 18 54  1  0  0  0  0
 20 21  1  0  0  0  0
 20 55  1  0  0  0  0
 20 56  1  0  0  0  0
 21 22  1  0  0  0  0
 21 57  1  0  0  0  0
 22 58  1  0  0  0  0
 22 59  1  0  0  0  0
 23 25  1  0  0  0  0
 24 60  1  0  0  0  0
 24 61  1  0  0  0  0
 25 26  1  0  0  0  0
 25 62  1  0  0  0  0
 26 27  1  0  0  0  0
 26 28  1  0  0  0  0
 26 29  1  0  0  0  0
 27 65  1  0  0  0  0
 27 66  1  0  0  0  0
 27 67  1  0  0  0  0
 28 68  1  0  0  0  0
 28 69  1  0  0  0  0
 28 70  1  0  0  0  0
 29 71  1  0  0  0  0
 29 72  1  0  0  0  0
 29 73  1  0  0  0  0
 30 31  1  0  0  0  0
 30 32  2  0  0  0  0
 31 35  1  0  0  0  0
 31 41  2  0  0  0  0
 32 34  1  0  0  0  0
 32 74  1  0  0  0  0
 35 43  2  0  0  0  0
 36 38  1  0  0  0  0
 36 75  1  0  0  0  0
 36 76  1  0  0  0  0
 37 39  1  0  0  0  0
 37 77  1  0  0  0  0
 37 78  1  0  0  0  0
 38 40  1  0  0  0  0
 38 79  1  0  0  0  0
 38 80  1  0  0  0  0
 39 40  1  0  0  0  0
 39 81  1  0  0  0  0
 39 82  1  0  0  0  0
 40 83  1  0  0  0  0
 40 84  1  0  0  0  0
 41 44  1  0  0  0  0
 41 85  1  0  0  0  0
 42 46  1  0  0  0  0
 42 47  1  0  0  0  0
 42 48  1  0  0  0  0
 43 45  1  0  0  0  0
 43 86  1  0  0  0  0
 44 45  2  0  0  0  0
 44 87  1  0  0  0  0
 45 88  1  0  0  0  0
 46 89  1  0  0  0  0
 46 90  1  0  0  0  0
 46 91  1  0  0  0  0
 47 92  1  0  0  0  0
 47 93  1  0  0  0  0
 47 94  1  0  0  0  0
 48 95  1  0  0  0  0
 48 96  1  0  0  0  0
 48 97  1  0  0  0  0
M  END
> <PUBCHEM_COMPOUND_CID>
500704
> <PUBCHEM_COMPOUND_CANONICALIZED>
1
> <PUBCHEM_CACTVS_COMPLEXITY>
1220
> <PUBCHEM_CACTVS_HBOND_ACCEPTOR>
9
> <PUBCHEM_CACTVS_HBOND_DONOR>
3
> <PUBCHEM_CACTVS_ROTATABLE_BOND>
12
> <PUBCHEM_CACTVS_SUBSKEYS>
AAADcfB/uAAAAAAAAAAAAAAAGAAAAWAAAAA8WIAAAAAAAACx8AAAHgAQCAAAD/zhngYz/vPIFgCoAyfyfACCiCkhIiAJmKG+bJmOZvLEubufeCju1hvY6Ce6waAPAAAAAAACAAAAAAAAAAQAAAAAAAAAAA==
> <PUBCHEM_IUPAC_OPENEYE_NAME>
(2R)-1-[[(2S,4R)-1-[(2S)-2-(tert-butoxycarbonylamino)-3,3-dimethyl-butanoyl]-4-[[2-(1-piperidyl)-4-quinolyl]oxy]pyrrolidine-2-carbonyl]amino]-2-vinyl-cyclopropanecarboxylic acid
> <PUBCHEM_IUPAC_CAS_NAME>
(2R)-1-[[[(2S,4R)-1-[(2S)-3,3-dimethyl-2-[[(2-methylpropan-2-yl)oxy-oxomethyl]amino]-1-oxobutyl]-4-[[2-(1-piperidinyl)-4-quinolinyl]oxy]-2-pyrrolidinyl]-oxomethyl]amino]-2-ethenyl-1-cyclopropanecarboxylic acid
> <PUBCHEM_IUPAC_NAME_MARKUP>
(2<I>R</I>)-1-[[(2<I>S</I>,4<I>R</I>)-1-[(2<I>S</I>)-3,3-dimethyl-2-[(2-methylpropan-2-yl)oxycarbonylamino]butanoyl]-4-(2-piperidin-1-ylquinolin-4-yl)oxypyrrolidine-2-carbonyl]amino]-2-ethenylcyclopropane-1-carboxylic acid
> <PUBCHEM_IUPAC_NAME>
(2R)-1-[[(2S,4R)-1-[(2S)-3,3-dimethyl-2-[(2-methylpropan-2-yl)oxycarbonylamino]butanoyl]-4-(2-piperidin-1-ylquinolin-4-yl)oxypyrrolidine-2-carbonyl]amino]-2-ethenylcyclopropane-1-carboxylic acid
> <PUBCHEM_IUPAC_SYSTEMATIC_NAME>
(2R)-1-[[(2S,4R)-1-[(2S)-3,3-dimethyl-2-[(2-methylpropan-2-yl)oxycarbonylamino]butanoyl]-4-(2-piperidin-1-ylquinolin-4-yl)oxy-pyrrolidin-2-yl]carbonylamino]-2-ethenyl-cyclopropane-1-carboxylic acid
> <PUBCHEM_IUPAC_TRADITIONAL_NAME>
(2R)-1-[[(2S,4R)-1-[(2S)-2-(tert-butoxycarbonylamino)-3,3-dimethyl-butanoyl]-4-[(2-piperidino-4-quinolyl)oxy]prolyl]amino]-2-vinyl-cyclopropanecarboxylic acid
> <PUBCHEM_IUPAC_INCHI>
InChI=1S/C36H49N5O7/c1-8-22-20-36(22,32(44)45)39-30(42)26-18-23(21-41(26)31(43)29(34(2,3)4)38-33(46)48-35(5,6)7)47-27-19-28(40-16-12-9-13-17-40)37-25-15-11-10-14-24(25)27/h8,10-11,14-15,19,22-23,26,29H,1,9,12-13,16-18,20-21H2,2-7H3,(H,38,46)(H,39,42)(H,44,45)/t22-,23+,26-,29+,36?/m0/s1
> <PUBCHEM_IUPAC_INCHIKEY>
JIODZMGYZLLSSI-GJGGEEINSA-N
> <PUBCHEM_XLOGP3_AA>
5.5
> <PUBCHEM_EXACT_MASS>
663.36319892
> <PUBCHEM_MOLECULAR_FORMULA>
C36H49N5O7
> <PUBCHEM_MOLECULAR_WEIGHT>
663.8
> <PUBCHEM_OPENEYE_CAN_SMILES>
CC(C)(C)C(C(=O)N1CC(CC1C(=O)NC2(CC2C=C)C(=O)O)OC3=CC(=NC4=CC=CC=C43)N5CCCCC5)NC(=O)OC(C)(C)C
> <PUBCHEM_OPENEYE_ISO_SMILES>
CC(C)(C)[C@@H](C(=O)N1C[C@@H](C[C@H]1C(=O)NC2(C[C@@H]2C=C)C(=O)O)OC3=CC(=NC4=CC=CC=C43)N5CCCCC5)NC(=O)OC(C)(C)C
> <PUBCHEM_CACTVS_TPSA>
150
> <PUBCHEM_MONOISOTOPIC_WEIGHT>
663.36319892
> <PUBCHEM_TOTAL_CHARGE>
0
> <PUBCHEM_HEAVY_ATOM_COUNT>
48
> <PUBCHEM_ATOM_DEF_STEREO_COUNT>
4
> <PUBCHEM_ATOM_UDEF_STEREO_COUNT>
1
> <PUBCHEM_BOND_DEF_STEREO_COUNT>
0
> <PUBCHEM_BOND_UDEF_STEREO_COUNT>
0
> <PUBCHEM_ISOTOPIC_ATOM_COUNT>
0
> <PUBCHEM_COMPONENT_COUNT>
1
> <PUBCHEM_CACTVS_TAUTO_COUNT>
-1
> <PUBCHEM_COORDINATE_TYPE>
1
5
255
> <PUBCHEM_BONDANNOTATIONS>
25  10  5
12  34  8
12  35  8
13  16  3
14  17  6
18  19  6
21  3  5
30  31  8
30  32  8
31  35  8
31  41  8
32  34  8
35  43  8
41  44  8
43  45  8
44  45  8
$$$$
