500788
  -OEChem-10302200282D
 90 95  0     1  0  0  0  0  0999 V2000
    9.9737    5.0064    0.0000 O   0  0  0  0  0  0  0  0  0  0  0  0
   10.1548    3.2839    0.0000 O   0  0  0  0  0  0  0  0  0  0  0  0
    6.3981   -0.3502    0.0000 O   0  0  0  0  0  0  0  0  0  0  0  0
    9.7480    2.3703    0.0000 O   0  0  0  0  0  0  0  0  0  0  0  0
   10.4291    1.1907    0.0000 O   0  0  0  0  0  0  0  0  0  0  0  0
    2.8680   -3.3743    0.0000 O   0  0  0  0  0  0  0  0  0  0  0  0
   13.8640   -4.3951    0.0000 O   0  5  0  0  0  0  0  0  0  0  0  0
   12.2817   -5.0996    0.0000 O   0  0  0  0  0  0  0  0  0  0  0  0
    8.1657    3.0748    0.0000 N   0  0  0  0  0  0  0  0  0  0  0  0
    8.8468    0.4862    0.0000 N   0  0  0  0  0  0  0  0  0  0  0  0
   11.2426   -0.6364    0.0000 N   0  0  0  0  0  0  0  0  0  0  0  0
    6.3981   -3.3502    0.0000 N   0  0  0  0  0  0  0  0  0  0  0  0
   12.8695   -4.2906    0.0000 N   0  3  0  0  0  0  0  0  0  0  0  0
    8.5725    3.9884    0.0000 C   0  0  3  0  0  0  0  0  0  0  0  0
    7.6589    4.3951    0.0000 C   0  0  2  0  0  0  0  0  0  0  0  0
    8.4679    4.9829    0.0000 C   0  0  0  0  0  0  0  0  0  0  0  0
    9.5670    4.0929    0.0000 C   0  0  0  0  0  0  0  0  0  0  0  0
    6.6644    4.2906    0.0000 C   0  0  0  0  0  0  0  0  0  0  0  0
    8.3468    1.3522    0.0000 C   0  0  2  0  0  0  0  0  0  0  0  0
    8.7535    2.2658    0.0000 C   0  0  0  0  0  0  0  0  0  0  0  0
    7.3686    1.1443    0.0000 C   0  0  0  0  0  0  0  0  0  0  0  0
    7.2641    0.1498    0.0000 C   0  0  2  0  0  0  0  0  0  0  0  0
    8.1776   -0.2569    0.0000 C   0  0  0  0  0  0  0  0  0  0  0  0
    6.0766    5.0996    0.0000 C   0  0  0  0  0  0  0  0  0  0  0  0
    9.8413    0.3817    0.0000 C   0  0  0  0  0  0  0  0  0  0  0  0
   10.2480   -0.5319    0.0000 C   0  0  2  0  0  0  0  0  0  0  0  0
    9.6602   -1.3409    0.0000 C   0  0  0  0  0  0  0  0  0  0  0  0
    6.3981   -1.3502    0.0000 C   0  0  0  0  0  0  0  0  0  0  0  0
    8.6657   -1.2363    0.0000 C   0  0  0  0  0  0  0  0  0  0  0  0
   10.0670   -2.2544    0.0000 C   0  0  0  0  0  0  0  0  0  0  0  0
    5.5320   -1.8502    0.0000 C   0  0  0  0  0  0  0  0  0  0  0  0
   11.6493   -1.5499    0.0000 C   0  0  0  0  0  0  0  0  0  0  0  0
    7.2641   -1.8502    0.0000 C   0  0  0  0  0  0  0  0  0  0  0  0
    5.5320   -2.8502    0.0000 C   0  0  0  0  0  0  0  0  0  0  0  0
    7.2641   -2.8502    0.0000 C   0  0  0  0  0  0  0  0  0  0  0  0
    4.6381   -1.3155    0.0000 C   0  0  0  0  0  0  0  0  0  0  0  0
   11.0615   -2.3589    0.0000 C   0  0  0  0  0  0  0  0  0  0  0  0
   12.6438   -1.6544    0.0000 C   0  0  0  0  0  0  0  0  0  0  0  0
    4.6381   -3.3848    0.0000 C   0  0  0  0  0  0  0  0  0  0  0  0
    3.7320   -1.8294    0.0000 C   0  0  0  0  0  0  0  0  0  0  0  0
    8.1301   -3.3502    0.0000 C   0  0  0  0  0  0  0  0  0  0  0  0
   11.4682   -3.2725    0.0000 C   0  0  0  0  0  0  0  0  0  0  0  0
   13.0505   -2.5680    0.0000 C   0  0  0  0  0  0  0  0  0  0  0  0
    3.7320   -2.8710    0.0000 C   0  0  0  0  0  0  0  0  0  0  0  0
   12.4628   -3.3770    0.0000 C   0  0  0  0  0  0  0  0  0  0  0  0
    8.9962   -2.8502    0.0000 C   0  0  0  0  0  0  0  0  0  0  0  0
    8.1301   -4.3502    0.0000 C   0  0  0  0  0  0  0  0  0  0  0  0
    9.8622   -3.3502    0.0000 C   0  0  0  0  0  0  0  0  0  0  0  0
    8.9962   -4.8502    0.0000 C   0  0  0  0  0  0  0  0  0  0  0  0
    9.8622   -4.3502    0.0000 C   0  0  0  0  0  0  0  0  0  0  0  0
    2.0000   -2.8777    0.0000 C   0  0  0  0  0  0  0  0  0  0  0  0
    7.4367    4.9739    0.0000 H   0  0  0  0  0  0  0  0  0  0  0  0
    9.0639    5.1538    0.0000 H   0  0  0  0  0  0  0  0  0  0  0  0
    8.1961    5.5401    0.0000 H   0  0  0  0  0  0  0  0  0  0  0  0
    7.5491    3.0100    0.0000 H   0  0  0  0  0  0  0  0  0  0  0  0
    6.4122    3.7242    0.0000 H   0  0  0  0  0  0  0  0  0  0  0  0
    8.9659    1.3847    0.0000 H   0  0  0  0  0  0  0  0  0  0  0  0
    7.3038    1.7609    0.0000 H   0  0  0  0  0  0  0  0  0  0  0  0
    6.7486    1.1443    0.0000 H   0  0  0  0  0  0  0  0  0  0  0  0
    6.7441    0.4875    0.0000 H   0  0  0  0  0  0  0  0  0  0  0  0
    7.8676   -0.7939    0.0000 H   0  0  0  0  0  0  0  0  0  0  0  0
    8.6792   -0.6214    0.0000 H   0  0  0  0  0  0  0  0  0  0  0  0
    6.3288    5.6660    0.0000 H   0  0  0  0  0  0  0  0  0  0  0  0
    5.4600    5.0348    0.0000 H   0  0  0  0  0  0  0  0  0  0  0  0
   10.5903    5.0712    0.0000 H   0  0  0  0  0  0  0  0  0  0  0  0
   10.6125   -0.0303    0.0000 H   0  0  0  0  0  0  0  0  0  0  0  0
    9.4081   -0.7745    0.0000 H   0  0  0  0  0  0  0  0  0  0  0  0
   11.6070   -0.1348    0.0000 H   0  0  0  0  0  0  0  0  0  0  0  0
    8.7305   -0.6197    0.0000 H   0  0  0  0  0  0  0  0  0  0  0  0
    8.0491   -1.1715    0.0000 H   0  0  0  0  0  0  0  0  0  0  0  0
    8.6009   -1.8529    0.0000 H   0  0  0  0  0  0  0  0  0  0  0  0
    9.5006   -2.5066    0.0000 H   0  0  0  0  0  0  0  0  0  0  0  0
   10.3192   -2.8208    0.0000 H   0  0  0  0  0  0  0  0  0  0  0  0
   10.6334   -2.0022    0.0000 H   0  0  0  0  0  0  0  0  0  0  0  0
    7.8010   -1.5402    0.0000 H   0  0  0  0  0  0  0  0  0  0  0  0
    4.6453   -0.6956    0.0000 H   0  0  0  0  0  0  0  0  0  0  0  0
   10.4449   -2.2941    0.0000 H   0  0  0  0  0  0  0  0  0  0  0  0
   13.0082   -1.1529    0.0000 H   0  0  0  0  0  0  0  0  0  0  0  0
    4.6453   -4.0048    0.0000 H   0  0  0  0  0  0  0  0  0  0  0  0
    3.1963   -1.5173    0.0000 H   0  0  0  0  0  0  0  0  0  0  0  0
   11.1038   -3.7741    0.0000 H   0  0  0  0  0  0  0  0  0  0  0  0
   13.6672   -2.6328    0.0000 H   0  0  0  0  0  0  0  0  0  0  0  0
    8.9962   -2.2302    0.0000 H   0  0  0  0  0  0  0  0  0  0  0  0
    7.5932   -4.6602    0.0000 H   0  0  0  0  0  0  0  0  0  0  0  0
   10.3991   -3.0402    0.0000 H   0  0  0  0  0  0  0  0  0  0  0  0
    8.9962   -5.4702    0.0000 H   0  0  0  0  0  0  0  0  0  0  0  0
   10.3991   -4.6602    0.0000 H   0  0  0  0  0  0  0  0  0  0  0  0
    2.3079   -2.3396    0.0000 H   0  0  0  0  0  0  0  0  0  0  0  0
    1.4619   -2.5698    0.0000 H   0  0  0  0  0  0  0  0  0  0  0  0
    1.6921   -3.4158    0.0000 H   0  0  0  0  0  0  0  0  0  0  0  0
  1 17  1  0  0  0  0
  1 65  1  0  0  0  0
  2 17  2  0  0  0  0
 22  3  1  6  0  0  0
  3 28  1  0  0  0  0
  4 20  2  0  0  0  0
  5 25  2  0  0  0  0
  6 44  1  0  0  0  0
  6 51  1  0  0  0  0
  7 13  1  0  0  0  0
  8 13  2  0  0  0  0
  9 14  1  0  0  0  0
  9 20  1  0  0  0  0
  9 55  1  0  0  0  0
 10 19  1  0  0  0  0
 10 23  1  0  0  0  0
 10 25  1  0  0  0  0
 26 11  1  1  0  0  0
 11 32  1  0  0  0  0
 11 68  1  0  0  0  0
 12 34  1  0  0  0  0
 12 35  2  0  0  0  0
 13 45  1  0  0  0  0
 14 15  1  0  0  0  0
 14 16  1  0  0  0  0
 14 17  1  0  0  0  0
 15 16  1  0  0  0  0
 15 18  1  1  0  0  0
 15 52  1  0  0  0  0
 16 53  1  0  0  0  0
 16 54  1  0  0  0  0
 18 24  2  0  0  0  0
 18 56  1  0  0  0  0
 19 20  1  1  0  0  0
 19 21  1  0  0  0  0
 19 57  1  0  0  0  0
 21 22  1  0  0  0  0
 21 58  1  0  0  0  0
 21 59  1  0  0  0  0
 22 23  1  0  0  0  0
 22 60  1  0  0  0  0
 23 61  1  0  0  0  0
 23 62  1  0  0  0  0
 24 63  1  0  0  0  0
 24 64  1  0  0  0  0
 25 26  1  0  0  0  0
 26 27  1  0  0  0  0
 26 66  1  0  0  0  0
 27 29  1  0  0  0  0
 27 30  1  0  0  0  0
 27 67  1  0  0  0  0
 28 31  1  0  0  0  0
 28 33  2  0  0  0  0
 29 69  1  0  0  0  0
 29 70  1  0  0  0  0
 29 71  1  0  0  0  0
 30 72  1  0  0  0  0
 30 73  1  0  0  0  0
 30 74  1  0  0  0  0
 31 34  2  0  0  0  0
 31 36  1  0  0  0  0
 32 37  2  0  0  0  0
 32 38  1  0  0  0  0
 33 35  1  0  0  0  0
 33 75  1  0  0  0  0
 34 39  1  0  0  0  0
 35 41  1  0  0  0  0
 36 40  2  0  0  0  0
 36 76  1  0  0  0  0
 37 42  1  0  0  0  0
 37 77  1  0  0  0  0
 38 43  2  0  0  0  0
 38 78  1  0  0  0  0
 39 44  2  0  0  0  0
 39 79  1  0  0  0  0
 40 44  1  0  0  0  0
 40 80  1  0  0  0  0
 41 46  2  0  0  0  0
 41 47  1  0  0  0  0
 42 45  2  0  0  0  0
 42 81  1  0  0  0  0
 43 45  1  0  0  0  0
 43 82  1  0  0  0  0
 46 48  1  0  0  0  0
 46 83  1  0  0  0  0
 47 49  2  0  0  0  0
 47 84  1  0  0  0  0
 48 50  2  0  0  0  0
 48 85  1  0  0  0  0
 49 50  1  0  0  0  0
 49 86  1  0  0  0  0
 50 87  1  0  0  0  0
 51 88  1  0  0  0  0
 51 89  1  0  0  0  0
 51 90  1  0  0  0  0
M  CHG  2   7  -1  13   1
M  END
> <PUBCHEM_COMPOUND_CID>
500788
> <PUBCHEM_COMPOUND_CANONICALIZED>
1
> <PUBCHEM_CACTVS_COMPLEXITY>
1280
> <PUBCHEM_CACTVS_HBOND_ACCEPTOR>
10
> <PUBCHEM_CACTVS_HBOND_DONOR>
3
> <PUBCHEM_CACTVS_ROTATABLE_BOND>
12
> <PUBCHEM_CACTVS_SUBSKEYS>
AAADcfB/vAAAAAAAAAAAAAAAGAAAAWAAAAA8YMEAAAAAAACx9AAAHgAUCAAADbzhngYyzvPYVgCpAyXyXwCCiCAhIiAomKG+bJoOZvLEsbuXeCjm1hnY6Ae68e8OIACAAgACAABAAQAEAAQAAAAAAAAAAA==
> <PUBCHEM_IUPAC_OPENEYE_NAME>
(2R)-1-[[(2S,4R)-4-[(7-methoxy-2-phenyl-4-quinolyl)oxy]-1-[(2S)-3-methyl-2-(4-nitroanilino)butanoyl]pyrrolidine-2-carbonyl]amino]-2-vinyl-cyclopropanecarboxylic acid
> <PUBCHEM_IUPAC_CAS_NAME>
(2R)-2-ethenyl-1-[[[(2S,4R)-4-[(7-methoxy-2-phenyl-4-quinolinyl)oxy]-1-[(2S)-3-methyl-2-(4-nitroanilino)-1-oxobutyl]-2-pyrrolidinyl]-oxomethyl]amino]-1-cyclopropanecarboxylic acid
> <PUBCHEM_IUPAC_NAME_MARKUP>
(2<I>R</I>)-2-ethenyl-1-[[(2<I>S</I>,4<I>R</I>)-4-(7-methoxy-2-phenylquinolin-4-yl)oxy-1-[(2<I>S</I>)-3-methyl-2-(4-nitroanilino)butanoyl]pyrrolidine-2-carbonyl]amino]cyclopropane-1-carboxylic acid
> <PUBCHEM_IUPAC_NAME>
(2R)-2-ethenyl-1-[[(2S,4R)-4-(7-methoxy-2-phenylquinolin-4-yl)oxy-1-[(2S)-3-methyl-2-(4-nitroanilino)butanoyl]pyrrolidine-2-carbonyl]amino]cyclopropane-1-carboxylic acid
> <PUBCHEM_IUPAC_SYSTEMATIC_NAME>
(2R)-2-ethenyl-1-[[(2S,4R)-4-(7-methoxy-2-phenyl-quinolin-4-yl)oxy-1-[(2S)-3-methyl-2-[(4-nitrophenyl)amino]butanoyl]pyrrolidin-2-yl]carbonylamino]cyclopropane-1-carboxylic acid
> <PUBCHEM_IUPAC_TRADITIONAL_NAME>
(2R)-1-[[(2S,4R)-4-[(7-methoxy-2-phenyl-4-quinolyl)oxy]-1-[(2S)-3-methyl-2-(4-nitroanilino)butanoyl]prolyl]amino]-2-vinyl-cyclopropanecarboxylic acid
> <PUBCHEM_IUPAC_INCHI>
InChI=1S/C38H39N5O8/c1-5-24-20-38(24,37(46)47)41-35(44)32-18-28(21-42(32)36(45)34(22(2)3)39-25-11-13-26(14-12-25)43(48)49)51-33-19-30(23-9-7-6-8-10-23)40-31-17-27(50-4)15-16-29(31)33/h5-17,19,22,24,28,32,34,39H,1,18,20-21H2,2-4H3,(H,41,44)(H,46,47)/t24-,28+,32-,34-,38?/m0/s1
> <PUBCHEM_IUPAC_INCHIKEY>
HRHATFUMYROXKJ-QMDDSTMZSA-N
> <PUBCHEM_XLOGP3_AA>
6.3
> <PUBCHEM_EXACT_MASS>
693.27986322
> <PUBCHEM_MOLECULAR_FORMULA>
C38H39N5O8
> <PUBCHEM_MOLECULAR_WEIGHT>
693.7
> <PUBCHEM_OPENEYE_CAN_SMILES>
CC(C)C(C(=O)N1CC(CC1C(=O)NC2(CC2C=C)C(=O)O)OC3=CC(=NC4=C3C=CC(=C4)OC)C5=CC=CC=C5)NC6=CC=C(C=C6)[N+](=O)[O-]
> <PUBCHEM_OPENEYE_ISO_SMILES>
CC(C)[C@@H](C(=O)N1C[C@@H](C[C@H]1C(=O)NC2(C[C@@H]2C=C)C(=O)O)OC3=CC(=NC4=C3C=CC(=C4)OC)C5=CC=CC=C5)NC6=CC=C(C=C6)[N+](=O)[O-]
> <PUBCHEM_CACTVS_TPSA>
176
> <PUBCHEM_MONOISOTOPIC_WEIGHT>
693.27986322
> <PUBCHEM_TOTAL_CHARGE>
0
> <PUBCHEM_HEAVY_ATOM_COUNT>
51
> <PUBCHEM_ATOM_DEF_STEREO_COUNT>
4
> <PUBCHEM_ATOM_UDEF_STEREO_COUNT>
1
> <PUBCHEM_BOND_DEF_STEREO_COUNT>
0
> <PUBCHEM_BOND_UDEF_STEREO_COUNT>
0
> <PUBCHEM_ISOTOPIC_ATOM_COUNT>
0
> <PUBCHEM_COMPONENT_COUNT>
1
> <PUBCHEM_CACTVS_TAUTO_COUNT>
-1
> <PUBCHEM_COORDINATE_TYPE>
1
5
255
> <PUBCHEM_BONDANNOTATIONS>
26  11  5
12  34  8
12  35  8
14  17  3
15  18  5
19  20  5
28  31  8
28  33  8
22  3  6
31  34  8
31  36  8
32  37  8
32  38  8
33  35  8
34  39  8
36  40  8
37  42  8
38  43  8
39  44  8
40  44  8
41  46  8
41  47  8
42  45  8
43  45  8
46  48  8
47  49  8
48  50  8
49  50  8
$$$$
