500708
  -OEChem-10302200282D
 91 95  0     1  0  0  0  0  0999 V2000
    7.4808   -5.1237    0.0000 S   0  0  0  0  0  0  0  0  0  0  0  0
    6.1966    4.7593    0.0000 O   0  0  0  0  0  0  0  0  0  0  0  0
    7.2147    3.3580    0.0000 O   0  0  0  0  0  0  0  0  0  0  0  0
    4.6660   -0.9213    0.0000 O   0  0  0  0  0  0  0  0  0  0  0  0
    7.3192    2.3635    0.0000 O   0  0  0  0  0  0  0  0  0  0  0  0
    8.5160   -1.1029    0.0000 O   0  0  0  0  0  0  0  0  0  0  0  0
   10.8499    1.0308    0.0000 O   0  0  0  0  0  0  0  0  0  0  0  0
   11.5544   -0.5515    0.0000 O   0  0  0  0  0  0  0  0  0  0  0  0
    5.5967    2.1824    0.0000 N   0  0  0  0  0  0  0  0  0  0  0  0
    7.1147   -0.0848    0.0000 N   0  0  0  0  0  0  0  0  0  0  0  0
    9.8318   -0.3704    0.0000 N   0  0  0  0  0  0  0  0  0  0  0  0
    4.6660   -3.9213    0.0000 N   0  0  0  0  0  0  0  0  0  0  0  0
    7.3116   -3.5145    0.0000 N   0  0  0  0  0  0  0  0  0  0  0  0
    5.4921    3.1770    0.0000 C   0  0  3  0  0  0  0  0  0  0  0  0
    4.4976    3.0724    0.0000 C   0  0  2  0  0  0  0  0  0  0  0  0
    4.9044    3.9860    0.0000 C   0  0  0  0  0  0  0  0  0  0  0  0
    6.3012    3.7647    0.0000 C   0  0  0  0  0  0  0  0  0  0  0  0
    3.6886    2.4846    0.0000 C   0  0  0  0  0  0  0  0  0  0  0  0
    6.6147    0.7812    0.0000 C   0  0  2  0  0  0  0  0  0  0  0  0
    6.5102    1.7757    0.0000 C   0  0  0  0  0  0  0  0  0  0  0  0
    5.6366    0.5733    0.0000 C   0  0  0  0  0  0  0  0  0  0  0  0
    5.5321   -0.4213    0.0000 C   0  0  2  0  0  0  0  0  0  0  0  0
    6.4456   -0.8280    0.0000 C   0  0  0  0  0  0  0  0  0  0  0  0
    8.1093   -0.1894    0.0000 C   0  0  0  0  0  0  0  0  0  0  0  0
    2.7750    2.8914    0.0000 C   0  0  0  0  0  0  0  0  0  0  0  0
    9.0228    0.2174    0.0000 C   0  0  2  0  0  0  0  0  0  0  0  0
    9.1273    1.2119    0.0000 C   0  0  0  0  0  0  0  0  0  0  0  0
    9.2319    2.2064    0.0000 C   0  0  0  0  0  0  0  0  0  0  0  0
   10.1219    1.1074    0.0000 C   0  0  0  0  0  0  0  0  0  0  0  0
    8.1328    1.3164    0.0000 C   0  0  0  0  0  0  0  0  0  0  0  0
    4.6660   -1.9213    0.0000 C   0  0  0  0  0  0  0  0  0  0  0  0
   10.7454    0.0363    0.0000 C   0  0  0  0  0  0  0  0  0  0  0  0
    3.8000   -2.4213    0.0000 C   0  0  0  0  0  0  0  0  0  0  0  0
    5.5321   -2.4213    0.0000 C   0  0  0  0  0  0  0  0  0  0  0  0
    3.8000   -3.4213    0.0000 C   0  0  0  0  0  0  0  0  0  0  0  0
    5.5321   -3.4213    0.0000 C   0  0  0  0  0  0  0  0  0  0  0  0
    2.9061   -1.8866    0.0000 C   0  0  0  0  0  0  0  0  0  0  0  0
   11.7634    1.4376    0.0000 C   0  0  0  0  0  0  0  0  0  0  0  0
    2.9061   -3.9559    0.0000 C   0  0  0  0  0  0  0  0  0  0  0  0
    2.0000   -2.4004    0.0000 C   0  0  0  0  0  0  0  0  0  0  0  0
    6.3981   -3.9213    0.0000 C   0  0  0  0  0  0  0  0  0  0  0  0
   12.6770    1.8443    0.0000 C   0  0  0  0  0  0  0  0  0  0  0  0
   11.3567    2.3511    0.0000 C   0  0  0  0  0  0  0  0  0  0  0  0
   12.1702    0.5240    0.0000 C   0  0  0  0  0  0  0  0  0  0  0  0
    2.0000   -3.4421    0.0000 C   0  0  0  0  0  0  0  0  0  0  0  0
    6.5026   -4.9158    0.0000 C   0  0  0  0  0  0  0  0  0  0  0  0
    7.9808   -4.2577    0.0000 C   0  0  0  0  0  0  0  0  0  0  0  0
    8.9753   -4.1531    0.0000 C   0  0  0  0  0  0  0  0  0  0  0  0
    4.7198    2.4936    0.0000 H   0  0  0  0  0  0  0  0  0  0  0  0
    5.3350    4.4320    0.0000 H   0  0  0  0  0  0  0  0  0  0  0  0
    4.3903    4.3327    0.0000 H   0  0  0  0  0  0  0  0  0  0  0  0
    5.0951    1.8180    0.0000 H   0  0  0  0  0  0  0  0  0  0  0  0
    3.7534    1.8680    0.0000 H   0  0  0  0  0  0  0  0  0  0  0  0
    7.2044    0.9728    0.0000 H   0  0  0  0  0  0  0  0  0  0  0  0
    5.5718    1.1899    0.0000 H   0  0  0  0  0  0  0  0  0  0  0  0
    5.0166    0.5733    0.0000 H   0  0  0  0  0  0  0  0  0  0  0  0
    5.5645   -1.0404    0.0000 H   0  0  0  0  0  0  0  0  0  0  0  0
    6.1356   -1.3649    0.0000 H   0  0  0  0  0  0  0  0  0  0  0  0
    6.9472   -1.1924    0.0000 H   0  0  0  0  0  0  0  0  0  0  0  0
    2.7102    3.5080    0.0000 H   0  0  0  0  0  0  0  0  0  0  0  0
    2.2735    2.5269    0.0000 H   0  0  0  0  0  0  0  0  0  0  0  0
    8.9580   -0.3992    0.0000 H   0  0  0  0  0  0  0  0  0  0  0  0
    6.6982    5.1237    0.0000 H   0  0  0  0  0  0  0  0  0  0  0  0
    9.7670   -0.9870    0.0000 H   0  0  0  0  0  0  0  0  0  0  0  0
    9.8485    2.1416    0.0000 H   0  0  0  0  0  0  0  0  0  0  0  0
    9.2967    2.8230    0.0000 H   0  0  0  0  0  0  0  0  0  0  0  0
    8.6153    2.2712    0.0000 H   0  0  0  0  0  0  0  0  0  0  0  0
   10.0570    0.4907    0.0000 H   0  0  0  0  0  0  0  0  0  0  0  0
   10.7385    1.0425    0.0000 H   0  0  0  0  0  0  0  0  0  0  0  0
   10.1867    1.7240    0.0000 H   0  0  0  0  0  0  0  0  0  0  0  0
    8.1976    1.9330    0.0000 H   0  0  0  0  0  0  0  0  0  0  0  0
    7.5162    1.3812    0.0000 H   0  0  0  0  0  0  0  0  0  0  0  0
    8.0680    0.6998    0.0000 H   0  0  0  0  0  0  0  0  0  0  0  0
    6.0690   -2.1113    0.0000 H   0  0  0  0  0  0  0  0  0  0  0  0
    2.9132   -1.2666    0.0000 H   0  0  0  0  0  0  0  0  0  0  0  0
    2.9132   -4.5759    0.0000 H   0  0  0  0  0  0  0  0  0  0  0  0
    1.4643   -2.0884    0.0000 H   0  0  0  0  0  0  0  0  0  0  0  0
   12.9292    1.2779    0.0000 H   0  0  0  0  0  0  0  0  0  0  0  0
   13.2434    2.0965    0.0000 H   0  0  0  0  0  0  0  0  0  0  0  0
   12.4248    2.4107    0.0000 H   0  0  0  0  0  0  0  0  0  0  0  0
   11.9231    2.6033    0.0000 H   0  0  0  0  0  0  0  0  0  0  0  0
   11.1045    2.9175    0.0000 H   0  0  0  0  0  0  0  0  0  0  0  0
   10.7903    2.0989    0.0000 H   0  0  0  0  0  0  0  0  0  0  0  0
   11.6038    0.2718    0.0000 H   0  0  0  0  0  0  0  0  0  0  0  0
   12.4224   -0.0424    0.0000 H   0  0  0  0  0  0  0  0  0  0  0  0
   12.7366    0.7762    0.0000 H   0  0  0  0  0  0  0  0  0  0  0  0
    1.4643   -3.7541    0.0000 H   0  0  0  0  0  0  0  0  0  0  0  0
    6.0419   -5.3306    0.0000 H   0  0  0  0  0  0  0  0  0  0  0  0
    9.0401   -4.7697    0.0000 H   0  0  0  0  0  0  0  0  0  0  0  0
    9.5919   -4.0883    0.0000 H   0  0  0  0  0  0  0  0  0  0  0  0
    8.9105   -3.5365    0.0000 H   0  0  0  0  0  0  0  0  0  0  0  0
  1 46  1  0  0  0  0
  1 47  1  0  0  0  0
  2 17  1  0  0  0  0
  2 63  1  0  0  0  0
  3 17  2  0  0  0  0
 22  4  1  6  0  0  0
  4 31  1  0  0  0  0
  5 20  2  0  0  0  0
  6 24  2  0  0  0  0
  7 32  1  0  0  0  0
  7 38  1  0  0  0  0
  8 32  2  0  0  0  0
  9 14  1  0  0  0  0
  9 20  1  0  0  0  0
  9 52  1  0  0  0  0
 10 19  1  0  0  0  0
 10 23  1  0  0  0  0
 10 24  1  0  0  0  0
 26 11  1  6  0  0  0
 11 32  1  0  0  0  0
 11 64  1  0  0  0  0
 12 35  1  0  0  0  0
 12 36  2  0  0  0  0
 13 41  1  0  0  0  0
 13 47  2  0  0  0  0
 14 15  1  0  0  0  0
 14 16  1  0  0  0  0
 14 17  1  0  0  0  0
 15 16  1  0  0  0  0
 15 18  1  1  0  0  0
 15 49  1  0  0  0  0
 16 50  1  0  0  0  0
 16 51  1  0  0  0  0
 18 25  2  0  0  0  0
 18 53  1  0  0  0  0
 19 20  1  1  0  0  0
 19 21  1  0  0  0  0
 19 54  1  0  0  0  0
 21 22  1  0  0  0  0
 21 55  1  0  0  0  0
 21 56  1  0  0  0  0
 22 23  1  0  0  0  0
 22 57  1  0  0  0  0
 23 58  1  0  0  0  0
 23 59  1  0  0  0  0
 24 26  1  0  0  0  0
 25 60  1  0  0  0  0
 25 61  1  0  0  0  0
 26 27  1  0  0  0  0
 26 62  1  0  0  0  0
 27 28  1  0  0  0  0
 27 29  1  0  0  0  0
 27 30  1  0  0  0  0
 28 65  1  0  0  0  0
 28 66  1  0  0  0  0
 28 67  1  0  0  0  0
 29 68  1  0  0  0  0
 29 69  1  0  0  0  0
 29 70  1  0  0  0  0
 30 71  1  0  0  0  0
 30 72  1  0  0  0  0
 30 73  1  0  0  0  0
 31 33  1  0  0  0  0
 31 34  2  0  0  0  0
 33 35  1  0  0  0  0
 33 37  2  0  0  0  0
 34 36  1  0  0  0  0
 34 74  1  0  0  0  0
 35 39  2  0  0  0  0
 36 41  1  0  0  0  0
 37 40  1  0  0  0  0
 37 75  1  0  0  0  0
 38 42  1  0  0  0  0
 38 43  1  0  0  0  0
 38 44  1  0  0  0  0
 39 45  1  0  0  0  0
 39 76  1  0  0  0  0
 40 45  2  0  0  0  0
 40 77  1  0  0  0  0
 41 46  2  0  0  0  0
 42 78  1  0  0  0  0
 42 79  1  0  0  0  0
 42 80  1  0  0  0  0
 43 81  1  0  0  0  0
 43 82  1  0  0  0  0
 43 83  1  0  0  0  0
 44 84  1  0  0  0  0
 44 85  1  0  0  0  0
 44 86  1  0  0  0  0
 45 87  1  0  0  0  0
 46 88  1  0  0  0  0
 47 48  1  0  0  0  0
 48 89  1  0  0  0  0
 48 90  1  0  0  0  0
 48 91  1  0  0  0  0
M  END
> <PUBCHEM_COMPOUND_CID>
500708
> <PUBCHEM_COMPOUND_CANONICALIZED>
1
> <PUBCHEM_CACTVS_COMPLEXITY>
1250
> <PUBCHEM_CACTVS_HBOND_ACCEPTOR>
10
> <PUBCHEM_CACTVS_HBOND_DONOR>
3
> <PUBCHEM_CACTVS_ROTATABLE_BOND>
12
> <PUBCHEM_CACTVS_SUBSKEYS>
AAADcfB/uABAAAAAAAAAAAAAGAAAAWLAAAA8QAAAAAAAAACx/AAAHgQQCAAAD/zl3gayz/PIFgisAyXyXACC+KBhKjgImLW+bJkOZvLksbufeCjm1hn46Ae6weAPAAAAAAACAAAAAAAAAAQAAAAAAAAAAA==
> <PUBCHEM_IUPAC_OPENEYE_NAME>
(2R)-1-[[(2S,4R)-1-[(2S)-2-(tert-butoxycarbonylamino)-3,3-dimethyl-butanoyl]-4-[[2-(2-methylthiazol-4-yl)-4-quinolyl]oxy]pyrrolidine-2-carbonyl]amino]-2-vinyl-cyclopropanecarboxylic acid
> <PUBCHEM_IUPAC_CAS_NAME>
(2R)-1-[[[(2S,4R)-1-[(2S)-3,3-dimethyl-2-[[(2-methylpropan-2-yl)oxy-oxomethyl]amino]-1-oxobutyl]-4-[[2-(2-methyl-4-thiazolyl)-4-quinolinyl]oxy]-2-pyrrolidinyl]-oxomethyl]amino]-2-ethenyl-1-cyclopropanecarboxylic acid
> <PUBCHEM_IUPAC_NAME_MARKUP>
(2<I>R</I>)-1-[[(2<I>S</I>,4<I>R</I>)-1-[(2<I>S</I>)-3,3-dimethyl-2-[(2-methylpropan-2-yl)oxycarbonylamino]butanoyl]-4-[2-(2-methyl-1,3-thiazol-4-yl)quinolin-4-yl]oxypyrrolidine-2-carbonyl]amino]-2-ethenylcyclopropane-1-carboxylic acid
> <PUBCHEM_IUPAC_NAME>
(2R)-1-[[(2S,4R)-1-[(2S)-3,3-dimethyl-2-[(2-methylpropan-2-yl)oxycarbonylamino]butanoyl]-4-[2-(2-methyl-1,3-thiazol-4-yl)quinolin-4-yl]oxypyrrolidine-2-carbonyl]amino]-2-ethenylcyclopropane-1-carboxylic acid
> <PUBCHEM_IUPAC_SYSTEMATIC_NAME>
(2R)-1-[[(2S,4R)-1-[(2S)-3,3-dimethyl-2-[(2-methylpropan-2-yl)oxycarbonylamino]butanoyl]-4-[2-(2-methyl-1,3-thiazol-4-yl)quinolin-4-yl]oxy-pyrrolidin-2-yl]carbonylamino]-2-ethenyl-cyclopropane-1-carboxylic acid
> <PUBCHEM_IUPAC_TRADITIONAL_NAME>
(2R)-1-[[(2S,4R)-1-[(2S)-2-(tert-butoxycarbonylamino)-3,3-dimethyl-butanoyl]-4-[[2-(2-methylthiazol-4-yl)-4-quinolyl]oxy]prolyl]amino]-2-vinyl-cyclopropanecarboxylic acid
> <PUBCHEM_IUPAC_INCHI>
InChI=1S/C35H43N5O7S/c1-9-20-16-35(20,31(43)44)39-29(41)26-14-21(17-40(26)30(42)28(33(3,4)5)38-32(45)47-34(6,7)8)46-27-15-24(25-18-48-19(2)36-25)37-23-13-11-10-12-22(23)27/h9-13,15,18,20-21,26,28H,1,14,16-17H2,2-8H3,(H,38,45)(H,39,41)(H,43,44)/t20-,21+,26-,28+,35?/m0/s1
> <PUBCHEM_IUPAC_INCHIKEY>
VSGJNIKJSXWQCK-OVUDQCBCSA-N
> <PUBCHEM_XLOGP3_AA>
5.3
> <PUBCHEM_EXACT_MASS>
677.28831990
> <PUBCHEM_MOLECULAR_FORMULA>
C35H43N5O7S
> <PUBCHEM_MOLECULAR_WEIGHT>
677.8
> <PUBCHEM_OPENEYE_CAN_SMILES>
CC1=NC(=CS1)C2=NC3=CC=CC=C3C(=C2)OC4CC(N(C4)C(=O)C(C(C)(C)C)NC(=O)OC(C)(C)C)C(=O)NC5(CC5C=C)C(=O)O
> <PUBCHEM_OPENEYE_ISO_SMILES>
CC1=NC(=CS1)C2=NC3=CC=CC=C3C(=C2)O[C@@H]4C[C@H](N(C4)C(=O)[C@H](C(C)(C)C)NC(=O)OC(C)(C)C)C(=O)NC5(C[C@@H]5C=C)C(=O)O
> <PUBCHEM_CACTVS_TPSA>
188
> <PUBCHEM_MONOISOTOPIC_WEIGHT>
677.28831990
> <PUBCHEM_TOTAL_CHARGE>
0
> <PUBCHEM_HEAVY_ATOM_COUNT>
48
> <PUBCHEM_ATOM_DEF_STEREO_COUNT>
4
> <PUBCHEM_ATOM_UDEF_STEREO_COUNT>
1
> <PUBCHEM_BOND_DEF_STEREO_COUNT>
0
> <PUBCHEM_BOND_UDEF_STEREO_COUNT>
0
> <PUBCHEM_ISOTOPIC_ATOM_COUNT>
0
> <PUBCHEM_COMPONENT_COUNT>
1
> <PUBCHEM_CACTVS_TAUTO_COUNT>
-1
> <PUBCHEM_COORDINATE_TYPE>
1
5
255
> <PUBCHEM_BONDANNOTATIONS>
1  46  8
1  47  8
26  11  6
12  35  8
12  36  8
13  41  8
13  47  8
14  17  3
15  18  5
19  20  5
31  33  8
31  34  8
33  35  8
33  37  8
34  36  8
35  39  8
37  40  8
39  45  8
22  4  6
40  45  8
41  46  8
$$$$
