500744
  -OEChem-10302200282D
101105  0     1  0  0  0  0  0999 V2000
    9.2128   -4.5990    0.0000 S   0  0  0  0  0  0  0  0  0  0  0  0
   11.2951   -4.4374    0.0000 S   0  0  0  0  0  0  0  0  0  0  0  0
   12.8249    0.0218    0.0000 O   0  0  0  0  0  0  0  0  0  0  0  0
   11.4236    1.0398    0.0000 O   0  0  0  0  0  0  0  0  0  0  0  0
    6.3981   -0.3965    0.0000 O   0  0  0  0  0  0  0  0  0  0  0  0
   10.4291    1.1444    0.0000 O   0  0  0  0  0  0  0  0  0  0  0  0
    9.7480    2.3240    0.0000 O   0  0  0  0  0  0  0  0  0  0  0  0
    5.5889    3.6284    0.0000 O   0  0  0  0  0  0  0  0  0  0  0  0
    6.9902    4.6465    0.0000 O   0  0  0  0  0  0  0  0  0  0  0  0
    2.8680   -3.4207    0.0000 O   0  0  0  0  0  0  0  0  0  0  0  0
   12.1041   -3.8496    0.0000 O   0  0  0  0  0  0  0  0  0  0  0  0
   10.4861   -5.0252    0.0000 O   0  0  0  0  0  0  0  0  0  0  0  0
   10.2480   -0.5782    0.0000 N   0  0  0  0  0  0  0  0  0  0  0  0
    8.3468    1.3059    0.0000 N   0  0  0  0  0  0  0  0  0  0  0  0
    7.1712    2.9239    0.0000 N   0  0  0  0  0  0  0  0  0  0  0  0
    6.3981   -3.3965    0.0000 N   0  0  0  0  0  0  0  0  0  0  0  0
    9.0437   -2.9898    0.0000 N   0  0  0  0  0  0  0  0  0  0  0  0
   11.2426   -0.6827    0.0000 C   0  0  3  0  0  0  0  0  0  0  0  0
   11.1380   -1.6772    0.0000 C   0  0  2  0  0  0  0  0  0  0  0  0
   12.0516   -1.2705    0.0000 C   0  0  0  0  0  0  0  0  0  0  0  0
   11.8303    0.1263    0.0000 C   0  0  0  0  0  0  0  0  0  0  0  0
   10.5502   -2.4863    0.0000 C   0  0  0  0  0  0  0  0  0  0  0  0
    8.8468    0.4399    0.0000 C   0  0  2  0  0  0  0  0  0  0  0  0
    9.8413    0.3353    0.0000 C   0  0  0  0  0  0  0  0  0  0  0  0
    8.1776   -0.3033    0.0000 C   0  0  0  0  0  0  0  0  0  0  0  0
    7.2641    0.1035    0.0000 C   0  0  2  0  0  0  0  0  0  0  0  0
    7.3686    1.0980    0.0000 C   0  0  0  0  0  0  0  0  0  0  0  0
    8.7535    2.2194    0.0000 C   0  0  0  0  0  0  0  0  0  0  0  0
    9.5557   -2.3817    0.0000 C   0  0  0  0  0  0  0  0  0  0  0  0
    8.1657    3.0285    0.0000 C   0  0  2  0  0  0  0  0  0  0  0  0
    8.5725    3.9420    0.0000 C   0  0  0  0  0  0  0  0  0  0  0  0
    8.9792    4.8556    0.0000 C   0  0  0  0  0  0  0  0  0  0  0  0
    7.6589    4.3487    0.0000 C   0  0  0  0  0  0  0  0  0  0  0  0
    9.4860    3.5353    0.0000 C   0  0  0  0  0  0  0  0  0  0  0  0
    6.3981   -1.3965    0.0000 C   0  0  0  0  0  0  0  0  0  0  0  0
    5.5320   -1.8965    0.0000 C   0  0  0  0  0  0  0  0  0  0  0  0
    6.5834    3.7330    0.0000 C   0  0  0  0  0  0  0  0  0  0  0  0
    7.2641   -1.8965    0.0000 C   0  0  0  0  0  0  0  0  0  0  0  0
    5.5320   -2.8965    0.0000 C   0  0  0  0  0  0  0  0  0  0  0  0
    7.2641   -2.8965    0.0000 C   0  0  0  0  0  0  0  0  0  0  0  0
    4.6381   -1.3619    0.0000 C   0  0  0  0  0  0  0  0  0  0  0  0
    5.0011    4.4374    0.0000 C   0  0  0  0  0  0  0  0  0  0  0  0
    4.6381   -3.4312    0.0000 C   0  0  0  0  0  0  0  0  0  0  0  0
    3.7320   -1.8757    0.0000 C   0  0  0  0  0  0  0  0  0  0  0  0
    8.1301   -3.3965    0.0000 C   0  0  0  0  0  0  0  0  0  0  0  0
    3.7320   -2.9174    0.0000 C   0  0  0  0  0  0  0  0  0  0  0  0
    4.4133    5.2464    0.0000 C   0  0  0  0  0  0  0  0  0  0  0  0
    4.1921    3.8496    0.0000 C   0  0  0  0  0  0  0  0  0  0  0  0
    5.8101    5.0252    0.0000 C   0  0  0  0  0  0  0  0  0  0  0  0
    8.2346   -4.3911    0.0000 C   0  0  0  0  0  0  0  0  0  0  0  0
    9.7128   -3.7330    0.0000 C   0  0  0  0  0  0  0  0  0  0  0  0
   10.7073   -3.6284    0.0000 C   0  0  0  0  0  0  0  0  0  0  0  0
    2.0000   -2.9240    0.0000 C   0  0  0  0  0  0  0  0  0  0  0  0
   11.8829   -5.2464    0.0000 C   0  0  0  0  0  0  0  0  0  0  0  0
   10.5592   -1.4551    0.0000 H   0  0  0  0  0  0  0  0  0  0  0  0
   12.3983   -1.7845    0.0000 H   0  0  0  0  0  0  0  0  0  0  0  0
   12.4976   -0.8398    0.0000 H   0  0  0  0  0  0  0  0  0  0  0  0
    9.8836   -1.0798    0.0000 H   0  0  0  0  0  0  0  0  0  0  0  0
   10.8024   -3.0527    0.0000 H   0  0  0  0  0  0  0  0  0  0  0  0
    9.1844    0.9598    0.0000 H   0  0  0  0  0  0  0  0  0  0  0  0
    7.8676   -0.8402    0.0000 H   0  0  0  0  0  0  0  0  0  0  0  0
    8.6792   -0.6677    0.0000 H   0  0  0  0  0  0  0  0  0  0  0  0
    6.7441    0.4411    0.0000 H   0  0  0  0  0  0  0  0  0  0  0  0
    7.3038    1.7146    0.0000 H   0  0  0  0  0  0  0  0  0  0  0  0
    6.7486    1.0980    0.0000 H   0  0  0  0  0  0  0  0  0  0  0  0
    9.3035   -1.8153    0.0000 H   0  0  0  0  0  0  0  0  0  0  0  0
    9.1913   -2.8833    0.0000 H   0  0  0  0  0  0  0  0  0  0  0  0
    7.8013    3.5300    0.0000 H   0  0  0  0  0  0  0  0  0  0  0  0
   13.1893    0.5233    0.0000 H   0  0  0  0  0  0  0  0  0  0  0  0
    6.9190    2.3575    0.0000 H   0  0  0  0  0  0  0  0  0  0  0  0
    9.5456    4.6034    0.0000 H   0  0  0  0  0  0  0  0  0  0  0  0
    9.2314    5.4220    0.0000 H   0  0  0  0  0  0  0  0  0  0  0  0
    8.4128    5.1077    0.0000 H   0  0  0  0  0  0  0  0  0  0  0  0
    7.9111    4.9151    0.0000 H   0  0  0  0  0  0  0  0  0  0  0  0
    7.0925    4.6009    0.0000 H   0  0  0  0  0  0  0  0  0  0  0  0
    7.4067    3.7823    0.0000 H   0  0  0  0  0  0  0  0  0  0  0  0
    9.2338    2.9689    0.0000 H   0  0  0  0  0  0  0  0  0  0  0  0
   10.0524    3.2831    0.0000 H   0  0  0  0  0  0  0  0  0  0  0  0
    9.7382    4.1017    0.0000 H   0  0  0  0  0  0  0  0  0  0  0  0
    7.8010   -1.5865    0.0000 H   0  0  0  0  0  0  0  0  0  0  0  0
    4.6453   -0.7419    0.0000 H   0  0  0  0  0  0  0  0  0  0  0  0
    4.6453   -4.0512    0.0000 H   0  0  0  0  0  0  0  0  0  0  0  0
    3.1963   -1.5637    0.0000 H   0  0  0  0  0  0  0  0  0  0  0  0
    4.9149    5.6109    0.0000 H   0  0  0  0  0  0  0  0  0  0  0  0
    4.0489    5.7480    0.0000 H   0  0  0  0  0  0  0  0  0  0  0  0
    3.9117    4.8820    0.0000 H   0  0  0  0  0  0  0  0  0  0  0  0
    3.8277    4.3512    0.0000 H   0  0  0  0  0  0  0  0  0  0  0  0
    3.6905    3.4852    0.0000 H   0  0  0  0  0  0  0  0  0  0  0  0
    4.5565    3.3481    0.0000 H   0  0  0  0  0  0  0  0  0  0  0  0
    6.1746    4.5236    0.0000 H   0  0  0  0  0  0  0  0  0  0  0  0
    6.3117    5.3896    0.0000 H   0  0  0  0  0  0  0  0  0  0  0  0
    5.4457    5.5268    0.0000 H   0  0  0  0  0  0  0  0  0  0  0  0
    7.7739   -4.8059    0.0000 H   0  0  0  0  0  0  0  0  0  0  0  0
   11.2646   -3.3566    0.0000 H   0  0  0  0  0  0  0  0  0  0  0  0
   10.5364   -3.0324    0.0000 H   0  0  0  0  0  0  0  0  0  0  0  0
    2.3079   -2.3859    0.0000 H   0  0  0  0  0  0  0  0  0  0  0  0
    1.4619   -2.6161    0.0000 H   0  0  0  0  0  0  0  0  0  0  0  0
    1.6921   -3.4622    0.0000 H   0  0  0  0  0  0  0  0  0  0  0  0
   11.3813   -5.6109    0.0000 H   0  0  0  0  0  0  0  0  0  0  0  0
   12.2473   -5.7480    0.0000 H   0  0  0  0  0  0  0  0  0  0  0  0
   12.3845   -4.8820    0.0000 H   0  0  0  0  0  0  0  0  0  0  0  0
  1 50  1  0  0  0  0
  1 51  1  0  0  0  0
  2 11  2  0  0  0  0
  2 12  2  0  0  0  0
  2 52  1  0  0  0  0
  2 54  1  0  0  0  0
  3 21  1  0  0  0  0
  3 69  1  0  0  0  0
  4 21  2  0  0  0  0
 26  5  1  1  0  0  0
  5 35  1  0  0  0  0
  6 24  2  0  0  0  0
  7 28  2  0  0  0  0
  8 37  1  0  0  0  0
  8 42  1  0  0  0  0
  9 37  2  0  0  0  0
 10 46  1  0  0  0  0
 10 53  1  0  0  0  0
 13 18  1  0  0  0  0
 13 24  1  0  0  0  0
 13 58  1  0  0  0  0
 14 23  1  0  0  0  0
 14 27  1  0  0  0  0
 14 28  1  0  0  0  0
 30 15  1  1  0  0  0
 15 37  1  0  0  0  0
 15 70  1  0  0  0  0
 16 39  1  0  0  0  0
 16 40  2  0  0  0  0
 17 45  1  0  0  0  0
 17 51  2  0  0  0  0
 18 19  1  0  0  0  0
 18 20  1  0  0  0  0
 18 21  1  0  0  0  0
 19 20  1  0  0  0  0
 19 22  1  6  0  0  0
 19 55  1  0  0  0  0
 20 56  1  0  0  0  0
 20 57  1  0  0  0  0
 22 29  2  0  0  0  0
 22 59  1  0  0  0  0
 23 24  1  6  0  0  0
 23 25  1  0  0  0  0
 23 60  1  0  0  0  0
 25 26  1  0  0  0  0
 25 61  1  0  0  0  0
 25 62  1  0  0  0  0
 26 27  1  0  0  0  0
 26 63  1  0  0  0  0
 27 64  1  0  0  0  0
 27 65  1  0  0  0  0
 28 30  1  0  0  0  0
 29 66  1  0  0  0  0
 29 67  1  0  0  0  0
 30 31  1  0  0  0  0
 30 68  1  0  0  0  0
 31 32  1  0  0  0  0
 31 33  1  0  0  0  0
 31 34  1  0  0  0  0
 32 71  1  0  0  0  0
 32 72  1  0  0  0  0
 32 73  1  0  0  0  0
 33 74  1  0  0  0  0
 33 75  1  0  0  0  0
 33 76  1  0  0  0  0
 34 77  1  0  0  0  0
 34 78  1  0  0  0  0
 34 79  1  0  0  0  0
 35 36  1  0  0  0  0
 35 38  2  0  0  0  0
 36 39  2  0  0  0  0
 36 41  1  0  0  0  0
 38 40  1  0  0  0  0
 38 80  1  0  0  0  0
 39 43  1  0  0  0  0
 40 45  1  0  0  0  0
 41 44  2  0  0  0  0
 41 81  1  0  0  0  0
 42 47  1  0  0  0  0
 42 48  1  0  0  0  0
 42 49  1  0  0  0  0
 43 46  2  0  0  0  0
 43 82  1  0  0  0  0
 44 46  1  0  0  0  0
 44 83  1  0  0  0  0
 45 50  2  0  0  0  0
 47 84  1  0  0  0  0
 47 85  1  0  0  0  0
 47 86  1  0  0  0  0
 48 87  1  0  0  0  0
 48 88  1  0  0  0  0
 48 89  1  0  0  0  0
 49 90  1  0  0  0  0
 49 91  1  0  0  0  0
 49 92  1  0  0  0  0
 50 93  1  0  0  0  0
 51 52  1  0  0  0  0
 52 94  1  0  0  0  0
 52 95  1  0  0  0  0
 53 96  1  0  0  0  0
 53 97  1  0  0  0  0
 53 98  1  0  0  0  0
 54 99  1  0  0  0  0
 54100  1  0  0  0  0
 54101  1  0  0  0  0
M  END
> <PUBCHEM_COMPOUND_CID>
500744
> <PUBCHEM_COMPOUND_CANONICALIZED>
1
> <PUBCHEM_CACTVS_COMPLEXITY>
1540
> <PUBCHEM_CACTVS_HBOND_ACCEPTOR>
13
> <PUBCHEM_CACTVS_HBOND_DONOR>
3
> <PUBCHEM_CACTVS_ROTATABLE_BOND>
15
> <PUBCHEM_CACTVS_SUBSKEYS>
AAADcfB/vABgAAAAAAAAAAAAGAAAAWLAAAA8QAAAAAAAAACx/AAAHgQQCAAAD/zl3gayz/PIFgqsAyXyXHDC+KBhKjgImLW+bJkOZvLksbufeCjm1hn46Ae68e8PIAAAAgACAABAAAAEAAQAAAAAAAAAAA==
> <PUBCHEM_IUPAC_OPENEYE_NAME>
(2R)-1-[[(2S,4R)-1-[(2S)-2-(tert-butoxycarbonylamino)-3,3-dimethyl-butanoyl]-4-[[7-methoxy-2-[2-(methylsulfonylmethyl)thiazol-4-yl]-4-quinolyl]oxy]pyrrolidine-2-carbonyl]amino]-2-vinyl-cyclopropanecarboxylic acid
> <PUBCHEM_IUPAC_CAS_NAME>
(2R)-1-[[[(2S,4R)-1-[(2S)-3,3-dimethyl-2-[[(2-methylpropan-2-yl)oxy-oxomethyl]amino]-1-oxobutyl]-4-[[7-methoxy-2-[2-(methylsulfonylmethyl)-4-thiazolyl]-4-quinolinyl]oxy]-2-pyrrolidinyl]-oxomethyl]amino]-2-ethenyl-1-cyclopropanecarboxylic acid
> <PUBCHEM_IUPAC_NAME_MARKUP>
(2<I>R</I>)-1-[[(2<I>S</I>,4<I>R</I>)-1-[(2<I>S</I>)-3,3-dimethyl-2-[(2-methylpropan-2-yl)oxycarbonylamino]butanoyl]-4-[7-methoxy-2-[2-(methylsulfonylmethyl)-1,3-thiazol-4-yl]quinolin-4-yl]oxypyrrolidine-2-carbonyl]amino]-2-ethenylcyclopropane-1-carboxylic acid
> <PUBCHEM_IUPAC_NAME>
(2R)-1-[[(2S,4R)-1-[(2S)-3,3-dimethyl-2-[(2-methylpropan-2-yl)oxycarbonylamino]butanoyl]-4-[7-methoxy-2-[2-(methylsulfonylmethyl)-1,3-thiazol-4-yl]quinolin-4-yl]oxypyrrolidine-2-carbonyl]amino]-2-ethenylcyclopropane-1-carboxylic acid
> <PUBCHEM_IUPAC_SYSTEMATIC_NAME>
(2R)-1-[[(2S,4R)-1-[(2S)-3,3-dimethyl-2-[(2-methylpropan-2-yl)oxycarbonylamino]butanoyl]-4-[7-methoxy-2-[2-(methylsulfonylmethyl)-1,3-thiazol-4-yl]quinolin-4-yl]oxy-pyrrolidin-2-yl]carbonylamino]-2-ethenyl-cyclopropane-1-carboxylic acid
> <PUBCHEM_IUPAC_TRADITIONAL_NAME>
(2R)-1-[[(2S,4R)-1-[(2S)-2-(tert-butoxycarbonylamino)-3,3-dimethyl-butanoyl]-4-[[2-[2-(mesylmethyl)thiazol-4-yl]-7-methoxy-4-quinolyl]oxy]prolyl]amino]-2-vinyl-cyclopropanecarboxylic acid
> <PUBCHEM_IUPAC_INCHI>
InChI=1S/C37H47N5O10S2/c1-10-20-16-37(20,33(45)46)41-31(43)27-14-22(17-42(27)32(44)30(35(2,3)4)40-34(47)52-36(5,6)7)51-28-15-25(26-18-53-29(39-26)19-54(9,48)49)38-24-13-21(50-8)11-12-23(24)28/h10-13,15,18,20,22,27,30H,1,14,16-17,19H2,2-9H3,(H,40,47)(H,41,43)(H,45,46)/t20-,22+,27-,30+,37?/m0/s1
> <PUBCHEM_IUPAC_INCHIKEY>
LJWBFPJYBOXRIH-SFMGRPKQSA-N
> <PUBCHEM_XLOGP3_AA>
4.1
> <PUBCHEM_EXACT_MASS>
785.27643506
> <PUBCHEM_MOLECULAR_FORMULA>
C37H47N5O10S2
> <PUBCHEM_MOLECULAR_WEIGHT>
785.9
> <PUBCHEM_OPENEYE_CAN_SMILES>
CC(C)(C)C(C(=O)N1CC(CC1C(=O)NC2(CC2C=C)C(=O)O)OC3=CC(=NC4=C3C=CC(=C4)OC)C5=CSC(=N5)CS(=O)(=O)C)NC(=O)OC(C)(C)C
> <PUBCHEM_OPENEYE_ISO_SMILES>
CC(C)(C)[C@@H](C(=O)N1C[C@@H](C[C@H]1C(=O)NC2(C[C@@H]2C=C)C(=O)O)OC3=CC(=NC4=C3C=CC(=C4)OC)C5=CSC(=N5)CS(=O)(=O)C)NC(=O)OC(C)(C)C
> <PUBCHEM_CACTVS_TPSA>
240
> <PUBCHEM_MONOISOTOPIC_WEIGHT>
785.27643506
> <PUBCHEM_TOTAL_CHARGE>
0
> <PUBCHEM_HEAVY_ATOM_COUNT>
54
> <PUBCHEM_ATOM_DEF_STEREO_COUNT>
4
> <PUBCHEM_ATOM_UDEF_STEREO_COUNT>
1
> <PUBCHEM_BOND_DEF_STEREO_COUNT>
0
> <PUBCHEM_BOND_UDEF_STEREO_COUNT>
0
> <PUBCHEM_ISOTOPIC_ATOM_COUNT>
0
> <PUBCHEM_COMPONENT_COUNT>
1
> <PUBCHEM_CACTVS_TAUTO_COUNT>
-1
> <PUBCHEM_COORDINATE_TYPE>
1
5
255
> <PUBCHEM_BONDANNOTATIONS>
1  50  8
1  51  8
30  15  5
16  39  8
16  40  8
17  45  8
17  51  8
18  21  3
19  22  6
23  24  6
35  36  8
35  38  8
36  39  8
36  41  8
38  40  8
39  43  8
41  44  8
43  46  8
44  46  8
45  50  8
26  5  5
$$$$
