500797
  -OEChem-10302200282D
 95100  0     1  0  0  0  0  0999 V2000
    9.9737    5.1110    0.0000 O   0  0  0  0  0  0  0  0  0  0  0  0
   10.1548    3.3884    0.0000 O   0  0  0  0  0  0  0  0  0  0  0  0
    6.3981   -0.2457    0.0000 O   0  0  0  0  0  0  0  0  0  0  0  0
    9.7480    2.4748    0.0000 O   0  0  0  0  0  0  0  0  0  0  0  0
   10.4291    1.2952    0.0000 O   0  0  0  0  0  0  0  0  0  0  0  0
    2.8680   -3.2698    0.0000 O   0  0  0  0  0  0  0  0  0  0  0  0
   14.4518   -3.4816    0.0000 O   0  0  0  0  0  0  0  0  0  0  0  0
    8.1657    3.1793    0.0000 N   0  0  0  0  0  0  0  0  0  0  0  0
    8.8468    0.5908    0.0000 N   0  0  0  0  0  0  0  0  0  0  0  0
   11.2426   -0.5319    0.0000 N   0  0  0  0  0  0  0  0  0  0  0  0
    6.3981   -3.2457    0.0000 N   0  0  0  0  0  0  0  0  0  0  0  0
   12.8695   -4.1860    0.0000 N   0  0  0  0  0  0  0  0  0  0  0  0
    8.5725    4.0929    0.0000 C   0  0  3  0  0  0  0  0  0  0  0  0
    7.6589    4.4996    0.0000 C   0  0  2  0  0  0  0  0  0  0  0  0
    8.4679    5.0874    0.0000 C   0  0  0  0  0  0  0  0  0  0  0  0
    9.5670    4.1974    0.0000 C   0  0  0  0  0  0  0  0  0  0  0  0
    6.6644    4.3951    0.0000 C   0  0  0  0  0  0  0  0  0  0  0  0
    8.3468    1.4568    0.0000 C   0  0  2  0  0  0  0  0  0  0  0  0
    8.7535    2.3703    0.0000 C   0  0  0  0  0  0  0  0  0  0  0  0
    7.3686    1.2489    0.0000 C   0  0  0  0  0  0  0  0  0  0  0  0
    7.2641    0.2543    0.0000 C   0  0  2  0  0  0  0  0  0  0  0  0
    8.1776   -0.1524    0.0000 C   0  0  0  0  0  0  0  0  0  0  0  0
    6.0766    5.2041    0.0000 C   0  0  0  0  0  0  0  0  0  0  0  0
    9.8413    0.4862    0.0000 C   0  0  0  0  0  0  0  0  0  0  0  0
   10.2480   -0.4273    0.0000 C   0  0  2  0  0  0  0  0  0  0  0  0
    9.6602   -1.2363    0.0000 C   0  0  0  0  0  0  0  0  0  0  0  0
    6.3981   -1.2457    0.0000 C   0  0  0  0  0  0  0  0  0  0  0  0
    8.6657   -1.1318    0.0000 C   0  0  0  0  0  0  0  0  0  0  0  0
   10.0670   -2.1499    0.0000 C   0  0  0  0  0  0  0  0  0  0  0  0
    5.5320   -1.7457    0.0000 C   0  0  0  0  0  0  0  0  0  0  0  0
   11.6493   -1.4454    0.0000 C   0  0  0  0  0  0  0  0  0  0  0  0
    7.2641   -1.7457    0.0000 C   0  0  0  0  0  0  0  0  0  0  0  0
    5.5320   -2.7457    0.0000 C   0  0  0  0  0  0  0  0  0  0  0  0
    7.2641   -2.7457    0.0000 C   0  0  0  0  0  0  0  0  0  0  0  0
    4.6381   -1.2110    0.0000 C   0  0  0  0  0  0  0  0  0  0  0  0
   11.0615   -2.2544    0.0000 C   0  0  0  0  0  0  0  0  0  0  0  0
   12.6438   -1.5499    0.0000 C   0  0  0  0  0  0  0  0  0  0  0  0
    4.6381   -3.2803    0.0000 C   0  0  0  0  0  0  0  0  0  0  0  0
    3.7320   -1.7248    0.0000 C   0  0  0  0  0  0  0  0  0  0  0  0
    8.1301   -3.2457    0.0000 C   0  0  0  0  0  0  0  0  0  0  0  0
   11.4682   -3.1680    0.0000 C   0  0  0  0  0  0  0  0  0  0  0  0
   13.0505   -2.4635    0.0000 C   0  0  0  0  0  0  0  0  0  0  0  0
    3.7320   -2.7665    0.0000 C   0  0  0  0  0  0  0  0  0  0  0  0
   12.4628   -3.2725    0.0000 C   0  0  0  0  0  0  0  0  0  0  0  0
    8.9962   -2.7457    0.0000 C   0  0  0  0  0  0  0  0  0  0  0  0
    8.1301   -4.2457    0.0000 C   0  0  0  0  0  0  0  0  0  0  0  0
    9.8622   -3.2457    0.0000 C   0  0  0  0  0  0  0  0  0  0  0  0
    8.9962   -4.7457    0.0000 C   0  0  0  0  0  0  0  0  0  0  0  0
    9.8622   -4.2457    0.0000 C   0  0  0  0  0  0  0  0  0  0  0  0
    2.0000   -2.7731    0.0000 C   0  0  0  0  0  0  0  0  0  0  0  0
   13.8640   -4.2906    0.0000 C   0  0  0  0  0  0  0  0  0  0  0  0
   14.2708   -5.2041    0.0000 C   0  0  0  0  0  0  0  0  0  0  0  0
    7.4367    5.0784    0.0000 H   0  0  0  0  0  0  0  0  0  0  0  0
    9.0639    5.2583    0.0000 H   0  0  0  0  0  0  0  0  0  0  0  0
    8.1961    5.6447    0.0000 H   0  0  0  0  0  0  0  0  0  0  0  0
    7.5491    3.1145    0.0000 H   0  0  0  0  0  0  0  0  0  0  0  0
    6.4122    3.8287    0.0000 H   0  0  0  0  0  0  0  0  0  0  0  0
    8.9659    1.4892    0.0000 H   0  0  0  0  0  0  0  0  0  0  0  0
    7.3038    1.8655    0.0000 H   0  0  0  0  0  0  0  0  0  0  0  0
    6.7486    1.2489    0.0000 H   0  0  0  0  0  0  0  0  0  0  0  0
    6.7441    0.5920    0.0000 H   0  0  0  0  0  0  0  0  0  0  0  0
    7.8676   -0.6893    0.0000 H   0  0  0  0  0  0  0  0  0  0  0  0
    8.6792   -0.5168    0.0000 H   0  0  0  0  0  0  0  0  0  0  0  0
    6.3288    5.7705    0.0000 H   0  0  0  0  0  0  0  0  0  0  0  0
    5.4600    5.1393    0.0000 H   0  0  0  0  0  0  0  0  0  0  0  0
   10.5903    5.1758    0.0000 H   0  0  0  0  0  0  0  0  0  0  0  0
   10.6125    0.0743    0.0000 H   0  0  0  0  0  0  0  0  0  0  0  0
    9.4081   -0.6699    0.0000 H   0  0  0  0  0  0  0  0  0  0  0  0
   11.6070   -0.0303    0.0000 H   0  0  0  0  0  0  0  0  0  0  0  0
    8.7305   -0.5152    0.0000 H   0  0  0  0  0  0  0  0  0  0  0  0
    8.0491   -1.0670    0.0000 H   0  0  0  0  0  0  0  0  0  0  0  0
    8.6009   -1.7484    0.0000 H   0  0  0  0  0  0  0  0  0  0  0  0
    9.5006   -2.4021    0.0000 H   0  0  0  0  0  0  0  0  0  0  0  0
   10.3192   -2.7163    0.0000 H   0  0  0  0  0  0  0  0  0  0  0  0
   10.6334   -1.8977    0.0000 H   0  0  0  0  0  0  0  0  0  0  0  0
    7.8010   -1.4357    0.0000 H   0  0  0  0  0  0  0  0  0  0  0  0
    4.6453   -0.5910    0.0000 H   0  0  0  0  0  0  0  0  0  0  0  0
   10.4449   -2.1896    0.0000 H   0  0  0  0  0  0  0  0  0  0  0  0
   13.0082   -1.0483    0.0000 H   0  0  0  0  0  0  0  0  0  0  0  0
    4.6453   -3.9003    0.0000 H   0  0  0  0  0  0  0  0  0  0  0  0
    3.1963   -1.4128    0.0000 H   0  0  0  0  0  0  0  0  0  0  0  0
   11.1038   -3.6696    0.0000 H   0  0  0  0  0  0  0  0  0  0  0  0
   13.6672   -2.5283    0.0000 H   0  0  0  0  0  0  0  0  0  0  0  0
    8.9962   -2.1257    0.0000 H   0  0  0  0  0  0  0  0  0  0  0  0
    7.5932   -4.5557    0.0000 H   0  0  0  0  0  0  0  0  0  0  0  0
   12.5051   -4.6876    0.0000 H   0  0  0  0  0  0  0  0  0  0  0  0
   10.3991   -2.9357    0.0000 H   0  0  0  0  0  0  0  0  0  0  0  0
    8.9962   -5.3657    0.0000 H   0  0  0  0  0  0  0  0  0  0  0  0
   10.3991   -4.5557    0.0000 H   0  0  0  0  0  0  0  0  0  0  0  0
    2.3079   -2.2350    0.0000 H   0  0  0  0  0  0  0  0  0  0  0  0
    1.4619   -2.4652    0.0000 H   0  0  0  0  0  0  0  0  0  0  0  0
    1.6921   -3.3113    0.0000 H   0  0  0  0  0  0  0  0  0  0  0  0
   13.7044   -5.4563    0.0000 H   0  0  0  0  0  0  0  0  0  0  0  0
   14.5229   -5.7705    0.0000 H   0  0  0  0  0  0  0  0  0  0  0  0
   14.8372   -4.9519    0.0000 H   0  0  0  0  0  0  0  0  0  0  0  0
  1 16  1  0  0  0  0
  1 66  1  0  0  0  0
  2 16  2  0  0  0  0
 21  3  1  6  0  0  0
  3 27  1  0  0  0  0
  4 19  2  0  0  0  0
  5 24  2  0  0  0  0
  6 43  1  0  0  0  0
  6 50  1  0  0  0  0
  7 51  2  0  0  0  0
  8 13  1  0  0  0  0
  8 19  1  0  0  0  0
  8 56  1  0  0  0  0
  9 18  1  0  0  0  0
  9 22  1  0  0  0  0
  9 24  1  0  0  0  0
 25 10  1  1  0  0  0
 10 31  1  0  0  0  0
 10 69  1  0  0  0  0
 11 33  1  0  0  0  0
 11 34  2  0  0  0  0
 12 44  1  0  0  0  0
 12 51  1  0  0  0  0
 12 86  1  0  0  0  0
 13 14  1  0  0  0  0
 13 15  1  0  0  0  0
 13 16  1  0  0  0  0
 14 15  1  0  0  0  0
 14 17  1  1  0  0  0
 14 53  1  0  0  0  0
 15 54  1  0  0  0  0
 15 55  1  0  0  0  0
 17 23  2  0  0  0  0
 17 57  1  0  0  0  0
 18 19  1  1  0  0  0
 18 20  1  0  0  0  0
 18 58  1  0  0  0  0
 20 21  1  0  0  0  0
 20 59  1  0  0  0  0
 20 60  1  0  0  0  0
 21 22  1  0  0  0  0
 21 61  1  0  0  0  0
 22 62  1  0  0  0  0
 22 63  1  0  0  0  0
 23 64  1  0  0  0  0
 23 65  1  0  0  0  0
 24 25  1  0  0  0  0
 25 26  1  0  0  0  0
 25 67  1  0  0  0  0
 26 28  1  0  0  0  0
 26 29  1  0  0  0  0
 26 68  1  0  0  0  0
 27 30  1  0  0  0  0
 27 32  2  0  0  0  0
 28 70  1  0  0  0  0
 28 71  1  0  0  0  0
 28 72  1  0  0  0  0
 29 73  1  0  0  0  0
 29 74  1  0  0  0  0
 29 75  1  0  0  0  0
 30 33  2  0  0  0  0
 30 35  1  0  0  0  0
 31 36  2  0  0  0  0
 31 37  1  0  0  0  0
 32 34  1  0  0  0  0
 32 76  1  0  0  0  0
 33 38  1  0  0  0  0
 34 40  1  0  0  0  0
 35 39  2  0  0  0  0
 35 77  1  0  0  0  0
 36 41  1  0  0  0  0
 36 78  1  0  0  0  0
 37 42  2  0  0  0  0
 37 79  1  0  0  0  0
 38 43  2  0  0  0  0
 38 80  1  0  0  0  0
 39 43  1  0  0  0  0
 39 81  1  0  0  0  0
 40 45  2  0  0  0  0
 40 46  1  0  0  0  0
 41 44  2  0  0  0  0
 41 82  1  0  0  0  0
 42 44  1  0  0  0  0
 42 83  1  0  0  0  0
 45 47  1  0  0  0  0
 45 84  1  0  0  0  0
 46 48  2  0  0  0  0
 46 85  1  0  0  0  0
 47 49  2  0  0  0  0
 47 87  1  0  0  0  0
 48 49  1  0  0  0  0
 48 88  1  0  0  0  0
 49 89  1  0  0  0  0
 50 90  1  0  0  0  0
 50 91  1  0  0  0  0
 50 92  1  0  0  0  0
 51 52  1  0  0  0  0
 52 93  1  0  0  0  0
 52 94  1  0  0  0  0
 52 95  1  0  0  0  0
M  END
> <PUBCHEM_COMPOUND_CID>
500797
> <PUBCHEM_COMPOUND_CANONICALIZED>
1
> <PUBCHEM_CACTVS_COMPLEXITY>
1300
> <PUBCHEM_CACTVS_HBOND_ACCEPTOR>
9
> <PUBCHEM_CACTVS_HBOND_DONOR>
4
> <PUBCHEM_CACTVS_ROTATABLE_BOND>
13
> <PUBCHEM_CACTVS_SUBSKEYS>
AAADcfB/uAAAAAAAAAAAAAAAGAAAAWAAAAA8YMEAAAAAAACx9AAAHgAQCAAADbzhngYyzvPIFgCoAyXyXACCiCAhIiAImKG+bJgOZvLEsbuXeCjm1hnY6Ae68e8OIACAAgACAABAAQAEAAQAAAAAAAAAAA==
> <PUBCHEM_IUPAC_OPENEYE_NAME>
(2R)-1-[[(2S,4R)-1-[(2S)-2-(4-acetamidoanilino)-3-methyl-butanoyl]-4-[(7-methoxy-2-phenyl-4-quinolyl)oxy]pyrrolidine-2-carbonyl]amino]-2-vinyl-cyclopropanecarboxylic acid
> <PUBCHEM_IUPAC_CAS_NAME>
(2R)-1-[[[(2S,4R)-1-[(2S)-2-(4-acetamidoanilino)-3-methyl-1-oxobutyl]-4-[(7-methoxy-2-phenyl-4-quinolinyl)oxy]-2-pyrrolidinyl]-oxomethyl]amino]-2-ethenyl-1-cyclopropanecarboxylic acid
> <PUBCHEM_IUPAC_NAME_MARKUP>
(2<I>R</I>)-1-[[(2<I>S</I>,4<I>R</I>)-1-[(2<I>S</I>)-2-(4-acetamidoanilino)-3-methylbutanoyl]-4-(7-methoxy-2-phenylquinolin-4-yl)oxypyrrolidine-2-carbonyl]amino]-2-ethenylcyclopropane-1-carboxylic acid
> <PUBCHEM_IUPAC_NAME>
(2R)-1-[[(2S,4R)-1-[(2S)-2-(4-acetamidoanilino)-3-methylbutanoyl]-4-(7-methoxy-2-phenylquinolin-4-yl)oxypyrrolidine-2-carbonyl]amino]-2-ethenylcyclopropane-1-carboxylic acid
> <PUBCHEM_IUPAC_SYSTEMATIC_NAME>
(2R)-1-[[(2S,4R)-1-[(2S)-2-[(4-acetamidophenyl)amino]-3-methyl-butanoyl]-4-(7-methoxy-2-phenyl-quinolin-4-yl)oxy-pyrrolidin-2-yl]carbonylamino]-2-ethenyl-cyclopropane-1-carboxylic acid
> <PUBCHEM_IUPAC_TRADITIONAL_NAME>
(2R)-1-[[(2S,4R)-1-[(2S)-2-(4-acetamidoanilino)-3-methyl-butanoyl]-4-[(7-methoxy-2-phenyl-4-quinolyl)oxy]prolyl]amino]-2-vinyl-cyclopropanecarboxylic acid
> <PUBCHEM_IUPAC_INCHI>
InChI=1S/C40H43N5O7/c1-6-26-21-40(26,39(49)50)44-37(47)34-19-30(22-45(34)38(48)36(23(2)3)42-28-14-12-27(13-15-28)41-24(4)46)52-35-20-32(25-10-8-7-9-11-25)43-33-18-29(51-5)16-17-31(33)35/h6-18,20,23,26,30,34,36,42H,1,19,21-22H2,2-5H3,(H,41,46)(H,44,47)(H,49,50)/t26-,30+,34-,36-,40?/m0/s1
> <PUBCHEM_IUPAC_INCHIKEY>
NAUVJWCFUOVYLQ-PYSMEVJRSA-N
> <PUBCHEM_XLOGP3_AA>
5.6
> <PUBCHEM_EXACT_MASS>
705.31624873
> <PUBCHEM_MOLECULAR_FORMULA>
C40H43N5O7
> <PUBCHEM_MOLECULAR_WEIGHT>
705.8
> <PUBCHEM_OPENEYE_CAN_SMILES>
CC(C)C(C(=O)N1CC(CC1C(=O)NC2(CC2C=C)C(=O)O)OC3=CC(=NC4=C3C=CC(=C4)OC)C5=CC=CC=C5)NC6=CC=C(C=C6)NC(=O)C
> <PUBCHEM_OPENEYE_ISO_SMILES>
CC(C)[C@@H](C(=O)N1C[C@@H](C[C@H]1C(=O)NC2(C[C@@H]2C=C)C(=O)O)OC3=CC(=NC4=C3C=CC(=C4)OC)C5=CC=CC=C5)NC6=CC=C(C=C6)NC(=O)C
> <PUBCHEM_CACTVS_TPSA>
159
> <PUBCHEM_MONOISOTOPIC_WEIGHT>
705.31624873
> <PUBCHEM_TOTAL_CHARGE>
0
> <PUBCHEM_HEAVY_ATOM_COUNT>
52
> <PUBCHEM_ATOM_DEF_STEREO_COUNT>
4
> <PUBCHEM_ATOM_UDEF_STEREO_COUNT>
1
> <PUBCHEM_BOND_DEF_STEREO_COUNT>
0
> <PUBCHEM_BOND_UDEF_STEREO_COUNT>
0
> <PUBCHEM_ISOTOPIC_ATOM_COUNT>
0
> <PUBCHEM_COMPONENT_COUNT>
1
> <PUBCHEM_CACTVS_TAUTO_COUNT>
-1
> <PUBCHEM_COORDINATE_TYPE>
1
5
255
> <PUBCHEM_BONDANNOTATIONS>
25  10  5
11  33  8
11  34  8
13  16  3
14  17  5
18  19  5
27  30  8
27  32  8
21  3  6
30  33  8
30  35  8
31  36  8
31  37  8
32  34  8
33  38  8
35  39  8
36  41  8
37  42  8
38  43  8
39  43  8
40  45  8
40  46  8
41  44  8
42  44  8
45  47  8
46  48  8
47  49  8
48  49  8
$$$$
