500721
  -OEChem-10302200282D
102107  0     1  0  0  0  0  0999 V2000
    7.9287    4.7570    0.0000 O   0  0  0  0  0  0  0  0  0  0  0  0
    8.9467    3.3558    0.0000 O   0  0  0  0  0  0  0  0  0  0  0  0
    6.3981   -0.9235    0.0000 O   0  0  0  0  0  0  0  0  0  0  0  0
    9.0513    2.3612    0.0000 O   0  0  0  0  0  0  0  0  0  0  0  0
   10.2480   -1.1052    0.0000 O   0  0  0  0  0  0  0  0  0  0  0  0
   12.5819    1.0286    0.0000 O   0  0  0  0  0  0  0  0  0  0  0  0
   13.2864   -0.5537    0.0000 O   0  0  0  0  0  0  0  0  0  0  0  0
    2.8680   -3.9477    0.0000 O   0  0  0  0  0  0  0  0  0  0  0  0
    7.3287    2.1802    0.0000 N   0  0  0  0  0  0  0  0  0  0  0  0
    8.8468   -0.0871    0.0000 N   0  0  0  0  0  0  0  0  0  0  0  0
   11.5639   -0.3727    0.0000 N   0  0  0  0  0  0  0  0  0  0  0  0
    8.1301   -3.9235    0.0000 N   0  0  0  0  0  0  0  0  0  0  0  0
    6.3981   -3.9235    0.0000 N   0  0  0  0  0  0  0  0  0  0  0  0
    7.2242    3.1747    0.0000 C   0  0  3  0  0  0  0  0  0  0  0  0
    6.2296    3.0702    0.0000 C   0  0  2  0  0  0  0  0  0  0  0  0
    6.6364    3.9837    0.0000 C   0  0  0  0  0  0  0  0  0  0  0  0
    8.0332    3.7625    0.0000 C   0  0  0  0  0  0  0  0  0  0  0  0
    5.4206    2.4824    0.0000 C   0  0  0  0  0  0  0  0  0  0  0  0
    8.3468    0.7789    0.0000 C   0  0  2  0  0  0  0  0  0  0  0  0
    8.2422    1.7734    0.0000 C   0  0  0  0  0  0  0  0  0  0  0  0
    7.3686    0.5710    0.0000 C   0  0  0  0  0  0  0  0  0  0  0  0
    7.2641   -0.4235    0.0000 C   0  0  2  0  0  0  0  0  0  0  0  0
    8.1776   -0.8302    0.0000 C   0  0  0  0  0  0  0  0  0  0  0  0
    9.8413   -0.1916    0.0000 C   0  0  0  0  0  0  0  0  0  0  0  0
    4.5071    2.8891    0.0000 C   0  0  0  0  0  0  0  0  0  0  0  0
   10.7548    0.2151    0.0000 C   0  0  2  0  0  0  0  0  0  0  0  0
   10.8594    1.2096    0.0000 C   0  0  0  0  0  0  0  0  0  0  0  0
   10.9639    2.2042    0.0000 C   0  0  0  0  0  0  0  0  0  0  0  0
   11.8539    1.1051    0.0000 C   0  0  0  0  0  0  0  0  0  0  0  0
    9.8648    1.3142    0.0000 C   0  0  0  0  0  0  0  0  0  0  0  0
    6.3981   -1.9235    0.0000 C   0  0  0  0  0  0  0  0  0  0  0  0
    5.5320   -2.4235    0.0000 C   0  0  0  0  0  0  0  0  0  0  0  0
    7.2641   -2.4235    0.0000 C   0  0  0  0  0  0  0  0  0  0  0  0
   12.4774    0.0341    0.0000 C   0  0  0  0  0  0  0  0  0  0  0  0
    7.2641   -3.4235    0.0000 C   0  0  0  0  0  0  0  0  0  0  0  0
    5.5320   -3.4235    0.0000 C   0  0  0  0  0  0  0  0  0  0  0  0
    4.6381   -1.8888    0.0000 C   0  0  0  0  0  0  0  0  0  0  0  0
    8.2332   -4.9122    0.0000 C   0  0  0  0  0  0  0  0  0  0  0  0
   13.4955    1.4353    0.0000 C   0  0  0  0  0  0  0  0  0  0  0  0
    9.0379   -3.5184    0.0000 C   0  0  0  0  0  0  0  0  0  0  0  0
    9.2050   -5.1214    0.0000 C   0  0  0  0  0  0  0  0  0  0  0  0
    4.6381   -3.9582    0.0000 C   0  0  0  0  0  0  0  0  0  0  0  0
    9.7058   -4.2627    0.0000 C   0  0  0  0  0  0  0  0  0  0  0  0
    3.7320   -2.4027    0.0000 C   0  0  0  0  0  0  0  0  0  0  0  0
    3.7320   -3.4443    0.0000 C   0  0  0  0  0  0  0  0  0  0  0  0
   14.4090    1.8420    0.0000 C   0  0  0  0  0  0  0  0  0  0  0  0
   13.0887    2.3489    0.0000 C   0  0  0  0  0  0  0  0  0  0  0  0
   13.9022    0.5218    0.0000 C   0  0  0  0  0  0  0  0  0  0  0  0
    9.3486   -2.5679    0.0000 C   0  0  0  0  0  0  0  0  0  0  0  0
   10.6843   -4.0565    0.0000 C   0  0  0  0  0  0  0  0  0  0  0  0
   10.3271   -2.3617    0.0000 C   0  0  0  0  0  0  0  0  0  0  0  0
   10.9949   -3.1060    0.0000 C   0  0  0  0  0  0  0  0  0  0  0  0
    2.0000   -3.4510    0.0000 C   0  0  0  0  0  0  0  0  0  0  0  0
    6.4518    2.4914    0.0000 H   0  0  0  0  0  0  0  0  0  0  0  0
    7.0671    4.4297    0.0000 H   0  0  0  0  0  0  0  0  0  0  0  0
    6.1224    4.3304    0.0000 H   0  0  0  0  0  0  0  0  0  0  0  0
    6.8271    1.8158    0.0000 H   0  0  0  0  0  0  0  0  0  0  0  0
    5.4854    1.8658    0.0000 H   0  0  0  0  0  0  0  0  0  0  0  0
    8.9364    0.9705    0.0000 H   0  0  0  0  0  0  0  0  0  0  0  0
    7.3038    1.1876    0.0000 H   0  0  0  0  0  0  0  0  0  0  0  0
    6.7486    0.5710    0.0000 H   0  0  0  0  0  0  0  0  0  0  0  0
    6.7441   -0.0858    0.0000 H   0  0  0  0  0  0  0  0  0  0  0  0
    7.8676   -1.3672    0.0000 H   0  0  0  0  0  0  0  0  0  0  0  0
    8.6792   -1.1947    0.0000 H   0  0  0  0  0  0  0  0  0  0  0  0
    4.4423    3.5057    0.0000 H   0  0  0  0  0  0  0  0  0  0  0  0
    4.0055    2.5247    0.0000 H   0  0  0  0  0  0  0  0  0  0  0  0
   10.6900   -0.4015    0.0000 H   0  0  0  0  0  0  0  0  0  0  0  0
    8.4302    5.1214    0.0000 H   0  0  0  0  0  0  0  0  0  0  0  0
   11.4991   -0.9893    0.0000 H   0  0  0  0  0  0  0  0  0  0  0  0
   11.5805    2.1393    0.0000 H   0  0  0  0  0  0  0  0  0  0  0  0
   11.0287    2.8208    0.0000 H   0  0  0  0  0  0  0  0  0  0  0  0
   10.3473    2.2690    0.0000 H   0  0  0  0  0  0  0  0  0  0  0  0
   11.7891    0.4885    0.0000 H   0  0  0  0  0  0  0  0  0  0  0  0
   12.4705    1.0403    0.0000 H   0  0  0  0  0  0  0  0  0  0  0  0
   11.9187    1.7217    0.0000 H   0  0  0  0  0  0  0  0  0  0  0  0
    9.9297    1.9308    0.0000 H   0  0  0  0  0  0  0  0  0  0  0  0
    9.2482    1.3790    0.0000 H   0  0  0  0  0  0  0  0  0  0  0  0
    9.8000    0.6976    0.0000 H   0  0  0  0  0  0  0  0  0  0  0  0
    7.8010   -2.1135    0.0000 H   0  0  0  0  0  0  0  0  0  0  0  0
    4.6453   -1.2689    0.0000 H   0  0  0  0  0  0  0  0  0  0  0  0
    7.6132   -4.9113    0.0000 H   0  0  0  0  0  0  0  0  0  0  0  0
    8.1671   -5.5287    0.0000 H   0  0  0  0  0  0  0  0  0  0  0  0
    9.0115   -5.7105    0.0000 H   0  0  0  0  0  0  0  0  0  0  0  0
    9.7704   -5.3757    0.0000 H   0  0  0  0  0  0  0  0  0  0  0  0
    4.6453   -4.5781    0.0000 H   0  0  0  0  0  0  0  0  0  0  0  0
    3.1963   -2.0906    0.0000 H   0  0  0  0  0  0  0  0  0  0  0  0
    8.9345   -2.1064    0.0000 H   0  0  0  0  0  0  0  0  0  0  0  0
   14.6612    1.2756    0.0000 H   0  0  0  0  0  0  0  0  0  0  0  0
   14.9754    2.0942    0.0000 H   0  0  0  0  0  0  0  0  0  0  0  0
   14.1568    2.4085    0.0000 H   0  0  0  0  0  0  0  0  0  0  0  0
   13.6551    2.6010    0.0000 H   0  0  0  0  0  0  0  0  0  0  0  0
   12.8366    2.9153    0.0000 H   0  0  0  0  0  0  0  0  0  0  0  0
   12.5223    2.0967    0.0000 H   0  0  0  0  0  0  0  0  0  0  0  0
   13.3358    0.2696    0.0000 H   0  0  0  0  0  0  0  0  0  0  0  0
   14.1544   -0.0446    0.0000 H   0  0  0  0  0  0  0  0  0  0  0  0
   14.4686    0.7739    0.0000 H   0  0  0  0  0  0  0  0  0  0  0  0
   11.0983   -4.5180    0.0000 H   0  0  0  0  0  0  0  0  0  0  0  0
   10.5197   -1.7723    0.0000 H   0  0  0  0  0  0  0  0  0  0  0  0
   11.6016   -2.9781    0.0000 H   0  0  0  0  0  0  0  0  0  0  0  0
    2.3079   -2.9129    0.0000 H   0  0  0  0  0  0  0  0  0  0  0  0
    1.4619   -3.1431    0.0000 H   0  0  0  0  0  0  0  0  0  0  0  0
    1.6921   -3.9891    0.0000 H   0  0  0  0  0  0  0  0  0  0  0  0
  1 17  1  0  0  0  0
  1 68  1  0  0  0  0
  2 17  2  0  0  0  0
 22  3  1  6  0  0  0
  3 31  1  0  0  0  0
  4 20  2  0  0  0  0
  5 24  2  0  0  0  0
  6 34  1  0  0  0  0
  6 39  1  0  0  0  0
  7 34  2  0  0  0  0
  8 45  1  0  0  0  0
  8 53  1  0  0  0  0
  9 14  1  0  0  0  0
  9 20  1  0  0  0  0
  9 57  1  0  0  0  0
 10 19  1  0  0  0  0
 10 23  1  0  0  0  0
 10 24  1  0  0  0  0
 26 11  1  6  0  0  0
 11 34  1  0  0  0  0
 11 69  1  0  0  0  0
 12 35  1  0  0  0  0
 12 38  1  0  0  0  0
 12 40  1  0  0  0  0
 13 35  2  0  0  0  0
 13 36  1  0  0  0  0
 14 15  1  0  0  0  0
 14 16  1  0  0  0  0
 14 17  1  0  0  0  0
 15 16  1  0  0  0  0
 15 18  1  1  0  0  0
 15 54  1  0  0  0  0
 16 55  1  0  0  0  0
 16 56  1  0  0  0  0
 18 25  2  0  0  0  0
 18 58  1  0  0  0  0
 19 20  1  1  0  0  0
 19 21  1  0  0  0  0
 19 59  1  0  0  0  0
 21 22  1  0  0  0  0
 21 60  1  0  0  0  0
 21 61  1  0  0  0  0
 22 23  1  0  0  0  0
 22 62  1  0  0  0  0
 23 63  1  0  0  0  0
 23 64  1  0  0  0  0
 24 26  1  0  0  0  0
 25 65  1  0  0  0  0
 25 66  1  0  0  0  0
 26 27  1  0  0  0  0
 26 67  1  0  0  0  0
 27 28  1  0  0  0  0
 27 29  1  0  0  0  0
 27 30  1  0  0  0  0
 28 70  1  0  0  0  0
 28 71  1  0  0  0  0
 28 72  1  0  0  0  0
 29 73  1  0  0  0  0
 29 74  1  0  0  0  0
 29 75  1  0  0  0  0
 30 76  1  0  0  0  0
 30 77  1  0  0  0  0
 30 78  1  0  0  0  0
 31 32  1  0  0  0  0
 31 33  2  0  0  0  0
 32 36  2  0  0  0  0
 32 37  1  0  0  0  0
 33 35  1  0  0  0  0
 33 79  1  0  0  0  0
 36 42  1  0  0  0  0
 37 44  2  0  0  0  0
 37 80  1  0  0  0  0
 38 41  1  0  0  0  0
 38 81  1  0  0  0  0
 38 82  1  0  0  0  0
 39 46  1  0  0  0  0
 39 47  1  0  0  0  0
 39 48  1  0  0  0  0
 40 43  1  0  0  0  0
 40 49  2  0  0  0  0
 41 43  1  0  0  0  0
 41 83  1  0  0  0  0
 41 84  1  0  0  0  0
 42 45  2  0  0  0  0
 42 85  1  0  0  0  0
 43 50  2  0  0  0  0
 44 45  1  0  0  0  0
 44 86  1  0  0  0  0
 46 88  1  0  0  0  0
 46 89  1  0  0  0  0
 46 90  1  0  0  0  0
 47 91  1  0  0  0  0
 47 92  1  0  0  0  0
 47 93  1  0  0  0  0
 48 94  1  0  0  0  0
 48 95  1  0  0  0  0
 48 96  1  0  0  0  0
 49 51  1  0  0  0  0
 49 87  1  0  0  0  0
 50 52  1  0  0  0  0
 50 97  1  0  0  0  0
 51 52  2  0  0  0  0
 51 98  1  0  0  0  0
 52 99  1  0  0  0  0
 53100  1  0  0  0  0
 53101  1  0  0  0  0
 53102  1  0  0  0  0
M  END
> <PUBCHEM_COMPOUND_CID>
500721
> <PUBCHEM_COMPOUND_CANONICALIZED>
1
> <PUBCHEM_CACTVS_COMPLEXITY>
1400
> <PUBCHEM_CACTVS_HBOND_ACCEPTOR>
10
> <PUBCHEM_CACTVS_HBOND_DONOR>
3
> <PUBCHEM_CACTVS_ROTATABLE_BOND>
13
> <PUBCHEM_CACTVS_SUBSKEYS>
AAADcfB/vAAAAAAAAAAAAAAAGAAAAWLAAAA8YIAAAAAAAFix9AAAHgAQCAAAD/zhngYz/vPIFgCoAyfyfACCiCkhIiAJmKG+bJmOZvLEubufeCju1hvY6Ce68a8PIAAAAgACAABAAAAEAAQAAAAAAAAAAA==
> <PUBCHEM_IUPAC_OPENEYE_NAME>
(2R)-1-[[(2S,4R)-1-[(2S)-2-(tert-butoxycarbonylamino)-3,3-dimethyl-butanoyl]-4-[(2-indolin-1-yl-7-methoxy-4-quinolyl)oxy]pyrrolidine-2-carbonyl]amino]-2-vinyl-cyclopropanecarboxylic acid
> <PUBCHEM_IUPAC_CAS_NAME>
(2R)-1-[[[(2S,4R)-4-[[2-(2,3-dihydroindol-1-yl)-7-methoxy-4-quinolinyl]oxy]-1-[(2S)-3,3-dimethyl-2-[[(2-methylpropan-2-yl)oxy-oxomethyl]amino]-1-oxobutyl]-2-pyrrolidinyl]-oxomethyl]amino]-2-ethenyl-1-cyclopropanecarboxylic acid
> <PUBCHEM_IUPAC_NAME_MARKUP>
(2<I>R</I>)-1-[[(2<I>S</I>,4<I>R</I>)-4-[2-(2,3-dihydroindol-1-yl)-7-methoxyquinolin-4-yl]oxy-1-[(2<I>S</I>)-3,3-dimethyl-2-[(2-methylpropan-2-yl)oxycarbonylamino]butanoyl]pyrrolidine-2-carbonyl]amino]-2-ethenylcyclopropane-1-carboxylic acid
> <PUBCHEM_IUPAC_NAME>
(2R)-1-[[(2S,4R)-4-[2-(2,3-dihydroindol-1-yl)-7-methoxyquinolin-4-yl]oxy-1-[(2S)-3,3-dimethyl-2-[(2-methylpropan-2-yl)oxycarbonylamino]butanoyl]pyrrolidine-2-carbonyl]amino]-2-ethenylcyclopropane-1-carboxylic acid
> <PUBCHEM_IUPAC_SYSTEMATIC_NAME>
(2R)-1-[[(2S,4R)-4-[2-(2,3-dihydroindol-1-yl)-7-methoxy-quinolin-4-yl]oxy-1-[(2S)-3,3-dimethyl-2-[(2-methylpropan-2-yl)oxycarbonylamino]butanoyl]pyrrolidin-2-yl]carbonylamino]-2-ethenyl-cyclopropane-1-carboxylic acid
> <PUBCHEM_IUPAC_TRADITIONAL_NAME>
(2R)-1-[[(2S,4R)-1-[(2S)-2-(tert-butoxycarbonylamino)-3,3-dimethyl-butanoyl]-4-[(2-indolin-1-yl-7-methoxy-4-quinolyl)oxy]prolyl]amino]-2-vinyl-cyclopropanecarboxylic acid
> <PUBCHEM_IUPAC_INCHI>
InChI=1S/C40H49N5O8/c1-9-24-21-40(24,36(48)49)43-34(46)30-19-26(22-45(30)35(47)33(38(2,3)4)42-37(50)53-39(5,6)7)52-31-20-32(41-28-18-25(51-8)14-15-27(28)31)44-17-16-23-12-10-11-13-29(23)44/h9-15,18,20,24,26,30,33H,1,16-17,19,21-22H2,2-8H3,(H,42,50)(H,43,46)(H,48,49)/t24-,26+,30-,33+,40?/m0/s1
> <PUBCHEM_IUPAC_INCHIKEY>
YOZDJBKQXJWWPI-ZSKWBSSVSA-N
> <PUBCHEM_XLOGP3_AA>
6.2
> <PUBCHEM_EXACT_MASS>
727.35811354
> <PUBCHEM_MOLECULAR_FORMULA>
C40H49N5O8
> <PUBCHEM_MOLECULAR_WEIGHT>
727.8
> <PUBCHEM_OPENEYE_CAN_SMILES>
CC(C)(C)C(C(=O)N1CC(CC1C(=O)NC2(CC2C=C)C(=O)O)OC3=CC(=NC4=C3C=CC(=C4)OC)N5CCC6=CC=CC=C65)NC(=O)OC(C)(C)C
> <PUBCHEM_OPENEYE_ISO_SMILES>
CC(C)(C)[C@@H](C(=O)N1C[C@@H](C[C@H]1C(=O)NC2(C[C@@H]2C=C)C(=O)O)OC3=CC(=NC4=C3C=CC(=C4)OC)N5CCC6=CC=CC=C65)NC(=O)OC(C)(C)C
> <PUBCHEM_CACTVS_TPSA>
160
> <PUBCHEM_MONOISOTOPIC_WEIGHT>
727.35811354
> <PUBCHEM_TOTAL_CHARGE>
0
> <PUBCHEM_HEAVY_ATOM_COUNT>
53
> <PUBCHEM_ATOM_DEF_STEREO_COUNT>
4
> <PUBCHEM_ATOM_UDEF_STEREO_COUNT>
1
> <PUBCHEM_BOND_DEF_STEREO_COUNT>
0
> <PUBCHEM_BOND_UDEF_STEREO_COUNT>
0
> <PUBCHEM_ISOTOPIC_ATOM_COUNT>
0
> <PUBCHEM_COMPONENT_COUNT>
1
> <PUBCHEM_CACTVS_TAUTO_COUNT>
-1
> <PUBCHEM_COORDINATE_TYPE>
1
5
255
> <PUBCHEM_BONDANNOTATIONS>
26  11  6
13  35  8
13  36  8
14  17  3
15  18  5
19  20  5
22  3  6
31  32  8
31  33  8
32  36  8
32  37  8
33  35  8
36  42  8
37  44  8
40  43  8
40  49  8
42  45  8
43  50  8
44  45  8
49  51  8
50  52  8
51  52  8
$$$$
