500736
  -OEChem-10302200282D
 99103  0     1  0  0  0  0  0999 V2000
    9.2128   -4.7477    0.0000 S   0  0  0  0  0  0  0  0  0  0  0  0
    7.9287    5.1353    0.0000 O   0  0  0  0  0  0  0  0  0  0  0  0
    8.9467    3.7340    0.0000 O   0  0  0  0  0  0  0  0  0  0  0  0
    6.3981   -0.5453    0.0000 O   0  0  0  0  0  0  0  0  0  0  0  0
    9.0513    2.7395    0.0000 O   0  0  0  0  0  0  0  0  0  0  0  0
   10.2480   -0.7269    0.0000 O   0  0  0  0  0  0  0  0  0  0  0  0
   12.5819    1.4068    0.0000 O   0  0  0  0  0  0  0  0  0  0  0  0
   13.2864   -0.1755    0.0000 O   0  0  0  0  0  0  0  0  0  0  0  0
    2.8680   -3.5694    0.0000 O   0  0  0  0  0  0  0  0  0  0  0  0
   10.8884   -5.4997    0.0000 O   0  0  0  0  0  0  0  0  0  0  0  0
    7.3287    2.5584    0.0000 N   0  0  0  0  0  0  0  0  0  0  0  0
    8.8468    0.2912    0.0000 N   0  0  0  0  0  0  0  0  0  0  0  0
   11.5639    0.0056    0.0000 N   0  0  0  0  0  0  0  0  0  0  0  0
    6.3981   -3.5452    0.0000 N   0  0  0  0  0  0  0  0  0  0  0  0
    9.0437   -3.1385    0.0000 N   0  0  0  0  0  0  0  0  0  0  0  0
   10.7073   -3.7771    0.0000 N   0  0  0  0  0  0  0  0  0  0  0  0
    7.2242    3.5530    0.0000 C   0  0  3  0  0  0  0  0  0  0  0  0
    6.2296    3.4484    0.0000 C   0  0  2  0  0  0  0  0  0  0  0  0
    6.6364    4.3620    0.0000 C   0  0  0  0  0  0  0  0  0  0  0  0
    8.0332    4.1408    0.0000 C   0  0  0  0  0  0  0  0  0  0  0  0
    5.4206    2.8606    0.0000 C   0  0  0  0  0  0  0  0  0  0  0  0
    8.3468    1.1572    0.0000 C   0  0  2  0  0  0  0  0  0  0  0  0
    8.2422    2.1517    0.0000 C   0  0  0  0  0  0  0  0  0  0  0  0
    7.3686    0.9493    0.0000 C   0  0  0  0  0  0  0  0  0  0  0  0
    7.2641   -0.0453    0.0000 C   0  0  2  0  0  0  0  0  0  0  0  0
    8.1776   -0.4520    0.0000 C   0  0  0  0  0  0  0  0  0  0  0  0
    9.8413    0.1866    0.0000 C   0  0  0  0  0  0  0  0  0  0  0  0
    4.5071    3.2674    0.0000 C   0  0  0  0  0  0  0  0  0  0  0  0
   10.7548    0.5934    0.0000 C   0  0  2  0  0  0  0  0  0  0  0  0
   10.8594    1.5879    0.0000 C   0  0  0  0  0  0  0  0  0  0  0  0
   10.9639    2.5824    0.0000 C   0  0  0  0  0  0  0  0  0  0  0  0
   11.8539    1.4834    0.0000 C   0  0  0  0  0  0  0  0  0  0  0  0
    9.8648    1.6924    0.0000 C   0  0  0  0  0  0  0  0  0  0  0  0
    6.3981   -1.5452    0.0000 C   0  0  0  0  0  0  0  0  0  0  0  0
   12.4774    0.4123    0.0000 C   0  0  0  0  0  0  0  0  0  0  0  0
    5.5320   -2.0452    0.0000 C   0  0  0  0  0  0  0  0  0  0  0  0
    7.2641   -2.0452    0.0000 C   0  0  0  0  0  0  0  0  0  0  0  0
    5.5320   -3.0452    0.0000 C   0  0  0  0  0  0  0  0  0  0  0  0
    7.2641   -3.0452    0.0000 C   0  0  0  0  0  0  0  0  0  0  0  0
    4.6381   -1.5106    0.0000 C   0  0  0  0  0  0  0  0  0  0  0  0
   13.4955    1.8136    0.0000 C   0  0  0  0  0  0  0  0  0  0  0  0
    4.6381   -3.5799    0.0000 C   0  0  0  0  0  0  0  0  0  0  0  0
    3.7320   -2.0244    0.0000 C   0  0  0  0  0  0  0  0  0  0  0  0
    8.1301   -3.5452    0.0000 C   0  0  0  0  0  0  0  0  0  0  0  0
    3.7320   -3.0661    0.0000 C   0  0  0  0  0  0  0  0  0  0  0  0
   14.4090    2.2203    0.0000 C   0  0  0  0  0  0  0  0  0  0  0  0
   13.0887    2.7271    0.0000 C   0  0  0  0  0  0  0  0  0  0  0  0
   13.9022    0.9000    0.0000 C   0  0  0  0  0  0  0  0  0  0  0  0
    8.2346   -4.5398    0.0000 C   0  0  0  0  0  0  0  0  0  0  0  0
    9.7128   -3.8817    0.0000 C   0  0  0  0  0  0  0  0  0  0  0  0
    2.0000   -3.0727    0.0000 C   0  0  0  0  0  0  0  0  0  0  0  0
   11.2951   -4.5862    0.0000 C   0  0  0  0  0  0  0  0  0  0  0  0
   12.2896   -4.4816    0.0000 C   0  0  0  0  0  0  0  0  0  0  0  0
    6.4518    2.8696    0.0000 H   0  0  0  0  0  0  0  0  0  0  0  0
    7.0671    4.8080    0.0000 H   0  0  0  0  0  0  0  0  0  0  0  0
    6.1224    4.7087    0.0000 H   0  0  0  0  0  0  0  0  0  0  0  0
    6.8271    2.1940    0.0000 H   0  0  0  0  0  0  0  0  0  0  0  0
    5.4854    2.2440    0.0000 H   0  0  0  0  0  0  0  0  0  0  0  0
    8.9364    1.3488    0.0000 H   0  0  0  0  0  0  0  0  0  0  0  0
    7.3038    1.5659    0.0000 H   0  0  0  0  0  0  0  0  0  0  0  0
    6.7486    0.9493    0.0000 H   0  0  0  0  0  0  0  0  0  0  0  0
    6.7441    0.2924    0.0000 H   0  0  0  0  0  0  0  0  0  0  0  0
    7.8676   -0.9889    0.0000 H   0  0  0  0  0  0  0  0  0  0  0  0
    8.6792   -0.8164    0.0000 H   0  0  0  0  0  0  0  0  0  0  0  0
    4.4423    3.8840    0.0000 H   0  0  0  0  0  0  0  0  0  0  0  0
    4.0055    2.9030    0.0000 H   0  0  0  0  0  0  0  0  0  0  0  0
   10.6900   -0.0232    0.0000 H   0  0  0  0  0  0  0  0  0  0  0  0
    8.4302    5.4997    0.0000 H   0  0  0  0  0  0  0  0  0  0  0  0
   11.4991   -0.6110    0.0000 H   0  0  0  0  0  0  0  0  0  0  0  0
   11.5805    2.5176    0.0000 H   0  0  0  0  0  0  0  0  0  0  0  0
   11.0287    3.1990    0.0000 H   0  0  0  0  0  0  0  0  0  0  0  0
   10.3473    2.6472    0.0000 H   0  0  0  0  0  0  0  0  0  0  0  0
   11.7891    0.8668    0.0000 H   0  0  0  0  0  0  0  0  0  0  0  0
   12.4705    1.4186    0.0000 H   0  0  0  0  0  0  0  0  0  0  0  0
   11.9187    2.1000    0.0000 H   0  0  0  0  0  0  0  0  0  0  0  0
    9.9297    2.3090    0.0000 H   0  0  0  0  0  0  0  0  0  0  0  0
    9.2482    1.7572    0.0000 H   0  0  0  0  0  0  0  0  0  0  0  0
    9.8000    1.0758    0.0000 H   0  0  0  0  0  0  0  0  0  0  0  0
    7.8010   -1.7352    0.0000 H   0  0  0  0  0  0  0  0  0  0  0  0
    4.6453   -0.8906    0.0000 H   0  0  0  0  0  0  0  0  0  0  0  0
    4.6453   -4.1999    0.0000 H   0  0  0  0  0  0  0  0  0  0  0  0
    3.1963   -1.7124    0.0000 H   0  0  0  0  0  0  0  0  0  0  0  0
   14.6612    1.6539    0.0000 H   0  0  0  0  0  0  0  0  0  0  0  0
   14.9754    2.4725    0.0000 H   0  0  0  0  0  0  0  0  0  0  0  0
   14.1568    2.7867    0.0000 H   0  0  0  0  0  0  0  0  0  0  0  0
   13.6551    2.9793    0.0000 H   0  0  0  0  0  0  0  0  0  0  0  0
   12.8366    3.2935    0.0000 H   0  0  0  0  0  0  0  0  0  0  0  0
   12.5223    2.4749    0.0000 H   0  0  0  0  0  0  0  0  0  0  0  0
   13.3358    0.6479    0.0000 H   0  0  0  0  0  0  0  0  0  0  0  0
   14.1544    0.3336    0.0000 H   0  0  0  0  0  0  0  0  0  0  0  0
   14.4686    1.1522    0.0000 H   0  0  0  0  0  0  0  0  0  0  0  0
    7.7739   -4.9546    0.0000 H   0  0  0  0  0  0  0  0  0  0  0  0
    2.3079   -2.5346    0.0000 H   0  0  0  0  0  0  0  0  0  0  0  0
    1.4619   -2.7648    0.0000 H   0  0  0  0  0  0  0  0  0  0  0  0
    1.6921   -3.6109    0.0000 H   0  0  0  0  0  0  0  0  0  0  0  0
   10.9595   -3.2107    0.0000 H   0  0  0  0  0  0  0  0  0  0  0  0
   12.3544   -5.0982    0.0000 H   0  0  0  0  0  0  0  0  0  0  0  0
   12.9062   -4.4168    0.0000 H   0  0  0  0  0  0  0  0  0  0  0  0
   12.2248   -3.8650    0.0000 H   0  0  0  0  0  0  0  0  0  0  0  0
  1 49  1  0  0  0  0
  1 50  1  0  0  0  0
  2 20  1  0  0  0  0
  2 68  1  0  0  0  0
  3 20  2  0  0  0  0
 25  4  1  6  0  0  0
  4 34  1  0  0  0  0
  5 23  2  0  0  0  0
  6 27  2  0  0  0  0
  7 35  1  0  0  0  0
  7 41  1  0  0  0  0
  8 35  2  0  0  0  0
  9 45  1  0  0  0  0
  9 51  1  0  0  0  0
 10 52  2  0  0  0  0
 11 17  1  0  0  0  0
 11 23  1  0  0  0  0
 11 57  1  0  0  0  0
 12 22  1  0  0  0  0
 12 26  1  0  0  0  0
 12 27  1  0  0  0  0
 29 13  1  6  0  0  0
 13 35  1  0  0  0  0
 13 69  1  0  0  0  0
 14 38  1  0  0  0  0
 14 39  2  0  0  0  0
 15 44  1  0  0  0  0
 15 50  2  0  0  0  0
 16 50  1  0  0  0  0
 16 52  1  0  0  0  0
 16 96  1  0  0  0  0
 17 18  1  0  0  0  0
 17 19  1  0  0  0  0
 17 20  1  0  0  0  0
 18 19  1  0  0  0  0
 18 21  1  1  0  0  0
 18 54  1  0  0  0  0
 19 55  1  0  0  0  0
 19 56  1  0  0  0  0
 21 28  2  0  0  0  0
 21 58  1  0  0  0  0
 22 23  1  1  0  0  0
 22 24  1  0  0  0  0
 22 59  1  0  0  0  0
 24 25  1  0  0  0  0
 24 60  1  0  0  0  0
 24 61  1  0  0  0  0
 25 26  1  0  0  0  0
 25 62  1  0  0  0  0
 26 63  1  0  0  0  0
 26 64  1  0  0  0  0
 27 29  1  0  0  0  0
 28 65  1  0  0  0  0
 28 66  1  0  0  0  0
 29 30  1  0  0  0  0
 29 67  1  0  0  0  0
 30 31  1  0  0  0  0
 30 32  1  0  0  0  0
 30 33  1  0  0  0  0
 31 70  1  0  0  0  0
 31 71  1  0  0  0  0
 31 72  1  0  0  0  0
 32 73  1  0  0  0  0
 32 74  1  0  0  0  0
 32 75  1  0  0  0  0
 33 76  1  0  0  0  0
 33 77  1  0  0  0  0
 33 78  1  0  0  0  0
 34 36  1  0  0  0  0
 34 37  2  0  0  0  0
 36 38  2  0  0  0  0
 36 40  1  0  0  0  0
 37 39  1  0  0  0  0
 37 79  1  0  0  0  0
 38 42  1  0  0  0  0
 39 44  1  0  0  0  0
 40 43  2  0  0  0  0
 40 80  1  0  0  0  0
 41 46  1  0  0  0  0
 41 47  1  0  0  0  0
 41 48  1  0  0  0  0
 42 45  2  0  0  0  0
 42 81  1  0  0  0  0
 43 45  1  0  0  0  0
 43 82  1  0  0  0  0
 44 49  2  0  0  0  0
 46 83  1  0  0  0  0
 46 84  1  0  0  0  0
 46 85  1  0  0  0  0
 47 86  1  0  0  0  0
 47 87  1  0  0  0  0
 47 88  1  0  0  0  0
 48 89  1  0  0  0  0
 48 90  1  0  0  0  0
 48 91  1  0  0  0  0
 49 92  1  0  0  0  0
 51 93  1  0  0  0  0
 51 94  1  0  0  0  0
 51 95  1  0  0  0  0
 52 53  1  0  0  0  0
 53 97  1  0  0  0  0
 53 98  1  0  0  0  0
 53 99  1  0  0  0  0
M  END
> <PUBCHEM_COMPOUND_CID>
500736
> <PUBCHEM_COMPOUND_CANONICALIZED>
1
> <PUBCHEM_CACTVS_COMPLEXITY>
1420
> <PUBCHEM_CACTVS_HBOND_ACCEPTOR>
12
> <PUBCHEM_CACTVS_HBOND_DONOR>
4
> <PUBCHEM_CACTVS_ROTATABLE_BOND>
14
> <PUBCHEM_CACTVS_SUBSKEYS>
AAADcfB/vABAAAAAAAAAAAAAGAAAAWLAAAA8QAAAAAAAAACx/AAAHgQQCAAAD/zl3gaz3/PIFgisAyXyfACC+KlhKjkJmLW+bJmOZvLkubufeCju1xvY6Ce68e8PIAAAAgACAABAAAAEAAQAAAAAAAAAAA==
> <PUBCHEM_IUPAC_OPENEYE_NAME>
(2R)-1-[[(2S,4R)-4-[[2-(2-acetamidothiazol-4-yl)-7-methoxy-4-quinolyl]oxy]-1-[(2S)-2-(tert-butoxycarbonylamino)-3,3-dimethyl-butanoyl]pyrrolidine-2-carbonyl]amino]-2-vinyl-cyclopropanecarboxylic acid
> <PUBCHEM_IUPAC_CAS_NAME>
(2R)-1-[[[(2S,4R)-4-[[2-(2-acetamido-4-thiazolyl)-7-methoxy-4-quinolinyl]oxy]-1-[(2S)-3,3-dimethyl-2-[[(2-methylpropan-2-yl)oxy-oxomethyl]amino]-1-oxobutyl]-2-pyrrolidinyl]-oxomethyl]amino]-2-ethenyl-1-cyclopropanecarboxylic acid
> <PUBCHEM_IUPAC_NAME_MARKUP>
(2<I>R</I>)-1-[[(2<I>S</I>,4<I>R</I>)-4-[2-(2-acetamido-1,3-thiazol-4-yl)-7-methoxyquinolin-4-yl]oxy-1-[(2<I>S</I>)-3,3-dimethyl-2-[(2-methylpropan-2-yl)oxycarbonylamino]butanoyl]pyrrolidine-2-carbonyl]amino]-2-ethenylcyclopropane-1-carboxylic acid
> <PUBCHEM_IUPAC_NAME>
(2R)-1-[[(2S,4R)-4-[2-(2-acetamido-1,3-thiazol-4-yl)-7-methoxyquinolin-4-yl]oxy-1-[(2S)-3,3-dimethyl-2-[(2-methylpropan-2-yl)oxycarbonylamino]butanoyl]pyrrolidine-2-carbonyl]amino]-2-ethenylcyclopropane-1-carboxylic acid
> <PUBCHEM_IUPAC_SYSTEMATIC_NAME>
(2R)-1-[[(2S,4R)-4-[2-(2-acetamido-1,3-thiazol-4-yl)-7-methoxy-quinolin-4-yl]oxy-1-[(2S)-3,3-dimethyl-2-[(2-methylpropan-2-yl)oxycarbonylamino]butanoyl]pyrrolidin-2-yl]carbonylamino]-2-ethenyl-cyclopropane-1-carboxylic acid
> <PUBCHEM_IUPAC_TRADITIONAL_NAME>
(2R)-1-[[(2S,4R)-4-[[2-(2-acetamidothiazol-4-yl)-7-methoxy-4-quinolyl]oxy]-1-[(2S)-2-(tert-butoxycarbonylamino)-3,3-dimethyl-butanoyl]prolyl]amino]-2-vinyl-cyclopropanecarboxylic acid
> <PUBCHEM_IUPAC_INCHI>
InChI=1S/C37H46N6O9S/c1-10-20-16-37(20,32(47)48)42-30(45)27-14-22(17-43(27)31(46)29(35(3,4)5)41-34(49)52-36(6,7)8)51-28-15-25(26-18-53-33(40-26)38-19(2)44)39-24-13-21(50-9)11-12-23(24)28/h10-13,15,18,20,22,27,29H,1,14,16-17H2,2-9H3,(H,41,49)(H,42,45)(H,47,48)(H,38,40,44)/t20-,22+,27-,29+,37?/m0/s1
> <PUBCHEM_IUPAC_INCHIKEY>
YZWLYNHOLOBYER-ZXCHLXFJSA-N
> <PUBCHEM_XLOGP3_AA>
4.4
> <PUBCHEM_EXACT_MASS>
750.30469824
> <PUBCHEM_MOLECULAR_FORMULA>
C37H46N6O9S
> <PUBCHEM_MOLECULAR_WEIGHT>
750.9
> <PUBCHEM_OPENEYE_CAN_SMILES>
CC(=O)NC1=NC(=CS1)C2=NC3=C(C=CC(=C3)OC)C(=C2)OC4CC(N(C4)C(=O)C(C(C)(C)C)NC(=O)OC(C)(C)C)C(=O)NC5(CC5C=C)C(=O)O
> <PUBCHEM_OPENEYE_ISO_SMILES>
CC(=O)NC1=NC(=CS1)C2=NC3=C(C=CC(=C3)OC)C(=C2)O[C@@H]4C[C@H](N(C4)C(=O)[C@H](C(C)(C)C)NC(=O)OC(C)(C)C)C(=O)NC5(C[C@@H]5C=C)C(=O)O
> <PUBCHEM_CACTVS_TPSA>
227
> <PUBCHEM_MONOISOTOPIC_WEIGHT>
750.30469824
> <PUBCHEM_TOTAL_CHARGE>
0
> <PUBCHEM_HEAVY_ATOM_COUNT>
53
> <PUBCHEM_ATOM_DEF_STEREO_COUNT>
4
> <PUBCHEM_ATOM_UDEF_STEREO_COUNT>
1
> <PUBCHEM_BOND_DEF_STEREO_COUNT>
0
> <PUBCHEM_BOND_UDEF_STEREO_COUNT>
0
> <PUBCHEM_ISOTOPIC_ATOM_COUNT>
0
> <PUBCHEM_COMPONENT_COUNT>
1
> <PUBCHEM_CACTVS_TAUTO_COUNT>
-1
> <PUBCHEM_COORDINATE_TYPE>
1
5
255
> <PUBCHEM_BONDANNOTATIONS>
1  49  8
1  50  8
29  13  6
14  38  8
14  39  8
15  44  8
15  50  8
17  20  3
18  21  5
22  23  5
34  36  8
34  37  8
36  38  8
36  40  8
37  39  8
38  42  8
25  4  6
40  43  8
42  45  8
43  45  8
44  49  8
$$$$
