500790
  -OEChem-10302200282D
 92 97  0     1  0  0  0  0  0999 V2000
    9.9737    4.9866    0.0000 O   0  0  0  0  0  0  0  0  0  0  0  0
   10.1548    3.2640    0.0000 O   0  0  0  0  0  0  0  0  0  0  0  0
    6.3981   -0.3700    0.0000 O   0  0  0  0  0  0  0  0  0  0  0  0
    9.7480    2.3505    0.0000 O   0  0  0  0  0  0  0  0  0  0  0  0
   10.4291    1.1708    0.0000 O   0  0  0  0  0  0  0  0  0  0  0  0
    2.8680   -3.3942    0.0000 O   0  0  0  0  0  0  0  0  0  0  0  0
   11.2872   -5.0149    0.0000 O   0  0  0  0  0  0  0  0  0  0  0  0
    8.1657    3.0550    0.0000 N   0  0  0  0  0  0  0  0  0  0  0  0
    8.8468    0.4664    0.0000 N   0  0  0  0  0  0  0  0  0  0  0  0
   11.2426   -0.6562    0.0000 N   0  0  0  0  0  0  0  0  0  0  0  0
    6.3981   -3.3700    0.0000 N   0  0  0  0  0  0  0  0  0  0  0  0
    8.5725    3.9685    0.0000 C   0  0  3  0  0  0  0  0  0  0  0  0
    7.6589    4.3752    0.0000 C   0  0  2  0  0  0  0  0  0  0  0  0
    8.4679    4.9630    0.0000 C   0  0  0  0  0  0  0  0  0  0  0  0
    9.5670    4.0730    0.0000 C   0  0  0  0  0  0  0  0  0  0  0  0
    6.6644    4.2707    0.0000 C   0  0  0  0  0  0  0  0  0  0  0  0
    8.3468    1.3324    0.0000 C   0  0  2  0  0  0  0  0  0  0  0  0
    8.7535    2.2459    0.0000 C   0  0  0  0  0  0  0  0  0  0  0  0
    7.3686    1.1245    0.0000 C   0  0  0  0  0  0  0  0  0  0  0  0
    7.2641    0.1300    0.0000 C   0  0  2  0  0  0  0  0  0  0  0  0
    8.1776   -0.2768    0.0000 C   0  0  0  0  0  0  0  0  0  0  0  0
    6.0766    5.0797    0.0000 C   0  0  0  0  0  0  0  0  0  0  0  0
    9.8413    0.3618    0.0000 C   0  0  0  0  0  0  0  0  0  0  0  0
   10.2480   -0.5517    0.0000 C   0  0  2  0  0  0  0  0  0  0  0  0
    9.6602   -1.3607    0.0000 C   0  0  0  0  0  0  0  0  0  0  0  0
    6.3981   -1.3700    0.0000 C   0  0  0  0  0  0  0  0  0  0  0  0
    8.6657   -1.2562    0.0000 C   0  0  0  0  0  0  0  0  0  0  0  0
   10.0670   -2.2743    0.0000 C   0  0  0  0  0  0  0  0  0  0  0  0
    5.5320   -1.8700    0.0000 C   0  0  0  0  0  0  0  0  0  0  0  0
   11.6493   -1.5698    0.0000 C   0  0  0  0  0  0  0  0  0  0  0  0
    7.2641   -1.8700    0.0000 C   0  0  0  0  0  0  0  0  0  0  0  0
    5.5320   -2.8700    0.0000 C   0  0  0  0  0  0  0  0  0  0  0  0
    7.2641   -2.8700    0.0000 C   0  0  0  0  0  0  0  0  0  0  0  0
    4.6381   -1.3354    0.0000 C   0  0  0  0  0  0  0  0  0  0  0  0
   11.0615   -2.3788    0.0000 C   0  0  0  0  0  0  0  0  0  0  0  0
   12.6438   -1.6743    0.0000 C   0  0  0  0  0  0  0  0  0  0  0  0
    4.6381   -3.4047    0.0000 C   0  0  0  0  0  0  0  0  0  0  0  0
   11.4682   -3.2924    0.0000 C   0  0  0  0  0  0  0  0  0  0  0  0
    3.7320   -1.8492    0.0000 C   0  0  0  0  0  0  0  0  0  0  0  0
    8.1301   -3.3700    0.0000 C   0  0  0  0  0  0  0  0  0  0  0  0
   13.0505   -2.5879    0.0000 C   0  0  0  0  0  0  0  0  0  0  0  0
    3.7320   -2.8909    0.0000 C   0  0  0  0  0  0  0  0  0  0  0  0
   12.4628   -3.3969    0.0000 C   0  0  0  0  0  0  0  0  0  0  0  0
   10.8805   -4.1014    0.0000 C   0  0  0  0  0  0  0  0  0  0  0  0
    8.9962   -2.8700    0.0000 C   0  0  0  0  0  0  0  0  0  0  0  0
    8.1301   -4.3700    0.0000 C   0  0  0  0  0  0  0  0  0  0  0  0
    9.8622   -3.3700    0.0000 C   0  0  0  0  0  0  0  0  0  0  0  0
    8.9962   -4.8700    0.0000 C   0  0  0  0  0  0  0  0  0  0  0  0
    9.8622   -4.3700    0.0000 C   0  0  0  0  0  0  0  0  0  0  0  0
    2.0000   -2.8975    0.0000 C   0  0  0  0  0  0  0  0  0  0  0  0
    7.4367    4.9540    0.0000 H   0  0  0  0  0  0  0  0  0  0  0  0
    9.0639    5.1339    0.0000 H   0  0  0  0  0  0  0  0  0  0  0  0
    8.1961    5.5203    0.0000 H   0  0  0  0  0  0  0  0  0  0  0  0
    7.5491    2.9901    0.0000 H   0  0  0  0  0  0  0  0  0  0  0  0
    6.4122    3.7043    0.0000 H   0  0  0  0  0  0  0  0  0  0  0  0
    8.9659    1.3648    0.0000 H   0  0  0  0  0  0  0  0  0  0  0  0
    7.3038    1.7411    0.0000 H   0  0  0  0  0  0  0  0  0  0  0  0
    6.7486    1.1245    0.0000 H   0  0  0  0  0  0  0  0  0  0  0  0
    6.7441    0.4676    0.0000 H   0  0  0  0  0  0  0  0  0  0  0  0
    7.8676   -0.8137    0.0000 H   0  0  0  0  0  0  0  0  0  0  0  0
    8.6792   -0.6412    0.0000 H   0  0  0  0  0  0  0  0  0  0  0  0
    6.3288    5.6461    0.0000 H   0  0  0  0  0  0  0  0  0  0  0  0
    5.4600    5.0149    0.0000 H   0  0  0  0  0  0  0  0  0  0  0  0
   10.5903    5.0514    0.0000 H   0  0  0  0  0  0  0  0  0  0  0  0
   10.6125   -0.0501    0.0000 H   0  0  0  0  0  0  0  0  0  0  0  0
    9.4081   -0.7943    0.0000 H   0  0  0  0  0  0  0  0  0  0  0  0
   11.6070   -0.1547    0.0000 H   0  0  0  0  0  0  0  0  0  0  0  0
    8.7305   -0.6396    0.0000 H   0  0  0  0  0  0  0  0  0  0  0  0
    8.0491   -1.1914    0.0000 H   0  0  0  0  0  0  0  0  0  0  0  0
    8.6009   -1.8728    0.0000 H   0  0  0  0  0  0  0  0  0  0  0  0
    9.5006   -2.5264    0.0000 H   0  0  0  0  0  0  0  0  0  0  0  0
   10.3192   -2.8407    0.0000 H   0  0  0  0  0  0  0  0  0  0  0  0
   10.6334   -2.0221    0.0000 H   0  0  0  0  0  0  0  0  0  0  0  0
    7.8010   -1.5600    0.0000 H   0  0  0  0  0  0  0  0  0  0  0  0
    4.6453   -0.7154    0.0000 H   0  0  0  0  0  0  0  0  0  0  0  0
   10.4449   -2.3140    0.0000 H   0  0  0  0  0  0  0  0  0  0  0  0
   13.0082   -1.1727    0.0000 H   0  0  0  0  0  0  0  0  0  0  0  0
    4.6453   -4.0247    0.0000 H   0  0  0  0  0  0  0  0  0  0  0  0
    3.1963   -1.5372    0.0000 H   0  0  0  0  0  0  0  0  0  0  0  0
   13.6672   -2.6527    0.0000 H   0  0  0  0  0  0  0  0  0  0  0  0
   12.7149   -3.9633    0.0000 H   0  0  0  0  0  0  0  0  0  0  0  0
   10.4498   -3.6554    0.0000 H   0  0  0  0  0  0  0  0  0  0  0  0
   10.3665   -4.4481    0.0000 H   0  0  0  0  0  0  0  0  0  0  0  0
    8.9962   -2.2500    0.0000 H   0  0  0  0  0  0  0  0  0  0  0  0
    7.5932   -4.6800    0.0000 H   0  0  0  0  0  0  0  0  0  0  0  0
   10.3991   -3.0600    0.0000 H   0  0  0  0  0  0  0  0  0  0  0  0
    8.9962   -5.4900    0.0000 H   0  0  0  0  0  0  0  0  0  0  0  0
   10.3991   -4.6800    0.0000 H   0  0  0  0  0  0  0  0  0  0  0  0
   11.9038   -5.0797    0.0000 H   0  0  0  0  0  0  0  0  0  0  0  0
    2.3079   -2.3594    0.0000 H   0  0  0  0  0  0  0  0  0  0  0  0
    1.4619   -2.5896    0.0000 H   0  0  0  0  0  0  0  0  0  0  0  0
    1.6921   -3.4357    0.0000 H   0  0  0  0  0  0  0  0  0  0  0  0
  1 15  1  0  0  0  0
  1 64  1  0  0  0  0
  2 15  2  0  0  0  0
 20  3  1  6  0  0  0
  3 26  1  0  0  0  0
  4 18  2  0  0  0  0
  5 23  2  0  0  0  0
  6 42  1  0  0  0  0
  6 50  1  0  0  0  0
  7 44  1  0  0  0  0
  7 89  1  0  0  0  0
  8 12  1  0  0  0  0
  8 18  1  0  0  0  0
  8 54  1  0  0  0  0
  9 17  1  0  0  0  0
  9 21  1  0  0  0  0
  9 23  1  0  0  0  0
 24 10  1  1  0  0  0
 10 30  1  0  0  0  0
 10 67  1  0  0  0  0
 11 32  1  0  0  0  0
 11 33  2  0  0  0  0
 12 13  1  0  0  0  0
 12 14  1  0  0  0  0
 12 15  1  0  0  0  0
 13 14  1  0  0  0  0
 13 16  1  1  0  0  0
 13 51  1  0  0  0  0
 14 52  1  0  0  0  0
 14 53  1  0  0  0  0
 16 22  2  0  0  0  0
 16 55  1  0  0  0  0
 17 18  1  1  0  0  0
 17 19  1  0  0  0  0
 17 56  1  0  0  0  0
 19 20  1  0  0  0  0
 19 57  1  0  0  0  0
 19 58  1  0  0  0  0
 20 21  1  0  0  0  0
 20 59  1  0  0  0  0
 21 60  1  0  0  0  0
 21 61  1  0  0  0  0
 22 62  1  0  0  0  0
 22 63  1  0  0  0  0
 23 24  1  0  0  0  0
 24 25  1  0  0  0  0
 24 65  1  0  0  0  0
 25 27  1  0  0  0  0
 25 28  1  0  0  0  0
 25 66  1  0  0  0  0
 26 29  1  0  0  0  0
 26 31  2  0  0  0  0
 27 68  1  0  0  0  0
 27 69  1  0  0  0  0
 27 70  1  0  0  0  0
 28 71  1  0  0  0  0
 28 72  1  0  0  0  0
 28 73  1  0  0  0  0
 29 32  2  0  0  0  0
 29 34  1  0  0  0  0
 30 35  1  0  0  0  0
 30 36  2  0  0  0  0
 31 33  1  0  0  0  0
 31 74  1  0  0  0  0
 32 37  1  0  0  0  0
 33 40  1  0  0  0  0
 34 39  2  0  0  0  0
 34 75  1  0  0  0  0
 35 38  2  0  0  0  0
 35 76  1  0  0  0  0
 36 41  1  0  0  0  0
 36 77  1  0  0  0  0
 37 42  2  0  0  0  0
 37 78  1  0  0  0  0
 38 43  1  0  0  0  0
 38 44  1  0  0  0  0
 39 42  1  0  0  0  0
 39 79  1  0  0  0  0
 40 45  2  0  0  0  0
 40 46  1  0  0  0  0
 41 43  2  0  0  0  0
 41 80  1  0  0  0  0
 43 81  1  0  0  0  0
 44 82  1  0  0  0  0
 44 83  1  0  0  0  0
 45 47  1  0  0  0  0
 45 84  1  0  0  0  0
 46 48  2  0  0  0  0
 46 85  1  0  0  0  0
 47 49  2  0  0  0  0
 47 86  1  0  0  0  0
 48 49  1  0  0  0  0
 48 87  1  0  0  0  0
 49 88  1  0  0  0  0
 50 90  1  0  0  0  0
 50 91  1  0  0  0  0
 50 92  1  0  0  0  0
M  END
> <PUBCHEM_COMPOUND_CID>
500790
> <PUBCHEM_COMPOUND_CANONICALIZED>
1
> <PUBCHEM_CACTVS_COMPLEXITY>
1210
> <PUBCHEM_CACTVS_HBOND_ACCEPTOR>
9
> <PUBCHEM_CACTVS_HBOND_DONOR>
4
> <PUBCHEM_CACTVS_ROTATABLE_BOND>
13
> <PUBCHEM_CACTVS_SUBSKEYS>
AAADcfB/uAAAAAAAAAAAAAAAGAAAAWAAAAA8YMEAAAAAAACx9AAAHgAQCAAADbzhngYyzvPIFgCoAyXyXACCiCAhIiAImKG+bJgOdvLEsbuXeCjm1hnY+Ae68e8OIAAAQgACAABAAACEAAQAAAAAAAAAAA==
> <PUBCHEM_IUPAC_OPENEYE_NAME>
(2R)-1-[[(2S,4R)-1-[(2S)-2-[3-(hydroxymethyl)anilino]-3-methyl-butanoyl]-4-[(7-methoxy-2-phenyl-4-quinolyl)oxy]pyrrolidine-2-carbonyl]amino]-2-vinyl-cyclopropanecarboxylic acid
> <PUBCHEM_IUPAC_CAS_NAME>
(2R)-2-ethenyl-1-[[[(2S,4R)-1-[(2S)-2-[3-(hydroxymethyl)anilino]-3-methyl-1-oxobutyl]-4-[(7-methoxy-2-phenyl-4-quinolinyl)oxy]-2-pyrrolidinyl]-oxomethyl]amino]-1-cyclopropanecarboxylic acid
> <PUBCHEM_IUPAC_NAME_MARKUP>
(2<I>R</I>)-2-ethenyl-1-[[(2<I>S</I>,4<I>R</I>)-1-[(2<I>S</I>)-2-[3-(hydroxymethyl)anilino]-3-methylbutanoyl]-4-(7-methoxy-2-phenylquinolin-4-yl)oxypyrrolidine-2-carbonyl]amino]cyclopropane-1-carboxylic acid
> <PUBCHEM_IUPAC_NAME>
(2R)-2-ethenyl-1-[[(2S,4R)-1-[(2S)-2-[3-(hydroxymethyl)anilino]-3-methylbutanoyl]-4-(7-methoxy-2-phenylquinolin-4-yl)oxypyrrolidine-2-carbonyl]amino]cyclopropane-1-carboxylic acid
> <PUBCHEM_IUPAC_SYSTEMATIC_NAME>
(2R)-2-ethenyl-1-[[(2S,4R)-1-[(2S)-2-[[3-(hydroxymethyl)phenyl]amino]-3-methyl-butanoyl]-4-(7-methoxy-2-phenyl-quinolin-4-yl)oxy-pyrrolidin-2-yl]carbonylamino]cyclopropane-1-carboxylic acid
> <PUBCHEM_IUPAC_TRADITIONAL_NAME>
(2R)-1-[[(2S,4R)-4-[(7-methoxy-2-phenyl-4-quinolyl)oxy]-1-[(2S)-3-methyl-2-(3-methylolanilino)butanoyl]prolyl]amino]-2-vinyl-cyclopropanecarboxylic acid
> <PUBCHEM_IUPAC_INCHI>
InChI=1S/C39H42N4O7/c1-5-26-20-39(26,38(47)48)42-36(45)33-18-29(21-43(33)37(46)35(23(2)3)40-27-13-9-10-24(16-27)22-44)50-34-19-31(25-11-7-6-8-12-25)41-32-17-28(49-4)14-15-30(32)34/h5-17,19,23,26,29,33,35,40,44H,1,18,20-22H2,2-4H3,(H,42,45)(H,47,48)/t26-,29+,33-,35-,39?/m0/s1
> <PUBCHEM_IUPAC_INCHIKEY>
SIQLVROBWSCOEY-DPXADZTDSA-N
> <PUBCHEM_XLOGP3_AA>
5.5
> <PUBCHEM_EXACT_MASS>
678.30534969
> <PUBCHEM_MOLECULAR_FORMULA>
C39H42N4O7
> <PUBCHEM_MOLECULAR_WEIGHT>
678.8
> <PUBCHEM_OPENEYE_CAN_SMILES>
CC(C)C(C(=O)N1CC(CC1C(=O)NC2(CC2C=C)C(=O)O)OC3=CC(=NC4=C3C=CC(=C4)OC)C5=CC=CC=C5)NC6=CC=CC(=C6)CO
> <PUBCHEM_OPENEYE_ISO_SMILES>
CC(C)[C@@H](C(=O)N1C[C@@H](C[C@H]1C(=O)NC2(C[C@@H]2C=C)C(=O)O)OC3=CC(=NC4=C3C=CC(=C4)OC)C5=CC=CC=C5)NC6=CC=CC(=C6)CO
> <PUBCHEM_CACTVS_TPSA>
150
> <PUBCHEM_MONOISOTOPIC_WEIGHT>
678.30534969
> <PUBCHEM_TOTAL_CHARGE>
0
> <PUBCHEM_HEAVY_ATOM_COUNT>
50
> <PUBCHEM_ATOM_DEF_STEREO_COUNT>
4
> <PUBCHEM_ATOM_UDEF_STEREO_COUNT>
1
> <PUBCHEM_BOND_DEF_STEREO_COUNT>
0
> <PUBCHEM_BOND_UDEF_STEREO_COUNT>
0
> <PUBCHEM_ISOTOPIC_ATOM_COUNT>
0
> <PUBCHEM_COMPONENT_COUNT>
1
> <PUBCHEM_CACTVS_TAUTO_COUNT>
-1
> <PUBCHEM_COORDINATE_TYPE>
1
5
255
> <PUBCHEM_BONDANNOTATIONS>
24  10  5
11  32  8
11  33  8
12  15  3
13  16  5
17  18  5
26  29  8
26  31  8
29  32  8
29  34  8
20  3  6
30  35  8
30  36  8
31  33  8
32  37  8
34  39  8
35  38  8
36  41  8
37  42  8
38  43  8
39  42  8
40  45  8
40  46  8
41  43  8
45  47  8
46  48  8
47  49  8
48  49  8
$$$$
