500884
  -OEChem-10302200282D
 56 57  0     1  0  0  0  0  0999 V2000
    2.3660    1.9510    0.0000 F   0  0  0  0  0  0  0  0  0  0  0  0
    2.0000    3.3170    0.0000 F   0  0  0  0  0  0  0  0  0  0  0  0
    3.3660    3.6830    0.0000 F   0  0  0  0  0  0  0  0  0  0  0  0
    3.7320    1.3170    0.0000 O   0  0  0  0  0  0  0  0  0  0  0  0
    8.7140    2.2350    0.0000 O   0  0  0  0  0  0  0  0  0  0  0  0
    7.2040    3.0836    0.0000 O   0  0  0  0  0  0  0  0  0  0  0  0
    4.5981   -3.1830    0.0000 O   0  0  0  0  0  0  0  0  0  0  0  0
    3.7320   -1.6830    0.0000 O   0  0  0  0  0  0  0  0  0  0  0  0
    4.5981    2.8170    0.0000 O   0  0  0  0  0  0  0  0  0  0  0  0
    6.3301   -0.1830    0.0000 C   0  0  1  0  0  0  0  0  0  0  0  0
    6.3301    0.8170    0.0000 C   0  0  2  0  0  0  0  0  0  0  0  0
    7.2241    1.3516    0.0000 C   0  0  1  0  0  0  0  0  0  0  0  0
    5.4641   -0.6830    0.0000 C   0  0  2  0  0  0  0  0  0  0  0  0
    7.2241   -0.7177    0.0000 C   0  0  0  0  0  0  0  0  0  0  0  0
    5.4641    1.3170    0.0000 C   0  0  0  0  0  0  0  0  0  0  0  0
    8.1301    0.8378    0.0000 C   0  0  0  0  0  0  0  0  0  0  0  0
    8.1301   -0.2038    0.0000 C   0  0  0  0  0  0  0  0  0  0  0  0
    4.5981    0.8170    0.0000 C   0  0  2  0  0  0  0  0  0  0  0  0
    6.3301   -1.1830    0.0000 C   0  0  0  0  0  0  0  0  0  0  0  0
    4.5981   -0.1830    0.0000 C   0  0  0  0  0  0  0  0  0  0  0  0
    6.7141    2.2118    0.0000 C   0  0  0  0  0  0  0  0  0  0  0  0
    5.4641   -1.6830    0.0000 C   0  0  0  0  0  0  0  0  0  0  0  0
    7.7140    2.2234    0.0000 C   0  0  0  0  0  0  0  0  0  0  0  0
    3.7320   -0.6830    0.0000 C   0  0  0  0  0  0  0  0  0  0  0  0
    4.5981   -2.1830    0.0000 C   0  0  0  0  0  0  0  0  0  0  0  0
    3.7320    2.3170    0.0000 C   0  0  0  0  0  0  0  0  0  0  0  0
    9.2039    3.1067    0.0000 C   0  0  0  0  0  0  0  0  0  0  0  0
    2.8660    2.8170    0.0000 C   0  0  0  0  0  0  0  0  0  0  0  0
    3.7320   -3.6830    0.0000 C   0  0  0  0  0  0  0  0  0  0  0  0
    6.3236    1.6670    0.0000 H   0  0  0  0  0  0  0  0  0  0  0  0
    4.9272   -0.9930    0.0000 H   0  0  0  0  0  0  0  0  0  0  0  0
    6.8195   -1.1875    0.0000 H   0  0  0  0  0  0  0  0  0  0  0  0
    7.6177   -1.1967    0.0000 H   0  0  0  0  0  0  0  0  0  0  0  0
    5.8626    1.7919    0.0000 H   0  0  0  0  0  0  0  0  0  0  0  0
    5.0656    1.7919    0.0000 H   0  0  0  0  0  0  0  0  0  0  0  0
    8.7410    0.7317    0.0000 H   0  0  0  0  0  0  0  0  0  0  0  0
    8.3392    1.4215    0.0000 H   0  0  0  0  0  0  0  0  0  0  0  0
    8.3392   -0.7875    0.0000 H   0  0  0  0  0  0  0  0  0  0  0  0
    8.7410   -0.0977    0.0000 H   0  0  0  0  0  0  0  0  0  0  0  0
    4.5981    1.4370    0.0000 H   0  0  0  0  0  0  0  0  0  0  0  0
    5.7101   -1.1830    0.0000 H   0  0  0  0  0  0  0  0  0  0  0  0
    6.3301   -1.8030    0.0000 H   0  0  0  0  0  0  0  0  0  0  0  0
    6.9501   -1.1830    0.0000 H   0  0  0  0  0  0  0  0  0  0  0  0
    7.2474    2.5280    0.0000 H   0  0  0  0  0  0  0  0  0  0  0  0
    6.3979    2.7452    0.0000 H   0  0  0  0  0  0  0  0  0  0  0  0
    6.1808    1.8956    0.0000 H   0  0  0  0  0  0  0  0  0  0  0  0
    5.6762   -2.2656    0.0000 H   0  0  0  0  0  0  0  0  0  0  0  0
    6.0747   -1.5754    0.0000 H   0  0  0  0  0  0  0  0  0  0  0  0
    3.1951   -0.3730    0.0000 H   0  0  0  0  0  0  0  0  0  0  0  0
    3.7320   -1.3030    0.0000 H   0  0  0  0  0  0  0  0  0  0  0  0
    9.7444    2.8029    0.0000 H   0  0  0  0  0  0  0  0  0  0  0  0
    9.5077    3.6472    0.0000 H   0  0  0  0  0  0  0  0  0  0  0  0
    8.6634    3.4105    0.0000 H   0  0  0  0  0  0  0  0  0  0  0  0
    3.4220   -3.1461    0.0000 H   0  0  0  0  0  0  0  0  0  0  0  0
    3.1951   -3.9930    0.0000 H   0  0  0  0  0  0  0  0  0  0  0  0
    4.0420   -4.2200    0.0000 H   0  0  0  0  0  0  0  0  0  0  0  0
  1 28  1  0  0  0  0
  2 28  1  0  0  0  0
  3 28  1  0  0  0  0
 18  4  1  6  0  0  0
  4 26  1  0  0  0  0
  5 23  1  0  0  0  0
  5 27  1  0  0  0  0
  6 23  2  0  0  0  0
  7 25  1  0  0  0  0
  7 29  1  0  0  0  0
  8 25  2  0  0  0  0
  9 26  2  0  0  0  0
 10 11  1  0  0  0  0
 10 13  1  0  0  0  0
 10 14  1  0  0  0  0
 10 19  1  1  0  0  0
 11 12  1  0  0  0  0
 11 15  1  0  0  0  0
 11 30  1  6  0  0  0
 12 16  1  0  0  0  0
 12 21  1  6  0  0  0
 12 23  1  0  0  0  0
 13 20  1  0  0  0  0
 13 22  1  1  0  0  0
 13 31  1  0  0  0  0
 14 17  1  0  0  0  0
 14 32  1  0  0  0  0
 14 33  1  0  0  0  0
 15 18  1  0  0  0  0
 15 34  1  0  0  0  0
 15 35  1  0  0  0  0
 16 17  1  0  0  0  0
 16 36  1  0  0  0  0
 16 37  1  0  0  0  0
 17 38  1  0  0  0  0
 17 39  1  0  0  0  0
 18 20  1  0  0  0  0
 18 40  1  0  0  0  0
 19 41  1  0  0  0  0
 19 42  1  0  0  0  0
 19 43  1  0  0  0  0
 20 24  2  0  0  0  0
 21 44  1  0  0  0  0
 21 45  1  0  0  0  0
 21 46  1  0  0  0  0
 22 25  1  0  0  0  0
 22 47  1  0  0  0  0
 22 48  1  0  0  0  0
 24 49  1  0  0  0  0
 24 50  1  0  0  0  0
 26 28  1  0  0  0  0
 27 51  1  0  0  0  0
 27 52  1  0  0  0  0
 27 53  1  0  0  0  0
 29 54  1  0  0  0  0
 29 55  1  0  0  0  0
 29 56  1  0  0  0  0
M  END
> <PUBCHEM_COMPOUND_CID>
500884
> <PUBCHEM_COMPOUND_CANONICALIZED>
1
> <PUBCHEM_CACTVS_COMPLEXITY>
703
> <PUBCHEM_CACTVS_HBOND_ACCEPTOR>
9
> <PUBCHEM_CACTVS_HBOND_DONOR>
0
> <PUBCHEM_CACTVS_ROTATABLE_BOND>
7
> <PUBCHEM_CACTVS_SUBSKEYS>
AAADceB4OYAAAAAAAAAAAAAAAAAAAAAAAAAwYAAAAAAAAADAAAAAGwAAAAAADxSggBICCAAABACIAgDSCAAAAAAgAAAAAAEAAAgABBIAIQACAAAEgAAAIAGI7PzPgAAAAAAAAABAAAYAACAAAAAAAAAAAA==
> <PUBCHEM_IUPAC_OPENEYE_NAME>
methyl (1S,4aR,5R,7R,8aR)-5-(2-methoxy-2-oxo-ethyl)-1,4a-dimethyl-6-methylene-7-(2,2,2-trifluoroacetyl)oxy-decalin-1-carboxylate
> <PUBCHEM_IUPAC_CAS_NAME>
(1S,4aR,5R,7R,8aR)-5-(2-methoxy-2-oxoethyl)-1,4a-dimethyl-6-methylene-7-(2,2,2-trifluoro-1-oxoethoxy)-3,4,5,7,8,8a-hexahydro-2H-naphthalene-1-carboxylic acid methyl ester
> <PUBCHEM_IUPAC_NAME_MARKUP>
methyl (1<I>S</I>,4<I>a</I><I>R</I>,5<I>R</I>,7<I>R</I>,8<I>a</I><I>R</I>)-5-(2-methoxy-2-oxoethyl)-1,4<I>a</I>-dimethyl-6-methylidene-7-(2,2,2-trifluoroacetyl)oxy-3,4,5,7,8,8<I>a</I>-hexahydro-2<I>H</I>-naphthalene-1-carboxylate
> <PUBCHEM_IUPAC_NAME>
methyl (1S,4aR,5R,7R,8aR)-5-(2-methoxy-2-oxoethyl)-1,4a-dimethyl-6-methylidene-7-(2,2,2-trifluoroacetyl)oxy-3,4,5,7,8,8a-hexahydro-2H-naphthalene-1-carboxylate
> <PUBCHEM_IUPAC_SYSTEMATIC_NAME>
methyl (1S,4aR,5R,7R,8aR)-5-(2-methoxy-2-oxidanylidene-ethyl)-1,4a-dimethyl-6-methylidene-7-[2,2,2-tris(fluoranyl)ethanoyloxy]-3,4,5,7,8,8a-hexahydro-2H-naphthalene-1-carboxylate
> <PUBCHEM_IUPAC_TRADITIONAL_NAME>
(1S,4aR,5R,7R,8aR)-5-(2-keto-2-methoxy-ethyl)-1,4a-dimethyl-6-methylene-7-(2,2,2-trifluoroacetyl)oxy-decalin-1-carboxylic acid methyl ester
> <PUBCHEM_IUPAC_INCHI>
InChI=1S/C20H27F3O6/c1-11-12(9-15(24)27-4)18(2)7-6-8-19(3,16(25)28-5)14(18)10-13(11)29-17(26)20(21,22)23/h12-14H,1,6-10H2,2-5H3/t12-,13+,14+,18+,19-/m0/s1
> <PUBCHEM_IUPAC_INCHIKEY>
UMBJGKAGIKSTNT-YLWMSMLNSA-N
> <PUBCHEM_XLOGP3_AA>
3.9
> <PUBCHEM_EXACT_MASS>
420.17597306
> <PUBCHEM_MOLECULAR_FORMULA>
C20H27F3O6
> <PUBCHEM_MOLECULAR_WEIGHT>
420.4
> <PUBCHEM_OPENEYE_CAN_SMILES>
CC12CCCC(C1CC(C(=C)C2CC(=O)OC)OC(=O)C(F)(F)F)(C)C(=O)OC
> <PUBCHEM_OPENEYE_ISO_SMILES>
C[C@]12CCC[C@]([C@@H]1C[C@H](C(=C)[C@@H]2CC(=O)OC)OC(=O)C(F)(F)F)(C)C(=O)OC
> <PUBCHEM_CACTVS_TPSA>
78.9
> <PUBCHEM_MONOISOTOPIC_WEIGHT>
420.17597306
> <PUBCHEM_TOTAL_CHARGE>
0
> <PUBCHEM_HEAVY_ATOM_COUNT>
29
> <PUBCHEM_ATOM_DEF_STEREO_COUNT>
5
> <PUBCHEM_ATOM_UDEF_STEREO_COUNT>
0
> <PUBCHEM_BOND_DEF_STEREO_COUNT>
0
> <PUBCHEM_BOND_UDEF_STEREO_COUNT>
0
> <PUBCHEM_ISOTOPIC_ATOM_COUNT>
0
> <PUBCHEM_COMPONENT_COUNT>
1
> <PUBCHEM_CACTVS_TAUTO_COUNT>
-1
> <PUBCHEM_COORDINATE_TYPE>
1
5
255
> <PUBCHEM_BONDANNOTATIONS>
10  19  5
11  30  6
12  21  6
13  22  5
18  4  6
$$$$
