500887
  -OEChem-10302200282D
 42 44  0     1  0  0  0  0  0999 V2000
    3.6638   -2.2846    0.0000 I   0  0  0  0  0  0  0  0  0  0  0  0
    3.5836   -1.0894    0.0000 O   0  0  0  0  0  0  0  0  0  0  0  0
    8.6818    1.5708    0.0000 O   0  0  0  0  0  0  0  0  0  0  0  0
    2.0000   -0.2846    0.0000 O   0  0  0  0  0  0  0  0  0  0  0  0
    8.6618   -0.1611    0.0000 O   0  0  0  0  0  0  0  0  0  0  0  0
    5.3958    0.7154    0.0000 C   0  0  1  0  0  0  0  0  0  0  0  0
    6.2619    0.2154    0.0000 C   0  0  2  0  0  0  0  0  0  0  0  0
    4.5298    0.2154    0.0000 C   0  0  3  0  0  0  0  0  0  0  0  0
    7.1719    0.7222    0.0000 C   0  0  1  0  0  0  0  0  0  0  0  0
    4.5298   -0.7846    0.0000 C   0  0  2  0  0  0  0  0  0  0  0  0
    5.3798    1.7569    0.0000 C   0  0  0  0  0  0  0  0  0  0  0  0
    7.1799    1.7638    0.0000 C   0  0  0  0  0  0  0  0  0  0  0  0
    6.2778    2.2846    0.0000 C   0  0  0  0  0  0  0  0  0  0  0  0
    3.5836    0.5201    0.0000 C   0  0  0  0  0  0  0  0  0  0  0  0
    4.5298    1.2154    0.0000 C   0  0  0  0  0  0  0  0  0  0  0  0
    6.2619   -0.7846    0.0000 C   0  0  0  0  0  0  0  0  0  0  0  0
    5.3958   -1.2846    0.0000 C   0  0  0  0  0  0  0  0  0  0  0  0
    7.6618   -0.1495    0.0000 C   0  0  0  0  0  0  0  0  0  0  0  0
    4.5298   -1.7846    0.0000 C   0  0  0  0  0  0  0  0  0  0  0  0
    3.0000   -0.2846    0.0000 C   0  0  0  0  0  0  0  0  0  0  0  0
    8.1718    0.7107    0.0000 C   0  0  0  0  0  0  0  0  0  0  0  0
    6.9947   -0.2153    0.0000 H   0  0  0  0  0  0  0  0  0  0  0  0
    5.0668   -0.0946    0.0000 H   0  0  0  0  0  0  0  0  0  0  0  0
    5.1618    2.3373    0.0000 H   0  0  0  0  0  0  0  0  0  0  0  0
    4.7706    1.6414    0.0000 H   0  0  0  0  0  0  0  0  0  0  0  0
    7.7899    1.6530    0.0000 H   0  0  0  0  0  0  0  0  0  0  0  0
    7.3935    2.3459    0.0000 H   0  0  0  0  0  0  0  0  0  0  0  0
    6.6751    2.7606    0.0000 H   0  0  0  0  0  0  0  0  0  0  0  0
    5.8769    2.7575    0.0000 H   0  0  0  0  0  0  0  0  0  0  0  0
    3.8346    1.0870    0.0000 H   0  0  0  0  0  0  0  0  0  0  0  0
    3.0462    0.8293    0.0000 H   0  0  0  0  0  0  0  0  0  0  0  0
    4.8398    1.7523    0.0000 H   0  0  0  0  0  0  0  0  0  0  0  0
    3.9929    1.5254    0.0000 H   0  0  0  0  0  0  0  0  0  0  0  0
    4.2198    0.6784    0.0000 H   0  0  0  0  0  0  0  0  0  0  0  0
    6.7988   -1.0946    0.0000 H   0  0  0  0  0  0  0  0  0  0  0  0
    5.3958   -1.9046    0.0000 H   0  0  0  0  0  0  0  0  0  0  0  0
    7.1214   -0.4533    0.0000 H   0  0  0  0  0  0  0  0  0  0  0  0
    7.9656   -0.6900    0.0000 H   0  0  0  0  0  0  0  0  0  0  0  0
    8.2023    0.1542    0.0000 H   0  0  0  0  0  0  0  0  0  0  0  0
    4.7419   -2.3672    0.0000 H   0  0  0  0  0  0  0  0  0  0  0  0
    5.1404   -1.6770    0.0000 H   0  0  0  0  0  0  0  0  0  0  0  0
    9.3018    1.5637    0.0000 H   0  0  0  0  0  0  0  0  0  0  0  0
  1 19  1  0  0  0  0
  2 10  1  0  0  0  0
  2 20  1  0  0  0  0
  3 21  1  0  0  0  0
  3 42  1  0  0  0  0
  4 20  2  0  0  0  0
  5 21  2  0  0  0  0
  6  7  1  0  0  0  0
  6  8  1  0  0  0  0
  6 11  1  0  0  0  0
  6 15  1  6  0  0  0
  7  9  1  0  0  0  0
  7 16  1  0  0  0  0
  7 22  1  1  0  0  0
  8 10  1  0  0  0  0
  8 14  1  0  0  0  0
  8 23  1  0  0  0  0
  9 12  1  0  0  0  0
  9 18  1  1  0  0  0
  9 21  1  0  0  0  0
 10 17  1  0  0  0  0
 10 19  1  1  0  0  0
 11 13  1  0  0  0  0
 11 24  1  0  0  0  0
 11 25  1  0  0  0  0
 12 13  1  0  0  0  0
 12 26  1  0  0  0  0
 12 27  1  0  0  0  0
 13 28  1  0  0  0  0
 13 29  1  0  0  0  0
 14 20  1  0  0  0  0
 14 30  1  0  0  0  0
 14 31  1  0  0  0  0
 15 32  1  0  0  0  0
 15 33  1  0  0  0  0
 15 34  1  0  0  0  0
 16 17  2  0  0  0  0
 16 35  1  0  0  0  0
 17 36  1  0  0  0  0
 18 37  1  0  0  0  0
 18 38  1  0  0  0  0
 18 39  1  0  0  0  0
 19 40  1  0  0  0  0
 19 41  1  0  0  0  0
M  END
> <PUBCHEM_COMPOUND_CID>
500887
> <PUBCHEM_COMPOUND_CANONICALIZED>
1
> <PUBCHEM_CACTVS_COMPLEXITY>
530
> <PUBCHEM_CACTVS_HBOND_ACCEPTOR>
4
> <PUBCHEM_CACTVS_HBOND_DONOR>
1
> <PUBCHEM_CACTVS_ROTATABLE_BOND>
2
> <PUBCHEM_CACTVS_SUBSKEYS>
AAADceB4OAAAAgAAAAAAAAAAAAAAASAAAAAwQAAAAAAAAECAAAAAGgAgCAAAD0SCgAACCAAABgCIACDSCAAAAAAgAAAICAEAAAgABBIAIQACUAAEgAAIIAOKyPCPgAAAAAAAAAAAAAQAACAAAAAAAAAAAA==
> <PUBCHEM_IUPAC_OPENEYE_NAME>
(3aS,5aR,6S,9aS)-3a-(iodomethyl)-6,9a-dimethyl-2-oxo-1,5a,7,8,9,9b-hexahydrobenzo[e]benzofuran-6-carboxylic acid
> <PUBCHEM_IUPAC_CAS_NAME>
(3aS,5aR,6S,9aS)-3a-(iodomethyl)-6,9a-dimethyl-2-oxo-1,5a,7,8,9,9b-hexahydrobenzo[e]benzofuran-6-carboxylic acid
> <PUBCHEM_IUPAC_NAME_MARKUP>
(3<I>a</I><I>S</I>,5<I>a</I><I>R</I>,6<I>S</I>,9<I>a</I><I>S</I>)-3<I>a</I>-(iodomethyl)-6,9<I>a</I>-dimethyl-2-oxo-1,5<I>a</I>,7,8,9,9<I>b</I>-hexahydrobenzo[e][1]benzofuran-6-carboxylic acid
> <PUBCHEM_IUPAC_NAME>
(3aS,5aR,6S,9aS)-3a-(iodomethyl)-6,9a-dimethyl-2-oxo-1,5a,7,8,9,9b-hexahydrobenzo[e][1]benzofuran-6-carboxylic acid
> <PUBCHEM_IUPAC_SYSTEMATIC_NAME>
(3aS,5aR,6S,9aS)-3a-(iodanylmethyl)-6,9a-dimethyl-2-oxidanylidene-1,5a,7,8,9,9b-hexahydrobenzo[e][1]benzofuran-6-carboxylic acid
> <PUBCHEM_IUPAC_TRADITIONAL_NAME>
(3aS,5aR,6S,9aS)-3a-(iodomethyl)-2-keto-6,9a-dimethyl-1,5a,7,8,9,9b-hexahydrobenzo[e]benzofuran-6-carboxylic acid
> <PUBCHEM_IUPAC_INCHI>
InChI=1S/C16H21IO4/c1-14-5-3-6-15(2,13(19)20)10(14)4-7-16(9-17)11(14)8-12(18)21-16/h4,7,10-11H,3,5-6,8-9H2,1-2H3,(H,19,20)/t10-,11?,14+,15+,16-/m1/s1
> <PUBCHEM_IUPAC_INCHIKEY>
GJBNNIBXESSVHN-FEEKDDLXSA-N
> <PUBCHEM_XLOGP3_AA>
3.3
> <PUBCHEM_EXACT_MASS>
404.04846
> <PUBCHEM_MOLECULAR_FORMULA>
C16H21IO4
> <PUBCHEM_MOLECULAR_WEIGHT>
404.24
> <PUBCHEM_OPENEYE_CAN_SMILES>
CC12CCCC(C1C=CC3(C2CC(=O)O3)CI)(C)C(=O)O
> <PUBCHEM_OPENEYE_ISO_SMILES>
C[C@]12CCC[C@]([C@@H]1C=C[C@]3(C2CC(=O)O3)CI)(C)C(=O)O
> <PUBCHEM_CACTVS_TPSA>
63.6
> <PUBCHEM_MONOISOTOPIC_WEIGHT>
404.04846
> <PUBCHEM_TOTAL_CHARGE>
0
> <PUBCHEM_HEAVY_ATOM_COUNT>
21
> <PUBCHEM_ATOM_DEF_STEREO_COUNT>
4
> <PUBCHEM_ATOM_UDEF_STEREO_COUNT>
1
> <PUBCHEM_BOND_DEF_STEREO_COUNT>
0
> <PUBCHEM_BOND_UDEF_STEREO_COUNT>
0
> <PUBCHEM_ISOTOPIC_ATOM_COUNT>
0
> <PUBCHEM_COMPONENT_COUNT>
1
> <PUBCHEM_CACTVS_TAUTO_COUNT>
-1
> <PUBCHEM_COORDINATE_TYPE>
1
5
255
> <PUBCHEM_BONDANNOTATIONS>
10  19  5
6  15  6
7  22  5
8  14  3
9  18  5
$$$$
