500852
  -OEChem-10302200282D
161166  0     1  0  0  0  0  0999 V2000
    7.3111    1.7320    0.0000 F   0  0  0  0  0  0  0  0  0  0  0  0
    6.9450    0.3660    0.0000 F   0  0  0  0  0  0  0  0  0  0  0  0
    8.3111    0.0000    0.0000 F   0  0  0  0  0  0  0  0  0  0  0  0
    7.3111    6.1066    0.0000 F   0  0  0  0  0  0  0  0  0  0  0  0
    6.9450    4.7406    0.0000 F   0  0  0  0  0  0  0  0  0  0  0  0
    8.3111    4.3746    0.0000 F   0  0  0  0  0  0  0  0  0  0  0  0
    7.0057   15.8239    0.0000 O   0  0  0  0  0  0  0  0  0  0  0  0
    8.7378   18.8239    0.0000 O   0  0  0  0  0  0  0  0  0  0  0  0
    1.9589   12.4875    0.0000 O   0  0  0  0  0  0  0  0  0  0  0  0
    3.9319   10.9672    0.0000 O   0  0  0  0  0  0  0  0  0  0  0  0
    2.3576   10.6326    0.0000 O   0  0  0  0  0  0  0  0  0  0  0  0
    4.4076   13.3239    0.0000 O   0  0  0  0  0  0  0  0  0  0  0  0
    1.5066   14.6156    0.0000 O   0  0  0  0  0  0  0  0  0  0  0  0
    2.5893   15.8180    0.0000 O   0  0  0  0  0  0  0  0  0  0  0  0
    7.8717   14.3239    0.0000 O   0  0  0  0  0  0  0  0  0  0  0  0
    8.7378   17.8239    0.0000 O   0  0  0  0  0  0  0  0  0  0  0  0
    5.2736   11.8239    0.0000 O   0  0  0  0  0  0  0  0  0  0  0  0
   12.2019   18.8239    0.0000 O   0  0  0  0  0  0  0  0  0  0  0  0
   11.3359   15.5919    0.0000 O   0  0  0  0  0  0  0  0  0  0  0  0
    9.5431    0.8660    0.0000 O   0  0  0  0  0  0  0  0  0  0  0  0
    9.5431    5.2406    0.0000 O   0  0  0  0  0  0  0  0  0  0  0  0
    8.6771    2.3660    0.0000 O   0  0  0  0  0  0  0  0  0  0  0  0
    8.6771    6.7406    0.0000 O   0  0  0  0  0  0  0  0  0  0  0  0
    7.0057   17.8239    0.0000 N   0  0  3  0  0  0  0  0  0  0  0  0
    7.8717   20.3239    0.0000 N   0  0  0  0  0  0  0  0  0  0  0  0
    9.6038   16.3239    0.0000 N   0  0  0  0  0  0  0  0  0  0  0  0
   11.3358   17.3239    0.0000 N   0  0  0  0  0  0  0  0  0  0  0  0
   11.3358   20.3239    0.0000 N   0  0  0  0  0  0  0  0  0  0  0  0
   13.3358   15.5919    0.0000 N   0  0  0  0  0  0  0  0  0  0  0  0
    5.2736   18.8239    0.0000 C   0  0  3  0  0  0  0  0  0  0  0  0
    5.2736   17.8239    0.0000 C   0  0  3  0  0  0  0  0  0  0  0  0
    6.1397   19.3239    0.0000 C   0  0  0  0  0  0  0  0  0  0  0  0
    6.1397   17.3239    0.0000 C   0  0  0  0  0  0  0  0  0  0  0  0
    4.3797   19.3586    0.0000 C   0  0  0  0  0  0  0  0  0  0  0  0
    4.3797   17.2893    0.0000 C   0  0  0  0  0  0  0  0  0  0  0  0
    7.0057   18.8239    0.0000 C   0  0  1  0  0  0  0  0  0  0  0  0
    3.4736   18.8448    0.0000 C   0  0  0  0  0  0  0  0  0  0  0  0
    3.4736   17.8031    0.0000 C   0  0  0  0  0  0  0  0  0  0  0  0
    7.8717   17.3239    0.0000 C   0  0  0  0  0  0  0  0  0  0  0  0
    7.8717   19.3239    0.0000 C   0  0  0  0  0  0  0  0  0  0  0  0
    7.8717   16.3239    0.0000 C   0  0  2  0  0  0  0  0  0  0  0  0
    8.7378   15.8239    0.0000 C   0  0  2  0  0  0  0  0  0  0  0  0
    8.7378   20.8239    0.0000 C   0  0  0  0  0  0  0  0  0  0  0  0
    8.7378   14.8239    0.0000 C   0  0  0  0  0  0  0  0  0  0  0  0
    3.4371   11.8294    0.0000 C   0  0  1  0  0  0  0  0  0  0  0  0
    2.6280   13.2307    0.0000 C   0  0  1  0  0  0  0  0  0  0  0  0
    3.5416   12.8239    0.0000 C   0  0  2  0  0  0  0  0  0  0  0  0
    2.4589   11.6215    0.0000 C   0  0  3  0  0  0  0  0  0  0  0  0
    2.4201   14.2088    0.0000 C   0  0  3  0  0  0  0  0  0  0  0  0
    9.6038   21.3239    0.0000 C   0  0  0  0  0  0  0  0  0  0  0  0
    8.2378   21.6900    0.0000 C   0  0  0  0  0  0  0  0  0  0  0  0
    9.2378   19.9579    0.0000 C   0  0  0  0  0  0  0  0  0  0  0  0
    3.2661   10.2291    0.0000 C   0  0  0  0  0  0  0  0  0  0  0  0
    7.0057   14.8239    0.0000 C   0  0  0  0  0  0  0  0  0  0  0  0
    9.6038   14.3239    0.0000 C   0  0  0  0  0  0  0  0  0  0  0  0
    3.0893   14.9520    0.0000 C   0  0  0  0  0  0  0  0  0  0  0  0
    1.6111   15.6101    0.0000 C   0  0  0  0  0  0  0  0  0  0  0  0
    9.6038   17.3239    0.0000 C   0  0  0  0  0  0  0  0  0  0  0  0
    6.1397   14.3239    0.0000 C   0  0  0  0  0  0  0  0  0  0  0  0
    2.8593    9.3155    0.0000 C   0  0  0  0  0  0  0  0  0  0  0  0
    4.0092    9.5599    0.0000 C   0  0  0  0  0  0  0  0  0  0  0  0
    6.1397   13.3239    0.0000 C   0  0  0  0  0  0  0  0  0  0  0  0
    5.2736   12.8239    0.0000 C   0  0  0  0  0  0  0  0  0  0  0  0
   10.4698   17.8239    0.0000 C   0  0  2  0  0  0  0  0  0  0  0  0
    9.6038   13.3239    0.0000 C   0  0  0  0  0  0  0  0  0  0  0  0
   10.4698   14.8239    0.0000 C   0  0  0  0  0  0  0  0  0  0  0  0
    0.6166   15.7146    0.0000 C   0  0  0  0  0  0  0  0  0  0  0  0
    1.4032   16.5882    0.0000 C   0  0  0  0  0  0  0  0  0  0  0  0
   10.4698   18.8239    0.0000 C   0  0  0  0  0  0  0  0  0  0  0  0
   10.4698   12.8239    0.0000 C   0  0  0  0  0  0  0  0  0  0  0  0
   11.3358   14.3239    0.0000 C   0  0  0  0  0  0  0  0  0  0  0  0
   11.3358   13.3239    0.0000 C   0  0  0  0  0  0  0  0  0  0  0  0
   11.3358   19.3239    0.0000 C   0  0  0  0  0  0  0  0  0  0  0  0
   11.8359   16.4580    0.0000 C   0  0  0  0  0  0  0  0  0  0  0  0
   12.8358   16.4579    0.0000 C   0  0  0  0  0  0  0  0  0  0  0  0
   13.3358   17.3239    0.0000 C   0  0  0  0  0  0  0  0  0  0  0  0
   14.3358   17.3239    0.0000 C   0  0  0  0  0  0  0  0  0  0  0  0
   14.3358   15.5919    0.0000 C   0  0  0  0  0  0  0  0  0  0  0  0
   14.8358   16.4579    0.0000 C   0  0  0  0  0  0  0  0  0  0  0  0
   14.8427   14.6819    0.0000 C   0  0  0  0  0  0  0  0  0  0  0  0
   15.8773   16.4740    0.0000 C   0  0  0  0  0  0  0  0  0  0  0  0
   15.8843   14.6739    0.0000 C   0  0  0  0  0  0  0  0  0  0  0  0
   16.4051   15.5759    0.0000 C   0  0  0  0  0  0  0  0  0  0  0  0
    7.8111    0.8660    0.0000 C   0  0  0  0  0  0  0  0  0  0  0  0
    7.8111    5.2406    0.0000 C   0  0  0  0  0  0  0  0  0  0  0  0
    8.6771    1.3660    0.0000 C   0  0  0  0  0  0  0  0  0  0  0  0
    8.6771    5.7406    0.0000 C   0  0  0  0  0  0  0  0  0  0  0  0
    5.2784   19.4439    0.0000 H   0  0  0  0  0  0  0  0  0  0  0  0
    5.2784   17.2040    0.0000 H   0  0  0  0  0  0  0  0  0  0  0  0
    6.5382   19.7989    0.0000 H   0  0  0  0  0  0  0  0  0  0  0  0
    5.7412   19.7989    0.0000 H   0  0  0  0  0  0  0  0  0  0  0  0
    5.7412   16.8490    0.0000 H   0  0  0  0  0  0  0  0  0  0  0  0
    6.5382   16.8490    0.0000 H   0  0  0  0  0  0  0  0  0  0  0  0
    4.7843   19.8284    0.0000 H   0  0  0  0  0  0  0  0  0  0  0  0
    3.9861   19.8376    0.0000 H   0  0  0  0  0  0  0  0  0  0  0  0
    3.9861   16.8103    0.0000 H   0  0  0  0  0  0  0  0  0  0  0  0
    4.7843   16.8195    0.0000 H   0  0  0  0  0  0  0  0  0  0  0  0
    7.5426   18.5139    0.0000 H   0  0  0  0  0  0  0  0  0  0  0  0
    3.2646   19.4284    0.0000 H   0  0  0  0  0  0  0  0  0  0  0  0
    2.8628   18.7387    0.0000 H   0  0  0  0  0  0  0  0  0  0  0  0
    2.8628   17.9092    0.0000 H   0  0  0  0  0  0  0  0  0  0  0  0
    3.2646   17.2194    0.0000 H   0  0  0  0  0  0  0  0  0  0  0  0
    8.4823   17.2163    0.0000 H   0  0  0  0  0  0  0  0  0  0  0  0
    8.0838   17.9065    0.0000 H   0  0  0  0  0  0  0  0  0  0  0  0
    7.3348   16.6339    0.0000 H   0  0  0  0  0  0  0  0  0  0  0  0
    8.7378   16.4439    0.0000 H   0  0  0  0  0  0  0  0  0  0  0  0
    7.3348   20.6339    0.0000 H   0  0  0  0  0  0  0  0  0  0  0  0
    8.1272   14.9316    0.0000 H   0  0  0  0  0  0  0  0  0  0  0  0
    8.5257   14.2413    0.0000 H   0  0  0  0  0  0  0  0  0  0  0  0
    4.2687   12.0051    0.0000 H   0  0  0  0  0  0  0  0  0  0  0  0
    1.8070   13.4507    0.0000 H   0  0  0  0  0  0  0  0  0  0  0  0
    4.0616   12.4863    0.0000 H   0  0  0  0  0  0  0  0  0  0  0  0
    1.8526   11.4918    0.0000 H   0  0  0  0  0  0  0  0  0  0  0  0
   10.1407   16.0139    0.0000 H   0  0  0  0  0  0  0  0  0  0  0  0
    1.9383   13.8186    0.0000 H   0  0  0  0  0  0  0  0  0  0  0  0
    9.9138   20.7870    0.0000 H   0  0  0  0  0  0  0  0  0  0  0  0
   10.1407   21.6339    0.0000 H   0  0  0  0  0  0  0  0  0  0  0  0
    9.2938   21.8609    0.0000 H   0  0  0  0  0  0  0  0  0  0  0  0
    8.7747   22.0000    0.0000 H   0  0  0  0  0  0  0  0  0  0  0  0
    7.9278   22.2269    0.0000 H   0  0  0  0  0  0  0  0  0  0  0  0
    7.7008   21.3800    0.0000 H   0  0  0  0  0  0  0  0  0  0  0  0
    8.7008   19.6479    0.0000 H   0  0  0  0  0  0  0  0  0  0  0  0
    9.5478   19.4210    0.0000 H   0  0  0  0  0  0  0  0  0  0  0  0
    9.7747   20.2679    0.0000 H   0  0  0  0  0  0  0  0  0  0  0  0
    3.5041   14.4912    0.0000 H   0  0  0  0  0  0  0  0  0  0  0  0
    3.5909   15.3164    0.0000 H   0  0  0  0  0  0  0  0  0  0  0  0
    5.9276   14.9066    0.0000 H   0  0  0  0  0  0  0  0  0  0  0  0
    5.5291   14.2163    0.0000 H   0  0  0  0  0  0  0  0  0  0  0  0
    2.2929    9.5677    0.0000 H   0  0  0  0  0  0  0  0  0  0  0  0
    2.6072    8.7491    0.0000 H   0  0  0  0  0  0  0  0  0  0  0  0
    3.4257    9.0633    0.0000 H   0  0  0  0  0  0  0  0  0  0  0  0
    3.5944    9.0992    0.0000 H   0  0  0  0  0  0  0  0  0  0  0  0
    4.4700    9.1451    0.0000 H   0  0  0  0  0  0  0  0  0  0  0  0
    4.4241   10.0207    0.0000 H   0  0  0  0  0  0  0  0  0  0  0  0
    6.3517   12.7413    0.0000 H   0  0  0  0  0  0  0  0  0  0  0  0
    6.7503   13.4316    0.0000 H   0  0  0  0  0  0  0  0  0  0  0  0
   11.0067   18.1339    0.0000 H   0  0  0  0  0  0  0  0  0  0  0  0
    9.0668   13.0139    0.0000 H   0  0  0  0  0  0  0  0  0  0  0  0
   10.4698   15.4439    0.0000 H   0  0  0  0  0  0  0  0  0  0  0  0
    0.6814   16.3312    0.0000 H   0  0  0  0  0  0  0  0  0  0  0  0
    0.0000   15.7794    0.0000 H   0  0  0  0  0  0  0  0  0  0  0  0
    0.5518   15.0980    0.0000 H   0  0  0  0  0  0  0  0  0  0  0  0
    2.0097   16.7171    0.0000 H   0  0  0  0  0  0  0  0  0  0  0  0
    1.2743   17.1947    0.0000 H   0  0  0  0  0  0  0  0  0  0  0  0
    0.7968   16.4593    0.0000 H   0  0  0  0  0  0  0  0  0  0  0  0
   10.2577   19.4066    0.0000 H   0  0  0  0  0  0  0  0  0  0  0  0
    9.8592   18.7163    0.0000 H   0  0  0  0  0  0  0  0  0  0  0  0
   10.4698   12.2039    0.0000 H   0  0  0  0  0  0  0  0  0  0  0  0
   11.8728   14.6339    0.0000 H   0  0  0  0  0  0  0  0  0  0  0  0
   11.8728   17.6339    0.0000 H   0  0  0  0  0  0  0  0  0  0  0  0
   11.8728   13.0139    0.0000 H   0  0  0  0  0  0  0  0  0  0  0  0
   11.8728   20.6339    0.0000 H   0  0  0  0  0  0  0  0  0  0  0  0
   10.7989   20.6339    0.0000 H   0  0  0  0  0  0  0  0  0  0  0  0
   13.0258   17.8609    0.0000 H   0  0  0  0  0  0  0  0  0  0  0  0
   14.6458   17.8609    0.0000 H   0  0  0  0  0  0  0  0  0  0  0  0
   14.5265   14.1486    0.0000 H   0  0  0  0  0  0  0  0  0  0  0  0
   16.1811   17.0145    0.0000 H   0  0  0  0  0  0  0  0  0  0  0  0
   16.1922   14.1357    0.0000 H   0  0  0  0  0  0  0  0  0  0  0  0
   17.0251   15.5783    0.0000 H   0  0  0  0  0  0  0  0  0  0  0  0
   10.0800    1.1760    0.0000 H   0  0  0  0  0  0  0  0  0  0  0  0
   10.0800    5.5506    0.0000 H   0  0  0  0  0  0  0  0  0  0  0  0
  1 84  1  0  0  0  0
  2 84  1  0  0  0  0
  3 84  1  0  0  0  0
  4 85  1  0  0  0  0
  5 85  1  0  0  0  0
  6 85  1  0  0  0  0
 41  7  1  6  0  0  0
  7 54  1  0  0  0  0
  8 40  2  0  0  0  0
  9 46  1  0  0  0  0
  9 48  1  0  0  0  0
 10 45  1  0  0  0  0
 10 53  1  0  0  0  0
 11 48  1  0  0  0  0
 11 53  1  0  0  0  0
 47 12  1  6  0  0  0
 12 63  1  0  0  0  0
 13 49  1  0  0  0  0
 13 57  1  0  0  0  0
 14 56  1  0  0  0  0
 14 57  1  0  0  0  0
 15 54  2  0  0  0  0
 16 58  2  0  0  0  0
 17 63  2  0  0  0  0
 18 73  2  0  0  0  0
 19 74  2  0  0  0  0
 20 86  1  0  0  0  0
 20160  1  0  0  0  0
 21 87  1  0  0  0  0
 21161  1  0  0  0  0
 22 86  2  0  0  0  0
 23 87  2  0  0  0  0
 24 33  1  0  0  0  0
 24 36  1  0  0  0  0
 24 39  1  0  0  0  0
 25 40  1  0  0  0  0
 25 43  1  0  0  0  0
 25107  1  0  0  0  0
 42 26  1  1  0  0  0
 26 58  1  0  0  0  0
 26114  1  0  0  0  0
 64 27  1  6  0  0  0
 27 74  1  0  0  0  0
 27150  1  0  0  0  0
 28 73  1  0  0  0  0
 28152  1  0  0  0  0
 28153  1  0  0  0  0
 29 75  2  0  0  0  0
 29 78  1  0  0  0  0
 30 31  1  0  0  0  0
 30 32  1  0  0  0  0
 30 34  1  0  0  0  0
 30 88  1  0  0  0  0
 31 33  1  0  0  0  0
 31 35  1  0  0  0  0
 31 89  1  0  0  0  0
 32 36  1  0  0  0  0
 32 90  1  0  0  0  0
 32 91  1  0  0  0  0
 33 92  1  0  0  0  0
 33 93  1  0  0  0  0
 34 37  1  0  0  0  0
 34 94  1  0  0  0  0
 34 95  1  0  0  0  0
 35 38  1  0  0  0  0
 35 96  1  0  0  0  0
 35 97  1  0  0  0  0
 36 40  1  1  0  0  0
 36 98  1  0  0  0  0
 37 38  1  0  0  0  0
 37 99  1  0  0  0  0
 37100  1  0  0  0  0
 38101  1  0  0  0  0
 38102  1  0  0  0  0
 39 41  1  0  0  0  0
 39103  1  0  0  0  0
 39104  1  0  0  0  0
 41 42  1  0  0  0  0
 41105  1  0  0  0  0
 42 44  1  0  0  0  0
 42106  1  0  0  0  0
 43 50  1  0  0  0  0
 43 51  1  0  0  0  0
 43 52  1  0  0  0  0
 44 55  1  0  0  0  0
 44108  1  0  0  0  0
 44109  1  0  0  0  0
 45 47  1  0  0  0  0
 45 48  1  0  0  0  0
 45110  1  1  0  0  0
 46 47  1  0  0  0  0
 46 49  1  0  0  0  0
 46111  1  1  0  0  0
 47112  1  0  0  0  0
 48113  1  0  0  0  0
 49 56  1  0  0  0  0
 49115  1  0  0  0  0
 50116  1  0  0  0  0
 50117  1  0  0  0  0
 50118  1  0  0  0  0
 51119  1  0  0  0  0
 51120  1  0  0  0  0
 51121  1  0  0  0  0
 52122  1  0  0  0  0
 52123  1  0  0  0  0
 52124  1  0  0  0  0
 53 60  1  0  0  0  0
 53 61  1  0  0  0  0
 54 59  1  0  0  0  0
 55 65  2  0  0  0  0
 55 66  1  0  0  0  0
 56125  1  0  0  0  0
 56126  1  0  0  0  0
 57 67  1  0  0  0  0
 57 68  1  0  0  0  0
 58 64  1  0  0  0  0
 59 62  1  0  0  0  0
 59127  1  0  0  0  0
 59128  1  0  0  0  0
 60129  1  0  0  0  0
 60130  1  0  0  0  0
 60131  1  0  0  0  0
 61132  1  0  0  0  0
 61133  1  0  0  0  0
 61134  1  0  0  0  0
 62 63  1  0  0  0  0
 62135  1  0  0  0  0
 62136  1  0  0  0  0
 64 69  1  0  0  0  0
 64137  1  0  0  0  0
 65 70  1  0  0  0  0
 65138  1  0  0  0  0
 66 71  2  0  0  0  0
 66139  1  0  0  0  0
 67140  1  0  0  0  0
 67141  1  0  0  0  0
 67142  1  0  0  0  0
 68143  1  0  0  0  0
 68144  1  0  0  0  0
 68145  1  0  0  0  0
 69 73  1  0  0  0  0
 69146  1  0  0  0  0
 69147  1  0  0  0  0
 70 72  2  0  0  0  0
 70148  1  0  0  0  0
 71 72  1  0  0  0  0
 71149  1  0  0  0  0
 72151  1  0  0  0  0
 74 75  1  0  0  0  0
 75 76  1  0  0  0  0
 76 77  2  0  0  0  0
 76154  1  0  0  0  0
 77 79  1  0  0  0  0
 77155  1  0  0  0  0
 78 79  1  0  0  0  0
 78 80  2  0  0  0  0
 79 81  2  0  0  0  0
 80 82  1  0  0  0  0
 80156  1  0  0  0  0
 81 83  1  0  0  0  0
 81157  1  0  0  0  0
 82 83  2  0  0  0  0
 82158  1  0  0  0  0
 83159  1  0  0  0  0
 84 86  1  0  0  0  0
 85 87  1  0  0  0  0
M  END
> <PUBCHEM_COMPOUND_CID>
500852
> <PUBCHEM_COMPOUND_CANONICALIZED>
1
> <PUBCHEM_CACTVS_COMPLEXITY>
2040
> <PUBCHEM_CACTVS_HBOND_ACCEPTOR>
25
> <PUBCHEM_CACTVS_HBOND_DONOR>
6
> <PUBCHEM_CACTVS_ROTATABLE_BOND>
21
> <PUBCHEM_CACTVS_SUBSKEYS>
AAADcfB/v8AAAAAAAAAAAAAAAAAAASJEgAA8eMECAAASAACx9AAAHwAQCAAADbzxnhcyyPPIFgCoAyXyXACCgCAnAiAImKG4ZNgbYPrA1bG3IQhllgDeyYff6KyOgAAAAAACAAAAAAAAACQAAAAAAAAAAA==
> <PUBCHEM_IUPAC_OPENEYE_NAME>
O1-[(5R,6S,6aS)-5-(2,2-dimethyl-1,3-dioxolan-4-yl)-2,2-dimethyl-3a,5,6,6a-tetrahydrofuro[2,3-d][1,3]dioxol-6-yl] O4-[(1R,2S)-2-[[(2S)-4-amino-4-oxo-2-(quinoline-2-carbonylamino)butanoyl]amino]-1-[[(3S)-3-(tert-butylcarbamoyl)-3,4,4a,5,6,7,8,8a-octahydro-1H-isoquinolin-2-yl]methyl]-3-phenyl-propyl] butanedioate;2,2,2-trifluoroacetic acid
> <PUBCHEM_IUPAC_CAS_NAME>
butanedioic acid O1-[(5R,6S,6aS)-5-(2,2-dimethyl-1,3-dioxolan-4-yl)-2,2-dimethyl-3a,5,6,6a-tetrahydrofuro[2,3-d][1,3]dioxol-6-yl] ester O4-[(2R,3S)-3-[[(2S)-4-amino-1,4-dioxo-2-[[oxo(2-quinolinyl)methyl]amino]butyl]amino]-1-[(3S)-3-[(tert-butylamino)-oxomethyl]-3,4,4a,5,6,7,8,8a-octahydro-1H-isoquinolin-2-yl]-4-phenylbutan-2-yl] ester;2,2,2-trifluoroacetic acid
> <PUBCHEM_IUPAC_NAME_MARKUP>
1-<I>O</I>-[(5<I>R</I>,6<I>S</I>,6<I>a</I><I>S</I>)-5-(2,2-dimethyl-1,3-dioxolan-4-yl)-2,2-dimethyl-3<I>a</I>,5,6,6<I>a</I>-tetrahydrofuro[2,3-d][1,3]dioxol-6-yl] 4-<I>O</I>-[(2<I>R</I>,3<I>S</I>)-3-[[(2<I>S</I>)-4-amino-4-oxo-2-(quinoline-2-carbonylamino)butanoyl]amino]-1-[(3<I>S</I>)-3-(<I>tert</I>-butylcarbamoyl)-3,4,4<I>a</I>,5,6,7,8,8<I>a</I>-octahydro-1<I>H</I>-isoquinolin-2-yl]-4-phenylbutan-2-yl] butanedioate;2,2,2-trifluoroacetic acid
> <PUBCHEM_IUPAC_NAME>
1-O-[(5R,6S,6aS)-5-(2,2-dimethyl-1,3-dioxolan-4-yl)-2,2-dimethyl-3a,5,6,6a-tetrahydrofuro[2,3-d][1,3]dioxol-6-yl] 4-O-[(2R,3S)-3-[[(2S)-4-amino-4-oxo-2-(quinoline-2-carbonylamino)butanoyl]amino]-1-[(3S)-3-(tert-butylcarbamoyl)-3,4,4a,5,6,7,8,8a-octahydro-1H-isoquinolin-2-yl]-4-phenylbutan-2-yl] butanedioate;2,2,2-trifluoroacetic acid
> <PUBCHEM_IUPAC_SYSTEMATIC_NAME>
O1-[(5R,6S,6aS)-5-(2,2-dimethyl-1,3-dioxolan-4-yl)-2,2-dimethyl-3a,5,6,6a-tetrahydrofuro[2,3-d][1,3]dioxol-6-yl] O4-[(2R,3S)-3-[[(2S)-4-azanyl-4-oxidanylidene-2-(quinolin-2-ylcarbonylamino)butanoyl]amino]-1-[(3S)-3-(tert-butylcarbamoyl)-3,4,4a,5,6,7,8,8a-octahydro-1H-isoquinolin-2-yl]-4-phenyl-butan-2-yl] butanedioate;2,2,2-tris(fluoranyl)ethanoic acid
> <PUBCHEM_IUPAC_TRADITIONAL_NAME>
succinic acid O1-[(5R,6S,6aS)-5-(2,2-dimethyl-1,3-dioxolan-4-yl)-2,2-dimethyl-3a,5,6,6a-tetrahydrofuro[2,3-d][1,3]dioxol-6-yl] ester O4-[(1R,2S)-2-[[(2S)-4-amino-4-keto-2-(quinaldoylamino)butanoyl]amino]-1-[[(3S)-3-(tert-butylcarbamoyl)-3,4,4a,5,6,7,8,8a-octahydro-1H-isoquinolin-2-yl]methyl]-3-phenyl-propyl] ester;2,2,2-trifluoroacetic acid
> <PUBCHEM_IUPAC_INCHI>
InChI=1S/C54H72N6O13.2C2HF3O2/c1-52(2,3)59-50(66)39-26-33-18-11-12-19-34(33)28-60(39)29-40(68-43(62)23-24-44(63)69-46-45(41-30-67-53(4,5)71-41)70-51-47(46)72-54(6,7)73-51)37(25-31-15-9-8-10-16-31)57-49(65)38(27-42(55)61)58-48(64)36-22-21-32-17-13-14-20-35(32)56-36;2*3-2(4,5)1(6)7/h8-10,13-17,20-22,33-34,37-41,45-47,51H,11-12,18-19,23-30H2,1-7H3,(H2,55,61)(H,57,65)(H,58,64)(H,59,66);2*(H,6,7)/t33?,34?,37-,38-,39-,40+,41?,45+,46-,47-,51?;;/m0../s1
> <PUBCHEM_IUPAC_INCHIKEY>
LBEIHXGLUWOURQ-QNRLNNGMSA-N
> <PUBCHEM_EXACT_MASS>
1240.50146389
> <PUBCHEM_MOLECULAR_FORMULA>
C58H74F6N6O17
> <PUBCHEM_MOLECULAR_WEIGHT>
1241.2
> <PUBCHEM_OPENEYE_CAN_SMILES>
CC1(OCC(O1)C2C(C3C(O2)OC(O3)(C)C)OC(=O)CCC(=O)OC(CN4CC5CCCCC5CC4C(=O)NC(C)(C)C)C(CC6=CC=CC=C6)NC(=O)C(CC(=O)N)NC(=O)C7=NC8=CC=CC=C8C=C7)C.C(=O)(C(F)(F)F)O.C(=O)(C(F)(F)F)O
> <PUBCHEM_OPENEYE_ISO_SMILES>
CC1(OCC(O1)[C@@H]2[C@@H]([C@H]3C(O2)OC(O3)(C)C)OC(=O)CCC(=O)O[C@H](CN4CC5CCCCC5C[C@H]4C(=O)NC(C)(C)C)[C@H](CC6=CC=CC=C6)NC(=O)[C@H](CC(=O)N)NC(=O)C7=NC8=CC=CC=C8C=C7)C.C(=O)(C(F)(F)F)O.C(=O)(C(F)(F)F)O
> <PUBCHEM_CACTVS_TPSA>
320
> <PUBCHEM_MONOISOTOPIC_WEIGHT>
1240.50146389
> <PUBCHEM_TOTAL_CHARGE>
0
> <PUBCHEM_HEAVY_ATOM_COUNT>
87
> <PUBCHEM_ATOM_DEF_STEREO_COUNT>
7
> <PUBCHEM_ATOM_UDEF_STEREO_COUNT>
4
> <PUBCHEM_BOND_DEF_STEREO_COUNT>
0
> <PUBCHEM_BOND_UDEF_STEREO_COUNT>
0
> <PUBCHEM_ISOTOPIC_ATOM_COUNT>
0
> <PUBCHEM_COMPONENT_COUNT>
3
> <PUBCHEM_CACTVS_TAUTO_COUNT>
-1
> <PUBCHEM_COORDINATE_TYPE>
1
5
255
> <PUBCHEM_BONDANNOTATIONS>
48  11  3
47  12  6
42  26  5
64  27  6
29  75  8
29  78  8
30  34  3
31  35  3
36  40  5
45  110  5
46  111  5
49  56  3
55  65  8
55  66  8
65  70  8
66  71  8
41  7  6
70  72  8
71  72  8
75  76  8
76  77  8
77  79  8
78  79  8
78  80  8
79  81  8
80  82  8
81  83  8
82  83  8
$$$$
