500888
  -OEChem-10302200282D
 45 47  0     1  0  0  0  0  0999 V2000
    4.3009    2.5308    0.0000 O   0  0  0  0  0  0  0  0  0  0  0  0
    2.7696    3.3935    0.0000 O   0  0  0  0  0  0  0  0  0  0  0  0
    5.5321   -2.8935    0.0000 O   0  0  0  0  0  0  0  0  0  0  0  0
    6.3981   -1.3935    0.0000 O   0  0  0  0  0  0  0  0  0  0  0  0
    3.8000    0.1065    0.0000 C   0  0  1  0  0  0  0  0  0  0  0  0
    3.8000    1.1065    0.0000 C   0  0  2  0  0  0  0  0  0  0  0  0
    2.9061    1.6412    0.0000 C   0  0  2  0  0  0  0  0  0  0  0  0
    4.6660   -0.3935    0.0000 C   0  0  3  0  0  0  0  0  0  0  0  0
    4.6660    1.6065    0.0000 C   0  0  3  0  0  0  0  0  0  0  0  0
    2.9061   -0.4282    0.0000 C   0  0  0  0  0  0  0  0  0  0  0  0
    2.0000    1.1273    0.0000 C   0  0  0  0  0  0  0  0  0  0  0  0
    2.0000    0.0857    0.0000 C   0  0  0  0  0  0  0  0  0  0  0  0
    3.8000   -0.8935    0.0000 C   0  0  0  0  0  0  0  0  0  0  0  0
    3.3073    2.5504    0.0000 C   0  0  0  0  0  0  0  0  0  0  0  0
    5.5321    0.1065    0.0000 C   0  0  0  0  0  0  0  0  0  0  0  0
    5.5321    1.1065    0.0000 C   0  0  0  0  0  0  0  0  0  0  0  0
    2.4161    2.5129    0.0000 C   0  0  0  0  0  0  0  0  0  0  0  0
    4.6660   -1.3935    0.0000 C   0  0  0  0  0  0  0  0  0  0  0  0
    6.3981   -0.3935    0.0000 C   0  0  0  0  0  0  0  0  0  0  0  0
    5.5321   -1.8935    0.0000 C   0  0  0  0  0  0  0  0  0  0  0  0
    6.3981   -3.3935    0.0000 C   0  0  0  0  0  0  0  0  0  0  0  0
    3.0639    0.6815    0.0000 H   0  0  0  0  0  0  0  0  0  0  0  0
    5.2030   -0.7035    0.0000 H   0  0  0  0  0  0  0  0  0  0  0  0
    5.1355    2.0114    0.0000 H   0  0  0  0  0  0  0  0  0  0  0  0
    2.5124   -0.9072    0.0000 H   0  0  0  0  0  0  0  0  0  0  0  0
    3.3107   -0.8979    0.0000 H   0  0  0  0  0  0  0  0  0  0  0  0
    1.7909    1.7110    0.0000 H   0  0  0  0  0  0  0  0  0  0  0  0
    1.3891    1.0212    0.0000 H   0  0  0  0  0  0  0  0  0  0  0  0
    1.3891    0.1918    0.0000 H   0  0  0  0  0  0  0  0  0  0  0  0
    1.7909   -0.4980    0.0000 H   0  0  0  0  0  0  0  0  0  0  0  0
    3.1800   -0.8935    0.0000 H   0  0  0  0  0  0  0  0  0  0  0  0
    3.8000   -1.5135    0.0000 H   0  0  0  0  0  0  0  0  0  0  0  0
    4.4200   -0.8935    0.0000 H   0  0  0  0  0  0  0  0  0  0  0  0
    6.0690    1.4165    0.0000 H   0  0  0  0  0  0  0  0  0  0  0  0
    2.9566    2.8167    0.0000 H   0  0  0  0  0  0  0  0  0  0  0  0
    2.1123    3.0534    0.0000 H   0  0  0  0  0  0  0  0  0  0  0  0
    1.8756    2.2091    0.0000 H   0  0  0  0  0  0  0  0  0  0  0  0
    4.0555   -1.2858    0.0000 H   0  0  0  0  0  0  0  0  0  0  0  0
    4.4540   -1.9761    0.0000 H   0  0  0  0  0  0  0  0  0  0  0  0
    6.0881   -0.9304    0.0000 H   0  0  0  0  0  0  0  0  0  0  0  0
    6.9350   -0.7035    0.0000 H   0  0  0  0  0  0  0  0  0  0  0  0
    6.7081    0.1434    0.0000 H   0  0  0  0  0  0  0  0  0  0  0  0
    6.0881   -3.9304    0.0000 H   0  0  0  0  0  0  0  0  0  0  0  0
    6.9350   -3.7035    0.0000 H   0  0  0  0  0  0  0  0  0  0  0  0
    6.7081   -2.8566    0.0000 H   0  0  0  0  0  0  0  0  0  0  0  0
  1  9  1  0  0  0  0
  1 14  1  0  0  0  0
  2 14  2  0  0  0  0
  3 20  1  0  0  0  0
  3 21  1  0  0  0  0
  4 20  2  0  0  0  0
  5  6  1  0  0  0  0
  5  8  1  0  0  0  0
  5 10  1  0  0  0  0
  5 13  1  6  0  0  0
  6  7  1  0  0  0  0
  6  9  1  0  0  0  0
  6 22  1  1  0  0  0
  7 11  1  0  0  0  0
  7 14  1  0  0  0  0
  7 17  1  1  0  0  0
  8 15  1  0  0  0  0
  8 18  1  0  0  0  0
  8 23  1  0  0  0  0
  9 16  1  0  0  0  0
  9 24  1  0  0  0  0
 10 12  1  0  0  0  0
 10 25  1  0  0  0  0
 10 26  1  0  0  0  0
 11 12  1  0  0  0  0
 11 27  1  0  0  0  0
 11 28  1  0  0  0  0
 12 29  1  0  0  0  0
 12 30  1  0  0  0  0
 13 31  1  0  0  0  0
 13 32  1  0  0  0  0
 13 33  1  0  0  0  0
 15 16  2  0  0  0  0
 15 19  1  0  0  0  0
 16 34  1  0  0  0  0
 17 35  1  0  0  0  0
 17 36  1  0  0  0  0
 17 37  1  0  0  0  0
 18 20  1  0  0  0  0
 18 38  1  0  0  0  0
 18 39  1  0  0  0  0
 19 40  1  0  0  0  0
 19 41  1  0  0  0  0
 19 42  1  0  0  0  0
 21 43  1  0  0  0  0
 21 44  1  0  0  0  0
 21 45  1  0  0  0  0
M  END
> <PUBCHEM_COMPOUND_CID>
500888
> <PUBCHEM_COMPOUND_CANONICALIZED>
1
> <PUBCHEM_CACTVS_COMPLEXITY>
523
> <PUBCHEM_CACTVS_HBOND_ACCEPTOR>
4
> <PUBCHEM_CACTVS_HBOND_DONOR>
0
> <PUBCHEM_CACTVS_ROTATABLE_BOND>
3
> <PUBCHEM_CACTVS_SUBSKEYS>
AAADceB4OAAAAAAAAAAAAAAAAAAAASAAAAAwQAAAAAAAAEiAAAAAGgAAAAAADxSggAICCAAABACIAiDSCAAAAAAgAAAACAEAAAgABBIAIQACEAAEgAAIIAOKyPCPgAAAAAAAAAAAAAQAACAAAAAAAAAAAA==
> <PUBCHEM_IUPAC_OPENEYE_NAME>
methyl 2-[(4S,8R,12R)-4,8,10-trimethyl-3-oxo-2-oxatricyclo[6.3.1.04,12]dodec-10-en-9-yl]acetate
> <PUBCHEM_IUPAC_CAS_NAME>
2-[(4S,8R,12R)-4,8,10-trimethyl-3-oxo-2-oxatricyclo[6.3.1.04,12]dodec-10-en-9-yl]acetic acid methyl ester
> <PUBCHEM_IUPAC_NAME_MARKUP>
methyl 2-[(4<I>S</I>,8<I>R</I>,12<I>R</I>)-4,8,10-trimethyl-3-oxo-2-oxatricyclo[6.3.1.0<SUP>4,12</SUP>]dodec-10-en-9-yl]acetate
> <PUBCHEM_IUPAC_NAME>
methyl 2-[(4S,8R,12R)-4,8,10-trimethyl-3-oxo-2-oxatricyclo[6.3.1.04,12]dodec-10-en-9-yl]acetate
> <PUBCHEM_IUPAC_SYSTEMATIC_NAME>
methyl 2-[(4S,8R,12R)-4,8,10-trimethyl-3-oxidanylidene-2-oxatricyclo[6.3.1.04,12]dodec-10-en-9-yl]ethanoate
> <PUBCHEM_IUPAC_TRADITIONAL_NAME>
2-[(4S,8R,12R)-3-keto-4,8,10-trimethyl-2-oxatricyclo[6.3.1.04,12]dodec-10-en-9-yl]acetic acid methyl ester
> <PUBCHEM_IUPAC_INCHI>
InChI=1S/C17H24O4/c1-10-8-12-14-16(2,11(10)9-13(18)20-4)6-5-7-17(14,3)15(19)21-12/h8,11-12,14H,5-7,9H2,1-4H3/t11?,12?,14-,16-,17+/m1/s1
> <PUBCHEM_IUPAC_INCHIKEY>
RKATVYQIDPSOOH-VSCDXZKESA-N
> <PUBCHEM_XLOGP3_AA>
2.6
> <PUBCHEM_EXACT_MASS>
292.16745924
> <PUBCHEM_MOLECULAR_FORMULA>
C17H24O4
> <PUBCHEM_MOLECULAR_WEIGHT>
292.4
> <PUBCHEM_OPENEYE_CAN_SMILES>
CC1=CC2C3C(C1CC(=O)OC)(CCCC3(C(=O)O2)C)C
> <PUBCHEM_OPENEYE_ISO_SMILES>
CC1=CC2[C@@H]3[C@@](C1CC(=O)OC)(CCC[C@@]3(C(=O)O2)C)C
> <PUBCHEM_CACTVS_TPSA>
52.6
> <PUBCHEM_MONOISOTOPIC_WEIGHT>
292.16745924
> <PUBCHEM_TOTAL_CHARGE>
0
> <PUBCHEM_HEAVY_ATOM_COUNT>
21
> <PUBCHEM_ATOM_DEF_STEREO_COUNT>
3
> <PUBCHEM_ATOM_UDEF_STEREO_COUNT>
2
> <PUBCHEM_BOND_DEF_STEREO_COUNT>
0
> <PUBCHEM_BOND_UDEF_STEREO_COUNT>
0
> <PUBCHEM_ISOTOPIC_ATOM_COUNT>
0
> <PUBCHEM_COMPONENT_COUNT>
1
> <PUBCHEM_CACTVS_TAUTO_COUNT>
-1
> <PUBCHEM_COORDINATE_TYPE>
1
5
255
> <PUBCHEM_BONDANNOTATIONS>
5  13  6
6  22  5
7  17  5
8  18  3
9  16  3
$$$$
