500886
  -OEChem-10302200282D
 38 41  0     1  0  0  0  0  0999 V2000
    6.1360   -1.0450    0.0000 O   0  0  0  0  0  0  0  0  0  0  0  0
    6.1174   -2.8026    0.0000 O   0  0  0  0  0  0  0  0  0  0  0  0
    3.7700    2.8026    0.0000 O   0  0  0  0  0  0  0  0  0  0  0  0
    2.0000    2.7784    0.0000 O   0  0  0  0  0  0  0  0  0  0  0  0
    4.6520   -0.7667    0.0000 C   0  0  2  0  0  0  0  0  0  0  0  0
    3.7860   -0.2667    0.0000 C   0  0  2  0  0  0  0  0  0  0  0  0
    4.6681   -1.8082    0.0000 C   0  0  2  0  0  0  0  0  0  0  0  0
    5.5180   -0.2667    0.0000 C   0  0  3  0  0  0  0  0  0  0  0  0
    2.8760   -0.7735    0.0000 C   0  0  0  0  0  0  0  0  0  0  0  0
    3.7700   -2.3359    0.0000 C   0  0  0  0  0  0  0  0  0  0  0  0
    2.8680   -1.8151    0.0000 C   0  0  0  0  0  0  0  0  0  0  0  0
    3.7860    0.7333    0.0000 C   0  0  0  0  0  0  0  0  0  0  0  0
    5.6561   -1.9153    0.0000 C   0  0  0  0  0  0  0  0  0  0  0  0
    2.9200    0.2333    0.0000 C   0  0  0  0  0  0  0  0  0  0  0  0
    5.1780   -2.6684    0.0000 C   0  0  0  0  0  0  0  0  0  0  0  0
    5.5180    0.7333    0.0000 C   0  0  0  0  0  0  0  0  0  0  0  0
    4.6520    1.2333    0.0000 C   0  0  0  0  0  0  0  0  0  0  0  0
    2.8760    1.2402    0.0000 C   0  0  0  0  0  0  0  0  0  0  0  0
    4.6681    2.2748    0.0000 C   0  0  0  0  0  0  0  0  0  0  0  0
    2.8680    2.2818    0.0000 C   0  0  0  0  0  0  0  0  0  0  0  0
    3.9159   -1.1917    0.0000 H   0  0  0  0  0  0  0  0  0  0  0  0
    6.1035   -0.0625    0.0000 H   0  0  0  0  0  0  0  0  0  0  0  0
    2.6714   -0.1882    0.0000 H   0  0  0  0  0  0  0  0  0  0  0  0
    2.2643   -0.8749    0.0000 H   0  0  0  0  0  0  0  0  0  0  0  0
    3.3727   -2.8119    0.0000 H   0  0  0  0  0  0  0  0  0  0  0  0
    4.1710   -2.8088    0.0000 H   0  0  0  0  0  0  0  0  0  0  0  0
    2.2579   -1.7043    0.0000 H   0  0  0  0  0  0  0  0  0  0  0  0
    2.6544   -2.3972    0.0000 H   0  0  0  0  0  0  0  0  0  0  0  0
    3.2300    0.7703    0.0000 H   0  0  0  0  0  0  0  0  0  0  0  0
    2.3830    0.5433    0.0000 H   0  0  0  0  0  0  0  0  0  0  0  0
    2.6100   -0.3036    0.0000 H   0  0  0  0  0  0  0  0  0  0  0  0
    4.6447   -2.9846    0.0000 H   0  0  0  0  0  0  0  0  0  0  0  0
    5.4942   -3.2017    0.0000 H   0  0  0  0  0  0  0  0  0  0  0  0
    5.7114   -2.3522    0.0000 H   0  0  0  0  0  0  0  0  0  0  0  0
    6.0550    1.0433    0.0000 H   0  0  0  0  0  0  0  0  0  0  0  0
    2.3427    0.9240    0.0000 H   0  0  0  0  0  0  0  0  0  0  0  0
    5.2772    2.1593    0.0000 H   0  0  0  0  0  0  0  0  0  0  0  0
    4.8861    2.8552    0.0000 H   0  0  0  0  0  0  0  0  0  0  0  0
  1  8  1  0  0  0  0
  1 13  1  0  0  0  0
  2 13  2  0  0  0  0
  3 19  1  0  0  0  0
  3 20  1  0  0  0  0
  4 20  2  0  0  0  0
  5  6  1  0  0  0  0
  5  7  1  0  0  0  0
  5  8  1  0  0  0  0
  5 21  1  6  0  0  0
  6  9  1  0  0  0  0
  6 12  1  0  0  0  0
  6 14  1  1  0  0  0
  7 10  1  0  0  0  0
  7 13  1  0  0  0  0
  7 15  1  6  0  0  0
  8 16  1  0  0  0  0
  8 22  1  0  0  0  0
  9 11  1  0  0  0  0
  9 23  1  0  0  0  0
  9 24  1  0  0  0  0
 10 11  1  0  0  0  0
 10 25  1  0  0  0  0
 10 26  1  0  0  0  0
 11 27  1  0  0  0  0
 11 28  1  0  0  0  0
 12 17  1  0  0  0  0
 12 18  2  0  0  0  0
 14 29  1  0  0  0  0
 14 30  1  0  0  0  0
 14 31  1  0  0  0  0
 15 32  1  0  0  0  0
 15 33  1  0  0  0  0
 15 34  1  0  0  0  0
 16 17  2  0  0  0  0
 16 35  1  0  0  0  0
 17 19  1  0  0  0  0
 18 20  1  0  0  0  0
 18 36  1  0  0  0  0
 19 37  1  0  0  0  0
 19 38  1  0  0  0  0
M  END
> <PUBCHEM_COMPOUND_CID>
500886
> <PUBCHEM_COMPOUND_CANONICALIZED>
1
> <PUBCHEM_CACTVS_COMPLEXITY>
587
> <PUBCHEM_CACTVS_HBOND_ACCEPTOR>
4
> <PUBCHEM_CACTVS_HBOND_DONOR>
0
> <PUBCHEM_CACTVS_ROTATABLE_BOND>
0
> <PUBCHEM_CACTVS_SUBSKEYS>
AAADceB4OAAAAAAAAAAAAAAAAAAAASAAAAAwQIAAAAAAAEiAAAAAGgAAAAAADxSggAICCAAABACIAiDSCAAAAAAgAAAACAEAAEgIBBIAIQACEAAEwAAIoQOKyPCPgAAAAAAAAAAAAAQAACAAAAAAAAAAAA==
> <PUBCHEM_IUPAC_OPENEYE_NAME>
(1S,12S,16R)-1,12-dimethyl-5,10-dioxatetracyclo[7.6.1.02,7.012,16]hexadeca-2,7-diene-4,11-dione
> <PUBCHEM_IUPAC_CAS_NAME>
(1S,12S,16R)-1,12-dimethyl-5,10-dioxatetracyclo[7.6.1.02,7.012,16]hexadeca-2,7-diene-4,11-dione
> <PUBCHEM_IUPAC_NAME_MARKUP>
(1<I>S</I>,12<I>S</I>,16<I>R</I>)-1,12-dimethyl-5,10-dioxatetracyclo[7.6.1.0<SUP>2,7</SUP>.0<SUP>12,16</SUP>]hexadeca-2,7-diene-4,11-dione
> <PUBCHEM_IUPAC_NAME>
(1S,12S,16R)-1,12-dimethyl-5,10-dioxatetracyclo[7.6.1.02,7.012,16]hexadeca-2,7-diene-4,11-dione
> <PUBCHEM_IUPAC_SYSTEMATIC_NAME>
(1S,12S,16R)-1,12-dimethyl-5,10-dioxatetracyclo[7.6.1.02,7.012,16]hexadeca-2,7-diene-4,11-dione
> <PUBCHEM_IUPAC_TRADITIONAL_NAME>
(1S,12S,16R)-1,12-dimethyl-5,10-dioxatetracyclo[7.6.1.02,7.012,16]hexadeca-2,7-diene-4,11-quinone
> <PUBCHEM_IUPAC_INCHI>
InChI=1S/C16H18O4/c1-15-4-3-5-16(2)13(15)11(20-14(16)18)6-9-8-19-12(17)7-10(9)15/h6-7,11,13H,3-5,8H2,1-2H3/t11?,13-,15-,16+/m1/s1
> <PUBCHEM_IUPAC_INCHIKEY>
CADKOFRWMORBOD-VFGUYGFMSA-N
> <PUBCHEM_XLOGP3_AA>
1.8
> <PUBCHEM_EXACT_MASS>
274.12050905
> <PUBCHEM_MOLECULAR_FORMULA>
C16H18O4
> <PUBCHEM_MOLECULAR_WEIGHT>
274.31
> <PUBCHEM_OPENEYE_CAN_SMILES>
CC12CCCC3(C1C(C=C4C2=CC(=O)OC4)OC3=O)C
> <PUBCHEM_OPENEYE_ISO_SMILES>
C[C@]12CCC[C@]3([C@@H]1C(C=C4C2=CC(=O)OC4)OC3=O)C
> <PUBCHEM_CACTVS_TPSA>
52.6
> <PUBCHEM_MONOISOTOPIC_WEIGHT>
274.12050905
> <PUBCHEM_TOTAL_CHARGE>
0
> <PUBCHEM_HEAVY_ATOM_COUNT>
20
> <PUBCHEM_ATOM_DEF_STEREO_COUNT>
3
> <PUBCHEM_ATOM_UDEF_STEREO_COUNT>
1
> <PUBCHEM_BOND_DEF_STEREO_COUNT>
0
> <PUBCHEM_BOND_UDEF_STEREO_COUNT>
0
> <PUBCHEM_ISOTOPIC_ATOM_COUNT>
0
> <PUBCHEM_COMPONENT_COUNT>
1
> <PUBCHEM_CACTVS_TAUTO_COUNT>
-1
> <PUBCHEM_COORDINATE_TYPE>
1
5
255
> <PUBCHEM_BONDANNOTATIONS>
5  21  6
6  14  5
7  15  6
8  16  3
$$$$
