500864
  -OEChem-10302200282D
139145  0     1  0  0  0  0  0999 V2000
   12.3913    0.2395    0.0000 S   0  0  0  0  0  0  0  0  0  0  0  0
    9.7933    1.7395    0.0000 O   0  0  0  0  0  0  0  0  0  0  0  0
   11.5253    4.7395    0.0000 O   0  0  0  0  0  0  0  0  0  0  0  0
    5.8292   -6.7993    0.0000 O   0  0  0  0  0  0  0  0  0  0  0  0
    8.1323   -5.8508    0.0000 O   0  0  0  0  0  0  0  0  0  0  0  0
    7.6349   -7.3815    0.0000 O   0  0  0  0  0  0  0  0  0  0  0  0
    3.7601   -6.1270    0.0000 O   0  0  0  0  0  0  0  0  0  0  0  0
    6.3292   -4.2605    0.0000 O   0  0  0  0  0  0  0  0  0  0  0  0
    3.2601   -4.5882    0.0000 O   0  0  0  0  0  0  0  0  0  0  0  0
   10.6593    0.2395    0.0000 O   0  0  0  0  0  0  0  0  0  0  0  0
   13.2574    0.7395    0.0000 O   0  0  0  0  0  0  0  0  0  0  0  0
    8.0612   -4.2605    0.0000 O   0  0  0  0  0  0  0  0  0  0  0  0
   14.9894    4.7395    0.0000 O   0  0  0  0  0  0  0  0  0  0  0  0
    9.7933    3.7395    0.0000 N   0  0  3  0  0  0  0  0  0  0  0  0
   10.6593    6.2395    0.0000 N   0  0  0  0  0  0  0  0  0  0  0  0
   12.3913    2.2395    0.0000 N   0  0  0  0  0  0  0  0  0  0  0  0
    7.1952   -2.7605    0.0000 N   0  0  0  0  0  0  0  0  0  0  0  0
    8.0612    4.7395    0.0000 C   0  0  2  0  0  0  0  0  0  0  0  0
    8.0612    3.7395    0.0000 C   0  0  1  0  0  0  0  0  0  0  0  0
    8.9272    5.2395    0.0000 C   0  0  0  0  0  0  0  0  0  0  0  0
    8.9272    3.2395    0.0000 C   0  0  0  0  0  0  0  0  0  0  0  0
    7.1673    5.2742    0.0000 C   0  0  0  0  0  0  0  0  0  0  0  0
    7.1673    3.2049    0.0000 C   0  0  0  0  0  0  0  0  0  0  0  0
    9.7933    4.7395    0.0000 C   0  0  1  0  0  0  0  0  0  0  0  0
    6.2612    4.7603    0.0000 C   0  0  0  0  0  0  0  0  0  0  0  0
    6.2612    3.7187    0.0000 C   0  0  0  0  0  0  0  0  0  0  0  0
   10.6593    3.2395    0.0000 C   0  0  0  0  0  0  0  0  0  0  0  0
   10.6593    5.2395    0.0000 C   0  0  0  0  0  0  0  0  0  0  0  0
   10.6593    2.2395    0.0000 C   0  0  2  0  0  0  0  0  0  0  0  0
   11.5253    1.7395    0.0000 C   0  0  2  0  0  0  0  0  0  0  0  0
   11.5253    6.7395    0.0000 C   0  0  0  0  0  0  0  0  0  0  0  0
    7.1382   -5.8483    0.0000 C   0  0  1  0  0  0  0  0  0  0  0  0
    5.5202   -5.8483    0.0000 C   0  0  1  0  0  0  0  0  0  0  0  0
    6.3292   -5.2605    0.0000 C   0  0  2  0  0  0  0  0  0  0  0  0
    6.8292   -6.7993    0.0000 C   0  0  3  0  0  0  0  0  0  0  0  0
    4.5691   -5.5392    0.0000 C   0  0  3  0  0  0  0  0  0  0  0  0
   11.5253    0.7395    0.0000 C   0  0  0  0  0  0  0  0  0  0  0  0
    8.4386   -6.7965    0.0000 C   0  0  0  0  0  0  0  0  0  0  0  0
    4.2601   -4.5882    0.0000 C   0  0  0  0  0  0  0  0  0  0  0  0
   12.3913    7.2395    0.0000 C   0  0  0  0  0  0  0  0  0  0  0  0
   11.0253    7.6056    0.0000 C   0  0  0  0  0  0  0  0  0  0  0  0
   12.0253    5.8735    0.0000 C   0  0  0  0  0  0  0  0  0  0  0  0
    2.9511   -5.5392    0.0000 C   0  0  0  0  0  0  0  0  0  0  0  0
    9.7933    0.7395    0.0000 C   0  0  0  0  0  0  0  0  0  0  0  0
    9.0264   -7.6056    0.0000 C   0  0  0  0  0  0  0  0  0  0  0  0
    9.3897   -6.4875    0.0000 C   0  0  0  0  0  0  0  0  0  0  0  0
   13.2574    1.7395    0.0000 C   0  0  0  0  0  0  0  0  0  0  0  0
    8.9272    0.2395    0.0000 C   0  0  0  0  0  0  0  0  0  0  0  0
    2.3633   -6.3483    0.0000 C   0  0  0  0  0  0  0  0  0  0  0  0
    2.0000   -5.2302    0.0000 C   0  0  0  0  0  0  0  0  0  0  0  0
    7.1952   -3.7605    0.0000 C   0  0  0  0  0  0  0  0  0  0  0  0
    8.9272   -0.7605    0.0000 C   0  0  0  0  0  0  0  0  0  0  0  0
   14.1234    2.2395    0.0000 C   0  0  0  0  0  0  0  0  0  0  0  0
    8.0612   -1.2605    0.0000 C   0  0  0  0  0  0  0  0  0  0  0  0
   12.3913   -0.7605    0.0000 C   0  0  0  0  0  0  0  0  0  0  0  0
    8.0612   -2.2605    0.0000 C   0  0  0  0  0  0  0  0  0  0  0  0
   14.1234    3.2395    0.0000 C   0  0  0  0  0  0  0  0  0  0  0  0
   14.9894    1.7395    0.0000 C   0  0  0  0  0  0  0  0  0  0  0  0
   11.5253   -1.2605    0.0000 C   0  0  0  0  0  0  0  0  0  0  0  0
   13.2574   -1.2605    0.0000 C   0  0  0  0  0  0  0  0  0  0  0  0
   14.9894    3.7395    0.0000 C   0  0  0  0  0  0  0  0  0  0  0  0
   13.2574    3.7395    0.0000 C   0  0  0  0  0  0  0  0  0  0  0  0
   15.8554    2.2395    0.0000 C   0  0  0  0  0  0  0  0  0  0  0  0
   11.5253   -2.2605    0.0000 C   0  0  0  0  0  0  0  0  0  0  0  0
   13.2574   -2.2605    0.0000 C   0  0  0  0  0  0  0  0  0  0  0  0
   15.8554    3.2395    0.0000 C   0  0  0  0  0  0  0  0  0  0  0  0
   12.3913   -2.7605    0.0000 C   0  0  0  0  0  0  0  0  0  0  0  0
    8.0678    5.5895    0.0000 H   0  0  0  0  0  0  0  0  0  0  0  0
    8.0678    2.8896    0.0000 H   0  0  0  0  0  0  0  0  0  0  0  0
    9.3258    5.7145    0.0000 H   0  0  0  0  0  0  0  0  0  0  0  0
    8.5287    5.7145    0.0000 H   0  0  0  0  0  0  0  0  0  0  0  0
    8.5287    2.7646    0.0000 H   0  0  0  0  0  0  0  0  0  0  0  0
    9.3258    2.7646    0.0000 H   0  0  0  0  0  0  0  0  0  0  0  0
    7.5719    5.7440    0.0000 H   0  0  0  0  0  0  0  0  0  0  0  0
    6.7736    5.7532    0.0000 H   0  0  0  0  0  0  0  0  0  0  0  0
    6.7736    2.7258    0.0000 H   0  0  0  0  0  0  0  0  0  0  0  0
    7.5719    2.7351    0.0000 H   0  0  0  0  0  0  0  0  0  0  0  0
   10.3302    4.4295    0.0000 H   0  0  0  0  0  0  0  0  0  0  0  0
    6.0522    5.3440    0.0000 H   0  0  0  0  0  0  0  0  0  0  0  0
    5.6504    4.6542    0.0000 H   0  0  0  0  0  0  0  0  0  0  0  0
    5.6504    3.8248    0.0000 H   0  0  0  0  0  0  0  0  0  0  0  0
    6.0522    3.1350    0.0000 H   0  0  0  0  0  0  0  0  0  0  0  0
   11.2699    3.1319    0.0000 H   0  0  0  0  0  0  0  0  0  0  0  0
   10.8713    3.8221    0.0000 H   0  0  0  0  0  0  0  0  0  0  0  0
   10.6593    1.6195    0.0000 H   0  0  0  0  0  0  0  0  0  0  0  0
   11.5253    2.3595    0.0000 H   0  0  0  0  0  0  0  0  0  0  0  0
   10.1224    6.5495    0.0000 H   0  0  0  0  0  0  0  0  0  0  0  0
    7.4019   -5.0402    0.0000 H   0  0  0  0  0  0  0  0  0  0  0  0
    4.9191   -6.4493    0.0000 H   0  0  0  0  0  0  0  0  0  0  0  0
    6.8816   -4.9790    0.0000 H   0  0  0  0  0  0  0  0  0  0  0  0
    6.6383   -7.3892    0.0000 H   0  0  0  0  0  0  0  0  0  0  0  0
    4.6661   -6.1516    0.0000 H   0  0  0  0  0  0  0  0  0  0  0  0
   10.9147    0.8472    0.0000 H   0  0  0  0  0  0  0  0  0  0  0  0
   11.3133    0.1569    0.0000 H   0  0  0  0  0  0  0  0  0  0  0  0
   12.3913    2.8595    0.0000 H   0  0  0  0  0  0  0  0  0  0  0  0
    4.8665   -4.4593    0.0000 H   0  0  0  0  0  0  0  0  0  0  0  0
    4.1953   -3.9716    0.0000 H   0  0  0  0  0  0  0  0  0  0  0  0
   12.7013    6.7026    0.0000 H   0  0  0  0  0  0  0  0  0  0  0  0
   12.9283    7.5495    0.0000 H   0  0  0  0  0  0  0  0  0  0  0  0
   12.0813    7.7765    0.0000 H   0  0  0  0  0  0  0  0  0  0  0  0
   11.5623    7.9156    0.0000 H   0  0  0  0  0  0  0  0  0  0  0  0
   10.7153    8.1425    0.0000 H   0  0  0  0  0  0  0  0  0  0  0  0
   10.4884    7.2956    0.0000 H   0  0  0  0  0  0  0  0  0  0  0  0
   11.4884    5.5635    0.0000 H   0  0  0  0  0  0  0  0  0  0  0  0
   12.3353    5.3366    0.0000 H   0  0  0  0  0  0  0  0  0  0  0  0
   12.5623    6.1835    0.0000 H   0  0  0  0  0  0  0  0  0  0  0  0
    8.5248   -7.9700    0.0000 H   0  0  0  0  0  0  0  0  0  0  0  0
    9.3908   -8.1071    0.0000 H   0  0  0  0  0  0  0  0  0  0  0  0
    9.5280   -7.2411    0.0000 H   0  0  0  0  0  0  0  0  0  0  0  0
    9.5813   -7.0772    0.0000 H   0  0  0  0  0  0  0  0  0  0  0  0
    9.9793   -6.2959    0.0000 H   0  0  0  0  0  0  0  0  0  0  0  0
    9.1981   -5.8979    0.0000 H   0  0  0  0  0  0  0  0  0  0  0  0
    8.7152    0.8221    0.0000 H   0  0  0  0  0  0  0  0  0  0  0  0
    8.3167    0.1319    0.0000 H   0  0  0  0  0  0  0  0  0  0  0  0
    1.8617   -5.9838    0.0000 H   0  0  0  0  0  0  0  0  0  0  0  0
    1.9988   -6.8498    0.0000 H   0  0  0  0  0  0  0  0  0  0  0  0
    2.8649   -6.7127    0.0000 H   0  0  0  0  0  0  0  0  0  0  0  0
    2.1916   -4.6406    0.0000 H   0  0  0  0  0  0  0  0  0  0  0  0
    1.4103   -5.0386    0.0000 H   0  0  0  0  0  0  0  0  0  0  0  0
    1.8084   -5.8199    0.0000 H   0  0  0  0  0  0  0  0  0  0  0  0
    9.1393   -1.3431    0.0000 H   0  0  0  0  0  0  0  0  0  0  0  0
    9.5378   -0.6528    0.0000 H   0  0  0  0  0  0  0  0  0  0  0  0
    7.8492   -0.6779    0.0000 H   0  0  0  0  0  0  0  0  0  0  0  0
    7.4506   -1.3681    0.0000 H   0  0  0  0  0  0  0  0  0  0  0  0
    6.6582   -2.4505    0.0000 H   0  0  0  0  0  0  0  0  0  0  0  0
    8.2733   -2.8431    0.0000 H   0  0  0  0  0  0  0  0  0  0  0  0
    8.6718   -2.1528    0.0000 H   0  0  0  0  0  0  0  0  0  0  0  0
   14.9894    1.1195    0.0000 H   0  0  0  0  0  0  0  0  0  0  0  0
   10.9884   -0.9505    0.0000 H   0  0  0  0  0  0  0  0  0  0  0  0
   13.7943   -0.9505    0.0000 H   0  0  0  0  0  0  0  0  0  0  0  0
   13.5674    4.2765    0.0000 H   0  0  0  0  0  0  0  0  0  0  0  0
   12.7204    4.0495    0.0000 H   0  0  0  0  0  0  0  0  0  0  0  0
   12.9474    3.2026    0.0000 H   0  0  0  0  0  0  0  0  0  0  0  0
   16.3924    1.9295    0.0000 H   0  0  0  0  0  0  0  0  0  0  0  0
   10.9884   -2.5705    0.0000 H   0  0  0  0  0  0  0  0  0  0  0  0
   13.7943   -2.5705    0.0000 H   0  0  0  0  0  0  0  0  0  0  0  0
   16.3924    3.5495    0.0000 H   0  0  0  0  0  0  0  0  0  0  0  0
   12.3913   -3.3805    0.0000 H   0  0  0  0  0  0  0  0  0  0  0  0
   15.5264    5.0495    0.0000 H   0  0  0  0  0  0  0  0  0  0  0  0
  1 37  1  0  0  0  0
  1 55  1  0  0  0  0
 29  2  1  6  0  0  0
  2 44  1  0  0  0  0
  3 28  2  0  0  0  0
  4 33  1  0  0  0  0
  4 35  1  0  0  0  0
  5 32  1  0  0  0  0
  5 38  1  0  0  0  0
  6 35  1  0  0  0  0
  6 38  1  0  0  0  0
  7 36  1  0  0  0  0
  7 43  1  0  0  0  0
 34  8  1  6  0  0  0
  8 51  1  0  0  0  0
  9 39  1  0  0  0  0
  9 43  1  0  0  0  0
 10 44  2  0  0  0  0
 11 47  2  0  0  0  0
 12 51  2  0  0  0  0
 13 61  1  0  0  0  0
 13139  1  0  0  0  0
 14 21  1  0  0  0  0
 14 24  1  0  0  0  0
 14 27  1  0  0  0  0
 15 28  1  0  0  0  0
 15 31  1  0  0  0  0
 15 87  1  0  0  0  0
 30 16  1  1  0  0  0
 16 47  1  0  0  0  0
 16 95  1  0  0  0  0
 17 51  1  0  0  0  0
 17 56  1  0  0  0  0
 17125  1  0  0  0  0
 18 19  1  0  0  0  0
 18 20  1  0  0  0  0
 18 22  1  0  0  0  0
 18 68  1  6  0  0  0
 19 21  1  0  0  0  0
 19 23  1  0  0  0  0
 19 69  1  6  0  0  0
 20 24  1  0  0  0  0
 20 70  1  0  0  0  0
 20 71  1  0  0  0  0
 21 72  1  0  0  0  0
 21 73  1  0  0  0  0
 22 25  1  0  0  0  0
 22 74  1  0  0  0  0
 22 75  1  0  0  0  0
 23 26  1  0  0  0  0
 23 76  1  0  0  0  0
 23 77  1  0  0  0  0
 24 28  1  1  0  0  0
 24 78  1  0  0  0  0
 25 26  1  0  0  0  0
 25 79  1  0  0  0  0
 25 80  1  0  0  0  0
 26 81  1  0  0  0  0
 26 82  1  0  0  0  0
 27 29  1  0  0  0  0
 27 83  1  0  0  0  0
 27 84  1  0  0  0  0
 29 30  1  0  0  0  0
 29 85  1  0  0  0  0
 30 37  1  0  0  0  0
 30 86  1  0  0  0  0
 31 40  1  0  0  0  0
 31 41  1  0  0  0  0
 31 42  1  0  0  0  0
 32 34  1  0  0  0  0
 32 35  1  0  0  0  0
 32 88  1  1  0  0  0
 33 34  1  0  0  0  0
 33 36  1  0  0  0  0
 33 89  1  1  0  0  0
 34 90  1  0  0  0  0
 35 91  1  0  0  0  0
 36 39  1  0  0  0  0
 36 92  1  0  0  0  0
 37 93  1  0  0  0  0
 37 94  1  0  0  0  0
 38 45  1  0  0  0  0
 38 46  1  0  0  0  0
 39 96  1  0  0  0  0
 39 97  1  0  0  0  0
 40 98  1  0  0  0  0
 40 99  1  0  0  0  0
 40100  1  0  0  0  0
 41101  1  0  0  0  0
 41102  1  0  0  0  0
 41103  1  0  0  0  0
 42104  1  0  0  0  0
 42105  1  0  0  0  0
 42106  1  0  0  0  0
 43 49  1  0  0  0  0
 43 50  1  0  0  0  0
 44 48  1  0  0  0  0
 45107  1  0  0  0  0
 45108  1  0  0  0  0
 45109  1  0  0  0  0
 46110  1  0  0  0  0
 46111  1  0  0  0  0
 46112  1  0  0  0  0
 47 53  1  0  0  0  0
 48 52  1  0  0  0  0
 48113  1  0  0  0  0
 48114  1  0  0  0  0
 49115  1  0  0  0  0
 49116  1  0  0  0  0
 49117  1  0  0  0  0
 50118  1  0  0  0  0
 50119  1  0  0  0  0
 50120  1  0  0  0  0
 52 54  1  0  0  0  0
 52121  1  0  0  0  0
 52122  1  0  0  0  0
 53 57  2  0  0  0  0
 53 58  1  0  0  0  0
 54 56  1  0  0  0  0
 54123  1  0  0  0  0
 54124  1  0  0  0  0
 55 59  2  0  0  0  0
 55 60  1  0  0  0  0
 56126  1  0  0  0  0
 56127  1  0  0  0  0
 57 61  1  0  0  0  0
 57 62  1  0  0  0  0
 58 63  2  0  0  0  0
 58128  1  0  0  0  0
 59 64  1  0  0  0  0
 59129  1  0  0  0  0
 60 65  2  0  0  0  0
 60130  1  0  0  0  0
 61 66  2  0  0  0  0
 62131  1  0  0  0  0
 62132  1  0  0  0  0
 62133  1  0  0  0  0
 63 66  1  0  0  0  0
 63134  1  0  0  0  0
 64 67  2  0  0  0  0
 64135  1  0  0  0  0
 65 67  1  0  0  0  0
 65136  1  0  0  0  0
 66137  1  0  0  0  0
 67138  1  0  0  0  0
M  END
> <PUBCHEM_COMPOUND_CID>
500864
> <PUBCHEM_COMPOUND_CANONICALIZED>
1
> <PUBCHEM_CACTVS_COMPLEXITY>
1670
> <PUBCHEM_CACTVS_HBOND_ACCEPTOR>
14
> <PUBCHEM_CACTVS_HBOND_DONOR>
4
> <PUBCHEM_CACTVS_ROTATABLE_BOND>
20
> <PUBCHEM_CACTVS_SUBSKEYS>
AAADcfB/vABAAAAAAAAAAAAAAAAAASJEgAA8YMEAAAASAACxQAAAHgQQCAAADbz12AeyD4PABgiIAiHSGACCAAAkKBAIiJmODMkbZjKi1TO/cQhl1hG+mYf6+b6OgAABAAAYAAAAAAIAADAAAAAAAAAAAA==
> <PUBCHEM_IUPAC_OPENEYE_NAME>
[(1R,2R)-1-[[(3S,4aS,8aS)-3-(tert-butylcarbamoyl)-3,4,4a,5,6,7,8,8a-octahydro-1H-isoquinolin-2-yl]methyl]-2-[(3-hydroxy-2-methyl-benzoyl)amino]-3-phenylsulfanyl-propyl] 5-[[(5R,6S,6aS)-5-(2,2-dimethyl-1,3-dioxolan-4-yl)-2,2-dimethyl-3a,5,6,6a-tetrahydrofuro[2,3-d][1,3]dioxol-6-yl]oxycarbonylamino]pentanoate
> <PUBCHEM_IUPAC_CAS_NAME>
5-[[[(5R,6S,6aS)-5-(2,2-dimethyl-1,3-dioxolan-4-yl)-2,2-dimethyl-3a,5,6,6a-tetrahydrofuro[2,3-d][1,3]dioxol-6-yl]oxy-oxomethyl]amino]pentanoic acid [(2R,3R)-1-[(3S,4aS,8aS)-3-[(tert-butylamino)-oxomethyl]-3,4,4a,5,6,7,8,8a-octahydro-1H-isoquinolin-2-yl]-3-[[(3-hydroxy-2-methylphenyl)-oxomethyl]amino]-4-(phenylthio)butan-2-yl] ester
> <PUBCHEM_IUPAC_NAME_MARKUP>
[(2<I>R</I>,3<I>R</I>)-1-[(3<I>S</I>,4<I>a</I><I>S</I>,8<I>a</I><I>S</I>)-3-(<I>tert</I>-butylcarbamoyl)-3,4,4<I>a</I>,5,6,7,8,8<I>a</I>-octahydro-1<I>H</I>-isoquinolin-2-yl]-3-[(3-hydroxy-2-methylbenzoyl)amino]-4-phenylsulfanylbutan-2-yl] 5-[[(5<I>R</I>,6<I>S</I>,6<I>a</I><I>S</I>)-5-(2,2-dimethyl-1,3-dioxolan-4-yl)-2,2-dimethyl-3<I>a</I>,5,6,6<I>a</I>-tetrahydrofuro[2,3-d][1,3]dioxol-6-yl]oxycarbonylamino]pentanoate
> <PUBCHEM_IUPAC_NAME>
[(2R,3R)-1-[(3S,4aS,8aS)-3-(tert-butylcarbamoyl)-3,4,4a,5,6,7,8,8a-octahydro-1H-isoquinolin-2-yl]-3-[(3-hydroxy-2-methylbenzoyl)amino]-4-phenylsulfanylbutan-2-yl] 5-[[(5R,6S,6aS)-5-(2,2-dimethyl-1,3-dioxolan-4-yl)-2,2-dimethyl-3a,5,6,6a-tetrahydrofuro[2,3-d][1,3]dioxol-6-yl]oxycarbonylamino]pentanoate
> <PUBCHEM_IUPAC_SYSTEMATIC_NAME>
[(2R,3R)-1-[(3S,4aS,8aS)-3-(tert-butylcarbamoyl)-3,4,4a,5,6,7,8,8a-octahydro-1H-isoquinolin-2-yl]-3-[(2-methyl-3-oxidanyl-phenyl)carbonylamino]-4-phenylsulfanyl-butan-2-yl] 5-[[(5R,6S,6aS)-5-(2,2-dimethyl-1,3-dioxolan-4-yl)-2,2-dimethyl-3a,5,6,6a-tetrahydrofuro[2,3-d][1,3]dioxol-6-yl]oxycarbonylamino]pentanoate
> <PUBCHEM_IUPAC_TRADITIONAL_NAME>
5-[[(5R,6S,6aS)-5-(2,2-dimethyl-1,3-dioxolan-4-yl)-2,2-dimethyl-3a,5,6,6a-tetrahydrofuro[2,3-d][1,3]dioxol-6-yl]oxycarbonylamino]valeric acid [(1R,2R)-1-[[(3S,4aS,8aS)-3-(tert-butylcarbamoyl)-3,4,4a,5,6,7,8,8a-octahydro-1H-isoquinolin-2-yl]methyl]-2-[(3-hydroxy-2-methyl-benzoyl)amino]-3-(phenylthio)propyl] ester
> <PUBCHEM_IUPAC_INCHI>
InChI=1S/C50H72N4O12S/c1-30-34(21-16-22-37(30)55)44(57)52-35(29-67-33-19-10-9-11-20-33)38(27-54-26-32-18-13-12-17-31(32)25-36(54)45(58)53-48(2,3)4)61-40(56)23-14-15-24-51-47(59)63-42-41(39-28-60-49(5,6)64-39)62-46-43(42)65-50(7,8)66-46/h9-11,16,19-22,31-32,35-36,38-39,41-43,46,55H,12-15,17-18,23-29H2,1-8H3,(H,51,59)(H,52,57)(H,53,58)/t31-,32+,35-,36-,38+,39?,41+,42-,43-,46?/m0/s1
> <PUBCHEM_IUPAC_INCHIKEY>
DSFVVDVDRMDKOY-WQADEDRTSA-N
> <PUBCHEM_XLOGP3_AA>
7
> <PUBCHEM_EXACT_MASS>
952.48674492
> <PUBCHEM_MOLECULAR_FORMULA>
C50H72N4O12S
> <PUBCHEM_MOLECULAR_WEIGHT>
953.2
> <PUBCHEM_OPENEYE_CAN_SMILES>
CC1=C(C=CC=C1O)C(=O)NC(CSC2=CC=CC=C2)C(CN3CC4CCCCC4CC3C(=O)NC(C)(C)C)OC(=O)CCCCNC(=O)OC5C(OC6C5OC(O6)(C)C)C7COC(O7)(C)C
> <PUBCHEM_OPENEYE_ISO_SMILES>
CC1=C(C=CC=C1O)C(=O)N[C@@H](CSC2=CC=CC=C2)[C@@H](CN3C[C@H]4CCCC[C@H]4C[C@H]3C(=O)NC(C)(C)C)OC(=O)CCCCNC(=O)O[C@H]5[C@H](OC6[C@H]5OC(O6)(C)C)C7COC(O7)(C)C
> <PUBCHEM_CACTVS_TPSA>
218
> <PUBCHEM_MONOISOTOPIC_WEIGHT>
952.48674492
> <PUBCHEM_TOTAL_CHARGE>
0
> <PUBCHEM_HEAVY_ATOM_COUNT>
67
> <PUBCHEM_ATOM_DEF_STEREO_COUNT>
8
> <PUBCHEM_ATOM_UDEF_STEREO_COUNT>
2
> <PUBCHEM_BOND_DEF_STEREO_COUNT>
0
> <PUBCHEM_BOND_UDEF_STEREO_COUNT>
0
> <PUBCHEM_ISOTOPIC_ATOM_COUNT>
0
> <PUBCHEM_COMPONENT_COUNT>
1
> <PUBCHEM_CACTVS_TAUTO_COUNT>
-1
> <PUBCHEM_COORDINATE_TYPE>
1
5
255
> <PUBCHEM_BONDANNOTATIONS>
30  16  5
18  68  6
19  69  6
29  2  6
24  28  5
32  88  5
33  89  5
36  39  3
53  57  8
53  58  8
55  59  8
55  60  8
57  61  8
58  63  8
59  64  8
35  6  3
60  65  8
61  66  8
63  66  8
64  67  8
65  67  8
34  8  6
$$$$
