500876
  -OEChem-10302200282D
 45 47  0     1  0  0  0  0  0999 V2000
    7.2764    2.2383    0.0000 S   0  0  0  0  0  0  0  0  0  0  0  0
    8.8600   -0.2985    0.0000 O   0  0  0  0  0  0  0  0  0  0  0  0
    2.8660    1.9335    0.0000 O   0  0  0  0  0  0  0  0  0  0  0  0
    3.7320    3.4335    0.0000 O   0  0  0  0  0  0  0  0  0  0  0  0
   10.3600   -2.8966    0.0000 N   0  0  0  0  0  0  0  0  0  0  0  0
    8.8600    1.4335    0.0000 N   0  0  0  0  0  0  0  0  0  0  0  0
    7.2764    0.6288    0.0000 N   0  0  0  0  0  0  0  0  0  0  0  0
   10.8600   -0.2985    0.0000 C   0  0  3  0  0  0  0  0  0  0  0  0
   10.3600   -1.1645    0.0000 C   0  0  0  0  0  0  0  0  0  0  0  0
   10.8600   -2.0306    0.0000 C   0  0  1  0  0  0  0  0  0  0  0  0
   11.8600   -0.2985    0.0000 C   0  0  0  0  0  0  0  0  0  0  0  0
   11.8600   -2.0306    0.0000 C   0  0  0  0  0  0  0  0  0  0  0  0
   12.3600   -1.1645    0.0000 C   0  0  0  0  0  0  0  0  0  0  0  0
   10.3600    0.5675    0.0000 C   0  0  0  0  0  0  0  0  0  0  0  0
    9.3600    0.5675    0.0000 C   0  0  0  0  0  0  0  0  0  0  0  0
    7.8600    1.4335    0.0000 C   0  0  0  0  0  0  0  0  0  0  0  0
    6.3301    1.9335    0.0000 C   0  0  0  0  0  0  0  0  0  0  0  0
    6.3301    0.9335    0.0000 C   0  0  0  0  0  0  0  0  0  0  0  0
    5.4641    2.4335    0.0000 C   0  0  0  0  0  0  0  0  0  0  0  0
    5.4641    0.4335    0.0000 C   0  0  0  0  0  0  0  0  0  0  0  0
    4.5981    1.9335    0.0000 C   0  0  0  0  0  0  0  0  0  0  0  0
    4.5981    0.9335    0.0000 C   0  0  0  0  0  0  0  0  0  0  0  0
    3.7320    2.4335    0.0000 C   0  0  0  0  0  0  0  0  0  0  0  0
    2.0000    2.4335    0.0000 C   0  0  0  0  0  0  0  0  0  0  0  0
   11.1700    0.2384    0.0000 H   0  0  0  0  0  0  0  0  0  0  0  0
    9.8850   -0.7660    0.0000 H   0  0  0  0  0  0  0  0  0  0  0  0
    9.8850   -1.5631    0.0000 H   0  0  0  0  0  0  0  0  0  0  0  0
   10.2400   -2.0306    0.0000 H   0  0  0  0  0  0  0  0  0  0  0  0
   12.4426   -0.0865    0.0000 H   0  0  0  0  0  0  0  0  0  0  0  0
   11.7523    0.3121    0.0000 H   0  0  0  0  0  0  0  0  0  0  0  0
   11.7523   -2.6412    0.0000 H   0  0  0  0  0  0  0  0  0  0  0  0
   12.4426   -2.2426    0.0000 H   0  0  0  0  0  0  0  0  0  0  0  0
   12.8349   -1.5631    0.0000 H   0  0  0  0  0  0  0  0  0  0  0  0
   12.8349   -0.7660    0.0000 H   0  0  0  0  0  0  0  0  0  0  0  0
   10.9426    0.7796    0.0000 H   0  0  0  0  0  0  0  0  0  0  0  0
   10.2523    1.1781    0.0000 H   0  0  0  0  0  0  0  0  0  0  0  0
   10.6700   -3.4335    0.0000 H   0  0  0  0  0  0  0  0  0  0  0  0
    9.7400   -2.8966    0.0000 H   0  0  0  0  0  0  0  0  0  0  0  0
    9.1700    1.9705    0.0000 H   0  0  0  0  0  0  0  0  0  0  0  0
    5.4641    3.0535    0.0000 H   0  0  0  0  0  0  0  0  0  0  0  0
    5.4641   -0.1865    0.0000 H   0  0  0  0  0  0  0  0  0  0  0  0
    4.0611    0.6235    0.0000 H   0  0  0  0  0  0  0  0  0  0  0  0
    2.3100    2.9705    0.0000 H   0  0  0  0  0  0  0  0  0  0  0  0
    1.4631    2.7435    0.0000 H   0  0  0  0  0  0  0  0  0  0  0  0
    1.6900    1.8966    0.0000 H   0  0  0  0  0  0  0  0  0  0  0  0
  1 16  1  0  0  0  0
  1 17  1  0  0  0  0
  2 15  2  0  0  0  0
  3 23  1  0  0  0  0
  3 24  1  0  0  0  0
  4 23  2  0  0  0  0
 10  5  1  1  0  0  0
  5 37  1  0  0  0  0
  5 38  1  0  0  0  0
  6 15  1  0  0  0  0
  6 16  1  0  0  0  0
  6 39  1  0  0  0  0
  7 16  2  0  0  0  0
  7 18  1  0  0  0  0
  8  9  1  0  0  0  0
  8 11  1  0  0  0  0
  8 14  1  0  0  0  0
  8 25  1  0  0  0  0
  9 10  1  0  0  0  0
  9 26  1  0  0  0  0
  9 27  1  0  0  0  0
 10 12  1  0  0  0  0
 10 28  1  0  0  0  0
 11 13  1  0  0  0  0
 11 29  1  0  0  0  0
 11 30  1  0  0  0  0
 12 13  1  0  0  0  0
 12 31  1  0  0  0  0
 12 32  1  0  0  0  0
 13 33  1  0  0  0  0
 13 34  1  0  0  0  0
 14 15  1  0  0  0  0
 14 35  1  0  0  0  0
 14 36  1  0  0  0  0
 17 18  2  0  0  0  0
 17 19  1  0  0  0  0
 18 20  1  0  0  0  0
 19 21  2  0  0  0  0
 19 40  1  0  0  0  0
 20 22  2  0  0  0  0
 20 41  1  0  0  0  0
 21 22  1  0  0  0  0
 21 23  1  0  0  0  0
 22 42  1  0  0  0  0
 24 43  1  0  0  0  0
 24 44  1  0  0  0  0
 24 45  1  0  0  0  0
M  END
> <PUBCHEM_COMPOUND_CID>
500876
> <PUBCHEM_COMPOUND_CANONICALIZED>
1
> <PUBCHEM_CACTVS_COMPLEXITY>
476
> <PUBCHEM_CACTVS_HBOND_ACCEPTOR>
6
> <PUBCHEM_CACTVS_HBOND_DONOR>
2
> <PUBCHEM_CACTVS_ROTATABLE_BOND>
5
> <PUBCHEM_CACTVS_SUBSKEYS>
AAADceB7MABAAAAAAAAAAAAAAAAAAWAAAAAwYAAAAAAAAFgB8AAAHgQQAAAADSjB3gYz2bLIFAisAyXyfACD8KllCjlJmL0wbNiIJrLgvZmEMQhs0QNI6aeY2aOeCAAAgAAAAQAQAAGAAAACAAAAAAAAAA==
> <PUBCHEM_IUPAC_OPENEYE_NAME>
methyl 2-[[2-[(3R)-3-aminocyclohexyl]acetyl]amino]-1,3-benzothiazole-6-carboxylate
> <PUBCHEM_IUPAC_CAS_NAME>
2-[[2-[(3R)-3-aminocyclohexyl]-1-oxoethyl]amino]-1,3-benzothiazole-6-carboxylic acid methyl ester
> <PUBCHEM_IUPAC_NAME_MARKUP>
methyl 2-[[2-[(3<I>R</I>)-3-aminocyclohexyl]acetyl]amino]-1,3-benzothiazole-6-carboxylate
> <PUBCHEM_IUPAC_NAME>
methyl 2-[[2-[(3R)-3-aminocyclohexyl]acetyl]amino]-1,3-benzothiazole-6-carboxylate
> <PUBCHEM_IUPAC_SYSTEMATIC_NAME>
methyl 2-[2-[(3R)-3-azanylcyclohexyl]ethanoylamino]-1,3-benzothiazole-6-carboxylate
> <PUBCHEM_IUPAC_TRADITIONAL_NAME>
2-[[2-[(3R)-3-aminocyclohexyl]acetyl]amino]-1,3-benzothiazole-6-carboxylic acid methyl ester
> <PUBCHEM_IUPAC_INCHI>
InChI=1S/C17H21N3O3S/c1-23-16(22)11-5-6-13-14(9-11)24-17(19-13)20-15(21)8-10-3-2-4-12(18)7-10/h5-6,9-10,12H,2-4,7-8,18H2,1H3,(H,19,20,21)/t10?,12-/m1/s1
> <PUBCHEM_IUPAC_INCHIKEY>
YFOBNZIOJYQVLP-TVKKRMFBSA-N
> <PUBCHEM_XLOGP3_AA>
2.4
> <PUBCHEM_EXACT_MASS>
347.13036271
> <PUBCHEM_MOLECULAR_FORMULA>
C17H21N3O3S
> <PUBCHEM_MOLECULAR_WEIGHT>
347.4
> <PUBCHEM_OPENEYE_CAN_SMILES>
COC(=O)C1=CC2=C(C=C1)N=C(S2)NC(=O)CC3CCCC(C3)N
> <PUBCHEM_OPENEYE_ISO_SMILES>
COC(=O)C1=CC2=C(C=C1)N=C(S2)NC(=O)CC3CCC[C@H](C3)N
> <PUBCHEM_CACTVS_TPSA>
123
> <PUBCHEM_MONOISOTOPIC_WEIGHT>
347.13036271
> <PUBCHEM_TOTAL_CHARGE>
0
> <PUBCHEM_HEAVY_ATOM_COUNT>
24
> <PUBCHEM_ATOM_DEF_STEREO_COUNT>
1
> <PUBCHEM_ATOM_UDEF_STEREO_COUNT>
1
> <PUBCHEM_BOND_DEF_STEREO_COUNT>
0
> <PUBCHEM_BOND_UDEF_STEREO_COUNT>
0
> <PUBCHEM_ISOTOPIC_ATOM_COUNT>
0
> <PUBCHEM_COMPONENT_COUNT>
1
> <PUBCHEM_CACTVS_TAUTO_COUNT>
-1
> <PUBCHEM_COORDINATE_TYPE>
1
5
255
> <PUBCHEM_BONDANNOTATIONS>
1  16  8
1  17  8
17  18  8
17  19  8
18  20  8
19  21  8
20  22  8
21  22  8
10  5  5
7  16  8
7  18  8
8  14  3
$$$$
