500855
  -OEChem-10302200282D
151158  0     1  0  0  0  0  0999 V2000
   10.1211    0.3212    0.0000 O   0  0  0  0  0  0  0  0  0  0  0  0
   11.8532    3.3212    0.0000 O   0  0  0  0  0  0  0  0  0  0  0  0
    3.3423   -3.0152    0.0000 O   0  0  0  0  0  0  0  0  0  0  0  0
    5.3153   -4.5355    0.0000 O   0  0  0  0  0  0  0  0  0  0  0  0
    3.7410   -4.8701    0.0000 O   0  0  0  0  0  0  0  0  0  0  0  0
    2.8900   -0.8872    0.0000 O   0  0  0  0  0  0  0  0  0  0  0  0
    5.7910   -2.1788    0.0000 O   0  0  0  0  0  0  0  0  0  0  0  0
    3.9727    0.3153    0.0000 O   0  0  0  0  0  0  0  0  0  0  0  0
   10.9872   -1.1788    0.0000 O   0  0  0  0  0  0  0  0  0  0  0  0
   11.8532    2.3212    0.0000 O   0  0  0  0  0  0  0  0  0  0  0  0
    6.6570   -3.6788    0.0000 O   0  0  0  0  0  0  0  0  0  0  0  0
   15.3173    3.3212    0.0000 O   0  0  0  0  0  0  0  0  0  0  0  0
   14.4513    0.0891    0.0000 O   0  0  0  0  0  0  0  0  0  0  0  0
   10.1211    2.3212    0.0000 N   0  0  3  0  0  0  0  0  0  0  0  0
   10.9872    4.8212    0.0000 N   0  0  0  0  0  0  0  0  0  0  0  0
   12.7192    0.8212    0.0000 N   0  0  0  0  0  0  0  0  0  0  0  0
   14.4513    1.8212    0.0000 N   0  0  0  0  0  0  0  0  0  0  0  0
   14.4513    4.8212    0.0000 N   0  0  0  0  0  0  0  0  0  0  0  0
   16.4513    0.0891    0.0000 N   0  0  0  0  0  0  0  0  0  0  0  0
    8.3891    3.3212    0.0000 C   0  0  3  0  0  0  0  0  0  0  0  0
    8.3891    2.3212    0.0000 C   0  0  3  0  0  0  0  0  0  0  0  0
    9.2551    3.8212    0.0000 C   0  0  0  0  0  0  0  0  0  0  0  0
    9.2551    1.8212    0.0000 C   0  0  0  0  0  0  0  0  0  0  0  0
    7.4952    3.8559    0.0000 C   0  0  0  0  0  0  0  0  0  0  0  0
    7.4952    1.7865    0.0000 C   0  0  0  0  0  0  0  0  0  0  0  0
   10.1211    3.3212    0.0000 C   0  0  1  0  0  0  0  0  0  0  0  0
    6.5891    3.3420    0.0000 C   0  0  0  0  0  0  0  0  0  0  0  0
    6.5891    2.3004    0.0000 C   0  0  0  0  0  0  0  0  0  0  0  0
   10.9872    1.8212    0.0000 C   0  0  0  0  0  0  0  0  0  0  0  0
   10.9872    3.8212    0.0000 C   0  0  0  0  0  0  0  0  0  0  0  0
   10.9872    0.8212    0.0000 C   0  0  2  0  0  0  0  0  0  0  0  0
   11.8532    0.3212    0.0000 C   0  0  2  0  0  0  0  0  0  0  0  0
   11.8532    5.3212    0.0000 C   0  0  0  0  0  0  0  0  0  0  0  0
    4.8205   -3.6733    0.0000 C   0  0  1  0  0  0  0  0  0  0  0  0
    4.0114   -2.2721    0.0000 C   0  0  1  0  0  0  0  0  0  0  0  0
    4.9250   -2.6788    0.0000 C   0  0  2  0  0  0  0  0  0  0  0  0
   11.8532   -0.6788    0.0000 C   0  0  0  0  0  0  0  0  0  0  0  0
    3.8423   -3.8812    0.0000 C   0  0  3  0  0  0  0  0  0  0  0  0
    3.8035   -1.2939    0.0000 C   0  0  3  0  0  0  0  0  0  0  0  0
    4.6495   -5.2737    0.0000 C   0  0  0  0  0  0  0  0  0  0  0  0
   12.7192    5.8212    0.0000 C   0  0  0  0  0  0  0  0  0  0  0  0
   11.3532    6.1872    0.0000 C   0  0  0  0  0  0  0  0  0  0  0  0
   12.3532    4.4552    0.0000 C   0  0  0  0  0  0  0  0  0  0  0  0
    4.4727   -0.5508    0.0000 C   0  0  0  0  0  0  0  0  0  0  0  0
   10.1211   -0.6788    0.0000 C   0  0  0  0  0  0  0  0  0  0  0  0
   12.7192   -1.1788    0.0000 C   0  0  0  0  0  0  0  0  0  0  0  0
    2.9945    0.1073    0.0000 C   0  0  0  0  0  0  0  0  0  0  0  0
   12.7192    1.8212    0.0000 C   0  0  0  0  0  0  0  0  0  0  0  0
    4.2427   -6.1872    0.0000 C   0  0  0  0  0  0  0  0  0  0  0  0
    5.3926   -5.9428    0.0000 C   0  0  0  0  0  0  0  0  0  0  0  0
    9.2551   -1.1788    0.0000 C   0  0  0  0  0  0  0  0  0  0  0  0
   13.5852    2.3212    0.0000 C   0  0  2  0  0  0  0  0  0  0  0  0
    9.2551   -2.1788    0.0000 C   0  0  0  0  0  0  0  0  0  0  0  0
    6.6570   -2.6788    0.0000 C   0  0  0  0  0  0  0  0  0  0  0  0
    2.0000    0.2119    0.0000 C   0  0  0  0  0  0  0  0  0  0  0  0
    2.7866    1.0855    0.0000 C   0  0  0  0  0  0  0  0  0  0  0  0
   13.5852   -0.6788    0.0000 C   0  0  0  0  0  0  0  0  0  0  0  0
   12.7192   -2.1788    0.0000 C   0  0  0  0  0  0  0  0  0  0  0  0
    8.3891   -2.6788    0.0000 C   0  0  0  0  0  0  0  0  0  0  0  0
    7.5231   -2.1788    0.0000 C   0  0  0  0  0  0  0  0  0  0  0  0
   13.5852    3.3212    0.0000 C   0  0  0  0  0  0  0  0  0  0  0  0
   14.4513   -1.1788    0.0000 C   0  0  0  0  0  0  0  0  0  0  0  0
   13.5852   -2.6788    0.0000 C   0  0  0  0  0  0  0  0  0  0  0  0
   14.4513   -2.1788    0.0000 C   0  0  0  0  0  0  0  0  0  0  0  0
   14.4513    3.8212    0.0000 C   0  0  0  0  0  0  0  0  0  0  0  0
   14.9514    0.9552    0.0000 C   0  0  0  0  0  0  0  0  0  0  0  0
   15.9513    0.9552    0.0000 C   0  0  0  0  0  0  0  0  0  0  0  0
   16.4513    1.8212    0.0000 C   0  0  0  0  0  0  0  0  0  0  0  0
   17.4513    1.8212    0.0000 C   0  0  0  0  0  0  0  0  0  0  0  0
   17.4513    0.0891    0.0000 C   0  0  0  0  0  0  0  0  0  0  0  0
   17.9513    0.9552    0.0000 C   0  0  0  0  0  0  0  0  0  0  0  0
   17.9581   -0.8209    0.0000 C   0  0  0  0  0  0  0  0  0  0  0  0
   18.9928    0.9712    0.0000 C   0  0  0  0  0  0  0  0  0  0  0  0
   18.9997   -0.8289    0.0000 C   0  0  0  0  0  0  0  0  0  0  0  0
   19.5205    0.0732    0.0000 C   0  0  0  0  0  0  0  0  0  0  0  0
    8.3939    3.9412    0.0000 H   0  0  0  0  0  0  0  0  0  0  0  0
    8.3939    1.7012    0.0000 H   0  0  0  0  0  0  0  0  0  0  0  0
    9.6537    4.2962    0.0000 H   0  0  0  0  0  0  0  0  0  0  0  0
    8.8566    4.2962    0.0000 H   0  0  0  0  0  0  0  0  0  0  0  0
    8.8566    1.3462    0.0000 H   0  0  0  0  0  0  0  0  0  0  0  0
    9.6537    1.3462    0.0000 H   0  0  0  0  0  0  0  0  0  0  0  0
    7.8998    4.3257    0.0000 H   0  0  0  0  0  0  0  0  0  0  0  0
    7.1015    4.3349    0.0000 H   0  0  0  0  0  0  0  0  0  0  0  0
    7.1015    1.3075    0.0000 H   0  0  0  0  0  0  0  0  0  0  0  0
    7.8998    1.3168    0.0000 H   0  0  0  0  0  0  0  0  0  0  0  0
   10.6581    3.0112    0.0000 H   0  0  0  0  0  0  0  0  0  0  0  0
    6.3800    3.9257    0.0000 H   0  0  0  0  0  0  0  0  0  0  0  0
    5.9782    3.2359    0.0000 H   0  0  0  0  0  0  0  0  0  0  0  0
    5.9782    2.4065    0.0000 H   0  0  0  0  0  0  0  0  0  0  0  0
    6.3800    1.7167    0.0000 H   0  0  0  0  0  0  0  0  0  0  0  0
   11.5978    1.7135    0.0000 H   0  0  0  0  0  0  0  0  0  0  0  0
   11.1992    2.4038    0.0000 H   0  0  0  0  0  0  0  0  0  0  0  0
   10.9872    0.2012    0.0000 H   0  0  0  0  0  0  0  0  0  0  0  0
   11.8532    0.9412    0.0000 H   0  0  0  0  0  0  0  0  0  0  0  0
   10.4502    5.1312    0.0000 H   0  0  0  0  0  0  0  0  0  0  0  0
    5.6521   -3.4977    0.0000 H   0  0  0  0  0  0  0  0  0  0  0  0
    3.1904   -2.0521    0.0000 H   0  0  0  0  0  0  0  0  0  0  0  0
    5.4450   -3.0165    0.0000 H   0  0  0  0  0  0  0  0  0  0  0  0
   11.2426   -0.5711    0.0000 H   0  0  0  0  0  0  0  0  0  0  0  0
   11.6411   -1.2614    0.0000 H   0  0  0  0  0  0  0  0  0  0  0  0
    3.2360   -4.0109    0.0000 H   0  0  0  0  0  0  0  0  0  0  0  0
    3.3217   -1.6841    0.0000 H   0  0  0  0  0  0  0  0  0  0  0  0
   13.2562    0.5112    0.0000 H   0  0  0  0  0  0  0  0  0  0  0  0
   13.0292    5.2843    0.0000 H   0  0  0  0  0  0  0  0  0  0  0  0
   13.2562    6.1312    0.0000 H   0  0  0  0  0  0  0  0  0  0  0  0
   12.4092    6.3581    0.0000 H   0  0  0  0  0  0  0  0  0  0  0  0
   11.8901    6.4972    0.0000 H   0  0  0  0  0  0  0  0  0  0  0  0
   11.0432    6.7242    0.0000 H   0  0  0  0  0  0  0  0  0  0  0  0
   10.8163    5.8772    0.0000 H   0  0  0  0  0  0  0  0  0  0  0  0
   11.8163    4.1452    0.0000 H   0  0  0  0  0  0  0  0  0  0  0  0
   12.6632    3.9182    0.0000 H   0  0  0  0  0  0  0  0  0  0  0  0
   12.8901    4.7652    0.0000 H   0  0  0  0  0  0  0  0  0  0  0  0
    4.8875   -1.0115    0.0000 H   0  0  0  0  0  0  0  0  0  0  0  0
    4.9743   -0.1863    0.0000 H   0  0  0  0  0  0  0  0  0  0  0  0
    3.6763   -5.9351    0.0000 H   0  0  0  0  0  0  0  0  0  0  0  0
    3.9906   -6.7536    0.0000 H   0  0  0  0  0  0  0  0  0  0  0  0
    4.8091   -6.4394    0.0000 H   0  0  0  0  0  0  0  0  0  0  0  0
    4.9778   -6.4036    0.0000 H   0  0  0  0  0  0  0  0  0  0  0  0
    5.8534   -6.3577    0.0000 H   0  0  0  0  0  0  0  0  0  0  0  0
    5.8075   -5.4821    0.0000 H   0  0  0  0  0  0  0  0  0  0  0  0
    9.0431   -0.5962    0.0000 H   0  0  0  0  0  0  0  0  0  0  0  0
    8.6445   -1.2865    0.0000 H   0  0  0  0  0  0  0  0  0  0  0  0
   14.1222    2.6312    0.0000 H   0  0  0  0  0  0  0  0  0  0  0  0
    9.4672   -2.7614    0.0000 H   0  0  0  0  0  0  0  0  0  0  0  0
    9.8657   -2.0711    0.0000 H   0  0  0  0  0  0  0  0  0  0  0  0
    2.0648    0.8285    0.0000 H   0  0  0  0  0  0  0  0  0  0  0  0
    1.3834    0.2767    0.0000 H   0  0  0  0  0  0  0  0  0  0  0  0
    1.9352   -0.4047    0.0000 H   0  0  0  0  0  0  0  0  0  0  0  0
    3.3931    1.2144    0.0000 H   0  0  0  0  0  0  0  0  0  0  0  0
    2.6577    1.6919    0.0000 H   0  0  0  0  0  0  0  0  0  0  0  0
    2.1802    0.9566    0.0000 H   0  0  0  0  0  0  0  0  0  0  0  0
   13.5852   -0.0588    0.0000 H   0  0  0  0  0  0  0  0  0  0  0  0
   12.1823   -2.4888    0.0000 H   0  0  0  0  0  0  0  0  0  0  0  0
    7.9216   -1.7038    0.0000 H   0  0  0  0  0  0  0  0  0  0  0  0
    7.1245   -1.7038    0.0000 H   0  0  0  0  0  0  0  0  0  0  0  0
    7.9906   -3.1538    0.0000 H   0  0  0  0  0  0  0  0  0  0  0  0
    8.7876   -3.1538    0.0000 H   0  0  0  0  0  0  0  0  0  0  0  0
   13.3732    3.9038    0.0000 H   0  0  0  0  0  0  0  0  0  0  0  0
   12.9747    3.2135    0.0000 H   0  0  0  0  0  0  0  0  0  0  0  0
   14.9882   -0.8688    0.0000 H   0  0  0  0  0  0  0  0  0  0  0  0
   13.5852   -3.2988    0.0000 H   0  0  0  0  0  0  0  0  0  0  0  0
   14.9882    2.1312    0.0000 H   0  0  0  0  0  0  0  0  0  0  0  0
   14.9882   -2.4888    0.0000 H   0  0  0  0  0  0  0  0  0  0  0  0
   14.9882    5.1312    0.0000 H   0  0  0  0  0  0  0  0  0  0  0  0
   13.9143    5.1312    0.0000 H   0  0  0  0  0  0  0  0  0  0  0  0
   16.1413    2.3581    0.0000 H   0  0  0  0  0  0  0  0  0  0  0  0
   17.7613    2.3581    0.0000 H   0  0  0  0  0  0  0  0  0  0  0  0
   17.6419   -1.3542    0.0000 H   0  0  0  0  0  0  0  0  0  0  0  0
   19.2966    1.5117    0.0000 H   0  0  0  0  0  0  0  0  0  0  0  0
   19.3076   -1.3670    0.0000 H   0  0  0  0  0  0  0  0  0  0  0  0
   20.1405    0.0756    0.0000 H   0  0  0  0  0  0  0  0  0  0  0  0
 31  1  1  6  0  0  0
  1 45  1  0  0  0  0
  2 30  2  0  0  0  0
  3 35  1  0  0  0  0
  3 38  1  0  0  0  0
  4 34  1  0  0  0  0
  4 40  1  0  0  0  0
  5 38  1  0  0  0  0
  5 40  1  0  0  0  0
  6 39  1  0  0  0  0
  6 47  1  0  0  0  0
 36  7  1  6  0  0  0
  7 54  1  0  0  0  0
  8 44  1  0  0  0  0
  8 47  1  0  0  0  0
  9 45  2  0  0  0  0
 10 48  2  0  0  0  0
 11 54  2  0  0  0  0
 12 65  2  0  0  0  0
 13 66  2  0  0  0  0
 14 23  1  0  0  0  0
 14 26  1  0  0  0  0
 14 29  1  0  0  0  0
 15 30  1  0  0  0  0
 15 33  1  0  0  0  0
 15 95  1  0  0  0  0
 32 16  1  1  0  0  0
 16 48  1  0  0  0  0
 16103  1  0  0  0  0
 52 17  1  6  0  0  0
 17 66  1  0  0  0  0
 17142  1  0  0  0  0
 18 65  1  0  0  0  0
 18144  1  0  0  0  0
 18145  1  0  0  0  0
 19 67  2  0  0  0  0
 19 70  1  0  0  0  0
 20 21  1  0  0  0  0
 20 22  1  0  0  0  0
 20 24  1  0  0  0  0
 20 76  1  0  0  0  0
 21 23  1  0  0  0  0
 21 25  1  0  0  0  0
 21 77  1  0  0  0  0
 22 26  1  0  0  0  0
 22 78  1  0  0  0  0
 22 79  1  0  0  0  0
 23 80  1  0  0  0  0
 23 81  1  0  0  0  0
 24 27  1  0  0  0  0
 24 82  1  0  0  0  0
 24 83  1  0  0  0  0
 25 28  1  0  0  0  0
 25 84  1  0  0  0  0
 25 85  1  0  0  0  0
 26 30  1  1  0  0  0
 26 86  1  0  0  0  0
 27 28  1  0  0  0  0
 27 87  1  0  0  0  0
 27 88  1  0  0  0  0
 28 89  1  0  0  0  0
 28 90  1  0  0  0  0
 29 31  1  0  0  0  0
 29 91  1  0  0  0  0
 29 92  1  0  0  0  0
 31 32  1  0  0  0  0
 31 93  1  0  0  0  0
 32 37  1  0  0  0  0
 32 94  1  0  0  0  0
 33 41  1  0  0  0  0
 33 42  1  0  0  0  0
 33 43  1  0  0  0  0
 34 36  1  0  0  0  0
 34 38  1  0  0  0  0
 34 96  1  1  0  0  0
 35 36  1  0  0  0  0
 35 39  1  0  0  0  0
 35 97  1  1  0  0  0
 36 98  1  0  0  0  0
 37 46  1  0  0  0  0
 37 99  1  0  0  0  0
 37100  1  0  0  0  0
 38101  1  0  0  0  0
 39 44  1  0  0  0  0
 39102  1  0  0  0  0
 40 49  1  0  0  0  0
 40 50  1  0  0  0  0
 41104  1  0  0  0  0
 41105  1  0  0  0  0
 41106  1  0  0  0  0
 42107  1  0  0  0  0
 42108  1  0  0  0  0
 42109  1  0  0  0  0
 43110  1  0  0  0  0
 43111  1  0  0  0  0
 43112  1  0  0  0  0
 44113  1  0  0  0  0
 44114  1  0  0  0  0
 45 51  1  0  0  0  0
 46 57  2  0  0  0  0
 46 58  1  0  0  0  0
 47 55  1  0  0  0  0
 47 56  1  0  0  0  0
 48 52  1  0  0  0  0
 49115  1  0  0  0  0
 49116  1  0  0  0  0
 49117  1  0  0  0  0
 50118  1  0  0  0  0
 50119  1  0  0  0  0
 50120  1  0  0  0  0
 51 53  1  0  0  0  0
 51121  1  0  0  0  0
 51122  1  0  0  0  0
 52 61  1  0  0  0  0
 52123  1  0  0  0  0
 53 59  1  0  0  0  0
 53124  1  0  0  0  0
 53125  1  0  0  0  0
 54 60  1  0  0  0  0
 55126  1  0  0  0  0
 55127  1  0  0  0  0
 55128  1  0  0  0  0
 56129  1  0  0  0  0
 56130  1  0  0  0  0
 56131  1  0  0  0  0
 57 62  1  0  0  0  0
 57132  1  0  0  0  0
 58 63  2  0  0  0  0
 58133  1  0  0  0  0
 59 60  1  0  0  0  0
 59136  1  0  0  0  0
 59137  1  0  0  0  0
 60134  1  0  0  0  0
 60135  1  0  0  0  0
 61 65  1  0  0  0  0
 61138  1  0  0  0  0
 61139  1  0  0  0  0
 62 64  2  0  0  0  0
 62140  1  0  0  0  0
 63 64  1  0  0  0  0
 63141  1  0  0  0  0
 64143  1  0  0  0  0
 66 67  1  0  0  0  0
 67 68  1  0  0  0  0
 68 69  2  0  0  0  0
 68146  1  0  0  0  0
 69 71  1  0  0  0  0
 69147  1  0  0  0  0
 70 71  1  0  0  0  0
 70 72  2  0  0  0  0
 71 73  2  0  0  0  0
 72 74  1  0  0  0  0
 72148  1  0  0  0  0
 73 75  1  0  0  0  0
 73149  1  0  0  0  0
 74 75  2  0  0  0  0
 74150  1  0  0  0  0
 75151  1  0  0  0  0
M  END
> <PUBCHEM_COMPOUND_CID>
500855
> <PUBCHEM_COMPOUND_CANONICALIZED>
1
> <PUBCHEM_CACTVS_COMPLEXITY>
1990
> <PUBCHEM_CACTVS_HBOND_ACCEPTOR>
15
> <PUBCHEM_CACTVS_HBOND_DONOR>
4
> <PUBCHEM_CACTVS_ROTATABLE_BOND>
23
> <PUBCHEM_CACTVS_SUBSKEYS>
AAADcfB/vAAAAAAAAAAAAAAAAAAAASJEgAA8eMECAAASAACx9AAAHgAQAAAADbzxngcyyPPIFACoAyXyXACCgCAnAiAImKG4ZNgbYPrA1bG3IQhllgDeyYfd6KyOgAAAAAACAAAAAAAAACQAAAAAAAAAAA==
> <PUBCHEM_IUPAC_OPENEYE_NAME>
O1-[(5R,6S,6aS)-5-(2,2-dimethyl-1,3-dioxolan-4-yl)-2,2-dimethyl-3a,5,6,6a-tetrahydrofuro[2,3-d][1,3]dioxol-6-yl] O6-[(1R,2S)-2-[[(2S)-4-amino-4-oxo-2-(quinoline-2-carbonylamino)butanoyl]amino]-1-[[(3S)-3-(tert-butylcarbamoyl)-3,4,4a,5,6,7,8,8a-octahydro-1H-isoquinolin-2-yl]methyl]-3-phenyl-propyl] hexanedioate
> <PUBCHEM_IUPAC_CAS_NAME>
hexanedioic acid O1-[(5R,6S,6aS)-5-(2,2-dimethyl-1,3-dioxolan-4-yl)-2,2-dimethyl-3a,5,6,6a-tetrahydrofuro[2,3-d][1,3]dioxol-6-yl] ester O6-[(2R,3S)-3-[[(2S)-4-amino-1,4-dioxo-2-[[oxo(2-quinolinyl)methyl]amino]butyl]amino]-1-[(3S)-3-[(tert-butylamino)-oxomethyl]-3,4,4a,5,6,7,8,8a-octahydro-1H-isoquinolin-2-yl]-4-phenylbutan-2-yl] ester
> <PUBCHEM_IUPAC_NAME_MARKUP>
1-<I>O</I>-[(5<I>R</I>,6<I>S</I>,6<I>a</I><I>S</I>)-5-(2,2-dimethyl-1,3-dioxolan-4-yl)-2,2-dimethyl-3<I>a</I>,5,6,6<I>a</I>-tetrahydrofuro[2,3-d][1,3]dioxol-6-yl] 6-<I>O</I>-[(2<I>R</I>,3<I>S</I>)-3-[[(2<I>S</I>)-4-amino-4-oxo-2-(quinoline-2-carbonylamino)butanoyl]amino]-1-[(3<I>S</I>)-3-(<I>tert</I>-butylcarbamoyl)-3,4,4<I>a</I>,5,6,7,8,8<I>a</I>-octahydro-1<I>H</I>-isoquinolin-2-yl]-4-phenylbutan-2-yl] hexanedioate
> <PUBCHEM_IUPAC_NAME>
1-O-[(5R,6S,6aS)-5-(2,2-dimethyl-1,3-dioxolan-4-yl)-2,2-dimethyl-3a,5,6,6a-tetrahydrofuro[2,3-d][1,3]dioxol-6-yl] 6-O-[(2R,3S)-3-[[(2S)-4-amino-4-oxo-2-(quinoline-2-carbonylamino)butanoyl]amino]-1-[(3S)-3-(tert-butylcarbamoyl)-3,4,4a,5,6,7,8,8a-octahydro-1H-isoquinolin-2-yl]-4-phenylbutan-2-yl] hexanedioate
> <PUBCHEM_IUPAC_SYSTEMATIC_NAME>
O1-[(5R,6S,6aS)-5-(2,2-dimethyl-1,3-dioxolan-4-yl)-2,2-dimethyl-3a,5,6,6a-tetrahydrofuro[2,3-d][1,3]dioxol-6-yl] O6-[(2R,3S)-3-[[(2S)-4-azanyl-4-oxidanylidene-2-(quinolin-2-ylcarbonylamino)butanoyl]amino]-1-[(3S)-3-(tert-butylcarbamoyl)-3,4,4a,5,6,7,8,8a-octahydro-1H-isoquinolin-2-yl]-4-phenyl-butan-2-yl] hexanedioate
> <PUBCHEM_IUPAC_TRADITIONAL_NAME>
adipic acid O1-[(5R,6S,6aS)-5-(2,2-dimethyl-1,3-dioxolan-4-yl)-2,2-dimethyl-3a,5,6,6a-tetrahydrofuro[2,3-d][1,3]dioxol-6-yl] ester O6-[(1R,2S)-2-[[(2S)-4-amino-4-keto-2-(quinaldoylamino)butanoyl]amino]-1-[[(3S)-3-(tert-butylcarbamoyl)-3,4,4a,5,6,7,8,8a-octahydro-1H-isoquinolin-2-yl]methyl]-3-phenyl-propyl] ester
> <PUBCHEM_IUPAC_INCHI>
InChI=1S/C56H76N6O13/c1-54(2,3)61-52(68)41-28-35-20-11-12-21-36(35)30-62(41)31-42(70-45(64)23-15-16-24-46(65)71-48-47(43-32-69-55(4,5)73-43)72-53-49(48)74-56(6,7)75-53)39(27-33-17-9-8-10-18-33)59-51(67)40(29-44(57)63)60-50(66)38-26-25-34-19-13-14-22-37(34)58-38/h8-10,13-14,17-19,22,25-26,35-36,39-43,47-49,53H,11-12,15-16,20-21,23-24,27-32H2,1-7H3,(H2,57,63)(H,59,67)(H,60,66)(H,61,68)/t35?,36?,39-,40-,41-,42+,43?,47+,48-,49-,53?/m0/s1
> <PUBCHEM_IUPAC_INCHIKEY>
WGGCXWYLDVWPSO-SYCHMZQGSA-N
> <PUBCHEM_XLOGP3_AA>
5.7
> <PUBCHEM_EXACT_MASS>
1040.54703650
> <PUBCHEM_MOLECULAR_FORMULA>
C56H76N6O13
> <PUBCHEM_MOLECULAR_WEIGHT>
1041.2
> <PUBCHEM_OPENEYE_CAN_SMILES>
CC1(OCC(O1)C2C(C3C(O2)OC(O3)(C)C)OC(=O)CCCCC(=O)OC(CN4CC5CCCCC5CC4C(=O)NC(C)(C)C)C(CC6=CC=CC=C6)NC(=O)C(CC(=O)N)NC(=O)C7=NC8=CC=CC=C8C=C7)C
> <PUBCHEM_OPENEYE_ISO_SMILES>
CC1(OCC(O1)[C@@H]2[C@@H]([C@H]3C(O2)OC(O3)(C)C)OC(=O)CCCCC(=O)O[C@H](CN4CC5CCCCC5C[C@H]4C(=O)NC(C)(C)C)[C@H](CC6=CC=CC=C6)NC(=O)[C@H](CC(=O)N)NC(=O)C7=NC8=CC=CC=C8C=C7)C
> <PUBCHEM_CACTVS_TPSA>
245
> <PUBCHEM_MONOISOTOPIC_WEIGHT>
1040.54703650
> <PUBCHEM_TOTAL_CHARGE>
0
> <PUBCHEM_HEAVY_ATOM_COUNT>
75
> <PUBCHEM_ATOM_DEF_STEREO_COUNT>
7
> <PUBCHEM_ATOM_UDEF_STEREO_COUNT>
4
> <PUBCHEM_BOND_DEF_STEREO_COUNT>
0
> <PUBCHEM_BOND_UDEF_STEREO_COUNT>
0
> <PUBCHEM_ISOTOPIC_ATOM_COUNT>
0
> <PUBCHEM_COMPONENT_COUNT>
1
> <PUBCHEM_CACTVS_TAUTO_COUNT>
-1
> <PUBCHEM_COORDINATE_TYPE>
1
5
255
> <PUBCHEM_BONDANNOTATIONS>
31  1  6
32  16  5
52  17  6
19  67  8
19  70  8
20  24  3
21  25  3
26  30  5
34  96  5
35  97  5
39  44  3
46  57  8
46  58  8
38  5  3
57  62  8
58  63  8
62  64  8
63  64  8
67  68  8
68  69  8
69  71  8
36  7  6
70  71  8
70  72  8
71  73  8
72  74  8
73  75  8
74  75  8
$$$$
