500850
  -OEChem-10302200282D
 27 28  0     1  0  0  0  0  0999 V2000
    2.0000   -2.4599    0.0000 S   0  0  0  0  0  0  0  0  0  0  0  0
    6.2781    2.9521    0.0000 O   0  0  0  0  0  0  0  0  0  0  0  0
    4.6783    0.8448    0.0000 N   0  0  0  0  0  0  0  0  0  0  0  0
    4.6783   -0.7647    0.0000 N   0  0  0  0  0  0  0  0  0  0  0  0
    2.8660    1.0401    0.0000 N   0  0  0  0  0  0  0  0  0  0  0  0
    2.0000   -0.4599    0.0000 N   0  0  0  0  0  0  0  0  0  0  0  0
    4.9889    1.7953    0.0000 C   0  0  0  0  0  0  0  0  0  0  0  0
    5.9674    2.0016    0.0000 C   0  0  1  0  0  0  0  0  0  0  0  0
    3.7320    0.5401    0.0000 C   0  0  0  0  0  0  0  0  0  0  0  0
    3.7320   -0.4599    0.0000 C   0  0  0  0  0  0  0  0  0  0  0  0
    5.2619    0.0401    0.0000 C   0  0  0  0  0  0  0  0  0  0  0  0
    2.8660   -0.9599    0.0000 C   0  0  0  0  0  0  0  0  0  0  0  0
    6.6353    1.2572    0.0000 C   0  0  0  0  0  0  0  0  0  0  0  0
    2.8660   -1.9599    0.0000 C   0  0  0  0  0  0  0  0  0  0  0  0
    2.0000    0.5401    0.0000 C   0  0  0  0  0  0  0  0  0  0  0  0
    4.9684    2.4150    0.0000 H   0  0  0  0  0  0  0  0  0  0  0  0
    4.3751    1.8827    0.0000 H   0  0  0  0  0  0  0  0  0  0  0  0
    5.5534    2.4630    0.0000 H   0  0  0  0  0  0  0  0  0  0  0  0
    5.8819    0.0401    0.0000 H   0  0  0  0  0  0  0  0  0  0  0  0
    6.1738    0.8432    0.0000 H   0  0  0  0  0  0  0  0  0  0  0  0
    7.0494    0.7958    0.0000 H   0  0  0  0  0  0  0  0  0  0  0  0
    7.0968    1.6713    0.0000 H   0  0  0  0  0  0  0  0  0  0  0  0
    3.0781   -2.5425    0.0000 H   0  0  0  0  0  0  0  0  0  0  0  0
    3.4766   -1.8523    0.0000 H   0  0  0  0  0  0  0  0  0  0  0  0
    6.8848    3.0799    0.0000 H   0  0  0  0  0  0  0  0  0  0  0  0
    1.4631    0.8501    0.0000 H   0  0  0  0  0  0  0  0  0  0  0  0
    2.0000   -3.0799    0.0000 H   0  0  0  0  0  0  0  0  0  0  0  0
  1 14  1  0  0  0  0
  1 27  1  0  0  0  0
  8  2  1  6  0  0  0
  2 25  1  0  0  0  0
  3  7  1  0  0  0  0
  3  9  1  0  0  0  0
  3 11  1  0  0  0  0
  4 10  1  0  0  0  0
  4 11  2  0  0  0  0
  5  9  2  0  0  0  0
  5 15  1  0  0  0  0
  6 12  1  0  0  0  0
  6 15  2  0  0  0  0
  7  8  1  0  0  0  0
  7 16  1  0  0  0  0
  7 17  1  0  0  0  0
  8 13  1  0  0  0  0
  8 18  1  0  0  0  0
  9 10  1  0  0  0  0
 10 12  2  0  0  0  0
 11 19  1  0  0  0  0
 12 14  1  0  0  0  0
 13 20  1  0  0  0  0
 13 21  1  0  0  0  0
 13 22  1  0  0  0  0
 14 23  1  0  0  0  0
 14 24  1  0  0  0  0
 15 26  1  0  0  0  0
M  END
> <PUBCHEM_COMPOUND_CID>
500850
> <PUBCHEM_COMPOUND_CANONICALIZED>
1
> <PUBCHEM_CACTVS_COMPLEXITY>
218
> <PUBCHEM_CACTVS_HBOND_ACCEPTOR>
5
> <PUBCHEM_CACTVS_HBOND_DONOR>
2
> <PUBCHEM_CACTVS_ROTATABLE_BOND>
3
> <PUBCHEM_CACTVS_SUBSKEYS>
AAADccBzoABAAAAAAAAAAAAAAAAAAWAAAAAsAAAAAAAAAFgB+AAAHgQACAAACBzl1waH8L8MEgSgAQZhZACAgC0xEKABWCA4VBiCeABAyMAUBAhIAALQQCAAAAAAAAAAAAAAAAAAAAAAAAAAAAAAAAAAAA==
> <PUBCHEM_IUPAC_OPENEYE_NAME>
(2R)-1-[6-(sulfanylmethyl)purin-9-yl]propan-2-ol
> <PUBCHEM_IUPAC_CAS_NAME>
(2R)-1-[6-(mercaptomethyl)-9-purinyl]-2-propanol
> <PUBCHEM_IUPAC_NAME_MARKUP>
(2<I>R</I>)-1-[6-(sulfanylmethyl)purin-9-yl]propan-2-ol
> <PUBCHEM_IUPAC_NAME>
(2R)-1-[6-(sulfanylmethyl)purin-9-yl]propan-2-ol
> <PUBCHEM_IUPAC_SYSTEMATIC_NAME>
(2R)-1-[6-(sulfanylmethyl)purin-9-yl]propan-2-ol
> <PUBCHEM_IUPAC_TRADITIONAL_NAME>
(2R)-1-[6-(mercaptomethyl)purin-9-yl]propan-2-ol
> <PUBCHEM_IUPAC_INCHI>
InChI=1S/C9H12N4OS/c1-6(14)2-13-5-12-8-7(3-15)10-4-11-9(8)13/h4-6,14-15H,2-3H2,1H3/t6-/m1/s1
> <PUBCHEM_IUPAC_INCHIKEY>
RVGQMVWYYXCZIM-ZCFIWIBFSA-N
> <PUBCHEM_XLOGP3_AA>
-0.1
> <PUBCHEM_EXACT_MASS>
224.07318219
> <PUBCHEM_MOLECULAR_FORMULA>
C9H12N4OS
> <PUBCHEM_MOLECULAR_WEIGHT>
224.29
> <PUBCHEM_OPENEYE_CAN_SMILES>
CC(CN1C=NC2=C(N=CN=C21)CS)O
> <PUBCHEM_OPENEYE_ISO_SMILES>
C[C@H](CN1C=NC2=C(N=CN=C21)CS)O
> <PUBCHEM_CACTVS_TPSA>
64.8
> <PUBCHEM_MONOISOTOPIC_WEIGHT>
224.07318219
> <PUBCHEM_TOTAL_CHARGE>
0
> <PUBCHEM_HEAVY_ATOM_COUNT>
15
> <PUBCHEM_ATOM_DEF_STEREO_COUNT>
1
> <PUBCHEM_ATOM_UDEF_STEREO_COUNT>
0
> <PUBCHEM_BOND_DEF_STEREO_COUNT>
0
> <PUBCHEM_BOND_UDEF_STEREO_COUNT>
0
> <PUBCHEM_ISOTOPIC_ATOM_COUNT>
0
> <PUBCHEM_COMPONENT_COUNT>
1
> <PUBCHEM_CACTVS_TAUTO_COUNT>
-1
> <PUBCHEM_COORDINATE_TYPE>
1
5
255
> <PUBCHEM_BONDANNOTATIONS>
10  12  8
8  2  6
3  11  8
3  9  8
4  10  8
4  11  8
5  15  8
5  9  8
6  12  8
6  15  8
9  10  8
$$$$
