500858
  -OEChem-10302200282D
138145  0     1  0  0  0  0  0999 V2000
    8.6825   -6.5103    0.0000 O   0  0  0  0  0  0  0  0  0  0  0  0
    6.7880   -4.8932    0.0000 O   0  0  0  0  0  0  0  0  0  0  0  0
    6.7853   -6.5027    0.0000 O   0  0  0  0  0  0  0  0  0  0  0  0
   10.8609   -4.8960    0.0000 O   0  0  0  0  0  0  0  0  0  0  0  0
    8.9960   -3.9417    0.0000 O   0  0  0  0  0  0  0  0  0  0  0  0
   11.8097   -6.2066    0.0000 O   0  0  0  0  0  0  0  0  0  0  0  0
    7.6138    0.1922    0.0000 O   0  0  0  0  0  0  0  0  0  0  0  0
    7.3496   -3.4036    0.0000 O   0  0  0  0  0  0  0  0  0  0  0  0
   10.5493    0.8109    0.0000 O   0  0  0  0  0  0  0  0  0  0  0  0
    6.2619   -1.2312    0.0000 O   0  0  0  0  0  0  0  0  0  0  0  0
    6.6353   -0.0140    0.0000 O   0  0  0  0  0  0  0  0  0  0  0  0
    9.2601   -0.3458    0.0000 O   0  0  0  0  0  0  0  0  0  0  0  0
    9.2136    2.2995    0.0000 N   0  0  3  0  0  0  0  0  0  0  0  0
    9.8349    4.2005    0.0000 N   0  0  3  0  0  0  0  0  0  0  0  0
    4.9889    0.5241    0.0000 N   0  0  0  0  0  0  0  0  0  0  0  0
   11.8385    1.9676    0.0000 N   0  0  0  0  0  0  0  0  0  0  0  0
   12.7705    4.8192    0.0000 N   0  0  0  0  0  0  0  0  0  0  0  0
    7.7337   -5.1996    0.0000 C   0  0  1  0  0  0  0  0  0  0  0  0
    9.2717   -5.7023    0.0000 C   0  0  1  0  0  0  0  0  0  0  0  0
    8.6853   -4.8922    0.0000 C   0  0  2  0  0  0  0  0  0  0  0  0
    7.7320   -6.1996    0.0000 C   0  0  3  0  0  0  0  0  0  0  0  0
   10.2717   -5.7040    0.0000 C   0  0  3  0  0  0  0  0  0  0  0  0
    6.2030   -5.6970    0.0000 C   0  0  0  0  0  0  0  0  0  0  0  0
   10.8581   -6.5140    0.0000 C   0  0  0  0  0  0  0  0  0  0  0  0
   11.8114   -5.2066    0.0000 C   0  0  0  0  0  0  0  0  0  0  0  0
    5.3930   -6.2833    0.0000 C   0  0  0  0  0  0  0  0  0  0  0  0
    5.3950   -5.1078    0.0000 C   0  0  0  0  0  0  0  0  0  0  0  0
   12.8114   -5.2084    0.0000 C   0  0  0  0  0  0  0  0  0  0  0  0
   12.1221   -4.2561    0.0000 C   0  0  0  0  0  0  0  0  0  0  0  0
    8.3282   -3.1974    0.0000 C   0  0  0  0  0  0  0  0  0  0  0  0
   10.1921    2.5057    0.0000 C   0  0  1  0  0  0  0  0  0  0  0  0
    8.9030    1.3490    0.0000 C   0  0  0  0  0  0  0  0  0  0  0  0
    7.9244    1.1428    0.0000 C   0  0  2  0  0  0  0  0  0  0  0  0
    8.6388   -2.2469    0.0000 C   0  0  0  0  0  0  0  0  0  0  0  0
    8.5458    3.0438    0.0000 C   0  0  0  0  0  0  0  0  0  0  0  0
   10.5028    3.4562    0.0000 C   0  0  0  0  0  0  0  0  0  0  0  0
    8.8564    3.9943    0.0000 C   0  0  0  0  0  0  0  0  0  0  0  0
    7.2566    1.8871    0.0000 C   0  0  0  0  0  0  0  0  0  0  0  0
    6.2781    1.6808    0.0000 C   0  0  2  0  0  0  0  0  0  0  0  0
    7.9710   -1.5026    0.0000 C   0  0  0  0  0  0  0  0  0  0  0  0
   10.8600    1.7614    0.0000 C   0  0  0  0  0  0  0  0  0  0  0  0
    4.6783   -0.4264    0.0000 C   0  0  2  0  0  0  0  0  0  0  0  0
   10.1456    5.1511    0.0000 C   0  0  0  0  0  0  0  0  0  0  0  0
    5.2619   -1.2312    0.0000 C   0  0  1  0  0  0  0  0  0  0  0  0
    5.6103    2.4252    0.0000 C   0  0  0  0  0  0  0  0  0  0  0  0
    5.9674    0.7303    0.0000 C   0  0  0  0  0  0  0  0  0  0  0  0
    8.2816   -0.5521    0.0000 C   0  0  0  0  0  0  0  0  0  0  0  0
    3.7320   -0.7311    0.0000 C   0  0  0  0  0  0  0  0  0  0  0  0
    4.6783   -2.0359    0.0000 C   0  0  0  0  0  0  0  0  0  0  0  0
   12.5063    1.2233    0.0000 C   0  0  0  0  0  0  0  0  0  0  0  0
    3.7320   -1.7312    0.0000 C   0  0  0  0  0  0  0  0  0  0  0  0
   11.1241    5.3573    0.0000 C   0  0  0  0  0  0  0  0  0  0  0  0
    5.9209    3.3757    0.0000 C   0  0  0  0  0  0  0  0  0  0  0  0
    2.8660   -0.2311    0.0000 C   0  0  0  0  0  0  0  0  0  0  0  0
    2.8660   -2.2312    0.0000 C   0  0  0  0  0  0  0  0  0  0  0  0
   13.1742    0.4790    0.0000 C   0  0  0  0  0  0  0  0  0  0  0  0
   13.2506    1.8912    0.0000 C   0  0  0  0  0  0  0  0  0  0  0  0
   11.7620    0.5555    0.0000 C   0  0  0  0  0  0  0  0  0  0  0  0
   11.4348    6.3078    0.0000 C   0  0  0  0  0  0  0  0  0  0  0  0
    2.0000   -0.7311    0.0000 C   0  0  0  0  0  0  0  0  0  0  0  0
   11.7920    4.6130    0.0000 C   0  0  0  0  0  0  0  0  0  0  0  0
    2.0000   -1.7312    0.0000 C   0  0  0  0  0  0  0  0  0  0  0  0
    5.2531    4.1200    0.0000 C   0  0  0  0  0  0  0  0  0  0  0  0
    6.8994    3.5819    0.0000 C   0  0  0  0  0  0  0  0  0  0  0  0
   12.4133    6.5140    0.0000 C   0  0  0  0  0  0  0  0  0  0  0  0
    5.5637    5.0705    0.0000 C   0  0  0  0  0  0  0  0  0  0  0  0
    7.2101    4.5324    0.0000 C   0  0  0  0  0  0  0  0  0  0  0  0
    6.5422    5.2767    0.0000 C   0  0  0  0  0  0  0  0  0  0  0  0
   13.0811    5.7697    0.0000 C   0  0  0  0  0  0  0  0  0  0  0  0
    7.7341   -4.3496    0.0000 H   0  0  0  0  0  0  0  0  0  0  0  0
    9.6563   -6.4603    0.0000 H   0  0  0  0  0  0  0  0  0  0  0  0
    8.2477   -4.4531    0.0000 H   0  0  0  0  0  0  0  0  0  0  0  0
    7.7301   -6.8196    0.0000 H   0  0  0  0  0  0  0  0  0  0  0  0
    9.9912   -5.1511    0.0000 H   0  0  0  0  0  0  0  0  0  0  0  0
   10.3206   -6.8231    0.0000 H   0  0  0  0  0  0  0  0  0  0  0  0
   11.1093   -7.0808    0.0000 H   0  0  0  0  0  0  0  0  0  0  0  0
    5.0295   -5.7811    0.0000 H   0  0  0  0  0  0  0  0  0  0  0  0
    4.8908   -6.6469    0.0000 H   0  0  0  0  0  0  0  0  0  0  0  0
    5.7566   -6.7856    0.0000 H   0  0  0  0  0  0  0  0  0  0  0  0
    5.7604   -4.6068    0.0000 H   0  0  0  0  0  0  0  0  0  0  0  0
    4.8941   -4.7425    0.0000 H   0  0  0  0  0  0  0  0  0  0  0  0
    5.0298   -5.6087    0.0000 H   0  0  0  0  0  0  0  0  0  0  0  0
   12.8103   -5.8284    0.0000 H   0  0  0  0  0  0  0  0  0  0  0  0
   13.4314   -5.2094    0.0000 H   0  0  0  0  0  0  0  0  0  0  0  0
   12.8125   -4.5884    0.0000 H   0  0  0  0  0  0  0  0  0  0  0  0
   12.7114   -4.4487    0.0000 H   0  0  0  0  0  0  0  0  0  0  0  0
   12.3147   -3.6668    0.0000 H   0  0  0  0  0  0  0  0  0  0  0  0
   11.5328   -4.0635    0.0000 H   0  0  0  0  0  0  0  0  0  0  0  0
    9.9995    1.9164    0.0000 H   0  0  0  0  0  0  0  0  0  0  0  0
    8.9235    0.7293    0.0000 H   0  0  0  0  0  0  0  0  0  0  0  0
    9.5168    1.2616    0.0000 H   0  0  0  0  0  0  0  0  0  0  0  0
    8.3385    0.6813    0.0000 H   0  0  0  0  0  0  0  0  0  0  0  0
    9.1857   -2.5389    0.0000 H   0  0  0  0  0  0  0  0  0  0  0  0
    9.0214   -1.7590    0.0000 H   0  0  0  0  0  0  0  0  0  0  0  0
    7.9988    3.3358    0.0000 H   0  0  0  0  0  0  0  0  0  0  0  0
    8.1632    2.5559    0.0000 H   0  0  0  0  0  0  0  0  0  0  0  0
   11.0497    3.1642    0.0000 H   0  0  0  0  0  0  0  0  0  0  0  0
   10.8853    3.9442    0.0000 H   0  0  0  0  0  0  0  0  0  0  0  0
    8.8359    4.6140    0.0000 H   0  0  0  0  0  0  0  0  0  0  0  0
    8.2426    4.0817    0.0000 H   0  0  0  0  0  0  0  0  0  0  0  0
    7.7830    2.2147    0.0000 H   0  0  0  0  0  0  0  0  0  0  0  0
    7.0254    2.4623    0.0000 H   0  0  0  0  0  0  0  0  0  0  0  0
    6.6922    1.2194    0.0000 H   0  0  0  0  0  0  0  0  0  0  0  0
    7.4240   -1.2106    0.0000 H   0  0  0  0  0  0  0  0  0  0  0  0
    7.5884   -1.9905    0.0000 H   0  0  0  0  0  0  0  0  0  0  0  0
    5.2908   -0.3302    0.0000 H   0  0  0  0  0  0  0  0  0  0  0  0
   10.1250    5.7707    0.0000 H   0  0  0  0  0  0  0  0  0  0  0  0
    9.5318    5.2384    0.0000 H   0  0  0  0  0  0  0  0  0  0  0  0
    5.5436   -1.7834    0.0000 H   0  0  0  0  0  0  0  0  0  0  0  0
    5.0633    2.7172    0.0000 H   0  0  0  0  0  0  0  0  0  0  0  0
    5.2277    1.9372    0.0000 H   0  0  0  0  0  0  0  0  0  0  0  0
    4.4272   -2.6028    0.0000 H   0  0  0  0  0  0  0  0  0  0  0  0
    5.2156   -2.3451    0.0000 H   0  0  0  0  0  0  0  0  0  0  0  0
    4.5749    0.9856    0.0000 H   0  0  0  0  0  0  0  0  0  0  0  0
   12.0311    2.5570    0.0000 H   0  0  0  0  0  0  0  0  0  0  0  0
    2.8660    0.3889    0.0000 H   0  0  0  0  0  0  0  0  0  0  0  0
    2.8660   -2.8512    0.0000 H   0  0  0  0  0  0  0  0  0  0  0  0
   12.7127    0.0650    0.0000 H   0  0  0  0  0  0  0  0  0  0  0  0
   13.5882    0.0176    0.0000 H   0  0  0  0  0  0  0  0  0  0  0  0
   13.6356    0.8931    0.0000 H   0  0  0  0  0  0  0  0  0  0  0  0
   13.6647    1.4297    0.0000 H   0  0  0  0  0  0  0  0  0  0  0  0
   13.7121    2.3052    0.0000 H   0  0  0  0  0  0  0  0  0  0  0  0
   12.8366    2.3526    0.0000 H   0  0  0  0  0  0  0  0  0  0  0  0
   11.3480    1.0170    0.0000 H   0  0  0  0  0  0  0  0  0  0  0  0
   11.3005    0.1414    0.0000 H   0  0  0  0  0  0  0  0  0  0  0  0
   12.1761    0.0940    0.0000 H   0  0  0  0  0  0  0  0  0  0  0  0
    6.5719   -1.7681    0.0000 H   0  0  0  0  0  0  0  0  0  0  0  0
   11.0207    6.7693    0.0000 H   0  0  0  0  0  0  0  0  0  0  0  0
    1.4631   -0.4211    0.0000 H   0  0  0  0  0  0  0  0  0  0  0  0
   11.5993    4.0237    0.0000 H   0  0  0  0  0  0  0  0  0  0  0  0
    1.4631   -2.0412    0.0000 H   0  0  0  0  0  0  0  0  0  0  0  0
    4.6464    3.9921    0.0000 H   0  0  0  0  0  0  0  0  0  0  0  0
    7.3135    3.1204    0.0000 H   0  0  0  0  0  0  0  0  0  0  0  0
   12.6059    7.1033    0.0000 H   0  0  0  0  0  0  0  0  0  0  0  0
    5.1497    5.5320    0.0000 H   0  0  0  0  0  0  0  0  0  0  0  0
    7.8168    4.6603    0.0000 H   0  0  0  0  0  0  0  0  0  0  0  0
    6.7349    5.8660    0.0000 H   0  0  0  0  0  0  0  0  0  0  0  0
   13.6878    5.8976    0.0000 H   0  0  0  0  0  0  0  0  0  0  0  0
  1 19  1  0  0  0  0
  1 21  1  0  0  0  0
  2 18  1  0  0  0  0
  2 23  1  0  0  0  0
  3 21  1  0  0  0  0
  3 23  1  0  0  0  0
  4 22  1  0  0  0  0
  4 25  1  0  0  0  0
 20  5  1  1  0  0  0
  5 30  1  0  0  0  0
  6 24  1  0  0  0  0
  6 25  1  0  0  0  0
 33  7  1  1  0  0  0
  7 47  1  0  0  0  0
  8 30  2  0  0  0  0
  9 41  2  0  0  0  0
 44 10  1  6  0  0  0
 10127  1  0  0  0  0
 11 46  2  0  0  0  0
 12 47  2  0  0  0  0
 13 31  1  0  0  0  0
 13 32  1  0  0  0  0
 13 35  1  0  0  0  0
 14 36  1  0  0  0  0
 14 37  1  0  0  0  0
 14 43  1  0  0  0  0
 42 15  1  6  0  0  0
 15 46  1  0  0  0  0
 15114  1  0  0  0  0
 16 41  1  0  0  0  0
 16 50  1  0  0  0  0
 16115  1  0  0  0  0
 17 61  1  0  0  0  0
 17 69  2  0  0  0  0
 18 20  1  0  0  0  0
 18 21  1  0  0  0  0
 18 70  1  6  0  0  0
 19 20  1  0  0  0  0
 19 22  1  0  0  0  0
 19 71  1  6  0  0  0
 20 72  1  0  0  0  0
 21 73  1  0  0  0  0
 22 24  1  0  0  0  0
 22 74  1  0  0  0  0
 23 26  1  0  0  0  0
 23 27  1  0  0  0  0
 24 75  1  0  0  0  0
 24 76  1  0  0  0  0
 25 28  1  0  0  0  0
 25 29  1  0  0  0  0
 26 77  1  0  0  0  0
 26 78  1  0  0  0  0
 26 79  1  0  0  0  0
 27 80  1  0  0  0  0
 27 81  1  0  0  0  0
 27 82  1  0  0  0  0
 28 83  1  0  0  0  0
 28 84  1  0  0  0  0
 28 85  1  0  0  0  0
 29 86  1  0  0  0  0
 29 87  1  0  0  0  0
 29 88  1  0  0  0  0
 30 34  1  0  0  0  0
 31 36  1  0  0  0  0
 31 41  1  1  0  0  0
 31 89  1  0  0  0  0
 32 33  1  0  0  0  0
 32 90  1  0  0  0  0
 32 91  1  0  0  0  0
 33 38  1  0  0  0  0
 33 92  1  0  0  0  0
 34 40  1  0  0  0  0
 34 93  1  0  0  0  0
 34 94  1  0  0  0  0
 35 37  1  0  0  0  0
 35 95  1  0  0  0  0
 35 96  1  0  0  0  0
 36 97  1  0  0  0  0
 36 98  1  0  0  0  0
 37 99  1  0  0  0  0
 37100  1  0  0  0  0
 39 38  1  1  0  0  0
 38101  1  0  0  0  0
 38102  1  0  0  0  0
 39 45  1  0  0  0  0
 39 46  1  0  0  0  0
 39103  1  0  0  0  0
 40 47  1  0  0  0  0
 40104  1  0  0  0  0
 40105  1  0  0  0  0
 42 44  1  0  0  0  0
 42 48  1  0  0  0  0
 42106  1  0  0  0  0
 43 52  1  0  0  0  0
 43107  1  0  0  0  0
 43108  1  0  0  0  0
 44 49  1  0  0  0  0
 44109  1  0  0  0  0
 45 53  1  0  0  0  0
 45110  1  0  0  0  0
 45111  1  0  0  0  0
 48 51  1  0  0  0  0
 48 54  2  0  0  0  0
 49 51  1  0  0  0  0
 49112  1  0  0  0  0
 49113  1  0  0  0  0
 50 56  1  0  0  0  0
 50 57  1  0  0  0  0
 50 58  1  0  0  0  0
 51 55  2  0  0  0  0
 52 59  1  0  0  0  0
 52 61  2  0  0  0  0
 53 63  2  0  0  0  0
 53 64  1  0  0  0  0
 54 60  1  0  0  0  0
 54116  1  0  0  0  0
 55 62  1  0  0  0  0
 55117  1  0  0  0  0
 56118  1  0  0  0  0
 56119  1  0  0  0  0
 56120  1  0  0  0  0
 57121  1  0  0  0  0
 57122  1  0  0  0  0
 57123  1  0  0  0  0
 58124  1  0  0  0  0
 58125  1  0  0  0  0
 58126  1  0  0  0  0
 59 65  2  0  0  0  0
 59128  1  0  0  0  0
 60 62  2  0  0  0  0
 60129  1  0  0  0  0
 61130  1  0  0  0  0
 62131  1  0  0  0  0
 63 66  1  0  0  0  0
 63132  1  0  0  0  0
 64 67  2  0  0  0  0
 64133  1  0  0  0  0
 65 69  1  0  0  0  0
 65134  1  0  0  0  0
 66 68  2  0  0  0  0
 66135  1  0  0  0  0
 67 68  1  0  0  0  0
 67136  1  0  0  0  0
 68137  1  0  0  0  0
 69138  1  0  0  0  0
M  END
> <PUBCHEM_COMPOUND_CID>
500858
> <PUBCHEM_COMPOUND_CANONICALIZED>
1
> <PUBCHEM_CACTVS_COMPLEXITY>
1760
> <PUBCHEM_CACTVS_HBOND_ACCEPTOR>
15
> <PUBCHEM_CACTVS_HBOND_DONOR>
3
> <PUBCHEM_CACTVS_ROTATABLE_BOND>
20
> <PUBCHEM_CACTVS_SUBSKEYS>
AAADcfB/vAAAAAAAAAAAAAAAAAAAAaJEiAA8eIEAAAASAGAB0AAAHgAQCAAADbzxmgc+iJPIFgCoAjH3XACCgCAxAiAI2KG4ZJgbcPrA0bG3YAhl1gHeyAf7+f6OgAAAAAAQAAAAAAAAACAAAKAACQgAAA==
> <PUBCHEM_IUPAC_OPENEYE_NAME>
O1-[(5R,6S,6aS)-5-(2,2-dimethyl-1,3-dioxolan-4-yl)-2,2-dimethyl-3a,5,6,6a-tetrahydrofuro[2,3-d][1,3]dioxol-6-yl] O4-[(1S,3S)-3-benzyl-1-[[(2S)-2-(tert-butylcarbamoyl)-4-(3-pyridylmethyl)piperazin-1-yl]methyl]-4-[[(1S,2R)-2-hydroxyindan-1-yl]amino]-4-oxo-butyl] butanedioate
> <PUBCHEM_IUPAC_CAS_NAME>
butanedioic acid O1-[(5R,6S,6aS)-5-(2,2-dimethyl-1,3-dioxolan-4-yl)-2,2-dimethyl-3a,5,6,6a-tetrahydrofuro[2,3-d][1,3]dioxol-6-yl] ester O4-[(2S,4S)-1-[(2S)-2-[(tert-butylamino)-oxomethyl]-4-(3-pyridinylmethyl)-1-piperazinyl]-5-[[(1S,2R)-2-hydroxy-2,3-dihydro-1H-inden-1-yl]amino]-5-oxo-4-(phenylmethyl)pentan-2-yl] ester
> <PUBCHEM_IUPAC_NAME_MARKUP>
1-<I>O</I>-[(5<I>R</I>,6<I>S</I>,6<I>a</I><I>S</I>)-5-(2,2-dimethyl-1,3-dioxolan-4-yl)-2,2-dimethyl-3<I>a</I>,5,6,6<I>a</I>-tetrahydrofuro[2,3-d][1,3]dioxol-6-yl] 4-<I>O</I>-[(2<I>S</I>,4<I>S</I>)-4-benzyl-1-[(2<I>S</I>)-2-(<I>tert</I>-butylcarbamoyl)-4-(pyridin-3-ylmethyl)piperazin-1-yl]-5-[[(1<I>S</I>,2<I>R</I>)-2-hydroxy-2,3-dihydro-1<I>H</I>-inden-1-yl]amino]-5-oxopentan-2-yl] butanedioate
> <PUBCHEM_IUPAC_NAME>
1-O-[(5R,6S,6aS)-5-(2,2-dimethyl-1,3-dioxolan-4-yl)-2,2-dimethyl-3a,5,6,6a-tetrahydrofuro[2,3-d][1,3]dioxol-6-yl] 4-O-[(2S,4S)-4-benzyl-1-[(2S)-2-(tert-butylcarbamoyl)-4-(pyridin-3-ylmethyl)piperazin-1-yl]-5-[[(1S,2R)-2-hydroxy-2,3-dihydro-1H-inden-1-yl]amino]-5-oxopentan-2-yl] butanedioate
> <PUBCHEM_IUPAC_SYSTEMATIC_NAME>
O1-[(5R,6S,6aS)-5-(2,2-dimethyl-1,3-dioxolan-4-yl)-2,2-dimethyl-3a,5,6,6a-tetrahydrofuro[2,3-d][1,3]dioxol-6-yl] O4-[(2S,4S)-1-[(2S)-2-(tert-butylcarbamoyl)-4-(pyridin-3-ylmethyl)piperazin-1-yl]-5-[[(1S,2R)-2-oxidanyl-2,3-dihydro-1H-inden-1-yl]amino]-5-oxidanylidene-4-(phenylmethyl)pentan-2-yl] butanedioate
> <PUBCHEM_IUPAC_TRADITIONAL_NAME>
succinic acid O1-[(5R,6S,6aS)-5-(2,2-dimethyl-1,3-dioxolan-4-yl)-2,2-dimethyl-3a,5,6,6a-tetrahydrofuro[2,3-d][1,3]dioxol-6-yl] ester O4-[(1S,3S)-3-benzyl-1-[[(2S)-2-(tert-butylcarbamoyl)-4-(3-pyridylmethyl)piperazino]methyl]-4-[[(1S,2R)-2-hydroxyindan-1-yl]amino]-4-keto-butyl] ester
> <PUBCHEM_IUPAC_INCHI>
InChI=1S/C52H69N5O12/c1-50(2,3)55-48(62)38-30-56(28-33-16-13-21-53-27-33)22-23-57(38)29-36(25-35(24-32-14-9-8-10-15-32)47(61)54-43-37-18-12-11-17-34(37)26-39(43)58)64-41(59)19-20-42(60)65-45-44(40-31-63-51(4,5)67-40)66-49-46(45)68-52(6,7)69-49/h8-18,21,27,35-36,38-40,43-46,49,58H,19-20,22-26,28-31H2,1-7H3,(H,54,61)(H,55,62)/t35-,36-,38-,39+,40?,43-,44+,45-,46-,49?/m0/s1
> <PUBCHEM_IUPAC_INCHIKEY>
FZMABOHUFXPJHP-LBVHCZLDSA-N
> <PUBCHEM_XLOGP3_AA>
3.6
> <PUBCHEM_EXACT_MASS>
955.49427265
> <PUBCHEM_MOLECULAR_FORMULA>
C52H69N5O12
> <PUBCHEM_MOLECULAR_WEIGHT>
956.1
> <PUBCHEM_OPENEYE_CAN_SMILES>
CC1(OCC(O1)C2C(C3C(O2)OC(O3)(C)C)OC(=O)CCC(=O)OC(CC(CC4=CC=CC=C4)C(=O)NC5C(CC6=CC=CC=C56)O)CN7CCN(CC7C(=O)NC(C)(C)C)CC8=CN=CC=C8)C
> <PUBCHEM_OPENEYE_ISO_SMILES>
CC1(OCC(O1)[C@@H]2[C@@H]([C@H]3C(O2)OC(O3)(C)C)OC(=O)CCC(=O)O[C@@H](C[C@H](CC4=CC=CC=C4)C(=O)N[C@@H]5[C@@H](CC6=CC=CC=C56)O)CN7CCN(C[C@H]7C(=O)NC(C)(C)C)CC8=CN=CC=C8)C
> <PUBCHEM_CACTVS_TPSA>
197
> <PUBCHEM_MONOISOTOPIC_WEIGHT>
955.49427265
> <PUBCHEM_TOTAL_CHARGE>
0
> <PUBCHEM_HEAVY_ATOM_COUNT>
69
> <PUBCHEM_ATOM_DEF_STEREO_COUNT>
8
> <PUBCHEM_ATOM_UDEF_STEREO_COUNT>
2
> <PUBCHEM_BOND_DEF_STEREO_COUNT>
0
> <PUBCHEM_BOND_UDEF_STEREO_COUNT>
0
> <PUBCHEM_ISOTOPIC_ATOM_COUNT>
0
> <PUBCHEM_COMPONENT_COUNT>
1
> <PUBCHEM_CACTVS_TAUTO_COUNT>
-1
> <PUBCHEM_COORDINATE_TYPE>
1
5
255
> <PUBCHEM_BONDANNOTATIONS>
21  1  3
44  10  6
42  15  6
17  61  8
17  69  8
18  70  6
19  71  6
22  24  3
31  41  5
39  38  5
48  51  8
48  54  8
20  5  5
51  55  8
52  59  8
52  61  8
53  63  8
53  64  8
54  60  8
55  62  8
59  65  8
60  62  8
63  66  8
64  67  8
65  69  8
66  68  8
67  68  8
33  7  5
$$$$
