500843
  -OEChem-10302200282D
 99103  0     1  0  0  0  0  0999 V2000
    6.3981   -1.0805    0.0000 S   0  0  0  0  0  0  0  0  0  0  0  0
   12.8249   -0.6622    0.0000 O   0  0  0  0  0  0  0  0  0  0  0  0
   11.4236    0.3558    0.0000 O   0  0  0  0  0  0  0  0  0  0  0  0
   10.4291    0.4604    0.0000 O   0  0  0  0  0  0  0  0  0  0  0  0
    9.7480    1.6400    0.0000 O   0  0  0  0  0  0  0  0  0  0  0  0
    6.9902    3.9625    0.0000 O   0  0  0  0  0  0  0  0  0  0  0  0
    5.5889    2.9444    0.0000 O   0  0  0  0  0  0  0  0  0  0  0  0
    2.8680   -4.1047    0.0000 O   0  0  0  0  0  0  0  0  0  0  0  0
   10.2480   -1.2622    0.0000 N   0  0  0  0  0  0  0  0  0  0  0  0
    8.3468    0.6219    0.0000 N   0  0  0  0  0  0  0  0  0  0  0  0
    7.1712    2.2399    0.0000 N   0  0  0  0  0  0  0  0  0  0  0  0
    6.3981   -4.0805    0.0000 N   0  0  0  0  0  0  0  0  0  0  0  0
   11.2426   -1.3667    0.0000 C   0  0  3  0  0  0  0  0  0  0  0  0
   11.1380   -2.3612    0.0000 C   0  0  2  0  0  0  0  0  0  0  0  0
   12.0516   -1.9545    0.0000 C   0  0  0  0  0  0  0  0  0  0  0  0
   11.8303   -0.5577    0.0000 C   0  0  0  0  0  0  0  0  0  0  0  0
   10.5502   -3.1703    0.0000 C   0  0  0  0  0  0  0  0  0  0  0  0
    8.8468   -0.2441    0.0000 C   0  0  2  0  0  0  0  0  0  0  0  0
    9.8413   -0.3487    0.0000 C   0  0  0  0  0  0  0  0  0  0  0  0
    8.1776   -0.9873    0.0000 C   0  0  0  0  0  0  0  0  0  0  0  0
    7.2641   -0.5805    0.0000 C   0  0  2  0  0  0  0  0  0  0  0  0
    7.3686    0.4140    0.0000 C   0  0  0  0  0  0  0  0  0  0  0  0
    8.7535    1.5354    0.0000 C   0  0  0  0  0  0  0  0  0  0  0  0
    8.1657    2.3445    0.0000 C   0  0  2  0  0  0  0  0  0  0  0  0
   10.9570   -4.0838    0.0000 C   0  0  0  0  0  0  0  0  0  0  0  0
    8.5725    3.2580    0.0000 C   0  0  0  0  0  0  0  0  0  0  0  0
    8.9792    4.1716    0.0000 C   0  0  0  0  0  0  0  0  0  0  0  0
    7.6589    3.6648    0.0000 C   0  0  0  0  0  0  0  0  0  0  0  0
    9.4860    2.8513    0.0000 C   0  0  0  0  0  0  0  0  0  0  0  0
    6.3981   -2.0805    0.0000 C   0  0  0  0  0  0  0  0  0  0  0  0
    6.7645    1.3264    0.0000 C   0  0  0  0  0  0  0  0  0  0  0  0
    6.5834    3.0490    0.0000 C   0  0  0  0  0  0  0  0  0  0  0  0
    5.5320   -2.5805    0.0000 C   0  0  0  0  0  0  0  0  0  0  0  0
    7.2641   -2.5805    0.0000 C   0  0  0  0  0  0  0  0  0  0  0  0
    5.5320   -3.5805    0.0000 C   0  0  0  0  0  0  0  0  0  0  0  0
    7.2641   -3.5805    0.0000 C   0  0  0  0  0  0  0  0  0  0  0  0
    6.4024    4.7715    0.0000 C   0  0  0  0  0  0  0  0  0  0  0  0
    4.6381   -2.0459    0.0000 C   0  0  0  0  0  0  0  0  0  0  0  0
    4.6381   -4.1152    0.0000 C   0  0  0  0  0  0  0  0  0  0  0  0
    3.7320   -2.5597    0.0000 C   0  0  0  0  0  0  0  0  0  0  0  0
    5.8146    5.5805    0.0000 C   0  0  0  0  0  0  0  0  0  0  0  0
    7.2114    5.3593    0.0000 C   0  0  0  0  0  0  0  0  0  0  0  0
    5.5934    4.1837    0.0000 C   0  0  0  0  0  0  0  0  0  0  0  0
    8.1301   -4.0805    0.0000 C   0  0  0  0  0  0  0  0  0  0  0  0
    3.7320   -3.6014    0.0000 C   0  0  0  0  0  0  0  0  0  0  0  0
    8.9962   -3.5805    0.0000 C   0  0  0  0  0  0  0  0  0  0  0  0
    8.1301   -5.0805    0.0000 C   0  0  0  0  0  0  0  0  0  0  0  0
    9.8622   -4.0805    0.0000 C   0  0  0  0  0  0  0  0  0  0  0  0
    8.9962   -5.5805    0.0000 C   0  0  0  0  0  0  0  0  0  0  0  0
    9.8622   -5.0805    0.0000 C   0  0  0  0  0  0  0  0  0  0  0  0
    2.0000   -3.6080    0.0000 C   0  0  0  0  0  0  0  0  0  0  0  0
   10.5592   -2.1391    0.0000 H   0  0  0  0  0  0  0  0  0  0  0  0
   12.3983   -2.4685    0.0000 H   0  0  0  0  0  0  0  0  0  0  0  0
   12.4976   -1.5238    0.0000 H   0  0  0  0  0  0  0  0  0  0  0  0
    9.8836   -1.7638    0.0000 H   0  0  0  0  0  0  0  0  0  0  0  0
    9.9336   -3.1055    0.0000 H   0  0  0  0  0  0  0  0  0  0  0  0
    9.1844    0.2759    0.0000 H   0  0  0  0  0  0  0  0  0  0  0  0
    7.8676   -1.5242    0.0000 H   0  0  0  0  0  0  0  0  0  0  0  0
    8.6792   -1.3517    0.0000 H   0  0  0  0  0  0  0  0  0  0  0  0
    7.2966   -1.1997    0.0000 H   0  0  0  0  0  0  0  0  0  0  0  0
    7.3038    1.0306    0.0000 H   0  0  0  0  0  0  0  0  0  0  0  0
    6.7486    0.4140    0.0000 H   0  0  0  0  0  0  0  0  0  0  0  0
    7.8013    2.8460    0.0000 H   0  0  0  0  0  0  0  0  0  0  0  0
   10.5926   -4.5854    0.0000 H   0  0  0  0  0  0  0  0  0  0  0  0
   11.5736   -4.1486    0.0000 H   0  0  0  0  0  0  0  0  0  0  0  0
   13.1893   -0.1606    0.0000 H   0  0  0  0  0  0  0  0  0  0  0  0
    9.5456    3.9194    0.0000 H   0  0  0  0  0  0  0  0  0  0  0  0
    9.2314    4.7380    0.0000 H   0  0  0  0  0  0  0  0  0  0  0  0
    8.4128    4.4237    0.0000 H   0  0  0  0  0  0  0  0  0  0  0  0
    7.9111    4.2311    0.0000 H   0  0  0  0  0  0  0  0  0  0  0  0
    7.0925    3.9169    0.0000 H   0  0  0  0  0  0  0  0  0  0  0  0
    7.4067    3.0984    0.0000 H   0  0  0  0  0  0  0  0  0  0  0  0
    9.2338    2.2849    0.0000 H   0  0  0  0  0  0  0  0  0  0  0  0
   10.0524    2.5991    0.0000 H   0  0  0  0  0  0  0  0  0  0  0  0
    9.7382    3.4177    0.0000 H   0  0  0  0  0  0  0  0  0  0  0  0
    6.1981    1.5786    0.0000 H   0  0  0  0  0  0  0  0  0  0  0  0
    6.5123    0.7600    0.0000 H   0  0  0  0  0  0  0  0  0  0  0  0
    7.3309    1.0742    0.0000 H   0  0  0  0  0  0  0  0  0  0  0  0
    7.8010   -2.2705    0.0000 H   0  0  0  0  0  0  0  0  0  0  0  0
    4.6453   -1.4259    0.0000 H   0  0  0  0  0  0  0  0  0  0  0  0
    4.6453   -4.7352    0.0000 H   0  0  0  0  0  0  0  0  0  0  0  0
    3.1963   -2.2476    0.0000 H   0  0  0  0  0  0  0  0  0  0  0  0
    6.3162    5.9450    0.0000 H   0  0  0  0  0  0  0  0  0  0  0  0
    5.4502    6.0821    0.0000 H   0  0  0  0  0  0  0  0  0  0  0  0
    5.3130    5.2161    0.0000 H   0  0  0  0  0  0  0  0  0  0  0  0
    7.5758    4.8577    0.0000 H   0  0  0  0  0  0  0  0  0  0  0  0
    7.7130    5.7237    0.0000 H   0  0  0  0  0  0  0  0  0  0  0  0
    6.8470    5.8609    0.0000 H   0  0  0  0  0  0  0  0  0  0  0  0
    5.2289    4.6853    0.0000 H   0  0  0  0  0  0  0  0  0  0  0  0
    5.0918    3.8193    0.0000 H   0  0  0  0  0  0  0  0  0  0  0  0
    5.9578    3.6821    0.0000 H   0  0  0  0  0  0  0  0  0  0  0  0
    8.9962   -2.9605    0.0000 H   0  0  0  0  0  0  0  0  0  0  0  0
    7.5932   -5.3905    0.0000 H   0  0  0  0  0  0  0  0  0  0  0  0
   10.3991   -3.7705    0.0000 H   0  0  0  0  0  0  0  0  0  0  0  0
    8.9962   -6.2005    0.0000 H   0  0  0  0  0  0  0  0  0  0  0  0
   10.3991   -5.3905    0.0000 H   0  0  0  0  0  0  0  0  0  0  0  0
    2.3079   -3.0699    0.0000 H   0  0  0  0  0  0  0  0  0  0  0  0
    1.4619   -3.3001    0.0000 H   0  0  0  0  0  0  0  0  0  0  0  0
    1.6921   -4.1461    0.0000 H   0  0  0  0  0  0  0  0  0  0  0  0
 21  1  1  1  0  0  0
  1 30  1  0  0  0  0
  2 16  1  0  0  0  0
  2 66  1  0  0  0  0
  3 16  2  0  0  0  0
  4 19  2  0  0  0  0
  5 23  2  0  0  0  0
  6 32  1  0  0  0  0
  6 37  1  0  0  0  0
  7 32  2  0  0  0  0
  8 45  1  0  0  0  0
  8 51  1  0  0  0  0
  9 13  1  0  0  0  0
  9 19  1  0  0  0  0
  9 55  1  0  0  0  0
 10 18  1  0  0  0  0
 10 22  1  0  0  0  0
 10 23  1  0  0  0  0
 24 11  1  1  0  0  0
 11 31  1  0  0  0  0
 11 32  1  0  0  0  0
 12 35  1  0  0  0  0
 12 36  2  0  0  0  0
 13 14  1  0  0  0  0
 13 15  1  0  0  0  0
 13 16  1  0  0  0  0
 14 15  1  0  0  0  0
 14 17  1  6  0  0  0
 14 52  1  0  0  0  0
 15 53  1  0  0  0  0
 15 54  1  0  0  0  0
 17 25  2  0  0  0  0
 17 56  1  0  0  0  0
 18 19  1  6  0  0  0
 18 20  1  0  0  0  0
 18 57  1  0  0  0  0
 20 21  1  0  0  0  0
 20 58  1  0  0  0  0
 20 59  1  0  0  0  0
 21 22  1  0  0  0  0
 21 60  1  0  0  0  0
 22 61  1  0  0  0  0
 22 62  1  0  0  0  0
 23 24  1  0  0  0  0
 24 26  1  0  0  0  0
 24 63  1  0  0  0  0
 25 64  1  0  0  0  0
 25 65  1  0  0  0  0
 26 27  1  0  0  0  0
 26 28  1  0  0  0  0
 26 29  1  0  0  0  0
 27 67  1  0  0  0  0
 27 68  1  0  0  0  0
 27 69  1  0  0  0  0
 28 70  1  0  0  0  0
 28 71  1  0  0  0  0
 28 72  1  0  0  0  0
 29 73  1  0  0  0  0
 29 74  1  0  0  0  0
 29 75  1  0  0  0  0
 30 33  1  0  0  0  0
 30 34  2  0  0  0  0
 31 76  1  0  0  0  0
 31 77  1  0  0  0  0
 31 78  1  0  0  0  0
 33 35  2  0  0  0  0
 33 38  1  0  0  0  0
 34 36  1  0  0  0  0
 34 79  1  0  0  0  0
 35 39  1  0  0  0  0
 36 44  1  0  0  0  0
 37 41  1  0  0  0  0
 37 42  1  0  0  0  0
 37 43  1  0  0  0  0
 38 40  2  0  0  0  0
 38 80  1  0  0  0  0
 39 45  2  0  0  0  0
 39 81  1  0  0  0  0
 40 45  1  0  0  0  0
 40 82  1  0  0  0  0
 41 83  1  0  0  0  0
 41 84  1  0  0  0  0
 41 85  1  0  0  0  0
 42 86  1  0  0  0  0
 42 87  1  0  0  0  0
 42 88  1  0  0  0  0
 43 89  1  0  0  0  0
 43 90  1  0  0  0  0
 43 91  1  0  0  0  0
 44 46  2  0  0  0  0
 44 47  1  0  0  0  0
 46 48  1  0  0  0  0
 46 92  1  0  0  0  0
 47 49  2  0  0  0  0
 47 93  1  0  0  0  0
 48 50  2  0  0  0  0
 48 94  1  0  0  0  0
 49 50  1  0  0  0  0
 49 95  1  0  0  0  0
 50 96  1  0  0  0  0
 51 97  1  0  0  0  0
 51 98  1  0  0  0  0
 51 99  1  0  0  0  0
M  END
> <PUBCHEM_COMPOUND_CID>
500843
> <PUBCHEM_COMPOUND_CANONICALIZED>
1
> <PUBCHEM_CACTVS_COMPLEXITY>
1310
> <PUBCHEM_CACTVS_HBOND_ACCEPTOR>
9
> <PUBCHEM_CACTVS_HBOND_DONOR>
2
> <PUBCHEM_CACTVS_ROTATABLE_BOND>
13
> <PUBCHEM_CACTVS_SUBSKEYS>
AAADcfB/uABAAAAAAAAAAAAAGAAAAWAAAAA8YIAAAAAAAACx9AAAHgQQCAAAD+zF3gayz/PIFgioAyXyXACCiCAhKjAImDm+bJgOZvLksbuccCxm1hn46AeY0eMPIAAAAgACAABAAAAEAAQAAAAAAAAAAA==
> <PUBCHEM_IUPAC_OPENEYE_NAME>
(2R)-1-[[(2S,4R)-1-[(2S)-2-[tert-butoxycarbonyl(methyl)amino]-3,3-dimethyl-butanoyl]-4-[(7-methoxy-2-phenyl-4-quinolyl)sulfanyl]pyrrolidine-2-carbonyl]amino]-2-vinyl-cyclopropanecarboxylic acid
> <PUBCHEM_IUPAC_CAS_NAME>
(2R)-1-[[[(2S,4R)-1-[(2S)-3,3-dimethyl-2-[methyl-[(2-methylpropan-2-yl)oxy-oxomethyl]amino]-1-oxobutyl]-4-[(7-methoxy-2-phenyl-4-quinolinyl)thio]-2-pyrrolidinyl]-oxomethyl]amino]-2-ethenyl-1-cyclopropanecarboxylic acid
> <PUBCHEM_IUPAC_NAME_MARKUP>
(2<I>R</I>)-1-[[(2<I>S</I>,4<I>R</I>)-1-[(2<I>S</I>)-3,3-dimethyl-2-[methyl-[(2-methylpropan-2-yl)oxycarbonyl]amino]butanoyl]-4-(7-methoxy-2-phenylquinolin-4-yl)sulfanylpyrrolidine-2-carbonyl]amino]-2-ethenylcyclopropane-1-carboxylic acid
> <PUBCHEM_IUPAC_NAME>
(2R)-1-[[(2S,4R)-1-[(2S)-3,3-dimethyl-2-[methyl-[(2-methylpropan-2-yl)oxycarbonyl]amino]butanoyl]-4-(7-methoxy-2-phenylquinolin-4-yl)sulfanylpyrrolidine-2-carbonyl]amino]-2-ethenylcyclopropane-1-carboxylic acid
> <PUBCHEM_IUPAC_SYSTEMATIC_NAME>
(2R)-1-[[(2S,4R)-1-[(2S)-3,3-dimethyl-2-[methyl-[(2-methylpropan-2-yl)oxycarbonyl]amino]butanoyl]-4-(7-methoxy-2-phenyl-quinolin-4-yl)sulfanyl-pyrrolidin-2-yl]carbonylamino]-2-ethenyl-cyclopropane-1-carboxylic acid
> <PUBCHEM_IUPAC_TRADITIONAL_NAME>
(2R)-1-[[(2S,4R)-1-[(2S)-2-[tert-butoxycarbonyl(methyl)amino]-3,3-dimethyl-butanoyl]-4-[(7-methoxy-2-phenyl-4-quinolyl)thio]prolyl]amino]-2-vinyl-cyclopropanecarboxylic acid
> <PUBCHEM_IUPAC_INCHI>
InChI=1S/C39H48N4O7S/c1-10-24-21-39(24,35(46)47)41-33(44)30-19-26(22-43(30)34(45)32(37(2,3)4)42(8)36(48)50-38(5,6)7)51-31-20-28(23-14-12-11-13-15-23)40-29-18-25(49-9)16-17-27(29)31/h10-18,20,24,26,30,32H,1,19,21-22H2,2-9H3,(H,41,44)(H,46,47)/t24-,26+,30-,32+,39?/m0/s1
> <PUBCHEM_IUPAC_INCHIKEY>
FNNDZFWHWLRDFI-NXAPKZNWSA-N
> <PUBCHEM_XLOGP3_AA>
6.6
> <PUBCHEM_EXACT_MASS>
716.32437106
> <PUBCHEM_MOLECULAR_FORMULA>
C39H48N4O7S
> <PUBCHEM_MOLECULAR_WEIGHT>
716.9
> <PUBCHEM_OPENEYE_CAN_SMILES>
CC(C)(C)C(C(=O)N1CC(CC1C(=O)NC2(CC2C=C)C(=O)O)SC3=CC(=NC4=C3C=CC(=C4)OC)C5=CC=CC=C5)N(C)C(=O)OC(C)(C)C
> <PUBCHEM_OPENEYE_ISO_SMILES>
CC(C)(C)[C@@H](C(=O)N1C[C@@H](C[C@H]1C(=O)NC2(C[C@@H]2C=C)C(=O)O)SC3=CC(=NC4=C3C=CC(=C4)OC)C5=CC=CC=C5)N(C)C(=O)OC(C)(C)C
> <PUBCHEM_CACTVS_TPSA>
164
> <PUBCHEM_MONOISOTOPIC_WEIGHT>
716.32437106
> <PUBCHEM_TOTAL_CHARGE>
0
> <PUBCHEM_HEAVY_ATOM_COUNT>
51
> <PUBCHEM_ATOM_DEF_STEREO_COUNT>
4
> <PUBCHEM_ATOM_UDEF_STEREO_COUNT>
1
> <PUBCHEM_BOND_DEF_STEREO_COUNT>
0
> <PUBCHEM_BOND_UDEF_STEREO_COUNT>
0
> <PUBCHEM_ISOTOPIC_ATOM_COUNT>
0
> <PUBCHEM_COMPONENT_COUNT>
1
> <PUBCHEM_CACTVS_TAUTO_COUNT>
-1
> <PUBCHEM_COORDINATE_TYPE>
1
5
255
> <PUBCHEM_BONDANNOTATIONS>
21  1  5
24  11  5
12  35  8
12  36  8
13  16  3
14  17  6
18  19  6
30  33  8
30  34  8
33  35  8
33  38  8
34  36  8
35  39  8
38  40  8
39  45  8
40  45  8
44  46  8
44  47  8
46  48  8
47  49  8
48  50  8
49  50  8
$$$$
