500819
  -OEChem-10302200282D
 95100  0     1  0  0  0  0  0999 V2000
   12.8249   -1.0272    0.0000 O   0  0  0  0  0  0  0  0  0  0  0  0
   11.4236   -0.0091    0.0000 O   0  0  0  0  0  0  0  0  0  0  0  0
    6.3981   -1.4454    0.0000 O   0  0  0  0  0  0  0  0  0  0  0  0
   10.4291    0.0955    0.0000 O   0  0  0  0  0  0  0  0  0  0  0  0
    9.7480    1.2751    0.0000 O   0  0  0  0  0  0  0  0  0  0  0  0
    6.9902    3.5976    0.0000 O   0  0  0  0  0  0  0  0  0  0  0  0
    5.5889    2.5795    0.0000 O   0  0  0  0  0  0  0  0  0  0  0  0
    5.9024    5.9454    0.0000 O   0  0  0  0  0  0  0  0  0  0  0  0
    2.8680   -4.4696    0.0000 O   0  0  0  0  0  0  0  0  0  0  0  0
   10.2480   -1.6271    0.0000 N   0  0  0  0  0  0  0  0  0  0  0  0
    8.3468    0.2570    0.0000 N   0  0  0  0  0  0  0  0  0  0  0  0
    7.1712    1.8750    0.0000 N   0  0  0  0  0  0  0  0  0  0  0  0
    6.3981   -4.4454    0.0000 N   0  0  0  0  0  0  0  0  0  0  0  0
   11.2426   -1.7316    0.0000 C   0  0  3  0  0  0  0  0  0  0  0  0
   11.1380   -2.7262    0.0000 C   0  0  2  0  0  0  0  0  0  0  0  0
   12.0516   -2.3194    0.0000 C   0  0  0  0  0  0  0  0  0  0  0  0
   11.8303   -0.9226    0.0000 C   0  0  0  0  0  0  0  0  0  0  0  0
   10.5502   -3.5352    0.0000 C   0  0  0  0  0  0  0  0  0  0  0  0
    8.8468   -0.6090    0.0000 C   0  0  2  0  0  0  0  0  0  0  0  0
    9.8413   -0.7136    0.0000 C   0  0  0  0  0  0  0  0  0  0  0  0
    8.1776   -1.3522    0.0000 C   0  0  0  0  0  0  0  0  0  0  0  0
    7.2641   -0.9454    0.0000 C   0  0  2  0  0  0  0  0  0  0  0  0
    7.3686    0.0491    0.0000 C   0  0  0  0  0  0  0  0  0  0  0  0
    8.7535    1.1705    0.0000 C   0  0  0  0  0  0  0  0  0  0  0  0
   10.9570   -4.4487    0.0000 C   0  0  0  0  0  0  0  0  0  0  0  0
    8.1657    1.9796    0.0000 C   0  0  2  0  0  0  0  0  0  0  0  0
    8.5725    2.8931    0.0000 C   0  0  0  0  0  0  0  0  0  0  0  0
    8.9792    3.8066    0.0000 C   0  0  0  0  0  0  0  0  0  0  0  0
    7.6589    3.2998    0.0000 C   0  0  0  0  0  0  0  0  0  0  0  0
    9.4860    2.4864    0.0000 C   0  0  0  0  0  0  0  0  0  0  0  0
    6.3981   -2.4454    0.0000 C   0  0  0  0  0  0  0  0  0  0  0  0
    6.5834    2.6840    0.0000 C   0  0  0  0  0  0  0  0  0  0  0  0
    5.5320   -2.9454    0.0000 C   0  0  0  0  0  0  0  0  0  0  0  0
    7.2641   -2.9454    0.0000 C   0  0  0  0  0  0  0  0  0  0  0  0
    5.5320   -3.9454    0.0000 C   0  0  0  0  0  0  0  0  0  0  0  0
    6.4024    4.4066    0.0000 C   0  0  2  0  0  0  0  0  0  0  0  0
    7.2641   -3.9454    0.0000 C   0  0  0  0  0  0  0  0  0  0  0  0
    4.6381   -2.4108    0.0000 C   0  0  0  0  0  0  0  0  0  0  0  0
    5.4024    4.4066    0.0000 C   0  0  0  0  0  0  0  0  0  0  0  0
    6.7114    5.3577    0.0000 C   0  0  0  0  0  0  0  0  0  0  0  0
    4.6381   -4.4801    0.0000 C   0  0  0  0  0  0  0  0  0  0  0  0
    5.0934    5.3577    0.0000 C   0  0  0  0  0  0  0  0  0  0  0  0
    3.7320   -2.9246    0.0000 C   0  0  0  0  0  0  0  0  0  0  0  0
    8.1301   -4.4454    0.0000 C   0  0  0  0  0  0  0  0  0  0  0  0
    3.7320   -3.9663    0.0000 C   0  0  0  0  0  0  0  0  0  0  0  0
    8.1301   -5.4454    0.0000 C   0  0  0  0  0  0  0  0  0  0  0  0
    8.9962   -3.9454    0.0000 C   0  0  0  0  0  0  0  0  0  0  0  0
    8.9962   -5.9454    0.0000 C   0  0  0  0  0  0  0  0  0  0  0  0
    9.8622   -4.4454    0.0000 C   0  0  0  0  0  0  0  0  0  0  0  0
    9.8622   -5.4454    0.0000 C   0  0  0  0  0  0  0  0  0  0  0  0
    2.0000   -3.9729    0.0000 C   0  0  0  0  0  0  0  0  0  0  0  0
   10.5592   -2.5040    0.0000 H   0  0  0  0  0  0  0  0  0  0  0  0
   12.3983   -2.8334    0.0000 H   0  0  0  0  0  0  0  0  0  0  0  0
   12.4976   -1.8887    0.0000 H   0  0  0  0  0  0  0  0  0  0  0  0
    9.8836   -2.1287    0.0000 H   0  0  0  0  0  0  0  0  0  0  0  0
    9.9336   -3.4704    0.0000 H   0  0  0  0  0  0  0  0  0  0  0  0
    9.1844   -0.0891    0.0000 H   0  0  0  0  0  0  0  0  0  0  0  0
    7.8676   -1.8891    0.0000 H   0  0  0  0  0  0  0  0  0  0  0  0
    8.6792   -1.7166    0.0000 H   0  0  0  0  0  0  0  0  0  0  0  0
    7.2966   -1.5646    0.0000 H   0  0  0  0  0  0  0  0  0  0  0  0
    7.3038    0.6657    0.0000 H   0  0  0  0  0  0  0  0  0  0  0  0
    6.7486    0.0491    0.0000 H   0  0  0  0  0  0  0  0  0  0  0  0
   10.5926   -4.9503    0.0000 H   0  0  0  0  0  0  0  0  0  0  0  0
   11.5736   -4.5135    0.0000 H   0  0  0  0  0  0  0  0  0  0  0  0
    7.8013    2.4811    0.0000 H   0  0  0  0  0  0  0  0  0  0  0  0
   13.1893   -0.5256    0.0000 H   0  0  0  0  0  0  0  0  0  0  0  0
    6.9190    1.3086    0.0000 H   0  0  0  0  0  0  0  0  0  0  0  0
    9.5456    3.5545    0.0000 H   0  0  0  0  0  0  0  0  0  0  0  0
    9.2314    4.3730    0.0000 H   0  0  0  0  0  0  0  0  0  0  0  0
    8.4128    4.0588    0.0000 H   0  0  0  0  0  0  0  0  0  0  0  0
    7.9111    3.8662    0.0000 H   0  0  0  0  0  0  0  0  0  0  0  0
    7.0925    3.5520    0.0000 H   0  0  0  0  0  0  0  0  0  0  0  0
    7.4067    2.7334    0.0000 H   0  0  0  0  0  0  0  0  0  0  0  0
    9.2338    1.9200    0.0000 H   0  0  0  0  0  0  0  0  0  0  0  0
   10.0524    2.2342    0.0000 H   0  0  0  0  0  0  0  0  0  0  0  0
    9.7382    3.0528    0.0000 H   0  0  0  0  0  0  0  0  0  0  0  0
    7.8010   -2.6354    0.0000 H   0  0  0  0  0  0  0  0  0  0  0  0
    6.1209    3.8542    0.0000 H   0  0  0  0  0  0  0  0  0  0  0  0
    4.6453   -1.7908    0.0000 H   0  0  0  0  0  0  0  0  0  0  0  0
    4.7959    4.2777    0.0000 H   0  0  0  0  0  0  0  0  0  0  0  0
    5.4672    3.7900    0.0000 H   0  0  0  0  0  0  0  0  0  0  0  0
    7.2778    5.1055    0.0000 H   0  0  0  0  0  0  0  0  0  0  0  0
    7.0214    5.8946    0.0000 H   0  0  0  0  0  0  0  0  0  0  0  0
    4.7834    5.8946    0.0000 H   0  0  0  0  0  0  0  0  0  0  0  0
    4.5270    5.1055    0.0000 H   0  0  0  0  0  0  0  0  0  0  0  0
    4.6453   -5.1001    0.0000 H   0  0  0  0  0  0  0  0  0  0  0  0
    3.1963   -2.6126    0.0000 H   0  0  0  0  0  0  0  0  0  0  0  0
    7.5932   -5.7554    0.0000 H   0  0  0  0  0  0  0  0  0  0  0  0
    8.9962   -3.3254    0.0000 H   0  0  0  0  0  0  0  0  0  0  0  0
    8.9962   -6.5654    0.0000 H   0  0  0  0  0  0  0  0  0  0  0  0
   10.3991   -4.1354    0.0000 H   0  0  0  0  0  0  0  0  0  0  0  0
   10.3991   -5.7554    0.0000 H   0  0  0  0  0  0  0  0  0  0  0  0
    2.3079   -3.4348    0.0000 H   0  0  0  0  0  0  0  0  0  0  0  0
    1.4619   -3.6650    0.0000 H   0  0  0  0  0  0  0  0  0  0  0  0
    1.6921   -4.5111    0.0000 H   0  0  0  0  0  0  0  0  0  0  0  0
  1 17  1  0  0  0  0
  1 66  1  0  0  0  0
  2 17  2  0  0  0  0
 22  3  1  1  0  0  0
  3 31  1  0  0  0  0
  4 20  2  0  0  0  0
  5 24  2  0  0  0  0
  6 32  1  0  0  0  0
 36  6  1  6  0  0  0
  7 32  2  0  0  0  0
  8 40  1  0  0  0  0
  8 42  1  0  0  0  0
  9 45  1  0  0  0  0
  9 51  1  0  0  0  0
 10 14  1  0  0  0  0
 10 20  1  0  0  0  0
 10 55  1  0  0  0  0
 11 19  1  0  0  0  0
 11 23  1  0  0  0  0
 11 24  1  0  0  0  0
 26 12  1  1  0  0  0
 12 32  1  0  0  0  0
 12 67  1  0  0  0  0
 13 35  1  0  0  0  0
 13 37  2  0  0  0  0
 14 15  1  0  0  0  0
 14 16  1  0  0  0  0
 14 17  1  0  0  0  0
 15 16  1  0  0  0  0
 15 18  1  6  0  0  0
 15 52  1  0  0  0  0
 16 53  1  0  0  0  0
 16 54  1  0  0  0  0
 18 25  2  0  0  0  0
 18 56  1  0  0  0  0
 19 20  1  6  0  0  0
 19 21  1  0  0  0  0
 19 57  1  0  0  0  0
 21 22  1  0  0  0  0
 21 58  1  0  0  0  0
 21 59  1  0  0  0  0
 22 23  1  0  0  0  0
 22 60  1  0  0  0  0
 23 61  1  0  0  0  0
 23 62  1  0  0  0  0
 24 26  1  0  0  0  0
 25 63  1  0  0  0  0
 25 64  1  0  0  0  0
 26 27  1  0  0  0  0
 26 65  1  0  0  0  0
 27 28  1  0  0  0  0
 27 29  1  0  0  0  0
 27 30  1  0  0  0  0
 28 68  1  0  0  0  0
 28 69  1  0  0  0  0
 28 70  1  0  0  0  0
 29 71  1  0  0  0  0
 29 72  1  0  0  0  0
 29 73  1  0  0  0  0
 30 74  1  0  0  0  0
 30 75  1  0  0  0  0
 30 76  1  0  0  0  0
 31 33  1  0  0  0  0
 31 34  2  0  0  0  0
 33 35  2  0  0  0  0
 33 38  1  0  0  0  0
 34 37  1  0  0  0  0
 34 77  1  0  0  0  0
 35 41  1  0  0  0  0
 36 39  1  0  0  0  0
 36 40  1  0  0  0  0
 36 78  1  0  0  0  0
 37 44  1  0  0  0  0
 38 43  2  0  0  0  0
 38 79  1  0  0  0  0
 39 42  1  0  0  0  0
 39 80  1  0  0  0  0
 39 81  1  0  0  0  0
 40 82  1  0  0  0  0
 40 83  1  0  0  0  0
 41 45  2  0  0  0  0
 41 86  1  0  0  0  0
 42 84  1  0  0  0  0
 42 85  1  0  0  0  0
 43 45  1  0  0  0  0
 43 87  1  0  0  0  0
 44 46  2  0  0  0  0
 44 47  1  0  0  0  0
 46 48  1  0  0  0  0
 46 88  1  0  0  0  0
 47 49  2  0  0  0  0
 47 89  1  0  0  0  0
 48 50  2  0  0  0  0
 48 90  1  0  0  0  0
 49 50  1  0  0  0  0
 49 91  1  0  0  0  0
 50 92  1  0  0  0  0
 51 93  1  0  0  0  0
 51 94  1  0  0  0  0
 51 95  1  0  0  0  0
M  END
> <PUBCHEM_COMPOUND_CID>
500819
> <PUBCHEM_COMPOUND_CANONICALIZED>
1
> <PUBCHEM_CACTVS_COMPLEXITY>
1300
> <PUBCHEM_CACTVS_HBOND_ACCEPTOR>
10
> <PUBCHEM_CACTVS_HBOND_DONOR>
3
> <PUBCHEM_CACTVS_ROTATABLE_BOND>
13
> <PUBCHEM_CACTVS_SUBSKEYS>
AAADcfB/vAAAAAAAAAAAAAAAGAAAAWJAAAA8YIAAAAAAAACx9AAAHgAQCAAAD7zhngYyzvPIFgCoAyXyXACCiCAhIiAImKG+bJkPZvLEsbufeCjn1hna6Ae68e8PIAAAAgACAABAAAAEAAQAAAAAAAAAAA==
> <PUBCHEM_IUPAC_OPENEYE_NAME>
(2R)-1-[[(2S,4R)-1-[(2S)-3,3-dimethyl-2-[[(3R)-tetrahydrofuran-3-yl]oxycarbonylamino]butanoyl]-4-[(7-methoxy-2-phenyl-4-quinolyl)oxy]pyrrolidine-2-carbonyl]amino]-2-vinyl-cyclopropanecarboxylic acid
> <PUBCHEM_IUPAC_CAS_NAME>
(2R)-1-[[[(2S,4R)-1-[(2S)-3,3-dimethyl-1-oxo-2-[[oxo-[[(3R)-3-oxolanyl]oxy]methyl]amino]butyl]-4-[(7-methoxy-2-phenyl-4-quinolinyl)oxy]-2-pyrrolidinyl]-oxomethyl]amino]-2-ethenyl-1-cyclopropanecarboxylic acid
> <PUBCHEM_IUPAC_NAME_MARKUP>
(2<I>R</I>)-1-[[(2<I>S</I>,4<I>R</I>)-1-[(2<I>S</I>)-3,3-dimethyl-2-[[(3<I>R</I>)-oxolan-3-yl]oxycarbonylamino]butanoyl]-4-(7-methoxy-2-phenylquinolin-4-yl)oxypyrrolidine-2-carbonyl]amino]-2-ethenylcyclopropane-1-carboxylic acid
> <PUBCHEM_IUPAC_NAME>
(2R)-1-[[(2S,4R)-1-[(2S)-3,3-dimethyl-2-[[(3R)-oxolan-3-yl]oxycarbonylamino]butanoyl]-4-(7-methoxy-2-phenylquinolin-4-yl)oxypyrrolidine-2-carbonyl]amino]-2-ethenylcyclopropane-1-carboxylic acid
> <PUBCHEM_IUPAC_SYSTEMATIC_NAME>
(2R)-1-[[(2S,4R)-1-[(2S)-3,3-dimethyl-2-[[(3R)-oxolan-3-yl]oxycarbonylamino]butanoyl]-4-(7-methoxy-2-phenyl-quinolin-4-yl)oxy-pyrrolidin-2-yl]carbonylamino]-2-ethenyl-cyclopropane-1-carboxylic acid
> <PUBCHEM_IUPAC_TRADITIONAL_NAME>
(2R)-1-[[(2S,4R)-1-[(2S)-3,3-dimethyl-2-[[(3R)-tetrahydrofuran-3-yl]oxycarbonylamino]butanoyl]-4-[(7-methoxy-2-phenyl-4-quinolyl)oxy]prolyl]amino]-2-vinyl-cyclopropanecarboxylic acid
> <PUBCHEM_IUPAC_INCHI>
InChI=1S/C38H44N4O9/c1-6-23-19-38(23,35(45)46)41-33(43)30-17-26(20-42(30)34(44)32(37(2,3)4)40-36(47)51-25-14-15-49-21-25)50-31-18-28(22-10-8-7-9-11-22)39-29-16-24(48-5)12-13-27(29)31/h6-13,16,18,23,25-26,30,32H,1,14-15,17,19-21H2,2-5H3,(H,40,47)(H,41,43)(H,45,46)/t23-,25+,26+,30-,32+,38?/m0/s1
> <PUBCHEM_IUPAC_INCHIKEY>
OHRURTOPFYNKSH-IOIDWFDNSA-N
> <PUBCHEM_XLOGP3_AA>
4.9
> <PUBCHEM_EXACT_MASS>
700.31082899
> <PUBCHEM_MOLECULAR_FORMULA>
C38H44N4O9
> <PUBCHEM_MOLECULAR_WEIGHT>
700.8
> <PUBCHEM_OPENEYE_CAN_SMILES>
CC(C)(C)C(C(=O)N1CC(CC1C(=O)NC2(CC2C=C)C(=O)O)OC3=CC(=NC4=C3C=CC(=C4)OC)C5=CC=CC=C5)NC(=O)OC6CCOC6
> <PUBCHEM_OPENEYE_ISO_SMILES>
CC(C)(C)[C@@H](C(=O)N1C[C@@H](C[C@H]1C(=O)NC2(C[C@@H]2C=C)C(=O)O)OC3=CC(=NC4=C3C=CC(=C4)OC)C5=CC=CC=C5)NC(=O)O[C@@H]6CCOC6
> <PUBCHEM_CACTVS_TPSA>
166
> <PUBCHEM_MONOISOTOPIC_WEIGHT>
700.31082899
> <PUBCHEM_TOTAL_CHARGE>
0
> <PUBCHEM_HEAVY_ATOM_COUNT>
51
> <PUBCHEM_ATOM_DEF_STEREO_COUNT>
5
> <PUBCHEM_ATOM_UDEF_STEREO_COUNT>
1
> <PUBCHEM_BOND_DEF_STEREO_COUNT>
0
> <PUBCHEM_BOND_UDEF_STEREO_COUNT>
0
> <PUBCHEM_ISOTOPIC_ATOM_COUNT>
0
> <PUBCHEM_COMPONENT_COUNT>
1
> <PUBCHEM_CACTVS_TAUTO_COUNT>
-1
> <PUBCHEM_COORDINATE_TYPE>
1
5
255
> <PUBCHEM_BONDANNOTATIONS>
26  12  5
13  35  8
13  37  8
14  17  3
15  18  6
19  20  6
22  3  5
31  33  8
31  34  8
33  35  8
33  38  8
34  37  8
35  41  8
38  43  8
41  45  8
43  45  8
44  46  8
44  47  8
46  48  8
47  49  8
48  50  8
49  50  8
36  6  6
$$$$
