500804
  -OEChem-10302200282D
 94 98  0     1  0  0  0  0  0999 V2000
   12.8249   -1.1713    0.0000 O   0  0  0  0  0  0  0  0  0  0  0  0
   11.4236   -0.1532    0.0000 O   0  0  0  0  0  0  0  0  0  0  0  0
    6.3981   -1.5896    0.0000 O   0  0  0  0  0  0  0  0  0  0  0  0
   10.4291   -0.0487    0.0000 O   0  0  0  0  0  0  0  0  0  0  0  0
    9.7480    1.1309    0.0000 O   0  0  0  0  0  0  0  0  0  0  0  0
    6.5834    2.5399    0.0000 O   0  0  0  0  0  0  0  0  0  0  0  0
    8.3914    4.4715    0.0000 O   0  0  0  0  0  0  0  0  0  0  0  0
    6.9902    3.4535    0.0000 O   0  0  0  0  0  0  0  0  0  0  0  0
    2.8680   -4.6137    0.0000 O   0  0  0  0  0  0  0  0  0  0  0  0
   10.2480   -1.7712    0.0000 N   0  0  0  0  0  0  0  0  0  0  0  0
    8.3468    0.1129    0.0000 N   0  0  0  0  0  0  0  0  0  0  0  0
    8.5725    2.7490    0.0000 N   0  0  0  0  0  0  0  0  0  0  0  0
    6.3981   -4.5896    0.0000 N   0  0  0  0  0  0  0  0  0  0  0  0
   11.2426   -1.8758    0.0000 C   0  0  3  0  0  0  0  0  0  0  0  0
   11.1380   -2.8703    0.0000 C   0  0  2  0  0  0  0  0  0  0  0  0
   12.0516   -2.4636    0.0000 C   0  0  0  0  0  0  0  0  0  0  0  0
   11.8303   -1.0668    0.0000 C   0  0  0  0  0  0  0  0  0  0  0  0
   10.5502   -3.6793    0.0000 C   0  0  0  0  0  0  0  0  0  0  0  0
    8.8468   -0.7532    0.0000 C   0  0  2  0  0  0  0  0  0  0  0  0
    9.8413   -0.8577    0.0000 C   0  0  0  0  0  0  0  0  0  0  0  0
    8.1776   -1.4963    0.0000 C   0  0  0  0  0  0  0  0  0  0  0  0
    7.2641   -1.0896    0.0000 C   0  0  2  0  0  0  0  0  0  0  0  0
    7.3686   -0.0950    0.0000 C   0  0  0  0  0  0  0  0  0  0  0  0
   10.9570   -4.5928    0.0000 C   0  0  0  0  0  0  0  0  0  0  0  0
    8.7535    1.0264    0.0000 C   0  0  0  0  0  0  0  0  0  0  0  0
    8.1657    1.8354    0.0000 C   0  0  2  0  0  0  0  0  0  0  0  0
    7.1712    1.7309    0.0000 C   0  0  1  0  0  0  0  0  0  0  0  0
    6.3981   -2.5896    0.0000 C   0  0  0  0  0  0  0  0  0  0  0  0
    6.7645    0.8174    0.0000 C   0  0  0  0  0  0  0  0  0  0  0  0
    5.5320   -3.0896    0.0000 C   0  0  0  0  0  0  0  0  0  0  0  0
    7.2641   -3.0896    0.0000 C   0  0  0  0  0  0  0  0  0  0  0  0
    7.9847    3.5580    0.0000 C   0  0  0  0  0  0  0  0  0  0  0  0
    5.5320   -4.0896    0.0000 C   0  0  0  0  0  0  0  0  0  0  0  0
    7.2641   -4.0896    0.0000 C   0  0  0  0  0  0  0  0  0  0  0  0
    4.6381   -2.5549    0.0000 C   0  0  0  0  0  0  0  0  0  0  0  0
    5.5889    2.4354    0.0000 C   0  0  0  0  0  0  0  0  0  0  0  0
    4.6381   -4.6242    0.0000 C   0  0  0  0  0  0  0  0  0  0  0  0
    7.8036    5.2806    0.0000 C   0  0  0  0  0  0  0  0  0  0  0  0
    3.7320   -3.0688    0.0000 C   0  0  0  0  0  0  0  0  0  0  0  0
    8.1301   -4.5896    0.0000 C   0  0  0  0  0  0  0  0  0  0  0  0
    3.7320   -4.1104    0.0000 C   0  0  0  0  0  0  0  0  0  0  0  0
    7.2158    6.0896    0.0000 C   0  0  0  0  0  0  0  0  0  0  0  0
    8.6126    5.8683    0.0000 C   0  0  0  0  0  0  0  0  0  0  0  0
    6.9946    4.6928    0.0000 C   0  0  0  0  0  0  0  0  0  0  0  0
    8.1301   -5.5896    0.0000 C   0  0  0  0  0  0  0  0  0  0  0  0
    8.9962   -4.0896    0.0000 C   0  0  0  0  0  0  0  0  0  0  0  0
    8.9962   -6.0896    0.0000 C   0  0  0  0  0  0  0  0  0  0  0  0
    9.8622   -4.5896    0.0000 C   0  0  0  0  0  0  0  0  0  0  0  0
    9.8622   -5.5896    0.0000 C   0  0  0  0  0  0  0  0  0  0  0  0
    2.0000   -4.1171    0.0000 C   0  0  0  0  0  0  0  0  0  0  0  0
   10.5592   -2.6481    0.0000 H   0  0  0  0  0  0  0  0  0  0  0  0
   12.3983   -2.9776    0.0000 H   0  0  0  0  0  0  0  0  0  0  0  0
   12.4976   -2.0329    0.0000 H   0  0  0  0  0  0  0  0  0  0  0  0
    9.8836   -2.2728    0.0000 H   0  0  0  0  0  0  0  0  0  0  0  0
    9.9336   -3.6145    0.0000 H   0  0  0  0  0  0  0  0  0  0  0  0
    9.1844   -0.2332    0.0000 H   0  0  0  0  0  0  0  0  0  0  0  0
    7.8676   -2.0332    0.0000 H   0  0  0  0  0  0  0  0  0  0  0  0
    8.6792   -1.8607    0.0000 H   0  0  0  0  0  0  0  0  0  0  0  0
    6.7441   -0.7519    0.0000 H   0  0  0  0  0  0  0  0  0  0  0  0
    7.3038    0.5216    0.0000 H   0  0  0  0  0  0  0  0  0  0  0  0
    6.7486   -0.0950    0.0000 H   0  0  0  0  0  0  0  0  0  0  0  0
   10.5926   -5.0944    0.0000 H   0  0  0  0  0  0  0  0  0  0  0  0
   11.5736   -4.6577    0.0000 H   0  0  0  0  0  0  0  0  0  0  0  0
   13.1893   -0.6697    0.0000 H   0  0  0  0  0  0  0  0  0  0  0  0
    8.7823    1.9002    0.0000 H   0  0  0  0  0  0  0  0  0  0  0  0
    7.4234    2.2973    0.0000 H   0  0  0  0  0  0  0  0  0  0  0  0
    9.1891    2.8138    0.0000 H   0  0  0  0  0  0  0  0  0  0  0  0
    6.1981    1.0695    0.0000 H   0  0  0  0  0  0  0  0  0  0  0  0
    6.5123    0.2510    0.0000 H   0  0  0  0  0  0  0  0  0  0  0  0
    7.3309    0.5652    0.0000 H   0  0  0  0  0  0  0  0  0  0  0  0
    7.8010   -2.7796    0.0000 H   0  0  0  0  0  0  0  0  0  0  0  0
    4.6453   -1.9350    0.0000 H   0  0  0  0  0  0  0  0  0  0  0  0
    5.5241    3.0520    0.0000 H   0  0  0  0  0  0  0  0  0  0  0  0
    4.9723    2.3706    0.0000 H   0  0  0  0  0  0  0  0  0  0  0  0
    5.6537    1.8188    0.0000 H   0  0  0  0  0  0  0  0  0  0  0  0
    4.6453   -5.2442    0.0000 H   0  0  0  0  0  0  0  0  0  0  0  0
    3.1963   -2.7567    0.0000 H   0  0  0  0  0  0  0  0  0  0  0  0
    7.7174    6.4540    0.0000 H   0  0  0  0  0  0  0  0  0  0  0  0
    6.8514    6.5912    0.0000 H   0  0  0  0  0  0  0  0  0  0  0  0
    6.7142    5.7251    0.0000 H   0  0  0  0  0  0  0  0  0  0  0  0
    8.9771    5.3668    0.0000 H   0  0  0  0  0  0  0  0  0  0  0  0
    9.1142    6.2328    0.0000 H   0  0  0  0  0  0  0  0  0  0  0  0
    8.2482    6.3699    0.0000 H   0  0  0  0  0  0  0  0  0  0  0  0
    6.6302    5.1944    0.0000 H   0  0  0  0  0  0  0  0  0  0  0  0
    6.4930    4.3283    0.0000 H   0  0  0  0  0  0  0  0  0  0  0  0
    7.3590    4.1912    0.0000 H   0  0  0  0  0  0  0  0  0  0  0  0
    7.5932   -5.8996    0.0000 H   0  0  0  0  0  0  0  0  0  0  0  0
    8.9962   -3.4696    0.0000 H   0  0  0  0  0  0  0  0  0  0  0  0
    8.9962   -6.7096    0.0000 H   0  0  0  0  0  0  0  0  0  0  0  0
   10.3991   -4.2796    0.0000 H   0  0  0  0  0  0  0  0  0  0  0  0
   10.3991   -5.8996    0.0000 H   0  0  0  0  0  0  0  0  0  0  0  0
    2.3079   -3.5789    0.0000 H   0  0  0  0  0  0  0  0  0  0  0  0
    1.4619   -3.8091    0.0000 H   0  0  0  0  0  0  0  0  0  0  0  0
    1.6921   -4.6552    0.0000 H   0  0  0  0  0  0  0  0  0  0  0  0
  1 17  1  0  0  0  0
  1 64  1  0  0  0  0
  2 17  2  0  0  0  0
 22  3  1  1  0  0  0
  3 28  1  0  0  0  0
  4 20  2  0  0  0  0
  5 25  2  0  0  0  0
 27  6  1  1  0  0  0
  6 36  1  0  0  0  0
  7 32  1  0  0  0  0
  7 38  1  0  0  0  0
  8 32  2  0  0  0  0
  9 41  1  0  0  0  0
  9 50  1  0  0  0  0
 10 14  1  0  0  0  0
 10 20  1  0  0  0  0
 10 54  1  0  0  0  0
 11 19  1  0  0  0  0
 11 23  1  0  0  0  0
 11 25  1  0  0  0  0
 26 12  1  6  0  0  0
 12 32  1  0  0  0  0
 12 67  1  0  0  0  0
 13 33  1  0  0  0  0
 13 34  2  0  0  0  0
 14 15  1  0  0  0  0
 14 16  1  0  0  0  0
 14 17  1  0  0  0  0
 15 16  1  0  0  0  0
 15 18  1  6  0  0  0
 15 51  1  0  0  0  0
 16 52  1  0  0  0  0
 16 53  1  0  0  0  0
 18 24  2  0  0  0  0
 18 55  1  0  0  0  0
 19 20  1  6  0  0  0
 19 21  1  0  0  0  0
 19 56  1  0  0  0  0
 21 22  1  0  0  0  0
 21 57  1  0  0  0  0
 21 58  1  0  0  0  0
 22 23  1  0  0  0  0
 22 59  1  0  0  0  0
 23 60  1  0  0  0  0
 23 61  1  0  0  0  0
 24 62  1  0  0  0  0
 24 63  1  0  0  0  0
 25 26  1  0  0  0  0
 26 27  1  0  0  0  0
 26 65  1  0  0  0  0
 27 29  1  0  0  0  0
 27 66  1  0  0  0  0
 28 30  1  0  0  0  0
 28 31  2  0  0  0  0
 29 68  1  0  0  0  0
 29 69  1  0  0  0  0
 29 70  1  0  0  0  0
 30 33  2  0  0  0  0
 30 35  1  0  0  0  0
 31 34  1  0  0  0  0
 31 71  1  0  0  0  0
 33 37  1  0  0  0  0
 34 40  1  0  0  0  0
 35 39  2  0  0  0  0
 35 72  1  0  0  0  0
 36 73  1  0  0  0  0
 36 74  1  0  0  0  0
 36 75  1  0  0  0  0
 37 41  2  0  0  0  0
 37 76  1  0  0  0  0
 38 42  1  0  0  0  0
 38 43  1  0  0  0  0
 38 44  1  0  0  0  0
 39 41  1  0  0  0  0
 39 77  1  0  0  0  0
 40 45  2  0  0  0  0
 40 46  1  0  0  0  0
 42 78  1  0  0  0  0
 42 79  1  0  0  0  0
 42 80  1  0  0  0  0
 43 81  1  0  0  0  0
 43 82  1  0  0  0  0
 43 83  1  0  0  0  0
 44 84  1  0  0  0  0
 44 85  1  0  0  0  0
 44 86  1  0  0  0  0
 45 47  1  0  0  0  0
 45 87  1  0  0  0  0
 46 48  2  0  0  0  0
 46 88  1  0  0  0  0
 47 49  2  0  0  0  0
 47 89  1  0  0  0  0
 48 49  1  0  0  0  0
 48 90  1  0  0  0  0
 49 91  1  0  0  0  0
 50 92  1  0  0  0  0
 50 93  1  0  0  0  0
 50 94  1  0  0  0  0
M  END
> <PUBCHEM_COMPOUND_CID>
500804
> <PUBCHEM_COMPOUND_CANONICALIZED>
1
> <PUBCHEM_CACTVS_COMPLEXITY>
1250
> <PUBCHEM_CACTVS_HBOND_ACCEPTOR>
10
> <PUBCHEM_CACTVS_HBOND_DONOR>
3
> <PUBCHEM_CACTVS_ROTATABLE_BOND>
14
> <PUBCHEM_CACTVS_SUBSKEYS>
AAADcfB/vAAAAAAAAAAAAAAAGAAAAWAAAAA8YIAAAAAAAACx9AAAHgAQCAAADfzhngYyzvPIFgCoAyXyXACCiCAhIiAImKG+bJkOZvbEsbufeCjm9hnY6Ae68e8OIAAAAgACAABAAAAEAAQAAAAAAAAAAA==
> <PUBCHEM_IUPAC_OPENEYE_NAME>
(2R)-1-[[(2S,4R)-1-[(2S,3R)-2-(tert-butoxycarbonylamino)-3-methoxy-butanoyl]-4-[(7-methoxy-2-phenyl-4-quinolyl)oxy]pyrrolidine-2-carbonyl]amino]-2-vinyl-cyclopropanecarboxylic acid
> <PUBCHEM_IUPAC_CAS_NAME>
(2R)-2-ethenyl-1-[[[(2S,4R)-1-[(2S,3R)-3-methoxy-2-[[(2-methylpropan-2-yl)oxy-oxomethyl]amino]-1-oxobutyl]-4-[(7-methoxy-2-phenyl-4-quinolinyl)oxy]-2-pyrrolidinyl]-oxomethyl]amino]-1-cyclopropanecarboxylic acid
> <PUBCHEM_IUPAC_NAME_MARKUP>
(2<I>R</I>)-2-ethenyl-1-[[(2<I>S</I>,4<I>R</I>)-1-[(2<I>S</I>,3<I>R</I>)-3-methoxy-2-[(2-methylpropan-2-yl)oxycarbonylamino]butanoyl]-4-(7-methoxy-2-phenylquinolin-4-yl)oxypyrrolidine-2-carbonyl]amino]cyclopropane-1-carboxylic acid
> <PUBCHEM_IUPAC_NAME>
(2R)-2-ethenyl-1-[[(2S,4R)-1-[(2S,3R)-3-methoxy-2-[(2-methylpropan-2-yl)oxycarbonylamino]butanoyl]-4-(7-methoxy-2-phenylquinolin-4-yl)oxypyrrolidine-2-carbonyl]amino]cyclopropane-1-carboxylic acid
> <PUBCHEM_IUPAC_SYSTEMATIC_NAME>
(2R)-2-ethenyl-1-[[(2S,4R)-1-[(2S,3R)-3-methoxy-2-[(2-methylpropan-2-yl)oxycarbonylamino]butanoyl]-4-(7-methoxy-2-phenyl-quinolin-4-yl)oxy-pyrrolidin-2-yl]carbonylamino]cyclopropane-1-carboxylic acid
> <PUBCHEM_IUPAC_TRADITIONAL_NAME>
(2R)-1-[[(2S,4R)-1-[(2S,3R)-2-(tert-butoxycarbonylamino)-3-methoxy-butanoyl]-4-[(7-methoxy-2-phenyl-4-quinolyl)oxy]prolyl]amino]-2-vinyl-cyclopropanecarboxylic acid
> <PUBCHEM_IUPAC_INCHI>
InChI=1S/C37H44N4O9/c1-8-23-19-37(23,34(44)45)40-32(42)29-17-25(20-41(29)33(43)31(21(2)47-6)39-35(46)50-36(3,4)5)49-30-18-27(22-12-10-9-11-13-22)38-28-16-24(48-7)14-15-26(28)30/h8-16,18,21,23,25,29,31H,1,17,19-20H2,2-7H3,(H,39,46)(H,40,42)(H,44,45)/t21-,23+,25-,29+,31+,37?/m1/s1
> <PUBCHEM_IUPAC_INCHIKEY>
QBUKTFCCSVSUSW-OHHXBZGKSA-N
> <PUBCHEM_XLOGP3_AA>
4.4
> <PUBCHEM_EXACT_MASS>
688.31082899
> <PUBCHEM_MOLECULAR_FORMULA>
C37H44N4O9
> <PUBCHEM_MOLECULAR_WEIGHT>
688.8
> <PUBCHEM_OPENEYE_CAN_SMILES>
CC(C(C(=O)N1CC(CC1C(=O)NC2(CC2C=C)C(=O)O)OC3=CC(=NC4=C3C=CC(=C4)OC)C5=CC=CC=C5)NC(=O)OC(C)(C)C)OC
> <PUBCHEM_OPENEYE_ISO_SMILES>
C[C@H]([C@@H](C(=O)N1C[C@@H](C[C@H]1C(=O)NC2(C[C@@H]2C=C)C(=O)O)OC3=CC(=NC4=C3C=CC(=C4)OC)C5=CC=CC=C5)NC(=O)OC(C)(C)C)OC
> <PUBCHEM_CACTVS_TPSA>
166
> <PUBCHEM_MONOISOTOPIC_WEIGHT>
688.31082899
> <PUBCHEM_TOTAL_CHARGE>
0
> <PUBCHEM_HEAVY_ATOM_COUNT>
50
> <PUBCHEM_ATOM_DEF_STEREO_COUNT>
5
> <PUBCHEM_ATOM_UDEF_STEREO_COUNT>
1
> <PUBCHEM_BOND_DEF_STEREO_COUNT>
0
> <PUBCHEM_BOND_UDEF_STEREO_COUNT>
0
> <PUBCHEM_ISOTOPIC_ATOM_COUNT>
0
> <PUBCHEM_COMPONENT_COUNT>
1
> <PUBCHEM_CACTVS_TAUTO_COUNT>
-1
> <PUBCHEM_COORDINATE_TYPE>
1
5
255
> <PUBCHEM_BONDANNOTATIONS>
26  12  6
13  33  8
13  34  8
14  17  3
15  18  6
19  20  6
28  30  8
28  31  8
22  3  5
30  33  8
30  35  8
31  34  8
33  37  8
35  39  8
37  41  8
39  41  8
40  45  8
40  46  8
45  47  8
46  48  8
47  49  8
48  49  8
27  6  5
$$$$
