500820
  -OEChem-10302200282D
100105  0     1  0  0  0  0  0999 V2000
   12.8249   -1.1190    0.0000 O   0  0  0  0  0  0  0  0  0  0  0  0
   11.4236   -0.1009    0.0000 O   0  0  0  0  0  0  0  0  0  0  0  0
    6.3981   -1.5373    0.0000 O   0  0  0  0  0  0  0  0  0  0  0  0
   10.4291    0.0036    0.0000 O   0  0  0  0  0  0  0  0  0  0  0  0
    9.7480    1.1832    0.0000 O   0  0  0  0  0  0  0  0  0  0  0  0
    6.9902    3.5057    0.0000 O   0  0  0  0  0  0  0  0  0  0  0  0
    5.5889    2.4876    0.0000 O   0  0  0  0  0  0  0  0  0  0  0  0
    2.8680   -4.5614    0.0000 O   0  0  0  0  0  0  0  0  0  0  0  0
   10.2480   -1.7190    0.0000 N   0  0  0  0  0  0  0  0  0  0  0  0
    8.3468    0.1651    0.0000 N   0  0  0  0  0  0  0  0  0  0  0  0
    7.1712    1.7832    0.0000 N   0  0  0  0  0  0  0  0  0  0  0  0
    6.3981   -4.5373    0.0000 N   0  0  0  0  0  0  0  0  0  0  0  0
   11.2426   -1.8235    0.0000 C   0  0  3  0  0  0  0  0  0  0  0  0
   11.1380   -2.8180    0.0000 C   0  0  2  0  0  0  0  0  0  0  0  0
   12.0516   -2.4113    0.0000 C   0  0  0  0  0  0  0  0  0  0  0  0
   11.8303   -1.0145    0.0000 C   0  0  0  0  0  0  0  0  0  0  0  0
   10.5502   -3.6270    0.0000 C   0  0  0  0  0  0  0  0  0  0  0  0
    8.8468   -0.7009    0.0000 C   0  0  2  0  0  0  0  0  0  0  0  0
    9.8413   -0.8054    0.0000 C   0  0  0  0  0  0  0  0  0  0  0  0
    8.1776   -1.4440    0.0000 C   0  0  0  0  0  0  0  0  0  0  0  0
    7.2641   -1.0373    0.0000 C   0  0  2  0  0  0  0  0  0  0  0  0
    7.3686   -0.0428    0.0000 C   0  0  0  0  0  0  0  0  0  0  0  0
    8.7535    1.0787    0.0000 C   0  0  0  0  0  0  0  0  0  0  0  0
   10.9570   -4.5406    0.0000 C   0  0  0  0  0  0  0  0  0  0  0  0
    8.1657    1.8877    0.0000 C   0  0  2  0  0  0  0  0  0  0  0  0
    8.5725    2.8012    0.0000 C   0  0  0  0  0  0  0  0  0  0  0  0
    8.9792    3.7148    0.0000 C   0  0  0  0  0  0  0  0  0  0  0  0
    7.6589    3.2080    0.0000 C   0  0  0  0  0  0  0  0  0  0  0  0
    9.4860    2.3945    0.0000 C   0  0  0  0  0  0  0  0  0  0  0  0
    6.3981   -2.5373    0.0000 C   0  0  0  0  0  0  0  0  0  0  0  0
    6.4024    4.3147    0.0000 C   0  0  0  0  0  0  0  0  0  0  0  0
    6.5834    2.5922    0.0000 C   0  0  0  0  0  0  0  0  0  0  0  0
    6.8091    5.2283    0.0000 C   0  0  0  0  0  0  0  0  0  0  0  0
    5.4078    4.2102    0.0000 C   0  0  0  0  0  0  0  0  0  0  0  0
    6.2213    6.0373    0.0000 C   0  0  0  0  0  0  0  0  0  0  0  0
    4.8201    5.0192    0.0000 C   0  0  0  0  0  0  0  0  0  0  0  0
    5.5320   -3.0373    0.0000 C   0  0  0  0  0  0  0  0  0  0  0  0
    5.2268    5.9328    0.0000 C   0  0  0  0  0  0  0  0  0  0  0  0
    7.2641   -3.0373    0.0000 C   0  0  0  0  0  0  0  0  0  0  0  0
    5.5320   -4.0373    0.0000 C   0  0  0  0  0  0  0  0  0  0  0  0
    7.2641   -4.0373    0.0000 C   0  0  0  0  0  0  0  0  0  0  0  0
    4.6381   -2.5026    0.0000 C   0  0  0  0  0  0  0  0  0  0  0  0
    4.6381   -4.5720    0.0000 C   0  0  0  0  0  0  0  0  0  0  0  0
    3.7320   -3.0165    0.0000 C   0  0  0  0  0  0  0  0  0  0  0  0
    8.1301   -4.5373    0.0000 C   0  0  0  0  0  0  0  0  0  0  0  0
    3.7320   -4.0581    0.0000 C   0  0  0  0  0  0  0  0  0  0  0  0
    8.1301   -5.5373    0.0000 C   0  0  0  0  0  0  0  0  0  0  0  0
    8.9962   -4.0373    0.0000 C   0  0  0  0  0  0  0  0  0  0  0  0
    8.9962   -6.0373    0.0000 C   0  0  0  0  0  0  0  0  0  0  0  0
    9.8622   -4.5373    0.0000 C   0  0  0  0  0  0  0  0  0  0  0  0
    9.8622   -5.5373    0.0000 C   0  0  0  0  0  0  0  0  0  0  0  0
    2.0000   -4.0648    0.0000 C   0  0  0  0  0  0  0  0  0  0  0  0
   10.5592   -2.5958    0.0000 H   0  0  0  0  0  0  0  0  0  0  0  0
   12.3983   -2.9253    0.0000 H   0  0  0  0  0  0  0  0  0  0  0  0
   12.4976   -1.9806    0.0000 H   0  0  0  0  0  0  0  0  0  0  0  0
    9.8836   -2.2206    0.0000 H   0  0  0  0  0  0  0  0  0  0  0  0
    9.9336   -3.5622    0.0000 H   0  0  0  0  0  0  0  0  0  0  0  0
    9.1844   -0.1809    0.0000 H   0  0  0  0  0  0  0  0  0  0  0  0
    7.8676   -1.9810    0.0000 H   0  0  0  0  0  0  0  0  0  0  0  0
    8.6792   -1.8085    0.0000 H   0  0  0  0  0  0  0  0  0  0  0  0
    6.7441   -0.6996    0.0000 H   0  0  0  0  0  0  0  0  0  0  0  0
    7.3038    0.5738    0.0000 H   0  0  0  0  0  0  0  0  0  0  0  0
    6.7486   -0.0428    0.0000 H   0  0  0  0  0  0  0  0  0  0  0  0
   10.5926   -5.0422    0.0000 H   0  0  0  0  0  0  0  0  0  0  0  0
   11.5736   -4.6054    0.0000 H   0  0  0  0  0  0  0  0  0  0  0  0
    7.8013    2.3893    0.0000 H   0  0  0  0  0  0  0  0  0  0  0  0
   13.1893   -0.6174    0.0000 H   0  0  0  0  0  0  0  0  0  0  0  0
    6.9190    1.2168    0.0000 H   0  0  0  0  0  0  0  0  0  0  0  0
    9.5456    3.4626    0.0000 H   0  0  0  0  0  0  0  0  0  0  0  0
    9.2314    4.2812    0.0000 H   0  0  0  0  0  0  0  0  0  0  0  0
    8.4128    3.9670    0.0000 H   0  0  0  0  0  0  0  0  0  0  0  0
    7.9111    3.7744    0.0000 H   0  0  0  0  0  0  0  0  0  0  0  0
    7.0925    3.4602    0.0000 H   0  0  0  0  0  0  0  0  0  0  0  0
    7.4067    2.6416    0.0000 H   0  0  0  0  0  0  0  0  0  0  0  0
    9.2338    1.8281    0.0000 H   0  0  0  0  0  0  0  0  0  0  0  0
   10.0524    2.1423    0.0000 H   0  0  0  0  0  0  0  0  0  0  0  0
    9.7382    2.9609    0.0000 H   0  0  0  0  0  0  0  0  0  0  0  0
    6.1502    3.7483    0.0000 H   0  0  0  0  0  0  0  0  0  0  0  0
    7.3231    4.8816    0.0000 H   0  0  0  0  0  0  0  0  0  0  0  0
    7.2398    5.6743    0.0000 H   0  0  0  0  0  0  0  0  0  0  0  0
    4.8506    3.9384    0.0000 H   0  0  0  0  0  0  0  0  0  0  0  0
    5.5787    3.6142    0.0000 H   0  0  0  0  0  0  0  0  0  0  0  0
    6.7786    6.3091    0.0000 H   0  0  0  0  0  0  0  0  0  0  0  0
    6.0504    6.6333    0.0000 H   0  0  0  0  0  0  0  0  0  0  0  0
    4.3061    5.3659    0.0000 H   0  0  0  0  0  0  0  0  0  0  0  0
    4.3894    4.5732    0.0000 H   0  0  0  0  0  0  0  0  0  0  0  0
    5.2700    6.5513    0.0000 H   0  0  0  0  0  0  0  0  0  0  0  0
    4.6252    6.0828    0.0000 H   0  0  0  0  0  0  0  0  0  0  0  0
    7.8010   -2.7273    0.0000 H   0  0  0  0  0  0  0  0  0  0  0  0
    4.6453   -1.8827    0.0000 H   0  0  0  0  0  0  0  0  0  0  0  0
    4.6453   -5.1919    0.0000 H   0  0  0  0  0  0  0  0  0  0  0  0
    3.1963   -2.7044    0.0000 H   0  0  0  0  0  0  0  0  0  0  0  0
    7.5932   -5.8473    0.0000 H   0  0  0  0  0  0  0  0  0  0  0  0
    8.9962   -3.4173    0.0000 H   0  0  0  0  0  0  0  0  0  0  0  0
    8.9962   -6.6573    0.0000 H   0  0  0  0  0  0  0  0  0  0  0  0
   10.3991   -4.2273    0.0000 H   0  0  0  0  0  0  0  0  0  0  0  0
   10.3991   -5.8473    0.0000 H   0  0  0  0  0  0  0  0  0  0  0  0
    2.3079   -3.5267    0.0000 H   0  0  0  0  0  0  0  0  0  0  0  0
    1.4619   -3.7569    0.0000 H   0  0  0  0  0  0  0  0  0  0  0  0
    1.6921   -4.6029    0.0000 H   0  0  0  0  0  0  0  0  0  0  0  0
  1 16  1  0  0  0  0
  1 67  1  0  0  0  0
  2 16  2  0  0  0  0
 21  3  1  1  0  0  0
  3 30  1  0  0  0  0
  4 19  2  0  0  0  0
  5 23  2  0  0  0  0
  6 31  1  0  0  0  0
  6 32  1  0  0  0  0
  7 32  2  0  0  0  0
  8 46  1  0  0  0  0
  8 52  1  0  0  0  0
  9 13  1  0  0  0  0
  9 19  1  0  0  0  0
  9 56  1  0  0  0  0
 10 18  1  0  0  0  0
 10 22  1  0  0  0  0
 10 23  1  0  0  0  0
 25 11  1  1  0  0  0
 11 32  1  0  0  0  0
 11 68  1  0  0  0  0
 12 40  1  0  0  0  0
 12 41  2  0  0  0  0
 13 14  1  0  0  0  0
 13 15  1  0  0  0  0
 13 16  1  0  0  0  0
 14 15  1  0  0  0  0
 14 17  1  6  0  0  0
 14 53  1  0  0  0  0
 15 54  1  0  0  0  0
 15 55  1  0  0  0  0
 17 24  2  0  0  0  0
 17 57  1  0  0  0  0
 18 19  1  6  0  0  0
 18 20  1  0  0  0  0
 18 58  1  0  0  0  0
 20 21  1  0  0  0  0
 20 59  1  0  0  0  0
 20 60  1  0  0  0  0
 21 22  1  0  0  0  0
 21 61  1  0  0  0  0
 22 62  1  0  0  0  0
 22 63  1  0  0  0  0
 23 25  1  0  0  0  0
 24 64  1  0  0  0  0
 24 65  1  0  0  0  0
 25 26  1  0  0  0  0
 25 66  1  0  0  0  0
 26 27  1  0  0  0  0
 26 28  1  0  0  0  0
 26 29  1  0  0  0  0
 27 69  1  0  0  0  0
 27 70  1  0  0  0  0
 27 71  1  0  0  0  0
 28 72  1  0  0  0  0
 28 73  1  0  0  0  0
 28 74  1  0  0  0  0
 29 75  1  0  0  0  0
 29 76  1  0  0  0  0
 29 77  1  0  0  0  0
 30 37  1  0  0  0  0
 30 39  2  0  0  0  0
 31 33  1  0  0  0  0
 31 34  1  0  0  0  0
 31 78  1  0  0  0  0
 33 35  1  0  0  0  0
 33 79  1  0  0  0  0
 33 80  1  0  0  0  0
 34 36  1  0  0  0  0
 34 81  1  0  0  0  0
 34 82  1  0  0  0  0
 35 38  1  0  0  0  0
 35 83  1  0  0  0  0
 35 84  1  0  0  0  0
 36 38  1  0  0  0  0
 36 85  1  0  0  0  0
 36 86  1  0  0  0  0
 37 40  2  0  0  0  0
 37 42  1  0  0  0  0
 38 87  1  0  0  0  0
 38 88  1  0  0  0  0
 39 41  1  0  0  0  0
 39 89  1  0  0  0  0
 40 43  1  0  0  0  0
 41 45  1  0  0  0  0
 42 44  2  0  0  0  0
 42 90  1  0  0  0  0
 43 46  2  0  0  0  0
 43 91  1  0  0  0  0
 44 46  1  0  0  0  0
 44 92  1  0  0  0  0
 45 47  2  0  0  0  0
 45 48  1  0  0  0  0
 47 49  1  0  0  0  0
 47 93  1  0  0  0  0
 48 50  2  0  0  0  0
 48 94  1  0  0  0  0
 49 51  2  0  0  0  0
 49 95  1  0  0  0  0
 50 51  1  0  0  0  0
 50 96  1  0  0  0  0
 51 97  1  0  0  0  0
 52 98  1  0  0  0  0
 52 99  1  0  0  0  0
 52100  1  0  0  0  0
M  END
> <PUBCHEM_COMPOUND_CID>
500820
> <PUBCHEM_COMPOUND_CANONICALIZED>
1
> <PUBCHEM_CACTVS_COMPLEXITY>
1310
> <PUBCHEM_CACTVS_HBOND_ACCEPTOR>
9
> <PUBCHEM_CACTVS_HBOND_DONOR>
3
> <PUBCHEM_CACTVS_ROTATABLE_BOND>
13
> <PUBCHEM_CACTVS_SUBSKEYS>
AAADcfB/vAAAAAAAAAAAAAAAGAAAAWAAAAA8YMEAAAAAAACx9AAAHgAQCAAAD7zhngYyzvPIFgCoAyXyXACCiCAhIiAImKG+bJkOZvLEsbufeCjm1hnY6Ae68e8PIAAAAgACAABAAAAEAAQAAAAAAAAAAA==
> <PUBCHEM_IUPAC_OPENEYE_NAME>
(2R)-1-[[(2S,4R)-1-[(2S)-2-(cyclohexoxycarbonylamino)-3,3-dimethyl-butanoyl]-4-[(7-methoxy-2-phenyl-4-quinolyl)oxy]pyrrolidine-2-carbonyl]amino]-2-vinyl-cyclopropanecarboxylic acid
> <PUBCHEM_IUPAC_CAS_NAME>
(2R)-1-[[[(2S,4R)-1-[(2S)-2-[[cyclohexyloxy(oxo)methyl]amino]-3,3-dimethyl-1-oxobutyl]-4-[(7-methoxy-2-phenyl-4-quinolinyl)oxy]-2-pyrrolidinyl]-oxomethyl]amino]-2-ethenyl-1-cyclopropanecarboxylic acid
> <PUBCHEM_IUPAC_NAME_MARKUP>
(2<I>R</I>)-1-[[(2<I>S</I>,4<I>R</I>)-1-[(2<I>S</I>)-2-(cyclohexyloxycarbonylamino)-3,3-dimethylbutanoyl]-4-(7-methoxy-2-phenylquinolin-4-yl)oxypyrrolidine-2-carbonyl]amino]-2-ethenylcyclopropane-1-carboxylic acid
> <PUBCHEM_IUPAC_NAME>
(2R)-1-[[(2S,4R)-1-[(2S)-2-(cyclohexyloxycarbonylamino)-3,3-dimethylbutanoyl]-4-(7-methoxy-2-phenylquinolin-4-yl)oxypyrrolidine-2-carbonyl]amino]-2-ethenylcyclopropane-1-carboxylic acid
> <PUBCHEM_IUPAC_SYSTEMATIC_NAME>
(2R)-1-[[(2S,4R)-1-[(2S)-2-(cyclohexyloxycarbonylamino)-3,3-dimethyl-butanoyl]-4-(7-methoxy-2-phenyl-quinolin-4-yl)oxy-pyrrolidin-2-yl]carbonylamino]-2-ethenyl-cyclopropane-1-carboxylic acid
> <PUBCHEM_IUPAC_TRADITIONAL_NAME>
(2R)-1-[[(2S,4R)-1-[(2S)-2-(cyclohexoxycarbonylamino)-3,3-dimethyl-butanoyl]-4-[(7-methoxy-2-phenyl-4-quinolyl)oxy]prolyl]amino]-2-vinyl-cyclopropanecarboxylic acid
> <PUBCHEM_IUPAC_INCHI>
InChI=1S/C40H48N4O8/c1-6-25-22-40(25,37(47)48)43-35(45)32-20-28(23-44(32)36(46)34(39(2,3)4)42-38(49)52-26-15-11-8-12-16-26)51-33-21-30(24-13-9-7-10-14-24)41-31-19-27(50-5)17-18-29(31)33/h6-7,9-10,13-14,17-19,21,25-26,28,32,34H,1,8,11-12,15-16,20,22-23H2,2-5H3,(H,42,49)(H,43,45)(H,47,48)/t25-,28+,32-,34+,40?/m0/s1
> <PUBCHEM_IUPAC_INCHIKEY>
NESARFMGSDPSTA-ZOLFWCGHSA-N
> <PUBCHEM_XLOGP3_AA>
6.7
> <PUBCHEM_EXACT_MASS>
712.34721450
> <PUBCHEM_MOLECULAR_FORMULA>
C40H48N4O8
> <PUBCHEM_MOLECULAR_WEIGHT>
712.8
> <PUBCHEM_OPENEYE_CAN_SMILES>
CC(C)(C)C(C(=O)N1CC(CC1C(=O)NC2(CC2C=C)C(=O)O)OC3=CC(=NC4=C3C=CC(=C4)OC)C5=CC=CC=C5)NC(=O)OC6CCCCC6
> <PUBCHEM_OPENEYE_ISO_SMILES>
CC(C)(C)[C@@H](C(=O)N1C[C@@H](C[C@H]1C(=O)NC2(C[C@@H]2C=C)C(=O)O)OC3=CC(=NC4=C3C=CC(=C4)OC)C5=CC=CC=C5)NC(=O)OC6CCCCC6
> <PUBCHEM_CACTVS_TPSA>
156
> <PUBCHEM_MONOISOTOPIC_WEIGHT>
712.34721450
> <PUBCHEM_TOTAL_CHARGE>
0
> <PUBCHEM_HEAVY_ATOM_COUNT>
52
> <PUBCHEM_ATOM_DEF_STEREO_COUNT>
4
> <PUBCHEM_ATOM_UDEF_STEREO_COUNT>
1
> <PUBCHEM_BOND_DEF_STEREO_COUNT>
0
> <PUBCHEM_BOND_UDEF_STEREO_COUNT>
0
> <PUBCHEM_ISOTOPIC_ATOM_COUNT>
0
> <PUBCHEM_COMPONENT_COUNT>
1
> <PUBCHEM_CACTVS_TAUTO_COUNT>
-1
> <PUBCHEM_COORDINATE_TYPE>
1
5
255
> <PUBCHEM_BONDANNOTATIONS>
25  11  5
12  40  8
12  41  8
13  16  3
14  17  6
18  19  6
21  3  5
30  37  8
30  39  8
37  40  8
37  42  8
39  41  8
40  43  8
42  44  8
43  46  8
44  46  8
45  47  8
45  48  8
47  49  8
48  50  8
49  51  8
50  51  8
$$$$
