500834
  -OEChem-10302200282D
 94 99  0     1  0  0  0  0  0999 V2000
   11.8303    0.0479    0.0000 S   0  0  0  0  0  0  0  0  0  0  0  0
    9.9737    4.8817    0.0000 O   0  0  0  0  0  0  0  0  0  0  0  0
   10.1548    3.1592    0.0000 O   0  0  0  0  0  0  0  0  0  0  0  0
    6.3981   -0.4749    0.0000 O   0  0  0  0  0  0  0  0  0  0  0  0
    9.7480    2.2456    0.0000 O   0  0  0  0  0  0  0  0  0  0  0  0
   10.4291    1.0660    0.0000 O   0  0  0  0  0  0  0  0  0  0  0  0
   12.6394   -0.5398    0.0000 O   0  0  0  0  0  0  0  0  0  0  0  0
   11.0213    0.6357    0.0000 O   0  0  0  0  0  0  0  0  0  0  0  0
    2.8680   -3.4990    0.0000 O   0  0  0  0  0  0  0  0  0  0  0  0
    8.1657    2.9501    0.0000 N   0  0  0  0  0  0  0  0  0  0  0  0
    8.8468    0.3615    0.0000 N   0  0  0  0  0  0  0  0  0  0  0  0
   11.2426   -0.7611    0.0000 N   0  0  0  0  0  0  0  0  0  0  0  0
    6.3981   -3.4749    0.0000 N   0  0  0  0  0  0  0  0  0  0  0  0
    8.5725    3.8637    0.0000 C   0  0  3  0  0  0  0  0  0  0  0  0
    7.6589    4.2704    0.0000 C   0  0  2  0  0  0  0  0  0  0  0  0
    8.4679    4.8582    0.0000 C   0  0  0  0  0  0  0  0  0  0  0  0
    9.5670    3.9682    0.0000 C   0  0  0  0  0  0  0  0  0  0  0  0
    6.6644    4.1659    0.0000 C   0  0  0  0  0  0  0  0  0  0  0  0
    8.3468    1.2276    0.0000 C   0  0  2  0  0  0  0  0  0  0  0  0
    8.7535    2.1411    0.0000 C   0  0  0  0  0  0  0  0  0  0  0  0
    7.3686    1.0196    0.0000 C   0  0  0  0  0  0  0  0  0  0  0  0
    7.2641    0.0251    0.0000 C   0  0  2  0  0  0  0  0  0  0  0  0
    8.1776   -0.3816    0.0000 C   0  0  0  0  0  0  0  0  0  0  0  0
    9.8413    0.2570    0.0000 C   0  0  0  0  0  0  0  0  0  0  0  0
   10.2480   -0.6565    0.0000 C   0  0  2  0  0  0  0  0  0  0  0  0
    6.0766    4.9749    0.0000 C   0  0  0  0  0  0  0  0  0  0  0  0
    9.6602   -1.4656    0.0000 C   0  0  0  0  0  0  0  0  0  0  0  0
   10.4693   -2.0534    0.0000 C   0  0  0  0  0  0  0  0  0  0  0  0
    8.8512   -0.8778    0.0000 C   0  0  0  0  0  0  0  0  0  0  0  0
    9.0725   -2.2746    0.0000 C   0  0  0  0  0  0  0  0  0  0  0  0
    6.3981   -1.4749    0.0000 C   0  0  0  0  0  0  0  0  0  0  0  0
    5.5320   -1.9749    0.0000 C   0  0  0  0  0  0  0  0  0  0  0  0
    7.2641   -1.9749    0.0000 C   0  0  0  0  0  0  0  0  0  0  0  0
   12.4181    0.8570    0.0000 C   0  0  0  0  0  0  0  0  0  0  0  0
    5.5320   -2.9749    0.0000 C   0  0  0  0  0  0  0  0  0  0  0  0
    7.2641   -2.9749    0.0000 C   0  0  0  0  0  0  0  0  0  0  0  0
    4.6381   -1.4402    0.0000 C   0  0  0  0  0  0  0  0  0  0  0  0
   12.0114    1.7705    0.0000 C   0  0  0  0  0  0  0  0  0  0  0  0
   13.4126    0.7524    0.0000 C   0  0  0  0  0  0  0  0  0  0  0  0
    4.6381   -3.5095    0.0000 C   0  0  0  0  0  0  0  0  0  0  0  0
    3.7320   -1.9541    0.0000 C   0  0  0  0  0  0  0  0  0  0  0  0
    8.1301   -3.4749    0.0000 C   0  0  0  0  0  0  0  0  0  0  0  0
    3.7320   -2.9957    0.0000 C   0  0  0  0  0  0  0  0  0  0  0  0
   12.5992    2.5795    0.0000 C   0  0  0  0  0  0  0  0  0  0  0  0
   14.0004    1.5614    0.0000 C   0  0  0  0  0  0  0  0  0  0  0  0
   13.5937    2.4750    0.0000 C   0  0  0  0  0  0  0  0  0  0  0  0
    8.9962   -2.9749    0.0000 C   0  0  0  0  0  0  0  0  0  0  0  0
    8.1301   -4.4749    0.0000 C   0  0  0  0  0  0  0  0  0  0  0  0
    9.8622   -3.4749    0.0000 C   0  0  0  0  0  0  0  0  0  0  0  0
    8.9962   -4.9749    0.0000 C   0  0  0  0  0  0  0  0  0  0  0  0
    9.8622   -4.4749    0.0000 C   0  0  0  0  0  0  0  0  0  0  0  0
    2.0000   -3.0024    0.0000 C   0  0  0  0  0  0  0  0  0  0  0  0
    7.4367    4.8492    0.0000 H   0  0  0  0  0  0  0  0  0  0  0  0
    9.0639    5.0291    0.0000 H   0  0  0  0  0  0  0  0  0  0  0  0
    8.1961    5.4154    0.0000 H   0  0  0  0  0  0  0  0  0  0  0  0
    7.5491    2.8853    0.0000 H   0  0  0  0  0  0  0  0  0  0  0  0
    6.4122    3.5995    0.0000 H   0  0  0  0  0  0  0  0  0  0  0  0
    8.9659    1.2600    0.0000 H   0  0  0  0  0  0  0  0  0  0  0  0
    7.3038    1.6362    0.0000 H   0  0  0  0  0  0  0  0  0  0  0  0
    6.7486    1.0196    0.0000 H   0  0  0  0  0  0  0  0  0  0  0  0
    6.7441    0.3628    0.0000 H   0  0  0  0  0  0  0  0  0  0  0  0
    7.8676   -0.9186    0.0000 H   0  0  0  0  0  0  0  0  0  0  0  0
    8.6792   -0.7460    0.0000 H   0  0  0  0  0  0  0  0  0  0  0  0
   10.6125   -0.1550    0.0000 H   0  0  0  0  0  0  0  0  0  0  0  0
    6.3288    5.5413    0.0000 H   0  0  0  0  0  0  0  0  0  0  0  0
    5.4600    4.9101    0.0000 H   0  0  0  0  0  0  0  0  0  0  0  0
   10.5903    4.9465    0.0000 H   0  0  0  0  0  0  0  0  0  0  0  0
   11.4947   -1.3275    0.0000 H   0  0  0  0  0  0  0  0  0  0  0  0
   10.1048   -2.5549    0.0000 H   0  0  0  0  0  0  0  0  0  0  0  0
   10.9709   -2.4178    0.0000 H   0  0  0  0  0  0  0  0  0  0  0  0
   10.8337   -1.5518    0.0000 H   0  0  0  0  0  0  0  0  0  0  0  0
    9.2157   -0.3762    0.0000 H   0  0  0  0  0  0  0  0  0  0  0  0
    8.3496   -0.5134    0.0000 H   0  0  0  0  0  0  0  0  0  0  0  0
    8.4868   -1.3794    0.0000 H   0  0  0  0  0  0  0  0  0  0  0  0
    8.5709   -1.9102    0.0000 H   0  0  0  0  0  0  0  0  0  0  0  0
    8.7080   -2.7762    0.0000 H   0  0  0  0  0  0  0  0  0  0  0  0
    9.5740   -2.6390    0.0000 H   0  0  0  0  0  0  0  0  0  0  0  0
    7.8010   -1.6649    0.0000 H   0  0  0  0  0  0  0  0  0  0  0  0
    4.6453   -0.8203    0.0000 H   0  0  0  0  0  0  0  0  0  0  0  0
   11.3948    1.8353    0.0000 H   0  0  0  0  0  0  0  0  0  0  0  0
   13.6648    0.1860    0.0000 H   0  0  0  0  0  0  0  0  0  0  0  0
    4.6453   -4.1295    0.0000 H   0  0  0  0  0  0  0  0  0  0  0  0
    3.1963   -1.6420    0.0000 H   0  0  0  0  0  0  0  0  0  0  0  0
   12.3470    3.1459    0.0000 H   0  0  0  0  0  0  0  0  0  0  0  0
   14.6170    1.4966    0.0000 H   0  0  0  0  0  0  0  0  0  0  0  0
   13.9581    2.9766    0.0000 H   0  0  0  0  0  0  0  0  0  0  0  0
    8.9962   -2.3549    0.0000 H   0  0  0  0  0  0  0  0  0  0  0  0
    7.5932   -4.7849    0.0000 H   0  0  0  0  0  0  0  0  0  0  0  0
   10.3991   -3.1649    0.0000 H   0  0  0  0  0  0  0  0  0  0  0  0
    8.9962   -5.5949    0.0000 H   0  0  0  0  0  0  0  0  0  0  0  0
   10.3991   -4.7849    0.0000 H   0  0  0  0  0  0  0  0  0  0  0  0
    2.3079   -2.4642    0.0000 H   0  0  0  0  0  0  0  0  0  0  0  0
    1.4619   -2.6944    0.0000 H   0  0  0  0  0  0  0  0  0  0  0  0
    1.6921   -3.5405    0.0000 H   0  0  0  0  0  0  0  0  0  0  0  0
  1  7  2  0  0  0  0
  1  8  2  0  0  0  0
  1 12  1  0  0  0  0
  1 34  1  0  0  0  0
  2 17  1  0  0  0  0
  2 67  1  0  0  0  0
  3 17  2  0  0  0  0
 22  4  1  6  0  0  0
  4 31  1  0  0  0  0
  5 20  2  0  0  0  0
  6 24  2  0  0  0  0
  9 43  1  0  0  0  0
  9 52  1  0  0  0  0
 10 14  1  0  0  0  0
 10 20  1  0  0  0  0
 10 56  1  0  0  0  0
 11 19  1  0  0  0  0
 11 23  1  0  0  0  0
 11 24  1  0  0  0  0
 25 12  1  1  0  0  0
 12 68  1  0  0  0  0
 13 35  1  0  0  0  0
 13 36  2  0  0  0  0
 14 15  1  0  0  0  0
 14 16  1  0  0  0  0
 14 17  1  0  0  0  0
 15 16  1  0  0  0  0
 15 18  1  1  0  0  0
 15 53  1  0  0  0  0
 16 54  1  0  0  0  0
 16 55  1  0  0  0  0
 18 26  2  0  0  0  0
 18 57  1  0  0  0  0
 19 20  1  1  0  0  0
 19 21  1  0  0  0  0
 19 58  1  0  0  0  0
 21 22  1  0  0  0  0
 21 59  1  0  0  0  0
 21 60  1  0  0  0  0
 22 23  1  0  0  0  0
 22 61  1  0  0  0  0
 23 62  1  0  0  0  0
 23 63  1  0  0  0  0
 24 25  1  0  0  0  0
 25 27  1  0  0  0  0
 25 64  1  0  0  0  0
 26 65  1  0  0  0  0
 26 66  1  0  0  0  0
 27 28  1  0  0  0  0
 27 29  1  0  0  0  0
 27 30  1  0  0  0  0
 28 69  1  0  0  0  0
 28 70  1  0  0  0  0
 28 71  1  0  0  0  0
 29 72  1  0  0  0  0
 29 73  1  0  0  0  0
 29 74  1  0  0  0  0
 30 75  1  0  0  0  0
 30 76  1  0  0  0  0
 30 77  1  0  0  0  0
 31 32  1  0  0  0  0
 31 33  2  0  0  0  0
 32 35  2  0  0  0  0
 32 37  1  0  0  0  0
 33 36  1  0  0  0  0
 33 78  1  0  0  0  0
 34 38  2  0  0  0  0
 34 39  1  0  0  0  0
 35 40  1  0  0  0  0
 36 42  1  0  0  0  0
 37 41  2  0  0  0  0
 37 79  1  0  0  0  0
 38 44  1  0  0  0  0
 38 80  1  0  0  0  0
 39 45  2  0  0  0  0
 39 81  1  0  0  0  0
 40 43  2  0  0  0  0
 40 82  1  0  0  0  0
 41 43  1  0  0  0  0
 41 83  1  0  0  0  0
 42 47  2  0  0  0  0
 42 48  1  0  0  0  0
 44 46  2  0  0  0  0
 44 84  1  0  0  0  0
 45 46  1  0  0  0  0
 45 85  1  0  0  0  0
 46 86  1  0  0  0  0
 47 49  1  0  0  0  0
 47 87  1  0  0  0  0
 48 50  2  0  0  0  0
 48 88  1  0  0  0  0
 49 51  2  0  0  0  0
 49 89  1  0  0  0  0
 50 51  1  0  0  0  0
 50 90  1  0  0  0  0
 51 91  1  0  0  0  0
 52 92  1  0  0  0  0
 52 93  1  0  0  0  0
 52 94  1  0  0  0  0
M  END
> <PUBCHEM_COMPOUND_CID>
500834
> <PUBCHEM_COMPOUND_CANONICALIZED>
1
> <PUBCHEM_CACTVS_COMPLEXITY>
1420
> <PUBCHEM_CACTVS_HBOND_ACCEPTOR>
10
> <PUBCHEM_CACTVS_HBOND_DONOR>
3
> <PUBCHEM_CACTVS_ROTATABLE_BOND>
13
> <PUBCHEM_CACTVS_SUBSKEYS>
AAADcfB/vABAAAAAAAAAAAAAGAAAAWAAAAA8YMEAAAAAAACx9AAAHgQQSAAAD7zh3gYyz/PIFgKoAyXyXHDCiDAhIiAImLm+bJgOZvLEsbuXeCjm1hnY6Ae68e8PIAAAAgACAABAAAAEAAQAAAAAAAAAAA==
> <PUBCHEM_IUPAC_OPENEYE_NAME>
(2R)-1-[[(2S,4R)-1-[(2S)-2-(benzenesulfonamido)-3,3-dimethyl-butanoyl]-4-[(7-methoxy-2-phenyl-4-quinolyl)oxy]pyrrolidine-2-carbonyl]amino]-2-vinyl-cyclopropanecarboxylic acid
> <PUBCHEM_IUPAC_CAS_NAME>
(2R)-1-[[[(2S,4R)-1-[(2S)-2-(benzenesulfonamido)-3,3-dimethyl-1-oxobutyl]-4-[(7-methoxy-2-phenyl-4-quinolinyl)oxy]-2-pyrrolidinyl]-oxomethyl]amino]-2-ethenyl-1-cyclopropanecarboxylic acid
> <PUBCHEM_IUPAC_NAME_MARKUP>
(2<I>R</I>)-1-[[(2<I>S</I>,4<I>R</I>)-1-[(2<I>S</I>)-2-(benzenesulfonamido)-3,3-dimethylbutanoyl]-4-(7-methoxy-2-phenylquinolin-4-yl)oxypyrrolidine-2-carbonyl]amino]-2-ethenylcyclopropane-1-carboxylic acid
> <PUBCHEM_IUPAC_NAME>
(2R)-1-[[(2S,4R)-1-[(2S)-2-(benzenesulfonamido)-3,3-dimethylbutanoyl]-4-(7-methoxy-2-phenylquinolin-4-yl)oxypyrrolidine-2-carbonyl]amino]-2-ethenylcyclopropane-1-carboxylic acid
> <PUBCHEM_IUPAC_SYSTEMATIC_NAME>
(2R)-1-[[(2S,4R)-1-[(2S)-3,3-dimethyl-2-(phenylsulfonylamino)butanoyl]-4-(7-methoxy-2-phenyl-quinolin-4-yl)oxy-pyrrolidin-2-yl]carbonylamino]-2-ethenyl-cyclopropane-1-carboxylic acid
> <PUBCHEM_IUPAC_TRADITIONAL_NAME>
(2R)-1-[[(2S,4R)-1-[(2S)-2-(benzenesulfonamido)-3,3-dimethyl-butanoyl]-4-[(7-methoxy-2-phenyl-4-quinolyl)oxy]prolyl]amino]-2-vinyl-cyclopropanecarboxylic acid
> <PUBCHEM_IUPAC_INCHI>
InChI=1S/C39H42N4O8S/c1-6-25-22-39(25,37(46)47)41-35(44)32-20-27(23-43(32)36(45)34(38(2,3)4)42-52(48,49)28-15-11-8-12-16-28)51-33-21-30(24-13-9-7-10-14-24)40-31-19-26(50-5)17-18-29(31)33/h6-19,21,25,27,32,34,42H,1,20,22-23H2,2-5H3,(H,41,44)(H,46,47)/t25-,27+,32-,34+,39?/m0/s1
> <PUBCHEM_IUPAC_INCHIKEY>
LWAPZYZWEIWBCN-BGVJRILJSA-N
> <PUBCHEM_XLOGP3_AA>
5.8
> <PUBCHEM_EXACT_MASS>
726.27233548
> <PUBCHEM_MOLECULAR_FORMULA>
C39H42N4O8S
> <PUBCHEM_MOLECULAR_WEIGHT>
726.8
> <PUBCHEM_OPENEYE_CAN_SMILES>
CC(C)(C)C(C(=O)N1CC(CC1C(=O)NC2(CC2C=C)C(=O)O)OC3=CC(=NC4=C3C=CC(=C4)OC)C5=CC=CC=C5)NS(=O)(=O)C6=CC=CC=C6
> <PUBCHEM_OPENEYE_ISO_SMILES>
CC(C)(C)[C@@H](C(=O)N1C[C@@H](C[C@H]1C(=O)NC2(C[C@@H]2C=C)C(=O)O)OC3=CC(=NC4=C3C=CC(=C4)OC)C5=CC=CC=C5)NS(=O)(=O)C6=CC=CC=C6
> <PUBCHEM_CACTVS_TPSA>
173
> <PUBCHEM_MONOISOTOPIC_WEIGHT>
726.27233548
> <PUBCHEM_TOTAL_CHARGE>
0
> <PUBCHEM_HEAVY_ATOM_COUNT>
52
> <PUBCHEM_ATOM_DEF_STEREO_COUNT>
4
> <PUBCHEM_ATOM_UDEF_STEREO_COUNT>
1
> <PUBCHEM_BOND_DEF_STEREO_COUNT>
0
> <PUBCHEM_BOND_UDEF_STEREO_COUNT>
0
> <PUBCHEM_ISOTOPIC_ATOM_COUNT>
0
> <PUBCHEM_COMPONENT_COUNT>
1
> <PUBCHEM_CACTVS_TAUTO_COUNT>
-1
> <PUBCHEM_COORDINATE_TYPE>
1
5
255
> <PUBCHEM_BONDANNOTATIONS>
25  12  5
13  35  8
13  36  8
14  17  3
15  18  5
19  20  5
31  32  8
31  33  8
32  35  8
32  37  8
33  36  8
34  38  8
34  39  8
35  40  8
37  41  8
38  44  8
39  45  8
22  4  6
40  43  8
41  43  8
42  47  8
42  48  8
44  46  8
45  46  8
47  49  8
48  50  8
49  51  8
50  51  8
$$$$
