500862
  -OEChem-10302200282D
146153  0     1  0  0  0  0  0999 V2000
   10.3659   -6.6728    0.0000 O   0  0  0  0  0  0  0  0  0  0  0  0
   11.4467   -4.4288    0.0000 O   0  0  0  0  0  0  0  0  0  0  0  0
   12.0988   -5.9002    0.0000 O   0  0  0  0  0  0  0  0  0  0  0  0
    8.3769   -7.5543    0.0000 O   0  0  0  0  0  0  0  0  0  0  0  0
    9.0425   -4.4493    0.0000 O   0  0  0  0  0  0  0  0  0  0  0  0
    6.9770   -6.7428    0.0000 O   0  0  0  0  0  0  0  0  0  0  0  0
   10.3317   -3.2925    0.0000 O   0  0  0  0  0  0  0  0  0  0  0  0
    7.6138    2.3300    0.0000 O   0  0  0  0  0  0  0  0  0  0  0  0
   10.5493    2.9487    0.0000 O   0  0  0  0  0  0  0  0  0  0  0  0
    6.2619    0.9066    0.0000 O   0  0  0  0  0  0  0  0  0  0  0  0
    6.6353    2.1238    0.0000 O   0  0  0  0  0  0  0  0  0  0  0  0
    9.2601    1.7919    0.0000 O   0  0  0  0  0  0  0  0  0  0  0  0
    9.2136    4.4373    0.0000 N   0  0  3  0  0  0  0  0  0  0  0  0
    9.8349    6.3383    0.0000 N   0  0  3  0  0  0  0  0  0  0  0  0
    8.6853   -2.7544    0.0000 N   0  0  0  0  0  0  0  0  0  0  0  0
    4.9889    2.6619    0.0000 N   0  0  0  0  0  0  0  0  0  0  0  0
   11.8385    4.1054    0.0000 N   0  0  0  0  0  0  0  0  0  0  0  0
   12.7705    6.9570    0.0000 N   0  0  0  0  0  0  0  0  0  0  0  0
   10.7051   -5.0908    0.0000 C   0  0  1  0  0  0  0  0  0  0  0  0
    9.5008   -6.1714    0.0000 C   0  0  1  0  0  0  0  0  0  0  0  0
    9.7104   -5.1936    0.0000 C   0  0  2  0  0  0  0  0  0  0  0  0
   11.1102   -6.0050    0.0000 C   0  0  3  0  0  0  0  0  0  0  0  0
    8.5865   -6.5765    0.0000 C   0  0  3  0  0  0  0  0  0  0  0  0
   12.3063   -4.9281    0.0000 C   0  0  0  0  0  0  0  0  0  0  0  0
    7.7214   -6.0750    0.0000 C   0  0  0  0  0  0  0  0  0  0  0  0
    7.3822   -7.6571    0.0000 C   0  0  0  0  0  0  0  0  0  0  0  0
   13.2841   -5.1377    0.0000 C   0  0  0  0  0  0  0  0  0  0  0  0
   12.8078   -4.0629    0.0000 C   0  0  0  0  0  0  0  0  0  0  0  0
    7.4850   -8.6518    0.0000 C   0  0  0  0  0  0  0  0  0  0  0  0
    6.4680   -8.0623    0.0000 C   0  0  0  0  0  0  0  0  0  0  0  0
    9.3532   -3.4987    0.0000 C   0  0  0  0  0  0  0  0  0  0  0  0
   10.1921    4.6435    0.0000 C   0  0  1  0  0  0  0  0  0  0  0  0
    8.9030    3.4868    0.0000 C   0  0  0  0  0  0  0  0  0  0  0  0
   10.5028    5.5940    0.0000 C   0  0  0  0  0  0  0  0  0  0  0  0
    8.5458    5.1816    0.0000 C   0  0  0  0  0  0  0  0  0  0  0  0
    7.9244    3.2805    0.0000 C   0  0  2  0  0  0  0  0  0  0  0  0
    8.8564    6.1321    0.0000 C   0  0  0  0  0  0  0  0  0  0  0  0
    7.2566    4.0248    0.0000 C   0  0  0  0  0  0  0  0  0  0  0  0
    6.2781    3.8186    0.0000 C   0  0  2  0  0  0  0  0  0  0  0  0
   10.8600    3.8992    0.0000 C   0  0  0  0  0  0  0  0  0  0  0  0
    4.6783    1.7114    0.0000 C   0  0  2  0  0  0  0  0  0  0  0  0
   10.1456    7.2888    0.0000 C   0  0  0  0  0  0  0  0  0  0  0  0
    8.9960   -1.8039    0.0000 C   0  0  0  0  0  0  0  0  0  0  0  0
    5.2619    0.9066    0.0000 C   0  0  1  0  0  0  0  0  0  0  0  0
    5.6103    4.5629    0.0000 C   0  0  0  0  0  0  0  0  0  0  0  0
    5.9674    2.8681    0.0000 C   0  0  0  0  0  0  0  0  0  0  0  0
    3.7320    1.4066    0.0000 C   0  0  0  0  0  0  0  0  0  0  0  0
    4.6783    0.1019    0.0000 C   0  0  0  0  0  0  0  0  0  0  0  0
    8.3282   -1.0596    0.0000 C   0  0  0  0  0  0  0  0  0  0  0  0
   12.5063    3.3611    0.0000 C   0  0  0  0  0  0  0  0  0  0  0  0
    3.7320    0.4066    0.0000 C   0  0  0  0  0  0  0  0  0  0  0  0
    8.6388   -0.1091    0.0000 C   0  0  0  0  0  0  0  0  0  0  0  0
   11.1241    7.4951    0.0000 C   0  0  0  0  0  0  0  0  0  0  0  0
    7.9710    0.6352    0.0000 C   0  0  0  0  0  0  0  0  0  0  0  0
    8.2816    1.5857    0.0000 C   0  0  0  0  0  0  0  0  0  0  0  0
    5.9209    5.5134    0.0000 C   0  0  0  0  0  0  0  0  0  0  0  0
    2.8660    1.9066    0.0000 C   0  0  0  0  0  0  0  0  0  0  0  0
   13.1742    2.6168    0.0000 C   0  0  0  0  0  0  0  0  0  0  0  0
   13.2506    4.0290    0.0000 C   0  0  0  0  0  0  0  0  0  0  0  0
   11.7620    2.6933    0.0000 C   0  0  0  0  0  0  0  0  0  0  0  0
    2.8660   -0.0934    0.0000 C   0  0  0  0  0  0  0  0  0  0  0  0
   11.4348    8.4456    0.0000 C   0  0  0  0  0  0  0  0  0  0  0  0
    2.0000    1.4066    0.0000 C   0  0  0  0  0  0  0  0  0  0  0  0
   11.7920    6.7508    0.0000 C   0  0  0  0  0  0  0  0  0  0  0  0
    2.0000    0.4066    0.0000 C   0  0  0  0  0  0  0  0  0  0  0  0
    5.2531    6.2578    0.0000 C   0  0  0  0  0  0  0  0  0  0  0  0
    6.8994    5.7197    0.0000 C   0  0  0  0  0  0  0  0  0  0  0  0
   12.4133    8.6518    0.0000 C   0  0  0  0  0  0  0  0  0  0  0  0
    5.5637    7.2083    0.0000 C   0  0  0  0  0  0  0  0  0  0  0  0
    7.2101    6.6702    0.0000 C   0  0  0  0  0  0  0  0  0  0  0  0
    6.5422    7.4145    0.0000 C   0  0  0  0  0  0  0  0  0  0  0  0
   13.0811    7.9075    0.0000 C   0  0  0  0  0  0  0  0  0  0  0  0
   10.3617   -4.3132    0.0000 H   0  0  0  0  0  0  0  0  0  0  0  0
    9.4548   -7.0201    0.0000 H   0  0  0  0  0  0  0  0  0  0  0  0
    9.1112   -5.3530    0.0000 H   0  0  0  0  0  0  0  0  0  0  0  0
   11.3621   -6.5715    0.0000 H   0  0  0  0  0  0  0  0  0  0  0  0
    8.6200   -5.9574    0.0000 H   0  0  0  0  0  0  0  0  0  0  0  0
    8.0866   -5.5740    0.0000 H   0  0  0  0  0  0  0  0  0  0  0  0
    7.2613   -5.6594    0.0000 H   0  0  0  0  0  0  0  0  0  0  0  0
   13.1541   -5.7439    0.0000 H   0  0  0  0  0  0  0  0  0  0  0  0
   13.8903   -5.2676    0.0000 H   0  0  0  0  0  0  0  0  0  0  0  0
   13.4140   -4.5314    0.0000 H   0  0  0  0  0  0  0  0  0  0  0  0
   13.3442   -4.3738    0.0000 H   0  0  0  0  0  0  0  0  0  0  0  0
   13.1187   -3.5265    0.0000 H   0  0  0  0  0  0  0  0  0  0  0  0
   12.2714   -3.7520    0.0000 H   0  0  0  0  0  0  0  0  0  0  0  0
    6.8683   -8.7155    0.0000 H   0  0  0  0  0  0  0  0  0  0  0  0
    7.5488   -9.2685    0.0000 H   0  0  0  0  0  0  0  0  0  0  0  0
    8.1017   -8.5881    0.0000 H   0  0  0  0  0  0  0  0  0  0  0  0
    6.2168   -7.4954    0.0000 H   0  0  0  0  0  0  0  0  0  0  0  0
    5.9011   -8.3134    0.0000 H   0  0  0  0  0  0  0  0  0  0  0  0
    6.7192   -8.6291    0.0000 H   0  0  0  0  0  0  0  0  0  0  0  0
    9.9995    4.0542    0.0000 H   0  0  0  0  0  0  0  0  0  0  0  0
    8.9235    2.8671    0.0000 H   0  0  0  0  0  0  0  0  0  0  0  0
    9.5168    3.3994    0.0000 H   0  0  0  0  0  0  0  0  0  0  0  0
   11.0497    5.3020    0.0000 H   0  0  0  0  0  0  0  0  0  0  0  0
   10.8853    6.0819    0.0000 H   0  0  0  0  0  0  0  0  0  0  0  0
    7.9988    5.4736    0.0000 H   0  0  0  0  0  0  0  0  0  0  0  0
    8.1632    4.6937    0.0000 H   0  0  0  0  0  0  0  0  0  0  0  0
    8.3385    2.8191    0.0000 H   0  0  0  0  0  0  0  0  0  0  0  0
    8.8359    6.7518    0.0000 H   0  0  0  0  0  0  0  0  0  0  0  0
    8.2426    6.2194    0.0000 H   0  0  0  0  0  0  0  0  0  0  0  0
    7.7830    4.3525    0.0000 H   0  0  0  0  0  0  0  0  0  0  0  0
    7.0254    4.6001    0.0000 H   0  0  0  0  0  0  0  0  0  0  0  0
    8.0787   -2.8823    0.0000 H   0  0  0  0  0  0  0  0  0  0  0  0
    6.6922    3.3572    0.0000 H   0  0  0  0  0  0  0  0  0  0  0  0
    5.2908    1.8076    0.0000 H   0  0  0  0  0  0  0  0  0  0  0  0
   10.1250    7.9085    0.0000 H   0  0  0  0  0  0  0  0  0  0  0  0
    9.5318    7.3762    0.0000 H   0  0  0  0  0  0  0  0  0  0  0  0
    9.5429   -2.0959    0.0000 H   0  0  0  0  0  0  0  0  0  0  0  0
    9.3786   -1.3160    0.0000 H   0  0  0  0  0  0  0  0  0  0  0  0
    5.5436    0.3543    0.0000 H   0  0  0  0  0  0  0  0  0  0  0  0
    5.0633    4.8550    0.0000 H   0  0  0  0  0  0  0  0  0  0  0  0
    5.2277    4.0750    0.0000 H   0  0  0  0  0  0  0  0  0  0  0  0
    4.4272   -0.4650    0.0000 H   0  0  0  0  0  0  0  0  0  0  0  0
    5.2156   -0.2073    0.0000 H   0  0  0  0  0  0  0  0  0  0  0  0
    7.7812   -0.7676    0.0000 H   0  0  0  0  0  0  0  0  0  0  0  0
    7.9456   -1.5475    0.0000 H   0  0  0  0  0  0  0  0  0  0  0  0
    4.5749    3.1234    0.0000 H   0  0  0  0  0  0  0  0  0  0  0  0
   12.0311    4.6947    0.0000 H   0  0  0  0  0  0  0  0  0  0  0  0
    9.1857   -0.4011    0.0000 H   0  0  0  0  0  0  0  0  0  0  0  0
    9.0214    0.3788    0.0000 H   0  0  0  0  0  0  0  0  0  0  0  0
    7.4240    0.9272    0.0000 H   0  0  0  0  0  0  0  0  0  0  0  0
    7.5884    0.1473    0.0000 H   0  0  0  0  0  0  0  0  0  0  0  0
    2.8660    2.5266    0.0000 H   0  0  0  0  0  0  0  0  0  0  0  0
   12.7127    2.2028    0.0000 H   0  0  0  0  0  0  0  0  0  0  0  0
   13.5882    2.1554    0.0000 H   0  0  0  0  0  0  0  0  0  0  0  0
   13.6356    3.0309    0.0000 H   0  0  0  0  0  0  0  0  0  0  0  0
   13.6647    3.5675    0.0000 H   0  0  0  0  0  0  0  0  0  0  0  0
   13.7121    4.4430    0.0000 H   0  0  0  0  0  0  0  0  0  0  0  0
   12.8366    4.4904    0.0000 H   0  0  0  0  0  0  0  0  0  0  0  0
   11.3480    3.1547    0.0000 H   0  0  0  0  0  0  0  0  0  0  0  0
   11.3005    2.2792    0.0000 H   0  0  0  0  0  0  0  0  0  0  0  0
   12.1761    2.2318    0.0000 H   0  0  0  0  0  0  0  0  0  0  0  0
    2.8660   -0.7134    0.0000 H   0  0  0  0  0  0  0  0  0  0  0  0
    6.5719    0.3697    0.0000 H   0  0  0  0  0  0  0  0  0  0  0  0
   11.0207    8.9070    0.0000 H   0  0  0  0  0  0  0  0  0  0  0  0
    1.4631    1.7166    0.0000 H   0  0  0  0  0  0  0  0  0  0  0  0
   11.5993    6.1614    0.0000 H   0  0  0  0  0  0  0  0  0  0  0  0
    1.4631    0.0966    0.0000 H   0  0  0  0  0  0  0  0  0  0  0  0
    4.6464    6.1299    0.0000 H   0  0  0  0  0  0  0  0  0  0  0  0
    7.3135    5.2582    0.0000 H   0  0  0  0  0  0  0  0  0  0  0  0
   12.6059    9.2411    0.0000 H   0  0  0  0  0  0  0  0  0  0  0  0
    5.1497    7.6697    0.0000 H   0  0  0  0  0  0  0  0  0  0  0  0
    7.8168    6.7980    0.0000 H   0  0  0  0  0  0  0  0  0  0  0  0
    6.7349    8.0038    0.0000 H   0  0  0  0  0  0  0  0  0  0  0  0
   13.6878    8.0354    0.0000 H   0  0  0  0  0  0  0  0  0  0  0  0
  1 20  1  0  0  0  0
  1 22  1  0  0  0  0
  2 19  1  0  0  0  0
  2 24  1  0  0  0  0
  3 22  1  0  0  0  0
  3 24  1  0  0  0  0
  4 23  1  0  0  0  0
  4 26  1  0  0  0  0
 21  5  1  6  0  0  0
  5 31  1  0  0  0  0
  6 25  1  0  0  0  0
  6 26  1  0  0  0  0
  7 31  2  0  0  0  0
 36  8  1  1  0  0  0
  8 55  1  0  0  0  0
  9 40  2  0  0  0  0
 44 10  1  6  0  0  0
 10135  1  0  0  0  0
 11 46  2  0  0  0  0
 12 55  2  0  0  0  0
 13 32  1  0  0  0  0
 13 33  1  0  0  0  0
 13 35  1  0  0  0  0
 14 34  1  0  0  0  0
 14 37  1  0  0  0  0
 14 42  1  0  0  0  0
 15 31  1  0  0  0  0
 15 43  1  0  0  0  0
 15104  1  0  0  0  0
 41 16  1  6  0  0  0
 16 46  1  0  0  0  0
 16118  1  0  0  0  0
 17 40  1  0  0  0  0
 17 50  1  0  0  0  0
 17119  1  0  0  0  0
 18 64  1  0  0  0  0
 18 72  2  0  0  0  0
 19 21  1  0  0  0  0
 19 22  1  0  0  0  0
 19 73  1  1  0  0  0
 20 21  1  0  0  0  0
 20 23  1  0  0  0  0
 20 74  1  1  0  0  0
 21 75  1  0  0  0  0
 22 76  1  0  0  0  0
 23 25  1  0  0  0  0
 23 77  1  0  0  0  0
 24 27  1  0  0  0  0
 24 28  1  0  0  0  0
 25 78  1  0  0  0  0
 25 79  1  0  0  0  0
 26 29  1  0  0  0  0
 26 30  1  0  0  0  0
 27 80  1  0  0  0  0
 27 81  1  0  0  0  0
 27 82  1  0  0  0  0
 28 83  1  0  0  0  0
 28 84  1  0  0  0  0
 28 85  1  0  0  0  0
 29 86  1  0  0  0  0
 29 87  1  0  0  0  0
 29 88  1  0  0  0  0
 30 89  1  0  0  0  0
 30 90  1  0  0  0  0
 30 91  1  0  0  0  0
 32 34  1  0  0  0  0
 32 40  1  1  0  0  0
 32 92  1  0  0  0  0
 33 36  1  0  0  0  0
 33 93  1  0  0  0  0
 33 94  1  0  0  0  0
 34 95  1  0  0  0  0
 34 96  1  0  0  0  0
 35 37  1  0  0  0  0
 35 97  1  0  0  0  0
 35 98  1  0  0  0  0
 36 38  1  0  0  0  0
 36 99  1  0  0  0  0
 37100  1  0  0  0  0
 37101  1  0  0  0  0
 39 38  1  1  0  0  0
 38102  1  0  0  0  0
 38103  1  0  0  0  0
 39 45  1  0  0  0  0
 39 46  1  0  0  0  0
 39105  1  0  0  0  0
 41 44  1  0  0  0  0
 41 47  1  0  0  0  0
 41106  1  0  0  0  0
 42 53  1  0  0  0  0
 42107  1  0  0  0  0
 42108  1  0  0  0  0
 43 49  1  0  0  0  0
 43109  1  0  0  0  0
 43110  1  0  0  0  0
 44 48  1  0  0  0  0
 44111  1  0  0  0  0
 45 56  1  0  0  0  0
 45112  1  0  0  0  0
 45113  1  0  0  0  0
 47 51  1  0  0  0  0
 47 57  2  0  0  0  0
 48 51  1  0  0  0  0
 48114  1  0  0  0  0
 48115  1  0  0  0  0
 49 52  1  0  0  0  0
 49116  1  0  0  0  0
 49117  1  0  0  0  0
 50 58  1  0  0  0  0
 50 59  1  0  0  0  0
 50 60  1  0  0  0  0
 51 61  2  0  0  0  0
 52 54  1  0  0  0  0
 52120  1  0  0  0  0
 52121  1  0  0  0  0
 53 62  1  0  0  0  0
 53 64  2  0  0  0  0
 54 55  1  0  0  0  0
 54122  1  0  0  0  0
 54123  1  0  0  0  0
 56 66  2  0  0  0  0
 56 67  1  0  0  0  0
 57 63  1  0  0  0  0
 57124  1  0  0  0  0
 58125  1  0  0  0  0
 58126  1  0  0  0  0
 58127  1  0  0  0  0
 59128  1  0  0  0  0
 59129  1  0  0  0  0
 59130  1  0  0  0  0
 60131  1  0  0  0  0
 60132  1  0  0  0  0
 60133  1  0  0  0  0
 61 65  1  0  0  0  0
 61134  1  0  0  0  0
 62 68  2  0  0  0  0
 62136  1  0  0  0  0
 63 65  2  0  0  0  0
 63137  1  0  0  0  0
 64138  1  0  0  0  0
 65139  1  0  0  0  0
 66 69  1  0  0  0  0
 66140  1  0  0  0  0
 67 70  2  0  0  0  0
 67141  1  0  0  0  0
 68 72  1  0  0  0  0
 68142  1  0  0  0  0
 69 71  2  0  0  0  0
 69143  1  0  0  0  0
 70 71  1  0  0  0  0
 70144  1  0  0  0  0
 71145  1  0  0  0  0
 72146  1  0  0  0  0
M  END
> <PUBCHEM_COMPOUND_CID>
500862
> <PUBCHEM_COMPOUND_CANONICALIZED>
1
> <PUBCHEM_CACTVS_COMPLEXITY>
1810
> <PUBCHEM_CACTVS_HBOND_ACCEPTOR>
15
> <PUBCHEM_CACTVS_HBOND_DONOR>
4
> <PUBCHEM_CACTVS_ROTATABLE_BOND>
22
> <PUBCHEM_CACTVS_SUBSKEYS>
AAADcfB/vAAAAAAAAAAAAAAAAAAAAaJEiAA8eIEAAAASAGAB0AAAHgAQCAAADbzxmgc+iJPIFgCoAjH3XACCgCAxAiAI2KG4ZJkbcPrA0bG/YAhl1gHeyAf6+f6OgAAAAAAQAAAAAAAAACAAAKAACQgAAA==
> <PUBCHEM_IUPAC_OPENEYE_NAME>
[(1S,3S)-3-benzyl-1-[[(2S)-2-(tert-butylcarbamoyl)-4-(3-pyridylmethyl)piperazin-1-yl]methyl]-4-[[(1S,2R)-2-hydroxyindan-1-yl]amino]-4-oxo-butyl] 5-[[(5R,6S,6aS)-5-(2,2-dimethyl-1,3-dioxolan-4-yl)-2,2-dimethyl-3a,5,6,6a-tetrahydrofuro[2,3-d][1,3]dioxol-6-yl]oxycarbonylamino]pentanoate
> <PUBCHEM_IUPAC_CAS_NAME>
5-[[[(5R,6S,6aS)-5-(2,2-dimethyl-1,3-dioxolan-4-yl)-2,2-dimethyl-3a,5,6,6a-tetrahydrofuro[2,3-d][1,3]dioxol-6-yl]oxy-oxomethyl]amino]pentanoic acid [(2S,4S)-1-[(2S)-2-[(tert-butylamino)-oxomethyl]-4-(3-pyridinylmethyl)-1-piperazinyl]-5-[[(1S,2R)-2-hydroxy-2,3-dihydro-1H-inden-1-yl]amino]-5-oxo-4-(phenylmethyl)pentan-2-yl] ester
> <PUBCHEM_IUPAC_NAME_MARKUP>
[(2<I>S</I>,4<I>S</I>)-4-benzyl-1-[(2<I>S</I>)-2-(<I>tert</I>-butylcarbamoyl)-4-(pyridin-3-ylmethyl)piperazin-1-yl]-5-[[(1<I>S</I>,2<I>R</I>)-2-hydroxy-2,3-dihydro-1<I>H</I>-inden-1-yl]amino]-5-oxopentan-2-yl] 5-[[(5<I>R</I>,6<I>S</I>,6<I>a</I><I>S</I>)-5-(2,2-dimethyl-1,3-dioxolan-4-yl)-2,2-dimethyl-3<I>a</I>,5,6,6<I>a</I>-tetrahydrofuro[2,3-d][1,3]dioxol-6-yl]oxycarbonylamino]pentanoate
> <PUBCHEM_IUPAC_NAME>
[(2S,4S)-4-benzyl-1-[(2S)-2-(tert-butylcarbamoyl)-4-(pyridin-3-ylmethyl)piperazin-1-yl]-5-[[(1S,2R)-2-hydroxy-2,3-dihydro-1H-inden-1-yl]amino]-5-oxopentan-2-yl] 5-[[(5R,6S,6aS)-5-(2,2-dimethyl-1,3-dioxolan-4-yl)-2,2-dimethyl-3a,5,6,6a-tetrahydrofuro[2,3-d][1,3]dioxol-6-yl]oxycarbonylamino]pentanoate
> <PUBCHEM_IUPAC_SYSTEMATIC_NAME>
[(2S,4S)-1-[(2S)-2-(tert-butylcarbamoyl)-4-(pyridin-3-ylmethyl)piperazin-1-yl]-5-[[(1S,2R)-2-oxidanyl-2,3-dihydro-1H-inden-1-yl]amino]-5-oxidanylidene-4-(phenylmethyl)pentan-2-yl] 5-[[(5R,6S,6aS)-5-(2,2-dimethyl-1,3-dioxolan-4-yl)-2,2-dimethyl-3a,5,6,6a-tetrahydrofuro[2,3-d][1,3]dioxol-6-yl]oxycarbonylamino]pentanoate
> <PUBCHEM_IUPAC_TRADITIONAL_NAME>
5-[[(5R,6S,6aS)-5-(2,2-dimethyl-1,3-dioxolan-4-yl)-2,2-dimethyl-3a,5,6,6a-tetrahydrofuro[2,3-d][1,3]dioxol-6-yl]oxycarbonylamino]valeric acid [(1S,3S)-3-benzyl-1-[[(2S)-2-(tert-butylcarbamoyl)-4-(3-pyridylmethyl)piperazino]methyl]-4-[[(1S,2R)-2-hydroxyindan-1-yl]amino]-4-keto-butyl] ester
> <PUBCHEM_IUPAC_INCHI>
InChI=1S/C54H74N6O12/c1-52(2,3)58-49(64)40-32-59(30-35-18-15-22-55-29-35)24-25-60(40)31-38(27-37(26-34-16-9-8-10-17-34)48(63)57-44-39-20-12-11-19-36(39)28-41(44)61)67-43(62)21-13-14-23-56-51(65)69-46-45(42-33-66-53(4,5)70-42)68-50-47(46)71-54(6,7)72-50/h8-12,15-20,22,29,37-38,40-42,44-47,50,61H,13-14,21,23-28,30-33H2,1-7H3,(H,56,65)(H,57,63)(H,58,64)/t37-,38-,40-,41+,42?,44-,45+,46-,47-,50?/m0/s1
> <PUBCHEM_IUPAC_INCHIKEY>
HCVLFUJXUQNTGJ-IMXRIOCUSA-N
> <PUBCHEM_XLOGP3_AA>
4.2
> <PUBCHEM_EXACT_MASS>
998.53647182
> <PUBCHEM_MOLECULAR_FORMULA>
C54H74N6O12
> <PUBCHEM_MOLECULAR_WEIGHT>
999.2
> <PUBCHEM_OPENEYE_CAN_SMILES>
CC1(OCC(O1)C2C(C3C(O2)OC(O3)(C)C)OC(=O)NCCCCC(=O)OC(CC(CC4=CC=CC=C4)C(=O)NC5C(CC6=CC=CC=C56)O)CN7CCN(CC7C(=O)NC(C)(C)C)CC8=CN=CC=C8)C
> <PUBCHEM_OPENEYE_ISO_SMILES>
CC1(OCC(O1)[C@@H]2[C@@H]([C@H]3C(O2)OC(O3)(C)C)OC(=O)NCCCCC(=O)O[C@@H](C[C@H](CC4=CC=CC=C4)C(=O)N[C@@H]5[C@@H](CC6=CC=CC=C56)O)CN7CCN(C[C@H]7C(=O)NC(C)(C)C)CC8=CN=CC=C8)C
> <PUBCHEM_CACTVS_TPSA>
209
> <PUBCHEM_MONOISOTOPIC_WEIGHT>
998.53647182
> <PUBCHEM_TOTAL_CHARGE>
0
> <PUBCHEM_HEAVY_ATOM_COUNT>
72
> <PUBCHEM_ATOM_DEF_STEREO_COUNT>
8
> <PUBCHEM_ATOM_UDEF_STEREO_COUNT>
2
> <PUBCHEM_BOND_DEF_STEREO_COUNT>
0
> <PUBCHEM_BOND_UDEF_STEREO_COUNT>
0
> <PUBCHEM_ISOTOPIC_ATOM_COUNT>
0
> <PUBCHEM_COMPONENT_COUNT>
1
> <PUBCHEM_CACTVS_TAUTO_COUNT>
-1
> <PUBCHEM_COORDINATE_TYPE>
1
5
255
> <PUBCHEM_BONDANNOTATIONS>
44  10  6
41  16  6
18  64  8
18  72  8
19  73  5
20  74  5
23  25  3
22  3  3
32  40  5
39  38  5
47  51  8
47  57  8
21  5  6
51  61  8
53  62  8
53  64  8
56  66  8
56  67  8
57  63  8
61  65  8
62  68  8
63  65  8
66  69  8
67  70  8
68  72  8
69  71  8
70  71  8
36  8  5
$$$$
