500830
  -OEChem-10302200282D
 94 99  0     1  0  0  0  0  0999 V2000
   12.8249   -0.8298    0.0000 O   0  0  0  0  0  0  0  0  0  0  0  0
   11.4236    0.1883    0.0000 O   0  0  0  0  0  0  0  0  0  0  0  0
    6.3981   -1.2481    0.0000 O   0  0  0  0  0  0  0  0  0  0  0  0
   10.4291    0.2928    0.0000 O   0  0  0  0  0  0  0  0  0  0  0  0
    9.7480    1.4724    0.0000 O   0  0  0  0  0  0  0  0  0  0  0  0
    6.9902    3.7950    0.0000 O   0  0  0  0  0  0  0  0  0  0  0  0
    5.5889    2.7769    0.0000 O   0  0  0  0  0  0  0  0  0  0  0  0
    2.8680   -4.2722    0.0000 O   0  0  0  0  0  0  0  0  0  0  0  0
   10.2480   -1.4298    0.0000 N   0  0  0  0  0  0  0  0  0  0  0  0
    8.3468    0.4543    0.0000 N   0  0  0  0  0  0  0  0  0  0  0  0
    7.1712    2.0724    0.0000 N   0  0  0  0  0  0  0  0  0  0  0  0
    6.3981   -4.2481    0.0000 N   0  0  0  0  0  0  0  0  0  0  0  0
   11.2426   -1.5343    0.0000 C   0  0  3  0  0  0  0  0  0  0  0  0
   11.1380   -2.5288    0.0000 C   0  0  2  0  0  0  0  0  0  0  0  0
   12.0516   -2.1221    0.0000 C   0  0  0  0  0  0  0  0  0  0  0  0
   11.8303   -0.7253    0.0000 C   0  0  0  0  0  0  0  0  0  0  0  0
   10.5502   -3.3378    0.0000 C   0  0  0  0  0  0  0  0  0  0  0  0
    8.8468   -0.4117    0.0000 C   0  0  2  0  0  0  0  0  0  0  0  0
    9.8413   -0.5162    0.0000 C   0  0  0  0  0  0  0  0  0  0  0  0
    8.1776   -1.1548    0.0000 C   0  0  0  0  0  0  0  0  0  0  0  0
    7.2641   -0.7481    0.0000 C   0  0  2  0  0  0  0  0  0  0  0  0
    7.3686    0.2464    0.0000 C   0  0  0  0  0  0  0  0  0  0  0  0
    8.7535    1.3679    0.0000 C   0  0  0  0  0  0  0  0  0  0  0  0
    8.1657    2.1769    0.0000 C   0  0  2  0  0  0  0  0  0  0  0  0
   10.9570   -4.2514    0.0000 C   0  0  0  0  0  0  0  0  0  0  0  0
    8.5725    3.0905    0.0000 C   0  0  0  0  0  0  0  0  0  0  0  0
    8.9792    4.0040    0.0000 C   0  0  0  0  0  0  0  0  0  0  0  0
    7.6589    3.4972    0.0000 C   0  0  0  0  0  0  0  0  0  0  0  0
    9.4860    2.6837    0.0000 C   0  0  0  0  0  0  0  0  0  0  0  0
    6.4024    4.6040    0.0000 C   0  0  0  0  0  0  0  0  0  0  0  0
    6.3981   -2.2481    0.0000 C   0  0  0  0  0  0  0  0  0  0  0  0
    6.5588    5.5916    0.0000 C   0  0  0  0  0  0  0  0  0  0  0  0
    5.4147    4.7604    0.0000 C   0  0  0  0  0  0  0  0  0  0  0  0
    5.5711    5.7481    0.0000 C   0  0  0  0  0  0  0  0  0  0  0  0
    6.5834    2.8814    0.0000 C   0  0  0  0  0  0  0  0  0  0  0  0
    5.5320   -2.7481    0.0000 C   0  0  0  0  0  0  0  0  0  0  0  0
    7.2641   -2.7481    0.0000 C   0  0  0  0  0  0  0  0  0  0  0  0
    5.5320   -3.7481    0.0000 C   0  0  0  0  0  0  0  0  0  0  0  0
    7.2641   -3.7481    0.0000 C   0  0  0  0  0  0  0  0  0  0  0  0
    4.6381   -2.2134    0.0000 C   0  0  0  0  0  0  0  0  0  0  0  0
    4.6381   -4.2828    0.0000 C   0  0  0  0  0  0  0  0  0  0  0  0
    3.7320   -2.7273    0.0000 C   0  0  0  0  0  0  0  0  0  0  0  0
    8.1301   -4.2481    0.0000 C   0  0  0  0  0  0  0  0  0  0  0  0
    3.7320   -3.7689    0.0000 C   0  0  0  0  0  0  0  0  0  0  0  0
    8.1301   -5.2481    0.0000 C   0  0  0  0  0  0  0  0  0  0  0  0
    8.9962   -3.7481    0.0000 C   0  0  0  0  0  0  0  0  0  0  0  0
    8.9962   -5.7481    0.0000 C   0  0  0  0  0  0  0  0  0  0  0  0
    9.8622   -4.2481    0.0000 C   0  0  0  0  0  0  0  0  0  0  0  0
    9.8622   -5.2481    0.0000 C   0  0  0  0  0  0  0  0  0  0  0  0
    2.0000   -3.7756    0.0000 C   0  0  0  0  0  0  0  0  0  0  0  0
   10.5592   -2.3066    0.0000 H   0  0  0  0  0  0  0  0  0  0  0  0
   12.3983   -2.6361    0.0000 H   0  0  0  0  0  0  0  0  0  0  0  0
   12.4976   -1.6914    0.0000 H   0  0  0  0  0  0  0  0  0  0  0  0
    9.8836   -1.9313    0.0000 H   0  0  0  0  0  0  0  0  0  0  0  0
    9.9336   -3.2730    0.0000 H   0  0  0  0  0  0  0  0  0  0  0  0
    9.1844    0.1083    0.0000 H   0  0  0  0  0  0  0  0  0  0  0  0
    7.8676   -1.6918    0.0000 H   0  0  0  0  0  0  0  0  0  0  0  0
    8.6792   -1.5192    0.0000 H   0  0  0  0  0  0  0  0  0  0  0  0
    6.7441   -0.4104    0.0000 H   0  0  0  0  0  0  0  0  0  0  0  0
    7.3038    0.8630    0.0000 H   0  0  0  0  0  0  0  0  0  0  0  0
    6.7486    0.2464    0.0000 H   0  0  0  0  0  0  0  0  0  0  0  0
    7.8013    2.6785    0.0000 H   0  0  0  0  0  0  0  0  0  0  0  0
   10.5926   -4.7530    0.0000 H   0  0  0  0  0  0  0  0  0  0  0  0
   11.5736   -4.3162    0.0000 H   0  0  0  0  0  0  0  0  0  0  0  0
   13.1893   -0.3282    0.0000 H   0  0  0  0  0  0  0  0  0  0  0  0
    6.9190    1.5060    0.0000 H   0  0  0  0  0  0  0  0  0  0  0  0
    9.5456    3.7518    0.0000 H   0  0  0  0  0  0  0  0  0  0  0  0
    9.2314    4.5704    0.0000 H   0  0  0  0  0  0  0  0  0  0  0  0
    8.4128    4.2562    0.0000 H   0  0  0  0  0  0  0  0  0  0  0  0
    7.9111    4.0636    0.0000 H   0  0  0  0  0  0  0  0  0  0  0  0
    7.0925    3.7494    0.0000 H   0  0  0  0  0  0  0  0  0  0  0  0
    7.4067    2.9308    0.0000 H   0  0  0  0  0  0  0  0  0  0  0  0
    9.2338    2.1173    0.0000 H   0  0  0  0  0  0  0  0  0  0  0  0
   10.0524    2.4315    0.0000 H   0  0  0  0  0  0  0  0  0  0  0  0
    9.7382    3.2501    0.0000 H   0  0  0  0  0  0  0  0  0  0  0  0
    6.0784    4.0753    0.0000 H   0  0  0  0  0  0  0  0  0  0  0  0
    7.1712    5.4947    0.0000 H   0  0  0  0  0  0  0  0  0  0  0  0
    6.6558    6.2040    0.0000 H   0  0  0  0  0  0  0  0  0  0  0  0
    4.8023    4.8574    0.0000 H   0  0  0  0  0  0  0  0  0  0  0  0
    5.3177    4.1480    0.0000 H   0  0  0  0  0  0  0  0  0  0  0  0
    5.6681    6.3604    0.0000 H   0  0  0  0  0  0  0  0  0  0  0  0
    4.9588    5.8451    0.0000 H   0  0  0  0  0  0  0  0  0  0  0  0
    7.8010   -2.4381    0.0000 H   0  0  0  0  0  0  0  0  0  0  0  0
    4.6453   -1.5935    0.0000 H   0  0  0  0  0  0  0  0  0  0  0  0
    4.6453   -4.9027    0.0000 H   0  0  0  0  0  0  0  0  0  0  0  0
    3.1963   -2.4152    0.0000 H   0  0  0  0  0  0  0  0  0  0  0  0
    7.5932   -5.5581    0.0000 H   0  0  0  0  0  0  0  0  0  0  0  0
    8.9962   -3.1281    0.0000 H   0  0  0  0  0  0  0  0  0  0  0  0
    8.9962   -6.3681    0.0000 H   0  0  0  0  0  0  0  0  0  0  0  0
   10.3991   -3.9381    0.0000 H   0  0  0  0  0  0  0  0  0  0  0  0
   10.3991   -5.5581    0.0000 H   0  0  0  0  0  0  0  0  0  0  0  0
    2.3079   -3.2374    0.0000 H   0  0  0  0  0  0  0  0  0  0  0  0
    1.4619   -3.4676    0.0000 H   0  0  0  0  0  0  0  0  0  0  0  0
    1.6921   -4.3137    0.0000 H   0  0  0  0  0  0  0  0  0  0  0  0
  1 16  1  0  0  0  0
  1 65  1  0  0  0  0
  2 16  2  0  0  0  0
 21  3  1  1  0  0  0
  3 31  1  0  0  0  0
  4 19  2  0  0  0  0
  5 23  2  0  0  0  0
  6 30  1  0  0  0  0
  6 35  1  0  0  0  0
  7 35  2  0  0  0  0
  8 44  1  0  0  0  0
  8 50  1  0  0  0  0
  9 13  1  0  0  0  0
  9 19  1  0  0  0  0
  9 54  1  0  0  0  0
 10 18  1  0  0  0  0
 10 22  1  0  0  0  0
 10 23  1  0  0  0  0
 24 11  1  1  0  0  0
 11 35  1  0  0  0  0
 11 66  1  0  0  0  0
 12 38  1  0  0  0  0
 12 39  2  0  0  0  0
 13 14  1  0  0  0  0
 13 15  1  0  0  0  0
 13 16  1  0  0  0  0
 14 15  1  0  0  0  0
 14 17  1  6  0  0  0
 14 51  1  0  0  0  0
 15 52  1  0  0  0  0
 15 53  1  0  0  0  0
 17 25  2  0  0  0  0
 17 55  1  0  0  0  0
 18 19  1  6  0  0  0
 18 20  1  0  0  0  0
 18 56  1  0  0  0  0
 20 21  1  0  0  0  0
 20 57  1  0  0  0  0
 20 58  1  0  0  0  0
 21 22  1  0  0  0  0
 21 59  1  0  0  0  0
 22 60  1  0  0  0  0
 22 61  1  0  0  0  0
 23 24  1  0  0  0  0
 24 26  1  0  0  0  0
 24 62  1  0  0  0  0
 25 63  1  0  0  0  0
 25 64  1  0  0  0  0
 26 27  1  0  0  0  0
 26 28  1  0  0  0  0
 26 29  1  0  0  0  0
 27 67  1  0  0  0  0
 27 68  1  0  0  0  0
 27 69  1  0  0  0  0
 28 70  1  0  0  0  0
 28 71  1  0  0  0  0
 28 72  1  0  0  0  0
 29 73  1  0  0  0  0
 29 74  1  0  0  0  0
 29 75  1  0  0  0  0
 30 32  1  0  0  0  0
 30 33  1  0  0  0  0
 30 76  1  0  0  0  0
 31 36  1  0  0  0  0
 31 37  2  0  0  0  0
 32 34  1  0  0  0  0
 32 77  1  0  0  0  0
 32 78  1  0  0  0  0
 33 34  1  0  0  0  0
 33 79  1  0  0  0  0
 33 80  1  0  0  0  0
 34 81  1  0  0  0  0
 34 82  1  0  0  0  0
 36 38  2  0  0  0  0
 36 40  1  0  0  0  0
 37 39  1  0  0  0  0
 37 83  1  0  0  0  0
 38 41  1  0  0  0  0
 39 43  1  0  0  0  0
 40 42  2  0  0  0  0
 40 84  1  0  0  0  0
 41 44  2  0  0  0  0
 41 85  1  0  0  0  0
 42 44  1  0  0  0  0
 42 86  1  0  0  0  0
 43 45  2  0  0  0  0
 43 46  1  0  0  0  0
 45 47  1  0  0  0  0
 45 87  1  0  0  0  0
 46 48  2  0  0  0  0
 46 88  1  0  0  0  0
 47 49  2  0  0  0  0
 47 89  1  0  0  0  0
 48 49  1  0  0  0  0
 48 90  1  0  0  0  0
 49 91  1  0  0  0  0
 50 92  1  0  0  0  0
 50 93  1  0  0  0  0
 50 94  1  0  0  0  0
M  END
> <PUBCHEM_COMPOUND_CID>
500830
> <PUBCHEM_COMPOUND_CANONICALIZED>
1
> <PUBCHEM_CACTVS_COMPLEXITY>
1280
> <PUBCHEM_CACTVS_HBOND_ACCEPTOR>
9
> <PUBCHEM_CACTVS_HBOND_DONOR>
3
> <PUBCHEM_CACTVS_ROTATABLE_BOND>
13
> <PUBCHEM_CACTVS_SUBSKEYS>
AAADcfB/vAAAAAAAAAAAAAAAGABgAWAAAAA8YIAAAAAAAACx9AAAHgAQCAAAD7zhngYyzvPIFgCoAyXyXACCiCAhIiAImKG+bJkOZvLEsbufeCjm1hnY6Ae68e8PIAAAAgACAABAAAAEAAQAAAAAAAAAAA==
> <PUBCHEM_IUPAC_OPENEYE_NAME>
(2R)-1-[[(2S,4R)-1-[(2S)-2-(cyclobutoxycarbonylamino)-3,3-dimethyl-butanoyl]-4-[(7-methoxy-2-phenyl-4-quinolyl)oxy]pyrrolidine-2-carbonyl]amino]-2-vinyl-cyclopropanecarboxylic acid
> <PUBCHEM_IUPAC_CAS_NAME>
(2R)-1-[[[(2S,4R)-1-[(2S)-2-[[cyclobutyloxy(oxo)methyl]amino]-3,3-dimethyl-1-oxobutyl]-4-[(7-methoxy-2-phenyl-4-quinolinyl)oxy]-2-pyrrolidinyl]-oxomethyl]amino]-2-ethenyl-1-cyclopropanecarboxylic acid
> <PUBCHEM_IUPAC_NAME_MARKUP>
(2<I>R</I>)-1-[[(2<I>S</I>,4<I>R</I>)-1-[(2<I>S</I>)-2-(cyclobutyloxycarbonylamino)-3,3-dimethylbutanoyl]-4-(7-methoxy-2-phenylquinolin-4-yl)oxypyrrolidine-2-carbonyl]amino]-2-ethenylcyclopropane-1-carboxylic acid
> <PUBCHEM_IUPAC_NAME>
(2R)-1-[[(2S,4R)-1-[(2S)-2-(cyclobutyloxycarbonylamino)-3,3-dimethylbutanoyl]-4-(7-methoxy-2-phenylquinolin-4-yl)oxypyrrolidine-2-carbonyl]amino]-2-ethenylcyclopropane-1-carboxylic acid
> <PUBCHEM_IUPAC_SYSTEMATIC_NAME>
(2R)-1-[[(2S,4R)-1-[(2S)-2-(cyclobutyloxycarbonylamino)-3,3-dimethyl-butanoyl]-4-(7-methoxy-2-phenyl-quinolin-4-yl)oxy-pyrrolidin-2-yl]carbonylamino]-2-ethenyl-cyclopropane-1-carboxylic acid
> <PUBCHEM_IUPAC_TRADITIONAL_NAME>
(2R)-1-[[(2S,4R)-1-[(2S)-2-(cyclobutoxycarbonylamino)-3,3-dimethyl-butanoyl]-4-[(7-methoxy-2-phenyl-4-quinolyl)oxy]prolyl]amino]-2-vinyl-cyclopropanecarboxylic acid
> <PUBCHEM_IUPAC_INCHI>
InChI=1S/C38H44N4O8/c1-6-23-20-38(23,35(45)46)41-33(43)30-18-26(21-42(30)34(44)32(37(2,3)4)40-36(47)50-24-13-10-14-24)49-31-19-28(22-11-8-7-9-12-22)39-29-17-25(48-5)15-16-27(29)31/h6-9,11-12,15-17,19,23-24,26,30,32H,1,10,13-14,18,20-21H2,2-5H3,(H,40,47)(H,41,43)(H,45,46)/t23-,26+,30-,32+,38?/m0/s1
> <PUBCHEM_IUPAC_INCHIKEY>
GWKXQVOPBODZOQ-AGAPSYDSSA-N
> <PUBCHEM_XLOGP3_AA>
5.8
> <PUBCHEM_EXACT_MASS>
684.31591437
> <PUBCHEM_MOLECULAR_FORMULA>
C38H44N4O8
> <PUBCHEM_MOLECULAR_WEIGHT>
684.8
> <PUBCHEM_OPENEYE_CAN_SMILES>
CC(C)(C)C(C(=O)N1CC(CC1C(=O)NC2(CC2C=C)C(=O)O)OC3=CC(=NC4=C3C=CC(=C4)OC)C5=CC=CC=C5)NC(=O)OC6CCC6
> <PUBCHEM_OPENEYE_ISO_SMILES>
CC(C)(C)[C@@H](C(=O)N1C[C@@H](C[C@H]1C(=O)NC2(C[C@@H]2C=C)C(=O)O)OC3=CC(=NC4=C3C=CC(=C4)OC)C5=CC=CC=C5)NC(=O)OC6CCC6
> <PUBCHEM_CACTVS_TPSA>
156
> <PUBCHEM_MONOISOTOPIC_WEIGHT>
684.31591437
> <PUBCHEM_TOTAL_CHARGE>
0
> <PUBCHEM_HEAVY_ATOM_COUNT>
50
> <PUBCHEM_ATOM_DEF_STEREO_COUNT>
4
> <PUBCHEM_ATOM_UDEF_STEREO_COUNT>
1
> <PUBCHEM_BOND_DEF_STEREO_COUNT>
0
> <PUBCHEM_BOND_UDEF_STEREO_COUNT>
0
> <PUBCHEM_ISOTOPIC_ATOM_COUNT>
0
> <PUBCHEM_COMPONENT_COUNT>
1
> <PUBCHEM_CACTVS_TAUTO_COUNT>
-1
> <PUBCHEM_COORDINATE_TYPE>
1
5
255
> <PUBCHEM_BONDANNOTATIONS>
24  11  5
12  38  8
12  39  8
13  16  3
14  17  6
18  19  6
21  3  5
31  36  8
31  37  8
36  38  8
36  40  8
37  39  8
38  41  8
40  42  8
41  44  8
42  44  8
43  45  8
43  46  8
45  47  8
46  48  8
47  49  8
48  49  8
$$$$
