500854
  -OEChem-10302200282D
167172  0     1  0  0  0  0  0999 V2000
    8.1771    1.7320    0.0000 F   0  0  0  0  0  0  0  0  0  0  0  0
    7.8111    0.3660    0.0000 F   0  0  0  0  0  0  0  0  0  0  0  0
    9.1771    0.0000    0.0000 F   0  0  0  0  0  0  0  0  0  0  0  0
    8.1771    6.1064    0.0000 F   0  0  0  0  0  0  0  0  0  0  0  0
    7.8111    4.7404    0.0000 F   0  0  0  0  0  0  0  0  0  0  0  0
    9.1771    4.3744    0.0000 F   0  0  0  0  0  0  0  0  0  0  0  0
    8.7378   15.8236    0.0000 O   0  0  0  0  0  0  0  0  0  0  0  0
   10.4698   18.8236    0.0000 O   0  0  0  0  0  0  0  0  0  0  0  0
    1.9589   12.4872    0.0000 O   0  0  0  0  0  0  0  0  0  0  0  0
    3.9319   10.9669    0.0000 O   0  0  0  0  0  0  0  0  0  0  0  0
    2.3576   10.6322    0.0000 O   0  0  0  0  0  0  0  0  0  0  0  0
    1.5066   14.6152    0.0000 O   0  0  0  0  0  0  0  0  0  0  0  0
    4.4076   13.3236    0.0000 O   0  0  0  0  0  0  0  0  0  0  0  0
    2.5893   15.8176    0.0000 O   0  0  0  0  0  0  0  0  0  0  0  0
    9.6038   14.3236    0.0000 O   0  0  0  0  0  0  0  0  0  0  0  0
   10.4698   17.8236    0.0000 O   0  0  0  0  0  0  0  0  0  0  0  0
    5.2736   11.8236    0.0000 O   0  0  0  0  0  0  0  0  0  0  0  0
   13.9339   18.8236    0.0000 O   0  0  0  0  0  0  0  0  0  0  0  0
   13.0679   15.5915    0.0000 O   0  0  0  0  0  0  0  0  0  0  0  0
   10.4091    0.8660    0.0000 O   0  0  0  0  0  0  0  0  0  0  0  0
   10.4091    5.2404    0.0000 O   0  0  0  0  0  0  0  0  0  0  0  0
    9.5431    2.3660    0.0000 O   0  0  0  0  0  0  0  0  0  0  0  0
    9.5431    6.7404    0.0000 O   0  0  0  0  0  0  0  0  0  0  0  0
    8.7378   17.8236    0.0000 N   0  0  3  0  0  0  0  0  0  0  0  0
    9.6038   20.3236    0.0000 N   0  0  0  0  0  0  0  0  0  0  0  0
   11.3358   16.3236    0.0000 N   0  0  0  0  0  0  0  0  0  0  0  0
   13.0679   17.3236    0.0000 N   0  0  0  0  0  0  0  0  0  0  0  0
   13.0679   20.3236    0.0000 N   0  0  0  0  0  0  0  0  0  0  0  0
   15.0679   15.5915    0.0000 N   0  0  0  0  0  0  0  0  0  0  0  0
    7.0057   18.8236    0.0000 C   0  0  3  0  0  0  0  0  0  0  0  0
    7.0057   17.8236    0.0000 C   0  0  3  0  0  0  0  0  0  0  0  0
    7.8717   19.3236    0.0000 C   0  0  0  0  0  0  0  0  0  0  0  0
    7.8717   17.3236    0.0000 C   0  0  0  0  0  0  0  0  0  0  0  0
    6.1118   19.3582    0.0000 C   0  0  0  0  0  0  0  0  0  0  0  0
    6.1118   17.2889    0.0000 C   0  0  0  0  0  0  0  0  0  0  0  0
    8.7378   18.8236    0.0000 C   0  0  1  0  0  0  0  0  0  0  0  0
    5.2057   18.8444    0.0000 C   0  0  0  0  0  0  0  0  0  0  0  0
    5.2057   17.8028    0.0000 C   0  0  0  0  0  0  0  0  0  0  0  0
    9.6038   17.3236    0.0000 C   0  0  0  0  0  0  0  0  0  0  0  0
    9.6038   19.3236    0.0000 C   0  0  0  0  0  0  0  0  0  0  0  0
    9.6038   16.3236    0.0000 C   0  0  2  0  0  0  0  0  0  0  0  0
   10.4698   15.8236    0.0000 C   0  0  2  0  0  0  0  0  0  0  0  0
   10.4698   20.8236    0.0000 C   0  0  0  0  0  0  0  0  0  0  0  0
   10.4698   14.8236    0.0000 C   0  0  0  0  0  0  0  0  0  0  0  0
    3.4371   11.8291    0.0000 C   0  0  1  0  0  0  0  0  0  0  0  0
    2.6280   13.2303    0.0000 C   0  0  1  0  0  0  0  0  0  0  0  0
    3.5416   12.8236    0.0000 C   0  0  2  0  0  0  0  0  0  0  0  0
    2.4589   11.6211    0.0000 C   0  0  3  0  0  0  0  0  0  0  0  0
    2.4201   14.2085    0.0000 C   0  0  3  0  0  0  0  0  0  0  0  0
   11.3358   21.3236    0.0000 C   0  0  0  0  0  0  0  0  0  0  0  0
    9.9698   21.6896    0.0000 C   0  0  0  0  0  0  0  0  0  0  0  0
   10.9698   19.9576    0.0000 C   0  0  0  0  0  0  0  0  0  0  0  0
    3.2661   10.2287    0.0000 C   0  0  0  0  0  0  0  0  0  0  0  0
    8.7378   14.8236    0.0000 C   0  0  0  0  0  0  0  0  0  0  0  0
   11.3358   14.3236    0.0000 C   0  0  0  0  0  0  0  0  0  0  0  0
    3.0893   14.9516    0.0000 C   0  0  0  0  0  0  0  0  0  0  0  0
   11.3358   17.3236    0.0000 C   0  0  0  0  0  0  0  0  0  0  0  0
    1.6111   15.6097    0.0000 C   0  0  0  0  0  0  0  0  0  0  0  0
    7.8717   14.3236    0.0000 C   0  0  0  0  0  0  0  0  0  0  0  0
    2.8593    9.3152    0.0000 C   0  0  0  0  0  0  0  0  0  0  0  0
    4.0092    9.5596    0.0000 C   0  0  0  0  0  0  0  0  0  0  0  0
   12.2019   17.8236    0.0000 C   0  0  2  0  0  0  0  0  0  0  0  0
    7.8717   13.3236    0.0000 C   0  0  0  0  0  0  0  0  0  0  0  0
   11.3358   13.3236    0.0000 C   0  0  0  0  0  0  0  0  0  0  0  0
   12.2019   14.8236    0.0000 C   0  0  0  0  0  0  0  0  0  0  0  0
    5.2736   12.8236    0.0000 C   0  0  0  0  0  0  0  0  0  0  0  0
    0.6166   15.7142    0.0000 C   0  0  0  0  0  0  0  0  0  0  0  0
    1.4032   16.5879    0.0000 C   0  0  0  0  0  0  0  0  0  0  0  0
    7.0057   12.8236    0.0000 C   0  0  0  0  0  0  0  0  0  0  0  0
    6.1397   13.3236    0.0000 C   0  0  0  0  0  0  0  0  0  0  0  0
   12.2019   18.8236    0.0000 C   0  0  0  0  0  0  0  0  0  0  0  0
   12.2019   12.8236    0.0000 C   0  0  0  0  0  0  0  0  0  0  0  0
   13.0679   14.3236    0.0000 C   0  0  0  0  0  0  0  0  0  0  0  0
   13.0679   13.3236    0.0000 C   0  0  0  0  0  0  0  0  0  0  0  0
   13.0679   19.3236    0.0000 C   0  0  0  0  0  0  0  0  0  0  0  0
   13.5680   16.4576    0.0000 C   0  0  0  0  0  0  0  0  0  0  0  0
   14.5679   16.4576    0.0000 C   0  0  0  0  0  0  0  0  0  0  0  0
   15.0679   17.3236    0.0000 C   0  0  0  0  0  0  0  0  0  0  0  0
   16.0679   17.3236    0.0000 C   0  0  0  0  0  0  0  0  0  0  0  0
   16.0679   15.5915    0.0000 C   0  0  0  0  0  0  0  0  0  0  0  0
   16.5679   16.4576    0.0000 C   0  0  0  0  0  0  0  0  0  0  0  0
   16.5747   14.6815    0.0000 C   0  0  0  0  0  0  0  0  0  0  0  0
   17.6094   16.4736    0.0000 C   0  0  0  0  0  0  0  0  0  0  0  0
   17.6163   14.6735    0.0000 C   0  0  0  0  0  0  0  0  0  0  0  0
   18.1371   15.5756    0.0000 C   0  0  0  0  0  0  0  0  0  0  0  0
    8.6771    0.8660    0.0000 C   0  0  0  0  0  0  0  0  0  0  0  0
    8.6771    5.2404    0.0000 C   0  0  0  0  0  0  0  0  0  0  0  0
    9.5431    1.3660    0.0000 C   0  0  0  0  0  0  0  0  0  0  0  0
    9.5431    5.7404    0.0000 C   0  0  0  0  0  0  0  0  0  0  0  0
    7.0105   19.4436    0.0000 H   0  0  0  0  0  0  0  0  0  0  0  0
    7.0105   17.2036    0.0000 H   0  0  0  0  0  0  0  0  0  0  0  0
    8.2703   19.7985    0.0000 H   0  0  0  0  0  0  0  0  0  0  0  0
    7.4732   19.7985    0.0000 H   0  0  0  0  0  0  0  0  0  0  0  0
    7.4732   16.8486    0.0000 H   0  0  0  0  0  0  0  0  0  0  0  0
    8.2703   16.8486    0.0000 H   0  0  0  0  0  0  0  0  0  0  0  0
    6.5164   19.8280    0.0000 H   0  0  0  0  0  0  0  0  0  0  0  0
    5.7181   19.8373    0.0000 H   0  0  0  0  0  0  0  0  0  0  0  0
    5.7181   16.8099    0.0000 H   0  0  0  0  0  0  0  0  0  0  0  0
    6.5164   16.8191    0.0000 H   0  0  0  0  0  0  0  0  0  0  0  0
    9.2747   18.5136    0.0000 H   0  0  0  0  0  0  0  0  0  0  0  0
    4.9966   19.4281    0.0000 H   0  0  0  0  0  0  0  0  0  0  0  0
    4.5948   18.7383    0.0000 H   0  0  0  0  0  0  0  0  0  0  0  0
    4.5948   17.9089    0.0000 H   0  0  0  0  0  0  0  0  0  0  0  0
    4.9966   17.2191    0.0000 H   0  0  0  0  0  0  0  0  0  0  0  0
   10.2144   17.2159    0.0000 H   0  0  0  0  0  0  0  0  0  0  0  0
    9.8158   17.9062    0.0000 H   0  0  0  0  0  0  0  0  0  0  0  0
    9.0668   16.6336    0.0000 H   0  0  0  0  0  0  0  0  0  0  0  0
   11.0067   15.5136    0.0000 H   0  0  0  0  0  0  0  0  0  0  0  0
    9.0668   20.6336    0.0000 H   0  0  0  0  0  0  0  0  0  0  0  0
    9.8592   14.9312    0.0000 H   0  0  0  0  0  0  0  0  0  0  0  0
   10.2577   14.2410    0.0000 H   0  0  0  0  0  0  0  0  0  0  0  0
    4.2687   12.0047    0.0000 H   0  0  0  0  0  0  0  0  0  0  0  0
    1.8070   13.4503    0.0000 H   0  0  0  0  0  0  0  0  0  0  0  0
    4.0616   12.4859    0.0000 H   0  0  0  0  0  0  0  0  0  0  0  0
   11.8728   16.0136    0.0000 H   0  0  0  0  0  0  0  0  0  0  0  0
    1.8526   11.4915    0.0000 H   0  0  0  0  0  0  0  0  0  0  0  0
    1.9383   13.8183    0.0000 H   0  0  0  0  0  0  0  0  0  0  0  0
   11.6458   20.7866    0.0000 H   0  0  0  0  0  0  0  0  0  0  0  0
   11.8728   21.6336    0.0000 H   0  0  0  0  0  0  0  0  0  0  0  0
   11.0258   21.8605    0.0000 H   0  0  0  0  0  0  0  0  0  0  0  0
   10.5067   21.9996    0.0000 H   0  0  0  0  0  0  0  0  0  0  0  0
    9.6598   22.2265    0.0000 H   0  0  0  0  0  0  0  0  0  0  0  0
    9.4329   21.3796    0.0000 H   0  0  0  0  0  0  0  0  0  0  0  0
   10.4329   19.6476    0.0000 H   0  0  0  0  0  0  0  0  0  0  0  0
   11.2798   19.4206    0.0000 H   0  0  0  0  0  0  0  0  0  0  0  0
   11.5067   20.2676    0.0000 H   0  0  0  0  0  0  0  0  0  0  0  0
    3.5041   14.4909    0.0000 H   0  0  0  0  0  0  0  0  0  0  0  0
    3.5909   15.3160    0.0000 H   0  0  0  0  0  0  0  0  0  0  0  0
    7.6597   14.9062    0.0000 H   0  0  0  0  0  0  0  0  0  0  0  0
    7.2612   14.2159    0.0000 H   0  0  0  0  0  0  0  0  0  0  0  0
    2.2929    9.5673    0.0000 H   0  0  0  0  0  0  0  0  0  0  0  0
    2.6072    8.7488    0.0000 H   0  0  0  0  0  0  0  0  0  0  0  0
    3.4257    9.0630    0.0000 H   0  0  0  0  0  0  0  0  0  0  0  0
    3.5944    9.0988    0.0000 H   0  0  0  0  0  0  0  0  0  0  0  0
    4.4700    9.1447    0.0000 H   0  0  0  0  0  0  0  0  0  0  0  0
    4.4241   10.0203    0.0000 H   0  0  0  0  0  0  0  0  0  0  0  0
   12.2019   17.2036    0.0000 H   0  0  0  0  0  0  0  0  0  0  0  0
    8.0838   12.7410    0.0000 H   0  0  0  0  0  0  0  0  0  0  0  0
    8.4823   13.4312    0.0000 H   0  0  0  0  0  0  0  0  0  0  0  0
   10.7989   13.0136    0.0000 H   0  0  0  0  0  0  0  0  0  0  0  0
   12.2019   15.4436    0.0000 H   0  0  0  0  0  0  0  0  0  0  0  0
    0.6814   16.3309    0.0000 H   0  0  0  0  0  0  0  0  0  0  0  0
    0.0000   15.7791    0.0000 H   0  0  0  0  0  0  0  0  0  0  0  0
    0.5518   15.0976    0.0000 H   0  0  0  0  0  0  0  0  0  0  0  0
    2.0097   16.7168    0.0000 H   0  0  0  0  0  0  0  0  0  0  0  0
    1.2743   17.1943    0.0000 H   0  0  0  0  0  0  0  0  0  0  0  0
    0.7968   16.4590    0.0000 H   0  0  0  0  0  0  0  0  0  0  0  0
    6.6072   12.3486    0.0000 H   0  0  0  0  0  0  0  0  0  0  0  0
    7.4042   12.3486    0.0000 H   0  0  0  0  0  0  0  0  0  0  0  0
    6.5382   13.7985    0.0000 H   0  0  0  0  0  0  0  0  0  0  0  0
    5.7412   13.7985    0.0000 H   0  0  0  0  0  0  0  0  0  0  0  0
   11.9898   19.4062    0.0000 H   0  0  0  0  0  0  0  0  0  0  0  0
   11.5913   18.7159    0.0000 H   0  0  0  0  0  0  0  0  0  0  0  0
   12.2019   12.2036    0.0000 H   0  0  0  0  0  0  0  0  0  0  0  0
   13.6048   14.6336    0.0000 H   0  0  0  0  0  0  0  0  0  0  0  0
   13.6048   17.6336    0.0000 H   0  0  0  0  0  0  0  0  0  0  0  0
   13.6048   13.0136    0.0000 H   0  0  0  0  0  0  0  0  0  0  0  0
   13.6048   20.6336    0.0000 H   0  0  0  0  0  0  0  0  0  0  0  0
   12.5309   20.6336    0.0000 H   0  0  0  0  0  0  0  0  0  0  0  0
   14.7579   17.8605    0.0000 H   0  0  0  0  0  0  0  0  0  0  0  0
   16.3779   17.8605    0.0000 H   0  0  0  0  0  0  0  0  0  0  0  0
   16.2585   14.1482    0.0000 H   0  0  0  0  0  0  0  0  0  0  0  0
   17.9132   17.0141    0.0000 H   0  0  0  0  0  0  0  0  0  0  0  0
   17.9243   14.1354    0.0000 H   0  0  0  0  0  0  0  0  0  0  0  0
   18.7571   15.5780    0.0000 H   0  0  0  0  0  0  0  0  0  0  0  0
   10.9461    1.1760    0.0000 H   0  0  0  0  0  0  0  0  0  0  0  0
   10.9461    5.5504    0.0000 H   0  0  0  0  0  0  0  0  0  0  0  0
  1 86  1  0  0  0  0
  2 86  1  0  0  0  0
  3 86  1  0  0  0  0
  4 87  1  0  0  0  0
  5 87  1  0  0  0  0
  6 87  1  0  0  0  0
 41  7  1  6  0  0  0
  7 54  1  0  0  0  0
  8 40  2  0  0  0  0
  9 46  1  0  0  0  0
  9 48  1  0  0  0  0
 10 45  1  0  0  0  0
 10 53  1  0  0  0  0
 11 48  1  0  0  0  0
 11 53  1  0  0  0  0
 12 49  1  0  0  0  0
 12 58  1  0  0  0  0
 47 13  1  6  0  0  0
 13 66  1  0  0  0  0
 14 56  1  0  0  0  0
 14 58  1  0  0  0  0
 15 54  2  0  0  0  0
 16 57  2  0  0  0  0
 17 66  2  0  0  0  0
 18 75  2  0  0  0  0
 19 76  2  0  0  0  0
 20 88  1  0  0  0  0
 20166  1  0  0  0  0
 21 89  1  0  0  0  0
 21167  1  0  0  0  0
 22 88  2  0  0  0  0
 23 89  2  0  0  0  0
 24 33  1  0  0  0  0
 24 36  1  0  0  0  0
 24 39  1  0  0  0  0
 25 40  1  0  0  0  0
 25 43  1  0  0  0  0
 25109  1  0  0  0  0
 42 26  1  1  0  0  0
 26 57  1  0  0  0  0
 26115  1  0  0  0  0
 62 27  1  6  0  0  0
 27 76  1  0  0  0  0
 27156  1  0  0  0  0
 28 75  1  0  0  0  0
 28158  1  0  0  0  0
 28159  1  0  0  0  0
 29 77  2  0  0  0  0
 29 80  1  0  0  0  0
 30 31  1  0  0  0  0
 30 32  1  0  0  0  0
 30 34  1  0  0  0  0
 30 90  1  0  0  0  0
 31 33  1  0  0  0  0
 31 35  1  0  0  0  0
 31 91  1  0  0  0  0
 32 36  1  0  0  0  0
 32 92  1  0  0  0  0
 32 93  1  0  0  0  0
 33 94  1  0  0  0  0
 33 95  1  0  0  0  0
 34 37  1  0  0  0  0
 34 96  1  0  0  0  0
 34 97  1  0  0  0  0
 35 38  1  0  0  0  0
 35 98  1  0  0  0  0
 35 99  1  0  0  0  0
 36 40  1  1  0  0  0
 36100  1  0  0  0  0
 37 38  1  0  0  0  0
 37101  1  0  0  0  0
 37102  1  0  0  0  0
 38103  1  0  0  0  0
 38104  1  0  0  0  0
 39 41  1  0  0  0  0
 39105  1  0  0  0  0
 39106  1  0  0  0  0
 41 42  1  0  0  0  0
 41107  1  0  0  0  0
 42 44  1  0  0  0  0
 42108  1  0  0  0  0
 43 50  1  0  0  0  0
 43 51  1  0  0  0  0
 43 52  1  0  0  0  0
 44 55  1  0  0  0  0
 44110  1  0  0  0  0
 44111  1  0  0  0  0
 45 47  1  0  0  0  0
 45 48  1  0  0  0  0
 45112  1  1  0  0  0
 46 47  1  0  0  0  0
 46 49  1  0  0  0  0
 46113  1  1  0  0  0
 47114  1  0  0  0  0
 48116  1  0  0  0  0
 49 56  1  0  0  0  0
 49117  1  0  0  0  0
 50118  1  0  0  0  0
 50119  1  0  0  0  0
 50120  1  0  0  0  0
 51121  1  0  0  0  0
 51122  1  0  0  0  0
 51123  1  0  0  0  0
 52124  1  0  0  0  0
 52125  1  0  0  0  0
 52126  1  0  0  0  0
 53 60  1  0  0  0  0
 53 61  1  0  0  0  0
 54 59  1  0  0  0  0
 55 64  2  0  0  0  0
 55 65  1  0  0  0  0
 56127  1  0  0  0  0
 56128  1  0  0  0  0
 57 62  1  0  0  0  0
 58 67  1  0  0  0  0
 58 68  1  0  0  0  0
 59 63  1  0  0  0  0
 59129  1  0  0  0  0
 59130  1  0  0  0  0
 60131  1  0  0  0  0
 60132  1  0  0  0  0
 60133  1  0  0  0  0
 61134  1  0  0  0  0
 61135  1  0  0  0  0
 61136  1  0  0  0  0
 62 71  1  0  0  0  0
 62137  1  0  0  0  0
 63 69  1  0  0  0  0
 63138  1  0  0  0  0
 63139  1  0  0  0  0
 64 72  1  0  0  0  0
 64140  1  0  0  0  0
 65 73  2  0  0  0  0
 65141  1  0  0  0  0
 66 70  1  0  0  0  0
 67142  1  0  0  0  0
 67143  1  0  0  0  0
 67144  1  0  0  0  0
 68145  1  0  0  0  0
 68146  1  0  0  0  0
 68147  1  0  0  0  0
 69 70  1  0  0  0  0
 69148  1  0  0  0  0
 69149  1  0  0  0  0
 70150  1  0  0  0  0
 70151  1  0  0  0  0
 71 75  1  0  0  0  0
 71152  1  0  0  0  0
 71153  1  0  0  0  0
 72 74  2  0  0  0  0
 72154  1  0  0  0  0
 73 74  1  0  0  0  0
 73155  1  0  0  0  0
 74157  1  0  0  0  0
 76 77  1  0  0  0  0
 77 78  1  0  0  0  0
 78 79  2  0  0  0  0
 78160  1  0  0  0  0
 79 81  1  0  0  0  0
 79161  1  0  0  0  0
 80 81  1  0  0  0  0
 80 82  2  0  0  0  0
 81 83  2  0  0  0  0
 82 84  1  0  0  0  0
 82162  1  0  0  0  0
 83 85  1  0  0  0  0
 83163  1  0  0  0  0
 84 85  2  0  0  0  0
 84164  1  0  0  0  0
 85165  1  0  0  0  0
 86 88  1  0  0  0  0
 87 89  1  0  0  0  0
M  END
> <PUBCHEM_COMPOUND_CID>
500854
> <PUBCHEM_COMPOUND_CANONICALIZED>
1
> <PUBCHEM_CACTVS_COMPLEXITY>
2080
> <PUBCHEM_CACTVS_HBOND_ACCEPTOR>
25
> <PUBCHEM_CACTVS_HBOND_DONOR>
6
> <PUBCHEM_CACTVS_ROTATABLE_BOND>
23
> <PUBCHEM_CACTVS_SUBSKEYS>
AAADcfB/v8AAAAAAAAAAAAAAAAAAASJEgAA8eMECAAASAACx9AAAHwAQCAAADbzxnhcyyPPIFgCoAyXyXACCgCAnAiAImKG4ZNgbYPrA1bG3IQhllgDeyYfd6KyOgAAAAAACAAAAAAAAACQAAAAAAAAAAA==
> <PUBCHEM_IUPAC_OPENEYE_NAME>
O1-[(5R,6S,6aS)-5-(2,2-dimethyl-1,3-dioxolan-4-yl)-2,2-dimethyl-3a,5,6,6a-tetrahydrofuro[2,3-d][1,3]dioxol-6-yl] O6-[(1R,2S)-2-[[(2S)-4-amino-4-oxo-2-(quinoline-2-carbonylamino)butanoyl]amino]-1-[[(3S)-3-(tert-butylcarbamoyl)-3,4,4a,5,6,7,8,8a-octahydro-1H-isoquinolin-2-yl]methyl]-3-phenyl-propyl] hexanedioate;2,2,2-trifluoroacetic acid
> <PUBCHEM_IUPAC_CAS_NAME>
hexanedioic acid O1-[(5R,6S,6aS)-5-(2,2-dimethyl-1,3-dioxolan-4-yl)-2,2-dimethyl-3a,5,6,6a-tetrahydrofuro[2,3-d][1,3]dioxol-6-yl] ester O6-[(2R,3S)-3-[[(2S)-4-amino-1,4-dioxo-2-[[oxo(2-quinolinyl)methyl]amino]butyl]amino]-1-[(3S)-3-[(tert-butylamino)-oxomethyl]-3,4,4a,5,6,7,8,8a-octahydro-1H-isoquinolin-2-yl]-4-phenylbutan-2-yl] ester;2,2,2-trifluoroacetic acid
> <PUBCHEM_IUPAC_NAME_MARKUP>
1-<I>O</I>-[(5<I>R</I>,6<I>S</I>,6<I>a</I><I>S</I>)-5-(2,2-dimethyl-1,3-dioxolan-4-yl)-2,2-dimethyl-3<I>a</I>,5,6,6<I>a</I>-tetrahydrofuro[2,3-d][1,3]dioxol-6-yl] 6-<I>O</I>-[(2<I>R</I>,3<I>S</I>)-3-[[(2<I>S</I>)-4-amino-4-oxo-2-(quinoline-2-carbonylamino)butanoyl]amino]-1-[(3<I>S</I>)-3-(<I>tert</I>-butylcarbamoyl)-3,4,4<I>a</I>,5,6,7,8,8<I>a</I>-octahydro-1<I>H</I>-isoquinolin-2-yl]-4-phenylbutan-2-yl] hexanedioate;2,2,2-trifluoroacetic acid
> <PUBCHEM_IUPAC_NAME>
1-O-[(5R,6S,6aS)-5-(2,2-dimethyl-1,3-dioxolan-4-yl)-2,2-dimethyl-3a,5,6,6a-tetrahydrofuro[2,3-d][1,3]dioxol-6-yl] 6-O-[(2R,3S)-3-[[(2S)-4-amino-4-oxo-2-(quinoline-2-carbonylamino)butanoyl]amino]-1-[(3S)-3-(tert-butylcarbamoyl)-3,4,4a,5,6,7,8,8a-octahydro-1H-isoquinolin-2-yl]-4-phenylbutan-2-yl] hexanedioate;2,2,2-trifluoroacetic acid
> <PUBCHEM_IUPAC_SYSTEMATIC_NAME>
O1-[(5R,6S,6aS)-5-(2,2-dimethyl-1,3-dioxolan-4-yl)-2,2-dimethyl-3a,5,6,6a-tetrahydrofuro[2,3-d][1,3]dioxol-6-yl] O6-[(2R,3S)-3-[[(2S)-4-azanyl-4-oxidanylidene-2-(quinolin-2-ylcarbonylamino)butanoyl]amino]-1-[(3S)-3-(tert-butylcarbamoyl)-3,4,4a,5,6,7,8,8a-octahydro-1H-isoquinolin-2-yl]-4-phenyl-butan-2-yl] hexanedioate;2,2,2-tris(fluoranyl)ethanoic acid
> <PUBCHEM_IUPAC_TRADITIONAL_NAME>
adipic acid O1-[(5R,6S,6aS)-5-(2,2-dimethyl-1,3-dioxolan-4-yl)-2,2-dimethyl-3a,5,6,6a-tetrahydrofuro[2,3-d][1,3]dioxol-6-yl] ester O6-[(1R,2S)-2-[[(2S)-4-amino-4-keto-2-(quinaldoylamino)butanoyl]amino]-1-[[(3S)-3-(tert-butylcarbamoyl)-3,4,4a,5,6,7,8,8a-octahydro-1H-isoquinolin-2-yl]methyl]-3-phenyl-propyl] ester;2,2,2-trifluoroacetic acid
> <PUBCHEM_IUPAC_INCHI>
InChI=1S/C56H76N6O13.2C2HF3O2/c1-54(2,3)61-52(68)41-28-35-20-11-12-21-36(35)30-62(41)31-42(70-45(64)23-15-16-24-46(65)71-48-47(43-32-69-55(4,5)73-43)72-53-49(48)74-56(6,7)75-53)39(27-33-17-9-8-10-18-33)59-51(67)40(29-44(57)63)60-50(66)38-26-25-34-19-13-14-22-37(34)58-38;2*3-2(4,5)1(6)7/h8-10,13-14,17-19,22,25-26,35-36,39-43,47-49,53H,11-12,15-16,20-21,23-24,27-32H2,1-7H3,(H2,57,63)(H,59,67)(H,60,66)(H,61,68);2*(H,6,7)/t35?,36?,39-,40-,41-,42+,43?,47+,48-,49-,53?;;/m0../s1
> <PUBCHEM_IUPAC_INCHIKEY>
SAQDBLBOFGTEHT-SYKHTLGNSA-N
> <PUBCHEM_EXACT_MASS>
1268.53276401
> <PUBCHEM_MOLECULAR_FORMULA>
C60H78F6N6O17
> <PUBCHEM_MOLECULAR_WEIGHT>
1269.3
> <PUBCHEM_OPENEYE_CAN_SMILES>
CC1(OCC(O1)C2C(C3C(O2)OC(O3)(C)C)OC(=O)CCCCC(=O)OC(CN4CC5CCCCC5CC4C(=O)NC(C)(C)C)C(CC6=CC=CC=C6)NC(=O)C(CC(=O)N)NC(=O)C7=NC8=CC=CC=C8C=C7)C.C(=O)(C(F)(F)F)O.C(=O)(C(F)(F)F)O
> <PUBCHEM_OPENEYE_ISO_SMILES>
CC1(OCC(O1)[C@@H]2[C@@H]([C@H]3C(O2)OC(O3)(C)C)OC(=O)CCCCC(=O)O[C@H](CN4CC5CCCCC5C[C@H]4C(=O)NC(C)(C)C)[C@H](CC6=CC=CC=C6)NC(=O)[C@H](CC(=O)N)NC(=O)C7=NC8=CC=CC=C8C=C7)C.C(=O)(C(F)(F)F)O.C(=O)(C(F)(F)F)O
> <PUBCHEM_CACTVS_TPSA>
320
> <PUBCHEM_MONOISOTOPIC_WEIGHT>
1268.53276401
> <PUBCHEM_TOTAL_CHARGE>
0
> <PUBCHEM_HEAVY_ATOM_COUNT>
89
> <PUBCHEM_ATOM_DEF_STEREO_COUNT>
7
> <PUBCHEM_ATOM_UDEF_STEREO_COUNT>
4
> <PUBCHEM_BOND_DEF_STEREO_COUNT>
0
> <PUBCHEM_BOND_UDEF_STEREO_COUNT>
0
> <PUBCHEM_ISOTOPIC_ATOM_COUNT>
0
> <PUBCHEM_COMPONENT_COUNT>
3
> <PUBCHEM_CACTVS_TAUTO_COUNT>
-1
> <PUBCHEM_COORDINATE_TYPE>
1
5
255
> <PUBCHEM_BONDANNOTATIONS>
48  11  3
47  13  6
42  26  5
62  27  6
29  77  8
29  80  8
30  34  3
31  35  3
36  40  5
45  112  5
46  113  5
49  56  3
55  64  8
55  65  8
64  72  8
65  73  8
41  7  6
72  74  8
73  74  8
77  78  8
78  79  8
79  81  8
80  81  8
80  82  8
81  83  8
82  84  8
83  85  8
84  85  8
$$$$
