500851
  -OEChem-10302200282D
145152  0     1  0  0  0  0  0999 V2000
    8.3891    0.3212    0.0000 O   0  0  0  0  0  0  0  0  0  0  0  0
   10.1211    3.3212    0.0000 O   0  0  0  0  0  0  0  0  0  0  0  0
    3.3423   -3.0152    0.0000 O   0  0  0  0  0  0  0  0  0  0  0  0
    5.3153   -4.5355    0.0000 O   0  0  0  0  0  0  0  0  0  0  0  0
    3.7410   -4.8701    0.0000 O   0  0  0  0  0  0  0  0  0  0  0  0
    5.7910   -2.1788    0.0000 O   0  0  0  0  0  0  0  0  0  0  0  0
    2.8900   -0.8872    0.0000 O   0  0  0  0  0  0  0  0  0  0  0  0
    3.9727    0.3153    0.0000 O   0  0  0  0  0  0  0  0  0  0  0  0
    9.2551   -1.1788    0.0000 O   0  0  0  0  0  0  0  0  0  0  0  0
   10.1211    2.3212    0.0000 O   0  0  0  0  0  0  0  0  0  0  0  0
    6.6570   -3.6788    0.0000 O   0  0  0  0  0  0  0  0  0  0  0  0
   13.5852    3.3212    0.0000 O   0  0  0  0  0  0  0  0  0  0  0  0
   12.7193    0.0891    0.0000 O   0  0  0  0  0  0  0  0  0  0  0  0
    8.3891    2.3212    0.0000 N   0  0  3  0  0  0  0  0  0  0  0  0
    9.2551    4.8212    0.0000 N   0  0  0  0  0  0  0  0  0  0  0  0
   10.9872    0.8212    0.0000 N   0  0  0  0  0  0  0  0  0  0  0  0
   12.7192    1.8212    0.0000 N   0  0  0  0  0  0  0  0  0  0  0  0
   12.7192    4.8212    0.0000 N   0  0  0  0  0  0  0  0  0  0  0  0
   14.7192    0.0891    0.0000 N   0  0  0  0  0  0  0  0  0  0  0  0
    6.6570    3.3212    0.0000 C   0  0  3  0  0  0  0  0  0  0  0  0
    6.6570    2.3212    0.0000 C   0  0  3  0  0  0  0  0  0  0  0  0
    7.5231    3.8212    0.0000 C   0  0  0  0  0  0  0  0  0  0  0  0
    7.5231    1.8212    0.0000 C   0  0  0  0  0  0  0  0  0  0  0  0
    5.7631    3.8559    0.0000 C   0  0  0  0  0  0  0  0  0  0  0  0
    5.7631    1.7865    0.0000 C   0  0  0  0  0  0  0  0  0  0  0  0
    8.3891    3.3212    0.0000 C   0  0  1  0  0  0  0  0  0  0  0  0
    4.8570    3.3420    0.0000 C   0  0  0  0  0  0  0  0  0  0  0  0
    4.8570    2.3004    0.0000 C   0  0  0  0  0  0  0  0  0  0  0  0
    9.2551    1.8212    0.0000 C   0  0  0  0  0  0  0  0  0  0  0  0
    9.2551    3.8212    0.0000 C   0  0  0  0  0  0  0  0  0  0  0  0
    9.2551    0.8212    0.0000 C   0  0  2  0  0  0  0  0  0  0  0  0
   10.1211    0.3212    0.0000 C   0  0  2  0  0  0  0  0  0  0  0  0
   10.1211    5.3212    0.0000 C   0  0  0  0  0  0  0  0  0  0  0  0
    4.8205   -3.6733    0.0000 C   0  0  1  0  0  0  0  0  0  0  0  0
    4.0114   -2.2721    0.0000 C   0  0  1  0  0  0  0  0  0  0  0  0
    4.9250   -2.6788    0.0000 C   0  0  2  0  0  0  0  0  0  0  0  0
    3.8423   -3.8812    0.0000 C   0  0  3  0  0  0  0  0  0  0  0  0
   10.1211   -0.6788    0.0000 C   0  0  0  0  0  0  0  0  0  0  0  0
    3.8035   -1.2939    0.0000 C   0  0  3  0  0  0  0  0  0  0  0  0
    4.6495   -5.2737    0.0000 C   0  0  0  0  0  0  0  0  0  0  0  0
   10.9872    5.8212    0.0000 C   0  0  0  0  0  0  0  0  0  0  0  0
    9.6212    6.1872    0.0000 C   0  0  0  0  0  0  0  0  0  0  0  0
   10.6211    4.4552    0.0000 C   0  0  0  0  0  0  0  0  0  0  0  0
    4.4727   -0.5508    0.0000 C   0  0  0  0  0  0  0  0  0  0  0  0
    8.3891   -0.6788    0.0000 C   0  0  0  0  0  0  0  0  0  0  0  0
    2.9945    0.1073    0.0000 C   0  0  0  0  0  0  0  0  0  0  0  0
   10.9872   -1.1788    0.0000 C   0  0  0  0  0  0  0  0  0  0  0  0
   10.9872    1.8212    0.0000 C   0  0  0  0  0  0  0  0  0  0  0  0
    4.2427   -6.1872    0.0000 C   0  0  0  0  0  0  0  0  0  0  0  0
    5.3926   -5.9428    0.0000 C   0  0  0  0  0  0  0  0  0  0  0  0
    7.5231   -1.1788    0.0000 C   0  0  0  0  0  0  0  0  0  0  0  0
    7.5231   -2.1788    0.0000 C   0  0  0  0  0  0  0  0  0  0  0  0
    6.6570   -2.6788    0.0000 C   0  0  0  0  0  0  0  0  0  0  0  0
    2.0000    0.2119    0.0000 C   0  0  0  0  0  0  0  0  0  0  0  0
    2.7866    1.0855    0.0000 C   0  0  0  0  0  0  0  0  0  0  0  0
   11.8532    2.3212    0.0000 C   0  0  2  0  0  0  0  0  0  0  0  0
   10.9872   -2.1788    0.0000 C   0  0  0  0  0  0  0  0  0  0  0  0
   11.8532   -0.6788    0.0000 C   0  0  0  0  0  0  0  0  0  0  0  0
   11.8532    3.3212    0.0000 C   0  0  0  0  0  0  0  0  0  0  0  0
   11.8532   -2.6788    0.0000 C   0  0  0  0  0  0  0  0  0  0  0  0
   12.7192   -1.1788    0.0000 C   0  0  0  0  0  0  0  0  0  0  0  0
   12.7192   -2.1788    0.0000 C   0  0  0  0  0  0  0  0  0  0  0  0
   12.7192    3.8212    0.0000 C   0  0  0  0  0  0  0  0  0  0  0  0
   13.2193    0.9552    0.0000 C   0  0  0  0  0  0  0  0  0  0  0  0
   14.2192    0.9552    0.0000 C   0  0  0  0  0  0  0  0  0  0  0  0
   14.7192    1.8212    0.0000 C   0  0  0  0  0  0  0  0  0  0  0  0
   15.7192    1.8212    0.0000 C   0  0  0  0  0  0  0  0  0  0  0  0
   15.7192    0.0891    0.0000 C   0  0  0  0  0  0  0  0  0  0  0  0
   16.2192    0.9552    0.0000 C   0  0  0  0  0  0  0  0  0  0  0  0
   16.2261   -0.8209    0.0000 C   0  0  0  0  0  0  0  0  0  0  0  0
   17.2607    0.9712    0.0000 C   0  0  0  0  0  0  0  0  0  0  0  0
   17.2677   -0.8289    0.0000 C   0  0  0  0  0  0  0  0  0  0  0  0
   17.7885    0.0732    0.0000 C   0  0  0  0  0  0  0  0  0  0  0  0
    6.6618    3.9412    0.0000 H   0  0  0  0  0  0  0  0  0  0  0  0
    6.6618    1.7012    0.0000 H   0  0  0  0  0  0  0  0  0  0  0  0
    7.9216    4.2962    0.0000 H   0  0  0  0  0  0  0  0  0  0  0  0
    7.1245    4.2962    0.0000 H   0  0  0  0  0  0  0  0  0  0  0  0
    7.1245    1.3462    0.0000 H   0  0  0  0  0  0  0  0  0  0  0  0
    7.9216    1.3462    0.0000 H   0  0  0  0  0  0  0  0  0  0  0  0
    6.1677    4.3257    0.0000 H   0  0  0  0  0  0  0  0  0  0  0  0
    5.3695    4.3349    0.0000 H   0  0  0  0  0  0  0  0  0  0  0  0
    5.3695    1.3075    0.0000 H   0  0  0  0  0  0  0  0  0  0  0  0
    6.1677    1.3168    0.0000 H   0  0  0  0  0  0  0  0  0  0  0  0
    8.9260    3.0112    0.0000 H   0  0  0  0  0  0  0  0  0  0  0  0
    4.6480    3.9257    0.0000 H   0  0  0  0  0  0  0  0  0  0  0  0
    4.2462    3.2359    0.0000 H   0  0  0  0  0  0  0  0  0  0  0  0
    4.2462    2.4065    0.0000 H   0  0  0  0  0  0  0  0  0  0  0  0
    4.6480    1.7167    0.0000 H   0  0  0  0  0  0  0  0  0  0  0  0
    9.8657    1.7135    0.0000 H   0  0  0  0  0  0  0  0  0  0  0  0
    9.4672    2.4038    0.0000 H   0  0  0  0  0  0  0  0  0  0  0  0
    9.2551    0.2012    0.0000 H   0  0  0  0  0  0  0  0  0  0  0  0
   10.1211    0.9412    0.0000 H   0  0  0  0  0  0  0  0  0  0  0  0
    8.7182    5.1312    0.0000 H   0  0  0  0  0  0  0  0  0  0  0  0
    5.6521   -3.4977    0.0000 H   0  0  0  0  0  0  0  0  0  0  0  0
    3.1904   -2.0521    0.0000 H   0  0  0  0  0  0  0  0  0  0  0  0
    5.4450   -3.0165    0.0000 H   0  0  0  0  0  0  0  0  0  0  0  0
    3.2360   -4.0109    0.0000 H   0  0  0  0  0  0  0  0  0  0  0  0
    9.5106   -0.5711    0.0000 H   0  0  0  0  0  0  0  0  0  0  0  0
    9.9091   -1.2614    0.0000 H   0  0  0  0  0  0  0  0  0  0  0  0
    3.3217   -1.6841    0.0000 H   0  0  0  0  0  0  0  0  0  0  0  0
   11.5241    0.5112    0.0000 H   0  0  0  0  0  0  0  0  0  0  0  0
   11.2972    5.2843    0.0000 H   0  0  0  0  0  0  0  0  0  0  0  0
   11.5241    6.1312    0.0000 H   0  0  0  0  0  0  0  0  0  0  0  0
   10.6772    6.3581    0.0000 H   0  0  0  0  0  0  0  0  0  0  0  0
   10.1581    6.4972    0.0000 H   0  0  0  0  0  0  0  0  0  0  0  0
    9.3112    6.7242    0.0000 H   0  0  0  0  0  0  0  0  0  0  0  0
    9.0842    5.8772    0.0000 H   0  0  0  0  0  0  0  0  0  0  0  0
   10.0842    4.1452    0.0000 H   0  0  0  0  0  0  0  0  0  0  0  0
   10.9311    3.9182    0.0000 H   0  0  0  0  0  0  0  0  0  0  0  0
   11.1581    4.7652    0.0000 H   0  0  0  0  0  0  0  0  0  0  0  0
    4.8875   -1.0115    0.0000 H   0  0  0  0  0  0  0  0  0  0  0  0
    4.9743   -0.1863    0.0000 H   0  0  0  0  0  0  0  0  0  0  0  0
    3.6763   -5.9351    0.0000 H   0  0  0  0  0  0  0  0  0  0  0  0
    3.9906   -6.7536    0.0000 H   0  0  0  0  0  0  0  0  0  0  0  0
    4.8091   -6.4394    0.0000 H   0  0  0  0  0  0  0  0  0  0  0  0
    4.9778   -6.4036    0.0000 H   0  0  0  0  0  0  0  0  0  0  0  0
    5.8534   -6.3577    0.0000 H   0  0  0  0  0  0  0  0  0  0  0  0
    5.8075   -5.4821    0.0000 H   0  0  0  0  0  0  0  0  0  0  0  0
    7.3110   -0.5962    0.0000 H   0  0  0  0  0  0  0  0  0  0  0  0
    6.9125   -1.2865    0.0000 H   0  0  0  0  0  0  0  0  0  0  0  0
    7.7351   -2.7614    0.0000 H   0  0  0  0  0  0  0  0  0  0  0  0
    8.1336   -2.0711    0.0000 H   0  0  0  0  0  0  0  0  0  0  0  0
    2.0648    0.8285    0.0000 H   0  0  0  0  0  0  0  0  0  0  0  0
    1.3834    0.2767    0.0000 H   0  0  0  0  0  0  0  0  0  0  0  0
    1.9352   -0.4047    0.0000 H   0  0  0  0  0  0  0  0  0  0  0  0
    3.3931    1.2144    0.0000 H   0  0  0  0  0  0  0  0  0  0  0  0
    2.6577    1.6919    0.0000 H   0  0  0  0  0  0  0  0  0  0  0  0
    2.1802    0.9566    0.0000 H   0  0  0  0  0  0  0  0  0  0  0  0
   12.3901    2.6312    0.0000 H   0  0  0  0  0  0  0  0  0  0  0  0
   10.4502   -2.4888    0.0000 H   0  0  0  0  0  0  0  0  0  0  0  0
   11.8532   -0.0588    0.0000 H   0  0  0  0  0  0  0  0  0  0  0  0
   11.6411    3.9038    0.0000 H   0  0  0  0  0  0  0  0  0  0  0  0
   11.2426    3.2135    0.0000 H   0  0  0  0  0  0  0  0  0  0  0  0
   11.8532   -3.2988    0.0000 H   0  0  0  0  0  0  0  0  0  0  0  0
   13.2562   -0.8688    0.0000 H   0  0  0  0  0  0  0  0  0  0  0  0
   13.2562    2.1312    0.0000 H   0  0  0  0  0  0  0  0  0  0  0  0
   13.2562   -2.4888    0.0000 H   0  0  0  0  0  0  0  0  0  0  0  0
   13.2562    5.1312    0.0000 H   0  0  0  0  0  0  0  0  0  0  0  0
   12.1823    5.1312    0.0000 H   0  0  0  0  0  0  0  0  0  0  0  0
   14.4092    2.3581    0.0000 H   0  0  0  0  0  0  0  0  0  0  0  0
   16.0292    2.3581    0.0000 H   0  0  0  0  0  0  0  0  0  0  0  0
   15.9099   -1.3542    0.0000 H   0  0  0  0  0  0  0  0  0  0  0  0
   17.5645    1.5117    0.0000 H   0  0  0  0  0  0  0  0  0  0  0  0
   17.5756   -1.3670    0.0000 H   0  0  0  0  0  0  0  0  0  0  0  0
   18.4085    0.0756    0.0000 H   0  0  0  0  0  0  0  0  0  0  0  0
 31  1  1  6  0  0  0
  1 45  1  0  0  0  0
  2 30  2  0  0  0  0
  3 35  1  0  0  0  0
  3 37  1  0  0  0  0
  4 34  1  0  0  0  0
  4 40  1  0  0  0  0
  5 37  1  0  0  0  0
  5 40  1  0  0  0  0
 36  6  1  6  0  0  0
  6 53  1  0  0  0  0
  7 39  1  0  0  0  0
  7 46  1  0  0  0  0
  8 44  1  0  0  0  0
  8 46  1  0  0  0  0
  9 45  2  0  0  0  0
 10 48  2  0  0  0  0
 11 53  2  0  0  0  0
 12 63  2  0  0  0  0
 13 64  2  0  0  0  0
 14 23  1  0  0  0  0
 14 26  1  0  0  0  0
 14 29  1  0  0  0  0
 15 30  1  0  0  0  0
 15 33  1  0  0  0  0
 15 93  1  0  0  0  0
 32 16  1  1  0  0  0
 16 48  1  0  0  0  0
 16101  1  0  0  0  0
 56 17  1  6  0  0  0
 17 64  1  0  0  0  0
 17136  1  0  0  0  0
 18 63  1  0  0  0  0
 18138  1  0  0  0  0
 18139  1  0  0  0  0
 19 65  2  0  0  0  0
 19 68  1  0  0  0  0
 20 21  1  0  0  0  0
 20 22  1  0  0  0  0
 20 24  1  0  0  0  0
 20 74  1  0  0  0  0
 21 23  1  0  0  0  0
 21 25  1  0  0  0  0
 21 75  1  0  0  0  0
 22 26  1  0  0  0  0
 22 76  1  0  0  0  0
 22 77  1  0  0  0  0
 23 78  1  0  0  0  0
 23 79  1  0  0  0  0
 24 27  1  0  0  0  0
 24 80  1  0  0  0  0
 24 81  1  0  0  0  0
 25 28  1  0  0  0  0
 25 82  1  0  0  0  0
 25 83  1  0  0  0  0
 26 30  1  1  0  0  0
 26 84  1  0  0  0  0
 27 28  1  0  0  0  0
 27 85  1  0  0  0  0
 27 86  1  0  0  0  0
 28 87  1  0  0  0  0
 28 88  1  0  0  0  0
 29 31  1  0  0  0  0
 29 89  1  0  0  0  0
 29 90  1  0  0  0  0
 31 32  1  0  0  0  0
 31 91  1  0  0  0  0
 32 38  1  0  0  0  0
 32 92  1  0  0  0  0
 33 41  1  0  0  0  0
 33 42  1  0  0  0  0
 33 43  1  0  0  0  0
 34 36  1  0  0  0  0
 34 37  1  0  0  0  0
 34 94  1  1  0  0  0
 35 36  1  0  0  0  0
 35 39  1  0  0  0  0
 35 95  1  1  0  0  0
 36 96  1  0  0  0  0
 37 97  1  0  0  0  0
 38 47  1  0  0  0  0
 38 98  1  0  0  0  0
 38 99  1  0  0  0  0
 39 44  1  0  0  0  0
 39100  1  0  0  0  0
 40 49  1  0  0  0  0
 40 50  1  0  0  0  0
 41102  1  0  0  0  0
 41103  1  0  0  0  0
 41104  1  0  0  0  0
 42105  1  0  0  0  0
 42106  1  0  0  0  0
 42107  1  0  0  0  0
 43108  1  0  0  0  0
 43109  1  0  0  0  0
 43110  1  0  0  0  0
 44111  1  0  0  0  0
 44112  1  0  0  0  0
 45 51  1  0  0  0  0
 46 54  1  0  0  0  0
 46 55  1  0  0  0  0
 47 57  2  0  0  0  0
 47 58  1  0  0  0  0
 48 56  1  0  0  0  0
 49113  1  0  0  0  0
 49114  1  0  0  0  0
 49115  1  0  0  0  0
 50116  1  0  0  0  0
 50117  1  0  0  0  0
 50118  1  0  0  0  0
 51 52  1  0  0  0  0
 51119  1  0  0  0  0
 51120  1  0  0  0  0
 52 53  1  0  0  0  0
 52121  1  0  0  0  0
 52122  1  0  0  0  0
 54123  1  0  0  0  0
 54124  1  0  0  0  0
 54125  1  0  0  0  0
 55126  1  0  0  0  0
 55127  1  0  0  0  0
 55128  1  0  0  0  0
 56 59  1  0  0  0  0
 56129  1  0  0  0  0
 57 60  1  0  0  0  0
 57130  1  0  0  0  0
 58 61  2  0  0  0  0
 58131  1  0  0  0  0
 59 63  1  0  0  0  0
 59132  1  0  0  0  0
 59133  1  0  0  0  0
 60 62  2  0  0  0  0
 60134  1  0  0  0  0
 61 62  1  0  0  0  0
 61135  1  0  0  0  0
 62137  1  0  0  0  0
 64 65  1  0  0  0  0
 65 66  1  0  0  0  0
 66 67  2  0  0  0  0
 66140  1  0  0  0  0
 67 69  1  0  0  0  0
 67141  1  0  0  0  0
 68 69  1  0  0  0  0
 68 70  2  0  0  0  0
 69 71  2  0  0  0  0
 70 72  1  0  0  0  0
 70142  1  0  0  0  0
 71 73  1  0  0  0  0
 71143  1  0  0  0  0
 72 73  2  0  0  0  0
 72144  1  0  0  0  0
 73145  1  0  0  0  0
M  END
> <PUBCHEM_COMPOUND_CID>
500851
> <PUBCHEM_COMPOUND_CANONICALIZED>
1
> <PUBCHEM_CACTVS_COMPLEXITY>
1960
> <PUBCHEM_CACTVS_HBOND_ACCEPTOR>
15
> <PUBCHEM_CACTVS_HBOND_DONOR>
4
> <PUBCHEM_CACTVS_ROTATABLE_BOND>
21
> <PUBCHEM_CACTVS_SUBSKEYS>
AAADcfB/vAAAAAAAAAAAAAAAAAAAASJEgAA8eMECAAASAACx9AAAHgAQAAAADbzxngcyyPPIFACoAyXyXACCgCAnAiAImKG4ZNgbYPrA1bG3IQhllgDeyYff6KyOgAAAAAACAAAAAAAAACQAAAAAAAAAAA==
> <PUBCHEM_IUPAC_OPENEYE_NAME>
O1-[(5R,6S,6aS)-5-(2,2-dimethyl-1,3-dioxolan-4-yl)-2,2-dimethyl-3a,5,6,6a-tetrahydrofuro[2,3-d][1,3]dioxol-6-yl] O4-[(1R,2S)-2-[[(2S)-4-amino-4-oxo-2-(quinoline-2-carbonylamino)butanoyl]amino]-1-[[(3S)-3-(tert-butylcarbamoyl)-3,4,4a,5,6,7,8,8a-octahydro-1H-isoquinolin-2-yl]methyl]-3-phenyl-propyl] butanedioate
> <PUBCHEM_IUPAC_CAS_NAME>
butanedioic acid O1-[(5R,6S,6aS)-5-(2,2-dimethyl-1,3-dioxolan-4-yl)-2,2-dimethyl-3a,5,6,6a-tetrahydrofuro[2,3-d][1,3]dioxol-6-yl] ester O4-[(2R,3S)-3-[[(2S)-4-amino-1,4-dioxo-2-[[oxo(2-quinolinyl)methyl]amino]butyl]amino]-1-[(3S)-3-[(tert-butylamino)-oxomethyl]-3,4,4a,5,6,7,8,8a-octahydro-1H-isoquinolin-2-yl]-4-phenylbutan-2-yl] ester
> <PUBCHEM_IUPAC_NAME_MARKUP>
1-<I>O</I>-[(5<I>R</I>,6<I>S</I>,6<I>a</I><I>S</I>)-5-(2,2-dimethyl-1,3-dioxolan-4-yl)-2,2-dimethyl-3<I>a</I>,5,6,6<I>a</I>-tetrahydrofuro[2,3-d][1,3]dioxol-6-yl] 4-<I>O</I>-[(2<I>R</I>,3<I>S</I>)-3-[[(2<I>S</I>)-4-amino-4-oxo-2-(quinoline-2-carbonylamino)butanoyl]amino]-1-[(3<I>S</I>)-3-(<I>tert</I>-butylcarbamoyl)-3,4,4<I>a</I>,5,6,7,8,8<I>a</I>-octahydro-1<I>H</I>-isoquinolin-2-yl]-4-phenylbutan-2-yl] butanedioate
> <PUBCHEM_IUPAC_NAME>
1-O-[(5R,6S,6aS)-5-(2,2-dimethyl-1,3-dioxolan-4-yl)-2,2-dimethyl-3a,5,6,6a-tetrahydrofuro[2,3-d][1,3]dioxol-6-yl] 4-O-[(2R,3S)-3-[[(2S)-4-amino-4-oxo-2-(quinoline-2-carbonylamino)butanoyl]amino]-1-[(3S)-3-(tert-butylcarbamoyl)-3,4,4a,5,6,7,8,8a-octahydro-1H-isoquinolin-2-yl]-4-phenylbutan-2-yl] butanedioate
> <PUBCHEM_IUPAC_SYSTEMATIC_NAME>
O1-[(5R,6S,6aS)-5-(2,2-dimethyl-1,3-dioxolan-4-yl)-2,2-dimethyl-3a,5,6,6a-tetrahydrofuro[2,3-d][1,3]dioxol-6-yl] O4-[(2R,3S)-3-[[(2S)-4-azanyl-4-oxidanylidene-2-(quinolin-2-ylcarbonylamino)butanoyl]amino]-1-[(3S)-3-(tert-butylcarbamoyl)-3,4,4a,5,6,7,8,8a-octahydro-1H-isoquinolin-2-yl]-4-phenyl-butan-2-yl] butanedioate
> <PUBCHEM_IUPAC_TRADITIONAL_NAME>
succinic acid O1-[(5R,6S,6aS)-5-(2,2-dimethyl-1,3-dioxolan-4-yl)-2,2-dimethyl-3a,5,6,6a-tetrahydrofuro[2,3-d][1,3]dioxol-6-yl] ester O4-[(1R,2S)-2-[[(2S)-4-amino-4-keto-2-(quinaldoylamino)butanoyl]amino]-1-[[(3S)-3-(tert-butylcarbamoyl)-3,4,4a,5,6,7,8,8a-octahydro-1H-isoquinolin-2-yl]methyl]-3-phenyl-propyl] ester
> <PUBCHEM_IUPAC_INCHI>
InChI=1S/C54H72N6O13/c1-52(2,3)59-50(66)39-26-33-18-11-12-19-34(33)28-60(39)29-40(68-43(62)23-24-44(63)69-46-45(41-30-67-53(4,5)71-41)70-51-47(46)72-54(6,7)73-51)37(25-31-15-9-8-10-16-31)57-49(65)38(27-42(55)61)58-48(64)36-22-21-32-17-13-14-20-35(32)56-36/h8-10,13-17,20-22,33-34,37-41,45-47,51H,11-12,18-19,23-30H2,1-7H3,(H2,55,61)(H,57,65)(H,58,64)(H,59,66)/t33?,34?,37-,38-,39-,40+,41?,45+,46-,47-,51?/m0/s1
> <PUBCHEM_IUPAC_INCHIKEY>
QYRZBMVZBMFXEV-ZKQWPLJASA-N
> <PUBCHEM_XLOGP3_AA>
5
> <PUBCHEM_EXACT_MASS>
1012.51573637
> <PUBCHEM_MOLECULAR_FORMULA>
C54H72N6O13
> <PUBCHEM_MOLECULAR_WEIGHT>
1013.2
> <PUBCHEM_OPENEYE_CAN_SMILES>
CC1(OCC(O1)C2C(C3C(O2)OC(O3)(C)C)OC(=O)CCC(=O)OC(CN4CC5CCCCC5CC4C(=O)NC(C)(C)C)C(CC6=CC=CC=C6)NC(=O)C(CC(=O)N)NC(=O)C7=NC8=CC=CC=C8C=C7)C
> <PUBCHEM_OPENEYE_ISO_SMILES>
CC1(OCC(O1)[C@@H]2[C@@H]([C@H]3C(O2)OC(O3)(C)C)OC(=O)CCC(=O)O[C@H](CN4CC5CCCCC5C[C@H]4C(=O)NC(C)(C)C)[C@H](CC6=CC=CC=C6)NC(=O)[C@H](CC(=O)N)NC(=O)C7=NC8=CC=CC=C8C=C7)C
> <PUBCHEM_CACTVS_TPSA>
245
> <PUBCHEM_MONOISOTOPIC_WEIGHT>
1012.51573637
> <PUBCHEM_TOTAL_CHARGE>
0
> <PUBCHEM_HEAVY_ATOM_COUNT>
73
> <PUBCHEM_ATOM_DEF_STEREO_COUNT>
7
> <PUBCHEM_ATOM_UDEF_STEREO_COUNT>
4
> <PUBCHEM_BOND_DEF_STEREO_COUNT>
0
> <PUBCHEM_BOND_UDEF_STEREO_COUNT>
0
> <PUBCHEM_ISOTOPIC_ATOM_COUNT>
0
> <PUBCHEM_COMPONENT_COUNT>
1
> <PUBCHEM_CACTVS_TAUTO_COUNT>
-1
> <PUBCHEM_COORDINATE_TYPE>
1
5
255
> <PUBCHEM_BONDANNOTATIONS>
31  1  6
32  16  5
56  17  6
19  65  8
19  68  8
20  24  3
21  25  3
26  30  5
34  94  5
35  95  5
39  44  3
47  57  8
47  58  8
37  5  3
57  60  8
58  61  8
36  6  6
60  62  8
61  62  8
65  66  8
66  67  8
67  69  8
68  69  8
68  70  8
69  71  8
70  72  8
71  73  8
72  73  8
$$$$
