500859
  -OEChem-10302200282D
168172  0     1  0  0  0  0  0999 V2000
    0.3660   13.1232    0.0000 F   0  0  0  0  0  0  0  0  0  0  0  0
    0.0000   11.7572    0.0000 F   0  0  0  0  0  0  0  0  0  0  0  0
    1.3660   11.3911    0.0000 F   0  0  0  0  0  0  0  0  0  0  0  0
   13.3883    6.0971    0.0000 F   0  0  0  0  0  0  0  0  0  0  0  0
   13.0223    4.7311    0.0000 F   0  0  0  0  0  0  0  0  0  0  0  0
   14.3883    4.3650    0.0000 F   0  0  0  0  0  0  0  0  0  0  0  0
   14.3883    0.0000    0.0000 F   0  0  0  0  0  0  0  0  0  0  0  0
   13.0223    0.3660    0.0000 F   0  0  0  0  0  0  0  0  0  0  0  0
   13.3883    1.7320    0.0000 F   0  0  0  0  0  0  0  0  0  0  0  0
   22.7377   12.8399    0.0000 O   0  0  0  0  0  0  0  0  0  0  0  0
   21.7892   15.1430    0.0000 O   0  0  0  0  0  0  0  0  0  0  0  0
   23.3199   14.6456    0.0000 O   0  0  0  0  0  0  0  0  0  0  0  0
   20.5266   11.2708    0.0000 O   0  0  0  0  0  0  0  0  0  0  0  0
   20.1989   13.3399    0.0000 O   0  0  0  0  0  0  0  0  0  0  0  0
   21.4776    9.9618    0.0000 O   0  0  0  0  0  0  0  0  0  0  0  0
   20.1989   15.0719    0.0000 O   0  0  0  0  0  0  0  0  0  0  0  0
   15.1989   16.8040    0.0000 O   0  0  0  0  0  0  0  0  0  0  0  0
   11.6117   19.8416    0.0000 O   0  0  0  0  0  0  0  0  0  0  0  0
   10.8974   23.2313    0.0000 O   0  0  0  0  0  0  0  0  0  0  0  0
   12.2796   19.0973    0.0000 O   0  0  0  0  0  0  0  0  0  0  0  0
   15.1989   15.0719    0.0000 O   0  0  0  0  0  0  0  0  0  0  0  0
    2.5981   12.2572    0.0000 O   0  0  0  0  0  0  0  0  0  0  0  0
   15.6204    5.2311    0.0000 O   0  0  0  0  0  0  0  0  0  0  0  0
   15.6204    0.8660    0.0000 O   0  0  0  0  0  0  0  0  0  0  0  0
    1.7320   13.7572    0.0000 O   0  0  0  0  0  0  0  0  0  0  0  0
   14.7543    6.7311    0.0000 O   0  0  0  0  0  0  0  0  0  0  0  0
   14.7543    2.3660    0.0000 O   0  0  0  0  0  0  0  0  0  0  0  0
   10.2760   21.3302    0.0000 N   0  0  3  0  0  0  0  0  0  0  0  0
    8.3190   20.9178    0.0000 N   0  0  3  0  0  0  0  0  0  0  0  0
   13.9259   18.5592    0.0000 N   0  0  0  0  0  0  0  0  0  0  0  0
    9.2510   23.7693    0.0000 N   0  0  0  0  0  0  0  0  0  0  0  0
    7.3870   18.0662    0.0000 N   0  0  0  0  0  0  0  0  0  0  0  0
   21.7867   14.1489    0.0000 C   0  0  1  0  0  0  0  0  0  0  0  0
   21.7867   12.5309    0.0000 C   0  0  1  0  0  0  0  0  0  0  0  0
   21.1989   13.3399    0.0000 C   0  0  2  0  0  0  0  0  0  0  0  0
   22.7377   13.8399    0.0000 C   0  0  3  0  0  0  0  0  0  0  0  0
   21.4776   11.5798    0.0000 C   0  0  3  0  0  0  0  0  0  0  0  0
   22.7349   15.4493    0.0000 C   0  0  0  0  0  0  0  0  0  0  0  0
   22.0654   10.7708    0.0000 C   0  0  0  0  0  0  0  0  0  0  0  0
   20.5266   10.2708    0.0000 C   0  0  0  0  0  0  0  0  0  0  0  0
   23.5440   16.0371    0.0000 C   0  0  0  0  0  0  0  0  0  0  0  0
   22.4259   16.4004    0.0000 C   0  0  0  0  0  0  0  0  0  0  0  0
   19.5266   10.2708    0.0000 C   0  0  0  0  0  0  0  0  0  0  0  0
   20.2176    9.3197    0.0000 C   0  0  0  0  0  0  0  0  0  0  0  0
   19.6989   14.2059    0.0000 C   0  0  0  0  0  0  0  0  0  0  0  0
   18.6989   14.2059    0.0000 C   0  0  0  0  0  0  0  0  0  0  0  0
   18.1989   15.0719    0.0000 C   0  0  0  0  0  0  0  0  0  0  0  0
    9.6082   22.0745    0.0000 C   0  0  1  0  0  0  0  0  0  0  0  0
    8.6297   21.8683    0.0000 C   0  0  0  0  0  0  0  0  0  0  0  0
    9.9654   20.3797    0.0000 C   0  0  0  0  0  0  0  0  0  0  0  0
   11.2546   21.5364    0.0000 C   0  0  0  0  0  0  0  0  0  0  0  0
    8.9869   20.1735    0.0000 C   0  0  0  0  0  0  0  0  0  0  0  0
   11.9224   20.7921    0.0000 C   0  0  2  0  0  0  0  0  0  0  0  0
   13.6153   17.6087    0.0000 C   0  0  2  0  0  0  0  0  0  0  0  0
   17.1989   15.0719    0.0000 C   0  0  0  0  0  0  0  0  0  0  0  0
   14.1989   16.8040    0.0000 C   0  0  1  0  0  0  0  0  0  0  0  0
   12.9009   20.9984    0.0000 C   0  0  0  0  0  0  0  0  0  0  0  0
   13.5687   20.2541    0.0000 C   0  0  1  0  0  0  0  0  0  0  0  0
   13.6153   15.9992    0.0000 C   0  0  0  0  0  0  0  0  0  0  0  0
   12.6690   17.3040    0.0000 C   0  0  0  0  0  0  0  0  0  0  0  0
    9.9189   23.0250    0.0000 C   0  0  0  0  0  0  0  0  0  0  0  0
   12.6690   16.3040    0.0000 C   0  0  0  0  0  0  0  0  0  0  0  0
    7.3405   20.7116    0.0000 C   0  0  0  0  0  0  0  0  0  0  0  0
   16.6989   15.9380    0.0000 C   0  0  0  0  0  0  0  0  0  0  0  0
   13.2581   19.3035    0.0000 C   0  0  0  0  0  0  0  0  0  0  0  0
   14.5473   20.4603    0.0000 C   0  0  0  0  0  0  0  0  0  0  0  0
    8.2725   23.5631    0.0000 C   0  0  0  0  0  0  0  0  0  0  0  0
   15.6989   15.9380    0.0000 C   0  0  0  0  0  0  0  0  0  0  0  0
   11.8030   17.8040    0.0000 C   0  0  0  0  0  0  0  0  0  0  0  0
   11.8030   15.8040    0.0000 C   0  0  0  0  0  0  0  0  0  0  0  0
    7.0299   19.7610    0.0000 C   0  0  0  0  0  0  0  0  0  0  0  0
   14.8579   21.4108    0.0000 C   0  0  0  0  0  0  0  0  0  0  0  0
   10.9370   17.3040    0.0000 C   0  0  0  0  0  0  0  0  0  0  0  0
   10.9370   16.3040    0.0000 C   0  0  0  0  0  0  0  0  0  0  0  0
    8.4787   22.5846    0.0000 C   0  0  0  0  0  0  0  0  0  0  0  0
    8.0663   24.5416    0.0000 C   0  0  0  0  0  0  0  0  0  0  0  0
    7.2940   23.3569    0.0000 C   0  0  0  0  0  0  0  0  0  0  0  0
    6.0514   19.5548    0.0000 C   0  0  0  0  0  0  0  0  0  0  0  0
    7.6977   19.0167    0.0000 C   0  0  0  0  0  0  0  0  0  0  0  0
   15.8364   21.6170    0.0000 C   0  0  0  0  0  0  0  0  0  0  0  0
   14.1901   22.1551    0.0000 C   0  0  0  0  0  0  0  0  0  0  0  0
    5.7407   18.6043    0.0000 C   0  0  0  0  0  0  0  0  0  0  0  0
   16.1471   22.5675    0.0000 C   0  0  0  0  0  0  0  0  0  0  0  0
   14.5007   23.1056    0.0000 C   0  0  0  0  0  0  0  0  0  0  0  0
   15.4792   23.3118    0.0000 C   0  0  0  0  0  0  0  0  0  0  0  0
    6.4085   17.8600    0.0000 C   0  0  0  0  0  0  0  0  0  0  0  0
    0.8660   12.2572    0.0000 C   0  0  0  0  0  0  0  0  0  0  0  0
   13.8883    5.2311    0.0000 C   0  0  0  0  0  0  0  0  0  0  0  0
   13.8883    0.8660    0.0000 C   0  0  0  0  0  0  0  0  0  0  0  0
    1.7320   12.7572    0.0000 C   0  0  0  0  0  0  0  0  0  0  0  0
   14.7543    5.7311    0.0000 C   0  0  0  0  0  0  0  0  0  0  0  0
   14.7543    1.3660    0.0000 C   0  0  0  0  0  0  0  0  0  0  0  0
   20.9786   14.4126    0.0000 H   0  0  0  0  0  0  0  0  0  0  0  0
   20.9471   12.3979    0.0000 H   0  0  0  0  0  0  0  0  0  0  0  0
   20.9174   13.8923    0.0000 H   0  0  0  0  0  0  0  0  0  0  0  0
   23.3276   13.6491    0.0000 H   0  0  0  0  0  0  0  0  0  0  0  0
   21.0392   12.0182    0.0000 H   0  0  0  0  0  0  0  0  0  0  0  0
   22.5262   10.3559    0.0000 H   0  0  0  0  0  0  0  0  0  0  0  0
   22.5262   11.1856    0.0000 H   0  0  0  0  0  0  0  0  0  0  0  0
   23.9084   15.5355    0.0000 H   0  0  0  0  0  0  0  0  0  0  0  0
   24.0455   16.4016    0.0000 H   0  0  0  0  0  0  0  0  0  0  0  0
   23.1795   16.5387    0.0000 H   0  0  0  0  0  0  0  0  0  0  0  0
   23.0156   16.5920    0.0000 H   0  0  0  0  0  0  0  0  0  0  0  0
   22.2343   16.9901    0.0000 H   0  0  0  0  0  0  0  0  0  0  0  0
   21.8363   16.2088    0.0000 H   0  0  0  0  0  0  0  0  0  0  0  0
   19.5266   10.8908    0.0000 H   0  0  0  0  0  0  0  0  0  0  0  0
   18.9066   10.2708    0.0000 H   0  0  0  0  0  0  0  0  0  0  0  0
   19.5266    9.6508    0.0000 H   0  0  0  0  0  0  0  0  0  0  0  0
   19.6279    9.5113    0.0000 H   0  0  0  0  0  0  0  0  0  0  0  0
   20.0260    8.7301    0.0000 H   0  0  0  0  0  0  0  0  0  0  0  0
   20.8072    9.1281    0.0000 H   0  0  0  0  0  0  0  0  0  0  0  0
   18.1163   13.9939    0.0000 H   0  0  0  0  0  0  0  0  0  0  0  0
   18.8065   13.5953    0.0000 H   0  0  0  0  0  0  0  0  0  0  0  0
   18.7815   15.2840    0.0000 H   0  0  0  0  0  0  0  0  0  0  0  0
   18.0912   15.6825    0.0000 H   0  0  0  0  0  0  0  0  0  0  0  0
   10.2149   22.2024    0.0000 H   0  0  0  0  0  0  0  0  0  0  0  0
    8.6091   22.4880    0.0000 H   0  0  0  0  0  0  0  0  0  0  0  0
    8.0159   21.9557    0.0000 H   0  0  0  0  0  0  0  0  0  0  0  0
    9.9860   19.7600    0.0000 H   0  0  0  0  0  0  0  0  0  0  0  0
   10.5792   20.2924    0.0000 H   0  0  0  0  0  0  0  0  0  0  0  0
   11.7809   21.8641    0.0000 H   0  0  0  0  0  0  0  0  0  0  0  0
   11.0233   22.1117    0.0000 H   0  0  0  0  0  0  0  0  0  0  0  0
    8.4605   19.8458    0.0000 H   0  0  0  0  0  0  0  0  0  0  0  0
    9.2181   19.5982    0.0000 H   0  0  0  0  0  0  0  0  0  0  0  0
   11.3157   20.6643    0.0000 H   0  0  0  0  0  0  0  0  0  0  0  0
   13.1778   18.0481    0.0000 H   0  0  0  0  0  0  0  0  0  0  0  0
   14.4806   16.2517    0.0000 H   0  0  0  0  0  0  0  0  0  0  0  0
   16.6163   14.8599    0.0000 H   0  0  0  0  0  0  0  0  0  0  0  0
   17.3065   14.4614    0.0000 H   0  0  0  0  0  0  0  0  0  0  0  0
   13.4273   21.3260    0.0000 H   0  0  0  0  0  0  0  0  0  0  0  0
   12.6696   21.5736    0.0000 H   0  0  0  0  0  0  0  0  0  0  0  0
   13.7614   20.8434    0.0000 H   0  0  0  0  0  0  0  0  0  0  0  0
   13.3642   15.4323    0.0000 H   0  0  0  0  0  0  0  0  0  0  0  0
   14.1526   15.6900    0.0000 H   0  0  0  0  0  0  0  0  0  0  0  0
    7.3200   21.3312    0.0000 H   0  0  0  0  0  0  0  0  0  0  0  0
    6.7267   20.7989    0.0000 H   0  0  0  0  0  0  0  0  0  0  0  0
   17.2815   16.1500    0.0000 H   0  0  0  0  0  0  0  0  0  0  0  0
   16.5912   16.5485    0.0000 H   0  0  0  0  0  0  0  0  0  0  0  0
   14.5326   18.6871    0.0000 H   0  0  0  0  0  0  0  0  0  0  0  0
   14.5678   19.8406    0.0000 H   0  0  0  0  0  0  0  0  0  0  0  0
   15.1611   20.3729    0.0000 H   0  0  0  0  0  0  0  0  0  0  0  0
    9.4436   24.3587    0.0000 H   0  0  0  0  0  0  0  0  0  0  0  0
   11.8030   18.4240    0.0000 H   0  0  0  0  0  0  0  0  0  0  0  0
   11.8030   15.1840    0.0000 H   0  0  0  0  0  0  0  0  0  0  0  0
   11.0051   19.7138    0.0000 H   0  0  0  0  0  0  0  0  0  0  0  0
   10.4001   17.6140    0.0000 H   0  0  0  0  0  0  0  0  0  0  0  0
   10.4001   15.9940    0.0000 H   0  0  0  0  0  0  0  0  0  0  0  0
    7.8721   22.4568    0.0000 H   0  0  0  0  0  0  0  0  0  0  0  0
    8.6066   21.9779    0.0000 H   0  0  0  0  0  0  0  0  0  0  0  0
    9.0854   22.7125    0.0000 H   0  0  0  0  0  0  0  0  0  0  0  0
    8.6730   24.6695    0.0000 H   0  0  0  0  0  0  0  0  0  0  0  0
    7.9384   25.1483    0.0000 H   0  0  0  0  0  0  0  0  0  0  0  0
    7.4596   24.4138    0.0000 H   0  0  0  0  0  0  0  0  0  0  0  0
    7.1662   23.9636    0.0000 H   0  0  0  0  0  0  0  0  0  0  0  0
    6.6873   23.2291    0.0000 H   0  0  0  0  0  0  0  0  0  0  0  0
    7.4219   22.7502    0.0000 H   0  0  0  0  0  0  0  0  0  0  0  0
    5.6373   20.0163    0.0000 H   0  0  0  0  0  0  0  0  0  0  0  0
    8.3044   19.1446    0.0000 H   0  0  0  0  0  0  0  0  0  0  0  0
   16.2505   21.1555    0.0000 H   0  0  0  0  0  0  0  0  0  0  0  0
   13.5834   22.0272    0.0000 H   0  0  0  0  0  0  0  0  0  0  0  0
    5.1340   18.4765    0.0000 H   0  0  0  0  0  0  0  0  0  0  0  0
   16.7538   22.6954    0.0000 H   0  0  0  0  0  0  0  0  0  0  0  0
   14.0867   23.5671    0.0000 H   0  0  0  0  0  0  0  0  0  0  0  0
   15.6719   23.9012    0.0000 H   0  0  0  0  0  0  0  0  0  0  0  0
    6.2159   17.2707    0.0000 H   0  0  0  0  0  0  0  0  0  0  0  0
    3.1350   12.5672    0.0000 H   0  0  0  0  0  0  0  0  0  0  0  0
   16.1573    5.5411    0.0000 H   0  0  0  0  0  0  0  0  0  0  0  0
   16.1573    1.1760    0.0000 H   0  0  0  0  0  0  0  0  0  0  0  0
  1 87  1  0  0  0  0
  2 87  1  0  0  0  0
  3 87  1  0  0  0  0
  4 88  1  0  0  0  0
  5 88  1  0  0  0  0
  6 88  1  0  0  0  0
  7 89  1  0  0  0  0
  8 89  1  0  0  0  0
  9 89  1  0  0  0  0
 10 34  1  0  0  0  0
 10 36  1  0  0  0  0
 11 33  1  0  0  0  0
 11 38  1  0  0  0  0
 12 36  1  0  0  0  0
 12 38  1  0  0  0  0
 13 37  1  0  0  0  0
 13 40  1  0  0  0  0
 35 14  1  6  0  0  0
 14 45  1  0  0  0  0
 15 39  1  0  0  0  0
 15 40  1  0  0  0  0
 16 45  2  0  0  0  0
 56 17  1  6  0  0  0
 17 68  1  0  0  0  0
 53 18  1  6  0  0  0
 18145  1  0  0  0  0
 19 61  2  0  0  0  0
 20 65  2  0  0  0  0
 21 68  2  0  0  0  0
 22 90  1  0  0  0  0
 22166  1  0  0  0  0
 23 91  1  0  0  0  0
 23167  1  0  0  0  0
 24 92  1  0  0  0  0
 24168  1  0  0  0  0
 25 90  2  0  0  0  0
 26 91  2  0  0  0  0
 27 92  2  0  0  0  0
 28 48  1  0  0  0  0
 28 50  1  0  0  0  0
 28 51  1  0  0  0  0
 29 49  1  0  0  0  0
 29 52  1  0  0  0  0
 29 63  1  0  0  0  0
 54 30  1  6  0  0  0
 30 65  1  0  0  0  0
 30139  1  0  0  0  0
 31 61  1  0  0  0  0
 31 67  1  0  0  0  0
 31142  1  0  0  0  0
 32 79  1  0  0  0  0
 32 86  2  0  0  0  0
 33 35  1  0  0  0  0
 33 36  1  0  0  0  0
 33 93  1  1  0  0  0
 34 35  1  0  0  0  0
 34 37  1  0  0  0  0
 34 94  1  1  0  0  0
 35 95  1  0  0  0  0
 36 96  1  0  0  0  0
 37 39  1  0  0  0  0
 37 97  1  0  0  0  0
 38 41  1  0  0  0  0
 38 42  1  0  0  0  0
 39 98  1  0  0  0  0
 39 99  1  0  0  0  0
 40 43  1  0  0  0  0
 40 44  1  0  0  0  0
 41100  1  0  0  0  0
 41101  1  0  0  0  0
 41102  1  0  0  0  0
 42103  1  0  0  0  0
 42104  1  0  0  0  0
 42105  1  0  0  0  0
 43106  1  0  0  0  0
 43107  1  0  0  0  0
 43108  1  0  0  0  0
 44109  1  0  0  0  0
 44110  1  0  0  0  0
 44111  1  0  0  0  0
 45 46  1  0  0  0  0
 46 47  1  0  0  0  0
 46112  1  0  0  0  0
 46113  1  0  0  0  0
 47 55  1  0  0  0  0
 47114  1  0  0  0  0
 47115  1  0  0  0  0
 48 49  1  0  0  0  0
 48 61  1  1  0  0  0
 48116  1  0  0  0  0
 49117  1  0  0  0  0
 49118  1  0  0  0  0
 50 52  1  0  0  0  0
 50119  1  0  0  0  0
 50120  1  0  0  0  0
 51 53  1  0  0  0  0
 51121  1  0  0  0  0
 51122  1  0  0  0  0
 52123  1  0  0  0  0
 52124  1  0  0  0  0
 53 57  1  0  0  0  0
 53125  1  0  0  0  0
 54 56  1  0  0  0  0
 54 60  1  0  0  0  0
 54126  1  0  0  0  0
 55 64  1  0  0  0  0
 55128  1  0  0  0  0
 55129  1  0  0  0  0
 56 59  1  0  0  0  0
 56127  1  0  0  0  0
 58 57  1  6  0  0  0
 57130  1  0  0  0  0
 57131  1  0  0  0  0
 58 65  1  0  0  0  0
 58 66  1  0  0  0  0
 58132  1  0  0  0  0
 59 62  1  0  0  0  0
 59133  1  0  0  0  0
 59134  1  0  0  0  0
 60 62  1  0  0  0  0
 60 69  2  0  0  0  0
 62 70  2  0  0  0  0
 63 71  1  0  0  0  0
 63135  1  0  0  0  0
 63136  1  0  0  0  0
 64 68  1  0  0  0  0
 64137  1  0  0  0  0
 64138  1  0  0  0  0
 66 72  1  0  0  0  0
 66140  1  0  0  0  0
 66141  1  0  0  0  0
 67 75  1  0  0  0  0
 67 76  1  0  0  0  0
 67 77  1  0  0  0  0
 69 73  1  0  0  0  0
 69143  1  0  0  0  0
 70 74  1  0  0  0  0
 70144  1  0  0  0  0
 71 78  1  0  0  0  0
 71 79  2  0  0  0  0
 72 80  2  0  0  0  0
 72 81  1  0  0  0  0
 73 74  2  0  0  0  0
 73146  1  0  0  0  0
 74147  1  0  0  0  0
 75148  1  0  0  0  0
 75149  1  0  0  0  0
 75150  1  0  0  0  0
 76151  1  0  0  0  0
 76152  1  0  0  0  0
 76153  1  0  0  0  0
 77154  1  0  0  0  0
 77155  1  0  0  0  0
 77156  1  0  0  0  0
 78 82  2  0  0  0  0
 78157  1  0  0  0  0
 79158  1  0  0  0  0
 80 83  1  0  0  0  0
 80159  1  0  0  0  0
 81 84  2  0  0  0  0
 81160  1  0  0  0  0
 82 86  1  0  0  0  0
 82161  1  0  0  0  0
 83 85  2  0  0  0  0
 83162  1  0  0  0  0
 84 85  1  0  0  0  0
 84163  1  0  0  0  0
 85164  1  0  0  0  0
 86165  1  0  0  0  0
 87 90  1  0  0  0  0
 88 91  1  0  0  0  0
 89 92  1  0  0  0  0
M  END
> <PUBCHEM_COMPOUND_CID>
500859
> <PUBCHEM_COMPOUND_CANONICALIZED>
1
> <PUBCHEM_CACTVS_COMPLEXITY>
1870
> <PUBCHEM_CACTVS_HBOND_ACCEPTOR>
30
> <PUBCHEM_CACTVS_HBOND_DONOR>
6
> <PUBCHEM_CACTVS_ROTATABLE_BOND>
22
> <PUBCHEM_CACTVS_SUBSKEYS>
AAADcfB/v8AAAAAAAAAAAAAAAAAAAaJEiAA8eIEAAAASAGAB0AAAHwAQCAAADbzxmhc+iJPIFgCoAjH3XACCgCAxAiAI2KG4ZJgbcPrA0bG3YAhl1gHeyAf6+f6OgAAAAAAQAAAAAAAAACAAAKAACQgAAA==
> <PUBCHEM_IUPAC_OPENEYE_NAME>
O6-[(5R,6S,6aS)-5-(2,2-dimethyl-1,3-dioxolan-4-yl)-2,2-dimethyl-3a,5,6,6a-tetrahydrofuro[2,3-d][1,3]dioxol-6-yl] O1-[(1S,2R)-1-[[(2S,4S)-2-benzyl-5-[(2S)-2-(tert-butylcarbamoyl)-4-(3-pyridylmethyl)piperazin-1-yl]-4-hydroxy-pentanoyl]amino]indan-2-yl] hexanedioate;2,2,2-trifluoroacetic acid
> <PUBCHEM_IUPAC_CAS_NAME>
hexanedioic acid O6-[(5R,6S,6aS)-5-(2,2-dimethyl-1,3-dioxolan-4-yl)-2,2-dimethyl-3a,5,6,6a-tetrahydrofuro[2,3-d][1,3]dioxol-6-yl] ester O1-[(1S,2R)-1-[[(2S,4S)-5-[(2S)-2-[(tert-butylamino)-oxomethyl]-4-(3-pyridinylmethyl)-1-piperazinyl]-4-hydroxy-1-oxo-2-(phenylmethyl)pentyl]amino]-2,3-dihydro-1H-inden-2-yl] ester;2,2,2-trifluoroacetic acid
> <PUBCHEM_IUPAC_NAME_MARKUP>
6-<I>O</I>-[(5<I>R</I>,6<I>S</I>,6<I>a</I><I>S</I>)-5-(2,2-dimethyl-1,3-dioxolan-4-yl)-2,2-dimethyl-3<I>a</I>,5,6,6<I>a</I>-tetrahydrofuro[2,3-d][1,3]dioxol-6-yl] 1-<I>O</I>-[(1<I>S</I>,2<I>R</I>)-1-[[(2<I>S</I>,4<I>S</I>)-2-benzyl-5-[(2<I>S</I>)-2-(<I>tert</I>-butylcarbamoyl)-4-(pyridin-3-ylmethyl)piperazin-1-yl]-4-hydroxypentanoyl]amino]-2,3-dihydro-1<I>H</I>-inden-2-yl] hexanedioate;2,2,2-trifluoroacetic acid
> <PUBCHEM_IUPAC_NAME>
6-O-[(5R,6S,6aS)-5-(2,2-dimethyl-1,3-dioxolan-4-yl)-2,2-dimethyl-3a,5,6,6a-tetrahydrofuro[2,3-d][1,3]dioxol-6-yl] 1-O-[(1S,2R)-1-[[(2S,4S)-2-benzyl-5-[(2S)-2-(tert-butylcarbamoyl)-4-(pyridin-3-ylmethyl)piperazin-1-yl]-4-hydroxypentanoyl]amino]-2,3-dihydro-1H-inden-2-yl] hexanedioate;2,2,2-trifluoroacetic acid
> <PUBCHEM_IUPAC_SYSTEMATIC_NAME>
O6-[(5R,6S,6aS)-5-(2,2-dimethyl-1,3-dioxolan-4-yl)-2,2-dimethyl-3a,5,6,6a-tetrahydrofuro[2,3-d][1,3]dioxol-6-yl] O1-[(1S,2R)-1-[[(2S,4S)-5-[(2S)-2-(tert-butylcarbamoyl)-4-(pyridin-3-ylmethyl)piperazin-1-yl]-4-oxidanyl-2-(phenylmethyl)pentanoyl]amino]-2,3-dihydro-1H-inden-2-yl] hexanedioate;2,2,2-tris(fluoranyl)ethanoic acid
> <PUBCHEM_IUPAC_TRADITIONAL_NAME>
adipic acid O6-[(5R,6S,6aS)-5-(2,2-dimethyl-1,3-dioxolan-4-yl)-2,2-dimethyl-3a,5,6,6a-tetrahydrofuro[2,3-d][1,3]dioxol-6-yl] ester O1-[(1S,2R)-1-[[(2S,4S)-2-benzyl-5-[(2S)-2-(tert-butylcarbamoyl)-4-(3-pyridylmethyl)piperazino]-4-hydroxy-pentanoyl]amino]indan-2-yl] ester;2,2,2-trifluoroacetic acid
> <PUBCHEM_IUPAC_INCHI>
InChI=1S/C54H73N5O12.3C2HF3O2/c1-52(2,3)57-50(64)40-32-58(30-35-18-15-23-55-29-35)24-25-59(40)31-38(60)27-37(26-34-16-9-8-10-17-34)49(63)56-45-39-20-12-11-19-36(39)28-41(45)66-43(61)21-13-14-22-44(62)67-47-46(42-33-65-53(4,5)69-42)68-51-48(47)70-54(6,7)71-51;3*3-2(4,5)1(6)7/h8-12,15-20,23,29,37-38,40-42,45-48,51,60H,13-14,21-22,24-28,30-33H2,1-7H3,(H,56,63)(H,57,64);3*(H,6,7)/t37-,38-,40-,41+,42?,45-,46+,47-,48-,51?;;;/m0.../s1
> <PUBCHEM_IUPAC_INCHIKEY>
BTBQFSUZNVHUQA-OYZGELJBSA-N
> <PUBCHEM_EXACT_MASS>
1325.50416405
> <PUBCHEM_MOLECULAR_FORMULA>
C60H76F9N5O18
> <PUBCHEM_MOLECULAR_WEIGHT>
1326.3
> <PUBCHEM_OPENEYE_CAN_SMILES>
CC1(OCC(O1)C2C(C3C(O2)OC(O3)(C)C)OC(=O)CCCCC(=O)OC4CC5=CC=CC=C5C4NC(=O)C(CC6=CC=CC=C6)CC(CN7CCN(CC7C(=O)NC(C)(C)C)CC8=CN=CC=C8)O)C.C(=O)(C(F)(F)F)O.C(=O)(C(F)(F)F)O.C(=O)(C(F)(F)F)O
> <PUBCHEM_OPENEYE_ISO_SMILES>
CC1(OCC(O1)[C@@H]2[C@@H]([C@H]3C(O2)OC(O3)(C)C)OC(=O)CCCCC(=O)O[C@@H]4CC5=CC=CC=C5[C@@H]4NC(=O)[C@@H](CC6=CC=CC=C6)C[C@@H](CN7CCN(C[C@H]7C(=O)NC(C)(C)C)CC8=CN=CC=C8)O)C.C(=O)(C(F)(F)F)O.C(=O)(C(F)(F)F)O.C(=O)(C(F)(F)F)O
> <PUBCHEM_CACTVS_TPSA>
308
> <PUBCHEM_MONOISOTOPIC_WEIGHT>
1325.50416405
> <PUBCHEM_TOTAL_CHARGE>
0
> <PUBCHEM_HEAVY_ATOM_COUNT>
92
> <PUBCHEM_ATOM_DEF_STEREO_COUNT>
8
> <PUBCHEM_ATOM_UDEF_STEREO_COUNT>
2
> <PUBCHEM_BOND_DEF_STEREO_COUNT>
0
> <PUBCHEM_BOND_UDEF_STEREO_COUNT>
0
> <PUBCHEM_ISOTOPIC_ATOM_COUNT>
0
> <PUBCHEM_COMPONENT_COUNT>
4
> <PUBCHEM_CACTVS_TAUTO_COUNT>
-1
> <PUBCHEM_COORDINATE_TYPE>
1
5
255
> <PUBCHEM_BONDANNOTATIONS>
36  12  3
35  14  6
56  17  6
53  18  6
54  30  6
32  79  8
32  86  8
33  93  5
34  94  5
37  39  3
48  61  5
58  57  6
60  62  8
60  69  8
62  70  8
69  73  8
70  74  8
71  78  8
71  79  8
72  80  8
72  81  8
73  74  8
78  82  8
80  83  8
81  84  8
82  86  8
83  85  8
84  85  8
$$$$
