500802
  -OEChem-10302200282D
103107  0     1  0  0  0  0  0999 V2000
   12.8249   -1.1713    0.0000 O   0  0  0  0  0  0  0  0  0  0  0  0
   11.4236   -0.1532    0.0000 O   0  0  0  0  0  0  0  0  0  0  0  0
   10.4291   -0.0487    0.0000 O   0  0  0  0  0  0  0  0  0  0  0  0
    6.3981   -1.5896    0.0000 O   0  0  0  0  0  0  0  0  0  0  0  0
    9.7480    1.1309    0.0000 O   0  0  0  0  0  0  0  0  0  0  0  0
    6.5834    2.5399    0.0000 O   0  0  0  0  0  0  0  0  0  0  0  0
    8.3914    4.4715    0.0000 O   0  0  0  0  0  0  0  0  0  0  0  0
    6.9902    3.4535    0.0000 O   0  0  0  0  0  0  0  0  0  0  0  0
    2.8680   -4.6137    0.0000 O   0  0  0  0  0  0  0  0  0  0  0  0
   10.2480   -1.7712    0.0000 N   0  0  0  0  0  0  0  0  0  0  0  0
    8.3468    0.1129    0.0000 N   0  0  0  0  0  0  0  0  0  0  0  0
    8.5725    2.7490    0.0000 N   0  0  0  0  0  0  0  0  0  0  0  0
    6.3981   -4.5896    0.0000 N   0  0  0  0  0  0  0  0  0  0  0  0
   11.2426   -1.8758    0.0000 C   0  0  3  0  0  0  0  0  0  0  0  0
   11.1380   -2.8703    0.0000 C   0  0  2  0  0  0  0  0  0  0  0  0
   12.0516   -2.4636    0.0000 C   0  0  0  0  0  0  0  0  0  0  0  0
   11.8303   -1.0668    0.0000 C   0  0  0  0  0  0  0  0  0  0  0  0
   10.5502   -3.6793    0.0000 C   0  0  0  0  0  0  0  0  0  0  0  0
    8.8468   -0.7532    0.0000 C   0  0  2  0  0  0  0  0  0  0  0  0
    9.8413   -0.8577    0.0000 C   0  0  0  0  0  0  0  0  0  0  0  0
    8.1776   -1.4963    0.0000 C   0  0  0  0  0  0  0  0  0  0  0  0
    7.2641   -1.0896    0.0000 C   0  0  2  0  0  0  0  0  0  0  0  0
    7.3686   -0.0950    0.0000 C   0  0  0  0  0  0  0  0  0  0  0  0
   10.9570   -4.5928    0.0000 C   0  0  0  0  0  0  0  0  0  0  0  0
    8.7535    1.0264    0.0000 C   0  0  0  0  0  0  0  0  0  0  0  0
    8.1657    1.8354    0.0000 C   0  0  2  0  0  0  0  0  0  0  0  0
    7.1712    1.7309    0.0000 C   0  0  3  0  0  0  0  0  0  0  0  0
    6.3981   -2.5896    0.0000 C   0  0  0  0  0  0  0  0  0  0  0  0
    6.7645    0.8174    0.0000 C   0  0  0  0  0  0  0  0  0  0  0  0
    5.5889    2.4354    0.0000 C   0  0  0  0  0  0  0  0  0  0  0  0
    5.5320   -3.0896    0.0000 C   0  0  0  0  0  0  0  0  0  0  0  0
    7.2641   -3.0896    0.0000 C   0  0  0  0  0  0  0  0  0  0  0  0
    7.9847    3.5580    0.0000 C   0  0  0  0  0  0  0  0  0  0  0  0
    5.5320   -4.0896    0.0000 C   0  0  0  0  0  0  0  0  0  0  0  0
    7.2641   -4.0896    0.0000 C   0  0  0  0  0  0  0  0  0  0  0  0
    4.5944    2.3309    0.0000 C   0  0  0  0  0  0  0  0  0  0  0  0
    5.4844    3.4299    0.0000 C   0  0  0  0  0  0  0  0  0  0  0  0
    5.6934    1.4409    0.0000 C   0  0  0  0  0  0  0  0  0  0  0  0
    4.6381   -2.5549    0.0000 C   0  0  0  0  0  0  0  0  0  0  0  0
    4.6381   -4.6242    0.0000 C   0  0  0  0  0  0  0  0  0  0  0  0
    7.8036    5.2806    0.0000 C   0  0  0  0  0  0  0  0  0  0  0  0
    3.7320   -3.0688    0.0000 C   0  0  0  0  0  0  0  0  0  0  0  0
    8.1301   -4.5896    0.0000 C   0  0  0  0  0  0  0  0  0  0  0  0
    3.7320   -4.1104    0.0000 C   0  0  0  0  0  0  0  0  0  0  0  0
    7.2158    6.0896    0.0000 C   0  0  0  0  0  0  0  0  0  0  0  0
    8.6126    5.8683    0.0000 C   0  0  0  0  0  0  0  0  0  0  0  0
    6.9946    4.6928    0.0000 C   0  0  0  0  0  0  0  0  0  0  0  0
    8.9962   -4.0896    0.0000 C   0  0  0  0  0  0  0  0  0  0  0  0
    8.1301   -5.5896    0.0000 C   0  0  0  0  0  0  0  0  0  0  0  0
    9.8622   -4.5896    0.0000 C   0  0  0  0  0  0  0  0  0  0  0  0
    8.9962   -6.0896    0.0000 C   0  0  0  0  0  0  0  0  0  0  0  0
    9.8622   -5.5896    0.0000 C   0  0  0  0  0  0  0  0  0  0  0  0
    2.0000   -4.1171    0.0000 C   0  0  0  0  0  0  0  0  0  0  0  0
   10.5592   -2.6481    0.0000 H   0  0  0  0  0  0  0  0  0  0  0  0
   12.3983   -2.9776    0.0000 H   0  0  0  0  0  0  0  0  0  0  0  0
   12.4976   -2.0329    0.0000 H   0  0  0  0  0  0  0  0  0  0  0  0
    9.8836   -2.2728    0.0000 H   0  0  0  0  0  0  0  0  0  0  0  0
    9.9336   -3.6145    0.0000 H   0  0  0  0  0  0  0  0  0  0  0  0
    9.1844   -0.2332    0.0000 H   0  0  0  0  0  0  0  0  0  0  0  0
    7.8676   -2.0332    0.0000 H   0  0  0  0  0  0  0  0  0  0  0  0
    8.6792   -1.8607    0.0000 H   0  0  0  0  0  0  0  0  0  0  0  0
    6.7441   -0.7519    0.0000 H   0  0  0  0  0  0  0  0  0  0  0  0
    7.3038    0.5216    0.0000 H   0  0  0  0  0  0  0  0  0  0  0  0
    6.7486   -0.0950    0.0000 H   0  0  0  0  0  0  0  0  0  0  0  0
   10.5926   -5.0944    0.0000 H   0  0  0  0  0  0  0  0  0  0  0  0
   11.5736   -4.6577    0.0000 H   0  0  0  0  0  0  0  0  0  0  0  0
   13.1893   -0.6697    0.0000 H   0  0  0  0  0  0  0  0  0  0  0  0
    8.7823    1.9002    0.0000 H   0  0  0  0  0  0  0  0  0  0  0  0
    7.4234    2.2973    0.0000 H   0  0  0  0  0  0  0  0  0  0  0  0
    9.1891    2.8138    0.0000 H   0  0  0  0  0  0  0  0  0  0  0  0
    6.1981    1.0695    0.0000 H   0  0  0  0  0  0  0  0  0  0  0  0
    6.5123    0.2510    0.0000 H   0  0  0  0  0  0  0  0  0  0  0  0
    7.3309    0.5652    0.0000 H   0  0  0  0  0  0  0  0  0  0  0  0
    7.8010   -2.7796    0.0000 H   0  0  0  0  0  0  0  0  0  0  0  0
    4.5296    2.9475    0.0000 H   0  0  0  0  0  0  0  0  0  0  0  0
    3.9778    2.2660    0.0000 H   0  0  0  0  0  0  0  0  0  0  0  0
    4.6592    1.7143    0.0000 H   0  0  0  0  0  0  0  0  0  0  0  0
    6.1010    3.4947    0.0000 H   0  0  0  0  0  0  0  0  0  0  0  0
    5.4196    4.0465    0.0000 H   0  0  0  0  0  0  0  0  0  0  0  0
    4.8678    3.3651    0.0000 H   0  0  0  0  0  0  0  0  0  0  0  0
    5.0768    1.3761    0.0000 H   0  0  0  0  0  0  0  0  0  0  0  0
    5.7582    0.8243    0.0000 H   0  0  0  0  0  0  0  0  0  0  0  0
    6.3100    1.5057    0.0000 H   0  0  0  0  0  0  0  0  0  0  0  0
    4.6453   -1.9350    0.0000 H   0  0  0  0  0  0  0  0  0  0  0  0
    4.6453   -5.2442    0.0000 H   0  0  0  0  0  0  0  0  0  0  0  0
    3.1963   -2.7567    0.0000 H   0  0  0  0  0  0  0  0  0  0  0  0
    7.7174    6.4540    0.0000 H   0  0  0  0  0  0  0  0  0  0  0  0
    6.8514    6.5912    0.0000 H   0  0  0  0  0  0  0  0  0  0  0  0
    6.7142    5.7251    0.0000 H   0  0  0  0  0  0  0  0  0  0  0  0
    8.9771    5.3668    0.0000 H   0  0  0  0  0  0  0  0  0  0  0  0
    9.1142    6.2328    0.0000 H   0  0  0  0  0  0  0  0  0  0  0  0
    8.2482    6.3699    0.0000 H   0  0  0  0  0  0  0  0  0  0  0  0
    6.6302    5.1944    0.0000 H   0  0  0  0  0  0  0  0  0  0  0  0
    6.4930    4.3283    0.0000 H   0  0  0  0  0  0  0  0  0  0  0  0
    7.3590    4.1912    0.0000 H   0  0  0  0  0  0  0  0  0  0  0  0
    8.9962   -3.4696    0.0000 H   0  0  0  0  0  0  0  0  0  0  0  0
    7.5932   -5.8996    0.0000 H   0  0  0  0  0  0  0  0  0  0  0  0
   10.3991   -4.2796    0.0000 H   0  0  0  0  0  0  0  0  0  0  0  0
    8.9962   -6.7096    0.0000 H   0  0  0  0  0  0  0  0  0  0  0  0
   10.3991   -5.8996    0.0000 H   0  0  0  0  0  0  0  0  0  0  0  0
    2.3079   -3.5789    0.0000 H   0  0  0  0  0  0  0  0  0  0  0  0
    1.4619   -3.8091    0.0000 H   0  0  0  0  0  0  0  0  0  0  0  0
    1.6921   -4.6552    0.0000 H   0  0  0  0  0  0  0  0  0  0  0  0
  1 17  1  0  0  0  0
  1 67  1  0  0  0  0
  2 17  2  0  0  0  0
  3 20  2  0  0  0  0
 22  4  1  1  0  0  0
  4 28  1  0  0  0  0
  5 25  2  0  0  0  0
  6 27  1  0  0  0  0
  6 30  1  0  0  0  0
  7 33  1  0  0  0  0
  7 41  1  0  0  0  0
  8 33  2  0  0  0  0
  9 44  1  0  0  0  0
  9 53  1  0  0  0  0
 10 14  1  0  0  0  0
 10 20  1  0  0  0  0
 10 57  1  0  0  0  0
 11 19  1  0  0  0  0
 11 23  1  0  0  0  0
 11 25  1  0  0  0  0
 26 12  1  6  0  0  0
 12 33  1  0  0  0  0
 12 70  1  0  0  0  0
 13 34  1  0  0  0  0
 13 35  2  0  0  0  0
 14 15  1  0  0  0  0
 14 16  1  0  0  0  0
 14 17  1  0  0  0  0
 15 16  1  0  0  0  0
 15 18  1  6  0  0  0
 15 54  1  0  0  0  0
 16 55  1  0  0  0  0
 16 56  1  0  0  0  0
 18 24  2  0  0  0  0
 18 58  1  0  0  0  0
 19 20  1  6  0  0  0
 19 21  1  0  0  0  0
 19 59  1  0  0  0  0
 21 22  1  0  0  0  0
 21 60  1  0  0  0  0
 21 61  1  0  0  0  0
 22 23  1  0  0  0  0
 22 62  1  0  0  0  0
 23 63  1  0  0  0  0
 23 64  1  0  0  0  0
 24 65  1  0  0  0  0
 24 66  1  0  0  0  0
 25 26  1  0  0  0  0
 26 27  1  0  0  0  0
 26 68  1  0  0  0  0
 27 29  1  0  0  0  0
 27 69  1  0  0  0  0
 28 31  1  0  0  0  0
 28 32  2  0  0  0  0
 29 71  1  0  0  0  0
 29 72  1  0  0  0  0
 29 73  1  0  0  0  0
 30 36  1  0  0  0  0
 30 37  1  0  0  0  0
 30 38  1  0  0  0  0
 31 34  2  0  0  0  0
 31 39  1  0  0  0  0
 32 35  1  0  0  0  0
 32 74  1  0  0  0  0
 34 40  1  0  0  0  0
 35 43  1  0  0  0  0
 36 75  1  0  0  0  0
 36 76  1  0  0  0  0
 36 77  1  0  0  0  0
 37 78  1  0  0  0  0
 37 79  1  0  0  0  0
 37 80  1  0  0  0  0
 38 81  1  0  0  0  0
 38 82  1  0  0  0  0
 38 83  1  0  0  0  0
 39 42  2  0  0  0  0
 39 84  1  0  0  0  0
 40 44  2  0  0  0  0
 40 85  1  0  0  0  0
 41 45  1  0  0  0  0
 41 46  1  0  0  0  0
 41 47  1  0  0  0  0
 42 44  1  0  0  0  0
 42 86  1  0  0  0  0
 43 48  2  0  0  0  0
 43 49  1  0  0  0  0
 45 87  1  0  0  0  0
 45 88  1  0  0  0  0
 45 89  1  0  0  0  0
 46 90  1  0  0  0  0
 46 91  1  0  0  0  0
 46 92  1  0  0  0  0
 47 93  1  0  0  0  0
 47 94  1  0  0  0  0
 47 95  1  0  0  0  0
 48 50  1  0  0  0  0
 48 96  1  0  0  0  0
 49 51  2  0  0  0  0
 49 97  1  0  0  0  0
 50 52  2  0  0  0  0
 50 98  1  0  0  0  0
 51 52  1  0  0  0  0
 51 99  1  0  0  0  0
 52100  1  0  0  0  0
 53101  1  0  0  0  0
 53102  1  0  0  0  0
 53103  1  0  0  0  0
M  END
> <PUBCHEM_COMPOUND_CID>
500802
> <PUBCHEM_COMPOUND_CANONICALIZED>
1
> <PUBCHEM_CACTVS_COMPLEXITY>
1340
> <PUBCHEM_CACTVS_HBOND_ACCEPTOR>
10
> <PUBCHEM_CACTVS_HBOND_DONOR>
3
> <PUBCHEM_CACTVS_ROTATABLE_BOND>
15
> <PUBCHEM_CACTVS_SUBSKEYS>
AAADcfB/vAAAAAAAAAAAAAAAGAAAAWAAAAA8YIAAAAAAAACx9AAAHgAQCAAADfzhngYyzvPIFgCoAyXyXACCiCAhIiAImKG+bJkOZvbEsbufeCjm9hnY6Ae68e8OIAAAAgACAABAAAAEAAQAAAAAAAAAAA==
> <PUBCHEM_IUPAC_OPENEYE_NAME>
(2R)-1-[[(2S,4R)-1-[(2S)-3-tert-butoxy-2-(tert-butoxycarbonylamino)butanoyl]-4-[(7-methoxy-2-phenyl-4-quinolyl)oxy]pyrrolidine-2-carbonyl]amino]-2-vinyl-cyclopropanecarboxylic acid
> <PUBCHEM_IUPAC_CAS_NAME>
(2R)-2-ethenyl-1-[[[(2S,4R)-4-[(7-methoxy-2-phenyl-4-quinolinyl)oxy]-1-[(2S)-3-[(2-methylpropan-2-yl)oxy]-2-[[(2-methylpropan-2-yl)oxy-oxomethyl]amino]-1-oxobutyl]-2-pyrrolidinyl]-oxomethyl]amino]-1-cyclopropanecarboxylic acid
> <PUBCHEM_IUPAC_NAME_MARKUP>
(2<I>R</I>)-2-ethenyl-1-[[(2<I>S</I>,4<I>R</I>)-4-(7-methoxy-2-phenylquinolin-4-yl)oxy-1-[(2<I>S</I>)-3-[(2-methylpropan-2-yl)oxy]-2-[(2-methylpropan-2-yl)oxycarbonylamino]butanoyl]pyrrolidine-2-carbonyl]amino]cyclopropane-1-carboxylic acid
> <PUBCHEM_IUPAC_NAME>
(2R)-2-ethenyl-1-[[(2S,4R)-4-(7-methoxy-2-phenylquinolin-4-yl)oxy-1-[(2S)-3-[(2-methylpropan-2-yl)oxy]-2-[(2-methylpropan-2-yl)oxycarbonylamino]butanoyl]pyrrolidine-2-carbonyl]amino]cyclopropane-1-carboxylic acid
> <PUBCHEM_IUPAC_SYSTEMATIC_NAME>
(2R)-2-ethenyl-1-[[(2S,4R)-4-(7-methoxy-2-phenyl-quinolin-4-yl)oxy-1-[(2S)-3-[(2-methylpropan-2-yl)oxy]-2-[(2-methylpropan-2-yl)oxycarbonylamino]butanoyl]pyrrolidin-2-yl]carbonylamino]cyclopropane-1-carboxylic acid
> <PUBCHEM_IUPAC_TRADITIONAL_NAME>
(2R)-1-[[(2S,4R)-1-[(2S)-3-tert-butoxy-2-(tert-butoxycarbonylamino)butanoyl]-4-[(7-methoxy-2-phenyl-4-quinolyl)oxy]prolyl]amino]-2-vinyl-cyclopropanecarboxylic acid
> <PUBCHEM_IUPAC_INCHI>
InChI=1S/C40H50N4O9/c1-10-25-21-40(25,36(47)48)43-34(45)31-19-27(22-44(31)35(46)33(23(2)52-38(3,4)5)42-37(49)53-39(6,7)8)51-32-20-29(24-14-12-11-13-15-24)41-30-18-26(50-9)16-17-28(30)32/h10-18,20,23,25,27,31,33H,1,19,21-22H2,2-9H3,(H,42,49)(H,43,45)(H,47,48)/t23?,25-,27+,31-,33-,40?/m0/s1
> <PUBCHEM_IUPAC_INCHIKEY>
WFGCYXLZQZUGGQ-AXPKMVLISA-N
> <PUBCHEM_XLOGP3_AA>
5.4
> <PUBCHEM_EXACT_MASS>
730.35777919
> <PUBCHEM_MOLECULAR_FORMULA>
C40H50N4O9
> <PUBCHEM_MOLECULAR_WEIGHT>
730.8
> <PUBCHEM_OPENEYE_CAN_SMILES>
CC(C(C(=O)N1CC(CC1C(=O)NC2(CC2C=C)C(=O)O)OC3=CC(=NC4=C3C=CC(=C4)OC)C5=CC=CC=C5)NC(=O)OC(C)(C)C)OC(C)(C)C
> <PUBCHEM_OPENEYE_ISO_SMILES>
CC([C@@H](C(=O)N1C[C@@H](C[C@H]1C(=O)NC2(C[C@@H]2C=C)C(=O)O)OC3=CC(=NC4=C3C=CC(=C4)OC)C5=CC=CC=C5)NC(=O)OC(C)(C)C)OC(C)(C)C
> <PUBCHEM_CACTVS_TPSA>
166
> <PUBCHEM_MONOISOTOPIC_WEIGHT>
730.35777919
> <PUBCHEM_TOTAL_CHARGE>
0
> <PUBCHEM_HEAVY_ATOM_COUNT>
53
> <PUBCHEM_ATOM_DEF_STEREO_COUNT>
4
> <PUBCHEM_ATOM_UDEF_STEREO_COUNT>
2
> <PUBCHEM_BOND_DEF_STEREO_COUNT>
0
> <PUBCHEM_BOND_UDEF_STEREO_COUNT>
0
> <PUBCHEM_ISOTOPIC_ATOM_COUNT>
0
> <PUBCHEM_COMPONENT_COUNT>
1
> <PUBCHEM_CACTVS_TAUTO_COUNT>
-1
> <PUBCHEM_COORDINATE_TYPE>
1
5
255
> <PUBCHEM_BONDANNOTATIONS>
26  12  6
13  34  8
13  35  8
14  17  3
15  18  6
19  20  6
27  29  3
28  31  8
28  32  8
31  34  8
31  39  8
32  35  8
34  40  8
39  42  8
22  4  5
40  44  8
42  44  8
43  48  8
43  49  8
48  50  8
49  51  8
50  52  8
51  52  8
$$$$
