500842
  -OEChem-10302200282D
 87 92  0     1  0  0  0  0  0999 V2000
    8.2417    4.8817    0.0000 O   0  0  0  0  0  0  0  0  0  0  0  0
    8.4227    3.1592    0.0000 O   0  0  0  0  0  0  0  0  0  0  0  0
    4.6660   -0.4749    0.0000 O   0  0  0  0  0  0  0  0  0  0  0  0
    8.0160    2.2456    0.0000 O   0  0  0  0  0  0  0  0  0  0  0  0
    8.6970    1.0660    0.0000 O   0  0  0  0  0  0  0  0  0  0  0  0
    6.4337    2.9501    0.0000 N   0  0  0  0  0  0  0  0  0  0  0  0
    7.1147    0.3615    0.0000 N   0  0  0  0  0  0  0  0  0  0  0  0
    9.5105   -0.7611    0.0000 N   0  0  3  0  0  0  0  0  0  0  0  0
    4.6660   -3.4749    0.0000 N   0  0  0  0  0  0  0  0  0  0  0  0
    6.8404    3.8637    0.0000 C   0  0  3  0  0  0  0  0  0  0  0  0
    5.9269    4.2704    0.0000 C   0  0  2  0  0  0  0  0  0  0  0  0
    6.7359    4.8582    0.0000 C   0  0  0  0  0  0  0  0  0  0  0  0
    7.8350    3.9682    0.0000 C   0  0  0  0  0  0  0  0  0  0  0  0
    4.9324    4.1659    0.0000 C   0  0  0  0  0  0  0  0  0  0  0  0
    6.6147    1.2276    0.0000 C   0  0  2  0  0  0  0  0  0  0  0  0
    7.0215    2.1411    0.0000 C   0  0  0  0  0  0  0  0  0  0  0  0
    5.6366    1.0196    0.0000 C   0  0  0  0  0  0  0  0  0  0  0  0
    5.5321    0.0251    0.0000 C   0  0  2  0  0  0  0  0  0  0  0  0
    6.4456   -0.3816    0.0000 C   0  0  0  0  0  0  0  0  0  0  0  0
    8.1093    0.2570    0.0000 C   0  0  0  0  0  0  0  0  0  0  0  0
    4.3446    4.9749    0.0000 C   0  0  0  0  0  0  0  0  0  0  0  0
    8.5160   -0.6565    0.0000 C   0  0  2  0  0  0  0  0  0  0  0  0
    7.9282   -1.4656    0.0000 C   0  0  0  0  0  0  0  0  0  0  0  0
    4.6660   -1.4749    0.0000 C   0  0  0  0  0  0  0  0  0  0  0  0
    6.9337   -1.3610    0.0000 C   0  0  0  0  0  0  0  0  0  0  0  0
    8.3349   -2.3791    0.0000 C   0  0  0  0  0  0  0  0  0  0  0  0
    9.9172   -1.6746    0.0000 C   0  0  0  0  0  0  0  0  0  0  0  0
   10.0983    0.0479    0.0000 C   0  0  0  0  0  0  0  0  0  0  0  0
    3.8000   -1.9749    0.0000 C   0  0  0  0  0  0  0  0  0  0  0  0
    5.5321   -1.9749    0.0000 C   0  0  0  0  0  0  0  0  0  0  0  0
    3.8000   -2.9749    0.0000 C   0  0  0  0  0  0  0  0  0  0  0  0
    9.3295   -2.4836    0.0000 C   0  0  0  0  0  0  0  0  0  0  0  0
   10.9118   -1.7792    0.0000 C   0  0  0  0  0  0  0  0  0  0  0  0
    5.5321   -2.9749    0.0000 C   0  0  0  0  0  0  0  0  0  0  0  0
    2.9061   -1.4402    0.0000 C   0  0  0  0  0  0  0  0  0  0  0  0
    9.7362   -3.3972    0.0000 C   0  0  0  0  0  0  0  0  0  0  0  0
   11.3185   -2.6927    0.0000 C   0  0  0  0  0  0  0  0  0  0  0  0
    2.9061   -3.5095    0.0000 C   0  0  0  0  0  0  0  0  0  0  0  0
    6.3981   -3.4749    0.0000 C   0  0  0  0  0  0  0  0  0  0  0  0
    2.0000   -1.9541    0.0000 C   0  0  0  0  0  0  0  0  0  0  0  0
   10.7307   -3.5017    0.0000 C   0  0  0  0  0  0  0  0  0  0  0  0
    2.0000   -2.9957    0.0000 C   0  0  0  0  0  0  0  0  0  0  0  0
    6.3981   -4.4749    0.0000 C   0  0  0  0  0  0  0  0  0  0  0  0
    7.2641   -2.9749    0.0000 C   0  0  0  0  0  0  0  0  0  0  0  0
    7.2641   -4.9749    0.0000 C   0  0  0  0  0  0  0  0  0  0  0  0
    8.1301   -3.4749    0.0000 C   0  0  0  0  0  0  0  0  0  0  0  0
    8.1301   -4.4749    0.0000 C   0  0  0  0  0  0  0  0  0  0  0  0
    5.8299    3.6580    0.0000 H   0  0  0  0  0  0  0  0  0  0  0  0
    7.3319    5.0291    0.0000 H   0  0  0  0  0  0  0  0  0  0  0  0
    6.4641    5.4154    0.0000 H   0  0  0  0  0  0  0  0  0  0  0  0
    5.8171    2.8853    0.0000 H   0  0  0  0  0  0  0  0  0  0  0  0
    4.6802    3.5995    0.0000 H   0  0  0  0  0  0  0  0  0  0  0  0
    7.2339    1.2600    0.0000 H   0  0  0  0  0  0  0  0  0  0  0  0
    5.5718    1.6362    0.0000 H   0  0  0  0  0  0  0  0  0  0  0  0
    5.0166    1.0196    0.0000 H   0  0  0  0  0  0  0  0  0  0  0  0
    5.5645   -0.5940    0.0000 H   0  0  0  0  0  0  0  0  0  0  0  0
    6.1356   -0.9186    0.0000 H   0  0  0  0  0  0  0  0  0  0  0  0
    6.9472   -0.7460    0.0000 H   0  0  0  0  0  0  0  0  0  0  0  0
    4.5968    5.5413    0.0000 H   0  0  0  0  0  0  0  0  0  0  0  0
    3.7280    4.9101    0.0000 H   0  0  0  0  0  0  0  0  0  0  0  0
    8.7682   -1.2230    0.0000 H   0  0  0  0  0  0  0  0  0  0  0  0
    8.8583    4.9465    0.0000 H   0  0  0  0  0  0  0  0  0  0  0  0
    7.5638   -1.9672    0.0000 H   0  0  0  0  0  0  0  0  0  0  0  0
    6.9985   -0.7444    0.0000 H   0  0  0  0  0  0  0  0  0  0  0  0
    6.3171   -1.2962    0.0000 H   0  0  0  0  0  0  0  0  0  0  0  0
    6.8689   -1.9776    0.0000 H   0  0  0  0  0  0  0  0  0  0  0  0
    7.7686   -2.6313    0.0000 H   0  0  0  0  0  0  0  0  0  0  0  0
    8.5871   -2.9455    0.0000 H   0  0  0  0  0  0  0  0  0  0  0  0
    8.9013   -2.1269    0.0000 H   0  0  0  0  0  0  0  0  0  0  0  0
   10.5999   -0.3165    0.0000 H   0  0  0  0  0  0  0  0  0  0  0  0
   10.4627    0.5495    0.0000 H   0  0  0  0  0  0  0  0  0  0  0  0
    9.5967    0.4124    0.0000 H   0  0  0  0  0  0  0  0  0  0  0  0
    6.0690   -1.6649    0.0000 H   0  0  0  0  0  0  0  0  0  0  0  0
    8.7129   -2.4188    0.0000 H   0  0  0  0  0  0  0  0  0  0  0  0
   11.2762   -1.2776    0.0000 H   0  0  0  0  0  0  0  0  0  0  0  0
    2.9132   -0.8203    0.0000 H   0  0  0  0  0  0  0  0  0  0  0  0
    9.3718   -3.8988    0.0000 H   0  0  0  0  0  0  0  0  0  0  0  0
   11.9351   -2.7575    0.0000 H   0  0  0  0  0  0  0  0  0  0  0  0
    2.9132   -4.1295    0.0000 H   0  0  0  0  0  0  0  0  0  0  0  0
    1.4643   -1.6420    0.0000 H   0  0  0  0  0  0  0  0  0  0  0  0
   10.9829   -4.0681    0.0000 H   0  0  0  0  0  0  0  0  0  0  0  0
    1.4643   -3.3078    0.0000 H   0  0  0  0  0  0  0  0  0  0  0  0
    5.8612   -4.7849    0.0000 H   0  0  0  0  0  0  0  0  0  0  0  0
    7.2641   -2.3549    0.0000 H   0  0  0  0  0  0  0  0  0  0  0  0
    7.2641   -5.5949    0.0000 H   0  0  0  0  0  0  0  0  0  0  0  0
    8.6671   -3.1649    0.0000 H   0  0  0  0  0  0  0  0  0  0  0  0
    8.6671   -4.7849    0.0000 H   0  0  0  0  0  0  0  0  0  0  0  0
  1 13  1  0  0  0  0
  1 62  1  0  0  0  0
  2 13  2  0  0  0  0
 18  3  1  6  0  0  0
  3 24  1  0  0  0  0
  4 16  2  0  0  0  0
  5 20  2  0  0  0  0
  6 10  1  0  0  0  0
  6 16  1  0  0  0  0
  6 51  1  0  0  0  0
  7 15  1  0  0  0  0
  7 19  1  0  0  0  0
  7 20  1  0  0  0  0
 22  8  1  1  0  0  0
  8 27  1  0  0  0  0
  8 28  1  0  0  0  0
  9 31  1  0  0  0  0
  9 34  2  0  0  0  0
 10 11  1  0  0  0  0
 10 12  1  0  0  0  0
 10 13  1  0  0  0  0
 11 12  1  0  0  0  0
 11 14  1  1  0  0  0
 11 48  1  0  0  0  0
 12 49  1  0  0  0  0
 12 50  1  0  0  0  0
 14 21  2  0  0  0  0
 14 52  1  0  0  0  0
 15 16  1  1  0  0  0
 15 17  1  0  0  0  0
 15 53  1  0  0  0  0
 17 18  1  0  0  0  0
 17 54  1  0  0  0  0
 17 55  1  0  0  0  0
 18 19  1  0  0  0  0
 18 56  1  0  0  0  0
 19 57  1  0  0  0  0
 19 58  1  0  0  0  0
 20 22  1  0  0  0  0
 21 59  1  0  0  0  0
 21 60  1  0  0  0  0
 22 23  1  0  0  0  0
 22 61  1  0  0  0  0
 23 25  1  0  0  0  0
 23 26  1  0  0  0  0
 23 63  1  0  0  0  0
 24 29  1  0  0  0  0
 24 30  2  0  0  0  0
 25 64  1  0  0  0  0
 25 65  1  0  0  0  0
 25 66  1  0  0  0  0
 26 67  1  0  0  0  0
 26 68  1  0  0  0  0
 26 69  1  0  0  0  0
 27 32  2  0  0  0  0
 27 33  1  0  0  0  0
 28 70  1  0  0  0  0
 28 71  1  0  0  0  0
 28 72  1  0  0  0  0
 29 31  1  0  0  0  0
 29 35  2  0  0  0  0
 30 34  1  0  0  0  0
 30 73  1  0  0  0  0
 31 38  2  0  0  0  0
 32 36  1  0  0  0  0
 32 74  1  0  0  0  0
 33 37  2  0  0  0  0
 33 75  1  0  0  0  0
 34 39  1  0  0  0  0
 35 40  1  0  0  0  0
 35 76  1  0  0  0  0
 36 41  2  0  0  0  0
 36 77  1  0  0  0  0
 37 41  1  0  0  0  0
 37 78  1  0  0  0  0
 38 42  1  0  0  0  0
 38 79  1  0  0  0  0
 39 43  2  0  0  0  0
 39 44  1  0  0  0  0
 40 42  2  0  0  0  0
 40 80  1  0  0  0  0
 41 81  1  0  0  0  0
 42 82  1  0  0  0  0
 43 45  1  0  0  0  0
 43 83  1  0  0  0  0
 44 46  2  0  0  0  0
 44 84  1  0  0  0  0
 45 47  2  0  0  0  0
 45 85  1  0  0  0  0
 46 47  1  0  0  0  0
 46 86  1  0  0  0  0
 47 87  1  0  0  0  0
M  END
> <PUBCHEM_COMPOUND_CID>
500842
> <PUBCHEM_COMPOUND_CANONICALIZED>
1
> <PUBCHEM_CACTVS_COMPLEXITY>
1140
> <PUBCHEM_CACTVS_HBOND_ACCEPTOR>
7
> <PUBCHEM_CACTVS_HBOND_DONOR>
2
> <PUBCHEM_CACTVS_ROTATABLE_BOND>
11
> <PUBCHEM_CACTVS_SUBSKEYS>
AAADcfB/uAAAAAAAAAAAAAAAGAAAAWAAAAA8YMEAAAAAAACx9AAAHgAQCAAADbzhngYyzvPIFgCoAyXyXACCiCAhIiAImCG+bJgOZvLEsbuXeCjm1hnY6Ae6weAOAAAAAAACAAAAAAAAAAQAAAAAAAAAAA==
> <PUBCHEM_IUPAC_OPENEYE_NAME>
(2R)-1-[[(2S,4R)-1-[(2S)-3-methyl-2-(N-methylanilino)butanoyl]-4-[(2-phenyl-4-quinolyl)oxy]pyrrolidine-2-carbonyl]amino]-2-vinyl-cyclopropanecarboxylic acid
> <PUBCHEM_IUPAC_CAS_NAME>
(2R)-2-ethenyl-1-[[[(2S,4R)-1-[(2S)-3-methyl-2-(N-methylanilino)-1-oxobutyl]-4-[(2-phenyl-4-quinolinyl)oxy]-2-pyrrolidinyl]-oxomethyl]amino]-1-cyclopropanecarboxylic acid
> <PUBCHEM_IUPAC_NAME_MARKUP>
(2<I>R</I>)-2-ethenyl-1-[[(2<I>S</I>,4<I>R</I>)-1-[(2<I>S</I>)-3-methyl-2-(<I>N</I>-methylanilino)butanoyl]-4-(2-phenylquinolin-4-yl)oxypyrrolidine-2-carbonyl]amino]cyclopropane-1-carboxylic acid
> <PUBCHEM_IUPAC_NAME>
(2R)-2-ethenyl-1-[[(2S,4R)-1-[(2S)-3-methyl-2-(N-methylanilino)butanoyl]-4-(2-phenylquinolin-4-yl)oxypyrrolidine-2-carbonyl]amino]cyclopropane-1-carboxylic acid
> <PUBCHEM_IUPAC_SYSTEMATIC_NAME>
(2R)-2-ethenyl-1-[[(2S,4R)-1-[(2S)-3-methyl-2-[methyl(phenyl)amino]butanoyl]-4-(2-phenylquinolin-4-yl)oxy-pyrrolidin-2-yl]carbonylamino]cyclopropane-1-carboxylic acid
> <PUBCHEM_IUPAC_TRADITIONAL_NAME>
(2R)-1-[[(2S,4R)-1-[(2S)-3-methyl-2-(N-methylanilino)butanoyl]-4-[(2-phenyl-4-quinolyl)oxy]prolyl]amino]-2-vinyl-cyclopropanecarboxylic acid
> <PUBCHEM_IUPAC_INCHI>
InChI=1S/C38H40N4O5/c1-5-26-22-38(26,37(45)46)40-35(43)32-20-28(23-42(32)36(44)34(24(2)3)41(4)27-16-10-7-11-17-27)47-33-21-31(25-14-8-6-9-15-25)39-30-19-13-12-18-29(30)33/h5-19,21,24,26,28,32,34H,1,20,22-23H2,2-4H3,(H,40,43)(H,45,46)/t26-,28+,32-,34-,38?/m0/s1
> <PUBCHEM_IUPAC_INCHIKEY>
CHERNCZBXHHYKF-BHBSRIJTSA-N
> <PUBCHEM_XLOGP3_AA>
6.6
> <PUBCHEM_EXACT_MASS>
632.29987039
> <PUBCHEM_MOLECULAR_FORMULA>
C38H40N4O5
> <PUBCHEM_MOLECULAR_WEIGHT>
632.7
> <PUBCHEM_OPENEYE_CAN_SMILES>
CC(C)C(C(=O)N1CC(CC1C(=O)NC2(CC2C=C)C(=O)O)OC3=CC(=NC4=CC=CC=C43)C5=CC=CC=C5)N(C)C6=CC=CC=C6
> <PUBCHEM_OPENEYE_ISO_SMILES>
CC(C)[C@@H](C(=O)N1C[C@@H](C[C@H]1C(=O)NC2(C[C@@H]2C=C)C(=O)O)OC3=CC(=NC4=CC=CC=C43)C5=CC=CC=C5)N(C)C6=CC=CC=C6
> <PUBCHEM_CACTVS_TPSA>
112
> <PUBCHEM_MONOISOTOPIC_WEIGHT>
632.29987039
> <PUBCHEM_TOTAL_CHARGE>
0
> <PUBCHEM_HEAVY_ATOM_COUNT>
47
> <PUBCHEM_ATOM_DEF_STEREO_COUNT>
4
> <PUBCHEM_ATOM_UDEF_STEREO_COUNT>
1
> <PUBCHEM_BOND_DEF_STEREO_COUNT>
0
> <PUBCHEM_BOND_UDEF_STEREO_COUNT>
0
> <PUBCHEM_ISOTOPIC_ATOM_COUNT>
0
> <PUBCHEM_COMPONENT_COUNT>
1
> <PUBCHEM_CACTVS_TAUTO_COUNT>
-1
> <PUBCHEM_COORDINATE_TYPE>
1
5
255
> <PUBCHEM_BONDANNOTATIONS>
10  13  3
11  14  5
15  16  5
24  29  8
24  30  8
27  32  8
27  33  8
29  31  8
29  35  8
18  3  6
30  34  8
31  38  8
32  36  8
33  37  8
35  40  8
36  41  8
37  41  8
38  42  8
39  43  8
39  44  8
40  42  8
43  45  8
44  46  8
45  47  8
46  47  8
22  8  5
9  31  8
9  34  8
$$$$
