500869
  -OEChem-10302200282D
 83 86  0     1  0  0  0  0  0999 V2000
    6.3301    3.4050    0.0000 O   0  0  0  0  0  0  0  0  0  0  0  0
    7.1962    0.9050    0.0000 O   0  0  0  0  0  0  0  0  0  0  0  0
    3.7320   -1.0950    0.0000 O   0  0  0  0  0  0  0  0  0  0  0  0
    3.7320    0.9050    0.0000 O   0  0  0  0  0  0  0  0  0  0  0  0
    8.0622    0.4050    0.0000 O   0  0  0  0  0  0  0  0  0  0  0  0
   12.3923    0.9050    0.0000 O   0  0  0  0  0  0  0  0  0  0  0  0
    5.4641    0.9050    0.0000 N   0  0  0  0  0  0  0  0  0  0  0  0
    8.0622    2.4050    0.0000 N   0  0  0  0  0  0  0  0  0  0  0  0
    8.9282    1.9050    0.0000 N   0  0  0  0  0  0  0  0  0  0  0  0
    3.7320   -5.0950    0.0000 N   0  0  0  0  0  0  0  0  0  0  0  0
    5.4641    1.9050    0.0000 C   0  0  2  0  0  0  0  0  0  0  0  0
    6.3301    2.4050    0.0000 C   0  0  1  0  0  0  0  0  0  0  0  0
    4.5981    2.4050    0.0000 C   0  0  0  0  0  0  0  0  0  0  0  0
    7.1962    1.9050    0.0000 C   0  0  0  0  0  0  0  0  0  0  0  0
    4.5981    3.4050    0.0000 C   0  0  0  0  0  0  0  0  0  0  0  0
    8.0622    3.4050    0.0000 C   0  0  0  0  0  0  0  0  0  0  0  0
    4.5981    0.4050    0.0000 C   0  0  0  0  0  0  0  0  0  0  0  0
    3.7320    3.9050    0.0000 C   0  0  0  0  0  0  0  0  0  0  0  0
    5.4641    3.9050    0.0000 C   0  0  0  0  0  0  0  0  0  0  0  0
    4.5981   -0.5950    0.0000 C   0  0  0  0  0  0  0  0  0  0  0  0
    8.9282    3.9050    0.0000 C   0  0  0  0  0  0  0  0  0  0  0  0
    3.7320    4.9050    0.0000 C   0  0  0  0  0  0  0  0  0  0  0  0
    5.4641    4.9050    0.0000 C   0  0  0  0  0  0  0  0  0  0  0  0
    4.5981    5.4050    0.0000 C   0  0  0  0  0  0  0  0  0  0  0  0
    8.9282    0.9050    0.0000 C   0  0  0  0  0  0  0  0  0  0  0  0
    3.7320   -2.0950    0.0000 C   0  0  0  0  0  0  0  0  0  0  0  0
    9.7942    3.4050    0.0000 C   0  0  0  0  0  0  0  0  0  0  0  0
    8.9282    4.9050    0.0000 C   0  0  0  0  0  0  0  0  0  0  0  0
    9.7942    0.4050    0.0000 C   0  0  0  0  0  0  0  0  0  0  0  0
    4.5981   -2.5950    0.0000 C   0  0  0  0  0  0  0  0  0  0  0  0
    2.8660   -2.5950    0.0000 C   0  0  0  0  0  0  0  0  0  0  0  0
   10.6603    0.9050    0.0000 C   0  0  0  0  0  0  0  0  0  0  0  0
   10.6603    3.9050    0.0000 C   0  0  0  0  0  0  0  0  0  0  0  0
    9.7942    5.4050    0.0000 C   0  0  0  0  0  0  0  0  0  0  0  0
    4.5981   -3.5950    0.0000 C   0  0  0  0  0  0  0  0  0  0  0  0
    2.8660   -3.5950    0.0000 C   0  0  0  0  0  0  0  0  0  0  0  0
    9.7942   -0.5950    0.0000 C   0  0  0  0  0  0  0  0  0  0  0  0
   10.6603    4.9050    0.0000 C   0  0  0  0  0  0  0  0  0  0  0  0
    3.7320   -4.0950    0.0000 C   0  0  0  0  0  0  0  0  0  0  0  0
    5.4641   -2.0950    0.0000 C   0  0  0  0  0  0  0  0  0  0  0  0
    2.0000   -2.0950    0.0000 C   0  0  0  0  0  0  0  0  0  0  0  0
   11.5263    0.4050    0.0000 C   0  0  0  0  0  0  0  0  0  0  0  0
   10.6603    1.9050    0.0000 C   0  0  0  0  0  0  0  0  0  0  0  0
   10.6603   -1.0950    0.0000 C   0  0  0  0  0  0  0  0  0  0  0  0
   11.5263   -0.5950    0.0000 C   0  0  0  0  0  0  0  0  0  0  0  0
    6.0010    1.5950    0.0000 H   0  0  0  0  0  0  0  0  0  0  0  0
    6.8671    2.7150    0.0000 H   0  0  0  0  0  0  0  0  0  0  0  0
    3.9875    2.5127    0.0000 H   0  0  0  0  0  0  0  0  0  0  0  0
    4.3860    1.8224    0.0000 H   0  0  0  0  0  0  0  0  0  0  0  0
    6.0010    0.5950    0.0000 H   0  0  0  0  0  0  0  0  0  0  0  0
    7.8501    3.9876    0.0000 H   0  0  0  0  0  0  0  0  0  0  0  0
    7.4516    3.2973    0.0000 H   0  0  0  0  0  0  0  0  0  0  0  0
    6.8671    3.7150    0.0000 H   0  0  0  0  0  0  0  0  0  0  0  0
    3.1951    3.5950    0.0000 H   0  0  0  0  0  0  0  0  0  0  0  0
    6.0010    3.5950    0.0000 H   0  0  0  0  0  0  0  0  0  0  0  0
    9.4651    2.2150    0.0000 H   0  0  0  0  0  0  0  0  0  0  0  0
    4.8101   -1.1776    0.0000 H   0  0  0  0  0  0  0  0  0  0  0  0
    5.2087   -0.4873    0.0000 H   0  0  0  0  0  0  0  0  0  0  0  0
    3.1951    5.2150    0.0000 H   0  0  0  0  0  0  0  0  0  0  0  0
    6.0010    5.2150    0.0000 H   0  0  0  0  0  0  0  0  0  0  0  0
    4.5981    6.0250    0.0000 H   0  0  0  0  0  0  0  0  0  0  0  0
    9.7942    2.7850    0.0000 H   0  0  0  0  0  0  0  0  0  0  0  0
    8.3913    5.2150    0.0000 H   0  0  0  0  0  0  0  0  0  0  0  0
   11.1972    3.5950    0.0000 H   0  0  0  0  0  0  0  0  0  0  0  0
    9.7942    6.0250    0.0000 H   0  0  0  0  0  0  0  0  0  0  0  0
    5.1350   -3.9050    0.0000 H   0  0  0  0  0  0  0  0  0  0  0  0
    2.3291   -3.9050    0.0000 H   0  0  0  0  0  0  0  0  0  0  0  0
    9.2573   -0.9050    0.0000 H   0  0  0  0  0  0  0  0  0  0  0  0
   11.1972    5.2150    0.0000 H   0  0  0  0  0  0  0  0  0  0  0  0
    5.7741   -2.6319    0.0000 H   0  0  0  0  0  0  0  0  0  0  0  0
    6.0010   -1.7850    0.0000 H   0  0  0  0  0  0  0  0  0  0  0  0
    5.1541   -1.5581    0.0000 H   0  0  0  0  0  0  0  0  0  0  0  0
    2.3100   -1.5581    0.0000 H   0  0  0  0  0  0  0  0  0  0  0  0
    1.4631   -1.7850    0.0000 H   0  0  0  0  0  0  0  0  0  0  0  0
    1.6900   -2.6319    0.0000 H   0  0  0  0  0  0  0  0  0  0  0  0
   11.2803    1.9050    0.0000 H   0  0  0  0  0  0  0  0  0  0  0  0
   10.6603    2.5250    0.0000 H   0  0  0  0  0  0  0  0  0  0  0  0
   10.0403    1.9050    0.0000 H   0  0  0  0  0  0  0  0  0  0  0  0
   10.6603   -1.7150    0.0000 H   0  0  0  0  0  0  0  0  0  0  0  0
   12.0632   -0.9050    0.0000 H   0  0  0  0  0  0  0  0  0  0  0  0
    3.1951   -5.4050    0.0000 H   0  0  0  0  0  0  0  0  0  0  0  0
    4.2690   -5.4050    0.0000 H   0  0  0  0  0  0  0  0  0  0  0  0
   12.9292    0.5950    0.0000 H   0  0  0  0  0  0  0  0  0  0  0  0
 12  1  1  6  0  0  0
  1 53  1  0  0  0  0
  2 14  2  0  0  0  0
  3 20  1  0  0  0  0
  3 26  1  0  0  0  0
  4 17  2  0  0  0  0
  5 25  2  0  0  0  0
  6 42  1  0  0  0  0
  6 83  1  0  0  0  0
 11  7  1  1  0  0  0
  7 17  1  0  0  0  0
  7 50  1  0  0  0  0
  8  9  1  0  0  0  0
  8 14  1  0  0  0  0
  8 16  1  0  0  0  0
  9 25  1  0  0  0  0
  9 56  1  0  0  0  0
 10 39  1  0  0  0  0
 10 81  1  0  0  0  0
 10 82  1  0  0  0  0
 11 12  1  0  0  0  0
 11 13  1  0  0  0  0
 11 46  1  0  0  0  0
 12 14  1  0  0  0  0
 12 47  1  0  0  0  0
 13 15  1  0  0  0  0
 13 48  1  0  0  0  0
 13 49  1  0  0  0  0
 15 18  2  0  0  0  0
 15 19  1  0  0  0  0
 16 21  1  0  0  0  0
 16 51  1  0  0  0  0
 16 52  1  0  0  0  0
 17 20  1  0  0  0  0
 18 22  1  0  0  0  0
 18 54  1  0  0  0  0
 19 23  2  0  0  0  0
 19 55  1  0  0  0  0
 20 57  1  0  0  0  0
 20 58  1  0  0  0  0
 21 27  2  0  0  0  0
 21 28  1  0  0  0  0
 22 24  2  0  0  0  0
 22 59  1  0  0  0  0
 23 24  1  0  0  0  0
 23 60  1  0  0  0  0
 24 61  1  0  0  0  0
 25 29  1  0  0  0  0
 26 30  2  0  0  0  0
 26 31  1  0  0  0  0
 27 33  1  0  0  0  0
 27 62  1  0  0  0  0
 28 34  2  0  0  0  0
 28 63  1  0  0  0  0
 29 32  2  0  0  0  0
 29 37  1  0  0  0  0
 30 35  1  0  0  0  0
 30 40  1  0  0  0  0
 31 36  2  0  0  0  0
 31 41  1  0  0  0  0
 32 42  1  0  0  0  0
 32 43  1  0  0  0  0
 33 38  2  0  0  0  0
 33 64  1  0  0  0  0
 34 38  1  0  0  0  0
 34 65  1  0  0  0  0
 35 39  2  0  0  0  0
 35 66  1  0  0  0  0
 36 39  1  0  0  0  0
 36 67  1  0  0  0  0
 37 44  2  0  0  0  0
 37 68  1  0  0  0  0
 38 69  1  0  0  0  0
 40 70  1  0  0  0  0
 40 71  1  0  0  0  0
 40 72  1  0  0  0  0
 41 73  1  0  0  0  0
 41 74  1  0  0  0  0
 41 75  1  0  0  0  0
 42 45  2  0  0  0  0
 43 76  1  0  0  0  0
 43 77  1  0  0  0  0
 43 78  1  0  0  0  0
 44 45  1  0  0  0  0
 44 79  1  0  0  0  0
 45 80  1  0  0  0  0
M  END
> <PUBCHEM_COMPOUND_CID>
500869
> <PUBCHEM_COMPOUND_CANONICALIZED>
1
> <PUBCHEM_CACTVS_COMPLEXITY>
942
> <PUBCHEM_CACTVS_HBOND_ACCEPTOR>
7
> <PUBCHEM_CACTVS_HBOND_DONOR>
5
> <PUBCHEM_CACTVS_ROTATABLE_BOND>
11
> <PUBCHEM_CACTVS_SUBSKEYS>
AAADcfB/uAAAAAAAAAAAAAAAAAAAAAAAAAAwYMGAAAAAAAABVAAAHgAYCAAADDzhmAYyxoLiBgCIAiVSUAKCCAAkIgAaqIFObMgONjqG9Z+HeSjk1hGY+Ye6yPCOgEADQAAYAAAAgAaAADAAAAAAAAAAAA==
> <PUBCHEM_IUPAC_OPENEYE_NAME>
2-(4-amino-2,6-dimethyl-phenoxy)-N-[(1S,2S)-1-benzyl-3-[benzyl-[(3-hydroxy-2-methyl-benzoyl)amino]amino]-2-hydroxy-3-oxo-propyl]acetamide
> <PUBCHEM_IUPAC_CAS_NAME>
2-(4-amino-2,6-dimethylphenoxy)-N-[(2S,3S)-3-hydroxy-4-[[[(3-hydroxy-2-methylphenyl)-oxomethyl]amino]-(phenylmethyl)amino]-4-oxo-1-phenylbutan-2-yl]acetamide
> <PUBCHEM_IUPAC_NAME_MARKUP>
2-(4-amino-2,6-dimethylphenoxy)-<I>N</I>-[(2<I>S</I>,3<I>S</I>)-4-[benzyl-[(3-hydroxy-2-methylbenzoyl)amino]amino]-3-hydroxy-4-oxo-1-phenylbutan-2-yl]acetamide
> <PUBCHEM_IUPAC_NAME>
2-(4-amino-2,6-dimethylphenoxy)-N-[(2S,3S)-4-[benzyl-[(3-hydroxy-2-methylbenzoyl)amino]amino]-3-hydroxy-4-oxo-1-phenylbutan-2-yl]acetamide
> <PUBCHEM_IUPAC_SYSTEMATIC_NAME>
2-(4-azanyl-2,6-dimethyl-phenoxy)-N-[(2S,3S)-4-[[(2-methyl-3-oxidanyl-phenyl)carbonylamino]-(phenylmethyl)amino]-3-oxidanyl-4-oxidanylidene-1-phenyl-butan-2-yl]ethanamide
> <PUBCHEM_IUPAC_TRADITIONAL_NAME>
2-(4-amino-2,6-dimethyl-phenoxy)-N-[(1S,2S)-1-benzyl-3-[benzyl-[(3-hydroxy-2-methyl-benzoyl)amino]amino]-2-hydroxy-3-keto-propyl]acetamide
> <PUBCHEM_IUPAC_INCHI>
InChI=1S/C35H38N4O6/c1-22-17-27(36)18-23(2)33(22)45-21-31(41)37-29(19-25-11-6-4-7-12-25)32(42)35(44)39(20-26-13-8-5-9-14-26)38-34(43)28-15-10-16-30(40)24(28)3/h4-18,29,32,40,42H,19-21,36H2,1-3H3,(H,37,41)(H,38,43)/t29-,32-/m0/s1
> <PUBCHEM_IUPAC_INCHIKEY>
CCMWJBLUUBHGCP-NYDCQLBNSA-N
> <PUBCHEM_XLOGP3_AA>
4.9
> <PUBCHEM_EXACT_MASS>
610.27913494
> <PUBCHEM_MOLECULAR_FORMULA>
C35H38N4O6
> <PUBCHEM_MOLECULAR_WEIGHT>
610.7
> <PUBCHEM_OPENEYE_CAN_SMILES>
CC1=CC(=CC(=C1OCC(=O)NC(CC2=CC=CC=C2)C(C(=O)N(CC3=CC=CC=C3)NC(=O)C4=C(C(=CC=C4)O)C)O)C)N
> <PUBCHEM_OPENEYE_ISO_SMILES>
CC1=CC(=CC(=C1OCC(=O)N[C@@H](CC2=CC=CC=C2)[C@@H](C(=O)N(CC3=CC=CC=C3)NC(=O)C4=C(C(=CC=C4)O)C)O)C)N
> <PUBCHEM_CACTVS_TPSA>
154
> <PUBCHEM_MONOISOTOPIC_WEIGHT>
610.27913494
> <PUBCHEM_TOTAL_CHARGE>
0
> <PUBCHEM_HEAVY_ATOM_COUNT>
45
> <PUBCHEM_ATOM_DEF_STEREO_COUNT>
2
> <PUBCHEM_ATOM_UDEF_STEREO_COUNT>
0
> <PUBCHEM_BOND_DEF_STEREO_COUNT>
0
> <PUBCHEM_BOND_UDEF_STEREO_COUNT>
0
> <PUBCHEM_ISOTOPIC_ATOM_COUNT>
0
> <PUBCHEM_COMPONENT_COUNT>
1
> <PUBCHEM_CACTVS_TAUTO_COUNT>
-1
> <PUBCHEM_COORDINATE_TYPE>
1
5
255
> <PUBCHEM_BONDANNOTATIONS>
12  1  6
15  18  8
15  19  8
18  22  8
19  23  8
21  27  8
21  28  8
22  24  8
23  24  8
26  30  8
26  31  8
27  33  8
28  34  8
29  32  8
29  37  8
30  35  8
31  36  8
32  42  8
33  38  8
34  38  8
35  39  8
36  39  8
37  44  8
42  45  8
44  45  8
11  7  5
$$$$
