500868
  -OEChem-10302200282D
 81 84  0     1  0  0  0  0  0999 V2000
    6.3301   -0.1900    0.0000 O   0  0  0  0  0  0  0  0  0  0  0  0
    5.4641    2.3100    0.0000 O   0  0  0  0  0  0  0  0  0  0  0  0
    8.9282   -1.6900    0.0000 O   0  0  0  0  0  0  0  0  0  0  0  0
    7.1962   -0.6900    0.0000 O   0  0  0  0  0  0  0  0  0  0  0  0
    2.8660   -0.1900    0.0000 O   0  0  0  0  0  0  0  0  0  0  0  0
    2.0000   -3.6900    0.0000 O   0  0  0  0  0  0  0  0  0  0  0  0
    8.0622    0.8100    0.0000 N   0  0  0  0  0  0  0  0  0  0  0  0
    4.5981    0.8100    0.0000 N   0  0  0  0  0  0  0  0  0  0  0  0
    4.5981   -0.1900    0.0000 N   0  0  0  0  0  0  0  0  0  0  0  0
    7.1962    1.3100    0.0000 C   0  0  2  0  0  0  0  0  0  0  0  0
    6.3301    0.8100    0.0000 C   0  0  1  0  0  0  0  0  0  0  0  0
    7.1962    2.3100    0.0000 C   0  0  0  0  0  0  0  0  0  0  0  0
    5.4641    1.3100    0.0000 C   0  0  0  0  0  0  0  0  0  0  0  0
    8.0622    2.8100    0.0000 C   0  0  0  0  0  0  0  0  0  0  0  0
    3.7320    1.3100    0.0000 C   0  0  0  0  0  0  0  0  0  0  0  0
    8.0622   -0.1900    0.0000 C   0  0  0  0  0  0  0  0  0  0  0  0
    8.0622    3.8100    0.0000 C   0  0  0  0  0  0  0  0  0  0  0  0
    8.9282    2.3100    0.0000 C   0  0  0  0  0  0  0  0  0  0  0  0
    8.9282   -0.6900    0.0000 C   0  0  0  0  0  0  0  0  0  0  0  0
    3.7320    2.3100    0.0000 C   0  0  0  0  0  0  0  0  0  0  0  0
    8.9282    4.3100    0.0000 C   0  0  0  0  0  0  0  0  0  0  0  0
    9.7942    2.8100    0.0000 C   0  0  0  0  0  0  0  0  0  0  0  0
    9.7942    3.8100    0.0000 C   0  0  0  0  0  0  0  0  0  0  0  0
    3.7320   -0.6900    0.0000 C   0  0  0  0  0  0  0  0  0  0  0  0
    4.5981    2.8100    0.0000 C   0  0  0  0  0  0  0  0  0  0  0  0
    2.8660    2.8100    0.0000 C   0  0  0  0  0  0  0  0  0  0  0  0
    3.7320   -1.6900    0.0000 C   0  0  0  0  0  0  0  0  0  0  0  0
    9.7942   -2.1900    0.0000 C   0  0  0  0  0  0  0  0  0  0  0  0
    2.8660   -2.1900    0.0000 C   0  0  0  0  0  0  0  0  0  0  0  0
    9.7942   -3.1900    0.0000 C   0  0  0  0  0  0  0  0  0  0  0  0
   10.6603   -1.6900    0.0000 C   0  0  0  0  0  0  0  0  0  0  0  0
    4.5981    3.8100    0.0000 C   0  0  0  0  0  0  0  0  0  0  0  0
    2.8660    3.8100    0.0000 C   0  0  0  0  0  0  0  0  0  0  0  0
    4.5981   -2.1900    0.0000 C   0  0  0  0  0  0  0  0  0  0  0  0
    3.7320    4.3100    0.0000 C   0  0  0  0  0  0  0  0  0  0  0  0
    2.8660   -3.1900    0.0000 C   0  0  0  0  0  0  0  0  0  0  0  0
   10.6603   -3.6900    0.0000 C   0  0  0  0  0  0  0  0  0  0  0  0
   11.5263   -2.1900    0.0000 C   0  0  0  0  0  0  0  0  0  0  0  0
    2.0000   -1.6900    0.0000 C   0  0  0  0  0  0  0  0  0  0  0  0
    4.5981   -3.1900    0.0000 C   0  0  0  0  0  0  0  0  0  0  0  0
    8.9282   -3.6900    0.0000 C   0  0  0  0  0  0  0  0  0  0  0  0
   10.6603   -0.6900    0.0000 C   0  0  0  0  0  0  0  0  0  0  0  0
   11.5263   -3.1900    0.0000 C   0  0  0  0  0  0  0  0  0  0  0  0
    3.7320   -3.6900    0.0000 C   0  0  0  0  0  0  0  0  0  0  0  0
    7.7331    1.6200    0.0000 H   0  0  0  0  0  0  0  0  0  0  0  0
    6.8671    0.5000    0.0000 H   0  0  0  0  0  0  0  0  0  0  0  0
    6.9841    2.8926    0.0000 H   0  0  0  0  0  0  0  0  0  0  0  0
    6.5856    2.2023    0.0000 H   0  0  0  0  0  0  0  0  0  0  0  0
    8.5991    1.1200    0.0000 H   0  0  0  0  0  0  0  0  0  0  0  0
    3.1215    1.4177    0.0000 H   0  0  0  0  0  0  0  0  0  0  0  0
    3.5200    0.7274    0.0000 H   0  0  0  0  0  0  0  0  0  0  0  0
    5.7932   -0.5000    0.0000 H   0  0  0  0  0  0  0  0  0  0  0  0
    7.5252    4.1200    0.0000 H   0  0  0  0  0  0  0  0  0  0  0  0
    8.9282    1.6900    0.0000 H   0  0  0  0  0  0  0  0  0  0  0  0
    5.1350   -0.5000    0.0000 H   0  0  0  0  0  0  0  0  0  0  0  0
    9.5388   -0.7977    0.0000 H   0  0  0  0  0  0  0  0  0  0  0  0
    9.1403   -0.1074    0.0000 H   0  0  0  0  0  0  0  0  0  0  0  0
    8.9282    4.9300    0.0000 H   0  0  0  0  0  0  0  0  0  0  0  0
   10.3312    2.5000    0.0000 H   0  0  0  0  0  0  0  0  0  0  0  0
   10.3312    4.1200    0.0000 H   0  0  0  0  0  0  0  0  0  0  0  0
    5.1350    2.5000    0.0000 H   0  0  0  0  0  0  0  0  0  0  0  0
    2.3291    2.5000    0.0000 H   0  0  0  0  0  0  0  0  0  0  0  0
    5.1350    4.1200    0.0000 H   0  0  0  0  0  0  0  0  0  0  0  0
    2.3291    4.1200    0.0000 H   0  0  0  0  0  0  0  0  0  0  0  0
    5.1350   -1.8800    0.0000 H   0  0  0  0  0  0  0  0  0  0  0  0
    3.7320    4.9300    0.0000 H   0  0  0  0  0  0  0  0  0  0  0  0
   10.6603   -4.3100    0.0000 H   0  0  0  0  0  0  0  0  0  0  0  0
   12.0632   -1.8800    0.0000 H   0  0  0  0  0  0  0  0  0  0  0  0
    2.3100   -1.1531    0.0000 H   0  0  0  0  0  0  0  0  0  0  0  0
    1.4631   -1.3800    0.0000 H   0  0  0  0  0  0  0  0  0  0  0  0
    1.6900   -2.2269    0.0000 H   0  0  0  0  0  0  0  0  0  0  0  0
    5.1350   -3.5000    0.0000 H   0  0  0  0  0  0  0  0  0  0  0  0
    8.6182   -3.1531    0.0000 H   0  0  0  0  0  0  0  0  0  0  0  0
    8.3913   -4.0000    0.0000 H   0  0  0  0  0  0  0  0  0  0  0  0
    9.2382   -4.2269    0.0000 H   0  0  0  0  0  0  0  0  0  0  0  0
   11.2803   -0.6900    0.0000 H   0  0  0  0  0  0  0  0  0  0  0  0
   10.6603   -0.0700    0.0000 H   0  0  0  0  0  0  0  0  0  0  0  0
   10.0403   -0.6900    0.0000 H   0  0  0  0  0  0  0  0  0  0  0  0
   12.0632   -3.5000    0.0000 H   0  0  0  0  0  0  0  0  0  0  0  0
    3.7320   -4.3100    0.0000 H   0  0  0  0  0  0  0  0  0  0  0  0
    2.0000   -4.3100    0.0000 H   0  0  0  0  0  0  0  0  0  0  0  0
 11  1  1  6  0  0  0
  1 52  1  0  0  0  0
  2 13  2  0  0  0  0
  3 19  1  0  0  0  0
  3 28  1  0  0  0  0
  4 16  2  0  0  0  0
  5 24  2  0  0  0  0
  6 36  1  0  0  0  0
  6 81  1  0  0  0  0
 10  7  1  6  0  0  0
  7 16  1  0  0  0  0
  7 49  1  0  0  0  0
  8  9  1  0  0  0  0
  8 13  1  0  0  0  0
  8 15  1  0  0  0  0
  9 24  1  0  0  0  0
  9 55  1  0  0  0  0
 10 11  1  0  0  0  0
 10 12  1  0  0  0  0
 10 45  1  0  0  0  0
 11 13  1  0  0  0  0
 11 46  1  0  0  0  0
 12 14  1  0  0  0  0
 12 47  1  0  0  0  0
 12 48  1  0  0  0  0
 14 17  2  0  0  0  0
 14 18  1  0  0  0  0
 15 20  1  0  0  0  0
 15 50  1  0  0  0  0
 15 51  1  0  0  0  0
 16 19  1  0  0  0  0
 17 21  1  0  0  0  0
 17 53  1  0  0  0  0
 18 22  2  0  0  0  0
 18 54  1  0  0  0  0
 19 56  1  0  0  0  0
 19 57  1  0  0  0  0
 20 25  2  0  0  0  0
 20 26  1  0  0  0  0
 21 23  2  0  0  0  0
 21 58  1  0  0  0  0
 22 23  1  0  0  0  0
 22 59  1  0  0  0  0
 23 60  1  0  0  0  0
 24 27  1  0  0  0  0
 25 32  1  0  0  0  0
 25 61  1  0  0  0  0
 26 33  2  0  0  0  0
 26 62  1  0  0  0  0
 27 29  2  0  0  0  0
 27 34  1  0  0  0  0
 28 30  2  0  0  0  0
 28 31  1  0  0  0  0
 29 36  1  0  0  0  0
 29 39  1  0  0  0  0
 30 37  1  0  0  0  0
 30 41  1  0  0  0  0
 31 38  2  0  0  0  0
 31 42  1  0  0  0  0
 32 35  2  0  0  0  0
 32 63  1  0  0  0  0
 33 35  1  0  0  0  0
 33 64  1  0  0  0  0
 34 40  2  0  0  0  0
 34 65  1  0  0  0  0
 35 66  1  0  0  0  0
 36 44  2  0  0  0  0
 37 43  2  0  0  0  0
 37 67  1  0  0  0  0
 38 43  1  0  0  0  0
 38 68  1  0  0  0  0
 39 69  1  0  0  0  0
 39 70  1  0  0  0  0
 39 71  1  0  0  0  0
 40 44  1  0  0  0  0
 40 72  1  0  0  0  0
 41 73  1  0  0  0  0
 41 74  1  0  0  0  0
 41 75  1  0  0  0  0
 42 76  1  0  0  0  0
 42 77  1  0  0  0  0
 42 78  1  0  0  0  0
 43 79  1  0  0  0  0
 44 80  1  0  0  0  0
M  END
> <PUBCHEM_COMPOUND_CID>
500868
> <PUBCHEM_COMPOUND_CANONICALIZED>
1
> <PUBCHEM_CACTVS_COMPLEXITY>
910
> <PUBCHEM_CACTVS_HBOND_ACCEPTOR>
6
> <PUBCHEM_CACTVS_HBOND_DONOR>
4
> <PUBCHEM_CACTVS_ROTATABLE_BOND>
11
> <PUBCHEM_CACTVS_SUBSKEYS>
AAADcfB/OAAAAAAAAAAAAAAAAAAAAAAAAAAwYMGAAAAAAAABVAAAHgAYCAAADDzhmAYyBoLiBgCIAiFSEAKCCAAkIAAaqIFODMgONjqG9R+HeSjk1hGYuYe6yPCOgAADAAAYAAAAAAYAADAAAAAAAAAAAA==
> <PUBCHEM_IUPAC_OPENEYE_NAME>
N-[(1S,2S)-1-benzyl-3-[benzyl-[(3-hydroxy-2-methyl-benzoyl)amino]amino]-2-hydroxy-3-oxo-propyl]-2-(2,6-dimethylphenoxy)acetamide
> <PUBCHEM_IUPAC_CAS_NAME>
2-(2,6-dimethylphenoxy)-N-[(2S,3S)-3-hydroxy-4-[[[(3-hydroxy-2-methylphenyl)-oxomethyl]amino]-(phenylmethyl)amino]-4-oxo-1-phenylbutan-2-yl]acetamide
> <PUBCHEM_IUPAC_NAME_MARKUP>
<I>N</I>-[(2<I>S</I>,3<I>S</I>)-4-[benzyl-[(3-hydroxy-2-methylbenzoyl)amino]amino]-3-hydroxy-4-oxo-1-phenylbutan-2-yl]-2-(2,6-dimethylphenoxy)acetamide
> <PUBCHEM_IUPAC_NAME>
N-[(2S,3S)-4-[benzyl-[(3-hydroxy-2-methylbenzoyl)amino]amino]-3-hydroxy-4-oxo-1-phenylbutan-2-yl]-2-(2,6-dimethylphenoxy)acetamide
> <PUBCHEM_IUPAC_SYSTEMATIC_NAME>
2-(2,6-dimethylphenoxy)-N-[(2S,3S)-4-[[(2-methyl-3-oxidanyl-phenyl)carbonylamino]-(phenylmethyl)amino]-3-oxidanyl-4-oxidanylidene-1-phenyl-butan-2-yl]ethanamide
> <PUBCHEM_IUPAC_TRADITIONAL_NAME>
N-[(1S,2S)-1-benzyl-3-[benzyl-[(3-hydroxy-2-methyl-benzoyl)amino]amino]-2-hydroxy-3-keto-propyl]-2-(2,6-dimethylphenoxy)acetamide
> <PUBCHEM_IUPAC_INCHI>
InChI=1S/C35H37N3O6/c1-23-12-10-13-24(2)33(23)44-22-31(40)36-29(20-26-14-6-4-7-15-26)32(41)35(43)38(21-27-16-8-5-9-17-27)37-34(42)28-18-11-19-30(39)25(28)3/h4-19,29,32,39,41H,20-22H2,1-3H3,(H,36,40)(H,37,42)/t29-,32-/m0/s1
> <PUBCHEM_IUPAC_INCHIKEY>
ANSHJKCMMQZGDP-NYDCQLBNSA-N
> <PUBCHEM_XLOGP3_AA>
5.5
> <PUBCHEM_EXACT_MASS>
595.26823591
> <PUBCHEM_MOLECULAR_FORMULA>
C35H37N3O6
> <PUBCHEM_MOLECULAR_WEIGHT>
595.7
> <PUBCHEM_OPENEYE_CAN_SMILES>
CC1=C(C(=CC=C1)C)OCC(=O)NC(CC2=CC=CC=C2)C(C(=O)N(CC3=CC=CC=C3)NC(=O)C4=C(C(=CC=C4)O)C)O
> <PUBCHEM_OPENEYE_ISO_SMILES>
CC1=C(C(=CC=C1)C)OCC(=O)N[C@@H](CC2=CC=CC=C2)[C@@H](C(=O)N(CC3=CC=CC=C3)NC(=O)C4=C(C(=CC=C4)O)C)O
> <PUBCHEM_CACTVS_TPSA>
128
> <PUBCHEM_MONOISOTOPIC_WEIGHT>
595.26823591
> <PUBCHEM_TOTAL_CHARGE>
0
> <PUBCHEM_HEAVY_ATOM_COUNT>
44
> <PUBCHEM_ATOM_DEF_STEREO_COUNT>
2
> <PUBCHEM_ATOM_UDEF_STEREO_COUNT>
0
> <PUBCHEM_BOND_DEF_STEREO_COUNT>
0
> <PUBCHEM_BOND_UDEF_STEREO_COUNT>
0
> <PUBCHEM_ISOTOPIC_ATOM_COUNT>
0
> <PUBCHEM_COMPONENT_COUNT>
1
> <PUBCHEM_CACTVS_TAUTO_COUNT>
-1
> <PUBCHEM_COORDINATE_TYPE>
1
5
255
> <PUBCHEM_BONDANNOTATIONS>
11  1  6
14  17  8
14  18  8
17  21  8
18  22  8
20  25  8
20  26  8
21  23  8
22  23  8
25  32  8
26  33  8
27  29  8
27  34  8
28  30  8
28  31  8
29  36  8
30  37  8
31  38  8
32  35  8
33  35  8
34  40  8
36  44  8
37  43  8
38  43  8
40  44  8
10  7  6
$$$$
