500812
  -OEChem-10302200282D
 99105  0     1  0  0  0  0  0999 V2000
   12.5074   -6.4176    0.0000 F   0  0  0  0  0  0  0  0  0  0  0  0
    9.9737    6.3245    0.0000 O   0  0  0  0  0  0  0  0  0  0  0  0
   10.1548    4.6019    0.0000 O   0  0  0  0  0  0  0  0  0  0  0  0
    6.3981    0.9679    0.0000 O   0  0  0  0  0  0  0  0  0  0  0  0
    9.7480    3.6884    0.0000 O   0  0  0  0  0  0  0  0  0  0  0  0
   10.4291    2.5088    0.0000 O   0  0  0  0  0  0  0  0  0  0  0  0
   10.8805   -2.7635    0.0000 O   0  0  0  0  0  0  0  0  0  0  0  0
    2.8680   -2.0563    0.0000 O   0  0  0  0  0  0  0  0  0  0  0  0
    8.1657    4.3929    0.0000 N   0  0  0  0  0  0  0  0  0  0  0  0
    8.8468    1.8043    0.0000 N   0  0  0  0  0  0  0  0  0  0  0  0
   11.2426    0.6817    0.0000 N   0  0  0  0  0  0  0  0  0  0  0  0
    6.3981   -2.0321    0.0000 N   0  0  0  0  0  0  0  0  0  0  0  0
    8.5725    5.3064    0.0000 C   0  0  3  0  0  0  0  0  0  0  0  0
    7.6589    5.7132    0.0000 C   0  0  2  0  0  0  0  0  0  0  0  0
    8.4679    6.3009    0.0000 C   0  0  0  0  0  0  0  0  0  0  0  0
    9.5670    5.4109    0.0000 C   0  0  0  0  0  0  0  0  0  0  0  0
    6.6644    5.6086    0.0000 C   0  0  0  0  0  0  0  0  0  0  0  0
    8.3468    2.6703    0.0000 C   0  0  2  0  0  0  0  0  0  0  0  0
    8.7535    3.5838    0.0000 C   0  0  0  0  0  0  0  0  0  0  0  0
    7.3686    2.4624    0.0000 C   0  0  0  0  0  0  0  0  0  0  0  0
    7.2641    1.4679    0.0000 C   0  0  2  0  0  0  0  0  0  0  0  0
    8.1776    1.0611    0.0000 C   0  0  0  0  0  0  0  0  0  0  0  0
    6.0766    6.4176    0.0000 C   0  0  0  0  0  0  0  0  0  0  0  0
    9.8413    1.6998    0.0000 C   0  0  0  0  0  0  0  0  0  0  0  0
   10.2480    0.7862    0.0000 C   0  0  2  0  0  0  0  0  0  0  0  0
    9.6602   -0.0228    0.0000 C   0  0  0  0  0  0  0  0  0  0  0  0
    6.3981   -0.0321    0.0000 C   0  0  0  0  0  0  0  0  0  0  0  0
    8.6657    0.0817    0.0000 C   0  0  0  0  0  0  0  0  0  0  0  0
   10.0670   -0.9364    0.0000 C   0  0  0  0  0  0  0  0  0  0  0  0
    5.5320   -0.5321    0.0000 C   0  0  0  0  0  0  0  0  0  0  0  0
   11.6493   -0.2319    0.0000 C   0  0  0  0  0  0  0  0  0  0  0  0
    7.2641   -0.5321    0.0000 C   0  0  0  0  0  0  0  0  0  0  0  0
    5.5320   -1.5321    0.0000 C   0  0  0  0  0  0  0  0  0  0  0  0
    7.2641   -1.5321    0.0000 C   0  0  0  0  0  0  0  0  0  0  0  0
    4.6381    0.0025    0.0000 C   0  0  0  0  0  0  0  0  0  0  0  0
   11.0615   -1.0409    0.0000 C   0  0  0  0  0  0  0  0  0  0  0  0
   12.6438   -0.3364    0.0000 C   0  0  0  0  0  0  0  0  0  0  0  0
    4.6381   -2.0668    0.0000 C   0  0  0  0  0  0  0  0  0  0  0  0
    3.7320   -0.5113    0.0000 C   0  0  0  0  0  0  0  0  0  0  0  0
    8.1301   -2.0321    0.0000 C   0  0  0  0  0  0  0  0  0  0  0  0
   11.4682   -1.9544    0.0000 C   0  0  0  0  0  0  0  0  0  0  0  0
   13.0505   -1.2499    0.0000 C   0  0  0  0  0  0  0  0  0  0  0  0
    3.7320   -1.5530    0.0000 C   0  0  0  0  0  0  0  0  0  0  0  0
   12.4628   -2.0590    0.0000 C   0  0  0  0  0  0  0  0  0  0  0  0
    8.9962   -1.5321    0.0000 C   0  0  0  0  0  0  0  0  0  0  0  0
    8.1301   -3.0321    0.0000 C   0  0  0  0  0  0  0  0  0  0  0  0
    9.8622   -2.0321    0.0000 C   0  0  0  0  0  0  0  0  0  0  0  0
    8.9962   -3.5321    0.0000 C   0  0  0  0  0  0  0  0  0  0  0  0
    9.8622   -3.0321    0.0000 C   0  0  0  0  0  0  0  0  0  0  0  0
   11.2872   -3.6770    0.0000 C   0  0  0  0  0  0  0  0  0  0  0  0
    2.0000   -1.5596    0.0000 C   0  0  0  0  0  0  0  0  0  0  0  0
   12.2817   -3.7815    0.0000 C   0  0  0  0  0  0  0  0  0  0  0  0
   10.6994   -4.4860    0.0000 C   0  0  0  0  0  0  0  0  0  0  0  0
   12.6885   -4.6951    0.0000 C   0  0  0  0  0  0  0  0  0  0  0  0
   11.1061   -5.3996    0.0000 C   0  0  0  0  0  0  0  0  0  0  0  0
   12.1007   -5.5041    0.0000 C   0  0  0  0  0  0  0  0  0  0  0  0
    7.4367    6.2920    0.0000 H   0  0  0  0  0  0  0  0  0  0  0  0
    9.0639    6.4718    0.0000 H   0  0  0  0  0  0  0  0  0  0  0  0
    8.1961    6.8582    0.0000 H   0  0  0  0  0  0  0  0  0  0  0  0
    7.5491    4.3281    0.0000 H   0  0  0  0  0  0  0  0  0  0  0  0
    6.4122    5.0422    0.0000 H   0  0  0  0  0  0  0  0  0  0  0  0
    8.9659    2.7028    0.0000 H   0  0  0  0  0  0  0  0  0  0  0  0
    7.3038    3.0790    0.0000 H   0  0  0  0  0  0  0  0  0  0  0  0
    6.7486    2.4624    0.0000 H   0  0  0  0  0  0  0  0  0  0  0  0
    6.7441    1.8055    0.0000 H   0  0  0  0  0  0  0  0  0  0  0  0
    7.8676    0.5242    0.0000 H   0  0  0  0  0  0  0  0  0  0  0  0
    8.6792    0.6967    0.0000 H   0  0  0  0  0  0  0  0  0  0  0  0
    6.3288    6.9840    0.0000 H   0  0  0  0  0  0  0  0  0  0  0  0
    5.4600    6.3528    0.0000 H   0  0  0  0  0  0  0  0  0  0  0  0
   10.5903    6.3893    0.0000 H   0  0  0  0  0  0  0  0  0  0  0  0
   10.6125    1.2878    0.0000 H   0  0  0  0  0  0  0  0  0  0  0  0
    9.4081    0.5436    0.0000 H   0  0  0  0  0  0  0  0  0  0  0  0
   11.6070    1.1833    0.0000 H   0  0  0  0  0  0  0  0  0  0  0  0
    8.7305    0.6983    0.0000 H   0  0  0  0  0  0  0  0  0  0  0  0
    8.0491    0.1465    0.0000 H   0  0  0  0  0  0  0  0  0  0  0  0
    8.6009   -0.5349    0.0000 H   0  0  0  0  0  0  0  0  0  0  0  0
    9.5006   -1.1885    0.0000 H   0  0  0  0  0  0  0  0  0  0  0  0
   10.3192   -1.5028    0.0000 H   0  0  0  0  0  0  0  0  0  0  0  0
   10.6334   -0.6842    0.0000 H   0  0  0  0  0  0  0  0  0  0  0  0
    7.8010   -0.2221    0.0000 H   0  0  0  0  0  0  0  0  0  0  0  0
    4.6453    0.6225    0.0000 H   0  0  0  0  0  0  0  0  0  0  0  0
   10.4449   -0.9761    0.0000 H   0  0  0  0  0  0  0  0  0  0  0  0
   13.0082    0.1652    0.0000 H   0  0  0  0  0  0  0  0  0  0  0  0
    4.6453   -2.6868    0.0000 H   0  0  0  0  0  0  0  0  0  0  0  0
    3.1963   -0.1992    0.0000 H   0  0  0  0  0  0  0  0  0  0  0  0
   13.6672   -1.3148    0.0000 H   0  0  0  0  0  0  0  0  0  0  0  0
   12.7149   -2.6254    0.0000 H   0  0  0  0  0  0  0  0  0  0  0  0
    8.9962   -0.9121    0.0000 H   0  0  0  0  0  0  0  0  0  0  0  0
    7.5932   -3.3421    0.0000 H   0  0  0  0  0  0  0  0  0  0  0  0
   10.3991   -1.7221    0.0000 H   0  0  0  0  0  0  0  0  0  0  0  0
    8.9962   -4.1521    0.0000 H   0  0  0  0  0  0  0  0  0  0  0  0
   10.3991   -3.3421    0.0000 H   0  0  0  0  0  0  0  0  0  0  0  0
    2.3079   -1.0215    0.0000 H   0  0  0  0  0  0  0  0  0  0  0  0
    1.4619   -1.2517    0.0000 H   0  0  0  0  0  0  0  0  0  0  0  0
    1.6921   -2.0978    0.0000 H   0  0  0  0  0  0  0  0  0  0  0  0
   12.6461   -3.2799    0.0000 H   0  0  0  0  0  0  0  0  0  0  0  0
   10.0828   -4.4212    0.0000 H   0  0  0  0  0  0  0  0  0  0  0  0
   13.3051   -4.7599    0.0000 H   0  0  0  0  0  0  0  0  0  0  0  0
   10.7417   -5.9012    0.0000 H   0  0  0  0  0  0  0  0  0  0  0  0
  1 56  1  0  0  0  0
  2 16  1  0  0  0  0
  2 70  1  0  0  0  0
  3 16  2  0  0  0  0
 21  4  1  6  0  0  0
  4 27  1  0  0  0  0
  5 19  2  0  0  0  0
  6 24  2  0  0  0  0
  7 41  1  0  0  0  0
  7 50  1  0  0  0  0
  8 43  1  0  0  0  0
  8 51  1  0  0  0  0
  9 13  1  0  0  0  0
  9 19  1  0  0  0  0
  9 60  1  0  0  0  0
 10 18  1  0  0  0  0
 10 22  1  0  0  0  0
 10 24  1  0  0  0  0
 25 11  1  1  0  0  0
 11 31  1  0  0  0  0
 11 73  1  0  0  0  0
 12 33  1  0  0  0  0
 12 34  2  0  0  0  0
 13 14  1  0  0  0  0
 13 15  1  0  0  0  0
 13 16  1  0  0  0  0
 14 15  1  0  0  0  0
 14 17  1  1  0  0  0
 14 57  1  0  0  0  0
 15 58  1  0  0  0  0
 15 59  1  0  0  0  0
 17 23  2  0  0  0  0
 17 61  1  0  0  0  0
 18 19  1  1  0  0  0
 18 20  1  0  0  0  0
 18 62  1  0  0  0  0
 20 21  1  0  0  0  0
 20 63  1  0  0  0  0
 20 64  1  0  0  0  0
 21 22  1  0  0  0  0
 21 65  1  0  0  0  0
 22 66  1  0  0  0  0
 22 67  1  0  0  0  0
 23 68  1  0  0  0  0
 23 69  1  0  0  0  0
 24 25  1  0  0  0  0
 25 26  1  0  0  0  0
 25 71  1  0  0  0  0
 26 28  1  0  0  0  0
 26 29  1  0  0  0  0
 26 72  1  0  0  0  0
 27 30  1  0  0  0  0
 27 32  2  0  0  0  0
 28 74  1  0  0  0  0
 28 75  1  0  0  0  0
 28 76  1  0  0  0  0
 29 77  1  0  0  0  0
 29 78  1  0  0  0  0
 29 79  1  0  0  0  0
 30 33  2  0  0  0  0
 30 35  1  0  0  0  0
 31 36  2  0  0  0  0
 31 37  1  0  0  0  0
 32 34  1  0  0  0  0
 32 80  1  0  0  0  0
 33 38  1  0  0  0  0
 34 40  1  0  0  0  0
 35 39  2  0  0  0  0
 35 81  1  0  0  0  0
 36 41  1  0  0  0  0
 36 82  1  0  0  0  0
 37 42  2  0  0  0  0
 37 83  1  0  0  0  0
 38 43  2  0  0  0  0
 38 84  1  0  0  0  0
 39 43  1  0  0  0  0
 39 85  1  0  0  0  0
 40 45  2  0  0  0  0
 40 46  1  0  0  0  0
 41 44  2  0  0  0  0
 42 44  1  0  0  0  0
 42 86  1  0  0  0  0
 44 87  1  0  0  0  0
 45 47  1  0  0  0  0
 45 88  1  0  0  0  0
 46 48  2  0  0  0  0
 46 89  1  0  0  0  0
 47 49  2  0  0  0  0
 47 90  1  0  0  0  0
 48 49  1  0  0  0  0
 48 91  1  0  0  0  0
 49 92  1  0  0  0  0
 50 52  2  0  0  0  0
 50 53  1  0  0  0  0
 51 93  1  0  0  0  0
 51 94  1  0  0  0  0
 51 95  1  0  0  0  0
 52 54  1  0  0  0  0
 52 96  1  0  0  0  0
 53 55  2  0  0  0  0
 53 97  1  0  0  0  0
 54 56  2  0  0  0  0
 54 98  1  0  0  0  0
 55 56  1  0  0  0  0
 55 99  1  0  0  0  0
M  END
> <PUBCHEM_COMPOUND_CID>
500812
> <PUBCHEM_COMPOUND_CANONICALIZED>
1
> <PUBCHEM_CACTVS_COMPLEXITY>
1370
> <PUBCHEM_CACTVS_HBOND_ACCEPTOR>
10
> <PUBCHEM_CACTVS_HBOND_DONOR>
3
> <PUBCHEM_CACTVS_ROTATABLE_BOND>
14
> <PUBCHEM_CACTVS_SUBSKEYS>
AAADcfB/uQAAAAAAAAAAAAAAGAAAAWAAAAA8YMGCAAAAAACx9AAAHwAQCAAADbzhng4yzvPIFgCoAyXyXACCiCAhIiAImKG+bJgOZvLEsbuXeCjm1hnY6Ae68e8OIAAAAgACAABAAAAEAAQAAAAAAAAAAA==
> <PUBCHEM_IUPAC_OPENEYE_NAME>
(2R)-1-[[(2S,4R)-1-[(2S)-2-[3-(4-fluorophenoxy)anilino]-3-methyl-butanoyl]-4-[(7-methoxy-2-phenyl-4-quinolyl)oxy]pyrrolidine-2-carbonyl]amino]-2-vinyl-cyclopropanecarboxylic acid
> <PUBCHEM_IUPAC_CAS_NAME>
(2R)-2-ethenyl-1-[[[(2S,4R)-1-[(2S)-2-[3-(4-fluorophenoxy)anilino]-3-methyl-1-oxobutyl]-4-[(7-methoxy-2-phenyl-4-quinolinyl)oxy]-2-pyrrolidinyl]-oxomethyl]amino]-1-cyclopropanecarboxylic acid
> <PUBCHEM_IUPAC_NAME_MARKUP>
(2<I>R</I>)-2-ethenyl-1-[[(2<I>S</I>,4<I>R</I>)-1-[(2<I>S</I>)-2-[3-(4-fluorophenoxy)anilino]-3-methylbutanoyl]-4-(7-methoxy-2-phenylquinolin-4-yl)oxypyrrolidine-2-carbonyl]amino]cyclopropane-1-carboxylic acid
> <PUBCHEM_IUPAC_NAME>
(2R)-2-ethenyl-1-[[(2S,4R)-1-[(2S)-2-[3-(4-fluorophenoxy)anilino]-3-methylbutanoyl]-4-(7-methoxy-2-phenylquinolin-4-yl)oxypyrrolidine-2-carbonyl]amino]cyclopropane-1-carboxylic acid
> <PUBCHEM_IUPAC_SYSTEMATIC_NAME>
(2R)-2-ethenyl-1-[[(2S,4R)-1-[(2S)-2-[[3-(4-fluoranylphenoxy)phenyl]amino]-3-methyl-butanoyl]-4-(7-methoxy-2-phenyl-quinolin-4-yl)oxy-pyrrolidin-2-yl]carbonylamino]cyclopropane-1-carboxylic acid
> <PUBCHEM_IUPAC_TRADITIONAL_NAME>
(2R)-1-[[(2S,4R)-1-[(2S)-2-[3-(4-fluorophenoxy)anilino]-3-methyl-butanoyl]-4-[(7-methoxy-2-phenyl-4-quinolyl)oxy]prolyl]amino]-2-vinyl-cyclopropanecarboxylic acid
> <PUBCHEM_IUPAC_INCHI>
InChI=1S/C44H43FN4O7/c1-5-28-24-44(28,43(52)53)48-41(50)38-22-34(56-39-23-36(27-10-7-6-8-11-27)47-37-21-32(54-4)18-19-35(37)39)25-49(38)42(51)40(26(2)3)46-30-12-9-13-33(20-30)55-31-16-14-29(45)15-17-31/h5-21,23,26,28,34,38,40,46H,1,22,24-25H2,2-4H3,(H,48,50)(H,52,53)/t28-,34+,38-,40-,44?/m0/s1
> <PUBCHEM_IUPAC_INCHIKEY>
RXFNLOVUOCCQFL-HMHXVUDJSA-N
> <PUBCHEM_XLOGP3_AA>
8.1
> <PUBCHEM_EXACT_MASS>
758.31157789
> <PUBCHEM_MOLECULAR_FORMULA>
C44H43FN4O7
> <PUBCHEM_MOLECULAR_WEIGHT>
758.8
> <PUBCHEM_OPENEYE_CAN_SMILES>
CC(C)C(C(=O)N1CC(CC1C(=O)NC2(CC2C=C)C(=O)O)OC3=CC(=NC4=C3C=CC(=C4)OC)C5=CC=CC=C5)NC6=CC(=CC=C6)OC7=CC=C(C=C7)F
> <PUBCHEM_OPENEYE_ISO_SMILES>
CC(C)[C@@H](C(=O)N1C[C@@H](C[C@H]1C(=O)NC2(C[C@@H]2C=C)C(=O)O)OC3=CC(=NC4=C3C=CC(=C4)OC)C5=CC=CC=C5)NC6=CC(=CC=C6)OC7=CC=C(C=C7)F
> <PUBCHEM_CACTVS_TPSA>
139
> <PUBCHEM_MONOISOTOPIC_WEIGHT>
758.31157789
> <PUBCHEM_TOTAL_CHARGE>
0
> <PUBCHEM_HEAVY_ATOM_COUNT>
56
> <PUBCHEM_ATOM_DEF_STEREO_COUNT>
4
> <PUBCHEM_ATOM_UDEF_STEREO_COUNT>
1
> <PUBCHEM_BOND_DEF_STEREO_COUNT>
0
> <PUBCHEM_BOND_UDEF_STEREO_COUNT>
0
> <PUBCHEM_ISOTOPIC_ATOM_COUNT>
0
> <PUBCHEM_COMPONENT_COUNT>
1
> <PUBCHEM_CACTVS_TAUTO_COUNT>
-1
> <PUBCHEM_COORDINATE_TYPE>
1
5
255
> <PUBCHEM_BONDANNOTATIONS>
25  11  5
12  33  8
12  34  8
13  16  3
14  17  5
18  19  5
27  30  8
27  32  8
30  33  8
30  35  8
31  36  8
31  37  8
32  34  8
33  38  8
35  39  8
36  41  8
37  42  8
38  43  8
39  43  8
21  4  6
40  45  8
40  46  8
41  44  8
42  44  8
45  47  8
46  48  8
47  49  8
48  49  8
50  52  8
50  53  8
52  54  8
53  55  8
54  56  8
55  56  8
$$$$
