500860
  -OEChem-10302200282D
144151  0     1  0  0  0  0  0999 V2000
   18.9970   -4.0908    0.0000 O   0  0  0  0  0  0  0  0  0  0  0  0
   18.0485   -1.7877    0.0000 O   0  0  0  0  0  0  0  0  0  0  0  0
   19.5792   -2.2851    0.0000 O   0  0  0  0  0  0  0  0  0  0  0  0
   16.7859   -5.6599    0.0000 O   0  0  0  0  0  0  0  0  0  0  0  0
   16.4582   -3.5908    0.0000 O   0  0  0  0  0  0  0  0  0  0  0  0
   17.7369   -6.9689    0.0000 O   0  0  0  0  0  0  0  0  0  0  0  0
   16.4582   -1.8588    0.0000 O   0  0  0  0  0  0  0  0  0  0  0  0
   11.4582   -0.1267    0.0000 O   0  0  0  0  0  0  0  0  0  0  0  0
    7.8710    2.9109    0.0000 O   0  0  0  0  0  0  0  0  0  0  0  0
    7.1567    6.3006    0.0000 O   0  0  0  0  0  0  0  0  0  0  0  0
    8.5389    2.1666    0.0000 O   0  0  0  0  0  0  0  0  0  0  0  0
   11.4582   -1.8588    0.0000 O   0  0  0  0  0  0  0  0  0  0  0  0
    6.5354    4.3995    0.0000 N   0  0  3  0  0  0  0  0  0  0  0  0
    4.5783    3.9871    0.0000 N   0  0  3  0  0  0  0  0  0  0  0  0
   10.1852    1.6286    0.0000 N   0  0  0  0  0  0  0  0  0  0  0  0
    5.5103    6.8387    0.0000 N   0  0  0  0  0  0  0  0  0  0  0  0
    3.6464    1.1355    0.0000 N   0  0  0  0  0  0  0  0  0  0  0  0
   18.0460   -2.7818    0.0000 C   0  0  1  0  0  0  0  0  0  0  0  0
   18.0460   -4.3998    0.0000 C   0  0  1  0  0  0  0  0  0  0  0  0
   17.4582   -3.5908    0.0000 C   0  0  2  0  0  0  0  0  0  0  0  0
   18.9970   -3.0908    0.0000 C   0  0  3  0  0  0  0  0  0  0  0  0
   17.7369   -5.3509    0.0000 C   0  0  3  0  0  0  0  0  0  0  0  0
   18.9942   -1.4813    0.0000 C   0  0  0  0  0  0  0  0  0  0  0  0
   18.3247   -6.1599    0.0000 C   0  0  0  0  0  0  0  0  0  0  0  0
   16.7859   -6.6599    0.0000 C   0  0  0  0  0  0  0  0  0  0  0  0
   19.8032   -0.8936    0.0000 C   0  0  0  0  0  0  0  0  0  0  0  0
   18.6852   -0.5303    0.0000 C   0  0  0  0  0  0  0  0  0  0  0  0
   15.7859   -6.6599    0.0000 C   0  0  0  0  0  0  0  0  0  0  0  0
   16.4769   -7.6110    0.0000 C   0  0  0  0  0  0  0  0  0  0  0  0
   15.9582   -2.7248    0.0000 C   0  0  0  0  0  0  0  0  0  0  0  0
   14.9582   -2.7248    0.0000 C   0  0  0  0  0  0  0  0  0  0  0  0
    5.8675    5.1438    0.0000 C   0  0  1  0  0  0  0  0  0  0  0  0
    4.8890    4.9376    0.0000 C   0  0  0  0  0  0  0  0  0  0  0  0
    6.2247    3.4490    0.0000 C   0  0  0  0  0  0  0  0  0  0  0  0
    7.5138    4.6058    0.0000 C   0  0  0  0  0  0  0  0  0  0  0  0
    5.2462    3.2428    0.0000 C   0  0  0  0  0  0  0  0  0  0  0  0
   14.4582   -1.8588    0.0000 C   0  0  0  0  0  0  0  0  0  0  0  0
    8.1817    3.8615    0.0000 C   0  0  2  0  0  0  0  0  0  0  0  0
    9.8746    0.6780    0.0000 C   0  0  2  0  0  0  0  0  0  0  0  0
    9.1602    4.0677    0.0000 C   0  0  0  0  0  0  0  0  0  0  0  0
   10.4582   -0.1267    0.0000 C   0  0  1  0  0  0  0  0  0  0  0  0
    9.8280    3.3234    0.0000 C   0  0  1  0  0  0  0  0  0  0  0  0
    9.8746   -0.9314    0.0000 C   0  0  0  0  0  0  0  0  0  0  0  0
    8.9284    0.3733    0.0000 C   0  0  0  0  0  0  0  0  0  0  0  0
    6.1782    6.0944    0.0000 C   0  0  0  0  0  0  0  0  0  0  0  0
   13.4582   -1.8588    0.0000 C   0  0  0  0  0  0  0  0  0  0  0  0
    8.9284   -0.6267    0.0000 C   0  0  0  0  0  0  0  0  0  0  0  0
    3.5998    3.7809    0.0000 C   0  0  0  0  0  0  0  0  0  0  0  0
    9.5174    2.3728    0.0000 C   0  0  0  0  0  0  0  0  0  0  0  0
   10.8066    3.5296    0.0000 C   0  0  0  0  0  0  0  0  0  0  0  0
   12.9582   -0.9927    0.0000 C   0  0  0  0  0  0  0  0  0  0  0  0
    4.5318    6.6324    0.0000 C   0  0  0  0  0  0  0  0  0  0  0  0
    8.0623    0.8733    0.0000 C   0  0  0  0  0  0  0  0  0  0  0  0
   11.9582   -0.9927    0.0000 C   0  0  0  0  0  0  0  0  0  0  0  0
    8.0623   -1.1267    0.0000 C   0  0  0  0  0  0  0  0  0  0  0  0
    3.2892    2.8304    0.0000 C   0  0  0  0  0  0  0  0  0  0  0  0
   11.1172    4.4801    0.0000 C   0  0  0  0  0  0  0  0  0  0  0  0
    7.1963    0.3733    0.0000 C   0  0  0  0  0  0  0  0  0  0  0  0
    4.7380    5.6539    0.0000 C   0  0  0  0  0  0  0  0  0  0  0  0
    4.3256    7.6110    0.0000 C   0  0  0  0  0  0  0  0  0  0  0  0
    3.5533    6.4262    0.0000 C   0  0  0  0  0  0  0  0  0  0  0  0
    7.1963   -0.6267    0.0000 C   0  0  0  0  0  0  0  0  0  0  0  0
    2.3107    2.6241    0.0000 C   0  0  0  0  0  0  0  0  0  0  0  0
    3.9570    2.0861    0.0000 C   0  0  0  0  0  0  0  0  0  0  0  0
   12.0957    4.6863    0.0000 C   0  0  0  0  0  0  0  0  0  0  0  0
   10.4494    5.2244    0.0000 C   0  0  0  0  0  0  0  0  0  0  0  0
    2.0000    1.6736    0.0000 C   0  0  0  0  0  0  0  0  0  0  0  0
   12.4064    5.6368    0.0000 C   0  0  0  0  0  0  0  0  0  0  0  0
   10.7600    6.1749    0.0000 C   0  0  0  0  0  0  0  0  0  0  0  0
   11.7385    6.3812    0.0000 C   0  0  0  0  0  0  0  0  0  0  0  0
    2.6678    0.9293    0.0000 C   0  0  0  0  0  0  0  0  0  0  0  0
   17.2379   -2.5181    0.0000 H   0  0  0  0  0  0  0  0  0  0  0  0
   18.6470   -5.0009    0.0000 H   0  0  0  0  0  0  0  0  0  0  0  0
   17.1767   -3.0384    0.0000 H   0  0  0  0  0  0  0  0  0  0  0  0
   19.5869   -3.2816    0.0000 H   0  0  0  0  0  0  0  0  0  0  0  0
   17.2985   -4.9125    0.0000 H   0  0  0  0  0  0  0  0  0  0  0  0
   18.7855   -6.5748    0.0000 H   0  0  0  0  0  0  0  0  0  0  0  0
   18.7855   -5.7450    0.0000 H   0  0  0  0  0  0  0  0  0  0  0  0
   20.1677   -1.3951    0.0000 H   0  0  0  0  0  0  0  0  0  0  0  0
   20.3048   -0.5291    0.0000 H   0  0  0  0  0  0  0  0  0  0  0  0
   19.4388   -0.3920    0.0000 H   0  0  0  0  0  0  0  0  0  0  0  0
   19.2749   -0.3387    0.0000 H   0  0  0  0  0  0  0  0  0  0  0  0
   18.4936    0.0594    0.0000 H   0  0  0  0  0  0  0  0  0  0  0  0
   18.0956   -0.7219    0.0000 H   0  0  0  0  0  0  0  0  0  0  0  0
   15.7859   -6.0399    0.0000 H   0  0  0  0  0  0  0  0  0  0  0  0
   15.1659   -6.6599    0.0000 H   0  0  0  0  0  0  0  0  0  0  0  0
   15.7859   -7.2799    0.0000 H   0  0  0  0  0  0  0  0  0  0  0  0
   15.8872   -7.4194    0.0000 H   0  0  0  0  0  0  0  0  0  0  0  0
   16.2853   -8.2006    0.0000 H   0  0  0  0  0  0  0  0  0  0  0  0
   17.0665   -7.8025    0.0000 H   0  0  0  0  0  0  0  0  0  0  0  0
   14.3756   -2.9368    0.0000 H   0  0  0  0  0  0  0  0  0  0  0  0
   15.0658   -3.3354    0.0000 H   0  0  0  0  0  0  0  0  0  0  0  0
    6.4742    5.2717    0.0000 H   0  0  0  0  0  0  0  0  0  0  0  0
    4.8684    5.5573    0.0000 H   0  0  0  0  0  0  0  0  0  0  0  0
    4.2752    5.0250    0.0000 H   0  0  0  0  0  0  0  0  0  0  0  0
    6.2453    2.8294    0.0000 H   0  0  0  0  0  0  0  0  0  0  0  0
    6.8385    3.3617    0.0000 H   0  0  0  0  0  0  0  0  0  0  0  0
    8.0402    4.9334    0.0000 H   0  0  0  0  0  0  0  0  0  0  0  0
    7.2826    5.1810    0.0000 H   0  0  0  0  0  0  0  0  0  0  0  0
    4.7198    2.9152    0.0000 H   0  0  0  0  0  0  0  0  0  0  0  0
    5.4774    2.6675    0.0000 H   0  0  0  0  0  0  0  0  0  0  0  0
    8.5958    3.4000    0.0000 H   0  0  0  0  0  0  0  0  0  0  0  0
   15.0408   -1.6467    0.0000 H   0  0  0  0  0  0  0  0  0  0  0  0
   14.3505   -1.2482    0.0000 H   0  0  0  0  0  0  0  0  0  0  0  0
    9.4371    1.1174    0.0000 H   0  0  0  0  0  0  0  0  0  0  0  0
    9.6866    4.3953    0.0000 H   0  0  0  0  0  0  0  0  0  0  0  0
    8.9289    4.6429    0.0000 H   0  0  0  0  0  0  0  0  0  0  0  0
   10.7399   -0.6790    0.0000 H   0  0  0  0  0  0  0  0  0  0  0  0
   10.4347    3.4512    0.0000 H   0  0  0  0  0  0  0  0  0  0  0  0
    9.6235   -1.4983    0.0000 H   0  0  0  0  0  0  0  0  0  0  0  0
   10.4119   -1.2407    0.0000 H   0  0  0  0  0  0  0  0  0  0  0  0
   12.8756   -2.0708    0.0000 H   0  0  0  0  0  0  0  0  0  0  0  0
   13.5658   -2.4693    0.0000 H   0  0  0  0  0  0  0  0  0  0  0  0
    3.5793    4.4005    0.0000 H   0  0  0  0  0  0  0  0  0  0  0  0
    2.9860    3.8682    0.0000 H   0  0  0  0  0  0  0  0  0  0  0  0
   10.7919    1.7564    0.0000 H   0  0  0  0  0  0  0  0  0  0  0  0
   10.8271    2.9099    0.0000 H   0  0  0  0  0  0  0  0  0  0  0  0
   11.4204    3.4422    0.0000 H   0  0  0  0  0  0  0  0  0  0  0  0
   13.5408   -0.7807    0.0000 H   0  0  0  0  0  0  0  0  0  0  0  0
   12.8505   -0.3821    0.0000 H   0  0  0  0  0  0  0  0  0  0  0  0
    5.7029    7.4280    0.0000 H   0  0  0  0  0  0  0  0  0  0  0  0
    8.0623    1.4933    0.0000 H   0  0  0  0  0  0  0  0  0  0  0  0
    7.2644    2.7831    0.0000 H   0  0  0  0  0  0  0  0  0  0  0  0
    8.0623   -1.7467    0.0000 H   0  0  0  0  0  0  0  0  0  0  0  0
    6.6594    0.6833    0.0000 H   0  0  0  0  0  0  0  0  0  0  0  0
    4.1314    5.5261    0.0000 H   0  0  0  0  0  0  0  0  0  0  0  0
    4.8659    5.0473    0.0000 H   0  0  0  0  0  0  0  0  0  0  0  0
    5.3447    5.7818    0.0000 H   0  0  0  0  0  0  0  0  0  0  0  0
    4.9323    7.7388    0.0000 H   0  0  0  0  0  0  0  0  0  0  0  0
    4.1977    8.2176    0.0000 H   0  0  0  0  0  0  0  0  0  0  0  0
    3.7189    7.4831    0.0000 H   0  0  0  0  0  0  0  0  0  0  0  0
    3.4255    7.0329    0.0000 H   0  0  0  0  0  0  0  0  0  0  0  0
    2.9466    6.2984    0.0000 H   0  0  0  0  0  0  0  0  0  0  0  0
    3.6812    5.8195    0.0000 H   0  0  0  0  0  0  0  0  0  0  0  0
    6.6594   -0.9367    0.0000 H   0  0  0  0  0  0  0  0  0  0  0  0
    1.8966    3.0856    0.0000 H   0  0  0  0  0  0  0  0  0  0  0  0
    4.5637    2.2139    0.0000 H   0  0  0  0  0  0  0  0  0  0  0  0
   12.5098    4.2249    0.0000 H   0  0  0  0  0  0  0  0  0  0  0  0
    9.8427    5.0966    0.0000 H   0  0  0  0  0  0  0  0  0  0  0  0
    1.3933    1.5458    0.0000 H   0  0  0  0  0  0  0  0  0  0  0  0
   13.0131    5.7647    0.0000 H   0  0  0  0  0  0  0  0  0  0  0  0
   10.3460    6.6364    0.0000 H   0  0  0  0  0  0  0  0  0  0  0  0
   11.9312    6.9705    0.0000 H   0  0  0  0  0  0  0  0  0  0  0  0
    2.4752    0.3400    0.0000 H   0  0  0  0  0  0  0  0  0  0  0  0
  1 19  1  0  0  0  0
  1 21  1  0  0  0  0
  2 18  1  0  0  0  0
  2 23  1  0  0  0  0
  3 21  1  0  0  0  0
  3 23  1  0  0  0  0
  4 22  1  0  0  0  0
  4 25  1  0  0  0  0
 20  5  1  6  0  0  0
  5 30  1  0  0  0  0
  6 24  1  0  0  0  0
  6 25  1  0  0  0  0
  7 30  2  0  0  0  0
 41  8  1  6  0  0  0
  8 54  1  0  0  0  0
 38  9  1  6  0  0  0
  9123  1  0  0  0  0
 10 45  2  0  0  0  0
 11 49  2  0  0  0  0
 12 54  2  0  0  0  0
 13 32  1  0  0  0  0
 13 34  1  0  0  0  0
 13 35  1  0  0  0  0
 14 33  1  0  0  0  0
 14 36  1  0  0  0  0
 14 48  1  0  0  0  0
 39 15  1  6  0  0  0
 15 49  1  0  0  0  0
 15116  1  0  0  0  0
 16 45  1  0  0  0  0
 16 52  1  0  0  0  0
 16121  1  0  0  0  0
 17 64  1  0  0  0  0
 17 71  2  0  0  0  0
 18 20  1  0  0  0  0
 18 21  1  0  0  0  0
 18 72  1  1  0  0  0
 19 20  1  0  0  0  0
 19 22  1  0  0  0  0
 19 73  1  1  0  0  0
 20 74  1  0  0  0  0
 21 75  1  0  0  0  0
 22 24  1  0  0  0  0
 22 76  1  0  0  0  0
 23 26  1  0  0  0  0
 23 27  1  0  0  0  0
 24 77  1  0  0  0  0
 24 78  1  0  0  0  0
 25 28  1  0  0  0  0
 25 29  1  0  0  0  0
 26 79  1  0  0  0  0
 26 80  1  0  0  0  0
 26 81  1  0  0  0  0
 27 82  1  0  0  0  0
 27 83  1  0  0  0  0
 27 84  1  0  0  0  0
 28 85  1  0  0  0  0
 28 86  1  0  0  0  0
 28 87  1  0  0  0  0
 29 88  1  0  0  0  0
 29 89  1  0  0  0  0
 29 90  1  0  0  0  0
 30 31  1  0  0  0  0
 31 37  1  0  0  0  0
 31 91  1  0  0  0  0
 31 92  1  0  0  0  0
 32 33  1  0  0  0  0
 32 45  1  1  0  0  0
 32 93  1  0  0  0  0
 33 94  1  0  0  0  0
 33 95  1  0  0  0  0
 34 36  1  0  0  0  0
 34 96  1  0  0  0  0
 34 97  1  0  0  0  0
 35 38  1  0  0  0  0
 35 98  1  0  0  0  0
 35 99  1  0  0  0  0
 36100  1  0  0  0  0
 36101  1  0  0  0  0
 37 46  1  0  0  0  0
 37103  1  0  0  0  0
 37104  1  0  0  0  0
 38 40  1  0  0  0  0
 38102  1  0  0  0  0
 39 41  1  0  0  0  0
 39 44  1  0  0  0  0
 39105  1  0  0  0  0
 42 40  1  6  0  0  0
 40106  1  0  0  0  0
 40107  1  0  0  0  0
 41 43  1  0  0  0  0
 41108  1  0  0  0  0
 42 49  1  0  0  0  0
 42 50  1  0  0  0  0
 42109  1  0  0  0  0
 43 47  1  0  0  0  0
 43110  1  0  0  0  0
 43111  1  0  0  0  0
 44 47  1  0  0  0  0
 44 53  2  0  0  0  0
 46 51  1  0  0  0  0
 46112  1  0  0  0  0
 46113  1  0  0  0  0
 47 55  2  0  0  0  0
 48 56  1  0  0  0  0
 48114  1  0  0  0  0
 48115  1  0  0  0  0
 50 57  1  0  0  0  0
 50117  1  0  0  0  0
 50118  1  0  0  0  0
 51 54  1  0  0  0  0
 51119  1  0  0  0  0
 51120  1  0  0  0  0
 52 59  1  0  0  0  0
 52 60  1  0  0  0  0
 52 61  1  0  0  0  0
 53 58  1  0  0  0  0
 53122  1  0  0  0  0
 55 62  1  0  0  0  0
 55124  1  0  0  0  0
 56 63  1  0  0  0  0
 56 64  2  0  0  0  0
 57 65  2  0  0  0  0
 57 66  1  0  0  0  0
 58 62  2  0  0  0  0
 58125  1  0  0  0  0
 59126  1  0  0  0  0
 59127  1  0  0  0  0
 59128  1  0  0  0  0
 60129  1  0  0  0  0
 60130  1  0  0  0  0
 60131  1  0  0  0  0
 61132  1  0  0  0  0
 61133  1  0  0  0  0
 61134  1  0  0  0  0
 62135  1  0  0  0  0
 63 67  2  0  0  0  0
 63136  1  0  0  0  0
 64137  1  0  0  0  0
 65 68  1  0  0  0  0
 65138  1  0  0  0  0
 66 69  2  0  0  0  0
 66139  1  0  0  0  0
 67 71  1  0  0  0  0
 67140  1  0  0  0  0
 68 70  2  0  0  0  0
 68141  1  0  0  0  0
 69 70  1  0  0  0  0
 69142  1  0  0  0  0
 70143  1  0  0  0  0
 71144  1  0  0  0  0
M  END
> <PUBCHEM_COMPOUND_CID>
500860
> <PUBCHEM_COMPOUND_CANONICALIZED>
1
> <PUBCHEM_CACTVS_COMPLEXITY>
1790
> <PUBCHEM_CACTVS_HBOND_ACCEPTOR>
15
> <PUBCHEM_CACTVS_HBOND_DONOR>
3
> <PUBCHEM_CACTVS_ROTATABLE_BOND>
22
> <PUBCHEM_CACTVS_SUBSKEYS>
AAADcfB/vAAAAAAAAAAAAAAAAAAAAaJEiAA8eIEAAAASAGAB0AAAHgAQCAAADbzxmgc+iJPIFgCoAjH3XACCgCAxAiAI2KG4ZJgbcPrA0bG3YAhl1gHeyAf6+f6OgAAAAAAQAAAAAAAAACAAAKAACQgAAA==
> <PUBCHEM_IUPAC_OPENEYE_NAME>
O6-[(5R,6S,6aS)-5-(2,2-dimethyl-1,3-dioxolan-4-yl)-2,2-dimethyl-3a,5,6,6a-tetrahydrofuro[2,3-d][1,3]dioxol-6-yl] O1-[(1S,2R)-1-[[(2S,4S)-2-benzyl-5-[(2S)-2-(tert-butylcarbamoyl)-4-(3-pyridylmethyl)piperazin-1-yl]-4-hydroxy-pentanoyl]amino]indan-2-yl] hexanedioate
> <PUBCHEM_IUPAC_CAS_NAME>
hexanedioic acid O6-[(5R,6S,6aS)-5-(2,2-dimethyl-1,3-dioxolan-4-yl)-2,2-dimethyl-3a,5,6,6a-tetrahydrofuro[2,3-d][1,3]dioxol-6-yl] ester O1-[(1S,2R)-1-[[(2S,4S)-5-[(2S)-2-[(tert-butylamino)-oxomethyl]-4-(3-pyridinylmethyl)-1-piperazinyl]-4-hydroxy-1-oxo-2-(phenylmethyl)pentyl]amino]-2,3-dihydro-1H-inden-2-yl] ester
> <PUBCHEM_IUPAC_NAME_MARKUP>
6-<I>O</I>-[(5<I>R</I>,6<I>S</I>,6<I>a</I><I>S</I>)-5-(2,2-dimethyl-1,3-dioxolan-4-yl)-2,2-dimethyl-3<I>a</I>,5,6,6<I>a</I>-tetrahydrofuro[2,3-d][1,3]dioxol-6-yl] 1-<I>O</I>-[(1<I>S</I>,2<I>R</I>)-1-[[(2<I>S</I>,4<I>S</I>)-2-benzyl-5-[(2<I>S</I>)-2-(<I>tert</I>-butylcarbamoyl)-4-(pyridin-3-ylmethyl)piperazin-1-yl]-4-hydroxypentanoyl]amino]-2,3-dihydro-1<I>H</I>-inden-2-yl] hexanedioate
> <PUBCHEM_IUPAC_NAME>
6-O-[(5R,6S,6aS)-5-(2,2-dimethyl-1,3-dioxolan-4-yl)-2,2-dimethyl-3a,5,6,6a-tetrahydrofuro[2,3-d][1,3]dioxol-6-yl] 1-O-[(1S,2R)-1-[[(2S,4S)-2-benzyl-5-[(2S)-2-(tert-butylcarbamoyl)-4-(pyridin-3-ylmethyl)piperazin-1-yl]-4-hydroxypentanoyl]amino]-2,3-dihydro-1H-inden-2-yl] hexanedioate
> <PUBCHEM_IUPAC_SYSTEMATIC_NAME>
O6-[(5R,6S,6aS)-5-(2,2-dimethyl-1,3-dioxolan-4-yl)-2,2-dimethyl-3a,5,6,6a-tetrahydrofuro[2,3-d][1,3]dioxol-6-yl] O1-[(1S,2R)-1-[[(2S,4S)-5-[(2S)-2-(tert-butylcarbamoyl)-4-(pyridin-3-ylmethyl)piperazin-1-yl]-4-oxidanyl-2-(phenylmethyl)pentanoyl]amino]-2,3-dihydro-1H-inden-2-yl] hexanedioate
> <PUBCHEM_IUPAC_TRADITIONAL_NAME>
adipic acid O6-[(5R,6S,6aS)-5-(2,2-dimethyl-1,3-dioxolan-4-yl)-2,2-dimethyl-3a,5,6,6a-tetrahydrofuro[2,3-d][1,3]dioxol-6-yl] ester O1-[(1S,2R)-1-[[(2S,4S)-2-benzyl-5-[(2S)-2-(tert-butylcarbamoyl)-4-(3-pyridylmethyl)piperazino]-4-hydroxy-pentanoyl]amino]indan-2-yl] ester
> <PUBCHEM_IUPAC_INCHI>
InChI=1S/C54H73N5O12/c1-52(2,3)57-50(64)40-32-58(30-35-18-15-23-55-29-35)24-25-59(40)31-38(60)27-37(26-34-16-9-8-10-17-34)49(63)56-45-39-20-12-11-19-36(39)28-41(45)66-43(61)21-13-14-22-44(62)67-47-46(42-33-65-53(4,5)69-42)68-51-48(47)70-54(6,7)71-51/h8-12,15-20,23,29,37-38,40-42,45-48,51,60H,13-14,21-22,24-28,30-33H2,1-7H3,(H,56,63)(H,57,64)/t37-,38-,40-,41+,42?,45-,46+,47-,48-,51?/m0/s1
> <PUBCHEM_IUPAC_INCHIKEY>
ZNQSATMWWJUDGS-AIKAZRMBSA-N
> <PUBCHEM_XLOGP3_AA>
4.3
> <PUBCHEM_EXACT_MASS>
983.52557278
> <PUBCHEM_MOLECULAR_FORMULA>
C54H73N5O12
> <PUBCHEM_MOLECULAR_WEIGHT>
984.2
> <PUBCHEM_OPENEYE_CAN_SMILES>
CC1(OCC(O1)C2C(C3C(O2)OC(O3)(C)C)OC(=O)CCCCC(=O)OC4CC5=CC=CC=C5C4NC(=O)C(CC6=CC=CC=C6)CC(CN7CCN(CC7C(=O)NC(C)(C)C)CC8=CN=CC=C8)O)C
> <PUBCHEM_OPENEYE_ISO_SMILES>
CC1(OCC(O1)[C@@H]2[C@@H]([C@H]3C(O2)OC(O3)(C)C)OC(=O)CCCCC(=O)O[C@@H]4CC5=CC=CC=C5[C@@H]4NC(=O)[C@@H](CC6=CC=CC=C6)C[C@@H](CN7CCN(C[C@H]7C(=O)NC(C)(C)C)CC8=CN=CC=C8)O)C
> <PUBCHEM_CACTVS_TPSA>
197
> <PUBCHEM_MONOISOTOPIC_WEIGHT>
983.52557278
> <PUBCHEM_TOTAL_CHARGE>
0
> <PUBCHEM_HEAVY_ATOM_COUNT>
71
> <PUBCHEM_ATOM_DEF_STEREO_COUNT>
8
> <PUBCHEM_ATOM_UDEF_STEREO_COUNT>
2
> <PUBCHEM_BOND_DEF_STEREO_COUNT>
0
> <PUBCHEM_BOND_UDEF_STEREO_COUNT>
0
> <PUBCHEM_ISOTOPIC_ATOM_COUNT>
0
> <PUBCHEM_COMPONENT_COUNT>
1
> <PUBCHEM_CACTVS_TAUTO_COUNT>
-1
> <PUBCHEM_COORDINATE_TYPE>
1
5
255
> <PUBCHEM_BONDANNOTATIONS>
39  15  6
17  64  8
17  71  8
18  72  5
19  73  5
22  24  3
21  3  3
32  45  5
42  40  6
44  47  8
44  53  8
47  55  8
20  5  6
53  58  8
55  62  8
56  63  8
56  64  8
57  65  8
57  66  8
58  62  8
63  67  8
65  68  8
66  69  8
67  71  8
68  70  8
69  70  8
41  8  6
38  9  6
$$$$
