500836
  -OEChem-10302200282D
 97102  0     1  0  0  0  0  0999 V2000
    9.9737    4.8817    0.0000 O   0  0  0  0  0  0  0  0  0  0  0  0
   10.1548    3.1592    0.0000 O   0  0  0  0  0  0  0  0  0  0  0  0
    6.3981   -0.4749    0.0000 O   0  0  0  0  0  0  0  0  0  0  0  0
    9.7480    2.2456    0.0000 O   0  0  0  0  0  0  0  0  0  0  0  0
   10.4291    1.0660    0.0000 O   0  0  0  0  0  0  0  0  0  0  0  0
   11.0615   -2.4836    0.0000 O   0  0  0  0  0  0  0  0  0  0  0  0
    2.8680   -3.4990    0.0000 O   0  0  0  0  0  0  0  0  0  0  0  0
   14.8139   -0.2656    0.0000 O   0  0  0  0  0  0  0  0  0  0  0  0
    8.1657    2.9501    0.0000 N   0  0  0  0  0  0  0  0  0  0  0  0
    8.8468    0.3615    0.0000 N   0  0  0  0  0  0  0  0  0  0  0  0
   11.2426   -0.7611    0.0000 N   0  0  0  0  0  0  0  0  0  0  0  0
    6.3981   -3.4749    0.0000 N   0  0  0  0  0  0  0  0  0  0  0  0
    8.5725    3.8637    0.0000 C   0  0  3  0  0  0  0  0  0  0  0  0
    7.6589    4.2704    0.0000 C   0  0  2  0  0  0  0  0  0  0  0  0
    8.4679    4.8582    0.0000 C   0  0  0  0  0  0  0  0  0  0  0  0
    9.5670    3.9682    0.0000 C   0  0  0  0  0  0  0  0  0  0  0  0
    6.6644    4.1659    0.0000 C   0  0  0  0  0  0  0  0  0  0  0  0
    8.3468    1.2276    0.0000 C   0  0  2  0  0  0  0  0  0  0  0  0
    8.7535    2.1411    0.0000 C   0  0  0  0  0  0  0  0  0  0  0  0
    7.3686    1.0196    0.0000 C   0  0  0  0  0  0  0  0  0  0  0  0
    7.2641    0.0251    0.0000 C   0  0  2  0  0  0  0  0  0  0  0  0
    8.1776   -0.3816    0.0000 C   0  0  0  0  0  0  0  0  0  0  0  0
    9.8413    0.2570    0.0000 C   0  0  0  0  0  0  0  0  0  0  0  0
    6.0766    4.9749    0.0000 C   0  0  0  0  0  0  0  0  0  0  0  0
   10.2480   -0.6565    0.0000 C   0  0  2  0  0  0  0  0  0  0  0  0
    9.6602   -1.4656    0.0000 C   0  0  0  0  0  0  0  0  0  0  0  0
   10.4693   -2.0534    0.0000 C   0  0  0  0  0  0  0  0  0  0  0  0
    8.8512   -0.8778    0.0000 C   0  0  0  0  0  0  0  0  0  0  0  0
    9.0725   -2.2746    0.0000 C   0  0  0  0  0  0  0  0  0  0  0  0
    6.3981   -1.4749    0.0000 C   0  0  0  0  0  0  0  0  0  0  0  0
   11.6493   -1.6746    0.0000 C   0  0  0  0  0  0  0  0  0  0  0  0
    5.5320   -1.9749    0.0000 C   0  0  0  0  0  0  0  0  0  0  0  0
    7.2641   -1.9749    0.0000 C   0  0  0  0  0  0  0  0  0  0  0  0
    5.5320   -2.9749    0.0000 C   0  0  0  0  0  0  0  0  0  0  0  0
   12.6438   -1.7792    0.0000 C   0  0  0  0  0  0  0  0  0  0  0  0
    7.2641   -2.9749    0.0000 C   0  0  0  0  0  0  0  0  0  0  0  0
    4.6381   -1.4402    0.0000 C   0  0  0  0  0  0  0  0  0  0  0  0
   13.2316   -0.9701    0.0000 C   0  0  0  0  0  0  0  0  0  0  0  0
    4.6381   -3.5095    0.0000 C   0  0  0  0  0  0  0  0  0  0  0  0
   13.0505   -2.6927    0.0000 C   0  0  0  0  0  0  0  0  0  0  0  0
    3.7320   -1.9541    0.0000 C   0  0  0  0  0  0  0  0  0  0  0  0
    8.1301   -3.4749    0.0000 C   0  0  0  0  0  0  0  0  0  0  0  0
    3.7320   -2.9957    0.0000 C   0  0  0  0  0  0  0  0  0  0  0  0
   14.2261   -1.0747    0.0000 C   0  0  0  0  0  0  0  0  0  0  0  0
   12.8249   -0.0566    0.0000 C   0  0  0  0  0  0  0  0  0  0  0  0
   14.0451   -2.7972    0.0000 C   0  0  0  0  0  0  0  0  0  0  0  0
   14.6329   -1.9882    0.0000 C   0  0  0  0  0  0  0  0  0  0  0  0
    8.9962   -2.9749    0.0000 C   0  0  0  0  0  0  0  0  0  0  0  0
    8.1301   -4.4749    0.0000 C   0  0  0  0  0  0  0  0  0  0  0  0
    9.8622   -3.4749    0.0000 C   0  0  0  0  0  0  0  0  0  0  0  0
    8.9962   -4.9749    0.0000 C   0  0  0  0  0  0  0  0  0  0  0  0
    9.8622   -4.4749    0.0000 C   0  0  0  0  0  0  0  0  0  0  0  0
    2.0000   -3.0024    0.0000 C   0  0  0  0  0  0  0  0  0  0  0  0
    7.4367    4.8492    0.0000 H   0  0  0  0  0  0  0  0  0  0  0  0
    9.0639    5.0291    0.0000 H   0  0  0  0  0  0  0  0  0  0  0  0
    8.1961    5.4154    0.0000 H   0  0  0  0  0  0  0  0  0  0  0  0
    7.5491    2.8853    0.0000 H   0  0  0  0  0  0  0  0  0  0  0  0
    6.4122    3.5995    0.0000 H   0  0  0  0  0  0  0  0  0  0  0  0
    8.9659    1.2600    0.0000 H   0  0  0  0  0  0  0  0  0  0  0  0
    7.3038    1.6362    0.0000 H   0  0  0  0  0  0  0  0  0  0  0  0
    6.7486    1.0196    0.0000 H   0  0  0  0  0  0  0  0  0  0  0  0
    6.7441    0.3628    0.0000 H   0  0  0  0  0  0  0  0  0  0  0  0
    7.8676   -0.9186    0.0000 H   0  0  0  0  0  0  0  0  0  0  0  0
    8.6792   -0.7460    0.0000 H   0  0  0  0  0  0  0  0  0  0  0  0
    6.3288    5.5413    0.0000 H   0  0  0  0  0  0  0  0  0  0  0  0
    5.4600    4.9101    0.0000 H   0  0  0  0  0  0  0  0  0  0  0  0
   10.6125   -0.1550    0.0000 H   0  0  0  0  0  0  0  0  0  0  0  0
   10.5903    4.9465    0.0000 H   0  0  0  0  0  0  0  0  0  0  0  0
   11.6070   -0.2595    0.0000 H   0  0  0  0  0  0  0  0  0  0  0  0
   10.1048   -2.5549    0.0000 H   0  0  0  0  0  0  0  0  0  0  0  0
   10.9709   -2.4178    0.0000 H   0  0  0  0  0  0  0  0  0  0  0  0
   10.8337   -1.5518    0.0000 H   0  0  0  0  0  0  0  0  0  0  0  0
    9.2157   -0.3762    0.0000 H   0  0  0  0  0  0  0  0  0  0  0  0
    8.3496   -0.5134    0.0000 H   0  0  0  0  0  0  0  0  0  0  0  0
    8.4868   -1.3794    0.0000 H   0  0  0  0  0  0  0  0  0  0  0  0
    8.5709   -1.9102    0.0000 H   0  0  0  0  0  0  0  0  0  0  0  0
    8.7080   -2.7762    0.0000 H   0  0  0  0  0  0  0  0  0  0  0  0
    9.5740   -2.6390    0.0000 H   0  0  0  0  0  0  0  0  0  0  0  0
    7.8010   -1.6649    0.0000 H   0  0  0  0  0  0  0  0  0  0  0  0
    4.6453   -0.8203    0.0000 H   0  0  0  0  0  0  0  0  0  0  0  0
    4.6453   -4.1295    0.0000 H   0  0  0  0  0  0  0  0  0  0  0  0
   12.6861   -3.1943    0.0000 H   0  0  0  0  0  0  0  0  0  0  0  0
    3.1963   -1.6420    0.0000 H   0  0  0  0  0  0  0  0  0  0  0  0
   13.3913    0.1956    0.0000 H   0  0  0  0  0  0  0  0  0  0  0  0
   12.5727    0.5098    0.0000 H   0  0  0  0  0  0  0  0  0  0  0  0
   12.2585   -0.3088    0.0000 H   0  0  0  0  0  0  0  0  0  0  0  0
   14.2972   -3.3636    0.0000 H   0  0  0  0  0  0  0  0  0  0  0  0
   15.2495   -2.0530    0.0000 H   0  0  0  0  0  0  0  0  0  0  0  0
    8.9962   -2.3549    0.0000 H   0  0  0  0  0  0  0  0  0  0  0  0
    7.5932   -4.7849    0.0000 H   0  0  0  0  0  0  0  0  0  0  0  0
   10.3991   -3.1649    0.0000 H   0  0  0  0  0  0  0  0  0  0  0  0
    8.9962   -5.5949    0.0000 H   0  0  0  0  0  0  0  0  0  0  0  0
   15.4305   -0.3305    0.0000 H   0  0  0  0  0  0  0  0  0  0  0  0
   10.3991   -4.7849    0.0000 H   0  0  0  0  0  0  0  0  0  0  0  0
    2.3079   -2.4642    0.0000 H   0  0  0  0  0  0  0  0  0  0  0  0
    1.4619   -2.6944    0.0000 H   0  0  0  0  0  0  0  0  0  0  0  0
    1.6921   -3.5405    0.0000 H   0  0  0  0  0  0  0  0  0  0  0  0
  1 16  1  0  0  0  0
  1 68  1  0  0  0  0
  2 16  2  0  0  0  0
 21  3  1  6  0  0  0
  3 30  1  0  0  0  0
  4 19  2  0  0  0  0
  5 23  2  0  0  0  0
  6 31  2  0  0  0  0
  7 43  1  0  0  0  0
  7 53  1  0  0  0  0
  8 44  1  0  0  0  0
  8 93  1  0  0  0  0
  9 13  1  0  0  0  0
  9 19  1  0  0  0  0
  9 57  1  0  0  0  0
 10 18  1  0  0  0  0
 10 22  1  0  0  0  0
 10 23  1  0  0  0  0
 25 11  1  1  0  0  0
 11 31  1  0  0  0  0
 11 69  1  0  0  0  0
 12 34  1  0  0  0  0
 12 36  2  0  0  0  0
 13 14  1  0  0  0  0
 13 15  1  0  0  0  0
 13 16  1  0  0  0  0
 14 15  1  0  0  0  0
 14 17  1  1  0  0  0
 14 54  1  0  0  0  0
 15 55  1  0  0  0  0
 15 56  1  0  0  0  0
 17 24  2  0  0  0  0
 17 58  1  0  0  0  0
 18 19  1  1  0  0  0
 18 20  1  0  0  0  0
 18 59  1  0  0  0  0
 20 21  1  0  0  0  0
 20 60  1  0  0  0  0
 20 61  1  0  0  0  0
 21 22  1  0  0  0  0
 21 62  1  0  0  0  0
 22 63  1  0  0  0  0
 22 64  1  0  0  0  0
 23 25  1  0  0  0  0
 24 65  1  0  0  0  0
 24 66  1  0  0  0  0
 25 26  1  0  0  0  0
 25 67  1  0  0  0  0
 26 27  1  0  0  0  0
 26 28  1  0  0  0  0
 26 29  1  0  0  0  0
 27 70  1  0  0  0  0
 27 71  1  0  0  0  0
 27 72  1  0  0  0  0
 28 73  1  0  0  0  0
 28 74  1  0  0  0  0
 28 75  1  0  0  0  0
 29 76  1  0  0  0  0
 29 77  1  0  0  0  0
 29 78  1  0  0  0  0
 30 32  1  0  0  0  0
 30 33  2  0  0  0  0
 31 35  1  0  0  0  0
 32 34  2  0  0  0  0
 32 37  1  0  0  0  0
 33 36  1  0  0  0  0
 33 79  1  0  0  0  0
 34 39  1  0  0  0  0
 35 38  2  0  0  0  0
 35 40  1  0  0  0  0
 36 42  1  0  0  0  0
 37 41  2  0  0  0  0
 37 80  1  0  0  0  0
 38 44  1  0  0  0  0
 38 45  1  0  0  0  0
 39 43  2  0  0  0  0
 39 81  1  0  0  0  0
 40 46  2  0  0  0  0
 40 82  1  0  0  0  0
 41 43  1  0  0  0  0
 41 83  1  0  0  0  0
 42 48  2  0  0  0  0
 42 49  1  0  0  0  0
 44 47  2  0  0  0  0
 45 84  1  0  0  0  0
 45 85  1  0  0  0  0
 45 86  1  0  0  0  0
 46 47  1  0  0  0  0
 46 87  1  0  0  0  0
 47 88  1  0  0  0  0
 48 50  1  0  0  0  0
 48 89  1  0  0  0  0
 49 51  2  0  0  0  0
 49 90  1  0  0  0  0
 50 52  2  0  0  0  0
 50 91  1  0  0  0  0
 51 52  1  0  0  0  0
 51 92  1  0  0  0  0
 52 94  1  0  0  0  0
 53 95  1  0  0  0  0
 53 96  1  0  0  0  0
 53 97  1  0  0  0  0
M  END
> <PUBCHEM_COMPOUND_CID>
500836
> <PUBCHEM_COMPOUND_CANONICALIZED>
1
> <PUBCHEM_CACTVS_COMPLEXITY>
1360
> <PUBCHEM_CACTVS_HBOND_ACCEPTOR>
9
> <PUBCHEM_CACTVS_HBOND_DONOR>
4
> <PUBCHEM_CACTVS_ROTATABLE_BOND>
12
> <PUBCHEM_CACTVS_SUBSKEYS>
AAADcfB/vAAAAAAAAAAAAAAAGAAAAWAAAAA8YMEAAAAAAACx9AAAHgAQCAAAD7zhngYyzvPIFgCoAyXyXACCiCAlIiAImKG+bNgOZvLGtbuXeSjm1hnY+Ye6+f+PoAABAgAaAABAAAIEADQAAAAAAAAAAA==
> <PUBCHEM_IUPAC_OPENEYE_NAME>
(2R)-1-[[(2S,4R)-1-[(2S)-2-[(3-hydroxy-2-methyl-benzoyl)amino]-3,3-dimethyl-butanoyl]-4-[(7-methoxy-2-phenyl-4-quinolyl)oxy]pyrrolidine-2-carbonyl]amino]-2-vinyl-cyclopropanecarboxylic acid
> <PUBCHEM_IUPAC_CAS_NAME>
(2R)-2-ethenyl-1-[[[(2S,4R)-1-[(2S)-2-[[(3-hydroxy-2-methylphenyl)-oxomethyl]amino]-3,3-dimethyl-1-oxobutyl]-4-[(7-methoxy-2-phenyl-4-quinolinyl)oxy]-2-pyrrolidinyl]-oxomethyl]amino]-1-cyclopropanecarboxylic acid
> <PUBCHEM_IUPAC_NAME_MARKUP>
(2<I>R</I>)-2-ethenyl-1-[[(2<I>S</I>,4<I>R</I>)-1-[(2<I>S</I>)-2-[(3-hydroxy-2-methylbenzoyl)amino]-3,3-dimethylbutanoyl]-4-(7-methoxy-2-phenylquinolin-4-yl)oxypyrrolidine-2-carbonyl]amino]cyclopropane-1-carboxylic acid
> <PUBCHEM_IUPAC_NAME>
(2R)-2-ethenyl-1-[[(2S,4R)-1-[(2S)-2-[(3-hydroxy-2-methylbenzoyl)amino]-3,3-dimethylbutanoyl]-4-(7-methoxy-2-phenylquinolin-4-yl)oxypyrrolidine-2-carbonyl]amino]cyclopropane-1-carboxylic acid
> <PUBCHEM_IUPAC_SYSTEMATIC_NAME>
(2R)-1-[[(2S,4R)-1-[(2S)-3,3-dimethyl-2-[(2-methyl-3-oxidanyl-phenyl)carbonylamino]butanoyl]-4-(7-methoxy-2-phenyl-quinolin-4-yl)oxy-pyrrolidin-2-yl]carbonylamino]-2-ethenyl-cyclopropane-1-carboxylic acid
> <PUBCHEM_IUPAC_TRADITIONAL_NAME>
(2R)-1-[[(2S,4R)-1-[(2S)-2-[(3-hydroxy-2-methyl-benzoyl)amino]-3,3-dimethyl-butanoyl]-4-[(7-methoxy-2-phenyl-4-quinolyl)oxy]prolyl]amino]-2-vinyl-cyclopropanecarboxylic acid
> <PUBCHEM_IUPAC_INCHI>
InChI=1S/C41H44N4O8/c1-7-25-21-41(25,39(50)51)44-37(48)32-19-27(22-45(32)38(49)35(40(3,4)5)43-36(47)28-14-11-15-33(46)23(28)2)53-34-20-30(24-12-9-8-10-13-24)42-31-18-26(52-6)16-17-29(31)34/h7-18,20,25,27,32,35,46H,1,19,21-22H2,2-6H3,(H,43,47)(H,44,48)(H,50,51)/t25-,27+,32-,35+,41?/m0/s1
> <PUBCHEM_IUPAC_INCHIKEY>
RXXLEZDMBCWKJP-KQVVFSGVSA-N
> <PUBCHEM_XLOGP3_AA>
6.1
> <PUBCHEM_EXACT_MASS>
720.31591437
> <PUBCHEM_MOLECULAR_FORMULA>
C41H44N4O8
> <PUBCHEM_MOLECULAR_WEIGHT>
720.8
> <PUBCHEM_OPENEYE_CAN_SMILES>
CC1=C(C=CC=C1O)C(=O)NC(C(=O)N2CC(CC2C(=O)NC3(CC3C=C)C(=O)O)OC4=CC(=NC5=C4C=CC(=C5)OC)C6=CC=CC=C6)C(C)(C)C
> <PUBCHEM_OPENEYE_ISO_SMILES>
CC1=C(C=CC=C1O)C(=O)N[C@H](C(=O)N2C[C@@H](C[C@H]2C(=O)NC3(C[C@@H]3C=C)C(=O)O)OC4=CC(=NC5=C4C=CC(=C5)OC)C6=CC=CC=C6)C(C)(C)C
> <PUBCHEM_CACTVS_TPSA>
167
> <PUBCHEM_MONOISOTOPIC_WEIGHT>
720.31591437
> <PUBCHEM_TOTAL_CHARGE>
0
> <PUBCHEM_HEAVY_ATOM_COUNT>
53
> <PUBCHEM_ATOM_DEF_STEREO_COUNT>
4
> <PUBCHEM_ATOM_UDEF_STEREO_COUNT>
1
> <PUBCHEM_BOND_DEF_STEREO_COUNT>
0
> <PUBCHEM_BOND_UDEF_STEREO_COUNT>
0
> <PUBCHEM_ISOTOPIC_ATOM_COUNT>
0
> <PUBCHEM_COMPONENT_COUNT>
1
> <PUBCHEM_CACTVS_TAUTO_COUNT>
-1
> <PUBCHEM_COORDINATE_TYPE>
1
5
255
> <PUBCHEM_BONDANNOTATIONS>
25  11  5
12  34  8
12  36  8
13  16  3
14  17  5
18  19  5
21  3  6
30  32  8
30  33  8
32  34  8
32  37  8
33  36  8
34  39  8
35  38  8
35  40  8
37  41  8
38  44  8
39  43  8
40  46  8
41  43  8
42  48  8
42  49  8
44  47  8
46  47  8
48  50  8
49  51  8
50  52  8
51  52  8
$$$$
