500818
  -OEChem-10302200282D
 98102  0     1  0  0  0  0  0999 V2000
   12.8249   -1.4221    0.0000 O   0  0  0  0  0  0  0  0  0  0  0  0
   11.4236   -0.4040    0.0000 O   0  0  0  0  0  0  0  0  0  0  0  0
    6.3981   -1.8404    0.0000 O   0  0  0  0  0  0  0  0  0  0  0  0
   10.4291   -0.2995    0.0000 O   0  0  0  0  0  0  0  0  0  0  0  0
    9.7480    0.8801    0.0000 O   0  0  0  0  0  0  0  0  0  0  0  0
    6.9902    3.2027    0.0000 O   0  0  0  0  0  0  0  0  0  0  0  0
    5.5889    2.1846    0.0000 O   0  0  0  0  0  0  0  0  0  0  0  0
    2.8680   -4.8645    0.0000 O   0  0  0  0  0  0  0  0  0  0  0  0
   10.2480   -2.0220    0.0000 N   0  0  0  0  0  0  0  0  0  0  0  0
    8.3468   -0.1379    0.0000 N   0  0  0  0  0  0  0  0  0  0  0  0
    7.1712    1.4801    0.0000 N   0  0  0  0  0  0  0  0  0  0  0  0
    6.3981   -4.8404    0.0000 N   0  0  0  0  0  0  0  0  0  0  0  0
    7.2158    5.8388    0.0000 N   0  0  0  0  0  0  0  0  0  0  0  0
   11.2426   -2.1266    0.0000 C   0  0  3  0  0  0  0  0  0  0  0  0
   11.1380   -3.1211    0.0000 C   0  0  2  0  0  0  0  0  0  0  0  0
   12.0516   -2.7143    0.0000 C   0  0  0  0  0  0  0  0  0  0  0  0
   11.8303   -1.3175    0.0000 C   0  0  0  0  0  0  0  0  0  0  0  0
   10.5502   -3.9301    0.0000 C   0  0  0  0  0  0  0  0  0  0  0  0
    8.8468   -1.0040    0.0000 C   0  0  2  0  0  0  0  0  0  0  0  0
    9.8413   -1.1085    0.0000 C   0  0  0  0  0  0  0  0  0  0  0  0
    8.1776   -1.7471    0.0000 C   0  0  0  0  0  0  0  0  0  0  0  0
    7.2641   -1.3404    0.0000 C   0  0  2  0  0  0  0  0  0  0  0  0
    7.3686   -0.3458    0.0000 C   0  0  0  0  0  0  0  0  0  0  0  0
    8.7535    0.7756    0.0000 C   0  0  0  0  0  0  0  0  0  0  0  0
   10.9570   -4.8436    0.0000 C   0  0  0  0  0  0  0  0  0  0  0  0
    8.1657    1.5846    0.0000 C   0  0  2  0  0  0  0  0  0  0  0  0
    8.5725    2.4982    0.0000 C   0  0  0  0  0  0  0  0  0  0  0  0
    8.9792    3.4117    0.0000 C   0  0  0  0  0  0  0  0  0  0  0  0
    7.6589    2.9049    0.0000 C   0  0  0  0  0  0  0  0  0  0  0  0
    9.4860    2.0914    0.0000 C   0  0  0  0  0  0  0  0  0  0  0  0
    6.3981   -2.8404    0.0000 C   0  0  0  0  0  0  0  0  0  0  0  0
    5.5320   -3.3404    0.0000 C   0  0  0  0  0  0  0  0  0  0  0  0
    6.5834    2.2891    0.0000 C   0  0  0  0  0  0  0  0  0  0  0  0
    7.2641   -3.3404    0.0000 C   0  0  0  0  0  0  0  0  0  0  0  0
    5.5320   -4.3404    0.0000 C   0  0  0  0  0  0  0  0  0  0  0  0
    7.2641   -4.3404    0.0000 C   0  0  0  0  0  0  0  0  0  0  0  0
    4.6381   -2.8057    0.0000 C   0  0  0  0  0  0  0  0  0  0  0  0
    6.4024    4.0117    0.0000 C   0  0  0  0  0  0  0  0  0  0  0  0
    4.6381   -4.8750    0.0000 C   0  0  0  0  0  0  0  0  0  0  0  0
    3.7320   -3.3196    0.0000 C   0  0  0  0  0  0  0  0  0  0  0  0
    6.8091    4.9252    0.0000 C   0  0  0  0  0  0  0  0  0  0  0  0
    8.1301   -4.8404    0.0000 C   0  0  0  0  0  0  0  0  0  0  0  0
    3.7320   -4.3612    0.0000 C   0  0  0  0  0  0  0  0  0  0  0  0
    5.8956    5.3320    0.0000 C   0  0  0  0  0  0  0  0  0  0  0  0
    7.7226    4.5185    0.0000 C   0  0  0  0  0  0  0  0  0  0  0  0
    8.9962   -4.3404    0.0000 C   0  0  0  0  0  0  0  0  0  0  0  0
    8.1301   -5.8404    0.0000 C   0  0  0  0  0  0  0  0  0  0  0  0
    9.8622   -4.8404    0.0000 C   0  0  0  0  0  0  0  0  0  0  0  0
    8.9962   -6.3404    0.0000 C   0  0  0  0  0  0  0  0  0  0  0  0
    9.8622   -5.8404    0.0000 C   0  0  0  0  0  0  0  0  0  0  0  0
    2.0000   -4.3679    0.0000 C   0  0  0  0  0  0  0  0  0  0  0  0
   10.5592   -2.8989    0.0000 H   0  0  0  0  0  0  0  0  0  0  0  0
   12.3983   -3.2284    0.0000 H   0  0  0  0  0  0  0  0  0  0  0  0
   12.4976   -2.2837    0.0000 H   0  0  0  0  0  0  0  0  0  0  0  0
    9.8836   -2.5236    0.0000 H   0  0  0  0  0  0  0  0  0  0  0  0
    9.9336   -3.8653    0.0000 H   0  0  0  0  0  0  0  0  0  0  0  0
    9.1844   -0.4840    0.0000 H   0  0  0  0  0  0  0  0  0  0  0  0
    7.8676   -2.2840    0.0000 H   0  0  0  0  0  0  0  0  0  0  0  0
    8.6792   -2.1115    0.0000 H   0  0  0  0  0  0  0  0  0  0  0  0
    6.7441   -1.0027    0.0000 H   0  0  0  0  0  0  0  0  0  0  0  0
    7.3038    0.2708    0.0000 H   0  0  0  0  0  0  0  0  0  0  0  0
    6.7486   -0.3458    0.0000 H   0  0  0  0  0  0  0  0  0  0  0  0
   10.5926   -5.3452    0.0000 H   0  0  0  0  0  0  0  0  0  0  0  0
   11.5736   -4.9084    0.0000 H   0  0  0  0  0  0  0  0  0  0  0  0
    7.8013    2.0862    0.0000 H   0  0  0  0  0  0  0  0  0  0  0  0
   13.1893   -0.9205    0.0000 H   0  0  0  0  0  0  0  0  0  0  0  0
    6.9190    0.9137    0.0000 H   0  0  0  0  0  0  0  0  0  0  0  0
    9.5456    3.1596    0.0000 H   0  0  0  0  0  0  0  0  0  0  0  0
    9.2314    3.9781    0.0000 H   0  0  0  0  0  0  0  0  0  0  0  0
    8.4128    3.6639    0.0000 H   0  0  0  0  0  0  0  0  0  0  0  0
    7.9111    3.4713    0.0000 H   0  0  0  0  0  0  0  0  0  0  0  0
    7.0925    3.1571    0.0000 H   0  0  0  0  0  0  0  0  0  0  0  0
    7.4067    2.3385    0.0000 H   0  0  0  0  0  0  0  0  0  0  0  0
    9.2338    1.5250    0.0000 H   0  0  0  0  0  0  0  0  0  0  0  0
   10.0524    1.8393    0.0000 H   0  0  0  0  0  0  0  0  0  0  0  0
    9.7382    2.6578    0.0000 H   0  0  0  0  0  0  0  0  0  0  0  0
    7.8010   -3.0304    0.0000 H   0  0  0  0  0  0  0  0  0  0  0  0
    4.6453   -2.1857    0.0000 H   0  0  0  0  0  0  0  0  0  0  0  0
    5.8884    4.3584    0.0000 H   0  0  0  0  0  0  0  0  0  0  0  0
    5.9717    3.5657    0.0000 H   0  0  0  0  0  0  0  0  0  0  0  0
    4.6453   -5.4950    0.0000 H   0  0  0  0  0  0  0  0  0  0  0  0
    3.1963   -3.0075    0.0000 H   0  0  0  0  0  0  0  0  0  0  0  0
    6.1477    5.8984    0.0000 H   0  0  0  0  0  0  0  0  0  0  0  0
    5.3292    5.5841    0.0000 H   0  0  0  0  0  0  0  0  0  0  0  0
    5.6434    4.7656    0.0000 H   0  0  0  0  0  0  0  0  0  0  0  0
    7.4705    3.9521    0.0000 H   0  0  0  0  0  0  0  0  0  0  0  0
    8.2890    4.2663    0.0000 H   0  0  0  0  0  0  0  0  0  0  0  0
    7.9748    5.0849    0.0000 H   0  0  0  0  0  0  0  0  0  0  0  0
    8.9962   -3.7204    0.0000 H   0  0  0  0  0  0  0  0  0  0  0  0
    7.5932   -6.1504    0.0000 H   0  0  0  0  0  0  0  0  0  0  0  0
    6.8514    6.3404    0.0000 H   0  0  0  0  0  0  0  0  0  0  0  0
    7.8324    5.9036    0.0000 H   0  0  0  0  0  0  0  0  0  0  0  0
   10.3991   -4.5304    0.0000 H   0  0  0  0  0  0  0  0  0  0  0  0
    8.9962   -6.9604    0.0000 H   0  0  0  0  0  0  0  0  0  0  0  0
   10.3991   -6.1504    0.0000 H   0  0  0  0  0  0  0  0  0  0  0  0
    2.3079   -3.8297    0.0000 H   0  0  0  0  0  0  0  0  0  0  0  0
    1.4619   -4.0599    0.0000 H   0  0  0  0  0  0  0  0  0  0  0  0
    1.6921   -4.9060    0.0000 H   0  0  0  0  0  0  0  0  0  0  0  0
  1 17  1  0  0  0  0
  1 66  1  0  0  0  0
  2 17  2  0  0  0  0
 22  3  1  1  0  0  0
  3 31  1  0  0  0  0
  4 20  2  0  0  0  0
  5 24  2  0  0  0  0
  6 33  1  0  0  0  0
  6 38  1  0  0  0  0
  7 33  2  0  0  0  0
  8 43  1  0  0  0  0
  8 51  1  0  0  0  0
  9 14  1  0  0  0  0
  9 20  1  0  0  0  0
  9 55  1  0  0  0  0
 10 19  1  0  0  0  0
 10 23  1  0  0  0  0
 10 24  1  0  0  0  0
 26 11  1  1  0  0  0
 11 33  1  0  0  0  0
 11 67  1  0  0  0  0
 12 35  1  0  0  0  0
 12 36  2  0  0  0  0
 13 41  1  0  0  0  0
 13 91  1  0  0  0  0
 13 92  1  0  0  0  0
 14 15  1  0  0  0  0
 14 16  1  0  0  0  0
 14 17  1  0  0  0  0
 15 16  1  0  0  0  0
 15 18  1  6  0  0  0
 15 52  1  0  0  0  0
 16 53  1  0  0  0  0
 16 54  1  0  0  0  0
 18 25  2  0  0  0  0
 18 56  1  0  0  0  0
 19 20  1  6  0  0  0
 19 21  1  0  0  0  0
 19 57  1  0  0  0  0
 21 22  1  0  0  0  0
 21 58  1  0  0  0  0
 21 59  1  0  0  0  0
 22 23  1  0  0  0  0
 22 60  1  0  0  0  0
 23 61  1  0  0  0  0
 23 62  1  0  0  0  0
 24 26  1  0  0  0  0
 25 63  1  0  0  0  0
 25 64  1  0  0  0  0
 26 27  1  0  0  0  0
 26 65  1  0  0  0  0
 27 28  1  0  0  0  0
 27 29  1  0  0  0  0
 27 30  1  0  0  0  0
 28 68  1  0  0  0  0
 28 69  1  0  0  0  0
 28 70  1  0  0  0  0
 29 71  1  0  0  0  0
 29 72  1  0  0  0  0
 29 73  1  0  0  0  0
 30 74  1  0  0  0  0
 30 75  1  0  0  0  0
 30 76  1  0  0  0  0
 31 32  1  0  0  0  0
 31 34  2  0  0  0  0
 32 35  2  0  0  0  0
 32 37  1  0  0  0  0
 34 36  1  0  0  0  0
 34 77  1  0  0  0  0
 35 39  1  0  0  0  0
 36 42  1  0  0  0  0
 37 40  2  0  0  0  0
 37 78  1  0  0  0  0
 38 41  1  0  0  0  0
 38 79  1  0  0  0  0
 38 80  1  0  0  0  0
 39 43  2  0  0  0  0
 39 81  1  0  0  0  0
 40 43  1  0  0  0  0
 40 82  1  0  0  0  0
 41 44  1  0  0  0  0
 41 45  1  0  0  0  0
 42 46  2  0  0  0  0
 42 47  1  0  0  0  0
 44 83  1  0  0  0  0
 44 84  1  0  0  0  0
 44 85  1  0  0  0  0
 45 86  1  0  0  0  0
 45 87  1  0  0  0  0
 45 88  1  0  0  0  0
 46 48  1  0  0  0  0
 46 89  1  0  0  0  0
 47 49  2  0  0  0  0
 47 90  1  0  0  0  0
 48 50  2  0  0  0  0
 48 93  1  0  0  0  0
 49 50  1  0  0  0  0
 49 94  1  0  0  0  0
 50 95  1  0  0  0  0
 51 96  1  0  0  0  0
 51 97  1  0  0  0  0
 51 98  1  0  0  0  0
M  END
> <PUBCHEM_COMPOUND_CID>
500818
> <PUBCHEM_COMPOUND_CANONICALIZED>
1
> <PUBCHEM_CACTVS_COMPLEXITY>
1300
> <PUBCHEM_CACTVS_HBOND_ACCEPTOR>
10
> <PUBCHEM_CACTVS_HBOND_DONOR>
4
> <PUBCHEM_CACTVS_ROTATABLE_BOND>
14
> <PUBCHEM_CACTVS_SUBSKEYS>
AAADcfB/vAAAAAAAAAAAAAAAGAAAAWAAAAA8YIAAAAAAAACx9AAAHgAQCAAAD7zhngYyzvPIFgCoAyXyXACCiCAhIiAImKG+bJkOZvLEsbufeCjm1hnY6Ae68e8PIAAAAgACAABAAAAEAAQAAAAAAAAAAA==
> <PUBCHEM_IUPAC_OPENEYE_NAME>
(2R)-1-[[(2S,4R)-1-[(2S)-2-[(2-amino-2-methyl-propoxy)carbonylamino]-3,3-dimethyl-butanoyl]-4-[(7-methoxy-2-phenyl-4-quinolyl)oxy]pyrrolidine-2-carbonyl]amino]-2-vinyl-cyclopropanecarboxylic acid
> <PUBCHEM_IUPAC_CAS_NAME>
(2R)-1-[[[(2S,4R)-1-[(2S)-2-[[(2-amino-2-methylpropoxy)-oxomethyl]amino]-3,3-dimethyl-1-oxobutyl]-4-[(7-methoxy-2-phenyl-4-quinolinyl)oxy]-2-pyrrolidinyl]-oxomethyl]amino]-2-ethenyl-1-cyclopropanecarboxylic acid
> <PUBCHEM_IUPAC_NAME_MARKUP>
(2<I>R</I>)-1-[[(2<I>S</I>,4<I>R</I>)-1-[(2<I>S</I>)-2-[(2-amino-2-methylpropoxy)carbonylamino]-3,3-dimethylbutanoyl]-4-(7-methoxy-2-phenylquinolin-4-yl)oxypyrrolidine-2-carbonyl]amino]-2-ethenylcyclopropane-1-carboxylic acid
> <PUBCHEM_IUPAC_NAME>
(2R)-1-[[(2S,4R)-1-[(2S)-2-[(2-amino-2-methylpropoxy)carbonylamino]-3,3-dimethylbutanoyl]-4-(7-methoxy-2-phenylquinolin-4-yl)oxypyrrolidine-2-carbonyl]amino]-2-ethenylcyclopropane-1-carboxylic acid
> <PUBCHEM_IUPAC_SYSTEMATIC_NAME>
(2R)-1-[[(2S,4R)-1-[(2S)-2-[(2-azanyl-2-methyl-propoxy)carbonylamino]-3,3-dimethyl-butanoyl]-4-(7-methoxy-2-phenyl-quinolin-4-yl)oxy-pyrrolidin-2-yl]carbonylamino]-2-ethenyl-cyclopropane-1-carboxylic acid
> <PUBCHEM_IUPAC_TRADITIONAL_NAME>
(2R)-1-[[(2S,4R)-1-[(2S)-2-[(2-amino-2-methyl-propoxy)carbonylamino]-3,3-dimethyl-butanoyl]-4-[(7-methoxy-2-phenyl-4-quinolyl)oxy]prolyl]amino]-2-vinyl-cyclopropanecarboxylic acid
> <PUBCHEM_IUPAC_INCHI>
InChI=1S/C38H47N5O8/c1-8-23-19-38(23,34(46)47)42-32(44)29-17-25(20-43(29)33(45)31(36(2,3)4)41-35(48)50-21-37(5,6)39)51-30-18-27(22-12-10-9-11-13-22)40-28-16-24(49-7)14-15-26(28)30/h8-16,18,23,25,29,31H,1,17,19-21,39H2,2-7H3,(H,41,48)(H,42,44)(H,46,47)/t23-,25+,29-,31+,38?/m0/s1
> <PUBCHEM_IUPAC_INCHIKEY>
LNYQSMOIEOOTIY-DQORFIDHSA-N
> <PUBCHEM_XLOGP3_AA>
2.3
> <PUBCHEM_EXACT_MASS>
701.34246347
> <PUBCHEM_MOLECULAR_FORMULA>
C38H47N5O8
> <PUBCHEM_MOLECULAR_WEIGHT>
701.8
> <PUBCHEM_OPENEYE_CAN_SMILES>
CC(C)(C)C(C(=O)N1CC(CC1C(=O)NC2(CC2C=C)C(=O)O)OC3=CC(=NC4=C3C=CC(=C4)OC)C5=CC=CC=C5)NC(=O)OCC(C)(C)N
> <PUBCHEM_OPENEYE_ISO_SMILES>
CC(C)(C)[C@@H](C(=O)N1C[C@@H](C[C@H]1C(=O)NC2(C[C@@H]2C=C)C(=O)O)OC3=CC(=NC4=C3C=CC(=C4)OC)C5=CC=CC=C5)NC(=O)OCC(C)(C)N
> <PUBCHEM_CACTVS_TPSA>
182
> <PUBCHEM_MONOISOTOPIC_WEIGHT>
701.34246347
> <PUBCHEM_TOTAL_CHARGE>
0
> <PUBCHEM_HEAVY_ATOM_COUNT>
51
> <PUBCHEM_ATOM_DEF_STEREO_COUNT>
4
> <PUBCHEM_ATOM_UDEF_STEREO_COUNT>
1
> <PUBCHEM_BOND_DEF_STEREO_COUNT>
0
> <PUBCHEM_BOND_UDEF_STEREO_COUNT>
0
> <PUBCHEM_ISOTOPIC_ATOM_COUNT>
0
> <PUBCHEM_COMPONENT_COUNT>
1
> <PUBCHEM_CACTVS_TAUTO_COUNT>
-1
> <PUBCHEM_COORDINATE_TYPE>
1
5
255
> <PUBCHEM_BONDANNOTATIONS>
26  11  5
12  35  8
12  36  8
14  17  3
15  18  6
19  20  6
22  3  5
31  32  8
31  34  8
32  35  8
32  37  8
34  36  8
35  39  8
37  40  8
39  43  8
40  43  8
42  46  8
42  47  8
46  48  8
47  49  8
48  50  8
49  50  8
$$$$
