500863
  -OEChem-10302200282D
155159  0     1  0  0  0  0  0999 V2000
   16.1203    8.3467    0.0000 S   0  0  0  0  0  0  0  0  0  0  0  0
    0.0000    9.4930    0.0000 F   0  0  0  0  0  0  0  0  0  0  0  0
    0.3660   10.8590    0.0000 F   0  0  0  0  0  0  0  0  0  0  0  0
    1.3660    9.1270    0.0000 F   0  0  0  0  0  0  0  0  0  0  0  0
   11.0629   18.6200    0.0000 F   0  0  0  0  0  0  0  0  0  0  0  0
   11.4289   19.9860    0.0000 F   0  0  0  0  0  0  0  0  0  0  0  0
   12.4289   18.2540    0.0000 F   0  0  0  0  0  0  0  0  0  0  0  0
   13.5223    9.8467    0.0000 O   0  0  0  0  0  0  0  0  0  0  0  0
   15.2543   12.8467    0.0000 O   0  0  0  0  0  0  0  0  0  0  0  0
    9.5582    1.3078    0.0000 O   0  0  0  0  0  0  0  0  0  0  0  0
   11.8613    2.2563    0.0000 O   0  0  0  0  0  0  0  0  0  0  0  0
   11.3639    0.7256    0.0000 O   0  0  0  0  0  0  0  0  0  0  0  0
    7.4891    1.9801    0.0000 O   0  0  0  0  0  0  0  0  0  0  0  0
   10.0582    3.8467    0.0000 O   0  0  0  0  0  0  0  0  0  0  0  0
    6.9891    3.5190    0.0000 O   0  0  0  0  0  0  0  0  0  0  0  0
   14.3883    8.3467    0.0000 O   0  0  0  0  0  0  0  0  0  0  0  0
   16.9864    8.8467    0.0000 O   0  0  0  0  0  0  0  0  0  0  0  0
   11.7902    3.8467    0.0000 O   0  0  0  0  0  0  0  0  0  0  0  0
   18.7184   12.8467    0.0000 O   0  0  0  0  0  0  0  0  0  0  0  0
    2.5981    9.9930    0.0000 O   0  0  0  0  0  0  0  0  0  0  0  0
   13.6609   19.1200    0.0000 O   0  0  0  0  0  0  0  0  0  0  0  0
    1.7320   11.4930    0.0000 O   0  0  0  0  0  0  0  0  0  0  0  0
   12.7949   20.6200    0.0000 O   0  0  0  0  0  0  0  0  0  0  0  0
   13.5223   11.8467    0.0000 N   0  0  3  0  0  0  0  0  0  0  0  0
   14.3883   14.3467    0.0000 N   0  0  0  0  0  0  0  0  0  0  0  0
   16.1203   10.3467    0.0000 N   0  0  0  0  0  0  0  0  0  0  0  0
   10.9242    5.3467    0.0000 N   0  0  0  0  0  0  0  0  0  0  0  0
   11.7902   12.8467    0.0000 C   0  0  2  0  0  0  0  0  0  0  0  0
   11.7902   11.8467    0.0000 C   0  0  1  0  0  0  0  0  0  0  0  0
   12.6562   13.3467    0.0000 C   0  0  0  0  0  0  0  0  0  0  0  0
   12.6562   11.3467    0.0000 C   0  0  0  0  0  0  0  0  0  0  0  0
   10.8963   13.3813    0.0000 C   0  0  0  0  0  0  0  0  0  0  0  0
   10.8963   11.3120    0.0000 C   0  0  0  0  0  0  0  0  0  0  0  0
   13.5223   12.8467    0.0000 C   0  0  1  0  0  0  0  0  0  0  0  0
    9.9902   12.8675    0.0000 C   0  0  0  0  0  0  0  0  0  0  0  0
    9.9902   11.8258    0.0000 C   0  0  0  0  0  0  0  0  0  0  0  0
   14.3883   11.3467    0.0000 C   0  0  0  0  0  0  0  0  0  0  0  0
   14.3883   13.3467    0.0000 C   0  0  0  0  0  0  0  0  0  0  0  0
   14.3883   10.3467    0.0000 C   0  0  2  0  0  0  0  0  0  0  0  0
   15.2543    9.8467    0.0000 C   0  0  2  0  0  0  0  0  0  0  0  0
   15.2543   14.8467    0.0000 C   0  0  0  0  0  0  0  0  0  0  0  0
   10.8672    2.2589    0.0000 C   0  0  1  0  0  0  0  0  0  0  0  0
    9.2492    2.2589    0.0000 C   0  0  1  0  0  0  0  0  0  0  0  0
   10.0582    2.8467    0.0000 C   0  0  2  0  0  0  0  0  0  0  0  0
   10.5582    1.3078    0.0000 C   0  0  3  0  0  0  0  0  0  0  0  0
   15.2543    8.8467    0.0000 C   0  0  0  0  0  0  0  0  0  0  0  0
    8.2981    2.5679    0.0000 C   0  0  3  0  0  0  0  0  0  0  0  0
   12.1676    1.3106    0.0000 C   0  0  0  0  0  0  0  0  0  0  0  0
   16.1203   15.3467    0.0000 C   0  0  0  0  0  0  0  0  0  0  0  0
   14.7543   15.7127    0.0000 C   0  0  0  0  0  0  0  0  0  0  0  0
   15.7543   13.9806    0.0000 C   0  0  0  0  0  0  0  0  0  0  0  0
    7.9891    3.5190    0.0000 C   0  0  0  0  0  0  0  0  0  0  0  0
   13.5223    8.8467    0.0000 C   0  0  0  0  0  0  0  0  0  0  0  0
    6.6801    2.5679    0.0000 C   0  0  0  0  0  0  0  0  0  0  0  0
   16.9864    9.8467    0.0000 C   0  0  0  0  0  0  0  0  0  0  0  0
   12.7554    0.5016    0.0000 C   0  0  0  0  0  0  0  0  0  0  0  0
   13.1187    1.6196    0.0000 C   0  0  0  0  0  0  0  0  0  0  0  0
   12.6562    8.3467    0.0000 C   0  0  0  0  0  0  0  0  0  0  0  0
    6.0923    1.7589    0.0000 C   0  0  0  0  0  0  0  0  0  0  0  0
    5.7290    2.8769    0.0000 C   0  0  0  0  0  0  0  0  0  0  0  0
   12.6562    7.3467    0.0000 C   0  0  0  0  0  0  0  0  0  0  0  0
   10.9242    4.3467    0.0000 C   0  0  0  0  0  0  0  0  0  0  0  0
   17.8524   10.3467    0.0000 C   0  0  0  0  0  0  0  0  0  0  0  0
   16.1203    7.3467    0.0000 C   0  0  0  0  0  0  0  0  0  0  0  0
   11.7902    6.8467    0.0000 C   0  0  0  0  0  0  0  0  0  0  0  0
   11.7902    5.8467    0.0000 C   0  0  0  0  0  0  0  0  0  0  0  0
   17.8524   11.3467    0.0000 C   0  0  0  0  0  0  0  0  0  0  0  0
   18.7184    9.8467    0.0000 C   0  0  0  0  0  0  0  0  0  0  0  0
   16.9864    6.8467    0.0000 C   0  0  0  0  0  0  0  0  0  0  0  0
   15.2543    6.8467    0.0000 C   0  0  0  0  0  0  0  0  0  0  0  0
   18.7184   11.8467    0.0000 C   0  0  0  0  0  0  0  0  0  0  0  0
   16.9864   11.8467    0.0000 C   0  0  0  0  0  0  0  0  0  0  0  0
   19.5844   10.3467    0.0000 C   0  0  0  0  0  0  0  0  0  0  0  0
   16.9864    5.8467    0.0000 C   0  0  0  0  0  0  0  0  0  0  0  0
   15.2543    5.8467    0.0000 C   0  0  0  0  0  0  0  0  0  0  0  0
   19.5844   11.3467    0.0000 C   0  0  0  0  0  0  0  0  0  0  0  0
   16.1203    5.3467    0.0000 C   0  0  0  0  0  0  0  0  0  0  0  0
    0.8660    9.9930    0.0000 C   0  0  0  0  0  0  0  0  0  0  0  0
   11.9289   19.1200    0.0000 C   0  0  0  0  0  0  0  0  0  0  0  0
    1.7320   10.4930    0.0000 C   0  0  0  0  0  0  0  0  0  0  0  0
   12.7949   19.6200    0.0000 C   0  0  0  0  0  0  0  0  0  0  0  0
   11.7968   13.6966    0.0000 H   0  0  0  0  0  0  0  0  0  0  0  0
   11.7968   10.9967    0.0000 H   0  0  0  0  0  0  0  0  0  0  0  0
   13.0548   13.8216    0.0000 H   0  0  0  0  0  0  0  0  0  0  0  0
   12.2577   13.8216    0.0000 H   0  0  0  0  0  0  0  0  0  0  0  0
   12.2577   10.8717    0.0000 H   0  0  0  0  0  0  0  0  0  0  0  0
   13.0548   10.8717    0.0000 H   0  0  0  0  0  0  0  0  0  0  0  0
   11.3009   13.8511    0.0000 H   0  0  0  0  0  0  0  0  0  0  0  0
   10.5027   13.8603    0.0000 H   0  0  0  0  0  0  0  0  0  0  0  0
   10.5027   10.8330    0.0000 H   0  0  0  0  0  0  0  0  0  0  0  0
   11.3009   10.8422    0.0000 H   0  0  0  0  0  0  0  0  0  0  0  0
   14.0592   12.5367    0.0000 H   0  0  0  0  0  0  0  0  0  0  0  0
    9.7812   13.4512    0.0000 H   0  0  0  0  0  0  0  0  0  0  0  0
    9.3794   12.7614    0.0000 H   0  0  0  0  0  0  0  0  0  0  0  0
    9.3794   11.9319    0.0000 H   0  0  0  0  0  0  0  0  0  0  0  0
    9.7812   11.2422    0.0000 H   0  0  0  0  0  0  0  0  0  0  0  0
   14.9989   11.2390    0.0000 H   0  0  0  0  0  0  0  0  0  0  0  0
   14.6004   11.9293    0.0000 H   0  0  0  0  0  0  0  0  0  0  0  0
   14.3883    9.7267    0.0000 H   0  0  0  0  0  0  0  0  0  0  0  0
   15.2543   10.4667    0.0000 H   0  0  0  0  0  0  0  0  0  0  0  0
   13.8514   14.6567    0.0000 H   0  0  0  0  0  0  0  0  0  0  0  0
   11.1309    3.0669    0.0000 H   0  0  0  0  0  0  0  0  0  0  0  0
    8.6481    1.6578    0.0000 H   0  0  0  0  0  0  0  0  0  0  0  0
   10.6106    3.1281    0.0000 H   0  0  0  0  0  0  0  0  0  0  0  0
   10.3673    0.7179    0.0000 H   0  0  0  0  0  0  0  0  0  0  0  0
   14.6437    8.9543    0.0000 H   0  0  0  0  0  0  0  0  0  0  0  0
   15.0423    8.2640    0.0000 H   0  0  0  0  0  0  0  0  0  0  0  0
    8.3951    1.9555    0.0000 H   0  0  0  0  0  0  0  0  0  0  0  0
   16.1203   10.9667    0.0000 H   0  0  0  0  0  0  0  0  0  0  0  0
   16.4303   14.8097    0.0000 H   0  0  0  0  0  0  0  0  0  0  0  0
   16.6573   15.6567    0.0000 H   0  0  0  0  0  0  0  0  0  0  0  0
   15.8104   15.8836    0.0000 H   0  0  0  0  0  0  0  0  0  0  0  0
   15.2913   16.0227    0.0000 H   0  0  0  0  0  0  0  0  0  0  0  0
   14.4443   16.2496    0.0000 H   0  0  0  0  0  0  0  0  0  0  0  0
   14.2174   15.4027    0.0000 H   0  0  0  0  0  0  0  0  0  0  0  0
   15.2174   13.6706    0.0000 H   0  0  0  0  0  0  0  0  0  0  0  0
   16.0643   13.4437    0.0000 H   0  0  0  0  0  0  0  0  0  0  0  0
   16.2913   14.2906    0.0000 H   0  0  0  0  0  0  0  0  0  0  0  0
    8.5955    3.6479    0.0000 H   0  0  0  0  0  0  0  0  0  0  0  0
    7.9243    4.1356    0.0000 H   0  0  0  0  0  0  0  0  0  0  0  0
   12.2538    0.1372    0.0000 H   0  0  0  0  0  0  0  0  0  0  0  0
   13.1198    0.0000    0.0000 H   0  0  0  0  0  0  0  0  0  0  0  0
   13.2570    0.8660    0.0000 H   0  0  0  0  0  0  0  0  0  0  0  0
   13.3103    1.0300    0.0000 H   0  0  0  0  0  0  0  0  0  0  0  0
   13.7083    1.8112    0.0000 H   0  0  0  0  0  0  0  0  0  0  0  0
   12.9271    2.2093    0.0000 H   0  0  0  0  0  0  0  0  0  0  0  0
   12.4442    8.9293    0.0000 H   0  0  0  0  0  0  0  0  0  0  0  0
   12.0457    8.2390    0.0000 H   0  0  0  0  0  0  0  0  0  0  0  0
    5.5907    2.1233    0.0000 H   0  0  0  0  0  0  0  0  0  0  0  0
    5.7278    1.2573    0.0000 H   0  0  0  0  0  0  0  0  0  0  0  0
    6.5939    1.3944    0.0000 H   0  0  0  0  0  0  0  0  0  0  0  0
    5.9206    3.4666    0.0000 H   0  0  0  0  0  0  0  0  0  0  0  0
    5.1394    3.0685    0.0000 H   0  0  0  0  0  0  0  0  0  0  0  0
    5.5374    2.2873    0.0000 H   0  0  0  0  0  0  0  0  0  0  0  0
   12.8683    6.7640    0.0000 H   0  0  0  0  0  0  0  0  0  0  0  0
   13.2668    7.4543    0.0000 H   0  0  0  0  0  0  0  0  0  0  0  0
   11.5782    7.4293    0.0000 H   0  0  0  0  0  0  0  0  0  0  0  0
   11.1796    6.7390    0.0000 H   0  0  0  0  0  0  0  0  0  0  0  0
   12.0023    5.2640    0.0000 H   0  0  0  0  0  0  0  0  0  0  0  0
   12.4008    5.9543    0.0000 H   0  0  0  0  0  0  0  0  0  0  0  0
   10.3873    5.6567    0.0000 H   0  0  0  0  0  0  0  0  0  0  0  0
   18.7184    9.2267    0.0000 H   0  0  0  0  0  0  0  0  0  0  0  0
   17.5233    7.1567    0.0000 H   0  0  0  0  0  0  0  0  0  0  0  0
   14.7174    7.1567    0.0000 H   0  0  0  0  0  0  0  0  0  0  0  0
   17.2964   12.3836    0.0000 H   0  0  0  0  0  0  0  0  0  0  0  0
   16.4494   12.1567    0.0000 H   0  0  0  0  0  0  0  0  0  0  0  0
   16.6764   11.3097    0.0000 H   0  0  0  0  0  0  0  0  0  0  0  0
   20.1214   10.0367    0.0000 H   0  0  0  0  0  0  0  0  0  0  0  0
   17.5233    5.5367    0.0000 H   0  0  0  0  0  0  0  0  0  0  0  0
   14.7174    5.5367    0.0000 H   0  0  0  0  0  0  0  0  0  0  0  0
   20.1214   11.6567    0.0000 H   0  0  0  0  0  0  0  0  0  0  0  0
   16.1203    4.7267    0.0000 H   0  0  0  0  0  0  0  0  0  0  0  0
   19.2554   13.1567    0.0000 H   0  0  0  0  0  0  0  0  0  0  0  0
    3.1350   10.3030    0.0000 H   0  0  0  0  0  0  0  0  0  0  0  0
   14.1979   19.4300    0.0000 H   0  0  0  0  0  0  0  0  0  0  0  0
  1 46  1  0  0  0  0
  1 64  1  0  0  0  0
  2 78  1  0  0  0  0
  3 78  1  0  0  0  0
  4 78  1  0  0  0  0
  5 79  1  0  0  0  0
  6 79  1  0  0  0  0
  7 79  1  0  0  0  0
 39  8  1  6  0  0  0
  8 53  1  0  0  0  0
  9 38  2  0  0  0  0
 10 43  1  0  0  0  0
 10 45  1  0  0  0  0
 11 42  1  0  0  0  0
 11 48  1  0  0  0  0
 12 45  1  0  0  0  0
 12 48  1  0  0  0  0
 13 47  1  0  0  0  0
 13 54  1  0  0  0  0
 44 14  1  6  0  0  0
 14 62  1  0  0  0  0
 15 52  1  0  0  0  0
 15 54  1  0  0  0  0
 16 53  2  0  0  0  0
 17 55  2  0  0  0  0
 18 62  2  0  0  0  0
 19 71  1  0  0  0  0
 19153  1  0  0  0  0
 20 80  1  0  0  0  0
 20154  1  0  0  0  0
 21 81  1  0  0  0  0
 21155  1  0  0  0  0
 22 80  2  0  0  0  0
 23 81  2  0  0  0  0
 24 31  1  0  0  0  0
 24 34  1  0  0  0  0
 24 37  1  0  0  0  0
 25 38  1  0  0  0  0
 25 41  1  0  0  0  0
 25101  1  0  0  0  0
 40 26  1  1  0  0  0
 26 55  1  0  0  0  0
 26109  1  0  0  0  0
 27 62  1  0  0  0  0
 27 66  1  0  0  0  0
 27141  1  0  0  0  0
 28 29  1  0  0  0  0
 28 30  1  0  0  0  0
 28 32  1  0  0  0  0
 28 82  1  6  0  0  0
 29 31  1  0  0  0  0
 29 33  1  0  0  0  0
 29 83  1  6  0  0  0
 30 34  1  0  0  0  0
 30 84  1  0  0  0  0
 30 85  1  0  0  0  0
 31 86  1  0  0  0  0
 31 87  1  0  0  0  0
 32 35  1  0  0  0  0
 32 88  1  0  0  0  0
 32 89  1  0  0  0  0
 33 36  1  0  0  0  0
 33 90  1  0  0  0  0
 33 91  1  0  0  0  0
 34 38  1  1  0  0  0
 34 92  1  0  0  0  0
 35 36  1  0  0  0  0
 35 93  1  0  0  0  0
 35 94  1  0  0  0  0
 36 95  1  0  0  0  0
 36 96  1  0  0  0  0
 37 39  1  0  0  0  0
 37 97  1  0  0  0  0
 37 98  1  0  0  0  0
 39 40  1  0  0  0  0
 39 99  1  0  0  0  0
 40 46  1  0  0  0  0
 40100  1  0  0  0  0
 41 49  1  0  0  0  0
 41 50  1  0  0  0  0
 41 51  1  0  0  0  0
 42 44  1  0  0  0  0
 42 45  1  0  0  0  0
 42102  1  1  0  0  0
 43 44  1  0  0  0  0
 43 47  1  0  0  0  0
 43103  1  1  0  0  0
 44104  1  0  0  0  0
 45105  1  0  0  0  0
 46106  1  0  0  0  0
 46107  1  0  0  0  0
 47 52  1  0  0  0  0
 47108  1  0  0  0  0
 48 56  1  0  0  0  0
 48 57  1  0  0  0  0
 49110  1  0  0  0  0
 49111  1  0  0  0  0
 49112  1  0  0  0  0
 50113  1  0  0  0  0
 50114  1  0  0  0  0
 50115  1  0  0  0  0
 51116  1  0  0  0  0
 51117  1  0  0  0  0
 51118  1  0  0  0  0
 52119  1  0  0  0  0
 52120  1  0  0  0  0
 53 58  1  0  0  0  0
 54 59  1  0  0  0  0
 54 60  1  0  0  0  0
 55 63  1  0  0  0  0
 56121  1  0  0  0  0
 56122  1  0  0  0  0
 56123  1  0  0  0  0
 57124  1  0  0  0  0
 57125  1  0  0  0  0
 57126  1  0  0  0  0
 58 61  1  0  0  0  0
 58127  1  0  0  0  0
 58128  1  0  0  0  0
 59129  1  0  0  0  0
 59130  1  0  0  0  0
 59131  1  0  0  0  0
 60132  1  0  0  0  0
 60133  1  0  0  0  0
 60134  1  0  0  0  0
 61 65  1  0  0  0  0
 61135  1  0  0  0  0
 61136  1  0  0  0  0
 63 67  2  0  0  0  0
 63 68  1  0  0  0  0
 64 69  2  0  0  0  0
 64 70  1  0  0  0  0
 65 66  1  0  0  0  0
 65137  1  0  0  0  0
 65138  1  0  0  0  0
 66139  1  0  0  0  0
 66140  1  0  0  0  0
 67 71  1  0  0  0  0
 67 72  1  0  0  0  0
 68 73  2  0  0  0  0
 68142  1  0  0  0  0
 69 74  1  0  0  0  0
 69143  1  0  0  0  0
 70 75  2  0  0  0  0
 70144  1  0  0  0  0
 71 76  2  0  0  0  0
 72145  1  0  0  0  0
 72146  1  0  0  0  0
 72147  1  0  0  0  0
 73 76  1  0  0  0  0
 73148  1  0  0  0  0
 74 77  2  0  0  0  0
 74149  1  0  0  0  0
 75 77  1  0  0  0  0
 75150  1  0  0  0  0
 76151  1  0  0  0  0
 77152  1  0  0  0  0
 78 80  1  0  0  0  0
 79 81  1  0  0  0  0
M  END
> <PUBCHEM_COMPOUND_CID>
500863
> <PUBCHEM_COMPOUND_CANONICALIZED>
1
> <PUBCHEM_CACTVS_COMPLEXITY>
1760
> <PUBCHEM_CACTVS_HBOND_ACCEPTOR>
24
> <PUBCHEM_CACTVS_HBOND_DONOR>
6
> <PUBCHEM_CACTVS_ROTATABLE_BOND>
20
> <PUBCHEM_CACTVS_SUBSKEYS>
AAADcfB/v8BAAAAAAAAAAAAAAAAAASJEgAA8YMEAAAASAACxQAAAHwQQCAAADbz12BeyD4PABgiIAiHSGACCAAAkKBAIiJmODMkbZjKi1TO/cQhl1hG+mYf6+b6OgAABAAAYAAAAAAIAADAAAAAAAAAAAA==
> <PUBCHEM_IUPAC_OPENEYE_NAME>
[(1R,2R)-1-[[(3S,4aS,8aS)-3-(tert-butylcarbamoyl)-3,4,4a,5,6,7,8,8a-octahydro-1H-isoquinolin-2-yl]methyl]-2-[(3-hydroxy-2-methyl-benzoyl)amino]-3-phenylsulfanyl-propyl] 5-[[(5R,6S,6aS)-5-(2,2-dimethyl-1,3-dioxolan-4-yl)-2,2-dimethyl-3a,5,6,6a-tetrahydrofuro[2,3-d][1,3]dioxol-6-yl]oxycarbonylamino]pentanoate;2,2,2-trifluoroacetic acid
> <PUBCHEM_IUPAC_CAS_NAME>
5-[[[(5R,6S,6aS)-5-(2,2-dimethyl-1,3-dioxolan-4-yl)-2,2-dimethyl-3a,5,6,6a-tetrahydrofuro[2,3-d][1,3]dioxol-6-yl]oxy-oxomethyl]amino]pentanoic acid [(2R,3R)-1-[(3S,4aS,8aS)-3-[(tert-butylamino)-oxomethyl]-3,4,4a,5,6,7,8,8a-octahydro-1H-isoquinolin-2-yl]-3-[[(3-hydroxy-2-methylphenyl)-oxomethyl]amino]-4-(phenylthio)butan-2-yl] ester;2,2,2-trifluoroacetic acid
> <PUBCHEM_IUPAC_NAME_MARKUP>
[(2<I>R</I>,3<I>R</I>)-1-[(3<I>S</I>,4<I>a</I><I>S</I>,8<I>a</I><I>S</I>)-3-(<I>tert</I>-butylcarbamoyl)-3,4,4<I>a</I>,5,6,7,8,8<I>a</I>-octahydro-1<I>H</I>-isoquinolin-2-yl]-3-[(3-hydroxy-2-methylbenzoyl)amino]-4-phenylsulfanylbutan-2-yl] 5-[[(5<I>R</I>,6<I>S</I>,6<I>a</I><I>S</I>)-5-(2,2-dimethyl-1,3-dioxolan-4-yl)-2,2-dimethyl-3<I>a</I>,5,6,6<I>a</I>-tetrahydrofuro[2,3-d][1,3]dioxol-6-yl]oxycarbonylamino]pentanoate;2,2,2-trifluoroacetic acid
> <PUBCHEM_IUPAC_NAME>
[(2R,3R)-1-[(3S,4aS,8aS)-3-(tert-butylcarbamoyl)-3,4,4a,5,6,7,8,8a-octahydro-1H-isoquinolin-2-yl]-3-[(3-hydroxy-2-methylbenzoyl)amino]-4-phenylsulfanylbutan-2-yl] 5-[[(5R,6S,6aS)-5-(2,2-dimethyl-1,3-dioxolan-4-yl)-2,2-dimethyl-3a,5,6,6a-tetrahydrofuro[2,3-d][1,3]dioxol-6-yl]oxycarbonylamino]pentanoate;2,2,2-trifluoroacetic acid
> <PUBCHEM_IUPAC_SYSTEMATIC_NAME>
[(2R,3R)-1-[(3S,4aS,8aS)-3-(tert-butylcarbamoyl)-3,4,4a,5,6,7,8,8a-octahydro-1H-isoquinolin-2-yl]-3-[(2-methyl-3-oxidanyl-phenyl)carbonylamino]-4-phenylsulfanyl-butan-2-yl] 5-[[(5R,6S,6aS)-5-(2,2-dimethyl-1,3-dioxolan-4-yl)-2,2-dimethyl-3a,5,6,6a-tetrahydrofuro[2,3-d][1,3]dioxol-6-yl]oxycarbonylamino]pentanoate;2,2,2-tris(fluoranyl)ethanoic acid
> <PUBCHEM_IUPAC_TRADITIONAL_NAME>
5-[[(5R,6S,6aS)-5-(2,2-dimethyl-1,3-dioxolan-4-yl)-2,2-dimethyl-3a,5,6,6a-tetrahydrofuro[2,3-d][1,3]dioxol-6-yl]oxycarbonylamino]valeric acid [(1R,2R)-1-[[(3S,4aS,8aS)-3-(tert-butylcarbamoyl)-3,4,4a,5,6,7,8,8a-octahydro-1H-isoquinolin-2-yl]methyl]-2-[(3-hydroxy-2-methyl-benzoyl)amino]-3-(phenylthio)propyl] ester;2,2,2-trifluoroacetic acid
> <PUBCHEM_IUPAC_INCHI>
InChI=1S/C50H72N4O12S.2C2HF3O2/c1-30-34(21-16-22-37(30)55)44(57)52-35(29-67-33-19-10-9-11-20-33)38(27-54-26-32-18-13-12-17-31(32)25-36(54)45(58)53-48(2,3)4)61-40(56)23-14-15-24-51-47(59)63-42-41(39-28-60-49(5,6)64-39)62-46-43(42)65-50(7,8)66-46;2*3-2(4,5)1(6)7/h9-11,16,19-22,31-32,35-36,38-39,41-43,46,55H,12-15,17-18,23-29H2,1-8H3,(H,51,59)(H,52,57)(H,53,58);2*(H,6,7)/t31-,32+,35-,36-,38+,39?,41+,42-,43-,46?;;/m0../s1
> <PUBCHEM_IUPAC_INCHIKEY>
PWMNOYVXGWFDQC-VEAUNNRFSA-N
> <PUBCHEM_EXACT_MASS>
1180.47247243
> <PUBCHEM_MOLECULAR_FORMULA>
C54H74F6N4O16S
> <PUBCHEM_MOLECULAR_WEIGHT>
1181.2
> <PUBCHEM_OPENEYE_CAN_SMILES>
CC1=C(C=CC=C1O)C(=O)NC(CSC2=CC=CC=C2)C(CN3CC4CCCCC4CC3C(=O)NC(C)(C)C)OC(=O)CCCCNC(=O)OC5C(OC6C5OC(O6)(C)C)C7COC(O7)(C)C.C(=O)(C(F)(F)F)O.C(=O)(C(F)(F)F)O
> <PUBCHEM_OPENEYE_ISO_SMILES>
CC1=C(C=CC=C1O)C(=O)N[C@@H](CSC2=CC=CC=C2)[C@@H](CN3C[C@H]4CCCC[C@H]4C[C@H]3C(=O)NC(C)(C)C)OC(=O)CCCCNC(=O)O[C@H]5[C@H](OC6[C@H]5OC(O6)(C)C)C7COC(O7)(C)C.C(=O)(C(F)(F)F)O.C(=O)(C(F)(F)F)O
> <PUBCHEM_CACTVS_TPSA>
292
> <PUBCHEM_MONOISOTOPIC_WEIGHT>
1180.47247243
> <PUBCHEM_TOTAL_CHARGE>
0
> <PUBCHEM_HEAVY_ATOM_COUNT>
81
> <PUBCHEM_ATOM_DEF_STEREO_COUNT>
8
> <PUBCHEM_ATOM_UDEF_STEREO_COUNT>
2
> <PUBCHEM_BOND_DEF_STEREO_COUNT>
0
> <PUBCHEM_BOND_UDEF_STEREO_COUNT>
0
> <PUBCHEM_ISOTOPIC_ATOM_COUNT>
0
> <PUBCHEM_COMPONENT_COUNT>
3
> <PUBCHEM_CACTVS_TAUTO_COUNT>
-1
> <PUBCHEM_COORDINATE_TYPE>
1
5
255
> <PUBCHEM_BONDANNOTATIONS>
45  12  3
44  14  6
40  26  5
28  82  6
29  83  6
34  38  5
42  102  5
43  103  5
47  52  3
63  67  8
63  68  8
64  69  8
64  70  8
67  71  8
68  73  8
69  74  8
70  75  8
71  76  8
73  76  8
74  77  8
75  77  8
39  8  6
$$$$
