500845
  -OEChem-10302200282D
 25 26  0     1  0  0  0  0  0999 V2000
    4.2690   -2.5199    0.0000 Cl  0  0  0  0  0  0  0  0  0  0  0  0
    7.6811    2.3921    0.0000 O   0  0  0  0  0  0  0  0  0  0  0  0
    6.0812    0.2848    0.0000 N   0  0  0  0  0  0  0  0  0  0  0  0
    6.0812   -1.3247    0.0000 N   0  0  0  0  0  0  0  0  0  0  0  0
    4.2690    0.4801    0.0000 N   0  0  0  0  0  0  0  0  0  0  0  0
    3.4030   -1.0199    0.0000 N   0  0  0  0  0  0  0  0  0  0  0  0
    2.5369    0.4801    0.0000 N   0  0  0  0  0  0  0  0  0  0  0  0
    6.3919    1.2353    0.0000 C   0  0  0  0  0  0  0  0  0  0  0  0
    7.3704    1.4416    0.0000 C   0  0  1  0  0  0  0  0  0  0  0  0
    5.1350   -0.0199    0.0000 C   0  0  0  0  0  0  0  0  0  0  0  0
    5.1350   -1.0199    0.0000 C   0  0  0  0  0  0  0  0  0  0  0  0
    6.6648   -0.5199    0.0000 C   0  0  0  0  0  0  0  0  0  0  0  0
    8.0382    0.6972    0.0000 C   0  0  0  0  0  0  0  0  0  0  0  0
    4.2690   -1.5199    0.0000 C   0  0  0  0  0  0  0  0  0  0  0  0
    3.4030   -0.0199    0.0000 C   0  0  0  0  0  0  0  0  0  0  0  0
    6.3713    1.8550    0.0000 H   0  0  0  0  0  0  0  0  0  0  0  0
    5.7781    1.3227    0.0000 H   0  0  0  0  0  0  0  0  0  0  0  0
    7.9771    1.5694    0.0000 H   0  0  0  0  0  0  0  0  0  0  0  0
    7.2848   -0.5199    0.0000 H   0  0  0  0  0  0  0  0  0  0  0  0
    7.5768    0.2832    0.0000 H   0  0  0  0  0  0  0  0  0  0  0  0
    8.4523    0.2358    0.0000 H   0  0  0  0  0  0  0  0  0  0  0  0
    8.4997    1.1113    0.0000 H   0  0  0  0  0  0  0  0  0  0  0  0
    8.2877    2.5199    0.0000 H   0  0  0  0  0  0  0  0  0  0  0  0
    2.0000    0.1701    0.0000 H   0  0  0  0  0  0  0  0  0  0  0  0
    2.5369    1.1001    0.0000 H   0  0  0  0  0  0  0  0  0  0  0  0
  1 14  1  0  0  0  0
  9  2  1  6  0  0  0
  2 23  1  0  0  0  0
  3  8  1  0  0  0  0
  3 10  1  0  0  0  0
  3 12  1  0  0  0  0
  4 11  1  0  0  0  0
  4 12  2  0  0  0  0
  5 10  1  0  0  0  0
  5 15  2  0  0  0  0
  6 14  2  0  0  0  0
  6 15  1  0  0  0  0
  7 15  1  0  0  0  0
  7 24  1  0  0  0  0
  7 25  1  0  0  0  0
  8  9  1  0  0  0  0
  8 16  1  0  0  0  0
  8 17  1  0  0  0  0
  9 13  1  0  0  0  0
  9 18  1  0  0  0  0
 10 11  2  0  0  0  0
 11 14  1  0  0  0  0
 12 19  1  0  0  0  0
 13 20  1  0  0  0  0
 13 21  1  0  0  0  0
 13 22  1  0  0  0  0
M  END
> <PUBCHEM_COMPOUND_CID>
500845
> <PUBCHEM_COMPOUND_CANONICALIZED>
1
> <PUBCHEM_CACTVS_COMPLEXITY>
231
> <PUBCHEM_CACTVS_HBOND_ACCEPTOR>
5
> <PUBCHEM_CACTVS_HBOND_DONOR>
2
> <PUBCHEM_CACTVS_ROTATABLE_BOND>
2
> <PUBCHEM_CACTVS_SUBSKEYS>
AAADccBzoAAEAAAAAAAAAAAAAAAAAWAAAAAsAAAAAAAAAFgB+AAAHgIQCAAACB7hlyYH8L9MEgCgAQZhZACAgC0RFKABUCAoVhCCWABASEBUBAgIAALQACAAAAAAAAAAAAAAAAAAAAAAAAAAAAAAAAAAAA==
> <PUBCHEM_IUPAC_OPENEYE_NAME>
(2R)-1-(2-amino-6-chloro-purin-9-yl)propan-2-ol
> <PUBCHEM_IUPAC_CAS_NAME>
(2R)-1-(2-amino-6-chloro-9-purinyl)-2-propanol
> <PUBCHEM_IUPAC_NAME_MARKUP>
(2<I>R</I>)-1-(2-amino-6-chloropurin-9-yl)propan-2-ol
> <PUBCHEM_IUPAC_NAME>
(2R)-1-(2-amino-6-chloropurin-9-yl)propan-2-ol
> <PUBCHEM_IUPAC_SYSTEMATIC_NAME>
(2R)-1-(2-azanyl-6-chloranyl-purin-9-yl)propan-2-ol
> <PUBCHEM_IUPAC_TRADITIONAL_NAME>
(2R)-1-(2-amino-6-chloro-purin-9-yl)propan-2-ol
> <PUBCHEM_IUPAC_INCHI>
InChI=1S/C8H10ClN5O/c1-4(15)2-14-3-11-5-6(9)12-8(10)13-7(5)14/h3-4,15H,2H2,1H3,(H2,10,12,13)/t4-/m1/s1
> <PUBCHEM_IUPAC_INCHIKEY>
VSYWGQIEDLTXSL-SCSAIBSYSA-N
> <PUBCHEM_XLOGP3_AA>
0.3
> <PUBCHEM_EXACT_MASS>
227.0573877
> <PUBCHEM_MOLECULAR_FORMULA>
C8H10ClN5O
> <PUBCHEM_MOLECULAR_WEIGHT>
227.65
> <PUBCHEM_OPENEYE_CAN_SMILES>
CC(CN1C=NC2=C1N=C(N=C2Cl)N)O
> <PUBCHEM_OPENEYE_ISO_SMILES>
C[C@H](CN1C=NC2=C1N=C(N=C2Cl)N)O
> <PUBCHEM_CACTVS_TPSA>
89.8
> <PUBCHEM_MONOISOTOPIC_WEIGHT>
227.0573877
> <PUBCHEM_TOTAL_CHARGE>
0
> <PUBCHEM_HEAVY_ATOM_COUNT>
15
> <PUBCHEM_ATOM_DEF_STEREO_COUNT>
1
> <PUBCHEM_ATOM_UDEF_STEREO_COUNT>
0
> <PUBCHEM_BOND_DEF_STEREO_COUNT>
0
> <PUBCHEM_BOND_UDEF_STEREO_COUNT>
0
> <PUBCHEM_ISOTOPIC_ATOM_COUNT>
0
> <PUBCHEM_COMPONENT_COUNT>
1
> <PUBCHEM_CACTVS_TAUTO_COUNT>
-1
> <PUBCHEM_COORDINATE_TYPE>
1
5
255
> <PUBCHEM_BONDANNOTATIONS>
10  11  8
11  14  8
9  2  6
3  10  8
3  12  8
4  11  8
4  12  8
5  10  8
5  15  8
6  14  8
6  15  8
$$$$
