500806
  -OEChem-10302200282D
 98104  0     1  0  0  0  0  0999 V2000
   12.8249   -0.7668    0.0000 O   0  0  0  0  0  0  0  0  0  0  0  0
   11.4236    0.2513    0.0000 O   0  0  0  0  0  0  0  0  0  0  0  0
    6.3981   -1.1851    0.0000 O   0  0  0  0  0  0  0  0  0  0  0  0
   10.4291    0.3558    0.0000 O   0  0  0  0  0  0  0  0  0  0  0  0
    9.7480    1.5354    0.0000 O   0  0  0  0  0  0  0  0  0  0  0  0
    2.8680   -4.2092    0.0000 O   0  0  0  0  0  0  0  0  0  0  0  0
   10.2480   -1.3667    0.0000 N   0  0  0  0  0  0  0  0  0  0  0  0
    8.3468    0.5174    0.0000 N   0  0  0  0  0  0  0  0  0  0  0  0
    8.5725    3.1535    0.0000 N   0  0  0  0  0  0  0  0  0  0  0  0
    6.3981   -4.1851    0.0000 N   0  0  0  0  0  0  0  0  0  0  0  0
   11.2426   -1.4712    0.0000 C   0  0  3  0  0  0  0  0  0  0  0  0
   11.1380   -2.4658    0.0000 C   0  0  2  0  0  0  0  0  0  0  0  0
   12.0516   -2.0590    0.0000 C   0  0  0  0  0  0  0  0  0  0  0  0
   11.8303   -0.6622    0.0000 C   0  0  0  0  0  0  0  0  0  0  0  0
   10.5502   -3.2748    0.0000 C   0  0  0  0  0  0  0  0  0  0  0  0
    8.8468   -0.3487    0.0000 C   0  0  2  0  0  0  0  0  0  0  0  0
    9.8413   -0.4532    0.0000 C   0  0  0  0  0  0  0  0  0  0  0  0
    8.1776   -1.0918    0.0000 C   0  0  0  0  0  0  0  0  0  0  0  0
    7.2641   -0.6851    0.0000 C   0  0  2  0  0  0  0  0  0  0  0  0
    7.3686    0.3095    0.0000 C   0  0  0  0  0  0  0  0  0  0  0  0
   10.9570   -4.1883    0.0000 C   0  0  0  0  0  0  0  0  0  0  0  0
    8.7535    1.4309    0.0000 C   0  0  0  0  0  0  0  0  0  0  0  0
    8.1657    2.2399    0.0000 C   0  0  2  0  0  0  0  0  0  0  0  0
    7.1712    2.1354    0.0000 C   0  0  0  0  0  0  0  0  0  0  0  0
    6.3981   -2.1851    0.0000 C   0  0  0  0  0  0  0  0  0  0  0  0
    6.7645    1.2219    0.0000 C   0  0  0  0  0  0  0  0  0  0  0  0
    6.5834    2.9444    0.0000 C   0  0  0  0  0  0  0  0  0  0  0  0
    5.5320   -2.6851    0.0000 C   0  0  0  0  0  0  0  0  0  0  0  0
    7.9847    3.9625    0.0000 C   0  0  0  0  0  0  0  0  0  0  0  0
    7.2641   -2.6851    0.0000 C   0  0  0  0  0  0  0  0  0  0  0  0
    5.5320   -3.6851    0.0000 C   0  0  0  0  0  0  0  0  0  0  0  0
    7.2641   -3.6851    0.0000 C   0  0  0  0  0  0  0  0  0  0  0  0
    4.6381   -2.1504    0.0000 C   0  0  0  0  0  0  0  0  0  0  0  0
    6.9902    3.8580    0.0000 C   0  0  0  0  0  0  0  0  0  0  0  0
    8.3914    4.8760    0.0000 C   0  0  0  0  0  0  0  0  0  0  0  0
    4.6381   -4.2197    0.0000 C   0  0  0  0  0  0  0  0  0  0  0  0
    6.4024    4.6670    0.0000 C   0  0  0  0  0  0  0  0  0  0  0  0
    3.7320   -2.6642    0.0000 C   0  0  0  0  0  0  0  0  0  0  0  0
    8.1301   -4.1851    0.0000 C   0  0  0  0  0  0  0  0  0  0  0  0
    7.8036    5.6851    0.0000 C   0  0  0  0  0  0  0  0  0  0  0  0
    3.7320   -3.7059    0.0000 C   0  0  0  0  0  0  0  0  0  0  0  0
    6.8091    5.5805    0.0000 C   0  0  0  0  0  0  0  0  0  0  0  0
    5.4078    4.5625    0.0000 C   0  0  0  0  0  0  0  0  0  0  0  0
    8.1301   -5.1851    0.0000 C   0  0  0  0  0  0  0  0  0  0  0  0
    8.9962   -3.6851    0.0000 C   0  0  0  0  0  0  0  0  0  0  0  0
    4.8201    5.3715    0.0000 C   0  0  0  0  0  0  0  0  0  0  0  0
    5.0011    3.6489    0.0000 C   0  0  0  0  0  0  0  0  0  0  0  0
    8.9962   -5.6851    0.0000 C   0  0  0  0  0  0  0  0  0  0  0  0
    9.8622   -4.1851    0.0000 C   0  0  0  0  0  0  0  0  0  0  0  0
    9.8622   -5.1851    0.0000 C   0  0  0  0  0  0  0  0  0  0  0  0
    2.0000   -3.7126    0.0000 C   0  0  0  0  0  0  0  0  0  0  0  0
    3.8255    5.2669    0.0000 C   0  0  0  0  0  0  0  0  0  0  0  0
    4.0066    3.5444    0.0000 C   0  0  0  0  0  0  0  0  0  0  0  0
    3.4188    4.3534    0.0000 C   0  0  0  0  0  0  0  0  0  0  0  0
   10.5592   -2.2436    0.0000 H   0  0  0  0  0  0  0  0  0  0  0  0
   12.3983   -2.5730    0.0000 H   0  0  0  0  0  0  0  0  0  0  0  0
   12.4976   -1.6284    0.0000 H   0  0  0  0  0  0  0  0  0  0  0  0
    9.8836   -1.8683    0.0000 H   0  0  0  0  0  0  0  0  0  0  0  0
    9.9336   -3.2100    0.0000 H   0  0  0  0  0  0  0  0  0  0  0  0
    9.1844    0.1713    0.0000 H   0  0  0  0  0  0  0  0  0  0  0  0
    7.8676   -1.6287    0.0000 H   0  0  0  0  0  0  0  0  0  0  0  0
    8.6792   -1.4562    0.0000 H   0  0  0  0  0  0  0  0  0  0  0  0
    6.7441   -0.3474    0.0000 H   0  0  0  0  0  0  0  0  0  0  0  0
    7.3038    0.9261    0.0000 H   0  0  0  0  0  0  0  0  0  0  0  0
    6.7486    0.3095    0.0000 H   0  0  0  0  0  0  0  0  0  0  0  0
   10.5926   -4.6899    0.0000 H   0  0  0  0  0  0  0  0  0  0  0  0
   11.5736   -4.2532    0.0000 H   0  0  0  0  0  0  0  0  0  0  0  0
   13.1893   -0.2652    0.0000 H   0  0  0  0  0  0  0  0  0  0  0  0
    7.8013    2.7415    0.0000 H   0  0  0  0  0  0  0  0  0  0  0  0
    7.5356    1.6338    0.0000 H   0  0  0  0  0  0  0  0  0  0  0  0
    9.1891    3.2183    0.0000 H   0  0  0  0  0  0  0  0  0  0  0  0
    6.1981    1.4740    0.0000 H   0  0  0  0  0  0  0  0  0  0  0  0
    6.5123    0.6555    0.0000 H   0  0  0  0  0  0  0  0  0  0  0  0
    7.3309    0.9697    0.0000 H   0  0  0  0  0  0  0  0  0  0  0  0
    7.0850    3.3088    0.0000 H   0  0  0  0  0  0  0  0  0  0  0  0
    6.2190    3.4460    0.0000 H   0  0  0  0  0  0  0  0  0  0  0  0
    6.0818    2.5800    0.0000 H   0  0  0  0  0  0  0  0  0  0  0  0
    7.8010   -2.3751    0.0000 H   0  0  0  0  0  0  0  0  0  0  0  0
    4.6453   -1.5304    0.0000 H   0  0  0  0  0  0  0  0  0  0  0  0
    6.7380    3.2916    0.0000 H   0  0  0  0  0  0  0  0  0  0  0  0
    9.0080    4.9408    0.0000 H   0  0  0  0  0  0  0  0  0  0  0  0
    4.6453   -4.8397    0.0000 H   0  0  0  0  0  0  0  0  0  0  0  0
    3.1963   -2.3522    0.0000 H   0  0  0  0  0  0  0  0  0  0  0  0
    8.0558    6.2515    0.0000 H   0  0  0  0  0  0  0  0  0  0  0  0
    6.4447    6.0821    0.0000 H   0  0  0  0  0  0  0  0  0  0  0  0
    7.5932   -5.4951    0.0000 H   0  0  0  0  0  0  0  0  0  0  0  0
    8.9962   -3.0651    0.0000 H   0  0  0  0  0  0  0  0  0  0  0  0
    5.0722    5.9379    0.0000 H   0  0  0  0  0  0  0  0  0  0  0  0
    5.3655    3.1473    0.0000 H   0  0  0  0  0  0  0  0  0  0  0  0
    8.9962   -6.3051    0.0000 H   0  0  0  0  0  0  0  0  0  0  0  0
   10.3991   -3.8751    0.0000 H   0  0  0  0  0  0  0  0  0  0  0  0
   10.3991   -5.4951    0.0000 H   0  0  0  0  0  0  0  0  0  0  0  0
    2.3079   -3.1744    0.0000 H   0  0  0  0  0  0  0  0  0  0  0  0
    1.4619   -3.4046    0.0000 H   0  0  0  0  0  0  0  0  0  0  0  0
    1.6921   -4.2507    0.0000 H   0  0  0  0  0  0  0  0  0  0  0  0
    3.4611    5.7685    0.0000 H   0  0  0  0  0  0  0  0  0  0  0  0
    3.7544    2.9780    0.0000 H   0  0  0  0  0  0  0  0  0  0  0  0
    2.8022    4.2886    0.0000 H   0  0  0  0  0  0  0  0  0  0  0  0
  1 14  1  0  0  0  0
  1 68  1  0  0  0  0
  2 14  2  0  0  0  0
 19  3  1  1  0  0  0
  3 25  1  0  0  0  0
  4 17  2  0  0  0  0
  5 22  2  0  0  0  0
  6 41  1  0  0  0  0
  6 51  1  0  0  0  0
  7 11  1  0  0  0  0
  7 17  1  0  0  0  0
  7 58  1  0  0  0  0
  8 16  1  0  0  0  0
  8 20  1  0  0  0  0
  8 22  1  0  0  0  0
 23  9  1  6  0  0  0
  9 29  1  0  0  0  0
  9 71  1  0  0  0  0
 10 31  1  0  0  0  0
 10 32  2  0  0  0  0
 11 12  1  0  0  0  0
 11 13  1  0  0  0  0
 11 14  1  0  0  0  0
 12 13  1  0  0  0  0
 12 15  1  6  0  0  0
 12 55  1  0  0  0  0
 13 56  1  0  0  0  0
 13 57  1  0  0  0  0
 15 21  2  0  0  0  0
 15 59  1  0  0  0  0
 16 17  1  6  0  0  0
 16 18  1  0  0  0  0
 16 60  1  0  0  0  0
 18 19  1  0  0  0  0
 18 61  1  0  0  0  0
 18 62  1  0  0  0  0
 19 20  1  0  0  0  0
 19 63  1  0  0  0  0
 20 64  1  0  0  0  0
 20 65  1  0  0  0  0
 21 66  1  0  0  0  0
 21 67  1  0  0  0  0
 22 23  1  0  0  0  0
 23 24  1  0  0  0  0
 23 69  1  0  0  0  0
 24 26  1  0  0  0  0
 24 27  1  0  0  0  0
 24 70  1  0  0  0  0
 25 28  1  0  0  0  0
 25 30  2  0  0  0  0
 26 72  1  0  0  0  0
 26 73  1  0  0  0  0
 26 74  1  0  0  0  0
 27 75  1  0  0  0  0
 27 76  1  0  0  0  0
 27 77  1  0  0  0  0
 28 31  2  0  0  0  0
 28 33  1  0  0  0  0
 29 34  1  0  0  0  0
 29 35  2  0  0  0  0
 30 32  1  0  0  0  0
 30 78  1  0  0  0  0
 31 36  1  0  0  0  0
 32 39  1  0  0  0  0
 33 38  2  0  0  0  0
 33 79  1  0  0  0  0
 34 37  2  0  0  0  0
 34 80  1  0  0  0  0
 35 40  1  0  0  0  0
 35 81  1  0  0  0  0
 36 41  2  0  0  0  0
 36 82  1  0  0  0  0
 37 42  1  0  0  0  0
 37 43  1  0  0  0  0
 38 41  1  0  0  0  0
 38 83  1  0  0  0  0
 39 44  2  0  0  0  0
 39 45  1  0  0  0  0
 40 42  2  0  0  0  0
 40 84  1  0  0  0  0
 42 85  1  0  0  0  0
 43 46  2  0  0  0  0
 43 47  1  0  0  0  0
 44 48  1  0  0  0  0
 44 86  1  0  0  0  0
 45 49  2  0  0  0  0
 45 87  1  0  0  0  0
 46 52  1  0  0  0  0
 46 88  1  0  0  0  0
 47 53  2  0  0  0  0
 47 89  1  0  0  0  0
 48 50  2  0  0  0  0
 48 90  1  0  0  0  0
 49 50  1  0  0  0  0
 49 91  1  0  0  0  0
 50 92  1  0  0  0  0
 51 93  1  0  0  0  0
 51 94  1  0  0  0  0
 51 95  1  0  0  0  0
 52 54  2  0  0  0  0
 52 96  1  0  0  0  0
 53 54  1  0  0  0  0
 53 97  1  0  0  0  0
 54 98  1  0  0  0  0
M  END
> <PUBCHEM_COMPOUND_CID>
500806
> <PUBCHEM_COMPOUND_CANONICALIZED>
1
> <PUBCHEM_CACTVS_COMPLEXITY>
1320
> <PUBCHEM_CACTVS_HBOND_ACCEPTOR>
8
> <PUBCHEM_CACTVS_HBOND_DONOR>
3
> <PUBCHEM_CACTVS_ROTATABLE_BOND>
13
> <PUBCHEM_CACTVS_SUBSKEYS>
AAADcfB/uAAAAAAAAAAAAAAAGAAAAWAAAAA8YMGCAAAAAACx9AAAHgAQCAAADbzhngYyzvPIFgCoAyXyXACCiCAhIiAImKG+bJgOZvLEsbuXeCjm1hnY6Ae68e8OoAAAQgACAABAAACEAAQAAAAAAAAAAA==
> <PUBCHEM_IUPAC_OPENEYE_NAME>
(2R)-1-[[(2S,4R)-4-[(7-methoxy-2-phenyl-4-quinolyl)oxy]-1-[(2S)-3-methyl-2-(3-phenylanilino)butanoyl]pyrrolidine-2-carbonyl]amino]-2-vinyl-cyclopropanecarboxylic acid
> <PUBCHEM_IUPAC_CAS_NAME>
(2R)-2-ethenyl-1-[[[(2S,4R)-4-[(7-methoxy-2-phenyl-4-quinolinyl)oxy]-1-[(2S)-3-methyl-1-oxo-2-(3-phenylanilino)butyl]-2-pyrrolidinyl]-oxomethyl]amino]-1-cyclopropanecarboxylic acid
> <PUBCHEM_IUPAC_NAME_MARKUP>
(2<I>R</I>)-2-ethenyl-1-[[(2<I>S</I>,4<I>R</I>)-4-(7-methoxy-2-phenylquinolin-4-yl)oxy-1-[(2<I>S</I>)-3-methyl-2-(3-phenylanilino)butanoyl]pyrrolidine-2-carbonyl]amino]cyclopropane-1-carboxylic acid
> <PUBCHEM_IUPAC_NAME>
(2R)-2-ethenyl-1-[[(2S,4R)-4-(7-methoxy-2-phenylquinolin-4-yl)oxy-1-[(2S)-3-methyl-2-(3-phenylanilino)butanoyl]pyrrolidine-2-carbonyl]amino]cyclopropane-1-carboxylic acid
> <PUBCHEM_IUPAC_SYSTEMATIC_NAME>
(2R)-2-ethenyl-1-[[(2S,4R)-4-(7-methoxy-2-phenyl-quinolin-4-yl)oxy-1-[(2S)-3-methyl-2-[(3-phenylphenyl)amino]butanoyl]pyrrolidin-2-yl]carbonylamino]cyclopropane-1-carboxylic acid
> <PUBCHEM_IUPAC_TRADITIONAL_NAME>
(2R)-1-[[(2S,4R)-4-[(7-methoxy-2-phenyl-4-quinolyl)oxy]-1-[(2S)-3-methyl-2-(3-phenylanilino)butanoyl]prolyl]amino]-2-vinyl-cyclopropanecarboxylic acid
> <PUBCHEM_IUPAC_INCHI>
InChI=1S/C44H44N4O6/c1-5-31-25-44(31,43(51)52)47-41(49)38-23-34(54-39-24-36(29-15-10-7-11-16-29)46-37-22-33(53-4)19-20-35(37)39)26-48(38)42(50)40(27(2)3)45-32-18-12-17-30(21-32)28-13-8-6-9-14-28/h5-22,24,27,31,34,38,40,45H,1,23,25-26H2,2-4H3,(H,47,49)(H,51,52)/t31-,34+,38-,40-,44?/m0/s1
> <PUBCHEM_IUPAC_INCHIKEY>
JGQCHZWIMVDTCT-KSCDQZEISA-N
> <PUBCHEM_XLOGP3_AA>
8.1
> <PUBCHEM_EXACT_MASS>
724.32608514
> <PUBCHEM_MOLECULAR_FORMULA>
C44H44N4O6
> <PUBCHEM_MOLECULAR_WEIGHT>
724.8
> <PUBCHEM_OPENEYE_CAN_SMILES>
CC(C)C(C(=O)N1CC(CC1C(=O)NC2(CC2C=C)C(=O)O)OC3=CC(=NC4=C3C=CC(=C4)OC)C5=CC=CC=C5)NC6=CC=CC(=C6)C7=CC=CC=C7
> <PUBCHEM_OPENEYE_ISO_SMILES>
CC(C)[C@@H](C(=O)N1C[C@@H](C[C@H]1C(=O)NC2(C[C@@H]2C=C)C(=O)O)OC3=CC(=NC4=C3C=CC(=C4)OC)C5=CC=CC=C5)NC6=CC=CC(=C6)C7=CC=CC=C7
> <PUBCHEM_CACTVS_TPSA>
130
> <PUBCHEM_MONOISOTOPIC_WEIGHT>
724.32608514
> <PUBCHEM_TOTAL_CHARGE>
0
> <PUBCHEM_HEAVY_ATOM_COUNT>
54
> <PUBCHEM_ATOM_DEF_STEREO_COUNT>
4
> <PUBCHEM_ATOM_UDEF_STEREO_COUNT>
1
> <PUBCHEM_BOND_DEF_STEREO_COUNT>
0
> <PUBCHEM_BOND_UDEF_STEREO_COUNT>
0
> <PUBCHEM_ISOTOPIC_ATOM_COUNT>
0
> <PUBCHEM_COMPONENT_COUNT>
1
> <PUBCHEM_CACTVS_TAUTO_COUNT>
-1
> <PUBCHEM_COORDINATE_TYPE>
1
5
255
> <PUBCHEM_BONDANNOTATIONS>
10  31  8
10  32  8
11  14  3
12  15  6
16  17  6
25  28  8
25  30  8
28  31  8
28  33  8
29  34  8
29  35  8
19  3  5
30  32  8
31  36  8
33  38  8
34  37  8
35  40  8
36  41  8
37  42  8
38  41  8
39  44  8
39  45  8
40  42  8
43  46  8
43  47  8
44  48  8
45  49  8
46  52  8
47  53  8
48  50  8
49  50  8
52  54  8
53  54  8
23  9  6
$$$$
