500871
  -OEChem-10302200282D
100104  0     1  0  0  0  0  0999 V2000
    8.0622    0.5173    0.0000 S   0  0  0  0  0  0  0  0  0  0  0  0
    4.5981    2.5173    0.0000 O   0  0  0  0  0  0  0  0  0  0  0  0
    7.1962    2.0173    0.0000 O   0  0  0  0  0  0  0  0  0  0  0  0
    5.4641   -0.9827    0.0000 O   0  0  0  0  0  0  0  0  0  0  0  0
    8.0622   -3.4827    0.0000 O   0  0  0  0  0  0  0  0  0  0  0  0
    9.7942    3.5173    0.0000 O   0  0  0  0  0  0  0  0  0  0  0  0
    8.0622    2.5173    0.0000 O   0  0  0  0  0  0  0  0  0  0  0  0
    8.9282   -1.9827    0.0000 O   0  0  0  0  0  0  0  0  0  0  0  0
    6.3301    0.5173    0.0000 N   0  0  0  0  0  0  0  0  0  0  0  0
    6.3301    3.5173    0.0000 N   0  0  0  0  0  0  0  0  0  0  0  0
    7.1962   -1.9827    0.0000 N   0  0  0  0  0  0  0  0  0  0  0  0
    7.1962    4.0173    0.0000 N   0  0  0  0  0  0  0  0  0  0  0  0
   11.5942   -6.5035    0.0000 N   0  0  0  0  0  0  0  0  0  0  0  0
    5.4641    1.0173    0.0000 C   0  0  2  0  0  0  0  0  0  0  0  0
    5.4641    2.0173    0.0000 C   0  0  1  0  0  0  0  0  0  0  0  0
    4.5981    0.5173    0.0000 C   0  0  0  0  0  0  0  0  0  0  0  0
    3.7320    1.0173    0.0000 C   0  0  0  0  0  0  0  0  0  0  0  0
    6.3301    2.5173    0.0000 C   0  0  0  0  0  0  0  0  0  0  0  0
    6.3301   -0.4827    0.0000 C   0  0  0  0  0  0  0  0  0  0  0  0
    7.1962   -0.9827    0.0000 C   0  0  2  0  0  0  0  0  0  0  0  0
    5.4641    4.0173    0.0000 C   0  0  0  0  0  0  0  0  0  0  0  0
    2.8660    0.5173    0.0000 C   0  0  0  0  0  0  0  0  0  0  0  0
    3.7320    2.0173    0.0000 C   0  0  0  0  0  0  0  0  0  0  0  0
    8.0622   -0.4827    0.0000 C   0  0  0  0  0  0  0  0  0  0  0  0
    5.4641    5.0173    0.0000 C   0  0  0  0  0  0  0  0  0  0  0  0
    2.0000    1.0173    0.0000 C   0  0  0  0  0  0  0  0  0  0  0  0
    2.8660    2.5173    0.0000 C   0  0  0  0  0  0  0  0  0  0  0  0
    2.0000    2.0173    0.0000 C   0  0  0  0  0  0  0  0  0  0  0  0
    8.0622    3.5173    0.0000 C   0  0  0  0  0  0  0  0  0  0  0  0
    8.0622   -2.4827    0.0000 C   0  0  0  0  0  0  0  0  0  0  0  0
    4.5981    5.5173    0.0000 C   0  0  0  0  0  0  0  0  0  0  0  0
    6.3301    5.5173    0.0000 C   0  0  0  0  0  0  0  0  0  0  0  0
    8.9282    4.0173    0.0000 C   0  0  0  0  0  0  0  0  0  0  0  0
    4.5981    6.5173    0.0000 C   0  0  0  0  0  0  0  0  0  0  0  0
    6.3301    6.5173    0.0000 C   0  0  0  0  0  0  0  0  0  0  0  0
    8.9282    1.0173    0.0000 C   0  0  0  0  0  0  0  0  0  0  0  0
    8.9282   -3.9827    0.0000 C   0  0  0  0  0  0  0  0  0  0  0  0
    8.9282   -4.9827    0.0000 C   0  0  0  0  0  0  0  0  0  0  0  0
    5.4641    7.0173    0.0000 C   0  0  0  0  0  0  0  0  0  0  0  0
    9.7942   -5.4827    0.0000 C   0  0  0  0  0  0  0  0  0  0  0  0
   10.6603    4.0173    0.0000 C   0  0  0  0  0  0  0  0  0  0  0  0
    9.7942   -6.4827    0.0000 C   0  0  0  0  0  0  0  0  0  0  0  0
    8.0622   -5.4827    0.0000 C   0  0  0  0  0  0  0  0  0  0  0  0
   11.5263    3.5173    0.0000 C   0  0  0  0  0  0  0  0  0  0  0  0
   10.6603    5.0173    0.0000 C   0  0  0  0  0  0  0  0  0  0  0  0
    8.9282   -6.9827    0.0000 C   0  0  0  0  0  0  0  0  0  0  0  0
   10.6882   -4.9480    0.0000 C   0  0  0  0  0  0  0  0  0  0  0  0
    8.0622   -6.4827    0.0000 C   0  0  0  0  0  0  0  0  0  0  0  0
   10.6882   -7.0173    0.0000 C   0  0  0  0  0  0  0  0  0  0  0  0
   12.3923    4.0173    0.0000 C   0  0  0  0  0  0  0  0  0  0  0  0
   11.5263    5.5173    0.0000 C   0  0  0  0  0  0  0  0  0  0  0  0
   11.5263    2.5173    0.0000 C   0  0  0  0  0  0  0  0  0  0  0  0
    9.7942    5.5173    0.0000 C   0  0  0  0  0  0  0  0  0  0  0  0
   12.3923    5.0173    0.0000 C   0  0  0  0  0  0  0  0  0  0  0  0
   11.5942   -5.4618    0.0000 C   0  0  0  0  0  0  0  0  0  0  0  0
    5.4641    0.3973    0.0000 H   0  0  0  0  0  0  0  0  0  0  0  0
    5.4641    2.6373    0.0000 H   0  0  0  0  0  0  0  0  0  0  0  0
    4.1996    0.0424    0.0000 H   0  0  0  0  0  0  0  0  0  0  0  0
    4.9966    0.0424    0.0000 H   0  0  0  0  0  0  0  0  0  0  0  0
    6.8671    0.8273    0.0000 H   0  0  0  0  0  0  0  0  0  0  0  0
    6.6592   -1.2927    0.0000 H   0  0  0  0  0  0  0  0  0  0  0  0
    4.8535    4.1250    0.0000 H   0  0  0  0  0  0  0  0  0  0  0  0
    5.2520    3.4347    0.0000 H   0  0  0  0  0  0  0  0  0  0  0  0
    4.5981    3.1373    0.0000 H   0  0  0  0  0  0  0  0  0  0  0  0
    2.8660   -0.1027    0.0000 H   0  0  0  0  0  0  0  0  0  0  0  0
    4.2690    2.3273    0.0000 H   0  0  0  0  0  0  0  0  0  0  0  0
    8.2742   -1.0653    0.0000 H   0  0  0  0  0  0  0  0  0  0  0  0
    8.6728   -0.3750    0.0000 H   0  0  0  0  0  0  0  0  0  0  0  0
    6.6592   -2.2927    0.0000 H   0  0  0  0  0  0  0  0  0  0  0  0
    7.1962    4.6373    0.0000 H   0  0  0  0  0  0  0  0  0  0  0  0
    1.4631    0.7073    0.0000 H   0  0  0  0  0  0  0  0  0  0  0  0
    2.8660    3.1373    0.0000 H   0  0  0  0  0  0  0  0  0  0  0  0
    1.4631    2.3273    0.0000 H   0  0  0  0  0  0  0  0  0  0  0  0
    4.0611    5.2073    0.0000 H   0  0  0  0  0  0  0  0  0  0  0  0
    6.8671    5.2073    0.0000 H   0  0  0  0  0  0  0  0  0  0  0  0
    9.3267    4.4923    0.0000 H   0  0  0  0  0  0  0  0  0  0  0  0
    8.5297    4.4923    0.0000 H   0  0  0  0  0  0  0  0  0  0  0  0
    4.0611    6.8273    0.0000 H   0  0  0  0  0  0  0  0  0  0  0  0
    6.8671    6.8273    0.0000 H   0  0  0  0  0  0  0  0  0  0  0  0
    9.5388   -4.0903    0.0000 H   0  0  0  0  0  0  0  0  0  0  0  0
    9.1403   -3.4001    0.0000 H   0  0  0  0  0  0  0  0  0  0  0  0
    9.2382    0.4804    0.0000 H   0  0  0  0  0  0  0  0  0  0  0  0
    9.4651    1.3273    0.0000 H   0  0  0  0  0  0  0  0  0  0  0  0
    8.6182    1.5543    0.0000 H   0  0  0  0  0  0  0  0  0  0  0  0
    5.4641    7.6373    0.0000 H   0  0  0  0  0  0  0  0  0  0  0  0
    7.5252   -5.1727    0.0000 H   0  0  0  0  0  0  0  0  0  0  0  0
    8.9282   -7.6027    0.0000 H   0  0  0  0  0  0  0  0  0  0  0  0
   10.6810   -4.3280    0.0000 H   0  0  0  0  0  0  0  0  0  0  0  0
    7.5252   -6.7927    0.0000 H   0  0  0  0  0  0  0  0  0  0  0  0
   10.6810   -7.6373    0.0000 H   0  0  0  0  0  0  0  0  0  0  0  0
   12.9292    3.7073    0.0000 H   0  0  0  0  0  0  0  0  0  0  0  0
   11.5263    6.1373    0.0000 H   0  0  0  0  0  0  0  0  0  0  0  0
   10.9063    2.5173    0.0000 H   0  0  0  0  0  0  0  0  0  0  0  0
   11.5263    1.8973    0.0000 H   0  0  0  0  0  0  0  0  0  0  0  0
   12.1463    2.5173    0.0000 H   0  0  0  0  0  0  0  0  0  0  0  0
   10.1042    6.0543    0.0000 H   0  0  0  0  0  0  0  0  0  0  0  0
    9.2573    5.8273    0.0000 H   0  0  0  0  0  0  0  0  0  0  0  0
    9.4842    4.9804    0.0000 H   0  0  0  0  0  0  0  0  0  0  0  0
   12.9292    5.3273    0.0000 H   0  0  0  0  0  0  0  0  0  0  0  0
   12.1300   -5.1498    0.0000 H   0  0  0  0  0  0  0  0  0  0  0  0
  1 24  1  0  0  0  0
  1 36  1  0  0  0  0
 15  2  1  6  0  0  0
  2 64  1  0  0  0  0
  3 18  2  0  0  0  0
  4 19  2  0  0  0  0
  5 30  1  0  0  0  0
  5 37  1  0  0  0  0
  6 33  1  0  0  0  0
  6 41  1  0  0  0  0
  7 29  2  0  0  0  0
  8 30  2  0  0  0  0
 14  9  1  1  0  0  0
  9 19  1  0  0  0  0
  9 60  1  0  0  0  0
 10 12  1  0  0  0  0
 10 18  1  0  0  0  0
 10 21  1  0  0  0  0
 20 11  1  6  0  0  0
 11 30  1  0  0  0  0
 11 69  1  0  0  0  0
 12 29  1  0  0  0  0
 12 70  1  0  0  0  0
 13 49  2  0  0  0  0
 13 55  1  0  0  0  0
 14 15  1  0  0  0  0
 14 16  1  0  0  0  0
 14 56  1  0  0  0  0
 15 18  1  0  0  0  0
 15 57  1  0  0  0  0
 16 17  1  0  0  0  0
 16 58  1  0  0  0  0
 16 59  1  0  0  0  0
 17 22  2  0  0  0  0
 17 23  1  0  0  0  0
 19 20  1  0  0  0  0
 20 24  1  0  0  0  0
 20 61  1  0  0  0  0
 21 25  1  0  0  0  0
 21 62  1  0  0  0  0
 21 63  1  0  0  0  0
 22 26  1  0  0  0  0
 22 65  1  0  0  0  0
 23 27  2  0  0  0  0
 23 66  1  0  0  0  0
 24 67  1  0  0  0  0
 24 68  1  0  0  0  0
 25 31  2  0  0  0  0
 25 32  1  0  0  0  0
 26 28  2  0  0  0  0
 26 71  1  0  0  0  0
 27 28  1  0  0  0  0
 27 72  1  0  0  0  0
 28 73  1  0  0  0  0
 29 33  1  0  0  0  0
 31 34  1  0  0  0  0
 31 74  1  0  0  0  0
 32 35  2  0  0  0  0
 32 75  1  0  0  0  0
 33 76  1  0  0  0  0
 33 77  1  0  0  0  0
 34 39  2  0  0  0  0
 34 78  1  0  0  0  0
 35 39  1  0  0  0  0
 35 79  1  0  0  0  0
 36 82  1  0  0  0  0
 36 83  1  0  0  0  0
 36 84  1  0  0  0  0
 37 38  1  0  0  0  0
 37 80  1  0  0  0  0
 37 81  1  0  0  0  0
 38 40  1  0  0  0  0
 38 43  2  0  0  0  0
 39 85  1  0  0  0  0
 40 42  2  0  0  0  0
 40 47  1  0  0  0  0
 41 44  2  0  0  0  0
 41 45  1  0  0  0  0
 42 46  1  0  0  0  0
 42 49  1  0  0  0  0
 43 48  1  0  0  0  0
 43 86  1  0  0  0  0
 44 50  1  0  0  0  0
 44 52  1  0  0  0  0
 45 51  2  0  0  0  0
 45 53  1  0  0  0  0
 46 48  2  0  0  0  0
 46 87  1  0  0  0  0
 47 55  2  0  0  0  0
 47 88  1  0  0  0  0
 48 89  1  0  0  0  0
 49 90  1  0  0  0  0
 50 54  2  0  0  0  0
 50 91  1  0  0  0  0
 51 54  1  0  0  0  0
 51 92  1  0  0  0  0
 52 93  1  0  0  0  0
 52 94  1  0  0  0  0
 52 95  1  0  0  0  0
 53 96  1  0  0  0  0
 53 97  1  0  0  0  0
 53 98  1  0  0  0  0
 54 99  1  0  0  0  0
 55100  1  0  0  0  0
M  END
> <PUBCHEM_COMPOUND_CID>
500871
> <PUBCHEM_COMPOUND_CANONICALIZED>
1
> <PUBCHEM_CACTVS_COMPLEXITY>
1210
> <PUBCHEM_CACTVS_HBOND_ACCEPTOR>
9
> <PUBCHEM_CACTVS_HBOND_DONOR>
4
> <PUBCHEM_CACTVS_ROTATABLE_BOND>
17
> <PUBCHEM_CACTVS_SUBSKEYS>
AAADcfB/uABAAAAAAAAAAAAAAAAAAAAAAAA8YMGCAAAAAACx9AAAHgQYCAAADDzl2ga+jtLqFgioAjF3XAKCiCAxIjAa+KH8bJkOdvrk8b+feCjk1hHY6AeY2OKOgAACAAAYAAAAAAQAADAAAAAAAAAAAA==
> <PUBCHEM_IUPAC_OPENEYE_NAME>
5-isoquinolylmethyl N-[(1R)-2-[[(1S,2S)-1-benzyl-3-[benzyl-[[2-(2,6-dimethylphenoxy)acetyl]amino]amino]-2-hydroxy-3-oxo-propyl]amino]-1-(methylsulfanylmethyl)-2-oxo-ethyl]carbamate
> <PUBCHEM_IUPAC_CAS_NAME>
N-[(2R)-1-[[(2S,3S)-4-[[[2-(2,6-dimethylphenoxy)-1-oxoethyl]amino]-(phenylmethyl)amino]-3-hydroxy-4-oxo-1-phenylbutan-2-yl]amino]-3-(methylthio)-1-oxopropan-2-yl]carbamic acid 5-isoquinolinylmethyl ester
> <PUBCHEM_IUPAC_NAME_MARKUP>
isoquinolin-5-ylmethyl <I>N</I>-[(2<I>R</I>)-1-[[(2<I>S</I>,3<I>S</I>)-4-[benzyl-[[2-(2,6-dimethylphenoxy)acetyl]amino]amino]-3-hydroxy-4-oxo-1-phenylbutan-2-yl]amino]-3-methylsulfanyl-1-oxopropan-2-yl]carbamate
> <PUBCHEM_IUPAC_NAME>
isoquinolin-5-ylmethyl N-[(2R)-1-[[(2S,3S)-4-[benzyl-[[2-(2,6-dimethylphenoxy)acetyl]amino]amino]-3-hydroxy-4-oxo-1-phenylbutan-2-yl]amino]-3-methylsulfanyl-1-oxopropan-2-yl]carbamate
> <PUBCHEM_IUPAC_SYSTEMATIC_NAME>
isoquinolin-5-ylmethyl N-[(2R)-1-[[(2S,3S)-4-[[2-(2,6-dimethylphenoxy)ethanoylamino]-(phenylmethyl)amino]-3-oxidanyl-4-oxidanylidene-1-phenyl-butan-2-yl]amino]-3-methylsulfanyl-1-oxidanylidene-propan-2-yl]carbamate
> <PUBCHEM_IUPAC_TRADITIONAL_NAME>
N-[(1R)-2-[[(1S,2S)-1-benzyl-3-[benzyl-[[2-(2,6-dimethylphenoxy)acetyl]amino]amino]-2-hydroxy-3-keto-propyl]amino]-2-keto-1-[(methylthio)methyl]ethyl]carbamic acid 5-isoquinolylmethyl ester
> <PUBCHEM_IUPAC_INCHI>
InChI=1S/C42H45N5O7S/c1-28-12-10-13-29(2)39(28)53-26-37(48)46-47(24-31-16-8-5-9-17-31)41(51)38(49)35(22-30-14-6-4-7-15-30)44-40(50)36(27-55-3)45-42(52)54-25-33-19-11-18-32-23-43-21-20-34(32)33/h4-21,23,35-36,38,49H,22,24-27H2,1-3H3,(H,44,50)(H,45,52)(H,46,48)/t35-,36-,38-/m0/s1
> <PUBCHEM_IUPAC_INCHIKEY>
YGNMRRZJWHABRJ-LYDQXETESA-N
> <PUBCHEM_XLOGP3_AA>
6
> <PUBCHEM_EXACT_MASS>
763.30396997
> <PUBCHEM_MOLECULAR_FORMULA>
C42H45N5O7S
> <PUBCHEM_MOLECULAR_WEIGHT>
763.9
> <PUBCHEM_OPENEYE_CAN_SMILES>
CC1=C(C(=CC=C1)C)OCC(=O)NN(CC2=CC=CC=C2)C(=O)C(C(CC3=CC=CC=C3)NC(=O)C(CSC)NC(=O)OCC4=CC=CC5=C4C=CN=C5)O
> <PUBCHEM_OPENEYE_ISO_SMILES>
CC1=C(C(=CC=C1)C)OCC(=O)NN(CC2=CC=CC=C2)C(=O)[C@H]([C@H](CC3=CC=CC=C3)NC(=O)[C@H](CSC)NC(=O)OCC4=CC=CC5=C4C=CN=C5)O
> <PUBCHEM_CACTVS_TPSA>
185
> <PUBCHEM_MONOISOTOPIC_WEIGHT>
763.30396997
> <PUBCHEM_TOTAL_CHARGE>
0
> <PUBCHEM_HEAVY_ATOM_COUNT>
55
> <PUBCHEM_ATOM_DEF_STEREO_COUNT>
3
> <PUBCHEM_ATOM_UDEF_STEREO_COUNT>
0
> <PUBCHEM_BOND_DEF_STEREO_COUNT>
0
> <PUBCHEM_BOND_UDEF_STEREO_COUNT>
0
> <PUBCHEM_ISOTOPIC_ATOM_COUNT>
0
> <PUBCHEM_COMPONENT_COUNT>
1
> <PUBCHEM_CACTVS_TAUTO_COUNT>
-1
> <PUBCHEM_COORDINATE_TYPE>
1
5
255
> <PUBCHEM_BONDANNOTATIONS>
20  11  6
13  49  8
13  55  8
17  22  8
17  23  8
15  2  6
22  26  8
23  27  8
25  31  8
25  32  8
26  28  8
27  28  8
31  34  8
32  35  8
34  39  8
35  39  8
38  40  8
38  43  8
40  42  8
40  47  8
41  44  8
41  45  8
42  46  8
42  49  8
43  48  8
44  50  8
45  51  8
46  48  8
47  55  8
50  54  8
51  54  8
14  9  5
$$$$
