500883
  -OEChem-10302200282D
 50 51  0     1  0  0  0  0  0999 V2000
    2.5000    2.5272    0.0000 O   0  0  0  0  0  0  0  0  0  0  0  0
    4.0000    3.3933    0.0000 O   0  0  0  0  0  0  0  0  0  0  0  0
    6.5970   -2.8833    0.0000 O   0  0  0  0  0  0  0  0  0  0  0  0
    7.4803   -1.3934    0.0000 O   0  0  0  0  0  0  0  0  0  0  0  0
    4.8660    0.1612    0.0000 C   0  0  1  0  0  0  0  0  0  0  0  0
    4.8660    1.1612    0.0000 C   0  0  2  0  0  0  0  0  0  0  0  0
    4.0000    1.6612    0.0000 C   0  0  1  0  0  0  0  0  0  0  0  0
    5.7600   -0.3734    0.0000 C   0  0  2  0  0  0  0  0  0  0  0  0
    4.0000   -0.3388    0.0000 C   0  0  0  0  0  0  0  0  0  0  0  0
    5.7600    1.6959    0.0000 C   0  0  0  0  0  0  0  0  0  0  0  0
    3.1340    1.1612    0.0000 C   0  0  0  0  0  0  0  0  0  0  0  0
    3.1340    0.1612    0.0000 C   0  0  0  0  0  0  0  0  0  0  0  0
    4.8660   -0.8388    0.0000 C   0  0  0  0  0  0  0  0  0  0  0  0
    6.6660    1.1820    0.0000 C   0  0  0  0  0  0  0  0  0  0  0  0
    6.6660    0.1404    0.0000 C   0  0  0  0  0  0  0  0  0  0  0  0
    4.5000    2.5272    0.0000 C   0  0  0  0  0  0  0  0  0  0  0  0
    5.7484   -1.3734    0.0000 C   0  0  0  0  0  0  0  0  0  0  0  0
    3.5000    2.5272    0.0000 C   0  0  0  0  0  0  0  0  0  0  0  0
    7.5301   -0.3629    0.0000 C   0  0  0  0  0  0  0  0  0  0  0  0
    6.6086   -1.8834    0.0000 C   0  0  0  0  0  0  0  0  0  0  0  0
    2.0000    3.3933    0.0000 C   0  0  0  0  0  0  0  0  0  0  0  0
    7.4572   -3.3933    0.0000 C   0  0  0  0  0  0  0  0  0  0  0  0
    4.8595    2.0112    0.0000 H   0  0  0  0  0  0  0  0  0  0  0  0
    6.2939   -0.6886    0.0000 H   0  0  0  0  0  0  0  0  0  0  0  0
    3.6015   -0.8137    0.0000 H   0  0  0  0  0  0  0  0  0  0  0  0
    4.3985   -0.8137    0.0000 H   0  0  0  0  0  0  0  0  0  0  0  0
    6.1536    2.1749    0.0000 H   0  0  0  0  0  0  0  0  0  0  0  0
    5.3554    2.1657    0.0000 H   0  0  0  0  0  0  0  0  0  0  0  0
    2.9219    1.7438    0.0000 H   0  0  0  0  0  0  0  0  0  0  0  0
    2.5234    1.0536    0.0000 H   0  0  0  0  0  0  0  0  0  0  0  0
    2.5234    0.2689    0.0000 H   0  0  0  0  0  0  0  0  0  0  0  0
    2.9219   -0.4214    0.0000 H   0  0  0  0  0  0  0  0  0  0  0  0
    4.2460   -0.8388    0.0000 H   0  0  0  0  0  0  0  0  0  0  0  0
    4.8660   -1.4588    0.0000 H   0  0  0  0  0  0  0  0  0  0  0  0
    5.4860   -0.8388    0.0000 H   0  0  0  0  0  0  0  0  0  0  0  0
    7.2769    1.0759    0.0000 H   0  0  0  0  0  0  0  0  0  0  0  0
    6.8751    1.7657    0.0000 H   0  0  0  0  0  0  0  0  0  0  0  0
    5.0369    2.2172    0.0000 H   0  0  0  0  0  0  0  0  0  0  0  0
    4.8100    3.0642    0.0000 H   0  0  0  0  0  0  0  0  0  0  0  0
    3.9631    2.8372    0.0000 H   0  0  0  0  0  0  0  0  0  0  0  0
    5.1391   -1.2587    0.0000 H   0  0  0  0  0  0  0  0  0  0  0  0
    5.5296   -1.9535    0.0000 H   0  0  0  0  0  0  0  0  0  0  0  0
    7.5277   -0.9829    0.0000 H   0  0  0  0  0  0  0  0  0  0  0  0
    8.0683   -0.0550    0.0000 H   0  0  0  0  0  0  0  0  0  0  0  0
    2.5369    3.7033    0.0000 H   0  0  0  0  0  0  0  0  0  0  0  0
    1.6900    3.9302    0.0000 H   0  0  0  0  0  0  0  0  0  0  0  0
    1.4631    3.0833    0.0000 H   0  0  0  0  0  0  0  0  0  0  0  0
    7.1410   -3.9266    0.0000 H   0  0  0  0  0  0  0  0  0  0  0  0
    7.9905   -3.7095    0.0000 H   0  0  0  0  0  0  0  0  0  0  0  0
    7.7734   -2.8600    0.0000 H   0  0  0  0  0  0  0  0  0  0  0  0
  1 18  1  0  0  0  0
  1 21  1  0  0  0  0
  2 18  2  0  0  0  0
  3 20  1  0  0  0  0
  3 22  1  0  0  0  0
  4 20  2  0  0  0  0
  5  6  1  0  0  0  0
  5  8  1  0  0  0  0
  5  9  1  0  0  0  0
  5 13  1  6  0  0  0
  6  7  1  0  0  0  0
  6 10  1  0  0  0  0
  6 23  1  1  0  0  0
  7 11  1  0  0  0  0
  7 16  1  1  0  0  0
  7 18  1  0  0  0  0
  8 15  1  0  0  0  0
  8 17  1  6  0  0  0
  8 24  1  0  0  0  0
  9 12  1  0  0  0  0
  9 25  1  0  0  0  0
  9 26  1  0  0  0  0
 10 14  1  0  0  0  0
 10 27  1  0  0  0  0
 10 28  1  0  0  0  0
 11 12  1  0  0  0  0
 11 29  1  0  0  0  0
 11 30  1  0  0  0  0
 12 31  1  0  0  0  0
 12 32  1  0  0  0  0
 13 33  1  0  0  0  0
 13 34  1  0  0  0  0
 13 35  1  0  0  0  0
 14 15  1  0  0  0  0
 14 36  1  0  0  0  0
 14 37  1  0  0  0  0
 15 19  2  0  0  0  0
 16 38  1  0  0  0  0
 16 39  1  0  0  0  0
 16 40  1  0  0  0  0
 17 20  1  0  0  0  0
 17 41  1  0  0  0  0
 17 42  1  0  0  0  0
 19 43  1  0  0  0  0
 19 44  1  0  0  0  0
 21 45  1  0  0  0  0
 21 46  1  0  0  0  0
 21 47  1  0  0  0  0
 22 48  1  0  0  0  0
 22 49  1  0  0  0  0
 22 50  1  0  0  0  0
M  END
> <PUBCHEM_COMPOUND_CID>
500883
> <PUBCHEM_COMPOUND_CANONICALIZED>
1
> <PUBCHEM_CACTVS_COMPLEXITY>
484
> <PUBCHEM_CACTVS_HBOND_ACCEPTOR>
4
> <PUBCHEM_CACTVS_HBOND_DONOR>
0
> <PUBCHEM_CACTVS_ROTATABLE_BOND>
5
> <PUBCHEM_CACTVS_SUBSKEYS>
AAADceB4OAAAAAAAAAAAAAAAAAAAAAAAAAAwYAAAAAAAAADAAAAAGgAAAAAADwCAgAICCAAABACIAgDSCAAAAAAgAAAAAAEAAAgAABIAAQAAAAAEgAAAAAGIyPCPgAAAAAAAAAAAAAQAACAAAAAAAAAAAA==
> <PUBCHEM_IUPAC_OPENEYE_NAME>
methyl (1S,4aR,5S,8aR)-5-(2-methoxy-2-oxo-ethyl)-1,4a-dimethyl-6-methylene-decalin-1-carboxylate
> <PUBCHEM_IUPAC_CAS_NAME>
(1S,4aR,5S,8aR)-5-(2-methoxy-2-oxoethyl)-1,4a-dimethyl-6-methylene-3,4,5,7,8,8a-hexahydro-2H-naphthalene-1-carboxylic acid methyl ester
> <PUBCHEM_IUPAC_NAME_MARKUP>
methyl (1<I>S</I>,4<I>a</I><I>R</I>,5<I>S</I>,8<I>a</I><I>R</I>)-5-(2-methoxy-2-oxoethyl)-1,4<I>a</I>-dimethyl-6-methylidene-3,4,5,7,8,8<I>a</I>-hexahydro-2<I>H</I>-naphthalene-1-carboxylate
> <PUBCHEM_IUPAC_NAME>
methyl (1S,4aR,5S,8aR)-5-(2-methoxy-2-oxoethyl)-1,4a-dimethyl-6-methylidene-3,4,5,7,8,8a-hexahydro-2H-naphthalene-1-carboxylate
> <PUBCHEM_IUPAC_SYSTEMATIC_NAME>
methyl (1S,4aR,5S,8aR)-5-(2-methoxy-2-oxidanylidene-ethyl)-1,4a-dimethyl-6-methylidene-3,4,5,7,8,8a-hexahydro-2H-naphthalene-1-carboxylate
> <PUBCHEM_IUPAC_TRADITIONAL_NAME>
(1S,4aR,5S,8aR)-5-(2-keto-2-methoxy-ethyl)-1,4a-dimethyl-6-methylene-decalin-1-carboxylic acid methyl ester
> <PUBCHEM_IUPAC_INCHI>
InChI=1S/C18H28O4/c1-12-7-8-14-17(2,13(12)11-15(19)21-4)9-6-10-18(14,3)16(20)22-5/h13-14H,1,6-11H2,2-5H3/t13-,14+,17+,18-/m0/s1
> <PUBCHEM_IUPAC_INCHIKEY>
PEEWTCSWPSHLQM-JFTQMJAMSA-N
> <PUBCHEM_XLOGP3_AA>
3.5
> <PUBCHEM_EXACT_MASS>
308.19875937
> <PUBCHEM_MOLECULAR_FORMULA>
C18H28O4
> <PUBCHEM_MOLECULAR_WEIGHT>
308.4
> <PUBCHEM_OPENEYE_CAN_SMILES>
CC12CCCC(C1CCC(=C)C2CC(=O)OC)(C)C(=O)OC
> <PUBCHEM_OPENEYE_ISO_SMILES>
C[C@]12CCC[C@]([C@@H]1CCC(=C)[C@@H]2CC(=O)OC)(C)C(=O)OC
> <PUBCHEM_CACTVS_TPSA>
52.6
> <PUBCHEM_MONOISOTOPIC_WEIGHT>
308.19875937
> <PUBCHEM_TOTAL_CHARGE>
0
> <PUBCHEM_HEAVY_ATOM_COUNT>
22
> <PUBCHEM_ATOM_DEF_STEREO_COUNT>
4
> <PUBCHEM_ATOM_UDEF_STEREO_COUNT>
0
> <PUBCHEM_BOND_DEF_STEREO_COUNT>
0
> <PUBCHEM_BOND_UDEF_STEREO_COUNT>
0
> <PUBCHEM_ISOTOPIC_ATOM_COUNT>
0
> <PUBCHEM_COMPONENT_COUNT>
1
> <PUBCHEM_CACTVS_TAUTO_COUNT>
-1
> <PUBCHEM_COORDINATE_TYPE>
1
5
255
> <PUBCHEM_BONDANNOTATIONS>
5  13  6
6  23  5
7  16  5
8  17  6
$$$$
