500844
  -OEChem-10302200282D
 23 24  0     1  0  0  0  0  0999 V2000
    2.8660   -2.5199    0.0000 Cl  0  0  0  0  0  0  0  0  0  0  0  0
    6.2781    2.3921    0.0000 O   0  0  0  0  0  0  0  0  0  0  0  0
    4.6783    0.2848    0.0000 N   0  0  0  0  0  0  0  0  0  0  0  0
    4.6783   -1.3247    0.0000 N   0  0  0  0  0  0  0  0  0  0  0  0
    2.8660    0.4801    0.0000 N   0  0  0  0  0  0  0  0  0  0  0  0
    2.0000   -1.0199    0.0000 N   0  0  0  0  0  0  0  0  0  0  0  0
    4.9889    1.2353    0.0000 C   0  0  0  0  0  0  0  0  0  0  0  0
    5.9674    1.4416    0.0000 C   0  0  1  0  0  0  0  0  0  0  0  0
    3.7320   -0.0199    0.0000 C   0  0  0  0  0  0  0  0  0  0  0  0
    3.7320   -1.0199    0.0000 C   0  0  0  0  0  0  0  0  0  0  0  0
    5.2619   -0.5199    0.0000 C   0  0  0  0  0  0  0  0  0  0  0  0
    6.6353    0.6972    0.0000 C   0  0  0  0  0  0  0  0  0  0  0  0
    2.8660   -1.5199    0.0000 C   0  0  0  0  0  0  0  0  0  0  0  0
    2.0000   -0.0199    0.0000 C   0  0  0  0  0  0  0  0  0  0  0  0
    4.9684    1.8550    0.0000 H   0  0  0  0  0  0  0  0  0  0  0  0
    4.3751    1.3227    0.0000 H   0  0  0  0  0  0  0  0  0  0  0  0
    5.5534    1.9030    0.0000 H   0  0  0  0  0  0  0  0  0  0  0  0
    5.8819   -0.5199    0.0000 H   0  0  0  0  0  0  0  0  0  0  0  0
    6.1738    0.2832    0.0000 H   0  0  0  0  0  0  0  0  0  0  0  0
    7.0494    0.2358    0.0000 H   0  0  0  0  0  0  0  0  0  0  0  0
    7.0968    1.1113    0.0000 H   0  0  0  0  0  0  0  0  0  0  0  0
    6.8848    2.5199    0.0000 H   0  0  0  0  0  0  0  0  0  0  0  0
    1.4631    0.2901    0.0000 H   0  0  0  0  0  0  0  0  0  0  0  0
  1 13  1  0  0  0  0
  8  2  1  6  0  0  0
  2 22  1  0  0  0  0
  3  7  1  0  0  0  0
  3  9  1  0  0  0  0
  3 11  1  0  0  0  0
  4 10  1  0  0  0  0
  4 11  2  0  0  0  0
  5  9  1  0  0  0  0
  5 14  2  0  0  0  0
  6 13  2  0  0  0  0
  6 14  1  0  0  0  0
  7  8  1  0  0  0  0
  7 15  1  0  0  0  0
  7 16  1  0  0  0  0
  8 12  1  0  0  0  0
  8 17  1  0  0  0  0
  9 10  2  0  0  0  0
 10 13  1  0  0  0  0
 11 18  1  0  0  0  0
 12 19  1  0  0  0  0
 12 20  1  0  0  0  0
 12 21  1  0  0  0  0
 14 23  1  0  0  0  0
M  END
> <PUBCHEM_COMPOUND_CID>
500844
> <PUBCHEM_COMPOUND_CANONICALIZED>
1
> <PUBCHEM_CACTVS_COMPLEXITY>
206
> <PUBCHEM_CACTVS_HBOND_ACCEPTOR>
4
> <PUBCHEM_CACTVS_HBOND_DONOR>
1
> <PUBCHEM_CACTVS_ROTATABLE_BOND>
2
> <PUBCHEM_CACTVS_SUBSKEYS>
AAADccBzoAAEAAAAAAAAAAAAAAAAAWAAAAAsAAAAAAAAAFgB+AAAHgIACAAACB7hlyYH8L8MEgCgAQZhZACAgC0RFKABUCAoVhCCWABASEBUBAgIAALQACAAAAAAAAAAAAAAAAAAAAAAAAAAAAAAAAAAAA==
> <PUBCHEM_IUPAC_OPENEYE_NAME>
(2R)-1-(6-chloropurin-9-yl)propan-2-ol
> <PUBCHEM_IUPAC_CAS_NAME>
(2R)-1-(6-chloro-9-purinyl)-2-propanol
> <PUBCHEM_IUPAC_NAME_MARKUP>
(2<I>R</I>)-1-(6-chloropurin-9-yl)propan-2-ol
> <PUBCHEM_IUPAC_NAME>
(2R)-1-(6-chloropurin-9-yl)propan-2-ol
> <PUBCHEM_IUPAC_SYSTEMATIC_NAME>
(2R)-1-(6-chloranylpurin-9-yl)propan-2-ol
> <PUBCHEM_IUPAC_TRADITIONAL_NAME>
(2R)-1-(6-chloropurin-9-yl)propan-2-ol
> <PUBCHEM_IUPAC_INCHI>
InChI=1S/C8H9ClN4O/c1-5(14)2-13-4-12-6-7(9)10-3-11-8(6)13/h3-5,14H,2H2,1H3/t5-/m1/s1
> <PUBCHEM_IUPAC_INCHIKEY>
LVNBNKMMTVWRJO-RXMQYKEDSA-N
> <PUBCHEM_XLOGP3>
0.9
> <PUBCHEM_EXACT_MASS>
212.0464886
> <PUBCHEM_MOLECULAR_FORMULA>
C8H9ClN4O
> <PUBCHEM_MOLECULAR_WEIGHT>
212.63
> <PUBCHEM_OPENEYE_CAN_SMILES>
CC(CN1C=NC2=C1N=CN=C2Cl)O
> <PUBCHEM_OPENEYE_ISO_SMILES>
C[C@H](CN1C=NC2=C1N=CN=C2Cl)O
> <PUBCHEM_CACTVS_TPSA>
63.8
> <PUBCHEM_MONOISOTOPIC_WEIGHT>
212.0464886
> <PUBCHEM_TOTAL_CHARGE>
0
> <PUBCHEM_HEAVY_ATOM_COUNT>
14
> <PUBCHEM_ATOM_DEF_STEREO_COUNT>
1
> <PUBCHEM_ATOM_UDEF_STEREO_COUNT>
0
> <PUBCHEM_BOND_DEF_STEREO_COUNT>
0
> <PUBCHEM_BOND_UDEF_STEREO_COUNT>
0
> <PUBCHEM_ISOTOPIC_ATOM_COUNT>
0
> <PUBCHEM_COMPONENT_COUNT>
1
> <PUBCHEM_CACTVS_TAUTO_COUNT>
1
> <PUBCHEM_COORDINATE_TYPE>
1
5
255
> <PUBCHEM_BONDANNOTATIONS>
10  13  8
8  2  6
3  11  8
3  9  8
4  10  8
4  11  8
5  14  8
5  9  8
6  13  8
6  14  8
9  10  8
$$$$
