500989
  -OEChem-10302200282D
 61 64  0     1  0  0  0  0  0999 V2000
    3.4030    1.4104    0.0000 P   0  0  0  0  0  0  0  0  0  0  0  0
    6.8671    2.4104    0.0000 O   0  0  0  0  0  0  0  0  0  0  0  0
    2.5369    1.9104    0.0000 O   0  0  0  0  0  0  0  0  0  0  0  0
    2.9030    0.5444    0.0000 O   0  0  0  0  0  0  0  0  0  0  0  0
    4.2690    2.9104    0.0000 O   0  0  0  0  0  0  0  0  0  0  0  0
    3.9030    2.2765    0.0000 O   0  0  0  0  0  0  0  0  0  0  0  0
    6.0010    2.9104    0.0000 O   0  0  0  0  0  0  0  0  0  0  0  0
   10.4114    1.2152    0.0000 N   0  0  0  0  0  0  0  0  0  0  0  0
   10.4114   -0.3943    0.0000 N   0  0  0  0  0  0  0  0  0  0  0  0
   13.4837   -0.5586    0.0000 N   0  0  0  0  0  0  0  0  0  0  0  0
    6.0010    0.9104    0.0000 N   0  0  0  0  0  0  0  0  0  0  0  0
   12.0899   -1.3634    0.0000 N   0  0  0  0  0  0  0  0  0  0  0  0
   10.7220    2.1657    0.0000 C   0  0  0  0  0  0  0  0  0  0  0  0
    9.4651    0.9104    0.0000 C   0  0  0  0  0  0  0  0  0  0  0  0
   10.9950    0.4104    0.0000 C   0  0  0  0  0  0  0  0  0  0  0  0
   11.7005    2.3719    0.0000 C   0  0  0  0  0  0  0  0  0  0  0  0
    9.4651   -0.0896    0.0000 C   0  0  0  0  0  0  0  0  0  0  0  0
   11.9950    0.4104    0.0000 C   0  0  0  0  0  0  0  0  0  0  0  0
    8.5991    1.4104    0.0000 C   0  0  0  0  0  0  0  0  0  0  0  0
   12.0112    3.3224    0.0000 C   0  0  0  0  0  0  0  0  0  0  0  0
    7.7331    0.9104    0.0000 C   0  0  0  0  0  0  0  0  0  0  0  0
   12.4950   -0.4556    0.0000 C   0  0  0  0  0  0  0  0  0  0  0  0
    8.5991   -0.5896    0.0000 C   0  0  0  0  0  0  0  0  0  0  0  0
    7.7331   -0.0896    0.0000 C   0  0  0  0  0  0  0  0  0  0  0  0
    5.1350    1.4104    0.0000 C   0  0  3  0  0  0  0  0  0  0  0  0
    6.8671    1.4104    0.0000 C   0  0  0  0  0  0  0  0  0  0  0  0
   12.9897    3.5287    0.0000 C   0  0  0  0  0  0  0  0  0  0  0  0
   13.6929   -1.5304    0.0000 C   0  0  0  0  0  0  0  0  0  0  0  0
    4.2690    0.9104    0.0000 C   0  0  0  0  0  0  0  0  0  0  0  0
   12.8269   -2.0304    0.0000 C   0  0  0  0  0  0  0  0  0  0  0  0
   14.5589   -2.0304    0.0000 C   0  0  0  0  0  0  0  0  0  0  0  0
    5.1350    2.4104    0.0000 C   0  0  0  0  0  0  0  0  0  0  0  0
   12.8269   -3.0304    0.0000 C   0  0  0  0  0  0  0  0  0  0  0  0
   14.5589   -3.0304    0.0000 C   0  0  0  0  0  0  0  0  0  0  0  0
   13.6929   -3.5304    0.0000 C   0  0  0  0  0  0  0  0  0  0  0  0
   10.7015    2.7854    0.0000 H   0  0  0  0  0  0  0  0  0  0  0  0
   10.1082    2.2530    0.0000 H   0  0  0  0  0  0  0  0  0  0  0  0
   11.7211    1.7523    0.0000 H   0  0  0  0  0  0  0  0  0  0  0  0
   12.3143    2.2846    0.0000 H   0  0  0  0  0  0  0  0  0  0  0  0
   12.5776    0.6225    0.0000 H   0  0  0  0  0  0  0  0  0  0  0  0
   11.8873    1.0210    0.0000 H   0  0  0  0  0  0  0  0  0  0  0  0
    8.5991    2.0304    0.0000 H   0  0  0  0  0  0  0  0  0  0  0  0
   11.9906    3.9421    0.0000 H   0  0  0  0  0  0  0  0  0  0  0  0
   11.3974    3.4098    0.0000 H   0  0  0  0  0  0  0  0  0  0  0  0
    8.5991   -1.2095    0.0000 H   0  0  0  0  0  0  0  0  0  0  0  0
    7.1962   -0.3996    0.0000 H   0  0  0  0  0  0  0  0  0  0  0  0
    5.6720    1.7204    0.0000 H   0  0  0  0  0  0  0  0  0  0  0  0
   13.8978   -0.0972    0.0000 H   0  0  0  0  0  0  0  0  0  0  0  0
   13.1176    2.9220    0.0000 H   0  0  0  0  0  0  0  0  0  0  0  0
   13.5964    3.6565    0.0000 H   0  0  0  0  0  0  0  0  0  0  0  0
   12.8618    4.1353    0.0000 H   0  0  0  0  0  0  0  0  0  0  0  0
    3.8705    0.4355    0.0000 H   0  0  0  0  0  0  0  0  0  0  0  0
    4.6675    0.4355    0.0000 H   0  0  0  0  0  0  0  0  0  0  0  0
    6.0010    0.2904    0.0000 H   0  0  0  0  0  0  0  0  0  0  0  0
   15.0959   -1.7204    0.0000 H   0  0  0  0  0  0  0  0  0  0  0  0
   12.2899   -3.3404    0.0000 H   0  0  0  0  0  0  0  0  0  0  0  0
   15.0959   -3.3404    0.0000 H   0  0  0  0  0  0  0  0  0  0  0  0
   13.6929   -4.1504    0.0000 H   0  0  0  0  0  0  0  0  0  0  0  0
    2.0000    1.6004    0.0000 H   0  0  0  0  0  0  0  0  0  0  0  0
    3.2130    0.0075    0.0000 H   0  0  0  0  0  0  0  0  0  0  0  0
    4.2690    3.5304    0.0000 H   0  0  0  0  0  0  0  0  0  0  0  0
  1  3  1  0  0  0  0
  1  4  1  0  0  0  0
  1  6  2  0  0  0  0
  1 29  1  0  0  0  0
  2 26  2  0  0  0  0
  3 59  1  0  0  0  0
  4 60  1  0  0  0  0
  5 32  1  0  0  0  0
  5 61  1  0  0  0  0
  7 32  2  0  0  0  0
  8 13  1  0  0  0  0
  8 14  1  0  0  0  0
  8 15  1  0  0  0  0
  9 15  2  0  0  0  0
  9 17  1  0  0  0  0
 10 22  1  0  0  0  0
 10 28  1  0  0  0  0
 10 48  1  0  0  0  0
 11 25  1  0  0  0  0
 11 26  1  0  0  0  0
 11 54  1  0  0  0  0
 12 22  2  0  0  0  0
 12 30  1  0  0  0  0
 13 16  1  0  0  0  0
 13 36  1  0  0  0  0
 13 37  1  0  0  0  0
 14 17  2  0  0  0  0
 14 19  1  0  0  0  0
 15 18  1  0  0  0  0
 16 20  1  0  0  0  0
 16 38  1  0  0  0  0
 16 39  1  0  0  0  0
 17 23  1  0  0  0  0
 18 22  1  0  0  0  0
 18 40  1  0  0  0  0
 18 41  1  0  0  0  0
 19 21  2  0  0  0  0
 19 42  1  0  0  0  0
 20 27  1  0  0  0  0
 20 43  1  0  0  0  0
 20 44  1  0  0  0  0
 21 24  1  0  0  0  0
 21 26  1  0  0  0  0
 23 24  2  0  0  0  0
 23 45  1  0  0  0  0
 24 46  1  0  0  0  0
 25 29  1  0  0  0  0
 25 32  1  0  0  0  0
 25 47  1  0  0  0  0
 27 49  1  0  0  0  0
 27 50  1  0  0  0  0
 27 51  1  0  0  0  0
 28 30  1  0  0  0  0
 28 31  2  0  0  0  0
 29 52  1  0  0  0  0
 29 53  1  0  0  0  0
 30 33  2  0  0  0  0
 31 34  1  0  0  0  0
 31 55  1  0  0  0  0
 33 35  1  0  0  0  0
 33 56  1  0  0  0  0
 34 35  2  0  0  0  0
 34 57  1  0  0  0  0
 35 58  1  0  0  0  0
M  END
> <PUBCHEM_COMPOUND_CID>
500989
> <PUBCHEM_COMPOUND_CANONICALIZED>
1
> <PUBCHEM_CACTVS_COMPLEXITY>
811
> <PUBCHEM_CACTVS_HBOND_ACCEPTOR>
8
> <PUBCHEM_CACTVS_HBOND_DONOR>
5
> <PUBCHEM_CACTVS_ROTATABLE_BOND>
10
> <PUBCHEM_CACTVS_SUBSKEYS>
AAADceB7uAIAAAAAAAAAAAAAAAAAAWLAAAAwYAAAAAAAAFgB/gAAHggQCCAADCjJnwQz2LfNkhCoQyfyfICCgC2lEqAJ2aG4dNiKaLLA3bGUYQholgLYyacciQCeCAAAQAAAACAQAACAAAAAQAAAAAAAAA==
> <PUBCHEM_IUPAC_OPENEYE_NAME>
2-[[2-(1H-benzimidazol-2-ylmethyl)-3-butyl-benzimidazole-5-carbonyl]amino]-3-phosphono-propanoic acid
> <PUBCHEM_IUPAC_CAS_NAME>
2-[[[2-(1H-benzimidazol-2-ylmethyl)-3-butyl-5-benzimidazolyl]-oxomethyl]amino]-3-phosphonopropanoic acid
> <PUBCHEM_IUPAC_NAME_MARKUP>
2-[[2-(1<I>H</I>-benzimidazol-2-ylmethyl)-3-butylbenzimidazole-5-carbonyl]amino]-3-phosphonopropanoic acid
> <PUBCHEM_IUPAC_NAME>
2-[[2-(1H-benzimidazol-2-ylmethyl)-3-butylbenzimidazole-5-carbonyl]amino]-3-phosphonopropanoic acid
> <PUBCHEM_IUPAC_SYSTEMATIC_NAME>
2-[[2-(1H-benzimidazol-2-ylmethyl)-3-butyl-benzimidazol-5-yl]carbonylamino]-3-phosphono-propanoic acid
> <PUBCHEM_IUPAC_TRADITIONAL_NAME>
2-[[2-(1H-benzimidazol-2-ylmethyl)-3-butyl-benzimidazole-5-carbonyl]amino]-3-phosphono-propionic acid
> <PUBCHEM_IUPAC_INCHI>
InChI=1S/C23H26N5O6P/c1-2-3-10-28-19-11-14(22(29)27-18(23(30)31)13-35(32,33)34)8-9-17(19)26-21(28)12-20-24-15-6-4-5-7-16(15)25-20/h4-9,11,18H,2-3,10,12-13H2,1H3,(H,24,25)(H,27,29)(H,30,31)(H2,32,33,34)
> <PUBCHEM_IUPAC_INCHIKEY>
IZCBTUNMFYPBPK-UHFFFAOYSA-N
> <PUBCHEM_XLOGP3_AA>
1.3
> <PUBCHEM_EXACT_MASS>
499.16207056
> <PUBCHEM_MOLECULAR_FORMULA>
C23H26N5O6P
> <PUBCHEM_MOLECULAR_WEIGHT>
499.5
> <PUBCHEM_OPENEYE_CAN_SMILES>
CCCCN1C2=C(C=CC(=C2)C(=O)NC(CP(=O)(O)O)C(=O)O)N=C1CC3=NC4=CC=CC=C4N3
> <PUBCHEM_OPENEYE_ISO_SMILES>
CCCCN1C2=C(C=CC(=C2)C(=O)NC(CP(=O)(O)O)C(=O)O)N=C1CC3=NC4=CC=CC=C4N3
> <PUBCHEM_CACTVS_TPSA>
170
> <PUBCHEM_MONOISOTOPIC_WEIGHT>
499.16207056
> <PUBCHEM_TOTAL_CHARGE>
0
> <PUBCHEM_HEAVY_ATOM_COUNT>
35
> <PUBCHEM_ATOM_DEF_STEREO_COUNT>
0
> <PUBCHEM_ATOM_UDEF_STEREO_COUNT>
1
> <PUBCHEM_BOND_DEF_STEREO_COUNT>
0
> <PUBCHEM_BOND_UDEF_STEREO_COUNT>
0
> <PUBCHEM_ISOTOPIC_ATOM_COUNT>
0
> <PUBCHEM_COMPONENT_COUNT>
1
> <PUBCHEM_CACTVS_TAUTO_COUNT>
-1
> <PUBCHEM_COORDINATE_TYPE>
1
5
255
> <PUBCHEM_BONDANNOTATIONS>
10  22  8
10  28  8
12  22  8
12  30  8
14  17  8
14  19  8
17  23  8
19  21  8
21  24  8
23  24  8
25  29  3
28  30  8
28  31  8
30  33  8
31  34  8
33  35  8
34  35  8
8  14  8
8  15  8
9  15  8
9  17  8
$$$$
