500983
  -OEChem-10302200282D
 52 55  0     1  0  0  0  0  0999 V2000
    3.4030    0.4400    0.0000 P   0  0  0  0  0  0  0  0  0  0  0  0
   11.9950   -1.5600    0.0000 F   0  0  0  0  0  0  0  0  0  0  0  0
   11.9950    0.4400    0.0000 F   0  0  0  0  0  0  0  0  0  0  0  0
   15.3908   -2.5600    0.0000 F   0  0  0  0  0  0  0  0  0  0  0  0
   17.1229    0.4400    0.0000 F   0  0  0  0  0  0  0  0  0  0  0  0
    6.8671    1.4400    0.0000 O   0  0  0  0  0  0  0  0  0  0  0  0
    2.5369    0.9400    0.0000 O   0  0  0  0  0  0  0  0  0  0  0  0
    2.9030   -0.4260    0.0000 O   0  0  0  0  0  0  0  0  0  0  0  0
    3.9030    1.3060    0.0000 O   0  0  0  0  0  0  0  0  0  0  0  0
    4.2690    1.9400    0.0000 O   0  0  0  0  0  0  0  0  0  0  0  0
    6.0010    1.9400    0.0000 O   0  0  0  0  0  0  0  0  0  0  0  0
   10.4114    0.2447    0.0000 N   0  0  0  0  0  0  0  0  0  0  0  0
   10.4114   -1.3647    0.0000 N   0  0  0  0  0  0  0  0  0  0  0  0
   13.5786    0.2447    0.0000 N   0  0  0  0  0  0  0  0  0  0  0  0
    6.0010   -0.0600    0.0000 N   0  0  0  0  0  0  0  0  0  0  0  0
   13.5786   -1.3647    0.0000 N   0  0  0  0  0  0  0  0  0  0  0  0
    9.4651   -0.0600    0.0000 C   0  0  0  0  0  0  0  0  0  0  0  0
   10.9950   -0.5600    0.0000 C   0  0  0  0  0  0  0  0  0  0  0  0
   11.9950   -0.5600    0.0000 C   0  0  0  0  0  0  0  0  0  0  0  0
    9.4651   -1.0600    0.0000 C   0  0  0  0  0  0  0  0  0  0  0  0
    8.5991    0.4400    0.0000 C   0  0  0  0  0  0  0  0  0  0  0  0
   12.9950   -0.5600    0.0000 C   0  0  0  0  0  0  0  0  0  0  0  0
    7.7331   -0.0600    0.0000 C   0  0  0  0  0  0  0  0  0  0  0  0
    5.1350    0.4400    0.0000 C   0  0  3  0  0  0  0  0  0  0  0  0
    4.2690   -0.0600    0.0000 C   0  0  0  0  0  0  0  0  0  0  0  0
    8.5991   -1.5600    0.0000 C   0  0  0  0  0  0  0  0  0  0  0  0
   10.7220    1.1952    0.0000 C   0  0  0  0  0  0  0  0  0  0  0  0
    7.7331   -1.0600    0.0000 C   0  0  0  0  0  0  0  0  0  0  0  0
    6.8671    0.4400    0.0000 C   0  0  0  0  0  0  0  0  0  0  0  0
   14.5248   -0.0600    0.0000 C   0  0  0  0  0  0  0  0  0  0  0  0
   14.5248   -1.0600    0.0000 C   0  0  0  0  0  0  0  0  0  0  0  0
    5.1350    1.4400    0.0000 C   0  0  0  0  0  0  0  0  0  0  0  0
   15.3908    0.4400    0.0000 C   0  0  0  0  0  0  0  0  0  0  0  0
   15.3908   -1.5600    0.0000 C   0  0  0  0  0  0  0  0  0  0  0  0
   16.2568   -0.0600    0.0000 C   0  0  0  0  0  0  0  0  0  0  0  0
   16.2568   -1.0600    0.0000 C   0  0  0  0  0  0  0  0  0  0  0  0
    8.5991    1.0600    0.0000 H   0  0  0  0  0  0  0  0  0  0  0  0
    5.1350   -0.1800    0.0000 H   0  0  0  0  0  0  0  0  0  0  0  0
    3.8705   -0.5349    0.0000 H   0  0  0  0  0  0  0  0  0  0  0  0
    4.6675   -0.5349    0.0000 H   0  0  0  0  0  0  0  0  0  0  0  0
    8.5991   -2.1800    0.0000 H   0  0  0  0  0  0  0  0  0  0  0  0
   11.3113    1.0026    0.0000 H   0  0  0  0  0  0  0  0  0  0  0  0
   10.9146    1.7846    0.0000 H   0  0  0  0  0  0  0  0  0  0  0  0
   10.1327    1.3879    0.0000 H   0  0  0  0  0  0  0  0  0  0  0  0
    7.1962   -1.3700    0.0000 H   0  0  0  0  0  0  0  0  0  0  0  0
   13.3860    0.8341    0.0000 H   0  0  0  0  0  0  0  0  0  0  0  0
    6.0010   -0.6800    0.0000 H   0  0  0  0  0  0  0  0  0  0  0  0
   15.3908    1.0600    0.0000 H   0  0  0  0  0  0  0  0  0  0  0  0
   16.7938   -1.3700    0.0000 H   0  0  0  0  0  0  0  0  0  0  0  0
    2.0000    0.6300    0.0000 H   0  0  0  0  0  0  0  0  0  0  0  0
    3.2130   -0.9630    0.0000 H   0  0  0  0  0  0  0  0  0  0  0  0
    4.2690    2.5600    0.0000 H   0  0  0  0  0  0  0  0  0  0  0  0
  1  7  1  0  0  0  0
  1  8  1  0  0  0  0
  1  9  2  0  0  0  0
  1 25  1  0  0  0  0
  2 19  1  0  0  0  0
  3 19  1  0  0  0  0
  4 34  1  0  0  0  0
  5 35  1  0  0  0  0
  6 29  2  0  0  0  0
  7 50  1  0  0  0  0
  8 51  1  0  0  0  0
 10 32  1  0  0  0  0
 10 52  1  0  0  0  0
 11 32  2  0  0  0  0
 12 17  1  0  0  0  0
 12 18  1  0  0  0  0
 12 27  1  0  0  0  0
 13 18  2  0  0  0  0
 13 20  1  0  0  0  0
 14 22  1  0  0  0  0
 14 30  1  0  0  0  0
 14 46  1  0  0  0  0
 15 24  1  0  0  0  0
 15 29  1  0  0  0  0
 15 47  1  0  0  0  0
 16 22  2  0  0  0  0
 16 31  1  0  0  0  0
 17 20  2  0  0  0  0
 17 21  1  0  0  0  0
 18 19  1  0  0  0  0
 19 22  1  0  0  0  0
 20 26  1  0  0  0  0
 21 23  2  0  0  0  0
 21 37  1  0  0  0  0
 23 28  1  0  0  0  0
 23 29  1  0  0  0  0
 24 25  1  0  0  0  0
 24 32  1  0  0  0  0
 24 38  1  0  0  0  0
 25 39  1  0  0  0  0
 25 40  1  0  0  0  0
 26 28  2  0  0  0  0
 26 41  1  0  0  0  0
 27 42  1  0  0  0  0
 27 43  1  0  0  0  0
 27 44  1  0  0  0  0
 28 45  1  0  0  0  0
 30 31  2  0  0  0  0
 30 33  1  0  0  0  0
 31 34  1  0  0  0  0
 33 35  2  0  0  0  0
 33 48  1  0  0  0  0
 34 36  2  0  0  0  0
 35 36  1  0  0  0  0
 36 49  1  0  0  0  0
M  END
> <PUBCHEM_COMPOUND_CID>
500983
> <PUBCHEM_COMPOUND_CANONICALIZED>
1
> <PUBCHEM_CACTVS_COMPLEXITY>
914
> <PUBCHEM_CACTVS_HBOND_ACCEPTOR>
12
> <PUBCHEM_CACTVS_HBOND_DONOR>
5
> <PUBCHEM_CACTVS_ROTATABLE_BOND>
7
> <PUBCHEM_CACTVS_SUBSKEYS>
AAADceB7ucIAAAAAAAAAAAAAAAAAAWLAAAAwYAAAAAAAAFgB/gAAHwgQCCAADCjJnxwz2LfNkhCoQyfyfICCgC2lEqAJ2aG4dNiKaLLA3bGUYQholgLYyacciQCeCAAAQAAAACAQAACAAAAAQAAAAAAAAA==
> <PUBCHEM_IUPAC_OPENEYE_NAME>
2-[[2-[(4,6-difluoro-1H-benzimidazol-2-yl)-difluoro-methyl]-3-methyl-benzimidazole-5-carbonyl]amino]-3-phosphono-propanoic acid
> <PUBCHEM_IUPAC_CAS_NAME>
2-[[[2-[(4,6-difluoro-1H-benzimidazol-2-yl)-difluoromethyl]-3-methyl-5-benzimidazolyl]-oxomethyl]amino]-3-phosphonopropanoic acid
> <PUBCHEM_IUPAC_NAME_MARKUP>
2-[[2-[(4,6-difluoro-1<I>H</I>-benzimidazol-2-yl)-difluoromethyl]-3-methylbenzimidazole-5-carbonyl]amino]-3-phosphonopropanoic acid
> <PUBCHEM_IUPAC_NAME>
2-[[2-[(4,6-difluoro-1H-benzimidazol-2-yl)-difluoromethyl]-3-methylbenzimidazole-5-carbonyl]amino]-3-phosphonopropanoic acid
> <PUBCHEM_IUPAC_SYSTEMATIC_NAME>
2-[[2-[[4,6-bis(fluoranyl)-1H-benzimidazol-2-yl]-bis(fluoranyl)methyl]-3-methyl-benzimidazol-5-yl]carbonylamino]-3-phosphono-propanoic acid
> <PUBCHEM_IUPAC_TRADITIONAL_NAME>
2-[[2-[(4,6-difluoro-1H-benzimidazol-2-yl)-difluoro-methyl]-3-methyl-benzimidazole-5-carbonyl]amino]-3-phosphono-propionic acid
> <PUBCHEM_IUPAC_INCHI>
InChI=1S/C20H16F4N5O6P/c1-29-14-4-8(16(30)25-13(17(31)32)7-36(33,34)35)2-3-11(14)27-19(29)20(23,24)18-26-12-6-9(21)5-10(22)15(12)28-18/h2-6,13H,7H2,1H3,(H,25,30)(H,26,28)(H,31,32)(H2,33,34,35)
> <PUBCHEM_IUPAC_INCHIKEY>
HZUFEHWVBMIVMI-UHFFFAOYSA-N
> <PUBCHEM_XLOGP3_AA>
0.5
> <PUBCHEM_EXACT_MASS>
529.07743289
> <PUBCHEM_MOLECULAR_FORMULA>
C20H16F4N5O6P
> <PUBCHEM_MOLECULAR_WEIGHT>
529.3
> <PUBCHEM_OPENEYE_CAN_SMILES>
CN1C2=C(C=CC(=C2)C(=O)NC(CP(=O)(O)O)C(=O)O)N=C1C(C3=NC4=C(N3)C=C(C=C4F)F)(F)F
> <PUBCHEM_OPENEYE_ISO_SMILES>
CN1C2=C(C=CC(=C2)C(=O)NC(CP(=O)(O)O)C(=O)O)N=C1C(C3=NC4=C(N3)C=C(C=C4F)F)(F)F
> <PUBCHEM_CACTVS_TPSA>
170
> <PUBCHEM_MONOISOTOPIC_WEIGHT>
529.07743289
> <PUBCHEM_TOTAL_CHARGE>
0
> <PUBCHEM_HEAVY_ATOM_COUNT>
36
> <PUBCHEM_ATOM_DEF_STEREO_COUNT>
0
> <PUBCHEM_ATOM_UDEF_STEREO_COUNT>
1
> <PUBCHEM_BOND_DEF_STEREO_COUNT>
0
> <PUBCHEM_BOND_UDEF_STEREO_COUNT>
0
> <PUBCHEM_ISOTOPIC_ATOM_COUNT>
0
> <PUBCHEM_COMPONENT_COUNT>
1
> <PUBCHEM_CACTVS_TAUTO_COUNT>
-1
> <PUBCHEM_COORDINATE_TYPE>
1
5
255
> <PUBCHEM_BONDANNOTATIONS>
12  17  8
12  18  8
13  18  8
13  20  8
14  22  8
14  30  8
16  22  8
16  31  8
17  20  8
17  21  8
20  26  8
21  23  8
23  28  8
24  25  3
26  28  8
30  31  8
30  33  8
31  34  8
33  35  8
34  36  8
35  36  8
$$$$
