500987
  -OEChem-10302200282D
 58 61  0     1  0  0  0  0  0999 V2000
    3.4030    1.4104    0.0000 P   0  0  0  0  0  0  0  0  0  0  0  0
    6.8671    2.4104    0.0000 O   0  0  0  0  0  0  0  0  0  0  0  0
    2.5369    1.9104    0.0000 O   0  0  0  0  0  0  0  0  0  0  0  0
    2.9030    0.5444    0.0000 O   0  0  0  0  0  0  0  0  0  0  0  0
    4.2690    2.9104    0.0000 O   0  0  0  0  0  0  0  0  0  0  0  0
    3.9030    2.2765    0.0000 O   0  0  0  0  0  0  0  0  0  0  0  0
    6.0010    2.9104    0.0000 O   0  0  0  0  0  0  0  0  0  0  0  0
   10.4114    1.2152    0.0000 N   0  0  0  0  0  0  0  0  0  0  0  0
   10.4114   -0.3943    0.0000 N   0  0  0  0  0  0  0  0  0  0  0  0
   13.4837   -0.5586    0.0000 N   0  0  0  0  0  0  0  0  0  0  0  0
    6.0010    0.9104    0.0000 N   0  0  0  0  0  0  0  0  0  0  0  0
   12.0899   -1.3634    0.0000 N   0  0  0  0  0  0  0  0  0  0  0  0
   10.7220    2.1657    0.0000 C   0  0  0  0  0  0  0  0  0  0  0  0
    9.4651    0.9104    0.0000 C   0  0  0  0  0  0  0  0  0  0  0  0
   10.9950    0.4104    0.0000 C   0  0  0  0  0  0  0  0  0  0  0  0
    9.4651   -0.0896    0.0000 C   0  0  0  0  0  0  0  0  0  0  0  0
   11.9950    0.4104    0.0000 C   0  0  0  0  0  0  0  0  0  0  0  0
    8.5991    1.4104    0.0000 C   0  0  0  0  0  0  0  0  0  0  0  0
   11.7005    2.3719    0.0000 C   0  0  0  0  0  0  0  0  0  0  0  0
   10.0542    2.9100    0.0000 C   0  0  0  0  0  0  0  0  0  0  0  0
    7.7331    0.9104    0.0000 C   0  0  0  0  0  0  0  0  0  0  0  0
   12.4950   -0.4556    0.0000 C   0  0  0  0  0  0  0  0  0  0  0  0
    8.5991   -0.5896    0.0000 C   0  0  0  0  0  0  0  0  0  0  0  0
    7.7331   -0.0896    0.0000 C   0  0  0  0  0  0  0  0  0  0  0  0
    5.1350    1.4104    0.0000 C   0  0  3  0  0  0  0  0  0  0  0  0
    6.8671    1.4104    0.0000 C   0  0  0  0  0  0  0  0  0  0  0  0
   13.6929   -1.5304    0.0000 C   0  0  0  0  0  0  0  0  0  0  0  0
    4.2690    0.9104    0.0000 C   0  0  0  0  0  0  0  0  0  0  0  0
   12.8269   -2.0304    0.0000 C   0  0  0  0  0  0  0  0  0  0  0  0
   14.5589   -2.0304    0.0000 C   0  0  0  0  0  0  0  0  0  0  0  0
    5.1350    2.4104    0.0000 C   0  0  0  0  0  0  0  0  0  0  0  0
   12.8269   -3.0304    0.0000 C   0  0  0  0  0  0  0  0  0  0  0  0
   14.5589   -3.0304    0.0000 C   0  0  0  0  0  0  0  0  0  0  0  0
   13.6929   -3.5304    0.0000 C   0  0  0  0  0  0  0  0  0  0  0  0
   10.9146    2.7550    0.0000 H   0  0  0  0  0  0  0  0  0  0  0  0
   12.5776    0.6225    0.0000 H   0  0  0  0  0  0  0  0  0  0  0  0
   11.8873    1.0210    0.0000 H   0  0  0  0  0  0  0  0  0  0  0  0
    8.5991    2.0304    0.0000 H   0  0  0  0  0  0  0  0  0  0  0  0
   11.8284    1.7652    0.0000 H   0  0  0  0  0  0  0  0  0  0  0  0
   12.3072    2.4998    0.0000 H   0  0  0  0  0  0  0  0  0  0  0  0
   11.5727    2.9786    0.0000 H   0  0  0  0  0  0  0  0  0  0  0  0
   10.5156    3.3241    0.0000 H   0  0  0  0  0  0  0  0  0  0  0  0
    9.6401    3.3715    0.0000 H   0  0  0  0  0  0  0  0  0  0  0  0
    9.5927    2.4959    0.0000 H   0  0  0  0  0  0  0  0  0  0  0  0
    8.5991   -1.2095    0.0000 H   0  0  0  0  0  0  0  0  0  0  0  0
    7.1962   -0.3996    0.0000 H   0  0  0  0  0  0  0  0  0  0  0  0
    5.6720    1.7204    0.0000 H   0  0  0  0  0  0  0  0  0  0  0  0
   13.8978   -0.0972    0.0000 H   0  0  0  0  0  0  0  0  0  0  0  0
    3.8705    0.4355    0.0000 H   0  0  0  0  0  0  0  0  0  0  0  0
    4.6675    0.4355    0.0000 H   0  0  0  0  0  0  0  0  0  0  0  0
    6.0010    0.2904    0.0000 H   0  0  0  0  0  0  0  0  0  0  0  0
   15.0959   -1.7204    0.0000 H   0  0  0  0  0  0  0  0  0  0  0  0
   12.2899   -3.3404    0.0000 H   0  0  0  0  0  0  0  0  0  0  0  0
   15.0959   -3.3404    0.0000 H   0  0  0  0  0  0  0  0  0  0  0  0
   13.6929   -4.1504    0.0000 H   0  0  0  0  0  0  0  0  0  0  0  0
    2.0000    1.6004    0.0000 H   0  0  0  0  0  0  0  0  0  0  0  0
    3.2130    0.0075    0.0000 H   0  0  0  0  0  0  0  0  0  0  0  0
    4.2690    3.5304    0.0000 H   0  0  0  0  0  0  0  0  0  0  0  0
  1  3  1  0  0  0  0
  1  4  1  0  0  0  0
  1  6  2  0  0  0  0
  1 28  1  0  0  0  0
  2 26  2  0  0  0  0
  3 56  1  0  0  0  0
  4 57  1  0  0  0  0
  5 31  1  0  0  0  0
  5 58  1  0  0  0  0
  7 31  2  0  0  0  0
  8 13  1  0  0  0  0
  8 14  1  0  0  0  0
  8 15  1  0  0  0  0
  9 15  2  0  0  0  0
  9 16  1  0  0  0  0
 10 22  1  0  0  0  0
 10 27  1  0  0  0  0
 10 48  1  0  0  0  0
 11 25  1  0  0  0  0
 11 26  1  0  0  0  0
 11 51  1  0  0  0  0
 12 22  2  0  0  0  0
 12 29  1  0  0  0  0
 13 19  1  0  0  0  0
 13 20  1  0  0  0  0
 13 35  1  0  0  0  0
 14 16  2  0  0  0  0
 14 18  1  0  0  0  0
 15 17  1  0  0  0  0
 16 23  1  0  0  0  0
 17 22  1  0  0  0  0
 17 36  1  0  0  0  0
 17 37  1  0  0  0  0
 18 21  2  0  0  0  0
 18 38  1  0  0  0  0
 19 39  1  0  0  0  0
 19 40  1  0  0  0  0
 19 41  1  0  0  0  0
 20 42  1  0  0  0  0
 20 43  1  0  0  0  0
 20 44  1  0  0  0  0
 21 24  1  0  0  0  0
 21 26  1  0  0  0  0
 23 24  2  0  0  0  0
 23 45  1  0  0  0  0
 24 46  1  0  0  0  0
 25 28  1  0  0  0  0
 25 31  1  0  0  0  0
 25 47  1  0  0  0  0
 27 29  1  0  0  0  0
 27 30  2  0  0  0  0
 28 49  1  0  0  0  0
 28 50  1  0  0  0  0
 29 32  2  0  0  0  0
 30 33  1  0  0  0  0
 30 52  1  0  0  0  0
 32 34  1  0  0  0  0
 32 53  1  0  0  0  0
 33 34  2  0  0  0  0
 33 54  1  0  0  0  0
 34 55  1  0  0  0  0
M  END
> <PUBCHEM_COMPOUND_CID>
500987
> <PUBCHEM_COMPOUND_CANONICALIZED>
1
> <PUBCHEM_CACTVS_COMPLEXITY>
809
> <PUBCHEM_CACTVS_HBOND_ACCEPTOR>
8
> <PUBCHEM_CACTVS_HBOND_DONOR>
5
> <PUBCHEM_CACTVS_ROTATABLE_BOND>
8
> <PUBCHEM_CACTVS_SUBSKEYS>
AAADceB7uAIAAAAAAAAAAAAAAAAAAWLAAAAwYAAAAAAAAFgB/gAAHggQCCAADCjJnwQz2LfNkhCoQyfyfICCgC2lEqAJ2aG4dNiKaLLA3bGUYQholgLYyacciQCeCAAAQAAAACAQAACAAAAAQAAAAAAAAA==
> <PUBCHEM_IUPAC_OPENEYE_NAME>
2-[[2-(1H-benzimidazol-2-ylmethyl)-3-isopropyl-benzimidazole-5-carbonyl]amino]-3-phosphono-propanoic acid
> <PUBCHEM_IUPAC_CAS_NAME>
2-[[[2-(1H-benzimidazol-2-ylmethyl)-3-propan-2-yl-5-benzimidazolyl]-oxomethyl]amino]-3-phosphonopropanoic acid
> <PUBCHEM_IUPAC_NAME_MARKUP>
2-[[2-(1<I>H</I>-benzimidazol-2-ylmethyl)-3-propan-2-ylbenzimidazole-5-carbonyl]amino]-3-phosphonopropanoic acid
> <PUBCHEM_IUPAC_NAME>
2-[[2-(1H-benzimidazol-2-ylmethyl)-3-propan-2-ylbenzimidazole-5-carbonyl]amino]-3-phosphonopropanoic acid
> <PUBCHEM_IUPAC_SYSTEMATIC_NAME>
2-[[2-(1H-benzimidazol-2-ylmethyl)-3-propan-2-yl-benzimidazol-5-yl]carbonylamino]-3-phosphono-propanoic acid
> <PUBCHEM_IUPAC_TRADITIONAL_NAME>
2-[[2-(1H-benzimidazol-2-ylmethyl)-3-isopropyl-benzimidazole-5-carbonyl]amino]-3-phosphono-propionic acid
> <PUBCHEM_IUPAC_INCHI>
InChI=1S/C22H24N5O6P/c1-12(2)27-18-9-13(21(28)26-17(22(29)30)11-34(31,32)33)7-8-16(18)25-20(27)10-19-23-14-5-3-4-6-15(14)24-19/h3-9,12,17H,10-11H2,1-2H3,(H,23,24)(H,26,28)(H,29,30)(H2,31,32,33)
> <PUBCHEM_IUPAC_INCHIKEY>
DNHOZBARQJWCQC-UHFFFAOYSA-N
> <PUBCHEM_XLOGP3_AA>
0.8
> <PUBCHEM_EXACT_MASS>
485.14642050
> <PUBCHEM_MOLECULAR_FORMULA>
C22H24N5O6P
> <PUBCHEM_MOLECULAR_WEIGHT>
485.4
> <PUBCHEM_OPENEYE_CAN_SMILES>
CC(C)N1C2=C(C=CC(=C2)C(=O)NC(CP(=O)(O)O)C(=O)O)N=C1CC3=NC4=CC=CC=C4N3
> <PUBCHEM_OPENEYE_ISO_SMILES>
CC(C)N1C2=C(C=CC(=C2)C(=O)NC(CP(=O)(O)O)C(=O)O)N=C1CC3=NC4=CC=CC=C4N3
> <PUBCHEM_CACTVS_TPSA>
170
> <PUBCHEM_MONOISOTOPIC_WEIGHT>
485.14642050
> <PUBCHEM_TOTAL_CHARGE>
0
> <PUBCHEM_HEAVY_ATOM_COUNT>
34
> <PUBCHEM_ATOM_DEF_STEREO_COUNT>
0
> <PUBCHEM_ATOM_UDEF_STEREO_COUNT>
1
> <PUBCHEM_BOND_DEF_STEREO_COUNT>
0
> <PUBCHEM_BOND_UDEF_STEREO_COUNT>
0
> <PUBCHEM_ISOTOPIC_ATOM_COUNT>
0
> <PUBCHEM_COMPONENT_COUNT>
1
> <PUBCHEM_CACTVS_TAUTO_COUNT>
-1
> <PUBCHEM_COORDINATE_TYPE>
1
5
255
> <PUBCHEM_BONDANNOTATIONS>
10  22  8
10  27  8
12  22  8
12  29  8
14  16  8
14  18  8
16  23  8
18  21  8
21  24  8
23  24  8
25  28  3
27  29  8
27  30  8
29  32  8
30  33  8
32  34  8
33  34  8
8  14  8
8  15  8
9  15  8
9  16  8
$$$$
