500982
  -OEChem-10302200282D
 52 55  0     1  0  0  0  0  0999 V2000
    3.4030   -0.0600    0.0000 P   0  0  0  0  0  0  0  0  0  0  0  0
   11.9950   -2.0600    0.0000 F   0  0  0  0  0  0  0  0  0  0  0  0
   11.9950   -0.0600    0.0000 F   0  0  0  0  0  0  0  0  0  0  0  0
   17.1229   -0.0600    0.0000 F   0  0  0  0  0  0  0  0  0  0  0  0
   17.1229   -2.0600    0.0000 F   0  0  0  0  0  0  0  0  0  0  0  0
    6.8671    0.9400    0.0000 O   0  0  0  0  0  0  0  0  0  0  0  0
    2.5369    0.4400    0.0000 O   0  0  0  0  0  0  0  0  0  0  0  0
    2.9030   -0.9260    0.0000 O   0  0  0  0  0  0  0  0  0  0  0  0
    3.9030    0.8060    0.0000 O   0  0  0  0  0  0  0  0  0  0  0  0
    4.2690    1.4400    0.0000 O   0  0  0  0  0  0  0  0  0  0  0  0
    6.0010    1.4400    0.0000 O   0  0  0  0  0  0  0  0  0  0  0  0
   10.4114   -0.2553    0.0000 N   0  0  0  0  0  0  0  0  0  0  0  0
   10.4114   -1.8647    0.0000 N   0  0  0  0  0  0  0  0  0  0  0  0
   13.5786   -0.2553    0.0000 N   0  0  0  0  0  0  0  0  0  0  0  0
    6.0010   -0.5600    0.0000 N   0  0  0  0  0  0  0  0  0  0  0  0
   13.5786   -1.8647    0.0000 N   0  0  0  0  0  0  0  0  0  0  0  0
    9.4651   -0.5600    0.0000 C   0  0  0  0  0  0  0  0  0  0  0  0
   10.9950   -1.0600    0.0000 C   0  0  0  0  0  0  0  0  0  0  0  0
   11.9950   -1.0600    0.0000 C   0  0  0  0  0  0  0  0  0  0  0  0
    9.4651   -1.5600    0.0000 C   0  0  0  0  0  0  0  0  0  0  0  0
    8.5991   -0.0600    0.0000 C   0  0  0  0  0  0  0  0  0  0  0  0
   12.9950   -1.0600    0.0000 C   0  0  0  0  0  0  0  0  0  0  0  0
    5.1350   -0.0600    0.0000 C   0  0  3  0  0  0  0  0  0  0  0  0
    7.7331   -0.5600    0.0000 C   0  0  0  0  0  0  0  0  0  0  0  0
    4.2690   -0.5600    0.0000 C   0  0  0  0  0  0  0  0  0  0  0  0
    8.5991   -2.0600    0.0000 C   0  0  0  0  0  0  0  0  0  0  0  0
   10.7220    0.6953    0.0000 C   0  0  0  0  0  0  0  0  0  0  0  0
    7.7331   -1.5600    0.0000 C   0  0  0  0  0  0  0  0  0  0  0  0
    6.8671   -0.0600    0.0000 C   0  0  0  0  0  0  0  0  0  0  0  0
   14.5248   -0.5600    0.0000 C   0  0  0  0  0  0  0  0  0  0  0  0
   14.5248   -1.5600    0.0000 C   0  0  0  0  0  0  0  0  0  0  0  0
    5.1350    0.9400    0.0000 C   0  0  0  0  0  0  0  0  0  0  0  0
   15.3908   -0.0600    0.0000 C   0  0  0  0  0  0  0  0  0  0  0  0
   15.3908   -2.0600    0.0000 C   0  0  0  0  0  0  0  0  0  0  0  0
   16.2568   -0.5600    0.0000 C   0  0  0  0  0  0  0  0  0  0  0  0
   16.2568   -1.5600    0.0000 C   0  0  0  0  0  0  0  0  0  0  0  0
    8.5991    0.5600    0.0000 H   0  0  0  0  0  0  0  0  0  0  0  0
    5.1350   -0.6800    0.0000 H   0  0  0  0  0  0  0  0  0  0  0  0
    3.8705   -1.0350    0.0000 H   0  0  0  0  0  0  0  0  0  0  0  0
    4.6675   -1.0350    0.0000 H   0  0  0  0  0  0  0  0  0  0  0  0
    8.5991   -2.6800    0.0000 H   0  0  0  0  0  0  0  0  0  0  0  0
   11.3113    0.5026    0.0000 H   0  0  0  0  0  0  0  0  0  0  0  0
   10.9146    1.2846    0.0000 H   0  0  0  0  0  0  0  0  0  0  0  0
   10.1327    0.8879    0.0000 H   0  0  0  0  0  0  0  0  0  0  0  0
    7.1962   -1.8700    0.0000 H   0  0  0  0  0  0  0  0  0  0  0  0
    6.0010   -1.1800    0.0000 H   0  0  0  0  0  0  0  0  0  0  0  0
   13.3860    0.3341    0.0000 H   0  0  0  0  0  0  0  0  0  0  0  0
   15.3908    0.5600    0.0000 H   0  0  0  0  0  0  0  0  0  0  0  0
   15.3908   -2.6800    0.0000 H   0  0  0  0  0  0  0  0  0  0  0  0
    2.0000    0.1300    0.0000 H   0  0  0  0  0  0  0  0  0  0  0  0
    3.2130   -1.4630    0.0000 H   0  0  0  0  0  0  0  0  0  0  0  0
    4.2690    2.0600    0.0000 H   0  0  0  0  0  0  0  0  0  0  0  0
  1  7  1  0  0  0  0
  1  8  1  0  0  0  0
  1  9  2  0  0  0  0
  1 25  1  0  0  0  0
  2 19  1  0  0  0  0
  3 19  1  0  0  0  0
  4 35  1  0  0  0  0
  5 36  1  0  0  0  0
  6 29  2  0  0  0  0
  7 50  1  0  0  0  0
  8 51  1  0  0  0  0
 10 32  1  0  0  0  0
 10 52  1  0  0  0  0
 11 32  2  0  0  0  0
 12 17  1  0  0  0  0
 12 18  1  0  0  0  0
 12 27  1  0  0  0  0
 13 18  2  0  0  0  0
 13 20  1  0  0  0  0
 14 22  1  0  0  0  0
 14 30  1  0  0  0  0
 14 47  1  0  0  0  0
 15 23  1  0  0  0  0
 15 29  1  0  0  0  0
 15 46  1  0  0  0  0
 16 22  2  0  0  0  0
 16 31  1  0  0  0  0
 17 20  2  0  0  0  0
 17 21  1  0  0  0  0
 18 19  1  0  0  0  0
 19 22  1  0  0  0  0
 20 26  1  0  0  0  0
 21 24  2  0  0  0  0
 21 37  1  0  0  0  0
 23 25  1  0  0  0  0
 23 32  1  0  0  0  0
 23 38  1  0  0  0  0
 24 28  1  0  0  0  0
 24 29  1  0  0  0  0
 25 39  1  0  0  0  0
 25 40  1  0  0  0  0
 26 28  2  0  0  0  0
 26 41  1  0  0  0  0
 27 42  1  0  0  0  0
 27 43  1  0  0  0  0
 27 44  1  0  0  0  0
 28 45  1  0  0  0  0
 30 31  1  0  0  0  0
 30 33  2  0  0  0  0
 31 34  2  0  0  0  0
 33 35  1  0  0  0  0
 33 48  1  0  0  0  0
 34 36  1  0  0  0  0
 34 49  1  0  0  0  0
 35 36  2  0  0  0  0
M  END
> <PUBCHEM_COMPOUND_CID>
500982
> <PUBCHEM_COMPOUND_CANONICALIZED>
1
> <PUBCHEM_CACTVS_COMPLEXITY>
914
> <PUBCHEM_CACTVS_HBOND_ACCEPTOR>
12
> <PUBCHEM_CACTVS_HBOND_DONOR>
5
> <PUBCHEM_CACTVS_ROTATABLE_BOND>
7
> <PUBCHEM_CACTVS_SUBSKEYS>
AAADceB7ucIAAAAAAAAAAAAAAAAAAWLAAAAwYAAAAAAAAFgB/gAAHwgQCCAADCjJnxwz2LfNkhCoQyfyfICCgC2lEqAJ2aG4dNiKaLLA3bGUYQholgLYyacciQCeCAAAQAAAACAQAACAAAAAQAAAAAAAAA==
> <PUBCHEM_IUPAC_OPENEYE_NAME>
2-[[2-[(5,6-difluoro-1H-benzimidazol-2-yl)-difluoro-methyl]-3-methyl-benzimidazole-5-carbonyl]amino]-3-phosphono-propanoic acid
> <PUBCHEM_IUPAC_CAS_NAME>
2-[[[2-[(5,6-difluoro-1H-benzimidazol-2-yl)-difluoromethyl]-3-methyl-5-benzimidazolyl]-oxomethyl]amino]-3-phosphonopropanoic acid
> <PUBCHEM_IUPAC_NAME_MARKUP>
2-[[2-[(5,6-difluoro-1<I>H</I>-benzimidazol-2-yl)-difluoromethyl]-3-methylbenzimidazole-5-carbonyl]amino]-3-phosphonopropanoic acid
> <PUBCHEM_IUPAC_NAME>
2-[[2-[(5,6-difluoro-1H-benzimidazol-2-yl)-difluoromethyl]-3-methylbenzimidazole-5-carbonyl]amino]-3-phosphonopropanoic acid
> <PUBCHEM_IUPAC_SYSTEMATIC_NAME>
2-[[2-[[5,6-bis(fluoranyl)-1H-benzimidazol-2-yl]-bis(fluoranyl)methyl]-3-methyl-benzimidazol-5-yl]carbonylamino]-3-phosphono-propanoic acid
> <PUBCHEM_IUPAC_TRADITIONAL_NAME>
2-[[2-[(5,6-difluoro-1H-benzimidazol-2-yl)-difluoro-methyl]-3-methyl-benzimidazole-5-carbonyl]amino]-3-phosphono-propionic acid
> <PUBCHEM_IUPAC_INCHI>
InChI=1S/C20H16F4N5O6P/c1-29-15-4-8(16(30)25-14(17(31)32)7-36(33,34)35)2-3-11(15)28-19(29)20(23,24)18-26-12-5-9(21)10(22)6-13(12)27-18/h2-6,14H,7H2,1H3,(H,25,30)(H,26,27)(H,31,32)(H2,33,34,35)
> <PUBCHEM_IUPAC_INCHIKEY>
DHJSFQWAEHBTIR-UHFFFAOYSA-N
> <PUBCHEM_XLOGP3_AA>
0.5
> <PUBCHEM_EXACT_MASS>
529.07743289
> <PUBCHEM_MOLECULAR_FORMULA>
C20H16F4N5O6P
> <PUBCHEM_MOLECULAR_WEIGHT>
529.3
> <PUBCHEM_OPENEYE_CAN_SMILES>
CN1C2=C(C=CC(=C2)C(=O)NC(CP(=O)(O)O)C(=O)O)N=C1C(C3=NC4=CC(=C(C=C4N3)F)F)(F)F
> <PUBCHEM_OPENEYE_ISO_SMILES>
CN1C2=C(C=CC(=C2)C(=O)NC(CP(=O)(O)O)C(=O)O)N=C1C(C3=NC4=CC(=C(C=C4N3)F)F)(F)F
> <PUBCHEM_CACTVS_TPSA>
170
> <PUBCHEM_MONOISOTOPIC_WEIGHT>
529.07743289
> <PUBCHEM_TOTAL_CHARGE>
0
> <PUBCHEM_HEAVY_ATOM_COUNT>
36
> <PUBCHEM_ATOM_DEF_STEREO_COUNT>
0
> <PUBCHEM_ATOM_UDEF_STEREO_COUNT>
1
> <PUBCHEM_BOND_DEF_STEREO_COUNT>
0
> <PUBCHEM_BOND_UDEF_STEREO_COUNT>
0
> <PUBCHEM_ISOTOPIC_ATOM_COUNT>
0
> <PUBCHEM_COMPONENT_COUNT>
1
> <PUBCHEM_CACTVS_TAUTO_COUNT>
-1
> <PUBCHEM_COORDINATE_TYPE>
1
5
255
> <PUBCHEM_BONDANNOTATIONS>
12  17  8
12  18  8
13  18  8
13  20  8
14  22  8
14  30  8
16  22  8
16  31  8
17  20  8
17  21  8
20  26  8
21  24  8
23  25  3
24  28  8
26  28  8
30  31  8
30  33  8
31  34  8
33  35  8
34  36  8
35  36  8
$$$$
