500974
  -OEChem-10302200282D
 56 59  0     1  0  0  0  0  0999 V2000
    3.4030    1.4104    0.0000 P   0  0  0  0  0  0  0  0  0  0  0  0
   15.4249   -1.5304    0.0000 O   0  0  0  0  0  0  0  0  0  0  0  0
    6.8671    2.4104    0.0000 O   0  0  0  0  0  0  0  0  0  0  0  0
    2.5369    1.9104    0.0000 O   0  0  0  0  0  0  0  0  0  0  0  0
    2.9030    0.5444    0.0000 O   0  0  0  0  0  0  0  0  0  0  0  0
    3.9030    2.2765    0.0000 O   0  0  0  0  0  0  0  0  0  0  0  0
    4.2690    2.9104    0.0000 O   0  0  0  0  0  0  0  0  0  0  0  0
    6.0010    2.9104    0.0000 O   0  0  0  0  0  0  0  0  0  0  0  0
   10.4114    1.2152    0.0000 N   0  0  0  0  0  0  0  0  0  0  0  0
   10.4114   -0.3943    0.0000 N   0  0  0  0  0  0  0  0  0  0  0  0
   12.0899   -1.3634    0.0000 N   0  0  0  0  0  0  0  0  0  0  0  0
    6.0010    0.9104    0.0000 N   0  0  0  0  0  0  0  0  0  0  0  0
   13.4837   -0.5586    0.0000 N   0  0  0  0  0  0  0  0  0  0  0  0
    9.4651    0.9104    0.0000 C   0  0  0  0  0  0  0  0  0  0  0  0
   10.9950    0.4104    0.0000 C   0  0  0  0  0  0  0  0  0  0  0  0
   11.9950    0.4104    0.0000 C   0  0  0  0  0  0  0  0  0  0  0  0
    9.4651   -0.0896    0.0000 C   0  0  0  0  0  0  0  0  0  0  0  0
   12.4950   -0.4556    0.0000 C   0  0  0  0  0  0  0  0  0  0  0  0
    8.5991    1.4104    0.0000 C   0  0  0  0  0  0  0  0  0  0  0  0
    7.7331    0.9104    0.0000 C   0  0  0  0  0  0  0  0  0  0  0  0
    5.1350    1.4104    0.0000 C   0  0  3  0  0  0  0  0  0  0  0  0
    8.5991   -0.5896    0.0000 C   0  0  0  0  0  0  0  0  0  0  0  0
   10.7220    2.1657    0.0000 C   0  0  0  0  0  0  0  0  0  0  0  0
    4.2690    0.9104    0.0000 C   0  0  0  0  0  0  0  0  0  0  0  0
    7.7331   -0.0896    0.0000 C   0  0  0  0  0  0  0  0  0  0  0  0
   12.8269   -2.0304    0.0000 C   0  0  0  0  0  0  0  0  0  0  0  0
   13.6929   -1.5304    0.0000 C   0  0  0  0  0  0  0  0  0  0  0  0
    6.8671    1.4104    0.0000 C   0  0  0  0  0  0  0  0  0  0  0  0
   14.5589   -2.0304    0.0000 C   0  0  0  0  0  0  0  0  0  0  0  0
   12.8269   -3.0304    0.0000 C   0  0  0  0  0  0  0  0  0  0  0  0
    5.1350    2.4104    0.0000 C   0  0  0  0  0  0  0  0  0  0  0  0
   14.5589   -3.0304    0.0000 C   0  0  0  0  0  0  0  0  0  0  0  0
   13.6929   -3.5304    0.0000 C   0  0  0  0  0  0  0  0  0  0  0  0
   16.2910   -2.0304    0.0000 C   0  0  0  0  0  0  0  0  0  0  0  0
   12.5776    0.6225    0.0000 H   0  0  0  0  0  0  0  0  0  0  0  0
   11.8873    1.0210    0.0000 H   0  0  0  0  0  0  0  0  0  0  0  0
    8.5991    2.0304    0.0000 H   0  0  0  0  0  0  0  0  0  0  0  0
    5.6720    1.7204    0.0000 H   0  0  0  0  0  0  0  0  0  0  0  0
    8.5991   -1.2095    0.0000 H   0  0  0  0  0  0  0  0  0  0  0  0
    3.8705    0.4355    0.0000 H   0  0  0  0  0  0  0  0  0  0  0  0
    4.6675    0.4355    0.0000 H   0  0  0  0  0  0  0  0  0  0  0  0
   11.3113    1.9731    0.0000 H   0  0  0  0  0  0  0  0  0  0  0  0
   10.9146    2.7550    0.0000 H   0  0  0  0  0  0  0  0  0  0  0  0
   10.1327    2.3583    0.0000 H   0  0  0  0  0  0  0  0  0  0  0  0
    7.1962   -0.3996    0.0000 H   0  0  0  0  0  0  0  0  0  0  0  0
   11.4832   -1.4912    0.0000 H   0  0  0  0  0  0  0  0  0  0  0  0
    6.0010    0.2904    0.0000 H   0  0  0  0  0  0  0  0  0  0  0  0
   12.2899   -3.3404    0.0000 H   0  0  0  0  0  0  0  0  0  0  0  0
   15.0959   -3.3404    0.0000 H   0  0  0  0  0  0  0  0  0  0  0  0
   13.6929   -4.1504    0.0000 H   0  0  0  0  0  0  0  0  0  0  0  0
    2.0000    1.6004    0.0000 H   0  0  0  0  0  0  0  0  0  0  0  0
    3.2130    0.0075    0.0000 H   0  0  0  0  0  0  0  0  0  0  0  0
    4.2690    3.5304    0.0000 H   0  0  0  0  0  0  0  0  0  0  0  0
   15.9810   -2.5674    0.0000 H   0  0  0  0  0  0  0  0  0  0  0  0
   16.8279   -2.3404    0.0000 H   0  0  0  0  0  0  0  0  0  0  0  0
   16.6010   -1.4935    0.0000 H   0  0  0  0  0  0  0  0  0  0  0  0
  1  4  1  0  0  0  0
  1  5  1  0  0  0  0
  1  6  2  0  0  0  0
  1 24  1  0  0  0  0
  2 29  1  0  0  0  0
  2 34  1  0  0  0  0
  3 28  2  0  0  0  0
  4 51  1  0  0  0  0
  5 52  1  0  0  0  0
  7 31  1  0  0  0  0
  7 53  1  0  0  0  0
  8 31  2  0  0  0  0
  9 14  1  0  0  0  0
  9 15  1  0  0  0  0
  9 23  1  0  0  0  0
 10 15  2  0  0  0  0
 10 17  1  0  0  0  0
 11 18  1  0  0  0  0
 11 26  1  0  0  0  0
 11 46  1  0  0  0  0
 12 21  1  0  0  0  0
 12 28  1  0  0  0  0
 12 47  1  0  0  0  0
 13 18  2  0  0  0  0
 13 27  1  0  0  0  0
 14 17  2  0  0  0  0
 14 19  1  0  0  0  0
 15 16  1  0  0  0  0
 16 18  1  0  0  0  0
 16 35  1  0  0  0  0
 16 36  1  0  0  0  0
 17 22  1  0  0  0  0
 19 20  2  0  0  0  0
 19 37  1  0  0  0  0
 20 25  1  0  0  0  0
 20 28  1  0  0  0  0
 21 24  1  0  0  0  0
 21 31  1  0  0  0  0
 21 38  1  0  0  0  0
 22 25  2  0  0  0  0
 22 39  1  0  0  0  0
 23 42  1  0  0  0  0
 23 43  1  0  0  0  0
 23 44  1  0  0  0  0
 24 40  1  0  0  0  0
 24 41  1  0  0  0  0
 25 45  1  0  0  0  0
 26 27  2  0  0  0  0
 26 30  1  0  0  0  0
 27 29  1  0  0  0  0
 29 32  2  0  0  0  0
 30 33  2  0  0  0  0
 30 48  1  0  0  0  0
 32 33  1  0  0  0  0
 32 49  1  0  0  0  0
 33 50  1  0  0  0  0
 34 54  1  0  0  0  0
 34 55  1  0  0  0  0
 34 56  1  0  0  0  0
M  END
> <PUBCHEM_COMPOUND_CID>
500974
> <PUBCHEM_COMPOUND_CANONICALIZED>
1
> <PUBCHEM_CACTVS_COMPLEXITY>
812
> <PUBCHEM_CACTVS_HBOND_ACCEPTOR>
9
> <PUBCHEM_CACTVS_HBOND_DONOR>
5
> <PUBCHEM_CACTVS_ROTATABLE_BOND>
8
> <PUBCHEM_CACTVS_SUBSKEYS>
AAADceB7uAIAAAAAAAAAAAAAAAAAAWLAAAAwYAAAAAAAAFgB/gAAHggQCCAADCzJnwYz3rfNlhCoQyfyfISCiC2lcqAJ2aG/fNiObrLE/buVcShu1hvY6aec2QOeCAAAQgAAECAQAACEAAAgQAAAAAAAAA==
> <PUBCHEM_IUPAC_OPENEYE_NAME>
2-[[2-[(4-methoxy-1H-benzimidazol-2-yl)methyl]-3-methyl-benzimidazole-5-carbonyl]amino]-3-phosphono-propanoic acid
> <PUBCHEM_IUPAC_CAS_NAME>
2-[[[2-[(4-methoxy-1H-benzimidazol-2-yl)methyl]-3-methyl-5-benzimidazolyl]-oxomethyl]amino]-3-phosphonopropanoic acid
> <PUBCHEM_IUPAC_NAME_MARKUP>
2-[[2-[(4-methoxy-1<I>H</I>-benzimidazol-2-yl)methyl]-3-methylbenzimidazole-5-carbonyl]amino]-3-phosphonopropanoic acid
> <PUBCHEM_IUPAC_NAME>
2-[[2-[(4-methoxy-1H-benzimidazol-2-yl)methyl]-3-methylbenzimidazole-5-carbonyl]amino]-3-phosphonopropanoic acid
> <PUBCHEM_IUPAC_SYSTEMATIC_NAME>
2-[[2-[(4-methoxy-1H-benzimidazol-2-yl)methyl]-3-methyl-benzimidazol-5-yl]carbonylamino]-3-phosphono-propanoic acid
> <PUBCHEM_IUPAC_TRADITIONAL_NAME>
2-[[2-[(4-methoxy-1H-benzimidazol-2-yl)methyl]-3-methyl-benzimidazole-5-carbonyl]amino]-3-phosphono-propionic acid
> <PUBCHEM_IUPAC_INCHI>
InChI=1S/C21H22N5O7P/c1-26-15-8-11(20(27)24-14(21(28)29)10-34(30,31)32)6-7-12(15)23-18(26)9-17-22-13-4-3-5-16(33-2)19(13)25-17/h3-8,14H,9-10H2,1-2H3,(H,22,25)(H,24,27)(H,28,29)(H2,30,31,32)
> <PUBCHEM_IUPAC_INCHIKEY>
KZHDFEYBWTZJGE-UHFFFAOYSA-N
> <PUBCHEM_XLOGP3_AA>
0
> <PUBCHEM_EXACT_MASS>
487.12568506
> <PUBCHEM_MOLECULAR_FORMULA>
C21H22N5O7P
> <PUBCHEM_MOLECULAR_WEIGHT>
487.4
> <PUBCHEM_OPENEYE_CAN_SMILES>
CN1C2=C(C=CC(=C2)C(=O)NC(CP(=O)(O)O)C(=O)O)N=C1CC3=NC4=C(N3)C=CC=C4OC
> <PUBCHEM_OPENEYE_ISO_SMILES>
CN1C2=C(C=CC(=C2)C(=O)NC(CP(=O)(O)O)C(=O)O)N=C1CC3=NC4=C(N3)C=CC=C4OC
> <PUBCHEM_CACTVS_TPSA>
180
> <PUBCHEM_MONOISOTOPIC_WEIGHT>
487.12568506
> <PUBCHEM_TOTAL_CHARGE>
0
> <PUBCHEM_HEAVY_ATOM_COUNT>
34
> <PUBCHEM_ATOM_DEF_STEREO_COUNT>
0
> <PUBCHEM_ATOM_UDEF_STEREO_COUNT>
1
> <PUBCHEM_BOND_DEF_STEREO_COUNT>
0
> <PUBCHEM_BOND_UDEF_STEREO_COUNT>
0
> <PUBCHEM_ISOTOPIC_ATOM_COUNT>
0
> <PUBCHEM_COMPONENT_COUNT>
1
> <PUBCHEM_CACTVS_TAUTO_COUNT>
-1
> <PUBCHEM_COORDINATE_TYPE>
1
5
255
> <PUBCHEM_BONDANNOTATIONS>
10  15  8
10  17  8
11  18  8
11  26  8
13  18  8
13  27  8
14  17  8
14  19  8
17  22  8
19  20  8
20  25  8
21  24  3
22  25  8
26  27  8
26  30  8
27  29  8
29  32  8
30  33  8
32  33  8
9  14  8
9  15  8
$$$$
