500979
  -OEChem-10302200282D
 56 59  0     1  0  0  0  0  0999 V2000
    3.4030   -0.0600    0.0000 P   0  0  0  0  0  0  0  0  0  0  0  0
   11.9950   -2.0600    0.0000 F   0  0  0  0  0  0  0  0  0  0  0  0
   11.9950   -0.0600    0.0000 F   0  0  0  0  0  0  0  0  0  0  0  0
    6.8671    0.9400    0.0000 O   0  0  0  0  0  0  0  0  0  0  0  0
    2.5369    0.4400    0.0000 O   0  0  0  0  0  0  0  0  0  0  0  0
    2.9030   -0.9260    0.0000 O   0  0  0  0  0  0  0  0  0  0  0  0
    3.9030    0.8060    0.0000 O   0  0  0  0  0  0  0  0  0  0  0  0
    4.2690    1.4400    0.0000 O   0  0  0  0  0  0  0  0  0  0  0  0
    6.0010    1.4400    0.0000 O   0  0  0  0  0  0  0  0  0  0  0  0
   17.1229    0.9400    0.0000 O   0  0  0  0  0  0  0  0  0  0  0  0
   10.4114   -0.2553    0.0000 N   0  0  0  0  0  0  0  0  0  0  0  0
   10.4114   -1.8647    0.0000 N   0  0  0  0  0  0  0  0  0  0  0  0
   13.5786   -0.2553    0.0000 N   0  0  0  0  0  0  0  0  0  0  0  0
    6.0010   -0.5600    0.0000 N   0  0  0  0  0  0  0  0  0  0  0  0
   13.5786   -1.8647    0.0000 N   0  0  0  0  0  0  0  0  0  0  0  0
   17.9889   -0.5600    0.0000 N   0  0  0  0  0  0  0  0  0  0  0  0
    9.4651   -0.5600    0.0000 C   0  0  0  0  0  0  0  0  0  0  0  0
   10.9950   -1.0600    0.0000 C   0  0  0  0  0  0  0  0  0  0  0  0
   11.9950   -1.0600    0.0000 C   0  0  0  0  0  0  0  0  0  0  0  0
    9.4651   -1.5600    0.0000 C   0  0  0  0  0  0  0  0  0  0  0  0
   12.9950   -1.0600    0.0000 C   0  0  0  0  0  0  0  0  0  0  0  0
    8.5991   -0.0600    0.0000 C   0  0  0  0  0  0  0  0  0  0  0  0
    7.7331   -0.5600    0.0000 C   0  0  0  0  0  0  0  0  0  0  0  0
    5.1350   -0.0600    0.0000 C   0  0  3  0  0  0  0  0  0  0  0  0
    8.5991   -2.0600    0.0000 C   0  0  0  0  0  0  0  0  0  0  0  0
   10.7220    0.6953    0.0000 C   0  0  0  0  0  0  0  0  0  0  0  0
    4.2690   -0.5600    0.0000 C   0  0  0  0  0  0  0  0  0  0  0  0
   14.5248   -0.5600    0.0000 C   0  0  0  0  0  0  0  0  0  0  0  0
    7.7331   -1.5600    0.0000 C   0  0  0  0  0  0  0  0  0  0  0  0
   14.5248   -1.5600    0.0000 C   0  0  0  0  0  0  0  0  0  0  0  0
    6.8671   -0.0600    0.0000 C   0  0  0  0  0  0  0  0  0  0  0  0
   15.3908   -0.0600    0.0000 C   0  0  0  0  0  0  0  0  0  0  0  0
   15.3908   -2.0600    0.0000 C   0  0  0  0  0  0  0  0  0  0  0  0
    5.1350    0.9400    0.0000 C   0  0  0  0  0  0  0  0  0  0  0  0
   16.2568   -0.5600    0.0000 C   0  0  0  0  0  0  0  0  0  0  0  0
   16.2568   -1.5600    0.0000 C   0  0  0  0  0  0  0  0  0  0  0  0
   17.1229   -0.0600    0.0000 C   0  0  0  0  0  0  0  0  0  0  0  0
    8.5991    0.5600    0.0000 H   0  0  0  0  0  0  0  0  0  0  0  0
    5.1350   -0.6800    0.0000 H   0  0  0  0  0  0  0  0  0  0  0  0
    8.5991   -2.6800    0.0000 H   0  0  0  0  0  0  0  0  0  0  0  0
   11.3113    0.5026    0.0000 H   0  0  0  0  0  0  0  0  0  0  0  0
   10.9146    1.2846    0.0000 H   0  0  0  0  0  0  0  0  0  0  0  0
   10.1327    0.8879    0.0000 H   0  0  0  0  0  0  0  0  0  0  0  0
    3.8705   -1.0350    0.0000 H   0  0  0  0  0  0  0  0  0  0  0  0
    4.6675   -1.0350    0.0000 H   0  0  0  0  0  0  0  0  0  0  0  0
   13.3860    0.3341    0.0000 H   0  0  0  0  0  0  0  0  0  0  0  0
    7.1962   -1.8700    0.0000 H   0  0  0  0  0  0  0  0  0  0  0  0
    6.0010   -1.1800    0.0000 H   0  0  0  0  0  0  0  0  0  0  0  0
   15.3908    0.5600    0.0000 H   0  0  0  0  0  0  0  0  0  0  0  0
   15.3908   -2.6800    0.0000 H   0  0  0  0  0  0  0  0  0  0  0  0
   16.7938   -1.8700    0.0000 H   0  0  0  0  0  0  0  0  0  0  0  0
    2.0000    0.1300    0.0000 H   0  0  0  0  0  0  0  0  0  0  0  0
    3.2130   -1.4630    0.0000 H   0  0  0  0  0  0  0  0  0  0  0  0
    4.2690    2.0600    0.0000 H   0  0  0  0  0  0  0  0  0  0  0  0
   18.5258   -0.2500    0.0000 H   0  0  0  0  0  0  0  0  0  0  0  0
   17.9889   -1.1800    0.0000 H   0  0  0  0  0  0  0  0  0  0  0  0
  1  5  1  0  0  0  0
  1  6  1  0  0  0  0
  1  7  2  0  0  0  0
  1 27  1  0  0  0  0
  2 19  1  0  0  0  0
  3 19  1  0  0  0  0
  4 31  2  0  0  0  0
  5 52  1  0  0  0  0
  6 53  1  0  0  0  0
  8 34  1  0  0  0  0
  8 54  1  0  0  0  0
  9 34  2  0  0  0  0
 10 37  2  0  0  0  0
 11 17  1  0  0  0  0
 11 18  1  0  0  0  0
 11 26  1  0  0  0  0
 12 18  2  0  0  0  0
 12 20  1  0  0  0  0
 13 21  1  0  0  0  0
 13 28  1  0  0  0  0
 13 46  1  0  0  0  0
 14 24  1  0  0  0  0
 14 31  1  0  0  0  0
 14 48  1  0  0  0  0
 15 21  2  0  0  0  0
 15 30  1  0  0  0  0
 16 37  1  0  0  0  0
 16 55  1  0  0  0  0
 16 56  1  0  0  0  0
 17 20  2  0  0  0  0
 17 22  1  0  0  0  0
 18 19  1  0  0  0  0
 19 21  1  0  0  0  0
 20 25  1  0  0  0  0
 22 23  2  0  0  0  0
 22 38  1  0  0  0  0
 23 29  1  0  0  0  0
 23 31  1  0  0  0  0
 24 27  1  0  0  0  0
 24 34  1  0  0  0  0
 24 39  1  0  0  0  0
 25 29  2  0  0  0  0
 25 40  1  0  0  0  0
 26 41  1  0  0  0  0
 26 42  1  0  0  0  0
 26 43  1  0  0  0  0
 27 44  1  0  0  0  0
 27 45  1  0  0  0  0
 28 30  2  0  0  0  0
 28 32  1  0  0  0  0
 29 47  1  0  0  0  0
 30 33  1  0  0  0  0
 32 35  2  0  0  0  0
 32 49  1  0  0  0  0
 33 36  2  0  0  0  0
 33 50  1  0  0  0  0
 35 36  1  0  0  0  0
 35 37  1  0  0  0  0
 36 51  1  0  0  0  0
M  END
> <PUBCHEM_COMPOUND_CID>
500979
> <PUBCHEM_COMPOUND_CANONICALIZED>
1
> <PUBCHEM_CACTVS_COMPLEXITY>
970
> <PUBCHEM_CACTVS_HBOND_ACCEPTOR>
11
> <PUBCHEM_CACTVS_HBOND_DONOR>
6
> <PUBCHEM_CACTVS_ROTATABLE_BOND>
8
> <PUBCHEM_CACTVS_SUBSKEYS>
AAADceB7uYIAAAAAAAAAAAAAAAAAAWLAAAAwYAAAAAAAAFgB/gAAHwgQCCAADCjJnxQz2LfNkhCoQyfyfICCgC2lEqAJ2aG4dNiKaLLA3bGUYQholgLYyacciQCeCAAAQAAAACAQAACAAAAAQAAAAAAAAA==
> <PUBCHEM_IUPAC_OPENEYE_NAME>
2-[[2-[(6-carbamoyl-1H-benzimidazol-2-yl)-difluoro-methyl]-3-methyl-benzimidazole-5-carbonyl]amino]-3-phosphono-propanoic acid
> <PUBCHEM_IUPAC_CAS_NAME>
2-[[[2-[(6-carbamoyl-1H-benzimidazol-2-yl)-difluoromethyl]-3-methyl-5-benzimidazolyl]-oxomethyl]amino]-3-phosphonopropanoic acid
> <PUBCHEM_IUPAC_NAME_MARKUP>
2-[[2-[(6-carbamoyl-1<I>H</I>-benzimidazol-2-yl)-difluoromethyl]-3-methylbenzimidazole-5-carbonyl]amino]-3-phosphonopropanoic acid
> <PUBCHEM_IUPAC_NAME>
2-[[2-[(6-carbamoyl-1H-benzimidazol-2-yl)-difluoromethyl]-3-methylbenzimidazole-5-carbonyl]amino]-3-phosphonopropanoic acid
> <PUBCHEM_IUPAC_SYSTEMATIC_NAME>
2-[[2-[(6-aminocarbonyl-1H-benzimidazol-2-yl)-bis(fluoranyl)methyl]-3-methyl-benzimidazol-5-yl]carbonylamino]-3-phosphono-propanoic acid
> <PUBCHEM_IUPAC_TRADITIONAL_NAME>
2-[[2-[(6-carbamoyl-1H-benzimidazol-2-yl)-difluoro-methyl]-3-methyl-benzimidazole-5-carbonyl]amino]-3-phosphono-propionic acid
> <PUBCHEM_IUPAC_INCHI>
InChI=1S/C21H19F2N6O7P/c1-29-15-7-10(17(31)25-14(18(32)33)8-37(34,35)36)3-5-12(15)28-20(29)21(22,23)19-26-11-4-2-9(16(24)30)6-13(11)27-19/h2-7,14H,8H2,1H3,(H2,24,30)(H,25,31)(H,26,27)(H,32,33)(H2,34,35,36)
> <PUBCHEM_IUPAC_INCHIKEY>
KIQSTSNVCZPMCH-UHFFFAOYSA-N
> <PUBCHEM_XLOGP3_AA>
-0.9
> <PUBCHEM_EXACT_MASS>
536.10209029
> <PUBCHEM_MOLECULAR_FORMULA>
C21H19F2N6O7P
> <PUBCHEM_MOLECULAR_WEIGHT>
536.4
> <PUBCHEM_OPENEYE_CAN_SMILES>
CN1C2=C(C=CC(=C2)C(=O)NC(CP(=O)(O)O)C(=O)O)N=C1C(C3=NC4=C(N3)C=C(C=C4)C(=O)N)(F)F
> <PUBCHEM_OPENEYE_ISO_SMILES>
CN1C2=C(C=CC(=C2)C(=O)NC(CP(=O)(O)O)C(=O)O)N=C1C(C3=NC4=C(N3)C=C(C=C4)C(=O)N)(F)F
> <PUBCHEM_CACTVS_TPSA>
214
> <PUBCHEM_MONOISOTOPIC_WEIGHT>
536.10209029
> <PUBCHEM_TOTAL_CHARGE>
0
> <PUBCHEM_HEAVY_ATOM_COUNT>
37
> <PUBCHEM_ATOM_DEF_STEREO_COUNT>
0
> <PUBCHEM_ATOM_UDEF_STEREO_COUNT>
1
> <PUBCHEM_BOND_DEF_STEREO_COUNT>
0
> <PUBCHEM_BOND_UDEF_STEREO_COUNT>
0
> <PUBCHEM_ISOTOPIC_ATOM_COUNT>
0
> <PUBCHEM_COMPONENT_COUNT>
1
> <PUBCHEM_CACTVS_TAUTO_COUNT>
-1
> <PUBCHEM_COORDINATE_TYPE>
1
5
255
> <PUBCHEM_BONDANNOTATIONS>
11  17  8
11  18  8
12  18  8
12  20  8
13  21  8
13  28  8
15  21  8
15  30  8
17  20  8
17  22  8
20  25  8
22  23  8
23  29  8
24  27  3
25  29  8
28  30  8
28  32  8
30  33  8
32  35  8
33  36  8
35  36  8
$$$$
