500918
  -OEChem-10302200282D
 33 34  0     1  0  0  0  0  0999 V2000
    2.0000    2.4571    0.0000 Br  0  0  0  0  0  0  0  0  0  0  0  0
    2.8660    0.9571    0.0000 Br  0  0  0  0  0  0  0  0  0  0  0  0
    6.2731   -1.1307    0.0000 O   0  0  0  0  0  0  0  0  0  0  0  0
    3.7040   -0.8216    0.0000 O   0  0  0  0  0  0  0  0  0  0  0  0
    4.3763   -2.8907    0.0000 O   0  0  0  0  0  0  0  0  0  0  0  0
    7.5464   -2.7862    0.0000 O   0  0  0  0  0  0  0  0  0  0  0  0
    7.1962    0.4571    0.0000 O   0  0  0  0  0  0  0  0  0  0  0  0
    5.4641    3.4571    0.0000 O   0  0  0  0  0  0  0  0  0  0  0  0
    5.4641    0.4571    0.0000 N   0  0  0  0  0  0  0  0  0  0  0  0
    6.3301    1.9571    0.0000 N   0  0  0  0  0  0  0  0  0  0  0  0
    4.6551   -1.1307    0.0000 C   0  0  1  0  0  0  0  0  0  0  0  0
    4.9641   -2.0817    0.0000 C   0  0  1  0  0  0  0  0  0  0  0  0
    5.4641   -0.5429    0.0000 C   0  0  1  0  0  0  0  0  0  0  0  0
    5.9641   -2.0817    0.0000 C   0  0  1  0  0  0  0  0  0  0  0  0
    6.5519   -2.8907    0.0000 C   0  0  0  0  0  0  0  0  0  0  0  0
    4.5981    0.9571    0.0000 C   0  0  0  0  0  0  0  0  0  0  0  0
    6.3301    0.9571    0.0000 C   0  0  0  0  0  0  0  0  0  0  0  0
    4.5981    1.9571    0.0000 C   0  0  0  0  0  0  0  0  0  0  0  0
    5.4641    2.4571    0.0000 C   0  0  0  0  0  0  0  0  0  0  0  0
    3.7320    2.4571    0.0000 C   0  0  0  0  0  0  0  0  0  0  0  0
    2.8660    1.9571    0.0000 C   0  0  0  0  0  0  0  0  0  0  0  0
    4.2167   -1.5691    0.0000 H   0  0  0  0  0  0  0  0  0  0  0  0
    4.3517   -1.9847    0.0000 H   0  0  0  0  0  0  0  0  0  0  0  0
    6.0165   -0.2614    0.0000 H   0  0  0  0  0  0  0  0  0  0  0  0
    6.5765   -1.9847    0.0000 H   0  0  0  0  0  0  0  0  0  0  0  0
    5.9946   -3.1625    0.0000 H   0  0  0  0  0  0  0  0  0  0  0  0
    6.7228   -3.4867    0.0000 H   0  0  0  0  0  0  0  0  0  0  0  0
    3.2433   -1.2365    0.0000 H   0  0  0  0  0  0  0  0  0  0  0  0
    4.6285   -3.4571    0.0000 H   0  0  0  0  0  0  0  0  0  0  0  0
    4.0611    0.6471    0.0000 H   0  0  0  0  0  0  0  0  0  0  0  0
    6.8671    2.2671    0.0000 H   0  0  0  0  0  0  0  0  0  0  0  0
    7.9108   -3.2878    0.0000 H   0  0  0  0  0  0  0  0  0  0  0  0
    3.7320    3.0771    0.0000 H   0  0  0  0  0  0  0  0  0  0  0  0
  1 21  1  0  0  0  0
  2 21  1  0  0  0  0
  3 13  1  0  0  0  0
  3 14  1  0  0  0  0
 11  4  1  6  0  0  0
  4 28  1  0  0  0  0
 12  5  1  1  0  0  0
  5 29  1  0  0  0  0
  6 15  1  0  0  0  0
  6 32  1  0  0  0  0
  7 17  2  0  0  0  0
  8 19  2  0  0  0  0
 13  9  1  6  0  0  0
  9 16  1  0  0  0  0
  9 17  1  0  0  0  0
 10 17  1  0  0  0  0
 10 19  1  0  0  0  0
 10 31  1  0  0  0  0
 11 12  1  0  0  0  0
 11 13  1  0  0  0  0
 11 22  1  0  0  0  0
 12 14  1  0  0  0  0
 12 23  1  0  0  0  0
 13 24  1  0  0  0  0
 14 15  1  6  0  0  0
 14 25  1  0  0  0  0
 15 26  1  0  0  0  0
 15 27  1  0  0  0  0
 16 18  2  0  0  0  0
 16 30  1  0  0  0  0
 18 19  1  0  0  0  0
 18 20  1  0  0  0  0
 20 21  2  0  0  0  0
 20 33  1  0  0  0  0
M  END
> <PUBCHEM_COMPOUND_CID>
500918
> <PUBCHEM_COMPOUND_CANONICALIZED>
1
> <PUBCHEM_CACTVS_COMPLEXITY>
519
> <PUBCHEM_CACTVS_HBOND_ACCEPTOR>
6
> <PUBCHEM_CACTVS_HBOND_DONOR>
4
> <PUBCHEM_CACTVS_ROTATABLE_BOND>
3
> <PUBCHEM_CACTVS_SUBSKEYS>
AAADccBzOAAAGAAAAAAAAAAAAAAAASAAAAAgAAAAAAAAAAAAAAAAHgBQCAABDBThgAYBAAPABgCIAiFWUACAAAAgAAAAAAEIAEiLEAIAgQAOQAAPByITAMDwMAIAAAAAAAAAAAAAAAAAAAAAAAAAAAAAAA==
> <PUBCHEM_IUPAC_OPENEYE_NAME>
5-(2,2-dibromovinyl)-1-[(2R,3S,4S,5R)-3,4-dihydroxy-5-(hydroxymethyl)tetrahydrofuran-2-yl]pyrimidine-2,4-dione
> <PUBCHEM_IUPAC_CAS_NAME>
5-(2,2-dibromoethenyl)-1-[(2R,3S,4S,5R)-3,4-dihydroxy-5-(hydroxymethyl)-2-oxolanyl]pyrimidine-2,4-dione
> <PUBCHEM_IUPAC_NAME_MARKUP>
5-(2,2-dibromoethenyl)-1-[(2<I>R</I>,3<I>S</I>,4<I>S</I>,5<I>R</I>)-3,4-dihydroxy-5-(hydroxymethyl)oxolan-2-yl]pyrimidine-2,4-dione
> <PUBCHEM_IUPAC_NAME>
5-(2,2-dibromoethenyl)-1-[(2R,3S,4S,5R)-3,4-dihydroxy-5-(hydroxymethyl)oxolan-2-yl]pyrimidine-2,4-dione
> <PUBCHEM_IUPAC_SYSTEMATIC_NAME>
5-[2,2-bis(bromanyl)ethenyl]-1-[(2R,3S,4S,5R)-5-(hydroxymethyl)-3,4-bis(oxidanyl)oxolan-2-yl]pyrimidine-2,4-dione
> <PUBCHEM_IUPAC_TRADITIONAL_NAME>
5-(2,2-dibromovinyl)-1-[(2R,3S,4S,5R)-3,4-dihydroxy-5-methylol-tetrahydrofuran-2-yl]pyrimidine-2,4-quinone
> <PUBCHEM_IUPAC_INCHI>
InChI=1S/C11H12Br2N2O6/c12-6(13)1-4-2-15(11(20)14-9(4)19)10-8(18)7(17)5(3-16)21-10/h1-2,5,7-8,10,16-18H,3H2,(H,14,19,20)/t5-,7-,8+,10-/m1/s1
> <PUBCHEM_IUPAC_INCHIKEY>
IVNDDPVMTJKWCX-PJGXCUNHSA-N
> <PUBCHEM_XLOGP3>
0
> <PUBCHEM_EXACT_MASS>
427.90416
> <PUBCHEM_MOLECULAR_FORMULA>
C11H12Br2N2O6
> <PUBCHEM_MOLECULAR_WEIGHT>
428.03
> <PUBCHEM_OPENEYE_CAN_SMILES>
C1=C(C(=O)NC(=O)N1C2C(C(C(O2)CO)O)O)C=C(Br)Br
> <PUBCHEM_OPENEYE_ISO_SMILES>
C1=C(C(=O)NC(=O)N1[C@H]2[C@H]([C@@H]([C@H](O2)CO)O)O)C=C(Br)Br
> <PUBCHEM_CACTVS_TPSA>
119
> <PUBCHEM_MONOISOTOPIC_WEIGHT>
425.90621
> <PUBCHEM_TOTAL_CHARGE>
0
> <PUBCHEM_HEAVY_ATOM_COUNT>
21
> <PUBCHEM_ATOM_DEF_STEREO_COUNT>
4
> <PUBCHEM_ATOM_UDEF_STEREO_COUNT>
0
> <PUBCHEM_BOND_DEF_STEREO_COUNT>
0
> <PUBCHEM_BOND_UDEF_STEREO_COUNT>
0
> <PUBCHEM_ISOTOPIC_ATOM_COUNT>
0
> <PUBCHEM_COMPONENT_COUNT>
1
> <PUBCHEM_CACTVS_TAUTO_COUNT>
-1
> <PUBCHEM_COORDINATE_TYPE>
1
5
255
> <PUBCHEM_BONDANNOTATIONS>
10  17  8
10  19  8
14  15  6
16  18  8
18  19  8
11  4  6
12  5  5
13  9  6
9  16  8
9  17  8
$$$$
