501003
  -OEChem-10302200282D
122129  0     1  0  0  0  0  0999 V2000
    6.3301    1.1051    0.0000 P   0  0  0  0  0  0  0  0  0  0  0  0
   23.5141    1.1051    0.0000 P   0  0  0  0  0  0  0  0  0  0  0  0
   14.9221   -0.8949    0.0000 F   0  0  0  0  0  0  0  0  0  0  0  0
   14.9221    1.1051    0.0000 F   0  0  0  0  0  0  0  0  0  0  0  0
    5.4641    1.6051    0.0000 O   0  0  0  0  0  0  0  0  0  0  0  0
    5.8301    0.2390    0.0000 O   0  0  0  0  0  0  0  0  0  0  0  0
   24.3802    1.6051    0.0000 O   0  0  0  0  0  0  0  0  0  0  0  0
   24.0141    0.2390    0.0000 O   0  0  0  0  0  0  0  0  0  0  0  0
    6.8301    1.9711    0.0000 O   0  0  0  0  0  0  0  0  0  0  0  0
   23.0141    1.9711    0.0000 O   0  0  0  0  0  0  0  0  0  0  0  0
    9.7942    2.1051    0.0000 O   0  0  0  0  0  0  0  0  0  0  0  0
    7.1962    2.6051    0.0000 O   0  0  0  0  0  0  0  0  0  0  0  0
   20.0500    2.1051    0.0000 O   0  0  0  0  0  0  0  0  0  0  0  0
   22.6481    2.6051    0.0000 O   0  0  0  0  0  0  0  0  0  0  0  0
    8.9282    2.6051    0.0000 O   0  0  0  0  0  0  0  0  0  0  0  0
   20.9161    2.6051    0.0000 O   0  0  0  0  0  0  0  0  0  0  0  0
   13.3385    0.9098    0.0000 N   0  0  0  0  0  0  0  0  0  0  0  0
   13.3385   -0.6997    0.0000 N   0  0  0  0  0  0  0  0  0  0  0  0
   16.5057    0.9098    0.0000 N   0  0  0  0  0  0  0  0  0  0  0  0
    8.9282    0.6051    0.0000 N   0  0  0  0  0  0  0  0  0  0  0  0
   16.5057   -0.6997    0.0000 N   0  0  0  0  0  0  0  0  0  0  0  0
   20.9161    0.6051    0.0000 N   0  0  0  0  0  0  0  0  0  0  0  0
   13.9221    0.1051    0.0000 C   0  0  0  0  0  0  0  0  0  0  0  0
   12.3923    0.6051    0.0000 C   0  0  0  0  0  0  0  0  0  0  0  0
   14.9221    0.1051    0.0000 C   0  0  0  0  0  0  0  0  0  0  0  0
   12.3923   -0.3949    0.0000 C   0  0  0  0  0  0  0  0  0  0  0  0
   15.9221    0.1051    0.0000 C   0  0  0  0  0  0  0  0  0  0  0  0
    8.0622    1.1051    0.0000 C   0  0  3  0  0  0  0  0  0  0  0  0
    7.1962    0.6051    0.0000 C   0  0  0  0  0  0  0  0  0  0  0  0
   11.5263    1.1051    0.0000 C   0  0  0  0  0  0  0  0  0  0  0  0
   10.6603    0.6051    0.0000 C   0  0  0  0  0  0  0  0  0  0  0  0
   21.7821    1.1051    0.0000 C   0  0  3  0  0  0  0  0  0  0  0  0
   17.4520    0.6051    0.0000 C   0  0  0  0  0  0  0  0  0  0  0  0
   22.6481    0.6051    0.0000 C   0  0  0  0  0  0  0  0  0  0  0  0
   17.4520   -0.3949    0.0000 C   0  0  0  0  0  0  0  0  0  0  0  0
   11.5263   -0.8949    0.0000 C   0  0  0  0  0  0  0  0  0  0  0  0
   13.6492    1.8603    0.0000 C   0  0  0  0  0  0  0  0  0  0  0  0
   10.6603   -0.3949    0.0000 C   0  0  0  0  0  0  0  0  0  0  0  0
    9.7942    1.1051    0.0000 C   0  0  0  0  0  0  0  0  0  0  0  0
   19.1840    0.6051    0.0000 C   0  0  0  0  0  0  0  0  0  0  0  0
   18.3180    1.1051    0.0000 C   0  0  0  0  0  0  0  0  0  0  0  0
   18.3180   -0.8949    0.0000 C   0  0  0  0  0  0  0  0  0  0  0  0
   20.0500    1.1051    0.0000 C   0  0  0  0  0  0  0  0  0  0  0  0
   19.1840   -0.3949    0.0000 C   0  0  0  0  0  0  0  0  0  0  0  0
    8.0622    2.1051    0.0000 C   0  0  0  0  0  0  0  0  0  0  0  0
   21.7821    2.1051    0.0000 C   0  0  0  0  0  0  0  0  0  0  0  0
    4.5981    1.1051    0.0000 C   0  0  0  0  0  0  0  0  0  0  0  0
    6.3301   -0.6270    0.0000 C   0  0  0  0  0  0  0  0  0  0  0  0
   25.2462    1.1051    0.0000 C   0  0  0  0  0  0  0  0  0  0  0  0
   23.5141   -0.6270    0.0000 C   0  0  0  0  0  0  0  0  0  0  0  0
    3.7320    1.6051    0.0000 C   0  0  0  0  0  0  0  0  0  0  0  0
    5.8301   -1.4930    0.0000 C   0  0  0  0  0  0  0  0  0  0  0  0
   26.1122    1.6051    0.0000 C   0  0  0  0  0  0  0  0  0  0  0  0
   24.0141   -1.4930    0.0000 C   0  0  0  0  0  0  0  0  0  0  0  0
    2.8660    1.1051    0.0000 C   0  0  0  0  0  0  0  0  0  0  0  0
    6.3301   -2.3590    0.0000 C   0  0  0  0  0  0  0  0  0  0  0  0
    3.7320    2.6051    0.0000 C   0  0  0  0  0  0  0  0  0  0  0  0
    4.8301   -1.4930    0.0000 C   0  0  0  0  0  0  0  0  0  0  0  0
   26.1122    2.6051    0.0000 C   0  0  0  0  0  0  0  0  0  0  0  0
   25.0141   -1.4930    0.0000 C   0  0  0  0  0  0  0  0  0  0  0  0
   26.9782    1.1051    0.0000 C   0  0  0  0  0  0  0  0  0  0  0  0
   23.5141   -2.3590    0.0000 C   0  0  0  0  0  0  0  0  0  0  0  0
    2.0000    1.6051    0.0000 C   0  0  0  0  0  0  0  0  0  0  0  0
    5.8301   -3.2251    0.0000 C   0  0  0  0  0  0  0  0  0  0  0  0
    2.8660    3.1051    0.0000 C   0  0  0  0  0  0  0  0  0  0  0  0
    4.3301   -2.3590    0.0000 C   0  0  0  0  0  0  0  0  0  0  0  0
   26.9782    3.1051    0.0000 C   0  0  0  0  0  0  0  0  0  0  0  0
   25.5141   -2.3590    0.0000 C   0  0  0  0  0  0  0  0  0  0  0  0
   27.8443    1.6051    0.0000 C   0  0  0  0  0  0  0  0  0  0  0  0
   24.0141   -3.2251    0.0000 C   0  0  0  0  0  0  0  0  0  0  0  0
    2.0000    2.6051    0.0000 C   0  0  0  0  0  0  0  0  0  0  0  0
    4.8301   -3.2251    0.0000 C   0  0  0  0  0  0  0  0  0  0  0  0
   27.8443    2.6051    0.0000 C   0  0  0  0  0  0  0  0  0  0  0  0
   25.0141   -3.2251    0.0000 C   0  0  0  0  0  0  0  0  0  0  0  0
    8.0622    0.4851    0.0000 H   0  0  0  0  0  0  0  0  0  0  0  0
    6.7976    0.1301    0.0000 H   0  0  0  0  0  0  0  0  0  0  0  0
    7.5947    0.1301    0.0000 H   0  0  0  0  0  0  0  0  0  0  0  0
   11.5263    1.7251    0.0000 H   0  0  0  0  0  0  0  0  0  0  0  0
   21.7821    0.4851    0.0000 H   0  0  0  0  0  0  0  0  0  0  0  0
   22.2496    0.1301    0.0000 H   0  0  0  0  0  0  0  0  0  0  0  0
   23.0466    0.1301    0.0000 H   0  0  0  0  0  0  0  0  0  0  0  0
   16.3131    1.4991    0.0000 H   0  0  0  0  0  0  0  0  0  0  0  0
   11.5263   -1.5149    0.0000 H   0  0  0  0  0  0  0  0  0  0  0  0
   14.2385    1.6677    0.0000 H   0  0  0  0  0  0  0  0  0  0  0  0
   13.8418    2.4496    0.0000 H   0  0  0  0  0  0  0  0  0  0  0  0
   13.0599    2.0529    0.0000 H   0  0  0  0  0  0  0  0  0  0  0  0
    8.9282   -0.0149    0.0000 H   0  0  0  0  0  0  0  0  0  0  0  0
   10.1233   -0.7049    0.0000 H   0  0  0  0  0  0  0  0  0  0  0  0
   18.3180    1.7251    0.0000 H   0  0  0  0  0  0  0  0  0  0  0  0
   20.9161   -0.0149    0.0000 H   0  0  0  0  0  0  0  0  0  0  0  0
   18.3180   -1.5149    0.0000 H   0  0  0  0  0  0  0  0  0  0  0  0
   19.7209   -0.7049    0.0000 H   0  0  0  0  0  0  0  0  0  0  0  0
    4.1996    0.6301    0.0000 H   0  0  0  0  0  0  0  0  0  0  0  0
    4.9966    0.6301    0.0000 H   0  0  0  0  0  0  0  0  0  0  0  0
    6.8051   -1.0255    0.0000 H   0  0  0  0  0  0  0  0  0  0  0  0
    6.8051   -0.2285    0.0000 H   0  0  0  0  0  0  0  0  0  0  0  0
   24.8477    0.6301    0.0000 H   0  0  0  0  0  0  0  0  0  0  0  0
   25.6447    0.6301    0.0000 H   0  0  0  0  0  0  0  0  0  0  0  0
   23.0392   -0.2285    0.0000 H   0  0  0  0  0  0  0  0  0  0  0  0
   23.0392   -1.0255    0.0000 H   0  0  0  0  0  0  0  0  0  0  0  0
    7.1962    3.2251    0.0000 H   0  0  0  0  0  0  0  0  0  0  0  0
   22.6481    3.2251    0.0000 H   0  0  0  0  0  0  0  0  0  0  0  0
    2.8660    0.4851    0.0000 H   0  0  0  0  0  0  0  0  0  0  0  0
    6.9501   -2.3590    0.0000 H   0  0  0  0  0  0  0  0  0  0  0  0
    4.2690    2.9151    0.0000 H   0  0  0  0  0  0  0  0  0  0  0  0
    4.5201   -0.9561    0.0000 H   0  0  0  0  0  0  0  0  0  0  0  0
   25.5753    2.9151    0.0000 H   0  0  0  0  0  0  0  0  0  0  0  0
   25.3241   -0.9561    0.0000 H   0  0  0  0  0  0  0  0  0  0  0  0
   26.9782    0.4851    0.0000 H   0  0  0  0  0  0  0  0  0  0  0  0
   22.8941   -2.3590    0.0000 H   0  0  0  0  0  0  0  0  0  0  0  0
    1.4631    1.2951    0.0000 H   0  0  0  0  0  0  0  0  0  0  0  0
    6.1401   -3.7620    0.0000 H   0  0  0  0  0  0  0  0  0  0  0  0
    2.8660    3.7251    0.0000 H   0  0  0  0  0  0  0  0  0  0  0  0
    3.7101   -2.3590    0.0000 H   0  0  0  0  0  0  0  0  0  0  0  0
   26.9782    3.7251    0.0000 H   0  0  0  0  0  0  0  0  0  0  0  0
   26.1341   -2.3590    0.0000 H   0  0  0  0  0  0  0  0  0  0  0  0
   28.3812    1.2951    0.0000 H   0  0  0  0  0  0  0  0  0  0  0  0
   23.7041   -3.7620    0.0000 H   0  0  0  0  0  0  0  0  0  0  0  0
    1.4631    2.9151    0.0000 H   0  0  0  0  0  0  0  0  0  0  0  0
    4.5201   -3.7620    0.0000 H   0  0  0  0  0  0  0  0  0  0  0  0
   28.3812    2.9151    0.0000 H   0  0  0  0  0  0  0  0  0  0  0  0
   25.3241   -3.7620    0.0000 H   0  0  0  0  0  0  0  0  0  0  0  0
  1  5  1  0  0  0  0
  1  6  1  0  0  0  0
  1  9  2  0  0  0  0
  1 29  1  0  0  0  0
  2  7  1  0  0  0  0
  2  8  1  0  0  0  0
  2 10  2  0  0  0  0
  2 34  1  0  0  0  0
  3 25  1  0  0  0  0
  4 25  1  0  0  0  0
  5 47  1  0  0  0  0
  6 48  1  0  0  0  0
  7 49  1  0  0  0  0
  8 50  1  0  0  0  0
 11 39  2  0  0  0  0
 12 45  1  0  0  0  0
 12101  1  0  0  0  0
 13 43  2  0  0  0  0
 14 46  1  0  0  0  0
 14102  1  0  0  0  0
 15 45  2  0  0  0  0
 16 46  2  0  0  0  0
 17 23  1  0  0  0  0
 17 24  1  0  0  0  0
 17 37  1  0  0  0  0
 18 23  2  0  0  0  0
 18 26  1  0  0  0  0
 19 27  1  0  0  0  0
 19 33  1  0  0  0  0
 19 82  1  0  0  0  0
 20 28  1  0  0  0  0
 20 39  1  0  0  0  0
 20 87  1  0  0  0  0
 21 27  2  0  0  0  0
 21 35  1  0  0  0  0
 22 32  1  0  0  0  0
 22 43  1  0  0  0  0
 22 90  1  0  0  0  0
 23 25  1  0  0  0  0
 24 26  2  0  0  0  0
 24 30  1  0  0  0  0
 25 27  1  0  0  0  0
 26 36  1  0  0  0  0
 28 29  1  0  0  0  0
 28 45  1  0  0  0  0
 28 75  1  0  0  0  0
 29 76  1  0  0  0  0
 29 77  1  0  0  0  0
 30 31  2  0  0  0  0
 30 78  1  0  0  0  0
 31 38  1  0  0  0  0
 31 39  1  0  0  0  0
 32 34  1  0  0  0  0
 32 46  1  0  0  0  0
 32 79  1  0  0  0  0
 33 35  2  0  0  0  0
 33 41  1  0  0  0  0
 34 80  1  0  0  0  0
 34 81  1  0  0  0  0
 35 42  1  0  0  0  0
 36 38  2  0  0  0  0
 36 83  1  0  0  0  0
 37 84  1  0  0  0  0
 37 85  1  0  0  0  0
 37 86  1  0  0  0  0
 38 88  1  0  0  0  0
 40 41  2  0  0  0  0
 40 43  1  0  0  0  0
 40 44  1  0  0  0  0
 41 89  1  0  0  0  0
 42 44  2  0  0  0  0
 42 91  1  0  0  0  0
 44 92  1  0  0  0  0
 47 51  1  0  0  0  0
 47 93  1  0  0  0  0
 47 94  1  0  0  0  0
 48 52  1  0  0  0  0
 48 95  1  0  0  0  0
 48 96  1  0  0  0  0
 49 53  1  0  0  0  0
 49 97  1  0  0  0  0
 49 98  1  0  0  0  0
 50 54  1  0  0  0  0
 50 99  1  0  0  0  0
 50100  1  0  0  0  0
 51 55  2  0  0  0  0
 51 57  1  0  0  0  0
 52 56  2  0  0  0  0
 52 58  1  0  0  0  0
 53 59  2  0  0  0  0
 53 61  1  0  0  0  0
 54 60  2  0  0  0  0
 54 62  1  0  0  0  0
 55 63  1  0  0  0  0
 55103  1  0  0  0  0
 56 64  1  0  0  0  0
 56104  1  0  0  0  0
 57 65  2  0  0  0  0
 57105  1  0  0  0  0
 58 66  2  0  0  0  0
 58106  1  0  0  0  0
 59 67  1  0  0  0  0
 59107  1  0  0  0  0
 60 68  1  0  0  0  0
 60108  1  0  0  0  0
 61 69  2  0  0  0  0
 61109  1  0  0  0  0
 62 70  2  0  0  0  0
 62110  1  0  0  0  0
 63 71  2  0  0  0  0
 63111  1  0  0  0  0
 64 72  2  0  0  0  0
 64112  1  0  0  0  0
 65 71  1  0  0  0  0
 65113  1  0  0  0  0
 66 72  1  0  0  0  0
 66114  1  0  0  0  0
 67 73  2  0  0  0  0
 67115  1  0  0  0  0
 68 74  2  0  0  0  0
 68116  1  0  0  0  0
 69 73  1  0  0  0  0
 69117  1  0  0  0  0
 70 74  1  0  0  0  0
 70118  1  0  0  0  0
 71119  1  0  0  0  0
 72120  1  0  0  0  0
 73121  1  0  0  0  0
 74122  1  0  0  0  0
M  END
> <PUBCHEM_COMPOUND_CID>
501003
> <PUBCHEM_COMPOUND_CANONICALIZED>
1
> <PUBCHEM_CACTVS_COMPLEXITY>
1920
> <PUBCHEM_CACTVS_HBOND_ACCEPTOR>
16
> <PUBCHEM_CACTVS_HBOND_DONOR>
5
> <PUBCHEM_CACTVS_ROTATABLE_BOND>
24
> <PUBCHEM_CACTVS_SUBSKEYS>
AAADcfB/vYMAAAAAAAAAAAAAAAAAAWLAAAAwYMGDAAAAAFgB/gAAHwgQCCAADCjpnxYz2LfNkxCoQyfyfICCgC2lEqAJ2aG4fNiKbrLA3bGUcQhs1gPYyaecySCeCAAAQAAAACAQAACAAAAAQAAAAAAAAA==
> <PUBCHEM_IUPAC_OPENEYE_NAME>
2-[[2-[[6-[(1-carboxy-2-dibenzyloxyphosphoryl-ethyl)carbamoyl]-1-methyl-benzimidazol-2-yl]-difluoro-methyl]-3H-benzimidazole-5-carbonyl]amino]-3-dibenzyloxyphosphoryl-propanoic acid
> <PUBCHEM_IUPAC_CAS_NAME>
3-bis(phenylmethoxy)phosphoryl-2-[[[2-[[6-[[[2-bis(phenylmethoxy)phosphoryl-1-carboxyethyl]amino]-oxomethyl]-1-methyl-2-benzimidazolyl]-difluoromethyl]-3H-benzimidazol-5-yl]-oxomethyl]amino]propanoic acid
> <PUBCHEM_IUPAC_NAME_MARKUP>
3-bis(phenylmethoxy)phosphoryl-2-[[2-[[6-[[2-bis(phenylmethoxy)phosphoryl-1-carboxyethyl]carbamoyl]-1-methylbenzimidazol-2-yl]-difluoromethyl]-3<I>H</I>-benzimidazole-5-carbonyl]amino]propanoic acid
> <PUBCHEM_IUPAC_NAME>
3-bis(phenylmethoxy)phosphoryl-2-[[2-[[6-[[2-bis(phenylmethoxy)phosphoryl-1-carboxyethyl]carbamoyl]-1-methylbenzimidazol-2-yl]-difluoromethyl]-3H-benzimidazole-5-carbonyl]amino]propanoic acid
> <PUBCHEM_IUPAC_SYSTEMATIC_NAME>
3-bis(phenylmethoxy)phosphoryl-2-[[2-[[6-[[3-bis(phenylmethoxy)phosphoryl-1-oxidanyl-1-oxidanylidene-propan-2-yl]carbamoyl]-1-methyl-benzimidazol-2-yl]-bis(fluoranyl)methyl]-3H-benzimidazol-5-yl]carbonylamino]propanoic acid
> <PUBCHEM_IUPAC_TRADITIONAL_NAME>
2-[[2-[[6-[(1-carboxy-2-dibenzoxyphosphoryl-ethyl)carbamoyl]-1-methyl-benzimidazol-2-yl]-difluoro-methyl]-3H-benzimidazole-5-carbonyl]amino]-3-dibenzoxyphosphoryl-propionic acid
> <PUBCHEM_IUPAC_INCHI>
InChI=1S/C52H48F2N6O12P2/c1-60-45-27-39(47(62)56-44(49(65)66)33-74(68,71-30-36-18-10-4-11-19-36)72-31-37-20-12-5-13-21-37)23-25-41(45)59-51(60)52(53,54)50-57-40-24-22-38(26-42(40)58-50)46(61)55-43(48(63)64)32-73(67,69-28-34-14-6-2-7-15-34)70-29-35-16-8-3-9-17-35/h2-27,43-44H,28-33H2,1H3,(H,55,61)(H,56,62)(H,57,58)(H,63,64)(H,65,66)
> <PUBCHEM_IUPAC_INCHIKEY>
AVWOXLDVRVNNEM-UHFFFAOYSA-N
> <PUBCHEM_XLOGP3_AA>
5.5
> <PUBCHEM_EXACT_MASS>
1048.27735131
> <PUBCHEM_MOLECULAR_FORMULA>
C52H48F2N6O12P2
> <PUBCHEM_MOLECULAR_WEIGHT>
1048.9
> <PUBCHEM_OPENEYE_CAN_SMILES>
CN1C2=C(C=CC(=C2)C(=O)NC(CP(=O)(OCC3=CC=CC=C3)OCC4=CC=CC=C4)C(=O)O)N=C1C(C5=NC6=C(N5)C=C(C=C6)C(=O)NC(CP(=O)(OCC7=CC=CC=C7)OCC8=CC=CC=C8)C(=O)O)(F)F
> <PUBCHEM_OPENEYE_ISO_SMILES>
CN1C2=C(C=CC(=C2)C(=O)NC(CP(=O)(OCC3=CC=CC=C3)OCC4=CC=CC=C4)C(=O)O)N=C1C(C5=NC6=C(N5)C=C(C=C6)C(=O)NC(CP(=O)(OCC7=CC=CC=C7)OCC8=CC=CC=C8)C(=O)O)(F)F
> <PUBCHEM_CACTVS_TPSA>
250
> <PUBCHEM_MONOISOTOPIC_WEIGHT>
1048.27735131
> <PUBCHEM_TOTAL_CHARGE>
0
> <PUBCHEM_HEAVY_ATOM_COUNT>
74
> <PUBCHEM_ATOM_DEF_STEREO_COUNT>
0
> <PUBCHEM_ATOM_UDEF_STEREO_COUNT>
2
> <PUBCHEM_BOND_DEF_STEREO_COUNT>
0
> <PUBCHEM_BOND_UDEF_STEREO_COUNT>
0
> <PUBCHEM_ISOTOPIC_ATOM_COUNT>
0
> <PUBCHEM_COMPONENT_COUNT>
1
> <PUBCHEM_CACTVS_TAUTO_COUNT>
-1
> <PUBCHEM_COORDINATE_TYPE>
1
5
255
> <PUBCHEM_BONDANNOTATIONS>
17  23  8
17  24  8
18  23  8
18  26  8
19  27  8
19  33  8
21  27  8
21  35  8
24  26  8
24  30  8
26  36  8
28  29  3
30  31  8
31  38  8
32  34  3
33  35  8
33  41  8
35  42  8
36  38  8
40  41  8
40  44  8
42  44  8
51  55  8
51  57  8
52  56  8
52  58  8
53  59  8
53  61  8
54  60  8
54  62  8
55  63  8
56  64  8
57  65  8
58  66  8
59  67  8
60  68  8
61  69  8
62  70  8
63  71  8
64  72  8
65  71  8
66  72  8
67  73  8
68  74  8
69  73  8
70  74  8
$$$$
