501044
  -OEChem-10302200282D
 97102  0     1  0  0  0  0  0999 V2000
    9.7348    2.9724    0.0000 O   0  0  0  0  0  0  0  0  0  0  0  0
    5.3903   -0.6074    0.0000 O   0  0  0  0  0  0  0  0  0  0  0  0
    6.9726    0.0971    0.0000 O   0  0  0  0  0  0  0  0  0  0  0  0
    7.7861   -1.7300    0.0000 N   0  0  3  0  0  0  0  0  0  0  0  0
   10.2348    0.1064    0.0000 N   0  0  0  0  0  0  0  0  0  0  0  0
    9.3688   -1.3936    0.0000 C   0  0  2  0  0  0  0  0  0  0  0  0
    9.2642   -2.3881    0.0000 C   0  0  2  0  0  0  0  0  0  0  0  0
    8.4552   -0.9868    0.0000 C   0  0  0  0  0  0  0  0  0  0  0  0
    8.2861   -2.5960    0.0000 C   0  0  0  0  0  0  0  0  0  0  0  0
    6.7916   -1.6254    0.0000 C   0  0  2  0  0  0  0  0  0  0  0  0
    6.2038   -2.4345    0.0000 C   0  0  0  0  0  0  0  0  0  0  0  0
   10.2348   -0.8936    0.0000 C   0  0  0  0  0  0  0  0  0  0  0  0
    5.2092   -2.3299    0.0000 C   0  0  0  0  0  0  0  0  0  0  0  0
    6.6105   -3.3480    0.0000 C   0  0  0  0  0  0  0  0  0  0  0  0
   10.2348    2.1064    0.0000 C   0  0  0  0  0  0  0  0  0  0  0  0
   10.0074   -3.0572    0.0000 C   0  0  0  0  0  0  0  0  0  0  0  0
    9.3688    0.6064    0.0000 C   0  0  0  0  0  0  0  0  0  0  0  0
   11.1008    0.6064    0.0000 C   0  0  0  0  0  0  0  0  0  0  0  0
    9.3688    1.6064    0.0000 C   0  0  0  0  0  0  0  0  0  0  0  0
   11.1008    1.6064    0.0000 C   0  0  0  0  0  0  0  0  0  0  0  0
    4.6215   -3.1390    0.0000 C   0  0  0  0  0  0  0  0  0  0  0  0
    6.0227   -4.1570    0.0000 C   0  0  0  0  0  0  0  0  0  0  0  0
    5.0282   -4.0525    0.0000 C   0  0  0  0  0  0  0  0  0  0  0  0
    6.3848   -0.7119    0.0000 C   0  0  0  0  0  0  0  0  0  0  0  0
   10.7348    2.9724    0.0000 C   0  0  0  0  0  0  0  0  0  0  0  0
   10.9584   -2.7482    0.0000 C   0  0  0  0  0  0  0  0  0  0  0  0
    9.7995   -4.0354    0.0000 C   0  0  0  0  0  0  0  0  0  0  0  0
   11.7348    2.9724    0.0000 C   0  0  0  0  0  0  0  0  0  0  0  0
   11.7016   -3.4173    0.0000 C   0  0  0  0  0  0  0  0  0  0  0  0
   10.5426   -4.7045    0.0000 C   0  0  0  0  0  0  0  0  0  0  0  0
   12.2348    3.8385    0.0000 C   0  0  0  0  0  0  0  0  0  0  0  0
   11.4937   -4.3955    0.0000 C   0  0  0  0  0  0  0  0  0  0  0  0
    4.9836    0.3062    0.0000 C   0  0  0  0  0  0  0  0  0  0  0  0
   13.2348    3.8385    0.0000 C   0  0  0  0  0  0  0  0  0  0  0  0
    3.9890    0.4107    0.0000 C   0  0  0  0  0  0  0  0  0  0  0  0
   13.7348    4.7045    0.0000 C   0  0  0  0  0  0  0  0  0  0  0  0
   13.7348    2.9724    0.0000 C   0  0  0  0  0  0  0  0  0  0  0  0
    3.4013   -0.3983    0.0000 C   0  0  0  0  0  0  0  0  0  0  0  0
    3.5823    1.3242    0.0000 C   0  0  0  0  0  0  0  0  0  0  0  0
   14.7348    4.7045    0.0000 C   0  0  0  0  0  0  0  0  0  0  0  0
   14.7348    2.9724    0.0000 C   0  0  0  0  0  0  0  0  0  0  0  0
   15.2348    3.8385    0.0000 C   0  0  0  0  0  0  0  0  0  0  0  0
    2.4067   -0.2938    0.0000 C   0  0  0  0  0  0  0  0  0  0  0  0
    2.5878    1.4288    0.0000 C   0  0  0  0  0  0  0  0  0  0  0  0
    2.0000    0.6198    0.0000 C   0  0  0  0  0  0  0  0  0  0  0  0
    9.8887   -1.7312    0.0000 H   0  0  0  0  0  0  0  0  0  0  0  0
    9.8430   -2.1659    0.0000 H   0  0  0  0  0  0  0  0  0  0  0  0
    8.7652   -0.4499    0.0000 H   0  0  0  0  0  0  0  0  0  0  0  0
    7.9536   -0.6224    0.0000 H   0  0  0  0  0  0  0  0  0  0  0  0
    7.7197   -2.8482    0.0000 H   0  0  0  0  0  0  0  0  0  0  0  0
    8.4777   -3.1857    0.0000 H   0  0  0  0  0  0  0  0  0  0  0  0
    7.1560   -1.1239    0.0000 H   0  0  0  0  0  0  0  0  0  0  0  0
    5.9516   -1.8681    0.0000 H   0  0  0  0  0  0  0  0  0  0  0  0
   10.4468   -1.4762    0.0000 H   0  0  0  0  0  0  0  0  0  0  0  0
   10.8454   -0.7859    0.0000 H   0  0  0  0  0  0  0  0  0  0  0  0
    5.3802   -1.7340    0.0000 H   0  0  0  0  0  0  0  0  0  0  0  0
    4.6520   -2.0582    0.0000 H   0  0  0  0  0  0  0  0  0  0  0  0
    7.0412   -3.7940    0.0000 H   0  0  0  0  0  0  0  0  0  0  0  0
    7.1245   -3.0013    0.0000 H   0  0  0  0  0  0  0  0  0  0  0  0
    8.7582    0.7141    0.0000 H   0  0  0  0  0  0  0  0  0  0  0  0
    9.1567    0.0238    0.0000 H   0  0  0  0  0  0  0  0  0  0  0  0
   11.3129    0.0238    0.0000 H   0  0  0  0  0  0  0  0  0  0  0  0
   11.7114    0.7141    0.0000 H   0  0  0  0  0  0  0  0  0  0  0  0
    9.1567    2.1890    0.0000 H   0  0  0  0  0  0  0  0  0  0  0  0
    8.7582    1.4988    0.0000 H   0  0  0  0  0  0  0  0  0  0  0  0
   11.7114    1.4988    0.0000 H   0  0  0  0  0  0  0  0  0  0  0  0
   11.3129    2.1890    0.0000 H   0  0  0  0  0  0  0  0  0  0  0  0
    4.1908   -2.6930    0.0000 H   0  0  0  0  0  0  0  0  0  0  0  0
    4.1075   -3.4857    0.0000 H   0  0  0  0  0  0  0  0  0  0  0  0
    5.8518   -4.7530    0.0000 H   0  0  0  0  0  0  0  0  0  0  0  0
    6.5800   -4.4288    0.0000 H   0  0  0  0  0  0  0  0  0  0  0  0
    4.4266   -4.2025    0.0000 H   0  0  0  0  0  0  0  0  0  0  0  0
    5.0714   -4.6710    0.0000 H   0  0  0  0  0  0  0  0  0  0  0  0
   10.8424    3.5830    0.0000 H   0  0  0  0  0  0  0  0  0  0  0  0
   10.1522    3.1845    0.0000 H   0  0  0  0  0  0  0  0  0  0  0  0
   11.0873   -2.1418    0.0000 H   0  0  0  0  0  0  0  0  0  0  0  0
    9.2098   -4.2270    0.0000 H   0  0  0  0  0  0  0  0  0  0  0  0
   11.6271    2.3619    0.0000 H   0  0  0  0  0  0  0  0  0  0  0  0
   12.3174    2.7604    0.0000 H   0  0  0  0  0  0  0  0  0  0  0  0
    9.1148    2.9724    0.0000 H   0  0  0  0  0  0  0  0  0  0  0  0
   12.2912   -3.2258    0.0000 H   0  0  0  0  0  0  0  0  0  0  0  0
   10.4137   -5.3110    0.0000 H   0  0  0  0  0  0  0  0  0  0  0  0
   12.3424    4.4491    0.0000 H   0  0  0  0  0  0  0  0  0  0  0  0
   11.6522    4.0505    0.0000 H   0  0  0  0  0  0  0  0  0  0  0  0
   11.9544   -4.8104    0.0000 H   0  0  0  0  0  0  0  0  0  0  0  0
    5.5851    0.4562    0.0000 H   0  0  0  0  0  0  0  0  0  0  0  0
    4.9403    0.9247    0.0000 H   0  0  0  0  0  0  0  0  0  0  0  0
   13.4248    5.2414    0.0000 H   0  0  0  0  0  0  0  0  0  0  0  0
   13.4248    2.4355    0.0000 H   0  0  0  0  0  0  0  0  0  0  0  0
    3.6534   -0.9647    0.0000 H   0  0  0  0  0  0  0  0  0  0  0  0
    3.9467    1.8258    0.0000 H   0  0  0  0  0  0  0  0  0  0  0  0
   15.0448    5.2414    0.0000 H   0  0  0  0  0  0  0  0  0  0  0  0
   15.0448    2.4355    0.0000 H   0  0  0  0  0  0  0  0  0  0  0  0
   15.8548    3.8385    0.0000 H   0  0  0  0  0  0  0  0  0  0  0  0
    2.0423   -0.7954    0.0000 H   0  0  0  0  0  0  0  0  0  0  0  0
    2.3356    1.9952    0.0000 H   0  0  0  0  0  0  0  0  0  0  0  0
    1.3834    0.6846    0.0000 H   0  0  0  0  0  0  0  0  0  0  0  0
  1 15  1  0  0  0  0
  1 80  1  0  0  0  0
  2 24  1  0  0  0  0
  2 33  1  0  0  0  0
  3 24  2  0  0  0  0
  4  8  1  0  0  0  0
  4  9  1  0  0  0  0
  4 10  1  0  0  0  0
  5 12  1  0  0  0  0
  5 17  1  0  0  0  0
  5 18  1  0  0  0  0
  6  7  1  0  0  0  0
  6  8  1  0  0  0  0
  6 12  1  6  0  0  0
  6 46  1  0  0  0  0
  7  9  1  0  0  0  0
  7 16  1  1  0  0  0
  7 47  1  0  0  0  0
  8 48  1  0  0  0  0
  8 49  1  0  0  0  0
  9 50  1  0  0  0  0
  9 51  1  0  0  0  0
 10 11  1  0  0  0  0
 10 24  1  6  0  0  0
 10 52  1  0  0  0  0
 11 13  1  0  0  0  0
 11 14  1  0  0  0  0
 11 53  1  0  0  0  0
 12 54  1  0  0  0  0
 12 55  1  0  0  0  0
 13 21  1  0  0  0  0
 13 56  1  0  0  0  0
 13 57  1  0  0  0  0
 14 22  1  0  0  0  0
 14 58  1  0  0  0  0
 14 59  1  0  0  0  0
 15 19  1  0  0  0  0
 15 20  1  0  0  0  0
 15 25  1  0  0  0  0
 16 26  2  0  0  0  0
 16 27  1  0  0  0  0
 17 19  1  0  0  0  0
 17 60  1  0  0  0  0
 17 61  1  0  0  0  0
 18 20  1  0  0  0  0
 18 62  1  0  0  0  0
 18 63  1  0  0  0  0
 19 64  1  0  0  0  0
 19 65  1  0  0  0  0
 20 66  1  0  0  0  0
 20 67  1  0  0  0  0
 21 23  1  0  0  0  0
 21 68  1  0  0  0  0
 21 69  1  0  0  0  0
 22 23  1  0  0  0  0
 22 70  1  0  0  0  0
 22 71  1  0  0  0  0
 23 72  1  0  0  0  0
 23 73  1  0  0  0  0
 25 28  1  0  0  0  0
 25 74  1  0  0  0  0
 25 75  1  0  0  0  0
 26 29  1  0  0  0  0
 26 76  1  0  0  0  0
 27 30  2  0  0  0  0
 27 77  1  0  0  0  0
 28 31  1  0  0  0  0
 28 78  1  0  0  0  0
 28 79  1  0  0  0  0
 29 32  2  0  0  0  0
 29 81  1  0  0  0  0
 30 32  1  0  0  0  0
 30 82  1  0  0  0  0
 31 34  1  0  0  0  0
 31 83  1  0  0  0  0
 31 84  1  0  0  0  0
 32 85  1  0  0  0  0
 33 35  1  0  0  0  0
 33 86  1  0  0  0  0
 33 87  1  0  0  0  0
 34 36  2  0  0  0  0
 34 37  1  0  0  0  0
 35 38  2  0  0  0  0
 35 39  1  0  0  0  0
 36 40  1  0  0  0  0
 36 88  1  0  0  0  0
 37 41  2  0  0  0  0
 37 89  1  0  0  0  0
 38 43  1  0  0  0  0
 38 90  1  0  0  0  0
 39 44  2  0  0  0  0
 39 91  1  0  0  0  0
 40 42  2  0  0  0  0
 40 92  1  0  0  0  0
 41 42  1  0  0  0  0
 41 93  1  0  0  0  0
 42 94  1  0  0  0  0
 43 45  2  0  0  0  0
 43 95  1  0  0  0  0
 44 45  1  0  0  0  0
 44 96  1  0  0  0  0
 45 97  1  0  0  0  0
M  END
> <PUBCHEM_COMPOUND_CID>
501044
> <PUBCHEM_COMPOUND_CANONICALIZED>
1
> <PUBCHEM_CACTVS_COMPLEXITY>
863
> <PUBCHEM_CACTVS_HBOND_ACCEPTOR>
5
> <PUBCHEM_CACTVS_HBOND_DONOR>
1
> <PUBCHEM_CACTVS_ROTATABLE_BOND>
13
> <PUBCHEM_CACTVS_SUBSKEYS>
AAADcfB/MAAAAAAAAAAAAAAAAAAAAWAAAAA8YMGCAAAAAAABUAAAHgAACAAADWzhmAYwCIMABgCIAiDSCAACAAAgAAAIiAGICIgKJjKA8TmHcAAmwAGYqAeYyPCOgAAAAAAAAAAAAAAAAAAAAAAAAAAAAA==
> <PUBCHEM_IUPAC_OPENEYE_NAME>
benzyl (2R)-2-cyclohexyl-2-[(3S,4S)-3-[[4-hydroxy-4-(3-phenylpropyl)-1-piperidyl]methyl]-4-phenyl-pyrrolidin-1-yl]acetate
> <PUBCHEM_IUPAC_CAS_NAME>
(2R)-2-cyclohexyl-2-[(3S,4S)-3-[[4-hydroxy-4-(3-phenylpropyl)-1-piperidinyl]methyl]-4-phenyl-1-pyrrolidinyl]acetic acid (phenylmethyl) ester
> <PUBCHEM_IUPAC_NAME_MARKUP>
benzyl (2<I>R</I>)-2-cyclohexyl-2-[(3<I>S</I>,4<I>S</I>)-3-[[4-hydroxy-4-(3-phenylpropyl)piperidin-1-yl]methyl]-4-phenylpyrrolidin-1-yl]acetate
> <PUBCHEM_IUPAC_NAME>
benzyl (2R)-2-cyclohexyl-2-[(3S,4S)-3-[[4-hydroxy-4-(3-phenylpropyl)piperidin-1-yl]methyl]-4-phenylpyrrolidin-1-yl]acetate
> <PUBCHEM_IUPAC_SYSTEMATIC_NAME>
(phenylmethyl) (2R)-2-cyclohexyl-2-[(3S,4S)-3-[[4-oxidanyl-4-(3-phenylpropyl)piperidin-1-yl]methyl]-4-phenyl-pyrrolidin-1-yl]ethanoate
> <PUBCHEM_IUPAC_TRADITIONAL_NAME>
(2R)-2-cyclohexyl-2-[(3S,4S)-3-[[4-hydroxy-4-(3-phenylpropyl)piperidino]methyl]-4-phenyl-pyrrolidino]acetic acid benzyl ester
> <PUBCHEM_IUPAC_INCHI>
InChI=1S/C40H52N2O3/c43-39(45-31-33-16-7-2-8-17-33)38(35-21-11-4-12-22-35)42-29-36(37(30-42)34-19-9-3-10-20-34)28-41-26-24-40(44,25-27-41)23-13-18-32-14-5-1-6-15-32/h1-3,5-10,14-17,19-20,35-38,44H,4,11-13,18,21-31H2/t36-,37+,38+/m0/s1
> <PUBCHEM_IUPAC_INCHIKEY>
MWARYVUQVJIHTP-YXWIYCFASA-N
> <PUBCHEM_XLOGP3_AA>
8.3
> <PUBCHEM_EXACT_MASS>
608.39779352
> <PUBCHEM_MOLECULAR_FORMULA>
C40H52N2O3
> <PUBCHEM_MOLECULAR_WEIGHT>
608.9
> <PUBCHEM_OPENEYE_CAN_SMILES>
C1CCC(CC1)C(C(=O)OCC2=CC=CC=C2)N3CC(C(C3)C4=CC=CC=C4)CN5CCC(CC5)(CCCC6=CC=CC=C6)O
> <PUBCHEM_OPENEYE_ISO_SMILES>
C1CCC(CC1)[C@H](C(=O)OCC2=CC=CC=C2)N3C[C@@H]([C@H](C3)C4=CC=CC=C4)CN5CCC(CC5)(CCCC6=CC=CC=C6)O
> <PUBCHEM_CACTVS_TPSA>
53
> <PUBCHEM_MONOISOTOPIC_WEIGHT>
608.39779352
> <PUBCHEM_TOTAL_CHARGE>
0
> <PUBCHEM_HEAVY_ATOM_COUNT>
45
> <PUBCHEM_ATOM_DEF_STEREO_COUNT>
3
> <PUBCHEM_ATOM_UDEF_STEREO_COUNT>
0
> <PUBCHEM_BOND_DEF_STEREO_COUNT>
0
> <PUBCHEM_BOND_UDEF_STEREO_COUNT>
0
> <PUBCHEM_ISOTOPIC_ATOM_COUNT>
0
> <PUBCHEM_COMPONENT_COUNT>
1
> <PUBCHEM_CACTVS_TAUTO_COUNT>
-1
> <PUBCHEM_COORDINATE_TYPE>
1
5
255
> <PUBCHEM_BONDANNOTATIONS>
10  24  6
16  26  8
16  27  8
26  29  8
27  30  8
29  32  8
30  32  8
34  36  8
34  37  8
35  38  8
35  39  8
36  40  8
37  41  8
38  43  8
39  44  8
40  42  8
41  42  8
43  45  8
44  45  8
6  12  6
7  16  5
$$$$
