501052
  -OEChem-10302200282D
 77 80  0     1  0  0  0  0  0999 V2000
    6.8900    2.9724    0.0000 O   0  0  0  0  0  0  0  0  0  0  0  0
    2.3644   -2.3299    0.0000 O   0  0  0  0  0  0  0  0  0  0  0  0
    3.7657   -3.3480    0.0000 O   0  0  0  0  0  0  0  0  0  0  0  0
    4.9413   -1.7300    0.0000 N   0  0  3  0  0  0  0  0  0  0  0  0
    7.3900    0.1064    0.0000 N   0  0  0  0  0  0  0  0  0  0  0  0
    6.5239   -1.3936    0.0000 C   0  0  2  0  0  0  0  0  0  0  0  0
    6.4194   -2.3881    0.0000 C   0  0  2  0  0  0  0  0  0  0  0  0
    5.6104   -0.9868    0.0000 C   0  0  0  0  0  0  0  0  0  0  0  0
    7.3900   -0.8936    0.0000 C   0  0  0  0  0  0  0  0  0  0  0  0
    5.4413   -2.5960    0.0000 C   0  0  0  0  0  0  0  0  0  0  0  0
    7.3900    2.1064    0.0000 C   0  0  0  0  0  0  0  0  0  0  0  0
    8.2560    0.6064    0.0000 C   0  0  0  0  0  0  0  0  0  0  0  0
    6.5239    0.6064    0.0000 C   0  0  0  0  0  0  0  0  0  0  0  0
    3.9467   -1.6254    0.0000 C   0  0  2  0  0  0  0  0  0  0  0  0
    8.2560    1.6064    0.0000 C   0  0  0  0  0  0  0  0  0  0  0  0
    6.5239    1.6064    0.0000 C   0  0  0  0  0  0  0  0  0  0  0  0
    7.1626   -3.0572    0.0000 C   0  0  0  0  0  0  0  0  0  0  0  0
    7.8900    2.9724    0.0000 C   0  0  0  0  0  0  0  0  0  0  0  0
    3.5400   -0.7119    0.0000 C   0  0  0  0  0  0  0  0  0  0  0  0
    8.8900    2.9724    0.0000 C   0  0  0  0  0  0  0  0  0  0  0  0
    3.3590   -2.4345    0.0000 C   0  0  0  0  0  0  0  0  0  0  0  0
    6.9546   -4.0354    0.0000 C   0  0  0  0  0  0  0  0  0  0  0  0
    8.1136   -2.7482    0.0000 C   0  0  0  0  0  0  0  0  0  0  0  0
    2.5455   -0.6074    0.0000 C   0  0  0  0  0  0  0  0  0  0  0  0
    4.1278    0.0971    0.0000 C   0  0  0  0  0  0  0  0  0  0  0  0
    9.3900    3.8385    0.0000 C   0  0  0  0  0  0  0  0  0  0  0  0
    7.6978   -4.7045    0.0000 C   0  0  0  0  0  0  0  0  0  0  0  0
    8.8568   -3.4173    0.0000 C   0  0  0  0  0  0  0  0  0  0  0  0
    8.6488   -4.3955    0.0000 C   0  0  0  0  0  0  0  0  0  0  0  0
   10.3900    3.8385    0.0000 C   0  0  0  0  0  0  0  0  0  0  0  0
   10.8900    2.9724    0.0000 C   0  0  0  0  0  0  0  0  0  0  0  0
   10.8900    4.7045    0.0000 C   0  0  0  0  0  0  0  0  0  0  0  0
   11.8900    2.9724    0.0000 C   0  0  0  0  0  0  0  0  0  0  0  0
   11.8900    4.7045    0.0000 C   0  0  0  0  0  0  0  0  0  0  0  0
   12.3900    3.8385    0.0000 C   0  0  0  0  0  0  0  0  0  0  0  0
    6.4915   -0.7744    0.0000 H   0  0  0  0  0  0  0  0  0  0  0  0
    6.2589   -2.9870    0.0000 H   0  0  0  0  0  0  0  0  0  0  0  0
    5.9204   -0.4499    0.0000 H   0  0  0  0  0  0  0  0  0  0  0  0
    5.1088   -0.6224    0.0000 H   0  0  0  0  0  0  0  0  0  0  0  0
    7.6020   -1.4762    0.0000 H   0  0  0  0  0  0  0  0  0  0  0  0
    8.0005   -0.7859    0.0000 H   0  0  0  0  0  0  0  0  0  0  0  0
    4.8749   -2.8482    0.0000 H   0  0  0  0  0  0  0  0  0  0  0  0
    5.6328   -3.1857    0.0000 H   0  0  0  0  0  0  0  0  0  0  0  0
    8.4680    0.0238    0.0000 H   0  0  0  0  0  0  0  0  0  0  0  0
    8.8666    0.7141    0.0000 H   0  0  0  0  0  0  0  0  0  0  0  0
    5.9134    0.7141    0.0000 H   0  0  0  0  0  0  0  0  0  0  0  0
    6.3119    0.0238    0.0000 H   0  0  0  0  0  0  0  0  0  0  0  0
    4.1989   -2.1918    0.0000 H   0  0  0  0  0  0  0  0  0  0  0  0
    8.8666    1.4988    0.0000 H   0  0  0  0  0  0  0  0  0  0  0  0
    8.4680    2.1890    0.0000 H   0  0  0  0  0  0  0  0  0  0  0  0
    6.3119    2.1890    0.0000 H   0  0  0  0  0  0  0  0  0  0  0  0
    5.9134    1.4988    0.0000 H   0  0  0  0  0  0  0  0  0  0  0  0
    7.9976    3.5830    0.0000 H   0  0  0  0  0  0  0  0  0  0  0  0
    7.3074    3.1845    0.0000 H   0  0  0  0  0  0  0  0  0  0  0  0
    3.2878   -0.1455    0.0000 H   0  0  0  0  0  0  0  0  0  0  0  0
    8.7823    2.3619    0.0000 H   0  0  0  0  0  0  0  0  0  0  0  0
    9.4726    2.7604    0.0000 H   0  0  0  0  0  0  0  0  0  0  0  0
    6.3650   -4.2270    0.0000 H   0  0  0  0  0  0  0  0  0  0  0  0
    8.2425   -2.1418    0.0000 H   0  0  0  0  0  0  0  0  0  0  0  0
    6.2700    2.9724    0.0000 H   0  0  0  0  0  0  0  0  0  0  0  0
    2.6103    0.0092    0.0000 H   0  0  0  0  0  0  0  0  0  0  0  0
    1.9289   -0.5426    0.0000 H   0  0  0  0  0  0  0  0  0  0  0  0
    2.4807   -1.2240    0.0000 H   0  0  0  0  0  0  0  0  0  0  0  0
    4.6294   -0.2673    0.0000 H   0  0  0  0  0  0  0  0  0  0  0  0
    4.4922    0.5987    0.0000 H   0  0  0  0  0  0  0  0  0  0  0  0
    3.6262    0.4615    0.0000 H   0  0  0  0  0  0  0  0  0  0  0  0
    9.4976    4.4491    0.0000 H   0  0  0  0  0  0  0  0  0  0  0  0
    8.8074    4.0505    0.0000 H   0  0  0  0  0  0  0  0  0  0  0  0
    7.5689   -5.3110    0.0000 H   0  0  0  0  0  0  0  0  0  0  0  0
    9.4464   -3.2258    0.0000 H   0  0  0  0  0  0  0  0  0  0  0  0
    9.1096   -4.8104    0.0000 H   0  0  0  0  0  0  0  0  0  0  0  0
    2.0000   -2.8315    0.0000 H   0  0  0  0  0  0  0  0  0  0  0  0
   10.5800    2.4355    0.0000 H   0  0  0  0  0  0  0  0  0  0  0  0
   10.5800    5.2414    0.0000 H   0  0  0  0  0  0  0  0  0  0  0  0
   12.2000    2.4355    0.0000 H   0  0  0  0  0  0  0  0  0  0  0  0
   12.2000    5.2414    0.0000 H   0  0  0  0  0  0  0  0  0  0  0  0
   13.0100    3.8385    0.0000 H   0  0  0  0  0  0  0  0  0  0  0  0
  1 11  1  0  0  0  0
  1 60  1  0  0  0  0
  2 21  1  0  0  0  0
  2 72  1  0  0  0  0
  3 21  2  0  0  0  0
  4  8  1  0  0  0  0
  4 10  1  0  0  0  0
  4 14  1  0  0  0  0
  5  9  1  0  0  0  0
  5 12  1  0  0  0  0
  5 13  1  0  0  0  0
  6  7  1  0  0  0  0
  6  8  1  0  0  0  0
  6  9  1  6  0  0  0
  6 36  1  0  0  0  0
  7 10  1  0  0  0  0
  7 17  1  1  0  0  0
  7 37  1  0  0  0  0
  8 38  1  0  0  0  0
  8 39  1  0  0  0  0
  9 40  1  0  0  0  0
  9 41  1  0  0  0  0
 10 42  1  0  0  0  0
 10 43  1  0  0  0  0
 11 15  1  0  0  0  0
 11 16  1  0  0  0  0
 11 18  1  0  0  0  0
 12 15  1  0  0  0  0
 12 44  1  0  0  0  0
 12 45  1  0  0  0  0
 13 16  1  0  0  0  0
 13 46  1  0  0  0  0
 13 47  1  0  0  0  0
 14 19  1  0  0  0  0
 14 21  1  1  0  0  0
 14 48  1  0  0  0  0
 15 49  1  0  0  0  0
 15 50  1  0  0  0  0
 16 51  1  0  0  0  0
 16 52  1  0  0  0  0
 17 22  2  0  0  0  0
 17 23  1  0  0  0  0
 18 20  1  0  0  0  0
 18 53  1  0  0  0  0
 18 54  1  0  0  0  0
 19 24  1  0  0  0  0
 19 25  1  0  0  0  0
 19 55  1  0  0  0  0
 20 26  1  0  0  0  0
 20 56  1  0  0  0  0
 20 57  1  0  0  0  0
 22 27  1  0  0  0  0
 22 58  1  0  0  0  0
 23 28  2  0  0  0  0
 23 59  1  0  0  0  0
 24 61  1  0  0  0  0
 24 62  1  0  0  0  0
 24 63  1  0  0  0  0
 25 64  1  0  0  0  0
 25 65  1  0  0  0  0
 25 66  1  0  0  0  0
 26 30  1  0  0  0  0
 26 67  1  0  0  0  0
 26 68  1  0  0  0  0
 27 29  2  0  0  0  0
 27 69  1  0  0  0  0
 28 29  1  0  0  0  0
 28 70  1  0  0  0  0
 29 71  1  0  0  0  0
 30 31  2  0  0  0  0
 30 32  1  0  0  0  0
 31 33  1  0  0  0  0
 31 73  1  0  0  0  0
 32 34  2  0  0  0  0
 32 74  1  0  0  0  0
 33 35  2  0  0  0  0
 33 75  1  0  0  0  0
 34 35  1  0  0  0  0
 34 76  1  0  0  0  0
 35 77  1  0  0  0  0
M  END
> <PUBCHEM_COMPOUND_CID>
501052
> <PUBCHEM_COMPOUND_CANONICALIZED>
1
> <PUBCHEM_CACTVS_COMPLEXITY>
648
> <PUBCHEM_CACTVS_HBOND_ACCEPTOR>
5
> <PUBCHEM_CACTVS_HBOND_DONOR>
2
> <PUBCHEM_CACTVS_ROTATABLE_BOND>
10
> <PUBCHEM_CACTVS_SUBSKEYS>
AAADcfB7MAAAAAAAAAAAAAAAAAAAAWAAAAA8YIAAAAAAAAABQAAAHgAACAAADWzBmAQyCIMAAgCIAiDSCAACAAAgAAAIiAGIAIgKIDKA0TGEYAAmgACYiAeQwPAOgAAAAAAAAAAAAAAAAAAAAAAAAAAAAA==
> <PUBCHEM_IUPAC_OPENEYE_NAME>
(2R)-2-[(3S,4S)-3-[[4-hydroxy-4-(3-phenylpropyl)-1-piperidyl]methyl]-4-phenyl-pyrrolidin-1-yl]-3-methyl-butanoic acid
> <PUBCHEM_IUPAC_CAS_NAME>
(2R)-2-[(3S,4S)-3-[[4-hydroxy-4-(3-phenylpropyl)-1-piperidinyl]methyl]-4-phenyl-1-pyrrolidinyl]-3-methylbutanoic acid
> <PUBCHEM_IUPAC_NAME_MARKUP>
(2<I>R</I>)-2-[(3<I>S</I>,4<I>S</I>)-3-[[4-hydroxy-4-(3-phenylpropyl)piperidin-1-yl]methyl]-4-phenylpyrrolidin-1-yl]-3-methylbutanoic acid
> <PUBCHEM_IUPAC_NAME>
(2R)-2-[(3S,4S)-3-[[4-hydroxy-4-(3-phenylpropyl)piperidin-1-yl]methyl]-4-phenylpyrrolidin-1-yl]-3-methylbutanoic acid
> <PUBCHEM_IUPAC_SYSTEMATIC_NAME>
(2R)-3-methyl-2-[(3S,4S)-3-[[4-oxidanyl-4-(3-phenylpropyl)piperidin-1-yl]methyl]-4-phenyl-pyrrolidin-1-yl]butanoic acid
> <PUBCHEM_IUPAC_TRADITIONAL_NAME>
(2R)-2-[(3S,4S)-3-[[4-hydroxy-4-(3-phenylpropyl)piperidino]methyl]-4-phenyl-pyrrolidino]-3-methyl-butyric acid
> <PUBCHEM_IUPAC_INCHI>
InChI=1S/C30H42N2O3/c1-23(2)28(29(33)34)32-21-26(27(22-32)25-13-7-4-8-14-25)20-31-18-16-30(35,17-19-31)15-9-12-24-10-5-3-6-11-24/h3-8,10-11,13-14,23,26-28,35H,9,12,15-22H2,1-2H3,(H,33,34)/t26-,27+,28+/m0/s1
> <PUBCHEM_IUPAC_INCHIKEY>
JWVCFPSKCYJGBK-UPRLRBBYSA-N
> <PUBCHEM_XLOGP3_AA>
3.1
> <PUBCHEM_EXACT_MASS>
478.31954321
> <PUBCHEM_MOLECULAR_FORMULA>
C30H42N2O3
> <PUBCHEM_MOLECULAR_WEIGHT>
478.7
> <PUBCHEM_OPENEYE_CAN_SMILES>
CC(C)C(C(=O)O)N1CC(C(C1)C2=CC=CC=C2)CN3CCC(CC3)(CCCC4=CC=CC=C4)O
> <PUBCHEM_OPENEYE_ISO_SMILES>
CC(C)[C@H](C(=O)O)N1C[C@@H]([C@H](C1)C2=CC=CC=C2)CN3CCC(CC3)(CCCC4=CC=CC=C4)O
> <PUBCHEM_CACTVS_TPSA>
64
> <PUBCHEM_MONOISOTOPIC_WEIGHT>
478.31954321
> <PUBCHEM_TOTAL_CHARGE>
0
> <PUBCHEM_HEAVY_ATOM_COUNT>
35
> <PUBCHEM_ATOM_DEF_STEREO_COUNT>
3
> <PUBCHEM_ATOM_UDEF_STEREO_COUNT>
0
> <PUBCHEM_BOND_DEF_STEREO_COUNT>
0
> <PUBCHEM_BOND_UDEF_STEREO_COUNT>
0
> <PUBCHEM_ISOTOPIC_ATOM_COUNT>
0
> <PUBCHEM_COMPONENT_COUNT>
1
> <PUBCHEM_CACTVS_TAUTO_COUNT>
-1
> <PUBCHEM_COORDINATE_TYPE>
1
5
255
> <PUBCHEM_BONDANNOTATIONS>
14  21  5
17  22  8
17  23  8
22  27  8
23  28  8
27  29  8
28  29  8
30  31  8
30  32  8
31  33  8
32  34  8
33  35  8
34  35  8
6  9  6
7  17  5
$$$$
