501061
  -OEChem-10302200282D
 79 82  0     1  0  0  0  0  0999 V2000
    2.4067   -3.2809    0.0000 O   0  0  0  0  0  0  0  0  0  0  0  0
    3.8080   -4.2990    0.0000 O   0  0  0  0  0  0  0  0  0  0  0  0
    4.9836   -2.6809    0.0000 N   0  0  3  0  0  0  0  0  0  0  0  0
    7.4323   -0.8445    0.0000 N   0  0  0  0  0  0  0  0  0  0  0  0
    6.5662   -2.3445    0.0000 C   0  0  2  0  0  0  0  0  0  0  0  0
    6.4617   -3.3391    0.0000 C   0  0  2  0  0  0  0  0  0  0  0  0
    5.6527   -1.9378    0.0000 C   0  0  0  0  0  0  0  0  0  0  0  0
    5.4836   -3.5470    0.0000 C   0  0  0  0  0  0  0  0  0  0  0  0
    7.4323   -1.8445    0.0000 C   0  0  0  0  0  0  0  0  0  0  0  0
    7.4323    1.1555    0.0000 C   0  0  0  0  0  0  0  0  0  0  0  0
    3.9890   -2.5764    0.0000 C   0  0  2  0  0  0  0  0  0  0  0  0
    6.5662   -0.3445    0.0000 C   0  0  0  0  0  0  0  0  0  0  0  0
    8.2983   -0.3445    0.0000 C   0  0  0  0  0  0  0  0  0  0  0  0
    6.5662    0.6555    0.0000 C   0  0  0  0  0  0  0  0  0  0  0  0
    8.2983    0.6555    0.0000 C   0  0  0  0  0  0  0  0  0  0  0  0
    7.2049   -4.0082    0.0000 C   0  0  0  0  0  0  0  0  0  0  0  0
    3.5823   -1.6629    0.0000 C   0  0  0  0  0  0  0  0  0  0  0  0
    7.4323    2.1555    0.0000 C   0  0  0  0  0  0  0  0  0  0  0  0
    2.5878   -1.5583    0.0000 C   0  0  0  0  0  0  0  0  0  0  0  0
    3.4013   -3.3854    0.0000 C   0  0  0  0  0  0  0  0  0  0  0  0
    6.9970   -4.9863    0.0000 C   0  0  0  0  0  0  0  0  0  0  0  0
    8.1559   -3.6992    0.0000 C   0  0  0  0  0  0  0  0  0  0  0  0
    8.2983    2.6555    0.0000 C   0  0  0  0  0  0  0  0  0  0  0  0
    8.2983    3.6555    0.0000 C   0  0  0  0  0  0  0  0  0  0  0  0
    2.1810   -0.6448    0.0000 C   0  0  0  0  0  0  0  0  0  0  0  0
    2.0000   -2.3674    0.0000 C   0  0  0  0  0  0  0  0  0  0  0  0
    7.7401   -5.6555    0.0000 C   0  0  0  0  0  0  0  0  0  0  0  0
    8.8991   -4.3683    0.0000 C   0  0  0  0  0  0  0  0  0  0  0  0
    8.6912   -5.3464    0.0000 C   0  0  0  0  0  0  0  0  0  0  0  0
    9.1643    4.1555    0.0000 C   0  0  0  0  0  0  0  0  0  0  0  0
   10.0303    3.6555    0.0000 C   0  0  0  0  0  0  0  0  0  0  0  0
    9.1643    5.1555    0.0000 C   0  0  0  0  0  0  0  0  0  0  0  0
   10.8964    4.1555    0.0000 C   0  0  0  0  0  0  0  0  0  0  0  0
   10.0303    5.6555    0.0000 C   0  0  0  0  0  0  0  0  0  0  0  0
   10.8964    5.1555    0.0000 C   0  0  0  0  0  0  0  0  0  0  0  0
    6.5338   -1.7254    0.0000 H   0  0  0  0  0  0  0  0  0  0  0  0
    7.0405   -3.1169    0.0000 H   0  0  0  0  0  0  0  0  0  0  0  0
    5.9627   -1.4009    0.0000 H   0  0  0  0  0  0  0  0  0  0  0  0
    5.1511   -1.5734    0.0000 H   0  0  0  0  0  0  0  0  0  0  0  0
    4.9172   -3.7991    0.0000 H   0  0  0  0  0  0  0  0  0  0  0  0
    5.6752   -4.1366    0.0000 H   0  0  0  0  0  0  0  0  0  0  0  0
    7.6443   -2.4271    0.0000 H   0  0  0  0  0  0  0  0  0  0  0  0
    8.0428   -1.7369    0.0000 H   0  0  0  0  0  0  0  0  0  0  0  0
    7.9692    1.4655    0.0000 H   0  0  0  0  0  0  0  0  0  0  0  0
    4.6056   -2.6412    0.0000 H   0  0  0  0  0  0  0  0  0  0  0  0
    5.9557   -0.2369    0.0000 H   0  0  0  0  0  0  0  0  0  0  0  0
    6.3542   -0.9271    0.0000 H   0  0  0  0  0  0  0  0  0  0  0  0
    8.5103   -0.9271    0.0000 H   0  0  0  0  0  0  0  0  0  0  0  0
    8.9089   -0.2369    0.0000 H   0  0  0  0  0  0  0  0  0  0  0  0
    6.3542    1.2381    0.0000 H   0  0  0  0  0  0  0  0  0  0  0  0
    5.9557    0.5478    0.0000 H   0  0  0  0  0  0  0  0  0  0  0  0
    8.9089    0.5478    0.0000 H   0  0  0  0  0  0  0  0  0  0  0  0
    8.5103    1.2381    0.0000 H   0  0  0  0  0  0  0  0  0  0  0  0
    4.1839   -1.5129    0.0000 H   0  0  0  0  0  0  0  0  0  0  0  0
    3.5391   -1.0444    0.0000 H   0  0  0  0  0  0  0  0  0  0  0  0
    7.2202    2.7381    0.0000 H   0  0  0  0  0  0  0  0  0  0  0  0
    6.8217    2.0478    0.0000 H   0  0  0  0  0  0  0  0  0  0  0  0
    1.9712   -1.4935    0.0000 H   0  0  0  0  0  0  0  0  0  0  0  0
    6.4073   -5.1779    0.0000 H   0  0  0  0  0  0  0  0  0  0  0  0
    8.2848   -3.0927    0.0000 H   0  0  0  0  0  0  0  0  0  0  0  0
    8.5103    2.0729    0.0000 H   0  0  0  0  0  0  0  0  0  0  0  0
    8.9089    2.7631    0.0000 H   0  0  0  0  0  0  0  0  0  0  0  0
    8.0862    4.2381    0.0000 H   0  0  0  0  0  0  0  0  0  0  0  0
    7.6877    3.5478    0.0000 H   0  0  0  0  0  0  0  0  0  0  0  0
    2.7474   -0.3926    0.0000 H   0  0  0  0  0  0  0  0  0  0  0  0
    1.9289   -0.0784    0.0000 H   0  0  0  0  0  0  0  0  0  0  0  0
    1.6146   -0.8970    0.0000 H   0  0  0  0  0  0  0  0  0  0  0  0
    1.4984   -2.0029    0.0000 H   0  0  0  0  0  0  0  0  0  0  0  0
    1.6356   -2.8690    0.0000 H   0  0  0  0  0  0  0  0  0  0  0  0
    2.5016   -2.7318    0.0000 H   0  0  0  0  0  0  0  0  0  0  0  0
    7.6112   -6.2619    0.0000 H   0  0  0  0  0  0  0  0  0  0  0  0
    9.4887   -4.1767    0.0000 H   0  0  0  0  0  0  0  0  0  0  0  0
    9.1519   -5.7613    0.0000 H   0  0  0  0  0  0  0  0  0  0  0  0
    2.0423   -3.7825    0.0000 H   0  0  0  0  0  0  0  0  0  0  0  0
   10.0303    3.0355    0.0000 H   0  0  0  0  0  0  0  0  0  0  0  0
    8.6274    5.4655    0.0000 H   0  0  0  0  0  0  0  0  0  0  0  0
   11.4333    3.8455    0.0000 H   0  0  0  0  0  0  0  0  0  0  0  0
   10.0303    6.2755    0.0000 H   0  0  0  0  0  0  0  0  0  0  0  0
   11.4333    5.4655    0.0000 H   0  0  0  0  0  0  0  0  0  0  0  0
  1 20  1  0  0  0  0
  1 74  1  0  0  0  0
  2 20  2  0  0  0  0
  3  7  1  0  0  0  0
  3  8  1  0  0  0  0
  3 11  1  0  0  0  0
  4  9  1  0  0  0  0
  4 12  1  0  0  0  0
  4 13  1  0  0  0  0
  5  6  1  0  0  0  0
  5  7  1  0  0  0  0
  5  9  1  6  0  0  0
  5 36  1  0  0  0  0
  6  8  1  0  0  0  0
  6 16  1  1  0  0  0
  6 37  1  0  0  0  0
  7 38  1  0  0  0  0
  7 39  1  0  0  0  0
  8 40  1  0  0  0  0
  8 41  1  0  0  0  0
  9 42  1  0  0  0  0
  9 43  1  0  0  0  0
 10 14  1  0  0  0  0
 10 15  1  0  0  0  0
 10 18  1  0  0  0  0
 10 44  1  0  0  0  0
 11 17  1  1  0  0  0
 11 20  1  0  0  0  0
 11 45  1  0  0  0  0
 12 14  1  0  0  0  0
 12 46  1  0  0  0  0
 12 47  1  0  0  0  0
 13 15  1  0  0  0  0
 13 48  1  0  0  0  0
 13 49  1  0  0  0  0
 14 50  1  0  0  0  0
 14 51  1  0  0  0  0
 15 52  1  0  0  0  0
 15 53  1  0  0  0  0
 16 21  2  0  0  0  0
 16 22  1  0  0  0  0
 17 19  1  0  0  0  0
 17 54  1  0  0  0  0
 17 55  1  0  0  0  0
 18 23  1  0  0  0  0
 18 56  1  0  0  0  0
 18 57  1  0  0  0  0
 19 25  1  0  0  0  0
 19 26  1  0  0  0  0
 19 58  1  0  0  0  0
 21 27  1  0  0  0  0
 21 59  1  0  0  0  0
 22 28  2  0  0  0  0
 22 60  1  0  0  0  0
 23 24  1  0  0  0  0
 23 61  1  0  0  0  0
 23 62  1  0  0  0  0
 24 30  1  0  0  0  0
 24 63  1  0  0  0  0
 24 64  1  0  0  0  0
 25 65  1  0  0  0  0
 25 66  1  0  0  0  0
 25 67  1  0  0  0  0
 26 68  1  0  0  0  0
 26 69  1  0  0  0  0
 26 70  1  0  0  0  0
 27 29  2  0  0  0  0
 27 71  1  0  0  0  0
 28 29  1  0  0  0  0
 28 72  1  0  0  0  0
 29 73  1  0  0  0  0
 30 31  2  0  0  0  0
 30 32  1  0  0  0  0
 31 33  1  0  0  0  0
 31 75  1  0  0  0  0
 32 34  2  0  0  0  0
 32 76  1  0  0  0  0
 33 35  2  0  0  0  0
 33 77  1  0  0  0  0
 34 35  1  0  0  0  0
 34 78  1  0  0  0  0
 35 79  1  0  0  0  0
M  END
> <PUBCHEM_COMPOUND_CID>
501061
> <PUBCHEM_COMPOUND_CANONICALIZED>
1
> <PUBCHEM_CACTVS_COMPLEXITY>
618
> <PUBCHEM_CACTVS_HBOND_ACCEPTOR>
4
> <PUBCHEM_CACTVS_HBOND_DONOR>
1
> <PUBCHEM_CACTVS_ROTATABLE_BOND>
11
> <PUBCHEM_CACTVS_SUBSKEYS>
AAADcfB7MAAAAAAAAAAAAAAAAAAAAWAAAAA8YIAAAAAAAAABQAAAHgAACAAADSjBmAQyCIMAAgCIAiDSCAACAAAgAAAIiAGIAIgKIDKA0TGEYAAkgACYiAeYgMAOgAAAAAAAAAAAAAAAAAAAAAAAAAAAAA==
> <PUBCHEM_IUPAC_OPENEYE_NAME>
(2R)-4-methyl-2-[(3S,4S)-3-phenyl-4-[[4-(3-phenylpropyl)-1-piperidyl]methyl]pyrrolidin-1-yl]pentanoic acid
> <PUBCHEM_IUPAC_CAS_NAME>
(2R)-4-methyl-2-[(3S,4S)-3-phenyl-4-[[4-(3-phenylpropyl)-1-piperidinyl]methyl]-1-pyrrolidinyl]pentanoic acid
> <PUBCHEM_IUPAC_NAME_MARKUP>
(2<I>R</I>)-4-methyl-2-[(3<I>S</I>,4<I>S</I>)-3-phenyl-4-[[4-(3-phenylpropyl)piperidin-1-yl]methyl]pyrrolidin-1-yl]pentanoic acid
> <PUBCHEM_IUPAC_NAME>
(2R)-4-methyl-2-[(3S,4S)-3-phenyl-4-[[4-(3-phenylpropyl)piperidin-1-yl]methyl]pyrrolidin-1-yl]pentanoic acid
> <PUBCHEM_IUPAC_SYSTEMATIC_NAME>
(2R)-4-methyl-2-[(3S,4S)-3-phenyl-4-[[4-(3-phenylpropyl)piperidin-1-yl]methyl]pyrrolidin-1-yl]pentanoic acid
> <PUBCHEM_IUPAC_TRADITIONAL_NAME>
(2R)-4-methyl-2-[(3S,4S)-3-phenyl-4-[[4-(3-phenylpropyl)piperidino]methyl]pyrrolidino]valeric acid
> <PUBCHEM_IUPAC_INCHI>
InChI=1S/C31H44N2O2/c1-24(2)20-30(31(34)35)33-22-28(29(23-33)27-14-7-4-8-15-27)21-32-18-16-26(17-19-32)13-9-12-25-10-5-3-6-11-25/h3-8,10-11,14-15,24,26,28-30H,9,12-13,16-23H2,1-2H3,(H,34,35)/t28-,29+,30+/m0/s1
> <PUBCHEM_IUPAC_INCHIKEY>
CJUKLRWBGYEIRM-FRXPANAUSA-N
> <PUBCHEM_XLOGP3_AA>
4.9
> <PUBCHEM_EXACT_MASS>
476.34027865
> <PUBCHEM_MOLECULAR_FORMULA>
C31H44N2O2
> <PUBCHEM_MOLECULAR_WEIGHT>
476.7
> <PUBCHEM_OPENEYE_CAN_SMILES>
CC(C)CC(C(=O)O)N1CC(C(C1)C2=CC=CC=C2)CN3CCC(CC3)CCCC4=CC=CC=C4
> <PUBCHEM_OPENEYE_ISO_SMILES>
CC(C)C[C@H](C(=O)O)N1C[C@@H]([C@H](C1)C2=CC=CC=C2)CN3CCC(CC3)CCCC4=CC=CC=C4
> <PUBCHEM_CACTVS_TPSA>
43.8
> <PUBCHEM_MONOISOTOPIC_WEIGHT>
476.34027865
> <PUBCHEM_TOTAL_CHARGE>
0
> <PUBCHEM_HEAVY_ATOM_COUNT>
35
> <PUBCHEM_ATOM_DEF_STEREO_COUNT>
3
> <PUBCHEM_ATOM_UDEF_STEREO_COUNT>
0
> <PUBCHEM_BOND_DEF_STEREO_COUNT>
0
> <PUBCHEM_BOND_UDEF_STEREO_COUNT>
0
> <PUBCHEM_ISOTOPIC_ATOM_COUNT>
0
> <PUBCHEM_COMPONENT_COUNT>
1
> <PUBCHEM_CACTVS_TAUTO_COUNT>
-1
> <PUBCHEM_COORDINATE_TYPE>
1
5
255
> <PUBCHEM_BONDANNOTATIONS>
11  17  5
16  21  8
16  22  8
21  27  8
22  28  8
27  29  8
28  29  8
30  31  8
30  32  8
31  33  8
32  34  8
33  35  8
34  35  8
5  9  6
6  16  5
$$$$
