501027
  -OEChem-10302200282D
 30 32  0     1  0  0  0  0  0999 V2000
    7.4755   -0.6739    0.0000 Cl  0  0  0  0  0  0  0  0  0  0  0  0
    6.5525    0.9139    0.0000 S   0  0  0  0  0  0  0  0  0  0  0  0
    3.8774   -1.1739    0.0000 F   0  0  0  0  0  0  0  0  0  0  0  0
    4.6557    2.6739    0.0000 O   0  0  0  0  0  0  0  0  0  0  0  0
    4.9344    0.9139    0.0000 N   0  0  0  0  0  0  0  0  0  0  0  0
    3.6473    2.0728    0.0000 N   0  0  0  0  0  0  0  0  0  0  0  0
    5.7434    0.3261    0.0000 C   0  0  3  0  0  0  0  0  0  0  0  0
    5.7434   -0.6739    0.0000 C   0  0  0  0  0  0  0  0  0  0  0  0
    6.2434    1.8649    0.0000 C   0  0  0  0  0  0  0  0  0  0  0  0
    5.2434    1.8649    0.0000 C   0  0  0  0  0  0  0  0  0  0  0  0
    3.9563    1.1218    0.0000 C   0  0  0  0  0  0  0  0  0  0  0  0
    6.6095   -1.1739    0.0000 C   0  0  0  0  0  0  0  0  0  0  0  0
    4.8774   -1.1739    0.0000 C   0  0  0  0  0  0  0  0  0  0  0  0
    3.2872    0.3786    0.0000 C   0  0  0  0  0  0  0  0  0  0  0  0
    6.6095   -2.1739    0.0000 C   0  0  0  0  0  0  0  0  0  0  0  0
    4.8774   -2.1739    0.0000 C   0  0  0  0  0  0  0  0  0  0  0  0
    5.7434   -2.6739    0.0000 C   0  0  0  0  0  0  0  0  0  0  0  0
    2.3090    0.5866    0.0000 C   0  0  0  0  0  0  0  0  0  0  0  0
    2.6691    2.2807    0.0000 C   0  0  0  0  0  0  0  0  0  0  0  0
    2.0000    1.5376    0.0000 C   0  0  0  0  0  0  0  0  0  0  0  0
    5.1910    0.0446    0.0000 H   0  0  0  0  0  0  0  0  0  0  0  0
    6.8499    1.9938    0.0000 H   0  0  0  0  0  0  0  0  0  0  0  0
    6.1786    2.4815    0.0000 H   0  0  0  0  0  0  0  0  0  0  0  0
    3.4788   -0.2110    0.0000 H   0  0  0  0  0  0  0  0  0  0  0  0
    7.1464   -2.4839    0.0000 H   0  0  0  0  0  0  0  0  0  0  0  0
    4.3405   -2.4839    0.0000 H   0  0  0  0  0  0  0  0  0  0  0  0
    5.7434   -3.2939    0.0000 H   0  0  0  0  0  0  0  0  0  0  0  0
    1.8941    0.1258    0.0000 H   0  0  0  0  0  0  0  0  0  0  0  0
    2.4775    2.8704    0.0000 H   0  0  0  0  0  0  0  0  0  0  0  0
    1.3936    1.6666    0.0000 H   0  0  0  0  0  0  0  0  0  0  0  0
  1 12  1  0  0  0  0
  2  7  1  0  0  0  0
  2  9  1  0  0  0  0
  3 13  1  0  0  0  0
  4 10  2  0  0  0  0
  5  7  1  0  0  0  0
  5 10  1  0  0  0  0
  5 11  1  0  0  0  0
  6 11  1  0  0  0  0
  6 19  2  0  0  0  0
  7  8  1  0  0  0  0
  7 21  1  0  0  0  0
  8 12  1  0  0  0  0
  8 13  2  0  0  0  0
  9 10  1  0  0  0  0
  9 22  1  0  0  0  0
  9 23  1  0  0  0  0
 11 14  2  0  0  0  0
 12 15  2  0  0  0  0
 13 16  1  0  0  0  0
 14 18  1  0  0  0  0
 14 24  1  0  0  0  0
 15 17  1  0  0  0  0
 15 25  1  0  0  0  0
 16 17  2  0  0  0  0
 16 26  1  0  0  0  0
 17 27  1  0  0  0  0
 18 20  2  0  0  0  0
 18 28  1  0  0  0  0
 19 20  1  0  0  0  0
 19 29  1  0  0  0  0
 20 30  1  0  0  0  0
M  END
> <PUBCHEM_COMPOUND_CID>
501027
> <PUBCHEM_COMPOUND_CANONICALIZED>
1
> <PUBCHEM_CACTVS_COMPLEXITY>
373
> <PUBCHEM_CACTVS_HBOND_ACCEPTOR>
4
> <PUBCHEM_CACTVS_HBOND_DONOR>
0
> <PUBCHEM_CACTVS_ROTATABLE_BOND>
2
> <PUBCHEM_CACTVS_SUBSKEYS>
AAADccBzIQBEAAAAAAAAAAAAAAAAAWAAAAA8QAAAAAAAAAABwAAAHwYAAAAADALF2iy9sJMIEAioAjN3dACCgClxBzAJ2CA4ZpiIIOLhm5GEIAhohwLoyCcQgAAOAAAAAAABAAAAAAAAAAIAAAAAAAAAAA==
> <PUBCHEM_IUPAC_OPENEYE_NAME>
2-(2-chloro-6-fluoro-phenyl)-3-(2-pyridyl)thiazolidin-4-one
> <PUBCHEM_IUPAC_CAS_NAME>
2-(2-chloro-6-fluorophenyl)-3-(2-pyridinyl)-4-thiazolidinone
> <PUBCHEM_IUPAC_NAME_MARKUP>
2-(2-chloro-6-fluorophenyl)-3-pyridin-2-yl-1,3-thiazolidin-4-one
> <PUBCHEM_IUPAC_NAME>
2-(2-chloro-6-fluorophenyl)-3-pyridin-2-yl-1,3-thiazolidin-4-one
> <PUBCHEM_IUPAC_SYSTEMATIC_NAME>
2-(2-chloranyl-6-fluoranyl-phenyl)-3-pyridin-2-yl-1,3-thiazolidin-4-one
> <PUBCHEM_IUPAC_TRADITIONAL_NAME>
2-(2-chloro-6-fluoro-phenyl)-3-(2-pyridyl)thiazolidin-4-one
> <PUBCHEM_IUPAC_INCHI>
InChI=1S/C14H10ClFN2OS/c15-9-4-3-5-10(16)13(9)14-18(12(19)8-20-14)11-6-1-2-7-17-11/h1-7,14H,8H2
> <PUBCHEM_IUPAC_INCHIKEY>
FTLAVCLHJCRRMX-UHFFFAOYSA-N
> <PUBCHEM_XLOGP3_AA>
3.4
> <PUBCHEM_EXACT_MASS>
308.0186400
> <PUBCHEM_MOLECULAR_FORMULA>
C14H10ClFN2OS
> <PUBCHEM_MOLECULAR_WEIGHT>
308.8
> <PUBCHEM_OPENEYE_CAN_SMILES>
C1C(=O)N(C(S1)C2=C(C=CC=C2Cl)F)C3=CC=CC=N3
> <PUBCHEM_OPENEYE_ISO_SMILES>
C1C(=O)N(C(S1)C2=C(C=CC=C2Cl)F)C3=CC=CC=N3
> <PUBCHEM_CACTVS_TPSA>
58.5
> <PUBCHEM_MONOISOTOPIC_WEIGHT>
308.0186400
> <PUBCHEM_TOTAL_CHARGE>
0
> <PUBCHEM_HEAVY_ATOM_COUNT>
20
> <PUBCHEM_ATOM_DEF_STEREO_COUNT>
0
> <PUBCHEM_ATOM_UDEF_STEREO_COUNT>
1
> <PUBCHEM_BOND_DEF_STEREO_COUNT>
0
> <PUBCHEM_BOND_UDEF_STEREO_COUNT>
0
> <PUBCHEM_ISOTOPIC_ATOM_COUNT>
0
> <PUBCHEM_COMPONENT_COUNT>
1
> <PUBCHEM_CACTVS_TAUTO_COUNT>
-1
> <PUBCHEM_COORDINATE_TYPE>
1
5
255
> <PUBCHEM_BONDANNOTATIONS>
11  14  8
12  15  8
13  16  8
14  18  8
15  17  8
16  17  8
18  20  8
19  20  8
6  11  8
6  19  8
7  8  3
8  12  8
8  13  8
$$$$
