501005
  -OEChem-10302200282D
 85 88  0     1  0  0  0  0  0999 V2000
    5.1350    2.5000    0.0000 P   0  0  0  0  0  0  0  0  0  0  0  0
    3.4030   -2.5000    0.0000 P   0  0  0  0  0  0  0  0  0  0  0  0
   21.4530    1.0000    0.0000 P   0  0  0  0  0  0  0  0  0  0  0  0
   12.8610   -1.0000    0.0000 F   0  0  0  0  0  0  0  0  0  0  0  0
   12.8610    1.0000    0.0000 F   0  0  0  0  0  0  0  0  0  0  0  0
    4.2690    1.0000    0.0000 O   0  0  0  0  0  0  0  0  0  0  0  0
    4.2690    3.0000    0.0000 O   0  0  0  0  0  0  0  0  0  0  0  0
    5.6350    3.3660    0.0000 O   0  0  0  0  0  0  0  0  0  0  0  0
    7.7331    2.0000    0.0000 O   0  0  0  0  0  0  0  0  0  0  0  0
    4.6350    1.6340    0.0000 O   0  0  0  0  0  0  0  0  0  0  0  0
    2.5369   -3.0000    0.0000 O   0  0  0  0  0  0  0  0  0  0  0  0
    3.9030   -3.3660    0.0000 O   0  0  0  0  0  0  0  0  0  0  0  0
    2.5369   -1.0000    0.0000 O   0  0  0  0  0  0  0  0  0  0  0  0
    2.9030   -1.6340    0.0000 O   0  0  0  0  0  0  0  0  0  0  0  0
    3.4030    0.5000    0.0000 O   0  0  0  0  0  0  0  0  0  0  0  0
   17.9889    2.0000    0.0000 O   0  0  0  0  0  0  0  0  0  0  0  0
   22.3190    1.5000    0.0000 O   0  0  0  0  0  0  0  0  0  0  0  0
   21.9530    0.1340    0.0000 O   0  0  0  0  0  0  0  0  0  0  0  0
   20.9530    1.8660    0.0000 O   0  0  0  0  0  0  0  0  0  0  0  0
   20.5870    2.5000    0.0000 O   0  0  0  0  0  0  0  0  0  0  0  0
   18.8549    2.5000    0.0000 O   0  0  0  0  0  0  0  0  0  0  0  0
   11.2774    0.8047    0.0000 N   0  0  0  0  0  0  0  0  0  0  0  0
    6.8671    0.5000    0.0000 N   0  0  0  0  0  0  0  0  0  0  0  0
    5.1350   -0.5000    0.0000 N   0  0  0  0  0  0  0  0  0  0  0  0
   11.2774   -0.8047    0.0000 N   0  0  0  0  0  0  0  0  0  0  0  0
   14.4446    0.8047    0.0000 N   0  0  0  0  0  0  0  0  0  0  0  0
   14.4446   -0.8047    0.0000 N   0  0  0  0  0  0  0  0  0  0  0  0
   18.8549    0.5000    0.0000 N   0  0  0  0  0  0  0  0  0  0  0  0
    6.0010    1.0000    0.0000 C   0  0  3  0  0  0  0  0  0  0  0  0
   10.3312    0.5000    0.0000 C   0  0  0  0  0  0  0  0  0  0  0  0
   11.8610    0.0000    0.0000 C   0  0  0  0  0  0  0  0  0  0  0  0
    6.0010    2.0000    0.0000 C   0  0  0  0  0  0  0  0  0  0  0  0
   12.8610    0.0000    0.0000 C   0  0  0  0  0  0  0  0  0  0  0  0
   10.3312   -0.5000    0.0000 C   0  0  0  0  0  0  0  0  0  0  0  0
    4.2690   -1.0000    0.0000 C   0  0  3  0  0  0  0  0  0  0  0  0
    8.5991    0.5000    0.0000 C   0  0  0  0  0  0  0  0  0  0  0  0
    5.1350    0.5000    0.0000 C   0  0  0  0  0  0  0  0  0  0  0  0
   13.8610    0.0000    0.0000 C   0  0  0  0  0  0  0  0  0  0  0  0
    9.4651    1.0000    0.0000 C   0  0  0  0  0  0  0  0  0  0  0  0
    7.7331    1.0000    0.0000 C   0  0  0  0  0  0  0  0  0  0  0  0
    4.2690   -2.0000    0.0000 C   0  0  0  0  0  0  0  0  0  0  0  0
    9.4651   -1.0000    0.0000 C   0  0  0  0  0  0  0  0  0  0  0  0
   15.3908    0.5000    0.0000 C   0  0  0  0  0  0  0  0  0  0  0  0
    8.5991   -0.5000    0.0000 C   0  0  0  0  0  0  0  0  0  0  0  0
   11.5880    1.7552    0.0000 C   0  0  0  0  0  0  0  0  0  0  0  0
   15.3908   -0.5000    0.0000 C   0  0  0  0  0  0  0  0  0  0  0  0
   16.2568    1.0000    0.0000 C   0  0  0  0  0  0  0  0  0  0  0  0
   17.1229    0.5000    0.0000 C   0  0  0  0  0  0  0  0  0  0  0  0
   19.7209    1.0000    0.0000 C   0  0  3  0  0  0  0  0  0  0  0  0
   16.2568   -1.0000    0.0000 C   0  0  0  0  0  0  0  0  0  0  0  0
    3.4030   -0.5000    0.0000 C   0  0  0  0  0  0  0  0  0  0  0  0
   17.1229   -0.5000    0.0000 C   0  0  0  0  0  0  0  0  0  0  0  0
   20.5870    0.5000    0.0000 C   0  0  0  0  0  0  0  0  0  0  0  0
   17.9889    1.0000    0.0000 C   0  0  0  0  0  0  0  0  0  0  0  0
   19.7209    2.0000    0.0000 C   0  0  0  0  0  0  0  0  0  0  0  0
    6.5380    1.3100    0.0000 H   0  0  0  0  0  0  0  0  0  0  0  0
    6.6116    1.8923    0.0000 H   0  0  0  0  0  0  0  0  0  0  0  0
    6.2131    2.5826    0.0000 H   0  0  0  0  0  0  0  0  0  0  0  0
    4.2690   -0.3800    0.0000 H   0  0  0  0  0  0  0  0  0  0  0  0
    6.8671   -0.1200    0.0000 H   0  0  0  0  0  0  0  0  0  0  0  0
    9.4651    1.6200    0.0000 H   0  0  0  0  0  0  0  0  0  0  0  0
    5.6720   -0.8100    0.0000 H   0  0  0  0  0  0  0  0  0  0  0  0
    4.4810   -2.5826    0.0000 H   0  0  0  0  0  0  0  0  0  0  0  0
    4.8796   -1.8923    0.0000 H   0  0  0  0  0  0  0  0  0  0  0  0
    9.4651   -1.6200    0.0000 H   0  0  0  0  0  0  0  0  0  0  0  0
    8.0622   -0.8100    0.0000 H   0  0  0  0  0  0  0  0  0  0  0  0
   14.2520    1.3940    0.0000 H   0  0  0  0  0  0  0  0  0  0  0  0
   12.1774    1.5626    0.0000 H   0  0  0  0  0  0  0  0  0  0  0  0
   11.7807    2.3446    0.0000 H   0  0  0  0  0  0  0  0  0  0  0  0
   10.9987    1.9479    0.0000 H   0  0  0  0  0  0  0  0  0  0  0  0
   16.2568    1.6200    0.0000 H   0  0  0  0  0  0  0  0  0  0  0  0
   19.7209    0.3800    0.0000 H   0  0  0  0  0  0  0  0  0  0  0  0
   16.2568   -1.6200    0.0000 H   0  0  0  0  0  0  0  0  0  0  0  0
   17.6598   -0.8100    0.0000 H   0  0  0  0  0  0  0  0  0  0  0  0
   20.1884    0.0251    0.0000 H   0  0  0  0  0  0  0  0  0  0  0  0
   20.9855    0.0251    0.0000 H   0  0  0  0  0  0  0  0  0  0  0  0
   18.8549   -0.1200    0.0000 H   0  0  0  0  0  0  0  0  0  0  0  0
    4.2690    3.6200    0.0000 H   0  0  0  0  0  0  0  0  0  0  0  0
    5.3250    3.9030    0.0000 H   0  0  0  0  0  0  0  0  0  0  0  0
    2.5369   -3.6200    0.0000 H   0  0  0  0  0  0  0  0  0  0  0  0
    3.5930   -3.9030    0.0000 H   0  0  0  0  0  0  0  0  0  0  0  0
    2.0000   -0.6900    0.0000 H   0  0  0  0  0  0  0  0  0  0  0  0
   22.8560    1.1900    0.0000 H   0  0  0  0  0  0  0  0  0  0  0  0
   21.6430   -0.4030    0.0000 H   0  0  0  0  0  0  0  0  0  0  0  0
   20.5870    3.1200    0.0000 H   0  0  0  0  0  0  0  0  0  0  0  0
  1  7  1  0  0  0  0
  1  8  1  0  0  0  0
  1 10  2  0  0  0  0
  1 32  1  0  0  0  0
  2 11  1  0  0  0  0
  2 12  1  0  0  0  0
  2 14  2  0  0  0  0
  2 41  1  0  0  0  0
  3 17  1  0  0  0  0
  3 18  1  0  0  0  0
  3 19  2  0  0  0  0
  3 53  1  0  0  0  0
  4 33  1  0  0  0  0
  5 33  1  0  0  0  0
  6 37  2  0  0  0  0
  7 78  1  0  0  0  0
  8 79  1  0  0  0  0
  9 40  2  0  0  0  0
 11 80  1  0  0  0  0
 12 81  1  0  0  0  0
 13 51  1  0  0  0  0
 13 82  1  0  0  0  0
 15 51  2  0  0  0  0
 16 54  2  0  0  0  0
 17 83  1  0  0  0  0
 18 84  1  0  0  0  0
 20 55  1  0  0  0  0
 20 85  1  0  0  0  0
 21 55  2  0  0  0  0
 22 30  1  0  0  0  0
 22 31  1  0  0  0  0
 22 45  1  0  0  0  0
 23 29  1  0  0  0  0
 23 40  1  0  0  0  0
 23 60  1  0  0  0  0
 24 35  1  0  0  0  0
 24 37  1  0  0  0  0
 24 62  1  0  0  0  0
 25 31  2  0  0  0  0
 25 34  1  0  0  0  0
 26 38  1  0  0  0  0
 26 43  1  0  0  0  0
 26 67  1  0  0  0  0
 27 38  2  0  0  0  0
 27 46  1  0  0  0  0
 28 49  1  0  0  0  0
 28 54  1  0  0  0  0
 28 77  1  0  0  0  0
 29 32  1  0  0  0  0
 29 37  1  0  0  0  0
 29 56  1  0  0  0  0
 30 34  2  0  0  0  0
 30 39  1  0  0  0  0
 31 33  1  0  0  0  0
 32 57  1  0  0  0  0
 32 58  1  0  0  0  0
 33 38  1  0  0  0  0
 34 42  1  0  0  0  0
 35 41  1  0  0  0  0
 35 51  1  0  0  0  0
 35 59  1  0  0  0  0
 36 39  2  0  0  0  0
 36 40  1  0  0  0  0
 36 44  1  0  0  0  0
 39 61  1  0  0  0  0
 41 63  1  0  0  0  0
 41 64  1  0  0  0  0
 42 44  2  0  0  0  0
 42 65  1  0  0  0  0
 43 46  2  0  0  0  0
 43 47  1  0  0  0  0
 44 66  1  0  0  0  0
 45 68  1  0  0  0  0
 45 69  1  0  0  0  0
 45 70  1  0  0  0  0
 46 50  1  0  0  0  0
 47 48  2  0  0  0  0
 47 71  1  0  0  0  0
 48 52  1  0  0  0  0
 48 54  1  0  0  0  0
 49 53  1  0  0  0  0
 49 55  1  0  0  0  0
 49 72  1  0  0  0  0
 50 52  2  0  0  0  0
 50 73  1  0  0  0  0
 52 74  1  0  0  0  0
 53 75  1  0  0  0  0
 53 76  1  0  0  0  0
M  END
> <PUBCHEM_COMPOUND_CID>
501005
> <PUBCHEM_COMPOUND_CANONICALIZED>
1
> <PUBCHEM_CACTVS_COMPLEXITY>
1650
> <PUBCHEM_CACTVS_HBOND_ACCEPTOR>
20
> <PUBCHEM_CACTVS_HBOND_DONOR>
12
> <PUBCHEM_CACTVS_ROTATABLE_BOND>
16
> <PUBCHEM_CACTVS_SUBSKEYS>
AAADceB7v4MAAAAAAAAAAAAAAAAAAWLAAAAwYAAAAAAAAFgB/gAAHwgQCCAADCjJnxQz2LfNkhCoQyfyfICCgC2lEqAJ2aG4dNiKaLLA3bGUYQholgLYyacciQCeCAAAQAAAACAQAACAAAAAQAAAAAAAAA==
> <PUBCHEM_IUPAC_OPENEYE_NAME>
2-[[2-[[6-[[2-[(1-carboxy-2-phosphono-ethyl)amino]-2-oxo-1-(phosphonomethyl)ethyl]carbamoyl]-1-methyl-benzimidazol-2-yl]-difluoro-methyl]-3H-benzimidazole-5-carbonyl]amino]-3-phosphono-propanoic acid
> <PUBCHEM_IUPAC_CAS_NAME>
2-[[[2-[[6-[[[1-[(1-carboxy-2-phosphonoethyl)amino]-1-oxo-3-phosphonopropan-2-yl]amino]-oxomethyl]-1-methyl-2-benzimidazolyl]-difluoromethyl]-3H-benzimidazol-5-yl]-oxomethyl]amino]-3-phosphonopropanoic acid
> <PUBCHEM_IUPAC_NAME_MARKUP>
2-[[2-[[6-[[1-[(1-carboxy-2-phosphonoethyl)amino]-1-oxo-3-phosphonopropan-2-yl]carbamoyl]-1-methylbenzimidazol-2-yl]-difluoromethyl]-3<I>H</I>-benzimidazole-5-carbonyl]amino]-3-phosphonopropanoic acid
> <PUBCHEM_IUPAC_NAME>
2-[[2-[[6-[[1-[(1-carboxy-2-phosphonoethyl)amino]-1-oxo-3-phosphonopropan-2-yl]carbamoyl]-1-methylbenzimidazol-2-yl]-difluoromethyl]-3H-benzimidazole-5-carbonyl]amino]-3-phosphonopropanoic acid
> <PUBCHEM_IUPAC_SYSTEMATIC_NAME>
2-[[2-[bis(fluoranyl)-[1-methyl-6-[[1-oxidanylidene-1-[(1-oxidanyl-1-oxidanylidene-3-phosphono-propan-2-yl)amino]-3-phosphono-propan-2-yl]carbamoyl]benzimidazol-2-yl]methyl]-3H-benzimidazol-5-yl]carbonylamino]-3-phosphono-propanoic acid
> <PUBCHEM_IUPAC_TRADITIONAL_NAME>
2-[[2-[[6-[[2-[(1-carboxy-2-phosphono-ethyl)amino]-2-keto-1-(phosphonomethyl)ethyl]carbamoyl]-1-methyl-benzimidazol-2-yl]-difluoro-methyl]-3H-benzimidazole-5-carbonyl]amino]-3-phosphono-propionic acid
> <PUBCHEM_IUPAC_INCHI>
InChI=1S/C27H30F2N7O16P3/c1-36-19-7-12(21(38)30-16(8-53(44,45)46)22(39)32-18(24(42)43)10-55(50,51)52)3-5-14(19)35-26(36)27(28,29)25-33-13-4-2-11(6-15(13)34-25)20(37)31-17(23(40)41)9-54(47,48)49/h2-7,16-18H,8-10H2,1H3,(H,30,38)(H,31,37)(H,32,39)(H,33,34)(H,40,41)(H,42,43)(H2,44,45,46)(H2,47,48,49)(H2,50,51,52)
> <PUBCHEM_IUPAC_INCHIKEY>
UYVPXANKULGARL-UHFFFAOYSA-N
> <PUBCHEM_XLOGP3_AA>
-5.1
> <PUBCHEM_EXACT_MASS>
839.09299521
> <PUBCHEM_MOLECULAR_FORMULA>
C27H30F2N7O16P3
> <PUBCHEM_MOLECULAR_WEIGHT>
839.5
> <PUBCHEM_OPENEYE_CAN_SMILES>
CN1C2=C(C=CC(=C2)C(=O)NC(CP(=O)(O)O)C(=O)NC(CP(=O)(O)O)C(=O)O)N=C1C(C3=NC4=C(N3)C=C(C=C4)C(=O)NC(CP(=O)(O)O)C(=O)O)(F)F
> <PUBCHEM_OPENEYE_ISO_SMILES>
CN1C2=C(C=CC(=C2)C(=O)NC(CP(=O)(O)O)C(=O)NC(CP(=O)(O)O)C(=O)O)N=C1C(C3=NC4=C(N3)C=C(C=C4)C(=O)NC(CP(=O)(O)O)C(=O)O)(F)F
> <PUBCHEM_CACTVS_TPSA>
381
> <PUBCHEM_MONOISOTOPIC_WEIGHT>
839.09299521
> <PUBCHEM_TOTAL_CHARGE>
0
> <PUBCHEM_HEAVY_ATOM_COUNT>
55
> <PUBCHEM_ATOM_DEF_STEREO_COUNT>
0
> <PUBCHEM_ATOM_UDEF_STEREO_COUNT>
3
> <PUBCHEM_BOND_DEF_STEREO_COUNT>
0
> <PUBCHEM_BOND_UDEF_STEREO_COUNT>
0
> <PUBCHEM_ISOTOPIC_ATOM_COUNT>
0
> <PUBCHEM_COMPONENT_COUNT>
1
> <PUBCHEM_CACTVS_TAUTO_COUNT>
-1
> <PUBCHEM_COORDINATE_TYPE>
1
5
255
> <PUBCHEM_BONDANNOTATIONS>
22  30  8
22  31  8
25  31  8
25  34  8
26  38  8
26  43  8
27  38  8
27  46  8
29  32  3
30  34  8
30  39  8
34  42  8
35  41  3
36  39  8
36  44  8
42  44  8
43  46  8
43  47  8
46  50  8
47  48  8
48  52  8
49  53  3
50  52  8
$$$$
