501035
  -OEChem-10302200282D
 30 32  0     1  0  0  0  0  0999 V2000
    2.0000    1.7456    0.0000 Br  0  0  0  0  0  0  0  0  0  0  0  0
    7.5306    0.9139    0.0000 S   0  0  0  0  0  0  0  0  0  0  0  0
    8.4536   -0.6739    0.0000 F   0  0  0  0  0  0  0  0  0  0  0  0
    4.8556   -1.1739    0.0000 F   0  0  0  0  0  0  0  0  0  0  0  0
    5.6338    2.6739    0.0000 O   0  0  0  0  0  0  0  0  0  0  0  0
    5.9126    0.9139    0.0000 N   0  0  0  0  0  0  0  0  0  0  0  0
    4.6254    2.0728    0.0000 N   0  0  0  0  0  0  0  0  0  0  0  0
    6.7216    0.3261    0.0000 C   0  0  3  0  0  0  0  0  0  0  0  0
    6.7216   -0.6739    0.0000 C   0  0  0  0  0  0  0  0  0  0  0  0
    7.2216    1.8649    0.0000 C   0  0  0  0  0  0  0  0  0  0  0  0
    6.2216    1.8649    0.0000 C   0  0  0  0  0  0  0  0  0  0  0  0
    4.9344    1.1218    0.0000 C   0  0  0  0  0  0  0  0  0  0  0  0
    7.5876   -1.1739    0.0000 C   0  0  0  0  0  0  0  0  0  0  0  0
    5.8556   -1.1739    0.0000 C   0  0  0  0  0  0  0  0  0  0  0  0
    4.2653    0.3786    0.0000 C   0  0  0  0  0  0  0  0  0  0  0  0
    7.5876   -2.1739    0.0000 C   0  0  0  0  0  0  0  0  0  0  0  0
    5.8556   -2.1739    0.0000 C   0  0  0  0  0  0  0  0  0  0  0  0
    6.7216   -2.6739    0.0000 C   0  0  0  0  0  0  0  0  0  0  0  0
    3.2872    0.5866    0.0000 C   0  0  0  0  0  0  0  0  0  0  0  0
    3.6473    2.2807    0.0000 C   0  0  0  0  0  0  0  0  0  0  0  0
    2.9782    1.5376    0.0000 C   0  0  0  0  0  0  0  0  0  0  0  0
    6.1692    0.0446    0.0000 H   0  0  0  0  0  0  0  0  0  0  0  0
    7.8280    1.9938    0.0000 H   0  0  0  0  0  0  0  0  0  0  0  0
    7.1568    2.4815    0.0000 H   0  0  0  0  0  0  0  0  0  0  0  0
    4.4569   -0.2110    0.0000 H   0  0  0  0  0  0  0  0  0  0  0  0
    8.1246   -2.4839    0.0000 H   0  0  0  0  0  0  0  0  0  0  0  0
    5.3186   -2.4839    0.0000 H   0  0  0  0  0  0  0  0  0  0  0  0
    6.7216   -3.2939    0.0000 H   0  0  0  0  0  0  0  0  0  0  0  0
    2.8723    0.1258    0.0000 H   0  0  0  0  0  0  0  0  0  0  0  0
    3.4557    2.8704    0.0000 H   0  0  0  0  0  0  0  0  0  0  0  0
  1 21  1  0  0  0  0
  2  8  1  0  0  0  0
  2 10  1  0  0  0  0
  3 13  1  0  0  0  0
  4 14  1  0  0  0  0
  5 11  2  0  0  0  0
  6  8  1  0  0  0  0
  6 11  1  0  0  0  0
  6 12  1  0  0  0  0
  7 12  2  0  0  0  0
  7 20  1  0  0  0  0
  8  9  1  0  0  0  0
  8 22  1  0  0  0  0
  9 13  2  0  0  0  0
  9 14  1  0  0  0  0
 10 11  1  0  0  0  0
 10 23  1  0  0  0  0
 10 24  1  0  0  0  0
 12 15  1  0  0  0  0
 13 16  1  0  0  0  0
 14 17  2  0  0  0  0
 15 19  2  0  0  0  0
 15 25  1  0  0  0  0
 16 18  2  0  0  0  0
 16 26  1  0  0  0  0
 17 18  1  0  0  0  0
 17 27  1  0  0  0  0
 18 28  1  0  0  0  0
 19 21  1  0  0  0  0
 19 29  1  0  0  0  0
 20 21  2  0  0  0  0
 20 30  1  0  0  0  0
M  END
> <PUBCHEM_COMPOUND_CID>
501035
> <PUBCHEM_COMPOUND_CANONICALIZED>
1
> <PUBCHEM_CACTVS_COMPLEXITY>
393
> <PUBCHEM_CACTVS_HBOND_ACCEPTOR>
5
> <PUBCHEM_CACTVS_HBOND_DONOR>
0
> <PUBCHEM_CACTVS_ROTATABLE_BOND>
2
> <PUBCHEM_CACTVS_SUBSKEYS>
AAADccBzIYBAEAAAAAAAAAAAAAAAAWAAAAA8QAAAAAAAAAABwAAAHwRAAAABrADF2gy9sJMIEAioAjN3dACCgClxAjQJ2CA4ZLiIIOLgmZGEIAhohwLoyjcQgAAOAAAAAAAAAAAAAAAAAAAAAAAAAAAAAA==
> <PUBCHEM_IUPAC_OPENEYE_NAME>
3-(5-bromo-2-pyridyl)-2-(2,6-difluorophenyl)thiazolidin-4-one
> <PUBCHEM_IUPAC_CAS_NAME>
3-(5-bromo-2-pyridinyl)-2-(2,6-difluorophenyl)-4-thiazolidinone
> <PUBCHEM_IUPAC_NAME_MARKUP>
3-(5-bromopyridin-2-yl)-2-(2,6-difluorophenyl)-1,3-thiazolidin-4-one
> <PUBCHEM_IUPAC_NAME>
3-(5-bromopyridin-2-yl)-2-(2,6-difluorophenyl)-1,3-thiazolidin-4-one
> <PUBCHEM_IUPAC_SYSTEMATIC_NAME>
2-[2,6-bis(fluoranyl)phenyl]-3-(5-bromanylpyridin-2-yl)-1,3-thiazolidin-4-one
> <PUBCHEM_IUPAC_TRADITIONAL_NAME>
3-(5-bromo-2-pyridyl)-2-(2,6-difluorophenyl)thiazolidin-4-one
> <PUBCHEM_IUPAC_INCHI>
InChI=1S/C14H9BrF2N2OS/c15-8-4-5-11(18-6-8)19-12(20)7-21-14(19)13-9(16)2-1-3-10(13)17/h1-6,14H,7H2
> <PUBCHEM_IUPAC_INCHIKEY>
LBRDMVUKHABDGX-UHFFFAOYSA-N
> <PUBCHEM_XLOGP3_AA>
3.5
> <PUBCHEM_EXACT_MASS>
369.95870
> <PUBCHEM_MOLECULAR_FORMULA>
C14H9BrF2N2OS
> <PUBCHEM_MOLECULAR_WEIGHT>
371.20
> <PUBCHEM_OPENEYE_CAN_SMILES>
C1C(=O)N(C(S1)C2=C(C=CC=C2F)F)C3=NC=C(C=C3)Br
> <PUBCHEM_OPENEYE_ISO_SMILES>
C1C(=O)N(C(S1)C2=C(C=CC=C2F)F)C3=NC=C(C=C3)Br
> <PUBCHEM_CACTVS_TPSA>
58.5
> <PUBCHEM_MONOISOTOPIC_WEIGHT>
369.95870
> <PUBCHEM_TOTAL_CHARGE>
0
> <PUBCHEM_HEAVY_ATOM_COUNT>
21
> <PUBCHEM_ATOM_DEF_STEREO_COUNT>
0
> <PUBCHEM_ATOM_UDEF_STEREO_COUNT>
1
> <PUBCHEM_BOND_DEF_STEREO_COUNT>
0
> <PUBCHEM_BOND_UDEF_STEREO_COUNT>
0
> <PUBCHEM_ISOTOPIC_ATOM_COUNT>
0
> <PUBCHEM_COMPONENT_COUNT>
1
> <PUBCHEM_CACTVS_TAUTO_COUNT>
-1
> <PUBCHEM_COORDINATE_TYPE>
1
5
255
> <PUBCHEM_BONDANNOTATIONS>
12  15  8
13  16  8
14  17  8
15  19  8
16  18  8
17  18  8
19  21  8
20  21  8
7  12  8
7  20  8
8  9  3
9  13  8
9  14  8
$$$$
