501010
  -OEChem-10302200282D
141152  0     1  0  0  0  0  0999 V2000
   13.5519    0.7159    0.0000 P   0  0  3  0  0  0  0  0  0  0  0  0
    9.7081   -2.3178    0.0000 P   0  0  3  0  0  0  0  0  0  0  0  0
   10.1330    4.2216    0.0000 P   0  0  3  0  0  0  0  0  0  0  0  0
   13.2098   -2.5982    0.0000 O   0  0  0  0  0  0  0  0  0  0  0  0
   13.4647    4.2277    0.0000 O   0  0  0  0  0  0  0  0  0  0  0  0
   14.0504   -0.1510    0.0000 O   0  0  0  0  0  0  0  0  0  0  0  0
    6.4479   -1.6312    0.0000 O   0  0  0  0  0  0  0  0  0  0  0  0
    8.7939   -2.7230    0.0000 O   0  0  0  0  0  0  0  0  0  0  0  0
   11.8864   -0.3746    0.0000 O   0  0  0  0  0  0  0  0  0  0  0  0
   10.9430    4.8079    0.0000 O   0  0  0  0  0  0  0  0  0  0  0  0
   10.6224   -1.9127    0.0000 O   0  0  0  0  0  0  0  0  0  0  0  0
   13.0534    1.5828    0.0000 O   0  0  0  0  0  0  0  0  0  0  0  0
   11.3917    2.6791    0.0000 O   0  0  0  0  0  0  0  0  0  0  0  0
    8.7976   -0.5474    0.0000 O   0  0  0  0  0  0  0  0  0  0  0  0
   14.4188    1.2144    0.0000 O   0  0  0  0  0  0  0  0  0  0  0  0
    5.7519    0.3380    0.0000 O   0  0  0  0  0  0  0  0  0  0  0  0
   10.1133   -3.2321    0.0000 O   0  0  0  0  0  0  0  0  0  0  0  0
   12.6850    0.2174    0.0000 O   0  0  0  0  0  0  0  0  0  0  0  0
    9.3030   -1.4036    0.0000 O   0  0  0  0  0  0  0  0  0  0  0  0
    9.3230    3.6352    0.0000 O   0  0  0  0  0  0  0  0  0  0  0  0
    9.5466    5.0316    0.0000 O   0  0  0  0  0  0  0  0  0  0  0  0
   10.7194    3.4115    0.0000 O   0  0  0  0  0  0  0  0  0  0  0  0
    6.6872    3.8654    0.0000 O   0  0  0  0  0  0  0  0  0  0  0  0
   14.9319   -2.1400    0.0000 N   0  0  0  0  0  0  0  0  0  0  0  0
   12.8290    5.8925    0.0000 N   0  0  0  0  0  0  0  0  0  0  0  0
    6.7236   -3.3917    0.0000 N   0  0  0  0  0  0  0  0  0  0  0  0
   16.3229   -2.9495    0.0000 N   0  0  0  0  0  0  0  0  0  0  0  0
   13.4887    7.3605    0.0000 N   0  0  0  0  0  0  0  0  0  0  0  0
   15.6746   -0.4754    0.0000 N   0  0  0  0  0  0  0  0  0  0  0  0
    6.7236   -5.0012    0.0000 N   0  0  0  0  0  0  0  0  0  0  0  0
   11.0959    6.4572    0.0000 N   0  0  0  0  0  0  0  0  0  0  0  0
    4.9114   -3.1964    0.0000 N   0  0  0  0  0  0  0  0  0  0  0  0
   17.4067   -0.4814    0.0000 N   0  0  0  0  0  0  0  0  0  0  0  0
   10.9209    8.1804    0.0000 N   0  0  0  0  0  0  0  0  0  0  0  0
    4.0454   -4.6964    0.0000 N   0  0  0  0  0  0  0  0  0  0  0  0
    4.9114   -6.1964    0.0000 N   0  0  0  0  0  0  0  0  0  0  0  0
   18.2675   -1.9844    0.0000 N   0  0  0  0  0  0  0  0  0  0  0  0
   12.3256    9.1936    0.0000 N   0  0  0  0  0  0  0  0  0  0  0  0
    4.9644    3.6874    0.0000 N   0  0  0  0  0  0  0  0  0  0  0  0
    3.3637    3.8556    0.0000 N   0  0  0  0  0  0  0  0  0  0  0  0
    5.3480    5.4693    0.0000 N   0  0  0  0  0  0  0  0  0  0  0  0
    3.9467    6.4873    0.0000 N   0  0  0  0  0  0  0  0  0  0  0  0
    2.3644    5.7828    0.0000 N   0  0  0  0  0  0  0  0  0  0  0  0
   13.5489   -1.0161    0.0000 C   0  0  2  0  0  0  0  0  0  0  0  0
   12.5542   -1.1189    0.0000 C   0  0  1  0  0  0  0  0  0  0  0  0
   12.3446   -2.0967    0.0000 C   0  0  1  0  0  0  0  0  0  0  0  0
   13.9541   -1.9304    0.0000 C   0  0  1  0  0  0  0  0  0  0  0  0
   11.8559    4.3996    0.0000 C   0  0  2  0  0  0  0  0  0  0  0  0
   12.0621    3.4211    0.0000 C   0  0  1  0  0  0  0  0  0  0  0  0
   13.0564    3.3149    0.0000 C   0  0  1  0  0  0  0  0  0  0  0  0
   12.7227    4.8981    0.0000 C   0  0  1  0  0  0  0  0  0  0  0  0
    7.9859   -2.1338    0.0000 C   0  0  2  0  0  0  0  0  0  0  0  0
    7.9876   -1.1338    0.0000 C   0  0  1  0  0  0  0  0  0  0  0  0
    7.0343   -2.4412    0.0000 C   0  0  1  0  0  0  0  0  0  0  0  0
    7.0371   -0.8231    0.0000 C   0  0  1  0  0  0  0  0  0  0  0  0
   11.4304   -2.5019    0.0000 C   0  0  0  0  0  0  0  0  0  0  0  0
   13.5549    2.4480    0.0000 C   0  0  0  0  0  0  0  0  0  0  0  0
    6.7297    0.1284    0.0000 C   0  0  0  0  0  0  0  0  0  0  0  0
   15.6712   -1.4754    0.0000 C   0  0  0  0  0  0  0  0  0  0  0  0
   15.3338   -3.0492    0.0000 C   0  0  0  0  0  0  0  0  0  0  0  0
   12.0908    6.5583    0.0000 C   0  0  0  0  0  0  0  0  0  0  0  0
    5.7774   -3.6964    0.0000 C   0  0  0  0  0  0  0  0  0  0  0  0
   13.6912    6.3873    0.0000 C   0  0  0  0  0  0  0  0  0  0  0  0
   16.5355   -1.9784    0.0000 C   0  0  0  0  0  0  0  0  0  0  0  0
    7.3072   -4.1964    0.0000 C   0  0  0  0  0  0  0  0  0  0  0  0
   12.5007    7.4704    0.0000 C   0  0  0  0  0  0  0  0  0  0  0  0
    5.7774   -4.6964    0.0000 C   0  0  0  0  0  0  0  0  0  0  0  0
   17.4032   -1.4814    0.0000 C   0  0  0  0  0  0  0  0  0  0  0  0
   11.9157    8.2814    0.0000 C   0  0  0  0  0  0  0  0  0  0  0  0
    4.9114   -5.1964    0.0000 C   0  0  0  0  0  0  0  0  0  0  0  0
   16.5424    0.0216    0.0000 C   0  0  0  0  0  0  0  0  0  0  0  0
   10.5110    7.2682    0.0000 C   0  0  0  0  0  0  0  0  0  0  0  0
    4.0454   -3.6964    0.0000 C   0  0  0  0  0  0  0  0  0  0  0  0
    8.4101    4.0435    0.0000 C   0  0  0  0  0  0  0  0  0  0  0  0
    7.6001    3.4571    0.0000 C   0  0  0  0  0  0  0  0  0  0  0  0
    4.0454   -6.6964    0.0000 C   0  0  0  0  0  0  0  0  0  0  0  0
    4.0454   -7.6964    0.0000 C   0  0  0  0  0  0  0  0  0  0  0  0
    5.8772    3.2790    0.0000 C   0  0  0  0  0  0  0  0  0  0  0  0
    3.1793   -8.1964    0.0000 C   0  0  0  0  0  0  0  0  0  0  0  0
    4.9114   -8.1964    0.0000 C   0  0  0  0  0  0  0  0  0  0  0  0
    3.1793   -9.1964    0.0000 C   0  0  0  0  0  0  0  0  0  0  0  0
    4.9114   -9.1964    0.0000 C   0  0  0  0  0  0  0  0  0  0  0  0
    4.0454   -9.6964    0.0000 C   0  0  0  0  0  0  0  0  0  0  0  0
    4.7602    4.6602    0.0000 C   0  0  0  0  0  0  0  0  0  0  0  0
    4.1030    3.1911    0.0000 C   0  0  0  0  0  0  0  0  0  0  0  0
    3.7657    4.7648    0.0000 C   0  0  0  0  0  0  0  0  0  0  0  0
    3.3590    5.6783    0.0000 C   0  0  0  0  0  0  0  0  0  0  0  0
    4.9413    6.3828    0.0000 C   0  0  0  0  0  0  0  0  0  0  0  0
   14.1680   -1.0496    0.0000 H   0  0  0  0  0  0  0  0  0  0  0  0
   12.7774   -0.5405    0.0000 H   0  0  0  0  0  0  0  0  0  0  0  0
   12.3111   -2.7158    0.0000 H   0  0  0  0  0  0  0  0  0  0  0  0
   14.1135   -2.5295    0.0000 H   0  0  0  0  0  0  0  0  0  0  0  0
   11.3734    4.0103    0.0000 H   0  0  0  0  0  0  0  0  0  0  0  0
   12.2833    2.8419    0.0000 H   0  0  0  0  0  0  0  0  0  0  0  0
   13.6756    3.3462    0.0000 H   0  0  0  0  0  0  0  0  0  0  0  0
   12.2034    5.2367    0.0000 H   0  0  0  0  0  0  0  0  0  0  0  0
    7.8878   -2.7460    0.0000 H   0  0  0  0  0  0  0  0  0  0  0  0
    8.5395   -1.4162    0.0000 H   0  0  0  0  0  0  0  0  0  0  0  0
    6.4218   -2.5371    0.0000 H   0  0  0  0  0  0  0  0  0  0  0  0
    6.4249   -0.7251    0.0000 H   0  0  0  0  0  0  0  0  0  0  0  0
   10.9836   -2.9318    0.0000 H   0  0  0  0  0  0  0  0  0  0  0  0
   11.7762   -3.0165    0.0000 H   0  0  0  0  0  0  0  0  0  0  0  0
   14.0292    2.0486    0.0000 H   0  0  0  0  0  0  0  0  0  0  0  0
   14.0306    2.8457    0.0000 H   0  0  0  0  0  0  0  0  0  0  0  0
    7.3438    0.2137    0.0000 H   0  0  0  0  0  0  0  0  0  0  0  0
    6.7524    0.7480    0.0000 H   0  0  0  0  0  0  0  0  0  0  0  0
   12.0790    0.2147    0.0000 H   0  0  0  0  0  0  0  0  0  0  0  0
   10.7854    2.8091    0.0000 H   0  0  0  0  0  0  0  0  0  0  0  0
   15.0220   -3.5850    0.0000 H   0  0  0  0  0  0  0  0  0  0  0  0
    8.7339    0.0693    0.0000 H   0  0  0  0  0  0  0  0  0  0  0  0
   14.2567    6.1331    0.0000 H   0  0  0  0  0  0  0  0  0  0  0  0
    7.9272   -4.1964    0.0000 H   0  0  0  0  0  0  0  0  0  0  0  0
   14.4199    1.8344    0.0000 H   0  0  0  0  0  0  0  0  0  0  0  0
    5.5614    0.9280    0.0000 H   0  0  0  0  0  0  0  0  0  0  0  0
    9.7480   -3.7330    0.0000 H   0  0  0  0  0  0  0  0  0  0  0  0
   16.5445    0.6415    0.0000 H   0  0  0  0  0  0  0  0  0  0  0  0
    8.9299    4.9678    0.0000 H   0  0  0  0  0  0  0  0  0  0  0  0
    9.8941    7.2056    0.0000 H   0  0  0  0  0  0  0  0  0  0  0  0
    3.5084   -3.3864    0.0000 H   0  0  0  0  0  0  0  0  0  0  0  0
    8.7577    4.5569    0.0000 H   0  0  0  0  0  0  0  0  0  0  0  0
    7.9649    4.4750    0.0000 H   0  0  0  0  0  0  0  0  0  0  0  0
    5.4483   -6.5064    0.0000 H   0  0  0  0  0  0  0  0  0  0  0  0
   18.8055   -1.6763    0.0000 H   0  0  0  0  0  0  0  0  0  0  0  0
   18.2654   -2.6044    0.0000 H   0  0  0  0  0  0  0  0  0  0  0  0
   11.9629    9.6964    0.0000 H   0  0  0  0  0  0  0  0  0  0  0  0
   12.9425    9.2563    0.0000 H   0  0  0  0  0  0  0  0  0  0  0  0
    7.2525    2.9437    0.0000 H   0  0  0  0  0  0  0  0  0  0  0  0
    8.0453    3.0256    0.0000 H   0  0  0  0  0  0  0  0  0  0  0  0
    3.8333   -6.1138    0.0000 H   0  0  0  0  0  0  0  0  0  0  0  0
    3.4348   -6.8041    0.0000 H   0  0  0  0  0  0  0  0  0  0  0  0
    5.5296    2.7656    0.0000 H   0  0  0  0  0  0  0  0  0  0  0  0
    6.3224    2.8476    0.0000 H   0  0  0  0  0  0  0  0  0  0  0  0
    2.6424   -7.8864    0.0000 H   0  0  0  0  0  0  0  0  0  0  0  0
    5.4483   -7.8864    0.0000 H   0  0  0  0  0  0  0  0  0  0  0  0
    2.6424   -9.5064    0.0000 H   0  0  0  0  0  0  0  0  0  0  0  0
    5.4483   -9.5064    0.0000 H   0  0  0  0  0  0  0  0  0  0  0  0
    4.0454  -10.3164    0.0000 H   0  0  0  0  0  0  0  0  0  0  0  0
    4.0382    2.5745    0.0000 H   0  0  0  0  0  0  0  0  0  0  0  0
    5.3057    6.8844    0.0000 H   0  0  0  0  0  0  0  0  0  0  0  0
    2.1122    6.3492    0.0000 H   0  0  0  0  0  0  0  0  0  0  0  0
    2.0000    5.2812    0.0000 H   0  0  0  0  0  0  0  0  0  0  0  0
  1  6  1  0  0  0  0
  1 12  1  0  0  0  0
  1 15  1  0  0  0  0
  1 18  2  0  0  0  0
  2  8  1  0  0  0  0
  2 11  1  0  0  0  0
  2 17  1  0  0  0  0
  2 19  2  0  0  0  0
  3 10  1  0  0  0  0
  3 20  1  0  0  0  0
  3 21  1  0  0  0  0
  3 22  2  0  0  0  0
  4 46  1  0  0  0  0
  4 47  1  0  0  0  0
  5 50  1  0  0  0  0
  5 51  1  0  0  0  0
 44  6  1  1  0  0  0
  7 54  1  0  0  0  0
  7 55  1  0  0  0  0
 52  8  1  1  0  0  0
 45  9  1  1  0  0  0
  9107  1  0  0  0  0
 48 10  1  1  0  0  0
 11 56  1  0  0  0  0
 12 57  1  0  0  0  0
 49 13  1  1  0  0  0
 13108  1  0  0  0  0
 53 14  1  1  0  0  0
 14110  1  0  0  0  0
 15113  1  0  0  0  0
 16 58  1  0  0  0  0
 16114  1  0  0  0  0
 17115  1  0  0  0  0
 20 74  1  0  0  0  0
 21117  1  0  0  0  0
 23 75  1  0  0  0  0
 23 78  1  0  0  0  0
 47 24  1  6  0  0  0
 24 59  1  0  0  0  0
 24 60  1  0  0  0  0
 51 25  1  6  0  0  0
 25 61  1  0  0  0  0
 25 63  1  0  0  0  0
 54 26  1  6  0  0  0
 26 62  1  0  0  0  0
 26 65  1  0  0  0  0
 27 60  2  0  0  0  0
 27 64  1  0  0  0  0
 28 63  2  0  0  0  0
 28 66  1  0  0  0  0
 29 59  2  0  0  0  0
 29 71  1  0  0  0  0
 30 65  2  0  0  0  0
 30 67  1  0  0  0  0
 31 61  2  0  0  0  0
 31 72  1  0  0  0  0
 32 62  2  0  0  0  0
 32 73  1  0  0  0  0
 33 68  1  0  0  0  0
 33 71  2  0  0  0  0
 34 69  1  0  0  0  0
 34 72  2  0  0  0  0
 35 70  1  0  0  0  0
 35 73  2  0  0  0  0
 36 70  1  0  0  0  0
 36 76  1  0  0  0  0
 36122  1  0  0  0  0
 37 68  1  0  0  0  0
 37123  1  0  0  0  0
 37124  1  0  0  0  0
 38 69  1  0  0  0  0
 38125  1  0  0  0  0
 38126  1  0  0  0  0
 39 78  1  0  0  0  0
 39 84  1  0  0  0  0
 39 85  1  0  0  0  0
 40 85  2  0  0  0  0
 40 86  1  0  0  0  0
 41 84  2  0  0  0  0
 41 88  1  0  0  0  0
 42 87  1  0  0  0  0
 42 88  2  0  0  0  0
 43 87  1  0  0  0  0
 43140  1  0  0  0  0
 43141  1  0  0  0  0
 44 45  1  0  0  0  0
 44 47  1  0  0  0  0
 44 89  1  0  0  0  0
 45 46  1  0  0  0  0
 45 90  1  0  0  0  0
 46 56  1  6  0  0  0
 46 91  1  0  0  0  0
 47 92  1  0  0  0  0
 48 49  1  0  0  0  0
 48 51  1  0  0  0  0
 48 93  1  0  0  0  0
 49 50  1  0  0  0  0
 49 94  1  0  0  0  0
 50 57  1  6  0  0  0
 50 95  1  0  0  0  0
 51 96  1  0  0  0  0
 52 53  1  0  0  0  0
 52 54  1  0  0  0  0
 52 97  1  0  0  0  0
 53 55  1  0  0  0  0
 53 98  1  0  0  0  0
 54 99  1  0  0  0  0
 55 58  1  6  0  0  0
 55100  1  0  0  0  0
 56101  1  0  0  0  0
 56102  1  0  0  0  0
 57103  1  0  0  0  0
 57104  1  0  0  0  0
 58105  1  0  0  0  0
 58106  1  0  0  0  0
 59 64  1  0  0  0  0
 60109  1  0  0  0  0
 61 66  1  0  0  0  0
 62 67  1  0  0  0  0
 63111  1  0  0  0  0
 64 68  2  0  0  0  0
 65112  1  0  0  0  0
 66 69  2  0  0  0  0
 67 70  2  0  0  0  0
 71116  1  0  0  0  0
 72118  1  0  0  0  0
 73119  1  0  0  0  0
 74 75  1  0  0  0  0
 74120  1  0  0  0  0
 74121  1  0  0  0  0
 75127  1  0  0  0  0
 75128  1  0  0  0  0
 76 77  1  0  0  0  0
 76129  1  0  0  0  0
 76130  1  0  0  0  0
 77 79  2  0  0  0  0
 77 80  1  0  0  0  0
 78131  1  0  0  0  0
 78132  1  0  0  0  0
 79 81  1  0  0  0  0
 79133  1  0  0  0  0
 80 82  2  0  0  0  0
 80134  1  0  0  0  0
 81 83  2  0  0  0  0
 81135  1  0  0  0  0
 82 83  1  0  0  0  0
 82136  1  0  0  0  0
 83137  1  0  0  0  0
 84 86  1  0  0  0  0
 85138  1  0  0  0  0
 86 87  2  0  0  0  0
 88139  1  0  0  0  0
M  END
> <PUBCHEM_COMPOUND_CID>
501010
> <PUBCHEM_COMPOUND_CANONICALIZED>
1
> <PUBCHEM_CACTVS_COMPLEXITY>
2460
> <PUBCHEM_CACTVS_HBOND_ACCEPTOR>
36
> <PUBCHEM_CACTVS_HBOND_DONOR>
11
> <PUBCHEM_CACTVS_ROTATABLE_BOND>
25
> <PUBCHEM_CACTVS_SUBSKEYS>
AAADcfB//gMAAAAAAAAAAAAAAAAAAWLFixI8WLFiAAAAAFgB/gAAHgAQCCAADBzhnwY18L/MFxCgQyZjZICCgC0xEKAJ2KAoVJiLeCLA2VGeZAhvgALbiCfwsAIOAAAAAAAAAAAAAAAAAAAAAAAAAAAAAA==
> <PUBCHEM_IUPAC_OPENEYE_NAME>
[(2R,3R,4R,5R)-5-(6-aminopurin-9-yl)-4-[[(2R,3R,4R,5R)-5-(6-aminopurin-9-yl)-4-[2-[(6-aminopurin-9-yl)methoxy]ethoxy-hydroxy-phosphoryl]oxy-3-hydroxy-tetrahydrofuran-2-yl]methoxy-hydroxy-phosphoryl]oxy-3-hydroxy-tetrahydrofuran-2-yl]methyl [(2R,3R,4R,5R)-2-[6-(benzylamino)purin-9-yl]-4-hydroxy-5-(hydroxymethyl)tetrahydrofuran-3-yl] hydrogen phosphate
> <PUBCHEM_IUPAC_CAS_NAME>
[(2R,3R,4R,5R)-5-(6-aminopurin-9-yl)-4-[[(2R,3R,4R,5R)-5-(6-aminopurin-9-yl)-4-[2-[(6-aminopurin-9-yl)methoxy]ethoxy-hydroxyphosphoryl]oxy-3-hydroxy-2-oxolanyl]methoxy-hydroxyphosphoryl]oxy-3-hydroxy-2-oxolanyl]methyl [(2R,3R,4R,5R)-4-hydroxy-5-(hydroxymethyl)-2-[6-[(phenylmethyl)amino]-9-purinyl]-3-oxolanyl] hydrogen phosphate
> <PUBCHEM_IUPAC_NAME_MARKUP>
[(2<I>R</I>,3<I>R</I>,4<I>R</I>,5<I>R</I>)-5-(6-aminopurin-9-yl)-4-[[(2<I>R</I>,3<I>R</I>,4<I>R</I>,5<I>R</I>)-5-(6-aminopurin-9-yl)-4-[2-[(6-aminopurin-9-yl)methoxy]ethoxy-hydroxyphosphoryl]oxy-3-hydroxyoxolan-2-yl]methoxy-hydroxyphosphoryl]oxy-3-hydroxyoxolan-2-yl]methyl [(2<I>R</I>,3<I>R</I>,4<I>R</I>,5<I>R</I>)-2-[6-(benzylamino)purin-9-yl]-4-hydroxy-5-(hydroxymethyl)oxolan-3-yl] hydrogen phosphate
> <PUBCHEM_IUPAC_NAME>
[(2R,3R,4R,5R)-5-(6-aminopurin-9-yl)-4-[[(2R,3R,4R,5R)-5-(6-aminopurin-9-yl)-4-[2-[(6-aminopurin-9-yl)methoxy]ethoxy-hydroxyphosphoryl]oxy-3-hydroxyoxolan-2-yl]methoxy-hydroxyphosphoryl]oxy-3-hydroxyoxolan-2-yl]methyl [(2R,3R,4R,5R)-2-[6-(benzylamino)purin-9-yl]-4-hydroxy-5-(hydroxymethyl)oxolan-3-yl] hydrogen phosphate
> <PUBCHEM_IUPAC_SYSTEMATIC_NAME>
[(2R,3R,4R,5R)-5-(6-aminopurin-9-yl)-4-[[(2R,3R,4R,5R)-5-(6-aminopurin-9-yl)-4-[2-[(6-aminopurin-9-yl)methoxy]ethoxy-oxidanyl-phosphoryl]oxy-3-oxidanyl-oxolan-2-yl]methoxy-oxidanyl-phosphoryl]oxy-3-oxidanyl-oxolan-2-yl]methyl [(2R,3R,4R,5R)-5-(hydroxymethyl)-4-oxidanyl-2-[6-[(phenylmethyl)amino]purin-9-yl]oxolan-3-yl] hydrogen phosphate
> <PUBCHEM_IUPAC_TRADITIONAL_NAME>
[(2R,3R,4R,5R)-5-adenin-9-yl-4-[[(2R,3R,4R,5R)-5-adenin-9-yl-4-[2-(adenin-9-ylmethoxy)ethoxy-hydroxy-phosphoryl]oxy-3-hydroxy-tetrahydrofuran-2-yl]methoxy-hydroxy-phosphoryl]oxy-3-hydroxy-tetrahydrofuran-2-yl]methyl [(2R,3R,4R,5R)-2-[6-(benzylamino)purin-9-yl]-4-hydroxy-5-methylol-tetrahydrofuran-3-yl] hydrogen phosphate
> <PUBCHEM_IUPAC_INCHI>
InChI=1S/C45H53N20O20P3/c46-35-25-39(54-12-50-35)62(16-58-25)20-76-6-7-77-86(70,71)83-33-30(68)23(81-44(33)63-17-59-26-36(47)51-13-55-40(26)63)10-79-88(74,75)85-34-31(69)24(82-45(34)64-18-60-27-37(48)52-14-56-41(27)64)11-78-87(72,73)84-32-29(67)22(9-66)80-43(32)65-19-61-28-38(53-15-57-42(28)65)49-8-21-4-2-1-3-5-21/h1-5,12-19,22-24,29-34,43-45,66-69H,6-11,20H2,(H,70,71)(H,72,73)(H,74,75)(H2,46,50,54)(H2,47,51,55)(H2,48,52,56)(H,49,53,57)/t22-,23-,24-,29-,30-,31-,32-,33-,34-,43-,44-,45-/m1/s1
> <PUBCHEM_IUPAC_INCHIKEY>
VYYNHGKGEPEGDB-PGVFQOOMSA-N
> <PUBCHEM_XLOGP3_AA>
-6.1
> <PUBCHEM_EXACT_MASS>
1286.29578515
> <PUBCHEM_MOLECULAR_FORMULA>
C45H53N20O20P3
> <PUBCHEM_MOLECULAR_WEIGHT>
1286.9
> <PUBCHEM_OPENEYE_CAN_SMILES>
C1=CC=C(C=C1)CNC2=C3C(=NC=N2)N(C=N3)C4C(C(C(O4)CO)O)OP(=O)(O)OCC5C(C(C(O5)N6C=NC7=C(N=CN=C76)N)OP(=O)(O)OCC8C(C(C(O8)N9C=NC1=C(N=CN=C19)N)OP(=O)(O)OCCOCN1C=NC2=C(N=CN=C21)N)O)O
> <PUBCHEM_OPENEYE_ISO_SMILES>
C1=CC=C(C=C1)CNC2=C3C(=NC=N2)N(C=N3)[C@H]4[C@@H]([C@@H]([C@H](O4)CO)O)OP(=O)(O)OC[C@@H]5[C@H]([C@H]([C@@H](O5)N6C=NC7=C(N=CN=C76)N)OP(=O)(O)OC[C@@H]8[C@H]([C@H]([C@@H](O8)N9C=NC1=C(N=CN=C19)N)OP(=O)(O)OCCOCN1C=NC2=C(N=CN=C21)N)O)O
> <PUBCHEM_CACTVS_TPSA>
550
> <PUBCHEM_MONOISOTOPIC_WEIGHT>
1286.29578515
> <PUBCHEM_TOTAL_CHARGE>
0
> <PUBCHEM_HEAVY_ATOM_COUNT>
88
> <PUBCHEM_ATOM_DEF_STEREO_COUNT>
12
> <PUBCHEM_ATOM_UDEF_STEREO_COUNT>
0
> <PUBCHEM_BOND_DEF_STEREO_COUNT>
0
> <PUBCHEM_BOND_UDEF_STEREO_COUNT>
0
> <PUBCHEM_ISOTOPIC_ATOM_COUNT>
0
> <PUBCHEM_COMPONENT_COUNT>
1
> <PUBCHEM_CACTVS_TAUTO_COUNT>
-1
> <PUBCHEM_COORDINATE_TYPE>
1
5
255
> <PUBCHEM_BONDANNOTATIONS>
48  10  5
49  13  5
53  14  5
47  24  6
24  59  8
24  60  8
51  25  6
25  61  8
25  63  8
54  26  6
26  62  8
26  65  8
27  60  8
27  64  8
28  63  8
28  66  8
29  59  8
29  71  8
30  65  8
30  67  8
31  61  8
31  72  8
32  62  8
32  73  8
33  68  8
33  71  8
34  69  8
34  72  8
35  70  8
35  73  8
39  84  8
39  85  8
40  85  8
40  86  8
41  84  8
41  88  8
42  87  8
42  88  8
46  56  6
50  57  6
55  58  6
59  64  8
44  6  5
61  66  8
62  67  8
64  68  8
66  69  8
67  70  8
77  79  8
77  80  8
79  81  8
52  8  5
80  82  8
81  83  8
82  83  8
84  86  8
86  87  8
45  9  5
$$$$
