501009
  -OEChem-10302200282D
138149  0     1  0  0  0  0  0999 V2000
   12.3726   -1.4514    0.0000 P   0  0  3  0  0  0  0  0  0  0  0  0
    8.5288   -4.4852    0.0000 P   0  0  3  0  0  0  0  0  0  0  0  0
   12.5639    4.1302    0.0000 P   0  0  3  0  0  0  0  0  0  0  0  0
   12.0304   -4.7656    0.0000 O   0  0  0  0  0  0  0  0  0  0  0  0
   10.8827    1.2537    0.0000 O   0  0  0  0  0  0  0  0  0  0  0  0
    5.2686   -3.7985    0.0000 O   0  0  0  0  0  0  0  0  0  0  0  0
   12.8711   -2.3183    0.0000 O   0  0  0  0  0  0  0  0  0  0  0  0
    7.6146   -4.8904    0.0000 O   0  0  0  0  0  0  0  0  0  0  0  0
   10.7070   -2.5420    0.0000 O   0  0  0  0  0  0  0  0  0  0  0  0
   11.6497    3.7251    0.0000 O   0  0  0  0  0  0  0  0  0  0  0  0
    9.4430   -4.0801    0.0000 O   0  0  0  0  0  0  0  0  0  0  0  0
   11.8741   -0.5846    0.0000 O   0  0  0  0  0  0  0  0  0  0  0  0
   13.2639    2.2666    0.0000 O   0  0  0  0  0  0  0  0  0  0  0  0
    7.6183   -2.7148    0.0000 O   0  0  0  0  0  0  0  0  0  0  0  0
    4.5726   -1.8293    0.0000 O   0  0  0  0  0  0  0  0  0  0  0  0
   13.2395   -0.9529    0.0000 O   0  5  0  0  0  0  0  0  0  0  0  0
   11.5057   -1.9500    0.0000 O   0  0  0  0  0  0  0  0  0  0  0  0
    8.9340   -5.3995    0.0000 O   0  5  0  0  0  0  0  0  0  0  0  0
    8.1236   -3.5710    0.0000 O   0  0  0  0  0  0  0  0  0  0  0  0
   13.4782    4.5354    0.0000 O   0  0  0  0  0  0  0  0  0  0  0  0
   12.1588    5.0445    0.0000 O   0  5  0  0  0  0  0  0  0  0  0  0
   12.9691    3.2160    0.0000 O   0  0  0  0  0  0  0  0  0  0  0  0
   14.6049    6.9292    0.0000 O   0  0  0  0  0  0  0  0  0  0  0  0
   13.7525   -4.3073    0.0000 N   0  0  0  0  0  0  0  0  0  0  0  0
    9.7637    2.6406    0.0000 N   0  0  0  0  0  0  0  0  0  0  0  0
    5.5443   -5.5591    0.0000 N   0  0  0  0  0  0  0  0  0  0  0  0
   15.1436   -5.1169    0.0000 N   0  0  0  0  0  0  0  0  0  0  0  0
    8.1630    2.8088    0.0000 N   0  0  0  0  0  0  0  0  0  0  0  0
    5.5443   -7.1685    0.0000 N   0  0  0  0  0  0  0  0  0  0  0  0
   14.4953   -2.6428    0.0000 N   0  0  0  0  0  0  0  0  0  0  0  0
   10.1473    4.4225    0.0000 N   0  0  0  0  0  0  0  0  0  0  0  0
    3.7320   -5.3638    0.0000 N   0  0  0  0  0  0  0  0  0  0  0  0
   16.2274   -2.6488    0.0000 N   0  0  0  0  0  0  0  0  0  0  0  0
    8.7461    5.4405    0.0000 N   0  0  0  0  0  0  0  0  0  0  0  0
    2.8660   -6.8638    0.0000 N   0  0  0  0  0  0  0  0  0  0  0  0
    3.7320   -8.3638    0.0000 N   0  0  0  0  0  0  0  0  0  0  0  0
   17.0882   -4.1518    0.0000 N   0  0  0  0  0  0  0  0  0  0  0  0
    7.1638    4.7360    0.0000 N   0  0  0  0  0  0  0  0  0  0  0  0
   15.6254    8.3287    0.0000 N   0  0  0  0  0  0  0  0  0  0  0  0
   15.2908    9.9030    0.0000 N   0  0  0  0  0  0  0  0  0  0  0  0
   17.4387    8.5145    0.0000 N   0  0  0  0  0  0  0  0  0  0  0  0
   17.9739   10.1618    0.0000 N   0  0  0  0  0  0  0  0  0  0  0  0
   16.8149   11.4490    0.0000 N   0  0  0  0  0  0  0  0  0  0  0  0
   12.3696   -3.1835    0.0000 C   0  0  2  0  0  0  0  0  0  0  0  0
   11.3749   -3.2863    0.0000 C   0  0  1  0  0  0  0  0  0  0  0  0
   11.1653   -4.2641    0.0000 C   0  0  1  0  0  0  0  0  0  0  0  0
   12.7747   -4.0977    0.0000 C   0  0  1  0  0  0  0  0  0  0  0  0
   11.5434    2.7307    0.0000 C   0  0  2  0  0  0  0  0  0  0  0  0
   12.2854    2.0603    0.0000 C   0  0  1  0  0  0  0  0  0  0  0  0
   11.8771    1.1475    0.0000 C   0  0  1  0  0  0  0  0  0  0  0  0
   10.6765    2.2322    0.0000 C   0  0  1  0  0  0  0  0  0  0  0  0
    6.8066   -4.3012    0.0000 C   0  0  2  0  0  0  0  0  0  0  0  0
    6.8083   -3.3012    0.0000 C   0  0  1  0  0  0  0  0  0  0  0  0
    5.8550   -4.6086    0.0000 C   0  0  1  0  0  0  0  0  0  0  0  0
    5.8578   -2.9905    0.0000 C   0  0  1  0  0  0  0  0  0  0  0  0
   10.2510   -4.6692    0.0000 C   0  0  0  0  0  0  0  0  0  0  0  0
   12.3756    0.2806    0.0000 C   0  0  0  0  0  0  0  0  0  0  0  0
    5.5504   -2.0389    0.0000 C   0  0  0  0  0  0  0  0  0  0  0  0
   14.4919   -3.6428    0.0000 C   0  0  0  0  0  0  0  0  0  0  0  0
   14.1545   -5.2165    0.0000 C   0  0  0  0  0  0  0  0  0  0  0  0
    9.5595    3.6134    0.0000 C   0  0  0  0  0  0  0  0  0  0  0  0
    4.5981   -5.8638    0.0000 C   0  0  0  0  0  0  0  0  0  0  0  0
    8.9024    2.1443    0.0000 C   0  0  0  0  0  0  0  0  0  0  0  0
   15.3561   -4.1458    0.0000 C   0  0  0  0  0  0  0  0  0  0  0  0
    6.1279   -6.3638    0.0000 C   0  0  0  0  0  0  0  0  0  0  0  0
    8.5650    3.7180    0.0000 C   0  0  0  0  0  0  0  0  0  0  0  0
    4.5981   -6.8638    0.0000 C   0  0  0  0  0  0  0  0  0  0  0  0
   16.2239   -3.6488    0.0000 C   0  0  0  0  0  0  0  0  0  0  0  0
    3.7320   -7.3638    0.0000 C   0  0  0  0  0  0  0  0  0  0  0  0
    8.1583    4.6315    0.0000 C   0  0  0  0  0  0  0  0  0  0  0  0
   15.3631   -2.1458    0.0000 C   0  0  0  0  0  0  0  0  0  0  0  0
    9.7406    5.3360    0.0000 C   0  0  0  0  0  0  0  0  0  0  0  0
    2.8660   -5.8638    0.0000 C   0  0  0  0  0  0  0  0  0  0  0  0
   13.5844    5.5297    0.0000 C   0  0  0  0  0  0  0  0  0  0  0  0
    2.8660   -8.8638    0.0000 C   0  0  0  0  0  0  0  0  0  0  0  0
   14.4987    5.9349    0.0000 C   0  0  0  0  0  0  0  0  0  0  0  0
    2.8660   -9.8638    0.0000 C   0  0  0  0  0  0  0  0  0  0  0  0
    2.0000  -10.3638    0.0000 C   0  0  0  0  0  0  0  0  0  0  0  0
    3.7320  -10.3638    0.0000 C   0  0  0  0  0  0  0  0  0  0  0  0
   15.5192    7.3344    0.0000 C   0  0  0  0  0  0  0  0  0  0  0  0
    2.0000  -11.3638    0.0000 C   0  0  0  0  0  0  0  0  0  0  0  0
    3.7320  -11.3638    0.0000 C   0  0  0  0  0  0  0  0  0  0  0  0
    2.8660  -11.8638    0.0000 C   0  0  0  0  0  0  0  0  0  0  0  0
   16.4876    8.8235    0.0000 C   0  0  0  0  0  0  0  0  0  0  0  0
   14.8872    8.9945    0.0000 C   0  0  0  0  0  0  0  0  0  0  0  0
   16.2797    9.8017    0.0000 C   0  0  0  0  0  0  0  0  0  0  0  0
   17.0228   10.4708    0.0000 C   0  0  0  0  0  0  0  0  0  0  0  0
   18.1818    9.1836    0.0000 C   0  0  0  0  0  0  0  0  0  0  0  0
   12.0328   -2.6629    0.0000 H   0  0  0  0  0  0  0  0  0  0  0  0
   11.5981   -2.7079    0.0000 H   0  0  0  0  0  0  0  0  0  0  0  0
   11.1318   -4.8832    0.0000 H   0  0  0  0  0  0  0  0  0  0  0  0
   12.9342   -4.6969    0.0000 H   0  0  0  0  0  0  0  0  0  0  0  0
   12.1226    2.9519    0.0000 H   0  0  0  0  0  0  0  0  0  0  0  0
   12.4469    2.6589    0.0000 H   0  0  0  0  0  0  0  0  0  0  0  0
   11.5385    0.6281    0.0000 H   0  0  0  0  0  0  0  0  0  0  0  0
   10.1940    1.8429    0.0000 H   0  0  0  0  0  0  0  0  0  0  0  0
    6.7085   -4.9134    0.0000 H   0  0  0  0  0  0  0  0  0  0  0  0
    7.3602   -3.5836    0.0000 H   0  0  0  0  0  0  0  0  0  0  0  0
    6.2926   -5.0477    0.0000 H   0  0  0  0  0  0  0  0  0  0  0  0
    5.2456   -2.8925    0.0000 H   0  0  0  0  0  0  0  0  0  0  0  0
    9.8043   -5.0992    0.0000 H   0  0  0  0  0  0  0  0  0  0  0  0
   10.5969   -5.1838    0.0000 H   0  0  0  0  0  0  0  0  0  0  0  0
   12.8498   -0.1188    0.0000 H   0  0  0  0  0  0  0  0  0  0  0  0
   12.8512    0.6783    0.0000 H   0  0  0  0  0  0  0  0  0  0  0  0
    6.1645   -1.9537    0.0000 H   0  0  0  0  0  0  0  0  0  0  0  0
    5.5731   -1.4193    0.0000 H   0  0  0  0  0  0  0  0  0  0  0  0
   10.8997   -1.9527    0.0000 H   0  0  0  0  0  0  0  0  0  0  0  0
   13.4565    2.8559    0.0000 H   0  0  0  0  0  0  0  0  0  0  0  0
   13.8426   -5.7524    0.0000 H   0  0  0  0  0  0  0  0  0  0  0  0
    7.5546   -2.0981    0.0000 H   0  0  0  0  0  0  0  0  0  0  0  0
    8.8376    1.5277    0.0000 H   0  0  0  0  0  0  0  0  0  0  0  0
    6.7479   -6.3638    0.0000 H   0  0  0  0  0  0  0  0  0  0  0  0
    4.3820   -1.2394    0.0000 H   0  0  0  0  0  0  0  0  0  0  0  0
   15.3652   -1.5258    0.0000 H   0  0  0  0  0  0  0  0  0  0  0  0
   10.1050    5.8376    0.0000 H   0  0  0  0  0  0  0  0  0  0  0  0
    2.3291   -5.5538    0.0000 H   0  0  0  0  0  0  0  0  0  0  0  0
   13.4355    6.1316    0.0000 H   0  0  0  0  0  0  0  0  0  0  0  0
   12.9659    5.4876    0.0000 H   0  0  0  0  0  0  0  0  0  0  0  0
    4.2690   -8.6738    0.0000 H   0  0  0  0  0  0  0  0  0  0  0  0
   17.6262   -3.8437    0.0000 H   0  0  0  0  0  0  0  0  0  0  0  0
   17.0860   -4.7718    0.0000 H   0  0  0  0  0  0  0  0  0  0  0  0
    6.9116    5.3024    0.0000 H   0  0  0  0  0  0  0  0  0  0  0  0
    6.7993    4.2345    0.0000 H   0  0  0  0  0  0  0  0  0  0  0  0
    2.6540   -8.2812    0.0000 H   0  0  0  0  0  0  0  0  0  0  0  0
    2.2554   -8.9715    0.0000 H   0  0  0  0  0  0  0  0  0  0  0  0
   14.6476    5.3330    0.0000 H   0  0  0  0  0  0  0  0  0  0  0  0
   15.1172    5.9771    0.0000 H   0  0  0  0  0  0  0  0  0  0  0  0
    1.4631  -10.0538    0.0000 H   0  0  0  0  0  0  0  0  0  0  0  0
    4.2690  -10.0538    0.0000 H   0  0  0  0  0  0  0  0  0  0  0  0
   15.6681    6.7325    0.0000 H   0  0  0  0  0  0  0  0  0  0  0  0
   16.1377    7.3766    0.0000 H   0  0  0  0  0  0  0  0  0  0  0  0
    1.4631  -11.6738    0.0000 H   0  0  0  0  0  0  0  0  0  0  0  0
    4.2690  -11.6738    0.0000 H   0  0  0  0  0  0  0  0  0  0  0  0
    2.8660  -12.4838    0.0000 H   0  0  0  0  0  0  0  0  0  0  0  0
   14.2808    8.8656    0.0000 H   0  0  0  0  0  0  0  0  0  0  0  0
   18.7715    8.9921    0.0000 H   0  0  0  0  0  0  0  0  0  0  0  0
   17.2757   11.8638    0.0000 H   0  0  0  0  0  0  0  0  0  0  0  0
   16.2253   11.6405    0.0000 H   0  0  0  0  0  0  0  0  0  0  0  0
  1  7  1  0  0  0  0
  1 12  1  0  0  0  0
  1 16  1  0  0  0  0
  1 17  2  0  0  0  0
  2  8  1  0  0  0  0
  2 11  1  0  0  0  0
  2 18  1  0  0  0  0
  2 19  2  0  0  0  0
  3 10  1  0  0  0  0
  3 20  1  0  0  0  0
  3 21  1  0  0  0  0
  3 22  2  0  0  0  0
  4 46  1  0  0  0  0
  4 47  1  0  0  0  0
  5 50  1  0  0  0  0
  5 51  1  0  0  0  0
  6 54  1  0  0  0  0
  6 55  1  0  0  0  0
 44  7  1  1  0  0  0
 52  8  1  1  0  0  0
 45  9  1  1  0  0  0
  9107  1  0  0  0  0
 48 10  1  6  0  0  0
 11 56  1  0  0  0  0
 12 57  1  0  0  0  0
 49 13  1  6  0  0  0
 13108  1  0  0  0  0
 53 14  1  1  0  0  0
 14110  1  0  0  0  0
 15 58  1  0  0  0  0
 15113  1  0  0  0  0
 20 74  1  0  0  0  0
 23 76  1  0  0  0  0
 23 80  1  0  0  0  0
 47 24  1  6  0  0  0
 24 59  1  0  0  0  0
 24 60  1  0  0  0  0
 51 25  1  1  0  0  0
 25 61  1  0  0  0  0
 25 63  1  0  0  0  0
 54 26  1  6  0  0  0
 26 62  1  0  0  0  0
 26 65  1  0  0  0  0
 27 60  2  0  0  0  0
 27 64  1  0  0  0  0
 28 63  2  0  0  0  0
 28 66  1  0  0  0  0
 29 65  2  0  0  0  0
 29 67  1  0  0  0  0
 30 59  2  0  0  0  0
 30 71  1  0  0  0  0
 31 61  2  0  0  0  0
 31 72  1  0  0  0  0
 32 62  2  0  0  0  0
 32 73  1  0  0  0  0
 33 68  1  0  0  0  0
 33 71  2  0  0  0  0
 34 70  1  0  0  0  0
 34 72  2  0  0  0  0
 35 69  1  0  0  0  0
 35 73  2  0  0  0  0
 36 69  1  0  0  0  0
 36 75  1  0  0  0  0
 36119  1  0  0  0  0
 37 68  1  0  0  0  0
 37120  1  0  0  0  0
 37121  1  0  0  0  0
 38 70  1  0  0  0  0
 38122  1  0  0  0  0
 38123  1  0  0  0  0
 39 80  1  0  0  0  0
 39 84  1  0  0  0  0
 39 85  1  0  0  0  0
 40 85  2  0  0  0  0
 40 86  1  0  0  0  0
 41 84  2  0  0  0  0
 41 88  1  0  0  0  0
 42 87  1  0  0  0  0
 42 88  2  0  0  0  0
 43 87  1  0  0  0  0
 43137  1  0  0  0  0
 43138  1  0  0  0  0
 44 45  1  0  0  0  0
 44 47  1  0  0  0  0
 44 89  1  0  0  0  0
 45 46  1  0  0  0  0
 45 90  1  0  0  0  0
 46 56  1  6  0  0  0
 46 91  1  0  0  0  0
 47 92  1  0  0  0  0
 48 49  1  0  0  0  0
 48 51  1  0  0  0  0
 48 93  1  0  0  0  0
 49 50  1  0  0  0  0
 49 94  1  0  0  0  0
 50 57  1  1  0  0  0
 50 95  1  0  0  0  0
 51 96  1  0  0  0  0
 52 53  1  0  0  0  0
 52 54  1  0  0  0  0
 52 97  1  0  0  0  0
 53 55  1  0  0  0  0
 53 98  1  0  0  0  0
 54 99  1  0  0  0  0
 55 58  1  6  0  0  0
 55100  1  0  0  0  0
 56101  1  0  0  0  0
 56102  1  0  0  0  0
 57103  1  0  0  0  0
 57104  1  0  0  0  0
 58105  1  0  0  0  0
 58106  1  0  0  0  0
 59 64  1  0  0  0  0
 60109  1  0  0  0  0
 61 66  1  0  0  0  0
 62 67  1  0  0  0  0
 63111  1  0  0  0  0
 64 68  2  0  0  0  0
 65112  1  0  0  0  0
 66 70  2  0  0  0  0
 67 69  2  0  0  0  0
 71114  1  0  0  0  0
 72115  1  0  0  0  0
 73116  1  0  0  0  0
 74 76  1  0  0  0  0
 74117  1  0  0  0  0
 74118  1  0  0  0  0
 75 77  1  0  0  0  0
 75124  1  0  0  0  0
 75125  1  0  0  0  0
 76126  1  0  0  0  0
 76127  1  0  0  0  0
 77 78  2  0  0  0  0
 77 79  1  0  0  0  0
 78 81  1  0  0  0  0
 78128  1  0  0  0  0
 79 82  2  0  0  0  0
 79129  1  0  0  0  0
 80130  1  0  0  0  0
 80131  1  0  0  0  0
 81 83  2  0  0  0  0
 81132  1  0  0  0  0
 82 83  1  0  0  0  0
 82133  1  0  0  0  0
 83134  1  0  0  0  0
 84 86  1  0  0  0  0
 85135  1  0  0  0  0
 86 87  2  0  0  0  0
 88136  1  0  0  0  0
M  CHG  3  16  -1  18  -1  21  -1
M  END
> <PUBCHEM_COMPOUND_CID>
501009
> <PUBCHEM_COMPOUND_CANONICALIZED>
1
> <PUBCHEM_CACTVS_COMPLEXITY>
2440
> <PUBCHEM_CACTVS_HBOND_ACCEPTOR>
36
> <PUBCHEM_CACTVS_HBOND_DONOR>
8
> <PUBCHEM_CACTVS_ROTATABLE_BOND>
25
> <PUBCHEM_CACTVS_SUBSKEYS>
AAADcfB//gMAAAAAAAAAAAAAAAAAAWLFixI8WLFiAAAAAFgB/gAAHgAQCCAADBzhnwY18L/MFxCgQyZjZICCgC0xEKAJ2KAoVJiLeCLA2VGeZAhvgALbiCfwsAIOAAAAAAAAAAAAAAAAAAAAAAAAAAAAAA==
> <PUBCHEM_IUPAC_OPENEYE_NAME>
[(2R,3R,4R,5R)-5-(6-aminopurin-9-yl)-4-[[(2R,3R,4R,5R)-5-(6-aminopurin-9-yl)-4-[2-[(6-aminopurin-9-yl)methoxy]ethoxy-oxido-phosphoryl]oxy-3-hydroxy-tetrahydrofuran-2-yl]methoxy-oxido-phosphoryl]oxy-3-hydroxy-tetrahydrofuran-2-yl]methyl [(2R,3R,4R,5R)-2-[6-(benzylamino)purin-9-yl]-4-hydroxy-5-(hydroxymethyl)tetrahydrofuran-3-yl] phosphate
> <PUBCHEM_IUPAC_CAS_NAME>
[(2R,3R,4R,5R)-5-(6-aminopurin-9-yl)-4-[[(2R,3R,4R,5R)-5-(6-aminopurin-9-yl)-4-[2-[(6-aminopurin-9-yl)methoxy]ethoxy-oxidophosphoryl]oxy-3-hydroxy-2-oxolanyl]methoxy-oxidophosphoryl]oxy-3-hydroxy-2-oxolanyl]methyl [(2R,3R,4R,5R)-4-hydroxy-5-(hydroxymethyl)-2-[6-[(phenylmethyl)amino]-9-purinyl]-3-oxolanyl] phosphate
> <PUBCHEM_IUPAC_NAME_MARKUP>
[(2<I>R</I>,3<I>R</I>,4<I>R</I>,5<I>R</I>)-5-(6-aminopurin-9-yl)-4-[[(2<I>R</I>,3<I>R</I>,4<I>R</I>,5<I>R</I>)-5-(6-aminopurin-9-yl)-4-[2-[(6-aminopurin-9-yl)methoxy]ethoxy-oxidophosphoryl]oxy-3-hydroxyoxolan-2-yl]methoxy-oxidophosphoryl]oxy-3-hydroxyoxolan-2-yl]methyl [(2<I>R</I>,3<I>R</I>,4<I>R</I>,5<I>R</I>)-2-[6-(benzylamino)purin-9-yl]-4-hydroxy-5-(hydroxymethyl)oxolan-3-yl] phosphate
> <PUBCHEM_IUPAC_NAME>
[(2R,3R,4R,5R)-5-(6-aminopurin-9-yl)-4-[[(2R,3R,4R,5R)-5-(6-aminopurin-9-yl)-4-[2-[(6-aminopurin-9-yl)methoxy]ethoxy-oxidophosphoryl]oxy-3-hydroxyoxolan-2-yl]methoxy-oxidophosphoryl]oxy-3-hydroxyoxolan-2-yl]methyl [(2R,3R,4R,5R)-2-[6-(benzylamino)purin-9-yl]-4-hydroxy-5-(hydroxymethyl)oxolan-3-yl] phosphate
> <PUBCHEM_IUPAC_SYSTEMATIC_NAME>
[(2R,3R,4R,5R)-5-(6-aminopurin-9-yl)-4-[[(2R,3R,4R,5R)-5-(6-aminopurin-9-yl)-4-[2-[(6-aminopurin-9-yl)methoxy]ethoxy-oxidanidyl-phosphoryl]oxy-3-oxidanyl-oxolan-2-yl]methoxy-oxidanidyl-phosphoryl]oxy-3-oxidanyl-oxolan-2-yl]methyl [(2R,3R,4R,5R)-5-(hydroxymethyl)-4-oxidanyl-2-[6-[(phenylmethyl)amino]purin-9-yl]oxolan-3-yl] phosphate
> <PUBCHEM_IUPAC_TRADITIONAL_NAME>
[(2R,3R,4R,5R)-5-adenin-9-yl-4-[[(2R,3R,4R,5R)-5-adenin-9-yl-4-[2-(adenin-9-ylmethoxy)ethoxy-oxido-phosphoryl]oxy-3-hydroxy-tetrahydrofuran-2-yl]methoxy-oxido-phosphoryl]oxy-3-hydroxy-tetrahydrofuran-2-yl]methyl [(2R,3R,4R,5R)-2-[6-(benzylamino)purin-9-yl]-4-hydroxy-5-methylol-tetrahydrofuran-3-yl] phosphate
> <PUBCHEM_IUPAC_INCHI>
InChI=1S/C45H53N20O20P3/c46-35-25-39(54-12-50-35)62(16-58-25)20-76-6-7-77-86(70,71)83-33-30(68)23(81-44(33)63-17-59-26-36(47)51-13-55-40(26)63)10-79-88(74,75)85-34-31(69)24(82-45(34)64-18-60-27-37(48)52-14-56-41(27)64)11-78-87(72,73)84-32-29(67)22(9-66)80-43(32)65-19-61-28-38(53-15-57-42(28)65)49-8-21-4-2-1-3-5-21/h1-5,12-19,22-24,29-34,43-45,66-69H,6-11,20H2,(H,70,71)(H,72,73)(H,74,75)(H2,46,50,54)(H2,47,51,55)(H2,48,52,56)(H,49,53,57)/p-3/t22-,23-,24-,29-,30-,31-,32-,33-,34-,43-,44-,45-/m1/s1
> <PUBCHEM_IUPAC_INCHIKEY>
VYYNHGKGEPEGDB-PGVFQOOMSA-K
> <PUBCHEM_XLOGP3_AA>
-6.3
> <PUBCHEM_EXACT_MASS>
1283.27231006
> <PUBCHEM_MOLECULAR_FORMULA>
C45H50N20O20P3-3
> <PUBCHEM_MOLECULAR_WEIGHT>
1283.9
> <PUBCHEM_OPENEYE_CAN_SMILES>
C1=CC=C(C=C1)CNC2=C3C(=NC=N2)N(C=N3)C4C(C(C(O4)CO)O)OP(=O)([O-])OCC5C(C(C(O5)N6C=NC7=C(N=CN=C76)N)OP(=O)([O-])OCC8C(C(C(O8)N9C=NC1=C(N=CN=C19)N)OP(=O)([O-])OCCOCN1C=NC2=C(N=CN=C21)N)O)O
> <PUBCHEM_OPENEYE_ISO_SMILES>
C1=CC=C(C=C1)CNC2=C3C(=NC=N2)N(C=N3)[C@H]4[C@@H]([C@@H]([C@H](O4)CO)O)OP(=O)([O-])OC[C@@H]5[C@H]([C@H]([C@@H](O5)N6C=NC7=C(N=CN=C76)N)OP(=O)([O-])OC[C@@H]8[C@H]([C@H]([C@@H](O8)N9C=NC1=C(N=CN=C19)N)OP(=O)([O-])OCCOCN1C=NC2=C(N=CN=C21)N)O)O
> <PUBCHEM_CACTVS_TPSA>
558
> <PUBCHEM_MONOISOTOPIC_WEIGHT>
1283.27231006
> <PUBCHEM_TOTAL_CHARGE>
-3
> <PUBCHEM_HEAVY_ATOM_COUNT>
88
> <PUBCHEM_ATOM_DEF_STEREO_COUNT>
12
> <PUBCHEM_ATOM_UDEF_STEREO_COUNT>
0
> <PUBCHEM_BOND_DEF_STEREO_COUNT>
0
> <PUBCHEM_BOND_UDEF_STEREO_COUNT>
0
> <PUBCHEM_ISOTOPIC_ATOM_COUNT>
0
> <PUBCHEM_COMPONENT_COUNT>
1
> <PUBCHEM_CACTVS_TAUTO_COUNT>
-1
> <PUBCHEM_COORDINATE_TYPE>
1
5
255
> <PUBCHEM_BONDANNOTATIONS>
48  10  6
49  13  6
53  14  5
47  24  6
24  59  8
24  60  8
51  25  5
25  61  8
25  63  8
54  26  6
26  62  8
26  65  8
27  60  8
27  64  8
28  63  8
28  66  8
29  65  8
29  67  8
30  59  8
30  71  8
31  61  8
31  72  8
32  62  8
32  73  8
33  68  8
33  71  8
34  70  8
34  72  8
35  69  8
35  73  8
39  84  8
39  85  8
40  85  8
40  86  8
41  84  8
41  88  8
42  87  8
42  88  8
46  56  6
50  57  5
55  58  6
59  64  8
61  66  8
62  67  8
64  68  8
66  70  8
67  69  8
44  7  5
77  78  8
77  79  8
78  81  8
79  82  8
52  8  5
81  83  8
82  83  8
84  86  8
86  87  8
45  9  5
$$$$
