501058
  -OEChem-10302200282D
 67 70  0     1  0  0  0  0  0999 V2000
    7.3900    5.4055    0.0000 F   0  0  0  0  0  0  0  0  0  0  0  0
    2.3644   -3.0309    0.0000 O   0  0  0  0  0  0  0  0  0  0  0  0
    3.7657   -4.0490    0.0000 O   0  0  0  0  0  0  0  0  0  0  0  0
    4.9413   -2.4309    0.0000 N   0  0  3  0  0  0  0  0  0  0  0  0
    7.3900   -0.5945    0.0000 N   0  0  0  0  0  0  0  0  0  0  0  0
    6.5239   -2.0945    0.0000 C   0  0  2  0  0  0  0  0  0  0  0  0
    6.4194   -3.0891    0.0000 C   0  0  2  0  0  0  0  0  0  0  0  0
    5.6104   -1.6878    0.0000 C   0  0  0  0  0  0  0  0  0  0  0  0
    5.4413   -3.2970    0.0000 C   0  0  0  0  0  0  0  0  0  0  0  0
    7.3900   -1.5945    0.0000 C   0  0  0  0  0  0  0  0  0  0  0  0
    3.9467   -2.3264    0.0000 C   0  0  2  0  0  0  0  0  0  0  0  0
    7.1626   -3.7582    0.0000 C   0  0  0  0  0  0  0  0  0  0  0  0
    6.5239   -0.0945    0.0000 C   0  0  0  0  0  0  0  0  0  0  0  0
    8.2560   -0.0945    0.0000 C   0  0  0  0  0  0  0  0  0  0  0  0
    7.3900    1.4055    0.0000 C   0  0  0  0  0  0  0  0  0  0  0  0
    6.5239    0.9055    0.0000 C   0  0  0  0  0  0  0  0  0  0  0  0
    8.2560    0.9055    0.0000 C   0  0  0  0  0  0  0  0  0  0  0  0
    3.5400   -1.4129    0.0000 C   0  0  0  0  0  0  0  0  0  0  0  0
    3.3590   -3.1354    0.0000 C   0  0  0  0  0  0  0  0  0  0  0  0
    8.1136   -3.4492    0.0000 C   0  0  0  0  0  0  0  0  0  0  0  0
    6.9546   -4.7363    0.0000 C   0  0  0  0  0  0  0  0  0  0  0  0
    7.3900    2.4055    0.0000 C   0  0  0  0  0  0  0  0  0  0  0  0
    2.5455   -1.3083    0.0000 C   0  0  0  0  0  0  0  0  0  0  0  0
    4.1278   -0.6039    0.0000 C   0  0  0  0  0  0  0  0  0  0  0  0
    8.8568   -4.1183    0.0000 C   0  0  0  0  0  0  0  0  0  0  0  0
    7.6978   -5.4055    0.0000 C   0  0  0  0  0  0  0  0  0  0  0  0
    8.2560    2.9055    0.0000 C   0  0  0  0  0  0  0  0  0  0  0  0
    6.5239    2.9055    0.0000 C   0  0  0  0  0  0  0  0  0  0  0  0
    8.6488   -5.0964    0.0000 C   0  0  0  0  0  0  0  0  0  0  0  0
    8.2560    3.9055    0.0000 C   0  0  0  0  0  0  0  0  0  0  0  0
    6.5239    3.9055    0.0000 C   0  0  0  0  0  0  0  0  0  0  0  0
    7.3900    4.4055    0.0000 C   0  0  0  0  0  0  0  0  0  0  0  0
    6.4915   -1.4754    0.0000 H   0  0  0  0  0  0  0  0  0  0  0  0
    6.2589   -3.6879    0.0000 H   0  0  0  0  0  0  0  0  0  0  0  0
    5.9204   -1.1509    0.0000 H   0  0  0  0  0  0  0  0  0  0  0  0
    5.1088   -1.3234    0.0000 H   0  0  0  0  0  0  0  0  0  0  0  0
    4.8749   -3.5491    0.0000 H   0  0  0  0  0  0  0  0  0  0  0  0
    5.6328   -3.8866    0.0000 H   0  0  0  0  0  0  0  0  0  0  0  0
    7.6020   -2.1771    0.0000 H   0  0  0  0  0  0  0  0  0  0  0  0
    8.0005   -1.4869    0.0000 H   0  0  0  0  0  0  0  0  0  0  0  0
    4.1989   -2.8928    0.0000 H   0  0  0  0  0  0  0  0  0  0  0  0
    5.9134    0.0131    0.0000 H   0  0  0  0  0  0  0  0  0  0  0  0
    6.3119   -0.6771    0.0000 H   0  0  0  0  0  0  0  0  0  0  0  0
    8.4680   -0.6771    0.0000 H   0  0  0  0  0  0  0  0  0  0  0  0
    8.8666    0.0131    0.0000 H   0  0  0  0  0  0  0  0  0  0  0  0
    7.9269    1.7155    0.0000 H   0  0  0  0  0  0  0  0  0  0  0  0
    6.3119    1.4881    0.0000 H   0  0  0  0  0  0  0  0  0  0  0  0
    5.9134    0.7978    0.0000 H   0  0  0  0  0  0  0  0  0  0  0  0
    8.8666    0.7978    0.0000 H   0  0  0  0  0  0  0  0  0  0  0  0
    8.4680    1.4881    0.0000 H   0  0  0  0  0  0  0  0  0  0  0  0
    3.2878   -0.8465    0.0000 H   0  0  0  0  0  0  0  0  0  0  0  0
    8.2425   -2.8427    0.0000 H   0  0  0  0  0  0  0  0  0  0  0  0
    6.3650   -4.9279    0.0000 H   0  0  0  0  0  0  0  0  0  0  0  0
    2.6103   -0.6917    0.0000 H   0  0  0  0  0  0  0  0  0  0  0  0
    1.9289   -1.2435    0.0000 H   0  0  0  0  0  0  0  0  0  0  0  0
    2.4807   -1.9249    0.0000 H   0  0  0  0  0  0  0  0  0  0  0  0
    4.6294   -0.9683    0.0000 H   0  0  0  0  0  0  0  0  0  0  0  0
    4.4922   -0.1023    0.0000 H   0  0  0  0  0  0  0  0  0  0  0  0
    3.6262   -0.2394    0.0000 H   0  0  0  0  0  0  0  0  0  0  0  0
    9.4464   -3.9267    0.0000 H   0  0  0  0  0  0  0  0  0  0  0  0
    7.5689   -6.0119    0.0000 H   0  0  0  0  0  0  0  0  0  0  0  0
    8.7929    2.5955    0.0000 H   0  0  0  0  0  0  0  0  0  0  0  0
    5.9870    2.5955    0.0000 H   0  0  0  0  0  0  0  0  0  0  0  0
    9.1096   -5.5113    0.0000 H   0  0  0  0  0  0  0  0  0  0  0  0
    2.0000   -3.5325    0.0000 H   0  0  0  0  0  0  0  0  0  0  0  0
    8.7929    4.2155    0.0000 H   0  0  0  0  0  0  0  0  0  0  0  0
    5.9870    4.2155    0.0000 H   0  0  0  0  0  0  0  0  0  0  0  0
  1 32  1  0  0  0  0
  2 19  1  0  0  0  0
  2 65  1  0  0  0  0
  3 19  2  0  0  0  0
  4  8  1  0  0  0  0
  4  9  1  0  0  0  0
  4 11  1  0  0  0  0
  5 10  1  0  0  0  0
  5 13  1  0  0  0  0
  5 14  1  0  0  0  0
  6  7  1  0  0  0  0
  6  8  1  0  0  0  0
  6 10  1  6  0  0  0
  6 33  1  0  0  0  0
  7  9  1  0  0  0  0
  7 12  1  1  0  0  0
  7 34  1  0  0  0  0
  8 35  1  0  0  0  0
  8 36  1  0  0  0  0
  9 37  1  0  0  0  0
  9 38  1  0  0  0  0
 10 39  1  0  0  0  0
 10 40  1  0  0  0  0
 11 18  1  0  0  0  0
 11 19  1  1  0  0  0
 11 41  1  0  0  0  0
 12 20  2  0  0  0  0
 12 21  1  0  0  0  0
 13 16  1  0  0  0  0
 13 42  1  0  0  0  0
 13 43  1  0  0  0  0
 14 17  1  0  0  0  0
 14 44  1  0  0  0  0
 14 45  1  0  0  0  0
 15 16  1  0  0  0  0
 15 17  1  0  0  0  0
 15 22  1  0  0  0  0
 15 46  1  0  0  0  0
 16 47  1  0  0  0  0
 16 48  1  0  0  0  0
 17 49  1  0  0  0  0
 17 50  1  0  0  0  0
 18 23  1  0  0  0  0
 18 24  1  0  0  0  0
 18 51  1  0  0  0  0
 20 25  1  0  0  0  0
 20 52  1  0  0  0  0
 21 26  2  0  0  0  0
 21 53  1  0  0  0  0
 22 27  2  0  0  0  0
 22 28  1  0  0  0  0
 23 54  1  0  0  0  0
 23 55  1  0  0  0  0
 23 56  1  0  0  0  0
 24 57  1  0  0  0  0
 24 58  1  0  0  0  0
 24 59  1  0  0  0  0
 25 29  2  0  0  0  0
 25 60  1  0  0  0  0
 26 29  1  0  0  0  0
 26 61  1  0  0  0  0
 27 30  1  0  0  0  0
 27 62  1  0  0  0  0
 28 31  2  0  0  0  0
 28 63  1  0  0  0  0
 29 64  1  0  0  0  0
 30 32  2  0  0  0  0
 30 66  1  0  0  0  0
 31 32  1  0  0  0  0
 31 67  1  0  0  0  0
M  END
> <PUBCHEM_COMPOUND_CID>
501058
> <PUBCHEM_COMPOUND_CANONICALIZED>
1
> <PUBCHEM_CACTVS_COMPLEXITY>
593
> <PUBCHEM_CACTVS_HBOND_ACCEPTOR>
5
> <PUBCHEM_CACTVS_HBOND_DONOR>
1
> <PUBCHEM_CACTVS_ROTATABLE_BOND>
7
> <PUBCHEM_CACTVS_SUBSKEYS>
AAADcfB7MQAAAAAAAAAAAAAAAAAAAWAAAAA8YIAAAAAAAAABQAAAHwAACAAADSjBmAwyCIMAAgCIAiDSCAACAAAgAAAIiAGIAIgKIDKA0TGEYAAkgACYiAcQgMAOgAAAAAAAAAAAAAAAAAAAAAAAAAAAAA==
> <PUBCHEM_IUPAC_OPENEYE_NAME>
(2R)-2-[(3S,4S)-3-[[4-(4-fluorophenyl)-1-piperidyl]methyl]-4-phenyl-pyrrolidin-1-yl]-3-methyl-butanoic acid
> <PUBCHEM_IUPAC_CAS_NAME>
(2R)-2-[(3S,4S)-3-[[4-(4-fluorophenyl)-1-piperidinyl]methyl]-4-phenyl-1-pyrrolidinyl]-3-methylbutanoic acid
> <PUBCHEM_IUPAC_NAME_MARKUP>
(2<I>R</I>)-2-[(3<I>S</I>,4<I>S</I>)-3-[[4-(4-fluorophenyl)piperidin-1-yl]methyl]-4-phenylpyrrolidin-1-yl]-3-methylbutanoic acid
> <PUBCHEM_IUPAC_NAME>
(2R)-2-[(3S,4S)-3-[[4-(4-fluorophenyl)piperidin-1-yl]methyl]-4-phenylpyrrolidin-1-yl]-3-methylbutanoic acid
> <PUBCHEM_IUPAC_SYSTEMATIC_NAME>
(2R)-2-[(3S,4S)-3-[[4-(4-fluorophenyl)piperidin-1-yl]methyl]-4-phenyl-pyrrolidin-1-yl]-3-methyl-butanoic acid
> <PUBCHEM_IUPAC_TRADITIONAL_NAME>
(2R)-2-[(3S,4S)-3-[[4-(4-fluorophenyl)piperidino]methyl]-4-phenyl-pyrrolidino]-3-methyl-butyric acid
> <PUBCHEM_IUPAC_INCHI>
InChI=1S/C27H35FN2O2/c1-19(2)26(27(31)32)30-17-23(25(18-30)22-6-4-3-5-7-22)16-29-14-12-21(13-15-29)20-8-10-24(28)11-9-20/h3-11,19,21,23,25-26H,12-18H2,1-2H3,(H,31,32)/t23-,25+,26+/m0/s1
> <PUBCHEM_IUPAC_INCHIKEY>
AIEWGCAUTFKWHF-SKBVVQJISA-N
> <PUBCHEM_XLOGP3_AA>
3.1
> <PUBCHEM_EXACT_MASS>
438.26825653
> <PUBCHEM_MOLECULAR_FORMULA>
C27H35FN2O2
> <PUBCHEM_MOLECULAR_WEIGHT>
438.6
> <PUBCHEM_OPENEYE_CAN_SMILES>
CC(C)C(C(=O)O)N1CC(C(C1)C2=CC=CC=C2)CN3CCC(CC3)C4=CC=C(C=C4)F
> <PUBCHEM_OPENEYE_ISO_SMILES>
CC(C)[C@H](C(=O)O)N1C[C@@H]([C@H](C1)C2=CC=CC=C2)CN3CCC(CC3)C4=CC=C(C=C4)F
> <PUBCHEM_CACTVS_TPSA>
43.8
> <PUBCHEM_MONOISOTOPIC_WEIGHT>
438.26825653
> <PUBCHEM_TOTAL_CHARGE>
0
> <PUBCHEM_HEAVY_ATOM_COUNT>
32
> <PUBCHEM_ATOM_DEF_STEREO_COUNT>
3
> <PUBCHEM_ATOM_UDEF_STEREO_COUNT>
0
> <PUBCHEM_BOND_DEF_STEREO_COUNT>
0
> <PUBCHEM_BOND_UDEF_STEREO_COUNT>
0
> <PUBCHEM_ISOTOPIC_ATOM_COUNT>
0
> <PUBCHEM_COMPONENT_COUNT>
1
> <PUBCHEM_CACTVS_TAUTO_COUNT>
-1
> <PUBCHEM_COORDINATE_TYPE>
1
5
255
> <PUBCHEM_BONDANNOTATIONS>
11  19  5
12  20  8
12  21  8
20  25  8
21  26  8
22  27  8
22  28  8
25  29  8
26  29  8
27  30  8
28  31  8
30  32  8
31  32  8
6  10  6
7  12  5
$$$$
