501022
  -OEChem-10302200282D
134145  0     1  0  0  0  0  0999 V2000
   14.0595   -2.0728    0.0000 S   0  0  0  0  0  0  0  0  0  0  0  0
    9.0748   -3.2760    0.0000 P   0  0  3  0  0  0  0  0  0  0  0  0
    7.7646    1.4422    0.0000 P   0  0  3  0  0  0  0  0  0  0  0  0
   14.6459   -2.8829    0.0000 P   0  0  3  0  0  0  0  0  0  0  0  0
   12.1112   -4.6473    0.0000 O   0  0  0  0  0  0  0  0  0  0  0  0
    6.0834   -1.4343    0.0000 O   0  0  0  0  0  0  0  0  0  0  0  0
    9.5733   -4.1429    0.0000 O   0  0  0  0  0  0  0  0  0  0  0  0
    6.8503    1.0370    0.0000 O   0  0  0  0  0  0  0  0  0  0  0  0
   17.9776   -2.8767    0.0000 O   0  0  0  0  0  0  0  0  0  0  0  0
    9.9089    4.2246    0.0000 O   0  0  0  0  0  0  0  0  0  0  0  0
   15.4559   -2.2965    0.0000 O   0  0  0  0  0  0  0  0  0  0  0  0
   10.8551   -2.3851    0.0000 O   0  0  0  0  0  0  0  0  0  0  0  0
    8.5763   -2.4092    0.0000 O   0  0  0  0  0  0  0  0  0  0  0  0
    8.4646   -0.4215    0.0000 O   0  0  0  0  0  0  0  0  0  0  0  0
   13.8358   -3.4693    0.0000 O   0  0  0  0  0  0  0  0  0  0  0  0
    8.6788    1.8474    0.0000 O   0  0  0  0  0  0  0  0  0  0  0  0
   15.9045   -4.4253    0.0000 O   0  0  0  0  0  0  0  0  0  0  0  0
   10.6673    1.7507    0.0000 O   0  0  0  0  0  0  0  0  0  0  0  0
   12.2866    3.2036    0.0000 O   0  0  0  0  0  0  0  0  0  0  0  0
    8.2079   -3.7746    0.0000 O   0  0  0  0  0  0  0  0  0  0  0  0
   19.0678   -4.6582    0.0000 O   0  0  0  0  0  0  0  0  0  0  0  0
    9.9416   -2.7776    0.0000 O   0  0  0  0  0  0  0  0  0  0  0  0
    7.3594    2.3564    0.0000 O   0  0  0  0  0  0  0  0  0  0  0  0
   15.2323   -3.6929    0.0000 O   0  0  0  0  0  0  0  0  0  0  0  0
    8.1698    0.5280    0.0000 O   0  0  0  0  0  0  0  0  0  0  0  0
   10.8490   -5.9052    0.0000 N   0  0  0  0  0  0  0  0  0  0  0  0
    4.9644   -0.0475    0.0000 N   0  0  0  0  0  0  0  0  0  0  0  0
   17.3419   -1.2120    0.0000 N   0  0  0  0  0  0  0  0  0  0  0  0
   11.4051    5.1926    0.0000 N   0  0  0  0  0  0  0  0  0  0  0  0
   10.8490   -7.5147    0.0000 N   0  0  0  0  0  0  0  0  0  0  0  0
    3.3637    0.1208    0.0000 N   0  0  0  0  0  0  0  0  0  0  0  0
    9.0367   -5.7100    0.0000 N   0  0  0  0  0  0  0  0  0  0  0  0
    5.3480    1.7344    0.0000 N   0  0  0  0  0  0  0  0  0  0  0  0
   17.0073    0.3623    0.0000 N   0  0  0  0  0  0  0  0  0  0  0  0
   12.6049    6.2654    0.0000 N   0  0  0  0  0  0  0  0  0  0  0  0
   19.1551   -1.0262    0.0000 N   0  0  0  0  0  0  0  0  0  0  0  0
   10.0516    6.4134    0.0000 N   0  0  0  0  0  0  0  0  0  0  0  0
    8.1707   -7.2100    0.0000 N   0  0  0  0  0  0  0  0  0  0  0  0
    3.9467    2.7525    0.0000 N   0  0  0  0  0  0  0  0  0  0  0  0
    9.0367   -8.7100    0.0000 N   0  0  0  0  0  0  0  0  0  0  0  0
    2.3644    2.0480    0.0000 N   0  0  0  0  0  0  0  0  0  0  0  0
   19.6904    0.6211    0.0000 N   0  0  0  0  0  0  0  0  0  0  0  0
   10.5925    8.0588    0.0000 N   0  0  0  0  0  0  0  0  0  0  0  0
   18.5314    1.9082    0.0000 N   0  0  0  0  0  0  0  0  0  0  0  0
   12.2880    8.4131    0.0000 N   0  0  0  0  0  0  0  0  0  0  0  0
   10.5733   -4.1447    0.0000 C   0  0  2  0  0  0  0  0  0  0  0  0
    6.7441    0.0427    0.0000 C   0  0  2  0  0  0  0  0  0  0  0  0
   11.1624   -3.3367    0.0000 C   0  0  1  0  0  0  0  0  0  0  0  0
    7.4861   -0.6277    0.0000 C   0  0  1  0  0  0  0  0  0  0  0  0
   12.1130   -3.6473    0.0000 C   0  0  1  0  0  0  0  0  0  0  0  0
   11.1596   -4.9547    0.0000 C   0  0  1  0  0  0  0  0  0  0  0  0
    7.0778   -1.5405    0.0000 C   0  0  1  0  0  0  0  0  0  0  0  0
    5.8772   -0.4558    0.0000 C   0  0  1  0  0  0  0  0  0  0  0  0
   16.3687   -2.7048    0.0000 C   0  0  2  0  0  0  0  0  0  0  0  0
   16.5750   -3.6833    0.0000 C   0  0  1  0  0  0  0  0  0  0  0  0
   17.2356   -2.2063    0.0000 C   0  0  1  0  0  0  0  0  0  0  0  0
   17.5693   -3.7896    0.0000 C   0  0  1  0  0  0  0  0  0  0  0  0
    7.5763   -2.4074    0.0000 C   0  0  0  0  0  0  0  0  0  0  0  0
   12.9230   -3.0610    0.0000 C   0  0  0  0  0  0  0  0  0  0  0  0
    9.6993    3.2469    0.0000 C   0  0  1  0  0  0  0  0  0  0  0  0
   10.5645    2.7454    0.0000 C   0  0  2  0  0  0  0  0  0  0  0  0
   11.3088    3.4132    0.0000 C   0  0  2  0  0  0  0  0  0  0  0  0
   10.9036    4.3274    0.0000 C   0  0  1  0  0  0  0  0  0  0  0  0
    8.7851    2.8417    0.0000 C   0  0  0  0  0  0  0  0  0  0  0  0
   18.0678   -4.6565    0.0000 C   0  0  0  0  0  0  0  0  0  0  0  0
    9.9028   -6.2100    0.0000 C   0  0  0  0  0  0  0  0  0  0  0  0
    4.7602    0.9254    0.0000 C   0  0  0  0  0  0  0  0  0  0  0  0
   11.4326   -6.7100    0.0000 C   0  0  0  0  0  0  0  0  0  0  0  0
    4.1030   -0.5438    0.0000 C   0  0  0  0  0  0  0  0  0  0  0  0
   18.2041   -0.7172    0.0000 C   0  0  0  0  0  0  0  0  0  0  0  0
    9.9028   -7.2100    0.0000 C   0  0  0  0  0  0  0  0  0  0  0  0
    3.7657    1.0300    0.0000 C   0  0  0  0  0  0  0  0  0  0  0  0
   16.6037   -0.5462    0.0000 C   0  0  0  0  0  0  0  0  0  0  0  0
   11.0016    6.1011    0.0000 C   0  0  0  0  0  0  0  0  0  0  0  0
   12.3940    5.2940    0.0000 C   0  0  0  0  0  0  0  0  0  0  0  0
   17.9962    0.2610    0.0000 C   0  0  0  0  0  0  0  0  0  0  0  0
   11.7471    6.7676    0.0000 C   0  0  0  0  0  0  0  0  0  0  0  0
    9.0367   -7.7100    0.0000 C   0  0  0  0  0  0  0  0  0  0  0  0
    3.3590    1.9435    0.0000 C   0  0  0  0  0  0  0  0  0  0  0  0
   18.7393    0.9301    0.0000 C   0  0  0  0  0  0  0  0  0  0  0  0
    8.1707   -6.2100    0.0000 C   0  0  0  0  0  0  0  0  0  0  0  0
    4.9413    2.6480    0.0000 C   0  0  0  0  0  0  0  0  0  0  0  0
   11.5425    7.7465    0.0000 C   0  0  0  0  0  0  0  0  0  0  0  0
   19.8983   -0.3571    0.0000 C   0  0  0  0  0  0  0  0  0  0  0  0
    9.8471    7.3923    0.0000 C   0  0  0  0  0  0  0  0  0  0  0  0
   10.2927   -3.5918    0.0000 H   0  0  0  0  0  0  0  0  0  0  0  0
    6.2247    0.3813    0.0000 H   0  0  0  0  0  0  0  0  0  0  0  0
   11.6016   -2.8990    0.0000 H   0  0  0  0  0  0  0  0  0  0  0  0
    7.8754   -1.1102    0.0000 H   0  0  0  0  0  0  0  0  0  0  0  0
   12.6649   -3.9298    0.0000 H   0  0  0  0  0  0  0  0  0  0  0  0
   11.5973   -5.3939    0.0000 H   0  0  0  0  0  0  0  0  0  0  0  0
    6.7392   -2.0599    0.0000 H   0  0  0  0  0  0  0  0  0  0  0  0
    5.3947   -0.8451    0.0000 H   0  0  0  0  0  0  0  0  0  0  0  0
   16.3374   -2.0856    0.0000 H   0  0  0  0  0  0  0  0  0  0  0  0
   15.9764   -3.5218    0.0000 H   0  0  0  0  0  0  0  0  0  0  0  0
   17.8148   -1.9851    0.0000 H   0  0  0  0  0  0  0  0  0  0  0  0
   18.1885   -3.7582    0.0000 H   0  0  0  0  0  0  0  0  0  0  0  0
    6.9933   -2.6185    0.0000 H   0  0  0  0  0  0  0  0  0  0  0  0
    7.6829   -3.0182    0.0000 H   0  0  0  0  0  0  0  0  0  0  0  0
   13.2706   -2.5476    0.0000 H   0  0  0  0  0  0  0  0  0  0  0  0
   12.4778   -2.6295    0.0000 H   0  0  0  0  0  0  0  0  0  0  0  0
    9.2182    3.6379    0.0000 H   0  0  0  0  0  0  0  0  0  0  0  0
   11.1429    2.5222    0.0000 H   0  0  0  0  0  0  0  0  0  0  0  0
   11.6998    3.8944    0.0000 H   0  0  0  0  0  0  0  0  0  0  0  0
   10.5669    4.8480    0.0000 H   0  0  0  0  0  0  0  0  0  0  0  0
    8.6361    3.4435    0.0000 H   0  0  0  0  0  0  0  0  0  0  0  0
    8.1665    2.7995    0.0000 H   0  0  0  0  0  0  0  0  0  0  0  0
   17.4848   -4.8675    0.0000 H   0  0  0  0  0  0  0  0  0  0  0  0
   18.1744   -5.2672    0.0000 H   0  0  0  0  0  0  0  0  0  0  0  0
   11.2707   -1.9250    0.0000 H   0  0  0  0  0  0  0  0  0  0  0  0
    8.6572    0.1678    0.0000 H   0  0  0  0  0  0  0  0  0  0  0  0
   12.0526   -6.7100    0.0000 H   0  0  0  0  0  0  0  0  0  0  0  0
    4.0382   -1.1604    0.0000 H   0  0  0  0  0  0  0  0  0  0  0  0
   16.0951   -5.0153    0.0000 H   0  0  0  0  0  0  0  0  0  0  0  0
   15.9973   -0.6751    0.0000 H   0  0  0  0  0  0  0  0  0  0  0  0
   11.2333    1.4975    0.0000 H   0  0  0  0  0  0  0  0  0  0  0  0
   12.4772    2.6136    0.0000 H   0  0  0  0  0  0  0  0  0  0  0  0
   12.8073    4.8318    0.0000 H   0  0  0  0  0  0  0  0  0  0  0  0
    7.6715   -3.4636    0.0000 H   0  0  0  0  0  0  0  0  0  0  0  0
   19.3769   -5.1957    0.0000 H   0  0  0  0  0  0  0  0  0  0  0  0
    7.7247    2.8574    0.0000 H   0  0  0  0  0  0  0  0  0  0  0  0
   14.9791   -4.2589    0.0000 H   0  0  0  0  0  0  0  0  0  0  0  0
    7.6338   -5.9000    0.0000 H   0  0  0  0  0  0  0  0  0  0  0  0
    5.3057    3.1496    0.0000 H   0  0  0  0  0  0  0  0  0  0  0  0
   20.4879   -0.5487    0.0000 H   0  0  0  0  0  0  0  0  0  0  0  0
    8.4998   -9.0200    0.0000 H   0  0  0  0  0  0  0  0  0  0  0  0
    9.5737   -9.0200    0.0000 H   0  0  0  0  0  0  0  0  0  0  0  0
    2.1122    2.6144    0.0000 H   0  0  0  0  0  0  0  0  0  0  0  0
    2.0000    1.5464    0.0000 H   0  0  0  0  0  0  0  0  0  0  0  0
    9.2581    7.5859    0.0000 H   0  0  0  0  0  0  0  0  0  0  0  0
   18.9921    2.3231    0.0000 H   0  0  0  0  0  0  0  0  0  0  0  0
   17.9417    2.0998    0.0000 H   0  0  0  0  0  0  0  0  0  0  0  0
   12.1612    9.0200    0.0000 H   0  0  0  0  0  0  0  0  0  0  0  0
   12.8770    8.2194    0.0000 H   0  0  0  0  0  0  0  0  0  0  0  0
  1  4  2  0  0  0  0
  2  7  1  0  0  0  0
  2 13  1  0  0  0  0
  2 20  1  0  0  0  0
  2 22  2  0  0  0  0
  3  8  1  0  0  0  0
  3 16  1  0  0  0  0
  3 23  1  0  0  0  0
  3 25  2  0  0  0  0
  4 11  1  0  0  0  0
  4 15  1  0  0  0  0
  4 24  1  0  0  0  0
  5 50  1  0  0  0  0
  5 51  1  0  0  0  0
  6 52  1  0  0  0  0
  6 53  1  0  0  0  0
 46  7  1  6  0  0  0
 47  8  1  6  0  0  0
  9 56  1  0  0  0  0
  9 57  1  0  0  0  0
 10 60  1  0  0  0  0
 10 63  1  0  0  0  0
 54 11  1  1  0  0  0
 48 12  1  6  0  0  0
 12110  1  0  0  0  0
 13 58  1  0  0  0  0
 49 14  1  6  0  0  0
 14111  1  0  0  0  0
 15 59  1  0  0  0  0
 16 64  1  0  0  0  0
 55 17  1  1  0  0  0
 17114  1  0  0  0  0
 61 18  1  6  0  0  0
 18116  1  0  0  0  0
 62 19  1  6  0  0  0
 19117  1  0  0  0  0
 20119  1  0  0  0  0
 21 65  1  0  0  0  0
 21120  1  0  0  0  0
 23121  1  0  0  0  0
 24122  1  0  0  0  0
 51 26  1  1  0  0  0
 26 66  1  0  0  0  0
 26 68  1  0  0  0  0
 53 27  1  1  0  0  0
 27 67  1  0  0  0  0
 27 69  1  0  0  0  0
 56 28  1  6  0  0  0
 28 70  1  0  0  0  0
 28 73  1  0  0  0  0
 63 29  1  1  0  0  0
 29 74  1  0  0  0  0
 29 75  1  0  0  0  0
 30 68  2  0  0  0  0
 30 71  1  0  0  0  0
 31 69  2  0  0  0  0
 31 72  1  0  0  0  0
 32 66  2  0  0  0  0
 32 81  1  0  0  0  0
 33 67  2  0  0  0  0
 33 82  1  0  0  0  0
 34 73  2  0  0  0  0
 34 76  1  0  0  0  0
 35 75  2  0  0  0  0
 35 77  1  0  0  0  0
 36 70  2  0  0  0  0
 36 84  1  0  0  0  0
 37 74  2  0  0  0  0
 37 85  1  0  0  0  0
 38 78  1  0  0  0  0
 38 81  2  0  0  0  0
 39 79  1  0  0  0  0
 39 82  2  0  0  0  0
 40 78  1  0  0  0  0
 40126  1  0  0  0  0
 40127  1  0  0  0  0
 41 79  1  0  0  0  0
 41128  1  0  0  0  0
 41129  1  0  0  0  0
 42 80  1  0  0  0  0
 42 84  2  0  0  0  0
 43 83  1  0  0  0  0
 43 85  2  0  0  0  0
 44 80  1  0  0  0  0
 44131  1  0  0  0  0
 44132  1  0  0  0  0
 45 83  1  0  0  0  0
 45133  1  0  0  0  0
 45134  1  0  0  0  0
 46 48  1  0  0  0  0
 46 51  1  0  0  0  0
 46 86  1  0  0  0  0
 47 49  1  0  0  0  0
 47 53  1  0  0  0  0
 47 87  1  0  0  0  0
 48 50  1  0  0  0  0
 48 88  1  0  0  0  0
 49 52  1  0  0  0  0
 49 89  1  0  0  0  0
 50 59  1  1  0  0  0
 50 90  1  0  0  0  0
 51 91  1  0  0  0  0
 52 58  1  1  0  0  0
 52 92  1  0  0  0  0
 53 93  1  0  0  0  0
 54 55  1  0  0  0  0
 54 56  1  0  0  0  0
 54 94  1  0  0  0  0
 55 57  1  0  0  0  0
 55 95  1  0  0  0  0
 56 96  1  0  0  0  0
 57 65  1  6  0  0  0
 57 97  1  0  0  0  0
 58 98  1  0  0  0  0
 58 99  1  0  0  0  0
 59100  1  0  0  0  0
 59101  1  0  0  0  0
 60 61  1  0  0  0  0
 60 64  1  1  0  0  0
 60102  1  0  0  0  0
 61 62  1  0  0  0  0
 61103  1  0  0  0  0
 62 63  1  0  0  0  0
 62104  1  0  0  0  0
 63105  1  0  0  0  0
 64106  1  0  0  0  0
 64107  1  0  0  0  0
 65108  1  0  0  0  0
 65109  1  0  0  0  0
 66 71  1  0  0  0  0
 67 72  1  0  0  0  0
 68112  1  0  0  0  0
 69113  1  0  0  0  0
 70 76  1  0  0  0  0
 71 78  2  0  0  0  0
 72 79  2  0  0  0  0
 73115  1  0  0  0  0
 74 77  1  0  0  0  0
 75118  1  0  0  0  0
 76 80  2  0  0  0  0
 77 83  2  0  0  0  0
 81123  1  0  0  0  0
 82124  1  0  0  0  0
 84125  1  0  0  0  0
 85130  1  0  0  0  0
M  END
> <PUBCHEM_COMPOUND_CID>
501022
> <PUBCHEM_COMPOUND_CANONICALIZED>
1
> <PUBCHEM_CACTVS_COMPLEXITY>
2470
> <PUBCHEM_CACTVS_HBOND_ACCEPTOR>
38
> <PUBCHEM_CACTVS_HBOND_DONOR>
13
> <PUBCHEM_CACTVS_ROTATABLE_BOND>
20
> <PUBCHEM_CACTVS_SUBSKEYS>
AAADcfB//gNAAAAAAAAAAAAAAAAAAWLFixIsWLFgAAAAAFgB/gAAHgAQCCAACBzhlwYF8L9MFxCgQQZhZICAgC0REKABUCAoVBCDWAJAyEAeRAgPAALTACDwMAIAAAAAAAAAAAAAAAAAAAAAAAAAAAAAAA==
> <PUBCHEM_IUPAC_OPENEYE_NAME>
[(2R,3R,4R,5R)-2-(6-aminopurin-9-yl)-5-[[[(2R,3R,4R,5R)-2-(6-aminopurin-9-yl)-5-[[[(2R,3R,4R,5R)-2-(6-aminopurin-9-yl)-4-hydroxy-5-(hydroxymethyl)tetrahydrofuran-3-yl]oxy-hydroxy-phosphinothioyl]oxymethyl]-4-hydroxy-tetrahydrofuran-3-yl]oxy-hydroxy-phosphoryl]oxymethyl]-4-hydroxy-tetrahydrofuran-3-yl] [(2R,3S,4R,5R)-5-(6-aminopurin-9-yl)-3,4-dihydroxy-tetrahydrofuran-2-yl]methyl hydrogen phosphate
> <PUBCHEM_IUPAC_CAS_NAME>
[(2R,3R,4R,5R)-2-(6-aminopurin-9-yl)-5-[[[(2R,3R,4R,5R)-2-(6-aminopurin-9-yl)-5-[[[(2R,3R,4R,5R)-2-(6-aminopurin-9-yl)-4-hydroxy-5-(hydroxymethyl)-3-oxolanyl]oxy-hydroxyphosphinothioyl]oxymethyl]-4-hydroxy-3-oxolanyl]oxy-hydroxyphosphoryl]oxymethyl]-4-hydroxy-3-oxolanyl] [(2R,3S,4R,5R)-5-(6-aminopurin-9-yl)-3,4-dihydroxy-2-oxolanyl]methyl hydrogen phosphate
> <PUBCHEM_IUPAC_NAME_MARKUP>
[(2<I>R</I>,3<I>R</I>,4<I>R</I>,5<I>R</I>)-2-(6-aminopurin-9-yl)-5-[[[(2<I>R</I>,3<I>R</I>,4<I>R</I>,5<I>R</I>)-2-(6-aminopurin-9-yl)-5-[[[(2<I>R</I>,3<I>R</I>,4<I>R</I>,5<I>R</I>)-2-(6-aminopurin-9-yl)-4-hydroxy-5-(hydroxymethyl)oxolan-3-yl]oxy-hydroxyphosphinothioyl]oxymethyl]-4-hydroxyoxolan-3-yl]oxy-hydroxyphosphoryl]oxymethyl]-4-hydroxyoxolan-3-yl] [(2<I>R</I>,3<I>S</I>,4<I>R</I>,5<I>R</I>)-5-(6-aminopurin-9-yl)-3,4-dihydroxyoxolan-2-yl]methyl hydrogen phosphate
> <PUBCHEM_IUPAC_NAME>
[(2R,3R,4R,5R)-2-(6-aminopurin-9-yl)-5-[[[(2R,3R,4R,5R)-2-(6-aminopurin-9-yl)-5-[[[(2R,3R,4R,5R)-2-(6-aminopurin-9-yl)-4-hydroxy-5-(hydroxymethyl)oxolan-3-yl]oxy-hydroxyphosphinothioyl]oxymethyl]-4-hydroxyoxolan-3-yl]oxy-hydroxyphosphoryl]oxymethyl]-4-hydroxyoxolan-3-yl] [(2R,3S,4R,5R)-5-(6-aminopurin-9-yl)-3,4-dihydroxyoxolan-2-yl]methyl hydrogen phosphate
> <PUBCHEM_IUPAC_SYSTEMATIC_NAME>
[(2R,3R,4R,5R)-2-(6-aminopurin-9-yl)-5-[[[(2R,3R,4R,5R)-2-(6-aminopurin-9-yl)-5-[[[(2R,3R,4R,5R)-2-(6-aminopurin-9-yl)-5-(hydroxymethyl)-4-oxidanyl-oxolan-3-yl]oxy-oxidanyl-phosphinothioyl]oxymethyl]-4-oxidanyl-oxolan-3-yl]oxy-oxidanyl-phosphoryl]oxymethyl]-4-oxidanyl-oxolan-3-yl] [(2R,3S,4R,5R)-5-(6-aminopurin-9-yl)-3,4-bis(oxidanyl)oxolan-2-yl]methyl hydrogen phosphate
> <PUBCHEM_IUPAC_TRADITIONAL_NAME>
[(2R,3R,4R,5R)-2-adenin-9-yl-5-[[[(2R,3R,4R,5R)-2-adenin-9-yl-5-[[[(2R,3R,4R,5R)-2-adenin-9-yl-4-hydroxy-5-methylol-tetrahydrofuran-3-yl]oxy-hydroxy-thiophosphoryl]oxymethyl]-4-hydroxy-tetrahydrofuran-3-yl]oxy-hydroxy-phosphoryl]oxymethyl]-4-hydroxy-tetrahydrofuran-3-yl] [(2R,3S,4R,5R)-5-adenin-9-yl-3,4-dihydroxy-tetrahydrofuran-2-yl]methyl hydrogen phosphate
> <PUBCHEM_IUPAC_INCHI>
InChI=1S/C40H49N20O21P3S/c41-29-17-33(49-5-45-29)57(9-53-17)37-25(66)21(62)14(76-37)2-72-82(67,68)79-26-23(64)15(77-38(26)58-10-54-18-30(42)46-6-50-34(18)58)3-73-83(69,70)80-27-24(65)16(78-39(27)59-11-55-19-31(43)47-7-51-35(19)59)4-74-84(71,85)81-28-22(63)13(1-61)75-40(28)60-12-56-20-32(44)48-8-52-36(20)60/h5-16,21-28,37-40,61-66H,1-4H2,(H,67,68)(H,69,70)(H,71,85)(H2,41,45,49)(H2,42,46,50)(H2,43,47,51)(H2,44,48,52)/t13-,14-,15-,16-,21-,22-,23-,24-,25-,26-,27-,28-,37-,38-,39-,40-,84?/m1/s1
> <PUBCHEM_IUPAC_INCHIKEY>
WFBXAZQJVVUYMY-QXFQXOIWSA-N
> <PUBCHEM_XLOGP3_AA>
-7.9
> <PUBCHEM_EXACT_MASS>
1270.23147082
> <PUBCHEM_MOLECULAR_FORMULA>
C40H49N20O21P3S
> <PUBCHEM_MOLECULAR_WEIGHT>
1270.9
> <PUBCHEM_OPENEYE_CAN_SMILES>
C1=NC(=C2C(=N1)N(C=N2)C3C(C(C(O3)COP(=O)(O)OC4C(C(OC4N5C=NC6=C(N=CN=C65)N)COP(=O)(O)OC7C(C(OC7N8C=NC9=C(N=CN=C98)N)COP(=S)(O)OC1C(C(OC1N1C=NC2=C(N=CN=C21)N)CO)O)O)O)O)O)N
> <PUBCHEM_OPENEYE_ISO_SMILES>
C1=NC(=C2C(=N1)N(C=N2)[C@H]3[C@@H]([C@@H]([C@H](O3)COP(=O)(O)O[C@@H]4[C@@H]([C@H](O[C@H]4N5C=NC6=C(N=CN=C65)N)COP(=O)(O)O[C@@H]7[C@@H]([C@H](O[C@H]7N8C=NC9=C(N=CN=C98)N)COP(=S)(O)O[C@@H]1[C@@H]([C@H](O[C@H]1N1C=NC2=C(N=CN=C21)N)CO)O)O)O)O)O)N
> <PUBCHEM_CACTVS_TPSA>
619
> <PUBCHEM_MONOISOTOPIC_WEIGHT>
1270.23147082
> <PUBCHEM_TOTAL_CHARGE>
0
> <PUBCHEM_HEAVY_ATOM_COUNT>
85
> <PUBCHEM_ATOM_DEF_STEREO_COUNT>
16
> <PUBCHEM_ATOM_UDEF_STEREO_COUNT>
0
> <PUBCHEM_BOND_DEF_STEREO_COUNT>
0
> <PUBCHEM_BOND_UDEF_STEREO_COUNT>
0
> <PUBCHEM_ISOTOPIC_ATOM_COUNT>
0
> <PUBCHEM_COMPONENT_COUNT>
1
> <PUBCHEM_CACTVS_TAUTO_COUNT>
-1
> <PUBCHEM_COORDINATE_TYPE>
1
5
255
> <PUBCHEM_BONDANNOTATIONS>
54  11  5
48  12  6
49  14  6
55  17  5
61  18  6
62  19  6
51  26  5
26  66  8
26  68  8
53  27  5
27  67  8
27  69  8
56  28  6
28  70  8
28  73  8
63  29  5
29  74  8
29  75  8
30  68  8
30  71  8
31  69  8
31  72  8
32  66  8
32  81  8
33  67  8
33  82  8
34  73  8
34  76  8
35  75  8
35  77  8
36  70  8
36  84  8
37  74  8
37  85  8
38  78  8
38  81  8
39  79  8
39  82  8
42  80  8
42  84  8
43  83  8
43  85  8
50  59  5
52  58  5
57  65  6
60  64  5
66  71  8
67  72  8
46  7  6
70  76  8
71  78  8
72  79  8
74  77  8
76  80  8
77  83  8
47  8  6
$$$$
