501006
  -OEChem-10302200282D
136147  0     1  0  0  0  0  0999 V2000
   16.6580    2.8752    0.0000 P   0  0  3  0  0  0  0  0  0  0  0  0
   11.1269    3.6489    0.0000 P   0  0  3  0  0  0  0  0  0  0  0  0
   16.9585   -2.0124    0.0000 P   0  0  3  0  0  0  0  0  0  0  0  0
   13.9730    4.8478    0.0000 O   0  0  0  0  0  0  0  0  0  0  0  0
   19.2010    0.4517    0.0000 O   0  0  0  0  0  0  0  0  0  0  0  0
    7.8666    4.3356    0.0000 O   0  0  0  0  0  0  0  0  0  0  0  0
   16.3506    3.8268    0.0000 O   0  0  0  0  0  0  0  0  0  0  0  0
   10.2126    3.2438    0.0000 O   0  0  0  0  0  0  0  0  0  0  0  0
   17.9370   -1.8061    0.0000 O   0  0  0  0  0  0  0  0  0  0  0  0
   12.0411    4.0541    0.0000 O   0  0  0  0  0  0  0  0  0  0  0  0
   16.9654    1.9236    0.0000 O   0  0  0  0  0  0  0  0  0  0  0  0
    8.8189    6.8372    0.0000 O   0  0  0  0  0  0  0  0  0  0  0  0
   17.6096    3.1826    0.0000 O   0  5  0  0  0  0  0  0  0  0  0  0
   15.7064    2.5678    0.0000 O   0  0  0  0  0  0  0  0  0  0  0  0
   11.5320    2.7347    0.0000 O   0  5  0  0  0  0  0  0  0  0  0  0
   10.7217    4.5632    0.0000 O   0  0  0  0  0  0  0  0  0  0  0  0
   15.9800   -2.2186    0.0000 O   0  0  0  0  0  0  0  0  0  0  0  0
   17.1648   -2.9909    0.0000 O   0  5  0  0  0  0  0  0  0  0  0  0
   16.7523   -1.0338    0.0000 O   0  0  0  0  0  0  0  0  0  0  0  0
   14.3802   -4.3258    0.0000 O   0  0  0  0  0  0  0  0  0  0  0  0
   15.4692    5.8158    0.0000 N   0  0  0  0  0  0  0  0  0  0  0  0
    8.1424    2.5750    0.0000 N   0  0  0  0  0  0  0  0  0  0  0  0
   20.0073   -1.1374    0.0000 N   0  0  0  0  0  0  0  0  0  0  0  0
   15.8038    7.3901    0.0000 N   0  0  0  0  0  0  0  0  0  0  0  0
    8.1424    0.9656    0.0000 N   0  0  0  0  0  0  0  0  0  0  0  0
   21.5380   -1.6348    0.0000 N   0  0  0  0  0  0  0  0  0  0  0  0
   17.2012    5.2480    0.0000 N   0  0  0  0  0  0  0  0  0  0  0  0
    6.3301    2.7703    0.0000 N   0  0  0  0  0  0  0  0  0  0  0  0
    5.4641    1.2703    0.0000 N   0  3  0  0  0  0  0  0  0  0  0  0
   19.2616   -2.8006    0.0000 N   0  0  0  0  0  0  0  0  0  0  0  0
   18.3602    6.5352    0.0000 N   0  0  0  0  0  0  0  0  0  0  0  0
    6.3301   -0.2297    0.0000 N   0  0  0  0  0  0  0  0  0  0  0  0
   20.4205   -4.0878    0.0000 N   0  0  0  0  0  0  0  0  0  0  0  0
   17.8249    8.1824    0.0000 N   0  0  0  0  0  0  0  0  0  0  0  0
   22.1147   -3.7277    0.0000 N   0  0  0  0  0  0  0  0  0  0  0  0
   13.0910   -5.4826    0.0000 N   0  0  0  0  0  0  0  0  0  0  0  0
   13.0910   -7.0920    0.0000 N   0  0  0  0  0  0  0  0  0  0  0  0
   11.2788   -5.2873    0.0000 N   0  0  0  0  0  0  0  0  0  0  0  0
   10.4128   -6.7873    0.0000 N   0  0  0  0  0  0  0  0  0  0  0  0
   11.2788   -8.2873    0.0000 N   0  0  0  0  0  0  0  0  0  0  0  0
   15.3728    4.0364    0.0000 C   0  0  1  0  0  0  0  0  0  0  0  0
   14.9677    4.9506    0.0000 C   0  0  1  0  0  0  0  0  0  0  0  0
   14.6285    3.3685    0.0000 C   0  0  0  0  0  0  0  0  0  0  0  0
   13.7634    3.8700    0.0000 C   0  0  1  0  0  0  0  0  0  0  0  0
    9.4046    3.8329    0.0000 C   0  0  1  0  0  0  0  0  0  0  0  0
   18.2477   -0.8556    0.0000 C   0  0  2  0  0  0  0  0  0  0  0  0
   18.2505    0.7624    0.0000 C   0  0  1  0  0  0  0  0  0  0  0  0
   17.6613   -0.0456    0.0000 C   0  0  0  0  0  0  0  0  0  0  0  0
   19.1993   -0.5483    0.0000 C   0  0  1  0  0  0  0  0  0  0  0  0
    8.4530    3.5256    0.0000 C   0  0  1  0  0  0  0  0  0  0  0  0
    9.4064    4.8329    0.0000 C   0  0  0  0  0  0  0  0  0  0  0  0
    8.4558    5.1436    0.0000 C   0  0  1  0  0  0  0  0  0  0  0  0
   12.8491    3.4649    0.0000 C   0  0  0  0  0  0  0  0  0  0  0  0
   17.9431    1.7140    0.0000 C   0  0  0  0  0  0  0  0  0  0  0  0
    8.1485    6.0952    0.0000 C   0  0  0  0  0  0  0  0  0  0  0  0
   16.4581    5.9171    0.0000 C   0  0  0  0  0  0  0  0  0  0  0  0
    7.1962    2.2703    0.0000 C   0  0  0  0  0  0  0  0  0  0  0  0
   15.0656    6.7243    0.0000 C   0  0  0  0  0  0  0  0  0  0  0  0
   20.0047   -2.1315    0.0000 C   0  0  0  0  0  0  0  0  0  0  0  0
    8.7260    1.7703    0.0000 C   0  0  0  0  0  0  0  0  0  0  0  0
   20.9530   -0.8311    0.0000 C   0  0  0  0  0  0  0  0  0  0  0  0
   16.6660    6.8953    0.0000 C   0  0  0  0  0  0  0  0  0  0  0  0
    7.1962    1.2703    0.0000 C   0  0  0  0  0  0  0  0  0  0  0  0
   20.9558   -2.4405    0.0000 C   0  0  0  0  0  0  0  0  0  0  0  0
    6.3301    0.7703    0.0000 C   0  0  0  0  0  0  0  0  0  0  0  0
   17.6170    7.2043    0.0000 C   0  0  0  0  0  0  0  0  0  0  0  0
   21.1637   -3.4187    0.0000 C   0  0  0  0  0  0  0  0  0  0  0  0
    5.4641    2.2703    0.0000 C   0  0  0  0  0  0  0  0  0  0  0  0
   18.1523    5.5570    0.0000 C   0  0  0  0  0  0  0  0  0  0  0  0
    4.5981    0.7703    0.0000 C   0  0  0  0  0  0  0  0  0  0  0  0
   19.4695   -3.7788    0.0000 C   0  0  0  0  0  0  0  0  0  0  0  0
   15.6694   -3.1691    0.0000 C   0  0  0  0  0  0  0  0  0  0  0  0
    3.7320    1.2703    0.0000 C   0  0  0  0  0  0  0  0  0  0  0  0
   14.6909   -3.3753    0.0000 C   0  0  0  0  0  0  0  0  0  0  0  0
    3.7320    2.2703    0.0000 C   0  0  0  0  0  0  0  0  0  0  0  0
    2.8660    0.7703    0.0000 C   0  0  0  0  0  0  0  0  0  0  0  0
    2.8660    2.7703    0.0000 C   0  0  0  0  0  0  0  0  0  0  0  0
    2.0000    1.2703    0.0000 C   0  0  0  0  0  0  0  0  0  0  0  0
    2.0000    2.2703    0.0000 C   0  0  0  0  0  0  0  0  0  0  0  0
   13.4017   -4.5321    0.0000 C   0  0  0  0  0  0  0  0  0  0  0  0
   12.1448   -5.7873    0.0000 C   0  0  0  0  0  0  0  0  0  0  0  0
   13.6746   -6.2873    0.0000 C   0  0  0  0  0  0  0  0  0  0  0  0
   12.1448   -6.7873    0.0000 C   0  0  0  0  0  0  0  0  0  0  0  0
   11.2788   -7.2873    0.0000 C   0  0  0  0  0  0  0  0  0  0  0  0
   10.4128   -5.7873    0.0000 C   0  0  0  0  0  0  0  0  0  0  0  0
   15.7638    4.5175    0.0000 H   0  0  0  0  0  0  0  0  0  0  0  0
   14.6309    5.4712    0.0000 H   0  0  0  0  0  0  0  0  0  0  0  0
   14.2632    2.8676    0.0000 H   0  0  0  0  0  0  0  0  0  0  0  0
   15.0886    2.9529    0.0000 H   0  0  0  0  0  0  0  0  0  0  0  0
   13.2822    4.2610    0.0000 H   0  0  0  0  0  0  0  0  0  0  0  0
    9.3066    3.2207    0.0000 H   0  0  0  0  0  0  0  0  0  0  0  0
   18.6854   -1.2948    0.0000 H   0  0  0  0  0  0  0  0  0  0  0  0
   18.6897    1.2001    0.0000 H   0  0  0  0  0  0  0  0  0  0  0  0
   17.2013    0.3701    0.0000 H   0  0  0  0  0  0  0  0  0  0  0  0
   17.1999   -0.4597    0.0000 H   0  0  0  0  0  0  0  0  0  0  0  0
   19.7522   -0.2677    0.0000 H   0  0  0  0  0  0  0  0  0  0  0  0
    7.8405    3.4296    0.0000 H   0  0  0  0  0  0  0  0  0  0  0  0
   10.0228    4.7671    0.0000 H   0  0  0  0  0  0  0  0  0  0  0  0
    9.5363    5.4392    0.0000 H   0  0  0  0  0  0  0  0  0  0  0  0
    7.8436    5.2416    0.0000 H   0  0  0  0  0  0  0  0  0  0  0  0
   12.4024    3.0350    0.0000 H   0  0  0  0  0  0  0  0  0  0  0  0
   13.1949    2.9503    0.0000 H   0  0  0  0  0  0  0  0  0  0  0  0
   18.5573    1.7992    0.0000 H   0  0  0  0  0  0  0  0  0  0  0  0
   17.9658    2.3336    0.0000 H   0  0  0  0  0  0  0  0  0  0  0  0
    7.7676    6.5844    0.0000 H   0  0  0  0  0  0  0  0  0  0  0  0
    7.6005    5.8051    0.0000 H   0  0  0  0  0  0  0  0  0  0  0  0
   14.4592    6.8532    0.0000 H   0  0  0  0  0  0  0  0  0  0  0  0
    9.3460    1.7703    0.0000 H   0  0  0  0  0  0  0  0  0  0  0  0
   21.1446   -0.2414    0.0000 H   0  0  0  0  0  0  0  0  0  0  0  0
    8.6283    7.4272    0.0000 H   0  0  0  0  0  0  0  0  0  0  0  0
    4.9272    2.5803    0.0000 H   0  0  0  0  0  0  0  0  0  0  0  0
   18.6130    5.1422    0.0000 H   0  0  0  0  0  0  0  0  0  0  0  0
    4.1996    0.2954    0.0000 H   0  0  0  0  0  0  0  0  0  0  0  0
    4.9966    0.2954    0.0000 H   0  0  0  0  0  0  0  0  0  0  0  0
   19.0087   -4.1936    0.0000 H   0  0  0  0  0  0  0  0  0  0  0  0
    6.8671   -0.5397    0.0000 H   0  0  0  0  0  0  0  0  0  0  0  0
    5.7932   -0.5397    0.0000 H   0  0  0  0  0  0  0  0  0  0  0  0
   15.6899   -3.7888    0.0000 H   0  0  0  0  0  0  0  0  0  0  0  0
   16.2832   -3.2564    0.0000 H   0  0  0  0  0  0  0  0  0  0  0  0
   18.4146    8.3740    0.0000 H   0  0  0  0  0  0  0  0  0  0  0  0
   17.3642    8.5973    0.0000 H   0  0  0  0  0  0  0  0  0  0  0  0
   22.2436   -4.3341    0.0000 H   0  0  0  0  0  0  0  0  0  0  0  0
   22.5755   -3.3128    0.0000 H   0  0  0  0  0  0  0  0  0  0  0  0
   14.6703   -2.7557    0.0000 H   0  0  0  0  0  0  0  0  0  0  0  0
   14.0771   -3.2880    0.0000 H   0  0  0  0  0  0  0  0  0  0  0  0
    4.2690    2.5803    0.0000 H   0  0  0  0  0  0  0  0  0  0  0  0
    2.8660    0.1503    0.0000 H   0  0  0  0  0  0  0  0  0  0  0  0
    2.8660    3.3903    0.0000 H   0  0  0  0  0  0  0  0  0  0  0  0
    1.4631    0.9603    0.0000 H   0  0  0  0  0  0  0  0  0  0  0  0
    1.4631    2.5803    0.0000 H   0  0  0  0  0  0  0  0  0  0  0  0
   13.3811   -3.9124    0.0000 H   0  0  0  0  0  0  0  0  0  0  0  0
   12.7879   -4.4447    0.0000 H   0  0  0  0  0  0  0  0  0  0  0  0
   14.2946   -6.2873    0.0000 H   0  0  0  0  0  0  0  0  0  0  0  0
    9.8758   -5.4773    0.0000 H   0  0  0  0  0  0  0  0  0  0  0  0
   10.7419   -8.5973    0.0000 H   0  0  0  0  0  0  0  0  0  0  0  0
   11.8157   -8.5973    0.0000 H   0  0  0  0  0  0  0  0  0  0  0  0
  1  7  1  0  0  0  0
  1 11  1  0  0  0  0
  1 13  1  0  0  0  0
  1 14  2  0  0  0  0
  2  8  1  0  0  0  0
  2 10  1  0  0  0  0
  2 15  1  0  0  0  0
  2 16  2  0  0  0  0
  3  9  1  0  0  0  0
  3 17  1  0  0  0  0
  3 18  1  0  0  0  0
  3 19  2  0  0  0  0
  4 42  1  0  0  0  0
  4 44  1  0  0  0  0
  5 47  1  0  0  0  0
  5 49  1  0  0  0  0
  6 50  1  0  0  0  0
  6 52  1  0  0  0  0
 41  7  1  6  0  0  0
 45  8  1  1  0  0  0
 46  9  1  6  0  0  0
 10 53  1  0  0  0  0
 11 54  1  0  0  0  0
 12 55  1  0  0  0  0
 12110  1  0  0  0  0
 17 72  1  0  0  0  0
 20 74  1  0  0  0  0
 20 80  1  0  0  0  0
 42 21  1  1  0  0  0
 21 56  1  0  0  0  0
 21 58  1  0  0  0  0
 50 22  1  6  0  0  0
 22 57  1  0  0  0  0
 22 60  1  0  0  0  0
 49 23  1  1  0  0  0
 23 59  1  0  0  0  0
 23 61  1  0  0  0  0
 24 58  2  0  0  0  0
 24 62  1  0  0  0  0
 25 60  2  0  0  0  0
 25 63  1  0  0  0  0
 26 61  2  0  0  0  0
 26 64  1  0  0  0  0
 27 56  2  0  0  0  0
 27 69  1  0  0  0  0
 28 57  1  0  0  0  0
 28 68  2  0  0  0  0
 29 65  2  0  0  0  0
 29 68  1  0  0  0  0
 29 70  1  0  0  0  0
 30 59  2  0  0  0  0
 30 71  1  0  0  0  0
 31 66  1  0  0  0  0
 31 69  2  0  0  0  0
 32 65  1  0  0  0  0
 32116  1  0  0  0  0
 32117  1  0  0  0  0
 33 67  1  0  0  0  0
 33 71  2  0  0  0  0
 34 66  1  0  0  0  0
 34120  1  0  0  0  0
 34121  1  0  0  0  0
 35 67  1  0  0  0  0
 35122  1  0  0  0  0
 35123  1  0  0  0  0
 36 80  1  0  0  0  0
 36 81  1  0  0  0  0
 36 82  1  0  0  0  0
 37 82  2  0  0  0  0
 37 83  1  0  0  0  0
 38 81  2  0  0  0  0
 38 85  1  0  0  0  0
 39 84  1  0  0  0  0
 39 85  2  0  0  0  0
 40 84  1  0  0  0  0
 40135  1  0  0  0  0
 40136  1  0  0  0  0
 41 42  1  0  0  0  0
 41 43  1  0  0  0  0
 41 86  1  0  0  0  0
 42 87  1  0  0  0  0
 43 44  1  0  0  0  0
 43 88  1  0  0  0  0
 43 89  1  0  0  0  0
 44 53  1  1  0  0  0
 44 90  1  0  0  0  0
 45 50  1  0  0  0  0
 45 51  1  0  0  0  0
 45 91  1  0  0  0  0
 46 48  1  0  0  0  0
 46 49  1  0  0  0  0
 46 92  1  0  0  0  0
 47 48  1  0  0  0  0
 47 54  1  1  0  0  0
 47 93  1  0  0  0  0
 48 94  1  0  0  0  0
 48 95  1  0  0  0  0
 49 96  1  0  0  0  0
 50 97  1  0  0  0  0
 51 52  1  0  0  0  0
 51 98  1  0  0  0  0
 51 99  1  0  0  0  0
 52 55  1  6  0  0  0
 52100  1  0  0  0  0
 53101  1  0  0  0  0
 53102  1  0  0  0  0
 54103  1  0  0  0  0
 54104  1  0  0  0  0
 55105  1  0  0  0  0
 55106  1  0  0  0  0
 56 62  1  0  0  0  0
 57 63  2  0  0  0  0
 58107  1  0  0  0  0
 59 64  1  0  0  0  0
 60108  1  0  0  0  0
 61109  1  0  0  0  0
 62 66  2  0  0  0  0
 63 65  1  0  0  0  0
 64 67  2  0  0  0  0
 68111  1  0  0  0  0
 69112  1  0  0  0  0
 70 73  1  0  0  0  0
 70113  1  0  0  0  0
 70114  1  0  0  0  0
 71115  1  0  0  0  0
 72 74  1  0  0  0  0
 72118  1  0  0  0  0
 72119  1  0  0  0  0
 73 75  2  0  0  0  0
 73 76  1  0  0  0  0
 74124  1  0  0  0  0
 74125  1  0  0  0  0
 75 77  1  0  0  0  0
 75126  1  0  0  0  0
 76 78  2  0  0  0  0
 76127  1  0  0  0  0
 77 79  2  0  0  0  0
 77128  1  0  0  0  0
 78 79  1  0  0  0  0
 78129  1  0  0  0  0
 79130  1  0  0  0  0
 80131  1  0  0  0  0
 80132  1  0  0  0  0
 81 83  1  0  0  0  0
 82133  1  0  0  0  0
 83 84  2  0  0  0  0
 85134  1  0  0  0  0
M  CHG  4  13  -1  15  -1  18  -1  29   1
M  END
> <PUBCHEM_COMPOUND_CID>
501006
> <PUBCHEM_COMPOUND_CANONICALIZED>
1
> <PUBCHEM_CACTVS_COMPLEXITY>
2340
> <PUBCHEM_CACTVS_HBOND_ACCEPTOR>
32
> <PUBCHEM_CACTVS_HBOND_DONOR>
5
> <PUBCHEM_CACTVS_ROTATABLE_BOND>
24
> <PUBCHEM_CACTVS_SUBSKEYS>
AAADcfB//gMAAAAAAAAAAAAAAAAAAWLFixI8WLFiAAAAAFgB/gAAHgAQCCAADBzhnwY18L9MFxCgQyZjZICCgC0xEKAJ2CAoVJiLeCLA2VGeZAhtgALbiCfwsAIOAAAAAAAAAAAAAAAAAAAAAAAAAAAAAA==
> <PUBCHEM_IUPAC_OPENEYE_NAME>
[(2R,3R,5S)-2-(6-amino-1-benzyl-purin-1-ium-9-yl)-5-(hydroxymethyl)tetrahydrofuran-3-yl] [(2S,4R,5R)-5-(6-aminopurin-9-yl)-4-[[(2S,4R,5R)-5-(6-aminopurin-9-yl)-4-[2-[(6-aminopurin-9-yl)methoxy]ethoxy-oxido-phosphoryl]oxy-tetrahydrofuran-2-yl]methoxy-oxido-phosphoryl]oxy-tetrahydrofuran-2-yl]methyl phosphate
> <PUBCHEM_IUPAC_CAS_NAME>
[(2R,3R,5S)-2-[6-amino-1-(phenylmethyl)-9-purin-1-iumyl]-5-(hydroxymethyl)-3-oxolanyl] [(2S,4R,5R)-5-(6-aminopurin-9-yl)-4-[[(2S,4R,5R)-5-(6-aminopurin-9-yl)-4-[2-[(6-aminopurin-9-yl)methoxy]ethoxy-oxidophosphoryl]oxy-2-oxolanyl]methoxy-oxidophosphoryl]oxy-2-oxolanyl]methyl phosphate
> <PUBCHEM_IUPAC_NAME_MARKUP>
[(2<I>R</I>,3<I>R</I>,5<I>S</I>)-2-(6-amino-1-benzylpurin-1-ium-9-yl)-5-(hydroxymethyl)oxolan-3-yl] [(2<I>S</I>,4<I>R</I>,5<I>R</I>)-5-(6-aminopurin-9-yl)-4-[[(2<I>S</I>,4<I>R</I>,5<I>R</I>)-5-(6-aminopurin-9-yl)-4-[2-[(6-aminopurin-9-yl)methoxy]ethoxy-oxidophosphoryl]oxyoxolan-2-yl]methoxy-oxidophosphoryl]oxyoxolan-2-yl]methyl phosphate
> <PUBCHEM_IUPAC_NAME>
[(2R,3R,5S)-2-(6-amino-1-benzylpurin-1-ium-9-yl)-5-(hydroxymethyl)oxolan-3-yl] [(2S,4R,5R)-5-(6-aminopurin-9-yl)-4-[[(2S,4R,5R)-5-(6-aminopurin-9-yl)-4-[2-[(6-aminopurin-9-yl)methoxy]ethoxy-oxidophosphoryl]oxyoxolan-2-yl]methoxy-oxidophosphoryl]oxyoxolan-2-yl]methyl phosphate
> <PUBCHEM_IUPAC_SYSTEMATIC_NAME>
[(2S,4R,5R)-5-(6-aminopurin-9-yl)-4-[[(2S,4R,5R)-5-(6-aminopurin-9-yl)-4-[2-[(6-aminopurin-9-yl)methoxy]ethoxy-oxidanidyl-phosphoryl]oxy-oxolan-2-yl]methoxy-oxidanidyl-phosphoryl]oxy-oxolan-2-yl]methyl [(2R,3R,5S)-2-[6-azanyl-1-(phenylmethyl)purin-1-ium-9-yl]-5-(hydroxymethyl)oxolan-3-yl] phosphate
> <PUBCHEM_IUPAC_TRADITIONAL_NAME>
[(2S,4R,5R)-5-adenin-9-yl-4-[[(2S,4R,5R)-5-adenin-9-yl-4-[2-(adenin-9-ylmethoxy)ethoxy-oxido-phosphoryl]oxy-tetrahydrofuran-2-yl]methoxy-oxido-phosphoryl]oxy-tetrahydrofuran-2-yl]methyl [(2R,3R,5S)-2-(6-amino-1-benzyl-purin-1-ium-9-yl)-5-methylol-tetrahydrofuran-3-yl] phosphate
> <PUBCHEM_IUPAC_INCHI>
InChI=1S/C45H53N20O17P3/c46-35-31-39(53-15-50-35)62(18-56-31)23-73-6-7-74-83(67,68)80-29-9-26(78-44(29)63-20-57-32-36(47)51-16-54-40(32)63)13-76-85(71,72)82-30-10-27(79-45(30)64-21-58-33-37(48)52-17-55-41(33)64)14-75-84(69,70)81-28-8-25(12-66)77-43(28)65-22-59-34-38(49)61(19-60-42(34)65)11-24-4-2-1-3-5-24/h1-5,15-22,25-30,43-45,49,66H,6-14,23H2,(H9,46,47,48,50,51,52,53,54,55,67,68,69,70,71,72)/p-2/t25-,26-,27-,28+,29+,30+,43+,44+,45+/m0/s1
> <PUBCHEM_IUPAC_INCHIKEY>
FHJBUKJTHAQMBB-NJEBJAKLSA-L
> <PUBCHEM_XLOGP3_AA>
-4.4
> <PUBCHEM_EXACT_MASS>
1236.29539123
> <PUBCHEM_MOLECULAR_FORMULA>
C45H51N20O17P3-2
> <PUBCHEM_MOLECULAR_WEIGHT>
1236.9
> <PUBCHEM_OPENEYE_CAN_SMILES>
C1C(OC(C1OP(=O)([O-])OCC2CC(C(O2)N3C=NC4=C(N=CN=C43)N)OP(=O)([O-])OCC5CC(C(O5)N6C=NC7=C(N=CN=C76)N)OP(=O)([O-])OCCOCN8C=NC9=C(N=CN=C98)N)N1C=NC2=C1N=C[N+](=C2N)CC1=CC=CC=C1)CO
> <PUBCHEM_OPENEYE_ISO_SMILES>
C1[C@H](O[C@H]([C@@H]1OP(=O)([O-])OC[C@@H]2C[C@H]([C@@H](O2)N3C=NC4=C(N=CN=C43)N)OP(=O)([O-])OC[C@@H]5C[C@H]([C@@H](O5)N6C=NC7=C(N=CN=C76)N)OP(=O)([O-])OCCOCN8C=NC9=C(N=CN=C98)N)N1C=NC2=C1N=C[N+](=C2N)CC1=CC=CC=C1)CO
> <PUBCHEM_CACTVS_TPSA>
502
> <PUBCHEM_MONOISOTOPIC_WEIGHT>
1236.29539123
> <PUBCHEM_TOTAL_CHARGE>
-2
> <PUBCHEM_HEAVY_ATOM_COUNT>
85
> <PUBCHEM_ATOM_DEF_STEREO_COUNT>
9
> <PUBCHEM_ATOM_UDEF_STEREO_COUNT>
0
> <PUBCHEM_BOND_DEF_STEREO_COUNT>
0
> <PUBCHEM_BOND_UDEF_STEREO_COUNT>
0
> <PUBCHEM_ISOTOPIC_ATOM_COUNT>
0
> <PUBCHEM_COMPONENT_COUNT>
1
> <PUBCHEM_CACTVS_TAUTO_COUNT>
-1
> <PUBCHEM_COORDINATE_TYPE>
1
5
255
> <PUBCHEM_BONDANNOTATIONS>
42  21  5
21  56  8
21  58  8
50  22  6
22  57  8
22  60  8
49  23  5
23  59  8
23  61  8
24  58  8
24  62  8
25  60  8
25  63  8
26  61  8
26  64  8
27  56  8
27  69  8
28  57  8
28  68  8
29  65  8
29  68  8
30  59  8
30  71  8
31  66  8
31  69  8
33  67  8
33  71  8
36  81  8
36  82  8
37  82  8
37  83  8
38  81  8
38  85  8
39  84  8
39  85  8
44  53  5
47  54  5
52  55  6
56  62  8
57  63  8
59  64  8
62  66  8
63  65  8
64  67  8
41  7  6
73  75  8
73  76  8
75  77  8
76  78  8
77  79  8
78  79  8
45  8  5
81  83  8
83  84  8
46  9  6
$$$$
