501014
  -OEChem-10302200282D
100108  0     1  0  0  0  0  0999 V2000
   14.0595    1.0609    0.0000 S   0  0  0  0  0  0  0  0  0  0  0  0
    9.0748   -0.1423    0.0000 P   0  0  3  0  0  0  0  0  0  0  0  0
   14.6459    0.2508    0.0000 P   0  0  3  0  0  0  0  0  0  0  0  0
   12.1112   -1.5136    0.0000 O   0  0  0  0  0  0  0  0  0  0  0  0
   17.9776    0.2570    0.0000 O   0  0  0  0  0  0  0  0  0  0  0  0
    9.5733   -1.0092    0.0000 O   0  0  0  0  0  0  0  0  0  0  0  0
    6.0834    1.6994    0.0000 O   0  0  0  0  0  0  0  0  0  0  0  0
   15.4559    0.8372    0.0000 O   0  0  0  0  0  0  0  0  0  0  0  0
   10.8551    0.7486    0.0000 O   0  0  0  0  0  0  0  0  0  0  0  0
   13.8358   -0.3355    0.0000 O   0  0  0  0  0  0  0  0  0  0  0  0
    8.5763    0.7246    0.0000 O   0  0  0  0  0  0  0  0  0  0  0  0
   15.9045   -1.2916    0.0000 O   0  0  0  0  0  0  0  0  0  0  0  0
    8.4646    2.7122    0.0000 O   0  0  0  0  0  0  0  0  0  0  0  0
    6.8503    4.1708    0.0000 O   0  0  0  0  0  0  0  0  0  0  0  0
   19.0678   -1.5245    0.0000 O   0  0  0  0  0  0  0  0  0  0  0  0
    8.2079   -0.6408    0.0000 O   0  0  0  0  0  0  0  0  0  0  0  0
   15.2323   -0.5592    0.0000 O   0  0  0  0  0  0  0  0  0  0  0  0
    9.9416    0.3562    0.0000 O   0  0  0  0  0  0  0  0  0  0  0  0
   10.8490   -2.7715    0.0000 N   0  0  0  0  0  0  0  0  0  0  0  0
   17.3419    1.9218    0.0000 N   0  0  0  0  0  0  0  0  0  0  0  0
    4.9644    3.0862    0.0000 N   0  0  0  0  0  0  0  0  0  0  0  0
   10.8490   -4.3810    0.0000 N   0  0  0  0  0  0  0  0  0  0  0  0
   17.0073    3.4960    0.0000 N   0  0  0  0  0  0  0  0  0  0  0  0
    9.0367   -2.5762    0.0000 N   0  0  0  0  0  0  0  0  0  0  0  0
    3.3637    3.2545    0.0000 N   0  0  0  0  0  0  0  0  0  0  0  0
   19.1551    2.1075    0.0000 N   0  0  0  0  0  0  0  0  0  0  0  0
    5.3480    4.8682    0.0000 N   0  0  0  0  0  0  0  0  0  0  0  0
    8.1707   -4.0762    0.0000 N   0  0  0  0  0  0  0  0  0  0  0  0
   19.6904    3.7548    0.0000 N   0  0  0  0  0  0  0  0  0  0  0  0
    9.0367   -5.5762    0.0000 N   0  0  0  0  0  0  0  0  0  0  0  0
    3.9467    5.8862    0.0000 N   0  0  0  0  0  0  0  0  0  0  0  0
   18.5314    5.0420    0.0000 N   0  0  0  0  0  0  0  0  0  0  0  0
    2.3644    5.1818    0.0000 N   0  0  0  0  0  0  0  0  0  0  0  0
   10.5733   -1.0110    0.0000 C   0  0  2  0  0  0  0  0  0  0  0  0
   11.1624   -0.2029    0.0000 C   0  0  1  0  0  0  0  0  0  0  0  0
   12.1130   -0.5136    0.0000 C   0  0  1  0  0  0  0  0  0  0  0  0
   11.1596   -1.8210    0.0000 C   0  0  1  0  0  0  0  0  0  0  0  0
   16.3687    0.4289    0.0000 C   0  0  2  0  0  0  0  0  0  0  0  0
   16.5750   -0.5496    0.0000 C   0  0  1  0  0  0  0  0  0  0  0  0
   17.2356    0.9274    0.0000 C   0  0  1  0  0  0  0  0  0  0  0  0
   17.5693   -0.6558    0.0000 C   0  0  1  0  0  0  0  0  0  0  0  0
    7.0778    1.5932    0.0000 C   0  0  1  0  0  0  0  0  0  0  0  0
    7.4861    2.5060    0.0000 C   0  0  2  0  0  0  0  0  0  0  0  0
    6.7441    3.1764    0.0000 C   0  0  2  0  0  0  0  0  0  0  0  0
   12.9230    0.0728    0.0000 C   0  0  0  0  0  0  0  0  0  0  0  0
    5.8772    2.6779    0.0000 C   0  0  1  0  0  0  0  0  0  0  0  0
    7.5763    0.7263    0.0000 C   0  0  0  0  0  0  0  0  0  0  0  0
   18.0678   -1.5227    0.0000 C   0  0  0  0  0  0  0  0  0  0  0  0
    9.9028   -3.0762    0.0000 C   0  0  0  0  0  0  0  0  0  0  0  0
   11.4326   -3.5762    0.0000 C   0  0  0  0  0  0  0  0  0  0  0  0
   18.2041    2.4166    0.0000 C   0  0  0  0  0  0  0  0  0  0  0  0
   16.6037    2.5876    0.0000 C   0  0  0  0  0  0  0  0  0  0  0  0
    9.9028   -4.0762    0.0000 C   0  0  0  0  0  0  0  0  0  0  0  0
    4.7602    4.0591    0.0000 C   0  0  0  0  0  0  0  0  0  0  0  0
    4.1030    2.5900    0.0000 C   0  0  0  0  0  0  0  0  0  0  0  0
   17.9962    3.3947    0.0000 C   0  0  0  0  0  0  0  0  0  0  0  0
    3.7657    4.1637    0.0000 C   0  0  0  0  0  0  0  0  0  0  0  0
    9.0367   -4.5762    0.0000 C   0  0  0  0  0  0  0  0  0  0  0  0
   18.7393    4.0638    0.0000 C   0  0  0  0  0  0  0  0  0  0  0  0
    3.3590    5.0772    0.0000 C   0  0  0  0  0  0  0  0  0  0  0  0
    8.1707   -3.0762    0.0000 C   0  0  0  0  0  0  0  0  0  0  0  0
   19.8983    2.7767    0.0000 C   0  0  0  0  0  0  0  0  0  0  0  0
    4.9413    5.7817    0.0000 C   0  0  0  0  0  0  0  0  0  0  0  0
   10.2927   -0.4580    0.0000 H   0  0  0  0  0  0  0  0  0  0  0  0
   11.6016    0.2347    0.0000 H   0  0  0  0  0  0  0  0  0  0  0  0
   12.6649   -0.7960    0.0000 H   0  0  0  0  0  0  0  0  0  0  0  0
   11.5973   -2.2602    0.0000 H   0  0  0  0  0  0  0  0  0  0  0  0
   16.3374    1.0481    0.0000 H   0  0  0  0  0  0  0  0  0  0  0  0
   15.9764   -0.3881    0.0000 H   0  0  0  0  0  0  0  0  0  0  0  0
   17.8148    1.1486    0.0000 H   0  0  0  0  0  0  0  0  0  0  0  0
   18.1885   -0.6245    0.0000 H   0  0  0  0  0  0  0  0  0  0  0  0
    6.7392    1.0738    0.0000 H   0  0  0  0  0  0  0  0  0  0  0  0
    7.8754    2.0235    0.0000 H   0  0  0  0  0  0  0  0  0  0  0  0
    7.3233    3.3976    0.0000 H   0  0  0  0  0  0  0  0  0  0  0  0
   13.2706    0.5862    0.0000 H   0  0  0  0  0  0  0  0  0  0  0  0
   12.4778    0.5042    0.0000 H   0  0  0  0  0  0  0  0  0  0  0  0
    5.3947    2.2886    0.0000 H   0  0  0  0  0  0  0  0  0  0  0  0
    6.9933    0.5152    0.0000 H   0  0  0  0  0  0  0  0  0  0  0  0
    7.6829    0.1155    0.0000 H   0  0  0  0  0  0  0  0  0  0  0  0
   17.4848   -1.7338    0.0000 H   0  0  0  0  0  0  0  0  0  0  0  0
   18.1744   -2.1335    0.0000 H   0  0  0  0  0  0  0  0  0  0  0  0
   11.2707    1.2087    0.0000 H   0  0  0  0  0  0  0  0  0  0  0  0
   12.0526   -3.5762    0.0000 H   0  0  0  0  0  0  0  0  0  0  0  0
   16.0951   -1.8816    0.0000 H   0  0  0  0  0  0  0  0  0  0  0  0
    8.6572    3.3016    0.0000 H   0  0  0  0  0  0  0  0  0  0  0  0
   15.9973    2.4586    0.0000 H   0  0  0  0  0  0  0  0  0  0  0  0
    7.4172    4.4220    0.0000 H   0  0  0  0  0  0  0  0  0  0  0  0
    4.0382    1.9734    0.0000 H   0  0  0  0  0  0  0  0  0  0  0  0
   19.3769   -2.0619    0.0000 H   0  0  0  0  0  0  0  0  0  0  0  0
    7.6715   -0.3299    0.0000 H   0  0  0  0  0  0  0  0  0  0  0  0
   14.9791   -1.1252    0.0000 H   0  0  0  0  0  0  0  0  0  0  0  0
    7.6338   -2.7662    0.0000 H   0  0  0  0  0  0  0  0  0  0  0  0
   20.4879    2.5851    0.0000 H   0  0  0  0  0  0  0  0  0  0  0  0
    5.3057    6.2833    0.0000 H   0  0  0  0  0  0  0  0  0  0  0  0
    8.4998   -5.8862    0.0000 H   0  0  0  0  0  0  0  0  0  0  0  0
    9.5737   -5.8862    0.0000 H   0  0  0  0  0  0  0  0  0  0  0  0
   18.9921    5.4568    0.0000 H   0  0  0  0  0  0  0  0  0  0  0  0
   17.9417    5.2336    0.0000 H   0  0  0  0  0  0  0  0  0  0  0  0
    2.1122    5.7481    0.0000 H   0  0  0  0  0  0  0  0  0  0  0  0
    2.0000    4.6802    0.0000 H   0  0  0  0  0  0  0  0  0  0  0  0
  1  3  2  0  0  0  0
  2  6  1  0  0  0  0
  2 11  1  0  0  0  0
  2 16  1  0  0  0  0
  2 18  2  0  0  0  0
  3  8  1  0  0  0  0
  3 10  1  0  0  0  0
  3 17  1  0  0  0  0
  4 36  1  0  0  0  0
  4 37  1  0  0  0  0
  5 40  1  0  0  0  0
  5 41  1  0  0  0  0
 34  6  1  6  0  0  0
  7 42  1  0  0  0  0
  7 46  1  0  0  0  0
 38  8  1  1  0  0  0
 35  9  1  6  0  0  0
  9 82  1  0  0  0  0
 10 45  1  0  0  0  0
 11 47  1  0  0  0  0
 39 12  1  1  0  0  0
 12 84  1  0  0  0  0
 43 13  1  6  0  0  0
 13 85  1  0  0  0  0
 44 14  1  6  0  0  0
 14 87  1  0  0  0  0
 15 48  1  0  0  0  0
 15 89  1  0  0  0  0
 16 90  1  0  0  0  0
 17 91  1  0  0  0  0
 37 19  1  1  0  0  0
 19 49  1  0  0  0  0
 19 50  1  0  0  0  0
 40 20  1  6  0  0  0
 20 51  1  0  0  0  0
 20 52  1  0  0  0  0
 46 21  1  1  0  0  0
 21 54  1  0  0  0  0
 21 55  1  0  0  0  0
 22 50  2  0  0  0  0
 22 53  1  0  0  0  0
 23 52  2  0  0  0  0
 23 56  1  0  0  0  0
 24 49  2  0  0  0  0
 24 61  1  0  0  0  0
 25 55  2  0  0  0  0
 25 57  1  0  0  0  0
 26 51  2  0  0  0  0
 26 62  1  0  0  0  0
 27 54  2  0  0  0  0
 27 63  1  0  0  0  0
 28 58  1  0  0  0  0
 28 61  2  0  0  0  0
 29 59  1  0  0  0  0
 29 62  2  0  0  0  0
 30 58  1  0  0  0  0
 30 95  1  0  0  0  0
 30 96  1  0  0  0  0
 31 60  1  0  0  0  0
 31 63  2  0  0  0  0
 32 59  1  0  0  0  0
 32 97  1  0  0  0  0
 32 98  1  0  0  0  0
 33 60  1  0  0  0  0
 33 99  1  0  0  0  0
 33100  1  0  0  0  0
 34 35  1  0  0  0  0
 34 37  1  0  0  0  0
 34 64  1  0  0  0  0
 35 36  1  0  0  0  0
 35 65  1  0  0  0  0
 36 45  1  1  0  0  0
 36 66  1  0  0  0  0
 37 67  1  0  0  0  0
 38 39  1  0  0  0  0
 38 40  1  0  0  0  0
 38 68  1  0  0  0  0
 39 41  1  0  0  0  0
 39 69  1  0  0  0  0
 40 70  1  0  0  0  0
 41 48  1  6  0  0  0
 41 71  1  0  0  0  0
 42 43  1  0  0  0  0
 42 47  1  1  0  0  0
 42 72  1  0  0  0  0
 43 44  1  0  0  0  0
 43 73  1  0  0  0  0
 44 46  1  0  0  0  0
 44 74  1  0  0  0  0
 45 75  1  0  0  0  0
 45 76  1  0  0  0  0
 46 77  1  0  0  0  0
 47 78  1  0  0  0  0
 47 79  1  0  0  0  0
 48 80  1  0  0  0  0
 48 81  1  0  0  0  0
 49 53  1  0  0  0  0
 50 83  1  0  0  0  0
 51 56  1  0  0  0  0
 52 86  1  0  0  0  0
 53 58  2  0  0  0  0
 54 57  1  0  0  0  0
 55 88  1  0  0  0  0
 56 59  2  0  0  0  0
 57 60  2  0  0  0  0
 61 92  1  0  0  0  0
 62 93  1  0  0  0  0
 63 94  1  0  0  0  0
M  END
> <PUBCHEM_COMPOUND_CID>
501014
> <PUBCHEM_COMPOUND_CANONICALIZED>
1
> <PUBCHEM_CACTVS_COMPLEXITY>
1710
> <PUBCHEM_CACTVS_HBOND_ACCEPTOR>
28
> <PUBCHEM_CACTVS_HBOND_DONOR>
10
> <PUBCHEM_CACTVS_ROTATABLE_BOND>
14
> <PUBCHEM_CACTVS_SUBSKEYS>
AAADcfB7/ANAAAAAAAAAAAAAAAAAAWLFiRIsWLAAAAAAAFgB/gAAHgAQCCAACBzhlwYF8L9MFxCgQQZhZICAgC0REKABUCAoVBCDWAJAyEAeRAgPAALTACDwMAIAAAAAAAAAAAAAAAAAAAAAAAAAAAAAAA==
> <PUBCHEM_IUPAC_OPENEYE_NAME>
[(2R,3R,4R,5R)-2-(6-aminopurin-9-yl)-5-[[[(2R,3R,4R,5R)-2-(6-aminopurin-9-yl)-4-hydroxy-5-(hydroxymethyl)tetrahydrofuran-3-yl]oxy-hydroxy-phosphinothioyl]oxymethyl]-4-hydroxy-tetrahydrofuran-3-yl] [(2R,3S,4R,5R)-5-(6-aminopurin-9-yl)-3,4-dihydroxy-tetrahydrofuran-2-yl]methyl hydrogen phosphate
> <PUBCHEM_IUPAC_CAS_NAME>
[(2R,3R,4R,5R)-2-(6-aminopurin-9-yl)-5-[[[(2R,3R,4R,5R)-2-(6-aminopurin-9-yl)-4-hydroxy-5-(hydroxymethyl)-3-oxolanyl]oxy-hydroxyphosphinothioyl]oxymethyl]-4-hydroxy-3-oxolanyl] [(2R,3S,4R,5R)-5-(6-aminopurin-9-yl)-3,4-dihydroxy-2-oxolanyl]methyl hydrogen phosphate
> <PUBCHEM_IUPAC_NAME_MARKUP>
[(2<I>R</I>,3<I>R</I>,4<I>R</I>,5<I>R</I>)-2-(6-aminopurin-9-yl)-5-[[[(2<I>R</I>,3<I>R</I>,4<I>R</I>,5<I>R</I>)-2-(6-aminopurin-9-yl)-4-hydroxy-5-(hydroxymethyl)oxolan-3-yl]oxy-hydroxyphosphinothioyl]oxymethyl]-4-hydroxyoxolan-3-yl] [(2<I>R</I>,3<I>S</I>,4<I>R</I>,5<I>R</I>)-5-(6-aminopurin-9-yl)-3,4-dihydroxyoxolan-2-yl]methyl hydrogen phosphate
> <PUBCHEM_IUPAC_NAME>
[(2R,3R,4R,5R)-2-(6-aminopurin-9-yl)-5-[[[(2R,3R,4R,5R)-2-(6-aminopurin-9-yl)-4-hydroxy-5-(hydroxymethyl)oxolan-3-yl]oxy-hydroxyphosphinothioyl]oxymethyl]-4-hydroxyoxolan-3-yl] [(2R,3S,4R,5R)-5-(6-aminopurin-9-yl)-3,4-dihydroxyoxolan-2-yl]methyl hydrogen phosphate
> <PUBCHEM_IUPAC_SYSTEMATIC_NAME>
[(2R,3R,4R,5R)-2-(6-aminopurin-9-yl)-5-[[[(2R,3R,4R,5R)-2-(6-aminopurin-9-yl)-5-(hydroxymethyl)-4-oxidanyl-oxolan-3-yl]oxy-oxidanyl-phosphinothioyl]oxymethyl]-4-oxidanyl-oxolan-3-yl] [(2R,3S,4R,5R)-5-(6-aminopurin-9-yl)-3,4-bis(oxidanyl)oxolan-2-yl]methyl hydrogen phosphate
> <PUBCHEM_IUPAC_TRADITIONAL_NAME>
[(2R,3R,4R,5R)-2-adenin-9-yl-5-[[[(2R,3R,4R,5R)-2-adenin-9-yl-4-hydroxy-5-methylol-tetrahydrofuran-3-yl]oxy-hydroxy-thiophosphoryl]oxymethyl]-4-hydroxy-tetrahydrofuran-3-yl] [(2R,3S,4R,5R)-5-adenin-9-yl-3,4-dihydroxy-tetrahydrofuran-2-yl]methyl hydrogen phosphate
> <PUBCHEM_IUPAC_INCHI>
InChI=1S/C30H37N15O15P2S/c31-22-13-25(37-4-34-22)43(7-40-13)28-19(50)16(47)11(57-28)2-54-61(51,52)59-20-18(49)12(58-29(20)44-8-41-14-23(32)35-5-38-26(14)44)3-55-62(53,63)60-21-17(48)10(1-46)56-30(21)45-9-42-15-24(33)36-6-39-27(15)45/h4-12,16-21,28-30,46-50H,1-3H2,(H,51,52)(H,53,63)(H2,31,34,37)(H2,32,35,38)(H2,33,36,39)/t10-,11-,12-,16-,17-,18-,19-,20-,21-,28-,29-,30-,62?/m1/s1
> <PUBCHEM_IUPAC_INCHIKEY>
OQSNCWUVGIVPRJ-JGQDSGOASA-N
> <PUBCHEM_XLOGP3_AA>
-5.3
> <PUBCHEM_EXACT_MASS>
941.17895070
> <PUBCHEM_MOLECULAR_FORMULA>
C30H37N15O15P2S
> <PUBCHEM_MOLECULAR_WEIGHT>
941.7
> <PUBCHEM_OPENEYE_CAN_SMILES>
C1=NC(=C2C(=N1)N(C=N2)C3C(C(C(O3)COP(=O)(O)OC4C(C(OC4N5C=NC6=C(N=CN=C65)N)COP(=S)(O)OC7C(C(OC7N8C=NC9=C(N=CN=C98)N)CO)O)O)O)O)N
> <PUBCHEM_OPENEYE_ISO_SMILES>
C1=NC(=C2C(=N1)N(C=N2)[C@H]3[C@@H]([C@@H]([C@H](O3)COP(=O)(O)O[C@@H]4[C@@H]([C@H](O[C@H]4N5C=NC6=C(N=CN=C65)N)COP(=S)(O)O[C@@H]7[C@@H]([C@H](O[C@H]7N8C=NC9=C(N=CN=C98)N)CO)O)O)O)O)N
> <PUBCHEM_CACTVS_TPSA>
464
> <PUBCHEM_MONOISOTOPIC_WEIGHT>
941.17895070
> <PUBCHEM_TOTAL_CHARGE>
0
> <PUBCHEM_HEAVY_ATOM_COUNT>
63
> <PUBCHEM_ATOM_DEF_STEREO_COUNT>
12
> <PUBCHEM_ATOM_UDEF_STEREO_COUNT>
0
> <PUBCHEM_BOND_DEF_STEREO_COUNT>
0
> <PUBCHEM_BOND_UDEF_STEREO_COUNT>
0
> <PUBCHEM_ISOTOPIC_ATOM_COUNT>
0
> <PUBCHEM_COMPONENT_COUNT>
1
> <PUBCHEM_CACTVS_TAUTO_COUNT>
-1
> <PUBCHEM_COORDINATE_TYPE>
1
5
255
> <PUBCHEM_BONDANNOTATIONS>
39  12  5
43  13  6
44  14  6
37  19  5
19  49  8
19  50  8
40  20  6
20  51  8
20  52  8
46  21  5
21  54  8
21  55  8
22  50  8
22  53  8
23  52  8
23  56  8
24  49  8
24  61  8
25  55  8
25  57  8
26  51  8
26  62  8
27  54  8
27  63  8
28  58  8
28  61  8
29  59  8
29  62  8
31  60  8
31  63  8
36  45  5
41  48  6
42  47  5
49  53  8
51  56  8
53  58  8
54  57  8
56  59  8
57  60  8
34  6  6
38  8  5
35  9  6
$$$$
