501001
  -OEChem-10302200282D
 70 73  0     1  0  0  0  0  0999 V2000
    3.4030   -0.0600    0.0000 P   0  0  0  0  0  0  0  0  0  0  0  0
   20.5870   -0.0600    0.0000 P   0  0  0  0  0  0  0  0  0  0  0  0
   11.9950   -2.0600    0.0000 F   0  0  0  0  0  0  0  0  0  0  0  0
   11.9950   -0.0600    0.0000 F   0  0  0  0  0  0  0  0  0  0  0  0
    6.8671    0.9400    0.0000 O   0  0  0  0  0  0  0  0  0  0  0  0
    2.5369    0.4400    0.0000 O   0  0  0  0  0  0  0  0  0  0  0  0
    2.9030   -0.9260    0.0000 O   0  0  0  0  0  0  0  0  0  0  0  0
   17.1229    0.9400    0.0000 O   0  0  0  0  0  0  0  0  0  0  0  0
   21.4530    0.4400    0.0000 O   0  0  0  0  0  0  0  0  0  0  0  0
   21.0870   -0.9260    0.0000 O   0  0  0  0  0  0  0  0  0  0  0  0
    3.9030    0.8060    0.0000 O   0  0  0  0  0  0  0  0  0  0  0  0
    4.2690    1.4400    0.0000 O   0  0  0  0  0  0  0  0  0  0  0  0
   20.0870    0.8060    0.0000 O   0  0  0  0  0  0  0  0  0  0  0  0
   19.7209    1.4400    0.0000 O   0  0  0  0  0  0  0  0  0  0  0  0
    6.0010    1.4400    0.0000 O   0  0  0  0  0  0  0  0  0  0  0  0
   17.9889    1.4400    0.0000 O   0  0  0  0  0  0  0  0  0  0  0  0
   10.4114   -0.2553    0.0000 N   0  0  0  0  0  0  0  0  0  0  0  0
   10.4114   -1.8647    0.0000 N   0  0  0  0  0  0  0  0  0  0  0  0
   13.5786   -0.2553    0.0000 N   0  0  0  0  0  0  0  0  0  0  0  0
   13.5786   -1.8647    0.0000 N   0  0  0  0  0  0  0  0  0  0  0  0
    6.0010   -0.5600    0.0000 N   0  0  0  0  0  0  0  0  0  0  0  0
   17.9889   -0.5600    0.0000 N   0  0  0  0  0  0  0  0  0  0  0  0
   10.9950   -1.0600    0.0000 C   0  0  0  0  0  0  0  0  0  0  0  0
    9.4651   -0.5600    0.0000 C   0  0  0  0  0  0  0  0  0  0  0  0
   11.9950   -1.0600    0.0000 C   0  0  0  0  0  0  0  0  0  0  0  0
    9.4651   -1.5600    0.0000 C   0  0  0  0  0  0  0  0  0  0  0  0
   12.9950   -1.0600    0.0000 C   0  0  0  0  0  0  0  0  0  0  0  0
   14.5248   -0.5600    0.0000 C   0  0  0  0  0  0  0  0  0  0  0  0
    8.5991   -0.0600    0.0000 C   0  0  0  0  0  0  0  0  0  0  0  0
    7.7331   -0.5600    0.0000 C   0  0  0  0  0  0  0  0  0  0  0  0
   14.5248   -1.5600    0.0000 C   0  0  0  0  0  0  0  0  0  0  0  0
   10.7220    0.6953    0.0000 C   0  0  0  0  0  0  0  0  0  0  0  0
    8.5991   -2.0600    0.0000 C   0  0  0  0  0  0  0  0  0  0  0  0
    5.1350   -0.0600    0.0000 C   0  0  3  0  0  0  0  0  0  0  0  0
    7.7331   -1.5600    0.0000 C   0  0  0  0  0  0  0  0  0  0  0  0
   15.3908   -0.0600    0.0000 C   0  0  0  0  0  0  0  0  0  0  0  0
   18.8549   -0.0600    0.0000 C   0  0  3  0  0  0  0  0  0  0  0  0
   16.2568   -0.5600    0.0000 C   0  0  0  0  0  0  0  0  0  0  0  0
    4.2690   -0.5600    0.0000 C   0  0  0  0  0  0  0  0  0  0  0  0
    6.8671   -0.0600    0.0000 C   0  0  0  0  0  0  0  0  0  0  0  0
   15.3908   -2.0600    0.0000 C   0  0  0  0  0  0  0  0  0  0  0  0
   19.7209   -0.5600    0.0000 C   0  0  0  0  0  0  0  0  0  0  0  0
   16.2568   -1.5600    0.0000 C   0  0  0  0  0  0  0  0  0  0  0  0
   17.1229   -0.0600    0.0000 C   0  0  0  0  0  0  0  0  0  0  0  0
    5.1350    0.9400    0.0000 C   0  0  0  0  0  0  0  0  0  0  0  0
   18.8549    0.9400    0.0000 C   0  0  0  0  0  0  0  0  0  0  0  0
    8.5991    0.5600    0.0000 H   0  0  0  0  0  0  0  0  0  0  0  0
   13.3860    0.3341    0.0000 H   0  0  0  0  0  0  0  0  0  0  0  0
   11.3113    0.5026    0.0000 H   0  0  0  0  0  0  0  0  0  0  0  0
   10.9146    1.2846    0.0000 H   0  0  0  0  0  0  0  0  0  0  0  0
   10.1327    0.8879    0.0000 H   0  0  0  0  0  0  0  0  0  0  0  0
    8.5991   -2.6800    0.0000 H   0  0  0  0  0  0  0  0  0  0  0  0
    5.1350   -0.6800    0.0000 H   0  0  0  0  0  0  0  0  0  0  0  0
    7.1962   -1.8700    0.0000 H   0  0  0  0  0  0  0  0  0  0  0  0
   18.3180    0.2500    0.0000 H   0  0  0  0  0  0  0  0  0  0  0  0
   15.3908    0.5600    0.0000 H   0  0  0  0  0  0  0  0  0  0  0  0
    3.8705   -1.0350    0.0000 H   0  0  0  0  0  0  0  0  0  0  0  0
    4.6675   -1.0350    0.0000 H   0  0  0  0  0  0  0  0  0  0  0  0
   19.3224   -1.0350    0.0000 H   0  0  0  0  0  0  0  0  0  0  0  0
   20.1195   -1.0350    0.0000 H   0  0  0  0  0  0  0  0  0  0  0  0
    6.0010   -1.1800    0.0000 H   0  0  0  0  0  0  0  0  0  0  0  0
   15.3908   -2.6800    0.0000 H   0  0  0  0  0  0  0  0  0  0  0  0
   16.7938   -1.8700    0.0000 H   0  0  0  0  0  0  0  0  0  0  0  0
   17.9889   -1.1800    0.0000 H   0  0  0  0  0  0  0  0  0  0  0  0
    2.0000    0.1300    0.0000 H   0  0  0  0  0  0  0  0  0  0  0  0
    3.2130   -1.4630    0.0000 H   0  0  0  0  0  0  0  0  0  0  0  0
   21.9899    0.1300    0.0000 H   0  0  0  0  0  0  0  0  0  0  0  0
   20.7770   -1.4630    0.0000 H   0  0  0  0  0  0  0  0  0  0  0  0
    4.2690    2.0600    0.0000 H   0  0  0  0  0  0  0  0  0  0  0  0
   19.7209    2.0600    0.0000 H   0  0  0  0  0  0  0  0  0  0  0  0
  1  6  1  0  0  0  0
  1  7  1  0  0  0  0
  1 11  2  0  0  0  0
  1 39  1  0  0  0  0
  2  9  1  0  0  0  0
  2 10  1  0  0  0  0
  2 13  2  0  0  0  0
  2 42  1  0  0  0  0
  3 25  1  0  0  0  0
  4 25  1  0  0  0  0
  5 40  2  0  0  0  0
  6 65  1  0  0  0  0
  7 66  1  0  0  0  0
  8 44  2  0  0  0  0
  9 67  1  0  0  0  0
 10 68  1  0  0  0  0
 12 45  1  0  0  0  0
 12 69  1  0  0  0  0
 14 46  1  0  0  0  0
 14 70  1  0  0  0  0
 15 45  2  0  0  0  0
 16 46  2  0  0  0  0
 17 23  1  0  0  0  0
 17 24  1  0  0  0  0
 17 32  1  0  0  0  0
 18 23  2  0  0  0  0
 18 26  1  0  0  0  0
 19 27  1  0  0  0  0
 19 28  1  0  0  0  0
 19 48  1  0  0  0  0
 20 27  2  0  0  0  0
 20 31  1  0  0  0  0
 21 34  1  0  0  0  0
 21 40  1  0  0  0  0
 21 61  1  0  0  0  0
 22 37  1  0  0  0  0
 22 44  1  0  0  0  0
 22 64  1  0  0  0  0
 23 25  1  0  0  0  0
 24 26  2  0  0  0  0
 24 29  1  0  0  0  0
 25 27  1  0  0  0  0
 26 33  1  0  0  0  0
 28 31  2  0  0  0  0
 28 36  1  0  0  0  0
 29 30  2  0  0  0  0
 29 47  1  0  0  0  0
 30 35  1  0  0  0  0
 30 40  1  0  0  0  0
 31 41  1  0  0  0  0
 32 49  1  0  0  0  0
 32 50  1  0  0  0  0
 32 51  1  0  0  0  0
 33 35  2  0  0  0  0
 33 52  1  0  0  0  0
 34 39  1  0  0  0  0
 34 45  1  0  0  0  0
 34 53  1  0  0  0  0
 35 54  1  0  0  0  0
 36 38  2  0  0  0  0
 36 56  1  0  0  0  0
 37 42  1  0  0  0  0
 37 46  1  0  0  0  0
 37 55  1  0  0  0  0
 38 43  1  0  0  0  0
 38 44  1  0  0  0  0
 39 57  1  0  0  0  0
 39 58  1  0  0  0  0
 41 43  2  0  0  0  0
 41 62  1  0  0  0  0
 42 59  1  0  0  0  0
 42 60  1  0  0  0  0
 43 63  1  0  0  0  0
M  END
> <PUBCHEM_COMPOUND_CID>
501001
> <PUBCHEM_COMPOUND_CANONICALIZED>
1
> <PUBCHEM_CACTVS_COMPLEXITY>
1300
> <PUBCHEM_CACTVS_HBOND_ACCEPTOR>
16
> <PUBCHEM_CACTVS_HBOND_DONOR>
9
> <PUBCHEM_CACTVS_ROTATABLE_BOND>
12
> <PUBCHEM_CACTVS_SUBSKEYS>
AAADceB7vYMAAAAAAAAAAAAAAAAAAWLAAAAwYAAAAAAAAFgB/gAAHwgQCCAADCjJnxQz2LfNkhCoQyfyfICCgC2lEqAJ2aG4dNiKaLLA3bGUYQholgLYyacciQCeCAAAQAAAACAQAACAAAAAQAAAAAAAAA==
> <PUBCHEM_IUPAC_OPENEYE_NAME>
2-[[2-[[6-[(1-carboxy-2-phosphono-ethyl)carbamoyl]-1-methyl-benzimidazol-2-yl]-difluoro-methyl]-3H-benzimidazole-5-carbonyl]amino]-3-phosphono-propanoic acid
> <PUBCHEM_IUPAC_CAS_NAME>
2-[[[2-[[6-[[(1-carboxy-2-phosphonoethyl)amino]-oxomethyl]-1-methyl-2-benzimidazolyl]-difluoromethyl]-3H-benzimidazol-5-yl]-oxomethyl]amino]-3-phosphonopropanoic acid
> <PUBCHEM_IUPAC_NAME_MARKUP>
2-[[2-[[6-[(1-carboxy-2-phosphonoethyl)carbamoyl]-1-methylbenzimidazol-2-yl]-difluoromethyl]-3<I>H</I>-benzimidazole-5-carbonyl]amino]-3-phosphonopropanoic acid
> <PUBCHEM_IUPAC_NAME>
2-[[2-[[6-[(1-carboxy-2-phosphonoethyl)carbamoyl]-1-methylbenzimidazol-2-yl]-difluoromethyl]-3H-benzimidazole-5-carbonyl]amino]-3-phosphonopropanoic acid
> <PUBCHEM_IUPAC_SYSTEMATIC_NAME>
2-[[2-[bis(fluoranyl)-[1-methyl-6-[(1-oxidanyl-1-oxidanylidene-3-phosphono-propan-2-yl)carbamoyl]benzimidazol-2-yl]methyl]-3H-benzimidazol-5-yl]carbonylamino]-3-phosphono-propanoic acid
> <PUBCHEM_IUPAC_TRADITIONAL_NAME>
2-[[2-[[6-[(1-carboxy-2-phosphono-ethyl)carbamoyl]-1-methyl-benzimidazol-2-yl]-difluoro-methyl]-3H-benzimidazole-5-carbonyl]amino]-3-phosphono-propionic acid
> <PUBCHEM_IUPAC_INCHI>
InChI=1S/C24H24F2N6O12P2/c1-32-17-7-11(19(34)28-16(21(37)38)9-46(42,43)44)3-5-13(17)31-23(32)24(25,26)22-29-12-4-2-10(6-14(12)30-22)18(33)27-15(20(35)36)8-45(39,40)41/h2-7,15-16H,8-9H2,1H3,(H,27,33)(H,28,34)(H,29,30)(H,35,36)(H,37,38)(H2,39,40,41)(H2,42,43,44)
> <PUBCHEM_IUPAC_INCHIKEY>
KFPIZPYLZVHBQQ-UHFFFAOYSA-N
> <PUBCHEM_XLOGP3_AA>
-2.7
> <PUBCHEM_EXACT_MASS>
688.08955054
> <PUBCHEM_MOLECULAR_FORMULA>
C24H24F2N6O12P2
> <PUBCHEM_MOLECULAR_WEIGHT>
688.4
> <PUBCHEM_OPENEYE_CAN_SMILES>
CN1C2=C(C=CC(=C2)C(=O)NC(CP(=O)(O)O)C(=O)O)N=C1C(C3=NC4=C(N3)C=C(C=C4)C(=O)NC(CP(=O)(O)O)C(=O)O)(F)F
> <PUBCHEM_OPENEYE_ISO_SMILES>
CN1C2=C(C=CC(=C2)C(=O)NC(CP(=O)(O)O)C(=O)O)N=C1C(C3=NC4=C(N3)C=C(C=C4)C(=O)NC(CP(=O)(O)O)C(=O)O)(F)F
> <PUBCHEM_CACTVS_TPSA>
294
> <PUBCHEM_MONOISOTOPIC_WEIGHT>
688.08955054
> <PUBCHEM_TOTAL_CHARGE>
0
> <PUBCHEM_HEAVY_ATOM_COUNT>
46
> <PUBCHEM_ATOM_DEF_STEREO_COUNT>
0
> <PUBCHEM_ATOM_UDEF_STEREO_COUNT>
2
> <PUBCHEM_BOND_DEF_STEREO_COUNT>
0
> <PUBCHEM_BOND_UDEF_STEREO_COUNT>
0
> <PUBCHEM_ISOTOPIC_ATOM_COUNT>
0
> <PUBCHEM_COMPONENT_COUNT>
1
> <PUBCHEM_CACTVS_TAUTO_COUNT>
-1
> <PUBCHEM_COORDINATE_TYPE>
1
5
255
> <PUBCHEM_BONDANNOTATIONS>
17  23  8
17  24  8
18  23  8
18  26  8
19  27  8
19  28  8
20  27  8
20  31  8
24  26  8
24  29  8
26  33  8
28  31  8
28  36  8
29  30  8
30  35  8
31  41  8
33  35  8
34  39  3
36  38  8
37  42  3
38  43  8
41  43  8
$$$$
