501000
  -OEChem-10302200282D
 70 73  0     1  0  0  0  0  0999 V2000
    3.4030    3.4704    0.0000 P   0  0  0  0  0  0  0  0  0  0  0  0
   17.1570   -4.4704    0.0000 P   0  0  0  0  0  0  0  0  0  0  0  0
    6.8671    4.4704    0.0000 O   0  0  0  0  0  0  0  0  0  0  0  0
    2.5369    3.9704    0.0000 O   0  0  0  0  0  0  0  0  0  0  0  0
    2.9030    2.6044    0.0000 O   0  0  0  0  0  0  0  0  0  0  0  0
   18.0230   -4.9704    0.0000 O   0  0  0  0  0  0  0  0  0  0  0  0
   16.6570   -5.3365    0.0000 O   0  0  0  0  0  0  0  0  0  0  0  0
   16.2910   -0.9704    0.0000 O   0  0  0  0  0  0  0  0  0  0  0  0
    3.9030    4.3365    0.0000 O   0  0  0  0  0  0  0  0  0  0  0  0
    4.2690    4.9704    0.0000 O   0  0  0  0  0  0  0  0  0  0  0  0
   17.6570   -3.6044    0.0000 O   0  0  0  0  0  0  0  0  0  0  0  0
   18.0230   -2.9704    0.0000 O   0  0  0  0  0  0  0  0  0  0  0  0
    6.0010    4.9704    0.0000 O   0  0  0  0  0  0  0  0  0  0  0  0
   17.1570   -1.4704    0.0000 O   0  0  0  0  0  0  0  0  0  0  0  0
   10.4114    3.2752    0.0000 N   0  0  0  0  0  0  0  0  0  0  0  0
   10.4114    1.6657    0.0000 N   0  0  0  0  0  0  0  0  0  0  0  0
   13.4837    1.5014    0.0000 N   0  0  0  0  0  0  0  0  0  0  0  0
   12.0899    0.6966    0.0000 N   0  0  0  0  0  0  0  0  0  0  0  0
    6.0010    2.9704    0.0000 N   0  0  0  0  0  0  0  0  0  0  0  0
   15.4249   -2.4704    0.0000 N   0  0  0  0  0  0  0  0  0  0  0  0
   10.9950    2.4704    0.0000 C   0  0  0  0  0  0  0  0  0  0  0  0
    9.4651    2.9704    0.0000 C   0  0  0  0  0  0  0  0  0  0  0  0
   11.9950    2.4704    0.0000 C   0  0  0  0  0  0  0  0  0  0  0  0
    9.4651    1.9704    0.0000 C   0  0  0  0  0  0  0  0  0  0  0  0
   12.4950    1.6044    0.0000 C   0  0  0  0  0  0  0  0  0  0  0  0
    8.5991    3.4704    0.0000 C   0  0  0  0  0  0  0  0  0  0  0  0
   13.6929    0.5296    0.0000 C   0  0  0  0  0  0  0  0  0  0  0  0
    7.7331    2.9704    0.0000 C   0  0  0  0  0  0  0  0  0  0  0  0
   12.8269    0.0296    0.0000 C   0  0  0  0  0  0  0  0  0  0  0  0
   10.7220    4.2257    0.0000 C   0  0  0  0  0  0  0  0  0  0  0  0
    8.5991    1.4704    0.0000 C   0  0  0  0  0  0  0  0  0  0  0  0
    5.1350    3.4704    0.0000 C   0  0  3  0  0  0  0  0  0  0  0  0
    7.7331    1.9704    0.0000 C   0  0  0  0  0  0  0  0  0  0  0  0
   16.2910   -2.9704    0.0000 C   0  0  3  0  0  0  0  0  0  0  0  0
   14.5589    0.0296    0.0000 C   0  0  0  0  0  0  0  0  0  0  0  0
   14.5589   -0.9704    0.0000 C   0  0  0  0  0  0  0  0  0  0  0  0
    4.2690    2.9704    0.0000 C   0  0  0  0  0  0  0  0  0  0  0  0
    6.8671    3.4704    0.0000 C   0  0  0  0  0  0  0  0  0  0  0  0
   16.2910   -3.9704    0.0000 C   0  0  0  0  0  0  0  0  0  0  0  0
   12.8269   -0.9704    0.0000 C   0  0  0  0  0  0  0  0  0  0  0  0
   13.6929   -1.4704    0.0000 C   0  0  0  0  0  0  0  0  0  0  0  0
   15.4249   -1.4704    0.0000 C   0  0  0  0  0  0  0  0  0  0  0  0
    5.1350    4.4704    0.0000 C   0  0  0  0  0  0  0  0  0  0  0  0
   17.1570   -2.4704    0.0000 C   0  0  0  0  0  0  0  0  0  0  0  0
   12.5776    2.6825    0.0000 H   0  0  0  0  0  0  0  0  0  0  0  0
   11.8873    3.0810    0.0000 H   0  0  0  0  0  0  0  0  0  0  0  0
    8.5991    4.0904    0.0000 H   0  0  0  0  0  0  0  0  0  0  0  0
   13.8978    1.9628    0.0000 H   0  0  0  0  0  0  0  0  0  0  0  0
    5.1350    2.8504    0.0000 H   0  0  0  0  0  0  0  0  0  0  0  0
   11.3113    4.0331    0.0000 H   0  0  0  0  0  0  0  0  0  0  0  0
   10.9146    4.8150    0.0000 H   0  0  0  0  0  0  0  0  0  0  0  0
   10.1327    4.4183    0.0000 H   0  0  0  0  0  0  0  0  0  0  0  0
    8.5991    0.8504    0.0000 H   0  0  0  0  0  0  0  0  0  0  0  0
    7.1962    1.6604    0.0000 H   0  0  0  0  0  0  0  0  0  0  0  0
   15.7540   -3.2804    0.0000 H   0  0  0  0  0  0  0  0  0  0  0  0
   15.0959    0.3396    0.0000 H   0  0  0  0  0  0  0  0  0  0  0  0
    3.8705    2.4955    0.0000 H   0  0  0  0  0  0  0  0  0  0  0  0
    4.6675    2.4955    0.0000 H   0  0  0  0  0  0  0  0  0  0  0  0
   15.6804   -3.8628    0.0000 H   0  0  0  0  0  0  0  0  0  0  0  0
   16.0789   -4.5531    0.0000 H   0  0  0  0  0  0  0  0  0  0  0  0
    6.0010    2.3504    0.0000 H   0  0  0  0  0  0  0  0  0  0  0  0
   12.2899   -1.2804    0.0000 H   0  0  0  0  0  0  0  0  0  0  0  0
   13.6929   -2.0904    0.0000 H   0  0  0  0  0  0  0  0  0  0  0  0
   14.8880   -2.7804    0.0000 H   0  0  0  0  0  0  0  0  0  0  0  0
    2.0000    3.6604    0.0000 H   0  0  0  0  0  0  0  0  0  0  0  0
    3.2130    2.0675    0.0000 H   0  0  0  0  0  0  0  0  0  0  0  0
   18.0230   -5.5904    0.0000 H   0  0  0  0  0  0  0  0  0  0  0  0
   16.0370   -5.3365    0.0000 H   0  0  0  0  0  0  0  0  0  0  0  0
    4.2690    5.5904    0.0000 H   0  0  0  0  0  0  0  0  0  0  0  0
   18.5600   -2.6604    0.0000 H   0  0  0  0  0  0  0  0  0  0  0  0
  1  4  1  0  0  0  0
  1  5  1  0  0  0  0
  1  9  2  0  0  0  0
  1 37  1  0  0  0  0
  2  6  1  0  0  0  0
  2  7  1  0  0  0  0
  2 11  2  0  0  0  0
  2 39  1  0  0  0  0
  3 38  2  0  0  0  0
  4 65  1  0  0  0  0
  5 66  1  0  0  0  0
  6 67  1  0  0  0  0
  7 68  1  0  0  0  0
  8 42  2  0  0  0  0
 10 43  1  0  0  0  0
 10 69  1  0  0  0  0
 12 44  1  0  0  0  0
 12 70  1  0  0  0  0
 13 43  2  0  0  0  0
 14 44  2  0  0  0  0
 15 21  1  0  0  0  0
 15 22  1  0  0  0  0
 15 30  1  0  0  0  0
 16 21  2  0  0  0  0
 16 24  1  0  0  0  0
 17 25  1  0  0  0  0
 17 27  1  0  0  0  0
 17 48  1  0  0  0  0
 18 25  2  0  0  0  0
 18 29  1  0  0  0  0
 19 32  1  0  0  0  0
 19 38  1  0  0  0  0
 19 61  1  0  0  0  0
 20 34  1  0  0  0  0
 20 42  1  0  0  0  0
 20 64  1  0  0  0  0
 21 23  1  0  0  0  0
 22 24  2  0  0  0  0
 22 26  1  0  0  0  0
 23 25  1  0  0  0  0
 23 45  1  0  0  0  0
 23 46  1  0  0  0  0
 24 31  1  0  0  0  0
 26 28  2  0  0  0  0
 26 47  1  0  0  0  0
 27 29  2  0  0  0  0
 27 35  1  0  0  0  0
 28 33  1  0  0  0  0
 28 38  1  0  0  0  0
 29 40  1  0  0  0  0
 30 50  1  0  0  0  0
 30 51  1  0  0  0  0
 30 52  1  0  0  0  0
 31 33  2  0  0  0  0
 31 53  1  0  0  0  0
 32 37  1  0  0  0  0
 32 43  1  0  0  0  0
 32 49  1  0  0  0  0
 33 54  1  0  0  0  0
 34 39  1  0  0  0  0
 34 44  1  0  0  0  0
 34 55  1  0  0  0  0
 35 36  2  0  0  0  0
 35 56  1  0  0  0  0
 36 41  1  0  0  0  0
 36 42  1  0  0  0  0
 37 57  1  0  0  0  0
 37 58  1  0  0  0  0
 39 59  1  0  0  0  0
 39 60  1  0  0  0  0
 40 41  2  0  0  0  0
 40 62  1  0  0  0  0
 41 63  1  0  0  0  0
M  END
> <PUBCHEM_COMPOUND_CID>
501000
> <PUBCHEM_COMPOUND_CANONICALIZED>
1
> <PUBCHEM_CACTVS_COMPLEXITY>
1210
> <PUBCHEM_CACTVS_HBOND_ACCEPTOR>
14
> <PUBCHEM_CACTVS_HBOND_DONOR>
9
> <PUBCHEM_CACTVS_ROTATABLE_BOND>
12
> <PUBCHEM_CACTVS_SUBSKEYS>
AAADceB7vAMAAAAAAAAAAAAAAAAAAWLAAAAwYAAAAAAAAFgB/gAAHggQCCAADCjJnwQz2LfNkhCoQyfyfICCgC2lEqAJ2aG4dNiKaLLA3bGUYQholgLYyacciQCeCAAAQAAAACAQAACAAAAAQAAAAAAAAA==
> <PUBCHEM_IUPAC_OPENEYE_NAME>
2-[[2-[[6-[(1-carboxy-2-phosphono-ethyl)carbamoyl]-1-methyl-benzimidazol-2-yl]methyl]-3H-benzimidazole-5-carbonyl]amino]-3-phosphono-propanoic acid
> <PUBCHEM_IUPAC_CAS_NAME>
2-[[[2-[[6-[[(1-carboxy-2-phosphonoethyl)amino]-oxomethyl]-1-methyl-2-benzimidazolyl]methyl]-3H-benzimidazol-5-yl]-oxomethyl]amino]-3-phosphonopropanoic acid
> <PUBCHEM_IUPAC_NAME_MARKUP>
2-[[2-[[6-[(1-carboxy-2-phosphonoethyl)carbamoyl]-1-methylbenzimidazol-2-yl]methyl]-3<I>H</I>-benzimidazole-5-carbonyl]amino]-3-phosphonopropanoic acid
> <PUBCHEM_IUPAC_NAME>
2-[[2-[[6-[(1-carboxy-2-phosphonoethyl)carbamoyl]-1-methylbenzimidazol-2-yl]methyl]-3H-benzimidazole-5-carbonyl]amino]-3-phosphonopropanoic acid
> <PUBCHEM_IUPAC_SYSTEMATIC_NAME>
2-[[2-[[1-methyl-6-[(1-oxidanyl-1-oxidanylidene-3-phosphono-propan-2-yl)carbamoyl]benzimidazol-2-yl]methyl]-3H-benzimidazol-5-yl]carbonylamino]-3-phosphono-propanoic acid
> <PUBCHEM_IUPAC_TRADITIONAL_NAME>
2-[[2-[[6-[(1-carboxy-2-phosphono-ethyl)carbamoyl]-1-methyl-benzimidazol-2-yl]methyl]-3H-benzimidazole-5-carbonyl]amino]-3-phosphono-propionic acid
> <PUBCHEM_IUPAC_INCHI>
InChI=1S/C24H26N6O12P2/c1-30-18-7-12(22(32)29-17(24(35)36)10-44(40,41)42)3-5-14(18)27-20(30)8-19-25-13-4-2-11(6-15(13)26-19)21(31)28-16(23(33)34)9-43(37,38)39/h2-7,16-17H,8-10H2,1H3,(H,25,26)(H,28,31)(H,29,32)(H,33,34)(H,35,36)(H2,37,38,39)(H2,40,41,42)
> <PUBCHEM_IUPAC_INCHIKEY>
QWYPRFOWQNPOKD-UHFFFAOYSA-N
> <PUBCHEM_XLOGP3_AA>
-2.8
> <PUBCHEM_EXACT_MASS>
652.10839428
> <PUBCHEM_MOLECULAR_FORMULA>
C24H26N6O12P2
> <PUBCHEM_MOLECULAR_WEIGHT>
652.4
> <PUBCHEM_OPENEYE_CAN_SMILES>
CN1C2=C(C=CC(=C2)C(=O)NC(CP(=O)(O)O)C(=O)O)N=C1CC3=NC4=C(N3)C=C(C=C4)C(=O)NC(CP(=O)(O)O)C(=O)O
> <PUBCHEM_OPENEYE_ISO_SMILES>
CN1C2=C(C=CC(=C2)C(=O)NC(CP(=O)(O)O)C(=O)O)N=C1CC3=NC4=C(N3)C=C(C=C4)C(=O)NC(CP(=O)(O)O)C(=O)O
> <PUBCHEM_CACTVS_TPSA>
294
> <PUBCHEM_MONOISOTOPIC_WEIGHT>
652.10839428
> <PUBCHEM_TOTAL_CHARGE>
0
> <PUBCHEM_HEAVY_ATOM_COUNT>
44
> <PUBCHEM_ATOM_DEF_STEREO_COUNT>
0
> <PUBCHEM_ATOM_UDEF_STEREO_COUNT>
2
> <PUBCHEM_BOND_DEF_STEREO_COUNT>
0
> <PUBCHEM_BOND_UDEF_STEREO_COUNT>
0
> <PUBCHEM_ISOTOPIC_ATOM_COUNT>
0
> <PUBCHEM_COMPONENT_COUNT>
1
> <PUBCHEM_CACTVS_TAUTO_COUNT>
-1
> <PUBCHEM_COORDINATE_TYPE>
1
5
255
> <PUBCHEM_BONDANNOTATIONS>
15  21  8
15  22  8
16  21  8
16  24  8
17  25  8
17  27  8
18  25  8
18  29  8
22  24  8
22  26  8
24  31  8
26  28  8
27  29  8
27  35  8
28  33  8
29  40  8
31  33  8
32  37  3
34  39  3
35  36  8
36  41  8
40  41  8
$$$$
