501004
  -OEChem-10302200282D
 67 70  0     1  0  0  0  0  0999 V2000
    5.1350    2.5000    0.0000 P   0  0  0  0  0  0  0  0  0  0  0  0
    3.4030   -2.5000    0.0000 P   0  0  0  0  0  0  0  0  0  0  0  0
   12.8610   -1.0000    0.0000 F   0  0  0  0  0  0  0  0  0  0  0  0
   12.8610    1.0000    0.0000 F   0  0  0  0  0  0  0  0  0  0  0  0
    4.2690    1.0000    0.0000 O   0  0  0  0  0  0  0  0  0  0  0  0
    4.2690    3.0000    0.0000 O   0  0  0  0  0  0  0  0  0  0  0  0
    5.6350    3.3660    0.0000 O   0  0  0  0  0  0  0  0  0  0  0  0
    7.7331    2.0000    0.0000 O   0  0  0  0  0  0  0  0  0  0  0  0
    4.6350    1.6340    0.0000 O   0  0  0  0  0  0  0  0  0  0  0  0
    2.5369   -3.0000    0.0000 O   0  0  0  0  0  0  0  0  0  0  0  0
    3.9030   -3.3660    0.0000 O   0  0  0  0  0  0  0  0  0  0  0  0
    2.5369   -1.0000    0.0000 O   0  0  0  0  0  0  0  0  0  0  0  0
    2.9030   -1.6340    0.0000 O   0  0  0  0  0  0  0  0  0  0  0  0
    3.4030    0.5000    0.0000 O   0  0  0  0  0  0  0  0  0  0  0  0
   11.2774    0.8047    0.0000 N   0  0  0  0  0  0  0  0  0  0  0  0
    6.8671    0.5000    0.0000 N   0  0  0  0  0  0  0  0  0  0  0  0
    5.1350   -0.5000    0.0000 N   0  0  0  0  0  0  0  0  0  0  0  0
   11.2774   -0.8047    0.0000 N   0  0  0  0  0  0  0  0  0  0  0  0
   14.4446    0.8047    0.0000 N   0  0  0  0  0  0  0  0  0  0  0  0
   14.4446   -0.8047    0.0000 N   0  0  0  0  0  0  0  0  0  0  0  0
    6.0010    1.0000    0.0000 C   0  0  3  0  0  0  0  0  0  0  0  0
    6.0010    2.0000    0.0000 C   0  0  0  0  0  0  0  0  0  0  0  0
   10.3312    0.5000    0.0000 C   0  0  0  0  0  0  0  0  0  0  0  0
   11.8610    0.0000    0.0000 C   0  0  0  0  0  0  0  0  0  0  0  0
    4.2690   -1.0000    0.0000 C   0  0  3  0  0  0  0  0  0  0  0  0
   10.3312   -0.5000    0.0000 C   0  0  0  0  0  0  0  0  0  0  0  0
    5.1350    0.5000    0.0000 C   0  0  0  0  0  0  0  0  0  0  0  0
   12.8610    0.0000    0.0000 C   0  0  0  0  0  0  0  0  0  0  0  0
    8.5991    0.5000    0.0000 C   0  0  0  0  0  0  0  0  0  0  0  0
    9.4651    1.0000    0.0000 C   0  0  0  0  0  0  0  0  0  0  0  0
    4.2690   -2.0000    0.0000 C   0  0  0  0  0  0  0  0  0  0  0  0
    7.7331    1.0000    0.0000 C   0  0  0  0  0  0  0  0  0  0  0  0
   13.8610    0.0000    0.0000 C   0  0  0  0  0  0  0  0  0  0  0  0
    9.4651   -1.0000    0.0000 C   0  0  0  0  0  0  0  0  0  0  0  0
    8.5991   -0.5000    0.0000 C   0  0  0  0  0  0  0  0  0  0  0  0
   11.5880    1.7552    0.0000 C   0  0  0  0  0  0  0  0  0  0  0  0
   15.3908    0.5000    0.0000 C   0  0  0  0  0  0  0  0  0  0  0  0
    3.4030   -0.5000    0.0000 C   0  0  0  0  0  0  0  0  0  0  0  0
   15.3908   -0.5000    0.0000 C   0  0  0  0  0  0  0  0  0  0  0  0
   16.2568    1.0000    0.0000 C   0  0  0  0  0  0  0  0  0  0  0  0
   16.2568   -1.0000    0.0000 C   0  0  0  0  0  0  0  0  0  0  0  0
   17.1229    0.5000    0.0000 C   0  0  0  0  0  0  0  0  0  0  0  0
   17.1229   -0.5000    0.0000 C   0  0  0  0  0  0  0  0  0  0  0  0
    6.5380    1.3100    0.0000 H   0  0  0  0  0  0  0  0  0  0  0  0
    6.6116    1.8923    0.0000 H   0  0  0  0  0  0  0  0  0  0  0  0
    6.2131    2.5826    0.0000 H   0  0  0  0  0  0  0  0  0  0  0  0
    4.2690   -0.3800    0.0000 H   0  0  0  0  0  0  0  0  0  0  0  0
    6.8671   -0.1200    0.0000 H   0  0  0  0  0  0  0  0  0  0  0  0
    9.4651    1.6200    0.0000 H   0  0  0  0  0  0  0  0  0  0  0  0
    5.6720   -0.8100    0.0000 H   0  0  0  0  0  0  0  0  0  0  0  0
    4.4810   -2.5826    0.0000 H   0  0  0  0  0  0  0  0  0  0  0  0
    4.8796   -1.8923    0.0000 H   0  0  0  0  0  0  0  0  0  0  0  0
    9.4651   -1.6200    0.0000 H   0  0  0  0  0  0  0  0  0  0  0  0
    8.0622   -0.8100    0.0000 H   0  0  0  0  0  0  0  0  0  0  0  0
   12.1774    1.5626    0.0000 H   0  0  0  0  0  0  0  0  0  0  0  0
   11.7807    2.3446    0.0000 H   0  0  0  0  0  0  0  0  0  0  0  0
   10.9987    1.9479    0.0000 H   0  0  0  0  0  0  0  0  0  0  0  0
   14.2520    1.3940    0.0000 H   0  0  0  0  0  0  0  0  0  0  0  0
   16.2568    1.6200    0.0000 H   0  0  0  0  0  0  0  0  0  0  0  0
   16.2568   -1.6200    0.0000 H   0  0  0  0  0  0  0  0  0  0  0  0
    4.2690    3.6200    0.0000 H   0  0  0  0  0  0  0  0  0  0  0  0
    5.3250    3.9030    0.0000 H   0  0  0  0  0  0  0  0  0  0  0  0
   17.6598    0.8100    0.0000 H   0  0  0  0  0  0  0  0  0  0  0  0
   17.6598   -0.8100    0.0000 H   0  0  0  0  0  0  0  0  0  0  0  0
    2.5369   -3.6200    0.0000 H   0  0  0  0  0  0  0  0  0  0  0  0
    3.5930   -3.9030    0.0000 H   0  0  0  0  0  0  0  0  0  0  0  0
    2.0000   -0.6900    0.0000 H   0  0  0  0  0  0  0  0  0  0  0  0
  1  6  1  0  0  0  0
  1  7  1  0  0  0  0
  1  9  2  0  0  0  0
  1 22  1  0  0  0  0
  2 10  1  0  0  0  0
  2 11  1  0  0  0  0
  2 13  2  0  0  0  0
  2 31  1  0  0  0  0
  3 28  1  0  0  0  0
  4 28  1  0  0  0  0
  5 27  2  0  0  0  0
  6 61  1  0  0  0  0
  7 62  1  0  0  0  0
  8 32  2  0  0  0  0
 10 65  1  0  0  0  0
 11 66  1  0  0  0  0
 12 38  1  0  0  0  0
 12 67  1  0  0  0  0
 14 38  2  0  0  0  0
 15 23  1  0  0  0  0
 15 24  1  0  0  0  0
 15 36  1  0  0  0  0
 16 21  1  0  0  0  0
 16 32  1  0  0  0  0
 16 48  1  0  0  0  0
 17 25  1  0  0  0  0
 17 27  1  0  0  0  0
 17 50  1  0  0  0  0
 18 24  2  0  0  0  0
 18 26  1  0  0  0  0
 19 33  1  0  0  0  0
 19 37  1  0  0  0  0
 19 58  1  0  0  0  0
 20 33  2  0  0  0  0
 20 39  1  0  0  0  0
 21 22  1  0  0  0  0
 21 27  1  0  0  0  0
 21 44  1  0  0  0  0
 22 45  1  0  0  0  0
 22 46  1  0  0  0  0
 23 26  2  0  0  0  0
 23 30  1  0  0  0  0
 24 28  1  0  0  0  0
 25 31  1  0  0  0  0
 25 38  1  0  0  0  0
 25 47  1  0  0  0  0
 26 34  1  0  0  0  0
 28 33  1  0  0  0  0
 29 30  2  0  0  0  0
 29 32  1  0  0  0  0
 29 35  1  0  0  0  0
 30 49  1  0  0  0  0
 31 51  1  0  0  0  0
 31 52  1  0  0  0  0
 34 35  2  0  0  0  0
 34 53  1  0  0  0  0
 35 54  1  0  0  0  0
 36 55  1  0  0  0  0
 36 56  1  0  0  0  0
 36 57  1  0  0  0  0
 37 39  1  0  0  0  0
 37 40  2  0  0  0  0
 39 41  2  0  0  0  0
 40 42  1  0  0  0  0
 40 59  1  0  0  0  0
 41 43  1  0  0  0  0
 41 60  1  0  0  0  0
 42 43  2  0  0  0  0
 42 63  1  0  0  0  0
 43 64  1  0  0  0  0
M  END
> <PUBCHEM_COMPOUND_CID>
501004
> <PUBCHEM_COMPOUND_CANONICALIZED>
1
> <PUBCHEM_CACTVS_COMPLEXITY>
1170
> <PUBCHEM_CACTVS_HBOND_ACCEPTOR>
14
> <PUBCHEM_CACTVS_HBOND_DONOR>
8
> <PUBCHEM_CACTVS_ROTATABLE_BOND>
11
> <PUBCHEM_CACTVS_SUBSKEYS>
AAADceB7vYMAAAAAAAAAAAAAAAAAAWLAAAAwYAAAAAAAAFgB/gAAHwgQCCAADCjJnxQz2LfNkhCoQyfyfICCgC2lEqAJ2aG4dNiKaLLA3bGUYQholgLYyacciQCeCAAAQAAAACAQAACAAAAAQAAAAAAAAA==
> <PUBCHEM_IUPAC_OPENEYE_NAME>
2-[[2-[[2-[1H-benzimidazol-2-yl(difluoro)methyl]-3-methyl-benzimidazole-5-carbonyl]amino]-3-phosphono-propanoyl]amino]-3-phosphono-propanoic acid
> <PUBCHEM_IUPAC_CAS_NAME>
2-[[2-[[[2-[1H-benzimidazol-2-yl(difluoro)methyl]-3-methyl-5-benzimidazolyl]-oxomethyl]amino]-1-oxo-3-phosphonopropyl]amino]-3-phosphonopropanoic acid
> <PUBCHEM_IUPAC_NAME_MARKUP>
2-[[2-[[2-[1<I>H</I>-benzimidazol-2-yl(difluoro)methyl]-3-methylbenzimidazole-5-carbonyl]amino]-3-phosphonopropanoyl]amino]-3-phosphonopropanoic acid
> <PUBCHEM_IUPAC_NAME>
2-[[2-[[2-[1H-benzimidazol-2-yl(difluoro)methyl]-3-methylbenzimidazole-5-carbonyl]amino]-3-phosphonopropanoyl]amino]-3-phosphonopropanoic acid
> <PUBCHEM_IUPAC_SYSTEMATIC_NAME>
2-[[2-[[2-[1H-benzimidazol-2-yl-bis(fluoranyl)methyl]-3-methyl-benzimidazol-5-yl]carbonylamino]-3-phosphono-propanoyl]amino]-3-phosphono-propanoic acid
> <PUBCHEM_IUPAC_TRADITIONAL_NAME>
2-[[2-[[2-[1H-benzimidazol-2-yl(difluoro)methyl]-3-methyl-benzimidazole-5-carbonyl]amino]-3-phosphono-propanoyl]amino]-3-phosphono-propionic acid
> <PUBCHEM_IUPAC_INCHI>
InChI=1S/C23H24F2N6O10P2/c1-31-17-8-11(6-7-14(17)30-22(31)23(24,25)21-28-12-4-2-3-5-13(12)29-21)18(32)26-15(9-42(36,37)38)19(33)27-16(20(34)35)10-43(39,40)41/h2-8,15-16H,9-10H2,1H3,(H,26,32)(H,27,33)(H,28,29)(H,34,35)(H2,36,37,38)(H2,39,40,41)
> <PUBCHEM_IUPAC_INCHIKEY>
NPAOZMMZEIEAMU-UHFFFAOYSA-N
> <PUBCHEM_XLOGP3_AA>
-2.2
> <PUBCHEM_EXACT_MASS>
644.09972130
> <PUBCHEM_MOLECULAR_FORMULA>
C23H24F2N6O10P2
> <PUBCHEM_MOLECULAR_WEIGHT>
644.4
> <PUBCHEM_OPENEYE_CAN_SMILES>
CN1C2=C(C=CC(=C2)C(=O)NC(CP(=O)(O)O)C(=O)NC(CP(=O)(O)O)C(=O)O)N=C1C(C3=NC4=CC=CC=C4N3)(F)F
> <PUBCHEM_OPENEYE_ISO_SMILES>
CN1C2=C(C=CC(=C2)C(=O)NC(CP(=O)(O)O)C(=O)NC(CP(=O)(O)O)C(=O)O)N=C1C(C3=NC4=CC=CC=C4N3)(F)F
> <PUBCHEM_CACTVS_TPSA>
257
> <PUBCHEM_MONOISOTOPIC_WEIGHT>
644.09972130
> <PUBCHEM_TOTAL_CHARGE>
0
> <PUBCHEM_HEAVY_ATOM_COUNT>
43
> <PUBCHEM_ATOM_DEF_STEREO_COUNT>
0
> <PUBCHEM_ATOM_UDEF_STEREO_COUNT>
2
> <PUBCHEM_BOND_DEF_STEREO_COUNT>
0
> <PUBCHEM_BOND_UDEF_STEREO_COUNT>
0
> <PUBCHEM_ISOTOPIC_ATOM_COUNT>
0
> <PUBCHEM_COMPONENT_COUNT>
1
> <PUBCHEM_CACTVS_TAUTO_COUNT>
-1
> <PUBCHEM_COORDINATE_TYPE>
1
5
255
> <PUBCHEM_BONDANNOTATIONS>
15  23  8
15  24  8
18  24  8
18  26  8
19  33  8
19  37  8
20  33  8
20  39  8
21  22  3
23  26  8
23  30  8
25  31  3
26  34  8
29  30  8
29  35  8
34  35  8
37  39  8
37  40  8
39  41  8
40  42  8
41  43  8
42  43  8
$$$$
