501008
  -OEChem-10302200282D
138149  0     1  0  0  0  0  0999 V2000
    7.7646    0.0057    0.0000 P   0  0  3  0  0  0  0  0  0  0  0  0
    9.0748   -4.7126    0.0000 P   0  0  3  0  0  0  0  0  0  0  0  0
   10.9066    4.6230    0.0000 P   0  0  3  0  0  0  0  0  0  0  0  0
    6.0834   -2.8708    0.0000 O   0  0  0  0  0  0  0  0  0  0  0  0
   10.5645    1.3088    0.0000 O   0  0  0  0  0  0  0  0  0  0  0  0
    6.8503   -0.3995    0.0000 O   0  0  0  0  0  0  0  0  0  0  0  0
   12.1112   -6.0838    0.0000 O   0  0  0  0  0  0  0  0  0  0  0  0
    9.5733   -5.5795    0.0000 O   0  0  0  0  0  0  0  0  0  0  0  0
   11.4051    3.7561    0.0000 O   0  0  0  0  0  0  0  0  0  0  0  0
    8.5763   -3.8457    0.0000 O   0  0  0  0  0  0  0  0  0  0  0  0
    8.6788    0.4108    0.0000 O   0  0  0  0  0  0  0  0  0  0  0  0
    7.3594    0.9199    0.0000 O   0  0  0  0  0  0  0  0  0  0  0  0
   12.8202   -3.5028    0.0000 O   0  0  0  0  0  0  0  0  0  0  0  0
    8.2079   -5.2111    0.0000 O   0  0  0  0  0  0  0  0  0  0  0  0
    8.1698   -0.9086    0.0000 O   0  0  0  0  0  0  0  0  0  0  0  0
    9.9416   -4.2141    0.0000 O   0  0  0  0  0  0  0  0  0  0  0  0
   10.4081    5.4899    0.0000 O   0  0  0  0  0  0  0  0  0  0  0  0
   11.7735    5.1215    0.0000 O   0  0  0  0  0  0  0  0  0  0  0  0
   10.0397    4.1245    0.0000 O   0  0  0  0  0  0  0  0  0  0  0  0
   10.9126    8.0871    0.0000 O   0  0  0  0  0  0  0  0  0  0  0  0
    4.9644   -1.4840    0.0000 N   0  0  0  0  0  0  0  0  0  0  0  0
   12.2866    1.7671    0.0000 N   0  0  0  0  0  0  0  0  0  0  0  0
   10.8490   -7.3417    0.0000 N   0  0  0  0  0  0  0  0  0  0  0  0
    3.3637   -1.3158    0.0000 N   0  0  0  0  0  0  0  0  0  0  0  0
   13.6776    0.9575    0.0000 N   0  0  0  0  0  0  0  0  0  0  0  0
    5.3480    0.2979    0.0000 N   0  0  0  0  0  0  0  0  0  0  0  0
   10.8490   -8.9512    0.0000 N   0  0  0  0  0  0  0  0  0  0  0  0
   13.0294    3.4316    0.0000 N   0  0  0  0  0  0  0  0  0  0  0  0
    9.0367   -7.1465    0.0000 N   0  0  0  0  0  0  0  0  0  0  0  0
    3.9467    1.3160    0.0000 N   0  0  0  0  0  0  0  0  0  0  0  0
   14.7614    3.4256    0.0000 N   0  0  0  0  0  0  0  0  0  0  0  0
    8.1707   -8.6465    0.0000 N   0  0  0  0  0  0  0  0  0  0  0  0
    9.0367  -10.1465    0.0000 N   0  0  0  0  0  0  0  0  0  0  0  0
    2.3644    0.6115    0.0000 N   0  0  0  0  0  0  0  0  0  0  0  0
   15.6222    1.9226    0.0000 N   0  0  0  0  0  0  0  0  0  0  0  0
   10.9156    9.8191    0.0000 N   0  0  0  0  0  0  0  0  0  0  0  0
   12.1154   10.8919    0.0000 N   0  0  0  0  0  0  0  0  0  0  0  0
    9.5621   11.0399    0.0000 N   0  0  0  0  0  0  0  0  0  0  0  0
   10.1030   12.6853    0.0000 N   0  0  0  0  0  0  0  0  0  0  0  0
   11.7985   13.0396    0.0000 N   0  0  0  0  0  0  0  0  0  0  0  0
    6.7441   -1.3938    0.0000 C   0  0  1  0  0  0  0  0  0  0  0  0
    5.8772   -1.8923    0.0000 C   0  0  1  0  0  0  0  0  0  0  0  0
    7.4861   -2.0642    0.0000 C   0  0  0  0  0  0  0  0  0  0  0  0
    7.0778   -2.9771    0.0000 C   0  0  1  0  0  0  0  0  0  0  0  0
   10.9036    2.8909    0.0000 C   0  0  2  0  0  0  0  0  0  0  0  0
    9.6993    1.8103    0.0000 C   0  0  1  0  0  0  0  0  0  0  0  0
    9.9089    2.7881    0.0000 C   0  0  0  0  0  0  0  0  0  0  0  0
   11.3088    1.9767    0.0000 C   0  0  1  0  0  0  0  0  0  0  0  0
   10.5733   -5.5812    0.0000 C   0  0  1  0  0  0  0  0  0  0  0  0
   11.1596   -6.3912    0.0000 C   0  0  1  0  0  0  0  0  0  0  0  0
   11.1624   -4.7732    0.0000 C   0  0  0  0  0  0  0  0  0  0  0  0
   12.1130   -5.0838    0.0000 C   0  0  1  0  0  0  0  0  0  0  0  0
    7.5763   -3.8440    0.0000 C   0  0  0  0  0  0  0  0  0  0  0  0
    8.7851    1.4052    0.0000 C   0  0  0  0  0  0  0  0  0  0  0  0
   12.9230   -4.4975    0.0000 C   0  0  0  0  0  0  0  0  0  0  0  0
    4.7602   -0.5111    0.0000 C   0  0  0  0  0  0  0  0  0  0  0  0
    4.1030   -1.9803    0.0000 C   0  0  0  0  0  0  0  0  0  0  0  0
   13.0259    2.4316    0.0000 C   0  0  0  0  0  0  0  0  0  0  0  0
    9.9028   -7.6465    0.0000 C   0  0  0  0  0  0  0  0  0  0  0  0
   12.6886    0.8579    0.0000 C   0  0  0  0  0  0  0  0  0  0  0  0
    3.7657   -0.4066    0.0000 C   0  0  0  0  0  0  0  0  0  0  0  0
   11.4326   -8.1465    0.0000 C   0  0  0  0  0  0  0  0  0  0  0  0
   13.8902    1.9286    0.0000 C   0  0  0  0  0  0  0  0  0  0  0  0
    9.9028   -8.6465    0.0000 C   0  0  0  0  0  0  0  0  0  0  0  0
    3.3590    0.5070    0.0000 C   0  0  0  0  0  0  0  0  0  0  0  0
    9.0367   -9.1465    0.0000 C   0  0  0  0  0  0  0  0  0  0  0  0
   14.7579    2.4256    0.0000 C   0  0  0  0  0  0  0  0  0  0  0  0
    4.9413    1.2115    0.0000 C   0  0  0  0  0  0  0  0  0  0  0  0
   13.8971    3.9286    0.0000 C   0  0  0  0  0  0  0  0  0  0  0  0
    8.1707   -7.6465    0.0000 C   0  0  0  0  0  0  0  0  0  0  0  0
   10.9096    6.3550    0.0000 C   0  0  0  0  0  0  0  0  0  0  0  0
    8.1707  -10.6465    0.0000 C   0  0  0  0  0  0  0  0  0  0  0  0
   10.4111    7.2219    0.0000 C   0  0  0  0  0  0  0  0  0  0  0  0
    8.1707  -11.6465    0.0000 C   0  0  0  0  0  0  0  0  0  0  0  0
    7.3047  -12.1465    0.0000 C   0  0  0  0  0  0  0  0  0  0  0  0
    9.0367  -12.1465    0.0000 C   0  0  0  0  0  0  0  0  0  0  0  0
   10.4141    8.9540    0.0000 C   0  0  0  0  0  0  0  0  0  0  0  0
    7.3047  -13.1465    0.0000 C   0  0  0  0  0  0  0  0  0  0  0  0
    9.0367  -13.1465    0.0000 C   0  0  0  0  0  0  0  0  0  0  0  0
    8.1707  -13.6465    0.0000 C   0  0  0  0  0  0  0  0  0  0  0  0
   10.5121   10.7276    0.0000 C   0  0  0  0  0  0  0  0  0  0  0  0
   11.9045    9.9205    0.0000 C   0  0  0  0  0  0  0  0  0  0  0  0
   11.2575   11.3942    0.0000 C   0  0  0  0  0  0  0  0  0  0  0  0
   11.0530   12.3730    0.0000 C   0  0  0  0  0  0  0  0  0  0  0  0
    9.3576   12.0188    0.0000 C   0  0  0  0  0  0  0  0  0  0  0  0
    7.3233   -1.1726    0.0000 H   0  0  0  0  0  0  0  0  0  0  0  0
    5.3947   -2.2816    0.0000 H   0  0  0  0  0  0  0  0  0  0  0  0
    8.0225   -2.3752    0.0000 H   0  0  0  0  0  0  0  0  0  0  0  0
    7.8514   -1.5633    0.0000 H   0  0  0  0  0  0  0  0  0  0  0  0
    6.7392   -3.4964    0.0000 H   0  0  0  0  0  0  0  0  0  0  0  0
   10.5669    3.4115    0.0000 H   0  0  0  0  0  0  0  0  0  0  0  0
    9.6658    1.1912    0.0000 H   0  0  0  0  0  0  0  0  0  0  0  0
    9.9100    3.4081    0.0000 H   0  0  0  0  0  0  0  0  0  0  0  0
    9.2924    2.8540    0.0000 H   0  0  0  0  0  0  0  0  0  0  0  0
   11.4682    1.3775    0.0000 H   0  0  0  0  0  0  0  0  0  0  0  0
   10.2927   -5.0283    0.0000 H   0  0  0  0  0  0  0  0  0  0  0  0
   11.5973   -6.8304    0.0000 H   0  0  0  0  0  0  0  0  0  0  0  0
   11.4156   -4.2072    0.0000 H   0  0  0  0  0  0  0  0  0  0  0  0
   10.6260   -4.4623    0.0000 H   0  0  0  0  0  0  0  0  0  0  0  0
   12.6649   -5.3663    0.0000 H   0  0  0  0  0  0  0  0  0  0  0  0
    6.9933   -4.0550    0.0000 H   0  0  0  0  0  0  0  0  0  0  0  0
    7.6829   -4.4547    0.0000 H   0  0  0  0  0  0  0  0  0  0  0  0
    8.6361    2.0070    0.0000 H   0  0  0  0  0  0  0  0  0  0  0  0
    8.1665    1.3630    0.0000 H   0  0  0  0  0  0  0  0  0  0  0  0
   13.1938   -5.0552    0.0000 H   0  0  0  0  0  0  0  0  0  0  0  0
   13.5193   -4.3276    0.0000 H   0  0  0  0  0  0  0  0  0  0  0  0
    4.0382   -2.5969    0.0000 H   0  0  0  0  0  0  0  0  0  0  0  0
   12.3767    0.3220    0.0000 H   0  0  0  0  0  0  0  0  0  0  0  0
   12.0526   -8.1465    0.0000 H   0  0  0  0  0  0  0  0  0  0  0  0
    7.7247    1.4209    0.0000 H   0  0  0  0  0  0  0  0  0  0  0  0
   13.3224   -3.1392    0.0000 H   0  0  0  0  0  0  0  0  0  0  0  0
    7.6715   -4.9001    0.0000 H   0  0  0  0  0  0  0  0  0  0  0  0
    5.3057    1.7130    0.0000 H   0  0  0  0  0  0  0  0  0  0  0  0
   11.7746    5.7415    0.0000 H   0  0  0  0  0  0  0  0  0  0  0  0
   13.8993    4.5486    0.0000 H   0  0  0  0  0  0  0  0  0  0  0  0
    7.6338   -7.3365    0.0000 H   0  0  0  0  0  0  0  0  0  0  0  0
   11.3839    5.9557    0.0000 H   0  0  0  0  0  0  0  0  0  0  0  0
   11.3853    6.7527    0.0000 H   0  0  0  0  0  0  0  0  0  0  0  0
    9.5737  -10.4565    0.0000 H   0  0  0  0  0  0  0  0  0  0  0  0
    2.1122    1.1779    0.0000 H   0  0  0  0  0  0  0  0  0  0  0  0
    2.0000    0.1099    0.0000 H   0  0  0  0  0  0  0  0  0  0  0  0
   16.1602    2.2308    0.0000 H   0  0  0  0  0  0  0  0  0  0  0  0
   15.6201    1.3026    0.0000 H   0  0  0  0  0  0  0  0  0  0  0  0
    7.9587  -10.0639    0.0000 H   0  0  0  0  0  0  0  0  0  0  0  0
    7.5601  -10.7541    0.0000 H   0  0  0  0  0  0  0  0  0  0  0  0
    9.9369    7.6213    0.0000 H   0  0  0  0  0  0  0  0  0  0  0  0
    9.9355    6.8242    0.0000 H   0  0  0  0  0  0  0  0  0  0  0  0
    6.7678  -11.8365    0.0000 H   0  0  0  0  0  0  0  0  0  0  0  0
    9.5737  -11.8365    0.0000 H   0  0  0  0  0  0  0  0  0  0  0  0
    9.9399    9.3533    0.0000 H   0  0  0  0  0  0  0  0  0  0  0  0
    9.9385    8.5563    0.0000 H   0  0  0  0  0  0  0  0  0  0  0  0
    6.7678  -13.4565    0.0000 H   0  0  0  0  0  0  0  0  0  0  0  0
    9.5737  -13.4565    0.0000 H   0  0  0  0  0  0  0  0  0  0  0  0
    8.1707  -14.2665    0.0000 H   0  0  0  0  0  0  0  0  0  0  0  0
   12.3178    9.4583    0.0000 H   0  0  0  0  0  0  0  0  0  0  0  0
    8.7686   12.2124    0.0000 H   0  0  0  0  0  0  0  0  0  0  0  0
   11.6717   13.6465    0.0000 H   0  0  0  0  0  0  0  0  0  0  0  0
   12.3875   12.8460    0.0000 H   0  0  0  0  0  0  0  0  0  0  0  0
  1  6  1  0  0  0  0
  1 11  1  0  0  0  0
  1 12  1  0  0  0  0
  1 15  2  0  0  0  0
  2  8  1  0  0  0  0
  2 10  1  0  0  0  0
  2 14  1  0  0  0  0
  2 16  2  0  0  0  0
  3  9  1  0  0  0  0
  3 17  1  0  0  0  0
  3 18  1  0  0  0  0
  3 19  2  0  0  0  0
  4 42  1  0  0  0  0
  4 44  1  0  0  0  0
  5 46  1  0  0  0  0
  5 48  1  0  0  0  0
 41  6  1  6  0  0  0
  7 50  1  0  0  0  0
  7 52  1  0  0  0  0
 49  8  1  6  0  0  0
 45  9  1  1  0  0  0
 10 53  1  0  0  0  0
 11 54  1  0  0  0  0
 12110  1  0  0  0  0
 13 55  1  0  0  0  0
 13111  1  0  0  0  0
 14112  1  0  0  0  0
 17 71  1  0  0  0  0
 18114  1  0  0  0  0
 20 73  1  0  0  0  0
 20 77  1  0  0  0  0
 42 21  1  1  0  0  0
 21 56  1  0  0  0  0
 21 57  1  0  0  0  0
 48 22  1  6  0  0  0
 22 58  1  0  0  0  0
 22 60  1  0  0  0  0
 50 23  1  1  0  0  0
 23 59  1  0  0  0  0
 23 62  1  0  0  0  0
 24 57  2  0  0  0  0
 24 61  1  0  0  0  0
 25 60  2  0  0  0  0
 25 63  1  0  0  0  0
 26 56  2  0  0  0  0
 26 68  1  0  0  0  0
 27 62  2  0  0  0  0
 27 64  1  0  0  0  0
 28 58  2  0  0  0  0
 28 69  1  0  0  0  0
 29 59  2  0  0  0  0
 29 70  1  0  0  0  0
 30 65  1  0  0  0  0
 30 68  2  0  0  0  0
 31 67  1  0  0  0  0
 31 69  2  0  0  0  0
 32 66  1  0  0  0  0
 32 70  2  0  0  0  0
 33 66  1  0  0  0  0
 33 72  1  0  0  0  0
 33119  1  0  0  0  0
 34 65  1  0  0  0  0
 34120  1  0  0  0  0
 34121  1  0  0  0  0
 35 67  1  0  0  0  0
 35122  1  0  0  0  0
 35123  1  0  0  0  0
 36 77  1  0  0  0  0
 36 81  1  0  0  0  0
 36 82  1  0  0  0  0
 37 82  2  0  0  0  0
 37 83  1  0  0  0  0
 38 81  2  0  0  0  0
 38 85  1  0  0  0  0
 39 84  1  0  0  0  0
 39 85  2  0  0  0  0
 40 84  1  0  0  0  0
 40137  1  0  0  0  0
 40138  1  0  0  0  0
 41 42  1  0  0  0  0
 41 43  1  0  0  0  0
 41 86  1  0  0  0  0
 42 87  1  0  0  0  0
 43 44  1  0  0  0  0
 43 88  1  0  0  0  0
 43 89  1  0  0  0  0
 44 53  1  1  0  0  0
 44 90  1  0  0  0  0
 45 47  1  0  0  0  0
 45 48  1  0  0  0  0
 45 91  1  0  0  0  0
 46 47  1  0  0  0  0
 46 54  1  6  0  0  0
 46 92  1  0  0  0  0
 47 93  1  0  0  0  0
 47 94  1  0  0  0  0
 48 95  1  0  0  0  0
 49 50  1  0  0  0  0
 49 51  1  0  0  0  0
 49 96  1  0  0  0  0
 50 97  1  0  0  0  0
 51 52  1  0  0  0  0
 51 98  1  0  0  0  0
 51 99  1  0  0  0  0
 52 55  1  1  0  0  0
 52100  1  0  0  0  0
 53101  1  0  0  0  0
 53102  1  0  0  0  0
 54103  1  0  0  0  0
 54104  1  0  0  0  0
 55105  1  0  0  0  0
 55106  1  0  0  0  0
 56 61  1  0  0  0  0
 57107  1  0  0  0  0
 58 63  1  0  0  0  0
 59 64  1  0  0  0  0
 60108  1  0  0  0  0
 61 65  2  0  0  0  0
 62109  1  0  0  0  0
 63 67  2  0  0  0  0
 64 66  2  0  0  0  0
 68113  1  0  0  0  0
 69115  1  0  0  0  0
 70116  1  0  0  0  0
 71 73  1  0  0  0  0
 71117  1  0  0  0  0
 71118  1  0  0  0  0
 72 74  1  0  0  0  0
 72124  1  0  0  0  0
 72125  1  0  0  0  0
 73126  1  0  0  0  0
 73127  1  0  0  0  0
 74 75  2  0  0  0  0
 74 76  1  0  0  0  0
 75 78  1  0  0  0  0
 75128  1  0  0  0  0
 76 79  2  0  0  0  0
 76129  1  0  0  0  0
 77130  1  0  0  0  0
 77131  1  0  0  0  0
 78 80  2  0  0  0  0
 78132  1  0  0  0  0
 79 80  1  0  0  0  0
 79133  1  0  0  0  0
 80134  1  0  0  0  0
 81 83  1  0  0  0  0
 82135  1  0  0  0  0
 83 84  2  0  0  0  0
 85136  1  0  0  0  0
M  END
> <PUBCHEM_COMPOUND_CID>
501008
> <PUBCHEM_COMPOUND_CANONICALIZED>
1
> <PUBCHEM_CACTVS_COMPLEXITY>
2350
> <PUBCHEM_CACTVS_HBOND_ACCEPTOR>
33
> <PUBCHEM_CACTVS_HBOND_DONOR>
8
> <PUBCHEM_CACTVS_ROTATABLE_BOND>
25
> <PUBCHEM_CACTVS_SUBSKEYS>
AAADcfB//gMAAAAAAAAAAAAAAAAAAWLFixI8WLFiAAAAAFgB/gAAHgAQCCAADBzhnwY18L/MFxCgQyZjZICCgC0xEKAJ2KAoVJiLeCLA2VGeZAhtgALbiCfwsAIOAAAAAAAAAAAAAAAAAAAAAAAAAAAAAA==
> <PUBCHEM_IUPAC_OPENEYE_NAME>
[(2S,4R,5R)-5-(6-aminopurin-9-yl)-4-[[(2S,4R,5R)-5-(6-aminopurin-9-yl)-4-[2-[(6-aminopurin-9-yl)methoxy]ethoxy-hydroxy-phosphoryl]oxy-tetrahydrofuran-2-yl]methoxy-hydroxy-phosphoryl]oxy-tetrahydrofuran-2-yl]methyl [(2R,3R,5S)-2-[6-(benzylamino)purin-9-yl]-5-(hydroxymethyl)tetrahydrofuran-3-yl] hydrogen phosphate
> <PUBCHEM_IUPAC_CAS_NAME>
[(2S,4R,5R)-5-(6-aminopurin-9-yl)-4-[[(2S,4R,5R)-5-(6-aminopurin-9-yl)-4-[2-[(6-aminopurin-9-yl)methoxy]ethoxy-hydroxyphosphoryl]oxy-2-oxolanyl]methoxy-hydroxyphosphoryl]oxy-2-oxolanyl]methyl [(2R,3R,5S)-5-(hydroxymethyl)-2-[6-[(phenylmethyl)amino]-9-purinyl]-3-oxolanyl] hydrogen phosphate
> <PUBCHEM_IUPAC_NAME_MARKUP>
[(2<I>S</I>,4<I>R</I>,5<I>R</I>)-5-(6-aminopurin-9-yl)-4-[[(2<I>S</I>,4<I>R</I>,5<I>R</I>)-5-(6-aminopurin-9-yl)-4-[2-[(6-aminopurin-9-yl)methoxy]ethoxy-hydroxyphosphoryl]oxyoxolan-2-yl]methoxy-hydroxyphosphoryl]oxyoxolan-2-yl]methyl [(2<I>R</I>,3<I>R</I>,5<I>S</I>)-2-[6-(benzylamino)purin-9-yl]-5-(hydroxymethyl)oxolan-3-yl] hydrogen phosphate
> <PUBCHEM_IUPAC_NAME>
[(2S,4R,5R)-5-(6-aminopurin-9-yl)-4-[[(2S,4R,5R)-5-(6-aminopurin-9-yl)-4-[2-[(6-aminopurin-9-yl)methoxy]ethoxy-hydroxyphosphoryl]oxyoxolan-2-yl]methoxy-hydroxyphosphoryl]oxyoxolan-2-yl]methyl [(2R,3R,5S)-2-[6-(benzylamino)purin-9-yl]-5-(hydroxymethyl)oxolan-3-yl] hydrogen phosphate
> <PUBCHEM_IUPAC_SYSTEMATIC_NAME>
[(2S,4R,5R)-5-(6-aminopurin-9-yl)-4-[[(2S,4R,5R)-5-(6-aminopurin-9-yl)-4-[2-[(6-aminopurin-9-yl)methoxy]ethoxy-oxidanyl-phosphoryl]oxy-oxolan-2-yl]methoxy-oxidanyl-phosphoryl]oxy-oxolan-2-yl]methyl [(2R,3R,5S)-5-(hydroxymethyl)-2-[6-[(phenylmethyl)amino]purin-9-yl]oxolan-3-yl] hydrogen phosphate
> <PUBCHEM_IUPAC_TRADITIONAL_NAME>
[(2S,4R,5R)-5-adenin-9-yl-4-[[(2S,4R,5R)-5-adenin-9-yl-4-[2-(adenin-9-ylmethoxy)ethoxy-hydroxy-phosphoryl]oxy-tetrahydrofuran-2-yl]methoxy-hydroxy-phosphoryl]oxy-tetrahydrofuran-2-yl]methyl [(2R,3R,5S)-2-[6-(benzylamino)purin-9-yl]-5-methylol-tetrahydrofuran-3-yl] hydrogen phosphate
> <PUBCHEM_IUPAC_INCHI>
InChI=1S/C45H53N20O17P3/c46-35-31-39(54-15-50-35)62(19-58-31)23-73-6-7-74-83(67,68)80-29-9-26(78-44(29)63-20-59-32-36(47)51-16-55-40(32)63)13-76-85(71,72)82-30-10-27(79-45(30)64-21-60-33-37(48)52-17-56-41(33)64)14-75-84(69,70)81-28-8-25(12-66)77-43(28)65-22-61-34-38(53-18-57-42(34)65)49-11-24-4-2-1-3-5-24/h1-5,15-22,25-30,43-45,66H,6-14,23H2,(H,67,68)(H,69,70)(H,71,72)(H2,46,50,54)(H2,47,51,55)(H2,48,52,56)(H,49,53,57)/t25-,26-,27-,28+,29+,30+,43+,44+,45+/m0/s1
> <PUBCHEM_IUPAC_INCHIKEY>
CJUNTQJETGDOOJ-NJEBJAKLSA-N
> <PUBCHEM_XLOGP3_AA>
-3.7
> <PUBCHEM_EXACT_MASS>
1238.31104130
> <PUBCHEM_MOLECULAR_FORMULA>
C45H53N20O17P3
> <PUBCHEM_MOLECULAR_WEIGHT>
1238.9
> <PUBCHEM_OPENEYE_CAN_SMILES>
C1C(OC(C1OP(=O)(O)OCC2CC(C(O2)N3C=NC4=C(N=CN=C43)N)OP(=O)(O)OCC5CC(C(O5)N6C=NC7=C(N=CN=C76)N)OP(=O)(O)OCCOCN8C=NC9=C(N=CN=C98)N)N1C=NC2=C(N=CN=C21)NCC1=CC=CC=C1)CO
> <PUBCHEM_OPENEYE_ISO_SMILES>
C1[C@H](O[C@H]([C@@H]1OP(=O)(O)OC[C@@H]2C[C@H]([C@@H](O2)N3C=NC4=C(N=CN=C43)N)OP(=O)(O)OC[C@@H]5C[C@H]([C@@H](O5)N6C=NC7=C(N=CN=C76)N)OP(=O)(O)OCCOCN8C=NC9=C(N=CN=C98)N)N1C=NC2=C(N=CN=C21)NCC1=CC=CC=C1)CO
> <PUBCHEM_CACTVS_TPSA>
489
> <PUBCHEM_MONOISOTOPIC_WEIGHT>
1238.31104130
> <PUBCHEM_TOTAL_CHARGE>
0
> <PUBCHEM_HEAVY_ATOM_COUNT>
85
> <PUBCHEM_ATOM_DEF_STEREO_COUNT>
9
> <PUBCHEM_ATOM_UDEF_STEREO_COUNT>
0
> <PUBCHEM_BOND_DEF_STEREO_COUNT>
0
> <PUBCHEM_BOND_UDEF_STEREO_COUNT>
0
> <PUBCHEM_ISOTOPIC_ATOM_COUNT>
0
> <PUBCHEM_COMPONENT_COUNT>
1
> <PUBCHEM_CACTVS_TAUTO_COUNT>
-1
> <PUBCHEM_COORDINATE_TYPE>
1
5
255
> <PUBCHEM_BONDANNOTATIONS>
42  21  5
21  56  8
21  57  8
48  22  6
22  58  8
22  60  8
50  23  5
23  59  8
23  62  8
24  57  8
24  61  8
25  60  8
25  63  8
26  56  8
26  68  8
27  62  8
27  64  8
28  58  8
28  69  8
29  59  8
29  70  8
30  65  8
30  68  8
31  67  8
31  69  8
32  66  8
32  70  8
36  81  8
36  82  8
37  82  8
37  83  8
38  81  8
38  85  8
39  84  8
39  85  8
44  53  5
46  54  6
52  55  5
56  61  8
58  63  8
59  64  8
41  6  6
61  65  8
63  67  8
64  66  8
74  75  8
74  76  8
75  78  8
76  79  8
78  80  8
79  80  8
49  8  6
81  83  8
83  84  8
45  9  5
$$$$
