501024
  -OEChem-10302200282D
 94101  0     1  0  0  0  0  0999 V2000
   15.7548    0.4655    0.0000 P   0  0  3  0  0  0  0  0  0  0  0  0
   10.1837    0.0724    0.0000 P   0  0  3  0  0  0  0  0  0  0  0  0
   13.2202   -1.2989    0.0000 O   0  0  0  0  0  0  0  0  0  0  0  0
   19.0866    0.4717    0.0000 O   0  0  0  0  0  0  0  0  0  0  0  0
   16.5649    1.0519    0.0000 O   0  0  0  0  0  0  0  0  0  0  0  0
   10.6822   -0.7945    0.0000 O   0  0  0  0  0  0  0  0  0  0  0  0
   11.9640    0.9633    0.0000 O   0  0  0  0  0  0  0  0  0  0  0  0
   14.9448   -0.1208    0.0000 O   0  0  0  0  0  0  0  0  0  0  0  0
   17.0135   -1.0769    0.0000 O   0  0  0  0  0  0  0  0  0  0  0  0
   20.1768   -1.3098    0.0000 O   0  0  0  0  0  0  0  0  0  0  0  0
   16.3412   -0.3445    0.0000 O   0  0  0  0  0  0  0  0  0  0  0  0
   15.1684    1.2756    0.0000 O   0  0  0  0  0  0  0  0  0  0  0  0
    9.6852    0.9393    0.0000 O   0  0  0  0  0  0  0  0  0  0  0  0
    9.3168   -0.4261    0.0000 O   0  0  0  0  0  0  0  0  0  0  0  0
   11.0506    0.5709    0.0000 O   0  0  0  0  0  0  0  0  0  0  0  0
    7.1867    1.8096    0.0000 O   0  0  0  0  0  0  0  0  0  0  0  0
   11.9579   -2.5568    0.0000 N   0  0  0  0  0  0  0  0  0  0  0  0
   18.4508    2.1364    0.0000 N   0  0  0  0  0  0  0  0  0  0  0  0
   11.9579   -4.1663    0.0000 N   0  0  0  0  0  0  0  0  0  0  0  0
   18.1162    3.7107    0.0000 N   0  0  0  0  0  0  0  0  0  0  0  0
   10.1457   -2.3615    0.0000 N   0  0  0  0  0  0  0  0  0  0  0  0
   20.2641    2.3222    0.0000 N   0  0  0  0  0  0  0  0  0  0  0  0
    9.2797   -3.8615    0.0000 N   0  0  0  0  0  0  0  0  0  0  0  0
   20.7993    3.9695    0.0000 N   0  0  0  0  0  0  0  0  0  0  0  0
   10.1457   -5.3615    0.0000 N   0  0  0  0  0  0  0  0  0  0  0  0
   19.6403    5.2567    0.0000 N   0  0  0  0  0  0  0  0  0  0  0  0
    5.6882    2.6782    0.0000 N   0  0  0  0  0  0  0  0  0  0  0  0
    4.1575    2.1809    0.0000 N   0  0  0  0  0  0  0  0  0  0  0  0
    5.3139    4.4621    0.0000 N   0  0  0  0  0  0  0  0  0  0  0  0
    3.6197    4.8222    0.0000 N   0  0  0  0  0  0  0  0  0  0  0  0
    2.4608    3.5351    0.0000 N   0  0  0  0  0  0  0  0  0  0  0  0
   11.6822   -0.7962    0.0000 C   0  0  2  0  0  0  0  0  0  0  0  0
   12.2714    0.0117    0.0000 C   0  0  1  0  0  0  0  0  0  0  0  0
   13.2219   -0.2989    0.0000 C   0  0  1  0  0  0  0  0  0  0  0  0
   12.2686   -1.6063    0.0000 C   0  0  1  0  0  0  0  0  0  0  0  0
   17.4777    0.6436    0.0000 C   0  0  2  0  0  0  0  0  0  0  0  0
   17.6839   -0.3349    0.0000 C   0  0  1  0  0  0  0  0  0  0  0  0
   18.3446    1.1421    0.0000 C   0  0  1  0  0  0  0  0  0  0  0  0
   18.6783   -0.4412    0.0000 C   0  0  1  0  0  0  0  0  0  0  0  0
   14.0320    0.2875    0.0000 C   0  0  0  0  0  0  0  0  0  0  0  0
   19.1768   -1.3080    0.0000 C   0  0  0  0  0  0  0  0  0  0  0  0
   11.0117   -2.8615    0.0000 C   0  0  0  0  0  0  0  0  0  0  0  0
   19.3130    2.6312    0.0000 C   0  0  0  0  0  0  0  0  0  0  0  0
   12.5416   -3.3615    0.0000 C   0  0  0  0  0  0  0  0  0  0  0  0
   17.7127    2.8022    0.0000 C   0  0  0  0  0  0  0  0  0  0  0  0
   11.0117   -3.8615    0.0000 C   0  0  0  0  0  0  0  0  0  0  0  0
   19.1051    3.6094    0.0000 C   0  0  0  0  0  0  0  0  0  0  0  0
   10.1457   -4.3615    0.0000 C   0  0  0  0  0  0  0  0  0  0  0  0
   19.8483    4.2785    0.0000 C   0  0  0  0  0  0  0  0  0  0  0  0
    9.2797   -2.8615    0.0000 C   0  0  0  0  0  0  0  0  0  0  0  0
   21.0072    2.9914    0.0000 C   0  0  0  0  0  0  0  0  0  0  0  0
    8.6852    0.9410    0.0000 C   0  0  0  0  0  0  0  0  0  0  0  0
    8.1867    1.8079    0.0000 C   0  0  0  0  0  0  0  0  0  0  0  0
    6.6882    2.6765    0.0000 C   0  0  0  0  0  0  0  0  0  0  0  0
    5.1060    3.4840    0.0000 C   0  0  0  0  0  0  0  0  0  0  0  0
    5.1032    1.8745    0.0000 C   0  0  0  0  0  0  0  0  0  0  0  0
    4.1550    3.1750    0.0000 C   0  0  0  0  0  0  0  0  0  0  0  0
    3.4118    3.8441    0.0000 C   0  0  0  0  0  0  0  0  0  0  0  0
    4.5708    5.1312    0.0000 C   0  0  0  0  0  0  0  0  0  0  0  0
   11.4017   -0.2433    0.0000 H   0  0  0  0  0  0  0  0  0  0  0  0
   12.7106    0.4494    0.0000 H   0  0  0  0  0  0  0  0  0  0  0  0
   13.7739   -0.5813    0.0000 H   0  0  0  0  0  0  0  0  0  0  0  0
   12.7063   -2.0455    0.0000 H   0  0  0  0  0  0  0  0  0  0  0  0
   16.9952    0.2543    0.0000 H   0  0  0  0  0  0  0  0  0  0  0  0
   17.9051   -0.9141    0.0000 H   0  0  0  0  0  0  0  0  0  0  0  0
   18.9238    1.3633    0.0000 H   0  0  0  0  0  0  0  0  0  0  0  0
   19.2975   -0.4098    0.0000 H   0  0  0  0  0  0  0  0  0  0  0  0
   14.3795    0.8009    0.0000 H   0  0  0  0  0  0  0  0  0  0  0  0
   13.5867    0.7189    0.0000 H   0  0  0  0  0  0  0  0  0  0  0  0
   18.5938   -1.5191    0.0000 H   0  0  0  0  0  0  0  0  0  0  0  0
   19.2834   -1.9188    0.0000 H   0  0  0  0  0  0  0  0  0  0  0  0
   12.3797    1.4234    0.0000 H   0  0  0  0  0  0  0  0  0  0  0  0
   17.2041   -1.6669    0.0000 H   0  0  0  0  0  0  0  0  0  0  0  0
   13.1616   -3.3615    0.0000 H   0  0  0  0  0  0  0  0  0  0  0  0
   17.1062    2.6734    0.0000 H   0  0  0  0  0  0  0  0  0  0  0  0
   20.4858   -1.8472    0.0000 H   0  0  0  0  0  0  0  0  0  0  0  0
   16.0881   -0.9105    0.0000 H   0  0  0  0  0  0  0  0  0  0  0  0
    8.7804   -0.1152    0.0000 H   0  0  0  0  0  0  0  0  0  0  0  0
    8.7427   -2.5515    0.0000 H   0  0  0  0  0  0  0  0  0  0  0  0
   21.5969    2.7998    0.0000 H   0  0  0  0  0  0  0  0  0  0  0  0
    8.1022    0.7299    0.0000 H   0  0  0  0  0  0  0  0  0  0  0  0
    8.7918    0.3302    0.0000 H   0  0  0  0  0  0  0  0  0  0  0  0
    9.6088   -5.6715    0.0000 H   0  0  0  0  0  0  0  0  0  0  0  0
   10.6826   -5.6715    0.0000 H   0  0  0  0  0  0  0  0  0  0  0  0
   20.1011    5.6715    0.0000 H   0  0  0  0  0  0  0  0  0  0  0  0
   19.0507    5.4483    0.0000 H   0  0  0  0  0  0  0  0  0  0  0  0
    8.7697    2.0189    0.0000 H   0  0  0  0  0  0  0  0  0  0  0  0
    8.0801    2.4186    0.0000 H   0  0  0  0  0  0  0  0  0  0  0  0
    7.2712    2.8875    0.0000 H   0  0  0  0  0  0  0  0  0  0  0  0
    6.5816    3.2873    0.0000 H   0  0  0  0  0  0  0  0  0  0  0  0
    5.2948    1.2848    0.0000 H   0  0  0  0  0  0  0  0  0  0  0  0
    4.6997    5.7377    0.0000 H   0  0  0  0  0  0  0  0  0  0  0  0
    2.0000    3.9499    0.0000 H   0  0  0  0  0  0  0  0  0  0  0  0
    2.3318    2.9286    0.0000 H   0  0  0  0  0  0  0  0  0  0  0  0
  1  5  1  0  0  0  0
  1  8  1  0  0  0  0
  1 11  1  0  0  0  0
  1 12  2  0  0  0  0
  2  6  1  0  0  0  0
  2 13  1  0  0  0  0
  2 14  1  0  0  0  0
  2 15  2  0  0  0  0
  3 34  1  0  0  0  0
  3 35  1  0  0  0  0
  4 38  1  0  0  0  0
  4 39  1  0  0  0  0
 36  5  1  1  0  0  0
 32  6  1  6  0  0  0
 33  7  1  6  0  0  0
  7 72  1  0  0  0  0
  8 40  1  0  0  0  0
 37  9  1  1  0  0  0
  9 73  1  0  0  0  0
 10 41  1  0  0  0  0
 10 76  1  0  0  0  0
 11 77  1  0  0  0  0
 13 52  1  0  0  0  0
 14 78  1  0  0  0  0
 16 53  1  0  0  0  0
 16 54  1  0  0  0  0
 35 17  1  1  0  0  0
 17 42  1  0  0  0  0
 17 44  1  0  0  0  0
 38 18  1  6  0  0  0
 18 43  1  0  0  0  0
 18 45  1  0  0  0  0
 19 44  2  0  0  0  0
 19 46  1  0  0  0  0
 20 45  2  0  0  0  0
 20 47  1  0  0  0  0
 21 42  2  0  0  0  0
 21 50  1  0  0  0  0
 22 43  2  0  0  0  0
 22 51  1  0  0  0  0
 23 48  1  0  0  0  0
 23 50  2  0  0  0  0
 24 49  1  0  0  0  0
 24 51  2  0  0  0  0
 25 48  1  0  0  0  0
 25 83  1  0  0  0  0
 25 84  1  0  0  0  0
 26 49  1  0  0  0  0
 26 85  1  0  0  0  0
 26 86  1  0  0  0  0
 27 54  1  0  0  0  0
 27 55  1  0  0  0  0
 27 56  1  0  0  0  0
 28 56  2  0  0  0  0
 28 57  1  0  0  0  0
 29 55  2  0  0  0  0
 29 59  1  0  0  0  0
 30 58  1  0  0  0  0
 30 59  2  0  0  0  0
 31 58  1  0  0  0  0
 31 93  1  0  0  0  0
 31 94  1  0  0  0  0
 32 33  1  0  0  0  0
 32 35  1  0  0  0  0
 32 60  1  0  0  0  0
 33 34  1  0  0  0  0
 33 61  1  0  0  0  0
 34 40  1  1  0  0  0
 34 62  1  0  0  0  0
 35 63  1  0  0  0  0
 36 37  1  0  0  0  0
 36 38  1  0  0  0  0
 36 64  1  0  0  0  0
 37 39  1  0  0  0  0
 37 65  1  0  0  0  0
 38 66  1  0  0  0  0
 39 41  1  6  0  0  0
 39 67  1  0  0  0  0
 40 68  1  0  0  0  0
 40 69  1  0  0  0  0
 41 70  1  0  0  0  0
 41 71  1  0  0  0  0
 42 46  1  0  0  0  0
 43 47  1  0  0  0  0
 44 74  1  0  0  0  0
 45 75  1  0  0  0  0
 46 48  2  0  0  0  0
 47 49  2  0  0  0  0
 50 79  1  0  0  0  0
 51 80  1  0  0  0  0
 52 53  1  0  0  0  0
 52 81  1  0  0  0  0
 52 82  1  0  0  0  0
 53 87  1  0  0  0  0
 53 88  1  0  0  0  0
 54 89  1  0  0  0  0
 54 90  1  0  0  0  0
 55 57  1  0  0  0  0
 56 91  1  0  0  0  0
 57 58  2  0  0  0  0
 59 92  1  0  0  0  0
M  END
> <PUBCHEM_COMPOUND_CID>
501024
> <PUBCHEM_COMPOUND_CANONICALIZED>
1
> <PUBCHEM_CACTVS_COMPLEXITY>
1530
> <PUBCHEM_CACTVS_HBOND_ACCEPTOR>
26
> <PUBCHEM_CACTVS_HBOND_DONOR>
8
> <PUBCHEM_CACTVS_ROTATABLE_BOND>
16
> <PUBCHEM_CACTVS_SUBSKEYS>
AAADcfB7/AMAAAAAAAAAAAAAAAAAAWLFiRIsWLAAAAAAAFgB/gAAHgAQCCAACBzhlwYF8L9MFxCgQQZhZICAgC0REKABUCAoVBCDWAJAyEAeRAgPAALTACDwMAIAAAAAAAAAAAAAAAAAAAAAAAAAAAAAAA==
> <PUBCHEM_IUPAC_OPENEYE_NAME>
[(2R,3R,4R,5R)-2-(6-aminopurin-9-yl)-5-[[[(2R,3R,4R,5R)-2-(6-aminopurin-9-yl)-4-hydroxy-5-(hydroxymethyl)tetrahydrofuran-3-yl]oxy-hydroxy-phosphoryl]oxymethyl]-4-hydroxy-tetrahydrofuran-3-yl] 2-[(6-aminopurin-9-yl)methoxy]ethyl hydrogen phosphate
> <PUBCHEM_IUPAC_CAS_NAME>
[(2R,3R,4R,5R)-2-(6-aminopurin-9-yl)-5-[[[(2R,3R,4R,5R)-2-(6-aminopurin-9-yl)-4-hydroxy-5-(hydroxymethyl)-3-oxolanyl]oxy-hydroxyphosphoryl]oxymethyl]-4-hydroxy-3-oxolanyl] 2-[(6-aminopurin-9-yl)methoxy]ethyl hydrogen phosphate
> <PUBCHEM_IUPAC_NAME_MARKUP>
[(2<I>R</I>,3<I>R</I>,4<I>R</I>,5<I>R</I>)-2-(6-aminopurin-9-yl)-5-[[[(2<I>R</I>,3<I>R</I>,4<I>R</I>,5<I>R</I>)-2-(6-aminopurin-9-yl)-4-hydroxy-5-(hydroxymethyl)oxolan-3-yl]oxy-hydroxyphosphoryl]oxymethyl]-4-hydroxyoxolan-3-yl] 2-[(6-aminopurin-9-yl)methoxy]ethyl hydrogen phosphate
> <PUBCHEM_IUPAC_NAME>
[(2R,3R,4R,5R)-2-(6-aminopurin-9-yl)-5-[[[(2R,3R,4R,5R)-2-(6-aminopurin-9-yl)-4-hydroxy-5-(hydroxymethyl)oxolan-3-yl]oxy-hydroxyphosphoryl]oxymethyl]-4-hydroxyoxolan-3-yl] 2-[(6-aminopurin-9-yl)methoxy]ethyl hydrogen phosphate
> <PUBCHEM_IUPAC_SYSTEMATIC_NAME>
[(2R,3R,4R,5R)-2-(6-aminopurin-9-yl)-5-[[[(2R,3R,4R,5R)-2-(6-aminopurin-9-yl)-5-(hydroxymethyl)-4-oxidanyl-oxolan-3-yl]oxy-oxidanyl-phosphoryl]oxymethyl]-4-oxidanyl-oxolan-3-yl] 2-[(6-aminopurin-9-yl)methoxy]ethyl hydrogen phosphate
> <PUBCHEM_IUPAC_TRADITIONAL_NAME>
[(2R,3R,4R,5R)-2-adenin-9-yl-5-[[[(2R,3R,4R,5R)-2-adenin-9-yl-4-hydroxy-5-methylol-tetrahydrofuran-3-yl]oxy-hydroxy-phosphoryl]oxymethyl]-4-hydroxy-tetrahydrofuran-3-yl] 2-(adenin-9-ylmethoxy)ethyl hydrogen phosphate
> <PUBCHEM_IUPAC_INCHI>
InChI=1S/C28H35N15O14P2/c29-21-14-24(35-5-32-21)41(8-38-14)11-51-1-2-52-58(47,48)56-20-18(46)13(55-28(20)43-10-40-16-23(31)34-7-37-26(16)43)4-53-59(49,50)57-19-17(45)12(3-44)54-27(19)42-9-39-15-22(30)33-6-36-25(15)42/h5-10,12-13,17-20,27-28,44-46H,1-4,11H2,(H,47,48)(H,49,50)(H2,29,32,35)(H2,30,33,36)(H2,31,34,37)/t12-,13-,17-,18-,19-,20-,27-,28-/m1/s1
> <PUBCHEM_IUPAC_INCHIKEY>
HDEIVXIXHYLYMI-YEASDWDASA-N
> <PUBCHEM_XLOGP3_AA>
-5.7
> <PUBCHEM_EXACT_MASS>
867.19631485
> <PUBCHEM_MOLECULAR_FORMULA>
C28H35N15O14P2
> <PUBCHEM_MOLECULAR_WEIGHT>
867.6
> <PUBCHEM_OPENEYE_CAN_SMILES>
C1=NC(=C2C(=N1)N(C=N2)COCCOP(=O)(O)OC3C(C(OC3N4C=NC5=C(N=CN=C54)N)COP(=O)(O)OC6C(C(OC6N7C=NC8=C(N=CN=C87)N)CO)O)O)N
> <PUBCHEM_OPENEYE_ISO_SMILES>
C1=NC(=C2C(=N1)N(C=N2)COCCOP(=O)(O)O[C@@H]3[C@@H]([C@H](O[C@H]3N4C=NC5=C(N=CN=C54)N)COP(=O)(O)O[C@@H]6[C@@H]([C@H](O[C@H]6N7C=NC8=C(N=CN=C87)N)CO)O)O)N
> <PUBCHEM_CACTVS_TPSA>
409
> <PUBCHEM_MONOISOTOPIC_WEIGHT>
867.19631485
> <PUBCHEM_TOTAL_CHARGE>
0
> <PUBCHEM_HEAVY_ATOM_COUNT>
59
> <PUBCHEM_ATOM_DEF_STEREO_COUNT>
8
> <PUBCHEM_ATOM_UDEF_STEREO_COUNT>
0
> <PUBCHEM_BOND_DEF_STEREO_COUNT>
0
> <PUBCHEM_BOND_UDEF_STEREO_COUNT>
0
> <PUBCHEM_ISOTOPIC_ATOM_COUNT>
0
> <PUBCHEM_COMPONENT_COUNT>
1
> <PUBCHEM_CACTVS_TAUTO_COUNT>
-1
> <PUBCHEM_COORDINATE_TYPE>
1
5
255
> <PUBCHEM_BONDANNOTATIONS>
35  17  5
17  42  8
17  44  8
38  18  6
18  43  8
18  45  8
19  44  8
19  46  8
20  45  8
20  47  8
21  42  8
21  50  8
22  43  8
22  51  8
23  48  8
23  50  8
24  49  8
24  51  8
27  55  8
27  56  8
28  56  8
28  57  8
29  55  8
29  59  8
30  58  8
30  59  8
34  40  5
39  41  6
42  46  8
43  47  8
46  48  8
47  49  8
36  5  5
55  57  8
57  58  8
32  6  6
33  7  6
37  9  5
$$$$
