501055
  -OEChem-10302200282D
 83 87  0     1  0  0  0  0  0999 V2000
    2.3644   -3.2809    0.0000 O   0  0  0  0  0  0  0  0  0  0  0  0
    3.7657   -4.2990    0.0000 O   0  0  0  0  0  0  0  0  0  0  0  0
    4.9413   -2.6809    0.0000 N   0  0  3  0  0  0  0  0  0  0  0  0
    7.3900   -0.8445    0.0000 N   0  0  0  0  0  0  0  0  0  0  0  0
    6.5239   -2.3445    0.0000 C   0  0  2  0  0  0  0  0  0  0  0  0
    6.4194   -3.3391    0.0000 C   0  0  2  0  0  0  0  0  0  0  0  0
    5.6104   -1.9378    0.0000 C   0  0  0  0  0  0  0  0  0  0  0  0
    5.4413   -3.5470    0.0000 C   0  0  0  0  0  0  0  0  0  0  0  0
    3.9467   -2.5764    0.0000 C   0  0  2  0  0  0  0  0  0  0  0  0
    3.5400   -1.6629    0.0000 C   0  0  0  0  0  0  0  0  0  0  0  0
    7.3900   -1.8445    0.0000 C   0  0  0  0  0  0  0  0  0  0  0  0
    2.5455   -1.5583    0.0000 C   0  0  0  0  0  0  0  0  0  0  0  0
    4.1278   -0.8539    0.0000 C   0  0  0  0  0  0  0  0  0  0  0  0
    7.1626   -4.0082    0.0000 C   0  0  0  0  0  0  0  0  0  0  0  0
    7.3900    1.1555    0.0000 C   0  0  0  0  0  0  0  0  0  0  0  0
    6.5239   -0.3445    0.0000 C   0  0  0  0  0  0  0  0  0  0  0  0
    8.2560   -0.3445    0.0000 C   0  0  0  0  0  0  0  0  0  0  0  0
    6.5239    0.6555    0.0000 C   0  0  0  0  0  0  0  0  0  0  0  0
    8.2560    0.6555    0.0000 C   0  0  0  0  0  0  0  0  0  0  0  0
    2.1387   -0.6448    0.0000 C   0  0  0  0  0  0  0  0  0  0  0  0
    3.7210    0.0597    0.0000 C   0  0  0  0  0  0  0  0  0  0  0  0
    2.7265    0.1642    0.0000 C   0  0  0  0  0  0  0  0  0  0  0  0
    3.3590   -3.3854    0.0000 C   0  0  0  0  0  0  0  0  0  0  0  0
    7.3900    2.1555    0.0000 C   0  0  0  0  0  0  0  0  0  0  0  0
    6.9546   -4.9863    0.0000 C   0  0  0  0  0  0  0  0  0  0  0  0
    8.1136   -3.6992    0.0000 C   0  0  0  0  0  0  0  0  0  0  0  0
    8.2560    2.6555    0.0000 C   0  0  0  0  0  0  0  0  0  0  0  0
    7.6978   -5.6555    0.0000 C   0  0  0  0  0  0  0  0  0  0  0  0
    8.8568   -4.3683    0.0000 C   0  0  0  0  0  0  0  0  0  0  0  0
    8.2560    3.6555    0.0000 C   0  0  0  0  0  0  0  0  0  0  0  0
    8.6488   -5.3464    0.0000 C   0  0  0  0  0  0  0  0  0  0  0  0
    9.1220    4.1555    0.0000 C   0  0  0  0  0  0  0  0  0  0  0  0
    9.9880    3.6555    0.0000 C   0  0  0  0  0  0  0  0  0  0  0  0
    9.1220    5.1555    0.0000 C   0  0  0  0  0  0  0  0  0  0  0  0
   10.8541    4.1555    0.0000 C   0  0  0  0  0  0  0  0  0  0  0  0
    9.9880    5.6555    0.0000 C   0  0  0  0  0  0  0  0  0  0  0  0
   10.8541    5.1555    0.0000 C   0  0  0  0  0  0  0  0  0  0  0  0
    6.4915   -1.7254    0.0000 H   0  0  0  0  0  0  0  0  0  0  0  0
    6.9982   -3.1169    0.0000 H   0  0  0  0  0  0  0  0  0  0  0  0
    5.9204   -1.4009    0.0000 H   0  0  0  0  0  0  0  0  0  0  0  0
    5.1088   -1.5734    0.0000 H   0  0  0  0  0  0  0  0  0  0  0  0
    4.8749   -3.7991    0.0000 H   0  0  0  0  0  0  0  0  0  0  0  0
    5.6328   -4.1366    0.0000 H   0  0  0  0  0  0  0  0  0  0  0  0
    4.1989   -3.1428    0.0000 H   0  0  0  0  0  0  0  0  0  0  0  0
    3.1756   -2.1645    0.0000 H   0  0  0  0  0  0  0  0  0  0  0  0
    7.6020   -2.4271    0.0000 H   0  0  0  0  0  0  0  0  0  0  0  0
    8.0005   -1.7369    0.0000 H   0  0  0  0  0  0  0  0  0  0  0  0
    1.9439   -1.7083    0.0000 H   0  0  0  0  0  0  0  0  0  0  0  0
    2.5887   -2.1768    0.0000 H   0  0  0  0  0  0  0  0  0  0  0  0
    4.5585   -1.2998    0.0000 H   0  0  0  0  0  0  0  0  0  0  0  0
    4.6418   -0.5072    0.0000 H   0  0  0  0  0  0  0  0  0  0  0  0
    7.9269    1.4655    0.0000 H   0  0  0  0  0  0  0  0  0  0  0  0
    5.9134   -0.2369    0.0000 H   0  0  0  0  0  0  0  0  0  0  0  0
    6.3119   -0.9271    0.0000 H   0  0  0  0  0  0  0  0  0  0  0  0
    8.4680   -0.9271    0.0000 H   0  0  0  0  0  0  0  0  0  0  0  0
    8.8666   -0.2369    0.0000 H   0  0  0  0  0  0  0  0  0  0  0  0
    6.3119    1.2381    0.0000 H   0  0  0  0  0  0  0  0  0  0  0  0
    5.9134    0.5478    0.0000 H   0  0  0  0  0  0  0  0  0  0  0  0
    8.8666    0.5478    0.0000 H   0  0  0  0  0  0  0  0  0  0  0  0
    8.4680    1.2381    0.0000 H   0  0  0  0  0  0  0  0  0  0  0  0
    1.7080   -0.1988    0.0000 H   0  0  0  0  0  0  0  0  0  0  0  0
    1.6247   -0.9915    0.0000 H   0  0  0  0  0  0  0  0  0  0  0  0
    4.3226    0.2097    0.0000 H   0  0  0  0  0  0  0  0  0  0  0  0
    3.6778    0.6782    0.0000 H   0  0  0  0  0  0  0  0  0  0  0  0
    2.8974    0.7602    0.0000 H   0  0  0  0  0  0  0  0  0  0  0  0
    2.1693    0.4360    0.0000 H   0  0  0  0  0  0  0  0  0  0  0  0
    7.1779    2.7381    0.0000 H   0  0  0  0  0  0  0  0  0  0  0  0
    6.7794    2.0478    0.0000 H   0  0  0  0  0  0  0  0  0  0  0  0
    6.3650   -5.1779    0.0000 H   0  0  0  0  0  0  0  0  0  0  0  0
    8.2425   -3.0927    0.0000 H   0  0  0  0  0  0  0  0  0  0  0  0
    8.4680    2.0729    0.0000 H   0  0  0  0  0  0  0  0  0  0  0  0
    8.8666    2.7631    0.0000 H   0  0  0  0  0  0  0  0  0  0  0  0
    7.5689   -6.2619    0.0000 H   0  0  0  0  0  0  0  0  0  0  0  0
    9.4464   -4.1767    0.0000 H   0  0  0  0  0  0  0  0  0  0  0  0
    2.0000   -3.7825    0.0000 H   0  0  0  0  0  0  0  0  0  0  0  0
    8.0439    4.2381    0.0000 H   0  0  0  0  0  0  0  0  0  0  0  0
    7.6454    3.5478    0.0000 H   0  0  0  0  0  0  0  0  0  0  0  0
    9.1096   -5.7613    0.0000 H   0  0  0  0  0  0  0  0  0  0  0  0
    9.9880    3.0355    0.0000 H   0  0  0  0  0  0  0  0  0  0  0  0
    8.5851    5.4655    0.0000 H   0  0  0  0  0  0  0  0  0  0  0  0
   11.3910    3.8455    0.0000 H   0  0  0  0  0  0  0  0  0  0  0  0
    9.9880    6.2755    0.0000 H   0  0  0  0  0  0  0  0  0  0  0  0
   11.3910    5.4655    0.0000 H   0  0  0  0  0  0  0  0  0  0  0  0
  1 23  1  0  0  0  0
  1 75  1  0  0  0  0
  2 23  2  0  0  0  0
  3  7  1  0  0  0  0
  3  8  1  0  0  0  0
  3  9  1  0  0  0  0
  4 11  1  0  0  0  0
  4 16  1  0  0  0  0
  4 17  1  0  0  0  0
  5  6  1  0  0  0  0
  5  7  1  0  0  0  0
  5 11  1  6  0  0  0
  5 38  1  0  0  0  0
  6  8  1  0  0  0  0
  6 14  1  1  0  0  0
  6 39  1  0  0  0  0
  7 40  1  0  0  0  0
  7 41  1  0  0  0  0
  8 42  1  0  0  0  0
  8 43  1  0  0  0  0
  9 10  1  0  0  0  0
  9 23  1  1  0  0  0
  9 44  1  0  0  0  0
 10 12  1  0  0  0  0
 10 13  1  0  0  0  0
 10 45  1  0  0  0  0
 11 46  1  0  0  0  0
 11 47  1  0  0  0  0
 12 20  1  0  0  0  0
 12 48  1  0  0  0  0
 12 49  1  0  0  0  0
 13 21  1  0  0  0  0
 13 50  1  0  0  0  0
 13 51  1  0  0  0  0
 14 25  2  0  0  0  0
 14 26  1  0  0  0  0
 15 18  1  0  0  0  0
 15 19  1  0  0  0  0
 15 24  1  0  0  0  0
 15 52  1  0  0  0  0
 16 18  1  0  0  0  0
 16 53  1  0  0  0  0
 16 54  1  0  0  0  0
 17 19  1  0  0  0  0
 17 55  1  0  0  0  0
 17 56  1  0  0  0  0
 18 57  1  0  0  0  0
 18 58  1  0  0  0  0
 19 59  1  0  0  0  0
 19 60  1  0  0  0  0
 20 22  1  0  0  0  0
 20 61  1  0  0  0  0
 20 62  1  0  0  0  0
 21 22  1  0  0  0  0
 21 63  1  0  0  0  0
 21 64  1  0  0  0  0
 22 65  1  0  0  0  0
 22 66  1  0  0  0  0
 24 27  1  0  0  0  0
 24 67  1  0  0  0  0
 24 68  1  0  0  0  0
 25 28  1  0  0  0  0
 25 69  1  0  0  0  0
 26 29  2  0  0  0  0
 26 70  1  0  0  0  0
 27 30  1  0  0  0  0
 27 71  1  0  0  0  0
 27 72  1  0  0  0  0
 28 31  2  0  0  0  0
 28 73  1  0  0  0  0
 29 31  1  0  0  0  0
 29 74  1  0  0  0  0
 30 32  1  0  0  0  0
 30 76  1  0  0  0  0
 30 77  1  0  0  0  0
 31 78  1  0  0  0  0
 32 33  2  0  0  0  0
 32 34  1  0  0  0  0
 33 35  1  0  0  0  0
 33 79  1  0  0  0  0
 34 36  2  0  0  0  0
 34 80  1  0  0  0  0
 35 37  2  0  0  0  0
 35 81  1  0  0  0  0
 36 37  1  0  0  0  0
 36 82  1  0  0  0  0
 37 83  1  0  0  0  0
M  END
> <PUBCHEM_COMPOUND_CID>
501055
> <PUBCHEM_COMPOUND_CANONICALIZED>
1
> <PUBCHEM_CACTVS_COMPLEXITY>
672
> <PUBCHEM_CACTVS_HBOND_ACCEPTOR>
4
> <PUBCHEM_CACTVS_HBOND_DONOR>
1
> <PUBCHEM_CACTVS_ROTATABLE_BOND>
10
> <PUBCHEM_CACTVS_SUBSKEYS>
AAADcfB/MAAAAAAAAAAAAAAAAAAAAWAAAAA8YMEAAAAAAAABQAAAHgAACAAADSjBmAQwCIMAAgCIAiDSCAACAAAgAAAIiAGIAIgKIDKA0TGEYAAkgACYiAeYyOCOgAAAAAAAAAAAAAAAAAAAAAAAAAAAAA==
> <PUBCHEM_IUPAC_OPENEYE_NAME>
(2R)-2-cyclohexyl-2-[(3S,4S)-3-phenyl-4-[[4-(3-phenylpropyl)-1-piperidyl]methyl]pyrrolidin-1-yl]acetic acid
> <PUBCHEM_IUPAC_CAS_NAME>
(2R)-2-cyclohexyl-2-[(3S,4S)-3-phenyl-4-[[4-(3-phenylpropyl)-1-piperidinyl]methyl]-1-pyrrolidinyl]acetic acid
> <PUBCHEM_IUPAC_NAME_MARKUP>
(2<I>R</I>)-2-cyclohexyl-2-[(3<I>S</I>,4<I>S</I>)-3-phenyl-4-[[4-(3-phenylpropyl)piperidin-1-yl]methyl]pyrrolidin-1-yl]acetic acid
> <PUBCHEM_IUPAC_NAME>
(2R)-2-cyclohexyl-2-[(3S,4S)-3-phenyl-4-[[4-(3-phenylpropyl)piperidin-1-yl]methyl]pyrrolidin-1-yl]acetic acid
> <PUBCHEM_IUPAC_SYSTEMATIC_NAME>
(2R)-2-cyclohexyl-2-[(3S,4S)-3-phenyl-4-[[4-(3-phenylpropyl)piperidin-1-yl]methyl]pyrrolidin-1-yl]ethanoic acid
> <PUBCHEM_IUPAC_TRADITIONAL_NAME>
(2R)-2-cyclohexyl-2-[(3S,4S)-3-phenyl-4-[[4-(3-phenylpropyl)piperidino]methyl]pyrrolidino]acetic acid
> <PUBCHEM_IUPAC_INCHI>
InChI=1S/C33H46N2O2/c36-33(37)32(29-17-8-3-9-18-29)35-24-30(31(25-35)28-15-6-2-7-16-28)23-34-21-19-27(20-22-34)14-10-13-26-11-4-1-5-12-26/h1-2,4-7,11-12,15-16,27,29-32H,3,8-10,13-14,17-25H2,(H,36,37)/t30-,31+,32+/m0/s1
> <PUBCHEM_IUPAC_INCHIKEY>
SUKMVMFONPSNRM-DCMFLLSESA-N
> <PUBCHEM_XLOGP3_AA>
5.6
> <PUBCHEM_EXACT_MASS>
502.35592871
> <PUBCHEM_MOLECULAR_FORMULA>
C33H46N2O2
> <PUBCHEM_MOLECULAR_WEIGHT>
502.7
> <PUBCHEM_OPENEYE_CAN_SMILES>
C1CCC(CC1)C(C(=O)O)N2CC(C(C2)C3=CC=CC=C3)CN4CCC(CC4)CCCC5=CC=CC=C5
> <PUBCHEM_OPENEYE_ISO_SMILES>
C1CCC(CC1)[C@H](C(=O)O)N2C[C@@H]([C@H](C2)C3=CC=CC=C3)CN4CCC(CC4)CCCC5=CC=CC=C5
> <PUBCHEM_CACTVS_TPSA>
43.8
> <PUBCHEM_MONOISOTOPIC_WEIGHT>
502.35592871
> <PUBCHEM_TOTAL_CHARGE>
0
> <PUBCHEM_HEAVY_ATOM_COUNT>
37
> <PUBCHEM_ATOM_DEF_STEREO_COUNT>
3
> <PUBCHEM_ATOM_UDEF_STEREO_COUNT>
0
> <PUBCHEM_BOND_DEF_STEREO_COUNT>
0
> <PUBCHEM_BOND_UDEF_STEREO_COUNT>
0
> <PUBCHEM_ISOTOPIC_ATOM_COUNT>
0
> <PUBCHEM_COMPONENT_COUNT>
1
> <PUBCHEM_CACTVS_TAUTO_COUNT>
-1
> <PUBCHEM_COORDINATE_TYPE>
1
5
255
> <PUBCHEM_BONDANNOTATIONS>
14  25  8
14  26  8
25  28  8
26  29  8
28  31  8
29  31  8
32  33  8
32  34  8
33  35  8
34  36  8
35  37  8
36  37  8
5  11  6
6  14  5
9  23  5
$$$$
