501019
  -OEChem-10302200282D
131142  0     1  0  0  0  0  0999 V2000
    9.9416    1.8738    0.0000 S   0  0  0  0  0  0  0  0  0  0  0  0
   14.6459    1.7684    0.0000 P   0  0  3  0  0  0  0  0  0  0  0  0
    9.0748    1.3753    0.0000 P   0  0  3  0  0  0  0  0  0  0  0  0
   19.5663   -0.8738    0.0000 P   0  0  3  0  0  0  0  0  0  0  0  0
   17.9776    1.7746    0.0000 O   0  0  0  0  0  0  0  0  0  0  0  0
   12.1112    0.0040    0.0000 O   0  0  0  0  0  0  0  0  0  0  0  0
   15.4559    2.3548    0.0000 O   0  0  0  0  0  0  0  0  0  0  0  0
   22.6028   -2.2450    0.0000 O   0  0  0  0  0  0  0  0  0  0  0  0
    9.5733    0.5084    0.0000 O   0  0  0  0  0  0  0  0  0  0  0  0
    6.0834    3.2170    0.0000 O   0  0  0  0  0  0  0  0  0  0  0  0
   20.0648   -1.7406    0.0000 O   0  0  0  0  0  0  0  0  0  0  0  0
   15.9045    0.2260    0.0000 O   0  0  0  0  0  0  0  0  0  0  0  0
   10.8551    2.2662    0.0000 O   0  0  0  0  0  0  0  0  0  0  0  0
   13.8358    1.1821    0.0000 O   0  0  0  0  0  0  0  0  0  0  0  0
   19.0678   -0.0069    0.0000 O   0  0  0  0  0  0  0  0  0  0  0  0
    8.5763    2.2422    0.0000 O   0  0  0  0  0  0  0  0  0  0  0  0
   21.3466    0.0172    0.0000 O   0  0  0  0  0  0  0  0  0  0  0  0
    8.4646    4.2298    0.0000 O   0  0  0  0  0  0  0  0  0  0  0  0
    6.8503    5.6884    0.0000 O   0  0  0  0  0  0  0  0  0  0  0  0
   24.3274   -1.0670    0.0000 O   0  0  0  0  0  0  0  0  0  0  0  0
   15.2323    0.9584    0.0000 O   0  5  0  0  0  0  0  0  0  0  0  0
   14.0595    2.5785    0.0000 O   0  0  0  0  0  0  0  0  0  0  0  0
    8.2079    0.8768    0.0000 O   0  5  0  0  0  0  0  0  0  0  0  0
   20.4332   -0.3753    0.0000 O   0  5  0  0  0  0  0  0  0  0  0  0
   18.6994   -1.3723    0.0000 O   0  0  0  0  0  0  0  0  0  0  0  0
   17.3419    3.4394    0.0000 N   0  0  0  0  0  0  0  0  0  0  0  0
   10.8490   -1.2539    0.0000 N   0  0  0  0  0  0  0  0  0  0  0  0
   21.3405   -3.5029    0.0000 N   0  0  0  0  0  0  0  0  0  0  0  0
    4.9644    4.6039    0.0000 N   0  0  0  0  0  0  0  0  0  0  0  0
   17.0073    5.0136    0.0000 N   0  0  0  0  0  0  0  0  0  0  0  0
   10.8490   -2.8634    0.0000 N   0  0  0  0  0  0  0  0  0  0  0  0
   19.1551    3.6251    0.0000 N   0  0  0  0  0  0  0  0  0  0  0  0
    9.0367   -1.0586    0.0000 N   0  0  0  0  0  0  0  0  0  0  0  0
   20.3900   -4.8017    0.0000 N   0  0  0  0  0  0  0  0  0  0  0  0
    3.3637    4.7721    0.0000 N   0  0  0  0  0  0  0  0  0  0  0  0
   22.9183   -4.4156    0.0000 N   0  0  0  0  0  0  0  0  0  0  0  0
    5.3480    6.3858    0.0000 N   0  0  0  0  0  0  0  0  0  0  0  0
   19.6904    5.2724    0.0000 N   0  0  0  0  0  0  0  0  0  0  0  0
    8.1707   -2.5586    0.0000 N   0  0  0  0  0  0  0  0  0  0  0  0
   18.5314    6.5596    0.0000 N   0  0  0  0  0  0  0  0  0  0  0  0
    9.0367   -4.0586    0.0000 N   0  0  0  0  0  0  0  0  0  0  0  0
   22.7313   -6.1376    0.0000 N   0  0  0  0  0  0  0  0  0  0  0  0
    3.9467    7.4038    0.0000 N   0  0  0  0  0  0  0  0  0  0  0  0
   21.1465   -6.8366    0.0000 N   0  0  0  0  0  0  0  0  0  0  0  0
    2.3644    6.6993    0.0000 N   0  0  0  0  0  0  0  0  0  0  0  0
   16.3687    1.9465    0.0000 C   0  0  2  0  0  0  0  0  0  0  0  0
   10.5733    0.5067    0.0000 C   0  0  2  0  0  0  0  0  0  0  0  0
   16.5750    0.9680    0.0000 C   0  0  1  0  0  0  0  0  0  0  0  0
   11.1624    1.3147    0.0000 C   0  0  1  0  0  0  0  0  0  0  0  0
   17.5693    0.8618    0.0000 C   0  0  1  0  0  0  0  0  0  0  0  0
   12.1130    1.0040    0.0000 C   0  0  1  0  0  0  0  0  0  0  0  0
   17.2356    2.4450    0.0000 C   0  0  1  0  0  0  0  0  0  0  0  0
   11.1596   -0.3034    0.0000 C   0  0  1  0  0  0  0  0  0  0  0  0
   21.0648   -1.7424    0.0000 C   0  0  2  0  0  0  0  0  0  0  0  0
   21.6540   -0.9344    0.0000 C   0  0  1  0  0  0  0  0  0  0  0  0
   21.6512   -2.5524    0.0000 C   0  0  1  0  0  0  0  0  0  0  0  0
   22.6045   -1.2450    0.0000 C   0  0  1  0  0  0  0  0  0  0  0  0
   12.9230    1.5904    0.0000 C   0  0  0  0  0  0  0  0  0  0  0  0
   18.0678   -0.0051    0.0000 C   0  0  0  0  0  0  0  0  0  0  0  0
    7.0778    3.1108    0.0000 C   0  0  1  0  0  0  0  0  0  0  0  0
    7.4861    4.0236    0.0000 C   0  0  2  0  0  0  0  0  0  0  0  0
    6.7441    4.6940    0.0000 C   0  0  2  0  0  0  0  0  0  0  0  0
    5.8772    4.1955    0.0000 C   0  0  1  0  0  0  0  0  0  0  0  0
    7.5763    2.2439    0.0000 C   0  0  0  0  0  0  0  0  0  0  0  0
   23.4145   -0.6587    0.0000 C   0  0  0  0  0  0  0  0  0  0  0  0
   18.2041    3.9342    0.0000 C   0  0  0  0  0  0  0  0  0  0  0  0
    9.9028   -1.5586    0.0000 C   0  0  0  0  0  0  0  0  0  0  0  0
   16.6037    4.1052    0.0000 C   0  0  0  0  0  0  0  0  0  0  0  0
   11.4326   -2.0586    0.0000 C   0  0  0  0  0  0  0  0  0  0  0  0
   21.9241   -4.3077    0.0000 C   0  0  0  0  0  0  0  0  0  0  0  0
   17.9962    4.9123    0.0000 C   0  0  0  0  0  0  0  0  0  0  0  0
    9.9028   -2.5586    0.0000 C   0  0  0  0  0  0  0  0  0  0  0  0
   20.3943   -3.8077    0.0000 C   0  0  0  0  0  0  0  0  0  0  0  0
    4.7602    5.5767    0.0000 C   0  0  0  0  0  0  0  0  0  0  0  0
    4.1030    4.1076    0.0000 C   0  0  0  0  0  0  0  0  0  0  0  0
   21.3336   -5.1146    0.0000 C   0  0  0  0  0  0  0  0  0  0  0  0
    3.7657    5.6813    0.0000 C   0  0  0  0  0  0  0  0  0  0  0  0
   18.7393    5.5814    0.0000 C   0  0  0  0  0  0  0  0  0  0  0  0
    9.0367   -3.0586    0.0000 C   0  0  0  0  0  0  0  0  0  0  0  0
   21.7371   -6.0296    0.0000 C   0  0  0  0  0  0  0  0  0  0  0  0
   19.8983    4.2943    0.0000 C   0  0  0  0  0  0  0  0  0  0  0  0
    8.1707   -1.5586    0.0000 C   0  0  0  0  0  0  0  0  0  0  0  0
    3.3590    6.5948    0.0000 C   0  0  0  0  0  0  0  0  0  0  0  0
   23.3219   -5.3306    0.0000 C   0  0  0  0  0  0  0  0  0  0  0  0
    4.9413    7.2993    0.0000 C   0  0  0  0  0  0  0  0  0  0  0  0
   16.3374    2.5657    0.0000 H   0  0  0  0  0  0  0  0  0  0  0  0
   10.2908   -0.0453    0.0000 H   0  0  0  0  0  0  0  0  0  0  0  0
   15.9764    1.1295    0.0000 H   0  0  0  0  0  0  0  0  0  0  0  0
   11.6016    1.7523    0.0000 H   0  0  0  0  0  0  0  0  0  0  0  0
   18.1885    0.8931    0.0000 H   0  0  0  0  0  0  0  0  0  0  0  0
   12.6649    0.7216    0.0000 H   0  0  0  0  0  0  0  0  0  0  0  0
   17.8148    2.6662    0.0000 H   0  0  0  0  0  0  0  0  0  0  0  0
   11.5973   -0.7425    0.0000 H   0  0  0  0  0  0  0  0  0  0  0  0
   20.7824   -2.2943    0.0000 H   0  0  0  0  0  0  0  0  0  0  0  0
   22.0932   -0.4967    0.0000 H   0  0  0  0  0  0  0  0  0  0  0  0
   21.0387   -2.6483    0.0000 H   0  0  0  0  0  0  0  0  0  0  0  0
   23.1564   -1.5275    0.0000 H   0  0  0  0  0  0  0  0  0  0  0  0
   13.2706    2.1038    0.0000 H   0  0  0  0  0  0  0  0  0  0  0  0
   12.4778    2.0218    0.0000 H   0  0  0  0  0  0  0  0  0  0  0  0
   17.4848   -0.2162    0.0000 H   0  0  0  0  0  0  0  0  0  0  0  0
   18.1744   -0.6159    0.0000 H   0  0  0  0  0  0  0  0  0  0  0  0
    6.7392    2.5914    0.0000 H   0  0  0  0  0  0  0  0  0  0  0  0
    7.8754    3.5411    0.0000 H   0  0  0  0  0  0  0  0  0  0  0  0
    7.3233    4.9152    0.0000 H   0  0  0  0  0  0  0  0  0  0  0  0
    5.8458    4.8147    0.0000 H   0  0  0  0  0  0  0  0  0  0  0  0
    6.9933    2.0328    0.0000 H   0  0  0  0  0  0  0  0  0  0  0  0
    7.6829    1.6331    0.0000 H   0  0  0  0  0  0  0  0  0  0  0  0
   23.7621   -0.1453    0.0000 H   0  0  0  0  0  0  0  0  0  0  0  0
   22.9693   -0.2272    0.0000 H   0  0  0  0  0  0  0  0  0  0  0  0
   16.0951   -0.3640    0.0000 H   0  0  0  0  0  0  0  0  0  0  0  0
   11.2707    2.7263    0.0000 H   0  0  0  0  0  0  0  0  0  0  0  0
   15.9973    3.9762    0.0000 H   0  0  0  0  0  0  0  0  0  0  0  0
   12.0526   -2.0586    0.0000 H   0  0  0  0  0  0  0  0  0  0  0  0
   21.7623    0.4772    0.0000 H   0  0  0  0  0  0  0  0  0  0  0  0
   19.8940   -3.4415    0.0000 H   0  0  0  0  0  0  0  0  0  0  0  0
    8.6572    4.8192    0.0000 H   0  0  0  0  0  0  0  0  0  0  0  0
    7.4172    5.9396    0.0000 H   0  0  0  0  0  0  0  0  0  0  0  0
    4.0382    3.4910    0.0000 H   0  0  0  0  0  0  0  0  0  0  0  0
   24.8296   -0.7034    0.0000 H   0  0  0  0  0  0  0  0  0  0  0  0
   20.4879    4.1027    0.0000 H   0  0  0  0  0  0  0  0  0  0  0  0
    7.6338   -1.2486    0.0000 H   0  0  0  0  0  0  0  0  0  0  0  0
   23.9382   -5.3975    0.0000 H   0  0  0  0  0  0  0  0  0  0  0  0
   18.9921    6.9744    0.0000 H   0  0  0  0  0  0  0  0  0  0  0  0
   17.9417    6.7512    0.0000 H   0  0  0  0  0  0  0  0  0  0  0  0
    8.4998   -4.3686    0.0000 H   0  0  0  0  0  0  0  0  0  0  0  0
    9.5737   -4.3686    0.0000 H   0  0  0  0  0  0  0  0  0  0  0  0
    5.3057    7.8009    0.0000 H   0  0  0  0  0  0  0  0  0  0  0  0
   21.3968   -7.4038    0.0000 H   0  0  0  0  0  0  0  0  0  0  0  0
   20.5302   -6.7696    0.0000 H   0  0  0  0  0  0  0  0  0  0  0  0
    2.1122    7.2657    0.0000 H   0  0  0  0  0  0  0  0  0  0  0  0
    2.0000    6.1978    0.0000 H   0  0  0  0  0  0  0  0  0  0  0  0
  1  3  2  0  0  0  0
  2  7  1  0  0  0  0
  2 14  1  0  0  0  0
  2 21  1  0  0  0  0
  2 22  2  0  0  0  0
  3  9  1  0  0  0  0
  3 16  1  0  0  0  0
  3 23  1  0  0  0  0
  4 11  1  0  0  0  0
  4 15  1  0  0  0  0
  4 24  1  0  0  0  0
  4 25  2  0  0  0  0
  5 50  1  0  0  0  0
  5 52  1  0  0  0  0
  6 51  1  0  0  0  0
  6 53  1  0  0  0  0
 46  7  1  1  0  0  0
  8 56  1  0  0  0  0
  8 57  1  0  0  0  0
 47  9  1  6  0  0  0
 10 60  1  0  0  0  0
 10 63  1  0  0  0  0
 54 11  1  6  0  0  0
 48 12  1  1  0  0  0
 12110  1  0  0  0  0
 49 13  1  6  0  0  0
 13111  1  0  0  0  0
 14 58  1  0  0  0  0
 15 59  1  0  0  0  0
 16 64  1  0  0  0  0
 55 17  1  6  0  0  0
 17114  1  0  0  0  0
 61 18  1  6  0  0  0
 18116  1  0  0  0  0
 62 19  1  6  0  0  0
 19117  1  0  0  0  0
 20 65  1  0  0  0  0
 20119  1  0  0  0  0
 52 26  1  6  0  0  0
 26 66  1  0  0  0  0
 26 68  1  0  0  0  0
 53 27  1  1  0  0  0
 27 67  1  0  0  0  0
 27 69  1  0  0  0  0
 56 28  1  1  0  0  0
 28 70  1  0  0  0  0
 28 73  1  0  0  0  0
 63 29  1  1  0  0  0
 29 74  1  0  0  0  0
 29 75  1  0  0  0  0
 30 68  2  0  0  0  0
 30 71  1  0  0  0  0
 31 69  2  0  0  0  0
 31 72  1  0  0  0  0
 32 66  2  0  0  0  0
 32 81  1  0  0  0  0
 33 67  2  0  0  0  0
 33 82  1  0  0  0  0
 34 73  2  0  0  0  0
 34 76  1  0  0  0  0
 35 75  2  0  0  0  0
 35 77  1  0  0  0  0
 36 70  2  0  0  0  0
 36 84  1  0  0  0  0
 37 74  2  0  0  0  0
 37 85  1  0  0  0  0
 38 78  1  0  0  0  0
 38 81  2  0  0  0  0
 39 79  1  0  0  0  0
 39 82  2  0  0  0  0
 40 78  1  0  0  0  0
 40123  1  0  0  0  0
 40124  1  0  0  0  0
 41 79  1  0  0  0  0
 41125  1  0  0  0  0
 41126  1  0  0  0  0
 42 80  1  0  0  0  0
 42 84  2  0  0  0  0
 43 83  1  0  0  0  0
 43 85  2  0  0  0  0
 44 80  1  0  0  0  0
 44128  1  0  0  0  0
 44129  1  0  0  0  0
 45 83  1  0  0  0  0
 45130  1  0  0  0  0
 45131  1  0  0  0  0
 46 48  1  0  0  0  0
 46 52  1  0  0  0  0
 46 86  1  0  0  0  0
 47 49  1  0  0  0  0
 47 53  1  0  0  0  0
 47 87  1  0  0  0  0
 48 50  1  0  0  0  0
 48 88  1  0  0  0  0
 49 51  1  0  0  0  0
 49 89  1  0  0  0  0
 50 59  1  6  0  0  0
 50 90  1  0  0  0  0
 51 58  1  1  0  0  0
 51 91  1  0  0  0  0
 52 92  1  0  0  0  0
 53 93  1  0  0  0  0
 54 55  1  0  0  0  0
 54 56  1  0  0  0  0
 54 94  1  0  0  0  0
 55 57  1  0  0  0  0
 55 95  1  0  0  0  0
 56 96  1  0  0  0  0
 57 65  1  1  0  0  0
 57 97  1  0  0  0  0
 58 98  1  0  0  0  0
 58 99  1  0  0  0  0
 59100  1  0  0  0  0
 59101  1  0  0  0  0
 60 61  1  0  0  0  0
 60 64  1  1  0  0  0
 60102  1  0  0  0  0
 61 62  1  0  0  0  0
 61103  1  0  0  0  0
 62 63  1  0  0  0  0
 62104  1  0  0  0  0
 63105  1  0  0  0  0
 64106  1  0  0  0  0
 64107  1  0  0  0  0
 65108  1  0  0  0  0
 65109  1  0  0  0  0
 66 71  1  0  0  0  0
 67 72  1  0  0  0  0
 68112  1  0  0  0  0
 69113  1  0  0  0  0
 70 76  1  0  0  0  0
 71 78  2  0  0  0  0
 72 79  2  0  0  0  0
 73115  1  0  0  0  0
 74 77  1  0  0  0  0
 75118  1  0  0  0  0
 76 80  2  0  0  0  0
 77 83  2  0  0  0  0
 81120  1  0  0  0  0
 82121  1  0  0  0  0
 84122  1  0  0  0  0
 85127  1  0  0  0  0
M  CHG  3  21  -1  23  -1  24  -1
M  END
> <PUBCHEM_COMPOUND_CID>
501019
> <PUBCHEM_COMPOUND_CANONICALIZED>
1
> <PUBCHEM_CACTVS_COMPLEXITY>
2460
> <PUBCHEM_CACTVS_HBOND_ACCEPTOR>
38
> <PUBCHEM_CACTVS_HBOND_DONOR>
10
> <PUBCHEM_CACTVS_ROTATABLE_BOND>
20
> <PUBCHEM_CACTVS_SUBSKEYS>
AAADcfB//gNAAAAAAAAAAAAAAAAAAWLFixIsWLFgAAAAAFgB/gAAHgAQCCAACBzhlwYF8L9MFxCgQQZhZICAgC0REKABUCAoVBCDWAJAyEAeRAgPAALTACDwMAIAAAAAAAAAAAAAAAAAAAAAAAAAAAAAAA==
> <PUBCHEM_IUPAC_OPENEYE_NAME>
[(2R,3R,4R,5R)-5-(6-aminopurin-9-yl)-4-[[(2R,3R,4R,5R)-5-(6-aminopurin-9-yl)-4-[[(2R,3S,4R,5R)-5-(6-aminopurin-9-yl)-3,4-dihydroxy-tetrahydrofuran-2-yl]methoxy-oxido-phosphinothioyl]oxy-3-hydroxy-tetrahydrofuran-2-yl]methoxy-oxido-phosphoryl]oxy-3-hydroxy-tetrahydrofuran-2-yl]methyl [(2R,3R,4R,5R)-2-(6-aminopurin-9-yl)-4-hydroxy-5-(hydroxymethyl)tetrahydrofuran-3-yl] phosphate
> <PUBCHEM_IUPAC_CAS_NAME>
[(2R,3R,4R,5R)-5-(6-aminopurin-9-yl)-4-[[(2R,3R,4R,5R)-5-(6-aminopurin-9-yl)-4-[[(2R,3S,4R,5R)-5-(6-aminopurin-9-yl)-3,4-dihydroxy-2-oxolanyl]methoxy-oxidophosphinothioyl]oxy-3-hydroxy-2-oxolanyl]methoxy-oxidophosphoryl]oxy-3-hydroxy-2-oxolanyl]methyl [(2R,3R,4R,5R)-2-(6-aminopurin-9-yl)-4-hydroxy-5-(hydroxymethyl)-3-oxolanyl] phosphate
> <PUBCHEM_IUPAC_NAME_MARKUP>
[(2<I>R</I>,3<I>R</I>,4<I>R</I>,5<I>R</I>)-5-(6-aminopurin-9-yl)-4-[[(2<I>R</I>,3<I>R</I>,4<I>R</I>,5<I>R</I>)-5-(6-aminopurin-9-yl)-4-[[(2<I>R</I>,3<I>S</I>,4<I>R</I>,5<I>R</I>)-5-(6-aminopurin-9-yl)-3,4-dihydroxyoxolan-2-yl]methoxy-oxidophosphinothioyl]oxy-3-hydroxyoxolan-2-yl]methoxy-oxidophosphoryl]oxy-3-hydroxyoxolan-2-yl]methyl [(2<I>R</I>,3<I>R</I>,4<I>R</I>,5<I>R</I>)-2-(6-aminopurin-9-yl)-4-hydroxy-5-(hydroxymethyl)oxolan-3-yl] phosphate
> <PUBCHEM_IUPAC_NAME>
[(2R,3R,4R,5R)-5-(6-aminopurin-9-yl)-4-[[(2R,3R,4R,5R)-5-(6-aminopurin-9-yl)-4-[[(2R,3S,4R,5R)-5-(6-aminopurin-9-yl)-3,4-dihydroxyoxolan-2-yl]methoxy-oxidophosphinothioyl]oxy-3-hydroxyoxolan-2-yl]methoxy-oxidophosphoryl]oxy-3-hydroxyoxolan-2-yl]methyl [(2R,3R,4R,5R)-2-(6-aminopurin-9-yl)-4-hydroxy-5-(hydroxymethyl)oxolan-3-yl] phosphate
> <PUBCHEM_IUPAC_SYSTEMATIC_NAME>
[(2R,3R,4R,5R)-5-(6-aminopurin-9-yl)-4-[[(2R,3R,4R,5R)-5-(6-aminopurin-9-yl)-4-[[(2R,3S,4R,5R)-5-(6-aminopurin-9-yl)-3,4-bis(oxidanyl)oxolan-2-yl]methoxy-oxidanidyl-phosphinothioyl]oxy-3-oxidanyl-oxolan-2-yl]methoxy-oxidanidyl-phosphoryl]oxy-3-oxidanyl-oxolan-2-yl]methyl [(2R,3R,4R,5R)-2-(6-aminopurin-9-yl)-5-(hydroxymethyl)-4-oxidanyl-oxolan-3-yl] phosphate
> <PUBCHEM_IUPAC_TRADITIONAL_NAME>
[(2R,3R,4R,5R)-5-adenin-9-yl-4-[[(2R,3R,4R,5R)-5-adenin-9-yl-4-[[(2R,3S,4R,5R)-5-adenin-9-yl-3,4-dihydroxy-tetrahydrofuran-2-yl]methoxy-oxido-thiophosphoryl]oxy-3-hydroxy-tetrahydrofuran-2-yl]methoxy-oxido-phosphoryl]oxy-3-hydroxy-tetrahydrofuran-2-yl]methyl [(2R,3R,4R,5R)-2-adenin-9-yl-4-hydroxy-5-methylol-tetrahydrofuran-3-yl] phosphate
> <PUBCHEM_IUPAC_INCHI>
InChI=1S/C40H49N20O21P3S/c41-29-17-33(49-5-45-29)57(9-53-17)37-25(66)21(62)14(76-37)4-74-84(71,85)81-28-24(65)16(78-40(28)60-12-56-20-32(44)48-8-52-36(20)60)3-73-83(69,70)80-27-23(64)15(77-39(27)59-11-55-19-31(43)47-7-51-35(19)59)2-72-82(67,68)79-26-22(63)13(1-61)75-38(26)58-10-54-18-30(42)46-6-50-34(18)58/h5-16,21-28,37-40,61-66H,1-4H2,(H,67,68)(H,69,70)(H,71,85)(H2,41,45,49)(H2,42,46,50)(H2,43,47,51)(H2,44,48,52)/p-3/t13-,14-,15-,16-,21-,22-,23-,24-,25-,26-,27-,28-,37-,38-,39-,40-,84?/m1/s1
> <PUBCHEM_IUPAC_INCHIKEY>
CHYBPMXIDQHCKI-QXFQXOIWSA-K
> <PUBCHEM_XLOGP3_AA>
-8.1
> <PUBCHEM_EXACT_MASS>
1267.20799572
> <PUBCHEM_MOLECULAR_FORMULA>
C40H46N20O21P3S-3
> <PUBCHEM_MOLECULAR_WEIGHT>
1267.9
> <PUBCHEM_OPENEYE_CAN_SMILES>
C1=NC(=C2C(=N1)N(C=N2)C3C(C(C(O3)COP(=S)([O-])OC4C(C(OC4N5C=NC6=C(N=CN=C65)N)COP(=O)([O-])OC7C(C(OC7N8C=NC9=C(N=CN=C98)N)COP(=O)([O-])OC1C(C(OC1N1C=NC2=C(N=CN=C21)N)CO)O)O)O)O)O)N
> <PUBCHEM_OPENEYE_ISO_SMILES>
C1=NC(=C2C(=N1)N(C=N2)[C@H]3[C@@H]([C@@H]([C@H](O3)COP(=S)([O-])O[C@@H]4[C@@H]([C@H](O[C@H]4N5C=NC6=C(N=CN=C65)N)COP(=O)([O-])O[C@@H]7[C@@H]([C@H](O[C@H]7N8C=NC9=C(N=CN=C98)N)COP(=O)([O-])O[C@@H]1[C@@H]([C@H](O[C@H]1N1C=NC2=C(N=CN=C21)N)CO)O)O)O)O)O)N
> <PUBCHEM_CACTVS_TPSA>
628
> <PUBCHEM_MONOISOTOPIC_WEIGHT>
1267.20799572
> <PUBCHEM_TOTAL_CHARGE>
-3
> <PUBCHEM_HEAVY_ATOM_COUNT>
85
> <PUBCHEM_ATOM_DEF_STEREO_COUNT>
16
> <PUBCHEM_ATOM_UDEF_STEREO_COUNT>
0
> <PUBCHEM_BOND_DEF_STEREO_COUNT>
0
> <PUBCHEM_BOND_UDEF_STEREO_COUNT>
0
> <PUBCHEM_ISOTOPIC_ATOM_COUNT>
0
> <PUBCHEM_COMPONENT_COUNT>
1
> <PUBCHEM_CACTVS_TAUTO_COUNT>
-1
> <PUBCHEM_COORDINATE_TYPE>
1
5
255
> <PUBCHEM_BONDANNOTATIONS>
54  11  6
48  12  5
49  13  6
55  17  6
61  18  6
62  19  6
52  26  6
26  66  8
26  68  8
53  27  5
27  67  8
27  69  8
56  28  5
28  70  8
28  73  8
63  29  5
29  74  8
29  75  8
30  68  8
30  71  8
31  69  8
31  72  8
32  66  8
32  81  8
33  67  8
33  82  8
34  73  8
34  76  8
35  75  8
35  77  8
36  70  8
36  84  8
37  74  8
37  85  8
38  78  8
38  81  8
39  79  8
39  82  8
42  80  8
42  84  8
43  83  8
43  85  8
50  59  6
51  58  5
57  65  5
60  64  5
66  71  8
67  72  8
46  7  5
70  76  8
71  78  8
72  79  8
74  77  8
76  80  8
77  83  8
47  9  6
$$$$
