501007
  -OEChem-10302200282D
139150  0     1  0  0  0  0  0999 V2000
   14.9707   -0.8791    0.0000 P   0  0  3  0  0  0  0  0  0  0  0  0
   11.1269   -3.9128    0.0000 P   0  0  3  0  0  0  0  0  0  0  0  0
   11.5517    2.6266    0.0000 P   0  0  3  0  0  0  0  0  0  0  0  0
   14.6285   -4.1932    0.0000 O   0  0  0  0  0  0  0  0  0  0  0  0
   14.8835    2.6327    0.0000 O   0  0  0  0  0  0  0  0  0  0  0  0
    7.8666   -3.2262    0.0000 O   0  0  0  0  0  0  0  0  0  0  0  0
   15.4692   -1.7460    0.0000 O   0  0  0  0  0  0  0  0  0  0  0  0
   10.2126   -4.3180    0.0000 O   0  0  0  0  0  0  0  0  0  0  0  0
   12.3618    3.2129    0.0000 O   0  0  0  0  0  0  0  0  0  0  0  0
   12.0411   -3.5077    0.0000 O   0  0  0  0  0  0  0  0  0  0  0  0
   14.4722   -0.0122    0.0000 O   0  0  0  0  0  0  0  0  0  0  0  0
   15.8376   -0.3806    0.0000 O   0  0  0  0  0  0  0  0  0  0  0  0
    8.8189   -0.7246    0.0000 O   0  0  0  0  0  0  0  0  0  0  0  0
   11.5320   -4.8271    0.0000 O   0  0  0  0  0  0  0  0  0  0  0  0
   14.1038   -1.3776    0.0000 O   0  0  0  0  0  0  0  0  0  0  0  0
   10.7217   -2.9986    0.0000 O   0  0  0  0  0  0  0  0  0  0  0  0
   10.7417    2.0402    0.0000 O   0  0  0  0  0  0  0  0  0  0  0  0
   10.9653    3.4366    0.0000 O   0  0  0  0  0  0  0  0  0  0  0  0
   12.1381    1.8165    0.0000 O   0  0  0  0  0  0  0  0  0  0  0  0
    8.1060    2.2704    0.0000 O   0  0  0  0  0  0  0  0  0  0  0  0
   16.3506   -3.7350    0.0000 N   0  0  0  0  0  0  0  0  0  0  0  0
    8.1424   -4.9867    0.0000 N   0  0  0  0  0  0  0  0  0  0  0  0
   14.2477    4.2975    0.0000 N   0  0  0  0  0  0  0  0  0  0  0  0
   17.7417   -4.5445    0.0000 N   0  0  0  0  0  0  0  0  0  0  0  0
    8.1424   -6.5962    0.0000 N   0  0  0  0  0  0  0  0  0  0  0  0
   14.9075    5.7655    0.0000 N   0  0  0  0  0  0  0  0  0  0  0  0
   17.0934   -2.0704    0.0000 N   0  0  0  0  0  0  0  0  0  0  0  0
    6.3301   -4.7914    0.0000 N   0  0  0  0  0  0  0  0  0  0  0  0
   12.5147    4.8622    0.0000 N   0  0  0  0  0  0  0  0  0  0  0  0
    5.4641   -6.2914    0.0000 N   0  3  0  0  0  0  0  0  0  0  0  0
   18.8254   -2.0764    0.0000 N   0  0  0  0  0  0  0  0  0  0  0  0
    6.3301   -7.7914    0.0000 N   0  0  0  0  0  0  0  0  0  0  0  0
   12.3396    6.5854    0.0000 N   0  0  0  0  0  0  0  0  0  0  0  0
   19.6863   -3.5794    0.0000 N   0  0  0  0  0  0  0  0  0  0  0  0
   13.7444    7.5986    0.0000 N   0  0  0  0  0  0  0  0  0  0  0  0
    6.3831    2.0924    0.0000 N   0  0  0  0  0  0  0  0  0  0  0  0
    4.7825    2.2606    0.0000 N   0  0  0  0  0  0  0  0  0  0  0  0
    6.7667    3.8743    0.0000 N   0  0  0  0  0  0  0  0  0  0  0  0
    5.3655    4.8923    0.0000 N   0  0  0  0  0  0  0  0  0  0  0  0
    3.7832    4.1878    0.0000 N   0  0  0  0  0  0  0  0  0  0  0  0
   14.9677   -2.6111    0.0000 C   0  0  1  0  0  0  0  0  0  0  0  0
   15.3728   -3.5254    0.0000 C   0  0  1  0  0  0  0  0  0  0  0  0
   13.9730   -2.7139    0.0000 C   0  0  0  0  0  0  0  0  0  0  0  0
   13.7634   -3.6917    0.0000 C   0  0  1  0  0  0  0  0  0  0  0  0
   13.2746    2.8046    0.0000 C   0  0  2  0  0  0  0  0  0  0  0  0
    9.4046   -3.7288    0.0000 C   0  0  1  0  0  0  0  0  0  0  0  0
   14.4752    1.7199    0.0000 C   0  0  1  0  0  0  0  0  0  0  0  0
   13.4808    1.8261    0.0000 C   0  0  0  0  0  0  0  0  0  0  0  0
   14.1415    3.3031    0.0000 C   0  0  1  0  0  0  0  0  0  0  0  0
    8.4530   -4.0362    0.0000 C   0  0  1  0  0  0  0  0  0  0  0  0
    9.4064   -2.7288    0.0000 C   0  0  0  0  0  0  0  0  0  0  0  0
    8.4558   -2.4181    0.0000 C   0  0  1  0  0  0  0  0  0  0  0  0
   12.8491   -4.0969    0.0000 C   0  0  0  0  0  0  0  0  0  0  0  0
   14.9737    0.8530    0.0000 C   0  0  0  0  0  0  0  0  0  0  0  0
    8.1485   -1.4666    0.0000 C   0  0  0  0  0  0  0  0  0  0  0  0
   17.0899   -3.0704    0.0000 C   0  0  0  0  0  0  0  0  0  0  0  0
   16.7526   -4.6442    0.0000 C   0  0  0  0  0  0  0  0  0  0  0  0
    7.1962   -5.2914    0.0000 C   0  0  0  0  0  0  0  0  0  0  0  0
   13.5096    4.9633    0.0000 C   0  0  0  0  0  0  0  0  0  0  0  0
    8.7260   -5.7914    0.0000 C   0  0  0  0  0  0  0  0  0  0  0  0
   15.1099    4.7923    0.0000 C   0  0  0  0  0  0  0  0  0  0  0  0
   17.9542   -3.5734    0.0000 C   0  0  0  0  0  0  0  0  0  0  0  0
    7.1962   -6.2914    0.0000 C   0  0  0  0  0  0  0  0  0  0  0  0
   13.9195    5.8754    0.0000 C   0  0  0  0  0  0  0  0  0  0  0  0
    6.3301   -6.7914    0.0000 C   0  0  0  0  0  0  0  0  0  0  0  0
   18.8220   -3.0764    0.0000 C   0  0  0  0  0  0  0  0  0  0  0  0
   13.3345    6.6864    0.0000 C   0  0  0  0  0  0  0  0  0  0  0  0
    5.4641   -5.2914    0.0000 C   0  0  0  0  0  0  0  0  0  0  0  0
   17.9611   -1.5734    0.0000 C   0  0  0  0  0  0  0  0  0  0  0  0
    4.5981   -6.7914    0.0000 C   0  0  0  0  0  0  0  0  0  0  0  0
   11.9297    5.6732    0.0000 C   0  0  0  0  0  0  0  0  0  0  0  0
    9.8289    2.4485    0.0000 C   0  0  0  0  0  0  0  0  0  0  0  0
    3.7320   -6.2914    0.0000 C   0  0  0  0  0  0  0  0  0  0  0  0
    9.0188    1.8621    0.0000 C   0  0  0  0  0  0  0  0  0  0  0  0
    3.7320   -5.2914    0.0000 C   0  0  0  0  0  0  0  0  0  0  0  0
    2.8660   -6.7914    0.0000 C   0  0  0  0  0  0  0  0  0  0  0  0
    2.8660   -4.7914    0.0000 C   0  0  0  0  0  0  0  0  0  0  0  0
    2.0000   -6.2914    0.0000 C   0  0  0  0  0  0  0  0  0  0  0  0
    7.2960    1.6840    0.0000 C   0  0  0  0  0  0  0  0  0  0  0  0
    2.0000   -5.2914    0.0000 C   0  0  0  0  0  0  0  0  0  0  0  0
    6.1790    3.0652    0.0000 C   0  0  0  0  0  0  0  0  0  0  0  0
    5.5218    1.5961    0.0000 C   0  0  0  0  0  0  0  0  0  0  0  0
    5.1844    3.1698    0.0000 C   0  0  0  0  0  0  0  0  0  0  0  0
    4.7777    4.0833    0.0000 C   0  0  0  0  0  0  0  0  0  0  0  0
    6.3600    4.7878    0.0000 C   0  0  0  0  0  0  0  0  0  0  0  0
   14.6309   -2.0906    0.0000 H   0  0  0  0  0  0  0  0  0  0  0  0
   15.7638   -3.0442    0.0000 H   0  0  0  0  0  0  0  0  0  0  0  0
   13.9740   -2.0939    0.0000 H   0  0  0  0  0  0  0  0  0  0  0  0
   13.3565   -2.6480    0.0000 H   0  0  0  0  0  0  0  0  0  0  0  0
   13.7298   -4.3108    0.0000 H   0  0  0  0  0  0  0  0  0  0  0  0
   13.2432    3.4238    0.0000 H   0  0  0  0  0  0  0  0  0  0  0  0
    9.3066   -4.3410    0.0000 H   0  0  0  0  0  0  0  0  0  0  0  0
   15.0944    1.7512    0.0000 H   0  0  0  0  0  0  0  0  0  0  0  0
   12.8641    1.7624    0.0000 H   0  0  0  0  0  0  0  0  0  0  0  0
   13.4798    1.2061    0.0000 H   0  0  0  0  0  0  0  0  0  0  0  0
   13.6221    3.6417    0.0000 H   0  0  0  0  0  0  0  0  0  0  0  0
    7.8405   -4.1321    0.0000 H   0  0  0  0  0  0  0  0  0  0  0  0
   10.0228   -2.7947    0.0000 H   0  0  0  0  0  0  0  0  0  0  0  0
    9.5363   -2.1226    0.0000 H   0  0  0  0  0  0  0  0  0  0  0  0
    7.8436   -2.3201    0.0000 H   0  0  0  0  0  0  0  0  0  0  0  0
   12.4024   -4.5268    0.0000 H   0  0  0  0  0  0  0  0  0  0  0  0
   13.1949   -4.6115    0.0000 H   0  0  0  0  0  0  0  0  0  0  0  0
   15.4479    0.4536    0.0000 H   0  0  0  0  0  0  0  0  0  0  0  0
   15.4493    1.2507    0.0000 H   0  0  0  0  0  0  0  0  0  0  0  0
    7.7676   -0.9773    0.0000 H   0  0  0  0  0  0  0  0  0  0  0  0
    7.6005   -1.7567    0.0000 H   0  0  0  0  0  0  0  0  0  0  0  0
   16.4407   -5.1800    0.0000 H   0  0  0  0  0  0  0  0  0  0  0  0
    9.3460   -5.7914    0.0000 H   0  0  0  0  0  0  0  0  0  0  0  0
   15.6755    4.5381    0.0000 H   0  0  0  0  0  0  0  0  0  0  0  0
   15.8386    0.2394    0.0000 H   0  0  0  0  0  0  0  0  0  0  0  0
    8.6283   -0.1346    0.0000 H   0  0  0  0  0  0  0  0  0  0  0  0
   11.1667   -5.3280    0.0000 H   0  0  0  0  0  0  0  0  0  0  0  0
    4.9272   -4.9814    0.0000 H   0  0  0  0  0  0  0  0  0  0  0  0
   17.9633   -0.9534    0.0000 H   0  0  0  0  0  0  0  0  0  0  0  0
   10.3486    3.3728    0.0000 H   0  0  0  0  0  0  0  0  0  0  0  0
    4.1996   -7.2664    0.0000 H   0  0  0  0  0  0  0  0  0  0  0  0
    4.9966   -7.2664    0.0000 H   0  0  0  0  0  0  0  0  0  0  0  0
   11.3129    5.6106    0.0000 H   0  0  0  0  0  0  0  0  0  0  0  0
   10.1764    2.9619    0.0000 H   0  0  0  0  0  0  0  0  0  0  0  0
    9.3836    2.8800    0.0000 H   0  0  0  0  0  0  0  0  0  0  0  0
    6.8671   -8.1014    0.0000 H   0  0  0  0  0  0  0  0  0  0  0  0
    5.7932   -8.1014    0.0000 H   0  0  0  0  0  0  0  0  0  0  0  0
   20.2243   -3.2713    0.0000 H   0  0  0  0  0  0  0  0  0  0  0  0
   19.6841   -4.1994    0.0000 H   0  0  0  0  0  0  0  0  0  0  0  0
   13.3817    8.1014    0.0000 H   0  0  0  0  0  0  0  0  0  0  0  0
   14.3612    7.6613    0.0000 H   0  0  0  0  0  0  0  0  0  0  0  0
    8.6712    1.3487    0.0000 H   0  0  0  0  0  0  0  0  0  0  0  0
    9.4641    1.4306    0.0000 H   0  0  0  0  0  0  0  0  0  0  0  0
    4.2690   -4.9814    0.0000 H   0  0  0  0  0  0  0  0  0  0  0  0
    2.8660   -7.4114    0.0000 H   0  0  0  0  0  0  0  0  0  0  0  0
    2.8660   -4.1714    0.0000 H   0  0  0  0  0  0  0  0  0  0  0  0
    1.4631   -6.6014    0.0000 H   0  0  0  0  0  0  0  0  0  0  0  0
    6.9484    1.1706    0.0000 H   0  0  0  0  0  0  0  0  0  0  0  0
    7.7412    1.2526    0.0000 H   0  0  0  0  0  0  0  0  0  0  0  0
    1.4631   -4.9814    0.0000 H   0  0  0  0  0  0  0  0  0  0  0  0
    5.4570    0.9795    0.0000 H   0  0  0  0  0  0  0  0  0  0  0  0
    6.7244    5.2894    0.0000 H   0  0  0  0  0  0  0  0  0  0  0  0
    3.5310    4.7542    0.0000 H   0  0  0  0  0  0  0  0  0  0  0  0
    3.4188    3.6862    0.0000 H   0  0  0  0  0  0  0  0  0  0  0  0
  1  7  1  0  0  0  0
  1 11  1  0  0  0  0
  1 12  1  0  0  0  0
  1 15  2  0  0  0  0
  2  8  1  0  0  0  0
  2 10  1  0  0  0  0
  2 14  1  0  0  0  0
  2 16  2  0  0  0  0
  3  9  1  0  0  0  0
  3 17  1  0  0  0  0
  3 18  1  0  0  0  0
  3 19  2  0  0  0  0
  4 42  1  0  0  0  0
  4 44  1  0  0  0  0
  5 47  1  0  0  0  0
  5 49  1  0  0  0  0
  6 50  1  0  0  0  0
  6 52  1  0  0  0  0
 41  7  1  1  0  0  0
 46  8  1  1  0  0  0
 45  9  1  1  0  0  0
 10 53  1  0  0  0  0
 11 54  1  0  0  0  0
 12110  1  0  0  0  0
 13 55  1  0  0  0  0
 13111  1  0  0  0  0
 14112  1  0  0  0  0
 17 72  1  0  0  0  0
 18115  1  0  0  0  0
 20 74  1  0  0  0  0
 20 79  1  0  0  0  0
 42 21  1  6  0  0  0
 21 56  1  0  0  0  0
 21 57  1  0  0  0  0
 50 22  1  6  0  0  0
 22 58  1  0  0  0  0
 22 60  1  0  0  0  0
 49 23  1  6  0  0  0
 23 59  1  0  0  0  0
 23 61  1  0  0  0  0
 24 57  2  0  0  0  0
 24 62  1  0  0  0  0
 25 60  2  0  0  0  0
 25 63  1  0  0  0  0
 26 61  2  0  0  0  0
 26 64  1  0  0  0  0
 27 56  2  0  0  0  0
 27 69  1  0  0  0  0
 28 58  1  0  0  0  0
 28 68  2  0  0  0  0
 29 59  2  0  0  0  0
 29 71  1  0  0  0  0
 30 65  2  0  0  0  0
 30 68  1  0  0  0  0
 30 70  1  0  0  0  0
 31 66  1  0  0  0  0
 31 69  2  0  0  0  0
 32 65  1  0  0  0  0
 32121  1  0  0  0  0
 32122  1  0  0  0  0
 33 67  1  0  0  0  0
 33 71  2  0  0  0  0
 34 66  1  0  0  0  0
 34123  1  0  0  0  0
 34124  1  0  0  0  0
 35 67  1  0  0  0  0
 35125  1  0  0  0  0
 35126  1  0  0  0  0
 36 79  1  0  0  0  0
 36 81  1  0  0  0  0
 36 82  1  0  0  0  0
 37 82  2  0  0  0  0
 37 83  1  0  0  0  0
 38 81  2  0  0  0  0
 38 85  1  0  0  0  0
 39 84  1  0  0  0  0
 39 85  2  0  0  0  0
 40 84  1  0  0  0  0
 40138  1  0  0  0  0
 40139  1  0  0  0  0
 41 42  1  0  0  0  0
 41 43  1  0  0  0  0
 41 86  1  0  0  0  0
 42 87  1  0  0  0  0
 43 44  1  0  0  0  0
 43 88  1  0  0  0  0
 43 89  1  0  0  0  0
 44 53  1  6  0  0  0
 44 90  1  0  0  0  0
 45 48  1  0  0  0  0
 45 49  1  0  0  0  0
 45 91  1  0  0  0  0
 46 50  1  0  0  0  0
 46 51  1  0  0  0  0
 46 92  1  0  0  0  0
 47 48  1  0  0  0  0
 47 54  1  6  0  0  0
 47 93  1  0  0  0  0
 48 94  1  0  0  0  0
 48 95  1  0  0  0  0
 49 96  1  0  0  0  0
 50 97  1  0  0  0  0
 51 52  1  0  0  0  0
 51 98  1  0  0  0  0
 51 99  1  0  0  0  0
 52 55  1  6  0  0  0
 52100  1  0  0  0  0
 53101  1  0  0  0  0
 53102  1  0  0  0  0
 54103  1  0  0  0  0
 54104  1  0  0  0  0
 55105  1  0  0  0  0
 55106  1  0  0  0  0
 56 62  1  0  0  0  0
 57107  1  0  0  0  0
 58 63  2  0  0  0  0
 59 64  1  0  0  0  0
 60108  1  0  0  0  0
 61109  1  0  0  0  0
 62 66  2  0  0  0  0
 63 65  1  0  0  0  0
 64 67  2  0  0  0  0
 68113  1  0  0  0  0
 69114  1  0  0  0  0
 70 73  1  0  0  0  0
 70116  1  0  0  0  0
 70117  1  0  0  0  0
 71118  1  0  0  0  0
 72 74  1  0  0  0  0
 72119  1  0  0  0  0
 72120  1  0  0  0  0
 73 75  2  0  0  0  0
 73 76  1  0  0  0  0
 74127  1  0  0  0  0
 74128  1  0  0  0  0
 75 77  1  0  0  0  0
 75129  1  0  0  0  0
 76 78  2  0  0  0  0
 76130  1  0  0  0  0
 77 80  2  0  0  0  0
 77131  1  0  0  0  0
 78 80  1  0  0  0  0
 78132  1  0  0  0  0
 79133  1  0  0  0  0
 79134  1  0  0  0  0
 80135  1  0  0  0  0
 81 83  1  0  0  0  0
 82136  1  0  0  0  0
 83 84  2  0  0  0  0
 85137  1  0  0  0  0
M  CHG  1  30   1
M  END
> <PUBCHEM_COMPOUND_CID>
501007
> <PUBCHEM_COMPOUND_CANONICALIZED>
1
> <PUBCHEM_CACTVS_COMPLEXITY>
2370
> <PUBCHEM_CACTVS_HBOND_ACCEPTOR>
32
> <PUBCHEM_CACTVS_HBOND_DONOR>
8
> <PUBCHEM_CACTVS_ROTATABLE_BOND>
24
> <PUBCHEM_CACTVS_SUBSKEYS>
AAADcfB//gMAAAAAAAAAAAAAAAAAAWLFixI8WLFiAAAAAFgB/gAAHgAQCCAADBzhnwY18L9MFxCgQyZjZICCgC0xEKAJ2CAoVJiLeCLA2VGeZAhtgALbiCfwsAIOAAAAAAAAAAAAAAAAAAAAAAAAAAAAAA==
> <PUBCHEM_IUPAC_OPENEYE_NAME>
[(2R,3R,5S)-2-(6-amino-1-benzyl-purin-1-ium-9-yl)-5-(hydroxymethyl)tetrahydrofuran-3-yl] [(2S,4R,5R)-5-(6-aminopurin-9-yl)-4-[[(2S,4R,5R)-5-(6-aminopurin-9-yl)-4-[2-[(6-aminopurin-9-yl)methoxy]ethoxy-hydroxy-phosphoryl]oxy-tetrahydrofuran-2-yl]methoxy-hydroxy-phosphoryl]oxy-tetrahydrofuran-2-yl]methyl hydrogen phosphate
> <PUBCHEM_IUPAC_CAS_NAME>
[(2R,3R,5S)-2-[6-amino-1-(phenylmethyl)-9-purin-1-iumyl]-5-(hydroxymethyl)-3-oxolanyl] [(2S,4R,5R)-5-(6-aminopurin-9-yl)-4-[[(2S,4R,5R)-5-(6-aminopurin-9-yl)-4-[2-[(6-aminopurin-9-yl)methoxy]ethoxy-hydroxyphosphoryl]oxy-2-oxolanyl]methoxy-hydroxyphosphoryl]oxy-2-oxolanyl]methyl hydrogen phosphate
> <PUBCHEM_IUPAC_NAME_MARKUP>
[(2<I>R</I>,3<I>R</I>,5<I>S</I>)-2-(6-amino-1-benzylpurin-1-ium-9-yl)-5-(hydroxymethyl)oxolan-3-yl] [(2<I>S</I>,4<I>R</I>,5<I>R</I>)-5-(6-aminopurin-9-yl)-4-[[(2<I>S</I>,4<I>R</I>,5<I>R</I>)-5-(6-aminopurin-9-yl)-4-[2-[(6-aminopurin-9-yl)methoxy]ethoxy-hydroxyphosphoryl]oxyoxolan-2-yl]methoxy-hydroxyphosphoryl]oxyoxolan-2-yl]methyl hydrogen phosphate
> <PUBCHEM_IUPAC_NAME>
[(2R,3R,5S)-2-(6-amino-1-benzylpurin-1-ium-9-yl)-5-(hydroxymethyl)oxolan-3-yl] [(2S,4R,5R)-5-(6-aminopurin-9-yl)-4-[[(2S,4R,5R)-5-(6-aminopurin-9-yl)-4-[2-[(6-aminopurin-9-yl)methoxy]ethoxy-hydroxyphosphoryl]oxyoxolan-2-yl]methoxy-hydroxyphosphoryl]oxyoxolan-2-yl]methyl hydrogen phosphate
> <PUBCHEM_IUPAC_SYSTEMATIC_NAME>
[(2S,4R,5R)-5-(6-aminopurin-9-yl)-4-[[(2S,4R,5R)-5-(6-aminopurin-9-yl)-4-[2-[(6-aminopurin-9-yl)methoxy]ethoxy-oxidanyl-phosphoryl]oxy-oxolan-2-yl]methoxy-oxidanyl-phosphoryl]oxy-oxolan-2-yl]methyl [(2R,3R,5S)-2-[6-azanyl-1-(phenylmethyl)purin-1-ium-9-yl]-5-(hydroxymethyl)oxolan-3-yl] hydrogen phosphate
> <PUBCHEM_IUPAC_TRADITIONAL_NAME>
[(2S,4R,5R)-5-adenin-9-yl-4-[[(2S,4R,5R)-5-adenin-9-yl-4-[2-(adenin-9-ylmethoxy)ethoxy-hydroxy-phosphoryl]oxy-tetrahydrofuran-2-yl]methoxy-hydroxy-phosphoryl]oxy-tetrahydrofuran-2-yl]methyl [(2R,3R,5S)-2-(6-amino-1-benzyl-purin-1-ium-9-yl)-5-methylol-tetrahydrofuran-3-yl] hydrogen phosphate
> <PUBCHEM_IUPAC_INCHI>
InChI=1S/C45H53N20O17P3/c46-35-31-39(53-15-50-35)62(18-56-31)23-73-6-7-74-83(67,68)80-29-9-26(78-44(29)63-20-57-32-36(47)51-16-54-40(32)63)13-76-85(71,72)82-30-10-27(79-45(30)64-21-58-33-37(48)52-17-55-41(33)64)14-75-84(69,70)81-28-8-25(12-66)77-43(28)65-22-59-34-38(49)61(19-60-42(34)65)11-24-4-2-1-3-5-24/h1-5,15-22,25-30,43-45,49,66H,6-14,23H2,(H9,46,47,48,50,51,52,53,54,55,67,68,69,70,71,72)/p+1/t25-,26-,27-,28+,29+,30+,43+,44+,45+/m0/s1
> <PUBCHEM_IUPAC_INCHIKEY>
FHJBUKJTHAQMBB-NJEBJAKLSA-O
> <PUBCHEM_XLOGP3_AA>
-4.1
> <PUBCHEM_EXACT_MASS>
1239.31886633
> <PUBCHEM_MOLECULAR_FORMULA>
C45H54N20O17P3+
> <PUBCHEM_MOLECULAR_WEIGHT>
1240.0
> <PUBCHEM_OPENEYE_CAN_SMILES>
C1C(OC(C1OP(=O)(O)OCC2CC(C(O2)N3C=NC4=C(N=CN=C43)N)OP(=O)(O)OCC5CC(C(O5)N6C=NC7=C(N=CN=C76)N)OP(=O)(O)OCCOCN8C=NC9=C(N=CN=C98)N)N1C=NC2=C1N=C[N+](=C2N)CC1=CC=CC=C1)CO
> <PUBCHEM_OPENEYE_ISO_SMILES>
C1[C@H](O[C@H]([C@@H]1OP(=O)(O)OC[C@@H]2C[C@H]([C@@H](O2)N3C=NC4=C(N=CN=C43)N)OP(=O)(O)OC[C@@H]5C[C@H]([C@@H](O5)N6C=NC7=C(N=CN=C76)N)OP(=O)(O)OCCOCN8C=NC9=C(N=CN=C98)N)N1C=NC2=C1N=C[N+](=C2N)CC1=CC=CC=C1)CO
> <PUBCHEM_CACTVS_TPSA>
494
> <PUBCHEM_MONOISOTOPIC_WEIGHT>
1239.31886633
> <PUBCHEM_TOTAL_CHARGE>
1
> <PUBCHEM_HEAVY_ATOM_COUNT>
85
> <PUBCHEM_ATOM_DEF_STEREO_COUNT>
9
> <PUBCHEM_ATOM_UDEF_STEREO_COUNT>
0
> <PUBCHEM_BOND_DEF_STEREO_COUNT>
0
> <PUBCHEM_BOND_UDEF_STEREO_COUNT>
0
> <PUBCHEM_ISOTOPIC_ATOM_COUNT>
0
> <PUBCHEM_COMPONENT_COUNT>
1
> <PUBCHEM_CACTVS_TAUTO_COUNT>
-1
> <PUBCHEM_COORDINATE_TYPE>
1
5
255
> <PUBCHEM_BONDANNOTATIONS>
42  21  6
21  56  8
21  57  8
50  22  6
22  58  8
22  60  8
49  23  6
23  59  8
23  61  8
24  57  8
24  62  8
25  60  8
25  63  8
26  61  8
26  64  8
27  56  8
27  69  8
28  58  8
28  68  8
29  59  8
29  71  8
30  65  8
30  68  8
31  66  8
31  69  8
33  67  8
33  71  8
36  81  8
36  82  8
37  82  8
37  83  8
38  81  8
38  85  8
39  84  8
39  85  8
44  53  6
47  54  6
52  55  6
56  62  8
58  63  8
59  64  8
62  66  8
63  65  8
64  67  8
41  7  5
73  75  8
73  76  8
75  77  8
76  78  8
77  80  8
78  80  8
46  8  5
81  83  8
83  84  8
45  9  5
$$$$
