501054
  -OEChem-10302200282D
 68 71  0     1  0  0  0  0  0999 V2000
    6.8900    2.9724    0.0000 O   0  0  0  0  0  0  0  0  0  0  0  0
    2.3644   -2.3299    0.0000 O   0  0  0  0  0  0  0  0  0  0  0  0
    3.7657   -3.3480    0.0000 O   0  0  0  0  0  0  0  0  0  0  0  0
    7.3900    0.1064    0.0000 N   0  0  0  0  0  0  0  0  0  0  0  0
    4.9413   -1.7300    0.0000 N   0  0  3  0  0  0  0  0  0  0  0  0
    6.5239   -1.3936    0.0000 C   0  0  1  0  0  0  0  0  0  0  0  0
    6.4194   -2.3881    0.0000 C   0  0  2  0  0  0  0  0  0  0  0  0
    7.3900   -0.8936    0.0000 C   0  0  0  0  0  0  0  0  0  0  0  0
    5.6104   -0.9868    0.0000 C   0  0  0  0  0  0  0  0  0  0  0  0
    7.3900    2.1064    0.0000 C   0  0  0  0  0  0  0  0  0  0  0  0
    5.4413   -2.5960    0.0000 C   0  0  0  0  0  0  0  0  0  0  0  0
    6.5239    1.6064    0.0000 C   0  0  0  0  0  0  0  0  0  0  0  0
    8.2560    1.6064    0.0000 C   0  0  0  0  0  0  0  0  0  0  0  0
    6.5239    0.6064    0.0000 C   0  0  0  0  0  0  0  0  0  0  0  0
    8.2560    0.6064    0.0000 C   0  0  0  0  0  0  0  0  0  0  0  0
    7.8900    2.9724    0.0000 C   0  0  0  0  0  0  0  0  0  0  0  0
    7.1626   -3.0572    0.0000 C   0  0  0  0  0  0  0  0  0  0  0  0
    3.9467   -1.6254    0.0000 C   0  0  0  0  0  0  0  0  0  0  0  0
    8.8900    2.9724    0.0000 C   0  0  0  0  0  0  0  0  0  0  0  0
    8.1136   -2.7482    0.0000 C   0  0  0  0  0  0  0  0  0  0  0  0
    6.9546   -4.0354    0.0000 C   0  0  0  0  0  0  0  0  0  0  0  0
    9.3900    3.8385    0.0000 C   0  0  0  0  0  0  0  0  0  0  0  0
    3.3590   -2.4345    0.0000 C   0  0  0  0  0  0  0  0  0  0  0  0
    8.8568   -3.4173    0.0000 C   0  0  0  0  0  0  0  0  0  0  0  0
    7.6978   -4.7045    0.0000 C   0  0  0  0  0  0  0  0  0  0  0  0
    8.6488   -4.3955    0.0000 C   0  0  0  0  0  0  0  0  0  0  0  0
   10.3900    3.8385    0.0000 C   0  0  0  0  0  0  0  0  0  0  0  0
   10.8900    4.7045    0.0000 C   0  0  0  0  0  0  0  0  0  0  0  0
   10.8900    2.9724    0.0000 C   0  0  0  0  0  0  0  0  0  0  0  0
   11.8900    4.7045    0.0000 C   0  0  0  0  0  0  0  0  0  0  0  0
   11.8900    2.9724    0.0000 C   0  0  0  0  0  0  0  0  0  0  0  0
   12.3900    3.8385    0.0000 C   0  0  0  0  0  0  0  0  0  0  0  0
    6.4915   -0.7744    0.0000 H   0  0  0  0  0  0  0  0  0  0  0  0
    6.2589   -2.9870    0.0000 H   0  0  0  0  0  0  0  0  0  0  0  0
    7.6020   -1.4762    0.0000 H   0  0  0  0  0  0  0  0  0  0  0  0
    8.0005   -0.7859    0.0000 H   0  0  0  0  0  0  0  0  0  0  0  0
    5.9204   -0.4499    0.0000 H   0  0  0  0  0  0  0  0  0  0  0  0
    5.1088   -0.6224    0.0000 H   0  0  0  0  0  0  0  0  0  0  0  0
    4.8749   -2.8482    0.0000 H   0  0  0  0  0  0  0  0  0  0  0  0
    5.6328   -3.1857    0.0000 H   0  0  0  0  0  0  0  0  0  0  0  0
    6.3119    2.1890    0.0000 H   0  0  0  0  0  0  0  0  0  0  0  0
    5.9134    1.4988    0.0000 H   0  0  0  0  0  0  0  0  0  0  0  0
    8.8666    1.4988    0.0000 H   0  0  0  0  0  0  0  0  0  0  0  0
    8.4680    2.1890    0.0000 H   0  0  0  0  0  0  0  0  0  0  0  0
    5.9134    0.7141    0.0000 H   0  0  0  0  0  0  0  0  0  0  0  0
    6.3119    0.0238    0.0000 H   0  0  0  0  0  0  0  0  0  0  0  0
    8.4680    0.0238    0.0000 H   0  0  0  0  0  0  0  0  0  0  0  0
    8.8666    0.7141    0.0000 H   0  0  0  0  0  0  0  0  0  0  0  0
    7.9976    3.5830    0.0000 H   0  0  0  0  0  0  0  0  0  0  0  0
    7.3074    3.1845    0.0000 H   0  0  0  0  0  0  0  0  0  0  0  0
    4.1176   -1.0295    0.0000 H   0  0  0  0  0  0  0  0  0  0  0  0
    3.3895   -1.3537    0.0000 H   0  0  0  0  0  0  0  0  0  0  0  0
    8.7823    2.3619    0.0000 H   0  0  0  0  0  0  0  0  0  0  0  0
    9.4726    2.7604    0.0000 H   0  0  0  0  0  0  0  0  0  0  0  0
    6.2700    2.9724    0.0000 H   0  0  0  0  0  0  0  0  0  0  0  0
    8.2425   -2.1418    0.0000 H   0  0  0  0  0  0  0  0  0  0  0  0
    6.3650   -4.2270    0.0000 H   0  0  0  0  0  0  0  0  0  0  0  0
    9.4976    4.4491    0.0000 H   0  0  0  0  0  0  0  0  0  0  0  0
    8.8074    4.0505    0.0000 H   0  0  0  0  0  0  0  0  0  0  0  0
    9.4464   -3.2258    0.0000 H   0  0  0  0  0  0  0  0  0  0  0  0
    7.5689   -5.3110    0.0000 H   0  0  0  0  0  0  0  0  0  0  0  0
    9.1096   -4.8104    0.0000 H   0  0  0  0  0  0  0  0  0  0  0  0
    2.0000   -2.8315    0.0000 H   0  0  0  0  0  0  0  0  0  0  0  0
   10.5800    5.2414    0.0000 H   0  0  0  0  0  0  0  0  0  0  0  0
   10.5800    2.4355    0.0000 H   0  0  0  0  0  0  0  0  0  0  0  0
   12.2000    5.2414    0.0000 H   0  0  0  0  0  0  0  0  0  0  0  0
   12.2000    2.4355    0.0000 H   0  0  0  0  0  0  0  0  0  0  0  0
   13.0100    3.8385    0.0000 H   0  0  0  0  0  0  0  0  0  0  0  0
  1 10  1  0  0  0  0
  1 55  1  0  0  0  0
  2 23  1  0  0  0  0
  2 63  1  0  0  0  0
  3 23  2  0  0  0  0
  4  8  1  0  0  0  0
  4 14  1  0  0  0  0
  4 15  1  0  0  0  0
  5  9  1  0  0  0  0
  5 11  1  0  0  0  0
  5 18  1  0  0  0  0
  6  7  1  0  0  0  0
  6  8  1  6  0  0  0
  6  9  1  0  0  0  0
  6 33  1  0  0  0  0
  7 11  1  0  0  0  0
  7 17  1  1  0  0  0
  7 34  1  0  0  0  0
  8 35  1  0  0  0  0
  8 36  1  0  0  0  0
  9 37  1  0  0  0  0
  9 38  1  0  0  0  0
 10 12  1  0  0  0  0
 10 13  1  0  0  0  0
 10 16  1  0  0  0  0
 11 39  1  0  0  0  0
 11 40  1  0  0  0  0
 12 14  1  0  0  0  0
 12 41  1  0  0  0  0
 12 42  1  0  0  0  0
 13 15  1  0  0  0  0
 13 43  1  0  0  0  0
 13 44  1  0  0  0  0
 14 45  1  0  0  0  0
 14 46  1  0  0  0  0
 15 47  1  0  0  0  0
 15 48  1  0  0  0  0
 16 19  1  0  0  0  0
 16 49  1  0  0  0  0
 16 50  1  0  0  0  0
 17 20  2  0  0  0  0
 17 21  1  0  0  0  0
 18 23  1  0  0  0  0
 18 51  1  0  0  0  0
 18 52  1  0  0  0  0
 19 22  1  0  0  0  0
 19 53  1  0  0  0  0
 19 54  1  0  0  0  0
 20 24  1  0  0  0  0
 20 56  1  0  0  0  0
 21 25  2  0  0  0  0
 21 57  1  0  0  0  0
 22 27  1  0  0  0  0
 22 58  1  0  0  0  0
 22 59  1  0  0  0  0
 24 26  2  0  0  0  0
 24 60  1  0  0  0  0
 25 26  1  0  0  0  0
 25 61  1  0  0  0  0
 26 62  1  0  0  0  0
 27 28  2  0  0  0  0
 27 29  1  0  0  0  0
 28 30  1  0  0  0  0
 28 64  1  0  0  0  0
 29 31  2  0  0  0  0
 29 65  1  0  0  0  0
 30 32  2  0  0  0  0
 30 66  1  0  0  0  0
 31 32  1  0  0  0  0
 31 67  1  0  0  0  0
 32 68  1  0  0  0  0
M  END
> <PUBCHEM_COMPOUND_CID>
501054
> <PUBCHEM_COMPOUND_CANONICALIZED>
1
> <PUBCHEM_CACTVS_COMPLEXITY>
578
> <PUBCHEM_CACTVS_HBOND_ACCEPTOR>
5
> <PUBCHEM_CACTVS_HBOND_DONOR>
2
> <PUBCHEM_CACTVS_ROTATABLE_BOND>
9
> <PUBCHEM_CACTVS_SUBSKEYS>
AAADcfB7MAAAAAAAAAAAAAAAAAAAAWAAAAA8YIAAAAAAAAABQAAAHgAACAAADUTBmAQwCIMAAgCIAiDSCAACAAAgAAAIiACIAIgKICKA0TGEYAAmgACYiAeQwPAOgAAAAAAAAAAAAAAAAAAAAAAAAAAAAA==
> <PUBCHEM_IUPAC_OPENEYE_NAME>
2-[(3S,4S)-3-[[4-hydroxy-4-(3-phenylpropyl)-1-piperidyl]methyl]-4-phenyl-pyrrolidin-1-yl]acetic acid
> <PUBCHEM_IUPAC_CAS_NAME>
2-[(3S,4S)-3-[[4-hydroxy-4-(3-phenylpropyl)-1-piperidinyl]methyl]-4-phenyl-1-pyrrolidinyl]acetic acid
> <PUBCHEM_IUPAC_NAME_MARKUP>
2-[(3<I>S</I>,4<I>S</I>)-3-[[4-hydroxy-4-(3-phenylpropyl)piperidin-1-yl]methyl]-4-phenylpyrrolidin-1-yl]acetic acid
> <PUBCHEM_IUPAC_NAME>
2-[(3S,4S)-3-[[4-hydroxy-4-(3-phenylpropyl)piperidin-1-yl]methyl]-4-phenylpyrrolidin-1-yl]acetic acid
> <PUBCHEM_IUPAC_SYSTEMATIC_NAME>
2-[(3S,4S)-3-[[4-oxidanyl-4-(3-phenylpropyl)piperidin-1-yl]methyl]-4-phenyl-pyrrolidin-1-yl]ethanoic acid
> <PUBCHEM_IUPAC_TRADITIONAL_NAME>
2-[(3S,4S)-3-[[4-hydroxy-4-(3-phenylpropyl)piperidino]methyl]-4-phenyl-pyrrolidino]acetic acid
> <PUBCHEM_IUPAC_INCHI>
InChI=1S/C27H36N2O3/c30-26(31)21-29-19-24(25(20-29)23-11-5-2-6-12-23)18-28-16-14-27(32,15-17-28)13-7-10-22-8-3-1-4-9-22/h1-6,8-9,11-12,24-25,32H,7,10,13-21H2,(H,30,31)/t24-,25+/m0/s1
> <PUBCHEM_IUPAC_INCHIKEY>
CTJKYRODXZKJFT-LOSJGSFVSA-N
> <PUBCHEM_XLOGP3_AA>
1.8
> <PUBCHEM_EXACT_MASS>
436.27259301
> <PUBCHEM_MOLECULAR_FORMULA>
C27H36N2O3
> <PUBCHEM_MOLECULAR_WEIGHT>
436.6
> <PUBCHEM_OPENEYE_CAN_SMILES>
C1CN(CCC1(CCCC2=CC=CC=C2)O)CC3CN(CC3C4=CC=CC=C4)CC(=O)O
> <PUBCHEM_OPENEYE_ISO_SMILES>
C1CN(CCC1(CCCC2=CC=CC=C2)O)C[C@H]3CN(C[C@@H]3C4=CC=CC=C4)CC(=O)O
> <PUBCHEM_CACTVS_TPSA>
64
> <PUBCHEM_MONOISOTOPIC_WEIGHT>
436.27259301
> <PUBCHEM_TOTAL_CHARGE>
0
> <PUBCHEM_HEAVY_ATOM_COUNT>
32
> <PUBCHEM_ATOM_DEF_STEREO_COUNT>
2
> <PUBCHEM_ATOM_UDEF_STEREO_COUNT>
0
> <PUBCHEM_BOND_DEF_STEREO_COUNT>
0
> <PUBCHEM_BOND_UDEF_STEREO_COUNT>
0
> <PUBCHEM_ISOTOPIC_ATOM_COUNT>
0
> <PUBCHEM_COMPONENT_COUNT>
1
> <PUBCHEM_CACTVS_TAUTO_COUNT>
-1
> <PUBCHEM_COORDINATE_TYPE>
1
5
255
> <PUBCHEM_BONDANNOTATIONS>
17  20  8
17  21  8
20  24  8
21  25  8
24  26  8
25  26  8
27  28  8
27  29  8
28  30  8
29  31  8
30  32  8
31  32  8
6  8  6
7  17  5
$$$$
