501062
  -OEChem-10302200282D
 80 84  0     1  0  0  0  0  0999 V2000
    5.1698   -0.8539    0.0000 O   0  0  0  0  0  0  0  0  0  0  0  0
    3.5875   -1.5583    0.0000 O   0  0  0  0  0  0  0  0  0  0  0  0
    5.9833   -2.6809    0.0000 N   0  0  3  0  0  0  0  0  0  0  0  0
    8.4320   -0.8445    0.0000 N   0  0  0  0  0  0  0  0  0  0  0  0
    7.5660   -2.3445    0.0000 C   0  0  2  0  0  0  0  0  0  0  0  0
    7.4614   -3.3391    0.0000 C   0  0  2  0  0  0  0  0  0  0  0  0
    6.6524   -1.9378    0.0000 C   0  0  0  0  0  0  0  0  0  0  0  0
    6.4833   -3.5470    0.0000 C   0  0  0  0  0  0  0  0  0  0  0  0
    3.4065   -3.2809    0.0000 C   0  0  0  0  0  0  0  0  0  0  0  0
    4.9888   -2.5764    0.0000 C   0  0  2  0  0  0  0  0  0  0  0  0
    8.4320   -1.8445    0.0000 C   0  0  0  0  0  0  0  0  0  0  0  0
    4.4010   -3.3854    0.0000 C   0  0  0  0  0  0  0  0  0  0  0  0
    2.7771   -2.5038    0.0000 C   0  0  0  0  0  0  0  0  0  0  0  0
    2.6293   -3.9102    0.0000 C   0  0  0  0  0  0  0  0  0  0  0  0
    2.0000   -3.1331    0.0000 C   0  0  0  0  0  0  0  0  0  0  0  0
    8.4320    1.1555    0.0000 C   0  0  0  0  0  0  0  0  0  0  0  0
    8.2046   -4.0082    0.0000 C   0  0  0  0  0  0  0  0  0  0  0  0
    7.5660   -0.3445    0.0000 C   0  0  0  0  0  0  0  0  0  0  0  0
    9.2980   -0.3445    0.0000 C   0  0  0  0  0  0  0  0  0  0  0  0
    7.5660    0.6555    0.0000 C   0  0  0  0  0  0  0  0  0  0  0  0
    9.2980    0.6555    0.0000 C   0  0  0  0  0  0  0  0  0  0  0  0
    4.5820   -1.6629    0.0000 C   0  0  0  0  0  0  0  0  0  0  0  0
    8.4320    2.1555    0.0000 C   0  0  0  0  0  0  0  0  0  0  0  0
    9.1556   -3.6992    0.0000 C   0  0  0  0  0  0  0  0  0  0  0  0
    7.9967   -4.9863    0.0000 C   0  0  0  0  0  0  0  0  0  0  0  0
    9.2980    2.6555    0.0000 C   0  0  0  0  0  0  0  0  0  0  0  0
    9.8988   -4.3683    0.0000 C   0  0  0  0  0  0  0  0  0  0  0  0
    8.7398   -5.6555    0.0000 C   0  0  0  0  0  0  0  0  0  0  0  0
    9.2980    3.6555    0.0000 C   0  0  0  0  0  0  0  0  0  0  0  0
    9.6909   -5.3464    0.0000 C   0  0  0  0  0  0  0  0  0  0  0  0
   10.1640    4.1555    0.0000 C   0  0  0  0  0  0  0  0  0  0  0  0
   11.0301    3.6555    0.0000 C   0  0  0  0  0  0  0  0  0  0  0  0
   10.1640    5.1555    0.0000 C   0  0  0  0  0  0  0  0  0  0  0  0
   11.8961    4.1555    0.0000 C   0  0  0  0  0  0  0  0  0  0  0  0
   11.0301    5.6555    0.0000 C   0  0  0  0  0  0  0  0  0  0  0  0
   11.8961    5.1555    0.0000 C   0  0  0  0  0  0  0  0  0  0  0  0
    7.5335   -1.7254    0.0000 H   0  0  0  0  0  0  0  0  0  0  0  0
    8.0403   -3.1169    0.0000 H   0  0  0  0  0  0  0  0  0  0  0  0
    6.9624   -1.4009    0.0000 H   0  0  0  0  0  0  0  0  0  0  0  0
    6.1508   -1.5734    0.0000 H   0  0  0  0  0  0  0  0  0  0  0  0
    5.9169   -3.7991    0.0000 H   0  0  0  0  0  0  0  0  0  0  0  0
    6.6749   -4.1366    0.0000 H   0  0  0  0  0  0  0  0  0  0  0  0
    3.7023   -2.7360    0.0000 H   0  0  0  0  0  0  0  0  0  0  0  0
    5.2410   -3.1428    0.0000 H   0  0  0  0  0  0  0  0  0  0  0  0
    8.6440   -2.4271    0.0000 H   0  0  0  0  0  0  0  0  0  0  0  0
    9.0426   -1.7369    0.0000 H   0  0  0  0  0  0  0  0  0  0  0  0
    4.2301   -3.9814    0.0000 H   0  0  0  0  0  0  0  0  0  0  0  0
    4.9582   -3.6572    0.0000 H   0  0  0  0  0  0  0  0  0  0  0  0
    3.2590   -2.1136    0.0000 H   0  0  0  0  0  0  0  0  0  0  0  0
    2.3870   -2.0219    0.0000 H   0  0  0  0  0  0  0  0  0  0  0  0
    2.1475   -4.3004    0.0000 H   0  0  0  0  0  0  0  0  0  0  0  0
    3.0195   -4.3920    0.0000 H   0  0  0  0  0  0  0  0  0  0  0  0
    1.6098   -2.6512    0.0000 H   0  0  0  0  0  0  0  0  0  0  0  0
    1.5182   -3.5233    0.0000 H   0  0  0  0  0  0  0  0  0  0  0  0
    8.9689    1.4655    0.0000 H   0  0  0  0  0  0  0  0  0  0  0  0
    6.9554   -0.2369    0.0000 H   0  0  0  0  0  0  0  0  0  0  0  0
    7.3539   -0.9271    0.0000 H   0  0  0  0  0  0  0  0  0  0  0  0
    9.5101   -0.9271    0.0000 H   0  0  0  0  0  0  0  0  0  0  0  0
    9.9086   -0.2369    0.0000 H   0  0  0  0  0  0  0  0  0  0  0  0
    7.3539    1.2381    0.0000 H   0  0  0  0  0  0  0  0  0  0  0  0
    6.9554    0.5478    0.0000 H   0  0  0  0  0  0  0  0  0  0  0  0
    9.9086    0.5478    0.0000 H   0  0  0  0  0  0  0  0  0  0  0  0
    9.5101    1.2381    0.0000 H   0  0  0  0  0  0  0  0  0  0  0  0
    8.2199    2.7381    0.0000 H   0  0  0  0  0  0  0  0  0  0  0  0
    7.8214    2.0478    0.0000 H   0  0  0  0  0  0  0  0  0  0  0  0
    9.2846   -3.0927    0.0000 H   0  0  0  0  0  0  0  0  0  0  0  0
    7.4070   -5.1779    0.0000 H   0  0  0  0  0  0  0  0  0  0  0  0
    9.5101    2.0729    0.0000 H   0  0  0  0  0  0  0  0  0  0  0  0
    9.9086    2.7631    0.0000 H   0  0  0  0  0  0  0  0  0  0  0  0
   10.4884   -4.1767    0.0000 H   0  0  0  0  0  0  0  0  0  0  0  0
    8.6109   -6.2619    0.0000 H   0  0  0  0  0  0  0  0  0  0  0  0
    4.9176   -0.2875    0.0000 H   0  0  0  0  0  0  0  0  0  0  0  0
    9.0860    4.2381    0.0000 H   0  0  0  0  0  0  0  0  0  0  0  0
    8.6874    3.5478    0.0000 H   0  0  0  0  0  0  0  0  0  0  0  0
   10.1516   -5.7613    0.0000 H   0  0  0  0  0  0  0  0  0  0  0  0
   11.0301    3.0355    0.0000 H   0  0  0  0  0  0  0  0  0  0  0  0
    9.6271    5.4655    0.0000 H   0  0  0  0  0  0  0  0  0  0  0  0
   12.4330    3.8455    0.0000 H   0  0  0  0  0  0  0  0  0  0  0  0
   11.0301    6.2755    0.0000 H   0  0  0  0  0  0  0  0  0  0  0  0
   12.4330    5.4655    0.0000 H   0  0  0  0  0  0  0  0  0  0  0  0
  1 22  1  0  0  0  0
  1 72  1  0  0  0  0
  2 22  2  0  0  0  0
  3  7  1  0  0  0  0
  3  8  1  0  0  0  0
  3 10  1  0  0  0  0
  4 11  1  0  0  0  0
  4 18  1  0  0  0  0
  4 19  1  0  0  0  0
  5  6  1  0  0  0  0
  5  7  1  0  0  0  0
  5 11  1  6  0  0  0
  5 37  1  0  0  0  0
  6  8  1  0  0  0  0
  6 17  1  1  0  0  0
  6 38  1  0  0  0  0
  7 39  1  0  0  0  0
  7 40  1  0  0  0  0
  8 41  1  0  0  0  0
  8 42  1  0  0  0  0
  9 12  1  0  0  0  0
  9 13  1  0  0  0  0
  9 14  1  0  0  0  0
  9 43  1  0  0  0  0
 10 12  1  6  0  0  0
 10 22  1  0  0  0  0
 10 44  1  0  0  0  0
 11 45  1  0  0  0  0
 11 46  1  0  0  0  0
 12 47  1  0  0  0  0
 12 48  1  0  0  0  0
 13 15  1  0  0  0  0
 13 49  1  0  0  0  0
 13 50  1  0  0  0  0
 14 15  1  0  0  0  0
 14 51  1  0  0  0  0
 14 52  1  0  0  0  0
 15 53  1  0  0  0  0
 15 54  1  0  0  0  0
 16 20  1  0  0  0  0
 16 21  1  0  0  0  0
 16 23  1  0  0  0  0
 16 55  1  0  0  0  0
 17 24  2  0  0  0  0
 17 25  1  0  0  0  0
 18 20  1  0  0  0  0
 18 56  1  0  0  0  0
 18 57  1  0  0  0  0
 19 21  1  0  0  0  0
 19 58  1  0  0  0  0
 19 59  1  0  0  0  0
 20 60  1  0  0  0  0
 20 61  1  0  0  0  0
 21 62  1  0  0  0  0
 21 63  1  0  0  0  0
 23 26  1  0  0  0  0
 23 64  1  0  0  0  0
 23 65  1  0  0  0  0
 24 27  1  0  0  0  0
 24 66  1  0  0  0  0
 25 28  2  0  0  0  0
 25 67  1  0  0  0  0
 26 29  1  0  0  0  0
 26 68  1  0  0  0  0
 26 69  1  0  0  0  0
 27 30  2  0  0  0  0
 27 70  1  0  0  0  0
 28 30  1  0  0  0  0
 28 71  1  0  0  0  0
 29 31  1  0  0  0  0
 29 73  1  0  0  0  0
 29 74  1  0  0  0  0
 30 75  1  0  0  0  0
 31 32  2  0  0  0  0
 31 33  1  0  0  0  0
 32 34  1  0  0  0  0
 32 76  1  0  0  0  0
 33 35  2  0  0  0  0
 33 77  1  0  0  0  0
 34 36  2  0  0  0  0
 34 78  1  0  0  0  0
 35 36  1  0  0  0  0
 35 79  1  0  0  0  0
 36 80  1  0  0  0  0
M  END
> <PUBCHEM_COMPOUND_CID>
501062
> <PUBCHEM_COMPOUND_CANONICALIZED>
1
> <PUBCHEM_CACTVS_COMPLEXITY>
659
> <PUBCHEM_CACTVS_HBOND_ACCEPTOR>
4
> <PUBCHEM_CACTVS_HBOND_DONOR>
1
> <PUBCHEM_CACTVS_ROTATABLE_BOND>
11
> <PUBCHEM_CACTVS_SUBSKEYS>
AAADcfB/MAAAAAAAAAAAAAAAAABgAWAAAAA8YIAAAAAAAAABQAAAHgAACAAADSjBmAQwCIMAAgCIAiDSCAACAAAgAAAIiAGIAIgKIDKA0TGEYAAkgACYiAeYyOCOgAAAAAAAAAAAAAAAAAAAAAAAAAAAAA==
> <PUBCHEM_IUPAC_OPENEYE_NAME>
(2R)-3-cyclobutyl-2-[(3S,4S)-3-phenyl-4-[[4-(3-phenylpropyl)-1-piperidyl]methyl]pyrrolidin-1-yl]propanoic acid
> <PUBCHEM_IUPAC_CAS_NAME>
(2R)-3-cyclobutyl-2-[(3S,4S)-3-phenyl-4-[[4-(3-phenylpropyl)-1-piperidinyl]methyl]-1-pyrrolidinyl]propanoic acid
> <PUBCHEM_IUPAC_NAME_MARKUP>
(2<I>R</I>)-3-cyclobutyl-2-[(3<I>S</I>,4<I>S</I>)-3-phenyl-4-[[4-(3-phenylpropyl)piperidin-1-yl]methyl]pyrrolidin-1-yl]propanoic acid
> <PUBCHEM_IUPAC_NAME>
(2R)-3-cyclobutyl-2-[(3S,4S)-3-phenyl-4-[[4-(3-phenylpropyl)piperidin-1-yl]methyl]pyrrolidin-1-yl]propanoic acid
> <PUBCHEM_IUPAC_SYSTEMATIC_NAME>
(2R)-3-cyclobutyl-2-[(3S,4S)-3-phenyl-4-[[4-(3-phenylpropyl)piperidin-1-yl]methyl]pyrrolidin-1-yl]propanoic acid
> <PUBCHEM_IUPAC_TRADITIONAL_NAME>
(2R)-3-cyclobutyl-2-[(3S,4S)-3-phenyl-4-[[4-(3-phenylpropyl)piperidino]methyl]pyrrolidino]propionic acid
> <PUBCHEM_IUPAC_INCHI>
InChI=1S/C32H44N2O2/c35-32(36)31(21-27-13-8-14-27)34-23-29(30(24-34)28-15-5-2-6-16-28)22-33-19-17-26(18-20-33)12-7-11-25-9-3-1-4-10-25/h1-6,9-10,15-16,26-27,29-31H,7-8,11-14,17-24H2,(H,35,36)/t29-,30+,31+/m0/s1
> <PUBCHEM_IUPAC_INCHIKEY>
CZNWHUFRZNZRGS-OJDZSJEKSA-N
> <PUBCHEM_XLOGP3_AA>
5.2
> <PUBCHEM_EXACT_MASS>
488.34027865
> <PUBCHEM_MOLECULAR_FORMULA>
C32H44N2O2
> <PUBCHEM_MOLECULAR_WEIGHT>
488.7
> <PUBCHEM_OPENEYE_CAN_SMILES>
C1CC(C1)CC(C(=O)O)N2CC(C(C2)C3=CC=CC=C3)CN4CCC(CC4)CCCC5=CC=CC=C5
> <PUBCHEM_OPENEYE_ISO_SMILES>
C1CC(C1)C[C@H](C(=O)O)N2C[C@@H]([C@H](C2)C3=CC=CC=C3)CN4CCC(CC4)CCCC5=CC=CC=C5
> <PUBCHEM_CACTVS_TPSA>
43.8
> <PUBCHEM_MONOISOTOPIC_WEIGHT>
488.34027865
> <PUBCHEM_TOTAL_CHARGE>
0
> <PUBCHEM_HEAVY_ATOM_COUNT>
36
> <PUBCHEM_ATOM_DEF_STEREO_COUNT>
3
> <PUBCHEM_ATOM_UDEF_STEREO_COUNT>
0
> <PUBCHEM_BOND_DEF_STEREO_COUNT>
0
> <PUBCHEM_BOND_UDEF_STEREO_COUNT>
0
> <PUBCHEM_ISOTOPIC_ATOM_COUNT>
0
> <PUBCHEM_COMPONENT_COUNT>
1
> <PUBCHEM_CACTVS_TAUTO_COUNT>
-1
> <PUBCHEM_COORDINATE_TYPE>
1
5
255
> <PUBCHEM_BONDANNOTATIONS>
10  12  6
17  24  8
17  25  8
24  27  8
25  28  8
27  30  8
28  30  8
31  32  8
31  33  8
32  34  8
33  35  8
34  36  8
35  36  8
5  11  6
6  17  5
$$$$
