501168
  -OEChem-10302200282D
 40 41  0     1  0  0  0  0  0999 V2000
    4.5981    0.6900    0.0000 S   0  0  0  0  0  0  0  0  0  0  0  0
    4.0981    1.5560    0.0000 O   0  0  0  0  0  0  0  0  0  0  0  0
    5.0981   -0.1760    0.0000 O   0  0  0  0  0  0  0  0  0  0  0  0
    2.0000    2.1900    0.0000 O   0  0  0  0  0  0  0  0  0  0  0  0
    3.7320    2.1900    0.0000 O   0  0  0  0  0  0  0  0  0  0  0  0
    6.3301   -0.3100    0.0000 O   0  5  0  0  0  0  0  0  0  0  0  0
    6.3301    0.6900    0.0000 N   0  3  0  0  0  0  0  0  0  0  0  0
    3.7320    0.1900    0.0000 C   0  0  3  0  0  0  0  0  0  0  0  0
    3.7320   -0.8100    0.0000 C   0  0  0  0  0  0  0  0  0  0  0  0
    2.8660    0.6900    0.0000 C   0  0  0  0  0  0  0  0  0  0  0  0
    2.8660   -1.3100    0.0000 C   0  0  0  0  0  0  0  0  0  0  0  0
    5.4641    1.1900    0.0000 C   0  0  0  0  0  0  0  0  0  0  0  0
    4.5981   -1.3100    0.0000 C   0  0  0  0  0  0  0  0  0  0  0  0
    4.5981   -2.3100    0.0000 C   0  0  0  0  0  0  0  0  0  0  0  0
    2.8660   -2.3100    0.0000 C   0  0  0  0  0  0  0  0  0  0  0  0
    2.8660    1.6900    0.0000 C   0  0  0  0  0  0  0  0  0  0  0  0
    2.0000   -0.8100    0.0000 C   0  0  0  0  0  0  0  0  0  0  0  0
    3.7320   -2.8100    0.0000 C   0  0  0  0  0  0  0  0  0  0  0  0
    5.4641    2.1900    0.0000 C   0  0  0  0  0  0  0  0  0  0  0  0
    5.4641   -2.8100    0.0000 C   0  0  0  0  0  0  0  0  0  0  0  0
    7.1962    1.1900    0.0000 C   0  0  0  0  0  0  0  0  0  0  0  0
    6.3301    2.6900    0.0000 C   0  0  0  0  0  0  0  0  0  0  0  0
    7.1962    2.1900    0.0000 C   0  0  0  0  0  0  0  0  0  0  0  0
    3.7320    0.8100    0.0000 H   0  0  0  0  0  0  0  0  0  0  0  0
    2.2554    0.7977    0.0000 H   0  0  0  0  0  0  0  0  0  0  0  0
    2.6540    0.1074    0.0000 H   0  0  0  0  0  0  0  0  0  0  0  0
    5.1350   -1.0000    0.0000 H   0  0  0  0  0  0  0  0  0  0  0  0
    2.3291   -2.6200    0.0000 H   0  0  0  0  0  0  0  0  0  0  0  0
    2.3100   -0.2731    0.0000 H   0  0  0  0  0  0  0  0  0  0  0  0
    1.4631   -0.5000    0.0000 H   0  0  0  0  0  0  0  0  0  0  0  0
    1.6900   -1.3469    0.0000 H   0  0  0  0  0  0  0  0  0  0  0  0
    3.7320   -3.4300    0.0000 H   0  0  0  0  0  0  0  0  0  0  0  0
    4.9272    2.5000    0.0000 H   0  0  0  0  0  0  0  0  0  0  0  0
    5.1541   -3.3469    0.0000 H   0  0  0  0  0  0  0  0  0  0  0  0
    6.0010   -3.1200    0.0000 H   0  0  0  0  0  0  0  0  0  0  0  0
    5.7741   -2.2731    0.0000 H   0  0  0  0  0  0  0  0  0  0  0  0
    7.7331    0.8800    0.0000 H   0  0  0  0  0  0  0  0  0  0  0  0
    6.3301    3.3100    0.0000 H   0  0  0  0  0  0  0  0  0  0  0  0
    7.7331    2.5000    0.0000 H   0  0  0  0  0  0  0  0  0  0  0  0
    2.0000    2.8100    0.0000 H   0  0  0  0  0  0  0  0  0  0  0  0
  1  2  2  0  0  0  0
  1  3  2  0  0  0  0
  1  8  1  0  0  0  0
  1 12  1  0  0  0  0
  4 16  1  0  0  0  0
  4 40  1  0  0  0  0
  5 16  2  0  0  0  0
  6  7  1  0  0  0  0
  7 12  1  0  0  0  0
  7 21  2  0  0  0  0
  8  9  1  0  0  0  0
  8 10  1  0  0  0  0
  8 24  1  0  0  0  0
  9 11  2  0  0  0  0
  9 13  1  0  0  0  0
 10 16  1  0  0  0  0
 10 25  1  0  0  0  0
 10 26  1  0  0  0  0
 11 15  1  0  0  0  0
 11 17  1  0  0  0  0
 12 19  2  0  0  0  0
 13 14  2  0  0  0  0
 13 27  1  0  0  0  0
 14 18  1  0  0  0  0
 14 20  1  0  0  0  0
 15 18  2  0  0  0  0
 15 28  1  0  0  0  0
 17 29  1  0  0  0  0
 17 30  1  0  0  0  0
 17 31  1  0  0  0  0
 18 32  1  0  0  0  0
 19 22  1  0  0  0  0
 19 33  1  0  0  0  0
 20 34  1  0  0  0  0
 20 35  1  0  0  0  0
 20 36  1  0  0  0  0
 21 23  1  0  0  0  0
 21 37  1  0  0  0  0
 22 23  2  0  0  0  0
 22 38  1  0  0  0  0
 23 39  1  0  0  0  0
M  CHG  2   6  -1   7   1
M  END
> <PUBCHEM_COMPOUND_CID>
501168
> <PUBCHEM_COMPOUND_CANONICALIZED>
1
> <PUBCHEM_CACTVS_COMPLEXITY>
515
> <PUBCHEM_CACTVS_HBOND_ACCEPTOR>
5
> <PUBCHEM_CACTVS_HBOND_DONOR>
1
> <PUBCHEM_CACTVS_ROTATABLE_BOND>
5
> <PUBCHEM_CACTVS_SUBSKEYS>
AAADceB6OABAAAAAAAAAAAAAAAAAAAAAAAA8QAAAAAAAAAABwAAAHgQECAAADADF2gS+iZIYEgqoAjD3THDK0CBxCjAo2Dk4ZJoIIPLgkZGEYAhkgADoyAeYyPCOwAACAAAQAACAAAQAACAAAAAAAAAAAA==
> <PUBCHEM_IUPAC_OPENEYE_NAME>
3-(2,5-dimethylphenyl)-3-(1-oxidopyridin-1-ium-2-yl)sulfonyl-propanoic acid
> <PUBCHEM_IUPAC_CAS_NAME>
3-(2,5-dimethylphenyl)-3-[(1-oxido-2-pyridin-1-iumyl)sulfonyl]propanoic acid
> <PUBCHEM_IUPAC_NAME_MARKUP>
3-(2,5-dimethylphenyl)-3-(1-oxidopyridin-1-ium-2-yl)sulfonylpropanoic acid
> <PUBCHEM_IUPAC_NAME>
3-(2,5-dimethylphenyl)-3-(1-oxidopyridin-1-ium-2-yl)sulfonylpropanoic acid
> <PUBCHEM_IUPAC_SYSTEMATIC_NAME>
3-(2,5-dimethylphenyl)-3-(1-oxidanidylpyridin-1-ium-2-yl)sulfonyl-propanoic acid
> <PUBCHEM_IUPAC_TRADITIONAL_NAME>
3-(2,5-dimethylphenyl)-3-(1-oxidopyridin-1-ium-2-yl)sulfonyl-propionic acid
> <PUBCHEM_IUPAC_INCHI>
InChI=1S/C16H17NO5S/c1-11-6-7-12(2)13(9-11)14(10-16(18)19)23(21,22)15-5-3-4-8-17(15)20/h3-9,14H,10H2,1-2H3,(H,18,19)
> <PUBCHEM_IUPAC_INCHIKEY>
DREPPDHTBMCVDP-UHFFFAOYSA-N
> <PUBCHEM_XLOGP3_AA>
1.2
> <PUBCHEM_EXACT_MASS>
335.08274382
> <PUBCHEM_MOLECULAR_FORMULA>
C16H17NO5S
> <PUBCHEM_MOLECULAR_WEIGHT>
335.4
> <PUBCHEM_OPENEYE_CAN_SMILES>
CC1=CC(=C(C=C1)C)C(CC(=O)O)S(=O)(=O)C2=CC=CC=[N+]2[O-]
> <PUBCHEM_OPENEYE_ISO_SMILES>
CC1=CC(=C(C=C1)C)C(CC(=O)O)S(=O)(=O)C2=CC=CC=[N+]2[O-]
> <PUBCHEM_CACTVS_TPSA>
105
> <PUBCHEM_MONOISOTOPIC_WEIGHT>
335.08274382
> <PUBCHEM_TOTAL_CHARGE>
0
> <PUBCHEM_HEAVY_ATOM_COUNT>
23
> <PUBCHEM_ATOM_DEF_STEREO_COUNT>
0
> <PUBCHEM_ATOM_UDEF_STEREO_COUNT>
1
> <PUBCHEM_BOND_DEF_STEREO_COUNT>
0
> <PUBCHEM_BOND_UDEF_STEREO_COUNT>
0
> <PUBCHEM_ISOTOPIC_ATOM_COUNT>
0
> <PUBCHEM_COMPONENT_COUNT>
1
> <PUBCHEM_CACTVS_TAUTO_COUNT>
-1
> <PUBCHEM_COORDINATE_TYPE>
1
5
255
> <PUBCHEM_BONDANNOTATIONS>
11  15  8
12  19  8
13  14  8
14  18  8
15  18  8
19  22  8
21  23  8
22  23  8
7  12  8
7  21  8
8  10  3
9  11  8
9  13  8
$$$$
