501140
  -OEChem-10302200282D
 33 34  0     1  0  0  0  0  0999 V2000
    2.0000   -0.7500    0.0000 Cl  0  0  0  0  0  0  0  0  0  0  0  0
    4.5981    0.7500    0.0000 S   0  0  3  0  0  0  0  0  0  0  0  0
    5.4641    0.2500    0.0000 O   0  0  0  0  0  0  0  0  0  0  0  0
    2.8660    1.7500    0.0000 O   0  5  0  0  0  0  0  0  0  0  0  0
    3.7320    2.2500    0.0000 N   0  3  0  0  0  0  0  0  0  0  0  0
    3.7320    0.2500    0.0000 C   0  0  3  0  0  0  0  0  0  0  0  0
    3.7320   -0.7500    0.0000 C   0  0  0  0  0  0  0  0  0  0  0  0
    2.8660    0.7500    0.0000 C   0  0  0  0  0  0  0  0  0  0  0  0
    2.8660   -1.2500    0.0000 C   0  0  0  0  0  0  0  0  0  0  0  0
    4.5981   -1.2500    0.0000 C   0  0  0  0  0  0  0  0  0  0  0  0
    4.5981    1.7500    0.0000 C   0  0  0  0  0  0  0  0  0  0  0  0
    3.7320   -2.7500    0.0000 C   0  0  0  0  0  0  0  0  0  0  0  0
    2.8660   -2.2500    0.0000 C   0  0  0  0  0  0  0  0  0  0  0  0
    4.5981   -2.2500    0.0000 C   0  0  0  0  0  0  0  0  0  0  0  0
    5.4641    2.2500    0.0000 C   0  0  0  0  0  0  0  0  0  0  0  0
    3.7320   -3.7500    0.0000 C   0  0  0  0  0  0  0  0  0  0  0  0
    3.7320    3.2500    0.0000 C   0  0  0  0  0  0  0  0  0  0  0  0
    5.4641    3.2500    0.0000 C   0  0  0  0  0  0  0  0  0  0  0  0
    4.5981    3.7500    0.0000 C   0  0  0  0  0  0  0  0  0  0  0  0
    3.7320    0.8700    0.0000 H   0  0  0  0  0  0  0  0  0  0  0  0
    3.1760    1.2869    0.0000 H   0  0  0  0  0  0  0  0  0  0  0  0
    2.3291    1.0600    0.0000 H   0  0  0  0  0  0  0  0  0  0  0  0
    2.5560    0.2131    0.0000 H   0  0  0  0  0  0  0  0  0  0  0  0
    5.1350   -0.9400    0.0000 H   0  0  0  0  0  0  0  0  0  0  0  0
    2.3291   -2.5600    0.0000 H   0  0  0  0  0  0  0  0  0  0  0  0
    5.1350   -2.5600    0.0000 H   0  0  0  0  0  0  0  0  0  0  0  0
    6.0010    1.9400    0.0000 H   0  0  0  0  0  0  0  0  0  0  0  0
    3.1120   -3.7500    0.0000 H   0  0  0  0  0  0  0  0  0  0  0  0
    3.7320   -4.3700    0.0000 H   0  0  0  0  0  0  0  0  0  0  0  0
    4.3520   -3.7500    0.0000 H   0  0  0  0  0  0  0  0  0  0  0  0
    3.1951    3.5600    0.0000 H   0  0  0  0  0  0  0  0  0  0  0  0
    6.0010    3.5600    0.0000 H   0  0  0  0  0  0  0  0  0  0  0  0
    4.5981    4.3700    0.0000 H   0  0  0  0  0  0  0  0  0  0  0  0
  1  9  1  0  0  0  0
  2  3  2  0  0  0  0
  2  6  1  0  0  0  0
  2 11  1  0  0  0  0
  4  5  1  0  0  0  0
  5 11  1  0  0  0  0
  5 17  2  0  0  0  0
  6  7  1  0  0  0  0
  6  8  1  0  0  0  0
  6 20  1  0  0  0  0
  7  9  2  0  0  0  0
  7 10  1  0  0  0  0
  8 21  1  0  0  0  0
  8 22  1  0  0  0  0
  8 23  1  0  0  0  0
  9 13  1  0  0  0  0
 10 14  2  0  0  0  0
 10 24  1  0  0  0  0
 11 15  2  0  0  0  0
 12 13  2  0  0  0  0
 12 14  1  0  0  0  0
 12 16  1  0  0  0  0
 13 25  1  0  0  0  0
 14 26  1  0  0  0  0
 15 18  1  0  0  0  0
 15 27  1  0  0  0  0
 16 28  1  0  0  0  0
 16 29  1  0  0  0  0
 16 30  1  0  0  0  0
 17 19  1  0  0  0  0
 17 31  1  0  0  0  0
 18 19  2  0  0  0  0
 18 32  1  0  0  0  0
 19 33  1  0  0  0  0
M  CHG  2   4  -1   5   1
M  END
> <PUBCHEM_COMPOUND_CID>
501140
> <PUBCHEM_COMPOUND_CANONICALIZED>
1
> <PUBCHEM_CACTVS_COMPLEXITY>
329
> <PUBCHEM_CACTVS_HBOND_ACCEPTOR>
3
> <PUBCHEM_CACTVS_HBOND_DONOR>
0
> <PUBCHEM_CACTVS_ROTATABLE_BOND>
3
> <PUBCHEM_CACTVS_SUBSKEYS>
AAADccByMABEAAAAAAAAAAAAAAAAAAAAAAA8QAAAAAAAAAABwAAAHAYEAAAADALFWiS+gZIYEAqgAjBnREDK0CBxDzAo2Dg4ZpoIIOLhk5GEIAhggADoyAcQgMAOQAAAIAABAACAAABAAAIAAAAAAAAAAA==
> <PUBCHEM_IUPAC_OPENEYE_NAME>
2-[1-(2-chloro-4-methyl-phenyl)ethylsulfinyl]-1-oxido-pyridin-1-ium
> <PUBCHEM_IUPAC_CAS_NAME>
2-[1-(2-chloro-4-methylphenyl)ethylsulfinyl]-1-oxidopyridin-1-ium
> <PUBCHEM_IUPAC_NAME_MARKUP>
2-[1-(2-chloro-4-methylphenyl)ethylsulfinyl]-1-oxidopyridin-1-ium
> <PUBCHEM_IUPAC_NAME>
2-[1-(2-chloro-4-methylphenyl)ethylsulfinyl]-1-oxidopyridin-1-ium
> <PUBCHEM_IUPAC_SYSTEMATIC_NAME>
2-[1-(2-chloranyl-4-methyl-phenyl)ethylsulfinyl]-1-oxidanidyl-pyridin-1-ium
> <PUBCHEM_IUPAC_TRADITIONAL_NAME>
2-[1-(2-chloro-4-methyl-phenyl)ethylsulfinyl]-1-oxido-pyridin-1-ium
> <PUBCHEM_IUPAC_INCHI>
InChI=1S/C14H14ClNO2S/c1-10-6-7-12(13(15)9-10)11(2)19(18)14-5-3-4-8-16(14)17/h3-9,11H,1-2H3
> <PUBCHEM_IUPAC_INCHIKEY>
DYVQYKNWPZKSFJ-UHFFFAOYSA-N
> <PUBCHEM_XLOGP3_AA>
2.3
> <PUBCHEM_EXACT_MASS>
295.0433776
> <PUBCHEM_MOLECULAR_FORMULA>
C14H14ClNO2S
> <PUBCHEM_MOLECULAR_WEIGHT>
295.8
> <PUBCHEM_OPENEYE_CAN_SMILES>
CC1=CC(=C(C=C1)C(C)S(=O)C2=CC=CC=[N+]2[O-])Cl
> <PUBCHEM_OPENEYE_ISO_SMILES>
CC1=CC(=C(C=C1)C(C)S(=O)C2=CC=CC=[N+]2[O-])Cl
> <PUBCHEM_CACTVS_TPSA>
61.7
> <PUBCHEM_MONOISOTOPIC_WEIGHT>
295.0433776
> <PUBCHEM_TOTAL_CHARGE>
0
> <PUBCHEM_HEAVY_ATOM_COUNT>
19
> <PUBCHEM_ATOM_DEF_STEREO_COUNT>
0
> <PUBCHEM_ATOM_UDEF_STEREO_COUNT>
2
> <PUBCHEM_BOND_DEF_STEREO_COUNT>
0
> <PUBCHEM_BOND_UDEF_STEREO_COUNT>
0
> <PUBCHEM_ISOTOPIC_ATOM_COUNT>
0
> <PUBCHEM_COMPONENT_COUNT>
1
> <PUBCHEM_CACTVS_TAUTO_COUNT>
-1
> <PUBCHEM_COORDINATE_TYPE>
1
5
255
> <PUBCHEM_BONDANNOTATIONS>
10  14  8
11  15  8
12  13  8
12  14  8
15  18  8
17  19  8
18  19  8
2  11  3
5  11  8
5  17  8
6  8  3
7  10  8
7  9  8
9  13  8
$$$$
