501139
  -OEChem-10302200282D
 33 34  0     1  0  0  0  0  0999 V2000
    2.0000   -0.7500    0.0000 Cl  0  0  0  0  0  0  0  0  0  0  0  0
    3.7320   -3.7500    0.0000 Cl  0  0  0  0  0  0  0  0  0  0  0  0
    4.5981    0.7500    0.0000 S   0  0  3  0  0  0  0  0  0  0  0  0
    5.4641    0.2500    0.0000 O   0  0  0  0  0  0  0  0  0  0  0  0
    2.8660    1.7500    0.0000 O   0  5  0  0  0  0  0  0  0  0  0  0
    3.7320    2.2500    0.0000 N   0  3  0  0  0  0  0  0  0  0  0  0
    3.7320    0.2500    0.0000 C   0  0  3  0  0  0  0  0  0  0  0  0
    3.7320   -0.7500    0.0000 C   0  0  0  0  0  0  0  0  0  0  0  0
    2.8660    0.7500    0.0000 C   0  0  0  0  0  0  0  0  0  0  0  0
    2.8660   -1.2500    0.0000 C   0  0  0  0  0  0  0  0  0  0  0  0
    4.5981   -1.2500    0.0000 C   0  0  0  0  0  0  0  0  0  0  0  0
    4.5981    1.7500    0.0000 C   0  0  0  0  0  0  0  0  0  0  0  0
    2.8660   -2.2500    0.0000 C   0  0  0  0  0  0  0  0  0  0  0  0
    4.5981   -2.2500    0.0000 C   0  0  0  0  0  0  0  0  0  0  0  0
    3.7320   -2.7500    0.0000 C   0  0  0  0  0  0  0  0  0  0  0  0
    5.4641    2.2500    0.0000 C   0  0  0  0  0  0  0  0  0  0  0  0
    2.0000   -2.7500    0.0000 C   0  0  0  0  0  0  0  0  0  0  0  0
    3.7320    3.2500    0.0000 C   0  0  0  0  0  0  0  0  0  0  0  0
    5.4641    3.2500    0.0000 C   0  0  0  0  0  0  0  0  0  0  0  0
    4.5981    3.7500    0.0000 C   0  0  0  0  0  0  0  0  0  0  0  0
    3.7320    0.8700    0.0000 H   0  0  0  0  0  0  0  0  0  0  0  0
    3.1760    1.2869    0.0000 H   0  0  0  0  0  0  0  0  0  0  0  0
    2.3291    1.0600    0.0000 H   0  0  0  0  0  0  0  0  0  0  0  0
    2.5560    0.2131    0.0000 H   0  0  0  0  0  0  0  0  0  0  0  0
    5.1350   -0.9400    0.0000 H   0  0  0  0  0  0  0  0  0  0  0  0
    5.1350   -2.5600    0.0000 H   0  0  0  0  0  0  0  0  0  0  0  0
    6.0010    1.9400    0.0000 H   0  0  0  0  0  0  0  0  0  0  0  0
    1.6900   -2.2131    0.0000 H   0  0  0  0  0  0  0  0  0  0  0  0
    1.4631   -3.0600    0.0000 H   0  0  0  0  0  0  0  0  0  0  0  0
    2.3100   -3.2869    0.0000 H   0  0  0  0  0  0  0  0  0  0  0  0
    3.1951    3.5600    0.0000 H   0  0  0  0  0  0  0  0  0  0  0  0
    6.0010    3.5600    0.0000 H   0  0  0  0  0  0  0  0  0  0  0  0
    4.5981    4.3700    0.0000 H   0  0  0  0  0  0  0  0  0  0  0  0
  1 10  1  0  0  0  0
  2 15  1  0  0  0  0
  3  4  2  0  0  0  0
  3  7  1  0  0  0  0
  3 12  1  0  0  0  0
  5  6  1  0  0  0  0
  6 12  1  0  0  0  0
  6 18  2  0  0  0  0
  7  8  1  0  0  0  0
  7  9  1  0  0  0  0
  7 21  1  0  0  0  0
  8 10  2  0  0  0  0
  8 11  1  0  0  0  0
  9 22  1  0  0  0  0
  9 23  1  0  0  0  0
  9 24  1  0  0  0  0
 10 13  1  0  0  0  0
 11 14  2  0  0  0  0
 11 25  1  0  0  0  0
 12 16  2  0  0  0  0
 13 15  2  0  0  0  0
 13 17  1  0  0  0  0
 14 15  1  0  0  0  0
 14 26  1  0  0  0  0
 16 19  1  0  0  0  0
 16 27  1  0  0  0  0
 17 28  1  0  0  0  0
 17 29  1  0  0  0  0
 17 30  1  0  0  0  0
 18 20  1  0  0  0  0
 18 31  1  0  0  0  0
 19 20  2  0  0  0  0
 19 32  1  0  0  0  0
 20 33  1  0  0  0  0
M  CHG  2   5  -1   6   1
M  END
> <PUBCHEM_COMPOUND_CID>
501139
> <PUBCHEM_COMPOUND_CANONICALIZED>
1
> <PUBCHEM_CACTVS_COMPLEXITY>
358
> <PUBCHEM_CACTVS_HBOND_ACCEPTOR>
3
> <PUBCHEM_CACTVS_HBOND_DONOR>
0
> <PUBCHEM_CACTVS_ROTATABLE_BOND>
3
> <PUBCHEM_CACTVS_SUBSKEYS>
AAADccByMABGAAAAAAAAAAAAAAAAAAAAAAA8QAAAAAAAAAABwAAAHAYEAAAADALFWiS+gZIYEAqgAjBnREDK0CBxDzAo2Dg4ZpoIIOLhk5GEIAhggADoyAcQgMAOBAACAACBAAAIAAQAAQIAAAAAAAAAAA==
> <PUBCHEM_IUPAC_OPENEYE_NAME>
2-[1-(2,4-dichloro-3-methyl-phenyl)ethylsulfinyl]-1-oxido-pyridin-1-ium
> <PUBCHEM_IUPAC_CAS_NAME>
2-[1-(2,4-dichloro-3-methylphenyl)ethylsulfinyl]-1-oxidopyridin-1-ium
> <PUBCHEM_IUPAC_NAME_MARKUP>
2-[1-(2,4-dichloro-3-methylphenyl)ethylsulfinyl]-1-oxidopyridin-1-ium
> <PUBCHEM_IUPAC_NAME>
2-[1-(2,4-dichloro-3-methylphenyl)ethylsulfinyl]-1-oxidopyridin-1-ium
> <PUBCHEM_IUPAC_SYSTEMATIC_NAME>
2-[1-[2,4-bis(chloranyl)-3-methyl-phenyl]ethylsulfinyl]-1-oxidanidyl-pyridin-1-ium
> <PUBCHEM_IUPAC_TRADITIONAL_NAME>
2-[1-(2,4-dichloro-3-methyl-phenyl)ethylsulfinyl]-1-oxido-pyridin-1-ium
> <PUBCHEM_IUPAC_INCHI>
InChI=1S/C14H13Cl2NO2S/c1-9-12(15)7-6-11(14(9)16)10(2)20(19)13-5-3-4-8-17(13)18/h3-8,10H,1-2H3
> <PUBCHEM_IUPAC_INCHIKEY>
WFUCKLGQXKJTAC-UHFFFAOYSA-N
> <PUBCHEM_XLOGP3_AA>
2.9
> <PUBCHEM_EXACT_MASS>
329.0044052
> <PUBCHEM_MOLECULAR_FORMULA>
C14H13Cl2NO2S
> <PUBCHEM_MOLECULAR_WEIGHT>
330.2
> <PUBCHEM_OPENEYE_CAN_SMILES>
CC1=C(C=CC(=C1Cl)C(C)S(=O)C2=CC=CC=[N+]2[O-])Cl
> <PUBCHEM_OPENEYE_ISO_SMILES>
CC1=C(C=CC(=C1Cl)C(C)S(=O)C2=CC=CC=[N+]2[O-])Cl
> <PUBCHEM_CACTVS_TPSA>
61.7
> <PUBCHEM_MONOISOTOPIC_WEIGHT>
329.0044052
> <PUBCHEM_TOTAL_CHARGE>
0
> <PUBCHEM_HEAVY_ATOM_COUNT>
20
> <PUBCHEM_ATOM_DEF_STEREO_COUNT>
0
> <PUBCHEM_ATOM_UDEF_STEREO_COUNT>
2
> <PUBCHEM_BOND_DEF_STEREO_COUNT>
0
> <PUBCHEM_BOND_UDEF_STEREO_COUNT>
0
> <PUBCHEM_ISOTOPIC_ATOM_COUNT>
0
> <PUBCHEM_COMPONENT_COUNT>
1
> <PUBCHEM_CACTVS_TAUTO_COUNT>
-1
> <PUBCHEM_COORDINATE_TYPE>
1
5
255
> <PUBCHEM_BONDANNOTATIONS>
10  13  8
11  14  8
12  16  8
13  15  8
14  15  8
16  19  8
18  20  8
19  20  8
3  12  3
6  12  8
6  18  8
7  9  3
8  10  8
8  11  8
$$$$
