501151
  -OEChem-10302200282D
 53 54  0     1  0  0  0  0  0999 V2000
    8.9282    0.2500    0.0000 S   0  0  0  0  0  0  0  0  0  0  0  0
    7.1962    1.2500    0.0000 O   0  5  0  0  0  0  0  0  0  0  0  0
    8.0622    1.7500    0.0000 N   0  3  0  0  0  0  0  0  0  0  0  0
    7.1962    0.2500    0.0000 C   0  0  0  0  0  0  0  0  0  0  0  0
    6.3301   -0.2500    0.0000 C   0  0  0  0  0  0  0  0  0  0  0  0
    8.0622   -0.2500    0.0000 C   0  0  3  0  0  0  0  0  0  0  0  0
    5.4641    0.2500    0.0000 C   0  0  0  0  0  0  0  0  0  0  0  0
    4.5981   -0.2500    0.0000 C   0  0  0  0  0  0  0  0  0  0  0  0
    8.0622   -1.2500    0.0000 C   0  0  0  0  0  0  0  0  0  0  0  0
    3.7320    0.2500    0.0000 C   0  0  0  0  0  0  0  0  0  0  0  0
    7.1962   -1.7500    0.0000 C   0  0  0  0  0  0  0  0  0  0  0  0
    2.8660   -0.2500    0.0000 C   0  0  0  0  0  0  0  0  0  0  0  0
    8.9282   -1.7500    0.0000 C   0  0  0  0  0  0  0  0  0  0  0  0
    8.9282   -2.7500    0.0000 C   0  0  0  0  0  0  0  0  0  0  0  0
    7.1962   -2.7500    0.0000 C   0  0  0  0  0  0  0  0  0  0  0  0
    6.3301   -1.2500    0.0000 C   0  0  0  0  0  0  0  0  0  0  0  0
    8.0622   -3.2500    0.0000 C   0  0  0  0  0  0  0  0  0  0  0  0
    2.0000    0.2500    0.0000 C   0  0  0  0  0  0  0  0  0  0  0  0
    8.9282    1.2500    0.0000 C   0  0  0  0  0  0  0  0  0  0  0  0
    9.7942   -3.2500    0.0000 C   0  0  0  0  0  0  0  0  0  0  0  0
    9.7942    1.7500    0.0000 C   0  0  0  0  0  0  0  0  0  0  0  0
    8.0622    2.7500    0.0000 C   0  0  0  0  0  0  0  0  0  0  0  0
    9.7942    2.7500    0.0000 C   0  0  0  0  0  0  0  0  0  0  0  0
    8.9282    3.2500    0.0000 C   0  0  0  0  0  0  0  0  0  0  0  0
    7.5947    0.7249    0.0000 H   0  0  0  0  0  0  0  0  0  0  0  0
    6.7976    0.7249    0.0000 H   0  0  0  0  0  0  0  0  0  0  0  0
    5.9316   -0.7249    0.0000 H   0  0  0  0  0  0  0  0  0  0  0  0
    6.7287   -0.7249    0.0000 H   0  0  0  0  0  0  0  0  0  0  0  0
    8.0622    0.3700    0.0000 H   0  0  0  0  0  0  0  0  0  0  0  0
    5.8626    0.7249    0.0000 H   0  0  0  0  0  0  0  0  0  0  0  0
    5.0656    0.7249    0.0000 H   0  0  0  0  0  0  0  0  0  0  0  0
    4.1996   -0.7249    0.0000 H   0  0  0  0  0  0  0  0  0  0  0  0
    4.9966   -0.7249    0.0000 H   0  0  0  0  0  0  0  0  0  0  0  0
    4.1306    0.7249    0.0000 H   0  0  0  0  0  0  0  0  0  0  0  0
    3.3335    0.7249    0.0000 H   0  0  0  0  0  0  0  0  0  0  0  0
    2.4675   -0.7249    0.0000 H   0  0  0  0  0  0  0  0  0  0  0  0
    3.2646   -0.7249    0.0000 H   0  0  0  0  0  0  0  0  0  0  0  0
    9.4651   -1.4400    0.0000 H   0  0  0  0  0  0  0  0  0  0  0  0
    6.6592   -3.0600    0.0000 H   0  0  0  0  0  0  0  0  0  0  0  0
    6.6401   -0.7131    0.0000 H   0  0  0  0  0  0  0  0  0  0  0  0
    5.7932   -0.9400    0.0000 H   0  0  0  0  0  0  0  0  0  0  0  0
    6.0201   -1.7869    0.0000 H   0  0  0  0  0  0  0  0  0  0  0  0
    8.0622   -3.8700    0.0000 H   0  0  0  0  0  0  0  0  0  0  0  0
    2.3100    0.7869    0.0000 H   0  0  0  0  0  0  0  0  0  0  0  0
    1.4631    0.5600    0.0000 H   0  0  0  0  0  0  0  0  0  0  0  0
    1.6900   -0.2869    0.0000 H   0  0  0  0  0  0  0  0  0  0  0  0
    9.4842   -3.7869    0.0000 H   0  0  0  0  0  0  0  0  0  0  0  0
   10.3312   -3.5600    0.0000 H   0  0  0  0  0  0  0  0  0  0  0  0
   10.1042   -2.7131    0.0000 H   0  0  0  0  0  0  0  0  0  0  0  0
   10.3312    1.4400    0.0000 H   0  0  0  0  0  0  0  0  0  0  0  0
    7.5252    3.0600    0.0000 H   0  0  0  0  0  0  0  0  0  0  0  0
   10.3312    3.0600    0.0000 H   0  0  0  0  0  0  0  0  0  0  0  0
    8.9282    3.8700    0.0000 H   0  0  0  0  0  0  0  0  0  0  0  0
  1  6  1  0  0  0  0
  1 19  1  0  0  0  0
  2  3  1  0  0  0  0
  3 19  1  0  0  0  0
  3 22  2  0  0  0  0
  4  5  1  0  0  0  0
  4  6  1  0  0  0  0
  4 25  1  0  0  0  0
  4 26  1  0  0  0  0
  5  7  1  0  0  0  0
  5 27  1  0  0  0  0
  5 28  1  0  0  0  0
  6  9  1  0  0  0  0
  6 29  1  0  0  0  0
  7  8  1  0  0  0  0
  7 30  1  0  0  0  0
  7 31  1  0  0  0  0
  8 10  1  0  0  0  0
  8 32  1  0  0  0  0
  8 33  1  0  0  0  0
  9 11  2  0  0  0  0
  9 13  1  0  0  0  0
 10 12  1  0  0  0  0
 10 34  1  0  0  0  0
 10 35  1  0  0  0  0
 11 15  1  0  0  0  0
 11 16  1  0  0  0  0
 12 18  1  0  0  0  0
 12 36  1  0  0  0  0
 12 37  1  0  0  0  0
 13 14  2  0  0  0  0
 13 38  1  0  0  0  0
 14 17  1  0  0  0  0
 14 20  1  0  0  0  0
 15 17  2  0  0  0  0
 15 39  1  0  0  0  0
 16 40  1  0  0  0  0
 16 41  1  0  0  0  0
 16 42  1  0  0  0  0
 17 43  1  0  0  0  0
 18 44  1  0  0  0  0
 18 45  1  0  0  0  0
 18 46  1  0  0  0  0
 19 21  2  0  0  0  0
 20 47  1  0  0  0  0
 20 48  1  0  0  0  0
 20 49  1  0  0  0  0
 21 23  1  0  0  0  0
 21 50  1  0  0  0  0
 22 24  1  0  0  0  0
 22 51  1  0  0  0  0
 23 24  2  0  0  0  0
 23 52  1  0  0  0  0
 24 53  1  0  0  0  0
M  CHG  2   2  -1   3   1
M  END
> <PUBCHEM_COMPOUND_CID>
501151
> <PUBCHEM_COMPOUND_CANONICALIZED>
1
> <PUBCHEM_CACTVS_COMPLEXITY>
338
> <PUBCHEM_CACTVS_HBOND_ACCEPTOR>
2
> <PUBCHEM_CACTVS_HBOND_DONOR>
0
> <PUBCHEM_CACTVS_ROTATABLE_BOND>
9
> <PUBCHEM_CACTVS_SUBSKEYS>
AAADceB6IABAAAAAAAAAAAAAAAAAAAAAAAA8QAAAAAAAAAABwAAAHAQEAAAADADFWgS+gZIYEAigAjBnRACC0CBxCjAo2Dg4ZJoIIOLgkZGEIAhggADoyAcQgMAOwAACAAAQAACAAAQAACAAAAAAAAAAAA==
> <PUBCHEM_IUPAC_OPENEYE_NAME>
2-[1-(2,5-dimethylphenyl)octylsulfanyl]-1-oxido-pyridin-1-ium
> <PUBCHEM_IUPAC_CAS_NAME>
2-[1-(2,5-dimethylphenyl)octylthio]-1-oxidopyridin-1-ium
> <PUBCHEM_IUPAC_NAME_MARKUP>
2-[1-(2,5-dimethylphenyl)octylsulfanyl]-1-oxidopyridin-1-ium
> <PUBCHEM_IUPAC_NAME>
2-[1-(2,5-dimethylphenyl)octylsulfanyl]-1-oxidopyridin-1-ium
> <PUBCHEM_IUPAC_SYSTEMATIC_NAME>
2-[1-(2,5-dimethylphenyl)octylsulfanyl]-1-oxidanidyl-pyridin-1-ium
> <PUBCHEM_IUPAC_TRADITIONAL_NAME>
2-[1-(2,5-dimethylphenyl)octylthio]-1-oxido-pyridin-1-ium
> <PUBCHEM_IUPAC_INCHI>
InChI=1S/C21H29NOS/c1-4-5-6-7-8-11-20(19-16-17(2)13-14-18(19)3)24-21-12-9-10-15-22(21)23/h9-10,12-16,20H,4-8,11H2,1-3H3
> <PUBCHEM_IUPAC_INCHIKEY>
RHAJSJDCKAOSTB-UHFFFAOYSA-N
> <PUBCHEM_XLOGP3_AA>
6.4
> <PUBCHEM_EXACT_MASS>
343.19698572
> <PUBCHEM_MOLECULAR_FORMULA>
C21H29NOS
> <PUBCHEM_MOLECULAR_WEIGHT>
343.5
> <PUBCHEM_OPENEYE_CAN_SMILES>
CCCCCCCC(C1=C(C=CC(=C1)C)C)SC2=CC=CC=[N+]2[O-]
> <PUBCHEM_OPENEYE_ISO_SMILES>
CCCCCCCC(C1=C(C=CC(=C1)C)C)SC2=CC=CC=[N+]2[O-]
> <PUBCHEM_CACTVS_TPSA>
50.8
> <PUBCHEM_MONOISOTOPIC_WEIGHT>
343.19698572
> <PUBCHEM_TOTAL_CHARGE>
0
> <PUBCHEM_HEAVY_ATOM_COUNT>
24
> <PUBCHEM_ATOM_DEF_STEREO_COUNT>
0
> <PUBCHEM_ATOM_UDEF_STEREO_COUNT>
1
> <PUBCHEM_BOND_DEF_STEREO_COUNT>
0
> <PUBCHEM_BOND_UDEF_STEREO_COUNT>
0
> <PUBCHEM_ISOTOPIC_ATOM_COUNT>
0
> <PUBCHEM_COMPONENT_COUNT>
1
> <PUBCHEM_CACTVS_TAUTO_COUNT>
-1
> <PUBCHEM_COORDINATE_TYPE>
1
5
255
> <PUBCHEM_BONDANNOTATIONS>
11  15  8
13  14  8
14  17  8
15  17  8
19  21  8
21  23  8
22  24  8
23  24  8
3  19  8
3  22  8
6  4  3
9  11  8
9  13  8
$$$$
