501257
  -OEChem-10302200282D
113113  0     1  0  0  0  0  0999 V2000
   12.0632   -8.4050    0.0000 O   0  0  0  0  0  0  0  0  0  0  0  0
   13.7953   -8.4050    0.0000 O   0  0  0  0  0  0  0  0  0  0  0  0
   13.7953  -10.4050    0.0000 O   0  0  0  0  0  0  0  0  0  0  0  0
   12.0632  -11.4050    0.0000 O   0  0  0  0  0  0  0  0  0  0  0  0
   10.3312  -10.4050    0.0000 O   0  0  0  0  0  0  0  0  0  0  0  0
   10.3312   -7.4050    0.0000 O   0  0  0  0  0  0  0  0  0  0  0  0
   16.3933   -6.9050    0.0000 O   0  0  0  0  0  0  0  0  0  0  0  0
    2.5369    9.0950    0.0000 O   0  0  0  0  0  0  0  0  0  0  0  0
   10.3312    0.5950    0.0000 O   0  0  0  0  0  0  0  0  0  0  0  0
   14.6613   -5.9050    0.0000 N   0  0  0  0  0  0  0  0  0  0  0  0
    2.5369   11.0950    0.0000 N   0  0  0  0  0  0  0  0  0  0  0  0
   12.9292   -9.9050    0.0000 C   0  0  2  0  0  0  0  0  0  0  0  0
   12.0632  -10.4050    0.0000 C   0  0  2  0  0  0  0  0  0  0  0  0
   12.9292   -8.9050    0.0000 C   0  0  1  0  0  0  0  0  0  0  0  0
   11.1972   -9.9050    0.0000 C   0  0  1  0  0  0  0  0  0  0  0  0
   11.1972   -8.9050    0.0000 C   0  0  1  0  0  0  0  0  0  0  0  0
   13.7953   -7.4050    0.0000 C   0  0  2  0  0  0  0  0  0  0  0  0
   12.9292   -6.9050    0.0000 C   0  0  0  0  0  0  0  0  0  0  0  0
   14.6613   -6.9050    0.0000 C   0  0  2  0  0  0  0  0  0  0  0  0
   12.9292   -5.9050    0.0000 C   0  0  0  0  0  0  0  0  0  0  0  0
   10.3312   -8.4050    0.0000 C   0  0  0  0  0  0  0  0  0  0  0  0
   12.0632   -5.4050    0.0000 C   0  0  0  0  0  0  0  0  0  0  0  0
   12.0632   -4.4050    0.0000 C   0  0  0  0  0  0  0  0  0  0  0  0
   15.5273   -7.4050    0.0000 C   0  0  0  0  0  0  0  0  0  0  0  0
   11.1972   -3.9050    0.0000 C   0  0  0  0  0  0  0  0  0  0  0  0
   11.1972   -2.9050    0.0000 C   0  0  0  0  0  0  0  0  0  0  0  0
   10.3312   -2.4050    0.0000 C   0  0  0  0  0  0  0  0  0  0  0  0
   10.3312   -1.4050    0.0000 C   0  0  0  0  0  0  0  0  0  0  0  0
    6.0010    6.0950    0.0000 C   0  0  0  0  0  0  0  0  0  0  0  0
    6.0010    5.0950    0.0000 C   0  0  0  0  0  0  0  0  0  0  0  0
    5.1350    6.5950    0.0000 C   0  0  0  0  0  0  0  0  0  0  0  0
    6.8671    4.5950    0.0000 C   0  0  0  0  0  0  0  0  0  0  0  0
    5.1350    7.5950    0.0000 C   0  0  0  0  0  0  0  0  0  0  0  0
    6.8671    3.5950    0.0000 C   0  0  0  0  0  0  0  0  0  0  0  0
    7.7331    3.0950    0.0000 C   0  0  0  0  0  0  0  0  0  0  0  0
    4.2690    8.0950    0.0000 C   0  0  0  0  0  0  0  0  0  0  0  0
    7.7331    2.0950    0.0000 C   0  0  0  0  0  0  0  0  0  0  0  0
    9.4651   -0.9050    0.0000 C   0  0  0  0  0  0  0  0  0  0  0  0
    4.2690    9.0950    0.0000 C   0  0  0  0  0  0  0  0  0  0  0  0
    8.5991    1.5950    0.0000 C   0  0  0  0  0  0  0  0  0  0  0  0
    3.4030    9.5950    0.0000 C   0  0  2  0  0  0  0  0  0  0  0  0
    8.5991    0.5950    0.0000 C   0  0  0  0  0  0  0  0  0  0  0  0
    9.4651    0.0950    0.0000 C   0  0  0  0  0  0  0  0  0  0  0  0
    3.4030   10.5950    0.0000 C   0  0  1  0  0  0  0  0  0  0  0  0
    4.2690   11.0950    0.0000 C   0  0  0  0  0  0  0  0  0  0  0  0
   12.9292  -10.5250    0.0000 H   0  0  0  0  0  0  0  0  0  0  0  0
   12.6002  -10.7150    0.0000 H   0  0  0  0  0  0  0  0  0  0  0  0
   13.4662   -9.2150    0.0000 H   0  0  0  0  0  0  0  0  0  0  0  0
   11.1972  -10.5250    0.0000 H   0  0  0  0  0  0  0  0  0  0  0  0
   11.1972   -8.2850    0.0000 H   0  0  0  0  0  0  0  0  0  0  0  0
   13.2583   -7.7150    0.0000 H   0  0  0  0  0  0  0  0  0  0  0  0
   12.3187   -6.7973    0.0000 H   0  0  0  0  0  0  0  0  0  0  0  0
   12.7172   -7.4876    0.0000 H   0  0  0  0  0  0  0  0  0  0  0  0
   15.1982   -6.5950    0.0000 H   0  0  0  0  0  0  0  0  0  0  0  0
   13.5398   -6.0127    0.0000 H   0  0  0  0  0  0  0  0  0  0  0  0
   13.1413   -5.3224    0.0000 H   0  0  0  0  0  0  0  0  0  0  0  0
    9.7206   -8.2973    0.0000 H   0  0  0  0  0  0  0  0  0  0  0  0
   10.1191   -8.9876    0.0000 H   0  0  0  0  0  0  0  0  0  0  0  0
   11.4526   -5.2973    0.0000 H   0  0  0  0  0  0  0  0  0  0  0  0
   11.8512   -5.9876    0.0000 H   0  0  0  0  0  0  0  0  0  0  0  0
   12.6738   -4.5127    0.0000 H   0  0  0  0  0  0  0  0  0  0  0  0
   12.2753   -3.8224    0.0000 H   0  0  0  0  0  0  0  0  0  0  0  0
   13.7953  -11.0250    0.0000 H   0  0  0  0  0  0  0  0  0  0  0  0
   15.1288   -7.8800    0.0000 H   0  0  0  0  0  0  0  0  0  0  0  0
   15.9258   -7.8800    0.0000 H   0  0  0  0  0  0  0  0  0  0  0  0
   11.5263  -11.7150    0.0000 H   0  0  0  0  0  0  0  0  0  0  0  0
    9.7942  -10.0950    0.0000 H   0  0  0  0  0  0  0  0  0  0  0  0
   10.5866   -3.7973    0.0000 H   0  0  0  0  0  0  0  0  0  0  0  0
   10.9851   -4.4876    0.0000 H   0  0  0  0  0  0  0  0  0  0  0  0
   15.1982   -5.5950    0.0000 H   0  0  0  0  0  0  0  0  0  0  0  0
   14.1244   -5.5950    0.0000 H   0  0  0  0  0  0  0  0  0  0  0  0
   11.8078   -3.0127    0.0000 H   0  0  0  0  0  0  0  0  0  0  0  0
   11.4092   -2.3224    0.0000 H   0  0  0  0  0  0  0  0  0  0  0  0
    9.7206   -2.2973    0.0000 H   0  0  0  0  0  0  0  0  0  0  0  0
   10.1191   -2.9876    0.0000 H   0  0  0  0  0  0  0  0  0  0  0  0
    9.7942   -7.0950    0.0000 H   0  0  0  0  0  0  0  0  0  0  0  0
   10.9417   -1.5127    0.0000 H   0  0  0  0  0  0  0  0  0  0  0  0
   10.5432   -0.8224    0.0000 H   0  0  0  0  0  0  0  0  0  0  0  0
    6.6116    5.9873    0.0000 H   0  0  0  0  0  0  0  0  0  0  0  0
    6.2131    6.6776    0.0000 H   0  0  0  0  0  0  0  0  0  0  0  0
    5.3905    5.2027    0.0000 H   0  0  0  0  0  0  0  0  0  0  0  0
    5.7890    4.5124    0.0000 H   0  0  0  0  0  0  0  0  0  0  0  0
    4.5244    6.7027    0.0000 H   0  0  0  0  0  0  0  0  0  0  0  0
    4.9230    6.0124    0.0000 H   0  0  0  0  0  0  0  0  0  0  0  0
    7.4776    4.4873    0.0000 H   0  0  0  0  0  0  0  0  0  0  0  0
    7.0791    5.1776    0.0000 H   0  0  0  0  0  0  0  0  0  0  0  0
    5.7456    7.4873    0.0000 H   0  0  0  0  0  0  0  0  0  0  0  0
    5.3471    8.1776    0.0000 H   0  0  0  0  0  0  0  0  0  0  0  0
    6.2565    3.7027    0.0000 H   0  0  0  0  0  0  0  0  0  0  0  0
    6.6550    3.0124    0.0000 H   0  0  0  0  0  0  0  0  0  0  0  0
    3.6584    8.2027    0.0000 H   0  0  0  0  0  0  0  0  0  0  0  0
    4.0569    7.5124    0.0000 H   0  0  0  0  0  0  0  0  0  0  0  0
    8.3437    2.9873    0.0000 H   0  0  0  0  0  0  0  0  0  0  0  0
    7.9451    3.6776    0.0000 H   0  0  0  0  0  0  0  0  0  0  0  0
    7.1225    2.2027    0.0000 H   0  0  0  0  0  0  0  0  0  0  0  0
    7.5210    1.5124    0.0000 H   0  0  0  0  0  0  0  0  0  0  0  0
    4.8796    8.9873    0.0000 H   0  0  0  0  0  0  0  0  0  0  0  0
    4.4810    9.6776    0.0000 H   0  0  0  0  0  0  0  0  0  0  0  0
    8.8546   -0.7973    0.0000 H   0  0  0  0  0  0  0  0  0  0  0  0
    9.2531   -1.4876    0.0000 H   0  0  0  0  0  0  0  0  0  0  0  0
    9.2097    1.4873    0.0000 H   0  0  0  0  0  0  0  0  0  0  0  0
    8.8112    2.1776    0.0000 H   0  0  0  0  0  0  0  0  0  0  0  0
   16.9303   -7.2150    0.0000 H   0  0  0  0  0  0  0  0  0  0  0  0
    3.4030    8.9750    0.0000 H   0  0  0  0  0  0  0  0  0  0  0  0
    7.9885    0.7027    0.0000 H   0  0  0  0  0  0  0  0  0  0  0  0
    8.3871    0.0124    0.0000 H   0  0  0  0  0  0  0  0  0  0  0  0
    3.4030   11.2150    0.0000 H   0  0  0  0  0  0  0  0  0  0  0  0
    4.5790   10.5581    0.0000 H   0  0  0  0  0  0  0  0  0  0  0  0
    4.8059   11.4050    0.0000 H   0  0  0  0  0  0  0  0  0  0  0  0
    3.9590   11.6319    0.0000 H   0  0  0  0  0  0  0  0  0  0  0  0
    2.0000    9.4050    0.0000 H   0  0  0  0  0  0  0  0  0  0  0  0
    2.5369   11.7150    0.0000 H   0  0  0  0  0  0  0  0  0  0  0  0
    2.0000   10.7850    0.0000 H   0  0  0  0  0  0  0  0  0  0  0  0
  1 14  1  0  0  0  0
  1 16  1  0  0  0  0
 14  2  1  1  0  0  0
 17  2  1  6  0  0  0
 12  3  1  6  0  0  0
  3 63  1  0  0  0  0
 13  4  1  1  0  0  0
  4 66  1  0  0  0  0
 15  5  1  6  0  0  0
  5 67  1  0  0  0  0
  6 21  1  0  0  0  0
  6 76  1  0  0  0  0
  7 24  1  0  0  0  0
  7103  1  0  0  0  0
 41  8  1  1  0  0  0
  8111  1  0  0  0  0
  9 43  2  0  0  0  0
 19 10  1  1  0  0  0
 10 70  1  0  0  0  0
 10 71  1  0  0  0  0
 44 11  1  6  0  0  0
 11112  1  0  0  0  0
 11113  1  0  0  0  0
 12 13  1  0  0  0  0
 12 14  1  0  0  0  0
 12 46  1  0  0  0  0
 13 15  1  0  0  0  0
 13 47  1  0  0  0  0
 14 48  1  0  0  0  0
 15 16  1  0  0  0  0
 15 49  1  0  0  0  0
 16 21  1  1  0  0  0
 16 50  1  0  0  0  0
 17 18  1  0  0  0  0
 17 19  1  0  0  0  0
 17 51  1  0  0  0  0
 18 20  1  0  0  0  0
 18 52  1  0  0  0  0
 18 53  1  0  0  0  0
 19 24  1  0  0  0  0
 19 54  1  0  0  0  0
 20 22  1  0  0  0  0
 20 55  1  0  0  0  0
 20 56  1  0  0  0  0
 21 57  1  0  0  0  0
 21 58  1  0  0  0  0
 22 23  1  0  0  0  0
 22 59  1  0  0  0  0
 22 60  1  0  0  0  0
 23 25  1  0  0  0  0
 23 61  1  0  0  0  0
 23 62  1  0  0  0  0
 24 64  1  0  0  0  0
 24 65  1  0  0  0  0
 25 26  1  0  0  0  0
 25 68  1  0  0  0  0
 25 69  1  0  0  0  0
 26 27  1  0  0  0  0
 26 72  1  0  0  0  0
 26 73  1  0  0  0  0
 27 28  1  0  0  0  0
 27 74  1  0  0  0  0
 27 75  1  0  0  0  0
 28 38  1  0  0  0  0
 28 77  1  0  0  0  0
 28 78  1  0  0  0  0
 29 30  1  0  0  0  0
 29 31  1  0  0  0  0
 29 79  1  0  0  0  0
 29 80  1  0  0  0  0
 30 32  1  0  0  0  0
 30 81  1  0  0  0  0
 30 82  1  0  0  0  0
 31 33  1  0  0  0  0
 31 83  1  0  0  0  0
 31 84  1  0  0  0  0
 32 34  1  0  0  0  0
 32 85  1  0  0  0  0
 32 86  1  0  0  0  0
 33 36  1  0  0  0  0
 33 87  1  0  0  0  0
 33 88  1  0  0  0  0
 34 35  1  0  0  0  0
 34 89  1  0  0  0  0
 34 90  1  0  0  0  0
 35 37  1  0  0  0  0
 35 93  1  0  0  0  0
 35 94  1  0  0  0  0
 36 39  1  0  0  0  0
 36 91  1  0  0  0  0
 36 92  1  0  0  0  0
 37 40  1  0  0  0  0
 37 95  1  0  0  0  0
 37 96  1  0  0  0  0
 38 43  1  0  0  0  0
 38 99  1  0  0  0  0
 38100  1  0  0  0  0
 39 41  1  0  0  0  0
 39 97  1  0  0  0  0
 39 98  1  0  0  0  0
 40 42  1  0  0  0  0
 40101  1  0  0  0  0
 40102  1  0  0  0  0
 41 44  1  0  0  0  0
 41104  1  0  0  0  0
 42 43  1  0  0  0  0
 42105  1  0  0  0  0
 42106  1  0  0  0  0
 44 45  1  0  0  0  0
 44107  1  0  0  0  0
 45108  1  0  0  0  0
 45109  1  0  0  0  0
 45110  1  0  0  0  0
M  END
> <PUBCHEM_COMPOUND_CID>
501257
> <PUBCHEM_COMPOUND_CANONICALIZED>
1
> <PUBCHEM_CACTVS_COMPLEXITY>
719
> <PUBCHEM_CACTVS_HBOND_ACCEPTOR>
11
> <PUBCHEM_CACTVS_HBOND_DONOR>
8
> <PUBCHEM_CACTVS_ROTATABLE_BOND>
29
> <PUBCHEM_CACTVS_SUBSKEYS>
AAADcfB/PAAAAAAAAAAAAAAAAAAAAAAAAAAkAAAAAAAAAAAAAAAAHgAQCAAACDzxgAcCCABABgAIAIAQAAAAAAAAAAAAAIEAAAATEBIAgAAjQAAFEAAHAAHY6KyAAAAAAAAAAAAAAAAAAAAAAAAAAAAAAA==
> <PUBCHEM_IUPAC_OPENEYE_NAME>
(2S,3R,26R,27R)-2,27-diamino-1,26-dihydroxy-3-[(2R,3R,4S,5S,6R)-3,4,5-trihydroxy-6-(hydroxymethyl)tetrahydropyran-2-yl]oxy-octacosan-13-one
> <PUBCHEM_IUPAC_CAS_NAME>
(2S,3R,26R,27R)-2,27-diamino-1,26-dihydroxy-3-[[(2R,3R,4S,5S,6R)-3,4,5-trihydroxy-6-(hydroxymethyl)-2-oxanyl]oxy]-13-octacosanone
> <PUBCHEM_IUPAC_NAME_MARKUP>
(2<I>S</I>,3<I>R</I>,26<I>R</I>,27<I>R</I>)-2,27-diamino-1,26-dihydroxy-3-[(2<I>R</I>,3<I>R</I>,4<I>S</I>,5<I>S</I>,6<I>R</I>)-3,4,5-trihydroxy-6-(hydroxymethyl)oxan-2-yl]oxyoctacosan-13-one
> <PUBCHEM_IUPAC_NAME>
(2S,3R,26R,27R)-2,27-diamino-1,26-dihydroxy-3-[(2R,3R,4S,5S,6R)-3,4,5-trihydroxy-6-(hydroxymethyl)oxan-2-yl]oxyoctacosan-13-one
> <PUBCHEM_IUPAC_SYSTEMATIC_NAME>
(2S,3R,26R,27R)-2,27-bis(azanyl)-3-[(2R,3R,4S,5S,6R)-6-(hydroxymethyl)-3,4,5-tris(oxidanyl)oxan-2-yl]oxy-1,26-bis(oxidanyl)octacosan-13-one
> <PUBCHEM_IUPAC_TRADITIONAL_NAME>
(2S,3R,26R,27R)-2,27-diamino-1,26-dihydroxy-3-[(2R,3R,4S,5S,6R)-3,4,5-trihydroxy-6-methylol-tetrahydropyran-2-yl]oxy-octacosan-13-one
> <PUBCHEM_IUPAC_INCHI>
InChI=1S/C34H68N2O9/c1-25(35)28(40)21-17-13-9-5-3-2-4-7-11-15-19-26(39)20-16-12-8-6-10-14-18-22-29(27(36)23-37)44-34-33(43)32(42)31(41)30(24-38)45-34/h25,27-34,37-38,40-43H,2-24,35-36H2,1H3/t25-,27+,28-,29-,30-,31-,32+,33-,34-/m1/s1
> <PUBCHEM_IUPAC_INCHIKEY>
XJGZZDLCVLWEBE-LBAMHCMXSA-N
> <PUBCHEM_XLOGP3_AA>
4.1
> <PUBCHEM_EXACT_MASS>
648.49248175
> <PUBCHEM_MOLECULAR_FORMULA>
C34H68N2O9
> <PUBCHEM_MOLECULAR_WEIGHT>
648.9
> <PUBCHEM_OPENEYE_CAN_SMILES>
CC(C(CCCCCCCCCCCCC(=O)CCCCCCCCCC(C(CO)N)OC1C(C(C(C(O1)CO)O)O)O)O)N
> <PUBCHEM_OPENEYE_ISO_SMILES>
C[C@H]([C@@H](CCCCCCCCCCCCC(=O)CCCCCCCCC[C@H]([C@H](CO)N)O[C@H]1[C@@H]([C@H]([C@@H]([C@H](O1)CO)O)O)O)O)N
> <PUBCHEM_CACTVS_TPSA>
209
> <PUBCHEM_MONOISOTOPIC_WEIGHT>
648.49248175
> <PUBCHEM_TOTAL_CHARGE>
0
> <PUBCHEM_HEAVY_ATOM_COUNT>
45
> <PUBCHEM_ATOM_DEF_STEREO_COUNT>
9
> <PUBCHEM_ATOM_UDEF_STEREO_COUNT>
0
> <PUBCHEM_BOND_DEF_STEREO_COUNT>
0
> <PUBCHEM_BOND_UDEF_STEREO_COUNT>
0
> <PUBCHEM_ISOTOPIC_ATOM_COUNT>
0
> <PUBCHEM_COMPONENT_COUNT>
1
> <PUBCHEM_CACTVS_TAUTO_COUNT>
-1
> <PUBCHEM_COORDINATE_TYPE>
1
5
255
> <PUBCHEM_BONDANNOTATIONS>
19  10  5
44  11  6
16  21  5
14  2  5
17  2  6
12  3  6
13  4  5
15  5  6
41  8  5
$$$$
