501250
  -OEChem-10302200282D
 33 34  0     1  0  0  0  0  0999 V2000
    2.8660    0.7500    0.0000 Cl  0  0  0  0  0  0  0  0  0  0  0  0
    4.5981    0.7500    0.0000 S   0  0  0  0  0  0  0  0  0  0  0  0
    4.0981    1.6160    0.0000 O   0  0  0  0  0  0  0  0  0  0  0  0
    5.0981   -0.1160    0.0000 O   0  0  0  0  0  0  0  0  0  0  0  0
    5.4641    2.2500    0.0000 N   0  0  0  0  0  0  0  0  0  0  0  0
    3.7320    0.2500    0.0000 C   0  0  3  0  0  0  0  0  0  0  0  0
    3.7320   -0.7500    0.0000 C   0  0  0  0  0  0  0  0  0  0  0  0
    2.8660   -1.2500    0.0000 C   0  0  0  0  0  0  0  0  0  0  0  0
    4.5981   -1.2500    0.0000 C   0  0  0  0  0  0  0  0  0  0  0  0
    4.5981   -2.2500    0.0000 C   0  0  0  0  0  0  0  0  0  0  0  0
    5.4641    1.2500    0.0000 C   0  0  0  0  0  0  0  0  0  0  0  0
    2.8660   -2.2500    0.0000 C   0  0  0  0  0  0  0  0  0  0  0  0
    3.7320   -2.7500    0.0000 C   0  0  0  0  0  0  0  0  0  0  0  0
    2.0000   -0.7500    0.0000 C   0  0  0  0  0  0  0  0  0  0  0  0
    5.4641   -2.7500    0.0000 C   0  0  0  0  0  0  0  0  0  0  0  0
    6.3301    0.7500    0.0000 C   0  0  0  0  0  0  0  0  0  0  0  0
    7.1962    1.2500    0.0000 C   0  0  0  0  0  0  0  0  0  0  0  0
    6.3301    2.7500    0.0000 C   0  0  0  0  0  0  0  0  0  0  0  0
    7.1962    2.2500    0.0000 C   0  0  0  0  0  0  0  0  0  0  0  0
    3.7320    0.8700    0.0000 H   0  0  0  0  0  0  0  0  0  0  0  0
    5.1350   -0.9400    0.0000 H   0  0  0  0  0  0  0  0  0  0  0  0
    2.3291   -2.5600    0.0000 H   0  0  0  0  0  0  0  0  0  0  0  0
    3.7320   -3.3700    0.0000 H   0  0  0  0  0  0  0  0  0  0  0  0
    2.3100   -0.2131    0.0000 H   0  0  0  0  0  0  0  0  0  0  0  0
    1.4631   -0.4400    0.0000 H   0  0  0  0  0  0  0  0  0  0  0  0
    1.6900   -1.2869    0.0000 H   0  0  0  0  0  0  0  0  0  0  0  0
    5.1541   -3.2869    0.0000 H   0  0  0  0  0  0  0  0  0  0  0  0
    6.0010   -3.0600    0.0000 H   0  0  0  0  0  0  0  0  0  0  0  0
    5.7741   -2.2131    0.0000 H   0  0  0  0  0  0  0  0  0  0  0  0
    6.3301    0.1300    0.0000 H   0  0  0  0  0  0  0  0  0  0  0  0
    7.7331    0.9400    0.0000 H   0  0  0  0  0  0  0  0  0  0  0  0
    6.3301    3.3700    0.0000 H   0  0  0  0  0  0  0  0  0  0  0  0
    7.7331    2.5600    0.0000 H   0  0  0  0  0  0  0  0  0  0  0  0
  1  6  1  0  0  0  0
  2  3  2  0  0  0  0
  2  4  2  0  0  0  0
  2  6  1  0  0  0  0
  2 11  1  0  0  0  0
  5 11  1  0  0  0  0
  5 18  2  0  0  0  0
  6  7  1  0  0  0  0
  6 20  1  0  0  0  0
  7  8  2  0  0  0  0
  7  9  1  0  0  0  0
  8 12  1  0  0  0  0
  8 14  1  0  0  0  0
  9 10  2  0  0  0  0
  9 21  1  0  0  0  0
 10 13  1  0  0  0  0
 10 15  1  0  0  0  0
 11 16  2  0  0  0  0
 12 13  2  0  0  0  0
 12 22  1  0  0  0  0
 13 23  1  0  0  0  0
 14 24  1  0  0  0  0
 14 25  1  0  0  0  0
 14 26  1  0  0  0  0
 15 27  1  0  0  0  0
 15 28  1  0  0  0  0
 15 29  1  0  0  0  0
 16 17  1  0  0  0  0
 16 30  1  0  0  0  0
 17 19  2  0  0  0  0
 17 31  1  0  0  0  0
 18 19  1  0  0  0  0
 18 32  1  0  0  0  0
 19 33  1  0  0  0  0
M  END
> <PUBCHEM_COMPOUND_CID>
501250
> <PUBCHEM_COMPOUND_CANONICALIZED>
1
> <PUBCHEM_CACTVS_COMPLEXITY>
393
> <PUBCHEM_CACTVS_HBOND_ACCEPTOR>
3
> <PUBCHEM_CACTVS_HBOND_DONOR>
0
> <PUBCHEM_CACTVS_ROTATABLE_BOND>
3
> <PUBCHEM_CACTVS_SUBSKEYS>
AAADccByMABEAAAAAAAAAAAAAAAAAAAAAAA8QAAAAAAAAAABwAAAHAYAAAAADAPFWkS+gZIIEAqgAjBnRHDK0CBxCjAI2Dg4ZpgIIOLhkZGEIAhggADoyAcQgMAOwAACAAAQAACAAAQAACAAAAAAAAAAAA==
> <PUBCHEM_IUPAC_OPENEYE_NAME>
2-[chloro-(2,5-dimethylphenyl)methyl]sulfonylpyridine
> <PUBCHEM_IUPAC_CAS_NAME>
2-[chloro-(2,5-dimethylphenyl)methyl]sulfonylpyridine
> <PUBCHEM_IUPAC_NAME_MARKUP>
2-[chloro-(2,5-dimethylphenyl)methyl]sulfonylpyridine
> <PUBCHEM_IUPAC_NAME>
2-[chloro-(2,5-dimethylphenyl)methyl]sulfonylpyridine
> <PUBCHEM_IUPAC_SYSTEMATIC_NAME>
2-[chloranyl-(2,5-dimethylphenyl)methyl]sulfonylpyridine
> <PUBCHEM_IUPAC_TRADITIONAL_NAME>
2-[chloro-(2,5-dimethylphenyl)methyl]sulfonylpyridine
> <PUBCHEM_IUPAC_INCHI>
InChI=1S/C14H14ClNO2S/c1-10-6-7-11(2)12(9-10)14(15)19(17,18)13-5-3-4-8-16-13/h3-9,14H,1-2H3
> <PUBCHEM_IUPAC_INCHIKEY>
PTKIAOZTQQPTOH-UHFFFAOYSA-N
> <PUBCHEM_XLOGP3_AA>
3.4
> <PUBCHEM_EXACT_MASS>
295.0433776
> <PUBCHEM_MOLECULAR_FORMULA>
C14H14ClNO2S
> <PUBCHEM_MOLECULAR_WEIGHT>
295.8
> <PUBCHEM_OPENEYE_CAN_SMILES>
CC1=CC(=C(C=C1)C)C(S(=O)(=O)C2=CC=CC=N2)Cl
> <PUBCHEM_OPENEYE_ISO_SMILES>
CC1=CC(=C(C=C1)C)C(S(=O)(=O)C2=CC=CC=N2)Cl
> <PUBCHEM_CACTVS_TPSA>
55.4
> <PUBCHEM_MONOISOTOPIC_WEIGHT>
295.0433776
> <PUBCHEM_TOTAL_CHARGE>
0
> <PUBCHEM_HEAVY_ATOM_COUNT>
19
> <PUBCHEM_ATOM_DEF_STEREO_COUNT>
0
> <PUBCHEM_ATOM_UDEF_STEREO_COUNT>
1
> <PUBCHEM_BOND_DEF_STEREO_COUNT>
0
> <PUBCHEM_BOND_UDEF_STEREO_COUNT>
0
> <PUBCHEM_ISOTOPIC_ATOM_COUNT>
0
> <PUBCHEM_COMPONENT_COUNT>
1
> <PUBCHEM_CACTVS_TAUTO_COUNT>
-1
> <PUBCHEM_COORDINATE_TYPE>
1
5
255
> <PUBCHEM_BONDANNOTATIONS>
6  1  3
10  13  8
11  16  8
12  13  8
16  17  8
17  19  8
18  19  8
5  11  8
5  18  8
7  8  8
7  9  8
8  12  8
9  10  8
$$$$
