501213
  -OEChem-10302200282D
 43 44  0     1  0  0  0  0  0999 V2000
    6.3301   -0.7500    0.0000 S   0  0  0  0  0  0  0  0  0  0  0  0
    5.8301    0.1160    0.0000 O   0  0  0  0  0  0  0  0  0  0  0  0
    6.8301   -1.6160    0.0000 O   0  0  0  0  0  0  0  0  0  0  0  0
    8.0622   -1.7500    0.0000 O   0  5  0  0  0  0  0  0  0  0  0  0
    8.0622   -0.7500    0.0000 N   0  3  0  0  0  0  0  0  0  0  0  0
    5.4641   -1.2500    0.0000 C   0  0  3  0  0  0  0  0  0  0  0  0
    4.5981   -0.7500    0.0000 C   0  0  0  0  0  0  0  0  0  0  0  0
    7.1962   -0.2500    0.0000 C   0  0  0  0  0  0  0  0  0  0  0  0
    5.4641   -2.2500    0.0000 C   0  0  0  0  0  0  0  0  0  0  0  0
    4.5981    0.2500    0.0000 C   0  0  0  0  0  0  0  0  0  0  0  0
    3.7320   -1.2500    0.0000 C   0  0  0  0  0  0  0  0  0  0  0  0
    7.1962    0.7500    0.0000 C   0  0  0  0  0  0  0  0  0  0  0  0
    2.8660   -0.7500    0.0000 C   0  0  0  0  0  0  0  0  0  0  0  0
    3.7320    0.7500    0.0000 C   0  0  0  0  0  0  0  0  0  0  0  0
    8.9282   -0.2500    0.0000 C   0  0  0  0  0  0  0  0  0  0  0  0
    8.0622    1.2500    0.0000 C   0  0  0  0  0  0  0  0  0  0  0  0
    5.4641    0.7500    0.0000 C   0  0  0  0  0  0  0  0  0  0  0  0
    2.8660    0.2500    0.0000 C   0  0  0  0  0  0  0  0  0  0  0  0
    8.9282    0.7500    0.0000 C   0  0  0  0  0  0  0  0  0  0  0  0
    2.0000   -1.2500    0.0000 C   0  0  0  0  0  0  0  0  0  0  0  0
    9.7942   -0.7500    0.0000 C   0  0  0  0  0  0  0  0  0  0  0  0
    8.0622    2.2500    0.0000 C   0  0  0  0  0  0  0  0  0  0  0  0
    6.0010   -1.5600    0.0000 H   0  0  0  0  0  0  0  0  0  0  0  0
    4.8441   -2.2500    0.0000 H   0  0  0  0  0  0  0  0  0  0  0  0
    5.4641   -2.8700    0.0000 H   0  0  0  0  0  0  0  0  0  0  0  0
    6.0841   -2.2500    0.0000 H   0  0  0  0  0  0  0  0  0  0  0  0
    3.7320   -1.8700    0.0000 H   0  0  0  0  0  0  0  0  0  0  0  0
    6.6592    1.0600    0.0000 H   0  0  0  0  0  0  0  0  0  0  0  0
    3.7320    1.3700    0.0000 H   0  0  0  0  0  0  0  0  0  0  0  0
    5.7741    0.2131    0.0000 H   0  0  0  0  0  0  0  0  0  0  0  0
    6.0010    1.0600    0.0000 H   0  0  0  0  0  0  0  0  0  0  0  0
    5.1541    1.2869    0.0000 H   0  0  0  0  0  0  0  0  0  0  0  0
    2.3291    0.5600    0.0000 H   0  0  0  0  0  0  0  0  0  0  0  0
    9.4651    1.0600    0.0000 H   0  0  0  0  0  0  0  0  0  0  0  0
    1.6900   -0.7131    0.0000 H   0  0  0  0  0  0  0  0  0  0  0  0
    1.4631   -1.5600    0.0000 H   0  0  0  0  0  0  0  0  0  0  0  0
    2.3100   -1.7869    0.0000 H   0  0  0  0  0  0  0  0  0  0  0  0
    9.4842   -1.2869    0.0000 H   0  0  0  0  0  0  0  0  0  0  0  0
   10.3312   -1.0600    0.0000 H   0  0  0  0  0  0  0  0  0  0  0  0
   10.1042   -0.2131    0.0000 H   0  0  0  0  0  0  0  0  0  0  0  0
    8.6822    2.2500    0.0000 H   0  0  0  0  0  0  0  0  0  0  0  0
    8.0622    2.8700    0.0000 H   0  0  0  0  0  0  0  0  0  0  0  0
    7.4422    2.2500    0.0000 H   0  0  0  0  0  0  0  0  0  0  0  0
  1  2  2  0  0  0  0
  1  3  2  0  0  0  0
  1  6  1  0  0  0  0
  1  8  1  0  0  0  0
  4  5  1  0  0  0  0
  5  8  1  0  0  0  0
  5 15  2  0  0  0  0
  6  7  1  0  0  0  0
  6  9  1  0  0  0  0
  6 23  1  0  0  0  0
  7 10  2  0  0  0  0
  7 11  1  0  0  0  0
  8 12  2  0  0  0  0
  9 24  1  0  0  0  0
  9 25  1  0  0  0  0
  9 26  1  0  0  0  0
 10 14  1  0  0  0  0
 10 17  1  0  0  0  0
 11 13  2  0  0  0  0
 11 27  1  0  0  0  0
 12 16  1  0  0  0  0
 12 28  1  0  0  0  0
 13 18  1  0  0  0  0
 13 20  1  0  0  0  0
 14 18  2  0  0  0  0
 14 29  1  0  0  0  0
 15 19  1  0  0  0  0
 15 21  1  0  0  0  0
 16 19  2  0  0  0  0
 16 22  1  0  0  0  0
 17 30  1  0  0  0  0
 17 31  1  0  0  0  0
 17 32  1  0  0  0  0
 18 33  1  0  0  0  0
 19 34  1  0  0  0  0
 20 35  1  0  0  0  0
 20 36  1  0  0  0  0
 20 37  1  0  0  0  0
 21 38  1  0  0  0  0
 21 39  1  0  0  0  0
 21 40  1  0  0  0  0
 22 41  1  0  0  0  0
 22 42  1  0  0  0  0
 22 43  1  0  0  0  0
M  CHG  2   4  -1   5   1
M  END
> <PUBCHEM_COMPOUND_CID>
501213
> <PUBCHEM_COMPOUND_CANONICALIZED>
1
> <PUBCHEM_CACTVS_COMPLEXITY>
473
> <PUBCHEM_CACTVS_HBOND_ACCEPTOR>
3
> <PUBCHEM_CACTVS_HBOND_DONOR>
0
> <PUBCHEM_CACTVS_ROTATABLE_BOND>
3
> <PUBCHEM_CACTVS_SUBSKEYS>
AAADceB6MABAAAAAAAAAAAAAAAAAAAAAAAA8QAAAAAAAAAABwAAAHAQEAAAADAiFXgCygZIYEAqgAyRiRHDK0CBhCjAomDgwZJoIIGLgkZGEIAhggADoyAcQgMAOwAACAAAQAACAAAQAACAAAAAAAAAAAA==
> <PUBCHEM_IUPAC_OPENEYE_NAME>
2-[1-(2,5-dimethylphenyl)ethylsulfonyl]-4,6-dimethyl-1-oxido-pyridin-1-ium
> <PUBCHEM_IUPAC_CAS_NAME>
2-[1-(2,5-dimethylphenyl)ethylsulfonyl]-4,6-dimethyl-1-oxidopyridin-1-ium
> <PUBCHEM_IUPAC_NAME_MARKUP>
2-[1-(2,5-dimethylphenyl)ethylsulfonyl]-4,6-dimethyl-1-oxidopyridin-1-ium
> <PUBCHEM_IUPAC_NAME>
2-[1-(2,5-dimethylphenyl)ethylsulfonyl]-4,6-dimethyl-1-oxidopyridin-1-ium
> <PUBCHEM_IUPAC_SYSTEMATIC_NAME>
2-[1-(2,5-dimethylphenyl)ethylsulfonyl]-4,6-dimethyl-1-oxidanidyl-pyridin-1-ium
> <PUBCHEM_IUPAC_TRADITIONAL_NAME>
2-[1-(2,5-dimethylphenyl)ethylsulfonyl]-4,6-dimethyl-1-oxido-pyridin-1-ium
> <PUBCHEM_IUPAC_INCHI>
InChI=1S/C17H21NO3S/c1-11-6-7-13(3)16(9-11)15(5)22(20,21)17-10-12(2)8-14(4)18(17)19/h6-10,15H,1-5H3
> <PUBCHEM_IUPAC_INCHIKEY>
GJRHUWXXCXHXMY-UHFFFAOYSA-N
> <PUBCHEM_XLOGP3_AA>
2.8
> <PUBCHEM_EXACT_MASS>
319.12421471
> <PUBCHEM_MOLECULAR_FORMULA>
C17H21NO3S
> <PUBCHEM_MOLECULAR_WEIGHT>
319.4
> <PUBCHEM_OPENEYE_CAN_SMILES>
CC1=CC(=C(C=C1)C)C(C)S(=O)(=O)C2=CC(=CC(=[N+]2[O-])C)C
> <PUBCHEM_OPENEYE_ISO_SMILES>
CC1=CC(=C(C=C1)C)C(C)S(=O)(=O)C2=CC(=CC(=[N+]2[O-])C)C
> <PUBCHEM_CACTVS_TPSA>
68
> <PUBCHEM_MONOISOTOPIC_WEIGHT>
319.12421471
> <PUBCHEM_TOTAL_CHARGE>
0
> <PUBCHEM_HEAVY_ATOM_COUNT>
22
> <PUBCHEM_ATOM_DEF_STEREO_COUNT>
0
> <PUBCHEM_ATOM_UDEF_STEREO_COUNT>
1
> <PUBCHEM_BOND_DEF_STEREO_COUNT>
0
> <PUBCHEM_BOND_UDEF_STEREO_COUNT>
0
> <PUBCHEM_ISOTOPIC_ATOM_COUNT>
0
> <PUBCHEM_COMPONENT_COUNT>
1
> <PUBCHEM_CACTVS_TAUTO_COUNT>
-1
> <PUBCHEM_COORDINATE_TYPE>
1
5
255
> <PUBCHEM_BONDANNOTATIONS>
10  14  8
11  13  8
12  16  8
13  18  8
14  18  8
15  19  8
16  19  8
5  15  8
5  8  8
6  9  3
7  10  8
7  11  8
8  12  8
$$$$
