501264
  -OEChem-10302200282D
 34 36  0     1  0  0  0  0  0999 V2000
    2.0000   -1.3075    0.0000 F   0  0  0  0  0  0  0  0  0  0  0  0
    7.2419   -1.3797    0.0000 N   0  0  0  0  0  0  0  0  0  0  0  0
    9.0019   -1.3450    0.0000 N   0  0  0  0  0  0  0  0  0  0  0  0
    9.8679    0.1550    0.0000 N   0  0  0  0  0  0  0  0  0  0  0  0
    9.0019    1.6550    0.0000 N   0  0  0  0  0  0  0  0  0  0  0  0
   10.7340   -1.3450    0.0000 N   0  0  0  0  0  0  0  0  0  0  0  0
    4.6038    0.1825    0.0000 C   0  0  3  0  0  0  0  0  0  0  0  0
    5.4718    0.6792    0.0000 C   0  0  0  0  0  0  0  0  0  0  0  0
    3.7398    0.6858    0.0000 C   0  0  0  0  0  0  0  0  0  0  0  0
    6.3359    0.1758    0.0000 C   0  0  0  0  0  0  0  0  0  0  0  0
    4.6000   -0.8175    0.0000 C   0  0  0  0  0  0  0  0  0  0  0  0
    2.8718    0.1892    0.0000 C   0  0  0  0  0  0  0  0  0  0  0  0
    7.2419    0.6897    0.0000 C   0  0  0  0  0  0  0  0  0  0  0  0
    3.7320   -1.3142    0.0000 C   0  0  0  0  0  0  0  0  0  0  0  0
    8.1359    0.1550    0.0000 C   0  0  0  0  0  0  0  0  0  0  0  0
    2.8680   -0.8108    0.0000 C   0  0  0  0  0  0  0  0  0  0  0  0
    6.3359   -0.8658    0.0000 C   0  0  0  0  0  0  0  0  0  0  0  0
    8.1359   -0.8450    0.0000 C   0  0  0  0  0  0  0  0  0  0  0  0
    9.0019    0.6550    0.0000 C   0  0  0  0  0  0  0  0  0  0  0  0
    9.8679   -0.8450    0.0000 C   0  0  0  0  0  0  0  0  0  0  0  0
    4.6062    0.8025    0.0000 H   0  0  0  0  0  0  0  0  0  0  0  0
    5.8721    1.1526    0.0000 H   0  0  0  0  0  0  0  0  0  0  0  0
    5.0751    1.1556    0.0000 H   0  0  0  0  0  0  0  0  0  0  0  0
    4.1401    1.1592    0.0000 H   0  0  0  0  0  0  0  0  0  0  0  0
    3.3430    1.1623    0.0000 H   0  0  0  0  0  0  0  0  0  0  0  0
    5.1357   -1.1296    0.0000 H   0  0  0  0  0  0  0  0  0  0  0  0
    2.3361    0.5012    0.0000 H   0  0  0  0  0  0  0  0  0  0  0  0
    7.2491    1.3096    0.0000 H   0  0  0  0  0  0  0  0  0  0  0  0
    3.7296   -1.9342    0.0000 H   0  0  0  0  0  0  0  0  0  0  0  0
    5.8001   -1.1779    0.0000 H   0  0  0  0  0  0  0  0  0  0  0  0
    9.5388    1.9650    0.0000 H   0  0  0  0  0  0  0  0  0  0  0  0
    8.4650    1.9650    0.0000 H   0  0  0  0  0  0  0  0  0  0  0  0
   10.7340   -1.9650    0.0000 H   0  0  0  0  0  0  0  0  0  0  0  0
   11.2709   -1.0350    0.0000 H   0  0  0  0  0  0  0  0  0  0  0  0
  1 16  1  0  0  0  0
  2 17  2  0  0  0  0
  2 18  1  0  0  0  0
  3 18  2  0  0  0  0
  3 20  1  0  0  0  0
  4 19  1  0  0  0  0
  4 20  2  0  0  0  0
  5 19  1  0  0  0  0
  5 31  1  0  0  0  0
  5 32  1  0  0  0  0
  6 20  1  0  0  0  0
  6 33  1  0  0  0  0
  6 34  1  0  0  0  0
  7  8  1  0  0  0  0
  7  9  1  0  0  0  0
  7 11  1  0  0  0  0
  7 21  1  0  0  0  0
  8 10  1  0  0  0  0
  8 22  1  0  0  0  0
  8 23  1  0  0  0  0
  9 12  1  0  0  0  0
  9 24  1  0  0  0  0
  9 25  1  0  0  0  0
 10 13  2  0  0  0  0
 10 17  1  0  0  0  0
 11 14  2  0  0  0  0
 11 26  1  0  0  0  0
 12 16  2  0  0  0  0
 12 27  1  0  0  0  0
 13 15  1  0  0  0  0
 13 28  1  0  0  0  0
 14 16  1  0  0  0  0
 14 29  1  0  0  0  0
 15 18  1  0  0  0  0
 15 19  2  0  0  0  0
 17 30  1  0  0  0  0
M  END
> <PUBCHEM_COMPOUND_CID>
501264
> <PUBCHEM_COMPOUND_CANONICALIZED>
1
> <PUBCHEM_CACTVS_COMPLEXITY>
410
> <PUBCHEM_CACTVS_HBOND_ACCEPTOR>
6
> <PUBCHEM_CACTVS_HBOND_DONOR>
2
> <PUBCHEM_CACTVS_ROTATABLE_BOND>
2
> <PUBCHEM_CACTVS_SUBSKEYS>
AAADccBzgQAAAAAAAAAAAAAAAAAAAAAAAAAsWIAAAAAAAACx+AAAHQAQAAAADQDBGwQ9sN5IEACgAjJnZACCgCkxAKAJ2CAoRJiIKOLA2dGEJAhogALIyCcQgMAOAAAAAAAAAAAAAAAAAAAAAAAAAAAAAA==
> <PUBCHEM_IUPAC_OPENEYE_NAME>
6-[(4-fluorocyclohexa-2,4-dien-1-yl)methyl]pyrido[2,3-d]pyrimidine-2,4-diamine
> <PUBCHEM_IUPAC_CAS_NAME>
6-[(4-fluoro-1-cyclohexa-2,4-dienyl)methyl]pyrido[2,3-d]pyrimidine-2,4-diamine
> <PUBCHEM_IUPAC_NAME_MARKUP>
6-[(4-fluorocyclohexa-2,4-dien-1-yl)methyl]pyrido[2,3-d]pyrimidine-2,4-diamine
> <PUBCHEM_IUPAC_NAME>
6-[(4-fluorocyclohexa-2,4-dien-1-yl)methyl]pyrido[2,3-d]pyrimidine-2,4-diamine
> <PUBCHEM_IUPAC_SYSTEMATIC_NAME>
6-[(4-fluoranylcyclohexa-2,4-dien-1-yl)methyl]pyrido[2,3-d]pyrimidine-2,4-diamine
> <PUBCHEM_IUPAC_TRADITIONAL_NAME>
[2-amino-6-[(4-fluorocyclohexa-2,4-dien-1-yl)methyl]pyrido[2,3-d]pyrimidin-4-yl]amine
> <PUBCHEM_IUPAC_INCHI>
InChI=1S/C14H14FN5/c15-10-3-1-8(2-4-10)5-9-6-11-12(16)19-14(17)20-13(11)18-7-9/h1,3-4,6-8H,2,5H2,(H4,16,17,18,19,20)
> <PUBCHEM_IUPAC_INCHIKEY>
ISBXOBOVZGVZRT-UHFFFAOYSA-N
> <PUBCHEM_XLOGP3_AA>
1.9
> <PUBCHEM_EXACT_MASS>
271.12332363
> <PUBCHEM_MOLECULAR_FORMULA>
C14H14FN5
> <PUBCHEM_MOLECULAR_WEIGHT>
271.29
> <PUBCHEM_OPENEYE_CAN_SMILES>
C1C=C(C=CC1CC2=CC3=C(N=C(N=C3N=C2)N)N)F
> <PUBCHEM_OPENEYE_ISO_SMILES>
C1C=C(C=CC1CC2=CC3=C(N=C(N=C3N=C2)N)N)F
> <PUBCHEM_CACTVS_TPSA>
90.7
> <PUBCHEM_MONOISOTOPIC_WEIGHT>
271.12332363
> <PUBCHEM_TOTAL_CHARGE>
0
> <PUBCHEM_HEAVY_ATOM_COUNT>
20
> <PUBCHEM_ATOM_DEF_STEREO_COUNT>
0
> <PUBCHEM_ATOM_UDEF_STEREO_COUNT>
1
> <PUBCHEM_BOND_DEF_STEREO_COUNT>
0
> <PUBCHEM_BOND_UDEF_STEREO_COUNT>
0
> <PUBCHEM_ISOTOPIC_ATOM_COUNT>
0
> <PUBCHEM_COMPONENT_COUNT>
1
> <PUBCHEM_CACTVS_TAUTO_COUNT>
-1
> <PUBCHEM_COORDINATE_TYPE>
1
5
255
> <PUBCHEM_BONDANNOTATIONS>
10  13  8
10  17  8
13  15  8
15  18  8
15  19  8
2  17  8
2  18  8
3  18  8
3  20  8
4  19  8
4  20  8
7  8  3
$$$$
