501218
  -OEChem-10302200282D
 37 38  0     1  0  0  0  0  0999 V2000
    9.7942   -0.2500    0.0000 Cl  0  0  0  0  0  0  0  0  0  0  0  0
    6.3301   -0.2500    0.0000 S   0  0  0  0  0  0  0  0  0  0  0  0
    5.8301    0.6160    0.0000 O   0  0  0  0  0  0  0  0  0  0  0  0
    6.8301   -1.1160    0.0000 O   0  0  0  0  0  0  0  0  0  0  0  0
    8.0622   -1.2500    0.0000 O   0  5  0  0  0  0  0  0  0  0  0  0
    8.0622   -0.2500    0.0000 N   0  3  0  0  0  0  0  0  0  0  0  0
    5.4641   -0.7500    0.0000 C   0  0  3  0  0  0  0  0  0  0  0  0
    4.5981   -0.2500    0.0000 C   0  0  0  0  0  0  0  0  0  0  0  0
    5.4641   -1.7500    0.0000 C   0  0  0  0  0  0  0  0  0  0  0  0
    4.5981    0.7500    0.0000 C   0  0  0  0  0  0  0  0  0  0  0  0
    7.1962    0.2500    0.0000 C   0  0  0  0  0  0  0  0  0  0  0  0
    3.7320   -0.7500    0.0000 C   0  0  0  0  0  0  0  0  0  0  0  0
    2.8660   -0.2500    0.0000 C   0  0  0  0  0  0  0  0  0  0  0  0
    3.7320    1.2500    0.0000 C   0  0  0  0  0  0  0  0  0  0  0  0
    5.4641    1.2500    0.0000 C   0  0  0  0  0  0  0  0  0  0  0  0
    2.8660    0.7500    0.0000 C   0  0  0  0  0  0  0  0  0  0  0  0
    7.1962    1.2500    0.0000 C   0  0  0  0  0  0  0  0  0  0  0  0
    2.0000   -0.7500    0.0000 C   0  0  0  0  0  0  0  0  0  0  0  0
    8.9282    0.2500    0.0000 C   0  0  0  0  0  0  0  0  0  0  0  0
    8.0622    1.7500    0.0000 C   0  0  0  0  0  0  0  0  0  0  0  0
    8.9282    1.2500    0.0000 C   0  0  0  0  0  0  0  0  0  0  0  0
    6.0010   -1.0600    0.0000 H   0  0  0  0  0  0  0  0  0  0  0  0
    4.8441   -1.7500    0.0000 H   0  0  0  0  0  0  0  0  0  0  0  0
    5.4641   -2.3700    0.0000 H   0  0  0  0  0  0  0  0  0  0  0  0
    6.0841   -1.7500    0.0000 H   0  0  0  0  0  0  0  0  0  0  0  0
    3.7320   -1.3700    0.0000 H   0  0  0  0  0  0  0  0  0  0  0  0
    3.7320    1.8700    0.0000 H   0  0  0  0  0  0  0  0  0  0  0  0
    5.7741    0.7131    0.0000 H   0  0  0  0  0  0  0  0  0  0  0  0
    6.0010    1.5600    0.0000 H   0  0  0  0  0  0  0  0  0  0  0  0
    5.1541    1.7869    0.0000 H   0  0  0  0  0  0  0  0  0  0  0  0
    2.3291    1.0600    0.0000 H   0  0  0  0  0  0  0  0  0  0  0  0
    6.6592    1.5600    0.0000 H   0  0  0  0  0  0  0  0  0  0  0  0
    1.6900   -0.2131    0.0000 H   0  0  0  0  0  0  0  0  0  0  0  0
    1.4631   -1.0600    0.0000 H   0  0  0  0  0  0  0  0  0  0  0  0
    2.3100   -1.2869    0.0000 H   0  0  0  0  0  0  0  0  0  0  0  0
    8.0622    2.3700    0.0000 H   0  0  0  0  0  0  0  0  0  0  0  0
    9.4651    1.5600    0.0000 H   0  0  0  0  0  0  0  0  0  0  0  0
  1 19  1  0  0  0  0
  2  3  2  0  0  0  0
  2  4  2  0  0  0  0
  2  7  1  0  0  0  0
  2 11  1  0  0  0  0
  5  6  1  0  0  0  0
  6 11  2  0  0  0  0
  6 19  1  0  0  0  0
  7  8  1  0  0  0  0
  7  9  1  0  0  0  0
  7 22  1  0  0  0  0
  8 10  2  0  0  0  0
  8 12  1  0  0  0  0
  9 23  1  0  0  0  0
  9 24  1  0  0  0  0
  9 25  1  0  0  0  0
 10 14  1  0  0  0  0
 10 15  1  0  0  0  0
 11 17  1  0  0  0  0
 12 13  2  0  0  0  0
 12 26  1  0  0  0  0
 13 16  1  0  0  0  0
 13 18  1  0  0  0  0
 14 16  2  0  0  0  0
 14 27  1  0  0  0  0
 15 28  1  0  0  0  0
 15 29  1  0  0  0  0
 15 30  1  0  0  0  0
 16 31  1  0  0  0  0
 17 20  2  0  0  0  0
 17 32  1  0  0  0  0
 18 33  1  0  0  0  0
 18 34  1  0  0  0  0
 18 35  1  0  0  0  0
 19 21  2  0  0  0  0
 20 21  1  0  0  0  0
 20 36  1  0  0  0  0
 21 37  1  0  0  0  0
M  CHG  2   5  -1   6   1
M  END
> <PUBCHEM_COMPOUND_CID>
501218
> <PUBCHEM_COMPOUND_CANONICALIZED>
1
> <PUBCHEM_CACTVS_COMPLEXITY>
450
> <PUBCHEM_CACTVS_HBOND_ACCEPTOR>
3
> <PUBCHEM_CACTVS_HBOND_DONOR>
0
> <PUBCHEM_CACTVS_ROTATABLE_BOND>
3
> <PUBCHEM_CACTVS_SUBSKEYS>
AAADceByMABEAAAAAAAAAAAAAAAAAAAAAAA8QAAAAAAAAAABwAAAHAYEAAAADAKFWiCygZIYEAqgAiBiRHDK0CBhDzAomDgwZpoIIOLhk5GEIAhggADoyAcQgMAOwAACAAAQAACAAAQAACAAAAAAAAAAAA==
> <PUBCHEM_IUPAC_OPENEYE_NAME>
2-chloro-6-[1-(2,5-dimethylphenyl)ethylsulfonyl]-1-oxido-pyridin-1-ium
> <PUBCHEM_IUPAC_CAS_NAME>
2-chloro-6-[1-(2,5-dimethylphenyl)ethylsulfonyl]-1-oxidopyridin-1-ium
> <PUBCHEM_IUPAC_NAME_MARKUP>
2-chloro-6-[1-(2,5-dimethylphenyl)ethylsulfonyl]-1-oxidopyridin-1-ium
> <PUBCHEM_IUPAC_NAME>
2-chloro-6-[1-(2,5-dimethylphenyl)ethylsulfonyl]-1-oxidopyridin-1-ium
> <PUBCHEM_IUPAC_SYSTEMATIC_NAME>
2-chloranyl-6-[1-(2,5-dimethylphenyl)ethylsulfonyl]-1-oxidanidyl-pyridin-1-ium
> <PUBCHEM_IUPAC_TRADITIONAL_NAME>
2-chloro-6-[1-(2,5-dimethylphenyl)ethylsulfonyl]-1-oxido-pyridin-1-ium
> <PUBCHEM_IUPAC_INCHI>
InChI=1S/C15H16ClNO3S/c1-10-7-8-11(2)13(9-10)12(3)21(19,20)15-6-4-5-14(16)17(15)18/h4-9,12H,1-3H3
> <PUBCHEM_IUPAC_INCHIKEY>
HBBFBHDUTAFWEN-UHFFFAOYSA-N
> <PUBCHEM_XLOGP3_AA>
3
> <PUBCHEM_EXACT_MASS>
325.0539422
> <PUBCHEM_MOLECULAR_FORMULA>
C15H16ClNO3S
> <PUBCHEM_MOLECULAR_WEIGHT>
325.8
> <PUBCHEM_OPENEYE_CAN_SMILES>
CC1=CC(=C(C=C1)C)C(C)S(=O)(=O)C2=[N+](C(=CC=C2)Cl)[O-]
> <PUBCHEM_OPENEYE_ISO_SMILES>
CC1=CC(=C(C=C1)C)C(C)S(=O)(=O)C2=[N+](C(=CC=C2)Cl)[O-]
> <PUBCHEM_CACTVS_TPSA>
68
> <PUBCHEM_MONOISOTOPIC_WEIGHT>
325.0539422
> <PUBCHEM_TOTAL_CHARGE>
0
> <PUBCHEM_HEAVY_ATOM_COUNT>
21
> <PUBCHEM_ATOM_DEF_STEREO_COUNT>
0
> <PUBCHEM_ATOM_UDEF_STEREO_COUNT>
1
> <PUBCHEM_BOND_DEF_STEREO_COUNT>
0
> <PUBCHEM_BOND_UDEF_STEREO_COUNT>
0
> <PUBCHEM_ISOTOPIC_ATOM_COUNT>
0
> <PUBCHEM_COMPONENT_COUNT>
1
> <PUBCHEM_CACTVS_TAUTO_COUNT>
-1
> <PUBCHEM_COORDINATE_TYPE>
1
5
255
> <PUBCHEM_BONDANNOTATIONS>
10  14  8
11  17  8
12  13  8
13  16  8
14  16  8
17  20  8
19  21  8
20  21  8
6  11  8
6  19  8
7  9  3
8  10  8
8  12  8
$$$$
