501255
  -OEChem-10302200282D
 57 59  0     1  0  0  0  0  0999 V2000
    4.2865   -3.1452    0.0000 Br  0  0  0  0  0  0  0  0  0  0  0  0
    2.8262   -0.1129    0.0000 Br  0  0  0  0  0  0  0  0  0  0  0  0
   14.4515   -0.8171    0.0000 Br  0  0  0  0  0  0  0  0  0  0  0  0
   12.4153    1.9854    0.0000 Br  0  0  0  0  0  0  0  0  0  0  0  0
    6.5056   -1.8558    0.0000 O   0  0  0  0  0  0  0  0  0  0  0  0
    5.4840   -0.1458    0.0000 O   0  0  0  0  0  0  0  0  0  0  0  0
    6.1966    0.7133    0.0000 O   0  0  0  0  0  0  0  0  0  0  0  0
    2.8262   -1.9806    0.0000 O   0  0  0  0  0  0  0  0  0  0  0  0
    8.1612    1.0356    0.0000 O   0  0  0  0  0  0  0  0  0  0  0  0
   12.6244   -0.0036    0.0000 O   0  0  0  0  0  0  0  0  0  0  0  0
    7.4567   -1.5468    0.0000 N   0  0  0  0  0  0  0  0  0  0  0  0
    9.1792   -0.3657    0.0000 N   0  0  0  0  0  0  0  0  0  0  0  0
   17.5830    2.5286    0.0000 N   0  0  0  0  0  0  0  0  0  0  0  0
    5.9178   -1.0468    0.0000 C   0  0  3  0  0  0  0  0  0  0  0  0
    6.5056   -0.2377    0.0000 C   0  0  2  0  0  0  0  0  0  0  0  0
    5.4840   -1.9477    0.0000 C   0  0  0  0  0  0  0  0  0  0  0  0
    7.4567   -0.5468    0.0000 C   0  0  0  0  0  0  0  0  0  0  0  0
    4.5090   -2.1702    0.0000 C   0  0  0  0  0  0  0  0  0  0  0  0
    8.2657    0.0410    0.0000 C   0  0  0  0  0  0  0  0  0  0  0  0
    3.7272   -1.5468    0.0000 C   0  0  0  0  0  0  0  0  0  0  0  0
    4.5090    0.0767    0.0000 C   0  0  0  0  0  0  0  0  0  0  0  0
    9.9883    0.2221    0.0000 C   0  0  0  0  0  0  0  0  0  0  0  0
    3.7272   -0.5468    0.0000 C   0  0  0  0  0  0  0  0  0  0  0  0
   10.9018   -0.1847    0.0000 C   0  0  0  0  0  0  0  0  0  0  0  0
   11.7108    0.4031    0.0000 C   0  0  0  0  0  0  0  0  0  0  0  0
   13.4334    0.5842    0.0000 C   0  0  0  0  0  0  0  0  0  0  0  0
   15.0514    1.7597    0.0000 C   0  0  0  0  0  0  0  0  0  0  0  0
   15.8604    2.3475    0.0000 C   0  0  0  0  0  0  0  0  0  0  0  0
   14.3469    0.1774    0.0000 C   0  0  0  0  0  0  0  0  0  0  0  0
   13.3289    1.5787    0.0000 C   0  0  0  0  0  0  0  0  0  0  0  0
    2.0000   -1.4173    0.0000 C   0  0  0  0  0  0  0  0  0  0  0  0
   15.1560    0.7652    0.0000 C   0  0  0  0  0  0  0  0  0  0  0  0
   14.1379    2.1665    0.0000 C   0  0  0  0  0  0  0  0  0  0  0  0
   16.7740    1.9408    0.0000 C   0  0  0  0  0  0  0  0  0  0  0  0
    6.9440    0.2007    0.0000 H   0  0  0  0  0  0  0  0  0  0  0  0
    5.4840   -2.5677    0.0000 H   0  0  0  0  0  0  0  0  0  0  0  0
    6.0884   -2.0857    0.0000 H   0  0  0  0  0  0  0  0  0  0  0  0
    6.6115    1.1741    0.0000 H   0  0  0  0  0  0  0  0  0  0  0  0
    4.3711    0.6812    0.0000 H   0  0  0  0  0  0  0  0  0  0  0  0
    9.2441   -0.9823    0.0000 H   0  0  0  0  0  0  0  0  0  0  0  0
   10.3350    0.7361    0.0000 H   0  0  0  0  0  0  0  0  0  0  0  0
    9.5423    0.6528    0.0000 H   0  0  0  0  0  0  0  0  0  0  0  0
   10.5551   -0.6987    0.0000 H   0  0  0  0  0  0  0  0  0  0  0  0
   11.3478   -0.6154    0.0000 H   0  0  0  0  0  0  0  0  0  0  0  0
   12.0575    0.9171    0.0000 H   0  0  0  0  0  0  0  0  0  0  0  0
   11.2648    0.8338    0.0000 H   0  0  0  0  0  0  0  0  0  0  0  0
   16.2071    2.8615    0.0000 H   0  0  0  0  0  0  0  0  0  0  0  0
   15.4145    2.7782    0.0000 H   0  0  0  0  0  0  0  0  0  0  0  0
   15.7224    0.5130    0.0000 H   0  0  0  0  0  0  0  0  0  0  0  0
   14.0731    2.7831    0.0000 H   0  0  0  0  0  0  0  0  0  0  0  0
    2.3493   -0.9051    0.0000 H   0  0  0  0  0  0  0  0  0  0  0  0
    1.4877   -1.0681    0.0000 H   0  0  0  0  0  0  0  0  0  0  0  0
    1.6507   -1.9296    0.0000 H   0  0  0  0  0  0  0  0  0  0  0  0
   16.4273    1.4268    0.0000 H   0  0  0  0  0  0  0  0  0  0  0  0
   17.2200    1.5101    0.0000 H   0  0  0  0  0  0  0  0  0  0  0  0
   18.1494    2.2764    0.0000 H   0  0  0  0  0  0  0  0  0  0  0  0
   17.5182    3.1452    0.0000 H   0  0  0  0  0  0  0  0  0  0  0  0
  1 18  1  0  0  0  0
  2 23  1  0  0  0  0
  3 29  1  0  0  0  0
  4 30  1  0  0  0  0
  5 11  1  0  0  0  0
  5 14  1  0  0  0  0
  6 14  1  0  0  0  0
  6 21  1  0  0  0  0
 15  7  1  1  0  0  0
  7 38  1  0  0  0  0
  8 20  1  0  0  0  0
  8 31  1  0  0  0  0
  9 19  2  0  0  0  0
 10 25  1  0  0  0  0
 10 26  1  0  0  0  0
 11 17  2  0  0  0  0
 12 19  1  0  0  0  0
 12 22  1  0  0  0  0
 12 40  1  0  0  0  0
 13 34  1  0  0  0  0
 13 56  1  0  0  0  0
 13 57  1  0  0  0  0
 14 15  1  0  0  0  0
 14 16  1  0  0  0  0
 15 17  1  0  0  0  0
 15 35  1  0  0  0  0
 16 18  1  0  0  0  0
 16 36  1  0  0  0  0
 16 37  1  0  0  0  0
 17 19  1  0  0  0  0
 18 20  2  0  0  0  0
 20 23  1  0  0  0  0
 21 23  2  0  0  0  0
 21 39  1  0  0  0  0
 22 24  1  0  0  0  0
 22 41  1  0  0  0  0
 22 42  1  0  0  0  0
 24 25  1  0  0  0  0
 24 43  1  0  0  0  0
 24 44  1  0  0  0  0
 25 45  1  0  0  0  0
 25 46  1  0  0  0  0
 26 29  2  0  0  0  0
 26 30  1  0  0  0  0
 27 28  1  0  0  0  0
 27 32  2  0  0  0  0
 27 33  1  0  0  0  0
 28 34  1  0  0  0  0
 28 47  1  0  0  0  0
 28 48  1  0  0  0  0
 29 32  1  0  0  0  0
 30 33  2  0  0  0  0
 31 51  1  0  0  0  0
 31 52  1  0  0  0  0
 31 53  1  0  0  0  0
 32 49  1  0  0  0  0
 33 50  1  0  0  0  0
 34 54  1  0  0  0  0
 34 55  1  0  0  0  0
M  END
> <PUBCHEM_COMPOUND_CID>
501255
> <PUBCHEM_COMPOUND_CANONICALIZED>
1
> <PUBCHEM_CACTVS_COMPLEXITY>
829
> <PUBCHEM_CACTVS_HBOND_ACCEPTOR>
8
> <PUBCHEM_CACTVS_HBOND_DONOR>
3
> <PUBCHEM_CACTVS_ROTATABLE_BOND>
9
> <PUBCHEM_CACTVS_SUBSKEYS>
AAADceB7OAAAHAAAAAAAAAAAAAAAAQAAAAAwAAAABAAAAAABAAAAHgBUCAABrBzhmAYyDoLQBgCoAyFyEAQCCAAgIAQAiIE8CKgdNjaEsRuGeCCm9hGLqhe6yIAOIAAAEAAgBABAAAAgAEAIAAAAAAAAAA==
> <PUBCHEM_IUPAC_OPENEYE_NAME>
(4S)-N-[3-[4-(2-aminoethyl)-2,6-dibromo-phenoxy]propyl]-7,9-dibromo-4-hydroxy-8-methoxy-1,11-dioxa-2-azaspiro[4.6]undeca-2,7,9-triene-3-carboxamide
> <PUBCHEM_IUPAC_CAS_NAME>
(4S)-N-[3-[4-(2-aminoethyl)-2,6-dibromophenoxy]propyl]-7,9-dibromo-4-hydroxy-8-methoxy-1,11-dioxa-2-azaspiro[4.6]undeca-2,7,9-triene-3-carboxamide
> <PUBCHEM_IUPAC_NAME_MARKUP>
(4<I>S</I>)-<I>N</I>-[3-[4-(2-aminoethyl)-2,6-dibromophenoxy]propyl]-7,9-dibromo-4-hydroxy-8-methoxy-1,11-dioxa-2-azaspiro[4.6]undeca-2,7,9-triene-3-carboxamide
> <PUBCHEM_IUPAC_NAME>
(4S)-N-[3-[4-(2-aminoethyl)-2,6-dibromophenoxy]propyl]-7,9-dibromo-4-hydroxy-8-methoxy-1,11-dioxa-2-azaspiro[4.6]undeca-2,7,9-triene-3-carboxamide
> <PUBCHEM_IUPAC_SYSTEMATIC_NAME>
(4S)-N-[3-[4-(2-azanylethyl)-2,6-bis(bromanyl)phenoxy]propyl]-7,9-bis(bromanyl)-8-methoxy-4-oxidanyl-1,11-dioxa-2-azaspiro[4.6]undeca-2,7,9-triene-3-carboxamide
> <PUBCHEM_IUPAC_TRADITIONAL_NAME>
(4S)-N-[3-[4-(2-aminoethyl)-2,6-dibromo-phenoxy]propyl]-7,9-dibromo-4-hydroxy-8-methoxy-1,11-dioxa-2-azaspiro[4.6]undeca-2,7,9-triene-3-carboxamide
> <PUBCHEM_IUPAC_INCHI>
InChI=1S/C21H23Br4N3O6/c1-31-17-14(24)9-21(33-10-15(17)25)19(29)16(28-34-21)20(30)27-5-2-6-32-18-12(22)7-11(3-4-26)8-13(18)23/h7-8,10,19,29H,2-6,9,26H2,1H3,(H,27,30)/t19-,21?/m0/s1
> <PUBCHEM_IUPAC_INCHIKEY>
XVHHFAJHWSIGJS-ZQRQZVKFSA-N
> <PUBCHEM_XLOGP3_AA>
4.1
> <PUBCHEM_EXACT_MASS>
732.82794
> <PUBCHEM_MOLECULAR_FORMULA>
C21H23Br4N3O6
> <PUBCHEM_MOLECULAR_WEIGHT>
733.0
> <PUBCHEM_OPENEYE_CAN_SMILES>
COC1=C(CC2(C(C(=NO2)C(=O)NCCCOC3=C(C=C(C=C3Br)CCN)Br)O)OC=C1Br)Br
> <PUBCHEM_OPENEYE_ISO_SMILES>
COC1=C(CC2([C@H](C(=NO2)C(=O)NCCCOC3=C(C=C(C=C3Br)CCN)Br)O)OC=C1Br)Br
> <PUBCHEM_CACTVS_TPSA>
125
> <PUBCHEM_MONOISOTOPIC_WEIGHT>
728.83204
> <PUBCHEM_TOTAL_CHARGE>
0
> <PUBCHEM_HEAVY_ATOM_COUNT>
34
> <PUBCHEM_ATOM_DEF_STEREO_COUNT>
1
> <PUBCHEM_ATOM_UDEF_STEREO_COUNT>
1
> <PUBCHEM_BOND_DEF_STEREO_COUNT>
0
> <PUBCHEM_BOND_UDEF_STEREO_COUNT>
0
> <PUBCHEM_ISOTOPIC_ATOM_COUNT>
0
> <PUBCHEM_COMPONENT_COUNT>
1
> <PUBCHEM_CACTVS_TAUTO_COUNT>
-1
> <PUBCHEM_COORDINATE_TYPE>
1
5
255
> <PUBCHEM_BONDANNOTATIONS>
14  16  3
26  29  8
26  30  8
27  32  8
27  33  8
29  32  8
30  33  8
15  7  5
$$$$
