501260
  -OEChem-10302200282D
 42 44  0     1  0  0  0  0  0999 V2000
    2.8834    1.9966    0.0000 O   0  0  0  0  0  0  0  0  0  0  0  0
    2.8680   -2.0033    0.0000 O   0  0  0  0  0  0  0  0  0  0  0  0
    6.3817   -1.0688    0.0000 N   0  0  0  0  0  0  0  0  0  0  0  0
    8.1417   -1.0342    0.0000 N   0  0  0  0  0  0  0  0  0  0  0  0
    9.0077    0.4658    0.0000 N   0  0  0  0  0  0  0  0  0  0  0  0
    8.1417    1.9658    0.0000 N   0  0  0  0  0  0  0  0  0  0  0  0
    9.8737   -1.0342    0.0000 N   0  0  0  0  0  0  0  0  0  0  0  0
    3.7436    0.4933    0.0000 C   0  0  3  0  0  0  0  0  0  0  0  0
    4.6116    0.9900    0.0000 C   0  0  0  0  0  0  0  0  0  0  0  0
    3.7398   -0.5067    0.0000 C   0  0  0  0  0  0  0  0  0  0  0  0
    2.8795    0.9967    0.0000 C   0  0  0  0  0  0  0  0  0  0  0  0
    5.4756    0.4866    0.0000 C   0  0  0  0  0  0  0  0  0  0  0  0
    2.8718   -1.0033    0.0000 C   0  0  0  0  0  0  0  0  0  0  0  0
    2.0116    0.5000    0.0000 C   0  0  0  0  0  0  0  0  0  0  0  0
    2.0077   -0.5000    0.0000 C   0  0  0  0  0  0  0  0  0  0  0  0
    6.3817    1.0005    0.0000 C   0  0  0  0  0  0  0  0  0  0  0  0
    5.4756   -0.5550    0.0000 C   0  0  0  0  0  0  0  0  0  0  0  0
    7.2756    0.4658    0.0000 C   0  0  0  0  0  0  0  0  0  0  0  0
    7.2756   -0.5342    0.0000 C   0  0  0  0  0  0  0  0  0  0  0  0
    8.1417    0.9658    0.0000 C   0  0  0  0  0  0  0  0  0  0  0  0
    2.0193    2.5000    0.0000 C   0  0  0  0  0  0  0  0  0  0  0  0
    2.0000   -2.5000    0.0000 C   0  0  0  0  0  0  0  0  0  0  0  0
    9.0077   -0.5342    0.0000 C   0  0  0  0  0  0  0  0  0  0  0  0
    4.2793    0.1813    0.0000 H   0  0  0  0  0  0  0  0  0  0  0  0
    5.0119    1.4634    0.0000 H   0  0  0  0  0  0  0  0  0  0  0  0
    4.2148    1.4665    0.0000 H   0  0  0  0  0  0  0  0  0  0  0  0
    3.9496   -1.0901    0.0000 H   0  0  0  0  0  0  0  0  0  0  0  0
    4.3507   -0.4014    0.0000 H   0  0  0  0  0  0  0  0  0  0  0  0
    1.4758    0.8121    0.0000 H   0  0  0  0  0  0  0  0  0  0  0  0
    1.4696   -0.8079    0.0000 H   0  0  0  0  0  0  0  0  0  0  0  0
    6.3889    1.6204    0.0000 H   0  0  0  0  0  0  0  0  0  0  0  0
    4.9399   -0.8671    0.0000 H   0  0  0  0  0  0  0  0  0  0  0  0
    2.3313    3.0357    0.0000 H   0  0  0  0  0  0  0  0  0  0  0  0
    1.4835    2.8120    0.0000 H   0  0  0  0  0  0  0  0  0  0  0  0
    1.7072    1.9642    0.0000 H   0  0  0  0  0  0  0  0  0  0  0  0
    1.6921   -1.9618    0.0000 H   0  0  0  0  0  0  0  0  0  0  0  0
    1.4619   -2.8079    0.0000 H   0  0  0  0  0  0  0  0  0  0  0  0
    2.3079   -3.0381    0.0000 H   0  0  0  0  0  0  0  0  0  0  0  0
    8.6786    2.2758    0.0000 H   0  0  0  0  0  0  0  0  0  0  0  0
    7.6047    2.2758    0.0000 H   0  0  0  0  0  0  0  0  0  0  0  0
    9.8737   -1.6542    0.0000 H   0  0  0  0  0  0  0  0  0  0  0  0
   10.4107   -0.7242    0.0000 H   0  0  0  0  0  0  0  0  0  0  0  0
  1 11  1  0  0  0  0
  1 21  1  0  0  0  0
  2 13  1  0  0  0  0
  2 22  1  0  0  0  0
  3 17  2  0  0  0  0
  3 19  1  0  0  0  0
  4 19  2  0  0  0  0
  4 23  1  0  0  0  0
  5 20  1  0  0  0  0
  5 23  2  0  0  0  0
  6 20  1  0  0  0  0
  6 39  1  0  0  0  0
  6 40  1  0  0  0  0
  7 23  1  0  0  0  0
  7 41  1  0  0  0  0
  7 42  1  0  0  0  0
  8  9  1  0  0  0  0
  8 10  1  0  0  0  0
  8 11  1  0  0  0  0
  8 24  1  0  0  0  0
  9 12  1  0  0  0  0
  9 25  1  0  0  0  0
  9 26  1  0  0  0  0
 10 13  1  0  0  0  0
 10 27  1  0  0  0  0
 10 28  1  0  0  0  0
 11 14  2  0  0  0  0
 12 16  2  0  0  0  0
 12 17  1  0  0  0  0
 13 15  2  0  0  0  0
 14 15  1  0  0  0  0
 14 29  1  0  0  0  0
 15 30  1  0  0  0  0
 16 18  1  0  0  0  0
 16 31  1  0  0  0  0
 17 32  1  0  0  0  0
 18 19  1  0  0  0  0
 18 20  2  0  0  0  0
 21 33  1  0  0  0  0
 21 34  1  0  0  0  0
 21 35  1  0  0  0  0
 22 36  1  0  0  0  0
 22 37  1  0  0  0  0
 22 38  1  0  0  0  0
M  END
> <PUBCHEM_COMPOUND_CID>
501260
> <PUBCHEM_COMPOUND_CANONICALIZED>
1
> <PUBCHEM_CACTVS_COMPLEXITY>
481
> <PUBCHEM_CACTVS_HBOND_ACCEPTOR>
7
> <PUBCHEM_CACTVS_HBOND_DONOR>
2
> <PUBCHEM_CACTVS_ROTATABLE_BOND>
4
> <PUBCHEM_CACTVS_SUBSKEYS>
AAADceB7sAAAAAAAAAAAAAAAAAAAAAAAAAAsWIAAAAAAAACx+AAAHgAQAAAADQTBmwY/sN5IFACgAjJnZACCiCkxIKAB2CAoRJiIKOLA2dGEJAhsgALIyCfQ0PIOAAAAAAAAAAAAAAAAAAAAAAAAAAAAAA==
> <PUBCHEM_IUPAC_OPENEYE_NAME>
6-[(2,5-dimethoxycyclohexa-2,4-dien-1-yl)methyl]pyrido[2,3-d]pyrimidine-2,4-diamine
> <PUBCHEM_IUPAC_CAS_NAME>
6-[(2,5-dimethoxy-1-cyclohexa-2,4-dienyl)methyl]pyrido[2,3-d]pyrimidine-2,4-diamine
> <PUBCHEM_IUPAC_NAME_MARKUP>
6-[(2,5-dimethoxycyclohexa-2,4-dien-1-yl)methyl]pyrido[2,3-d]pyrimidine-2,4-diamine
> <PUBCHEM_IUPAC_NAME>
6-[(2,5-dimethoxycyclohexa-2,4-dien-1-yl)methyl]pyrido[2,3-d]pyrimidine-2,4-diamine
> <PUBCHEM_IUPAC_SYSTEMATIC_NAME>
6-[(2,5-dimethoxycyclohexa-2,4-dien-1-yl)methyl]pyrido[2,3-d]pyrimidine-2,4-diamine
> <PUBCHEM_IUPAC_TRADITIONAL_NAME>
[2-amino-6-[(2,5-dimethoxycyclohexa-2,4-dien-1-yl)methyl]pyrido[2,3-d]pyrimidin-4-yl]amine
> <PUBCHEM_IUPAC_INCHI>
InChI=1S/C16H19N5O2/c1-22-11-3-4-13(23-2)10(7-11)5-9-6-12-14(17)20-16(18)21-15(12)19-8-9/h3-4,6,8,10H,5,7H2,1-2H3,(H4,17,18,19,20,21)
> <PUBCHEM_IUPAC_INCHIKEY>
QUVSSXLWPVXGEV-UHFFFAOYSA-N
> <PUBCHEM_XLOGP3_AA>
1.5
> <PUBCHEM_EXACT_MASS>
313.15387487
> <PUBCHEM_MOLECULAR_FORMULA>
C16H19N5O2
> <PUBCHEM_MOLECULAR_WEIGHT>
313.35
> <PUBCHEM_OPENEYE_CAN_SMILES>
COC1=CC=C(C(C1)CC2=CC3=C(N=C(N=C3N=C2)N)N)OC
> <PUBCHEM_OPENEYE_ISO_SMILES>
COC1=CC=C(C(C1)CC2=CC3=C(N=C(N=C3N=C2)N)N)OC
> <PUBCHEM_CACTVS_TPSA>
109
> <PUBCHEM_MONOISOTOPIC_WEIGHT>
313.15387487
> <PUBCHEM_TOTAL_CHARGE>
0
> <PUBCHEM_HEAVY_ATOM_COUNT>
23
> <PUBCHEM_ATOM_DEF_STEREO_COUNT>
0
> <PUBCHEM_ATOM_UDEF_STEREO_COUNT>
1
> <PUBCHEM_BOND_DEF_STEREO_COUNT>
0
> <PUBCHEM_BOND_UDEF_STEREO_COUNT>
0
> <PUBCHEM_ISOTOPIC_ATOM_COUNT>
0
> <PUBCHEM_COMPONENT_COUNT>
1
> <PUBCHEM_CACTVS_TAUTO_COUNT>
-1
> <PUBCHEM_COORDINATE_TYPE>
1
5
255
> <PUBCHEM_BONDANNOTATIONS>
12  16  8
12  17  8
16  18  8
18  19  8
18  20  8
3  17  8
3  19  8
4  19  8
4  23  8
5  20  8
5  23  8
8  9  3
$$$$
