501253
  -OEChem-10302200282D
104107  0     1  0  0  0  0  0999 V2000
    7.5673    0.6127    0.0000 P   0  0  0  0  0  0  0  0  0  0  0  0
    7.8779   -0.3378    0.0000 O   0  0  0  0  0  0  0  0  0  0  0  0
    8.5178    0.9234    0.0000 O   0  0  0  0  0  0  0  0  0  0  0  0
    6.2781    1.7695    0.0000 O   0  0  0  0  0  0  0  0  0  0  0  0
    6.6168    0.3021    0.0000 O   0  0  0  0  0  0  0  0  0  0  0  0
   10.0991   -4.3461    0.0000 O   0  0  0  0  0  0  0  0  0  0  0  0
   12.5261    3.1445    0.0000 O   0  0  0  0  0  0  0  0  0  0  0  0
   10.8134   -0.9565    0.0000 O   0  0  0  0  0  0  0  0  0  0  0  0
    7.4416    4.2161    0.0000 O   0  0  0  0  0  0  0  0  0  0  0  0
    8.4527   -4.8842    0.0000 O   0  0  0  0  0  0  0  0  0  0  0  0
   11.9880    4.7909    0.0000 O   0  0  0  0  0  0  0  0  0  0  0  0
   11.1706    0.7384    0.0000 O   0  0  0  0  0  0  0  0  0  0  0  0
    9.1364    3.8589    0.0000 O   0  0  0  0  0  0  0  0  0  0  0  0
    4.6783    3.8767    0.0000 N   0  0  0  0  0  0  0  0  0  0  0  0
    4.6783    5.4862    0.0000 N   0  0  0  0  0  0  0  0  0  0  0  0
    2.8660    3.6814    0.0000 N   0  0  0  0  0  0  0  0  0  0  0  0
    2.0000    5.1814    0.0000 N   0  0  0  0  0  0  0  0  0  0  0  0
    2.8660    6.6814    0.0000 N   0  0  0  0  0  0  0  0  0  0  0  0
    8.8564   -0.5440    0.0000 C   0  0  3  0  0  0  0  0  0  0  0  0
    8.7240    1.9019    0.0000 C   0  0  3  0  0  0  0  0  0  0  0  0
    7.2566    1.5632    0.0000 C   0  0  0  0  0  0  0  0  0  0  0  0
    9.1671   -1.4945    0.0000 C   0  0  0  0  0  0  0  0  0  0  0  0
    9.6745    2.2125    0.0000 C   0  0  0  0  0  0  0  0  0  0  0  0
    9.5243    0.2003    0.0000 C   0  0  0  0  0  0  0  0  0  0  0  0
    7.9797    2.5697    0.0000 C   0  0  0  0  0  0  0  0  0  0  0  0
    9.7419   -6.0409    0.0000 C   0  0  0  0  0  0  0  0  0  0  0  0
   13.6828    4.4337    0.0000 C   0  0  0  0  0  0  0  0  0  0  0  0
    8.4993   -2.2388    0.0000 C   0  0  0  0  0  0  0  0  0  0  0  0
   10.4188    1.5447    0.0000 C   0  0  0  0  0  0  0  0  0  0  0  0
   10.1456   -1.7008    0.0000 C   0  0  0  0  0  0  0  0  0  0  0  0
    9.8808    3.1910    0.0000 C   0  0  0  0  0  0  0  0  0  0  0  0
    5.9674    2.7200    0.0000 C   0  0  0  0  0  0  0  0  0  0  0  0
    4.9889    2.9262    0.0000 C   0  0  0  0  0  0  0  0  0  0  0  0
    9.7884   -3.3956    0.0000 C   0  0  0  0  0  0  0  0  0  0  0  0
   11.5756    2.8339    0.0000 C   0  0  0  0  0  0  0  0  0  0  0  0
    8.8099   -3.1894    0.0000 C   0  0  0  0  0  0  0  0  0  0  0  0
   11.3694    1.8554    0.0000 C   0  0  0  0  0  0  0  0  0  0  0  0
   10.4563   -2.6513    0.0000 C   0  0  0  0  0  0  0  0  0  0  0  0
   10.8313    3.5017    0.0000 C   0  0  0  0  0  0  0  0  0  0  0  0
    9.4312   -5.0904    0.0000 C   0  0  0  0  0  0  0  0  0  0  0  0
   12.7323    4.1230    0.0000 C   0  0  0  0  0  0  0  0  0  0  0  0
   10.0526   -6.9914    0.0000 C   0  0  0  0  0  0  0  0  0  0  0  0
    8.7914   -6.3516    0.0000 C   0  0  0  0  0  0  0  0  0  0  0  0
   10.6924   -5.7303    0.0000 C   0  0  0  0  0  0  0  0  0  0  0  0
   14.6333    4.7444    0.0000 C   0  0  0  0  0  0  0  0  0  0  0  0
   13.3722    5.3842    0.0000 C   0  0  0  0  0  0  0  0  0  0  0  0
   13.9935    3.4832    0.0000 C   0  0  0  0  0  0  0  0  0  0  0  0
   10.5028   -0.0059    0.0000 C   0  0  0  0  0  0  0  0  0  0  0  0
    8.1859    3.5482    0.0000 C   0  0  0  0  0  0  0  0  0  0  0  0
    3.7320    4.1814    0.0000 C   0  0  0  0  0  0  0  0  0  0  0  0
    5.2619    4.6814    0.0000 C   0  0  0  0  0  0  0  0  0  0  0  0
    3.7320    5.1814    0.0000 C   0  0  0  0  0  0  0  0  0  0  0  0
    2.8660    5.6814    0.0000 C   0  0  0  0  0  0  0  0  0  0  0  0
   11.7920   -1.1627    0.0000 C   0  0  0  0  0  0  0  0  0  0  0  0
    7.6478    5.1946    0.0000 C   0  0  0  0  0  0  0  0  0  0  0  0
    2.0000    4.1814    0.0000 C   0  0  0  0  0  0  0  0  0  0  0  0
    8.6638    0.0453    0.0000 H   0  0  0  0  0  0  0  0  0  0  0  0
    9.1855    1.4878    0.0000 H   0  0  0  0  0  0  0  0  0  0  0  0
    7.8704    1.6506    0.0000 H   0  0  0  0  0  0  0  0  0  0  0  0
    7.2772    2.1829    0.0000 H   0  0  0  0  0  0  0  0  0  0  0  0
    9.7555    0.7755    0.0000 H   0  0  0  0  0  0  0  0  0  0  0  0
    8.9979    0.5279    0.0000 H   0  0  0  0  0  0  0  0  0  0  0  0
    7.4044    2.8010    0.0000 H   0  0  0  0  0  0  0  0  0  0  0  0
    7.6521    2.0434    0.0000 H   0  0  0  0  0  0  0  0  0  0  0  0
    7.8926   -2.1110    0.0000 H   0  0  0  0  0  0  0  0  0  0  0  0
   10.2910    0.9380    0.0000 H   0  0  0  0  0  0  0  0  0  0  0  0
   10.5597   -1.2393    0.0000 H   0  0  0  0  0  0  0  0  0  0  0  0
    9.4193    3.6051    0.0000 H   0  0  0  0  0  0  0  0  0  0  0  0
    6.5812    2.8073    0.0000 H   0  0  0  0  0  0  0  0  0  0  0  0
    5.9880    3.3396    0.0000 H   0  0  0  0  0  0  0  0  0  0  0  0
    4.3751    2.8388    0.0000 H   0  0  0  0  0  0  0  0  0  0  0  0
    4.9684    2.3065    0.0000 H   0  0  0  0  0  0  0  0  0  0  0  0
    8.3958   -3.6508    0.0000 H   0  0  0  0  0  0  0  0  0  0  0  0
   11.8308    1.4413    0.0000 H   0  0  0  0  0  0  0  0  0  0  0  0
   11.0629   -2.7791    0.0000 H   0  0  0  0  0  0  0  0  0  0  0  0
   10.9591    4.1084    0.0000 H   0  0  0  0  0  0  0  0  0  0  0  0
    9.4632   -7.1841    0.0000 H   0  0  0  0  0  0  0  0  0  0  0  0
   10.2452   -7.5808    0.0000 H   0  0  0  0  0  0  0  0  0  0  0  0
   10.6419   -6.7988    0.0000 H   0  0  0  0  0  0  0  0  0  0  0  0
    8.5988   -5.7623    0.0000 H   0  0  0  0  0  0  0  0  0  0  0  0
    8.2021   -6.5442    0.0000 H   0  0  0  0  0  0  0  0  0  0  0  0
    8.9840   -6.9409    0.0000 H   0  0  0  0  0  0  0  0  0  0  0  0
   10.8850   -6.3196    0.0000 H   0  0  0  0  0  0  0  0  0  0  0  0
   11.2817   -5.5376    0.0000 H   0  0  0  0  0  0  0  0  0  0  0  0
   10.4998   -5.1409    0.0000 H   0  0  0  0  0  0  0  0  0  0  0  0
   14.8260    4.1550    0.0000 H   0  0  0  0  0  0  0  0  0  0  0  0
   15.2227    4.9370    0.0000 H   0  0  0  0  0  0  0  0  0  0  0  0
   14.4407    5.3337    0.0000 H   0  0  0  0  0  0  0  0  0  0  0  0
   13.9615    5.5768    0.0000 H   0  0  0  0  0  0  0  0  0  0  0  0
   13.1796    5.9735    0.0000 H   0  0  0  0  0  0  0  0  0  0  0  0
   12.7828    5.1916    0.0000 H   0  0  0  0  0  0  0  0  0  0  0  0
   13.4042    3.2906    0.0000 H   0  0  0  0  0  0  0  0  0  0  0  0
   14.1861    2.8939    0.0000 H   0  0  0  0  0  0  0  0  0  0  0  0
   14.5828    3.6758    0.0000 H   0  0  0  0  0  0  0  0  0  0  0  0
    5.8819    4.6814    0.0000 H   0  0  0  0  0  0  0  0  0  0  0  0
   11.6641   -1.7694    0.0000 H   0  0  0  0  0  0  0  0  0  0  0  0
   12.3986   -1.2905    0.0000 H   0  0  0  0  0  0  0  0  0  0  0  0
   11.9198   -0.5560    0.0000 H   0  0  0  0  0  0  0  0  0  0  0  0
    8.2545    5.0667    0.0000 H   0  0  0  0  0  0  0  0  0  0  0  0
    7.7757    5.8013    0.0000 H   0  0  0  0  0  0  0  0  0  0  0  0
    7.0412    5.3224    0.0000 H   0  0  0  0  0  0  0  0  0  0  0  0
    1.4631    3.8714    0.0000 H   0  0  0  0  0  0  0  0  0  0  0  0
    2.3291    6.9914    0.0000 H   0  0  0  0  0  0  0  0  0  0  0  0
    3.4030    6.9914    0.0000 H   0  0  0  0  0  0  0  0  0  0  0  0
  1  2  1  0  0  0  0
  1  3  1  0  0  0  0
  1  5  2  0  0  0  0
  1 21  1  0  0  0  0
  2 19  1  0  0  0  0
  3 20  1  0  0  0  0
  4 21  1  0  0  0  0
  4 32  1  0  0  0  0
  6 34  1  0  0  0  0
  6 40  1  0  0  0  0
  7 35  1  0  0  0  0
  7 41  1  0  0  0  0
  8 48  1  0  0  0  0
  8 54  1  0  0  0  0
  9 49  1  0  0  0  0
  9 55  1  0  0  0  0
 10 40  2  0  0  0  0
 11 41  2  0  0  0  0
 12 48  2  0  0  0  0
 13 49  2  0  0  0  0
 14 33  1  0  0  0  0
 14 50  1  0  0  0  0
 14 51  1  0  0  0  0
 15 51  2  0  0  0  0
 15 52  1  0  0  0  0
 16 50  2  0  0  0  0
 16 56  1  0  0  0  0
 17 53  1  0  0  0  0
 17 56  2  0  0  0  0
 18 53  1  0  0  0  0
 18103  1  0  0  0  0
 18104  1  0  0  0  0
 19 22  1  0  0  0  0
 19 24  1  0  0  0  0
 19 57  1  0  0  0  0
 20 23  1  0  0  0  0
 20 25  1  0  0  0  0
 20 58  1  0  0  0  0
 21 59  1  0  0  0  0
 21 60  1  0  0  0  0
 22 28  2  0  0  0  0
 22 30  1  0  0  0  0
 23 29  2  0  0  0  0
 23 31  1  0  0  0  0
 24 48  1  0  0  0  0
 24 61  1  0  0  0  0
 24 62  1  0  0  0  0
 25 49  1  0  0  0  0
 25 63  1  0  0  0  0
 25 64  1  0  0  0  0
 26 40  1  0  0  0  0
 26 42  1  0  0  0  0
 26 43  1  0  0  0  0
 26 44  1  0  0  0  0
 27 41  1  0  0  0  0
 27 45  1  0  0  0  0
 27 46  1  0  0  0  0
 27 47  1  0  0  0  0
 28 36  1  0  0  0  0
 28 65  1  0  0  0  0
 29 37  1  0  0  0  0
 29 66  1  0  0  0  0
 30 38  2  0  0  0  0
 30 67  1  0  0  0  0
 31 39  2  0  0  0  0
 31 68  1  0  0  0  0
 32 33  1  0  0  0  0
 32 69  1  0  0  0  0
 32 70  1  0  0  0  0
 33 71  1  0  0  0  0
 33 72  1  0  0  0  0
 34 36  2  0  0  0  0
 34 38  1  0  0  0  0
 35 37  2  0  0  0  0
 35 39  1  0  0  0  0
 36 73  1  0  0  0  0
 37 74  1  0  0  0  0
 38 75  1  0  0  0  0
 39 76  1  0  0  0  0
 42 77  1  0  0  0  0
 42 78  1  0  0  0  0
 42 79  1  0  0  0  0
 43 80  1  0  0  0  0
 43 81  1  0  0  0  0
 43 82  1  0  0  0  0
 44 83  1  0  0  0  0
 44 84  1  0  0  0  0
 44 85  1  0  0  0  0
 45 86  1  0  0  0  0
 45 87  1  0  0  0  0
 45 88  1  0  0  0  0
 46 89  1  0  0  0  0
 46 90  1  0  0  0  0
 46 91  1  0  0  0  0
 47 92  1  0  0  0  0
 47 93  1  0  0  0  0
 47 94  1  0  0  0  0
 50 52  1  0  0  0  0
 51 95  1  0  0  0  0
 52 53  2  0  0  0  0
 54 96  1  0  0  0  0
 54 97  1  0  0  0  0
 54 98  1  0  0  0  0
 55 99  1  0  0  0  0
 55100  1  0  0  0  0
 55101  1  0  0  0  0
 56102  1  0  0  0  0
M  END
> <PUBCHEM_COMPOUND_CID>
501253
> <PUBCHEM_COMPOUND_CANONICALIZED>
1
> <PUBCHEM_CACTVS_COMPLEXITY>
1280
> <PUBCHEM_CACTVS_HBOND_ACCEPTOR>
16
> <PUBCHEM_CACTVS_HBOND_DONOR>
1
> <PUBCHEM_CACTVS_ROTATABLE_BOND>
23
> <PUBCHEM_CACTVS_SUBSKEYS>
AAADcfB/vAIAAAAAAAAAAAAAAAAAAWAAAAA8YIAAAAAAAFgB/AAAHggQACAADhzhnwY3/r9MFRCoQybzbICCiC0xMKAJ2CEuXJiObjbEeVqXPiit4BPYqCeI6KyOIAAAAAAAAABAAAAAAAAAAAAAAAAAAA==
> <PUBCHEM_IUPAC_OPENEYE_NAME>
[4-[1-[2-(6-aminopurin-9-yl)ethoxymethyl-[1-[4-(2,2-dimethylpropanoyloxy)phenyl]-3-methoxy-3-oxo-propoxy]phosphoryl]oxy-3-methoxy-3-oxo-propyl]phenyl] 2,2-dimethylpropanoate
> <PUBCHEM_IUPAC_CAS_NAME>
2,2-dimethylpropanoic acid [4-[1-[2-(6-aminopurin-9-yl)ethoxymethyl-[1-[4-(2,2-dimethyl-1-oxopropoxy)phenyl]-3-methoxy-3-oxopropoxy]phosphoryl]oxy-3-methoxy-3-oxopropyl]phenyl] ester
> <PUBCHEM_IUPAC_NAME_MARKUP>
[4-[1-[2-(6-aminopurin-9-yl)ethoxymethyl-[1-[4-(2,2-dimethylpropanoyloxy)phenyl]-3-methoxy-3-oxopropoxy]phosphoryl]oxy-3-methoxy-3-oxopropyl]phenyl] 2,2-dimethylpropanoate
> <PUBCHEM_IUPAC_NAME>
[4-[1-[2-(6-aminopurin-9-yl)ethoxymethyl-[1-[4-(2,2-dimethylpropanoyloxy)phenyl]-3-methoxy-3-oxopropoxy]phosphoryl]oxy-3-methoxy-3-oxopropyl]phenyl] 2,2-dimethylpropanoate
> <PUBCHEM_IUPAC_SYSTEMATIC_NAME>
[4-[1-[2-(6-aminopurin-9-yl)ethoxymethyl-[1-[4-(2,2-dimethylpropanoyloxy)phenyl]-3-methoxy-3-oxidanylidene-propoxy]phosphoryl]oxy-3-methoxy-3-oxidanylidene-propyl]phenyl] 2,2-dimethylpropanoate
> <PUBCHEM_IUPAC_TRADITIONAL_NAME>
2,2-dimethylpropionic acid [4-[1-[2-adenin-9-ylethoxymethyl-[3-keto-3-methoxy-1-(4-pivaloyloxyphenyl)propoxy]phosphoryl]oxy-3-keto-3-methoxy-propyl]phenyl] ester
> <PUBCHEM_IUPAC_INCHI>
InChI=1S/C38H48N5O12P/c1-37(2,3)35(46)52-26-13-9-24(10-14-26)28(19-30(44)49-7)54-56(48,23-51-18-17-43-22-42-32-33(39)40-21-41-34(32)43)55-29(20-31(45)50-8)25-11-15-27(16-12-25)53-36(47)38(4,5)6/h9-16,21-22,28-29H,17-20,23H2,1-8H3,(H2,39,40,41)
> <PUBCHEM_IUPAC_INCHIKEY>
GBWSQUPACXXXLU-UHFFFAOYSA-N
> <PUBCHEM_XLOGP3_AA>
3.8
> <PUBCHEM_EXACT_MASS>
797.30370898
> <PUBCHEM_MOLECULAR_FORMULA>
C38H48N5O12P
> <PUBCHEM_MOLECULAR_WEIGHT>
797.8
> <PUBCHEM_OPENEYE_CAN_SMILES>
CC(C)(C)C(=O)OC1=CC=C(C=C1)C(CC(=O)OC)OP(=O)(COCCN2C=NC3=C(N=CN=C32)N)OC(CC(=O)OC)C4=CC=C(C=C4)OC(=O)C(C)(C)C
> <PUBCHEM_OPENEYE_ISO_SMILES>
CC(C)(C)C(=O)OC1=CC=C(C=C1)C(CC(=O)OC)OP(=O)(COCCN2C=NC3=C(N=CN=C32)N)OC(CC(=O)OC)C4=CC=C(C=C4)OC(=O)C(C)(C)C
> <PUBCHEM_CACTVS_TPSA>
220
> <PUBCHEM_MONOISOTOPIC_WEIGHT>
797.30370898
> <PUBCHEM_TOTAL_CHARGE>
0
> <PUBCHEM_HEAVY_ATOM_COUNT>
56
> <PUBCHEM_ATOM_DEF_STEREO_COUNT>
0
> <PUBCHEM_ATOM_UDEF_STEREO_COUNT>
2
> <PUBCHEM_BOND_DEF_STEREO_COUNT>
0
> <PUBCHEM_BOND_UDEF_STEREO_COUNT>
0
> <PUBCHEM_ISOTOPIC_ATOM_COUNT>
0
> <PUBCHEM_COMPONENT_COUNT>
1
> <PUBCHEM_CACTVS_TAUTO_COUNT>
-1
> <PUBCHEM_COORDINATE_TYPE>
1
5
255
> <PUBCHEM_BONDANNOTATIONS>
14  50  8
14  51  8
15  51  8
15  52  8
16  50  8
16  56  8
17  53  8
17  56  8
19  24  3
20  25  3
22  28  8
22  30  8
23  29  8
23  31  8
28  36  8
29  37  8
30  38  8
31  39  8
34  36  8
34  38  8
35  37  8
35  39  8
50  52  8
52  53  8
$$$$
