501365
  -OEChem-10302200282D
 72 77  0     1  0  0  0  0  0999 V2000
    8.0365    1.0206    0.0000 O   0  0  0  0  0  0  0  0  0  0  0  0
    5.4985    0.5162    0.0000 O   0  0  0  0  0  0  0  0  0  0  0  0
    6.7803   -1.2417    0.0000 O   0  0  0  0  0  0  0  0  0  0  0  0
    9.7611   -0.1575    0.0000 O   0  0  0  0  0  0  0  0  0  0  0  0
    8.3578    3.0832    0.0000 O   0  0  0  0  0  0  0  0  0  0  0  0
    7.0849    4.8384    0.0000 O   0  0  0  0  0  0  0  0  0  0  0  0
    6.7742    2.2785    0.0000 N   0  0  0  0  0  0  0  0  0  0  0  0
    6.4985    0.5179    0.0000 C   0  0  2  0  0  0  0  0  0  0  0  0
    7.0877   -0.2901    0.0000 C   0  0  1  0  0  0  0  0  0  0  0  0
    7.0849    1.3279    0.0000 C   0  0  1  0  0  0  0  0  0  0  0  0
    8.0382    0.0206    0.0000 C   0  0  1  0  0  0  0  0  0  0  0  0
    8.8482   -0.5658    0.0000 C   0  0  0  0  0  0  0  0  0  0  0  0
    5.8280    2.5832    0.0000 C   0  0  0  0  0  0  0  0  0  0  0  0
    7.3578    3.0832    0.0000 C   0  0  0  0  0  0  0  0  0  0  0  0
    5.8280    3.5832    0.0000 C   0  0  0  0  0  0  0  0  0  0  0  0
    5.0000   -0.3507    0.0000 C   0  0  0  0  0  0  0  0  0  0  0  0
    7.4507   -1.9837    0.0000 C   0  0  0  0  0  0  0  0  0  0  0  0
    6.7742    3.8879    0.0000 C   0  0  0  0  0  0  0  0  0  0  0  0
    4.9620    2.0832    0.0000 C   0  0  0  0  0  0  0  0  0  0  0  0
    4.9620    4.0832    0.0000 C   0  0  0  0  0  0  0  0  0  0  0  0
    4.0000   -0.3524    0.0000 C   0  0  0  0  0  0  0  0  0  0  0  0
    7.1434   -2.9353    0.0000 C   0  0  0  0  0  0  0  0  0  0  0  0
   10.5711   -0.7439    0.0000 C   0  0  0  0  0  0  0  0  0  0  0  0
    4.0960    2.5832    0.0000 C   0  0  0  0  0  0  0  0  0  0  0  0
    4.0960    3.5832    0.0000 C   0  0  0  0  0  0  0  0  0  0  0  0
   11.4839   -0.3356    0.0000 C   0  0  0  0  0  0  0  0  0  0  0  0
    3.5015   -1.2193    0.0000 C   0  0  0  0  0  0  0  0  0  0  0  0
    3.4985    0.5127    0.0000 C   0  0  0  0  0  0  0  0  0  0  0  0
    7.8138   -3.6772    0.0000 C   0  0  0  0  0  0  0  0  0  0  0  0
    6.1656   -3.1449    0.0000 C   0  0  0  0  0  0  0  0  0  0  0  0
    2.5015   -1.2211    0.0000 C   0  0  0  0  0  0  0  0  0  0  0  0
    2.4985    0.5110    0.0000 C   0  0  0  0  0  0  0  0  0  0  0  0
    7.5064   -4.6288    0.0000 C   0  0  0  0  0  0  0  0  0  0  0  0
    5.8582   -4.0965    0.0000 C   0  0  0  0  0  0  0  0  0  0  0  0
   11.5868    0.6591    0.0000 C   0  0  0  0  0  0  0  0  0  0  0  0
   12.2940   -0.9220    0.0000 C   0  0  0  0  0  0  0  0  0  0  0  0
    2.0000   -0.3559    0.0000 C   0  0  0  0  0  0  0  0  0  0  0  0
    6.5286   -4.8384    0.0000 C   0  0  0  0  0  0  0  0  0  0  0  0
   12.4996    1.0674    0.0000 C   0  0  0  0  0  0  0  0  0  0  0  0
   13.2068   -0.5136    0.0000 C   0  0  0  0  0  0  0  0  0  0  0  0
   13.3096    0.4811    0.0000 C   0  0  0  0  0  0  0  0  0  0  0  0
    6.2161    1.0698    0.0000 H   0  0  0  0  0  0  0  0  0  0  0  0
    6.4755   -0.3881    0.0000 H   0  0  0  0  0  0  0  0  0  0  0  0
    7.5225    1.7671    0.0000 H   0  0  0  0  0  0  0  0  0  0  0  0
    8.5901    0.3030    0.0000 H   0  0  0  0  0  0  0  0  0  0  0  0
    8.4030   -0.9973    0.0000 H   0  0  0  0  0  0  0  0  0  0  0  0
    9.1958   -1.0792    0.0000 H   0  0  0  0  0  0  0  0  0  0  0  0
    4.8934   -0.9615    0.0000 H   0  0  0  0  0  0  0  0  0  0  0  0
    5.5830   -0.5618    0.0000 H   0  0  0  0  0  0  0  0  0  0  0  0
    7.9986   -2.2738    0.0000 H   0  0  0  0  0  0  0  0  0  0  0  0
    7.8316   -1.4944    0.0000 H   0  0  0  0  0  0  0  0  0  0  0  0
    4.9620    1.4632    0.0000 H   0  0  0  0  0  0  0  0  0  0  0  0
    4.9620    4.7032    0.0000 H   0  0  0  0  0  0  0  0  0  0  0  0
   10.1259   -1.1753    0.0000 H   0  0  0  0  0  0  0  0  0  0  0  0
   10.9187   -1.2573    0.0000 H   0  0  0  0  0  0  0  0  0  0  0  0
    3.5590    2.2732    0.0000 H   0  0  0  0  0  0  0  0  0  0  0  0
    3.5590    3.8932    0.0000 H   0  0  0  0  0  0  0  0  0  0  0  0
    3.8124   -1.7557    0.0000 H   0  0  0  0  0  0  0  0  0  0  0  0
    3.8076    1.0502    0.0000 H   0  0  0  0  0  0  0  0  0  0  0  0
    8.4200   -3.5473    0.0000 H   0  0  0  0  0  0  0  0  0  0  0  0
    5.7499   -2.6848    0.0000 H   0  0  0  0  0  0  0  0  0  0  0  0
    2.1924   -1.7585    0.0000 H   0  0  0  0  0  0  0  0  0  0  0  0
    2.1876    1.0474    0.0000 H   0  0  0  0  0  0  0  0  0  0  0  0
    7.9221   -5.0889    0.0000 H   0  0  0  0  0  0  0  0  0  0  0  0
    5.2520   -4.2264    0.0000 H   0  0  0  0  0  0  0  0  0  0  0  0
   11.0845    1.0227    0.0000 H   0  0  0  0  0  0  0  0  0  0  0  0
   12.2302   -1.5387    0.0000 H   0  0  0  0  0  0  0  0  0  0  0  0
    1.3800   -0.3570    0.0000 H   0  0  0  0  0  0  0  0  0  0  0  0
    6.3380   -5.4284    0.0000 H   0  0  0  0  0  0  0  0  0  0  0  0
   12.5633    1.6842    0.0000 H   0  0  0  0  0  0  0  0  0  0  0  0
   13.7090   -0.8772    0.0000 H   0  0  0  0  0  0  0  0  0  0  0  0
   13.8756    0.7342    0.0000 H   0  0  0  0  0  0  0  0  0  0  0  0
  1 10  1  0  0  0  0
  1 11  1  0  0  0  0
  8  2  1  1  0  0  0
  2 16  1  0  0  0  0
  9  3  1  1  0  0  0
  3 17  1  0  0  0  0
  4 12  1  0  0  0  0
  4 23  1  0  0  0  0
  5 14  2  0  0  0  0
  6 18  2  0  0  0  0
 10  7  1  6  0  0  0
  7 13  1  0  0  0  0
  7 14  1  0  0  0  0
  8  9  1  0  0  0  0
  8 10  1  0  0  0  0
  8 42  1  0  0  0  0
  9 11  1  0  0  0  0
  9 43  1  0  0  0  0
 10 44  1  0  0  0  0
 11 12  1  6  0  0  0
 11 45  1  0  0  0  0
 12 46  1  0  0  0  0
 12 47  1  0  0  0  0
 13 15  1  0  0  0  0
 13 19  2  0  0  0  0
 14 18  1  0  0  0  0
 15 18  1  0  0  0  0
 15 20  2  0  0  0  0
 16 21  1  0  0  0  0
 16 48  1  0  0  0  0
 16 49  1  0  0  0  0
 17 22  1  0  0  0  0
 17 50  1  0  0  0  0
 17 51  1  0  0  0  0
 19 24  1  0  0  0  0
 19 52  1  0  0  0  0
 20 25  1  0  0  0  0
 20 53  1  0  0  0  0
 21 27  2  0  0  0  0
 21 28  1  0  0  0  0
 22 29  2  0  0  0  0
 22 30  1  0  0  0  0
 23 26  1  0  0  0  0
 23 54  1  0  0  0  0
 23 55  1  0  0  0  0
 24 25  2  0  0  0  0
 24 56  1  0  0  0  0
 25 57  1  0  0  0  0
 26 35  2  0  0  0  0
 26 36  1  0  0  0  0
 27 31  1  0  0  0  0
 27 58  1  0  0  0  0
 28 32  2  0  0  0  0
 28 59  1  0  0  0  0
 29 33  1  0  0  0  0
 29 60  1  0  0  0  0
 30 34  2  0  0  0  0
 30 61  1  0  0  0  0
 31 37  2  0  0  0  0
 31 62  1  0  0  0  0
 32 37  1  0  0  0  0
 32 63  1  0  0  0  0
 33 38  2  0  0  0  0
 33 64  1  0  0  0  0
 34 38  1  0  0  0  0
 34 65  1  0  0  0  0
 35 39  1  0  0  0  0
 35 66  1  0  0  0  0
 36 40  2  0  0  0  0
 36 67  1  0  0  0  0
 37 68  1  0  0  0  0
 38 69  1  0  0  0  0
 39 41  2  0  0  0  0
 39 70  1  0  0  0  0
 40 41  1  0  0  0  0
 40 71  1  0  0  0  0
 41 72  1  0  0  0  0
M  END
> <PUBCHEM_COMPOUND_CID>
501365
> <PUBCHEM_COMPOUND_CANONICALIZED>
1
> <PUBCHEM_CACTVS_COMPLEXITY>
848
> <PUBCHEM_CACTVS_HBOND_ACCEPTOR>
6
> <PUBCHEM_CACTVS_HBOND_DONOR>
0
> <PUBCHEM_CACTVS_ROTATABLE_BOND>
11
> <PUBCHEM_CACTVS_SUBSKEYS>
AAADceB+OAAAAAAAAAAAAAAAAAAAAWJAAAAwYMGAAAAAAFgBVAAAHgAAAAAADBzhmAYwwIMABACIAqVSUACCAAAlAgAIiAGIbMgLJjrAtbmPMYhnxgHa6cf8+KqOAAAAAAACAAAAAAAAAAQAAAAAAAAAAA==
> <PUBCHEM_IUPAC_OPENEYE_NAME>
1-[(2R,3R,4R,5R)-3,4-dibenzyloxy-5-(benzyloxymethyl)tetrahydrofuran-2-yl]indoline-2,3-dione
> <PUBCHEM_IUPAC_CAS_NAME>
1-[(2R,3R,4R,5R)-3,4-bis(phenylmethoxy)-5-(phenylmethoxymethyl)-2-oxolanyl]indole-2,3-dione
> <PUBCHEM_IUPAC_NAME_MARKUP>
1-[(2<I>R</I>,3<I>R</I>,4<I>R</I>,5<I>R</I>)-3,4-bis(phenylmethoxy)-5-(phenylmethoxymethyl)oxolan-2-yl]indole-2,3-dione
> <PUBCHEM_IUPAC_NAME>
1-[(2R,3R,4R,5R)-3,4-bis(phenylmethoxy)-5-(phenylmethoxymethyl)oxolan-2-yl]indole-2,3-dione
> <PUBCHEM_IUPAC_SYSTEMATIC_NAME>
1-[(2R,3R,4R,5R)-3,4-bis(phenylmethoxy)-5-(phenylmethoxymethyl)oxolan-2-yl]indole-2,3-dione
> <PUBCHEM_IUPAC_TRADITIONAL_NAME>
1-[(2R,3R,4R,5R)-3,4-dibenzoxy-5-(benzoxymethyl)tetrahydrofuran-2-yl]isatin
> <PUBCHEM_IUPAC_INCHI>
InChI=1S/C34H31NO6/c36-30-27-18-10-11-19-28(27)35(33(30)37)34-32(40-22-26-16-8-3-9-17-26)31(39-21-25-14-6-2-7-15-25)29(41-34)23-38-20-24-12-4-1-5-13-24/h1-19,29,31-32,34H,20-23H2/t29-,31-,32-,34-/m1/s1
> <PUBCHEM_IUPAC_INCHIKEY>
GBLLWHPQPREILV-UVBUXLLRSA-N
> <PUBCHEM_XLOGP3_AA>
4.9
> <PUBCHEM_EXACT_MASS>
549.21513771
> <PUBCHEM_MOLECULAR_FORMULA>
C34H31NO6
> <PUBCHEM_MOLECULAR_WEIGHT>
549.6
> <PUBCHEM_OPENEYE_CAN_SMILES>
C1=CC=C(C=C1)COCC2C(C(C(O2)N3C4=CC=CC=C4C(=O)C3=O)OCC5=CC=CC=C5)OCC6=CC=CC=C6
> <PUBCHEM_OPENEYE_ISO_SMILES>
C1=CC=C(C=C1)COC[C@@H]2[C@H]([C@H]([C@@H](O2)N3C4=CC=CC=C4C(=O)C3=O)OCC5=CC=CC=C5)OCC6=CC=CC=C6
> <PUBCHEM_CACTVS_TPSA>
74.3
> <PUBCHEM_MONOISOTOPIC_WEIGHT>
549.21513771
> <PUBCHEM_TOTAL_CHARGE>
0
> <PUBCHEM_HEAVY_ATOM_COUNT>
41
> <PUBCHEM_ATOM_DEF_STEREO_COUNT>
4
> <PUBCHEM_ATOM_UDEF_STEREO_COUNT>
0
> <PUBCHEM_BOND_DEF_STEREO_COUNT>
0
> <PUBCHEM_BOND_UDEF_STEREO_COUNT>
0
> <PUBCHEM_ISOTOPIC_ATOM_COUNT>
0
> <PUBCHEM_COMPONENT_COUNT>
1
> <PUBCHEM_CACTVS_TAUTO_COUNT>
-1
> <PUBCHEM_COORDINATE_TYPE>
1
5
255
> <PUBCHEM_BONDANNOTATIONS>
11  12  6
13  15  8
13  19  8
15  20  8
19  24  8
8  2  5
20  25  8
21  27  8
21  28  8
22  29  8
22  30  8
24  25  8
26  35  8
26  36  8
27  31  8
28  32  8
29  33  8
9  3  5
30  34  8
31  37  8
32  37  8
33  38  8
34  38  8
35  39  8
36  40  8
39  41  8
40  41  8
10  7  6
$$$$
