501358
  -OEChem-10302200282D
 51 54  0     1  0  0  0  0  0999 V2000
    4.7540    1.4470    0.0000 F   0  0  0  0  0  0  0  0  0  0  0  0
    8.2181    1.4470    0.0000 F   0  0  0  0  0  0  0  0  0  0  0  0
    8.2181   -1.5530    0.0000 O   0  0  0  0  0  0  0  0  0  0  0  0
    4.6200   -0.0530    0.0000 N   0  0  0  0  0  0  0  0  0  0  0  0
    2.6200   -0.0530    0.0000 N   0  0  0  0  0  0  0  0  0  0  0  0
    9.0841   -0.0530    0.0000 N   0  0  0  0  0  0  0  0  0  0  0  0
   12.6284   -1.8577    0.0000 N   0  0  0  0  0  0  0  0  0  0  0  0
   13.2120   -1.0530    0.0000 N   0  0  0  0  0  0  0  0  0  0  0  0
    5.6200   -0.0530    0.0000 C   0  0  3  0  0  0  0  0  0  0  0  0
    6.4860   -0.5530    0.0000 C   0  0  0  0  0  0  0  0  0  0  0  0
    4.1200    0.8131    0.0000 C   0  0  0  0  0  0  0  0  0  0  0  0
    4.1200   -0.9190    0.0000 C   0  0  0  0  0  0  0  0  0  0  0  0
    5.6200    0.9470    0.0000 C   0  0  0  0  0  0  0  0  0  0  0  0
    5.1200   -0.9190    0.0000 C   0  0  0  0  0  0  0  0  0  0  0  0
    3.1200    0.8131    0.0000 C   0  0  0  0  0  0  0  0  0  0  0  0
    3.1200   -0.9190    0.0000 C   0  0  0  0  0  0  0  0  0  0  0  0
    7.3520   -0.0530    0.0000 C   0  0  0  0  0  0  0  0  0  0  0  0
    6.4860    1.4470    0.0000 C   0  0  0  0  0  0  0  0  0  0  0  0
    7.3520    0.9470    0.0000 C   0  0  0  0  0  0  0  0  0  0  0  0
    8.2181   -0.5530    0.0000 C   0  0  0  0  0  0  0  0  0  0  0  0
    6.4860    2.4470    0.0000 C   0  0  0  0  0  0  0  0  0  0  0  0
    9.9501   -0.5530    0.0000 C   0  0  0  0  0  0  0  0  0  0  0  0
   10.8162   -0.0530    0.0000 C   0  0  0  0  0  0  0  0  0  0  0  0
    9.9501   -1.5530    0.0000 C   0  0  0  0  0  0  0  0  0  0  0  0
   11.6822   -0.5530    0.0000 C   0  0  0  0  0  0  0  0  0  0  0  0
   11.6822   -1.5530    0.0000 C   0  0  0  0  0  0  0  0  0  0  0  0
   10.8162   -2.0530    0.0000 C   0  0  0  0  0  0  0  0  0  0  0  0
   12.6284   -0.2482    0.0000 C   0  0  0  0  0  0  0  0  0  0  0  0
    6.0875   -1.0279    0.0000 H   0  0  0  0  0  0  0  0  0  0  0  0
    6.8846   -1.0279    0.0000 H   0  0  0  0  0  0  0  0  0  0  0  0
    4.7026    1.0251    0.0000 H   0  0  0  0  0  0  0  0  0  0  0  0
    4.0123    1.4236    0.0000 H   0  0  0  0  0  0  0  0  0  0  0  0
    4.0123   -1.5296    0.0000 H   0  0  0  0  0  0  0  0  0  0  0  0
    4.7026   -1.1311    0.0000 H   0  0  0  0  0  0  0  0  0  0  0  0
    4.5831   -0.6090    0.0000 H   0  0  0  0  0  0  0  0  0  0  0  0
    4.8100   -1.4559    0.0000 H   0  0  0  0  0  0  0  0  0  0  0  0
    5.6569   -1.2290    0.0000 H   0  0  0  0  0  0  0  0  0  0  0  0
    3.2277    1.4236    0.0000 H   0  0  0  0  0  0  0  0  0  0  0  0
    2.5374    1.0251    0.0000 H   0  0  0  0  0  0  0  0  0  0  0  0
    2.5374   -1.1311    0.0000 H   0  0  0  0  0  0  0  0  0  0  0  0
    3.2277   -1.5296    0.0000 H   0  0  0  0  0  0  0  0  0  0  0  0
    2.0000   -0.0530    0.0000 H   0  0  0  0  0  0  0  0  0  0  0  0
    7.1060    2.4470    0.0000 H   0  0  0  0  0  0  0  0  0  0  0  0
    6.4860    3.0670    0.0000 H   0  0  0  0  0  0  0  0  0  0  0  0
    5.8660    2.4470    0.0000 H   0  0  0  0  0  0  0  0  0  0  0  0
    9.0841    0.5670    0.0000 H   0  0  0  0  0  0  0  0  0  0  0  0
   10.8162    0.5670    0.0000 H   0  0  0  0  0  0  0  0  0  0  0  0
    9.4132   -1.8630    0.0000 H   0  0  0  0  0  0  0  0  0  0  0  0
   10.8162   -2.6730    0.0000 H   0  0  0  0  0  0  0  0  0  0  0  0
   12.8210    0.3411    0.0000 H   0  0  0  0  0  0  0  0  0  0  0  0
   12.8210   -2.4470    0.0000 H   0  0  0  0  0  0  0  0  0  0  0  0
  1 13  1  0  0  0  0
  2 19  1  0  0  0  0
  3 20  2  0  0  0  0
  4  9  1  0  0  0  0
  4 11  1  0  0  0  0
  4 12  1  0  0  0  0
  5 15  1  0  0  0  0
  5 16  1  0  0  0  0
  5 42  1  0  0  0  0
  6 20  1  0  0  0  0
  6 22  1  0  0  0  0
  6 46  1  0  0  0  0
  7  8  1  0  0  0  0
  7 26  1  0  0  0  0
  7 51  1  0  0  0  0
  8 28  2  0  0  0  0
  9 10  1  0  0  0  0
  9 13  1  0  0  0  0
  9 14  1  0  0  0  0
 10 17  1  0  0  0  0
 10 29  1  0  0  0  0
 10 30  1  0  0  0  0
 11 15  1  0  0  0  0
 11 31  1  0  0  0  0
 11 32  1  0  0  0  0
 12 16  1  0  0  0  0
 12 33  1  0  0  0  0
 12 34  1  0  0  0  0
 13 18  2  0  0  0  0
 14 35  1  0  0  0  0
 14 36  1  0  0  0  0
 14 37  1  0  0  0  0
 15 38  1  0  0  0  0
 15 39  1  0  0  0  0
 16 40  1  0  0  0  0
 16 41  1  0  0  0  0
 17 19  2  0  0  0  0
 17 20  1  0  0  0  0
 18 19  1  0  0  0  0
 18 21  1  0  0  0  0
 21 43  1  0  0  0  0
 21 44  1  0  0  0  0
 21 45  1  0  0  0  0
 22 23  2  0  0  0  0
 22 24  1  0  0  0  0
 23 25  1  0  0  0  0
 23 47  1  0  0  0  0
 24 27  2  0  0  0  0
 24 48  1  0  0  0  0
 25 26  2  0  0  0  0
 25 28  1  0  0  0  0
 26 27  1  0  0  0  0
 27 49  1  0  0  0  0
 28 50  1  0  0  0  0
M  END
> <PUBCHEM_COMPOUND_CID>
501358
> <PUBCHEM_COMPOUND_CANONICALIZED>
1
> <PUBCHEM_CACTVS_COMPLEXITY>
703
> <PUBCHEM_CACTVS_HBOND_ACCEPTOR>
6
> <PUBCHEM_CACTVS_HBOND_DONOR>
3
> <PUBCHEM_CACTVS_ROTATABLE_BOND>
3
> <PUBCHEM_CACTVS_SUBSKEYS>
AAADceB7oYAAAAAAAAAAAAAAAAAAAWAAAAA8QIAAAAAAAFgB8AAAHwAYAAAADIjBngQ+wPPjAACqAzV3UACSBAAhggAYuaE4ZNgIYLLA0dGUpAhgnADIyQccgAAOAACAQAACAAAAAQCAAAQAAAAAAAAAAA==
> <PUBCHEM_IUPAC_OPENEYE_NAME>
2,4-difluoro-N-(1H-indazol-5-yl)-3,5-dimethyl-5-piperazin-1-yl-cyclohexa-1,3-diene-1-carboxamide
> <PUBCHEM_IUPAC_CAS_NAME>
2,4-difluoro-N-(1H-indazol-5-yl)-3,5-dimethyl-5-(1-piperazinyl)-1-cyclohexa-1,3-dienecarboxamide
> <PUBCHEM_IUPAC_NAME_MARKUP>
2,4-difluoro-<I>N</I>-(1<I>H</I>-indazol-5-yl)-3,5-dimethyl-5-piperazin-1-ylcyclohexa-1,3-diene-1-carboxamide
> <PUBCHEM_IUPAC_NAME>
2,4-difluoro-N-(1H-indazol-5-yl)-3,5-dimethyl-5-piperazin-1-ylcyclohexa-1,3-diene-1-carboxamide
> <PUBCHEM_IUPAC_SYSTEMATIC_NAME>
2,4-bis(fluoranyl)-N-(1H-indazol-5-yl)-3,5-dimethyl-5-piperazin-1-yl-cyclohexa-1,3-diene-1-carboxamide
> <PUBCHEM_IUPAC_TRADITIONAL_NAME>
2,4-difluoro-N-(1H-indazol-5-yl)-3,5-dimethyl-5-piperazino-cyclohexa-1,3-diene-1-carboxamide
> <PUBCHEM_IUPAC_INCHI>
InChI=1S/C20H23F2N5O/c1-12-17(21)15(10-20(2,18(12)22)27-7-5-23-6-8-27)19(28)25-14-3-4-16-13(9-14)11-24-26-16/h3-4,9,11,23H,5-8,10H2,1-2H3,(H,24,26)(H,25,28)
> <PUBCHEM_IUPAC_INCHIKEY>
VMQAXEKEWQNZSF-UHFFFAOYSA-N
> <PUBCHEM_XLOGP3_AA>
1.1
> <PUBCHEM_EXACT_MASS>
387.18706670
> <PUBCHEM_MOLECULAR_FORMULA>
C20H23F2N5O
> <PUBCHEM_MOLECULAR_WEIGHT>
387.4
> <PUBCHEM_OPENEYE_CAN_SMILES>
CC1=C(C(CC(=C1F)C(=O)NC2=CC3=C(C=C2)NN=C3)(C)N4CCNCC4)F
> <PUBCHEM_OPENEYE_ISO_SMILES>
CC1=C(C(CC(=C1F)C(=O)NC2=CC3=C(C=C2)NN=C3)(C)N4CCNCC4)F
> <PUBCHEM_CACTVS_TPSA>
73
> <PUBCHEM_MONOISOTOPIC_WEIGHT>
387.18706670
> <PUBCHEM_TOTAL_CHARGE>
0
> <PUBCHEM_HEAVY_ATOM_COUNT>
28
> <PUBCHEM_ATOM_DEF_STEREO_COUNT>
0
> <PUBCHEM_ATOM_UDEF_STEREO_COUNT>
1
> <PUBCHEM_BOND_DEF_STEREO_COUNT>
0
> <PUBCHEM_BOND_UDEF_STEREO_COUNT>
0
> <PUBCHEM_ISOTOPIC_ATOM_COUNT>
0
> <PUBCHEM_COMPONENT_COUNT>
1
> <PUBCHEM_CACTVS_TAUTO_COUNT>
-1
> <PUBCHEM_COORDINATE_TYPE>
1
5
255
> <PUBCHEM_BONDANNOTATIONS>
22  23  8
22  24  8
23  25  8
24  27  8
25  26  8
25  28  8
26  27  8
7  26  8
7  8  8
8  28  8
9  14  3
$$$$
