501369
  -OEChem-10302200282D
 72 77  0     1  0  0  0  0  0999 V2000
    4.9620    4.9608    0.0000 Br  0  0  0  0  0  0  0  0  0  0  0  0
    3.2299    1.9608    0.0000 Br  0  0  0  0  0  0  0  0  0  0  0  0
    8.0365    0.8982    0.0000 O   0  0  0  0  0  0  0  0  0  0  0  0
    5.4985    0.3938    0.0000 O   0  0  0  0  0  0  0  0  0  0  0  0
    6.7803   -1.3641    0.0000 O   0  0  0  0  0  0  0  0  0  0  0  0
    9.7611   -0.2799    0.0000 O   0  0  0  0  0  0  0  0  0  0  0  0
    8.3578    2.9608    0.0000 O   0  0  0  0  0  0  0  0  0  0  0  0
    7.0849    4.7161    0.0000 O   0  0  0  0  0  0  0  0  0  0  0  0
    6.7742    2.1561    0.0000 N   0  0  0  0  0  0  0  0  0  0  0  0
    6.4985    0.3955    0.0000 C   0  0  2  0  0  0  0  0  0  0  0  0
    7.0877   -0.4125    0.0000 C   0  0  1  0  0  0  0  0  0  0  0  0
    7.0849    1.2056    0.0000 C   0  0  1  0  0  0  0  0  0  0  0  0
    8.0382   -0.1018    0.0000 C   0  0  1  0  0  0  0  0  0  0  0  0
    8.8482   -0.6882    0.0000 C   0  0  0  0  0  0  0  0  0  0  0  0
    5.8280    2.4608    0.0000 C   0  0  0  0  0  0  0  0  0  0  0  0
    7.3578    2.9608    0.0000 C   0  0  0  0  0  0  0  0  0  0  0  0
    5.8280    3.4608    0.0000 C   0  0  0  0  0  0  0  0  0  0  0  0
    5.0000   -0.4731    0.0000 C   0  0  0  0  0  0  0  0  0  0  0  0
    7.4507   -2.1061    0.0000 C   0  0  0  0  0  0  0  0  0  0  0  0
    6.7742    3.7656    0.0000 C   0  0  0  0  0  0  0  0  0  0  0  0
    4.9620    1.9608    0.0000 C   0  0  0  0  0  0  0  0  0  0  0  0
    4.9620    3.9608    0.0000 C   0  0  0  0  0  0  0  0  0  0  0  0
    4.0000   -0.4748    0.0000 C   0  0  0  0  0  0  0  0  0  0  0  0
    7.1434   -3.0576    0.0000 C   0  0  0  0  0  0  0  0  0  0  0  0
   10.5711   -0.8663    0.0000 C   0  0  0  0  0  0  0  0  0  0  0  0
    4.0960    2.4608    0.0000 C   0  0  0  0  0  0  0  0  0  0  0  0
    4.0960    3.4608    0.0000 C   0  0  0  0  0  0  0  0  0  0  0  0
   11.4839   -0.4579    0.0000 C   0  0  0  0  0  0  0  0  0  0  0  0
    3.4985    0.3903    0.0000 C   0  0  0  0  0  0  0  0  0  0  0  0
    3.5015   -1.3417    0.0000 C   0  0  0  0  0  0  0  0  0  0  0  0
    7.8138   -3.7996    0.0000 C   0  0  0  0  0  0  0  0  0  0  0  0
    6.1656   -3.2672    0.0000 C   0  0  0  0  0  0  0  0  0  0  0  0
    2.4985    0.3886    0.0000 C   0  0  0  0  0  0  0  0  0  0  0  0
    2.5015   -1.3434    0.0000 C   0  0  0  0  0  0  0  0  0  0  0  0
    7.5064   -4.7512    0.0000 C   0  0  0  0  0  0  0  0  0  0  0  0
    5.8582   -4.2188    0.0000 C   0  0  0  0  0  0  0  0  0  0  0  0
   11.5868    0.5368    0.0000 C   0  0  0  0  0  0  0  0  0  0  0  0
   12.2940   -1.0443    0.0000 C   0  0  0  0  0  0  0  0  0  0  0  0
    2.0000   -0.4783    0.0000 C   0  0  0  0  0  0  0  0  0  0  0  0
    6.5286   -4.9608    0.0000 C   0  0  0  0  0  0  0  0  0  0  0  0
   12.4996    0.9451    0.0000 C   0  0  0  0  0  0  0  0  0  0  0  0
   13.2068   -0.6360    0.0000 C   0  0  0  0  0  0  0  0  0  0  0  0
   13.3096    0.3587    0.0000 C   0  0  0  0  0  0  0  0  0  0  0  0
    6.2161    0.9475    0.0000 H   0  0  0  0  0  0  0  0  0  0  0  0
    6.4755   -0.5105    0.0000 H   0  0  0  0  0  0  0  0  0  0  0  0
    6.4723    1.3015    0.0000 H   0  0  0  0  0  0  0  0  0  0  0  0
    8.5901    0.1806    0.0000 H   0  0  0  0  0  0  0  0  0  0  0  0
    8.4030   -1.1196    0.0000 H   0  0  0  0  0  0  0  0  0  0  0  0
    9.1958   -1.2016    0.0000 H   0  0  0  0  0  0  0  0  0  0  0  0
    4.8934   -1.0839    0.0000 H   0  0  0  0  0  0  0  0  0  0  0  0
    5.5830   -0.6841    0.0000 H   0  0  0  0  0  0  0  0  0  0  0  0
    7.9986   -2.3962    0.0000 H   0  0  0  0  0  0  0  0  0  0  0  0
    7.8316   -1.6168    0.0000 H   0  0  0  0  0  0  0  0  0  0  0  0
    4.9620    1.3408    0.0000 H   0  0  0  0  0  0  0  0  0  0  0  0
   10.1259   -1.2977    0.0000 H   0  0  0  0  0  0  0  0  0  0  0  0
   10.9187   -1.3797    0.0000 H   0  0  0  0  0  0  0  0  0  0  0  0
    3.5590    3.7708    0.0000 H   0  0  0  0  0  0  0  0  0  0  0  0
    3.8076    0.9278    0.0000 H   0  0  0  0  0  0  0  0  0  0  0  0
    3.8124   -1.8781    0.0000 H   0  0  0  0  0  0  0  0  0  0  0  0
    8.4200   -3.6697    0.0000 H   0  0  0  0  0  0  0  0  0  0  0  0
    5.7499   -2.8072    0.0000 H   0  0  0  0  0  0  0  0  0  0  0  0
    2.1876    0.9250    0.0000 H   0  0  0  0  0  0  0  0  0  0  0  0
    2.1924   -1.8809    0.0000 H   0  0  0  0  0  0  0  0  0  0  0  0
    7.9221   -5.2112    0.0000 H   0  0  0  0  0  0  0  0  0  0  0  0
    5.2520   -4.3488    0.0000 H   0  0  0  0  0  0  0  0  0  0  0  0
   11.0845    0.9003    0.0000 H   0  0  0  0  0  0  0  0  0  0  0  0
   12.2302   -1.6610    0.0000 H   0  0  0  0  0  0  0  0  0  0  0  0
    1.3800   -0.4794    0.0000 H   0  0  0  0  0  0  0  0  0  0  0  0
    6.3380   -5.5508    0.0000 H   0  0  0  0  0  0  0  0  0  0  0  0
   12.5633    1.5618    0.0000 H   0  0  0  0  0  0  0  0  0  0  0  0
   13.7090   -0.9996    0.0000 H   0  0  0  0  0  0  0  0  0  0  0  0
   13.8756    0.6118    0.0000 H   0  0  0  0  0  0  0  0  0  0  0  0
  1 22  1  0  0  0  0
  2 26  1  0  0  0  0
  3 12  1  0  0  0  0
  3 13  1  0  0  0  0
 10  4  1  1  0  0  0
  4 18  1  0  0  0  0
 11  5  1  1  0  0  0
  5 19  1  0  0  0  0
  6 14  1  0  0  0  0
  6 25  1  0  0  0  0
  7 16  2  0  0  0  0
  8 20  2  0  0  0  0
 12  9  1  6  0  0  0
  9 15  1  0  0  0  0
  9 16  1  0  0  0  0
 10 11  1  0  0  0  0
 10 12  1  0  0  0  0
 10 44  1  0  0  0  0
 11 13  1  0  0  0  0
 11 45  1  0  0  0  0
 12 46  1  0  0  0  0
 13 14  1  6  0  0  0
 13 47  1  0  0  0  0
 14 48  1  0  0  0  0
 14 49  1  0  0  0  0
 15 17  2  0  0  0  0
 15 21  1  0  0  0  0
 16 20  1  0  0  0  0
 17 20  1  0  0  0  0
 17 22  1  0  0  0  0
 18 23  1  0  0  0  0
 18 50  1  0  0  0  0
 18 51  1  0  0  0  0
 19 24  1  0  0  0  0
 19 52  1  0  0  0  0
 19 53  1  0  0  0  0
 21 26  2  0  0  0  0
 21 54  1  0  0  0  0
 22 27  2  0  0  0  0
 23 29  2  0  0  0  0
 23 30  1  0  0  0  0
 24 31  2  0  0  0  0
 24 32  1  0  0  0  0
 25 28  1  0  0  0  0
 25 55  1  0  0  0  0
 25 56  1  0  0  0  0
 26 27  1  0  0  0  0
 27 57  1  0  0  0  0
 28 37  2  0  0  0  0
 28 38  1  0  0  0  0
 29 33  1  0  0  0  0
 29 58  1  0  0  0  0
 30 34  2  0  0  0  0
 30 59  1  0  0  0  0
 31 35  1  0  0  0  0
 31 60  1  0  0  0  0
 32 36  2  0  0  0  0
 32 61  1  0  0  0  0
 33 39  2  0  0  0  0
 33 62  1  0  0  0  0
 34 39  1  0  0  0  0
 34 63  1  0  0  0  0
 35 40  2  0  0  0  0
 35 64  1  0  0  0  0
 36 40  1  0  0  0  0
 36 65  1  0  0  0  0
 37 41  1  0  0  0  0
 37 66  1  0  0  0  0
 38 42  2  0  0  0  0
 38 67  1  0  0  0  0
 39 68  1  0  0  0  0
 40 69  1  0  0  0  0
 41 43  2  0  0  0  0
 41 70  1  0  0  0  0
 42 43  1  0  0  0  0
 42 71  1  0  0  0  0
 43 72  1  0  0  0  0
M  END
> <PUBCHEM_COMPOUND_CID>
501369
> <PUBCHEM_COMPOUND_CANONICALIZED>
1
> <PUBCHEM_CACTVS_COMPLEXITY>
921
> <PUBCHEM_CACTVS_HBOND_ACCEPTOR>
6
> <PUBCHEM_CACTVS_HBOND_DONOR>
0
> <PUBCHEM_CACTVS_ROTATABLE_BOND>
11
> <PUBCHEM_CACTVS_SUBSKEYS>
AAADceB+OAAAGAAAAAAAAAAAAAAAAWJAAAAwYMGAAAAAAFgBVAAAHgBAAAABrBzhmAYwwIMABACIAqVSUACCAAAlAgQIiAGIbOgLJjrAtbmPMYhnxgHa61f8+KqOAgAAAAEigAAEAAAAAkUAAAAAAAAAAA==
> <PUBCHEM_IUPAC_OPENEYE_NAME>
4,6-dibromo-1-[(2R,3R,4R,5R)-3,4-dibenzyloxy-5-(benzyloxymethyl)tetrahydrofuran-2-yl]indoline-2,3-dione
> <PUBCHEM_IUPAC_CAS_NAME>
1-[(2R,3R,4R,5R)-3,4-bis(phenylmethoxy)-5-(phenylmethoxymethyl)-2-oxolanyl]-4,6-dibromoindole-2,3-dione
> <PUBCHEM_IUPAC_NAME_MARKUP>
1-[(2<I>R</I>,3<I>R</I>,4<I>R</I>,5<I>R</I>)-3,4-bis(phenylmethoxy)-5-(phenylmethoxymethyl)oxolan-2-yl]-4,6-dibromoindole-2,3-dione
> <PUBCHEM_IUPAC_NAME>
1-[(2R,3R,4R,5R)-3,4-bis(phenylmethoxy)-5-(phenylmethoxymethyl)oxolan-2-yl]-4,6-dibromoindole-2,3-dione
> <PUBCHEM_IUPAC_SYSTEMATIC_NAME>
1-[(2R,3R,4R,5R)-3,4-bis(phenylmethoxy)-5-(phenylmethoxymethyl)oxolan-2-yl]-4,6-bis(bromanyl)indole-2,3-dione
> <PUBCHEM_IUPAC_TRADITIONAL_NAME>
4,6-dibromo-1-[(2R,3R,4R,5R)-3,4-dibenzoxy-5-(benzoxymethyl)tetrahydrofuran-2-yl]isatin
> <PUBCHEM_IUPAC_INCHI>
InChI=1S/C34H29Br2NO6/c35-25-16-26(36)29-27(17-25)37(33(39)30(29)38)34-32(42-20-24-14-8-3-9-15-24)31(41-19-23-12-6-2-7-13-23)28(43-34)21-40-18-22-10-4-1-5-11-22/h1-17,28,31-32,34H,18-21H2/t28-,31-,32-,34-/m1/s1
> <PUBCHEM_IUPAC_INCHIKEY>
MNIFIZHNGWQYPV-MCXHKDKDSA-N
> <PUBCHEM_XLOGP3_AA>
6.3
> <PUBCHEM_EXACT_MASS>
707.03411
> <PUBCHEM_MOLECULAR_FORMULA>
C34H29Br2NO6
> <PUBCHEM_MOLECULAR_WEIGHT>
707.4
> <PUBCHEM_OPENEYE_CAN_SMILES>
C1=CC=C(C=C1)COCC2C(C(C(O2)N3C4=C(C(=CC(=C4)Br)Br)C(=O)C3=O)OCC5=CC=CC=C5)OCC6=CC=CC=C6
> <PUBCHEM_OPENEYE_ISO_SMILES>
C1=CC=C(C=C1)COC[C@@H]2[C@H]([C@H]([C@@H](O2)N3C4=C(C(=CC(=C4)Br)Br)C(=O)C3=O)OCC5=CC=CC=C5)OCC6=CC=CC=C6
> <PUBCHEM_CACTVS_TPSA>
74.3
> <PUBCHEM_MONOISOTOPIC_WEIGHT>
705.03616
> <PUBCHEM_TOTAL_CHARGE>
0
> <PUBCHEM_HEAVY_ATOM_COUNT>
43
> <PUBCHEM_ATOM_DEF_STEREO_COUNT>
4
> <PUBCHEM_ATOM_UDEF_STEREO_COUNT>
0
> <PUBCHEM_BOND_DEF_STEREO_COUNT>
0
> <PUBCHEM_BOND_UDEF_STEREO_COUNT>
0
> <PUBCHEM_ISOTOPIC_ATOM_COUNT>
0
> <PUBCHEM_COMPONENT_COUNT>
1
> <PUBCHEM_CACTVS_TAUTO_COUNT>
-1
> <PUBCHEM_COORDINATE_TYPE>
1
5
255
> <PUBCHEM_BONDANNOTATIONS>
13  14  6
15  17  8
15  21  8
17  22  8
21  26  8
22  27  8
23  29  8
23  30  8
24  31  8
24  32  8
26  27  8
28  37  8
28  38  8
29  33  8
30  34  8
31  35  8
32  36  8
33  39  8
34  39  8
35  40  8
36  40  8
37  41  8
38  42  8
10  4  5
41  43  8
42  43  8
11  5  5
12  9  6
$$$$
