501366
  -OEChem-10302200282D
 75 80  0     1  0  0  0  0  0999 V2000
    8.0365    1.0206    0.0000 O   0  0  0  0  0  0  0  0  0  0  0  0
    5.4985    0.5162    0.0000 O   0  0  0  0  0  0  0  0  0  0  0  0
    6.7803   -1.2417    0.0000 O   0  0  0  0  0  0  0  0  0  0  0  0
    9.7611   -0.1575    0.0000 O   0  0  0  0  0  0  0  0  0  0  0  0
    8.3578    3.0832    0.0000 O   0  0  0  0  0  0  0  0  0  0  0  0
    7.0849    4.8384    0.0000 O   0  0  0  0  0  0  0  0  0  0  0  0
    6.7742    2.2785    0.0000 N   0  0  0  0  0  0  0  0  0  0  0  0
    6.4985    0.5179    0.0000 C   0  0  2  0  0  0  0  0  0  0  0  0
    7.0877   -0.2901    0.0000 C   0  0  1  0  0  0  0  0  0  0  0  0
    7.0849    1.3279    0.0000 C   0  0  1  0  0  0  0  0  0  0  0  0
    8.0382    0.0206    0.0000 C   0  0  1  0  0  0  0  0  0  0  0  0
    8.8482   -0.5658    0.0000 C   0  0  0  0  0  0  0  0  0  0  0  0
    5.8280    2.5832    0.0000 C   0  0  0  0  0  0  0  0  0  0  0  0
    7.3578    3.0832    0.0000 C   0  0  0  0  0  0  0  0  0  0  0  0
    5.8280    3.5832    0.0000 C   0  0  0  0  0  0  0  0  0  0  0  0
    5.0000   -0.3507    0.0000 C   0  0  0  0  0  0  0  0  0  0  0  0
    7.4507   -1.9837    0.0000 C   0  0  0  0  0  0  0  0  0  0  0  0
    6.7742    3.8879    0.0000 C   0  0  0  0  0  0  0  0  0  0  0  0
    4.9620    2.0832    0.0000 C   0  0  0  0  0  0  0  0  0  0  0  0
    4.9620    4.0832    0.0000 C   0  0  0  0  0  0  0  0  0  0  0  0
    4.0000   -0.3524    0.0000 C   0  0  0  0  0  0  0  0  0  0  0  0
    7.1434   -2.9353    0.0000 C   0  0  0  0  0  0  0  0  0  0  0  0
   10.5711   -0.7439    0.0000 C   0  0  0  0  0  0  0  0  0  0  0  0
    4.0960    3.5832    0.0000 C   0  0  0  0  0  0  0  0  0  0  0  0
    4.0960    2.5832    0.0000 C   0  0  0  0  0  0  0  0  0  0  0  0
   11.4839   -0.3356    0.0000 C   0  0  0  0  0  0  0  0  0  0  0  0
    3.2299    4.0832    0.0000 C   0  0  0  0  0  0  0  0  0  0  0  0
    3.4985    0.5127    0.0000 C   0  0  0  0  0  0  0  0  0  0  0  0
    3.5015   -1.2193    0.0000 C   0  0  0  0  0  0  0  0  0  0  0  0
    6.1656   -3.1449    0.0000 C   0  0  0  0  0  0  0  0  0  0  0  0
    7.8138   -3.6772    0.0000 C   0  0  0  0  0  0  0  0  0  0  0  0
    2.4985    0.5110    0.0000 C   0  0  0  0  0  0  0  0  0  0  0  0
    2.5015   -1.2211    0.0000 C   0  0  0  0  0  0  0  0  0  0  0  0
    5.8582   -4.0965    0.0000 C   0  0  0  0  0  0  0  0  0  0  0  0
    7.5064   -4.6288    0.0000 C   0  0  0  0  0  0  0  0  0  0  0  0
   11.5868    0.6591    0.0000 C   0  0  0  0  0  0  0  0  0  0  0  0
   12.2940   -0.9220    0.0000 C   0  0  0  0  0  0  0  0  0  0  0  0
    2.0000   -0.3559    0.0000 C   0  0  0  0  0  0  0  0  0  0  0  0
    6.5286   -4.8384    0.0000 C   0  0  0  0  0  0  0  0  0  0  0  0
   12.4996    1.0674    0.0000 C   0  0  0  0  0  0  0  0  0  0  0  0
   13.2068   -0.5136    0.0000 C   0  0  0  0  0  0  0  0  0  0  0  0
   13.3096    0.4811    0.0000 C   0  0  0  0  0  0  0  0  0  0  0  0
    6.2161    1.0698    0.0000 H   0  0  0  0  0  0  0  0  0  0  0  0
    6.4755   -0.3881    0.0000 H   0  0  0  0  0  0  0  0  0  0  0  0
    7.5225    1.7671    0.0000 H   0  0  0  0  0  0  0  0  0  0  0  0
    8.5901    0.3030    0.0000 H   0  0  0  0  0  0  0  0  0  0  0  0
    8.4030   -0.9973    0.0000 H   0  0  0  0  0  0  0  0  0  0  0  0
    9.1958   -1.0792    0.0000 H   0  0  0  0  0  0  0  0  0  0  0  0
    4.8934   -0.9615    0.0000 H   0  0  0  0  0  0  0  0  0  0  0  0
    5.5830   -0.5618    0.0000 H   0  0  0  0  0  0  0  0  0  0  0  0
    7.9986   -2.2738    0.0000 H   0  0  0  0  0  0  0  0  0  0  0  0
    7.8316   -1.4944    0.0000 H   0  0  0  0  0  0  0  0  0  0  0  0
    4.9620    1.4632    0.0000 H   0  0  0  0  0  0  0  0  0  0  0  0
    4.9620    4.7032    0.0000 H   0  0  0  0  0  0  0  0  0  0  0  0
   10.1259   -1.1753    0.0000 H   0  0  0  0  0  0  0  0  0  0  0  0
   10.9187   -1.2573    0.0000 H   0  0  0  0  0  0  0  0  0  0  0  0
    3.5590    2.2732    0.0000 H   0  0  0  0  0  0  0  0  0  0  0  0
    3.5399    4.6201    0.0000 H   0  0  0  0  0  0  0  0  0  0  0  0
    2.6930    4.3932    0.0000 H   0  0  0  0  0  0  0  0  0  0  0  0
    2.9199    3.5462    0.0000 H   0  0  0  0  0  0  0  0  0  0  0  0
    3.8076    1.0502    0.0000 H   0  0  0  0  0  0  0  0  0  0  0  0
    3.8124   -1.7557    0.0000 H   0  0  0  0  0  0  0  0  0  0  0  0
    5.7499   -2.6848    0.0000 H   0  0  0  0  0  0  0  0  0  0  0  0
    8.4200   -3.5473    0.0000 H   0  0  0  0  0  0  0  0  0  0  0  0
    2.1876    1.0474    0.0000 H   0  0  0  0  0  0  0  0  0  0  0  0
    2.1924   -1.7585    0.0000 H   0  0  0  0  0  0  0  0  0  0  0  0
    5.2520   -4.2264    0.0000 H   0  0  0  0  0  0  0  0  0  0  0  0
    7.9221   -5.0889    0.0000 H   0  0  0  0  0  0  0  0  0  0  0  0
   11.0845    1.0227    0.0000 H   0  0  0  0  0  0  0  0  0  0  0  0
   12.2302   -1.5387    0.0000 H   0  0  0  0  0  0  0  0  0  0  0  0
    1.3800   -0.3570    0.0000 H   0  0  0  0  0  0  0  0  0  0  0  0
    6.3380   -5.4284    0.0000 H   0  0  0  0  0  0  0  0  0  0  0  0
   12.5633    1.6842    0.0000 H   0  0  0  0  0  0  0  0  0  0  0  0
   13.7090   -0.8772    0.0000 H   0  0  0  0  0  0  0  0  0  0  0  0
   13.8756    0.7342    0.0000 H   0  0  0  0  0  0  0  0  0  0  0  0
  1 10  1  0  0  0  0
  1 11  1  0  0  0  0
  8  2  1  1  0  0  0
  2 16  1  0  0  0  0
  9  3  1  1  0  0  0
  3 17  1  0  0  0  0
  4 12  1  0  0  0  0
  4 23  1  0  0  0  0
  5 14  2  0  0  0  0
  6 18  2  0  0  0  0
 10  7  1  6  0  0  0
  7 13  1  0  0  0  0
  7 14  1  0  0  0  0
  8  9  1  0  0  0  0
  8 10  1  0  0  0  0
  8 43  1  0  0  0  0
  9 11  1  0  0  0  0
  9 44  1  0  0  0  0
 10 45  1  0  0  0  0
 11 12  1  6  0  0  0
 11 46  1  0  0  0  0
 12 47  1  0  0  0  0
 12 48  1  0  0  0  0
 13 15  2  0  0  0  0
 13 19  1  0  0  0  0
 14 18  1  0  0  0  0
 15 18  1  0  0  0  0
 15 20  1  0  0  0  0
 16 21  1  0  0  0  0
 16 49  1  0  0  0  0
 16 50  1  0  0  0  0
 17 22  1  0  0  0  0
 17 51  1  0  0  0  0
 17 52  1  0  0  0  0
 19 25  2  0  0  0  0
 19 53  1  0  0  0  0
 20 24  2  0  0  0  0
 20 54  1  0  0  0  0
 21 28  2  0  0  0  0
 21 29  1  0  0  0  0
 22 30  2  0  0  0  0
 22 31  1  0  0  0  0
 23 26  1  0  0  0  0
 23 55  1  0  0  0  0
 23 56  1  0  0  0  0
 24 25  1  0  0  0  0
 24 27  1  0  0  0  0
 25 57  1  0  0  0  0
 26 36  2  0  0  0  0
 26 37  1  0  0  0  0
 27 58  1  0  0  0  0
 27 59  1  0  0  0  0
 27 60  1  0  0  0  0
 28 32  1  0  0  0  0
 28 61  1  0  0  0  0
 29 33  2  0  0  0  0
 29 62  1  0  0  0  0
 30 34  1  0  0  0  0
 30 63  1  0  0  0  0
 31 35  2  0  0  0  0
 31 64  1  0  0  0  0
 32 38  2  0  0  0  0
 32 65  1  0  0  0  0
 33 38  1  0  0  0  0
 33 66  1  0  0  0  0
 34 39  2  0  0  0  0
 34 67  1  0  0  0  0
 35 39  1  0  0  0  0
 35 68  1  0  0  0  0
 36 40  1  0  0  0  0
 36 69  1  0  0  0  0
 37 41  2  0  0  0  0
 37 70  1  0  0  0  0
 38 71  1  0  0  0  0
 39 72  1  0  0  0  0
 40 42  2  0  0  0  0
 40 73  1  0  0  0  0
 41 42  1  0  0  0  0
 41 74  1  0  0  0  0
 42 75  1  0  0  0  0
M  END
> <PUBCHEM_COMPOUND_CID>
501366
> <PUBCHEM_COMPOUND_CANONICALIZED>
1
> <PUBCHEM_CACTVS_COMPLEXITY>
879
> <PUBCHEM_CACTVS_HBOND_ACCEPTOR>
6
> <PUBCHEM_CACTVS_HBOND_DONOR>
0
> <PUBCHEM_CACTVS_ROTATABLE_BOND>
11
> <PUBCHEM_CACTVS_SUBSKEYS>
AAADcfB+OAAAAAAAAAAAAAAAAAAAAWJAAAAwYMGAAAAAAFgBVAAAHgAAAAAADBzhmAYywIMABACIAqVSUACCAAAlAgAIiAGIbMgLJjrAtbmPMYhnxgHa6cf8+OqOCAACAAACAAAQAAQAAAQAAAAAAAAAAA==
> <PUBCHEM_IUPAC_OPENEYE_NAME>
1-[(2R,3R,4R,5R)-3,4-dibenzyloxy-5-(benzyloxymethyl)tetrahydrofuran-2-yl]-5-methyl-indoline-2,3-dione
> <PUBCHEM_IUPAC_CAS_NAME>
1-[(2R,3R,4R,5R)-3,4-bis(phenylmethoxy)-5-(phenylmethoxymethyl)-2-oxolanyl]-5-methylindole-2,3-dione
> <PUBCHEM_IUPAC_NAME_MARKUP>
1-[(2<I>R</I>,3<I>R</I>,4<I>R</I>,5<I>R</I>)-3,4-bis(phenylmethoxy)-5-(phenylmethoxymethyl)oxolan-2-yl]-5-methylindole-2,3-dione
> <PUBCHEM_IUPAC_NAME>
1-[(2R,3R,4R,5R)-3,4-bis(phenylmethoxy)-5-(phenylmethoxymethyl)oxolan-2-yl]-5-methylindole-2,3-dione
> <PUBCHEM_IUPAC_SYSTEMATIC_NAME>
1-[(2R,3R,4R,5R)-3,4-bis(phenylmethoxy)-5-(phenylmethoxymethyl)oxolan-2-yl]-5-methyl-indole-2,3-dione
> <PUBCHEM_IUPAC_TRADITIONAL_NAME>
1-[(2R,3R,4R,5R)-3,4-dibenzoxy-5-(benzoxymethyl)tetrahydrofuran-2-yl]-5-methyl-isatin
> <PUBCHEM_IUPAC_INCHI>
InChI=1S/C35H33NO6/c1-24-17-18-29-28(19-24)31(37)34(38)36(29)35-33(41-22-27-15-9-4-10-16-27)32(40-21-26-13-7-3-8-14-26)30(42-35)23-39-20-25-11-5-2-6-12-25/h2-19,30,32-33,35H,20-23H2,1H3/t30-,32-,33-,35-/m1/s1
> <PUBCHEM_IUPAC_INCHIKEY>
ZXHUPILISRZURQ-NHASGABXSA-N
> <PUBCHEM_XLOGP3_AA>
5.3
> <PUBCHEM_EXACT_MASS>
563.23078777
> <PUBCHEM_MOLECULAR_FORMULA>
C35H33NO6
> <PUBCHEM_MOLECULAR_WEIGHT>
563.6
> <PUBCHEM_OPENEYE_CAN_SMILES>
CC1=CC2=C(C=C1)N(C(=O)C2=O)C3C(C(C(O3)COCC4=CC=CC=C4)OCC5=CC=CC=C5)OCC6=CC=CC=C6
> <PUBCHEM_OPENEYE_ISO_SMILES>
CC1=CC2=C(C=C1)N(C(=O)C2=O)[C@H]3[C@@H]([C@@H]([C@H](O3)COCC4=CC=CC=C4)OCC5=CC=CC=C5)OCC6=CC=CC=C6
> <PUBCHEM_CACTVS_TPSA>
74.3
> <PUBCHEM_MONOISOTOPIC_WEIGHT>
563.23078777
> <PUBCHEM_TOTAL_CHARGE>
0
> <PUBCHEM_HEAVY_ATOM_COUNT>
42
> <PUBCHEM_ATOM_DEF_STEREO_COUNT>
4
> <PUBCHEM_ATOM_UDEF_STEREO_COUNT>
0
> <PUBCHEM_BOND_DEF_STEREO_COUNT>
0
> <PUBCHEM_BOND_UDEF_STEREO_COUNT>
0
> <PUBCHEM_ISOTOPIC_ATOM_COUNT>
0
> <PUBCHEM_COMPONENT_COUNT>
1
> <PUBCHEM_CACTVS_TAUTO_COUNT>
-1
> <PUBCHEM_COORDINATE_TYPE>
1
5
255
> <PUBCHEM_BONDANNOTATIONS>
11  12  6
13  15  8
13  19  8
15  20  8
19  25  8
8  2  5
20  24  8
21  28  8
21  29  8
22  30  8
22  31  8
24  25  8
26  36  8
26  37  8
28  32  8
29  33  8
9  3  5
30  34  8
31  35  8
32  38  8
33  38  8
34  39  8
35  39  8
36  40  8
37  41  8
40  42  8
41  42  8
10  7  6
$$$$
