501360
  -OEChem-10302200282D
 46 49  0     1  0  0  0  0  0999 V2000
    4.1472   -2.0203    0.0000 F   0  0  0  0  0  0  0  0  0  0  0  0
    7.6112   -2.0203    0.0000 F   0  0  0  0  0  0  0  0  0  0  0  0
    7.6112    0.9797    0.0000 O   0  0  0  0  0  0  0  0  0  0  0  0
    3.3209   -0.5836    0.0000 N   0  0  0  0  0  0  0  0  0  0  0  0
    2.5000    1.5080    0.0000 N   0  0  0  0  0  0  0  0  0  0  0  0
    8.4773   -0.5203    0.0000 N   0  0  0  0  0  0  0  0  0  0  0  0
   12.0216   -0.3250    0.0000 N   0  0  0  0  0  0  0  0  0  0  0  0
   12.6052    0.4797    0.0000 N   0  0  0  0  0  0  0  0  0  0  0  0
    4.1472   -0.0203    0.0000 C   0  0  3  0  0  0  0  0  0  0  0  0
    4.2219    0.9769    0.0000 C   0  0  0  0  0  0  0  0  0  0  0  0
    3.4888    1.6571    0.0000 C   0  0  0  0  0  0  0  0  0  0  0  0
    2.3653   -0.2889    0.0000 C   0  0  0  0  0  0  0  0  0  0  0  0
    5.0132   -0.5203    0.0000 C   0  0  0  0  0  0  0  0  0  0  0  0
    2.0000    0.6420    0.0000 C   0  0  0  0  0  0  0  0  0  0  0  0
    5.8792   -0.0203    0.0000 C   0  0  0  0  0  0  0  0  0  0  0  0
    5.0132   -1.5203    0.0000 C   0  0  0  0  0  0  0  0  0  0  0  0
    6.7452   -0.5203    0.0000 C   0  0  0  0  0  0  0  0  0  0  0  0
    5.8792   -2.0203    0.0000 C   0  0  0  0  0  0  0  0  0  0  0  0
    6.7452   -1.5203    0.0000 C   0  0  0  0  0  0  0  0  0  0  0  0
    7.6112   -0.0203    0.0000 C   0  0  0  0  0  0  0  0  0  0  0  0
    9.3433   -0.0203    0.0000 C   0  0  0  0  0  0  0  0  0  0  0  0
   11.0754   -0.0203    0.0000 C   0  0  0  0  0  0  0  0  0  0  0  0
   10.2093   -0.5203    0.0000 C   0  0  0  0  0  0  0  0  0  0  0  0
   11.0754    0.9797    0.0000 C   0  0  0  0  0  0  0  0  0  0  0  0
    9.3433    0.9797    0.0000 C   0  0  0  0  0  0  0  0  0  0  0  0
   10.2093    1.4797    0.0000 C   0  0  0  0  0  0  0  0  0  0  0  0
   12.0216    1.2844    0.0000 C   0  0  0  0  0  0  0  0  0  0  0  0
    4.1703   -0.6399    0.0000 H   0  0  0  0  0  0  0  0  0  0  0  0
    4.8143    0.7942    0.0000 H   0  0  0  0  0  0  0  0  0  0  0  0
    4.5319    1.5138    0.0000 H   0  0  0  0  0  0  0  0  0  0  0  0
    4.0011    2.0063    0.0000 H   0  0  0  0  0  0  0  0  0  0  0  0
    3.2623    2.2342    0.0000 H   0  0  0  0  0  0  0  0  0  0  0  0
    3.4133   -1.1967    0.0000 H   0  0  0  0  0  0  0  0  0  0  0  0
    1.7523   -0.3813    0.0000 H   0  0  0  0  0  0  0  0  0  0  0  0
    2.3190   -0.9071    0.0000 H   0  0  0  0  0  0  0  0  0  0  0  0
    1.5455    1.0637    0.0000 H   0  0  0  0  0  0  0  0  0  0  0  0
    1.4877    0.2927    0.0000 H   0  0  0  0  0  0  0  0  0  0  0  0
    2.1507    2.0203    0.0000 H   0  0  0  0  0  0  0  0  0  0  0  0
    5.8792    0.5997    0.0000 H   0  0  0  0  0  0  0  0  0  0  0  0
    5.8792   -2.6403    0.0000 H   0  0  0  0  0  0  0  0  0  0  0  0
    8.4773   -1.1403    0.0000 H   0  0  0  0  0  0  0  0  0  0  0  0
   10.2093   -1.1403    0.0000 H   0  0  0  0  0  0  0  0  0  0  0  0
    8.8064    1.2897    0.0000 H   0  0  0  0  0  0  0  0  0  0  0  0
   10.2093    2.0997    0.0000 H   0  0  0  0  0  0  0  0  0  0  0  0
   12.2142   -0.9144    0.0000 H   0  0  0  0  0  0  0  0  0  0  0  0
   12.2142    1.8738    0.0000 H   0  0  0  0  0  0  0  0  0  0  0  0
  1 16  1  0  0  0  0
  2 19  1  0  0  0  0
  3 20  2  0  0  0  0
  4  9  1  0  0  0  0
  4 12  1  0  0  0  0
  4 33  1  0  0  0  0
  5 11  1  0  0  0  0
  5 14  1  0  0  0  0
  5 38  1  0  0  0  0
  6 20  1  0  0  0  0
  6 21  1  0  0  0  0
  6 41  1  0  0  0  0
  7  8  1  0  0  0  0
  7 22  1  0  0  0  0
  7 45  1  0  0  0  0
  8 27  2  0  0  0  0
  9 10  1  0  0  0  0
  9 13  1  0  0  0  0
  9 28  1  0  0  0  0
 10 11  1  0  0  0  0
 10 29  1  0  0  0  0
 10 30  1  0  0  0  0
 11 31  1  0  0  0  0
 11 32  1  0  0  0  0
 12 14  1  0  0  0  0
 12 34  1  0  0  0  0
 12 35  1  0  0  0  0
 13 15  2  0  0  0  0
 13 16  1  0  0  0  0
 14 36  1  0  0  0  0
 14 37  1  0  0  0  0
 15 17  1  0  0  0  0
 15 39  1  0  0  0  0
 16 18  2  0  0  0  0
 17 19  2  0  0  0  0
 17 20  1  0  0  0  0
 18 19  1  0  0  0  0
 18 40  1  0  0  0  0
 21 23  2  0  0  0  0
 21 25  1  0  0  0  0
 22 23  1  0  0  0  0
 22 24  2  0  0  0  0
 23 42  1  0  0  0  0
 24 26  1  0  0  0  0
 24 27  1  0  0  0  0
 25 26  2  0  0  0  0
 25 43  1  0  0  0  0
 26 44  1  0  0  0  0
 27 46  1  0  0  0  0
M  END
> <PUBCHEM_COMPOUND_CID>
501360
> <PUBCHEM_COMPOUND_CANONICALIZED>
1
> <PUBCHEM_CACTVS_COMPLEXITY>
524
> <PUBCHEM_CACTVS_HBOND_ACCEPTOR>
6
> <PUBCHEM_CACTVS_HBOND_DONOR>
4
> <PUBCHEM_CACTVS_ROTATABLE_BOND>
3
> <PUBCHEM_CACTVS_SUBSKEYS>
AAADceB7oYAAAAAAAAAAAAAAAAAAAWAAAAAwYAAABYAAAFgB9AAAHwAYAAAADCjBngw8wPLjAACqAzV3UACSBAAlggAYuaE4ZNgIYLLA1dGUpQhgnADIyYcYicCeCAACAAQCAAAQAAQACAQAAAAAAAAAAA==
> <PUBCHEM_IUPAC_OPENEYE_NAME>
5-(1,4-diazepan-5-yl)-2,4-difluoro-N-(1H-indazol-6-yl)benzamide
> <PUBCHEM_IUPAC_CAS_NAME>
5-(1,4-diazepan-5-yl)-2,4-difluoro-N-(1H-indazol-6-yl)benzamide
> <PUBCHEM_IUPAC_NAME_MARKUP>
5-(1,4-diazepan-5-yl)-2,4-difluoro-<I>N</I>-(1<I>H</I>-indazol-6-yl)benzamide
> <PUBCHEM_IUPAC_NAME>
5-(1,4-diazepan-5-yl)-2,4-difluoro-N-(1H-indazol-6-yl)benzamide
> <PUBCHEM_IUPAC_SYSTEMATIC_NAME>
5-(1,4-diazepan-5-yl)-2,4-bis(fluoranyl)-N-(1H-indazol-6-yl)benzamide
> <PUBCHEM_IUPAC_TRADITIONAL_NAME>
5-(1,4-diazepan-5-yl)-2,4-difluoro-N-(1H-indazol-6-yl)benzamide
> <PUBCHEM_IUPAC_INCHI>
InChI=1S/C19H19F2N5O/c20-15-9-16(21)14(8-13(15)17-3-4-22-5-6-23-17)19(27)25-12-2-1-11-10-24-26-18(11)7-12/h1-2,7-10,17,22-23H,3-6H2,(H,24,26)(H,25,27)
> <PUBCHEM_IUPAC_INCHIKEY>
KPCBSNNEYPKAQO-UHFFFAOYSA-N
> <PUBCHEM_XLOGP3_AA>
1.7
> <PUBCHEM_EXACT_MASS>
371.15576657
> <PUBCHEM_MOLECULAR_FORMULA>
C19H19F2N5O
> <PUBCHEM_MOLECULAR_WEIGHT>
371.4
> <PUBCHEM_OPENEYE_CAN_SMILES>
C1CNCCNC1C2=CC(=C(C=C2F)F)C(=O)NC3=CC4=C(C=C3)C=NN4
> <PUBCHEM_OPENEYE_ISO_SMILES>
C1CNCCNC1C2=CC(=C(C=C2F)F)C(=O)NC3=CC4=C(C=C3)C=NN4
> <PUBCHEM_CACTVS_TPSA>
81.8
> <PUBCHEM_MONOISOTOPIC_WEIGHT>
371.15576657
> <PUBCHEM_TOTAL_CHARGE>
0
> <PUBCHEM_HEAVY_ATOM_COUNT>
27
> <PUBCHEM_ATOM_DEF_STEREO_COUNT>
0
> <PUBCHEM_ATOM_UDEF_STEREO_COUNT>
1
> <PUBCHEM_BOND_DEF_STEREO_COUNT>
0
> <PUBCHEM_BOND_UDEF_STEREO_COUNT>
0
> <PUBCHEM_ISOTOPIC_ATOM_COUNT>
0
> <PUBCHEM_COMPONENT_COUNT>
1
> <PUBCHEM_CACTVS_TAUTO_COUNT>
-1
> <PUBCHEM_COORDINATE_TYPE>
1
5
255
> <PUBCHEM_BONDANNOTATIONS>
13  15  8
13  16  8
15  17  8
16  18  8
17  19  8
18  19  8
21  23  8
21  25  8
22  23  8
22  24  8
24  26  8
24  27  8
25  26  8
7  22  8
7  8  8
8  27  8
9  13  3
$$$$
