501376
  -OEChem-10302200282D
 44 47  0     1  0  0  0  0  0999 V2000
    2.0000    3.5580    0.0000 Cl  0  0  0  0  0  0  0  0  0  0  0  0
    6.8990   -1.3409    0.0000 O   0  0  0  0  0  0  0  0  0  0  0  0
    6.5708    3.2299    0.0000 O   0  0  0  0  0  0  0  0  0  0  0  0
    9.1015   -2.4484    0.0000 N   0  0  0  0  0  0  0  0  0  0  0  0
    8.8427   -3.4143    0.0000 C   0  0  0  0  0  0  0  0  0  0  0  0
    7.8649   -1.5998    0.0000 C   0  0  3  0  0  0  0  0  0  0  0  0
    7.4700   -4.0063    0.0000 C   0  0  0  0  0  0  0  0  0  0  0  0
   10.2416   -3.9231    0.0000 C   0  0  0  0  0  0  0  0  0  0  0  0
    8.7309   -1.0998    0.0000 C   0  0  0  0  0  0  0  0  0  0  0  0
    7.1280   -3.0666    0.0000 C   0  0  0  0  0  0  0  0  0  0  0  0
   10.5005   -2.9572    0.0000 C   0  0  0  0  0  0  0  0  0  0  0  0
    6.6402   -0.3750    0.0000 C   0  0  0  0  0  0  0  0  0  0  0  0
    5.6742   -0.1162    0.0000 C   0  0  0  0  0  0  0  0  0  0  0  0
    7.3473    0.3321    0.0000 C   0  0  0  0  0  0  0  0  0  0  0  0
    5.4154    0.8497    0.0000 C   0  0  0  0  0  0  0  0  0  0  0  0
    7.0884    1.2980    0.0000 C   0  0  0  0  0  0  0  0  0  0  0  0
    6.1225    1.5568    0.0000 C   0  0  0  0  0  0  0  0  0  0  0  0
    5.8637    2.5228    0.0000 C   0  0  0  0  0  0  0  0  0  0  0  0
    4.8978    2.7816    0.0000 C   0  0  0  0  0  0  0  0  0  0  0  0
    4.6390    3.7475    0.0000 C   0  0  0  0  0  0  0  0  0  0  0  0
    4.1907    2.0745    0.0000 C   0  0  0  0  0  0  0  0  0  0  0  0
    3.6730    4.0063    0.0000 C   0  0  0  0  0  0  0  0  0  0  0  0
    3.2247    2.3333    0.0000 C   0  0  0  0  0  0  0  0  0  0  0  0
    2.9659    3.2992    0.0000 C   0  0  0  0  0  0  0  0  0  0  0  0
    8.8608   -4.0340    0.0000 H   0  0  0  0  0  0  0  0  0  0  0  0
    7.7840   -0.9851    0.0000 H   0  0  0  0  0  0  0  0  0  0  0  0
    6.8916   -4.2296    0.0000 H   0  0  0  0  0  0  0  0  0  0  0  0
    7.7044   -4.5803    0.0000 H   0  0  0  0  0  0  0  0  0  0  0  0
   10.0467   -4.5117    0.0000 H   0  0  0  0  0  0  0  0  0  0  0  0
   10.8356   -4.1009    0.0000 H   0  0  0  0  0  0  0  0  0  0  0  0
    9.3126   -0.8852    0.0000 H   0  0  0  0  0  0  0  0  0  0  0  0
    8.4677   -0.5384    0.0000 H   0  0  0  0  0  0  0  0  0  0  0  0
    6.9337   -2.4779    0.0000 H   0  0  0  0  0  0  0  0  0  0  0  0
    6.5422   -3.2698    0.0000 H   0  0  0  0  0  0  0  0  0  0  0  0
   11.0944   -3.1350    0.0000 H   0  0  0  0  0  0  0  0  0  0  0  0
   10.6954   -2.3686    0.0000 H   0  0  0  0  0  0  0  0  0  0  0  0
    5.2358   -0.5546    0.0000 H   0  0  0  0  0  0  0  0  0  0  0  0
    7.9461    0.1716    0.0000 H   0  0  0  0  0  0  0  0  0  0  0  0
    4.8165    1.0102    0.0000 H   0  0  0  0  0  0  0  0  0  0  0  0
    7.5268    1.7364    0.0000 H   0  0  0  0  0  0  0  0  0  0  0  0
    5.0774    4.1859    0.0000 H   0  0  0  0  0  0  0  0  0  0  0  0
    4.3511    1.4756    0.0000 H   0  0  0  0  0  0  0  0  0  0  0  0
    3.5126    4.6052    0.0000 H   0  0  0  0  0  0  0  0  0  0  0  0
    2.7863    1.8949    0.0000 H   0  0  0  0  0  0  0  0  0  0  0  0
  1 24  1  0  0  0  0
  2  6  1  0  0  0  0
  2 12  1  0  0  0  0
  3 18  2  0  0  0  0
  4  9  1  0  0  0  0
  4 10  1  0  0  0  0
  4 11  1  0  0  0  0
  5  6  1  0  0  0  0
  5  7  1  0  0  0  0
  5  8  1  0  0  0  0
  5 25  1  0  0  0  0
  6  9  1  0  0  0  0
  6 26  1  0  0  0  0
  7 10  1  0  0  0  0
  7 27  1  0  0  0  0
  7 28  1  0  0  0  0
  8 11  1  0  0  0  0
  8 29  1  0  0  0  0
  8 30  1  0  0  0  0
  9 31  1  0  0  0  0
  9 32  1  0  0  0  0
 10 33  1  0  0  0  0
 10 34  1  0  0  0  0
 11 35  1  0  0  0  0
 11 36  1  0  0  0  0
 12 13  2  0  0  0  0
 12 14  1  0  0  0  0
 13 15  1  0  0  0  0
 13 37  1  0  0  0  0
 14 16  2  0  0  0  0
 14 38  1  0  0  0  0
 15 17  2  0  0  0  0
 15 39  1  0  0  0  0
 16 17  1  0  0  0  0
 16 40  1  0  0  0  0
 17 18  1  0  0  0  0
 18 19  1  0  0  0  0
 19 20  2  0  0  0  0
 19 21  1  0  0  0  0
 20 22  1  0  0  0  0
 20 41  1  0  0  0  0
 21 23  2  0  0  0  0
 21 42  1  0  0  0  0
 22 24  2  0  0  0  0
 22 43  1  0  0  0  0
 23 24  1  0  0  0  0
 23 44  1  0  0  0  0
M  END
> <PUBCHEM_COMPOUND_CID>
501376
> <PUBCHEM_COMPOUND_CANONICALIZED>
1
> <PUBCHEM_CACTVS_COMPLEXITY>
433
> <PUBCHEM_CACTVS_HBOND_ACCEPTOR>
3
> <PUBCHEM_CACTVS_HBOND_DONOR>
0
> <PUBCHEM_CACTVS_ROTATABLE_BOND>
4
> <PUBCHEM_CACTVS_SUBSKEYS>
AAADceB6MAAEAAAAAAAAAAAAAAAAAAAAAAA8eLECAAAAAAABQAAAHgIAAAAADRbhmCYwBoMABACIAqBSAAACCAAkJQAIiAEOCsgOJjKFtxqHOSCkwBGYqYe4zODOJAAAAAAAAABIAAAAAAAAAAAAAAAAAA==
> <PUBCHEM_IUPAC_OPENEYE_NAME>
(4-chlorophenyl)-(4-quinuclidin-3-yloxyphenyl)methanone
> <PUBCHEM_IUPAC_CAS_NAME>
[4-(1-azabicyclo[2.2.2]octan-3-yloxy)phenyl]-(4-chlorophenyl)methanone
> <PUBCHEM_IUPAC_NAME_MARKUP>
[4-(1-azabicyclo[2.2.2]octan-3-yloxy)phenyl]-(4-chlorophenyl)methanone
> <PUBCHEM_IUPAC_NAME>
[4-(1-azabicyclo[2.2.2]octan-3-yloxy)phenyl]-(4-chlorophenyl)methanone
> <PUBCHEM_IUPAC_SYSTEMATIC_NAME>
[4-(1-azabicyclo[2.2.2]octan-3-yloxy)phenyl]-(4-chlorophenyl)methanone
> <PUBCHEM_IUPAC_TRADITIONAL_NAME>
(4-chlorophenyl)-(4-quinuclidin-3-yloxyphenyl)methanone
> <PUBCHEM_IUPAC_INCHI>
InChI=1S/C20H20ClNO2/c21-17-5-1-15(2-6-17)20(23)16-3-7-18(8-4-16)24-19-13-22-11-9-14(19)10-12-22/h1-8,14,19H,9-13H2
> <PUBCHEM_IUPAC_INCHIKEY>
PXFAACCCJKQJNK-UHFFFAOYSA-N
> <PUBCHEM_XLOGP3_AA>
4.5
> <PUBCHEM_EXACT_MASS>
341.1182566
> <PUBCHEM_MOLECULAR_FORMULA>
C20H20ClNO2
> <PUBCHEM_MOLECULAR_WEIGHT>
341.8
> <PUBCHEM_OPENEYE_CAN_SMILES>
C1CN2CCC1C(C2)OC3=CC=C(C=C3)C(=O)C4=CC=C(C=C4)Cl
> <PUBCHEM_OPENEYE_ISO_SMILES>
C1CN2CCC1C(C2)OC3=CC=C(C=C3)C(=O)C4=CC=C(C=C4)Cl
> <PUBCHEM_CACTVS_TPSA>
29.5
> <PUBCHEM_MONOISOTOPIC_WEIGHT>
341.1182566
> <PUBCHEM_TOTAL_CHARGE>
0
> <PUBCHEM_HEAVY_ATOM_COUNT>
24
> <PUBCHEM_ATOM_DEF_STEREO_COUNT>
0
> <PUBCHEM_ATOM_UDEF_STEREO_COUNT>
1
> <PUBCHEM_BOND_DEF_STEREO_COUNT>
0
> <PUBCHEM_BOND_UDEF_STEREO_COUNT>
0
> <PUBCHEM_ISOTOPIC_ATOM_COUNT>
0
> <PUBCHEM_COMPONENT_COUNT>
1
> <PUBCHEM_CACTVS_TAUTO_COUNT>
-1
> <PUBCHEM_COORDINATE_TYPE>
1
5
255
> <PUBCHEM_BONDANNOTATIONS>
12  13  8
12  14  8
13  15  8
14  16  8
15  17  8
16  17  8
19  20  8
19  21  8
6  2  3
20  22  8
21  23  8
22  24  8
23  24  8
$$$$
