501392
  -OEChem-10302200282D
 45 45  0     1  0  0  0  0  0999 V2000
    6.3301    3.0950    0.0000 O   0  0  0  0  0  0  0  0  0  0  0  0
    4.5981    4.0950    0.0000 O   0  0  0  0  0  0  0  0  0  0  0  0
    2.8660    3.0950    0.0000 O   0  0  0  0  0  0  0  0  0  0  0  0
    7.1962    1.5950    0.0000 O   0  0  0  0  0  0  0  0  0  0  0  0
    4.5981    1.0950    0.0000 N   0  0  3  0  0  0  0  0  0  0  0  0
    5.4641    1.5950    0.0000 C   0  0  1  0  0  0  0  0  0  0  0  0
    5.4641    2.5950    0.0000 C   0  0  1  0  0  0  0  0  0  0  0  0
    4.5981    3.0950    0.0000 C   0  0  1  0  0  0  0  0  0  0  0  0
    3.7320    2.5950    0.0000 C   0  0  2  0  0  0  0  0  0  0  0  0
    3.7320    1.5950    0.0000 C   0  0  0  0  0  0  0  0  0  0  0  0
    4.5981    0.0950    0.0000 C   0  0  0  0  0  0  0  0  0  0  0  0
    6.3301    1.0950    0.0000 C   0  0  0  0  0  0  0  0  0  0  0  0
    3.7320   -0.4050    0.0000 C   0  0  0  0  0  0  0  0  0  0  0  0
    3.7320   -1.4050    0.0000 C   0  0  0  0  0  0  0  0  0  0  0  0
    2.8660   -1.9050    0.0000 C   0  0  0  0  0  0  0  0  0  0  0  0
    2.8660   -2.9050    0.0000 C   0  0  0  0  0  0  0  0  0  0  0  0
    2.0000   -3.4050    0.0000 C   0  0  0  0  0  0  0  0  0  0  0  0
    2.0000   -4.4050    0.0000 C   0  0  0  0  0  0  0  0  0  0  0  0
    5.4641    0.9750    0.0000 H   0  0  0  0  0  0  0  0  0  0  0  0
    5.4641    3.2150    0.0000 H   0  0  0  0  0  0  0  0  0  0  0  0
    4.0611    3.4050    0.0000 H   0  0  0  0  0  0  0  0  0  0  0  0
    3.7320    3.2150    0.0000 H   0  0  0  0  0  0  0  0  0  0  0  0
    3.1215    1.7027    0.0000 H   0  0  0  0  0  0  0  0  0  0  0  0
    3.5200    1.0124    0.0000 H   0  0  0  0  0  0  0  0  0  0  0  0
    4.8101   -0.4876    0.0000 H   0  0  0  0  0  0  0  0  0  0  0  0
    5.2087    0.2027    0.0000 H   0  0  0  0  0  0  0  0  0  0  0  0
    5.9316    0.6201    0.0000 H   0  0  0  0  0  0  0  0  0  0  0  0
    6.7287    0.6201    0.0000 H   0  0  0  0  0  0  0  0  0  0  0  0
    3.5200    0.1776    0.0000 H   0  0  0  0  0  0  0  0  0  0  0  0
    3.1215   -0.5127    0.0000 H   0  0  0  0  0  0  0  0  0  0  0  0
    3.9441   -1.9876    0.0000 H   0  0  0  0  0  0  0  0  0  0  0  0
    4.3426   -1.2973    0.0000 H   0  0  0  0  0  0  0  0  0  0  0  0
    6.3301    3.7150    0.0000 H   0  0  0  0  0  0  0  0  0  0  0  0
    4.0611    4.4050    0.0000 H   0  0  0  0  0  0  0  0  0  0  0  0
    2.3291    2.7850    0.0000 H   0  0  0  0  0  0  0  0  0  0  0  0
    2.6540   -1.3224    0.0000 H   0  0  0  0  0  0  0  0  0  0  0  0
    2.2554   -2.0127    0.0000 H   0  0  0  0  0  0  0  0  0  0  0  0
    3.0781   -3.4876    0.0000 H   0  0  0  0  0  0  0  0  0  0  0  0
    3.4766   -2.7973    0.0000 H   0  0  0  0  0  0  0  0  0  0  0  0
    7.7331    1.2850    0.0000 H   0  0  0  0  0  0  0  0  0  0  0  0
    1.7880   -2.8224    0.0000 H   0  0  0  0  0  0  0  0  0  0  0  0
    1.3894   -3.5127    0.0000 H   0  0  0  0  0  0  0  0  0  0  0  0
    1.3800   -4.4050    0.0000 H   0  0  0  0  0  0  0  0  0  0  0  0
    2.0000   -5.0250    0.0000 H   0  0  0  0  0  0  0  0  0  0  0  0
    2.6200   -4.4050    0.0000 H   0  0  0  0  0  0  0  0  0  0  0  0
  7  1  1  1  0  0  0
  1 33  1  0  0  0  0
  8  2  1  1  0  0  0
  2 34  1  0  0  0  0
  9  3  1  6  0  0  0
  3 35  1  0  0  0  0
  4 12  1  0  0  0  0
  4 40  1  0  0  0  0
  5  6  1  0  0  0  0
  5 10  1  0  0  0  0
  5 11  1  0  0  0  0
  6  7  1  0  0  0  0
  6 12  1  1  0  0  0
  6 19  1  0  0  0  0
  7  8  1  0  0  0  0
  7 20  1  0  0  0  0
  8  9  1  0  0  0  0
  8 21  1  0  0  0  0
  9 10  1  0  0  0  0
  9 22  1  0  0  0  0
 10 23  1  0  0  0  0
 10 24  1  0  0  0  0
 11 13  1  0  0  0  0
 11 25  1  0  0  0  0
 11 26  1  0  0  0  0
 12 27  1  0  0  0  0
 12 28  1  0  0  0  0
 13 14  1  0  0  0  0
 13 29  1  0  0  0  0
 13 30  1  0  0  0  0
 14 15  1  0  0  0  0
 14 31  1  0  0  0  0
 14 32  1  0  0  0  0
 15 16  1  0  0  0  0
 15 36  1  0  0  0  0
 15 37  1  0  0  0  0
 16 17  1  0  0  0  0
 16 38  1  0  0  0  0
 16 39  1  0  0  0  0
 17 18  1  0  0  0  0
 17 41  1  0  0  0  0
 17 42  1  0  0  0  0
 18 43  1  0  0  0  0
 18 44  1  0  0  0  0
 18 45  1  0  0  0  0
M  END
> <PUBCHEM_COMPOUND_CID>
501392
> <PUBCHEM_COMPOUND_CANONICALIZED>
1
> <PUBCHEM_CACTVS_COMPLEXITY>
227
> <PUBCHEM_CACTVS_HBOND_ACCEPTOR>
5
> <PUBCHEM_CACTVS_HBOND_DONOR>
4
> <PUBCHEM_CACTVS_ROTATABLE_BOND>
7
> <PUBCHEM_CACTVS_SUBSKEYS>
AAADceByOAAAAAAAAAAAAAAAAAAAAAAAAAAsAAAAAAAAAAAAAAAAHgAACAAACDzhgAYCAAMAAgAAAAAAAAAAAAAAAAAAAAAIAAADEAIAgAAEQAAHAACRAAHw4AQAAAAAAAAAAAAAAAAAAAAAAAAAAAAAAA==
> <PUBCHEM_IUPAC_OPENEYE_NAME>
(2R,3S,4R,5S)-1-heptyl-2-(hydroxymethyl)piperidine-3,4,5-triol
> <PUBCHEM_IUPAC_CAS_NAME>
(2R,3S,4R,5S)-1-heptyl-2-(hydroxymethyl)piperidine-3,4,5-triol
> <PUBCHEM_IUPAC_NAME_MARKUP>
(2<I>R</I>,3<I>S</I>,4<I>R</I>,5<I>S</I>)-1-heptyl-2-(hydroxymethyl)piperidine-3,4,5-triol
> <PUBCHEM_IUPAC_NAME>
(2R,3S,4R,5S)-1-heptyl-2-(hydroxymethyl)piperidine-3,4,5-triol
> <PUBCHEM_IUPAC_SYSTEMATIC_NAME>
(2R,3S,4R,5S)-1-heptyl-2-(hydroxymethyl)piperidine-3,4,5-triol
> <PUBCHEM_IUPAC_TRADITIONAL_NAME>
(2R,3S,4R,5S)-1-heptyl-2-methylol-piperidine-3,4,5-triol
> <PUBCHEM_IUPAC_INCHI>
InChI=1S/C13H27NO4/c1-2-3-4-5-6-7-14-8-11(16)13(18)12(17)10(14)9-15/h10-13,15-18H,2-9H2,1H3/t10-,11+,12+,13-/m1/s1
> <PUBCHEM_IUPAC_INCHIKEY>
MBQCNYZEYQQTEE-MROQNXINSA-N
> <PUBCHEM_XLOGP3_AA>
1
> <PUBCHEM_EXACT_MASS>
261.19400834
> <PUBCHEM_MOLECULAR_FORMULA>
C13H27NO4
> <PUBCHEM_MOLECULAR_WEIGHT>
261.36
> <PUBCHEM_OPENEYE_CAN_SMILES>
CCCCCCCN1CC(C(C(C1CO)O)O)O
> <PUBCHEM_OPENEYE_ISO_SMILES>
CCCCCCCN1C[C@@H]([C@H]([C@H]([C@H]1CO)O)O)O
> <PUBCHEM_CACTVS_TPSA>
84.2
> <PUBCHEM_MONOISOTOPIC_WEIGHT>
261.19400834
> <PUBCHEM_TOTAL_CHARGE>
0
> <PUBCHEM_HEAVY_ATOM_COUNT>
18
> <PUBCHEM_ATOM_DEF_STEREO_COUNT>
4
> <PUBCHEM_ATOM_UDEF_STEREO_COUNT>
0
> <PUBCHEM_BOND_DEF_STEREO_COUNT>
0
> <PUBCHEM_BOND_UDEF_STEREO_COUNT>
0
> <PUBCHEM_ISOTOPIC_ATOM_COUNT>
0
> <PUBCHEM_COMPONENT_COUNT>
1
> <PUBCHEM_CACTVS_TAUTO_COUNT>
-1
> <PUBCHEM_COORDINATE_TYPE>
1
5
255
> <PUBCHEM_BONDANNOTATIONS>
7  1  5
8  2  5
9  3  6
6  12  5
$$$$
