501362
  -OEChem-10302200282D
 49 52  0     1  0  0  0  0  0999 V2000
    4.1472   -2.0203    0.0000 F   0  0  0  0  0  0  0  0  0  0  0  0
    7.6112   -2.0203    0.0000 F   0  0  0  0  0  0  0  0  0  0  0  0
    7.6112    0.9797    0.0000 O   0  0  0  0  0  0  0  0  0  0  0  0
    3.3209   -0.5836    0.0000 N   0  0  3  0  0  0  0  0  0  0  0  0
    2.5000    1.5080    0.0000 N   0  0  0  0  0  0  0  0  0  0  0  0
    8.4773   -0.5203    0.0000 N   0  0  0  0  0  0  0  0  0  0  0  0
   12.0216   -0.3250    0.0000 N   0  0  0  0  0  0  0  0  0  0  0  0
   12.6052    0.4797    0.0000 N   0  0  0  0  0  0  0  0  0  0  0  0
    4.1472   -0.0203    0.0000 C   0  0  3  0  0  0  0  0  0  0  0  0
    4.2219    0.9769    0.0000 C   0  0  0  0  0  0  0  0  0  0  0  0
    2.3653   -0.2889    0.0000 C   0  0  0  0  0  0  0  0  0  0  0  0
    3.4888    1.6571    0.0000 C   0  0  0  0  0  0  0  0  0  0  0  0
    2.0000    0.6420    0.0000 C   0  0  0  0  0  0  0  0  0  0  0  0
    5.0132   -0.5203    0.0000 C   0  0  0  0  0  0  0  0  0  0  0  0
    3.4700   -1.5724    0.0000 C   0  0  0  0  0  0  0  0  0  0  0  0
    5.8792   -0.0203    0.0000 C   0  0  0  0  0  0  0  0  0  0  0  0
    5.0132   -1.5203    0.0000 C   0  0  0  0  0  0  0  0  0  0  0  0
    6.7452   -0.5203    0.0000 C   0  0  0  0  0  0  0  0  0  0  0  0
    5.8792   -2.0203    0.0000 C   0  0  0  0  0  0  0  0  0  0  0  0
    6.7452   -1.5203    0.0000 C   0  0  0  0  0  0  0  0  0  0  0  0
    7.6112   -0.0203    0.0000 C   0  0  0  0  0  0  0  0  0  0  0  0
    9.3433   -0.0203    0.0000 C   0  0  0  0  0  0  0  0  0  0  0  0
   11.0754   -0.0203    0.0000 C   0  0  0  0  0  0  0  0  0  0  0  0
   10.2093   -0.5203    0.0000 C   0  0  0  0  0  0  0  0  0  0  0  0
   11.0754    0.9797    0.0000 C   0  0  0  0  0  0  0  0  0  0  0  0
    9.3433    0.9797    0.0000 C   0  0  0  0  0  0  0  0  0  0  0  0
   10.2093    1.4797    0.0000 C   0  0  0  0  0  0  0  0  0  0  0  0
   12.0216    1.2844    0.0000 C   0  0  0  0  0  0  0  0  0  0  0  0
    4.1703   -0.6399    0.0000 H   0  0  0  0  0  0  0  0  0  0  0  0
    4.8143    0.7942    0.0000 H   0  0  0  0  0  0  0  0  0  0  0  0
    4.5319    1.5138    0.0000 H   0  0  0  0  0  0  0  0  0  0  0  0
    1.7523   -0.3813    0.0000 H   0  0  0  0  0  0  0  0  0  0  0  0
    2.3190   -0.9071    0.0000 H   0  0  0  0  0  0  0  0  0  0  0  0
    4.0011    2.0063    0.0000 H   0  0  0  0  0  0  0  0  0  0  0  0
    3.2623    2.2342    0.0000 H   0  0  0  0  0  0  0  0  0  0  0  0
    1.5455    1.0637    0.0000 H   0  0  0  0  0  0  0  0  0  0  0  0
    1.4877    0.2927    0.0000 H   0  0  0  0  0  0  0  0  0  0  0  0
    2.1507    2.0203    0.0000 H   0  0  0  0  0  0  0  0  0  0  0  0
    2.8569   -1.6649    0.0000 H   0  0  0  0  0  0  0  0  0  0  0  0
    3.5624   -2.1855    0.0000 H   0  0  0  0  0  0  0  0  0  0  0  0
    4.0830   -1.4800    0.0000 H   0  0  0  0  0  0  0  0  0  0  0  0
    5.8792    0.5997    0.0000 H   0  0  0  0  0  0  0  0  0  0  0  0
    5.8792   -2.6403    0.0000 H   0  0  0  0  0  0  0  0  0  0  0  0
    8.4773   -1.1403    0.0000 H   0  0  0  0  0  0  0  0  0  0  0  0
   10.2093   -1.1403    0.0000 H   0  0  0  0  0  0  0  0  0  0  0  0
    8.8064    1.2897    0.0000 H   0  0  0  0  0  0  0  0  0  0  0  0
   10.2093    2.0997    0.0000 H   0  0  0  0  0  0  0  0  0  0  0  0
   12.2142   -0.9144    0.0000 H   0  0  0  0  0  0  0  0  0  0  0  0
   12.2142    1.8738    0.0000 H   0  0  0  0  0  0  0  0  0  0  0  0
  1 17  1  0  0  0  0
  2 20  1  0  0  0  0
  3 21  2  0  0  0  0
  4  9  1  0  0  0  0
  4 11  1  0  0  0  0
  4 15  1  0  0  0  0
  5 12  1  0  0  0  0
  5 13  1  0  0  0  0
  5 38  1  0  0  0  0
  6 21  1  0  0  0  0
  6 22  1  0  0  0  0
  6 44  1  0  0  0  0
  7  8  1  0  0  0  0
  7 23  1  0  0  0  0
  7 48  1  0  0  0  0
  8 28  2  0  0  0  0
  9 10  1  0  0  0  0
  9 14  1  0  0  0  0
  9 29  1  0  0  0  0
 10 12  1  0  0  0  0
 10 30  1  0  0  0  0
 10 31  1  0  0  0  0
 11 13  1  0  0  0  0
 11 32  1  0  0  0  0
 11 33  1  0  0  0  0
 12 34  1  0  0  0  0
 12 35  1  0  0  0  0
 13 36  1  0  0  0  0
 13 37  1  0  0  0  0
 14 16  2  0  0  0  0
 14 17  1  0  0  0  0
 15 39  1  0  0  0  0
 15 40  1  0  0  0  0
 15 41  1  0  0  0  0
 16 18  1  0  0  0  0
 16 42  1  0  0  0  0
 17 19  2  0  0  0  0
 18 20  2  0  0  0  0
 18 21  1  0  0  0  0
 19 20  1  0  0  0  0
 19 43  1  0  0  0  0
 22 24  2  0  0  0  0
 22 26  1  0  0  0  0
 23 24  1  0  0  0  0
 23 25  2  0  0  0  0
 24 45  1  0  0  0  0
 25 27  1  0  0  0  0
 25 28  1  0  0  0  0
 26 27  2  0  0  0  0
 26 46  1  0  0  0  0
 27 47  1  0  0  0  0
 28 49  1  0  0  0  0
M  END
> <PUBCHEM_COMPOUND_CID>
501362
> <PUBCHEM_COMPOUND_CANONICALIZED>
1
> <PUBCHEM_CACTVS_COMPLEXITY>
553
> <PUBCHEM_CACTVS_HBOND_ACCEPTOR>
6
> <PUBCHEM_CACTVS_HBOND_DONOR>
3
> <PUBCHEM_CACTVS_ROTATABLE_BOND>
3
> <PUBCHEM_CACTVS_SUBSKEYS>
AAADceB7oYAAAAAAAAAAAAAAAAAAAWAAAAAwYAAABYAAAFgB9AAAHwAYAAAADCjBngw+wPPjAACqAzV3UACSBAAlggAYuaE4ZNgIYLLA1dGUpQhgnADIyYcYicCeCAACAAQCAAAQAAQACAQAAAAAAAAAAA==
> <PUBCHEM_IUPAC_OPENEYE_NAME>
2,4-difluoro-N-(1H-indazol-6-yl)-5-(4-methyl-1,4-diazepan-5-yl)benzamide
> <PUBCHEM_IUPAC_CAS_NAME>
2,4-difluoro-N-(1H-indazol-6-yl)-5-(4-methyl-1,4-diazepan-5-yl)benzamide
> <PUBCHEM_IUPAC_NAME_MARKUP>
2,4-difluoro-<I>N</I>-(1<I>H</I>-indazol-6-yl)-5-(4-methyl-1,4-diazepan-5-yl)benzamide
> <PUBCHEM_IUPAC_NAME>
2,4-difluoro-N-(1H-indazol-6-yl)-5-(4-methyl-1,4-diazepan-5-yl)benzamide
> <PUBCHEM_IUPAC_SYSTEMATIC_NAME>
2,4-bis(fluoranyl)-N-(1H-indazol-6-yl)-5-(4-methyl-1,4-diazepan-5-yl)benzamide
> <PUBCHEM_IUPAC_TRADITIONAL_NAME>
2,4-difluoro-N-(1H-indazol-6-yl)-5-(4-methyl-1,4-diazepan-5-yl)benzamide
> <PUBCHEM_IUPAC_INCHI>
InChI=1S/C20H21F2N5O/c1-27-7-6-23-5-4-19(27)14-9-15(17(22)10-16(14)21)20(28)25-13-3-2-12-11-24-26-18(12)8-13/h2-3,8-11,19,23H,4-7H2,1H3,(H,24,26)(H,25,28)
> <PUBCHEM_IUPAC_INCHIKEY>
QEEULZKVDIBJSX-UHFFFAOYSA-N
> <PUBCHEM_XLOGP3_AA>
2.2
> <PUBCHEM_EXACT_MASS>
385.17141663
> <PUBCHEM_MOLECULAR_FORMULA>
C20H21F2N5O
> <PUBCHEM_MOLECULAR_WEIGHT>
385.4
> <PUBCHEM_OPENEYE_CAN_SMILES>
CN1CCNCCC1C2=CC(=C(C=C2F)F)C(=O)NC3=CC4=C(C=C3)C=NN4
> <PUBCHEM_OPENEYE_ISO_SMILES>
CN1CCNCCC1C2=CC(=C(C=C2F)F)C(=O)NC3=CC4=C(C=C3)C=NN4
> <PUBCHEM_CACTVS_TPSA>
73
> <PUBCHEM_MONOISOTOPIC_WEIGHT>
385.17141663
> <PUBCHEM_TOTAL_CHARGE>
0
> <PUBCHEM_HEAVY_ATOM_COUNT>
28
> <PUBCHEM_ATOM_DEF_STEREO_COUNT>
0
> <PUBCHEM_ATOM_UDEF_STEREO_COUNT>
1
> <PUBCHEM_BOND_DEF_STEREO_COUNT>
0
> <PUBCHEM_BOND_UDEF_STEREO_COUNT>
0
> <PUBCHEM_ISOTOPIC_ATOM_COUNT>
0
> <PUBCHEM_COMPONENT_COUNT>
1
> <PUBCHEM_CACTVS_TAUTO_COUNT>
-1
> <PUBCHEM_COORDINATE_TYPE>
1
5
255
> <PUBCHEM_BONDANNOTATIONS>
14  16  8
14  17  8
16  18  8
17  19  8
18  20  8
19  20  8
22  24  8
22  26  8
23  24  8
23  25  8
25  27  8
25  28  8
26  27  8
7  23  8
7  8  8
8  28  8
9  14  3
$$$$
