501411
  -OEChem-10302200282D
 30 31  0     1  0  0  0  0  0999 V2000
    2.8660   -3.0280    0.0000 P   0  0  0  0  0  0  0  0  0  0  0  0
    2.0000   -3.5280    0.0000 O   0  0  0  0  0  0  0  0  0  0  0  0
    3.3660   -3.8940    0.0000 O   0  0  0  0  0  0  0  0  0  0  0  0
    2.3660   -2.1620    0.0000 O   0  0  0  0  0  0  0  0  0  0  0  0
    6.8301    0.8380    0.0000 O   0  0  0  0  0  0  0  0  0  0  0  0
    3.7320   -1.5280    0.0000 N   0  0  3  0  0  0  0  0  0  0  0  0
    5.0981    0.8380    0.0000 N   0  0  0  0  0  0  0  0  0  0  0  0
    5.9641    2.3380    0.0000 N   0  0  0  0  0  0  0  0  0  0  0  0
    5.0981    3.8380    0.0000 N   0  0  0  0  0  0  0  0  0  0  0  0
    4.2320   -0.6620    0.0000 C   0  0  3  0  0  0  0  0  0  0  0  0
    3.2320   -0.6620    0.0000 C   0  0  0  0  0  0  0  0  0  0  0  0
    5.0981   -0.1620    0.0000 C   0  0  0  0  0  0  0  0  0  0  0  0
    3.7320   -2.5280    0.0000 C   0  0  0  0  0  0  0  0  0  0  0  0
    4.2320    1.3380    0.0000 C   0  0  0  0  0  0  0  0  0  0  0  0
    5.9641    1.3380    0.0000 C   0  0  0  0  0  0  0  0  0  0  0  0
    4.2320    2.3380    0.0000 C   0  0  0  0  0  0  0  0  0  0  0  0
    5.0981    2.8380    0.0000 C   0  0  0  0  0  0  0  0  0  0  0  0
    4.6705   -1.1004    0.0000 H   0  0  0  0  0  0  0  0  0  0  0  0
    3.1244   -0.0514    0.0000 H   0  0  0  0  0  0  0  0  0  0  0  0
    2.6494   -0.8740    0.0000 H   0  0  0  0  0  0  0  0  0  0  0  0
    5.3101   -0.7446    0.0000 H   0  0  0  0  0  0  0  0  0  0  0  0
    5.7087   -0.0543    0.0000 H   0  0  0  0  0  0  0  0  0  0  0  0
    3.9441   -3.1106    0.0000 H   0  0  0  0  0  0  0  0  0  0  0  0
    4.3426   -2.4204    0.0000 H   0  0  0  0  0  0  0  0  0  0  0  0
    3.6951    1.0280    0.0000 H   0  0  0  0  0  0  0  0  0  0  0  0
    2.0000   -4.1480    0.0000 H   0  0  0  0  0  0  0  0  0  0  0  0
    3.9860   -3.8940    0.0000 H   0  0  0  0  0  0  0  0  0  0  0  0
    3.6951    2.6480    0.0000 H   0  0  0  0  0  0  0  0  0  0  0  0
    4.5611    4.1480    0.0000 H   0  0  0  0  0  0  0  0  0  0  0  0
    5.6350    4.1480    0.0000 H   0  0  0  0  0  0  0  0  0  0  0  0
  1  2  1  0  0  0  0
  1  3  1  0  0  0  0
  1  4  2  0  0  0  0
  1 13  1  0  0  0  0
  2 26  1  0  0  0  0
  3 27  1  0  0  0  0
  5 15  2  0  0  0  0
  6 10  1  0  0  0  0
  6 11  1  0  0  0  0
  6 13  1  0  0  0  0
  7 12  1  0  0  0  0
  7 14  1  0  0  0  0
  7 15  1  0  0  0  0
  8 15  1  0  0  0  0
  8 17  2  0  0  0  0
  9 17  1  0  0  0  0
  9 29  1  0  0  0  0
  9 30  1  0  0  0  0
 10 11  1  0  0  0  0
 10 12  1  0  0  0  0
 10 18  1  0  0  0  0
 11 19  1  0  0  0  0
 11 20  1  0  0  0  0
 12 21  1  0  0  0  0
 12 22  1  0  0  0  0
 13 23  1  0  0  0  0
 13 24  1  0  0  0  0
 14 16  2  0  0  0  0
 14 25  1  0  0  0  0
 16 17  1  0  0  0  0
 16 28  1  0  0  0  0
M  END
> <PUBCHEM_COMPOUND_CID>
501411
> <PUBCHEM_COMPOUND_CANONICALIZED>
1
> <PUBCHEM_CACTVS_COMPLEXITY>
443
> <PUBCHEM_CACTVS_HBOND_ACCEPTOR>
5
> <PUBCHEM_CACTVS_HBOND_DONOR>
3
> <PUBCHEM_CACTVS_ROTATABLE_BOND>
4
> <PUBCHEM_CACTVS_SUBSKEYS>
AAADccBzuAIAAAAAAAAAAAAAFgAAAAAAAAAgAAAAAAAAAAAAAAAAHggQCCAACCjBAAQBAANAABCoQCJmdICAAAEAAgAIAAAYABCAQAAAQAAUAAAAFgIAAAAAAAAAAAAAAAAAAAAAAAAAAAAAAAAAAAAAAA==
> <PUBCHEM_IUPAC_OPENEYE_NAME>
[2-[(4-amino-2-oxo-pyrimidin-1-yl)methyl]aziridin-1-yl]methylphosphonic acid
> <PUBCHEM_IUPAC_CAS_NAME>
[2-[(4-amino-2-oxo-1-pyrimidinyl)methyl]-1-aziridinyl]methylphosphonic acid
> <PUBCHEM_IUPAC_NAME_MARKUP>
[2-[(4-amino-2-oxopyrimidin-1-yl)methyl]aziridin-1-yl]methylphosphonic acid
> <PUBCHEM_IUPAC_NAME>
[2-[(4-amino-2-oxopyrimidin-1-yl)methyl]aziridin-1-yl]methylphosphonic acid
> <PUBCHEM_IUPAC_SYSTEMATIC_NAME>
[2-[(4-azanyl-2-oxidanylidene-pyrimidin-1-yl)methyl]aziridin-1-yl]methylphosphonic acid
> <PUBCHEM_IUPAC_TRADITIONAL_NAME>
[2-[(4-amino-2-keto-pyrimidin-1-yl)methyl]ethylenimin-1-yl]methylphosphonic acid
> <PUBCHEM_IUPAC_INCHI>
InChI=1S/C8H13N4O4P/c9-7-1-2-11(8(13)10-7)3-6-4-12(6)5-17(14,15)16/h1-2,6H,3-5H2,(H2,9,10,13)(H2,14,15,16)
> <PUBCHEM_IUPAC_INCHIKEY>
QJWWMEARYNUOMI-UHFFFAOYSA-N
> <PUBCHEM_XLOGP3_AA>
-5.2
> <PUBCHEM_EXACT_MASS>
260.06744191
> <PUBCHEM_MOLECULAR_FORMULA>
C8H13N4O4P
> <PUBCHEM_MOLECULAR_WEIGHT>
260.19
> <PUBCHEM_OPENEYE_CAN_SMILES>
C1C(N1CP(=O)(O)O)CN2C=CC(=NC2=O)N
> <PUBCHEM_OPENEYE_ISO_SMILES>
C1C(N1CP(=O)(O)O)CN2C=CC(=NC2=O)N
> <PUBCHEM_CACTVS_TPSA>
119
> <PUBCHEM_MONOISOTOPIC_WEIGHT>
260.06744191
> <PUBCHEM_TOTAL_CHARGE>
0
> <PUBCHEM_HEAVY_ATOM_COUNT>
17
> <PUBCHEM_ATOM_DEF_STEREO_COUNT>
0
> <PUBCHEM_ATOM_UDEF_STEREO_COUNT>
1
> <PUBCHEM_BOND_DEF_STEREO_COUNT>
0
> <PUBCHEM_BOND_UDEF_STEREO_COUNT>
0
> <PUBCHEM_ISOTOPIC_ATOM_COUNT>
0
> <PUBCHEM_COMPONENT_COUNT>
1
> <PUBCHEM_CACTVS_TAUTO_COUNT>
-1
> <PUBCHEM_COORDINATE_TYPE>
1
5
255
> <PUBCHEM_BONDANNOTATIONS>
10  12  3
14  16  8
16  17  8
7  14  8
7  15  8
8  15  8
8  17  8
$$$$
