501461
  -OEChem-10302200282D
 76 81  0     1  0  0  0  0  0999 V2000
    8.6231   -1.2209    0.0000 S   0  0  0  0  0  0  0  0  0  0  0  0
    3.5597   -2.9258    0.0000 S   0  0  0  0  0  0  0  0  0  0  0  0
   13.2010   -0.3355    0.0000 S   0  0  0  0  0  0  0  0  0  0  0  0
    6.5246    0.4104    0.0000 O   0  0  0  0  0  0  0  0  0  0  0  0
   10.7215    0.4104    0.0000 O   0  0  0  0  0  0  0  0  0  0  0  0
    7.6892    1.8707    0.0000 O   0  0  0  0  0  0  0  0  0  0  0  0
    9.5570    1.8707    0.0000 O   0  0  0  0  0  0  0  0  0  0  0  0
    8.1892   -2.1219    0.0000 O   0  0  0  0  0  0  0  0  0  0  0  0
    9.0570   -2.1219    0.0000 O   0  0  0  0  0  0  0  0  0  0  0  0
   11.3858   -0.0563    0.0000 O   0  0  0  0  0  0  0  0  0  0  0  0
    7.7221   -0.7870    0.0000 N   0  0  3  0  0  0  0  0  0  0  0  0
    9.5240   -0.7870    0.0000 N   0  0  3  0  0  0  0  0  0  0  0  0
   12.0186   -1.6686    0.0000 N   0  0  0  0  0  0  0  0  0  0  0  0
   13.7922   -1.8416    0.0000 N   0  0  0  0  0  0  0  0  0  0  0  0
    8.1231    0.9698    0.0000 C   0  0  2  0  0  0  0  0  0  0  0  0
    9.1231    0.9698    0.0000 C   0  0  2  0  0  0  0  0  0  0  0  0
    7.4996    0.1879    0.0000 C   0  0  1  0  0  0  0  0  0  0  0  0
    9.7466    0.1879    0.0000 C   0  0  1  0  0  0  0  0  0  0  0  0
    6.9403   -1.4105    0.0000 C   0  0  0  0  0  0  0  0  0  0  0  0
   10.3059   -1.4105    0.0000 C   0  0  0  0  0  0  0  0  0  0  0  0
    6.0094   -1.0452    0.0000 C   0  0  0  0  0  0  0  0  0  0  0  0
   11.2367   -1.0452    0.0000 C   0  0  0  0  0  0  0  0  0  0  0  0
    6.2299    1.3660    0.0000 C   0  0  0  0  0  0  0  0  0  0  0  0
   11.0162    1.3660    0.0000 C   0  0  0  0  0  0  0  0  0  0  0  0
    5.2276   -1.6686    0.0000 C   0  0  0  0  0  0  0  0  0  0  0  0
    5.8604   -0.0563    0.0000 C   0  0  0  0  0  0  0  0  0  0  0  0
    4.2967   -1.3033    0.0000 C   0  0  0  0  0  0  0  0  0  0  0  0
    6.9101    2.0991    0.0000 C   0  0  0  0  0  0  0  0  0  0  0  0
    5.2550    1.5885    0.0000 C   0  0  0  0  0  0  0  0  0  0  0  0
   11.9912    1.5885    0.0000 C   0  0  0  0  0  0  0  0  0  0  0  0
   10.3361    2.0991    0.0000 C   0  0  0  0  0  0  0  0  0  0  0  0
    4.9295    0.3090    0.0000 C   0  0  0  0  0  0  0  0  0  0  0  0
    4.1476   -0.3145    0.0000 C   0  0  0  0  0  0  0  0  0  0  0  0
    3.5149   -1.9268    0.0000 C   0  0  0  0  0  0  0  0  0  0  0  0
    6.6153    3.0546    0.0000 C   0  0  0  0  0  0  0  0  0  0  0  0
    4.9602    2.5441    0.0000 C   0  0  0  0  0  0  0  0  0  0  0  0
   12.2859    2.5441    0.0000 C   0  0  0  0  0  0  0  0  0  0  0  0
   10.6308    3.0546    0.0000 C   0  0  0  0  0  0  0  0  0  0  0  0
   12.9494   -1.3033    0.0000 C   0  0  0  0  0  0  0  0  0  0  0  0
    5.6404    3.2772    0.0000 C   0  0  0  0  0  0  0  0  0  0  0  0
   11.6058    3.2772    0.0000 C   0  0  0  0  0  0  0  0  0  0  0  0
    2.5509   -1.6608    0.0000 C   0  0  0  0  0  0  0  0  0  0  0  0
    2.0000   -2.4953    0.0000 C   0  0  0  0  0  0  0  0  0  0  0  0
    2.6235   -3.2772    0.0000 C   0  0  0  0  0  0  0  0  0  0  0  0
   14.1992   -0.2757    0.0000 C   0  0  0  0  0  0  0  0  0  0  0  0
   14.5646   -1.2065    0.0000 C   0  0  0  0  0  0  0  0  0  0  0  0
    8.4529    1.4947    0.0000 H   0  0  0  0  0  0  0  0  0  0  0  0
    8.7932    1.4947    0.0000 H   0  0  0  0  0  0  0  0  0  0  0  0
    7.2948    0.7731    0.0000 H   0  0  0  0  0  0  0  0  0  0  0  0
    9.9513    0.7731    0.0000 H   0  0  0  0  0  0  0  0  0  0  0  0
    6.6170   -1.9395    0.0000 H   0  0  0  0  0  0  0  0  0  0  0  0
    7.4051   -1.8207    0.0000 H   0  0  0  0  0  0  0  0  0  0  0  0
    9.8410   -1.8207    0.0000 H   0  0  0  0  0  0  0  0  0  0  0  0
   10.6292   -1.9395    0.0000 H   0  0  0  0  0  0  0  0  0  0  0  0
    8.0384    2.3830    0.0000 H   0  0  0  0  0  0  0  0  0  0  0  0
    9.2077    2.3830    0.0000 H   0  0  0  0  0  0  0  0  0  0  0  0
    5.3200   -2.2817    0.0000 H   0  0  0  0  0  0  0  0  0  0  0  0
    6.3451    0.3302    0.0000 H   0  0  0  0  0  0  0  0  0  0  0  0
   11.9262   -2.2817    0.0000 H   0  0  0  0  0  0  0  0  0  0  0  0
    7.5145    1.9611    0.0000 H   0  0  0  0  0  0  0  0  0  0  0  0
    4.8333    1.1340    0.0000 H   0  0  0  0  0  0  0  0  0  0  0  0
   12.4129    1.1340    0.0000 H   0  0  0  0  0  0  0  0  0  0  0  0
    9.7316    1.9611    0.0000 H   0  0  0  0  0  0  0  0  0  0  0  0
    4.8371    0.9221    0.0000 H   0  0  0  0  0  0  0  0  0  0  0  0
    3.5705   -0.0880    0.0000 H   0  0  0  0  0  0  0  0  0  0  0  0
    7.0370    3.5091    0.0000 H   0  0  0  0  0  0  0  0  0  0  0  0
    4.3558    2.6821    0.0000 H   0  0  0  0  0  0  0  0  0  0  0  0
   12.8904    2.6821    0.0000 H   0  0  0  0  0  0  0  0  0  0  0  0
   10.2091    3.5091    0.0000 H   0  0  0  0  0  0  0  0  0  0  0  0
    5.4576    3.8696    0.0000 H   0  0  0  0  0  0  0  0  0  0  0  0
   11.7885    3.8696    0.0000 H   0  0  0  0  0  0  0  0  0  0  0  0
    2.3330   -1.0803    0.0000 H   0  0  0  0  0  0  0  0  0  0  0  0
    1.3806   -2.5231    0.0000 H   0  0  0  0  0  0  0  0  0  0  0  0
    2.4585   -3.8748    0.0000 H   0  0  0  0  0  0  0  0  0  0  0  0
   14.5330    0.2468    0.0000 H   0  0  0  0  0  0  0  0  0  0  0  0
   15.1646   -1.3625    0.0000 H   0  0  0  0  0  0  0  0  0  0  0  0
  1  8  2  0  0  0  0
  1  9  2  0  0  0  0
  1 11  1  0  0  0  0
  1 12  1  0  0  0  0
  2 34  1  0  0  0  0
  2 44  1  0  0  0  0
  3 39  1  0  0  0  0
  3 45  1  0  0  0  0
 17  4  1  6  0  0  0
  4 23  1  0  0  0  0
 18  5  1  1  0  0  0
  5 24  1  0  0  0  0
 15  6  1  6  0  0  0
  6 55  1  0  0  0  0
 16  7  1  1  0  0  0
  7 56  1  0  0  0  0
 10 22  2  0  0  0  0
 11 17  1  0  0  0  0
 11 19  1  0  0  0  0
 12 18  1  0  0  0  0
 12 20  1  0  0  0  0
 13 22  1  0  0  0  0
 13 39  1  0  0  0  0
 13 59  1  0  0  0  0
 14 39  2  0  0  0  0
 14 46  1  0  0  0  0
 15 16  1  0  0  0  0
 15 17  1  0  0  0  0
 15 47  1  0  0  0  0
 16 18  1  0  0  0  0
 16 48  1  0  0  0  0
 17 49  1  0  0  0  0
 18 50  1  0  0  0  0
 19 21  1  0  0  0  0
 19 51  1  0  0  0  0
 19 52  1  0  0  0  0
 20 22  1  0  0  0  0
 20 53  1  0  0  0  0
 20 54  1  0  0  0  0
 21 25  2  0  0  0  0
 21 26  1  0  0  0  0
 23 28  2  0  0  0  0
 23 29  1  0  0  0  0
 24 30  2  0  0  0  0
 24 31  1  0  0  0  0
 25 27  1  0  0  0  0
 25 57  1  0  0  0  0
 26 32  2  0  0  0  0
 26 58  1  0  0  0  0
 27 33  2  0  0  0  0
 27 34  1  0  0  0  0
 28 35  1  0  0  0  0
 28 60  1  0  0  0  0
 29 36  2  0  0  0  0
 29 61  1  0  0  0  0
 30 37  1  0  0  0  0
 30 62  1  0  0  0  0
 31 38  2  0  0  0  0
 31 63  1  0  0  0  0
 32 33  1  0  0  0  0
 32 64  1  0  0  0  0
 33 65  1  0  0  0  0
 34 42  2  0  0  0  0
 35 40  2  0  0  0  0
 35 66  1  0  0  0  0
 36 40  1  0  0  0  0
 36 67  1  0  0  0  0
 37 41  2  0  0  0  0
 37 68  1  0  0  0  0
 38 41  1  0  0  0  0
 38 69  1  0  0  0  0
 40 70  1  0  0  0  0
 41 71  1  0  0  0  0
 42 43  1  0  0  0  0
 42 72  1  0  0  0  0
 43 44  2  0  0  0  0
 43 73  1  0  0  0  0
 44 74  1  0  0  0  0
 45 46  2  0  0  0  0
 45 75  1  0  0  0  0
 46 76  1  0  0  0  0
M  END
> <PUBCHEM_COMPOUND_CID>
501461
> <PUBCHEM_COMPOUND_CANONICALIZED>
1
> <PUBCHEM_CACTVS_COMPLEXITY>
1090
> <PUBCHEM_CACTVS_HBOND_ACCEPTOR>
12
> <PUBCHEM_CACTVS_HBOND_DONOR>
3
> <PUBCHEM_CACTVS_ROTATABLE_BOND>
10
> <PUBCHEM_CACTVS_SUBSKEYS>
AAADceB/uABgAAAAAAAAAAAAAAAAAWJAAAAwYMAABYAAAAAB9AAAHgQQSAAADBTl2ga9l5LIFgisAjF3dDCD+KlxKjlJyByeLIiPdiKkuTueeCjv0RO7qCfwwMAOAAACAAAAAAAAAAQAAAAAAAAAAAAAAA==
> <PUBCHEM_IUPAC_OPENEYE_NAME>
2-[(3R,4R,5R,6R)-4,5-dihydroxy-1,1-dioxo-3,6-diphenoxy-7-[[3-(2-thienyl)phenyl]methyl]-1,2,7-thiadiazepan-2-yl]-N-thiazol-2-yl-acetamide
> <PUBCHEM_IUPAC_CAS_NAME>
2-[(3R,4R,5R,6R)-4,5-dihydroxy-1,1-dioxo-3,6-diphenoxy-7-[(3-thiophen-2-ylphenyl)methyl]-1,2,7-thiadiazepan-2-yl]-N-(2-thiazolyl)acetamide
> <PUBCHEM_IUPAC_NAME_MARKUP>
2-[(3<I>R</I>,4<I>R</I>,5<I>R</I>,6<I>R</I>)-4,5-dihydroxy-1,1-dioxo-3,6-diphenoxy-7-[(3-thiophen-2-ylphenyl)methyl]-1,2,7-thiadiazepan-2-yl]-<I>N</I>-(1,3-thiazol-2-yl)acetamide
> <PUBCHEM_IUPAC_NAME>
2-[(3R,4R,5R,6R)-4,5-dihydroxy-1,1-dioxo-3,6-diphenoxy-7-[(3-thiophen-2-ylphenyl)methyl]-1,2,7-thiadiazepan-2-yl]-N-(1,3-thiazol-2-yl)acetamide
> <PUBCHEM_IUPAC_SYSTEMATIC_NAME>
2-[(3R,4R,5R,6R)-4,5-bis(oxidanyl)-1,1-bis(oxidanylidene)-3,6-diphenoxy-7-[(3-thiophen-2-ylphenyl)methyl]-1,2,7-thiadiazepan-2-yl]-N-(1,3-thiazol-2-yl)ethanamide
> <PUBCHEM_IUPAC_TRADITIONAL_NAME>
2-[(3R,4R,5R,6R)-4,5-dihydroxy-1,1-diketo-3,6-diphenoxy-7-[3-(2-thienyl)benzyl]-1,2,7-thiadiazepan-2-yl]-N-thiazol-2-yl-acetamide
> <PUBCHEM_IUPAC_INCHI>
InChI=1S/C32H30N4O7S3/c37-27(34-32-33-16-18-45-32)21-36-31(43-25-13-5-2-6-14-25)29(39)28(38)30(42-24-11-3-1-4-12-24)35(46(36,40)41)20-22-9-7-10-23(19-22)26-15-8-17-44-26/h1-19,28-31,38-39H,20-21H2,(H,33,34,37)/t28-,29-,30-,31-/m1/s1
> <PUBCHEM_IUPAC_INCHIKEY>
BXFRSWSUOPCKHT-OMRVPHBLSA-N
> <PUBCHEM_XLOGP3_AA>
4.7
> <PUBCHEM_EXACT_MASS>
678.12766283
> <PUBCHEM_MOLECULAR_FORMULA>
C32H30N4O7S3
> <PUBCHEM_MOLECULAR_WEIGHT>
678.8
> <PUBCHEM_OPENEYE_CAN_SMILES>
C1=CC=C(C=C1)OC2C(C(C(N(S(=O)(=O)N2CC3=CC(=CC=C3)C4=CC=CS4)CC(=O)NC5=NC=CS5)OC6=CC=CC=C6)O)O
> <PUBCHEM_OPENEYE_ISO_SMILES>
C1=CC=C(C=C1)O[C@@H]2[C@@H]([C@H]([C@H](N(S(=O)(=O)N2CC3=CC(=CC=C3)C4=CC=CS4)CC(=O)NC5=NC=CS5)OC6=CC=CC=C6)O)O
> <PUBCHEM_CACTVS_TPSA>
206
> <PUBCHEM_MONOISOTOPIC_WEIGHT>
678.12766283
> <PUBCHEM_TOTAL_CHARGE>
0
> <PUBCHEM_HEAVY_ATOM_COUNT>
46
> <PUBCHEM_ATOM_DEF_STEREO_COUNT>
4
> <PUBCHEM_ATOM_UDEF_STEREO_COUNT>
0
> <PUBCHEM_BOND_DEF_STEREO_COUNT>
0
> <PUBCHEM_BOND_UDEF_STEREO_COUNT>
0
> <PUBCHEM_ISOTOPIC_ATOM_COUNT>
0
> <PUBCHEM_COMPONENT_COUNT>
1
> <PUBCHEM_CACTVS_TAUTO_COUNT>
-1
> <PUBCHEM_COORDINATE_TYPE>
1
5
255
> <PUBCHEM_BONDANNOTATIONS>
14  39  8
14  46  8
2  34  8
2  44  8
21  25  8
21  26  8
23  28  8
23  29  8
24  30  8
24  31  8
25  27  8
26  32  8
27  33  8
28  35  8
29  36  8
3  39  8
3  45  8
30  37  8
31  38  8
32  33  8
34  42  8
35  40  8
36  40  8
37  41  8
38  41  8
17  4  6
42  43  8
43  44  8
45  46  8
18  5  5
15  6  6
16  7  5
$$$$
