501410
  -OEChem-10302200282D
 32 34  0     1  0  0  0  0  0999 V2000
    8.5643   -0.9531    0.0000 P   0  0  0  0  0  0  0  0  0  0  0  0
    9.5428   -1.1593    0.0000 O   0  0  0  0  0  0  0  0  0  0  0  0
    8.7705    0.0254    0.0000 O   0  0  0  0  0  0  0  0  0  0  0  0
    8.3581   -1.9316    0.0000 O   0  0  0  0  0  0  0  0  0  0  0  0
    6.9180   -1.4912    0.0000 N   0  0  3  0  0  0  0  0  0  0  0  0
    4.6783   -0.6451    0.0000 N   0  0  0  0  0  0  0  0  0  0  0  0
    4.6783    0.9644    0.0000 N   0  0  0  0  0  0  0  0  0  0  0  0
    2.8660   -0.8403    0.0000 N   0  0  0  0  0  0  0  0  0  0  0  0
    2.0000    0.6597    0.0000 N   0  0  0  0  0  0  0  0  0  0  0  0
    2.8660    2.1597    0.0000 N   0  0  0  0  0  0  0  0  0  0  0  0
    5.9674   -1.8018    0.0000 C   0  0  3  0  0  0  0  0  0  0  0  0
    6.7117   -2.4697    0.0000 C   0  0  0  0  0  0  0  0  0  0  0  0
    4.9889   -1.5956    0.0000 C   0  0  0  0  0  0  0  0  0  0  0  0
    7.5858   -0.7468    0.0000 C   0  0  0  0  0  0  0  0  0  0  0  0
    3.7320   -0.3403    0.0000 C   0  0  0  0  0  0  0  0  0  0  0  0
    5.2619    0.1597    0.0000 C   0  0  0  0  0  0  0  0  0  0  0  0
    3.7320    0.6597    0.0000 C   0  0  0  0  0  0  0  0  0  0  0  0
    2.8660    1.1597    0.0000 C   0  0  0  0  0  0  0  0  0  0  0  0
    2.0000   -0.3403    0.0000 C   0  0  0  0  0  0  0  0  0  0  0  0
    5.9339   -1.1827    0.0000 H   0  0  0  0  0  0  0  0  0  0  0  0
    6.3841   -2.9960    0.0000 H   0  0  0  0  0  0  0  0  0  0  0  0
    7.2870   -2.7009    0.0000 H   0  0  0  0  0  0  0  0  0  0  0  0
    4.3751   -1.6829    0.0000 H   0  0  0  0  0  0  0  0  0  0  0  0
    4.9684   -2.2152    0.0000 H   0  0  0  0  0  0  0  0  0  0  0  0
    7.8171   -0.1716    0.0000 H   0  0  0  0  0  0  0  0  0  0  0  0
    7.0594   -0.4192    0.0000 H   0  0  0  0  0  0  0  0  0  0  0  0
    5.8819    0.1597    0.0000 H   0  0  0  0  0  0  0  0  0  0  0  0
    9.9569   -0.6978    0.0000 H   0  0  0  0  0  0  0  0  0  0  0  0
    8.3091    0.4395    0.0000 H   0  0  0  0  0  0  0  0  0  0  0  0
    1.4631   -0.6503    0.0000 H   0  0  0  0  0  0  0  0  0  0  0  0
    2.3291    2.4697    0.0000 H   0  0  0  0  0  0  0  0  0  0  0  0
    3.4030    2.4697    0.0000 H   0  0  0  0  0  0  0  0  0  0  0  0
  1  2  1  0  0  0  0
  1  3  1  0  0  0  0
  1  4  2  0  0  0  0
  1 14  1  0  0  0  0
  2 28  1  0  0  0  0
  3 29  1  0  0  0  0
  5 11  1  0  0  0  0
  5 12  1  0  0  0  0
  5 14  1  0  0  0  0
  6 13  1  0  0  0  0
  6 15  1  0  0  0  0
  6 16  1  0  0  0  0
  7 16  2  0  0  0  0
  7 17  1  0  0  0  0
  8 15  2  0  0  0  0
  8 19  1  0  0  0  0
  9 18  1  0  0  0  0
  9 19  2  0  0  0  0
 10 18  1  0  0  0  0
 10 31  1  0  0  0  0
 10 32  1  0  0  0  0
 11 12  1  0  0  0  0
 11 13  1  0  0  0  0
 11 20  1  0  0  0  0
 12 21  1  0  0  0  0
 12 22  1  0  0  0  0
 13 23  1  0  0  0  0
 13 24  1  0  0  0  0
 14 25  1  0  0  0  0
 14 26  1  0  0  0  0
 15 17  1  0  0  0  0
 16 27  1  0  0  0  0
 17 18  2  0  0  0  0
 19 30  1  0  0  0  0
M  END
> <PUBCHEM_COMPOUND_CID>
501410
> <PUBCHEM_COMPOUND_CANONICALIZED>
1
> <PUBCHEM_CACTVS_COMPLEXITY>
392
> <PUBCHEM_CACTVS_HBOND_ACCEPTOR>
8
> <PUBCHEM_CACTVS_HBOND_DONOR>
3
> <PUBCHEM_CACTVS_ROTATABLE_BOND>
4
> <PUBCHEM_CACTVS_SUBSKEYS>
AAADccBzsAIAAAAAAAAAAAAAFgAAAWAAAAAsAAAAAAAAAFgB+AAAHAgQCCAACCjBFwQF8L9MEBCgQQZhZICAgC0REKABUCAoVBCASABASEAUBAgIAALAACAAAAAAAAAAAAAAAAAAAAAAAAAAAAAAAAAAAA==
> <PUBCHEM_IUPAC_OPENEYE_NAME>
[2-[(6-aminopurin-9-yl)methyl]aziridin-1-yl]methylphosphonic acid
> <PUBCHEM_IUPAC_CAS_NAME>
[2-[(6-aminopurin-9-yl)methyl]-1-aziridinyl]methylphosphonic acid
> <PUBCHEM_IUPAC_NAME_MARKUP>
[2-[(6-aminopurin-9-yl)methyl]aziridin-1-yl]methylphosphonic acid
> <PUBCHEM_IUPAC_NAME>
[2-[(6-aminopurin-9-yl)methyl]aziridin-1-yl]methylphosphonic acid
> <PUBCHEM_IUPAC_SYSTEMATIC_NAME>
[2-[(6-aminopurin-9-yl)methyl]aziridin-1-yl]methylphosphonic acid
> <PUBCHEM_IUPAC_TRADITIONAL_NAME>
[2-(adenin-9-ylmethyl)ethylenimin-1-yl]methylphosphonic acid
> <PUBCHEM_IUPAC_INCHI>
InChI=1S/C9H13N6O3P/c10-8-7-9(12-3-11-8)14(4-13-7)1-6-2-15(6)5-19(16,17)18/h3-4,6H,1-2,5H2,(H2,10,11,12)(H2,16,17,18)
> <PUBCHEM_IUPAC_INCHIKEY>
MIUWLXQQSLYKSV-UHFFFAOYSA-N
> <PUBCHEM_XLOGP3>
-4.3
> <PUBCHEM_EXACT_MASS>
284.07867530
> <PUBCHEM_MOLECULAR_FORMULA>
C9H13N6O3P
> <PUBCHEM_MOLECULAR_WEIGHT>
284.21
> <PUBCHEM_OPENEYE_CAN_SMILES>
C1C(N1CP(=O)(O)O)CN2C=NC3=C(N=CN=C32)N
> <PUBCHEM_OPENEYE_ISO_SMILES>
C1C(N1CP(=O)(O)O)CN2C=NC3=C(N=CN=C32)N
> <PUBCHEM_CACTVS_TPSA>
130
> <PUBCHEM_MONOISOTOPIC_WEIGHT>
284.07867530
> <PUBCHEM_TOTAL_CHARGE>
0
> <PUBCHEM_HEAVY_ATOM_COUNT>
19
> <PUBCHEM_ATOM_DEF_STEREO_COUNT>
0
> <PUBCHEM_ATOM_UDEF_STEREO_COUNT>
1
> <PUBCHEM_BOND_DEF_STEREO_COUNT>
0
> <PUBCHEM_BOND_UDEF_STEREO_COUNT>
0
> <PUBCHEM_ISOTOPIC_ATOM_COUNT>
0
> <PUBCHEM_COMPONENT_COUNT>
1
> <PUBCHEM_CACTVS_TAUTO_COUNT>
-1
> <PUBCHEM_COORDINATE_TYPE>
1
5
255
> <PUBCHEM_BONDANNOTATIONS>
11  13  3
15  17  8
17  18  8
6  15  8
6  16  8
7  16  8
7  17  8
8  15  8
8  19  8
9  18  8
9  19  8
$$$$
