501457
  -OEChem-10302200282D
 69 73  0     1  0  0  0  0  0999 V2000
    7.9415   -1.7186    0.0000 S   0  0  0  0  0  0  0  0  0  0  0  0
    2.7724   -2.3394    0.0000 S   0  0  0  0  0  0  0  0  0  0  0  0
   10.0399   -0.0873    0.0000 O   0  0  0  0  0  0  0  0  0  0  0  0
    5.8431   -0.0873    0.0000 O   0  0  0  0  0  0  0  0  0  0  0  0
    8.8754    1.3730    0.0000 O   0  0  0  0  0  0  0  0  0  0  0  0
    7.0076    1.3730    0.0000 O   0  0  0  0  0  0  0  0  0  0  0  0
    7.5076   -2.6196    0.0000 O   0  0  0  0  0  0  0  0  0  0  0  0
    8.3754   -2.6196    0.0000 O   0  0  0  0  0  0  0  0  0  0  0  0
    5.1788   -0.5540    0.0000 O   0  0  0  0  0  0  0  0  0  0  0  0
    8.8425   -1.2847    0.0000 N   0  0  3  0  0  0  0  0  0  0  0  0
    7.0406   -1.2847    0.0000 N   0  0  3  0  0  0  0  0  0  0  0  0
    4.5460   -2.1664    0.0000 N   0  0  0  0  0  0  0  0  0  0  0  0
    3.3636   -0.8332    0.0000 N   0  0  0  0  0  0  0  0  0  0  0  0
    8.4415    0.4720    0.0000 C   0  0  2  0  0  0  0  0  0  0  0  0
    7.4415    0.4720    0.0000 C   0  0  2  0  0  0  0  0  0  0  0  0
    9.0650   -0.3098    0.0000 C   0  0  1  0  0  0  0  0  0  0  0  0
    6.8180   -0.3098    0.0000 C   0  0  1  0  0  0  0  0  0  0  0  0
    9.6243   -1.9082    0.0000 C   0  0  0  0  0  0  0  0  0  0  0  0
    6.2587   -1.9082    0.0000 C   0  0  0  0  0  0  0  0  0  0  0  0
   10.5552   -1.5429    0.0000 C   0  0  0  0  0  0  0  0  0  0  0  0
    5.3278   -1.5429    0.0000 C   0  0  0  0  0  0  0  0  0  0  0  0
   10.3347    0.8683    0.0000 C   0  0  0  0  0  0  0  0  0  0  0  0
    5.5483    0.8683    0.0000 C   0  0  0  0  0  0  0  0  0  0  0  0
   11.3370   -2.1664    0.0000 C   0  0  0  0  0  0  0  0  0  0  0  0
   10.7042   -0.5540    0.0000 C   0  0  0  0  0  0  0  0  0  0  0  0
    9.6545    1.6014    0.0000 C   0  0  0  0  0  0  0  0  0  0  0  0
   11.3096    1.0908    0.0000 C   0  0  0  0  0  0  0  0  0  0  0  0
    6.2285    1.6014    0.0000 C   0  0  0  0  0  0  0  0  0  0  0  0
    4.5734    1.0908    0.0000 C   0  0  0  0  0  0  0  0  0  0  0  0
   12.2679   -1.8010    0.0000 C   0  0  0  0  0  0  0  0  0  0  0  0
   11.6351   -0.1887    0.0000 C   0  0  0  0  0  0  0  0  0  0  0  0
   12.4169   -0.8122    0.0000 C   0  0  0  0  0  0  0  0  0  0  0  0
    9.9493    2.5569    0.0000 C   0  0  0  0  0  0  0  0  0  0  0  0
   11.6044    2.0464    0.0000 C   0  0  0  0  0  0  0  0  0  0  0  0
    5.9338    2.5569    0.0000 C   0  0  0  0  0  0  0  0  0  0  0  0
    4.2787    2.0464    0.0000 C   0  0  0  0  0  0  0  0  0  0  0  0
    3.6151   -1.8010    0.0000 C   0  0  0  0  0  0  0  0  0  0  0  0
   10.9242    2.7794    0.0000 C   0  0  0  0  0  0  0  0  0  0  0  0
    4.9588    2.7794    0.0000 C   0  0  0  0  0  0  0  0  0  0  0  0
    2.0000   -1.7043    0.0000 C   0  0  0  0  0  0  0  0  0  0  0  0
    2.3653   -0.7734    0.0000 C   0  0  0  0  0  0  0  0  0  0  0  0
    9.0576    0.5415    0.0000 H   0  0  0  0  0  0  0  0  0  0  0  0
    7.7714    0.9970    0.0000 H   0  0  0  0  0  0  0  0  0  0  0  0
    9.2698    0.2754    0.0000 H   0  0  0  0  0  0  0  0  0  0  0  0
    6.6132    0.2754    0.0000 H   0  0  0  0  0  0  0  0  0  0  0  0
    9.1594   -2.3185    0.0000 H   0  0  0  0  0  0  0  0  0  0  0  0
    9.9476   -2.4373    0.0000 H   0  0  0  0  0  0  0  0  0  0  0  0
    5.9354   -2.4373    0.0000 H   0  0  0  0  0  0  0  0  0  0  0  0
    6.7236   -2.3185    0.0000 H   0  0  0  0  0  0  0  0  0  0  0  0
    8.5261    1.8853    0.0000 H   0  0  0  0  0  0  0  0  0  0  0  0
    7.3569    1.8853    0.0000 H   0  0  0  0  0  0  0  0  0  0  0  0
   11.2446   -2.7794    0.0000 H   0  0  0  0  0  0  0  0  0  0  0  0
   10.2195   -0.1675    0.0000 H   0  0  0  0  0  0  0  0  0  0  0  0
    4.6384   -2.7794    0.0000 H   0  0  0  0  0  0  0  0  0  0  0  0
    9.0501    1.4634    0.0000 H   0  0  0  0  0  0  0  0  0  0  0  0
   11.7313    0.6363    0.0000 H   0  0  0  0  0  0  0  0  0  0  0  0
    6.8330    1.4634    0.0000 H   0  0  0  0  0  0  0  0  0  0  0  0
    4.1517    0.6363    0.0000 H   0  0  0  0  0  0  0  0  0  0  0  0
   12.7526   -2.1876    0.0000 H   0  0  0  0  0  0  0  0  0  0  0  0
   11.7275    0.4244    0.0000 H   0  0  0  0  0  0  0  0  0  0  0  0
   12.9941   -0.5857    0.0000 H   0  0  0  0  0  0  0  0  0  0  0  0
    9.5276    3.0114    0.0000 H   0  0  0  0  0  0  0  0  0  0  0  0
   12.2088    2.1843    0.0000 H   0  0  0  0  0  0  0  0  0  0  0  0
    6.3555    3.0114    0.0000 H   0  0  0  0  0  0  0  0  0  0  0  0
    3.6742    2.1843    0.0000 H   0  0  0  0  0  0  0  0  0  0  0  0
   11.1069    3.3719    0.0000 H   0  0  0  0  0  0  0  0  0  0  0  0
    4.7761    3.3719    0.0000 H   0  0  0  0  0  0  0  0  0  0  0  0
    1.3999   -1.8602    0.0000 H   0  0  0  0  0  0  0  0  0  0  0  0
    2.0316   -0.2509    0.0000 H   0  0  0  0  0  0  0  0  0  0  0  0
  1  7  2  0  0  0  0
  1  8  2  0  0  0  0
  1 10  1  0  0  0  0
  1 11  1  0  0  0  0
  2 37  1  0  0  0  0
  2 40  1  0  0  0  0
 16  3  1  1  0  0  0
  3 22  1  0  0  0  0
 17  4  1  6  0  0  0
  4 23  1  0  0  0  0
 14  5  1  1  0  0  0
  5 50  1  0  0  0  0
 15  6  1  6  0  0  0
  6 51  1  0  0  0  0
  9 21  2  0  0  0  0
 10 16  1  0  0  0  0
 10 18  1  0  0  0  0
 11 17  1  0  0  0  0
 11 19  1  0  0  0  0
 12 21  1  0  0  0  0
 12 37  1  0  0  0  0
 12 54  1  0  0  0  0
 13 37  2  0  0  0  0
 13 41  1  0  0  0  0
 14 15  1  0  0  0  0
 14 16  1  0  0  0  0
 14 42  1  0  0  0  0
 15 17  1  0  0  0  0
 15 43  1  0  0  0  0
 16 44  1  0  0  0  0
 17 45  1  0  0  0  0
 18 20  1  0  0  0  0
 18 46  1  0  0  0  0
 18 47  1  0  0  0  0
 19 21  1  0  0  0  0
 19 48  1  0  0  0  0
 19 49  1  0  0  0  0
 20 24  2  0  0  0  0
 20 25  1  0  0  0  0
 22 26  2  0  0  0  0
 22 27  1  0  0  0  0
 23 28  2  0  0  0  0
 23 29  1  0  0  0  0
 24 30  1  0  0  0  0
 24 52  1  0  0  0  0
 25 31  2  0  0  0  0
 25 53  1  0  0  0  0
 26 33  1  0  0  0  0
 26 55  1  0  0  0  0
 27 34  2  0  0  0  0
 27 56  1  0  0  0  0
 28 35  1  0  0  0  0
 28 57  1  0  0  0  0
 29 36  2  0  0  0  0
 29 58  1  0  0  0  0
 30 32  2  0  0  0  0
 30 59  1  0  0  0  0
 31 32  1  0  0  0  0
 31 60  1  0  0  0  0
 32 61  1  0  0  0  0
 33 38  2  0  0  0  0
 33 62  1  0  0  0  0
 34 38  1  0  0  0  0
 34 63  1  0  0  0  0
 35 39  2  0  0  0  0
 35 64  1  0  0  0  0
 36 39  1  0  0  0  0
 36 65  1  0  0  0  0
 38 66  1  0  0  0  0
 39 67  1  0  0  0  0
 40 41  2  0  0  0  0
 40 68  1  0  0  0  0
 41 69  1  0  0  0  0
M  END
> <PUBCHEM_COMPOUND_CID>
501457
> <PUBCHEM_COMPOUND_CANONICALIZED>
1
> <PUBCHEM_CACTVS_COMPLEXITY>
936
> <PUBCHEM_CACTVS_HBOND_ACCEPTOR>
11
> <PUBCHEM_CACTVS_HBOND_DONOR>
3
> <PUBCHEM_CACTVS_ROTATABLE_BOND>
9
> <PUBCHEM_CACTVS_SUBSKEYS>
AAADceB7uABgAAAAAAAAAAAAAAAAAWAAAAAwYMAABYAAAAAB1AAAHgQQSAAADBTl2ga9l5LIFgisAjF3dDCC+KlxKjlJyAyeLIiPdiKEuTueeCjv0RObqCfwwAAOAAAAAAAAAAAAAAAAAAAAAAAAAAAAAA==
> <PUBCHEM_IUPAC_OPENEYE_NAME>
2-[(3R,4R,5R,6R)-7-benzyl-4,5-dihydroxy-1,1-dioxo-3,6-diphenoxy-1,2,7-thiadiazepan-2-yl]-N-thiazol-2-yl-acetamide
> <PUBCHEM_IUPAC_CAS_NAME>
2-[(3R,4R,5R,6R)-4,5-dihydroxy-1,1-dioxo-3,6-diphenoxy-7-(phenylmethyl)-1,2,7-thiadiazepan-2-yl]-N-(2-thiazolyl)acetamide
> <PUBCHEM_IUPAC_NAME_MARKUP>
2-[(3<I>R</I>,4<I>R</I>,5<I>R</I>,6<I>R</I>)-7-benzyl-4,5-dihydroxy-1,1-dioxo-3,6-diphenoxy-1,2,7-thiadiazepan-2-yl]-<I>N</I>-(1,3-thiazol-2-yl)acetamide
> <PUBCHEM_IUPAC_NAME>
2-[(3R,4R,5R,6R)-7-benzyl-4,5-dihydroxy-1,1-dioxo-3,6-diphenoxy-1,2,7-thiadiazepan-2-yl]-N-(1,3-thiazol-2-yl)acetamide
> <PUBCHEM_IUPAC_SYSTEMATIC_NAME>
2-[(3R,4R,5R,6R)-4,5-bis(oxidanyl)-1,1-bis(oxidanylidene)-3,6-diphenoxy-7-(phenylmethyl)-1,2,7-thiadiazepan-2-yl]-N-(1,3-thiazol-2-yl)ethanamide
> <PUBCHEM_IUPAC_TRADITIONAL_NAME>
2-[(3R,4R,5R,6R)-7-benzyl-4,5-dihydroxy-1,1-diketo-3,6-diphenoxy-1,2,7-thiadiazepan-2-yl]-N-thiazol-2-yl-acetamide
> <PUBCHEM_IUPAC_INCHI>
InChI=1S/C28H28N4O7S2/c33-23(30-28-29-16-17-40-28)19-32-27(39-22-14-8-3-9-15-22)25(35)24(34)26(38-21-12-6-2-7-13-21)31(41(32,36)37)18-20-10-4-1-5-11-20/h1-17,24-27,34-35H,18-19H2,(H,29,30,33)/t24-,25-,26-,27-/m1/s1
> <PUBCHEM_IUPAC_INCHIKEY>
GCPIITAUSRCDNY-FPCALVHFSA-N
> <PUBCHEM_XLOGP3_AA>
3.4
> <PUBCHEM_EXACT_MASS>
596.13994159
> <PUBCHEM_MOLECULAR_FORMULA>
C28H28N4O7S2
> <PUBCHEM_MOLECULAR_WEIGHT>
596.7
> <PUBCHEM_OPENEYE_CAN_SMILES>
C1=CC=C(C=C1)CN2C(C(C(C(N(S2(=O)=O)CC(=O)NC3=NC=CS3)OC4=CC=CC=C4)O)O)OC5=CC=CC=C5
> <PUBCHEM_OPENEYE_ISO_SMILES>
C1=CC=C(C=C1)CN2[C@@H]([C@@H]([C@H]([C@H](N(S2(=O)=O)CC(=O)NC3=NC=CS3)OC4=CC=CC=C4)O)O)OC5=CC=CC=C5
> <PUBCHEM_CACTVS_TPSA>
178
> <PUBCHEM_MONOISOTOPIC_WEIGHT>
596.13994159
> <PUBCHEM_TOTAL_CHARGE>
0
> <PUBCHEM_HEAVY_ATOM_COUNT>
41
> <PUBCHEM_ATOM_DEF_STEREO_COUNT>
4
> <PUBCHEM_ATOM_UDEF_STEREO_COUNT>
0
> <PUBCHEM_BOND_DEF_STEREO_COUNT>
0
> <PUBCHEM_BOND_UDEF_STEREO_COUNT>
0
> <PUBCHEM_ISOTOPIC_ATOM_COUNT>
0
> <PUBCHEM_COMPONENT_COUNT>
1
> <PUBCHEM_CACTVS_TAUTO_COUNT>
-1
> <PUBCHEM_COORDINATE_TYPE>
1
5
255
> <PUBCHEM_BONDANNOTATIONS>
13  37  8
13  41  8
2  37  8
2  40  8
20  24  8
20  25  8
22  26  8
22  27  8
23  28  8
23  29  8
24  30  8
25  31  8
26  33  8
27  34  8
28  35  8
29  36  8
16  3  5
30  32  8
31  32  8
33  38  8
34  38  8
35  39  8
36  39  8
17  4  6
40  41  8
14  5  5
15  6  6
$$$$
