501454
  -OEChem-10302200282D
100104  0     1  0  0  0  0  0999 V2000
    7.3180    0.8849    0.0000 S   0  0  0  0  0  0  0  0  0  0  0  0
    8.2518    3.9765    0.0000 O   0  0  0  0  0  0  0  0  0  0  0  0
    6.3841    3.9765    0.0000 O   0  0  0  0  0  0  0  0  0  0  0  0
    6.8841   -0.0161    0.0000 O   0  0  0  0  0  0  0  0  0  0  0  0
    7.7518   -0.0161    0.0000 O   0  0  0  0  0  0  0  0  0  0  0  0
    9.7111    3.4718    0.0000 O   0  0  0  0  0  0  0  0  0  0  0  0
    4.9248    3.4718    0.0000 O   0  0  0  0  0  0  0  0  0  0  0  0
    5.4495   -3.8836    0.0000 O   0  0  0  0  0  0  0  0  0  0  0  0
    7.1622   -3.6254    0.0000 O   0  0  0  0  0  0  0  0  0  0  0  0
   14.4370    1.8985    0.0000 O   0  0  0  0  0  0  0  0  0  0  0  0
   13.3570    0.5443    0.0000 O   0  0  0  0  0  0  0  0  0  0  0  0
    8.2189    1.3188    0.0000 N   0  0  3  0  0  0  0  0  0  0  0  0
    6.4170    1.3188    0.0000 N   0  0  3  0  0  0  0  0  0  0  0  0
    8.4414    2.2937    0.0000 C   0  0  1  0  0  0  0  0  0  0  0  0
    6.1945    2.2937    0.0000 C   0  0  1  0  0  0  0  0  0  0  0  0
    7.8180    3.0755    0.0000 C   0  0  1  0  0  0  0  0  0  0  0  0
    6.8180    3.0755    0.0000 C   0  0  1  0  0  0  0  0  0  0  0  0
    9.4164    2.5162    0.0000 C   0  0  0  0  0  0  0  0  0  0  0  0
    5.2195    2.5162    0.0000 C   0  0  0  0  0  0  0  0  0  0  0  0
    9.0008    0.6953    0.0000 C   0  0  0  0  0  0  0  0  0  0  0  0
    5.6352    0.6953    0.0000 C   0  0  0  0  0  0  0  0  0  0  0  0
    9.9316    1.0606    0.0000 C   0  0  0  0  0  0  0  0  0  0  0  0
    5.7842   -0.2936    0.0000 C   0  0  0  0  0  0  0  0  0  0  0  0
   10.0807    2.0494    0.0000 C   0  0  0  0  0  0  0  0  0  0  0  0
   10.7135    0.4371    0.0000 C   0  0  0  0  0  0  0  0  0  0  0  0
    5.0024   -0.9171    0.0000 C   0  0  0  0  0  0  0  0  0  0  0  0
    6.7151   -0.6589    0.0000 C   0  0  0  0  0  0  0  0  0  0  0  0
   10.6861    3.6943    0.0000 C   0  0  0  0  0  0  0  0  0  0  0  0
    3.9499    3.6943    0.0000 C   0  0  0  0  0  0  0  0  0  0  0  0
   11.0115    2.4148    0.0000 C   0  0  0  0  0  0  0  0  0  0  0  0
   11.6443    0.8025    0.0000 C   0  0  0  0  0  0  0  0  0  0  0  0
    5.1514   -1.9059    0.0000 C   0  0  0  0  0  0  0  0  0  0  0  0
    6.8641   -1.6477    0.0000 C   0  0  0  0  0  0  0  0  0  0  0  0
   11.7934    1.7913    0.0000 C   0  0  0  0  0  0  0  0  0  0  0  0
    6.0823   -2.2712    0.0000 C   0  0  0  0  0  0  0  0  0  0  0  0
   11.3662    2.9612    0.0000 C   0  0  0  0  0  0  0  0  0  0  0  0
   10.9808    4.6499    0.0000 C   0  0  0  0  0  0  0  0  0  0  0  0
    3.2697    2.9612    0.0000 C   0  0  0  0  0  0  0  0  0  0  0  0
    3.6551    4.6499    0.0000 C   0  0  0  0  0  0  0  0  0  0  0  0
   12.7243    2.1566    0.0000 C   0  0  0  0  0  0  0  0  0  0  0  0
    6.2313   -3.2601    0.0000 C   0  0  0  0  0  0  0  0  0  0  0  0
   13.5061    1.5331    0.0000 C   0  0  0  0  0  0  0  0  0  0  0  0
   12.3412    3.1838    0.0000 C   0  0  0  0  0  0  0  0  0  0  0  0
   11.9557    4.8724    0.0000 C   0  0  0  0  0  0  0  0  0  0  0  0
    2.2948    3.1838    0.0000 C   0  0  0  0  0  0  0  0  0  0  0  0
    2.6802    4.8724    0.0000 C   0  0  0  0  0  0  0  0  0  0  0  0
   12.6359    4.1393    0.0000 C   0  0  0  0  0  0  0  0  0  0  0  0
    2.0000    4.1393    0.0000 C   0  0  0  0  0  0  0  0  0  0  0  0
    5.5985   -4.8724    0.0000 C   0  0  0  0  0  0  0  0  0  0  0  0
    7.3112   -4.6142    0.0000 C   0  0  0  0  0  0  0  0  0  0  0  0
   15.2188    1.2750    0.0000 C   0  0  0  0  0  0  0  0  0  0  0  0
   14.1389   -0.0792    0.0000 C   0  0  0  0  0  0  0  0  0  0  0  0
    8.8798    1.8553    0.0000 H   0  0  0  0  0  0  0  0  0  0  0  0
    5.7561    1.8553    0.0000 H   0  0  0  0  0  0  0  0  0  0  0  0
    7.4881    3.6005    0.0000 H   0  0  0  0  0  0  0  0  0  0  0  0
    6.2018    3.1449    0.0000 H   0  0  0  0  0  0  0  0  0  0  0  0
    9.4473    1.8970    0.0000 H   0  0  0  0  0  0  0  0  0  0  0  0
   10.0316    2.4391    0.0000 H   0  0  0  0  0  0  0  0  0  0  0  0
    4.6044    2.4391    0.0000 H   0  0  0  0  0  0  0  0  0  0  0  0
    5.1886    1.8970    0.0000 H   0  0  0  0  0  0  0  0  0  0  0  0
    8.5359    0.2850    0.0000 H   0  0  0  0  0  0  0  0  0  0  0  0
    9.3240    0.1662    0.0000 H   0  0  0  0  0  0  0  0  0  0  0  0
    5.3386    1.2398    0.0000 H   0  0  0  0  0  0  0  0  0  0  0  0
    5.0474    0.4978    0.0000 H   0  0  0  0  0  0  0  0  0  0  0  0
    7.9026    4.4887    0.0000 H   0  0  0  0  0  0  0  0  0  0  0  0
    6.7333    4.4887    0.0000 H   0  0  0  0  0  0  0  0  0  0  0  0
    9.5959    2.4360    0.0000 H   0  0  0  0  0  0  0  0  0  0  0  0
   10.6211   -0.1760    0.0000 H   0  0  0  0  0  0  0  0  0  0  0  0
    4.4252   -0.6906    0.0000 H   0  0  0  0  0  0  0  0  0  0  0  0
    7.1998   -0.2723    0.0000 H   0  0  0  0  0  0  0  0  0  0  0  0
   11.1040    3.0278    0.0000 H   0  0  0  0  0  0  0  0  0  0  0  0
   12.1291    0.4159    0.0000 H   0  0  0  0  0  0  0  0  0  0  0  0
    4.6667   -2.2925    0.0000 H   0  0  0  0  0  0  0  0  0  0  0  0
    7.4413   -1.8743    0.0000 H   0  0  0  0  0  0  0  0  0  0  0  0
   11.1835    2.3688    0.0000 H   0  0  0  0  0  0  0  0  0  0  0  0
   10.5591    5.1044    0.0000 H   0  0  0  0  0  0  0  0  0  0  0  0
    3.4524    2.3688    0.0000 H   0  0  0  0  0  0  0  0  0  0  0  0
    4.0768    5.1044    0.0000 H   0  0  0  0  0  0  0  0  0  0  0  0
   13.1891    2.5669    0.0000 H   0  0  0  0  0  0  0  0  0  0  0  0
   12.4010    2.6857    0.0000 H   0  0  0  0  0  0  0  0  0  0  0  0
    5.6542   -3.0336    0.0000 H   0  0  0  0  0  0  0  0  0  0  0  0
   13.5985    2.1462    0.0000 H   0  0  0  0  0  0  0  0  0  0  0  0
   12.7629    2.7293    0.0000 H   0  0  0  0  0  0  0  0  0  0  0  0
   12.1385    5.4648    0.0000 H   0  0  0  0  0  0  0  0  0  0  0  0
    1.8730    2.7293    0.0000 H   0  0  0  0  0  0  0  0  0  0  0  0
    2.4974    5.4648    0.0000 H   0  0  0  0  0  0  0  0  0  0  0  0
   13.2404    4.2773    0.0000 H   0  0  0  0  0  0  0  0  0  0  0  0
    1.3955    4.2773    0.0000 H   0  0  0  0  0  0  0  0  0  0  0  0
    4.9855   -4.9648    0.0000 H   0  0  0  0  0  0  0  0  0  0  0  0
    5.6909   -5.4855    0.0000 H   0  0  0  0  0  0  0  0  0  0  0  0
    6.2116   -4.7800    0.0000 H   0  0  0  0  0  0  0  0  0  0  0  0
    6.6982   -4.7066    0.0000 H   0  0  0  0  0  0  0  0  0  0  0  0
    7.4036   -5.2273    0.0000 H   0  0  0  0  0  0  0  0  0  0  0  0
    7.9243   -4.5218    0.0000 H   0  0  0  0  0  0  0  0  0  0  0  0
   14.8322    0.7902    0.0000 H   0  0  0  0  0  0  0  0  0  0  0  0
   15.7035    0.8884    0.0000 H   0  0  0  0  0  0  0  0  0  0  0  0
   15.6054    1.7597    0.0000 H   0  0  0  0  0  0  0  0  0  0  0  0
   13.7523   -0.5639    0.0000 H   0  0  0  0  0  0  0  0  0  0  0  0
   14.6236   -0.4658    0.0000 H   0  0  0  0  0  0  0  0  0  0  0  0
   14.5254    0.4055    0.0000 H   0  0  0  0  0  0  0  0  0  0  0  0
  1  4  2  0  0  0  0
  1  5  2  0  0  0  0
  1 12  1  0  0  0  0
  1 13  1  0  0  0  0
 16  2  1  1  0  0  0
  2 65  1  0  0  0  0
 17  3  1  6  0  0  0
  3 66  1  0  0  0  0
  6 18  1  0  0  0  0
  6 28  1  0  0  0  0
  7 19  1  0  0  0  0
  7 29  1  0  0  0  0
  8 41  1  0  0  0  0
  8 49  1  0  0  0  0
  9 41  1  0  0  0  0
  9 50  1  0  0  0  0
 10 42  1  0  0  0  0
 10 51  1  0  0  0  0
 11 42  1  0  0  0  0
 11 52  1  0  0  0  0
 12 14  1  0  0  0  0
 12 20  1  0  0  0  0
 13 15  1  0  0  0  0
 13 21  1  0  0  0  0
 14 16  1  0  0  0  0
 14 18  1  1  0  0  0
 14 53  1  0  0  0  0
 15 17  1  0  0  0  0
 15 19  1  6  0  0  0
 15 54  1  0  0  0  0
 16 17  1  0  0  0  0
 16 55  1  0  0  0  0
 17 56  1  0  0  0  0
 18 57  1  0  0  0  0
 18 58  1  0  0  0  0
 19 59  1  0  0  0  0
 19 60  1  0  0  0  0
 20 22  1  0  0  0  0
 20 61  1  0  0  0  0
 20 62  1  0  0  0  0
 21 23  1  0  0  0  0
 21 63  1  0  0  0  0
 21 64  1  0  0  0  0
 22 24  2  0  0  0  0
 22 25  1  0  0  0  0
 23 26  2  0  0  0  0
 23 27  1  0  0  0  0
 24 30  1  0  0  0  0
 24 67  1  0  0  0  0
 25 31  2  0  0  0  0
 25 68  1  0  0  0  0
 26 32  1  0  0  0  0
 26 69  1  0  0  0  0
 27 33  2  0  0  0  0
 27 70  1  0  0  0  0
 28 36  2  0  0  0  0
 28 37  1  0  0  0  0
 29 38  2  0  0  0  0
 29 39  1  0  0  0  0
 30 34  2  0  0  0  0
 30 71  1  0  0  0  0
 31 34  1  0  0  0  0
 31 72  1  0  0  0  0
 32 35  2  0  0  0  0
 32 73  1  0  0  0  0
 33 35  1  0  0  0  0
 33 74  1  0  0  0  0
 34 40  1  0  0  0  0
 35 41  1  0  0  0  0
 36 43  1  0  0  0  0
 36 75  1  0  0  0  0
 37 44  2  0  0  0  0
 37 76  1  0  0  0  0
 38 45  1  0  0  0  0
 38 77  1  0  0  0  0
 39 46  2  0  0  0  0
 39 78  1  0  0  0  0
 40 42  1  0  0  0  0
 40 79  1  0  0  0  0
 40 80  1  0  0  0  0
 41 81  1  0  0  0  0
 42 82  1  0  0  0  0
 43 47  2  0  0  0  0
 43 83  1  0  0  0  0
 44 47  1  0  0  0  0
 44 84  1  0  0  0  0
 45 48  2  0  0  0  0
 45 85  1  0  0  0  0
 46 48  1  0  0  0  0
 46 86  1  0  0  0  0
 47 87  1  0  0  0  0
 48 88  1  0  0  0  0
 49 89  1  0  0  0  0
 49 90  1  0  0  0  0
 49 91  1  0  0  0  0
 50 92  1  0  0  0  0
 50 93  1  0  0  0  0
 50 94  1  0  0  0  0
 51 95  1  0  0  0  0
 51 96  1  0  0  0  0
 51 97  1  0  0  0  0
 52 98  1  0  0  0  0
 52 99  1  0  0  0  0
 52100  1  0  0  0  0
M  END
> <PUBCHEM_COMPOUND_CID>
501454
> <PUBCHEM_COMPOUND_CANONICALIZED>
1
> <PUBCHEM_CACTVS_COMPLEXITY>
1090
> <PUBCHEM_CACTVS_HBOND_ACCEPTOR>
12
> <PUBCHEM_CACTVS_HBOND_DONOR>
2
> <PUBCHEM_CACTVS_ROTATABLE_BOND>
17
> <PUBCHEM_CACTVS_SUBSKEYS>
AAADcfB/PABAAAAAAAAAAAAAAAAAAAAAAAAwYMGABYAAAAABVAAAHgAASAAADDzxmAcyDoIABgCAAiBCADCCCAAgIAAIiAAODIgfNiKEsRuneCjnwBGZqAfQ0PMOQAAAAAAAAACAAAAAAAAAAAAAAAAAAA==
> <PUBCHEM_IUPAC_OPENEYE_NAME>
(3R,4S,5S,6R)-2-[[4-(2,2-dimethoxyethyl)phenyl]methyl]-7-[[4-(dimethoxymethyl)phenyl]methyl]-1,1-dioxo-3,6-bis(phenoxymethyl)-1,2,7-thiadiazepane-4,5-diol
> <PUBCHEM_IUPAC_CAS_NAME>
(3R,4S,5S,6R)-2-[[4-(2,2-dimethoxyethyl)phenyl]methyl]-7-[[4-(dimethoxymethyl)phenyl]methyl]-1,1-dioxo-3,6-bis(phenoxymethyl)-1,2,7-thiadiazepane-4,5-diol
> <PUBCHEM_IUPAC_NAME_MARKUP>
(3<I>R</I>,4<I>S</I>,5<I>S</I>,6<I>R</I>)-2-[[4-(2,2-dimethoxyethyl)phenyl]methyl]-7-[[4-(dimethoxymethyl)phenyl]methyl]-1,1-dioxo-3,6-bis(phenoxymethyl)-1,2,7-thiadiazepane-4,5-diol
> <PUBCHEM_IUPAC_NAME>
(3R,4S,5S,6R)-2-[[4-(2,2-dimethoxyethyl)phenyl]methyl]-7-[[4-(dimethoxymethyl)phenyl]methyl]-1,1-dioxo-3,6-bis(phenoxymethyl)-1,2,7-thiadiazepane-4,5-diol
> <PUBCHEM_IUPAC_SYSTEMATIC_NAME>
(3R,4S,5S,6R)-2-[[4-(2,2-dimethoxyethyl)phenyl]methyl]-7-[[4-(dimethoxymethyl)phenyl]methyl]-1,1-bis(oxidanylidene)-3,6-bis(phenoxymethyl)-1,2,7-thiadiazepane-4,5-diol
> <PUBCHEM_IUPAC_TRADITIONAL_NAME>
(3R,4S,5S,6R)-2-[4-(2,2-dimethoxyethyl)benzyl]-7-[4-(dimethoxymethyl)benzyl]-1,1-diketo-3,6-bis(phenoxymethyl)-1,2,7-thiadiazepane-4,5-diol
> <PUBCHEM_IUPAC_INCHI>
InChI=1S/C39H48N2O10S/c1-46-36(47-2)23-28-15-17-29(18-16-28)24-40-34(26-50-32-11-7-5-8-12-32)37(42)38(43)35(27-51-33-13-9-6-10-14-33)41(52(40,44)45)25-30-19-21-31(22-20-30)39(48-3)49-4/h5-22,34-39,42-43H,23-27H2,1-4H3/t34-,35-,37+,38+/m1/s1
> <PUBCHEM_IUPAC_INCHIKEY>
GREJFHUJPFXXMX-PASMDFPHSA-N
> <PUBCHEM_XLOGP3_AA>
4.2
> <PUBCHEM_EXACT_MASS>
736.30296691
> <PUBCHEM_MOLECULAR_FORMULA>
C39H48N2O10S
> <PUBCHEM_MOLECULAR_WEIGHT>
736.9
> <PUBCHEM_OPENEYE_CAN_SMILES>
COC(CC1=CC=C(C=C1)CN2C(C(C(C(N(S2(=O)=O)CC3=CC=C(C=C3)C(OC)OC)COC4=CC=CC=C4)O)O)COC5=CC=CC=C5)OC
> <PUBCHEM_OPENEYE_ISO_SMILES>
COC(CC1=CC=C(C=C1)CN2[C@@H]([C@@H]([C@H]([C@H](N(S2(=O)=O)CC3=CC=C(C=C3)C(OC)OC)COC4=CC=CC=C4)O)O)COC5=CC=CC=C5)OC
> <PUBCHEM_CACTVS_TPSA>
145
> <PUBCHEM_MONOISOTOPIC_WEIGHT>
736.30296691
> <PUBCHEM_TOTAL_CHARGE>
0
> <PUBCHEM_HEAVY_ATOM_COUNT>
52
> <PUBCHEM_ATOM_DEF_STEREO_COUNT>
4
> <PUBCHEM_ATOM_UDEF_STEREO_COUNT>
0
> <PUBCHEM_BOND_DEF_STEREO_COUNT>
0
> <PUBCHEM_BOND_UDEF_STEREO_COUNT>
0
> <PUBCHEM_ISOTOPIC_ATOM_COUNT>
0
> <PUBCHEM_COMPONENT_COUNT>
1
> <PUBCHEM_CACTVS_TAUTO_COUNT>
-1
> <PUBCHEM_COORDINATE_TYPE>
1
5
255
> <PUBCHEM_BONDANNOTATIONS>
14  18  5
15  19  6
16  2  5
22  24  8
22  25  8
23  26  8
23  27  8
24  30  8
25  31  8
26  32  8
27  33  8
28  36  8
28  37  8
29  38  8
29  39  8
17  3  6
30  34  8
31  34  8
32  35  8
33  35  8
36  43  8
37  44  8
38  45  8
39  46  8
43  47  8
44  47  8
45  48  8
46  48  8
$$$$
