501427
  -OEChem-10302200282D
 28 29  0     1  0  0  0  0  0999 V2000
    4.5691   -0.7063    0.0000 S   0  0  0  0  0  0  0  0  0  0  0  0
    2.0000   -0.3973    0.0000 F   0  0  0  0  0  0  0  0  0  0  0  0
    4.4411   -3.3799    0.0000 O   0  0  0  0  0  0  0  0  0  0  0  0
    5.4921    0.8815    0.0000 O   0  0  0  0  0  0  0  0  0  0  0  0
    3.7601    3.8815    0.0000 O   0  0  0  0  0  0  0  0  0  0  0  0
    3.7601    0.8815    0.0000 N   0  0  0  0  0  0  0  0  0  0  0  0
    4.6261    2.3815    0.0000 N   0  0  0  0  0  0  0  0  0  0  0  0
    3.7601   -0.1185    0.0000 C   0  0  2  0  0  0  0  0  0  0  0  0
    4.2601   -1.6573    0.0000 C   0  0  2  0  0  0  0  0  0  0  0  0
    2.9511   -0.7063    0.0000 C   0  0  0  0  0  0  0  0  0  0  0  0
    3.2601   -1.6573    0.0000 C   0  0  0  0  0  0  0  0  0  0  0  0
    4.8479   -2.4664    0.0000 C   0  0  0  0  0  0  0  0  0  0  0  0
    2.8940    1.3815    0.0000 C   0  0  0  0  0  0  0  0  0  0  0  0
    4.6261    1.3815    0.0000 C   0  0  0  0  0  0  0  0  0  0  0  0
    2.8940    2.3815    0.0000 C   0  0  0  0  0  0  0  0  0  0  0  0
    3.7601    2.8815    0.0000 C   0  0  0  0  0  0  0  0  0  0  0  0
    2.0280    2.8815    0.0000 C   0  0  0  0  0  0  0  0  0  0  0  0
    4.3125    0.1630    0.0000 H   0  0  0  0  0  0  0  0  0  0  0  0
    4.8724   -1.5603    0.0000 H   0  0  0  0  0  0  0  0  0  0  0  0
    2.8956   -2.1589    0.0000 H   0  0  0  0  0  0  0  0  0  0  0  0
    5.3619   -2.8131    0.0000 H   0  0  0  0  0  0  0  0  0  0  0  0
    5.2786   -2.0204    0.0000 H   0  0  0  0  0  0  0  0  0  0  0  0
    2.3571    1.0715    0.0000 H   0  0  0  0  0  0  0  0  0  0  0  0
    5.1630    2.6915    0.0000 H   0  0  0  0  0  0  0  0  0  0  0  0
    2.3380    3.4184    0.0000 H   0  0  0  0  0  0  0  0  0  0  0  0
    1.4911    3.1915    0.0000 H   0  0  0  0  0  0  0  0  0  0  0  0
    1.7180    2.3446    0.0000 H   0  0  0  0  0  0  0  0  0  0  0  0
    4.8056   -3.8815    0.0000 H   0  0  0  0  0  0  0  0  0  0  0  0
  1  8  1  0  0  0  0
  1  9  1  0  0  0  0
  2 10  1  0  0  0  0
  3 12  1  0  0  0  0
  3 28  1  0  0  0  0
  4 14  2  0  0  0  0
  5 16  2  0  0  0  0
  8  6  1  1  0  0  0
  6 13  1  0  0  0  0
  6 14  1  0  0  0  0
  7 14  1  0  0  0  0
  7 16  1  0  0  0  0
  7 24  1  0  0  0  0
  8 10  1  0  0  0  0
  8 18  1  0  0  0  0
  9 11  1  0  0  0  0
  9 12  1  1  0  0  0
  9 19  1  0  0  0  0
 10 11  2  0  0  0  0
 11 20  1  0  0  0  0
 12 21  1  0  0  0  0
 12 22  1  0  0  0  0
 13 15  2  0  0  0  0
 13 23  1  0  0  0  0
 15 16  1  0  0  0  0
 15 17  1  0  0  0  0
 17 25  1  0  0  0  0
 17 26  1  0  0  0  0
 17 27  1  0  0  0  0
M  END
> <PUBCHEM_COMPOUND_CID>
501427
> <PUBCHEM_COMPOUND_CANONICALIZED>
1
> <PUBCHEM_CACTVS_COMPLEXITY>
435
> <PUBCHEM_CACTVS_HBOND_ACCEPTOR>
5
> <PUBCHEM_CACTVS_HBOND_DONOR>
2
> <PUBCHEM_CACTVS_ROTATABLE_BOND>
2
> <PUBCHEM_CACTVS_SUBSKEYS>
AAADccBzMQBAAAAAAAAAAAAAAAAAAQAAAAAgAAAAAAAAAAAAAAAAHwQQCAAADADlwAaDAAPAAgiIAiFWUACAAABgABAACAEIAEiAEAAAAQAEQAAIRyIoAMIAAAAAAAAAAAAAAAAAAAAAAAAAAAAAAAAAAA==
> <PUBCHEM_IUPAC_OPENEYE_NAME>
1-[(2S,5R)-3-fluoro-5-(hydroxymethyl)-2,5-dihydrothiophen-2-yl]-5-methyl-pyrimidine-2,4-dione
> <PUBCHEM_IUPAC_CAS_NAME>
1-[(2S,5R)-3-fluoro-5-(hydroxymethyl)-2,5-dihydrothiophen-2-yl]-5-methylpyrimidine-2,4-dione
> <PUBCHEM_IUPAC_NAME_MARKUP>
1-[(2<I>S</I>,5<I>R</I>)-3-fluoro-5-(hydroxymethyl)-2,5-dihydrothiophen-2-yl]-5-methylpyrimidine-2,4-dione
> <PUBCHEM_IUPAC_NAME>
1-[(2S,5R)-3-fluoro-5-(hydroxymethyl)-2,5-dihydrothiophen-2-yl]-5-methylpyrimidine-2,4-dione
> <PUBCHEM_IUPAC_SYSTEMATIC_NAME>
1-[(2S,5R)-3-fluoranyl-5-(hydroxymethyl)-2,5-dihydrothiophen-2-yl]-5-methyl-pyrimidine-2,4-dione
> <PUBCHEM_IUPAC_TRADITIONAL_NAME>
1-[(2S,5R)-3-fluoro-5-methylol-2,5-dihydrothiophen-2-yl]-5-methyl-pyrimidine-2,4-quinone
> <PUBCHEM_IUPAC_INCHI>
InChI=1S/C10H11FN2O3S/c1-5-3-13(10(16)12-8(5)15)9-7(11)2-6(4-14)17-9/h2-3,6,9,14H,4H2,1H3,(H,12,15,16)/t6-,9+/m1/s1
> <PUBCHEM_IUPAC_INCHIKEY>
IAYDHFWPBIVIBO-MUWHJKNJSA-N
> <PUBCHEM_XLOGP3_AA>
-0.2
> <PUBCHEM_EXACT_MASS>
258.04744155
> <PUBCHEM_MOLECULAR_FORMULA>
C10H11FN2O3S
> <PUBCHEM_MOLECULAR_WEIGHT>
258.27
> <PUBCHEM_OPENEYE_CAN_SMILES>
CC1=CN(C(=O)NC1=O)C2C(=CC(S2)CO)F
> <PUBCHEM_OPENEYE_ISO_SMILES>
CC1=CN(C(=O)NC1=O)[C@@H]2C(=C[C@@H](S2)CO)F
> <PUBCHEM_CACTVS_TPSA>
94.9
> <PUBCHEM_MONOISOTOPIC_WEIGHT>
258.04744155
> <PUBCHEM_TOTAL_CHARGE>
0
> <PUBCHEM_HEAVY_ATOM_COUNT>
17
> <PUBCHEM_ATOM_DEF_STEREO_COUNT>
2
> <PUBCHEM_ATOM_UDEF_STEREO_COUNT>
0
> <PUBCHEM_BOND_DEF_STEREO_COUNT>
0
> <PUBCHEM_BOND_UDEF_STEREO_COUNT>
0
> <PUBCHEM_ISOTOPIC_ATOM_COUNT>
0
> <PUBCHEM_COMPONENT_COUNT>
1
> <PUBCHEM_CACTVS_TAUTO_COUNT>
-1
> <PUBCHEM_COORDINATE_TYPE>
1
5
255
> <PUBCHEM_BONDANNOTATIONS>
13  15  8
15  16  8
6  13  8
6  14  8
8  6  5
7  14  8
7  16  8
9  12  5
$$$$
