501458
  -OEChem-10302200282D
 76 81  0     1  0  0  0  0  0999 V2000
    9.0214   -1.7985    0.0000 S   0  0  0  0  0  0  0  0  0  0  0  0
    3.3636    0.4411    0.0000 S   0  0  0  0  0  0  0  0  0  0  0  0
    6.9230   -0.1672    0.0000 O   0  0  0  0  0  0  0  0  0  0  0  0
   11.1199   -0.1672    0.0000 O   0  0  0  0  0  0  0  0  0  0  0  0
    8.0876    1.2931    0.0000 O   0  0  0  0  0  0  0  0  0  0  0  0
    9.9553    1.2931    0.0000 O   0  0  0  0  0  0  0  0  0  0  0  0
    8.5876   -2.6995    0.0000 O   0  0  0  0  0  0  0  0  0  0  0  0
    9.4553   -2.6995    0.0000 O   0  0  0  0  0  0  0  0  0  0  0  0
    8.1205   -1.3647    0.0000 N   0  0  3  0  0  0  0  0  0  0  0  0
    9.9224   -1.3647    0.0000 N   0  0  3  0  0  0  0  0  0  0  0  0
    8.5214    0.3921    0.0000 C   0  0  2  0  0  0  0  0  0  0  0  0
    9.5214    0.3921    0.0000 C   0  0  2  0  0  0  0  0  0  0  0  0
    7.8979   -0.3897    0.0000 C   0  0  1  0  0  0  0  0  0  0  0  0
   10.1449   -0.3897    0.0000 C   0  0  1  0  0  0  0  0  0  0  0  0
    7.3386   -1.9882    0.0000 C   0  0  0  0  0  0  0  0  0  0  0  0
   10.7042   -1.9882    0.0000 C   0  0  0  0  0  0  0  0  0  0  0  0
    6.4078   -1.6228    0.0000 C   0  0  0  0  0  0  0  0  0  0  0  0
   11.6351   -1.6228    0.0000 C   0  0  0  0  0  0  0  0  0  0  0  0
    6.6283    0.7884    0.0000 C   0  0  0  0  0  0  0  0  0  0  0  0
   11.4146    0.7884    0.0000 C   0  0  0  0  0  0  0  0  0  0  0  0
    5.6259   -2.2463    0.0000 C   0  0  0  0  0  0  0  0  0  0  0  0
    6.2587   -0.6340    0.0000 C   0  0  0  0  0  0  0  0  0  0  0  0
   11.7841   -0.6340    0.0000 C   0  0  0  0  0  0  0  0  0  0  0  0
   12.4169   -2.2463    0.0000 C   0  0  0  0  0  0  0  0  0  0  0  0
    4.6950   -1.8810    0.0000 C   0  0  0  0  0  0  0  0  0  0  0  0
    5.3278   -0.2686    0.0000 C   0  0  0  0  0  0  0  0  0  0  0  0
    5.6533    1.0109    0.0000 C   0  0  0  0  0  0  0  0  0  0  0  0
    7.3084    1.5214    0.0000 C   0  0  0  0  0  0  0  0  0  0  0  0
   10.7344    1.5214    0.0000 C   0  0  0  0  0  0  0  0  0  0  0  0
   12.3895    1.0109    0.0000 C   0  0  0  0  0  0  0  0  0  0  0  0
    4.5460   -0.8921    0.0000 C   0  0  0  0  0  0  0  0  0  0  0  0
   12.7150   -0.2686    0.0000 C   0  0  0  0  0  0  0  0  0  0  0  0
   13.3478   -1.8810    0.0000 C   0  0  0  0  0  0  0  0  0  0  0  0
   13.4969   -0.8921    0.0000 C   0  0  0  0  0  0  0  0  0  0  0  0
    5.3586    1.9665    0.0000 C   0  0  0  0  0  0  0  0  0  0  0  0
    7.0137    2.4770    0.0000 C   0  0  0  0  0  0  0  0  0  0  0  0
   11.0292    2.4770    0.0000 C   0  0  0  0  0  0  0  0  0  0  0  0
   12.6843    1.9665    0.0000 C   0  0  0  0  0  0  0  0  0  0  0  0
    3.6151   -0.5268    0.0000 C   0  0  0  0  0  0  0  0  0  0  0  0
    6.0388    2.6995    0.0000 C   0  0  0  0  0  0  0  0  0  0  0  0
   12.0041    2.6995    0.0000 C   0  0  0  0  0  0  0  0  0  0  0  0
    2.7724   -1.0651    0.0000 C   0  0  0  0  0  0  0  0  0  0  0  0
    2.0000   -0.4300    0.0000 C   0  0  0  0  0  0  0  0  0  0  0  0
    2.3653    0.5009    0.0000 C   0  0  0  0  0  0  0  0  0  0  0  0
    7.9053    0.4615    0.0000 H   0  0  0  0  0  0  0  0  0  0  0  0
    9.1916    0.9171    0.0000 H   0  0  0  0  0  0  0  0  0  0  0  0
    7.4595   -0.8281    0.0000 H   0  0  0  0  0  0  0  0  0  0  0  0
   10.3497    0.1955    0.0000 H   0  0  0  0  0  0  0  0  0  0  0  0
    7.0153   -2.5172    0.0000 H   0  0  0  0  0  0  0  0  0  0  0  0
    7.8035   -2.3984    0.0000 H   0  0  0  0  0  0  0  0  0  0  0  0
   10.2394   -2.3984    0.0000 H   0  0  0  0  0  0  0  0  0  0  0  0
   11.0275   -2.5172    0.0000 H   0  0  0  0  0  0  0  0  0  0  0  0
    8.4368    1.8053    0.0000 H   0  0  0  0  0  0  0  0  0  0  0  0
    9.6061    1.8053    0.0000 H   0  0  0  0  0  0  0  0  0  0  0  0
    5.7183   -2.8594    0.0000 H   0  0  0  0  0  0  0  0  0  0  0  0
    6.7434   -0.2474    0.0000 H   0  0  0  0  0  0  0  0  0  0  0  0
   11.2994   -0.2474    0.0000 H   0  0  0  0  0  0  0  0  0  0  0  0
   12.3245   -2.8594    0.0000 H   0  0  0  0  0  0  0  0  0  0  0  0
    4.2103   -2.2675    0.0000 H   0  0  0  0  0  0  0  0  0  0  0  0
    5.2354    0.3444    0.0000 H   0  0  0  0  0  0  0  0  0  0  0  0
    5.2316    0.5564    0.0000 H   0  0  0  0  0  0  0  0  0  0  0  0
    7.9129    1.3834    0.0000 H   0  0  0  0  0  0  0  0  0  0  0  0
   10.1300    1.3834    0.0000 H   0  0  0  0  0  0  0  0  0  0  0  0
   12.8112    0.5564    0.0000 H   0  0  0  0  0  0  0  0  0  0  0  0
   12.8074    0.3444    0.0000 H   0  0  0  0  0  0  0  0  0  0  0  0
   13.8325   -2.2675    0.0000 H   0  0  0  0  0  0  0  0  0  0  0  0
   14.0740   -0.6656    0.0000 H   0  0  0  0  0  0  0  0  0  0  0  0
    4.7541    2.1044    0.0000 H   0  0  0  0  0  0  0  0  0  0  0  0
    7.4354    2.9315    0.0000 H   0  0  0  0  0  0  0  0  0  0  0  0
   10.6075    2.9315    0.0000 H   0  0  0  0  0  0  0  0  0  0  0  0
   13.2887    2.1044    0.0000 H   0  0  0  0  0  0  0  0  0  0  0  0
    5.8560    3.2920    0.0000 H   0  0  0  0  0  0  0  0  0  0  0  0
   12.1869    3.2920    0.0000 H   0  0  0  0  0  0  0  0  0  0  0  0
    2.7353   -1.6840    0.0000 H   0  0  0  0  0  0  0  0  0  0  0  0
    1.3999   -0.5860    0.0000 H   0  0  0  0  0  0  0  0  0  0  0  0
    2.0316    1.0233    0.0000 H   0  0  0  0  0  0  0  0  0  0  0  0
  1  7  2  0  0  0  0
  1  8  2  0  0  0  0
  1  9  1  0  0  0  0
  1 10  1  0  0  0  0
  2 39  1  0  0  0  0
  2 44  1  0  0  0  0
 13  3  1  6  0  0  0
  3 19  1  0  0  0  0
 14  4  1  1  0  0  0
  4 20  1  0  0  0  0
 11  5  1  6  0  0  0
  5 53  1  0  0  0  0
 12  6  1  1  0  0  0
  6 54  1  0  0  0  0
  9 13  1  0  0  0  0
  9 15  1  0  0  0  0
 10 14  1  0  0  0  0
 10 16  1  0  0  0  0
 11 12  1  0  0  0  0
 11 13  1  0  0  0  0
 11 45  1  0  0  0  0
 12 14  1  0  0  0  0
 12 46  1  0  0  0  0
 13 47  1  0  0  0  0
 14 48  1  0  0  0  0
 15 17  1  0  0  0  0
 15 49  1  0  0  0  0
 15 50  1  0  0  0  0
 16 18  1  0  0  0  0
 16 51  1  0  0  0  0
 16 52  1  0  0  0  0
 17 21  2  0  0  0  0
 17 22  1  0  0  0  0
 18 23  2  0  0  0  0
 18 24  1  0  0  0  0
 19 27  2  0  0  0  0
 19 28  1  0  0  0  0
 20 29  2  0  0  0  0
 20 30  1  0  0  0  0
 21 25  1  0  0  0  0
 21 55  1  0  0  0  0
 22 26  2  0  0  0  0
 22 56  1  0  0  0  0
 23 32  1  0  0  0  0
 23 57  1  0  0  0  0
 24 33  2  0  0  0  0
 24 58  1  0  0  0  0
 25 31  2  0  0  0  0
 25 59  1  0  0  0  0
 26 31  1  0  0  0  0
 26 60  1  0  0  0  0
 27 35  1  0  0  0  0
 27 61  1  0  0  0  0
 28 36  2  0  0  0  0
 28 62  1  0  0  0  0
 29 37  1  0  0  0  0
 29 63  1  0  0  0  0
 30 38  2  0  0  0  0
 30 64  1  0  0  0  0
 31 39  1  0  0  0  0
 32 34  2  0  0  0  0
 32 65  1  0  0  0  0
 33 34  1  0  0  0  0
 33 66  1  0  0  0  0
 34 67  1  0  0  0  0
 35 40  2  0  0  0  0
 35 68  1  0  0  0  0
 36 40  1  0  0  0  0
 36 69  1  0  0  0  0
 37 41  2  0  0  0  0
 37 70  1  0  0  0  0
 38 41  1  0  0  0  0
 38 71  1  0  0  0  0
 39 42  2  0  0  0  0
 40 72  1  0  0  0  0
 41 73  1  0  0  0  0
 42 43  1  0  0  0  0
 42 74  1  0  0  0  0
 43 44  2  0  0  0  0
 43 75  1  0  0  0  0
 44 76  1  0  0  0  0
M  END
> <PUBCHEM_COMPOUND_CID>
501458
> <PUBCHEM_COMPOUND_CANONICALIZED>
1
> <PUBCHEM_CACTVS_COMPLEXITY>
971
> <PUBCHEM_CACTVS_HBOND_ACCEPTOR>
9
> <PUBCHEM_CACTVS_HBOND_DONOR>
2
> <PUBCHEM_CACTVS_ROTATABLE_BOND>
9
> <PUBCHEM_CACTVS_SUBSKEYS>
AAADcfB/OABgAAAAAAAAAAAAAAAAASAAAAAwYMGABYAAAAAB1AAAHgQASAAADBTl2AawB4IABgiEAiBCADCDCIAgKBBIiBgODIgPNiKksRuOeCjnwBG7qAfwwMAOQAAAAAAAAACAAAAAAAAAAAAAAAAAAA==
> <PUBCHEM_IUPAC_OPENEYE_NAME>
(3R,4R,5R,6R)-2-benzyl-1,1-dioxo-3,6-diphenoxy-7-[[4-(2-thienyl)phenyl]methyl]-1,2,7-thiadiazepane-4,5-diol
> <PUBCHEM_IUPAC_CAS_NAME>
(3R,4R,5R,6R)-1,1-dioxo-3,6-diphenoxy-2-(phenylmethyl)-7-[(4-thiophen-2-ylphenyl)methyl]-1,2,7-thiadiazepane-4,5-diol
> <PUBCHEM_IUPAC_NAME_MARKUP>
(3<I>R</I>,4<I>R</I>,5<I>R</I>,6<I>R</I>)-2-benzyl-1,1-dioxo-3,6-diphenoxy-7-[(4-thiophen-2-ylphenyl)methyl]-1,2,7-thiadiazepane-4,5-diol
> <PUBCHEM_IUPAC_NAME>
(3R,4R,5R,6R)-2-benzyl-1,1-dioxo-3,6-diphenoxy-7-[(4-thiophen-2-ylphenyl)methyl]-1,2,7-thiadiazepane-4,5-diol
> <PUBCHEM_IUPAC_SYSTEMATIC_NAME>
(3R,4R,5R,6R)-1,1-bis(oxidanylidene)-3,6-diphenoxy-2-(phenylmethyl)-7-[(4-thiophen-2-ylphenyl)methyl]-1,2,7-thiadiazepane-4,5-diol
> <PUBCHEM_IUPAC_TRADITIONAL_NAME>
(3R,4R,5R,6R)-2-benzyl-1,1-diketo-3,6-diphenoxy-7-[4-(2-thienyl)benzyl]-1,2,7-thiadiazepane-4,5-diol
> <PUBCHEM_IUPAC_INCHI>
InChI=1S/C34H32N2O6S2/c37-31-32(38)34(42-29-15-8-3-9-16-29)36(24-26-18-20-27(21-19-26)30-17-10-22-43-30)44(39,40)35(23-25-11-4-1-5-12-25)33(31)41-28-13-6-2-7-14-28/h1-22,31-34,37-38H,23-24H2/t31-,32-,33-,34-/m1/s1
> <PUBCHEM_IUPAC_INCHIKEY>
UIPHMZBAPNDHBO-YFRBGRBWSA-N
> <PUBCHEM_XLOGP3_AA>
6
> <PUBCHEM_EXACT_MASS>
628.17017909
> <PUBCHEM_MOLECULAR_FORMULA>
C34H32N2O6S2
> <PUBCHEM_MOLECULAR_WEIGHT>
628.8
> <PUBCHEM_OPENEYE_CAN_SMILES>
C1=CC=C(C=C1)CN2C(C(C(C(N(S2(=O)=O)CC3=CC=C(C=C3)C4=CC=CS4)OC5=CC=CC=C5)O)O)OC6=CC=CC=C6
> <PUBCHEM_OPENEYE_ISO_SMILES>
C1=CC=C(C=C1)CN2[C@@H]([C@@H]([C@H]([C@H](N(S2(=O)=O)CC3=CC=C(C=C3)C4=CC=CS4)OC5=CC=CC=C5)O)O)OC6=CC=CC=C6
> <PUBCHEM_CACTVS_TPSA>
136
> <PUBCHEM_MONOISOTOPIC_WEIGHT>
628.17017909
> <PUBCHEM_TOTAL_CHARGE>
0
> <PUBCHEM_HEAVY_ATOM_COUNT>
44
> <PUBCHEM_ATOM_DEF_STEREO_COUNT>
4
> <PUBCHEM_ATOM_UDEF_STEREO_COUNT>
0
> <PUBCHEM_BOND_DEF_STEREO_COUNT>
0
> <PUBCHEM_BOND_UDEF_STEREO_COUNT>
0
> <PUBCHEM_ISOTOPIC_ATOM_COUNT>
0
> <PUBCHEM_COMPONENT_COUNT>
1
> <PUBCHEM_CACTVS_TAUTO_COUNT>
-1
> <PUBCHEM_COORDINATE_TYPE>
1
5
255
> <PUBCHEM_BONDANNOTATIONS>
17  21  8
17  22  8
18  23  8
18  24  8
19  27  8
19  28  8
2  39  8
2  44  8
20  29  8
20  30  8
21  25  8
22  26  8
23  32  8
24  33  8
25  31  8
26  31  8
27  35  8
28  36  8
29  37  8
13  3  6
30  38  8
32  34  8
33  34  8
35  40  8
36  40  8
37  41  8
38  41  8
39  42  8
14  4  5
42  43  8
43  44  8
11  5  6
12  6  5
$$$$
