501452
  -OEChem-10302200282D
 99105  0     1  0  0  0  0  0999 V2000
    7.2788   -0.2683    0.0000 O   0  0  0  0  0  0  0  0  0  0  0  0
    8.3298   -0.9973    0.0000 O   0  0  0  0  0  0  0  0  0  0  0  0
   10.6523   -3.7551    0.0000 O   0  0  0  0  0  0  0  0  0  0  0  0
   11.6685   -4.5221    0.0000 O   0  0  0  0  0  0  0  0  0  0  0  0
    8.5388    0.9918    0.0000 N   0  0  0  0  0  0  0  0  0  0  0  0
    5.0000    1.4918    0.0000 N   0  0  0  0  0  0  0  0  0  0  0  0
   11.6704   -2.3539    0.0000 N   0  0  0  0  0  0  0  0  0  0  0  0
    7.0000    1.4918    0.0000 C   0  0  0  0  0  0  0  0  0  0  0  0
    7.5878    2.3008    0.0000 C   0  0  0  0  0  0  0  0  0  0  0  0
    8.5388    1.9918    0.0000 C   0  0  2  0  0  0  0  0  0  0  0  0
    6.5000    0.6258    0.0000 C   0  0  0  0  0  0  0  0  0  0  0  0
    6.5000    2.3578    0.0000 C   0  0  0  0  0  0  0  0  0  0  0  0
    7.5878    0.6828    0.0000 C   0  0  0  0  0  0  0  0  0  0  0  0
    5.5000    0.6258    0.0000 C   0  0  0  0  0  0  0  0  0  0  0  0
    5.5000    2.3578    0.0000 C   0  0  0  0  0  0  0  0  0  0  0  0
    9.3479    2.5796    0.0000 C   0  0  0  0  0  0  0  0  0  0  0  0
    9.3479    0.4040    0.0000 C   0  0  0  0  0  0  0  0  0  0  0  0
    9.2433   -0.5905    0.0000 C   0  0  2  0  0  0  0  0  0  0  0  0
    4.0000    1.4918    0.0000 C   0  0  0  0  0  0  0  0  0  0  0  0
    9.2433    3.5741    0.0000 C   0  0  0  0  0  0  0  0  0  0  0  0
   10.0523   -1.1783    0.0000 C   0  0  0  0  0  0  0  0  0  0  0  0
    9.9478   -2.1728    0.0000 C   0  0  2  0  0  0  0  0  0  0  0  0
    3.5000    0.6258    0.0000 C   0  0  0  0  0  0  0  0  0  0  0  0
    8.3298    3.9808    0.0000 C   0  0  0  0  0  0  0  0  0  0  0  0
   10.0523    4.1619    0.0000 C   0  0  0  0  0  0  0  0  0  0  0  0
    9.0343   -2.5796    0.0000 C   0  0  0  0  0  0  0  0  0  0  0  0
   10.7568   -2.7606    0.0000 C   0  0  0  0  0  0  0  0  0  0  0  0
    2.5000    0.6258    0.0000 C   0  0  0  0  0  0  0  0  0  0  0  0
    4.0000   -0.2403    0.0000 C   0  0  0  0  0  0  0  0  0  0  0  0
    8.2253    4.9754    0.0000 C   0  0  0  0  0  0  0  0  0  0  0  0
    9.9478    5.1564    0.0000 C   0  0  0  0  0  0  0  0  0  0  0  0
   12.4794   -2.9417    0.0000 C   0  0  2  0  0  0  0  0  0  0  0  0
   12.4785   -3.9357    0.0000 C   0  0  1  0  0  0  0  0  0  0  0  0
    9.0343    5.5631    0.0000 C   0  0  0  0  0  0  0  0  0  0  0  0
    8.9297   -3.5741    0.0000 C   0  0  0  0  0  0  0  0  0  0  0  0
   13.4246   -2.6337    0.0000 C   0  0  0  0  0  0  0  0  0  0  0  0
   13.4232   -4.2454    0.0000 C   0  0  0  0  0  0  0  0  0  0  0  0
    2.0000   -0.2403    0.0000 C   0  0  0  0  0  0  0  0  0  0  0  0
    3.5000   -1.1063    0.0000 C   0  0  0  0  0  0  0  0  0  0  0  0
   14.0109   -3.4437    0.0000 C   0  0  0  0  0  0  0  0  0  0  0  0
    2.5000   -1.1063    0.0000 C   0  0  0  0  0  0  0  0  0  0  0  0
   13.8329   -1.7208    0.0000 C   0  0  0  0  0  0  0  0  0  0  0  0
    9.7388   -4.1619    0.0000 C   0  0  0  0  0  0  0  0  0  0  0  0
    8.0162   -3.9808    0.0000 C   0  0  0  0  0  0  0  0  0  0  0  0
   15.0056   -3.3409    0.0000 C   0  0  0  0  0  0  0  0  0  0  0  0
   14.8276   -1.6180    0.0000 C   0  0  0  0  0  0  0  0  0  0  0  0
   15.4140   -2.4280    0.0000 C   0  0  0  0  0  0  0  0  0  0  0  0
    9.6342   -5.1564    0.0000 C   0  0  0  0  0  0  0  0  0  0  0  0
    7.9117   -4.9754    0.0000 C   0  0  0  0  0  0  0  0  0  0  0  0
    8.7207   -5.5631    0.0000 C   0  0  0  0  0  0  0  0  0  0  0  0
    7.8400    2.8672    0.0000 H   0  0  0  0  0  0  0  0  0  0  0  0
    7.0508    2.6108    0.0000 H   0  0  0  0  0  0  0  0  0  0  0  0
    9.0913    1.7103    0.0000 H   0  0  0  0  0  0  0  0  0  0  0  0
    6.3923    0.0152    0.0000 H   0  0  0  0  0  0  0  0  0  0  0  0
    7.0826    0.4137    0.0000 H   0  0  0  0  0  0  0  0  0  0  0  0
    7.0826    2.5699    0.0000 H   0  0  0  0  0  0  0  0  0  0  0  0
    6.3923    2.9684    0.0000 H   0  0  0  0  0  0  0  0  0  0  0  0
    4.9174    0.4137    0.0000 H   0  0  0  0  0  0  0  0  0  0  0  0
    5.6077    0.0152    0.0000 H   0  0  0  0  0  0  0  0  0  0  0  0
    5.6077    2.9684    0.0000 H   0  0  0  0  0  0  0  0  0  0  0  0
    4.9174    2.5699    0.0000 H   0  0  0  0  0  0  0  0  0  0  0  0
    9.6196    2.0223    0.0000 H   0  0  0  0  0  0  0  0  0  0  0  0
    9.9438    2.7505    0.0000 H   0  0  0  0  0  0  0  0  0  0  0  0
    9.9438    0.2331    0.0000 H   0  0  0  0  0  0  0  0  0  0  0  0
    9.6196    0.9612    0.0000 H   0  0  0  0  0  0  0  0  0  0  0  0
    9.1785   -1.2071    0.0000 H   0  0  0  0  0  0  0  0  0  0  0  0
    4.1077    2.1024    0.0000 H   0  0  0  0  0  0  0  0  0  0  0  0
    3.4174    1.7038    0.0000 H   0  0  0  0  0  0  0  0  0  0  0  0
   10.6483   -1.3492    0.0000 H   0  0  0  0  0  0  0  0  0  0  0  0
   10.3241   -0.6211    0.0000 H   0  0  0  0  0  0  0  0  0  0  0  0
   10.5142   -1.9206    0.0000 H   0  0  0  0  0  0  0  0  0  0  0  0
    7.8282    3.6164    0.0000 H   0  0  0  0  0  0  0  0  0  0  0  0
   10.6187    3.9097    0.0000 H   0  0  0  0  0  0  0  0  0  0  0  0
    8.2650   -1.6139    0.0000 H   0  0  0  0  0  0  0  0  0  0  0  0
    8.8843   -1.9780    0.0000 H   0  0  0  0  0  0  0  0  0  0  0  0
    8.4158   -2.6228    0.0000 H   0  0  0  0  0  0  0  0  0  0  0  0
    2.1900    1.1627    0.0000 H   0  0  0  0  0  0  0  0  0  0  0  0
    4.6200   -0.2403    0.0000 H   0  0  0  0  0  0  0  0  0  0  0  0
   12.5761   -2.3293    0.0000 H   0  0  0  0  0  0  0  0  0  0  0  0
    7.6589    5.2275    0.0000 H   0  0  0  0  0  0  0  0  0  0  0  0
   10.4494    5.5208    0.0000 H   0  0  0  0  0  0  0  0  0  0  0  0
   11.7352   -1.7373    0.0000 H   0  0  0  0  0  0  0  0  0  0  0  0
   11.9265   -3.6536    0.0000 H   0  0  0  0  0  0  0  0  0  0  0  0
    8.9695    6.1797    0.0000 H   0  0  0  0  0  0  0  0  0  0  0  0
   13.1692   -4.8110    0.0000 H   0  0  0  0  0  0  0  0  0  0  0  0
   13.9589   -4.5574    0.0000 H   0  0  0  0  0  0  0  0  0  0  0  0
    1.3800   -0.2403    0.0000 H   0  0  0  0  0  0  0  0  0  0  0  0
    3.8100   -1.6432    0.0000 H   0  0  0  0  0  0  0  0  0  0  0  0
    2.1900   -1.6432    0.0000 H   0  0  0  0  0  0  0  0  0  0  0  0
   13.4693   -1.2186    0.0000 H   0  0  0  0  0  0  0  0  0  0  0  0
   10.3052   -3.9097    0.0000 H   0  0  0  0  0  0  0  0  0  0  0  0
    7.5146   -3.6164    0.0000 H   0  0  0  0  0  0  0  0  0  0  0  0
   15.3692   -3.8431    0.0000 H   0  0  0  0  0  0  0  0  0  0  0  0
   11.7322   -5.1388    0.0000 H   0  0  0  0  0  0  0  0  0  0  0  0
   15.0807   -1.0520    0.0000 H   0  0  0  0  0  0  0  0  0  0  0  0
   16.0307   -2.3643    0.0000 H   0  0  0  0  0  0  0  0  0  0  0  0
   10.1358   -5.5208    0.0000 H   0  0  0  0  0  0  0  0  0  0  0  0
    7.3453   -5.2275    0.0000 H   0  0  0  0  0  0  0  0  0  0  0  0
    8.6559   -6.1797    0.0000 H   0  0  0  0  0  0  0  0  0  0  0  0
  1 13  2  0  0  0  0
 18  2  1  6  0  0  0
  2 74  1  0  0  0  0
  3 27  2  0  0  0  0
 33  4  1  1  0  0  0
  4 94  1  0  0  0  0
  5 10  1  0  0  0  0
  5 13  1  0  0  0  0
  5 17  1  0  0  0  0
  6 14  1  0  0  0  0
  6 15  1  0  0  0  0
  6 19  1  0  0  0  0
  7 27  1  0  0  0  0
 32  7  1  1  0  0  0
  7 82  1  0  0  0  0
  8  9  1  0  0  0  0
  8 11  1  0  0  0  0
  8 12  1  0  0  0  0
  8 13  1  0  0  0  0
  9 10  1  0  0  0  0
  9 51  1  0  0  0  0
  9 52  1  0  0  0  0
 10 16  1  6  0  0  0
 10 53  1  0  0  0  0
 11 14  1  0  0  0  0
 11 54  1  0  0  0  0
 11 55  1  0  0  0  0
 12 15  1  0  0  0  0
 12 56  1  0  0  0  0
 12 57  1  0  0  0  0
 14 58  1  0  0  0  0
 14 59  1  0  0  0  0
 15 60  1  0  0  0  0
 15 61  1  0  0  0  0
 16 20  1  0  0  0  0
 16 62  1  0  0  0  0
 16 63  1  0  0  0  0
 17 18  1  0  0  0  0
 17 64  1  0  0  0  0
 17 65  1  0  0  0  0
 18 21  1  0  0  0  0
 18 66  1  0  0  0  0
 19 23  1  0  0  0  0
 19 67  1  0  0  0  0
 19 68  1  0  0  0  0
 20 24  2  0  0  0  0
 20 25  1  0  0  0  0
 22 21  1  1  0  0  0
 21 69  1  0  0  0  0
 21 70  1  0  0  0  0
 22 26  1  0  0  0  0
 22 27  1  0  0  0  0
 22 71  1  0  0  0  0
 23 28  2  0  0  0  0
 23 29  1  0  0  0  0
 24 30  1  0  0  0  0
 24 72  1  0  0  0  0
 25 31  2  0  0  0  0
 25 73  1  0  0  0  0
 26 35  1  0  0  0  0
 26 75  1  0  0  0  0
 26 76  1  0  0  0  0
 28 38  1  0  0  0  0
 28 77  1  0  0  0  0
 29 39  2  0  0  0  0
 29 78  1  0  0  0  0
 30 34  2  0  0  0  0
 30 80  1  0  0  0  0
 31 34  1  0  0  0  0
 31 81  1  0  0  0  0
 32 33  1  0  0  0  0
 32 36  1  0  0  0  0
 32 79  1  0  0  0  0
 33 37  1  0  0  0  0
 33 83  1  0  0  0  0
 34 84  1  0  0  0  0
 35 43  2  0  0  0  0
 35 44  1  0  0  0  0
 36 40  1  0  0  0  0
 36 42  2  0  0  0  0
 37 40  1  0  0  0  0
 37 85  1  0  0  0  0
 37 86  1  0  0  0  0
 38 41  2  0  0  0  0
 38 87  1  0  0  0  0
 39 41  1  0  0  0  0
 39 88  1  0  0  0  0
 40 45  2  0  0  0  0
 41 89  1  0  0  0  0
 42 46  1  0  0  0  0
 42 90  1  0  0  0  0
 43 48  1  0  0  0  0
 43 91  1  0  0  0  0
 44 49  2  0  0  0  0
 44 92  1  0  0  0  0
 45 47  1  0  0  0  0
 45 93  1  0  0  0  0
 46 47  2  0  0  0  0
 46 95  1  0  0  0  0
 47 96  1  0  0  0  0
 48 50  2  0  0  0  0
 48 97  1  0  0  0  0
 49 50  1  0  0  0  0
 49 98  1  0  0  0  0
 50 99  1  0  0  0  0
M  END
> <PUBCHEM_COMPOUND_CID>
501452
> <PUBCHEM_COMPOUND_CANONICALIZED>
1
> <PUBCHEM_CACTVS_COMPLEXITY>
1090
> <PUBCHEM_CACTVS_HBOND_ACCEPTOR>
5
> <PUBCHEM_CACTVS_HBOND_DONOR>
3
> <PUBCHEM_CACTVS_ROTATABLE_BOND>
12
> <PUBCHEM_CACTVS_SUBSKEYS>
AAADcfB/OAAAAAAAAAAAAAAAAAAAAeIAAAA8YMGCAAAAAGABVAAAHgAQCAAADzzhmAYwAIPAAgCIAiFSEACCAAAgAAAIiIEIBIgKMDKAkRGEYAhk1gGYiAe+2fKPgAAAAAAQAAAAAAAAACAAAKAACQgAAA==
> <PUBCHEM_IUPAC_OPENEYE_NAME>
(2S,4S)-2-benzyl-5-[(3S)-3,8-dibenzyl-1-oxo-2,8-diazaspiro[4.5]decan-2-yl]-4-hydroxy-N-[(1S,2R)-2-hydroxyindan-1-yl]pentanamide
> <PUBCHEM_IUPAC_CAS_NAME>
(2S,4S)-4-hydroxy-N-[(1S,2R)-2-hydroxy-2,3-dihydro-1H-inden-1-yl]-5-[(3S)-1-oxo-3,8-bis(phenylmethyl)-2,8-diazaspiro[4.5]decan-2-yl]-2-(phenylmethyl)pentanamide
> <PUBCHEM_IUPAC_NAME_MARKUP>
(2<I>S</I>,4<I>S</I>)-2-benzyl-5-[(3<I>S</I>)-3,8-dibenzyl-1-oxo-2,8-diazaspiro[4.5]decan-2-yl]-4-hydroxy-<I>N</I>-[(1<I>S</I>,2<I>R</I>)-2-hydroxy-2,3-dihydro-1<I>H</I>-inden-1-yl]pentanamide
> <PUBCHEM_IUPAC_NAME>
(2S,4S)-2-benzyl-5-[(3S)-3,8-dibenzyl-1-oxo-2,8-diazaspiro[4.5]decan-2-yl]-4-hydroxy-N-[(1S,2R)-2-hydroxy-2,3-dihydro-1H-inden-1-yl]pentanamide
> <PUBCHEM_IUPAC_SYSTEMATIC_NAME>
(2S,4S)-4-oxidanyl-N-[(1S,2R)-2-oxidanyl-2,3-dihydro-1H-inden-1-yl]-5-[(3S)-1-oxidanylidene-3,8-bis(phenylmethyl)-2,8-diazaspiro[4.5]decan-2-yl]-2-(phenylmethyl)pentanamide
> <PUBCHEM_IUPAC_TRADITIONAL_NAME>
(2S,4S)-2-benzyl-5-[(3S)-3,8-dibenzyl-1-keto-2,8-diazaspiro[4.5]decan-2-yl]-4-hydroxy-N-[(1S,2R)-2-hydroxyindan-1-yl]valeramide
> <PUBCHEM_IUPAC_INCHI>
InChI=1S/C43H49N3O4/c47-37(26-35(24-31-12-4-1-5-13-31)41(49)44-40-38-19-11-10-18-34(38)27-39(40)48)30-46-36(25-32-14-6-2-7-15-32)28-43(42(46)50)20-22-45(23-21-43)29-33-16-8-3-9-17-33/h1-19,35-37,39-40,47-48H,20-30H2,(H,44,49)/t35-,36-,37-,39+,40-/m0/s1
> <PUBCHEM_IUPAC_INCHIKEY>
JQIJNYFNVGXAFQ-QEOQYWHLSA-N
> <PUBCHEM_XLOGP3_AA>
5.6
> <PUBCHEM_EXACT_MASS>
671.37230705
> <PUBCHEM_MOLECULAR_FORMULA>
C43H49N3O4
> <PUBCHEM_MOLECULAR_WEIGHT>
671.9
> <PUBCHEM_OPENEYE_CAN_SMILES>
C1CN(CCC12CC(N(C2=O)CC(CC(CC3=CC=CC=C3)C(=O)NC4C(CC5=CC=CC=C45)O)O)CC6=CC=CC=C6)CC7=CC=CC=C7
> <PUBCHEM_OPENEYE_ISO_SMILES>
C1CN(CCC12C[C@@H](N(C2=O)C[C@H](C[C@H](CC3=CC=CC=C3)C(=O)N[C@@H]4[C@@H](CC5=CC=CC=C45)O)O)CC6=CC=CC=C6)CC7=CC=CC=C7
> <PUBCHEM_CACTVS_TPSA>
93.1
> <PUBCHEM_MONOISOTOPIC_WEIGHT>
671.37230705
> <PUBCHEM_TOTAL_CHARGE>
0
> <PUBCHEM_HEAVY_ATOM_COUNT>
50
> <PUBCHEM_ATOM_DEF_STEREO_COUNT>
5
> <PUBCHEM_ATOM_UDEF_STEREO_COUNT>
0
> <PUBCHEM_BOND_DEF_STEREO_COUNT>
0
> <PUBCHEM_BOND_UDEF_STEREO_COUNT>
0
> <PUBCHEM_ISOTOPIC_ATOM_COUNT>
0
> <PUBCHEM_COMPONENT_COUNT>
1
> <PUBCHEM_CACTVS_TAUTO_COUNT>
-1
> <PUBCHEM_COORDINATE_TYPE>
1
5
255
> <PUBCHEM_BONDANNOTATIONS>
10  16  6
18  2  6
20  24  8
20  25  8
22  21  5
23  28  8
23  29  8
24  30  8
25  31  8
28  38  8
29  39  8
30  34  8
31  34  8
35  43  8
35  44  8
36  40  8
36  42  8
38  41  8
39  41  8
33  4  5
40  45  8
42  46  8
43  48  8
44  49  8
45  47  8
46  47  8
48  50  8
49  50  8
32  7  5
$$$$
