501428
  -OEChem-10302200282D
 28 30  0     1  0  0  0  0  0999 V2000
    5.9405    0.7140    0.0000 S   0  0  0  0  0  0  0  0  0  0  0  0
    3.4026    1.2184    0.0000 F   0  0  0  0  0  0  0  0  0  0  0  0
    6.6495    3.2951    0.0000 O   0  0  0  0  0  0  0  0  0  0  0  0
    4.6783   -0.5439    0.0000 N   0  0  0  0  0  0  0  0  0  0  0  0
    4.6783   -2.1534    0.0000 N   0  0  0  0  0  0  0  0  0  0  0  0
    2.8660   -0.3486    0.0000 N   0  0  0  0  0  0  0  0  0  0  0  0
    2.0000   -1.8486    0.0000 N   0  0  0  0  0  0  0  0  0  0  0  0
    2.8660   -3.3486    0.0000 N   0  0  0  0  0  0  0  0  0  0  0  0
    4.9889    0.4066    0.0000 C   0  0  2  0  0  0  0  0  0  0  0  0
    5.9422    1.7140    0.0000 C   0  0  2  0  0  0  0  0  0  0  0  0
    4.4026    1.2166    0.0000 C   0  0  0  0  0  0  0  0  0  0  0  0
    4.9917    2.0246    0.0000 C   0  0  0  0  0  0  0  0  0  0  0  0
    3.7320   -0.8486    0.0000 C   0  0  0  0  0  0  0  0  0  0  0  0
    6.7523    2.3004    0.0000 C   0  0  0  0  0  0  0  0  0  0  0  0
    5.2619   -1.3486    0.0000 C   0  0  0  0  0  0  0  0  0  0  0  0
    3.7320   -1.8486    0.0000 C   0  0  0  0  0  0  0  0  0  0  0  0
    2.8660   -2.3486    0.0000 C   0  0  0  0  0  0  0  0  0  0  0  0
    2.0000   -0.8486    0.0000 C   0  0  0  0  0  0  0  0  0  0  0  0
    5.4266   -0.0325    0.0000 H   0  0  0  0  0  0  0  0  0  0  0  0
    6.4942    1.4316    0.0000 H   0  0  0  0  0  0  0  0  0  0  0  0
    4.8012    2.6146    0.0000 H   0  0  0  0  0  0  0  0  0  0  0  0
    7.0231    1.7426    0.0000 H   0  0  0  0  0  0  0  0  0  0  0  0
    7.3486    2.4702    0.0000 H   0  0  0  0  0  0  0  0  0  0  0  0
    5.8819   -1.3486    0.0000 H   0  0  0  0  0  0  0  0  0  0  0  0
    1.4631   -0.5386    0.0000 H   0  0  0  0  0  0  0  0  0  0  0  0
    7.1517    3.6586    0.0000 H   0  0  0  0  0  0  0  0  0  0  0  0
    2.3291   -3.6586    0.0000 H   0  0  0  0  0  0  0  0  0  0  0  0
    3.4030   -3.6586    0.0000 H   0  0  0  0  0  0  0  0  0  0  0  0
  1  9  1  0  0  0  0
  1 10  1  0  0  0  0
  2 11  1  0  0  0  0
  3 14  1  0  0  0  0
  3 26  1  0  0  0  0
  9  4  1  6  0  0  0
  4 13  1  0  0  0  0
  4 15  1  0  0  0  0
  5 15  2  0  0  0  0
  5 16  1  0  0  0  0
  6 13  2  0  0  0  0
  6 18  1  0  0  0  0
  7 17  1  0  0  0  0
  7 18  2  0  0  0  0
  8 17  1  0  0  0  0
  8 27  1  0  0  0  0
  8 28  1  0  0  0  0
  9 11  1  0  0  0  0
  9 19  1  0  0  0  0
 10 12  1  0  0  0  0
 10 14  1  6  0  0  0
 10 20  1  0  0  0  0
 11 12  2  0  0  0  0
 12 21  1  0  0  0  0
 13 16  1  0  0  0  0
 14 22  1  0  0  0  0
 14 23  1  0  0  0  0
 15 24  1  0  0  0  0
 16 17  2  0  0  0  0
 18 25  1  0  0  0  0
M  END
> <PUBCHEM_COMPOUND_CID>
501428
> <PUBCHEM_COMPOUND_CANONICALIZED>
1
> <PUBCHEM_CACTVS_COMPLEXITY>
357
> <PUBCHEM_CACTVS_HBOND_ACCEPTOR>
7
> <PUBCHEM_CACTVS_HBOND_DONOR>
2
> <PUBCHEM_CACTVS_ROTATABLE_BOND>
2
> <PUBCHEM_CACTVS_SUBSKEYS>
AAADccBzoQBAAAAAAAAAAAAAAAAAAWIAAAAsAAAAAAAAAFgB+AAAHwQQCAAACAjl1waF8L9MEgigASZjZACAgC1xELABWCAoVBiAWABASUAURAgIQALoACIAAAAAAAAAAAAAAAAAAAAAAAAAAAAAAAAAAA==
> <PUBCHEM_IUPAC_OPENEYE_NAME>
[(2R,5S)-5-(6-aminopurin-9-yl)-4-fluoro-2,5-dihydrothiophen-2-yl]methanol
> <PUBCHEM_IUPAC_CAS_NAME>
[(2R,5S)-5-(6-aminopurin-9-yl)-4-fluoro-2,5-dihydrothiophen-2-yl]methanol
> <PUBCHEM_IUPAC_NAME_MARKUP>
[(2<I>R</I>,5<I>S</I>)-5-(6-aminopurin-9-yl)-4-fluoro-2,5-dihydrothiophen-2-yl]methanol
> <PUBCHEM_IUPAC_NAME>
[(2R,5S)-5-(6-aminopurin-9-yl)-4-fluoro-2,5-dihydrothiophen-2-yl]methanol
> <PUBCHEM_IUPAC_SYSTEMATIC_NAME>
[(2R,5S)-5-(6-aminopurin-9-yl)-4-fluoranyl-2,5-dihydrothiophen-2-yl]methanol
> <PUBCHEM_IUPAC_TRADITIONAL_NAME>
[(2R,5S)-5-adenin-9-yl-4-fluoro-2,5-dihydrothiophen-2-yl]methanol
> <PUBCHEM_IUPAC_INCHI>
InChI=1S/C10H10FN5OS/c11-6-1-5(2-17)18-10(6)16-4-15-7-8(12)13-3-14-9(7)16/h1,3-5,10,17H,2H2,(H2,12,13,14)/t5-,10+/m1/s1
> <PUBCHEM_IUPAC_INCHIKEY>
AUBCBKWXMZJHKU-FWOIEVBISA-N
> <PUBCHEM_XLOGP3_AA>
0
> <PUBCHEM_EXACT_MASS>
267.05900930
> <PUBCHEM_MOLECULAR_FORMULA>
C10H10FN5OS
> <PUBCHEM_MOLECULAR_WEIGHT>
267.29
> <PUBCHEM_OPENEYE_CAN_SMILES>
C1=C(C(SC1CO)N2C=NC3=C(N=CN=C32)N)F
> <PUBCHEM_OPENEYE_ISO_SMILES>
C1=C([C@H](S[C@H]1CO)N2C=NC3=C(N=CN=C32)N)F
> <PUBCHEM_CACTVS_TPSA>
115
> <PUBCHEM_MONOISOTOPIC_WEIGHT>
267.05900930
> <PUBCHEM_TOTAL_CHARGE>
0
> <PUBCHEM_HEAVY_ATOM_COUNT>
18
> <PUBCHEM_ATOM_DEF_STEREO_COUNT>
2
> <PUBCHEM_ATOM_UDEF_STEREO_COUNT>
0
> <PUBCHEM_BOND_DEF_STEREO_COUNT>
0
> <PUBCHEM_BOND_UDEF_STEREO_COUNT>
0
> <PUBCHEM_ISOTOPIC_ATOM_COUNT>
0
> <PUBCHEM_COMPONENT_COUNT>
1
> <PUBCHEM_CACTVS_TAUTO_COUNT>
-1
> <PUBCHEM_COORDINATE_TYPE>
1
5
255
> <PUBCHEM_BONDANNOTATIONS>
10  14  6
13  16  8
16  17  8
4  13  8
4  15  8
9  4  6
5  15  8
5  16  8
6  13  8
6  18  8
7  17  8
7  18  8
$$$$
