501456
  -OEChem-10302200282D
 66 69  0     1  0  0  0  0  0999 V2000
    6.4754   -1.7186    0.0000 S   0  0  0  0  0  0  0  0  0  0  0  0
    4.3770   -0.0873    0.0000 O   0  0  0  0  0  0  0  0  0  0  0  0
    8.5738   -0.0873    0.0000 O   0  0  0  0  0  0  0  0  0  0  0  0
    5.5415    1.3730    0.0000 O   0  0  0  0  0  0  0  0  0  0  0  0
    7.4093    1.3730    0.0000 O   0  0  0  0  0  0  0  0  0  0  0  0
    6.0415   -2.6196    0.0000 O   0  0  0  0  0  0  0  0  0  0  0  0
    6.9093   -2.6196    0.0000 O   0  0  0  0  0  0  0  0  0  0  0  0
    9.2381   -0.5540    0.0000 O   0  0  0  0  0  0  0  0  0  0  0  0
    5.5744   -1.2847    0.0000 N   0  0  3  0  0  0  0  0  0  0  0  0
    7.3764   -1.2847    0.0000 N   0  0  3  0  0  0  0  0  0  0  0  0
    9.8709   -2.1664    0.0000 N   0  0  0  0  0  0  0  0  0  0  0  0
    5.9754    0.4720    0.0000 C   0  0  2  0  0  0  0  0  0  0  0  0
    6.9754    0.4720    0.0000 C   0  0  2  0  0  0  0  0  0  0  0  0
    5.3519   -0.3098    0.0000 C   0  0  1  0  0  0  0  0  0  0  0  0
    7.5989   -0.3098    0.0000 C   0  0  1  0  0  0  0  0  0  0  0  0
    4.7926   -1.9082    0.0000 C   0  0  0  0  0  0  0  0  0  0  0  0
    8.1582   -1.9082    0.0000 C   0  0  0  0  0  0  0  0  0  0  0  0
    3.8618   -1.5429    0.0000 C   0  0  0  0  0  0  0  0  0  0  0  0
    9.0891   -1.5429    0.0000 C   0  0  0  0  0  0  0  0  0  0  0  0
    4.0822    0.8683    0.0000 C   0  0  0  0  0  0  0  0  0  0  0  0
    8.8686    0.8683    0.0000 C   0  0  0  0  0  0  0  0  0  0  0  0
    3.0799   -2.1664    0.0000 C   0  0  0  0  0  0  0  0  0  0  0  0
    3.7127   -0.5540    0.0000 C   0  0  0  0  0  0  0  0  0  0  0  0
    4.7624    1.6014    0.0000 C   0  0  0  0  0  0  0  0  0  0  0  0
    3.1073    1.0908    0.0000 C   0  0  0  0  0  0  0  0  0  0  0  0
    8.1884    1.6014    0.0000 C   0  0  0  0  0  0  0  0  0  0  0  0
    9.8435    1.0908    0.0000 C   0  0  0  0  0  0  0  0  0  0  0  0
    2.1490   -1.8010    0.0000 C   0  0  0  0  0  0  0  0  0  0  0  0
    2.7818   -0.1887    0.0000 C   0  0  0  0  0  0  0  0  0  0  0  0
    2.0000   -0.8122    0.0000 C   0  0  0  0  0  0  0  0  0  0  0  0
   10.8018   -1.8010    0.0000 C   0  0  0  0  0  0  0  0  0  0  0  0
    4.4677    2.5569    0.0000 C   0  0  0  0  0  0  0  0  0  0  0  0
    2.8126    2.0464    0.0000 C   0  0  0  0  0  0  0  0  0  0  0  0
    8.4832    2.5569    0.0000 C   0  0  0  0  0  0  0  0  0  0  0  0
   10.1383    2.0464    0.0000 C   0  0  0  0  0  0  0  0  0  0  0  0
    3.4927    2.7794    0.0000 C   0  0  0  0  0  0  0  0  0  0  0  0
    9.4581    2.7794    0.0000 C   0  0  0  0  0  0  0  0  0  0  0  0
    5.3593    0.5415    0.0000 H   0  0  0  0  0  0  0  0  0  0  0  0
    6.6456    0.9970    0.0000 H   0  0  0  0  0  0  0  0  0  0  0  0
    4.9135   -0.7482    0.0000 H   0  0  0  0  0  0  0  0  0  0  0  0
    7.8037    0.2754    0.0000 H   0  0  0  0  0  0  0  0  0  0  0  0
    4.4693   -2.4373    0.0000 H   0  0  0  0  0  0  0  0  0  0  0  0
    5.2575   -2.3185    0.0000 H   0  0  0  0  0  0  0  0  0  0  0  0
    7.6934   -2.3185    0.0000 H   0  0  0  0  0  0  0  0  0  0  0  0
    8.4815   -2.4373    0.0000 H   0  0  0  0  0  0  0  0  0  0  0  0
    5.8908    1.8853    0.0000 H   0  0  0  0  0  0  0  0  0  0  0  0
    7.0600    1.8853    0.0000 H   0  0  0  0  0  0  0  0  0  0  0  0
    3.1723   -2.7794    0.0000 H   0  0  0  0  0  0  0  0  0  0  0  0
    4.1974   -0.1675    0.0000 H   0  0  0  0  0  0  0  0  0  0  0  0
    9.7785   -2.7794    0.0000 H   0  0  0  0  0  0  0  0  0  0  0  0
    5.3669    1.4634    0.0000 H   0  0  0  0  0  0  0  0  0  0  0  0
    2.6856    0.6363    0.0000 H   0  0  0  0  0  0  0  0  0  0  0  0
    7.5840    1.4634    0.0000 H   0  0  0  0  0  0  0  0  0  0  0  0
   10.2652    0.6363    0.0000 H   0  0  0  0  0  0  0  0  0  0  0  0
    1.6643   -2.1876    0.0000 H   0  0  0  0  0  0  0  0  0  0  0  0
    2.6894    0.4244    0.0000 H   0  0  0  0  0  0  0  0  0  0  0  0
    1.4229   -0.5857    0.0000 H   0  0  0  0  0  0  0  0  0  0  0  0
   11.0283   -2.3782    0.0000 H   0  0  0  0  0  0  0  0  0  0  0  0
   11.3789   -1.5745    0.0000 H   0  0  0  0  0  0  0  0  0  0  0  0
   10.5753   -1.2239    0.0000 H   0  0  0  0  0  0  0  0  0  0  0  0
    4.8894    3.0114    0.0000 H   0  0  0  0  0  0  0  0  0  0  0  0
    2.2081    2.1843    0.0000 H   0  0  0  0  0  0  0  0  0  0  0  0
    8.0615    3.0114    0.0000 H   0  0  0  0  0  0  0  0  0  0  0  0
   10.7427    2.1843    0.0000 H   0  0  0  0  0  0  0  0  0  0  0  0
    3.3100    3.3719    0.0000 H   0  0  0  0  0  0  0  0  0  0  0  0
    9.6408    3.3719    0.0000 H   0  0  0  0  0  0  0  0  0  0  0  0
  1  6  2  0  0  0  0
  1  7  2  0  0  0  0
  1  9  1  0  0  0  0
  1 10  1  0  0  0  0
 14  2  1  6  0  0  0
  2 20  1  0  0  0  0
 15  3  1  1  0  0  0
  3 21  1  0  0  0  0
 12  4  1  6  0  0  0
  4 46  1  0  0  0  0
 13  5  1  1  0  0  0
  5 47  1  0  0  0  0
  8 19  2  0  0  0  0
  9 14  1  0  0  0  0
  9 16  1  0  0  0  0
 10 15  1  0  0  0  0
 10 17  1  0  0  0  0
 11 19  1  0  0  0  0
 11 31  1  0  0  0  0
 11 50  1  0  0  0  0
 12 13  1  0  0  0  0
 12 14  1  0  0  0  0
 12 38  1  0  0  0  0
 13 15  1  0  0  0  0
 13 39  1  0  0  0  0
 14 40  1  0  0  0  0
 15 41  1  0  0  0  0
 16 18  1  0  0  0  0
 16 42  1  0  0  0  0
 16 43  1  0  0  0  0
 17 19  1  0  0  0  0
 17 44  1  0  0  0  0
 17 45  1  0  0  0  0
 18 22  2  0  0  0  0
 18 23  1  0  0  0  0
 20 24  2  0  0  0  0
 20 25  1  0  0  0  0
 21 26  2  0  0  0  0
 21 27  1  0  0  0  0
 22 28  1  0  0  0  0
 22 48  1  0  0  0  0
 23 29  2  0  0  0  0
 23 49  1  0  0  0  0
 24 32  1  0  0  0  0
 24 51  1  0  0  0  0
 25 33  2  0  0  0  0
 25 52  1  0  0  0  0
 26 34  1  0  0  0  0
 26 53  1  0  0  0  0
 27 35  2  0  0  0  0
 27 54  1  0  0  0  0
 28 30  2  0  0  0  0
 28 55  1  0  0  0  0
 29 30  1  0  0  0  0
 29 56  1  0  0  0  0
 30 57  1  0  0  0  0
 31 58  1  0  0  0  0
 31 59  1  0  0  0  0
 31 60  1  0  0  0  0
 32 36  2  0  0  0  0
 32 61  1  0  0  0  0
 33 36  1  0  0  0  0
 33 62  1  0  0  0  0
 34 37  2  0  0  0  0
 34 63  1  0  0  0  0
 35 37  1  0  0  0  0
 35 64  1  0  0  0  0
 36 65  1  0  0  0  0
 37 66  1  0  0  0  0
M  END
> <PUBCHEM_COMPOUND_CID>
501456
> <PUBCHEM_COMPOUND_CANONICALIZED>
1
> <PUBCHEM_CACTVS_COMPLEXITY>
821
> <PUBCHEM_CACTVS_HBOND_ACCEPTOR>
9
> <PUBCHEM_CACTVS_HBOND_DONOR>
3
> <PUBCHEM_CACTVS_ROTATABLE_BOND>
8
> <PUBCHEM_CACTVS_SUBSKEYS>
AAADceB7OABAAAAAAAAAAAAAAAAAAAAAAAAwYMAABYAAAAABUAAAHgAQSAAADBThmAYyBoLABgCIAiFSEDCCCAAgIAAIiICODIgPdiKEsTueeCjn0hGbqAfwwAAOAAAAAAAAAAAAAAAAAAAAAAAAAAAAAA==
> <PUBCHEM_IUPAC_OPENEYE_NAME>
2-[(3R,4R,5R,6R)-7-benzyl-4,5-dihydroxy-1,1-dioxo-3,6-diphenoxy-1,2,7-thiadiazepan-2-yl]-N-methyl-acetamide
> <PUBCHEM_IUPAC_CAS_NAME>
2-[(3R,4R,5R,6R)-4,5-dihydroxy-1,1-dioxo-3,6-diphenoxy-7-(phenylmethyl)-1,2,7-thiadiazepan-2-yl]-N-methylacetamide
> <PUBCHEM_IUPAC_NAME_MARKUP>
2-[(3<I>R</I>,4<I>R</I>,5<I>R</I>,6<I>R</I>)-7-benzyl-4,5-dihydroxy-1,1-dioxo-3,6-diphenoxy-1,2,7-thiadiazepan-2-yl]-<I>N</I>-methylacetamide
> <PUBCHEM_IUPAC_NAME>
2-[(3R,4R,5R,6R)-7-benzyl-4,5-dihydroxy-1,1-dioxo-3,6-diphenoxy-1,2,7-thiadiazepan-2-yl]-N-methylacetamide
> <PUBCHEM_IUPAC_SYSTEMATIC_NAME>
2-[(3R,4R,5R,6R)-4,5-bis(oxidanyl)-1,1-bis(oxidanylidene)-3,6-diphenoxy-7-(phenylmethyl)-1,2,7-thiadiazepan-2-yl]-N-methyl-ethanamide
> <PUBCHEM_IUPAC_TRADITIONAL_NAME>
2-[(3R,4R,5R,6R)-7-benzyl-4,5-dihydroxy-1,1-diketo-3,6-diphenoxy-1,2,7-thiadiazepan-2-yl]-N-methyl-acetamide
> <PUBCHEM_IUPAC_INCHI>
InChI=1S/C26H29N3O7S/c1-27-22(30)18-29-26(36-21-15-9-4-10-16-21)24(32)23(31)25(35-20-13-7-3-8-14-20)28(37(29,33)34)17-19-11-5-2-6-12-19/h2-16,23-26,31-32H,17-18H2,1H3,(H,27,30)/t23-,24-,25-,26-/m1/s1
> <PUBCHEM_IUPAC_INCHIKEY>
XJHMTBSQYRDKDO-VEYUFSJPSA-N
> <PUBCHEM_XLOGP3_AA>
2.5
> <PUBCHEM_EXACT_MASS>
527.17262145
> <PUBCHEM_MOLECULAR_FORMULA>
C26H29N3O7S
> <PUBCHEM_MOLECULAR_WEIGHT>
527.6
> <PUBCHEM_OPENEYE_CAN_SMILES>
CNC(=O)CN1C(C(C(C(N(S1(=O)=O)CC2=CC=CC=C2)OC3=CC=CC=C3)O)O)OC4=CC=CC=C4
> <PUBCHEM_OPENEYE_ISO_SMILES>
CNC(=O)CN1[C@@H]([C@@H]([C@H]([C@H](N(S1(=O)=O)CC2=CC=CC=C2)OC3=CC=CC=C3)O)O)OC4=CC=CC=C4
> <PUBCHEM_CACTVS_TPSA>
137
> <PUBCHEM_MONOISOTOPIC_WEIGHT>
527.17262145
> <PUBCHEM_TOTAL_CHARGE>
0
> <PUBCHEM_HEAVY_ATOM_COUNT>
37
> <PUBCHEM_ATOM_DEF_STEREO_COUNT>
4
> <PUBCHEM_ATOM_UDEF_STEREO_COUNT>
0
> <PUBCHEM_BOND_DEF_STEREO_COUNT>
0
> <PUBCHEM_BOND_UDEF_STEREO_COUNT>
0
> <PUBCHEM_ISOTOPIC_ATOM_COUNT>
0
> <PUBCHEM_COMPONENT_COUNT>
1
> <PUBCHEM_CACTVS_TAUTO_COUNT>
-1
> <PUBCHEM_COORDINATE_TYPE>
1
5
255
> <PUBCHEM_BONDANNOTATIONS>
18  22  8
18  23  8
14  2  6
20  24  8
20  25  8
21  26  8
21  27  8
22  28  8
23  29  8
24  32  8
25  33  8
26  34  8
27  35  8
28  30  8
29  30  8
15  3  5
32  36  8
33  36  8
34  37  8
35  37  8
12  4  6
13  5  5
$$$$
