501460
  -OEChem-10302200282D
 69 73  0     1  0  0  0  0  0999 V2000
    6.1399   -3.5689    0.0000 I   0  0  0  0  0  0  0  0  0  0  0  0
    5.6629   -0.6710    0.0000 S   0  0  0  0  0  0  0  0  0  0  0  0
   10.8320   -1.2917    0.0000 S   0  0  0  0  0  0  0  0  0  0  0  0
    3.5644    0.9604    0.0000 O   0  0  0  0  0  0  0  0  0  0  0  0
    7.7613    0.9604    0.0000 O   0  0  0  0  0  0  0  0  0  0  0  0
    4.7290    2.4206    0.0000 O   0  0  0  0  0  0  0  0  0  0  0  0
    6.5967    2.4206    0.0000 O   0  0  0  0  0  0  0  0  0  0  0  0
    5.2290   -1.5720    0.0000 O   0  0  0  0  0  0  0  0  0  0  0  0
    6.0967   -1.5720    0.0000 O   0  0  0  0  0  0  0  0  0  0  0  0
    8.4256    0.4936    0.0000 O   0  0  0  0  0  0  0  0  0  0  0  0
    4.7619   -0.2371    0.0000 N   0  0  3  0  0  0  0  0  0  0  0  0
    6.5638   -0.2371    0.0000 N   0  0  3  0  0  0  0  0  0  0  0  0
    9.0584   -1.1187    0.0000 N   0  0  0  0  0  0  0  0  0  0  0  0
   10.2408    0.2144    0.0000 N   0  0  0  0  0  0  0  0  0  0  0  0
    5.1629    1.5197    0.0000 C   0  0  2  0  0  0  0  0  0  0  0  0
    6.1629    1.5197    0.0000 C   0  0  2  0  0  0  0  0  0  0  0  0
    4.5394    0.7378    0.0000 C   0  0  1  0  0  0  0  0  0  0  0  0
    6.7864    0.7378    0.0000 C   0  0  1  0  0  0  0  0  0  0  0  0
    3.9801   -0.8606    0.0000 C   0  0  0  0  0  0  0  0  0  0  0  0
    7.3457   -0.8606    0.0000 C   0  0  0  0  0  0  0  0  0  0  0  0
    4.1291   -1.8494    0.0000 C   0  0  0  0  0  0  0  0  0  0  0  0
    8.2765   -0.4952    0.0000 C   0  0  0  0  0  0  0  0  0  0  0  0
    3.2697    1.9159    0.0000 C   0  0  0  0  0  0  0  0  0  0  0  0
    8.0560    1.9159    0.0000 C   0  0  0  0  0  0  0  0  0  0  0  0
    5.0600   -2.2148    0.0000 C   0  0  0  0  0  0  0  0  0  0  0  0
    3.3473   -2.4729    0.0000 C   0  0  0  0  0  0  0  0  0  0  0  0
    2.2948    2.1385    0.0000 C   0  0  0  0  0  0  0  0  0  0  0  0
    3.9499    2.6490    0.0000 C   0  0  0  0  0  0  0  0  0  0  0  0
    7.3759    2.6490    0.0000 C   0  0  0  0  0  0  0  0  0  0  0  0
    9.0310    2.1385    0.0000 C   0  0  0  0  0  0  0  0  0  0  0  0
    5.2090   -3.2036    0.0000 C   0  0  0  0  0  0  0  0  0  0  0  0
    3.4963   -3.4617    0.0000 C   0  0  0  0  0  0  0  0  0  0  0  0
    4.4272   -3.8271    0.0000 C   0  0  0  0  0  0  0  0  0  0  0  0
    2.0000    3.0940    0.0000 C   0  0  0  0  0  0  0  0  0  0  0  0
    3.6551    3.6046    0.0000 C   0  0  0  0  0  0  0  0  0  0  0  0
    7.6706    3.6046    0.0000 C   0  0  0  0  0  0  0  0  0  0  0  0
    9.3257    3.0940    0.0000 C   0  0  0  0  0  0  0  0  0  0  0  0
    9.9892   -0.7534    0.0000 C   0  0  0  0  0  0  0  0  0  0  0  0
    2.6802    3.8271    0.0000 C   0  0  0  0  0  0  0  0  0  0  0  0
    8.6455    3.8271    0.0000 C   0  0  0  0  0  0  0  0  0  0  0  0
   11.6044   -0.6566    0.0000 C   0  0  0  0  0  0  0  0  0  0  0  0
   11.2390    0.2742    0.0000 C   0  0  0  0  0  0  0  0  0  0  0  0
    5.4927    2.0446    0.0000 H   0  0  0  0  0  0  0  0  0  0  0  0
    5.8330    2.0446    0.0000 H   0  0  0  0  0  0  0  0  0  0  0  0
    4.3346    1.3230    0.0000 H   0  0  0  0  0  0  0  0  0  0  0  0
    6.9911    1.3230    0.0000 H   0  0  0  0  0  0  0  0  0  0  0  0
    3.6835   -0.3161    0.0000 H   0  0  0  0  0  0  0  0  0  0  0  0
    3.3923   -1.0580    0.0000 H   0  0  0  0  0  0  0  0  0  0  0  0
    6.8808   -1.2708    0.0000 H   0  0  0  0  0  0  0  0  0  0  0  0
    7.6690   -1.3896    0.0000 H   0  0  0  0  0  0  0  0  0  0  0  0
    5.0782    2.9329    0.0000 H   0  0  0  0  0  0  0  0  0  0  0  0
    6.2475    2.9329    0.0000 H   0  0  0  0  0  0  0  0  0  0  0  0
    5.5447   -1.8282    0.0000 H   0  0  0  0  0  0  0  0  0  0  0  0
    2.7701   -2.2464    0.0000 H   0  0  0  0  0  0  0  0  0  0  0  0
    8.9660   -1.7318    0.0000 H   0  0  0  0  0  0  0  0  0  0  0  0
    1.8730    1.6840    0.0000 H   0  0  0  0  0  0  0  0  0  0  0  0
    4.5543    2.5110    0.0000 H   0  0  0  0  0  0  0  0  0  0  0  0
    6.7714    2.5110    0.0000 H   0  0  0  0  0  0  0  0  0  0  0  0
    9.4527    1.6840    0.0000 H   0  0  0  0  0  0  0  0  0  0  0  0
    3.0116   -3.8483    0.0000 H   0  0  0  0  0  0  0  0  0  0  0  0
    4.5196   -4.4402    0.0000 H   0  0  0  0  0  0  0  0  0  0  0  0
    1.3955    3.2320    0.0000 H   0  0  0  0  0  0  0  0  0  0  0  0
    4.0768    4.0590    0.0000 H   0  0  0  0  0  0  0  0  0  0  0  0
    7.2489    4.0590    0.0000 H   0  0  0  0  0  0  0  0  0  0  0  0
    9.9302    3.2320    0.0000 H   0  0  0  0  0  0  0  0  0  0  0  0
    2.4974    4.4195    0.0000 H   0  0  0  0  0  0  0  0  0  0  0  0
    8.8283    4.4195    0.0000 H   0  0  0  0  0  0  0  0  0  0  0  0
   12.2044   -0.8126    0.0000 H   0  0  0  0  0  0  0  0  0  0  0  0
   11.5728    0.7967    0.0000 H   0  0  0  0  0  0  0  0  0  0  0  0
  1 31  1  0  0  0  0
  2  8  2  0  0  0  0
  2  9  2  0  0  0  0
  2 11  1  0  0  0  0
  2 12  1  0  0  0  0
  3 38  1  0  0  0  0
  3 41  1  0  0  0  0
 17  4  1  6  0  0  0
  4 23  1  0  0  0  0
 18  5  1  1  0  0  0
  5 24  1  0  0  0  0
 15  6  1  6  0  0  0
  6 51  1  0  0  0  0
 16  7  1  1  0  0  0
  7 52  1  0  0  0  0
 10 22  2  0  0  0  0
 11 17  1  0  0  0  0
 11 19  1  0  0  0  0
 12 18  1  0  0  0  0
 12 20  1  0  0  0  0
 13 22  1  0  0  0  0
 13 38  1  0  0  0  0
 13 55  1  0  0  0  0
 14 38  2  0  0  0  0
 14 42  1  0  0  0  0
 15 16  1  0  0  0  0
 15 17  1  0  0  0  0
 15 43  1  0  0  0  0
 16 18  1  0  0  0  0
 16 44  1  0  0  0  0
 17 45  1  0  0  0  0
 18 46  1  0  0  0  0
 19 21  1  0  0  0  0
 19 47  1  0  0  0  0
 19 48  1  0  0  0  0
 20 22  1  0  0  0  0
 20 49  1  0  0  0  0
 20 50  1  0  0  0  0
 21 25  2  0  0  0  0
 21 26  1  0  0  0  0
 23 27  2  0  0  0  0
 23 28  1  0  0  0  0
 24 29  2  0  0  0  0
 24 30  1  0  0  0  0
 25 31  1  0  0  0  0
 25 53  1  0  0  0  0
 26 32  2  0  0  0  0
 26 54  1  0  0  0  0
 27 34  1  0  0  0  0
 27 56  1  0  0  0  0
 28 35  2  0  0  0  0
 28 57  1  0  0  0  0
 29 36  1  0  0  0  0
 29 58  1  0  0  0  0
 30 37  2  0  0  0  0
 30 59  1  0  0  0  0
 31 33  2  0  0  0  0
 32 33  1  0  0  0  0
 32 60  1  0  0  0  0
 33 61  1  0  0  0  0
 34 39  2  0  0  0  0
 34 62  1  0  0  0  0
 35 39  1  0  0  0  0
 35 63  1  0  0  0  0
 36 40  2  0  0  0  0
 36 64  1  0  0  0  0
 37 40  1  0  0  0  0
 37 65  1  0  0  0  0
 39 66  1  0  0  0  0
 40 67  1  0  0  0  0
 41 42  2  0  0  0  0
 41 68  1  0  0  0  0
 42 69  1  0  0  0  0
M  END
> <PUBCHEM_COMPOUND_CID>
501460
> <PUBCHEM_COMPOUND_CANONICALIZED>
1
> <PUBCHEM_CACTVS_COMPLEXITY>
980
> <PUBCHEM_CACTVS_HBOND_ACCEPTOR>
11
> <PUBCHEM_CACTVS_HBOND_DONOR>
3
> <PUBCHEM_CACTVS_ROTATABLE_BOND>
9
> <PUBCHEM_CACTVS_SUBSKEYS>
AAADceB7uABgAgAAAAAAAAAAAAAAAWAAAAAwYMAABYAAAAAB1AAAHgQwSAAADBTn2ga9l5LIFgisAjF3dDCC+KlxKjlJyAyeLIiPdiKEuTueeCjv0RObqCfwwAAOAAAAAAAAAAAAAAAAAAAAAAAAAAAAAA==
> <PUBCHEM_IUPAC_OPENEYE_NAME>
2-[(3R,4R,5R,6R)-4,5-dihydroxy-7-[(3-iodophenyl)methyl]-1,1-dioxo-3,6-diphenoxy-1,2,7-thiadiazepan-2-yl]-N-thiazol-2-yl-acetamide
> <PUBCHEM_IUPAC_CAS_NAME>
2-[(3R,4R,5R,6R)-4,5-dihydroxy-7-[(3-iodophenyl)methyl]-1,1-dioxo-3,6-diphenoxy-1,2,7-thiadiazepan-2-yl]-N-(2-thiazolyl)acetamide
> <PUBCHEM_IUPAC_NAME_MARKUP>
2-[(3<I>R</I>,4<I>R</I>,5<I>R</I>,6<I>R</I>)-4,5-dihydroxy-7-[(3-iodophenyl)methyl]-1,1-dioxo-3,6-diphenoxy-1,2,7-thiadiazepan-2-yl]-<I>N</I>-(1,3-thiazol-2-yl)acetamide
> <PUBCHEM_IUPAC_NAME>
2-[(3R,4R,5R,6R)-4,5-dihydroxy-7-[(3-iodophenyl)methyl]-1,1-dioxo-3,6-diphenoxy-1,2,7-thiadiazepan-2-yl]-N-(1,3-thiazol-2-yl)acetamide
> <PUBCHEM_IUPAC_SYSTEMATIC_NAME>
2-[(3R,4R,5R,6R)-7-[(3-iodanylphenyl)methyl]-4,5-bis(oxidanyl)-1,1-bis(oxidanylidene)-3,6-diphenoxy-1,2,7-thiadiazepan-2-yl]-N-(1,3-thiazol-2-yl)ethanamide
> <PUBCHEM_IUPAC_TRADITIONAL_NAME>
2-[(3R,4R,5R,6R)-4,5-dihydroxy-7-(3-iodobenzyl)-1,1-diketo-3,6-diphenoxy-1,2,7-thiadiazepan-2-yl]-N-thiazol-2-yl-acetamide
> <PUBCHEM_IUPAC_INCHI>
InChI=1S/C28H27IN4O7S2/c29-20-9-7-8-19(16-20)17-32-26(39-21-10-3-1-4-11-21)24(35)25(36)27(40-22-12-5-2-6-13-22)33(42(32,37)38)18-23(34)31-28-30-14-15-41-28/h1-16,24-27,35-36H,17-18H2,(H,30,31,34)/t24-,25-,26-,27-/m1/s1
> <PUBCHEM_IUPAC_INCHIKEY>
TXCPTVLFSFUQIM-FPCALVHFSA-N
> <PUBCHEM_XLOGP3_AA>
4
> <PUBCHEM_EXACT_MASS>
722.03659
> <PUBCHEM_MOLECULAR_FORMULA>
C28H27IN4O7S2
> <PUBCHEM_MOLECULAR_WEIGHT>
722.6
> <PUBCHEM_OPENEYE_CAN_SMILES>
C1=CC=C(C=C1)OC2C(C(C(N(S(=O)(=O)N2CC3=CC(=CC=C3)I)CC(=O)NC4=NC=CS4)OC5=CC=CC=C5)O)O
> <PUBCHEM_OPENEYE_ISO_SMILES>
C1=CC=C(C=C1)O[C@@H]2[C@@H]([C@H]([C@H](N(S(=O)(=O)N2CC3=CC(=CC=C3)I)CC(=O)NC4=NC=CS4)OC5=CC=CC=C5)O)O
> <PUBCHEM_CACTVS_TPSA>
178
> <PUBCHEM_MONOISOTOPIC_WEIGHT>
722.03659
> <PUBCHEM_TOTAL_CHARGE>
0
> <PUBCHEM_HEAVY_ATOM_COUNT>
42
> <PUBCHEM_ATOM_DEF_STEREO_COUNT>
4
> <PUBCHEM_ATOM_UDEF_STEREO_COUNT>
0
> <PUBCHEM_BOND_DEF_STEREO_COUNT>
0
> <PUBCHEM_BOND_UDEF_STEREO_COUNT>
0
> <PUBCHEM_ISOTOPIC_ATOM_COUNT>
0
> <PUBCHEM_COMPONENT_COUNT>
1
> <PUBCHEM_CACTVS_TAUTO_COUNT>
-1
> <PUBCHEM_COORDINATE_TYPE>
1
5
255
> <PUBCHEM_BONDANNOTATIONS>
14  38  8
14  42  8
21  25  8
21  26  8
23  27  8
23  28  8
24  29  8
24  30  8
25  31  8
26  32  8
27  34  8
28  35  8
29  36  8
3  38  8
3  41  8
30  37  8
31  33  8
32  33  8
34  39  8
35  39  8
36  40  8
37  40  8
17  4  6
41  42  8
18  5  5
15  6  6
16  7  5
$$$$
