501463
  -OEChem-10302200282D
 83 89  0     1  0  0  0  0  0999 V2000
    9.0214   -1.7985    0.0000 S   0  0  0  0  0  0  0  0  0  0  0  0
   14.6793    0.4411    0.0000 S   0  0  0  0  0  0  0  0  0  0  0  0
    3.3636    0.4411    0.0000 S   0  0  0  0  0  0  0  0  0  0  0  0
   11.1199   -0.1672    0.0000 O   0  0  0  0  0  0  0  0  0  0  0  0
    6.9230   -0.1672    0.0000 O   0  0  0  0  0  0  0  0  0  0  0  0
    9.9553    1.2931    0.0000 O   0  0  0  0  0  0  0  0  0  0  0  0
    8.0876    1.2931    0.0000 O   0  0  0  0  0  0  0  0  0  0  0  0
    8.5876   -2.6995    0.0000 O   0  0  0  0  0  0  0  0  0  0  0  0
    9.4553   -2.6995    0.0000 O   0  0  0  0  0  0  0  0  0  0  0  0
    9.9224   -1.3647    0.0000 N   0  0  3  0  0  0  0  0  0  0  0  0
    8.1205   -1.3647    0.0000 N   0  0  3  0  0  0  0  0  0  0  0  0
    9.5214    0.3921    0.0000 C   0  0  2  0  0  0  0  0  0  0  0  0
    8.5214    0.3921    0.0000 C   0  0  2  0  0  0  0  0  0  0  0  0
   10.1449   -0.3897    0.0000 C   0  0  1  0  0  0  0  0  0  0  0  0
    7.8979   -0.3897    0.0000 C   0  0  1  0  0  0  0  0  0  0  0  0
   10.7042   -1.9882    0.0000 C   0  0  0  0  0  0  0  0  0  0  0  0
    7.3386   -1.9882    0.0000 C   0  0  0  0  0  0  0  0  0  0  0  0
   11.6351   -1.6228    0.0000 C   0  0  0  0  0  0  0  0  0  0  0  0
    6.4078   -1.6228    0.0000 C   0  0  0  0  0  0  0  0  0  0  0  0
   11.4146    0.7884    0.0000 C   0  0  0  0  0  0  0  0  0  0  0  0
    6.6283    0.7884    0.0000 C   0  0  0  0  0  0  0  0  0  0  0  0
   11.7841   -0.6340    0.0000 C   0  0  0  0  0  0  0  0  0  0  0  0
   12.4169   -2.2463    0.0000 C   0  0  0  0  0  0  0  0  0  0  0  0
    6.2587   -0.6340    0.0000 C   0  0  0  0  0  0  0  0  0  0  0  0
    5.6259   -2.2463    0.0000 C   0  0  0  0  0  0  0  0  0  0  0  0
   10.7344    1.5214    0.0000 C   0  0  0  0  0  0  0  0  0  0  0  0
   12.3895    1.0109    0.0000 C   0  0  0  0  0  0  0  0  0  0  0  0
    5.6533    1.0109    0.0000 C   0  0  0  0  0  0  0  0  0  0  0  0
    7.3084    1.5214    0.0000 C   0  0  0  0  0  0  0  0  0  0  0  0
   12.7150   -0.2686    0.0000 C   0  0  0  0  0  0  0  0  0  0  0  0
   13.3478   -1.8810    0.0000 C   0  0  0  0  0  0  0  0  0  0  0  0
    5.3278   -0.2686    0.0000 C   0  0  0  0  0  0  0  0  0  0  0  0
    4.6950   -1.8810    0.0000 C   0  0  0  0  0  0  0  0  0  0  0  0
   13.4969   -0.8921    0.0000 C   0  0  0  0  0  0  0  0  0  0  0  0
    4.5460   -0.8921    0.0000 C   0  0  0  0  0  0  0  0  0  0  0  0
   11.0292    2.4770    0.0000 C   0  0  0  0  0  0  0  0  0  0  0  0
   12.6843    1.9665    0.0000 C   0  0  0  0  0  0  0  0  0  0  0  0
    5.3586    1.9665    0.0000 C   0  0  0  0  0  0  0  0  0  0  0  0
    7.0137    2.4770    0.0000 C   0  0  0  0  0  0  0  0  0  0  0  0
   14.4277   -0.5268    0.0000 C   0  0  0  0  0  0  0  0  0  0  0  0
    3.6151   -0.5268    0.0000 C   0  0  0  0  0  0  0  0  0  0  0  0
   12.0041    2.6995    0.0000 C   0  0  0  0  0  0  0  0  0  0  0  0
    6.0388    2.6995    0.0000 C   0  0  0  0  0  0  0  0  0  0  0  0
   15.2704   -1.0651    0.0000 C   0  0  0  0  0  0  0  0  0  0  0  0
    2.7724   -1.0651    0.0000 C   0  0  0  0  0  0  0  0  0  0  0  0
   16.0429   -0.4300    0.0000 C   0  0  0  0  0  0  0  0  0  0  0  0
    2.0000   -0.4300    0.0000 C   0  0  0  0  0  0  0  0  0  0  0  0
   15.6775    0.5009    0.0000 C   0  0  0  0  0  0  0  0  0  0  0  0
    2.3653    0.5009    0.0000 C   0  0  0  0  0  0  0  0  0  0  0  0
    9.1916    0.9171    0.0000 H   0  0  0  0  0  0  0  0  0  0  0  0
    7.9053    0.4615    0.0000 H   0  0  0  0  0  0  0  0  0  0  0  0
   10.3497    0.1955    0.0000 H   0  0  0  0  0  0  0  0  0  0  0  0
    7.4595   -0.8281    0.0000 H   0  0  0  0  0  0  0  0  0  0  0  0
   10.2394   -2.3984    0.0000 H   0  0  0  0  0  0  0  0  0  0  0  0
   11.0275   -2.5172    0.0000 H   0  0  0  0  0  0  0  0  0  0  0  0
    7.0153   -2.5172    0.0000 H   0  0  0  0  0  0  0  0  0  0  0  0
    7.8035   -2.3984    0.0000 H   0  0  0  0  0  0  0  0  0  0  0  0
    9.6061    1.8053    0.0000 H   0  0  0  0  0  0  0  0  0  0  0  0
    8.4368    1.8053    0.0000 H   0  0  0  0  0  0  0  0  0  0  0  0
   11.2994   -0.2474    0.0000 H   0  0  0  0  0  0  0  0  0  0  0  0
   12.3245   -2.8594    0.0000 H   0  0  0  0  0  0  0  0  0  0  0  0
    6.7434   -0.2474    0.0000 H   0  0  0  0  0  0  0  0  0  0  0  0
    5.7183   -2.8594    0.0000 H   0  0  0  0  0  0  0  0  0  0  0  0
   10.1300    1.3834    0.0000 H   0  0  0  0  0  0  0  0  0  0  0  0
   12.8112    0.5564    0.0000 H   0  0  0  0  0  0  0  0  0  0  0  0
    5.2316    0.5564    0.0000 H   0  0  0  0  0  0  0  0  0  0  0  0
    7.9129    1.3834    0.0000 H   0  0  0  0  0  0  0  0  0  0  0  0
   12.8074    0.3444    0.0000 H   0  0  0  0  0  0  0  0  0  0  0  0
   13.8325   -2.2675    0.0000 H   0  0  0  0  0  0  0  0  0  0  0  0
    5.2354    0.3444    0.0000 H   0  0  0  0  0  0  0  0  0  0  0  0
    4.2103   -2.2675    0.0000 H   0  0  0  0  0  0  0  0  0  0  0  0
   10.6075    2.9315    0.0000 H   0  0  0  0  0  0  0  0  0  0  0  0
   13.2887    2.1044    0.0000 H   0  0  0  0  0  0  0  0  0  0  0  0
    4.7541    2.1044    0.0000 H   0  0  0  0  0  0  0  0  0  0  0  0
    7.4354    2.9315    0.0000 H   0  0  0  0  0  0  0  0  0  0  0  0
   12.1869    3.2920    0.0000 H   0  0  0  0  0  0  0  0  0  0  0  0
    5.8560    3.2920    0.0000 H   0  0  0  0  0  0  0  0  0  0  0  0
   15.3075   -1.6840    0.0000 H   0  0  0  0  0  0  0  0  0  0  0  0
    2.7353   -1.6840    0.0000 H   0  0  0  0  0  0  0  0  0  0  0  0
   16.6429   -0.5860    0.0000 H   0  0  0  0  0  0  0  0  0  0  0  0
    1.3999   -0.5860    0.0000 H   0  0  0  0  0  0  0  0  0  0  0  0
   16.0113    1.0233    0.0000 H   0  0  0  0  0  0  0  0  0  0  0  0
    2.0316    1.0233    0.0000 H   0  0  0  0  0  0  0  0  0  0  0  0
  1  8  2  0  0  0  0
  1  9  2  0  0  0  0
  1 10  1  0  0  0  0
  1 11  1  0  0  0  0
  2 40  1  0  0  0  0
  2 48  1  0  0  0  0
  3 41  1  0  0  0  0
  3 49  1  0  0  0  0
 14  4  1  1  0  0  0
  4 20  1  0  0  0  0
 15  5  1  6  0  0  0
  5 21  1  0  0  0  0
 12  6  1  1  0  0  0
  6 58  1  0  0  0  0
 13  7  1  6  0  0  0
  7 59  1  0  0  0  0
 10 14  1  0  0  0  0
 10 16  1  0  0  0  0
 11 15  1  0  0  0  0
 11 17  1  0  0  0  0
 12 13  1  0  0  0  0
 12 14  1  0  0  0  0
 12 50  1  0  0  0  0
 13 15  1  0  0  0  0
 13 51  1  0  0  0  0
 14 52  1  0  0  0  0
 15 53  1  0  0  0  0
 16 18  1  0  0  0  0
 16 54  1  0  0  0  0
 16 55  1  0  0  0  0
 17 19  1  0  0  0  0
 17 56  1  0  0  0  0
 17 57  1  0  0  0  0
 18 22  2  0  0  0  0
 18 23  1  0  0  0  0
 19 24  2  0  0  0  0
 19 25  1  0  0  0  0
 20 26  2  0  0  0  0
 20 27  1  0  0  0  0
 21 28  2  0  0  0  0
 21 29  1  0  0  0  0
 22 30  1  0  0  0  0
 22 60  1  0  0  0  0
 23 31  2  0  0  0  0
 23 61  1  0  0  0  0
 24 32  1  0  0  0  0
 24 62  1  0  0  0  0
 25 33  2  0  0  0  0
 25 63  1  0  0  0  0
 26 36  1  0  0  0  0
 26 64  1  0  0  0  0
 27 37  2  0  0  0  0
 27 65  1  0  0  0  0
 28 38  1  0  0  0  0
 28 66  1  0  0  0  0
 29 39  2  0  0  0  0
 29 67  1  0  0  0  0
 30 34  2  0  0  0  0
 30 68  1  0  0  0  0
 31 34  1  0  0  0  0
 31 69  1  0  0  0  0
 32 35  2  0  0  0  0
 32 70  1  0  0  0  0
 33 35  1  0  0  0  0
 33 71  1  0  0  0  0
 34 40  1  0  0  0  0
 35 41  1  0  0  0  0
 36 42  2  0  0  0  0
 36 72  1  0  0  0  0
 37 42  1  0  0  0  0
 37 73  1  0  0  0  0
 38 43  2  0  0  0  0
 38 74  1  0  0  0  0
 39 43  1  0  0  0  0
 39 75  1  0  0  0  0
 40 44  2  0  0  0  0
 41 45  2  0  0  0  0
 42 76  1  0  0  0  0
 43 77  1  0  0  0  0
 44 46  1  0  0  0  0
 44 78  1  0  0  0  0
 45 47  1  0  0  0  0
 45 79  1  0  0  0  0
 46 48  2  0  0  0  0
 46 80  1  0  0  0  0
 47 49  2  0  0  0  0
 47 81  1  0  0  0  0
 48 82  1  0  0  0  0
 49 83  1  0  0  0  0
M  END
> <PUBCHEM_COMPOUND_CID>
501463
> <PUBCHEM_COMPOUND_CANONICALIZED>
1
> <PUBCHEM_CACTVS_COMPLEXITY>
1040
> <PUBCHEM_CACTVS_HBOND_ACCEPTOR>
10
> <PUBCHEM_CACTVS_HBOND_DONOR>
2
> <PUBCHEM_CACTVS_ROTATABLE_BOND>
10
> <PUBCHEM_CACTVS_SUBSKEYS>
AAADcfB/OABgAAAAAAAAAAAAAAAAASJAAAAwYMGABYAAAAAB9AAAHgQASAAADBTl2AawB4IABgiEAiBCADCDCIAgKBBIiBgODIgPNiKksRuOeCjnwBG7qAfwwMAOQAAAAAAAAACAAAAAAAAAAAAAAAAAAA==
> <PUBCHEM_IUPAC_OPENEYE_NAME>
(3R,4R,5R,6R)-1,1-dioxo-3,6-diphenoxy-2,7-bis[[4-(2-thienyl)phenyl]methyl]-1,2,7-thiadiazepane-4,5-diol
> <PUBCHEM_IUPAC_CAS_NAME>
(3R,4R,5R,6R)-1,1-dioxo-3,6-diphenoxy-2,7-bis[(4-thiophen-2-ylphenyl)methyl]-1,2,7-thiadiazepane-4,5-diol
> <PUBCHEM_IUPAC_NAME_MARKUP>
(3<I>R</I>,4<I>R</I>,5<I>R</I>,6<I>R</I>)-1,1-dioxo-3,6-diphenoxy-2,7-bis[(4-thiophen-2-ylphenyl)methyl]-1,2,7-thiadiazepane-4,5-diol
> <PUBCHEM_IUPAC_NAME>
(3R,4R,5R,6R)-1,1-dioxo-3,6-diphenoxy-2,7-bis[(4-thiophen-2-ylphenyl)methyl]-1,2,7-thiadiazepane-4,5-diol
> <PUBCHEM_IUPAC_SYSTEMATIC_NAME>
(3R,4R,5R,6R)-1,1-bis(oxidanylidene)-3,6-diphenoxy-2,7-bis[(4-thiophen-2-ylphenyl)methyl]-1,2,7-thiadiazepane-4,5-diol
> <PUBCHEM_IUPAC_TRADITIONAL_NAME>
(3R,4R,5R,6R)-1,1-diketo-3,6-diphenoxy-2,7-bis[4-(2-thienyl)benzyl]-1,2,7-thiadiazepane-4,5-diol
> <PUBCHEM_IUPAC_INCHI>
InChI=1S/C38H34N2O6S3/c41-35-36(42)38(46-32-11-5-2-6-12-32)40(26-28-17-21-30(22-18-28)34-14-8-24-48-34)49(43,44)39(37(35)45-31-9-3-1-4-10-31)25-27-15-19-29(20-16-27)33-13-7-23-47-33/h1-24,35-38,41-42H,25-26H2/t35-,36-,37-,38-/m1/s1
> <PUBCHEM_IUPAC_INCHIKEY>
WCALXLLPXISBEQ-SIMZDOAPSA-N
> <PUBCHEM_XLOGP3_AA>
7.3
> <PUBCHEM_EXACT_MASS>
710.15790033
> <PUBCHEM_MOLECULAR_FORMULA>
C38H34N2O6S3
> <PUBCHEM_MOLECULAR_WEIGHT>
710.9
> <PUBCHEM_OPENEYE_CAN_SMILES>
C1=CC=C(C=C1)OC2C(C(C(N(S(=O)(=O)N2CC3=CC=C(C=C3)C4=CC=CS4)CC5=CC=C(C=C5)C6=CC=CS6)OC7=CC=CC=C7)O)O
> <PUBCHEM_OPENEYE_ISO_SMILES>
C1=CC=C(C=C1)O[C@@H]2[C@@H]([C@H]([C@H](N(S(=O)(=O)N2CC3=CC=C(C=C3)C4=CC=CS4)CC5=CC=C(C=C5)C6=CC=CS6)OC7=CC=CC=C7)O)O
> <PUBCHEM_CACTVS_TPSA>
164
> <PUBCHEM_MONOISOTOPIC_WEIGHT>
710.15790033
> <PUBCHEM_TOTAL_CHARGE>
0
> <PUBCHEM_HEAVY_ATOM_COUNT>
49
> <PUBCHEM_ATOM_DEF_STEREO_COUNT>
4
> <PUBCHEM_ATOM_UDEF_STEREO_COUNT>
0
> <PUBCHEM_BOND_DEF_STEREO_COUNT>
0
> <PUBCHEM_BOND_UDEF_STEREO_COUNT>
0
> <PUBCHEM_ISOTOPIC_ATOM_COUNT>
0
> <PUBCHEM_COMPONENT_COUNT>
1
> <PUBCHEM_CACTVS_TAUTO_COUNT>
-1
> <PUBCHEM_COORDINATE_TYPE>
1
5
255
> <PUBCHEM_BONDANNOTATIONS>
18  22  8
18  23  8
19  24  8
19  25  8
2  40  8
2  48  8
20  26  8
20  27  8
21  28  8
21  29  8
22  30  8
23  31  8
24  32  8
25  33  8
26  36  8
27  37  8
28  38  8
29  39  8
3  41  8
3  49  8
30  34  8
31  34  8
32  35  8
33  35  8
36  42  8
37  42  8
38  43  8
39  43  8
14  4  5
40  44  8
41  45  8
44  46  8
45  47  8
46  48  8
47  49  8
15  5  6
12  6  5
13  7  6
$$$$
