501441
  -OEChem-10302200282D
 68 69  0     1  0  0  0  0  0999 V2000
    6.3301   -0.2500    0.0000 O   0  0  0  0  0  0  0  0  0  0  0  0
    3.7320    0.2500    0.0000 O   0  0  0  0  0  0  0  0  0  0  0  0
    8.0622    2.7500    0.0000 O   0  0  0  0  0  0  0  0  0  0  0  0
    5.4641   -2.7500    0.0000 O   0  0  0  0  0  0  0  0  0  0  0  0
    4.5981    1.7500    0.0000 O   0  0  0  0  0  0  0  0  0  0  0  0
    5.4641   -1.7500    0.0000 O   0  0  0  0  0  0  0  0  0  0  0  0
    7.1962    4.2500    0.0000 O   0  0  0  0  0  0  0  0  0  0  0  0
    4.5981   -4.2500    0.0000 O   0  0  0  0  0  0  0  0  0  0  0  0
    6.3301    1.7500    0.0000 N   0  0  0  0  0  0  0  0  0  0  0  0
    3.7320   -1.7500    0.0000 N   0  0  0  0  0  0  0  0  0  0  0  0
    6.3301    2.7500    0.0000 C   0  0  1  0  0  0  0  0  0  0  0  0
    3.7320   -2.7500    0.0000 C   0  0  1  0  0  0  0  0  0  0  0  0
    5.4641    0.2500    0.0000 C   0  0  1  0  0  0  0  0  0  0  0  0
    4.5981   -0.2500    0.0000 C   0  0  1  0  0  0  0  0  0  0  0  0
    5.4641    3.2500    0.0000 C   0  0  0  0  0  0  0  0  0  0  0  0
    2.8660   -3.2500    0.0000 C   0  0  0  0  0  0  0  0  0  0  0  0
    5.4641    1.2500    0.0000 C   0  0  0  0  0  0  0  0  0  0  0  0
    4.5981   -1.2500    0.0000 C   0  0  0  0  0  0  0  0  0  0  0  0
    5.4641    4.2500    0.0000 C   0  0  0  0  0  0  0  0  0  0  0  0
    2.8660   -4.2500    0.0000 C   0  0  0  0  0  0  0  0  0  0  0  0
    7.1962    3.2500    0.0000 C   0  0  0  0  0  0  0  0  0  0  0  0
    4.5981   -3.2500    0.0000 C   0  0  0  0  0  0  0  0  0  0  0  0
    6.3301    4.7500    0.0000 C   0  0  0  0  0  0  0  0  0  0  0  0
    4.5981    4.7500    0.0000 C   0  0  0  0  0  0  0  0  0  0  0  0
    2.0000   -4.7500    0.0000 C   0  0  0  0  0  0  0  0  0  0  0  0
    3.7320   -4.7500    0.0000 C   0  0  0  0  0  0  0  0  0  0  0  0
    6.3301    5.7500    0.0000 C   0  0  0  0  0  0  0  0  0  0  0  0
    4.5981    5.7500    0.0000 C   0  0  0  0  0  0  0  0  0  0  0  0
    2.0000   -5.7500    0.0000 C   0  0  0  0  0  0  0  0  0  0  0  0
    3.7320   -5.7500    0.0000 C   0  0  0  0  0  0  0  0  0  0  0  0
    5.4641    6.2500    0.0000 C   0  0  0  0  0  0  0  0  0  0  0  0
    2.8660   -6.2500    0.0000 C   0  0  0  0  0  0  0  0  0  0  0  0
    8.9282    3.2500    0.0000 C   0  0  0  0  0  0  0  0  0  0  0  0
    6.3301   -3.2500    0.0000 C   0  0  0  0  0  0  0  0  0  0  0  0
    9.7942    2.7500    0.0000 C   0  0  0  0  0  0  0  0  0  0  0  0
    7.1962   -2.7500    0.0000 C   0  0  0  0  0  0  0  0  0  0  0  0
    6.8671    2.4400    0.0000 H   0  0  0  0  0  0  0  0  0  0  0  0
    4.2690   -2.4400    0.0000 H   0  0  0  0  0  0  0  0  0  0  0  0
    5.4641   -0.3700    0.0000 H   0  0  0  0  0  0  0  0  0  0  0  0
    4.5981    0.3700    0.0000 H   0  0  0  0  0  0  0  0  0  0  0  0
    4.8535    3.3577    0.0000 H   0  0  0  0  0  0  0  0  0  0  0  0
    5.2520    2.6674    0.0000 H   0  0  0  0  0  0  0  0  0  0  0  0
    2.6540   -2.6674    0.0000 H   0  0  0  0  0  0  0  0  0  0  0  0
    2.2554   -3.3577    0.0000 H   0  0  0  0  0  0  0  0  0  0  0  0
    6.8671    1.4400    0.0000 H   0  0  0  0  0  0  0  0  0  0  0  0
    3.1951   -1.4400    0.0000 H   0  0  0  0  0  0  0  0  0  0  0  0
    6.8671    4.4400    0.0000 H   0  0  0  0  0  0  0  0  0  0  0  0
    4.0611    4.4400    0.0000 H   0  0  0  0  0  0  0  0  0  0  0  0
    1.4631   -4.4400    0.0000 H   0  0  0  0  0  0  0  0  0  0  0  0
    4.2690   -4.4400    0.0000 H   0  0  0  0  0  0  0  0  0  0  0  0
    6.8671    0.0600    0.0000 H   0  0  0  0  0  0  0  0  0  0  0  0
    3.7320    0.8700    0.0000 H   0  0  0  0  0  0  0  0  0  0  0  0
    6.8671    6.0600    0.0000 H   0  0  0  0  0  0  0  0  0  0  0  0
    4.0611    6.0600    0.0000 H   0  0  0  0  0  0  0  0  0  0  0  0
    1.4631   -6.0600    0.0000 H   0  0  0  0  0  0  0  0  0  0  0  0
    4.2690   -6.0600    0.0000 H   0  0  0  0  0  0  0  0  0  0  0  0
    5.4641    6.8700    0.0000 H   0  0  0  0  0  0  0  0  0  0  0  0
    2.8660   -6.8700    0.0000 H   0  0  0  0  0  0  0  0  0  0  0  0
    9.3267    3.7250    0.0000 H   0  0  0  0  0  0  0  0  0  0  0  0
    8.5297    3.7250    0.0000 H   0  0  0  0  0  0  0  0  0  0  0  0
    5.9316   -3.7250    0.0000 H   0  0  0  0  0  0  0  0  0  0  0  0
    6.7287   -3.7250    0.0000 H   0  0  0  0  0  0  0  0  0  0  0  0
    9.4842    2.2131    0.0000 H   0  0  0  0  0  0  0  0  0  0  0  0
   10.3312    2.4400    0.0000 H   0  0  0  0  0  0  0  0  0  0  0  0
   10.1042    3.2869    0.0000 H   0  0  0  0  0  0  0  0  0  0  0  0
    7.5062   -3.2869    0.0000 H   0  0  0  0  0  0  0  0  0  0  0  0
    7.7331   -2.4400    0.0000 H   0  0  0  0  0  0  0  0  0  0  0  0
    6.8862   -2.2131    0.0000 H   0  0  0  0  0  0  0  0  0  0  0  0
 13  1  1  1  0  0  0
  1 51  1  0  0  0  0
 14  2  1  1  0  0  0
  2 52  1  0  0  0  0
  3 21  1  0  0  0  0
  3 33  1  0  0  0  0
  4 22  1  0  0  0  0
  4 34  1  0  0  0  0
  5 17  2  0  0  0  0
  6 18  2  0  0  0  0
  7 21  2  0  0  0  0
  8 22  2  0  0  0  0
 11  9  1  1  0  0  0
  9 17  1  0  0  0  0
  9 45  1  0  0  0  0
 12 10  1  6  0  0  0
 10 18  1  0  0  0  0
 10 46  1  0  0  0  0
 11 15  1  0  0  0  0
 11 21  1  0  0  0  0
 11 37  1  0  0  0  0
 12 16  1  0  0  0  0
 12 22  1  0  0  0  0
 12 38  1  0  0  0  0
 13 14  1  0  0  0  0
 13 17  1  0  0  0  0
 13 39  1  0  0  0  0
 14 18  1  0  0  0  0
 14 40  1  0  0  0  0
 15 19  1  0  0  0  0
 15 41  1  0  0  0  0
 15 42  1  0  0  0  0
 16 20  1  0  0  0  0
 16 43  1  0  0  0  0
 16 44  1  0  0  0  0
 19 23  2  0  0  0  0
 19 24  1  0  0  0  0
 20 25  2  0  0  0  0
 20 26  1  0  0  0  0
 23 27  1  0  0  0  0
 23 47  1  0  0  0  0
 24 28  2  0  0  0  0
 24 48  1  0  0  0  0
 25 29  1  0  0  0  0
 25 49  1  0  0  0  0
 26 30  2  0  0  0  0
 26 50  1  0  0  0  0
 27 31  2  0  0  0  0
 27 53  1  0  0  0  0
 28 31  1  0  0  0  0
 28 54  1  0  0  0  0
 29 32  2  0  0  0  0
 29 55  1  0  0  0  0
 30 32  1  0  0  0  0
 30 56  1  0  0  0  0
 31 57  1  0  0  0  0
 32 58  1  0  0  0  0
 33 35  1  0  0  0  0
 33 59  1  0  0  0  0
 33 60  1  0  0  0  0
 34 36  1  0  0  0  0
 34 61  1  0  0  0  0
 34 62  1  0  0  0  0
 35 63  1  0  0  0  0
 35 64  1  0  0  0  0
 35 65  1  0  0  0  0
 36 66  1  0  0  0  0
 36 67  1  0  0  0  0
 36 68  1  0  0  0  0
M  END
> <PUBCHEM_COMPOUND_CID>
501441
> <PUBCHEM_COMPOUND_CANONICALIZED>
1
> <PUBCHEM_CACTVS_COMPLEXITY>
659
> <PUBCHEM_CACTVS_HBOND_ACCEPTOR>
8
> <PUBCHEM_CACTVS_HBOND_DONOR>
4
> <PUBCHEM_CACTVS_ROTATABLE_BOND>
15
> <PUBCHEM_CACTVS_SUBSKEYS>
AAADcfB7PAAAAAAAAAAAAAAAAAAAAAAAAAAwYAAAAAAAAAABQAAAHgAQCAAADDzhmAYyCILABgCIAiHSGAICAAAgAAAIiIHIAIgLMDaAkTGHYAAmtgCZiAedyKCOAAAAAAAAAAAAAAAAAAAAAAAAAAAAAA==
> <PUBCHEM_IUPAC_OPENEYE_NAME>
ethyl (2S)-2-[[(2S,3S)-4-[[(1S)-1-benzyl-2-ethoxy-2-oxo-ethyl]amino]-2,3-dihydroxy-4-oxo-butanoyl]amino]-3-phenyl-propanoate
> <PUBCHEM_IUPAC_CAS_NAME>
(2S)-2-[[(2S,3S)-4-[[(2S)-1-ethoxy-1-oxo-3-phenylpropan-2-yl]amino]-2,3-dihydroxy-1,4-dioxobutyl]amino]-3-phenylpropanoic acid ethyl ester
> <PUBCHEM_IUPAC_NAME_MARKUP>
ethyl (2<I>S</I>)-2-[[(2<I>S</I>,3<I>S</I>)-4-[[(2<I>S</I>)-1-ethoxy-1-oxo-3-phenylpropan-2-yl]amino]-2,3-dihydroxy-4-oxobutanoyl]amino]-3-phenylpropanoate
> <PUBCHEM_IUPAC_NAME>
ethyl (2S)-2-[[(2S,3S)-4-[[(2S)-1-ethoxy-1-oxo-3-phenylpropan-2-yl]amino]-2,3-dihydroxy-4-oxobutanoyl]amino]-3-phenylpropanoate
> <PUBCHEM_IUPAC_SYSTEMATIC_NAME>
ethyl (2S)-2-[[(2S,3S)-4-[[(2S)-1-ethoxy-1-oxidanylidene-3-phenyl-propan-2-yl]amino]-2,3-bis(oxidanyl)-4-oxidanylidene-butanoyl]amino]-3-phenyl-propanoate
> <PUBCHEM_IUPAC_TRADITIONAL_NAME>
(2S)-2-[[(2S,3S)-4-[[(1S)-1-benzyl-2-ethoxy-2-keto-ethyl]amino]-2,3-dihydroxy-4-keto-butanoyl]amino]-3-phenyl-propionic acid ethyl ester
> <PUBCHEM_IUPAC_INCHI>
InChI=1S/C26H32N2O8/c1-3-35-25(33)19(15-17-11-7-5-8-12-17)27-23(31)21(29)22(30)24(32)28-20(26(34)36-4-2)16-18-13-9-6-10-14-18/h5-14,19-22,29-30H,3-4,15-16H2,1-2H3,(H,27,31)(H,28,32)/t19-,20-,21-,22-/m0/s1
> <PUBCHEM_IUPAC_INCHIKEY>
RTSLERUSDDMMGY-CMOCDZPBSA-N
> <PUBCHEM_XLOGP3_AA>
2.2
> <PUBCHEM_EXACT_MASS>
500.21586598
> <PUBCHEM_MOLECULAR_FORMULA>
C26H32N2O8
> <PUBCHEM_MOLECULAR_WEIGHT>
500.5
> <PUBCHEM_OPENEYE_CAN_SMILES>
CCOC(=O)C(CC1=CC=CC=C1)NC(=O)C(C(C(=O)NC(CC2=CC=CC=C2)C(=O)OCC)O)O
> <PUBCHEM_OPENEYE_ISO_SMILES>
CCOC(=O)[C@H](CC1=CC=CC=C1)NC(=O)[C@H]([C@@H](C(=O)N[C@@H](CC2=CC=CC=C2)C(=O)OCC)O)O
> <PUBCHEM_CACTVS_TPSA>
151
> <PUBCHEM_MONOISOTOPIC_WEIGHT>
500.21586598
> <PUBCHEM_TOTAL_CHARGE>
0
> <PUBCHEM_HEAVY_ATOM_COUNT>
36
> <PUBCHEM_ATOM_DEF_STEREO_COUNT>
4
> <PUBCHEM_ATOM_UDEF_STEREO_COUNT>
0
> <PUBCHEM_BOND_DEF_STEREO_COUNT>
0
> <PUBCHEM_BOND_UDEF_STEREO_COUNT>
0
> <PUBCHEM_ISOTOPIC_ATOM_COUNT>
0
> <PUBCHEM_COMPONENT_COUNT>
1
> <PUBCHEM_CACTVS_TAUTO_COUNT>
-1
> <PUBCHEM_COORDINATE_TYPE>
1
5
255
> <PUBCHEM_BONDANNOTATIONS>
13  1  5
12  10  6
19  23  8
19  24  8
14  2  5
20  25  8
20  26  8
23  27  8
24  28  8
25  29  8
26  30  8
27  31  8
28  31  8
29  32  8
30  32  8
11  9  5
$$$$
