501498
  -OEChem-10302200282D
117122  0     1  0  0  0  0  0999 V2000
   13.4126    0.1468    0.0000 S   0  0  0  0  0  0  0  0  0  0  0  0
   11.4236    0.3558    0.0000 O   0  0  0  0  0  0  0  0  0  0  0  0
   10.4291    0.4604    0.0000 O   0  0  0  0  0  0  0  0  0  0  0  0
    6.3981   -1.0805    0.0000 O   0  0  0  0  0  0  0  0  0  0  0  0
    9.7480    1.6400    0.0000 O   0  0  0  0  0  0  0  0  0  0  0  0
   14.2217   -0.4410    0.0000 O   0  0  0  0  0  0  0  0  0  0  0  0
   12.6036    0.7346    0.0000 O   0  0  0  0  0  0  0  0  0  0  0  0
    6.9902    3.9625    0.0000 O   0  0  0  0  0  0  0  0  0  0  0  0
    5.5889    2.9444    0.0000 O   0  0  0  0  0  0  0  0  0  0  0  0
    2.8680   -4.1047    0.0000 O   0  0  0  0  0  0  0  0  0  0  0  0
   17.1650    2.3648    0.0000 O   0  0  0  0  0  0  0  0  0  0  0  0
   10.2480   -1.2622    0.0000 N   0  0  0  0  0  0  0  0  0  0  0  0
    8.3468    0.6219    0.0000 N   0  0  0  0  0  0  0  0  0  0  0  0
   12.8249   -0.6622    0.0000 N   0  0  0  0  0  0  0  0  0  0  0  0
    7.1712    2.2399    0.0000 N   0  0  0  0  0  0  0  0  0  0  0  0
    6.3981   -4.0805    0.0000 N   0  0  0  0  0  0  0  0  0  0  0  0
   15.7638    3.3828    0.0000 N   0  0  0  0  0  0  0  0  0  0  0  0
   11.2426   -1.3667    0.0000 C   0  0  3  0  0  0  0  0  0  0  0  0
   11.1380   -2.3612    0.0000 C   0  0  3  0  0  0  0  0  0  0  0  0
   12.0516   -1.9545    0.0000 C   0  0  0  0  0  0  0  0  0  0  0  0
   11.8303   -0.5577    0.0000 C   0  0  0  0  0  0  0  0  0  0  0  0
   10.5502   -3.1703    0.0000 C   0  0  0  0  0  0  0  0  0  0  0  0
    8.8468   -0.2441    0.0000 C   0  0  2  0  0  0  0  0  0  0  0  0
    9.8413   -0.3487    0.0000 C   0  0  0  0  0  0  0  0  0  0  0  0
    8.1776   -0.9873    0.0000 C   0  0  0  0  0  0  0  0  0  0  0  0
    7.2641   -0.5805    0.0000 C   0  0  2  0  0  0  0  0  0  0  0  0
    7.3686    0.4140    0.0000 C   0  0  0  0  0  0  0  0  0  0  0  0
   10.9570   -4.0838    0.0000 C   0  0  0  0  0  0  0  0  0  0  0  0
    8.7535    1.5354    0.0000 C   0  0  0  0  0  0  0  0  0  0  0  0
    8.1657    2.3445    0.0000 C   0  0  2  0  0  0  0  0  0  0  0  0
    8.5725    3.2580    0.0000 C   0  0  0  0  0  0  0  0  0  0  0  0
   14.0004    0.9558    0.0000 C   0  0  0  0  0  0  0  0  0  0  0  0
    8.9792    4.1716    0.0000 C   0  0  0  0  0  0  0  0  0  0  0  0
    7.6589    3.6648    0.0000 C   0  0  0  0  0  0  0  0  0  0  0  0
    9.4860    2.8513    0.0000 C   0  0  0  0  0  0  0  0  0  0  0  0
    6.3981   -2.0805    0.0000 C   0  0  0  0  0  0  0  0  0  0  0  0
   14.9950    0.8513    0.0000 C   0  0  0  0  0  0  0  0  0  0  0  0
   13.5937    1.8693    0.0000 C   0  0  0  0  0  0  0  0  0  0  0  0
    5.5320   -2.5805    0.0000 C   0  0  0  0  0  0  0  0  0  0  0  0
    6.5834    3.0490    0.0000 C   0  0  0  0  0  0  0  0  0  0  0  0
    7.2641   -2.5805    0.0000 C   0  0  0  0  0  0  0  0  0  0  0  0
   15.5827    1.6603    0.0000 C   0  0  0  0  0  0  0  0  0  0  0  0
   14.1815    2.6784    0.0000 C   0  0  0  0  0  0  0  0  0  0  0  0
    5.5320   -3.5805    0.0000 C   0  0  0  0  0  0  0  0  0  0  0  0
    7.2641   -3.5805    0.0000 C   0  0  0  0  0  0  0  0  0  0  0  0
   15.1760    2.5738    0.0000 C   0  0  0  0  0  0  0  0  0  0  0  0
    4.6381   -2.0459    0.0000 C   0  0  0  0  0  0  0  0  0  0  0  0
    6.4024    4.7715    0.0000 C   0  0  0  0  0  0  0  0  0  0  0  0
    4.6381   -4.1152    0.0000 C   0  0  0  0  0  0  0  0  0  0  0  0
    3.7320   -2.5597    0.0000 C   0  0  0  0  0  0  0  0  0  0  0  0
    8.1301   -4.0805    0.0000 C   0  0  0  0  0  0  0  0  0  0  0  0
    3.7320   -3.6014    0.0000 C   0  0  0  0  0  0  0  0  0  0  0  0
    5.8146    5.5805    0.0000 C   0  0  0  0  0  0  0  0  0  0  0  0
    7.2114    5.3593    0.0000 C   0  0  0  0  0  0  0  0  0  0  0  0
    5.5934    4.1837    0.0000 C   0  0  0  0  0  0  0  0  0  0  0  0
    8.9962   -3.5805    0.0000 C   0  0  0  0  0  0  0  0  0  0  0  0
    8.1301   -5.0805    0.0000 C   0  0  0  0  0  0  0  0  0  0  0  0
   16.7583    3.2783    0.0000 C   0  0  0  0  0  0  0  0  0  0  0  0
    9.8622   -4.0805    0.0000 C   0  0  0  0  0  0  0  0  0  0  0  0
    8.9962   -5.5805    0.0000 C   0  0  0  0  0  0  0  0  0  0  0  0
    9.8622   -5.0805    0.0000 C   0  0  0  0  0  0  0  0  0  0  0  0
   17.3461    4.0873    0.0000 C   0  0  0  0  0  0  0  0  0  0  0  0
    2.0000   -3.6080    0.0000 C   0  0  0  0  0  0  0  0  0  0  0  0
   10.5592   -2.1391    0.0000 H   0  0  0  0  0  0  0  0  0  0  0  0
   12.3983   -2.4685    0.0000 H   0  0  0  0  0  0  0  0  0  0  0  0
   12.4976   -1.5238    0.0000 H   0  0  0  0  0  0  0  0  0  0  0  0
    9.8836   -1.7638    0.0000 H   0  0  0  0  0  0  0  0  0  0  0  0
    9.9336   -3.1055    0.0000 H   0  0  0  0  0  0  0  0  0  0  0  0
    9.1844    0.2759    0.0000 H   0  0  0  0  0  0  0  0  0  0  0  0
    7.8676   -1.5242    0.0000 H   0  0  0  0  0  0  0  0  0  0  0  0
    8.6792   -1.3517    0.0000 H   0  0  0  0  0  0  0  0  0  0  0  0
    7.2966   -1.1997    0.0000 H   0  0  0  0  0  0  0  0  0  0  0  0
   13.0770   -1.2286    0.0000 H   0  0  0  0  0  0  0  0  0  0  0  0
    7.3038    1.0306    0.0000 H   0  0  0  0  0  0  0  0  0  0  0  0
    6.7486    0.4140    0.0000 H   0  0  0  0  0  0  0  0  0  0  0  0
   10.5926   -4.5854    0.0000 H   0  0  0  0  0  0  0  0  0  0  0  0
   11.5736   -4.1486    0.0000 H   0  0  0  0  0  0  0  0  0  0  0  0
    7.8013    2.8460    0.0000 H   0  0  0  0  0  0  0  0  0  0  0  0
    6.9190    1.6735    0.0000 H   0  0  0  0  0  0  0  0  0  0  0  0
    9.5456    3.9194    0.0000 H   0  0  0  0  0  0  0  0  0  0  0  0
    9.2314    4.7380    0.0000 H   0  0  0  0  0  0  0  0  0  0  0  0
    8.4128    4.4237    0.0000 H   0  0  0  0  0  0  0  0  0  0  0  0
    7.9111    4.2311    0.0000 H   0  0  0  0  0  0  0  0  0  0  0  0
    7.0925    3.9169    0.0000 H   0  0  0  0  0  0  0  0  0  0  0  0
    7.4067    3.0984    0.0000 H   0  0  0  0  0  0  0  0  0  0  0  0
    9.2338    2.2849    0.0000 H   0  0  0  0  0  0  0  0  0  0  0  0
   10.0524    2.5991    0.0000 H   0  0  0  0  0  0  0  0  0  0  0  0
    9.7382    3.4177    0.0000 H   0  0  0  0  0  0  0  0  0  0  0  0
   15.2471    0.2849    0.0000 H   0  0  0  0  0  0  0  0  0  0  0  0
   12.9771    1.9342    0.0000 H   0  0  0  0  0  0  0  0  0  0  0  0
    7.8010   -2.2705    0.0000 H   0  0  0  0  0  0  0  0  0  0  0  0
   16.1993    1.5955    0.0000 H   0  0  0  0  0  0  0  0  0  0  0  0
   13.9293    3.2448    0.0000 H   0  0  0  0  0  0  0  0  0  0  0  0
    4.6453   -1.4259    0.0000 H   0  0  0  0  0  0  0  0  0  0  0  0
    4.6453   -4.7352    0.0000 H   0  0  0  0  0  0  0  0  0  0  0  0
    3.1963   -2.2476    0.0000 H   0  0  0  0  0  0  0  0  0  0  0  0
   15.5116    3.9492    0.0000 H   0  0  0  0  0  0  0  0  0  0  0  0
    6.3162    5.9450    0.0000 H   0  0  0  0  0  0  0  0  0  0  0  0
    5.4502    6.0821    0.0000 H   0  0  0  0  0  0  0  0  0  0  0  0
    5.3130    5.2161    0.0000 H   0  0  0  0  0  0  0  0  0  0  0  0
    7.5758    4.8577    0.0000 H   0  0  0  0  0  0  0  0  0  0  0  0
    7.7130    5.7237    0.0000 H   0  0  0  0  0  0  0  0  0  0  0  0
    6.8470    5.8609    0.0000 H   0  0  0  0  0  0  0  0  0  0  0  0
    5.2289    4.6853    0.0000 H   0  0  0  0  0  0  0  0  0  0  0  0
    5.0918    3.8193    0.0000 H   0  0  0  0  0  0  0  0  0  0  0  0
    5.9578    3.6821    0.0000 H   0  0  0  0  0  0  0  0  0  0  0  0
    8.9962   -2.9605    0.0000 H   0  0  0  0  0  0  0  0  0  0  0  0
    7.5932   -5.3905    0.0000 H   0  0  0  0  0  0  0  0  0  0  0  0
   10.3991   -3.7705    0.0000 H   0  0  0  0  0  0  0  0  0  0  0  0
    8.9962   -6.2005    0.0000 H   0  0  0  0  0  0  0  0  0  0  0  0
   10.3991   -5.3905    0.0000 H   0  0  0  0  0  0  0  0  0  0  0  0
   17.8477    3.7229    0.0000 H   0  0  0  0  0  0  0  0  0  0  0  0
   17.7105    4.5889    0.0000 H   0  0  0  0  0  0  0  0  0  0  0  0
   16.8445    4.4518    0.0000 H   0  0  0  0  0  0  0  0  0  0  0  0
    2.3079   -3.0699    0.0000 H   0  0  0  0  0  0  0  0  0  0  0  0
    1.4619   -3.3001    0.0000 H   0  0  0  0  0  0  0  0  0  0  0  0
    1.6921   -4.1461    0.0000 H   0  0  0  0  0  0  0  0  0  0  0  0
  1  6  2  0  0  0  0
  1  7  2  0  0  0  0
  1 14  1  0  0  0  0
  1 32  1  0  0  0  0
  2 21  2  0  0  0  0
  3 24  2  0  0  0  0
 26  4  1  1  0  0  0
  4 36  1  0  0  0  0
  5 29  2  0  0  0  0
  8 40  1  0  0  0  0
  8 48  1  0  0  0  0
  9 40  2  0  0  0  0
 10 52  1  0  0  0  0
 10 63  1  0  0  0  0
 11 58  2  0  0  0  0
 12 18  1  0  0  0  0
 12 24  1  0  0  0  0
 12 67  1  0  0  0  0
 13 23  1  0  0  0  0
 13 27  1  0  0  0  0
 13 29  1  0  0  0  0
 14 21  1  0  0  0  0
 14 73  1  0  0  0  0
 30 15  1  1  0  0  0
 15 40  1  0  0  0  0
 15 79  1  0  0  0  0
 16 44  1  0  0  0  0
 16 45  2  0  0  0  0
 17 46  1  0  0  0  0
 17 58  1  0  0  0  0
 17 97  1  0  0  0  0
 18 19  1  0  0  0  0
 18 20  1  0  0  0  0
 18 21  1  0  0  0  0
 19 20  1  0  0  0  0
 19 22  1  0  0  0  0
 19 64  1  0  0  0  0
 20 65  1  0  0  0  0
 20 66  1  0  0  0  0
 22 28  2  0  0  0  0
 22 68  1  0  0  0  0
 23 24  1  6  0  0  0
 23 25  1  0  0  0  0
 23 69  1  0  0  0  0
 25 26  1  0  0  0  0
 25 70  1  0  0  0  0
 25 71  1  0  0  0  0
 26 27  1  0  0  0  0
 26 72  1  0  0  0  0
 27 74  1  0  0  0  0
 27 75  1  0  0  0  0
 28 76  1  0  0  0  0
 28 77  1  0  0  0  0
 29 30  1  0  0  0  0
 30 31  1  0  0  0  0
 30 78  1  0  0  0  0
 31 33  1  0  0  0  0
 31 34  1  0  0  0  0
 31 35  1  0  0  0  0
 32 37  2  0  0  0  0
 32 38  1  0  0  0  0
 33 80  1  0  0  0  0
 33 81  1  0  0  0  0
 33 82  1  0  0  0  0
 34 83  1  0  0  0  0
 34 84  1  0  0  0  0
 34 85  1  0  0  0  0
 35 86  1  0  0  0  0
 35 87  1  0  0  0  0
 35 88  1  0  0  0  0
 36 39  1  0  0  0  0
 36 41  2  0  0  0  0
 37 42  1  0  0  0  0
 37 89  1  0  0  0  0
 38 43  2  0  0  0  0
 38 90  1  0  0  0  0
 39 44  2  0  0  0  0
 39 47  1  0  0  0  0
 41 45  1  0  0  0  0
 41 91  1  0  0  0  0
 42 46  2  0  0  0  0
 42 92  1  0  0  0  0
 43 46  1  0  0  0  0
 43 93  1  0  0  0  0
 44 49  1  0  0  0  0
 45 51  1  0  0  0  0
 47 50  2  0  0  0  0
 47 94  1  0  0  0  0
 48 53  1  0  0  0  0
 48 54  1  0  0  0  0
 48 55  1  0  0  0  0
 49 52  2  0  0  0  0
 49 95  1  0  0  0  0
 50 52  1  0  0  0  0
 50 96  1  0  0  0  0
 51 56  2  0  0  0  0
 51 57  1  0  0  0  0
 53 98  1  0  0  0  0
 53 99  1  0  0  0  0
 53100  1  0  0  0  0
 54101  1  0  0  0  0
 54102  1  0  0  0  0
 54103  1  0  0  0  0
 55104  1  0  0  0  0
 55105  1  0  0  0  0
 55106  1  0  0  0  0
 56 59  1  0  0  0  0
 56107  1  0  0  0  0
 57 60  2  0  0  0  0
 57108  1  0  0  0  0
 58 62  1  0  0  0  0
 59 61  2  0  0  0  0
 59109  1  0  0  0  0
 60 61  1  0  0  0  0
 60110  1  0  0  0  0
 61111  1  0  0  0  0
 62112  1  0  0  0  0
 62113  1  0  0  0  0
 62114  1  0  0  0  0
 63115  1  0  0  0  0
 63116  1  0  0  0  0
 63117  1  0  0  0  0
M  END
> <PUBCHEM_COMPOUND_CID>
501498
> <PUBCHEM_COMPOUND_CANONICALIZED>
1
> <PUBCHEM_CACTVS_COMPLEXITY>
1800
> <PUBCHEM_CACTVS_HBOND_ACCEPTOR>
11
> <PUBCHEM_CACTVS_HBOND_DONOR>
4
> <PUBCHEM_CACTVS_ROTATABLE_BOND>
16
> <PUBCHEM_CACTVS_SUBSKEYS>
AAADcfB/vABAAAAAAAAAAAAAGAAAAWAAAAA8YMEAAAAAAACx9AAAHgQQQAAAD/zh3gYyz/PIFAKoAyVyXHDCiDAhIiAImLm+bJkOZvLEsbufOCjm1hnY6Ae68e8PIAQAAgACAABACAAEAAQAAAAAAAAAAA==
> <PUBCHEM_IUPAC_OPENEYE_NAME>
tert-butyl N-[(1S)-1-[(2S,4R)-2-[[1-[(4-acetamidophenyl)sulfonylcarbamoyl]-2-vinyl-cyclopropyl]carbamoyl]-4-[(7-methoxy-2-phenyl-4-quinolyl)oxy]pyrrolidine-1-carbonyl]-2,2-dimethyl-propyl]carbamate
> <PUBCHEM_IUPAC_CAS_NAME>
N-[(2S)-1-[(2S,4R)-2-[[[1-[[(4-acetamidophenyl)sulfonylamino]-oxomethyl]-2-ethenylcyclopropyl]amino]-oxomethyl]-4-[(7-methoxy-2-phenyl-4-quinolinyl)oxy]-1-pyrrolidinyl]-3,3-dimethyl-1-oxobutan-2-yl]carbamic acid tert-butyl ester
> <PUBCHEM_IUPAC_NAME_MARKUP>
<I>tert</I>-butyl <I>N</I>-[(2<I>S</I>)-1-[(2<I>S</I>,4<I>R</I>)-2-[[1-[(4-acetamidophenyl)sulfonylcarbamoyl]-2-ethenylcyclopropyl]carbamoyl]-4-(7-methoxy-2-phenylquinolin-4-yl)oxypyrrolidin-1-yl]-3,3-dimethyl-1-oxobutan-2-yl]carbamate
> <PUBCHEM_IUPAC_NAME>
tert-butyl N-[(2S)-1-[(2S,4R)-2-[[1-[(4-acetamidophenyl)sulfonylcarbamoyl]-2-ethenylcyclopropyl]carbamoyl]-4-(7-methoxy-2-phenylquinolin-4-yl)oxypyrrolidin-1-yl]-3,3-dimethyl-1-oxobutan-2-yl]carbamate
> <PUBCHEM_IUPAC_SYSTEMATIC_NAME>
tert-butyl N-[(2S)-1-[(2S,4R)-2-[[1-[(4-acetamidophenyl)sulfonylcarbamoyl]-2-ethenyl-cyclopropyl]carbamoyl]-4-(7-methoxy-2-phenyl-quinolin-4-yl)oxy-pyrrolidin-1-yl]-3,3-dimethyl-1-oxidanylidene-butan-2-yl]carbamate
> <PUBCHEM_IUPAC_TRADITIONAL_NAME>
N-[(1S)-1-[(2S,4R)-2-[[1-[(4-acetamidophenyl)sulfonylcarbamoyl]-2-vinyl-cyclopropyl]carbamoyl]-4-[(7-methoxy-2-phenyl-4-quinolyl)oxy]pyrrolidine-1-carbonyl]-2,2-dimethyl-propyl]carbamic acid tert-butyl ester
> <PUBCHEM_IUPAC_INCHI>
InChI=1S/C46H54N6O10S/c1-10-29-25-46(29,42(56)51-63(58,59)33-19-16-30(17-20-33)47-27(2)53)50-40(54)37-23-32(26-52(37)41(55)39(44(3,4)5)49-43(57)62-45(6,7)8)61-38-24-35(28-14-12-11-13-15-28)48-36-22-31(60-9)18-21-34(36)38/h10-22,24,29,32,37,39H,1,23,25-26H2,2-9H3,(H,47,53)(H,49,57)(H,50,54)(H,51,56)/t29?,32-,37+,39-,46?/m1/s1
> <PUBCHEM_IUPAC_INCHIKEY>
HYBOQIKMJOSISV-RLMQAZKZSA-N
> <PUBCHEM_XLOGP3_AA>
5.9
> <PUBCHEM_EXACT_MASS>
882.36221311
> <PUBCHEM_MOLECULAR_FORMULA>
C46H54N6O10S
> <PUBCHEM_MOLECULAR_WEIGHT>
883.0
> <PUBCHEM_OPENEYE_CAN_SMILES>
CC(=O)NC1=CC=C(C=C1)S(=O)(=O)NC(=O)C2(CC2C=C)NC(=O)C3CC(CN3C(=O)C(C(C)(C)C)NC(=O)OC(C)(C)C)OC4=CC(=NC5=C4C=CC(=C5)OC)C6=CC=CC=C6
> <PUBCHEM_OPENEYE_ISO_SMILES>
CC(=O)NC1=CC=C(C=C1)S(=O)(=O)NC(=O)C2(CC2C=C)NC(=O)[C@@H]3C[C@H](CN3C(=O)[C@H](C(C)(C)C)NC(=O)OC(C)(C)C)OC4=CC(=NC5=C4C=CC(=C5)OC)C6=CC=CC=C6
> <PUBCHEM_CACTVS_TPSA>
220
> <PUBCHEM_MONOISOTOPIC_WEIGHT>
882.36221311
> <PUBCHEM_TOTAL_CHARGE>
0
> <PUBCHEM_HEAVY_ATOM_COUNT>
63
> <PUBCHEM_ATOM_DEF_STEREO_COUNT>
3
> <PUBCHEM_ATOM_UDEF_STEREO_COUNT>
2
> <PUBCHEM_BOND_DEF_STEREO_COUNT>
0
> <PUBCHEM_BOND_UDEF_STEREO_COUNT>
0
> <PUBCHEM_ISOTOPIC_ATOM_COUNT>
0
> <PUBCHEM_COMPONENT_COUNT>
1
> <PUBCHEM_CACTVS_TAUTO_COUNT>
-1
> <PUBCHEM_COORDINATE_TYPE>
1
5
255
> <PUBCHEM_BONDANNOTATIONS>
30  15  5
16  44  8
16  45  8
18  21  3
19  22  3
23  24  6
32  37  8
32  38  8
36  39  8
36  41  8
37  42  8
38  43  8
39  44  8
39  47  8
26  4  5
41  45  8
42  46  8
43  46  8
44  49  8
47  50  8
49  52  8
50  52  8
51  56  8
51  57  8
56  59  8
57  60  8
59  61  8
60  61  8
$$$$
