501500
  -OEChem-10302200282D
122124  0     1  0  0  0  0  0999 V2000
    8.6857    6.3188    0.0000 F   0  0  0  0  0  0  0  0  0  0  0  0
   10.3133    6.9112    0.0000 F   0  0  0  0  0  0  0  0  0  0  0  0
   11.3393    4.0921    0.0000 O   0  0  0  0  0  0  0  0  0  0  0  0
   11.7226    0.5070    0.0000 O   0  0  0  0  0  0  0  0  0  0  0  0
    8.9282   -1.2912    0.0000 O   0  0  0  0  0  0  0  0  0  0  0  0
    8.0429    5.5527    0.0000 O   0  0  0  0  0  0  0  0  0  0  0  0
    7.7421    3.8470    0.0000 O   0  0  0  0  0  0  0  0  0  0  0  0
    7.4413    2.1412    0.0000 O   0  0  0  0  0  0  0  0  0  0  0  0
    8.0622   -1.7912    0.0000 O   0  0  0  0  0  0  0  0  0  0  0  0
    7.1406    0.4355    0.0000 O   0  0  0  0  0  0  0  0  0  0  0  0
    5.4641   -4.2912    0.0000 O   0  0  0  0  0  0  0  0  0  0  0  0
    5.4641   -6.2912    0.0000 O   0  0  0  0  0  0  0  0  0  0  0  0
    7.1962   -6.2912    0.0000 O   0  0  0  0  0  0  0  0  0  0  0  0
    2.8660   -1.7912    0.0000 O   0  0  0  0  0  0  0  0  0  0  0  0
   10.3958    1.6203    0.0000 N   0  0  0  0  0  0  0  0  0  0  0  0
    9.7117    3.4997    0.0000 N   0  0  0  0  0  0  0  0  0  0  0  0
   10.4370   -1.0251    0.0000 N   0  0  0  0  0  0  0  0  0  0  0  0
    8.9282   -3.2912    0.0000 N   0  0  0  0  0  0  0  0  0  0  0  0
    6.3301   -2.7912    0.0000 N   0  0  0  0  0  0  0  0  0  0  0  0
    3.7320   -3.2912    0.0000 N   0  0  0  0  0  0  0  0  0  0  0  0
   12.6661    2.9787    0.0000 C   0  0  0  0  0  0  0  0  0  0  0  0
   12.3241    3.9184    0.0000 C   0  0  0  0  0  0  0  0  0  0  0  0
   13.6510    2.8051    0.0000 C   0  0  0  0  0  0  0  0  0  0  0  0
   12.0234    2.2127    0.0000 C   0  0  0  0  0  0  0  0  0  0  0  0
   12.9669    4.6845    0.0000 C   0  0  0  0  0  0  0  0  0  0  0  0
   14.2937    3.5711    0.0000 C   0  0  0  0  0  0  0  0  0  0  0  0
   13.9517    4.5108    0.0000 C   0  0  0  0  0  0  0  0  0  0  0  0
   11.0386    2.3864    0.0000 C   0  0  1  0  0  0  0  0  0  0  0  0
   10.6965    3.3260    0.0000 C   0  0  0  0  0  0  0  0  0  0  0  0
   10.7378    0.6806    0.0000 C   0  0  0  0  0  0  0  0  0  0  0  0
   10.0950   -0.0854    0.0000 C   0  0  2  0  0  0  0  0  0  0  0  0
    9.3697    4.4394    0.0000 C   0  0  1  0  0  0  0  0  0  0  0  0
    9.1102    0.0882    0.0000 C   0  0  0  0  0  0  0  0  0  0  0  0
    9.7942   -2.7912    0.0000 C   0  0  1  0  0  0  0  0  0  0  0  0
   10.0125    5.2054    0.0000 C   0  0  0  0  0  0  0  0  0  0  0  0
   10.6603   -3.2912    0.0000 C   0  0  0  0  0  0  0  0  0  0  0  0
    9.7942   -1.7912    0.0000 C   0  0  0  0  0  0  0  0  0  0  0  0
    8.7682    1.0279    0.0000 C   0  0  0  0  0  0  0  0  0  0  0  0
    8.3849    4.6130    0.0000 C   0  0  0  0  0  0  0  0  0  0  0  0
   10.6603   -4.2912    0.0000 C   0  0  0  0  0  0  0  0  0  0  0  0
   11.6451   -3.1175    0.0000 C   0  0  0  0  0  0  0  0  0  0  0  0
    9.6705    6.1451    0.0000 C   0  0  0  0  0  0  0  0  0  0  0  0
    7.1962   -3.2912    0.0000 C   0  0  2  0  0  0  0  0  0  0  0  0
    8.0622   -2.7912    0.0000 C   0  0  0  0  0  0  0  0  0  0  0  0
    7.7834    1.2016    0.0000 C   0  0  0  0  0  0  0  0  0  0  0  0
    7.1962   -4.2912    0.0000 C   0  0  0  0  0  0  0  0  0  0  0  0
    9.7942   -4.7912    0.0000 C   0  0  0  0  0  0  0  0  0  0  0  0
   12.2878   -3.8836    0.0000 C   0  0  0  0  0  0  0  0  0  0  0  0
   11.5263   -4.7912    0.0000 C   0  0  0  0  0  0  0  0  0  0  0  0
   11.9871   -2.1778    0.0000 C   0  0  0  0  0  0  0  0  0  0  0  0
    6.3301   -4.7912    0.0000 C   0  0  0  0  0  0  0  0  0  0  0  0
    9.7942   -5.7912    0.0000 C   0  0  0  0  0  0  0  0  0  0  0  0
   13.2727   -3.7099    0.0000 C   0  0  0  0  0  0  0  0  0  0  0  0
   11.5263   -5.7912    0.0000 C   0  0  0  0  0  0  0  0  0  0  0  0
   12.9719   -2.0042    0.0000 C   0  0  0  0  0  0  0  0  0  0  0  0
    5.4641   -3.2912    0.0000 C   0  0  0  0  0  0  0  0  0  0  0  0
    4.5981   -2.7912    0.0000 C   0  0  2  0  0  0  0  0  0  0  0  0
   10.6603   -6.2912    0.0000 C   0  0  0  0  0  0  0  0  0  0  0  0
   13.6147   -2.7702    0.0000 C   0  0  0  0  0  0  0  0  0  0  0  0
    4.5981   -1.7912    0.0000 C   0  0  0  0  0  0  0  0  0  0  0  0
    6.3301   -5.7912    0.0000 C   0  0  0  0  0  0  0  0  0  0  0  0
    3.7320   -1.2912    0.0000 C   0  0  0  0  0  0  0  0  0  0  0  0
    2.8660   -2.7912    0.0000 C   0  0  0  0  0  0  0  0  0  0  0  0
    2.0000   -3.2912    0.0000 C   0  0  0  0  0  0  0  0  0  0  0  0
   12.0556    3.0864    0.0000 H   0  0  0  0  0  0  0  0  0  0  0  0
   11.9256    4.3934    0.0000 H   0  0  0  0  0  0  0  0  0  0  0  0
   11.7872    3.6084    0.0000 H   0  0  0  0  0  0  0  0  0  0  0  0
   13.4389    2.2225    0.0000 H   0  0  0  0  0  0  0  0  0  0  0  0
   14.1879    2.4951    0.0000 H   0  0  0  0  0  0  0  0  0  0  0  0
   11.8113    1.6301    0.0000 H   0  0  0  0  0  0  0  0  0  0  0  0
   12.5603    1.9027    0.0000 H   0  0  0  0  0  0  0  0  0  0  0  0
   13.1790    5.2671    0.0000 H   0  0  0  0  0  0  0  0  0  0  0  0
   12.4300    4.9945    0.0000 H   0  0  0  0  0  0  0  0  0  0  0  0
   14.6923    3.0962    0.0000 H   0  0  0  0  0  0  0  0  0  0  0  0
   14.8307    3.8811    0.0000 H   0  0  0  0  0  0  0  0  0  0  0  0
   14.5623    4.6185    0.0000 H   0  0  0  0  0  0  0  0  0  0  0  0
   13.9517    5.1308    0.0000 H   0  0  0  0  0  0  0  0  0  0  0  0
   11.2506    1.8037    0.0000 H   0  0  0  0  0  0  0  0  0  0  0  0
    9.7852    1.7280    0.0000 H   0  0  0  0  0  0  0  0  0  0  0  0
   10.7056   -0.1931    0.0000 H   0  0  0  0  0  0  0  0  0  0  0  0
    9.3132    3.0247    0.0000 H   0  0  0  0  0  0  0  0  0  0  0  0
    9.9803    4.3317    0.0000 H   0  0  0  0  0  0  0  0  0  0  0  0
    8.4996   -0.0194    0.0000 H   0  0  0  0  0  0  0  0  0  0  0  0
    9.1102   -0.5318    0.0000 H   0  0  0  0  0  0  0  0  0  0  0  0
   11.0476   -1.1328    0.0000 H   0  0  0  0  0  0  0  0  0  0  0  0
    9.2573   -2.4812    0.0000 H   0  0  0  0  0  0  0  0  0  0  0  0
   10.4110    4.7305    0.0000 H   0  0  0  0  0  0  0  0  0  0  0  0
   10.5494    5.5154    0.0000 H   0  0  0  0  0  0  0  0  0  0  0  0
   10.7679   -2.6806    0.0000 H   0  0  0  0  0  0  0  0  0  0  0  0
    9.3788    1.1356    0.0000 H   0  0  0  0  0  0  0  0  0  0  0  0
    8.7682    1.6479    0.0000 H   0  0  0  0  0  0  0  0  0  0  0  0
    8.9282   -3.9112    0.0000 H   0  0  0  0  0  0  0  0  0  0  0  0
    9.4584    6.7277    0.0000 H   0  0  0  0  0  0  0  0  0  0  0  0
    6.6592   -3.6012    0.0000 H   0  0  0  0  0  0  0  0  0  0  0  0
    7.4082   -4.8738    0.0000 H   0  0  0  0  0  0  0  0  0  0  0  0
    7.8067   -4.1835    0.0000 H   0  0  0  0  0  0  0  0  0  0  0  0
    9.2573   -4.4812    0.0000 H   0  0  0  0  0  0  0  0  0  0  0  0
   12.0758   -4.4662    0.0000 H   0  0  0  0  0  0  0  0  0  0  0  0
   12.0632   -4.4812    0.0000 H   0  0  0  0  0  0  0  0  0  0  0  0
   11.5886   -1.7029    0.0000 H   0  0  0  0  0  0  0  0  0  0  0  0
    7.4323    5.6604    0.0000 H   0  0  0  0  0  0  0  0  0  0  0  0
    6.3301   -2.1712    0.0000 H   0  0  0  0  0  0  0  0  0  0  0  0
    6.1181   -4.2086    0.0000 H   0  0  0  0  0  0  0  0  0  0  0  0
    5.7196   -4.8988    0.0000 H   0  0  0  0  0  0  0  0  0  0  0  0
    9.2573   -6.1012    0.0000 H   0  0  0  0  0  0  0  0  0  0  0  0
   13.6712   -4.1849    0.0000 H   0  0  0  0  0  0  0  0  0  0  0  0
   12.0632   -6.1012    0.0000 H   0  0  0  0  0  0  0  0  0  0  0  0
   13.1839   -1.4216    0.0000 H   0  0  0  0  0  0  0  0  0  0  0  0
    4.5981   -3.4112    0.0000 H   0  0  0  0  0  0  0  0  0  0  0  0
   10.6603   -6.9112    0.0000 H   0  0  0  0  0  0  0  0  0  0  0  0
   14.2253   -2.6626    0.0000 H   0  0  0  0  0  0  0  0  0  0  0  0
    6.8308    2.2489    0.0000 H   0  0  0  0  0  0  0  0  0  0  0  0
    5.2087   -1.8988    0.0000 H   0  0  0  0  0  0  0  0  0  0  0  0
    4.8101   -1.2086    0.0000 H   0  0  0  0  0  0  0  0  0  0  0  0
    3.7320   -3.9112    0.0000 H   0  0  0  0  0  0  0  0  0  0  0  0
    4.0420   -0.7542    0.0000 H   0  0  0  0  0  0  0  0  0  0  0  0
    3.1951   -0.9812    0.0000 H   0  0  0  0  0  0  0  0  0  0  0  0
    3.4220   -1.8281    0.0000 H   0  0  0  0  0  0  0  0  0  0  0  0
    5.4641   -6.9112    0.0000 H   0  0  0  0  0  0  0  0  0  0  0  0
    1.6900   -2.7542    0.0000 H   0  0  0  0  0  0  0  0  0  0  0  0
    1.4631   -3.6012    0.0000 H   0  0  0  0  0  0  0  0  0  0  0  0
    2.3100   -3.8281    0.0000 H   0  0  0  0  0  0  0  0  0  0  0  0
  1 42  1  0  0  0  0
  2 42  1  0  0  0  0
  3 29  2  0  0  0  0
  4 30  2  0  0  0  0
  5 37  2  0  0  0  0
  6 39  1  0  0  0  0
  6101  1  0  0  0  0
  7 39  2  0  0  0  0
  8 45  1  0  0  0  0
  8112  1  0  0  0  0
  9 44  2  0  0  0  0
 10 45  2  0  0  0  0
 11 56  2  0  0  0  0
 12 61  1  0  0  0  0
 12119  1  0  0  0  0
 13 61  2  0  0  0  0
 14 63  2  0  0  0  0
 28 15  1  6  0  0  0
 15 30  1  0  0  0  0
 15 79  1  0  0  0  0
 16 29  1  0  0  0  0
 32 16  1  6  0  0  0
 16 81  1  0  0  0  0
 31 17  1  1  0  0  0
 17 37  1  0  0  0  0
 17 85  1  0  0  0  0
 34 18  1  6  0  0  0
 18 44  1  0  0  0  0
 18 92  1  0  0  0  0
 43 19  1  6  0  0  0
 19 56  1  0  0  0  0
 19102  1  0  0  0  0
 57 20  1  1  0  0  0
 20 63  1  0  0  0  0
 20115  1  0  0  0  0
 21 22  1  0  0  0  0
 21 23  1  0  0  0  0
 21 24  1  0  0  0  0
 21 65  1  0  0  0  0
 22 25  1  0  0  0  0
 22 66  1  0  0  0  0
 22 67  1  0  0  0  0
 23 26  1  0  0  0  0
 23 68  1  0  0  0  0
 23 69  1  0  0  0  0
 24 28  1  0  0  0  0
 24 70  1  0  0  0  0
 24 71  1  0  0  0  0
 25 27  1  0  0  0  0
 25 72  1  0  0  0  0
 25 73  1  0  0  0  0
 26 27  1  0  0  0  0
 26 74  1  0  0  0  0
 26 75  1  0  0  0  0
 27 76  1  0  0  0  0
 27 77  1  0  0  0  0
 28 29  1  0  0  0  0
 28 78  1  0  0  0  0
 30 31  1  0  0  0  0
 31 33  1  0  0  0  0
 31 80  1  0  0  0  0
 32 35  1  0  0  0  0
 32 39  1  0  0  0  0
 32 82  1  0  0  0  0
 33 38  1  0  0  0  0
 33 83  1  0  0  0  0
 33 84  1  0  0  0  0
 34 36  1  0  0  0  0
 34 37  1  0  0  0  0
 34 86  1  0  0  0  0
 35 42  1  0  0  0  0
 35 87  1  0  0  0  0
 35 88  1  0  0  0  0
 36 40  1  0  0  0  0
 36 41  1  0  0  0  0
 36 89  1  0  0  0  0
 38 45  1  0  0  0  0
 38 90  1  0  0  0  0
 38 91  1  0  0  0  0
 40 47  2  0  0  0  0
 40 49  1  0  0  0  0
 41 48  2  0  0  0  0
 41 50  1  0  0  0  0
 42 93  1  0  0  0  0
 43 44  1  0  0  0  0
 43 46  1  0  0  0  0
 43 94  1  0  0  0  0
 46 51  1  0  0  0  0
 46 95  1  0  0  0  0
 46 96  1  0  0  0  0
 47 52  1  0  0  0  0
 47 97  1  0  0  0  0
 48 53  1  0  0  0  0
 48 98  1  0  0  0  0
 49 54  2  0  0  0  0
 49 99  1  0  0  0  0
 50 55  2  0  0  0  0
 50100  1  0  0  0  0
 51 61  1  0  0  0  0
 51103  1  0  0  0  0
 51104  1  0  0  0  0
 52 58  2  0  0  0  0
 52105  1  0  0  0  0
 53 59  2  0  0  0  0
 53106  1  0  0  0  0
 54 58  1  0  0  0  0
 54107  1  0  0  0  0
 55 59  1  0  0  0  0
 55108  1  0  0  0  0
 56 57  1  0  0  0  0
 57 60  1  0  0  0  0
 57109  1  0  0  0  0
 58110  1  0  0  0  0
 59111  1  0  0  0  0
 60 62  1  0  0  0  0
 60113  1  0  0  0  0
 60114  1  0  0  0  0
 62116  1  0  0  0  0
 62117  1  0  0  0  0
 62118  1  0  0  0  0
 63 64  1  0  0  0  0
 64120  1  0  0  0  0
 64121  1  0  0  0  0
 64122  1  0  0  0  0
M  END
> <PUBCHEM_COMPOUND_CID>
501500
> <PUBCHEM_COMPOUND_CANONICALIZED>
1
> <PUBCHEM_CACTVS_COMPLEXITY>
1580
> <PUBCHEM_CACTVS_HBOND_ACCEPTOR>
14
> <PUBCHEM_CACTVS_HBOND_DONOR>
9
> <PUBCHEM_CACTVS_ROTATABLE_BOND>
26
> <PUBCHEM_CACTVS_SUBSKEYS>
AAADcfB/vYAAAAAAAAAAAAAAAAAAAAAAAAAwYMAAAAAAAAABQAAAHwAQCAAADSjBmBQyCILAAgCIAiHSGAACAAAgAAAIiIGIAIgKYDKAkTGUYAAklgCYiAe8n8KOgAAAAAAAAAAAAAAAAAAAAAAAAAAAAA==
> <PUBCHEM_IUPAC_OPENEYE_NAME>
(4S)-4-[[(2S)-2-acetamidobutanoyl]amino]-5-[[(1S)-1-benzhydryl-2-[[(1S)-3-carboxy-1-[[(1S)-2-[[(1S)-1-carboxy-3,3-difluoro-propyl]amino]-1-(cyclohexylmethyl)-2-oxo-ethyl]carbamoyl]propyl]amino]-2-oxo-ethyl]amino]-5-oxo-pentanoic acid
> <PUBCHEM_IUPAC_CAS_NAME>
(4S)-4-[[(2S)-2-acetamido-1-oxobutyl]amino]-5-[[(2S)-1-[[(2S)-4-carboxy-1-[[(2S)-1-[[(1S)-1-carboxy-3,3-difluoropropyl]amino]-3-cyclohexyl-1-oxopropan-2-yl]amino]-1-oxobutan-2-yl]amino]-1-oxo-3,3-diphenylpropan-2-yl]amino]-5-oxopentanoic acid
> <PUBCHEM_IUPAC_NAME_MARKUP>
(4<I>S</I>)-4-[[(2<I>S</I>)-2-acetamidobutanoyl]amino]-5-[[(2<I>S</I>)-1-[[(2<I>S</I>)-4-carboxy-1-[[(2<I>S</I>)-1-[[(1<I>S</I>)-1-carboxy-3,3-difluoropropyl]amino]-3-cyclohexyl-1-oxopropan-2-yl]amino]-1-oxobutan-2-yl]amino]-1-oxo-3,3-diphenylpropan-2-yl]amino]-5-oxopentanoic acid
> <PUBCHEM_IUPAC_NAME>
(4S)-4-[[(2S)-2-acetamidobutanoyl]amino]-5-[[(2S)-1-[[(2S)-4-carboxy-1-[[(2S)-1-[[(1S)-1-carboxy-3,3-difluoropropyl]amino]-3-cyclohexyl-1-oxopropan-2-yl]amino]-1-oxobutan-2-yl]amino]-1-oxo-3,3-diphenylpropan-2-yl]amino]-5-oxopentanoic acid
> <PUBCHEM_IUPAC_SYSTEMATIC_NAME>
(4S)-4-[[(2S)-2-acetamidobutanoyl]amino]-5-[[(2S)-1-[[(2S)-1-[[(2S)-1-[[(2S)-4,4-bis(fluoranyl)-1-oxidanyl-1-oxidanylidene-butan-2-yl]amino]-3-cyclohexyl-1-oxidanylidene-propan-2-yl]amino]-5-oxidanyl-1,5-bis(oxidanylidene)pentan-2-yl]amino]-1-oxidanylidene-3,3-diphenyl-propan-2-yl]amino]-5-oxidanylidene-pentanoic acid
> <PUBCHEM_IUPAC_TRADITIONAL_NAME>
(4S)-4-[[(2S)-2-acetamidobutanoyl]amino]-5-[[(1S)-1-benzhydryl-2-[[(1S)-3-carboxy-1-[[(1S)-2-[[(1S)-1-carboxy-3,3-difluoro-propyl]amino]-1-(cyclohexylmethyl)-2-keto-ethyl]carbamoyl]propyl]amino]-2-keto-ethyl]amino]-5-keto-valeric acid
> <PUBCHEM_IUPAC_INCHI>
InChI=1S/C44H58F2N6O12/c1-3-29(47-25(2)53)39(58)48-31(20-22-36(56)57)41(60)52-38(37(27-15-9-5-10-16-27)28-17-11-6-12-18-28)43(62)49-30(19-21-35(54)55)40(59)50-32(23-26-13-7-4-8-14-26)42(61)51-33(44(63)64)24-34(45)46/h5-6,9-12,15-18,26,29-34,37-38H,3-4,7-8,13-14,19-24H2,1-2H3,(H,47,53)(H,48,58)(H,49,62)(H,50,59)(H,51,61)(H,52,60)(H,54,55)(H,56,57)(H,63,64)/t29-,30-,31-,32-,33-,38-/m0/s1
> <PUBCHEM_IUPAC_INCHIKEY>
NMSONEDMMWOOCC-PRSJUXBDSA-N
> <PUBCHEM_XLOGP3_AA>
4.4
> <PUBCHEM_EXACT_MASS>
900.40807763
> <PUBCHEM_MOLECULAR_FORMULA>
C44H58F2N6O12
> <PUBCHEM_MOLECULAR_WEIGHT>
901.0
> <PUBCHEM_OPENEYE_CAN_SMILES>
CCC(C(=O)NC(CCC(=O)O)C(=O)NC(C(C1=CC=CC=C1)C2=CC=CC=C2)C(=O)NC(CCC(=O)O)C(=O)NC(CC3CCCCC3)C(=O)NC(CC(F)F)C(=O)O)NC(=O)C
> <PUBCHEM_OPENEYE_ISO_SMILES>
CC[C@@H](C(=O)N[C@@H](CCC(=O)O)C(=O)N[C@@H](C(C1=CC=CC=C1)C2=CC=CC=C2)C(=O)N[C@@H](CCC(=O)O)C(=O)N[C@@H](CC3CCCCC3)C(=O)N[C@@H](CC(F)F)C(=O)O)NC(=O)C
> <PUBCHEM_CACTVS_TPSA>
287
> <PUBCHEM_MONOISOTOPIC_WEIGHT>
900.40807763
> <PUBCHEM_TOTAL_CHARGE>
0
> <PUBCHEM_HEAVY_ATOM_COUNT>
64
> <PUBCHEM_ATOM_DEF_STEREO_COUNT>
6
> <PUBCHEM_ATOM_UDEF_STEREO_COUNT>
0
> <PUBCHEM_BOND_DEF_STEREO_COUNT>
0
> <PUBCHEM_BOND_UDEF_STEREO_COUNT>
0
> <PUBCHEM_ISOTOPIC_ATOM_COUNT>
0
> <PUBCHEM_COMPONENT_COUNT>
1
> <PUBCHEM_CACTVS_TAUTO_COUNT>
-1
> <PUBCHEM_COORDINATE_TYPE>
1
5
255
> <PUBCHEM_BONDANNOTATIONS>
28  15  6
32  16  6
31  17  5
34  18  6
43  19  6
57  20  5
40  47  8
40  49  8
41  48  8
41  50  8
47  52  8
48  53  8
49  54  8
50  55  8
52  58  8
53  59  8
54  58  8
55  59  8
$$$$
