501514
  -OEChem-10302200282D
 31 33  0     1  0  0  0  0  0999 V2000
    4.2690    3.8284    0.0000 Cl  0  0  0  0  0  0  0  0  0  0  0  0
    7.3452   -1.2342    0.0000 O   0  0  0  0  0  0  0  0  0  0  0  0
    6.7577   -3.2384    0.0000 O   0  0  0  0  0  0  0  0  0  0  0  0
    6.0812    1.0237    0.0000 N   0  0  0  0  0  0  0  0  0  0  0  0
    4.2690    0.8284    0.0000 N   0  0  0  0  0  0  0  0  0  0  0  0
    3.4030    2.3284    0.0000 N   0  0  0  0  0  0  0  0  0  0  0  0
    2.5369    0.8284    0.0000 N   0  0  0  0  0  0  0  0  0  0  0  0
    6.3919    0.0732    0.0000 C   0  0  2  0  0  0  0  0  0  0  0  0
    5.8055   -0.7369    0.0000 C   0  0  0  0  0  0  0  0  0  0  0  0
    6.3947   -1.5449    0.0000 C   0  0  2  0  0  0  0  0  0  0  0  0
    7.3435   -0.2342    0.0000 C   0  0  0  0  0  0  0  0  0  0  0  0
    6.0873   -2.4964    0.0000 C   0  0  0  0  0  0  0  0  0  0  0  0
    5.1350    1.3284    0.0000 C   0  0  0  0  0  0  0  0  0  0  0  0
    6.6648    1.8284    0.0000 C   0  0  0  0  0  0  0  0  0  0  0  0
    5.1350    2.3284    0.0000 C   0  0  0  0  0  0  0  0  0  0  0  0
    6.0812    2.6332    0.0000 C   0  0  0  0  0  0  0  0  0  0  0  0
    4.2690    2.8284    0.0000 C   0  0  0  0  0  0  0  0  0  0  0  0
    3.4030    1.3284    0.0000 C   0  0  0  0  0  0  0  0  0  0  0  0
    5.7794    0.1691    0.0000 H   0  0  0  0  0  0  0  0  0  0  0  0
    5.3440   -0.3228    0.0000 H   0  0  0  0  0  0  0  0  0  0  0  0
    5.3455   -1.1525    0.0000 H   0  0  0  0  0  0  0  0  0  0  0  0
    6.8339   -1.9825    0.0000 H   0  0  0  0  0  0  0  0  0  0  0  0
    7.9602   -0.2979    0.0000 H   0  0  0  0  0  0  0  0  0  0  0  0
    7.4713    0.3725    0.0000 H   0  0  0  0  0  0  0  0  0  0  0  0
    5.5394   -2.2063    0.0000 H   0  0  0  0  0  0  0  0  0  0  0  0
    5.7065   -2.9857    0.0000 H   0  0  0  0  0  0  0  0  0  0  0  0
    7.2848    1.8284    0.0000 H   0  0  0  0  0  0  0  0  0  0  0  0
    6.2738    3.2225    0.0000 H   0  0  0  0  0  0  0  0  0  0  0  0
    6.5672   -3.8284    0.0000 H   0  0  0  0  0  0  0  0  0  0  0  0
    2.0000    1.1384    0.0000 H   0  0  0  0  0  0  0  0  0  0  0  0
    2.5369    0.2084    0.0000 H   0  0  0  0  0  0  0  0  0  0  0  0
  1 17  1  0  0  0  0
  2 10  1  0  0  0  0
  2 11  1  0  0  0  0
  3 12  1  0  0  0  0
  3 29  1  0  0  0  0
  8  4  1  1  0  0  0
  4 13  1  0  0  0  0
  4 14  1  0  0  0  0
  5 13  1  0  0  0  0
  5 18  2  0  0  0  0
  6 17  2  0  0  0  0
  6 18  1  0  0  0  0
  7 18  1  0  0  0  0
  7 30  1  0  0  0  0
  7 31  1  0  0  0  0
  8  9  1  0  0  0  0
  8 11  1  0  0  0  0
  8 19  1  0  0  0  0
  9 10  1  0  0  0  0
  9 20  1  0  0  0  0
  9 21  1  0  0  0  0
 10 12  1  1  0  0  0
 10 22  1  0  0  0  0
 11 23  1  0  0  0  0
 11 24  1  0  0  0  0
 12 25  1  0  0  0  0
 12 26  1  0  0  0  0
 13 15  2  0  0  0  0
 14 16  2  0  0  0  0
 14 27  1  0  0  0  0
 15 16  1  0  0  0  0
 15 17  1  0  0  0  0
 16 28  1  0  0  0  0
M  END
> <PUBCHEM_COMPOUND_CID>
501514
> <PUBCHEM_COMPOUND_CANONICALIZED>
1
> <PUBCHEM_CACTVS_COMPLEXITY>
309
> <PUBCHEM_CACTVS_HBOND_ACCEPTOR>
5
> <PUBCHEM_CACTVS_HBOND_DONOR>
2
> <PUBCHEM_CACTVS_ROTATABLE_BOND>
2
> <PUBCHEM_CACTVS_SUBSKEYS>
AAADccBzsAAEAAAAAAAAAAAAAAAAAWJAAAAsAAAAAAAAAFgB+AAAHgIQCAAADD7hmyY9sN9MFgCgAjJnZACCgCkxBqAJ2CA4ZpiLOMJBysEHRAhOAALTQCCgIAAIAAAAAAAAAAAAAAAAAAAAAAAAAAAAAA==
> <PUBCHEM_IUPAC_OPENEYE_NAME>
[(2R,4R)-4-(2-amino-4-chloro-pyrrolo[2,3-d]pyrimidin-7-yl)tetrahydrofuran-2-yl]methanol
> <PUBCHEM_IUPAC_CAS_NAME>
[(2R,4R)-4-(2-amino-4-chloro-7-pyrrolo[2,3-d]pyrimidinyl)-2-oxolanyl]methanol
> <PUBCHEM_IUPAC_NAME_MARKUP>
[(2<I>R</I>,4<I>R</I>)-4-(2-amino-4-chloropyrrolo[2,3-d]pyrimidin-7-yl)oxolan-2-yl]methanol
> <PUBCHEM_IUPAC_NAME>
[(2R,4R)-4-(2-amino-4-chloropyrrolo[2,3-d]pyrimidin-7-yl)oxolan-2-yl]methanol
> <PUBCHEM_IUPAC_SYSTEMATIC_NAME>
[(2R,4R)-4-(2-azanyl-4-chloranyl-pyrrolo[2,3-d]pyrimidin-7-yl)oxolan-2-yl]methanol
> <PUBCHEM_IUPAC_TRADITIONAL_NAME>
[(2R,4R)-4-(2-amino-4-chloro-pyrrolo[2,3-d]pyrimidin-7-yl)tetrahydrofuran-2-yl]methanol
> <PUBCHEM_IUPAC_INCHI>
InChI=1S/C11H13ClN4O2/c12-9-8-1-2-16(10(8)15-11(13)14-9)6-3-7(4-17)18-5-6/h1-2,6-7,17H,3-5H2,(H2,13,14,15)/t6-,7-/m1/s1
> <PUBCHEM_IUPAC_INCHIKEY>
PPGLJVBFWAUYTE-RNFRBKRXSA-N
> <PUBCHEM_XLOGP3_AA>
0.6
> <PUBCHEM_EXACT_MASS>
268.0727034
> <PUBCHEM_MOLECULAR_FORMULA>
C11H13ClN4O2
> <PUBCHEM_MOLECULAR_WEIGHT>
268.70
> <PUBCHEM_OPENEYE_CAN_SMILES>
C1C(COC1CO)N2C=CC3=C2N=C(N=C3Cl)N
> <PUBCHEM_OPENEYE_ISO_SMILES>
C1[C@H](CO[C@H]1CO)N2C=CC3=C2N=C(N=C3Cl)N
> <PUBCHEM_CACTVS_TPSA>
86.2
> <PUBCHEM_MONOISOTOPIC_WEIGHT>
268.0727034
> <PUBCHEM_TOTAL_CHARGE>
0
> <PUBCHEM_HEAVY_ATOM_COUNT>
18
> <PUBCHEM_ATOM_DEF_STEREO_COUNT>
2
> <PUBCHEM_ATOM_UDEF_STEREO_COUNT>
0
> <PUBCHEM_BOND_DEF_STEREO_COUNT>
0
> <PUBCHEM_BOND_UDEF_STEREO_COUNT>
0
> <PUBCHEM_ISOTOPIC_ATOM_COUNT>
0
> <PUBCHEM_COMPONENT_COUNT>
1
> <PUBCHEM_CACTVS_TAUTO_COUNT>
-1
> <PUBCHEM_COORDINATE_TYPE>
1
5
255
> <PUBCHEM_BONDANNOTATIONS>
10  12  5
13  15  8
14  16  8
15  16  8
15  17  8
4  13  8
4  14  8
8  4  5
5  13  8
5  18  8
6  17  8
6  18  8
$$$$
