501503
  -OEChem-10302200282D
139142  0     1  0  0  0  0  0999 V2000
   10.6603    6.5600    0.0000 F   0  0  0  0  0  0  0  0  0  0  0  0
   12.3923    6.5600    0.0000 F   0  0  0  0  0  0  0  0  0  0  0  0
   12.3923    3.5600    0.0000 O   0  0  0  0  0  0  0  0  0  0  0  0
   11.5263    0.0600    0.0000 O   0  0  0  0  0  0  0  0  0  0  0  0
    9.7942    6.0600    0.0000 O   0  0  0  0  0  0  0  0  0  0  0  0
    8.0622   -0.9400    0.0000 O   0  0  0  0  0  0  0  0  0  0  0  0
    8.0622    3.0600    0.0000 O   0  0  0  0  0  0  0  0  0  0  0  0
    7.1962    1.5600    0.0000 O   0  0  0  0  0  0  0  0  0  0  0  0
    7.1962   -1.4400    0.0000 O   0  0  0  0  0  0  0  0  0  0  0  0
    4.5981   -3.9400    0.0000 O   0  0  0  0  0  0  0  0  0  0  0  0
    4.5981   -5.9400    0.0000 O   0  0  0  0  0  0  0  0  0  0  0  0
    6.3301   -5.9400    0.0000 O   0  0  0  0  0  0  0  0  0  0  0  0
    2.8660    0.0600    0.0000 O   0  0  0  0  0  0  0  0  0  0  0  0
    2.0000   -1.4400    0.0000 O   0  0  0  0  0  0  0  0  0  0  0  0
    3.7320   -4.4400    0.0000 O   0  0  0  0  0  0  0  0  0  0  0  0
   10.6603    1.5600    0.0000 N   0  0  0  0  0  0  0  0  0  0  0  0
   10.6603    3.5600    0.0000 N   0  0  0  0  0  0  0  0  0  0  0  0
    9.7942   -0.9400    0.0000 N   0  0  0  0  0  0  0  0  0  0  0  0
    8.0622   -2.9400    0.0000 N   0  0  0  0  0  0  0  0  0  0  0  0
    8.9282    4.5600    0.0000 N   0  0  0  0  0  0  0  0  0  0  0  0
    5.4641   -2.4400    0.0000 N   0  0  0  0  0  0  0  0  0  0  0  0
    2.8660   -2.9400    0.0000 N   0  0  0  0  0  0  0  0  0  0  0  0
   13.2583    2.0600    0.0000 C   0  0  0  0  0  0  0  0  0  0  0  0
   13.2583    3.0600    0.0000 C   0  0  0  0  0  0  0  0  0  0  0  0
   14.1244    1.5600    0.0000 C   0  0  0  0  0  0  0  0  0  0  0  0
   12.3923    1.5600    0.0000 C   0  0  0  0  0  0  0  0  0  0  0  0
   14.1244    3.5600    0.0000 C   0  0  0  0  0  0  0  0  0  0  0  0
   14.9904    2.0600    0.0000 C   0  0  0  0  0  0  0  0  0  0  0  0
   14.9904    3.0600    0.0000 C   0  0  0  0  0  0  0  0  0  0  0  0
   11.5263    2.0600    0.0000 C   0  0  1  0  0  0  0  0  0  0  0  0
   11.5263    3.0600    0.0000 C   0  0  0  0  0  0  0  0  0  0  0  0
   10.6603    0.5600    0.0000 C   0  0  0  0  0  0  0  0  0  0  0  0
    9.7942    0.0600    0.0000 C   0  0  2  0  0  0  0  0  0  0  0  0
   10.6603    4.5600    0.0000 C   0  0  1  0  0  0  0  0  0  0  0  0
    8.9282    0.5600    0.0000 C   0  0  0  0  0  0  0  0  0  0  0  0
   11.5263    5.0600    0.0000 C   0  0  0  0  0  0  0  0  0  0  0  0
    8.9282   -2.4400    0.0000 C   0  0  2  0  0  0  0  0  0  0  0  0
    9.7942    5.0600    0.0000 C   0  0  0  0  0  0  0  0  0  0  0  0
    8.9282    1.5600    0.0000 C   0  0  0  0  0  0  0  0  0  0  0  0
    8.9282   -1.4400    0.0000 C   0  0  0  0  0  0  0  0  0  0  0  0
    9.7942   -2.9400    0.0000 C   0  0  0  0  0  0  0  0  0  0  0  0
   11.5263    6.0600    0.0000 C   0  0  0  0  0  0  0  0  0  0  0  0
    9.7942   -3.9400    0.0000 C   0  0  0  0  0  0  0  0  0  0  0  0
   10.7942   -2.9400    0.0000 C   0  0  0  0  0  0  0  0  0  0  0  0
    8.0622    2.0600    0.0000 C   0  0  0  0  0  0  0  0  0  0  0  0
    7.1962   -2.4400    0.0000 C   0  0  0  0  0  0  0  0  0  0  0  0
    8.0622    5.0600    0.0000 C   0  0  0  0  0  0  0  0  0  0  0  0
    6.3301   -2.9400    0.0000 C   0  0  2  0  0  0  0  0  0  0  0  0
   10.6603   -4.4400    0.0000 C   0  0  0  0  0  0  0  0  0  0  0  0
   11.2942   -2.0740    0.0000 C   0  0  0  0  0  0  0  0  0  0  0  0
    8.9282   -4.4400    0.0000 C   0  0  0  0  0  0  0  0  0  0  0  0
   11.2942   -3.8060    0.0000 C   0  0  0  0  0  0  0  0  0  0  0  0
    6.3301   -3.9400    0.0000 C   0  0  0  0  0  0  0  0  0  0  0  0
    7.1962    4.5600    0.0000 C   0  0  0  0  0  0  0  0  0  0  0  0
   10.6603   -5.4400    0.0000 C   0  0  0  0  0  0  0  0  0  0  0  0
   12.2942   -2.0740    0.0000 C   0  0  0  0  0  0  0  0  0  0  0  0
    8.9282   -5.4400    0.0000 C   0  0  0  0  0  0  0  0  0  0  0  0
   12.2942   -3.8060    0.0000 C   0  0  0  0  0  0  0  0  0  0  0  0
    5.4641   -4.4400    0.0000 C   0  0  0  0  0  0  0  0  0  0  0  0
    9.7942   -5.9400    0.0000 C   0  0  0  0  0  0  0  0  0  0  0  0
   12.7942   -2.9400    0.0000 C   0  0  0  0  0  0  0  0  0  0  0  0
    6.3301    5.0600    0.0000 C   0  0  0  0  0  0  0  0  0  0  0  0
    4.5981   -2.9400    0.0000 C   0  0  0  0  0  0  0  0  0  0  0  0
    3.7320   -2.4400    0.0000 C   0  0  2  0  0  0  0  0  0  0  0  0
    5.4641   -5.4400    0.0000 C   0  0  0  0  0  0  0  0  0  0  0  0
    3.7320   -1.4400    0.0000 C   0  0  0  0  0  0  0  0  0  0  0  0
    5.4641    4.5600    0.0000 C   0  0  0  0  0  0  0  0  0  0  0  0
    6.3301    6.0600    0.0000 C   0  0  0  0  0  0  0  0  0  0  0  0
    4.5981    5.0600    0.0000 C   0  0  0  0  0  0  0  0  0  0  0  0
    5.4641    6.5600    0.0000 C   0  0  0  0  0  0  0  0  0  0  0  0
    2.8660   -0.9400    0.0000 C   0  0  0  0  0  0  0  0  0  0  0  0
    4.5981    6.0600    0.0000 C   0  0  0  0  0  0  0  0  0  0  0  0
    2.8660   -3.9400    0.0000 C   0  0  0  0  0  0  0  0  0  0  0  0
    2.0000   -4.4400    0.0000 C   0  0  0  0  0  0  0  0  0  0  0  0
   13.2583    1.4400    0.0000 H   0  0  0  0  0  0  0  0  0  0  0  0
   13.0463    3.6426    0.0000 H   0  0  0  0  0  0  0  0  0  0  0  0
   12.6477    2.9523    0.0000 H   0  0  0  0  0  0  0  0  0  0  0  0
   13.7258    1.0850    0.0000 H   0  0  0  0  0  0  0  0  0  0  0  0
   14.5229    1.0850    0.0000 H   0  0  0  0  0  0  0  0  0  0  0  0
   11.9938    1.0850    0.0000 H   0  0  0  0  0  0  0  0  0  0  0  0
   12.7908    1.0850    0.0000 H   0  0  0  0  0  0  0  0  0  0  0  0
   14.5229    4.0350    0.0000 H   0  0  0  0  0  0  0  0  0  0  0  0
   13.7258    4.0350    0.0000 H   0  0  0  0  0  0  0  0  0  0  0  0
   15.2024    1.4774    0.0000 H   0  0  0  0  0  0  0  0  0  0  0  0
   15.6010    2.1677    0.0000 H   0  0  0  0  0  0  0  0  0  0  0  0
   15.6010    2.9523    0.0000 H   0  0  0  0  0  0  0  0  0  0  0  0
   15.2024    3.6426    0.0000 H   0  0  0  0  0  0  0  0  0  0  0  0
   10.9893    2.3700    0.0000 H   0  0  0  0  0  0  0  0  0  0  0  0
   10.1233    1.8700    0.0000 H   0  0  0  0  0  0  0  0  0  0  0  0
   10.1233    3.2500    0.0000 H   0  0  0  0  0  0  0  0  0  0  0  0
    9.2573   -0.2500    0.0000 H   0  0  0  0  0  0  0  0  0  0  0  0
   11.1972    4.2500    0.0000 H   0  0  0  0  0  0  0  0  0  0  0  0
    8.3176    0.6677    0.0000 H   0  0  0  0  0  0  0  0  0  0  0  0
    8.7162   -0.0226    0.0000 H   0  0  0  0  0  0  0  0  0  0  0  0
   10.3312   -1.2500    0.0000 H   0  0  0  0  0  0  0  0  0  0  0  0
   11.7383    4.4774    0.0000 H   0  0  0  0  0  0  0  0  0  0  0  0
   12.1369    5.1677    0.0000 H   0  0  0  0  0  0  0  0  0  0  0  0
    8.9282   -3.0600    0.0000 H   0  0  0  0  0  0  0  0  0  0  0  0
    9.5388    1.4523    0.0000 H   0  0  0  0  0  0  0  0  0  0  0  0
    9.1403    2.1426    0.0000 H   0  0  0  0  0  0  0  0  0  0  0  0
    9.9547   -2.3411    0.0000 H   0  0  0  0  0  0  0  0  0  0  0  0
   12.0632    5.7500    0.0000 H   0  0  0  0  0  0  0  0  0  0  0  0
    8.0622   -3.5600    0.0000 H   0  0  0  0  0  0  0  0  0  0  0  0
    8.9282    3.9400    0.0000 H   0  0  0  0  0  0  0  0  0  0  0  0
    8.4607    5.5350    0.0000 H   0  0  0  0  0  0  0  0  0  0  0  0
    7.6636    5.5350    0.0000 H   0  0  0  0  0  0  0  0  0  0  0  0
    5.7932   -3.2500    0.0000 H   0  0  0  0  0  0  0  0  0  0  0  0
   11.1972   -4.1300    0.0000 H   0  0  0  0  0  0  0  0  0  0  0  0
   10.9842   -1.5370    0.0000 H   0  0  0  0  0  0  0  0  0  0  0  0
    8.3913   -4.1300    0.0000 H   0  0  0  0  0  0  0  0  0  0  0  0
   10.9842   -4.3430    0.0000 H   0  0  0  0  0  0  0  0  0  0  0  0
    6.5422   -4.5226    0.0000 H   0  0  0  0  0  0  0  0  0  0  0  0
    6.9407   -3.8323    0.0000 H   0  0  0  0  0  0  0  0  0  0  0  0
    6.7976    4.0850    0.0000 H   0  0  0  0  0  0  0  0  0  0  0  0
    7.5947    4.0850    0.0000 H   0  0  0  0  0  0  0  0  0  0  0  0
    5.4641   -1.8200    0.0000 H   0  0  0  0  0  0  0  0  0  0  0  0
   11.1972   -5.7500    0.0000 H   0  0  0  0  0  0  0  0  0  0  0  0
   12.6042   -1.5370    0.0000 H   0  0  0  0  0  0  0  0  0  0  0  0
    8.3913   -5.7500    0.0000 H   0  0  0  0  0  0  0  0  0  0  0  0
   12.6042   -4.3430    0.0000 H   0  0  0  0  0  0  0  0  0  0  0  0
    5.2520   -3.8574    0.0000 H   0  0  0  0  0  0  0  0  0  0  0  0
    4.8535   -4.5477    0.0000 H   0  0  0  0  0  0  0  0  0  0  0  0
    7.5252    3.3700    0.0000 H   0  0  0  0  0  0  0  0  0  0  0  0
    9.7942   -6.5600    0.0000 H   0  0  0  0  0  0  0  0  0  0  0  0
   13.4142   -2.9400    0.0000 H   0  0  0  0  0  0  0  0  0  0  0  0
    3.7320   -3.0600    0.0000 H   0  0  0  0  0  0  0  0  0  0  0  0
    4.3426   -1.5477    0.0000 H   0  0  0  0  0  0  0  0  0  0  0  0
    3.9441   -0.8574    0.0000 H   0  0  0  0  0  0  0  0  0  0  0  0
    5.4641    3.9400    0.0000 H   0  0  0  0  0  0  0  0  0  0  0  0
    6.8671    6.3700    0.0000 H   0  0  0  0  0  0  0  0  0  0  0  0
    2.3291   -2.6300    0.0000 H   0  0  0  0  0  0  0  0  0  0  0  0
    4.0611    4.7500    0.0000 H   0  0  0  0  0  0  0  0  0  0  0  0
    5.4641    7.1800    0.0000 H   0  0  0  0  0  0  0  0  0  0  0  0
    4.0611    6.3700    0.0000 H   0  0  0  0  0  0  0  0  0  0  0  0
    4.5981   -6.5600    0.0000 H   0  0  0  0  0  0  0  0  0  0  0  0
    1.6900   -3.9031    0.0000 H   0  0  0  0  0  0  0  0  0  0  0  0
    1.4631   -4.7500    0.0000 H   0  0  0  0  0  0  0  0  0  0  0  0
    2.3100   -4.9769    0.0000 H   0  0  0  0  0  0  0  0  0  0  0  0
    2.3291    0.3700    0.0000 H   0  0  0  0  0  0  0  0  0  0  0  0
  1 42  1  0  0  0  0
  2 42  1  0  0  0  0
  3 31  2  0  0  0  0
  4 32  2  0  0  0  0
  5 38  2  0  0  0  0
  6 40  2  0  0  0  0
  7 45  1  0  0  0  0
  7123  1  0  0  0  0
  8 45  2  0  0  0  0
  9 46  2  0  0  0  0
 10 63  2  0  0  0  0
 11 65  1  0  0  0  0
 11135  1  0  0  0  0
 12 65  2  0  0  0  0
 13 71  1  0  0  0  0
 13139  1  0  0  0  0
 14 71  2  0  0  0  0
 15 73  2  0  0  0  0
 30 16  1  6  0  0  0
 16 32  1  0  0  0  0
 16 89  1  0  0  0  0
 17 31  1  0  0  0  0
 34 17  1  6  0  0  0
 17 90  1  0  0  0  0
 33 18  1  1  0  0  0
 18 40  1  0  0  0  0
 18 95  1  0  0  0  0
 37 19  1  6  0  0  0
 19 46  1  0  0  0  0
 19103  1  0  0  0  0
 20 38  1  0  0  0  0
 20 47  1  0  0  0  0
 20104  1  0  0  0  0
 48 21  1  6  0  0  0
 21 63  1  0  0  0  0
 21116  1  0  0  0  0
 64 22  1  1  0  0  0
 22 73  1  0  0  0  0
 22131  1  0  0  0  0
 23 24  1  0  0  0  0
 23 25  1  0  0  0  0
 23 26  1  0  0  0  0
 23 75  1  0  0  0  0
 24 27  1  0  0  0  0
 24 76  1  0  0  0  0
 24 77  1  0  0  0  0
 25 28  1  0  0  0  0
 25 78  1  0  0  0  0
 25 79  1  0  0  0  0
 26 30  1  0  0  0  0
 26 80  1  0  0  0  0
 26 81  1  0  0  0  0
 27 29  1  0  0  0  0
 27 82  1  0  0  0  0
 27 83  1  0  0  0  0
 28 29  1  0  0  0  0
 28 84  1  0  0  0  0
 28 85  1  0  0  0  0
 29 86  1  0  0  0  0
 29 87  1  0  0  0  0
 30 31  1  0  0  0  0
 30 88  1  0  0  0  0
 32 33  1  0  0  0  0
 33 35  1  0  0  0  0
 33 91  1  0  0  0  0
 34 36  1  0  0  0  0
 34 38  1  0  0  0  0
 34 92  1  0  0  0  0
 35 39  1  0  0  0  0
 35 93  1  0  0  0  0
 35 94  1  0  0  0  0
 36 42  1  0  0  0  0
 36 96  1  0  0  0  0
 36 97  1  0  0  0  0
 37 40  1  0  0  0  0
 37 41  1  0  0  0  0
 37 98  1  0  0  0  0
 39 45  1  0  0  0  0
 39 99  1  0  0  0  0
 39100  1  0  0  0  0
 41 43  1  0  0  0  0
 41 44  1  0  0  0  0
 41101  1  0  0  0  0
 42102  1  0  0  0  0
 43 49  2  0  0  0  0
 43 51  1  0  0  0  0
 44 50  2  0  0  0  0
 44 52  1  0  0  0  0
 46 48  1  0  0  0  0
 47 54  1  0  0  0  0
 47105  1  0  0  0  0
 47106  1  0  0  0  0
 48 53  1  0  0  0  0
 48107  1  0  0  0  0
 49 55  1  0  0  0  0
 49108  1  0  0  0  0
 50 56  1  0  0  0  0
 50109  1  0  0  0  0
 51 57  2  0  0  0  0
 51110  1  0  0  0  0
 52 58  2  0  0  0  0
 52111  1  0  0  0  0
 53 59  1  0  0  0  0
 53112  1  0  0  0  0
 53113  1  0  0  0  0
 54 62  1  0  0  0  0
 54114  1  0  0  0  0
 54115  1  0  0  0  0
 55 60  2  0  0  0  0
 55117  1  0  0  0  0
 56 61  2  0  0  0  0
 56118  1  0  0  0  0
 57 60  1  0  0  0  0
 57119  1  0  0  0  0
 58 61  1  0  0  0  0
 58120  1  0  0  0  0
 59 65  1  0  0  0  0
 59121  1  0  0  0  0
 59122  1  0  0  0  0
 60124  1  0  0  0  0
 61125  1  0  0  0  0
 62 67  2  0  0  0  0
 62 68  1  0  0  0  0
 63 64  1  0  0  0  0
 64 66  1  0  0  0  0
 64126  1  0  0  0  0
 66 71  1  0  0  0  0
 66127  1  0  0  0  0
 66128  1  0  0  0  0
 67 69  1  0  0  0  0
 67129  1  0  0  0  0
 68 70  2  0  0  0  0
 68130  1  0  0  0  0
 69 72  2  0  0  0  0
 69132  1  0  0  0  0
 70 72  1  0  0  0  0
 70133  1  0  0  0  0
 72134  1  0  0  0  0
 73 74  1  0  0  0  0
 74136  1  0  0  0  0
 74137  1  0  0  0  0
 74138  1  0  0  0  0
M  END
> <PUBCHEM_COMPOUND_CID>
501503
> <PUBCHEM_COMPOUND_CANONICALIZED>
1
> <PUBCHEM_CACTVS_COMPLEXITY>
1870
> <PUBCHEM_CACTVS_HBOND_ACCEPTOR>
15
> <PUBCHEM_CACTVS_HBOND_DONOR>
10
> <PUBCHEM_CACTVS_ROTATABLE_BOND>
30
> <PUBCHEM_CACTVS_SUBSKEYS>
AAADcfB/vYAAAAAAAAAAAAAAAAAAAAAAAAAwYMGAAAAAAAABUAAAHwAQCAAADSjBmBQyCILAAgCIAiHSGAACAAAgAAAIiIGIAIgIYDqAkTGUYAAmlgCIiAe/n8KOgAAAAAAAAAAAAAAAAAAAAAAAAAAAAA==
> <PUBCHEM_IUPAC_OPENEYE_NAME>
(4S)-4-[[(2S)-2-acetamido-3-carboxy-propanoyl]amino]-5-[[(1S)-1-benzhydryl-2-[[(1S)-3-carboxy-1-[[(1S)-1-(cyclohexylmethyl)-2-[[(1S)-3,3-difluoro-1-(2-phenylethylcarbamoyl)propyl]amino]-2-oxo-ethyl]carbamoyl]propyl]amino]-2-oxo-ethyl]amino]-5-oxo-pentanoic acid
> <PUBCHEM_IUPAC_CAS_NAME>
(4S)-4-[[(2S)-2-acetamido-3-carboxy-1-oxopropyl]amino]-5-[[(2S)-1-[[(2S)-4-carboxy-1-[[(2S)-3-cyclohexyl-1-[[(2S)-4,4-difluoro-1-oxo-1-(2-phenylethylamino)butan-2-yl]amino]-1-oxopropan-2-yl]amino]-1-oxobutan-2-yl]amino]-1-oxo-3,3-diphenylpropan-2-yl]amino]-5-oxopentanoic acid
> <PUBCHEM_IUPAC_NAME_MARKUP>
(4<I>S</I>)-4-[[(2<I>S</I>)-2-acetamido-3-carboxypropanoyl]amino]-5-[[(2<I>S</I>)-1-[[(2<I>S</I>)-4-carboxy-1-[[(2<I>S</I>)-3-cyclohexyl-1-[[(2<I>S</I>)-4,4-difluoro-1-oxo-1-(2-phenylethylamino)butan-2-yl]amino]-1-oxopropan-2-yl]amino]-1-oxobutan-2-yl]amino]-1-oxo-3,3-diphenylpropan-2-yl]amino]-5-oxopentanoic acid
> <PUBCHEM_IUPAC_NAME>
(4S)-4-[[(2S)-2-acetamido-3-carboxypropanoyl]amino]-5-[[(2S)-1-[[(2S)-4-carboxy-1-[[(2S)-3-cyclohexyl-1-[[(2S)-4,4-difluoro-1-oxo-1-(2-phenylethylamino)butan-2-yl]amino]-1-oxopropan-2-yl]amino]-1-oxobutan-2-yl]amino]-1-oxo-3,3-diphenylpropan-2-yl]amino]-5-oxopentanoic acid
> <PUBCHEM_IUPAC_SYSTEMATIC_NAME>
(4S)-4-[[(2S)-2-acetamido-4-oxidanyl-4-oxidanylidene-butanoyl]amino]-5-[[(2S)-1-[[(2S)-1-[[(2S)-1-[[(2S)-4,4-bis(fluoranyl)-1-oxidanylidene-1-(2-phenylethylamino)butan-2-yl]amino]-3-cyclohexyl-1-oxidanylidene-propan-2-yl]amino]-5-oxidanyl-1,5-bis(oxidanylidene)pentan-2-yl]amino]-1-oxidanylidene-3,3-diphenyl-propan-2-yl]amino]-5-oxidanylidene-pentanoic acid
> <PUBCHEM_IUPAC_TRADITIONAL_NAME>
(4S)-4-[[(2S)-2-acetamido-3-carboxy-propanoyl]amino]-5-[[(1S)-1-benzhydryl-2-[[(1S)-3-carboxy-1-[[(1S)-1-(cyclohexylmethyl)-2-[[(1S)-3,3-difluoro-1-(phenethylcarbamoyl)propyl]amino]-2-keto-ethyl]carbamoyl]propyl]amino]-2-keto-ethyl]amino]-5-keto-valeric acid
> <PUBCHEM_IUPAC_INCHI>
InChI=1S/C52H65F2N7O13/c1-31(62)56-40(30-44(67)68)51(73)57-37(23-25-43(65)66)49(71)61-46(45(34-18-10-4-11-19-34)35-20-12-5-13-21-35)52(74)58-36(22-24-42(63)64)48(70)59-38(28-33-16-8-3-9-17-33)50(72)60-39(29-41(53)54)47(69)55-27-26-32-14-6-2-7-15-32/h2,4-7,10-15,18-21,33,36-41,45-46H,3,8-9,16-17,22-30H2,1H3,(H,55,69)(H,56,62)(H,57,73)(H,58,74)(H,59,70)(H,60,72)(H,61,71)(H,63,64)(H,65,66)(H,67,68)/t36-,37-,38-,39-,40-,46-/m0/s1
> <PUBCHEM_IUPAC_INCHIKEY>
YROXKHKMMWFHOY-ZVNYPHDXSA-N
> <PUBCHEM_XLOGP3_AA>
4.7
> <PUBCHEM_EXACT_MASS>
1033.46084148
> <PUBCHEM_MOLECULAR_FORMULA>
C52H65F2N7O13
> <PUBCHEM_MOLECULAR_WEIGHT>
1034.1
> <PUBCHEM_OPENEYE_CAN_SMILES>
CC(=O)NC(CC(=O)O)C(=O)NC(CCC(=O)O)C(=O)NC(C(C1=CC=CC=C1)C2=CC=CC=C2)C(=O)NC(CCC(=O)O)C(=O)NC(CC3CCCCC3)C(=O)NC(CC(F)F)C(=O)NCCC4=CC=CC=C4
> <PUBCHEM_OPENEYE_ISO_SMILES>
CC(=O)N[C@@H](CC(=O)O)C(=O)N[C@@H](CCC(=O)O)C(=O)N[C@@H](C(C1=CC=CC=C1)C2=CC=CC=C2)C(=O)N[C@@H](CCC(=O)O)C(=O)N[C@@H](CC3CCCCC3)C(=O)N[C@@H](CC(F)F)C(=O)NCCC4=CC=CC=C4
> <PUBCHEM_CACTVS_TPSA>
316
> <PUBCHEM_MONOISOTOPIC_WEIGHT>
1033.46084148
> <PUBCHEM_TOTAL_CHARGE>
0
> <PUBCHEM_HEAVY_ATOM_COUNT>
74
> <PUBCHEM_ATOM_DEF_STEREO_COUNT>
6
> <PUBCHEM_ATOM_UDEF_STEREO_COUNT>
0
> <PUBCHEM_BOND_DEF_STEREO_COUNT>
0
> <PUBCHEM_BOND_UDEF_STEREO_COUNT>
0
> <PUBCHEM_ISOTOPIC_ATOM_COUNT>
0
> <PUBCHEM_COMPONENT_COUNT>
1
> <PUBCHEM_CACTVS_TAUTO_COUNT>
-1
> <PUBCHEM_COORDINATE_TYPE>
1
5
255
> <PUBCHEM_BONDANNOTATIONS>
30  16  6
34  17  6
33  18  5
37  19  6
48  21  6
64  22  5
43  49  8
43  51  8
44  50  8
44  52  8
49  55  8
50  56  8
51  57  8
52  58  8
55  60  8
56  61  8
57  60  8
58  61  8
62  67  8
62  68  8
67  69  8
68  70  8
69  72  8
70  72  8
$$$$
