501520
  -OEChem-10302200282D
 40 43  0     1  0  0  0  0  0999 V2000
    6.7485   -0.4856    0.0000 O   0  0  0  0  0  0  0  0  0  0  0  0
    6.7523    1.6900    0.0000 O   0  0  0  0  0  0  0  0  0  0  0  0
    4.6783   -1.1543    0.0000 N   0  0  0  0  0  0  0  0  0  0  0  0
    4.6783   -2.7638    0.0000 N   0  0  0  0  0  0  0  0  0  0  0  0
    2.8660   -0.9590    0.0000 N   0  0  0  0  0  0  0  0  0  0  0  0
    2.0000   -2.4590    0.0000 N   0  0  0  0  0  0  0  0  0  0  0  0
    2.8660   -3.9590    0.0000 N   0  0  0  0  0  0  0  0  0  0  0  0
    4.9889   -0.2038    0.0000 C   0  0  2  0  0  0  0  0  0  0  0  0
    4.9917    1.4143    0.0000 C   0  0  1  0  0  0  0  0  0  0  0  0
    4.4026    0.6063    0.0000 C   0  0  0  0  0  0  0  0  0  0  0  0
    5.9405    0.1036    0.0000 C   0  0  1  0  0  0  0  0  0  0  0  0
    5.9422    1.1036    0.0000 C   0  0  2  0  0  0  0  0  0  0  0  0
    4.6844    2.3658    0.0000 C   0  0  0  0  0  0  0  0  0  0  0  0
    3.7320   -1.4590    0.0000 C   0  0  0  0  0  0  0  0  0  0  0  0
    5.2619   -1.9590    0.0000 C   0  0  0  0  0  0  0  0  0  0  0  0
    5.3548    3.1078    0.0000 C   0  0  0  0  0  0  0  0  0  0  0  0
    3.7066    2.5754    0.0000 C   0  0  0  0  0  0  0  0  0  0  0  0
    3.7320   -2.4590    0.0000 C   0  0  0  0  0  0  0  0  0  0  0  0
    5.0474    4.0594    0.0000 C   0  0  0  0  0  0  0  0  0  0  0  0
    3.3992    3.5270    0.0000 C   0  0  0  0  0  0  0  0  0  0  0  0
    2.8660   -2.9590    0.0000 C   0  0  0  0  0  0  0  0  0  0  0  0
    4.0696    4.2690    0.0000 C   0  0  0  0  0  0  0  0  0  0  0  0
    2.0000   -1.4590    0.0000 C   0  0  0  0  0  0  0  0  0  0  0  0
    5.4266   -0.6429    0.0000 H   0  0  0  0  0  0  0  0  0  0  0  0
    5.4309    1.8519    0.0000 H   0  0  0  0  0  0  0  0  0  0  0  0
    3.9425    1.0219    0.0000 H   0  0  0  0  0  0  0  0  0  0  0  0
    3.9411    0.1922    0.0000 H   0  0  0  0  0  0  0  0  0  0  0  0
    6.4934    0.3841    0.0000 H   0  0  0  0  0  0  0  0  0  0  0  0
    6.4942    0.8212    0.0000 H   0  0  0  0  0  0  0  0  0  0  0  0
    7.3154   -0.2344    0.0000 H   0  0  0  0  0  0  0  0  0  0  0  0
    7.3182    1.4368    0.0000 H   0  0  0  0  0  0  0  0  0  0  0  0
    5.8819   -1.9590    0.0000 H   0  0  0  0  0  0  0  0  0  0  0  0
    5.9610    2.9779    0.0000 H   0  0  0  0  0  0  0  0  0  0  0  0
    3.2909    2.1154    0.0000 H   0  0  0  0  0  0  0  0  0  0  0  0
    5.4631    4.5194    0.0000 H   0  0  0  0  0  0  0  0  0  0  0  0
    2.7930    3.6570    0.0000 H   0  0  0  0  0  0  0  0  0  0  0  0
    3.8790    4.8590    0.0000 H   0  0  0  0  0  0  0  0  0  0  0  0
    1.4631   -1.1490    0.0000 H   0  0  0  0  0  0  0  0  0  0  0  0
    2.3291   -4.2690    0.0000 H   0  0  0  0  0  0  0  0  0  0  0  0
    3.4030   -4.2690    0.0000 H   0  0  0  0  0  0  0  0  0  0  0  0
 11  1  1  1  0  0  0
  1 30  1  0  0  0  0
 12  2  1  1  0  0  0
  2 31  1  0  0  0  0
  8  3  1  6  0  0  0
  3 14  1  0  0  0  0
  3 15  1  0  0  0  0
  4 15  2  0  0  0  0
  4 18  1  0  0  0  0
  5 14  2  0  0  0  0
  5 23  1  0  0  0  0
  6 21  1  0  0  0  0
  6 23  2  0  0  0  0
  7 21  1  0  0  0  0
  7 39  1  0  0  0  0
  7 40  1  0  0  0  0
  8 10  1  0  0  0  0
  8 11  1  0  0  0  0
  8 24  1  0  0  0  0
  9 10  1  0  0  0  0
  9 12  1  0  0  0  0
  9 13  1  6  0  0  0
  9 25  1  0  0  0  0
 10 26  1  0  0  0  0
 10 27  1  0  0  0  0
 11 12  1  0  0  0  0
 11 28  1  0  0  0  0
 12 29  1  0  0  0  0
 13 16  2  0  0  0  0
 13 17  1  0  0  0  0
 14 18  1  0  0  0  0
 15 32  1  0  0  0  0
 16 19  1  0  0  0  0
 16 33  1  0  0  0  0
 17 20  2  0  0  0  0
 17 34  1  0  0  0  0
 18 21  2  0  0  0  0
 19 22  2  0  0  0  0
 19 35  1  0  0  0  0
 20 22  1  0  0  0  0
 20 36  1  0  0  0  0
 22 37  1  0  0  0  0
 23 38  1  0  0  0  0
M  END
> <PUBCHEM_COMPOUND_CID>
501520
> <PUBCHEM_COMPOUND_CANONICALIZED>
1
> <PUBCHEM_CACTVS_COMPLEXITY>
419
> <PUBCHEM_CACTVS_HBOND_ACCEPTOR>
6
> <PUBCHEM_CACTVS_HBOND_DONOR>
3
> <PUBCHEM_CACTVS_ROTATABLE_BOND>
2
> <PUBCHEM_CACTVS_SUBSKEYS>
AAADceB7sAAAAAAAAAAAAAAAAAAAAeIAAAA8QAAAAAAAAFgB/AAAHgAQCAAADTzhnwY18L9MEgCgAyZjZACCgC0xEKAJ2CAoVJiLeCLA2VCUZAguwAPZiCew8PIOgAAAAAAAAAAAAAAAAAAAAKEABCgAAA==
> <PUBCHEM_IUPAC_OPENEYE_NAME>
(1R,2S,3R,5R)-3-(6-aminopurin-9-yl)-5-phenyl-cyclopentane-1,2-diol
> <PUBCHEM_IUPAC_CAS_NAME>
(1R,2S,3R,5R)-3-(6-aminopurin-9-yl)-5-phenylcyclopentane-1,2-diol
> <PUBCHEM_IUPAC_NAME_MARKUP>
(1<I>R</I>,2<I>S</I>,3<I>R</I>,5<I>R</I>)-3-(6-aminopurin-9-yl)-5-phenylcyclopentane-1,2-diol
> <PUBCHEM_IUPAC_NAME>
(1R,2S,3R,5R)-3-(6-aminopurin-9-yl)-5-phenylcyclopentane-1,2-diol
> <PUBCHEM_IUPAC_SYSTEMATIC_NAME>
(1R,2S,3R,5R)-3-(6-aminopurin-9-yl)-5-phenyl-cyclopentane-1,2-diol
> <PUBCHEM_IUPAC_TRADITIONAL_NAME>
(1R,2S,3R,5R)-3-adenin-9-yl-5-phenyl-cyclopentane-1,2-diol
> <PUBCHEM_IUPAC_INCHI>
InChI=1S/C16H17N5O2/c17-15-12-16(19-7-18-15)21(8-20-12)11-6-10(13(22)14(11)23)9-4-2-1-3-5-9/h1-5,7-8,10-11,13-14,22-23H,6H2,(H2,17,18,19)/t10-,11-,13-,14+/m1/s1
> <PUBCHEM_IUPAC_INCHIKEY>
WPMIGKWNOLLJPK-OXHZDVMGSA-N
> <PUBCHEM_XLOGP3_AA>
0.3
> <PUBCHEM_EXACT_MASS>
311.13822480
> <PUBCHEM_MOLECULAR_FORMULA>
C16H17N5O2
> <PUBCHEM_MOLECULAR_WEIGHT>
311.34
> <PUBCHEM_OPENEYE_CAN_SMILES>
C1C(C(C(C1N2C=NC3=C(N=CN=C32)N)O)O)C4=CC=CC=C4
> <PUBCHEM_OPENEYE_ISO_SMILES>
C1[C@@H]([C@H]([C@H]([C@@H]1N2C=NC3=C(N=CN=C32)N)O)O)C4=CC=CC=C4
> <PUBCHEM_CACTVS_TPSA>
110
> <PUBCHEM_MONOISOTOPIC_WEIGHT>
311.13822480
> <PUBCHEM_TOTAL_CHARGE>
0
> <PUBCHEM_HEAVY_ATOM_COUNT>
23
> <PUBCHEM_ATOM_DEF_STEREO_COUNT>
4
> <PUBCHEM_ATOM_UDEF_STEREO_COUNT>
0
> <PUBCHEM_BOND_DEF_STEREO_COUNT>
0
> <PUBCHEM_BOND_UDEF_STEREO_COUNT>
0
> <PUBCHEM_ISOTOPIC_ATOM_COUNT>
0
> <PUBCHEM_COMPONENT_COUNT>
1
> <PUBCHEM_CACTVS_TAUTO_COUNT>
-1
> <PUBCHEM_COORDINATE_TYPE>
1
5
255
> <PUBCHEM_BONDANNOTATIONS>
11  1  5
13  16  8
13  17  8
14  18  8
16  19  8
17  20  8
18  21  8
19  22  8
12  2  5
20  22  8
3  14  8
3  15  8
8  3  6
4  15  8
4  18  8
5  14  8
5  23  8
6  21  8
6  23  8
9  13  6
$$$$
