501502
  -OEChem-10302200282D
124126  0     1  0  0  0  0  0999 V2000
   11.5263    6.5600    0.0000 F   0  0  0  0  0  0  0  0  0  0  0  0
   13.2583    6.5600    0.0000 F   0  0  0  0  0  0  0  0  0  0  0  0
   13.2583    3.5600    0.0000 O   0  0  0  0  0  0  0  0  0  0  0  0
   12.3923    0.0600    0.0000 O   0  0  0  0  0  0  0  0  0  0  0  0
    8.9282   -0.9400    0.0000 O   0  0  0  0  0  0  0  0  0  0  0  0
   10.6603    6.0600    0.0000 O   0  0  0  0  0  0  0  0  0  0  0  0
    8.9282    3.0600    0.0000 O   0  0  0  0  0  0  0  0  0  0  0  0
    8.0622   -1.4400    0.0000 O   0  0  0  0  0  0  0  0  0  0  0  0
    8.9282    5.0600    0.0000 O   0  0  0  0  0  0  0  0  0  0  0  0
    8.0622    1.5600    0.0000 O   0  0  0  0  0  0  0  0  0  0  0  0
    9.7942    3.5600    0.0000 O   0  0  0  0  0  0  0  0  0  0  0  0
    5.4641   -3.9400    0.0000 O   0  0  0  0  0  0  0  0  0  0  0  0
    5.4641   -5.9400    0.0000 O   0  0  0  0  0  0  0  0  0  0  0  0
    7.1962   -5.9400    0.0000 O   0  0  0  0  0  0  0  0  0  0  0  0
    2.8660   -1.4400    0.0000 O   0  0  0  0  0  0  0  0  0  0  0  0
   11.5263    1.5600    0.0000 N   0  0  0  0  0  0  0  0  0  0  0  0
   11.5263    3.5600    0.0000 N   0  0  0  0  0  0  0  0  0  0  0  0
   10.6603   -0.9400    0.0000 N   0  0  0  0  0  0  0  0  0  0  0  0
    8.9282   -2.9400    0.0000 N   0  0  0  0  0  0  0  0  0  0  0  0
    6.3301   -2.4400    0.0000 N   0  0  0  0  0  0  0  0  0  0  0  0
    3.7320   -2.9400    0.0000 N   0  0  0  0  0  0  0  0  0  0  0  0
   14.1244    2.0600    0.0000 C   0  0  0  0  0  0  0  0  0  0  0  0
   14.1244    3.0600    0.0000 C   0  0  0  0  0  0  0  0  0  0  0  0
   14.9904    1.5600    0.0000 C   0  0  0  0  0  0  0  0  0  0  0  0
   13.2583    1.5600    0.0000 C   0  0  0  0  0  0  0  0  0  0  0  0
   14.9904    3.5600    0.0000 C   0  0  0  0  0  0  0  0  0  0  0  0
   15.8564    2.0600    0.0000 C   0  0  0  0  0  0  0  0  0  0  0  0
   15.8564    3.0600    0.0000 C   0  0  0  0  0  0  0  0  0  0  0  0
   12.3923    2.0600    0.0000 C   0  0  1  0  0  0  0  0  0  0  0  0
   12.3923    3.0600    0.0000 C   0  0  0  0  0  0  0  0  0  0  0  0
   11.5263    0.5600    0.0000 C   0  0  0  0  0  0  0  0  0  0  0  0
   10.6603    0.0600    0.0000 C   0  0  2  0  0  0  0  0  0  0  0  0
   11.5263    4.5600    0.0000 C   0  0  1  0  0  0  0  0  0  0  0  0
    9.7942    0.5600    0.0000 C   0  0  0  0  0  0  0  0  0  0  0  0
   12.3923    5.0600    0.0000 C   0  0  0  0  0  0  0  0  0  0  0  0
    9.7942   -2.4400    0.0000 C   0  0  1  0  0  0  0  0  0  0  0  0
   10.6603   -2.9400    0.0000 C   0  0  0  0  0  0  0  0  0  0  0  0
    9.7942   -1.4400    0.0000 C   0  0  0  0  0  0  0  0  0  0  0  0
    9.7942    1.5600    0.0000 C   0  0  0  0  0  0  0  0  0  0  0  0
   10.6603    5.0600    0.0000 C   0  0  0  0  0  0  0  0  0  0  0  0
   12.3923    6.0600    0.0000 C   0  0  0  0  0  0  0  0  0  0  0  0
   10.6603   -3.9400    0.0000 C   0  0  0  0  0  0  0  0  0  0  0  0
   11.6603   -2.9400    0.0000 C   0  0  0  0  0  0  0  0  0  0  0  0
    7.1962   -2.9400    0.0000 C   0  0  2  0  0  0  0  0  0  0  0  0
    8.0622   -2.4400    0.0000 C   0  0  0  0  0  0  0  0  0  0  0  0
    8.9282    2.0600    0.0000 C   0  0  0  0  0  0  0  0  0  0  0  0
    9.7942    4.5600    0.0000 C   0  0  0  0  0  0  0  0  0  0  0  0
    7.1962   -3.9400    0.0000 C   0  0  0  0  0  0  0  0  0  0  0  0
    9.7942   -4.4400    0.0000 C   0  0  0  0  0  0  0  0  0  0  0  0
   12.1603   -2.0740    0.0000 C   0  0  0  0  0  0  0  0  0  0  0  0
   11.5263   -4.4400    0.0000 C   0  0  0  0  0  0  0  0  0  0  0  0
   12.1603   -3.8060    0.0000 C   0  0  0  0  0  0  0  0  0  0  0  0
    6.3301   -4.4400    0.0000 C   0  0  0  0  0  0  0  0  0  0  0  0
    9.7942   -5.4400    0.0000 C   0  0  0  0  0  0  0  0  0  0  0  0
   13.1603   -2.0740    0.0000 C   0  0  0  0  0  0  0  0  0  0  0  0
   11.5263   -5.4400    0.0000 C   0  0  0  0  0  0  0  0  0  0  0  0
   13.1603   -3.8060    0.0000 C   0  0  0  0  0  0  0  0  0  0  0  0
    5.4641   -2.9400    0.0000 C   0  0  0  0  0  0  0  0  0  0  0  0
    4.5981   -2.4400    0.0000 C   0  0  2  0  0  0  0  0  0  0  0  0
   10.6603   -5.9400    0.0000 C   0  0  0  0  0  0  0  0  0  0  0  0
   13.6603   -2.9400    0.0000 C   0  0  0  0  0  0  0  0  0  0  0  0
    4.5981   -1.4400    0.0000 C   0  0  0  0  0  0  0  0  0  0  0  0
    6.3301   -5.4400    0.0000 C   0  0  0  0  0  0  0  0  0  0  0  0
    3.7320   -0.9400    0.0000 C   0  0  0  0  0  0  0  0  0  0  0  0
    2.8660   -2.4400    0.0000 C   0  0  0  0  0  0  0  0  0  0  0  0
    2.0000   -2.9400    0.0000 C   0  0  0  0  0  0  0  0  0  0  0  0
   13.5874    2.3700    0.0000 H   0  0  0  0  0  0  0  0  0  0  0  0
   13.9123    3.6426    0.0000 H   0  0  0  0  0  0  0  0  0  0  0  0
   13.5138    2.9523    0.0000 H   0  0  0  0  0  0  0  0  0  0  0  0
   14.5919    1.0850    0.0000 H   0  0  0  0  0  0  0  0  0  0  0  0
   15.3889    1.0850    0.0000 H   0  0  0  0  0  0  0  0  0  0  0  0
   12.8598    1.0850    0.0000 H   0  0  0  0  0  0  0  0  0  0  0  0
   13.6569    1.0850    0.0000 H   0  0  0  0  0  0  0  0  0  0  0  0
   15.3889    4.0350    0.0000 H   0  0  0  0  0  0  0  0  0  0  0  0
   14.5919    4.0350    0.0000 H   0  0  0  0  0  0  0  0  0  0  0  0
   16.0685    1.4774    0.0000 H   0  0  0  0  0  0  0  0  0  0  0  0
   16.4670    2.1677    0.0000 H   0  0  0  0  0  0  0  0  0  0  0  0
   16.4670    2.9523    0.0000 H   0  0  0  0  0  0  0  0  0  0  0  0
   16.0685    3.6426    0.0000 H   0  0  0  0  0  0  0  0  0  0  0  0
   11.8554    2.3700    0.0000 H   0  0  0  0  0  0  0  0  0  0  0  0
   10.9893    1.8700    0.0000 H   0  0  0  0  0  0  0  0  0  0  0  0
   10.9893    3.2500    0.0000 H   0  0  0  0  0  0  0  0  0  0  0  0
   11.1972   -0.2500    0.0000 H   0  0  0  0  0  0  0  0  0  0  0  0
   12.0632    4.2500    0.0000 H   0  0  0  0  0  0  0  0  0  0  0  0
    9.1836    0.6677    0.0000 H   0  0  0  0  0  0  0  0  0  0  0  0
    9.5822   -0.0226    0.0000 H   0  0  0  0  0  0  0  0  0  0  0  0
   11.1972   -1.2500    0.0000 H   0  0  0  0  0  0  0  0  0  0  0  0
    9.2573   -2.1300    0.0000 H   0  0  0  0  0  0  0  0  0  0  0  0
   12.6044    4.4774    0.0000 H   0  0  0  0  0  0  0  0  0  0  0  0
   13.0029    5.1677    0.0000 H   0  0  0  0  0  0  0  0  0  0  0  0
   10.8207   -2.3411    0.0000 H   0  0  0  0  0  0  0  0  0  0  0  0
   10.4048    1.4523    0.0000 H   0  0  0  0  0  0  0  0  0  0  0  0
   10.0063    2.1426    0.0000 H   0  0  0  0  0  0  0  0  0  0  0  0
    8.9282   -3.5600    0.0000 H   0  0  0  0  0  0  0  0  0  0  0  0
   11.8554    5.7500    0.0000 H   0  0  0  0  0  0  0  0  0  0  0  0
    6.6592   -3.2500    0.0000 H   0  0  0  0  0  0  0  0  0  0  0  0
    7.4082   -4.5226    0.0000 H   0  0  0  0  0  0  0  0  0  0  0  0
    7.8067   -3.8323    0.0000 H   0  0  0  0  0  0  0  0  0  0  0  0
    9.2573   -4.1300    0.0000 H   0  0  0  0  0  0  0  0  0  0  0  0
   11.8503   -1.5370    0.0000 H   0  0  0  0  0  0  0  0  0  0  0  0
   12.0632   -4.1300    0.0000 H   0  0  0  0  0  0  0  0  0  0  0  0
   11.8503   -4.3430    0.0000 H   0  0  0  0  0  0  0  0  0  0  0  0
    6.3301   -1.8200    0.0000 H   0  0  0  0  0  0  0  0  0  0  0  0
    6.1181   -3.8574    0.0000 H   0  0  0  0  0  0  0  0  0  0  0  0
    5.7196   -4.5477    0.0000 H   0  0  0  0  0  0  0  0  0  0  0  0
    9.2573   -5.7500    0.0000 H   0  0  0  0  0  0  0  0  0  0  0  0
   13.4703   -1.5370    0.0000 H   0  0  0  0  0  0  0  0  0  0  0  0
   12.0632   -5.7500    0.0000 H   0  0  0  0  0  0  0  0  0  0  0  0
   13.4703   -4.3430    0.0000 H   0  0  0  0  0  0  0  0  0  0  0  0
    4.5981   -3.0600    0.0000 H   0  0  0  0  0  0  0  0  0  0  0  0
   10.6603   -6.5600    0.0000 H   0  0  0  0  0  0  0  0  0  0  0  0
   14.2803   -2.9400    0.0000 H   0  0  0  0  0  0  0  0  0  0  0  0
    8.3913    3.3700    0.0000 H   0  0  0  0  0  0  0  0  0  0  0  0
    8.3913    4.7500    0.0000 H   0  0  0  0  0  0  0  0  0  0  0  0
    5.2087   -1.5477    0.0000 H   0  0  0  0  0  0  0  0  0  0  0  0
    4.8101   -0.8574    0.0000 H   0  0  0  0  0  0  0  0  0  0  0  0
    3.7320   -3.5600    0.0000 H   0  0  0  0  0  0  0  0  0  0  0  0
    4.0420   -0.4031    0.0000 H   0  0  0  0  0  0  0  0  0  0  0  0
    3.1951   -0.6300    0.0000 H   0  0  0  0  0  0  0  0  0  0  0  0
    3.4220   -1.4769    0.0000 H   0  0  0  0  0  0  0  0  0  0  0  0
    5.4641   -6.5600    0.0000 H   0  0  0  0  0  0  0  0  0  0  0  0
    1.6900   -2.4031    0.0000 H   0  0  0  0  0  0  0  0  0  0  0  0
    1.4631   -3.2500    0.0000 H   0  0  0  0  0  0  0  0  0  0  0  0
    2.3100   -3.4769    0.0000 H   0  0  0  0  0  0  0  0  0  0  0  0
  1 41  1  0  0  0  0
  2 41  1  0  0  0  0
  3 30  2  0  0  0  0
  4 31  2  0  0  0  0
  5 38  2  0  0  0  0
  6 40  2  0  0  0  0
  7 46  1  0  0  0  0
  7113  1  0  0  0  0
  8 45  2  0  0  0  0
  9 47  1  0  0  0  0
  9114  1  0  0  0  0
 10 46  2  0  0  0  0
 11 47  2  0  0  0  0
 12 58  2  0  0  0  0
 13 63  1  0  0  0  0
 13121  1  0  0  0  0
 14 63  2  0  0  0  0
 15 65  2  0  0  0  0
 29 16  1  6  0  0  0
 16 31  1  0  0  0  0
 16 81  1  0  0  0  0
 17 30  1  0  0  0  0
 33 17  1  6  0  0  0
 17 82  1  0  0  0  0
 32 18  1  1  0  0  0
 18 38  1  0  0  0  0
 18 87  1  0  0  0  0
 36 19  1  6  0  0  0
 19 45  1  0  0  0  0
 19 94  1  0  0  0  0
 44 20  1  6  0  0  0
 20 58  1  0  0  0  0
 20103  1  0  0  0  0
 59 21  1  1  0  0  0
 21 65  1  0  0  0  0
 21117  1  0  0  0  0
 22 23  1  0  0  0  0
 22 24  1  0  0  0  0
 22 25  1  0  0  0  0
 22 67  1  0  0  0  0
 23 26  1  0  0  0  0
 23 68  1  0  0  0  0
 23 69  1  0  0  0  0
 24 27  1  0  0  0  0
 24 70  1  0  0  0  0
 24 71  1  0  0  0  0
 25 29  1  0  0  0  0
 25 72  1  0  0  0  0
 25 73  1  0  0  0  0
 26 28  1  0  0  0  0
 26 74  1  0  0  0  0
 26 75  1  0  0  0  0
 27 28  1  0  0  0  0
 27 76  1  0  0  0  0
 27 77  1  0  0  0  0
 28 78  1  0  0  0  0
 28 79  1  0  0  0  0
 29 30  1  0  0  0  0
 29 80  1  0  0  0  0
 31 32  1  0  0  0  0
 32 34  1  0  0  0  0
 32 83  1  0  0  0  0
 33 35  1  0  0  0  0
 33 40  1  0  0  0  0
 33 84  1  0  0  0  0
 34 39  1  0  0  0  0
 34 85  1  0  0  0  0
 34 86  1  0  0  0  0
 35 41  1  0  0  0  0
 35 89  1  0  0  0  0
 35 90  1  0  0  0  0
 36 37  1  0  0  0  0
 36 38  1  0  0  0  0
 36 88  1  0  0  0  0
 37 42  1  0  0  0  0
 37 43  1  0  0  0  0
 37 91  1  0  0  0  0
 39 46  1  0  0  0  0
 39 92  1  0  0  0  0
 39 93  1  0  0  0  0
 40 47  1  0  0  0  0
 41 95  1  0  0  0  0
 42 49  2  0  0  0  0
 42 51  1  0  0  0  0
 43 50  2  0  0  0  0
 43 52  1  0  0  0  0
 44 45  1  0  0  0  0
 44 48  1  0  0  0  0
 44 96  1  0  0  0  0
 48 53  1  0  0  0  0
 48 97  1  0  0  0  0
 48 98  1  0  0  0  0
 49 54  1  0  0  0  0
 49 99  1  0  0  0  0
 50 55  1  0  0  0  0
 50100  1  0  0  0  0
 51 56  2  0  0  0  0
 51101  1  0  0  0  0
 52 57  2  0  0  0  0
 52102  1  0  0  0  0
 53 63  1  0  0  0  0
 53104  1  0  0  0  0
 53105  1  0  0  0  0
 54 60  2  0  0  0  0
 54106  1  0  0  0  0
 55 61  2  0  0  0  0
 55107  1  0  0  0  0
 56 60  1  0  0  0  0
 56108  1  0  0  0  0
 57 61  1  0  0  0  0
 57109  1  0  0  0  0
 58 59  1  0  0  0  0
 59 62  1  0  0  0  0
 59110  1  0  0  0  0
 60111  1  0  0  0  0
 61112  1  0  0  0  0
 62 64  1  0  0  0  0
 62115  1  0  0  0  0
 62116  1  0  0  0  0
 64118  1  0  0  0  0
 64119  1  0  0  0  0
 64120  1  0  0  0  0
 65 66  1  0  0  0  0
 66122  1  0  0  0  0
 66123  1  0  0  0  0
 66124  1  0  0  0  0
M  END
> <PUBCHEM_COMPOUND_CID>
501502
> <PUBCHEM_COMPOUND_CANONICALIZED>
1
> <PUBCHEM_CACTVS_COMPLEXITY>
1680
> <PUBCHEM_CACTVS_HBOND_ACCEPTOR>
15
> <PUBCHEM_CACTVS_HBOND_DONOR>
9
> <PUBCHEM_CACTVS_ROTATABLE_BOND>
27
> <PUBCHEM_CACTVS_SUBSKEYS>
AAADcfB/vYAAAAAAAAAAAAAAAAAAAAAAAAAwYMAAAAAAAAABQAAAHwAQCAAADSzBmBQyCILAAgCIAqHSGAICAAAgAAAIiIHIAIgIYDqAkTGUYAAmlgCIiAe8n8KOgAAAAAAAAAAAAAAAAAAAAAAAAAAAAA==
> <PUBCHEM_IUPAC_OPENEYE_NAME>
(3S)-3-[[(2S)-2-[[(2S)-2-[[(2S)-2-[[(2S)-2-[[(2S)-2-acetamidobutanoyl]amino]-4-carboxy-butanoyl]amino]-3,3-diphenyl-propanoyl]amino]-4-carboxy-butanoyl]amino]-3-cyclohexyl-propanoyl]amino]-5,5-difluoro-2-oxo-pentanoic acid
> <PUBCHEM_IUPAC_CAS_NAME>
(3S)-3-[[(2S)-2-[[(2S)-2-[[(2S)-2-[[(2S)-2-[[(2S)-2-acetamido-1-oxobutyl]amino]-4-carboxy-1-oxobutyl]amino]-1-oxo-3,3-diphenylpropyl]amino]-4-carboxy-1-oxobutyl]amino]-3-cyclohexyl-1-oxopropyl]amino]-5,5-difluoro-2-oxopentanoic acid
> <PUBCHEM_IUPAC_NAME_MARKUP>
(3<I>S</I>)-3-[[(2<I>S</I>)-2-[[(2<I>S</I>)-2-[[(2<I>S</I>)-2-[[(2<I>S</I>)-2-[[(2<I>S</I>)-2-acetamidobutanoyl]amino]-4-carboxybutanoyl]amino]-3,3-diphenylpropanoyl]amino]-4-carboxybutanoyl]amino]-3-cyclohexylpropanoyl]amino]-5,5-difluoro-2-oxopentanoic acid
> <PUBCHEM_IUPAC_NAME>
(3S)-3-[[(2S)-2-[[(2S)-2-[[(2S)-2-[[(2S)-2-[[(2S)-2-acetamidobutanoyl]amino]-4-carboxybutanoyl]amino]-3,3-diphenylpropanoyl]amino]-4-carboxybutanoyl]amino]-3-cyclohexylpropanoyl]amino]-5,5-difluoro-2-oxopentanoic acid
> <PUBCHEM_IUPAC_SYSTEMATIC_NAME>
(3S)-3-[[(2S)-2-[[(2S)-2-[[(2S)-2-[[(2S)-2-[[(2S)-2-acetamidobutanoyl]amino]-5-oxidanyl-5-oxidanylidene-pentanoyl]amino]-3,3-diphenyl-propanoyl]amino]-5-oxidanyl-5-oxidanylidene-pentanoyl]amino]-3-cyclohexyl-propanoyl]amino]-5,5-bis(fluoranyl)-2-oxidanylidene-pentanoic acid
> <PUBCHEM_IUPAC_TRADITIONAL_NAME>
(3S)-3-[[(2S)-2-[[(2S)-2-[[(2S)-2-[[(2S)-2-[[(2S)-2-acetamidobutanoyl]amino]-4-carboxy-butanoyl]amino]-3,3-diphenyl-propanoyl]amino]-4-carboxy-butanoyl]amino]-3-cyclohexyl-propanoyl]amino]-5,5-difluoro-2-keto-valeric acid
> <PUBCHEM_IUPAC_INCHI>
InChI=1S/C45H58F2N6O13/c1-3-29(48-25(2)54)40(60)49-31(20-22-36(57)58)42(62)53-38(37(27-15-9-5-10-16-27)28-17-11-6-12-18-28)44(64)50-30(19-21-35(55)56)41(61)52-33(23-26-13-7-4-8-14-26)43(63)51-32(24-34(46)47)39(59)45(65)66/h5-6,9-12,15-18,26,29-34,37-38H,3-4,7-8,13-14,19-24H2,1-2H3,(H,48,54)(H,49,60)(H,50,64)(H,51,63)(H,52,61)(H,53,62)(H,55,56)(H,57,58)(H,65,66)/t29-,30-,31-,32-,33-,38-/m0/s1
> <PUBCHEM_IUPAC_INCHIKEY>
POUZPTDGGVKZEF-PRSJUXBDSA-N
> <PUBCHEM_XLOGP3_AA>
4.3
> <PUBCHEM_EXACT_MASS>
928.40299225
> <PUBCHEM_MOLECULAR_FORMULA>
C45H58F2N6O13
> <PUBCHEM_MOLECULAR_WEIGHT>
929.0
> <PUBCHEM_OPENEYE_CAN_SMILES>
CCC(C(=O)NC(CCC(=O)O)C(=O)NC(C(C1=CC=CC=C1)C2=CC=CC=C2)C(=O)NC(CCC(=O)O)C(=O)NC(CC3CCCCC3)C(=O)NC(CC(F)F)C(=O)C(=O)O)NC(=O)C
> <PUBCHEM_OPENEYE_ISO_SMILES>
CC[C@@H](C(=O)N[C@@H](CCC(=O)O)C(=O)N[C@@H](C(C1=CC=CC=C1)C2=CC=CC=C2)C(=O)N[C@@H](CCC(=O)O)C(=O)N[C@@H](CC3CCCCC3)C(=O)N[C@@H](CC(F)F)C(=O)C(=O)O)NC(=O)C
> <PUBCHEM_CACTVS_TPSA>
304
> <PUBCHEM_MONOISOTOPIC_WEIGHT>
928.40299225
> <PUBCHEM_TOTAL_CHARGE>
0
> <PUBCHEM_HEAVY_ATOM_COUNT>
66
> <PUBCHEM_ATOM_DEF_STEREO_COUNT>
6
> <PUBCHEM_ATOM_UDEF_STEREO_COUNT>
0
> <PUBCHEM_BOND_DEF_STEREO_COUNT>
0
> <PUBCHEM_BOND_UDEF_STEREO_COUNT>
0
> <PUBCHEM_ISOTOPIC_ATOM_COUNT>
0
> <PUBCHEM_COMPONENT_COUNT>
1
> <PUBCHEM_CACTVS_TAUTO_COUNT>
-1
> <PUBCHEM_COORDINATE_TYPE>
1
5
255
> <PUBCHEM_BONDANNOTATIONS>
29  16  6
33  17  6
32  18  5
36  19  6
44  20  6
59  21  5
42  49  8
42  51  8
43  50  8
43  52  8
49  54  8
50  55  8
51  56  8
52  57  8
54  60  8
55  61  8
56  60  8
57  61  8
$$$$
