501535
  -OEChem-10302200282D
 46 48  0     1  0  0  0  0  0999 V2000
    4.2690   -6.4086    0.0000 Cl  0  0  0  0  0  0  0  0  0  0  0  0
    6.4504    1.6098    0.0000 P   0  0  3  0  0  0  0  0  0  0  0  0
    6.8134    3.3034    0.0000 P   0  0  3  0  0  0  0  0  0  0  0  0
    7.1765    4.9970    0.0000 P   0  0  0  0  0  0  0  0  0  0  0  0
    5.8055   -1.8433    0.0000 O   0  0  0  0  0  0  0  0  0  0  0  0
    8.1515   -2.9352    0.0000 O   0  0  0  0  0  0  0  0  0  0  0  0
    6.7577    0.6582    0.0000 O   0  0  0  0  0  0  0  0  0  0  0  0
    6.1430    2.5614    0.0000 O   0  0  0  0  0  0  0  0  0  0  0  0
    7.4020    1.9172    0.0000 O   0  0  0  0  0  0  0  0  0  0  0  0
    5.4988    1.3025    0.0000 O   0  0  0  0  0  0  0  0  0  0  0  0
    7.4838    4.0454    0.0000 O   0  0  0  0  0  0  0  0  0  0  0  0
    6.0714    3.9738    0.0000 O   0  0  0  0  0  0  0  0  0  0  0  0
    7.5554    2.6330    0.0000 O   0  0  0  0  0  0  0  0  0  0  0  0
    6.8691    5.9486    0.0000 O   0  0  0  0  0  0  0  0  0  0  0  0
    8.1280    5.3044    0.0000 O   0  0  0  0  0  0  0  0  0  0  0  0
    6.2249    4.6896    0.0000 O   0  0  0  0  0  0  0  0  0  0  0  0
    6.0812   -3.6039    0.0000 N   0  0  0  0  0  0  0  0  0  0  0  0
    6.0812   -5.2133    0.0000 N   0  0  0  0  0  0  0  0  0  0  0  0
    4.2690   -3.4086    0.0000 N   0  0  0  0  0  0  0  0  0  0  0  0
    3.4030   -4.9086    0.0000 N   0  0  0  0  0  0  0  0  0  0  0  0
    2.5369   -3.4086    0.0000 N   0  0  0  0  0  0  0  0  0  0  0  0
    7.3435   -2.3460    0.0000 C   0  0  1  0  0  0  0  0  0  0  0  0
    6.3919   -2.6534    0.0000 C   0  0  1  0  0  0  0  0  0  0  0  0
    6.3947   -1.0353    0.0000 C   0  0  1  0  0  0  0  0  0  0  0  0
    7.3452   -1.3460    0.0000 C   0  0  0  0  0  0  0  0  0  0  0  0
    6.0873   -0.0837    0.0000 C   0  0  0  0  0  0  0  0  0  0  0  0
    5.1350   -3.9086    0.0000 C   0  0  0  0  0  0  0  0  0  0  0  0
    6.6648   -4.4086    0.0000 C   0  0  0  0  0  0  0  0  0  0  0  0
    5.1350   -4.9086    0.0000 C   0  0  0  0  0  0  0  0  0  0  0  0
    4.2690   -5.4086    0.0000 C   0  0  0  0  0  0  0  0  0  0  0  0
    3.4030   -3.9086    0.0000 C   0  0  0  0  0  0  0  0  0  0  0  0
    7.2454   -2.9582    0.0000 H   0  0  0  0  0  0  0  0  0  0  0  0
    5.7794   -2.7493    0.0000 H   0  0  0  0  0  0  0  0  0  0  0  0
    5.7825   -0.9373    0.0000 H   0  0  0  0  0  0  0  0  0  0  0  0
    7.9617   -1.4119    0.0000 H   0  0  0  0  0  0  0  0  0  0  0  0
    7.4752   -0.7398    0.0000 H   0  0  0  0  0  0  0  0  0  0  0  0
    5.7065    0.4055    0.0000 H   0  0  0  0  0  0  0  0  0  0  0  0
    5.5394   -0.3739    0.0000 H   0  0  0  0  0  0  0  0  0  0  0  0
    8.7183   -2.6840    0.0000 H   0  0  0  0  0  0  0  0  0  0  0  0
    7.2848   -4.4086    0.0000 H   0  0  0  0  0  0  0  0  0  0  0  0
    7.8620    1.5016    0.0000 H   0  0  0  0  0  0  0  0  0  0  0  0
    2.0000   -3.7186    0.0000 H   0  0  0  0  0  0  0  0  0  0  0  0
    2.5369   -2.7886    0.0000 H   0  0  0  0  0  0  0  0  0  0  0  0
    5.4814    3.7833    0.0000 H   0  0  0  0  0  0  0  0  0  0  0  0
    7.2847    6.4086    0.0000 H   0  0  0  0  0  0  0  0  0  0  0  0
    8.5881    4.8887    0.0000 H   0  0  0  0  0  0  0  0  0  0  0  0
  1 30  1  0  0  0  0
  2  7  1  0  0  0  0
  2  8  1  0  0  0  0
  2  9  1  0  0  0  0
  2 10  2  0  0  0  0
  3  8  1  0  0  0  0
  3 11  1  0  0  0  0
  3 12  1  0  0  0  0
  3 13  2  0  0  0  0
  4 11  1  0  0  0  0
  4 14  1  0  0  0  0
  4 15  1  0  0  0  0
  4 16  2  0  0  0  0
  5 23  1  0  0  0  0
  5 24  1  0  0  0  0
 22  6  1  1  0  0  0
  6 39  1  0  0  0  0
  7 26  1  0  0  0  0
  9 41  1  0  0  0  0
 12 44  1  0  0  0  0
 14 45  1  0  0  0  0
 15 46  1  0  0  0  0
 23 17  1  6  0  0  0
 17 27  1  0  0  0  0
 17 28  1  0  0  0  0
 18 28  2  0  0  0  0
 18 29  1  0  0  0  0
 19 27  1  0  0  0  0
 19 31  2  0  0  0  0
 20 30  2  0  0  0  0
 20 31  1  0  0  0  0
 21 31  1  0  0  0  0
 21 42  1  0  0  0  0
 21 43  1  0  0  0  0
 22 23  1  0  0  0  0
 22 25  1  0  0  0  0
 22 32  1  0  0  0  0
 23 33  1  0  0  0  0
 24 25  1  0  0  0  0
 24 26  1  6  0  0  0
 24 34  1  0  0  0  0
 25 35  1  0  0  0  0
 25 36  1  0  0  0  0
 26 37  1  0  0  0  0
 26 38  1  0  0  0  0
 27 29  2  0  0  0  0
 28 40  1  0  0  0  0
 29 30  1  0  0  0  0
M  END
> <PUBCHEM_COMPOUND_CID>
501535
> <PUBCHEM_COMPOUND_CANONICALIZED>
1
> <PUBCHEM_CACTVS_COMPLEXITY>
805
> <PUBCHEM_CACTVS_HBOND_ACCEPTOR>
16
> <PUBCHEM_CACTVS_HBOND_DONOR>
6
> <PUBCHEM_CACTVS_ROTATABLE_BOND>
8
> <PUBCHEM_CACTVS_SUBSKEYS>
AAADccBzvAMEAAAAAAAAAAAAAAAAAWJAAAAsAAAAAAAAAFgB+AAAHgIQCCAACB7hlyYF8L9MFxCgQQZhZICAgC0RFKABUCAoVhCDWAJAyEBeRAgNAALTACDwMAIAAAAAAAAAAAAAAAAAAAAAAAAAAAAAAA==
> <PUBCHEM_IUPAC_OPENEYE_NAME>
[[(2S,4R,5R)-5-(2-amino-6-chloro-purin-9-yl)-4-hydroxy-tetrahydrofuran-2-yl]methoxy-hydroxy-phosphoryl] phosphono hydrogen phosphate
> <PUBCHEM_IUPAC_CAS_NAME>
[[(2S,4R,5R)-5-(2-amino-6-chloro-9-purinyl)-4-hydroxy-2-oxolanyl]methoxy-hydroxyphosphoryl] phosphono hydrogen phosphate
> <PUBCHEM_IUPAC_NAME_MARKUP>
[[(2<I>S</I>,4<I>R</I>,5<I>R</I>)-5-(2-amino-6-chloropurin-9-yl)-4-hydroxyoxolan-2-yl]methoxy-hydroxyphosphoryl] phosphono hydrogen phosphate
> <PUBCHEM_IUPAC_NAME>
[[(2S,4R,5R)-5-(2-amino-6-chloropurin-9-yl)-4-hydroxyoxolan-2-yl]methoxy-hydroxyphosphoryl] phosphono hydrogen phosphate
> <PUBCHEM_IUPAC_SYSTEMATIC_NAME>
[[(2S,4R,5R)-5-(2-azanyl-6-chloranyl-purin-9-yl)-4-oxidanyl-oxolan-2-yl]methoxy-oxidanyl-phosphoryl] phosphono hydrogen phosphate
> <PUBCHEM_IUPAC_TRADITIONAL_NAME>
[[(2S,4R,5R)-5-(2-amino-6-chloro-purin-9-yl)-4-hydroxy-tetrahydrofuran-2-yl]methoxy-hydroxy-phosphoryl] phosphono hydrogen phosphate
> <PUBCHEM_IUPAC_INCHI>
InChI=1S/C10H15ClN5O12P3/c11-7-6-8(15-10(12)14-7)16(3-13-6)9-5(17)1-4(26-9)2-25-30(21,22)28-31(23,24)27-29(18,19)20/h3-5,9,17H,1-2H2,(H,21,22)(H,23,24)(H2,12,14,15)(H2,18,19,20)/t4-,5+,9+/m0/s1
> <PUBCHEM_IUPAC_INCHIKEY>
JUVXMUFMRVSWLA-OBXARNEKSA-N
> <PUBCHEM_XLOGP3>
-3
> <PUBCHEM_EXACT_MASS>
524.9618596
> <PUBCHEM_MOLECULAR_FORMULA>
C10H15ClN5O12P3
> <PUBCHEM_MOLECULAR_WEIGHT>
525.63
> <PUBCHEM_OPENEYE_CAN_SMILES>
C1C(OC(C1O)N2C=NC3=C2N=C(N=C3Cl)N)COP(=O)(O)OP(=O)(O)OP(=O)(O)O
> <PUBCHEM_OPENEYE_ISO_SMILES>
C1[C@H](O[C@H]([C@@H]1O)N2C=NC3=C2N=C(N=C3Cl)N)COP(=O)(O)OP(=O)(O)OP(=O)(O)O
> <PUBCHEM_CACTVS_TPSA>
259
> <PUBCHEM_MONOISOTOPIC_WEIGHT>
524.9618596
> <PUBCHEM_TOTAL_CHARGE>
0
> <PUBCHEM_HEAVY_ATOM_COUNT>
31
> <PUBCHEM_ATOM_DEF_STEREO_COUNT>
3
> <PUBCHEM_ATOM_UDEF_STEREO_COUNT>
0
> <PUBCHEM_BOND_DEF_STEREO_COUNT>
0
> <PUBCHEM_BOND_UDEF_STEREO_COUNT>
0
> <PUBCHEM_ISOTOPIC_ATOM_COUNT>
0
> <PUBCHEM_COMPONENT_COUNT>
1
> <PUBCHEM_CACTVS_TAUTO_COUNT>
-1
> <PUBCHEM_COORDINATE_TYPE>
1
5
255
> <PUBCHEM_BONDANNOTATIONS>
23  17  6
17  27  8
17  28  8
18  28  8
18  29  8
19  27  8
19  31  8
20  30  8
20  31  8
24  26  6
27  29  8
29  30  8
22  6  5
$$$$
