501506
  -OEChem-10302200282D
 64 69  0     1  0  0  0  0  0999 V2000
    6.0427   -1.2143    0.0000 O   0  0  0  0  0  0  0  0  0  0  0  0
    6.9367    1.2510    0.0000 O   0  0  0  0  0  0  0  0  0  0  0  0
    8.7068    3.3098    0.0000 O   0  0  0  0  0  0  0  0  0  0  0  0
    3.4446    0.2857    0.0000 O   0  0  0  0  0  0  0  0  0  0  0  0
    3.4446    1.2857    0.0000 O   0  0  0  0  0  0  0  0  0  0  0  0
    5.1767    4.2857    0.0000 O   0  0  0  0  0  0  0  0  0  0  0  0
    6.9251    4.3202    0.0000 O   0  0  0  0  0  0  0  0  0  0  0  0
    2.5405   -1.2112    0.0000 O   0  0  0  0  0  0  0  0  0  0  0  0
    4.2986   -4.2836    0.0000 O   0  0  0  0  0  0  0  0  0  0  0  0
    9.5068   -2.2143    0.0000 O   0  0  0  0  0  0  0  0  0  0  0  0
   11.3068    1.7515    0.0000 O   0  0  0  0  0  0  0  0  0  0  0  0
   11.2991   -0.2485    0.0000 O   0  0  0  0  0  0  0  0  0  0  0  0
    5.1767    0.2857    0.0000 C   0  0  3  0  0  0  0  0  0  0  0  0
    6.0427   -0.2143    0.0000 C   0  0  3  0  0  0  0  0  0  0  0  0
    5.1767    1.2857    0.0000 C   0  0  0  0  0  0  0  0  0  0  0  0
    6.0427    1.7857    0.0000 C   0  0  0  0  0  0  0  0  0  0  0  0
    4.3107   -0.2143    0.0000 C   0  0  0  0  0  0  0  0  0  0  0  0
    7.8427    1.7648    0.0000 C   0  0  3  0  0  0  0  0  0  0  0  0
    6.0427    2.7857    0.0000 C   0  0  0  0  0  0  0  0  0  0  0  0
    7.8427    2.8065    0.0000 C   0  0  3  0  0  0  0  0  0  0  0  0
    6.9088   -0.7143    0.0000 C   0  0  0  0  0  0  0  0  0  0  0  0
    4.3107   -1.2143    0.0000 C   0  0  0  0  0  0  0  0  0  0  0  0
    4.3107    1.7857    0.0000 C   0  0  0  0  0  0  0  0  0  0  0  0
    6.9367    3.3203    0.0000 C   0  0  0  0  0  0  0  0  0  0  0  0
    5.1767   -1.7143    0.0000 C   0  0  0  0  0  0  0  0  0  0  0  0
    5.1767    3.2857    0.0000 C   0  0  0  0  0  0  0  0  0  0  0  0
    8.7068    1.2615    0.0000 C   0  0  0  0  0  0  0  0  0  0  0  0
    4.3107    2.7857    0.0000 C   0  0  0  0  0  0  0  0  0  0  0  0
    3.4007   -1.7212    0.0000 C   0  0  0  0  0  0  0  0  0  0  0  0
    7.7748   -0.2143    0.0000 C   0  0  0  0  0  0  0  0  0  0  0  0
    6.9088   -1.7143    0.0000 C   0  0  0  0  0  0  0  0  0  0  0  0
    5.1928   -2.7558    0.0000 C   0  0  0  0  0  0  0  0  0  0  0  0
    9.5748    1.7582    0.0000 C   0  0  0  0  0  0  0  0  0  0  0  0
    8.7030    0.2615    0.0000 C   0  0  0  0  0  0  0  0  0  0  0  0
    3.3926   -2.7628    0.0000 C   0  0  0  0  0  0  0  0  0  0  0  0
    4.2947   -3.2836    0.0000 C   0  0  0  0  0  0  0  0  0  0  0  0
    8.6408   -0.7143    0.0000 C   0  0  0  0  0  0  0  0  0  0  0  0
    7.7748   -2.2143    0.0000 C   0  0  0  0  0  0  0  0  0  0  0  0
    8.6408   -1.7143    0.0000 C   0  0  0  0  0  0  0  0  0  0  0  0
   10.4389    1.2548    0.0000 C   0  0  0  0  0  0  0  0  0  0  0  0
    9.5671   -0.2418    0.0000 C   0  0  0  0  0  0  0  0  0  0  0  0
   10.4350    0.2548    0.0000 C   0  0  0  0  0  0  0  0  0  0  0  0
    5.7136    0.5957    0.0000 H   0  0  0  0  0  0  0  0  0  0  0  0
    6.3527    0.3226    0.0000 H   0  0  0  0  0  0  0  0  0  0  0  0
    8.3803    2.0738    0.0000 H   0  0  0  0  0  0  0  0  0  0  0  0
    8.3803    2.4975    0.0000 H   0  0  0  0  0  0  0  0  0  0  0  0
    3.7737    3.0957    0.0000 H   0  0  0  0  0  0  0  0  0  0  0  0
    7.7748    0.4057    0.0000 H   0  0  0  0  0  0  0  0  0  0  0  0
    6.3718   -2.0243    0.0000 H   0  0  0  0  0  0  0  0  0  0  0  0
    5.7332   -3.0596    0.0000 H   0  0  0  0  0  0  0  0  0  0  0  0
    9.5772    2.3782    0.0000 H   0  0  0  0  0  0  0  0  0  0  0  0
    8.7044    3.9298    0.0000 H   0  0  0  0  0  0  0  0  0  0  0  0
    8.1648   -0.0464    0.0000 H   0  0  0  0  0  0  0  0  0  0  0  0
    2.8545   -3.0707    0.0000 H   0  0  0  0  0  0  0  0  0  0  0  0
    2.9077    1.5957    0.0000 H   0  0  0  0  0  0  0  0  0  0  0  0
    9.1777   -0.4043    0.0000 H   0  0  0  0  0  0  0  0  0  0  0  0
    7.7748   -2.8343    0.0000 H   0  0  0  0  0  0  0  0  0  0  0  0
    4.6398    4.5957    0.0000 H   0  0  0  0  0  0  0  0  0  0  0  0
    9.5647   -0.8618    0.0000 H   0  0  0  0  0  0  0  0  0  0  0  0
    2.0000   -1.5150    0.0000 H   0  0  0  0  0  0  0  0  0  0  0  0
    3.7628   -4.5957    0.0000 H   0  0  0  0  0  0  0  0  0  0  0  0
   10.0438   -1.9043    0.0000 H   0  0  0  0  0  0  0  0  0  0  0  0
   11.8425    1.4394    0.0000 H   0  0  0  0  0  0  0  0  0  0  0  0
   11.2967   -0.8685    0.0000 H   0  0  0  0  0  0  0  0  0  0  0  0
  1 14  1  0  0  0  0
  1 25  1  0  0  0  0
  2 16  1  0  0  0  0
  2 18  1  0  0  0  0
  3 20  1  0  0  0  0
  3 52  1  0  0  0  0
  4 17  2  0  0  0  0
  5 23  1  0  0  0  0
  5 55  1  0  0  0  0
  6 26  1  0  0  0  0
  6 58  1  0  0  0  0
  7 24  2  0  0  0  0
  8 29  1  0  0  0  0
  8 60  1  0  0  0  0
  9 36  1  0  0  0  0
  9 61  1  0  0  0  0
 10 39  1  0  0  0  0
 10 62  1  0  0  0  0
 11 40  1  0  0  0  0
 11 63  1  0  0  0  0
 12 42  1  0  0  0  0
 12 64  1  0  0  0  0
 13 14  1  0  0  0  0
 13 15  1  0  0  0  0
 13 17  1  0  0  0  0
 13 43  1  0  0  0  0
 14 21  1  0  0  0  0
 14 44  1  0  0  0  0
 15 16  2  0  0  0  0
 15 23  1  0  0  0  0
 16 19  1  0  0  0  0
 17 22  1  0  0  0  0
 18 20  1  0  0  0  0
 18 27  1  0  0  0  0
 18 45  1  0  0  0  0
 19 24  1  0  0  0  0
 19 26  2  0  0  0  0
 20 24  1  0  0  0  0
 20 46  1  0  0  0  0
 21 30  2  0  0  0  0
 21 31  1  0  0  0  0
 22 25  1  0  0  0  0
 22 29  2  0  0  0  0
 23 28  2  0  0  0  0
 25 32  2  0  0  0  0
 26 28  1  0  0  0  0
 27 33  2  0  0  0  0
 27 34  1  0  0  0  0
 28 47  1  0  0  0  0
 29 35  1  0  0  0  0
 30 37  1  0  0  0  0
 30 48  1  0  0  0  0
 31 38  2  0  0  0  0
 31 49  1  0  0  0  0
 32 36  1  0  0  0  0
 32 50  1  0  0  0  0
 33 40  1  0  0  0  0
 33 51  1  0  0  0  0
 34 41  2  0  0  0  0
 34 53  1  0  0  0  0
 35 36  2  0  0  0  0
 35 54  1  0  0  0  0
 37 39  2  0  0  0  0
 37 56  1  0  0  0  0
 38 39  1  0  0  0  0
 38 57  1  0  0  0  0
 40 42  2  0  0  0  0
 41 42  1  0  0  0  0
 41 59  1  0  0  0  0
M  END
> <PUBCHEM_COMPOUND_CID>
501506
> <PUBCHEM_COMPOUND_CANONICALIZED>
1
> <PUBCHEM_CACTVS_COMPLEXITY>
1000
> <PUBCHEM_CACTVS_HBOND_ACCEPTOR>
12
> <PUBCHEM_CACTVS_HBOND_DONOR>
8
> <PUBCHEM_CACTVS_ROTATABLE_BOND>
3
> <PUBCHEM_CACTVS_SUBSKEYS>
AAADceB4PAAAAAAAAAAAAAAAAAAAAAAAAAA0aMGCAAAAAACRVAAAGgAACAAADRSgmAIwBoAABgCIAqBSAAICCAAkIAAIiAFGiMgNNzaGNRqCeWGl4BULuQfK7PzOoAADCAAIQABAAAYQABCAAAAAAAAAAA==
> <PUBCHEM_IUPAC_OPENEYE_NAME>
8-[5,7-dihydroxy-2-(4-hydroxyphenyl)-4-oxo-chroman-3-yl]-2-(3,4-dihydroxyphenyl)-3,5,7-trihydroxy-chroman-4-one
> <PUBCHEM_IUPAC_CAS_NAME>
8-[5,7-dihydroxy-2-(4-hydroxyphenyl)-4-oxo-3,4-dihydro-2H-1-benzopyran-3-yl]-2-(3,4-dihydroxyphenyl)-3,5,7-trihydroxy-3,4-dihydro-2H-1-benzopyran-4-one
> <PUBCHEM_IUPAC_NAME_MARKUP>
8-[5,7-dihydroxy-2-(4-hydroxyphenyl)-4-oxo-2,3-dihydrochromen-3-yl]-2-(3,4-dihydroxyphenyl)-3,5,7-trihydroxy-2,3-dihydrochromen-4-one
> <PUBCHEM_IUPAC_NAME>
8-[5,7-dihydroxy-2-(4-hydroxyphenyl)-4-oxo-2,3-dihydrochromen-3-yl]-2-(3,4-dihydroxyphenyl)-3,5,7-trihydroxy-2,3-dihydrochromen-4-one
> <PUBCHEM_IUPAC_SYSTEMATIC_NAME>
2-[3,4-bis(oxidanyl)phenyl]-8-[2-(4-hydroxyphenyl)-5,7-bis(oxidanyl)-4-oxidanylidene-2,3-dihydrochromen-3-yl]-3,5,7-tris(oxidanyl)-2,3-dihydrochromen-4-one
> <PUBCHEM_IUPAC_TRADITIONAL_NAME>
8-[5,7-dihydroxy-2-(4-hydroxyphenyl)-4-keto-chroman-3-yl]-2-(3,4-dihydroxyphenyl)-3,5,7-trihydroxy-chroman-4-one
> <PUBCHEM_IUPAC_INCHI>
InChI=1S/C30H22O12/c31-13-4-1-11(2-5-13)28-24(25(38)21-17(35)8-14(32)9-20(21)41-28)22-18(36)10-19(37)23-26(39)27(40)29(42-30(22)23)12-3-6-15(33)16(34)7-12/h1-10,24,27-29,31-37,40H
> <PUBCHEM_IUPAC_INCHIKEY>
SNFOQVRNAHJPMU-UHFFFAOYSA-N
> <PUBCHEM_XLOGP3_AA>
3.6
> <PUBCHEM_EXACT_MASS>
574.11112613
> <PUBCHEM_MOLECULAR_FORMULA>
C30H22O12
> <PUBCHEM_MOLECULAR_WEIGHT>
574.5
> <PUBCHEM_OPENEYE_CAN_SMILES>
C1=CC(=CC=C1C2C(C(=O)C3=C(C=C(C=C3O2)O)O)C4=C5C(=C(C=C4O)O)C(=O)C(C(O5)C6=CC(=C(C=C6)O)O)O)O
> <PUBCHEM_OPENEYE_ISO_SMILES>
C1=CC(=CC=C1C2C(C(=O)C3=C(C=C(C=C3O2)O)O)C4=C5C(=C(C=C4O)O)C(=O)C(C(O5)C6=CC(=C(C=C6)O)O)O)O
> <PUBCHEM_CACTVS_TPSA>
214
> <PUBCHEM_MONOISOTOPIC_WEIGHT>
574.11112613
> <PUBCHEM_TOTAL_CHARGE>
0
> <PUBCHEM_HEAVY_ATOM_COUNT>
42
> <PUBCHEM_ATOM_DEF_STEREO_COUNT>
0
> <PUBCHEM_ATOM_UDEF_STEREO_COUNT>
4
> <PUBCHEM_BOND_DEF_STEREO_COUNT>
0
> <PUBCHEM_BOND_UDEF_STEREO_COUNT>
0
> <PUBCHEM_ISOTOPIC_ATOM_COUNT>
0
> <PUBCHEM_COMPONENT_COUNT>
1
> <PUBCHEM_CACTVS_TAUTO_COUNT>
-1
> <PUBCHEM_COORDINATE_TYPE>
1
5
255
> <PUBCHEM_BONDANNOTATIONS>
13  15  3
14  21  3
15  16  8
15  23  8
16  19  8
18  27  3
19  26  8
21  30  8
21  31  8
22  25  8
22  29  8
23  28  8
25  32  8
26  28  8
27  33  8
27  34  8
29  35  8
20  3  3
30  37  8
31  38  8
32  36  8
33  40  8
34  41  8
35  36  8
37  39  8
38  39  8
40  42  8
41  42  8
$$$$
