501525
  -OEChem-10302200282D
 44 45  0     1  0  0  0  0  0999 V2000
    5.4897   -1.7799    0.0000 P   0  0  3  0  0  0  0  0  0  0  0  0
    5.6707   -3.5025    0.0000 P   0  0  3  0  0  0  0  0  0  0  0  0
    5.8518   -5.2251    0.0000 P   0  0  0  0  0  0  0  0  0  0  0  0
    2.4888    5.2905    0.0000 F   0  0  0  0  0  0  0  0  0  0  0  0
    5.0298    1.7027    0.0000 O   0  0  0  0  0  0  0  0  0  0  0  0
    2.4608    2.0117    0.0000 O   0  0  0  0  0  0  0  0  0  0  0  0
    4.9019   -0.9709    0.0000 O   0  0  0  0  0  0  0  0  0  0  0  0
    5.9529    3.2905    0.0000 O   0  0  0  0  0  0  0  0  0  0  0  0
    6.0774   -2.5890    0.0000 O   0  0  0  0  0  0  0  0  0  0  0  0
    4.6806   -2.3677    0.0000 O   0  0  0  0  0  0  0  0  0  0  0  0
    6.2987   -1.1922    0.0000 O   0  0  0  0  0  0  0  0  0  0  0  0
    5.2640   -4.4160    0.0000 O   0  0  0  0  0  0  0  0  0  0  0  0
    6.5842   -3.9092    0.0000 O   0  0  0  0  0  0  0  0  0  0  0  0
    4.7572   -3.0958    0.0000 O   0  0  0  0  0  0  0  0  0  0  0  0
    6.4395   -6.0341    0.0000 O   0  0  0  0  0  0  0  0  0  0  0  0
    5.0427   -5.8128    0.0000 O   0  0  0  0  0  0  0  0  0  0  0  0
    6.6608   -4.6373    0.0000 O   0  0  0  0  0  0  0  0  0  0  0  0
    4.2208    3.2905    0.0000 N   0  0  0  0  0  0  0  0  0  0  0  0
    5.0868    4.7905    0.0000 N   0  0  0  0  0  0  0  0  0  0  0  0
    4.2208    6.2905    0.0000 N   0  0  0  0  0  0  0  0  0  0  0  0
    3.4118    1.7027    0.0000 C   0  0  2  0  0  0  0  0  0  0  0  0
    4.7208    0.7516    0.0000 C   0  0  1  0  0  0  0  0  0  0  0  0
    3.7208    0.7516    0.0000 C   0  0  0  0  0  0  0  0  0  0  0  0
    4.2208    2.2905    0.0000 C   0  0  1  0  0  0  0  0  0  0  0  0
    5.3086   -0.0574    0.0000 C   0  0  0  0  0  0  0  0  0  0  0  0
    3.3548    3.7905    0.0000 C   0  0  0  0  0  0  0  0  0  0  0  0
    5.0868    3.7905    0.0000 C   0  0  0  0  0  0  0  0  0  0  0  0
    3.3548    4.7905    0.0000 C   0  0  0  0  0  0  0  0  0  0  0  0
    4.2208    5.2905    0.0000 C   0  0  0  0  0  0  0  0  0  0  0  0
    3.3148    2.3151    0.0000 H   0  0  0  0  0  0  0  0  0  0  0  0
    5.3332    0.8486    0.0000 H   0  0  0  0  0  0  0  0  0  0  0  0
    3.1144    0.6227    0.0000 H   0  0  0  0  0  0  0  0  0  0  0  0
    3.7856    0.1350    0.0000 H   0  0  0  0  0  0  0  0  0  0  0  0
    3.6684    2.5720    0.0000 H   0  0  0  0  0  0  0  0  0  0  0  0
    5.8226   -0.4041    0.0000 H   0  0  0  0  0  0  0  0  0  0  0  0
    5.7393    0.3886    0.0000 H   0  0  0  0  0  0  0  0  0  0  0  0
    2.0000    1.5969    0.0000 H   0  0  0  0  0  0  0  0  0  0  0  0
    2.8179    3.4805    0.0000 H   0  0  0  0  0  0  0  0  0  0  0  0
    4.1142   -2.1156    0.0000 H   0  0  0  0  0  0  0  0  0  0  0  0
    4.7578    6.6005    0.0000 H   0  0  0  0  0  0  0  0  0  0  0  0
    3.6839    6.6005    0.0000 H   0  0  0  0  0  0  0  0  0  0  0  0
    7.0858   -3.5448    0.0000 H   0  0  0  0  0  0  0  0  0  0  0  0
    6.1874   -6.6005    0.0000 H   0  0  0  0  0  0  0  0  0  0  0  0
    4.4763   -5.5607    0.0000 H   0  0  0  0  0  0  0  0  0  0  0  0
  1  7  1  0  0  0  0
  1  9  1  0  0  0  0
  1 10  1  0  0  0  0
  1 11  2  0  0  0  0
  2  9  1  0  0  0  0
  2 12  1  0  0  0  0
  2 13  1  0  0  0  0
  2 14  2  0  0  0  0
  3 12  1  0  0  0  0
  3 15  1  0  0  0  0
  3 16  1  0  0  0  0
  3 17  2  0  0  0  0
  4 28  1  0  0  0  0
  5 22  1  0  0  0  0
  5 24  1  0  0  0  0
 21  6  1  1  0  0  0
  6 37  1  0  0  0  0
  7 25  1  0  0  0  0
  8 27  2  0  0  0  0
 10 39  1  0  0  0  0
 13 42  1  0  0  0  0
 15 43  1  0  0  0  0
 16 44  1  0  0  0  0
 24 18  1  6  0  0  0
 18 26  1  0  0  0  0
 18 27  1  0  0  0  0
 19 27  1  0  0  0  0
 19 29  2  0  0  0  0
 20 29  1  0  0  0  0
 20 40  1  0  0  0  0
 20 41  1  0  0  0  0
 21 23  1  0  0  0  0
 21 24  1  0  0  0  0
 21 30  1  0  0  0  0
 22 23  1  0  0  0  0
 22 25  1  6  0  0  0
 22 31  1  0  0  0  0
 23 32  1  0  0  0  0
 23 33  1  0  0  0  0
 24 34  1  0  0  0  0
 25 35  1  0  0  0  0
 25 36  1  0  0  0  0
 26 28  2  0  0  0  0
 26 38  1  0  0  0  0
 28 29  1  0  0  0  0
M  END
> <PUBCHEM_COMPOUND_CID>
501525
> <PUBCHEM_COMPOUND_CANONICALIZED>
1
> <PUBCHEM_CACTVS_COMPLEXITY>
873
> <PUBCHEM_CACTVS_HBOND_ACCEPTOR>
14
> <PUBCHEM_CACTVS_HBOND_DONOR>
6
> <PUBCHEM_CACTVS_ROTATABLE_BOND>
8
> <PUBCHEM_CACTVS_SUBSKEYS>
AAADccBzPQMAAAAAAAAAAAAAAAAAASAAAAAgAAAAAAAAAAAAAAAAHwAQCCAACBThgAYBAANABxCoQAJmdICAAAEAAAAAAAAIABCDEAIAgAAOQAAFBgITAADwMAIAAAAAAAAAAAAAAAAAAAAAAAAAAAAAAA==
> <PUBCHEM_IUPAC_OPENEYE_NAME>
[[(2S,4R,5R)-5-(4-amino-5-fluoro-2-oxo-pyrimidin-1-yl)-4-hydroxy-tetrahydrofuran-2-yl]methoxy-hydroxy-phosphoryl] phosphono hydrogen phosphate
> <PUBCHEM_IUPAC_CAS_NAME>
[[(2S,4R,5R)-5-(4-amino-5-fluoro-2-oxo-1-pyrimidinyl)-4-hydroxy-2-oxolanyl]methoxy-hydroxyphosphoryl] phosphono hydrogen phosphate
> <PUBCHEM_IUPAC_NAME_MARKUP>
[[(2<I>S</I>,4<I>R</I>,5<I>R</I>)-5-(4-amino-5-fluoro-2-oxopyrimidin-1-yl)-4-hydroxyoxolan-2-yl]methoxy-hydroxyphosphoryl] phosphono hydrogen phosphate
> <PUBCHEM_IUPAC_NAME>
[[(2S,4R,5R)-5-(4-amino-5-fluoro-2-oxopyrimidin-1-yl)-4-hydroxyoxolan-2-yl]methoxy-hydroxyphosphoryl] phosphono hydrogen phosphate
> <PUBCHEM_IUPAC_SYSTEMATIC_NAME>
[[(2S,4R,5R)-5-(4-azanyl-5-fluoranyl-2-oxidanylidene-pyrimidin-1-yl)-4-oxidanyl-oxolan-2-yl]methoxy-oxidanyl-phosphoryl] phosphono hydrogen phosphate
> <PUBCHEM_IUPAC_TRADITIONAL_NAME>
[[(2S,4R,5R)-5-(4-amino-5-fluoro-2-keto-pyrimidin-1-yl)-4-hydroxy-tetrahydrofuran-2-yl]methoxy-hydroxy-phosphoryl] phosphono hydrogen phosphate
> <PUBCHEM_IUPAC_INCHI>
InChI=1S/C9H15FN3O13P3/c10-5-2-13(9(15)12-7(5)11)8-6(14)1-4(24-8)3-23-28(19,20)26-29(21,22)25-27(16,17)18/h2,4,6,8,14H,1,3H2,(H,19,20)(H,21,22)(H2,11,12,15)(H2,16,17,18)/t4-,6+,8+/m0/s1
> <PUBCHEM_IUPAC_INCHIKEY>
HHELLXUZYRJDET-CVTKMRTPSA-N
> <PUBCHEM_XLOGP3>
-5.2
> <PUBCHEM_EXACT_MASS>
484.98017670
> <PUBCHEM_MOLECULAR_FORMULA>
C9H15FN3O13P3
> <PUBCHEM_MOLECULAR_WEIGHT>
485.15
> <PUBCHEM_OPENEYE_CAN_SMILES>
C1C(OC(C1O)N2C=C(C(=NC2=O)N)F)COP(=O)(O)OP(=O)(O)OP(=O)(O)O
> <PUBCHEM_OPENEYE_ISO_SMILES>
C1[C@H](O[C@H]([C@@H]1O)N2C=C(C(=NC2=O)N)F)COP(=O)(O)OP(=O)(O)OP(=O)(O)O
> <PUBCHEM_CACTVS_TPSA>
248
> <PUBCHEM_MONOISOTOPIC_WEIGHT>
484.98017670
> <PUBCHEM_TOTAL_CHARGE>
0
> <PUBCHEM_HEAVY_ATOM_COUNT>
29
> <PUBCHEM_ATOM_DEF_STEREO_COUNT>
3
> <PUBCHEM_ATOM_UDEF_STEREO_COUNT>
0
> <PUBCHEM_BOND_DEF_STEREO_COUNT>
0
> <PUBCHEM_BOND_UDEF_STEREO_COUNT>
0
> <PUBCHEM_ISOTOPIC_ATOM_COUNT>
0
> <PUBCHEM_COMPONENT_COUNT>
1
> <PUBCHEM_CACTVS_TAUTO_COUNT>
-1
> <PUBCHEM_COORDINATE_TYPE>
1
5
255
> <PUBCHEM_BONDANNOTATIONS>
24  18  6
18  26  8
18  27  8
19  27  8
19  29  8
22  25  6
26  28  8
28  29  8
21  6  5
$$$$
