501674
  -OEChem-10302200282D
 46 47  0     1  0  0  0  0  0999 V2000
    6.3981   -1.3660    0.0000 O   0  0  0  0  0  0  0  0  0  0  0  0
    2.8680   -1.3902    0.0000 O   0  0  0  0  0  0  0  0  0  0  0  0
    7.2641   -0.8660    0.0000 C   0  0  3  0  0  0  0  0  0  0  0  0
    8.2641   -0.8660    0.0000 C   0  0  0  0  0  0  0  0  0  0  0  0
    8.7641   -0.0000    0.0000 C   0  0  0  0  0  0  0  0  0  0  0  0
    9.7641   -0.0000    0.0000 C   0  0  0  0  0  0  0  0  0  0  0  0
   10.2641    0.8660    0.0000 C   0  0  0  0  0  0  0  0  0  0  0  0
    7.7641   -1.7320    0.0000 C   0  0  0  0  0  0  0  0  0  0  0  0
    7.2641    0.1340    0.0000 C   0  0  0  0  0  0  0  0  0  0  0  0
   11.2641    0.8660    0.0000 C   0  0  0  0  0  0  0  0  0  0  0  0
    5.5320   -0.8660    0.0000 C   0  0  0  0  0  0  0  0  0  0  0  0
    6.3981    0.6340    0.0000 C   0  0  0  0  0  0  0  0  0  0  0  0
    5.5320    0.1340    0.0000 C   0  0  0  0  0  0  0  0  0  0  0  0
   11.7641    1.7320    0.0000 C   0  0  0  0  0  0  0  0  0  0  0  0
    4.6381   -1.4007    0.0000 C   0  0  0  0  0  0  0  0  0  0  0  0
    4.6381    0.6686    0.0000 C   0  0  0  0  0  0  0  0  0  0  0  0
   12.7641    1.7320    0.0000 C   0  0  0  0  0  0  0  0  0  0  0  0
    3.7320   -0.8868    0.0000 C   0  0  0  0  0  0  0  0  0  0  0  0
    3.7320    0.1548    0.0000 C   0  0  0  0  0  0  0  0  0  0  0  0
    2.0000   -0.8935    0.0000 C   0  0  0  0  0  0  0  0  0  0  0  0
    8.1564   -1.4766    0.0000 H   0  0  0  0  0  0  0  0  0  0  0  0
    8.8467   -1.0781    0.0000 H   0  0  0  0  0  0  0  0  0  0  0  0
    8.8718    0.6106    0.0000 H   0  0  0  0  0  0  0  0  0  0  0  0
    8.1815    0.2121    0.0000 H   0  0  0  0  0  0  0  0  0  0  0  0
    9.6564   -0.6106    0.0000 H   0  0  0  0  0  0  0  0  0  0  0  0
   10.3467   -0.2121    0.0000 H   0  0  0  0  0  0  0  0  0  0  0  0
   10.3718    1.4766    0.0000 H   0  0  0  0  0  0  0  0  0  0  0  0
    9.6815    1.0781    0.0000 H   0  0  0  0  0  0  0  0  0  0  0  0
    7.8010    0.4440    0.0000 H   0  0  0  0  0  0  0  0  0  0  0  0
    7.2272   -2.0420    0.0000 H   0  0  0  0  0  0  0  0  0  0  0  0
    8.0741   -2.2690    0.0000 H   0  0  0  0  0  0  0  0  0  0  0  0
    8.3010   -1.4220    0.0000 H   0  0  0  0  0  0  0  0  0  0  0  0
   11.1564    0.2554    0.0000 H   0  0  0  0  0  0  0  0  0  0  0  0
   11.8467    0.6540    0.0000 H   0  0  0  0  0  0  0  0  0  0  0  0
    6.3981    1.2540    0.0000 H   0  0  0  0  0  0  0  0  0  0  0  0
   11.8718    2.3426    0.0000 H   0  0  0  0  0  0  0  0  0  0  0  0
   11.1815    1.9441    0.0000 H   0  0  0  0  0  0  0  0  0  0  0  0
    4.6453   -2.0206    0.0000 H   0  0  0  0  0  0  0  0  0  0  0  0
    4.6453    1.2886    0.0000 H   0  0  0  0  0  0  0  0  0  0  0  0
   12.7641    1.1120    0.0000 H   0  0  0  0  0  0  0  0  0  0  0  0
   13.3841    1.7320    0.0000 H   0  0  0  0  0  0  0  0  0  0  0  0
   12.7641    2.3521    0.0000 H   0  0  0  0  0  0  0  0  0  0  0  0
    3.1963    0.4669    0.0000 H   0  0  0  0  0  0  0  0  0  0  0  0
    2.3079   -0.3554    0.0000 H   0  0  0  0  0  0  0  0  0  0  0  0
    1.4619   -0.5856    0.0000 H   0  0  0  0  0  0  0  0  0  0  0  0
    1.6921   -1.4316    0.0000 H   0  0  0  0  0  0  0  0  0  0  0  0
  1  3  1  0  0  0  0
  1 11  1  0  0  0  0
  2 18  1  0  0  0  0
  2 20  1  0  0  0  0
  3  4  1  0  0  0  0
  3  8  1  0  0  0  0
  3  9  1  0  0  0  0
  4  5  1  0  0  0  0
  4 21  1  0  0  0  0
  4 22  1  0  0  0  0
  5  6  1  0  0  0  0
  5 23  1  0  0  0  0
  5 24  1  0  0  0  0
  6  7  1  0  0  0  0
  6 25  1  0  0  0  0
  6 26  1  0  0  0  0
  7 10  1  0  0  0  0
  7 27  1  0  0  0  0
  7 28  1  0  0  0  0
  8 30  1  0  0  0  0
  8 31  1  0  0  0  0
  8 32  1  0  0  0  0
  9 12  2  0  0  0  0
  9 29  1  0  0  0  0
 10 14  1  0  0  0  0
 10 33  1  0  0  0  0
 10 34  1  0  0  0  0
 11 13  2  0  0  0  0
 11 15  1  0  0  0  0
 12 13  1  0  0  0  0
 12 35  1  0  0  0  0
 13 16  1  0  0  0  0
 14 17  1  0  0  0  0
 14 36  1  0  0  0  0
 14 37  1  0  0  0  0
 15 18  2  0  0  0  0
 15 38  1  0  0  0  0
 16 19  2  0  0  0  0
 16 39  1  0  0  0  0
 17 40  1  0  0  0  0
 17 41  1  0  0  0  0
 17 42  1  0  0  0  0
 18 19  1  0  0  0  0
 19 43  1  0  0  0  0
 20 44  1  0  0  0  0
 20 45  1  0  0  0  0
 20 46  1  0  0  0  0
M  END
> <PUBCHEM_COMPOUND_CID>
501674
> <PUBCHEM_COMPOUND_CANONICALIZED>
1
> <PUBCHEM_CACTVS_COMPLEXITY>
313
> <PUBCHEM_CACTVS_HBOND_ACCEPTOR>
2
> <PUBCHEM_CACTVS_HBOND_DONOR>
0
> <PUBCHEM_CACTVS_ROTATABLE_BOND>
7
> <PUBCHEM_CACTVS_SUBSKEYS>
AAADceB4MAAAAAAAAAAAAAAAAAAAAAAAAAAwQAAAAAAAAACBAAAAGgAAAAAADESAmAIyBoAABACAAiBCAAACCAAgIAAIiAAGCIgMJyKEMRqCOCClwBUIqAeA4OwOIAAACAAIAABAAAAQABAAAAAAAAAAAA==
> <PUBCHEM_IUPAC_OPENEYE_NAME>
2-heptyl-7-methoxy-2-methyl-chromene
> <PUBCHEM_IUPAC_CAS_NAME>
2-heptyl-7-methoxy-2-methyl-1-benzopyran
> <PUBCHEM_IUPAC_NAME_MARKUP>
2-heptyl-7-methoxy-2-methylchromene
> <PUBCHEM_IUPAC_NAME>
2-heptyl-7-methoxy-2-methylchromene
> <PUBCHEM_IUPAC_SYSTEMATIC_NAME>
2-heptyl-7-methoxy-2-methyl-chromene
> <PUBCHEM_IUPAC_TRADITIONAL_NAME>
2-heptyl-7-methoxy-2-methyl-chromene
> <PUBCHEM_IUPAC_INCHI>
InChI=1S/C18H26O2/c1-4-5-6-7-8-12-18(2)13-11-15-9-10-16(19-3)14-17(15)20-18/h9-11,13-14H,4-8,12H2,1-3H3
> <PUBCHEM_IUPAC_INCHIKEY>
KHZAPGBMXAQKQK-UHFFFAOYSA-N
> <PUBCHEM_XLOGP3>
6.4
> <PUBCHEM_EXACT_MASS>
274.193280068
> <PUBCHEM_MOLECULAR_FORMULA>
C18H26O2
> <PUBCHEM_MOLECULAR_WEIGHT>
274.4
> <PUBCHEM_OPENEYE_CAN_SMILES>
CCCCCCCC1(C=CC2=C(O1)C=C(C=C2)OC)C
> <PUBCHEM_OPENEYE_ISO_SMILES>
CCCCCCCC1(C=CC2=C(O1)C=C(C=C2)OC)C
> <PUBCHEM_CACTVS_TPSA>
18.5
> <PUBCHEM_MONOISOTOPIC_WEIGHT>
274.193280068
> <PUBCHEM_TOTAL_CHARGE>
0
> <PUBCHEM_HEAVY_ATOM_COUNT>
20
> <PUBCHEM_ATOM_DEF_STEREO_COUNT>
0
> <PUBCHEM_ATOM_UDEF_STEREO_COUNT>
1
> <PUBCHEM_BOND_DEF_STEREO_COUNT>
0
> <PUBCHEM_BOND_UDEF_STEREO_COUNT>
0
> <PUBCHEM_ISOTOPIC_ATOM_COUNT>
0
> <PUBCHEM_COMPONENT_COUNT>
1
> <PUBCHEM_CACTVS_TAUTO_COUNT>
-1
> <PUBCHEM_COORDINATE_TYPE>
1
5
255
> <PUBCHEM_BONDANNOTATIONS>
11  13  8
11  15  8
13  16  8
15  18  8
16  19  8
18  19  8
3  8  3
$$$$
