501673
  -OEChem-10302200282D
 40 41  0     1  0  0  0  0  0999 V2000
    6.3981   -0.9330    0.0000 O   0  0  0  0  0  0  0  0  0  0  0  0
    2.8680   -0.9572    0.0000 O   0  0  0  0  0  0  0  0  0  0  0  0
    7.2641   -0.4330    0.0000 C   0  0  3  0  0  0  0  0  0  0  0  0
    8.2641   -0.4330    0.0000 C   0  0  0  0  0  0  0  0  0  0  0  0
    8.7641    0.4330    0.0000 C   0  0  0  0  0  0  0  0  0  0  0  0
    9.7641    0.4330    0.0000 C   0  0  0  0  0  0  0  0  0  0  0  0
    7.2641    0.5670    0.0000 C   0  0  0  0  0  0  0  0  0  0  0  0
    7.7641   -1.2990    0.0000 C   0  0  0  0  0  0  0  0  0  0  0  0
    5.5320   -0.4330    0.0000 C   0  0  0  0  0  0  0  0  0  0  0  0
   10.2641    1.2990    0.0000 C   0  0  0  0  0  0  0  0  0  0  0  0
    5.5320    0.5670    0.0000 C   0  0  0  0  0  0  0  0  0  0  0  0
    6.3981    1.0670    0.0000 C   0  0  0  0  0  0  0  0  0  0  0  0
    4.6381   -0.9677    0.0000 C   0  0  0  0  0  0  0  0  0  0  0  0
    4.6381    1.1016    0.0000 C   0  0  0  0  0  0  0  0  0  0  0  0
   11.2641    1.2990    0.0000 C   0  0  0  0  0  0  0  0  0  0  0  0
    3.7320   -0.4538    0.0000 C   0  0  0  0  0  0  0  0  0  0  0  0
    3.7320    0.5878    0.0000 C   0  0  0  0  0  0  0  0  0  0  0  0
    2.0000   -0.4605    0.0000 C   0  0  0  0  0  0  0  0  0  0  0  0
    8.1564   -1.0436    0.0000 H   0  0  0  0  0  0  0  0  0  0  0  0
    8.8467   -0.6451    0.0000 H   0  0  0  0  0  0  0  0  0  0  0  0
    8.8718    1.0436    0.0000 H   0  0  0  0  0  0  0  0  0  0  0  0
    8.1815    0.6451    0.0000 H   0  0  0  0  0  0  0  0  0  0  0  0
    9.6564   -0.1776    0.0000 H   0  0  0  0  0  0  0  0  0  0  0  0
   10.3467    0.2210    0.0000 H   0  0  0  0  0  0  0  0  0  0  0  0
    7.8010    0.8770    0.0000 H   0  0  0  0  0  0  0  0  0  0  0  0
    7.2272   -1.6090    0.0000 H   0  0  0  0  0  0  0  0  0  0  0  0
    8.0741   -1.8360    0.0000 H   0  0  0  0  0  0  0  0  0  0  0  0
    8.3010   -0.9890    0.0000 H   0  0  0  0  0  0  0  0  0  0  0  0
   10.3718    1.9096    0.0000 H   0  0  0  0  0  0  0  0  0  0  0  0
    9.6815    1.5111    0.0000 H   0  0  0  0  0  0  0  0  0  0  0  0
    6.3981    1.6870    0.0000 H   0  0  0  0  0  0  0  0  0  0  0  0
    4.6453   -1.5876    0.0000 H   0  0  0  0  0  0  0  0  0  0  0  0
    4.6453    1.7216    0.0000 H   0  0  0  0  0  0  0  0  0  0  0  0
   11.2641    0.6790    0.0000 H   0  0  0  0  0  0  0  0  0  0  0  0
   11.8841    1.2990    0.0000 H   0  0  0  0  0  0  0  0  0  0  0  0
   11.2641    1.9190    0.0000 H   0  0  0  0  0  0  0  0  0  0  0  0
    3.1963    0.8999    0.0000 H   0  0  0  0  0  0  0  0  0  0  0  0
    2.3079    0.0776    0.0000 H   0  0  0  0  0  0  0  0  0  0  0  0
    1.4619   -0.1526    0.0000 H   0  0  0  0  0  0  0  0  0  0  0  0
    1.6921   -0.9986    0.0000 H   0  0  0  0  0  0  0  0  0  0  0  0
  1  3  1  0  0  0  0
  1  9  1  0  0  0  0
  2 16  1  0  0  0  0
  2 18  1  0  0  0  0
  3  4  1  0  0  0  0
  3  7  1  0  0  0  0
  3  8  1  0  0  0  0
  4  5  1  0  0  0  0
  4 19  1  0  0  0  0
  4 20  1  0  0  0  0
  5  6  1  0  0  0  0
  5 21  1  0  0  0  0
  5 22  1  0  0  0  0
  6 10  1  0  0  0  0
  6 23  1  0  0  0  0
  6 24  1  0  0  0  0
  7 12  2  0  0  0  0
  7 25  1  0  0  0  0
  8 26  1  0  0  0  0
  8 27  1  0  0  0  0
  8 28  1  0  0  0  0
  9 11  2  0  0  0  0
  9 13  1  0  0  0  0
 10 15  1  0  0  0  0
 10 29  1  0  0  0  0
 10 30  1  0  0  0  0
 11 12  1  0  0  0  0
 11 14  1  0  0  0  0
 12 31  1  0  0  0  0
 13 16  2  0  0  0  0
 13 32  1  0  0  0  0
 14 17  2  0  0  0  0
 14 33  1  0  0  0  0
 15 34  1  0  0  0  0
 15 35  1  0  0  0  0
 15 36  1  0  0  0  0
 16 17  1  0  0  0  0
 17 37  1  0  0  0  0
 18 38  1  0  0  0  0
 18 39  1  0  0  0  0
 18 40  1  0  0  0  0
M  END
> <PUBCHEM_COMPOUND_CID>
501673
> <PUBCHEM_COMPOUND_CANONICALIZED>
1
> <PUBCHEM_CACTVS_COMPLEXITY>
287
> <PUBCHEM_CACTVS_HBOND_ACCEPTOR>
2
> <PUBCHEM_CACTVS_HBOND_DONOR>
0
> <PUBCHEM_CACTVS_ROTATABLE_BOND>
5
> <PUBCHEM_CACTVS_SUBSKEYS>
AAADceB4MAAAAAAAAAAAAAAAAAAAAAAAAAAwQAAAAAAAAACBAAAAGgAAAAAADESAmAIyBoAABACAAiBCAAACCAAgIAAIiAAGCIgMJyKEMRqCOCClwBUIqAeA4GwOIAAACAAIAABAAAAQABAAAAAAAAAAAA==
> <PUBCHEM_IUPAC_OPENEYE_NAME>
7-methoxy-2-methyl-2-pentyl-chromene
> <PUBCHEM_IUPAC_CAS_NAME>
7-methoxy-2-methyl-2-pentyl-1-benzopyran
> <PUBCHEM_IUPAC_NAME_MARKUP>
7-methoxy-2-methyl-2-pentylchromene
> <PUBCHEM_IUPAC_NAME>
7-methoxy-2-methyl-2-pentylchromene
> <PUBCHEM_IUPAC_SYSTEMATIC_NAME>
7-methoxy-2-methyl-2-pentyl-chromene
> <PUBCHEM_IUPAC_TRADITIONAL_NAME>
2-amyl-7-methoxy-2-methyl-chromene
> <PUBCHEM_IUPAC_INCHI>
InChI=1S/C16H22O2/c1-4-5-6-10-16(2)11-9-13-7-8-14(17-3)12-15(13)18-16/h7-9,11-12H,4-6,10H2,1-3H3
> <PUBCHEM_IUPAC_INCHIKEY>
YQZDFOAWPXOYFE-UHFFFAOYSA-N
> <PUBCHEM_XLOGP3>
5.3
> <PUBCHEM_EXACT_MASS>
246.161979940
> <PUBCHEM_MOLECULAR_FORMULA>
C16H22O2
> <PUBCHEM_MOLECULAR_WEIGHT>
246.34
> <PUBCHEM_OPENEYE_CAN_SMILES>
CCCCCC1(C=CC2=C(O1)C=C(C=C2)OC)C
> <PUBCHEM_OPENEYE_ISO_SMILES>
CCCCCC1(C=CC2=C(O1)C=C(C=C2)OC)C
> <PUBCHEM_CACTVS_TPSA>
18.5
> <PUBCHEM_MONOISOTOPIC_WEIGHT>
246.161979940
> <PUBCHEM_TOTAL_CHARGE>
0
> <PUBCHEM_HEAVY_ATOM_COUNT>
18
> <PUBCHEM_ATOM_DEF_STEREO_COUNT>
0
> <PUBCHEM_ATOM_UDEF_STEREO_COUNT>
1
> <PUBCHEM_BOND_DEF_STEREO_COUNT>
0
> <PUBCHEM_BOND_UDEF_STEREO_COUNT>
0
> <PUBCHEM_ISOTOPIC_ATOM_COUNT>
0
> <PUBCHEM_COMPONENT_COUNT>
1
> <PUBCHEM_CACTVS_TAUTO_COUNT>
-1
> <PUBCHEM_COORDINATE_TYPE>
1
5
255
> <PUBCHEM_BONDANNOTATIONS>
11  14  8
13  16  8
14  17  8
16  17  8
3  8  3
9  11  8
9  13  8
$$$$
