501672
  -OEChem-10302200282D
 44 45  0     1  0  0  0  0  0999 V2000
    6.3981   -1.4720    0.0000 O   0  0  0  0  0  0  0  0  0  0  0  0
    6.3981    1.5280    0.0000 O   0  0  0  0  0  0  0  0  0  0  0  0
    2.8680   -1.4961    0.0000 O   0  0  0  0  0  0  0  0  0  0  0  0
    7.2641   -0.9720    0.0000 C   0  0  3  0  0  0  0  0  0  0  0  0
    7.2641    0.0280    0.0000 C   0  0  0  0  0  0  0  0  0  0  0  0
    8.2641   -0.9720    0.0000 C   0  0  0  0  0  0  0  0  0  0  0  0
    6.3981    0.5280    0.0000 C   0  0  3  0  0  0  0  0  0  0  0  0
    7.7641   -1.8380    0.0000 C   0  0  0  0  0  0  0  0  0  0  0  0
    5.5320    0.0280    0.0000 C   0  0  0  0  0  0  0  0  0  0  0  0
    5.5320   -0.9720    0.0000 C   0  0  0  0  0  0  0  0  0  0  0  0
    8.7641   -0.1060    0.0000 C   0  0  0  0  0  0  0  0  0  0  0  0
    4.6381    0.5627    0.0000 C   0  0  0  0  0  0  0  0  0  0  0  0
    4.6381   -1.5066    0.0000 C   0  0  0  0  0  0  0  0  0  0  0  0
    9.7641   -0.1060    0.0000 C   0  0  0  0  0  0  0  0  0  0  0  0
    3.7320   -0.9928    0.0000 C   0  0  0  0  0  0  0  0  0  0  0  0
    3.7320    0.0488    0.0000 C   0  0  0  0  0  0  0  0  0  0  0  0
   10.2641    0.7601    0.0000 C   0  0  0  0  0  0  0  0  0  0  0  0
   11.2641    0.7601    0.0000 C   0  0  0  0  0  0  0  0  0  0  0  0
    9.7641    1.6261    0.0000 C   0  0  0  0  0  0  0  0  0  0  0  0
    2.0000   -0.9995    0.0000 C   0  0  0  0  0  0  0  0  0  0  0  0
    7.8747   -0.0796    0.0000 H   0  0  0  0  0  0  0  0  0  0  0  0
    7.4762    0.6106    0.0000 H   0  0  0  0  0  0  0  0  0  0  0  0
    8.1564   -1.5826    0.0000 H   0  0  0  0  0  0  0  0  0  0  0  0
    8.8467   -1.1840    0.0000 H   0  0  0  0  0  0  0  0  0  0  0  0
    6.9350    0.8380    0.0000 H   0  0  0  0  0  0  0  0  0  0  0  0
    7.2272   -2.1480    0.0000 H   0  0  0  0  0  0  0  0  0  0  0  0
    8.0741   -2.3750    0.0000 H   0  0  0  0  0  0  0  0  0  0  0  0
    8.3010   -1.5280    0.0000 H   0  0  0  0  0  0  0  0  0  0  0  0
    8.8718    0.5046    0.0000 H   0  0  0  0  0  0  0  0  0  0  0  0
    8.1815    0.1061    0.0000 H   0  0  0  0  0  0  0  0  0  0  0  0
    4.6453    1.1826    0.0000 H   0  0  0  0  0  0  0  0  0  0  0  0
    4.6453   -2.1266    0.0000 H   0  0  0  0  0  0  0  0  0  0  0  0
    6.9350    1.8380    0.0000 H   0  0  0  0  0  0  0  0  0  0  0  0
   10.0741   -0.6429    0.0000 H   0  0  0  0  0  0  0  0  0  0  0  0
    3.1963    0.3609    0.0000 H   0  0  0  0  0  0  0  0  0  0  0  0
   11.2641    0.1401    0.0000 H   0  0  0  0  0  0  0  0  0  0  0  0
   11.8841    0.7601    0.0000 H   0  0  0  0  0  0  0  0  0  0  0  0
   11.2641    1.3801    0.0000 H   0  0  0  0  0  0  0  0  0  0  0  0
   10.3010    1.9361    0.0000 H   0  0  0  0  0  0  0  0  0  0  0  0
    9.4541    2.1630    0.0000 H   0  0  0  0  0  0  0  0  0  0  0  0
    9.2272    1.3161    0.0000 H   0  0  0  0  0  0  0  0  0  0  0  0
    2.3079   -0.4614    0.0000 H   0  0  0  0  0  0  0  0  0  0  0  0
    1.4619   -0.6916    0.0000 H   0  0  0  0  0  0  0  0  0  0  0  0
    1.6921   -1.5376    0.0000 H   0  0  0  0  0  0  0  0  0  0  0  0
  1  4  1  0  0  0  0
  1 10  1  0  0  0  0
  2  7  1  0  0  0  0
  2 33  1  0  0  0  0
  3 15  1  0  0  0  0
  3 20  1  0  0  0  0
  4  5  1  0  0  0  0
  4  6  1  0  0  0  0
  4  8  1  0  0  0  0
  5  7  1  0  0  0  0
  5 21  1  0  0  0  0
  5 22  1  0  0  0  0
  6 11  1  0  0  0  0
  6 23  1  0  0  0  0
  6 24  1  0  0  0  0
  7  9  1  0  0  0  0
  7 25  1  0  0  0  0
  8 26  1  0  0  0  0
  8 27  1  0  0  0  0
  8 28  1  0  0  0  0
  9 10  2  0  0  0  0
  9 12  1  0  0  0  0
 10 13  1  0  0  0  0
 11 14  1  0  0  0  0
 11 29  1  0  0  0  0
 11 30  1  0  0  0  0
 12 16  2  0  0  0  0
 12 31  1  0  0  0  0
 13 15  2  0  0  0  0
 13 32  1  0  0  0  0
 14 17  2  0  0  0  0
 14 34  1  0  0  0  0
 15 16  1  0  0  0  0
 16 35  1  0  0  0  0
 17 18  1  0  0  0  0
 17 19  1  0  0  0  0
 18 36  1  0  0  0  0
 18 37  1  0  0  0  0
 18 38  1  0  0  0  0
 19 39  1  0  0  0  0
 19 40  1  0  0  0  0
 19 41  1  0  0  0  0
 20 42  1  0  0  0  0
 20 43  1  0  0  0  0
 20 44  1  0  0  0  0
M  END
> <PUBCHEM_COMPOUND_CID>
501672
> <PUBCHEM_COMPOUND_CANONICALIZED>
1
> <PUBCHEM_CACTVS_COMPLEXITY>
348
> <PUBCHEM_CACTVS_HBOND_ACCEPTOR>
3
> <PUBCHEM_CACTVS_HBOND_DONOR>
1
> <PUBCHEM_CACTVS_ROTATABLE_BOND>
4
> <PUBCHEM_CACTVS_SUBSKEYS>
AAADceB4MAAAAAAAAAAAAAAAAAAAAAAAAAA0QAAAAAAAAACRAAAAGgAACAAADFSgmAIyBoAABgCAAiBCAAACCAAgIAAIiAAGCIgMNyKEMRqCeCClwBUIuAeA4PwOIAAACAAIAABAAAAQABAAAAAAAAAAAA==
> <PUBCHEM_IUPAC_OPENEYE_NAME>
7-methoxy-2-methyl-2-(4-methylpent-3-enyl)chroman-4-ol
> <PUBCHEM_IUPAC_CAS_NAME>
7-methoxy-2-methyl-2-(4-methylpent-3-enyl)-3,4-dihydro-2H-1-benzopyran-4-ol
> <PUBCHEM_IUPAC_NAME_MARKUP>
7-methoxy-2-methyl-2-(4-methylpent-3-enyl)-3,4-dihydrochromen-4-ol
> <PUBCHEM_IUPAC_NAME>
7-methoxy-2-methyl-2-(4-methylpent-3-enyl)-3,4-dihydrochromen-4-ol
> <PUBCHEM_IUPAC_SYSTEMATIC_NAME>
7-methoxy-2-methyl-2-(4-methylpent-3-enyl)-3,4-dihydrochromen-4-ol
> <PUBCHEM_IUPAC_TRADITIONAL_NAME>
7-methoxy-2-methyl-2-(4-methylpent-3-enyl)chroman-4-ol
> <PUBCHEM_IUPAC_INCHI>
InChI=1S/C17H24O3/c1-12(2)6-5-9-17(3)11-15(18)14-8-7-13(19-4)10-16(14)20-17/h6-8,10,15,18H,5,9,11H2,1-4H3
> <PUBCHEM_IUPAC_INCHIKEY>
ZACCKEJTQKOGHF-UHFFFAOYSA-N
> <PUBCHEM_XLOGP3_AA>
3.7
> <PUBCHEM_EXACT_MASS>
276.17254462
> <PUBCHEM_MOLECULAR_FORMULA>
C17H24O3
> <PUBCHEM_MOLECULAR_WEIGHT>
276.4
> <PUBCHEM_OPENEYE_CAN_SMILES>
CC(=CCCC1(CC(C2=C(O1)C=C(C=C2)OC)O)C)C
> <PUBCHEM_OPENEYE_ISO_SMILES>
CC(=CCCC1(CC(C2=C(O1)C=C(C=C2)OC)O)C)C
> <PUBCHEM_CACTVS_TPSA>
38.7
> <PUBCHEM_MONOISOTOPIC_WEIGHT>
276.17254462
> <PUBCHEM_TOTAL_CHARGE>
0
> <PUBCHEM_HEAVY_ATOM_COUNT>
20
> <PUBCHEM_ATOM_DEF_STEREO_COUNT>
0
> <PUBCHEM_ATOM_UDEF_STEREO_COUNT>
2
> <PUBCHEM_BOND_DEF_STEREO_COUNT>
0
> <PUBCHEM_BOND_UDEF_STEREO_COUNT>
0
> <PUBCHEM_ISOTOPIC_ATOM_COUNT>
0
> <PUBCHEM_COMPONENT_COUNT>
1
> <PUBCHEM_CACTVS_TAUTO_COUNT>
-1
> <PUBCHEM_COORDINATE_TYPE>
1
5
255
> <PUBCHEM_BONDANNOTATIONS>
10  13  8
12  16  8
13  15  8
15  16  8
7  2  3
4  8  3
9  10  8
9  12  8
$$$$
