501662
  -OEChem-10302200282D
 38 39  0     1  0  0  0  0  0999 V2000
    6.0682   -1.3170    0.0000 O   0  0  0  0  0  0  0  0  0  0  0  0
    6.0682    1.6830    0.0000 O   0  0  0  0  0  0  0  0  0  0  0  0
    2.5381   -1.3411    0.0000 O   0  0  0  0  0  0  0  0  0  0  0  0
    6.9343   -0.8170    0.0000 C   0  0  3  0  0  0  0  0  0  0  0  0
    7.9343   -0.8170    0.0000 C   0  0  0  0  0  0  0  0  0  0  0  0
    6.9343    0.1830    0.0000 C   0  0  0  0  0  0  0  0  0  0  0  0
    8.4343    0.0490    0.0000 C   0  0  0  0  0  0  0  0  0  0  0  0
    7.4343   -1.6830    0.0000 C   0  0  0  0  0  0  0  0  0  0  0  0
    9.4343    0.0490    0.0000 C   0  0  0  0  0  0  0  0  0  0  0  0
    6.0682    0.6830    0.0000 C   0  0  0  0  0  0  0  0  0  0  0  0
    5.2022   -0.8170    0.0000 C   0  0  0  0  0  0  0  0  0  0  0  0
    5.2022    0.1830    0.0000 C   0  0  0  0  0  0  0  0  0  0  0  0
    9.9343    0.9151    0.0000 C   0  0  0  0  0  0  0  0  0  0  0  0
    4.3083   -1.3516    0.0000 C   0  0  0  0  0  0  0  0  0  0  0  0
    4.3083    0.7177    0.0000 C   0  0  0  0  0  0  0  0  0  0  0  0
   10.9343    0.9151    0.0000 C   0  0  0  0  0  0  0  0  0  0  0  0
    3.4022   -0.8378    0.0000 C   0  0  0  0  0  0  0  0  0  0  0  0
    3.4022    0.2038    0.0000 C   0  0  0  0  0  0  0  0  0  0  0  0
    7.8266   -1.4276    0.0000 H   0  0  0  0  0  0  0  0  0  0  0  0
    8.5169   -1.0290    0.0000 H   0  0  0  0  0  0  0  0  0  0  0  0
    7.5449    0.0754    0.0000 H   0  0  0  0  0  0  0  0  0  0  0  0
    7.1463    0.7656    0.0000 H   0  0  0  0  0  0  0  0  0  0  0  0
    8.5419    0.6596    0.0000 H   0  0  0  0  0  0  0  0  0  0  0  0
    7.8517    0.2611    0.0000 H   0  0  0  0  0  0  0  0  0  0  0  0
    6.8973   -1.9930    0.0000 H   0  0  0  0  0  0  0  0  0  0  0  0
    7.7443   -2.2200    0.0000 H   0  0  0  0  0  0  0  0  0  0  0  0
    7.9712   -1.3730    0.0000 H   0  0  0  0  0  0  0  0  0  0  0  0
    9.3266   -0.5615    0.0000 H   0  0  0  0  0  0  0  0  0  0  0  0
   10.0169   -0.1630    0.0000 H   0  0  0  0  0  0  0  0  0  0  0  0
   10.0419    1.5256    0.0000 H   0  0  0  0  0  0  0  0  0  0  0  0
    9.3517    1.1271    0.0000 H   0  0  0  0  0  0  0  0  0  0  0  0
    4.3154   -1.9716    0.0000 H   0  0  0  0  0  0  0  0  0  0  0  0
    4.3154    1.3376    0.0000 H   0  0  0  0  0  0  0  0  0  0  0  0
   10.9343    0.2951    0.0000 H   0  0  0  0  0  0  0  0  0  0  0  0
   11.5543    0.9151    0.0000 H   0  0  0  0  0  0  0  0  0  0  0  0
   10.9343    1.5351    0.0000 H   0  0  0  0  0  0  0  0  0  0  0  0
    2.8665    0.5159    0.0000 H   0  0  0  0  0  0  0  0  0  0  0  0
    2.0000   -1.0332    0.0000 H   0  0  0  0  0  0  0  0  0  0  0  0
  1  4  1  0  0  0  0
  1 11  1  0  0  0  0
  2 10  2  0  0  0  0
  3 17  1  0  0  0  0
  3 38  1  0  0  0  0
  4  5  1  0  0  0  0
  4  6  1  0  0  0  0
  4  8  1  0  0  0  0
  5  7  1  0  0  0  0
  5 19  1  0  0  0  0
  5 20  1  0  0  0  0
  6 10  1  0  0  0  0
  6 21  1  0  0  0  0
  6 22  1  0  0  0  0
  7  9  1  0  0  0  0
  7 23  1  0  0  0  0
  7 24  1  0  0  0  0
  8 25  1  0  0  0  0
  8 26  1  0  0  0  0
  8 27  1  0  0  0  0
  9 13  1  0  0  0  0
  9 28  1  0  0  0  0
  9 29  1  0  0  0  0
 10 12  1  0  0  0  0
 11 12  2  0  0  0  0
 11 14  1  0  0  0  0
 12 15  1  0  0  0  0
 13 16  1  0  0  0  0
 13 30  1  0  0  0  0
 13 31  1  0  0  0  0
 14 17  2  0  0  0  0
 14 32  1  0  0  0  0
 15 18  2  0  0  0  0
 15 33  1  0  0  0  0
 16 34  1  0  0  0  0
 16 35  1  0  0  0  0
 16 36  1  0  0  0  0
 17 18  1  0  0  0  0
 18 37  1  0  0  0  0
M  END
> <PUBCHEM_COMPOUND_CID>
501662
> <PUBCHEM_COMPOUND_CANONICALIZED>
1
> <PUBCHEM_CACTVS_COMPLEXITY>
302
> <PUBCHEM_CACTVS_HBOND_ACCEPTOR>
3
> <PUBCHEM_CACTVS_HBOND_DONOR>
1
> <PUBCHEM_CACTVS_ROTATABLE_BOND>
4
> <PUBCHEM_CACTVS_SUBSKEYS>
AAADceBwMAAAAAAAAAAAAAAAAAAAAAAAAAA0QAAAAAAAAACRAAAAGgAACAAADESAmAAyBoAABgCIAqBSAAACCAAkIAAIiAEGCMgMJzaGNRqCeWCl4BUIuYeI7PzOIAAACAAIAABAAAAQABAAAAAAAAAAAA==
> <PUBCHEM_IUPAC_OPENEYE_NAME>
7-hydroxy-2-methyl-2-pentyl-chroman-4-one
> <PUBCHEM_IUPAC_CAS_NAME>
7-hydroxy-2-methyl-2-pentyl-3,4-dihydro-2H-1-benzopyran-4-one
> <PUBCHEM_IUPAC_NAME_MARKUP>
7-hydroxy-2-methyl-2-pentyl-3<I>H</I>-chromen-4-one
> <PUBCHEM_IUPAC_NAME>
7-hydroxy-2-methyl-2-pentyl-3H-chromen-4-one
> <PUBCHEM_IUPAC_SYSTEMATIC_NAME>
2-methyl-7-oxidanyl-2-pentyl-3H-chromen-4-one
> <PUBCHEM_IUPAC_TRADITIONAL_NAME>
2-amyl-7-hydroxy-2-methyl-chroman-4-one
> <PUBCHEM_IUPAC_INCHI>
InChI=1S/C15H20O3/c1-3-4-5-8-15(2)10-13(17)12-7-6-11(16)9-14(12)18-15/h6-7,9,16H,3-5,8,10H2,1-2H3
> <PUBCHEM_IUPAC_INCHIKEY>
QRFAYYPIRFDIBC-UHFFFAOYSA-N
> <PUBCHEM_XLOGP3_AA>
3.6
> <PUBCHEM_EXACT_MASS>
248.14124450
> <PUBCHEM_MOLECULAR_FORMULA>
C15H20O3
> <PUBCHEM_MOLECULAR_WEIGHT>
248.32
> <PUBCHEM_OPENEYE_CAN_SMILES>
CCCCCC1(CC(=O)C2=C(O1)C=C(C=C2)O)C
> <PUBCHEM_OPENEYE_ISO_SMILES>
CCCCCC1(CC(=O)C2=C(O1)C=C(C=C2)O)C
> <PUBCHEM_CACTVS_TPSA>
46.5
> <PUBCHEM_MONOISOTOPIC_WEIGHT>
248.14124450
> <PUBCHEM_TOTAL_CHARGE>
0
> <PUBCHEM_HEAVY_ATOM_COUNT>
18
> <PUBCHEM_ATOM_DEF_STEREO_COUNT>
0
> <PUBCHEM_ATOM_UDEF_STEREO_COUNT>
1
> <PUBCHEM_BOND_DEF_STEREO_COUNT>
0
> <PUBCHEM_BOND_UDEF_STEREO_COUNT>
0
> <PUBCHEM_ISOTOPIC_ATOM_COUNT>
0
> <PUBCHEM_COMPONENT_COUNT>
1
> <PUBCHEM_CACTVS_TAUTO_COUNT>
-1
> <PUBCHEM_COORDINATE_TYPE>
1
5
255
> <PUBCHEM_BONDANNOTATIONS>
11  12  8
11  14  8
12  15  8
14  17  8
15  18  8
17  18  8
4  8  3
$$$$
