501663
  -OEChem-10302200282D
 44 45  0     1  0  0  0  0  0999 V2000
    6.0682   -1.3660    0.0000 O   0  0  0  0  0  0  0  0  0  0  0  0
    6.0682    1.6340    0.0000 O   0  0  0  0  0  0  0  0  0  0  0  0
    2.5381   -1.3902    0.0000 O   0  0  0  0  0  0  0  0  0  0  0  0
    6.9343   -0.8660    0.0000 C   0  0  3  0  0  0  0  0  0  0  0  0
    7.9343   -0.8660    0.0000 C   0  0  0  0  0  0  0  0  0  0  0  0
    6.9343    0.1340    0.0000 C   0  0  0  0  0  0  0  0  0  0  0  0
    8.4343   -0.0000    0.0000 C   0  0  0  0  0  0  0  0  0  0  0  0
    9.4343   -0.0000    0.0000 C   0  0  0  0  0  0  0  0  0  0  0  0
    7.4343   -1.7320    0.0000 C   0  0  0  0  0  0  0  0  0  0  0  0
    9.9343    0.8660    0.0000 C   0  0  0  0  0  0  0  0  0  0  0  0
    6.0682    0.6340    0.0000 C   0  0  0  0  0  0  0  0  0  0  0  0
    5.2022   -0.8660    0.0000 C   0  0  0  0  0  0  0  0  0  0  0  0
    5.2022    0.1340    0.0000 C   0  0  0  0  0  0  0  0  0  0  0  0
   10.9343    0.8660    0.0000 C   0  0  0  0  0  0  0  0  0  0  0  0
   11.4343    1.7320    0.0000 C   0  0  0  0  0  0  0  0  0  0  0  0
    4.3083   -1.4007    0.0000 C   0  0  0  0  0  0  0  0  0  0  0  0
    4.3083    0.6686    0.0000 C   0  0  0  0  0  0  0  0  0  0  0  0
    3.4022   -0.8868    0.0000 C   0  0  0  0  0  0  0  0  0  0  0  0
    3.4022    0.1548    0.0000 C   0  0  0  0  0  0  0  0  0  0  0  0
   12.4343    1.7320    0.0000 C   0  0  0  0  0  0  0  0  0  0  0  0
    7.8266   -1.4766    0.0000 H   0  0  0  0  0  0  0  0  0  0  0  0
    8.5169   -1.0781    0.0000 H   0  0  0  0  0  0  0  0  0  0  0  0
    7.5449    0.0263    0.0000 H   0  0  0  0  0  0  0  0  0  0  0  0
    7.1463    0.7166    0.0000 H   0  0  0  0  0  0  0  0  0  0  0  0
    8.5419    0.6106    0.0000 H   0  0  0  0  0  0  0  0  0  0  0  0
    7.8517    0.2121    0.0000 H   0  0  0  0  0  0  0  0  0  0  0  0
    9.3266   -0.6106    0.0000 H   0  0  0  0  0  0  0  0  0  0  0  0
   10.0169   -0.2121    0.0000 H   0  0  0  0  0  0  0  0  0  0  0  0
    6.8973   -2.0420    0.0000 H   0  0  0  0  0  0  0  0  0  0  0  0
    7.7443   -2.2690    0.0000 H   0  0  0  0  0  0  0  0  0  0  0  0
    7.9712   -1.4220    0.0000 H   0  0  0  0  0  0  0  0  0  0  0  0
   10.0419    1.4766    0.0000 H   0  0  0  0  0  0  0  0  0  0  0  0
    9.3517    1.0781    0.0000 H   0  0  0  0  0  0  0  0  0  0  0  0
   10.8266    0.2554    0.0000 H   0  0  0  0  0  0  0  0  0  0  0  0
   11.5169    0.6540    0.0000 H   0  0  0  0  0  0  0  0  0  0  0  0
   11.5419    2.3426    0.0000 H   0  0  0  0  0  0  0  0  0  0  0  0
   10.8517    1.9441    0.0000 H   0  0  0  0  0  0  0  0  0  0  0  0
    4.3154   -2.0206    0.0000 H   0  0  0  0  0  0  0  0  0  0  0  0
    4.3154    1.2886    0.0000 H   0  0  0  0  0  0  0  0  0  0  0  0
    2.8665    0.4669    0.0000 H   0  0  0  0  0  0  0  0  0  0  0  0
   12.4343    1.1120    0.0000 H   0  0  0  0  0  0  0  0  0  0  0  0
   13.0543    1.7320    0.0000 H   0  0  0  0  0  0  0  0  0  0  0  0
   12.4343    2.3521    0.0000 H   0  0  0  0  0  0  0  0  0  0  0  0
    2.0000   -1.0822    0.0000 H   0  0  0  0  0  0  0  0  0  0  0  0
  1  4  1  0  0  0  0
  1 12  1  0  0  0  0
  2 11  2  0  0  0  0
  3 18  1  0  0  0  0
  3 44  1  0  0  0  0
  4  5  1  0  0  0  0
  4  6  1  0  0  0  0
  4  9  1  0  0  0  0
  5  7  1  0  0  0  0
  5 21  1  0  0  0  0
  5 22  1  0  0  0  0
  6 11  1  0  0  0  0
  6 23  1  0  0  0  0
  6 24  1  0  0  0  0
  7  8  1  0  0  0  0
  7 25  1  0  0  0  0
  7 26  1  0  0  0  0
  8 10  1  0  0  0  0
  8 27  1  0  0  0  0
  8 28  1  0  0  0  0
  9 29  1  0  0  0  0
  9 30  1  0  0  0  0
  9 31  1  0  0  0  0
 10 14  1  0  0  0  0
 10 32  1  0  0  0  0
 10 33  1  0  0  0  0
 11 13  1  0  0  0  0
 12 13  2  0  0  0  0
 12 16  1  0  0  0  0
 13 17  1  0  0  0  0
 14 15  1  0  0  0  0
 14 34  1  0  0  0  0
 14 35  1  0  0  0  0
 15 20  1  0  0  0  0
 15 36  1  0  0  0  0
 15 37  1  0  0  0  0
 16 18  2  0  0  0  0
 16 38  1  0  0  0  0
 17 19  2  0  0  0  0
 17 39  1  0  0  0  0
 18 19  1  0  0  0  0
 19 40  1  0  0  0  0
 20 41  1  0  0  0  0
 20 42  1  0  0  0  0
 20 43  1  0  0  0  0
M  END
> <PUBCHEM_COMPOUND_CID>
501663
> <PUBCHEM_COMPOUND_CANONICALIZED>
1
> <PUBCHEM_CACTVS_COMPLEXITY>
328
> <PUBCHEM_CACTVS_HBOND_ACCEPTOR>
3
> <PUBCHEM_CACTVS_HBOND_DONOR>
1
> <PUBCHEM_CACTVS_ROTATABLE_BOND>
6
> <PUBCHEM_CACTVS_SUBSKEYS>
AAADceB4MAAAAAAAAAAAAAAAAAAAAAAAAAA0QAAAAAAAAACRAAAAGgAACAAADESAmAAyBoAABgCIAqBSAAACCAAkIAAIiAEGCMgMJzaGNRqCeWCl4BUIuYeI7PzOIAAACAAIAABAAAAQABAAAAAAAAAAAA==
> <PUBCHEM_IUPAC_OPENEYE_NAME>
2-heptyl-7-hydroxy-2-methyl-chroman-4-one
> <PUBCHEM_IUPAC_CAS_NAME>
2-heptyl-7-hydroxy-2-methyl-3,4-dihydro-2H-1-benzopyran-4-one
> <PUBCHEM_IUPAC_NAME_MARKUP>
2-heptyl-7-hydroxy-2-methyl-3<I>H</I>-chromen-4-one
> <PUBCHEM_IUPAC_NAME>
2-heptyl-7-hydroxy-2-methyl-3H-chromen-4-one
> <PUBCHEM_IUPAC_SYSTEMATIC_NAME>
2-heptyl-2-methyl-7-oxidanyl-3H-chromen-4-one
> <PUBCHEM_IUPAC_TRADITIONAL_NAME>
2-heptyl-7-hydroxy-2-methyl-chroman-4-one
> <PUBCHEM_IUPAC_INCHI>
InChI=1S/C17H24O3/c1-3-4-5-6-7-10-17(2)12-15(19)14-9-8-13(18)11-16(14)20-17/h8-9,11,18H,3-7,10,12H2,1-2H3
> <PUBCHEM_IUPAC_INCHIKEY>
NGNJBJKCBBENBL-UHFFFAOYSA-N
> <PUBCHEM_XLOGP3_AA>
4.7
> <PUBCHEM_EXACT_MASS>
276.17254462
> <PUBCHEM_MOLECULAR_FORMULA>
C17H24O3
> <PUBCHEM_MOLECULAR_WEIGHT>
276.4
> <PUBCHEM_OPENEYE_CAN_SMILES>
CCCCCCCC1(CC(=O)C2=C(O1)C=C(C=C2)O)C
> <PUBCHEM_OPENEYE_ISO_SMILES>
CCCCCCCC1(CC(=O)C2=C(O1)C=C(C=C2)O)C
> <PUBCHEM_CACTVS_TPSA>
46.5
> <PUBCHEM_MONOISOTOPIC_WEIGHT>
276.17254462
> <PUBCHEM_TOTAL_CHARGE>
0
> <PUBCHEM_HEAVY_ATOM_COUNT>
20
> <PUBCHEM_ATOM_DEF_STEREO_COUNT>
0
> <PUBCHEM_ATOM_UDEF_STEREO_COUNT>
1
> <PUBCHEM_BOND_DEF_STEREO_COUNT>
0
> <PUBCHEM_BOND_UDEF_STEREO_COUNT>
0
> <PUBCHEM_ISOTOPIC_ATOM_COUNT>
0
> <PUBCHEM_COMPONENT_COUNT>
1
> <PUBCHEM_CACTVS_TAUTO_COUNT>
-1
> <PUBCHEM_COORDINATE_TYPE>
1
5
255
> <PUBCHEM_BONDANNOTATIONS>
12  13  8
12  16  8
13  17  8
16  18  8
17  19  8
18  19  8
4  9  3
$$$$
