501666
  -OEChem-10302200282D
 35 36  0     1  0  0  0  0  0999 V2000
    6.0682   -1.3170    0.0000 O   0  0  0  0  0  0  0  0  0  0  0  0
    6.0682    1.6830    0.0000 O   0  0  0  0  0  0  0  0  0  0  0  0
    2.5381   -1.3411    0.0000 O   0  0  0  0  0  0  0  0  0  0  0  0
    6.9343   -0.8170    0.0000 C   0  0  3  0  0  0  0  0  0  0  0  0
    7.9343   -0.8170    0.0000 C   0  0  0  0  0  0  0  0  0  0  0  0
    6.9343    0.1830    0.0000 C   0  0  0  0  0  0  0  0  0  0  0  0
    8.4343    0.0490    0.0000 C   0  0  0  0  0  0  0  0  0  0  0  0
    7.4343   -1.6830    0.0000 C   0  0  0  0  0  0  0  0  0  0  0  0
    6.0682    0.6830    0.0000 C   0  0  0  0  0  0  0  0  0  0  0  0
    5.2022   -0.8170    0.0000 C   0  0  0  0  0  0  0  0  0  0  0  0
    5.2022    0.1830    0.0000 C   0  0  0  0  0  0  0  0  0  0  0  0
    9.4343    0.0490    0.0000 C   0  0  0  0  0  0  0  0  0  0  0  0
    7.9343    0.9151    0.0000 C   0  0  0  0  0  0  0  0  0  0  0  0
    4.3083   -1.3516    0.0000 C   0  0  0  0  0  0  0  0  0  0  0  0
    4.3083    0.7177    0.0000 C   0  0  0  0  0  0  0  0  0  0  0  0
    3.4022   -0.8378    0.0000 C   0  0  0  0  0  0  0  0  0  0  0  0
    3.4022    0.2038    0.0000 C   0  0  0  0  0  0  0  0  0  0  0  0
    7.8266   -1.4276    0.0000 H   0  0  0  0  0  0  0  0  0  0  0  0
    8.5169   -1.0290    0.0000 H   0  0  0  0  0  0  0  0  0  0  0  0
    7.5449    0.0754    0.0000 H   0  0  0  0  0  0  0  0  0  0  0  0
    7.1463    0.7656    0.0000 H   0  0  0  0  0  0  0  0  0  0  0  0
    7.8143    0.0490    0.0000 H   0  0  0  0  0  0  0  0  0  0  0  0
    6.8973   -1.9930    0.0000 H   0  0  0  0  0  0  0  0  0  0  0  0
    7.7443   -2.2200    0.0000 H   0  0  0  0  0  0  0  0  0  0  0  0
    7.9712   -1.3730    0.0000 H   0  0  0  0  0  0  0  0  0  0  0  0
    9.4343   -0.5710    0.0000 H   0  0  0  0  0  0  0  0  0  0  0  0
   10.0543    0.0490    0.0000 H   0  0  0  0  0  0  0  0  0  0  0  0
    9.4343    0.6690    0.0000 H   0  0  0  0  0  0  0  0  0  0  0  0
    8.4712    1.2251    0.0000 H   0  0  0  0  0  0  0  0  0  0  0  0
    7.6243    1.4520    0.0000 H   0  0  0  0  0  0  0  0  0  0  0  0
    7.3973    0.6051    0.0000 H   0  0  0  0  0  0  0  0  0  0  0  0
    4.3154   -1.9716    0.0000 H   0  0  0  0  0  0  0  0  0  0  0  0
    4.3154    1.3376    0.0000 H   0  0  0  0  0  0  0  0  0  0  0  0
    2.8665    0.5159    0.0000 H   0  0  0  0  0  0  0  0  0  0  0  0
    2.0000   -1.0332    0.0000 H   0  0  0  0  0  0  0  0  0  0  0  0
  1  4  1  0  0  0  0
  1 10  1  0  0  0  0
  2  9  2  0  0  0  0
  3 16  1  0  0  0  0
  3 35  1  0  0  0  0
  4  5  1  0  0  0  0
  4  6  1  0  0  0  0
  4  8  1  0  0  0  0
  5  7  1  0  0  0  0
  5 18  1  0  0  0  0
  5 19  1  0  0  0  0
  6  9  1  0  0  0  0
  6 20  1  0  0  0  0
  6 21  1  0  0  0  0
  7 12  1  0  0  0  0
  7 13  1  0  0  0  0
  7 22  1  0  0  0  0
  8 23  1  0  0  0  0
  8 24  1  0  0  0  0
  8 25  1  0  0  0  0
  9 11  1  0  0  0  0
 10 11  2  0  0  0  0
 10 14  1  0  0  0  0
 11 15  1  0  0  0  0
 12 26  1  0  0  0  0
 12 27  1  0  0  0  0
 12 28  1  0  0  0  0
 13 29  1  0  0  0  0
 13 30  1  0  0  0  0
 13 31  1  0  0  0  0
 14 16  2  0  0  0  0
 14 32  1  0  0  0  0
 15 17  2  0  0  0  0
 15 33  1  0  0  0  0
 16 17  1  0  0  0  0
 17 34  1  0  0  0  0
M  END
> <PUBCHEM_COMPOUND_CID>
501666
> <PUBCHEM_COMPOUND_CANONICALIZED>
1
> <PUBCHEM_CACTVS_COMPLEXITY>
300
> <PUBCHEM_CACTVS_HBOND_ACCEPTOR>
3
> <PUBCHEM_CACTVS_HBOND_DONOR>
1
> <PUBCHEM_CACTVS_ROTATABLE_BOND>
2
> <PUBCHEM_CACTVS_SUBSKEYS>
AAADceBwMAAAAAAAAAAAAAAAAAAAAAAAAAA0QAAAAAAAAACRAAAAGgAACAAADUSAmAAyBoAABgCIAqBSAAACCAAkIAAIiAEGCMgMJzaGNRqCeWCl4BUIuYeI7PzOIAAACAAIAABAAAAQABAAAAAAAAAAAA==
> <PUBCHEM_IUPAC_OPENEYE_NAME>
7-hydroxy-2-isobutyl-2-methyl-chroman-4-one
> <PUBCHEM_IUPAC_CAS_NAME>
7-hydroxy-2-methyl-2-(2-methylpropyl)-3,4-dihydro-2H-1-benzopyran-4-one
> <PUBCHEM_IUPAC_NAME_MARKUP>
7-hydroxy-2-methyl-2-(2-methylpropyl)-3<I>H</I>-chromen-4-one
> <PUBCHEM_IUPAC_NAME>
7-hydroxy-2-methyl-2-(2-methylpropyl)-3H-chromen-4-one
> <PUBCHEM_IUPAC_SYSTEMATIC_NAME>
2-methyl-2-(2-methylpropyl)-7-oxidanyl-3H-chromen-4-one
> <PUBCHEM_IUPAC_TRADITIONAL_NAME>
7-hydroxy-2-isobutyl-2-methyl-chroman-4-one
> <PUBCHEM_IUPAC_INCHI>
InChI=1S/C14H18O3/c1-9(2)7-14(3)8-12(16)11-5-4-10(15)6-13(11)17-14/h4-6,9,15H,7-8H2,1-3H3
> <PUBCHEM_IUPAC_INCHIKEY>
LCMCTWRBENGILA-UHFFFAOYSA-N
> <PUBCHEM_XLOGP3_AA>
3
> <PUBCHEM_EXACT_MASS>
234.125594432
> <PUBCHEM_MOLECULAR_FORMULA>
C14H18O3
> <PUBCHEM_MOLECULAR_WEIGHT>
234.29
> <PUBCHEM_OPENEYE_CAN_SMILES>
CC(C)CC1(CC(=O)C2=C(O1)C=C(C=C2)O)C
> <PUBCHEM_OPENEYE_ISO_SMILES>
CC(C)CC1(CC(=O)C2=C(O1)C=C(C=C2)O)C
> <PUBCHEM_CACTVS_TPSA>
46.5
> <PUBCHEM_MONOISOTOPIC_WEIGHT>
234.125594432
> <PUBCHEM_TOTAL_CHARGE>
0
> <PUBCHEM_HEAVY_ATOM_COUNT>
17
> <PUBCHEM_ATOM_DEF_STEREO_COUNT>
0
> <PUBCHEM_ATOM_UDEF_STEREO_COUNT>
1
> <PUBCHEM_BOND_DEF_STEREO_COUNT>
0
> <PUBCHEM_BOND_UDEF_STEREO_COUNT>
0
> <PUBCHEM_ISOTOPIC_ATOM_COUNT>
0
> <PUBCHEM_COMPONENT_COUNT>
1
> <PUBCHEM_CACTVS_TAUTO_COUNT>
-1
> <PUBCHEM_COORDINATE_TYPE>
1
5
255
> <PUBCHEM_BONDANNOTATIONS>
10  11  8
10  14  8
11  15  8
14  16  8
15  17  8
16  17  8
4  8  3
$$$$
