501675
  -OEChem-10302200282D
 41 42  0     1  0  0  0  0  0999 V2000
    6.3981   -1.3660    0.0000 O   0  0  0  0  0  0  0  0  0  0  0  0
    2.8680   -1.3902    0.0000 O   0  0  0  0  0  0  0  0  0  0  0  0
    7.2641   -0.8660    0.0000 C   0  0  3  0  0  0  0  0  0  0  0  0
    8.2641   -0.8660    0.0000 C   0  0  0  0  0  0  0  0  0  0  0  0
    7.2641    0.1340    0.0000 C   0  0  0  0  0  0  0  0  0  0  0  0
    8.7641    0.0000    0.0000 C   0  0  0  0  0  0  0  0  0  0  0  0
    7.7641   -1.7320    0.0000 C   0  0  0  0  0  0  0  0  0  0  0  0
    5.5320   -0.8660    0.0000 C   0  0  0  0  0  0  0  0  0  0  0  0
    5.5320    0.1340    0.0000 C   0  0  0  0  0  0  0  0  0  0  0  0
    6.3981    0.6340    0.0000 C   0  0  0  0  0  0  0  0  0  0  0  0
    9.7641    0.0000    0.0000 C   0  0  0  0  0  0  0  0  0  0  0  0
    4.6381   -1.4007    0.0000 C   0  0  0  0  0  0  0  0  0  0  0  0
    4.6381    0.6686    0.0000 C   0  0  0  0  0  0  0  0  0  0  0  0
   10.2641    0.8660    0.0000 C   0  0  0  0  0  0  0  0  0  0  0  0
    3.7320   -0.8868    0.0000 C   0  0  0  0  0  0  0  0  0  0  0  0
    3.7320    0.1548    0.0000 C   0  0  0  0  0  0  0  0  0  0  0  0
   11.2641    0.8660    0.0000 C   0  0  0  0  0  0  0  0  0  0  0  0
    9.7641    1.7320    0.0000 C   0  0  0  0  0  0  0  0  0  0  0  0
    2.0000   -0.8935    0.0000 C   0  0  0  0  0  0  0  0  0  0  0  0
    8.1564   -1.4766    0.0000 H   0  0  0  0  0  0  0  0  0  0  0  0
    8.8467   -1.0781    0.0000 H   0  0  0  0  0  0  0  0  0  0  0  0
    7.8010    0.4440    0.0000 H   0  0  0  0  0  0  0  0  0  0  0  0
    8.8718    0.6106    0.0000 H   0  0  0  0  0  0  0  0  0  0  0  0
    8.1815    0.2121    0.0000 H   0  0  0  0  0  0  0  0  0  0  0  0
    7.2272   -2.0420    0.0000 H   0  0  0  0  0  0  0  0  0  0  0  0
    8.0741   -2.2690    0.0000 H   0  0  0  0  0  0  0  0  0  0  0  0
    8.3010   -1.4220    0.0000 H   0  0  0  0  0  0  0  0  0  0  0  0
    6.3981    1.2540    0.0000 H   0  0  0  0  0  0  0  0  0  0  0  0
   10.0741   -0.5369    0.0000 H   0  0  0  0  0  0  0  0  0  0  0  0
    4.6453   -2.0206    0.0000 H   0  0  0  0  0  0  0  0  0  0  0  0
    4.6453    1.2886    0.0000 H   0  0  0  0  0  0  0  0  0  0  0  0
    3.1963    0.4669    0.0000 H   0  0  0  0  0  0  0  0  0  0  0  0
   11.2641    0.2460    0.0000 H   0  0  0  0  0  0  0  0  0  0  0  0
   11.8841    0.8660    0.0000 H   0  0  0  0  0  0  0  0  0  0  0  0
   11.2641    1.4860    0.0000 H   0  0  0  0  0  0  0  0  0  0  0  0
   10.3010    2.0420    0.0000 H   0  0  0  0  0  0  0  0  0  0  0  0
    9.4541    2.2690    0.0000 H   0  0  0  0  0  0  0  0  0  0  0  0
    9.2272    1.4220    0.0000 H   0  0  0  0  0  0  0  0  0  0  0  0
    2.3079   -0.3554    0.0000 H   0  0  0  0  0  0  0  0  0  0  0  0
    1.4619   -0.5856    0.0000 H   0  0  0  0  0  0  0  0  0  0  0  0
    1.6921   -1.4316    0.0000 H   0  0  0  0  0  0  0  0  0  0  0  0
  1  3  1  0  0  0  0
  1  8  1  0  0  0  0
  2 15  1  0  0  0  0
  2 19  1  0  0  0  0
  3  4  1  0  0  0  0
  3  5  1  0  0  0  0
  3  7  1  0  0  0  0
  4  6  1  0  0  0  0
  4 20  1  0  0  0  0
  4 21  1  0  0  0  0
  5 10  2  0  0  0  0
  5 22  1  0  0  0  0
  6 11  1  0  0  0  0
  6 23  1  0  0  0  0
  6 24  1  0  0  0  0
  7 25  1  0  0  0  0
  7 26  1  0  0  0  0
  7 27  1  0  0  0  0
  8  9  2  0  0  0  0
  8 12  1  0  0  0  0
  9 10  1  0  0  0  0
  9 13  1  0  0  0  0
 10 28  1  0  0  0  0
 11 14  2  0  0  0  0
 11 29  1  0  0  0  0
 12 15  2  0  0  0  0
 12 30  1  0  0  0  0
 13 16  2  0  0  0  0
 13 31  1  0  0  0  0
 14 17  1  0  0  0  0
 14 18  1  0  0  0  0
 15 16  1  0  0  0  0
 16 32  1  0  0  0  0
 17 33  1  0  0  0  0
 17 34  1  0  0  0  0
 17 35  1  0  0  0  0
 18 36  1  0  0  0  0
 18 37  1  0  0  0  0
 18 38  1  0  0  0  0
 19 39  1  0  0  0  0
 19 40  1  0  0  0  0
 19 41  1  0  0  0  0
M  END
> <PUBCHEM_COMPOUND_CID>
501675
> <PUBCHEM_COMPOUND_CANONICALIZED>
1
> <PUBCHEM_CACTVS_COMPLEXITY>
354
> <PUBCHEM_CACTVS_HBOND_ACCEPTOR>
2
> <PUBCHEM_CACTVS_HBOND_DONOR>
0
> <PUBCHEM_CACTVS_ROTATABLE_BOND>
4
> <PUBCHEM_CACTVS_SUBSKEYS>
AAADceB4MAAAAAAAAAAAAAAAAAAAAAAAAAAwQAAAAAAAAACBAAAAGgAAAAAADESAmAIyBoAABACAAiBCAAACCAAgIAAIiAAGCIgMJyKEMRqCOCClwBUIqAeA4CwOIAAACAAIAABAAAAQABAAAAAAAAAAAA==
> <PUBCHEM_IUPAC_OPENEYE_NAME>
7-methoxy-2-methyl-2-(4-methylpent-3-enyl)chromene
> <PUBCHEM_IUPAC_CAS_NAME>
7-methoxy-2-methyl-2-(4-methylpent-3-enyl)-1-benzopyran
> <PUBCHEM_IUPAC_NAME_MARKUP>
7-methoxy-2-methyl-2-(4-methylpent-3-enyl)chromene
> <PUBCHEM_IUPAC_NAME>
7-methoxy-2-methyl-2-(4-methylpent-3-enyl)chromene
> <PUBCHEM_IUPAC_SYSTEMATIC_NAME>
7-methoxy-2-methyl-2-(4-methylpent-3-enyl)chromene
> <PUBCHEM_IUPAC_TRADITIONAL_NAME>
7-methoxy-2-methyl-2-(4-methylpent-3-enyl)chromene
> <PUBCHEM_IUPAC_INCHI>
InChI=1S/C17H22O2/c1-13(2)6-5-10-17(3)11-9-14-7-8-15(18-4)12-16(14)19-17/h6-9,11-12H,5,10H2,1-4H3
> <PUBCHEM_IUPAC_INCHIKEY>
ILUXDLXBGSJDOL-UHFFFAOYSA-N
> <PUBCHEM_XLOGP3>
5.3
> <PUBCHEM_EXACT_MASS>
258.161979940
> <PUBCHEM_MOLECULAR_FORMULA>
C17H22O2
> <PUBCHEM_MOLECULAR_WEIGHT>
258.35
> <PUBCHEM_OPENEYE_CAN_SMILES>
CC(=CCCC1(C=CC2=C(O1)C=C(C=C2)OC)C)C
> <PUBCHEM_OPENEYE_ISO_SMILES>
CC(=CCCC1(C=CC2=C(O1)C=C(C=C2)OC)C)C
> <PUBCHEM_CACTVS_TPSA>
18.5
> <PUBCHEM_MONOISOTOPIC_WEIGHT>
258.161979940
> <PUBCHEM_TOTAL_CHARGE>
0
> <PUBCHEM_HEAVY_ATOM_COUNT>
19
> <PUBCHEM_ATOM_DEF_STEREO_COUNT>
0
> <PUBCHEM_ATOM_UDEF_STEREO_COUNT>
1
> <PUBCHEM_BOND_DEF_STEREO_COUNT>
0
> <PUBCHEM_BOND_UDEF_STEREO_COUNT>
0
> <PUBCHEM_ISOTOPIC_ATOM_COUNT>
0
> <PUBCHEM_COMPONENT_COUNT>
1
> <PUBCHEM_CACTVS_TAUTO_COUNT>
-1
> <PUBCHEM_COORDINATE_TYPE>
1
5
255
> <PUBCHEM_BONDANNOTATIONS>
12  15  8
13  16  8
15  16  8
3  7  3
8  12  8
8  9  8
9  13  8
$$$$
