501765
  -OEChem-10302200282D
107109  0     1  0  0  0  0  0999 V2000
    4.5981    0.9973    0.0000 O   0  0  0  0  0  0  0  0  0  0  0  0
    7.1962    0.4973    0.0000 O   0  0  0  0  0  0  0  0  0  0  0  0
    8.2981    1.2979    0.0000 O   0  0  0  0  0  0  0  0  0  0  0  0
    5.4641   -2.5027    0.0000 O   0  0  0  0  0  0  0  0  0  0  0  0
   10.3196    4.2835    0.0000 O   0  0  0  0  0  0  0  0  0  0  0  0
    5.4641   -3.5027    0.0000 O   0  0  0  0  0  0  0  0  0  0  0  0
    8.9282   -3.5027    0.0000 O   0  0  0  0  0  0  0  0  0  0  0  0
   13.3807    2.3783    0.0000 O   0  0  0  0  0  0  0  0  0  0  0  0
    6.3301    1.9973    0.0000 N   0  0  0  0  0  0  0  0  0  0  0  0
    6.3301   -1.0027    0.0000 N   0  0  0  0  0  0  0  0  0  0  0  0
    8.8334    2.9452    0.0000 N   0  0  0  0  0  0  0  0  0  0  0  0
    8.0622   -2.0027    0.0000 N   0  0  0  0  0  0  0  0  0  0  0  0
   11.4786    2.9963    0.0000 N   0  0  0  0  0  0  0  0  0  0  0  0
    6.3301   -5.0027    0.0000 N   0  0  0  0  0  0  0  0  0  0  0  0
   13.9159    4.0255    0.0000 N   0  0  0  0  0  0  0  0  0  0  0  0
   10.6603   -2.5027    0.0000 N   0  0  0  0  0  0  0  0  0  0  0  0
   10.6603   -0.5027    0.0000 N   0  0  0  0  0  0  0  0  0  0  0  0
    3.7320   -0.5027    0.0000 C   0  0  0  0  0  0  0  0  0  0  0  0
    4.5981   -1.0027    0.0000 C   0  0  0  0  0  0  0  0  0  0  0  0
    2.8660   -1.0027    0.0000 C   0  0  0  0  0  0  0  0  0  0  0  0
    3.7320    0.4973    0.0000 C   0  0  0  0  0  0  0  0  0  0  0  0
    5.4641   -0.5027    0.0000 C   0  0  1  0  0  0  0  0  0  0  0  0
    2.0000   -0.5027    0.0000 C   0  0  0  0  0  0  0  0  0  0  0  0
    2.8660    0.9973    0.0000 C   0  0  0  0  0  0  0  0  0  0  0  0
    2.0000    0.4973    0.0000 C   0  0  0  0  0  0  0  0  0  0  0  0
    5.4641    0.4973    0.0000 C   0  0  1  0  0  0  0  0  0  0  0  0
    7.1391    2.5851    0.0000 C   0  0  1  0  0  0  0  0  0  0  0  0
    6.8301    3.5361    0.0000 C   0  0  0  0  0  0  0  0  0  0  0  0
    5.5211    2.5851    0.0000 C   0  0  0  0  0  0  0  0  0  0  0  0
    5.8301    3.5361    0.0000 C   0  0  0  0  0  0  0  0  0  0  0  0
    6.3301    0.9973    0.0000 C   0  0  0  0  0  0  0  0  0  0  0  0
    8.0902    2.2761    0.0000 C   0  0  0  0  0  0  0  0  0  0  0  0
    6.3301   -2.0027    0.0000 C   0  0  0  0  0  0  0  0  0  0  0  0
    9.7844    2.6362    0.0000 C   0  0  1  0  0  0  0  0  0  0  0  0
    9.9923    1.6580    0.0000 C   0  0  1  0  0  0  0  0  0  0  0  0
    7.1962   -2.5027    0.0000 C   0  0  2  0  0  0  0  0  0  0  0  0
   10.9434    1.3490    0.0000 C   0  0  0  0  0  0  0  0  0  0  0  0
   10.5275    3.3053    0.0000 C   0  0  0  0  0  0  0  0  0  0  0  0
    9.2492    0.9889    0.0000 C   0  0  0  0  0  0  0  0  0  0  0  0
    7.1962   -3.5027    0.0000 C   0  0  0  0  0  0  0  0  0  0  0  0
   12.2217    3.6654    0.0000 C   0  0  1  0  0  0  0  0  0  0  0  0
   11.1513    0.3709    0.0000 C   0  0  0  0  0  0  0  0  0  0  0  0
   12.0138    4.6436    0.0000 C   0  0  0  0  0  0  0  0  0  0  0  0
    6.3301   -4.0027    0.0000 C   0  0  0  0  0  0  0  0  0  0  0  0
    8.9282   -2.5027    0.0000 C   0  0  0  0  0  0  0  0  0  0  0  0
   13.1728    3.3564    0.0000 C   0  0  0  0  0  0  0  0  0  0  0  0
   12.7570    5.3127    0.0000 C   0  0  0  0  0  0  0  0  0  0  0  0
   11.0628    4.9526    0.0000 C   0  0  0  0  0  0  0  0  0  0  0  0
    9.7942   -2.0027    0.0000 C   0  0  0  0  0  0  0  0  0  0  0  0
    9.7942   -1.0027    0.0000 C   0  0  0  0  0  0  0  0  0  0  0  0
   11.5263   -2.0027    0.0000 C   0  0  0  0  0  0  0  0  0  0  0  0
   11.5263   -1.0027    0.0000 C   0  0  0  0  0  0  0  0  0  0  0  0
    3.7320   -1.1227    0.0000 H   0  0  0  0  0  0  0  0  0  0  0  0
    4.1996   -1.4776    0.0000 H   0  0  0  0  0  0  0  0  0  0  0  0
    4.9966   -1.4776    0.0000 H   0  0  0  0  0  0  0  0  0  0  0  0
    2.4675   -1.4776    0.0000 H   0  0  0  0  0  0  0  0  0  0  0  0
    3.2646   -1.4776    0.0000 H   0  0  0  0  0  0  0  0  0  0  0  0
    4.3426    0.3896    0.0000 H   0  0  0  0  0  0  0  0  0  0  0  0
    3.9441    1.0799    0.0000 H   0  0  0  0  0  0  0  0  0  0  0  0
    5.4641   -1.1227    0.0000 H   0  0  0  0  0  0  0  0  0  0  0  0
    1.3894   -0.3950    0.0000 H   0  0  0  0  0  0  0  0  0  0  0  0
    1.7880   -1.0853    0.0000 H   0  0  0  0  0  0  0  0  0  0  0  0
    3.2646    1.4722    0.0000 H   0  0  0  0  0  0  0  0  0  0  0  0
    2.4675    1.4722    0.0000 H   0  0  0  0  0  0  0  0  0  0  0  0
    1.7880    1.0799    0.0000 H   0  0  0  0  0  0  0  0  0  0  0  0
    1.3894    0.3896    0.0000 H   0  0  0  0  0  0  0  0  0  0  0  0
    5.4641    1.1173    0.0000 H   0  0  0  0  0  0  0  0  0  0  0  0
    7.2361    1.9727    0.0000 H   0  0  0  0  0  0  0  0  0  0  0  0
    7.4366    3.6650    0.0000 H   0  0  0  0  0  0  0  0  0  0  0  0
    6.7653    4.1527    0.0000 H   0  0  0  0  0  0  0  0  0  0  0  0
    4.9547    2.8373    0.0000 H   0  0  0  0  0  0  0  0  0  0  0  0
    5.2111    2.0482    0.0000 H   0  0  0  0  0  0  0  0  0  0  0  0
    5.8949    4.1527    0.0000 H   0  0  0  0  0  0  0  0  0  0  0  0
    5.2237    3.6650    0.0000 H   0  0  0  0  0  0  0  0  0  0  0  0
    6.8671   -0.6927    0.0000 H   0  0  0  0  0  0  0  0  0  0  0  0
    4.5981    1.6173    0.0000 H   0  0  0  0  0  0  0  0  0  0  0  0
    9.6555    3.2426    0.0000 H   0  0  0  0  0  0  0  0  0  0  0  0
    8.7044    3.5516    0.0000 H   0  0  0  0  0  0  0  0  0  0  0  0
    9.4027    1.8496    0.0000 H   0  0  0  0  0  0  0  0  0  0  0  0
    7.7331   -2.8127    0.0000 H   0  0  0  0  0  0  0  0  0  0  0  0
   11.5630    1.3706    0.0000 H   0  0  0  0  0  0  0  0  0  0  0  0
   11.0297    1.9630    0.0000 H   0  0  0  0  0  0  0  0  0  0  0  0
    8.8343    1.4497    0.0000 H   0  0  0  0  0  0  0  0  0  0  0  0
    8.7884    0.5740    0.0000 H   0  0  0  0  0  0  0  0  0  0  0  0
    9.6640    0.5282    0.0000 H   0  0  0  0  0  0  0  0  0  0  0  0
    7.4082   -4.0853    0.0000 H   0  0  0  0  0  0  0  0  0  0  0  0
    7.8067   -3.3950    0.0000 H   0  0  0  0  0  0  0  0  0  0  0  0
    8.0622   -1.3827    0.0000 H   0  0  0  0  0  0  0  0  0  0  0  0
   11.6075    2.3898    0.0000 H   0  0  0  0  0  0  0  0  0  0  0  0
   12.3507    3.0590    0.0000 H   0  0  0  0  0  0  0  0  0  0  0  0
   10.5448    0.2420    0.0000 H   0  0  0  0  0  0  0  0  0  0  0  0
   11.2802   -0.2356    0.0000 H   0  0  0  0  0  0  0  0  0  0  0  0
   11.7577    0.4998    0.0000 H   0  0  0  0  0  0  0  0  0  0  0  0
   11.5531    4.2287    0.0000 H   0  0  0  0  0  0  0  0  0  0  0  0
   13.1718    4.8520    0.0000 H   0  0  0  0  0  0  0  0  0  0  0  0
   13.2177    5.7276    0.0000 H   0  0  0  0  0  0  0  0  0  0  0  0
   12.3421    5.7735    0.0000 H   0  0  0  0  0  0  0  0  0  0  0  0
   11.2544    5.5422    0.0000 H   0  0  0  0  0  0  0  0  0  0  0  0
   10.4731    5.1442    0.0000 H   0  0  0  0  0  0  0  0  0  0  0  0
   10.8712    4.3629    0.0000 H   0  0  0  0  0  0  0  0  0  0  0  0
    5.7932   -5.3127    0.0000 H   0  0  0  0  0  0  0  0  0  0  0  0
    6.8671   -5.3127    0.0000 H   0  0  0  0  0  0  0  0  0  0  0  0
   14.5056    3.8340    0.0000 H   0  0  0  0  0  0  0  0  0  0  0  0
   13.7870    4.6320    0.0000 H   0  0  0  0  0  0  0  0  0  0  0  0
    9.2573   -0.6927    0.0000 H   0  0  0  0  0  0  0  0  0  0  0  0
   12.0632   -2.3127    0.0000 H   0  0  0  0  0  0  0  0  0  0  0  0
   12.0632   -0.6927    0.0000 H   0  0  0  0  0  0  0  0  0  0  0  0
 26  1  1  6  0  0  0
  1 76  1  0  0  0  0
  2 31  2  0  0  0  0
  3 32  2  0  0  0  0
  4 33  2  0  0  0  0
  5 38  2  0  0  0  0
  6 44  2  0  0  0  0
  7 45  2  0  0  0  0
  8 46  2  0  0  0  0
  9 27  1  0  0  0  0
  9 29  1  0  0  0  0
  9 31  1  0  0  0  0
 22 10  1  1  0  0  0
 10 33  1  0  0  0  0
 10 75  1  0  0  0  0
 11 32  1  0  0  0  0
 34 11  1  6  0  0  0
 11 78  1  0  0  0  0
 36 12  1  1  0  0  0
 12 45  1  0  0  0  0
 12 88  1  0  0  0  0
 13 38  1  0  0  0  0
 41 13  1  1  0  0  0
 13 89  1  0  0  0  0
 14 44  1  0  0  0  0
 14101  1  0  0  0  0
 14102  1  0  0  0  0
 15 46  1  0  0  0  0
 15103  1  0  0  0  0
 15104  1  0  0  0  0
 16 49  2  0  0  0  0
 16 51  1  0  0  0  0
 17 50  2  0  0  0  0
 17 52  1  0  0  0  0
 18 19  1  0  0  0  0
 18 20  1  0  0  0  0
 18 21  1  0  0  0  0
 18 53  1  0  0  0  0
 19 22  1  0  0  0  0
 19 54  1  0  0  0  0
 19 55  1  0  0  0  0
 20 23  1  0  0  0  0
 20 56  1  0  0  0  0
 20 57  1  0  0  0  0
 21 24  1  0  0  0  0
 21 58  1  0  0  0  0
 21 59  1  0  0  0  0
 22 26  1  0  0  0  0
 22 60  1  0  0  0  0
 23 25  1  0  0  0  0
 23 61  1  0  0  0  0
 23 62  1  0  0  0  0
 24 25  1  0  0  0  0
 24 63  1  0  0  0  0
 24 64  1  0  0  0  0
 25 65  1  0  0  0  0
 25 66  1  0  0  0  0
 26 31  1  0  0  0  0
 26 67  1  0  0  0  0
 27 28  1  0  0  0  0
 27 32  1  1  0  0  0
 27 68  1  0  0  0  0
 28 30  1  0  0  0  0
 28 69  1  0  0  0  0
 28 70  1  0  0  0  0
 29 30  1  0  0  0  0
 29 71  1  0  0  0  0
 29 72  1  0  0  0  0
 30 73  1  0  0  0  0
 30 74  1  0  0  0  0
 33 36  1  0  0  0  0
 34 35  1  0  0  0  0
 34 38  1  0  0  0  0
 34 77  1  0  0  0  0
 35 37  1  0  0  0  0
 35 39  1  1  0  0  0
 35 79  1  0  0  0  0
 36 40  1  0  0  0  0
 36 80  1  0  0  0  0
 37 42  1  0  0  0  0
 37 81  1  0  0  0  0
 37 82  1  0  0  0  0
 39 83  1  0  0  0  0
 39 84  1  0  0  0  0
 39 85  1  0  0  0  0
 40 44  1  0  0  0  0
 40 86  1  0  0  0  0
 40 87  1  0  0  0  0
 41 43  1  0  0  0  0
 41 46  1  0  0  0  0
 41 90  1  0  0  0  0
 42 91  1  0  0  0  0
 42 92  1  0  0  0  0
 42 93  1  0  0  0  0
 43 47  1  0  0  0  0
 43 48  1  0  0  0  0
 43 94  1  0  0  0  0
 45 49  1  0  0  0  0
 47 95  1  0  0  0  0
 47 96  1  0  0  0  0
 47 97  1  0  0  0  0
 48 98  1  0  0  0  0
 48 99  1  0  0  0  0
 48100  1  0  0  0  0
 49 50  1  0  0  0  0
 50105  1  0  0  0  0
 51 52  2  0  0  0  0
 51106  1  0  0  0  0
 52107  1  0  0  0  0
M  END
> <PUBCHEM_COMPOUND_CID>
501765
> <PUBCHEM_COMPOUND_CANONICALIZED>
1
> <PUBCHEM_CACTVS_COMPLEXITY>
1280
> <PUBCHEM_CACTVS_HBOND_ACCEPTOR>
10
> <PUBCHEM_CACTVS_HBOND_DONOR>
7
> <PUBCHEM_CACTVS_ROTATABLE_BOND>
18
> <PUBCHEM_CACTVS_SUBSKEYS>
AAADcfB//AAAAAAAAAAAAAAAAAAAAWAAAAA8QAAAAAAAAAABgAAAHgAQCAAADTzhlgYugBPIEgCoARV3VAKAgCQXEiAIUIH4dEACUFpAwCAUQIgEFgDQAMGdyaCOAAAAAAAAAAAAAAAAAAAAAAAAAAAAAA==
> <PUBCHEM_IUPAC_OPENEYE_NAME>
(2S)-N-[(1S,2S)-3-[(2S)-2-[[(1S,2R)-1-[[(1S)-1-carbamoyl-2-methyl-propyl]carbamoyl]-2-methyl-butyl]carbamoyl]pyrrolidin-1-yl]-1-(cyclohexylmethyl)-2-hydroxy-3-oxo-propyl]-2-(pyrazine-2-carbonylamino)butanediamide
> <PUBCHEM_IUPAC_CAS_NAME>
(2S)-N-[(2S,3S)-4-[(2S)-2-[[[(2S,3R)-1-[[(2S)-1-amino-3-methyl-1-oxobutan-2-yl]amino]-3-methyl-1-oxopentan-2-yl]amino]-oxomethyl]-1-pyrrolidinyl]-1-cyclohexyl-3-hydroxy-4-oxobutan-2-yl]-2-[[oxo(2-pyrazinyl)methyl]amino]butanediamide
> <PUBCHEM_IUPAC_NAME_MARKUP>
(2<I>S</I>)-<I>N</I>-[(2<I>S</I>,3<I>S</I>)-4-[(2<I>S</I>)-2-[[(2<I>S</I>,3<I>R</I>)-1-[[(2<I>S</I>)-1-amino-3-methyl-1-oxobutan-2-yl]amino]-3-methyl-1-oxopentan-2-yl]carbamoyl]pyrrolidin-1-yl]-1-cyclohexyl-3-hydroxy-4-oxobutan-2-yl]-2-(pyrazine-2-carbonylamino)butanediamide
> <PUBCHEM_IUPAC_NAME>
(2S)-N-[(2S,3S)-4-[(2S)-2-[[(2S,3R)-1-[[(2S)-1-amino-3-methyl-1-oxobutan-2-yl]amino]-3-methyl-1-oxopentan-2-yl]carbamoyl]pyrrolidin-1-yl]-1-cyclohexyl-3-hydroxy-4-oxobutan-2-yl]-2-(pyrazine-2-carbonylamino)butanediamide
> <PUBCHEM_IUPAC_SYSTEMATIC_NAME>
(2S)-N-[(2S,3S)-4-[(2S)-2-[[(2S,3R)-1-[[(2S)-1-azanyl-3-methyl-1-oxidanylidene-butan-2-yl]amino]-3-methyl-1-oxidanylidene-pentan-2-yl]carbamoyl]pyrrolidin-1-yl]-1-cyclohexyl-3-oxidanyl-4-oxidanylidene-butan-2-yl]-2-(pyrazin-2-ylcarbonylamino)butanediamide
> <PUBCHEM_IUPAC_TRADITIONAL_NAME>
(2S)-N-[(1S,2S)-3-[(2S)-2-[[(1S,2R)-1-[[(1S)-1-carbamoyl-2-methyl-propyl]carbamoyl]-2-methyl-butyl]carbamoyl]pyrrolidino]-1-(cyclohexylmethyl)-2-hydroxy-3-keto-propyl]-2-(pyrazinoylamino)succinamide
> <PUBCHEM_IUPAC_INCHI>
InChI=1S/C35H55N9O8/c1-5-20(4)28(34(51)42-27(19(2)3)30(37)47)43-33(50)25-12-9-15-44(25)35(52)29(46)22(16-21-10-7-6-8-11-21)40-31(48)23(17-26(36)45)41-32(49)24-18-38-13-14-39-24/h13-14,18-23,25,27-29,46H,5-12,15-17H2,1-4H3,(H2,36,45)(H2,37,47)(H,40,48)(H,41,49)(H,42,51)(H,43,50)/t20-,22+,23+,25+,27+,28+,29+/m1/s1
> <PUBCHEM_IUPAC_INCHIKEY>
SCKOHCJNHJGVCZ-RQALNXBVSA-N
> <PUBCHEM_XLOGP3_AA>
0.9
> <PUBCHEM_EXACT_MASS>
729.41735975
> <PUBCHEM_MOLECULAR_FORMULA>
C35H55N9O8
> <PUBCHEM_MOLECULAR_WEIGHT>
729.9
> <PUBCHEM_OPENEYE_CAN_SMILES>
CCC(C)C(C(=O)NC(C(C)C)C(=O)N)NC(=O)C1CCCN1C(=O)C(C(CC2CCCCC2)NC(=O)C(CC(=O)N)NC(=O)C3=NC=CN=C3)O
> <PUBCHEM_OPENEYE_ISO_SMILES>
CC[C@@H](C)[C@@H](C(=O)N[C@@H](C(C)C)C(=O)N)NC(=O)[C@@H]1CCCN1C(=O)[C@H]([C@H](CC2CCCCC2)NC(=O)[C@H](CC(=O)N)NC(=O)C3=NC=CN=C3)O
> <PUBCHEM_CACTVS_TPSA>
269
> <PUBCHEM_MONOISOTOPIC_WEIGHT>
729.41735975
> <PUBCHEM_TOTAL_CHARGE>
0
> <PUBCHEM_HEAVY_ATOM_COUNT>
52
> <PUBCHEM_ATOM_DEF_STEREO_COUNT>
7
> <PUBCHEM_ATOM_UDEF_STEREO_COUNT>
0
> <PUBCHEM_BOND_DEF_STEREO_COUNT>
0
> <PUBCHEM_BOND_UDEF_STEREO_COUNT>
0
> <PUBCHEM_ISOTOPIC_ATOM_COUNT>
0
> <PUBCHEM_COMPONENT_COUNT>
1
> <PUBCHEM_CACTVS_TAUTO_COUNT>
-1
> <PUBCHEM_COORDINATE_TYPE>
1
5
255
> <PUBCHEM_BONDANNOTATIONS>
26  1  6
22  10  5
34  11  6
36  12  5
41  13  5
16  49  8
16  51  8
17  50  8
17  52  8
27  32  5
35  39  5
49  50  8
51  52  8
$$$$
