501757
  -OEChem-10302200282D
 92 94  0     1  0  0  0  0  0999 V2000
    8.0622   -0.2500    0.0000 O   0  0  0  0  0  0  0  0  0  0  0  0
    8.9282   -0.7500    0.0000 O   0  0  0  0  0  0  0  0  0  0  0  0
    5.4641   -0.7500    0.0000 O   0  0  0  0  0  0  0  0  0  0  0  0
    4.5981    2.7500    0.0000 O   0  0  0  0  0  0  0  0  0  0  0  0
   12.3923   -1.7500    0.0000 O   0  0  0  0  0  0  0  0  0  0  0  0
   11.5263   -3.2500    0.0000 O   0  0  0  0  0  0  0  0  0  0  0  0
    8.0622   -2.2500    0.0000 N   0  0  0  0  0  0  0  0  0  0  0  0
    6.3301    0.7500    0.0000 N   0  0  0  0  0  0  0  0  0  0  0  0
   10.6603   -1.7500    0.0000 N   0  0  0  0  0  0  0  0  0  0  0  0
    6.3301    2.7500    0.0000 N   0  0  0  0  0  0  0  0  0  0  0  0
    7.1962   -1.7500    0.0000 C   0  0  2  0  0  0  0  0  0  0  0  0
    7.1962   -0.7500    0.0000 C   0  0  2  0  0  0  0  0  0  0  0  0
    9.7942   -2.2500    0.0000 C   0  0  1  0  0  0  0  0  0  0  0  0
    6.3301   -2.2500    0.0000 C   0  0  0  0  0  0  0  0  0  0  0  0
    9.7942   -3.2500    0.0000 C   0  0  0  0  0  0  0  0  0  0  0  0
    8.9282   -1.7500    0.0000 C   0  0  0  0  0  0  0  0  0  0  0  0
    5.4641    1.2500    0.0000 C   0  0  1  0  0  0  0  0  0  0  0  0
    6.3301   -0.2500    0.0000 C   0  0  0  0  0  0  0  0  0  0  0  0
    6.3301   -3.2500    0.0000 C   0  0  0  0  0  0  0  0  0  0  0  0
   10.6603   -3.7500    0.0000 C   0  0  0  0  0  0  0  0  0  0  0  0
    8.9282   -3.7500    0.0000 C   0  0  0  0  0  0  0  0  0  0  0  0
    4.5981    0.7500    0.0000 C   0  0  0  0  0  0  0  0  0  0  0  0
    5.4641    2.2500    0.0000 C   0  0  0  0  0  0  0  0  0  0  0  0
    7.1962   -3.7500    0.0000 C   0  0  0  0  0  0  0  0  0  0  0  0
    5.4641   -3.7500    0.0000 C   0  0  0  0  0  0  0  0  0  0  0  0
    6.3301    3.7500    0.0000 C   0  0  0  0  0  0  0  0  0  0  0  0
    3.7320    1.2500    0.0000 C   0  0  0  0  0  0  0  0  0  0  0  0
    7.1962    4.2500    0.0000 C   0  0  0  0  0  0  0  0  0  0  0  0
   11.5263   -2.2500    0.0000 C   0  0  0  0  0  0  0  0  0  0  0  0
    7.1962   -4.7500    0.0000 C   0  0  0  0  0  0  0  0  0  0  0  0
    5.4641   -4.7500    0.0000 C   0  0  0  0  0  0  0  0  0  0  0  0
    7.1962    5.2500    0.0000 C   0  0  0  0  0  0  0  0  0  0  0  0
    8.0622    3.7500    0.0000 C   0  0  0  0  0  0  0  0  0  0  0  0
    2.8660    0.7500    0.0000 C   0  0  0  0  0  0  0  0  0  0  0  0
    3.7320    2.2500    0.0000 C   0  0  0  0  0  0  0  0  0  0  0  0
    6.3301   -5.2500    0.0000 C   0  0  0  0  0  0  0  0  0  0  0  0
    2.0000    1.2500    0.0000 C   0  0  0  0  0  0  0  0  0  0  0  0
    2.8660    2.7500    0.0000 C   0  0  0  0  0  0  0  0  0  0  0  0
    2.0000    2.2500    0.0000 C   0  0  0  0  0  0  0  0  0  0  0  0
   13.2583   -2.2500    0.0000 C   0  0  0  0  0  0  0  0  0  0  0  0
   14.1244   -1.7500    0.0000 C   0  0  0  0  0  0  0  0  0  0  0  0
   14.9904   -2.2500    0.0000 C   0  0  0  0  0  0  0  0  0  0  0  0
   14.1244   -0.7500    0.0000 C   0  0  0  0  0  0  0  0  0  0  0  0
   15.8564   -1.7500    0.0000 C   0  0  0  0  0  0  0  0  0  0  0  0
   14.9904   -0.2500    0.0000 C   0  0  0  0  0  0  0  0  0  0  0  0
   15.8564   -0.7500    0.0000 C   0  0  0  0  0  0  0  0  0  0  0  0
    7.7331   -1.4400    0.0000 H   0  0  0  0  0  0  0  0  0  0  0  0
    7.1962   -0.1300    0.0000 H   0  0  0  0  0  0  0  0  0  0  0  0
    9.7942   -1.6300    0.0000 H   0  0  0  0  0  0  0  0  0  0  0  0
    6.1181   -1.6674    0.0000 H   0  0  0  0  0  0  0  0  0  0  0  0
    5.7196   -2.3577    0.0000 H   0  0  0  0  0  0  0  0  0  0  0  0
    9.2573   -2.9400    0.0000 H   0  0  0  0  0  0  0  0  0  0  0  0
    8.0622   -2.8700    0.0000 H   0  0  0  0  0  0  0  0  0  0  0  0
    5.4641    0.6300    0.0000 H   0  0  0  0  0  0  0  0  0  0  0  0
    6.8671    1.0600    0.0000 H   0  0  0  0  0  0  0  0  0  0  0  0
   10.3503   -4.2869    0.0000 H   0  0  0  0  0  0  0  0  0  0  0  0
   11.1972   -4.0600    0.0000 H   0  0  0  0  0  0  0  0  0  0  0  0
   10.9703   -3.2131    0.0000 H   0  0  0  0  0  0  0  0  0  0  0  0
    8.6182   -3.2131    0.0000 H   0  0  0  0  0  0  0  0  0  0  0  0
    8.3913   -4.0600    0.0000 H   0  0  0  0  0  0  0  0  0  0  0  0
    9.2382   -4.2869    0.0000 H   0  0  0  0  0  0  0  0  0  0  0  0
    4.1996    0.2751    0.0000 H   0  0  0  0  0  0  0  0  0  0  0  0
    4.9966    0.2751    0.0000 H   0  0  0  0  0  0  0  0  0  0  0  0
   10.6603   -1.1300    0.0000 H   0  0  0  0  0  0  0  0  0  0  0  0
    8.0622    0.3700    0.0000 H   0  0  0  0  0  0  0  0  0  0  0  0
    7.7331   -3.4400    0.0000 H   0  0  0  0  0  0  0  0  0  0  0  0
    4.9272   -3.4400    0.0000 H   0  0  0  0  0  0  0  0  0  0  0  0
    6.1181    4.3326    0.0000 H   0  0  0  0  0  0  0  0  0  0  0  0
    5.7196    3.6423    0.0000 H   0  0  0  0  0  0  0  0  0  0  0  0
    6.6592    4.5600    0.0000 H   0  0  0  0  0  0  0  0  0  0  0  0
    6.8671    2.4400    0.0000 H   0  0  0  0  0  0  0  0  0  0  0  0
    7.7331   -5.0600    0.0000 H   0  0  0  0  0  0  0  0  0  0  0  0
    4.9272   -5.0600    0.0000 H   0  0  0  0  0  0  0  0  0  0  0  0
    7.8162    5.2500    0.0000 H   0  0  0  0  0  0  0  0  0  0  0  0
    7.1962    5.8700    0.0000 H   0  0  0  0  0  0  0  0  0  0  0  0
    6.5762    5.2500    0.0000 H   0  0  0  0  0  0  0  0  0  0  0  0
    7.7522    3.2131    0.0000 H   0  0  0  0  0  0  0  0  0  0  0  0
    8.5991    3.4400    0.0000 H   0  0  0  0  0  0  0  0  0  0  0  0
    8.3722    4.2869    0.0000 H   0  0  0  0  0  0  0  0  0  0  0  0
    2.8660    0.1300    0.0000 H   0  0  0  0  0  0  0  0  0  0  0  0
    4.2690    2.5600    0.0000 H   0  0  0  0  0  0  0  0  0  0  0  0
    6.3301   -5.8700    0.0000 H   0  0  0  0  0  0  0  0  0  0  0  0
    1.4631    0.9400    0.0000 H   0  0  0  0  0  0  0  0  0  0  0  0
    2.8660    3.3700    0.0000 H   0  0  0  0  0  0  0  0  0  0  0  0
    1.4631    2.5600    0.0000 H   0  0  0  0  0  0  0  0  0  0  0  0
   12.8598   -2.7250    0.0000 H   0  0  0  0  0  0  0  0  0  0  0  0
   13.6569   -2.7250    0.0000 H   0  0  0  0  0  0  0  0  0  0  0  0
   14.9904   -2.8700    0.0000 H   0  0  0  0  0  0  0  0  0  0  0  0
   13.5874   -0.4400    0.0000 H   0  0  0  0  0  0  0  0  0  0  0  0
   16.3933   -2.0600    0.0000 H   0  0  0  0  0  0  0  0  0  0  0  0
   14.9904    0.3700    0.0000 H   0  0  0  0  0  0  0  0  0  0  0  0
   16.3933   -0.4400    0.0000 H   0  0  0  0  0  0  0  0  0  0  0  0
 12  1  1  6  0  0  0
  1 65  1  0  0  0  0
  2 16  2  0  0  0  0
  3 18  2  0  0  0  0
  4 23  2  0  0  0  0
  5 29  1  0  0  0  0
  5 40  1  0  0  0  0
  6 29  2  0  0  0  0
 11  7  1  1  0  0  0
  7 16  1  0  0  0  0
  7 53  1  0  0  0  0
 17  8  1  1  0  0  0
  8 18  1  0  0  0  0
  8 55  1  0  0  0  0
 13  9  1  1  0  0  0
  9 29  1  0  0  0  0
  9 64  1  0  0  0  0
 10 23  1  0  0  0  0
 10 26  1  0  0  0  0
 10 71  1  0  0  0  0
 11 12  1  0  0  0  0
 11 14  1  0  0  0  0
 11 47  1  0  0  0  0
 12 18  1  0  0  0  0
 12 48  1  0  0  0  0
 13 15  1  0  0  0  0
 13 16  1  0  0  0  0
 13 49  1  0  0  0  0
 14 19  1  0  0  0  0
 14 50  1  0  0  0  0
 14 51  1  0  0  0  0
 15 20  1  0  0  0  0
 15 21  1  0  0  0  0
 15 52  1  0  0  0  0
 17 22  1  0  0  0  0
 17 23  1  0  0  0  0
 17 54  1  0  0  0  0
 19 24  2  0  0  0  0
 19 25  1  0  0  0  0
 20 56  1  0  0  0  0
 20 57  1  0  0  0  0
 20 58  1  0  0  0  0
 21 59  1  0  0  0  0
 21 60  1  0  0  0  0
 21 61  1  0  0  0  0
 22 27  1  0  0  0  0
 22 62  1  0  0  0  0
 22 63  1  0  0  0  0
 24 30  1  0  0  0  0
 24 66  1  0  0  0  0
 25 31  2  0  0  0  0
 25 67  1  0  0  0  0
 26 28  1  0  0  0  0
 26 68  1  0  0  0  0
 26 69  1  0  0  0  0
 27 34  2  0  0  0  0
 27 35  1  0  0  0  0
 28 32  1  0  0  0  0
 28 33  1  0  0  0  0
 28 70  1  0  0  0  0
 30 36  2  0  0  0  0
 30 72  1  0  0  0  0
 31 36  1  0  0  0  0
 31 73  1  0  0  0  0
 32 74  1  0  0  0  0
 32 75  1  0  0  0  0
 32 76  1  0  0  0  0
 33 77  1  0  0  0  0
 33 78  1  0  0  0  0
 33 79  1  0  0  0  0
 34 37  1  0  0  0  0
 34 80  1  0  0  0  0
 35 38  2  0  0  0  0
 35 81  1  0  0  0  0
 36 82  1  0  0  0  0
 37 39  2  0  0  0  0
 37 83  1  0  0  0  0
 38 39  1  0  0  0  0
 38 84  1  0  0  0  0
 39 85  1  0  0  0  0
 40 41  1  0  0  0  0
 40 86  1  0  0  0  0
 40 87  1  0  0  0  0
 41 42  2  0  0  0  0
 41 43  1  0  0  0  0
 42 44  1  0  0  0  0
 42 88  1  0  0  0  0
 43 45  2  0  0  0  0
 43 89  1  0  0  0  0
 44 46  2  0  0  0  0
 44 90  1  0  0  0  0
 45 46  1  0  0  0  0
 45 91  1  0  0  0  0
 46 92  1  0  0  0  0
M  END
> <PUBCHEM_COMPOUND_CID>
501757
> <PUBCHEM_COMPOUND_CANONICALIZED>
1
> <PUBCHEM_CACTVS_COMPLEXITY>
941
> <PUBCHEM_CACTVS_HBOND_ACCEPTOR>
6
> <PUBCHEM_CACTVS_HBOND_DONOR>
5
> <PUBCHEM_CACTVS_ROTATABLE_BOND>
17
> <PUBCHEM_CACTVS_SUBSKEYS>
AAADcfB/uAAAAAAAAAAAAAAAAAAAAAAAAAAwYMAAAAAAAAABUAAAHgAQCAAADTzhmAYyCILABgCIAiFSGAICAAAgAAAIiIHICIkKdjqA8TmccAAk1gGYqAeYyKCOAAAAAAAAAAAAAAAAAAAAAAAAAAAAAA==
> <PUBCHEM_IUPAC_OPENEYE_NAME>
benzyl N-[(1S)-1-[[(1S,2R)-1-benzyl-3-[[(1S)-1-benzyl-2-(isobutylamino)-2-oxo-ethyl]amino]-2-hydroxy-3-oxo-propyl]carbamoyl]-2-methyl-propyl]carbamate
> <PUBCHEM_IUPAC_CAS_NAME>
N-[(2S)-1-[[(2S,3R)-3-hydroxy-4-[[(2S)-1-(2-methylpropylamino)-1-oxo-3-phenylpropan-2-yl]amino]-4-oxo-1-phenylbutan-2-yl]amino]-3-methyl-1-oxobutan-2-yl]carbamic acid (phenylmethyl) ester
> <PUBCHEM_IUPAC_NAME_MARKUP>
benzyl <I>N</I>-[(2<I>S</I>)-1-[[(2<I>S</I>,3<I>R</I>)-3-hydroxy-4-[[(2<I>S</I>)-1-(2-methylpropylamino)-1-oxo-3-phenylpropan-2-yl]amino]-4-oxo-1-phenylbutan-2-yl]amino]-3-methyl-1-oxobutan-2-yl]carbamate
> <PUBCHEM_IUPAC_NAME>
benzyl N-[(2S)-1-[[(2S,3R)-3-hydroxy-4-[[(2S)-1-(2-methylpropylamino)-1-oxo-3-phenylpropan-2-yl]amino]-4-oxo-1-phenylbutan-2-yl]amino]-3-methyl-1-oxobutan-2-yl]carbamate
> <PUBCHEM_IUPAC_SYSTEMATIC_NAME>
(phenylmethyl) N-[(2S)-3-methyl-1-[[(2S,3R)-4-[[(2S)-1-(2-methylpropylamino)-1-oxidanylidene-3-phenyl-propan-2-yl]amino]-3-oxidanyl-4-oxidanylidene-1-phenyl-butan-2-yl]amino]-1-oxidanylidene-butan-2-yl]carbamate
> <PUBCHEM_IUPAC_TRADITIONAL_NAME>
N-[(1S)-1-[[(1S,2R)-1-benzyl-3-[[(1S)-1-benzyl-2-(isobutylamino)-2-keto-ethyl]amino]-2-hydroxy-3-keto-propyl]carbamoyl]-2-methyl-propyl]carbamic acid benzyl ester
> <PUBCHEM_IUPAC_INCHI>
InChI=1S/C36H46N4O6/c1-24(2)22-37-33(42)30(21-27-16-10-6-11-17-27)39-35(44)32(41)29(20-26-14-8-5-9-15-26)38-34(43)31(25(3)4)40-36(45)46-23-28-18-12-7-13-19-28/h5-19,24-25,29-32,41H,20-23H2,1-4H3,(H,37,42)(H,38,43)(H,39,44)(H,40,45)/t29-,30-,31-,32+/m0/s1
> <PUBCHEM_IUPAC_INCHIKEY>
HHJATPPJPFQTLD-RTNMLALUSA-N
> <PUBCHEM_XLOGP3_AA>
5.5
> <PUBCHEM_EXACT_MASS>
630.34173520
> <PUBCHEM_MOLECULAR_FORMULA>
C36H46N4O6
> <PUBCHEM_MOLECULAR_WEIGHT>
630.8
> <PUBCHEM_OPENEYE_CAN_SMILES>
CC(C)CNC(=O)C(CC1=CC=CC=C1)NC(=O)C(C(CC2=CC=CC=C2)NC(=O)C(C(C)C)NC(=O)OCC3=CC=CC=C3)O
> <PUBCHEM_OPENEYE_ISO_SMILES>
CC(C)CNC(=O)[C@H](CC1=CC=CC=C1)NC(=O)[C@@H]([C@H](CC2=CC=CC=C2)NC(=O)[C@H](C(C)C)NC(=O)OCC3=CC=CC=C3)O
> <PUBCHEM_CACTVS_TPSA>
146
> <PUBCHEM_MONOISOTOPIC_WEIGHT>
630.34173520
> <PUBCHEM_TOTAL_CHARGE>
0
> <PUBCHEM_HEAVY_ATOM_COUNT>
46
> <PUBCHEM_ATOM_DEF_STEREO_COUNT>
4
> <PUBCHEM_ATOM_UDEF_STEREO_COUNT>
0
> <PUBCHEM_BOND_DEF_STEREO_COUNT>
0
> <PUBCHEM_BOND_UDEF_STEREO_COUNT>
0
> <PUBCHEM_ISOTOPIC_ATOM_COUNT>
0
> <PUBCHEM_COMPONENT_COUNT>
1
> <PUBCHEM_CACTVS_TAUTO_COUNT>
-1
> <PUBCHEM_COORDINATE_TYPE>
1
5
255
> <PUBCHEM_BONDANNOTATIONS>
12  1  6
19  24  8
19  25  8
24  30  8
25  31  8
27  34  8
27  35  8
30  36  8
31  36  8
34  37  8
35  38  8
37  39  8
38  39  8
41  42  8
41  43  8
42  44  8
43  45  8
44  46  8
45  46  8
11  7  5
17  8  5
13  9  5
$$$$
