501744
  -OEChem-10302200282D
107109  0     1  0  0  0  0  0999 V2000
   10.1589   -0.6045    0.0000 O   0  0  0  0  0  0  0  0  0  0  0  0
    6.4589   -0.3039    0.0000 O   0  0  0  0  0  0  0  0  0  0  0  0
    7.5608   -1.1045    0.0000 O   0  0  0  0  0  0  0  0  0  0  0  0
    3.2784    1.3945    0.0000 O   0  0  0  0  0  0  0  0  0  0  0  0
   11.0249   -1.1045    0.0000 O   0  0  0  0  0  0  0  0  0  0  0  0
    4.8532    4.6380    0.0000 O   0  0  0  0  0  0  0  0  0  0  0  0
   13.6230   -3.6045    0.0000 O   0  0  0  0  0  0  0  0  0  0  0  0
   11.8910   -0.6045    0.0000 O   0  0  0  0  0  0  0  0  0  0  0  0
   13.6230    0.3955    0.0000 O   0  0  0  0  0  0  0  0  0  0  0  0
    8.4268    0.3955    0.0000 N   0  0  0  0  0  0  0  0  0  0  0  0
    5.9236    1.3434    0.0000 N   0  0  0  0  0  0  0  0  0  0  0  0
   10.1589   -2.6045    0.0000 N   0  0  0  0  0  0  0  0  0  0  0  0
    4.4374    2.6816    0.0000 N   0  0  0  0  0  0  0  0  0  0  0  0
   12.7570   -2.1045    0.0000 N   0  0  0  0  0  0  0  0  0  0  0  0
    3.1590    4.9981    0.0000 N   0  0  0  0  0  0  0  0  0  0  0  0
   12.7570   -5.1045    0.0000 N   0  0  0  0  0  0  0  0  0  0  0  0
    7.6178    0.9833    0.0000 C   0  0  1  0  0  0  0  0  0  0  0  0
    7.9268    1.9343    0.0000 C   0  0  0  0  0  0  0  0  0  0  0  0
    8.9268    1.9343    0.0000 C   0  0  0  0  0  0  0  0  0  0  0  0
    9.2359    0.9833    0.0000 C   0  0  0  0  0  0  0  0  0  0  0  0
    6.6668    0.6743    0.0000 C   0  0  0  0  0  0  0  0  0  0  0  0
    8.4268   -0.6045    0.0000 C   0  0  0  0  0  0  0  0  0  0  0  0
    9.2929   -1.1045    0.0000 C   0  0  2  0  0  0  0  0  0  0  0  0
    4.9726    1.0344    0.0000 C   0  0  1  0  0  0  0  0  0  0  0  0
    4.7647    0.0562    0.0000 C   0  0  1  0  0  0  0  0  0  0  0  0
    9.2929   -2.1045    0.0000 C   0  0  2  0  0  0  0  0  0  0  0  0
    8.4268   -2.6045    0.0000 C   0  0  0  0  0  0  0  0  0  0  0  0
    3.8136   -0.2528    0.0000 C   0  0  0  0  0  0  0  0  0  0  0  0
    4.2294    1.7035    0.0000 C   0  0  0  0  0  0  0  0  0  0  0  0
    5.5078   -0.6129    0.0000 C   0  0  0  0  0  0  0  0  0  0  0  0
    3.6942    3.3508    0.0000 C   0  0  1  0  0  0  0  0  0  0  0  0
    8.4268   -3.6045    0.0000 C   0  0  0  0  0  0  0  0  0  0  0  0
    3.0705    0.4163    0.0000 C   0  0  0  0  0  0  0  0  0  0  0  0
    2.7431    3.0418    0.0000 C   0  0  0  0  0  0  0  0  0  0  0  0
   11.0249   -2.1045    0.0000 C   0  0  0  0  0  0  0  0  0  0  0  0
   11.8910   -2.6045    0.0000 C   0  0  2  0  0  0  0  0  0  0  0  0
    9.2929   -4.1045    0.0000 C   0  0  0  0  0  0  0  0  0  0  0  0
    7.5608   -4.1045    0.0000 C   0  0  0  0  0  0  0  0  0  0  0  0
    3.9021    4.3289    0.0000 C   0  0  0  0  0  0  0  0  0  0  0  0
    2.0000    3.7109    0.0000 C   0  0  0  0  0  0  0  0  0  0  0  0
    2.5352    2.0636    0.0000 C   0  0  0  0  0  0  0  0  0  0  0  0
   11.8910   -3.6045    0.0000 C   0  0  0  0  0  0  0  0  0  0  0  0
    9.2929   -5.1045    0.0000 C   0  0  0  0  0  0  0  0  0  0  0  0
    7.5608   -5.1045    0.0000 C   0  0  0  0  0  0  0  0  0  0  0  0
    8.4268   -5.6045    0.0000 C   0  0  0  0  0  0  0  0  0  0  0  0
   12.7570   -4.1045    0.0000 C   0  0  0  0  0  0  0  0  0  0  0  0
   12.7570   -1.1045    0.0000 C   0  0  0  0  0  0  0  0  0  0  0  0
   13.6230   -0.6045    0.0000 C   0  0  0  0  0  0  0  0  0  0  0  0
   14.4890    0.8955    0.0000 C   0  0  0  0  0  0  0  0  0  0  0  0
   14.4890    1.8955    0.0000 C   0  0  0  0  0  0  0  0  0  0  0  0
   15.3551    0.3955    0.0000 C   0  0  0  0  0  0  0  0  0  0  0  0
   15.3551    2.3955    0.0000 C   0  0  0  0  0  0  0  0  0  0  0  0
   16.2211    0.8955    0.0000 C   0  0  0  0  0  0  0  0  0  0  0  0
   16.2211    1.8955    0.0000 C   0  0  0  0  0  0  0  0  0  0  0  0
    7.5208    0.3709    0.0000 H   0  0  0  0  0  0  0  0  0  0  0  0
    7.9917    2.5509    0.0000 H   0  0  0  0  0  0  0  0  0  0  0  0
    7.3204    2.0632    0.0000 H   0  0  0  0  0  0  0  0  0  0  0  0
    9.5333    2.0632    0.0000 H   0  0  0  0  0  0  0  0  0  0  0  0
    8.8620    2.5509    0.0000 H   0  0  0  0  0  0  0  0  0  0  0  0
    9.5459    0.4463    0.0000 H   0  0  0  0  0  0  0  0  0  0  0  0
    9.8023    1.2354    0.0000 H   0  0  0  0  0  0  0  0  0  0  0  0
    9.2929   -0.4845    0.0000 H   0  0  0  0  0  0  0  0  0  0  0  0
    5.4333    0.6195    0.0000 H   0  0  0  0  0  0  0  0  0  0  0  0
    4.6358   -0.5502    0.0000 H   0  0  0  0  0  0  0  0  0  0  0  0
    6.0525    1.9498    0.0000 H   0  0  0  0  0  0  0  0  0  0  0  0
    9.2929   -2.7245    0.0000 H   0  0  0  0  0  0  0  0  0  0  0  0
    8.2148   -2.0219    0.0000 H   0  0  0  0  0  0  0  0  0  0  0  0
    7.8163   -2.7122    0.0000 H   0  0  0  0  0  0  0  0  0  0  0  0
    3.3250   -0.6345    0.0000 H   0  0  0  0  0  0  0  0  0  0  0  0
    4.1047   -0.8002    0.0000 H   0  0  0  0  0  0  0  0  0  0  0  0
    5.0930   -1.0737    0.0000 H   0  0  0  0  0  0  0  0  0  0  0  0
    5.9686   -1.0278    0.0000 H   0  0  0  0  0  0  0  0  0  0  0  0
    5.9227   -0.1522    0.0000 H   0  0  0  0  0  0  0  0  0  0  0  0
   10.1589   -3.2245    0.0000 H   0  0  0  0  0  0  0  0  0  0  0  0
   10.1589    0.0155    0.0000 H   0  0  0  0  0  0  0  0  0  0  0  0
    5.0270    2.8732    0.0000 H   0  0  0  0  0  0  0  0  0  0  0  0
    3.5653    2.7443    0.0000 H   0  0  0  0  0  0  0  0  0  0  0  0
    3.4853    0.8771    0.0000 H   0  0  0  0  0  0  0  0  0  0  0  0
    2.6097    0.8312    0.0000 H   0  0  0  0  0  0  0  0  0  0  0  0
    2.6556   -0.0444    0.0000 H   0  0  0  0  0  0  0  0  0  0  0  0
    2.8721    3.6482    0.0000 H   0  0  0  0  0  0  0  0  0  0  0  0
   12.4279   -2.9145    0.0000 H   0  0  0  0  0  0  0  0  0  0  0  0
    9.8298   -3.7945    0.0000 H   0  0  0  0  0  0  0  0  0  0  0  0
    7.0239   -3.7945    0.0000 H   0  0  0  0  0  0  0  0  0  0  0  0
    2.4149    4.1716    0.0000 H   0  0  0  0  0  0  0  0  0  0  0  0
    1.5392    4.1258    0.0000 H   0  0  0  0  0  0  0  0  0  0  0  0
    1.5851    3.2501    0.0000 H   0  0  0  0  0  0  0  0  0  0  0  0
    1.9288    2.1925    0.0000 H   0  0  0  0  0  0  0  0  0  0  0  0
    2.4063    1.4572    0.0000 H   0  0  0  0  0  0  0  0  0  0  0  0
    3.1417    1.9347    0.0000 H   0  0  0  0  0  0  0  0  0  0  0  0
   11.2804   -3.4968    0.0000 H   0  0  0  0  0  0  0  0  0  0  0  0
   11.6789   -4.1871    0.0000 H   0  0  0  0  0  0  0  0  0  0  0  0
   13.2939   -2.4145    0.0000 H   0  0  0  0  0  0  0  0  0  0  0  0
    9.8298   -5.4145    0.0000 H   0  0  0  0  0  0  0  0  0  0  0  0
    7.0239   -5.4145    0.0000 H   0  0  0  0  0  0  0  0  0  0  0  0
    8.4268   -6.2245    0.0000 H   0  0  0  0  0  0  0  0  0  0  0  0
    3.2879    5.6045    0.0000 H   0  0  0  0  0  0  0  0  0  0  0  0
    2.5693    4.8065    0.0000 H   0  0  0  0  0  0  0  0  0  0  0  0
   13.8351   -1.1871    0.0000 H   0  0  0  0  0  0  0  0  0  0  0  0
   14.2336   -0.4968    0.0000 H   0  0  0  0  0  0  0  0  0  0  0  0
   13.2939   -5.4145    0.0000 H   0  0  0  0  0  0  0  0  0  0  0  0
   12.2200   -5.4145    0.0000 H   0  0  0  0  0  0  0  0  0  0  0  0
   13.9521    2.2055    0.0000 H   0  0  0  0  0  0  0  0  0  0  0  0
   15.3551   -0.2245    0.0000 H   0  0  0  0  0  0  0  0  0  0  0  0
   15.3551    3.0155    0.0000 H   0  0  0  0  0  0  0  0  0  0  0  0
   16.7580    0.5855    0.0000 H   0  0  0  0  0  0  0  0  0  0  0  0
   16.7580    2.2055    0.0000 H   0  0  0  0  0  0  0  0  0  0  0  0
 23  1  1  1  0  0  0
  1 75  1  0  0  0  0
  2 21  2  0  0  0  0
  3 22  2  0  0  0  0
  4 29  2  0  0  0  0
  5 35  2  0  0  0  0
  6 39  2  0  0  0  0
  7 46  2  0  0  0  0
  8 47  2  0  0  0  0
  9 48  1  0  0  0  0
  9 49  1  0  0  0  0
 10 17  1  0  0  0  0
 10 20  1  0  0  0  0
 10 22  1  0  0  0  0
 11 21  1  0  0  0  0
 24 11  1  1  0  0  0
 11 65  1  0  0  0  0
 26 12  1  1  0  0  0
 12 35  1  0  0  0  0
 12 74  1  0  0  0  0
 13 29  1  0  0  0  0
 31 13  1  1  0  0  0
 13 76  1  0  0  0  0
 36 14  1  1  0  0  0
 14 47  1  0  0  0  0
 14 93  1  0  0  0  0
 15 39  1  0  0  0  0
 15 97  1  0  0  0  0
 15 98  1  0  0  0  0
 16 46  1  0  0  0  0
 16101  1  0  0  0  0
 16102  1  0  0  0  0
 17 18  1  0  0  0  0
 17 21  1  6  0  0  0
 17 55  1  0  0  0  0
 18 19  1  0  0  0  0
 18 56  1  0  0  0  0
 18 57  1  0  0  0  0
 19 20  1  0  0  0  0
 19 58  1  0  0  0  0
 19 59  1  0  0  0  0
 20 60  1  0  0  0  0
 20 61  1  0  0  0  0
 22 23  1  0  0  0  0
 23 26  1  0  0  0  0
 23 62  1  0  0  0  0
 24 25  1  0  0  0  0
 24 29  1  0  0  0  0
 24 63  1  0  0  0  0
 25 28  1  0  0  0  0
 25 30  1  6  0  0  0
 25 64  1  0  0  0  0
 26 27  1  0  0  0  0
 26 66  1  0  0  0  0
 27 32  1  0  0  0  0
 27 67  1  0  0  0  0
 27 68  1  0  0  0  0
 28 33  1  0  0  0  0
 28 69  1  0  0  0  0
 28 70  1  0  0  0  0
 30 71  1  0  0  0  0
 30 72  1  0  0  0  0
 30 73  1  0  0  0  0
 31 34  1  0  0  0  0
 31 39  1  0  0  0  0
 31 77  1  0  0  0  0
 32 37  2  0  0  0  0
 32 38  1  0  0  0  0
 33 78  1  0  0  0  0
 33 79  1  0  0  0  0
 33 80  1  0  0  0  0
 34 40  1  0  0  0  0
 34 41  1  0  0  0  0
 34 81  1  0  0  0  0
 35 36  1  0  0  0  0
 36 42  1  0  0  0  0
 36 82  1  0  0  0  0
 37 43  1  0  0  0  0
 37 83  1  0  0  0  0
 38 44  2  0  0  0  0
 38 84  1  0  0  0  0
 40 85  1  0  0  0  0
 40 86  1  0  0  0  0
 40 87  1  0  0  0  0
 41 88  1  0  0  0  0
 41 89  1  0  0  0  0
 41 90  1  0  0  0  0
 42 46  1  0  0  0  0
 42 91  1  0  0  0  0
 42 92  1  0  0  0  0
 43 45  2  0  0  0  0
 43 94  1  0  0  0  0
 44 45  1  0  0  0  0
 44 95  1  0  0  0  0
 45 96  1  0  0  0  0
 47 48  1  0  0  0  0
 48 99  1  0  0  0  0
 48100  1  0  0  0  0
 49 50  2  0  0  0  0
 49 51  1  0  0  0  0
 50 52  1  0  0  0  0
 50103  1  0  0  0  0
 51 53  2  0  0  0  0
 51104  1  0  0  0  0
 52 54  2  0  0  0  0
 52105  1  0  0  0  0
 53 54  1  0  0  0  0
 53106  1  0  0  0  0
 54107  1  0  0  0  0
M  END
> <PUBCHEM_COMPOUND_CID>
501744
> <PUBCHEM_COMPOUND_CANONICALIZED>
1
> <PUBCHEM_CACTVS_COMPLEXITY>
1300
> <PUBCHEM_CACTVS_HBOND_ACCEPTOR>
9
> <PUBCHEM_CACTVS_HBOND_DONOR>
7
> <PUBCHEM_CACTVS_ROTATABLE_BOND>
20
> <PUBCHEM_CACTVS_SUBSKEYS>
AAADcfB/vAAAAAAAAAAAAAAAAAAAAWAAAAAwYAAAAAAAAAABQAAAHgAQCAAADTzhmAYyBoPABgCIAiFSEAICCAAgIAAIiIHOCIgOdjqE8T+XeCCk1hGYqAedyaCOAAAAAAAAAAAAAAAAAAAAAAAAAAAAAA==
> <PUBCHEM_IUPAC_OPENEYE_NAME>
(2S)-N-[(1S,2S)-1-benzyl-3-[(2S)-2-[[(1S,2R)-1-[[(1S)-1-carbamoyl-2-methyl-propyl]carbamoyl]-2-methyl-butyl]carbamoyl]pyrrolidin-1-yl]-2-hydroxy-3-oxo-propyl]-2-[(2-phenoxyacetyl)amino]butanediamide
> <PUBCHEM_IUPAC_CAS_NAME>
(2S)-N-[(2S,3S)-4-[(2S)-2-[[[(2S,3R)-1-[[(2S)-1-amino-3-methyl-1-oxobutan-2-yl]amino]-3-methyl-1-oxopentan-2-yl]amino]-oxomethyl]-1-pyrrolidinyl]-3-hydroxy-4-oxo-1-phenylbutan-2-yl]-2-[(1-oxo-2-phenoxyethyl)amino]butanediamide
> <PUBCHEM_IUPAC_NAME_MARKUP>
(2<I>S</I>)-<I>N</I>-[(2<I>S</I>,3<I>S</I>)-4-[(2<I>S</I>)-2-[[(2<I>S</I>,3<I>R</I>)-1-[[(2<I>S</I>)-1-amino-3-methyl-1-oxobutan-2-yl]amino]-3-methyl-1-oxopentan-2-yl]carbamoyl]pyrrolidin-1-yl]-3-hydroxy-4-oxo-1-phenylbutan-2-yl]-2-[(2-phenoxyacetyl)amino]butanediamide
> <PUBCHEM_IUPAC_NAME>
(2S)-N-[(2S,3S)-4-[(2S)-2-[[(2S,3R)-1-[[(2S)-1-amino-3-methyl-1-oxobutan-2-yl]amino]-3-methyl-1-oxopentan-2-yl]carbamoyl]pyrrolidin-1-yl]-3-hydroxy-4-oxo-1-phenylbutan-2-yl]-2-[(2-phenoxyacetyl)amino]butanediamide
> <PUBCHEM_IUPAC_SYSTEMATIC_NAME>
(2S)-N-[(2S,3S)-4-[(2S)-2-[[(2S,3R)-1-[[(2S)-1-azanyl-3-methyl-1-oxidanylidene-butan-2-yl]amino]-3-methyl-1-oxidanylidene-pentan-2-yl]carbamoyl]pyrrolidin-1-yl]-3-oxidanyl-4-oxidanylidene-1-phenyl-butan-2-yl]-2-(2-phenoxyethanoylamino)butanediamide
> <PUBCHEM_IUPAC_TRADITIONAL_NAME>
(2S)-N-[(1S,2S)-1-benzyl-3-[(2S)-2-[[(1S,2R)-1-[[(1S)-1-carbamoyl-2-methyl-propyl]carbamoyl]-2-methyl-butyl]carbamoyl]pyrrolidino]-2-hydroxy-3-keto-propyl]-2-[(2-phenoxyacetyl)amino]succinamide
> <PUBCHEM_IUPAC_INCHI>
InChI=1S/C38H53N7O9/c1-5-23(4)32(37(52)43-31(22(2)3)34(40)49)44-36(51)28-17-12-18-45(28)38(53)33(48)26(19-24-13-8-6-9-14-24)42-35(50)27(20-29(39)46)41-30(47)21-54-25-15-10-7-11-16-25/h6-11,13-16,22-23,26-28,31-33,48H,5,12,17-21H2,1-4H3,(H2,39,46)(H2,40,49)(H,41,47)(H,42,50)(H,43,52)(H,44,51)/t23-,26+,27+,28+,31+,32+,33+/m1/s1
> <PUBCHEM_IUPAC_INCHIKEY>
RKEJIJGTENRVEE-NZLMTWIASA-N
> <PUBCHEM_XLOGP3_AA>
1.6
> <PUBCHEM_EXACT_MASS>
751.39047629
> <PUBCHEM_MOLECULAR_FORMULA>
C38H53N7O9
> <PUBCHEM_MOLECULAR_WEIGHT>
751.9
> <PUBCHEM_OPENEYE_CAN_SMILES>
CCC(C)C(C(=O)NC(C(C)C)C(=O)N)NC(=O)C1CCCN1C(=O)C(C(CC2=CC=CC=C2)NC(=O)C(CC(=O)N)NC(=O)COC3=CC=CC=C3)O
> <PUBCHEM_OPENEYE_ISO_SMILES>
CC[C@@H](C)[C@@H](C(=O)N[C@@H](C(C)C)C(=O)N)NC(=O)[C@@H]1CCCN1C(=O)[C@H]([C@H](CC2=CC=CC=C2)NC(=O)[C@H](CC(=O)N)NC(=O)COC3=CC=CC=C3)O
> <PUBCHEM_CACTVS_TPSA>
252
> <PUBCHEM_MONOISOTOPIC_WEIGHT>
751.39047629
> <PUBCHEM_TOTAL_CHARGE>
0
> <PUBCHEM_HEAVY_ATOM_COUNT>
54
> <PUBCHEM_ATOM_DEF_STEREO_COUNT>
7
> <PUBCHEM_ATOM_UDEF_STEREO_COUNT>
0
> <PUBCHEM_BOND_DEF_STEREO_COUNT>
0
> <PUBCHEM_BOND_UDEF_STEREO_COUNT>
0
> <PUBCHEM_ISOTOPIC_ATOM_COUNT>
0
> <PUBCHEM_COMPONENT_COUNT>
1
> <PUBCHEM_CACTVS_TAUTO_COUNT>
-1
> <PUBCHEM_COORDINATE_TYPE>
1
5
255
> <PUBCHEM_BONDANNOTATIONS>
23  1  5
24  11  5
26  12  5
31  13  5
36  14  5
17  21  6
25  30  6
32  37  8
32  38  8
37  43  8
38  44  8
43  45  8
44  45  8
49  50  8
49  51  8
50  52  8
51  53  8
52  54  8
53  54  8
$$$$
