501704
  -OEChem-10302200282D
 43 46  0     1  0  0  0  0  0999 V2000
    4.6870    0.0835    0.0000 O   0  0  0  0  0  0  0  0  0  0  0  0
    4.1111    2.6062    0.0000 O   0  0  0  0  0  0  0  0  0  0  0  0
    2.6166   -0.1914    0.0000 O   0  0  0  0  0  0  0  0  0  0  0  0
    9.1448   -1.3145    0.0000 O   0  0  0  0  0  0  0  0  0  0  0  0
    5.6005   -1.5098    0.0000 O   0  0  0  0  0  0  0  0  0  0  0  0
    6.4666   -0.0097    0.0000 N   0  0  0  0  0  0  0  0  0  0  0  0
    7.3326   -1.5098    0.0000 N   0  0  0  0  0  0  0  0  0  0  0  0
    4.5179    1.6927    0.0000 C   0  0  1  0  0  0  0  0  0  0  0  0
    5.6005    0.4903    0.0000 C   0  0  1  0  0  0  0  0  0  0  0  0
    5.4960    1.4848    0.0000 C   0  0  0  0  0  0  0  0  0  0  0  0
    4.0179    0.8267    0.0000 C   0  0  1  0  0  0  0  0  0  0  0  0
    3.0233    0.7221    0.0000 C   0  0  0  0  0  0  0  0  0  0  0  0
    7.3326    0.4903    0.0000 C   0  0  0  0  0  0  0  0  0  0  0  0
    6.4666   -1.0098    0.0000 C   0  0  0  0  0  0  0  0  0  0  0  0
    8.1986   -0.0097    0.0000 C   0  0  0  0  0  0  0  0  0  0  0  0
    8.1986   -1.0098    0.0000 C   0  0  0  0  0  0  0  0  0  0  0  0
    9.1448    0.2950    0.0000 C   0  0  0  0  0  0  0  0  0  0  0  0
    9.7284   -0.5097    0.0000 C   0  0  0  0  0  0  0  0  0  0  0  0
   10.7284   -0.5097    0.0000 C   0  0  0  0  0  0  0  0  0  0  0  0
   11.2284   -1.3758    0.0000 C   0  0  0  0  0  0  0  0  0  0  0  0
   12.2284   -1.3758    0.0000 C   0  0  0  0  0  0  0  0  0  0  0  0
   10.7284   -2.2418    0.0000 C   0  0  0  0  0  0  0  0  0  0  0  0
   12.7284   -2.2418    0.0000 C   0  0  0  0  0  0  0  0  0  0  0  0
   11.2284   -3.1078    0.0000 C   0  0  0  0  0  0  0  0  0  0  0  0
   12.2284   -3.1078    0.0000 C   0  0  0  0  0  0  0  0  0  0  0  0
    4.9080    2.1745    0.0000 H   0  0  0  0  0  0  0  0  0  0  0  0
    5.5681   -0.1289    0.0000 H   0  0  0  0  0  0  0  0  0  0  0  0
    6.1160    1.4848    0.0000 H   0  0  0  0  0  0  0  0  0  0  0  0
    5.5608    2.1014    0.0000 H   0  0  0  0  0  0  0  0  0  0  0  0
    3.7957    0.2478    0.0000 H   0  0  0  0  0  0  0  0  0  0  0  0
    3.0666    1.3406    0.0000 H   0  0  0  0  0  0  0  0  0  0  0  0
    2.4218    0.8721    0.0000 H   0  0  0  0  0  0  0  0  0  0  0  0
    7.3326    1.1102    0.0000 H   0  0  0  0  0  0  0  0  0  0  0  0
    4.4756    3.1078    0.0000 H   0  0  0  0  0  0  0  0  0  0  0  0
    9.3374    0.8843    0.0000 H   0  0  0  0  0  0  0  0  0  0  0  0
    2.0000   -0.2562    0.0000 H   0  0  0  0  0  0  0  0  0  0  0  0
   11.3111   -0.2977    0.0000 H   0  0  0  0  0  0  0  0  0  0  0  0
   10.6208    0.1008    0.0000 H   0  0  0  0  0  0  0  0  0  0  0  0
   12.5384   -0.8388    0.0000 H   0  0  0  0  0  0  0  0  0  0  0  0
   10.1084   -2.2418    0.0000 H   0  0  0  0  0  0  0  0  0  0  0  0
   13.3484   -2.2418    0.0000 H   0  0  0  0  0  0  0  0  0  0  0  0
   10.9184   -3.6448    0.0000 H   0  0  0  0  0  0  0  0  0  0  0  0
   12.5384   -3.6448    0.0000 H   0  0  0  0  0  0  0  0  0  0  0  0
  1  9  1  0  0  0  0
  1 11  1  0  0  0  0
  8  2  1  1  0  0  0
  2 34  1  0  0  0  0
  3 12  1  0  0  0  0
  3 36  1  0  0  0  0
  4 16  1  0  0  0  0
  4 18  1  0  0  0  0
  5 14  2  0  0  0  0
  9  6  1  6  0  0  0
  6 13  1  0  0  0  0
  6 14  1  0  0  0  0
  7 14  1  0  0  0  0
  7 16  2  0  0  0  0
  8 10  1  0  0  0  0
  8 11  1  0  0  0  0
  8 26  1  0  0  0  0
  9 10  1  0  0  0  0
  9 27  1  0  0  0  0
 10 28  1  0  0  0  0
 10 29  1  0  0  0  0
 11 12  1  6  0  0  0
 11 30  1  0  0  0  0
 12 31  1  0  0  0  0
 12 32  1  0  0  0  0
 13 15  2  0  0  0  0
 13 33  1  0  0  0  0
 15 16  1  0  0  0  0
 15 17  1  0  0  0  0
 17 18  2  0  0  0  0
 17 35  1  0  0  0  0
 18 19  1  0  0  0  0
 19 20  1  0  0  0  0
 19 37  1  0  0  0  0
 19 38  1  0  0  0  0
 20 21  2  0  0  0  0
 20 22  1  0  0  0  0
 21 23  1  0  0  0  0
 21 39  1  0  0  0  0
 22 24  2  0  0  0  0
 22 40  1  0  0  0  0
 23 25  2  0  0  0  0
 23 41  1  0  0  0  0
 24 25  1  0  0  0  0
 24 42  1  0  0  0  0
 25 43  1  0  0  0  0
M  END
> <PUBCHEM_COMPOUND_CID>
501704
> <PUBCHEM_COMPOUND_CANONICALIZED>
1
> <PUBCHEM_CACTVS_COMPLEXITY>
635
> <PUBCHEM_CACTVS_HBOND_ACCEPTOR>
5
> <PUBCHEM_CACTVS_HBOND_DONOR>
2
> <PUBCHEM_CACTVS_ROTATABLE_BOND>
4
> <PUBCHEM_CACTVS_SUBSKEYS>
AAADceB7OAAAAAAAAAAAAAAAAAAAASIAAAAwQAAAAAAAAEABAAAAHgAACAAADBThmAYxAIMABgCoAiBmVAACCAAgIAAIiAAoAJiJNCKAsRCOYAAnxgMLqAew8KIOAAAAAAAAAAAAAAAAAAAAAAAAAAAAAA==
> <PUBCHEM_IUPAC_OPENEYE_NAME>
6-benzyl-3-[(2R,4S,5R)-4-hydroxy-5-(hydroxymethyl)tetrahydrofuran-2-yl]furo[2,3-d]pyrimidin-2-one
> <PUBCHEM_IUPAC_CAS_NAME>
3-[(2R,4S,5R)-4-hydroxy-5-(hydroxymethyl)-2-oxolanyl]-6-(phenylmethyl)-2-furo[2,3-d]pyrimidinone
> <PUBCHEM_IUPAC_NAME_MARKUP>
6-benzyl-3-[(2<I>R</I>,4<I>S</I>,5<I>R</I>)-4-hydroxy-5-(hydroxymethyl)oxolan-2-yl]furo[2,3-d]pyrimidin-2-one
> <PUBCHEM_IUPAC_NAME>
6-benzyl-3-[(2R,4S,5R)-4-hydroxy-5-(hydroxymethyl)oxolan-2-yl]furo[2,3-d]pyrimidin-2-one
> <PUBCHEM_IUPAC_SYSTEMATIC_NAME>
3-[(2R,4S,5R)-5-(hydroxymethyl)-4-oxidanyl-oxolan-2-yl]-6-(phenylmethyl)furo[2,3-d]pyrimidin-2-one
> <PUBCHEM_IUPAC_TRADITIONAL_NAME>
6-benzyl-3-[(2R,4S,5R)-4-hydroxy-5-methylol-tetrahydrofuran-2-yl]furo[2,3-d]pyrimidin-2-one
> <PUBCHEM_IUPAC_INCHI>
InChI=1S/C18H18N2O5/c21-10-15-14(22)8-16(25-15)20-9-12-7-13(24-17(12)19-18(20)23)6-11-4-2-1-3-5-11/h1-5,7,9,14-16,21-22H,6,8,10H2/t14-,15+,16+/m0/s1
> <PUBCHEM_IUPAC_INCHIKEY>
GOTVJFQIYVUJAV-ARFHVFGLSA-N
> <PUBCHEM_XLOGP3_AA>
1.4
> <PUBCHEM_EXACT_MASS>
342.12157168
> <PUBCHEM_MOLECULAR_FORMULA>
C18H18N2O5
> <PUBCHEM_MOLECULAR_WEIGHT>
342.3
> <PUBCHEM_OPENEYE_CAN_SMILES>
C1C(C(OC1N2C=C3C=C(OC3=NC2=O)CC4=CC=CC=C4)CO)O
> <PUBCHEM_OPENEYE_ISO_SMILES>
C1[C@@H]([C@H](O[C@H]1N2C=C3C=C(OC3=NC2=O)CC4=CC=CC=C4)CO)O
> <PUBCHEM_CACTVS_TPSA>
91.6
> <PUBCHEM_MONOISOTOPIC_WEIGHT>
342.12157168
> <PUBCHEM_TOTAL_CHARGE>
0
> <PUBCHEM_HEAVY_ATOM_COUNT>
25
> <PUBCHEM_ATOM_DEF_STEREO_COUNT>
3
> <PUBCHEM_ATOM_UDEF_STEREO_COUNT>
0
> <PUBCHEM_BOND_DEF_STEREO_COUNT>
0
> <PUBCHEM_BOND_UDEF_STEREO_COUNT>
0
> <PUBCHEM_ISOTOPIC_ATOM_COUNT>
0
> <PUBCHEM_COMPONENT_COUNT>
1
> <PUBCHEM_CACTVS_TAUTO_COUNT>
-1
> <PUBCHEM_COORDINATE_TYPE>
1
5
255
> <PUBCHEM_BONDANNOTATIONS>
11  12  6
13  15  8
15  16  8
15  17  8
17  18  8
8  2  5
20  21  8
20  22  8
21  23  8
22  24  8
23  25  8
24  25  8
4  16  8
4  18  8
6  13  8
6  14  8
9  6  6
7  14  8
7  16  8
$$$$
