501781
  -OEChem-10302200282D
 98101  0     1  0  0  0  0  0999 V2000
    8.7788   -2.7673    0.0000 S   0  0  0  0  0  0  0  0  0  0  0  0
    3.5827   -1.7673    0.0000 O   0  0  0  0  0  0  0  0  0  0  0  0
    5.3147    0.2327    0.0000 O   0  0  0  0  0  0  0  0  0  0  0  0
    5.1724    1.5873    0.0000 O   0  0  0  0  0  0  0  0  0  0  0  0
    7.0468   -2.7673    0.0000 O   0  0  0  0  0  0  0  0  0  0  0  0
    8.7788   -3.7673    0.0000 O   0  0  0  0  0  0  0  0  0  0  0  0
    7.7788   -2.7673    0.0000 O   0  0  0  0  0  0  0  0  0  0  0  0
    8.7788    1.2327    0.0000 O   0  0  0  0  0  0  0  0  0  0  0  0
    9.6448   -0.2673    0.0000 O   0  0  0  0  0  0  0  0  0  0  0  0
    3.5827    0.2327    0.0000 N   0  0  0  0  0  0  0  0  0  0  0  0
    6.1808   -1.2673    0.0000 N   0  0  0  0  0  0  0  0  0  0  0  0
    4.0134    2.8745    0.0000 N   0  0  0  0  0  0  0  0  0  0  0  0
    7.9128   -0.2673    0.0000 N   0  0  0  0  0  0  0  0  0  0  0  0
    4.4487   -3.2673    0.0000 C   0  0  0  0  0  0  0  0  0  0  0  0
    5.3147   -2.7673    0.0000 C   0  0  0  0  0  0  0  0  0  0  0  0
    4.4487   -4.2673    0.0000 C   0  0  0  0  0  0  0  0  0  0  0  0
    3.5827   -2.7673    0.0000 C   0  0  0  0  0  0  0  0  0  0  0  0
    5.3147   -1.7673    0.0000 C   0  0  1  0  0  0  0  0  0  0  0  0
    3.5827   -4.7673    0.0000 C   0  0  0  0  0  0  0  0  0  0  0  0
    2.7166   -3.2673    0.0000 C   0  0  0  0  0  0  0  0  0  0  0  0
    2.7166   -4.2673    0.0000 C   0  0  0  0  0  0  0  0  0  0  0  0
    4.4487   -1.2673    0.0000 C   0  0  1  0  0  0  0  0  0  0  0  0
    3.4782    1.2272    0.0000 C   0  0  1  0  0  0  0  0  0  0  0  0
    2.5000    1.4351    0.0000 C   0  0  0  0  0  0  0  0  0  0  0  0
    2.6691   -0.1741    0.0000 C   0  0  0  0  0  0  0  0  0  0  0  0
    4.4487   -0.2673    0.0000 C   0  0  0  0  0  0  0  0  0  0  0  0
    2.0000    0.5691    0.0000 C   0  0  0  0  0  0  0  0  0  0  0  0
    4.2213    1.8963    0.0000 C   0  0  0  0  0  0  0  0  0  0  0  0
    7.0468   -1.7673    0.0000 C   0  0  0  0  0  0  0  0  0  0  0  0
    7.9128   -1.2673    0.0000 C   0  0  2  0  0  0  0  0  0  0  0  0
    3.0623    3.1835    0.0000 C   0  0  0  0  0  0  0  0  0  0  0  0
    8.7788   -1.7673    0.0000 C   0  0  0  0  0  0  0  0  0  0  0  0
    2.1113    3.4925    0.0000 C   0  0  0  0  0  0  0  0  0  0  0  0
    3.3713    4.1345    0.0000 C   0  0  0  0  0  0  0  0  0  0  0  0
    2.7533    2.2324    0.0000 C   0  0  0  0  0  0  0  0  0  0  0  0
    9.7788   -2.7673    0.0000 C   0  0  0  0  0  0  0  0  0  0  0  0
    8.7788    0.2327    0.0000 C   0  0  0  0  0  0  0  0  0  0  0  0
    9.6448    1.7327    0.0000 C   0  0  0  0  0  0  0  0  0  0  0  0
    9.6448    2.7327    0.0000 C   0  0  0  0  0  0  0  0  0  0  0  0
   10.5109    3.2327    0.0000 C   0  0  0  0  0  0  0  0  0  0  0  0
    8.7788    3.2327    0.0000 C   0  0  0  0  0  0  0  0  0  0  0  0
   10.5109    4.2327    0.0000 C   0  0  0  0  0  0  0  0  0  0  0  0
   11.4048    2.6980    0.0000 C   0  0  0  0  0  0  0  0  0  0  0  0
    8.7788    4.2327    0.0000 C   0  0  0  0  0  0  0  0  0  0  0  0
    9.6448    4.7327    0.0000 C   0  0  0  0  0  0  0  0  0  0  0  0
   11.4048    4.7673    0.0000 C   0  0  0  0  0  0  0  0  0  0  0  0
   12.3109    3.2118    0.0000 C   0  0  0  0  0  0  0  0  0  0  0  0
   12.3109    4.2535    0.0000 C   0  0  0  0  0  0  0  0  0  0  0  0
    4.9856   -3.5773    0.0000 H   0  0  0  0  0  0  0  0  0  0  0  0
    5.5268   -3.3499    0.0000 H   0  0  0  0  0  0  0  0  0  0  0  0
    5.9253   -2.6597    0.0000 H   0  0  0  0  0  0  0  0  0  0  0  0
    4.6608   -4.8499    0.0000 H   0  0  0  0  0  0  0  0  0  0  0  0
    5.0593   -4.1597    0.0000 H   0  0  0  0  0  0  0  0  0  0  0  0
    3.9812   -2.2924    0.0000 H   0  0  0  0  0  0  0  0  0  0  0  0
    3.1841   -2.2924    0.0000 H   0  0  0  0  0  0  0  0  0  0  0  0
    5.3147   -1.1473    0.0000 H   0  0  0  0  0  0  0  0  0  0  0  0
    3.1841   -5.2423    0.0000 H   0  0  0  0  0  0  0  0  0  0  0  0
    3.9812   -5.2423    0.0000 H   0  0  0  0  0  0  0  0  0  0  0  0
    2.5046   -2.6847    0.0000 H   0  0  0  0  0  0  0  0  0  0  0  0
    2.1061   -3.3750    0.0000 H   0  0  0  0  0  0  0  0  0  0  0  0
    2.1061   -4.1597    0.0000 H   0  0  0  0  0  0  0  0  0  0  0  0
    2.5046   -4.8499    0.0000 H   0  0  0  0  0  0  0  0  0  0  0  0
    3.9118   -0.9573    0.0000 H   0  0  0  0  0  0  0  0  0  0  0  0
    4.0570    1.0050    0.0000 H   0  0  0  0  0  0  0  0  0  0  0  0
    2.6916    2.0248    0.0000 H   0  0  0  0  0  0  0  0  0  0  0  0
    1.9336    1.6873    0.0000 H   0  0  0  0  0  0  0  0  0  0  0  0
    2.1675   -0.5385    0.0000 H   0  0  0  0  0  0  0  0  0  0  0  0
    2.9791   -0.7110    0.0000 H   0  0  0  0  0  0  0  0  0  0  0  0
    1.4984    0.9335    0.0000 H   0  0  0  0  0  0  0  0  0  0  0  0
    1.5851    0.1083    0.0000 H   0  0  0  0  0  0  0  0  0  0  0  0
    6.1808   -0.6473    0.0000 H   0  0  0  0  0  0  0  0  0  0  0  0
    3.0457   -1.4573    0.0000 H   0  0  0  0  0  0  0  0  0  0  0  0
    8.4497   -0.9573    0.0000 H   0  0  0  0  0  0  0  0  0  0  0  0
    4.4741    3.2893    0.0000 H   0  0  0  0  0  0  0  0  0  0  0  0
    9.3894   -1.8750    0.0000 H   0  0  0  0  0  0  0  0  0  0  0  0
    8.9909   -1.1847    0.0000 H   0  0  0  0  0  0  0  0  0  0  0  0
    2.3029    4.0822    0.0000 H   0  0  0  0  0  0  0  0  0  0  0  0
    1.5216    3.6841    0.0000 H   0  0  0  0  0  0  0  0  0  0  0  0
    1.9197    2.9028    0.0000 H   0  0  0  0  0  0  0  0  0  0  0  0
    3.9610    3.9430    0.0000 H   0  0  0  0  0  0  0  0  0  0  0  0
    3.5629    4.7242    0.0000 H   0  0  0  0  0  0  0  0  0  0  0  0
    2.7817    4.3261    0.0000 H   0  0  0  0  0  0  0  0  0  0  0  0
    2.1636    2.4240    0.0000 H   0  0  0  0  0  0  0  0  0  0  0  0
    2.5617    1.6428    0.0000 H   0  0  0  0  0  0  0  0  0  0  0  0
    3.3430    2.0408    0.0000 H   0  0  0  0  0  0  0  0  0  0  0  0
    7.3759    0.0427    0.0000 H   0  0  0  0  0  0  0  0  0  0  0  0
    9.7788   -3.3873    0.0000 H   0  0  0  0  0  0  0  0  0  0  0  0
   10.3988   -2.7673    0.0000 H   0  0  0  0  0  0  0  0  0  0  0  0
    9.7788   -2.1473    0.0000 H   0  0  0  0  0  0  0  0  0  0  0  0
    9.8569    1.1501    0.0000 H   0  0  0  0  0  0  0  0  0  0  0  0
   10.2554    1.8403    0.0000 H   0  0  0  0  0  0  0  0  0  0  0  0
    8.2419    2.9227    0.0000 H   0  0  0  0  0  0  0  0  0  0  0  0
   11.3977    2.0780    0.0000 H   0  0  0  0  0  0  0  0  0  0  0  0
    8.2419    4.5427    0.0000 H   0  0  0  0  0  0  0  0  0  0  0  0
    9.6448    5.3527    0.0000 H   0  0  0  0  0  0  0  0  0  0  0  0
   11.3977    5.3873    0.0000 H   0  0  0  0  0  0  0  0  0  0  0  0
   12.8466    2.8998    0.0000 H   0  0  0  0  0  0  0  0  0  0  0  0
   12.8466    4.5656    0.0000 H   0  0  0  0  0  0  0  0  0  0  0  0
  1  6  2  0  0  0  0
  1  7  2  0  0  0  0
  1 32  1  0  0  0  0
  1 36  1  0  0  0  0
 22  2  1  6  0  0  0
  2 72  1  0  0  0  0
  3 26  2  0  0  0  0
  4 28  2  0  0  0  0
  5 29  2  0  0  0  0
  8 37  1  0  0  0  0
  8 38  1  0  0  0  0
  9 37  2  0  0  0  0
 10 23  1  0  0  0  0
 10 25  1  0  0  0  0
 10 26  1  0  0  0  0
 18 11  1  1  0  0  0
 11 29  1  0  0  0  0
 11 71  1  0  0  0  0
 12 28  1  0  0  0  0
 12 31  1  0  0  0  0
 12 74  1  0  0  0  0
 30 13  1  1  0  0  0
 13 37  1  0  0  0  0
 13 86  1  0  0  0  0
 14 15  1  0  0  0  0
 14 16  1  0  0  0  0
 14 17  1  0  0  0  0
 14 49  1  0  0  0  0
 15 18  1  0  0  0  0
 15 50  1  0  0  0  0
 15 51  1  0  0  0  0
 16 19  1  0  0  0  0
 16 52  1  0  0  0  0
 16 53  1  0  0  0  0
 17 20  1  0  0  0  0
 17 54  1  0  0  0  0
 17 55  1  0  0  0  0
 18 22  1  0  0  0  0
 18 56  1  0  0  0  0
 19 21  1  0  0  0  0
 19 57  1  0  0  0  0
 19 58  1  0  0  0  0
 20 21  1  0  0  0  0
 20 59  1  0  0  0  0
 20 60  1  0  0  0  0
 21 61  1  0  0  0  0
 21 62  1  0  0  0  0
 22 26  1  0  0  0  0
 22 63  1  0  0  0  0
 23 24  1  0  0  0  0
 23 28  1  1  0  0  0
 23 64  1  0  0  0  0
 24 27  1  0  0  0  0
 24 65  1  0  0  0  0
 24 66  1  0  0  0  0
 25 27  1  0  0  0  0
 25 67  1  0  0  0  0
 25 68  1  0  0  0  0
 27 69  1  0  0  0  0
 27 70  1  0  0  0  0
 29 30  1  0  0  0  0
 30 32  1  0  0  0  0
 30 73  1  0  0  0  0
 31 33  1  0  0  0  0
 31 34  1  0  0  0  0
 31 35  1  0  0  0  0
 32 75  1  0  0  0  0
 32 76  1  0  0  0  0
 33 77  1  0  0  0  0
 33 78  1  0  0  0  0
 33 79  1  0  0  0  0
 34 80  1  0  0  0  0
 34 81  1  0  0  0  0
 34 82  1  0  0  0  0
 35 83  1  0  0  0  0
 35 84  1  0  0  0  0
 35 85  1  0  0  0  0
 36 87  1  0  0  0  0
 36 88  1  0  0  0  0
 36 89  1  0  0  0  0
 38 39  1  0  0  0  0
 38 90  1  0  0  0  0
 38 91  1  0  0  0  0
 39 40  1  0  0  0  0
 39 41  2  0  0  0  0
 40 42  1  0  0  0  0
 40 43  2  0  0  0  0
 41 44  1  0  0  0  0
 41 92  1  0  0  0  0
 42 45  1  0  0  0  0
 42 46  2  0  0  0  0
 43 47  1  0  0  0  0
 43 93  1  0  0  0  0
 44 45  2  0  0  0  0
 44 94  1  0  0  0  0
 45 95  1  0  0  0  0
 46 48  1  0  0  0  0
 46 96  1  0  0  0  0
 47 48  2  0  0  0  0
 47 97  1  0  0  0  0
 48 98  1  0  0  0  0
M  END
> <PUBCHEM_COMPOUND_CID>
501781
> <PUBCHEM_COMPOUND_CANONICALIZED>
1
> <PUBCHEM_CACTVS_COMPLEXITY>
1230
> <PUBCHEM_CACTVS_HBOND_ACCEPTOR>
8
> <PUBCHEM_CACTVS_HBOND_DONOR>
4
> <PUBCHEM_CACTVS_ROTATABLE_BOND>
14
> <PUBCHEM_CACTVS_SUBSKEYS>
AAADcfB/vABAAAAAAAAAAAAAAAAAAWAAAAAwYMAAAAAAAADBUAAAHgQQCAAADbzl2AayCMPABgqIAiFSGHJCAAAgABAIiIHICIkKdjqg8TiccAAk1gGYqAeYyeCOgAACAAAQAAAAAAQAACAAAAAAAAAAAA==
> <PUBCHEM_IUPAC_OPENEYE_NAME>
1-naphthylmethyl N-[(1R)-2-[[(1S,2S)-3-[(2S)-2-(tert-butylcarbamoyl)pyrrolidin-1-yl]-1-(cyclohexylmethyl)-2-hydroxy-3-oxo-propyl]amino]-1-(methylsulfonylmethyl)-2-oxo-ethyl]carbamate
> <PUBCHEM_IUPAC_CAS_NAME>
N-[(2R)-1-[[(2S,3S)-4-[(2S)-2-[(tert-butylamino)-oxomethyl]-1-pyrrolidinyl]-1-cyclohexyl-3-hydroxy-4-oxobutan-2-yl]amino]-3-methylsulfonyl-1-oxopropan-2-yl]carbamic acid 1-naphthalenylmethyl ester
> <PUBCHEM_IUPAC_NAME_MARKUP>
naphthalen-1-ylmethyl <I>N</I>-[(2<I>R</I>)-1-[[(2<I>S</I>,3<I>S</I>)-4-[(2<I>S</I>)-2-(<I>tert</I>-butylcarbamoyl)pyrrolidin-1-yl]-1-cyclohexyl-3-hydroxy-4-oxobutan-2-yl]amino]-3-methylsulfonyl-1-oxopropan-2-yl]carbamate
> <PUBCHEM_IUPAC_NAME>
naphthalen-1-ylmethyl N-[(2R)-1-[[(2S,3S)-4-[(2S)-2-(tert-butylcarbamoyl)pyrrolidin-1-yl]-1-cyclohexyl-3-hydroxy-4-oxobutan-2-yl]amino]-3-methylsulfonyl-1-oxopropan-2-yl]carbamate
> <PUBCHEM_IUPAC_SYSTEMATIC_NAME>
naphthalen-1-ylmethyl N-[(2R)-1-[[(2S,3S)-4-[(2S)-2-(tert-butylcarbamoyl)pyrrolidin-1-yl]-1-cyclohexyl-3-oxidanyl-4-oxidanylidene-butan-2-yl]amino]-3-methylsulfonyl-1-oxidanylidene-propan-2-yl]carbamate
> <PUBCHEM_IUPAC_TRADITIONAL_NAME>
N-[(1R)-2-[[(1S,2S)-3-[(2S)-2-(tert-butylcarbamoyl)pyrrolidino]-1-(cyclohexylmethyl)-2-hydroxy-3-keto-propyl]amino]-2-keto-1-(mesylmethyl)ethyl]carbamic acid 1-naphthylmethyl ester
> <PUBCHEM_IUPAC_INCHI>
InChI=1S/C35H50N4O8S/c1-35(2,3)38-32(42)29-18-11-19-39(29)33(43)30(40)27(20-23-12-6-5-7-13-23)36-31(41)28(22-48(4,45)46)37-34(44)47-21-25-16-10-15-24-14-8-9-17-26(24)25/h8-10,14-17,23,27-30,40H,5-7,11-13,18-22H2,1-4H3,(H,36,41)(H,37,44)(H,38,42)/t27-,28-,29-,30-/m0/s1
> <PUBCHEM_IUPAC_INCHIKEY>
XDQVWTFXVXAHAF-KRCBVYEFSA-N
> <PUBCHEM_XLOGP3_AA>
4.3
> <PUBCHEM_EXACT_MASS>
686.33493574
> <PUBCHEM_MOLECULAR_FORMULA>
C35H50N4O8S
> <PUBCHEM_MOLECULAR_WEIGHT>
686.9
> <PUBCHEM_OPENEYE_CAN_SMILES>
CC(C)(C)NC(=O)C1CCCN1C(=O)C(C(CC2CCCCC2)NC(=O)C(CS(=O)(=O)C)NC(=O)OCC3=CC=CC4=CC=CC=C43)O
> <PUBCHEM_OPENEYE_ISO_SMILES>
CC(C)(C)NC(=O)[C@@H]1CCCN1C(=O)[C@H]([C@H](CC2CCCCC2)NC(=O)[C@H](CS(=O)(=O)C)NC(=O)OCC3=CC=CC4=CC=CC=C43)O
> <PUBCHEM_CACTVS_TPSA>
180
> <PUBCHEM_MONOISOTOPIC_WEIGHT>
686.33493574
> <PUBCHEM_TOTAL_CHARGE>
0
> <PUBCHEM_HEAVY_ATOM_COUNT>
48
> <PUBCHEM_ATOM_DEF_STEREO_COUNT>
4
> <PUBCHEM_ATOM_UDEF_STEREO_COUNT>
0
> <PUBCHEM_BOND_DEF_STEREO_COUNT>
0
> <PUBCHEM_BOND_UDEF_STEREO_COUNT>
0
> <PUBCHEM_ISOTOPIC_ATOM_COUNT>
0
> <PUBCHEM_COMPONENT_COUNT>
1
> <PUBCHEM_CACTVS_TAUTO_COUNT>
-1
> <PUBCHEM_COORDINATE_TYPE>
1
5
255
> <PUBCHEM_BONDANNOTATIONS>
18  11  5
30  13  5
22  2  6
23  28  5
39  40  8
39  41  8
40  42  8
40  43  8
41  44  8
42  45  8
42  46  8
43  47  8
44  45  8
46  48  8
47  48  8
$$$$
