501761
  -OEChem-10302200282D
117119  0     1  0  0  0  0  0999 V2000
   12.7570   -4.1045    0.0000 S   0  0  0  0  0  0  0  0  0  0  0  0
   10.1589   -0.6045    0.0000 O   0  0  0  0  0  0  0  0  0  0  0  0
    7.5608   -1.1045    0.0000 O   0  0  0  0  0  0  0  0  0  0  0  0
    6.4589   -0.3039    0.0000 O   0  0  0  0  0  0  0  0  0  0  0  0
   11.0249   -1.1045    0.0000 O   0  0  0  0  0  0  0  0  0  0  0  0
    3.2784    1.3945    0.0000 O   0  0  0  0  0  0  0  0  0  0  0  0
   12.2570   -4.9705    0.0000 O   0  0  0  0  0  0  0  0  0  0  0  0
   13.2570   -3.2385    0.0000 O   0  0  0  0  0  0  0  0  0  0  0  0
   11.8910   -0.6045    0.0000 O   0  0  0  0  0  0  0  0  0  0  0  0
    4.8532    4.6380    0.0000 O   0  0  0  0  0  0  0  0  0  0  0  0
    8.4268    0.3955    0.0000 N   0  0  0  0  0  0  0  0  0  0  0  0
   10.1589   -2.6045    0.0000 N   0  0  0  0  0  0  0  0  0  0  0  0
    5.9236    1.3434    0.0000 N   0  0  0  0  0  0  0  0  0  0  0  0
   12.7570   -2.1045    0.0000 N   0  0  0  0  0  0  0  0  0  0  0  0
    4.4374    2.6816    0.0000 N   0  0  0  0  0  0  0  0  0  0  0  0
    3.1590    4.9981    0.0000 N   0  0  0  0  0  0  0  0  0  0  0  0
    8.4268   -3.6045    0.0000 C   0  0  0  0  0  0  0  0  0  0  0  0
    8.4268   -2.6045    0.0000 C   0  0  0  0  0  0  0  0  0  0  0  0
    7.5608   -4.1045    0.0000 C   0  0  0  0  0  0  0  0  0  0  0  0
    9.2929   -4.1045    0.0000 C   0  0  0  0  0  0  0  0  0  0  0  0
    9.2929   -2.1045    0.0000 C   0  0  1  0  0  0  0  0  0  0  0  0
    7.5608   -5.1045    0.0000 C   0  0  0  0  0  0  0  0  0  0  0  0
    9.2929   -5.1045    0.0000 C   0  0  0  0  0  0  0  0  0  0  0  0
    8.4268   -5.6045    0.0000 C   0  0  0  0  0  0  0  0  0  0  0  0
    9.2929   -1.1045    0.0000 C   0  0  1  0  0  0  0  0  0  0  0  0
    7.6178    0.9833    0.0000 C   0  0  1  0  0  0  0  0  0  0  0  0
    7.9268    1.9343    0.0000 C   0  0  0  0  0  0  0  0  0  0  0  0
    9.2359    0.9833    0.0000 C   0  0  0  0  0  0  0  0  0  0  0  0
    8.4268   -0.6045    0.0000 C   0  0  0  0  0  0  0  0  0  0  0  0
    8.9268    1.9343    0.0000 C   0  0  0  0  0  0  0  0  0  0  0  0
    6.6668    0.6743    0.0000 C   0  0  0  0  0  0  0  0  0  0  0  0
   11.0249   -2.1045    0.0000 C   0  0  0  0  0  0  0  0  0  0  0  0
    4.9726    1.0344    0.0000 C   0  0  1  0  0  0  0  0  0  0  0  0
   11.8910   -2.6045    0.0000 C   0  0  2  0  0  0  0  0  0  0  0  0
    4.7647    0.0562    0.0000 C   0  0  1  0  0  0  0  0  0  0  0  0
   11.8910   -3.6045    0.0000 C   0  0  0  0  0  0  0  0  0  0  0  0
    3.8136   -0.2528    0.0000 C   0  0  0  0  0  0  0  0  0  0  0  0
    4.2294    1.7035    0.0000 C   0  0  0  0  0  0  0  0  0  0  0  0
    5.5078   -0.6129    0.0000 C   0  0  0  0  0  0  0  0  0  0  0  0
    3.6942    3.3508    0.0000 C   0  0  1  0  0  0  0  0  0  0  0  0
    3.0705    0.4163    0.0000 C   0  0  0  0  0  0  0  0  0  0  0  0
   12.7570   -1.1045    0.0000 C   0  0  0  0  0  0  0  0  0  0  0  0
    2.7431    3.0418    0.0000 C   0  0  0  0  0  0  0  0  0  0  0  0
   13.6230   -4.6045    0.0000 C   0  0  0  0  0  0  0  0  0  0  0  0
   13.6230   -0.6045    0.0000 C   0  0  0  0  0  0  0  0  0  0  0  0
    3.9021    4.3289    0.0000 C   0  0  0  0  0  0  0  0  0  0  0  0
    2.0000    3.7109    0.0000 C   0  0  0  0  0  0  0  0  0  0  0  0
    2.5352    2.0636    0.0000 C   0  0  0  0  0  0  0  0  0  0  0  0
   13.6230    0.3955    0.0000 C   0  0  0  0  0  0  0  0  0  0  0  0
   14.4890    0.8955    0.0000 C   0  0  0  0  0  0  0  0  0  0  0  0
   15.3551    0.3955    0.0000 C   0  0  0  0  0  0  0  0  0  0  0  0
   14.4890    1.8955    0.0000 C   0  0  0  0  0  0  0  0  0  0  0  0
   16.2211    0.8955    0.0000 C   0  0  0  0  0  0  0  0  0  0  0  0
   15.3551    2.3955    0.0000 C   0  0  0  0  0  0  0  0  0  0  0  0
   16.2211    1.8955    0.0000 C   0  0  0  0  0  0  0  0  0  0  0  0
    8.9638   -3.2945    0.0000 H   0  0  0  0  0  0  0  0  0  0  0  0
    8.2148   -2.0219    0.0000 H   0  0  0  0  0  0  0  0  0  0  0  0
    7.8163   -2.7122    0.0000 H   0  0  0  0  0  0  0  0  0  0  0  0
    7.3488   -3.5219    0.0000 H   0  0  0  0  0  0  0  0  0  0  0  0
    6.9502   -4.2122    0.0000 H   0  0  0  0  0  0  0  0  0  0  0  0
    9.9035   -4.2122    0.0000 H   0  0  0  0  0  0  0  0  0  0  0  0
    9.5049   -3.5219    0.0000 H   0  0  0  0  0  0  0  0  0  0  0  0
    9.2929   -2.7245    0.0000 H   0  0  0  0  0  0  0  0  0  0  0  0
    6.9502   -4.9968    0.0000 H   0  0  0  0  0  0  0  0  0  0  0  0
    7.3488   -5.6871    0.0000 H   0  0  0  0  0  0  0  0  0  0  0  0
    9.5049   -5.6871    0.0000 H   0  0  0  0  0  0  0  0  0  0  0  0
    9.9035   -4.9968    0.0000 H   0  0  0  0  0  0  0  0  0  0  0  0
    8.0283   -6.0795    0.0000 H   0  0  0  0  0  0  0  0  0  0  0  0
    8.8254   -6.0795    0.0000 H   0  0  0  0  0  0  0  0  0  0  0  0
    9.2929   -0.4845    0.0000 H   0  0  0  0  0  0  0  0  0  0  0  0
    7.5208    0.3709    0.0000 H   0  0  0  0  0  0  0  0  0  0  0  0
    7.9917    2.5509    0.0000 H   0  0  0  0  0  0  0  0  0  0  0  0
    7.3204    2.0632    0.0000 H   0  0  0  0  0  0  0  0  0  0  0  0
    9.5459    0.4463    0.0000 H   0  0  0  0  0  0  0  0  0  0  0  0
    9.8023    1.2354    0.0000 H   0  0  0  0  0  0  0  0  0  0  0  0
    9.5333    2.0632    0.0000 H   0  0  0  0  0  0  0  0  0  0  0  0
    8.8620    2.5509    0.0000 H   0  0  0  0  0  0  0  0  0  0  0  0
   10.1589   -3.2245    0.0000 H   0  0  0  0  0  0  0  0  0  0  0  0
   10.1589    0.0155    0.0000 H   0  0  0  0  0  0  0  0  0  0  0  0
    5.4333    0.6195    0.0000 H   0  0  0  0  0  0  0  0  0  0  0  0
    6.0525    1.9498    0.0000 H   0  0  0  0  0  0  0  0  0  0  0  0
   12.4279   -2.9145    0.0000 H   0  0  0  0  0  0  0  0  0  0  0  0
    4.6358   -0.5502    0.0000 H   0  0  0  0  0  0  0  0  0  0  0  0
   11.2804   -3.4968    0.0000 H   0  0  0  0  0  0  0  0  0  0  0  0
   11.6789   -4.1871    0.0000 H   0  0  0  0  0  0  0  0  0  0  0  0
    3.3250   -0.6345    0.0000 H   0  0  0  0  0  0  0  0  0  0  0  0
    4.1047   -0.8002    0.0000 H   0  0  0  0  0  0  0  0  0  0  0  0
   13.2939   -2.4145    0.0000 H   0  0  0  0  0  0  0  0  0  0  0  0
    5.0930   -1.0737    0.0000 H   0  0  0  0  0  0  0  0  0  0  0  0
    5.9686   -1.0278    0.0000 H   0  0  0  0  0  0  0  0  0  0  0  0
    5.9227   -0.1522    0.0000 H   0  0  0  0  0  0  0  0  0  0  0  0
    5.0270    2.8732    0.0000 H   0  0  0  0  0  0  0  0  0  0  0  0
    3.5653    2.7443    0.0000 H   0  0  0  0  0  0  0  0  0  0  0  0
    3.4853    0.8771    0.0000 H   0  0  0  0  0  0  0  0  0  0  0  0
    2.6097    0.8312    0.0000 H   0  0  0  0  0  0  0  0  0  0  0  0
    2.6556   -0.0444    0.0000 H   0  0  0  0  0  0  0  0  0  0  0  0
    2.8721    3.6482    0.0000 H   0  0  0  0  0  0  0  0  0  0  0  0
   13.3130   -5.1414    0.0000 H   0  0  0  0  0  0  0  0  0  0  0  0
   14.1599   -4.9145    0.0000 H   0  0  0  0  0  0  0  0  0  0  0  0
   13.9330   -4.0676    0.0000 H   0  0  0  0  0  0  0  0  0  0  0  0
   13.8351   -1.1871    0.0000 H   0  0  0  0  0  0  0  0  0  0  0  0
   14.2336   -0.4968    0.0000 H   0  0  0  0  0  0  0  0  0  0  0  0
    2.4149    4.1716    0.0000 H   0  0  0  0  0  0  0  0  0  0  0  0
    1.5392    4.1258    0.0000 H   0  0  0  0  0  0  0  0  0  0  0  0
    1.5851    3.2501    0.0000 H   0  0  0  0  0  0  0  0  0  0  0  0
    1.9288    2.1925    0.0000 H   0  0  0  0  0  0  0  0  0  0  0  0
    2.4063    1.4572    0.0000 H   0  0  0  0  0  0  0  0  0  0  0  0
    3.1417    1.9347    0.0000 H   0  0  0  0  0  0  0  0  0  0  0  0
   13.4110    0.9781    0.0000 H   0  0  0  0  0  0  0  0  0  0  0  0
   13.0124    0.2878    0.0000 H   0  0  0  0  0  0  0  0  0  0  0  0
    3.2879    5.6045    0.0000 H   0  0  0  0  0  0  0  0  0  0  0  0
    2.5693    4.8065    0.0000 H   0  0  0  0  0  0  0  0  0  0  0  0
   15.3551   -0.2245    0.0000 H   0  0  0  0  0  0  0  0  0  0  0  0
   13.9521    2.2055    0.0000 H   0  0  0  0  0  0  0  0  0  0  0  0
   16.7580    0.5855    0.0000 H   0  0  0  0  0  0  0  0  0  0  0  0
   15.3551    3.0155    0.0000 H   0  0  0  0  0  0  0  0  0  0  0  0
   16.7580    2.2055    0.0000 H   0  0  0  0  0  0  0  0  0  0  0  0
  1  7  2  0  0  0  0
  1  8  2  0  0  0  0
  1 36  1  0  0  0  0
  1 44  1  0  0  0  0
 25  2  1  1  0  0  0
  2 79  1  0  0  0  0
  3 29  2  0  0  0  0
  4 31  2  0  0  0  0
  5 32  2  0  0  0  0
  6 38  2  0  0  0  0
  9 42  2  0  0  0  0
 10 46  2  0  0  0  0
 11 26  1  0  0  0  0
 11 28  1  0  0  0  0
 11 29  1  0  0  0  0
 21 12  1  1  0  0  0
 12 32  1  0  0  0  0
 12 78  1  0  0  0  0
 13 31  1  0  0  0  0
 33 13  1  1  0  0  0
 13 81  1  0  0  0  0
 34 14  1  1  0  0  0
 14 42  1  0  0  0  0
 14 88  1  0  0  0  0
 15 38  1  0  0  0  0
 40 15  1  1  0  0  0
 15 92  1  0  0  0  0
 16 46  1  0  0  0  0
 16111  1  0  0  0  0
 16112  1  0  0  0  0
 17 18  1  0  0  0  0
 17 19  1  0  0  0  0
 17 20  1  0  0  0  0
 17 56  1  0  0  0  0
 18 21  1  0  0  0  0
 18 57  1  0  0  0  0
 18 58  1  0  0  0  0
 19 22  1  0  0  0  0
 19 59  1  0  0  0  0
 19 60  1  0  0  0  0
 20 23  1  0  0  0  0
 20 61  1  0  0  0  0
 20 62  1  0  0  0  0
 21 25  1  0  0  0  0
 21 63  1  0  0  0  0
 22 24  1  0  0  0  0
 22 64  1  0  0  0  0
 22 65  1  0  0  0  0
 23 24  1  0  0  0  0
 23 66  1  0  0  0  0
 23 67  1  0  0  0  0
 24 68  1  0  0  0  0
 24 69  1  0  0  0  0
 25 29  1  0  0  0  0
 25 70  1  0  0  0  0
 26 27  1  0  0  0  0
 26 31  1  6  0  0  0
 26 71  1  0  0  0  0
 27 30  1  0  0  0  0
 27 72  1  0  0  0  0
 27 73  1  0  0  0  0
 28 30  1  0  0  0  0
 28 74  1  0  0  0  0
 28 75  1  0  0  0  0
 30 76  1  0  0  0  0
 30 77  1  0  0  0  0
 32 34  1  0  0  0  0
 33 35  1  0  0  0  0
 33 38  1  0  0  0  0
 33 80  1  0  0  0  0
 34 36  1  0  0  0  0
 34 82  1  0  0  0  0
 35 37  1  0  0  0  0
 35 39  1  6  0  0  0
 35 83  1  0  0  0  0
 36 84  1  0  0  0  0
 36 85  1  0  0  0  0
 37 41  1  0  0  0  0
 37 86  1  0  0  0  0
 37 87  1  0  0  0  0
 39 89  1  0  0  0  0
 39 90  1  0  0  0  0
 39 91  1  0  0  0  0
 40 43  1  0  0  0  0
 40 46  1  0  0  0  0
 40 93  1  0  0  0  0
 41 94  1  0  0  0  0
 41 95  1  0  0  0  0
 41 96  1  0  0  0  0
 42 45  1  0  0  0  0
 43 47  1  0  0  0  0
 43 48  1  0  0  0  0
 43 97  1  0  0  0  0
 44 98  1  0  0  0  0
 44 99  1  0  0  0  0
 44100  1  0  0  0  0
 45 49  1  0  0  0  0
 45101  1  0  0  0  0
 45102  1  0  0  0  0
 47103  1  0  0  0  0
 47104  1  0  0  0  0
 47105  1  0  0  0  0
 48106  1  0  0  0  0
 48107  1  0  0  0  0
 48108  1  0  0  0  0
 49 50  1  0  0  0  0
 49109  1  0  0  0  0
 49110  1  0  0  0  0
 50 51  2  0  0  0  0
 50 52  1  0  0  0  0
 51 53  1  0  0  0  0
 51113  1  0  0  0  0
 52 54  2  0  0  0  0
 52114  1  0  0  0  0
 53 55  2  0  0  0  0
 53115  1  0  0  0  0
 54 55  1  0  0  0  0
 54116  1  0  0  0  0
 55117  1  0  0  0  0
M  END
> <PUBCHEM_COMPOUND_CID>
501761
> <PUBCHEM_COMPOUND_CANONICALIZED>
1
> <PUBCHEM_CACTVS_COMPLEXITY>
1420
> <PUBCHEM_CACTVS_HBOND_ACCEPTOR>
9
> <PUBCHEM_CACTVS_HBOND_DONOR>
6
> <PUBCHEM_CACTVS_ROTATABLE_BOND>
20
> <PUBCHEM_CACTVS_SUBSKEYS>
AAADcfB/vABAAAAAAAAAAAAAAAAAAWAAAAAwYAAAAAAAAAABAAAAHgQQCAAADTzl2AayAIPAAgqIAiFSEHJCAAAgABAIiIHIAIgKcDqg0TCUYAAklgCYiAeYyaCOAAAAAAAAAAAAAAAAAAAAAAAAAAAAAA==
> <PUBCHEM_IUPAC_OPENEYE_NAME>
(2S)-N-[(1S,2R)-1-[[(1S)-1-carbamoyl-2-methyl-propyl]carbamoyl]-2-methyl-butyl]-1-[(2S,3S)-4-cyclohexyl-2-hydroxy-3-[[(2R)-3-methylsulfonyl-2-(3-phenylpropanoylamino)propanoyl]amino]butanoyl]pyrrolidine-2-carboxamide
> <PUBCHEM_IUPAC_CAS_NAME>
(2S)-N-[(2S,3R)-1-[[(2S)-1-amino-3-methyl-1-oxobutan-2-yl]amino]-3-methyl-1-oxopentan-2-yl]-1-[(2S,3S)-4-cyclohexyl-2-hydroxy-3-[[(2R)-3-methylsulfonyl-1-oxo-2-[(1-oxo-3-phenylpropyl)amino]propyl]amino]-1-oxobutyl]-2-pyrrolidinecarboxamide
> <PUBCHEM_IUPAC_NAME_MARKUP>
(2<I>S</I>)-<I>N</I>-[(2<I>S</I>,3<I>R</I>)-1-[[(2<I>S</I>)-1-amino-3-methyl-1-oxobutan-2-yl]amino]-3-methyl-1-oxopentan-2-yl]-1-[(2<I>S</I>,3<I>S</I>)-4-cyclohexyl-2-hydroxy-3-[[(2<I>R</I>)-3-methylsulfonyl-2-(3-phenylpropanoylamino)propanoyl]amino]butanoyl]pyrrolidine-2-carboxamide
> <PUBCHEM_IUPAC_NAME>
(2S)-N-[(2S,3R)-1-[[(2S)-1-amino-3-methyl-1-oxobutan-2-yl]amino]-3-methyl-1-oxopentan-2-yl]-1-[(2S,3S)-4-cyclohexyl-2-hydroxy-3-[[(2R)-3-methylsulfonyl-2-(3-phenylpropanoylamino)propanoyl]amino]butanoyl]pyrrolidine-2-carboxamide
> <PUBCHEM_IUPAC_SYSTEMATIC_NAME>
(2S)-N-[(2S,3R)-1-[[(2S)-1-azanyl-3-methyl-1-oxidanylidene-butan-2-yl]amino]-3-methyl-1-oxidanylidene-pentan-2-yl]-1-[(2S,3S)-4-cyclohexyl-3-[[(2R)-3-methylsulfonyl-2-(3-phenylpropanoylamino)propanoyl]amino]-2-oxidanyl-butanoyl]pyrrolidine-2-carboxamide
> <PUBCHEM_IUPAC_TRADITIONAL_NAME>
(2S)-N-[(1S,2R)-1-[[(1S)-1-carbamoyl-2-methyl-propyl]carbamoyl]-2-methyl-butyl]-1-[(2S,3S)-4-cyclohexyl-3-[[(2R)-2-(hydrocinnamoylamino)-3-mesyl-propanoyl]amino]-2-hydroxy-butanoyl]pyrrolidine-2-carboxamide
> <PUBCHEM_IUPAC_INCHI>
InChI=1S/C39H62N6O9S/c1-6-25(4)33(38(51)43-32(24(2)3)35(40)48)44-37(50)30-18-13-21-45(30)39(52)34(47)28(22-27-16-11-8-12-17-27)42-36(49)29(23-55(5,53)54)41-31(46)20-19-26-14-9-7-10-15-26/h7,9-10,14-15,24-25,27-30,32-34,47H,6,8,11-13,16-23H2,1-5H3,(H2,40,48)(H,41,46)(H,42,49)(H,43,51)(H,44,50)/t25-,28+,29+,30+,32+,33+,34+/m1/s1
> <PUBCHEM_IUPAC_INCHIKEY>
YCPSELPSMXQAKP-UYCHLWRSSA-N
> <PUBCHEM_XLOGP3_AA>
3.5
> <PUBCHEM_EXACT_MASS>
790.42989875
> <PUBCHEM_MOLECULAR_FORMULA>
C39H62N6O9S
> <PUBCHEM_MOLECULAR_WEIGHT>
791.0
> <PUBCHEM_OPENEYE_CAN_SMILES>
CCC(C)C(C(=O)NC(C(C)C)C(=O)N)NC(=O)C1CCCN1C(=O)C(C(CC2CCCCC2)NC(=O)C(CS(=O)(=O)C)NC(=O)CCC3=CC=CC=C3)O
> <PUBCHEM_OPENEYE_ISO_SMILES>
CC[C@@H](C)[C@@H](C(=O)N[C@@H](C(C)C)C(=O)N)NC(=O)[C@@H]1CCCN1C(=O)[C@H]([C@H](CC2CCCCC2)NC(=O)[C@H](CS(=O)(=O)C)NC(=O)CCC3=CC=CC=C3)O
> <PUBCHEM_CACTVS_TPSA>
243
> <PUBCHEM_MONOISOTOPIC_WEIGHT>
790.42989875
> <PUBCHEM_TOTAL_CHARGE>
0
> <PUBCHEM_HEAVY_ATOM_COUNT>
55
> <PUBCHEM_ATOM_DEF_STEREO_COUNT>
7
> <PUBCHEM_ATOM_UDEF_STEREO_COUNT>
0
> <PUBCHEM_BOND_DEF_STEREO_COUNT>
0
> <PUBCHEM_BOND_UDEF_STEREO_COUNT>
0
> <PUBCHEM_ISOTOPIC_ATOM_COUNT>
0
> <PUBCHEM_COMPONENT_COUNT>
1
> <PUBCHEM_CACTVS_TAUTO_COUNT>
-1
> <PUBCHEM_COORDINATE_TYPE>
1
5
255
> <PUBCHEM_BONDANNOTATIONS>
21  12  5
33  13  5
34  14  5
40  15  5
25  2  5
26  31  6
35  39  6
50  51  8
50  52  8
51  53  8
52  54  8
53  55  8
54  55  8
$$$$
