501795
  -OEChem-10302200282D
 88 90  0     1  0  0  0  0  0999 V2000
    2.0000   -2.7500    0.0000 Cl  0  0  0  0  0  0  0  0  0  0  0  0
   11.3769   -0.5864    0.0000 S   0  0  0  0  0  0  0  0  0  0  0  0
    8.2046   -1.6046    0.0000 O   0  0  0  0  0  0  0  0  0  0  0  0
    9.7942    1.7500    0.0000 O   0  0  0  0  0  0  0  0  0  0  0  0
    8.0622   -0.2500    0.0000 O   0  0  0  0  0  0  0  0  0  0  0  0
    6.3301    2.7500    0.0000 O   0  0  0  0  0  0  0  0  0  0  0  0
    5.4641    3.2500    0.0000 O   0  0  0  0  0  0  0  0  0  0  0  0
    3.7320    0.2500    0.0000 O   0  0  0  0  0  0  0  0  0  0  0  0
    3.7320   -1.7500    0.0000 O   0  0  0  0  0  0  0  0  0  0  0  0
    9.7942   -0.2500    0.0000 N   0  0  0  0  0  0  0  0  0  0  0  0
    9.3635   -2.8918    0.0000 N   0  0  0  0  0  0  0  0  0  0  0  0
    7.1962    1.2500    0.0000 N   0  0  0  0  0  0  0  0  0  0  0  0
    5.4641    0.2500    0.0000 N   0  0  0  0  0  0  0  0  0  0  0  0
    3.7320    3.2500    0.0000 N   0  0  0  0  0  0  0  0  0  0  0  0
   10.8769   -1.4524    0.0000 C   0  0  0  0  0  0  0  0  0  0  0  0
    9.8988   -1.2445    0.0000 C   0  0  3  0  0  0  0  0  0  0  0  0
   10.7078    0.1567    0.0000 C   0  0  0  0  0  0  0  0  0  0  0  0
   11.7429   -1.9524    0.0000 C   0  0  0  0  0  0  0  0  0  0  0  0
   10.6690   -2.4306    0.0000 C   0  0  0  0  0  0  0  0  0  0  0  0
    9.1556   -1.9136    0.0000 C   0  0  0  0  0  0  0  0  0  0  0  0
    8.9282    0.2500    0.0000 C   0  0  0  0  0  0  0  0  0  0  0  0
    8.9282    1.2500    0.0000 C   0  0  2  0  0  0  0  0  0  0  0  0
    8.0622    1.7500    0.0000 C   0  0  2  0  0  0  0  0  0  0  0  0
    8.6204   -3.5609    0.0000 C   0  0  0  0  0  0  0  0  0  0  0  0
    8.0622    2.7500    0.0000 C   0  0  0  0  0  0  0  0  0  0  0  0
    7.8772   -4.2301    0.0000 C   0  0  0  0  0  0  0  0  0  0  0  0
    9.2895   -4.3041    0.0000 C   0  0  0  0  0  0  0  0  0  0  0  0
    7.9512   -2.8178    0.0000 C   0  0  0  0  0  0  0  0  0  0  0  0
    8.9282    3.2500    0.0000 C   0  0  0  0  0  0  0  0  0  0  0  0
    6.3301    1.7500    0.0000 C   0  0  0  0  0  0  0  0  0  0  0  0
    5.4641    1.2500    0.0000 C   0  0  2  0  0  0  0  0  0  0  0  0
    9.7942    2.7500    0.0000 C   0  0  0  0  0  0  0  0  0  0  0  0
    8.9282    4.2500    0.0000 C   0  0  0  0  0  0  0  0  0  0  0  0
    4.5981    1.7500    0.0000 C   0  0  0  0  0  0  0  0  0  0  0  0
   10.6603    3.2500    0.0000 C   0  0  0  0  0  0  0  0  0  0  0  0
    9.7942    4.7500    0.0000 C   0  0  0  0  0  0  0  0  0  0  0  0
   10.6603    4.2500    0.0000 C   0  0  0  0  0  0  0  0  0  0  0  0
    4.5981    2.7500    0.0000 C   0  0  0  0  0  0  0  0  0  0  0  0
    4.5981   -0.2500    0.0000 C   0  0  0  0  0  0  0  0  0  0  0  0
    4.5981   -1.2500    0.0000 C   0  0  0  0  0  0  0  0  0  0  0  0
    3.7320   -2.7500    0.0000 C   0  0  0  0  0  0  0  0  0  0  0  0
    2.8660   -3.2500    0.0000 C   0  0  0  0  0  0  0  0  0  0  0  0
    4.5981   -3.2500    0.0000 C   0  0  0  0  0  0  0  0  0  0  0  0
    2.8660   -4.2500    0.0000 C   0  0  0  0  0  0  0  0  0  0  0  0
    4.5981   -4.2500    0.0000 C   0  0  0  0  0  0  0  0  0  0  0  0
    3.7320   -4.7500    0.0000 C   0  0  0  0  0  0  0  0  0  0  0  0
    9.3199   -1.0223    0.0000 H   0  0  0  0  0  0  0  0  0  0  0  0
   11.2094    0.5212    0.0000 H   0  0  0  0  0  0  0  0  0  0  0  0
   10.3978    0.6937    0.0000 H   0  0  0  0  0  0  0  0  0  0  0  0
   11.4329   -2.4894    0.0000 H   0  0  0  0  0  0  0  0  0  0  0  0
   12.2799   -2.2624    0.0000 H   0  0  0  0  0  0  0  0  0  0  0  0
   12.0529   -1.4155    0.0000 H   0  0  0  0  0  0  0  0  0  0  0  0
   10.0625   -2.3017    0.0000 H   0  0  0  0  0  0  0  0  0  0  0  0
   10.5401   -3.0370    0.0000 H   0  0  0  0  0  0  0  0  0  0  0  0
   11.2754   -2.5595    0.0000 H   0  0  0  0  0  0  0  0  0  0  0  0
    9.4651    0.9400    0.0000 H   0  0  0  0  0  0  0  0  0  0  0  0
    8.0622    1.1300    0.0000 H   0  0  0  0  0  0  0  0  0  0  0  0
    9.9532   -3.0834    0.0000 H   0  0  0  0  0  0  0  0  0  0  0  0
    7.8501    3.3326    0.0000 H   0  0  0  0  0  0  0  0  0  0  0  0
    7.4516    2.6423    0.0000 H   0  0  0  0  0  0  0  0  0  0  0  0
    7.1962    0.6300    0.0000 H   0  0  0  0  0  0  0  0  0  0  0  0
    7.4624   -3.7693    0.0000 H   0  0  0  0  0  0  0  0  0  0  0  0
    7.4165   -4.6449    0.0000 H   0  0  0  0  0  0  0  0  0  0  0  0
    8.2921   -4.6908    0.0000 H   0  0  0  0  0  0  0  0  0  0  0  0
    8.8288   -4.7189    0.0000 H   0  0  0  0  0  0  0  0  0  0  0  0
    9.7044   -4.7648    0.0000 H   0  0  0  0  0  0  0  0  0  0  0  0
    9.7503   -3.8892    0.0000 H   0  0  0  0  0  0  0  0  0  0  0  0
    8.4120   -2.4029    0.0000 H   0  0  0  0  0  0  0  0  0  0  0  0
    7.5364   -2.3570    0.0000 H   0  0  0  0  0  0  0  0  0  0  0  0
    7.4905   -3.2326    0.0000 H   0  0  0  0  0  0  0  0  0  0  0  0
   10.3312    1.4400    0.0000 H   0  0  0  0  0  0  0  0  0  0  0  0
    6.0010    0.9400    0.0000 H   0  0  0  0  0  0  0  0  0  0  0  0
    9.7942    2.1300    0.0000 H   0  0  0  0  0  0  0  0  0  0  0  0
    8.3913    4.5600    0.0000 H   0  0  0  0  0  0  0  0  0  0  0  0
    3.9875    1.8577    0.0000 H   0  0  0  0  0  0  0  0  0  0  0  0
    4.3860    1.1674    0.0000 H   0  0  0  0  0  0  0  0  0  0  0  0
    6.0010   -0.0600    0.0000 H   0  0  0  0  0  0  0  0  0  0  0  0
   11.1972    2.9400    0.0000 H   0  0  0  0  0  0  0  0  0  0  0  0
    9.7942    5.3700    0.0000 H   0  0  0  0  0  0  0  0  0  0  0  0
   11.1972    4.5600    0.0000 H   0  0  0  0  0  0  0  0  0  0  0  0
    4.8101   -1.8326    0.0000 H   0  0  0  0  0  0  0  0  0  0  0  0
    5.2087   -1.1423    0.0000 H   0  0  0  0  0  0  0  0  0  0  0  0
    3.7320    3.8700    0.0000 H   0  0  0  0  0  0  0  0  0  0  0  0
    3.1951    2.9400    0.0000 H   0  0  0  0  0  0  0  0  0  0  0  0
    5.1350   -2.9400    0.0000 H   0  0  0  0  0  0  0  0  0  0  0  0
    2.3291   -4.5600    0.0000 H   0  0  0  0  0  0  0  0  0  0  0  0
    5.1350   -4.5600    0.0000 H   0  0  0  0  0  0  0  0  0  0  0  0
    3.7320   -5.3700    0.0000 H   0  0  0  0  0  0  0  0  0  0  0  0
  1 42  1  0  0  0  0
  2 15  1  0  0  0  0
  2 17  1  0  0  0  0
  3 20  2  0  0  0  0
 22  4  1  6  0  0  0
  4 71  1  0  0  0  0
  5 21  2  0  0  0  0
  6 30  2  0  0  0  0
  7 38  2  0  0  0  0
  8 39  2  0  0  0  0
  9 40  1  0  0  0  0
  9 41  1  0  0  0  0
 10 16  1  0  0  0  0
 10 17  1  0  0  0  0
 10 21  1  0  0  0  0
 11 20  1  0  0  0  0
 11 24  1  0  0  0  0
 11 58  1  0  0  0  0
 23 12  1  1  0  0  0
 12 30  1  0  0  0  0
 12 61  1  0  0  0  0
 31 13  1  1  0  0  0
 13 39  1  0  0  0  0
 13 77  1  0  0  0  0
 14 38  1  0  0  0  0
 14 83  1  0  0  0  0
 14 84  1  0  0  0  0
 15 16  1  0  0  0  0
 15 18  1  0  0  0  0
 15 19  1  0  0  0  0
 16 20  1  0  0  0  0
 16 47  1  0  0  0  0
 17 48  1  0  0  0  0
 17 49  1  0  0  0  0
 18 50  1  0  0  0  0
 18 51  1  0  0  0  0
 18 52  1  0  0  0  0
 19 53  1  0  0  0  0
 19 54  1  0  0  0  0
 19 55  1  0  0  0  0
 21 22  1  0  0  0  0
 22 23  1  0  0  0  0
 22 56  1  0  0  0  0
 23 25  1  0  0  0  0
 23 57  1  0  0  0  0
 24 26  1  0  0  0  0
 24 27  1  0  0  0  0
 24 28  1  0  0  0  0
 25 29  1  0  0  0  0
 25 59  1  0  0  0  0
 25 60  1  0  0  0  0
 26 62  1  0  0  0  0
 26 63  1  0  0  0  0
 26 64  1  0  0  0  0
 27 65  1  0  0  0  0
 27 66  1  0  0  0  0
 27 67  1  0  0  0  0
 28 68  1  0  0  0  0
 28 69  1  0  0  0  0
 28 70  1  0  0  0  0
 29 32  2  0  0  0  0
 29 33  1  0  0  0  0
 30 31  1  0  0  0  0
 31 34  1  0  0  0  0
 31 72  1  0  0  0  0
 32 35  1  0  0  0  0
 32 73  1  0  0  0  0
 33 36  2  0  0  0  0
 33 74  1  0  0  0  0
 34 38  1  0  0  0  0
 34 75  1  0  0  0  0
 34 76  1  0  0  0  0
 35 37  2  0  0  0  0
 35 78  1  0  0  0  0
 36 37  1  0  0  0  0
 36 79  1  0  0  0  0
 37 80  1  0  0  0  0
 39 40  1  0  0  0  0
 40 81  1  0  0  0  0
 40 82  1  0  0  0  0
 41 42  1  0  0  0  0
 41 43  2  0  0  0  0
 42 44  2  0  0  0  0
 43 45  1  0  0  0  0
 43 85  1  0  0  0  0
 44 46  1  0  0  0  0
 44 86  1  0  0  0  0
 45 46  2  0  0  0  0
 45 87  1  0  0  0  0
 46 88  1  0  0  0  0
M  END
> <PUBCHEM_COMPOUND_CID>
501795
> <PUBCHEM_COMPOUND_CANONICALIZED>
1
> <PUBCHEM_CACTVS_COMPLEXITY>
1100
> <PUBCHEM_CACTVS_HBOND_ACCEPTOR>
8
> <PUBCHEM_CACTVS_HBOND_DONOR>
5
> <PUBCHEM_CACTVS_ROTATABLE_BOND>
14
> <PUBCHEM_CACTVS_SUBSKEYS>
AAADcfB/uABEAAAAAAAAAAAAAAAAAWAAAAAwYAAAAAAAAAABQAAAHgYQCAAADL7h2CayBoPABgiIAiFSEAICCABgJVAIiIHOC4gOdjul8z+XeCCk1hGYqAedyKCOAAAAAAAACAAAAAAAAAAQAAAAAAAAAA==
> <PUBCHEM_IUPAC_OPENEYE_NAME>
(2S)-N-[(1S,2S)-1-benzyl-3-[4-(tert-butylcarbamoyl)-5,5-dimethyl-thiazolidin-3-yl]-2-hydroxy-3-oxo-propyl]-2-[[2-(2-chlorophenoxy)acetyl]amino]butanediamide
> <PUBCHEM_IUPAC_CAS_NAME>
(2S)-N-[(2S,3S)-4-[4-[(tert-butylamino)-oxomethyl]-5,5-dimethyl-3-thiazolidinyl]-3-hydroxy-4-oxo-1-phenylbutan-2-yl]-2-[[2-(2-chlorophenoxy)-1-oxoethyl]amino]butanediamide
> <PUBCHEM_IUPAC_NAME_MARKUP>
(2<I>S</I>)-<I>N</I>-[(2<I>S</I>,3<I>S</I>)-4-[4-(<I>tert</I>-butylcarbamoyl)-5,5-dimethyl-1,3-thiazolidin-3-yl]-3-hydroxy-4-oxo-1-phenylbutan-2-yl]-2-[[2-(2-chlorophenoxy)acetyl]amino]butanediamide
> <PUBCHEM_IUPAC_NAME>
(2S)-N-[(2S,3S)-4-[4-(tert-butylcarbamoyl)-5,5-dimethyl-1,3-thiazolidin-3-yl]-3-hydroxy-4-oxo-1-phenylbutan-2-yl]-2-[[2-(2-chlorophenoxy)acetyl]amino]butanediamide
> <PUBCHEM_IUPAC_SYSTEMATIC_NAME>
(2S)-N-[(2S,3S)-4-[4-(tert-butylcarbamoyl)-5,5-dimethyl-1,3-thiazolidin-3-yl]-3-oxidanyl-4-oxidanylidene-1-phenyl-butan-2-yl]-2-[2-(2-chloranylphenoxy)ethanoylamino]butanediamide
> <PUBCHEM_IUPAC_TRADITIONAL_NAME>
(2S)-N-[(1S,2S)-1-benzyl-3-[4-(tert-butylcarbamoyl)-5,5-dimethyl-thiazolidin-3-yl]-2-hydroxy-3-keto-propyl]-2-[[2-(2-chlorophenoxy)acetyl]amino]succinamide
> <PUBCHEM_IUPAC_INCHI>
InChI=1S/C32H42ClN5O7S/c1-31(2,3)37-29(43)27-32(4,5)46-18-38(27)30(44)26(41)21(15-19-11-7-6-8-12-19)36-28(42)22(16-24(34)39)35-25(40)17-45-23-14-10-9-13-20(23)33/h6-14,21-22,26-27,41H,15-18H2,1-5H3,(H2,34,39)(H,35,40)(H,36,42)(H,37,43)/t21-,22-,26-,27?/m0/s1
> <PUBCHEM_IUPAC_INCHIKEY>
KNAIMGDPFPJDOZ-KSBMMBPMSA-N
> <PUBCHEM_XLOGP3_AA>
2.5
> <PUBCHEM_EXACT_MASS>
675.2493476
> <PUBCHEM_MOLECULAR_FORMULA>
C32H42ClN5O7S
> <PUBCHEM_MOLECULAR_WEIGHT>
676.2
> <PUBCHEM_OPENEYE_CAN_SMILES>
CC1(C(N(CS1)C(=O)C(C(CC2=CC=CC=C2)NC(=O)C(CC(=O)N)NC(=O)COC3=CC=CC=C3Cl)O)C(=O)NC(C)(C)C)C
> <PUBCHEM_OPENEYE_ISO_SMILES>
CC1(C(N(CS1)C(=O)[C@H]([C@H](CC2=CC=CC=C2)NC(=O)[C@H](CC(=O)N)NC(=O)COC3=CC=CC=C3Cl)O)C(=O)NC(C)(C)C)C
> <PUBCHEM_CACTVS_TPSA>
206
> <PUBCHEM_MONOISOTOPIC_WEIGHT>
675.2493476
> <PUBCHEM_TOTAL_CHARGE>
0
> <PUBCHEM_HEAVY_ATOM_COUNT>
46
> <PUBCHEM_ATOM_DEF_STEREO_COUNT>
3
> <PUBCHEM_ATOM_UDEF_STEREO_COUNT>
1
> <PUBCHEM_BOND_DEF_STEREO_COUNT>
0
> <PUBCHEM_BOND_UDEF_STEREO_COUNT>
0
> <PUBCHEM_ISOTOPIC_ATOM_COUNT>
0
> <PUBCHEM_COMPONENT_COUNT>
1
> <PUBCHEM_CACTVS_TAUTO_COUNT>
-1
> <PUBCHEM_COORDINATE_TYPE>
1
5
255
> <PUBCHEM_BONDANNOTATIONS>
23  12  5
31  13  5
16  20  3
29  32  8
29  33  8
32  35  8
33  36  8
35  37  8
36  37  8
22  4  6
41  42  8
41  43  8
42  44  8
43  45  8
44  46  8
45  46  8
$$$$
