501735
  -OEChem-10302200282D
107110  0     1  0  0  0  0  0999 V2000
    5.2999   -0.6442    0.0000 O   0  0  0  0  0  0  0  0  0  0  0  0
    8.9999   -0.9449    0.0000 O   0  0  0  0  0  0  0  0  0  0  0  0
    6.4019   -1.4449    0.0000 O   0  0  0  0  0  0  0  0  0  0  0  0
    2.1194    1.0541    0.0000 O   0  0  0  0  0  0  0  0  0  0  0  0
    9.8660   -1.4449    0.0000 O   0  0  0  0  0  0  0  0  0  0  0  0
   12.4640   -0.9449    0.0000 O   0  0  0  0  0  0  0  0  0  0  0  0
   12.4640   -3.9449    0.0000 O   0  0  0  0  0  0  0  0  0  0  0  0
   10.7320   -0.9449    0.0000 O   0  0  0  0  0  0  0  0  0  0  0  0
    7.2679    0.0551    0.0000 N   0  0  0  0  0  0  0  0  0  0  0  0
    3.2784    2.3413    0.0000 N   0  0  0  0  0  0  0  0  0  0  0  0
    4.7647    1.0030    0.0000 N   0  0  0  0  0  0  0  0  0  0  0  0
    8.9999   -2.9449    0.0000 N   0  0  0  0  0  0  0  0  0  0  0  0
   11.5980   -2.4449    0.0000 N   0  0  0  0  0  0  0  0  0  0  0  0
   11.5980   -5.4449    0.0000 N   0  0  0  0  0  0  0  0  0  0  0  0
    2.7431    3.9886    0.0000 C   0  0  0  0  0  0  0  0  0  0  0  0
    2.0000    4.6577    0.0000 C   0  0  0  0  0  0  0  0  0  0  0  0
    3.6942    4.2976    0.0000 C   0  0  0  0  0  0  0  0  0  0  0  0
    6.4589    0.6429    0.0000 C   0  0  1  0  0  0  0  0  0  0  0  0
    2.2079    5.6358    0.0000 C   0  0  0  0  0  0  0  0  0  0  0  0
    3.9021    5.2757    0.0000 C   0  0  0  0  0  0  0  0  0  0  0  0
    3.1590    5.9449    0.0000 C   0  0  0  0  0  0  0  0  0  0  0  0
    6.7679    1.5940    0.0000 C   0  0  0  0  0  0  0  0  0  0  0  0
    2.5352    3.0104    0.0000 C   0  0  0  0  0  0  0  0  0  0  0  0
    7.7679    1.5940    0.0000 C   0  0  0  0  0  0  0  0  0  0  0  0
    8.0769    0.6429    0.0000 C   0  0  0  0  0  0  0  0  0  0  0  0
    3.8136    0.6940    0.0000 C   0  0  1  0  0  0  0  0  0  0  0  0
    5.5078    0.3339    0.0000 C   0  0  0  0  0  0  0  0  0  0  0  0
    7.2679   -0.9449    0.0000 C   0  0  0  0  0  0  0  0  0  0  0  0
    8.1339   -1.4449    0.0000 C   0  0  2  0  0  0  0  0  0  0  0  0
    3.6057   -0.2841    0.0000 C   0  0  0  0  0  0  0  0  0  0  0  0
    3.0705    1.3632    0.0000 C   0  0  0  0  0  0  0  0  0  0  0  0
    8.1339   -2.4449    0.0000 C   0  0  2  0  0  0  0  0  0  0  0  0
    7.2679   -2.9449    0.0000 C   0  0  0  0  0  0  0  0  0  0  0  0
    2.6546   -0.5931    0.0000 C   0  0  0  0  0  0  0  0  0  0  0  0
    4.3488   -0.9533    0.0000 C   0  0  0  0  0  0  0  0  0  0  0  0
    7.2679   -3.9449    0.0000 C   0  0  0  0  0  0  0  0  0  0  0  0
    9.8660   -2.4449    0.0000 C   0  0  0  0  0  0  0  0  0  0  0  0
   10.7320   -2.9449    0.0000 C   0  0  2  0  0  0  0  0  0  0  0  0
    8.1339   -4.4449    0.0000 C   0  0  0  0  0  0  0  0  0  0  0  0
    6.4019   -4.4449    0.0000 C   0  0  0  0  0  0  0  0  0  0  0  0
   10.7320   -3.9449    0.0000 C   0  0  0  0  0  0  0  0  0  0  0  0
    8.1339   -5.4449    0.0000 C   0  0  0  0  0  0  0  0  0  0  0  0
    6.4019   -5.4449    0.0000 C   0  0  0  0  0  0  0  0  0  0  0  0
    7.2679   -5.9449    0.0000 C   0  0  0  0  0  0  0  0  0  0  0  0
   11.5980   -4.4449    0.0000 C   0  0  0  0  0  0  0  0  0  0  0  0
   11.5980   -1.4449    0.0000 C   0  0  0  0  0  0  0  0  0  0  0  0
   12.4640    0.0551    0.0000 C   0  0  0  0  0  0  0  0  0  0  0  0
   13.3301    0.5551    0.0000 C   0  0  0  0  0  0  0  0  0  0  0  0
   14.1961    0.0551    0.0000 C   0  0  0  0  0  0  0  0  0  0  0  0
   13.3301    1.5551    0.0000 C   0  0  0  0  0  0  0  0  0  0  0  0
   15.0621    0.5551    0.0000 C   0  0  0  0  0  0  0  0  0  0  0  0
   14.1961    2.0551    0.0000 C   0  0  0  0  0  0  0  0  0  0  0  0
   15.0621    1.5551    0.0000 C   0  0  0  0  0  0  0  0  0  0  0  0
    2.1535    3.7970    0.0000 H   0  0  0  0  0  0  0  0  0  0  0  0
    1.4252    4.8900    0.0000 H   0  0  0  0  0  0  0  0  0  0  0  0
    1.6714    4.1319    0.0000 H   0  0  0  0  0  0  0  0  0  0  0  0
    3.7805    3.6836    0.0000 H   0  0  0  0  0  0  0  0  0  0  0  0
    4.3138    4.2760    0.0000 H   0  0  0  0  0  0  0  0  0  0  0  0
    6.3619    0.0306    0.0000 H   0  0  0  0  0  0  0  0  0  0  0  0
    2.1216    6.2498    0.0000 H   0  0  0  0  0  0  0  0  0  0  0  0
    1.5883    5.6575    0.0000 H   0  0  0  0  0  0  0  0  0  0  0  0
    4.4770    5.0435    0.0000 H   0  0  0  0  0  0  0  0  0  0  0  0
    4.2307    5.8015    0.0000 H   0  0  0  0  0  0  0  0  0  0  0  0
    3.6475    6.3266    0.0000 H   0  0  0  0  0  0  0  0  0  0  0  0
    2.8679    6.4923    0.0000 H   0  0  0  0  0  0  0  0  0  0  0  0
    6.8327    2.2106    0.0000 H   0  0  0  0  0  0  0  0  0  0  0  0
    6.1614    1.7229    0.0000 H   0  0  0  0  0  0  0  0  0  0  0  0
    1.9604    3.2427    0.0000 H   0  0  0  0  0  0  0  0  0  0  0  0
    2.2067    2.4846    0.0000 H   0  0  0  0  0  0  0  0  0  0  0  0
    8.3743    1.7229    0.0000 H   0  0  0  0  0  0  0  0  0  0  0  0
    7.7031    2.2106    0.0000 H   0  0  0  0  0  0  0  0  0  0  0  0
    8.3869    0.1060    0.0000 H   0  0  0  0  0  0  0  0  0  0  0  0
    8.6433    0.8951    0.0000 H   0  0  0  0  0  0  0  0  0  0  0  0
    3.9425    1.3005    0.0000 H   0  0  0  0  0  0  0  0  0  0  0  0
    3.8680    2.5329    0.0000 H   0  0  0  0  0  0  0  0  0  0  0  0
    4.8936    1.6095    0.0000 H   0  0  0  0  0  0  0  0  0  0  0  0
    8.1339   -0.8249    0.0000 H   0  0  0  0  0  0  0  0  0  0  0  0
    3.1450    0.1307    0.0000 H   0  0  0  0  0  0  0  0  0  0  0  0
    8.1339   -3.0649    0.0000 H   0  0  0  0  0  0  0  0  0  0  0  0
    7.0558   -2.3623    0.0000 H   0  0  0  0  0  0  0  0  0  0  0  0
    6.6573   -3.0525    0.0000 H   0  0  0  0  0  0  0  0  0  0  0  0
    2.4630   -0.0035    0.0000 H   0  0  0  0  0  0  0  0  0  0  0  0
    2.0650   -0.7847    0.0000 H   0  0  0  0  0  0  0  0  0  0  0  0
    2.8462   -1.1828    0.0000 H   0  0  0  0  0  0  0  0  0  0  0  0
    3.9340   -1.4140    0.0000 H   0  0  0  0  0  0  0  0  0  0  0  0
    4.8096   -1.3681    0.0000 H   0  0  0  0  0  0  0  0  0  0  0  0
    4.7637   -0.4925    0.0000 H   0  0  0  0  0  0  0  0  0  0  0  0
    8.9999   -3.5649    0.0000 H   0  0  0  0  0  0  0  0  0  0  0  0
    8.9999   -0.3249    0.0000 H   0  0  0  0  0  0  0  0  0  0  0  0
   11.2689   -3.2549    0.0000 H   0  0  0  0  0  0  0  0  0  0  0  0
    8.6708   -4.1349    0.0000 H   0  0  0  0  0  0  0  0  0  0  0  0
    5.8649   -4.1349    0.0000 H   0  0  0  0  0  0  0  0  0  0  0  0
   10.1214   -3.8372    0.0000 H   0  0  0  0  0  0  0  0  0  0  0  0
   10.5199   -4.5275    0.0000 H   0  0  0  0  0  0  0  0  0  0  0  0
   12.1349   -2.7549    0.0000 H   0  0  0  0  0  0  0  0  0  0  0  0
    8.6708   -5.7549    0.0000 H   0  0  0  0  0  0  0  0  0  0  0  0
    5.8649   -5.7549    0.0000 H   0  0  0  0  0  0  0  0  0  0  0  0
    7.2679   -6.5649    0.0000 H   0  0  0  0  0  0  0  0  0  0  0  0
   12.1349   -5.7549    0.0000 H   0  0  0  0  0  0  0  0  0  0  0  0
   11.0611   -5.7549    0.0000 H   0  0  0  0  0  0  0  0  0  0  0  0
   12.2520    0.6377    0.0000 H   0  0  0  0  0  0  0  0  0  0  0  0
   11.8535   -0.0525    0.0000 H   0  0  0  0  0  0  0  0  0  0  0  0
   14.1961   -0.5649    0.0000 H   0  0  0  0  0  0  0  0  0  0  0  0
   12.7931    1.8651    0.0000 H   0  0  0  0  0  0  0  0  0  0  0  0
   15.5991    0.2451    0.0000 H   0  0  0  0  0  0  0  0  0  0  0  0
   14.1961    2.6751    0.0000 H   0  0  0  0  0  0  0  0  0  0  0  0
   15.5991    1.8651    0.0000 H   0  0  0  0  0  0  0  0  0  0  0  0
  1 27  2  0  0  0  0
 29  2  1  1  0  0  0
  2 89  1  0  0  0  0
  3 28  2  0  0  0  0
  4 31  2  0  0  0  0
  5 37  2  0  0  0  0
  6 46  1  0  0  0  0
  6 47  1  0  0  0  0
  7 45  2  0  0  0  0
  8 46  2  0  0  0  0
  9 18  1  0  0  0  0
  9 25  1  0  0  0  0
  9 28  1  0  0  0  0
 10 23  1  0  0  0  0
 10 31  1  0  0  0  0
 10 75  1  0  0  0  0
 26 11  1  1  0  0  0
 11 27  1  0  0  0  0
 11 76  1  0  0  0  0
 32 12  1  1  0  0  0
 12 37  1  0  0  0  0
 12 88  1  0  0  0  0
 38 13  1  1  0  0  0
 13 46  1  0  0  0  0
 13 95  1  0  0  0  0
 14 45  1  0  0  0  0
 14 99  1  0  0  0  0
 14100  1  0  0  0  0
 15 16  1  0  0  0  0
 15 17  1  0  0  0  0
 15 23  1  0  0  0  0
 15 54  1  0  0  0  0
 16 19  1  0  0  0  0
 16 55  1  0  0  0  0
 16 56  1  0  0  0  0
 17 20  1  0  0  0  0
 17 57  1  0  0  0  0
 17 58  1  0  0  0  0
 18 22  1  0  0  0  0
 18 27  1  6  0  0  0
 18 59  1  0  0  0  0
 19 21  1  0  0  0  0
 19 60  1  0  0  0  0
 19 61  1  0  0  0  0
 20 21  1  0  0  0  0
 20 62  1  0  0  0  0
 20 63  1  0  0  0  0
 21 64  1  0  0  0  0
 21 65  1  0  0  0  0
 22 24  1  0  0  0  0
 22 66  1  0  0  0  0
 22 67  1  0  0  0  0
 23 68  1  0  0  0  0
 23 69  1  0  0  0  0
 24 25  1  0  0  0  0
 24 70  1  0  0  0  0
 24 71  1  0  0  0  0
 25 72  1  0  0  0  0
 25 73  1  0  0  0  0
 26 30  1  0  0  0  0
 26 31  1  0  0  0  0
 26 74  1  0  0  0  0
 28 29  1  0  0  0  0
 29 32  1  0  0  0  0
 29 77  1  0  0  0  0
 30 34  1  0  0  0  0
 30 35  1  0  0  0  0
 30 78  1  0  0  0  0
 32 33  1  0  0  0  0
 32 79  1  0  0  0  0
 33 36  1  0  0  0  0
 33 80  1  0  0  0  0
 33 81  1  0  0  0  0
 34 82  1  0  0  0  0
 34 83  1  0  0  0  0
 34 84  1  0  0  0  0
 35 85  1  0  0  0  0
 35 86  1  0  0  0  0
 35 87  1  0  0  0  0
 36 39  2  0  0  0  0
 36 40  1  0  0  0  0
 37 38  1  0  0  0  0
 38 41  1  0  0  0  0
 38 90  1  0  0  0  0
 39 42  1  0  0  0  0
 39 91  1  0  0  0  0
 40 43  2  0  0  0  0
 40 92  1  0  0  0  0
 41 45  1  0  0  0  0
 41 93  1  0  0  0  0
 41 94  1  0  0  0  0
 42 44  2  0  0  0  0
 42 96  1  0  0  0  0
 43 44  1  0  0  0  0
 43 97  1  0  0  0  0
 44 98  1  0  0  0  0
 47 48  1  0  0  0  0
 47101  1  0  0  0  0
 47102  1  0  0  0  0
 48 49  2  0  0  0  0
 48 50  1  0  0  0  0
 49 51  1  0  0  0  0
 49103  1  0  0  0  0
 50 52  2  0  0  0  0
 50104  1  0  0  0  0
 51 53  2  0  0  0  0
 51105  1  0  0  0  0
 52 53  1  0  0  0  0
 52106  1  0  0  0  0
 53107  1  0  0  0  0
M  END
> <PUBCHEM_COMPOUND_CID>
501735
> <PUBCHEM_COMPOUND_CANONICALIZED>
1
> <PUBCHEM_CACTVS_COMPLEXITY>
1230
> <PUBCHEM_CACTVS_HBOND_ACCEPTOR>
8
> <PUBCHEM_CACTVS_HBOND_DONOR>
6
> <PUBCHEM_CACTVS_ROTATABLE_BOND>
18
> <PUBCHEM_CACTVS_SUBSKEYS>
AAADcfB/vAAAAAAAAAAAAAAAAAAAAWAAAAAwYMAAAAAAAAABQAAAHgAQCAAADTzhmAYyCIPABgCIAiFSGAICAAAgAAAIiIHICIkKdjqA8TmccAAk1gGYqAedyaCOAAAAAAAAAAAAAAAAAAAAAAAAAAAAAA==
> <PUBCHEM_IUPAC_OPENEYE_NAME>
benzyl N-[(1S)-3-amino-1-[[(1S,2S)-1-benzyl-3-[(2S)-2-[[(1S)-1-(cyclohexylmethylcarbamoyl)-2-methyl-propyl]carbamoyl]pyrrolidin-1-yl]-2-hydroxy-3-oxo-propyl]carbamoyl]-3-oxo-propyl]carbamate
> <PUBCHEM_IUPAC_CAS_NAME>
N-[(2S)-4-amino-1-[[(2S,3S)-4-[(2S)-2-[[[(2S)-1-(cyclohexylmethylamino)-3-methyl-1-oxobutan-2-yl]amino]-oxomethyl]-1-pyrrolidinyl]-3-hydroxy-4-oxo-1-phenylbutan-2-yl]amino]-1,4-dioxobutan-2-yl]carbamic acid (phenylmethyl) ester
> <PUBCHEM_IUPAC_NAME_MARKUP>
benzyl <I>N</I>-[(2<I>S</I>)-4-amino-1-[[(2<I>S</I>,3<I>S</I>)-4-[(2<I>S</I>)-2-[[(2<I>S</I>)-1-(cyclohexylmethylamino)-3-methyl-1-oxobutan-2-yl]carbamoyl]pyrrolidin-1-yl]-3-hydroxy-4-oxo-1-phenylbutan-2-yl]amino]-1,4-dioxobutan-2-yl]carbamate
> <PUBCHEM_IUPAC_NAME>
benzyl N-[(2S)-4-amino-1-[[(2S,3S)-4-[(2S)-2-[[(2S)-1-(cyclohexylmethylamino)-3-methyl-1-oxobutan-2-yl]carbamoyl]pyrrolidin-1-yl]-3-hydroxy-4-oxo-1-phenylbutan-2-yl]amino]-1,4-dioxobutan-2-yl]carbamate
> <PUBCHEM_IUPAC_SYSTEMATIC_NAME>
(phenylmethyl) N-[(2S)-4-azanyl-1-[[(2S,3S)-4-[(2S)-2-[[(2S)-1-(cyclohexylmethylamino)-3-methyl-1-oxidanylidene-butan-2-yl]carbamoyl]pyrrolidin-1-yl]-3-oxidanyl-4-oxidanylidene-1-phenyl-butan-2-yl]amino]-1,4-bis(oxidanylidene)butan-2-yl]carbamate
> <PUBCHEM_IUPAC_TRADITIONAL_NAME>
N-[(1S)-3-amino-1-[[(1S,2S)-1-benzyl-3-[(2S)-2-[[(1S)-1-(cyclohexylmethylcarbamoyl)-2-methyl-propyl]carbamoyl]pyrrolidino]-2-hydroxy-3-keto-propyl]carbamoyl]-3-keto-propyl]carbamic acid benzyl ester
> <PUBCHEM_IUPAC_INCHI>
InChI=1S/C39H54N6O8/c1-25(2)33(37(50)41-23-27-15-8-4-9-16-27)44-36(49)31-19-12-20-45(31)38(51)34(47)29(21-26-13-6-3-7-14-26)42-35(48)30(22-32(40)46)43-39(52)53-24-28-17-10-5-11-18-28/h3,5-7,10-11,13-14,17-18,25,27,29-31,33-34,47H,4,8-9,12,15-16,19-24H2,1-2H3,(H2,40,46)(H,41,50)(H,42,48)(H,43,52)(H,44,49)/t29-,30-,31-,33-,34-/m0/s1
> <PUBCHEM_IUPAC_INCHIKEY>
GVEKNKZVPQOSEG-SFRFHSQUSA-N
> <PUBCHEM_XLOGP3_AA>
3.5
> <PUBCHEM_EXACT_MASS>
734.40031270
> <PUBCHEM_MOLECULAR_FORMULA>
C39H54N6O8
> <PUBCHEM_MOLECULAR_WEIGHT>
734.9
> <PUBCHEM_OPENEYE_CAN_SMILES>
CC(C)C(C(=O)NCC1CCCCC1)NC(=O)C2CCCN2C(=O)C(C(CC3=CC=CC=C3)NC(=O)C(CC(=O)N)NC(=O)OCC4=CC=CC=C4)O
> <PUBCHEM_OPENEYE_ISO_SMILES>
CC(C)[C@@H](C(=O)NCC1CCCCC1)NC(=O)[C@@H]2CCCN2C(=O)[C@H]([C@H](CC3=CC=CC=C3)NC(=O)[C@H](CC(=O)N)NC(=O)OCC4=CC=CC=C4)O
> <PUBCHEM_CACTVS_TPSA>
209
> <PUBCHEM_MONOISOTOPIC_WEIGHT>
734.40031270
> <PUBCHEM_TOTAL_CHARGE>
0
> <PUBCHEM_HEAVY_ATOM_COUNT>
53
> <PUBCHEM_ATOM_DEF_STEREO_COUNT>
5
> <PUBCHEM_ATOM_UDEF_STEREO_COUNT>
0
> <PUBCHEM_BOND_DEF_STEREO_COUNT>
0
> <PUBCHEM_BOND_UDEF_STEREO_COUNT>
0
> <PUBCHEM_ISOTOPIC_ATOM_COUNT>
0
> <PUBCHEM_COMPONENT_COUNT>
1
> <PUBCHEM_CACTVS_TAUTO_COUNT>
-1
> <PUBCHEM_COORDINATE_TYPE>
1
5
255
> <PUBCHEM_BONDANNOTATIONS>
26  11  5
32  12  5
38  13  5
18  27  6
29  2  5
36  39  8
36  40  8
39  42  8
40  43  8
42  44  8
43  44  8
48  49  8
48  50  8
49  51  8
50  52  8
51  53  8
52  53  8
$$$$
