501770
  -OEChem-10302200282D
112114  0     1  0  0  0  0  0999 V2000
   10.1589    0.8955    0.0000 O   0  0  0  0  0  0  0  0  0  0  0  0
    6.4589    1.1961    0.0000 O   0  0  0  0  0  0  0  0  0  0  0  0
    7.5608    0.3955    0.0000 O   0  0  0  0  0  0  0  0  0  0  0  0
    3.2784    2.8945    0.0000 O   0  0  0  0  0  0  0  0  0  0  0  0
   11.0249    0.3955    0.0000 O   0  0  0  0  0  0  0  0  0  0  0  0
    4.8532    6.1380    0.0000 O   0  0  0  0  0  0  0  0  0  0  0  0
   13.6230   -2.1045    0.0000 O   0  0  0  0  0  0  0  0  0  0  0  0
   11.8910    0.8955    0.0000 O   0  0  0  0  0  0  0  0  0  0  0  0
    8.4268    1.8955    0.0000 N   0  0  0  0  0  0  0  0  0  0  0  0
    5.9236    2.8434    0.0000 N   0  0  0  0  0  0  0  0  0  0  0  0
   10.1589   -1.1045    0.0000 N   0  0  0  0  0  0  0  0  0  0  0  0
    4.4374    4.1816    0.0000 N   0  0  0  0  0  0  0  0  0  0  0  0
   11.8910   -2.1045    0.0000 N   0  0  0  0  0  0  0  0  0  0  0  0
    3.1590    6.4981    0.0000 N   0  0  0  0  0  0  0  0  0  0  0  0
   13.6230    0.8955    0.0000 N   0  0  0  0  0  0  0  0  0  0  0  0
    7.6178    2.4833    0.0000 C   0  0  3  0  0  0  0  0  0  0  0  0
    7.9268    3.4343    0.0000 C   0  0  0  0  0  0  0  0  0  0  0  0
    8.9268    3.4343    0.0000 C   0  0  0  0  0  0  0  0  0  0  0  0
    9.2359    2.4833    0.0000 C   0  0  0  0  0  0  0  0  0  0  0  0
    6.6668    2.1743    0.0000 C   0  0  0  0  0  0  0  0  0  0  0  0
    8.4268    0.8955    0.0000 C   0  0  0  0  0  0  0  0  0  0  0  0
    9.2929    0.3955    0.0000 C   0  0  2  0  0  0  0  0  0  0  0  0
    4.9726    2.5344    0.0000 C   0  0  1  0  0  0  0  0  0  0  0  0
    9.2929   -0.6045    0.0000 C   0  0  2  0  0  0  0  0  0  0  0  0
    4.7647    1.5562    0.0000 C   0  0  1  0  0  0  0  0  0  0  0  0
    8.4268   -1.1045    0.0000 C   0  0  0  0  0  0  0  0  0  0  0  0
    3.8136    1.2472    0.0000 C   0  0  0  0  0  0  0  0  0  0  0  0
    4.2294    3.2035    0.0000 C   0  0  0  0  0  0  0  0  0  0  0  0
    5.5078    0.8871    0.0000 C   0  0  0  0  0  0  0  0  0  0  0  0
    8.4268   -2.1045    0.0000 C   0  0  0  0  0  0  0  0  0  0  0  0
    3.6942    4.8508    0.0000 C   0  0  1  0  0  0  0  0  0  0  0  0
    3.0705    1.9163    0.0000 C   0  0  0  0  0  0  0  0  0  0  0  0
   11.0249   -0.6045    0.0000 C   0  0  0  0  0  0  0  0  0  0  0  0
    2.7431    4.5418    0.0000 C   0  0  0  0  0  0  0  0  0  0  0  0
   11.8910   -1.1045    0.0000 C   0  0  2  0  0  0  0  0  0  0  0  0
   10.1589    1.8955    0.0000 C   0  0  0  0  0  0  0  0  0  0  0  0
    9.2929   -2.6045    0.0000 C   0  0  0  0  0  0  0  0  0  0  0  0
    7.5608   -2.6045    0.0000 C   0  0  0  0  0  0  0  0  0  0  0  0
    3.9021    5.8289    0.0000 C   0  0  0  0  0  0  0  0  0  0  0  0
   12.7570   -0.6045    0.0000 C   0  0  0  0  0  0  0  0  0  0  0  0
    2.0000    5.2109    0.0000 C   0  0  0  0  0  0  0  0  0  0  0  0
    2.5352    3.5636    0.0000 C   0  0  0  0  0  0  0  0  0  0  0  0
    9.2929   -3.6045    0.0000 C   0  0  0  0  0  0  0  0  0  0  0  0
    7.5608   -3.6045    0.0000 C   0  0  0  0  0  0  0  0  0  0  0  0
    8.4268   -4.1045    0.0000 C   0  0  0  0  0  0  0  0  0  0  0  0
   12.7570    0.3955    0.0000 C   0  0  0  0  0  0  0  0  0  0  0  0
   12.7570   -2.6045    0.0000 C   0  0  0  0  0  0  0  0  0  0  0  0
   12.7570   -3.6045    0.0000 C   0  0  0  0  0  0  0  0  0  0  0  0
   13.6230   -4.1045    0.0000 C   0  0  0  0  0  0  0  0  0  0  0  0
   13.6230   -5.1045    0.0000 C   0  0  0  0  0  0  0  0  0  0  0  0
   14.4890   -5.6045    0.0000 C   0  0  0  0  0  0  0  0  0  0  0  0
   12.7570   -5.6045    0.0000 C   0  0  0  0  0  0  0  0  0  0  0  0
   14.4890   -6.6045    0.0000 C   0  0  0  0  0  0  0  0  0  0  0  0
   12.7570   -6.6045    0.0000 C   0  0  0  0  0  0  0  0  0  0  0  0
   13.6230   -7.1045    0.0000 C   0  0  0  0  0  0  0  0  0  0  0  0
    7.5208    1.8709    0.0000 H   0  0  0  0  0  0  0  0  0  0  0  0
    7.9917    4.0509    0.0000 H   0  0  0  0  0  0  0  0  0  0  0  0
    7.3204    3.5632    0.0000 H   0  0  0  0  0  0  0  0  0  0  0  0
    9.5333    3.5632    0.0000 H   0  0  0  0  0  0  0  0  0  0  0  0
    8.8620    4.0509    0.0000 H   0  0  0  0  0  0  0  0  0  0  0  0
    9.5459    1.9463    0.0000 H   0  0  0  0  0  0  0  0  0  0  0  0
    9.8023    2.7354    0.0000 H   0  0  0  0  0  0  0  0  0  0  0  0
    9.2929    1.0155    0.0000 H   0  0  0  0  0  0  0  0  0  0  0  0
    5.4333    2.1195    0.0000 H   0  0  0  0  0  0  0  0  0  0  0  0
    9.2929   -1.2245    0.0000 H   0  0  0  0  0  0  0  0  0  0  0  0
    6.0525    3.4498    0.0000 H   0  0  0  0  0  0  0  0  0  0  0  0
    4.6358    0.9498    0.0000 H   0  0  0  0  0  0  0  0  0  0  0  0
    8.2148   -0.5219    0.0000 H   0  0  0  0  0  0  0  0  0  0  0  0
    7.8163   -1.2122    0.0000 H   0  0  0  0  0  0  0  0  0  0  0  0
    3.3250    0.8655    0.0000 H   0  0  0  0  0  0  0  0  0  0  0  0
    4.1047    0.6998    0.0000 H   0  0  0  0  0  0  0  0  0  0  0  0
   10.1589   -1.7245    0.0000 H   0  0  0  0  0  0  0  0  0  0  0  0
    5.0930    0.4263    0.0000 H   0  0  0  0  0  0  0  0  0  0  0  0
    5.9686    0.4722    0.0000 H   0  0  0  0  0  0  0  0  0  0  0  0
    5.9227    1.3478    0.0000 H   0  0  0  0  0  0  0  0  0  0  0  0
    5.0270    4.3732    0.0000 H   0  0  0  0  0  0  0  0  0  0  0  0
    4.2839    5.0424    0.0000 H   0  0  0  0  0  0  0  0  0  0  0  0
    3.4853    2.3771    0.0000 H   0  0  0  0  0  0  0  0  0  0  0  0
    2.6097    2.3312    0.0000 H   0  0  0  0  0  0  0  0  0  0  0  0
    2.6556    1.4556    0.0000 H   0  0  0  0  0  0  0  0  0  0  0  0
    3.2039    4.1269    0.0000 H   0  0  0  0  0  0  0  0  0  0  0  0
   12.4279   -1.4145    0.0000 H   0  0  0  0  0  0  0  0  0  0  0  0
   10.7789    1.8955    0.0000 H   0  0  0  0  0  0  0  0  0  0  0  0
   10.1589    2.5155    0.0000 H   0  0  0  0  0  0  0  0  0  0  0  0
    9.5389    1.8955    0.0000 H   0  0  0  0  0  0  0  0  0  0  0  0
    9.8298   -2.2945    0.0000 H   0  0  0  0  0  0  0  0  0  0  0  0
    7.0239   -2.2945    0.0000 H   0  0  0  0  0  0  0  0  0  0  0  0
   12.9690   -1.1871    0.0000 H   0  0  0  0  0  0  0  0  0  0  0  0
   13.3676   -0.4968    0.0000 H   0  0  0  0  0  0  0  0  0  0  0  0
    2.4149    5.6716    0.0000 H   0  0  0  0  0  0  0  0  0  0  0  0
    1.5392    5.6258    0.0000 H   0  0  0  0  0  0  0  0  0  0  0  0
    1.5851    4.7501    0.0000 H   0  0  0  0  0  0  0  0  0  0  0  0
    1.9288    3.6925    0.0000 H   0  0  0  0  0  0  0  0  0  0  0  0
    2.4063    2.9572    0.0000 H   0  0  0  0  0  0  0  0  0  0  0  0
    3.1417    3.4347    0.0000 H   0  0  0  0  0  0  0  0  0  0  0  0
   11.3540   -2.4145    0.0000 H   0  0  0  0  0  0  0  0  0  0  0  0
    9.8298   -3.9145    0.0000 H   0  0  0  0  0  0  0  0  0  0  0  0
    7.0239   -3.9145    0.0000 H   0  0  0  0  0  0  0  0  0  0  0  0
    8.4268   -4.7245    0.0000 H   0  0  0  0  0  0  0  0  0  0  0  0
    3.2879    7.1045    0.0000 H   0  0  0  0  0  0  0  0  0  0  0  0
    2.5693    6.3065    0.0000 H   0  0  0  0  0  0  0  0  0  0  0  0
   12.1464   -3.4968    0.0000 H   0  0  0  0  0  0  0  0  0  0  0  0
   12.5449   -4.1871    0.0000 H   0  0  0  0  0  0  0  0  0  0  0  0
   14.2336   -4.2122    0.0000 H   0  0  0  0  0  0  0  0  0  0  0  0
   13.8351   -3.5219    0.0000 H   0  0  0  0  0  0  0  0  0  0  0  0
   13.6230    1.5155    0.0000 H   0  0  0  0  0  0  0  0  0  0  0  0
   14.1599    0.5855    0.0000 H   0  0  0  0  0  0  0  0  0  0  0  0
   15.0260   -5.2945    0.0000 H   0  0  0  0  0  0  0  0  0  0  0  0
   12.2200   -5.2945    0.0000 H   0  0  0  0  0  0  0  0  0  0  0  0
   15.0260   -6.9145    0.0000 H   0  0  0  0  0  0  0  0  0  0  0  0
   12.2200   -6.9145    0.0000 H   0  0  0  0  0  0  0  0  0  0  0  0
   13.6230   -7.7245    0.0000 H   0  0  0  0  0  0  0  0  0  0  0  0
 22  1  1  1  0  0  0
  1 36  1  0  0  0  0
  2 20  2  0  0  0  0
  3 21  2  0  0  0  0
  4 28  2  0  0  0  0
  5 33  2  0  0  0  0
  6 39  2  0  0  0  0
  7 47  2  0  0  0  0
  8 46  2  0  0  0  0
  9 16  1  0  0  0  0
  9 19  1  0  0  0  0
  9 21  1  0  0  0  0
 10 20  1  0  0  0  0
 23 10  1  1  0  0  0
 10 66  1  0  0  0  0
 24 11  1  1  0  0  0
 11 33  1  0  0  0  0
 11 72  1  0  0  0  0
 12 28  1  0  0  0  0
 31 12  1  1  0  0  0
 12 76  1  0  0  0  0
 35 13  1  6  0  0  0
 13 47  1  0  0  0  0
 13 96  1  0  0  0  0
 14 39  1  0  0  0  0
 14100  1  0  0  0  0
 14101  1  0  0  0  0
 15 46  1  0  0  0  0
 15106  1  0  0  0  0
 15107  1  0  0  0  0
 16 17  1  0  0  0  0
 16 20  1  0  0  0  0
 16 56  1  0  0  0  0
 17 18  1  0  0  0  0
 17 57  1  0  0  0  0
 17 58  1  0  0  0  0
 18 19  1  0  0  0  0
 18 59  1  0  0  0  0
 18 60  1  0  0  0  0
 19 61  1  0  0  0  0
 19 62  1  0  0  0  0
 21 22  1  0  0  0  0
 22 24  1  0  0  0  0
 22 63  1  0  0  0  0
 23 25  1  0  0  0  0
 23 28  1  0  0  0  0
 23 64  1  0  0  0  0
 24 26  1  0  0  0  0
 24 65  1  0  0  0  0
 25 27  1  0  0  0  0
 25 29  1  6  0  0  0
 25 67  1  0  0  0  0
 26 30  1  0  0  0  0
 26 68  1  0  0  0  0
 26 69  1  0  0  0  0
 27 32  1  0  0  0  0
 27 70  1  0  0  0  0
 27 71  1  0  0  0  0
 29 73  1  0  0  0  0
 29 74  1  0  0  0  0
 29 75  1  0  0  0  0
 30 37  2  0  0  0  0
 30 38  1  0  0  0  0
 31 34  1  0  0  0  0
 31 39  1  0  0  0  0
 31 77  1  0  0  0  0
 32 78  1  0  0  0  0
 32 79  1  0  0  0  0
 32 80  1  0  0  0  0
 33 35  1  0  0  0  0
 34 41  1  0  0  0  0
 34 42  1  0  0  0  0
 34 81  1  0  0  0  0
 35 40  1  0  0  0  0
 35 82  1  0  0  0  0
 36 83  1  0  0  0  0
 36 84  1  0  0  0  0
 36 85  1  0  0  0  0
 37 43  1  0  0  0  0
 37 86  1  0  0  0  0
 38 44  2  0  0  0  0
 38 87  1  0  0  0  0
 40 46  1  0  0  0  0
 40 88  1  0  0  0  0
 40 89  1  0  0  0  0
 41 90  1  0  0  0  0
 41 91  1  0  0  0  0
 41 92  1  0  0  0  0
 42 93  1  0  0  0  0
 42 94  1  0  0  0  0
 42 95  1  0  0  0  0
 43 45  2  0  0  0  0
 43 97  1  0  0  0  0
 44 45  1  0  0  0  0
 44 98  1  0  0  0  0
 45 99  1  0  0  0  0
 47 48  1  0  0  0  0
 48 49  1  0  0  0  0
 48102  1  0  0  0  0
 48103  1  0  0  0  0
 49 50  1  0  0  0  0
 49104  1  0  0  0  0
 49105  1  0  0  0  0
 50 51  2  0  0  0  0
 50 52  1  0  0  0  0
 51 53  1  0  0  0  0
 51108  1  0  0  0  0
 52 54  2  0  0  0  0
 52109  1  0  0  0  0
 53 55  2  0  0  0  0
 53110  1  0  0  0  0
 54 55  1  0  0  0  0
 54111  1  0  0  0  0
 55112  1  0  0  0  0
M  END
> <PUBCHEM_COMPOUND_CID>
501770
> <PUBCHEM_COMPOUND_CANONICALIZED>
1
> <PUBCHEM_CACTVS_COMPLEXITY>
1320
> <PUBCHEM_CACTVS_HBOND_ACCEPTOR>
8
> <PUBCHEM_CACTVS_HBOND_DONOR>
6
> <PUBCHEM_CACTVS_ROTATABLE_BOND>
21
> <PUBCHEM_CACTVS_SUBSKEYS>
AAADcfB/vAAAAAAAAAAAAAAAAAAAAWAAAAAwYAAAAAAAAAABQAAAHgAQAAAADTzhmAYyAIPABACIAiFSEAICAAAgAAAIiIHIAIgKYDqA0TWVIAAklgCYiAedyaCOAAAAAAAAAAAAAAAAAAAAAAAAAAAAAA==
> <PUBCHEM_IUPAC_OPENEYE_NAME>
(2S)-N-[(1S,2S)-1-benzyl-3-[2-[[(1S,2R)-1-[[(1S)-1-carbamoyl-2-methyl-propyl]carbamoyl]-2-methyl-butyl]carbamoyl]pyrrolidin-1-yl]-2-methoxy-3-oxo-propyl]-2-(3-phenylpropanoylamino)butanediamide
> <PUBCHEM_IUPAC_CAS_NAME>
(2S)-N-[(2S,3S)-4-[2-[[[(2S,3R)-1-[[(2S)-1-amino-3-methyl-1-oxobutan-2-yl]amino]-3-methyl-1-oxopentan-2-yl]amino]-oxomethyl]-1-pyrrolidinyl]-3-methoxy-4-oxo-1-phenylbutan-2-yl]-2-[(1-oxo-3-phenylpropyl)amino]butanediamide
> <PUBCHEM_IUPAC_NAME_MARKUP>
(2<I>S</I>)-<I>N</I>-[(2<I>S</I>,3<I>S</I>)-4-[2-[[(2<I>S</I>,3<I>R</I>)-1-[[(2<I>S</I>)-1-amino-3-methyl-1-oxobutan-2-yl]amino]-3-methyl-1-oxopentan-2-yl]carbamoyl]pyrrolidin-1-yl]-3-methoxy-4-oxo-1-phenylbutan-2-yl]-2-(3-phenylpropanoylamino)butanediamide
> <PUBCHEM_IUPAC_NAME>
(2S)-N-[(2S,3S)-4-[2-[[(2S,3R)-1-[[(2S)-1-amino-3-methyl-1-oxobutan-2-yl]amino]-3-methyl-1-oxopentan-2-yl]carbamoyl]pyrrolidin-1-yl]-3-methoxy-4-oxo-1-phenylbutan-2-yl]-2-(3-phenylpropanoylamino)butanediamide
> <PUBCHEM_IUPAC_SYSTEMATIC_NAME>
(2S)-N-[(2S,3S)-4-[2-[[(2S,3R)-1-[[(2S)-1-azanyl-3-methyl-1-oxidanylidene-butan-2-yl]amino]-3-methyl-1-oxidanylidene-pentan-2-yl]carbamoyl]pyrrolidin-1-yl]-3-methoxy-4-oxidanylidene-1-phenyl-butan-2-yl]-2-(3-phenylpropanoylamino)butanediamide
> <PUBCHEM_IUPAC_TRADITIONAL_NAME>
(2S)-N-[(1S,2S)-1-benzyl-3-[2-[[(1S,2R)-1-[[(1S)-1-carbamoyl-2-methyl-propyl]carbamoyl]-2-methyl-butyl]carbamoyl]pyrrolidino]-3-keto-2-methoxy-propyl]-2-(hydrocinnamoylamino)succinamide
> <PUBCHEM_IUPAC_INCHI>
InChI=1S/C40H57N7O8/c1-6-25(4)34(39(53)45-33(24(2)3)36(42)50)46-38(52)30-18-13-21-47(30)40(54)35(55-5)28(22-27-16-11-8-12-17-27)44-37(51)29(23-31(41)48)43-32(49)20-19-26-14-9-7-10-15-26/h7-12,14-17,24-25,28-30,33-35H,6,13,18-23H2,1-5H3,(H2,41,48)(H2,42,50)(H,43,49)(H,44,51)(H,45,53)(H,46,52)/t25-,28+,29+,30?,33+,34+,35+/m1/s1
> <PUBCHEM_IUPAC_INCHIKEY>
XLDTZFYJTJVLAP-GUKOMOFESA-N
> <PUBCHEM_XLOGP3_AA>
2.3
> <PUBCHEM_EXACT_MASS>
763.42686180
> <PUBCHEM_MOLECULAR_FORMULA>
C40H57N7O8
> <PUBCHEM_MOLECULAR_WEIGHT>
763.9
> <PUBCHEM_OPENEYE_CAN_SMILES>
CCC(C)C(C(=O)NC(C(C)C)C(=O)N)NC(=O)C1CCCN1C(=O)C(C(CC2=CC=CC=C2)NC(=O)C(CC(=O)N)NC(=O)CCC3=CC=CC=C3)OC
> <PUBCHEM_OPENEYE_ISO_SMILES>
CC[C@@H](C)[C@@H](C(=O)N[C@@H](C(C)C)C(=O)N)NC(=O)C1CCCN1C(=O)[C@H]([C@H](CC2=CC=CC=C2)NC(=O)[C@H](CC(=O)N)NC(=O)CCC3=CC=CC=C3)OC
> <PUBCHEM_CACTVS_TPSA>
232
> <PUBCHEM_MONOISOTOPIC_WEIGHT>
763.42686180
> <PUBCHEM_TOTAL_CHARGE>
0
> <PUBCHEM_HEAVY_ATOM_COUNT>
55
> <PUBCHEM_ATOM_DEF_STEREO_COUNT>
6
> <PUBCHEM_ATOM_UDEF_STEREO_COUNT>
1
> <PUBCHEM_BOND_DEF_STEREO_COUNT>
0
> <PUBCHEM_BOND_UDEF_STEREO_COUNT>
0
> <PUBCHEM_ISOTOPIC_ATOM_COUNT>
0
> <PUBCHEM_COMPONENT_COUNT>
1
> <PUBCHEM_CACTVS_TAUTO_COUNT>
-1
> <PUBCHEM_COORDINATE_TYPE>
1
5
255
> <PUBCHEM_BONDANNOTATIONS>
22  1  5
23  10  5
24  11  5
31  12  5
35  13  6
16  20  3
25  29  6
30  37  8
30  38  8
37  43  8
38  44  8
43  45  8
44  45  8
50  51  8
50  52  8
51  53  8
52  54  8
53  55  8
54  55  8
$$$$
