501771
  -OEChem-10302200282D
114116  0     1  0  0  0  0  0999 V2000
   12.7570   -4.8545    0.0000 S   0  0  0  0  0  0  0  0  0  0  0  0
   10.1589   -0.3545    0.0000 O   0  0  0  0  0  0  0  0  0  0  0  0
    6.4589   -0.0539    0.0000 O   0  0  0  0  0  0  0  0  0  0  0  0
    7.5608   -0.8545    0.0000 O   0  0  0  0  0  0  0  0  0  0  0  0
    3.2784    1.6445    0.0000 O   0  0  0  0  0  0  0  0  0  0  0  0
   11.0249   -0.8545    0.0000 O   0  0  0  0  0  0  0  0  0  0  0  0
    4.8532    4.8880    0.0000 O   0  0  0  0  0  0  0  0  0  0  0  0
   13.7570   -4.8545    0.0000 O   0  0  0  0  0  0  0  0  0  0  0  0
   11.7570   -4.8545    0.0000 O   0  0  0  0  0  0  0  0  0  0  0  0
   13.6230   -3.3545    0.0000 O   0  0  0  0  0  0  0  0  0  0  0  0
    8.4268    0.6455    0.0000 N   0  0  0  0  0  0  0  0  0  0  0  0
    5.9236    1.5934    0.0000 N   0  0  0  0  0  0  0  0  0  0  0  0
   10.1589   -2.3545    0.0000 N   0  0  0  0  0  0  0  0  0  0  0  0
    4.4374    2.9316    0.0000 N   0  0  0  0  0  0  0  0  0  0  0  0
   12.7570   -1.8545    0.0000 N   0  0  0  0  0  0  0  0  0  0  0  0
    3.1590    5.2481    0.0000 N   0  0  0  0  0  0  0  0  0  0  0  0
    7.6178    1.2333    0.0000 C   0  0  3  0  0  0  0  0  0  0  0  0
    7.9268    2.1843    0.0000 C   0  0  0  0  0  0  0  0  0  0  0  0
    8.9268    2.1843    0.0000 C   0  0  0  0  0  0  0  0  0  0  0  0
    9.2359    1.2333    0.0000 C   0  0  0  0  0  0  0  0  0  0  0  0
    6.6668    0.9243    0.0000 C   0  0  0  0  0  0  0  0  0  0  0  0
    8.4268   -0.3545    0.0000 C   0  0  0  0  0  0  0  0  0  0  0  0
    9.2929   -0.8545    0.0000 C   0  0  2  0  0  0  0  0  0  0  0  0
    4.9726    1.2844    0.0000 C   0  0  1  0  0  0  0  0  0  0  0  0
    9.2929   -1.8545    0.0000 C   0  0  2  0  0  0  0  0  0  0  0  0
    4.7647    0.3062    0.0000 C   0  0  1  0  0  0  0  0  0  0  0  0
    8.4268   -2.3545    0.0000 C   0  0  0  0  0  0  0  0  0  0  0  0
    3.8136   -0.0028    0.0000 C   0  0  0  0  0  0  0  0  0  0  0  0
    4.2294    1.9535    0.0000 C   0  0  0  0  0  0  0  0  0  0  0  0
    5.5078   -0.3629    0.0000 C   0  0  0  0  0  0  0  0  0  0  0  0
    8.4268   -3.3545    0.0000 C   0  0  0  0  0  0  0  0  0  0  0  0
    3.6942    3.6008    0.0000 C   0  0  1  0  0  0  0  0  0  0  0  0
   11.0249   -1.8545    0.0000 C   0  0  0  0  0  0  0  0  0  0  0  0
   11.8910   -2.3545    0.0000 C   0  0  2  0  0  0  0  0  0  0  0  0
    3.0705    0.6663    0.0000 C   0  0  0  0  0  0  0  0  0  0  0  0
    2.7431    3.2918    0.0000 C   0  0  0  0  0  0  0  0  0  0  0  0
   11.8910   -3.3545    0.0000 C   0  0  0  0  0  0  0  0  0  0  0  0
   12.7570   -3.8545    0.0000 C   0  0  0  0  0  0  0  0  0  0  0  0
    7.5608   -3.8545    0.0000 C   0  0  0  0  0  0  0  0  0  0  0  0
    9.2929   -3.8545    0.0000 C   0  0  0  0  0  0  0  0  0  0  0  0
    3.9021    4.5789    0.0000 C   0  0  0  0  0  0  0  0  0  0  0  0
    2.0000    3.9609    0.0000 C   0  0  0  0  0  0  0  0  0  0  0  0
    2.5352    2.3136    0.0000 C   0  0  0  0  0  0  0  0  0  0  0  0
    7.5608   -4.8545    0.0000 C   0  0  0  0  0  0  0  0  0  0  0  0
    9.2929   -4.8545    0.0000 C   0  0  0  0  0  0  0  0  0  0  0  0
   13.6230   -2.3545    0.0000 C   0  0  0  0  0  0  0  0  0  0  0  0
    8.4268   -5.3545    0.0000 C   0  0  0  0  0  0  0  0  0  0  0  0
   14.4890   -1.8545    0.0000 C   0  0  0  0  0  0  0  0  0  0  0  0
   12.7570   -5.8545    0.0000 C   0  0  0  0  0  0  0  0  0  0  0  0
   15.3551   -2.3545    0.0000 C   0  0  0  0  0  0  0  0  0  0  0  0
   16.2211   -1.8545    0.0000 C   0  0  0  0  0  0  0  0  0  0  0  0
   16.2211   -0.8545    0.0000 C   0  0  0  0  0  0  0  0  0  0  0  0
   17.0871   -2.3545    0.0000 C   0  0  0  0  0  0  0  0  0  0  0  0
   17.0871   -0.3545    0.0000 C   0  0  0  0  0  0  0  0  0  0  0  0
   17.9531   -1.8545    0.0000 C   0  0  0  0  0  0  0  0  0  0  0  0
   17.9531   -0.8545    0.0000 C   0  0  0  0  0  0  0  0  0  0  0  0
    7.5208    0.6209    0.0000 H   0  0  0  0  0  0  0  0  0  0  0  0
    7.9917    2.8009    0.0000 H   0  0  0  0  0  0  0  0  0  0  0  0
    7.3204    2.3132    0.0000 H   0  0  0  0  0  0  0  0  0  0  0  0
    9.5333    2.3132    0.0000 H   0  0  0  0  0  0  0  0  0  0  0  0
    8.8620    2.8009    0.0000 H   0  0  0  0  0  0  0  0  0  0  0  0
    9.5459    0.6963    0.0000 H   0  0  0  0  0  0  0  0  0  0  0  0
    9.8023    1.4854    0.0000 H   0  0  0  0  0  0  0  0  0  0  0  0
    9.2929   -0.2345    0.0000 H   0  0  0  0  0  0  0  0  0  0  0  0
    5.4333    0.8695    0.0000 H   0  0  0  0  0  0  0  0  0  0  0  0
    9.8298   -1.5445    0.0000 H   0  0  0  0  0  0  0  0  0  0  0  0
    6.0525    2.1998    0.0000 H   0  0  0  0  0  0  0  0  0  0  0  0
    4.6358   -0.3002    0.0000 H   0  0  0  0  0  0  0  0  0  0  0  0
    8.2148   -1.7719    0.0000 H   0  0  0  0  0  0  0  0  0  0  0  0
    7.8163   -2.4622    0.0000 H   0  0  0  0  0  0  0  0  0  0  0  0
    3.3250   -0.3845    0.0000 H   0  0  0  0  0  0  0  0  0  0  0  0
    4.1047   -0.5502    0.0000 H   0  0  0  0  0  0  0  0  0  0  0  0
   10.1589   -2.9745    0.0000 H   0  0  0  0  0  0  0  0  0  0  0  0
    5.0930   -0.8237    0.0000 H   0  0  0  0  0  0  0  0  0  0  0  0
    5.9686   -0.7778    0.0000 H   0  0  0  0  0  0  0  0  0  0  0  0
    5.9227    0.0978    0.0000 H   0  0  0  0  0  0  0  0  0  0  0  0
   10.1589    0.2655    0.0000 H   0  0  0  0  0  0  0  0  0  0  0  0
    5.0270    3.1232    0.0000 H   0  0  0  0  0  0  0  0  0  0  0  0
    3.5653    2.9943    0.0000 H   0  0  0  0  0  0  0  0  0  0  0  0
   12.4279   -2.6645    0.0000 H   0  0  0  0  0  0  0  0  0  0  0  0
    3.4853    1.1271    0.0000 H   0  0  0  0  0  0  0  0  0  0  0  0
    2.6097    1.0812    0.0000 H   0  0  0  0  0  0  0  0  0  0  0  0
    2.6556    0.2056    0.0000 H   0  0  0  0  0  0  0  0  0  0  0  0
    2.8721    3.8982    0.0000 H   0  0  0  0  0  0  0  0  0  0  0  0
   11.2804   -3.2468    0.0000 H   0  0  0  0  0  0  0  0  0  0  0  0
   11.6789   -3.9371    0.0000 H   0  0  0  0  0  0  0  0  0  0  0  0
   13.3676   -3.9622    0.0000 H   0  0  0  0  0  0  0  0  0  0  0  0
   12.9690   -3.2719    0.0000 H   0  0  0  0  0  0  0  0  0  0  0  0
    7.0239   -3.5445    0.0000 H   0  0  0  0  0  0  0  0  0  0  0  0
    9.8298   -3.5445    0.0000 H   0  0  0  0  0  0  0  0  0  0  0  0
   12.7570   -1.2345    0.0000 H   0  0  0  0  0  0  0  0  0  0  0  0
    2.4149    4.4216    0.0000 H   0  0  0  0  0  0  0  0  0  0  0  0
    1.5392    4.3758    0.0000 H   0  0  0  0  0  0  0  0  0  0  0  0
    1.5851    3.5001    0.0000 H   0  0  0  0  0  0  0  0  0  0  0  0
    1.9288    2.4425    0.0000 H   0  0  0  0  0  0  0  0  0  0  0  0
    2.4063    1.7072    0.0000 H   0  0  0  0  0  0  0  0  0  0  0  0
    3.1417    2.1847    0.0000 H   0  0  0  0  0  0  0  0  0  0  0  0
    7.0239   -5.1645    0.0000 H   0  0  0  0  0  0  0  0  0  0  0  0
    9.8298   -5.1645    0.0000 H   0  0  0  0  0  0  0  0  0  0  0  0
    8.4268   -5.9745    0.0000 H   0  0  0  0  0  0  0  0  0  0  0  0
   14.8876   -1.3796    0.0000 H   0  0  0  0  0  0  0  0  0  0  0  0
   14.0905   -1.3796    0.0000 H   0  0  0  0  0  0  0  0  0  0  0  0
    3.2879    5.8545    0.0000 H   0  0  0  0  0  0  0  0  0  0  0  0
    2.5693    5.0565    0.0000 H   0  0  0  0  0  0  0  0  0  0  0  0
   12.1370   -5.8545    0.0000 H   0  0  0  0  0  0  0  0  0  0  0  0
   12.7570   -6.4745    0.0000 H   0  0  0  0  0  0  0  0  0  0  0  0
   13.3770   -5.8545    0.0000 H   0  0  0  0  0  0  0  0  0  0  0  0
   14.9565   -2.8295    0.0000 H   0  0  0  0  0  0  0  0  0  0  0  0
   15.7536   -2.8295    0.0000 H   0  0  0  0  0  0  0  0  0  0  0  0
   15.6841   -0.5445    0.0000 H   0  0  0  0  0  0  0  0  0  0  0  0
   17.0871   -2.9745    0.0000 H   0  0  0  0  0  0  0  0  0  0  0  0
   17.0871    0.2655    0.0000 H   0  0  0  0  0  0  0  0  0  0  0  0
   18.4901   -2.1645    0.0000 H   0  0  0  0  0  0  0  0  0  0  0  0
   18.4901   -0.5445    0.0000 H   0  0  0  0  0  0  0  0  0  0  0  0
  1  8  2  0  0  0  0
  1  9  2  0  0  0  0
  1 38  1  0  0  0  0
  1 49  1  0  0  0  0
 23  2  1  1  0  0  0
  2 77  1  0  0  0  0
  3 21  2  0  0  0  0
  4 22  2  0  0  0  0
  5 29  2  0  0  0  0
  6 33  2  0  0  0  0
  7 41  2  0  0  0  0
 10 46  2  0  0  0  0
 11 17  1  0  0  0  0
 11 20  1  0  0  0  0
 11 22  1  0  0  0  0
 12 21  1  0  0  0  0
 24 12  1  1  0  0  0
 12 67  1  0  0  0  0
 25 13  1  1  0  0  0
 13 33  1  0  0  0  0
 13 73  1  0  0  0  0
 14 29  1  0  0  0  0
 32 14  1  1  0  0  0
 14 78  1  0  0  0  0
 34 15  1  1  0  0  0
 15 46  1  0  0  0  0
 15 91  1  0  0  0  0
 16 41  1  0  0  0  0
 16103  1  0  0  0  0
 16104  1  0  0  0  0
 17 18  1  0  0  0  0
 17 21  1  0  0  0  0
 17 57  1  0  0  0  0
 18 19  1  0  0  0  0
 18 58  1  0  0  0  0
 18 59  1  0  0  0  0
 19 20  1  0  0  0  0
 19 60  1  0  0  0  0
 19 61  1  0  0  0  0
 20 62  1  0  0  0  0
 20 63  1  0  0  0  0
 22 23  1  0  0  0  0
 23 25  1  0  0  0  0
 23 64  1  0  0  0  0
 24 26  1  0  0  0  0
 24 29  1  0  0  0  0
 24 65  1  0  0  0  0
 25 27  1  0  0  0  0
 25 66  1  0  0  0  0
 26 28  1  0  0  0  0
 26 30  1  6  0  0  0
 26 68  1  0  0  0  0
 27 31  1  0  0  0  0
 27 69  1  0  0  0  0
 27 70  1  0  0  0  0
 28 35  1  0  0  0  0
 28 71  1  0  0  0  0
 28 72  1  0  0  0  0
 30 74  1  0  0  0  0
 30 75  1  0  0  0  0
 30 76  1  0  0  0  0
 31 39  2  0  0  0  0
 31 40  1  0  0  0  0
 32 36  1  0  0  0  0
 32 41  1  0  0  0  0
 32 79  1  0  0  0  0
 33 34  1  0  0  0  0
 34 37  1  0  0  0  0
 34 80  1  0  0  0  0
 35 81  1  0  0  0  0
 35 82  1  0  0  0  0
 35 83  1  0  0  0  0
 36 42  1  0  0  0  0
 36 43  1  0  0  0  0
 36 84  1  0  0  0  0
 37 38  1  0  0  0  0
 37 85  1  0  0  0  0
 37 86  1  0  0  0  0
 38 87  1  0  0  0  0
 38 88  1  0  0  0  0
 39 44  1  0  0  0  0
 39 89  1  0  0  0  0
 40 45  2  0  0  0  0
 40 90  1  0  0  0  0
 42 92  1  0  0  0  0
 42 93  1  0  0  0  0
 42 94  1  0  0  0  0
 43 95  1  0  0  0  0
 43 96  1  0  0  0  0
 43 97  1  0  0  0  0
 44 47  2  0  0  0  0
 44 98  1  0  0  0  0
 45 47  1  0  0  0  0
 45 99  1  0  0  0  0
 46 48  1  0  0  0  0
 47100  1  0  0  0  0
 48 50  1  0  0  0  0
 48101  1  0  0  0  0
 48102  1  0  0  0  0
 49105  1  0  0  0  0
 49106  1  0  0  0  0
 49107  1  0  0  0  0
 50 51  1  0  0  0  0
 50108  1  0  0  0  0
 50109  1  0  0  0  0
 51 52  2  0  0  0  0
 51 53  1  0  0  0  0
 52 54  1  0  0  0  0
 52110  1  0  0  0  0
 53 55  2  0  0  0  0
 53111  1  0  0  0  0
 54 56  2  0  0  0  0
 54112  1  0  0  0  0
 55 56  1  0  0  0  0
 55113  1  0  0  0  0
 56114  1  0  0  0  0
M  END
> <PUBCHEM_COMPOUND_CID>
501771
> <PUBCHEM_COMPOUND_CANONICALIZED>
1
> <PUBCHEM_CACTVS_COMPLEXITY>
1440
> <PUBCHEM_CACTVS_HBOND_ACCEPTOR>
9
> <PUBCHEM_CACTVS_HBOND_DONOR>
6
> <PUBCHEM_CACTVS_ROTATABLE_BOND>
21
> <PUBCHEM_CACTVS_SUBSKEYS>
AAADcfB/vABAAAAAAAAAAAAAAAAAAWAAAAAwYAAAAAAAAAABQAAAHgQQCAAADTzl2AayAIPAAgqIAiFSEHJCAAAgABAIiIHIAIgKcDqg0TGUYAAklgCYiAeYyaCOAAAAAAAAAAAAAAAAAAAAAAAAAAAAAA==
> <PUBCHEM_IUPAC_OPENEYE_NAME>
N-[(1S,2R)-1-[[(1S)-1-carbamoyl-2-methyl-propyl]carbamoyl]-2-methyl-butyl]-1-[(2S,3S)-2-hydroxy-3-[[(2S)-4-methylsulfonyl-2-(3-phenylpropanoylamino)butanoyl]amino]-4-phenyl-butanoyl]pyrrolidine-2-carboxamide
> <PUBCHEM_IUPAC_CAS_NAME>
N-[(2S,3R)-1-[[(2S)-1-amino-3-methyl-1-oxobutan-2-yl]amino]-3-methyl-1-oxopentan-2-yl]-1-[(2S,3S)-2-hydroxy-3-[[(2S)-4-methylsulfonyl-1-oxo-2-[(1-oxo-3-phenylpropyl)amino]butyl]amino]-1-oxo-4-phenylbutyl]-2-pyrrolidinecarboxamide
> <PUBCHEM_IUPAC_NAME_MARKUP>
<I>N</I>-[(2<I>S</I>,3<I>R</I>)-1-[[(2<I>S</I>)-1-amino-3-methyl-1-oxobutan-2-yl]amino]-3-methyl-1-oxopentan-2-yl]-1-[(2<I>S</I>,3<I>S</I>)-2-hydroxy-3-[[(2<I>S</I>)-4-methylsulfonyl-2-(3-phenylpropanoylamino)butanoyl]amino]-4-phenylbutanoyl]pyrrolidine-2-carboxamide
> <PUBCHEM_IUPAC_NAME>
N-[(2S,3R)-1-[[(2S)-1-amino-3-methyl-1-oxobutan-2-yl]amino]-3-methyl-1-oxopentan-2-yl]-1-[(2S,3S)-2-hydroxy-3-[[(2S)-4-methylsulfonyl-2-(3-phenylpropanoylamino)butanoyl]amino]-4-phenylbutanoyl]pyrrolidine-2-carboxamide
> <PUBCHEM_IUPAC_SYSTEMATIC_NAME>
N-[(2S,3R)-1-[[(2S)-1-azanyl-3-methyl-1-oxidanylidene-butan-2-yl]amino]-3-methyl-1-oxidanylidene-pentan-2-yl]-1-[(2S,3S)-3-[[(2S)-4-methylsulfonyl-2-(3-phenylpropanoylamino)butanoyl]amino]-2-oxidanyl-4-phenyl-butanoyl]pyrrolidine-2-carboxamide
> <PUBCHEM_IUPAC_TRADITIONAL_NAME>
N-[(1S,2R)-1-[[(1S)-1-carbamoyl-2-methyl-propyl]carbamoyl]-2-methyl-butyl]-1-[(2S,3S)-3-[[(2S)-2-(hydrocinnamoylamino)-4-mesyl-butanoyl]amino]-2-hydroxy-4-phenyl-butanoyl]pyrrolidine-2-carboxamide
> <PUBCHEM_IUPAC_INCHI>
InChI=1S/C40H58N6O9S/c1-6-26(4)34(39(52)44-33(25(2)3)36(41)49)45-38(51)31-18-13-22-46(31)40(53)35(48)30(24-28-16-11-8-12-17-28)43-37(50)29(21-23-56(5,54)55)42-32(47)20-19-27-14-9-7-10-15-27/h7-12,14-17,25-26,29-31,33-35,48H,6,13,18-24H2,1-5H3,(H2,41,49)(H,42,47)(H,43,50)(H,44,52)(H,45,51)/t26-,29+,30+,31?,33+,34+,35+/m1/s1
> <PUBCHEM_IUPAC_INCHIKEY>
ZCCYEOLVSCWJGI-QLVYJGSMSA-N
> <PUBCHEM_XLOGP3_AA>
2.7
> <PUBCHEM_EXACT_MASS>
798.39859862
> <PUBCHEM_MOLECULAR_FORMULA>
C40H58N6O9S
> <PUBCHEM_MOLECULAR_WEIGHT>
799.0
> <PUBCHEM_OPENEYE_CAN_SMILES>
CCC(C)C(C(=O)NC(C(C)C)C(=O)N)NC(=O)C1CCCN1C(=O)C(C(CC2=CC=CC=C2)NC(=O)C(CCS(=O)(=O)C)NC(=O)CCC3=CC=CC=C3)O
> <PUBCHEM_OPENEYE_ISO_SMILES>
CC[C@@H](C)[C@@H](C(=O)N[C@@H](C(C)C)C(=O)N)NC(=O)C1CCCN1C(=O)[C@H]([C@H](CC2=CC=CC=C2)NC(=O)[C@H](CCS(=O)(=O)C)NC(=O)CCC3=CC=CC=C3)O
> <PUBCHEM_CACTVS_TPSA>
243
> <PUBCHEM_MONOISOTOPIC_WEIGHT>
798.39859862
> <PUBCHEM_TOTAL_CHARGE>
0
> <PUBCHEM_HEAVY_ATOM_COUNT>
56
> <PUBCHEM_ATOM_DEF_STEREO_COUNT>
6
> <PUBCHEM_ATOM_UDEF_STEREO_COUNT>
1
> <PUBCHEM_BOND_DEF_STEREO_COUNT>
0
> <PUBCHEM_BOND_UDEF_STEREO_COUNT>
0
> <PUBCHEM_ISOTOPIC_ATOM_COUNT>
0
> <PUBCHEM_COMPONENT_COUNT>
1
> <PUBCHEM_CACTVS_TAUTO_COUNT>
-1
> <PUBCHEM_COORDINATE_TYPE>
1
5
255
> <PUBCHEM_BONDANNOTATIONS>
24  12  5
25  13  5
32  14  5
34  15  5
17  21  3
23  2  5
26  30  6
31  39  8
31  40  8
39  44  8
40  45  8
44  47  8
45  47  8
51  52  8
51  53  8
52  54  8
53  55  8
54  56  8
55  56  8
$$$$
