501779
  -OEChem-10302200282D
 76 79  0     1  0  0  0  0  0999 V2000
    3.5134    1.3006    0.0000 O   0  0  0  0  0  0  0  0  0  0  0  0
    7.2134    1.0000    0.0000 O   0  0  0  0  0  0  0  0  0  0  0  0
    4.6153    0.5000    0.0000 O   0  0  0  0  0  0  0  0  0  0  0  0
    8.0794    0.5000    0.0000 O   0  0  0  0  0  0  0  0  0  0  0  0
   10.6775    1.0000    0.0000 O   0  0  0  0  0  0  0  0  0  0  0  0
   10.6775   -2.0000    0.0000 O   0  0  0  0  0  0  0  0  0  0  0  0
    8.9455    1.0000    0.0000 O   0  0  0  0  0  0  0  0  0  0  0  0
    5.4814    2.0000    0.0000 N   0  0  0  0  0  0  0  0  0  0  0  0
    2.9782    2.9479    0.0000 N   0  0  0  0  0  0  0  0  0  0  0  0
    7.2134   -1.0000    0.0000 N   0  0  0  0  0  0  0  0  0  0  0  0
    9.8115   -0.5000    0.0000 N   0  0  0  0  0  0  0  0  0  0  0  0
    9.8115   -3.5000    0.0000 N   0  0  0  0  0  0  0  0  0  0  0  0
    4.6724    2.5878    0.0000 C   0  0  1  0  0  0  0  0  0  0  0  0
    4.9814    3.5388    0.0000 C   0  0  0  0  0  0  0  0  0  0  0  0
    5.9814    3.5388    0.0000 C   0  0  0  0  0  0  0  0  0  0  0  0
    6.2904    2.5878    0.0000 C   0  0  0  0  0  0  0  0  0  0  0  0
    3.7213    2.2788    0.0000 C   0  0  0  0  0  0  0  0  0  0  0  0
    2.0000    3.1558    0.0000 C   0  0  0  0  0  0  0  0  0  0  0  0
    2.6691    3.8990    0.0000 C   0  0  0  0  0  0  0  0  0  0  0  0
    5.4814    1.0000    0.0000 C   0  0  0  0  0  0  0  0  0  0  0  0
    6.3474    0.5000    0.0000 C   0  0  2  0  0  0  0  0  0  0  0  0
    6.3474   -0.5000    0.0000 C   0  0  2  0  0  0  0  0  0  0  0  0
    5.4814   -1.0000    0.0000 C   0  0  0  0  0  0  0  0  0  0  0  0
    5.4814   -2.0000    0.0000 C   0  0  0  0  0  0  0  0  0  0  0  0
    8.0794   -0.5000    0.0000 C   0  0  0  0  0  0  0  0  0  0  0  0
    8.9455   -1.0000    0.0000 C   0  0  2  0  0  0  0  0  0  0  0  0
    6.3474   -2.5000    0.0000 C   0  0  0  0  0  0  0  0  0  0  0  0
    4.6153   -2.5000    0.0000 C   0  0  0  0  0  0  0  0  0  0  0  0
    8.9455   -2.0000    0.0000 C   0  0  0  0  0  0  0  0  0  0  0  0
    6.3474   -3.5000    0.0000 C   0  0  0  0  0  0  0  0  0  0  0  0
    4.6153   -3.5000    0.0000 C   0  0  0  0  0  0  0  0  0  0  0  0
    5.4814   -4.0000    0.0000 C   0  0  0  0  0  0  0  0  0  0  0  0
    9.8115   -2.5000    0.0000 C   0  0  0  0  0  0  0  0  0  0  0  0
    9.8115    0.5000    0.0000 C   0  0  0  0  0  0  0  0  0  0  0  0
   10.6775    2.0000    0.0000 C   0  0  0  0  0  0  0  0  0  0  0  0
   11.5435    2.5000    0.0000 C   0  0  0  0  0  0  0  0  0  0  0  0
   12.4096    2.0000    0.0000 C   0  0  0  0  0  0  0  0  0  0  0  0
   11.5435    3.5000    0.0000 C   0  0  0  0  0  0  0  0  0  0  0  0
   13.2756    2.5000    0.0000 C   0  0  0  0  0  0  0  0  0  0  0  0
   12.4096    4.0000    0.0000 C   0  0  0  0  0  0  0  0  0  0  0  0
   13.2756    3.5000    0.0000 C   0  0  0  0  0  0  0  0  0  0  0  0
    4.5754    1.9754    0.0000 H   0  0  0  0  0  0  0  0  0  0  0  0
    5.0462    4.1554    0.0000 H   0  0  0  0  0  0  0  0  0  0  0  0
    4.3749    3.6678    0.0000 H   0  0  0  0  0  0  0  0  0  0  0  0
    6.5878    3.6678    0.0000 H   0  0  0  0  0  0  0  0  0  0  0  0
    5.9166    4.1554    0.0000 H   0  0  0  0  0  0  0  0  0  0  0  0
    6.6004    2.0508    0.0000 H   0  0  0  0  0  0  0  0  0  0  0  0
    6.8568    2.8400    0.0000 H   0  0  0  0  0  0  0  0  0  0  0  0
    1.4742    3.4844    0.0000 H   0  0  0  0  0  0  0  0  0  0  0  0
    1.7677    2.5810    0.0000 H   0  0  0  0  0  0  0  0  0  0  0  0
    3.2166    4.1900    0.0000 H   0  0  0  0  0  0  0  0  0  0  0  0
    2.2874    4.3875    0.0000 H   0  0  0  0  0  0  0  0  0  0  0  0
    6.3474    1.1200    0.0000 H   0  0  0  0  0  0  0  0  0  0  0  0
    6.8843   -0.1900    0.0000 H   0  0  0  0  0  0  0  0  0  0  0  0
    5.2693   -0.4174    0.0000 H   0  0  0  0  0  0  0  0  0  0  0  0
    4.8708   -1.1077    0.0000 H   0  0  0  0  0  0  0  0  0  0  0  0
    7.2134   -1.6200    0.0000 H   0  0  0  0  0  0  0  0  0  0  0  0
    7.2134    1.6200    0.0000 H   0  0  0  0  0  0  0  0  0  0  0  0
    9.4824   -1.3100    0.0000 H   0  0  0  0  0  0  0  0  0  0  0  0
    6.8843   -2.1900    0.0000 H   0  0  0  0  0  0  0  0  0  0  0  0
    4.0784   -2.1900    0.0000 H   0  0  0  0  0  0  0  0  0  0  0  0
    8.3349   -1.8923    0.0000 H   0  0  0  0  0  0  0  0  0  0  0  0
    8.7334   -2.5826    0.0000 H   0  0  0  0  0  0  0  0  0  0  0  0
   10.3484   -0.8100    0.0000 H   0  0  0  0  0  0  0  0  0  0  0  0
    6.8843   -3.8100    0.0000 H   0  0  0  0  0  0  0  0  0  0  0  0
    4.0784   -3.8100    0.0000 H   0  0  0  0  0  0  0  0  0  0  0  0
    5.4814   -4.6200    0.0000 H   0  0  0  0  0  0  0  0  0  0  0  0
   10.3484   -3.8100    0.0000 H   0  0  0  0  0  0  0  0  0  0  0  0
    9.2746   -3.8100    0.0000 H   0  0  0  0  0  0  0  0  0  0  0  0
   10.4655    2.5826    0.0000 H   0  0  0  0  0  0  0  0  0  0  0  0
   10.0669    1.8923    0.0000 H   0  0  0  0  0  0  0  0  0  0  0  0
   12.4096    1.3800    0.0000 H   0  0  0  0  0  0  0  0  0  0  0  0
   11.0066    3.8100    0.0000 H   0  0  0  0  0  0  0  0  0  0  0  0
   13.8125    2.1900    0.0000 H   0  0  0  0  0  0  0  0  0  0  0  0
   12.4096    4.6200    0.0000 H   0  0  0  0  0  0  0  0  0  0  0  0
   13.8125    3.8100    0.0000 H   0  0  0  0  0  0  0  0  0  0  0  0
  1 17  2  0  0  0  0
 21  2  1  1  0  0  0
  2 58  1  0  0  0  0
  3 20  2  0  0  0  0
  4 25  2  0  0  0  0
  5 34  1  0  0  0  0
  5 35  1  0  0  0  0
  6 33  2  0  0  0  0
  7 34  2  0  0  0  0
  8 13  1  0  0  0  0
  8 16  1  0  0  0  0
  8 20  1  0  0  0  0
  9 17  1  0  0  0  0
  9 18  1  0  0  0  0
  9 19  1  0  0  0  0
 22 10  1  1  0  0  0
 10 25  1  0  0  0  0
 10 57  1  0  0  0  0
 26 11  1  1  0  0  0
 11 34  1  0  0  0  0
 11 64  1  0  0  0  0
 12 33  1  0  0  0  0
 12 68  1  0  0  0  0
 12 69  1  0  0  0  0
 13 14  1  0  0  0  0
 13 17  1  6  0  0  0
 13 42  1  0  0  0  0
 14 15  1  0  0  0  0
 14 43  1  0  0  0  0
 14 44  1  0  0  0  0
 15 16  1  0  0  0  0
 15 45  1  0  0  0  0
 15 46  1  0  0  0  0
 16 47  1  0  0  0  0
 16 48  1  0  0  0  0
 18 19  1  0  0  0  0
 18 49  1  0  0  0  0
 18 50  1  0  0  0  0
 19 51  1  0  0  0  0
 19 52  1  0  0  0  0
 20 21  1  0  0  0  0
 21 22  1  0  0  0  0
 21 53  1  0  0  0  0
 22 23  1  0  0  0  0
 22 54  1  0  0  0  0
 23 24  1  0  0  0  0
 23 55  1  0  0  0  0
 23 56  1  0  0  0  0
 24 27  2  0  0  0  0
 24 28  1  0  0  0  0
 25 26  1  0  0  0  0
 26 29  1  0  0  0  0
 26 59  1  0  0  0  0
 27 30  1  0  0  0  0
 27 60  1  0  0  0  0
 28 31  2  0  0  0  0
 28 61  1  0  0  0  0
 29 33  1  0  0  0  0
 29 62  1  0  0  0  0
 29 63  1  0  0  0  0
 30 32  2  0  0  0  0
 30 65  1  0  0  0  0
 31 32  1  0  0  0  0
 31 66  1  0  0  0  0
 32 67  1  0  0  0  0
 35 36  1  0  0  0  0
 35 70  1  0  0  0  0
 35 71  1  0  0  0  0
 36 37  2  0  0  0  0
 36 38  1  0  0  0  0
 37 39  1  0  0  0  0
 37 72  1  0  0  0  0
 38 40  2  0  0  0  0
 38 73  1  0  0  0  0
 39 41  2  0  0  0  0
 39 74  1  0  0  0  0
 40 41  1  0  0  0  0
 40 75  1  0  0  0  0
 41 76  1  0  0  0  0
M  END
> <PUBCHEM_COMPOUND_CID>
501779
> <PUBCHEM_COMPOUND_CANONICALIZED>
1
> <PUBCHEM_CACTVS_COMPLEXITY>
946
> <PUBCHEM_CACTVS_HBOND_ACCEPTOR>
7
> <PUBCHEM_CACTVS_HBOND_DONOR>
4
> <PUBCHEM_CACTVS_ROTATABLE_BOND>
13
> <PUBCHEM_CACTVS_SUBSKEYS>
AAADcfB7uAAAAAAAAAAAAAAAFgAAAWAAAAAwYAAAAAAAAAABQAAAHgAQCAAADDzhmAYwCIPABgCIAiFSGAICAAAgAAAIiIHICIkKdjqA8TmccAAk1gGYqAedyaCOAAAAAAAAAAAAAAAAAAAAAAAAAAAAAA==
> <PUBCHEM_IUPAC_OPENEYE_NAME>
benzyl N-[(1S)-3-amino-1-[[(1S,2S)-3-[(2S)-2-(aziridine-1-carbonyl)pyrrolidin-1-yl]-1-benzyl-2-hydroxy-3-oxo-propyl]carbamoyl]-3-oxo-propyl]carbamate
> <PUBCHEM_IUPAC_CAS_NAME>
N-[(2S)-4-amino-1-[[(2S,3S)-4-[(2S)-2-[1-aziridinyl(oxo)methyl]-1-pyrrolidinyl]-3-hydroxy-4-oxo-1-phenylbutan-2-yl]amino]-1,4-dioxobutan-2-yl]carbamic acid (phenylmethyl) ester
> <PUBCHEM_IUPAC_NAME_MARKUP>
benzyl <I>N</I>-[(2<I>S</I>)-4-amino-1-[[(2<I>S</I>,3<I>S</I>)-4-[(2<I>S</I>)-2-(aziridine-1-carbonyl)pyrrolidin-1-yl]-3-hydroxy-4-oxo-1-phenylbutan-2-yl]amino]-1,4-dioxobutan-2-yl]carbamate
> <PUBCHEM_IUPAC_NAME>
benzyl N-[(2S)-4-amino-1-[[(2S,3S)-4-[(2S)-2-(aziridine-1-carbonyl)pyrrolidin-1-yl]-3-hydroxy-4-oxo-1-phenylbutan-2-yl]amino]-1,4-dioxobutan-2-yl]carbamate
> <PUBCHEM_IUPAC_SYSTEMATIC_NAME>
(phenylmethyl) N-[(2S)-4-azanyl-1-[[(2S,3S)-4-[(2S)-2-(aziridin-1-ylcarbonyl)pyrrolidin-1-yl]-3-oxidanyl-4-oxidanylidene-1-phenyl-butan-2-yl]amino]-1,4-bis(oxidanylidene)butan-2-yl]carbamate
> <PUBCHEM_IUPAC_TRADITIONAL_NAME>
N-[(1S)-3-amino-1-[[(1S,2S)-1-benzyl-3-[(2S)-2-(ethylenimine-1-carbonyl)pyrrolidino]-2-hydroxy-3-keto-propyl]carbamoyl]-3-keto-propyl]carbamic acid benzyl ester
> <PUBCHEM_IUPAC_INCHI>
InChI=1S/C29H35N5O7/c30-24(35)17-22(32-29(40)41-18-20-10-5-2-6-11-20)26(37)31-21(16-19-8-3-1-4-9-19)25(36)28(39)34-13-7-12-23(34)27(38)33-14-15-33/h1-6,8-11,21-23,25,36H,7,12-18H2,(H2,30,35)(H,31,37)(H,32,40)/t21-,22-,23-,25-/m0/s1
> <PUBCHEM_IUPAC_INCHIKEY>
LCEZNSCSBANCNB-LCXINAFSSA-N
> <PUBCHEM_XLOGP3_AA>
0.4
> <PUBCHEM_EXACT_MASS>
565.25364847
> <PUBCHEM_MOLECULAR_FORMULA>
C29H35N5O7
> <PUBCHEM_MOLECULAR_WEIGHT>
565.6
> <PUBCHEM_OPENEYE_CAN_SMILES>
C1CC(N(C1)C(=O)C(C(CC2=CC=CC=C2)NC(=O)C(CC(=O)N)NC(=O)OCC3=CC=CC=C3)O)C(=O)N4CC4
> <PUBCHEM_OPENEYE_ISO_SMILES>
C1C[C@H](N(C1)C(=O)[C@H]([C@H](CC2=CC=CC=C2)NC(=O)[C@H](CC(=O)N)NC(=O)OCC3=CC=CC=C3)O)C(=O)N4CC4
> <PUBCHEM_CACTVS_TPSA>
171
> <PUBCHEM_MONOISOTOPIC_WEIGHT>
565.25364847
> <PUBCHEM_TOTAL_CHARGE>
0
> <PUBCHEM_HEAVY_ATOM_COUNT>
41
> <PUBCHEM_ATOM_DEF_STEREO_COUNT>
4
> <PUBCHEM_ATOM_UDEF_STEREO_COUNT>
0
> <PUBCHEM_BOND_DEF_STEREO_COUNT>
0
> <PUBCHEM_BOND_UDEF_STEREO_COUNT>
0
> <PUBCHEM_ISOTOPIC_ATOM_COUNT>
0
> <PUBCHEM_COMPONENT_COUNT>
1
> <PUBCHEM_CACTVS_TAUTO_COUNT>
-1
> <PUBCHEM_COORDINATE_TYPE>
1
5
255
> <PUBCHEM_BONDANNOTATIONS>
22  10  5
26  11  5
13  17  6
21  2  5
24  27  8
24  28  8
27  30  8
28  31  8
30  32  8
31  32  8
36  37  8
36  38  8
37  39  8
38  40  8
39  41  8
40  41  8
$$$$
