501783
  -OEChem-10302200282D
101105  0     1  0  0  0  0  0999 V2000
   10.5895    1.9118    0.0000 O   0  0  0  0  0  0  0  0  0  0  0  0
    8.8575   -0.0882    0.0000 O   0  0  0  0  0  0  0  0  0  0  0  0
    8.9999   -1.4428    0.0000 O   0  0  0  0  0  0  0  0  0  0  0  0
    7.1254    2.9118    0.0000 O   0  0  0  0  0  0  0  0  0  0  0  0
    5.3934   -1.0882    0.0000 O   0  0  0  0  0  0  0  0  0  0  0  0
    4.5274    0.4118    0.0000 O   0  0  0  0  0  0  0  0  0  0  0  0
    6.2594    3.4118    0.0000 O   0  0  0  0  0  0  0  0  0  0  0  0
   10.5895   -0.0882    0.0000 N   0  0  0  0  0  0  0  0  0  0  0  0
    7.9915    1.4118    0.0000 N   0  0  0  0  0  0  0  0  0  0  0  0
   10.1588   -2.7300    0.0000 N   0  0  0  0  0  0  0  0  0  0  0  0
    6.2594    0.4118    0.0000 N   0  0  0  0  0  0  0  0  0  0  0  0
    4.5274    3.4118    0.0000 N   0  0  0  0  0  0  0  0  0  0  0  0
    9.7235    3.4118    0.0000 C   0  0  0  0  0  0  0  0  0  0  0  0
    8.8575    2.9118    0.0000 C   0  0  0  0  0  0  0  0  0  0  0  0
    9.7235    4.4118    0.0000 C   0  0  0  0  0  0  0  0  0  0  0  0
   10.5895    2.9118    0.0000 C   0  0  0  0  0  0  0  0  0  0  0  0
    8.8575    1.9118    0.0000 C   0  0  1  0  0  0  0  0  0  0  0  0
   10.5895    4.9118    0.0000 C   0  0  0  0  0  0  0  0  0  0  0  0
   11.4556    3.4118    0.0000 C   0  0  0  0  0  0  0  0  0  0  0  0
   11.4556    4.4118    0.0000 C   0  0  0  0  0  0  0  0  0  0  0  0
    9.7235    1.4118    0.0000 C   0  0  1  0  0  0  0  0  0  0  0  0
   10.6941   -1.0827    0.0000 C   0  0  1  0  0  0  0  0  0  0  0  0
   11.6722   -1.2906    0.0000 C   0  0  0  0  0  0  0  0  0  0  0  0
   11.5031    0.3185    0.0000 C   0  0  0  0  0  0  0  0  0  0  0  0
    9.7235    0.4118    0.0000 C   0  0  0  0  0  0  0  0  0  0  0  0
   12.1722   -0.4246    0.0000 C   0  0  0  0  0  0  0  0  0  0  0  0
    9.9509   -1.7519    0.0000 C   0  0  0  0  0  0  0  0  0  0  0  0
    7.1254    1.9118    0.0000 C   0  0  0  0  0  0  0  0  0  0  0  0
    6.2594    1.4118    0.0000 C   0  0  2  0  0  0  0  0  0  0  0  0
   11.1099   -3.0390    0.0000 C   0  0  0  0  0  0  0  0  0  0  0  0
    5.3934    1.9118    0.0000 C   0  0  0  0  0  0  0  0  0  0  0  0
   12.0609   -3.3480    0.0000 C   0  0  0  0  0  0  0  0  0  0  0  0
   10.8009   -3.9901    0.0000 C   0  0  0  0  0  0  0  0  0  0  0  0
   11.4189   -2.0880    0.0000 C   0  0  0  0  0  0  0  0  0  0  0  0
    4.5274   -2.5882    0.0000 C   0  0  0  0  0  0  0  0  0  0  0  0
    5.3364   -3.1760    0.0000 C   0  0  0  0  0  0  0  0  0  0  0  0
    3.7183   -3.1760    0.0000 C   0  0  0  0  0  0  0  0  0  0  0  0
    4.5274   -1.5882    0.0000 C   0  0  0  0  0  0  0  0  0  0  0  0
    5.0274   -4.1270    0.0000 C   0  0  0  0  0  0  0  0  0  0  0  0
    4.0274   -4.1270    0.0000 C   0  0  0  0  0  0  0  0  0  0  0  0
    5.3934   -0.0882    0.0000 C   0  0  0  0  0  0  0  0  0  0  0  0
    5.3934    2.9118    0.0000 C   0  0  0  0  0  0  0  0  0  0  0  0
    6.3518   -2.9438    0.0000 C   0  0  0  0  0  0  0  0  0  0  0  0
    2.7029   -2.9438    0.0000 C   0  0  0  0  0  0  0  0  0  0  0  0
    5.7123   -4.9118    0.0000 C   0  0  0  0  0  0  0  0  0  0  0  0
    3.3424   -4.9118    0.0000 C   0  0  0  0  0  0  0  0  0  0  0  0
    7.0547   -3.7124    0.0000 C   0  0  0  0  0  0  0  0  0  0  0  0
    2.0000   -3.7124    0.0000 C   0  0  0  0  0  0  0  0  0  0  0  0
    6.7328   -4.7031    0.0000 C   0  0  0  0  0  0  0  0  0  0  0  0
    2.3219   -4.7031    0.0000 C   0  0  0  0  0  0  0  0  0  0  0  0
    9.1866    3.7218    0.0000 H   0  0  0  0  0  0  0  0  0  0  0  0
    8.6454    3.4944    0.0000 H   0  0  0  0  0  0  0  0  0  0  0  0
    8.2469    2.8041    0.0000 H   0  0  0  0  0  0  0  0  0  0  0  0
    9.5115    4.9944    0.0000 H   0  0  0  0  0  0  0  0  0  0  0  0
    9.1129    4.3041    0.0000 H   0  0  0  0  0  0  0  0  0  0  0  0
   10.1910    2.4368    0.0000 H   0  0  0  0  0  0  0  0  0  0  0  0
   10.9881    2.4368    0.0000 H   0  0  0  0  0  0  0  0  0  0  0  0
    8.3206    2.2218    0.0000 H   0  0  0  0  0  0  0  0  0  0  0  0
   10.9881    5.3867    0.0000 H   0  0  0  0  0  0  0  0  0  0  0  0
   10.1910    5.3867    0.0000 H   0  0  0  0  0  0  0  0  0  0  0  0
   11.6676    2.8292    0.0000 H   0  0  0  0  0  0  0  0  0  0  0  0
   12.0661    3.5194    0.0000 H   0  0  0  0  0  0  0  0  0  0  0  0
   12.0661    4.3041    0.0000 H   0  0  0  0  0  0  0  0  0  0  0  0
   11.6676    4.9944    0.0000 H   0  0  0  0  0  0  0  0  0  0  0  0
    9.7235    2.0318    0.0000 H   0  0  0  0  0  0  0  0  0  0  0  0
   10.1152   -0.8605    0.0000 H   0  0  0  0  0  0  0  0  0  0  0  0
   11.4806   -1.8803    0.0000 H   0  0  0  0  0  0  0  0  0  0  0  0
   12.2386   -1.5428    0.0000 H   0  0  0  0  0  0  0  0  0  0  0  0
   12.0047    0.6830    0.0000 H   0  0  0  0  0  0  0  0  0  0  0  0
   11.1931    0.8555    0.0000 H   0  0  0  0  0  0  0  0  0  0  0  0
   12.6738   -0.7890    0.0000 H   0  0  0  0  0  0  0  0  0  0  0  0
   12.5871    0.0361    0.0000 H   0  0  0  0  0  0  0  0  0  0  0  0
    7.9915    0.7918    0.0000 H   0  0  0  0  0  0  0  0  0  0  0  0
   11.1265    1.6018    0.0000 H   0  0  0  0  0  0  0  0  0  0  0  0
    9.6981   -3.1449    0.0000 H   0  0  0  0  0  0  0  0  0  0  0  0
    6.7964    1.1018    0.0000 H   0  0  0  0  0  0  0  0  0  0  0  0
    4.7828    2.0194    0.0000 H   0  0  0  0  0  0  0  0  0  0  0  0
    5.1813    1.3292    0.0000 H   0  0  0  0  0  0  0  0  0  0  0  0
   11.8694   -3.9377    0.0000 H   0  0  0  0  0  0  0  0  0  0  0  0
   12.6506   -3.5396    0.0000 H   0  0  0  0  0  0  0  0  0  0  0  0
   12.2525   -2.7584    0.0000 H   0  0  0  0  0  0  0  0  0  0  0  0
   10.2112   -3.7985    0.0000 H   0  0  0  0  0  0  0  0  0  0  0  0
   10.6093   -4.5797    0.0000 H   0  0  0  0  0  0  0  0  0  0  0  0
   11.3905   -4.1817    0.0000 H   0  0  0  0  0  0  0  0  0  0  0  0
   12.0086   -2.2796    0.0000 H   0  0  0  0  0  0  0  0  0  0  0  0
   11.6105   -1.4983    0.0000 H   0  0  0  0  0  0  0  0  0  0  0  0
   10.8293   -1.8964    0.0000 H   0  0  0  0  0  0  0  0  0  0  0  0
    6.7964    0.1018    0.0000 H   0  0  0  0  0  0  0  0  0  0  0  0
    5.0798   -2.3067    0.0000 H   0  0  0  0  0  0  0  0  0  0  0  0
    4.3153   -1.0056    0.0000 H   0  0  0  0  0  0  0  0  0  0  0  0
    3.9168   -1.6959    0.0000 H   0  0  0  0  0  0  0  0  0  0  0  0
    6.5365   -2.3519    0.0000 H   0  0  0  0  0  0  0  0  0  0  0  0
    2.5182   -2.3519    0.0000 H   0  0  0  0  0  0  0  0  0  0  0  0
    5.5139   -5.4992    0.0000 H   0  0  0  0  0  0  0  0  0  0  0  0
    3.5408   -5.4992    0.0000 H   0  0  0  0  0  0  0  0  0  0  0  0
    7.6607   -3.5812    0.0000 H   0  0  0  0  0  0  0  0  0  0  0  0
    1.3940   -3.5812    0.0000 H   0  0  0  0  0  0  0  0  0  0  0  0
    7.1459   -5.1654    0.0000 H   0  0  0  0  0  0  0  0  0  0  0  0
    1.9088   -5.1654    0.0000 H   0  0  0  0  0  0  0  0  0  0  0  0
    4.5274    4.0318    0.0000 H   0  0  0  0  0  0  0  0  0  0  0  0
    3.9904    3.1018    0.0000 H   0  0  0  0  0  0  0  0  0  0  0  0
 21  1  1  6  0  0  0
  1 74  1  0  0  0  0
  2 25  2  0  0  0  0
  3 27  2  0  0  0  0
  4 28  2  0  0  0  0
  5 38  1  0  0  0  0
  5 41  1  0  0  0  0
  6 41  2  0  0  0  0
  7 42  2  0  0  0  0
  8 22  1  0  0  0  0
  8 24  1  0  0  0  0
  8 25  1  0  0  0  0
 17  9  1  1  0  0  0
  9 28  1  0  0  0  0
  9 73  1  0  0  0  0
 10 27  1  0  0  0  0
 10 30  1  0  0  0  0
 10 75  1  0  0  0  0
 29 11  1  1  0  0  0
 11 41  1  0  0  0  0
 11 88  1  0  0  0  0
 12 42  1  0  0  0  0
 12100  1  0  0  0  0
 12101  1  0  0  0  0
 13 14  1  0  0  0  0
 13 15  1  0  0  0  0
 13 16  1  0  0  0  0
 13 51  1  0  0  0  0
 14 17  1  0  0  0  0
 14 52  1  0  0  0  0
 14 53  1  0  0  0  0
 15 18  1  0  0  0  0
 15 54  1  0  0  0  0
 15 55  1  0  0  0  0
 16 19  1  0  0  0  0
 16 56  1  0  0  0  0
 16 57  1  0  0  0  0
 17 21  1  0  0  0  0
 17 58  1  0  0  0  0
 18 20  1  0  0  0  0
 18 59  1  0  0  0  0
 18 60  1  0  0  0  0
 19 20  1  0  0  0  0
 19 61  1  0  0  0  0
 19 62  1  0  0  0  0
 20 63  1  0  0  0  0
 20 64  1  0  0  0  0
 21 25  1  0  0  0  0
 21 65  1  0  0  0  0
 22 23  1  0  0  0  0
 22 27  1  1  0  0  0
 22 66  1  0  0  0  0
 23 26  1  0  0  0  0
 23 67  1  0  0  0  0
 23 68  1  0  0  0  0
 24 26  1  0  0  0  0
 24 69  1  0  0  0  0
 24 70  1  0  0  0  0
 26 71  1  0  0  0  0
 26 72  1  0  0  0  0
 28 29  1  0  0  0  0
 29 31  1  0  0  0  0
 29 76  1  0  0  0  0
 30 32  1  0  0  0  0
 30 33  1  0  0  0  0
 30 34  1  0  0  0  0
 31 42  1  0  0  0  0
 31 77  1  0  0  0  0
 31 78  1  0  0  0  0
 32 79  1  0  0  0  0
 32 80  1  0  0  0  0
 32 81  1  0  0  0  0
 33 82  1  0  0  0  0
 33 83  1  0  0  0  0
 33 84  1  0  0  0  0
 34 85  1  0  0  0  0
 34 86  1  0  0  0  0
 34 87  1  0  0  0  0
 35 36  1  0  0  0  0
 35 37  1  0  0  0  0
 35 38  1  0  0  0  0
 35 89  1  0  0  0  0
 36 39  1  0  0  0  0
 36 43  2  0  0  0  0
 37 40  1  0  0  0  0
 37 44  2  0  0  0  0
 38 90  1  0  0  0  0
 38 91  1  0  0  0  0
 39 40  1  0  0  0  0
 39 45  2  0  0  0  0
 40 46  2  0  0  0  0
 43 47  1  0  0  0  0
 43 92  1  0  0  0  0
 44 48  1  0  0  0  0
 44 93  1  0  0  0  0
 45 49  1  0  0  0  0
 45 94  1  0  0  0  0
 46 50  1  0  0  0  0
 46 95  1  0  0  0  0
 47 49  2  0  0  0  0
 47 96  1  0  0  0  0
 48 50  2  0  0  0  0
 48 97  1  0  0  0  0
 49 98  1  0  0  0  0
 50 99  1  0  0  0  0
M  END
> <PUBCHEM_COMPOUND_CID>
501783
> <PUBCHEM_COMPOUND_CANONICALIZED>
1
> <PUBCHEM_CACTVS_COMPLEXITY>
1190
> <PUBCHEM_CACTVS_HBOND_ACCEPTOR>
7
> <PUBCHEM_CACTVS_HBOND_DONOR>
5
> <PUBCHEM_CACTVS_ROTATABLE_BOND>
14
> <PUBCHEM_CACTVS_SUBSKEYS>
AAADcfB/uAAAAAAAAAAAAAAAAAAAAeIAAAAwYMAAAAAAAGABQAAAHgAQCAAADbzhmAYyCIPABgCIAiFSGAICAAAgAAAIiIHIAIkKcDqA0TCcYAAk1gGYiAedyfCOgAAAAAAQAAAAAAAAACAAAQAACAAAAA==
> <PUBCHEM_IUPAC_OPENEYE_NAME>
9H-fluoren-9-ylmethyl N-[(1S)-3-amino-1-[[(1S,2S)-3-[(2S)-2-(tert-butylcarbamoyl)pyrrolidin-1-yl]-1-(cyclohexylmethyl)-2-hydroxy-3-oxo-propyl]carbamoyl]-3-oxo-propyl]carbamate
> <PUBCHEM_IUPAC_CAS_NAME>
N-[(2S)-4-amino-1-[[(2S,3S)-4-[(2S)-2-[(tert-butylamino)-oxomethyl]-1-pyrrolidinyl]-1-cyclohexyl-3-hydroxy-4-oxobutan-2-yl]amino]-1,4-dioxobutan-2-yl]carbamic acid 9H-fluoren-9-ylmethyl ester
> <PUBCHEM_IUPAC_NAME_MARKUP>
9<I>H</I>-fluoren-9-ylmethyl <I>N</I>-[(2<I>S</I>)-4-amino-1-[[(2<I>S</I>,3<I>S</I>)-4-[(2<I>S</I>)-2-(<I>tert</I>-butylcarbamoyl)pyrrolidin-1-yl]-1-cyclohexyl-3-hydroxy-4-oxobutan-2-yl]amino]-1,4-dioxobutan-2-yl]carbamate
> <PUBCHEM_IUPAC_NAME>
9H-fluoren-9-ylmethyl N-[(2S)-4-amino-1-[[(2S,3S)-4-[(2S)-2-(tert-butylcarbamoyl)pyrrolidin-1-yl]-1-cyclohexyl-3-hydroxy-4-oxobutan-2-yl]amino]-1,4-dioxobutan-2-yl]carbamate
> <PUBCHEM_IUPAC_SYSTEMATIC_NAME>
9H-fluoren-9-ylmethyl N-[(2S)-4-azanyl-1-[[(2S,3S)-4-[(2S)-2-(tert-butylcarbamoyl)pyrrolidin-1-yl]-1-cyclohexyl-3-oxidanyl-4-oxidanylidene-butan-2-yl]amino]-1,4-bis(oxidanylidene)butan-2-yl]carbamate
> <PUBCHEM_IUPAC_TRADITIONAL_NAME>
N-[(1S)-3-amino-1-[[(1S,2S)-3-[(2S)-2-(tert-butylcarbamoyl)pyrrolidino]-1-(cyclohexylmethyl)-2-hydroxy-3-keto-propyl]carbamoyl]-3-keto-propyl]carbamic acid 9H-fluoren-9-ylmethyl ester
> <PUBCHEM_IUPAC_INCHI>
InChI=1S/C38H51N5O7/c1-38(2,3)42-35(47)31-18-11-19-43(31)36(48)33(45)29(20-23-12-5-4-6-13-23)40-34(46)30(21-32(39)44)41-37(49)50-22-28-26-16-9-7-14-24(26)25-15-8-10-17-27(25)28/h7-10,14-17,23,28-31,33,45H,4-6,11-13,18-22H2,1-3H3,(H2,39,44)(H,40,46)(H,41,49)(H,42,47)/t29-,30-,31-,33-/m0/s1
> <PUBCHEM_IUPAC_INCHIKEY>
DPGWDRKHPMWNLA-QUUJSONZSA-N
> <PUBCHEM_XLOGP3_AA>
4.2
> <PUBCHEM_EXACT_MASS>
689.37884898
> <PUBCHEM_MOLECULAR_FORMULA>
C38H51N5O7
> <PUBCHEM_MOLECULAR_WEIGHT>
689.8
> <PUBCHEM_OPENEYE_CAN_SMILES>
CC(C)(C)NC(=O)C1CCCN1C(=O)C(C(CC2CCCCC2)NC(=O)C(CC(=O)N)NC(=O)OCC3C4=CC=CC=C4C5=CC=CC=C35)O
> <PUBCHEM_OPENEYE_ISO_SMILES>
CC(C)(C)NC(=O)[C@@H]1CCCN1C(=O)[C@H]([C@H](CC2CCCCC2)NC(=O)[C@H](CC(=O)N)NC(=O)OCC3C4=CC=CC=C4C5=CC=CC=C35)O
> <PUBCHEM_CACTVS_TPSA>
180
> <PUBCHEM_MONOISOTOPIC_WEIGHT>
689.37884898
> <PUBCHEM_TOTAL_CHARGE>
0
> <PUBCHEM_HEAVY_ATOM_COUNT>
50
> <PUBCHEM_ATOM_DEF_STEREO_COUNT>
4
> <PUBCHEM_ATOM_UDEF_STEREO_COUNT>
0
> <PUBCHEM_BOND_DEF_STEREO_COUNT>
0
> <PUBCHEM_BOND_UDEF_STEREO_COUNT>
0
> <PUBCHEM_ISOTOPIC_ATOM_COUNT>
0
> <PUBCHEM_COMPONENT_COUNT>
1
> <PUBCHEM_CACTVS_TAUTO_COUNT>
-1
> <PUBCHEM_COORDINATE_TYPE>
1
5
255
> <PUBCHEM_BONDANNOTATIONS>
21  1  6
29  11  5
22  27  5
36  39  8
36  43  8
37  40  8
37  44  8
39  45  8
40  46  8
43  47  8
44  48  8
45  49  8
46  50  8
47  49  8
48  50  8
17  9  5
$$$$
