501773
  -OEChem-10302200282D
110112  0     1  0  0  0  0  0999 V2000
   11.1100   -0.6045    0.0000 O   0  0  0  0  0  0  0  0  0  0  0  0
    8.5119   -1.1045    0.0000 O   0  0  0  0  0  0  0  0  0  0  0  0
    7.4099   -0.3039    0.0000 O   0  0  0  0  0  0  0  0  0  0  0  0
    4.2294    1.3945    0.0000 O   0  0  0  0  0  0  0  0  0  0  0  0
   11.9760   -1.1045    0.0000 O   0  0  0  0  0  0  0  0  0  0  0  0
    5.8042    4.6380    0.0000 O   0  0  0  0  0  0  0  0  0  0  0  0
    5.2999   -1.9001    0.0000 O   0  0  0  0  0  0  0  0  0  0  0  0
   12.8420   -0.6045    0.0000 O   0  0  0  0  0  0  0  0  0  0  0  0
   14.5741   -3.6045    0.0000 O   0  0  0  0  0  0  0  0  0  0  0  0
    9.3779    0.3955    0.0000 N   0  0  0  0  0  0  0  0  0  0  0  0
    6.8747    1.3434    0.0000 N   0  0  0  0  0  0  0  0  0  0  0  0
   11.1100   -2.6045    0.0000 N   0  0  0  0  0  0  0  0  0  0  0  0
    5.3884    2.6816    0.0000 N   0  0  0  0  0  0  0  0  0  0  0  0
   13.7080   -2.1045    0.0000 N   0  0  0  0  0  0  0  0  0  0  0  0
    4.1100    4.9981    0.0000 N   0  0  0  0  0  0  0  0  0  0  0  0
    3.6057   -1.5400    0.0000 N   0  0  0  0  0  0  0  0  0  0  0  0
   13.7080   -5.1045    0.0000 N   0  0  0  0  0  0  0  0  0  0  0  0
    8.5689    0.9833    0.0000 C   0  0  1  0  0  0  0  0  0  0  0  0
    8.8779    1.9343    0.0000 C   0  0  0  0  0  0  0  0  0  0  0  0
    9.8779    1.9343    0.0000 C   0  0  0  0  0  0  0  0  0  0  0  0
   10.1869    0.9833    0.0000 C   0  0  0  0  0  0  0  0  0  0  0  0
    9.3779   -0.6045    0.0000 C   0  0  0  0  0  0  0  0  0  0  0  0
    7.6178    0.6743    0.0000 C   0  0  0  0  0  0  0  0  0  0  0  0
   10.2439   -1.1045    0.0000 C   0  0  2  0  0  0  0  0  0  0  0  0
   10.2439   -2.1045    0.0000 C   0  0  2  0  0  0  0  0  0  0  0  0
    5.9236    1.0344    0.0000 C   0  0  1  0  0  0  0  0  0  0  0  0
    9.3779   -2.6045    0.0000 C   0  0  0  0  0  0  0  0  0  0  0  0
    5.7157    0.0562    0.0000 C   0  0  0  0  0  0  0  0  0  0  0  0
    5.1805    1.7035    0.0000 C   0  0  0  0  0  0  0  0  0  0  0  0
    4.6453    3.3508    0.0000 C   0  0  1  0  0  0  0  0  0  0  0  0
    9.3779   -3.6045    0.0000 C   0  0  0  0  0  0  0  0  0  0  0  0
    3.6942    3.0418    0.0000 C   0  0  1  0  0  0  0  0  0  0  0  0
    4.7647   -0.2528    0.0000 C   0  0  0  0  0  0  0  0  0  0  0  0
   11.9760   -2.1045    0.0000 C   0  0  0  0  0  0  0  0  0  0  0  0
   12.8420   -2.6045    0.0000 C   0  0  2  0  0  0  0  0  0  0  0  0
    2.9511    3.7109    0.0000 C   0  0  0  0  0  0  0  0  0  0  0  0
    3.4863    2.0636    0.0000 C   0  0  0  0  0  0  0  0  0  0  0  0
    8.5119   -4.1045    0.0000 C   0  0  0  0  0  0  0  0  0  0  0  0
   10.2439   -4.1045    0.0000 C   0  0  0  0  0  0  0  0  0  0  0  0
    4.8532    4.3289    0.0000 C   0  0  0  0  0  0  0  0  0  0  0  0
   12.8420   -3.6045    0.0000 C   0  0  0  0  0  0  0  0  0  0  0  0
    4.5568   -1.2309    0.0000 C   0  0  0  0  0  0  0  0  0  0  0  0
    2.0000    3.4019    0.0000 C   0  0  0  0  0  0  0  0  0  0  0  0
    8.5119   -5.1045    0.0000 C   0  0  0  0  0  0  0  0  0  0  0  0
   10.2439   -5.1045    0.0000 C   0  0  0  0  0  0  0  0  0  0  0  0
    9.3779   -5.6045    0.0000 C   0  0  0  0  0  0  0  0  0  0  0  0
   13.7080   -1.1045    0.0000 C   0  0  0  0  0  0  0  0  0  0  0  0
   13.7080   -4.1045    0.0000 C   0  0  0  0  0  0  0  0  0  0  0  0
   14.5741   -0.6045    0.0000 C   0  0  0  0  0  0  0  0  0  0  0  0
   14.5741    0.3955    0.0000 C   0  0  0  0  0  0  0  0  0  0  0  0
   15.4401    0.8955    0.0000 C   0  0  0  0  0  0  0  0  0  0  0  0
   16.3061    0.3955    0.0000 C   0  0  0  0  0  0  0  0  0  0  0  0
   15.4401    1.8955    0.0000 C   0  0  0  0  0  0  0  0  0  0  0  0
   17.1721    0.8955    0.0000 C   0  0  0  0  0  0  0  0  0  0  0  0
   16.3061    2.3955    0.0000 C   0  0  0  0  0  0  0  0  0  0  0  0
   17.1721    1.8955    0.0000 C   0  0  0  0  0  0  0  0  0  0  0  0
    8.4719    0.3709    0.0000 H   0  0  0  0  0  0  0  0  0  0  0  0
    8.9427    2.5509    0.0000 H   0  0  0  0  0  0  0  0  0  0  0  0
    8.2715    2.0632    0.0000 H   0  0  0  0  0  0  0  0  0  0  0  0
   10.4844    2.0632    0.0000 H   0  0  0  0  0  0  0  0  0  0  0  0
    9.8131    2.5509    0.0000 H   0  0  0  0  0  0  0  0  0  0  0  0
   10.4969    0.4463    0.0000 H   0  0  0  0  0  0  0  0  0  0  0  0
   10.7533    1.2354    0.0000 H   0  0  0  0  0  0  0  0  0  0  0  0
   10.2439   -0.4845    0.0000 H   0  0  0  0  0  0  0  0  0  0  0  0
   10.7809   -1.7945    0.0000 H   0  0  0  0  0  0  0  0  0  0  0  0
    7.0036    1.9498    0.0000 H   0  0  0  0  0  0  0  0  0  0  0  0
    6.3844    0.6195    0.0000 H   0  0  0  0  0  0  0  0  0  0  0  0
    9.1659   -2.0219    0.0000 H   0  0  0  0  0  0  0  0  0  0  0  0
    8.7673   -2.7122    0.0000 H   0  0  0  0  0  0  0  0  0  0  0  0
    5.8020   -0.5577    0.0000 H   0  0  0  0  0  0  0  0  0  0  0  0
    6.3354    0.0346    0.0000 H   0  0  0  0  0  0  0  0  0  0  0  0
   11.1100   -3.2245    0.0000 H   0  0  0  0  0  0  0  0  0  0  0  0
   11.1100    0.0155    0.0000 H   0  0  0  0  0  0  0  0  0  0  0  0
    5.2349    3.5424    0.0000 H   0  0  0  0  0  0  0  0  0  0  0  0
    3.1046    2.8502    0.0000 H   0  0  0  0  0  0  0  0  0  0  0  0
    5.9781    2.8732    0.0000 H   0  0  0  0  0  0  0  0  0  0  0  0
    4.6784    0.3612    0.0000 H   0  0  0  0  0  0  0  0  0  0  0  0
    4.1450   -0.2312    0.0000 H   0  0  0  0  0  0  0  0  0  0  0  0
   13.3789   -2.9145    0.0000 H   0  0  0  0  0  0  0  0  0  0  0  0
    3.4396    4.0926    0.0000 H   0  0  0  0  0  0  0  0  0  0  0  0
    2.6600    4.2583    0.0000 H   0  0  0  0  0  0  0  0  0  0  0  0
    2.8798    2.1925    0.0000 H   0  0  0  0  0  0  0  0  0  0  0  0
    3.3574    1.4572    0.0000 H   0  0  0  0  0  0  0  0  0  0  0  0
    4.0927    1.9347    0.0000 H   0  0  0  0  0  0  0  0  0  0  0  0
    7.9750   -3.7945    0.0000 H   0  0  0  0  0  0  0  0  0  0  0  0
   10.7809   -3.7945    0.0000 H   0  0  0  0  0  0  0  0  0  0  0  0
   12.2314   -3.4968    0.0000 H   0  0  0  0  0  0  0  0  0  0  0  0
   12.6300   -4.1871    0.0000 H   0  0  0  0  0  0  0  0  0  0  0  0
    1.8084    3.9915    0.0000 H   0  0  0  0  0  0  0  0  0  0  0  0
    1.4103    3.2103    0.0000 H   0  0  0  0  0  0  0  0  0  0  0  0
    2.1916    2.8122    0.0000 H   0  0  0  0  0  0  0  0  0  0  0  0
   14.2450   -2.4145    0.0000 H   0  0  0  0  0  0  0  0  0  0  0  0
    7.9750   -5.4145    0.0000 H   0  0  0  0  0  0  0  0  0  0  0  0
   10.7809   -5.4145    0.0000 H   0  0  0  0  0  0  0  0  0  0  0  0
    9.3779   -6.2245    0.0000 H   0  0  0  0  0  0  0  0  0  0  0  0
    4.2389    5.6045    0.0000 H   0  0  0  0  0  0  0  0  0  0  0  0
    3.5204    4.8065    0.0000 H   0  0  0  0  0  0  0  0  0  0  0  0
    3.4768   -2.1464    0.0000 H   0  0  0  0  0  0  0  0  0  0  0  0
    3.1450   -1.1251    0.0000 H   0  0  0  0  0  0  0  0  0  0  0  0
   14.7861   -1.1871    0.0000 H   0  0  0  0  0  0  0  0  0  0  0  0
   15.1846   -0.4968    0.0000 H   0  0  0  0  0  0  0  0  0  0  0  0
   14.3620    0.9781    0.0000 H   0  0  0  0  0  0  0  0  0  0  0  0
   13.9635    0.2878    0.0000 H   0  0  0  0  0  0  0  0  0  0  0  0
   14.2450   -5.4145    0.0000 H   0  0  0  0  0  0  0  0  0  0  0  0
   13.1711   -5.4145    0.0000 H   0  0  0  0  0  0  0  0  0  0  0  0
   16.3061   -0.2245    0.0000 H   0  0  0  0  0  0  0  0  0  0  0  0
   14.9032    2.2055    0.0000 H   0  0  0  0  0  0  0  0  0  0  0  0
   17.7091    0.5855    0.0000 H   0  0  0  0  0  0  0  0  0  0  0  0
   16.3061    3.0155    0.0000 H   0  0  0  0  0  0  0  0  0  0  0  0
   17.7091    2.2055    0.0000 H   0  0  0  0  0  0  0  0  0  0  0  0
 24  1  1  1  0  0  0
  1 73  1  0  0  0  0
  2 22  2  0  0  0  0
  3 23  2  0  0  0  0
  4 29  2  0  0  0  0
  5 34  2  0  0  0  0
  6 40  2  0  0  0  0
  7 42  2  0  0  0  0
  8 47  2  0  0  0  0
  9 48  2  0  0  0  0
 10 18  1  0  0  0  0
 10 21  1  0  0  0  0
 10 22  1  0  0  0  0
 11 23  1  0  0  0  0
 26 11  1  1  0  0  0
 11 66  1  0  0  0  0
 25 12  1  1  0  0  0
 12 34  1  0  0  0  0
 12 72  1  0  0  0  0
 13 29  1  0  0  0  0
 30 13  1  1  0  0  0
 13 76  1  0  0  0  0
 35 14  1  1  0  0  0
 14 47  1  0  0  0  0
 14 92  1  0  0  0  0
 15 40  1  0  0  0  0
 15 96  1  0  0  0  0
 15 97  1  0  0  0  0
 16 42  1  0  0  0  0
 16 98  1  0  0  0  0
 16 99  1  0  0  0  0
 17 48  1  0  0  0  0
 17104  1  0  0  0  0
 17105  1  0  0  0  0
 18 19  1  0  0  0  0
 18 23  1  6  0  0  0
 18 57  1  0  0  0  0
 19 20  1  0  0  0  0
 19 58  1  0  0  0  0
 19 59  1  0  0  0  0
 20 21  1  0  0  0  0
 20 60  1  0  0  0  0
 20 61  1  0  0  0  0
 21 62  1  0  0  0  0
 21 63  1  0  0  0  0
 22 24  1  0  0  0  0
 24 25  1  0  0  0  0
 24 64  1  0  0  0  0
 25 27  1  0  0  0  0
 25 65  1  0  0  0  0
 26 28  1  0  0  0  0
 26 29  1  0  0  0  0
 26 67  1  0  0  0  0
 27 31  1  0  0  0  0
 27 68  1  0  0  0  0
 27 69  1  0  0  0  0
 28 33  1  0  0  0  0
 28 70  1  0  0  0  0
 28 71  1  0  0  0  0
 30 32  1  0  0  0  0
 30 40  1  0  0  0  0
 30 74  1  0  0  0  0
 31 38  2  0  0  0  0
 31 39  1  0  0  0  0
 32 36  1  0  0  0  0
 32 37  1  6  0  0  0
 32 75  1  0  0  0  0
 33 42  1  0  0  0  0
 33 77  1  0  0  0  0
 33 78  1  0  0  0  0
 34 35  1  0  0  0  0
 35 41  1  0  0  0  0
 35 79  1  0  0  0  0
 36 43  1  0  0  0  0
 36 80  1  0  0  0  0
 36 81  1  0  0  0  0
 37 82  1  0  0  0  0
 37 83  1  0  0  0  0
 37 84  1  0  0  0  0
 38 44  1  0  0  0  0
 38 85  1  0  0  0  0
 39 45  2  0  0  0  0
 39 86  1  0  0  0  0
 41 48  1  0  0  0  0
 41 87  1  0  0  0  0
 41 88  1  0  0  0  0
 43 89  1  0  0  0  0
 43 90  1  0  0  0  0
 43 91  1  0  0  0  0
 44 46  2  0  0  0  0
 44 93  1  0  0  0  0
 45 46  1  0  0  0  0
 45 94  1  0  0  0  0
 46 95  1  0  0  0  0
 47 49  1  0  0  0  0
 49 50  1  0  0  0  0
 49100  1  0  0  0  0
 49101  1  0  0  0  0
 50 51  1  0  0  0  0
 50102  1  0  0  0  0
 50103  1  0  0  0  0
 51 52  2  0  0  0  0
 51 53  1  0  0  0  0
 52 54  1  0  0  0  0
 52106  1  0  0  0  0
 53 55  2  0  0  0  0
 53107  1  0  0  0  0
 54 56  2  0  0  0  0
 54108  1  0  0  0  0
 55 56  1  0  0  0  0
 55109  1  0  0  0  0
 56110  1  0  0  0  0
M  END
> <PUBCHEM_COMPOUND_CID>
501773
> <PUBCHEM_COMPOUND_CANONICALIZED>
1
> <PUBCHEM_CACTVS_COMPLEXITY>
1380
> <PUBCHEM_CACTVS_HBOND_ACCEPTOR>
9
> <PUBCHEM_CACTVS_HBOND_DONOR>
8
> <PUBCHEM_CACTVS_ROTATABLE_BOND>
22
> <PUBCHEM_CACTVS_SUBSKEYS>
AAADcfB//AAAAAAAAAAAAAAAAAAAAWAAAAAwYAAAAAAAAAABQAAAHgAQCAAADTzhmAYyAIPAAgCIAiFSEAICAAAgAAAIiIHIAIgKcDqA0TGUYAAklgCYiAedy6COAAAAAAAAAAAAAAAAAAAAAAAAAAAAAA==
> <PUBCHEM_IUPAC_OPENEYE_NAME>
(2S)-2-[[(2S)-1-[(2S,3S)-3-[[(2S)-4-amino-4-oxo-2-(3-phenylpropanoylamino)butanoyl]amino]-2-hydroxy-4-phenyl-butanoyl]pyrrolidine-2-carbonyl]amino]-N-[(1S,2R)-1-carbamoyl-2-methyl-butyl]pentanediamide
> <PUBCHEM_IUPAC_CAS_NAME>
(2S)-2-[[[(2S)-1-[(2S,3S)-3-[[(2S)-4-amino-1,4-dioxo-2-[(1-oxo-3-phenylpropyl)amino]butyl]amino]-2-hydroxy-1-oxo-4-phenylbutyl]-2-pyrrolidinyl]-oxomethyl]amino]-N-[(2S,3R)-1-amino-3-methyl-1-oxopentan-2-yl]pentanediamide
> <PUBCHEM_IUPAC_NAME_MARKUP>
(2<I>S</I>)-<I>N</I>-[(2<I>S</I>,3<I>R</I>)-1-amino-3-methyl-1-oxopentan-2-yl]-2-[[(2<I>S</I>)-1-[(2<I>S</I>,3<I>S</I>)-3-[[(2<I>S</I>)-4-amino-4-oxo-2-(3-phenylpropanoylamino)butanoyl]amino]-2-hydroxy-4-phenylbutanoyl]pyrrolidine-2-carbonyl]amino]pentanediamide
> <PUBCHEM_IUPAC_NAME>
(2S)-N-[(2S,3R)-1-amino-3-methyl-1-oxopentan-2-yl]-2-[[(2S)-1-[(2S,3S)-3-[[(2S)-4-amino-4-oxo-2-(3-phenylpropanoylamino)butanoyl]amino]-2-hydroxy-4-phenylbutanoyl]pyrrolidine-2-carbonyl]amino]pentanediamide
> <PUBCHEM_IUPAC_SYSTEMATIC_NAME>
(2S)-N-[(2S,3R)-1-azanyl-3-methyl-1-oxidanylidene-pentan-2-yl]-2-[[(2S)-1-[(2S,3S)-3-[[(2S)-4-azanyl-4-oxidanylidene-2-(3-phenylpropanoylamino)butanoyl]amino]-2-oxidanyl-4-phenyl-butanoyl]pyrrolidin-2-yl]carbonylamino]pentanediamide
> <PUBCHEM_IUPAC_TRADITIONAL_NAME>
(2S)-2-[[(2S)-1-[(2S,3S)-3-[[(2S)-4-amino-2-(hydrocinnamoylamino)-4-keto-butanoyl]amino]-2-hydroxy-4-phenyl-butanoyl]prolyl]amino]-N-[(1S,2R)-1-carbamoyl-2-methyl-butyl]glutaramide
> <PUBCHEM_IUPAC_INCHI>
InChI=1S/C39H54N8O9/c1-3-23(2)33(35(42)52)46-36(53)26(17-18-30(40)48)44-38(55)29-15-10-20-47(29)39(56)34(51)27(21-25-13-8-5-9-14-25)45-37(54)28(22-31(41)49)43-32(50)19-16-24-11-6-4-7-12-24/h4-9,11-14,23,26-29,33-34,51H,3,10,15-22H2,1-2H3,(H2,40,48)(H2,41,49)(H2,42,52)(H,43,50)(H,44,55)(H,45,54)(H,46,53)/t23-,26+,27+,28+,29+,33+,34+/m1/s1
> <PUBCHEM_IUPAC_INCHIKEY>
OPKIGDGWLXHAJE-VYHNOVTMSA-N
> <PUBCHEM_XLOGP3_AA>
-0.3
> <PUBCHEM_EXACT_MASS>
778.40137533
> <PUBCHEM_MOLECULAR_FORMULA>
C39H54N8O9
> <PUBCHEM_MOLECULAR_WEIGHT>
778.9
> <PUBCHEM_OPENEYE_CAN_SMILES>
CCC(C)C(C(=O)N)NC(=O)C(CCC(=O)N)NC(=O)C1CCCN1C(=O)C(C(CC2=CC=CC=C2)NC(=O)C(CC(=O)N)NC(=O)CCC3=CC=CC=C3)O
> <PUBCHEM_OPENEYE_ISO_SMILES>
CC[C@@H](C)[C@@H](C(=O)N)NC(=O)[C@H](CCC(=O)N)NC(=O)[C@@H]1CCCN1C(=O)[C@H]([C@H](CC2=CC=CC=C2)NC(=O)[C@H](CC(=O)N)NC(=O)CCC3=CC=CC=C3)O
> <PUBCHEM_CACTVS_TPSA>
286
> <PUBCHEM_MONOISOTOPIC_WEIGHT>
778.40137533
> <PUBCHEM_TOTAL_CHARGE>
0
> <PUBCHEM_HEAVY_ATOM_COUNT>
56
> <PUBCHEM_ATOM_DEF_STEREO_COUNT>
7
> <PUBCHEM_ATOM_UDEF_STEREO_COUNT>
0
> <PUBCHEM_BOND_DEF_STEREO_COUNT>
0
> <PUBCHEM_BOND_UDEF_STEREO_COUNT>
0
> <PUBCHEM_ISOTOPIC_ATOM_COUNT>
0
> <PUBCHEM_COMPONENT_COUNT>
1
> <PUBCHEM_CACTVS_TAUTO_COUNT>
-1
> <PUBCHEM_COORDINATE_TYPE>
1
5
255
> <PUBCHEM_BONDANNOTATIONS>
24  1  5
26  11  5
25  12  5
30  13  5
35  14  5
18  23  6
31  38  8
31  39  8
32  37  6
38  44  8
39  45  8
44  46  8
45  46  8
51  52  8
51  53  8
52  54  8
53  55  8
54  56  8
55  56  8
$$$$
