501723
  -OEChem-10302200282D
 78 80  0     1  0  0  0  0  0999 V2000
    5.4641    0.2500    0.0000 O   0  0  0  0  0  0  0  0  0  0  0  0
    2.8660   -0.2500    0.0000 O   0  0  0  0  0  0  0  0  0  0  0  0
    6.3301   -0.2500    0.0000 O   0  0  0  0  0  0  0  0  0  0  0  0
    8.0622   -3.2500    0.0000 O   0  0  0  0  0  0  0  0  0  0  0  0
    8.9282   -2.7500    0.0000 O   0  0  0  0  0  0  0  0  0  0  0  0
    3.7320    1.2500    0.0000 N   0  0  0  0  0  0  0  0  0  0  0  0
    5.4641   -1.7500    0.0000 N   0  0  0  0  0  0  0  0  0  0  0  0
    8.0622   -1.2500    0.0000 N   0  0  0  0  0  0  0  0  0  0  0  0
    9.7942   -0.2500    0.0000 N   0  0  0  0  0  0  0  0  0  0  0  0
    2.8660    2.7500    0.0000 C   0  0  0  0  0  0  0  0  0  0  0  0
    2.0000    3.2500    0.0000 C   0  0  0  0  0  0  0  0  0  0  0  0
    3.7320    3.2500    0.0000 C   0  0  0  0  0  0  0  0  0  0  0  0
    2.0000    4.2500    0.0000 C   0  0  0  0  0  0  0  0  0  0  0  0
    3.7320    4.2500    0.0000 C   0  0  0  0  0  0  0  0  0  0  0  0
    2.8660    4.7500    0.0000 C   0  0  0  0  0  0  0  0  0  0  0  0
    2.8660    1.7500    0.0000 C   0  0  0  0  0  0  0  0  0  0  0  0
    4.5981   -0.2500    0.0000 C   0  0  1  0  0  0  0  0  0  0  0  0
    3.7320    0.2500    0.0000 C   0  0  0  0  0  0  0  0  0  0  0  0
    4.5981   -1.2500    0.0000 C   0  0  2  0  0  0  0  0  0  0  0  0
    3.7320   -1.7500    0.0000 C   0  0  0  0  0  0  0  0  0  0  0  0
    3.7320   -2.7500    0.0000 C   0  0  0  0  0  0  0  0  0  0  0  0
    6.3301   -1.2500    0.0000 C   0  0  0  0  0  0  0  0  0  0  0  0
    7.1962   -1.7500    0.0000 C   0  0  2  0  0  0  0  0  0  0  0  0
    4.5981   -3.2500    0.0000 C   0  0  0  0  0  0  0  0  0  0  0  0
    2.8660   -3.2500    0.0000 C   0  0  0  0  0  0  0  0  0  0  0  0
    7.1962   -2.7500    0.0000 C   0  0  0  0  0  0  0  0  0  0  0  0
    9.7942   -1.2500    0.0000 C   0  0  2  0  0  0  0  0  0  0  0  0
    8.9282   -1.7500    0.0000 C   0  0  0  0  0  0  0  0  0  0  0  0
   10.6603   -1.7500    0.0000 C   0  0  0  0  0  0  0  0  0  0  0  0
    4.5981   -4.2500    0.0000 C   0  0  0  0  0  0  0  0  0  0  0  0
    2.8660   -4.2500    0.0000 C   0  0  0  0  0  0  0  0  0  0  0  0
    3.7320   -4.7500    0.0000 C   0  0  0  0  0  0  0  0  0  0  0  0
   11.5263   -1.2500    0.0000 C   0  0  0  0  0  0  0  0  0  0  0  0
   11.5263   -0.2500    0.0000 C   0  0  0  0  0  0  0  0  0  0  0  0
   12.3923   -1.7500    0.0000 C   0  0  0  0  0  0  0  0  0  0  0  0
   12.3923    0.2500    0.0000 C   0  0  0  0  0  0  0  0  0  0  0  0
   13.2583   -1.2500    0.0000 C   0  0  0  0  0  0  0  0  0  0  0  0
   13.2583   -0.2500    0.0000 C   0  0  0  0  0  0  0  0  0  0  0  0
    3.4030    2.4400    0.0000 H   0  0  0  0  0  0  0  0  0  0  0  0
    1.3894    3.3577    0.0000 H   0  0  0  0  0  0  0  0  0  0  0  0
    1.7880    2.6674    0.0000 H   0  0  0  0  0  0  0  0  0  0  0  0
    3.9441    2.6674    0.0000 H   0  0  0  0  0  0  0  0  0  0  0  0
    4.3426    3.3577    0.0000 H   0  0  0  0  0  0  0  0  0  0  0  0
    1.7880    4.8326    0.0000 H   0  0  0  0  0  0  0  0  0  0  0  0
    1.3894    4.1423    0.0000 H   0  0  0  0  0  0  0  0  0  0  0  0
    4.3426    4.1423    0.0000 H   0  0  0  0  0  0  0  0  0  0  0  0
    3.9441    4.8326    0.0000 H   0  0  0  0  0  0  0  0  0  0  0  0
    3.2646    5.2250    0.0000 H   0  0  0  0  0  0  0  0  0  0  0  0
    2.4675    5.2250    0.0000 H   0  0  0  0  0  0  0  0  0  0  0  0
    2.2554    1.8577    0.0000 H   0  0  0  0  0  0  0  0  0  0  0  0
    2.6540    1.1674    0.0000 H   0  0  0  0  0  0  0  0  0  0  0  0
    4.2690    1.5600    0.0000 H   0  0  0  0  0  0  0  0  0  0  0  0
    4.5981    0.3700    0.0000 H   0  0  0  0  0  0  0  0  0  0  0  0
    4.5981   -1.8700    0.0000 H   0  0  0  0  0  0  0  0  0  0  0  0
    3.5200   -1.1674    0.0000 H   0  0  0  0  0  0  0  0  0  0  0  0
    3.1215   -1.8577    0.0000 H   0  0  0  0  0  0  0  0  0  0  0  0
    5.4641   -2.3700    0.0000 H   0  0  0  0  0  0  0  0  0  0  0  0
    5.4641    0.8700    0.0000 H   0  0  0  0  0  0  0  0  0  0  0  0
    7.7331   -2.0600    0.0000 H   0  0  0  0  0  0  0  0  0  0  0  0
    5.1350   -2.9400    0.0000 H   0  0  0  0  0  0  0  0  0  0  0  0
    2.3291   -2.9400    0.0000 H   0  0  0  0  0  0  0  0  0  0  0  0
    8.0622   -0.6300    0.0000 H   0  0  0  0  0  0  0  0  0  0  0  0
    6.5856   -2.6423    0.0000 H   0  0  0  0  0  0  0  0  0  0  0  0
    6.9841   -3.3326    0.0000 H   0  0  0  0  0  0  0  0  0  0  0  0
    9.2573   -0.9400    0.0000 H   0  0  0  0  0  0  0  0  0  0  0  0
   10.2617   -2.2250    0.0000 H   0  0  0  0  0  0  0  0  0  0  0  0
   11.0588   -2.2250    0.0000 H   0  0  0  0  0  0  0  0  0  0  0  0
    5.1350   -4.5600    0.0000 H   0  0  0  0  0  0  0  0  0  0  0  0
    2.3291   -4.5600    0.0000 H   0  0  0  0  0  0  0  0  0  0  0  0
    3.7320   -5.3700    0.0000 H   0  0  0  0  0  0  0  0  0  0  0  0
   10.3312    0.0600    0.0000 H   0  0  0  0  0  0  0  0  0  0  0  0
    9.2573    0.0600    0.0000 H   0  0  0  0  0  0  0  0  0  0  0  0
    8.0622   -3.8700    0.0000 H   0  0  0  0  0  0  0  0  0  0  0  0
   10.9893    0.0600    0.0000 H   0  0  0  0  0  0  0  0  0  0  0  0
   12.3923   -2.3700    0.0000 H   0  0  0  0  0  0  0  0  0  0  0  0
   12.3923    0.8700    0.0000 H   0  0  0  0  0  0  0  0  0  0  0  0
   13.7953   -1.5600    0.0000 H   0  0  0  0  0  0  0  0  0  0  0  0
   13.7953    0.0600    0.0000 H   0  0  0  0  0  0  0  0  0  0  0  0
 17  1  1  6  0  0  0
  1 58  1  0  0  0  0
  2 18  2  0  0  0  0
  3 22  2  0  0  0  0
  4 26  1  0  0  0  0
  4 73  1  0  0  0  0
  5 28  2  0  0  0  0
  6 16  1  0  0  0  0
  6 18  1  0  0  0  0
  6 52  1  0  0  0  0
 19  7  1  1  0  0  0
  7 22  1  0  0  0  0
  7 57  1  0  0  0  0
 23  8  1  1  0  0  0
  8 28  1  0  0  0  0
  8 62  1  0  0  0  0
 27  9  1  1  0  0  0
  9 71  1  0  0  0  0
  9 72  1  0  0  0  0
 10 11  1  0  0  0  0
 10 12  1  0  0  0  0
 10 16  1  0  0  0  0
 10 39  1  0  0  0  0
 11 13  1  0  0  0  0
 11 40  1  0  0  0  0
 11 41  1  0  0  0  0
 12 14  1  0  0  0  0
 12 42  1  0  0  0  0
 12 43  1  0  0  0  0
 13 15  1  0  0  0  0
 13 44  1  0  0  0  0
 13 45  1  0  0  0  0
 14 15  1  0  0  0  0
 14 46  1  0  0  0  0
 14 47  1  0  0  0  0
 15 48  1  0  0  0  0
 15 49  1  0  0  0  0
 16 50  1  0  0  0  0
 16 51  1  0  0  0  0
 17 18  1  0  0  0  0
 17 19  1  0  0  0  0
 17 53  1  0  0  0  0
 19 20  1  0  0  0  0
 19 54  1  0  0  0  0
 20 21  1  0  0  0  0
 20 55  1  0  0  0  0
 20 56  1  0  0  0  0
 21 24  2  0  0  0  0
 21 25  1  0  0  0  0
 22 23  1  0  0  0  0
 23 26  1  0  0  0  0
 23 59  1  0  0  0  0
 24 30  1  0  0  0  0
 24 60  1  0  0  0  0
 25 31  2  0  0  0  0
 25 61  1  0  0  0  0
 26 63  1  0  0  0  0
 26 64  1  0  0  0  0
 27 28  1  0  0  0  0
 27 29  1  0  0  0  0
 27 65  1  0  0  0  0
 29 33  1  0  0  0  0
 29 66  1  0  0  0  0
 29 67  1  0  0  0  0
 30 32  2  0  0  0  0
 30 68  1  0  0  0  0
 31 32  1  0  0  0  0
 31 69  1  0  0  0  0
 32 70  1  0  0  0  0
 33 34  2  0  0  0  0
 33 35  1  0  0  0  0
 34 36  1  0  0  0  0
 34 74  1  0  0  0  0
 35 37  2  0  0  0  0
 35 75  1  0  0  0  0
 36 38  2  0  0  0  0
 36 76  1  0  0  0  0
 37 38  1  0  0  0  0
 37 77  1  0  0  0  0
 38 78  1  0  0  0  0
M  END
> <PUBCHEM_COMPOUND_CID>
501723
> <PUBCHEM_COMPOUND_CANONICALIZED>
1
> <PUBCHEM_CACTVS_COMPLEXITY>
733
> <PUBCHEM_CACTVS_HBOND_ACCEPTOR>
6
> <PUBCHEM_CACTVS_HBOND_DONOR>
6
> <PUBCHEM_CACTVS_ROTATABLE_BOND>
13
> <PUBCHEM_CACTVS_SUBSKEYS>
AAADcfB7uAAAAAAAAAAAAAAAAAAAAAAAAAAwYMAAAAAAAAABQAAAHgAQCAAADTzhmAYwAILAAgCIAiFSEAICAAAgAAAIiIHIAIgKcD6A0TGUYAAmtgCYiAeYyKCOAAAAAAAAAAAAAAAAAAAAAAAAAAAAAA==
> <PUBCHEM_IUPAC_OPENEYE_NAME>
(2R,3S)-3-[[(2S)-2-[[(2S)-2-amino-3-phenyl-propanoyl]amino]-3-hydroxy-propanoyl]amino]-N-(cyclohexylmethyl)-2-hydroxy-4-phenyl-butanamide
> <PUBCHEM_IUPAC_CAS_NAME>
(2R,3S)-3-[[(2S)-2-[[(2S)-2-amino-1-oxo-3-phenylpropyl]amino]-3-hydroxy-1-oxopropyl]amino]-N-(cyclohexylmethyl)-2-hydroxy-4-phenylbutanamide
> <PUBCHEM_IUPAC_NAME_MARKUP>
(2<I>R</I>,3<I>S</I>)-3-[[(2<I>S</I>)-2-[[(2<I>S</I>)-2-amino-3-phenylpropanoyl]amino]-3-hydroxypropanoyl]amino]-<I>N</I>-(cyclohexylmethyl)-2-hydroxy-4-phenylbutanamide
> <PUBCHEM_IUPAC_NAME>
(2R,3S)-3-[[(2S)-2-[[(2S)-2-amino-3-phenylpropanoyl]amino]-3-hydroxypropanoyl]amino]-N-(cyclohexylmethyl)-2-hydroxy-4-phenylbutanamide
> <PUBCHEM_IUPAC_SYSTEMATIC_NAME>
(2R,3S)-3-[[(2S)-2-[[(2S)-2-azanyl-3-phenyl-propanoyl]amino]-3-oxidanyl-propanoyl]amino]-N-(cyclohexylmethyl)-2-oxidanyl-4-phenyl-butanamide
> <PUBCHEM_IUPAC_TRADITIONAL_NAME>
(2R,3S)-3-[[(2S)-2-[[(2S)-2-amino-3-phenyl-propanoyl]amino]-3-hydroxy-propanoyl]amino]-N-(cyclohexylmethyl)-2-hydroxy-4-phenyl-butyramide
> <PUBCHEM_IUPAC_INCHI>
InChI=1S/C29H40N4O5/c30-23(16-20-10-4-1-5-11-20)27(36)33-25(19-34)28(37)32-24(17-21-12-6-2-7-13-21)26(35)29(38)31-18-22-14-8-3-9-15-22/h1-2,4-7,10-13,22-26,34-35H,3,8-9,14-19,30H2,(H,31,38)(H,32,37)(H,33,36)/t23-,24-,25-,26+/m0/s1
> <PUBCHEM_IUPAC_INCHIKEY>
HVOQKEHERSCJDC-ASDGIDEWSA-N
> <PUBCHEM_XLOGP3_AA>
2.4
> <PUBCHEM_EXACT_MASS>
524.29987039
> <PUBCHEM_MOLECULAR_FORMULA>
C29H40N4O5
> <PUBCHEM_MOLECULAR_WEIGHT>
524.7
> <PUBCHEM_OPENEYE_CAN_SMILES>
C1CCC(CC1)CNC(=O)C(C(CC2=CC=CC=C2)NC(=O)C(CO)NC(=O)C(CC3=CC=CC=C3)N)O
> <PUBCHEM_OPENEYE_ISO_SMILES>
C1CCC(CC1)CNC(=O)[C@@H]([C@H](CC2=CC=CC=C2)NC(=O)[C@H](CO)NC(=O)[C@H](CC3=CC=CC=C3)N)O
> <PUBCHEM_CACTVS_TPSA>
154
> <PUBCHEM_MONOISOTOPIC_WEIGHT>
524.29987039
> <PUBCHEM_TOTAL_CHARGE>
0
> <PUBCHEM_HEAVY_ATOM_COUNT>
38
> <PUBCHEM_ATOM_DEF_STEREO_COUNT>
4
> <PUBCHEM_ATOM_UDEF_STEREO_COUNT>
0
> <PUBCHEM_BOND_DEF_STEREO_COUNT>
0
> <PUBCHEM_BOND_UDEF_STEREO_COUNT>
0
> <PUBCHEM_ISOTOPIC_ATOM_COUNT>
0
> <PUBCHEM_COMPONENT_COUNT>
1
> <PUBCHEM_CACTVS_TAUTO_COUNT>
-1
> <PUBCHEM_COORDINATE_TYPE>
1
5
255
> <PUBCHEM_BONDANNOTATIONS>
17  1  6
21  24  8
21  25  8
24  30  8
25  31  8
30  32  8
31  32  8
33  34  8
33  35  8
34  36  8
35  37  8
36  38  8
37  38  8
19  7  5
23  8  5
27  9  5
$$$$
