501764
  -OEChem-10302200282D
106108  0     1  0  0  0  0  0999 V2000
   11.9075    0.3423    0.0000 O   0  0  0  0  0  0  0  0  0  0  0  0
    9.3094   -0.1577    0.0000 O   0  0  0  0  0  0  0  0  0  0  0  0
    8.2075    0.6429    0.0000 O   0  0  0  0  0  0  0  0  0  0  0  0
   12.7736   -0.1577    0.0000 O   0  0  0  0  0  0  0  0  0  0  0  0
    6.1860    3.6285    0.0000 O   0  0  0  0  0  0  0  0  0  0  0  0
   15.3716   -2.6577    0.0000 O   0  0  0  0  0  0  0  0  0  0  0  0
   13.6396    0.3423    0.0000 O   0  0  0  0  0  0  0  0  0  0  0  0
    3.1249    1.7233    0.0000 O   0  0  0  0  0  0  0  0  0  0  0  0
   15.4762    1.3368    0.0000 O   0  0  0  0  0  0  0  0  0  0  0  0
   10.1755    1.3423    0.0000 N   0  0  0  0  0  0  0  0  0  0  0  0
   11.9075   -1.6577    0.0000 N   0  0  0  0  0  0  0  0  0  0  0  0
    7.6723    2.2902    0.0000 N   0  0  0  0  0  0  0  0  0  0  0  0
   14.5056   -1.1577    0.0000 N   0  0  0  0  0  0  0  0  0  0  0  0
    5.0270    2.3413    0.0000 N   0  0  0  0  0  0  0  0  0  0  0  0
   14.5056   -4.1577    0.0000 N   0  0  0  0  0  0  0  0  0  0  0  0
    2.5896    3.3705    0.0000 N   0  0  0  0  0  0  0  0  0  0  0  0
   10.1755   -2.6577    0.0000 C   0  0  0  0  0  0  0  0  0  0  0  0
   10.1755   -1.6577    0.0000 C   0  0  0  0  0  0  0  0  0  0  0  0
    9.3094   -3.1577    0.0000 C   0  0  0  0  0  0  0  0  0  0  0  0
   11.0415   -3.1577    0.0000 C   0  0  0  0  0  0  0  0  0  0  0  0
   11.0415   -1.1577    0.0000 C   0  0  1  0  0  0  0  0  0  0  0  0
    9.3094   -4.1577    0.0000 C   0  0  0  0  0  0  0  0  0  0  0  0
   11.0415   -4.1577    0.0000 C   0  0  0  0  0  0  0  0  0  0  0  0
   10.1755   -4.6577    0.0000 C   0  0  0  0  0  0  0  0  0  0  0  0
   11.0415   -0.1577    0.0000 C   0  0  1  0  0  0  0  0  0  0  0  0
    9.3665    1.9301    0.0000 C   0  0  1  0  0  0  0  0  0  0  0  0
    9.6755    2.8811    0.0000 C   0  0  0  0  0  0  0  0  0  0  0  0
   10.9845    1.9301    0.0000 C   0  0  0  0  0  0  0  0  0  0  0  0
   10.6755    2.8811    0.0000 C   0  0  0  0  0  0  0  0  0  0  0  0
   10.1755    0.3423    0.0000 C   0  0  0  0  0  0  0  0  0  0  0  0
    8.4154    1.6211    0.0000 C   0  0  0  0  0  0  0  0  0  0  0  0
   12.7736   -1.1577    0.0000 C   0  0  0  0  0  0  0  0  0  0  0  0
    6.7212    1.9812    0.0000 C   0  0  1  0  0  0  0  0  0  0  0  0
    6.5133    1.0030    0.0000 C   0  0  1  0  0  0  0  0  0  0  0  0
   13.6396   -1.6577    0.0000 C   0  0  2  0  0  0  0  0  0  0  0  0
    5.5622    0.6940    0.0000 C   0  0  0  0  0  0  0  0  0  0  0  0
    5.9781    2.6503    0.0000 C   0  0  0  0  0  0  0  0  0  0  0  0
    7.2564    0.3339    0.0000 C   0  0  0  0  0  0  0  0  0  0  0  0
   13.6396   -2.6577    0.0000 C   0  0  0  0  0  0  0  0  0  0  0  0
    4.2839    3.0104    0.0000 C   0  0  1  0  0  0  0  0  0  0  0  0
    5.3543   -0.2841    0.0000 C   0  0  0  0  0  0  0  0  0  0  0  0
    4.4918    3.9886    0.0000 C   0  0  0  0  0  0  0  0  0  0  0  0
   14.5056   -3.1577    0.0000 C   0  0  0  0  0  0  0  0  0  0  0  0
   14.5056   -0.1577    0.0000 C   0  0  0  0  0  0  0  0  0  0  0  0
    3.3328    2.7014    0.0000 C   0  0  0  0  0  0  0  0  0  0  0  0
    3.7486    4.6577    0.0000 C   0  0  0  0  0  0  0  0  0  0  0  0
    5.4428    4.2976    0.0000 C   0  0  0  0  0  0  0  0  0  0  0  0
   15.3716    0.3423    0.0000 C   0  0  0  0  0  0  0  0  0  0  0  0
   16.2852   -0.0644    0.0000 C   0  0  0  0  0  0  0  0  0  0  0  0
   16.9543    0.6787    0.0000 C   0  0  0  0  0  0  0  0  0  0  0  0
   16.4543    1.5447    0.0000 C   0  0  0  0  0  0  0  0  0  0  0  0
    9.6385   -2.3477    0.0000 H   0  0  0  0  0  0  0  0  0  0  0  0
    9.9634   -1.0751    0.0000 H   0  0  0  0  0  0  0  0  0  0  0  0
    9.5649   -1.7654    0.0000 H   0  0  0  0  0  0  0  0  0  0  0  0
    9.0974   -2.5751    0.0000 H   0  0  0  0  0  0  0  0  0  0  0  0
    8.6989   -3.2654    0.0000 H   0  0  0  0  0  0  0  0  0  0  0  0
   11.6521   -3.2654    0.0000 H   0  0  0  0  0  0  0  0  0  0  0  0
   11.2536   -2.5751    0.0000 H   0  0  0  0  0  0  0  0  0  0  0  0
   11.5784   -0.8477    0.0000 H   0  0  0  0  0  0  0  0  0  0  0  0
    8.6989   -4.0500    0.0000 H   0  0  0  0  0  0  0  0  0  0  0  0
    9.0974   -4.7403    0.0000 H   0  0  0  0  0  0  0  0  0  0  0  0
   11.2536   -4.7403    0.0000 H   0  0  0  0  0  0  0  0  0  0  0  0
   11.6521   -4.0500    0.0000 H   0  0  0  0  0  0  0  0  0  0  0  0
    9.7770   -5.1326    0.0000 H   0  0  0  0  0  0  0  0  0  0  0  0
   10.5740   -5.1326    0.0000 H   0  0  0  0  0  0  0  0  0  0  0  0
   11.0415    0.4623    0.0000 H   0  0  0  0  0  0  0  0  0  0  0  0
    9.2695    1.3177    0.0000 H   0  0  0  0  0  0  0  0  0  0  0  0
    9.7403    3.4977    0.0000 H   0  0  0  0  0  0  0  0  0  0  0  0
    9.0690    3.0100    0.0000 H   0  0  0  0  0  0  0  0  0  0  0  0
   11.2945    1.3932    0.0000 H   0  0  0  0  0  0  0  0  0  0  0  0
   11.5509    2.1823    0.0000 H   0  0  0  0  0  0  0  0  0  0  0  0
   11.2819    3.0100    0.0000 H   0  0  0  0  0  0  0  0  0  0  0  0
   10.6107    3.4977    0.0000 H   0  0  0  0  0  0  0  0  0  0  0  0
   11.9075   -2.2777    0.0000 H   0  0  0  0  0  0  0  0  0  0  0  0
   11.9075    0.9623    0.0000 H   0  0  0  0  0  0  0  0  0  0  0  0
    6.8501    2.5876    0.0000 H   0  0  0  0  0  0  0  0  0  0  0  0
    7.8012    2.8966    0.0000 H   0  0  0  0  0  0  0  0  0  0  0  0
    6.3844    0.3966    0.0000 H   0  0  0  0  0  0  0  0  0  0  0  0
   13.6396   -1.0377    0.0000 H   0  0  0  0  0  0  0  0  0  0  0  0
    5.4760    1.3080    0.0000 H   0  0  0  0  0  0  0  0  0  0  0  0
    4.9426    0.7157    0.0000 H   0  0  0  0  0  0  0  0  0  0  0  0
    6.8416   -0.1268    0.0000 H   0  0  0  0  0  0  0  0  0  0  0  0
    7.7172   -0.0810    0.0000 H   0  0  0  0  0  0  0  0  0  0  0  0
    7.6713    0.7947    0.0000 H   0  0  0  0  0  0  0  0  0  0  0  0
   13.0290   -2.5500    0.0000 H   0  0  0  0  0  0  0  0  0  0  0  0
   13.4275   -3.2403    0.0000 H   0  0  0  0  0  0  0  0  0  0  0  0
   15.0425   -1.4677    0.0000 H   0  0  0  0  0  0  0  0  0  0  0  0
    4.8981    1.7348    0.0000 H   0  0  0  0  0  0  0  0  0  0  0  0
    4.1550    2.4040    0.0000 H   0  0  0  0  0  0  0  0  0  0  0  0
    4.7479   -0.1552    0.0000 H   0  0  0  0  0  0  0  0  0  0  0  0
    5.2254   -0.8906    0.0000 H   0  0  0  0  0  0  0  0  0  0  0  0
    5.9608   -0.4130    0.0000 H   0  0  0  0  0  0  0  0  0  0  0  0
    4.6207    4.5950    0.0000 H   0  0  0  0  0  0  0  0  0  0  0  0
    4.1635    5.1184    0.0000 H   0  0  0  0  0  0  0  0  0  0  0  0
    3.2879    5.0726    0.0000 H   0  0  0  0  0  0  0  0  0  0  0  0
    3.3338    4.1970    0.0000 H   0  0  0  0  0  0  0  0  0  0  0  0
    5.6344    3.7079    0.0000 H   0  0  0  0  0  0  0  0  0  0  0  0
    6.0325    4.4892    0.0000 H   0  0  0  0  0  0  0  0  0  0  0  0
    5.2512    4.8872    0.0000 H   0  0  0  0  0  0  0  0  0  0  0  0
   15.0425   -4.4677    0.0000 H   0  0  0  0  0  0  0  0  0  0  0  0
   13.9687   -4.4677    0.0000 H   0  0  0  0  0  0  0  0  0  0  0  0
    2.0000    3.1790    0.0000 H   0  0  0  0  0  0  0  0  0  0  0  0
    2.7186    3.9770    0.0000 H   0  0  0  0  0  0  0  0  0  0  0  0
   16.4141   -0.6709    0.0000 H   0  0  0  0  0  0  0  0  0  0  0  0
   17.5709    0.6139    0.0000 H   0  0  0  0  0  0  0  0  0  0  0  0
   16.7065    2.1111    0.0000 H   0  0  0  0  0  0  0  0  0  0  0  0
 25  1  1  1  0  0  0
  1 75  1  0  0  0  0
  2 30  2  0  0  0  0
  3 31  2  0  0  0  0
  4 32  2  0  0  0  0
  5 37  2  0  0  0  0
  6 43  2  0  0  0  0
  7 44  2  0  0  0  0
  8 45  2  0  0  0  0
  9 48  1  0  0  0  0
  9 51  1  0  0  0  0
 10 26  1  0  0  0  0
 10 28  1  0  0  0  0
 10 30  1  0  0  0  0
 21 11  1  1  0  0  0
 11 32  1  0  0  0  0
 11 74  1  0  0  0  0
 12 31  1  0  0  0  0
 33 12  1  1  0  0  0
 12 77  1  0  0  0  0
 35 13  1  1  0  0  0
 13 44  1  0  0  0  0
 13 87  1  0  0  0  0
 14 37  1  0  0  0  0
 40 14  1  6  0  0  0
 14 88  1  0  0  0  0
 15 43  1  0  0  0  0
 15100  1  0  0  0  0
 15101  1  0  0  0  0
 16 45  1  0  0  0  0
 16102  1  0  0  0  0
 16103  1  0  0  0  0
 17 18  1  0  0  0  0
 17 19  1  0  0  0  0
 17 20  1  0  0  0  0
 17 52  1  0  0  0  0
 18 21  1  0  0  0  0
 18 53  1  0  0  0  0
 18 54  1  0  0  0  0
 19 22  1  0  0  0  0
 19 55  1  0  0  0  0
 19 56  1  0  0  0  0
 20 23  1  0  0  0  0
 20 57  1  0  0  0  0
 20 58  1  0  0  0  0
 21 25  1  0  0  0  0
 21 59  1  0  0  0  0
 22 24  1  0  0  0  0
 22 60  1  0  0  0  0
 22 61  1  0  0  0  0
 23 24  1  0  0  0  0
 23 62  1  0  0  0  0
 23 63  1  0  0  0  0
 24 64  1  0  0  0  0
 24 65  1  0  0  0  0
 25 30  1  0  0  0  0
 25 66  1  0  0  0  0
 26 27  1  0  0  0  0
 26 31  1  6  0  0  0
 26 67  1  0  0  0  0
 27 29  1  0  0  0  0
 27 68  1  0  0  0  0
 27 69  1  0  0  0  0
 28 29  1  0  0  0  0
 28 70  1  0  0  0  0
 28 71  1  0  0  0  0
 29 72  1  0  0  0  0
 29 73  1  0  0  0  0
 32 35  1  0  0  0  0
 33 34  1  0  0  0  0
 33 37  1  0  0  0  0
 33 76  1  0  0  0  0
 34 36  1  0  0  0  0
 34 38  1  6  0  0  0
 34 78  1  0  0  0  0
 35 39  1  0  0  0  0
 35 79  1  0  0  0  0
 36 41  1  0  0  0  0
 36 80  1  0  0  0  0
 36 81  1  0  0  0  0
 38 82  1  0  0  0  0
 38 83  1  0  0  0  0
 38 84  1  0  0  0  0
 39 43  1  0  0  0  0
 39 85  1  0  0  0  0
 39 86  1  0  0  0  0
 40 42  1  0  0  0  0
 40 45  1  0  0  0  0
 40 89  1  0  0  0  0
 41 90  1  0  0  0  0
 41 91  1  0  0  0  0
 41 92  1  0  0  0  0
 42 46  1  0  0  0  0
 42 47  1  0  0  0  0
 42 93  1  0  0  0  0
 44 48  1  0  0  0  0
 46 94  1  0  0  0  0
 46 95  1  0  0  0  0
 46 96  1  0  0  0  0
 47 97  1  0  0  0  0
 47 98  1  0  0  0  0
 47 99  1  0  0  0  0
 48 49  2  0  0  0  0
 49 50  1  0  0  0  0
 49104  1  0  0  0  0
 50 51  2  0  0  0  0
 50105  1  0  0  0  0
 51106  1  0  0  0  0
M  END
> <PUBCHEM_COMPOUND_CID>
501764
> <PUBCHEM_COMPOUND_CANONICALIZED>
1
> <PUBCHEM_CACTVS_COMPLEXITY>
1260
> <PUBCHEM_CACTVS_HBOND_ACCEPTOR>
9
> <PUBCHEM_CACTVS_HBOND_DONOR>
7
> <PUBCHEM_CACTVS_ROTATABLE_BOND>
18
> <PUBCHEM_CACTVS_SUBSKEYS>
AAADcfB/vAAAAAAAAAAAAAAAAAAAAWJAAAAwAAAAAAAAAAABgAAAHgAQCAAADTzhkAYyBIPABkCIAKlSkAKCCAAkIAAIiIHODMgOdjqE9T+XWSjk1hGYqYed36KOAAAAAAAAAAAAAAAAAAAAAAAAAAAAAA==
> <PUBCHEM_IUPAC_OPENEYE_NAME>
(2S)-N-[(1S,2S)-3-[(2S)-2-[[(1S,2R)-1-[[(1S)-1-carbamoyl-2-methyl-propyl]carbamoyl]-2-methyl-butyl]carbamoyl]pyrrolidin-1-yl]-1-(cyclohexylmethyl)-2-hydroxy-3-oxo-propyl]-2-(furan-2-carbonylamino)butanediamide
> <PUBCHEM_IUPAC_CAS_NAME>
(2S)-N-[(2S,3S)-4-[(2S)-2-[[[(2S,3R)-1-[[(2S)-1-amino-3-methyl-1-oxobutan-2-yl]amino]-3-methyl-1-oxopentan-2-yl]amino]-oxomethyl]-1-pyrrolidinyl]-1-cyclohexyl-3-hydroxy-4-oxobutan-2-yl]-2-[[2-furanyl(oxo)methyl]amino]butanediamide
> <PUBCHEM_IUPAC_NAME_MARKUP>
(2<I>S</I>)-<I>N</I>-[(2<I>S</I>,3<I>S</I>)-4-[(2<I>S</I>)-2-[[(2<I>S</I>,3<I>R</I>)-1-[[(2<I>S</I>)-1-amino-3-methyl-1-oxobutan-2-yl]amino]-3-methyl-1-oxopentan-2-yl]carbamoyl]pyrrolidin-1-yl]-1-cyclohexyl-3-hydroxy-4-oxobutan-2-yl]-2-(furan-2-carbonylamino)butanediamide
> <PUBCHEM_IUPAC_NAME>
(2S)-N-[(2S,3S)-4-[(2S)-2-[[(2S,3R)-1-[[(2S)-1-amino-3-methyl-1-oxobutan-2-yl]amino]-3-methyl-1-oxopentan-2-yl]carbamoyl]pyrrolidin-1-yl]-1-cyclohexyl-3-hydroxy-4-oxobutan-2-yl]-2-(furan-2-carbonylamino)butanediamide
> <PUBCHEM_IUPAC_SYSTEMATIC_NAME>
(2S)-N-[(2S,3S)-4-[(2S)-2-[[(2S,3R)-1-[[(2S)-1-azanyl-3-methyl-1-oxidanylidene-butan-2-yl]amino]-3-methyl-1-oxidanylidene-pentan-2-yl]carbamoyl]pyrrolidin-1-yl]-1-cyclohexyl-3-oxidanyl-4-oxidanylidene-butan-2-yl]-2-(furan-2-ylcarbonylamino)butanediamide
> <PUBCHEM_IUPAC_TRADITIONAL_NAME>
(2S)-N-[(1S,2S)-3-[(2S)-2-[[(1S,2R)-1-[[(1S)-1-carbamoyl-2-methyl-propyl]carbamoyl]-2-methyl-butyl]carbamoyl]pyrrolidino]-1-(cyclohexylmethyl)-2-hydroxy-3-keto-propyl]-2-(2-furoylamino)succinamide
> <PUBCHEM_IUPAC_INCHI>
InChI=1S/C35H55N7O9/c1-5-20(4)28(34(49)40-27(19(2)3)30(37)45)41-32(47)24-13-9-15-42(24)35(50)29(44)22(17-21-11-7-6-8-12-21)38-31(46)23(18-26(36)43)39-33(48)25-14-10-16-51-25/h10,14,16,19-24,27-29,44H,5-9,11-13,15,17-18H2,1-4H3,(H2,36,43)(H2,37,45)(H,38,46)(H,39,48)(H,40,49)(H,41,47)/t20-,22+,23+,24+,27+,28+,29+/m1/s1
> <PUBCHEM_IUPAC_INCHIKEY>
UHGGYQQDZKOICD-FKRGXANMSA-N
> <PUBCHEM_XLOGP3_AA>
2.1
> <PUBCHEM_EXACT_MASS>
717.40612636
> <PUBCHEM_MOLECULAR_FORMULA>
C35H55N7O9
> <PUBCHEM_MOLECULAR_WEIGHT>
717.9
> <PUBCHEM_OPENEYE_CAN_SMILES>
CCC(C)C(C(=O)NC(C(C)C)C(=O)N)NC(=O)C1CCCN1C(=O)C(C(CC2CCCCC2)NC(=O)C(CC(=O)N)NC(=O)C3=CC=CO3)O
> <PUBCHEM_OPENEYE_ISO_SMILES>
CC[C@@H](C)[C@@H](C(=O)N[C@@H](C(C)C)C(=O)N)NC(=O)[C@@H]1CCCN1C(=O)[C@H]([C@H](CC2CCCCC2)NC(=O)[C@H](CC(=O)N)NC(=O)C3=CC=CO3)O
> <PUBCHEM_CACTVS_TPSA>
256
> <PUBCHEM_MONOISOTOPIC_WEIGHT>
717.40612636
> <PUBCHEM_TOTAL_CHARGE>
0
> <PUBCHEM_HEAVY_ATOM_COUNT>
51
> <PUBCHEM_ATOM_DEF_STEREO_COUNT>
7
> <PUBCHEM_ATOM_UDEF_STEREO_COUNT>
0
> <PUBCHEM_BOND_DEF_STEREO_COUNT>
0
> <PUBCHEM_BOND_UDEF_STEREO_COUNT>
0
> <PUBCHEM_ISOTOPIC_ATOM_COUNT>
0
> <PUBCHEM_COMPONENT_COUNT>
1
> <PUBCHEM_CACTVS_TAUTO_COUNT>
-1
> <PUBCHEM_COORDINATE_TYPE>
1
5
255
> <PUBCHEM_BONDANNOTATIONS>
25  1  5
21  11  5
33  12  5
35  13  5
40  14  6
26  31  6
34  38  6
48  49  8
49  50  8
50  51  8
9  48  8
9  51  8
$$$$
