501782
  -OEChem-10302200282D
 96 99  0     1  0  0  0  0  0999 V2000
    3.5827   -1.7673    0.0000 O   0  0  0  0  0  0  0  0  0  0  0  0
    5.3147    0.2327    0.0000 O   0  0  0  0  0  0  0  0  0  0  0  0
    5.1724    1.5873    0.0000 O   0  0  0  0  0  0  0  0  0  0  0  0
    7.0468   -2.7673    0.0000 O   0  0  0  0  0  0  0  0  0  0  0  0
    7.9128   -3.2673    0.0000 O   0  0  0  0  0  0  0  0  0  0  0  0
    9.6448   -0.2673    0.0000 O   0  0  0  0  0  0  0  0  0  0  0  0
    9.6448    1.7327    0.0000 O   0  0  0  0  0  0  0  0  0  0  0  0
    3.5827    0.2327    0.0000 N   0  0  0  0  0  0  0  0  0  0  0  0
    6.1808   -1.2673    0.0000 N   0  0  0  0  0  0  0  0  0  0  0  0
    4.0134    2.8745    0.0000 N   0  0  0  0  0  0  0  0  0  0  0  0
    7.9128   -0.2673    0.0000 N   0  0  0  0  0  0  0  0  0  0  0  0
    9.6448   -3.2673    0.0000 N   0  0  0  0  0  0  0  0  0  0  0  0
    4.4487   -3.2673    0.0000 C   0  0  0  0  0  0  0  0  0  0  0  0
    5.3147   -2.7673    0.0000 C   0  0  0  0  0  0  0  0  0  0  0  0
    4.4487   -4.2673    0.0000 C   0  0  0  0  0  0  0  0  0  0  0  0
    3.5827   -2.7673    0.0000 C   0  0  0  0  0  0  0  0  0  0  0  0
    5.3147   -1.7673    0.0000 C   0  0  1  0  0  0  0  0  0  0  0  0
    3.5827   -4.7673    0.0000 C   0  0  0  0  0  0  0  0  0  0  0  0
    2.7166   -3.2673    0.0000 C   0  0  0  0  0  0  0  0  0  0  0  0
    2.7166   -4.2673    0.0000 C   0  0  0  0  0  0  0  0  0  0  0  0
    4.4487   -1.2673    0.0000 C   0  0  1  0  0  0  0  0  0  0  0  0
    3.4782    1.2272    0.0000 C   0  0  1  0  0  0  0  0  0  0  0  0
    2.5000    1.4351    0.0000 C   0  0  0  0  0  0  0  0  0  0  0  0
    2.6691   -0.1741    0.0000 C   0  0  0  0  0  0  0  0  0  0  0  0
    4.4487   -0.2673    0.0000 C   0  0  0  0  0  0  0  0  0  0  0  0
    2.0000    0.5691    0.0000 C   0  0  0  0  0  0  0  0  0  0  0  0
    4.2213    1.8963    0.0000 C   0  0  0  0  0  0  0  0  0  0  0  0
    7.0468   -1.7673    0.0000 C   0  0  0  0  0  0  0  0  0  0  0  0
    3.0623    3.1835    0.0000 C   0  0  0  0  0  0  0  0  0  0  0  0
    7.9128   -1.2673    0.0000 C   0  0  2  0  0  0  0  0  0  0  0  0
    8.7788   -1.7673    0.0000 C   0  0  0  0  0  0  0  0  0  0  0  0
    2.1113    3.4925    0.0000 C   0  0  0  0  0  0  0  0  0  0  0  0
    3.3713    4.1345    0.0000 C   0  0  0  0  0  0  0  0  0  0  0  0
    2.7533    2.2324    0.0000 C   0  0  0  0  0  0  0  0  0  0  0  0
    8.7788   -2.7673    0.0000 C   0  0  0  0  0  0  0  0  0  0  0  0
    8.7788    0.2327    0.0000 C   0  0  0  0  0  0  0  0  0  0  0  0
    8.7788    1.2327    0.0000 C   0  0  0  0  0  0  0  0  0  0  0  0
    9.6448    2.7327    0.0000 C   0  0  0  0  0  0  0  0  0  0  0  0
   10.5109    3.2327    0.0000 C   0  0  0  0  0  0  0  0  0  0  0  0
    8.7788    3.2327    0.0000 C   0  0  0  0  0  0  0  0  0  0  0  0
   10.5109    4.2327    0.0000 C   0  0  0  0  0  0  0  0  0  0  0  0
   11.4048    2.6980    0.0000 C   0  0  0  0  0  0  0  0  0  0  0  0
    8.7788    4.2327    0.0000 C   0  0  0  0  0  0  0  0  0  0  0  0
    9.6448    4.7327    0.0000 C   0  0  0  0  0  0  0  0  0  0  0  0
   11.4048    4.7673    0.0000 C   0  0  0  0  0  0  0  0  0  0  0  0
   12.3109    3.2118    0.0000 C   0  0  0  0  0  0  0  0  0  0  0  0
   12.3109    4.2535    0.0000 C   0  0  0  0  0  0  0  0  0  0  0  0
    4.9856   -3.5773    0.0000 H   0  0  0  0  0  0  0  0  0  0  0  0
    5.5268   -3.3499    0.0000 H   0  0  0  0  0  0  0  0  0  0  0  0
    5.9253   -2.6597    0.0000 H   0  0  0  0  0  0  0  0  0  0  0  0
    4.6608   -4.8499    0.0000 H   0  0  0  0  0  0  0  0  0  0  0  0
    5.0593   -4.1597    0.0000 H   0  0  0  0  0  0  0  0  0  0  0  0
    3.9812   -2.2924    0.0000 H   0  0  0  0  0  0  0  0  0  0  0  0
    3.1841   -2.2924    0.0000 H   0  0  0  0  0  0  0  0  0  0  0  0
    5.3147   -1.1473    0.0000 H   0  0  0  0  0  0  0  0  0  0  0  0
    3.1841   -5.2423    0.0000 H   0  0  0  0  0  0  0  0  0  0  0  0
    3.9812   -5.2423    0.0000 H   0  0  0  0  0  0  0  0  0  0  0  0
    2.5046   -2.6847    0.0000 H   0  0  0  0  0  0  0  0  0  0  0  0
    2.1061   -3.3750    0.0000 H   0  0  0  0  0  0  0  0  0  0  0  0
    2.1061   -4.1597    0.0000 H   0  0  0  0  0  0  0  0  0  0  0  0
    2.5046   -4.8499    0.0000 H   0  0  0  0  0  0  0  0  0  0  0  0
    3.9118   -0.9573    0.0000 H   0  0  0  0  0  0  0  0  0  0  0  0
    4.0570    1.0050    0.0000 H   0  0  0  0  0  0  0  0  0  0  0  0
    2.6916    2.0248    0.0000 H   0  0  0  0  0  0  0  0  0  0  0  0
    1.9336    1.6873    0.0000 H   0  0  0  0  0  0  0  0  0  0  0  0
    2.1675   -0.5385    0.0000 H   0  0  0  0  0  0  0  0  0  0  0  0
    2.9791   -0.7110    0.0000 H   0  0  0  0  0  0  0  0  0  0  0  0
    1.4984    0.9335    0.0000 H   0  0  0  0  0  0  0  0  0  0  0  0
    1.5851    0.1083    0.0000 H   0  0  0  0  0  0  0  0  0  0  0  0
    6.1808   -0.6473    0.0000 H   0  0  0  0  0  0  0  0  0  0  0  0
    3.0457   -1.4573    0.0000 H   0  0  0  0  0  0  0  0  0  0  0  0
    4.4741    3.2893    0.0000 H   0  0  0  0  0  0  0  0  0  0  0  0
    8.4497   -0.9573    0.0000 H   0  0  0  0  0  0  0  0  0  0  0  0
    9.3894   -1.8750    0.0000 H   0  0  0  0  0  0  0  0  0  0  0  0
    8.9909   -1.1847    0.0000 H   0  0  0  0  0  0  0  0  0  0  0  0
    2.3029    4.0822    0.0000 H   0  0  0  0  0  0  0  0  0  0  0  0
    1.5216    3.6841    0.0000 H   0  0  0  0  0  0  0  0  0  0  0  0
    1.9197    2.9028    0.0000 H   0  0  0  0  0  0  0  0  0  0  0  0
    3.9610    3.9430    0.0000 H   0  0  0  0  0  0  0  0  0  0  0  0
    3.5629    4.7242    0.0000 H   0  0  0  0  0  0  0  0  0  0  0  0
    2.7817    4.3261    0.0000 H   0  0  0  0  0  0  0  0  0  0  0  0
    2.1636    2.4240    0.0000 H   0  0  0  0  0  0  0  0  0  0  0  0
    2.5617    1.6428    0.0000 H   0  0  0  0  0  0  0  0  0  0  0  0
    3.3430    2.0408    0.0000 H   0  0  0  0  0  0  0  0  0  0  0  0
    7.3759    0.0427    0.0000 H   0  0  0  0  0  0  0  0  0  0  0  0
    8.5668    1.8153    0.0000 H   0  0  0  0  0  0  0  0  0  0  0  0
    8.1682    1.1250    0.0000 H   0  0  0  0  0  0  0  0  0  0  0  0
    9.6448   -3.8873    0.0000 H   0  0  0  0  0  0  0  0  0  0  0  0
   10.1818   -2.9573    0.0000 H   0  0  0  0  0  0  0  0  0  0  0  0
    8.2419    2.9227    0.0000 H   0  0  0  0  0  0  0  0  0  0  0  0
   11.3977    2.0780    0.0000 H   0  0  0  0  0  0  0  0  0  0  0  0
    8.2419    4.5427    0.0000 H   0  0  0  0  0  0  0  0  0  0  0  0
    9.6448    5.3527    0.0000 H   0  0  0  0  0  0  0  0  0  0  0  0
   11.3977    5.3873    0.0000 H   0  0  0  0  0  0  0  0  0  0  0  0
   12.8466    2.8998    0.0000 H   0  0  0  0  0  0  0  0  0  0  0  0
   12.8466    4.5656    0.0000 H   0  0  0  0  0  0  0  0  0  0  0  0
 21  1  1  6  0  0  0
  1 71  1  0  0  0  0
  2 25  2  0  0  0  0
  3 27  2  0  0  0  0
  4 28  2  0  0  0  0
  5 35  2  0  0  0  0
  6 36  2  0  0  0  0
  7 37  1  0  0  0  0
  7 38  1  0  0  0  0
  8 22  1  0  0  0  0
  8 24  1  0  0  0  0
  8 25  1  0  0  0  0
 17  9  1  1  0  0  0
  9 28  1  0  0  0  0
  9 70  1  0  0  0  0
 10 27  1  0  0  0  0
 10 29  1  0  0  0  0
 10 72  1  0  0  0  0
 30 11  1  1  0  0  0
 11 36  1  0  0  0  0
 11 85  1  0  0  0  0
 12 35  1  0  0  0  0
 12 88  1  0  0  0  0
 12 89  1  0  0  0  0
 13 14  1  0  0  0  0
 13 15  1  0  0  0  0
 13 16  1  0  0  0  0
 13 48  1  0  0  0  0
 14 17  1  0  0  0  0
 14 49  1  0  0  0  0
 14 50  1  0  0  0  0
 15 18  1  0  0  0  0
 15 51  1  0  0  0  0
 15 52  1  0  0  0  0
 16 19  1  0  0  0  0
 16 53  1  0  0  0  0
 16 54  1  0  0  0  0
 17 21  1  0  0  0  0
 17 55  1  0  0  0  0
 18 20  1  0  0  0  0
 18 56  1  0  0  0  0
 18 57  1  0  0  0  0
 19 20  1  0  0  0  0
 19 58  1  0  0  0  0
 19 59  1  0  0  0  0
 20 60  1  0  0  0  0
 20 61  1  0  0  0  0
 21 25  1  0  0  0  0
 21 62  1  0  0  0  0
 22 23  1  0  0  0  0
 22 27  1  1  0  0  0
 22 63  1  0  0  0  0
 23 26  1  0  0  0  0
 23 64  1  0  0  0  0
 23 65  1  0  0  0  0
 24 26  1  0  0  0  0
 24 66  1  0  0  0  0
 24 67  1  0  0  0  0
 26 68  1  0  0  0  0
 26 69  1  0  0  0  0
 28 30  1  0  0  0  0
 29 32  1  0  0  0  0
 29 33  1  0  0  0  0
 29 34  1  0  0  0  0
 30 31  1  0  0  0  0
 30 73  1  0  0  0  0
 31 35  1  0  0  0  0
 31 74  1  0  0  0  0
 31 75  1  0  0  0  0
 32 76  1  0  0  0  0
 32 77  1  0  0  0  0
 32 78  1  0  0  0  0
 33 79  1  0  0  0  0
 33 80  1  0  0  0  0
 33 81  1  0  0  0  0
 34 82  1  0  0  0  0
 34 83  1  0  0  0  0
 34 84  1  0  0  0  0
 36 37  1  0  0  0  0
 37 86  1  0  0  0  0
 37 87  1  0  0  0  0
 38 39  1  0  0  0  0
 38 40  2  0  0  0  0
 39 41  1  0  0  0  0
 39 42  2  0  0  0  0
 40 43  1  0  0  0  0
 40 90  1  0  0  0  0
 41 44  1  0  0  0  0
 41 45  2  0  0  0  0
 42 46  1  0  0  0  0
 42 91  1  0  0  0  0
 43 44  2  0  0  0  0
 43 92  1  0  0  0  0
 44 93  1  0  0  0  0
 45 47  1  0  0  0  0
 45 94  1  0  0  0  0
 46 47  2  0  0  0  0
 46 95  1  0  0  0  0
 47 96  1  0  0  0  0
M  END
> <PUBCHEM_COMPOUND_CID>
501782
> <PUBCHEM_COMPOUND_CANONICALIZED>
1
> <PUBCHEM_CACTVS_COMPLEXITY>
1100
> <PUBCHEM_CACTVS_HBOND_ACCEPTOR>
7
> <PUBCHEM_CACTVS_HBOND_DONOR>
5
> <PUBCHEM_CACTVS_ROTATABLE_BOND>
14
> <PUBCHEM_CACTVS_SUBSKEYS>
AAADcfB/uAAAAAAAAAAAAAAAAAAAAWAAAAAwYMAAAAAAAADBUAAAHgAQCAAADbzhmAYyBsPABgCIAiFSEAICCAAgIAAIiIHOCIgOdjqE8T6XeCCk1hGYqAedybCOgAABAAAYAAAAAAIAADAAAAAAAAAAAA==
> <PUBCHEM_IUPAC_OPENEYE_NAME>
(2S)-N-[(1S,2S)-3-[(2S)-2-(tert-butylcarbamoyl)pyrrolidin-1-yl]-1-(cyclohexylmethyl)-2-hydroxy-3-oxo-propyl]-2-[[2-(1-naphthyloxy)acetyl]amino]butanediamide
> <PUBCHEM_IUPAC_CAS_NAME>
(2S)-N-[(2S,3S)-4-[(2S)-2-[(tert-butylamino)-oxomethyl]-1-pyrrolidinyl]-1-cyclohexyl-3-hydroxy-4-oxobutan-2-yl]-2-[[2-(1-naphthalenyloxy)-1-oxoethyl]amino]butanediamide
> <PUBCHEM_IUPAC_NAME_MARKUP>
(2<I>S</I>)-<I>N</I>-[(2<I>S</I>,3<I>S</I>)-4-[(2<I>S</I>)-2-(<I>tert</I>-butylcarbamoyl)pyrrolidin-1-yl]-1-cyclohexyl-3-hydroxy-4-oxobutan-2-yl]-2-[(2-naphthalen-1-yloxyacetyl)amino]butanediamide
> <PUBCHEM_IUPAC_NAME>
(2S)-N-[(2S,3S)-4-[(2S)-2-(tert-butylcarbamoyl)pyrrolidin-1-yl]-1-cyclohexyl-3-hydroxy-4-oxobutan-2-yl]-2-[(2-naphthalen-1-yloxyacetyl)amino]butanediamide
> <PUBCHEM_IUPAC_SYSTEMATIC_NAME>
(2S)-N-[(2S,3S)-4-[(2S)-2-(tert-butylcarbamoyl)pyrrolidin-1-yl]-1-cyclohexyl-3-oxidanyl-4-oxidanylidene-butan-2-yl]-2-(2-naphthalen-1-yloxyethanoylamino)butanediamide
> <PUBCHEM_IUPAC_TRADITIONAL_NAME>
(2S)-N-[(1S,2S)-3-[(2S)-2-(tert-butylcarbamoyl)pyrrolidino]-1-(cyclohexylmethyl)-2-hydroxy-3-keto-propyl]-2-[[2-(1-naphthoxy)acetyl]amino]succinamide
> <PUBCHEM_IUPAC_INCHI>
InChI=1S/C35H49N5O7/c1-35(2,3)39-33(45)27-16-10-18-40(27)34(46)31(43)25(19-22-11-5-4-6-12-22)38-32(44)26(20-29(36)41)37-30(42)21-47-28-17-9-14-23-13-7-8-15-24(23)28/h7-9,13-15,17,22,25-27,31,43H,4-6,10-12,16,18-21H2,1-3H3,(H2,36,41)(H,37,42)(H,38,44)(H,39,45)/t25-,26-,27-,31-/m0/s1
> <PUBCHEM_IUPAC_INCHIKEY>
OMPWKFNJLOPAEL-QEETYVBOSA-N
> <PUBCHEM_XLOGP3_AA>
3.6
> <PUBCHEM_EXACT_MASS>
651.36319892
> <PUBCHEM_MOLECULAR_FORMULA>
C35H49N5O7
> <PUBCHEM_MOLECULAR_WEIGHT>
651.8
> <PUBCHEM_OPENEYE_CAN_SMILES>
CC(C)(C)NC(=O)C1CCCN1C(=O)C(C(CC2CCCCC2)NC(=O)C(CC(=O)N)NC(=O)COC3=CC=CC4=CC=CC=C43)O
> <PUBCHEM_OPENEYE_ISO_SMILES>
CC(C)(C)NC(=O)[C@@H]1CCCN1C(=O)[C@H]([C@H](CC2CCCCC2)NC(=O)[C@H](CC(=O)N)NC(=O)COC3=CC=CC4=CC=CC=C43)O
> <PUBCHEM_CACTVS_TPSA>
180
> <PUBCHEM_MONOISOTOPIC_WEIGHT>
651.36319892
> <PUBCHEM_TOTAL_CHARGE>
0
> <PUBCHEM_HEAVY_ATOM_COUNT>
47
> <PUBCHEM_ATOM_DEF_STEREO_COUNT>
4
> <PUBCHEM_ATOM_UDEF_STEREO_COUNT>
0
> <PUBCHEM_BOND_DEF_STEREO_COUNT>
0
> <PUBCHEM_BOND_UDEF_STEREO_COUNT>
0
> <PUBCHEM_ISOTOPIC_ATOM_COUNT>
0
> <PUBCHEM_COMPONENT_COUNT>
1
> <PUBCHEM_CACTVS_TAUTO_COUNT>
-1
> <PUBCHEM_COORDINATE_TYPE>
1
5
255
> <PUBCHEM_BONDANNOTATIONS>
21  1  6
30  11  5
22  27  5
38  39  8
38  40  8
39  41  8
39  42  8
40  43  8
41  44  8
41  45  8
42  46  8
43  44  8
45  47  8
46  47  8
17  9  5
$$$$
