501726
  -OEChem-10302200282D
112113  0     1  0  0  0  0  0999 V2000
    8.0622   -1.5600    0.0000 O   0  0  0  0  0  0  0  0  0  0  0  0
    8.9282   -2.0600    0.0000 O   0  0  0  0  0  0  0  0  0  0  0  0
    5.4641   -2.0600    0.0000 O   0  0  0  0  0  0  0  0  0  0  0  0
    4.5981    1.4400    0.0000 O   0  0  0  0  0  0  0  0  0  0  0  0
    8.0622    2.4400    0.0000 O   0  0  0  0  0  0  0  0  0  0  0  0
   11.5263   -4.5600    0.0000 O   0  0  0  0  0  0  0  0  0  0  0  0
    7.1962    5.9400    0.0000 O   0  0  0  0  0  0  0  0  0  0  0  0
    8.0622   -3.5600    0.0000 N   0  0  0  0  0  0  0  0  0  0  0  0
   10.6603   -3.0600    0.0000 N   0  0  0  0  0  0  0  0  0  0  0  0
    6.3301    1.4400    0.0000 N   0  0  0  0  0  0  0  0  0  0  0  0
    6.3301   -0.5600    0.0000 N   0  0  0  0  0  0  0  0  0  0  0  0
    7.1962    3.9400    0.0000 N   0  0  0  0  0  0  0  0  0  0  0  0
   13.2583   -3.5600    0.0000 N   0  0  0  0  0  0  0  0  0  0  0  0
    8.9282    5.9400    0.0000 N   0  0  0  0  0  0  0  0  0  0  0  0
    7.1962   -3.0600    0.0000 C   0  0  2  0  0  0  0  0  0  0  0  0
    9.7942   -3.5600    0.0000 C   0  0  1  0  0  0  0  0  0  0  0  0
    9.7942   -4.5600    0.0000 C   0  0  0  0  0  0  0  0  0  0  0  0
    7.1962   -2.0600    0.0000 C   0  0  1  0  0  0  0  0  0  0  0  0
    6.3301    2.4400    0.0000 C   0  0  1  0  0  0  0  0  0  0  0  0
    6.3301   -3.5600    0.0000 C   0  0  0  0  0  0  0  0  0  0  0  0
    5.4641    2.9400    0.0000 C   0  0  0  0  0  0  0  0  0  0  0  0
    5.4641   -0.0600    0.0000 C   0  0  2  0  0  0  0  0  0  0  0  0
    8.9282   -3.0600    0.0000 C   0  0  0  0  0  0  0  0  0  0  0  0
    6.3301   -1.5600    0.0000 C   0  0  0  0  0  0  0  0  0  0  0  0
    8.0622    4.4400    0.0000 C   0  0  1  0  0  0  0  0  0  0  0  0
    5.4641    0.9400    0.0000 C   0  0  0  0  0  0  0  0  0  0  0  0
    7.1962    2.9400    0.0000 C   0  0  0  0  0  0  0  0  0  0  0  0
   12.3923   -3.0600    0.0000 C   0  0  1  0  0  0  0  0  0  0  0  0
    4.5981   -0.5600    0.0000 C   0  0  0  0  0  0  0  0  0  0  0  0
   10.6603   -5.0600    0.0000 C   0  0  0  0  0  0  0  0  0  0  0  0
    8.9282   -5.0600    0.0000 C   0  0  0  0  0  0  0  0  0  0  0  0
    8.9282    3.9400    0.0000 C   0  0  0  0  0  0  0  0  0  0  0  0
   12.3923   -2.0600    0.0000 C   0  0  0  0  0  0  0  0  0  0  0  0
    6.3301   -4.5600    0.0000 C   0  0  0  0  0  0  0  0  0  0  0  0
   11.5263   -3.5600    0.0000 C   0  0  0  0  0  0  0  0  0  0  0  0
    5.4641    3.9400    0.0000 C   0  0  0  0  0  0  0  0  0  0  0  0
    4.5981    2.4400    0.0000 C   0  0  0  0  0  0  0  0  0  0  0  0
    3.7320   -0.0600    0.0000 C   0  0  0  0  0  0  0  0  0  0  0  0
    9.7942    4.4400    0.0000 C   0  0  0  0  0  0  0  0  0  0  0  0
    8.9282    2.9400    0.0000 C   0  0  0  0  0  0  0  0  0  0  0  0
   13.2583   -1.5600    0.0000 C   0  0  0  0  0  0  0  0  0  0  0  0
   11.5263   -1.5600    0.0000 C   0  0  0  0  0  0  0  0  0  0  0  0
    8.0622    5.4400    0.0000 C   0  0  0  0  0  0  0  0  0  0  0  0
    5.4641   -5.0600    0.0000 C   0  0  0  0  0  0  0  0  0  0  0  0
    7.1962   -5.0600    0.0000 C   0  0  0  0  0  0  0  0  0  0  0  0
    2.8660   -0.5600    0.0000 C   0  0  0  0  0  0  0  0  0  0  0  0
    3.7320    0.9400    0.0000 C   0  0  0  0  0  0  0  0  0  0  0  0
    5.4641   -6.0600    0.0000 C   0  0  0  0  0  0  0  0  0  0  0  0
    7.1962   -6.0600    0.0000 C   0  0  0  0  0  0  0  0  0  0  0  0
    6.3301   -6.5600    0.0000 C   0  0  0  0  0  0  0  0  0  0  0  0
    2.0000   -0.0600    0.0000 C   0  0  0  0  0  0  0  0  0  0  0  0
    2.8660    1.4400    0.0000 C   0  0  0  0  0  0  0  0  0  0  0  0
    2.0000    0.9400    0.0000 C   0  0  0  0  0  0  0  0  0  0  0  0
    7.7331   -2.7500    0.0000 H   0  0  0  0  0  0  0  0  0  0  0  0
    9.7942   -2.9400    0.0000 H   0  0  0  0  0  0  0  0  0  0  0  0
    9.2573   -4.2500    0.0000 H   0  0  0  0  0  0  0  0  0  0  0  0
    7.1962   -1.4400    0.0000 H   0  0  0  0  0  0  0  0  0  0  0  0
    6.8671    2.1300    0.0000 H   0  0  0  0  0  0  0  0  0  0  0  0
    6.1181   -2.9774    0.0000 H   0  0  0  0  0  0  0  0  0  0  0  0
    5.7196   -3.6677    0.0000 H   0  0  0  0  0  0  0  0  0  0  0  0
    5.4641    2.3200    0.0000 H   0  0  0  0  0  0  0  0  0  0  0  0
    8.0622   -4.1800    0.0000 H   0  0  0  0  0  0  0  0  0  0  0  0
    5.4641   -0.6800    0.0000 H   0  0  0  0  0  0  0  0  0  0  0  0
   10.6603   -2.4400    0.0000 H   0  0  0  0  0  0  0  0  0  0  0  0
    6.8671    1.1300    0.0000 H   0  0  0  0  0  0  0  0  0  0  0  0
    8.0622    3.8200    0.0000 H   0  0  0  0  0  0  0  0  0  0  0  0
    6.8671   -0.2500    0.0000 H   0  0  0  0  0  0  0  0  0  0  0  0
   12.3923   -3.6800    0.0000 H   0  0  0  0  0  0  0  0  0  0  0  0
    4.1996   -1.0350    0.0000 H   0  0  0  0  0  0  0  0  0  0  0  0
    4.9966   -1.0350    0.0000 H   0  0  0  0  0  0  0  0  0  0  0  0
   10.3503   -5.5969    0.0000 H   0  0  0  0  0  0  0  0  0  0  0  0
   11.1972   -5.3700    0.0000 H   0  0  0  0  0  0  0  0  0  0  0  0
   10.9703   -4.5231    0.0000 H   0  0  0  0  0  0  0  0  0  0  0  0
    8.6182   -4.5231    0.0000 H   0  0  0  0  0  0  0  0  0  0  0  0
    8.3913   -5.3700    0.0000 H   0  0  0  0  0  0  0  0  0  0  0  0
    9.2382   -5.5969    0.0000 H   0  0  0  0  0  0  0  0  0  0  0  0
    9.4651    3.6300    0.0000 H   0  0  0  0  0  0  0  0  0  0  0  0
   11.8554   -2.3700    0.0000 H   0  0  0  0  0  0  0  0  0  0  0  0
    6.6592    4.2500    0.0000 H   0  0  0  0  0  0  0  0  0  0  0  0
    6.0841    3.9400    0.0000 H   0  0  0  0  0  0  0  0  0  0  0  0
    5.4641    4.5600    0.0000 H   0  0  0  0  0  0  0  0  0  0  0  0
    4.8441    3.9400    0.0000 H   0  0  0  0  0  0  0  0  0  0  0  0
    4.2881    2.9769    0.0000 H   0  0  0  0  0  0  0  0  0  0  0  0
    4.0611    2.1300    0.0000 H   0  0  0  0  0  0  0  0  0  0  0  0
    4.9081    1.9031    0.0000 H   0  0  0  0  0  0  0  0  0  0  0  0
    8.0622   -0.9400    0.0000 H   0  0  0  0  0  0  0  0  0  0  0  0
   10.1042    3.9031    0.0000 H   0  0  0  0  0  0  0  0  0  0  0  0
   10.3312    4.7500    0.0000 H   0  0  0  0  0  0  0  0  0  0  0  0
    9.4842    4.9769    0.0000 H   0  0  0  0  0  0  0  0  0  0  0  0
    8.3082    2.9400    0.0000 H   0  0  0  0  0  0  0  0  0  0  0  0
    8.9282    2.3200    0.0000 H   0  0  0  0  0  0  0  0  0  0  0  0
    9.5482    2.9400    0.0000 H   0  0  0  0  0  0  0  0  0  0  0  0
   13.5683   -2.0969    0.0000 H   0  0  0  0  0  0  0  0  0  0  0  0
   13.7953   -1.2500    0.0000 H   0  0  0  0  0  0  0  0  0  0  0  0
   12.9483   -1.0231    0.0000 H   0  0  0  0  0  0  0  0  0  0  0  0
   11.8363   -1.0231    0.0000 H   0  0  0  0  0  0  0  0  0  0  0  0
   10.9893   -1.2500    0.0000 H   0  0  0  0  0  0  0  0  0  0  0  0
   11.2163   -2.0969    0.0000 H   0  0  0  0  0  0  0  0  0  0  0  0
    4.9272   -4.7500    0.0000 H   0  0  0  0  0  0  0  0  0  0  0  0
    7.7331   -4.7500    0.0000 H   0  0  0  0  0  0  0  0  0  0  0  0
   13.7953   -3.2500    0.0000 H   0  0  0  0  0  0  0  0  0  0  0  0
   13.2583   -4.1800    0.0000 H   0  0  0  0  0  0  0  0  0  0  0  0
    2.8660   -1.1800    0.0000 H   0  0  0  0  0  0  0  0  0  0  0  0
    4.2690    1.2500    0.0000 H   0  0  0  0  0  0  0  0  0  0  0  0
    4.9272   -6.3700    0.0000 H   0  0  0  0  0  0  0  0  0  0  0  0
    7.7331   -6.3700    0.0000 H   0  0  0  0  0  0  0  0  0  0  0  0
    6.3301   -7.1800    0.0000 H   0  0  0  0  0  0  0  0  0  0  0  0
    8.9282    6.5600    0.0000 H   0  0  0  0  0  0  0  0  0  0  0  0
    9.4651    5.6300    0.0000 H   0  0  0  0  0  0  0  0  0  0  0  0
    1.4631   -0.3700    0.0000 H   0  0  0  0  0  0  0  0  0  0  0  0
    2.8660    2.0600    0.0000 H   0  0  0  0  0  0  0  0  0  0  0  0
    1.4631    1.2500    0.0000 H   0  0  0  0  0  0  0  0  0  0  0  0
 18  1  1  1  0  0  0
  1 86  1  0  0  0  0
  2 23  2  0  0  0  0
  3 24  2  0  0  0  0
  4 26  2  0  0  0  0
  5 27  2  0  0  0  0
  6 35  2  0  0  0  0
  7 43  2  0  0  0  0
 15  8  1  1  0  0  0
  8 23  1  0  0  0  0
  8 62  1  0  0  0  0
 16  9  1  1  0  0  0
  9 35  1  0  0  0  0
  9 64  1  0  0  0  0
 19 10  1  1  0  0  0
 10 26  1  0  0  0  0
 10 65  1  0  0  0  0
 22 11  1  1  0  0  0
 11 24  1  0  0  0  0
 11 67  1  0  0  0  0
 25 12  1  6  0  0  0
 12 27  1  0  0  0  0
 12 79  1  0  0  0  0
 28 13  1  6  0  0  0
 13101  1  0  0  0  0
 13102  1  0  0  0  0
 14 43  1  0  0  0  0
 14108  1  0  0  0  0
 14109  1  0  0  0  0
 15 18  1  0  0  0  0
 15 20  1  0  0  0  0
 15 54  1  0  0  0  0
 16 17  1  0  0  0  0
 16 23  1  0  0  0  0
 16 55  1  0  0  0  0
 17 30  1  0  0  0  0
 17 31  1  0  0  0  0
 17 56  1  0  0  0  0
 18 24  1  0  0  0  0
 18 57  1  0  0  0  0
 19 21  1  0  0  0  0
 19 27  1  0  0  0  0
 19 58  1  0  0  0  0
 20 34  1  0  0  0  0
 20 59  1  0  0  0  0
 20 60  1  0  0  0  0
 21 36  1  0  0  0  0
 21 37  1  0  0  0  0
 21 61  1  0  0  0  0
 22 26  1  0  0  0  0
 22 29  1  0  0  0  0
 22 63  1  0  0  0  0
 25 32  1  0  0  0  0
 25 43  1  0  0  0  0
 25 66  1  0  0  0  0
 28 33  1  0  0  0  0
 28 35  1  0  0  0  0
 28 68  1  0  0  0  0
 29 38  1  0  0  0  0
 29 69  1  0  0  0  0
 29 70  1  0  0  0  0
 30 71  1  0  0  0  0
 30 72  1  0  0  0  0
 30 73  1  0  0  0  0
 31 74  1  0  0  0  0
 31 75  1  0  0  0  0
 31 76  1  0  0  0  0
 32 39  1  0  0  0  0
 32 40  1  0  0  0  0
 32 77  1  0  0  0  0
 33 41  1  0  0  0  0
 33 42  1  0  0  0  0
 33 78  1  0  0  0  0
 34 44  2  0  0  0  0
 34 45  1  0  0  0  0
 36 80  1  0  0  0  0
 36 81  1  0  0  0  0
 36 82  1  0  0  0  0
 37 83  1  0  0  0  0
 37 84  1  0  0  0  0
 37 85  1  0  0  0  0
 38 46  2  0  0  0  0
 38 47  1  0  0  0  0
 39 87  1  0  0  0  0
 39 88  1  0  0  0  0
 39 89  1  0  0  0  0
 40 90  1  0  0  0  0
 40 91  1  0  0  0  0
 40 92  1  0  0  0  0
 41 93  1  0  0  0  0
 41 94  1  0  0  0  0
 41 95  1  0  0  0  0
 42 96  1  0  0  0  0
 42 97  1  0  0  0  0
 42 98  1  0  0  0  0
 44 48  1  0  0  0  0
 44 99  1  0  0  0  0
 45 49  2  0  0  0  0
 45100  1  0  0  0  0
 46 51  1  0  0  0  0
 46103  1  0  0  0  0
 47 52  2  0  0  0  0
 47104  1  0  0  0  0
 48 50  2  0  0  0  0
 48105  1  0  0  0  0
 49 50  1  0  0  0  0
 49106  1  0  0  0  0
 50107  1  0  0  0  0
 51 53  2  0  0  0  0
 51110  1  0  0  0  0
 52 53  1  0  0  0  0
 52111  1  0  0  0  0
 53112  1  0  0  0  0
M  END
> <PUBCHEM_COMPOUND_CID>
501726
> <PUBCHEM_COMPOUND_CANONICALIZED>
1
> <PUBCHEM_CACTVS_COMPLEXITY>
1210
> <PUBCHEM_CACTVS_HBOND_ACCEPTOR>
8
> <PUBCHEM_CACTVS_HBOND_DONOR>
8
> <PUBCHEM_CACTVS_ROTATABLE_BOND>
20
> <PUBCHEM_CACTVS_SUBSKEYS>
AAADcfB/uAAAAAAAAAAAAAAAAAAAAAAAAAAwYAAAAAAAAAABQAAAHgAQCAAADTzhmAYyAILAAgCIAiFSEAICAAAgAAAIiIHIAIgKcDqA0TGUYAAklgCYiAeYyKCOAAAAAAAAAAAAAAAAAAAAAAAAAAAAAA==
> <PUBCHEM_IUPAC_OPENEYE_NAME>
(2S)-2-amino-N-[(1S)-1-[[(1S,2S)-1-benzyl-3-[[(1S)-1-benzyl-2-[[(1S)-1-[[(1S)-1-carbamoyl-2-methyl-propyl]carbamoyl]-2-methyl-propyl]amino]-2-oxo-ethyl]amino]-2-hydroxy-3-oxo-propyl]carbamoyl]-2-methyl-propyl]-3-methyl-butanamide
> <PUBCHEM_IUPAC_CAS_NAME>
(2S)-2-amino-N-[(2S)-1-[[(2S,3S)-4-[[(2S)-1-[[(2S)-1-[[(2S)-1-amino-3-methyl-1-oxobutan-2-yl]amino]-3-methyl-1-oxobutan-2-yl]amino]-1-oxo-3-phenylpropan-2-yl]amino]-3-hydroxy-4-oxo-1-phenylbutan-2-yl]amino]-3-methyl-1-oxobutan-2-yl]-3-methylbutanamide
> <PUBCHEM_IUPAC_NAME_MARKUP>
(2<I>S</I>)-2-amino-<I>N</I>-[(2<I>S</I>)-1-[[(2<I>S</I>,3<I>S</I>)-4-[[(2<I>S</I>)-1-[[(2<I>S</I>)-1-[[(2<I>S</I>)-1-amino-3-methyl-1-oxobutan-2-yl]amino]-3-methyl-1-oxobutan-2-yl]amino]-1-oxo-3-phenylpropan-2-yl]amino]-3-hydroxy-4-oxo-1-phenylbutan-2-yl]amino]-3-methyl-1-oxobutan-2-yl]-3-methylbutanamide
> <PUBCHEM_IUPAC_NAME>
(2S)-2-amino-N-[(2S)-1-[[(2S,3S)-4-[[(2S)-1-[[(2S)-1-[[(2S)-1-amino-3-methyl-1-oxobutan-2-yl]amino]-3-methyl-1-oxobutan-2-yl]amino]-1-oxo-3-phenylpropan-2-yl]amino]-3-hydroxy-4-oxo-1-phenylbutan-2-yl]amino]-3-methyl-1-oxobutan-2-yl]-3-methylbutanamide
> <PUBCHEM_IUPAC_SYSTEMATIC_NAME>
(2S)-2-azanyl-N-[(2S)-1-[[(2S,3S)-4-[[(2S)-1-[[(2S)-1-[[(2S)-1-azanyl-3-methyl-1-oxidanylidene-butan-2-yl]amino]-3-methyl-1-oxidanylidene-butan-2-yl]amino]-1-oxidanylidene-3-phenyl-propan-2-yl]amino]-3-oxidanyl-4-oxidanylidene-1-phenyl-butan-2-yl]amino]-3-methyl-1-oxidanylidene-butan-2-yl]-3-methyl-butanamide
> <PUBCHEM_IUPAC_TRADITIONAL_NAME>
(2S)-2-amino-N-[(1S)-1-[[(1S,2S)-1-benzyl-3-[[(1S)-1-benzyl-2-[[(1S)-1-[[(1S)-1-carbamoyl-2-methyl-propyl]carbamoyl]-2-methyl-propyl]amino]-2-keto-ethyl]amino]-2-hydroxy-3-keto-propyl]carbamoyl]-2-methyl-propyl]-3-methyl-butyramide
> <PUBCHEM_IUPAC_INCHI>
InChI=1S/C39H59N7O7/c1-21(2)29(40)36(50)46-31(23(5)6)37(51)42-27(19-25-15-11-9-12-16-25)33(47)39(53)43-28(20-26-17-13-10-14-18-26)35(49)45-32(24(7)8)38(52)44-30(22(3)4)34(41)48/h9-18,21-24,27-33,47H,19-20,40H2,1-8H3,(H2,41,48)(H,42,51)(H,43,53)(H,44,52)(H,45,49)(H,46,50)/t27-,28-,29-,30-,31-,32-,33-/m0/s1
> <PUBCHEM_IUPAC_INCHIKEY>
DATNEINZWXPFRR-MRNVWEPHSA-N
> <PUBCHEM_XLOGP3_AA>
3.8
> <PUBCHEM_EXACT_MASS>
737.44759725
> <PUBCHEM_MOLECULAR_FORMULA>
C39H59N7O7
> <PUBCHEM_MOLECULAR_WEIGHT>
737.9
> <PUBCHEM_OPENEYE_CAN_SMILES>
CC(C)C(C(=O)NC(C(C)C)C(=O)NC(CC1=CC=CC=C1)C(C(=O)NC(CC2=CC=CC=C2)C(=O)NC(C(C)C)C(=O)NC(C(C)C)C(=O)N)O)N
> <PUBCHEM_OPENEYE_ISO_SMILES>
CC(C)[C@@H](C(=O)N[C@@H](C(C)C)C(=O)N[C@@H](CC1=CC=CC=C1)[C@@H](C(=O)N[C@@H](CC2=CC=CC=C2)C(=O)N[C@@H](C(C)C)C(=O)N[C@@H](C(C)C)C(=O)N)O)N
> <PUBCHEM_CACTVS_TPSA>
235
> <PUBCHEM_MONOISOTOPIC_WEIGHT>
737.44759725
> <PUBCHEM_TOTAL_CHARGE>
0
> <PUBCHEM_HEAVY_ATOM_COUNT>
53
> <PUBCHEM_ATOM_DEF_STEREO_COUNT>
7
> <PUBCHEM_ATOM_UDEF_STEREO_COUNT>
0
> <PUBCHEM_BOND_DEF_STEREO_COUNT>
0
> <PUBCHEM_BOND_UDEF_STEREO_COUNT>
0
> <PUBCHEM_ISOTOPIC_ATOM_COUNT>
0
> <PUBCHEM_COMPONENT_COUNT>
1
> <PUBCHEM_CACTVS_TAUTO_COUNT>
-1
> <PUBCHEM_COORDINATE_TYPE>
1
5
255
> <PUBCHEM_BONDANNOTATIONS>
18  1  5
19  10  5
22  11  5
25  12  6
28  13  6
34  44  8
34  45  8
38  46  8
38  47  8
44  48  8
45  49  8
46  51  8
47  52  8
48  50  8
49  50  8
51  53  8
52  53  8
15  8  5
16  9  5
$$$$
