501784
  -OEChem-10302200282D
 85 87  0     1  0  0  0  0  0999 V2000
    9.4702    1.0000    0.0000 O   0  0  0  0  0  0  0  0  0  0  0  0
    6.8721    0.5000    0.0000 O   0  0  0  0  0  0  0  0  0  0  0  0
    5.7702    1.3006    0.0000 O   0  0  0  0  0  0  0  0  0  0  0  0
    3.1249    1.3517    0.0000 O   0  0  0  0  0  0  0  0  0  0  0  0
   10.3362    0.5000    0.0000 O   0  0  0  0  0  0  0  0  0  0  0  0
   12.9343    1.0000    0.0000 O   0  0  0  0  0  0  0  0  0  0  0  0
   12.9343   -2.0000    0.0000 O   0  0  0  0  0  0  0  0  0  0  0  0
   11.2022    1.0000    0.0000 O   0  0  0  0  0  0  0  0  0  0  0  0
    7.7381    2.0000    0.0000 N   0  0  0  0  0  0  0  0  0  0  0  0
    5.2349    2.9479    0.0000 N   0  0  0  0  0  0  0  0  0  0  0  0
    9.4702   -1.0000    0.0000 N   0  0  0  0  0  0  0  0  0  0  0  0
    2.5896    2.9990    0.0000 N   0  0  0  0  0  0  0  0  0  0  0  0
   12.0683   -0.5000    0.0000 N   0  0  0  0  0  0  0  0  0  0  0  0
   12.0683   -3.5000    0.0000 N   0  0  0  0  0  0  0  0  0  0  0  0
    6.9291    2.5878    0.0000 C   0  0  1  0  0  0  0  0  0  0  0  0
    7.2381    3.5388    0.0000 C   0  0  0  0  0  0  0  0  0  0  0  0
    8.2381    3.5388    0.0000 C   0  0  0  0  0  0  0  0  0  0  0  0
    8.5472    2.5878    0.0000 C   0  0  0  0  0  0  0  0  0  0  0  0
    7.7381    1.0000    0.0000 C   0  0  0  0  0  0  0  0  0  0  0  0
    5.9781    2.2788    0.0000 C   0  0  0  0  0  0  0  0  0  0  0  0
    8.6042    0.5000    0.0000 C   0  0  2  0  0  0  0  0  0  0  0  0
    8.6042   -0.5000    0.0000 C   0  0  2  0  0  0  0  0  0  0  0  0
    4.2839    2.6389    0.0000 C   0  0  0  0  0  0  0  0  0  0  0  0
    7.7381   -1.0000    0.0000 C   0  0  0  0  0  0  0  0  0  0  0  0
    7.7381   -2.0000    0.0000 C   0  0  0  0  0  0  0  0  0  0  0  0
    3.9748    3.5899    0.0000 C   0  0  0  0  0  0  0  0  0  0  0  0
    4.5929    1.6878    0.0000 C   0  0  0  0  0  0  0  0  0  0  0  0
    3.3328    2.3299    0.0000 C   0  0  0  0  0  0  0  0  0  0  0  0
   10.3362   -0.5000    0.0000 C   0  0  0  0  0  0  0  0  0  0  0  0
   11.2022   -1.0000    0.0000 C   0  0  2  0  0  0  0  0  0  0  0  0
    8.6042   -2.5000    0.0000 C   0  0  0  0  0  0  0  0  0  0  0  0
    6.8721   -2.5000    0.0000 C   0  0  0  0  0  0  0  0  0  0  0  0
   11.2022   -2.0000    0.0000 C   0  0  0  0  0  0  0  0  0  0  0  0
    8.6042   -3.5000    0.0000 C   0  0  0  0  0  0  0  0  0  0  0  0
    6.8721   -3.5000    0.0000 C   0  0  0  0  0  0  0  0  0  0  0  0
    7.7381   -4.0000    0.0000 C   0  0  0  0  0  0  0  0  0  0  0  0
   12.0683   -2.5000    0.0000 C   0  0  0  0  0  0  0  0  0  0  0  0
   12.0683    0.5000    0.0000 C   0  0  0  0  0  0  0  0  0  0  0  0
   12.9343    2.0000    0.0000 C   0  0  0  0  0  0  0  0  0  0  0  0
   13.8003    2.5000    0.0000 C   0  0  0  0  0  0  0  0  0  0  0  0
   14.6663    2.0000    0.0000 C   0  0  0  0  0  0  0  0  0  0  0  0
   13.8003    3.5000    0.0000 C   0  0  0  0  0  0  0  0  0  0  0  0
   15.5324    2.5000    0.0000 C   0  0  0  0  0  0  0  0  0  0  0  0
   14.6663    4.0000    0.0000 C   0  0  0  0  0  0  0  0  0  0  0  0
   15.5324    3.5000    0.0000 C   0  0  0  0  0  0  0  0  0  0  0  0
    6.8321    1.9754    0.0000 H   0  0  0  0  0  0  0  0  0  0  0  0
    7.3029    4.1554    0.0000 H   0  0  0  0  0  0  0  0  0  0  0  0
    6.6317    3.6678    0.0000 H   0  0  0  0  0  0  0  0  0  0  0  0
    8.8446    3.6678    0.0000 H   0  0  0  0  0  0  0  0  0  0  0  0
    8.1733    4.1554    0.0000 H   0  0  0  0  0  0  0  0  0  0  0  0
    8.8572    2.0508    0.0000 H   0  0  0  0  0  0  0  0  0  0  0  0
    9.1136    2.8400    0.0000 H   0  0  0  0  0  0  0  0  0  0  0  0
    8.6042    1.1200    0.0000 H   0  0  0  0  0  0  0  0  0  0  0  0
    8.6042   -1.1200    0.0000 H   0  0  0  0  0  0  0  0  0  0  0  0
    5.3638    3.5544    0.0000 H   0  0  0  0  0  0  0  0  0  0  0  0
    7.5261   -0.4174    0.0000 H   0  0  0  0  0  0  0  0  0  0  0  0
    7.1276   -1.1077    0.0000 H   0  0  0  0  0  0  0  0  0  0  0  0
    9.4702   -1.6200    0.0000 H   0  0  0  0  0  0  0  0  0  0  0  0
    9.4702    1.6200    0.0000 H   0  0  0  0  0  0  0  0  0  0  0  0
    4.5645    3.7815    0.0000 H   0  0  0  0  0  0  0  0  0  0  0  0
    3.7832    4.1796    0.0000 H   0  0  0  0  0  0  0  0  0  0  0  0
    3.3852    3.3984    0.0000 H   0  0  0  0  0  0  0  0  0  0  0  0
    4.0032    1.4962    0.0000 H   0  0  0  0  0  0  0  0  0  0  0  0
    4.7845    1.0982    0.0000 H   0  0  0  0  0  0  0  0  0  0  0  0
    5.1825    1.8794    0.0000 H   0  0  0  0  0  0  0  0  0  0  0  0
   11.7392   -1.3100    0.0000 H   0  0  0  0  0  0  0  0  0  0  0  0
    9.1411   -2.1900    0.0000 H   0  0  0  0  0  0  0  0  0  0  0  0
    6.3352   -2.1900    0.0000 H   0  0  0  0  0  0  0  0  0  0  0  0
   10.5917   -1.8923    0.0000 H   0  0  0  0  0  0  0  0  0  0  0  0
   10.9902   -2.5826    0.0000 H   0  0  0  0  0  0  0  0  0  0  0  0
    2.0000    2.8074    0.0000 H   0  0  0  0  0  0  0  0  0  0  0  0
    2.7186    3.6054    0.0000 H   0  0  0  0  0  0  0  0  0  0  0  0
   12.6052   -0.8100    0.0000 H   0  0  0  0  0  0  0  0  0  0  0  0
    9.1411   -3.8100    0.0000 H   0  0  0  0  0  0  0  0  0  0  0  0
    6.3352   -3.8100    0.0000 H   0  0  0  0  0  0  0  0  0  0  0  0
    7.7381   -4.6200    0.0000 H   0  0  0  0  0  0  0  0  0  0  0  0
   12.6052   -3.8100    0.0000 H   0  0  0  0  0  0  0  0  0  0  0  0
   11.5313   -3.8100    0.0000 H   0  0  0  0  0  0  0  0  0  0  0  0
   12.7222    2.5826    0.0000 H   0  0  0  0  0  0  0  0  0  0  0  0
   12.3237    1.8923    0.0000 H   0  0  0  0  0  0  0  0  0  0  0  0
   14.6663    1.3800    0.0000 H   0  0  0  0  0  0  0  0  0  0  0  0
   13.2634    3.8100    0.0000 H   0  0  0  0  0  0  0  0  0  0  0  0
   16.0693    2.1900    0.0000 H   0  0  0  0  0  0  0  0  0  0  0  0
   14.6663    4.6200    0.0000 H   0  0  0  0  0  0  0  0  0  0  0  0
   16.0693    3.8100    0.0000 H   0  0  0  0  0  0  0  0  0  0  0  0
 21  1  1  1  0  0  0
  1 59  1  0  0  0  0
  2 19  2  0  0  0  0
  3 20  2  0  0  0  0
  4 28  2  0  0  0  0
  5 29  2  0  0  0  0
  6 38  1  0  0  0  0
  6 39  1  0  0  0  0
  7 37  2  0  0  0  0
  8 38  2  0  0  0  0
  9 15  1  0  0  0  0
  9 18  1  0  0  0  0
  9 19  1  0  0  0  0
 10 20  1  0  0  0  0
 10 23  1  0  0  0  0
 10 55  1  0  0  0  0
 22 11  1  1  0  0  0
 11 29  1  0  0  0  0
 11 58  1  0  0  0  0
 12 28  1  0  0  0  0
 12 71  1  0  0  0  0
 12 72  1  0  0  0  0
 30 13  1  1  0  0  0
 13 38  1  0  0  0  0
 13 73  1  0  0  0  0
 14 37  1  0  0  0  0
 14 77  1  0  0  0  0
 14 78  1  0  0  0  0
 15 16  1  0  0  0  0
 15 20  1  6  0  0  0
 15 46  1  0  0  0  0
 16 17  1  0  0  0  0
 16 47  1  0  0  0  0
 16 48  1  0  0  0  0
 17 18  1  0  0  0  0
 17 49  1  0  0  0  0
 17 50  1  0  0  0  0
 18 51  1  0  0  0  0
 18 52  1  0  0  0  0
 19 21  1  0  0  0  0
 21 22  1  0  0  0  0
 21 53  1  0  0  0  0
 22 24  1  0  0  0  0
 22 54  1  0  0  0  0
 23 26  1  0  0  0  0
 23 27  1  0  0  0  0
 23 28  1  0  0  0  0
 24 25  1  0  0  0  0
 24 56  1  0  0  0  0
 24 57  1  0  0  0  0
 25 31  2  0  0  0  0
 25 32  1  0  0  0  0
 26 60  1  0  0  0  0
 26 61  1  0  0  0  0
 26 62  1  0  0  0  0
 27 63  1  0  0  0  0
 27 64  1  0  0  0  0
 27 65  1  0  0  0  0
 29 30  1  0  0  0  0
 30 33  1  0  0  0  0
 30 66  1  0  0  0  0
 31 34  1  0  0  0  0
 31 67  1  0  0  0  0
 32 35  2  0  0  0  0
 32 68  1  0  0  0  0
 33 37  1  0  0  0  0
 33 69  1  0  0  0  0
 33 70  1  0  0  0  0
 34 36  2  0  0  0  0
 34 74  1  0  0  0  0
 35 36  1  0  0  0  0
 35 75  1  0  0  0  0
 36 76  1  0  0  0  0
 39 40  1  0  0  0  0
 39 79  1  0  0  0  0
 39 80  1  0  0  0  0
 40 41  2  0  0  0  0
 40 42  1  0  0  0  0
 41 43  1  0  0  0  0
 41 81  1  0  0  0  0
 42 44  2  0  0  0  0
 42 82  1  0  0  0  0
 43 45  2  0  0  0  0
 43 83  1  0  0  0  0
 44 45  1  0  0  0  0
 44 84  1  0  0  0  0
 45 85  1  0  0  0  0
M  END
> <PUBCHEM_COMPOUND_CID>
501784
> <PUBCHEM_COMPOUND_CANONICALIZED>
1
> <PUBCHEM_CACTVS_COMPLEXITY>
1070
> <PUBCHEM_CACTVS_HBOND_ACCEPTOR>
8
> <PUBCHEM_CACTVS_HBOND_DONOR>
6
> <PUBCHEM_CACTVS_ROTATABLE_BOND>
15
> <PUBCHEM_CACTVS_SUBSKEYS>
AAADcfB7vAAAAAAAAAAAAAAAAAAAAWAAAAAwYAAAAAAAAAABQAAAHgAQCAAADLzhmAYyCIPABgCIAiFSGAICAAAgAAAIiIHICIkKdjqA8TmccAAk1gGYqAedyaCOAAAAAAAAAAAAAAAAAAAAAAAAAAAAAA==
> <PUBCHEM_IUPAC_OPENEYE_NAME>
benzyl N-[(1S)-3-amino-1-[[(1S,2S)-3-[(2S)-2-[(2-amino-1,1-dimethyl-2-oxo-ethyl)carbamoyl]pyrrolidin-1-yl]-1-benzyl-2-hydroxy-3-oxo-propyl]carbamoyl]-3-oxo-propyl]carbamate
> <PUBCHEM_IUPAC_CAS_NAME>
N-[(2S)-4-amino-1-[[(2S,3S)-4-[(2S)-2-[[(1-amino-2-methyl-1-oxopropan-2-yl)amino]-oxomethyl]-1-pyrrolidinyl]-3-hydroxy-4-oxo-1-phenylbutan-2-yl]amino]-1,4-dioxobutan-2-yl]carbamic acid (phenylmethyl) ester
> <PUBCHEM_IUPAC_NAME_MARKUP>
benzyl <I>N</I>-[(2<I>S</I>)-4-amino-1-[[(2<I>S</I>,3<I>S</I>)-4-[(2<I>S</I>)-2-[(1-amino-2-methyl-1-oxopropan-2-yl)carbamoyl]pyrrolidin-1-yl]-3-hydroxy-4-oxo-1-phenylbutan-2-yl]amino]-1,4-dioxobutan-2-yl]carbamate
> <PUBCHEM_IUPAC_NAME>
benzyl N-[(2S)-4-amino-1-[[(2S,3S)-4-[(2S)-2-[(1-amino-2-methyl-1-oxopropan-2-yl)carbamoyl]pyrrolidin-1-yl]-3-hydroxy-4-oxo-1-phenylbutan-2-yl]amino]-1,4-dioxobutan-2-yl]carbamate
> <PUBCHEM_IUPAC_SYSTEMATIC_NAME>
(phenylmethyl) N-[(2S)-4-azanyl-1-[[(2S,3S)-4-[(2S)-2-[(1-azanyl-2-methyl-1-oxidanylidene-propan-2-yl)carbamoyl]pyrrolidin-1-yl]-3-oxidanyl-4-oxidanylidene-1-phenyl-butan-2-yl]amino]-1,4-bis(oxidanylidene)butan-2-yl]carbamate
> <PUBCHEM_IUPAC_TRADITIONAL_NAME>
N-[(1S)-3-amino-1-[[(1S,2S)-3-[(2S)-2-[(2-amino-2-keto-1,1-dimethyl-ethyl)carbamoyl]pyrrolidino]-1-benzyl-2-hydroxy-3-keto-propyl]carbamoyl]-3-keto-propyl]carbamic acid benzyl ester
> <PUBCHEM_IUPAC_INCHI>
InChI=1S/C31H40N6O8/c1-31(2,29(33)43)36-27(41)23-14-9-15-37(23)28(42)25(39)21(16-19-10-5-3-6-11-19)34-26(40)22(17-24(32)38)35-30(44)45-18-20-12-7-4-8-13-20/h3-8,10-13,21-23,25,39H,9,14-18H2,1-2H3,(H2,32,38)(H2,33,43)(H,34,40)(H,35,44)(H,36,41)/t21-,22-,23-,25-/m0/s1
> <PUBCHEM_IUPAC_INCHIKEY>
VKBCNYIROKBOHL-LCXINAFSSA-N
> <PUBCHEM_XLOGP3_AA>
0
> <PUBCHEM_EXACT_MASS>
624.29076226
> <PUBCHEM_MOLECULAR_FORMULA>
C31H40N6O8
> <PUBCHEM_MOLECULAR_WEIGHT>
624.7
> <PUBCHEM_OPENEYE_CAN_SMILES>
CC(C)(C(=O)N)NC(=O)C1CCCN1C(=O)C(C(CC2=CC=CC=C2)NC(=O)C(CC(=O)N)NC(=O)OCC3=CC=CC=C3)O
> <PUBCHEM_OPENEYE_ISO_SMILES>
CC(C)(C(=O)N)NC(=O)[C@@H]1CCCN1C(=O)[C@H]([C@H](CC2=CC=CC=C2)NC(=O)[C@H](CC(=O)N)NC(=O)OCC3=CC=CC=C3)O
> <PUBCHEM_CACTVS_TPSA>
223
> <PUBCHEM_MONOISOTOPIC_WEIGHT>
624.29076226
> <PUBCHEM_TOTAL_CHARGE>
0
> <PUBCHEM_HEAVY_ATOM_COUNT>
45
> <PUBCHEM_ATOM_DEF_STEREO_COUNT>
4
> <PUBCHEM_ATOM_UDEF_STEREO_COUNT>
0
> <PUBCHEM_BOND_DEF_STEREO_COUNT>
0
> <PUBCHEM_BOND_UDEF_STEREO_COUNT>
0
> <PUBCHEM_ISOTOPIC_ATOM_COUNT>
0
> <PUBCHEM_COMPONENT_COUNT>
1
> <PUBCHEM_CACTVS_TAUTO_COUNT>
-1
> <PUBCHEM_COORDINATE_TYPE>
1
5
255
> <PUBCHEM_BONDANNOTATIONS>
21  1  5
22  11  5
30  13  5
15  20  6
25  31  8
25  32  8
31  34  8
32  35  8
34  36  8
35  36  8
40  41  8
40  42  8
41  43  8
42  44  8
43  45  8
44  45  8
$$$$
