501799
  -OEChem-10302200282D
 93 96  0     1  0  0  0  0  0999 V2000
   11.2282    3.9244    0.0000 S   0  0  0  0  0  0  0  0  0  0  0  0
    8.7602    1.6862    0.0000 O   0  0  0  0  0  0  0  0  0  0  0  0
   12.4603    1.3856    0.0000 O   0  0  0  0  0  0  0  0  0  0  0  0
    9.8622    0.8856    0.0000 O   0  0  0  0  0  0  0  0  0  0  0  0
   11.5942   -2.1144    0.0000 O   0  0  0  0  0  0  0  0  0  0  0  0
   11.5942   -3.1144    0.0000 O   0  0  0  0  0  0  0  0  0  0  0  0
    8.1301   -3.1144    0.0000 O   0  0  0  0  0  0  0  0  0  0  0  0
    6.3981   -2.1144    0.0000 O   0  0  0  0  0  0  0  0  0  0  0  0
   10.7282    2.3856    0.0000 N   0  0  0  0  0  0  0  0  0  0  0  0
    8.2250    3.3335    0.0000 N   0  0  0  0  0  0  0  0  0  0  0  0
   10.7282   -0.6144    0.0000 N   0  0  0  0  0  0  0  0  0  0  0  0
    8.9962   -1.6144    0.0000 N   0  0  0  0  0  0  0  0  0  0  0  0
   10.7282   -4.6144    0.0000 N   0  0  0  0  0  0  0  0  0  0  0  0
    4.6660   -2.1144    0.0000 N   0  0  0  0  0  0  0  0  0  0  0  0
   10.2282    3.9244    0.0000 C   0  0  0  0  0  0  0  0  0  0  0  0
    9.9192    2.9734    0.0000 C   0  0  3  0  0  0  0  0  0  0  0  0
   11.5372    2.9734    0.0000 C   0  0  0  0  0  0  0  0  0  0  0  0
   10.2282    4.9244    0.0000 C   0  0  0  0  0  0  0  0  0  0  0  0
    9.2772    4.2334    0.0000 C   0  0  0  0  0  0  0  0  0  0  0  0
    8.9681    2.6644    0.0000 C   0  0  0  0  0  0  0  0  0  0  0  0
   10.7282    1.3856    0.0000 C   0  0  0  0  0  0  0  0  0  0  0  0
   11.5942    0.8856    0.0000 C   0  0  2  0  0  0  0  0  0  0  0  0
   11.5942   -0.1144    0.0000 C   0  0  2  0  0  0  0  0  0  0  0  0
    7.2739    3.0245    0.0000 C   0  0  0  0  0  0  0  0  0  0  0  0
   12.4603   -0.6144    0.0000 C   0  0  0  0  0  0  0  0  0  0  0  0
    6.3229    2.7154    0.0000 C   0  0  0  0  0  0  0  0  0  0  0  0
    6.9649    3.9755    0.0000 C   0  0  0  0  0  0  0  0  0  0  0  0
    7.5830    2.0734    0.0000 C   0  0  0  0  0  0  0  0  0  0  0  0
   13.3263   -0.1144    0.0000 C   0  0  0  0  0  0  0  0  0  0  0  0
   10.7282   -1.6144    0.0000 C   0  0  0  0  0  0  0  0  0  0  0  0
    9.8622   -2.1144    0.0000 C   0  0  2  0  0  0  0  0  0  0  0  0
   14.1923   -0.6144    0.0000 C   0  0  0  0  0  0  0  0  0  0  0  0
   13.3263    0.8856    0.0000 C   0  0  0  0  0  0  0  0  0  0  0  0
    9.8622   -3.1144    0.0000 C   0  0  0  0  0  0  0  0  0  0  0  0
   15.0583   -0.1144    0.0000 C   0  0  0  0  0  0  0  0  0  0  0  0
   14.1923    1.3856    0.0000 C   0  0  0  0  0  0  0  0  0  0  0  0
   15.0583    0.8856    0.0000 C   0  0  0  0  0  0  0  0  0  0  0  0
   10.7282   -3.6144    0.0000 C   0  0  0  0  0  0  0  0  0  0  0  0
    8.1301   -2.1144    0.0000 C   0  0  0  0  0  0  0  0  0  0  0  0
    7.2641   -1.6144    0.0000 C   0  0  0  0  0  0  0  0  0  0  0  0
    5.5321   -1.6144    0.0000 C   0  0  0  0  0  0  0  0  0  0  0  0
    5.5321   -0.6144    0.0000 C   0  0  0  0  0  0  0  0  0  0  0  0
    3.8000   -1.6144    0.0000 C   0  0  0  0  0  0  0  0  0  0  0  0
    3.8000   -0.6144    0.0000 C   0  0  0  0  0  0  0  0  0  0  0  0
    4.6660   -0.1144    0.0000 C   0  0  0  0  0  0  0  0  0  0  0  0
    2.9061   -2.1491    0.0000 C   0  0  0  0  0  0  0  0  0  0  0  0
    2.9061   -0.0798    0.0000 C   0  0  0  0  0  0  0  0  0  0  0  0
    2.0000   -1.6352    0.0000 C   0  0  0  0  0  0  0  0  0  0  0  0
    2.0000   -0.5936    0.0000 C   0  0  0  0  0  0  0  0  0  0  0  0
    9.8222    2.3610    0.0000 H   0  0  0  0  0  0  0  0  0  0  0  0
   11.8472    2.4364    0.0000 H   0  0  0  0  0  0  0  0  0  0  0  0
   12.1036    3.2255    0.0000 H   0  0  0  0  0  0  0  0  0  0  0  0
   10.8482    4.9244    0.0000 H   0  0  0  0  0  0  0  0  0  0  0  0
   10.2282    5.5444    0.0000 H   0  0  0  0  0  0  0  0  0  0  0  0
    9.6082    4.9244    0.0000 H   0  0  0  0  0  0  0  0  0  0  0  0
    9.4688    4.8231    0.0000 H   0  0  0  0  0  0  0  0  0  0  0  0
    8.6875    4.4250    0.0000 H   0  0  0  0  0  0  0  0  0  0  0  0
    9.0856    3.6438    0.0000 H   0  0  0  0  0  0  0  0  0  0  0  0
   11.5942    1.5056    0.0000 H   0  0  0  0  0  0  0  0  0  0  0  0
   11.0573    0.1956    0.0000 H   0  0  0  0  0  0  0  0  0  0  0  0
    8.3539    3.9399    0.0000 H   0  0  0  0  0  0  0  0  0  0  0  0
   12.0617   -1.0894    0.0000 H   0  0  0  0  0  0  0  0  0  0  0  0
   12.8588   -1.0894    0.0000 H   0  0  0  0  0  0  0  0  0  0  0  0
    6.1313    3.3051    0.0000 H   0  0  0  0  0  0  0  0  0  0  0  0
    5.7332    2.5238    0.0000 H   0  0  0  0  0  0  0  0  0  0  0  0
    6.5145    2.1258    0.0000 H   0  0  0  0  0  0  0  0  0  0  0  0
    7.5546    4.1671    0.0000 H   0  0  0  0  0  0  0  0  0  0  0  0
    6.7733    4.5652    0.0000 H   0  0  0  0  0  0  0  0  0  0  0  0
    6.3753    3.7839    0.0000 H   0  0  0  0  0  0  0  0  0  0  0  0
    6.9933    1.8818    0.0000 H   0  0  0  0  0  0  0  0  0  0  0  0
    7.7746    1.4837    0.0000 H   0  0  0  0  0  0  0  0  0  0  0  0
    8.1726    2.2650    0.0000 H   0  0  0  0  0  0  0  0  0  0  0  0
   10.1913   -0.3044    0.0000 H   0  0  0  0  0  0  0  0  0  0  0  0
   12.4603    2.0056    0.0000 H   0  0  0  0  0  0  0  0  0  0  0  0
    9.3252   -2.4244    0.0000 H   0  0  0  0  0  0  0  0  0  0  0  0
   14.1923   -1.2344    0.0000 H   0  0  0  0  0  0  0  0  0  0  0  0
   12.7894    1.1956    0.0000 H   0  0  0  0  0  0  0  0  0  0  0  0
    9.2516   -3.0068    0.0000 H   0  0  0  0  0  0  0  0  0  0  0  0
    9.6501   -3.6970    0.0000 H   0  0  0  0  0  0  0  0  0  0  0  0
    8.9962   -0.9944    0.0000 H   0  0  0  0  0  0  0  0  0  0  0  0
   15.5953   -0.4244    0.0000 H   0  0  0  0  0  0  0  0  0  0  0  0
   14.1923    2.0056    0.0000 H   0  0  0  0  0  0  0  0  0  0  0  0
   15.5953    1.1956    0.0000 H   0  0  0  0  0  0  0  0  0  0  0  0
    7.6626   -1.1395    0.0000 H   0  0  0  0  0  0  0  0  0  0  0  0
    6.8656   -1.1395    0.0000 H   0  0  0  0  0  0  0  0  0  0  0  0
   11.2651   -4.9244    0.0000 H   0  0  0  0  0  0  0  0  0  0  0  0
   10.1913   -4.9244    0.0000 H   0  0  0  0  0  0  0  0  0  0  0  0
    6.0690   -0.3044    0.0000 H   0  0  0  0  0  0  0  0  0  0  0  0
    4.6660    0.5056    0.0000 H   0  0  0  0  0  0  0  0  0  0  0  0
    2.9132   -2.7690    0.0000 H   0  0  0  0  0  0  0  0  0  0  0  0
    2.9132    0.5402    0.0000 H   0  0  0  0  0  0  0  0  0  0  0  0
    1.4643   -1.9473    0.0000 H   0  0  0  0  0  0  0  0  0  0  0  0
    1.4643   -0.2815    0.0000 H   0  0  0  0  0  0  0  0  0  0  0  0
  1 15  1  0  0  0  0
  1 17  1  0  0  0  0
  2 20  2  0  0  0  0
 22  3  1  1  0  0  0
  3 74  1  0  0  0  0
  4 21  2  0  0  0  0
  5 30  2  0  0  0  0
  6 38  2  0  0  0  0
  7 39  2  0  0  0  0
  8 40  1  0  0  0  0
  8 41  1  0  0  0  0
  9 16  1  0  0  0  0
  9 17  1  0  0  0  0
  9 21  1  0  0  0  0
 10 20  1  0  0  0  0
 10 24  1  0  0  0  0
 10 61  1  0  0  0  0
 23 11  1  6  0  0  0
 11 30  1  0  0  0  0
 11 73  1  0  0  0  0
 31 12  1  6  0  0  0
 12 39  1  0  0  0  0
 12 80  1  0  0  0  0
 13 38  1  0  0  0  0
 13 86  1  0  0  0  0
 13 87  1  0  0  0  0
 14 41  2  0  0  0  0
 14 43  1  0  0  0  0
 15 16  1  0  0  0  0
 15 18  1  0  0  0  0
 15 19  1  0  0  0  0
 16 20  1  0  0  0  0
 16 50  1  0  0  0  0
 17 51  1  0  0  0  0
 17 52  1  0  0  0  0
 18 53  1  0  0  0  0
 18 54  1  0  0  0  0
 18 55  1  0  0  0  0
 19 56  1  0  0  0  0
 19 57  1  0  0  0  0
 19 58  1  0  0  0  0
 21 22  1  0  0  0  0
 22 23  1  0  0  0  0
 22 59  1  0  0  0  0
 23 25  1  0  0  0  0
 23 60  1  0  0  0  0
 24 26  1  0  0  0  0
 24 27  1  0  0  0  0
 24 28  1  0  0  0  0
 25 29  1  0  0  0  0
 25 62  1  0  0  0  0
 25 63  1  0  0  0  0
 26 64  1  0  0  0  0
 26 65  1  0  0  0  0
 26 66  1  0  0  0  0
 27 67  1  0  0  0  0
 27 68  1  0  0  0  0
 27 69  1  0  0  0  0
 28 70  1  0  0  0  0
 28 71  1  0  0  0  0
 28 72  1  0  0  0  0
 29 32  2  0  0  0  0
 29 33  1  0  0  0  0
 30 31  1  0  0  0  0
 31 34  1  0  0  0  0
 31 75  1  0  0  0  0
 32 35  1  0  0  0  0
 32 76  1  0  0  0  0
 33 36  2  0  0  0  0
 33 77  1  0  0  0  0
 34 38  1  0  0  0  0
 34 78  1  0  0  0  0
 34 79  1  0  0  0  0
 35 37  2  0  0  0  0
 35 81  1  0  0  0  0
 36 37  1  0  0  0  0
 36 82  1  0  0  0  0
 37 83  1  0  0  0  0
 39 40  1  0  0  0  0
 40 84  1  0  0  0  0
 40 85  1  0  0  0  0
 41 42  1  0  0  0  0
 42 45  2  0  0  0  0
 42 88  1  0  0  0  0
 43 44  1  0  0  0  0
 43 46  2  0  0  0  0
 44 45  1  0  0  0  0
 44 47  2  0  0  0  0
 45 89  1  0  0  0  0
 46 48  1  0  0  0  0
 46 90  1  0  0  0  0
 47 49  1  0  0  0  0
 47 91  1  0  0  0  0
 48 49  2  0  0  0  0
 48 92  1  0  0  0  0
 49 93  1  0  0  0  0
M  END
> <PUBCHEM_COMPOUND_CID>
501799
> <PUBCHEM_COMPOUND_CANONICALIZED>
1
> <PUBCHEM_CACTVS_COMPLEXITY>
1190
> <PUBCHEM_CACTVS_HBOND_ACCEPTOR>
9
> <PUBCHEM_CACTVS_HBOND_DONOR>
5
> <PUBCHEM_CACTVS_ROTATABLE_BOND>
14
> <PUBCHEM_CACTVS_SUBSKEYS>
AAADcfB/uABAAAAAAAAAAAAAAAAAAWAAAAA8YIAAAAAAAACx9AAAHgQQCAAADLzh3gayxPPIFgioAyVyVAKCiCBhIjAImKH+bJgOdvrk8b+feCjk1hHY6Aed2KGOAAAAAAACAAAAAAAAAAQAAAAAAAAAAA==
> <PUBCHEM_IUPAC_OPENEYE_NAME>
(2S)-N-[(1S,2S)-1-benzyl-3-[4-(tert-butylcarbamoyl)-5,5-dimethyl-thiazolidin-3-yl]-2-hydroxy-3-oxo-propyl]-2-[[2-(2-quinolyloxy)acetyl]amino]butanediamide
> <PUBCHEM_IUPAC_CAS_NAME>
(2S)-N-[(2S,3S)-4-[4-[(tert-butylamino)-oxomethyl]-5,5-dimethyl-3-thiazolidinyl]-3-hydroxy-4-oxo-1-phenylbutan-2-yl]-2-[[1-oxo-2-(2-quinolinyloxy)ethyl]amino]butanediamide
> <PUBCHEM_IUPAC_NAME_MARKUP>
(2<I>S</I>)-<I>N</I>-[(2<I>S</I>,3<I>S</I>)-4-[4-(<I>tert</I>-butylcarbamoyl)-5,5-dimethyl-1,3-thiazolidin-3-yl]-3-hydroxy-4-oxo-1-phenylbutan-2-yl]-2-[(2-quinolin-2-yloxyacetyl)amino]butanediamide
> <PUBCHEM_IUPAC_NAME>
(2S)-N-[(2S,3S)-4-[4-(tert-butylcarbamoyl)-5,5-dimethyl-1,3-thiazolidin-3-yl]-3-hydroxy-4-oxo-1-phenylbutan-2-yl]-2-[(2-quinolin-2-yloxyacetyl)amino]butanediamide
> <PUBCHEM_IUPAC_SYSTEMATIC_NAME>
(2S)-N-[(2S,3S)-4-[4-(tert-butylcarbamoyl)-5,5-dimethyl-1,3-thiazolidin-3-yl]-3-oxidanyl-4-oxidanylidene-1-phenyl-butan-2-yl]-2-(2-quinolin-2-yloxyethanoylamino)butanediamide
> <PUBCHEM_IUPAC_TRADITIONAL_NAME>
(2S)-N-[(1S,2S)-1-benzyl-3-[4-(tert-butylcarbamoyl)-5,5-dimethyl-thiazolidin-3-yl]-2-hydroxy-3-keto-propyl]-2-[[2-(2-quinolyloxy)acetyl]amino]succinamide
> <PUBCHEM_IUPAC_INCHI>
InChI=1S/C35H44N6O7S/c1-34(2,3)40-32(46)30-35(4,5)49-20-41(30)33(47)29(44)24(17-21-11-7-6-8-12-21)39-31(45)25(18-26(36)42)37-27(43)19-48-28-16-15-22-13-9-10-14-23(22)38-28/h6-16,24-25,29-30,44H,17-20H2,1-5H3,(H2,36,42)(H,37,43)(H,39,45)(H,40,46)/t24-,25-,29-,30?/m0/s1
> <PUBCHEM_IUPAC_INCHIKEY>
IPJLSPMVYANPMS-VYKFGDEHSA-N
> <PUBCHEM_XLOGP3_AA>
2.5
> <PUBCHEM_EXACT_MASS>
692.29921894
> <PUBCHEM_MOLECULAR_FORMULA>
C35H44N6O7S
> <PUBCHEM_MOLECULAR_WEIGHT>
692.8
> <PUBCHEM_OPENEYE_CAN_SMILES>
CC1(C(N(CS1)C(=O)C(C(CC2=CC=CC=C2)NC(=O)C(CC(=O)N)NC(=O)COC3=NC4=CC=CC=C4C=C3)O)C(=O)NC(C)(C)C)C
> <PUBCHEM_OPENEYE_ISO_SMILES>
CC1(C(N(CS1)C(=O)[C@H]([C@H](CC2=CC=CC=C2)NC(=O)[C@H](CC(=O)N)NC(=O)COC3=NC4=CC=CC=C4C=C3)O)C(=O)NC(C)(C)C)C
> <PUBCHEM_CACTVS_TPSA>
218
> <PUBCHEM_MONOISOTOPIC_WEIGHT>
692.29921894
> <PUBCHEM_TOTAL_CHARGE>
0
> <PUBCHEM_HEAVY_ATOM_COUNT>
49
> <PUBCHEM_ATOM_DEF_STEREO_COUNT>
3
> <PUBCHEM_ATOM_UDEF_STEREO_COUNT>
1
> <PUBCHEM_BOND_DEF_STEREO_COUNT>
0
> <PUBCHEM_BOND_UDEF_STEREO_COUNT>
0
> <PUBCHEM_ISOTOPIC_ATOM_COUNT>
0
> <PUBCHEM_COMPONENT_COUNT>
1
> <PUBCHEM_CACTVS_TAUTO_COUNT>
-1
> <PUBCHEM_COORDINATE_TYPE>
1
5
255
> <PUBCHEM_BONDANNOTATIONS>
23  11  6
31  12  6
14  41  8
14  43  8
16  20  3
29  32  8
29  33  8
22  3  5
32  35  8
33  36  8
35  37  8
36  37  8
41  42  8
42  45  8
43  44  8
43  46  8
44  45  8
44  47  8
46  48  8
47  49  8
48  49  8
$$$$
