501750
  -OEChem-10302200282D
112115  0     1  0  0  0  0  0999 V2000
    5.3884   -0.6442    0.0000 O   0  0  0  0  0  0  0  0  0  0  0  0
    9.0884   -0.9449    0.0000 O   0  0  0  0  0  0  0  0  0  0  0  0
    6.4904   -1.4449    0.0000 O   0  0  0  0  0  0  0  0  0  0  0  0
    2.2079    1.0541    0.0000 O   0  0  0  0  0  0  0  0  0  0  0  0
    9.9545   -1.4449    0.0000 O   0  0  0  0  0  0  0  0  0  0  0  0
   10.8205   -0.9449    0.0000 O   0  0  0  0  0  0  0  0  0  0  0  0
   12.5525   -3.9449    0.0000 O   0  0  0  0  0  0  0  0  0  0  0  0
    7.3564    0.0551    0.0000 N   0  0  0  0  0  0  0  0  0  0  0  0
    3.3669    2.3413    0.0000 N   0  0  0  0  0  0  0  0  0  0  0  0
    4.8532    1.0030    0.0000 N   0  0  0  0  0  0  0  0  0  0  0  0
    9.0884   -2.9449    0.0000 N   0  0  0  0  0  0  0  0  0  0  0  0
   11.6865   -2.4449    0.0000 N   0  0  0  0  0  0  0  0  0  0  0  0
   11.6865   -5.4449    0.0000 N   0  0  0  0  0  0  0  0  0  0  0  0
    2.8316    3.9886    0.0000 C   0  0  0  0  0  0  0  0  0  0  0  0
    2.0885    4.6577    0.0000 C   0  0  0  0  0  0  0  0  0  0  0  0
    3.7827    4.2976    0.0000 C   0  0  0  0  0  0  0  0  0  0  0  0
    6.5474    0.6429    0.0000 C   0  0  1  0  0  0  0  0  0  0  0  0
    2.2964    5.6358    0.0000 C   0  0  0  0  0  0  0  0  0  0  0  0
    3.9906    5.2757    0.0000 C   0  0  0  0  0  0  0  0  0  0  0  0
    3.2475    5.9449    0.0000 C   0  0  0  0  0  0  0  0  0  0  0  0
    6.8564    1.5940    0.0000 C   0  0  0  0  0  0  0  0  0  0  0  0
    2.6237    3.0104    0.0000 C   0  0  0  0  0  0  0  0  0  0  0  0
    7.8564    1.5940    0.0000 C   0  0  0  0  0  0  0  0  0  0  0  0
    8.1654    0.6429    0.0000 C   0  0  0  0  0  0  0  0  0  0  0  0
    3.9021    0.6940    0.0000 C   0  0  1  0  0  0  0  0  0  0  0  0
    5.5963    0.3339    0.0000 C   0  0  0  0  0  0  0  0  0  0  0  0
    3.6942   -0.2841    0.0000 C   0  0  1  0  0  0  0  0  0  0  0  0
    7.3564   -0.9449    0.0000 C   0  0  0  0  0  0  0  0  0  0  0  0
    3.1590    1.3632    0.0000 C   0  0  0  0  0  0  0  0  0  0  0  0
    8.2224   -1.4449    0.0000 C   0  0  2  0  0  0  0  0  0  0  0  0
    8.2224   -2.4449    0.0000 C   0  0  2  0  0  0  0  0  0  0  0  0
    2.7431   -0.5931    0.0000 C   0  0  0  0  0  0  0  0  0  0  0  0
    4.4374   -0.9533    0.0000 C   0  0  0  0  0  0  0  0  0  0  0  0
    7.3564   -2.9449    0.0000 C   0  0  0  0  0  0  0  0  0  0  0  0
    2.0000    0.0760    0.0000 C   0  0  0  0  0  0  0  0  0  0  0  0
    7.3564   -3.9449    0.0000 C   0  0  0  0  0  0  0  0  0  0  0  0
    9.9545   -2.4449    0.0000 C   0  0  0  0  0  0  0  0  0  0  0  0
   10.8205   -2.9449    0.0000 C   0  0  2  0  0  0  0  0  0  0  0  0
    8.2224   -4.4449    0.0000 C   0  0  0  0  0  0  0  0  0  0  0  0
    6.4904   -4.4449    0.0000 C   0  0  0  0  0  0  0  0  0  0  0  0
   10.8205   -3.9449    0.0000 C   0  0  0  0  0  0  0  0  0  0  0  0
    8.2224   -5.4449    0.0000 C   0  0  0  0  0  0  0  0  0  0  0  0
    6.4904   -5.4449    0.0000 C   0  0  0  0  0  0  0  0  0  0  0  0
    7.3564   -5.9449    0.0000 C   0  0  0  0  0  0  0  0  0  0  0  0
   11.6865   -1.4449    0.0000 C   0  0  0  0  0  0  0  0  0  0  0  0
   11.6865   -4.4449    0.0000 C   0  0  0  0  0  0  0  0  0  0  0  0
   12.5525   -0.9449    0.0000 C   0  0  0  0  0  0  0  0  0  0  0  0
   12.5525    0.0551    0.0000 C   0  0  0  0  0  0  0  0  0  0  0  0
   13.4186    0.5551    0.0000 C   0  0  0  0  0  0  0  0  0  0  0  0
   14.2846    0.0551    0.0000 C   0  0  0  0  0  0  0  0  0  0  0  0
   13.4186    1.5551    0.0000 C   0  0  0  0  0  0  0  0  0  0  0  0
   15.1506    0.5551    0.0000 C   0  0  0  0  0  0  0  0  0  0  0  0
   14.2846    2.0551    0.0000 C   0  0  0  0  0  0  0  0  0  0  0  0
   15.1506    1.5551    0.0000 C   0  0  0  0  0  0  0  0  0  0  0  0
    2.2420    3.7970    0.0000 H   0  0  0  0  0  0  0  0  0  0  0  0
    1.5136    4.8900    0.0000 H   0  0  0  0  0  0  0  0  0  0  0  0
    1.7600    4.1319    0.0000 H   0  0  0  0  0  0  0  0  0  0  0  0
    3.8690    3.6836    0.0000 H   0  0  0  0  0  0  0  0  0  0  0  0
    4.4023    4.2760    0.0000 H   0  0  0  0  0  0  0  0  0  0  0  0
    6.4504    0.0306    0.0000 H   0  0  0  0  0  0  0  0  0  0  0  0
    2.2101    6.2498    0.0000 H   0  0  0  0  0  0  0  0  0  0  0  0
    1.6768    5.6575    0.0000 H   0  0  0  0  0  0  0  0  0  0  0  0
    4.5655    5.0435    0.0000 H   0  0  0  0  0  0  0  0  0  0  0  0
    4.3192    5.8015    0.0000 H   0  0  0  0  0  0  0  0  0  0  0  0
    3.7360    6.3266    0.0000 H   0  0  0  0  0  0  0  0  0  0  0  0
    2.9564    6.4923    0.0000 H   0  0  0  0  0  0  0  0  0  0  0  0
    6.9212    2.2106    0.0000 H   0  0  0  0  0  0  0  0  0  0  0  0
    6.2499    1.7229    0.0000 H   0  0  0  0  0  0  0  0  0  0  0  0
    2.0489    3.2427    0.0000 H   0  0  0  0  0  0  0  0  0  0  0  0
    2.2952    2.4846    0.0000 H   0  0  0  0  0  0  0  0  0  0  0  0
    8.4628    1.7229    0.0000 H   0  0  0  0  0  0  0  0  0  0  0  0
    7.7916    2.2106    0.0000 H   0  0  0  0  0  0  0  0  0  0  0  0
    8.4754    0.1060    0.0000 H   0  0  0  0  0  0  0  0  0  0  0  0
    8.7318    0.8951    0.0000 H   0  0  0  0  0  0  0  0  0  0  0  0
    4.0310    1.3005    0.0000 H   0  0  0  0  0  0  0  0  0  0  0  0
    4.2839   -0.0925    0.0000 H   0  0  0  0  0  0  0  0  0  0  0  0
    3.9565    2.5329    0.0000 H   0  0  0  0  0  0  0  0  0  0  0  0
    4.9821    1.6095    0.0000 H   0  0  0  0  0  0  0  0  0  0  0  0
    8.2224   -0.8249    0.0000 H   0  0  0  0  0  0  0  0  0  0  0  0
    8.2224   -3.0649    0.0000 H   0  0  0  0  0  0  0  0  0  0  0  0
    2.2546   -0.9749    0.0000 H   0  0  0  0  0  0  0  0  0  0  0  0
    3.0342   -1.1406    0.0000 H   0  0  0  0  0  0  0  0  0  0  0  0
    4.0225   -1.4140    0.0000 H   0  0  0  0  0  0  0  0  0  0  0  0
    4.8981   -1.3681    0.0000 H   0  0  0  0  0  0  0  0  0  0  0  0
    4.8522   -0.4925    0.0000 H   0  0  0  0  0  0  0  0  0  0  0  0
    7.1443   -2.3623    0.0000 H   0  0  0  0  0  0  0  0  0  0  0  0
    6.7458   -3.0525    0.0000 H   0  0  0  0  0  0  0  0  0  0  0  0
    9.0884   -3.5649    0.0000 H   0  0  0  0  0  0  0  0  0  0  0  0
    2.4149    0.5367    0.0000 H   0  0  0  0  0  0  0  0  0  0  0  0
    1.5392    0.4908    0.0000 H   0  0  0  0  0  0  0  0  0  0  0  0
    1.5851   -0.3848    0.0000 H   0  0  0  0  0  0  0  0  0  0  0  0
    9.0884   -0.3249    0.0000 H   0  0  0  0  0  0  0  0  0  0  0  0
   11.3574   -3.2549    0.0000 H   0  0  0  0  0  0  0  0  0  0  0  0
    8.7594   -4.1349    0.0000 H   0  0  0  0  0  0  0  0  0  0  0  0
    5.9534   -4.1349    0.0000 H   0  0  0  0  0  0  0  0  0  0  0  0
   10.2099   -3.8372    0.0000 H   0  0  0  0  0  0  0  0  0  0  0  0
   10.6084   -4.5275    0.0000 H   0  0  0  0  0  0  0  0  0  0  0  0
   12.2235   -2.7549    0.0000 H   0  0  0  0  0  0  0  0  0  0  0  0
    8.7594   -5.7549    0.0000 H   0  0  0  0  0  0  0  0  0  0  0  0
    5.9534   -5.7549    0.0000 H   0  0  0  0  0  0  0  0  0  0  0  0
    7.3564   -6.5649    0.0000 H   0  0  0  0  0  0  0  0  0  0  0  0
   12.7646   -1.5275    0.0000 H   0  0  0  0  0  0  0  0  0  0  0  0
   13.1631   -0.8372    0.0000 H   0  0  0  0  0  0  0  0  0  0  0  0
   12.3405    0.6377    0.0000 H   0  0  0  0  0  0  0  0  0  0  0  0
   11.9420   -0.0525    0.0000 H   0  0  0  0  0  0  0  0  0  0  0  0
   12.2235   -5.7549    0.0000 H   0  0  0  0  0  0  0  0  0  0  0  0
   11.1496   -5.7549    0.0000 H   0  0  0  0  0  0  0  0  0  0  0  0
   14.2846   -0.5649    0.0000 H   0  0  0  0  0  0  0  0  0  0  0  0
   12.8816    1.8651    0.0000 H   0  0  0  0  0  0  0  0  0  0  0  0
   15.6876    0.2451    0.0000 H   0  0  0  0  0  0  0  0  0  0  0  0
   14.2846    2.6751    0.0000 H   0  0  0  0  0  0  0  0  0  0  0  0
   15.6876    1.8651    0.0000 H   0  0  0  0  0  0  0  0  0  0  0  0
  1 26  2  0  0  0  0
 30  2  1  1  0  0  0
  2 92  1  0  0  0  0
  3 28  2  0  0  0  0
  4 29  2  0  0  0  0
  5 37  2  0  0  0  0
  6 45  2  0  0  0  0
  7 46  2  0  0  0  0
  8 17  1  0  0  0  0
  8 24  1  0  0  0  0
  8 28  1  0  0  0  0
  9 22  1  0  0  0  0
  9 29  1  0  0  0  0
  9 77  1  0  0  0  0
 25 10  1  1  0  0  0
 10 26  1  0  0  0  0
 10 78  1  0  0  0  0
 31 11  1  1  0  0  0
 11 37  1  0  0  0  0
 11 88  1  0  0  0  0
 38 12  1  1  0  0  0
 12 45  1  0  0  0  0
 12 98  1  0  0  0  0
 13 46  1  0  0  0  0
 13106  1  0  0  0  0
 13107  1  0  0  0  0
 14 15  1  0  0  0  0
 14 16  1  0  0  0  0
 14 22  1  0  0  0  0
 14 55  1  0  0  0  0
 15 18  1  0  0  0  0
 15 56  1  0  0  0  0
 15 57  1  0  0  0  0
 16 19  1  0  0  0  0
 16 58  1  0  0  0  0
 16 59  1  0  0  0  0
 17 21  1  0  0  0  0
 17 26  1  6  0  0  0
 17 60  1  0  0  0  0
 18 20  1  0  0  0  0
 18 61  1  0  0  0  0
 18 62  1  0  0  0  0
 19 20  1  0  0  0  0
 19 63  1  0  0  0  0
 19 64  1  0  0  0  0
 20 65  1  0  0  0  0
 20 66  1  0  0  0  0
 21 23  1  0  0  0  0
 21 67  1  0  0  0  0
 21 68  1  0  0  0  0
 22 69  1  0  0  0  0
 22 70  1  0  0  0  0
 23 24  1  0  0  0  0
 23 71  1  0  0  0  0
 23 72  1  0  0  0  0
 24 73  1  0  0  0  0
 24 74  1  0  0  0  0
 25 27  1  0  0  0  0
 25 29  1  0  0  0  0
 25 75  1  0  0  0  0
 27 32  1  0  0  0  0
 27 33  1  6  0  0  0
 27 76  1  0  0  0  0
 28 30  1  0  0  0  0
 30 31  1  0  0  0  0
 30 79  1  0  0  0  0
 31 34  1  0  0  0  0
 31 80  1  0  0  0  0
 32 35  1  0  0  0  0
 32 81  1  0  0  0  0
 32 82  1  0  0  0  0
 33 83  1  0  0  0  0
 33 84  1  0  0  0  0
 33 85  1  0  0  0  0
 34 36  1  0  0  0  0
 34 86  1  0  0  0  0
 34 87  1  0  0  0  0
 35 89  1  0  0  0  0
 35 90  1  0  0  0  0
 35 91  1  0  0  0  0
 36 39  2  0  0  0  0
 36 40  1  0  0  0  0
 37 38  1  0  0  0  0
 38 41  1  0  0  0  0
 38 93  1  0  0  0  0
 39 42  1  0  0  0  0
 39 94  1  0  0  0  0
 40 43  2  0  0  0  0
 40 95  1  0  0  0  0
 41 46  1  0  0  0  0
 41 96  1  0  0  0  0
 41 97  1  0  0  0  0
 42 44  2  0  0  0  0
 42 99  1  0  0  0  0
 43 44  1  0  0  0  0
 43100  1  0  0  0  0
 44101  1  0  0  0  0
 45 47  1  0  0  0  0
 47 48  1  0  0  0  0
 47102  1  0  0  0  0
 47103  1  0  0  0  0
 48 49  1  0  0  0  0
 48104  1  0  0  0  0
 48105  1  0  0  0  0
 49 50  2  0  0  0  0
 49 51  1  0  0  0  0
 50 52  1  0  0  0  0
 50108  1  0  0  0  0
 51 53  2  0  0  0  0
 51109  1  0  0  0  0
 52 54  2  0  0  0  0
 52110  1  0  0  0  0
 53 54  1  0  0  0  0
 53111  1  0  0  0  0
 54112  1  0  0  0  0
M  END
> <PUBCHEM_COMPOUND_CID>
501750
> <PUBCHEM_COMPOUND_CANONICALIZED>
1
> <PUBCHEM_CACTVS_COMPLEXITY>
1250
> <PUBCHEM_CACTVS_HBOND_ACCEPTOR>
7
> <PUBCHEM_CACTVS_HBOND_DONOR>
6
> <PUBCHEM_CACTVS_ROTATABLE_BOND>
19
> <PUBCHEM_CACTVS_SUBSKEYS>
AAADcfB/uAAAAAAAAAAAAAAAAAAAAWAAAAAwYMAAAAAAAAABQAAAHgAQCAAADTzhmAYyAIPAAgCIAiFSEAICAAAgAAAIiIHIAIgKcDqA0TGUYAAklgCYiAedyaCOAAAAAAAAAAAAAAAAAAAAAAAAAAAAAA==
> <PUBCHEM_IUPAC_OPENEYE_NAME>
(2S)-N-[(1S,2S)-1-benzyl-3-[(2S)-2-[[(1S,2R)-1-(cyclohexylmethylcarbamoyl)-2-methyl-butyl]carbamoyl]pyrrolidin-1-yl]-2-hydroxy-3-oxo-propyl]-2-(3-phenylpropanoylamino)butanediamide
> <PUBCHEM_IUPAC_CAS_NAME>
(2S)-N-[(2S,3S)-4-[(2S)-2-[[[(2S,3R)-1-(cyclohexylmethylamino)-3-methyl-1-oxopentan-2-yl]amino]-oxomethyl]-1-pyrrolidinyl]-3-hydroxy-4-oxo-1-phenylbutan-2-yl]-2-[(1-oxo-3-phenylpropyl)amino]butanediamide
> <PUBCHEM_IUPAC_NAME_MARKUP>
(2<I>S</I>)-<I>N</I>-[(2<I>S</I>,3<I>S</I>)-4-[(2<I>S</I>)-2-[[(2<I>S</I>,3<I>R</I>)-1-(cyclohexylmethylamino)-3-methyl-1-oxopentan-2-yl]carbamoyl]pyrrolidin-1-yl]-3-hydroxy-4-oxo-1-phenylbutan-2-yl]-2-(3-phenylpropanoylamino)butanediamide
> <PUBCHEM_IUPAC_NAME>
(2S)-N-[(2S,3S)-4-[(2S)-2-[[(2S,3R)-1-(cyclohexylmethylamino)-3-methyl-1-oxopentan-2-yl]carbamoyl]pyrrolidin-1-yl]-3-hydroxy-4-oxo-1-phenylbutan-2-yl]-2-(3-phenylpropanoylamino)butanediamide
> <PUBCHEM_IUPAC_SYSTEMATIC_NAME>
(2S)-N-[(2S,3S)-4-[(2S)-2-[[(2S,3R)-1-(cyclohexylmethylamino)-3-methyl-1-oxidanylidene-pentan-2-yl]carbamoyl]pyrrolidin-1-yl]-3-oxidanyl-4-oxidanylidene-1-phenyl-butan-2-yl]-2-(3-phenylpropanoylamino)butanediamide
> <PUBCHEM_IUPAC_TRADITIONAL_NAME>
(2S)-N-[(1S,2S)-1-benzyl-3-[(2S)-2-[[(1S,2R)-1-(cyclohexylmethylcarbamoyl)-2-methyl-butyl]carbamoyl]pyrrolidino]-2-hydroxy-3-keto-propyl]-2-(hydrocinnamoylamino)succinamide
> <PUBCHEM_IUPAC_INCHI>
InChI=1S/C41H58N6O7/c1-3-27(2)36(40(53)43-26-30-18-11-6-12-19-30)46-39(52)33-20-13-23-47(33)41(54)37(50)31(24-29-16-9-5-10-17-29)45-38(51)32(25-34(42)48)44-35(49)22-21-28-14-7-4-8-15-28/h4-5,7-10,14-17,27,30-33,36-37,50H,3,6,11-13,18-26H2,1-2H3,(H2,42,48)(H,43,53)(H,44,49)(H,45,51)(H,46,52)/t27-,31+,32+,33+,36+,37+/m1/s1
> <PUBCHEM_IUPAC_INCHIKEY>
PPCRTPVQGACMFZ-AXFIYHETSA-N
> <PUBCHEM_XLOGP3_AA>
3.9
> <PUBCHEM_EXACT_MASS>
746.43669821
> <PUBCHEM_MOLECULAR_FORMULA>
C41H58N6O7
> <PUBCHEM_MOLECULAR_WEIGHT>
746.9
> <PUBCHEM_OPENEYE_CAN_SMILES>
CCC(C)C(C(=O)NCC1CCCCC1)NC(=O)C2CCCN2C(=O)C(C(CC3=CC=CC=C3)NC(=O)C(CC(=O)N)NC(=O)CCC4=CC=CC=C4)O
> <PUBCHEM_OPENEYE_ISO_SMILES>
CC[C@@H](C)[C@@H](C(=O)NCC1CCCCC1)NC(=O)[C@@H]2CCCN2C(=O)[C@H]([C@H](CC3=CC=CC=C3)NC(=O)[C@H](CC(=O)N)NC(=O)CCC4=CC=CC=C4)O
> <PUBCHEM_CACTVS_TPSA>
200
> <PUBCHEM_MONOISOTOPIC_WEIGHT>
746.43669821
> <PUBCHEM_TOTAL_CHARGE>
0
> <PUBCHEM_HEAVY_ATOM_COUNT>
54
> <PUBCHEM_ATOM_DEF_STEREO_COUNT>
6
> <PUBCHEM_ATOM_UDEF_STEREO_COUNT>
0
> <PUBCHEM_BOND_DEF_STEREO_COUNT>
0
> <PUBCHEM_BOND_UDEF_STEREO_COUNT>
0
> <PUBCHEM_ISOTOPIC_ATOM_COUNT>
0
> <PUBCHEM_COMPONENT_COUNT>
1
> <PUBCHEM_CACTVS_TAUTO_COUNT>
-1
> <PUBCHEM_COORDINATE_TYPE>
1
5
255
> <PUBCHEM_BONDANNOTATIONS>
25  10  5
31  11  5
38  12  5
17  26  6
30  2  5
27  33  6
36  39  8
36  40  8
39  42  8
40  43  8
42  44  8
43  44  8
49  50  8
49  51  8
50  52  8
51  53  8
52  54  8
53  54  8
$$$$
