501785
  -OEChem-10302200282D
 97100  0     1  0  0  0  0  0999 V2000
    6.0010   -6.2500    0.0000 Cl  0  0  0  0  0  0  0  0  0  0  0  0
   11.1972   -3.2500    0.0000 Cl  0  0  0  0  0  0  0  0  0  0  0  0
    6.8671    4.2500    0.0000 O   0  0  0  0  0  0  0  0  0  0  0  0
    7.7331    1.7500    0.0000 O   0  0  0  0  0  0  0  0  0  0  0  0
    8.9774    1.1960    0.0000 O   0  0  0  0  0  0  0  0  0  0  0  0
    4.2690    1.7500    0.0000 O   0  0  0  0  0  0  0  0  0  0  0  0
    6.8671   -2.7500    0.0000 O   0  0  0  0  0  0  0  0  0  0  0  0
    3.4030    1.2500    0.0000 O   0  0  0  0  0  0  0  0  0  0  0  0
    5.1350   -1.7500    0.0000 O   0  0  0  0  0  0  0  0  0  0  0  0
    8.5991    3.2500    0.0000 N   0  0  0  0  0  0  0  0  0  0  0  0
   10.6716    1.5561    0.0000 N   0  0  0  0  0  0  0  0  0  0  0  0
    6.0010    1.7500    0.0000 N   0  0  0  0  0  0  0  0  0  0  0  0
    6.0010   -0.2500    0.0000 N   0  0  0  0  0  0  0  0  0  0  0  0
    2.5369   -0.2500    0.0000 N   0  0  0  0  0  0  0  0  0  0  0  0
    9.5127    2.8433    0.0000 C   0  0  1  0  0  0  0  0  0  0  0  0
   10.1818    3.5864    0.0000 C   0  0  0  0  0  0  0  0  0  0  0  0
    9.6818    4.4524    0.0000 C   0  0  0  0  0  0  0  0  0  0  0  0
    8.7036    4.2445    0.0000 C   0  0  0  0  0  0  0  0  0  0  0  0
    7.7331    2.7500    0.0000 C   0  0  0  0  0  0  0  0  0  0  0  0
    9.7206    1.8651    0.0000 C   0  0  0  0  0  0  0  0  0  0  0  0
    6.8671    3.2500    0.0000 C   0  0  2  0  0  0  0  0  0  0  0  0
    6.0010    2.7500    0.0000 C   0  0  2  0  0  0  0  0  0  0  0  0
   11.4148    2.2252    0.0000 C   0  0  0  0  0  0  0  0  0  0  0  0
    5.1350    3.2500    0.0000 C   0  0  0  0  0  0  0  0  0  0  0  0
   12.1579    2.8944    0.0000 C   0  0  0  0  0  0  0  0  0  0  0  0
   12.0839    1.4821    0.0000 C   0  0  0  0  0  0  0  0  0  0  0  0
   10.7456    2.9684    0.0000 C   0  0  0  0  0  0  0  0  0  0  0  0
    5.1350    4.2500    0.0000 C   0  0  0  0  0  0  0  0  0  0  0  0
    5.1350    1.2500    0.0000 C   0  0  0  0  0  0  0  0  0  0  0  0
    5.1350    0.2500    0.0000 C   0  0  2  0  0  0  0  0  0  0  0  0
    6.0010    4.7500    0.0000 C   0  0  0  0  0  0  0  0  0  0  0  0
    4.2690    4.7500    0.0000 C   0  0  0  0  0  0  0  0  0  0  0  0
    4.2690   -0.2500    0.0000 C   0  0  0  0  0  0  0  0  0  0  0  0
    6.0010    5.7500    0.0000 C   0  0  0  0  0  0  0  0  0  0  0  0
    4.2690    5.7500    0.0000 C   0  0  0  0  0  0  0  0  0  0  0  0
    5.1350    6.2500    0.0000 C   0  0  0  0  0  0  0  0  0  0  0  0
    3.4030    0.2500    0.0000 C   0  0  0  0  0  0  0  0  0  0  0  0
    6.0010   -1.2500    0.0000 C   0  0  0  0  0  0  0  0  0  0  0  0
    6.8671   -1.7500    0.0000 C   0  0  0  0  0  0  0  0  0  0  0  0
    7.7331   -3.2500    0.0000 C   0  0  0  0  0  0  0  0  0  0  0  0
    7.7331   -4.2500    0.0000 C   0  0  0  0  0  0  0  0  0  0  0  0
    8.5991   -2.7500    0.0000 C   0  0  0  0  0  0  0  0  0  0  0  0
    6.8671   -4.7500    0.0000 C   0  0  0  0  0  0  0  0  0  0  0  0
    9.4651   -3.2500    0.0000 C   0  0  0  0  0  0  0  0  0  0  0  0
    8.5991   -4.7500    0.0000 C   0  0  0  0  0  0  0  0  0  0  0  0
    8.5991   -1.7500    0.0000 C   0  0  0  0  0  0  0  0  0  0  0  0
    6.8671   -5.7500    0.0000 C   0  0  0  0  0  0  0  0  0  0  0  0
   10.3312   -2.7500    0.0000 C   0  0  0  0  0  0  0  0  0  0  0  0
    8.5991   -5.7500    0.0000 C   0  0  0  0  0  0  0  0  0  0  0  0
    9.4651   -1.2500    0.0000 C   0  0  0  0  0  0  0  0  0  0  0  0
    7.7331   -6.2500    0.0000 C   0  0  0  0  0  0  0  0  0  0  0  0
   10.3312   -1.7500    0.0000 C   0  0  0  0  0  0  0  0  0  0  0  0
    9.0308    2.4531    0.0000 H   0  0  0  0  0  0  0  0  0  0  0  0
   10.5967    3.1257    0.0000 H   0  0  0  0  0  0  0  0  0  0  0  0
   10.6834    3.9508    0.0000 H   0  0  0  0  0  0  0  0  0  0  0  0
   10.2482    4.7046    0.0000 H   0  0  0  0  0  0  0  0  0  0  0  0
    9.4902    5.0421    0.0000 H   0  0  0  0  0  0  0  0  0  0  0  0
    8.6388    4.8611    0.0000 H   0  0  0  0  0  0  0  0  0  0  0  0
    8.0836    4.2445    0.0000 H   0  0  0  0  0  0  0  0  0  0  0  0
    6.3301    3.5600    0.0000 H   0  0  0  0  0  0  0  0  0  0  0  0
    6.5380    2.4400    0.0000 H   0  0  0  0  0  0  0  0  0  0  0  0
   10.8005    0.9496    0.0000 H   0  0  0  0  0  0  0  0  0  0  0  0
    4.5244    3.3577    0.0000 H   0  0  0  0  0  0  0  0  0  0  0  0
    4.9230    2.6674    0.0000 H   0  0  0  0  0  0  0  0  0  0  0  0
    6.5380    1.4400    0.0000 H   0  0  0  0  0  0  0  0  0  0  0  0
   12.5728    2.4336    0.0000 H   0  0  0  0  0  0  0  0  0  0  0  0
   12.6187    3.3092    0.0000 H   0  0  0  0  0  0  0  0  0  0  0  0
   11.7431    3.3551    0.0000 H   0  0  0  0  0  0  0  0  0  0  0  0
   11.6232    1.0672    0.0000 H   0  0  0  0  0  0  0  0  0  0  0  0
   12.4988    1.0213    0.0000 H   0  0  0  0  0  0  0  0  0  0  0  0
   12.5447    1.8970    0.0000 H   0  0  0  0  0  0  0  0  0  0  0  0
   11.2064    3.3832    0.0000 H   0  0  0  0  0  0  0  0  0  0  0  0
   10.3308    3.4291    0.0000 H   0  0  0  0  0  0  0  0  0  0  0  0
   10.2849    2.5535    0.0000 H   0  0  0  0  0  0  0  0  0  0  0  0
    7.4040    4.5600    0.0000 H   0  0  0  0  0  0  0  0  0  0  0  0
    5.1350   -0.3700    0.0000 H   0  0  0  0  0  0  0  0  0  0  0  0
    6.5380    4.4400    0.0000 H   0  0  0  0  0  0  0  0  0  0  0  0
    3.7320    4.4400    0.0000 H   0  0  0  0  0  0  0  0  0  0  0  0
    3.8705   -0.7249    0.0000 H   0  0  0  0  0  0  0  0  0  0  0  0
    4.6675   -0.7249    0.0000 H   0  0  0  0  0  0  0  0  0  0  0  0
    6.5380    0.0600    0.0000 H   0  0  0  0  0  0  0  0  0  0  0  0
    6.5380    6.0600    0.0000 H   0  0  0  0  0  0  0  0  0  0  0  0
    3.7320    6.0600    0.0000 H   0  0  0  0  0  0  0  0  0  0  0  0
    5.1350    6.8700    0.0000 H   0  0  0  0  0  0  0  0  0  0  0  0
    7.4776   -1.8577    0.0000 H   0  0  0  0  0  0  0  0  0  0  0  0
    7.0791   -1.1674    0.0000 H   0  0  0  0  0  0  0  0  0  0  0  0
    7.7331   -2.6300    0.0000 H   0  0  0  0  0  0  0  0  0  0  0  0
    2.0000    0.0600    0.0000 H   0  0  0  0  0  0  0  0  0  0  0  0
    2.5369   -0.8700    0.0000 H   0  0  0  0  0  0  0  0  0  0  0  0
    6.3301   -4.4400    0.0000 H   0  0  0  0  0  0  0  0  0  0  0  0
    9.4651   -3.8700    0.0000 H   0  0  0  0  0  0  0  0  0  0  0  0
    9.1360   -4.4400    0.0000 H   0  0  0  0  0  0  0  0  0  0  0  0
    8.0622   -1.4400    0.0000 H   0  0  0  0  0  0  0  0  0  0  0  0
    9.1360   -6.0600    0.0000 H   0  0  0  0  0  0  0  0  0  0  0  0
    9.4651   -0.6300    0.0000 H   0  0  0  0  0  0  0  0  0  0  0  0
    7.7331   -6.8700    0.0000 H   0  0  0  0  0  0  0  0  0  0  0  0
   10.8681   -1.4400    0.0000 H   0  0  0  0  0  0  0  0  0  0  0  0
  1 47  1  0  0  0  0
  2 48  1  0  0  0  0
 21  3  1  6  0  0  0
  3 75  1  0  0  0  0
  4 19  2  0  0  0  0
  5 20  2  0  0  0  0
  6 29  2  0  0  0  0
  7 39  1  0  0  0  0
  7 40  1  0  0  0  0
  8 37  2  0  0  0  0
  9 38  2  0  0  0  0
 10 15  1  0  0  0  0
 10 18  1  0  0  0  0
 10 19  1  0  0  0  0
 11 20  1  0  0  0  0
 11 23  1  0  0  0  0
 11 62  1  0  0  0  0
 22 12  1  1  0  0  0
 12 29  1  0  0  0  0
 12 65  1  0  0  0  0
 30 13  1  1  0  0  0
 13 38  1  0  0  0  0
 13 81  1  0  0  0  0
 14 37  1  0  0  0  0
 14 88  1  0  0  0  0
 14 89  1  0  0  0  0
 15 16  1  0  0  0  0
 15 20  1  1  0  0  0
 15 53  1  0  0  0  0
 16 17  1  0  0  0  0
 16 54  1  0  0  0  0
 16 55  1  0  0  0  0
 17 18  1  0  0  0  0
 17 56  1  0  0  0  0
 17 57  1  0  0  0  0
 18 58  1  0  0  0  0
 18 59  1  0  0  0  0
 19 21  1  0  0  0  0
 21 22  1  0  0  0  0
 21 60  1  0  0  0  0
 22 24  1  0  0  0  0
 22 61  1  0  0  0  0
 23 25  1  0  0  0  0
 23 26  1  0  0  0  0
 23 27  1  0  0  0  0
 24 28  1  0  0  0  0
 24 63  1  0  0  0  0
 24 64  1  0  0  0  0
 25 66  1  0  0  0  0
 25 67  1  0  0  0  0
 25 68  1  0  0  0  0
 26 69  1  0  0  0  0
 26 70  1  0  0  0  0
 26 71  1  0  0  0  0
 27 72  1  0  0  0  0
 27 73  1  0  0  0  0
 27 74  1  0  0  0  0
 28 31  2  0  0  0  0
 28 32  1  0  0  0  0
 29 30  1  0  0  0  0
 30 33  1  0  0  0  0
 30 76  1  0  0  0  0
 31 34  1  0  0  0  0
 31 77  1  0  0  0  0
 32 35  2  0  0  0  0
 32 78  1  0  0  0  0
 33 37  1  0  0  0  0
 33 79  1  0  0  0  0
 33 80  1  0  0  0  0
 34 36  2  0  0  0  0
 34 82  1  0  0  0  0
 35 36  1  0  0  0  0
 35 83  1  0  0  0  0
 36 84  1  0  0  0  0
 38 39  1  0  0  0  0
 39 85  1  0  0  0  0
 39 86  1  0  0  0  0
 40 41  1  0  0  0  0
 40 42  1  0  0  0  0
 40 87  1  0  0  0  0
 41 43  2  0  0  0  0
 41 45  1  0  0  0  0
 42 44  2  0  0  0  0
 42 46  1  0  0  0  0
 43 47  1  0  0  0  0
 43 90  1  0  0  0  0
 44 48  1  0  0  0  0
 44 91  1  0  0  0  0
 45 49  2  0  0  0  0
 45 92  1  0  0  0  0
 46 50  2  0  0  0  0
 46 93  1  0  0  0  0
 47 51  2  0  0  0  0
 48 52  2  0  0  0  0
 49 51  1  0  0  0  0
 49 94  1  0  0  0  0
 50 52  1  0  0  0  0
 50 95  1  0  0  0  0
 51 96  1  0  0  0  0
 52 97  1  0  0  0  0
M  END
> <PUBCHEM_COMPOUND_CID>
501785
> <PUBCHEM_COMPOUND_CANONICALIZED>
1
> <PUBCHEM_CACTVS_COMPLEXITY>
1210
> <PUBCHEM_CACTVS_HBOND_ACCEPTOR>
7
> <PUBCHEM_CACTVS_HBOND_DONOR>
5
> <PUBCHEM_CACTVS_ROTATABLE_BOND>
16
> <PUBCHEM_CACTVS_SUBSKEYS>
AAADcfB/uAAGAAAAAAAAAAAAAAAAAWAAAAAwYMAAAAAAAAABUAAAHgIQCAAADL7hmCYyAIPABgCIAiFSEAICAAAgBQAIiIHICogKdjqB8z2XcAAk1gGYqAedyeCOAAAAIAAAAAAAAABAAAAAAAAAAAAAAA==
> <PUBCHEM_IUPAC_OPENEYE_NAME>
(2S)-N-[(1S,2S)-1-benzyl-3-[(2S)-2-(tert-butylcarbamoyl)pyrrolidin-1-yl]-2-hydroxy-3-oxo-propyl]-2-[[2-[bis(3-chlorophenyl)methoxy]acetyl]amino]butanediamide
> <PUBCHEM_IUPAC_CAS_NAME>
(2S)-2-[[2-[bis(3-chlorophenyl)methoxy]-1-oxoethyl]amino]-N-[(2S,3S)-4-[(2S)-2-[(tert-butylamino)-oxomethyl]-1-pyrrolidinyl]-3-hydroxy-4-oxo-1-phenylbutan-2-yl]butanediamide
> <PUBCHEM_IUPAC_NAME_MARKUP>
(2<I>S</I>)-2-[[2-[bis(3-chlorophenyl)methoxy]acetyl]amino]-<I>N</I>-[(2<I>S</I>,3<I>S</I>)-4-[(2<I>S</I>)-2-(<I>tert</I>-butylcarbamoyl)pyrrolidin-1-yl]-3-hydroxy-4-oxo-1-phenylbutan-2-yl]butanediamide
> <PUBCHEM_IUPAC_NAME>
(2S)-2-[[2-[bis(3-chlorophenyl)methoxy]acetyl]amino]-N-[(2S,3S)-4-[(2S)-2-(tert-butylcarbamoyl)pyrrolidin-1-yl]-3-hydroxy-4-oxo-1-phenylbutan-2-yl]butanediamide
> <PUBCHEM_IUPAC_SYSTEMATIC_NAME>
(2S)-2-[2-[bis(3-chlorophenyl)methoxy]ethanoylamino]-N-[(2S,3S)-4-[(2S)-2-(tert-butylcarbamoyl)pyrrolidin-1-yl]-3-oxidanyl-4-oxidanylidene-1-phenyl-butan-2-yl]butanediamide
> <PUBCHEM_IUPAC_TRADITIONAL_NAME>
(2S)-N-[(1S,2S)-1-benzyl-3-[(2S)-2-(tert-butylcarbamoyl)pyrrolidino]-2-hydroxy-3-keto-propyl]-2-[[2-[bis(3-chlorophenyl)methoxy]acetyl]amino]succinamide
> <PUBCHEM_IUPAC_INCHI>
InChI=1S/C38H45Cl2N5O7/c1-38(2,3)44-36(50)30-16-9-17-45(30)37(51)33(48)28(18-23-10-5-4-6-11-23)43-35(49)29(21-31(41)46)42-32(47)22-52-34(24-12-7-14-26(39)19-24)25-13-8-15-27(40)20-25/h4-8,10-15,19-20,28-30,33-34,48H,9,16-18,21-22H2,1-3H3,(H2,41,46)(H,42,47)(H,43,49)(H,44,50)/t28-,29-,30-,33-/m0/s1
> <PUBCHEM_IUPAC_INCHIKEY>
PQEXYHYKVLEQDW-ZGDGUDBWSA-N
> <PUBCHEM_XLOGP3_AA>
3.9
> <PUBCHEM_EXACT_MASS>
753.2696042
> <PUBCHEM_MOLECULAR_FORMULA>
C38H45Cl2N5O7
> <PUBCHEM_MOLECULAR_WEIGHT>
754.7
> <PUBCHEM_OPENEYE_CAN_SMILES>
CC(C)(C)NC(=O)C1CCCN1C(=O)C(C(CC2=CC=CC=C2)NC(=O)C(CC(=O)N)NC(=O)COC(C3=CC(=CC=C3)Cl)C4=CC(=CC=C4)Cl)O
> <PUBCHEM_OPENEYE_ISO_SMILES>
CC(C)(C)NC(=O)[C@@H]1CCCN1C(=O)[C@H]([C@H](CC2=CC=CC=C2)NC(=O)[C@H](CC(=O)N)NC(=O)COC(C3=CC(=CC=C3)Cl)C4=CC(=CC=C4)Cl)O
> <PUBCHEM_CACTVS_TPSA>
180
> <PUBCHEM_MONOISOTOPIC_WEIGHT>
753.2696042
> <PUBCHEM_TOTAL_CHARGE>
0
> <PUBCHEM_HEAVY_ATOM_COUNT>
52
> <PUBCHEM_ATOM_DEF_STEREO_COUNT>
4
> <PUBCHEM_ATOM_UDEF_STEREO_COUNT>
0
> <PUBCHEM_BOND_DEF_STEREO_COUNT>
0
> <PUBCHEM_BOND_UDEF_STEREO_COUNT>
0
> <PUBCHEM_ISOTOPIC_ATOM_COUNT>
0
> <PUBCHEM_COMPONENT_COUNT>
1
> <PUBCHEM_CACTVS_TAUTO_COUNT>
-1
> <PUBCHEM_COORDINATE_TYPE>
1
5
255
> <PUBCHEM_BONDANNOTATIONS>
22  12  5
30  13  5
15  20  5
28  31  8
28  32  8
21  3  6
31  34  8
32  35  8
34  36  8
35  36  8
41  43  8
41  45  8
42  44  8
42  46  8
43  47  8
44  48  8
45  49  8
46  50  8
47  51  8
48  52  8
49  51  8
50  52  8
$$$$
