501763
  -OEChem-10302200282D
119122  0     1  0  0  0  0  0999 V2000
    3.5827   -3.4992    0.0000 O   0  0  0  0  0  0  0  0  0  0  0  0
    5.3147   -1.4992    0.0000 O   0  0  0  0  0  0  0  0  0  0  0  0
    5.1724   -0.1446    0.0000 O   0  0  0  0  0  0  0  0  0  0  0  0
    7.0468   -4.4992    0.0000 O   0  0  0  0  0  0  0  0  0  0  0  0
    3.5976    3.0988    0.0000 O   0  0  0  0  0  0  0  0  0  0  0  0
    7.9128   -4.9992    0.0000 O   0  0  0  0  0  0  0  0  0  0  0  0
    9.6448   -1.9992    0.0000 O   0  0  0  0  0  0  0  0  0  0  0  0
    9.6448    0.0008    0.0000 O   0  0  0  0  0  0  0  0  0  0  0  0
    6.7780    4.7972    0.0000 O   0  0  0  0  0  0  0  0  0  0  0  0
    3.5827   -1.4992    0.0000 N   0  0  0  0  0  0  0  0  0  0  0  0
    6.1808   -2.9992    0.0000 N   0  0  0  0  0  0  0  0  0  0  0  0
    4.0134    1.1426    0.0000 N   0  0  0  0  0  0  0  0  0  0  0  0
    7.9128   -1.9992    0.0000 N   0  0  0  0  0  0  0  0  0  0  0  0
    5.2918    3.4590    0.0000 N   0  0  0  0  0  0  0  0  0  0  0  0
    9.6448   -4.9992    0.0000 N   0  0  0  0  0  0  0  0  0  0  0  0
    5.6191    6.0844    0.0000 N   0  0  0  0  0  0  0  0  0  0  0  0
    4.4487   -4.9992    0.0000 C   0  0  0  0  0  0  0  0  0  0  0  0
    5.3147   -4.4992    0.0000 C   0  0  0  0  0  0  0  0  0  0  0  0
    4.4487   -5.9992    0.0000 C   0  0  0  0  0  0  0  0  0  0  0  0
    3.5827   -4.4992    0.0000 C   0  0  0  0  0  0  0  0  0  0  0  0
    5.3147   -3.4992    0.0000 C   0  0  1  0  0  0  0  0  0  0  0  0
    3.5827   -6.4992    0.0000 C   0  0  0  0  0  0  0  0  0  0  0  0
    2.7166   -4.9992    0.0000 C   0  0  0  0  0  0  0  0  0  0  0  0
    2.7166   -5.9992    0.0000 C   0  0  0  0  0  0  0  0  0  0  0  0
    4.4487   -2.9992    0.0000 C   0  0  1  0  0  0  0  0  0  0  0  0
    3.4782   -0.5047    0.0000 C   0  0  1  0  0  0  0  0  0  0  0  0
    2.5000   -0.2968    0.0000 C   0  0  0  0  0  0  0  0  0  0  0  0
    2.6691   -1.9060    0.0000 C   0  0  0  0  0  0  0  0  0  0  0  0
    4.4487   -1.9992    0.0000 C   0  0  0  0  0  0  0  0  0  0  0  0
    2.0000   -1.1628    0.0000 C   0  0  0  0  0  0  0  0  0  0  0  0
    4.2213    0.1644    0.0000 C   0  0  0  0  0  0  0  0  0  0  0  0
    7.0468   -3.4992    0.0000 C   0  0  0  0  0  0  0  0  0  0  0  0
    4.7565    1.8117    0.0000 C   0  0  1  0  0  0  0  0  0  0  0  0
    7.9128   -2.9992    0.0000 C   0  0  2  0  0  0  0  0  0  0  0  0
    5.7076    1.5027    0.0000 C   0  0  1  0  0  0  0  0  0  0  0  0
    6.4507    2.1718    0.0000 C   0  0  0  0  0  0  0  0  0  0  0  0
    4.5486    2.7898    0.0000 C   0  0  0  0  0  0  0  0  0  0  0  0
    8.7788   -3.4992    0.0000 C   0  0  0  0  0  0  0  0  0  0  0  0
    5.9155    0.5245    0.0000 C   0  0  0  0  0  0  0  0  0  0  0  0
    5.0838    4.4371    0.0000 C   0  0  1  0  0  0  0  0  0  0  0  0
    7.4018    1.8628    0.0000 C   0  0  0  0  0  0  0  0  0  0  0  0
    4.1328    4.7461    0.0000 C   0  0  0  0  0  0  0  0  0  0  0  0
    8.7788   -4.4992    0.0000 C   0  0  0  0  0  0  0  0  0  0  0  0
    8.7788   -1.4992    0.0000 C   0  0  0  0  0  0  0  0  0  0  0  0
    5.8270    5.1062    0.0000 C   0  0  0  0  0  0  0  0  0  0  0  0
    3.9249    5.7243    0.0000 C   0  0  0  0  0  0  0  0  0  0  0  0
    3.3896    4.0770    0.0000 C   0  0  0  0  0  0  0  0  0  0  0  0
    8.7788   -0.4992    0.0000 C   0  0  0  0  0  0  0  0  0  0  0  0
    9.6448    1.0008    0.0000 C   0  0  0  0  0  0  0  0  0  0  0  0
   10.5109    1.5008    0.0000 C   0  0  0  0  0  0  0  0  0  0  0  0
    8.7788    1.5008    0.0000 C   0  0  0  0  0  0  0  0  0  0  0  0
   10.5109    2.5008    0.0000 C   0  0  0  0  0  0  0  0  0  0  0  0
    8.7788    2.5008    0.0000 C   0  0  0  0  0  0  0  0  0  0  0  0
   11.4048    0.9661    0.0000 C   0  0  0  0  0  0  0  0  0  0  0  0
    9.6448    3.0008    0.0000 C   0  0  0  0  0  0  0  0  0  0  0  0
   11.4048    3.0354    0.0000 C   0  0  0  0  0  0  0  0  0  0  0  0
   12.3109    1.4799    0.0000 C   0  0  0  0  0  0  0  0  0  0  0  0
   12.3109    2.5216    0.0000 C   0  0  0  0  0  0  0  0  0  0  0  0
    4.9856   -5.3092    0.0000 H   0  0  0  0  0  0  0  0  0  0  0  0
    5.5268   -5.0819    0.0000 H   0  0  0  0  0  0  0  0  0  0  0  0
    5.9253   -4.3916    0.0000 H   0  0  0  0  0  0  0  0  0  0  0  0
    4.6608   -6.5819    0.0000 H   0  0  0  0  0  0  0  0  0  0  0  0
    5.0593   -5.8916    0.0000 H   0  0  0  0  0  0  0  0  0  0  0  0
    3.9812   -4.0243    0.0000 H   0  0  0  0  0  0  0  0  0  0  0  0
    3.1841   -4.0243    0.0000 H   0  0  0  0  0  0  0  0  0  0  0  0
    5.3147   -2.8792    0.0000 H   0  0  0  0  0  0  0  0  0  0  0  0
    3.1841   -6.9742    0.0000 H   0  0  0  0  0  0  0  0  0  0  0  0
    3.9812   -6.9742    0.0000 H   0  0  0  0  0  0  0  0  0  0  0  0
    2.5046   -4.4166    0.0000 H   0  0  0  0  0  0  0  0  0  0  0  0
    2.1061   -5.1069    0.0000 H   0  0  0  0  0  0  0  0  0  0  0  0
    2.1061   -5.8916    0.0000 H   0  0  0  0  0  0  0  0  0  0  0  0
    2.5046   -6.5819    0.0000 H   0  0  0  0  0  0  0  0  0  0  0  0
    3.9118   -2.6892    0.0000 H   0  0  0  0  0  0  0  0  0  0  0  0
    4.0570   -0.7269    0.0000 H   0  0  0  0  0  0  0  0  0  0  0  0
    2.6916    0.2928    0.0000 H   0  0  0  0  0  0  0  0  0  0  0  0
    1.9336   -0.0446    0.0000 H   0  0  0  0  0  0  0  0  0  0  0  0
    2.1675   -2.2704    0.0000 H   0  0  0  0  0  0  0  0  0  0  0  0
    2.9791   -2.4429    0.0000 H   0  0  0  0  0  0  0  0  0  0  0  0
    1.4984   -0.7984    0.0000 H   0  0  0  0  0  0  0  0  0  0  0  0
    1.5851   -1.6236    0.0000 H   0  0  0  0  0  0  0  0  0  0  0  0
    6.1808   -2.3792    0.0000 H   0  0  0  0  0  0  0  0  0  0  0  0
    3.0457   -3.1892    0.0000 H   0  0  0  0  0  0  0  0  0  0  0  0
    4.1669    2.0033    0.0000 H   0  0  0  0  0  0  0  0  0  0  0  0
    3.4237    1.3341    0.0000 H   0  0  0  0  0  0  0  0  0  0  0  0
    8.4497   -2.6892    0.0000 H   0  0  0  0  0  0  0  0  0  0  0  0
    5.2468    1.0878    0.0000 H   0  0  0  0  0  0  0  0  0  0  0  0
    6.7418    2.7192    0.0000 H   0  0  0  0  0  0  0  0  0  0  0  0
    5.9622    2.5535    0.0000 H   0  0  0  0  0  0  0  0  0  0  0  0
    9.3894   -3.6069    0.0000 H   0  0  0  0  0  0  0  0  0  0  0  0
    8.9909   -2.9166    0.0000 H   0  0  0  0  0  0  0  0  0  0  0  0
    5.3090    0.3956    0.0000 H   0  0  0  0  0  0  0  0  0  0  0  0
    6.0444   -0.0819    0.0000 H   0  0  0  0  0  0  0  0  0  0  0  0
    6.5220    0.6534    0.0000 H   0  0  0  0  0  0  0  0  0  0  0  0
    7.3759   -1.6892    0.0000 H   0  0  0  0  0  0  0  0  0  0  0  0
    5.8814    3.2674    0.0000 H   0  0  0  0  0  0  0  0  0  0  0  0
    5.6735    4.2455    0.0000 H   0  0  0  0  0  0  0  0  0  0  0  0
    7.2102    1.2731    0.0000 H   0  0  0  0  0  0  0  0  0  0  0  0
    7.9914    1.6712    0.0000 H   0  0  0  0  0  0  0  0  0  0  0  0
    7.5934    2.4524    0.0000 H   0  0  0  0  0  0  0  0  0  0  0  0
    4.5935    5.1610    0.0000 H   0  0  0  0  0  0  0  0  0  0  0  0
    4.5313    5.8532    0.0000 H   0  0  0  0  0  0  0  0  0  0  0  0
    3.7960    6.3307    0.0000 H   0  0  0  0  0  0  0  0  0  0  0  0
    3.3184    5.5954    0.0000 H   0  0  0  0  0  0  0  0  0  0  0  0
    2.9748    4.5377    0.0000 H   0  0  0  0  0  0  0  0  0  0  0  0
    2.9289    3.6621    0.0000 H   0  0  0  0  0  0  0  0  0  0  0  0
    3.8045    3.6162    0.0000 H   0  0  0  0  0  0  0  0  0  0  0  0
    8.5668    0.0834    0.0000 H   0  0  0  0  0  0  0  0  0  0  0  0
    8.1682   -0.6069    0.0000 H   0  0  0  0  0  0  0  0  0  0  0  0
    9.6448   -5.6192    0.0000 H   0  0  0  0  0  0  0  0  0  0  0  0
   10.1818   -4.6892    0.0000 H   0  0  0  0  0  0  0  0  0  0  0  0
    6.0798    6.4992    0.0000 H   0  0  0  0  0  0  0  0  0  0  0  0
    5.0294    6.2760    0.0000 H   0  0  0  0  0  0  0  0  0  0  0  0
    8.2419    1.1908    0.0000 H   0  0  0  0  0  0  0  0  0  0  0  0
    8.2419    2.8108    0.0000 H   0  0  0  0  0  0  0  0  0  0  0  0
   11.3977    0.3461    0.0000 H   0  0  0  0  0  0  0  0  0  0  0  0
    9.6448    3.6208    0.0000 H   0  0  0  0  0  0  0  0  0  0  0  0
   11.3977    3.6554    0.0000 H   0  0  0  0  0  0  0  0  0  0  0  0
   12.8466    1.1679    0.0000 H   0  0  0  0  0  0  0  0  0  0  0  0
   12.8466    2.8336    0.0000 H   0  0  0  0  0  0  0  0  0  0  0  0
 25  1  1  6  0  0  0
  1 82  1  0  0  0  0
  2 29  2  0  0  0  0
  3 31  2  0  0  0  0
  4 32  2  0  0  0  0
  5 37  2  0  0  0  0
  6 43  2  0  0  0  0
  7 44  2  0  0  0  0
  8 48  1  0  0  0  0
  8 49  1  0  0  0  0
  9 45  2  0  0  0  0
 10 26  1  0  0  0  0
 10 28  1  0  0  0  0
 10 29  1  0  0  0  0
 21 11  1  1  0  0  0
 11 32  1  0  0  0  0
 11 81  1  0  0  0  0
 12 31  1  0  0  0  0
 33 12  1  6  0  0  0
 12 84  1  0  0  0  0
 34 13  1  1  0  0  0
 13 44  1  0  0  0  0
 13 94  1  0  0  0  0
 14 37  1  0  0  0  0
 40 14  1  1  0  0  0
 14 95  1  0  0  0  0
 15 43  1  0  0  0  0
 15109  1  0  0  0  0
 15110  1  0  0  0  0
 16 45  1  0  0  0  0
 16111  1  0  0  0  0
 16112  1  0  0  0  0
 17 18  1  0  0  0  0
 17 19  1  0  0  0  0
 17 20  1  0  0  0  0
 17 59  1  0  0  0  0
 18 21  1  0  0  0  0
 18 60  1  0  0  0  0
 18 61  1  0  0  0  0
 19 22  1  0  0  0  0
 19 62  1  0  0  0  0
 19 63  1  0  0  0  0
 20 23  1  0  0  0  0
 20 64  1  0  0  0  0
 20 65  1  0  0  0  0
 21 25  1  0  0  0  0
 21 66  1  0  0  0  0
 22 24  1  0  0  0  0
 22 67  1  0  0  0  0
 22 68  1  0  0  0  0
 23 24  1  0  0  0  0
 23 69  1  0  0  0  0
 23 70  1  0  0  0  0
 24 71  1  0  0  0  0
 24 72  1  0  0  0  0
 25 29  1  0  0  0  0
 25 73  1  0  0  0  0
 26 27  1  0  0  0  0
 26 31  1  1  0  0  0
 26 74  1  0  0  0  0
 27 30  1  0  0  0  0
 27 75  1  0  0  0  0
 27 76  1  0  0  0  0
 28 30  1  0  0  0  0
 28 77  1  0  0  0  0
 28 78  1  0  0  0  0
 30 79  1  0  0  0  0
 30 80  1  0  0  0  0
 32 34  1  0  0  0  0
 33 35  1  0  0  0  0
 33 37  1  0  0  0  0
 33 83  1  0  0  0  0
 34 38  1  0  0  0  0
 34 85  1  0  0  0  0
 35 36  1  0  0  0  0
 35 39  1  1  0  0  0
 35 86  1  0  0  0  0
 36 41  1  0  0  0  0
 36 87  1  0  0  0  0
 36 88  1  0  0  0  0
 38 43  1  0  0  0  0
 38 89  1  0  0  0  0
 38 90  1  0  0  0  0
 39 91  1  0  0  0  0
 39 92  1  0  0  0  0
 39 93  1  0  0  0  0
 40 42  1  0  0  0  0
 40 45  1  0  0  0  0
 40 96  1  0  0  0  0
 41 97  1  0  0  0  0
 41 98  1  0  0  0  0
 41 99  1  0  0  0  0
 42 46  1  0  0  0  0
 42 47  1  0  0  0  0
 42100  1  0  0  0  0
 44 48  1  0  0  0  0
 46101  1  0  0  0  0
 46102  1  0  0  0  0
 46103  1  0  0  0  0
 47104  1  0  0  0  0
 47105  1  0  0  0  0
 47106  1  0  0  0  0
 48107  1  0  0  0  0
 48108  1  0  0  0  0
 49 50  1  0  0  0  0
 49 51  2  0  0  0  0
 50 52  1  0  0  0  0
 50 54  2  0  0  0  0
 51 53  1  0  0  0  0
 51113  1  0  0  0  0
 52 55  1  0  0  0  0
 52 56  2  0  0  0  0
 53 55  2  0  0  0  0
 53114  1  0  0  0  0
 54 57  1  0  0  0  0
 54115  1  0  0  0  0
 55116  1  0  0  0  0
 56 58  1  0  0  0  0
 56117  1  0  0  0  0
 57 58  2  0  0  0  0
 57118  1  0  0  0  0
 58119  1  0  0  0  0
M  END
> <PUBCHEM_COMPOUND_CID>
501763
> <PUBCHEM_COMPOUND_CANONICALIZED>
1
> <PUBCHEM_CACTVS_COMPLEXITY>
1440
> <PUBCHEM_CACTVS_HBOND_ACCEPTOR>
9
> <PUBCHEM_CACTVS_HBOND_DONOR>
7
> <PUBCHEM_CACTVS_ROTATABLE_BOND>
20
> <PUBCHEM_CACTVS_SUBSKEYS>
AAADcfB/vAAAAAAAAAAAAAAAAAAAAWAAAAAwYMAAAAAAAADBUAAAHgAQCAAADTzhmAYyBsPABgCIAiFSEAICCAAgIAAIiIHOCIgOdjqE8T6XeCCk1hGYqAedybCOgAABAAAYAAAAAAIAADAAAAAAAAAAAA==
> <PUBCHEM_IUPAC_OPENEYE_NAME>
(2S)-N-[(1S,2S)-3-[(2S)-2-[[(1S,2R)-1-[[(1S)-1-carbamoyl-2-methyl-propyl]carbamoyl]-2-methyl-butyl]carbamoyl]pyrrolidin-1-yl]-1-(cyclohexylmethyl)-2-hydroxy-3-oxo-propyl]-2-[[2-(1-naphthyloxy)acetyl]amino]butanediamide
> <PUBCHEM_IUPAC_CAS_NAME>
(2S)-N-[(2S,3S)-4-[(2S)-2-[[[(2S,3R)-1-[[(2S)-1-amino-3-methyl-1-oxobutan-2-yl]amino]-3-methyl-1-oxopentan-2-yl]amino]-oxomethyl]-1-pyrrolidinyl]-1-cyclohexyl-3-hydroxy-4-oxobutan-2-yl]-2-[[2-(1-naphthalenyloxy)-1-oxoethyl]amino]butanediamide
> <PUBCHEM_IUPAC_NAME_MARKUP>
(2<I>S</I>)-<I>N</I>-[(2<I>S</I>,3<I>S</I>)-4-[(2<I>S</I>)-2-[[(2<I>S</I>,3<I>R</I>)-1-[[(2<I>S</I>)-1-amino-3-methyl-1-oxobutan-2-yl]amino]-3-methyl-1-oxopentan-2-yl]carbamoyl]pyrrolidin-1-yl]-1-cyclohexyl-3-hydroxy-4-oxobutan-2-yl]-2-[(2-naphthalen-1-yloxyacetyl)amino]butanediamide
> <PUBCHEM_IUPAC_NAME>
(2S)-N-[(2S,3S)-4-[(2S)-2-[[(2S,3R)-1-[[(2S)-1-amino-3-methyl-1-oxobutan-2-yl]amino]-3-methyl-1-oxopentan-2-yl]carbamoyl]pyrrolidin-1-yl]-1-cyclohexyl-3-hydroxy-4-oxobutan-2-yl]-2-[(2-naphthalen-1-yloxyacetyl)amino]butanediamide
> <PUBCHEM_IUPAC_SYSTEMATIC_NAME>
(2S)-N-[(2S,3S)-4-[(2S)-2-[[(2S,3R)-1-[[(2S)-1-azanyl-3-methyl-1-oxidanylidene-butan-2-yl]amino]-3-methyl-1-oxidanylidene-pentan-2-yl]carbamoyl]pyrrolidin-1-yl]-1-cyclohexyl-3-oxidanyl-4-oxidanylidene-butan-2-yl]-2-(2-naphthalen-1-yloxyethanoylamino)butanediamide
> <PUBCHEM_IUPAC_TRADITIONAL_NAME>
(2S)-N-[(1S,2S)-3-[(2S)-2-[[(1S,2R)-1-[[(1S)-1-carbamoyl-2-methyl-propyl]carbamoyl]-2-methyl-butyl]carbamoyl]pyrrolidino]-1-(cyclohexylmethyl)-2-hydroxy-3-keto-propyl]-2-[[2-(1-naphthoxy)acetyl]amino]succinamide
> <PUBCHEM_IUPAC_INCHI>
InChI=1S/C42H61N7O9/c1-5-25(4)36(41(56)47-35(24(2)3)38(44)53)48-40(55)31-18-12-20-49(31)42(57)37(52)29(21-26-13-7-6-8-14-26)46-39(54)30(22-33(43)50)45-34(51)23-58-32-19-11-16-27-15-9-10-17-28(27)32/h9-11,15-17,19,24-26,29-31,35-37,52H,5-8,12-14,18,20-23H2,1-4H3,(H2,43,50)(H2,44,53)(H,45,51)(H,46,54)(H,47,56)(H,48,55)/t25-,29+,30+,31+,35+,36+,37+/m1/s1
> <PUBCHEM_IUPAC_INCHIKEY>
OUWZMMUYWMNFPD-OFKZKZEVSA-N
> <PUBCHEM_XLOGP3_AA>
4
> <PUBCHEM_EXACT_MASS>
807.45307655
> <PUBCHEM_MOLECULAR_FORMULA>
C42H61N7O9
> <PUBCHEM_MOLECULAR_WEIGHT>
808.0
> <PUBCHEM_OPENEYE_CAN_SMILES>
CCC(C)C(C(=O)NC(C(C)C)C(=O)N)NC(=O)C1CCCN1C(=O)C(C(CC2CCCCC2)NC(=O)C(CC(=O)N)NC(=O)COC3=CC=CC4=CC=CC=C43)O
> <PUBCHEM_OPENEYE_ISO_SMILES>
CC[C@@H](C)[C@@H](C(=O)N[C@@H](C(C)C)C(=O)N)NC(=O)[C@@H]1CCCN1C(=O)[C@H]([C@H](CC2CCCCC2)NC(=O)[C@H](CC(=O)N)NC(=O)COC3=CC=CC4=CC=CC=C43)O
> <PUBCHEM_CACTVS_TPSA>
252
> <PUBCHEM_MONOISOTOPIC_WEIGHT>
807.45307655
> <PUBCHEM_TOTAL_CHARGE>
0
> <PUBCHEM_HEAVY_ATOM_COUNT>
58
> <PUBCHEM_ATOM_DEF_STEREO_COUNT>
7
> <PUBCHEM_ATOM_UDEF_STEREO_COUNT>
0
> <PUBCHEM_BOND_DEF_STEREO_COUNT>
0
> <PUBCHEM_BOND_UDEF_STEREO_COUNT>
0
> <PUBCHEM_ISOTOPIC_ATOM_COUNT>
0
> <PUBCHEM_COMPONENT_COUNT>
1
> <PUBCHEM_CACTVS_TAUTO_COUNT>
-1
> <PUBCHEM_COORDINATE_TYPE>
1
5
255
> <PUBCHEM_BONDANNOTATIONS>
25  1  6
21  11  5
33  12  6
34  13  5
40  14  5
26  31  5
35  39  5
49  50  8
49  51  8
50  52  8
50  54  8
51  53  8
52  55  8
52  56  8
53  55  8
54  57  8
56  58  8
57  58  8
$$$$
