501788
  -OEChem-10302200282D
 88 91  0     1  0  0  0  0  0999 V2000
    8.5389    0.6933    0.0000 O   0  0  0  0  0  0  0  0  0  0  0  0
   11.1637    1.0252    0.0000 O   0  0  0  0  0  0  0  0  0  0  0  0
   11.9582    2.1206    0.0000 O   0  0  0  0  0  0  0  0  0  0  0  0
    7.8710   -0.0510    0.0000 O   0  0  0  0  0  0  0  0  0  0  0  0
    5.2462   -0.3829    0.0000 O   0  0  0  0  0  0  0  0  0  0  0  0
    6.1782   -3.2344    0.0000 O   0  0  0  0  0  0  0  0  0  0  0  0
    6.8925    0.1552    0.0000 O   0  0  0  0  0  0  0  0  0  0  0  0
    9.8746    2.1819    0.0000 N   0  0  0  0  0  0  0  0  0  0  0  0
   11.9582    3.8526    0.0000 N   0  0  0  0  0  0  0  0  0  0  0  0
    9.1602   -1.2078    0.0000 N   0  0  0  0  0  0  0  0  0  0  0  0
    6.5354   -1.5396    0.0000 N   0  0  0  0  0  0  0  0  0  0  0  0
    7.4673   -4.3912    0.0000 N   0  0  0  0  0  0  0  0  0  0  0  0
   10.4582    2.9866    0.0000 C   0  0  1  0  0  0  0  0  0  0  0  0
    9.8746    3.7914    0.0000 C   0  0  0  0  0  0  0  0  0  0  0  0
    8.9284    2.4866    0.0000 C   0  0  0  0  0  0  0  0  0  0  0  0
    8.9284    3.4866    0.0000 C   0  0  0  0  0  0  0  0  0  0  0  0
    9.5174    0.4871    0.0000 C   0  0  2  0  0  0  0  0  0  0  0  0
   10.1852    1.2314    0.0000 C   0  0  0  0  0  0  0  0  0  0  0  0
   11.4582    2.9866    0.0000 C   0  0  0  0  0  0  0  0  0  0  0  0
    9.8280   -0.4635    0.0000 C   0  0  2  0  0  0  0  0  0  0  0  0
   12.9582    3.8526    0.0000 C   0  0  0  0  0  0  0  0  0  0  0  0
    8.0623    1.9866    0.0000 C   0  0  0  0  0  0  0  0  0  0  0  0
    8.0623    3.9866    0.0000 C   0  0  0  0  0  0  0  0  0  0  0  0
   10.8066   -0.6697    0.0000 C   0  0  0  0  0  0  0  0  0  0  0  0
    7.1963    2.4866    0.0000 C   0  0  0  0  0  0  0  0  0  0  0  0
    7.1963    3.4866    0.0000 C   0  0  0  0  0  0  0  0  0  0  0  0
   13.9582    3.8526    0.0000 C   0  0  0  0  0  0  0  0  0  0  0  0
   12.9582    4.8526    0.0000 C   0  0  0  0  0  0  0  0  0  0  0  0
   12.9582    2.8526    0.0000 C   0  0  0  0  0  0  0  0  0  0  0  0
   11.1172   -1.6202    0.0000 C   0  0  0  0  0  0  0  0  0  0  0  0
    8.1817   -1.0015    0.0000 C   0  0  0  0  0  0  0  0  0  0  0  0
    7.5138   -1.7458    0.0000 C   0  0  2  0  0  0  0  0  0  0  0  0
   10.4494   -2.3645    0.0000 C   0  0  0  0  0  0  0  0  0  0  0  0
   12.0957   -1.8264    0.0000 C   0  0  0  0  0  0  0  0  0  0  0  0
    7.8245   -2.6964    0.0000 C   0  0  0  0  0  0  0  0  0  0  0  0
   10.7600   -3.3150    0.0000 C   0  0  0  0  0  0  0  0  0  0  0  0
   12.4064   -2.7769    0.0000 C   0  0  0  0  0  0  0  0  0  0  0  0
   11.7385   -3.5212    0.0000 C   0  0  0  0  0  0  0  0  0  0  0  0
    7.1567   -3.4407    0.0000 C   0  0  0  0  0  0  0  0  0  0  0  0
    6.2247   -0.5891    0.0000 C   0  0  0  0  0  0  0  0  0  0  0  0
    4.9355    0.5676    0.0000 C   0  0  0  0  0  0  0  0  0  0  0  0
    3.9570    0.7739    0.0000 C   0  0  0  0  0  0  0  0  0  0  0  0
    3.2892    0.0296    0.0000 C   0  0  0  0  0  0  0  0  0  0  0  0
    3.6464    1.7244    0.0000 C   0  0  0  0  0  0  0  0  0  0  0  0
    2.3107    0.2358    0.0000 C   0  0  0  0  0  0  0  0  0  0  0  0
    2.6678    1.9306    0.0000 C   0  0  0  0  0  0  0  0  0  0  0  0
    2.0000    1.1863    0.0000 C   0  0  0  0  0  0  0  0  0  0  0  0
   10.7399    2.4343    0.0000 H   0  0  0  0  0  0  0  0  0  0  0  0
   10.4119    4.1006    0.0000 H   0  0  0  0  0  0  0  0  0  0  0  0
    9.6235    4.3583    0.0000 H   0  0  0  0  0  0  0  0  0  0  0  0
    9.1033    0.0256    0.0000 H   0  0  0  0  0  0  0  0  0  0  0  0
   10.0207   -1.0528    0.0000 H   0  0  0  0  0  0  0  0  0  0  0  0
   11.6482    4.3896    0.0000 H   0  0  0  0  0  0  0  0  0  0  0  0
    8.0623    1.3666    0.0000 H   0  0  0  0  0  0  0  0  0  0  0  0
    8.0623    4.6066    0.0000 H   0  0  0  0  0  0  0  0  0  0  0  0
   11.4204   -0.5823    0.0000 H   0  0  0  0  0  0  0  0  0  0  0  0
   10.8271   -0.0500    0.0000 H   0  0  0  0  0  0  0  0  0  0  0  0
    9.3528   -1.7971    0.0000 H   0  0  0  0  0  0  0  0  0  0  0  0
    6.6594    2.1766    0.0000 H   0  0  0  0  0  0  0  0  0  0  0  0
    6.6594    3.7966    0.0000 H   0  0  0  0  0  0  0  0  0  0  0  0
   13.9582    3.2326    0.0000 H   0  0  0  0  0  0  0  0  0  0  0  0
   14.5782    3.8526    0.0000 H   0  0  0  0  0  0  0  0  0  0  0  0
   13.9582    4.4726    0.0000 H   0  0  0  0  0  0  0  0  0  0  0  0
   13.5782    4.8526    0.0000 H   0  0  0  0  0  0  0  0  0  0  0  0
   12.9582    5.4726    0.0000 H   0  0  0  0  0  0  0  0  0  0  0  0
   12.3382    4.8526    0.0000 H   0  0  0  0  0  0  0  0  0  0  0  0
   12.3382    2.8526    0.0000 H   0  0  0  0  0  0  0  0  0  0  0  0
   12.9582    2.2326    0.0000 H   0  0  0  0  0  0  0  0  0  0  0  0
   13.5782    2.8526    0.0000 H   0  0  0  0  0  0  0  0  0  0  0  0
    8.3463    1.2826    0.0000 H   0  0  0  0  0  0  0  0  0  0  0  0
    7.0998   -2.2073    0.0000 H   0  0  0  0  0  0  0  0  0  0  0  0
    9.8427   -2.2366    0.0000 H   0  0  0  0  0  0  0  0  0  0  0  0
   12.5098   -1.3649    0.0000 H   0  0  0  0  0  0  0  0  0  0  0  0
    8.2071   -3.1843    0.0000 H   0  0  0  0  0  0  0  0  0  0  0  0
    8.3714   -2.4043    0.0000 H   0  0  0  0  0  0  0  0  0  0  0  0
    6.1213   -2.0011    0.0000 H   0  0  0  0  0  0  0  0  0  0  0  0
   10.3460   -3.7765    0.0000 H   0  0  0  0  0  0  0  0  0  0  0  0
   13.0131   -2.9048    0.0000 H   0  0  0  0  0  0  0  0  0  0  0  0
   11.9312   -4.1106    0.0000 H   0  0  0  0  0  0  0  0  0  0  0  0
    7.0533   -4.8526    0.0000 H   0  0  0  0  0  0  0  0  0  0  0  0
    8.0740   -4.5190    0.0000 H   0  0  0  0  0  0  0  0  0  0  0  0
    5.5493    0.6550    0.0000 H   0  0  0  0  0  0  0  0  0  0  0  0
    4.9561    1.1873    0.0000 H   0  0  0  0  0  0  0  0  0  0  0  0
    3.4818   -0.5598    0.0000 H   0  0  0  0  0  0  0  0  0  0  0  0
    4.0604    2.1858    0.0000 H   0  0  0  0  0  0  0  0  0  0  0  0
    1.8966   -0.2257    0.0000 H   0  0  0  0  0  0  0  0  0  0  0  0
    2.4752    2.5199    0.0000 H   0  0  0  0  0  0  0  0  0  0  0  0
    1.3933    1.3142    0.0000 H   0  0  0  0  0  0  0  0  0  0  0  0
 17  1  1  6  0  0  0
  1 70  1  0  0  0  0
  2 18  2  0  0  0  0
  3 19  2  0  0  0  0
  4 31  2  0  0  0  0
  5 40  1  0  0  0  0
  5 41  1  0  0  0  0
  6 39  2  0  0  0  0
  7 40  2  0  0  0  0
  8 13  1  0  0  0  0
  8 15  1  0  0  0  0
  8 18  1  0  0  0  0
  9 19  1  0  0  0  0
  9 21  1  0  0  0  0
  9 53  1  0  0  0  0
 20 10  1  6  0  0  0
 10 31  1  0  0  0  0
 10 58  1  0  0  0  0
 32 11  1  6  0  0  0
 11 40  1  0  0  0  0
 11 76  1  0  0  0  0
 12 39  1  0  0  0  0
 12 80  1  0  0  0  0
 12 81  1  0  0  0  0
 13 14  1  0  0  0  0
 13 19  1  1  0  0  0
 13 48  1  0  0  0  0
 14 16  1  0  0  0  0
 14 49  1  0  0  0  0
 14 50  1  0  0  0  0
 15 16  1  0  0  0  0
 15 22  2  0  0  0  0
 16 23  2  0  0  0  0
 17 18  1  0  0  0  0
 17 20  1  0  0  0  0
 17 51  1  0  0  0  0
 20 24  1  0  0  0  0
 20 52  1  0  0  0  0
 21 27  1  0  0  0  0
 21 28  1  0  0  0  0
 21 29  1  0  0  0  0
 22 25  1  0  0  0  0
 22 54  1  0  0  0  0
 23 26  1  0  0  0  0
 23 55  1  0  0  0  0
 24 30  1  0  0  0  0
 24 56  1  0  0  0  0
 24 57  1  0  0  0  0
 25 26  2  0  0  0  0
 25 59  1  0  0  0  0
 26 60  1  0  0  0  0
 27 61  1  0  0  0  0
 27 62  1  0  0  0  0
 27 63  1  0  0  0  0
 28 64  1  0  0  0  0
 28 65  1  0  0  0  0
 28 66  1  0  0  0  0
 29 67  1  0  0  0  0
 29 68  1  0  0  0  0
 29 69  1  0  0  0  0
 30 33  2  0  0  0  0
 30 34  1  0  0  0  0
 31 32  1  0  0  0  0
 32 35  1  0  0  0  0
 32 71  1  0  0  0  0
 33 36  1  0  0  0  0
 33 72  1  0  0  0  0
 34 37  2  0  0  0  0
 34 73  1  0  0  0  0
 35 39  1  0  0  0  0
 35 74  1  0  0  0  0
 35 75  1  0  0  0  0
 36 38  2  0  0  0  0
 36 77  1  0  0  0  0
 37 38  1  0  0  0  0
 37 78  1  0  0  0  0
 38 79  1  0  0  0  0
 41 42  1  0  0  0  0
 41 82  1  0  0  0  0
 41 83  1  0  0  0  0
 42 43  2  0  0  0  0
 42 44  1  0  0  0  0
 43 45  1  0  0  0  0
 43 84  1  0  0  0  0
 44 46  2  0  0  0  0
 44 85  1  0  0  0  0
 45 47  2  0  0  0  0
 45 86  1  0  0  0  0
 46 47  1  0  0  0  0
 46 87  1  0  0  0  0
 47 88  1  0  0  0  0
M  END
> <PUBCHEM_COMPOUND_CID>
501788
> <PUBCHEM_COMPOUND_CANONICALIZED>
1
> <PUBCHEM_CACTVS_COMPLEXITY>
1100
> <PUBCHEM_CACTVS_HBOND_ACCEPTOR>
7
> <PUBCHEM_CACTVS_HBOND_DONOR>
5
> <PUBCHEM_CACTVS_ROTATABLE_BOND>
14
> <PUBCHEM_CACTVS_SUBSKEYS>
AAADcfB/uAAAAAAAAAAAAAAAAAAAAWAAAAAwYMAAAAAAAFgBUAAAHgAQCAAADLzhmAYyyIPABgCIAiVSWAKCAAAhAgAIiIHIbIkKdjrA8bmccAhk1gHY6AedyaCeAAAAAAACAAAAAAAAAAQAAAAAAAAAAA==
> <PUBCHEM_IUPAC_OPENEYE_NAME>
benzyl N-[(1S)-3-amino-1-[[(1S,2S)-1-benzyl-3-[(2S)-2-(tert-butylcarbamoyl)indolin-1-yl]-2-hydroxy-3-oxo-propyl]carbamoyl]-3-oxo-propyl]carbamate
> <PUBCHEM_IUPAC_CAS_NAME>
N-[(2S)-4-amino-1-[[(2S,3S)-4-[(2S)-2-[(tert-butylamino)-oxomethyl]-2,3-dihydroindol-1-yl]-3-hydroxy-4-oxo-1-phenylbutan-2-yl]amino]-1,4-dioxobutan-2-yl]carbamic acid (phenylmethyl) ester
> <PUBCHEM_IUPAC_NAME_MARKUP>
benzyl <I>N</I>-[(2<I>S</I>)-4-amino-1-[[(2<I>S</I>,3<I>S</I>)-4-[(2<I>S</I>)-2-(<I>tert</I>-butylcarbamoyl)-2,3-dihydroindol-1-yl]-3-hydroxy-4-oxo-1-phenylbutan-2-yl]amino]-1,4-dioxobutan-2-yl]carbamate
> <PUBCHEM_IUPAC_NAME>
benzyl N-[(2S)-4-amino-1-[[(2S,3S)-4-[(2S)-2-(tert-butylcarbamoyl)-2,3-dihydroindol-1-yl]-3-hydroxy-4-oxo-1-phenylbutan-2-yl]amino]-1,4-dioxobutan-2-yl]carbamate
> <PUBCHEM_IUPAC_SYSTEMATIC_NAME>
(phenylmethyl) N-[(2S)-4-azanyl-1-[[(2S,3S)-4-[(2S)-2-(tert-butylcarbamoyl)-2,3-dihydroindol-1-yl]-3-oxidanyl-4-oxidanylidene-1-phenyl-butan-2-yl]amino]-1,4-bis(oxidanylidene)butan-2-yl]carbamate
> <PUBCHEM_IUPAC_TRADITIONAL_NAME>
N-[(1S)-3-amino-1-[[(1S,2S)-1-benzyl-3-[(2S)-2-(tert-butylcarbamoyl)indolin-1-yl]-2-hydroxy-3-keto-propyl]carbamoyl]-3-keto-propyl]carbamic acid benzyl ester
> <PUBCHEM_IUPAC_INCHI>
InChI=1S/C35H41N5O7/c1-35(2,3)39-32(44)28-19-24-16-10-11-17-27(24)40(28)33(45)30(42)25(18-22-12-6-4-7-13-22)37-31(43)26(20-29(36)41)38-34(46)47-21-23-14-8-5-9-15-23/h4-17,25-26,28,30,42H,18-21H2,1-3H3,(H2,36,41)(H,37,43)(H,38,46)(H,39,44)/t25-,26-,28-,30-/m0/s1
> <PUBCHEM_IUPAC_INCHIKEY>
WRQYBNWIYFCCCP-UMSAYILPSA-N
> <PUBCHEM_XLOGP3_AA>
2.5
> <PUBCHEM_EXACT_MASS>
643.30059866
> <PUBCHEM_MOLECULAR_FORMULA>
C35H41N5O7
> <PUBCHEM_MOLECULAR_WEIGHT>
643.7
> <PUBCHEM_OPENEYE_CAN_SMILES>
CC(C)(C)NC(=O)C1CC2=CC=CC=C2N1C(=O)C(C(CC3=CC=CC=C3)NC(=O)C(CC(=O)N)NC(=O)OCC4=CC=CC=C4)O
> <PUBCHEM_OPENEYE_ISO_SMILES>
CC(C)(C)NC(=O)[C@@H]1CC2=CC=CC=C2N1C(=O)[C@H]([C@H](CC3=CC=CC=C3)NC(=O)[C@H](CC(=O)N)NC(=O)OCC4=CC=CC=C4)O
> <PUBCHEM_CACTVS_TPSA>
180
> <PUBCHEM_MONOISOTOPIC_WEIGHT>
643.30059866
> <PUBCHEM_TOTAL_CHARGE>
0
> <PUBCHEM_HEAVY_ATOM_COUNT>
47
> <PUBCHEM_ATOM_DEF_STEREO_COUNT>
4
> <PUBCHEM_ATOM_UDEF_STEREO_COUNT>
0
> <PUBCHEM_BOND_DEF_STEREO_COUNT>
0
> <PUBCHEM_BOND_UDEF_STEREO_COUNT>
0
> <PUBCHEM_ISOTOPIC_ATOM_COUNT>
0
> <PUBCHEM_COMPONENT_COUNT>
1
> <PUBCHEM_CACTVS_TAUTO_COUNT>
-1
> <PUBCHEM_COORDINATE_TYPE>
1
5
255
> <PUBCHEM_BONDANNOTATIONS>
17  1  6
20  10  6
32  11  6
13  19  5
15  16  8
15  22  8
16  23  8
22  25  8
23  26  8
25  26  8
30  33  8
30  34  8
33  36  8
34  37  8
36  38  8
37  38  8
42  43  8
42  44  8
43  45  8
44  46  8
45  47  8
46  47  8
$$$$
