501775
  -OEChem-10302200282D
 93 95  0     1  0  0  0  0  0999 V2000
    9.0884    0.6495    0.0000 O   0  0  0  0  0  0  0  0  0  0  0  0
    6.4904    0.1495    0.0000 O   0  0  0  0  0  0  0  0  0  0  0  0
    5.3884    0.9501    0.0000 O   0  0  0  0  0  0  0  0  0  0  0  0
    2.2079    2.6485    0.0000 O   0  0  0  0  0  0  0  0  0  0  0  0
    9.9545    0.1495    0.0000 O   0  0  0  0  0  0  0  0  0  0  0  0
   10.8205    0.6495    0.0000 O   0  0  0  0  0  0  0  0  0  0  0  0
   12.5525   -2.3505    0.0000 O   0  0  0  0  0  0  0  0  0  0  0  0
    7.3564    1.6495    0.0000 N   0  0  0  0  0  0  0  0  0  0  0  0
    4.8532    2.5974    0.0000 N   0  0  0  0  0  0  0  0  0  0  0  0
    9.0884   -1.3505    0.0000 N   0  0  0  0  0  0  0  0  0  0  0  0
    3.3669    3.9356    0.0000 N   0  0  0  0  0  0  0  0  0  0  0  0
   11.6865   -0.8505    0.0000 N   0  0  0  0  0  0  0  0  0  0  0  0
   11.6865   -3.8505    0.0000 N   0  0  0  0  0  0  0  0  0  0  0  0
    6.5474    2.2373    0.0000 C   0  0  1  0  0  0  0  0  0  0  0  0
    6.8564    3.1883    0.0000 C   0  0  0  0  0  0  0  0  0  0  0  0
    7.8564    3.1883    0.0000 C   0  0  0  0  0  0  0  0  0  0  0  0
    8.1654    2.2373    0.0000 C   0  0  0  0  0  0  0  0  0  0  0  0
    7.3564    0.6495    0.0000 C   0  0  0  0  0  0  0  0  0  0  0  0
    5.5963    1.9283    0.0000 C   0  0  0  0  0  0  0  0  0  0  0  0
    8.2224    0.1495    0.0000 C   0  0  2  0  0  0  0  0  0  0  0  0
    8.2224   -0.8505    0.0000 C   0  0  2  0  0  0  0  0  0  0  0  0
    3.9021    2.2884    0.0000 C   0  0  1  0  0  0  0  0  0  0  0  0
    3.6942    1.3102    0.0000 C   0  0  1  0  0  0  0  0  0  0  0  0
    7.3564   -1.3505    0.0000 C   0  0  0  0  0  0  0  0  0  0  0  0
    2.7431    1.0012    0.0000 C   0  0  0  0  0  0  0  0  0  0  0  0
    4.4374    0.6411    0.0000 C   0  0  0  0  0  0  0  0  0  0  0  0
    3.1590    2.9575    0.0000 C   0  0  0  0  0  0  0  0  0  0  0  0
    7.3564   -2.3505    0.0000 C   0  0  0  0  0  0  0  0  0  0  0  0
    9.9545   -0.8505    0.0000 C   0  0  0  0  0  0  0  0  0  0  0  0
   10.8205   -1.3505    0.0000 C   0  0  2  0  0  0  0  0  0  0  0  0
    2.0000    1.6703    0.0000 C   0  0  0  0  0  0  0  0  0  0  0  0
    8.2224   -2.8505    0.0000 C   0  0  0  0  0  0  0  0  0  0  0  0
    6.4904   -2.8505    0.0000 C   0  0  0  0  0  0  0  0  0  0  0  0
   10.8205   -2.3505    0.0000 C   0  0  0  0  0  0  0  0  0  0  0  0
    8.2224   -3.8505    0.0000 C   0  0  0  0  0  0  0  0  0  0  0  0
    6.4904   -3.8505    0.0000 C   0  0  0  0  0  0  0  0  0  0  0  0
    7.3564   -4.3505    0.0000 C   0  0  0  0  0  0  0  0  0  0  0  0
   11.6865    0.1495    0.0000 C   0  0  0  0  0  0  0  0  0  0  0  0
   11.6865   -2.8505    0.0000 C   0  0  0  0  0  0  0  0  0  0  0  0
   12.5525    0.6495    0.0000 C   0  0  0  0  0  0  0  0  0  0  0  0
   12.5525    1.6495    0.0000 C   0  0  0  0  0  0  0  0  0  0  0  0
   13.4186    2.1495    0.0000 C   0  0  0  0  0  0  0  0  0  0  0  0
   14.2846    1.6495    0.0000 C   0  0  0  0  0  0  0  0  0  0  0  0
   13.4186    3.1495    0.0000 C   0  0  0  0  0  0  0  0  0  0  0  0
   15.1506    2.1495    0.0000 C   0  0  0  0  0  0  0  0  0  0  0  0
   14.2846    3.6495    0.0000 C   0  0  0  0  0  0  0  0  0  0  0  0
   15.1506    3.1495    0.0000 C   0  0  0  0  0  0  0  0  0  0  0  0
    6.4504    1.6249    0.0000 H   0  0  0  0  0  0  0  0  0  0  0  0
    6.9212    3.8049    0.0000 H   0  0  0  0  0  0  0  0  0  0  0  0
    6.2499    3.3172    0.0000 H   0  0  0  0  0  0  0  0  0  0  0  0
    8.4628    3.3172    0.0000 H   0  0  0  0  0  0  0  0  0  0  0  0
    7.7916    3.8049    0.0000 H   0  0  0  0  0  0  0  0  0  0  0  0
    8.4754    1.7003    0.0000 H   0  0  0  0  0  0  0  0  0  0  0  0
    8.7318    2.4894    0.0000 H   0  0  0  0  0  0  0  0  0  0  0  0
    8.2224    0.7695    0.0000 H   0  0  0  0  0  0  0  0  0  0  0  0
    8.2224   -1.4705    0.0000 H   0  0  0  0  0  0  0  0  0  0  0  0
    4.0310    2.8948    0.0000 H   0  0  0  0  0  0  0  0  0  0  0  0
    4.9821    3.2038    0.0000 H   0  0  0  0  0  0  0  0  0  0  0  0
    3.5653    0.7038    0.0000 H   0  0  0  0  0  0  0  0  0  0  0  0
    7.1443   -0.7679    0.0000 H   0  0  0  0  0  0  0  0  0  0  0  0
    6.7458   -1.4582    0.0000 H   0  0  0  0  0  0  0  0  0  0  0  0
    9.0884   -1.9705    0.0000 H   0  0  0  0  0  0  0  0  0  0  0  0
    2.2546    0.6195    0.0000 H   0  0  0  0  0  0  0  0  0  0  0  0
    3.0342    0.4538    0.0000 H   0  0  0  0  0  0  0  0  0  0  0  0
    4.0225    0.1803    0.0000 H   0  0  0  0  0  0  0  0  0  0  0  0
    4.8981    0.2262    0.0000 H   0  0  0  0  0  0  0  0  0  0  0  0
    4.8522    1.1018    0.0000 H   0  0  0  0  0  0  0  0  0  0  0  0
    9.0884    1.2695    0.0000 H   0  0  0  0  0  0  0  0  0  0  0  0
   11.3574   -1.6605    0.0000 H   0  0  0  0  0  0  0  0  0  0  0  0
    2.4149    2.1311    0.0000 H   0  0  0  0  0  0  0  0  0  0  0  0
    1.5392    2.0852    0.0000 H   0  0  0  0  0  0  0  0  0  0  0  0
    1.5851    1.2096    0.0000 H   0  0  0  0  0  0  0  0  0  0  0  0
    8.7594   -2.5405    0.0000 H   0  0  0  0  0  0  0  0  0  0  0  0
    5.9534   -2.5405    0.0000 H   0  0  0  0  0  0  0  0  0  0  0  0
   10.2099   -2.2428    0.0000 H   0  0  0  0  0  0  0  0  0  0  0  0
   10.6084   -2.9331    0.0000 H   0  0  0  0  0  0  0  0  0  0  0  0
    2.9061    4.3505    0.0000 H   0  0  0  0  0  0  0  0  0  0  0  0
    3.9565    4.1272    0.0000 H   0  0  0  0  0  0  0  0  0  0  0  0
   12.2235   -1.1605    0.0000 H   0  0  0  0  0  0  0  0  0  0  0  0
    8.7594   -4.1605    0.0000 H   0  0  0  0  0  0  0  0  0  0  0  0
    5.9534   -4.1605    0.0000 H   0  0  0  0  0  0  0  0  0  0  0  0
    7.3564   -4.9705    0.0000 H   0  0  0  0  0  0  0  0  0  0  0  0
   12.7646    0.0669    0.0000 H   0  0  0  0  0  0  0  0  0  0  0  0
   13.1631    0.7572    0.0000 H   0  0  0  0  0  0  0  0  0  0  0  0
   12.3405    2.2321    0.0000 H   0  0  0  0  0  0  0  0  0  0  0  0
   11.9420    1.5418    0.0000 H   0  0  0  0  0  0  0  0  0  0  0  0
   12.2235   -4.1605    0.0000 H   0  0  0  0  0  0  0  0  0  0  0  0
   11.1496   -4.1605    0.0000 H   0  0  0  0  0  0  0  0  0  0  0  0
   14.2846    1.0295    0.0000 H   0  0  0  0  0  0  0  0  0  0  0  0
   12.8816    3.4595    0.0000 H   0  0  0  0  0  0  0  0  0  0  0  0
   15.6876    1.8395    0.0000 H   0  0  0  0  0  0  0  0  0  0  0  0
   14.2846    4.2695    0.0000 H   0  0  0  0  0  0  0  0  0  0  0  0
   15.6876    3.4595    0.0000 H   0  0  0  0  0  0  0  0  0  0  0  0
 20  1  1  1  0  0  0
  1 68  1  0  0  0  0
  2 18  2  0  0  0  0
  3 19  2  0  0  0  0
  4 27  2  0  0  0  0
  5 29  2  0  0  0  0
  6 38  2  0  0  0  0
  7 39  2  0  0  0  0
  8 14  1  0  0  0  0
  8 17  1  0  0  0  0
  8 18  1  0  0  0  0
  9 19  1  0  0  0  0
 22  9  1  1  0  0  0
  9 58  1  0  0  0  0
 21 10  1  1  0  0  0
 10 29  1  0  0  0  0
 10 62  1  0  0  0  0
 11 27  1  0  0  0  0
 11 77  1  0  0  0  0
 11 78  1  0  0  0  0
 30 12  1  1  0  0  0
 12 38  1  0  0  0  0
 12 79  1  0  0  0  0
 13 39  1  0  0  0  0
 13 87  1  0  0  0  0
 13 88  1  0  0  0  0
 14 15  1  0  0  0  0
 14 19  1  6  0  0  0
 14 48  1  0  0  0  0
 15 16  1  0  0  0  0
 15 49  1  0  0  0  0
 15 50  1  0  0  0  0
 16 17  1  0  0  0  0
 16 51  1  0  0  0  0
 16 52  1  0  0  0  0
 17 53  1  0  0  0  0
 17 54  1  0  0  0  0
 18 20  1  0  0  0  0
 20 21  1  0  0  0  0
 20 55  1  0  0  0  0
 21 24  1  0  0  0  0
 21 56  1  0  0  0  0
 22 23  1  0  0  0  0
 22 27  1  0  0  0  0
 22 57  1  0  0  0  0
 23 25  1  0  0  0  0
 23 26  1  6  0  0  0
 23 59  1  0  0  0  0
 24 28  1  0  0  0  0
 24 60  1  0  0  0  0
 24 61  1  0  0  0  0
 25 31  1  0  0  0  0
 25 63  1  0  0  0  0
 25 64  1  0  0  0  0
 26 65  1  0  0  0  0
 26 66  1  0  0  0  0
 26 67  1  0  0  0  0
 28 32  2  0  0  0  0
 28 33  1  0  0  0  0
 29 30  1  0  0  0  0
 30 34  1  0  0  0  0
 30 69  1  0  0  0  0
 31 70  1  0  0  0  0
 31 71  1  0  0  0  0
 31 72  1  0  0  0  0
 32 35  1  0  0  0  0
 32 73  1  0  0  0  0
 33 36  2  0  0  0  0
 33 74  1  0  0  0  0
 34 39  1  0  0  0  0
 34 75  1  0  0  0  0
 34 76  1  0  0  0  0
 35 37  2  0  0  0  0
 35 80  1  0  0  0  0
 36 37  1  0  0  0  0
 36 81  1  0  0  0  0
 37 82  1  0  0  0  0
 38 40  1  0  0  0  0
 40 41  1  0  0  0  0
 40 83  1  0  0  0  0
 40 84  1  0  0  0  0
 41 42  1  0  0  0  0
 41 85  1  0  0  0  0
 41 86  1  0  0  0  0
 42 43  2  0  0  0  0
 42 44  1  0  0  0  0
 43 45  1  0  0  0  0
 43 89  1  0  0  0  0
 44 46  2  0  0  0  0
 44 90  1  0  0  0  0
 45 47  2  0  0  0  0
 45 91  1  0  0  0  0
 46 47  1  0  0  0  0
 46 92  1  0  0  0  0
 47 93  1  0  0  0  0
M  END
> <PUBCHEM_COMPOUND_CID>
501775
> <PUBCHEM_COMPOUND_CANONICALIZED>
1
> <PUBCHEM_CACTVS_COMPLEXITY>
1090
> <PUBCHEM_CACTVS_HBOND_ACCEPTOR>
7
> <PUBCHEM_CACTVS_HBOND_DONOR>
6
> <PUBCHEM_CACTVS_ROTATABLE_BOND>
17
> <PUBCHEM_CACTVS_SUBSKEYS>
AAADcfB/uAAAAAAAAAAAAAAAAAAAAWAAAAAwYAAAAAAAAAABQAAAHgAQCAAADTzhmAYyAIPAAgCIAiFSEAICAAAgAAAIiIHIAIgKcDqA0TGUYAAklgCYiAedyaCOAAAAAAAAAAAAAAAAAAAAAAAAAAAAAA==
> <PUBCHEM_IUPAC_OPENEYE_NAME>
(2S)-N-[(1S,2S)-1-benzyl-3-[(2S)-2-[[(1S,2R)-1-carbamoyl-2-methyl-butyl]carbamoyl]pyrrolidin-1-yl]-2-hydroxy-3-oxo-propyl]-2-(3-phenylpropanoylamino)butanediamide
> <PUBCHEM_IUPAC_CAS_NAME>
(2S)-N-[(2S,3S)-4-[(2S)-2-[[[(2S,3R)-1-amino-3-methyl-1-oxopentan-2-yl]amino]-oxomethyl]-1-pyrrolidinyl]-3-hydroxy-4-oxo-1-phenylbutan-2-yl]-2-[(1-oxo-3-phenylpropyl)amino]butanediamide
> <PUBCHEM_IUPAC_NAME_MARKUP>
(2<I>S</I>)-<I>N</I>-[(2<I>S</I>,3<I>S</I>)-4-[(2<I>S</I>)-2-[[(2<I>S</I>,3<I>R</I>)-1-amino-3-methyl-1-oxopentan-2-yl]carbamoyl]pyrrolidin-1-yl]-3-hydroxy-4-oxo-1-phenylbutan-2-yl]-2-(3-phenylpropanoylamino)butanediamide
> <PUBCHEM_IUPAC_NAME>
(2S)-N-[(2S,3S)-4-[(2S)-2-[[(2S,3R)-1-amino-3-methyl-1-oxopentan-2-yl]carbamoyl]pyrrolidin-1-yl]-3-hydroxy-4-oxo-1-phenylbutan-2-yl]-2-(3-phenylpropanoylamino)butanediamide
> <PUBCHEM_IUPAC_SYSTEMATIC_NAME>
(2S)-N-[(2S,3S)-4-[(2S)-2-[[(2S,3R)-1-azanyl-3-methyl-1-oxidanylidene-pentan-2-yl]carbamoyl]pyrrolidin-1-yl]-3-oxidanyl-4-oxidanylidene-1-phenyl-butan-2-yl]-2-(3-phenylpropanoylamino)butanediamide
> <PUBCHEM_IUPAC_TRADITIONAL_NAME>
(2S)-N-[(1S,2S)-1-benzyl-3-[(2S)-2-[[(1S,2R)-1-carbamoyl-2-methyl-butyl]carbamoyl]pyrrolidino]-2-hydroxy-3-keto-propyl]-2-(hydrocinnamoylamino)succinamide
> <PUBCHEM_IUPAC_INCHI>
InChI=1S/C34H46N6O7/c1-3-21(2)29(31(36)44)39-33(46)26-15-10-18-40(26)34(47)30(43)24(19-23-13-8-5-9-14-23)38-32(45)25(20-27(35)41)37-28(42)17-16-22-11-6-4-7-12-22/h4-9,11-14,21,24-26,29-30,43H,3,10,15-20H2,1-2H3,(H2,35,41)(H2,36,44)(H,37,42)(H,38,45)(H,39,46)/t21-,24+,25+,26+,29+,30+/m1/s1
> <PUBCHEM_IUPAC_INCHIKEY>
LJEYHYFUTNSCOS-ZRKYLQHWSA-N
> <PUBCHEM_XLOGP3_AA>
1.1
> <PUBCHEM_EXACT_MASS>
650.34279783
> <PUBCHEM_MOLECULAR_FORMULA>
C34H46N6O7
> <PUBCHEM_MOLECULAR_WEIGHT>
650.8
> <PUBCHEM_OPENEYE_CAN_SMILES>
CCC(C)C(C(=O)N)NC(=O)C1CCCN1C(=O)C(C(CC2=CC=CC=C2)NC(=O)C(CC(=O)N)NC(=O)CCC3=CC=CC=C3)O
> <PUBCHEM_OPENEYE_ISO_SMILES>
CC[C@@H](C)[C@@H](C(=O)N)NC(=O)[C@@H]1CCCN1C(=O)[C@H]([C@H](CC2=CC=CC=C2)NC(=O)[C@H](CC(=O)N)NC(=O)CCC3=CC=CC=C3)O
> <PUBCHEM_CACTVS_TPSA>
214
> <PUBCHEM_MONOISOTOPIC_WEIGHT>
650.34279783
> <PUBCHEM_TOTAL_CHARGE>
0
> <PUBCHEM_HEAVY_ATOM_COUNT>
47
> <PUBCHEM_ATOM_DEF_STEREO_COUNT>
6
> <PUBCHEM_ATOM_UDEF_STEREO_COUNT>
0
> <PUBCHEM_BOND_DEF_STEREO_COUNT>
0
> <PUBCHEM_BOND_UDEF_STEREO_COUNT>
0
> <PUBCHEM_ISOTOPIC_ATOM_COUNT>
0
> <PUBCHEM_COMPONENT_COUNT>
1
> <PUBCHEM_CACTVS_TAUTO_COUNT>
-1
> <PUBCHEM_COORDINATE_TYPE>
1
5
255
> <PUBCHEM_BONDANNOTATIONS>
20  1  5
21  10  5
30  12  5
14  19  6
23  26  6
28  32  8
28  33  8
32  35  8
33  36  8
35  37  8
36  37  8
42  43  8
42  44  8
43  45  8
44  46  8
45  47  8
46  47  8
22  9  5
$$$$
