501778
  -OEChem-10302200282D
 83 84  0     1  0  0  0  0  0999 V2000
    8.1374    1.2050    0.0000 O   0  0  0  0  0  0  0  0  0  0  0  0
    5.5393    0.7050    0.0000 O   0  0  0  0  0  0  0  0  0  0  0  0
    4.4374    1.5056    0.0000 O   0  0  0  0  0  0  0  0  0  0  0  0
    9.0034    0.7050    0.0000 O   0  0  0  0  0  0  0  0  0  0  0  0
   11.6015    1.2050    0.0000 O   0  0  0  0  0  0  0  0  0  0  0  0
   11.6015   -1.7950    0.0000 O   0  0  0  0  0  0  0  0  0  0  0  0
    9.8694    1.2050    0.0000 O   0  0  0  0  0  0  0  0  0  0  0  0
    6.4053    2.2050    0.0000 N   0  0  0  0  0  0  0  0  0  0  0  0
    3.9021    3.1529    0.0000 N   0  0  0  0  0  0  0  0  0  0  0  0
    8.1374   -0.7950    0.0000 N   0  0  0  0  0  0  0  0  0  0  0  0
   10.7355   -0.2950    0.0000 N   0  0  0  0  0  0  0  0  0  0  0  0
   10.7355   -3.2950    0.0000 N   0  0  0  0  0  0  0  0  0  0  0  0
    5.5963    2.7928    0.0000 C   0  0  3  0  0  0  0  0  0  0  0  0
    5.9053    3.7439    0.0000 C   0  0  0  0  0  0  0  0  0  0  0  0
    6.9053    3.7439    0.0000 C   0  0  0  0  0  0  0  0  0  0  0  0
    7.2144    2.7928    0.0000 C   0  0  0  0  0  0  0  0  0  0  0  0
    6.4053    1.2050    0.0000 C   0  0  0  0  0  0  0  0  0  0  0  0
    4.6453    2.4838    0.0000 C   0  0  0  0  0  0  0  0  0  0  0  0
    7.2714    0.7050    0.0000 C   0  0  2  0  0  0  0  0  0  0  0  0
    7.2714   -0.2950    0.0000 C   0  0  2  0  0  0  0  0  0  0  0  0
    2.9511    2.8439    0.0000 C   0  0  0  0  0  0  0  0  0  0  0  0
    6.4053   -0.7950    0.0000 C   0  0  0  0  0  0  0  0  0  0  0  0
    2.0000    2.5349    0.0000 C   0  0  0  0  0  0  0  0  0  0  0  0
    2.6420    3.7950    0.0000 C   0  0  0  0  0  0  0  0  0  0  0  0
    3.2601    1.8929    0.0000 C   0  0  0  0  0  0  0  0  0  0  0  0
    6.4053   -1.7950    0.0000 C   0  0  0  0  0  0  0  0  0  0  0  0
    9.0034   -0.2950    0.0000 C   0  0  0  0  0  0  0  0  0  0  0  0
    9.8694   -0.7950    0.0000 C   0  0  2  0  0  0  0  0  0  0  0  0
    7.2714   -2.2950    0.0000 C   0  0  0  0  0  0  0  0  0  0  0  0
    5.5393   -2.2950    0.0000 C   0  0  0  0  0  0  0  0  0  0  0  0
    9.8694   -1.7950    0.0000 C   0  0  0  0  0  0  0  0  0  0  0  0
    7.2714   -3.2950    0.0000 C   0  0  0  0  0  0  0  0  0  0  0  0
    5.5393   -3.2950    0.0000 C   0  0  0  0  0  0  0  0  0  0  0  0
    6.4053   -3.7950    0.0000 C   0  0  0  0  0  0  0  0  0  0  0  0
   10.7355   -2.2950    0.0000 C   0  0  0  0  0  0  0  0  0  0  0  0
   10.7355    0.7050    0.0000 C   0  0  0  0  0  0  0  0  0  0  0  0
   11.6015    2.2050    0.0000 C   0  0  0  0  0  0  0  0  0  0  0  0
   11.6015    3.2050    0.0000 C   0  0  0  0  0  0  0  0  0  0  0  0
   12.6015    2.2050    0.0000 C   0  0  0  0  0  0  0  0  0  0  0  0
   10.6015    2.2050    0.0000 C   0  0  0  0  0  0  0  0  0  0  0  0
    5.4993    2.1804    0.0000 H   0  0  0  0  0  0  0  0  0  0  0  0
    5.9701    4.3605    0.0000 H   0  0  0  0  0  0  0  0  0  0  0  0
    5.2989    3.8728    0.0000 H   0  0  0  0  0  0  0  0  0  0  0  0
    7.5118    3.8728    0.0000 H   0  0  0  0  0  0  0  0  0  0  0  0
    6.8405    4.3605    0.0000 H   0  0  0  0  0  0  0  0  0  0  0  0
    7.5244    2.2559    0.0000 H   0  0  0  0  0  0  0  0  0  0  0  0
    7.7808    3.0450    0.0000 H   0  0  0  0  0  0  0  0  0  0  0  0
    7.2714    1.3250    0.0000 H   0  0  0  0  0  0  0  0  0  0  0  0
    7.2714   -0.9150    0.0000 H   0  0  0  0  0  0  0  0  0  0  0  0
    4.0310    3.7594    0.0000 H   0  0  0  0  0  0  0  0  0  0  0  0
    6.1933   -0.2124    0.0000 H   0  0  0  0  0  0  0  0  0  0  0  0
    5.7947   -0.9026    0.0000 H   0  0  0  0  0  0  0  0  0  0  0  0
    8.1374   -1.4150    0.0000 H   0  0  0  0  0  0  0  0  0  0  0  0
    1.8084    3.1246    0.0000 H   0  0  0  0  0  0  0  0  0  0  0  0
    1.4103    2.3433    0.0000 H   0  0  0  0  0  0  0  0  0  0  0  0
    2.1916    1.9452    0.0000 H   0  0  0  0  0  0  0  0  0  0  0  0
    3.2317    3.9866    0.0000 H   0  0  0  0  0  0  0  0  0  0  0  0
    2.4504    4.3846    0.0000 H   0  0  0  0  0  0  0  0  0  0  0  0
    2.0524    3.6034    0.0000 H   0  0  0  0  0  0  0  0  0  0  0  0
    2.6704    1.7013    0.0000 H   0  0  0  0  0  0  0  0  0  0  0  0
    3.4517    1.3032    0.0000 H   0  0  0  0  0  0  0  0  0  0  0  0
    3.8497    2.0844    0.0000 H   0  0  0  0  0  0  0  0  0  0  0  0
    8.1374    1.8250    0.0000 H   0  0  0  0  0  0  0  0  0  0  0  0
   10.4064   -1.1050    0.0000 H   0  0  0  0  0  0  0  0  0  0  0  0
    7.8083   -1.9850    0.0000 H   0  0  0  0  0  0  0  0  0  0  0  0
    5.0024   -1.9850    0.0000 H   0  0  0  0  0  0  0  0  0  0  0  0
    9.2588   -1.6873    0.0000 H   0  0  0  0  0  0  0  0  0  0  0  0
    9.6574   -2.3776    0.0000 H   0  0  0  0  0  0  0  0  0  0  0  0
   11.2724   -0.6050    0.0000 H   0  0  0  0  0  0  0  0  0  0  0  0
    7.8083   -3.6050    0.0000 H   0  0  0  0  0  0  0  0  0  0  0  0
    5.0024   -3.6050    0.0000 H   0  0  0  0  0  0  0  0  0  0  0  0
    6.4053   -4.4150    0.0000 H   0  0  0  0  0  0  0  0  0  0  0  0
   12.2215    3.2050    0.0000 H   0  0  0  0  0  0  0  0  0  0  0  0
   11.6015    3.8250    0.0000 H   0  0  0  0  0  0  0  0  0  0  0  0
   10.9815    3.2050    0.0000 H   0  0  0  0  0  0  0  0  0  0  0  0
   12.6015    1.5850    0.0000 H   0  0  0  0  0  0  0  0  0  0  0  0
   13.2215    2.2050    0.0000 H   0  0  0  0  0  0  0  0  0  0  0  0
   12.6015    2.8250    0.0000 H   0  0  0  0  0  0  0  0  0  0  0  0
   10.6015    2.8250    0.0000 H   0  0  0  0  0  0  0  0  0  0  0  0
    9.9815    2.2050    0.0000 H   0  0  0  0  0  0  0  0  0  0  0  0
   10.6015    1.5850    0.0000 H   0  0  0  0  0  0  0  0  0  0  0  0
   11.2724   -3.6050    0.0000 H   0  0  0  0  0  0  0  0  0  0  0  0
   10.1985   -3.6050    0.0000 H   0  0  0  0  0  0  0  0  0  0  0  0
 19  1  1  1  0  0  0
  1 63  1  0  0  0  0
  2 17  2  0  0  0  0
  3 18  2  0  0  0  0
  4 27  2  0  0  0  0
  5 36  1  0  0  0  0
  5 37  1  0  0  0  0
  6 35  2  0  0  0  0
  7 36  2  0  0  0  0
  8 13  1  0  0  0  0
  8 16  1  0  0  0  0
  8 17  1  0  0  0  0
  9 18  1  0  0  0  0
  9 21  1  0  0  0  0
  9 50  1  0  0  0  0
 20 10  1  1  0  0  0
 10 27  1  0  0  0  0
 10 53  1  0  0  0  0
 28 11  1  1  0  0  0
 11 36  1  0  0  0  0
 11 69  1  0  0  0  0
 12 35  1  0  0  0  0
 12 82  1  0  0  0  0
 12 83  1  0  0  0  0
 13 14  1  0  0  0  0
 13 18  1  0  0  0  0
 13 41  1  0  0  0  0
 14 15  1  0  0  0  0
 14 42  1  0  0  0  0
 14 43  1  0  0  0  0
 15 16  1  0  0  0  0
 15 44  1  0  0  0  0
 15 45  1  0  0  0  0
 16 46  1  0  0  0  0
 16 47  1  0  0  0  0
 17 19  1  0  0  0  0
 19 20  1  0  0  0  0
 19 48  1  0  0  0  0
 20 22  1  0  0  0  0
 20 49  1  0  0  0  0
 21 23  1  0  0  0  0
 21 24  1  0  0  0  0
 21 25  1  0  0  0  0
 22 26  1  0  0  0  0
 22 51  1  0  0  0  0
 22 52  1  0  0  0  0
 23 54  1  0  0  0  0
 23 55  1  0  0  0  0
 23 56  1  0  0  0  0
 24 57  1  0  0  0  0
 24 58  1  0  0  0  0
 24 59  1  0  0  0  0
 25 60  1  0  0  0  0
 25 61  1  0  0  0  0
 25 62  1  0  0  0  0
 26 29  2  0  0  0  0
 26 30  1  0  0  0  0
 27 28  1  0  0  0  0
 28 31  1  0  0  0  0
 28 64  1  0  0  0  0
 29 32  1  0  0  0  0
 29 65  1  0  0  0  0
 30 33  2  0  0  0  0
 30 66  1  0  0  0  0
 31 35  1  0  0  0  0
 31 67  1  0  0  0  0
 31 68  1  0  0  0  0
 32 34  2  0  0  0  0
 32 70  1  0  0  0  0
 33 34  1  0  0  0  0
 33 71  1  0  0  0  0
 34 72  1  0  0  0  0
 37 38  1  0  0  0  0
 37 39  1  0  0  0  0
 37 40  1  0  0  0  0
 38 73  1  0  0  0  0
 38 74  1  0  0  0  0
 38 75  1  0  0  0  0
 39 76  1  0  0  0  0
 39 77  1  0  0  0  0
 39 78  1  0  0  0  0
 40 79  1  0  0  0  0
 40 80  1  0  0  0  0
 40 81  1  0  0  0  0
M  END
> <PUBCHEM_COMPOUND_CID>
501778
> <PUBCHEM_COMPOUND_CANONICALIZED>
1
> <PUBCHEM_CACTVS_COMPLEXITY>
921
> <PUBCHEM_CACTVS_HBOND_ACCEPTOR>
7
> <PUBCHEM_CACTVS_HBOND_DONOR>
5
> <PUBCHEM_CACTVS_ROTATABLE_BOND>
13
> <PUBCHEM_CACTVS_SUBSKEYS>
AAADcfB7uAAAAAAAAAAAAAAAAAAAAWAAAAAwAAAAAAAAAAABAAAAHgAQCAAADPzhmAYyCIPABgCIAiFSGAICAAAgAAAIiIHIAIkKcDqA0TGcYAAklgCYiAedyaCOAAAAAAAAAAAAAAAAAAAAAAAAAAAAAA==
> <PUBCHEM_IUPAC_OPENEYE_NAME>
tert-butyl N-[(1S)-3-amino-1-[[(1S,2S)-1-benzyl-3-[2-(tert-butylcarbamoyl)pyrrolidin-1-yl]-2-hydroxy-3-oxo-propyl]carbamoyl]-3-oxo-propyl]carbamate
> <PUBCHEM_IUPAC_CAS_NAME>
N-[(2S)-4-amino-1-[[(2S,3S)-4-[2-[(tert-butylamino)-oxomethyl]-1-pyrrolidinyl]-3-hydroxy-4-oxo-1-phenylbutan-2-yl]amino]-1,4-dioxobutan-2-yl]carbamic acid tert-butyl ester
> <PUBCHEM_IUPAC_NAME_MARKUP>
<I>tert</I>-butyl <I>N</I>-[(2<I>S</I>)-4-amino-1-[[(2<I>S</I>,3<I>S</I>)-4-[2-(<I>tert</I>-butylcarbamoyl)pyrrolidin-1-yl]-3-hydroxy-4-oxo-1-phenylbutan-2-yl]amino]-1,4-dioxobutan-2-yl]carbamate
> <PUBCHEM_IUPAC_NAME>
tert-butyl N-[(2S)-4-amino-1-[[(2S,3S)-4-[2-(tert-butylcarbamoyl)pyrrolidin-1-yl]-3-hydroxy-4-oxo-1-phenylbutan-2-yl]amino]-1,4-dioxobutan-2-yl]carbamate
> <PUBCHEM_IUPAC_SYSTEMATIC_NAME>
tert-butyl N-[(2S)-4-azanyl-1-[[(2S,3S)-4-[2-(tert-butylcarbamoyl)pyrrolidin-1-yl]-3-oxidanyl-4-oxidanylidene-1-phenyl-butan-2-yl]amino]-1,4-bis(oxidanylidene)butan-2-yl]carbamate
> <PUBCHEM_IUPAC_TRADITIONAL_NAME>
N-[(1S)-3-amino-1-[[(1S,2S)-1-benzyl-3-[2-(tert-butylcarbamoyl)pyrrolidino]-2-hydroxy-3-keto-propyl]carbamoyl]-3-keto-propyl]carbamic acid tert-butyl ester
> <PUBCHEM_IUPAC_INCHI>
InChI=1S/C28H43N5O7/c1-27(2,3)32-24(37)20-13-10-14-33(20)25(38)22(35)18(15-17-11-8-7-9-12-17)30-23(36)19(16-21(29)34)31-26(39)40-28(4,5)6/h7-9,11-12,18-20,22,35H,10,13-16H2,1-6H3,(H2,29,34)(H,30,36)(H,31,39)(H,32,37)/t18-,19-,20?,22-/m0/s1
> <PUBCHEM_IUPAC_INCHIKEY>
CMTHEJTVYDMCET-RZTUXSPFSA-N
> <PUBCHEM_XLOGP3_AA>
0.9
> <PUBCHEM_EXACT_MASS>
561.31624873
> <PUBCHEM_MOLECULAR_FORMULA>
C28H43N5O7
> <PUBCHEM_MOLECULAR_WEIGHT>
561.7
> <PUBCHEM_OPENEYE_CAN_SMILES>
CC(C)(C)NC(=O)C1CCCN1C(=O)C(C(CC2=CC=CC=C2)NC(=O)C(CC(=O)N)NC(=O)OC(C)(C)C)O
> <PUBCHEM_OPENEYE_ISO_SMILES>
CC(C)(C)NC(=O)C1CCCN1C(=O)[C@H]([C@H](CC2=CC=CC=C2)NC(=O)[C@H](CC(=O)N)NC(=O)OC(C)(C)C)O
> <PUBCHEM_CACTVS_TPSA>
180
> <PUBCHEM_MONOISOTOPIC_WEIGHT>
561.31624873
> <PUBCHEM_TOTAL_CHARGE>
0
> <PUBCHEM_HEAVY_ATOM_COUNT>
40
> <PUBCHEM_ATOM_DEF_STEREO_COUNT>
3
> <PUBCHEM_ATOM_UDEF_STEREO_COUNT>
1
> <PUBCHEM_BOND_DEF_STEREO_COUNT>
0
> <PUBCHEM_BOND_UDEF_STEREO_COUNT>
0
> <PUBCHEM_ISOTOPIC_ATOM_COUNT>
0
> <PUBCHEM_COMPONENT_COUNT>
1
> <PUBCHEM_CACTVS_TAUTO_COUNT>
-1
> <PUBCHEM_COORDINATE_TYPE>
1
5
255
> <PUBCHEM_BONDANNOTATIONS>
19  1  5
20  10  5
28  11  5
13  18  3
26  29  8
26  30  8
29  32  8
30  33  8
32  34  8
33  34  8
$$$$
