501746
  -OEChem-10302200282D
108111  0     1  0  0  0  0  0999 V2000
   11.9075    0.9973    0.0000 O   0  0  0  0  0  0  0  0  0  0  0  0
    8.2075    1.2979    0.0000 O   0  0  0  0  0  0  0  0  0  0  0  0
    9.3094    0.4973    0.0000 O   0  0  0  0  0  0  0  0  0  0  0  0
    6.1860    4.2835    0.0000 O   0  0  0  0  0  0  0  0  0  0  0  0
   11.0415   -2.5027    0.0000 O   0  0  0  0  0  0  0  0  0  0  0  0
    3.1249    2.3783    0.0000 O   0  0  0  0  0  0  0  0  0  0  0  0
   11.0415   -3.5027    0.0000 O   0  0  0  0  0  0  0  0  0  0  0  0
    7.5774   -3.5027    0.0000 O   0  0  0  0  0  0  0  0  0  0  0  0
   10.1755    1.9973    0.0000 N   0  0  0  0  0  0  0  0  0  0  0  0
    7.6723    2.9452    0.0000 N   0  0  0  0  0  0  0  0  0  0  0  0
   10.1755   -1.0027    0.0000 N   0  0  0  0  0  0  0  0  0  0  0  0
    5.0270    2.9963    0.0000 N   0  0  0  0  0  0  0  0  0  0  0  0
    8.4434   -2.0027    0.0000 N   0  0  0  0  0  0  0  0  0  0  0  0
    2.5896    4.0255    0.0000 N   0  0  0  0  0  0  0  0  0  0  0  0
   10.1755   -5.0027    0.0000 N   0  0  0  0  0  0  0  0  0  0  0  0
    5.8454   -2.5027    0.0000 N   0  0  0  0  0  0  0  0  0  0  0  0
    9.3665    2.5851    0.0000 C   0  0  1  0  0  0  0  0  0  0  0  0
    9.6755    3.5361    0.0000 C   0  0  0  0  0  0  0  0  0  0  0  0
   10.6755    3.5361    0.0000 C   0  0  0  0  0  0  0  0  0  0  0  0
   10.9845    2.5851    0.0000 C   0  0  0  0  0  0  0  0  0  0  0  0
    8.4154    2.2761    0.0000 C   0  0  0  0  0  0  0  0  0  0  0  0
   10.1755    0.9973    0.0000 C   0  0  0  0  0  0  0  0  0  0  0  0
   11.0415    0.4973    0.0000 C   0  0  2  0  0  0  0  0  0  0  0  0
    6.7212    2.6362    0.0000 C   0  0  1  0  0  0  0  0  0  0  0  0
    6.5133    1.6580    0.0000 C   0  0  1  0  0  0  0  0  0  0  0  0
   11.0415   -0.5027    0.0000 C   0  0  2  0  0  0  0  0  0  0  0  0
   11.9075   -1.0027    0.0000 C   0  0  0  0  0  0  0  0  0  0  0  0
    5.5622    1.3490    0.0000 C   0  0  0  0  0  0  0  0  0  0  0  0
    5.9781    3.3053    0.0000 C   0  0  0  0  0  0  0  0  0  0  0  0
    7.2564    0.9889    0.0000 C   0  0  0  0  0  0  0  0  0  0  0  0
    4.2839    3.6654    0.0000 C   0  0  1  0  0  0  0  0  0  0  0  0
   12.7736   -0.5027    0.0000 C   0  0  0  0  0  0  0  0  0  0  0  0
    5.3543    0.3709    0.0000 C   0  0  0  0  0  0  0  0  0  0  0  0
    4.4918    4.6436    0.0000 C   0  0  0  0  0  0  0  0  0  0  0  0
   10.1755   -2.0027    0.0000 C   0  0  0  0  0  0  0  0  0  0  0  0
    9.3094   -2.5027    0.0000 C   0  0  2  0  0  0  0  0  0  0  0  0
   13.6396   -1.0027    0.0000 C   0  0  0  0  0  0  0  0  0  0  0  0
   12.7736    0.4973    0.0000 C   0  0  0  0  0  0  0  0  0  0  0  0
    3.3328    3.3564    0.0000 C   0  0  0  0  0  0  0  0  0  0  0  0
    3.7486    5.3127    0.0000 C   0  0  0  0  0  0  0  0  0  0  0  0
    5.4428    4.9526    0.0000 C   0  0  0  0  0  0  0  0  0  0  0  0
    9.3094   -3.5027    0.0000 C   0  0  0  0  0  0  0  0  0  0  0  0
   14.5056   -0.5027    0.0000 C   0  0  0  0  0  0  0  0  0  0  0  0
   13.6396    0.9973    0.0000 C   0  0  0  0  0  0  0  0  0  0  0  0
   14.5056    0.4973    0.0000 C   0  0  0  0  0  0  0  0  0  0  0  0
   10.1755   -4.0027    0.0000 C   0  0  0  0  0  0  0  0  0  0  0  0
    7.5774   -2.5027    0.0000 C   0  0  0  0  0  0  0  0  0  0  0  0
    6.7114   -2.0027    0.0000 C   0  0  0  0  0  0  0  0  0  0  0  0
    6.7114   -1.0027    0.0000 C   0  0  0  0  0  0  0  0  0  0  0  0
    4.9793   -2.0027    0.0000 C   0  0  0  0  0  0  0  0  0  0  0  0
    5.8454   -0.5027    0.0000 C   0  0  0  0  0  0  0  0  0  0  0  0
    4.9793   -1.0027    0.0000 C   0  0  0  0  0  0  0  0  0  0  0  0
    4.0854   -2.5374    0.0000 C   0  0  0  0  0  0  0  0  0  0  0  0
    4.0854   -0.4680    0.0000 C   0  0  0  0  0  0  0  0  0  0  0  0
    3.1793   -2.0235    0.0000 C   0  0  0  0  0  0  0  0  0  0  0  0
    3.1793   -0.9819    0.0000 C   0  0  0  0  0  0  0  0  0  0  0  0
    9.2695    1.9727    0.0000 H   0  0  0  0  0  0  0  0  0  0  0  0
    9.7403    4.1527    0.0000 H   0  0  0  0  0  0  0  0  0  0  0  0
    9.0690    3.6650    0.0000 H   0  0  0  0  0  0  0  0  0  0  0  0
   11.2819    3.6650    0.0000 H   0  0  0  0  0  0  0  0  0  0  0  0
   10.6107    4.1527    0.0000 H   0  0  0  0  0  0  0  0  0  0  0  0
   11.2945    2.0482    0.0000 H   0  0  0  0  0  0  0  0  0  0  0  0
   11.5509    2.8373    0.0000 H   0  0  0  0  0  0  0  0  0  0  0  0
   11.5784    0.1873    0.0000 H   0  0  0  0  0  0  0  0  0  0  0  0
    6.8501    3.2426    0.0000 H   0  0  0  0  0  0  0  0  0  0  0  0
    7.1030    1.8496    0.0000 H   0  0  0  0  0  0  0  0  0  0  0  0
    7.8012    3.5516    0.0000 H   0  0  0  0  0  0  0  0  0  0  0  0
   11.0415   -1.1227    0.0000 H   0  0  0  0  0  0  0  0  0  0  0  0
   11.5090   -1.4776    0.0000 H   0  0  0  0  0  0  0  0  0  0  0  0
   12.3061   -1.4776    0.0000 H   0  0  0  0  0  0  0  0  0  0  0  0
    5.4760    1.9630    0.0000 H   0  0  0  0  0  0  0  0  0  0  0  0
    4.9426    1.3706    0.0000 H   0  0  0  0  0  0  0  0  0  0  0  0
    6.8416    0.5282    0.0000 H   0  0  0  0  0  0  0  0  0  0  0  0
    7.7172    0.5740    0.0000 H   0  0  0  0  0  0  0  0  0  0  0  0
    7.6713    1.4497    0.0000 H   0  0  0  0  0  0  0  0  0  0  0  0
    9.6385   -0.6927    0.0000 H   0  0  0  0  0  0  0  0  0  0  0  0
   11.9075    1.6173    0.0000 H   0  0  0  0  0  0  0  0  0  0  0  0
    4.8981    2.3898    0.0000 H   0  0  0  0  0  0  0  0  0  0  0  0
    4.1550    3.0590    0.0000 H   0  0  0  0  0  0  0  0  0  0  0  0
    4.7479    0.4998    0.0000 H   0  0  0  0  0  0  0  0  0  0  0  0
    5.2254   -0.2356    0.0000 H   0  0  0  0  0  0  0  0  0  0  0  0
    5.9608    0.2420    0.0000 H   0  0  0  0  0  0  0  0  0  0  0  0
    3.9021    4.4520    0.0000 H   0  0  0  0  0  0  0  0  0  0  0  0
    9.3094   -1.8827    0.0000 H   0  0  0  0  0  0  0  0  0  0  0  0
   13.6396   -1.6227    0.0000 H   0  0  0  0  0  0  0  0  0  0  0  0
   12.2366    0.8073    0.0000 H   0  0  0  0  0  0  0  0  0  0  0  0
    4.1635    5.7735    0.0000 H   0  0  0  0  0  0  0  0  0  0  0  0
    3.2879    5.7276    0.0000 H   0  0  0  0  0  0  0  0  0  0  0  0
    3.3338    4.8520    0.0000 H   0  0  0  0  0  0  0  0  0  0  0  0
    5.6344    4.3629    0.0000 H   0  0  0  0  0  0  0  0  0  0  0  0
    6.0325    5.1442    0.0000 H   0  0  0  0  0  0  0  0  0  0  0  0
    5.2512    5.5422    0.0000 H   0  0  0  0  0  0  0  0  0  0  0  0
    8.6989   -3.3950    0.0000 H   0  0  0  0  0  0  0  0  0  0  0  0
    9.0974   -4.0853    0.0000 H   0  0  0  0  0  0  0  0  0  0  0  0
    8.4434   -1.3827    0.0000 H   0  0  0  0  0  0  0  0  0  0  0  0
   15.0425   -0.8127    0.0000 H   0  0  0  0  0  0  0  0  0  0  0  0
   13.6396    1.6173    0.0000 H   0  0  0  0  0  0  0  0  0  0  0  0
   15.0425    0.8073    0.0000 H   0  0  0  0  0  0  0  0  0  0  0  0
    2.0000    3.8340    0.0000 H   0  0  0  0  0  0  0  0  0  0  0  0
    2.7186    4.6320    0.0000 H   0  0  0  0  0  0  0  0  0  0  0  0
   10.7124   -5.3127    0.0000 H   0  0  0  0  0  0  0  0  0  0  0  0
    9.6385   -5.3127    0.0000 H   0  0  0  0  0  0  0  0  0  0  0  0
    7.2483   -0.6927    0.0000 H   0  0  0  0  0  0  0  0  0  0  0  0
    5.8454    0.1173    0.0000 H   0  0  0  0  0  0  0  0  0  0  0  0
    4.0926   -3.1573    0.0000 H   0  0  0  0  0  0  0  0  0  0  0  0
    4.0926    0.1519    0.0000 H   0  0  0  0  0  0  0  0  0  0  0  0
    2.6436   -2.3356    0.0000 H   0  0  0  0  0  0  0  0  0  0  0  0
    2.6436   -0.6698    0.0000 H   0  0  0  0  0  0  0  0  0  0  0  0
 23  1  1  1  0  0  0
  1 77  1  0  0  0  0
  2 21  2  0  0  0  0
  3 22  2  0  0  0  0
  4 29  2  0  0  0  0
  5 35  2  0  0  0  0
  6 39  2  0  0  0  0
  7 46  2  0  0  0  0
  8 47  2  0  0  0  0
  9 17  1  0  0  0  0
  9 20  1  0  0  0  0
  9 22  1  0  0  0  0
 10 21  1  0  0  0  0
 24 10  1  1  0  0  0
 10 67  1  0  0  0  0
 26 11  1  6  0  0  0
 11 35  1  0  0  0  0
 11 76  1  0  0  0  0
 12 29  1  0  0  0  0
 31 12  1  6  0  0  0
 12 78  1  0  0  0  0
 36 13  1  6  0  0  0
 13 47  1  0  0  0  0
 13 95  1  0  0  0  0
 14 39  1  0  0  0  0
 14 99  1  0  0  0  0
 14100  1  0  0  0  0
 15 46  1  0  0  0  0
 15101  1  0  0  0  0
 15102  1  0  0  0  0
 16 48  2  0  0  0  0
 16 50  1  0  0  0  0
 17 18  1  0  0  0  0
 17 21  1  6  0  0  0
 17 57  1  0  0  0  0
 18 19  1  0  0  0  0
 18 58  1  0  0  0  0
 18 59  1  0  0  0  0
 19 20  1  0  0  0  0
 19 60  1  0  0  0  0
 19 61  1  0  0  0  0
 20 62  1  0  0  0  0
 20 63  1  0  0  0  0
 22 23  1  0  0  0  0
 23 26  1  0  0  0  0
 23 64  1  0  0  0  0
 24 25  1  0  0  0  0
 24 29  1  0  0  0  0
 24 65  1  0  0  0  0
 25 28  1  0  0  0  0
 25 30  1  6  0  0  0
 25 66  1  0  0  0  0
 26 27  1  0  0  0  0
 26 68  1  0  0  0  0
 27 32  1  0  0  0  0
 27 69  1  0  0  0  0
 27 70  1  0  0  0  0
 28 33  1  0  0  0  0
 28 71  1  0  0  0  0
 28 72  1  0  0  0  0
 30 73  1  0  0  0  0
 30 74  1  0  0  0  0
 30 75  1  0  0  0  0
 31 34  1  0  0  0  0
 31 39  1  0  0  0  0
 31 79  1  0  0  0  0
 32 37  2  0  0  0  0
 32 38  1  0  0  0  0
 33 80  1  0  0  0  0
 33 81  1  0  0  0  0
 33 82  1  0  0  0  0
 34 40  1  0  0  0  0
 34 41  1  0  0  0  0
 34 83  1  0  0  0  0
 35 36  1  0  0  0  0
 36 42  1  0  0  0  0
 36 84  1  0  0  0  0
 37 43  1  0  0  0  0
 37 85  1  0  0  0  0
 38 44  2  0  0  0  0
 38 86  1  0  0  0  0
 40 87  1  0  0  0  0
 40 88  1  0  0  0  0
 40 89  1  0  0  0  0
 41 90  1  0  0  0  0
 41 91  1  0  0  0  0
 41 92  1  0  0  0  0
 42 46  1  0  0  0  0
 42 93  1  0  0  0  0
 42 94  1  0  0  0  0
 43 45  2  0  0  0  0
 43 96  1  0  0  0  0
 44 45  1  0  0  0  0
 44 97  1  0  0  0  0
 45 98  1  0  0  0  0
 47 48  1  0  0  0  0
 48 49  1  0  0  0  0
 49 51  2  0  0  0  0
 49103  1  0  0  0  0
 50 52  1  0  0  0  0
 50 53  2  0  0  0  0
 51 52  1  0  0  0  0
 51104  1  0  0  0  0
 52 54  2  0  0  0  0
 53 55  1  0  0  0  0
 53105  1  0  0  0  0
 54 56  1  0  0  0  0
 54106  1  0  0  0  0
 55 56  2  0  0  0  0
 55107  1  0  0  0  0
 56108  1  0  0  0  0
M  END
> <PUBCHEM_COMPOUND_CID>
501746
> <PUBCHEM_COMPOUND_CANONICALIZED>
1
> <PUBCHEM_CACTVS_COMPLEXITY>
1410
> <PUBCHEM_CACTVS_HBOND_ACCEPTOR>
9
> <PUBCHEM_CACTVS_HBOND_DONOR>
7
> <PUBCHEM_CACTVS_ROTATABLE_BOND>
18
> <PUBCHEM_CACTVS_SUBSKEYS>
AAADcfB//AAAAAAAAAAAAAAAAAAAAWAAAAA8YIAAAAAAAACx9AAAHgAQCAAADTzhngYywPPIEgCoAyVyVAKCgCAnAiAImKH4ZNgKcPrA1bGUYQhklgDYyYedyaCOAAAAAAACAAAAAAAAAAQAAAAAAAAAAA==
> <PUBCHEM_IUPAC_OPENEYE_NAME>
(2S)-N-[(1S,2S)-1-benzyl-3-[(2S)-2-[[(1S,2R)-1-[[(1S)-1-carbamoyl-2-methyl-propyl]carbamoyl]-2-methyl-butyl]carbamoyl]pyrrolidin-1-yl]-2-hydroxy-3-oxo-propyl]-2-(quinoline-2-carbonylamino)butanediamide
> <PUBCHEM_IUPAC_CAS_NAME>
(2S)-N-[(2S,3S)-4-[(2S)-2-[[[(2S,3R)-1-[[(2S)-1-amino-3-methyl-1-oxobutan-2-yl]amino]-3-methyl-1-oxopentan-2-yl]amino]-oxomethyl]-1-pyrrolidinyl]-3-hydroxy-4-oxo-1-phenylbutan-2-yl]-2-[[oxo(2-quinolinyl)methyl]amino]butanediamide
> <PUBCHEM_IUPAC_NAME_MARKUP>
(2<I>S</I>)-<I>N</I>-[(2<I>S</I>,3<I>S</I>)-4-[(2<I>S</I>)-2-[[(2<I>S</I>,3<I>R</I>)-1-[[(2<I>S</I>)-1-amino-3-methyl-1-oxobutan-2-yl]amino]-3-methyl-1-oxopentan-2-yl]carbamoyl]pyrrolidin-1-yl]-3-hydroxy-4-oxo-1-phenylbutan-2-yl]-2-(quinoline-2-carbonylamino)butanediamide
> <PUBCHEM_IUPAC_NAME>
(2S)-N-[(2S,3S)-4-[(2S)-2-[[(2S,3R)-1-[[(2S)-1-amino-3-methyl-1-oxobutan-2-yl]amino]-3-methyl-1-oxopentan-2-yl]carbamoyl]pyrrolidin-1-yl]-3-hydroxy-4-oxo-1-phenylbutan-2-yl]-2-(quinoline-2-carbonylamino)butanediamide
> <PUBCHEM_IUPAC_SYSTEMATIC_NAME>
(2S)-N-[(2S,3S)-4-[(2S)-2-[[(2S,3R)-1-[[(2S)-1-azanyl-3-methyl-1-oxidanylidene-butan-2-yl]amino]-3-methyl-1-oxidanylidene-pentan-2-yl]carbamoyl]pyrrolidin-1-yl]-3-oxidanyl-4-oxidanylidene-1-phenyl-butan-2-yl]-2-(quinolin-2-ylcarbonylamino)butanediamide
> <PUBCHEM_IUPAC_TRADITIONAL_NAME>
(2S)-N-[(1S,2S)-1-benzyl-3-[(2S)-2-[[(1S,2R)-1-[[(1S)-1-carbamoyl-2-methyl-propyl]carbamoyl]-2-methyl-butyl]carbamoyl]pyrrolidino]-2-hydroxy-3-keto-propyl]-2-(quinaldoylamino)succinamide
> <PUBCHEM_IUPAC_INCHI>
InChI=1S/C40H52N8O8/c1-5-23(4)33(39(55)46-32(22(2)3)35(42)51)47-38(54)30-16-11-19-48(30)40(56)34(50)28(20-24-12-7-6-8-13-24)44-37(53)29(21-31(41)49)45-36(52)27-18-17-25-14-9-10-15-26(25)43-27/h6-10,12-15,17-18,22-23,28-30,32-34,50H,5,11,16,19-21H2,1-4H3,(H2,41,49)(H2,42,51)(H,44,53)(H,45,52)(H,46,55)(H,47,54)/t23-,28+,29+,30+,32+,33+,34+/m1/s1
> <PUBCHEM_IUPAC_INCHIKEY>
NQGWJLIIJXAPMC-GULWMCPOSA-N
> <PUBCHEM_XLOGP3_AA>
2.2
> <PUBCHEM_EXACT_MASS>
772.39081065
> <PUBCHEM_MOLECULAR_FORMULA>
C40H52N8O8
> <PUBCHEM_MOLECULAR_WEIGHT>
772.9
> <PUBCHEM_OPENEYE_CAN_SMILES>
CCC(C)C(C(=O)NC(C(C)C)C(=O)N)NC(=O)C1CCCN1C(=O)C(C(CC2=CC=CC=C2)NC(=O)C(CC(=O)N)NC(=O)C3=NC4=CC=CC=C4C=C3)O
> <PUBCHEM_OPENEYE_ISO_SMILES>
CC[C@@H](C)[C@@H](C(=O)N[C@@H](C(C)C)C(=O)N)NC(=O)[C@@H]1CCCN1C(=O)[C@H]([C@H](CC2=CC=CC=C2)NC(=O)[C@H](CC(=O)N)NC(=O)C3=NC4=CC=CC=C4C=C3)O
> <PUBCHEM_CACTVS_TPSA>
256
> <PUBCHEM_MONOISOTOPIC_WEIGHT>
772.39081065
> <PUBCHEM_TOTAL_CHARGE>
0
> <PUBCHEM_HEAVY_ATOM_COUNT>
56
> <PUBCHEM_ATOM_DEF_STEREO_COUNT>
7
> <PUBCHEM_ATOM_UDEF_STEREO_COUNT>
0
> <PUBCHEM_BOND_DEF_STEREO_COUNT>
0
> <PUBCHEM_BOND_UDEF_STEREO_COUNT>
0
> <PUBCHEM_ISOTOPIC_ATOM_COUNT>
0
> <PUBCHEM_COMPONENT_COUNT>
1
> <PUBCHEM_CACTVS_TAUTO_COUNT>
-1
> <PUBCHEM_COORDINATE_TYPE>
1
5
255
> <PUBCHEM_BONDANNOTATIONS>
23  1  5
24  10  5
26  11  6
31  12  6
36  13  6
16  48  8
16  50  8
17  21  6
25  30  6
32  37  8
32  38  8
37  43  8
38  44  8
43  45  8
44  45  8
48  49  8
49  51  8
50  52  8
50  53  8
51  52  8
52  54  8
53  55  8
54  56  8
55  56  8
$$$$
