501797
  -OEChem-10302200282D
 98101  0     1  0  0  0  0  0999 V2000
    2.3660    0.5691    0.0000 S   0  0  0  0  0  0  0  0  0  0  0  0
    5.5384    1.5873    0.0000 O   0  0  0  0  0  0  0  0  0  0  0  0
    3.9487   -1.7673    0.0000 O   0  0  0  0  0  0  0  0  0  0  0  0
    5.6808    0.2327    0.0000 O   0  0  0  0  0  0  0  0  0  0  0  0
    7.4128   -2.7673    0.0000 O   0  0  0  0  0  0  0  0  0  0  0  0
   10.0109    1.7327    0.0000 O   0  0  0  0  0  0  0  0  0  0  0  0
   10.0109   -0.2673    0.0000 O   0  0  0  0  0  0  0  0  0  0  0  0
    8.2788   -3.2673    0.0000 O   0  0  0  0  0  0  0  0  0  0  0  0
    3.9487    0.2327    0.0000 N   0  0  0  0  0  0  0  0  0  0  0  0
    4.3794    2.8745    0.0000 N   0  0  0  0  0  0  0  0  0  0  0  0
    6.5468   -1.2673    0.0000 N   0  0  0  0  0  0  0  0  0  0  0  0
    8.2788   -0.2673    0.0000 N   0  0  0  0  0  0  0  0  0  0  0  0
   10.0109   -3.2673    0.0000 N   0  0  0  0  0  0  0  0  0  0  0  0
    2.8660    1.4351    0.0000 C   0  0  0  0  0  0  0  0  0  0  0  0
    3.8442    1.2272    0.0000 C   0  0  3  0  0  0  0  0  0  0  0  0
    3.0352   -0.1741    0.0000 C   0  0  0  0  0  0  0  0  0  0  0  0
    2.0000    1.9351    0.0000 C   0  0  0  0  0  0  0  0  0  0  0  0
    3.0739    2.4132    0.0000 C   0  0  0  0  0  0  0  0  0  0  0  0
    4.5873    1.8963    0.0000 C   0  0  0  0  0  0  0  0  0  0  0  0
    4.8147   -0.2673    0.0000 C   0  0  0  0  0  0  0  0  0  0  0  0
    4.8147   -1.2673    0.0000 C   0  0  2  0  0  0  0  0  0  0  0  0
    5.6808   -1.7673    0.0000 C   0  0  2  0  0  0  0  0  0  0  0  0
    5.1226    3.5436    0.0000 C   0  0  0  0  0  0  0  0  0  0  0  0
    5.6808   -2.7673    0.0000 C   0  0  0  0  0  0  0  0  0  0  0  0
    5.8657    4.2127    0.0000 C   0  0  0  0  0  0  0  0  0  0  0  0
    4.4534    4.2867    0.0000 C   0  0  0  0  0  0  0  0  0  0  0  0
    5.7917    2.8005    0.0000 C   0  0  0  0  0  0  0  0  0  0  0  0
    4.8147   -3.2673    0.0000 C   0  0  0  0  0  0  0  0  0  0  0  0
    7.4128   -1.7673    0.0000 C   0  0  0  0  0  0  0  0  0  0  0  0
    8.2788   -1.2673    0.0000 C   0  0  2  0  0  0  0  0  0  0  0  0
   12.6769    3.2118    0.0000 C   0  0  0  0  0  0  0  0  0  0  0  0
   12.6769    4.2535    0.0000 C   0  0  0  0  0  0  0  0  0  0  0  0
   11.7708    2.6980    0.0000 C   0  0  0  0  0  0  0  0  0  0  0  0
   11.7708    4.7673    0.0000 C   0  0  0  0  0  0  0  0  0  0  0  0
   10.8769    3.2327    0.0000 C   0  0  0  0  0  0  0  0  0  0  0  0
   10.8769    4.2327    0.0000 C   0  0  0  0  0  0  0  0  0  0  0  0
    3.9487   -2.7673    0.0000 C   0  0  0  0  0  0  0  0  0  0  0  0
    4.8147   -4.2673    0.0000 C   0  0  0  0  0  0  0  0  0  0  0  0
    9.1448   -1.7673    0.0000 C   0  0  0  0  0  0  0  0  0  0  0  0
   10.0109    2.7327    0.0000 C   0  0  0  0  0  0  0  0  0  0  0  0
   10.0109    4.7327    0.0000 C   0  0  0  0  0  0  0  0  0  0  0  0
    3.0827   -3.2673    0.0000 C   0  0  0  0  0  0  0  0  0  0  0  0
    3.9487   -4.7673    0.0000 C   0  0  0  0  0  0  0  0  0  0  0  0
    9.1448    3.2327    0.0000 C   0  0  0  0  0  0  0  0  0  0  0  0
    9.1448    4.2327    0.0000 C   0  0  0  0  0  0  0  0  0  0  0  0
    9.1448    0.2327    0.0000 C   0  0  0  0  0  0  0  0  0  0  0  0
    9.1448    1.2327    0.0000 C   0  0  0  0  0  0  0  0  0  0  0  0
    3.0827   -4.2673    0.0000 C   0  0  0  0  0  0  0  0  0  0  0  0
    9.1448   -2.7673    0.0000 C   0  0  0  0  0  0  0  0  0  0  0  0
    4.4230    1.0050    0.0000 H   0  0  0  0  0  0  0  0  0  0  0  0
    2.5336   -0.5385    0.0000 H   0  0  0  0  0  0  0  0  0  0  0  0
    3.3452   -0.7110    0.0000 H   0  0  0  0  0  0  0  0  0  0  0  0
    2.3100    2.4720    0.0000 H   0  0  0  0  0  0  0  0  0  0  0  0
    1.4631    2.2451    0.0000 H   0  0  0  0  0  0  0  0  0  0  0  0
    1.6900    1.3982    0.0000 H   0  0  0  0  0  0  0  0  0  0  0  0
    3.6804    2.2844    0.0000 H   0  0  0  0  0  0  0  0  0  0  0  0
    3.2028    3.0197    0.0000 H   0  0  0  0  0  0  0  0  0  0  0  0
    2.4675    2.5422    0.0000 H   0  0  0  0  0  0  0  0  0  0  0  0
    4.8147   -1.8873    0.0000 H   0  0  0  0  0  0  0  0  0  0  0  0
    5.6808   -1.1473    0.0000 H   0  0  0  0  0  0  0  0  0  0  0  0
    3.7898    3.0661    0.0000 H   0  0  0  0  0  0  0  0  0  0  0  0
    5.8928   -3.3499    0.0000 H   0  0  0  0  0  0  0  0  0  0  0  0
    6.2913   -2.6597    0.0000 H   0  0  0  0  0  0  0  0  0  0  0  0
    6.5468   -0.6473    0.0000 H   0  0  0  0  0  0  0  0  0  0  0  0
    6.2806    3.7520    0.0000 H   0  0  0  0  0  0  0  0  0  0  0  0
    6.3264    4.6276    0.0000 H   0  0  0  0  0  0  0  0  0  0  0  0
    5.4508    4.6735    0.0000 H   0  0  0  0  0  0  0  0  0  0  0  0
    4.9142    4.7016    0.0000 H   0  0  0  0  0  0  0  0  0  0  0  0
    4.0386    4.7475    0.0000 H   0  0  0  0  0  0  0  0  0  0  0  0
    3.9927    3.8719    0.0000 H   0  0  0  0  0  0  0  0  0  0  0  0
    5.3309    2.3856    0.0000 H   0  0  0  0  0  0  0  0  0  0  0  0
    6.2065    2.3397    0.0000 H   0  0  0  0  0  0  0  0  0  0  0  0
    6.2524    3.2153    0.0000 H   0  0  0  0  0  0  0  0  0  0  0  0
    3.4118   -1.4573    0.0000 H   0  0  0  0  0  0  0  0  0  0  0  0
    8.8158   -0.9573    0.0000 H   0  0  0  0  0  0  0  0  0  0  0  0
   12.8860    2.6282    0.0000 H   0  0  0  0  0  0  0  0  0  0  0  0
   13.2878    3.3180    0.0000 H   0  0  0  0  0  0  0  0  0  0  0  0
   13.2878    4.1474    0.0000 H   0  0  0  0  0  0  0  0  0  0  0  0
   12.8860    4.8372    0.0000 H   0  0  0  0  0  0  0  0  0  0  0  0
   11.3662    2.2282    0.0000 H   0  0  0  0  0  0  0  0  0  0  0  0
   12.1645    2.2190    0.0000 H   0  0  0  0  0  0  0  0  0  0  0  0
   12.1645    5.2463    0.0000 H   0  0  0  0  0  0  0  0  0  0  0  0
   11.3662    5.2371    0.0000 H   0  0  0  0  0  0  0  0  0  0  0  0
    3.9487   -2.1473    0.0000 H   0  0  0  0  0  0  0  0  0  0  0  0
    5.3517   -4.5773    0.0000 H   0  0  0  0  0  0  0  0  0  0  0  0
    9.7554   -1.8750    0.0000 H   0  0  0  0  0  0  0  0  0  0  0  0
    9.3569   -1.1847    0.0000 H   0  0  0  0  0  0  0  0  0  0  0  0
    7.7419    0.0427    0.0000 H   0  0  0  0  0  0  0  0  0  0  0  0
   10.0109    5.3527    0.0000 H   0  0  0  0  0  0  0  0  0  0  0  0
    2.5457   -2.9573    0.0000 H   0  0  0  0  0  0  0  0  0  0  0  0
    3.9487   -5.3873    0.0000 H   0  0  0  0  0  0  0  0  0  0  0  0
    8.6079    2.9227    0.0000 H   0  0  0  0  0  0  0  0  0  0  0  0
    8.6079    4.5427    0.0000 H   0  0  0  0  0  0  0  0  0  0  0  0
    8.9328    1.8153    0.0000 H   0  0  0  0  0  0  0  0  0  0  0  0
    8.5343    1.1250    0.0000 H   0  0  0  0  0  0  0  0  0  0  0  0
    2.5457   -4.5773    0.0000 H   0  0  0  0  0  0  0  0  0  0  0  0
   10.0109   -3.8873    0.0000 H   0  0  0  0  0  0  0  0  0  0  0  0
   10.5478   -2.9573    0.0000 H   0  0  0  0  0  0  0  0  0  0  0  0
  1 14  1  0  0  0  0
  1 16  1  0  0  0  0
  2 19  2  0  0  0  0
 21  3  1  6  0  0  0
  3 74  1  0  0  0  0
  4 20  2  0  0  0  0
  5 29  2  0  0  0  0
  6 40  1  0  0  0  0
  6 47  1  0  0  0  0
  7 46  2  0  0  0  0
  8 49  2  0  0  0  0
  9 15  1  0  0  0  0
  9 16  1  0  0  0  0
  9 20  1  0  0  0  0
 10 19  1  0  0  0  0
 10 23  1  0  0  0  0
 10 61  1  0  0  0  0
 22 11  1  1  0  0  0
 11 29  1  0  0  0  0
 11 64  1  0  0  0  0
 30 12  1  1  0  0  0
 12 46  1  0  0  0  0
 12 88  1  0  0  0  0
 13 49  1  0  0  0  0
 13 97  1  0  0  0  0
 13 98  1  0  0  0  0
 14 15  1  0  0  0  0
 14 17  1  0  0  0  0
 14 18  1  0  0  0  0
 15 19  1  0  0  0  0
 15 50  1  0  0  0  0
 16 51  1  0  0  0  0
 16 52  1  0  0  0  0
 17 53  1  0  0  0  0
 17 54  1  0  0  0  0
 17 55  1  0  0  0  0
 18 56  1  0  0  0  0
 18 57  1  0  0  0  0
 18 58  1  0  0  0  0
 20 21  1  0  0  0  0
 21 22  1  0  0  0  0
 21 59  1  0  0  0  0
 22 24  1  0  0  0  0
 22 60  1  0  0  0  0
 23 25  1  0  0  0  0
 23 26  1  0  0  0  0
 23 27  1  0  0  0  0
 24 28  1  0  0  0  0
 24 62  1  0  0  0  0
 24 63  1  0  0  0  0
 25 65  1  0  0  0  0
 25 66  1  0  0  0  0
 25 67  1  0  0  0  0
 26 68  1  0  0  0  0
 26 69  1  0  0  0  0
 26 70  1  0  0  0  0
 27 71  1  0  0  0  0
 27 72  1  0  0  0  0
 27 73  1  0  0  0  0
 28 37  2  0  0  0  0
 28 38  1  0  0  0  0
 29 30  1  0  0  0  0
 30 39  1  0  0  0  0
 30 75  1  0  0  0  0
 31 32  1  0  0  0  0
 31 33  1  0  0  0  0
 31 76  1  0  0  0  0
 31 77  1  0  0  0  0
 32 34  1  0  0  0  0
 32 78  1  0  0  0  0
 32 79  1  0  0  0  0
 33 35  1  0  0  0  0
 33 80  1  0  0  0  0
 33 81  1  0  0  0  0
 34 36  1  0  0  0  0
 34 82  1  0  0  0  0
 34 83  1  0  0  0  0
 35 36  2  0  0  0  0
 35 40  1  0  0  0  0
 36 41  1  0  0  0  0
 37 42  1  0  0  0  0
 37 84  1  0  0  0  0
 38 43  2  0  0  0  0
 38 85  1  0  0  0  0
 39 49  1  0  0  0  0
 39 86  1  0  0  0  0
 39 87  1  0  0  0  0
 40 44  2  0  0  0  0
 41 45  2  0  0  0  0
 41 89  1  0  0  0  0
 42 48  2  0  0  0  0
 42 90  1  0  0  0  0
 43 48  1  0  0  0  0
 43 91  1  0  0  0  0
 44 45  1  0  0  0  0
 44 92  1  0  0  0  0
 45 93  1  0  0  0  0
 46 47  1  0  0  0  0
 47 94  1  0  0  0  0
 47 95  1  0  0  0  0
 48 96  1  0  0  0  0
M  END
> <PUBCHEM_COMPOUND_CID>
501797
> <PUBCHEM_COMPOUND_CANONICALIZED>
1
> <PUBCHEM_CACTVS_COMPLEXITY>
1190
> <PUBCHEM_CACTVS_HBOND_ACCEPTOR>
8
> <PUBCHEM_CACTVS_HBOND_DONOR>
5
> <PUBCHEM_CACTVS_ROTATABLE_BOND>
14
> <PUBCHEM_CACTVS_SUBSKEYS>
AAADcfB/uABAAAAAAAAAAAAAAAAAAWAAAAAwYMAAAAAAAADBQAAAHgQQCAAADLzh2AayBoPABgiIAiFSEAICCABgIBAIiIHOCIgOdjqk8T+XeCCk1hGYqAedyLCOgAABAAAYAAAAAAIAADAAAAAAAAAAAA==
> <PUBCHEM_IUPAC_OPENEYE_NAME>
(2S)-N-[(1S,2S)-1-benzyl-3-[4-(tert-butylcarbamoyl)-5,5-dimethyl-thiazolidin-3-yl]-2-hydroxy-3-oxo-propyl]-2-[(2-tetralin-5-yloxyacetyl)amino]butanediamide
> <PUBCHEM_IUPAC_CAS_NAME>
(2S)-N-[(2S,3S)-4-[4-[(tert-butylamino)-oxomethyl]-5,5-dimethyl-3-thiazolidinyl]-3-hydroxy-4-oxo-1-phenylbutan-2-yl]-2-[[1-oxo-2-(5,6,7,8-tetrahydronaphthalen-1-yloxy)ethyl]amino]butanediamide
> <PUBCHEM_IUPAC_NAME_MARKUP>
(2<I>S</I>)-<I>N</I>-[(2<I>S</I>,3<I>S</I>)-4-[4-(<I>tert</I>-butylcarbamoyl)-5,5-dimethyl-1,3-thiazolidin-3-yl]-3-hydroxy-4-oxo-1-phenylbutan-2-yl]-2-[[2-(5,6,7,8-tetrahydronaphthalen-1-yloxy)acetyl]amino]butanediamide
> <PUBCHEM_IUPAC_NAME>
(2S)-N-[(2S,3S)-4-[4-(tert-butylcarbamoyl)-5,5-dimethyl-1,3-thiazolidin-3-yl]-3-hydroxy-4-oxo-1-phenylbutan-2-yl]-2-[[2-(5,6,7,8-tetrahydronaphthalen-1-yloxy)acetyl]amino]butanediamide
> <PUBCHEM_IUPAC_SYSTEMATIC_NAME>
(2S)-N-[(2S,3S)-4-[4-(tert-butylcarbamoyl)-5,5-dimethyl-1,3-thiazolidin-3-yl]-3-oxidanyl-4-oxidanylidene-1-phenyl-butan-2-yl]-2-[2-(5,6,7,8-tetrahydronaphthalen-1-yloxy)ethanoylamino]butanediamide
> <PUBCHEM_IUPAC_TRADITIONAL_NAME>
(2S)-N-[(1S,2S)-1-benzyl-3-[4-(tert-butylcarbamoyl)-5,5-dimethyl-thiazolidin-3-yl]-2-hydroxy-3-keto-propyl]-2-[(2-tetralin-5-yloxyacetyl)amino]succinamide
> <PUBCHEM_IUPAC_INCHI>
InChI=1S/C36H49N5O7S/c1-35(2,3)40-33(46)31-36(4,5)49-21-41(31)34(47)30(44)25(18-22-12-7-6-8-13-22)39-32(45)26(19-28(37)42)38-29(43)20-48-27-17-11-15-23-14-9-10-16-24(23)27/h6-8,11-13,15,17,25-26,30-31,44H,9-10,14,16,18-21H2,1-5H3,(H2,37,42)(H,38,43)(H,39,45)(H,40,46)/t25-,26-,30-,31?/m0/s1
> <PUBCHEM_IUPAC_INCHIKEY>
LSESWIYNZJRNMZ-QXYIWFAMSA-N
> <PUBCHEM_XLOGP3_AA>
3.2
> <PUBCHEM_EXACT_MASS>
695.33527009
> <PUBCHEM_MOLECULAR_FORMULA>
C36H49N5O7S
> <PUBCHEM_MOLECULAR_WEIGHT>
695.9
> <PUBCHEM_OPENEYE_CAN_SMILES>
CC1(C(N(CS1)C(=O)C(C(CC2=CC=CC=C2)NC(=O)C(CC(=O)N)NC(=O)COC3=CC=CC4=C3CCCC4)O)C(=O)NC(C)(C)C)C
> <PUBCHEM_OPENEYE_ISO_SMILES>
CC1(C(N(CS1)C(=O)[C@H]([C@H](CC2=CC=CC=C2)NC(=O)[C@H](CC(=O)N)NC(=O)COC3=CC=CC4=C3CCCC4)O)C(=O)NC(C)(C)C)C
> <PUBCHEM_CACTVS_TPSA>
206
> <PUBCHEM_MONOISOTOPIC_WEIGHT>
695.33527009
> <PUBCHEM_TOTAL_CHARGE>
0
> <PUBCHEM_HEAVY_ATOM_COUNT>
49
> <PUBCHEM_ATOM_DEF_STEREO_COUNT>
3
> <PUBCHEM_ATOM_UDEF_STEREO_COUNT>
1
> <PUBCHEM_BOND_DEF_STEREO_COUNT>
0
> <PUBCHEM_BOND_UDEF_STEREO_COUNT>
0
> <PUBCHEM_ISOTOPIC_ATOM_COUNT>
0
> <PUBCHEM_COMPONENT_COUNT>
1
> <PUBCHEM_CACTVS_TAUTO_COUNT>
-1
> <PUBCHEM_COORDINATE_TYPE>
1
5
255
> <PUBCHEM_BONDANNOTATIONS>
22  11  5
30  12  5
15  19  3
28  37  8
28  38  8
21  3  6
35  36  8
35  40  8
36  41  8
37  42  8
38  43  8
40  44  8
41  45  8
42  48  8
43  48  8
44  45  8
$$$$
