501787
  -OEChem-10302200282D
 98101  0     1  0  0  0  0  0999 V2000
    7.4931    2.4514    0.0000 O   0  0  0  0  0  0  0  0  0  0  0  0
    8.1374   -0.8965    0.0000 O   0  0  0  0  0  0  0  0  0  0  0  0
    4.4374   -0.5959    0.0000 O   0  0  0  0  0  0  0  0  0  0  0  0
    5.5393   -1.3965    0.0000 O   0  0  0  0  0  0  0  0  0  0  0  0
    9.0034   -1.3965    0.0000 O   0  0  0  0  0  0  0  0  0  0  0  0
   11.6015   -0.8965    0.0000 O   0  0  0  0  0  0  0  0  0  0  0  0
   11.6015   -3.8965    0.0000 O   0  0  0  0  0  0  0  0  0  0  0  0
    9.8694   -0.8965    0.0000 O   0  0  0  0  0  0  0  0  0  0  0  0
    6.4053    0.1035    0.0000 N   0  0  0  0  0  0  0  0  0  0  0  0
    3.9021    1.0514    0.0000 N   0  0  0  0  0  0  0  0  0  0  0  0
    8.1374   -2.8965    0.0000 N   0  0  0  0  0  0  0  0  0  0  0  0
   10.7355   -2.3965    0.0000 N   0  0  0  0  0  0  0  0  0  0  0  0
   10.7355   -5.3965    0.0000 N   0  0  0  0  0  0  0  0  0  0  0  0
    5.5963    0.6913    0.0000 C   0  0  1  0  0  0  0  0  0  0  0  0
    6.9053    1.6424    0.0000 C   0  0  2  0  0  0  0  0  0  0  0  0
    5.9053    1.6424    0.0000 C   0  0  0  0  0  0  0  0  0  0  0  0
    7.2144    0.6913    0.0000 C   0  0  0  0  0  0  0  0  0  0  0  0
    4.6453    0.3823    0.0000 C   0  0  0  0  0  0  0  0  0  0  0  0
    6.4053   -0.8965    0.0000 C   0  0  0  0  0  0  0  0  0  0  0  0
    7.2714   -1.3965    0.0000 C   0  0  2  0  0  0  0  0  0  0  0  0
    7.2714   -2.3965    0.0000 C   0  0  2  0  0  0  0  0  0  0  0  0
    2.9511    0.7424    0.0000 C   0  0  0  0  0  0  0  0  0  0  0  0
    7.0864    3.3649    0.0000 C   0  0  0  0  0  0  0  0  0  0  0  0
    6.4053   -2.8965    0.0000 C   0  0  0  0  0  0  0  0  0  0  0  0
    2.0000    0.4334    0.0000 C   0  0  0  0  0  0  0  0  0  0  0  0
    2.6420    1.6934    0.0000 C   0  0  0  0  0  0  0  0  0  0  0  0
    3.2601   -0.2087    0.0000 C   0  0  0  0  0  0  0  0  0  0  0  0
    6.4053   -3.8965    0.0000 C   0  0  0  0  0  0  0  0  0  0  0  0
    7.6742    4.1739    0.0000 C   0  0  0  0  0  0  0  0  0  0  0  0
    9.0034   -2.3965    0.0000 C   0  0  0  0  0  0  0  0  0  0  0  0
    9.8694   -2.8965    0.0000 C   0  0  2  0  0  0  0  0  0  0  0  0
    7.2714   -4.3965    0.0000 C   0  0  0  0  0  0  0  0  0  0  0  0
    5.5393   -4.3965    0.0000 C   0  0  0  0  0  0  0  0  0  0  0  0
    8.6687    4.0694    0.0000 C   0  0  0  0  0  0  0  0  0  0  0  0
    7.2674    5.0875    0.0000 C   0  0  0  0  0  0  0  0  0  0  0  0
    9.8694   -3.8965    0.0000 C   0  0  0  0  0  0  0  0  0  0  0  0
    7.2714   -5.3965    0.0000 C   0  0  0  0  0  0  0  0  0  0  0  0
    5.5393   -5.3965    0.0000 C   0  0  0  0  0  0  0  0  0  0  0  0
    9.2565    4.8784    0.0000 C   0  0  0  0  0  0  0  0  0  0  0  0
    7.8552    5.8965    0.0000 C   0  0  0  0  0  0  0  0  0  0  0  0
    6.4053   -5.8965    0.0000 C   0  0  0  0  0  0  0  0  0  0  0  0
    8.8497    5.7920    0.0000 C   0  0  0  0  0  0  0  0  0  0  0  0
   10.7355   -4.3965    0.0000 C   0  0  0  0  0  0  0  0  0  0  0  0
   10.7355   -1.3965    0.0000 C   0  0  0  0  0  0  0  0  0  0  0  0
   11.6015    0.1035    0.0000 C   0  0  0  0  0  0  0  0  0  0  0  0
   12.4675    0.6035    0.0000 C   0  0  0  0  0  0  0  0  0  0  0  0
   12.4675    1.6035    0.0000 C   0  0  0  0  0  0  0  0  0  0  0  0
   13.3335    0.1035    0.0000 C   0  0  0  0  0  0  0  0  0  0  0  0
   13.3335    2.1035    0.0000 C   0  0  0  0  0  0  0  0  0  0  0  0
   14.1996    0.6035    0.0000 C   0  0  0  0  0  0  0  0  0  0  0  0
   14.1996    1.6035    0.0000 C   0  0  0  0  0  0  0  0  0  0  0  0
    5.4993    0.0789    0.0000 H   0  0  0  0  0  0  0  0  0  0  0  0
    6.6239    2.1948    0.0000 H   0  0  0  0  0  0  0  0  0  0  0  0
    5.9701    2.2590    0.0000 H   0  0  0  0  0  0  0  0  0  0  0  0
    5.2989    1.7713    0.0000 H   0  0  0  0  0  0  0  0  0  0  0  0
    7.5244    0.1544    0.0000 H   0  0  0  0  0  0  0  0  0  0  0  0
    7.7808    0.9435    0.0000 H   0  0  0  0  0  0  0  0  0  0  0  0
    7.2714   -0.7765    0.0000 H   0  0  0  0  0  0  0  0  0  0  0  0
    7.2714   -3.0165    0.0000 H   0  0  0  0  0  0  0  0  0  0  0  0
    4.0310    1.6579    0.0000 H   0  0  0  0  0  0  0  0  0  0  0  0
    6.6557    3.8109    0.0000 H   0  0  0  0  0  0  0  0  0  0  0  0
    6.5724    3.0182    0.0000 H   0  0  0  0  0  0  0  0  0  0  0  0
    6.1933   -2.3139    0.0000 H   0  0  0  0  0  0  0  0  0  0  0  0
    5.7947   -3.0042    0.0000 H   0  0  0  0  0  0  0  0  0  0  0  0
    8.1374   -3.5165    0.0000 H   0  0  0  0  0  0  0  0  0  0  0  0
    1.8084    1.0230    0.0000 H   0  0  0  0  0  0  0  0  0  0  0  0
    1.4103    0.2418    0.0000 H   0  0  0  0  0  0  0  0  0  0  0  0
    2.1916   -0.1563    0.0000 H   0  0  0  0  0  0  0  0  0  0  0  0
    3.2317    1.8850    0.0000 H   0  0  0  0  0  0  0  0  0  0  0  0
    2.4504    2.2831    0.0000 H   0  0  0  0  0  0  0  0  0  0  0  0
    2.0524    1.5019    0.0000 H   0  0  0  0  0  0  0  0  0  0  0  0
    2.6704   -0.4003    0.0000 H   0  0  0  0  0  0  0  0  0  0  0  0
    3.4517   -0.7983    0.0000 H   0  0  0  0  0  0  0  0  0  0  0  0
    3.8497   -0.0171    0.0000 H   0  0  0  0  0  0  0  0  0  0  0  0
    8.1374   -0.2765    0.0000 H   0  0  0  0  0  0  0  0  0  0  0  0
   10.4064   -3.2065    0.0000 H   0  0  0  0  0  0  0  0  0  0  0  0
    7.8083   -4.0865    0.0000 H   0  0  0  0  0  0  0  0  0  0  0  0
    5.0024   -4.0865    0.0000 H   0  0  0  0  0  0  0  0  0  0  0  0
    8.9209    3.5030    0.0000 H   0  0  0  0  0  0  0  0  0  0  0  0
    6.6508    5.1523    0.0000 H   0  0  0  0  0  0  0  0  0  0  0  0
    9.2588   -3.7888    0.0000 H   0  0  0  0  0  0  0  0  0  0  0  0
    9.6574   -4.4791    0.0000 H   0  0  0  0  0  0  0  0  0  0  0  0
   11.2724   -2.7065    0.0000 H   0  0  0  0  0  0  0  0  0  0  0  0
    7.8083   -5.7065    0.0000 H   0  0  0  0  0  0  0  0  0  0  0  0
    5.0024   -5.7065    0.0000 H   0  0  0  0  0  0  0  0  0  0  0  0
    9.8731    4.8136    0.0000 H   0  0  0  0  0  0  0  0  0  0  0  0
    7.6030    6.4629    0.0000 H   0  0  0  0  0  0  0  0  0  0  0  0
    6.4053   -6.5165    0.0000 H   0  0  0  0  0  0  0  0  0  0  0  0
    9.2142    6.2936    0.0000 H   0  0  0  0  0  0  0  0  0  0  0  0
   11.2724   -5.7065    0.0000 H   0  0  0  0  0  0  0  0  0  0  0  0
   10.1985   -5.7065    0.0000 H   0  0  0  0  0  0  0  0  0  0  0  0
   11.3894    0.6861    0.0000 H   0  0  0  0  0  0  0  0  0  0  0  0
   10.9909   -0.0042    0.0000 H   0  0  0  0  0  0  0  0  0  0  0  0
   11.9306    1.9135    0.0000 H   0  0  0  0  0  0  0  0  0  0  0  0
   13.3335   -0.5165    0.0000 H   0  0  0  0  0  0  0  0  0  0  0  0
   13.3335    2.7235    0.0000 H   0  0  0  0  0  0  0  0  0  0  0  0
   14.7365    0.2935    0.0000 H   0  0  0  0  0  0  0  0  0  0  0  0
   14.7365    1.9135    0.0000 H   0  0  0  0  0  0  0  0  0  0  0  0
 15  1  1  1  0  0  0
  1 23  1  0  0  0  0
 20  2  1  1  0  0  0
  2 75  1  0  0  0  0
  3 18  2  0  0  0  0
  4 19  2  0  0  0  0
  5 30  2  0  0  0  0
  6 44  1  0  0  0  0
  6 45  1  0  0  0  0
  7 43  2  0  0  0  0
  8 44  2  0  0  0  0
  9 14  1  0  0  0  0
  9 17  1  0  0  0  0
  9 19  1  0  0  0  0
 10 18  1  0  0  0  0
 10 22  1  0  0  0  0
 10 60  1  0  0  0  0
 21 11  1  1  0  0  0
 11 30  1  0  0  0  0
 11 65  1  0  0  0  0
 31 12  1  1  0  0  0
 12 44  1  0  0  0  0
 12 83  1  0  0  0  0
 13 43  1  0  0  0  0
 13 90  1  0  0  0  0
 13 91  1  0  0  0  0
 14 16  1  0  0  0  0
 14 18  1  6  0  0  0
 14 52  1  0  0  0  0
 15 16  1  0  0  0  0
 15 17  1  0  0  0  0
 15 53  1  0  0  0  0
 16 54  1  0  0  0  0
 16 55  1  0  0  0  0
 17 56  1  0  0  0  0
 17 57  1  0  0  0  0
 19 20  1  0  0  0  0
 20 21  1  0  0  0  0
 20 58  1  0  0  0  0
 21 24  1  0  0  0  0
 21 59  1  0  0  0  0
 22 25  1  0  0  0  0
 22 26  1  0  0  0  0
 22 27  1  0  0  0  0
 23 29  1  0  0  0  0
 23 61  1  0  0  0  0
 23 62  1  0  0  0  0
 24 28  1  0  0  0  0
 24 63  1  0  0  0  0
 24 64  1  0  0  0  0
 25 66  1  0  0  0  0
 25 67  1  0  0  0  0
 25 68  1  0  0  0  0
 26 69  1  0  0  0  0
 26 70  1  0  0  0  0
 26 71  1  0  0  0  0
 27 72  1  0  0  0  0
 27 73  1  0  0  0  0
 27 74  1  0  0  0  0
 28 32  2  0  0  0  0
 28 33  1  0  0  0  0
 29 34  2  0  0  0  0
 29 35  1  0  0  0  0
 30 31  1  0  0  0  0
 31 36  1  0  0  0  0
 31 76  1  0  0  0  0
 32 37  1  0  0  0  0
 32 77  1  0  0  0  0
 33 38  2  0  0  0  0
 33 78  1  0  0  0  0
 34 39  1  0  0  0  0
 34 79  1  0  0  0  0
 35 40  2  0  0  0  0
 35 80  1  0  0  0  0
 36 43  1  0  0  0  0
 36 81  1  0  0  0  0
 36 82  1  0  0  0  0
 37 41  2  0  0  0  0
 37 84  1  0  0  0  0
 38 41  1  0  0  0  0
 38 85  1  0  0  0  0
 39 42  2  0  0  0  0
 39 86  1  0  0  0  0
 40 42  1  0  0  0  0
 40 87  1  0  0  0  0
 41 88  1  0  0  0  0
 42 89  1  0  0  0  0
 45 46  1  0  0  0  0
 45 92  1  0  0  0  0
 45 93  1  0  0  0  0
 46 47  2  0  0  0  0
 46 48  1  0  0  0  0
 47 49  1  0  0  0  0
 47 94  1  0  0  0  0
 48 50  2  0  0  0  0
 48 95  1  0  0  0  0
 49 51  2  0  0  0  0
 49 96  1  0  0  0  0
 50 51  1  0  0  0  0
 50 97  1  0  0  0  0
 51 98  1  0  0  0  0
M  END
> <PUBCHEM_COMPOUND_CID>
501787
> <PUBCHEM_COMPOUND_CANONICALIZED>
1
> <PUBCHEM_CACTVS_COMPLEXITY>
1160
> <PUBCHEM_CACTVS_HBOND_ACCEPTOR>
8
> <PUBCHEM_CACTVS_HBOND_DONOR>
5
> <PUBCHEM_CACTVS_ROTATABLE_BOND>
17
> <PUBCHEM_CACTVS_SUBSKEYS>
AAADcfB/vAAAAAAAAAAAAAAAAAAAAWAAAAAwYMAAAAAAAAABUAAAHgAQCAAADLzhmAYyCIPABgCIAiFSGAICAAAgAAAIiIHICIkKdjqA8TmfcAAm1gGYqAe/yaCOAAAAAAAAAAAAAAAAAAAAAAAAAAAAAA==
> <PUBCHEM_IUPAC_OPENEYE_NAME>
benzyl N-[(1S)-3-amino-1-[[(1S,2S)-1-benzyl-3-[(2S,4R)-4-benzyloxy-2-(tert-butylcarbamoyl)pyrrolidin-1-yl]-2-hydroxy-3-oxo-propyl]carbamoyl]-3-oxo-propyl]carbamate
> <PUBCHEM_IUPAC_CAS_NAME>
N-[(2S)-4-amino-1-[[(2S,3S)-4-[(2S,4R)-2-[(tert-butylamino)-oxomethyl]-4-phenylmethoxy-1-pyrrolidinyl]-3-hydroxy-4-oxo-1-phenylbutan-2-yl]amino]-1,4-dioxobutan-2-yl]carbamic acid (phenylmethyl) ester
> <PUBCHEM_IUPAC_NAME_MARKUP>
benzyl <I>N</I>-[(2<I>S</I>)-4-amino-1-[[(2<I>S</I>,3<I>S</I>)-4-[(2<I>S</I>,4<I>R</I>)-2-(<I>tert</I>-butylcarbamoyl)-4-phenylmethoxypyrrolidin-1-yl]-3-hydroxy-4-oxo-1-phenylbutan-2-yl]amino]-1,4-dioxobutan-2-yl]carbamate
> <PUBCHEM_IUPAC_NAME>
benzyl N-[(2S)-4-amino-1-[[(2S,3S)-4-[(2S,4R)-2-(tert-butylcarbamoyl)-4-phenylmethoxypyrrolidin-1-yl]-3-hydroxy-4-oxo-1-phenylbutan-2-yl]amino]-1,4-dioxobutan-2-yl]carbamate
> <PUBCHEM_IUPAC_SYSTEMATIC_NAME>
(phenylmethyl) N-[(2S)-4-azanyl-1-[[(2S,3S)-4-[(2S,4R)-2-(tert-butylcarbamoyl)-4-phenylmethoxy-pyrrolidin-1-yl]-3-oxidanyl-4-oxidanylidene-1-phenyl-butan-2-yl]amino]-1,4-bis(oxidanylidene)butan-2-yl]carbamate
> <PUBCHEM_IUPAC_TRADITIONAL_NAME>
N-[(1S)-3-amino-1-[[(1S,2S)-3-[(2S,4R)-4-benzoxy-2-(tert-butylcarbamoyl)pyrrolidino]-1-benzyl-2-hydroxy-3-keto-propyl]carbamoyl]-3-keto-propyl]carbamic acid benzyl ester
> <PUBCHEM_IUPAC_INCHI>
InChI=1S/C38H47N5O8/c1-38(2,3)42-35(47)31-20-28(50-23-26-15-9-5-10-16-26)22-43(31)36(48)33(45)29(19-25-13-7-4-8-14-25)40-34(46)30(21-32(39)44)41-37(49)51-24-27-17-11-6-12-18-27/h4-18,28-31,33,45H,19-24H2,1-3H3,(H2,39,44)(H,40,46)(H,41,49)(H,42,47)/t28-,29+,30+,31+,33+/m1/s1
> <PUBCHEM_IUPAC_INCHIKEY>
JNLCEYQZXINTRX-PIXGQMGXSA-N
> <PUBCHEM_XLOGP3_AA>
2.5
> <PUBCHEM_EXACT_MASS>
701.34246347
> <PUBCHEM_MOLECULAR_FORMULA>
C38H47N5O8
> <PUBCHEM_MOLECULAR_WEIGHT>
701.8
> <PUBCHEM_OPENEYE_CAN_SMILES>
CC(C)(C)NC(=O)C1CC(CN1C(=O)C(C(CC2=CC=CC=C2)NC(=O)C(CC(=O)N)NC(=O)OCC3=CC=CC=C3)O)OCC4=CC=CC=C4
> <PUBCHEM_OPENEYE_ISO_SMILES>
CC(C)(C)NC(=O)[C@@H]1C[C@H](CN1C(=O)[C@H]([C@H](CC2=CC=CC=C2)NC(=O)[C@H](CC(=O)N)NC(=O)OCC3=CC=CC=C3)O)OCC4=CC=CC=C4
> <PUBCHEM_CACTVS_TPSA>
189
> <PUBCHEM_MONOISOTOPIC_WEIGHT>
701.34246347
> <PUBCHEM_TOTAL_CHARGE>
0
> <PUBCHEM_HEAVY_ATOM_COUNT>
51
> <PUBCHEM_ATOM_DEF_STEREO_COUNT>
5
> <PUBCHEM_ATOM_UDEF_STEREO_COUNT>
0
> <PUBCHEM_BOND_DEF_STEREO_COUNT>
0
> <PUBCHEM_BOND_UDEF_STEREO_COUNT>
0
> <PUBCHEM_ISOTOPIC_ATOM_COUNT>
0
> <PUBCHEM_COMPONENT_COUNT>
1
> <PUBCHEM_CACTVS_TAUTO_COUNT>
-1
> <PUBCHEM_COORDINATE_TYPE>
1
5
255
> <PUBCHEM_BONDANNOTATIONS>
15  1  5
21  11  5
31  12  5
14  18  6
20  2  5
28  32  8
28  33  8
29  34  8
29  35  8
32  37  8
33  38  8
34  39  8
35  40  8
37  41  8
38  41  8
39  42  8
40  42  8
46  47  8
46  48  8
47  49  8
48  50  8
49  51  8
50  51  8
$$$$
