501762
  -OEChem-10302200282D
124128  0     1  0  0  0  0  0999 V2000
   10.1254    0.3695    0.0000 O   0  0  0  0  0  0  0  0  0  0  0  0
    7.6254    1.2355    0.0000 O   0  0  0  0  0  0  0  0  0  0  0  0
    7.0714    2.4798    0.0000 O   0  0  0  0  0  0  0  0  0  0  0  0
    7.9915   -1.8626    0.0000 O   0  0  0  0  0  0  0  0  0  0  0  0
    6.8135    6.0761    0.0000 O   0  0  0  0  0  0  0  0  0  0  0  0
    5.3934   -4.3626    0.0000 O   0  0  0  0  0  0  0  0  0  0  0  0
    5.2594   -0.1305    0.0000 O   0  0  0  0  0  0  0  0  0  0  0  0
    4.5274   -2.8626    0.0000 O   0  0  0  0  0  0  0  0  0  0  0  0
    3.2099    5.9567    0.0000 O   0  0  0  0  0  0  0  0  0  0  0  0
    9.1254    2.1015    0.0000 N   0  0  0  0  0  0  0  0  0  0  0  0
    7.6254   -0.4966    0.0000 N   0  0  0  0  0  0  0  0  0  0  0  0
    7.4315    4.1740    0.0000 N   0  0  0  0  0  0  0  0  0  0  0  0
    6.2594   -2.8626    0.0000 N   0  0  0  0  0  0  0  0  0  0  0  0
    5.1662    5.5409    0.0000 N   0  0  0  0  0  0  0  0  0  0  0  0
    3.7594   -0.9966    0.0000 N   0  0  0  0  0  0  0  0  0  0  0  0
    3.5700    7.6509    0.0000 N   0  0  0  0  0  0  0  0  0  0  0  0
   10.1254   -1.3626    0.0000 C   0  0  0  0  0  0  0  0  0  0  0  0
    9.1254   -1.3626    0.0000 C   0  0  0  0  0  0  0  0  0  0  0  0
   10.6254   -2.2286    0.0000 C   0  0  0  0  0  0  0  0  0  0  0  0
   10.6254   -0.4966    0.0000 C   0  0  0  0  0  0  0  0  0  0  0  0
    8.6254   -0.4966    0.0000 C   0  0  1  0  0  0  0  0  0  0  0  0
   11.6254   -2.2286    0.0000 C   0  0  0  0  0  0  0  0  0  0  0  0
   11.6254   -0.4966    0.0000 C   0  0  0  0  0  0  0  0  0  0  0  0
   12.1254   -1.3626    0.0000 C   0  0  0  0  0  0  0  0  0  0  0  0
    9.1254    0.3695    0.0000 C   0  0  1  0  0  0  0  0  0  0  0  0
    8.7187    3.0151    0.0000 C   0  0  1  0  0  0  0  0  0  0  0  0
    9.4618    3.6842    0.0000 C   0  0  0  0  0  0  0  0  0  0  0  0
   10.1200    2.2060    0.0000 C   0  0  0  0  0  0  0  0  0  0  0  0
    8.6254    1.2355    0.0000 C   0  0  0  0  0  0  0  0  0  0  0  0
   10.3279    3.1842    0.0000 C   0  0  0  0  0  0  0  0  0  0  0  0
    7.7406    3.2230    0.0000 C   0  0  0  0  0  0  0  0  0  0  0  0
    7.1254   -1.3626    0.0000 C   0  0  0  0  0  0  0  0  0  0  0  0
    6.4534    4.3819    0.0000 C   0  0  1  0  0  0  0  0  0  0  0  0
    6.2594   -1.8626    0.0000 C   0  0  2  0  0  0  0  0  0  0  0  0
    5.7843    3.6388    0.0000 C   0  0  1  0  0  0  0  0  0  0  0  0
    4.8061    3.8467    0.0000 C   0  0  0  0  0  0  0  0  0  0  0  0
    5.2594   -1.8626    0.0000 C   0  0  0  0  0  0  0  0  0  0  0  0
    6.1444    5.3330    0.0000 C   0  0  0  0  0  0  0  0  0  0  0  0
    6.0933    2.6877    0.0000 C   0  0  0  0  0  0  0  0  0  0  0  0
    4.8572    6.4920    0.0000 C   0  0  1  0  0  0  0  0  0  0  0  0
    4.1370    3.1036    0.0000 C   0  0  0  0  0  0  0  0  0  0  0  0
    4.7594   -0.9966    0.0000 C   0  0  0  0  0  0  0  0  0  0  0  0
    4.5274   -5.8626    0.0000 C   0  0  0  0  0  0  0  0  0  0  0  0
    5.5263    7.2351    0.0000 C   0  0  0  0  0  0  0  0  0  0  0  0
    5.3934   -3.3626    0.0000 C   0  0  0  0  0  0  0  0  0  0  0  0
    4.5274   -4.8626    0.0000 C   0  0  0  0  0  0  0  0  0  0  0  0
    5.3364   -6.4504    0.0000 C   0  0  0  0  0  0  0  0  0  0  0  0
    3.7183   -6.4504    0.0000 C   0  0  0  0  0  0  0  0  0  0  0  0
    5.0274   -7.4014    0.0000 C   0  0  0  0  0  0  0  0  0  0  0  0
    4.0274   -7.4014    0.0000 C   0  0  0  0  0  0  0  0  0  0  0  0
    3.8791    6.6999    0.0000 C   0  0  0  0  0  0  0  0  0  0  0  0
    5.2173    8.1862    0.0000 C   0  0  0  0  0  0  0  0  0  0  0  0
    6.5045    7.0272    0.0000 C   0  0  0  0  0  0  0  0  0  0  0  0
    6.3518   -6.2181    0.0000 C   0  0  0  0  0  0  0  0  0  0  0  0
    2.7029   -6.2181    0.0000 C   0  0  0  0  0  0  0  0  0  0  0  0
    5.7123   -8.1862    0.0000 C   0  0  0  0  0  0  0  0  0  0  0  0
    3.3424   -8.1862    0.0000 C   0  0  0  0  0  0  0  0  0  0  0  0
    7.0547   -6.9868    0.0000 C   0  0  0  0  0  0  0  0  0  0  0  0
    2.0000   -6.9868    0.0000 C   0  0  0  0  0  0  0  0  0  0  0  0
    6.7328   -7.9775    0.0000 C   0  0  0  0  0  0  0  0  0  0  0  0
    2.3219   -7.9775    0.0000 C   0  0  0  0  0  0  0  0  0  0  0  0
    9.8154   -0.8257    0.0000 H   0  0  0  0  0  0  0  0  0  0  0  0
    8.5428   -1.5746    0.0000 H   0  0  0  0  0  0  0  0  0  0  0  0
    9.2331   -1.9732    0.0000 H   0  0  0  0  0  0  0  0  0  0  0  0
   10.0428   -2.4407    0.0000 H   0  0  0  0  0  0  0  0  0  0  0  0
   10.7331   -2.8392    0.0000 H   0  0  0  0  0  0  0  0  0  0  0  0
   10.7331    0.1140    0.0000 H   0  0  0  0  0  0  0  0  0  0  0  0
   10.0428   -0.2845    0.0000 H   0  0  0  0  0  0  0  0  0  0  0  0
    8.3154   -1.0335    0.0000 H   0  0  0  0  0  0  0  0  0  0  0  0
   11.5178   -2.8392    0.0000 H   0  0  0  0  0  0  0  0  0  0  0  0
   12.2080   -2.4407    0.0000 H   0  0  0  0  0  0  0  0  0  0  0  0
   12.2080   -0.2845    0.0000 H   0  0  0  0  0  0  0  0  0  0  0  0
   11.5178    0.1140    0.0000 H   0  0  0  0  0  0  0  0  0  0  0  0
   12.6004   -1.7611    0.0000 H   0  0  0  0  0  0  0  0  0  0  0  0
   12.6004   -0.9641    0.0000 H   0  0  0  0  0  0  0  0  0  0  0  0
    9.4354    0.9064    0.0000 H   0  0  0  0  0  0  0  0  0  0  0  0
    8.3285    2.5332    0.0000 H   0  0  0  0  0  0  0  0  0  0  0  0
    9.8263    4.1858    0.0000 H   0  0  0  0  0  0  0  0  0  0  0  0
    9.0011    4.0990    0.0000 H   0  0  0  0  0  0  0  0  0  0  0  0
   10.1200    1.5860    0.0000 H   0  0  0  0  0  0  0  0  0  0  0  0
   10.7366    2.1412    0.0000 H   0  0  0  0  0  0  0  0  0  0  0  0
   10.9175    2.9926    0.0000 H   0  0  0  0  0  0  0  0  0  0  0  0
   10.5800    3.7506    0.0000 H   0  0  0  0  0  0  0  0  0  0  0  0
    7.3154    0.0404    0.0000 H   0  0  0  0  0  0  0  0  0  0  0  0
   10.4354    0.9064    0.0000 H   0  0  0  0  0  0  0  0  0  0  0  0
    7.8464    4.6348    0.0000 H   0  0  0  0  0  0  0  0  0  0  0  0
    6.6450    3.7923    0.0000 H   0  0  0  0  0  0  0  0  0  0  0  0
    6.7964   -2.1726    0.0000 H   0  0  0  0  0  0  0  0  0  0  0  0
    5.3694    3.1780    0.0000 H   0  0  0  0  0  0  0  0  0  0  0  0
    5.0384    4.4216    0.0000 H   0  0  0  0  0  0  0  0  0  0  0  0
    4.2803    4.1753    0.0000 H   0  0  0  0  0  0  0  0  0  0  0  0
    4.6768   -2.0746    0.0000 H   0  0  0  0  0  0  0  0  0  0  0  0
    5.3671   -2.4732    0.0000 H   0  0  0  0  0  0  0  0  0  0  0  0
    5.5036    2.4962    0.0000 H   0  0  0  0  0  0  0  0  0  0  0  0
    6.2849    2.0981    0.0000 H   0  0  0  0  0  0  0  0  0  0  0  0
    6.6829    2.8793    0.0000 H   0  0  0  0  0  0  0  0  0  0  0  0
    6.7964   -3.1726    0.0000 H   0  0  0  0  0  0  0  0  0  0  0  0
    4.7514    5.0802    0.0000 H   0  0  0  0  0  0  0  0  0  0  0  0
    5.4637    6.3631    0.0000 H   0  0  0  0  0  0  0  0  0  0  0  0
    3.6762    3.5184    0.0000 H   0  0  0  0  0  0  0  0  0  0  0  0
    3.7221    2.6428    0.0000 H   0  0  0  0  0  0  0  0  0  0  0  0
    4.5977    2.6887    0.0000 H   0  0  0  0  0  0  0  0  0  0  0  0
    5.0798   -5.5811    0.0000 H   0  0  0  0  0  0  0  0  0  0  0  0
    4.9199    7.3640    0.0000 H   0  0  0  0  0  0  0  0  0  0  0  0
    4.3153   -4.2800    0.0000 H   0  0  0  0  0  0  0  0  0  0  0  0
    3.9168   -4.9702    0.0000 H   0  0  0  0  0  0  0  0  0  0  0  0
    5.8070    8.3778    0.0000 H   0  0  0  0  0  0  0  0  0  0  0  0
    5.0257    8.7758    0.0000 H   0  0  0  0  0  0  0  0  0  0  0  0
    4.6277    7.9946    0.0000 H   0  0  0  0  0  0  0  0  0  0  0  0
    6.3756    6.4208    0.0000 H   0  0  0  0  0  0  0  0  0  0  0  0
    7.1109    6.8983    0.0000 H   0  0  0  0  0  0  0  0  0  0  0  0
    6.6334    7.6336    0.0000 H   0  0  0  0  0  0  0  0  0  0  0  0
    6.5365   -5.6263    0.0000 H   0  0  0  0  0  0  0  0  0  0  0  0
    2.5182   -5.6263    0.0000 H   0  0  0  0  0  0  0  0  0  0  0  0
    3.4494   -0.4596    0.0000 H   0  0  0  0  0  0  0  0  0  0  0  0
    3.4494   -1.5335    0.0000 H   0  0  0  0  0  0  0  0  0  0  0  0
    5.5139   -8.7736    0.0000 H   0  0  0  0  0  0  0  0  0  0  0  0
    3.5408   -8.7736    0.0000 H   0  0  0  0  0  0  0  0  0  0  0  0
    7.6607   -6.8556    0.0000 H   0  0  0  0  0  0  0  0  0  0  0  0
    1.3940   -6.8556    0.0000 H   0  0  0  0  0  0  0  0  0  0  0  0
    7.1459   -8.4398    0.0000 H   0  0  0  0  0  0  0  0  0  0  0  0
    1.9088   -8.4398    0.0000 H   0  0  0  0  0  0  0  0  0  0  0  0
    2.9636    7.7798    0.0000 H   0  0  0  0  0  0  0  0  0  0  0  0
    3.9849    8.1117    0.0000 H   0  0  0  0  0  0  0  0  0  0  0  0
 25  1  1  1  0  0  0
  1 85  1  0  0  0  0
  2 29  2  0  0  0  0
  3 31  2  0  0  0  0
  4 32  2  0  0  0  0
  5 38  2  0  0  0  0
  6 45  1  0  0  0  0
  6 46  1  0  0  0  0
  7 42  2  0  0  0  0
  8 45  2  0  0  0  0
  9 51  2  0  0  0  0
 10 26  1  0  0  0  0
 10 28  1  0  0  0  0
 10 29  1  0  0  0  0
 21 11  1  6  0  0  0
 11 32  1  0  0  0  0
 11 84  1  0  0  0  0
 12 31  1  0  0  0  0
 33 12  1  1  0  0  0
 12 86  1  0  0  0  0
 34 13  1  1  0  0  0
 13 45  1  0  0  0  0
 13 97  1  0  0  0  0
 14 38  1  0  0  0  0
 40 14  1  6  0  0  0
 14 98  1  0  0  0  0
 15 42  1  0  0  0  0
 15115  1  0  0  0  0
 15116  1  0  0  0  0
 16 51  1  0  0  0  0
 16123  1  0  0  0  0
 16124  1  0  0  0  0
 17 18  1  0  0  0  0
 17 19  1  0  0  0  0
 17 20  1  0  0  0  0
 17 62  1  0  0  0  0
 18 21  1  0  0  0  0
 18 63  1  0  0  0  0
 18 64  1  0  0  0  0
 19 22  1  0  0  0  0
 19 65  1  0  0  0  0
 19 66  1  0  0  0  0
 20 23  1  0  0  0  0
 20 67  1  0  0  0  0
 20 68  1  0  0  0  0
 21 25  1  0  0  0  0
 21 69  1  0  0  0  0
 22 24  1  0  0  0  0
 22 70  1  0  0  0  0
 22 71  1  0  0  0  0
 23 24  1  0  0  0  0
 23 72  1  0  0  0  0
 23 73  1  0  0  0  0
 24 74  1  0  0  0  0
 24 75  1  0  0  0  0
 25 29  1  0  0  0  0
 25 76  1  0  0  0  0
 26 27  1  0  0  0  0
 26 31  1  6  0  0  0
 26 77  1  0  0  0  0
 27 30  1  0  0  0  0
 27 78  1  0  0  0  0
 27 79  1  0  0  0  0
 28 30  1  0  0  0  0
 28 80  1  0  0  0  0
 28 81  1  0  0  0  0
 30 82  1  0  0  0  0
 30 83  1  0  0  0  0
 32 34  1  0  0  0  0
 33 35  1  0  0  0  0
 33 38  1  0  0  0  0
 33 87  1  0  0  0  0
 34 37  1  0  0  0  0
 34 88  1  0  0  0  0
 35 36  1  0  0  0  0
 35 39  1  6  0  0  0
 35 89  1  0  0  0  0
 36 41  1  0  0  0  0
 36 90  1  0  0  0  0
 36 91  1  0  0  0  0
 37 42  1  0  0  0  0
 37 92  1  0  0  0  0
 37 93  1  0  0  0  0
 39 94  1  0  0  0  0
 39 95  1  0  0  0  0
 39 96  1  0  0  0  0
 40 44  1  0  0  0  0
 40 51  1  0  0  0  0
 40 99  1  0  0  0  0
 41100  1  0  0  0  0
 41101  1  0  0  0  0
 41102  1  0  0  0  0
 43 46  1  0  0  0  0
 43 47  1  0  0  0  0
 43 48  1  0  0  0  0
 43103  1  0  0  0  0
 44 52  1  0  0  0  0
 44 53  1  0  0  0  0
 44104  1  0  0  0  0
 46105  1  0  0  0  0
 46106  1  0  0  0  0
 47 49  1  0  0  0  0
 47 54  2  0  0  0  0
 48 50  1  0  0  0  0
 48 55  2  0  0  0  0
 49 50  1  0  0  0  0
 49 56  2  0  0  0  0
 50 57  2  0  0  0  0
 52107  1  0  0  0  0
 52108  1  0  0  0  0
 52109  1  0  0  0  0
 53110  1  0  0  0  0
 53111  1  0  0  0  0
 53112  1  0  0  0  0
 54 58  1  0  0  0  0
 54113  1  0  0  0  0
 55 59  1  0  0  0  0
 55114  1  0  0  0  0
 56 60  1  0  0  0  0
 56117  1  0  0  0  0
 57 61  1  0  0  0  0
 57118  1  0  0  0  0
 58 60  2  0  0  0  0
 58119  1  0  0  0  0
 59 61  2  0  0  0  0
 59120  1  0  0  0  0
 60121  1  0  0  0  0
 61122  1  0  0  0  0
M  END
> <PUBCHEM_COMPOUND_CID>
501762
> <PUBCHEM_COMPOUND_CANONICALIZED>
1
> <PUBCHEM_CACTVS_COMPLEXITY>
1530
> <PUBCHEM_CACTVS_HBOND_ACCEPTOR>
9
> <PUBCHEM_CACTVS_HBOND_DONOR>
7
> <PUBCHEM_CACTVS_ROTATABLE_BOND>
20
> <PUBCHEM_CACTVS_SUBSKEYS>
AAADcfB/vAAAAAAAAAAAAAAAAAAAAeIAAAAwYMAAAAAAAGABQAAAHgAQCAAADTzhmAYyCIPABgCIAiFSGAICAAAgAAAIiIHIAIkKcDqA0TCcYAAk1gGYiAedyfCOgAAAAAAQAAAAAAAAACAAAQAACAAAAA==
> <PUBCHEM_IUPAC_OPENEYE_NAME>
9H-fluoren-9-ylmethyl N-[(1S)-3-amino-1-[[(1S,2S)-3-[(2S)-2-[[(1S,2R)-1-[[(1S)-1-carbamoyl-2-methyl-propyl]carbamoyl]-2-methyl-butyl]carbamoyl]pyrrolidin-1-yl]-1-(cyclohexylmethyl)-2-hydroxy-3-oxo-propyl]carbamoyl]-3-oxo-propyl]carbamate
> <PUBCHEM_IUPAC_CAS_NAME>
N-[(2S)-4-amino-1-[[(2S,3S)-4-[(2S)-2-[[[(2S,3R)-1-[[(2S)-1-amino-3-methyl-1-oxobutan-2-yl]amino]-3-methyl-1-oxopentan-2-yl]amino]-oxomethyl]-1-pyrrolidinyl]-1-cyclohexyl-3-hydroxy-4-oxobutan-2-yl]amino]-1,4-dioxobutan-2-yl]carbamic acid 9H-fluoren-9-ylmethyl ester
> <PUBCHEM_IUPAC_NAME_MARKUP>
9<I>H</I>-fluoren-9-ylmethyl <I>N</I>-[(2<I>S</I>)-4-amino-1-[[(2<I>S</I>,3<I>S</I>)-4-[(2<I>S</I>)-2-[[(2<I>S</I>,3<I>R</I>)-1-[[(2<I>S</I>)-1-amino-3-methyl-1-oxobutan-2-yl]amino]-3-methyl-1-oxopentan-2-yl]carbamoyl]pyrrolidin-1-yl]-1-cyclohexyl-3-hydroxy-4-oxobutan-2-yl]amino]-1,4-dioxobutan-2-yl]carbamate
> <PUBCHEM_IUPAC_NAME>
9H-fluoren-9-ylmethyl N-[(2S)-4-amino-1-[[(2S,3S)-4-[(2S)-2-[[(2S,3R)-1-[[(2S)-1-amino-3-methyl-1-oxobutan-2-yl]amino]-3-methyl-1-oxopentan-2-yl]carbamoyl]pyrrolidin-1-yl]-1-cyclohexyl-3-hydroxy-4-oxobutan-2-yl]amino]-1,4-dioxobutan-2-yl]carbamate
> <PUBCHEM_IUPAC_SYSTEMATIC_NAME>
9H-fluoren-9-ylmethyl N-[(2S)-4-azanyl-1-[[(2S,3S)-4-[(2S)-2-[[(2S,3R)-1-[[(2S)-1-azanyl-3-methyl-1-oxidanylidene-butan-2-yl]amino]-3-methyl-1-oxidanylidene-pentan-2-yl]carbamoyl]pyrrolidin-1-yl]-1-cyclohexyl-3-oxidanyl-4-oxidanylidene-butan-2-yl]amino]-1,4-bis(oxidanylidene)butan-2-yl]carbamate
> <PUBCHEM_IUPAC_TRADITIONAL_NAME>
N-[(1S)-3-amino-1-[[(1S,2S)-3-[(2S)-2-[[(1S,2R)-1-[[(1S)-1-carbamoyl-2-methyl-propyl]carbamoyl]-2-methyl-butyl]carbamoyl]pyrrolidino]-1-(cyclohexylmethyl)-2-hydroxy-3-keto-propyl]carbamoyl]-3-keto-propyl]carbamic acid 9H-fluoren-9-ylmethyl ester
> <PUBCHEM_IUPAC_INCHI>
InChI=1S/C45H63N7O9/c1-5-26(4)38(43(58)50-37(25(2)3)40(47)55)51-42(57)35-20-13-21-52(35)44(59)39(54)33(22-27-14-7-6-8-15-27)48-41(56)34(23-36(46)53)49-45(60)61-24-32-30-18-11-9-16-28(30)29-17-10-12-19-31(29)32/h9-12,16-19,25-27,32-35,37-39,54H,5-8,13-15,20-24H2,1-4H3,(H2,46,53)(H2,47,55)(H,48,56)(H,49,60)(H,50,58)(H,51,57)/t26-,33+,34+,35+,37+,38+,39+/m1/s1
> <PUBCHEM_IUPAC_INCHIKEY>
JHBFHLIJXAGJQW-OKSFEBOYSA-N
> <PUBCHEM_XLOGP3_AA>
4.6
> <PUBCHEM_EXACT_MASS>
845.46872661
> <PUBCHEM_MOLECULAR_FORMULA>
C45H63N7O9
> <PUBCHEM_MOLECULAR_WEIGHT>
846.0
> <PUBCHEM_OPENEYE_CAN_SMILES>
CCC(C)C(C(=O)NC(C(C)C)C(=O)N)NC(=O)C1CCCN1C(=O)C(C(CC2CCCCC2)NC(=O)C(CC(=O)N)NC(=O)OCC3C4=CC=CC=C4C5=CC=CC=C35)O
> <PUBCHEM_OPENEYE_ISO_SMILES>
CC[C@@H](C)[C@@H](C(=O)N[C@@H](C(C)C)C(=O)N)NC(=O)[C@@H]1CCCN1C(=O)[C@H]([C@H](CC2CCCCC2)NC(=O)[C@H](CC(=O)N)NC(=O)OCC3C4=CC=CC=C4C5=CC=CC=C35)O
> <PUBCHEM_CACTVS_TPSA>
252
> <PUBCHEM_MONOISOTOPIC_WEIGHT>
845.46872661
> <PUBCHEM_TOTAL_CHARGE>
0
> <PUBCHEM_HEAVY_ATOM_COUNT>
61
> <PUBCHEM_ATOM_DEF_STEREO_COUNT>
7
> <PUBCHEM_ATOM_UDEF_STEREO_COUNT>
0
> <PUBCHEM_BOND_DEF_STEREO_COUNT>
0
> <PUBCHEM_BOND_UDEF_STEREO_COUNT>
0
> <PUBCHEM_ISOTOPIC_ATOM_COUNT>
0
> <PUBCHEM_COMPONENT_COUNT>
1
> <PUBCHEM_CACTVS_TAUTO_COUNT>
-1
> <PUBCHEM_COORDINATE_TYPE>
1
5
255
> <PUBCHEM_BONDANNOTATIONS>
25  1  5
21  11  6
33  12  5
34  13  5
40  14  6
26  31  6
35  39  6
47  49  8
47  54  8
48  50  8
48  55  8
49  56  8
50  57  8
54  58  8
55  59  8
56  60  8
57  61  8
58  60  8
59  61  8
$$$$
