501772
  -OEChem-10302200282D
114116  0     1  0  0  0  0  0999 V2000
   10.1589   -0.6045    0.0000 O   0  0  0  0  0  0  0  0  0  0  0  0
    6.4589   -0.3039    0.0000 O   0  0  0  0  0  0  0  0  0  0  0  0
    7.5608   -1.1045    0.0000 O   0  0  0  0  0  0  0  0  0  0  0  0
    3.2784    1.3945    0.0000 O   0  0  0  0  0  0  0  0  0  0  0  0
   11.0249   -1.1045    0.0000 O   0  0  0  0  0  0  0  0  0  0  0  0
    4.8532    4.6380    0.0000 O   0  0  0  0  0  0  0  0  0  0  0  0
   11.8910   -0.6045    0.0000 O   0  0  0  0  0  0  0  0  0  0  0  0
    8.4268    0.3955    0.0000 N   0  0  0  0  0  0  0  0  0  0  0  0
    5.9236    1.3434    0.0000 N   0  0  0  0  0  0  0  0  0  0  0  0
   10.1589   -2.6045    0.0000 N   0  0  0  0  0  0  0  0  0  0  0  0
    4.4374    2.6816    0.0000 N   0  0  0  0  0  0  0  0  0  0  0  0
   12.7570   -2.1045    0.0000 N   0  0  0  0  0  0  0  0  0  0  0  0
    3.1590    4.9981    0.0000 N   0  0  0  0  0  0  0  0  0  0  0  0
    7.6178    0.9833    0.0000 C   0  0  3  0  0  0  0  0  0  0  0  0
    7.9268    1.9343    0.0000 C   0  0  0  0  0  0  0  0  0  0  0  0
    8.9268    1.9343    0.0000 C   0  0  0  0  0  0  0  0  0  0  0  0
    9.2359    0.9833    0.0000 C   0  0  0  0  0  0  0  0  0  0  0  0
    6.6668    0.6743    0.0000 C   0  0  0  0  0  0  0  0  0  0  0  0
    8.4268   -0.6045    0.0000 C   0  0  0  0  0  0  0  0  0  0  0  0
    9.2929   -1.1045    0.0000 C   0  0  2  0  0  0  0  0  0  0  0  0
    4.9726    1.0344    0.0000 C   0  0  1  0  0  0  0  0  0  0  0  0
    9.2929   -2.1045    0.0000 C   0  0  2  0  0  0  0  0  0  0  0  0
    4.7647    0.0562    0.0000 C   0  0  1  0  0  0  0  0  0  0  0  0
    8.4268   -2.6045    0.0000 C   0  0  0  0  0  0  0  0  0  0  0  0
    3.8136   -0.2528    0.0000 C   0  0  0  0  0  0  0  0  0  0  0  0
    4.2294    1.7035    0.0000 C   0  0  0  0  0  0  0  0  0  0  0  0
    5.5078   -0.6129    0.0000 C   0  0  0  0  0  0  0  0  0  0  0  0
   11.8910   -2.6045    0.0000 C   0  0  2  0  0  0  0  0  0  0  0  0
   11.0249   -2.1045    0.0000 C   0  0  0  0  0  0  0  0  0  0  0  0
    8.4268   -3.6045    0.0000 C   0  0  0  0  0  0  0  0  0  0  0  0
    3.6942    3.3508    0.0000 C   0  0  1  0  0  0  0  0  0  0  0  0
   11.8910   -3.6045    0.0000 C   0  0  0  0  0  0  0  0  0  0  0  0
    3.0705    0.4163    0.0000 C   0  0  0  0  0  0  0  0  0  0  0  0
    2.7431    3.0418    0.0000 C   0  0  0  0  0  0  0  0  0  0  0  0
   12.7570   -4.1045    0.0000 C   0  0  0  0  0  0  0  0  0  0  0  0
    7.5608   -4.1045    0.0000 C   0  0  0  0  0  0  0  0  0  0  0  0
    9.2929   -4.1045    0.0000 C   0  0  0  0  0  0  0  0  0  0  0  0
    3.9021    4.3289    0.0000 C   0  0  0  0  0  0  0  0  0  0  0  0
    2.0000    3.7109    0.0000 C   0  0  0  0  0  0  0  0  0  0  0  0
    2.5352    2.0636    0.0000 C   0  0  0  0  0  0  0  0  0  0  0  0
   12.7570   -5.1045    0.0000 C   0  0  0  0  0  0  0  0  0  0  0  0
   13.6230   -3.6045    0.0000 C   0  0  0  0  0  0  0  0  0  0  0  0
   12.7570   -1.1045    0.0000 C   0  0  0  0  0  0  0  0  0  0  0  0
    7.5608   -5.1045    0.0000 C   0  0  0  0  0  0  0  0  0  0  0  0
    9.2929   -5.1045    0.0000 C   0  0  0  0  0  0  0  0  0  0  0  0
    8.4268   -5.6045    0.0000 C   0  0  0  0  0  0  0  0  0  0  0  0
   13.6230   -0.6045    0.0000 C   0  0  0  0  0  0  0  0  0  0  0  0
   13.6230    0.3955    0.0000 C   0  0  0  0  0  0  0  0  0  0  0  0
   14.4890    0.8955    0.0000 C   0  0  0  0  0  0  0  0  0  0  0  0
   15.3551    0.3955    0.0000 C   0  0  0  0  0  0  0  0  0  0  0  0
   14.4890    1.8955    0.0000 C   0  0  0  0  0  0  0  0  0  0  0  0
   16.2211    0.8955    0.0000 C   0  0  0  0  0  0  0  0  0  0  0  0
   15.3551    2.3955    0.0000 C   0  0  0  0  0  0  0  0  0  0  0  0
   16.2211    1.8955    0.0000 C   0  0  0  0  0  0  0  0  0  0  0  0
    7.5208    0.3709    0.0000 H   0  0  0  0  0  0  0  0  0  0  0  0
    7.9917    2.5509    0.0000 H   0  0  0  0  0  0  0  0  0  0  0  0
    7.3204    2.0632    0.0000 H   0  0  0  0  0  0  0  0  0  0  0  0
    9.5333    2.0632    0.0000 H   0  0  0  0  0  0  0  0  0  0  0  0
    8.8620    2.5509    0.0000 H   0  0  0  0  0  0  0  0  0  0  0  0
    9.5459    0.4463    0.0000 H   0  0  0  0  0  0  0  0  0  0  0  0
    9.8023    1.2354    0.0000 H   0  0  0  0  0  0  0  0  0  0  0  0
    9.2929   -0.4845    0.0000 H   0  0  0  0  0  0  0  0  0  0  0  0
    5.4333    0.6195    0.0000 H   0  0  0  0  0  0  0  0  0  0  0  0
    9.2929   -2.7245    0.0000 H   0  0  0  0  0  0  0  0  0  0  0  0
    6.0525    1.9498    0.0000 H   0  0  0  0  0  0  0  0  0  0  0  0
    4.6358   -0.5502    0.0000 H   0  0  0  0  0  0  0  0  0  0  0  0
    8.2148   -2.0219    0.0000 H   0  0  0  0  0  0  0  0  0  0  0  0
    7.8163   -2.7122    0.0000 H   0  0  0  0  0  0  0  0  0  0  0  0
    3.3250   -0.6345    0.0000 H   0  0  0  0  0  0  0  0  0  0  0  0
    4.1047   -0.8002    0.0000 H   0  0  0  0  0  0  0  0  0  0  0  0
   10.1589   -3.2245    0.0000 H   0  0  0  0  0  0  0  0  0  0  0  0
    5.0930   -1.0737    0.0000 H   0  0  0  0  0  0  0  0  0  0  0  0
    5.9686   -1.0278    0.0000 H   0  0  0  0  0  0  0  0  0  0  0  0
    5.9227   -0.1522    0.0000 H   0  0  0  0  0  0  0  0  0  0  0  0
   12.4279   -2.9145    0.0000 H   0  0  0  0  0  0  0  0  0  0  0  0
   10.1589    0.0155    0.0000 H   0  0  0  0  0  0  0  0  0  0  0  0
    5.0270    2.8732    0.0000 H   0  0  0  0  0  0  0  0  0  0  0  0
    3.5653    2.7443    0.0000 H   0  0  0  0  0  0  0  0  0  0  0  0
   11.2804   -3.4968    0.0000 H   0  0  0  0  0  0  0  0  0  0  0  0
   11.6789   -4.1871    0.0000 H   0  0  0  0  0  0  0  0  0  0  0  0
    3.4853    0.8771    0.0000 H   0  0  0  0  0  0  0  0  0  0  0  0
    2.6097    0.8312    0.0000 H   0  0  0  0  0  0  0  0  0  0  0  0
    2.6556   -0.0444    0.0000 H   0  0  0  0  0  0  0  0  0  0  0  0
    2.8721    3.6482    0.0000 H   0  0  0  0  0  0  0  0  0  0  0  0
   12.2200   -4.4145    0.0000 H   0  0  0  0  0  0  0  0  0  0  0  0
   13.2939   -2.4145    0.0000 H   0  0  0  0  0  0  0  0  0  0  0  0
    7.0239   -3.7945    0.0000 H   0  0  0  0  0  0  0  0  0  0  0  0
    9.8298   -3.7945    0.0000 H   0  0  0  0  0  0  0  0  0  0  0  0
    2.4149    4.1716    0.0000 H   0  0  0  0  0  0  0  0  0  0  0  0
    1.5392    4.1258    0.0000 H   0  0  0  0  0  0  0  0  0  0  0  0
    1.5851    3.2501    0.0000 H   0  0  0  0  0  0  0  0  0  0  0  0
    1.9288    2.1925    0.0000 H   0  0  0  0  0  0  0  0  0  0  0  0
    2.4063    1.4572    0.0000 H   0  0  0  0  0  0  0  0  0  0  0  0
    3.1417    1.9347    0.0000 H   0  0  0  0  0  0  0  0  0  0  0  0
   12.1370   -5.1045    0.0000 H   0  0  0  0  0  0  0  0  0  0  0  0
   12.7570   -5.7245    0.0000 H   0  0  0  0  0  0  0  0  0  0  0  0
   13.3770   -5.1045    0.0000 H   0  0  0  0  0  0  0  0  0  0  0  0
   13.9330   -4.1414    0.0000 H   0  0  0  0  0  0  0  0  0  0  0  0
   14.1599   -3.2945    0.0000 H   0  0  0  0  0  0  0  0  0  0  0  0
   13.3130   -3.0676    0.0000 H   0  0  0  0  0  0  0  0  0  0  0  0
    7.0239   -5.4145    0.0000 H   0  0  0  0  0  0  0  0  0  0  0  0
    9.8298   -5.4145    0.0000 H   0  0  0  0  0  0  0  0  0  0  0  0
    8.4268   -6.2245    0.0000 H   0  0  0  0  0  0  0  0  0  0  0  0
   13.8351   -1.1871    0.0000 H   0  0  0  0  0  0  0  0  0  0  0  0
   14.2336   -0.4968    0.0000 H   0  0  0  0  0  0  0  0  0  0  0  0
    3.2879    5.6045    0.0000 H   0  0  0  0  0  0  0  0  0  0  0  0
    2.5693    4.8065    0.0000 H   0  0  0  0  0  0  0  0  0  0  0  0
   13.4110    0.9781    0.0000 H   0  0  0  0  0  0  0  0  0  0  0  0
   13.0124    0.2878    0.0000 H   0  0  0  0  0  0  0  0  0  0  0  0
   15.3551   -0.2245    0.0000 H   0  0  0  0  0  0  0  0  0  0  0  0
   13.9521    2.2055    0.0000 H   0  0  0  0  0  0  0  0  0  0  0  0
   16.7580    0.5855    0.0000 H   0  0  0  0  0  0  0  0  0  0  0  0
   15.3551    3.0155    0.0000 H   0  0  0  0  0  0  0  0  0  0  0  0
   16.7580    2.2055    0.0000 H   0  0  0  0  0  0  0  0  0  0  0  0
 20  1  1  1  0  0  0
  1 76  1  0  0  0  0
  2 18  2  0  0  0  0
  3 19  2  0  0  0  0
  4 26  2  0  0  0  0
  5 29  2  0  0  0  0
  6 38  2  0  0  0  0
  7 43  2  0  0  0  0
  8 14  1  0  0  0  0
  8 17  1  0  0  0  0
  8 19  1  0  0  0  0
  9 18  1  0  0  0  0
 21  9  1  1  0  0  0
  9 65  1  0  0  0  0
 22 10  1  1  0  0  0
 10 29  1  0  0  0  0
 10 71  1  0  0  0  0
 11 26  1  0  0  0  0
 31 11  1  1  0  0  0
 11 77  1  0  0  0  0
 28 12  1  1  0  0  0
 12 43  1  0  0  0  0
 12 86  1  0  0  0  0
 13 38  1  0  0  0  0
 13106  1  0  0  0  0
 13107  1  0  0  0  0
 14 15  1  0  0  0  0
 14 18  1  0  0  0  0
 14 55  1  0  0  0  0
 15 16  1  0  0  0  0
 15 56  1  0  0  0  0
 15 57  1  0  0  0  0
 16 17  1  0  0  0  0
 16 58  1  0  0  0  0
 16 59  1  0  0  0  0
 17 60  1  0  0  0  0
 17 61  1  0  0  0  0
 19 20  1  0  0  0  0
 20 22  1  0  0  0  0
 20 62  1  0  0  0  0
 21 23  1  0  0  0  0
 21 26  1  0  0  0  0
 21 63  1  0  0  0  0
 22 24  1  0  0  0  0
 22 64  1  0  0  0  0
 23 25  1  0  0  0  0
 23 27  1  6  0  0  0
 23 66  1  0  0  0  0
 24 30  1  0  0  0  0
 24 67  1  0  0  0  0
 24 68  1  0  0  0  0
 25 33  1  0  0  0  0
 25 69  1  0  0  0  0
 25 70  1  0  0  0  0
 27 72  1  0  0  0  0
 27 73  1  0  0  0  0
 27 74  1  0  0  0  0
 28 29  1  0  0  0  0
 28 32  1  0  0  0  0
 28 75  1  0  0  0  0
 30 36  2  0  0  0  0
 30 37  1  0  0  0  0
 31 34  1  0  0  0  0
 31 38  1  0  0  0  0
 31 78  1  0  0  0  0
 32 35  1  0  0  0  0
 32 79  1  0  0  0  0
 32 80  1  0  0  0  0
 33 81  1  0  0  0  0
 33 82  1  0  0  0  0
 33 83  1  0  0  0  0
 34 39  1  0  0  0  0
 34 40  1  0  0  0  0
 34 84  1  0  0  0  0
 35 41  1  0  0  0  0
 35 42  1  0  0  0  0
 35 85  1  0  0  0  0
 36 44  1  0  0  0  0
 36 87  1  0  0  0  0
 37 45  2  0  0  0  0
 37 88  1  0  0  0  0
 39 89  1  0  0  0  0
 39 90  1  0  0  0  0
 39 91  1  0  0  0  0
 40 92  1  0  0  0  0
 40 93  1  0  0  0  0
 40 94  1  0  0  0  0
 41 95  1  0  0  0  0
 41 96  1  0  0  0  0
 41 97  1  0  0  0  0
 42 98  1  0  0  0  0
 42 99  1  0  0  0  0
 42100  1  0  0  0  0
 43 47  1  0  0  0  0
 44 46  2  0  0  0  0
 44101  1  0  0  0  0
 45 46  1  0  0  0  0
 45102  1  0  0  0  0
 46103  1  0  0  0  0
 47 48  1  0  0  0  0
 47104  1  0  0  0  0
 47105  1  0  0  0  0
 48 49  1  0  0  0  0
 48108  1  0  0  0  0
 48109  1  0  0  0  0
 49 50  2  0  0  0  0
 49 51  1  0  0  0  0
 50 52  1  0  0  0  0
 50110  1  0  0  0  0
 51 53  2  0  0  0  0
 51111  1  0  0  0  0
 52 54  2  0  0  0  0
 52112  1  0  0  0  0
 53 54  1  0  0  0  0
 53113  1  0  0  0  0
 54114  1  0  0  0  0
M  END
> <PUBCHEM_COMPOUND_CID>
501772
> <PUBCHEM_COMPOUND_CANONICALIZED>
1
> <PUBCHEM_CACTVS_COMPLEXITY>
1250
> <PUBCHEM_CACTVS_HBOND_ACCEPTOR>
7
> <PUBCHEM_CACTVS_HBOND_DONOR>
6
> <PUBCHEM_CACTVS_ROTATABLE_BOND>
20
> <PUBCHEM_CACTVS_SUBSKEYS>
AAADcfB/uAAAAAAAAAAAAAAAAAAAAWAAAAAwYAAAAAAAAAABQAAAHgAQCAAADTzhmAYyAIPAAgCIAiFSEAICAAAgAAAIiIHIAIgKcDqA0TGUYAAklgCYiAeYyaCOAAAAAAAAAAAAAAAAAAAAAAAAAAAAAA==
> <PUBCHEM_IUPAC_OPENEYE_NAME>
N-[(1S,2R)-1-[[(1S)-1-carbamoyl-2-methyl-propyl]carbamoyl]-2-methyl-butyl]-1-[(2S,3S)-2-hydroxy-3-[[(2S)-4-methyl-2-(3-phenylpropanoylamino)pentanoyl]amino]-4-phenyl-butanoyl]pyrrolidine-2-carboxamide
> <PUBCHEM_IUPAC_CAS_NAME>
N-[(2S,3R)-1-[[(2S)-1-amino-3-methyl-1-oxobutan-2-yl]amino]-3-methyl-1-oxopentan-2-yl]-1-[(2S,3S)-2-hydroxy-3-[[(2S)-4-methyl-1-oxo-2-[(1-oxo-3-phenylpropyl)amino]pentyl]amino]-1-oxo-4-phenylbutyl]-2-pyrrolidinecarboxamide
> <PUBCHEM_IUPAC_NAME_MARKUP>
<I>N</I>-[(2<I>S</I>,3<I>R</I>)-1-[[(2<I>S</I>)-1-amino-3-methyl-1-oxobutan-2-yl]amino]-3-methyl-1-oxopentan-2-yl]-1-[(2<I>S</I>,3<I>S</I>)-2-hydroxy-3-[[(2<I>S</I>)-4-methyl-2-(3-phenylpropanoylamino)pentanoyl]amino]-4-phenylbutanoyl]pyrrolidine-2-carboxamide
> <PUBCHEM_IUPAC_NAME>
N-[(2S,3R)-1-[[(2S)-1-amino-3-methyl-1-oxobutan-2-yl]amino]-3-methyl-1-oxopentan-2-yl]-1-[(2S,3S)-2-hydroxy-3-[[(2S)-4-methyl-2-(3-phenylpropanoylamino)pentanoyl]amino]-4-phenylbutanoyl]pyrrolidine-2-carboxamide
> <PUBCHEM_IUPAC_SYSTEMATIC_NAME>
N-[(2S,3R)-1-[[(2S)-1-azanyl-3-methyl-1-oxidanylidene-butan-2-yl]amino]-3-methyl-1-oxidanylidene-pentan-2-yl]-1-[(2S,3S)-3-[[(2S)-4-methyl-2-(3-phenylpropanoylamino)pentanoyl]amino]-2-oxidanyl-4-phenyl-butanoyl]pyrrolidine-2-carboxamide
> <PUBCHEM_IUPAC_TRADITIONAL_NAME>
N-[(1S,2R)-1-[[(1S)-1-carbamoyl-2-methyl-propyl]carbamoyl]-2-methyl-butyl]-1-[(2S,3S)-3-[[(2S)-2-(hydrocinnamoylamino)-4-methyl-pentanoyl]amino]-2-hydroxy-4-phenyl-butanoyl]pyrrolidine-2-carboxamide
> <PUBCHEM_IUPAC_INCHI>
InChI=1S/C41H60N6O7/c1-7-27(6)35(40(53)45-34(26(4)5)37(42)50)46-39(52)32-19-14-22-47(32)41(54)36(49)30(24-29-17-12-9-13-18-29)44-38(51)31(23-25(2)3)43-33(48)21-20-28-15-10-8-11-16-28/h8-13,15-18,25-27,30-32,34-36,49H,7,14,19-24H2,1-6H3,(H2,42,50)(H,43,48)(H,44,51)(H,45,53)(H,46,52)/t27-,30+,31+,32?,34+,35+,36+/m1/s1
> <PUBCHEM_IUPAC_INCHIKEY>
ZHXVIZDPZDPJGH-HMBQKLDCSA-N
> <PUBCHEM_XLOGP3_AA>
4.6
> <PUBCHEM_EXACT_MASS>
748.45234827
> <PUBCHEM_MOLECULAR_FORMULA>
C41H60N6O7
> <PUBCHEM_MOLECULAR_WEIGHT>
749.0
> <PUBCHEM_OPENEYE_CAN_SMILES>
CCC(C)C(C(=O)NC(C(C)C)C(=O)N)NC(=O)C1CCCN1C(=O)C(C(CC2=CC=CC=C2)NC(=O)C(CC(C)C)NC(=O)CCC3=CC=CC=C3)O
> <PUBCHEM_OPENEYE_ISO_SMILES>
CC[C@@H](C)[C@@H](C(=O)N[C@@H](C(C)C)C(=O)N)NC(=O)C1CCCN1C(=O)[C@H]([C@H](CC2=CC=CC=C2)NC(=O)[C@H](CC(C)C)NC(=O)CCC3=CC=CC=C3)O
> <PUBCHEM_CACTVS_TPSA>
200
> <PUBCHEM_MONOISOTOPIC_WEIGHT>
748.45234827
> <PUBCHEM_TOTAL_CHARGE>
0
> <PUBCHEM_HEAVY_ATOM_COUNT>
54
> <PUBCHEM_ATOM_DEF_STEREO_COUNT>
6
> <PUBCHEM_ATOM_UDEF_STEREO_COUNT>
1
> <PUBCHEM_BOND_DEF_STEREO_COUNT>
0
> <PUBCHEM_BOND_UDEF_STEREO_COUNT>
0
> <PUBCHEM_ISOTOPIC_ATOM_COUNT>
0
> <PUBCHEM_COMPONENT_COUNT>
1
> <PUBCHEM_CACTVS_TAUTO_COUNT>
-1
> <PUBCHEM_COORDINATE_TYPE>
1
5
255
> <PUBCHEM_BONDANNOTATIONS>
20  1  5
22  10  5
31  11  5
28  12  5
14  18  3
23  27  6
30  36  8
30  37  8
36  44  8
37  45  8
44  46  8
45  46  8
49  50  8
49  51  8
50  52  8
51  53  8
52  54  8
53  54  8
21  9  5
$$$$
