501713
  -OEChem-10302200282D
 76 77  0     1  0  0  0  0  0999 V2000
    5.4641    0.2500    0.0000 O   0  0  0  0  0  0  0  0  0  0  0  0
    2.8660   -0.2500    0.0000 O   0  0  0  0  0  0  0  0  0  0  0  0
    6.3301   -0.2500    0.0000 O   0  0  0  0  0  0  0  0  0  0  0  0
    8.9282    0.2500    0.0000 O   0  0  0  0  0  0  0  0  0  0  0  0
    7.1962    0.2500    0.0000 O   0  0  0  0  0  0  0  0  0  0  0  0
    8.9282   -2.7500    0.0000 O   0  0  0  0  0  0  0  0  0  0  0  0
    3.7320    1.2500    0.0000 N   0  0  0  0  0  0  0  0  0  0  0  0
    5.4641   -1.7500    0.0000 N   0  0  0  0  0  0  0  0  0  0  0  0
    8.0622   -1.2500    0.0000 N   0  0  0  0  0  0  0  0  0  0  0  0
    8.0622   -4.2500    0.0000 N   0  0  0  0  0  0  0  0  0  0  0  0
    2.8660    2.7500    0.0000 C   0  0  0  0  0  0  0  0  0  0  0  0
    2.0000    3.2500    0.0000 C   0  0  0  0  0  0  0  0  0  0  0  0
    3.7320    3.2500    0.0000 C   0  0  0  0  0  0  0  0  0  0  0  0
    2.0000    4.2500    0.0000 C   0  0  0  0  0  0  0  0  0  0  0  0
    3.7320    4.2500    0.0000 C   0  0  0  0  0  0  0  0  0  0  0  0
    2.8660    4.7500    0.0000 C   0  0  0  0  0  0  0  0  0  0  0  0
    2.8660    1.7500    0.0000 C   0  0  0  0  0  0  0  0  0  0  0  0
    4.5981   -0.2500    0.0000 C   0  0  2  0  0  0  0  0  0  0  0  0
    3.7320    0.2500    0.0000 C   0  0  0  0  0  0  0  0  0  0  0  0
    4.5981   -1.2500    0.0000 C   0  0  2  0  0  0  0  0  0  0  0  0
    3.7320   -1.7500    0.0000 C   0  0  0  0  0  0  0  0  0  0  0  0
    3.7320   -2.7500    0.0000 C   0  0  0  0  0  0  0  0  0  0  0  0
    6.3301   -1.2500    0.0000 C   0  0  0  0  0  0  0  0  0  0  0  0
    7.1962   -1.7500    0.0000 C   0  0  2  0  0  0  0  0  0  0  0  0
    7.1962   -2.7500    0.0000 C   0  0  0  0  0  0  0  0  0  0  0  0
    2.8660   -3.2500    0.0000 C   0  0  0  0  0  0  0  0  0  0  0  0
    4.5981   -3.2500    0.0000 C   0  0  0  0  0  0  0  0  0  0  0  0
    8.9282    1.2500    0.0000 C   0  0  0  0  0  0  0  0  0  0  0  0
    2.8660   -4.2500    0.0000 C   0  0  0  0  0  0  0  0  0  0  0  0
    4.5981   -4.2500    0.0000 C   0  0  0  0  0  0  0  0  0  0  0  0
    8.0622   -0.2500    0.0000 C   0  0  0  0  0  0  0  0  0  0  0  0
    8.0622   -3.2500    0.0000 C   0  0  0  0  0  0  0  0  0  0  0  0
    3.7320   -4.7500    0.0000 C   0  0  0  0  0  0  0  0  0  0  0  0
    8.9282    2.2500    0.0000 C   0  0  0  0  0  0  0  0  0  0  0  0
    9.9282    1.2500    0.0000 C   0  0  0  0  0  0  0  0  0  0  0  0
    7.9282    1.2500    0.0000 C   0  0  0  0  0  0  0  0  0  0  0  0
    3.4030    2.4400    0.0000 H   0  0  0  0  0  0  0  0  0  0  0  0
    1.3894    3.3577    0.0000 H   0  0  0  0  0  0  0  0  0  0  0  0
    1.7880    2.6674    0.0000 H   0  0  0  0  0  0  0  0  0  0  0  0
    3.9441    2.6674    0.0000 H   0  0  0  0  0  0  0  0  0  0  0  0
    4.3426    3.3577    0.0000 H   0  0  0  0  0  0  0  0  0  0  0  0
    1.7880    4.8326    0.0000 H   0  0  0  0  0  0  0  0  0  0  0  0
    1.3894    4.1423    0.0000 H   0  0  0  0  0  0  0  0  0  0  0  0
    4.3426    4.1423    0.0000 H   0  0  0  0  0  0  0  0  0  0  0  0
    3.9441    4.8326    0.0000 H   0  0  0  0  0  0  0  0  0  0  0  0
    3.2646    5.2250    0.0000 H   0  0  0  0  0  0  0  0  0  0  0  0
    2.4675    5.2250    0.0000 H   0  0  0  0  0  0  0  0  0  0  0  0
    2.2554    1.8577    0.0000 H   0  0  0  0  0  0  0  0  0  0  0  0
    2.6540    1.1674    0.0000 H   0  0  0  0  0  0  0  0  0  0  0  0
    4.2690    1.5600    0.0000 H   0  0  0  0  0  0  0  0  0  0  0  0
    4.5981    0.3700    0.0000 H   0  0  0  0  0  0  0  0  0  0  0  0
    4.5981   -1.8700    0.0000 H   0  0  0  0  0  0  0  0  0  0  0  0
    3.5200   -1.1674    0.0000 H   0  0  0  0  0  0  0  0  0  0  0  0
    3.1215   -1.8577    0.0000 H   0  0  0  0  0  0  0  0  0  0  0  0
    5.4641   -2.3700    0.0000 H   0  0  0  0  0  0  0  0  0  0  0  0
    7.7331   -2.0600    0.0000 H   0  0  0  0  0  0  0  0  0  0  0  0
    5.4641    0.8700    0.0000 H   0  0  0  0  0  0  0  0  0  0  0  0
    6.5856   -2.6423    0.0000 H   0  0  0  0  0  0  0  0  0  0  0  0
    6.9841   -3.3326    0.0000 H   0  0  0  0  0  0  0  0  0  0  0  0
    2.3291   -2.9400    0.0000 H   0  0  0  0  0  0  0  0  0  0  0  0
    5.1350   -2.9400    0.0000 H   0  0  0  0  0  0  0  0  0  0  0  0
    8.5991   -1.5600    0.0000 H   0  0  0  0  0  0  0  0  0  0  0  0
    2.3291   -4.5600    0.0000 H   0  0  0  0  0  0  0  0  0  0  0  0
    5.1350   -4.5600    0.0000 H   0  0  0  0  0  0  0  0  0  0  0  0
    3.7320   -5.3700    0.0000 H   0  0  0  0  0  0  0  0  0  0  0  0
    9.5482    2.2500    0.0000 H   0  0  0  0  0  0  0  0  0  0  0  0
    8.9282    2.8700    0.0000 H   0  0  0  0  0  0  0  0  0  0  0  0
    8.3082    2.2500    0.0000 H   0  0  0  0  0  0  0  0  0  0  0  0
    9.9282    0.6300    0.0000 H   0  0  0  0  0  0  0  0  0  0  0  0
   10.5482    1.2500    0.0000 H   0  0  0  0  0  0  0  0  0  0  0  0
    9.9282    1.8700    0.0000 H   0  0  0  0  0  0  0  0  0  0  0  0
    7.9282    1.8700    0.0000 H   0  0  0  0  0  0  0  0  0  0  0  0
    7.3082    1.2500    0.0000 H   0  0  0  0  0  0  0  0  0  0  0  0
    7.9282    0.6300    0.0000 H   0  0  0  0  0  0  0  0  0  0  0  0
    8.5991   -4.5600    0.0000 H   0  0  0  0  0  0  0  0  0  0  0  0
    7.5252   -4.5600    0.0000 H   0  0  0  0  0  0  0  0  0  0  0  0
 18  1  1  1  0  0  0
  1 57  1  0  0  0  0
  2 19  2  0  0  0  0
  3 23  2  0  0  0  0
  4 28  1  0  0  0  0
  4 31  1  0  0  0  0
  5 31  2  0  0  0  0
  6 32  2  0  0  0  0
  7 17  1  0  0  0  0
  7 19  1  0  0  0  0
  7 50  1  0  0  0  0
 20  8  1  1  0  0  0
  8 23  1  0  0  0  0
  8 55  1  0  0  0  0
 24  9  1  1  0  0  0
  9 31  1  0  0  0  0
  9 62  1  0  0  0  0
 10 32  1  0  0  0  0
 10 75  1  0  0  0  0
 10 76  1  0  0  0  0
 11 12  1  0  0  0  0
 11 13  1  0  0  0  0
 11 17  1  0  0  0  0
 11 37  1  0  0  0  0
 12 14  1  0  0  0  0
 12 38  1  0  0  0  0
 12 39  1  0  0  0  0
 13 15  1  0  0  0  0
 13 40  1  0  0  0  0
 13 41  1  0  0  0  0
 14 16  1  0  0  0  0
 14 42  1  0  0  0  0
 14 43  1  0  0  0  0
 15 16  1  0  0  0  0
 15 44  1  0  0  0  0
 15 45  1  0  0  0  0
 16 46  1  0  0  0  0
 16 47  1  0  0  0  0
 17 48  1  0  0  0  0
 17 49  1  0  0  0  0
 18 19  1  0  0  0  0
 18 20  1  0  0  0  0
 18 51  1  0  0  0  0
 20 21  1  0  0  0  0
 20 52  1  0  0  0  0
 21 22  1  0  0  0  0
 21 53  1  0  0  0  0
 21 54  1  0  0  0  0
 22 26  2  0  0  0  0
 22 27  1  0  0  0  0
 23 24  1  0  0  0  0
 24 25  1  0  0  0  0
 24 56  1  0  0  0  0
 25 32  1  0  0  0  0
 25 58  1  0  0  0  0
 25 59  1  0  0  0  0
 26 29  1  0  0  0  0
 26 60  1  0  0  0  0
 27 30  2  0  0  0  0
 27 61  1  0  0  0  0
 28 34  1  0  0  0  0
 28 35  1  0  0  0  0
 28 36  1  0  0  0  0
 29 33  2  0  0  0  0
 29 63  1  0  0  0  0
 30 33  1  0  0  0  0
 30 64  1  0  0  0  0
 33 65  1  0  0  0  0
 34 66  1  0  0  0  0
 34 67  1  0  0  0  0
 34 68  1  0  0  0  0
 35 69  1  0  0  0  0
 35 70  1  0  0  0  0
 35 71  1  0  0  0  0
 36 72  1  0  0  0  0
 36 73  1  0  0  0  0
 36 74  1  0  0  0  0
M  END
> <PUBCHEM_COMPOUND_CID>
501713
> <PUBCHEM_COMPOUND_CANONICALIZED>
1
> <PUBCHEM_CACTVS_COMPLEXITY>
741
> <PUBCHEM_CACTVS_HBOND_ACCEPTOR>
6
> <PUBCHEM_CACTVS_HBOND_DONOR>
5
> <PUBCHEM_CACTVS_ROTATABLE_BOND>
13
> <PUBCHEM_CACTVS_SUBSKEYS>
AAADcfB7uAAAAAAAAAAAAAAAAAAAAAAAAAAwYAAAAAAAAAABAAAAHgAQCAAADXzhmAYyCILABgCIAiFSGAICAAAgAAAIiIHIAIkKcDqA0TGcYAAklgCYiAedyKCOAAAAAAAAAAAAAAAAAAAAAAAAAAAAAA==
> <PUBCHEM_IUPAC_OPENEYE_NAME>
tert-butyl N-[(1S)-3-amino-1-[[(1S,2S)-1-benzyl-3-(cyclohexylmethylamino)-2-hydroxy-3-oxo-propyl]carbamoyl]-3-oxo-propyl]carbamate
> <PUBCHEM_IUPAC_CAS_NAME>
N-[(2S)-4-amino-1-[[(2S,3S)-4-(cyclohexylmethylamino)-3-hydroxy-4-oxo-1-phenylbutan-2-yl]amino]-1,4-dioxobutan-2-yl]carbamic acid tert-butyl ester
> <PUBCHEM_IUPAC_NAME_MARKUP>
<I>tert</I>-butyl <I>N</I>-[(2<I>S</I>)-4-amino-1-[[(2<I>S</I>,3<I>S</I>)-4-(cyclohexylmethylamino)-3-hydroxy-4-oxo-1-phenylbutan-2-yl]amino]-1,4-dioxobutan-2-yl]carbamate
> <PUBCHEM_IUPAC_NAME>
tert-butyl N-[(2S)-4-amino-1-[[(2S,3S)-4-(cyclohexylmethylamino)-3-hydroxy-4-oxo-1-phenylbutan-2-yl]amino]-1,4-dioxobutan-2-yl]carbamate
> <PUBCHEM_IUPAC_SYSTEMATIC_NAME>
tert-butyl N-[(2S)-4-azanyl-1-[[(2S,3S)-4-(cyclohexylmethylamino)-3-oxidanyl-4-oxidanylidene-1-phenyl-butan-2-yl]amino]-1,4-bis(oxidanylidene)butan-2-yl]carbamate
> <PUBCHEM_IUPAC_TRADITIONAL_NAME>
N-[(1S)-3-amino-1-[[(1S,2S)-1-benzyl-3-(cyclohexylmethylamino)-2-hydroxy-3-keto-propyl]carbamoyl]-3-keto-propyl]carbamic acid tert-butyl ester
> <PUBCHEM_IUPAC_INCHI>
InChI=1S/C26H40N4O6/c1-26(2,3)36-25(35)30-20(15-21(27)31)23(33)29-19(14-17-10-6-4-7-11-17)22(32)24(34)28-16-18-12-8-5-9-13-18/h4,6-7,10-11,18-20,22,32H,5,8-9,12-16H2,1-3H3,(H2,27,31)(H,28,34)(H,29,33)(H,30,35)/t19-,20-,22-/m0/s1
> <PUBCHEM_IUPAC_INCHIKEY>
YIKSNHFMQAPFBX-ONTIZHBOSA-N
> <PUBCHEM_XLOGP3_AA>
2.2
> <PUBCHEM_EXACT_MASS>
504.29478501
> <PUBCHEM_MOLECULAR_FORMULA>
C26H40N4O6
> <PUBCHEM_MOLECULAR_WEIGHT>
504.6
> <PUBCHEM_OPENEYE_CAN_SMILES>
CC(C)(C)OC(=O)NC(CC(=O)N)C(=O)NC(CC1=CC=CC=C1)C(C(=O)NCC2CCCCC2)O
> <PUBCHEM_OPENEYE_ISO_SMILES>
CC(C)(C)OC(=O)N[C@@H](CC(=O)N)C(=O)N[C@@H](CC1=CC=CC=C1)[C@@H](C(=O)NCC2CCCCC2)O
> <PUBCHEM_CACTVS_TPSA>
160
> <PUBCHEM_MONOISOTOPIC_WEIGHT>
504.29478501
> <PUBCHEM_TOTAL_CHARGE>
0
> <PUBCHEM_HEAVY_ATOM_COUNT>
36
> <PUBCHEM_ATOM_DEF_STEREO_COUNT>
3
> <PUBCHEM_ATOM_UDEF_STEREO_COUNT>
0
> <PUBCHEM_BOND_DEF_STEREO_COUNT>
0
> <PUBCHEM_BOND_UDEF_STEREO_COUNT>
0
> <PUBCHEM_ISOTOPIC_ATOM_COUNT>
0
> <PUBCHEM_COMPONENT_COUNT>
1
> <PUBCHEM_CACTVS_TAUTO_COUNT>
-1
> <PUBCHEM_COORDINATE_TYPE>
1
5
255
> <PUBCHEM_BONDANNOTATIONS>
18  1  5
22  26  8
22  27  8
26  29  8
27  30  8
29  33  8
30  33  8
20  8  5
24  9  5
$$$$
