501730
  -OEChem-10302200282D
112113  0     1  0  0  0  0  0999 V2000
    9.7942   -0.8100    0.0000 O   0  0  0  0  0  0  0  0  0  0  0  0
   10.6603   -1.3100    0.0000 O   0  0  0  0  0  0  0  0  0  0  0  0
    7.1962   -1.3100    0.0000 O   0  0  0  0  0  0  0  0  0  0  0  0
   13.2583   -3.8100    0.0000 O   0  0  0  0  0  0  0  0  0  0  0  0
    3.7320    1.6900    0.0000 O   0  0  0  0  0  0  0  0  0  0  0  0
    6.3301   -0.8100    0.0000 O   0  0  0  0  0  0  0  0  0  0  0  0
    4.5981    5.1900    0.0000 O   0  0  0  0  0  0  0  0  0  0  0  0
    9.7942   -2.8100    0.0000 N   0  0  0  0  0  0  0  0  0  0  0  0
   12.3923   -2.3100    0.0000 N   0  0  0  0  0  0  0  0  0  0  0  0
    8.0622    0.1900    0.0000 N   0  0  0  0  0  0  0  0  0  0  0  0
    5.4641    0.6900    0.0000 N   0  0  0  0  0  0  0  0  0  0  0  0
    4.5981    3.1900    0.0000 N   0  0  0  0  0  0  0  0  0  0  0  0
   14.9904   -2.8100    0.0000 N   0  0  0  0  0  0  0  0  0  0  0  0
    2.8660    5.1900    0.0000 N   0  0  0  0  0  0  0  0  0  0  0  0
    8.9282   -2.3100    0.0000 C   0  0  2  0  0  0  0  0  0  0  0  0
   11.5263   -2.8100    0.0000 C   0  0  1  0  0  0  0  0  0  0  0  0
   11.5263   -3.8100    0.0000 C   0  0  0  0  0  0  0  0  0  0  0  0
    8.9282   -1.3100    0.0000 C   0  0  2  0  0  0  0  0  0  0  0  0
    8.0622   -2.8100    0.0000 C   0  0  0  0  0  0  0  0  0  0  0  0
   10.6603   -2.3100    0.0000 C   0  0  0  0  0  0  0  0  0  0  0  0
    5.4641    1.6900    0.0000 C   0  0  1  0  0  0  0  0  0  0  0  0
    6.3301    2.1900    0.0000 C   0  0  0  0  0  0  0  0  0  0  0  0
    8.0622   -0.8100    0.0000 C   0  0  0  0  0  0  0  0  0  0  0  0
   14.1244   -2.3100    0.0000 C   0  0  1  0  0  0  0  0  0  0  0  0
   12.3923   -4.3100    0.0000 C   0  0  0  0  0  0  0  0  0  0  0  0
   10.6603   -4.3100    0.0000 C   0  0  0  0  0  0  0  0  0  0  0  0
    8.0622   -3.8100    0.0000 C   0  0  0  0  0  0  0  0  0  0  0  0
   14.1244   -1.3100    0.0000 C   0  0  0  0  0  0  0  0  0  0  0  0
    7.1962    0.6900    0.0000 C   0  0  0  0  0  0  0  0  0  0  0  0
   13.2583   -2.8100    0.0000 C   0  0  0  0  0  0  0  0  0  0  0  0
    3.7320    3.6900    0.0000 C   0  0  1  0  0  0  0  0  0  0  0  0
    2.8660    3.1900    0.0000 C   0  0  0  0  0  0  0  0  0  0  0  0
    4.5981    2.1900    0.0000 C   0  0  0  0  0  0  0  0  0  0  0  0
    8.9282    0.6900    0.0000 C   0  0  0  0  0  0  0  0  0  0  0  0
    6.3301    0.1900    0.0000 C   0  0  0  0  0  0  0  0  0  0  0  0
    6.3301    3.1900    0.0000 C   0  0  0  0  0  0  0  0  0  0  0  0
    7.1962    1.6900    0.0000 C   0  0  0  0  0  0  0  0  0  0  0  0
   14.9904   -0.8100    0.0000 C   0  0  0  0  0  0  0  0  0  0  0  0
   13.2583   -0.8100    0.0000 C   0  0  0  0  0  0  0  0  0  0  0  0
    7.1962   -4.3100    0.0000 C   0  0  0  0  0  0  0  0  0  0  0  0
    8.9282   -4.3100    0.0000 C   0  0  0  0  0  0  0  0  0  0  0  0
    2.0000    3.6900    0.0000 C   0  0  0  0  0  0  0  0  0  0  0  0
    2.8660    2.1900    0.0000 C   0  0  0  0  0  0  0  0  0  0  0  0
    8.9282    1.6900    0.0000 C   0  0  0  0  0  0  0  0  0  0  0  0
    3.7320    4.6900    0.0000 C   0  0  0  0  0  0  0  0  0  0  0  0
    7.1962   -5.3100    0.0000 C   0  0  0  0  0  0  0  0  0  0  0  0
    8.9282   -5.3100    0.0000 C   0  0  0  0  0  0  0  0  0  0  0  0
    9.7942    2.1900    0.0000 C   0  0  0  0  0  0  0  0  0  0  0  0
    8.0622    2.1900    0.0000 C   0  0  0  0  0  0  0  0  0  0  0  0
    8.0622   -5.8100    0.0000 C   0  0  0  0  0  0  0  0  0  0  0  0
    9.7942    3.1900    0.0000 C   0  0  0  0  0  0  0  0  0  0  0  0
    8.0622    3.1900    0.0000 C   0  0  0  0  0  0  0  0  0  0  0  0
    8.9282    3.6900    0.0000 C   0  0  0  0  0  0  0  0  0  0  0  0
    9.4651   -2.0000    0.0000 H   0  0  0  0  0  0  0  0  0  0  0  0
   11.5263   -2.1900    0.0000 H   0  0  0  0  0  0  0  0  0  0  0  0
   12.0632   -3.5000    0.0000 H   0  0  0  0  0  0  0  0  0  0  0  0
    8.9282   -0.6900    0.0000 H   0  0  0  0  0  0  0  0  0  0  0  0
    7.8501   -2.2274    0.0000 H   0  0  0  0  0  0  0  0  0  0  0  0
    7.4516   -2.9177    0.0000 H   0  0  0  0  0  0  0  0  0  0  0  0
    9.7942   -3.4300    0.0000 H   0  0  0  0  0  0  0  0  0  0  0  0
    6.0010    1.3800    0.0000 H   0  0  0  0  0  0  0  0  0  0  0  0
    6.8671    2.5000    0.0000 H   0  0  0  0  0  0  0  0  0  0  0  0
   12.3923   -1.6900    0.0000 H   0  0  0  0  0  0  0  0  0  0  0  0
   14.1244   -2.9300    0.0000 H   0  0  0  0  0  0  0  0  0  0  0  0
   12.0823   -4.8469    0.0000 H   0  0  0  0  0  0  0  0  0  0  0  0
   12.9292   -4.6200    0.0000 H   0  0  0  0  0  0  0  0  0  0  0  0
   12.7023   -3.7731    0.0000 H   0  0  0  0  0  0  0  0  0  0  0  0
   10.3503   -3.7731    0.0000 H   0  0  0  0  0  0  0  0  0  0  0  0
   10.1233   -4.6200    0.0000 H   0  0  0  0  0  0  0  0  0  0  0  0
   10.9703   -4.8469    0.0000 H   0  0  0  0  0  0  0  0  0  0  0  0
   13.5874   -1.6200    0.0000 H   0  0  0  0  0  0  0  0  0  0  0  0
    7.5947    1.1650    0.0000 H   0  0  0  0  0  0  0  0  0  0  0  0
    6.7976    1.1650    0.0000 H   0  0  0  0  0  0  0  0  0  0  0  0
    3.7320    3.0700    0.0000 H   0  0  0  0  0  0  0  0  0  0  0  0
    2.8660    3.8100    0.0000 H   0  0  0  0  0  0  0  0  0  0  0  0
    4.9272    0.3800    0.0000 H   0  0  0  0  0  0  0  0  0  0  0  0
    9.1403    0.1074    0.0000 H   0  0  0  0  0  0  0  0  0  0  0  0
    9.5388    0.7977    0.0000 H   0  0  0  0  0  0  0  0  0  0  0  0
    5.1350    3.5000    0.0000 H   0  0  0  0  0  0  0  0  0  0  0  0
    6.9501    3.1900    0.0000 H   0  0  0  0  0  0  0  0  0  0  0  0
    6.3301    3.8100    0.0000 H   0  0  0  0  0  0  0  0  0  0  0  0
    5.7101    3.1900    0.0000 H   0  0  0  0  0  0  0  0  0  0  0  0
    6.8862    1.1531    0.0000 H   0  0  0  0  0  0  0  0  0  0  0  0
    7.7331    1.3800    0.0000 H   0  0  0  0  0  0  0  0  0  0  0  0
    7.5062    2.2269    0.0000 H   0  0  0  0  0  0  0  0  0  0  0  0
    9.7942   -0.1900    0.0000 H   0  0  0  0  0  0  0  0  0  0  0  0
   15.3004   -1.3469    0.0000 H   0  0  0  0  0  0  0  0  0  0  0  0
   15.5273   -0.5000    0.0000 H   0  0  0  0  0  0  0  0  0  0  0  0
   14.6804   -0.2731    0.0000 H   0  0  0  0  0  0  0  0  0  0  0  0
   13.5683   -0.2731    0.0000 H   0  0  0  0  0  0  0  0  0  0  0  0
   12.7214   -0.5000    0.0000 H   0  0  0  0  0  0  0  0  0  0  0  0
   12.9483   -1.3469    0.0000 H   0  0  0  0  0  0  0  0  0  0  0  0
    6.6592   -4.0000    0.0000 H   0  0  0  0  0  0  0  0  0  0  0  0
    9.4651   -4.0000    0.0000 H   0  0  0  0  0  0  0  0  0  0  0  0
    2.3100    4.2269    0.0000 H   0  0  0  0  0  0  0  0  0  0  0  0
    1.4631    4.0000    0.0000 H   0  0  0  0  0  0  0  0  0  0  0  0
    1.6900    3.1531    0.0000 H   0  0  0  0  0  0  0  0  0  0  0  0
    2.2460    2.1900    0.0000 H   0  0  0  0  0  0  0  0  0  0  0  0
    2.8660    1.5700    0.0000 H   0  0  0  0  0  0  0  0  0  0  0  0
    3.4860    2.1900    0.0000 H   0  0  0  0  0  0  0  0  0  0  0  0
   15.5273   -2.5000    0.0000 H   0  0  0  0  0  0  0  0  0  0  0  0
   14.9904   -3.4300    0.0000 H   0  0  0  0  0  0  0  0  0  0  0  0
    6.6592   -5.6200    0.0000 H   0  0  0  0  0  0  0  0  0  0  0  0
    9.4651   -5.6200    0.0000 H   0  0  0  0  0  0  0  0  0  0  0  0
   10.3312    1.8800    0.0000 H   0  0  0  0  0  0  0  0  0  0  0  0
    7.5252    1.8800    0.0000 H   0  0  0  0  0  0  0  0  0  0  0  0
    8.0622   -6.4300    0.0000 H   0  0  0  0  0  0  0  0  0  0  0  0
    2.8660    5.8100    0.0000 H   0  0  0  0  0  0  0  0  0  0  0  0
    2.3291    4.8800    0.0000 H   0  0  0  0  0  0  0  0  0  0  0  0
   10.3312    3.5000    0.0000 H   0  0  0  0  0  0  0  0  0  0  0  0
    7.5252    3.5000    0.0000 H   0  0  0  0  0  0  0  0  0  0  0  0
    8.9282    4.3100    0.0000 H   0  0  0  0  0  0  0  0  0  0  0  0
 18  1  1  6  0  0  0
  1 86  1  0  0  0  0
  2 20  2  0  0  0  0
  3 23  2  0  0  0  0
  4 30  2  0  0  0  0
  5 33  2  0  0  0  0
  6 35  2  0  0  0  0
  7 45  2  0  0  0  0
 15  8  1  1  0  0  0
  8 20  1  0  0  0  0
  8 60  1  0  0  0  0
 16  9  1  1  0  0  0
  9 30  1  0  0  0  0
  9 63  1  0  0  0  0
 10 23  1  0  0  0  0
 10 29  1  0  0  0  0
 10 34  1  0  0  0  0
 21 11  1  6  0  0  0
 11 35  1  0  0  0  0
 11 76  1  0  0  0  0
 31 12  1  1  0  0  0
 12 33  1  0  0  0  0
 12 79  1  0  0  0  0
 24 13  1  6  0  0  0
 13101  1  0  0  0  0
 13102  1  0  0  0  0
 14 45  1  0  0  0  0
 14108  1  0  0  0  0
 14109  1  0  0  0  0
 15 18  1  0  0  0  0
 15 19  1  0  0  0  0
 15 54  1  0  0  0  0
 16 17  1  0  0  0  0
 16 20  1  0  0  0  0
 16 55  1  0  0  0  0
 17 25  1  0  0  0  0
 17 26  1  0  0  0  0
 17 56  1  0  0  0  0
 18 23  1  0  0  0  0
 18 57  1  0  0  0  0
 19 27  1  0  0  0  0
 19 58  1  0  0  0  0
 19 59  1  0  0  0  0
 21 22  1  0  0  0  0
 21 33  1  0  0  0  0
 21 61  1  0  0  0  0
 22 36  1  0  0  0  0
 22 37  1  0  0  0  0
 22 62  1  0  0  0  0
 24 28  1  0  0  0  0
 24 30  1  0  0  0  0
 24 64  1  0  0  0  0
 25 65  1  0  0  0  0
 25 66  1  0  0  0  0
 25 67  1  0  0  0  0
 26 68  1  0  0  0  0
 26 69  1  0  0  0  0
 26 70  1  0  0  0  0
 27 40  2  0  0  0  0
 27 41  1  0  0  0  0
 28 38  1  0  0  0  0
 28 39  1  0  0  0  0
 28 71  1  0  0  0  0
 29 35  1  0  0  0  0
 29 72  1  0  0  0  0
 29 73  1  0  0  0  0
 31 32  1  0  0  0  0
 31 45  1  0  0  0  0
 31 74  1  0  0  0  0
 32 42  1  0  0  0  0
 32 43  1  0  0  0  0
 32 75  1  0  0  0  0
 34 44  1  0  0  0  0
 34 77  1  0  0  0  0
 34 78  1  0  0  0  0
 36 80  1  0  0  0  0
 36 81  1  0  0  0  0
 36 82  1  0  0  0  0
 37 83  1  0  0  0  0
 37 84  1  0  0  0  0
 37 85  1  0  0  0  0
 38 87  1  0  0  0  0
 38 88  1  0  0  0  0
 38 89  1  0  0  0  0
 39 90  1  0  0  0  0
 39 91  1  0  0  0  0
 39 92  1  0  0  0  0
 40 46  1  0  0  0  0
 40 93  1  0  0  0  0
 41 47  2  0  0  0  0
 41 94  1  0  0  0  0
 42 95  1  0  0  0  0
 42 96  1  0  0  0  0
 42 97  1  0  0  0  0
 43 98  1  0  0  0  0
 43 99  1  0  0  0  0
 43100  1  0  0  0  0
 44 48  2  0  0  0  0
 44 49  1  0  0  0  0
 46 50  2  0  0  0  0
 46103  1  0  0  0  0
 47 50  1  0  0  0  0
 47104  1  0  0  0  0
 48 51  1  0  0  0  0
 48105  1  0  0  0  0
 49 52  2  0  0  0  0
 49106  1  0  0  0  0
 50107  1  0  0  0  0
 51 53  2  0  0  0  0
 51110  1  0  0  0  0
 52 53  1  0  0  0  0
 52111  1  0  0  0  0
 53112  1  0  0  0  0
M  END
> <PUBCHEM_COMPOUND_CID>
501730
> <PUBCHEM_COMPOUND_CANONICALIZED>
1
> <PUBCHEM_CACTVS_COMPLEXITY>
1210
> <PUBCHEM_CACTVS_HBOND_ACCEPTOR>
8
> <PUBCHEM_CACTVS_HBOND_DONOR>
7
> <PUBCHEM_CACTVS_ROTATABLE_BOND>
20
> <PUBCHEM_CACTVS_SUBSKEYS>
AAADcfB/uAAAAAAAAAAAAAAAAAAAAAAAAAAwYAAAAAAAAAABQAAAHgAQCAAADTzhmAYyAIPAAgCIAiFSEAKCAAAgAAAIiIHIBIgKcDqA0TGUYAhklgCYiAeYyKCOAAAAAAAAAAAAAAAAAAAAAAAAAAAAAA==
> <PUBCHEM_IUPAC_OPENEYE_NAME>
(2S)-2-amino-N-[(1S)-1-[[(1S,2R)-1-benzyl-3-[benzyl-[2-[[(1S)-1-[[(1S)-1-carbamoyl-2-methyl-propyl]carbamoyl]-2-methyl-propyl]amino]-2-oxo-ethyl]amino]-2-hydroxy-3-oxo-propyl]carbamoyl]-2-methyl-propyl]-3-methyl-butanamide
> <PUBCHEM_IUPAC_CAS_NAME>
(2S)-2-amino-N-[(2S)-1-[[(2S,3R)-4-[[2-[[(2S)-1-[[(2S)-1-amino-3-methyl-1-oxobutan-2-yl]amino]-3-methyl-1-oxobutan-2-yl]amino]-2-oxoethyl]-(phenylmethyl)amino]-3-hydroxy-4-oxo-1-phenylbutan-2-yl]amino]-3-methyl-1-oxobutan-2-yl]-3-methylbutanamide
> <PUBCHEM_IUPAC_NAME_MARKUP>
(2<I>S</I>)-2-amino-<I>N</I>-[(2<I>S</I>)-1-[[(2<I>S</I>,3<I>R</I>)-4-[[2-[[(2<I>S</I>)-1-[[(2<I>S</I>)-1-amino-3-methyl-1-oxobutan-2-yl]amino]-3-methyl-1-oxobutan-2-yl]amino]-2-oxoethyl]-benzylamino]-3-hydroxy-4-oxo-1-phenylbutan-2-yl]amino]-3-methyl-1-oxobutan-2-yl]-3-methylbutanamide
> <PUBCHEM_IUPAC_NAME>
(2S)-2-amino-N-[(2S)-1-[[(2S,3R)-4-[[2-[[(2S)-1-[[(2S)-1-amino-3-methyl-1-oxobutan-2-yl]amino]-3-methyl-1-oxobutan-2-yl]amino]-2-oxoethyl]-benzylamino]-3-hydroxy-4-oxo-1-phenylbutan-2-yl]amino]-3-methyl-1-oxobutan-2-yl]-3-methylbutanamide
> <PUBCHEM_IUPAC_SYSTEMATIC_NAME>
(2S)-2-azanyl-N-[(2S)-1-[[(2S,3R)-4-[[2-[[(2S)-1-[[(2S)-1-azanyl-3-methyl-1-oxidanylidene-butan-2-yl]amino]-3-methyl-1-oxidanylidene-butan-2-yl]amino]-2-oxidanylidene-ethyl]-(phenylmethyl)amino]-3-oxidanyl-4-oxidanylidene-1-phenyl-butan-2-yl]amino]-3-methyl-1-oxidanylidene-butan-2-yl]-3-methyl-butanamide
> <PUBCHEM_IUPAC_TRADITIONAL_NAME>
(2S)-2-amino-N-[(1S)-1-[[(1S,2R)-1-benzyl-3-[benzyl-[2-[[(1S)-1-[[(1S)-1-carbamoyl-2-methyl-propyl]carbamoyl]-2-methyl-propyl]amino]-2-keto-ethyl]amino]-2-hydroxy-3-keto-propyl]carbamoyl]-2-methyl-propyl]-3-methyl-butyramide
> <PUBCHEM_IUPAC_INCHI>
InChI=1S/C39H59N7O7/c1-22(2)30(40)36(50)45-33(25(7)8)37(51)42-28(19-26-15-11-9-12-16-26)34(48)39(53)46(20-27-17-13-10-14-18-27)21-29(47)43-32(24(5)6)38(52)44-31(23(3)4)35(41)49/h9-18,22-25,28,30-34,48H,19-21,40H2,1-8H3,(H2,41,49)(H,42,51)(H,43,47)(H,44,52)(H,45,50)/t28-,30-,31-,32-,33-,34+/m0/s1
> <PUBCHEM_IUPAC_INCHIKEY>
UWYQLPZJGMRSLA-JHTVOWKMSA-N
> <PUBCHEM_XLOGP3_AA>
3.5
> <PUBCHEM_EXACT_MASS>
737.44759725
> <PUBCHEM_MOLECULAR_FORMULA>
C39H59N7O7
> <PUBCHEM_MOLECULAR_WEIGHT>
737.9
> <PUBCHEM_OPENEYE_CAN_SMILES>
CC(C)C(C(=O)NC(C(C)C)C(=O)NC(CC1=CC=CC=C1)C(C(=O)N(CC2=CC=CC=C2)CC(=O)NC(C(C)C)C(=O)NC(C(C)C)C(=O)N)O)N
> <PUBCHEM_OPENEYE_ISO_SMILES>
CC(C)[C@@H](C(=O)N[C@@H](C(C)C)C(=O)N[C@@H](CC1=CC=CC=C1)[C@H](C(=O)N(CC2=CC=CC=C2)CC(=O)N[C@@H](C(C)C)C(=O)N[C@@H](C(C)C)C(=O)N)O)N
> <PUBCHEM_CACTVS_TPSA>
226
> <PUBCHEM_MONOISOTOPIC_WEIGHT>
737.44759725
> <PUBCHEM_TOTAL_CHARGE>
0
> <PUBCHEM_HEAVY_ATOM_COUNT>
53
> <PUBCHEM_ATOM_DEF_STEREO_COUNT>
6
> <PUBCHEM_ATOM_UDEF_STEREO_COUNT>
0
> <PUBCHEM_BOND_DEF_STEREO_COUNT>
0
> <PUBCHEM_BOND_UDEF_STEREO_COUNT>
0
> <PUBCHEM_ISOTOPIC_ATOM_COUNT>
0
> <PUBCHEM_COMPONENT_COUNT>
1
> <PUBCHEM_CACTVS_TAUTO_COUNT>
-1
> <PUBCHEM_COORDINATE_TYPE>
1
5
255
> <PUBCHEM_BONDANNOTATIONS>
18  1  6
21  11  6
31  12  5
24  13  6
27  40  8
27  41  8
40  46  8
41  47  8
44  48  8
44  49  8
46  50  8
47  50  8
48  51  8
49  52  8
51  53  8
52  53  8
15  8  5
16  9  5
$$$$
