501720
  -OEChem-10302200282D
 81 83  0     1  0  0  0  0  0999 V2000
    5.4641    0.2500    0.0000 O   0  0  0  0  0  0  0  0  0  0  0  0
    2.8660   -0.2500    0.0000 O   0  0  0  0  0  0  0  0  0  0  0  0
    6.3301   -0.2500    0.0000 O   0  0  0  0  0  0  0  0  0  0  0  0
    7.1962    0.2500    0.0000 O   0  0  0  0  0  0  0  0  0  0  0  0
    8.9282   -2.7500    0.0000 O   0  0  0  0  0  0  0  0  0  0  0  0
    3.7320    1.2500    0.0000 N   0  0  0  0  0  0  0  0  0  0  0  0
    5.4641   -1.7500    0.0000 N   0  0  0  0  0  0  0  0  0  0  0  0
    8.0622   -1.2500    0.0000 N   0  0  0  0  0  0  0  0  0  0  0  0
    9.7942   -0.2500    0.0000 N   0  0  0  0  0  0  0  0  0  0  0  0
    8.0622   -4.2500    0.0000 N   0  0  0  0  0  0  0  0  0  0  0  0
    2.8660    2.7500    0.0000 C   0  0  0  0  0  0  0  0  0  0  0  0
    2.0000    3.2500    0.0000 C   0  0  0  0  0  0  0  0  0  0  0  0
    3.7320    3.2500    0.0000 C   0  0  0  0  0  0  0  0  0  0  0  0
    2.0000    4.2500    0.0000 C   0  0  0  0  0  0  0  0  0  0  0  0
    3.7320    4.2500    0.0000 C   0  0  0  0  0  0  0  0  0  0  0  0
    2.8660    4.7500    0.0000 C   0  0  0  0  0  0  0  0  0  0  0  0
    2.8660    1.7500    0.0000 C   0  0  0  0  0  0  0  0  0  0  0  0
    4.5981   -0.2500    0.0000 C   0  0  1  0  0  0  0  0  0  0  0  0
    3.7320    0.2500    0.0000 C   0  0  0  0  0  0  0  0  0  0  0  0
    4.5981   -1.2500    0.0000 C   0  0  2  0  0  0  0  0  0  0  0  0
    3.7320   -1.7500    0.0000 C   0  0  0  0  0  0  0  0  0  0  0  0
    3.7320   -2.7500    0.0000 C   0  0  0  0  0  0  0  0  0  0  0  0
    7.1962   -1.7500    0.0000 C   0  0  2  0  0  0  0  0  0  0  0  0
    6.3301   -1.2500    0.0000 C   0  0  0  0  0  0  0  0  0  0  0  0
    7.1962   -2.7500    0.0000 C   0  0  0  0  0  0  0  0  0  0  0  0
    4.5981   -3.2500    0.0000 C   0  0  0  0  0  0  0  0  0  0  0  0
    2.8660   -3.2500    0.0000 C   0  0  0  0  0  0  0  0  0  0  0  0
    8.9282    0.2500    0.0000 C   0  0  2  0  0  0  0  0  0  0  0  0
    8.0622   -0.2500    0.0000 C   0  0  0  0  0  0  0  0  0  0  0  0
    8.9282    1.2500    0.0000 C   0  0  0  0  0  0  0  0  0  0  0  0
    4.5981   -4.2500    0.0000 C   0  0  0  0  0  0  0  0  0  0  0  0
    2.8660   -4.2500    0.0000 C   0  0  0  0  0  0  0  0  0  0  0  0
    8.0622   -3.2500    0.0000 C   0  0  0  0  0  0  0  0  0  0  0  0
    3.7320   -4.7500    0.0000 C   0  0  0  0  0  0  0  0  0  0  0  0
    9.7942    1.7500    0.0000 C   0  0  0  0  0  0  0  0  0  0  0  0
   10.6603    1.2500    0.0000 C   0  0  0  0  0  0  0  0  0  0  0  0
    9.7942    2.7500    0.0000 C   0  0  0  0  0  0  0  0  0  0  0  0
   11.5263    1.7500    0.0000 C   0  0  0  0  0  0  0  0  0  0  0  0
   10.6603    3.2500    0.0000 C   0  0  0  0  0  0  0  0  0  0  0  0
   11.5263    2.7500    0.0000 C   0  0  0  0  0  0  0  0  0  0  0  0
    3.4030    2.4400    0.0000 H   0  0  0  0  0  0  0  0  0  0  0  0
    1.3894    3.3577    0.0000 H   0  0  0  0  0  0  0  0  0  0  0  0
    1.7880    2.6674    0.0000 H   0  0  0  0  0  0  0  0  0  0  0  0
    3.9441    2.6674    0.0000 H   0  0  0  0  0  0  0  0  0  0  0  0
    4.3426    3.3577    0.0000 H   0  0  0  0  0  0  0  0  0  0  0  0
    1.7880    4.8326    0.0000 H   0  0  0  0  0  0  0  0  0  0  0  0
    1.3894    4.1423    0.0000 H   0  0  0  0  0  0  0  0  0  0  0  0
    4.3426    4.1423    0.0000 H   0  0  0  0  0  0  0  0  0  0  0  0
    3.9441    4.8326    0.0000 H   0  0  0  0  0  0  0  0  0  0  0  0
    3.2646    5.2250    0.0000 H   0  0  0  0  0  0  0  0  0  0  0  0
    2.4675    5.2250    0.0000 H   0  0  0  0  0  0  0  0  0  0  0  0
    2.2554    1.8577    0.0000 H   0  0  0  0  0  0  0  0  0  0  0  0
    2.6540    1.1674    0.0000 H   0  0  0  0  0  0  0  0  0  0  0  0
    4.2690    1.5600    0.0000 H   0  0  0  0  0  0  0  0  0  0  0  0
    4.5981    0.3700    0.0000 H   0  0  0  0  0  0  0  0  0  0  0  0
    4.5981   -1.8700    0.0000 H   0  0  0  0  0  0  0  0  0  0  0  0
    3.5200   -1.1674    0.0000 H   0  0  0  0  0  0  0  0  0  0  0  0
    3.1215   -1.8577    0.0000 H   0  0  0  0  0  0  0  0  0  0  0  0
    5.4641   -2.3700    0.0000 H   0  0  0  0  0  0  0  0  0  0  0  0
    7.7331   -2.0600    0.0000 H   0  0  0  0  0  0  0  0  0  0  0  0
    5.4641    0.8700    0.0000 H   0  0  0  0  0  0  0  0  0  0  0  0
    6.5856   -2.6423    0.0000 H   0  0  0  0  0  0  0  0  0  0  0  0
    6.9841   -3.3326    0.0000 H   0  0  0  0  0  0  0  0  0  0  0  0
    8.5991   -1.5600    0.0000 H   0  0  0  0  0  0  0  0  0  0  0  0
    5.1350   -2.9400    0.0000 H   0  0  0  0  0  0  0  0  0  0  0  0
    2.3291   -2.9400    0.0000 H   0  0  0  0  0  0  0  0  0  0  0  0
    9.4651    0.5600    0.0000 H   0  0  0  0  0  0  0  0  0  0  0  0
    8.7162    1.8326    0.0000 H   0  0  0  0  0  0  0  0  0  0  0  0
    8.3176    1.1423    0.0000 H   0  0  0  0  0  0  0  0  0  0  0  0
    5.1350   -4.5600    0.0000 H   0  0  0  0  0  0  0  0  0  0  0  0
    2.3291   -4.5600    0.0000 H   0  0  0  0  0  0  0  0  0  0  0  0
    3.7320   -5.3700    0.0000 H   0  0  0  0  0  0  0  0  0  0  0  0
   10.3312    0.0600    0.0000 H   0  0  0  0  0  0  0  0  0  0  0  0
    9.7942   -0.8700    0.0000 H   0  0  0  0  0  0  0  0  0  0  0  0
    8.5991   -4.5600    0.0000 H   0  0  0  0  0  0  0  0  0  0  0  0
    7.5252   -4.5600    0.0000 H   0  0  0  0  0  0  0  0  0  0  0  0
   10.6603    0.6300    0.0000 H   0  0  0  0  0  0  0  0  0  0  0  0
    9.2573    3.0600    0.0000 H   0  0  0  0  0  0  0  0  0  0  0  0
   12.0632    1.4400    0.0000 H   0  0  0  0  0  0  0  0  0  0  0  0
   10.6603    3.8700    0.0000 H   0  0  0  0  0  0  0  0  0  0  0  0
   12.0632    3.0600    0.0000 H   0  0  0  0  0  0  0  0  0  0  0  0
 18  1  1  6  0  0  0
  1 61  1  0  0  0  0
  2 19  2  0  0  0  0
  3 24  2  0  0  0  0
  4 29  2  0  0  0  0
  5 33  2  0  0  0  0
  6 17  1  0  0  0  0
  6 19  1  0  0  0  0
  6 54  1  0  0  0  0
 20  7  1  1  0  0  0
  7 24  1  0  0  0  0
  7 59  1  0  0  0  0
 23  8  1  1  0  0  0
  8 29  1  0  0  0  0
  8 64  1  0  0  0  0
 28  9  1  6  0  0  0
  9 73  1  0  0  0  0
  9 74  1  0  0  0  0
 10 33  1  0  0  0  0
 10 75  1  0  0  0  0
 10 76  1  0  0  0  0
 11 12  1  0  0  0  0
 11 13  1  0  0  0  0
 11 17  1  0  0  0  0
 11 41  1  0  0  0  0
 12 14  1  0  0  0  0
 12 42  1  0  0  0  0
 12 43  1  0  0  0  0
 13 15  1  0  0  0  0
 13 44  1  0  0  0  0
 13 45  1  0  0  0  0
 14 16  1  0  0  0  0
 14 46  1  0  0  0  0
 14 47  1  0  0  0  0
 15 16  1  0  0  0  0
 15 48  1  0  0  0  0
 15 49  1  0  0  0  0
 16 50  1  0  0  0  0
 16 51  1  0  0  0  0
 17 52  1  0  0  0  0
 17 53  1  0  0  0  0
 18 19  1  0  0  0  0
 18 20  1  0  0  0  0
 18 55  1  0  0  0  0
 20 21  1  0  0  0  0
 20 56  1  0  0  0  0
 21 22  1  0  0  0  0
 21 57  1  0  0  0  0
 21 58  1  0  0  0  0
 22 26  2  0  0  0  0
 22 27  1  0  0  0  0
 23 24  1  0  0  0  0
 23 25  1  0  0  0  0
 23 60  1  0  0  0  0
 25 33  1  0  0  0  0
 25 62  1  0  0  0  0
 25 63  1  0  0  0  0
 26 31  1  0  0  0  0
 26 65  1  0  0  0  0
 27 32  2  0  0  0  0
 27 66  1  0  0  0  0
 28 29  1  0  0  0  0
 28 30  1  0  0  0  0
 28 67  1  0  0  0  0
 30 35  1  0  0  0  0
 30 68  1  0  0  0  0
 30 69  1  0  0  0  0
 31 34  2  0  0  0  0
 31 70  1  0  0  0  0
 32 34  1  0  0  0  0
 32 71  1  0  0  0  0
 34 72  1  0  0  0  0
 35 36  2  0  0  0  0
 35 37  1  0  0  0  0
 36 38  1  0  0  0  0
 36 77  1  0  0  0  0
 37 39  2  0  0  0  0
 37 78  1  0  0  0  0
 38 40  2  0  0  0  0
 38 79  1  0  0  0  0
 39 40  1  0  0  0  0
 39 80  1  0  0  0  0
 40 81  1  0  0  0  0
M  END
> <PUBCHEM_COMPOUND_CID>
501720
> <PUBCHEM_COMPOUND_CANONICALIZED>
1
> <PUBCHEM_CACTVS_COMPLEXITY>
821
> <PUBCHEM_CACTVS_HBOND_ACCEPTOR>
6
> <PUBCHEM_CACTVS_HBOND_DONOR>
6
> <PUBCHEM_CACTVS_ROTATABLE_BOND>
14
> <PUBCHEM_CACTVS_SUBSKEYS>
AAADcfB7uAAAAAAAAAAAAAAAAAAAAAAAAAAwYMAAAAAAAAABQAAAHgAQCAAADTzhmAYwAILAAgCIAiFSEAICAAAgAAAIiIHIAIgKcDqA0TGUYAAklgCYiAedyKCOAAAAAAAAAAAAAAAAAAAAAAAAAAAAAA==
> <PUBCHEM_IUPAC_OPENEYE_NAME>
(2S)-2-[[(2S)-2-amino-3-phenyl-propanoyl]amino]-N-[(1S,2R)-1-benzyl-3-(cyclohexylmethylamino)-2-hydroxy-3-oxo-propyl]butanediamide
> <PUBCHEM_IUPAC_CAS_NAME>
(2S)-2-[[(2S)-2-amino-1-oxo-3-phenylpropyl]amino]-N-[(2S,3R)-4-(cyclohexylmethylamino)-3-hydroxy-4-oxo-1-phenylbutan-2-yl]butanediamide
> <PUBCHEM_IUPAC_NAME_MARKUP>
(2<I>S</I>)-2-[[(2<I>S</I>)-2-amino-3-phenylpropanoyl]amino]-<I>N</I>-[(2<I>S</I>,3<I>R</I>)-4-(cyclohexylmethylamino)-3-hydroxy-4-oxo-1-phenylbutan-2-yl]butanediamide
> <PUBCHEM_IUPAC_NAME>
(2S)-2-[[(2S)-2-amino-3-phenylpropanoyl]amino]-N-[(2S,3R)-4-(cyclohexylmethylamino)-3-hydroxy-4-oxo-1-phenylbutan-2-yl]butanediamide
> <PUBCHEM_IUPAC_SYSTEMATIC_NAME>
(2S)-2-[[(2S)-2-azanyl-3-phenyl-propanoyl]amino]-N-[(2S,3R)-4-(cyclohexylmethylamino)-3-oxidanyl-4-oxidanylidene-1-phenyl-butan-2-yl]butanediamide
> <PUBCHEM_IUPAC_TRADITIONAL_NAME>
(2S)-2-[[(2S)-2-amino-3-phenyl-propanoyl]amino]-N-[(1S,2R)-1-benzyl-3-(cyclohexylmethylamino)-2-hydroxy-3-keto-propyl]succinamide
> <PUBCHEM_IUPAC_INCHI>
InChI=1S/C30H41N5O5/c31-23(16-20-10-4-1-5-11-20)28(38)35-25(18-26(32)36)29(39)34-24(17-21-12-6-2-7-13-21)27(37)30(40)33-19-22-14-8-3-9-15-22/h1-2,4-7,10-13,22-25,27,37H,3,8-9,14-19,31H2,(H2,32,36)(H,33,40)(H,34,39)(H,35,38)/t23-,24-,25-,27+/m0/s1
> <PUBCHEM_IUPAC_INCHIKEY>
UICCRMIIAYWOAD-MVVJZGTDSA-N
> <PUBCHEM_XLOGP3_AA>
1.9
> <PUBCHEM_EXACT_MASS>
551.31076943
> <PUBCHEM_MOLECULAR_FORMULA>
C30H41N5O5
> <PUBCHEM_MOLECULAR_WEIGHT>
551.7
> <PUBCHEM_OPENEYE_CAN_SMILES>
C1CCC(CC1)CNC(=O)C(C(CC2=CC=CC=C2)NC(=O)C(CC(=O)N)NC(=O)C(CC3=CC=CC=C3)N)O
> <PUBCHEM_OPENEYE_ISO_SMILES>
C1CCC(CC1)CNC(=O)[C@@H]([C@H](CC2=CC=CC=C2)NC(=O)[C@H](CC(=O)N)NC(=O)[C@H](CC3=CC=CC=C3)N)O
> <PUBCHEM_CACTVS_TPSA>
177
> <PUBCHEM_MONOISOTOPIC_WEIGHT>
551.31076943
> <PUBCHEM_TOTAL_CHARGE>
0
> <PUBCHEM_HEAVY_ATOM_COUNT>
40
> <PUBCHEM_ATOM_DEF_STEREO_COUNT>
4
> <PUBCHEM_ATOM_UDEF_STEREO_COUNT>
0
> <PUBCHEM_BOND_DEF_STEREO_COUNT>
0
> <PUBCHEM_BOND_UDEF_STEREO_COUNT>
0
> <PUBCHEM_ISOTOPIC_ATOM_COUNT>
0
> <PUBCHEM_COMPONENT_COUNT>
1
> <PUBCHEM_CACTVS_TAUTO_COUNT>
-1
> <PUBCHEM_COORDINATE_TYPE>
1
5
255
> <PUBCHEM_BONDANNOTATIONS>
18  1  6
22  26  8
22  27  8
26  31  8
27  32  8
31  34  8
32  34  8
35  36  8
35  37  8
36  38  8
37  39  8
38  40  8
39  40  8
20  7  5
23  8  5
28  9  6
$$$$
