501747
  -OEChem-10302200282D
122124  0     1  0  0  0  0  0999 V2000
   10.1589   -0.6045    0.0000 O   0  0  0  0  0  0  0  0  0  0  0  0
    6.4589   -0.3039    0.0000 O   0  0  0  0  0  0  0  0  0  0  0  0
    7.5608   -1.1045    0.0000 O   0  0  0  0  0  0  0  0  0  0  0  0
    3.2784    1.3945    0.0000 O   0  0  0  0  0  0  0  0  0  0  0  0
   11.0249   -1.1045    0.0000 O   0  0  0  0  0  0  0  0  0  0  0  0
    4.8532    4.6380    0.0000 O   0  0  0  0  0  0  0  0  0  0  0  0
   11.8910   -0.6045    0.0000 O   0  0  0  0  0  0  0  0  0  0  0  0
   13.6230   -3.6045    0.0000 O   0  0  0  0  0  0  0  0  0  0  0  0
   11.8910    0.3955    0.0000 O   0  0  0  0  0  0  0  0  0  0  0  0
   13.6230    3.3955    0.0000 O   0  0  0  0  0  0  0  0  0  0  0  0
    8.4268    0.3955    0.0000 N   0  0  0  0  0  0  0  0  0  0  0  0
    5.9236    1.3434    0.0000 N   0  0  0  0  0  0  0  0  0  0  0  0
   10.1589   -2.6045    0.0000 N   0  0  0  0  0  0  0  0  0  0  0  0
    4.4374    2.6816    0.0000 N   0  0  0  0  0  0  0  0  0  0  0  0
   12.7570   -2.1045    0.0000 N   0  0  0  0  0  0  0  0  0  0  0  0
    3.1590    4.9981    0.0000 N   0  0  0  0  0  0  0  0  0  0  0  0
   13.6230    0.3955    0.0000 N   0  0  0  0  0  0  0  0  0  0  0  0
   12.7570   -5.1045    0.0000 N   0  0  0  0  0  0  0  0  0  0  0  0
   11.8910    2.3955    0.0000 N   0  0  0  0  0  0  0  0  0  0  0  0
    7.6178    0.9833    0.0000 C   0  0  1  0  0  0  0  0  0  0  0  0
    7.9268    1.9343    0.0000 C   0  0  0  0  0  0  0  0  0  0  0  0
    8.9268    1.9343    0.0000 C   0  0  0  0  0  0  0  0  0  0  0  0
    9.2359    0.9833    0.0000 C   0  0  0  0  0  0  0  0  0  0  0  0
    6.6668    0.6743    0.0000 C   0  0  0  0  0  0  0  0  0  0  0  0
    8.4268   -0.6045    0.0000 C   0  0  0  0  0  0  0  0  0  0  0  0
    9.2929   -1.1045    0.0000 C   0  0  2  0  0  0  0  0  0  0  0  0
    4.9726    1.0344    0.0000 C   0  0  1  0  0  0  0  0  0  0  0  0
    9.2929   -2.1045    0.0000 C   0  0  2  0  0  0  0  0  0  0  0  0
    4.7647    0.0562    0.0000 C   0  0  1  0  0  0  0  0  0  0  0  0
    8.4268   -2.6045    0.0000 C   0  0  0  0  0  0  0  0  0  0  0  0
    5.5078   -0.6129    0.0000 C   0  0  0  0  0  0  0  0  0  0  0  0
    4.2294    1.7035    0.0000 C   0  0  0  0  0  0  0  0  0  0  0  0
    3.8136   -0.2528    0.0000 C   0  0  0  0  0  0  0  0  0  0  0  0
    8.4268   -3.6045    0.0000 C   0  0  0  0  0  0  0  0  0  0  0  0
    3.6942    3.3508    0.0000 C   0  0  1  0  0  0  0  0  0  0  0  0
    5.2999   -1.5910    0.0000 C   0  0  0  0  0  0  0  0  0  0  0  0
   11.0249   -2.1045    0.0000 C   0  0  0  0  0  0  0  0  0  0  0  0
    2.7431    3.0418    0.0000 C   0  0  0  0  0  0  0  0  0  0  0  0
   11.8910   -2.6045    0.0000 C   0  0  2  0  0  0  0  0  0  0  0  0
    9.2929   -4.1045    0.0000 C   0  0  0  0  0  0  0  0  0  0  0  0
    7.5608   -4.1045    0.0000 C   0  0  0  0  0  0  0  0  0  0  0  0
    3.9021    4.3289    0.0000 C   0  0  0  0  0  0  0  0  0  0  0  0
   11.8910   -3.6045    0.0000 C   0  0  0  0  0  0  0  0  0  0  0  0
    2.0000    3.7109    0.0000 C   0  0  0  0  0  0  0  0  0  0  0  0
    2.5352    2.0636    0.0000 C   0  0  0  0  0  0  0  0  0  0  0  0
    9.2929   -5.1045    0.0000 C   0  0  0  0  0  0  0  0  0  0  0  0
    7.5608   -5.1045    0.0000 C   0  0  0  0  0  0  0  0  0  0  0  0
   12.7570   -1.1045    0.0000 C   0  0  0  0  0  0  0  0  0  0  0  0
   13.6230   -0.6045    0.0000 C   0  0  2  0  0  0  0  0  0  0  0  0
    8.4268   -5.6045    0.0000 C   0  0  0  0  0  0  0  0  0  0  0  0
   12.7570   -4.1045    0.0000 C   0  0  0  0  0  0  0  0  0  0  0  0
   14.4890   -1.1045    0.0000 C   0  0  0  0  0  0  0  0  0  0  0  0
   15.3551   -0.6045    0.0000 C   0  0  0  0  0  0  0  0  0  0  0  0
   12.7570    0.8955    0.0000 C   0  0  0  0  0  0  0  0  0  0  0  0
   12.7570    1.8955    0.0000 C   0  0  2  0  0  0  0  0  0  0  0  0
   16.2211   -1.1045    0.0000 C   0  0  0  0  0  0  0  0  0  0  0  0
   15.3551    0.3955    0.0000 C   0  0  0  0  0  0  0  0  0  0  0  0
   13.6230    2.3955    0.0000 C   0  0  0  0  0  0  0  0  0  0  0  0
   17.0871   -0.6045    0.0000 C   0  0  0  0  0  0  0  0  0  0  0  0
   16.2211    0.8955    0.0000 C   0  0  0  0  0  0  0  0  0  0  0  0
   17.0871    0.3955    0.0000 C   0  0  0  0  0  0  0  0  0  0  0  0
    7.5208    0.3709    0.0000 H   0  0  0  0  0  0  0  0  0  0  0  0
    7.9917    2.5509    0.0000 H   0  0  0  0  0  0  0  0  0  0  0  0
    7.3204    2.0632    0.0000 H   0  0  0  0  0  0  0  0  0  0  0  0
    9.5333    2.0632    0.0000 H   0  0  0  0  0  0  0  0  0  0  0  0
    8.8620    2.5509    0.0000 H   0  0  0  0  0  0  0  0  0  0  0  0
    9.5459    0.4463    0.0000 H   0  0  0  0  0  0  0  0  0  0  0  0
    9.8023    1.2354    0.0000 H   0  0  0  0  0  0  0  0  0  0  0  0
    9.2929   -0.4845    0.0000 H   0  0  0  0  0  0  0  0  0  0  0  0
    5.4333    0.6195    0.0000 H   0  0  0  0  0  0  0  0  0  0  0  0
    9.2929   -2.7245    0.0000 H   0  0  0  0  0  0  0  0  0  0  0  0
    6.0525    1.9498    0.0000 H   0  0  0  0  0  0  0  0  0  0  0  0
    4.3039    0.4711    0.0000 H   0  0  0  0  0  0  0  0  0  0  0  0
    8.2148   -2.0219    0.0000 H   0  0  0  0  0  0  0  0  0  0  0  0
    7.8163   -2.7122    0.0000 H   0  0  0  0  0  0  0  0  0  0  0  0
    6.0827   -0.8452    0.0000 H   0  0  0  0  0  0  0  0  0  0  0  0
    5.8364   -0.0871    0.0000 H   0  0  0  0  0  0  0  0  0  0  0  0
    3.6220    0.3369    0.0000 H   0  0  0  0  0  0  0  0  0  0  0  0
    3.2240   -0.4444    0.0000 H   0  0  0  0  0  0  0  0  0  0  0  0
    4.0052   -0.8424    0.0000 H   0  0  0  0  0  0  0  0  0  0  0  0
   10.1589   -3.2245    0.0000 H   0  0  0  0  0  0  0  0  0  0  0  0
   10.1589    0.0155    0.0000 H   0  0  0  0  0  0  0  0  0  0  0  0
    5.0270    2.8732    0.0000 H   0  0  0  0  0  0  0  0  0  0  0  0
    3.5653    2.7443    0.0000 H   0  0  0  0  0  0  0  0  0  0  0  0
    4.6934   -1.4622    0.0000 H   0  0  0  0  0  0  0  0  0  0  0  0
    5.1710   -2.1975    0.0000 H   0  0  0  0  0  0  0  0  0  0  0  0
    5.9064   -1.7200    0.0000 H   0  0  0  0  0  0  0  0  0  0  0  0
    2.8721    3.6482    0.0000 H   0  0  0  0  0  0  0  0  0  0  0  0
   12.4279   -2.9145    0.0000 H   0  0  0  0  0  0  0  0  0  0  0  0
    9.8298   -3.7945    0.0000 H   0  0  0  0  0  0  0  0  0  0  0  0
    7.0239   -3.7945    0.0000 H   0  0  0  0  0  0  0  0  0  0  0  0
   11.2804   -3.4968    0.0000 H   0  0  0  0  0  0  0  0  0  0  0  0
   11.6789   -4.1871    0.0000 H   0  0  0  0  0  0  0  0  0  0  0  0
    2.4149    4.1716    0.0000 H   0  0  0  0  0  0  0  0  0  0  0  0
    1.5392    4.1258    0.0000 H   0  0  0  0  0  0  0  0  0  0  0  0
    1.5851    3.2501    0.0000 H   0  0  0  0  0  0  0  0  0  0  0  0
    1.9288    2.1925    0.0000 H   0  0  0  0  0  0  0  0  0  0  0  0
    2.4063    1.4572    0.0000 H   0  0  0  0  0  0  0  0  0  0  0  0
    3.1417    1.9347    0.0000 H   0  0  0  0  0  0  0  0  0  0  0  0
   13.2939   -2.4145    0.0000 H   0  0  0  0  0  0  0  0  0  0  0  0
    9.8298   -5.4145    0.0000 H   0  0  0  0  0  0  0  0  0  0  0  0
    7.0239   -5.4145    0.0000 H   0  0  0  0  0  0  0  0  0  0  0  0
   14.1599   -0.2945    0.0000 H   0  0  0  0  0  0  0  0  0  0  0  0
    8.4268   -6.2245    0.0000 H   0  0  0  0  0  0  0  0  0  0  0  0
    3.2879    5.6045    0.0000 H   0  0  0  0  0  0  0  0  0  0  0  0
    2.5693    4.8065    0.0000 H   0  0  0  0  0  0  0  0  0  0  0  0
   14.0905   -1.5795    0.0000 H   0  0  0  0  0  0  0  0  0  0  0  0
   14.8876   -1.5795    0.0000 H   0  0  0  0  0  0  0  0  0  0  0  0
   14.1599    0.7055    0.0000 H   0  0  0  0  0  0  0  0  0  0  0  0
   13.2939   -5.4145    0.0000 H   0  0  0  0  0  0  0  0  0  0  0  0
   12.2200   -5.4145    0.0000 H   0  0  0  0  0  0  0  0  0  0  0  0
   12.7570    2.5155    0.0000 H   0  0  0  0  0  0  0  0  0  0  0  0
   16.2211   -1.7245    0.0000 H   0  0  0  0  0  0  0  0  0  0  0  0
   14.8181    0.7055    0.0000 H   0  0  0  0  0  0  0  0  0  0  0  0
   13.8351    1.8129    0.0000 H   0  0  0  0  0  0  0  0  0  0  0  0
   14.2336    2.5032    0.0000 H   0  0  0  0  0  0  0  0  0  0  0  0
   17.6240   -0.9145    0.0000 H   0  0  0  0  0  0  0  0  0  0  0  0
   16.2211    1.5155    0.0000 H   0  0  0  0  0  0  0  0  0  0  0  0
   17.6240    0.7055    0.0000 H   0  0  0  0  0  0  0  0  0  0  0  0
   11.8910    3.0155    0.0000 H   0  0  0  0  0  0  0  0  0  0  0  0
   11.3540    2.0855    0.0000 H   0  0  0  0  0  0  0  0  0  0  0  0
   14.1599    3.7055    0.0000 H   0  0  0  0  0  0  0  0  0  0  0  0
 26  1  1  1  0  0  0
  1 82  1  0  0  0  0
  2 24  2  0  0  0  0
  3 25  2  0  0  0  0
  4 32  2  0  0  0  0
  5 37  2  0  0  0  0
  6 42  2  0  0  0  0
  7 48  2  0  0  0  0
  8 51  2  0  0  0  0
  9 54  2  0  0  0  0
 10 58  1  0  0  0  0
 10122  1  0  0  0  0
 11 20  1  0  0  0  0
 11 23  1  0  0  0  0
 11 25  1  0  0  0  0
 12 24  1  0  0  0  0
 27 12  1  1  0  0  0
 12 72  1  0  0  0  0
 28 13  1  1  0  0  0
 13 37  1  0  0  0  0
 13 81  1  0  0  0  0
 14 32  1  0  0  0  0
 35 14  1  1  0  0  0
 14 83  1  0  0  0  0
 39 15  1  1  0  0  0
 15 48  1  0  0  0  0
 15100  1  0  0  0  0
 16 42  1  0  0  0  0
 16105  1  0  0  0  0
 16106  1  0  0  0  0
 49 17  1  1  0  0  0
 17 54  1  0  0  0  0
 17109  1  0  0  0  0
 18 51  1  0  0  0  0
 18110  1  0  0  0  0
 18111  1  0  0  0  0
 55 19  1  1  0  0  0
 19120  1  0  0  0  0
 19121  1  0  0  0  0
 20 21  1  0  0  0  0
 20 24  1  6  0  0  0
 20 62  1  0  0  0  0
 21 22  1  0  0  0  0
 21 63  1  0  0  0  0
 21 64  1  0  0  0  0
 22 23  1  0  0  0  0
 22 65  1  0  0  0  0
 22 66  1  0  0  0  0
 23 67  1  0  0  0  0
 23 68  1  0  0  0  0
 25 26  1  0  0  0  0
 26 28  1  0  0  0  0
 26 69  1  0  0  0  0
 27 29  1  0  0  0  0
 27 32  1  0  0  0  0
 27 70  1  0  0  0  0
 28 30  1  0  0  0  0
 28 71  1  0  0  0  0
 29 31  1  0  0  0  0
 29 33  1  1  0  0  0
 29 73  1  0  0  0  0
 30 34  1  0  0  0  0
 30 74  1  0  0  0  0
 30 75  1  0  0  0  0
 31 36  1  0  0  0  0
 31 76  1  0  0  0  0
 31 77  1  0  0  0  0
 33 78  1  0  0  0  0
 33 79  1  0  0  0  0
 33 80  1  0  0  0  0
 34 40  2  0  0  0  0
 34 41  1  0  0  0  0
 35 38  1  0  0  0  0
 35 42  1  0  0  0  0
 35 84  1  0  0  0  0
 36 85  1  0  0  0  0
 36 86  1  0  0  0  0
 36 87  1  0  0  0  0
 37 39  1  0  0  0  0
 38 44  1  0  0  0  0
 38 45  1  0  0  0  0
 38 88  1  0  0  0  0
 39 43  1  0  0  0  0
 39 89  1  0  0  0  0
 40 46  1  0  0  0  0
 40 90  1  0  0  0  0
 41 47  2  0  0  0  0
 41 91  1  0  0  0  0
 43 51  1  0  0  0  0
 43 92  1  0  0  0  0
 43 93  1  0  0  0  0
 44 94  1  0  0  0  0
 44 95  1  0  0  0  0
 44 96  1  0  0  0  0
 45 97  1  0  0  0  0
 45 98  1  0  0  0  0
 45 99  1  0  0  0  0
 46 50  2  0  0  0  0
 46101  1  0  0  0  0
 47 50  1  0  0  0  0
 47102  1  0  0  0  0
 48 49  1  0  0  0  0
 49 52  1  0  0  0  0
 49103  1  0  0  0  0
 50104  1  0  0  0  0
 52 53  1  0  0  0  0
 52107  1  0  0  0  0
 52108  1  0  0  0  0
 53 56  2  0  0  0  0
 53 57  1  0  0  0  0
 54 55  1  0  0  0  0
 55 58  1  0  0  0  0
 55112  1  0  0  0  0
 56 59  1  0  0  0  0
 56113  1  0  0  0  0
 57 60  2  0  0  0  0
 57114  1  0  0  0  0
 58115  1  0  0  0  0
 58116  1  0  0  0  0
 59 61  2  0  0  0  0
 59117  1  0  0  0  0
 60 61  1  0  0  0  0
 60118  1  0  0  0  0
 61119  1  0  0  0  0
M  END
> <PUBCHEM_COMPOUND_CID>
501747
> <PUBCHEM_COMPOUND_CANONICALIZED>
1
> <PUBCHEM_CACTVS_COMPLEXITY>
1520
> <PUBCHEM_CACTVS_HBOND_ACCEPTOR>
11
> <PUBCHEM_CACTVS_HBOND_DONOR>
10
> <PUBCHEM_CACTVS_ROTATABLE_BOND>
23
> <PUBCHEM_CACTVS_SUBSKEYS>
AAADcfB//AAAAAAAAAAAAAAAAAAAAWAAAAAwYAAAAAAAAAABQAAAHgAQCAAADTzhmAYyAIPAAgCIAiFSEAICAAAgAAAIiIHIAIgKcD6A0TGUYAAmtgCYiAedyaCOAAAAAAAAAAAAAAAAAAAAAAAAAAAAAA==
> <PUBCHEM_IUPAC_OPENEYE_NAME>
(2S)-2-[[(2S)-2-[[(2S)-2-amino-3-hydroxy-propanoyl]amino]-3-phenyl-propanoyl]amino]-N-[(1S,2S)-1-benzyl-3-[(2S)-2-[[(1S,2R)-1-[[(1S)-1-carbamoyl-2-methyl-propyl]carbamoyl]-2-methyl-butyl]carbamoyl]pyrrolidin-1-yl]-2-hydroxy-3-oxo-propyl]butanediamide
> <PUBCHEM_IUPAC_CAS_NAME>
(2S)-2-[[(2S)-2-[[(2S)-2-amino-3-hydroxy-1-oxopropyl]amino]-1-oxo-3-phenylpropyl]amino]-N-[(2S,3S)-4-[(2S)-2-[[[(2S,3R)-1-[[(2S)-1-amino-3-methyl-1-oxobutan-2-yl]amino]-3-methyl-1-oxopentan-2-yl]amino]-oxomethyl]-1-pyrrolidinyl]-3-hydroxy-4-oxo-1-phenylbutan-2-yl]butanediamide
> <PUBCHEM_IUPAC_NAME_MARKUP>
(2<I>S</I>)-2-[[(2<I>S</I>)-2-[[(2<I>S</I>)-2-amino-3-hydroxypropanoyl]amino]-3-phenylpropanoyl]amino]-<I>N</I>-[(2<I>S</I>,3<I>S</I>)-4-[(2<I>S</I>)-2-[[(2<I>S</I>,3<I>R</I>)-1-[[(2<I>S</I>)-1-amino-3-methyl-1-oxobutan-2-yl]amino]-3-methyl-1-oxopentan-2-yl]carbamoyl]pyrrolidin-1-yl]-3-hydroxy-4-oxo-1-phenylbutan-2-yl]butanediamide
> <PUBCHEM_IUPAC_NAME>
(2S)-2-[[(2S)-2-[[(2S)-2-amino-3-hydroxypropanoyl]amino]-3-phenylpropanoyl]amino]-N-[(2S,3S)-4-[(2S)-2-[[(2S,3R)-1-[[(2S)-1-amino-3-methyl-1-oxobutan-2-yl]amino]-3-methyl-1-oxopentan-2-yl]carbamoyl]pyrrolidin-1-yl]-3-hydroxy-4-oxo-1-phenylbutan-2-yl]butanediamide
> <PUBCHEM_IUPAC_SYSTEMATIC_NAME>
(2S)-N-[(2S,3S)-4-[(2S)-2-[[(2S,3R)-1-[[(2S)-1-azanyl-3-methyl-1-oxidanylidene-butan-2-yl]amino]-3-methyl-1-oxidanylidene-pentan-2-yl]carbamoyl]pyrrolidin-1-yl]-3-oxidanyl-4-oxidanylidene-1-phenyl-butan-2-yl]-2-[[(2S)-2-[[(2S)-2-azanyl-3-oxidanyl-propanoyl]amino]-3-phenyl-propanoyl]amino]butanediamide
> <PUBCHEM_IUPAC_TRADITIONAL_NAME>
(2S)-2-[[(2S)-2-[[(2S)-2-amino-3-hydroxy-propanoyl]amino]-3-phenyl-propanoyl]amino]-N-[(1S,2S)-1-benzyl-3-[(2S)-2-[[(1S,2R)-1-[[(1S)-1-carbamoyl-2-methyl-propyl]carbamoyl]-2-methyl-butyl]carbamoyl]pyrrolidino]-2-hydroxy-3-keto-propyl]succinamide
> <PUBCHEM_IUPAC_INCHI>
InChI=1S/C42H61N9O10/c1-5-24(4)34(41(60)49-33(23(2)3)36(45)55)50-40(59)31-17-12-18-51(31)42(61)35(54)28(19-25-13-8-6-9-14-25)46-39(58)30(21-32(44)53)48-38(57)29(47-37(56)27(43)22-52)20-26-15-10-7-11-16-26/h6-11,13-16,23-24,27-31,33-35,52,54H,5,12,17-22,43H2,1-4H3,(H2,44,53)(H2,45,55)(H,46,58)(H,47,56)(H,48,57)(H,49,60)(H,50,59)/t24-,27+,28+,29+,30+,31+,33+,34+,35+/m1/s1
> <PUBCHEM_IUPAC_INCHIKEY>
UIUFVQIKDKHTMO-QODBHTHVSA-N
> <PUBCHEM_XLOGP3_AA>
-0.3
> <PUBCHEM_EXACT_MASS>
851.45413918
> <PUBCHEM_MOLECULAR_FORMULA>
C42H61N9O10
> <PUBCHEM_MOLECULAR_WEIGHT>
852.0
> <PUBCHEM_OPENEYE_CAN_SMILES>
CCC(C)C(C(=O)NC(C(C)C)C(=O)N)NC(=O)C1CCCN1C(=O)C(C(CC2=CC=CC=C2)NC(=O)C(CC(=O)N)NC(=O)C(CC3=CC=CC=C3)NC(=O)C(CO)N)O
> <PUBCHEM_OPENEYE_ISO_SMILES>
CC[C@@H](C)[C@@H](C(=O)N[C@@H](C(C)C)C(=O)N)NC(=O)[C@@H]1CCCN1C(=O)[C@H]([C@H](CC2=CC=CC=C2)NC(=O)[C@H](CC(=O)N)NC(=O)[C@H](CC3=CC=CC=C3)NC(=O)[C@H](CO)N)O
> <PUBCHEM_CACTVS_TPSA>
319
> <PUBCHEM_MONOISOTOPIC_WEIGHT>
851.45413918
> <PUBCHEM_TOTAL_CHARGE>
0
> <PUBCHEM_HEAVY_ATOM_COUNT>
61
> <PUBCHEM_ATOM_DEF_STEREO_COUNT>
9
> <PUBCHEM_ATOM_UDEF_STEREO_COUNT>
0
> <PUBCHEM_BOND_DEF_STEREO_COUNT>
0
> <PUBCHEM_BOND_UDEF_STEREO_COUNT>
0
> <PUBCHEM_ISOTOPIC_ATOM_COUNT>
0
> <PUBCHEM_COMPONENT_COUNT>
1
> <PUBCHEM_CACTVS_TAUTO_COUNT>
-1
> <PUBCHEM_COORDINATE_TYPE>
1
5
255
> <PUBCHEM_BONDANNOTATIONS>
26  1  5
27  12  5
28  13  5
35  14  5
39  15  5
49  17  5
55  19  5
20  24  6
29  33  5
34  40  8
34  41  8
40  46  8
41  47  8
46  50  8
47  50  8
53  56  8
53  57  8
56  59  8
57  60  8
59  61  8
60  61  8
$$$$
