501754
  -OEChem-10302200282D
102103  0     1  0  0  0  0  0999 V2000
   11.3179    0.8569    0.0000 O   0  0  0  0  0  0  0  0  0  0  0  0
    7.6178    1.1575    0.0000 O   0  0  0  0  0  0  0  0  0  0  0  0
    8.7198    0.3569    0.0000 O   0  0  0  0  0  0  0  0  0  0  0  0
    5.5963    4.1431    0.0000 O   0  0  0  0  0  0  0  0  0  0  0  0
   12.1839    0.3569    0.0000 O   0  0  0  0  0  0  0  0  0  0  0  0
   14.7820    0.8569    0.0000 O   0  0  0  0  0  0  0  0  0  0  0  0
   14.7820   -2.1431    0.0000 O   0  0  0  0  0  0  0  0  0  0  0  0
   13.0499    0.8569    0.0000 O   0  0  0  0  0  0  0  0  0  0  0  0
    9.5858    1.8569    0.0000 N   0  0  0  0  0  0  0  0  0  0  0  0
    7.0826    2.8048    0.0000 N   0  0  0  0  0  0  0  0  0  0  0  0
   11.3179   -1.1431    0.0000 N   0  0  0  0  0  0  0  0  0  0  0  0
    4.4374    2.8559    0.0000 N   0  0  0  0  0  0  0  0  0  0  0  0
   13.9159   -0.6431    0.0000 N   0  0  0  0  0  0  0  0  0  0  0  0
   13.9159   -3.6431    0.0000 N   0  0  0  0  0  0  0  0  0  0  0  0
    8.7768    2.4447    0.0000 C   0  0  1  0  0  0  0  0  0  0  0  0
    9.0858    3.3958    0.0000 C   0  0  0  0  0  0  0  0  0  0  0  0
   10.0858    3.3958    0.0000 C   0  0  0  0  0  0  0  0  0  0  0  0
   10.3948    2.4447    0.0000 C   0  0  0  0  0  0  0  0  0  0  0  0
    7.8258    2.1357    0.0000 C   0  0  0  0  0  0  0  0  0  0  0  0
    9.5858    0.8569    0.0000 C   0  0  0  0  0  0  0  0  0  0  0  0
   10.4518    0.3569    0.0000 C   0  0  2  0  0  0  0  0  0  0  0  0
    6.1316    2.4958    0.0000 C   0  0  1  0  0  0  0  0  0  0  0  0
   10.4518   -0.6431    0.0000 C   0  0  2  0  0  0  0  0  0  0  0  0
    5.9236    1.5176    0.0000 C   0  0  1  0  0  0  0  0  0  0  0  0
    9.5858   -1.1431    0.0000 C   0  0  0  0  0  0  0  0  0  0  0  0
    4.9726    1.2086    0.0000 C   0  0  0  0  0  0  0  0  0  0  0  0
    5.3884    3.1649    0.0000 C   0  0  0  0  0  0  0  0  0  0  0  0
    6.6668    0.8485    0.0000 C   0  0  0  0  0  0  0  0  0  0  0  0
    9.5858   -2.1431    0.0000 C   0  0  0  0  0  0  0  0  0  0  0  0
    4.7647    0.2305    0.0000 C   0  0  0  0  0  0  0  0  0  0  0  0
   12.1839   -0.6431    0.0000 C   0  0  0  0  0  0  0  0  0  0  0  0
    3.6942    3.5250    0.0000 C   0  0  0  0  0  0  0  0  0  0  0  0
   13.0499   -1.1431    0.0000 C   0  0  2  0  0  0  0  0  0  0  0  0
    2.7431    3.2160    0.0000 C   0  0  0  0  0  0  0  0  0  0  0  0
   10.4518   -2.6431    0.0000 C   0  0  0  0  0  0  0  0  0  0  0  0
    8.7198   -2.6431    0.0000 C   0  0  0  0  0  0  0  0  0  0  0  0
   13.0499   -2.1431    0.0000 C   0  0  0  0  0  0  0  0  0  0  0  0
    2.0000    3.8852    0.0000 C   0  0  0  0  0  0  0  0  0  0  0  0
    2.5352    2.2379    0.0000 C   0  0  0  0  0  0  0  0  0  0  0  0
   10.4518   -3.6431    0.0000 C   0  0  0  0  0  0  0  0  0  0  0  0
    8.7198   -3.6431    0.0000 C   0  0  0  0  0  0  0  0  0  0  0  0
    9.5858   -4.1431    0.0000 C   0  0  0  0  0  0  0  0  0  0  0  0
   13.9159   -2.6431    0.0000 C   0  0  0  0  0  0  0  0  0  0  0  0
   13.9159    0.3569    0.0000 C   0  0  0  0  0  0  0  0  0  0  0  0
   14.7820    1.8569    0.0000 C   0  0  0  0  0  0  0  0  0  0  0  0
   14.7820    2.8569    0.0000 C   0  0  0  0  0  0  0  0  0  0  0  0
   15.7820    1.8569    0.0000 C   0  0  0  0  0  0  0  0  0  0  0  0
   13.7820    1.8569    0.0000 C   0  0  0  0  0  0  0  0  0  0  0  0
    8.6798    1.8323    0.0000 H   0  0  0  0  0  0  0  0  0  0  0  0
    9.1506    4.0124    0.0000 H   0  0  0  0  0  0  0  0  0  0  0  0
    8.4794    3.5247    0.0000 H   0  0  0  0  0  0  0  0  0  0  0  0
   10.6923    3.5247    0.0000 H   0  0  0  0  0  0  0  0  0  0  0  0
   10.0210    4.0124    0.0000 H   0  0  0  0  0  0  0  0  0  0  0  0
   10.7048    1.9078    0.0000 H   0  0  0  0  0  0  0  0  0  0  0  0
   10.9612    2.6969    0.0000 H   0  0  0  0  0  0  0  0  0  0  0  0
   10.4518    0.9769    0.0000 H   0  0  0  0  0  0  0  0  0  0  0  0
    6.2604    3.1022    0.0000 H   0  0  0  0  0  0  0  0  0  0  0  0
   10.9888   -0.3331    0.0000 H   0  0  0  0  0  0  0  0  0  0  0  0
    7.2115    3.4113    0.0000 H   0  0  0  0  0  0  0  0  0  0  0  0
    6.5133    1.7092    0.0000 H   0  0  0  0  0  0  0  0  0  0  0  0
    9.3738   -0.5605    0.0000 H   0  0  0  0  0  0  0  0  0  0  0  0
    8.9752   -1.2507    0.0000 H   0  0  0  0  0  0  0  0  0  0  0  0
    4.8863    1.8226    0.0000 H   0  0  0  0  0  0  0  0  0  0  0  0
    4.3530    1.2303    0.0000 H   0  0  0  0  0  0  0  0  0  0  0  0
   11.3179   -1.7631    0.0000 H   0  0  0  0  0  0  0  0  0  0  0  0
    6.2519    0.3878    0.0000 H   0  0  0  0  0  0  0  0  0  0  0  0
    7.1275    0.4337    0.0000 H   0  0  0  0  0  0  0  0  0  0  0  0
    7.0816    1.3093    0.0000 H   0  0  0  0  0  0  0  0  0  0  0  0
   11.3179    1.4769    0.0000 H   0  0  0  0  0  0  0  0  0  0  0  0
    4.1582    0.3594    0.0000 H   0  0  0  0  0  0  0  0  0  0  0  0
    4.6358   -0.3760    0.0000 H   0  0  0  0  0  0  0  0  0  0  0  0
    5.3711    0.1016    0.0000 H   0  0  0  0  0  0  0  0  0  0  0  0
    4.3084    2.2495    0.0000 H   0  0  0  0  0  0  0  0  0  0  0  0
    4.1828    3.9068    0.0000 H   0  0  0  0  0  0  0  0  0  0  0  0
    3.4031    4.0725    0.0000 H   0  0  0  0  0  0  0  0  0  0  0  0
   13.0499   -0.5231    0.0000 H   0  0  0  0  0  0  0  0  0  0  0  0
    2.8721    3.8225    0.0000 H   0  0  0  0  0  0  0  0  0  0  0  0
   10.9888   -2.3331    0.0000 H   0  0  0  0  0  0  0  0  0  0  0  0
    8.1829   -2.3331    0.0000 H   0  0  0  0  0  0  0  0  0  0  0  0
   12.4393   -2.0354    0.0000 H   0  0  0  0  0  0  0  0  0  0  0  0
   12.8379   -2.7257    0.0000 H   0  0  0  0  0  0  0  0  0  0  0  0
   14.4529   -0.9531    0.0000 H   0  0  0  0  0  0  0  0  0  0  0  0
    2.4149    4.3459    0.0000 H   0  0  0  0  0  0  0  0  0  0  0  0
    1.5392    4.3000    0.0000 H   0  0  0  0  0  0  0  0  0  0  0  0
    1.5851    3.4244    0.0000 H   0  0  0  0  0  0  0  0  0  0  0  0
    1.9288    2.3668    0.0000 H   0  0  0  0  0  0  0  0  0  0  0  0
    2.4063    1.6314    0.0000 H   0  0  0  0  0  0  0  0  0  0  0  0
    3.1417    2.1090    0.0000 H   0  0  0  0  0  0  0  0  0  0  0  0
   10.9888   -3.9531    0.0000 H   0  0  0  0  0  0  0  0  0  0  0  0
    8.1829   -3.9531    0.0000 H   0  0  0  0  0  0  0  0  0  0  0  0
    9.5858   -4.7631    0.0000 H   0  0  0  0  0  0  0  0  0  0  0  0
   14.4529   -3.9531    0.0000 H   0  0  0  0  0  0  0  0  0  0  0  0
   13.3790   -3.9531    0.0000 H   0  0  0  0  0  0  0  0  0  0  0  0
   15.4020    2.8569    0.0000 H   0  0  0  0  0  0  0  0  0  0  0  0
   14.7820    3.4769    0.0000 H   0  0  0  0  0  0  0  0  0  0  0  0
   14.1620    2.8569    0.0000 H   0  0  0  0  0  0  0  0  0  0  0  0
   15.7820    1.2369    0.0000 H   0  0  0  0  0  0  0  0  0  0  0  0
   16.4020    1.8569    0.0000 H   0  0  0  0  0  0  0  0  0  0  0  0
   15.7820    2.4769    0.0000 H   0  0  0  0  0  0  0  0  0  0  0  0
   13.7820    2.4769    0.0000 H   0  0  0  0  0  0  0  0  0  0  0  0
   13.1620    1.8569    0.0000 H   0  0  0  0  0  0  0  0  0  0  0  0
   13.7820    1.2369    0.0000 H   0  0  0  0  0  0  0  0  0  0  0  0
 21  1  1  1  0  0  0
  1 69  1  0  0  0  0
  2 19  2  0  0  0  0
  3 20  2  0  0  0  0
  4 27  2  0  0  0  0
  5 31  2  0  0  0  0
  6 44  1  0  0  0  0
  6 45  1  0  0  0  0
  7 43  2  0  0  0  0
  8 44  2  0  0  0  0
  9 15  1  0  0  0  0
  9 18  1  0  0  0  0
  9 20  1  0  0  0  0
 10 19  1  0  0  0  0
 22 10  1  1  0  0  0
 10 59  1  0  0  0  0
 23 11  1  1  0  0  0
 11 31  1  0  0  0  0
 11 65  1  0  0  0  0
 12 27  1  0  0  0  0
 12 32  1  0  0  0  0
 12 73  1  0  0  0  0
 33 13  1  1  0  0  0
 13 44  1  0  0  0  0
 13 82  1  0  0  0  0
 14 43  1  0  0  0  0
 14 92  1  0  0  0  0
 14 93  1  0  0  0  0
 15 16  1  0  0  0  0
 15 19  1  6  0  0  0
 15 49  1  0  0  0  0
 16 17  1  0  0  0  0
 16 50  1  0  0  0  0
 16 51  1  0  0  0  0
 17 18  1  0  0  0  0
 17 52  1  0  0  0  0
 17 53  1  0  0  0  0
 18 54  1  0  0  0  0
 18 55  1  0  0  0  0
 20 21  1  0  0  0  0
 21 23  1  0  0  0  0
 21 56  1  0  0  0  0
 22 24  1  0  0  0  0
 22 27  1  0  0  0  0
 22 57  1  0  0  0  0
 23 25  1  0  0  0  0
 23 58  1  0  0  0  0
 24 26  1  0  0  0  0
 24 28  1  6  0  0  0
 24 60  1  0  0  0  0
 25 29  1  0  0  0  0
 25 61  1  0  0  0  0
 25 62  1  0  0  0  0
 26 30  1  0  0  0  0
 26 63  1  0  0  0  0
 26 64  1  0  0  0  0
 28 66  1  0  0  0  0
 28 67  1  0  0  0  0
 28 68  1  0  0  0  0
 29 35  2  0  0  0  0
 29 36  1  0  0  0  0
 30 70  1  0  0  0  0
 30 71  1  0  0  0  0
 30 72  1  0  0  0  0
 31 33  1  0  0  0  0
 32 34  1  0  0  0  0
 32 74  1  0  0  0  0
 32 75  1  0  0  0  0
 33 37  1  0  0  0  0
 33 76  1  0  0  0  0
 34 38  1  0  0  0  0
 34 39  1  0  0  0  0
 34 77  1  0  0  0  0
 35 40  1  0  0  0  0
 35 78  1  0  0  0  0
 36 41  2  0  0  0  0
 36 79  1  0  0  0  0
 37 43  1  0  0  0  0
 37 80  1  0  0  0  0
 37 81  1  0  0  0  0
 38 83  1  0  0  0  0
 38 84  1  0  0  0  0
 38 85  1  0  0  0  0
 39 86  1  0  0  0  0
 39 87  1  0  0  0  0
 39 88  1  0  0  0  0
 40 42  2  0  0  0  0
 40 89  1  0  0  0  0
 41 42  1  0  0  0  0
 41 90  1  0  0  0  0
 42 91  1  0  0  0  0
 45 46  1  0  0  0  0
 45 47  1  0  0  0  0
 45 48  1  0  0  0  0
 46 94  1  0  0  0  0
 46 95  1  0  0  0  0
 46 96  1  0  0  0  0
 47 97  1  0  0  0  0
 47 98  1  0  0  0  0
 47 99  1  0  0  0  0
 48100  1  0  0  0  0
 48101  1  0  0  0  0
 48102  1  0  0  0  0
M  END
> <PUBCHEM_COMPOUND_CID>
501754
> <PUBCHEM_COMPOUND_CANONICALIZED>
1
> <PUBCHEM_CACTVS_COMPLEXITY>
1120
> <PUBCHEM_CACTVS_HBOND_ACCEPTOR>
8
> <PUBCHEM_CACTVS_HBOND_DONOR>
6
> <PUBCHEM_CACTVS_ROTATABLE_BOND>
18
> <PUBCHEM_CACTVS_SUBSKEYS>
AAADcfB/vAAAAAAAAAAAAAAAAAAAAWAAAAAwAAAAAAAAAAABAAAAHgAQCAAADXzhmAYyCIPABgCIAiFSGAICAAAgAAAIiIHIAIkKcDqA0TGcYAAklgCYiAedyaCOAAAAAAAAAAAAAAAAAAAAAAAAAAAAAA==
> <PUBCHEM_IUPAC_OPENEYE_NAME>
tert-butyl N-[(1S)-3-amino-1-[[(1S,2S)-1-benzyl-2-hydroxy-3-[(2S)-2-[[(1S,2R)-1-(isobutylcarbamoyl)-2-methyl-butyl]carbamoyl]pyrrolidin-1-yl]-3-oxo-propyl]carbamoyl]-3-oxo-propyl]carbamate
> <PUBCHEM_IUPAC_CAS_NAME>
N-[(2S)-4-amino-1-[[(2S,3S)-3-hydroxy-4-[(2S)-2-[[[(2S,3R)-3-methyl-1-(2-methylpropylamino)-1-oxopentan-2-yl]amino]-oxomethyl]-1-pyrrolidinyl]-4-oxo-1-phenylbutan-2-yl]amino]-1,4-dioxobutan-2-yl]carbamic acid tert-butyl ester
> <PUBCHEM_IUPAC_NAME_MARKUP>
<I>tert</I>-butyl <I>N</I>-[(2<I>S</I>)-4-amino-1-[[(2<I>S</I>,3<I>S</I>)-3-hydroxy-4-[(2<I>S</I>)-2-[[(2<I>S</I>,3<I>R</I>)-3-methyl-1-(2-methylpropylamino)-1-oxopentan-2-yl]carbamoyl]pyrrolidin-1-yl]-4-oxo-1-phenylbutan-2-yl]amino]-1,4-dioxobutan-2-yl]carbamate
> <PUBCHEM_IUPAC_NAME>
tert-butyl N-[(2S)-4-amino-1-[[(2S,3S)-3-hydroxy-4-[(2S)-2-[[(2S,3R)-3-methyl-1-(2-methylpropylamino)-1-oxopentan-2-yl]carbamoyl]pyrrolidin-1-yl]-4-oxo-1-phenylbutan-2-yl]amino]-1,4-dioxobutan-2-yl]carbamate
> <PUBCHEM_IUPAC_SYSTEMATIC_NAME>
tert-butyl N-[(2S)-4-azanyl-1-[[(2S,3S)-4-[(2S)-2-[[(2S,3R)-3-methyl-1-(2-methylpropylamino)-1-oxidanylidene-pentan-2-yl]carbamoyl]pyrrolidin-1-yl]-3-oxidanyl-4-oxidanylidene-1-phenyl-butan-2-yl]amino]-1,4-bis(oxidanylidene)butan-2-yl]carbamate
> <PUBCHEM_IUPAC_TRADITIONAL_NAME>
N-[(1S)-3-amino-1-[[(1S,2S)-1-benzyl-2-hydroxy-3-[(2S)-2-[[(1S,2R)-1-(isobutylcarbamoyl)-2-methyl-butyl]carbamoyl]pyrrolidino]-3-keto-propyl]carbamoyl]-3-keto-propyl]carbamic acid tert-butyl ester
> <PUBCHEM_IUPAC_INCHI>
InChI=1S/C34H54N6O8/c1-8-21(4)27(31(45)36-19-20(2)3)39-30(44)25-15-12-16-40(25)32(46)28(42)23(17-22-13-10-9-11-14-22)37-29(43)24(18-26(35)41)38-33(47)48-34(5,6)7/h9-11,13-14,20-21,23-25,27-28,42H,8,12,15-19H2,1-7H3,(H2,35,41)(H,36,45)(H,37,43)(H,38,47)(H,39,44)/t21-,23+,24+,25+,27+,28+/m1/s1
> <PUBCHEM_IUPAC_INCHIKEY>
RULLBVWEMAWMLL-WPOXTWMDSA-N
> <PUBCHEM_XLOGP3_AA>
2.3
> <PUBCHEM_EXACT_MASS>
674.40031270
> <PUBCHEM_MOLECULAR_FORMULA>
C34H54N6O8
> <PUBCHEM_MOLECULAR_WEIGHT>
674.8
> <PUBCHEM_OPENEYE_CAN_SMILES>
CCC(C)C(C(=O)NCC(C)C)NC(=O)C1CCCN1C(=O)C(C(CC2=CC=CC=C2)NC(=O)C(CC(=O)N)NC(=O)OC(C)(C)C)O
> <PUBCHEM_OPENEYE_ISO_SMILES>
CC[C@@H](C)[C@@H](C(=O)NCC(C)C)NC(=O)[C@@H]1CCCN1C(=O)[C@H]([C@H](CC2=CC=CC=C2)NC(=O)[C@H](CC(=O)N)NC(=O)OC(C)(C)C)O
> <PUBCHEM_CACTVS_TPSA>
209
> <PUBCHEM_MONOISOTOPIC_WEIGHT>
674.40031270
> <PUBCHEM_TOTAL_CHARGE>
0
> <PUBCHEM_HEAVY_ATOM_COUNT>
48
> <PUBCHEM_ATOM_DEF_STEREO_COUNT>
6
> <PUBCHEM_ATOM_UDEF_STEREO_COUNT>
0
> <PUBCHEM_BOND_DEF_STEREO_COUNT>
0
> <PUBCHEM_BOND_UDEF_STEREO_COUNT>
0
> <PUBCHEM_ISOTOPIC_ATOM_COUNT>
0
> <PUBCHEM_COMPONENT_COUNT>
1
> <PUBCHEM_CACTVS_TAUTO_COUNT>
-1
> <PUBCHEM_COORDINATE_TYPE>
1
5
255
> <PUBCHEM_BONDANNOTATIONS>
21  1  5
22  10  5
23  11  5
33  13  5
15  19  6
24  28  6
29  35  8
29  36  8
35  40  8
36  41  8
40  42  8
41  42  8
$$$$
