501780
  -OEChem-10302200282D
 87 89  0     1  0  0  0  0  0999 V2000
    8.3453    0.8569    0.0000 O   0  0  0  0  0  0  0  0  0  0  0  0
    5.7472    0.3569    0.0000 O   0  0  0  0  0  0  0  0  0  0  0  0
    4.6453    1.1575    0.0000 O   0  0  0  0  0  0  0  0  0  0  0  0
    9.2113    0.3569    0.0000 O   0  0  0  0  0  0  0  0  0  0  0  0
   11.8094    0.8569    0.0000 O   0  0  0  0  0  0  0  0  0  0  0  0
   11.8094   -2.1431    0.0000 O   0  0  0  0  0  0  0  0  0  0  0  0
   10.0773    0.8569    0.0000 O   0  0  0  0  0  0  0  0  0  0  0  0
    6.6132    1.8569    0.0000 N   0  0  0  0  0  0  0  0  0  0  0  0
    4.1100    2.8048    0.0000 N   0  0  0  0  0  0  0  0  0  0  0  0
    8.3453   -1.1431    0.0000 N   0  0  0  0  0  0  0  0  0  0  0  0
   10.9434   -0.6431    0.0000 N   0  0  0  0  0  0  0  0  0  0  0  0
   10.9434   -3.6431    0.0000 N   0  0  0  0  0  0  0  0  0  0  0  0
    5.8042    2.4447    0.0000 C   0  0  1  0  0  0  0  0  0  0  0  0
    6.1132    3.3958    0.0000 C   0  0  0  0  0  0  0  0  0  0  0  0
    7.1132    3.3958    0.0000 C   0  0  0  0  0  0  0  0  0  0  0  0
    7.4223    2.4447    0.0000 C   0  0  0  0  0  0  0  0  0  0  0  0
    6.6132    0.8569    0.0000 C   0  0  0  0  0  0  0  0  0  0  0  0
    4.8532    2.1357    0.0000 C   0  0  0  0  0  0  0  0  0  0  0  0
    7.4793    0.3569    0.0000 C   0  0  2  0  0  0  0  0  0  0  0  0
    7.4793   -0.6431    0.0000 C   0  0  2  0  0  0  0  0  0  0  0  0
    3.1590    2.4958    0.0000 C   0  0  0  0  0  0  0  0  0  0  0  0
    6.6132   -1.1431    0.0000 C   0  0  0  0  0  0  0  0  0  0  0  0
    2.4158    3.1649    0.0000 C   0  0  0  0  0  0  0  0  0  0  0  0
    2.9511    1.5176    0.0000 C   0  0  0  0  0  0  0  0  0  0  0  0
    6.6132   -2.1431    0.0000 C   0  0  0  0  0  0  0  0  0  0  0  0
    9.2113   -0.6431    0.0000 C   0  0  0  0  0  0  0  0  0  0  0  0
    2.6237    4.1431    0.0000 C   0  0  0  0  0  0  0  0  0  0  0  0
    2.0000    1.2086    0.0000 C   0  0  0  0  0  0  0  0  0  0  0  0
   10.0773   -1.1431    0.0000 C   0  0  2  0  0  0  0  0  0  0  0  0
    7.4793   -2.6431    0.0000 C   0  0  0  0  0  0  0  0  0  0  0  0
    5.7472   -2.6431    0.0000 C   0  0  0  0  0  0  0  0  0  0  0  0
   10.0773   -2.1431    0.0000 C   0  0  0  0  0  0  0  0  0  0  0  0
    7.4793   -3.6431    0.0000 C   0  0  0  0  0  0  0  0  0  0  0  0
    5.7472   -3.6431    0.0000 C   0  0  0  0  0  0  0  0  0  0  0  0
    6.6132   -4.1431    0.0000 C   0  0  0  0  0  0  0  0  0  0  0  0
   10.9434   -2.6431    0.0000 C   0  0  0  0  0  0  0  0  0  0  0  0
   10.9434    0.3569    0.0000 C   0  0  0  0  0  0  0  0  0  0  0  0
   11.8094    1.8569    0.0000 C   0  0  0  0  0  0  0  0  0  0  0  0
   12.6754    2.3569    0.0000 C   0  0  0  0  0  0  0  0  0  0  0  0
   13.5414    1.8569    0.0000 C   0  0  0  0  0  0  0  0  0  0  0  0
   12.6754    3.3569    0.0000 C   0  0  0  0  0  0  0  0  0  0  0  0
   14.4075    2.3569    0.0000 C   0  0  0  0  0  0  0  0  0  0  0  0
   13.5414    3.8569    0.0000 C   0  0  0  0  0  0  0  0  0  0  0  0
   14.4075    3.3569    0.0000 C   0  0  0  0  0  0  0  0  0  0  0  0
    5.7072    1.8323    0.0000 H   0  0  0  0  0  0  0  0  0  0  0  0
    6.1780    4.0124    0.0000 H   0  0  0  0  0  0  0  0  0  0  0  0
    5.5068    3.5247    0.0000 H   0  0  0  0  0  0  0  0  0  0  0  0
    7.7197    3.5247    0.0000 H   0  0  0  0  0  0  0  0  0  0  0  0
    7.0484    4.0124    0.0000 H   0  0  0  0  0  0  0  0  0  0  0  0
    7.7323    1.9078    0.0000 H   0  0  0  0  0  0  0  0  0  0  0  0
    7.9887    2.6969    0.0000 H   0  0  0  0  0  0  0  0  0  0  0  0
    7.4793    0.9769    0.0000 H   0  0  0  0  0  0  0  0  0  0  0  0
    7.4793   -1.2631    0.0000 H   0  0  0  0  0  0  0  0  0  0  0  0
    4.2389    3.4113    0.0000 H   0  0  0  0  0  0  0  0  0  0  0  0
    3.2879    3.1022    0.0000 H   0  0  0  0  0  0  0  0  0  0  0  0
    6.4012   -0.5605    0.0000 H   0  0  0  0  0  0  0  0  0  0  0  0
    6.0027   -1.2507    0.0000 H   0  0  0  0  0  0  0  0  0  0  0  0
    8.3453   -1.7631    0.0000 H   0  0  0  0  0  0  0  0  0  0  0  0
    1.8410    3.3972    0.0000 H   0  0  0  0  0  0  0  0  0  0  0  0
    2.0873    2.6391    0.0000 H   0  0  0  0  0  0  0  0  0  0  0  0
    3.0373    0.9037    0.0000 H   0  0  0  0  0  0  0  0  0  0  0  0
    3.5707    1.4960    0.0000 H   0  0  0  0  0  0  0  0  0  0  0  0
    8.3453    1.4769    0.0000 H   0  0  0  0  0  0  0  0  0  0  0  0
    3.2302    4.0142    0.0000 H   0  0  0  0  0  0  0  0  0  0  0  0
    2.7526    4.7495    0.0000 H   0  0  0  0  0  0  0  0  0  0  0  0
    2.0173    4.2720    0.0000 H   0  0  0  0  0  0  0  0  0  0  0  0
    1.8084    1.7983    0.0000 H   0  0  0  0  0  0  0  0  0  0  0  0
    1.4103    1.0170    0.0000 H   0  0  0  0  0  0  0  0  0  0  0  0
    2.1916    0.6190    0.0000 H   0  0  0  0  0  0  0  0  0  0  0  0
   10.6143   -1.4531    0.0000 H   0  0  0  0  0  0  0  0  0  0  0  0
    8.0162   -2.3331    0.0000 H   0  0  0  0  0  0  0  0  0  0  0  0
    5.2103   -2.3331    0.0000 H   0  0  0  0  0  0  0  0  0  0  0  0
    9.4668   -2.0354    0.0000 H   0  0  0  0  0  0  0  0  0  0  0  0
    9.8653   -2.7257    0.0000 H   0  0  0  0  0  0  0  0  0  0  0  0
   11.4803   -0.9531    0.0000 H   0  0  0  0  0  0  0  0  0  0  0  0
    8.0162   -3.9531    0.0000 H   0  0  0  0  0  0  0  0  0  0  0  0
    5.2103   -3.9531    0.0000 H   0  0  0  0  0  0  0  0  0  0  0  0
    6.6132   -4.7631    0.0000 H   0  0  0  0  0  0  0  0  0  0  0  0
   11.4803   -3.9531    0.0000 H   0  0  0  0  0  0  0  0  0  0  0  0
   10.4064   -3.9531    0.0000 H   0  0  0  0  0  0  0  0  0  0  0  0
   11.5973    2.4395    0.0000 H   0  0  0  0  0  0  0  0  0  0  0  0
   11.1988    1.7493    0.0000 H   0  0  0  0  0  0  0  0  0  0  0  0
   13.5414    1.2369    0.0000 H   0  0  0  0  0  0  0  0  0  0  0  0
   12.1385    3.6669    0.0000 H   0  0  0  0  0  0  0  0  0  0  0  0
   14.9444    2.0469    0.0000 H   0  0  0  0  0  0  0  0  0  0  0  0
   13.5414    4.4769    0.0000 H   0  0  0  0  0  0  0  0  0  0  0  0
   14.9444    3.6669    0.0000 H   0  0  0  0  0  0  0  0  0  0  0  0
 19  1  1  1  0  0  0
  1 63  1  0  0  0  0
  2 17  2  0  0  0  0
  3 18  2  0  0  0  0
  4 26  2  0  0  0  0
  5 37  1  0  0  0  0
  5 38  1  0  0  0  0
  6 36  2  0  0  0  0
  7 37  2  0  0  0  0
  8 13  1  0  0  0  0
  8 16  1  0  0  0  0
  8 17  1  0  0  0  0
  9 18  1  0  0  0  0
  9 21  1  0  0  0  0
  9 54  1  0  0  0  0
 20 10  1  1  0  0  0
 10 26  1  0  0  0  0
 10 58  1  0  0  0  0
 29 11  1  1  0  0  0
 11 37  1  0  0  0  0
 11 75  1  0  0  0  0
 12 36  1  0  0  0  0
 12 79  1  0  0  0  0
 12 80  1  0  0  0  0
 13 14  1  0  0  0  0
 13 18  1  6  0  0  0
 13 45  1  0  0  0  0
 14 15  1  0  0  0  0
 14 46  1  0  0  0  0
 14 47  1  0  0  0  0
 15 16  1  0  0  0  0
 15 48  1  0  0  0  0
 15 49  1  0  0  0  0
 16 50  1  0  0  0  0
 16 51  1  0  0  0  0
 17 19  1  0  0  0  0
 19 20  1  0  0  0  0
 19 52  1  0  0  0  0
 20 22  1  0  0  0  0
 20 53  1  0  0  0  0
 21 23  1  0  0  0  0
 21 24  1  0  0  0  0
 21 55  1  0  0  0  0
 22 25  1  0  0  0  0
 22 56  1  0  0  0  0
 22 57  1  0  0  0  0
 23 27  1  0  0  0  0
 23 59  1  0  0  0  0
 23 60  1  0  0  0  0
 24 28  1  0  0  0  0
 24 61  1  0  0  0  0
 24 62  1  0  0  0  0
 25 30  2  0  0  0  0
 25 31  1  0  0  0  0
 26 29  1  0  0  0  0
 27 64  1  0  0  0  0
 27 65  1  0  0  0  0
 27 66  1  0  0  0  0
 28 67  1  0  0  0  0
 28 68  1  0  0  0  0
 28 69  1  0  0  0  0
 29 32  1  0  0  0  0
 29 70  1  0  0  0  0
 30 33  1  0  0  0  0
 30 71  1  0  0  0  0
 31 34  2  0  0  0  0
 31 72  1  0  0  0  0
 32 36  1  0  0  0  0
 32 73  1  0  0  0  0
 32 74  1  0  0  0  0
 33 35  2  0  0  0  0
 33 76  1  0  0  0  0
 34 35  1  0  0  0  0
 34 77  1  0  0  0  0
 35 78  1  0  0  0  0
 38 39  1  0  0  0  0
 38 81  1  0  0  0  0
 38 82  1  0  0  0  0
 39 40  2  0  0  0  0
 39 41  1  0  0  0  0
 40 42  1  0  0  0  0
 40 83  1  0  0  0  0
 41 43  2  0  0  0  0
 41 84  1  0  0  0  0
 42 44  2  0  0  0  0
 42 85  1  0  0  0  0
 43 44  1  0  0  0  0
 43 86  1  0  0  0  0
 44 87  1  0  0  0  0
M  END
> <PUBCHEM_COMPOUND_CID>
501780
> <PUBCHEM_COMPOUND_CANONICALIZED>
1
> <PUBCHEM_CACTVS_COMPLEXITY>
963
> <PUBCHEM_CACTVS_HBOND_ACCEPTOR>
7
> <PUBCHEM_CACTVS_HBOND_DONOR>
5
> <PUBCHEM_CACTVS_ROTATABLE_BOND>
16
> <PUBCHEM_CACTVS_SUBSKEYS>
AAADcfB/uAAAAAAAAAAAAAAAAAAAAWAAAAAwYAAAAAAAAAABQAAAHgAQCAAADDzhmAYyCIPABgCIAiFSGAICAAAgAAAIiIHICIkKdjqA8TmccAAk1gGYqAedyaCOAAAAAAAAAAAAAAAAAAAAAAAAAAAAAA==
> <PUBCHEM_IUPAC_OPENEYE_NAME>
benzyl N-[(1S)-3-amino-1-[[(1S,2S)-1-benzyl-3-[(2S)-2-(1-ethylpropylcarbamoyl)pyrrolidin-1-yl]-2-hydroxy-3-oxo-propyl]carbamoyl]-3-oxo-propyl]carbamate
> <PUBCHEM_IUPAC_CAS_NAME>
N-[(2S)-4-amino-1-[[(2S,3S)-3-hydroxy-4-oxo-4-[(2S)-2-[oxo-(pentan-3-ylamino)methyl]-1-pyrrolidinyl]-1-phenylbutan-2-yl]amino]-1,4-dioxobutan-2-yl]carbamic acid (phenylmethyl) ester
> <PUBCHEM_IUPAC_NAME_MARKUP>
benzyl <I>N</I>-[(2<I>S</I>)-4-amino-1-[[(2<I>S</I>,3<I>S</I>)-3-hydroxy-4-oxo-4-[(2<I>S</I>)-2-(pentan-3-ylcarbamoyl)pyrrolidin-1-yl]-1-phenylbutan-2-yl]amino]-1,4-dioxobutan-2-yl]carbamate
> <PUBCHEM_IUPAC_NAME>
benzyl N-[(2S)-4-amino-1-[[(2S,3S)-3-hydroxy-4-oxo-4-[(2S)-2-(pentan-3-ylcarbamoyl)pyrrolidin-1-yl]-1-phenylbutan-2-yl]amino]-1,4-dioxobutan-2-yl]carbamate
> <PUBCHEM_IUPAC_SYSTEMATIC_NAME>
(phenylmethyl) N-[(2S)-4-azanyl-1,4-bis(oxidanylidene)-1-[[(2S,3S)-3-oxidanyl-4-oxidanylidene-4-[(2S)-2-(pentan-3-ylcarbamoyl)pyrrolidin-1-yl]-1-phenyl-butan-2-yl]amino]butan-2-yl]carbamate
> <PUBCHEM_IUPAC_TRADITIONAL_NAME>
N-[(1S)-3-amino-1-[[(1S,2S)-1-benzyl-3-[(2S)-2-(1-ethylpropylcarbamoyl)pyrrolidino]-2-hydroxy-3-keto-propyl]carbamoyl]-3-keto-propyl]carbamic acid benzyl ester
> <PUBCHEM_IUPAC_INCHI>
InChI=1S/C32H43N5O7/c1-3-23(4-2)34-30(41)26-16-11-17-37(26)31(42)28(39)24(18-21-12-7-5-8-13-21)35-29(40)25(19-27(33)38)36-32(43)44-20-22-14-9-6-10-15-22/h5-10,12-15,23-26,28,39H,3-4,11,16-20H2,1-2H3,(H2,33,38)(H,34,41)(H,35,40)(H,36,43)/t24-,25-,26-,28-/m0/s1
> <PUBCHEM_IUPAC_INCHIKEY>
KQXSXXWEDNELND-OBXRUURASA-N
> <PUBCHEM_XLOGP3_AA>
2.3
> <PUBCHEM_EXACT_MASS>
609.31624873
> <PUBCHEM_MOLECULAR_FORMULA>
C32H43N5O7
> <PUBCHEM_MOLECULAR_WEIGHT>
609.7
> <PUBCHEM_OPENEYE_CAN_SMILES>
CCC(CC)NC(=O)C1CCCN1C(=O)C(C(CC2=CC=CC=C2)NC(=O)C(CC(=O)N)NC(=O)OCC3=CC=CC=C3)O
> <PUBCHEM_OPENEYE_ISO_SMILES>
CCC(CC)NC(=O)[C@@H]1CCCN1C(=O)[C@H]([C@H](CC2=CC=CC=C2)NC(=O)[C@H](CC(=O)N)NC(=O)OCC3=CC=CC=C3)O
> <PUBCHEM_CACTVS_TPSA>
180
> <PUBCHEM_MONOISOTOPIC_WEIGHT>
609.31624873
> <PUBCHEM_TOTAL_CHARGE>
0
> <PUBCHEM_HEAVY_ATOM_COUNT>
44
> <PUBCHEM_ATOM_DEF_STEREO_COUNT>
4
> <PUBCHEM_ATOM_UDEF_STEREO_COUNT>
0
> <PUBCHEM_BOND_DEF_STEREO_COUNT>
0
> <PUBCHEM_BOND_UDEF_STEREO_COUNT>
0
> <PUBCHEM_ISOTOPIC_ATOM_COUNT>
0
> <PUBCHEM_COMPONENT_COUNT>
1
> <PUBCHEM_CACTVS_TAUTO_COUNT>
-1
> <PUBCHEM_COORDINATE_TYPE>
1
5
255
> <PUBCHEM_BONDANNOTATIONS>
19  1  5
20  10  5
29  11  5
13  18  6
25  30  8
25  31  8
30  33  8
31  34  8
33  35  8
34  35  8
39  40  8
39  41  8
40  42  8
41  43  8
42  44  8
43  44  8
$$$$
