501759
  -OEChem-10302200282D
115117  0     1  0  0  0  0  0999 V2000
   10.1589   -0.6045    0.0000 O   0  0  0  0  0  0  0  0  0  0  0  0
    7.5608   -1.1045    0.0000 O   0  0  0  0  0  0  0  0  0  0  0  0
    6.4589   -0.3039    0.0000 O   0  0  0  0  0  0  0  0  0  0  0  0
   11.0249   -1.1045    0.0000 O   0  0  0  0  0  0  0  0  0  0  0  0
   12.7570   -4.1045    0.0000 O   0  0  0  0  0  0  0  0  0  0  0  0
    3.2784    1.3945    0.0000 O   0  0  0  0  0  0  0  0  0  0  0  0
   13.6230   -3.6045    0.0000 O   0  0  0  0  0  0  0  0  0  0  0  0
    4.8532    4.6380    0.0000 O   0  0  0  0  0  0  0  0  0  0  0  0
    8.4268    0.3955    0.0000 N   0  0  0  0  0  0  0  0  0  0  0  0
   10.1589   -2.6045    0.0000 N   0  0  0  0  0  0  0  0  0  0  0  0
    5.9236    1.3434    0.0000 N   0  0  0  0  0  0  0  0  0  0  0  0
   12.7570   -2.1045    0.0000 N   0  0  0  0  0  0  0  0  0  0  0  0
    4.4374    2.6816    0.0000 N   0  0  0  0  0  0  0  0  0  0  0  0
    3.1590    4.9981    0.0000 N   0  0  0  0  0  0  0  0  0  0  0  0
    8.4268   -3.6045    0.0000 C   0  0  0  0  0  0  0  0  0  0  0  0
    8.4268   -2.6045    0.0000 C   0  0  0  0  0  0  0  0  0  0  0  0
    7.5608   -4.1045    0.0000 C   0  0  0  0  0  0  0  0  0  0  0  0
    9.2929   -4.1045    0.0000 C   0  0  0  0  0  0  0  0  0  0  0  0
    9.2929   -2.1045    0.0000 C   0  0  1  0  0  0  0  0  0  0  0  0
    7.5608   -5.1045    0.0000 C   0  0  0  0  0  0  0  0  0  0  0  0
    9.2929   -5.1045    0.0000 C   0  0  0  0  0  0  0  0  0  0  0  0
    8.4268   -5.6045    0.0000 C   0  0  0  0  0  0  0  0  0  0  0  0
    9.2929   -1.1045    0.0000 C   0  0  1  0  0  0  0  0  0  0  0  0
    7.6178    0.9833    0.0000 C   0  0  1  0  0  0  0  0  0  0  0  0
    7.9268    1.9343    0.0000 C   0  0  0  0  0  0  0  0  0  0  0  0
    9.2359    0.9833    0.0000 C   0  0  0  0  0  0  0  0  0  0  0  0
    8.4268   -0.6045    0.0000 C   0  0  0  0  0  0  0  0  0  0  0  0
    8.9268    1.9343    0.0000 C   0  0  0  0  0  0  0  0  0  0  0  0
    6.6668    0.6743    0.0000 C   0  0  0  0  0  0  0  0  0  0  0  0
   11.0249   -2.1045    0.0000 C   0  0  0  0  0  0  0  0  0  0  0  0
    4.9726    1.0344    0.0000 C   0  0  1  0  0  0  0  0  0  0  0  0
    4.7647    0.0562    0.0000 C   0  0  1  0  0  0  0  0  0  0  0  0
   11.8910   -2.6045    0.0000 C   0  0  2  0  0  0  0  0  0  0  0  0
    3.8136   -0.2528    0.0000 C   0  0  0  0  0  0  0  0  0  0  0  0
    4.2294    1.7035    0.0000 C   0  0  0  0  0  0  0  0  0  0  0  0
   11.8910   -3.6045    0.0000 C   0  0  0  0  0  0  0  0  0  0  0  0
    5.5078   -0.6129    0.0000 C   0  0  0  0  0  0  0  0  0  0  0  0
    3.6942    3.3508    0.0000 C   0  0  1  0  0  0  0  0  0  0  0  0
    3.0705    0.4163    0.0000 C   0  0  0  0  0  0  0  0  0  0  0  0
    2.7431    3.0418    0.0000 C   0  0  0  0  0  0  0  0  0  0  0  0
   13.6230   -2.6045    0.0000 C   0  0  0  0  0  0  0  0  0  0  0  0
    3.9021    4.3289    0.0000 C   0  0  0  0  0  0  0  0  0  0  0  0
   14.4890   -2.1045    0.0000 C   0  0  0  0  0  0  0  0  0  0  0  0
    2.0000    3.7109    0.0000 C   0  0  0  0  0  0  0  0  0  0  0  0
    2.5352    2.0636    0.0000 C   0  0  0  0  0  0  0  0  0  0  0  0
   12.7570   -5.1045    0.0000 C   0  0  0  0  0  0  0  0  0  0  0  0
   15.3551   -2.6045    0.0000 C   0  0  0  0  0  0  0  0  0  0  0  0
   16.2211   -2.1045    0.0000 C   0  0  0  0  0  0  0  0  0  0  0  0
   16.2211   -1.1045    0.0000 C   0  0  0  0  0  0  0  0  0  0  0  0
   17.0871   -2.6045    0.0000 C   0  0  0  0  0  0  0  0  0  0  0  0
   17.0871   -0.6045    0.0000 C   0  0  0  0  0  0  0  0  0  0  0  0
   17.9531   -2.1045    0.0000 C   0  0  0  0  0  0  0  0  0  0  0  0
   17.9531   -1.1045    0.0000 C   0  0  0  0  0  0  0  0  0  0  0  0
    8.9638   -3.2945    0.0000 H   0  0  0  0  0  0  0  0  0  0  0  0
    8.2148   -2.0219    0.0000 H   0  0  0  0  0  0  0  0  0  0  0  0
    7.8163   -2.7122    0.0000 H   0  0  0  0  0  0  0  0  0  0  0  0
    7.3488   -3.5219    0.0000 H   0  0  0  0  0  0  0  0  0  0  0  0
    6.9502   -4.2122    0.0000 H   0  0  0  0  0  0  0  0  0  0  0  0
    9.9035   -4.2122    0.0000 H   0  0  0  0  0  0  0  0  0  0  0  0
    9.5049   -3.5219    0.0000 H   0  0  0  0  0  0  0  0  0  0  0  0
    9.2929   -2.7245    0.0000 H   0  0  0  0  0  0  0  0  0  0  0  0
    6.9502   -4.9968    0.0000 H   0  0  0  0  0  0  0  0  0  0  0  0
    7.3488   -5.6871    0.0000 H   0  0  0  0  0  0  0  0  0  0  0  0
    9.5049   -5.6871    0.0000 H   0  0  0  0  0  0  0  0  0  0  0  0
    9.9035   -4.9968    0.0000 H   0  0  0  0  0  0  0  0  0  0  0  0
    8.0283   -6.0795    0.0000 H   0  0  0  0  0  0  0  0  0  0  0  0
    8.8254   -6.0795    0.0000 H   0  0  0  0  0  0  0  0  0  0  0  0
    9.2929   -0.4845    0.0000 H   0  0  0  0  0  0  0  0  0  0  0  0
    7.5208    0.3709    0.0000 H   0  0  0  0  0  0  0  0  0  0  0  0
    7.9917    2.5509    0.0000 H   0  0  0  0  0  0  0  0  0  0  0  0
    7.3204    2.0632    0.0000 H   0  0  0  0  0  0  0  0  0  0  0  0
    9.5459    0.4463    0.0000 H   0  0  0  0  0  0  0  0  0  0  0  0
    9.8023    1.2354    0.0000 H   0  0  0  0  0  0  0  0  0  0  0  0
    9.5333    2.0632    0.0000 H   0  0  0  0  0  0  0  0  0  0  0  0
    8.8620    2.5509    0.0000 H   0  0  0  0  0  0  0  0  0  0  0  0
   10.1589   -3.2245    0.0000 H   0  0  0  0  0  0  0  0  0  0  0  0
   10.1589    0.0155    0.0000 H   0  0  0  0  0  0  0  0  0  0  0  0
    5.4333    0.6195    0.0000 H   0  0  0  0  0  0  0  0  0  0  0  0
    6.0525    1.9498    0.0000 H   0  0  0  0  0  0  0  0  0  0  0  0
    4.6358   -0.5502    0.0000 H   0  0  0  0  0  0  0  0  0  0  0  0
   12.4279   -2.9145    0.0000 H   0  0  0  0  0  0  0  0  0  0  0  0
    3.3250   -0.6345    0.0000 H   0  0  0  0  0  0  0  0  0  0  0  0
    4.1047   -0.8002    0.0000 H   0  0  0  0  0  0  0  0  0  0  0  0
   11.2804   -3.4968    0.0000 H   0  0  0  0  0  0  0  0  0  0  0  0
   11.6789   -4.1871    0.0000 H   0  0  0  0  0  0  0  0  0  0  0  0
    5.0930   -1.0737    0.0000 H   0  0  0  0  0  0  0  0  0  0  0  0
    5.9686   -1.0278    0.0000 H   0  0  0  0  0  0  0  0  0  0  0  0
    5.9227   -0.1522    0.0000 H   0  0  0  0  0  0  0  0  0  0  0  0
   12.7570   -1.4845    0.0000 H   0  0  0  0  0  0  0  0  0  0  0  0
    5.0270    2.8732    0.0000 H   0  0  0  0  0  0  0  0  0  0  0  0
    3.5653    2.7443    0.0000 H   0  0  0  0  0  0  0  0  0  0  0  0
    3.4853    0.8771    0.0000 H   0  0  0  0  0  0  0  0  0  0  0  0
    2.6097    0.8312    0.0000 H   0  0  0  0  0  0  0  0  0  0  0  0
    2.6556   -0.0444    0.0000 H   0  0  0  0  0  0  0  0  0  0  0  0
    2.8721    3.6482    0.0000 H   0  0  0  0  0  0  0  0  0  0  0  0
   14.8876   -1.6296    0.0000 H   0  0  0  0  0  0  0  0  0  0  0  0
   14.0905   -1.6296    0.0000 H   0  0  0  0  0  0  0  0  0  0  0  0
    2.4149    4.1716    0.0000 H   0  0  0  0  0  0  0  0  0  0  0  0
    1.5392    4.1258    0.0000 H   0  0  0  0  0  0  0  0  0  0  0  0
    1.5851    3.2501    0.0000 H   0  0  0  0  0  0  0  0  0  0  0  0
    1.9288    2.1925    0.0000 H   0  0  0  0  0  0  0  0  0  0  0  0
    2.4063    1.4572    0.0000 H   0  0  0  0  0  0  0  0  0  0  0  0
    3.1417    1.9347    0.0000 H   0  0  0  0  0  0  0  0  0  0  0  0
   12.1370   -5.1045    0.0000 H   0  0  0  0  0  0  0  0  0  0  0  0
   12.7570   -5.7245    0.0000 H   0  0  0  0  0  0  0  0  0  0  0  0
   13.3770   -5.1045    0.0000 H   0  0  0  0  0  0  0  0  0  0  0  0
   14.9565   -3.0795    0.0000 H   0  0  0  0  0  0  0  0  0  0  0  0
   15.7536   -3.0795    0.0000 H   0  0  0  0  0  0  0  0  0  0  0  0
    3.2879    5.6045    0.0000 H   0  0  0  0  0  0  0  0  0  0  0  0
    2.5693    4.8065    0.0000 H   0  0  0  0  0  0  0  0  0  0  0  0
   15.6841   -0.7945    0.0000 H   0  0  0  0  0  0  0  0  0  0  0  0
   17.0871   -3.2245    0.0000 H   0  0  0  0  0  0  0  0  0  0  0  0
   17.0871    0.0155    0.0000 H   0  0  0  0  0  0  0  0  0  0  0  0
   18.4901   -2.4145    0.0000 H   0  0  0  0  0  0  0  0  0  0  0  0
   18.4901   -0.7945    0.0000 H   0  0  0  0  0  0  0  0  0  0  0  0
 23  1  1  1  0  0  0
  1 77  1  0  0  0  0
  2 27  2  0  0  0  0
  3 29  2  0  0  0  0
  4 30  2  0  0  0  0
  5 36  1  0  0  0  0
  5 46  1  0  0  0  0
  6 35  2  0  0  0  0
  7 41  2  0  0  0  0
  8 42  2  0  0  0  0
  9 24  1  0  0  0  0
  9 26  1  0  0  0  0
  9 27  1  0  0  0  0
 19 10  1  1  0  0  0
 10 30  1  0  0  0  0
 10 76  1  0  0  0  0
 11 29  1  0  0  0  0
 31 11  1  1  0  0  0
 11 79  1  0  0  0  0
 33 12  1  1  0  0  0
 12 41  1  0  0  0  0
 12 89  1  0  0  0  0
 13 35  1  0  0  0  0
 38 13  1  1  0  0  0
 13 90  1  0  0  0  0
 14 42  1  0  0  0  0
 14109  1  0  0  0  0
 14110  1  0  0  0  0
 15 16  1  0  0  0  0
 15 17  1  0  0  0  0
 15 18  1  0  0  0  0
 15 54  1  0  0  0  0
 16 19  1  0  0  0  0
 16 55  1  0  0  0  0
 16 56  1  0  0  0  0
 17 20  1  0  0  0  0
 17 57  1  0  0  0  0
 17 58  1  0  0  0  0
 18 21  1  0  0  0  0
 18 59  1  0  0  0  0
 18 60  1  0  0  0  0
 19 23  1  0  0  0  0
 19 61  1  0  0  0  0
 20 22  1  0  0  0  0
 20 62  1  0  0  0  0
 20 63  1  0  0  0  0
 21 22  1  0  0  0  0
 21 64  1  0  0  0  0
 21 65  1  0  0  0  0
 22 66  1  0  0  0  0
 22 67  1  0  0  0  0
 23 27  1  0  0  0  0
 23 68  1  0  0  0  0
 24 25  1  0  0  0  0
 24 29  1  6  0  0  0
 24 69  1  0  0  0  0
 25 28  1  0  0  0  0
 25 70  1  0  0  0  0
 25 71  1  0  0  0  0
 26 28  1  0  0  0  0
 26 72  1  0  0  0  0
 26 73  1  0  0  0  0
 28 74  1  0  0  0  0
 28 75  1  0  0  0  0
 30 33  1  0  0  0  0
 31 32  1  0  0  0  0
 31 35  1  0  0  0  0
 31 78  1  0  0  0  0
 32 34  1  0  0  0  0
 32 37  1  6  0  0  0
 32 80  1  0  0  0  0
 33 36  1  0  0  0  0
 33 81  1  0  0  0  0
 34 39  1  0  0  0  0
 34 82  1  0  0  0  0
 34 83  1  0  0  0  0
 36 84  1  0  0  0  0
 36 85  1  0  0  0  0
 37 86  1  0  0  0  0
 37 87  1  0  0  0  0
 37 88  1  0  0  0  0
 38 40  1  0  0  0  0
 38 42  1  0  0  0  0
 38 91  1  0  0  0  0
 39 92  1  0  0  0  0
 39 93  1  0  0  0  0
 39 94  1  0  0  0  0
 40 44  1  0  0  0  0
 40 45  1  0  0  0  0
 40 95  1  0  0  0  0
 41 43  1  0  0  0  0
 43 47  1  0  0  0  0
 43 96  1  0  0  0  0
 43 97  1  0  0  0  0
 44 98  1  0  0  0  0
 44 99  1  0  0  0  0
 44100  1  0  0  0  0
 45101  1  0  0  0  0
 45102  1  0  0  0  0
 45103  1  0  0  0  0
 46104  1  0  0  0  0
 46105  1  0  0  0  0
 46106  1  0  0  0  0
 47 48  1  0  0  0  0
 47107  1  0  0  0  0
 47108  1  0  0  0  0
 48 49  2  0  0  0  0
 48 50  1  0  0  0  0
 49 51  1  0  0  0  0
 49111  1  0  0  0  0
 50 52  2  0  0  0  0
 50112  1  0  0  0  0
 51 53  2  0  0  0  0
 51113  1  0  0  0  0
 52 53  1  0  0  0  0
 52114  1  0  0  0  0
 53115  1  0  0  0  0
M  END
> <PUBCHEM_COMPOUND_CID>
501759
> <PUBCHEM_COMPOUND_CANONICALIZED>
1
> <PUBCHEM_CACTVS_COMPLEXITY>
1220
> <PUBCHEM_CACTVS_HBOND_ACCEPTOR>
8
> <PUBCHEM_CACTVS_HBOND_DONOR>
6
> <PUBCHEM_CACTVS_ROTATABLE_BOND>
20
> <PUBCHEM_CACTVS_SUBSKEYS>
AAADcfB/vAAAAAAAAAAAAAAAAAAAAWAAAAAwYAAAAAAAAAABAAAAHgAQCAAADTzhmAYyAIPABgCIAiFSEAICAAAgAAAIiIHIAIgKcD6A0TCVYAAmtgCYiAeYyaCOAAAAAAAAAAAAAAAAAAAAAAAAAAAAAA==
> <PUBCHEM_IUPAC_OPENEYE_NAME>
(2S)-N-[(1S,2R)-1-[[(1S)-1-carbamoyl-2-methyl-propyl]carbamoyl]-2-methyl-butyl]-1-[(2S,3S)-4-cyclohexyl-2-hydroxy-3-[[(2S)-3-methoxy-2-(3-phenylpropanoylamino)propanoyl]amino]butanoyl]pyrrolidine-2-carboxamide
> <PUBCHEM_IUPAC_CAS_NAME>
(2S)-N-[(2S,3R)-1-[[(2S)-1-amino-3-methyl-1-oxobutan-2-yl]amino]-3-methyl-1-oxopentan-2-yl]-1-[(2S,3S)-4-cyclohexyl-2-hydroxy-3-[[(2S)-3-methoxy-1-oxo-2-[(1-oxo-3-phenylpropyl)amino]propyl]amino]-1-oxobutyl]-2-pyrrolidinecarboxamide
> <PUBCHEM_IUPAC_NAME_MARKUP>
(2<I>S</I>)-<I>N</I>-[(2<I>S</I>,3<I>R</I>)-1-[[(2<I>S</I>)-1-amino-3-methyl-1-oxobutan-2-yl]amino]-3-methyl-1-oxopentan-2-yl]-1-[(2<I>S</I>,3<I>S</I>)-4-cyclohexyl-2-hydroxy-3-[[(2<I>S</I>)-3-methoxy-2-(3-phenylpropanoylamino)propanoyl]amino]butanoyl]pyrrolidine-2-carboxamide
> <PUBCHEM_IUPAC_NAME>
(2S)-N-[(2S,3R)-1-[[(2S)-1-amino-3-methyl-1-oxobutan-2-yl]amino]-3-methyl-1-oxopentan-2-yl]-1-[(2S,3S)-4-cyclohexyl-2-hydroxy-3-[[(2S)-3-methoxy-2-(3-phenylpropanoylamino)propanoyl]amino]butanoyl]pyrrolidine-2-carboxamide
> <PUBCHEM_IUPAC_SYSTEMATIC_NAME>
(2S)-N-[(2S,3R)-1-[[(2S)-1-azanyl-3-methyl-1-oxidanylidene-butan-2-yl]amino]-3-methyl-1-oxidanylidene-pentan-2-yl]-1-[(2S,3S)-4-cyclohexyl-3-[[(2S)-3-methoxy-2-(3-phenylpropanoylamino)propanoyl]amino]-2-oxidanyl-butanoyl]pyrrolidine-2-carboxamide
> <PUBCHEM_IUPAC_TRADITIONAL_NAME>
(2S)-N-[(1S,2R)-1-[[(1S)-1-carbamoyl-2-methyl-propyl]carbamoyl]-2-methyl-butyl]-1-[(2S,3S)-4-cyclohexyl-3-[[(2S)-2-(hydrocinnamoylamino)-3-methoxy-propanoyl]amino]-2-hydroxy-butanoyl]pyrrolidine-2-carboxamide
> <PUBCHEM_IUPAC_INCHI>
InChI=1S/C39H62N6O8/c1-6-25(4)33(38(51)43-32(24(2)3)35(40)48)44-37(50)30-18-13-21-45(30)39(52)34(47)28(22-27-16-11-8-12-17-27)42-36(49)29(23-53-5)41-31(46)20-19-26-14-9-7-10-15-26/h7,9-10,14-15,24-25,27-30,32-34,47H,6,8,11-13,16-23H2,1-5H3,(H2,40,48)(H,41,46)(H,42,49)(H,43,51)(H,44,50)/t25-,28+,29+,30+,32+,33+,34+/m1/s1
> <PUBCHEM_IUPAC_INCHIKEY>
DFOFSRPSHMFKNY-UYCHLWRSSA-N
> <PUBCHEM_XLOGP3_AA>
4
> <PUBCHEM_EXACT_MASS>
742.46291296
> <PUBCHEM_MOLECULAR_FORMULA>
C39H62N6O8
> <PUBCHEM_MOLECULAR_WEIGHT>
742.9
> <PUBCHEM_OPENEYE_CAN_SMILES>
CCC(C)C(C(=O)NC(C(C)C)C(=O)N)NC(=O)C1CCCN1C(=O)C(C(CC2CCCCC2)NC(=O)C(COC)NC(=O)CCC3=CC=CC=C3)O
> <PUBCHEM_OPENEYE_ISO_SMILES>
CC[C@@H](C)[C@@H](C(=O)N[C@@H](C(C)C)C(=O)N)NC(=O)[C@@H]1CCCN1C(=O)[C@H]([C@H](CC2CCCCC2)NC(=O)[C@H](COC)NC(=O)CCC3=CC=CC=C3)O
> <PUBCHEM_CACTVS_TPSA>
209
> <PUBCHEM_MONOISOTOPIC_WEIGHT>
742.46291296
> <PUBCHEM_TOTAL_CHARGE>
0
> <PUBCHEM_HEAVY_ATOM_COUNT>
53
> <PUBCHEM_ATOM_DEF_STEREO_COUNT>
7
> <PUBCHEM_ATOM_UDEF_STEREO_COUNT>
0
> <PUBCHEM_BOND_DEF_STEREO_COUNT>
0
> <PUBCHEM_BOND_UDEF_STEREO_COUNT>
0
> <PUBCHEM_ISOTOPIC_ATOM_COUNT>
0
> <PUBCHEM_COMPONENT_COUNT>
1
> <PUBCHEM_CACTVS_TAUTO_COUNT>
-1
> <PUBCHEM_COORDINATE_TYPE>
1
5
255
> <PUBCHEM_BONDANNOTATIONS>
23  1  5
19  10  5
31  11  5
33  12  5
38  13  5
24  29  6
32  37  6
48  49  8
48  50  8
49  51  8
50  52  8
51  53  8
52  53  8
$$$$
