501738
  -OEChem-10302200282D
 84 86  0     1  0  0  0  0  0999 V2000
    7.8954   -0.4245    0.0000 O   0  0  0  0  0  0  0  0  0  0  0  0
    5.2973   -0.9245    0.0000 O   0  0  0  0  0  0  0  0  0  0  0  0
    4.1954   -0.1238    0.0000 O   0  0  0  0  0  0  0  0  0  0  0  0
    8.7614   -0.9245    0.0000 O   0  0  0  0  0  0  0  0  0  0  0  0
    4.2839    4.4579    0.0000 O   0  0  0  0  0  0  0  0  0  0  0  0
    9.6274   -0.4245    0.0000 O   0  0  0  0  0  0  0  0  0  0  0  0
   11.3595   -3.4244    0.0000 O   0  0  0  0  0  0  0  0  0  0  0  0
    6.1633    0.5755    0.0000 N   0  0  0  0  0  0  0  0  0  0  0  0
    7.8954   -2.4245    0.0000 N   0  0  0  0  0  0  0  0  0  0  0  0
    3.6601    1.5234    0.0000 N   0  0  0  0  0  0  0  0  0  0  0  0
   10.4935   -1.9244    0.0000 N   0  0  0  0  0  0  0  0  0  0  0  0
    2.5896    4.8180    0.0000 N   0  0  0  0  0  0  0  0  0  0  0  0
   10.4935   -4.9244    0.0000 N   0  0  0  0  0  0  0  0  0  0  0  0
    5.3543    1.1633    0.0000 C   0  0  1  0  0  0  0  0  0  0  0  0
    5.6633    2.1144    0.0000 C   0  0  0  0  0  0  0  0  0  0  0  0
    6.6633    2.1144    0.0000 C   0  0  0  0  0  0  0  0  0  0  0  0
    6.9724    1.1633    0.0000 C   0  0  0  0  0  0  0  0  0  0  0  0
    6.1633   -0.4245    0.0000 C   0  0  0  0  0  0  0  0  0  0  0  0
    7.0294   -0.9245    0.0000 C   0  0  2  0  0  0  0  0  0  0  0  0
    7.0294   -1.9244    0.0000 C   0  0  2  0  0  0  0  0  0  0  0  0
    4.4033    0.8543    0.0000 C   0  0  0  0  0  0  0  0  0  0  0  0
    6.1633   -2.4245    0.0000 C   0  0  0  0  0  0  0  0  0  0  0  0
    6.1633   -3.4244    0.0000 C   0  0  0  0  0  0  0  0  0  0  0  0
    3.8680    2.5016    0.0000 C   0  0  0  0  0  0  0  0  0  0  0  0
    8.7614   -1.9244    0.0000 C   0  0  0  0  0  0  0  0  0  0  0  0
    9.6274   -2.4245    0.0000 C   0  0  2  0  0  0  0  0  0  0  0  0
    3.1249    3.1707    0.0000 C   0  0  0  0  0  0  0  0  0  0  0  0
    7.0294   -3.9244    0.0000 C   0  0  0  0  0  0  0  0  0  0  0  0
    5.2973   -3.9244    0.0000 C   0  0  0  0  0  0  0  0  0  0  0  0
    9.6274   -3.4244    0.0000 C   0  0  0  0  0  0  0  0  0  0  0  0
    7.0294   -4.9244    0.0000 C   0  0  0  0  0  0  0  0  0  0  0  0
    5.2973   -4.9244    0.0000 C   0  0  0  0  0  0  0  0  0  0  0  0
    3.3328    4.1489    0.0000 C   0  0  0  0  0  0  0  0  0  0  0  0
   10.4935   -0.9245    0.0000 C   0  0  0  0  0  0  0  0  0  0  0  0
    6.1633   -5.4244    0.0000 C   0  0  0  0  0  0  0  0  0  0  0  0
   10.4935   -3.9244    0.0000 C   0  0  0  0  0  0  0  0  0  0  0  0
   11.3595   -0.4245    0.0000 C   0  0  0  0  0  0  0  0  0  0  0  0
   11.3595    0.5755    0.0000 C   0  0  0  0  0  0  0  0  0  0  0  0
   12.2255    1.0756    0.0000 C   0  0  0  0  0  0  0  0  0  0  0  0
   13.0915    0.5755    0.0000 C   0  0  0  0  0  0  0  0  0  0  0  0
   12.2255    2.0755    0.0000 C   0  0  0  0  0  0  0  0  0  0  0  0
   13.9576    1.0756    0.0000 C   0  0  0  0  0  0  0  0  0  0  0  0
   13.0915    2.5755    0.0000 C   0  0  0  0  0  0  0  0  0  0  0  0
   13.9576    2.0755    0.0000 C   0  0  0  0  0  0  0  0  0  0  0  0
    5.2573    0.5510    0.0000 H   0  0  0  0  0  0  0  0  0  0  0  0
    5.7282    2.7310    0.0000 H   0  0  0  0  0  0  0  0  0  0  0  0
    5.0569    2.2433    0.0000 H   0  0  0  0  0  0  0  0  0  0  0  0
    7.2698    2.2433    0.0000 H   0  0  0  0  0  0  0  0  0  0  0  0
    6.5985    2.7310    0.0000 H   0  0  0  0  0  0  0  0  0  0  0  0
    7.2824    0.6264    0.0000 H   0  0  0  0  0  0  0  0  0  0  0  0
    7.5388    1.4155    0.0000 H   0  0  0  0  0  0  0  0  0  0  0  0
    7.0294   -0.3045    0.0000 H   0  0  0  0  0  0  0  0  0  0  0  0
    7.5663   -1.6144    0.0000 H   0  0  0  0  0  0  0  0  0  0  0  0
    5.9513   -1.8418    0.0000 H   0  0  0  0  0  0  0  0  0  0  0  0
    5.5528   -2.5321    0.0000 H   0  0  0  0  0  0  0  0  0  0  0  0
    7.8954   -3.0444    0.0000 H   0  0  0  0  0  0  0  0  0  0  0  0
    3.0705    1.3318    0.0000 H   0  0  0  0  0  0  0  0  0  0  0  0
    7.8954    0.1955    0.0000 H   0  0  0  0  0  0  0  0  0  0  0  0
    4.4429    2.2693    0.0000 H   0  0  0  0  0  0  0  0  0  0  0  0
    4.1966    3.0274    0.0000 H   0  0  0  0  0  0  0  0  0  0  0  0
   10.1644   -2.7344    0.0000 H   0  0  0  0  0  0  0  0  0  0  0  0
    2.5500    3.4030    0.0000 H   0  0  0  0  0  0  0  0  0  0  0  0
    2.7963    2.6449    0.0000 H   0  0  0  0  0  0  0  0  0  0  0  0
    7.5663   -3.6144    0.0000 H   0  0  0  0  0  0  0  0  0  0  0  0
    4.7604   -3.6144    0.0000 H   0  0  0  0  0  0  0  0  0  0  0  0
    9.0169   -3.3168    0.0000 H   0  0  0  0  0  0  0  0  0  0  0  0
    9.4154   -4.0071    0.0000 H   0  0  0  0  0  0  0  0  0  0  0  0
   11.0304   -2.2344    0.0000 H   0  0  0  0  0  0  0  0  0  0  0  0
    7.5663   -5.2344    0.0000 H   0  0  0  0  0  0  0  0  0  0  0  0
    4.7604   -5.2344    0.0000 H   0  0  0  0  0  0  0  0  0  0  0  0
    6.1633   -6.0444    0.0000 H   0  0  0  0  0  0  0  0  0  0  0  0
   11.5715   -1.0071    0.0000 H   0  0  0  0  0  0  0  0  0  0  0  0
   11.9701   -0.3168    0.0000 H   0  0  0  0  0  0  0  0  0  0  0  0
   11.1474    1.1582    0.0000 H   0  0  0  0  0  0  0  0  0  0  0  0
   10.7489    0.4679    0.0000 H   0  0  0  0  0  0  0  0  0  0  0  0
    2.7186    5.4244    0.0000 H   0  0  0  0  0  0  0  0  0  0  0  0
    2.0000    4.6264    0.0000 H   0  0  0  0  0  0  0  0  0  0  0  0
   11.0304   -5.2344    0.0000 H   0  0  0  0  0  0  0  0  0  0  0  0
    9.9565   -5.2344    0.0000 H   0  0  0  0  0  0  0  0  0  0  0  0
   13.0915   -0.0445    0.0000 H   0  0  0  0  0  0  0  0  0  0  0  0
   11.6886    2.3856    0.0000 H   0  0  0  0  0  0  0  0  0  0  0  0
   14.4945    0.7655    0.0000 H   0  0  0  0  0  0  0  0  0  0  0  0
   13.0915    3.1956    0.0000 H   0  0  0  0  0  0  0  0  0  0  0  0
   14.4945    2.3856    0.0000 H   0  0  0  0  0  0  0  0  0  0  0  0
 19  1  1  1  0  0  0
  1 58  1  0  0  0  0
  2 18  2  0  0  0  0
  3 21  2  0  0  0  0
  4 25  2  0  0  0  0
  5 33  2  0  0  0  0
  6 34  2  0  0  0  0
  7 36  2  0  0  0  0
  8 14  1  0  0  0  0
  8 17  1  0  0  0  0
  8 18  1  0  0  0  0
 20  9  1  1  0  0  0
  9 25  1  0  0  0  0
  9 56  1  0  0  0  0
 10 21  1  0  0  0  0
 10 24  1  0  0  0  0
 10 57  1  0  0  0  0
 26 11  1  1  0  0  0
 11 34  1  0  0  0  0
 11 68  1  0  0  0  0
 12 33  1  0  0  0  0
 12 76  1  0  0  0  0
 12 77  1  0  0  0  0
 13 36  1  0  0  0  0
 13 78  1  0  0  0  0
 13 79  1  0  0  0  0
 14 15  1  0  0  0  0
 14 21  1  6  0  0  0
 14 45  1  0  0  0  0
 15 16  1  0  0  0  0
 15 46  1  0  0  0  0
 15 47  1  0  0  0  0
 16 17  1  0  0  0  0
 16 48  1  0  0  0  0
 16 49  1  0  0  0  0
 17 50  1  0  0  0  0
 17 51  1  0  0  0  0
 18 19  1  0  0  0  0
 19 20  1  0  0  0  0
 19 52  1  0  0  0  0
 20 22  1  0  0  0  0
 20 53  1  0  0  0  0
 22 23  1  0  0  0  0
 22 54  1  0  0  0  0
 22 55  1  0  0  0  0
 23 28  2  0  0  0  0
 23 29  1  0  0  0  0
 24 27  1  0  0  0  0
 24 59  1  0  0  0  0
 24 60  1  0  0  0  0
 25 26  1  0  0  0  0
 26 30  1  0  0  0  0
 26 61  1  0  0  0  0
 27 33  1  0  0  0  0
 27 62  1  0  0  0  0
 27 63  1  0  0  0  0
 28 31  1  0  0  0  0
 28 64  1  0  0  0  0
 29 32  2  0  0  0  0
 29 65  1  0  0  0  0
 30 36  1  0  0  0  0
 30 66  1  0  0  0  0
 30 67  1  0  0  0  0
 31 35  2  0  0  0  0
 31 69  1  0  0  0  0
 32 35  1  0  0  0  0
 32 70  1  0  0  0  0
 34 37  1  0  0  0  0
 35 71  1  0  0  0  0
 37 38  1  0  0  0  0
 37 72  1  0  0  0  0
 37 73  1  0  0  0  0
 38 39  1  0  0  0  0
 38 74  1  0  0  0  0
 38 75  1  0  0  0  0
 39 40  2  0  0  0  0
 39 41  1  0  0  0  0
 40 42  1  0  0  0  0
 40 80  1  0  0  0  0
 41 43  2  0  0  0  0
 41 81  1  0  0  0  0
 42 44  2  0  0  0  0
 42 82  1  0  0  0  0
 43 44  1  0  0  0  0
 43 83  1  0  0  0  0
 44 84  1  0  0  0  0
M  END
> <PUBCHEM_COMPOUND_CID>
501738
> <PUBCHEM_COMPOUND_CANONICALIZED>
1
> <PUBCHEM_CACTVS_COMPLEXITY>
1010
> <PUBCHEM_CACTVS_HBOND_ACCEPTOR>
7
> <PUBCHEM_CACTVS_HBOND_DONOR>
6
> <PUBCHEM_CACTVS_ROTATABLE_BOND>
16
> <PUBCHEM_CACTVS_SUBSKEYS>
AAADcfB7uAAAAAAAAAAAAAAAAAAAAWAAAAAwYAAAAAAAAAABQAAAHgAQCAAADDzhmAYwAIPAAgCIAiFSEAICAAAgAAAIiIHIAIgKcDqA0TGUYAAklgCYiAedyaCOAAAAAAAAAAAAAAAAAAAAAAAAAAAAAA==
> <PUBCHEM_IUPAC_OPENEYE_NAME>
(2S)-N-[(1S,2S)-3-[(2S)-2-[(3-amino-3-oxo-propyl)carbamoyl]pyrrolidin-1-yl]-1-benzyl-2-hydroxy-3-oxo-propyl]-2-(3-phenylpropanoylamino)butanediamide
> <PUBCHEM_IUPAC_CAS_NAME>
(2S)-N-[(2S,3S)-4-[(2S)-2-[[(3-amino-3-oxopropyl)amino]-oxomethyl]-1-pyrrolidinyl]-3-hydroxy-4-oxo-1-phenylbutan-2-yl]-2-[(1-oxo-3-phenylpropyl)amino]butanediamide
> <PUBCHEM_IUPAC_NAME_MARKUP>
(2<I>S</I>)-<I>N</I>-[(2<I>S</I>,3<I>S</I>)-4-[(2<I>S</I>)-2-[(3-amino-3-oxopropyl)carbamoyl]pyrrolidin-1-yl]-3-hydroxy-4-oxo-1-phenylbutan-2-yl]-2-(3-phenylpropanoylamino)butanediamide
> <PUBCHEM_IUPAC_NAME>
(2S)-N-[(2S,3S)-4-[(2S)-2-[(3-amino-3-oxopropyl)carbamoyl]pyrrolidin-1-yl]-3-hydroxy-4-oxo-1-phenylbutan-2-yl]-2-(3-phenylpropanoylamino)butanediamide
> <PUBCHEM_IUPAC_SYSTEMATIC_NAME>
(2S)-N-[(2S,3S)-4-[(2S)-2-[(3-azanyl-3-oxidanylidene-propyl)carbamoyl]pyrrolidin-1-yl]-3-oxidanyl-4-oxidanylidene-1-phenyl-butan-2-yl]-2-(3-phenylpropanoylamino)butanediamide
> <PUBCHEM_IUPAC_TRADITIONAL_NAME>
(2S)-N-[(1S,2S)-3-[(2S)-2-[(3-amino-3-keto-propyl)carbamoyl]pyrrolidino]-1-benzyl-2-hydroxy-3-keto-propyl]-2-(hydrocinnamoylamino)succinamide
> <PUBCHEM_IUPAC_INCHI>
InChI=1S/C31H40N6O7/c32-25(38)15-16-34-30(43)24-12-7-17-37(24)31(44)28(41)22(18-21-10-5-2-6-11-21)36-29(42)23(19-26(33)39)35-27(40)14-13-20-8-3-1-4-9-20/h1-6,8-11,22-24,28,41H,7,12-19H2,(H2,32,38)(H2,33,39)(H,34,43)(H,35,40)(H,36,42)/t22-,23-,24-,28-/m0/s1
> <PUBCHEM_IUPAC_INCHIKEY>
CBJHRIWSCGQPBM-TVQWTUMOSA-N
> <PUBCHEM_XLOGP3_AA>
-0.7
> <PUBCHEM_EXACT_MASS>
608.29584764
> <PUBCHEM_MOLECULAR_FORMULA>
C31H40N6O7
> <PUBCHEM_MOLECULAR_WEIGHT>
608.7
> <PUBCHEM_OPENEYE_CAN_SMILES>
C1CC(N(C1)C(=O)C(C(CC2=CC=CC=C2)NC(=O)C(CC(=O)N)NC(=O)CCC3=CC=CC=C3)O)C(=O)NCCC(=O)N
> <PUBCHEM_OPENEYE_ISO_SMILES>
C1C[C@H](N(C1)C(=O)[C@H]([C@H](CC2=CC=CC=C2)NC(=O)[C@H](CC(=O)N)NC(=O)CCC3=CC=CC=C3)O)C(=O)NCCC(=O)N
> <PUBCHEM_CACTVS_TPSA>
214
> <PUBCHEM_MONOISOTOPIC_WEIGHT>
608.29584764
> <PUBCHEM_TOTAL_CHARGE>
0
> <PUBCHEM_HEAVY_ATOM_COUNT>
44
> <PUBCHEM_ATOM_DEF_STEREO_COUNT>
4
> <PUBCHEM_ATOM_UDEF_STEREO_COUNT>
0
> <PUBCHEM_BOND_DEF_STEREO_COUNT>
0
> <PUBCHEM_BOND_UDEF_STEREO_COUNT>
0
> <PUBCHEM_ISOTOPIC_ATOM_COUNT>
0
> <PUBCHEM_COMPONENT_COUNT>
1
> <PUBCHEM_CACTVS_TAUTO_COUNT>
-1
> <PUBCHEM_COORDINATE_TYPE>
1
5
255
> <PUBCHEM_BONDANNOTATIONS>
19  1  5
26  11  5
14  21  6
23  28  8
23  29  8
28  31  8
29  32  8
31  35  8
32  35  8
39  40  8
39  41  8
40  42  8
41  43  8
42  44  8
43  44  8
20  9  5
$$$$
