501751
  -OEChem-10302200282D
 76 78  0     1  0  0  0  0  0999 V2000
    5.9236    0.8230    0.0000 O   0  0  0  0  0  0  0  0  0  0  0  0
    9.6237    0.5224    0.0000 O   0  0  0  0  0  0  0  0  0  0  0  0
    7.0256    0.0224    0.0000 O   0  0  0  0  0  0  0  0  0  0  0  0
   11.3557   -1.4776    0.0000 O   0  0  0  0  0  0  0  0  0  0  0  0
   10.4897    0.0224    0.0000 O   0  0  0  0  0  0  0  0  0  0  0  0
    7.8916    1.5224    0.0000 N   0  0  0  0  0  0  0  0  0  0  0  0
    5.3884    2.4702    0.0000 N   0  0  0  0  0  0  0  0  0  0  0  0
    9.6237   -1.4776    0.0000 N   0  0  0  0  0  0  0  0  0  0  0  0
    3.6942    2.8304    0.0000 C   0  0  0  0  0  0  0  0  0  0  0  0
    2.7431    2.5214    0.0000 C   0  0  0  0  0  0  0  0  0  0  0  0
    3.9021    3.8085    0.0000 C   0  0  0  0  0  0  0  0  0  0  0  0
    7.0826    2.1101    0.0000 C   0  0  1  0  0  0  0  0  0  0  0  0
    2.0000    3.1905    0.0000 C   0  0  0  0  0  0  0  0  0  0  0  0
    3.1590    4.4776    0.0000 C   0  0  0  0  0  0  0  0  0  0  0  0
    4.4374    2.1612    0.0000 C   0  0  0  0  0  0  0  0  0  0  0  0
    7.3916    3.0612    0.0000 C   0  0  0  0  0  0  0  0  0  0  0  0
    2.2079    4.1686    0.0000 C   0  0  0  0  0  0  0  0  0  0  0  0
    8.3916    3.0612    0.0000 C   0  0  0  0  0  0  0  0  0  0  0  0
    8.7006    2.1101    0.0000 C   0  0  0  0  0  0  0  0  0  0  0  0
    6.1316    1.8011    0.0000 C   0  0  0  0  0  0  0  0  0  0  0  0
    7.8916    0.5224    0.0000 C   0  0  0  0  0  0  0  0  0  0  0  0
    8.7576    0.0224    0.0000 C   0  0  2  0  0  0  0  0  0  0  0  0
    8.7576   -0.9776    0.0000 C   0  0  2  0  0  0  0  0  0  0  0  0
    7.8916   -1.4776    0.0000 C   0  0  0  0  0  0  0  0  0  0  0  0
    7.8916   -2.4776    0.0000 C   0  0  0  0  0  0  0  0  0  0  0  0
   10.4897   -0.9776    0.0000 C   0  0  0  0  0  0  0  0  0  0  0  0
    8.7576   -2.9776    0.0000 C   0  0  0  0  0  0  0  0  0  0  0  0
    7.0256   -2.9776    0.0000 C   0  0  0  0  0  0  0  0  0  0  0  0
   12.2217   -0.9776    0.0000 C   0  0  0  0  0  0  0  0  0  0  0  0
    8.7576   -3.9776    0.0000 C   0  0  0  0  0  0  0  0  0  0  0  0
    7.0256   -3.9776    0.0000 C   0  0  0  0  0  0  0  0  0  0  0  0
   13.0878   -0.4776    0.0000 C   0  0  0  0  0  0  0  0  0  0  0  0
   12.7217   -1.8437    0.0000 C   0  0  0  0  0  0  0  0  0  0  0  0
   11.7217   -0.1116    0.0000 C   0  0  0  0  0  0  0  0  0  0  0  0
    7.8916   -4.4776    0.0000 C   0  0  0  0  0  0  0  0  0  0  0  0
    3.5653    2.2239    0.0000 H   0  0  0  0  0  0  0  0  0  0  0  0
    2.2546    2.1396    0.0000 H   0  0  0  0  0  0  0  0  0  0  0  0
    3.0342    1.9739    0.0000 H   0  0  0  0  0  0  0  0  0  0  0  0
    4.4770    3.5763    0.0000 H   0  0  0  0  0  0  0  0  0  0  0  0
    4.2307    4.3343    0.0000 H   0  0  0  0  0  0  0  0  0  0  0  0
    6.9856    1.4978    0.0000 H   0  0  0  0  0  0  0  0  0  0  0  0
    1.4252    3.4227    0.0000 H   0  0  0  0  0  0  0  0  0  0  0  0
    1.6714    2.6647    0.0000 H   0  0  0  0  0  0  0  0  0  0  0  0
    3.6475    4.8594    0.0000 H   0  0  0  0  0  0  0  0  0  0  0  0
    2.8679    5.0251    0.0000 H   0  0  0  0  0  0  0  0  0  0  0  0
    3.9488    1.7795    0.0000 H   0  0  0  0  0  0  0  0  0  0  0  0
    4.7284    1.6138    0.0000 H   0  0  0  0  0  0  0  0  0  0  0  0
    7.4564    3.6778    0.0000 H   0  0  0  0  0  0  0  0  0  0  0  0
    6.7852    3.1901    0.0000 H   0  0  0  0  0  0  0  0  0  0  0  0
    2.1216    4.7826    0.0000 H   0  0  0  0  0  0  0  0  0  0  0  0
    1.5883    4.1903    0.0000 H   0  0  0  0  0  0  0  0  0  0  0  0
    8.9981    3.1901    0.0000 H   0  0  0  0  0  0  0  0  0  0  0  0
    8.3268    3.6778    0.0000 H   0  0  0  0  0  0  0  0  0  0  0  0
    9.0106    1.5732    0.0000 H   0  0  0  0  0  0  0  0  0  0  0  0
    9.2670    2.3623    0.0000 H   0  0  0  0  0  0  0  0  0  0  0  0
    5.5173    3.0767    0.0000 H   0  0  0  0  0  0  0  0  0  0  0  0
    8.7576    0.6424    0.0000 H   0  0  0  0  0  0  0  0  0  0  0  0
    9.2946   -0.6676    0.0000 H   0  0  0  0  0  0  0  0  0  0  0  0
    7.6796   -0.8950    0.0000 H   0  0  0  0  0  0  0  0  0  0  0  0
    7.2810   -1.5853    0.0000 H   0  0  0  0  0  0  0  0  0  0  0  0
    9.6237   -2.0976    0.0000 H   0  0  0  0  0  0  0  0  0  0  0  0
    9.6237    1.1424    0.0000 H   0  0  0  0  0  0  0  0  0  0  0  0
    9.2946   -2.6676    0.0000 H   0  0  0  0  0  0  0  0  0  0  0  0
    6.4887   -2.6676    0.0000 H   0  0  0  0  0  0  0  0  0  0  0  0
    9.2946   -4.2876    0.0000 H   0  0  0  0  0  0  0  0  0  0  0  0
    6.4887   -4.2876    0.0000 H   0  0  0  0  0  0  0  0  0  0  0  0
   13.3978   -1.0146    0.0000 H   0  0  0  0  0  0  0  0  0  0  0  0
   13.6247   -0.1676    0.0000 H   0  0  0  0  0  0  0  0  0  0  0  0
   12.7778    0.0593    0.0000 H   0  0  0  0  0  0  0  0  0  0  0  0
   12.1848   -2.1537    0.0000 H   0  0  0  0  0  0  0  0  0  0  0  0
   13.0317   -2.3806    0.0000 H   0  0  0  0  0  0  0  0  0  0  0  0
   13.2587   -1.5337    0.0000 H   0  0  0  0  0  0  0  0  0  0  0  0
   12.2587    0.1984    0.0000 H   0  0  0  0  0  0  0  0  0  0  0  0
   11.4117    0.4253    0.0000 H   0  0  0  0  0  0  0  0  0  0  0  0
   11.1848   -0.4216    0.0000 H   0  0  0  0  0  0  0  0  0  0  0  0
    7.8916   -5.0976    0.0000 H   0  0  0  0  0  0  0  0  0  0  0  0
  1 20  2  0  0  0  0
 22  2  1  1  0  0  0
  2 62  1  0  0  0  0
  3 21  2  0  0  0  0
  4 26  1  0  0  0  0
  4 29  1  0  0  0  0
  5 26  2  0  0  0  0
  6 12  1  0  0  0  0
  6 19  1  0  0  0  0
  6 21  1  0  0  0  0
  7 15  1  0  0  0  0
  7 20  1  0  0  0  0
  7 56  1  0  0  0  0
 23  8  1  1  0  0  0
  8 26  1  0  0  0  0
  8 61  1  0  0  0  0
  9 10  1  0  0  0  0
  9 11  1  0  0  0  0
  9 15  1  0  0  0  0
  9 36  1  0  0  0  0
 10 13  1  0  0  0  0
 10 37  1  0  0  0  0
 10 38  1  0  0  0  0
 11 14  1  0  0  0  0
 11 39  1  0  0  0  0
 11 40  1  0  0  0  0
 12 16  1  0  0  0  0
 12 20  1  6  0  0  0
 12 41  1  0  0  0  0
 13 17  1  0  0  0  0
 13 42  1  0  0  0  0
 13 43  1  0  0  0  0
 14 17  1  0  0  0  0
 14 44  1  0  0  0  0
 14 45  1  0  0  0  0
 15 46  1  0  0  0  0
 15 47  1  0  0  0  0
 16 18  1  0  0  0  0
 16 48  1  0  0  0  0
 16 49  1  0  0  0  0
 17 50  1  0  0  0  0
 17 51  1  0  0  0  0
 18 19  1  0  0  0  0
 18 52  1  0  0  0  0
 18 53  1  0  0  0  0
 19 54  1  0  0  0  0
 19 55  1  0  0  0  0
 21 22  1  0  0  0  0
 22 23  1  0  0  0  0
 22 57  1  0  0  0  0
 23 24  1  0  0  0  0
 23 58  1  0  0  0  0
 24 25  1  0  0  0  0
 24 59  1  0  0  0  0
 24 60  1  0  0  0  0
 25 27  2  0  0  0  0
 25 28  1  0  0  0  0
 27 30  1  0  0  0  0
 27 63  1  0  0  0  0
 28 31  2  0  0  0  0
 28 64  1  0  0  0  0
 29 32  1  0  0  0  0
 29 33  1  0  0  0  0
 29 34  1  0  0  0  0
 30 35  2  0  0  0  0
 30 65  1  0  0  0  0
 31 35  1  0  0  0  0
 31 66  1  0  0  0  0
 32 67  1  0  0  0  0
 32 68  1  0  0  0  0
 32 69  1  0  0  0  0
 33 70  1  0  0  0  0
 33 71  1  0  0  0  0
 33 72  1  0  0  0  0
 34 73  1  0  0  0  0
 34 74  1  0  0  0  0
 34 75  1  0  0  0  0
 35 76  1  0  0  0  0
M  END
> <PUBCHEM_COMPOUND_CID>
501751
> <PUBCHEM_COMPOUND_CANONICALIZED>
1
> <PUBCHEM_CACTVS_COMPLEXITY>
710
> <PUBCHEM_CACTVS_HBOND_ACCEPTOR>
5
> <PUBCHEM_CACTVS_HBOND_DONOR>
3
> <PUBCHEM_CACTVS_ROTATABLE_BOND>
10
> <PUBCHEM_CACTVS_SUBSKEYS>
AAADcfB7OAAAAAAAAAAAAAAAAAAAAWAAAAAwYAAAAAAAAAABAAAAHgAQCAAADXzhmAYyCIPABgCIAiFSGAICAAAgAAAIiIHIAIkKcDqA0TGcYAAklgCYiAeYyaCOAAAAAAAAAAAAAAAAAAAAAAAAAAAAAA==
> <PUBCHEM_IUPAC_OPENEYE_NAME>
tert-butyl N-[(1S,2S)-1-benzyl-3-[(2S)-2-(cyclohexylmethylcarbamoyl)pyrrolidin-1-yl]-2-hydroxy-3-oxo-propyl]carbamate
> <PUBCHEM_IUPAC_CAS_NAME>
N-[(2S,3S)-4-[(2S)-2-[(cyclohexylmethylamino)-oxomethyl]-1-pyrrolidinyl]-3-hydroxy-4-oxo-1-phenylbutan-2-yl]carbamic acid tert-butyl ester
> <PUBCHEM_IUPAC_NAME_MARKUP>
<I>tert</I>-butyl <I>N</I>-[(2<I>S</I>,3<I>S</I>)-4-[(2<I>S</I>)-2-(cyclohexylmethylcarbamoyl)pyrrolidin-1-yl]-3-hydroxy-4-oxo-1-phenylbutan-2-yl]carbamate
> <PUBCHEM_IUPAC_NAME>
tert-butyl N-[(2S,3S)-4-[(2S)-2-(cyclohexylmethylcarbamoyl)pyrrolidin-1-yl]-3-hydroxy-4-oxo-1-phenylbutan-2-yl]carbamate
> <PUBCHEM_IUPAC_SYSTEMATIC_NAME>
tert-butyl N-[(2S,3S)-4-[(2S)-2-(cyclohexylmethylcarbamoyl)pyrrolidin-1-yl]-3-oxidanyl-4-oxidanylidene-1-phenyl-butan-2-yl]carbamate
> <PUBCHEM_IUPAC_TRADITIONAL_NAME>
N-[(1S,2S)-1-benzyl-3-[(2S)-2-(cyclohexylmethylcarbamoyl)pyrrolidino]-2-hydroxy-3-keto-propyl]carbamic acid tert-butyl ester
> <PUBCHEM_IUPAC_INCHI>
InChI=1S/C27H41N3O5/c1-27(2,3)35-26(34)29-21(17-19-11-6-4-7-12-19)23(31)25(33)30-16-10-15-22(30)24(32)28-18-20-13-8-5-9-14-20/h4,6-7,11-12,20-23,31H,5,8-10,13-18H2,1-3H3,(H,28,32)(H,29,34)/t21-,22-,23-/m0/s1
> <PUBCHEM_IUPAC_INCHIKEY>
SQEAZURFRCOTFQ-VABKMULXSA-N
> <PUBCHEM_XLOGP3_AA>
4.1
> <PUBCHEM_EXACT_MASS>
487.30462142
> <PUBCHEM_MOLECULAR_FORMULA>
C27H41N3O5
> <PUBCHEM_MOLECULAR_WEIGHT>
487.6
> <PUBCHEM_OPENEYE_CAN_SMILES>
CC(C)(C)OC(=O)NC(CC1=CC=CC=C1)C(C(=O)N2CCCC2C(=O)NCC3CCCCC3)O
> <PUBCHEM_OPENEYE_ISO_SMILES>
CC(C)(C)OC(=O)N[C@@H](CC1=CC=CC=C1)[C@@H](C(=O)N2CCC[C@H]2C(=O)NCC3CCCCC3)O
> <PUBCHEM_CACTVS_TPSA>
108
> <PUBCHEM_MONOISOTOPIC_WEIGHT>
487.30462142
> <PUBCHEM_TOTAL_CHARGE>
0
> <PUBCHEM_HEAVY_ATOM_COUNT>
35
> <PUBCHEM_ATOM_DEF_STEREO_COUNT>
3
> <PUBCHEM_ATOM_UDEF_STEREO_COUNT>
0
> <PUBCHEM_BOND_DEF_STEREO_COUNT>
0
> <PUBCHEM_BOND_UDEF_STEREO_COUNT>
0
> <PUBCHEM_ISOTOPIC_ATOM_COUNT>
0
> <PUBCHEM_COMPONENT_COUNT>
1
> <PUBCHEM_CACTVS_TAUTO_COUNT>
-1
> <PUBCHEM_COORDINATE_TYPE>
1
5
255
> <PUBCHEM_BONDANNOTATIONS>
12  20  6
22  2  5
25  27  8
25  28  8
27  30  8
28  31  8
30  35  8
31  35  8
23  8  5
$$$$
