501706
  -OEChem-10302200282D
 49 52  0     1  0  0  0  0  0999 V2000
    4.6870    0.5165    0.0000 O   0  0  0  0  0  0  0  0  0  0  0  0
    4.1111    3.0392    0.0000 O   0  0  0  0  0  0  0  0  0  0  0  0
    2.6166    0.2416    0.0000 O   0  0  0  0  0  0  0  0  0  0  0  0
    9.1448   -0.8815    0.0000 O   0  0  0  0  0  0  0  0  0  0  0  0
    5.6005   -1.0767    0.0000 O   0  0  0  0  0  0  0  0  0  0  0  0
    6.4666    0.4233    0.0000 N   0  0  0  0  0  0  0  0  0  0  0  0
    7.3326   -1.0767    0.0000 N   0  0  0  0  0  0  0  0  0  0  0  0
    4.5179    2.1257    0.0000 C   0  0  1  0  0  0  0  0  0  0  0  0
    5.6005    0.9233    0.0000 C   0  0  1  0  0  0  0  0  0  0  0  0
    5.4960    1.9178    0.0000 C   0  0  0  0  0  0  0  0  0  0  0  0
    4.0179    1.2597    0.0000 C   0  0  1  0  0  0  0  0  0  0  0  0
    3.0233    1.1551    0.0000 C   0  0  0  0  0  0  0  0  0  0  0  0
    7.3326    0.9233    0.0000 C   0  0  0  0  0  0  0  0  0  0  0  0
    6.4666   -0.5767    0.0000 C   0  0  0  0  0  0  0  0  0  0  0  0
    8.1986    0.4233    0.0000 C   0  0  0  0  0  0  0  0  0  0  0  0
    8.1986   -0.5767    0.0000 C   0  0  0  0  0  0  0  0  0  0  0  0
    9.7284   -0.0767    0.0000 C   0  0  0  0  0  0  0  0  0  0  0  0
    9.1448    0.7280    0.0000 C   0  0  0  0  0  0  0  0  0  0  0  0
   10.7284   -0.0767    0.0000 C   0  0  0  0  0  0  0  0  0  0  0  0
   11.2284   -0.9428    0.0000 C   0  0  0  0  0  0  0  0  0  0  0  0
   12.2284   -0.9428    0.0000 C   0  0  0  0  0  0  0  0  0  0  0  0
   12.7284   -1.8088    0.0000 C   0  0  0  0  0  0  0  0  0  0  0  0
   13.7284   -1.8088    0.0000 C   0  0  0  0  0  0  0  0  0  0  0  0
   12.2284   -2.6748    0.0000 C   0  0  0  0  0  0  0  0  0  0  0  0
   14.2284   -2.6748    0.0000 C   0  0  0  0  0  0  0  0  0  0  0  0
   12.7284   -3.5408    0.0000 C   0  0  0  0  0  0  0  0  0  0  0  0
   13.7284   -3.5408    0.0000 C   0  0  0  0  0  0  0  0  0  0  0  0
    4.9080    2.6075    0.0000 H   0  0  0  0  0  0  0  0  0  0  0  0
    5.5681    0.3041    0.0000 H   0  0  0  0  0  0  0  0  0  0  0  0
    6.1160    1.9178    0.0000 H   0  0  0  0  0  0  0  0  0  0  0  0
    5.5608    2.5344    0.0000 H   0  0  0  0  0  0  0  0  0  0  0  0
    3.7957    0.6809    0.0000 H   0  0  0  0  0  0  0  0  0  0  0  0
    3.0666    1.7736    0.0000 H   0  0  0  0  0  0  0  0  0  0  0  0
    2.4218    1.3051    0.0000 H   0  0  0  0  0  0  0  0  0  0  0  0
    7.3326    1.5433    0.0000 H   0  0  0  0  0  0  0  0  0  0  0  0
    4.4756    3.5408    0.0000 H   0  0  0  0  0  0  0  0  0  0  0  0
    9.3374    1.3173    0.0000 H   0  0  0  0  0  0  0  0  0  0  0  0
   11.3111    0.1353    0.0000 H   0  0  0  0  0  0  0  0  0  0  0  0
   10.6208    0.5338    0.0000 H   0  0  0  0  0  0  0  0  0  0  0  0
   10.6458   -1.1548    0.0000 H   0  0  0  0  0  0  0  0  0  0  0  0
   11.3361   -1.5533    0.0000 H   0  0  0  0  0  0  0  0  0  0  0  0
    2.0000    0.1768    0.0000 H   0  0  0  0  0  0  0  0  0  0  0  0
   12.8111   -0.7307    0.0000 H   0  0  0  0  0  0  0  0  0  0  0  0
   12.1208   -0.3322    0.0000 H   0  0  0  0  0  0  0  0  0  0  0  0
   14.0384   -1.2718    0.0000 H   0  0  0  0  0  0  0  0  0  0  0  0
   11.6084   -2.6748    0.0000 H   0  0  0  0  0  0  0  0  0  0  0  0
   14.8484   -2.6748    0.0000 H   0  0  0  0  0  0  0  0  0  0  0  0
   12.4184   -4.0778    0.0000 H   0  0  0  0  0  0  0  0  0  0  0  0
   14.0384   -4.0778    0.0000 H   0  0  0  0  0  0  0  0  0  0  0  0
  1  9  1  0  0  0  0
  1 11  1  0  0  0  0
  8  2  1  1  0  0  0
  2 36  1  0  0  0  0
  3 12  1  0  0  0  0
  3 42  1  0  0  0  0
  4 16  1  0  0  0  0
  4 17  1  0  0  0  0
  5 14  2  0  0  0  0
  9  6  1  6  0  0  0
  6 13  1  0  0  0  0
  6 14  1  0  0  0  0
  7 14  1  0  0  0  0
  7 16  2  0  0  0  0
  8 10  1  0  0  0  0
  8 11  1  0  0  0  0
  8 28  1  0  0  0  0
  9 10  1  0  0  0  0
  9 29  1  0  0  0  0
 10 30  1  0  0  0  0
 10 31  1  0  0  0  0
 11 12  1  6  0  0  0
 11 32  1  0  0  0  0
 12 33  1  0  0  0  0
 12 34  1  0  0  0  0
 13 15  2  0  0  0  0
 13 35  1  0  0  0  0
 15 16  1  0  0  0  0
 15 18  1  0  0  0  0
 17 18  2  0  0  0  0
 17 19  1  0  0  0  0
 18 37  1  0  0  0  0
 19 20  1  0  0  0  0
 19 38  1  0  0  0  0
 19 39  1  0  0  0  0
 20 21  1  0  0  0  0
 20 40  1  0  0  0  0
 20 41  1  0  0  0  0
 21 22  1  0  0  0  0
 21 43  1  0  0  0  0
 21 44  1  0  0  0  0
 22 23  2  0  0  0  0
 22 24  1  0  0  0  0
 23 25  1  0  0  0  0
 23 45  1  0  0  0  0
 24 26  2  0  0  0  0
 24 46  1  0  0  0  0
 25 27  2  0  0  0  0
 25 47  1  0  0  0  0
 26 27  1  0  0  0  0
 26 48  1  0  0  0  0
 27 49  1  0  0  0  0
M  END
> <PUBCHEM_COMPOUND_CID>
501706
> <PUBCHEM_COMPOUND_CANONICALIZED>
1
> <PUBCHEM_CACTVS_COMPLEXITY>
665
> <PUBCHEM_CACTVS_HBOND_ACCEPTOR>
5
> <PUBCHEM_CACTVS_HBOND_DONOR>
2
> <PUBCHEM_CACTVS_ROTATABLE_BOND>
6
> <PUBCHEM_CACTVS_SUBSKEYS>
AAADceB7OAAAAAAAAAAAAAAAAAAAASIAAAAwQAAAAAAAAEABAAAAHgAACAAADBThmAYxAIMABgCoAiBmVAACCAAgIAAIiAAoAJiJNCKAsRCOYAAnxgILqAew8LIOAAAAAAAAAAAAAAAAAAAAAAAAAAAAAA==
> <PUBCHEM_IUPAC_OPENEYE_NAME>
3-[(2R,4S,5R)-4-hydroxy-5-(hydroxymethyl)tetrahydrofuran-2-yl]-6-(3-phenylpropyl)furo[2,3-d]pyrimidin-2-one
> <PUBCHEM_IUPAC_CAS_NAME>
3-[(2R,4S,5R)-4-hydroxy-5-(hydroxymethyl)-2-oxolanyl]-6-(3-phenylpropyl)-2-furo[2,3-d]pyrimidinone
> <PUBCHEM_IUPAC_NAME_MARKUP>
3-[(2<I>R</I>,4<I>S</I>,5<I>R</I>)-4-hydroxy-5-(hydroxymethyl)oxolan-2-yl]-6-(3-phenylpropyl)furo[2,3-d]pyrimidin-2-one
> <PUBCHEM_IUPAC_NAME>
3-[(2R,4S,5R)-4-hydroxy-5-(hydroxymethyl)oxolan-2-yl]-6-(3-phenylpropyl)furo[2,3-d]pyrimidin-2-one
> <PUBCHEM_IUPAC_SYSTEMATIC_NAME>
3-[(2R,4S,5R)-5-(hydroxymethyl)-4-oxidanyl-oxolan-2-yl]-6-(3-phenylpropyl)furo[2,3-d]pyrimidin-2-one
> <PUBCHEM_IUPAC_TRADITIONAL_NAME>
3-[(2R,4S,5R)-4-hydroxy-5-methylol-tetrahydrofuran-2-yl]-6-(3-phenylpropyl)furo[2,3-d]pyrimidin-2-one
> <PUBCHEM_IUPAC_INCHI>
InChI=1S/C20H22N2O5/c23-12-17-16(24)10-18(27-17)22-11-14-9-15(26-19(14)21-20(22)25)8-4-7-13-5-2-1-3-6-13/h1-3,5-6,9,11,16-18,23-24H,4,7-8,10,12H2/t16-,17+,18+/m0/s1
> <PUBCHEM_IUPAC_INCHIKEY>
YBLGJOZWWNDWMP-RCCFBDPRSA-N
> <PUBCHEM_XLOGP3_AA>
2.1
> <PUBCHEM_EXACT_MASS>
370.15287181
> <PUBCHEM_MOLECULAR_FORMULA>
C20H22N2O5
> <PUBCHEM_MOLECULAR_WEIGHT>
370.4
> <PUBCHEM_OPENEYE_CAN_SMILES>
C1C(C(OC1N2C=C3C=C(OC3=NC2=O)CCCC4=CC=CC=C4)CO)O
> <PUBCHEM_OPENEYE_ISO_SMILES>
C1[C@@H]([C@H](O[C@H]1N2C=C3C=C(OC3=NC2=O)CCCC4=CC=CC=C4)CO)O
> <PUBCHEM_CACTVS_TPSA>
91.6
> <PUBCHEM_MONOISOTOPIC_WEIGHT>
370.15287181
> <PUBCHEM_TOTAL_CHARGE>
0
> <PUBCHEM_HEAVY_ATOM_COUNT>
27
> <PUBCHEM_ATOM_DEF_STEREO_COUNT>
3
> <PUBCHEM_ATOM_UDEF_STEREO_COUNT>
0
> <PUBCHEM_BOND_DEF_STEREO_COUNT>
0
> <PUBCHEM_BOND_UDEF_STEREO_COUNT>
0
> <PUBCHEM_ISOTOPIC_ATOM_COUNT>
0
> <PUBCHEM_COMPONENT_COUNT>
1
> <PUBCHEM_CACTVS_TAUTO_COUNT>
-1
> <PUBCHEM_COORDINATE_TYPE>
1
5
255
> <PUBCHEM_BONDANNOTATIONS>
11  12  6
13  15  8
15  16  8
15  18  8
17  18  8
8  2  5
22  23  8
22  24  8
23  25  8
24  26  8
25  27  8
26  27  8
4  16  8
4  17  8
6  13  8
6  14  8
9  6  6
7  14  8
7  16  8
$$$$
