501792
  -OEChem-10302200282D
 91 94  0     1  0  0  0  0  0999 V2000
    7.1962   -0.3730    0.0000 O   0  0  0  0  0  0  0  0  0  0  0  0
    8.9282    1.6270    0.0000 O   0  0  0  0  0  0  0  0  0  0  0  0
    8.9282    2.6270    0.0000 O   0  0  0  0  0  0  0  0  0  0  0  0
    7.1962   -1.3730    0.0000 O   0  0  0  0  0  0  0  0  0  0  0  0
    5.4641   -3.3730    0.0000 O   0  0  0  0  0  0  0  0  0  0  0  0
    8.0622   -4.8730    0.0000 O   0  0  0  0  0  0  0  0  0  0  0  0
    6.3301   -1.8730    0.0000 O   0  0  0  0  0  0  0  0  0  0  0  0
    7.1962    1.6270    0.0000 N   0  0  0  0  0  0  0  0  0  0  0  0
    8.0622    4.1270    0.0000 N   0  0  0  0  0  0  0  0  0  0  0  0
    8.9282   -1.3730    0.0000 N   0  0  0  0  0  0  0  0  0  0  0  0
    7.1962   -3.3730    0.0000 N   0  0  0  0  0  0  0  0  0  0  0  0
    9.7942   -4.8730    0.0000 N   0  0  0  0  0  0  0  0  0  0  0  0
    7.1962    2.6270    0.0000 C   0  0  1  0  0  0  0  0  0  0  0  0
    6.3301    3.1270    0.0000 C   0  0  0  0  0  0  0  0  0  0  0  0
    6.3301    1.1270    0.0000 C   0  0  0  0  0  0  0  0  0  0  0  0
    5.4641    2.6270    0.0000 C   0  0  0  0  0  0  0  0  0  0  0  0
    5.4641    1.6270    0.0000 C   0  0  0  0  0  0  0  0  0  0  0  0
    8.0622    0.1270    0.0000 C   0  0  2  0  0  0  0  0  0  0  0  0
    8.0622    1.1270    0.0000 C   0  0  0  0  0  0  0  0  0  0  0  0
    8.9282   -0.3730    0.0000 C   0  0  2  0  0  0  0  0  0  0  0  0
    8.0622    3.1270    0.0000 C   0  0  0  0  0  0  0  0  0  0  0  0
    8.9282    4.6270    0.0000 C   0  0  0  0  0  0  0  0  0  0  0  0
    9.7942    0.1270    0.0000 C   0  0  0  0  0  0  0  0  0  0  0  0
    4.5702    3.1616    0.0000 C   0  0  0  0  0  0  0  0  0  0  0  0
    4.5702    1.0923    0.0000 C   0  0  0  0  0  0  0  0  0  0  0  0
    3.6641    2.6478    0.0000 C   0  0  0  0  0  0  0  0  0  0  0  0
    3.6641    1.6062    0.0000 C   0  0  0  0  0  0  0  0  0  0  0  0
    9.7942    5.1270    0.0000 C   0  0  0  0  0  0  0  0  0  0  0  0
    8.4282    5.4930    0.0000 C   0  0  0  0  0  0  0  0  0  0  0  0
    9.4282    3.7610    0.0000 C   0  0  0  0  0  0  0  0  0  0  0  0
   10.6603   -0.3730    0.0000 C   0  0  0  0  0  0  0  0  0  0  0  0
    8.0622   -1.8730    0.0000 C   0  0  0  0  0  0  0  0  0  0  0  0
    8.0622   -2.8730    0.0000 C   0  0  2  0  0  0  0  0  0  0  0  0
   10.6603   -1.3730    0.0000 C   0  0  0  0  0  0  0  0  0  0  0  0
   11.5263    0.1270    0.0000 C   0  0  0  0  0  0  0  0  0  0  0  0
    8.9282   -3.3730    0.0000 C   0  0  0  0  0  0  0  0  0  0  0  0
   11.5263   -1.8730    0.0000 C   0  0  0  0  0  0  0  0  0  0  0  0
   12.3923   -0.3730    0.0000 C   0  0  0  0  0  0  0  0  0  0  0  0
   12.3923   -1.3730    0.0000 C   0  0  0  0  0  0  0  0  0  0  0  0
    8.9282   -4.3730    0.0000 C   0  0  0  0  0  0  0  0  0  0  0  0
    6.3301   -2.8730    0.0000 C   0  0  0  0  0  0  0  0  0  0  0  0
    4.5981   -2.8730    0.0000 C   0  0  0  0  0  0  0  0  0  0  0  0
    3.7320   -3.3730    0.0000 C   0  0  0  0  0  0  0  0  0  0  0  0
    2.8660   -2.8730    0.0000 C   0  0  0  0  0  0  0  0  0  0  0  0
    3.7320   -4.3730    0.0000 C   0  0  0  0  0  0  0  0  0  0  0  0
    2.0000   -3.3730    0.0000 C   0  0  0  0  0  0  0  0  0  0  0  0
    2.8660   -4.8730    0.0000 C   0  0  0  0  0  0  0  0  0  0  0  0
    2.0000   -4.3730    0.0000 C   0  0  0  0  0  0  0  0  0  0  0  0
    7.7331    2.3170    0.0000 H   0  0  0  0  0  0  0  0  0  0  0  0
    6.7287    3.6019    0.0000 H   0  0  0  0  0  0  0  0  0  0  0  0
    5.9316    3.6019    0.0000 H   0  0  0  0  0  0  0  0  0  0  0  0
    5.9316    0.6520    0.0000 H   0  0  0  0  0  0  0  0  0  0  0  0
    6.7287    0.6520    0.0000 H   0  0  0  0  0  0  0  0  0  0  0  0
    8.0622   -0.4930    0.0000 H   0  0  0  0  0  0  0  0  0  0  0  0
    9.4651   -0.6830    0.0000 H   0  0  0  0  0  0  0  0  0  0  0  0
    7.5252    4.4370    0.0000 H   0  0  0  0  0  0  0  0  0  0  0  0
   10.1928    0.6019    0.0000 H   0  0  0  0  0  0  0  0  0  0  0  0
    9.3957    0.6019    0.0000 H   0  0  0  0  0  0  0  0  0  0  0  0
    4.5773    3.7816    0.0000 H   0  0  0  0  0  0  0  0  0  0  0  0
    4.5773    0.4724    0.0000 H   0  0  0  0  0  0  0  0  0  0  0  0
    9.4651   -1.6830    0.0000 H   0  0  0  0  0  0  0  0  0  0  0  0
    3.1284    2.9599    0.0000 H   0  0  0  0  0  0  0  0  0  0  0  0
    3.1284    1.2941    0.0000 H   0  0  0  0  0  0  0  0  0  0  0  0
   10.1042    4.5900    0.0000 H   0  0  0  0  0  0  0  0  0  0  0  0
   10.3312    5.4370    0.0000 H   0  0  0  0  0  0  0  0  0  0  0  0
    9.4842    5.6639    0.0000 H   0  0  0  0  0  0  0  0  0  0  0  0
    8.9651    5.8030    0.0000 H   0  0  0  0  0  0  0  0  0  0  0  0
    8.1182    6.0300    0.0000 H   0  0  0  0  0  0  0  0  0  0  0  0
    7.8913    5.1830    0.0000 H   0  0  0  0  0  0  0  0  0  0  0  0
    8.8913    3.4510    0.0000 H   0  0  0  0  0  0  0  0  0  0  0  0
    9.7382    3.2240    0.0000 H   0  0  0  0  0  0  0  0  0  0  0  0
    9.9651    4.0710    0.0000 H   0  0  0  0  0  0  0  0  0  0  0  0
    6.6592   -0.0630    0.0000 H   0  0  0  0  0  0  0  0  0  0  0  0
    8.0622   -3.4930    0.0000 H   0  0  0  0  0  0  0  0  0  0  0  0
   10.1233   -1.6830    0.0000 H   0  0  0  0  0  0  0  0  0  0  0  0
   11.5263    0.7470    0.0000 H   0  0  0  0  0  0  0  0  0  0  0  0
    9.5388   -3.4807    0.0000 H   0  0  0  0  0  0  0  0  0  0  0  0
    9.1403   -2.7904    0.0000 H   0  0  0  0  0  0  0  0  0  0  0  0
    7.1962   -3.9930    0.0000 H   0  0  0  0  0  0  0  0  0  0  0  0
   11.5263   -2.4930    0.0000 H   0  0  0  0  0  0  0  0  0  0  0  0
   12.9292   -0.0630    0.0000 H   0  0  0  0  0  0  0  0  0  0  0  0
   12.9292   -1.6830    0.0000 H   0  0  0  0  0  0  0  0  0  0  0  0
    9.7942   -5.4930    0.0000 H   0  0  0  0  0  0  0  0  0  0  0  0
   10.3312   -4.5630    0.0000 H   0  0  0  0  0  0  0  0  0  0  0  0
    4.9966   -2.3981    0.0000 H   0  0  0  0  0  0  0  0  0  0  0  0
    4.1996   -2.3981    0.0000 H   0  0  0  0  0  0  0  0  0  0  0  0
    2.8660   -2.2530    0.0000 H   0  0  0  0  0  0  0  0  0  0  0  0
    4.2690   -4.6830    0.0000 H   0  0  0  0  0  0  0  0  0  0  0  0
    1.4631   -3.0630    0.0000 H   0  0  0  0  0  0  0  0  0  0  0  0
    2.8660   -5.4930    0.0000 H   0  0  0  0  0  0  0  0  0  0  0  0
    1.4631   -4.6830    0.0000 H   0  0  0  0  0  0  0  0  0  0  0  0
 18  1  1  6  0  0  0
  1 73  1  0  0  0  0
  2 19  2  0  0  0  0
  3 21  2  0  0  0  0
  4 32  2  0  0  0  0
  5 41  1  0  0  0  0
  5 42  1  0  0  0  0
  6 40  2  0  0  0  0
  7 41  2  0  0  0  0
  8 13  1  0  0  0  0
  8 15  1  0  0  0  0
  8 19  1  0  0  0  0
  9 21  1  0  0  0  0
  9 22  1  0  0  0  0
  9 56  1  0  0  0  0
 20 10  1  6  0  0  0
 10 32  1  0  0  0  0
 10 61  1  0  0  0  0
 33 11  1  6  0  0  0
 11 41  1  0  0  0  0
 11 79  1  0  0  0  0
 12 40  1  0  0  0  0
 12 83  1  0  0  0  0
 12 84  1  0  0  0  0
 13 14  1  0  0  0  0
 13 21  1  1  0  0  0
 13 49  1  0  0  0  0
 14 16  1  0  0  0  0
 14 50  1  0  0  0  0
 14 51  1  0  0  0  0
 15 17  1  0  0  0  0
 15 52  1  0  0  0  0
 15 53  1  0  0  0  0
 16 17  1  0  0  0  0
 16 24  2  0  0  0  0
 17 25  2  0  0  0  0
 18 19  1  0  0  0  0
 18 20  1  0  0  0  0
 18 54  1  0  0  0  0
 20 23  1  0  0  0  0
 20 55  1  0  0  0  0
 22 28  1  0  0  0  0
 22 29  1  0  0  0  0
 22 30  1  0  0  0  0
 23 31  1  0  0  0  0
 23 57  1  0  0  0  0
 23 58  1  0  0  0  0
 24 26  1  0  0  0  0
 24 59  1  0  0  0  0
 25 27  1  0  0  0  0
 25 60  1  0  0  0  0
 26 27  2  0  0  0  0
 26 62  1  0  0  0  0
 27 63  1  0  0  0  0
 28 64  1  0  0  0  0
 28 65  1  0  0  0  0
 28 66  1  0  0  0  0
 29 67  1  0  0  0  0
 29 68  1  0  0  0  0
 29 69  1  0  0  0  0
 30 70  1  0  0  0  0
 30 71  1  0  0  0  0
 30 72  1  0  0  0  0
 31 34  2  0  0  0  0
 31 35  1  0  0  0  0
 32 33  1  0  0  0  0
 33 36  1  0  0  0  0
 33 74  1  0  0  0  0
 34 37  1  0  0  0  0
 34 75  1  0  0  0  0
 35 38  2  0  0  0  0
 35 76  1  0  0  0  0
 36 40  1  0  0  0  0
 36 77  1  0  0  0  0
 36 78  1  0  0  0  0
 37 39  2  0  0  0  0
 37 80  1  0  0  0  0
 38 39  1  0  0  0  0
 38 81  1  0  0  0  0
 39 82  1  0  0  0  0
 42 43  1  0  0  0  0
 42 85  1  0  0  0  0
 42 86  1  0  0  0  0
 43 44  2  0  0  0  0
 43 45  1  0  0  0  0
 44 46  1  0  0  0  0
 44 87  1  0  0  0  0
 45 47  2  0  0  0  0
 45 88  1  0  0  0  0
 46 48  2  0  0  0  0
 46 89  1  0  0  0  0
 47 48  1  0  0  0  0
 47 90  1  0  0  0  0
 48 91  1  0  0  0  0
M  END
> <PUBCHEM_COMPOUND_CID>
501792
> <PUBCHEM_COMPOUND_CANONICALIZED>
1
> <PUBCHEM_CACTVS_COMPLEXITY>
1110
> <PUBCHEM_CACTVS_HBOND_ACCEPTOR>
7
> <PUBCHEM_CACTVS_HBOND_DONOR>
5
> <PUBCHEM_CACTVS_ROTATABLE_BOND>
14
> <PUBCHEM_CACTVS_SUBSKEYS>
AAADcfB/uAAAAAAAAAAAAAAAAAAAAAAAAAA8YMEAAAAAAACxUAAAHgAQCAAADLzhmAYyCIPABgCIAiFSGAKCAAAgAAAIiIHIDIkKdjqA8TmccAhk1gGYqAedyKCOgAAAAAAQAAAAAAAAACAAAAAAAAAAAA==
> <PUBCHEM_IUPAC_OPENEYE_NAME>
benzyl N-[(1S)-3-amino-1-[[(1S,2S)-1-benzyl-3-[(3S)-3-(tert-butylcarbamoyl)-3,4-dihydro-1H-isoquinolin-2-yl]-2-hydroxy-3-oxo-propyl]carbamoyl]-3-oxo-propyl]carbamate
> <PUBCHEM_IUPAC_CAS_NAME>
N-[(2S)-4-amino-1-[[(2S,3S)-4-[(3S)-3-[(tert-butylamino)-oxomethyl]-3,4-dihydro-1H-isoquinolin-2-yl]-3-hydroxy-4-oxo-1-phenylbutan-2-yl]amino]-1,4-dioxobutan-2-yl]carbamic acid (phenylmethyl) ester
> <PUBCHEM_IUPAC_NAME_MARKUP>
benzyl <I>N</I>-[(2<I>S</I>)-4-amino-1-[[(2<I>S</I>,3<I>S</I>)-4-[(3<I>S</I>)-3-(<I>tert</I>-butylcarbamoyl)-3,4-dihydro-1<I>H</I>-isoquinolin-2-yl]-3-hydroxy-4-oxo-1-phenylbutan-2-yl]amino]-1,4-dioxobutan-2-yl]carbamate
> <PUBCHEM_IUPAC_NAME>
benzyl N-[(2S)-4-amino-1-[[(2S,3S)-4-[(3S)-3-(tert-butylcarbamoyl)-3,4-dihydro-1H-isoquinolin-2-yl]-3-hydroxy-4-oxo-1-phenylbutan-2-yl]amino]-1,4-dioxobutan-2-yl]carbamate
> <PUBCHEM_IUPAC_SYSTEMATIC_NAME>
(phenylmethyl) N-[(2S)-4-azanyl-1-[[(2S,3S)-4-[(3S)-3-(tert-butylcarbamoyl)-3,4-dihydro-1H-isoquinolin-2-yl]-3-oxidanyl-4-oxidanylidene-1-phenyl-butan-2-yl]amino]-1,4-bis(oxidanylidene)butan-2-yl]carbamate
> <PUBCHEM_IUPAC_TRADITIONAL_NAME>
N-[(1S)-3-amino-1-[[(1S,2S)-1-benzyl-3-[(3S)-3-(tert-butylcarbamoyl)-3,4-dihydro-1H-isoquinolin-2-yl]-2-hydroxy-3-keto-propyl]carbamoyl]-3-keto-propyl]carbamic acid benzyl ester
> <PUBCHEM_IUPAC_INCHI>
InChI=1S/C36H43N5O7/c1-36(2,3)40-33(45)29-19-25-16-10-11-17-26(25)21-41(29)34(46)31(43)27(18-23-12-6-4-7-13-23)38-32(44)28(20-30(37)42)39-35(47)48-22-24-14-8-5-9-15-24/h4-17,27-29,31,43H,18-22H2,1-3H3,(H2,37,42)(H,38,44)(H,39,47)(H,40,45)/t27-,28-,29-,31-/m0/s1
> <PUBCHEM_IUPAC_INCHIKEY>
HTWUTJHQUZHMMN-KECWCRPSSA-N
> <PUBCHEM_XLOGP3_AA>
2.5
> <PUBCHEM_EXACT_MASS>
657.31624873
> <PUBCHEM_MOLECULAR_FORMULA>
C36H43N5O7
> <PUBCHEM_MOLECULAR_WEIGHT>
657.8
> <PUBCHEM_OPENEYE_CAN_SMILES>
CC(C)(C)NC(=O)C1CC2=CC=CC=C2CN1C(=O)C(C(CC3=CC=CC=C3)NC(=O)C(CC(=O)N)NC(=O)OCC4=CC=CC=C4)O
> <PUBCHEM_OPENEYE_ISO_SMILES>
CC(C)(C)NC(=O)[C@@H]1CC2=CC=CC=C2CN1C(=O)[C@H]([C@H](CC3=CC=CC=C3)NC(=O)[C@H](CC(=O)N)NC(=O)OCC4=CC=CC=C4)O
> <PUBCHEM_CACTVS_TPSA>
180
> <PUBCHEM_MONOISOTOPIC_WEIGHT>
657.31624873
> <PUBCHEM_TOTAL_CHARGE>
0
> <PUBCHEM_HEAVY_ATOM_COUNT>
48
> <PUBCHEM_ATOM_DEF_STEREO_COUNT>
4
> <PUBCHEM_ATOM_UDEF_STEREO_COUNT>
0
> <PUBCHEM_BOND_DEF_STEREO_COUNT>
0
> <PUBCHEM_BOND_UDEF_STEREO_COUNT>
0
> <PUBCHEM_ISOTOPIC_ATOM_COUNT>
0
> <PUBCHEM_COMPONENT_COUNT>
1
> <PUBCHEM_CACTVS_TAUTO_COUNT>
-1
> <PUBCHEM_COORDINATE_TYPE>
1
5
255
> <PUBCHEM_BONDANNOTATIONS>
18  1  6
20  10  6
33  11  6
13  21  5
16  17  8
16  24  8
17  25  8
24  26  8
25  27  8
26  27  8
31  34  8
31  35  8
34  37  8
35  38  8
37  39  8
38  39  8
43  44  8
43  45  8
44  46  8
45  47  8
46  48  8
47  48  8
$$$$
