501842
  -OEChem-10302200282D
100102  0     1  0  0  0  0  0999 V2000
    9.1448   -4.9524    0.0000 S   0  0  0  0  0  0  0  0  0  0  0  0
    2.8660   -0.7500    0.0000 S   0  0  0  0  0  0  0  0  0  0  0  0
    8.4405   -1.6960    0.0000 O   0  0  0  0  0  0  0  0  0  0  0  0
    6.3301   -4.7500    0.0000 O   0  0  0  0  0  0  0  0  0  0  0  0
    7.1962   -2.2500    0.0000 O   0  0  0  0  0  0  0  0  0  0  0  0
    3.7320   -2.2500    0.0000 O   0  0  0  0  0  0  0  0  0  0  0  0
    2.0000   -1.2500    0.0000 O   0  0  0  0  0  0  0  0  0  0  0  0
    3.3660   -1.6160    0.0000 O   0  0  0  0  0  0  0  0  0  0  0  0
    4.5981    1.2500    0.0000 O   0  0  0  0  0  0  0  0  0  0  0  0
    6.3301    2.2500    0.0000 O   0  0  0  0  0  0  0  0  0  0  0  0
    8.0622    5.2500    0.0000 O   0  0  0  0  0  0  0  0  0  0  0  0
    8.0622   -3.7500    0.0000 N   0  0  0  0  0  0  0  0  0  0  0  0
   10.1347   -2.0561    0.0000 N   0  0  0  0  0  0  0  0  0  0  0  0
    5.4641   -2.2500    0.0000 N   0  0  0  0  0  0  0  0  0  0  0  0
    5.4641   -0.2500    0.0000 N   0  0  0  0  0  0  0  0  0  0  0  0
    9.6448   -4.0864    0.0000 C   0  0  0  0  0  0  0  0  0  0  0  0
    8.9757   -3.3433    0.0000 C   0  0  1  0  0  0  0  0  0  0  0  0
    8.1667   -4.7445    0.0000 C   0  0  0  0  0  0  0  0  0  0  0  0
   10.5109   -4.5864    0.0000 C   0  0  0  0  0  0  0  0  0  0  0  0
   10.3880   -3.4173    0.0000 C   0  0  0  0  0  0  0  0  0  0  0  0
    9.1836   -2.3651    0.0000 C   0  0  0  0  0  0  0  0  0  0  0  0
    7.1962   -3.2500    0.0000 C   0  0  0  0  0  0  0  0  0  0  0  0
    6.3301   -3.7500    0.0000 C   0  0  2  0  0  0  0  0  0  0  0  0
    5.4641   -3.2500    0.0000 C   0  0  2  0  0  0  0  0  0  0  0  0
   10.3426   -1.0780    0.0000 C   0  0  0  0  0  0  0  0  0  0  0  0
    4.5981   -3.7500    0.0000 C   0  0  0  0  0  0  0  0  0  0  0  0
   10.5505   -0.0998    0.0000 C   0  0  0  0  0  0  0  0  0  0  0  0
   11.3208   -1.2859    0.0000 C   0  0  0  0  0  0  0  0  0  0  0  0
    9.3645   -0.8700    0.0000 C   0  0  0  0  0  0  0  0  0  0  0  0
    4.5981   -4.7500    0.0000 C   0  0  0  0  0  0  0  0  0  0  0  0
    4.5981   -1.7500    0.0000 C   0  0  0  0  0  0  0  0  0  0  0  0
    4.5981   -0.7500    0.0000 C   0  0  2  0  0  0  0  0  0  0  0  0
    3.7320   -0.2500    0.0000 C   0  0  0  0  0  0  0  0  0  0  0  0
    5.4641   -5.2500    0.0000 C   0  0  0  0  0  0  0  0  0  0  0  0
    3.7320   -5.2500    0.0000 C   0  0  0  0  0  0  0  0  0  0  0  0
    5.4641   -6.2500    0.0000 C   0  0  0  0  0  0  0  0  0  0  0  0
    3.7320   -6.2500    0.0000 C   0  0  0  0  0  0  0  0  0  0  0  0
    4.5981   -6.7500    0.0000 C   0  0  0  0  0  0  0  0  0  0  0  0
    2.3660    0.1160    0.0000 C   0  0  0  0  0  0  0  0  0  0  0  0
    5.4641    0.7500    0.0000 C   0  0  0  0  0  0  0  0  0  0  0  0
    6.3301    1.2500    0.0000 C   0  0  0  0  0  0  0  0  0  0  0  0
    7.1962    2.7500    0.0000 C   0  0  0  0  0  0  0  0  0  0  0  0
    7.1962    3.7500    0.0000 C   0  0  0  0  0  0  0  0  0  0  0  0
    8.0622    2.2500    0.0000 C   0  0  0  0  0  0  0  0  0  0  0  0
    8.0622    4.2500    0.0000 C   0  0  0  0  0  0  0  0  0  0  0  0
    8.9282    2.7500    0.0000 C   0  0  0  0  0  0  0  0  0  0  0  0
    8.9282    3.7500    0.0000 C   0  0  0  0  0  0  0  0  0  0  0  0
    8.9282    5.7500    0.0000 C   0  0  0  0  0  0  0  0  0  0  0  0
    8.9282    6.7500    0.0000 C   0  0  0  0  0  0  0  0  0  0  0  0
    9.7942    5.2500    0.0000 C   0  0  0  0  0  0  0  0  0  0  0  0
    8.4939   -2.9531    0.0000 H   0  0  0  0  0  0  0  0  0  0  0  0
    7.5467   -4.7445    0.0000 H   0  0  0  0  0  0  0  0  0  0  0  0
    8.1019   -5.3611    0.0000 H   0  0  0  0  0  0  0  0  0  0  0  0
   10.2009   -5.1233    0.0000 H   0  0  0  0  0  0  0  0  0  0  0  0
   11.0478   -4.8964    0.0000 H   0  0  0  0  0  0  0  0  0  0  0  0
   10.8209   -4.0495    0.0000 H   0  0  0  0  0  0  0  0  0  0  0  0
   10.8029   -3.8780    0.0000 H   0  0  0  0  0  0  0  0  0  0  0  0
   10.8487   -3.0024    0.0000 H   0  0  0  0  0  0  0  0  0  0  0  0
    9.9731   -2.9565    0.0000 H   0  0  0  0  0  0  0  0  0  0  0  0
    6.8671   -4.0600    0.0000 H   0  0  0  0  0  0  0  0  0  0  0  0
    6.0010   -2.9400    0.0000 H   0  0  0  0  0  0  0  0  0  0  0  0
   10.5954   -2.4710    0.0000 H   0  0  0  0  0  0  0  0  0  0  0  0
    4.3860   -3.1674    0.0000 H   0  0  0  0  0  0  0  0  0  0  0  0
    3.9875   -3.8577    0.0000 H   0  0  0  0  0  0  0  0  0  0  0  0
    6.0010   -1.9400    0.0000 H   0  0  0  0  0  0  0  0  0  0  0  0
   11.1570   -0.2287    0.0000 H   0  0  0  0  0  0  0  0  0  0  0  0
   10.6794    0.5066    0.0000 H   0  0  0  0  0  0  0  0  0  0  0  0
    9.9441    0.0291    0.0000 H   0  0  0  0  0  0  0  0  0  0  0  0
   11.1918   -1.8923    0.0000 H   0  0  0  0  0  0  0  0  0  0  0  0
   11.9272   -1.4148    0.0000 H   0  0  0  0  0  0  0  0  0  0  0  0
   11.4497   -0.6794    0.0000 H   0  0  0  0  0  0  0  0  0  0  0  0
    9.4934   -0.2636    0.0000 H   0  0  0  0  0  0  0  0  0  0  0  0
    8.7580   -0.7411    0.0000 H   0  0  0  0  0  0  0  0  0  0  0  0
    9.2356   -1.4765    0.0000 H   0  0  0  0  0  0  0  0  0  0  0  0
    6.8671   -5.0600    0.0000 H   0  0  0  0  0  0  0  0  0  0  0  0
    4.5981   -0.1300    0.0000 H   0  0  0  0  0  0  0  0  0  0  0  0
    4.1306    0.2249    0.0000 H   0  0  0  0  0  0  0  0  0  0  0  0
    3.3335    0.2249    0.0000 H   0  0  0  0  0  0  0  0  0  0  0  0
    6.0010   -4.9400    0.0000 H   0  0  0  0  0  0  0  0  0  0  0  0
    3.1951   -4.9400    0.0000 H   0  0  0  0  0  0  0  0  0  0  0  0
    6.0010   -0.5600    0.0000 H   0  0  0  0  0  0  0  0  0  0  0  0
    6.0010   -6.5600    0.0000 H   0  0  0  0  0  0  0  0  0  0  0  0
    3.1951   -6.5600    0.0000 H   0  0  0  0  0  0  0  0  0  0  0  0
    4.5981   -7.3700    0.0000 H   0  0  0  0  0  0  0  0  0  0  0  0
    2.9030    0.4260    0.0000 H   0  0  0  0  0  0  0  0  0  0  0  0
    2.0560    0.6530    0.0000 H   0  0  0  0  0  0  0  0  0  0  0  0
    1.8291   -0.1940    0.0000 H   0  0  0  0  0  0  0  0  0  0  0  0
    6.5422    0.6674    0.0000 H   0  0  0  0  0  0  0  0  0  0  0  0
    6.9407    1.3577    0.0000 H   0  0  0  0  0  0  0  0  0  0  0  0
    6.6592    4.0600    0.0000 H   0  0  0  0  0  0  0  0  0  0  0  0
    8.0622    1.6300    0.0000 H   0  0  0  0  0  0  0  0  0  0  0  0
    9.4651    2.4400    0.0000 H   0  0  0  0  0  0  0  0  0  0  0  0
    9.4651    4.0600    0.0000 H   0  0  0  0  0  0  0  0  0  0  0  0
    8.9282    5.1300    0.0000 H   0  0  0  0  0  0  0  0  0  0  0  0
    9.5482    6.7500    0.0000 H   0  0  0  0  0  0  0  0  0  0  0  0
    8.9282    7.3700    0.0000 H   0  0  0  0  0  0  0  0  0  0  0  0
    8.3082    6.7500    0.0000 H   0  0  0  0  0  0  0  0  0  0  0  0
    9.4842    4.7131    0.0000 H   0  0  0  0  0  0  0  0  0  0  0  0
   10.3312    4.9400    0.0000 H   0  0  0  0  0  0  0  0  0  0  0  0
   10.1042    5.7869    0.0000 H   0  0  0  0  0  0  0  0  0  0  0  0
  1 16  1  0  0  0  0
  1 18  1  0  0  0  0
  2  7  2  0  0  0  0
  2  8  2  0  0  0  0
  2 33  1  0  0  0  0
  2 39  1  0  0  0  0
  3 21  2  0  0  0  0
 23  4  1  1  0  0  0
  4 75  1  0  0  0  0
  5 22  2  0  0  0  0
  6 31  2  0  0  0  0
  9 40  2  0  0  0  0
 10 41  1  0  0  0  0
 10 42  1  0  0  0  0
 11 45  1  0  0  0  0
 11 48  1  0  0  0  0
 12 17  1  0  0  0  0
 12 18  1  0  0  0  0
 12 22  1  0  0  0  0
 13 21  1  0  0  0  0
 13 25  1  0  0  0  0
 13 62  1  0  0  0  0
 24 14  1  6  0  0  0
 14 31  1  0  0  0  0
 14 65  1  0  0  0  0
 32 15  1  6  0  0  0
 15 40  1  0  0  0  0
 15 81  1  0  0  0  0
 16 17  1  0  0  0  0
 16 19  1  0  0  0  0
 16 20  1  0  0  0  0
 17 21  1  6  0  0  0
 17 51  1  0  0  0  0
 18 52  1  0  0  0  0
 18 53  1  0  0  0  0
 19 54  1  0  0  0  0
 19 55  1  0  0  0  0
 19 56  1  0  0  0  0
 20 57  1  0  0  0  0
 20 58  1  0  0  0  0
 20 59  1  0  0  0  0
 22 23  1  0  0  0  0
 23 24  1  0  0  0  0
 23 60  1  0  0  0  0
 24 26  1  0  0  0  0
 24 61  1  0  0  0  0
 25 27  1  0  0  0  0
 25 28  1  0  0  0  0
 25 29  1  0  0  0  0
 26 30  1  0  0  0  0
 26 63  1  0  0  0  0
 26 64  1  0  0  0  0
 27 66  1  0  0  0  0
 27 67  1  0  0  0  0
 27 68  1  0  0  0  0
 28 69  1  0  0  0  0
 28 70  1  0  0  0  0
 28 71  1  0  0  0  0
 29 72  1  0  0  0  0
 29 73  1  0  0  0  0
 29 74  1  0  0  0  0
 30 34  2  0  0  0  0
 30 35  1  0  0  0  0
 31 32  1  0  0  0  0
 32 33  1  0  0  0  0
 32 76  1  0  0  0  0
 33 77  1  0  0  0  0
 33 78  1  0  0  0  0
 34 36  1  0  0  0  0
 34 79  1  0  0  0  0
 35 37  2  0  0  0  0
 35 80  1  0  0  0  0
 36 38  2  0  0  0  0
 36 82  1  0  0  0  0
 37 38  1  0  0  0  0
 37 83  1  0  0  0  0
 38 84  1  0  0  0  0
 39 85  1  0  0  0  0
 39 86  1  0  0  0  0
 39 87  1  0  0  0  0
 40 41  1  0  0  0  0
 41 88  1  0  0  0  0
 41 89  1  0  0  0  0
 42 43  2  0  0  0  0
 42 44  1  0  0  0  0
 43 45  1  0  0  0  0
 43 90  1  0  0  0  0
 44 46  2  0  0  0  0
 44 91  1  0  0  0  0
 45 47  2  0  0  0  0
 46 47  1  0  0  0  0
 46 92  1  0  0  0  0
 47 93  1  0  0  0  0
 48 49  1  0  0  0  0
 48 50  1  0  0  0  0
 48 94  1  0  0  0  0
 49 95  1  0  0  0  0
 49 96  1  0  0  0  0
 49 97  1  0  0  0  0
 50 98  1  0  0  0  0
 50 99  1  0  0  0  0
 50100  1  0  0  0  0
M  END
> <PUBCHEM_COMPOUND_CID>
501842
> <PUBCHEM_COMPOUND_CANONICALIZED>
1
> <PUBCHEM_CACTVS_COMPLEXITY>
1280
> <PUBCHEM_CACTVS_HBOND_ACCEPTOR>
10
> <PUBCHEM_CACTVS_HBOND_DONOR>
4
> <PUBCHEM_CACTVS_ROTATABLE_BOND>
16
> <PUBCHEM_CACTVS_SUBSKEYS>
AAADcfB/vABgAAAAAAAAAAAAAAAAAWAAAAAwYAAAAAAAAAABQAAAHgQQCAAADLzl2AayBoPABgqIAiFSEHJCCABgIBAIiIHOCIgOdzqk8T+XeCCl1hWYqAeY6KyOAAAACAAAAAAAAAAQAAAAAAAAAAAAAA==
> <PUBCHEM_IUPAC_OPENEYE_NAME>
(4R)-N-tert-butyl-3-[(2S,3S)-2-hydroxy-3-[[(2R)-2-[[2-(3-isopropoxyphenoxy)acetyl]amino]-3-methylsulfonyl-propanoyl]amino]-4-phenyl-butanoyl]-5,5-dimethyl-thiazolidine-4-carboxamide
> <PUBCHEM_IUPAC_CAS_NAME>
(4R)-N-tert-butyl-3-[(2S,3S)-2-hydroxy-3-[[(2R)-3-methylsulfonyl-1-oxo-2-[[1-oxo-2-(3-propan-2-yloxyphenoxy)ethyl]amino]propyl]amino]-1-oxo-4-phenylbutyl]-5,5-dimethyl-4-thiazolidinecarboxamide
> <PUBCHEM_IUPAC_NAME_MARKUP>
(4<I>R</I>)-<I>N</I>-<I>tert</I>-butyl-3-[(2<I>S</I>,3<I>S</I>)-2-hydroxy-3-[[(2<I>R</I>)-3-methylsulfonyl-2-[[2-(3-propan-2-yloxyphenoxy)acetyl]amino]propanoyl]amino]-4-phenylbutanoyl]-5,5-dimethyl-1,3-thiazolidine-4-carboxamide
> <PUBCHEM_IUPAC_NAME>
(4R)-N-tert-butyl-3-[(2S,3S)-2-hydroxy-3-[[(2R)-3-methylsulfonyl-2-[[2-(3-propan-2-yloxyphenoxy)acetyl]amino]propanoyl]amino]-4-phenylbutanoyl]-5,5-dimethyl-1,3-thiazolidine-4-carboxamide
> <PUBCHEM_IUPAC_SYSTEMATIC_NAME>
(4R)-N-tert-butyl-5,5-dimethyl-3-[(2S,3S)-3-[[(2R)-3-methylsulfonyl-2-[2-(3-propan-2-yloxyphenoxy)ethanoylamino]propanoyl]amino]-2-oxidanyl-4-phenyl-butanoyl]-1,3-thiazolidine-4-carboxamide
> <PUBCHEM_IUPAC_TRADITIONAL_NAME>
(4R)-N-tert-butyl-3-[(2S,3S)-2-hydroxy-3-[[(2R)-2-[[2-(3-isopropoxyphenoxy)acetyl]amino]-3-mesyl-propanoyl]amino]-4-phenyl-butanoyl]-5,5-dimethyl-thiazolidine-4-carboxamide
> <PUBCHEM_IUPAC_INCHI>
InChI=1S/C35H50N4O9S2/c1-22(2)48-25-16-12-15-24(18-25)47-19-28(40)36-27(20-50(8,45)46)31(42)37-26(17-23-13-10-9-11-14-23)29(41)33(44)39-21-49-35(6,7)30(39)32(43)38-34(3,4)5/h9-16,18,22,26-27,29-30,41H,17,19-21H2,1-8H3,(H,36,40)(H,37,42)(H,38,43)/t26-,27-,29-,30+/m0/s1
> <PUBCHEM_IUPAC_INCHIKEY>
SQXIIEZNOYEERT-ZSEJKAPFSA-N
> <PUBCHEM_XLOGP3_AA>
3.2
> <PUBCHEM_EXACT_MASS>
734.30192153
> <PUBCHEM_MOLECULAR_FORMULA>
C35H50N4O9S2
> <PUBCHEM_MOLECULAR_WEIGHT>
734.9
> <PUBCHEM_OPENEYE_CAN_SMILES>
CC(C)OC1=CC=CC(=C1)OCC(=O)NC(CS(=O)(=O)C)C(=O)NC(CC2=CC=CC=C2)C(C(=O)N3CSC(C3C(=O)NC(C)(C)C)(C)C)O
> <PUBCHEM_OPENEYE_ISO_SMILES>
CC(C)OC1=CC=CC(=C1)OCC(=O)N[C@@H](CS(=O)(=O)C)C(=O)N[C@@H](CC2=CC=CC=C2)[C@@H](C(=O)N3CSC([C@H]3C(=O)NC(C)(C)C)(C)C)O
> <PUBCHEM_CACTVS_TPSA>
214
> <PUBCHEM_MONOISOTOPIC_WEIGHT>
734.30192153
> <PUBCHEM_TOTAL_CHARGE>
0
> <PUBCHEM_HEAVY_ATOM_COUNT>
50
> <PUBCHEM_ATOM_DEF_STEREO_COUNT>
4
> <PUBCHEM_ATOM_UDEF_STEREO_COUNT>
0
> <PUBCHEM_BOND_DEF_STEREO_COUNT>
0
> <PUBCHEM_BOND_UDEF_STEREO_COUNT>
0
> <PUBCHEM_ISOTOPIC_ATOM_COUNT>
0
> <PUBCHEM_COMPONENT_COUNT>
1
> <PUBCHEM_CACTVS_TAUTO_COUNT>
-1
> <PUBCHEM_COORDINATE_TYPE>
1
5
255
> <PUBCHEM_BONDANNOTATIONS>
24  14  6
32  15  6
17  21  6
30  34  8
30  35  8
34  36  8
35  37  8
36  38  8
37  38  8
23  4  5
42  43  8
42  44  8
43  45  8
44  46  8
45  47  8
46  47  8
$$$$
