501816
  -OEChem-10302200282D
 97100  0     1  0  0  0  0  0999 V2000
    3.0926    0.2283    0.0000 S   0  0  0  0  0  0  0  0  0  0  0  0
    9.8715   -3.1081    0.0000 S   0  0  0  0  0  0  0  0  0  0  0  0
    4.6753   -2.1081    0.0000 O   0  0  0  0  0  0  0  0  0  0  0  0
    6.2650    1.2466    0.0000 O   0  0  0  0  0  0  0  0  0  0  0  0
    6.4074   -0.1081    0.0000 O   0  0  0  0  0  0  0  0  0  0  0  0
    2.4608    2.4826    0.0000 O   0  0  0  0  0  0  0  0  0  0  0  0
    8.1394   -3.1081    0.0000 O   0  0  0  0  0  0  0  0  0  0  0  0
    9.8715   -4.1081    0.0000 O   0  0  0  0  0  0  0  0  0  0  0  0
    8.8715   -3.1081    0.0000 O   0  0  0  0  0  0  0  0  0  0  0  0
   10.7375    1.3919    0.0000 O   0  0  0  0  0  0  0  0  0  0  0  0
   10.7375   -0.6081    0.0000 O   0  0  0  0  0  0  0  0  0  0  0  0
    4.6753   -0.1081    0.0000 N   0  0  0  0  0  0  0  0  0  0  0  0
    5.1060    2.5337    0.0000 N   0  0  0  0  0  0  0  0  0  0  0  0
    7.2734   -1.6081    0.0000 N   0  0  0  0  0  0  0  0  0  0  0  0
    9.0054   -0.6081    0.0000 N   0  0  0  0  0  0  0  0  0  0  0  0
    4.5708    0.8865    0.0000 C   0  0  1  0  0  0  0  0  0  0  0  0
    4.1550    2.8428    0.0000 C   0  0  3  0  0  0  0  0  0  0  0  0
    3.9470    3.8209    0.0000 C   0  0  3  0  0  0  0  0  0  0  0  0
    6.4074   -2.1081    0.0000 C   0  0  2  0  0  0  0  0  0  0  0  0
    3.5926    1.0944    0.0000 C   0  0  0  0  0  0  0  0  0  0  0  0
    5.5413   -1.6081    0.0000 C   0  0  1  0  0  0  0  0  0  0  0  0
    3.7618   -0.5148    0.0000 C   0  0  0  0  0  0  0  0  0  0  0  0
    5.3139    1.5556    0.0000 C   0  0  0  0  0  0  0  0  0  0  0  0
    5.5413   -0.6081    0.0000 C   0  0  0  0  0  0  0  0  0  0  0  0
    2.9960    4.1299    0.0000 C   0  0  0  0  0  0  0  0  0  0  0  0
    6.4074   -3.1081    0.0000 C   0  0  0  0  0  0  0  0  0  0  0  0
    3.4118    2.1736    0.0000 C   0  0  0  0  0  0  0  0  0  0  0  0
    4.6902    4.4900    0.0000 C   0  0  0  0  0  0  0  0  0  0  0  0
    9.0054   -1.6081    0.0000 C   0  0  2  0  0  0  0  0  0  0  0  0
    5.5413   -3.6081    0.0000 C   0  0  0  0  0  0  0  0  0  0  0  0
    8.1394   -2.1081    0.0000 C   0  0  0  0  0  0  0  0  0  0  0  0
    2.7881    5.1081    0.0000 C   0  0  0  0  0  0  0  0  0  0  0  0
    9.8715   -2.1081    0.0000 C   0  0  0  0  0  0  0  0  0  0  0  0
    4.6753   -3.1081    0.0000 C   0  0  0  0  0  0  0  0  0  0  0  0
    5.5413   -4.6081    0.0000 C   0  0  0  0  0  0  0  0  0  0  0  0
    3.8093   -3.6081    0.0000 C   0  0  0  0  0  0  0  0  0  0  0  0
    4.6753   -5.1081    0.0000 C   0  0  0  0  0  0  0  0  0  0  0  0
   10.8715   -3.1081    0.0000 C   0  0  0  0  0  0  0  0  0  0  0  0
    9.8715   -0.1081    0.0000 C   0  0  0  0  0  0  0  0  0  0  0  0
    3.8093   -4.6081    0.0000 C   0  0  0  0  0  0  0  0  0  0  0  0
    9.8715    0.8919    0.0000 C   0  0  0  0  0  0  0  0  0  0  0  0
   10.7375    2.3919    0.0000 C   0  0  0  0  0  0  0  0  0  0  0  0
   11.6035    2.8919    0.0000 C   0  0  0  0  0  0  0  0  0  0  0  0
   11.6035    3.8919    0.0000 C   0  0  0  0  0  0  0  0  0  0  0  0
    9.8715    2.8919    0.0000 C   0  0  0  0  0  0  0  0  0  0  0  0
   12.4974    2.3573    0.0000 C   0  0  0  0  0  0  0  0  0  0  0  0
   10.7375    4.3919    0.0000 C   0  0  0  0  0  0  0  0  0  0  0  0
    9.8715    3.8919    0.0000 C   0  0  0  0  0  0  0  0  0  0  0  0
   12.4974    4.4266    0.0000 C   0  0  0  0  0  0  0  0  0  0  0  0
   13.4035    2.8711    0.0000 C   0  0  0  0  0  0  0  0  0  0  0  0
   13.4035    3.9128    0.0000 C   0  0  0  0  0  0  0  0  0  0  0  0
    5.1496    0.6643    0.0000 H   0  0  0  0  0  0  0  0  0  0  0  0
    4.6157    3.2576    0.0000 H   0  0  0  0  0  0  0  0  0  0  0  0
    3.8181    4.4274    0.0000 H   0  0  0  0  0  0  0  0  0  0  0  0
    6.4074   -1.4881    0.0000 H   0  0  0  0  0  0  0  0  0  0  0  0
    3.7842    1.6840    0.0000 H   0  0  0  0  0  0  0  0  0  0  0  0
    3.0262    1.3466    0.0000 H   0  0  0  0  0  0  0  0  0  0  0  0
    5.5413   -2.2281    0.0000 H   0  0  0  0  0  0  0  0  0  0  0  0
    3.2602   -0.8792    0.0000 H   0  0  0  0  0  0  0  0  0  0  0  0
    4.0718   -1.0517    0.0000 H   0  0  0  0  0  0  0  0  0  0  0  0
    5.5668    2.9486    0.0000 H   0  0  0  0  0  0  0  0  0  0  0  0
    2.3764    4.1083    0.0000 H   0  0  0  0  0  0  0  0  0  0  0  0
    2.9097    3.5160    0.0000 H   0  0  0  0  0  0  0  0  0  0  0  0
    6.6194   -3.6907    0.0000 H   0  0  0  0  0  0  0  0  0  0  0  0
    7.0179   -3.0004    0.0000 H   0  0  0  0  0  0  0  0  0  0  0  0
    3.1207    1.6262    0.0000 H   0  0  0  0  0  0  0  0  0  0  0  0
    3.9004    1.7919    0.0000 H   0  0  0  0  0  0  0  0  0  0  0  0
    5.1050    4.0293    0.0000 H   0  0  0  0  0  0  0  0  0  0  0  0
    5.1509    4.9049    0.0000 H   0  0  0  0  0  0  0  0  0  0  0  0
    4.2753    4.9508    0.0000 H   0  0  0  0  0  0  0  0  0  0  0  0
    7.2734   -0.9881    0.0000 H   0  0  0  0  0  0  0  0  0  0  0  0
    9.5424   -1.2981    0.0000 H   0  0  0  0  0  0  0  0  0  0  0  0
    3.3945    5.2370    0.0000 H   0  0  0  0  0  0  0  0  0  0  0  0
    2.6592    5.7145    0.0000 H   0  0  0  0  0  0  0  0  0  0  0  0
    2.1816    4.9792    0.0000 H   0  0  0  0  0  0  0  0  0  0  0  0
    4.1384   -1.7981    0.0000 H   0  0  0  0  0  0  0  0  0  0  0  0
   10.4820   -2.2157    0.0000 H   0  0  0  0  0  0  0  0  0  0  0  0
   10.0835   -1.5255    0.0000 H   0  0  0  0  0  0  0  0  0  0  0  0
    2.0000    2.0678    0.0000 H   0  0  0  0  0  0  0  0  0  0  0  0
    8.4685   -0.2981    0.0000 H   0  0  0  0  0  0  0  0  0  0  0  0
    4.6753   -2.4881    0.0000 H   0  0  0  0  0  0  0  0  0  0  0  0
    6.0783   -4.9181    0.0000 H   0  0  0  0  0  0  0  0  0  0  0  0
    3.2723   -3.2981    0.0000 H   0  0  0  0  0  0  0  0  0  0  0  0
    4.6753   -5.7281    0.0000 H   0  0  0  0  0  0  0  0  0  0  0  0
   10.8715   -3.7281    0.0000 H   0  0  0  0  0  0  0  0  0  0  0  0
   11.4915   -3.1081    0.0000 H   0  0  0  0  0  0  0  0  0  0  0  0
   10.8715   -2.4881    0.0000 H   0  0  0  0  0  0  0  0  0  0  0  0
    3.2723   -4.9181    0.0000 H   0  0  0  0  0  0  0  0  0  0  0  0
    9.6594    1.4745    0.0000 H   0  0  0  0  0  0  0  0  0  0  0  0
    9.2609    0.7843    0.0000 H   0  0  0  0  0  0  0  0  0  0  0  0
    9.3345    2.5819    0.0000 H   0  0  0  0  0  0  0  0  0  0  0  0
   12.4903    1.7373    0.0000 H   0  0  0  0  0  0  0  0  0  0  0  0
   10.7375    5.0119    0.0000 H   0  0  0  0  0  0  0  0  0  0  0  0
    9.3345    4.2019    0.0000 H   0  0  0  0  0  0  0  0  0  0  0  0
   12.4903    5.0466    0.0000 H   0  0  0  0  0  0  0  0  0  0  0  0
   13.9393    2.5590    0.0000 H   0  0  0  0  0  0  0  0  0  0  0  0
   13.9393    4.2248    0.0000 H   0  0  0  0  0  0  0  0  0  0  0  0
  1 20  1  0  0  0  0
  1 22  1  0  0  0  0
  2  8  2  0  0  0  0
  2  9  2  0  0  0  0
  2 33  1  0  0  0  0
  2 38  1  0  0  0  0
 21  3  1  6  0  0  0
  3 76  1  0  0  0  0
  4 23  2  0  0  0  0
  5 24  2  0  0  0  0
  6 27  1  0  0  0  0
  6 79  1  0  0  0  0
  7 31  2  0  0  0  0
 10 41  1  0  0  0  0
 10 42  1  0  0  0  0
 11 39  2  0  0  0  0
 12 16  1  0  0  0  0
 12 22  1  0  0  0  0
 12 24  1  0  0  0  0
 13 17  1  0  0  0  0
 13 23  1  0  0  0  0
 13 61  1  0  0  0  0
 19 14  1  1  0  0  0
 14 31  1  0  0  0  0
 14 71  1  0  0  0  0
 29 15  1  1  0  0  0
 15 39  1  0  0  0  0
 15 80  1  0  0  0  0
 16 20  1  0  0  0  0
 16 23  1  1  0  0  0
 16 52  1  0  0  0  0
 17 18  1  0  0  0  0
 17 27  1  0  0  0  0
 17 53  1  0  0  0  0
 18 25  1  0  0  0  0
 18 28  1  0  0  0  0
 18 54  1  0  0  0  0
 19 21  1  0  0  0  0
 19 26  1  0  0  0  0
 19 55  1  0  0  0  0
 20 56  1  0  0  0  0
 20 57  1  0  0  0  0
 21 24  1  0  0  0  0
 21 58  1  0  0  0  0
 22 59  1  0  0  0  0
 22 60  1  0  0  0  0
 25 32  1  0  0  0  0
 25 62  1  0  0  0  0
 25 63  1  0  0  0  0
 26 30  1  0  0  0  0
 26 64  1  0  0  0  0
 26 65  1  0  0  0  0
 27 66  1  0  0  0  0
 27 67  1  0  0  0  0
 28 68  1  0  0  0  0
 28 69  1  0  0  0  0
 28 70  1  0  0  0  0
 29 31  1  0  0  0  0
 29 33  1  0  0  0  0
 29 72  1  0  0  0  0
 30 34  2  0  0  0  0
 30 35  1  0  0  0  0
 32 73  1  0  0  0  0
 32 74  1  0  0  0  0
 32 75  1  0  0  0  0
 33 77  1  0  0  0  0
 33 78  1  0  0  0  0
 34 36  1  0  0  0  0
 34 81  1  0  0  0  0
 35 37  2  0  0  0  0
 35 82  1  0  0  0  0
 36 40  2  0  0  0  0
 36 83  1  0  0  0  0
 37 40  1  0  0  0  0
 37 84  1  0  0  0  0
 38 85  1  0  0  0  0
 38 86  1  0  0  0  0
 38 87  1  0  0  0  0
 39 41  1  0  0  0  0
 40 88  1  0  0  0  0
 41 89  1  0  0  0  0
 41 90  1  0  0  0  0
 42 43  1  0  0  0  0
 42 45  2  0  0  0  0
 43 44  1  0  0  0  0
 43 46  2  0  0  0  0
 44 47  1  0  0  0  0
 44 49  2  0  0  0  0
 45 48  1  0  0  0  0
 45 91  1  0  0  0  0
 46 50  1  0  0  0  0
 46 92  1  0  0  0  0
 47 48  2  0  0  0  0
 47 93  1  0  0  0  0
 48 94  1  0  0  0  0
 49 51  1  0  0  0  0
 49 95  1  0  0  0  0
 50 51  2  0  0  0  0
 50 96  1  0  0  0  0
 51 97  1  0  0  0  0
M  END
> <PUBCHEM_COMPOUND_CID>
501816
> <PUBCHEM_COMPOUND_CANONICALIZED>
1
> <PUBCHEM_CACTVS_COMPLEXITY>
1280
> <PUBCHEM_CACTVS_HBOND_ACCEPTOR>
10
> <PUBCHEM_CACTVS_HBOND_DONOR>
5
> <PUBCHEM_CACTVS_ROTATABLE_BOND>
17
> <PUBCHEM_CACTVS_SUBSKEYS>
AAADcfB/vABgAAAAAAAAAAAAAAAAAWAAAAAwYMAAAAAAAADBVAAAHgQQCAAADTzl2AayBsPABgqIAiFSEHJCCABgIBAIiIHOCIgOdjqk8T+XeCCk1hGYqAeYyLCOgAABAAAYAAAAAAIAADAAAAAAAAAAAA==
> <PUBCHEM_IUPAC_OPENEYE_NAME>
(4R)-N-[1-(hydroxymethyl)-2-methyl-butyl]-3-[(2S,3S)-2-hydroxy-3-[[(2R)-3-methylsulfonyl-2-[[2-(1-naphthyloxy)acetyl]amino]propanoyl]amino]-4-phenyl-butanoyl]thiazolidine-4-carboxamide
> <PUBCHEM_IUPAC_CAS_NAME>
(4R)-N-(1-hydroxy-3-methylpentan-2-yl)-3-[(2S,3S)-2-hydroxy-3-[[(2R)-3-methylsulfonyl-2-[[2-(1-naphthalenyloxy)-1-oxoethyl]amino]-1-oxopropyl]amino]-1-oxo-4-phenylbutyl]-4-thiazolidinecarboxamide
> <PUBCHEM_IUPAC_NAME_MARKUP>
(4<I>R</I>)-<I>N</I>-(1-hydroxy-3-methylpentan-2-yl)-3-[(2<I>S</I>,3<I>S</I>)-2-hydroxy-3-[[(2<I>R</I>)-3-methylsulfonyl-2-[(2-naphthalen-1-yloxyacetyl)amino]propanoyl]amino]-4-phenylbutanoyl]-1,3-thiazolidine-4-carboxamide
> <PUBCHEM_IUPAC_NAME>
(4R)-N-(1-hydroxy-3-methylpentan-2-yl)-3-[(2S,3S)-2-hydroxy-3-[[(2R)-3-methylsulfonyl-2-[(2-naphthalen-1-yloxyacetyl)amino]propanoyl]amino]-4-phenylbutanoyl]-1,3-thiazolidine-4-carboxamide
> <PUBCHEM_IUPAC_SYSTEMATIC_NAME>
(4R)-N-(3-methyl-1-oxidanyl-pentan-2-yl)-3-[(2S,3S)-3-[[(2R)-3-methylsulfonyl-2-(2-naphthalen-1-yloxyethanoylamino)propanoyl]amino]-2-oxidanyl-4-phenyl-butanoyl]-1,3-thiazolidine-4-carboxamide
> <PUBCHEM_IUPAC_TRADITIONAL_NAME>
(4R)-3-[(2S,3S)-2-hydroxy-3-[[(2R)-3-mesyl-2-[[2-(1-naphthoxy)acetyl]amino]propanoyl]amino]-4-phenyl-butanoyl]-N-(2-methyl-1-methylol-butyl)thiazolidine-4-carboxamide
> <PUBCHEM_IUPAC_INCHI>
InChI=1S/C36H46N4O9S2/c1-4-23(2)28(18-41)39-35(45)30-20-50-22-40(30)36(46)33(43)27(17-24-11-6-5-7-12-24)38-34(44)29(21-51(3,47)48)37-32(42)19-49-31-16-10-14-25-13-8-9-15-26(25)31/h5-16,23,27-30,33,41,43H,4,17-22H2,1-3H3,(H,37,42)(H,38,44)(H,39,45)/t23?,27-,28?,29-,30-,33-/m0/s1
> <PUBCHEM_IUPAC_INCHIKEY>
JZLUJEYGCOAFNF-CVJKBQEGSA-N
> <PUBCHEM_XLOGP3_AA>
3.1
> <PUBCHEM_EXACT_MASS>
742.27062140
> <PUBCHEM_MOLECULAR_FORMULA>
C36H46N4O9S2
> <PUBCHEM_MOLECULAR_WEIGHT>
742.9
> <PUBCHEM_OPENEYE_CAN_SMILES>
CCC(C)C(CO)NC(=O)C1CSCN1C(=O)C(C(CC2=CC=CC=C2)NC(=O)C(CS(=O)(=O)C)NC(=O)COC3=CC=CC4=CC=CC=C43)O
> <PUBCHEM_OPENEYE_ISO_SMILES>
CCC(C)C(CO)NC(=O)[C@@H]1CSCN1C(=O)[C@H]([C@H](CC2=CC=CC=C2)NC(=O)[C@H](CS(=O)(=O)C)NC(=O)COC3=CC=CC4=CC=CC=C43)O
> <PUBCHEM_CACTVS_TPSA>
225
> <PUBCHEM_MONOISOTOPIC_WEIGHT>
742.27062140
> <PUBCHEM_TOTAL_CHARGE>
0
> <PUBCHEM_HEAVY_ATOM_COUNT>
51
> <PUBCHEM_ATOM_DEF_STEREO_COUNT>
4
> <PUBCHEM_ATOM_UDEF_STEREO_COUNT>
2
> <PUBCHEM_BOND_DEF_STEREO_COUNT>
0
> <PUBCHEM_BOND_UDEF_STEREO_COUNT>
0
> <PUBCHEM_ISOTOPIC_ATOM_COUNT>
0
> <PUBCHEM_COMPONENT_COUNT>
1
> <PUBCHEM_CACTVS_TAUTO_COUNT>
-1
> <PUBCHEM_COORDINATE_TYPE>
1
5
255
> <PUBCHEM_BONDANNOTATIONS>
19  14  5
29  15  5
16  23  5
17  27  3
18  28  3
21  3  6
30  34  8
30  35  8
34  36  8
35  37  8
36  40  8
37  40  8
42  43  8
42  45  8
43  44  8
43  46  8
44  47  8
44  49  8
45  48  8
46  50  8
47  48  8
49  51  8
50  51  8
$$$$
