501801
  -OEChem-10302200282D
 98101  0     1  0  0  0  0  0999 V2000
    2.3660    0.5691    0.0000 S   0  0  0  0  0  0  0  0  0  0  0  0
    9.1448   -2.7673    0.0000 S   0  3  0  0  0  0  0  0  0  0  0  0
    5.5384    1.5873    0.0000 O   0  0  0  0  0  0  0  0  0  0  0  0
    3.9487   -1.7673    0.0000 O   0  0  0  0  0  0  0  0  0  0  0  0
    5.6808    0.2327    0.0000 O   0  0  0  0  0  0  0  0  0  0  0  0
    7.4128   -2.7673    0.0000 O   0  0  0  0  0  0  0  0  0  0  0  0
   10.0109   -0.2673    0.0000 O   0  0  0  0  0  0  0  0  0  0  0  0
   10.0109    1.7327    0.0000 O   0  0  0  0  0  0  0  0  0  0  0  0
    3.9487    0.2327    0.0000 N   0  0  0  0  0  0  0  0  0  0  0  0
    4.3794    2.8745    0.0000 N   0  0  0  0  0  0  0  0  0  0  0  0
    6.5468   -1.2673    0.0000 N   0  0  0  0  0  0  0  0  0  0  0  0
    8.2788   -0.2673    0.0000 N   0  0  0  0  0  0  0  0  0  0  0  0
    2.8660    1.4351    0.0000 C   0  0  0  0  0  0  0  0  0  0  0  0
    3.8442    1.2272    0.0000 C   0  0  1  0  0  0  0  0  0  0  0  0
    3.0352   -0.1741    0.0000 C   0  0  0  0  0  0  0  0  0  0  0  0
    2.0000    1.9351    0.0000 C   0  0  0  0  0  0  0  0  0  0  0  0
    3.0739    2.4132    0.0000 C   0  0  0  0  0  0  0  0  0  0  0  0
    4.5873    1.8963    0.0000 C   0  0  0  0  0  0  0  0  0  0  0  0
    4.8147   -0.2673    0.0000 C   0  0  0  0  0  0  0  0  0  0  0  0
    4.8147   -1.2673    0.0000 C   0  0  2  0  0  0  0  0  0  0  0  0
    5.6808   -1.7673    0.0000 C   0  0  2  0  0  0  0  0  0  0  0  0
    5.1226    3.5436    0.0000 C   0  0  0  0  0  0  0  0  0  0  0  0
    5.6808   -2.7673    0.0000 C   0  0  0  0  0  0  0  0  0  0  0  0
    5.8657    4.2127    0.0000 C   0  0  0  0  0  0  0  0  0  0  0  0
    4.4534    4.2867    0.0000 C   0  0  0  0  0  0  0  0  0  0  0  0
    5.7917    2.8005    0.0000 C   0  0  0  0  0  0  0  0  0  0  0  0
    4.8147   -3.2673    0.0000 C   0  0  0  0  0  0  0  0  0  0  0  0
    7.4128   -1.7673    0.0000 C   0  0  0  0  0  0  0  0  0  0  0  0
    8.2788   -1.2673    0.0000 C   0  0  2  0  0  0  0  0  0  0  0  0
    9.1448   -1.7673    0.0000 C   0  0  0  0  0  0  0  0  0  0  0  0
    4.8147   -4.2673    0.0000 C   0  0  0  0  0  0  0  0  0  0  0  0
    3.9487   -2.7673    0.0000 C   0  0  0  0  0  0  0  0  0  0  0  0
    3.9487   -4.7673    0.0000 C   0  0  0  0  0  0  0  0  0  0  0  0
    3.0827   -3.2673    0.0000 C   0  0  0  0  0  0  0  0  0  0  0  0
    3.0827   -4.2673    0.0000 C   0  0  0  0  0  0  0  0  0  0  0  0
    9.1448    0.2327    0.0000 C   0  0  0  0  0  0  0  0  0  0  0  0
   10.0109   -3.2673    0.0000 C   0  0  0  0  0  0  0  0  0  0  0  0
    8.2788   -3.2673    0.0000 C   0  0  0  0  0  0  0  0  0  0  0  0
    9.1448    1.2327    0.0000 C   0  0  0  0  0  0  0  0  0  0  0  0
   10.0109    2.7327    0.0000 C   0  0  0  0  0  0  0  0  0  0  0  0
   10.8769    3.2327    0.0000 C   0  0  0  0  0  0  0  0  0  0  0  0
    9.1448    3.2327    0.0000 C   0  0  0  0  0  0  0  0  0  0  0  0
   10.8769    4.2327    0.0000 C   0  0  0  0  0  0  0  0  0  0  0  0
   11.7708    2.6980    0.0000 C   0  0  0  0  0  0  0  0  0  0  0  0
   10.0109    4.7327    0.0000 C   0  0  0  0  0  0  0  0  0  0  0  0
    9.1448    4.2327    0.0000 C   0  0  0  0  0  0  0  0  0  0  0  0
   11.7708    4.7673    0.0000 C   0  0  0  0  0  0  0  0  0  0  0  0
   12.6769    3.2118    0.0000 C   0  0  0  0  0  0  0  0  0  0  0  0
   12.6769    4.2535    0.0000 C   0  0  0  0  0  0  0  0  0  0  0  0
    4.4230    1.0050    0.0000 H   0  0  0  0  0  0  0  0  0  0  0  0
    2.5336   -0.5385    0.0000 H   0  0  0  0  0  0  0  0  0  0  0  0
    3.3452   -0.7110    0.0000 H   0  0  0  0  0  0  0  0  0  0  0  0
    2.3100    2.4720    0.0000 H   0  0  0  0  0  0  0  0  0  0  0  0
    1.4631    2.2451    0.0000 H   0  0  0  0  0  0  0  0  0  0  0  0
    1.6900    1.3982    0.0000 H   0  0  0  0  0  0  0  0  0  0  0  0
    3.6804    2.2844    0.0000 H   0  0  0  0  0  0  0  0  0  0  0  0
    3.2028    3.0197    0.0000 H   0  0  0  0  0  0  0  0  0  0  0  0
    2.4675    2.5422    0.0000 H   0  0  0  0  0  0  0  0  0  0  0  0
    4.8147   -1.8873    0.0000 H   0  0  0  0  0  0  0  0  0  0  0  0
    5.6808   -1.1473    0.0000 H   0  0  0  0  0  0  0  0  0  0  0  0
    3.7898    3.0661    0.0000 H   0  0  0  0  0  0  0  0  0  0  0  0
    5.8928   -3.3499    0.0000 H   0  0  0  0  0  0  0  0  0  0  0  0
    6.2913   -2.6597    0.0000 H   0  0  0  0  0  0  0  0  0  0  0  0
    6.5468   -0.6473    0.0000 H   0  0  0  0  0  0  0  0  0  0  0  0
    6.2806    3.7520    0.0000 H   0  0  0  0  0  0  0  0  0  0  0  0
    6.3264    4.6276    0.0000 H   0  0  0  0  0  0  0  0  0  0  0  0
    5.4508    4.6735    0.0000 H   0  0  0  0  0  0  0  0  0  0  0  0
    4.9142    4.7016    0.0000 H   0  0  0  0  0  0  0  0  0  0  0  0
    4.0386    4.7475    0.0000 H   0  0  0  0  0  0  0  0  0  0  0  0
    3.9927    3.8719    0.0000 H   0  0  0  0  0  0  0  0  0  0  0  0
    5.3309    2.3856    0.0000 H   0  0  0  0  0  0  0  0  0  0  0  0
    6.2065    2.3397    0.0000 H   0  0  0  0  0  0  0  0  0  0  0  0
    6.2524    3.2153    0.0000 H   0  0  0  0  0  0  0  0  0  0  0  0
    3.4118   -1.4573    0.0000 H   0  0  0  0  0  0  0  0  0  0  0  0
    8.8158   -0.9573    0.0000 H   0  0  0  0  0  0  0  0  0  0  0  0
    9.7554   -1.8750    0.0000 H   0  0  0  0  0  0  0  0  0  0  0  0
    9.3569   -1.1847    0.0000 H   0  0  0  0  0  0  0  0  0  0  0  0
    5.3517   -4.5773    0.0000 H   0  0  0  0  0  0  0  0  0  0  0  0
    3.9487   -2.1473    0.0000 H   0  0  0  0  0  0  0  0  0  0  0  0
    7.7419    0.0427    0.0000 H   0  0  0  0  0  0  0  0  0  0  0  0
    3.9487   -5.3873    0.0000 H   0  0  0  0  0  0  0  0  0  0  0  0
    2.5457   -2.9573    0.0000 H   0  0  0  0  0  0  0  0  0  0  0  0
    2.5457   -4.5773    0.0000 H   0  0  0  0  0  0  0  0  0  0  0  0
    9.7009   -3.8043    0.0000 H   0  0  0  0  0  0  0  0  0  0  0  0
   10.5478   -3.5773    0.0000 H   0  0  0  0  0  0  0  0  0  0  0  0
   10.3209   -2.7304    0.0000 H   0  0  0  0  0  0  0  0  0  0  0  0
    7.9688   -2.7304    0.0000 H   0  0  0  0  0  0  0  0  0  0  0  0
    7.7419   -3.5773    0.0000 H   0  0  0  0  0  0  0  0  0  0  0  0
    8.5888   -3.8043    0.0000 H   0  0  0  0  0  0  0  0  0  0  0  0
    8.9328    1.8153    0.0000 H   0  0  0  0  0  0  0  0  0  0  0  0
    8.5343    1.1250    0.0000 H   0  0  0  0  0  0  0  0  0  0  0  0
    8.6079    2.9227    0.0000 H   0  0  0  0  0  0  0  0  0  0  0  0
   11.7637    2.0780    0.0000 H   0  0  0  0  0  0  0  0  0  0  0  0
   10.0109    5.3527    0.0000 H   0  0  0  0  0  0  0  0  0  0  0  0
    8.6079    4.5427    0.0000 H   0  0  0  0  0  0  0  0  0  0  0  0
   11.7637    5.3873    0.0000 H   0  0  0  0  0  0  0  0  0  0  0  0
   13.2127    2.8998    0.0000 H   0  0  0  0  0  0  0  0  0  0  0  0
   13.2127    4.5656    0.0000 H   0  0  0  0  0  0  0  0  0  0  0  0
  1 13  1  0  0  0  0
  1 15  1  0  0  0  0
  2 30  1  0  0  0  0
  2 37  1  0  0  0  0
  2 38  1  0  0  0  0
  3 18  2  0  0  0  0
 20  4  1  6  0  0  0
  4 74  1  0  0  0  0
  5 19  2  0  0  0  0
  6 28  2  0  0  0  0
  7 36  2  0  0  0  0
  8 39  1  0  0  0  0
  8 40  1  0  0  0  0
  9 14  1  0  0  0  0
  9 15  1  0  0  0  0
  9 19  1  0  0  0  0
 10 18  1  0  0  0  0
 10 22  1  0  0  0  0
 10 61  1  0  0  0  0
 21 11  1  1  0  0  0
 11 28  1  0  0  0  0
 11 64  1  0  0  0  0
 29 12  1  1  0  0  0
 12 36  1  0  0  0  0
 12 80  1  0  0  0  0
 13 14  1  0  0  0  0
 13 16  1  0  0  0  0
 13 17  1  0  0  0  0
 14 18  1  1  0  0  0
 14 50  1  0  0  0  0
 15 51  1  0  0  0  0
 15 52  1  0  0  0  0
 16 53  1  0  0  0  0
 16 54  1  0  0  0  0
 16 55  1  0  0  0  0
 17 56  1  0  0  0  0
 17 57  1  0  0  0  0
 17 58  1  0  0  0  0
 19 20  1  0  0  0  0
 20 21  1  0  0  0  0
 20 59  1  0  0  0  0
 21 23  1  0  0  0  0
 21 60  1  0  0  0  0
 22 24  1  0  0  0  0
 22 25  1  0  0  0  0
 22 26  1  0  0  0  0
 23 27  1  0  0  0  0
 23 62  1  0  0  0  0
 23 63  1  0  0  0  0
 24 65  1  0  0  0  0
 24 66  1  0  0  0  0
 24 67  1  0  0  0  0
 25 68  1  0  0  0  0
 25 69  1  0  0  0  0
 25 70  1  0  0  0  0
 26 71  1  0  0  0  0
 26 72  1  0  0  0  0
 26 73  1  0  0  0  0
 27 31  2  0  0  0  0
 27 32  1  0  0  0  0
 28 29  1  0  0  0  0
 29 30  1  0  0  0  0
 29 75  1  0  0  0  0
 30 76  1  0  0  0  0
 30 77  1  0  0  0  0
 31 33  1  0  0  0  0
 31 78  1  0  0  0  0
 32 34  2  0  0  0  0
 32 79  1  0  0  0  0
 33 35  2  0  0  0  0
 33 81  1  0  0  0  0
 34 35  1  0  0  0  0
 34 82  1  0  0  0  0
 35 83  1  0  0  0  0
 36 39  1  0  0  0  0
 37 84  1  0  0  0  0
 37 85  1  0  0  0  0
 37 86  1  0  0  0  0
 38 87  1  0  0  0  0
 38 88  1  0  0  0  0
 38 89  1  0  0  0  0
 39 90  1  0  0  0  0
 39 91  1  0  0  0  0
 40 41  1  0  0  0  0
 40 42  2  0  0  0  0
 41 43  1  0  0  0  0
 41 44  2  0  0  0  0
 42 46  1  0  0  0  0
 42 92  1  0  0  0  0
 43 45  1  0  0  0  0
 43 47  2  0  0  0  0
 44 48  1  0  0  0  0
 44 93  1  0  0  0  0
 45 46  2  0  0  0  0
 45 94  1  0  0  0  0
 46 95  1  0  0  0  0
 47 49  1  0  0  0  0
 47 96  1  0  0  0  0
 48 49  2  0  0  0  0
 48 97  1  0  0  0  0
 49 98  1  0  0  0  0
M  CHG  1   2   1
M  END
> <PUBCHEM_COMPOUND_CID>
501801
> <PUBCHEM_COMPOUND_CANONICALIZED>
1
> <PUBCHEM_CACTVS_COMPLEXITY>
1140
> <PUBCHEM_CACTVS_HBOND_ACCEPTOR>
7
> <PUBCHEM_CACTVS_HBOND_DONOR>
4
> <PUBCHEM_CACTVS_ROTATABLE_BOND>
14
> <PUBCHEM_CACTVS_SUBSKEYS>
AAADcfB/uABgAAAAAAAAAAAAAAAAAWAAAAAwYMAAAAAAAADBVAAAHgQQCAAADLzl2AayBsPABgiIAiFSEAICCABgIBAIiIHOCIgOdjqk8T+XeCCk1hGYqAeYyLCOgAABAAAYAAAAAAIAADAAAAAAAAAAAA==
> <PUBCHEM_IUPAC_OPENEYE_NAME>
[(2R)-3-[[(1S,2S)-1-benzyl-3-[(4R)-4-(tert-butylcarbamoyl)-5,5-dimethyl-thiazolidin-3-yl]-2-hydroxy-3-oxo-propyl]amino]-2-[[2-(1-naphthyloxy)acetyl]amino]-3-oxo-propyl]-dimethyl-sulfonium
> <PUBCHEM_IUPAC_CAS_NAME>
[(2R)-3-[[(2S,3S)-4-[(4R)-4-[(tert-butylamino)-oxomethyl]-5,5-dimethyl-3-thiazolidinyl]-3-hydroxy-4-oxo-1-phenylbutan-2-yl]amino]-2-[[2-(1-naphthalenyloxy)-1-oxoethyl]amino]-3-oxopropyl]-dimethylsulfonium
> <PUBCHEM_IUPAC_NAME_MARKUP>
[(2<I>R</I>)-3-[[(2<I>S</I>,3<I>S</I>)-4-[(4<I>R</I>)-4-(<I>tert</I>-butylcarbamoyl)-5,5-dimethyl-1,3-thiazolidin-3-yl]-3-hydroxy-4-oxo-1-phenylbutan-2-yl]amino]-2-[(2-naphthalen-1-yloxyacetyl)amino]-3-oxopropyl]-dimethylsulfanium
> <PUBCHEM_IUPAC_NAME>
[(2R)-3-[[(2S,3S)-4-[(4R)-4-(tert-butylcarbamoyl)-5,5-dimethyl-1,3-thiazolidin-3-yl]-3-hydroxy-4-oxo-1-phenylbutan-2-yl]amino]-2-[(2-naphthalen-1-yloxyacetyl)amino]-3-oxopropyl]-dimethylsulfanium
> <PUBCHEM_IUPAC_SYSTEMATIC_NAME>
[(2R)-3-[[(2S,3S)-4-[(4R)-4-(tert-butylcarbamoyl)-5,5-dimethyl-1,3-thiazolidin-3-yl]-3-oxidanyl-4-oxidanylidene-1-phenyl-butan-2-yl]amino]-2-(2-naphthalen-1-yloxyethanoylamino)-3-oxidanylidene-propyl]-dimethyl-sulfanium
> <PUBCHEM_IUPAC_TRADITIONAL_NAME>
[(2R)-3-[[(1S,2S)-1-benzyl-3-[(4R)-4-(tert-butylcarbamoyl)-5,5-dimethyl-thiazolidin-3-yl]-2-hydroxy-3-keto-propyl]amino]-3-keto-2-[[2-(1-naphthoxy)acetyl]amino]propyl]-dimethyl-sulfonium
> <PUBCHEM_IUPAC_INCHI>
InChI=1S/C37H48N4O6S2/c1-36(2,3)40-34(45)32-37(4,5)48-23-41(32)35(46)31(43)27(20-24-14-9-8-10-15-24)39-33(44)28(22-49(6)7)38-30(42)21-47-29-19-13-17-25-16-11-12-18-26(25)29/h8-19,27-28,31-32,43H,20-23H2,1-7H3,(H2-,38,39,40,42,44,45)/p+1/t27-,28-,31-,32+/m0/s1
> <PUBCHEM_IUPAC_INCHIKEY>
QKXLUJFYVQRNIC-IQXRZRKZSA-O
> <PUBCHEM_XLOGP3_AA>
4.9
> <PUBCHEM_EXACT_MASS>
709.30935264
> <PUBCHEM_MOLECULAR_FORMULA>
C37H49N4O6S2+
> <PUBCHEM_MOLECULAR_WEIGHT>
709.9
> <PUBCHEM_OPENEYE_CAN_SMILES>
CC1(C(N(CS1)C(=O)C(C(CC2=CC=CC=C2)NC(=O)C(C[S+](C)C)NC(=O)COC3=CC=CC4=CC=CC=C43)O)C(=O)NC(C)(C)C)C
> <PUBCHEM_OPENEYE_ISO_SMILES>
CC1([C@H](N(CS1)C(=O)[C@H]([C@H](CC2=CC=CC=C2)NC(=O)[C@H](C[S+](C)C)NC(=O)COC3=CC=CC4=CC=CC=C43)O)C(=O)NC(C)(C)C)C
> <PUBCHEM_CACTVS_TPSA>
163
> <PUBCHEM_MONOISOTOPIC_WEIGHT>
709.30935264
> <PUBCHEM_TOTAL_CHARGE>
1
> <PUBCHEM_HEAVY_ATOM_COUNT>
49
> <PUBCHEM_ATOM_DEF_STEREO_COUNT>
4
> <PUBCHEM_ATOM_UDEF_STEREO_COUNT>
0
> <PUBCHEM_BOND_DEF_STEREO_COUNT>
0
> <PUBCHEM_BOND_UDEF_STEREO_COUNT>
0
> <PUBCHEM_ISOTOPIC_ATOM_COUNT>
0
> <PUBCHEM_COMPONENT_COUNT>
1
> <PUBCHEM_CACTVS_TAUTO_COUNT>
-1
> <PUBCHEM_COORDINATE_TYPE>
1
5
255
> <PUBCHEM_BONDANNOTATIONS>
21  11  5
29  12  5
14  18  5
27  31  8
27  32  8
31  33  8
32  34  8
33  35  8
34  35  8
20  4  6
40  41  8
40  42  8
41  43  8
41  44  8
42  46  8
43  45  8
43  47  8
44  48  8
45  46  8
47  49  8
48  49  8
$$$$
