501897
  -OEChem-10302200282D
 77 78  0     1  0  0  0  0  0999 V2000
    7.1962    0.7500    0.0000 O   0  0  0  0  0  0  0  0  0  0  0  0
    9.7942   -1.7500    0.0000 O   0  0  0  0  0  0  0  0  0  0  0  0
    5.4641    2.7500    0.0000 O   0  0  0  0  0  0  0  0  0  0  0  0
    6.3301    1.2500    0.0000 O   0  0  0  0  0  0  0  0  0  0  0  0
   14.1244    0.7500    0.0000 O   0  0  0  0  0  0  0  0  0  0  0  0
    8.9282    0.7500    0.0000 N   0  0  0  0  0  0  0  0  0  0  0  0
    7.1962    2.7500    0.0000 N   0  0  0  0  0  0  0  0  0  0  0  0
   10.6603   -0.2500    0.0000 N   0  0  0  0  0  0  0  0  0  0  0  0
   14.9904   -0.7500    0.0000 N   0  0  0  0  0  0  0  0  0  0  0  0
   12.3923   -4.2500    0.0000 N   0  0  0  0  0  0  0  0  0  0  0  0
    8.9282    2.7500    0.0000 C   0  0  0  0  0  0  0  0  0  0  0  0
    8.0622    2.2500    0.0000 C   0  0  1  0  0  0  0  0  0  0  0  0
    8.9282    3.7500    0.0000 C   0  0  0  0  0  0  0  0  0  0  0  0
    8.9282   -0.2500    0.0000 C   0  0  1  0  0  0  0  0  0  0  0  0
    8.0622    1.2500    0.0000 C   0  0  0  0  0  0  0  0  0  0  0  0
    8.0622   -0.7500    0.0000 C   0  0  0  0  0  0  0  0  0  0  0  0
    9.7942    4.2500    0.0000 C   0  0  0  0  0  0  0  0  0  0  0  0
    8.0622    4.2500    0.0000 C   0  0  0  0  0  0  0  0  0  0  0  0
    9.7942   -0.7500    0.0000 C   0  0  0  0  0  0  0  0  0  0  0  0
   11.5263   -0.7500    0.0000 C   0  0  1  0  0  0  0  0  0  0  0  0
    8.0622   -1.7500    0.0000 C   0  0  0  0  0  0  0  0  0  0  0  0
   12.3923   -0.2500    0.0000 C   0  0  0  0  0  0  0  0  0  0  0  0
   13.2583   -0.7500    0.0000 C   0  0  0  0  0  0  0  0  0  0  0  0
    6.3301    2.2500    0.0000 C   0  0  0  0  0  0  0  0  0  0  0  0
   11.5263   -1.7500    0.0000 C   0  0  0  0  0  0  0  0  0  0  0  0
    8.9282   -2.2500    0.0000 C   0  0  0  0  0  0  0  0  0  0  0  0
    7.1962   -2.2500    0.0000 C   0  0  0  0  0  0  0  0  0  0  0  0
    8.9282   -3.2500    0.0000 C   0  0  0  0  0  0  0  0  0  0  0  0
    7.1962   -3.2500    0.0000 C   0  0  0  0  0  0  0  0  0  0  0  0
   14.1244   -0.2500    0.0000 C   0  0  0  0  0  0  0  0  0  0  0  0
    8.0622   -3.7500    0.0000 C   0  0  0  0  0  0  0  0  0  0  0  0
   12.3923   -2.2500    0.0000 C   0  0  0  0  0  0  0  0  0  0  0  0
    4.5981    2.2500    0.0000 C   0  0  0  0  0  0  0  0  0  0  0  0
    3.7320    2.7500    0.0000 C   0  0  0  0  0  0  0  0  0  0  0  0
   12.3923   -3.2500    0.0000 C   0  0  0  0  0  0  0  0  0  0  0  0
    2.8660    2.2500    0.0000 C   0  0  0  0  0  0  0  0  0  0  0  0
    3.7320    3.7500    0.0000 C   0  0  0  0  0  0  0  0  0  0  0  0
    2.0000    2.7500    0.0000 C   0  0  0  0  0  0  0  0  0  0  0  0
    2.8660    4.2500    0.0000 C   0  0  0  0  0  0  0  0  0  0  0  0
    2.0000    3.7500    0.0000 C   0  0  0  0  0  0  0  0  0  0  0  0
    9.1403    2.1674    0.0000 H   0  0  0  0  0  0  0  0  0  0  0  0
    9.5388    2.8577    0.0000 H   0  0  0  0  0  0  0  0  0  0  0  0
    8.0622    2.8700    0.0000 H   0  0  0  0  0  0  0  0  0  0  0  0
    9.4651    3.4400    0.0000 H   0  0  0  0  0  0  0  0  0  0  0  0
    9.4651    0.0600    0.0000 H   0  0  0  0  0  0  0  0  0  0  0  0
    7.8501   -0.1674    0.0000 H   0  0  0  0  0  0  0  0  0  0  0  0
    7.4516   -0.8577    0.0000 H   0  0  0  0  0  0  0  0  0  0  0  0
    9.4651    1.0600    0.0000 H   0  0  0  0  0  0  0  0  0  0  0  0
   10.1042    3.7131    0.0000 H   0  0  0  0  0  0  0  0  0  0  0  0
   10.3312    4.5600    0.0000 H   0  0  0  0  0  0  0  0  0  0  0  0
    9.4842    4.7869    0.0000 H   0  0  0  0  0  0  0  0  0  0  0  0
    8.3722    4.7869    0.0000 H   0  0  0  0  0  0  0  0  0  0  0  0
    7.5252    4.5600    0.0000 H   0  0  0  0  0  0  0  0  0  0  0  0
    7.7522    3.7131    0.0000 H   0  0  0  0  0  0  0  0  0  0  0  0
    7.1962    3.3700    0.0000 H   0  0  0  0  0  0  0  0  0  0  0  0
   10.9893   -1.0600    0.0000 H   0  0  0  0  0  0  0  0  0  0  0  0
   10.6603    0.3700    0.0000 H   0  0  0  0  0  0  0  0  0  0  0  0
   12.7908    0.2249    0.0000 H   0  0  0  0  0  0  0  0  0  0  0  0
   11.9938    0.2249    0.0000 H   0  0  0  0  0  0  0  0  0  0  0  0
   12.8598   -1.2250    0.0000 H   0  0  0  0  0  0  0  0  0  0  0  0
   13.6569   -1.2250    0.0000 H   0  0  0  0  0  0  0  0  0  0  0  0
   10.9893   -2.0600    0.0000 H   0  0  0  0  0  0  0  0  0  0  0  0
    9.4651   -1.9400    0.0000 H   0  0  0  0  0  0  0  0  0  0  0  0
    6.6592   -1.9400    0.0000 H   0  0  0  0  0  0  0  0  0  0  0  0
    9.4651   -3.5600    0.0000 H   0  0  0  0  0  0  0  0  0  0  0  0
    6.6592   -3.5600    0.0000 H   0  0  0  0  0  0  0  0  0  0  0  0
    8.0622   -4.3700    0.0000 H   0  0  0  0  0  0  0  0  0  0  0  0
   12.9292   -1.9400    0.0000 H   0  0  0  0  0  0  0  0  0  0  0  0
    4.1996    1.7750    0.0000 H   0  0  0  0  0  0  0  0  0  0  0  0
    4.9966    1.7750    0.0000 H   0  0  0  0  0  0  0  0  0  0  0  0
   15.5273   -0.4400    0.0000 H   0  0  0  0  0  0  0  0  0  0  0  0
   14.9904   -1.3700    0.0000 H   0  0  0  0  0  0  0  0  0  0  0  0
    2.8660    1.6300    0.0000 H   0  0  0  0  0  0  0  0  0  0  0  0
    4.2690    4.0600    0.0000 H   0  0  0  0  0  0  0  0  0  0  0  0
    1.4631    2.4400    0.0000 H   0  0  0  0  0  0  0  0  0  0  0  0
    2.8660    4.8700    0.0000 H   0  0  0  0  0  0  0  0  0  0  0  0
    1.4631    4.0600    0.0000 H   0  0  0  0  0  0  0  0  0  0  0  0
  1 15  2  0  0  0  0
  2 19  2  0  0  0  0
  3 24  1  0  0  0  0
  3 33  1  0  0  0  0
  4 24  2  0  0  0  0
  5 30  2  0  0  0  0
 14  6  1  6  0  0  0
  6 15  1  0  0  0  0
  6 48  1  0  0  0  0
 12  7  1  1  0  0  0
  7 24  1  0  0  0  0
  7 55  1  0  0  0  0
  8 19  1  0  0  0  0
 20  8  1  1  0  0  0
  8 57  1  0  0  0  0
  9 30  1  0  0  0  0
  9 71  1  0  0  0  0
  9 72  1  0  0  0  0
 10 35  3  0  0  0  0
 11 12  1  0  0  0  0
 11 13  1  0  0  0  0
 11 41  1  0  0  0  0
 11 42  1  0  0  0  0
 12 15  1  0  0  0  0
 12 43  1  0  0  0  0
 13 17  1  0  0  0  0
 13 18  1  0  0  0  0
 13 44  1  0  0  0  0
 14 16  1  0  0  0  0
 14 19  1  0  0  0  0
 14 45  1  0  0  0  0
 16 21  1  0  0  0  0
 16 46  1  0  0  0  0
 16 47  1  0  0  0  0
 17 49  1  0  0  0  0
 17 50  1  0  0  0  0
 17 51  1  0  0  0  0
 18 52  1  0  0  0  0
 18 53  1  0  0  0  0
 18 54  1  0  0  0  0
 20 22  1  0  0  0  0
 20 25  1  0  0  0  0
 20 56  1  0  0  0  0
 21 26  2  0  0  0  0
 21 27  1  0  0  0  0
 22 23  1  0  0  0  0
 22 58  1  0  0  0  0
 22 59  1  0  0  0  0
 23 30  1  0  0  0  0
 23 60  1  0  0  0  0
 23 61  1  0  0  0  0
 25 32  2  3  0  0  0
 25 62  1  0  0  0  0
 26 28  1  0  0  0  0
 26 63  1  0  0  0  0
 27 29  2  0  0  0  0
 27 64  1  0  0  0  0
 28 31  2  0  0  0  0
 28 65  1  0  0  0  0
 29 31  1  0  0  0  0
 29 66  1  0  0  0  0
 31 67  1  0  0  0  0
 32 35  1  0  0  0  0
 32 68  1  0  0  0  0
 33 34  1  0  0  0  0
 33 69  1  0  0  0  0
 33 70  1  0  0  0  0
 34 36  2  0  0  0  0
 34 37  1  0  0  0  0
 36 38  1  0  0  0  0
 36 73  1  0  0  0  0
 37 39  2  0  0  0  0
 37 74  1  0  0  0  0
 38 40  2  0  0  0  0
 38 75  1  0  0  0  0
 39 40  1  0  0  0  0
 39 76  1  0  0  0  0
 40 77  1  0  0  0  0
M  END
> <PUBCHEM_COMPOUND_CID>
501897
> <PUBCHEM_COMPOUND_CANONICALIZED>
1
> <PUBCHEM_CACTVS_COMPLEXITY>
899
> <PUBCHEM_CACTVS_HBOND_ACCEPTOR>
6
> <PUBCHEM_CACTVS_HBOND_DONOR>
4
> <PUBCHEM_CACTVS_ROTATABLE_BOND>
16
> <PUBCHEM_CACTVS_SUBSKEYS>
AAADcfB7uAAAAAAAAAAAAAAAAAAAAAAAAAAwYAAAAAAAAAABQAAAHgAQAAAADSjhmAYyCILABACYBiFSGACiAAAgAAAIiIGICIkIZjKAsTmcMAAk1gGIqAecyKCOAAAAAAAAAAAAAAAAAAAAAAAAAAAAAA==
> <PUBCHEM_IUPAC_OPENEYE_NAME>
benzyl N-[(1S)-1-[[(1S)-2-[[(1S)-4-amino-1-(2-cyanovinyl)-4-oxo-butyl]amino]-1-benzyl-2-oxo-ethyl]carbamoyl]-3-methyl-butyl]carbamate
> <PUBCHEM_IUPAC_CAS_NAME>
N-[(2S)-1-[[(2S)-1-[[(3S)-6-amino-1-cyano-6-oxohex-1-en-3-yl]amino]-1-oxo-3-phenylpropan-2-yl]amino]-4-methyl-1-oxopentan-2-yl]carbamic acid (phenylmethyl) ester
> <PUBCHEM_IUPAC_NAME_MARKUP>
benzyl <I>N</I>-[(2<I>S</I>)-1-[[(2<I>S</I>)-1-[[(3<I>S</I>)-6-amino-1-cyano-6-oxohex-1-en-3-yl]amino]-1-oxo-3-phenylpropan-2-yl]amino]-4-methyl-1-oxopentan-2-yl]carbamate
> <PUBCHEM_IUPAC_NAME>
benzyl N-[(2S)-1-[[(2S)-1-[[(3S)-6-amino-1-cyano-6-oxohex-1-en-3-yl]amino]-1-oxo-3-phenylpropan-2-yl]amino]-4-methyl-1-oxopentan-2-yl]carbamate
> <PUBCHEM_IUPAC_SYSTEMATIC_NAME>
(phenylmethyl) N-[(2S)-1-[[(2S)-1-[[(3S)-6-azanyl-1-cyano-6-oxidanylidene-hex-1-en-3-yl]amino]-1-oxidanylidene-3-phenyl-propan-2-yl]amino]-4-methyl-1-oxidanylidene-pentan-2-yl]carbamate
> <PUBCHEM_IUPAC_TRADITIONAL_NAME>
N-[(1S)-1-[[(1S)-2-[[(1S)-1-(3-amino-3-keto-propyl)-3-cyano-allyl]amino]-1-benzyl-2-keto-ethyl]carbamoyl]-3-methyl-butyl]carbamic acid benzyl ester
> <PUBCHEM_IUPAC_INCHI>
InChI=1S/C30H37N5O5/c1-21(2)18-25(35-30(39)40-20-23-12-7-4-8-13-23)29(38)34-26(19-22-10-5-3-6-11-22)28(37)33-24(14-9-17-31)15-16-27(32)36/h3-14,21,24-26H,15-16,18-20H2,1-2H3,(H2,32,36)(H,33,37)(H,34,38)(H,35,39)/t24-,25+,26+/m1/s1
> <PUBCHEM_IUPAC_INCHIKEY>
OIWFWJFBRVUVDY-ZNZIZOMTSA-N
> <PUBCHEM_XLOGP3>
2.6
> <PUBCHEM_EXACT_MASS>
547.27946930
> <PUBCHEM_MOLECULAR_FORMULA>
C30H37N5O5
> <PUBCHEM_MOLECULAR_WEIGHT>
547.6
> <PUBCHEM_OPENEYE_CAN_SMILES>
CC(C)CC(C(=O)NC(CC1=CC=CC=C1)C(=O)NC(CCC(=O)N)C=CC#N)NC(=O)OCC2=CC=CC=C2
> <PUBCHEM_OPENEYE_ISO_SMILES>
CC(C)C[C@@H](C(=O)N[C@@H](CC1=CC=CC=C1)C(=O)N[C@@H](CCC(=O)N)C=CC#N)NC(=O)OCC2=CC=CC=C2
> <PUBCHEM_CACTVS_TPSA>
163
> <PUBCHEM_MONOISOTOPIC_WEIGHT>
547.27946930
> <PUBCHEM_TOTAL_CHARGE>
0
> <PUBCHEM_HEAVY_ATOM_COUNT>
40
> <PUBCHEM_ATOM_DEF_STEREO_COUNT>
3
> <PUBCHEM_ATOM_UDEF_STEREO_COUNT>
0
> <PUBCHEM_BOND_DEF_STEREO_COUNT>
0
> <PUBCHEM_BOND_UDEF_STEREO_COUNT>
1
> <PUBCHEM_ISOTOPIC_ATOM_COUNT>
0
> <PUBCHEM_COMPONENT_COUNT>
1
> <PUBCHEM_CACTVS_TAUTO_COUNT>
-1
> <PUBCHEM_COORDINATE_TYPE>
1
5
255
> <PUBCHEM_BONDANNOTATIONS>
21  26  8
21  27  8
25  32  1
26  28  8
27  29  8
28  31  8
29  31  8
34  36  8
34  37  8
36  38  8
37  39  8
38  40  8
39  40  8
14  6  6
12  7  5
20  8  5
$$$$
