501836
  -OEChem-10302200282D
 95 99  0     1  0  0  0  0  0999 V2000
    3.9198    0.5691    0.0000 S   0  0  0  0  0  0  0  0  0  0  0  0
   10.6986   -2.7673    0.0000 S   0  0  0  0  0  0  0  0  0  0  0  0
    2.1289    4.1105    0.0000 O   0  0  0  0  0  0  0  0  0  0  0  0
    7.0921    1.5873    0.0000 O   0  0  0  0  0  0  0  0  0  0  0  0
    5.5024   -1.7673    0.0000 O   0  0  0  0  0  0  0  0  0  0  0  0
    7.2345    0.2327    0.0000 O   0  0  0  0  0  0  0  0  0  0  0  0
    8.9665   -2.7673    0.0000 O   0  0  0  0  0  0  0  0  0  0  0  0
   10.6986   -3.7673    0.0000 O   0  0  0  0  0  0  0  0  0  0  0  0
    9.6986   -2.7673    0.0000 O   0  0  0  0  0  0  0  0  0  0  0  0
   11.5646    1.7327    0.0000 O   0  0  0  0  0  0  0  0  0  0  0  0
   11.5646   -0.2673    0.0000 O   0  0  0  0  0  0  0  0  0  0  0  0
    5.9331    2.8745    0.0000 N   0  0  0  0  0  0  0  0  0  0  0  0
    5.5024    0.2327    0.0000 N   0  0  0  0  0  0  0  0  0  0  0  0
    8.1005   -1.2673    0.0000 N   0  0  0  0  0  0  0  0  0  0  0  0
    9.8326   -0.2673    0.0000 N   0  0  0  0  0  0  0  0  0  0  0  0
    4.9821    3.1835    0.0000 C   0  0  0  0  0  0  0  0  0  0  0  0
    4.2389    2.5144    0.0000 C   0  0  0  0  0  0  0  0  0  0  0  0
    4.7742    4.1616    0.0000 C   0  0  0  0  0  0  0  0  0  0  0  0
    3.2879    2.8234    0.0000 C   0  0  0  0  0  0  0  0  0  0  0  0
    3.8231    4.4706    0.0000 C   0  0  0  0  0  0  0  0  0  0  0  0
    3.0800    3.8015    0.0000 C   0  0  0  0  0  0  0  0  0  0  0  0
    5.3979    1.2272    0.0000 C   0  0  2  0  0  0  0  0  0  0  0  0
    6.1410    1.8963    0.0000 C   0  0  0  0  0  0  0  0  0  0  0  0
    4.4197    1.4351    0.0000 C   0  0  0  0  0  0  0  0  0  0  0  0
    4.5889   -0.1741    0.0000 C   0  0  0  0  0  0  0  0  0  0  0  0
    6.3684   -1.2673    0.0000 C   0  0  2  0  0  0  0  0  0  0  0  0
    6.3684   -0.2673    0.0000 C   0  0  0  0  0  0  0  0  0  0  0  0
    7.2345   -1.7673    0.0000 C   0  0  2  0  0  0  0  0  0  0  0  0
    7.2345   -2.7673    0.0000 C   0  0  0  0  0  0  0  0  0  0  0  0
    6.3684   -3.2673    0.0000 C   0  0  0  0  0  0  0  0  0  0  0  0
    9.8326   -1.2673    0.0000 C   0  0  2  0  0  0  0  0  0  0  0  0
    8.9665   -1.7673    0.0000 C   0  0  0  0  0  0  0  0  0  0  0  0
   10.6986   -1.7673    0.0000 C   0  0  0  0  0  0  0  0  0  0  0  0
    5.5024   -2.7673    0.0000 C   0  0  0  0  0  0  0  0  0  0  0  0
    6.3684   -4.2673    0.0000 C   0  0  0  0  0  0  0  0  0  0  0  0
    4.6364   -3.2673    0.0000 C   0  0  0  0  0  0  0  0  0  0  0  0
    5.5024   -4.7673    0.0000 C   0  0  0  0  0  0  0  0  0  0  0  0
   11.6986   -2.7673    0.0000 C   0  0  0  0  0  0  0  0  0  0  0  0
   10.6986    0.2327    0.0000 C   0  0  0  0  0  0  0  0  0  0  0  0
    4.6364   -4.2673    0.0000 C   0  0  0  0  0  0  0  0  0  0  0  0
   10.6986    1.2327    0.0000 C   0  0  0  0  0  0  0  0  0  0  0  0
   11.5646    2.7327    0.0000 C   0  0  0  0  0  0  0  0  0  0  0  0
   12.4306    3.2327    0.0000 C   0  0  0  0  0  0  0  0  0  0  0  0
   12.4306    4.2327    0.0000 C   0  0  0  0  0  0  0  0  0  0  0  0
   10.6986    3.2327    0.0000 C   0  0  0  0  0  0  0  0  0  0  0  0
   13.3246    2.6980    0.0000 C   0  0  0  0  0  0  0  0  0  0  0  0
   11.5646    4.7327    0.0000 C   0  0  0  0  0  0  0  0  0  0  0  0
   10.6986    4.2327    0.0000 C   0  0  0  0  0  0  0  0  0  0  0  0
   13.3246    4.7673    0.0000 C   0  0  0  0  0  0  0  0  0  0  0  0
   14.2306    3.2118    0.0000 C   0  0  0  0  0  0  0  0  0  0  0  0
   14.2306    4.2535    0.0000 C   0  0  0  0  0  0  0  0  0  0  0  0
    5.1110    2.5770    0.0000 H   0  0  0  0  0  0  0  0  0  0  0  0
    3.9479    1.9669    0.0000 H   0  0  0  0  0  0  0  0  0  0  0  0
    4.7275    2.1326    0.0000 H   0  0  0  0  0  0  0  0  0  0  0  0
    5.3938    4.1833    0.0000 H   0  0  0  0  0  0  0  0  0  0  0  0
    4.8604    4.7756    0.0000 H   0  0  0  0  0  0  0  0  0  0  0  0
    2.6682    2.8017    0.0000 H   0  0  0  0  0  0  0  0  0  0  0  0
    3.2016    2.2094    0.0000 H   0  0  0  0  0  0  0  0  0  0  0  0
    4.1142    5.0181    0.0000 H   0  0  0  0  0  0  0  0  0  0  0  0
    3.3345    4.8524    0.0000 H   0  0  0  0  0  0  0  0  0  0  0  0
    2.6192    3.3867    0.0000 H   0  0  0  0  0  0  0  0  0  0  0  0
    6.3939    3.2893    0.0000 H   0  0  0  0  0  0  0  0  0  0  0  0
    5.9767    1.0050    0.0000 H   0  0  0  0  0  0  0  0  0  0  0  0
    4.6113    2.0248    0.0000 H   0  0  0  0  0  0  0  0  0  0  0  0
    3.8534    1.6873    0.0000 H   0  0  0  0  0  0  0  0  0  0  0  0
    4.0873   -0.5385    0.0000 H   0  0  0  0  0  0  0  0  0  0  0  0
    4.8989   -0.7110    0.0000 H   0  0  0  0  0  0  0  0  0  0  0  0
    2.0000    4.7170    0.0000 H   0  0  0  0  0  0  0  0  0  0  0  0
    6.3684   -1.8873    0.0000 H   0  0  0  0  0  0  0  0  0  0  0  0
    7.2345   -1.1473    0.0000 H   0  0  0  0  0  0  0  0  0  0  0  0
    7.4465   -3.3499    0.0000 H   0  0  0  0  0  0  0  0  0  0  0  0
    7.8451   -2.6597    0.0000 H   0  0  0  0  0  0  0  0  0  0  0  0
    8.1005   -0.6473    0.0000 H   0  0  0  0  0  0  0  0  0  0  0  0
   10.3695   -0.9573    0.0000 H   0  0  0  0  0  0  0  0  0  0  0  0
    4.9655   -1.4573    0.0000 H   0  0  0  0  0  0  0  0  0  0  0  0
   11.3092   -1.8750    0.0000 H   0  0  0  0  0  0  0  0  0  0  0  0
   10.9106   -1.1847    0.0000 H   0  0  0  0  0  0  0  0  0  0  0  0
    5.5024   -2.1473    0.0000 H   0  0  0  0  0  0  0  0  0  0  0  0
    6.9054   -4.5773    0.0000 H   0  0  0  0  0  0  0  0  0  0  0  0
    9.2956    0.0427    0.0000 H   0  0  0  0  0  0  0  0  0  0  0  0
    4.0995   -2.9573    0.0000 H   0  0  0  0  0  0  0  0  0  0  0  0
    5.5024   -5.3873    0.0000 H   0  0  0  0  0  0  0  0  0  0  0  0
   11.6986   -3.3873    0.0000 H   0  0  0  0  0  0  0  0  0  0  0  0
   12.3186   -2.7673    0.0000 H   0  0  0  0  0  0  0  0  0  0  0  0
   11.6986   -2.1473    0.0000 H   0  0  0  0  0  0  0  0  0  0  0  0
    4.0995   -4.5773    0.0000 H   0  0  0  0  0  0  0  0  0  0  0  0
   10.4865    1.8153    0.0000 H   0  0  0  0  0  0  0  0  0  0  0  0
   10.0880    1.1250    0.0000 H   0  0  0  0  0  0  0  0  0  0  0  0
   10.1616    2.9227    0.0000 H   0  0  0  0  0  0  0  0  0  0  0  0
   13.3174    2.0780    0.0000 H   0  0  0  0  0  0  0  0  0  0  0  0
   11.5646    5.3527    0.0000 H   0  0  0  0  0  0  0  0  0  0  0  0
   10.1616    4.5427    0.0000 H   0  0  0  0  0  0  0  0  0  0  0  0
   13.3174    5.3873    0.0000 H   0  0  0  0  0  0  0  0  0  0  0  0
   14.7664    2.8998    0.0000 H   0  0  0  0  0  0  0  0  0  0  0  0
   14.7664    4.5656    0.0000 H   0  0  0  0  0  0  0  0  0  0  0  0
  1 24  1  0  0  0  0
  1 25  1  0  0  0  0
  2  8  2  0  0  0  0
  2  9  2  0  0  0  0
  2 33  1  0  0  0  0
  2 38  1  0  0  0  0
  3 21  1  0  0  0  0
  3 68  1  0  0  0  0
  4 23  2  0  0  0  0
 26  5  1  6  0  0  0
  5 75  1  0  0  0  0
  6 27  2  0  0  0  0
  7 32  2  0  0  0  0
 10 41  1  0  0  0  0
 10 42  1  0  0  0  0
 11 39  2  0  0  0  0
 12 16  1  0  0  0  0
 12 23  1  0  0  0  0
 12 62  1  0  0  0  0
 13 22  1  0  0  0  0
 13 25  1  0  0  0  0
 13 27  1  0  0  0  0
 28 14  1  1  0  0  0
 14 32  1  0  0  0  0
 14 73  1  0  0  0  0
 31 15  1  1  0  0  0
 15 39  1  0  0  0  0
 15 80  1  0  0  0  0
 16 17  1  0  0  0  0
 16 18  1  0  0  0  0
 16 52  1  0  0  0  0
 17 19  1  0  0  0  0
 17 53  1  0  0  0  0
 17 54  1  0  0  0  0
 18 20  1  0  0  0  0
 18 55  1  0  0  0  0
 18 56  1  0  0  0  0
 19 21  1  0  0  0  0
 19 57  1  0  0  0  0
 19 58  1  0  0  0  0
 20 21  1  0  0  0  0
 20 59  1  0  0  0  0
 20 60  1  0  0  0  0
 21 61  1  0  0  0  0
 22 23  1  1  0  0  0
 22 24  1  0  0  0  0
 22 63  1  0  0  0  0
 24 64  1  0  0  0  0
 24 65  1  0  0  0  0
 25 66  1  0  0  0  0
 25 67  1  0  0  0  0
 26 27  1  0  0  0  0
 26 28  1  0  0  0  0
 26 69  1  0  0  0  0
 28 29  1  0  0  0  0
 28 70  1  0  0  0  0
 29 30  1  0  0  0  0
 29 71  1  0  0  0  0
 29 72  1  0  0  0  0
 30 34  2  0  0  0  0
 30 35  1  0  0  0  0
 31 32  1  0  0  0  0
 31 33  1  0  0  0  0
 31 74  1  0  0  0  0
 33 76  1  0  0  0  0
 33 77  1  0  0  0  0
 34 36  1  0  0  0  0
 34 78  1  0  0  0  0
 35 37  2  0  0  0  0
 35 79  1  0  0  0  0
 36 40  2  0  0  0  0
 36 81  1  0  0  0  0
 37 40  1  0  0  0  0
 37 82  1  0  0  0  0
 38 83  1  0  0  0  0
 38 84  1  0  0  0  0
 38 85  1  0  0  0  0
 39 41  1  0  0  0  0
 40 86  1  0  0  0  0
 41 87  1  0  0  0  0
 41 88  1  0  0  0  0
 42 43  1  0  0  0  0
 42 45  2  0  0  0  0
 43 44  1  0  0  0  0
 43 46  2  0  0  0  0
 44 47  1  0  0  0  0
 44 49  2  0  0  0  0
 45 48  1  0  0  0  0
 45 89  1  0  0  0  0
 46 50  1  0  0  0  0
 46 90  1  0  0  0  0
 47 48  2  0  0  0  0
 47 91  1  0  0  0  0
 48 92  1  0  0  0  0
 49 51  1  0  0  0  0
 49 93  1  0  0  0  0
 50 51  2  0  0  0  0
 50 94  1  0  0  0  0
 51 95  1  0  0  0  0
M  END
> <PUBCHEM_COMPOUND_CID>
501836
> <PUBCHEM_COMPOUND_CANONICALIZED>
1
> <PUBCHEM_CACTVS_COMPLEXITY>
1300
> <PUBCHEM_CACTVS_HBOND_ACCEPTOR>
10
> <PUBCHEM_CACTVS_HBOND_DONOR>
5
> <PUBCHEM_CACTVS_ROTATABLE_BOND>
14
> <PUBCHEM_CACTVS_SUBSKEYS>
AAADcfB/vABgAAAAAAAAAAAAAAAAAWAAAAAwYMGAAAAAAADBVAAAHgQQCAAADDzl2AayBsPABgqIAiFSEHJCCABgIBAIiIHOCIgOdjqk8T+XeCCk1hGYqAe4yLCOgAABAAAYAAAAgAIAADAAAAAAAAAAAA==
> <PUBCHEM_IUPAC_OPENEYE_NAME>
(4R)-N-(4-hydroxycyclohexyl)-3-[(2S,3S)-2-hydroxy-3-[[(2R)-3-methylsulfonyl-2-[[2-(1-naphthyloxy)acetyl]amino]propanoyl]amino]-4-phenyl-butanoyl]thiazolidine-4-carboxamide
> <PUBCHEM_IUPAC_CAS_NAME>
(4R)-N-(4-hydroxycyclohexyl)-3-[(2S,3S)-2-hydroxy-3-[[(2R)-3-methylsulfonyl-2-[[2-(1-naphthalenyloxy)-1-oxoethyl]amino]-1-oxopropyl]amino]-1-oxo-4-phenylbutyl]-4-thiazolidinecarboxamide
> <PUBCHEM_IUPAC_NAME_MARKUP>
(4<I>R</I>)-<I>N</I>-(4-hydroxycyclohexyl)-3-[(2<I>S</I>,3<I>S</I>)-2-hydroxy-3-[[(2<I>R</I>)-3-methylsulfonyl-2-[(2-naphthalen-1-yloxyacetyl)amino]propanoyl]amino]-4-phenylbutanoyl]-1,3-thiazolidine-4-carboxamide
> <PUBCHEM_IUPAC_NAME>
(4R)-N-(4-hydroxycyclohexyl)-3-[(2S,3S)-2-hydroxy-3-[[(2R)-3-methylsulfonyl-2-[(2-naphthalen-1-yloxyacetyl)amino]propanoyl]amino]-4-phenylbutanoyl]-1,3-thiazolidine-4-carboxamide
> <PUBCHEM_IUPAC_SYSTEMATIC_NAME>
(4R)-3-[(2S,3S)-3-[[(2R)-3-methylsulfonyl-2-(2-naphthalen-1-yloxyethanoylamino)propanoyl]amino]-2-oxidanyl-4-phenyl-butanoyl]-N-(4-oxidanylcyclohexyl)-1,3-thiazolidine-4-carboxamide
> <PUBCHEM_IUPAC_TRADITIONAL_NAME>
(4R)-N-(4-hydroxycyclohexyl)-3-[(2S,3S)-2-hydroxy-3-[[(2R)-3-mesyl-2-[[2-(1-naphthoxy)acetyl]amino]propanoyl]amino]-4-phenyl-butanoyl]thiazolidine-4-carboxamide
> <PUBCHEM_IUPAC_INCHI>
InChI=1S/C36H44N4O9S2/c1-51(47,48)21-29(38-32(42)19-49-31-13-7-11-24-10-5-6-12-27(24)31)34(44)39-28(18-23-8-3-2-4-9-23)33(43)36(46)40-22-50-20-30(40)35(45)37-25-14-16-26(41)17-15-25/h2-13,25-26,28-30,33,41,43H,14-22H2,1H3,(H,37,45)(H,38,42)(H,39,44)/t25?,26?,28-,29-,30-,33-/m0/s1
> <PUBCHEM_IUPAC_INCHIKEY>
PJRILMBUWPHWGN-QYYJDYORSA-N
> <PUBCHEM_XLOGP3_AA>
2.7
> <PUBCHEM_EXACT_MASS>
740.25497134
> <PUBCHEM_MOLECULAR_FORMULA>
C36H44N4O9S2
> <PUBCHEM_MOLECULAR_WEIGHT>
740.9
> <PUBCHEM_OPENEYE_CAN_SMILES>
CS(=O)(=O)CC(C(=O)NC(CC1=CC=CC=C1)C(C(=O)N2CSCC2C(=O)NC3CCC(CC3)O)O)NC(=O)COC4=CC=CC5=CC=CC=C54
> <PUBCHEM_OPENEYE_ISO_SMILES>
CS(=O)(=O)C[C@@H](C(=O)N[C@@H](CC1=CC=CC=C1)[C@@H](C(=O)N2CSC[C@H]2C(=O)NC3CCC(CC3)O)O)NC(=O)COC4=CC=CC5=CC=CC=C54
> <PUBCHEM_CACTVS_TPSA>
225
> <PUBCHEM_MONOISOTOPIC_WEIGHT>
740.25497134
> <PUBCHEM_TOTAL_CHARGE>
0
> <PUBCHEM_HEAVY_ATOM_COUNT>
51
> <PUBCHEM_ATOM_DEF_STEREO_COUNT>
4
> <PUBCHEM_ATOM_UDEF_STEREO_COUNT>
0
> <PUBCHEM_BOND_DEF_STEREO_COUNT>
0
> <PUBCHEM_BOND_UDEF_STEREO_COUNT>
0
> <PUBCHEM_ISOTOPIC_ATOM_COUNT>
0
> <PUBCHEM_COMPONENT_COUNT>
1
> <PUBCHEM_CACTVS_TAUTO_COUNT>
-1
> <PUBCHEM_COORDINATE_TYPE>
1
5
255
> <PUBCHEM_BONDANNOTATIONS>
28  14  5
31  15  5
22  23  5
30  34  8
30  35  8
34  36  8
35  37  8
36  40  8
37  40  8
42  43  8
42  45  8
43  44  8
43  46  8
44  47  8
44  49  8
45  48  8
46  50  8
47  48  8
49  51  8
26  5  6
50  51  8
$$$$
