501845
  -OEChem-10302200282D
 98100  0     1  0  0  0  0  0999 V2000
    9.6818   -4.9524    0.0000 S   0  0  0  0  0  0  0  0  0  0  0  0
    8.9774   -1.6960    0.0000 O   0  0  0  0  0  0  0  0  0  0  0  0
    6.8671   -4.7500    0.0000 O   0  0  0  0  0  0  0  0  0  0  0  0
    7.7331   -2.2500    0.0000 O   0  0  0  0  0  0  0  0  0  0  0  0
    4.2690   -2.2500    0.0000 O   0  0  0  0  0  0  0  0  0  0  0  0
    3.4030   -1.7500    0.0000 O   0  0  0  0  0  0  0  0  0  0  0  0
    5.1350    1.2500    0.0000 O   0  0  0  0  0  0  0  0  0  0  0  0
    6.8671    2.2500    0.0000 O   0  0  0  0  0  0  0  0  0  0  0  0
    8.5991    5.2500    0.0000 O   0  0  0  0  0  0  0  0  0  0  0  0
    8.5991   -3.7500    0.0000 N   0  0  0  0  0  0  0  0  0  0  0  0
   10.6716   -2.0561    0.0000 N   0  0  0  0  0  0  0  0  0  0  0  0
    6.0010   -2.2500    0.0000 N   0  0  0  0  0  0  0  0  0  0  0  0
    6.0010   -0.2500    0.0000 N   0  0  0  0  0  0  0  0  0  0  0  0
    2.5369   -0.2500    0.0000 N   0  0  0  0  0  0  0  0  0  0  0  0
   10.1818   -4.0864    0.0000 C   0  0  0  0  0  0  0  0  0  0  0  0
    9.5127   -3.3433    0.0000 C   0  0  1  0  0  0  0  0  0  0  0  0
    8.7036   -4.7445    0.0000 C   0  0  0  0  0  0  0  0  0  0  0  0
   11.0478   -4.5864    0.0000 C   0  0  0  0  0  0  0  0  0  0  0  0
   10.9249   -3.4173    0.0000 C   0  0  0  0  0  0  0  0  0  0  0  0
    9.7206   -2.3651    0.0000 C   0  0  0  0  0  0  0  0  0  0  0  0
    7.7331   -3.2500    0.0000 C   0  0  0  0  0  0  0  0  0  0  0  0
    6.8671   -3.7500    0.0000 C   0  0  2  0  0  0  0  0  0  0  0  0
    6.0010   -3.2500    0.0000 C   0  0  2  0  0  0  0  0  0  0  0  0
   10.8795   -1.0780    0.0000 C   0  0  0  0  0  0  0  0  0  0  0  0
    5.1350   -3.7500    0.0000 C   0  0  0  0  0  0  0  0  0  0  0  0
   11.0875   -0.0998    0.0000 C   0  0  0  0  0  0  0  0  0  0  0  0
   11.8577   -1.2859    0.0000 C   0  0  0  0  0  0  0  0  0  0  0  0
    9.9014   -0.8700    0.0000 C   0  0  0  0  0  0  0  0  0  0  0  0
    5.1350   -4.7500    0.0000 C   0  0  0  0  0  0  0  0  0  0  0  0
    5.1350   -1.7500    0.0000 C   0  0  0  0  0  0  0  0  0  0  0  0
    5.1350   -0.7500    0.0000 C   0  0  2  0  0  0  0  0  0  0  0  0
    6.0010   -5.2500    0.0000 C   0  0  0  0  0  0  0  0  0  0  0  0
    4.2690   -5.2500    0.0000 C   0  0  0  0  0  0  0  0  0  0  0  0
    4.2690   -0.2500    0.0000 C   0  0  0  0  0  0  0  0  0  0  0  0
    6.0010   -6.2500    0.0000 C   0  0  0  0  0  0  0  0  0  0  0  0
    4.2690   -6.2500    0.0000 C   0  0  0  0  0  0  0  0  0  0  0  0
    5.1350   -6.7500    0.0000 C   0  0  0  0  0  0  0  0  0  0  0  0
    3.4030   -0.7500    0.0000 C   0  0  0  0  0  0  0  0  0  0  0  0
    6.0010    0.7500    0.0000 C   0  0  0  0  0  0  0  0  0  0  0  0
    6.8671    1.2500    0.0000 C   0  0  0  0  0  0  0  0  0  0  0  0
    7.7331    2.7500    0.0000 C   0  0  0  0  0  0  0  0  0  0  0  0
    7.7331    3.7500    0.0000 C   0  0  0  0  0  0  0  0  0  0  0  0
    8.5991    2.2500    0.0000 C   0  0  0  0  0  0  0  0  0  0  0  0
    8.5991    4.2500    0.0000 C   0  0  0  0  0  0  0  0  0  0  0  0
    9.4651    2.7500    0.0000 C   0  0  0  0  0  0  0  0  0  0  0  0
    9.4651    3.7500    0.0000 C   0  0  0  0  0  0  0  0  0  0  0  0
    9.4651    5.7500    0.0000 C   0  0  0  0  0  0  0  0  0  0  0  0
    9.4651    6.7500    0.0000 C   0  0  0  0  0  0  0  0  0  0  0  0
   10.3312    5.2500    0.0000 C   0  0  0  0  0  0  0  0  0  0  0  0
    9.0308   -2.9531    0.0000 H   0  0  0  0  0  0  0  0  0  0  0  0
    8.0836   -4.7445    0.0000 H   0  0  0  0  0  0  0  0  0  0  0  0
    8.6388   -5.3611    0.0000 H   0  0  0  0  0  0  0  0  0  0  0  0
   10.7378   -5.1233    0.0000 H   0  0  0  0  0  0  0  0  0  0  0  0
   11.5848   -4.8964    0.0000 H   0  0  0  0  0  0  0  0  0  0  0  0
   11.3578   -4.0495    0.0000 H   0  0  0  0  0  0  0  0  0  0  0  0
   11.3398   -3.8780    0.0000 H   0  0  0  0  0  0  0  0  0  0  0  0
   11.3857   -3.0024    0.0000 H   0  0  0  0  0  0  0  0  0  0  0  0
   10.5101   -2.9565    0.0000 H   0  0  0  0  0  0  0  0  0  0  0  0
    6.3301   -4.0600    0.0000 H   0  0  0  0  0  0  0  0  0  0  0  0
    6.5380   -2.9400    0.0000 H   0  0  0  0  0  0  0  0  0  0  0  0
   11.1324   -2.4710    0.0000 H   0  0  0  0  0  0  0  0  0  0  0  0
    4.9230   -3.1674    0.0000 H   0  0  0  0  0  0  0  0  0  0  0  0
    4.5244   -3.8577    0.0000 H   0  0  0  0  0  0  0  0  0  0  0  0
   11.6939   -0.2287    0.0000 H   0  0  0  0  0  0  0  0  0  0  0  0
   11.2164    0.5066    0.0000 H   0  0  0  0  0  0  0  0  0  0  0  0
   10.4810    0.0291    0.0000 H   0  0  0  0  0  0  0  0  0  0  0  0
   11.7288   -1.8923    0.0000 H   0  0  0  0  0  0  0  0  0  0  0  0
   12.4641   -1.4148    0.0000 H   0  0  0  0  0  0  0  0  0  0  0  0
   11.9866   -0.6794    0.0000 H   0  0  0  0  0  0  0  0  0  0  0  0
   10.0303   -0.2636    0.0000 H   0  0  0  0  0  0  0  0  0  0  0  0
    9.2949   -0.7411    0.0000 H   0  0  0  0  0  0  0  0  0  0  0  0
    9.7725   -1.4765    0.0000 H   0  0  0  0  0  0  0  0  0  0  0  0
    6.5380   -1.9400    0.0000 H   0  0  0  0  0  0  0  0  0  0  0  0
    7.4040   -5.0600    0.0000 H   0  0  0  0  0  0  0  0  0  0  0  0
    5.1350   -0.1300    0.0000 H   0  0  0  0  0  0  0  0  0  0  0  0
    6.5380   -4.9400    0.0000 H   0  0  0  0  0  0  0  0  0  0  0  0
    3.7320   -4.9400    0.0000 H   0  0  0  0  0  0  0  0  0  0  0  0
    4.6675    0.2249    0.0000 H   0  0  0  0  0  0  0  0  0  0  0  0
    3.8705    0.2249    0.0000 H   0  0  0  0  0  0  0  0  0  0  0  0
    6.5380   -0.5600    0.0000 H   0  0  0  0  0  0  0  0  0  0  0  0
    6.5380   -6.5600    0.0000 H   0  0  0  0  0  0  0  0  0  0  0  0
    3.7320   -6.5600    0.0000 H   0  0  0  0  0  0  0  0  0  0  0  0
    5.1350   -7.3700    0.0000 H   0  0  0  0  0  0  0  0  0  0  0  0
    7.0791    0.6674    0.0000 H   0  0  0  0  0  0  0  0  0  0  0  0
    7.4776    1.3577    0.0000 H   0  0  0  0  0  0  0  0  0  0  0  0
    2.0000   -0.5600    0.0000 H   0  0  0  0  0  0  0  0  0  0  0  0
    2.5369    0.3700    0.0000 H   0  0  0  0  0  0  0  0  0  0  0  0
    7.1962    4.0600    0.0000 H   0  0  0  0  0  0  0  0  0  0  0  0
    8.5991    1.6300    0.0000 H   0  0  0  0  0  0  0  0  0  0  0  0
   10.0021    2.4400    0.0000 H   0  0  0  0  0  0  0  0  0  0  0  0
   10.0021    4.0600    0.0000 H   0  0  0  0  0  0  0  0  0  0  0  0
    9.4651    5.1300    0.0000 H   0  0  0  0  0  0  0  0  0  0  0  0
   10.0851    6.7500    0.0000 H   0  0  0  0  0  0  0  0  0  0  0  0
    9.4651    7.3700    0.0000 H   0  0  0  0  0  0  0  0  0  0  0  0
    8.8451    6.7500    0.0000 H   0  0  0  0  0  0  0  0  0  0  0  0
   10.0212    4.7131    0.0000 H   0  0  0  0  0  0  0  0  0  0  0  0
   10.8681    4.9400    0.0000 H   0  0  0  0  0  0  0  0  0  0  0  0
   10.6412    5.7869    0.0000 H   0  0  0  0  0  0  0  0  0  0  0  0
  1 15  1  0  0  0  0
  1 17  1  0  0  0  0
  2 20  2  0  0  0  0
 22  3  1  1  0  0  0
  3 74  1  0  0  0  0
  4 21  2  0  0  0  0
  5 30  2  0  0  0  0
  6 38  2  0  0  0  0
  7 39  2  0  0  0  0
  8 40  1  0  0  0  0
  8 41  1  0  0  0  0
  9 44  1  0  0  0  0
  9 47  1  0  0  0  0
 10 16  1  0  0  0  0
 10 17  1  0  0  0  0
 10 21  1  0  0  0  0
 11 20  1  0  0  0  0
 11 24  1  0  0  0  0
 11 61  1  0  0  0  0
 23 12  1  6  0  0  0
 12 30  1  0  0  0  0
 12 73  1  0  0  0  0
 31 13  1  6  0  0  0
 13 39  1  0  0  0  0
 13 80  1  0  0  0  0
 14 38  1  0  0  0  0
 14 86  1  0  0  0  0
 14 87  1  0  0  0  0
 15 16  1  0  0  0  0
 15 18  1  0  0  0  0
 15 19  1  0  0  0  0
 16 20  1  6  0  0  0
 16 50  1  0  0  0  0
 17 51  1  0  0  0  0
 17 52  1  0  0  0  0
 18 53  1  0  0  0  0
 18 54  1  0  0  0  0
 18 55  1  0  0  0  0
 19 56  1  0  0  0  0
 19 57  1  0  0  0  0
 19 58  1  0  0  0  0
 21 22  1  0  0  0  0
 22 23  1  0  0  0  0
 22 59  1  0  0  0  0
 23 25  1  0  0  0  0
 23 60  1  0  0  0  0
 24 26  1  0  0  0  0
 24 27  1  0  0  0  0
 24 28  1  0  0  0  0
 25 29  1  0  0  0  0
 25 62  1  0  0  0  0
 25 63  1  0  0  0  0
 26 64  1  0  0  0  0
 26 65  1  0  0  0  0
 26 66  1  0  0  0  0
 27 67  1  0  0  0  0
 27 68  1  0  0  0  0
 27 69  1  0  0  0  0
 28 70  1  0  0  0  0
 28 71  1  0  0  0  0
 28 72  1  0  0  0  0
 29 32  2  0  0  0  0
 29 33  1  0  0  0  0
 30 31  1  0  0  0  0
 31 34  1  0  0  0  0
 31 75  1  0  0  0  0
 32 35  1  0  0  0  0
 32 76  1  0  0  0  0
 33 36  2  0  0  0  0
 33 77  1  0  0  0  0
 34 38  1  0  0  0  0
 34 78  1  0  0  0  0
 34 79  1  0  0  0  0
 35 37  2  0  0  0  0
 35 81  1  0  0  0  0
 36 37  1  0  0  0  0
 36 82  1  0  0  0  0
 37 83  1  0  0  0  0
 39 40  1  0  0  0  0
 40 84  1  0  0  0  0
 40 85  1  0  0  0  0
 41 42  2  0  0  0  0
 41 43  1  0  0  0  0
 42 44  1  0  0  0  0
 42 88  1  0  0  0  0
 43 45  2  0  0  0  0
 43 89  1  0  0  0  0
 44 46  2  0  0  0  0
 45 46  1  0  0  0  0
 45 90  1  0  0  0  0
 46 91  1  0  0  0  0
 47 48  1  0  0  0  0
 47 49  1  0  0  0  0
 47 92  1  0  0  0  0
 48 93  1  0  0  0  0
 48 94  1  0  0  0  0
 48 95  1  0  0  0  0
 49 96  1  0  0  0  0
 49 97  1  0  0  0  0
 49 98  1  0  0  0  0
M  END
> <PUBCHEM_COMPOUND_CID>
501845
> <PUBCHEM_COMPOUND_CANONICALIZED>
1
> <PUBCHEM_CACTVS_COMPLEXITY>
1160
> <PUBCHEM_CACTVS_HBOND_ACCEPTOR>
9
> <PUBCHEM_CACTVS_HBOND_DONOR>
5
> <PUBCHEM_CACTVS_ROTATABLE_BOND>
16
> <PUBCHEM_CACTVS_SUBSKEYS>
AAADcfB/vABAAAAAAAAAAAAAAAAAAWAAAAAwYAAAAAAAAAABQAAAHgQQCAAADLzh2AayBoPABgiIAiFSEAICCABgIBAIiIHOCIgOdzqk8T+XeCCl1hWYqAed6KyOAAAACAAAAAAAAAAQAAAAAAAAAAAAAA==
> <PUBCHEM_IUPAC_OPENEYE_NAME>
(2S)-N-[(1S,2S)-1-benzyl-3-[(4R)-4-(tert-butylcarbamoyl)-5,5-dimethyl-thiazolidin-3-yl]-2-hydroxy-3-oxo-propyl]-2-[[2-(3-isopropoxyphenoxy)acetyl]amino]butanediamide
> <PUBCHEM_IUPAC_CAS_NAME>
(2S)-N-[(2S,3S)-4-[(4R)-4-[(tert-butylamino)-oxomethyl]-5,5-dimethyl-3-thiazolidinyl]-3-hydroxy-4-oxo-1-phenylbutan-2-yl]-2-[[1-oxo-2-(3-propan-2-yloxyphenoxy)ethyl]amino]butanediamide
> <PUBCHEM_IUPAC_NAME_MARKUP>
(2<I>S</I>)-<I>N</I>-[(2<I>S</I>,3<I>S</I>)-4-[(4<I>R</I>)-4-(<I>tert</I>-butylcarbamoyl)-5,5-dimethyl-1,3-thiazolidin-3-yl]-3-hydroxy-4-oxo-1-phenylbutan-2-yl]-2-[[2-(3-propan-2-yloxyphenoxy)acetyl]amino]butanediamide
> <PUBCHEM_IUPAC_NAME>
(2S)-N-[(2S,3S)-4-[(4R)-4-(tert-butylcarbamoyl)-5,5-dimethyl-1,3-thiazolidin-3-yl]-3-hydroxy-4-oxo-1-phenylbutan-2-yl]-2-[[2-(3-propan-2-yloxyphenoxy)acetyl]amino]butanediamide
> <PUBCHEM_IUPAC_SYSTEMATIC_NAME>
(2S)-N-[(2S,3S)-4-[(4R)-4-(tert-butylcarbamoyl)-5,5-dimethyl-1,3-thiazolidin-3-yl]-3-oxidanyl-4-oxidanylidene-1-phenyl-butan-2-yl]-2-[2-(3-propan-2-yloxyphenoxy)ethanoylamino]butanediamide
> <PUBCHEM_IUPAC_TRADITIONAL_NAME>
(2S)-N-[(1S,2S)-1-benzyl-3-[(4R)-4-(tert-butylcarbamoyl)-5,5-dimethyl-thiazolidin-3-yl]-2-hydroxy-3-keto-propyl]-2-[[2-(3-isopropoxyphenoxy)acetyl]amino]succinamide
> <PUBCHEM_IUPAC_INCHI>
InChI=1S/C35H49N5O8S/c1-21(2)48-24-15-11-14-23(17-24)47-19-28(42)37-26(18-27(36)41)31(44)38-25(16-22-12-9-8-10-13-22)29(43)33(46)40-20-49-35(6,7)30(40)32(45)39-34(3,4)5/h8-15,17,21,25-26,29-30,43H,16,18-20H2,1-7H3,(H2,36,41)(H,37,42)(H,38,44)(H,39,45)/t25-,26-,29-,30+/m0/s1
> <PUBCHEM_IUPAC_INCHIKEY>
BAZMCUWWCPLZFC-RPQLRNILSA-N
> <PUBCHEM_XLOGP3_AA>
2.6
> <PUBCHEM_EXACT_MASS>
699.33018471
> <PUBCHEM_MOLECULAR_FORMULA>
C35H49N5O8S
> <PUBCHEM_MOLECULAR_WEIGHT>
699.9
> <PUBCHEM_OPENEYE_CAN_SMILES>
CC(C)OC1=CC=CC(=C1)OCC(=O)NC(CC(=O)N)C(=O)NC(CC2=CC=CC=C2)C(C(=O)N3CSC(C3C(=O)NC(C)(C)C)(C)C)O
> <PUBCHEM_OPENEYE_ISO_SMILES>
CC(C)OC1=CC=CC(=C1)OCC(=O)N[C@@H](CC(=O)N)C(=O)N[C@@H](CC2=CC=CC=C2)[C@@H](C(=O)N3CSC([C@H]3C(=O)NC(C)(C)C)(C)C)O
> <PUBCHEM_CACTVS_TPSA>
215
> <PUBCHEM_MONOISOTOPIC_WEIGHT>
699.33018471
> <PUBCHEM_TOTAL_CHARGE>
0
> <PUBCHEM_HEAVY_ATOM_COUNT>
49
> <PUBCHEM_ATOM_DEF_STEREO_COUNT>
4
> <PUBCHEM_ATOM_UDEF_STEREO_COUNT>
0
> <PUBCHEM_BOND_DEF_STEREO_COUNT>
0
> <PUBCHEM_BOND_UDEF_STEREO_COUNT>
0
> <PUBCHEM_ISOTOPIC_ATOM_COUNT>
0
> <PUBCHEM_COMPONENT_COUNT>
1
> <PUBCHEM_CACTVS_TAUTO_COUNT>
-1
> <PUBCHEM_COORDINATE_TYPE>
1
5
255
> <PUBCHEM_BONDANNOTATIONS>
23  12  6
31  13  6
16  20  6
29  32  8
29  33  8
22  3  5
32  35  8
33  36  8
35  37  8
36  37  8
41  42  8
41  43  8
42  44  8
43  45  8
44  46  8
45  46  8
$$$$
