501807
  -OEChem-10302200282D
 89 93  0     1  0  0  0  0  0999 V2000
    2.0000    0.5374    0.0000 S   0  0  0  0  0  0  0  0  0  0  0  0
    5.1724    1.5556    0.0000 O   0  0  0  0  0  0  0  0  0  0  0  0
    3.5827   -1.7990    0.0000 O   0  0  0  0  0  0  0  0  0  0  0  0
    5.3147    0.2010    0.0000 O   0  0  0  0  0  0  0  0  0  0  0  0
    7.0468   -2.7990    0.0000 O   0  0  0  0  0  0  0  0  0  0  0  0
    9.6448    1.7010    0.0000 O   0  0  0  0  0  0  0  0  0  0  0  0
    7.9128   -3.2990    0.0000 O   0  0  0  0  0  0  0  0  0  0  0  0
    9.6448   -0.2990    0.0000 O   0  0  0  0  0  0  0  0  0  0  0  0
    4.0134    2.8428    0.0000 N   0  0  0  0  0  0  0  0  0  0  0  0
    3.5827    0.2010    0.0000 N   0  0  0  0  0  0  0  0  0  0  0  0
    6.1808   -1.2990    0.0000 N   0  0  0  0  0  0  0  0  0  0  0  0
    7.9128   -0.2990    0.0000 N   0  0  0  0  0  0  0  0  0  0  0  0
    9.6448   -3.2990    0.0000 N   0  0  0  0  0  0  0  0  0  0  0  0
    3.4782    1.1955    0.0000 C   0  0  2  0  0  0  0  0  0  0  0  0
    4.7565    3.5119    0.0000 C   0  0  0  0  0  0  0  0  0  0  0  0
    3.0623    3.1518    0.0000 C   0  0  0  0  0  0  0  0  0  0  0  0
    4.5486    4.4900    0.0000 C   0  0  0  0  0  0  0  0  0  0  0  0
    2.8544    4.1299    0.0000 C   0  0  0  0  0  0  0  0  0  0  0  0
    3.5976    4.7990    0.0000 C   0  0  0  0  0  0  0  0  0  0  0  0
    4.2213    1.8646    0.0000 C   0  0  0  0  0  0  0  0  0  0  0  0
    2.5000    1.4034    0.0000 C   0  0  0  0  0  0  0  0  0  0  0  0
    2.6691   -0.2058    0.0000 C   0  0  0  0  0  0  0  0  0  0  0  0
    4.4487   -1.2990    0.0000 C   0  0  2  0  0  0  0  0  0  0  0  0
    4.4487   -0.2990    0.0000 C   0  0  0  0  0  0  0  0  0  0  0  0
    5.3147   -1.7990    0.0000 C   0  0  2  0  0  0  0  0  0  0  0  0
    5.3147   -2.7990    0.0000 C   0  0  0  0  0  0  0  0  0  0  0  0
    4.4487   -3.2990    0.0000 C   0  0  0  0  0  0  0  0  0  0  0  0
    7.0468   -1.7990    0.0000 C   0  0  0  0  0  0  0  0  0  0  0  0
    7.9128   -1.2990    0.0000 C   0  0  2  0  0  0  0  0  0  0  0  0
    3.5827   -2.7990    0.0000 C   0  0  0  0  0  0  0  0  0  0  0  0
    4.4487   -4.2990    0.0000 C   0  0  0  0  0  0  0  0  0  0  0  0
    8.7788   -1.7990    0.0000 C   0  0  0  0  0  0  0  0  0  0  0  0
    2.7166   -3.2990    0.0000 C   0  0  0  0  0  0  0  0  0  0  0  0
    3.5827   -4.7990    0.0000 C   0  0  0  0  0  0  0  0  0  0  0  0
    2.7166   -4.2990    0.0000 C   0  0  0  0  0  0  0  0  0  0  0  0
    8.7788   -2.7990    0.0000 C   0  0  0  0  0  0  0  0  0  0  0  0
    8.7788    0.2010    0.0000 C   0  0  0  0  0  0  0  0  0  0  0  0
    8.7788    1.2010    0.0000 C   0  0  0  0  0  0  0  0  0  0  0  0
    9.6448    2.7010    0.0000 C   0  0  0  0  0  0  0  0  0  0  0  0
   10.5109    3.2010    0.0000 C   0  0  0  0  0  0  0  0  0  0  0  0
   10.5109    4.2010    0.0000 C   0  0  0  0  0  0  0  0  0  0  0  0
    8.7788    3.2010    0.0000 C   0  0  0  0  0  0  0  0  0  0  0  0
   11.4048    2.6663    0.0000 C   0  0  0  0  0  0  0  0  0  0  0  0
    9.6448    4.7010    0.0000 C   0  0  0  0  0  0  0  0  0  0  0  0
    8.7788    4.2010    0.0000 C   0  0  0  0  0  0  0  0  0  0  0  0
   11.4048    4.7356    0.0000 C   0  0  0  0  0  0  0  0  0  0  0  0
   12.3109    3.1801    0.0000 C   0  0  0  0  0  0  0  0  0  0  0  0
   12.3109    4.2218    0.0000 C   0  0  0  0  0  0  0  0  0  0  0  0
    4.0570    0.9733    0.0000 H   0  0  0  0  0  0  0  0  0  0  0  0
    5.0851    2.9861    0.0000 H   0  0  0  0  0  0  0  0  0  0  0  0
    5.3314    3.7441    0.0000 H   0  0  0  0  0  0  0  0  0  0  0  0
    2.4427    3.1301    0.0000 H   0  0  0  0  0  0  0  0  0  0  0  0
    2.9760    2.5378    0.0000 H   0  0  0  0  0  0  0  0  0  0  0  0
    5.1682    4.5117    0.0000 H   0  0  0  0  0  0  0  0  0  0  0  0
    4.6349    5.1040    0.0000 H   0  0  0  0  0  0  0  0  0  0  0  0
    2.5259    4.6557    0.0000 H   0  0  0  0  0  0  0  0  0  0  0  0
    2.2796    3.8977    0.0000 H   0  0  0  0  0  0  0  0  0  0  0  0
    3.8886    5.3465    0.0000 H   0  0  0  0  0  0  0  0  0  0  0  0
    3.1090    5.1808    0.0000 H   0  0  0  0  0  0  0  0  0  0  0  0
    2.6916    1.9930    0.0000 H   0  0  0  0  0  0  0  0  0  0  0  0
    1.9336    1.6556    0.0000 H   0  0  0  0  0  0  0  0  0  0  0  0
    2.1675   -0.5702    0.0000 H   0  0  0  0  0  0  0  0  0  0  0  0
    2.9791   -0.7427    0.0000 H   0  0  0  0  0  0  0  0  0  0  0  0
    3.9118   -0.9890    0.0000 H   0  0  0  0  0  0  0  0  0  0  0  0
    5.3147   -1.1790    0.0000 H   0  0  0  0  0  0  0  0  0  0  0  0
    5.5268   -3.3817    0.0000 H   0  0  0  0  0  0  0  0  0  0  0  0
    5.9253   -2.6914    0.0000 H   0  0  0  0  0  0  0  0  0  0  0  0
    6.1808   -0.6790    0.0000 H   0  0  0  0  0  0  0  0  0  0  0  0
    3.0457   -1.4890    0.0000 H   0  0  0  0  0  0  0  0  0  0  0  0
    8.4497   -0.9890    0.0000 H   0  0  0  0  0  0  0  0  0  0  0  0
    3.5827   -2.1790    0.0000 H   0  0  0  0  0  0  0  0  0  0  0  0
    4.9856   -4.6090    0.0000 H   0  0  0  0  0  0  0  0  0  0  0  0
    9.3894   -1.9067    0.0000 H   0  0  0  0  0  0  0  0  0  0  0  0
    8.9909   -1.2164    0.0000 H   0  0  0  0  0  0  0  0  0  0  0  0
    7.3759    0.0110    0.0000 H   0  0  0  0  0  0  0  0  0  0  0  0
    2.1797   -2.9891    0.0000 H   0  0  0  0  0  0  0  0  0  0  0  0
    3.5827   -5.4191    0.0000 H   0  0  0  0  0  0  0  0  0  0  0  0
    2.1797   -4.6090    0.0000 H   0  0  0  0  0  0  0  0  0  0  0  0
    8.5668    1.7836    0.0000 H   0  0  0  0  0  0  0  0  0  0  0  0
    8.1682    1.0933    0.0000 H   0  0  0  0  0  0  0  0  0  0  0  0
    9.6448   -3.9190    0.0000 H   0  0  0  0  0  0  0  0  0  0  0  0
   10.1818   -2.9891    0.0000 H   0  0  0  0  0  0  0  0  0  0  0  0
    8.2419    2.8910    0.0000 H   0  0  0  0  0  0  0  0  0  0  0  0
   11.3977    2.0463    0.0000 H   0  0  0  0  0  0  0  0  0  0  0  0
    9.6448    5.3210    0.0000 H   0  0  0  0  0  0  0  0  0  0  0  0
    8.2419    4.5110    0.0000 H   0  0  0  0  0  0  0  0  0  0  0  0
   11.3977    5.3556    0.0000 H   0  0  0  0  0  0  0  0  0  0  0  0
   12.8466    2.8681    0.0000 H   0  0  0  0  0  0  0  0  0  0  0  0
   12.8466    4.5338    0.0000 H   0  0  0  0  0  0  0  0  0  0  0  0
  1 21  1  0  0  0  0
  1 22  1  0  0  0  0
  2 20  2  0  0  0  0
 23  3  1  6  0  0  0
  3 69  1  0  0  0  0
  4 24  2  0  0  0  0
  5 28  2  0  0  0  0
  6 38  1  0  0  0  0
  6 39  1  0  0  0  0
  7 36  2  0  0  0  0
  8 37  2  0  0  0  0
  9 15  1  0  0  0  0
  9 16  1  0  0  0  0
  9 20  1  0  0  0  0
 10 14  1  0  0  0  0
 10 22  1  0  0  0  0
 10 24  1  0  0  0  0
 25 11  1  1  0  0  0
 11 28  1  0  0  0  0
 11 68  1  0  0  0  0
 29 12  1  1  0  0  0
 12 37  1  0  0  0  0
 12 75  1  0  0  0  0
 13 36  1  0  0  0  0
 13 81  1  0  0  0  0
 13 82  1  0  0  0  0
 14 20  1  1  0  0  0
 14 21  1  0  0  0  0
 14 49  1  0  0  0  0
 15 17  1  0  0  0  0
 15 50  1  0  0  0  0
 15 51  1  0  0  0  0
 16 18  1  0  0  0  0
 16 52  1  0  0  0  0
 16 53  1  0  0  0  0
 17 19  1  0  0  0  0
 17 54  1  0  0  0  0
 17 55  1  0  0  0  0
 18 19  1  0  0  0  0
 18 56  1  0  0  0  0
 18 57  1  0  0  0  0
 19 58  1  0  0  0  0
 19 59  1  0  0  0  0
 21 60  1  0  0  0  0
 21 61  1  0  0  0  0
 22 62  1  0  0  0  0
 22 63  1  0  0  0  0
 23 24  1  0  0  0  0
 23 25  1  0  0  0  0
 23 64  1  0  0  0  0
 25 26  1  0  0  0  0
 25 65  1  0  0  0  0
 26 27  1  0  0  0  0
 26 66  1  0  0  0  0
 26 67  1  0  0  0  0
 27 30  2  0  0  0  0
 27 31  1  0  0  0  0
 28 29  1  0  0  0  0
 29 32  1  0  0  0  0
 29 70  1  0  0  0  0
 30 33  1  0  0  0  0
 30 71  1  0  0  0  0
 31 34  2  0  0  0  0
 31 72  1  0  0  0  0
 32 36  1  0  0  0  0
 32 73  1  0  0  0  0
 32 74  1  0  0  0  0
 33 35  2  0  0  0  0
 33 76  1  0  0  0  0
 34 35  1  0  0  0  0
 34 77  1  0  0  0  0
 35 78  1  0  0  0  0
 37 38  1  0  0  0  0
 38 79  1  0  0  0  0
 38 80  1  0  0  0  0
 39 40  1  0  0  0  0
 39 42  2  0  0  0  0
 40 41  1  0  0  0  0
 40 43  2  0  0  0  0
 41 44  1  0  0  0  0
 41 46  2  0  0  0  0
 42 45  1  0  0  0  0
 42 83  1  0  0  0  0
 43 47  1  0  0  0  0
 43 84  1  0  0  0  0
 44 45  2  0  0  0  0
 44 85  1  0  0  0  0
 45 86  1  0  0  0  0
 46 48  1  0  0  0  0
 46 87  1  0  0  0  0
 47 48  2  0  0  0  0
 47 88  1  0  0  0  0
 48 89  1  0  0  0  0
M  END
> <PUBCHEM_COMPOUND_CID>
501807
> <PUBCHEM_COMPOUND_CANONICALIZED>
1
> <PUBCHEM_CACTVS_COMPLEXITY>
1130
> <PUBCHEM_CACTVS_HBOND_ACCEPTOR>
8
> <PUBCHEM_CACTVS_HBOND_DONOR>
4
> <PUBCHEM_CACTVS_ROTATABLE_BOND>
13
> <PUBCHEM_CACTVS_SUBSKEYS>
AAADcfB/uABAAAAAAAAAAAAAAAAAAWAAAAA8YMEAAAAAAADBVAAAHgQQCAAADDzl2AawBsPABgiIAiFSEAICCABgIBAIiIHOCIgOdjqk8T+XeCCk1hGYqAedyLCOgAABAAAYAAAAAAIAADAAAAAAAAAAAA==
> <PUBCHEM_IUPAC_OPENEYE_NAME>
(2S)-N-[(1S,2S)-1-benzyl-2-hydroxy-3-oxo-3-[(4R)-4-(piperidine-1-carbonyl)thiazolidin-3-yl]propyl]-2-[[2-(1-naphthyloxy)acetyl]amino]butanediamide
> <PUBCHEM_IUPAC_CAS_NAME>
(2S)-N-[(2S,3S)-3-hydroxy-4-oxo-4-[(4R)-4-[oxo(1-piperidinyl)methyl]-3-thiazolidinyl]-1-phenylbutan-2-yl]-2-[[2-(1-naphthalenyloxy)-1-oxoethyl]amino]butanediamide
> <PUBCHEM_IUPAC_NAME_MARKUP>
(2<I>S</I>)-<I>N</I>-[(2<I>S</I>,3<I>S</I>)-3-hydroxy-4-oxo-1-phenyl-4-[(4<I>R</I>)-4-(piperidine-1-carbonyl)-1,3-thiazolidin-3-yl]butan-2-yl]-2-[(2-naphthalen-1-yloxyacetyl)amino]butanediamide
> <PUBCHEM_IUPAC_NAME>
(2S)-N-[(2S,3S)-3-hydroxy-4-oxo-1-phenyl-4-[(4R)-4-(piperidine-1-carbonyl)-1,3-thiazolidin-3-yl]butan-2-yl]-2-[(2-naphthalen-1-yloxyacetyl)amino]butanediamide
> <PUBCHEM_IUPAC_SYSTEMATIC_NAME>
(2S)-2-(2-naphthalen-1-yloxyethanoylamino)-N-[(2S,3S)-3-oxidanyl-4-oxidanylidene-1-phenyl-4-[(4R)-4-piperidin-1-ylcarbonyl-1,3-thiazolidin-3-yl]butan-2-yl]butanediamide
> <PUBCHEM_IUPAC_TRADITIONAL_NAME>
(2S)-N-[(1S,2S)-1-benzyl-2-hydroxy-3-keto-3-[(4R)-4-(piperidine-1-carbonyl)thiazolidin-3-yl]propyl]-2-[[2-(1-naphthoxy)acetyl]amino]succinamide
> <PUBCHEM_IUPAC_INCHI>
InChI=1S/C35H41N5O7S/c36-30(41)19-27(37-31(42)20-47-29-15-9-13-24-12-5-6-14-25(24)29)33(44)38-26(18-23-10-3-1-4-11-23)32(43)35(46)40-22-48-21-28(40)34(45)39-16-7-2-8-17-39/h1,3-6,9-15,26-28,32,43H,2,7-8,16-22H2,(H2,36,41)(H,37,42)(H,38,44)/t26-,27-,28-,32-/m0/s1
> <PUBCHEM_IUPAC_INCHIKEY>
WDWYYLFILSBWFQ-OAJQQGRKSA-N
> <PUBCHEM_XLOGP3_AA>
2.5
> <PUBCHEM_EXACT_MASS>
675.27266984
> <PUBCHEM_MOLECULAR_FORMULA>
C35H41N5O7S
> <PUBCHEM_MOLECULAR_WEIGHT>
675.8
> <PUBCHEM_OPENEYE_CAN_SMILES>
C1CCN(CC1)C(=O)C2CSCN2C(=O)C(C(CC3=CC=CC=C3)NC(=O)C(CC(=O)N)NC(=O)COC4=CC=CC5=CC=CC=C54)O
> <PUBCHEM_OPENEYE_ISO_SMILES>
C1CCN(CC1)C(=O)[C@@H]2CSCN2C(=O)[C@H]([C@H](CC3=CC=CC=C3)NC(=O)[C@H](CC(=O)N)NC(=O)COC4=CC=CC5=CC=CC=C54)O
> <PUBCHEM_CACTVS_TPSA>
197
> <PUBCHEM_MONOISOTOPIC_WEIGHT>
675.27266984
> <PUBCHEM_TOTAL_CHARGE>
0
> <PUBCHEM_HEAVY_ATOM_COUNT>
48
> <PUBCHEM_ATOM_DEF_STEREO_COUNT>
4
> <PUBCHEM_ATOM_UDEF_STEREO_COUNT>
0
> <PUBCHEM_BOND_DEF_STEREO_COUNT>
0
> <PUBCHEM_BOND_UDEF_STEREO_COUNT>
0
> <PUBCHEM_ISOTOPIC_ATOM_COUNT>
0
> <PUBCHEM_COMPONENT_COUNT>
1
> <PUBCHEM_CACTVS_TAUTO_COUNT>
-1
> <PUBCHEM_COORDINATE_TYPE>
1
5
255
> <PUBCHEM_BONDANNOTATIONS>
25  11  5
29  12  5
14  20  5
27  30  8
27  31  8
23  3  6
30  33  8
31  34  8
33  35  8
34  35  8
39  40  8
39  42  8
40  41  8
40  43  8
41  44  8
41  46  8
42  45  8
43  47  8
44  45  8
46  48  8
47  48  8
$$$$
