501804
  -OEChem-10302200282D
 91 94  0     1  0  0  0  0  0999 V2000
    2.6863    0.5691    0.0000 S   0  0  0  0  0  0  0  0  0  0  0  0
    9.4651   -2.7673    0.0000 S   0  0  0  0  0  0  0  0  0  0  0  0
    4.2690   -1.7673    0.0000 O   0  0  0  0  0  0  0  0  0  0  0  0
    6.0010    0.2327    0.0000 O   0  0  0  0  0  0  0  0  0  0  0  0
    5.8586    1.5873    0.0000 O   0  0  0  0  0  0  0  0  0  0  0  0
    2.5896    4.4706    0.0000 O   0  0  0  0  0  0  0  0  0  0  0  0
    7.7331   -2.7673    0.0000 O   0  0  0  0  0  0  0  0  0  0  0  0
    9.4651   -3.7673    0.0000 O   0  0  0  0  0  0  0  0  0  0  0  0
    8.4651   -2.7673    0.0000 O   0  0  0  0  0  0  0  0  0  0  0  0
   10.3312    1.7327    0.0000 O   0  0  0  0  0  0  0  0  0  0  0  0
   10.3312   -0.2673    0.0000 O   0  0  0  0  0  0  0  0  0  0  0  0
    4.2690    0.2327    0.0000 N   0  0  0  0  0  0  0  0  0  0  0  0
    4.6997    2.8745    0.0000 N   0  0  0  0  0  0  0  0  0  0  0  0
    6.8670   -1.2673    0.0000 N   0  0  0  0  0  0  0  0  0  0  0  0
    8.5991   -0.2673    0.0000 N   0  0  0  0  0  0  0  0  0  0  0  0
    4.1645    1.2272    0.0000 C   0  0  1  0  0  0  0  0  0  0  0  0
    6.0010   -1.7673    0.0000 C   0  0  2  0  0  0  0  0  0  0  0  0
    5.1350   -1.2673    0.0000 C   0  0  1  0  0  0  0  0  0  0  0  0
    3.1863    1.4351    0.0000 C   0  0  0  0  0  0  0  0  0  0  0  0
    5.1350   -0.2673    0.0000 C   0  0  0  0  0  0  0  0  0  0  0  0
    3.3554   -0.1741    0.0000 C   0  0  0  0  0  0  0  0  0  0  0  0
    4.9076    1.8963    0.0000 C   0  0  0  0  0  0  0  0  0  0  0  0
    3.7486    3.1835    0.0000 C   0  0  0  0  0  0  0  0  0  0  0  0
    6.0010   -2.7673    0.0000 C   0  0  0  0  0  0  0  0  0  0  0  0
    8.5991   -1.2673    0.0000 C   0  0  2  0  0  0  0  0  0  0  0  0
    7.7331   -1.7673    0.0000 C   0  0  0  0  0  0  0  0  0  0  0  0
    5.1350   -3.2673    0.0000 C   0  0  0  0  0  0  0  0  0  0  0  0
    2.7976    3.4925    0.0000 C   0  0  0  0  0  0  0  0  0  0  0  0
    4.0576    4.1345    0.0000 C   0  0  0  0  0  0  0  0  0  0  0  0
    3.4396    2.2324    0.0000 C   0  0  0  0  0  0  0  0  0  0  0  0
    9.4651   -1.7673    0.0000 C   0  0  0  0  0  0  0  0  0  0  0  0
    4.2690   -2.7673    0.0000 C   0  0  0  0  0  0  0  0  0  0  0  0
    5.1350   -4.2673    0.0000 C   0  0  0  0  0  0  0  0  0  0  0  0
   10.4651   -2.7673    0.0000 C   0  0  0  0  0  0  0  0  0  0  0  0
    3.4030   -3.2673    0.0000 C   0  0  0  0  0  0  0  0  0  0  0  0
    4.2690   -4.7673    0.0000 C   0  0  0  0  0  0  0  0  0  0  0  0
    9.4651    0.2327    0.0000 C   0  0  0  0  0  0  0  0  0  0  0  0
    3.4030   -4.2673    0.0000 C   0  0  0  0  0  0  0  0  0  0  0  0
    9.4651    1.2327    0.0000 C   0  0  0  0  0  0  0  0  0  0  0  0
   10.3312    2.7327    0.0000 C   0  0  0  0  0  0  0  0  0  0  0  0
   11.1972    3.2327    0.0000 C   0  0  0  0  0  0  0  0  0  0  0  0
   11.1972    4.2327    0.0000 C   0  0  0  0  0  0  0  0  0  0  0  0
    9.4651    3.2327    0.0000 C   0  0  0  0  0  0  0  0  0  0  0  0
   12.0911    2.6980    0.0000 C   0  0  0  0  0  0  0  0  0  0  0  0
   10.3312    4.7327    0.0000 C   0  0  0  0  0  0  0  0  0  0  0  0
    9.4651    4.2327    0.0000 C   0  0  0  0  0  0  0  0  0  0  0  0
   12.0911    4.7673    0.0000 C   0  0  0  0  0  0  0  0  0  0  0  0
   12.9972    3.2118    0.0000 C   0  0  0  0  0  0  0  0  0  0  0  0
   12.9972    4.2535    0.0000 C   0  0  0  0  0  0  0  0  0  0  0  0
    4.7433    1.0050    0.0000 H   0  0  0  0  0  0  0  0  0  0  0  0
    6.5380   -2.0773    0.0000 H   0  0  0  0  0  0  0  0  0  0  0  0
    4.5981   -0.9573    0.0000 H   0  0  0  0  0  0  0  0  0  0  0  0
    3.3779    2.0248    0.0000 H   0  0  0  0  0  0  0  0  0  0  0  0
    2.6199    1.6873    0.0000 H   0  0  0  0  0  0  0  0  0  0  0  0
    2.8538   -0.5385    0.0000 H   0  0  0  0  0  0  0  0  0  0  0  0
    3.6654   -0.7110    0.0000 H   0  0  0  0  0  0  0  0  0  0  0  0
    6.2131   -3.3499    0.0000 H   0  0  0  0  0  0  0  0  0  0  0  0
    6.6116   -2.6597    0.0000 H   0  0  0  0  0  0  0  0  0  0  0  0
    5.1604    3.2893    0.0000 H   0  0  0  0  0  0  0  0  0  0  0  0
    6.8670   -0.6473    0.0000 H   0  0  0  0  0  0  0  0  0  0  0  0
    8.0622   -0.9573    0.0000 H   0  0  0  0  0  0  0  0  0  0  0  0
    2.1779    3.4709    0.0000 H   0  0  0  0  0  0  0  0  0  0  0  0
    2.7113    2.8785    0.0000 H   0  0  0  0  0  0  0  0  0  0  0  0
    4.6473    3.9430    0.0000 H   0  0  0  0  0  0  0  0  0  0  0  0
    4.2492    4.7242    0.0000 H   0  0  0  0  0  0  0  0  0  0  0  0
    3.4680    4.3261    0.0000 H   0  0  0  0  0  0  0  0  0  0  0  0
    2.8500    2.4240    0.0000 H   0  0  0  0  0  0  0  0  0  0  0  0
    3.2480    1.6428    0.0000 H   0  0  0  0  0  0  0  0  0  0  0  0
    4.0293    2.0408    0.0000 H   0  0  0  0  0  0  0  0  0  0  0  0
   10.0757   -1.8750    0.0000 H   0  0  0  0  0  0  0  0  0  0  0  0
    9.6772   -1.1847    0.0000 H   0  0  0  0  0  0  0  0  0  0  0  0
    3.7320   -1.4573    0.0000 H   0  0  0  0  0  0  0  0  0  0  0  0
    8.0622    0.0427    0.0000 H   0  0  0  0  0  0  0  0  0  0  0  0
    4.2690   -2.1473    0.0000 H   0  0  0  0  0  0  0  0  0  0  0  0
    5.6719   -4.5773    0.0000 H   0  0  0  0  0  0  0  0  0  0  0  0
    2.0000    4.6622    0.0000 H   0  0  0  0  0  0  0  0  0  0  0  0
   10.4651   -3.3873    0.0000 H   0  0  0  0  0  0  0  0  0  0  0  0
   11.0851   -2.7673    0.0000 H   0  0  0  0  0  0  0  0  0  0  0  0
   10.4651   -2.1473    0.0000 H   0  0  0  0  0  0  0  0  0  0  0  0
    2.8660   -2.9573    0.0000 H   0  0  0  0  0  0  0  0  0  0  0  0
    4.2690   -5.3873    0.0000 H   0  0  0  0  0  0  0  0  0  0  0  0
    2.8660   -4.5773    0.0000 H   0  0  0  0  0  0  0  0  0  0  0  0
    9.2531    1.8153    0.0000 H   0  0  0  0  0  0  0  0  0  0  0  0
    8.8546    1.1250    0.0000 H   0  0  0  0  0  0  0  0  0  0  0  0
    8.9282    2.9227    0.0000 H   0  0  0  0  0  0  0  0  0  0  0  0
   12.0840    2.0780    0.0000 H   0  0  0  0  0  0  0  0  0  0  0  0
   10.3312    5.3527    0.0000 H   0  0  0  0  0  0  0  0  0  0  0  0
    8.9282    4.5427    0.0000 H   0  0  0  0  0  0  0  0  0  0  0  0
   12.0840    5.3873    0.0000 H   0  0  0  0  0  0  0  0  0  0  0  0
   13.5329    2.8998    0.0000 H   0  0  0  0  0  0  0  0  0  0  0  0
   13.5329    4.5656    0.0000 H   0  0  0  0  0  0  0  0  0  0  0  0
  1 19  1  0  0  0  0
  1 21  1  0  0  0  0
  2  8  2  0  0  0  0
  2  9  2  0  0  0  0
  2 31  1  0  0  0  0
  2 34  1  0  0  0  0
 18  3  1  6  0  0  0
  3 72  1  0  0  0  0
  4 20  2  0  0  0  0
  5 22  2  0  0  0  0
  6 28  1  0  0  0  0
  6 76  1  0  0  0  0
  7 26  2  0  0  0  0
 10 39  1  0  0  0  0
 10 40  1  0  0  0  0
 11 37  2  0  0  0  0
 12 16  1  0  0  0  0
 12 20  1  0  0  0  0
 12 21  1  0  0  0  0
 13 22  1  0  0  0  0
 13 23  1  0  0  0  0
 13 59  1  0  0  0  0
 17 14  1  1  0  0  0
 14 26  1  0  0  0  0
 14 60  1  0  0  0  0
 25 15  1  1  0  0  0
 15 37  1  0  0  0  0
 15 73  1  0  0  0  0
 16 19  1  0  0  0  0
 16 22  1  1  0  0  0
 16 50  1  0  0  0  0
 17 18  1  0  0  0  0
 17 24  1  0  0  0  0
 17 51  1  0  0  0  0
 18 20  1  0  0  0  0
 18 52  1  0  0  0  0
 19 53  1  0  0  0  0
 19 54  1  0  0  0  0
 21 55  1  0  0  0  0
 21 56  1  0  0  0  0
 23 28  1  0  0  0  0
 23 29  1  0  0  0  0
 23 30  1  0  0  0  0
 24 27  1  0  0  0  0
 24 57  1  0  0  0  0
 24 58  1  0  0  0  0
 25 26  1  0  0  0  0
 25 31  1  0  0  0  0
 25 61  1  0  0  0  0
 27 32  2  0  0  0  0
 27 33  1  0  0  0  0
 28 62  1  0  0  0  0
 28 63  1  0  0  0  0
 29 64  1  0  0  0  0
 29 65  1  0  0  0  0
 29 66  1  0  0  0  0
 30 67  1  0  0  0  0
 30 68  1  0  0  0  0
 30 69  1  0  0  0  0
 31 70  1  0  0  0  0
 31 71  1  0  0  0  0
 32 35  1  0  0  0  0
 32 74  1  0  0  0  0
 33 36  2  0  0  0  0
 33 75  1  0  0  0  0
 34 77  1  0  0  0  0
 34 78  1  0  0  0  0
 34 79  1  0  0  0  0
 35 38  2  0  0  0  0
 35 80  1  0  0  0  0
 36 38  1  0  0  0  0
 36 81  1  0  0  0  0
 37 39  1  0  0  0  0
 38 82  1  0  0  0  0
 39 83  1  0  0  0  0
 39 84  1  0  0  0  0
 40 41  1  0  0  0  0
 40 43  2  0  0  0  0
 41 42  1  0  0  0  0
 41 44  2  0  0  0  0
 42 45  1  0  0  0  0
 42 47  2  0  0  0  0
 43 46  1  0  0  0  0
 43 85  1  0  0  0  0
 44 48  1  0  0  0  0
 44 86  1  0  0  0  0
 45 46  2  0  0  0  0
 45 87  1  0  0  0  0
 46 88  1  0  0  0  0
 47 49  1  0  0  0  0
 47 89  1  0  0  0  0
 48 49  2  0  0  0  0
 48 90  1  0  0  0  0
 49 91  1  0  0  0  0
M  END
> <PUBCHEM_COMPOUND_CID>
501804
> <PUBCHEM_COMPOUND_CANONICALIZED>
1
> <PUBCHEM_CACTVS_COMPLEXITY>
1250
> <PUBCHEM_CACTVS_HBOND_ACCEPTOR>
10
> <PUBCHEM_CACTVS_HBOND_DONOR>
5
> <PUBCHEM_CACTVS_ROTATABLE_BOND>
15
> <PUBCHEM_CACTVS_SUBSKEYS>
AAADcfB/vABgAAAAAAAAAAAAAAAAAWAAAAAwYMAAAAAAAADBVAAAHgQQCAAADLzl2AayBsPABgqIAiFSEHJCCABgIBAIiIHOCIgOdjqk8T+XeCCk1hGYqAeYyLCOgAABAAAYAAAAAAIAADAAAAAAAAAAAA==
> <PUBCHEM_IUPAC_OPENEYE_NAME>
(4R)-N-(2-hydroxy-1,1-dimethyl-ethyl)-3-[(2S,3S)-2-hydroxy-3-[[(2R)-3-methylsulfonyl-2-[[2-(1-naphthyloxy)acetyl]amino]propanoyl]amino]-4-phenyl-butanoyl]thiazolidine-4-carboxamide
> <PUBCHEM_IUPAC_CAS_NAME>
(4R)-N-(1-hydroxy-2-methylpropan-2-yl)-3-[(2S,3S)-2-hydroxy-3-[[(2R)-3-methylsulfonyl-2-[[2-(1-naphthalenyloxy)-1-oxoethyl]amino]-1-oxopropyl]amino]-1-oxo-4-phenylbutyl]-4-thiazolidinecarboxamide
> <PUBCHEM_IUPAC_NAME_MARKUP>
(4<I>R</I>)-<I>N</I>-(1-hydroxy-2-methylpropan-2-yl)-3-[(2<I>S</I>,3<I>S</I>)-2-hydroxy-3-[[(2<I>R</I>)-3-methylsulfonyl-2-[(2-naphthalen-1-yloxyacetyl)amino]propanoyl]amino]-4-phenylbutanoyl]-1,3-thiazolidine-4-carboxamide
> <PUBCHEM_IUPAC_NAME>
(4R)-N-(1-hydroxy-2-methylpropan-2-yl)-3-[(2S,3S)-2-hydroxy-3-[[(2R)-3-methylsulfonyl-2-[(2-naphthalen-1-yloxyacetyl)amino]propanoyl]amino]-4-phenylbutanoyl]-1,3-thiazolidine-4-carboxamide
> <PUBCHEM_IUPAC_SYSTEMATIC_NAME>
(4R)-N-(2-methyl-1-oxidanyl-propan-2-yl)-3-[(2S,3S)-3-[[(2R)-3-methylsulfonyl-2-(2-naphthalen-1-yloxyethanoylamino)propanoyl]amino]-2-oxidanyl-4-phenyl-butanoyl]-1,3-thiazolidine-4-carboxamide
> <PUBCHEM_IUPAC_TRADITIONAL_NAME>
(4R)-N-(2-hydroxy-1,1-dimethyl-ethyl)-3-[(2S,3S)-2-hydroxy-3-[[(2R)-3-mesyl-2-[[2-(1-naphthoxy)acetyl]amino]propanoyl]amino]-4-phenyl-butanoyl]thiazolidine-4-carboxamide
> <PUBCHEM_IUPAC_INCHI>
InChI=1S/C34H42N4O9S2/c1-34(2,20-39)37-32(43)27-18-48-21-38(27)33(44)30(41)25(16-22-10-5-4-6-11-22)36-31(42)26(19-49(3,45)46)35-29(40)17-47-28-15-9-13-23-12-7-8-14-24(23)28/h4-15,25-27,30,39,41H,16-21H2,1-3H3,(H,35,40)(H,36,42)(H,37,43)/t25-,26-,27-,30-/m0/s1
> <PUBCHEM_IUPAC_INCHIKEY>
RVBQHZQLYRQITC-YRUYCOJQSA-N
> <PUBCHEM_XLOGP3_AA>
2
> <PUBCHEM_EXACT_MASS>
714.23932128
> <PUBCHEM_MOLECULAR_FORMULA>
C34H42N4O9S2
> <PUBCHEM_MOLECULAR_WEIGHT>
714.9
> <PUBCHEM_OPENEYE_CAN_SMILES>
CC(C)(CO)NC(=O)C1CSCN1C(=O)C(C(CC2=CC=CC=C2)NC(=O)C(CS(=O)(=O)C)NC(=O)COC3=CC=CC4=CC=CC=C43)O
> <PUBCHEM_OPENEYE_ISO_SMILES>
CC(C)(CO)NC(=O)[C@@H]1CSCN1C(=O)[C@H]([C@H](CC2=CC=CC=C2)NC(=O)[C@H](CS(=O)(=O)C)NC(=O)COC3=CC=CC4=CC=CC=C43)O
> <PUBCHEM_CACTVS_TPSA>
225
> <PUBCHEM_MONOISOTOPIC_WEIGHT>
714.23932128
> <PUBCHEM_TOTAL_CHARGE>
0
> <PUBCHEM_HEAVY_ATOM_COUNT>
49
> <PUBCHEM_ATOM_DEF_STEREO_COUNT>
4
> <PUBCHEM_ATOM_UDEF_STEREO_COUNT>
0
> <PUBCHEM_BOND_DEF_STEREO_COUNT>
0
> <PUBCHEM_BOND_UDEF_STEREO_COUNT>
0
> <PUBCHEM_ISOTOPIC_ATOM_COUNT>
0
> <PUBCHEM_COMPONENT_COUNT>
1
> <PUBCHEM_CACTVS_TAUTO_COUNT>
-1
> <PUBCHEM_COORDINATE_TYPE>
1
5
255
> <PUBCHEM_BONDANNOTATIONS>
17  14  5
25  15  5
16  22  5
27  32  8
27  33  8
18  3  6
32  35  8
33  36  8
35  38  8
36  38  8
40  41  8
40  43  8
41  42  8
41  44  8
42  45  8
42  47  8
43  46  8
44  48  8
45  46  8
47  49  8
48  49  8
$$$$
