501835
  -OEChem-10302200282D
 95 99  0     1  0  0  0  0  0999 V2000
    8.3916   -5.3285    0.0000 S   0  0  0  0  0  0  0  0  0  0  0  0
    5.2935    0.7103    0.0000 S   0  0  0  0  0  0  0  0  0  0  0  0
    9.6237   -2.7897    0.0000 O   0  0  0  0  0  0  0  0  0  0  0  0
    7.0256   -2.2897    0.0000 O   0  0  0  0  0  0  0  0  0  0  0  0
    5.9236   -3.0903    0.0000 O   0  0  0  0  0  0  0  0  0  0  0  0
    8.7576    0.7103    0.0000 O   0  0  0  0  0  0  0  0  0  0  0  0
    4.7935   -0.1557    0.0000 O   0  0  0  0  0  0  0  0  0  0  0  0
    5.7935    1.5763    0.0000 O   0  0  0  0  0  0  0  0  0  0  0  0
    8.7576    3.7103    0.0000 O   0  0  0  0  0  0  0  0  0  0  0  0
    4.9726   -2.7813    0.0000 O   0  0  0  0  0  0  0  0  0  0  0  0
    8.7576    1.7103    0.0000 O   0  0  0  0  0  0  0  0  0  0  0  0
    7.8916   -3.7897    0.0000 N   0  0  0  0  0  0  0  0  0  0  0  0
    7.8916   -0.7897    0.0000 N   0  0  0  0  0  0  0  0  0  0  0  0
    5.3884   -4.7376    0.0000 N   0  0  0  0  0  0  0  0  0  0  0  0
    7.0256    1.7103    0.0000 N   0  0  0  0  0  0  0  0  0  0  0  0
    3.2784   -3.1414    0.0000 N   0  0  0  0  0  0  0  0  0  0  0  0
    7.0826   -4.3775    0.0000 C   0  0  1  0  0  0  0  0  0  0  0  0
    8.7576   -1.2897    0.0000 C   0  0  2  0  0  0  0  0  0  0  0  0
    8.7576   -2.2897    0.0000 C   0  0  1  0  0  0  0  0  0  0  0  0
    7.8916   -2.7897    0.0000 C   0  0  0  0  0  0  0  0  0  0  0  0
    7.3916   -5.3285    0.0000 C   0  0  0  0  0  0  0  0  0  0  0  0
    8.7006   -4.3775    0.0000 C   0  0  0  0  0  0  0  0  0  0  0  0
    9.6237   -0.7897    0.0000 C   0  0  0  0  0  0  0  0  0  0  0  0
    6.1316   -4.0684    0.0000 C   0  0  0  0  0  0  0  0  0  0  0  0
    7.0256    0.7103    0.0000 C   0  0  2  0  0  0  0  0  0  0  0  0
    7.8916    0.2103    0.0000 C   0  0  0  0  0  0  0  0  0  0  0  0
   10.4897   -1.2897    0.0000 C   0  0  0  0  0  0  0  0  0  0  0  0
    6.1596    0.2103    0.0000 C   0  0  0  0  0  0  0  0  0  0  0  0
    4.4374   -4.4286    0.0000 C   0  0  1  0  0  0  0  0  0  0  0  0
   11.3557   -0.7897    0.0000 C   0  0  0  0  0  0  0  0  0  0  0  0
   10.4897   -2.2897    0.0000 C   0  0  0  0  0  0  0  0  0  0  0  0
    3.6942   -5.0977    0.0000 C   0  0  0  0  0  0  0  0  0  0  0  0
    4.4275    1.2103    0.0000 C   0  0  0  0  0  0  0  0  0  0  0  0
   12.2217   -1.2897    0.0000 C   0  0  0  0  0  0  0  0  0  0  0  0
   11.3557   -2.7897    0.0000 C   0  0  0  0  0  0  0  0  0  0  0  0
    4.2294   -3.4504    0.0000 C   0  0  0  0  0  0  0  0  0  0  0  0
    7.8916    2.2103    0.0000 C   0  0  0  0  0  0  0  0  0  0  0  0
   12.2217   -2.2897    0.0000 C   0  0  0  0  0  0  0  0  0  0  0  0
    2.7431   -4.7887    0.0000 C   0  0  0  0  0  0  0  0  0  0  0  0
    3.9021   -6.0758    0.0000 C   0  0  0  0  0  0  0  0  0  0  0  0
    7.8916    3.2103    0.0000 C   0  0  0  0  0  0  0  0  0  0  0  0
    2.0000   -5.4578    0.0000 C   0  0  0  0  0  0  0  0  0  0  0  0
    3.1590   -6.7450    0.0000 C   0  0  0  0  0  0  0  0  0  0  0  0
    2.2079   -6.4360    0.0000 C   0  0  0  0  0  0  0  0  0  0  0  0
    8.7576    4.7103    0.0000 C   0  0  0  0  0  0  0  0  0  0  0  0
    9.6237    5.2103    0.0000 C   0  0  0  0  0  0  0  0  0  0  0  0
    9.6237    6.2103    0.0000 C   0  0  0  0  0  0  0  0  0  0  0  0
    7.8916    5.2103    0.0000 C   0  0  0  0  0  0  0  0  0  0  0  0
   10.5176    4.6756    0.0000 C   0  0  0  0  0  0  0  0  0  0  0  0
    8.7576    6.7103    0.0000 C   0  0  0  0  0  0  0  0  0  0  0  0
    7.8916    6.2103    0.0000 C   0  0  0  0  0  0  0  0  0  0  0  0
   10.5176    6.7450    0.0000 C   0  0  0  0  0  0  0  0  0  0  0  0
   11.4237    5.1895    0.0000 C   0  0  0  0  0  0  0  0  0  0  0  0
   11.4237    6.2311    0.0000 C   0  0  0  0  0  0  0  0  0  0  0  0
    6.9856   -3.7651    0.0000 H   0  0  0  0  0  0  0  0  0  0  0  0
    8.2207   -1.5997    0.0000 H   0  0  0  0  0  0  0  0  0  0  0  0
    9.2946   -1.9797    0.0000 H   0  0  0  0  0  0  0  0  0  0  0  0
    6.7852   -5.4574    0.0000 H   0  0  0  0  0  0  0  0  0  0  0  0
    7.4564   -5.9451    0.0000 H   0  0  0  0  0  0  0  0  0  0  0  0
    9.2670   -4.6296    0.0000 H   0  0  0  0  0  0  0  0  0  0  0  0
    9.0106   -3.8405    0.0000 H   0  0  0  0  0  0  0  0  0  0  0  0
   10.0222   -0.3147    0.0000 H   0  0  0  0  0  0  0  0  0  0  0  0
    9.2251   -0.3147    0.0000 H   0  0  0  0  0  0  0  0  0  0  0  0
    7.3547   -1.0997    0.0000 H   0  0  0  0  0  0  0  0  0  0  0  0
    7.5625    1.0203    0.0000 H   0  0  0  0  0  0  0  0  0  0  0  0
    5.7610   -0.2646    0.0000 H   0  0  0  0  0  0  0  0  0  0  0  0
    6.5581   -0.2646    0.0000 H   0  0  0  0  0  0  0  0  0  0  0  0
    5.5173   -5.3440    0.0000 H   0  0  0  0  0  0  0  0  0  0  0  0
    9.6237   -3.4097    0.0000 H   0  0  0  0  0  0  0  0  0  0  0  0
    4.8981   -4.0137    0.0000 H   0  0  0  0  0  0  0  0  0  0  0  0
    6.4887    2.0203    0.0000 H   0  0  0  0  0  0  0  0  0  0  0  0
   11.3557   -0.1697    0.0000 H   0  0  0  0  0  0  0  0  0  0  0  0
    9.9528   -2.5997    0.0000 H   0  0  0  0  0  0  0  0  0  0  0  0
    4.7375    1.7472    0.0000 H   0  0  0  0  0  0  0  0  0  0  0  0
    3.8906    1.5203    0.0000 H   0  0  0  0  0  0  0  0  0  0  0  0
    4.1175    0.6734    0.0000 H   0  0  0  0  0  0  0  0  0  0  0  0
   12.7587   -0.9797    0.0000 H   0  0  0  0  0  0  0  0  0  0  0  0
   11.3557   -3.4097    0.0000 H   0  0  0  0  0  0  0  0  0  0  0  0
   12.7587   -2.5997    0.0000 H   0  0  0  0  0  0  0  0  0  0  0  0
    2.6142   -4.1822    0.0000 H   0  0  0  0  0  0  0  0  0  0  0  0
    4.4918   -6.2674    0.0000 H   0  0  0  0  0  0  0  0  0  0  0  0
    7.6796    3.7929    0.0000 H   0  0  0  0  0  0  0  0  0  0  0  0
    7.2810    3.1026    0.0000 H   0  0  0  0  0  0  0  0  0  0  0  0
    3.1495   -2.5349    0.0000 H   0  0  0  0  0  0  0  0  0  0  0  0
    2.8176   -3.5563    0.0000 H   0  0  0  0  0  0  0  0  0  0  0  0
    1.4103   -5.2662    0.0000 H   0  0  0  0  0  0  0  0  0  0  0  0
    3.2879   -7.3514    0.0000 H   0  0  0  0  0  0  0  0  0  0  0  0
    1.7472   -6.8508    0.0000 H   0  0  0  0  0  0  0  0  0  0  0  0
    7.3547    4.9003    0.0000 H   0  0  0  0  0  0  0  0  0  0  0  0
   10.5104    4.0557    0.0000 H   0  0  0  0  0  0  0  0  0  0  0  0
    8.7576    7.3303    0.0000 H   0  0  0  0  0  0  0  0  0  0  0  0
    7.3547    6.5203    0.0000 H   0  0  0  0  0  0  0  0  0  0  0  0
   10.5104    7.3649    0.0000 H   0  0  0  0  0  0  0  0  0  0  0  0
   11.9594    4.8774    0.0000 H   0  0  0  0  0  0  0  0  0  0  0  0
   11.9594    6.5432    0.0000 H   0  0  0  0  0  0  0  0  0  0  0  0
  1 21  1  0  0  0  0
  1 22  1  0  0  0  0
  2  7  2  0  0  0  0
  2  8  2  0  0  0  0
  2 28  1  0  0  0  0
  2 33  1  0  0  0  0
 19  3  1  6  0  0  0
  3 69  1  0  0  0  0
  4 20  2  0  0  0  0
  5 24  2  0  0  0  0
  6 26  2  0  0  0  0
  9 41  1  0  0  0  0
  9 45  1  0  0  0  0
 10 36  2  0  0  0  0
 11 37  2  0  0  0  0
 12 17  1  0  0  0  0
 12 20  1  0  0  0  0
 12 22  1  0  0  0  0
 18 13  1  1  0  0  0
 13 26  1  0  0  0  0
 13 64  1  0  0  0  0
 14 24  1  0  0  0  0
 29 14  1  1  0  0  0
 14 68  1  0  0  0  0
 25 15  1  6  0  0  0
 15 37  1  0  0  0  0
 15 71  1  0  0  0  0
 16 36  1  0  0  0  0
 16 84  1  0  0  0  0
 16 85  1  0  0  0  0
 17 21  1  0  0  0  0
 17 24  1  1  0  0  0
 17 55  1  0  0  0  0
 18 19  1  0  0  0  0
 18 23  1  0  0  0  0
 18 56  1  0  0  0  0
 19 20  1  0  0  0  0
 19 57  1  0  0  0  0
 21 58  1  0  0  0  0
 21 59  1  0  0  0  0
 22 60  1  0  0  0  0
 22 61  1  0  0  0  0
 23 27  1  0  0  0  0
 23 62  1  0  0  0  0
 23 63  1  0  0  0  0
 25 26  1  0  0  0  0
 25 28  1  0  0  0  0
 25 65  1  0  0  0  0
 27 30  2  0  0  0  0
 27 31  1  0  0  0  0
 28 66  1  0  0  0  0
 28 67  1  0  0  0  0
 29 32  1  0  0  0  0
 29 36  1  0  0  0  0
 29 70  1  0  0  0  0
 30 34  1  0  0  0  0
 30 72  1  0  0  0  0
 31 35  2  0  0  0  0
 31 73  1  0  0  0  0
 32 39  2  0  0  0  0
 32 40  1  0  0  0  0
 33 74  1  0  0  0  0
 33 75  1  0  0  0  0
 33 76  1  0  0  0  0
 34 38  2  0  0  0  0
 34 77  1  0  0  0  0
 35 38  1  0  0  0  0
 35 78  1  0  0  0  0
 37 41  1  0  0  0  0
 38 79  1  0  0  0  0
 39 42  1  0  0  0  0
 39 80  1  0  0  0  0
 40 43  2  0  0  0  0
 40 81  1  0  0  0  0
 41 82  1  0  0  0  0
 41 83  1  0  0  0  0
 42 44  2  0  0  0  0
 42 86  1  0  0  0  0
 43 44  1  0  0  0  0
 43 87  1  0  0  0  0
 44 88  1  0  0  0  0
 45 46  1  0  0  0  0
 45 48  2  0  0  0  0
 46 47  1  0  0  0  0
 46 49  2  0  0  0  0
 47 50  1  0  0  0  0
 47 52  2  0  0  0  0
 48 51  1  0  0  0  0
 48 89  1  0  0  0  0
 49 53  1  0  0  0  0
 49 90  1  0  0  0  0
 50 51  2  0  0  0  0
 50 91  1  0  0  0  0
 51 92  1  0  0  0  0
 52 54  1  0  0  0  0
 52 93  1  0  0  0  0
 53 54  2  0  0  0  0
 53 94  1  0  0  0  0
 54 95  1  0  0  0  0
M  END
> <PUBCHEM_COMPOUND_CID>
501835
> <PUBCHEM_COMPOUND_CANONICALIZED>
1
> <PUBCHEM_CACTVS_COMPLEXITY>
1420
> <PUBCHEM_CACTVS_HBOND_ACCEPTOR>
10
> <PUBCHEM_CACTVS_HBOND_DONOR>
5
> <PUBCHEM_CACTVS_ROTATABLE_BOND>
16
> <PUBCHEM_CACTVS_SUBSKEYS>
AAADcfB/vABgAAAAAAAAAAAAAAAAAWAAAAAwYMGAAAAAAADBVAAAHgQQCAAADDzl2AayBsPABgqIAiFSEHLCCABgIBAIiIHODIgOdjqk9T+XeCjk1hGYqAeYyLCOgAABAAAYAAAAAAIAADAAAAAAAAAAAA==
> <PUBCHEM_IUPAC_OPENEYE_NAME>
(4R)-N-[(1S)-2-amino-2-oxo-1-phenyl-ethyl]-3-[(2S,3S)-2-hydroxy-3-[[(2R)-3-methylsulfonyl-2-[[2-(1-naphthyloxy)acetyl]amino]propanoyl]amino]-4-phenyl-butanoyl]thiazolidine-4-carboxamide
> <PUBCHEM_IUPAC_CAS_NAME>
(4R)-N-[(1S)-2-amino-2-oxo-1-phenylethyl]-3-[(2S,3S)-2-hydroxy-3-[[(2R)-3-methylsulfonyl-2-[[2-(1-naphthalenyloxy)-1-oxoethyl]amino]-1-oxopropyl]amino]-1-oxo-4-phenylbutyl]-4-thiazolidinecarboxamide
> <PUBCHEM_IUPAC_NAME_MARKUP>
(4<I>R</I>)-<I>N</I>-[(1<I>S</I>)-2-amino-2-oxo-1-phenylethyl]-3-[(2<I>S</I>,3<I>S</I>)-2-hydroxy-3-[[(2<I>R</I>)-3-methylsulfonyl-2-[(2-naphthalen-1-yloxyacetyl)amino]propanoyl]amino]-4-phenylbutanoyl]-1,3-thiazolidine-4-carboxamide
> <PUBCHEM_IUPAC_NAME>
(4R)-N-[(1S)-2-amino-2-oxo-1-phenylethyl]-3-[(2S,3S)-2-hydroxy-3-[[(2R)-3-methylsulfonyl-2-[(2-naphthalen-1-yloxyacetyl)amino]propanoyl]amino]-4-phenylbutanoyl]-1,3-thiazolidine-4-carboxamide
> <PUBCHEM_IUPAC_SYSTEMATIC_NAME>
(4R)-N-[(1S)-2-azanyl-2-oxidanylidene-1-phenyl-ethyl]-3-[(2S,3S)-3-[[(2R)-3-methylsulfonyl-2-(2-naphthalen-1-yloxyethanoylamino)propanoyl]amino]-2-oxidanyl-4-phenyl-butanoyl]-1,3-thiazolidine-4-carboxamide
> <PUBCHEM_IUPAC_TRADITIONAL_NAME>
(4R)-N-[(1S)-2-amino-2-keto-1-phenyl-ethyl]-3-[(2S,3S)-2-hydroxy-3-[[(2R)-3-mesyl-2-[[2-(1-naphthoxy)acetyl]amino]propanoyl]amino]-4-phenyl-butanoyl]thiazolidine-4-carboxamide
> <PUBCHEM_IUPAC_INCHI>
InChI=1S/C38H41N5O9S2/c1-54(50,51)22-29(40-32(44)20-52-31-18-10-16-25-13-8-9-17-27(25)31)36(47)41-28(19-24-11-4-2-5-12-24)34(45)38(49)43-23-53-21-30(43)37(48)42-33(35(39)46)26-14-6-3-7-15-26/h2-18,28-30,33-34,45H,19-23H2,1H3,(H2,39,46)(H,40,44)(H,41,47)(H,42,48)/t28-,29-,30-,33-,34-/m0/s1
> <PUBCHEM_IUPAC_INCHIKEY>
YXULLHNYLICVPS-WDEDYMKJSA-N
> <PUBCHEM_XLOGP3_AA>
2.7
> <PUBCHEM_EXACT_MASS>
775.23457025
> <PUBCHEM_MOLECULAR_FORMULA>
C38H41N5O9S2
> <PUBCHEM_MOLECULAR_WEIGHT>
775.9
> <PUBCHEM_OPENEYE_CAN_SMILES>
CS(=O)(=O)CC(C(=O)NC(CC1=CC=CC=C1)C(C(=O)N2CSCC2C(=O)NC(C3=CC=CC=C3)C(=O)N)O)NC(=O)COC4=CC=CC5=CC=CC=C54
> <PUBCHEM_OPENEYE_ISO_SMILES>
CS(=O)(=O)C[C@@H](C(=O)N[C@@H](CC1=CC=CC=C1)[C@@H](C(=O)N2CSC[C@H]2C(=O)N[C@@H](C3=CC=CC=C3)C(=O)N)O)NC(=O)COC4=CC=CC5=CC=CC=C54
> <PUBCHEM_CACTVS_TPSA>
248
> <PUBCHEM_MONOISOTOPIC_WEIGHT>
775.23457025
> <PUBCHEM_TOTAL_CHARGE>
0
> <PUBCHEM_HEAVY_ATOM_COUNT>
54
> <PUBCHEM_ATOM_DEF_STEREO_COUNT>
5
> <PUBCHEM_ATOM_UDEF_STEREO_COUNT>
0
> <PUBCHEM_BOND_DEF_STEREO_COUNT>
0
> <PUBCHEM_BOND_UDEF_STEREO_COUNT>
0
> <PUBCHEM_ISOTOPIC_ATOM_COUNT>
0
> <PUBCHEM_COMPONENT_COUNT>
1
> <PUBCHEM_CACTVS_TAUTO_COUNT>
-1
> <PUBCHEM_COORDINATE_TYPE>
1
5
255
> <PUBCHEM_BONDANNOTATIONS>
18  13  5
29  14  5
25  15  6
17  24  5
27  30  8
27  31  8
19  3  6
30  34  8
31  35  8
32  39  8
32  40  8
34  38  8
35  38  8
39  42  8
40  43  8
42  44  8
43  44  8
45  46  8
45  48  8
46  47  8
46  49  8
47  50  8
47  52  8
48  51  8
49  53  8
50  51  8
52  54  8
53  54  8
$$$$
