501847
  -OEChem-10302200282D
 94 96  0     1  0  0  0  0  0999 V2000
   11.3769   -0.5864    0.0000 S   0  0  0  0  0  0  0  0  0  0  0  0
    8.2046   -1.6046    0.0000 O   0  0  0  0  0  0  0  0  0  0  0  0
    9.7942    1.7500    0.0000 O   0  0  0  0  0  0  0  0  0  0  0  0
    8.0622   -0.2500    0.0000 O   0  0  0  0  0  0  0  0  0  0  0  0
    6.3301    2.7500    0.0000 O   0  0  0  0  0  0  0  0  0  0  0  0
    5.4641    3.2500    0.0000 O   0  0  0  0  0  0  0  0  0  0  0  0
    3.7320    0.2500    0.0000 O   0  0  0  0  0  0  0  0  0  0  0  0
    3.7320   -1.7500    0.0000 O   0  0  0  0  0  0  0  0  0  0  0  0
    9.7942   -0.2500    0.0000 N   0  0  0  0  0  0  0  0  0  0  0  0
    9.3635   -2.8918    0.0000 N   0  0  0  0  0  0  0  0  0  0  0  0
    7.1962    1.2500    0.0000 N   0  0  0  0  0  0  0  0  0  0  0  0
    5.4641    0.2500    0.0000 N   0  0  0  0  0  0  0  0  0  0  0  0
    3.7320    3.2500    0.0000 N   0  0  0  0  0  0  0  0  0  0  0  0
   10.8769   -1.4524    0.0000 C   0  0  0  0  0  0  0  0  0  0  0  0
    9.8988   -1.2445    0.0000 C   0  0  1  0  0  0  0  0  0  0  0  0
   10.7078    0.1567    0.0000 C   0  0  0  0  0  0  0  0  0  0  0  0
   11.7429   -1.9524    0.0000 C   0  0  0  0  0  0  0  0  0  0  0  0
   10.6690   -2.4306    0.0000 C   0  0  0  0  0  0  0  0  0  0  0  0
    9.1556   -1.9136    0.0000 C   0  0  0  0  0  0  0  0  0  0  0  0
    8.9282    0.2500    0.0000 C   0  0  0  0  0  0  0  0  0  0  0  0
    8.9282    1.2500    0.0000 C   0  0  2  0  0  0  0  0  0  0  0  0
    8.0622    1.7500    0.0000 C   0  0  2  0  0  0  0  0  0  0  0  0
    8.6204   -3.5609    0.0000 C   0  0  0  0  0  0  0  0  0  0  0  0
    8.0622    2.7500    0.0000 C   0  0  0  0  0  0  0  0  0  0  0  0
    7.8772   -4.2301    0.0000 C   0  0  0  0  0  0  0  0  0  0  0  0
    9.2895   -4.3041    0.0000 C   0  0  0  0  0  0  0  0  0  0  0  0
    7.9512   -2.8178    0.0000 C   0  0  0  0  0  0  0  0  0  0  0  0
    8.9282    3.2500    0.0000 C   0  0  0  0  0  0  0  0  0  0  0  0
    6.3301    1.7500    0.0000 C   0  0  0  0  0  0  0  0  0  0  0  0
    5.4641    1.2500    0.0000 C   0  0  2  0  0  0  0  0  0  0  0  0
    9.7942    2.7500    0.0000 C   0  0  0  0  0  0  0  0  0  0  0  0
    8.9282    4.2500    0.0000 C   0  0  0  0  0  0  0  0  0  0  0  0
    4.5981    1.7500    0.0000 C   0  0  0  0  0  0  0  0  0  0  0  0
   10.6603    3.2500    0.0000 C   0  0  0  0  0  0  0  0  0  0  0  0
    9.7942    4.7500    0.0000 C   0  0  0  0  0  0  0  0  0  0  0  0
   10.6603    4.2500    0.0000 C   0  0  0  0  0  0  0  0  0  0  0  0
    4.5981    2.7500    0.0000 C   0  0  0  0  0  0  0  0  0  0  0  0
    4.5981   -0.2500    0.0000 C   0  0  0  0  0  0  0  0  0  0  0  0
    4.5981   -1.2500    0.0000 C   0  0  0  0  0  0  0  0  0  0  0  0
    3.7320   -2.7500    0.0000 C   0  0  0  0  0  0  0  0  0  0  0  0
    2.8660   -3.2500    0.0000 C   0  0  0  0  0  0  0  0  0  0  0  0
    4.5981   -3.2500    0.0000 C   0  0  0  0  0  0  0  0  0  0  0  0
    2.8660   -4.2500    0.0000 C   0  0  0  0  0  0  0  0  0  0  0  0
    2.0000   -2.7500    0.0000 C   0  0  0  0  0  0  0  0  0  0  0  0
    3.7320   -4.7500    0.0000 C   0  0  0  0  0  0  0  0  0  0  0  0
    4.5981   -4.2500    0.0000 C   0  0  0  0  0  0  0  0  0  0  0  0
    2.0000   -4.7500    0.0000 C   0  0  0  0  0  0  0  0  0  0  0  0
    9.3199   -1.0223    0.0000 H   0  0  0  0  0  0  0  0  0  0  0  0
   11.2094    0.5212    0.0000 H   0  0  0  0  0  0  0  0  0  0  0  0
   10.3978    0.6937    0.0000 H   0  0  0  0  0  0  0  0  0  0  0  0
   11.4329   -2.4894    0.0000 H   0  0  0  0  0  0  0  0  0  0  0  0
   12.2799   -2.2624    0.0000 H   0  0  0  0  0  0  0  0  0  0  0  0
   12.0529   -1.4155    0.0000 H   0  0  0  0  0  0  0  0  0  0  0  0
   10.0625   -2.3017    0.0000 H   0  0  0  0  0  0  0  0  0  0  0  0
   10.5401   -3.0370    0.0000 H   0  0  0  0  0  0  0  0  0  0  0  0
   11.2754   -2.5595    0.0000 H   0  0  0  0  0  0  0  0  0  0  0  0
    9.4651    0.9400    0.0000 H   0  0  0  0  0  0  0  0  0  0  0  0
    8.0622    1.1300    0.0000 H   0  0  0  0  0  0  0  0  0  0  0  0
    9.9532   -3.0834    0.0000 H   0  0  0  0  0  0  0  0  0  0  0  0
    7.8501    3.3326    0.0000 H   0  0  0  0  0  0  0  0  0  0  0  0
    7.4516    2.6423    0.0000 H   0  0  0  0  0  0  0  0  0  0  0  0
    7.4624   -3.7693    0.0000 H   0  0  0  0  0  0  0  0  0  0  0  0
    7.4165   -4.6449    0.0000 H   0  0  0  0  0  0  0  0  0  0  0  0
    8.2921   -4.6908    0.0000 H   0  0  0  0  0  0  0  0  0  0  0  0
    8.8288   -4.7189    0.0000 H   0  0  0  0  0  0  0  0  0  0  0  0
    9.7044   -4.7648    0.0000 H   0  0  0  0  0  0  0  0  0  0  0  0
    9.7503   -3.8892    0.0000 H   0  0  0  0  0  0  0  0  0  0  0  0
    8.4120   -2.4029    0.0000 H   0  0  0  0  0  0  0  0  0  0  0  0
    7.5364   -2.3570    0.0000 H   0  0  0  0  0  0  0  0  0  0  0  0
    7.4905   -3.2326    0.0000 H   0  0  0  0  0  0  0  0  0  0  0  0
    7.1962    0.6300    0.0000 H   0  0  0  0  0  0  0  0  0  0  0  0
   10.3312    1.4400    0.0000 H   0  0  0  0  0  0  0  0  0  0  0  0
    6.0010    0.9400    0.0000 H   0  0  0  0  0  0  0  0  0  0  0  0
    9.7942    2.1300    0.0000 H   0  0  0  0  0  0  0  0  0  0  0  0
    8.3913    4.5600    0.0000 H   0  0  0  0  0  0  0  0  0  0  0  0
    3.9875    1.8577    0.0000 H   0  0  0  0  0  0  0  0  0  0  0  0
    4.3860    1.1674    0.0000 H   0  0  0  0  0  0  0  0  0  0  0  0
    6.0010   -0.0600    0.0000 H   0  0  0  0  0  0  0  0  0  0  0  0
   11.1972    2.9400    0.0000 H   0  0  0  0  0  0  0  0  0  0  0  0
    9.7942    5.3700    0.0000 H   0  0  0  0  0  0  0  0  0  0  0  0
   11.1972    4.5600    0.0000 H   0  0  0  0  0  0  0  0  0  0  0  0
    4.8101   -1.8326    0.0000 H   0  0  0  0  0  0  0  0  0  0  0  0
    5.2087   -1.1423    0.0000 H   0  0  0  0  0  0  0  0  0  0  0  0
    3.7320    3.8700    0.0000 H   0  0  0  0  0  0  0  0  0  0  0  0
    3.1951    2.9400    0.0000 H   0  0  0  0  0  0  0  0  0  0  0  0
    5.1350   -2.9400    0.0000 H   0  0  0  0  0  0  0  0  0  0  0  0
    2.3100   -2.2131    0.0000 H   0  0  0  0  0  0  0  0  0  0  0  0
    1.4631   -2.4400    0.0000 H   0  0  0  0  0  0  0  0  0  0  0  0
    1.6900   -3.2869    0.0000 H   0  0  0  0  0  0  0  0  0  0  0  0
    3.7320   -5.3700    0.0000 H   0  0  0  0  0  0  0  0  0  0  0  0
    5.1350   -4.5600    0.0000 H   0  0  0  0  0  0  0  0  0  0  0  0
    1.6900   -4.2131    0.0000 H   0  0  0  0  0  0  0  0  0  0  0  0
    1.4631   -5.0600    0.0000 H   0  0  0  0  0  0  0  0  0  0  0  0
    2.3100   -5.2869    0.0000 H   0  0  0  0  0  0  0  0  0  0  0  0
  1 14  1  0  0  0  0
  1 16  1  0  0  0  0
  2 19  2  0  0  0  0
 21  3  1  6  0  0  0
  3 72  1  0  0  0  0
  4 20  2  0  0  0  0
  5 29  2  0  0  0  0
  6 37  2  0  0  0  0
  7 38  2  0  0  0  0
  8 39  1  0  0  0  0
  8 40  1  0  0  0  0
  9 15  1  0  0  0  0
  9 16  1  0  0  0  0
  9 20  1  0  0  0  0
 10 19  1  0  0  0  0
 10 23  1  0  0  0  0
 10 59  1  0  0  0  0
 22 11  1  1  0  0  0
 11 29  1  0  0  0  0
 11 71  1  0  0  0  0
 30 12  1  1  0  0  0
 12 38  1  0  0  0  0
 12 78  1  0  0  0  0
 13 37  1  0  0  0  0
 13 84  1  0  0  0  0
 13 85  1  0  0  0  0
 14 15  1  0  0  0  0
 14 17  1  0  0  0  0
 14 18  1  0  0  0  0
 15 19  1  1  0  0  0
 15 48  1  0  0  0  0
 16 49  1  0  0  0  0
 16 50  1  0  0  0  0
 17 51  1  0  0  0  0
 17 52  1  0  0  0  0
 17 53  1  0  0  0  0
 18 54  1  0  0  0  0
 18 55  1  0  0  0  0
 18 56  1  0  0  0  0
 20 21  1  0  0  0  0
 21 22  1  0  0  0  0
 21 57  1  0  0  0  0
 22 24  1  0  0  0  0
 22 58  1  0  0  0  0
 23 25  1  0  0  0  0
 23 26  1  0  0  0  0
 23 27  1  0  0  0  0
 24 28  1  0  0  0  0
 24 60  1  0  0  0  0
 24 61  1  0  0  0  0
 25 62  1  0  0  0  0
 25 63  1  0  0  0  0
 25 64  1  0  0  0  0
 26 65  1  0  0  0  0
 26 66  1  0  0  0  0
 26 67  1  0  0  0  0
 27 68  1  0  0  0  0
 27 69  1  0  0  0  0
 27 70  1  0  0  0  0
 28 31  2  0  0  0  0
 28 32  1  0  0  0  0
 29 30  1  0  0  0  0
 30 33  1  0  0  0  0
 30 73  1  0  0  0  0
 31 34  1  0  0  0  0
 31 74  1  0  0  0  0
 32 35  2  0  0  0  0
 32 75  1  0  0  0  0
 33 37  1  0  0  0  0
 33 76  1  0  0  0  0
 33 77  1  0  0  0  0
 34 36  2  0  0  0  0
 34 79  1  0  0  0  0
 35 36  1  0  0  0  0
 35 80  1  0  0  0  0
 36 81  1  0  0  0  0
 38 39  1  0  0  0  0
 39 82  1  0  0  0  0
 39 83  1  0  0  0  0
 40 41  1  0  0  0  0
 40 42  2  0  0  0  0
 41 43  2  0  0  0  0
 41 44  1  0  0  0  0
 42 46  1  0  0  0  0
 42 86  1  0  0  0  0
 43 45  1  0  0  0  0
 43 47  1  0  0  0  0
 44 87  1  0  0  0  0
 44 88  1  0  0  0  0
 44 89  1  0  0  0  0
 45 46  2  0  0  0  0
 45 90  1  0  0  0  0
 46 91  1  0  0  0  0
 47 92  1  0  0  0  0
 47 93  1  0  0  0  0
 47 94  1  0  0  0  0
M  END
> <PUBCHEM_COMPOUND_CID>
501847
> <PUBCHEM_COMPOUND_CANONICALIZED>
1
> <PUBCHEM_CACTVS_COMPLEXITY>
1120
> <PUBCHEM_CACTVS_HBOND_ACCEPTOR>
8
> <PUBCHEM_CACTVS_HBOND_DONOR>
5
> <PUBCHEM_CACTVS_ROTATABLE_BOND>
14
> <PUBCHEM_CACTVS_SUBSKEYS>
AAADcfB/uABAAAAAAAAAAAAAAAAAAWAAAAAwYAAAAAAAAAABQAAAHgQQCAAADLzh2AayBoPABgiIAiFSEAICCABgIBAIiIHOCIgOdjqk8T+XeCCk1hGYqAedyLCOgAABAAAYAAAAAAIAADAAAAAAAAAAAA==
> <PUBCHEM_IUPAC_OPENEYE_NAME>
(2S)-N-[(1S,2S)-1-benzyl-3-[(4R)-4-(tert-butylcarbamoyl)-5,5-dimethyl-thiazolidin-3-yl]-2-hydroxy-3-oxo-propyl]-2-[[2-(2,3-dimethylphenoxy)acetyl]amino]butanediamide
> <PUBCHEM_IUPAC_CAS_NAME>
(2S)-N-[(2S,3S)-4-[(4R)-4-[(tert-butylamino)-oxomethyl]-5,5-dimethyl-3-thiazolidinyl]-3-hydroxy-4-oxo-1-phenylbutan-2-yl]-2-[[2-(2,3-dimethylphenoxy)-1-oxoethyl]amino]butanediamide
> <PUBCHEM_IUPAC_NAME_MARKUP>
(2<I>S</I>)-<I>N</I>-[(2<I>S</I>,3<I>S</I>)-4-[(4<I>R</I>)-4-(<I>tert</I>-butylcarbamoyl)-5,5-dimethyl-1,3-thiazolidin-3-yl]-3-hydroxy-4-oxo-1-phenylbutan-2-yl]-2-[[2-(2,3-dimethylphenoxy)acetyl]amino]butanediamide
> <PUBCHEM_IUPAC_NAME>
(2S)-N-[(2S,3S)-4-[(4R)-4-(tert-butylcarbamoyl)-5,5-dimethyl-1,3-thiazolidin-3-yl]-3-hydroxy-4-oxo-1-phenylbutan-2-yl]-2-[[2-(2,3-dimethylphenoxy)acetyl]amino]butanediamide
> <PUBCHEM_IUPAC_SYSTEMATIC_NAME>
(2S)-N-[(2S,3S)-4-[(4R)-4-(tert-butylcarbamoyl)-5,5-dimethyl-1,3-thiazolidin-3-yl]-3-oxidanyl-4-oxidanylidene-1-phenyl-butan-2-yl]-2-[2-(2,3-dimethylphenoxy)ethanoylamino]butanediamide
> <PUBCHEM_IUPAC_TRADITIONAL_NAME>
(2S)-N-[(1S,2S)-1-benzyl-3-[(4R)-4-(tert-butylcarbamoyl)-5,5-dimethyl-thiazolidin-3-yl]-2-hydroxy-3-keto-propyl]-2-[[2-(2,3-dimethylphenoxy)acetyl]amino]succinamide
> <PUBCHEM_IUPAC_INCHI>
InChI=1S/C34H47N5O7S/c1-20-12-11-15-25(21(20)2)46-18-27(41)36-24(17-26(35)40)30(43)37-23(16-22-13-9-8-10-14-22)28(42)32(45)39-19-47-34(6,7)29(39)31(44)38-33(3,4)5/h8-15,23-24,28-29,42H,16-19H2,1-7H3,(H2,35,40)(H,36,41)(H,37,43)(H,38,44)/t23-,24-,28-,29+/m0/s1
> <PUBCHEM_IUPAC_INCHIKEY>
SIZQSVVLHMXIFJ-PJEHFJQTSA-N
> <PUBCHEM_XLOGP3_AA>
2.6
> <PUBCHEM_EXACT_MASS>
669.31962003
> <PUBCHEM_MOLECULAR_FORMULA>
C34H47N5O7S
> <PUBCHEM_MOLECULAR_WEIGHT>
669.8
> <PUBCHEM_OPENEYE_CAN_SMILES>
CC1=C(C(=CC=C1)OCC(=O)NC(CC(=O)N)C(=O)NC(CC2=CC=CC=C2)C(C(=O)N3CSC(C3C(=O)NC(C)(C)C)(C)C)O)C
> <PUBCHEM_OPENEYE_ISO_SMILES>
CC1=C(C(=CC=C1)OCC(=O)N[C@@H](CC(=O)N)C(=O)N[C@@H](CC2=CC=CC=C2)[C@@H](C(=O)N3CSC([C@H]3C(=O)NC(C)(C)C)(C)C)O)C
> <PUBCHEM_CACTVS_TPSA>
206
> <PUBCHEM_MONOISOTOPIC_WEIGHT>
669.31962003
> <PUBCHEM_TOTAL_CHARGE>
0
> <PUBCHEM_HEAVY_ATOM_COUNT>
47
> <PUBCHEM_ATOM_DEF_STEREO_COUNT>
4
> <PUBCHEM_ATOM_UDEF_STEREO_COUNT>
0
> <PUBCHEM_BOND_DEF_STEREO_COUNT>
0
> <PUBCHEM_BOND_UDEF_STEREO_COUNT>
0
> <PUBCHEM_ISOTOPIC_ATOM_COUNT>
0
> <PUBCHEM_COMPONENT_COUNT>
1
> <PUBCHEM_CACTVS_TAUTO_COUNT>
-1
> <PUBCHEM_COORDINATE_TYPE>
1
5
255
> <PUBCHEM_BONDANNOTATIONS>
22  11  5
30  12  5
15  19  5
28  31  8
28  32  8
21  3  6
31  34  8
32  35  8
34  36  8
35  36  8
40  41  8
40  42  8
41  43  8
42  46  8
43  45  8
45  46  8
$$$$
