501861
  -OEChem-10302200282D
 91 94  0     1  0  0  0  0  0999 V2000
    4.5981    3.4724    0.0000 O   0  0  0  0  0  0  0  0  0  0  0  0
    7.1962    2.9724    0.0000 O   0  0  0  0  0  0  0  0  0  0  0  0
    8.2981    3.7730    0.0000 O   0  0  0  0  0  0  0  0  0  0  0  0
    5.4641   -0.0276    0.0000 O   0  0  0  0  0  0  0  0  0  0  0  0
    8.9282   -1.0276    0.0000 O   0  0  0  0  0  0  0  0  0  0  0  0
    8.9282   -3.0276    0.0000 O   0  0  0  0  0  0  0  0  0  0  0  0
    6.3301    4.4724    0.0000 N   0  0  0  0  0  0  0  0  0  0  0  0
    8.8334    5.4203    0.0000 N   0  0  0  0  0  0  0  0  0  0  0  0
    6.3301    1.4724    0.0000 N   0  0  0  0  0  0  0  0  0  0  0  0
    7.1962   -1.0276    0.0000 N   0  0  0  0  0  0  0  0  0  0  0  0
   11.5942   -5.5484    0.0000 N   0  0  0  0  0  0  0  0  0  0  0  0
    7.1391    5.0602    0.0000 C   0  0  1  0  0  0  0  0  0  0  0  0
    6.8301    6.0112    0.0000 C   0  0  0  0  0  0  0  0  0  0  0  0
    5.8301    6.0112    0.0000 C   0  0  0  0  0  0  0  0  0  0  0  0
    5.5211    5.0602    0.0000 C   0  0  0  0  0  0  0  0  0  0  0  0
    6.3301    3.4724    0.0000 C   0  0  0  0  0  0  0  0  0  0  0  0
    8.0902    4.7511    0.0000 C   0  0  0  0  0  0  0  0  0  0  0  0
    5.4641    2.9724    0.0000 C   0  0  2  0  0  0  0  0  0  0  0  0
    5.4641    1.9724    0.0000 C   0  0  2  0  0  0  0  0  0  0  0  0
    9.7844    5.1112    0.0000 C   0  0  0  0  0  0  0  0  0  0  0  0
    4.5981    1.4724    0.0000 C   0  0  0  0  0  0  0  0  0  0  0  0
    7.1962   -0.0276    0.0000 C   0  0  2  0  0  0  0  0  0  0  0  0
   10.7355    4.8022    0.0000 C   0  0  0  0  0  0  0  0  0  0  0  0
   10.0934    6.0623    0.0000 C   0  0  0  0  0  0  0  0  0  0  0  0
    9.4754    4.1602    0.0000 C   0  0  0  0  0  0  0  0  0  0  0  0
    6.3301    0.4724    0.0000 C   0  0  0  0  0  0  0  0  0  0  0  0
    3.7320    1.9724    0.0000 C   0  0  0  0  0  0  0  0  0  0  0  0
    8.0622    0.4724    0.0000 C   0  0  0  0  0  0  0  0  0  0  0  0
    8.0622    1.4724    0.0000 C   0  0  0  0  0  0  0  0  0  0  0  0
    8.9282   -0.0276    0.0000 C   0  0  0  0  0  0  0  0  0  0  0  0
    2.8660    1.4724    0.0000 C   0  0  0  0  0  0  0  0  0  0  0  0
    3.7320    2.9724    0.0000 C   0  0  0  0  0  0  0  0  0  0  0  0
    2.0000    1.9724    0.0000 C   0  0  0  0  0  0  0  0  0  0  0  0
    2.8660    3.4724    0.0000 C   0  0  0  0  0  0  0  0  0  0  0  0
    8.0622   -1.5276    0.0000 C   0  0  0  0  0  0  0  0  0  0  0  0
    2.0000    2.9724    0.0000 C   0  0  0  0  0  0  0  0  0  0  0  0
    8.0622   -2.5276    0.0000 C   0  0  0  0  0  0  0  0  0  0  0  0
    8.9282   -4.0276    0.0000 C   0  0  0  0  0  0  0  0  0  0  0  0
    9.7942   -4.5276    0.0000 C   0  0  0  0  0  0  0  0  0  0  0  0
    8.0622   -4.5276    0.0000 C   0  0  0  0  0  0  0  0  0  0  0  0
    9.7942   -5.5276    0.0000 C   0  0  0  0  0  0  0  0  0  0  0  0
    8.0622   -5.5276    0.0000 C   0  0  0  0  0  0  0  0  0  0  0  0
   10.6882   -3.9930    0.0000 C   0  0  0  0  0  0  0  0  0  0  0  0
    8.9282   -6.0276    0.0000 C   0  0  0  0  0  0  0  0  0  0  0  0
   10.6882   -6.0623    0.0000 C   0  0  0  0  0  0  0  0  0  0  0  0
   11.5942   -4.5068    0.0000 C   0  0  0  0  0  0  0  0  0  0  0  0
    7.2361    4.4478    0.0000 H   0  0  0  0  0  0  0  0  0  0  0  0
    7.4366    6.1401    0.0000 H   0  0  0  0  0  0  0  0  0  0  0  0
    6.7653    6.6278    0.0000 H   0  0  0  0  0  0  0  0  0  0  0  0
    5.8949    6.6278    0.0000 H   0  0  0  0  0  0  0  0  0  0  0  0
    5.2237    6.1401    0.0000 H   0  0  0  0  0  0  0  0  0  0  0  0
    4.9547    5.3123    0.0000 H   0  0  0  0  0  0  0  0  0  0  0  0
    5.2111    4.5232    0.0000 H   0  0  0  0  0  0  0  0  0  0  0  0
    5.4641    3.5924    0.0000 H   0  0  0  0  0  0  0  0  0  0  0  0
    5.4641    1.3524    0.0000 H   0  0  0  0  0  0  0  0  0  0  0  0
    8.7044    6.0267    0.0000 H   0  0  0  0  0  0  0  0  0  0  0  0
    4.1996    0.9974    0.0000 H   0  0  0  0  0  0  0  0  0  0  0  0
    4.9966    0.9974    0.0000 H   0  0  0  0  0  0  0  0  0  0  0  0
    6.8671    1.7824    0.0000 H   0  0  0  0  0  0  0  0  0  0  0  0
    6.6592   -0.3376    0.0000 H   0  0  0  0  0  0  0  0  0  0  0  0
   10.5439    4.2126    0.0000 H   0  0  0  0  0  0  0  0  0  0  0  0
   11.3251    4.6106    0.0000 H   0  0  0  0  0  0  0  0  0  0  0  0
   10.9270    5.3919    0.0000 H   0  0  0  0  0  0  0  0  0  0  0  0
   10.6831    5.8707    0.0000 H   0  0  0  0  0  0  0  0  0  0  0  0
   10.2850    6.6520    0.0000 H   0  0  0  0  0  0  0  0  0  0  0  0
    9.5038    6.2539    0.0000 H   0  0  0  0  0  0  0  0  0  0  0  0
    8.8857    4.3518    0.0000 H   0  0  0  0  0  0  0  0  0  0  0  0
    9.2838    3.5705    0.0000 H   0  0  0  0  0  0  0  0  0  0  0  0
   10.0650    3.9686    0.0000 H   0  0  0  0  0  0  0  0  0  0  0  0
    4.5981    4.0924    0.0000 H   0  0  0  0  0  0  0  0  0  0  0  0
    8.0622   -0.1476    0.0000 H   0  0  0  0  0  0  0  0  0  0  0  0
    6.6592   -1.3376    0.0000 H   0  0  0  0  0  0  0  0  0  0  0  0
    8.6822    1.4724    0.0000 H   0  0  0  0  0  0  0  0  0  0  0  0
    8.0622    2.0924    0.0000 H   0  0  0  0  0  0  0  0  0  0  0  0
    7.4422    1.4724    0.0000 H   0  0  0  0  0  0  0  0  0  0  0  0
    8.6182   -0.5646    0.0000 H   0  0  0  0  0  0  0  0  0  0  0  0
    9.4651   -0.3376    0.0000 H   0  0  0  0  0  0  0  0  0  0  0  0
    9.2382    0.5093    0.0000 H   0  0  0  0  0  0  0  0  0  0  0  0
    2.8660    0.8524    0.0000 H   0  0  0  0  0  0  0  0  0  0  0  0
    4.2690    3.2824    0.0000 H   0  0  0  0  0  0  0  0  0  0  0  0
    1.4631    1.6624    0.0000 H   0  0  0  0  0  0  0  0  0  0  0  0
    2.8660    4.0924    0.0000 H   0  0  0  0  0  0  0  0  0  0  0  0
    1.4631    3.2824    0.0000 H   0  0  0  0  0  0  0  0  0  0  0  0
    7.4516   -2.4200    0.0000 H   0  0  0  0  0  0  0  0  0  0  0  0
    7.8501   -3.1102    0.0000 H   0  0  0  0  0  0  0  0  0  0  0  0
    7.5252   -4.2176    0.0000 H   0  0  0  0  0  0  0  0  0  0  0  0
    7.5252   -5.8376    0.0000 H   0  0  0  0  0  0  0  0  0  0  0  0
   10.6810   -3.3730    0.0000 H   0  0  0  0  0  0  0  0  0  0  0  0
    8.9282   -6.6476    0.0000 H   0  0  0  0  0  0  0  0  0  0  0  0
   10.6810   -6.6823    0.0000 H   0  0  0  0  0  0  0  0  0  0  0  0
   12.1300   -4.1948    0.0000 H   0  0  0  0  0  0  0  0  0  0  0  0
 18  1  1  6  0  0  0
  1 70  1  0  0  0  0
  2 16  2  0  0  0  0
  3 17  2  0  0  0  0
  4 26  2  0  0  0  0
  5 35  2  0  0  0  0
  6 37  1  0  0  0  0
  6 38  1  0  0  0  0
  7 12  1  0  0  0  0
  7 15  1  0  0  0  0
  7 16  1  0  0  0  0
  8 17  1  0  0  0  0
  8 20  1  0  0  0  0
  8 56  1  0  0  0  0
 19  9  1  1  0  0  0
  9 26  1  0  0  0  0
  9 59  1  0  0  0  0
 22 10  1  6  0  0  0
 10 35  1  0  0  0  0
 10 72  1  0  0  0  0
 11 45  2  0  0  0  0
 11 46  1  0  0  0  0
 12 13  1  0  0  0  0
 12 17  1  1  0  0  0
 12 47  1  0  0  0  0
 13 14  1  0  0  0  0
 13 48  1  0  0  0  0
 13 49  1  0  0  0  0
 14 15  1  0  0  0  0
 14 50  1  0  0  0  0
 14 51  1  0  0  0  0
 15 52  1  0  0  0  0
 15 53  1  0  0  0  0
 16 18  1  0  0  0  0
 18 19  1  0  0  0  0
 18 54  1  0  0  0  0
 19 21  1  0  0  0  0
 19 55  1  0  0  0  0
 20 23  1  0  0  0  0
 20 24  1  0  0  0  0
 20 25  1  0  0  0  0
 21 27  1  0  0  0  0
 21 57  1  0  0  0  0
 21 58  1  0  0  0  0
 22 26  1  0  0  0  0
 22 28  1  0  0  0  0
 22 60  1  0  0  0  0
 23 61  1  0  0  0  0
 23 62  1  0  0  0  0
 23 63  1  0  0  0  0
 24 64  1  0  0  0  0
 24 65  1  0  0  0  0
 24 66  1  0  0  0  0
 25 67  1  0  0  0  0
 25 68  1  0  0  0  0
 25 69  1  0  0  0  0
 27 31  2  0  0  0  0
 27 32  1  0  0  0  0
 28 29  1  0  0  0  0
 28 30  1  0  0  0  0
 28 71  1  0  0  0  0
 29 73  1  0  0  0  0
 29 74  1  0  0  0  0
 29 75  1  0  0  0  0
 30 76  1  0  0  0  0
 30 77  1  0  0  0  0
 30 78  1  0  0  0  0
 31 33  1  0  0  0  0
 31 79  1  0  0  0  0
 32 34  2  0  0  0  0
 32 80  1  0  0  0  0
 33 36  2  0  0  0  0
 33 81  1  0  0  0  0
 34 36  1  0  0  0  0
 34 82  1  0  0  0  0
 35 37  1  0  0  0  0
 36 83  1  0  0  0  0
 37 84  1  0  0  0  0
 37 85  1  0  0  0  0
 38 39  1  0  0  0  0
 38 40  2  0  0  0  0
 39 41  2  0  0  0  0
 39 43  1  0  0  0  0
 40 42  1  0  0  0  0
 40 86  1  0  0  0  0
 41 44  1  0  0  0  0
 41 45  1  0  0  0  0
 42 44  2  0  0  0  0
 42 87  1  0  0  0  0
 43 46  2  0  0  0  0
 43 88  1  0  0  0  0
 44 89  1  0  0  0  0
 45 90  1  0  0  0  0
 46 91  1  0  0  0  0
M  END
> <PUBCHEM_COMPOUND_CID>
501861
> <PUBCHEM_COMPOUND_CANONICALIZED>
1
> <PUBCHEM_CACTVS_COMPLEXITY>
1040
> <PUBCHEM_CACTVS_HBOND_ACCEPTOR>
7
> <PUBCHEM_CACTVS_HBOND_DONOR>
4
> <PUBCHEM_CACTVS_ROTATABLE_BOND>
13
> <PUBCHEM_CACTVS_SUBSKEYS>
AAADcfB/uAAAAAAAAAAAAAAAAAAAAWAAAAA8YIAAAAAAAACx9AAAHgAQCAAADbzhmgY+htPIFgCoAjF3VAKCiCAxIiAI2KH+bJgOdvrE8b+XeCjk1hHY6Ae4ybCOgAABAAAYAAAAAAIAADAAAAAAAAAAAA==
> <PUBCHEM_IUPAC_OPENEYE_NAME>
(2S)-N-tert-butyl-1-[(2S,3S)-2-hydroxy-3-[[(2S)-2-[[2-(5-isoquinolyloxy)acetyl]amino]-3-methyl-butanoyl]amino]-4-phenyl-butanoyl]pyrrolidine-2-carboxamide
> <PUBCHEM_IUPAC_CAS_NAME>
(2S)-N-tert-butyl-1-[(2S,3S)-2-hydroxy-3-[[(2S)-2-[[2-(5-isoquinolinyloxy)-1-oxoethyl]amino]-3-methyl-1-oxobutyl]amino]-1-oxo-4-phenylbutyl]-2-pyrrolidinecarboxamide
> <PUBCHEM_IUPAC_NAME_MARKUP>
(2<I>S</I>)-<I>N</I>-<I>tert</I>-butyl-1-[(2<I>S</I>,3<I>S</I>)-2-hydroxy-3-[[(2<I>S</I>)-2-[(2-isoquinolin-5-yloxyacetyl)amino]-3-methylbutanoyl]amino]-4-phenylbutanoyl]pyrrolidine-2-carboxamide
> <PUBCHEM_IUPAC_NAME>
(2S)-N-tert-butyl-1-[(2S,3S)-2-hydroxy-3-[[(2S)-2-[(2-isoquinolin-5-yloxyacetyl)amino]-3-methylbutanoyl]amino]-4-phenylbutanoyl]pyrrolidine-2-carboxamide
> <PUBCHEM_IUPAC_SYSTEMATIC_NAME>
(2S)-N-tert-butyl-1-[(2S,3S)-3-[[(2S)-2-(2-isoquinolin-5-yloxyethanoylamino)-3-methyl-butanoyl]amino]-2-oxidanyl-4-phenyl-butanoyl]pyrrolidine-2-carboxamide
> <PUBCHEM_IUPAC_TRADITIONAL_NAME>
(2S)-N-tert-butyl-1-[(2S,3S)-2-hydroxy-3-[[(2S)-2-[[2-(5-isoquinolyloxy)acetyl]amino]-3-methyl-butanoyl]amino]-4-phenyl-butanoyl]pyrrolidine-2-carboxamide
> <PUBCHEM_IUPAC_INCHI>
InChI=1S/C35H45N5O6/c1-22(2)30(38-29(41)21-46-28-15-9-13-24-20-36-17-16-25(24)28)33(44)37-26(19-23-11-7-6-8-12-23)31(42)34(45)40-18-10-14-27(40)32(43)39-35(3,4)5/h6-9,11-13,15-17,20,22,26-27,30-31,42H,10,14,18-19,21H2,1-5H3,(H,37,44)(H,38,41)(H,39,43)/t26-,27-,30-,31-/m0/s1
> <PUBCHEM_IUPAC_INCHIKEY>
BAMGEARUDKGNFX-FXZOGHEHSA-N
> <PUBCHEM_XLOGP3_AA>
3.9
> <PUBCHEM_EXACT_MASS>
631.33698417
> <PUBCHEM_MOLECULAR_FORMULA>
C35H45N5O6
> <PUBCHEM_MOLECULAR_WEIGHT>
631.8
> <PUBCHEM_OPENEYE_CAN_SMILES>
CC(C)C(C(=O)NC(CC1=CC=CC=C1)C(C(=O)N2CCCC2C(=O)NC(C)(C)C)O)NC(=O)COC3=CC=CC4=C3C=CN=C4
> <PUBCHEM_OPENEYE_ISO_SMILES>
CC(C)[C@@H](C(=O)N[C@@H](CC1=CC=CC=C1)[C@@H](C(=O)N2CCC[C@H]2C(=O)NC(C)(C)C)O)NC(=O)COC3=CC=CC4=C3C=CN=C4
> <PUBCHEM_CACTVS_TPSA>
150
> <PUBCHEM_MONOISOTOPIC_WEIGHT>
631.33698417
> <PUBCHEM_TOTAL_CHARGE>
0
> <PUBCHEM_HEAVY_ATOM_COUNT>
46
> <PUBCHEM_ATOM_DEF_STEREO_COUNT>
4
> <PUBCHEM_ATOM_UDEF_STEREO_COUNT>
0
> <PUBCHEM_BOND_DEF_STEREO_COUNT>
0
> <PUBCHEM_BOND_UDEF_STEREO_COUNT>
0
> <PUBCHEM_ISOTOPIC_ATOM_COUNT>
0
> <PUBCHEM_COMPONENT_COUNT>
1
> <PUBCHEM_CACTVS_TAUTO_COUNT>
-1
> <PUBCHEM_COORDINATE_TYPE>
1
5
255
> <PUBCHEM_BONDANNOTATIONS>
18  1  6
22  10  6
11  45  8
11  46  8
12  17  5
27  31  8
27  32  8
31  33  8
32  34  8
33  36  8
34  36  8
38  39  8
38  40  8
39  41  8
39  43  8
40  42  8
41  44  8
41  45  8
42  44  8
43  46  8
19  9  5
$$$$
