501820
  -OEChem-10302200282D
 93 96  0     1  0  0  0  0  0999 V2000
    2.0966    0.5691    0.0000 S   0  0  0  0  0  0  0  0  0  0  0  0
    8.8755   -2.7673    0.0000 S   0  0  0  0  0  0  0  0  0  0  0  0
    3.6793   -1.7673    0.0000 O   0  0  0  0  0  0  0  0  0  0  0  0
    5.4114    0.2327    0.0000 O   0  0  0  0  0  0  0  0  0  0  0  0
    5.2690    1.5873    0.0000 O   0  0  0  0  0  0  0  0  0  0  0  0
    7.1434   -2.7673    0.0000 O   0  0  0  0  0  0  0  0  0  0  0  0
    8.8755   -3.7673    0.0000 O   0  0  0  0  0  0  0  0  0  0  0  0
    7.8755   -2.7673    0.0000 O   0  0  0  0  0  0  0  0  0  0  0  0
    9.7415    1.7327    0.0000 O   0  0  0  0  0  0  0  0  0  0  0  0
    9.7415   -0.2673    0.0000 O   0  0  0  0  0  0  0  0  0  0  0  0
    3.6793    0.2327    0.0000 N   0  0  0  0  0  0  0  0  0  0  0  0
    4.1100    2.8745    0.0000 N   0  0  0  0  0  0  0  0  0  0  0  0
    6.2774   -1.2673    0.0000 N   0  0  0  0  0  0  0  0  0  0  0  0
    8.0094   -0.2673    0.0000 N   0  0  0  0  0  0  0  0  0  0  0  0
    3.5748    1.2272    0.0000 C   0  0  1  0  0  0  0  0  0  0  0  0
    3.1590    3.1835    0.0000 C   0  0  0  0  0  0  0  0  0  0  0  0
    5.4114   -1.7673    0.0000 C   0  0  2  0  0  0  0  0  0  0  0  0
    4.5454   -1.2673    0.0000 C   0  0  1  0  0  0  0  0  0  0  0  0
    2.5966    1.4351    0.0000 C   0  0  0  0  0  0  0  0  0  0  0  0
    2.7658   -0.1741    0.0000 C   0  0  0  0  0  0  0  0  0  0  0  0
    4.5454   -0.2673    0.0000 C   0  0  0  0  0  0  0  0  0  0  0  0
    4.3179    1.8963    0.0000 C   0  0  0  0  0  0  0  0  0  0  0  0
    5.4114   -2.7673    0.0000 C   0  0  0  0  0  0  0  0  0  0  0  0
    2.2079    3.4925    0.0000 C   0  0  0  0  0  0  0  0  0  0  0  0
    3.4680    4.1345    0.0000 C   0  0  0  0  0  0  0  0  0  0  0  0
    2.8500    2.2324    0.0000 C   0  0  0  0  0  0  0  0  0  0  0  0
    8.0094   -1.2673    0.0000 C   0  0  2  0  0  0  0  0  0  0  0  0
    7.1434   -1.7673    0.0000 C   0  0  0  0  0  0  0  0  0  0  0  0
    4.5454   -3.2673    0.0000 C   0  0  0  0  0  0  0  0  0  0  0  0
    2.0000    4.4706    0.0000 C   0  0  0  0  0  0  0  0  0  0  0  0
    8.8755   -1.7673    0.0000 C   0  0  0  0  0  0  0  0  0  0  0  0
    3.6793   -2.7673    0.0000 C   0  0  0  0  0  0  0  0  0  0  0  0
    4.5454   -4.2673    0.0000 C   0  0  0  0  0  0  0  0  0  0  0  0
    9.8755   -2.7673    0.0000 C   0  0  0  0  0  0  0  0  0  0  0  0
    2.8133   -3.2673    0.0000 C   0  0  0  0  0  0  0  0  0  0  0  0
    3.6793   -4.7673    0.0000 C   0  0  0  0  0  0  0  0  0  0  0  0
    8.8755    0.2327    0.0000 C   0  0  0  0  0  0  0  0  0  0  0  0
    2.8133   -4.2673    0.0000 C   0  0  0  0  0  0  0  0  0  0  0  0
    8.8755    1.2327    0.0000 C   0  0  0  0  0  0  0  0  0  0  0  0
    9.7415    2.7327    0.0000 C   0  0  0  0  0  0  0  0  0  0  0  0
   10.6075    3.2327    0.0000 C   0  0  0  0  0  0  0  0  0  0  0  0
   10.6075    4.2327    0.0000 C   0  0  0  0  0  0  0  0  0  0  0  0
    8.8755    3.2327    0.0000 C   0  0  0  0  0  0  0  0  0  0  0  0
   11.5015    2.6980    0.0000 C   0  0  0  0  0  0  0  0  0  0  0  0
    9.7415    4.7327    0.0000 C   0  0  0  0  0  0  0  0  0  0  0  0
    8.8755    4.2327    0.0000 C   0  0  0  0  0  0  0  0  0  0  0  0
   11.5015    4.7673    0.0000 C   0  0  0  0  0  0  0  0  0  0  0  0
   12.4075    3.2118    0.0000 C   0  0  0  0  0  0  0  0  0  0  0  0
   12.4075    4.2535    0.0000 C   0  0  0  0  0  0  0  0  0  0  0  0
    4.1536    1.0050    0.0000 H   0  0  0  0  0  0  0  0  0  0  0  0
    5.4114   -1.1473    0.0000 H   0  0  0  0  0  0  0  0  0  0  0  0
    4.0084   -0.9573    0.0000 H   0  0  0  0  0  0  0  0  0  0  0  0
    2.7882    2.0248    0.0000 H   0  0  0  0  0  0  0  0  0  0  0  0
    2.0302    1.6873    0.0000 H   0  0  0  0  0  0  0  0  0  0  0  0
    2.2642   -0.5385    0.0000 H   0  0  0  0  0  0  0  0  0  0  0  0
    3.0758   -0.7110    0.0000 H   0  0  0  0  0  0  0  0  0  0  0  0
    4.5708    3.2893    0.0000 H   0  0  0  0  0  0  0  0  0  0  0  0
    5.6234   -3.3499    0.0000 H   0  0  0  0  0  0  0  0  0  0  0  0
    6.0220   -2.6597    0.0000 H   0  0  0  0  0  0  0  0  0  0  0  0
    1.5883    3.4709    0.0000 H   0  0  0  0  0  0  0  0  0  0  0  0
    2.1216    2.8785    0.0000 H   0  0  0  0  0  0  0  0  0  0  0  0
    6.2774   -0.6473    0.0000 H   0  0  0  0  0  0  0  0  0  0  0  0
    4.0576    3.9430    0.0000 H   0  0  0  0  0  0  0  0  0  0  0  0
    3.6596    4.7242    0.0000 H   0  0  0  0  0  0  0  0  0  0  0  0
    2.8783    4.3261    0.0000 H   0  0  0  0  0  0  0  0  0  0  0  0
    2.2603    2.4240    0.0000 H   0  0  0  0  0  0  0  0  0  0  0  0
    2.6584    1.6428    0.0000 H   0  0  0  0  0  0  0  0  0  0  0  0
    3.4396    2.0408    0.0000 H   0  0  0  0  0  0  0  0  0  0  0  0
    8.5464   -0.9573    0.0000 H   0  0  0  0  0  0  0  0  0  0  0  0
    2.6064    4.5996    0.0000 H   0  0  0  0  0  0  0  0  0  0  0  0
    1.8711    5.0771    0.0000 H   0  0  0  0  0  0  0  0  0  0  0  0
    1.3936    4.3418    0.0000 H   0  0  0  0  0  0  0  0  0  0  0  0
    9.4860   -1.8750    0.0000 H   0  0  0  0  0  0  0  0  0  0  0  0
    9.0875   -1.1847    0.0000 H   0  0  0  0  0  0  0  0  0  0  0  0
    3.1424   -1.4573    0.0000 H   0  0  0  0  0  0  0  0  0  0  0  0
    7.4725    0.0427    0.0000 H   0  0  0  0  0  0  0  0  0  0  0  0
    3.6793   -2.1473    0.0000 H   0  0  0  0  0  0  0  0  0  0  0  0
    5.0823   -4.5773    0.0000 H   0  0  0  0  0  0  0  0  0  0  0  0
    9.8755   -3.3873    0.0000 H   0  0  0  0  0  0  0  0  0  0  0  0
   10.4955   -2.7673    0.0000 H   0  0  0  0  0  0  0  0  0  0  0  0
    9.8755   -2.1473    0.0000 H   0  0  0  0  0  0  0  0  0  0  0  0
    2.2764   -2.9573    0.0000 H   0  0  0  0  0  0  0  0  0  0  0  0
    3.6793   -5.3873    0.0000 H   0  0  0  0  0  0  0  0  0  0  0  0
    2.2764   -4.5773    0.0000 H   0  0  0  0  0  0  0  0  0  0  0  0
    8.6634    1.8153    0.0000 H   0  0  0  0  0  0  0  0  0  0  0  0
    8.2649    1.1250    0.0000 H   0  0  0  0  0  0  0  0  0  0  0  0
    8.3385    2.9227    0.0000 H   0  0  0  0  0  0  0  0  0  0  0  0
   11.4943    2.0780    0.0000 H   0  0  0  0  0  0  0  0  0  0  0  0
    9.7415    5.3527    0.0000 H   0  0  0  0  0  0  0  0  0  0  0  0
    8.3385    4.5427    0.0000 H   0  0  0  0  0  0  0  0  0  0  0  0
   11.4943    5.3873    0.0000 H   0  0  0  0  0  0  0  0  0  0  0  0
   12.9433    2.8998    0.0000 H   0  0  0  0  0  0  0  0  0  0  0  0
   12.9433    4.5656    0.0000 H   0  0  0  0  0  0  0  0  0  0  0  0
  1 19  1  0  0  0  0
  1 20  1  0  0  0  0
  2  7  2  0  0  0  0
  2  8  2  0  0  0  0
  2 31  1  0  0  0  0
  2 34  1  0  0  0  0
 18  3  1  6  0  0  0
  3 75  1  0  0  0  0
  4 21  2  0  0  0  0
  5 22  2  0  0  0  0
  6 28  2  0  0  0  0
  9 39  1  0  0  0  0
  9 40  1  0  0  0  0
 10 37  2  0  0  0  0
 11 15  1  0  0  0  0
 11 20  1  0  0  0  0
 11 21  1  0  0  0  0
 12 16  1  0  0  0  0
 12 22  1  0  0  0  0
 12 57  1  0  0  0  0
 17 13  1  1  0  0  0
 13 28  1  0  0  0  0
 13 62  1  0  0  0  0
 27 14  1  1  0  0  0
 14 37  1  0  0  0  0
 14 76  1  0  0  0  0
 15 19  1  0  0  0  0
 15 22  1  1  0  0  0
 15 50  1  0  0  0  0
 16 24  1  0  0  0  0
 16 25  1  0  0  0  0
 16 26  1  0  0  0  0
 17 18  1  0  0  0  0
 17 23  1  0  0  0  0
 17 51  1  0  0  0  0
 18 21  1  0  0  0  0
 18 52  1  0  0  0  0
 19 53  1  0  0  0  0
 19 54  1  0  0  0  0
 20 55  1  0  0  0  0
 20 56  1  0  0  0  0
 23 29  1  0  0  0  0
 23 58  1  0  0  0  0
 23 59  1  0  0  0  0
 24 30  1  0  0  0  0
 24 60  1  0  0  0  0
 24 61  1  0  0  0  0
 25 63  1  0  0  0  0
 25 64  1  0  0  0  0
 25 65  1  0  0  0  0
 26 66  1  0  0  0  0
 26 67  1  0  0  0  0
 26 68  1  0  0  0  0
 27 28  1  0  0  0  0
 27 31  1  0  0  0  0
 27 69  1  0  0  0  0
 29 32  2  0  0  0  0
 29 33  1  0  0  0  0
 30 70  1  0  0  0  0
 30 71  1  0  0  0  0
 30 72  1  0  0  0  0
 31 73  1  0  0  0  0
 31 74  1  0  0  0  0
 32 35  1  0  0  0  0
 32 77  1  0  0  0  0
 33 36  2  0  0  0  0
 33 78  1  0  0  0  0
 34 79  1  0  0  0  0
 34 80  1  0  0  0  0
 34 81  1  0  0  0  0
 35 38  2  0  0  0  0
 35 82  1  0  0  0  0
 36 38  1  0  0  0  0
 36 83  1  0  0  0  0
 37 39  1  0  0  0  0
 38 84  1  0  0  0  0
 39 85  1  0  0  0  0
 39 86  1  0  0  0  0
 40 41  1  0  0  0  0
 40 43  2  0  0  0  0
 41 42  1  0  0  0  0
 41 44  2  0  0  0  0
 42 45  1  0  0  0  0
 42 47  2  0  0  0  0
 43 46  1  0  0  0  0
 43 87  1  0  0  0  0
 44 48  1  0  0  0  0
 44 88  1  0  0  0  0
 45 46  2  0  0  0  0
 45 89  1  0  0  0  0
 46 90  1  0  0  0  0
 47 49  1  0  0  0  0
 47 91  1  0  0  0  0
 48 49  2  0  0  0  0
 48 92  1  0  0  0  0
 49 93  1  0  0  0  0
M  END
> <PUBCHEM_COMPOUND_CID>
501820
> <PUBCHEM_COMPOUND_CANONICALIZED>
1
> <PUBCHEM_CACTVS_COMPLEXITY>
1250
> <PUBCHEM_CACTVS_HBOND_ACCEPTOR>
9
> <PUBCHEM_CACTVS_HBOND_DONOR>
4
> <PUBCHEM_CACTVS_ROTATABLE_BOND>
15
> <PUBCHEM_CACTVS_SUBSKEYS>
AAADcfB/vABgAAAAAAAAAAAAAAAAAWAAAAAwYMAAAAAAAADBVAAAHgQQCAAADLzl2AayBsPABgqIAiFSEHJCCABgIBAIiIHOCIgOdjqk8T+XeCCk1hGYqAeYyLCOgAABAAAYAAAAAAIAADAAAAAAAAAAAA==
> <PUBCHEM_IUPAC_OPENEYE_NAME>
(4R)-N-(1,1-dimethylpropyl)-3-[(2S,3S)-2-hydroxy-3-[[(2R)-3-methylsulfonyl-2-[[2-(1-naphthyloxy)acetyl]amino]propanoyl]amino]-4-phenyl-butanoyl]thiazolidine-4-carboxamide
> <PUBCHEM_IUPAC_CAS_NAME>
(4R)-3-[(2S,3S)-2-hydroxy-3-[[(2R)-3-methylsulfonyl-2-[[2-(1-naphthalenyloxy)-1-oxoethyl]amino]-1-oxopropyl]amino]-1-oxo-4-phenylbutyl]-N-(2-methylbutan-2-yl)-4-thiazolidinecarboxamide
> <PUBCHEM_IUPAC_NAME_MARKUP>
(4<I>R</I>)-3-[(2<I>S</I>,3<I>S</I>)-2-hydroxy-3-[[(2<I>R</I>)-3-methylsulfonyl-2-[(2-naphthalen-1-yloxyacetyl)amino]propanoyl]amino]-4-phenylbutanoyl]-<I>N</I>-(2-methylbutan-2-yl)-1,3-thiazolidine-4-carboxamide
> <PUBCHEM_IUPAC_NAME>
(4R)-3-[(2S,3S)-2-hydroxy-3-[[(2R)-3-methylsulfonyl-2-[(2-naphthalen-1-yloxyacetyl)amino]propanoyl]amino]-4-phenylbutanoyl]-N-(2-methylbutan-2-yl)-1,3-thiazolidine-4-carboxamide
> <PUBCHEM_IUPAC_SYSTEMATIC_NAME>
(4R)-N-(2-methylbutan-2-yl)-3-[(2S,3S)-3-[[(2R)-3-methylsulfonyl-2-(2-naphthalen-1-yloxyethanoylamino)propanoyl]amino]-2-oxidanyl-4-phenyl-butanoyl]-1,3-thiazolidine-4-carboxamide
> <PUBCHEM_IUPAC_TRADITIONAL_NAME>
(4R)-N-tert-amyl-3-[(2S,3S)-2-hydroxy-3-[[(2R)-3-mesyl-2-[[2-(1-naphthoxy)acetyl]amino]propanoyl]amino]-4-phenyl-butanoyl]thiazolidine-4-carboxamide
> <PUBCHEM_IUPAC_INCHI>
InChI=1S/C35H44N4O8S2/c1-5-35(2,3)38-33(43)28-20-48-22-39(28)34(44)31(41)26(18-23-12-7-6-8-13-23)37-32(42)27(21-49(4,45)46)36-30(40)19-47-29-17-11-15-24-14-9-10-16-25(24)29/h6-17,26-28,31,41H,5,18-22H2,1-4H3,(H,36,40)(H,37,42)(H,38,43)/t26-,27-,28-,31-/m0/s1
> <PUBCHEM_IUPAC_INCHIKEY>
FCXDXCGTNNOYSX-KFZSMJGVSA-N
> <PUBCHEM_XLOGP3_AA>
3.6
> <PUBCHEM_EXACT_MASS>
712.26005672
> <PUBCHEM_MOLECULAR_FORMULA>
C35H44N4O8S2
> <PUBCHEM_MOLECULAR_WEIGHT>
712.9
> <PUBCHEM_OPENEYE_CAN_SMILES>
CCC(C)(C)NC(=O)C1CSCN1C(=O)C(C(CC2=CC=CC=C2)NC(=O)C(CS(=O)(=O)C)NC(=O)COC3=CC=CC4=CC=CC=C43)O
> <PUBCHEM_OPENEYE_ISO_SMILES>
CCC(C)(C)NC(=O)[C@@H]1CSCN1C(=O)[C@H]([C@H](CC2=CC=CC=C2)NC(=O)[C@H](CS(=O)(=O)C)NC(=O)COC3=CC=CC4=CC=CC=C43)O
> <PUBCHEM_CACTVS_TPSA>
205
> <PUBCHEM_MONOISOTOPIC_WEIGHT>
712.26005672
> <PUBCHEM_TOTAL_CHARGE>
0
> <PUBCHEM_HEAVY_ATOM_COUNT>
49
> <PUBCHEM_ATOM_DEF_STEREO_COUNT>
4
> <PUBCHEM_ATOM_UDEF_STEREO_COUNT>
0
> <PUBCHEM_BOND_DEF_STEREO_COUNT>
0
> <PUBCHEM_BOND_UDEF_STEREO_COUNT>
0
> <PUBCHEM_ISOTOPIC_ATOM_COUNT>
0
> <PUBCHEM_COMPONENT_COUNT>
1
> <PUBCHEM_CACTVS_TAUTO_COUNT>
-1
> <PUBCHEM_COORDINATE_TYPE>
1
5
255
> <PUBCHEM_BONDANNOTATIONS>
17  13  5
27  14  5
15  22  5
29  32  8
29  33  8
18  3  6
32  35  8
33  36  8
35  38  8
36  38  8
40  41  8
40  43  8
41  42  8
41  44  8
42  45  8
42  47  8
43  46  8
44  48  8
45  46  8
47  49  8
48  49  8
$$$$
