501844
  -OEChem-10302200282D
 99102  0     1  0  0  0  0  0999 V2000
    9.1448   -5.2024    0.0000 S   0  0  0  0  0  0  0  0  0  0  0  0
    2.8660   -1.0000    0.0000 S   0  0  0  0  0  0  0  0  0  0  0  0
    6.3301   -5.0000    0.0000 O   0  0  0  0  0  0  0  0  0  0  0  0
    7.1962   -2.5000    0.0000 O   0  0  0  0  0  0  0  0  0  0  0  0
    8.4405   -1.9460    0.0000 O   0  0  0  0  0  0  0  0  0  0  0  0
    3.7320   -2.5000    0.0000 O   0  0  0  0  0  0  0  0  0  0  0  0
    2.0000   -1.5000    0.0000 O   0  0  0  0  0  0  0  0  0  0  0  0
    3.3660   -1.8660    0.0000 O   0  0  0  0  0  0  0  0  0  0  0  0
   10.6603    6.5000    0.0000 O   0  0  0  0  0  0  0  0  0  0  0  0
    6.3301    2.0000    0.0000 O   0  0  0  0  0  0  0  0  0  0  0  0
    4.5981    1.0000    0.0000 O   0  0  0  0  0  0  0  0  0  0  0  0
    7.1962    5.5000    0.0000 O   0  0  0  0  0  0  0  0  0  0  0  0
    8.0622   -4.0000    0.0000 N   0  0  0  0  0  0  0  0  0  0  0  0
    5.4641   -2.5000    0.0000 N   0  0  0  0  0  0  0  0  0  0  0  0
   10.1347   -2.3061    0.0000 N   0  0  0  0  0  0  0  0  0  0  0  0
    5.4641   -0.5000    0.0000 N   0  0  0  0  0  0  0  0  0  0  0  0
    8.9282    5.5000    0.0000 N   0  0  0  0  0  0  0  0  0  0  0  0
    8.9757   -3.5933    0.0000 C   0  0  1  0  0  0  0  0  0  0  0  0
    5.4641   -3.5000    0.0000 C   0  0  2  0  0  0  0  0  0  0  0  0
    6.3301   -4.0000    0.0000 C   0  0  1  0  0  0  0  0  0  0  0  0
    9.6448   -4.3364    0.0000 C   0  0  0  0  0  0  0  0  0  0  0  0
    7.1962   -3.5000    0.0000 C   0  0  0  0  0  0  0  0  0  0  0  0
    8.1667   -4.9945    0.0000 C   0  0  0  0  0  0  0  0  0  0  0  0
    4.5981   -4.0000    0.0000 C   0  0  0  0  0  0  0  0  0  0  0  0
    9.1836   -2.6151    0.0000 C   0  0  0  0  0  0  0  0  0  0  0  0
   10.3426   -1.3280    0.0000 C   0  0  0  0  0  0  0  0  0  0  0  0
    4.5981   -1.0000    0.0000 C   0  0  2  0  0  0  0  0  0  0  0  0
    4.5981   -2.0000    0.0000 C   0  0  0  0  0  0  0  0  0  0  0  0
    4.5981   -5.0000    0.0000 C   0  0  0  0  0  0  0  0  0  0  0  0
   10.5505   -0.3498    0.0000 C   0  0  0  0  0  0  0  0  0  0  0  0
   11.3208   -1.5359    0.0000 C   0  0  0  0  0  0  0  0  0  0  0  0
    9.3645   -1.1200    0.0000 C   0  0  0  0  0  0  0  0  0  0  0  0
    3.7320   -0.5000    0.0000 C   0  0  0  0  0  0  0  0  0  0  0  0
    3.7320   -5.5000    0.0000 C   0  0  0  0  0  0  0  0  0  0  0  0
    5.4641   -5.5000    0.0000 C   0  0  0  0  0  0  0  0  0  0  0  0
    2.3660   -0.1340    0.0000 C   0  0  0  0  0  0  0  0  0  0  0  0
    3.7320   -6.5000    0.0000 C   0  0  0  0  0  0  0  0  0  0  0  0
    5.4641   -6.5000    0.0000 C   0  0  0  0  0  0  0  0  0  0  0  0
    5.4641    0.5000    0.0000 C   0  0  0  0  0  0  0  0  0  0  0  0
    4.5981   -7.0000    0.0000 C   0  0  0  0  0  0  0  0  0  0  0  0
    6.3301    1.0000    0.0000 C   0  0  0  0  0  0  0  0  0  0  0  0
    9.7942    5.0000    0.0000 C   0  0  0  0  0  0  0  0  0  0  0  0
    8.9282    6.5000    0.0000 C   0  0  0  0  0  0  0  0  0  0  0  0
   10.6603    5.5000    0.0000 C   0  0  0  0  0  0  0  0  0  0  0  0
    9.7942    7.0000    0.0000 C   0  0  0  0  0  0  0  0  0  0  0  0
    8.0622    5.0000    0.0000 C   0  0  0  0  0  0  0  0  0  0  0  0
    8.0622    4.0000    0.0000 C   0  0  0  0  0  0  0  0  0  0  0  0
    7.1962    2.5000    0.0000 C   0  0  0  0  0  0  0  0  0  0  0  0
    7.1962    3.5000    0.0000 C   0  0  0  0  0  0  0  0  0  0  0  0
    8.9282    3.5000    0.0000 C   0  0  0  0  0  0  0  0  0  0  0  0
    8.0622    2.0000    0.0000 C   0  0  0  0  0  0  0  0  0  0  0  0
    8.9282    2.5000    0.0000 C   0  0  0  0  0  0  0  0  0  0  0  0
    8.4939   -3.2031    0.0000 H   0  0  0  0  0  0  0  0  0  0  0  0
    6.0010   -3.1900    0.0000 H   0  0  0  0  0  0  0  0  0  0  0  0
    6.8671   -4.3100    0.0000 H   0  0  0  0  0  0  0  0  0  0  0  0
   10.1464   -4.7008    0.0000 H   0  0  0  0  0  0  0  0  0  0  0  0
   10.0597   -3.8757    0.0000 H   0  0  0  0  0  0  0  0  0  0  0  0
    7.5467   -4.9945    0.0000 H   0  0  0  0  0  0  0  0  0  0  0  0
    8.1019   -5.6111    0.0000 H   0  0  0  0  0  0  0  0  0  0  0  0
    4.3860   -3.4174    0.0000 H   0  0  0  0  0  0  0  0  0  0  0  0
    3.9875   -4.1077    0.0000 H   0  0  0  0  0  0  0  0  0  0  0  0
    6.0010   -2.1900    0.0000 H   0  0  0  0  0  0  0  0  0  0  0  0
   10.5954   -2.7210    0.0000 H   0  0  0  0  0  0  0  0  0  0  0  0
    4.5981   -0.3800    0.0000 H   0  0  0  0  0  0  0  0  0  0  0  0
   11.1570   -0.4787    0.0000 H   0  0  0  0  0  0  0  0  0  0  0  0
   10.6794    0.2566    0.0000 H   0  0  0  0  0  0  0  0  0  0  0  0
    9.9441   -0.2209    0.0000 H   0  0  0  0  0  0  0  0  0  0  0  0
   11.1918   -2.1423    0.0000 H   0  0  0  0  0  0  0  0  0  0  0  0
   11.9272   -1.6648    0.0000 H   0  0  0  0  0  0  0  0  0  0  0  0
   11.4497   -0.9294    0.0000 H   0  0  0  0  0  0  0  0  0  0  0  0
    9.4934   -0.5136    0.0000 H   0  0  0  0  0  0  0  0  0  0  0  0
    8.7580   -0.9911    0.0000 H   0  0  0  0  0  0  0  0  0  0  0  0
    9.2356   -1.7265    0.0000 H   0  0  0  0  0  0  0  0  0  0  0  0
    4.1306   -0.0251    0.0000 H   0  0  0  0  0  0  0  0  0  0  0  0
    3.3335   -0.0251    0.0000 H   0  0  0  0  0  0  0  0  0  0  0  0
    6.8671   -5.3100    0.0000 H   0  0  0  0  0  0  0  0  0  0  0  0
    6.0010   -0.8100    0.0000 H   0  0  0  0  0  0  0  0  0  0  0  0
    3.1951   -5.1900    0.0000 H   0  0  0  0  0  0  0  0  0  0  0  0
    6.0010   -5.1900    0.0000 H   0  0  0  0  0  0  0  0  0  0  0  0
    2.9030    0.1760    0.0000 H   0  0  0  0  0  0  0  0  0  0  0  0
    2.0560    0.4030    0.0000 H   0  0  0  0  0  0  0  0  0  0  0  0
    1.8291   -0.4440    0.0000 H   0  0  0  0  0  0  0  0  0  0  0  0
    3.1951   -6.8100    0.0000 H   0  0  0  0  0  0  0  0  0  0  0  0
    6.0010   -6.8100    0.0000 H   0  0  0  0  0  0  0  0  0  0  0  0
    4.5981   -7.6200    0.0000 H   0  0  0  0  0  0  0  0  0  0  0  0
    6.5422    0.4174    0.0000 H   0  0  0  0  0  0  0  0  0  0  0  0
    6.9407    1.1077    0.0000 H   0  0  0  0  0  0  0  0  0  0  0  0
    9.3957    4.5250    0.0000 H   0  0  0  0  0  0  0  0  0  0  0  0
   10.1928    4.5250    0.0000 H   0  0  0  0  0  0  0  0  0  0  0  0
    8.7162    7.0826    0.0000 H   0  0  0  0  0  0  0  0  0  0  0  0
    8.3176    6.3923    0.0000 H   0  0  0  0  0  0  0  0  0  0  0  0
   10.8723    4.9174    0.0000 H   0  0  0  0  0  0  0  0  0  0  0  0
   11.2708    5.6077    0.0000 H   0  0  0  0  0  0  0  0  0  0  0  0
   10.1928    7.4750    0.0000 H   0  0  0  0  0  0  0  0  0  0  0  0
    9.3957    7.4750    0.0000 H   0  0  0  0  0  0  0  0  0  0  0  0
    6.6592    3.8100    0.0000 H   0  0  0  0  0  0  0  0  0  0  0  0
    9.4651    3.8100    0.0000 H   0  0  0  0  0  0  0  0  0  0  0  0
    8.0622    1.3800    0.0000 H   0  0  0  0  0  0  0  0  0  0  0  0
    9.4651    2.1900    0.0000 H   0  0  0  0  0  0  0  0  0  0  0  0
  1 21  1  0  0  0  0
  1 23  1  0  0  0  0
  2  7  2  0  0  0  0
  2  8  2  0  0  0  0
  2 33  1  0  0  0  0
  2 36  1  0  0  0  0
 20  3  1  1  0  0  0
  3 76  1  0  0  0  0
  4 22  2  0  0  0  0
  5 25  2  0  0  0  0
  6 28  2  0  0  0  0
  9 44  1  0  0  0  0
  9 45  1  0  0  0  0
 10 41  1  0  0  0  0
 10 48  1  0  0  0  0
 11 39  2  0  0  0  0
 12 46  2  0  0  0  0
 13 18  1  0  0  0  0
 13 22  1  0  0  0  0
 13 23  1  0  0  0  0
 19 14  1  6  0  0  0
 14 28  1  0  0  0  0
 14 62  1  0  0  0  0
 15 25  1  0  0  0  0
 15 26  1  0  0  0  0
 15 63  1  0  0  0  0
 27 16  1  6  0  0  0
 16 39  1  0  0  0  0
 16 77  1  0  0  0  0
 17 42  1  0  0  0  0
 17 43  1  0  0  0  0
 17 46  1  0  0  0  0
 18 21  1  0  0  0  0
 18 25  1  6  0  0  0
 18 53  1  0  0  0  0
 19 20  1  0  0  0  0
 19 24  1  0  0  0  0
 19 54  1  0  0  0  0
 20 22  1  0  0  0  0
 20 55  1  0  0  0  0
 21 56  1  0  0  0  0
 21 57  1  0  0  0  0
 23 58  1  0  0  0  0
 23 59  1  0  0  0  0
 24 29  1  0  0  0  0
 24 60  1  0  0  0  0
 24 61  1  0  0  0  0
 26 30  1  0  0  0  0
 26 31  1  0  0  0  0
 26 32  1  0  0  0  0
 27 28  1  0  0  0  0
 27 33  1  0  0  0  0
 27 64  1  0  0  0  0
 29 34  2  0  0  0  0
 29 35  1  0  0  0  0
 30 65  1  0  0  0  0
 30 66  1  0  0  0  0
 30 67  1  0  0  0  0
 31 68  1  0  0  0  0
 31 69  1  0  0  0  0
 31 70  1  0  0  0  0
 32 71  1  0  0  0  0
 32 72  1  0  0  0  0
 32 73  1  0  0  0  0
 33 74  1  0  0  0  0
 33 75  1  0  0  0  0
 34 37  1  0  0  0  0
 34 78  1  0  0  0  0
 35 38  2  0  0  0  0
 35 79  1  0  0  0  0
 36 80  1  0  0  0  0
 36 81  1  0  0  0  0
 36 82  1  0  0  0  0
 37 40  2  0  0  0  0
 37 83  1  0  0  0  0
 38 40  1  0  0  0  0
 38 84  1  0  0  0  0
 39 41  1  0  0  0  0
 40 85  1  0  0  0  0
 41 86  1  0  0  0  0
 41 87  1  0  0  0  0
 42 44  1  0  0  0  0
 42 88  1  0  0  0  0
 42 89  1  0  0  0  0
 43 45  1  0  0  0  0
 43 90  1  0  0  0  0
 43 91  1  0  0  0  0
 44 92  1  0  0  0  0
 44 93  1  0  0  0  0
 45 94  1  0  0  0  0
 45 95  1  0  0  0  0
 46 47  1  0  0  0  0
 47 49  2  0  0  0  0
 47 50  1  0  0  0  0
 48 49  1  0  0  0  0
 48 51  2  0  0  0  0
 49 96  1  0  0  0  0
 50 52  2  0  0  0  0
 50 97  1  0  0  0  0
 51 52  1  0  0  0  0
 51 98  1  0  0  0  0
 52 99  1  0  0  0  0
M  END
> <PUBCHEM_COMPOUND_CID>
501844
> <PUBCHEM_COMPOUND_CANONICALIZED>
1
> <PUBCHEM_CACTVS_COMPLEXITY>
1360
> <PUBCHEM_CACTVS_HBOND_ACCEPTOR>
11
> <PUBCHEM_CACTVS_HBOND_DONOR>
4
> <PUBCHEM_CACTVS_ROTATABLE_BOND>
15
> <PUBCHEM_CACTVS_SUBSKEYS>
AAADcfB/vABgAAAAAAAAAAAAAAAAAWAAAAA8YIAAAAAAAAABQAAAHgQQCAAADLzl2AayBoPABgqIAiFSEHLCCABkIBAIiIHODMgOdjqk9T+XeSjk1hGYqYe6yLCOAAABAAAAAAAAAAIAAAAAAAAAAAAAAA==
> <PUBCHEM_IUPAC_OPENEYE_NAME>
(4R)-N-tert-butyl-3-[(2S,3S)-2-hydroxy-3-[[(2R)-3-methylsulfonyl-2-[[2-[3-(morpholine-4-carbonyl)phenoxy]acetyl]amino]propanoyl]amino]-4-phenyl-butanoyl]thiazolidine-4-carboxamide
> <PUBCHEM_IUPAC_CAS_NAME>
(4R)-N-tert-butyl-3-[(2S,3S)-2-hydroxy-3-[[(2R)-3-methylsulfonyl-2-[[2-[3-[4-morpholinyl(oxo)methyl]phenoxy]-1-oxoethyl]amino]-1-oxopropyl]amino]-1-oxo-4-phenylbutyl]-4-thiazolidinecarboxamide
> <PUBCHEM_IUPAC_NAME_MARKUP>
(4<I>R</I>)-<I>N</I>-<I>tert</I>-butyl-3-[(2<I>S</I>,3<I>S</I>)-2-hydroxy-3-[[(2<I>R</I>)-3-methylsulfonyl-2-[[2-[3-(morpholine-4-carbonyl)phenoxy]acetyl]amino]propanoyl]amino]-4-phenylbutanoyl]-1,3-thiazolidine-4-carboxamide
> <PUBCHEM_IUPAC_NAME>
(4R)-N-tert-butyl-3-[(2S,3S)-2-hydroxy-3-[[(2R)-3-methylsulfonyl-2-[[2-[3-(morpholine-4-carbonyl)phenoxy]acetyl]amino]propanoyl]amino]-4-phenylbutanoyl]-1,3-thiazolidine-4-carboxamide
> <PUBCHEM_IUPAC_SYSTEMATIC_NAME>
(4R)-N-tert-butyl-3-[(2S,3S)-3-[[(2R)-3-methylsulfonyl-2-[2-(3-morpholin-4-ylcarbonylphenoxy)ethanoylamino]propanoyl]amino]-2-oxidanyl-4-phenyl-butanoyl]-1,3-thiazolidine-4-carboxamide
> <PUBCHEM_IUPAC_TRADITIONAL_NAME>
(4R)-N-tert-butyl-3-[(2S,3S)-2-hydroxy-3-[[(2R)-3-mesyl-2-[[2-[3-(morpholine-4-carbonyl)phenoxy]acetyl]amino]propanoyl]amino]-4-phenyl-butanoyl]thiazolidine-4-carboxamide
> <PUBCHEM_IUPAC_INCHI>
InChI=1S/C35H47N5O10S2/c1-35(2,3)38-32(44)28-20-51-22-40(28)34(46)30(42)26(17-23-9-6-5-7-10-23)37-31(43)27(21-52(4,47)48)36-29(41)19-50-25-12-8-11-24(18-25)33(45)39-13-15-49-16-14-39/h5-12,18,26-28,30,42H,13-17,19-22H2,1-4H3,(H,36,41)(H,37,43)(H,38,44)/t26-,27-,28-,30-/m0/s1
> <PUBCHEM_IUPAC_INCHIKEY>
QDBRJBSRRVQXAA-NUISNXNRSA-N
> <PUBCHEM_XLOGP3_AA>
0.9
> <PUBCHEM_EXACT_MASS>
761.27643506
> <PUBCHEM_MOLECULAR_FORMULA>
C35H47N5O10S2
> <PUBCHEM_MOLECULAR_WEIGHT>
761.9
> <PUBCHEM_OPENEYE_CAN_SMILES>
CC(C)(C)NC(=O)C1CSCN1C(=O)C(C(CC2=CC=CC=C2)NC(=O)C(CS(=O)(=O)C)NC(=O)COC3=CC=CC(=C3)C(=O)N4CCOCC4)O
> <PUBCHEM_OPENEYE_ISO_SMILES>
CC(C)(C)NC(=O)[C@@H]1CSCN1C(=O)[C@H]([C@H](CC2=CC=CC=C2)NC(=O)[C@H](CS(=O)(=O)C)NC(=O)COC3=CC=CC(=C3)C(=O)N4CCOCC4)O
> <PUBCHEM_CACTVS_TPSA>
234
> <PUBCHEM_MONOISOTOPIC_WEIGHT>
761.27643506
> <PUBCHEM_TOTAL_CHARGE>
0
> <PUBCHEM_HEAVY_ATOM_COUNT>
52
> <PUBCHEM_ATOM_DEF_STEREO_COUNT>
4
> <PUBCHEM_ATOM_UDEF_STEREO_COUNT>
0
> <PUBCHEM_BOND_DEF_STEREO_COUNT>
0
> <PUBCHEM_BOND_UDEF_STEREO_COUNT>
0
> <PUBCHEM_ISOTOPIC_ATOM_COUNT>
0
> <PUBCHEM_COMPONENT_COUNT>
1
> <PUBCHEM_CACTVS_TAUTO_COUNT>
-1
> <PUBCHEM_COORDINATE_TYPE>
1
5
255
> <PUBCHEM_BONDANNOTATIONS>
19  14  6
27  16  6
18  25  6
29  34  8
29  35  8
20  3  5
34  37  8
35  38  8
37  40  8
38  40  8
47  49  8
47  50  8
48  49  8
48  51  8
50  52  8
51  52  8
$$$$
