501829
  -OEChem-10302200282D
 96 99  0     1  0  0  0  0  0999 V2000
   10.3611   -2.7673    0.0000 S   0  0  0  0  0  0  0  0  0  0  0  0
    2.5878    0.4645    0.0000 O   0  0  0  0  0  0  0  0  0  0  0  0
    5.1650   -1.7673    0.0000 O   0  0  0  0  0  0  0  0  0  0  0  0
    6.8970    0.2327    0.0000 O   0  0  0  0  0  0  0  0  0  0  0  0
    6.7547    1.5873    0.0000 O   0  0  0  0  0  0  0  0  0  0  0  0
    8.6291   -2.7673    0.0000 O   0  0  0  0  0  0  0  0  0  0  0  0
   11.3611   -2.7673    0.0000 O   0  0  0  0  0  0  0  0  0  0  0  0
    9.3611   -2.7673    0.0000 O   0  0  0  0  0  0  0  0  0  0  0  0
   11.2272   -0.2673    0.0000 O   0  0  0  0  0  0  0  0  0  0  0  0
   11.2272    1.7327    0.0000 O   0  0  0  0  0  0  0  0  0  0  0  0
    5.1650    0.2327    0.0000 N   0  0  0  0  0  0  0  0  0  0  0  0
    5.5957    2.8745    0.0000 N   0  0  0  0  0  0  0  0  0  0  0  0
    7.7631   -1.2673    0.0000 N   0  0  0  0  0  0  0  0  0  0  0  0
    9.4951   -0.2673    0.0000 N   0  0  0  0  0  0  0  0  0  0  0  0
    5.0604    1.2272    0.0000 C   0  0  1  0  0  0  0  0  0  0  0  0
    4.0823    1.4351    0.0000 C   0  0  0  0  0  0  0  0  0  0  0  0
    3.5823    0.5691    0.0000 C   0  0  3  0  0  0  0  0  0  0  0  0
    4.2514   -0.1741    0.0000 C   0  0  0  0  0  0  0  0  0  0  0  0
    6.0310   -0.2673    0.0000 C   0  0  0  0  0  0  0  0  0  0  0  0
    5.8036    1.8963    0.0000 C   0  0  0  0  0  0  0  0  0  0  0  0
    6.0310   -1.2673    0.0000 C   0  0  2  0  0  0  0  0  0  0  0  0
    6.8970   -1.7673    0.0000 C   0  0  2  0  0  0  0  0  0  0  0  0
    4.6446    3.1835    0.0000 C   0  0  0  0  0  0  0  0  0  0  0  0
    6.8970   -2.7673    0.0000 C   0  0  0  0  0  0  0  0  0  0  0  0
    2.0000    1.2736    0.0000 C   0  0  0  0  0  0  0  0  0  0  0  0
    3.6936    3.4925    0.0000 C   0  0  0  0  0  0  0  0  0  0  0  0
    4.9536    4.1345    0.0000 C   0  0  0  0  0  0  0  0  0  0  0  0
    4.3356    2.2324    0.0000 C   0  0  0  0  0  0  0  0  0  0  0  0
    6.0310   -3.2673    0.0000 C   0  0  0  0  0  0  0  0  0  0  0  0
    8.6291   -1.7673    0.0000 C   0  0  0  0  0  0  0  0  0  0  0  0
    9.4951   -1.2673    0.0000 C   0  0  2  0  0  0  0  0  0  0  0  0
   10.3611   -1.7673    0.0000 C   0  0  0  0  0  0  0  0  0  0  0  0
    5.1650   -2.7673    0.0000 C   0  0  0  0  0  0  0  0  0  0  0  0
    6.0310   -4.2673    0.0000 C   0  0  0  0  0  0  0  0  0  0  0  0
    4.2990   -3.2673    0.0000 C   0  0  0  0  0  0  0  0  0  0  0  0
    5.1650   -4.7673    0.0000 C   0  0  0  0  0  0  0  0  0  0  0  0
    4.2990   -4.2673    0.0000 C   0  0  0  0  0  0  0  0  0  0  0  0
   10.3611   -3.7673    0.0000 C   0  0  0  0  0  0  0  0  0  0  0  0
   10.3611    0.2327    0.0000 C   0  0  0  0  0  0  0  0  0  0  0  0
   10.3611    1.2327    0.0000 C   0  0  0  0  0  0  0  0  0  0  0  0
   11.2272    2.7327    0.0000 C   0  0  0  0  0  0  0  0  0  0  0  0
   12.0932    3.2327    0.0000 C   0  0  0  0  0  0  0  0  0  0  0  0
   10.3611    3.2327    0.0000 C   0  0  0  0  0  0  0  0  0  0  0  0
   12.0932    4.2327    0.0000 C   0  0  0  0  0  0  0  0  0  0  0  0
   12.9871    2.6980    0.0000 C   0  0  0  0  0  0  0  0  0  0  0  0
   10.3611    4.2327    0.0000 C   0  0  0  0  0  0  0  0  0  0  0  0
   11.2272    4.7327    0.0000 C   0  0  0  0  0  0  0  0  0  0  0  0
   12.9871    4.7673    0.0000 C   0  0  0  0  0  0  0  0  0  0  0  0
   13.8932    3.2118    0.0000 C   0  0  0  0  0  0  0  0  0  0  0  0
   13.8932    4.2535    0.0000 C   0  0  0  0  0  0  0  0  0  0  0  0
    5.6393    1.0050    0.0000 H   0  0  0  0  0  0  0  0  0  0  0  0
    4.2739    2.0248    0.0000 H   0  0  0  0  0  0  0  0  0  0  0  0
    3.5159    1.6873    0.0000 H   0  0  0  0  0  0  0  0  0  0  0  0
    3.2446    1.0890    0.0000 H   0  0  0  0  0  0  0  0  0  0  0  0
    3.7498   -0.5385    0.0000 H   0  0  0  0  0  0  0  0  0  0  0  0
    4.5614   -0.7110    0.0000 H   0  0  0  0  0  0  0  0  0  0  0  0
    6.0310   -1.8873    0.0000 H   0  0  0  0  0  0  0  0  0  0  0  0
    6.8970   -1.1473    0.0000 H   0  0  0  0  0  0  0  0  0  0  0  0
    6.0564    3.2893    0.0000 H   0  0  0  0  0  0  0  0  0  0  0  0
    7.1091   -3.3499    0.0000 H   0  0  0  0  0  0  0  0  0  0  0  0
    7.5076   -2.6597    0.0000 H   0  0  0  0  0  0  0  0  0  0  0  0
    7.7631   -0.6473    0.0000 H   0  0  0  0  0  0  0  0  0  0  0  0
    2.5016    1.6380    0.0000 H   0  0  0  0  0  0  0  0  0  0  0  0
    1.6356    1.7752    0.0000 H   0  0  0  0  0  0  0  0  0  0  0  0
    1.4984    0.9091    0.0000 H   0  0  0  0  0  0  0  0  0  0  0  0
    3.8852    4.0822    0.0000 H   0  0  0  0  0  0  0  0  0  0  0  0
    3.1039    3.6841    0.0000 H   0  0  0  0  0  0  0  0  0  0  0  0
    3.5020    2.9028    0.0000 H   0  0  0  0  0  0  0  0  0  0  0  0
    5.5433    3.9430    0.0000 H   0  0  0  0  0  0  0  0  0  0  0  0
    5.1452    4.7242    0.0000 H   0  0  0  0  0  0  0  0  0  0  0  0
    4.3640    4.3261    0.0000 H   0  0  0  0  0  0  0  0  0  0  0  0
    3.7460    2.4240    0.0000 H   0  0  0  0  0  0  0  0  0  0  0  0
    4.1440    1.6428    0.0000 H   0  0  0  0  0  0  0  0  0  0  0  0
    4.9253    2.0408    0.0000 H   0  0  0  0  0  0  0  0  0  0  0  0
    4.6280   -1.4573    0.0000 H   0  0  0  0  0  0  0  0  0  0  0  0
   10.0320   -0.9573    0.0000 H   0  0  0  0  0  0  0  0  0  0  0  0
   10.9717   -1.8750    0.0000 H   0  0  0  0  0  0  0  0  0  0  0  0
   10.5732   -1.1847    0.0000 H   0  0  0  0  0  0  0  0  0  0  0  0
    5.1650   -2.1473    0.0000 H   0  0  0  0  0  0  0  0  0  0  0  0
    6.5679   -4.5773    0.0000 H   0  0  0  0  0  0  0  0  0  0  0  0
    8.9582    0.0427    0.0000 H   0  0  0  0  0  0  0  0  0  0  0  0
    3.7620   -2.9573    0.0000 H   0  0  0  0  0  0  0  0  0  0  0  0
    5.1650   -5.3873    0.0000 H   0  0  0  0  0  0  0  0  0  0  0  0
    3.7620   -4.5773    0.0000 H   0  0  0  0  0  0  0  0  0  0  0  0
    9.7411   -3.7673    0.0000 H   0  0  0  0  0  0  0  0  0  0  0  0
   10.3611   -4.3873    0.0000 H   0  0  0  0  0  0  0  0  0  0  0  0
   10.9811   -3.7673    0.0000 H   0  0  0  0  0  0  0  0  0  0  0  0
   10.1491    1.8153    0.0000 H   0  0  0  0  0  0  0  0  0  0  0  0
    9.7506    1.1250    0.0000 H   0  0  0  0  0  0  0  0  0  0  0  0
    9.8242    2.9227    0.0000 H   0  0  0  0  0  0  0  0  0  0  0  0
   12.9800    2.0780    0.0000 H   0  0  0  0  0  0  0  0  0  0  0  0
   11.2272    5.3527    0.0000 H   0  0  0  0  0  0  0  0  0  0  0  0
    9.8242    4.5427    0.0000 H   0  0  0  0  0  0  0  0  0  0  0  0
   12.9800    5.3873    0.0000 H   0  0  0  0  0  0  0  0  0  0  0  0
   14.4289    2.8998    0.0000 H   0  0  0  0  0  0  0  0  0  0  0  0
   14.4289    4.5656    0.0000 H   0  0  0  0  0  0  0  0  0  0  0  0
  1  7  2  0  0  0  0
  1  8  2  0  0  0  0
  1 32  1  0  0  0  0
  1 38  1  0  0  0  0
  2 17  1  0  0  0  0
  2 25  1  0  0  0  0
 21  3  1  6  0  0  0
  3 75  1  0  0  0  0
  4 19  2  0  0  0  0
  5 20  2  0  0  0  0
  6 30  2  0  0  0  0
  9 39  2  0  0  0  0
 10 40  1  0  0  0  0
 10 41  1  0  0  0  0
 11 15  1  0  0  0  0
 11 18  1  0  0  0  0
 11 19  1  0  0  0  0
 12 20  1  0  0  0  0
 12 23  1  0  0  0  0
 12 59  1  0  0  0  0
 22 13  1  1  0  0  0
 13 30  1  0  0  0  0
 13 62  1  0  0  0  0
 31 14  1  1  0  0  0
 14 39  1  0  0  0  0
 14 81  1  0  0  0  0
 15 16  1  0  0  0  0
 15 20  1  1  0  0  0
 15 51  1  0  0  0  0
 16 17  1  0  0  0  0
 16 52  1  0  0  0  0
 16 53  1  0  0  0  0
 17 18  1  0  0  0  0
 17 54  1  0  0  0  0
 18 55  1  0  0  0  0
 18 56  1  0  0  0  0
 19 21  1  0  0  0  0
 21 22  1  0  0  0  0
 21 57  1  0  0  0  0
 22 24  1  0  0  0  0
 22 58  1  0  0  0  0
 23 26  1  0  0  0  0
 23 27  1  0  0  0  0
 23 28  1  0  0  0  0
 24 29  1  0  0  0  0
 24 60  1  0  0  0  0
 24 61  1  0  0  0  0
 25 63  1  0  0  0  0
 25 64  1  0  0  0  0
 25 65  1  0  0  0  0
 26 66  1  0  0  0  0
 26 67  1  0  0  0  0
 26 68  1  0  0  0  0
 27 69  1  0  0  0  0
 27 70  1  0  0  0  0
 27 71  1  0  0  0  0
 28 72  1  0  0  0  0
 28 73  1  0  0  0  0
 28 74  1  0  0  0  0
 29 33  2  0  0  0  0
 29 34  1  0  0  0  0
 30 31  1  0  0  0  0
 31 32  1  0  0  0  0
 31 76  1  0  0  0  0
 32 77  1  0  0  0  0
 32 78  1  0  0  0  0
 33 35  1  0  0  0  0
 33 79  1  0  0  0  0
 34 36  2  0  0  0  0
 34 80  1  0  0  0  0
 35 37  2  0  0  0  0
 35 82  1  0  0  0  0
 36 37  1  0  0  0  0
 36 83  1  0  0  0  0
 37 84  1  0  0  0  0
 38 85  1  0  0  0  0
 38 86  1  0  0  0  0
 38 87  1  0  0  0  0
 39 40  1  0  0  0  0
 40 88  1  0  0  0  0
 40 89  1  0  0  0  0
 41 42  1  0  0  0  0
 41 43  2  0  0  0  0
 42 44  1  0  0  0  0
 42 45  2  0  0  0  0
 43 46  1  0  0  0  0
 43 90  1  0  0  0  0
 44 47  1  0  0  0  0
 44 48  2  0  0  0  0
 45 49  1  0  0  0  0
 45 91  1  0  0  0  0
 46 47  2  0  0  0  0
 46 93  1  0  0  0  0
 47 92  1  0  0  0  0
 48 50  1  0  0  0  0
 48 94  1  0  0  0  0
 49 50  2  0  0  0  0
 49 95  1  0  0  0  0
 50 96  1  0  0  0  0
M  END
> <PUBCHEM_COMPOUND_CID>
501829
> <PUBCHEM_COMPOUND_CANONICALIZED>
1
> <PUBCHEM_CACTVS_COMPLEXITY>
1280
> <PUBCHEM_CACTVS_HBOND_ACCEPTOR>
9
> <PUBCHEM_CACTVS_HBOND_DONOR>
4
> <PUBCHEM_CACTVS_ROTATABLE_BOND>
15
> <PUBCHEM_CACTVS_SUBSKEYS>
AAADcfB/vABAAAAAAAAAAAAAAAAAAWAAAAAwYMAAAAAAAADBVAAAHgQQCAAADLzl2AayBsPABgqIAiFSEHJCCAAgIBAIiIHOCIgOdjqk8T+XeCCm1hGYqAe6ybCOgAABAAAYAAAAAAIAADAAAAAAAAAAAA==
> <PUBCHEM_IUPAC_OPENEYE_NAME>
(2S)-N-tert-butyl-1-[(2S,3S)-2-hydroxy-3-[[(2R)-3-methylsulfonyl-2-[[2-(1-naphthyloxy)acetyl]amino]propanoyl]amino]-4-phenyl-butanoyl]-4-methoxy-pyrrolidine-2-carboxamide
> <PUBCHEM_IUPAC_CAS_NAME>
(2S)-N-tert-butyl-1-[(2S,3S)-2-hydroxy-3-[[(2R)-3-methylsulfonyl-2-[[2-(1-naphthalenyloxy)-1-oxoethyl]amino]-1-oxopropyl]amino]-1-oxo-4-phenylbutyl]-4-methoxy-2-pyrrolidinecarboxamide
> <PUBCHEM_IUPAC_NAME_MARKUP>
(2<I>S</I>)-<I>N</I>-<I>tert</I>-butyl-1-[(2<I>S</I>,3<I>S</I>)-2-hydroxy-3-[[(2<I>R</I>)-3-methylsulfonyl-2-[(2-naphthalen-1-yloxyacetyl)amino]propanoyl]amino]-4-phenylbutanoyl]-4-methoxypyrrolidine-2-carboxamide
> <PUBCHEM_IUPAC_NAME>
(2S)-N-tert-butyl-1-[(2S,3S)-2-hydroxy-3-[[(2R)-3-methylsulfonyl-2-[(2-naphthalen-1-yloxyacetyl)amino]propanoyl]amino]-4-phenylbutanoyl]-4-methoxypyrrolidine-2-carboxamide
> <PUBCHEM_IUPAC_SYSTEMATIC_NAME>
(2S)-N-tert-butyl-4-methoxy-1-[(2S,3S)-3-[[(2R)-3-methylsulfonyl-2-(2-naphthalen-1-yloxyethanoylamino)propanoyl]amino]-2-oxidanyl-4-phenyl-butanoyl]pyrrolidine-2-carboxamide
> <PUBCHEM_IUPAC_TRADITIONAL_NAME>
(2S)-N-tert-butyl-1-[(2S,3S)-2-hydroxy-3-[[(2R)-3-mesyl-2-[[2-(1-naphthoxy)acetyl]amino]propanoyl]amino]-4-phenyl-butanoyl]-4-methoxy-pyrrolidine-2-carboxamide
> <PUBCHEM_IUPAC_INCHI>
InChI=1S/C36H46N4O9S/c1-36(2,3)39-34(44)29-19-25(48-4)20-40(29)35(45)32(42)27(18-23-12-7-6-8-13-23)38-33(43)28(22-50(5,46)47)37-31(41)21-49-30-17-11-15-24-14-9-10-16-26(24)30/h6-17,25,27-29,32,42H,18-22H2,1-5H3,(H,37,41)(H,38,43)(H,39,44)/t25?,27-,28-,29-,32-/m0/s1
> <PUBCHEM_IUPAC_INCHIKEY>
JHHAZOQPAMGTSW-AGTGKUABSA-N
> <PUBCHEM_XLOGP3_AA>
2.6
> <PUBCHEM_EXACT_MASS>
710.29855023
> <PUBCHEM_MOLECULAR_FORMULA>
C36H46N4O9S
> <PUBCHEM_MOLECULAR_WEIGHT>
710.8
> <PUBCHEM_OPENEYE_CAN_SMILES>
CC(C)(C)NC(=O)C1CC(CN1C(=O)C(C(CC2=CC=CC=C2)NC(=O)C(CS(=O)(=O)C)NC(=O)COC3=CC=CC4=CC=CC=C43)O)OC
> <PUBCHEM_OPENEYE_ISO_SMILES>
CC(C)(C)NC(=O)[C@@H]1CC(CN1C(=O)[C@H]([C@H](CC2=CC=CC=C2)NC(=O)[C@H](CS(=O)(=O)C)NC(=O)COC3=CC=CC4=CC=CC=C43)O)OC
> <PUBCHEM_CACTVS_TPSA>
189
> <PUBCHEM_MONOISOTOPIC_WEIGHT>
710.29855023
> <PUBCHEM_TOTAL_CHARGE>
0
> <PUBCHEM_HEAVY_ATOM_COUNT>
50
> <PUBCHEM_ATOM_DEF_STEREO_COUNT>
4
> <PUBCHEM_ATOM_UDEF_STEREO_COUNT>
1
> <PUBCHEM_BOND_DEF_STEREO_COUNT>
0
> <PUBCHEM_BOND_UDEF_STEREO_COUNT>
0
> <PUBCHEM_ISOTOPIC_ATOM_COUNT>
0
> <PUBCHEM_COMPONENT_COUNT>
1
> <PUBCHEM_CACTVS_TAUTO_COUNT>
-1
> <PUBCHEM_COORDINATE_TYPE>
1
5
255
> <PUBCHEM_BONDANNOTATIONS>
22  13  5
31  14  5
15  20  5
17  2  3
29  33  8
29  34  8
21  3  6
33  35  8
34  36  8
35  37  8
36  37  8
41  42  8
41  43  8
42  44  8
42  45  8
43  46  8
44  47  8
44  48  8
45  49  8
46  47  8
48  50  8
49  50  8
$$$$
