501834
  -OEChem-10302200282D
 95 99  0     1  0  0  0  0  0999 V2000
    3.0926   -0.1062    0.0000 S   0  0  0  0  0  0  0  0  0  0  0  0
    9.8715   -3.4426    0.0000 S   0  0  0  0  0  0  0  0  0  0  0  0
    4.6753   -2.4426    0.0000 O   0  0  0  0  0  0  0  0  0  0  0  0
    6.4074   -0.4426    0.0000 O   0  0  0  0  0  0  0  0  0  0  0  0
    6.2650    0.9120    0.0000 O   0  0  0  0  0  0  0  0  0  0  0  0
    8.1394   -3.4426    0.0000 O   0  0  0  0  0  0  0  0  0  0  0  0
    9.8715   -4.4426    0.0000 O   0  0  0  0  0  0  0  0  0  0  0  0
    8.8715   -3.4426    0.0000 O   0  0  0  0  0  0  0  0  0  0  0  0
    2.4608    2.1481    0.0000 O   0  0  0  0  0  0  0  0  0  0  0  0
   10.7375    1.0574    0.0000 O   0  0  0  0  0  0  0  0  0  0  0  0
   10.7375   -0.9426    0.0000 O   0  0  0  0  0  0  0  0  0  0  0  0
    4.6753   -0.4426    0.0000 N   0  0  0  0  0  0  0  0  0  0  0  0
    7.2734   -1.9426    0.0000 N   0  0  0  0  0  0  0  0  0  0  0  0
    5.1060    2.1992    0.0000 N   0  0  0  0  0  0  0  0  0  0  0  0
    9.0054   -0.9426    0.0000 N   0  0  0  0  0  0  0  0  0  0  0  0
    4.5708    0.5519    0.0000 C   0  0  1  0  0  0  0  0  0  0  0  0
    6.4074   -2.4426    0.0000 C   0  0  2  0  0  0  0  0  0  0  0  0
    5.5413   -1.9426    0.0000 C   0  0  1  0  0  0  0  0  0  0  0  0
    3.5926    0.7598    0.0000 C   0  0  0  0  0  0  0  0  0  0  0  0
    5.5413   -0.9426    0.0000 C   0  0  0  0  0  0  0  0  0  0  0  0
    3.7618   -0.8494    0.0000 C   0  0  0  0  0  0  0  0  0  0  0  0
    6.4074   -3.4426    0.0000 C   0  0  0  0  0  0  0  0  0  0  0  0
    5.3139    1.2210    0.0000 C   0  0  0  0  0  0  0  0  0  0  0  0
    9.0054   -1.9426    0.0000 C   0  0  2  0  0  0  0  0  0  0  0  0
    8.1394   -2.4426    0.0000 C   0  0  0  0  0  0  0  0  0  0  0  0
    5.5413   -3.9426    0.0000 C   0  0  0  0  0  0  0  0  0  0  0  0
    4.1550    2.5082    0.0000 C   0  0  3  0  0  0  0  0  0  0  0  0
    9.8715   -2.4426    0.0000 C   0  0  0  0  0  0  0  0  0  0  0  0
    5.5413   -4.9426    0.0000 C   0  0  0  0  0  0  0  0  0  0  0  0
    4.6753   -3.4426    0.0000 C   0  0  0  0  0  0  0  0  0  0  0  0
    3.9470    3.4863    0.0000 C   0  0  0  0  0  0  0  0  0  0  0  0
    3.4118    1.8391    0.0000 C   0  0  0  0  0  0  0  0  0  0  0  0
   10.8715   -3.4426    0.0000 C   0  0  0  0  0  0  0  0  0  0  0  0
    4.6753   -5.4426    0.0000 C   0  0  0  0  0  0  0  0  0  0  0  0
    3.8093   -3.9426    0.0000 C   0  0  0  0  0  0  0  0  0  0  0  0
    9.8715   -0.4426    0.0000 C   0  0  0  0  0  0  0  0  0  0  0  0
    2.9960    3.7954    0.0000 C   0  0  0  0  0  0  0  0  0  0  0  0
    4.6902    4.1555    0.0000 C   0  0  0  0  0  0  0  0  0  0  0  0
    3.8093   -4.9426    0.0000 C   0  0  0  0  0  0  0  0  0  0  0  0
    9.8715    0.5574    0.0000 C   0  0  0  0  0  0  0  0  0  0  0  0
    2.7881    4.7735    0.0000 C   0  0  0  0  0  0  0  0  0  0  0  0
    4.4823    5.1336    0.0000 C   0  0  0  0  0  0  0  0  0  0  0  0
    3.5312    5.4426    0.0000 C   0  0  0  0  0  0  0  0  0  0  0  0
   10.7375    2.0574    0.0000 C   0  0  0  0  0  0  0  0  0  0  0  0
   11.6035    2.5574    0.0000 C   0  0  0  0  0  0  0  0  0  0  0  0
   11.6035    3.5574    0.0000 C   0  0  0  0  0  0  0  0  0  0  0  0
    9.8715    2.5574    0.0000 C   0  0  0  0  0  0  0  0  0  0  0  0
   12.4974    2.0227    0.0000 C   0  0  0  0  0  0  0  0  0  0  0  0
   10.7375    4.0574    0.0000 C   0  0  0  0  0  0  0  0  0  0  0  0
    9.8715    3.5574    0.0000 C   0  0  0  0  0  0  0  0  0  0  0  0
   12.4974    4.0920    0.0000 C   0  0  0  0  0  0  0  0  0  0  0  0
   13.4035    2.5366    0.0000 C   0  0  0  0  0  0  0  0  0  0  0  0
   13.4035    3.5782    0.0000 C   0  0  0  0  0  0  0  0  0  0  0  0
    5.1496    0.3297    0.0000 H   0  0  0  0  0  0  0  0  0  0  0  0
    6.9443   -2.7526    0.0000 H   0  0  0  0  0  0  0  0  0  0  0  0
    5.0044   -1.6326    0.0000 H   0  0  0  0  0  0  0  0  0  0  0  0
    3.7842    1.3495    0.0000 H   0  0  0  0  0  0  0  0  0  0  0  0
    3.0262    1.0120    0.0000 H   0  0  0  0  0  0  0  0  0  0  0  0
    3.2602   -1.2138    0.0000 H   0  0  0  0  0  0  0  0  0  0  0  0
    4.0718   -1.3863    0.0000 H   0  0  0  0  0  0  0  0  0  0  0  0
    6.6194   -4.0252    0.0000 H   0  0  0  0  0  0  0  0  0  0  0  0
    7.0179   -3.3350    0.0000 H   0  0  0  0  0  0  0  0  0  0  0  0
    7.2734   -1.3226    0.0000 H   0  0  0  0  0  0  0  0  0  0  0  0
    9.5424   -1.6326    0.0000 H   0  0  0  0  0  0  0  0  0  0  0  0
    5.5668    2.6140    0.0000 H   0  0  0  0  0  0  0  0  0  0  0  0
   10.4820   -2.5503    0.0000 H   0  0  0  0  0  0  0  0  0  0  0  0
   10.0835   -1.8600    0.0000 H   0  0  0  0  0  0  0  0  0  0  0  0
    4.2839    1.9017    0.0000 H   0  0  0  0  0  0  0  0  0  0  0  0
    4.1384   -2.1326    0.0000 H   0  0  0  0  0  0  0  0  0  0  0  0
    8.4685   -0.6326    0.0000 H   0  0  0  0  0  0  0  0  0  0  0  0
    6.0783   -5.2526    0.0000 H   0  0  0  0  0  0  0  0  0  0  0  0
    4.6753   -2.8226    0.0000 H   0  0  0  0  0  0  0  0  0  0  0  0
    3.1207    1.2916    0.0000 H   0  0  0  0  0  0  0  0  0  0  0  0
    3.9004    1.4574    0.0000 H   0  0  0  0  0  0  0  0  0  0  0  0
   10.8715   -4.0626    0.0000 H   0  0  0  0  0  0  0  0  0  0  0  0
   11.4915   -3.4426    0.0000 H   0  0  0  0  0  0  0  0  0  0  0  0
   10.8715   -2.8226    0.0000 H   0  0  0  0  0  0  0  0  0  0  0  0
    4.6753   -6.0626    0.0000 H   0  0  0  0  0  0  0  0  0  0  0  0
    3.2723   -3.6326    0.0000 H   0  0  0  0  0  0  0  0  0  0  0  0
    2.5352    3.3805    0.0000 H   0  0  0  0  0  0  0  0  0  0  0  0
    5.2798    3.9639    0.0000 H   0  0  0  0  0  0  0  0  0  0  0  0
    3.2723   -5.2526    0.0000 H   0  0  0  0  0  0  0  0  0  0  0  0
    9.6594    1.1400    0.0000 H   0  0  0  0  0  0  0  0  0  0  0  0
    9.2609    0.4497    0.0000 H   0  0  0  0  0  0  0  0  0  0  0  0
    2.0000    1.7332    0.0000 H   0  0  0  0  0  0  0  0  0  0  0  0
    2.1984    4.9651    0.0000 H   0  0  0  0  0  0  0  0  0  0  0  0
    4.9430    5.5485    0.0000 H   0  0  0  0  0  0  0  0  0  0  0  0
    3.4023    6.0491    0.0000 H   0  0  0  0  0  0  0  0  0  0  0  0
    9.3345    2.2474    0.0000 H   0  0  0  0  0  0  0  0  0  0  0  0
   12.4903    1.4028    0.0000 H   0  0  0  0  0  0  0  0  0  0  0  0
   10.7375    4.6774    0.0000 H   0  0  0  0  0  0  0  0  0  0  0  0
    9.3345    3.8674    0.0000 H   0  0  0  0  0  0  0  0  0  0  0  0
   12.4903    4.7120    0.0000 H   0  0  0  0  0  0  0  0  0  0  0  0
   13.9393    2.2245    0.0000 H   0  0  0  0  0  0  0  0  0  0  0  0
   13.9393    3.8902    0.0000 H   0  0  0  0  0  0  0  0  0  0  0  0
  1 19  1  0  0  0  0
  1 21  1  0  0  0  0
  2  7  2  0  0  0  0
  2  8  2  0  0  0  0
  2 28  1  0  0  0  0
  2 33  1  0  0  0  0
 18  3  1  6  0  0  0
  3 69  1  0  0  0  0
  4 20  2  0  0  0  0
  5 23  2  0  0  0  0
  6 25  2  0  0  0  0
  9 32  1  0  0  0  0
  9 85  1  0  0  0  0
 10 40  1  0  0  0  0
 10 44  1  0  0  0  0
 11 36  2  0  0  0  0
 12 16  1  0  0  0  0
 12 20  1  0  0  0  0
 12 21  1  0  0  0  0
 17 13  1  1  0  0  0
 13 25  1  0  0  0  0
 13 63  1  0  0  0  0
 14 23  1  0  0  0  0
 14 27  1  0  0  0  0
 14 65  1  0  0  0  0
 24 15  1  1  0  0  0
 15 36  1  0  0  0  0
 15 70  1  0  0  0  0
 16 19  1  0  0  0  0
 16 23  1  1  0  0  0
 16 54  1  0  0  0  0
 17 18  1  0  0  0  0
 17 22  1  0  0  0  0
 17 55  1  0  0  0  0
 18 20  1  0  0  0  0
 18 56  1  0  0  0  0
 19 57  1  0  0  0  0
 19 58  1  0  0  0  0
 21 59  1  0  0  0  0
 21 60  1  0  0  0  0
 22 26  1  0  0  0  0
 22 61  1  0  0  0  0
 22 62  1  0  0  0  0
 24 25  1  0  0  0  0
 24 28  1  0  0  0  0
 24 64  1  0  0  0  0
 26 29  2  0  0  0  0
 26 30  1  0  0  0  0
 27 31  1  0  0  0  0
 27 32  1  0  0  0  0
 27 68  1  0  0  0  0
 28 66  1  0  0  0  0
 28 67  1  0  0  0  0
 29 34  1  0  0  0  0
 29 71  1  0  0  0  0
 30 35  2  0  0  0  0
 30 72  1  0  0  0  0
 31 37  2  0  0  0  0
 31 38  1  0  0  0  0
 32 73  1  0  0  0  0
 32 74  1  0  0  0  0
 33 75  1  0  0  0  0
 33 76  1  0  0  0  0
 33 77  1  0  0  0  0
 34 39  2  0  0  0  0
 34 78  1  0  0  0  0
 35 39  1  0  0  0  0
 35 79  1  0  0  0  0
 36 40  1  0  0  0  0
 37 41  1  0  0  0  0
 37 80  1  0  0  0  0
 38 42  2  0  0  0  0
 38 81  1  0  0  0  0
 39 82  1  0  0  0  0
 40 83  1  0  0  0  0
 40 84  1  0  0  0  0
 41 43  2  0  0  0  0
 41 86  1  0  0  0  0
 42 43  1  0  0  0  0
 42 87  1  0  0  0  0
 43 88  1  0  0  0  0
 44 45  1  0  0  0  0
 44 47  2  0  0  0  0
 45 46  1  0  0  0  0
 45 48  2  0  0  0  0
 46 49  1  0  0  0  0
 46 51  2  0  0  0  0
 47 50  1  0  0  0  0
 47 89  1  0  0  0  0
 48 52  1  0  0  0  0
 48 90  1  0  0  0  0
 49 50  2  0  0  0  0
 49 91  1  0  0  0  0
 50 92  1  0  0  0  0
 51 53  1  0  0  0  0
 51 93  1  0  0  0  0
 52 53  2  0  0  0  0
 52 94  1  0  0  0  0
 53 95  1  0  0  0  0
M  END
> <PUBCHEM_COMPOUND_CID>
501834
> <PUBCHEM_COMPOUND_CANONICALIZED>
1
> <PUBCHEM_CACTVS_COMPLEXITY>
1330
> <PUBCHEM_CACTVS_HBOND_ACCEPTOR>
10
> <PUBCHEM_CACTVS_HBOND_DONOR>
5
> <PUBCHEM_CACTVS_ROTATABLE_BOND>
16
> <PUBCHEM_CACTVS_SUBSKEYS>
AAADcfB/vABgAAAAAAAAAAAAAAAAAWAAAAAwYMGAAAAAAADBVAAAHgQQCAAADDzl2AayBsPABgqIAiFSEHLCCABgIBAIiIHODIgOdjqk8T+XeCjk1hGYqAeYyLCOgAABAAAYAAAAAAIAADAAAAAAAAAAAA==
> <PUBCHEM_IUPAC_OPENEYE_NAME>
(4R)-3-[(2S,3S)-2-hydroxy-3-[[(2R)-3-methylsulfonyl-2-[[2-(1-naphthyloxy)acetyl]amino]propanoyl]amino]-4-phenyl-butanoyl]-N-(2-hydroxy-1-phenyl-ethyl)thiazolidine-4-carboxamide
> <PUBCHEM_IUPAC_CAS_NAME>
(4R)-3-[(2S,3S)-2-hydroxy-3-[[(2R)-3-methylsulfonyl-2-[[2-(1-naphthalenyloxy)-1-oxoethyl]amino]-1-oxopropyl]amino]-1-oxo-4-phenylbutyl]-N-(2-hydroxy-1-phenylethyl)-4-thiazolidinecarboxamide
> <PUBCHEM_IUPAC_NAME_MARKUP>
(4<I>R</I>)-3-[(2<I>S</I>,3<I>S</I>)-2-hydroxy-3-[[(2<I>R</I>)-3-methylsulfonyl-2-[(2-naphthalen-1-yloxyacetyl)amino]propanoyl]amino]-4-phenylbutanoyl]-<I>N</I>-(2-hydroxy-1-phenylethyl)-1,3-thiazolidine-4-carboxamide
> <PUBCHEM_IUPAC_NAME>
(4R)-3-[(2S,3S)-2-hydroxy-3-[[(2R)-3-methylsulfonyl-2-[(2-naphthalen-1-yloxyacetyl)amino]propanoyl]amino]-4-phenylbutanoyl]-N-(2-hydroxy-1-phenylethyl)-1,3-thiazolidine-4-carboxamide
> <PUBCHEM_IUPAC_SYSTEMATIC_NAME>
(4R)-3-[(2S,3S)-3-[[(2R)-3-methylsulfonyl-2-(2-naphthalen-1-yloxyethanoylamino)propanoyl]amino]-2-oxidanyl-4-phenyl-butanoyl]-N-(2-oxidanyl-1-phenyl-ethyl)-1,3-thiazolidine-4-carboxamide
> <PUBCHEM_IUPAC_TRADITIONAL_NAME>
(4R)-3-[(2S,3S)-2-hydroxy-3-[[(2R)-3-mesyl-2-[[2-(1-naphthoxy)acetyl]amino]propanoyl]amino]-4-phenyl-butanoyl]-N-(2-hydroxy-1-phenyl-ethyl)thiazolidine-4-carboxamide
> <PUBCHEM_IUPAC_INCHI>
InChI=1S/C38H42N4O9S2/c1-53(49,50)23-31(39-34(44)21-51-33-18-10-16-26-13-8-9-17-28(26)33)36(46)40-29(19-25-11-4-2-5-12-25)35(45)38(48)42-24-52-22-32(42)37(47)41-30(20-43)27-14-6-3-7-15-27/h2-18,29-32,35,43,45H,19-24H2,1H3,(H,39,44)(H,40,46)(H,41,47)/t29-,30?,31-,32-,35-/m0/s1
> <PUBCHEM_IUPAC_INCHIKEY>
SMVMJNNVFRSANC-QLVRCQPBSA-N
> <PUBCHEM_XLOGP3_AA>
2.9
> <PUBCHEM_EXACT_MASS>
762.23932128
> <PUBCHEM_MOLECULAR_FORMULA>
C38H42N4O9S2
> <PUBCHEM_MOLECULAR_WEIGHT>
762.9
> <PUBCHEM_OPENEYE_CAN_SMILES>
CS(=O)(=O)CC(C(=O)NC(CC1=CC=CC=C1)C(C(=O)N2CSCC2C(=O)NC(CO)C3=CC=CC=C3)O)NC(=O)COC4=CC=CC5=CC=CC=C54
> <PUBCHEM_OPENEYE_ISO_SMILES>
CS(=O)(=O)C[C@@H](C(=O)N[C@@H](CC1=CC=CC=C1)[C@@H](C(=O)N2CSC[C@H]2C(=O)NC(CO)C3=CC=CC=C3)O)NC(=O)COC4=CC=CC5=CC=CC=C54
> <PUBCHEM_CACTVS_TPSA>
225
> <PUBCHEM_MONOISOTOPIC_WEIGHT>
762.23932128
> <PUBCHEM_TOTAL_CHARGE>
0
> <PUBCHEM_HEAVY_ATOM_COUNT>
53
> <PUBCHEM_ATOM_DEF_STEREO_COUNT>
4
> <PUBCHEM_ATOM_UDEF_STEREO_COUNT>
1
> <PUBCHEM_BOND_DEF_STEREO_COUNT>
0
> <PUBCHEM_BOND_UDEF_STEREO_COUNT>
0
> <PUBCHEM_ISOTOPIC_ATOM_COUNT>
0
> <PUBCHEM_COMPONENT_COUNT>
1
> <PUBCHEM_CACTVS_TAUTO_COUNT>
-1
> <PUBCHEM_COORDINATE_TYPE>
1
5
255
> <PUBCHEM_BONDANNOTATIONS>
17  13  5
24  15  5
16  23  5
26  29  8
26  30  8
27  32  3
29  34  8
18  3  6
30  35  8
31  37  8
31  38  8
34  39  8
35  39  8
37  41  8
38  42  8
41  43  8
42  43  8
44  45  8
44  47  8
45  46  8
45  48  8
46  49  8
46  51  8
47  50  8
48  52  8
49  50  8
51  53  8
52  53  8
$$$$
