501810
  -OEChem-10302200282D
 92 95  0     1  0  0  0  0  0999 V2000
    5.8301    5.5367    0.0000 S   0  0  0  0  0  0  0  0  0  0  0  0
    8.0622    0.9979    0.0000 S   0  0  0  0  0  0  0  0  0  0  0  0
    8.2981    3.2985    0.0000 O   0  0  0  0  0  0  0  0  0  0  0  0
    4.5981    2.9979    0.0000 O   0  0  0  0  0  0  0  0  0  0  0  0
    7.1962    2.4979    0.0000 O   0  0  0  0  0  0  0  0  0  0  0  0
    5.4641   -0.5021    0.0000 O   0  0  0  0  0  0  0  0  0  0  0  0
    8.9282   -1.5021    0.0000 O   0  0  0  0  0  0  0  0  0  0  0  0
    8.9282   -3.5021    0.0000 O   0  0  0  0  0  0  0  0  0  0  0  0
    6.3301    3.9979    0.0000 N   0  0  0  0  0  0  0  0  0  0  0  0
    8.8334    4.9458    0.0000 N   0  0  0  0  0  0  0  0  0  0  0  0
    6.3301    0.9979    0.0000 N   0  0  0  0  0  0  0  0  0  0  0  0
    7.1962   -1.5021    0.0000 N   0  0  0  0  0  0  0  0  0  0  0  0
    8.9282    1.4979    0.0000 N   0  0  0  0  0  0  0  0  0  0  0  0
   11.5942   -6.0229    0.0000 N   0  0  0  0  0  0  0  0  0  0  0  0
    6.8301    5.5367    0.0000 C   0  0  0  0  0  0  0  0  0  0  0  0
    7.1391    4.5857    0.0000 C   0  0  1  0  0  0  0  0  0  0  0  0
    5.5211    4.5857    0.0000 C   0  0  0  0  0  0  0  0  0  0  0  0
    6.8301    6.5367    0.0000 C   0  0  0  0  0  0  0  0  0  0  0  0
    7.7812    5.8458    0.0000 C   0  0  0  0  0  0  0  0  0  0  0  0
    8.0902    4.2767    0.0000 C   0  0  0  0  0  0  0  0  0  0  0  0
    6.3301    2.9979    0.0000 C   0  0  0  0  0  0  0  0  0  0  0  0
    5.4641    2.4979    0.0000 C   0  0  2  0  0  0  0  0  0  0  0  0
    5.4641    1.4979    0.0000 C   0  0  2  0  0  0  0  0  0  0  0  0
    9.7844    4.6368    0.0000 C   0  0  0  0  0  0  0  0  0  0  0  0
    4.5981    0.9979    0.0000 C   0  0  0  0  0  0  0  0  0  0  0  0
   10.7355    4.3278    0.0000 C   0  0  0  0  0  0  0  0  0  0  0  0
   10.0934    5.5879    0.0000 C   0  0  0  0  0  0  0  0  0  0  0  0
    9.4754    3.6857    0.0000 C   0  0  0  0  0  0  0  0  0  0  0  0
    3.7320    1.4979    0.0000 C   0  0  0  0  0  0  0  0  0  0  0  0
    6.3301   -0.0021    0.0000 C   0  0  0  0  0  0  0  0  0  0  0  0
    7.1962   -0.5021    0.0000 C   0  0  2  0  0  0  0  0  0  0  0  0
    2.8660    0.9979    0.0000 C   0  0  0  0  0  0  0  0  0  0  0  0
    3.7320    2.4979    0.0000 C   0  0  0  0  0  0  0  0  0  0  0  0
    8.0622   -0.0021    0.0000 C   0  0  0  0  0  0  0  0  0  0  0  0
    2.0000    1.4979    0.0000 C   0  0  0  0  0  0  0  0  0  0  0  0
    2.8660    2.9979    0.0000 C   0  0  0  0  0  0  0  0  0  0  0  0
    2.0000    2.4979    0.0000 C   0  0  0  0  0  0  0  0  0  0  0  0
    8.0622   -2.0021    0.0000 C   0  0  0  0  0  0  0  0  0  0  0  0
    8.0622   -3.0021    0.0000 C   0  0  0  0  0  0  0  0  0  0  0  0
    8.9282   -4.5021    0.0000 C   0  0  0  0  0  0  0  0  0  0  0  0
    9.7942   -5.0021    0.0000 C   0  0  0  0  0  0  0  0  0  0  0  0
    8.0622   -5.0021    0.0000 C   0  0  0  0  0  0  0  0  0  0  0  0
    9.7942   -6.0021    0.0000 C   0  0  0  0  0  0  0  0  0  0  0  0
    8.0622   -6.0021    0.0000 C   0  0  0  0  0  0  0  0  0  0  0  0
   10.6882   -4.4674    0.0000 C   0  0  0  0  0  0  0  0  0  0  0  0
    8.9282   -6.5021    0.0000 C   0  0  0  0  0  0  0  0  0  0  0  0
   10.6882   -6.5367    0.0000 C   0  0  0  0  0  0  0  0  0  0  0  0
   11.5942   -4.9813    0.0000 C   0  0  0  0  0  0  0  0  0  0  0  0
    7.2361    3.9733    0.0000 H   0  0  0  0  0  0  0  0  0  0  0  0
    4.9547    4.8379    0.0000 H   0  0  0  0  0  0  0  0  0  0  0  0
    5.2111    4.0488    0.0000 H   0  0  0  0  0  0  0  0  0  0  0  0
    7.4501    6.5367    0.0000 H   0  0  0  0  0  0  0  0  0  0  0  0
    6.8301    7.1568    0.0000 H   0  0  0  0  0  0  0  0  0  0  0  0
    6.2101    6.5367    0.0000 H   0  0  0  0  0  0  0  0  0  0  0  0
    7.9728    5.2561    0.0000 H   0  0  0  0  0  0  0  0  0  0  0  0
    8.3708    6.0374    0.0000 H   0  0  0  0  0  0  0  0  0  0  0  0
    7.5896    6.4354    0.0000 H   0  0  0  0  0  0  0  0  0  0  0  0
    5.4641    3.1179    0.0000 H   0  0  0  0  0  0  0  0  0  0  0  0
    5.4641    0.8779    0.0000 H   0  0  0  0  0  0  0  0  0  0  0  0
    8.7044    5.5523    0.0000 H   0  0  0  0  0  0  0  0  0  0  0  0
    4.1996    0.5230    0.0000 H   0  0  0  0  0  0  0  0  0  0  0  0
    4.9966    0.5230    0.0000 H   0  0  0  0  0  0  0  0  0  0  0  0
   10.5439    3.7381    0.0000 H   0  0  0  0  0  0  0  0  0  0  0  0
   11.3251    4.1362    0.0000 H   0  0  0  0  0  0  0  0  0  0  0  0
   10.9270    4.9174    0.0000 H   0  0  0  0  0  0  0  0  0  0  0  0
   10.6831    5.3963    0.0000 H   0  0  0  0  0  0  0  0  0  0  0  0
   10.2850    6.1775    0.0000 H   0  0  0  0  0  0  0  0  0  0  0  0
    9.5038    5.7794    0.0000 H   0  0  0  0  0  0  0  0  0  0  0  0
    8.8857    3.8773    0.0000 H   0  0  0  0  0  0  0  0  0  0  0  0
    9.2838    3.0961    0.0000 H   0  0  0  0  0  0  0  0  0  0  0  0
   10.0650    3.4941    0.0000 H   0  0  0  0  0  0  0  0  0  0  0  0
    6.8671    1.3079    0.0000 H   0  0  0  0  0  0  0  0  0  0  0  0
    4.5981    3.6179    0.0000 H   0  0  0  0  0  0  0  0  0  0  0  0
    6.6592   -0.8121    0.0000 H   0  0  0  0  0  0  0  0  0  0  0  0
    2.8660    0.3779    0.0000 H   0  0  0  0  0  0  0  0  0  0  0  0
    4.2690    2.8079    0.0000 H   0  0  0  0  0  0  0  0  0  0  0  0
    8.2742   -0.5847    0.0000 H   0  0  0  0  0  0  0  0  0  0  0  0
    8.6728    0.1056    0.0000 H   0  0  0  0  0  0  0  0  0  0  0  0
    6.6592   -1.8121    0.0000 H   0  0  0  0  0  0  0  0  0  0  0  0
    1.4631    1.1879    0.0000 H   0  0  0  0  0  0  0  0  0  0  0  0
    2.8660    3.6179    0.0000 H   0  0  0  0  0  0  0  0  0  0  0  0
    1.4631    2.8079    0.0000 H   0  0  0  0  0  0  0  0  0  0  0  0
    7.4516   -2.8944    0.0000 H   0  0  0  0  0  0  0  0  0  0  0  0
    7.8501   -3.5847    0.0000 H   0  0  0  0  0  0  0  0  0  0  0  0
    8.9282    2.1179    0.0000 H   0  0  0  0  0  0  0  0  0  0  0  0
    9.4651    1.1879    0.0000 H   0  0  0  0  0  0  0  0  0  0  0  0
    7.5252   -4.6921    0.0000 H   0  0  0  0  0  0  0  0  0  0  0  0
    7.5252   -6.3121    0.0000 H   0  0  0  0  0  0  0  0  0  0  0  0
    8.9282   -7.1221    0.0000 H   0  0  0  0  0  0  0  0  0  0  0  0
   10.6810   -3.8475    0.0000 H   0  0  0  0  0  0  0  0  0  0  0  0
   10.6810   -7.1567    0.0000 H   0  0  0  0  0  0  0  0  0  0  0  0
   12.1300   -4.6692    0.0000 H   0  0  0  0  0  0  0  0  0  0  0  0
  1 15  1  0  0  0  0
  1 17  1  0  0  0  0
  2 13  1  0  0  0  0
  2 34  1  0  0  0  0
  3 20  2  0  0  0  0
 22  4  1  6  0  0  0
  4 73  1  0  0  0  0
  5 21  2  0  0  0  0
  6 30  2  0  0  0  0
  7 38  2  0  0  0  0
  8 39  1  0  0  0  0
  8 40  1  0  0  0  0
  9 16  1  0  0  0  0
  9 17  1  0  0  0  0
  9 21  1  0  0  0  0
 10 20  1  0  0  0  0
 10 24  1  0  0  0  0
 10 60  1  0  0  0  0
 23 11  1  1  0  0  0
 11 30  1  0  0  0  0
 11 72  1  0  0  0  0
 31 12  1  6  0  0  0
 12 38  1  0  0  0  0
 12 79  1  0  0  0  0
 13 85  1  0  0  0  0
 13 86  1  0  0  0  0
 14 47  2  0  0  0  0
 14 48  1  0  0  0  0
 15 16  1  0  0  0  0
 15 18  1  0  0  0  0
 15 19  1  0  0  0  0
 16 20  1  1  0  0  0
 16 49  1  0  0  0  0
 17 50  1  0  0  0  0
 17 51  1  0  0  0  0
 18 52  1  0  0  0  0
 18 53  1  0  0  0  0
 18 54  1  0  0  0  0
 19 55  1  0  0  0  0
 19 56  1  0  0  0  0
 19 57  1  0  0  0  0
 21 22  1  0  0  0  0
 22 23  1  0  0  0  0
 22 58  1  0  0  0  0
 23 25  1  0  0  0  0
 23 59  1  0  0  0  0
 24 26  1  0  0  0  0
 24 27  1  0  0  0  0
 24 28  1  0  0  0  0
 25 29  1  0  0  0  0
 25 61  1  0  0  0  0
 25 62  1  0  0  0  0
 26 63  1  0  0  0  0
 26 64  1  0  0  0  0
 26 65  1  0  0  0  0
 27 66  1  0  0  0  0
 27 67  1  0  0  0  0
 27 68  1  0  0  0  0
 28 69  1  0  0  0  0
 28 70  1  0  0  0  0
 28 71  1  0  0  0  0
 29 32  2  0  0  0  0
 29 33  1  0  0  0  0
 30 31  1  0  0  0  0
 31 34  1  0  0  0  0
 31 74  1  0  0  0  0
 32 35  1  0  0  0  0
 32 75  1  0  0  0  0
 33 36  2  0  0  0  0
 33 76  1  0  0  0  0
 34 77  1  0  0  0  0
 34 78  1  0  0  0  0
 35 37  2  0  0  0  0
 35 80  1  0  0  0  0
 36 37  1  0  0  0  0
 36 81  1  0  0  0  0
 37 82  1  0  0  0  0
 38 39  1  0  0  0  0
 39 83  1  0  0  0  0
 39 84  1  0  0  0  0
 40 41  1  0  0  0  0
 40 42  2  0  0  0  0
 41 43  2  0  0  0  0
 41 45  1  0  0  0  0
 42 44  1  0  0  0  0
 42 87  1  0  0  0  0
 43 46  1  0  0  0  0
 43 47  1  0  0  0  0
 44 46  2  0  0  0  0
 44 88  1  0  0  0  0
 45 48  2  0  0  0  0
 45 90  1  0  0  0  0
 46 89  1  0  0  0  0
 47 91  1  0  0  0  0
 48 92  1  0  0  0  0
M  END
> <PUBCHEM_COMPOUND_CID>
501810
> <PUBCHEM_COMPOUND_CANONICALIZED>
1
> <PUBCHEM_CACTVS_COMPLEXITY>
1120
> <PUBCHEM_CACTVS_HBOND_ACCEPTOR>
10
> <PUBCHEM_CACTVS_HBOND_DONOR>
5
> <PUBCHEM_CACTVS_ROTATABLE_BOND>
14
> <PUBCHEM_CACTVS_SUBSKEYS>
AAADcfB/uABgAAAAAAAAAAAAAAAAAWAAAAA8YIAAAAAAAACx9AAAHgQQSAAADLzl2ga+htPIFgioAjF3VAKCiCBxIjAI2KH+bJgOdvrk8b+XeCjk1hHY6Ae4yLCOgAABAAAYAAAAAAIAADAAAAAAAAAAAA==
> <PUBCHEM_IUPAC_OPENEYE_NAME>
(4R)-3-[(2S,3S)-3-[[(2R)-3-aminosulfanyl-2-[[2-(5-isoquinolyloxy)acetyl]amino]propanoyl]amino]-2-hydroxy-4-phenyl-butanoyl]-N-tert-butyl-5,5-dimethyl-thiazolidine-4-carboxamide
> <PUBCHEM_IUPAC_CAS_NAME>
(4R)-3-[(2S,3S)-3-[[(2R)-3-(aminothio)-2-[[2-(5-isoquinolinyloxy)-1-oxoethyl]amino]-1-oxopropyl]amino]-2-hydroxy-1-oxo-4-phenylbutyl]-N-tert-butyl-5,5-dimethyl-4-thiazolidinecarboxamide
> <PUBCHEM_IUPAC_NAME_MARKUP>
(4<I>R</I>)-3-[(2<I>S</I>,3<I>S</I>)-3-[[(2<I>R</I>)-3-aminosulfanyl-2-[(2-isoquinolin-5-yloxyacetyl)amino]propanoyl]amino]-2-hydroxy-4-phenylbutanoyl]-<I>N</I>-<I>tert</I>-butyl-5,5-dimethyl-1,3-thiazolidine-4-carboxamide
> <PUBCHEM_IUPAC_NAME>
(4R)-3-[(2S,3S)-3-[[(2R)-3-aminosulfanyl-2-[(2-isoquinolin-5-yloxyacetyl)amino]propanoyl]amino]-2-hydroxy-4-phenylbutanoyl]-N-tert-butyl-5,5-dimethyl-1,3-thiazolidine-4-carboxamide
> <PUBCHEM_IUPAC_SYSTEMATIC_NAME>
(4R)-3-[(2S,3S)-3-[[(2R)-3-azanylsulfanyl-2-(2-isoquinolin-5-yloxyethanoylamino)propanoyl]amino]-2-oxidanyl-4-phenyl-butanoyl]-N-tert-butyl-5,5-dimethyl-1,3-thiazolidine-4-carboxamide
> <PUBCHEM_IUPAC_TRADITIONAL_NAME>
(4R)-3-[(2S,3S)-3-[[(2R)-3-(aminothio)-2-[[2-(5-isoquinolyloxy)acetyl]amino]propanoyl]amino]-2-hydroxy-4-phenyl-butanoyl]-N-tert-butyl-5,5-dimethyl-thiazolidine-4-carboxamide
> <PUBCHEM_IUPAC_INCHI>
InChI=1S/C34H44N6O6S2/c1-33(2,3)39-31(44)29-34(4,5)47-20-40(29)32(45)28(42)24(16-21-10-7-6-8-11-21)38-30(43)25(19-48-35)37-27(41)18-46-26-13-9-12-22-17-36-15-14-23(22)26/h6-15,17,24-25,28-29,42H,16,18-20,35H2,1-5H3,(H,37,41)(H,38,43)(H,39,44)/t24-,25-,28-,29+/m0/s1
> <PUBCHEM_IUPAC_INCHIKEY>
BVSRQEWDLCSPIN-YFVZOPNBSA-N
> <PUBCHEM_XLOGP3_AA>
2.7
> <PUBCHEM_EXACT_MASS>
696.27637549
> <PUBCHEM_MOLECULAR_FORMULA>
C34H44N6O6S2
> <PUBCHEM_MOLECULAR_WEIGHT>
696.9
> <PUBCHEM_OPENEYE_CAN_SMILES>
CC1(C(N(CS1)C(=O)C(C(CC2=CC=CC=C2)NC(=O)C(CSN)NC(=O)COC3=CC=CC4=C3C=CN=C4)O)C(=O)NC(C)(C)C)C
> <PUBCHEM_OPENEYE_ISO_SMILES>
CC1([C@H](N(CS1)C(=O)[C@H]([C@H](CC2=CC=CC=C2)NC(=O)[C@H](CSN)NC(=O)COC3=CC=CC4=C3C=CN=C4)O)C(=O)NC(C)(C)C)C
> <PUBCHEM_CACTVS_TPSA>
227
> <PUBCHEM_MONOISOTOPIC_WEIGHT>
696.27637549
> <PUBCHEM_TOTAL_CHARGE>
0
> <PUBCHEM_HEAVY_ATOM_COUNT>
48
> <PUBCHEM_ATOM_DEF_STEREO_COUNT>
4
> <PUBCHEM_ATOM_UDEF_STEREO_COUNT>
0
> <PUBCHEM_BOND_DEF_STEREO_COUNT>
0
> <PUBCHEM_BOND_UDEF_STEREO_COUNT>
0
> <PUBCHEM_ISOTOPIC_ATOM_COUNT>
0
> <PUBCHEM_COMPONENT_COUNT>
1
> <PUBCHEM_CACTVS_TAUTO_COUNT>
-1
> <PUBCHEM_COORDINATE_TYPE>
1
5
255
> <PUBCHEM_BONDANNOTATIONS>
23  11  5
31  12  6
14  47  8
14  48  8
16  20  5
29  32  8
29  33  8
32  35  8
33  36  8
35  37  8
36  37  8
22  4  6
40  41  8
40  42  8
41  43  8
41  45  8
42  44  8
43  46  8
43  47  8
44  46  8
45  48  8
$$$$
