501809
  -OEChem-10302200282D
 97100  0     1  0  0  0  0  0999 V2000
    4.1759   -5.2024    0.0000 S   0  0  0  0  0  0  0  0  0  0  0  0
    6.9906   -1.0000    0.0000 S   0  0  0  0  0  0  0  0  0  0  0  0
    4.8803   -1.9460    0.0000 O   0  0  0  0  0  0  0  0  0  0  0  0
    6.9906   -5.0000    0.0000 O   0  0  0  0  0  0  0  0  0  0  0  0
    6.1246   -2.5000    0.0000 O   0  0  0  0  0  0  0  0  0  0  0  0
    9.5887   -2.5000    0.0000 O   0  0  0  0  0  0  0  0  0  0  0  0
    8.7227    1.0000    0.0000 O   0  0  0  0  0  0  0  0  0  0  0  0
   10.4547    2.0000    0.0000 O   0  0  0  0  0  0  0  0  0  0  0  0
    5.2586   -4.0000    0.0000 N   0  0  0  0  0  0  0  0  0  0  0  0
    3.1861   -2.3061    0.0000 N   0  0  0  0  0  0  0  0  0  0  0  0
    7.8566   -2.5000    0.0000 N   0  0  0  0  0  0  0  0  0  0  0  0
    9.5887   -0.5000    0.0000 N   0  0  0  0  0  0  0  0  0  0  0  0
    6.1246   -0.5000    0.0000 N   0  0  0  0  0  0  0  0  0  0  0  0
    3.6759   -4.3364    0.0000 C   0  0  0  0  0  0  0  0  0  0  0  0
    4.3450   -3.5933    0.0000 C   0  0  1  0  0  0  0  0  0  0  0  0
    5.1540   -4.9945    0.0000 C   0  0  0  0  0  0  0  0  0  0  0  0
    2.8099   -4.8364    0.0000 C   0  0  0  0  0  0  0  0  0  0  0  0
    2.9328   -3.6673    0.0000 C   0  0  0  0  0  0  0  0  0  0  0  0
    4.1371   -2.6151    0.0000 C   0  0  0  0  0  0  0  0  0  0  0  0
    6.1246   -3.5000    0.0000 C   0  0  0  0  0  0  0  0  0  0  0  0
    6.9906   -4.0000    0.0000 C   0  0  2  0  0  0  0  0  0  0  0  0
    7.8566   -3.5000    0.0000 C   0  0  2  0  0  0  0  0  0  0  0  0
    2.9782   -1.3280    0.0000 C   0  0  0  0  0  0  0  0  0  0  0  0
    8.7227   -4.0000    0.0000 C   0  0  0  0  0  0  0  0  0  0  0  0
    2.7702   -0.3498    0.0000 C   0  0  0  0  0  0  0  0  0  0  0  0
    2.0000   -1.5359    0.0000 C   0  0  0  0  0  0  0  0  0  0  0  0
    3.9563   -1.1200    0.0000 C   0  0  0  0  0  0  0  0  0  0  0  0
    8.7227   -5.0000    0.0000 C   0  0  0  0  0  0  0  0  0  0  0  0
    8.7227   -2.0000    0.0000 C   0  0  0  0  0  0  0  0  0  0  0  0
    8.7227   -1.0000    0.0000 C   0  0  2  0  0  0  0  0  0  0  0  0
    9.5887   -5.5000    0.0000 C   0  0  0  0  0  0  0  0  0  0  0  0
    7.8566   -5.5000    0.0000 C   0  0  0  0  0  0  0  0  0  0  0  0
    7.8566   -0.5000    0.0000 C   0  0  0  0  0  0  0  0  0  0  0  0
    9.5887   -6.5000    0.0000 C   0  0  0  0  0  0  0  0  0  0  0  0
    7.8566   -6.5000    0.0000 C   0  0  0  0  0  0  0  0  0  0  0  0
    8.7227   -7.0000    0.0000 C   0  0  0  0  0  0  0  0  0  0  0  0
    9.5887    0.5000    0.0000 C   0  0  0  0  0  0  0  0  0  0  0  0
   10.4547    1.0000    0.0000 C   0  0  0  0  0  0  0  0  0  0  0  0
   11.3208    2.5000    0.0000 C   0  0  0  0  0  0  0  0  0  0  0  0
   11.3208    3.5000    0.0000 C   0  0  0  0  0  0  0  0  0  0  0  0
   12.1868    2.0000    0.0000 C   0  0  0  0  0  0  0  0  0  0  0  0
   12.1868    4.0000    0.0000 C   0  0  0  0  0  0  0  0  0  0  0  0
   13.0528    2.5000    0.0000 C   0  0  0  0  0  0  0  0  0  0  0  0
   13.0528    3.5000    0.0000 C   0  0  0  0  0  0  0  0  0  0  0  0
   12.1868    5.0000    0.0000 C   0  0  0  0  0  0  0  0  0  0  0  0
   11.3208    5.5000    0.0000 C   0  0  0  0  0  0  0  0  0  0  0  0
   13.0528    5.5000    0.0000 C   0  0  0  0  0  0  0  0  0  0  0  0
   11.3208    6.5000    0.0000 C   0  0  0  0  0  0  0  0  0  0  0  0
   13.0528    6.5000    0.0000 C   0  0  0  0  0  0  0  0  0  0  0  0
   12.1868    7.0000    0.0000 C   0  0  0  0  0  0  0  0  0  0  0  0
    4.8269   -3.2031    0.0000 H   0  0  0  0  0  0  0  0  0  0  0  0
    5.2188   -5.6111    0.0000 H   0  0  0  0  0  0  0  0  0  0  0  0
    5.7740   -4.9945    0.0000 H   0  0  0  0  0  0  0  0  0  0  0  0
    2.4999   -4.2995    0.0000 H   0  0  0  0  0  0  0  0  0  0  0  0
    2.2729   -5.1464    0.0000 H   0  0  0  0  0  0  0  0  0  0  0  0
    3.1199   -5.3733    0.0000 H   0  0  0  0  0  0  0  0  0  0  0  0
    3.3476   -3.2065    0.0000 H   0  0  0  0  0  0  0  0  0  0  0  0
    2.4720   -3.2524    0.0000 H   0  0  0  0  0  0  0  0  0  0  0  0
    2.5179   -4.1280    0.0000 H   0  0  0  0  0  0  0  0  0  0  0  0
    7.5276   -4.3100    0.0000 H   0  0  0  0  0  0  0  0  0  0  0  0
    8.3936   -3.1900    0.0000 H   0  0  0  0  0  0  0  0  0  0  0  0
    2.7253   -2.7210    0.0000 H   0  0  0  0  0  0  0  0  0  0  0  0
    9.3332   -4.1077    0.0000 H   0  0  0  0  0  0  0  0  0  0  0  0
    8.9347   -3.4174    0.0000 H   0  0  0  0  0  0  0  0  0  0  0  0
    3.3767   -0.2209    0.0000 H   0  0  0  0  0  0  0  0  0  0  0  0
    2.6413    0.2566    0.0000 H   0  0  0  0  0  0  0  0  0  0  0  0
    2.1638   -0.4787    0.0000 H   0  0  0  0  0  0  0  0  0  0  0  0
    1.8711   -0.9294    0.0000 H   0  0  0  0  0  0  0  0  0  0  0  0
    1.3936   -1.6648    0.0000 H   0  0  0  0  0  0  0  0  0  0  0  0
    2.1289   -2.1423    0.0000 H   0  0  0  0  0  0  0  0  0  0  0  0
    4.0852   -1.7265    0.0000 H   0  0  0  0  0  0  0  0  0  0  0  0
    4.5628   -0.9911    0.0000 H   0  0  0  0  0  0  0  0  0  0  0  0
    3.8274   -0.5136    0.0000 H   0  0  0  0  0  0  0  0  0  0  0  0
    7.3197   -2.1900    0.0000 H   0  0  0  0  0  0  0  0  0  0  0  0
    6.4537   -5.3100    0.0000 H   0  0  0  0  0  0  0  0  0  0  0  0
    8.7227   -0.3800    0.0000 H   0  0  0  0  0  0  0  0  0  0  0  0
   10.1256   -5.1900    0.0000 H   0  0  0  0  0  0  0  0  0  0  0  0
    7.3197   -5.1900    0.0000 H   0  0  0  0  0  0  0  0  0  0  0  0
    8.2552   -0.0251    0.0000 H   0  0  0  0  0  0  0  0  0  0  0  0
    7.4581   -0.0251    0.0000 H   0  0  0  0  0  0  0  0  0  0  0  0
   10.1256   -0.8100    0.0000 H   0  0  0  0  0  0  0  0  0  0  0  0
   10.1256   -6.8100    0.0000 H   0  0  0  0  0  0  0  0  0  0  0  0
    7.3197   -6.8100    0.0000 H   0  0  0  0  0  0  0  0  0  0  0  0
    8.7227   -7.6200    0.0000 H   0  0  0  0  0  0  0  0  0  0  0  0
   10.6668    0.4174    0.0000 H   0  0  0  0  0  0  0  0  0  0  0  0
   11.0653    1.1077    0.0000 H   0  0  0  0  0  0  0  0  0  0  0  0
    5.5877   -0.8100    0.0000 H   0  0  0  0  0  0  0  0  0  0  0  0
    6.1246    0.1200    0.0000 H   0  0  0  0  0  0  0  0  0  0  0  0
   10.7838    3.8100    0.0000 H   0  0  0  0  0  0  0  0  0  0  0  0
   12.1868    1.3800    0.0000 H   0  0  0  0  0  0  0  0  0  0  0  0
   13.5897    2.1900    0.0000 H   0  0  0  0  0  0  0  0  0  0  0  0
   13.5897    3.8100    0.0000 H   0  0  0  0  0  0  0  0  0  0  0  0
   10.7838    5.1900    0.0000 H   0  0  0  0  0  0  0  0  0  0  0  0
   13.5897    5.1900    0.0000 H   0  0  0  0  0  0  0  0  0  0  0  0
   10.7838    6.8100    0.0000 H   0  0  0  0  0  0  0  0  0  0  0  0
   13.5897    6.8100    0.0000 H   0  0  0  0  0  0  0  0  0  0  0  0
   12.1868    7.6200    0.0000 H   0  0  0  0  0  0  0  0  0  0  0  0
  1 14  1  0  0  0  0
  1 16  1  0  0  0  0
  2 13  1  0  0  0  0
  2 33  1  0  0  0  0
  3 19  2  0  0  0  0
 21  4  1  6  0  0  0
  4 75  1  0  0  0  0
  5 20  2  0  0  0  0
  6 29  2  0  0  0  0
  7 37  2  0  0  0  0
  8 38  1  0  0  0  0
  8 39  1  0  0  0  0
  9 15  1  0  0  0  0
  9 16  1  0  0  0  0
  9 20  1  0  0  0  0
 10 19  1  0  0  0  0
 10 23  1  0  0  0  0
 10 62  1  0  0  0  0
 22 11  1  1  0  0  0
 11 29  1  0  0  0  0
 11 74  1  0  0  0  0
 30 12  1  6  0  0  0
 12 37  1  0  0  0  0
 12 81  1  0  0  0  0
 13 87  1  0  0  0  0
 13 88  1  0  0  0  0
 14 15  1  0  0  0  0
 14 17  1  0  0  0  0
 14 18  1  0  0  0  0
 15 19  1  1  0  0  0
 15 51  1  0  0  0  0
 16 52  1  0  0  0  0
 16 53  1  0  0  0  0
 17 54  1  0  0  0  0
 17 55  1  0  0  0  0
 17 56  1  0  0  0  0
 18 57  1  0  0  0  0
 18 58  1  0  0  0  0
 18 59  1  0  0  0  0
 20 21  1  0  0  0  0
 21 22  1  0  0  0  0
 21 60  1  0  0  0  0
 22 24  1  0  0  0  0
 22 61  1  0  0  0  0
 23 25  1  0  0  0  0
 23 26  1  0  0  0  0
 23 27  1  0  0  0  0
 24 28  1  0  0  0  0
 24 63  1  0  0  0  0
 24 64  1  0  0  0  0
 25 65  1  0  0  0  0
 25 66  1  0  0  0  0
 25 67  1  0  0  0  0
 26 68  1  0  0  0  0
 26 69  1  0  0  0  0
 26 70  1  0  0  0  0
 27 71  1  0  0  0  0
 27 72  1  0  0  0  0
 27 73  1  0  0  0  0
 28 31  2  0  0  0  0
 28 32  1  0  0  0  0
 29 30  1  0  0  0  0
 30 33  1  0  0  0  0
 30 76  1  0  0  0  0
 31 34  1  0  0  0  0
 31 77  1  0  0  0  0
 32 35  2  0  0  0  0
 32 78  1  0  0  0  0
 33 79  1  0  0  0  0
 33 80  1  0  0  0  0
 34 36  2  0  0  0  0
 34 82  1  0  0  0  0
 35 36  1  0  0  0  0
 35 83  1  0  0  0  0
 36 84  1  0  0  0  0
 37 38  1  0  0  0  0
 38 85  1  0  0  0  0
 38 86  1  0  0  0  0
 39 40  1  0  0  0  0
 39 41  2  0  0  0  0
 40 42  2  0  0  0  0
 40 89  1  0  0  0  0
 41 43  1  0  0  0  0
 41 90  1  0  0  0  0
 42 44  1  0  0  0  0
 42 45  1  0  0  0  0
 43 44  2  0  0  0  0
 43 91  1  0  0  0  0
 44 92  1  0  0  0  0
 45 46  2  0  0  0  0
 45 47  1  0  0  0  0
 46 48  1  0  0  0  0
 46 93  1  0  0  0  0
 47 49  2  0  0  0  0
 47 94  1  0  0  0  0
 48 50  2  0  0  0  0
 48 95  1  0  0  0  0
 49 50  1  0  0  0  0
 49 96  1  0  0  0  0
 50 97  1  0  0  0  0
M  END
> <PUBCHEM_COMPOUND_CID>
501809
> <PUBCHEM_COMPOUND_CANONICALIZED>
1
> <PUBCHEM_CACTVS_COMPLEXITY>
1140
> <PUBCHEM_CACTVS_HBOND_ACCEPTOR>
9
> <PUBCHEM_CACTVS_HBOND_DONOR>
5
> <PUBCHEM_CACTVS_ROTATABLE_BOND>
15
> <PUBCHEM_CACTVS_SUBSKEYS>
AAADcfB/uABgAAAAAAAAAAAAAAAAAWAAAAAwYMAAAAAAAAABUAAAHgQQSAAADLzl2AayBoPABgiIAiFSEAICCABgIBAIiIHOCIgOdjqk8T+XeCCk1hGYqAeYyPCOgAABAAAAAAAAAAIAAAAAAAAAAAAAAA==
> <PUBCHEM_IUPAC_OPENEYE_NAME>
(4R)-3-[(2S,3S)-3-[[(2R)-3-aminosulfanyl-2-[[2-(3-phenylphenoxy)acetyl]amino]propanoyl]amino]-2-hydroxy-4-phenyl-butanoyl]-N-tert-butyl-5,5-dimethyl-thiazolidine-4-carboxamide
> <PUBCHEM_IUPAC_CAS_NAME>
(4R)-3-[(2S,3S)-3-[[(2R)-3-(aminothio)-1-oxo-2-[[1-oxo-2-(3-phenylphenoxy)ethyl]amino]propyl]amino]-2-hydroxy-1-oxo-4-phenylbutyl]-N-tert-butyl-5,5-dimethyl-4-thiazolidinecarboxamide
> <PUBCHEM_IUPAC_NAME_MARKUP>
(4<I>R</I>)-3-[(2<I>S</I>,3<I>S</I>)-3-[[(2<I>R</I>)-3-aminosulfanyl-2-[[2-(3-phenylphenoxy)acetyl]amino]propanoyl]amino]-2-hydroxy-4-phenylbutanoyl]-<I>N</I>-<I>tert</I>-butyl-5,5-dimethyl-1,3-thiazolidine-4-carboxamide
> <PUBCHEM_IUPAC_NAME>
(4R)-3-[(2S,3S)-3-[[(2R)-3-aminosulfanyl-2-[[2-(3-phenylphenoxy)acetyl]amino]propanoyl]amino]-2-hydroxy-4-phenylbutanoyl]-N-tert-butyl-5,5-dimethyl-1,3-thiazolidine-4-carboxamide
> <PUBCHEM_IUPAC_SYSTEMATIC_NAME>
(4R)-3-[(2S,3S)-3-[[(2R)-3-azanylsulfanyl-2-[2-(3-phenylphenoxy)ethanoylamino]propanoyl]amino]-2-oxidanyl-4-phenyl-butanoyl]-N-tert-butyl-5,5-dimethyl-1,3-thiazolidine-4-carboxamide
> <PUBCHEM_IUPAC_TRADITIONAL_NAME>
(4R)-3-[(2S,3S)-3-[[(2R)-3-(aminothio)-2-[[2-(3-phenylphenoxy)acetyl]amino]propanoyl]amino]-2-hydroxy-4-phenyl-butanoyl]-N-tert-butyl-5,5-dimethyl-thiazolidine-4-carboxamide
> <PUBCHEM_IUPAC_INCHI>
InChI=1S/C37H47N5O6S2/c1-36(2,3)41-34(46)32-37(4,5)49-23-42(32)35(47)31(44)28(19-24-13-8-6-9-14-24)40-33(45)29(22-50-38)39-30(43)21-48-27-18-12-17-26(20-27)25-15-10-7-11-16-25/h6-18,20,28-29,31-32,44H,19,21-23,38H2,1-5H3,(H,39,43)(H,40,45)(H,41,46)/t28-,29-,31-,32+/m0/s1
> <PUBCHEM_IUPAC_INCHIKEY>
KXQBQRHOPSGHCJ-QAVJZVLGSA-N
> <PUBCHEM_XLOGP3_AA>
4.1
> <PUBCHEM_EXACT_MASS>
721.29677658
> <PUBCHEM_MOLECULAR_FORMULA>
C37H47N5O6S2
> <PUBCHEM_MOLECULAR_WEIGHT>
721.9
> <PUBCHEM_OPENEYE_CAN_SMILES>
CC1(C(N(CS1)C(=O)C(C(CC2=CC=CC=C2)NC(=O)C(CSN)NC(=O)COC3=CC=CC(=C3)C4=CC=CC=C4)O)C(=O)NC(C)(C)C)C
> <PUBCHEM_OPENEYE_ISO_SMILES>
CC1([C@H](N(CS1)C(=O)[C@H]([C@H](CC2=CC=CC=C2)NC(=O)[C@H](CSN)NC(=O)COC3=CC=CC(=C3)C4=CC=CC=C4)O)C(=O)NC(C)(C)C)C
> <PUBCHEM_CACTVS_TPSA>
214
> <PUBCHEM_MONOISOTOPIC_WEIGHT>
721.29677658
> <PUBCHEM_TOTAL_CHARGE>
0
> <PUBCHEM_HEAVY_ATOM_COUNT>
50
> <PUBCHEM_ATOM_DEF_STEREO_COUNT>
4
> <PUBCHEM_ATOM_UDEF_STEREO_COUNT>
0
> <PUBCHEM_BOND_DEF_STEREO_COUNT>
0
> <PUBCHEM_BOND_UDEF_STEREO_COUNT>
0
> <PUBCHEM_ISOTOPIC_ATOM_COUNT>
0
> <PUBCHEM_COMPONENT_COUNT>
1
> <PUBCHEM_CACTVS_TAUTO_COUNT>
-1
> <PUBCHEM_COORDINATE_TYPE>
1
5
255
> <PUBCHEM_BONDANNOTATIONS>
22  11  5
30  12  6
15  19  5
28  31  8
28  32  8
31  34  8
32  35  8
34  36  8
35  36  8
39  40  8
39  41  8
21  4  6
40  42  8
41  43  8
42  44  8
43  44  8
45  46  8
45  47  8
46  48  8
47  49  8
48  50  8
49  50  8
$$$$
