501826
  -OEChem-10302200282D
 91 95  0     1  0  0  0  0  0999 V2000
    9.6730   -3.2039    0.0000 S   0  0  0  0  0  0  0  0  0  0  0  0
    4.4769   -2.2039    0.0000 O   0  0  0  0  0  0  0  0  0  0  0  0
    6.2089   -0.2039    0.0000 O   0  0  0  0  0  0  0  0  0  0  0  0
    6.0666    1.1508    0.0000 O   0  0  0  0  0  0  0  0  0  0  0  0
    7.9410   -3.2039    0.0000 O   0  0  0  0  0  0  0  0  0  0  0  0
    9.6730   -4.2039    0.0000 O   0  0  0  0  0  0  0  0  0  0  0  0
    8.6730   -3.2039    0.0000 O   0  0  0  0  0  0  0  0  0  0  0  0
   10.5391   -0.7039    0.0000 O   0  0  0  0  0  0  0  0  0  0  0  0
   10.5391    1.2961    0.0000 O   0  0  0  0  0  0  0  0  0  0  0  0
    2.5896    5.0123    0.0000 O   0  0  0  0  0  0  0  0  0  0  0  0
    4.4769   -0.2039    0.0000 N   0  0  0  0  0  0  0  0  0  0  0  0
    7.0750   -1.7039    0.0000 N   0  0  0  0  0  0  0  0  0  0  0  0
    4.9076    2.4379    0.0000 N   0  0  0  0  0  0  0  0  0  0  0  0
    8.8070   -0.7039    0.0000 N   0  0  0  0  0  0  0  0  0  0  0  0
    4.3724    0.7907    0.0000 C   0  0  1  0  0  0  0  0  0  0  0  0
    3.3942    0.9986    0.0000 C   0  0  0  0  0  0  0  0  0  0  0  0
    2.8942    0.1325    0.0000 C   0  0  0  0  0  0  0  0  0  0  0  0
    3.5633   -0.6106    0.0000 C   0  0  0  0  0  0  0  0  0  0  0  0
    5.3429   -0.7039    0.0000 C   0  0  0  0  0  0  0  0  0  0  0  0
    5.3429   -1.7039    0.0000 C   0  0  2  0  0  0  0  0  0  0  0  0
    6.2089   -2.2039    0.0000 C   0  0  2  0  0  0  0  0  0  0  0  0
    5.1155    1.4598    0.0000 C   0  0  0  0  0  0  0  0  0  0  0  0
    6.2089   -3.2039    0.0000 C   0  0  0  0  0  0  0  0  0  0  0  0
    5.3429   -3.7039    0.0000 C   0  0  0  0  0  0  0  0  0  0  0  0
    7.9410   -2.2039    0.0000 C   0  0  0  0  0  0  0  0  0  0  0  0
    8.8070   -1.7039    0.0000 C   0  0  2  0  0  0  0  0  0  0  0  0
    9.6730   -2.2039    0.0000 C   0  0  0  0  0  0  0  0  0  0  0  0
    3.9565    2.7470    0.0000 C   0  0  0  0  0  0  0  0  0  0  0  0
    5.3429   -4.7039    0.0000 C   0  0  0  0  0  0  0  0  0  0  0  0
    4.4769   -3.2039    0.0000 C   0  0  0  0  0  0  0  0  0  0  0  0
    3.7486    3.7251    0.0000 C   0  0  0  0  0  0  0  0  0  0  0  0
    3.2134    2.0778    0.0000 C   0  0  0  0  0  0  0  0  0  0  0  0
    4.4769   -5.2039    0.0000 C   0  0  0  0  0  0  0  0  0  0  0  0
    3.6109   -3.7039    0.0000 C   0  0  0  0  0  0  0  0  0  0  0  0
   10.6730   -3.2039    0.0000 C   0  0  0  0  0  0  0  0  0  0  0  0
    9.6730   -0.2039    0.0000 C   0  0  0  0  0  0  0  0  0  0  0  0
    3.6109   -4.7039    0.0000 C   0  0  0  0  0  0  0  0  0  0  0  0
    2.7976    4.0341    0.0000 C   0  0  0  0  0  0  0  0  0  0  0  0
    2.2623    2.3868    0.0000 C   0  0  0  0  0  0  0  0  0  0  0  0
    2.0544    3.3650    0.0000 C   0  0  0  0  0  0  0  0  0  0  0  0
    9.6730    0.7961    0.0000 C   0  0  0  0  0  0  0  0  0  0  0  0
   10.5391    2.2961    0.0000 C   0  0  0  0  0  0  0  0  0  0  0  0
   11.4051    2.7961    0.0000 C   0  0  0  0  0  0  0  0  0  0  0  0
   11.4051    3.7961    0.0000 C   0  0  0  0  0  0  0  0  0  0  0  0
    9.6730    2.7961    0.0000 C   0  0  0  0  0  0  0  0  0  0  0  0
   12.2990    2.2615    0.0000 C   0  0  0  0  0  0  0  0  0  0  0  0
   10.5391    4.2961    0.0000 C   0  0  0  0  0  0  0  0  0  0  0  0
    9.6730    3.7961    0.0000 C   0  0  0  0  0  0  0  0  0  0  0  0
   12.2990    4.3308    0.0000 C   0  0  0  0  0  0  0  0  0  0  0  0
   13.2051    2.7753    0.0000 C   0  0  0  0  0  0  0  0  0  0  0  0
   13.2051    3.8170    0.0000 C   0  0  0  0  0  0  0  0  0  0  0  0
    4.9512    0.5685    0.0000 H   0  0  0  0  0  0  0  0  0  0  0  0
    3.5858    1.5882    0.0000 H   0  0  0  0  0  0  0  0  0  0  0  0
    2.8278    1.2508    0.0000 H   0  0  0  0  0  0  0  0  0  0  0  0
    2.3926    0.4970    0.0000 H   0  0  0  0  0  0  0  0  0  0  0  0
    2.4794   -0.3282    0.0000 H   0  0  0  0  0  0  0  0  0  0  0  0
    3.0618   -0.9750    0.0000 H   0  0  0  0  0  0  0  0  0  0  0  0
    3.8733   -1.1475    0.0000 H   0  0  0  0  0  0  0  0  0  0  0  0
    5.3429   -2.3239    0.0000 H   0  0  0  0  0  0  0  0  0  0  0  0
    6.2089   -1.5839    0.0000 H   0  0  0  0  0  0  0  0  0  0  0  0
    6.4210   -3.7865    0.0000 H   0  0  0  0  0  0  0  0  0  0  0  0
    6.8195   -3.0962    0.0000 H   0  0  0  0  0  0  0  0  0  0  0  0
    7.0750   -1.0839    0.0000 H   0  0  0  0  0  0  0  0  0  0  0  0
    5.3683    2.8528    0.0000 H   0  0  0  0  0  0  0  0  0  0  0  0
    3.9400   -1.8939    0.0000 H   0  0  0  0  0  0  0  0  0  0  0  0
    8.2701   -1.3939    0.0000 H   0  0  0  0  0  0  0  0  0  0  0  0
   10.2836   -2.3115    0.0000 H   0  0  0  0  0  0  0  0  0  0  0  0
    9.8851   -1.6212    0.0000 H   0  0  0  0  0  0  0  0  0  0  0  0
    5.8798   -5.0139    0.0000 H   0  0  0  0  0  0  0  0  0  0  0  0
    4.4769   -2.5839    0.0000 H   0  0  0  0  0  0  0  0  0  0  0  0
    8.2701   -0.3939    0.0000 H   0  0  0  0  0  0  0  0  0  0  0  0
    4.2094    4.1400    0.0000 H   0  0  0  0  0  0  0  0  0  0  0  0
    3.3423    1.4714    0.0000 H   0  0  0  0  0  0  0  0  0  0  0  0
    4.4769   -5.8239    0.0000 H   0  0  0  0  0  0  0  0  0  0  0  0
    3.0739   -3.3939    0.0000 H   0  0  0  0  0  0  0  0  0  0  0  0
   10.6730   -3.8239    0.0000 H   0  0  0  0  0  0  0  0  0  0  0  0
   11.2930   -3.2039    0.0000 H   0  0  0  0  0  0  0  0  0  0  0  0
   10.6730   -2.5839    0.0000 H   0  0  0  0  0  0  0  0  0  0  0  0
    3.0739   -5.0139    0.0000 H   0  0  0  0  0  0  0  0  0  0  0  0
    1.8016    1.9720    0.0000 H   0  0  0  0  0  0  0  0  0  0  0  0
    9.4610    1.3788    0.0000 H   0  0  0  0  0  0  0  0  0  0  0  0
    9.0625    0.6885    0.0000 H   0  0  0  0  0  0  0  0  0  0  0  0
    1.4648    3.5566    0.0000 H   0  0  0  0  0  0  0  0  0  0  0  0
    2.0000    5.2039    0.0000 H   0  0  0  0  0  0  0  0  0  0  0  0
    9.1361    2.4861    0.0000 H   0  0  0  0  0  0  0  0  0  0  0  0
   12.2919    1.6415    0.0000 H   0  0  0  0  0  0  0  0  0  0  0  0
   10.5391    4.9161    0.0000 H   0  0  0  0  0  0  0  0  0  0  0  0
    9.1361    4.1061    0.0000 H   0  0  0  0  0  0  0  0  0  0  0  0
   12.2919    4.9508    0.0000 H   0  0  0  0  0  0  0  0  0  0  0  0
   13.7408    2.4633    0.0000 H   0  0  0  0  0  0  0  0  0  0  0  0
   13.7408    4.1290    0.0000 H   0  0  0  0  0  0  0  0  0  0  0  0
  1  6  2  0  0  0  0
  1  7  2  0  0  0  0
  1 27  1  0  0  0  0
  1 35  1  0  0  0  0
 20  2  1  6  0  0  0
  2 65  1  0  0  0  0
  3 19  2  0  0  0  0
  4 22  2  0  0  0  0
  5 25  2  0  0  0  0
  8 36  2  0  0  0  0
  9 41  1  0  0  0  0
  9 42  1  0  0  0  0
 10 38  1  0  0  0  0
 10 84  1  0  0  0  0
 11 15  1  0  0  0  0
 11 18  1  0  0  0  0
 11 19  1  0  0  0  0
 21 12  1  1  0  0  0
 12 25  1  0  0  0  0
 12 63  1  0  0  0  0
 13 22  1  0  0  0  0
 13 28  1  0  0  0  0
 13 64  1  0  0  0  0
 26 14  1  1  0  0  0
 14 36  1  0  0  0  0
 14 71  1  0  0  0  0
 15 16  1  0  0  0  0
 15 22  1  1  0  0  0
 15 52  1  0  0  0  0
 16 17  1  0  0  0  0
 16 53  1  0  0  0  0
 16 54  1  0  0  0  0
 17 18  1  0  0  0  0
 17 55  1  0  0  0  0
 17 56  1  0  0  0  0
 18 57  1  0  0  0  0
 18 58  1  0  0  0  0
 19 20  1  0  0  0  0
 20 21  1  0  0  0  0
 20 59  1  0  0  0  0
 21 23  1  0  0  0  0
 21 60  1  0  0  0  0
 23 24  1  0  0  0  0
 23 61  1  0  0  0  0
 23 62  1  0  0  0  0
 24 29  2  0  0  0  0
 24 30  1  0  0  0  0
 25 26  1  0  0  0  0
 26 27  1  0  0  0  0
 26 66  1  0  0  0  0
 27 67  1  0  0  0  0
 27 68  1  0  0  0  0
 28 31  2  0  0  0  0
 28 32  1  0  0  0  0
 29 33  1  0  0  0  0
 29 69  1  0  0  0  0
 30 34  2  0  0  0  0
 30 70  1  0  0  0  0
 31 38  1  0  0  0  0
 31 72  1  0  0  0  0
 32 39  2  0  0  0  0
 32 73  1  0  0  0  0
 33 37  2  0  0  0  0
 33 74  1  0  0  0  0
 34 37  1  0  0  0  0
 34 75  1  0  0  0  0
 35 76  1  0  0  0  0
 35 77  1  0  0  0  0
 35 78  1  0  0  0  0
 36 41  1  0  0  0  0
 37 79  1  0  0  0  0
 38 40  2  0  0  0  0
 39 40  1  0  0  0  0
 39 80  1  0  0  0  0
 40 83  1  0  0  0  0
 41 81  1  0  0  0  0
 41 82  1  0  0  0  0
 42 43  1  0  0  0  0
 42 45  2  0  0  0  0
 43 44  1  0  0  0  0
 43 46  2  0  0  0  0
 44 47  1  0  0  0  0
 44 49  2  0  0  0  0
 45 48  1  0  0  0  0
 45 85  1  0  0  0  0
 46 50  1  0  0  0  0
 46 86  1  0  0  0  0
 47 48  2  0  0  0  0
 47 87  1  0  0  0  0
 48 88  1  0  0  0  0
 49 51  1  0  0  0  0
 49 89  1  0  0  0  0
 50 51  2  0  0  0  0
 50 90  1  0  0  0  0
 51 91  1  0  0  0  0
M  END
> <PUBCHEM_COMPOUND_CID>
501826
> <PUBCHEM_COMPOUND_CANONICALIZED>
1
> <PUBCHEM_CACTVS_COMPLEXITY>
1300
> <PUBCHEM_CACTVS_HBOND_ACCEPTOR>
9
> <PUBCHEM_CACTVS_HBOND_DONOR>
5
> <PUBCHEM_CACTVS_ROTATABLE_BOND>
14
> <PUBCHEM_CACTVS_SUBSKEYS>
AAADcfB/vABAAAAAAAAAAAAAAAAAAWAAAAAwYMGAAAAAAADBVAAAHgQQCAAADDzl2AayxsPABgqIAiVSUHLCCAAhIhAIiIHObIgOdjrm8b+XeCjm1hnY+AeY2bOOgAABAgAYAAAAAAIEADAAAAAAAAAAAA==
> <PUBCHEM_IUPAC_OPENEYE_NAME>
(2S)-1-[(2S,3S)-2-hydroxy-3-[[(2R)-3-methylsulfonyl-2-[[2-(1-naphthyloxy)acetyl]amino]propanoyl]amino]-4-phenyl-butanoyl]-N-(3-hydroxyphenyl)pyrrolidine-2-carboxamide
> <PUBCHEM_IUPAC_CAS_NAME>
(2S)-1-[(2S,3S)-2-hydroxy-3-[[(2R)-3-methylsulfonyl-2-[[2-(1-naphthalenyloxy)-1-oxoethyl]amino]-1-oxopropyl]amino]-1-oxo-4-phenylbutyl]-N-(3-hydroxyphenyl)-2-pyrrolidinecarboxamide
> <PUBCHEM_IUPAC_NAME_MARKUP>
(2<I>S</I>)-1-[(2<I>S</I>,3<I>S</I>)-2-hydroxy-3-[[(2<I>R</I>)-3-methylsulfonyl-2-[(2-naphthalen-1-yloxyacetyl)amino]propanoyl]amino]-4-phenylbutanoyl]-<I>N</I>-(3-hydroxyphenyl)pyrrolidine-2-carboxamide
> <PUBCHEM_IUPAC_NAME>
(2S)-1-[(2S,3S)-2-hydroxy-3-[[(2R)-3-methylsulfonyl-2-[(2-naphthalen-1-yloxyacetyl)amino]propanoyl]amino]-4-phenylbutanoyl]-N-(3-hydroxyphenyl)pyrrolidine-2-carboxamide
> <PUBCHEM_IUPAC_SYSTEMATIC_NAME>
(2S)-N-(3-hydroxyphenyl)-1-[(2S,3S)-3-[[(2R)-3-methylsulfonyl-2-(2-naphthalen-1-yloxyethanoylamino)propanoyl]amino]-2-oxidanyl-4-phenyl-butanoyl]pyrrolidine-2-carboxamide
> <PUBCHEM_IUPAC_TRADITIONAL_NAME>
(2S)-1-[(2S,3S)-2-hydroxy-3-[[(2R)-3-mesyl-2-[[2-(1-naphthoxy)acetyl]amino]propanoyl]amino]-4-phenyl-butanoyl]-N-(3-hydroxyphenyl)pyrrolidine-2-carboxamide
> <PUBCHEM_IUPAC_INCHI>
InChI=1S/C37H40N4O9S/c1-51(48,49)23-30(39-33(43)22-50-32-18-7-13-25-12-5-6-16-28(25)32)35(45)40-29(20-24-10-3-2-4-11-24)34(44)37(47)41-19-9-17-31(41)36(46)38-26-14-8-15-27(42)21-26/h2-8,10-16,18,21,29-31,34,42,44H,9,17,19-20,22-23H2,1H3,(H,38,46)(H,39,43)(H,40,45)/t29-,30-,31-,34-/m0/s1
> <PUBCHEM_IUPAC_INCHIKEY>
ZAJGYXDYISLXRS-MEROQGEASA-N
> <PUBCHEM_XLOGP3_AA>
3.2
> <PUBCHEM_EXACT_MASS>
716.25160004
> <PUBCHEM_MOLECULAR_FORMULA>
C37H40N4O9S
> <PUBCHEM_MOLECULAR_WEIGHT>
716.8
> <PUBCHEM_OPENEYE_CAN_SMILES>
CS(=O)(=O)CC(C(=O)NC(CC1=CC=CC=C1)C(C(=O)N2CCCC2C(=O)NC3=CC(=CC=C3)O)O)NC(=O)COC4=CC=CC5=CC=CC=C54
> <PUBCHEM_OPENEYE_ISO_SMILES>
CS(=O)(=O)C[C@@H](C(=O)N[C@@H](CC1=CC=CC=C1)[C@@H](C(=O)N2CCC[C@H]2C(=O)NC3=CC(=CC=C3)O)O)NC(=O)COC4=CC=CC5=CC=CC=C54
> <PUBCHEM_CACTVS_TPSA>
200
> <PUBCHEM_MONOISOTOPIC_WEIGHT>
716.25160004
> <PUBCHEM_TOTAL_CHARGE>
0
> <PUBCHEM_HEAVY_ATOM_COUNT>
51
> <PUBCHEM_ATOM_DEF_STEREO_COUNT>
4
> <PUBCHEM_ATOM_UDEF_STEREO_COUNT>
0
> <PUBCHEM_BOND_DEF_STEREO_COUNT>
0
> <PUBCHEM_BOND_UDEF_STEREO_COUNT>
0
> <PUBCHEM_ISOTOPIC_ATOM_COUNT>
0
> <PUBCHEM_COMPONENT_COUNT>
1
> <PUBCHEM_CACTVS_TAUTO_COUNT>
-1
> <PUBCHEM_COORDINATE_TYPE>
1
5
255
> <PUBCHEM_BONDANNOTATIONS>
21  12  5
26  14  5
15  22  5
20  2  6
24  29  8
24  30  8
28  31  8
28  32  8
29  33  8
30  34  8
31  38  8
32  39  8
33  37  8
34  37  8
38  40  8
39  40  8
42  43  8
42  45  8
43  44  8
43  46  8
44  47  8
44  49  8
45  48  8
46  50  8
47  48  8
49  51  8
50  51  8
$$$$
