501831
  -OEChem-10302200282D
100103  0     1  0  0  0  0  0999 V2000
   11.9434   -2.7673    0.0000 S   0  0  0  0  0  0  0  0  0  0  0  0
    4.1701    0.4645    0.0000 O   0  0  0  0  0  0  0  0  0  0  0  0
    6.7473   -1.7673    0.0000 O   0  0  0  0  0  0  0  0  0  0  0  0
    8.4793    0.2327    0.0000 O   0  0  0  0  0  0  0  0  0  0  0  0
    8.3370    1.5873    0.0000 O   0  0  0  0  0  0  0  0  0  0  0  0
   10.2114   -2.7673    0.0000 O   0  0  0  0  0  0  0  0  0  0  0  0
   12.9434   -2.7673    0.0000 O   0  0  0  0  0  0  0  0  0  0  0  0
   10.9434   -2.7673    0.0000 O   0  0  0  0  0  0  0  0  0  0  0  0
   12.8095   -0.2673    0.0000 O   0  0  0  0  0  0  0  0  0  0  0  0
   12.8095    1.7327    0.0000 O   0  0  0  0  0  0  0  0  0  0  0  0
    6.7473    0.2327    0.0000 N   0  0  0  0  0  0  0  0  0  0  0  0
    7.1780    2.8745    0.0000 N   0  0  0  0  0  0  0  0  0  0  0  0
    9.3454   -1.2673    0.0000 N   0  0  0  0  0  0  0  0  0  0  0  0
   11.0774   -0.2673    0.0000 N   0  0  0  0  0  0  0  0  0  0  0  0
    6.6428    1.2272    0.0000 C   0  0  1  0  0  0  0  0  0  0  0  0
    5.6646    1.4351    0.0000 C   0  0  0  0  0  0  0  0  0  0  0  0
    5.1646    0.5691    0.0000 C   0  0  3  0  0  0  0  0  0  0  0  0
    5.8338   -0.1741    0.0000 C   0  0  0  0  0  0  0  0  0  0  0  0
    7.6133   -0.2673    0.0000 C   0  0  0  0  0  0  0  0  0  0  0  0
    7.3859    1.8963    0.0000 C   0  0  0  0  0  0  0  0  0  0  0  0
    7.6133   -1.2673    0.0000 C   0  0  2  0  0  0  0  0  0  0  0  0
    8.4793   -1.7673    0.0000 C   0  0  2  0  0  0  0  0  0  0  0  0
    6.2269    3.1835    0.0000 C   0  0  0  0  0  0  0  0  0  0  0  0
    8.4793   -2.7673    0.0000 C   0  0  0  0  0  0  0  0  0  0  0  0
    3.5823    1.2736    0.0000 C   0  0  0  0  0  0  0  0  0  0  0  0
    5.2759    3.4925    0.0000 C   0  0  0  0  0  0  0  0  0  0  0  0
    6.5360    4.1345    0.0000 C   0  0  0  0  0  0  0  0  0  0  0  0
    5.9179    2.2324    0.0000 C   0  0  0  0  0  0  0  0  0  0  0  0
    7.6133   -3.2673    0.0000 C   0  0  0  0  0  0  0  0  0  0  0  0
   10.2114   -1.7673    0.0000 C   0  0  0  0  0  0  0  0  0  0  0  0
   11.0774   -1.2673    0.0000 C   0  0  2  0  0  0  0  0  0  0  0  0
    2.5878    1.1690    0.0000 C   0  0  0  0  0  0  0  0  0  0  0  0
   11.9434   -1.7673    0.0000 C   0  0  0  0  0  0  0  0  0  0  0  0
    6.7473   -2.7673    0.0000 C   0  0  0  0  0  0  0  0  0  0  0  0
    7.6133   -4.2673    0.0000 C   0  0  0  0  0  0  0  0  0  0  0  0
    2.0000    1.9780    0.0000 C   0  0  0  0  0  0  0  0  0  0  0  0
    5.8813   -3.2673    0.0000 C   0  0  0  0  0  0  0  0  0  0  0  0
    6.7473   -4.7673    0.0000 C   0  0  0  0  0  0  0  0  0  0  0  0
    5.8813   -4.2673    0.0000 C   0  0  0  0  0  0  0  0  0  0  0  0
   11.9434   -3.7673    0.0000 C   0  0  0  0  0  0  0  0  0  0  0  0
   11.9434    0.2327    0.0000 C   0  0  0  0  0  0  0  0  0  0  0  0
   11.9434    1.2327    0.0000 C   0  0  0  0  0  0  0  0  0  0  0  0
   12.8095    2.7327    0.0000 C   0  0  0  0  0  0  0  0  0  0  0  0
   13.6755    3.2327    0.0000 C   0  0  0  0  0  0  0  0  0  0  0  0
   11.9434    3.2327    0.0000 C   0  0  0  0  0  0  0  0  0  0  0  0
   13.6755    4.2327    0.0000 C   0  0  0  0  0  0  0  0  0  0  0  0
   14.5694    2.6980    0.0000 C   0  0  0  0  0  0  0  0  0  0  0  0
   11.9434    4.2327    0.0000 C   0  0  0  0  0  0  0  0  0  0  0  0
   12.8095    4.7327    0.0000 C   0  0  0  0  0  0  0  0  0  0  0  0
   14.5694    4.7673    0.0000 C   0  0  0  0  0  0  0  0  0  0  0  0
   15.4755    3.2118    0.0000 C   0  0  0  0  0  0  0  0  0  0  0  0
   15.4755    4.2535    0.0000 C   0  0  0  0  0  0  0  0  0  0  0  0
    7.2216    1.0050    0.0000 H   0  0  0  0  0  0  0  0  0  0  0  0
    5.8562    2.0248    0.0000 H   0  0  0  0  0  0  0  0  0  0  0  0
    5.0982    1.6873    0.0000 H   0  0  0  0  0  0  0  0  0  0  0  0
    4.9424   -0.0097    0.0000 H   0  0  0  0  0  0  0  0  0  0  0  0
    5.3322   -0.5385    0.0000 H   0  0  0  0  0  0  0  0  0  0  0  0
    6.1437   -0.7110    0.0000 H   0  0  0  0  0  0  0  0  0  0  0  0
    7.6133   -1.8873    0.0000 H   0  0  0  0  0  0  0  0  0  0  0  0
    9.0163   -2.0773    0.0000 H   0  0  0  0  0  0  0  0  0  0  0  0
    7.6387    3.2893    0.0000 H   0  0  0  0  0  0  0  0  0  0  0  0
    8.6914   -3.3499    0.0000 H   0  0  0  0  0  0  0  0  0  0  0  0
    9.0899   -2.6597    0.0000 H   0  0  0  0  0  0  0  0  0  0  0  0
    4.1396    1.5454    0.0000 H   0  0  0  0  0  0  0  0  0  0  0  0
    3.4114    1.8696    0.0000 H   0  0  0  0  0  0  0  0  0  0  0  0
    9.3454   -0.6473    0.0000 H   0  0  0  0  0  0  0  0  0  0  0  0
    5.4675    4.0822    0.0000 H   0  0  0  0  0  0  0  0  0  0  0  0
    4.6862    3.6841    0.0000 H   0  0  0  0  0  0  0  0  0  0  0  0
    5.0843    2.9028    0.0000 H   0  0  0  0  0  0  0  0  0  0  0  0
    7.1256    3.9430    0.0000 H   0  0  0  0  0  0  0  0  0  0  0  0
    6.7276    4.7242    0.0000 H   0  0  0  0  0  0  0  0  0  0  0  0
    5.9463    4.3261    0.0000 H   0  0  0  0  0  0  0  0  0  0  0  0
    5.3283    2.4240    0.0000 H   0  0  0  0  0  0  0  0  0  0  0  0
    5.7263    1.6428    0.0000 H   0  0  0  0  0  0  0  0  0  0  0  0
    6.5076    2.0408    0.0000 H   0  0  0  0  0  0  0  0  0  0  0  0
    6.2104   -1.4573    0.0000 H   0  0  0  0  0  0  0  0  0  0  0  0
   11.6144   -0.9573    0.0000 H   0  0  0  0  0  0  0  0  0  0  0  0
    2.3356    0.6026    0.0000 H   0  0  0  0  0  0  0  0  0  0  0  0
   12.5540   -1.8750    0.0000 H   0  0  0  0  0  0  0  0  0  0  0  0
   12.1555   -1.1847    0.0000 H   0  0  0  0  0  0  0  0  0  0  0  0
    6.7473   -2.1473    0.0000 H   0  0  0  0  0  0  0  0  0  0  0  0
    8.1502   -4.5773    0.0000 H   0  0  0  0  0  0  0  0  0  0  0  0
   10.5405    0.0427    0.0000 H   0  0  0  0  0  0  0  0  0  0  0  0
    2.2522    2.5444    0.0000 H   0  0  0  0  0  0  0  0  0  0  0  0
    1.3834    1.9132    0.0000 H   0  0  0  0  0  0  0  0  0  0  0  0
    5.3443   -2.9573    0.0000 H   0  0  0  0  0  0  0  0  0  0  0  0
    6.7473   -5.3873    0.0000 H   0  0  0  0  0  0  0  0  0  0  0  0
    5.3443   -4.5773    0.0000 H   0  0  0  0  0  0  0  0  0  0  0  0
   11.3234   -3.7673    0.0000 H   0  0  0  0  0  0  0  0  0  0  0  0
   11.9434   -4.3873    0.0000 H   0  0  0  0  0  0  0  0  0  0  0  0
   12.5634   -3.7673    0.0000 H   0  0  0  0  0  0  0  0  0  0  0  0
   11.7314    1.8153    0.0000 H   0  0  0  0  0  0  0  0  0  0  0  0
   11.3329    1.1250    0.0000 H   0  0  0  0  0  0  0  0  0  0  0  0
   11.4065    2.9227    0.0000 H   0  0  0  0  0  0  0  0  0  0  0  0
   14.5623    2.0780    0.0000 H   0  0  0  0  0  0  0  0  0  0  0  0
   11.4065    4.5427    0.0000 H   0  0  0  0  0  0  0  0  0  0  0  0
   12.8095    5.3527    0.0000 H   0  0  0  0  0  0  0  0  0  0  0  0
   14.5623    5.3873    0.0000 H   0  0  0  0  0  0  0  0  0  0  0  0
   16.0112    2.8998    0.0000 H   0  0  0  0  0  0  0  0  0  0  0  0
   16.0112    4.5656    0.0000 H   0  0  0  0  0  0  0  0  0  0  0  0
  1  7  2  0  0  0  0
  1  8  2  0  0  0  0
  1 33  1  0  0  0  0
  1 40  1  0  0  0  0
  2 17  1  0  0  0  0
  2 25  1  0  0  0  0
 21  3  1  6  0  0  0
  3 76  1  0  0  0  0
  4 19  2  0  0  0  0
  5 20  2  0  0  0  0
  6 30  2  0  0  0  0
  9 41  2  0  0  0  0
 10 42  1  0  0  0  0
 10 43  1  0  0  0  0
 11 15  1  0  0  0  0
 11 18  1  0  0  0  0
 11 19  1  0  0  0  0
 12 20  1  0  0  0  0
 12 23  1  0  0  0  0
 12 61  1  0  0  0  0
 22 13  1  1  0  0  0
 13 30  1  0  0  0  0
 13 66  1  0  0  0  0
 31 14  1  1  0  0  0
 14 41  1  0  0  0  0
 14 83  1  0  0  0  0
 15 16  1  0  0  0  0
 15 20  1  1  0  0  0
 15 53  1  0  0  0  0
 16 17  1  0  0  0  0
 16 54  1  0  0  0  0
 16 55  1  0  0  0  0
 17 18  1  0  0  0  0
 17 56  1  0  0  0  0
 18 57  1  0  0  0  0
 18 58  1  0  0  0  0
 19 21  1  0  0  0  0
 21 22  1  0  0  0  0
 21 59  1  0  0  0  0
 22 24  1  0  0  0  0
 22 60  1  0  0  0  0
 23 26  1  0  0  0  0
 23 27  1  0  0  0  0
 23 28  1  0  0  0  0
 24 29  1  0  0  0  0
 24 62  1  0  0  0  0
 24 63  1  0  0  0  0
 25 32  1  0  0  0  0
 25 64  1  0  0  0  0
 25 65  1  0  0  0  0
 26 67  1  0  0  0  0
 26 68  1  0  0  0  0
 26 69  1  0  0  0  0
 27 70  1  0  0  0  0
 27 71  1  0  0  0  0
 27 72  1  0  0  0  0
 28 73  1  0  0  0  0
 28 74  1  0  0  0  0
 28 75  1  0  0  0  0
 29 34  2  0  0  0  0
 29 35  1  0  0  0  0
 30 31  1  0  0  0  0
 31 33  1  0  0  0  0
 31 77  1  0  0  0  0
 32 36  2  0  0  0  0
 32 78  1  0  0  0  0
 33 79  1  0  0  0  0
 33 80  1  0  0  0  0
 34 37  1  0  0  0  0
 34 81  1  0  0  0  0
 35 38  2  0  0  0  0
 35 82  1  0  0  0  0
 36 84  1  0  0  0  0
 36 85  1  0  0  0  0
 37 39  2  0  0  0  0
 37 86  1  0  0  0  0
 38 39  1  0  0  0  0
 38 87  1  0  0  0  0
 39 88  1  0  0  0  0
 40 89  1  0  0  0  0
 40 90  1  0  0  0  0
 40 91  1  0  0  0  0
 41 42  1  0  0  0  0
 42 92  1  0  0  0  0
 42 93  1  0  0  0  0
 43 44  1  0  0  0  0
 43 45  2  0  0  0  0
 44 46  1  0  0  0  0
 44 47  2  0  0  0  0
 45 48  1  0  0  0  0
 45 94  1  0  0  0  0
 46 49  1  0  0  0  0
 46 50  2  0  0  0  0
 47 51  1  0  0  0  0
 47 95  1  0  0  0  0
 48 49  2  0  0  0  0
 48 96  1  0  0  0  0
 49 97  1  0  0  0  0
 50 52  1  0  0  0  0
 50 98  1  0  0  0  0
 51 52  2  0  0  0  0
 51 99  1  0  0  0  0
 52100  1  0  0  0  0
M  END
> <PUBCHEM_COMPOUND_CID>
501831
> <PUBCHEM_COMPOUND_CANONICALIZED>
1
> <PUBCHEM_CACTVS_COMPLEXITY>
1340
> <PUBCHEM_CACTVS_HBOND_ACCEPTOR>
9
> <PUBCHEM_CACTVS_HBOND_DONOR>
4
> <PUBCHEM_CACTVS_ROTATABLE_BOND>
17
> <PUBCHEM_CACTVS_SUBSKEYS>
AAADcfB/vABAAAAAAAAAAAAAAAAAAWAAAAAwYMAAAAAAAADBVAAAHgQQCAAADLzl2AayBsPABgqIAiFSEHJCCAAgIBAIiIHOCIgOdjqk8T+XeCCm1hGYqAe6ybCOgAABAAAYAAAAAAIAADAAAAAAAAAAAA==
> <PUBCHEM_IUPAC_OPENEYE_NAME>
(2S)-4-allyloxy-N-tert-butyl-1-[(2S,3S)-2-hydroxy-3-[[(2R)-3-methylsulfonyl-2-[[2-(1-naphthyloxy)acetyl]amino]propanoyl]amino]-4-phenyl-butanoyl]pyrrolidine-2-carboxamide
> <PUBCHEM_IUPAC_CAS_NAME>
(2S)-N-tert-butyl-1-[(2S,3S)-2-hydroxy-3-[[(2R)-3-methylsulfonyl-2-[[2-(1-naphthalenyloxy)-1-oxoethyl]amino]-1-oxopropyl]amino]-1-oxo-4-phenylbutyl]-4-prop-2-enoxy-2-pyrrolidinecarboxamide
> <PUBCHEM_IUPAC_NAME_MARKUP>
(2<I>S</I>)-<I>N</I>-<I>tert</I>-butyl-1-[(2<I>S</I>,3<I>S</I>)-2-hydroxy-3-[[(2<I>R</I>)-3-methylsulfonyl-2-[(2-naphthalen-1-yloxyacetyl)amino]propanoyl]amino]-4-phenylbutanoyl]-4-prop-2-enoxypyrrolidine-2-carboxamide
> <PUBCHEM_IUPAC_NAME>
(2S)-N-tert-butyl-1-[(2S,3S)-2-hydroxy-3-[[(2R)-3-methylsulfonyl-2-[(2-naphthalen-1-yloxyacetyl)amino]propanoyl]amino]-4-phenylbutanoyl]-4-prop-2-enoxypyrrolidine-2-carboxamide
> <PUBCHEM_IUPAC_SYSTEMATIC_NAME>
(2S)-N-tert-butyl-1-[(2S,3S)-3-[[(2R)-3-methylsulfonyl-2-(2-naphthalen-1-yloxyethanoylamino)propanoyl]amino]-2-oxidanyl-4-phenyl-butanoyl]-4-prop-2-enoxy-pyrrolidine-2-carboxamide
> <PUBCHEM_IUPAC_TRADITIONAL_NAME>
(2S)-4-allyloxy-N-tert-butyl-1-[(2S,3S)-2-hydroxy-3-[[(2R)-3-mesyl-2-[[2-(1-naphthoxy)acetyl]amino]propanoyl]amino]-4-phenyl-butanoyl]pyrrolidine-2-carboxamide
> <PUBCHEM_IUPAC_INCHI>
InChI=1S/C38H48N4O9S/c1-6-19-50-27-21-31(36(46)41-38(2,3)4)42(22-27)37(47)34(44)29(20-25-13-8-7-9-14-25)40-35(45)30(24-52(5,48)49)39-33(43)23-51-32-18-12-16-26-15-10-11-17-28(26)32/h6-18,27,29-31,34,44H,1,19-24H2,2-5H3,(H,39,43)(H,40,45)(H,41,46)/t27?,29-,30-,31-,34-/m0/s1
> <PUBCHEM_IUPAC_INCHIKEY>
GWGDXXXBHFJTOB-LPOBKJPOSA-N
> <PUBCHEM_XLOGP3_AA>
3.2
> <PUBCHEM_EXACT_MASS>
736.31420029
> <PUBCHEM_MOLECULAR_FORMULA>
C38H48N4O9S
> <PUBCHEM_MOLECULAR_WEIGHT>
736.9
> <PUBCHEM_OPENEYE_CAN_SMILES>
CC(C)(C)NC(=O)C1CC(CN1C(=O)C(C(CC2=CC=CC=C2)NC(=O)C(CS(=O)(=O)C)NC(=O)COC3=CC=CC4=CC=CC=C43)O)OCC=C
> <PUBCHEM_OPENEYE_ISO_SMILES>
CC(C)(C)NC(=O)[C@@H]1CC(CN1C(=O)[C@H]([C@H](CC2=CC=CC=C2)NC(=O)[C@H](CS(=O)(=O)C)NC(=O)COC3=CC=CC4=CC=CC=C43)O)OCC=C
> <PUBCHEM_CACTVS_TPSA>
189
> <PUBCHEM_MONOISOTOPIC_WEIGHT>
736.31420029
> <PUBCHEM_TOTAL_CHARGE>
0
> <PUBCHEM_HEAVY_ATOM_COUNT>
52
> <PUBCHEM_ATOM_DEF_STEREO_COUNT>
4
> <PUBCHEM_ATOM_UDEF_STEREO_COUNT>
1
> <PUBCHEM_BOND_DEF_STEREO_COUNT>
0
> <PUBCHEM_BOND_UDEF_STEREO_COUNT>
0
> <PUBCHEM_ISOTOPIC_ATOM_COUNT>
0
> <PUBCHEM_COMPONENT_COUNT>
1
> <PUBCHEM_CACTVS_TAUTO_COUNT>
-1
> <PUBCHEM_COORDINATE_TYPE>
1
5
255
> <PUBCHEM_BONDANNOTATIONS>
22  13  5
31  14  5
15  20  5
17  2  3
29  34  8
29  35  8
21  3  6
34  37  8
35  38  8
37  39  8
38  39  8
43  44  8
43  45  8
44  46  8
44  47  8
45  48  8
46  49  8
46  50  8
47  51  8
48  49  8
50  52  8
51  52  8
$$$$
