501822
  -OEChem-10302200282D
105109  0     1  0  0  0  0  0999 V2000
    9.8462   -4.4330    0.0000 S   0  0  0  0  0  0  0  0  0  0  0  0
    9.8462    2.5670    0.0000 O   0  0  0  0  0  0  0  0  0  0  0  0
    9.8462    1.5670    0.0000 O   0  0  0  0  0  0  0  0  0  0  0  0
    8.1142   -0.4330    0.0000 O   0  0  0  0  0  0  0  0  0  0  0  0
    8.1142   -1.4330    0.0000 O   0  0  0  0  0  0  0  0  0  0  0  0
   10.8462   -4.4330    0.0000 O   0  0  0  0  0  0  0  0  0  0  0  0
    8.8462   -4.4330    0.0000 O   0  0  0  0  0  0  0  0  0  0  0  0
    7.2482   -1.9330    0.0000 O   0  0  0  0  0  0  0  0  0  0  0  0
    5.5161   -2.9330    0.0000 O   0  0  0  0  0  0  0  0  0  0  0  0
    8.1142    1.5670    0.0000 N   0  0  0  0  0  0  0  0  0  0  0  0
    8.9802    4.0670    0.0000 N   0  0  0  0  0  0  0  0  0  0  0  0
    9.8462   -1.4330    0.0000 N   0  0  0  0  0  0  0  0  0  0  0  0
    8.1142   -3.4330    0.0000 N   0  0  0  0  0  0  0  0  0  0  0  0
    6.3821    2.5670    0.0000 C   0  0  3  0  0  0  0  0  0  0  0  0
    6.3821    1.5670    0.0000 C   0  0  3  0  0  0  0  0  0  0  0  0
    7.2482    3.0670    0.0000 C   0  0  0  0  0  0  0  0  0  0  0  0
    5.4882    3.1016    0.0000 C   0  0  0  0  0  0  0  0  0  0  0  0
    5.4882    1.0323    0.0000 C   0  0  0  0  0  0  0  0  0  0  0  0
    7.2482    1.0670    0.0000 C   0  0  0  0  0  0  0  0  0  0  0  0
    8.1142    2.5670    0.0000 C   0  0  1  0  0  0  0  0  0  0  0  0
    4.5821    2.5878    0.0000 C   0  0  0  0  0  0  0  0  0  0  0  0
    4.5821    1.5462    0.0000 C   0  0  0  0  0  0  0  0  0  0  0  0
    8.9802    3.0670    0.0000 C   0  0  0  0  0  0  0  0  0  0  0  0
    8.9802    1.0670    0.0000 C   0  0  0  0  0  0  0  0  0  0  0  0
    8.9802    0.0670    0.0000 C   0  0  2  0  0  0  0  0  0  0  0  0
    9.8462   -0.4330    0.0000 C   0  0  2  0  0  0  0  0  0  0  0  0
    9.8462    4.5670    0.0000 C   0  0  0  0  0  0  0  0  0  0  0  0
   10.7123    0.0670    0.0000 C   0  0  0  0  0  0  0  0  0  0  0  0
   10.7123    5.0670    0.0000 C   0  0  0  0  0  0  0  0  0  0  0  0
    9.3462    5.4330    0.0000 C   0  0  0  0  0  0  0  0  0  0  0  0
   10.3462    3.7010    0.0000 C   0  0  0  0  0  0  0  0  0  0  0  0
   11.5783   -0.4330    0.0000 C   0  0  0  0  0  0  0  0  0  0  0  0
    8.9802   -1.9330    0.0000 C   0  0  0  0  0  0  0  0  0  0  0  0
    8.9802   -2.9330    0.0000 C   0  0  2  0  0  0  0  0  0  0  0  0
   12.4443    0.0670    0.0000 C   0  0  0  0  0  0  0  0  0  0  0  0
   11.5783   -1.4330    0.0000 C   0  0  0  0  0  0  0  0  0  0  0  0
    9.8462   -3.4330    0.0000 C   0  0  0  0  0  0  0  0  0  0  0  0
   13.3103   -0.4330    0.0000 C   0  0  0  0  0  0  0  0  0  0  0  0
   12.4443   -1.9330    0.0000 C   0  0  0  0  0  0  0  0  0  0  0  0
   13.3103   -1.4330    0.0000 C   0  0  0  0  0  0  0  0  0  0  0  0
    7.2482   -2.9330    0.0000 C   0  0  0  0  0  0  0  0  0  0  0  0
    9.8462   -5.4330    0.0000 C   0  0  0  0  0  0  0  0  0  0  0  0
    6.3821   -3.4330    0.0000 C   0  0  0  0  0  0  0  0  0  0  0  0
    4.6501   -3.4330    0.0000 C   0  0  0  0  0  0  0  0  0  0  0  0
    3.7841   -2.9330    0.0000 C   0  0  0  0  0  0  0  0  0  0  0  0
    4.6501   -4.4330    0.0000 C   0  0  0  0  0  0  0  0  0  0  0  0
    2.9180   -3.4330    0.0000 C   0  0  0  0  0  0  0  0  0  0  0  0
    3.8001   -1.8915    0.0000 C   0  0  0  0  0  0  0  0  0  0  0  0
    3.7841   -4.9330    0.0000 C   0  0  0  0  0  0  0  0  0  0  0  0
    2.9180   -4.4330    0.0000 C   0  0  0  0  0  0  0  0  0  0  0  0
    2.0080   -2.9262    0.0000 C   0  0  0  0  0  0  0  0  0  0  0  0
    2.9021   -1.3638    0.0000 C   0  0  0  0  0  0  0  0  0  0  0  0
    2.0000   -1.8846    0.0000 C   0  0  0  0  0  0  0  0  0  0  0  0
    6.3869    3.1870    0.0000 H   0  0  0  0  0  0  0  0  0  0  0  0
    6.3869    0.9470    0.0000 H   0  0  0  0  0  0  0  0  0  0  0  0
    7.6467    3.5419    0.0000 H   0  0  0  0  0  0  0  0  0  0  0  0
    6.8496    3.5419    0.0000 H   0  0  0  0  0  0  0  0  0  0  0  0
    5.8928    3.5714    0.0000 H   0  0  0  0  0  0  0  0  0  0  0  0
    5.0946    3.5807    0.0000 H   0  0  0  0  0  0  0  0  0  0  0  0
    5.0946    0.5533    0.0000 H   0  0  0  0  0  0  0  0  0  0  0  0
    5.8928    0.5625    0.0000 H   0  0  0  0  0  0  0  0  0  0  0  0
    6.8496    0.5920    0.0000 H   0  0  0  0  0  0  0  0  0  0  0  0
    7.6467    0.5920    0.0000 H   0  0  0  0  0  0  0  0  0  0  0  0
    8.6511    2.2570    0.0000 H   0  0  0  0  0  0  0  0  0  0  0  0
    4.3731    3.1715    0.0000 H   0  0  0  0  0  0  0  0  0  0  0  0
    3.9713    2.4817    0.0000 H   0  0  0  0  0  0  0  0  0  0  0  0
    3.9713    1.6523    0.0000 H   0  0  0  0  0  0  0  0  0  0  0  0
    4.3731    0.9625    0.0000 H   0  0  0  0  0  0  0  0  0  0  0  0
    8.9802   -0.5530    0.0000 H   0  0  0  0  0  0  0  0  0  0  0  0
    8.4433    4.3770    0.0000 H   0  0  0  0  0  0  0  0  0  0  0  0
   10.3832   -0.7430    0.0000 H   0  0  0  0  0  0  0  0  0  0  0  0
   11.1108    0.5419    0.0000 H   0  0  0  0  0  0  0  0  0  0  0  0
   10.3137    0.5419    0.0000 H   0  0  0  0  0  0  0  0  0  0  0  0
    7.5772   -0.1230    0.0000 H   0  0  0  0  0  0  0  0  0  0  0  0
   11.0223    4.5300    0.0000 H   0  0  0  0  0  0  0  0  0  0  0  0
   11.2492    5.3770    0.0000 H   0  0  0  0  0  0  0  0  0  0  0  0
   10.4023    5.6039    0.0000 H   0  0  0  0  0  0  0  0  0  0  0  0
    9.8832    5.7430    0.0000 H   0  0  0  0  0  0  0  0  0  0  0  0
    9.0362    5.9700    0.0000 H   0  0  0  0  0  0  0  0  0  0  0  0
    8.8093    5.1230    0.0000 H   0  0  0  0  0  0  0  0  0  0  0  0
    9.8093    3.3910    0.0000 H   0  0  0  0  0  0  0  0  0  0  0  0
   10.6562    3.1640    0.0000 H   0  0  0  0  0  0  0  0  0  0  0  0
   10.8832    4.0110    0.0000 H   0  0  0  0  0  0  0  0  0  0  0  0
   10.3832   -1.7430    0.0000 H   0  0  0  0  0  0  0  0  0  0  0  0
    8.9802   -3.5530    0.0000 H   0  0  0  0  0  0  0  0  0  0  0  0
   12.4443    0.6870    0.0000 H   0  0  0  0  0  0  0  0  0  0  0  0
   11.0413   -1.7430    0.0000 H   0  0  0  0  0  0  0  0  0  0  0  0
   10.4568   -3.5407    0.0000 H   0  0  0  0  0  0  0  0  0  0  0  0
   10.0583   -2.8504    0.0000 H   0  0  0  0  0  0  0  0  0  0  0  0
    8.1142   -4.0530    0.0000 H   0  0  0  0  0  0  0  0  0  0  0  0
   13.8473   -0.1230    0.0000 H   0  0  0  0  0  0  0  0  0  0  0  0
   12.4443   -2.5530    0.0000 H   0  0  0  0  0  0  0  0  0  0  0  0
   13.8473   -1.7430    0.0000 H   0  0  0  0  0  0  0  0  0  0  0  0
    9.2262   -5.4330    0.0000 H   0  0  0  0  0  0  0  0  0  0  0  0
    9.8462   -6.0530    0.0000 H   0  0  0  0  0  0  0  0  0  0  0  0
   10.4662   -5.4330    0.0000 H   0  0  0  0  0  0  0  0  0  0  0  0
    5.9836   -3.9080    0.0000 H   0  0  0  0  0  0  0  0  0  0  0  0
    6.7807   -3.9080    0.0000 H   0  0  0  0  0  0  0  0  0  0  0  0
    5.1870   -4.7430    0.0000 H   0  0  0  0  0  0  0  0  0  0  0  0
    4.3406   -1.5877    0.0000 H   0  0  0  0  0  0  0  0  0  0  0  0
    3.7841   -5.5530    0.0000 H   0  0  0  0  0  0  0  0  0  0  0  0
    2.3811   -4.7430    0.0000 H   0  0  0  0  0  0  0  0  0  0  0  0
    1.4747   -3.2424    0.0000 H   0  0  0  0  0  0  0  0  0  0  0  0
    2.9045   -0.7438    0.0000 H   0  0  0  0  0  0  0  0  0  0  0  0
    1.4619   -1.5766    0.0000 H   0  0  0  0  0  0  0  0  0  0  0  0
  1  6  2  0  0  0  0
  1  7  2  0  0  0  0
  1 37  1  0  0  0  0
  1 42  1  0  0  0  0
  2 23  2  0  0  0  0
  3 24  2  0  0  0  0
 25  4  1  6  0  0  0
  4 74  1  0  0  0  0
  5 33  2  0  0  0  0
  8 41  2  0  0  0  0
  9 43  1  0  0  0  0
  9 44  1  0  0  0  0
 10 19  1  0  0  0  0
 10 20  1  0  0  0  0
 10 24  1  0  0  0  0
 11 23  1  0  0  0  0
 11 27  1  0  0  0  0
 11 70  1  0  0  0  0
 26 12  1  6  0  0  0
 12 33  1  0  0  0  0
 12 84  1  0  0  0  0
 34 13  1  6  0  0  0
 13 41  1  0  0  0  0
 13 90  1  0  0  0  0
 14 15  1  0  0  0  0
 14 16  1  0  0  0  0
 14 17  1  0  0  0  0
 14 54  1  0  0  0  0
 15 18  1  0  0  0  0
 15 19  1  0  0  0  0
 15 55  1  0  0  0  0
 16 20  1  0  0  0  0
 16 56  1  0  0  0  0
 16 57  1  0  0  0  0
 17 21  1  0  0  0  0
 17 58  1  0  0  0  0
 17 59  1  0  0  0  0
 18 22  1  0  0  0  0
 18 60  1  0  0  0  0
 18 61  1  0  0  0  0
 19 62  1  0  0  0  0
 19 63  1  0  0  0  0
 20 23  1  1  0  0  0
 20 64  1  0  0  0  0
 21 22  1  0  0  0  0
 21 65  1  0  0  0  0
 21 66  1  0  0  0  0
 22 67  1  0  0  0  0
 22 68  1  0  0  0  0
 24 25  1  0  0  0  0
 25 26  1  0  0  0  0
 25 69  1  0  0  0  0
 26 28  1  0  0  0  0
 26 71  1  0  0  0  0
 27 29  1  0  0  0  0
 27 30  1  0  0  0  0
 27 31  1  0  0  0  0
 28 32  1  0  0  0  0
 28 72  1  0  0  0  0
 28 73  1  0  0  0  0
 29 75  1  0  0  0  0
 29 76  1  0  0  0  0
 29 77  1  0  0  0  0
 30 78  1  0  0  0  0
 30 79  1  0  0  0  0
 30 80  1  0  0  0  0
 31 81  1  0  0  0  0
 31 82  1  0  0  0  0
 31 83  1  0  0  0  0
 32 35  2  0  0  0  0
 32 36  1  0  0  0  0
 33 34  1  0  0  0  0
 34 37  1  0  0  0  0
 34 85  1  0  0  0  0
 35 38  1  0  0  0  0
 35 86  1  0  0  0  0
 36 39  2  0  0  0  0
 36 87  1  0  0  0  0
 37 88  1  0  0  0  0
 37 89  1  0  0  0  0
 38 40  2  0  0  0  0
 38 91  1  0  0  0  0
 39 40  1  0  0  0  0
 39 92  1  0  0  0  0
 40 93  1  0  0  0  0
 41 43  1  0  0  0  0
 42 94  1  0  0  0  0
 42 95  1  0  0  0  0
 42 96  1  0  0  0  0
 43 97  1  0  0  0  0
 43 98  1  0  0  0  0
 44 45  1  0  0  0  0
 44 46  2  0  0  0  0
 45 47  1  0  0  0  0
 45 48  2  0  0  0  0
 46 49  1  0  0  0  0
 46 99  1  0  0  0  0
 47 50  1  0  0  0  0
 47 51  2  0  0  0  0
 48 52  1  0  0  0  0
 48100  1  0  0  0  0
 49 50  2  0  0  0  0
 49101  1  0  0  0  0
 50102  1  0  0  0  0
 51 53  1  0  0  0  0
 51103  1  0  0  0  0
 52 53  2  0  0  0  0
 52104  1  0  0  0  0
 53105  1  0  0  0  0
M  END
> <PUBCHEM_COMPOUND_CID>
501822
> <PUBCHEM_COMPOUND_CANONICALIZED>
1
> <PUBCHEM_CACTVS_COMPLEXITY>
1370
> <PUBCHEM_CACTVS_HBOND_ACCEPTOR>
8
> <PUBCHEM_CACTVS_HBOND_DONOR>
4
> <PUBCHEM_CACTVS_ROTATABLE_BOND>
14
> <PUBCHEM_CACTVS_SUBSKEYS>
AAADcfB/vABAAAAAAAAAAAAAAAAAAAAAAAA8YMGCAAAAAADxVAAAHgQQCAAADbzl2AayBsPABgqIAiFSEHJCCAAgIBAIiIHOCIgOdjqk8T+XeCCk1hGYqAeYyLCOgAABAAAYAAAAAAIAADAAAAAAAAAAAA==
> <PUBCHEM_IUPAC_OPENEYE_NAME>
(3S)-N-tert-butyl-2-[(2S,3S)-2-hydroxy-3-[[(2R)-3-methylsulfonyl-2-[[2-(1-naphthyloxy)acetyl]amino]propanoyl]amino]-4-phenyl-butanoyl]-3,4,4a,5,6,7,8,8a-octahydro-1H-isoquinoline-3-carboxamide
> <PUBCHEM_IUPAC_CAS_NAME>
(3S)-N-tert-butyl-2-[(2S,3S)-2-hydroxy-3-[[(2R)-3-methylsulfonyl-2-[[2-(1-naphthalenyloxy)-1-oxoethyl]amino]-1-oxopropyl]amino]-1-oxo-4-phenylbutyl]-3,4,4a,5,6,7,8,8a-octahydro-1H-isoquinoline-3-carboxamide
> <PUBCHEM_IUPAC_NAME_MARKUP>
(3<I>S</I>)-<I>N</I>-<I>tert</I>-butyl-2-[(2<I>S</I>,3<I>S</I>)-2-hydroxy-3-[[(2<I>R</I>)-3-methylsulfonyl-2-[(2-naphthalen-1-yloxyacetyl)amino]propanoyl]amino]-4-phenylbutanoyl]-3,4,4<I>a</I>,5,6,7,8,8<I>a</I>-octahydro-1<I>H</I>-isoquinoline-3-carboxamide
> <PUBCHEM_IUPAC_NAME>
(3S)-N-tert-butyl-2-[(2S,3S)-2-hydroxy-3-[[(2R)-3-methylsulfonyl-2-[(2-naphthalen-1-yloxyacetyl)amino]propanoyl]amino]-4-phenylbutanoyl]-3,4,4a,5,6,7,8,8a-octahydro-1H-isoquinoline-3-carboxamide
> <PUBCHEM_IUPAC_SYSTEMATIC_NAME>
(3S)-N-tert-butyl-2-[(2S,3S)-3-[[(2R)-3-methylsulfonyl-2-(2-naphthalen-1-yloxyethanoylamino)propanoyl]amino]-2-oxidanyl-4-phenyl-butanoyl]-3,4,4a,5,6,7,8,8a-octahydro-1H-isoquinoline-3-carboxamide
> <PUBCHEM_IUPAC_TRADITIONAL_NAME>
(3S)-N-tert-butyl-2-[(2S,3S)-2-hydroxy-3-[[(2R)-3-mesyl-2-[[2-(1-naphthoxy)acetyl]amino]propanoyl]amino]-4-phenyl-butanoyl]-3,4,4a,5,6,7,8,8a-octahydro-1H-isoquinoline-3-carboxamide
> <PUBCHEM_IUPAC_INCHI>
InChI=1S/C40H52N4O8S/c1-40(2,3)43-38(48)33-22-28-16-8-9-17-29(28)23-44(33)39(49)36(46)31(21-26-13-6-5-7-14-26)42-37(47)32(25-53(4,50)51)41-35(45)24-52-34-20-12-18-27-15-10-11-19-30(27)34/h5-7,10-15,18-20,28-29,31-33,36,46H,8-9,16-17,21-25H2,1-4H3,(H,41,45)(H,42,47)(H,43,48)/t28?,29?,31-,32-,33-,36-/m0/s1
> <PUBCHEM_IUPAC_INCHIKEY>
VBIDGDLVBQVWLO-UVFJIMBVSA-N
> <PUBCHEM_XLOGP3_AA>
4.9
> <PUBCHEM_EXACT_MASS>
748.35058580
> <PUBCHEM_MOLECULAR_FORMULA>
C40H52N4O8S
> <PUBCHEM_MOLECULAR_WEIGHT>
748.9
> <PUBCHEM_OPENEYE_CAN_SMILES>
CC(C)(C)NC(=O)C1CC2CCCCC2CN1C(=O)C(C(CC3=CC=CC=C3)NC(=O)C(CS(=O)(=O)C)NC(=O)COC4=CC=CC5=CC=CC=C54)O
> <PUBCHEM_OPENEYE_ISO_SMILES>
CC(C)(C)NC(=O)[C@@H]1CC2CCCCC2CN1C(=O)[C@H]([C@H](CC3=CC=CC=C3)NC(=O)[C@H](CS(=O)(=O)C)NC(=O)COC4=CC=CC5=CC=CC=C54)O
> <PUBCHEM_CACTVS_TPSA>
180
> <PUBCHEM_MONOISOTOPIC_WEIGHT>
748.35058580
> <PUBCHEM_TOTAL_CHARGE>
0
> <PUBCHEM_HEAVY_ATOM_COUNT>
53
> <PUBCHEM_ATOM_DEF_STEREO_COUNT>
4
> <PUBCHEM_ATOM_UDEF_STEREO_COUNT>
2
> <PUBCHEM_BOND_DEF_STEREO_COUNT>
0
> <PUBCHEM_BOND_UDEF_STEREO_COUNT>
0
> <PUBCHEM_ISOTOPIC_ATOM_COUNT>
0
> <PUBCHEM_COMPONENT_COUNT>
1
> <PUBCHEM_CACTVS_TAUTO_COUNT>
-1
> <PUBCHEM_COORDINATE_TYPE>
1
5
255
> <PUBCHEM_BONDANNOTATIONS>
26  12  6
34  13  6
14  17  3
15  18  3
20  23  5
32  35  8
32  36  8
35  38  8
36  39  8
38  40  8
39  40  8
25  4  6
44  45  8
44  46  8
45  47  8
45  48  8
46  49  8
47  50  8
47  51  8
48  52  8
49  50  8
51  53  8
52  53  8
$$$$
