501819
  -OEChem-10302200282D
 87 90  0     1  0  0  0  0  0999 V2000
    6.0010    2.2327    0.0000 S   0  0  0  0  0  0  0  0  0  0  0  0
    6.8671   -3.2673    0.0000 O   0  0  0  0  0  0  0  0  0  0  0  0
    7.7331   -0.7673    0.0000 O   0  0  0  0  0  0  0  0  0  0  0  0
    8.9774   -0.2133    0.0000 O   0  0  0  0  0  0  0  0  0  0  0  0
    4.2690   -0.7673    0.0000 O   0  0  0  0  0  0  0  0  0  0  0  0
    5.0010    2.2327    0.0000 O   0  0  0  0  0  0  0  0  0  0  0  0
    7.0010    2.2327    0.0000 O   0  0  0  0  0  0  0  0  0  0  0  0
    3.4030   -0.2673    0.0000 O   0  0  0  0  0  0  0  0  0  0  0  0
    8.5991   -2.2673    0.0000 N   0  0  0  0  0  0  0  0  0  0  0  0
   10.6716   -0.5734    0.0000 N   0  0  0  0  0  0  0  0  0  0  0  0
    6.0010   -0.7673    0.0000 N   0  0  0  0  0  0  0  0  0  0  0  0
    6.0010    1.2327    0.0000 N   0  0  0  0  0  0  0  0  0  0  0  0
    2.5369    1.2327    0.0000 N   0  0  0  0  0  0  0  0  0  0  0  0
    9.5127   -1.8606    0.0000 C   0  0  1  0  0  0  0  0  0  0  0  0
   10.1818   -2.6037    0.0000 C   0  0  0  0  0  0  0  0  0  0  0  0
    9.6818   -3.4698    0.0000 C   0  0  0  0  0  0  0  0  0  0  0  0
    8.7036   -3.2618    0.0000 C   0  0  0  0  0  0  0  0  0  0  0  0
    7.7331   -1.7673    0.0000 C   0  0  0  0  0  0  0  0  0  0  0  0
    9.7206   -0.8824    0.0000 C   0  0  0  0  0  0  0  0  0  0  0  0
    6.8671   -2.2673    0.0000 C   0  0  2  0  0  0  0  0  0  0  0  0
    6.0010   -1.7673    0.0000 C   0  0  2  0  0  0  0  0  0  0  0  0
   10.8795    0.4047    0.0000 C   0  0  0  0  0  0  0  0  0  0  0  0
    5.1350   -2.2673    0.0000 C   0  0  0  0  0  0  0  0  0  0  0  0
   11.0875    1.3829    0.0000 C   0  0  0  0  0  0  0  0  0  0  0  0
   11.8577    0.1968    0.0000 C   0  0  0  0  0  0  0  0  0  0  0  0
    9.9014    0.6126    0.0000 C   0  0  0  0  0  0  0  0  0  0  0  0
    5.1350   -3.2673    0.0000 C   0  0  0  0  0  0  0  0  0  0  0  0
    5.1350   -0.2673    0.0000 C   0  0  0  0  0  0  0  0  0  0  0  0
    5.1350    0.7327    0.0000 C   0  0  2  0  0  0  0  0  0  0  0  0
    4.2690    1.2327    0.0000 C   0  0  0  0  0  0  0  0  0  0  0  0
    4.2690   -3.7673    0.0000 C   0  0  0  0  0  0  0  0  0  0  0  0
    6.0010   -3.7673    0.0000 C   0  0  0  0  0  0  0  0  0  0  0  0
    4.2690   -4.7673    0.0000 C   0  0  0  0  0  0  0  0  0  0  0  0
    6.0010   -4.7673    0.0000 C   0  0  0  0  0  0  0  0  0  0  0  0
    6.0010    3.2327    0.0000 C   0  0  0  0  0  0  0  0  0  0  0  0
    3.4030    0.7327    0.0000 C   0  0  0  0  0  0  0  0  0  0  0  0
    5.1350   -5.2673    0.0000 C   0  0  0  0  0  0  0  0  0  0  0  0
    6.8671    3.7327    0.0000 C   0  0  0  0  0  0  0  0  0  0  0  0
    5.1350    3.7327    0.0000 C   0  0  0  0  0  0  0  0  0  0  0  0
    6.8671    4.7327    0.0000 C   0  0  0  0  0  0  0  0  0  0  0  0
    7.7610    3.1980    0.0000 C   0  0  0  0  0  0  0  0  0  0  0  0
    5.1350    4.7327    0.0000 C   0  0  0  0  0  0  0  0  0  0  0  0
    6.0010    5.2327    0.0000 C   0  0  0  0  0  0  0  0  0  0  0  0
    7.7610    5.2673    0.0000 C   0  0  0  0  0  0  0  0  0  0  0  0
    8.6671    3.7118    0.0000 C   0  0  0  0  0  0  0  0  0  0  0  0
    8.6671    4.7535    0.0000 C   0  0  0  0  0  0  0  0  0  0  0  0
    9.0308   -1.4704    0.0000 H   0  0  0  0  0  0  0  0  0  0  0  0
   10.6834   -2.9682    0.0000 H   0  0  0  0  0  0  0  0  0  0  0  0
   10.5967   -2.1430    0.0000 H   0  0  0  0  0  0  0  0  0  0  0  0
    9.4902   -4.0594    0.0000 H   0  0  0  0  0  0  0  0  0  0  0  0
   10.2482   -3.7219    0.0000 H   0  0  0  0  0  0  0  0  0  0  0  0
    8.0836   -3.2618    0.0000 H   0  0  0  0  0  0  0  0  0  0  0  0
    8.6388   -3.8785    0.0000 H   0  0  0  0  0  0  0  0  0  0  0  0
    6.3301   -2.5773    0.0000 H   0  0  0  0  0  0  0  0  0  0  0  0
    6.5380   -1.4573    0.0000 H   0  0  0  0  0  0  0  0  0  0  0  0
   11.1324   -0.9883    0.0000 H   0  0  0  0  0  0  0  0  0  0  0  0
    4.9230   -1.6847    0.0000 H   0  0  0  0  0  0  0  0  0  0  0  0
    4.5244   -2.3750    0.0000 H   0  0  0  0  0  0  0  0  0  0  0  0
    6.5380   -0.4573    0.0000 H   0  0  0  0  0  0  0  0  0  0  0  0
   11.6939    1.2540    0.0000 H   0  0  0  0  0  0  0  0  0  0  0  0
   11.2164    1.9893    0.0000 H   0  0  0  0  0  0  0  0  0  0  0  0
   10.4810    1.5118    0.0000 H   0  0  0  0  0  0  0  0  0  0  0  0
   11.7288   -0.4096    0.0000 H   0  0  0  0  0  0  0  0  0  0  0  0
   12.4641    0.0679    0.0000 H   0  0  0  0  0  0  0  0  0  0  0  0
   11.9866    0.8033    0.0000 H   0  0  0  0  0  0  0  0  0  0  0  0
   10.0303    1.2191    0.0000 H   0  0  0  0  0  0  0  0  0  0  0  0
    9.2949    0.7415    0.0000 H   0  0  0  0  0  0  0  0  0  0  0  0
    9.7725    0.0062    0.0000 H   0  0  0  0  0  0  0  0  0  0  0  0
    7.4040   -3.5773    0.0000 H   0  0  0  0  0  0  0  0  0  0  0  0
    5.1350    1.3527    0.0000 H   0  0  0  0  0  0  0  0  0  0  0  0
    4.6675    1.7076    0.0000 H   0  0  0  0  0  0  0  0  0  0  0  0
    3.8705    1.7076    0.0000 H   0  0  0  0  0  0  0  0  0  0  0  0
    6.5380    0.9227    0.0000 H   0  0  0  0  0  0  0  0  0  0  0  0
    3.7320   -3.4573    0.0000 H   0  0  0  0  0  0  0  0  0  0  0  0
    6.5380   -3.4573    0.0000 H   0  0  0  0  0  0  0  0  0  0  0  0
    3.7320   -5.0773    0.0000 H   0  0  0  0  0  0  0  0  0  0  0  0
    6.5380   -5.0773    0.0000 H   0  0  0  0  0  0  0  0  0  0  0  0
    5.1350   -5.8873    0.0000 H   0  0  0  0  0  0  0  0  0  0  0  0
    4.5981    3.4227    0.0000 H   0  0  0  0  0  0  0  0  0  0  0  0
    7.7538    2.5780    0.0000 H   0  0  0  0  0  0  0  0  0  0  0  0
    4.5981    5.0427    0.0000 H   0  0  0  0  0  0  0  0  0  0  0  0
    6.0010    5.8527    0.0000 H   0  0  0  0  0  0  0  0  0  0  0  0
    2.0000    0.9227    0.0000 H   0  0  0  0  0  0  0  0  0  0  0  0
    2.5369    1.8527    0.0000 H   0  0  0  0  0  0  0  0  0  0  0  0
    7.7538    5.8873    0.0000 H   0  0  0  0  0  0  0  0  0  0  0  0
    9.2028    3.3998    0.0000 H   0  0  0  0  0  0  0  0  0  0  0  0
    9.2028    5.0656    0.0000 H   0  0  0  0  0  0  0  0  0  0  0  0
  1  6  2  0  0  0  0
  1  7  2  0  0  0  0
  1 12  1  0  0  0  0
  1 35  1  0  0  0  0
 20  2  1  1  0  0  0
  2 69  1  0  0  0  0
  3 18  2  0  0  0  0
  4 19  2  0  0  0  0
  5 28  2  0  0  0  0
  8 36  2  0  0  0  0
  9 14  1  0  0  0  0
  9 17  1  0  0  0  0
  9 18  1  0  0  0  0
 10 19  1  0  0  0  0
 10 22  1  0  0  0  0
 10 56  1  0  0  0  0
 21 11  1  6  0  0  0
 11 28  1  0  0  0  0
 11 59  1  0  0  0  0
 29 12  1  6  0  0  0
 12 73  1  0  0  0  0
 13 36  1  0  0  0  0
 13 83  1  0  0  0  0
 13 84  1  0  0  0  0
 14 15  1  0  0  0  0
 14 19  1  6  0  0  0
 14 47  1  0  0  0  0
 15 16  1  0  0  0  0
 15 48  1  0  0  0  0
 15 49  1  0  0  0  0
 16 17  1  0  0  0  0
 16 50  1  0  0  0  0
 16 51  1  0  0  0  0
 17 52  1  0  0  0  0
 17 53  1  0  0  0  0
 18 20  1  0  0  0  0
 20 21  1  0  0  0  0
 20 54  1  0  0  0  0
 21 23  1  0  0  0  0
 21 55  1  0  0  0  0
 22 24  1  0  0  0  0
 22 25  1  0  0  0  0
 22 26  1  0  0  0  0
 23 27  1  0  0  0  0
 23 57  1  0  0  0  0
 23 58  1  0  0  0  0
 24 60  1  0  0  0  0
 24 61  1  0  0  0  0
 24 62  1  0  0  0  0
 25 63  1  0  0  0  0
 25 64  1  0  0  0  0
 25 65  1  0  0  0  0
 26 66  1  0  0  0  0
 26 67  1  0  0  0  0
 26 68  1  0  0  0  0
 27 31  2  0  0  0  0
 27 32  1  0  0  0  0
 28 29  1  0  0  0  0
 29 30  1  0  0  0  0
 29 70  1  0  0  0  0
 30 36  1  0  0  0  0
 30 71  1  0  0  0  0
 30 72  1  0  0  0  0
 31 33  1  0  0  0  0
 31 74  1  0  0  0  0
 32 34  2  0  0  0  0
 32 75  1  0  0  0  0
 33 37  2  0  0  0  0
 33 76  1  0  0  0  0
 34 37  1  0  0  0  0
 34 77  1  0  0  0  0
 35 38  1  0  0  0  0
 35 39  2  0  0  0  0
 37 78  1  0  0  0  0
 38 40  1  0  0  0  0
 38 41  2  0  0  0  0
 39 42  1  0  0  0  0
 39 79  1  0  0  0  0
 40 43  1  0  0  0  0
 40 44  2  0  0  0  0
 41 45  1  0  0  0  0
 41 80  1  0  0  0  0
 42 43  2  0  0  0  0
 42 81  1  0  0  0  0
 43 82  1  0  0  0  0
 44 46  1  0  0  0  0
 44 85  1  0  0  0  0
 45 46  2  0  0  0  0
 45 86  1  0  0  0  0
 46 87  1  0  0  0  0
M  END
> <PUBCHEM_COMPOUND_CID>
501819
> <PUBCHEM_COMPOUND_CANONICALIZED>
1
> <PUBCHEM_CACTVS_COMPLEXITY>
1190
> <PUBCHEM_CACTVS_HBOND_ACCEPTOR>
8
> <PUBCHEM_CACTVS_HBOND_DONOR>
5
> <PUBCHEM_CACTVS_ROTATABLE_BOND>
13
> <PUBCHEM_CACTVS_SUBSKEYS>
AAADcfB/uABAAAAAAAAAAAAAAAAAAWAAAAAwYMAAAAAAAADBVAAAHgQQSAAADLzh2AYyAcPAAgKIAiFSEHJCABAgAAAIiJnIAIgKcDqA0TGUYAAklgCYiAedyaCOgAAAgAAUAAAAAAEAACgAAAAAAAAAAA==
> <PUBCHEM_IUPAC_OPENEYE_NAME>
(2S)-N-[(1S,2S)-1-benzyl-3-[(2S)-2-(tert-butylcarbamoyl)pyrrolidin-1-yl]-2-hydroxy-3-oxo-propyl]-2-(1-naphthylsulfonylamino)butanediamide
> <PUBCHEM_IUPAC_CAS_NAME>
(2S)-N-[(2S,3S)-4-[(2S)-2-[(tert-butylamino)-oxomethyl]-1-pyrrolidinyl]-3-hydroxy-4-oxo-1-phenylbutan-2-yl]-2-(1-naphthalenylsulfonylamino)butanediamide
> <PUBCHEM_IUPAC_NAME_MARKUP>
(2<I>S</I>)-<I>N</I>-[(2<I>S</I>,3<I>S</I>)-4-[(2<I>S</I>)-2-(<I>tert</I>-butylcarbamoyl)pyrrolidin-1-yl]-3-hydroxy-4-oxo-1-phenylbutan-2-yl]-2-(naphthalen-1-ylsulfonylamino)butanediamide
> <PUBCHEM_IUPAC_NAME>
(2S)-N-[(2S,3S)-4-[(2S)-2-(tert-butylcarbamoyl)pyrrolidin-1-yl]-3-hydroxy-4-oxo-1-phenylbutan-2-yl]-2-(naphthalen-1-ylsulfonylamino)butanediamide
> <PUBCHEM_IUPAC_SYSTEMATIC_NAME>
(2S)-N-[(2S,3S)-4-[(2S)-2-(tert-butylcarbamoyl)pyrrolidin-1-yl]-3-oxidanyl-4-oxidanylidene-1-phenyl-butan-2-yl]-2-(naphthalen-1-ylsulfonylamino)butanediamide
> <PUBCHEM_IUPAC_TRADITIONAL_NAME>
(2S)-N-[(1S,2S)-1-benzyl-3-[(2S)-2-(tert-butylcarbamoyl)pyrrolidino]-2-hydroxy-3-keto-propyl]-2-(1-naphthylsulfonylamino)succinamide
> <PUBCHEM_IUPAC_INCHI>
InChI=1S/C33H41N5O7S/c1-33(2,3)36-31(42)26-16-10-18-38(26)32(43)29(40)24(19-21-11-5-4-6-12-21)35-30(41)25(20-28(34)39)37-46(44,45)27-17-9-14-22-13-7-8-15-23(22)27/h4-9,11-15,17,24-26,29,37,40H,10,16,18-20H2,1-3H3,(H2,34,39)(H,35,41)(H,36,42)/t24-,25-,26-,29-/m0/s1
> <PUBCHEM_IUPAC_INCHIKEY>
FXRPTJATRBHWDC-VZTVMPNDSA-N
> <PUBCHEM_XLOGP3_AA>
2.1
> <PUBCHEM_EXACT_MASS>
651.27266984
> <PUBCHEM_MOLECULAR_FORMULA>
C33H41N5O7S
> <PUBCHEM_MOLECULAR_WEIGHT>
651.8
> <PUBCHEM_OPENEYE_CAN_SMILES>
CC(C)(C)NC(=O)C1CCCN1C(=O)C(C(CC2=CC=CC=C2)NC(=O)C(CC(=O)N)NS(=O)(=O)C3=CC=CC4=CC=CC=C43)O
> <PUBCHEM_OPENEYE_ISO_SMILES>
CC(C)(C)NC(=O)[C@@H]1CCCN1C(=O)[C@H]([C@H](CC2=CC=CC=C2)NC(=O)[C@H](CC(=O)N)NS(=O)(=O)C3=CC=CC4=CC=CC=C43)O
> <PUBCHEM_CACTVS_TPSA>
196
> <PUBCHEM_MONOISOTOPIC_WEIGHT>
651.27266984
> <PUBCHEM_TOTAL_CHARGE>
0
> <PUBCHEM_HEAVY_ATOM_COUNT>
46
> <PUBCHEM_ATOM_DEF_STEREO_COUNT>
4
> <PUBCHEM_ATOM_UDEF_STEREO_COUNT>
0
> <PUBCHEM_BOND_DEF_STEREO_COUNT>
0
> <PUBCHEM_BOND_UDEF_STEREO_COUNT>
0
> <PUBCHEM_ISOTOPIC_ATOM_COUNT>
0
> <PUBCHEM_COMPONENT_COUNT>
1
> <PUBCHEM_CACTVS_TAUTO_COUNT>
-1
> <PUBCHEM_COORDINATE_TYPE>
1
5
255
> <PUBCHEM_BONDANNOTATIONS>
21  11  6
29  12  6
14  19  6
20  2  5
27  31  8
27  32  8
31  33  8
32  34  8
33  37  8
34  37  8
35  38  8
35  39  8
38  40  8
38  41  8
39  42  8
40  43  8
40  44  8
41  45  8
42  43  8
44  46  8
45  46  8
$$$$
