501854
  -OEChem-10302200282D
 89 92  0     1  0  0  0  0  0999 V2000
    2.0000    0.5691    0.0000 S   0  0  0  0  0  0  0  0  0  0  0  0
    3.5827   -1.7673    0.0000 O   0  0  0  0  0  0  0  0  0  0  0  0
    5.3147    0.2327    0.0000 O   0  0  0  0  0  0  0  0  0  0  0  0
    5.1724    1.5873    0.0000 O   0  0  0  0  0  0  0  0  0  0  0  0
    7.0468   -2.7673    0.0000 O   0  0  0  0  0  0  0  0  0  0  0  0
    7.9128   -3.2673    0.0000 O   0  0  0  0  0  0  0  0  0  0  0  0
    9.6448    1.7327    0.0000 O   0  0  0  0  0  0  0  0  0  0  0  0
    9.6448   -0.2673    0.0000 O   0  0  0  0  0  0  0  0  0  0  0  0
    3.5827    0.2327    0.0000 N   0  0  0  0  0  0  0  0  0  0  0  0
    4.0134    2.8745    0.0000 N   0  0  0  0  0  0  0  0  0  0  0  0
    6.1808   -1.2673    0.0000 N   0  0  0  0  0  0  0  0  0  0  0  0
    7.9128   -0.2673    0.0000 N   0  0  0  0  0  0  0  0  0  0  0  0
    3.4782    1.2272    0.0000 C   0  0  1  0  0  0  0  0  0  0  0  0
    5.3147   -1.7673    0.0000 C   0  0  2  0  0  0  0  0  0  0  0  0
    4.4487   -1.2673    0.0000 C   0  0  1  0  0  0  0  0  0  0  0  0
    2.5000    1.4351    0.0000 C   0  0  0  0  0  0  0  0  0  0  0  0
    2.6691   -0.1741    0.0000 C   0  0  0  0  0  0  0  0  0  0  0  0
    4.4487   -0.2673    0.0000 C   0  0  0  0  0  0  0  0  0  0  0  0
    4.2213    1.8963    0.0000 C   0  0  0  0  0  0  0  0  0  0  0  0
    3.0623    3.1835    0.0000 C   0  0  0  0  0  0  0  0  0  0  0  0
    5.3147   -2.7673    0.0000 C   0  0  0  0  0  0  0  0  0  0  0  0
    4.4487   -3.2673    0.0000 C   0  0  0  0  0  0  0  0  0  0  0  0
    2.1113    3.4925    0.0000 C   0  0  0  0  0  0  0  0  0  0  0  0
    3.3713    4.1345    0.0000 C   0  0  0  0  0  0  0  0  0  0  0  0
    2.7533    2.2324    0.0000 C   0  0  0  0  0  0  0  0  0  0  0  0
    7.0468   -1.7673    0.0000 C   0  0  0  0  0  0  0  0  0  0  0  0
    7.9128   -1.2673    0.0000 C   0  0  2  0  0  0  0  0  0  0  0  0
    8.7788   -1.7673    0.0000 C   0  0  0  0  0  0  0  0  0  0  0  0
    3.5827   -2.7673    0.0000 C   0  0  0  0  0  0  0  0  0  0  0  0
    4.4487   -4.2673    0.0000 C   0  0  0  0  0  0  0  0  0  0  0  0
    2.7166   -3.2673    0.0000 C   0  0  0  0  0  0  0  0  0  0  0  0
    3.5827   -4.7673    0.0000 C   0  0  0  0  0  0  0  0  0  0  0  0
    8.7788   -2.7673    0.0000 C   0  0  0  0  0  0  0  0  0  0  0  0
    2.7166   -4.2673    0.0000 C   0  0  0  0  0  0  0  0  0  0  0  0
    8.7788    0.2327    0.0000 C   0  0  0  0  0  0  0  0  0  0  0  0
    9.6448   -3.2673    0.0000 C   0  0  0  0  0  0  0  0  0  0  0  0
    8.7788    1.2327    0.0000 C   0  0  0  0  0  0  0  0  0  0  0  0
    9.6448    2.7327    0.0000 C   0  0  0  0  0  0  0  0  0  0  0  0
   10.5109    3.2327    0.0000 C   0  0  0  0  0  0  0  0  0  0  0  0
   10.5109    4.2327    0.0000 C   0  0  0  0  0  0  0  0  0  0  0  0
    8.7788    3.2327    0.0000 C   0  0  0  0  0  0  0  0  0  0  0  0
   11.4048    2.6980    0.0000 C   0  0  0  0  0  0  0  0  0  0  0  0
    9.6448    4.7327    0.0000 C   0  0  0  0  0  0  0  0  0  0  0  0
    8.7788    4.2327    0.0000 C   0  0  0  0  0  0  0  0  0  0  0  0
   11.4048    4.7673    0.0000 C   0  0  0  0  0  0  0  0  0  0  0  0
   12.3109    3.2118    0.0000 C   0  0  0  0  0  0  0  0  0  0  0  0
   12.3109    4.2535    0.0000 C   0  0  0  0  0  0  0  0  0  0  0  0
    4.0570    1.0050    0.0000 H   0  0  0  0  0  0  0  0  0  0  0  0
    5.3147   -1.1473    0.0000 H   0  0  0  0  0  0  0  0  0  0  0  0
    3.9118   -0.9573    0.0000 H   0  0  0  0  0  0  0  0  0  0  0  0
    2.6916    2.0248    0.0000 H   0  0  0  0  0  0  0  0  0  0  0  0
    1.9336    1.6873    0.0000 H   0  0  0  0  0  0  0  0  0  0  0  0
    2.1675   -0.5385    0.0000 H   0  0  0  0  0  0  0  0  0  0  0  0
    2.9791   -0.7110    0.0000 H   0  0  0  0  0  0  0  0  0  0  0  0
    5.5268   -3.3499    0.0000 H   0  0  0  0  0  0  0  0  0  0  0  0
    5.9253   -2.6597    0.0000 H   0  0  0  0  0  0  0  0  0  0  0  0
    4.4741    3.2893    0.0000 H   0  0  0  0  0  0  0  0  0  0  0  0
    6.1808   -0.6473    0.0000 H   0  0  0  0  0  0  0  0  0  0  0  0
    2.3029    4.0822    0.0000 H   0  0  0  0  0  0  0  0  0  0  0  0
    1.5216    3.6841    0.0000 H   0  0  0  0  0  0  0  0  0  0  0  0
    1.9197    2.9028    0.0000 H   0  0  0  0  0  0  0  0  0  0  0  0
    3.9610    3.9430    0.0000 H   0  0  0  0  0  0  0  0  0  0  0  0
    3.5629    4.7242    0.0000 H   0  0  0  0  0  0  0  0  0  0  0  0
    2.7817    4.3261    0.0000 H   0  0  0  0  0  0  0  0  0  0  0  0
    2.1636    2.4240    0.0000 H   0  0  0  0  0  0  0  0  0  0  0  0
    2.5617    1.6428    0.0000 H   0  0  0  0  0  0  0  0  0  0  0  0
    3.3430    2.0408    0.0000 H   0  0  0  0  0  0  0  0  0  0  0  0
    8.4497   -0.9573    0.0000 H   0  0  0  0  0  0  0  0  0  0  0  0
    3.0457   -1.4573    0.0000 H   0  0  0  0  0  0  0  0  0  0  0  0
    9.3894   -1.8750    0.0000 H   0  0  0  0  0  0  0  0  0  0  0  0
    8.9909   -1.1847    0.0000 H   0  0  0  0  0  0  0  0  0  0  0  0
    3.5827   -2.1473    0.0000 H   0  0  0  0  0  0  0  0  0  0  0  0
    4.9856   -4.5773    0.0000 H   0  0  0  0  0  0  0  0  0  0  0  0
    7.3759    0.0427    0.0000 H   0  0  0  0  0  0  0  0  0  0  0  0
    2.1797   -2.9573    0.0000 H   0  0  0  0  0  0  0  0  0  0  0  0
    3.5827   -5.3873    0.0000 H   0  0  0  0  0  0  0  0  0  0  0  0
    2.1797   -4.5773    0.0000 H   0  0  0  0  0  0  0  0  0  0  0  0
    9.3348   -3.8043    0.0000 H   0  0  0  0  0  0  0  0  0  0  0  0
   10.1818   -3.5773    0.0000 H   0  0  0  0  0  0  0  0  0  0  0  0
    9.9548   -2.7304    0.0000 H   0  0  0  0  0  0  0  0  0  0  0  0
    8.5668    1.8153    0.0000 H   0  0  0  0  0  0  0  0  0  0  0  0
    8.1682    1.1250    0.0000 H   0  0  0  0  0  0  0  0  0  0  0  0
    8.2419    2.9227    0.0000 H   0  0  0  0  0  0  0  0  0  0  0  0
   11.3977    2.0780    0.0000 H   0  0  0  0  0  0  0  0  0  0  0  0
    9.6448    5.3527    0.0000 H   0  0  0  0  0  0  0  0  0  0  0  0
    8.2419    4.5427    0.0000 H   0  0  0  0  0  0  0  0  0  0  0  0
   11.3977    5.3873    0.0000 H   0  0  0  0  0  0  0  0  0  0  0  0
   12.8466    2.8998    0.0000 H   0  0  0  0  0  0  0  0  0  0  0  0
   12.8466    4.5656    0.0000 H   0  0  0  0  0  0  0  0  0  0  0  0
  1 16  1  0  0  0  0
  1 17  1  0  0  0  0
 15  2  1  6  0  0  0
  2 69  1  0  0  0  0
  3 18  2  0  0  0  0
  4 19  2  0  0  0  0
  5 26  2  0  0  0  0
  6 33  2  0  0  0  0
  7 37  1  0  0  0  0
  7 38  1  0  0  0  0
  8 35  2  0  0  0  0
  9 13  1  0  0  0  0
  9 17  1  0  0  0  0
  9 18  1  0  0  0  0
 10 19  1  0  0  0  0
 10 20  1  0  0  0  0
 10 57  1  0  0  0  0
 14 11  1  1  0  0  0
 11 26  1  0  0  0  0
 11 58  1  0  0  0  0
 27 12  1  1  0  0  0
 12 35  1  0  0  0  0
 12 74  1  0  0  0  0
 13 16  1  0  0  0  0
 13 19  1  1  0  0  0
 13 48  1  0  0  0  0
 14 15  1  0  0  0  0
 14 21  1  0  0  0  0
 14 49  1  0  0  0  0
 15 18  1  0  0  0  0
 15 50  1  0  0  0  0
 16 51  1  0  0  0  0
 16 52  1  0  0  0  0
 17 53  1  0  0  0  0
 17 54  1  0  0  0  0
 20 23  1  0  0  0  0
 20 24  1  0  0  0  0
 20 25  1  0  0  0  0
 21 22  1  0  0  0  0
 21 55  1  0  0  0  0
 21 56  1  0  0  0  0
 22 29  2  0  0  0  0
 22 30  1  0  0  0  0
 23 59  1  0  0  0  0
 23 60  1  0  0  0  0
 23 61  1  0  0  0  0
 24 62  1  0  0  0  0
 24 63  1  0  0  0  0
 24 64  1  0  0  0  0
 25 65  1  0  0  0  0
 25 66  1  0  0  0  0
 25 67  1  0  0  0  0
 26 27  1  0  0  0  0
 27 28  1  0  0  0  0
 27 68  1  0  0  0  0
 28 33  1  0  0  0  0
 28 70  1  0  0  0  0
 28 71  1  0  0  0  0
 29 31  1  0  0  0  0
 29 72  1  0  0  0  0
 30 32  2  0  0  0  0
 30 73  1  0  0  0  0
 31 34  2  0  0  0  0
 31 75  1  0  0  0  0
 32 34  1  0  0  0  0
 32 76  1  0  0  0  0
 33 36  1  0  0  0  0
 34 77  1  0  0  0  0
 35 37  1  0  0  0  0
 36 78  1  0  0  0  0
 36 79  1  0  0  0  0
 36 80  1  0  0  0  0
 37 81  1  0  0  0  0
 37 82  1  0  0  0  0
 38 39  1  0  0  0  0
 38 41  2  0  0  0  0
 39 40  1  0  0  0  0
 39 42  2  0  0  0  0
 40 43  1  0  0  0  0
 40 45  2  0  0  0  0
 41 44  1  0  0  0  0
 41 83  1  0  0  0  0
 42 46  1  0  0  0  0
 42 84  1  0  0  0  0
 43 44  2  0  0  0  0
 43 85  1  0  0  0  0
 44 86  1  0  0  0  0
 45 47  1  0  0  0  0
 45 87  1  0  0  0  0
 46 47  2  0  0  0  0
 46 88  1  0  0  0  0
 47 89  1  0  0  0  0
M  END
> <PUBCHEM_COMPOUND_CID>
501854
> <PUBCHEM_COMPOUND_CANONICALIZED>
1
> <PUBCHEM_CACTVS_COMPLEXITY>
1110
> <PUBCHEM_CACTVS_HBOND_ACCEPTOR>
8
> <PUBCHEM_CACTVS_HBOND_DONOR>
4
> <PUBCHEM_CACTVS_ROTATABLE_BOND>
14
> <PUBCHEM_CACTVS_SUBSKEYS>
AAADcfB/uABAAAAAAAAAAAAAAAAAAWAAAAAwYMAAAAAAAADBVAAAHgQQCAAADLzl2AayBsPABgiIAqFSEAICCABgIBAIiIHOCIgOdjqk8T+XeCCk1hGYqAedyLCOgAABAAAYAAAAAAIAADAAAAAAAAAAAA==
> <PUBCHEM_IUPAC_OPENEYE_NAME>
(4R)-N-tert-butyl-3-[(2S,3S)-2-hydroxy-3-[[(2S)-2-[[2-(1-naphthyloxy)acetyl]amino]-4-oxo-pentanoyl]amino]-4-phenyl-butanoyl]thiazolidine-4-carboxamide
> <PUBCHEM_IUPAC_CAS_NAME>
(4R)-N-tert-butyl-3-[(2S,3S)-2-hydroxy-3-[[(2S)-2-[[2-(1-naphthalenyloxy)-1-oxoethyl]amino]-1,4-dioxopentyl]amino]-1-oxo-4-phenylbutyl]-4-thiazolidinecarboxamide
> <PUBCHEM_IUPAC_NAME_MARKUP>
(4<I>R</I>)-<I>N</I>-<I>tert</I>-butyl-3-[(2<I>S</I>,3<I>S</I>)-2-hydroxy-3-[[(2<I>S</I>)-2-[(2-naphthalen-1-yloxyacetyl)amino]-4-oxopentanoyl]amino]-4-phenylbutanoyl]-1,3-thiazolidine-4-carboxamide
> <PUBCHEM_IUPAC_NAME>
(4R)-N-tert-butyl-3-[(2S,3S)-2-hydroxy-3-[[(2S)-2-[(2-naphthalen-1-yloxyacetyl)amino]-4-oxopentanoyl]amino]-4-phenylbutanoyl]-1,3-thiazolidine-4-carboxamide
> <PUBCHEM_IUPAC_SYSTEMATIC_NAME>
(4R)-N-tert-butyl-3-[(2S,3S)-3-[[(2S)-2-(2-naphthalen-1-yloxyethanoylamino)-4-oxidanylidene-pentanoyl]amino]-2-oxidanyl-4-phenyl-butanoyl]-1,3-thiazolidine-4-carboxamide
> <PUBCHEM_IUPAC_TRADITIONAL_NAME>
(4R)-N-tert-butyl-3-[(2S,3S)-2-hydroxy-3-[[(2S)-4-keto-2-[[2-(1-naphthoxy)acetyl]amino]pentanoyl]amino]-4-phenyl-butanoyl]thiazolidine-4-carboxamide
> <PUBCHEM_IUPAC_INCHI>
InChI=1S/C35H42N4O7S/c1-22(40)17-27(36-30(41)19-46-29-16-10-14-24-13-8-9-15-25(24)29)32(43)37-26(18-23-11-6-5-7-12-23)31(42)34(45)39-21-47-20-28(39)33(44)38-35(2,3)4/h5-16,26-28,31,42H,17-21H2,1-4H3,(H,36,41)(H,37,43)(H,38,44)/t26-,27-,28-,31-/m0/s1
> <PUBCHEM_IUPAC_INCHIKEY>
LJBKKTVEUZOXQL-KFZSMJGVSA-N
> <PUBCHEM_XLOGP3_AA>
3.3
> <PUBCHEM_EXACT_MASS>
662.27742087
> <PUBCHEM_MOLECULAR_FORMULA>
C35H42N4O7S
> <PUBCHEM_MOLECULAR_WEIGHT>
662.8
> <PUBCHEM_OPENEYE_CAN_SMILES>
CC(=O)CC(C(=O)NC(CC1=CC=CC=C1)C(C(=O)N2CSCC2C(=O)NC(C)(C)C)O)NC(=O)COC3=CC=CC4=CC=CC=C43
> <PUBCHEM_OPENEYE_ISO_SMILES>
CC(=O)C[C@@H](C(=O)N[C@@H](CC1=CC=CC=C1)[C@@H](C(=O)N2CSC[C@H]2C(=O)NC(C)(C)C)O)NC(=O)COC3=CC=CC4=CC=CC=C43
> <PUBCHEM_CACTVS_TPSA>
179
> <PUBCHEM_MONOISOTOPIC_WEIGHT>
662.27742087
> <PUBCHEM_TOTAL_CHARGE>
0
> <PUBCHEM_HEAVY_ATOM_COUNT>
47
> <PUBCHEM_ATOM_DEF_STEREO_COUNT>
4
> <PUBCHEM_ATOM_UDEF_STEREO_COUNT>
0
> <PUBCHEM_BOND_DEF_STEREO_COUNT>
0
> <PUBCHEM_BOND_UDEF_STEREO_COUNT>
0
> <PUBCHEM_ISOTOPIC_ATOM_COUNT>
0
> <PUBCHEM_COMPONENT_COUNT>
1
> <PUBCHEM_CACTVS_TAUTO_COUNT>
-1
> <PUBCHEM_COORDINATE_TYPE>
1
5
255
> <PUBCHEM_BONDANNOTATIONS>
14  11  5
27  12  5
13  19  5
15  2  6
22  29  8
22  30  8
29  31  8
30  32  8
31  34  8
32  34  8
38  39  8
38  41  8
39  40  8
39  42  8
40  43  8
40  45  8
41  44  8
42  46  8
43  44  8
45  47  8
46  47  8
$$$$
