501852
  -OEChem-10302200282D
 84 86  0     1  0  0  0  0  0999 V2000
    7.9295    0.8569    0.0000 O   0  0  0  0  0  0  0  0  0  0  0  0
    5.3314    0.3569    0.0000 O   0  0  0  0  0  0  0  0  0  0  0  0
    4.2294    1.1575    0.0000 O   0  0  0  0  0  0  0  0  0  0  0  0
    8.7955    0.3569    0.0000 O   0  0  0  0  0  0  0  0  0  0  0  0
   11.3936    0.8569    0.0000 O   0  0  0  0  0  0  0  0  0  0  0  0
   11.3936   -2.1431    0.0000 O   0  0  0  0  0  0  0  0  0  0  0  0
    9.6615    0.8569    0.0000 O   0  0  0  0  0  0  0  0  0  0  0  0
    6.1974    1.8569    0.0000 N   0  0  0  0  0  0  0  0  0  0  0  0
    3.6942    2.8048    0.0000 N   0  0  0  0  0  0  0  0  0  0  0  0
    7.9295   -1.1431    0.0000 N   0  0  0  0  0  0  0  0  0  0  0  0
   10.5275   -0.6431    0.0000 N   0  0  0  0  0  0  0  0  0  0  0  0
   10.5275   -3.6431    0.0000 N   0  0  0  0  0  0  0  0  0  0  0  0
    5.3884    2.4447    0.0000 C   0  0  1  0  0  0  0  0  0  0  0  0
    5.6974    3.3958    0.0000 C   0  0  0  0  0  0  0  0  0  0  0  0
    6.6974    3.3958    0.0000 C   0  0  0  0  0  0  0  0  0  0  0  0
    7.0064    2.4447    0.0000 C   0  0  0  0  0  0  0  0  0  0  0  0
    6.1974    0.8569    0.0000 C   0  0  0  0  0  0  0  0  0  0  0  0
    7.0634    0.3569    0.0000 C   0  0  2  0  0  0  0  0  0  0  0  0
    4.4374    2.1357    0.0000 C   0  0  0  0  0  0  0  0  0  0  0  0
    7.0634   -0.6431    0.0000 C   0  0  2  0  0  0  0  0  0  0  0  0
    6.1974   -1.1431    0.0000 C   0  0  0  0  0  0  0  0  0  0  0  0
    2.7431    2.4958    0.0000 C   0  0  3  0  0  0  0  0  0  0  0  0
    2.0000    3.1649    0.0000 C   0  0  0  0  0  0  0  0  0  0  0  0
    6.1974   -2.1431    0.0000 C   0  0  0  0  0  0  0  0  0  0  0  0
    2.5352    1.5176    0.0000 C   0  0  0  0  0  0  0  0  0  0  0  0
    8.7955   -0.6431    0.0000 C   0  0  0  0  0  0  0  0  0  0  0  0
    9.6615   -1.1431    0.0000 C   0  0  2  0  0  0  0  0  0  0  0  0
    2.2079    4.1431    0.0000 C   0  0  0  0  0  0  0  0  0  0  0  0
    7.0634   -2.6431    0.0000 C   0  0  0  0  0  0  0  0  0  0  0  0
    5.3314   -2.6431    0.0000 C   0  0  0  0  0  0  0  0  0  0  0  0
    9.6615   -2.1431    0.0000 C   0  0  0  0  0  0  0  0  0  0  0  0
    7.0634   -3.6431    0.0000 C   0  0  0  0  0  0  0  0  0  0  0  0
    5.3314   -3.6431    0.0000 C   0  0  0  0  0  0  0  0  0  0  0  0
    6.1974   -4.1431    0.0000 C   0  0  0  0  0  0  0  0  0  0  0  0
   10.5275   -2.6431    0.0000 C   0  0  0  0  0  0  0  0  0  0  0  0
   10.5275    0.3569    0.0000 C   0  0  0  0  0  0  0  0  0  0  0  0
   11.3936    1.8569    0.0000 C   0  0  0  0  0  0  0  0  0  0  0  0
   12.2596    2.3569    0.0000 C   0  0  0  0  0  0  0  0  0  0  0  0
   13.1256    1.8569    0.0000 C   0  0  0  0  0  0  0  0  0  0  0  0
   12.2596    3.3569    0.0000 C   0  0  0  0  0  0  0  0  0  0  0  0
   13.9916    2.3569    0.0000 C   0  0  0  0  0  0  0  0  0  0  0  0
   13.1256    3.8569    0.0000 C   0  0  0  0  0  0  0  0  0  0  0  0
   13.9916    3.3569    0.0000 C   0  0  0  0  0  0  0  0  0  0  0  0
    5.2914    1.8323    0.0000 H   0  0  0  0  0  0  0  0  0  0  0  0
    5.7622    4.0124    0.0000 H   0  0  0  0  0  0  0  0  0  0  0  0
    5.0910    3.5247    0.0000 H   0  0  0  0  0  0  0  0  0  0  0  0
    7.3039    3.5247    0.0000 H   0  0  0  0  0  0  0  0  0  0  0  0
    6.6326    4.0124    0.0000 H   0  0  0  0  0  0  0  0  0  0  0  0
    7.3164    1.9078    0.0000 H   0  0  0  0  0  0  0  0  0  0  0  0
    7.5728    2.6969    0.0000 H   0  0  0  0  0  0  0  0  0  0  0  0
    7.0634    0.9769    0.0000 H   0  0  0  0  0  0  0  0  0  0  0  0
    7.0634   -1.2631    0.0000 H   0  0  0  0  0  0  0  0  0  0  0  0
    3.8231    3.4113    0.0000 H   0  0  0  0  0  0  0  0  0  0  0  0
    5.9854   -0.5605    0.0000 H   0  0  0  0  0  0  0  0  0  0  0  0
    5.5868   -1.2507    0.0000 H   0  0  0  0  0  0  0  0  0  0  0  0
    2.8721    3.1022    0.0000 H   0  0  0  0  0  0  0  0  0  0  0  0
    7.9295   -1.7631    0.0000 H   0  0  0  0  0  0  0  0  0  0  0  0
    7.9295    1.4769    0.0000 H   0  0  0  0  0  0  0  0  0  0  0  0
    1.4252    3.3972    0.0000 H   0  0  0  0  0  0  0  0  0  0  0  0
    1.6714    2.6391    0.0000 H   0  0  0  0  0  0  0  0  0  0  0  0
    1.9288    1.6466    0.0000 H   0  0  0  0  0  0  0  0  0  0  0  0
    2.4063    0.9112    0.0000 H   0  0  0  0  0  0  0  0  0  0  0  0
    3.1417    1.3888    0.0000 H   0  0  0  0  0  0  0  0  0  0  0  0
    9.6615   -0.5231    0.0000 H   0  0  0  0  0  0  0  0  0  0  0  0
    2.8144    4.0142    0.0000 H   0  0  0  0  0  0  0  0  0  0  0  0
    2.3368    4.7495    0.0000 H   0  0  0  0  0  0  0  0  0  0  0  0
    1.6015    4.2720    0.0000 H   0  0  0  0  0  0  0  0  0  0  0  0
    7.6004   -2.3331    0.0000 H   0  0  0  0  0  0  0  0  0  0  0  0
    4.7945   -2.3331    0.0000 H   0  0  0  0  0  0  0  0  0  0  0  0
    9.0509   -2.0354    0.0000 H   0  0  0  0  0  0  0  0  0  0  0  0
    9.4495   -2.7257    0.0000 H   0  0  0  0  0  0  0  0  0  0  0  0
   11.0645   -0.9531    0.0000 H   0  0  0  0  0  0  0  0  0  0  0  0
    7.6004   -3.9531    0.0000 H   0  0  0  0  0  0  0  0  0  0  0  0
    4.7945   -3.9531    0.0000 H   0  0  0  0  0  0  0  0  0  0  0  0
    6.1974   -4.7631    0.0000 H   0  0  0  0  0  0  0  0  0  0  0  0
   11.0645   -3.9531    0.0000 H   0  0  0  0  0  0  0  0  0  0  0  0
    9.9906   -3.9531    0.0000 H   0  0  0  0  0  0  0  0  0  0  0  0
   11.1815    2.4395    0.0000 H   0  0  0  0  0  0  0  0  0  0  0  0
   10.7830    1.7493    0.0000 H   0  0  0  0  0  0  0  0  0  0  0  0
   13.1256    1.2369    0.0000 H   0  0  0  0  0  0  0  0  0  0  0  0
   11.7227    3.6669    0.0000 H   0  0  0  0  0  0  0  0  0  0  0  0
   14.5286    2.0469    0.0000 H   0  0  0  0  0  0  0  0  0  0  0  0
   13.1256    4.4769    0.0000 H   0  0  0  0  0  0  0  0  0  0  0  0
   14.5286    3.6669    0.0000 H   0  0  0  0  0  0  0  0  0  0  0  0
 18  1  1  1  0  0  0
  1 58  1  0  0  0  0
  2 17  2  0  0  0  0
  3 19  2  0  0  0  0
  4 26  2  0  0  0  0
  5 36  1  0  0  0  0
  5 37  1  0  0  0  0
  6 35  2  0  0  0  0
  7 36  2  0  0  0  0
  8 13  1  0  0  0  0
  8 16  1  0  0  0  0
  8 17  1  0  0  0  0
  9 19  1  0  0  0  0
  9 22  1  0  0  0  0
  9 53  1  0  0  0  0
 20 10  1  1  0  0  0
 10 26  1  0  0  0  0
 10 57  1  0  0  0  0
 27 11  1  1  0  0  0
 11 36  1  0  0  0  0
 11 72  1  0  0  0  0
 12 35  1  0  0  0  0
 12 76  1  0  0  0  0
 12 77  1  0  0  0  0
 13 14  1  0  0  0  0
 13 19  1  6  0  0  0
 13 44  1  0  0  0  0
 14 15  1  0  0  0  0
 14 45  1  0  0  0  0
 14 46  1  0  0  0  0
 15 16  1  0  0  0  0
 15 47  1  0  0  0  0
 15 48  1  0  0  0  0
 16 49  1  0  0  0  0
 16 50  1  0  0  0  0
 17 18  1  0  0  0  0
 18 20  1  0  0  0  0
 18 51  1  0  0  0  0
 20 21  1  0  0  0  0
 20 52  1  0  0  0  0
 21 24  1  0  0  0  0
 21 54  1  0  0  0  0
 21 55  1  0  0  0  0
 22 23  1  0  0  0  0
 22 25  1  0  0  0  0
 22 56  1  0  0  0  0
 23 28  1  0  0  0  0
 23 59  1  0  0  0  0
 23 60  1  0  0  0  0
 24 29  2  0  0  0  0
 24 30  1  0  0  0  0
 25 61  1  0  0  0  0
 25 62  1  0  0  0  0
 25 63  1  0  0  0  0
 26 27  1  0  0  0  0
 27 31  1  0  0  0  0
 27 64  1  0  0  0  0
 28 65  1  0  0  0  0
 28 66  1  0  0  0  0
 28 67  1  0  0  0  0
 29 32  1  0  0  0  0
 29 68  1  0  0  0  0
 30 33  2  0  0  0  0
 30 69  1  0  0  0  0
 31 35  1  0  0  0  0
 31 70  1  0  0  0  0
 31 71  1  0  0  0  0
 32 34  2  0  0  0  0
 32 73  1  0  0  0  0
 33 34  1  0  0  0  0
 33 74  1  0  0  0  0
 34 75  1  0  0  0  0
 37 38  1  0  0  0  0
 37 78  1  0  0  0  0
 37 79  1  0  0  0  0
 38 39  2  0  0  0  0
 38 40  1  0  0  0  0
 39 41  1  0  0  0  0
 39 80  1  0  0  0  0
 40 42  2  0  0  0  0
 40 81  1  0  0  0  0
 41 43  2  0  0  0  0
 41 82  1  0  0  0  0
 42 43  1  0  0  0  0
 42 83  1  0  0  0  0
 43 84  1  0  0  0  0
M  END
> <PUBCHEM_COMPOUND_CID>
501852
> <PUBCHEM_COMPOUND_CANONICALIZED>
1
> <PUBCHEM_CACTVS_COMPLEXITY>
951
> <PUBCHEM_CACTVS_HBOND_ACCEPTOR>
7
> <PUBCHEM_CACTVS_HBOND_DONOR>
5
> <PUBCHEM_CACTVS_ROTATABLE_BOND>
15
> <PUBCHEM_CACTVS_SUBSKEYS>
AAADcfB7uAAAAAAAAAAAAAAAAAAAAWAAAAAwYAAAAAAAAAABQAAAHgAQCAAADDzhmAYyCIPABgCIAiFSGAICAAAgAAAIiIHICIkKdjqA8TmccAAk1gGYqAedyaCOAAAAAAAAAAAAAAAAAAAAAAAAAAAAAA==
> <PUBCHEM_IUPAC_OPENEYE_NAME>
benzyl N-[(1S)-3-amino-1-[[(1S,2S)-1-benzyl-2-hydroxy-3-oxo-3-[(2S)-2-(sec-butylcarbamoyl)pyrrolidin-1-yl]propyl]carbamoyl]-3-oxo-propyl]carbamate
> <PUBCHEM_IUPAC_CAS_NAME>
N-[(2S)-4-amino-1-[[(2S,3S)-4-[(2S)-2-[(butan-2-ylamino)-oxomethyl]-1-pyrrolidinyl]-3-hydroxy-4-oxo-1-phenylbutan-2-yl]amino]-1,4-dioxobutan-2-yl]carbamic acid (phenylmethyl) ester
> <PUBCHEM_IUPAC_NAME_MARKUP>
benzyl <I>N</I>-[(2<I>S</I>)-4-amino-1-[[(2<I>S</I>,3<I>S</I>)-4-[(2<I>S</I>)-2-(butan-2-ylcarbamoyl)pyrrolidin-1-yl]-3-hydroxy-4-oxo-1-phenylbutan-2-yl]amino]-1,4-dioxobutan-2-yl]carbamate
> <PUBCHEM_IUPAC_NAME>
benzyl N-[(2S)-4-amino-1-[[(2S,3S)-4-[(2S)-2-(butan-2-ylcarbamoyl)pyrrolidin-1-yl]-3-hydroxy-4-oxo-1-phenylbutan-2-yl]amino]-1,4-dioxobutan-2-yl]carbamate
> <PUBCHEM_IUPAC_SYSTEMATIC_NAME>
(phenylmethyl) N-[(2S)-4-azanyl-1-[[(2S,3S)-4-[(2S)-2-(butan-2-ylcarbamoyl)pyrrolidin-1-yl]-3-oxidanyl-4-oxidanylidene-1-phenyl-butan-2-yl]amino]-1,4-bis(oxidanylidene)butan-2-yl]carbamate
> <PUBCHEM_IUPAC_TRADITIONAL_NAME>
N-[(1S)-3-amino-1-[[(1S,2S)-1-benzyl-2-hydroxy-3-keto-3-[(2S)-2-(sec-butylcarbamoyl)pyrrolidino]propyl]carbamoyl]-3-keto-propyl]carbamic acid benzyl ester
> <PUBCHEM_IUPAC_INCHI>
InChI=1S/C31H41N5O7/c1-3-20(2)33-29(40)25-15-10-16-36(25)30(41)27(38)23(17-21-11-6-4-7-12-21)34-28(39)24(18-26(32)37)35-31(42)43-19-22-13-8-5-9-14-22/h4-9,11-14,20,23-25,27,38H,3,10,15-19H2,1-2H3,(H2,32,37)(H,33,40)(H,34,39)(H,35,42)/t20?,23-,24-,25-,27-/m0/s1
> <PUBCHEM_IUPAC_INCHIKEY>
PDLDNEKASNMZSB-PGADWOJXSA-N
> <PUBCHEM_XLOGP3_AA>
1.8
> <PUBCHEM_EXACT_MASS>
595.30059866
> <PUBCHEM_MOLECULAR_FORMULA>
C31H41N5O7
> <PUBCHEM_MOLECULAR_WEIGHT>
595.7
> <PUBCHEM_OPENEYE_CAN_SMILES>
CCC(C)NC(=O)C1CCCN1C(=O)C(C(CC2=CC=CC=C2)NC(=O)C(CC(=O)N)NC(=O)OCC3=CC=CC=C3)O
> <PUBCHEM_OPENEYE_ISO_SMILES>
CCC(C)NC(=O)[C@@H]1CCCN1C(=O)[C@H]([C@H](CC2=CC=CC=C2)NC(=O)[C@H](CC(=O)N)NC(=O)OCC3=CC=CC=C3)O
> <PUBCHEM_CACTVS_TPSA>
180
> <PUBCHEM_MONOISOTOPIC_WEIGHT>
595.30059866
> <PUBCHEM_TOTAL_CHARGE>
0
> <PUBCHEM_HEAVY_ATOM_COUNT>
43
> <PUBCHEM_ATOM_DEF_STEREO_COUNT>
4
> <PUBCHEM_ATOM_UDEF_STEREO_COUNT>
1
> <PUBCHEM_BOND_DEF_STEREO_COUNT>
0
> <PUBCHEM_BOND_UDEF_STEREO_COUNT>
0
> <PUBCHEM_ISOTOPIC_ATOM_COUNT>
0
> <PUBCHEM_COMPONENT_COUNT>
1
> <PUBCHEM_CACTVS_TAUTO_COUNT>
-1
> <PUBCHEM_COORDINATE_TYPE>
1
5
255
> <PUBCHEM_BONDANNOTATIONS>
18  1  5
20  10  5
27  11  5
13  19  6
22  25  3
24  29  8
24  30  8
29  32  8
30  33  8
32  34  8
33  34  8
38  39  8
38  40  8
39  41  8
40  42  8
41  43  8
42  43  8
$$$$
