501848
  -OEChem-10302200282D
 85 88  0     1  0  0  0  0  0999 V2000
    2.5574    0.4142    0.0000 S   0  0  0  0  0  0  0  0  0  0  0  0
    9.3362   -2.9222    0.0000 S   0  0  0  0  0  0  0  0  0  0  0  0
    4.1401   -1.9222    0.0000 O   0  0  0  0  0  0  0  0  0  0  0  0
    5.8721    0.0778    0.0000 O   0  0  0  0  0  0  0  0  0  0  0  0
    5.7297    1.4324    0.0000 O   0  0  0  0  0  0  0  0  0  0  0  0
    7.6042   -2.9222    0.0000 O   0  0  0  0  0  0  0  0  0  0  0  0
    9.3362   -3.9222    0.0000 O   0  0  0  0  0  0  0  0  0  0  0  0
    8.3362   -2.9222    0.0000 O   0  0  0  0  0  0  0  0  0  0  0  0
   10.2022    1.5778    0.0000 O   0  0  0  0  0  0  0  0  0  0  0  0
   10.2022   -0.4222    0.0000 O   0  0  0  0  0  0  0  0  0  0  0  0
    4.1550    4.6759    0.0000 O   0  0  0  0  0  0  0  0  0  0  0  0
    4.1401    0.0778    0.0000 N   0  0  0  0  0  0  0  0  0  0  0  0
    6.7382   -1.4222    0.0000 N   0  0  0  0  0  0  0  0  0  0  0  0
    8.4702   -0.4222    0.0000 N   0  0  0  0  0  0  0  0  0  0  0  0
    4.5708    2.7196    0.0000 N   0  0  0  0  0  0  0  0  0  0  0  0
    2.4608    4.3158    0.0000 N   0  0  0  0  0  0  0  0  0  0  0  0
    5.8721   -1.9222    0.0000 C   0  0  2  0  0  0  0  0  0  0  0  0
    5.0061   -1.4222    0.0000 C   0  0  1  0  0  0  0  0  0  0  0  0
    4.0355    1.0723    0.0000 C   0  0  1  0  0  0  0  0  0  0  0  0
    5.0061   -0.4222    0.0000 C   0  0  0  0  0  0  0  0  0  0  0  0
    5.8721   -2.9222    0.0000 C   0  0  0  0  0  0  0  0  0  0  0  0
    3.0574    1.2802    0.0000 C   0  0  0  0  0  0  0  0  0  0  0  0
    3.2265   -0.3290    0.0000 C   0  0  0  0  0  0  0  0  0  0  0  0
    8.4702   -1.4222    0.0000 C   0  0  2  0  0  0  0  0  0  0  0  0
    4.7787    1.7414    0.0000 C   0  0  0  0  0  0  0  0  0  0  0  0
    7.6042   -1.9222    0.0000 C   0  0  0  0  0  0  0  0  0  0  0  0
    5.0061   -3.4222    0.0000 C   0  0  0  0  0  0  0  0  0  0  0  0
    9.3362   -1.9222    0.0000 C   0  0  0  0  0  0  0  0  0  0  0  0
    4.1401   -2.9222    0.0000 C   0  0  0  0  0  0  0  0  0  0  0  0
    5.0061   -4.4222    0.0000 C   0  0  0  0  0  0  0  0  0  0  0  0
    3.6197    3.0286    0.0000 C   0  0  0  0  0  0  0  0  0  0  0  0
   10.3362   -2.9222    0.0000 C   0  0  0  0  0  0  0  0  0  0  0  0
    9.3362    0.0778    0.0000 C   0  0  0  0  0  0  0  0  0  0  0  0
    3.2740   -3.4222    0.0000 C   0  0  0  0  0  0  0  0  0  0  0  0
    4.1401   -4.9222    0.0000 C   0  0  0  0  0  0  0  0  0  0  0  0
    3.2740   -4.4222    0.0000 C   0  0  0  0  0  0  0  0  0  0  0  0
    9.3362    1.0778    0.0000 C   0  0  0  0  0  0  0  0  0  0  0  0
    3.4118    4.0068    0.0000 C   0  0  0  0  0  0  0  0  0  0  0  0
   10.2022    2.5778    0.0000 C   0  0  0  0  0  0  0  0  0  0  0  0
   11.0683    3.0778    0.0000 C   0  0  0  0  0  0  0  0  0  0  0  0
   11.0683    4.0778    0.0000 C   0  0  0  0  0  0  0  0  0  0  0  0
    9.3362    3.0778    0.0000 C   0  0  0  0  0  0  0  0  0  0  0  0
   11.9622    2.5431    0.0000 C   0  0  0  0  0  0  0  0  0  0  0  0
   10.2022    4.5778    0.0000 C   0  0  0  0  0  0  0  0  0  0  0  0
    9.3362    4.0778    0.0000 C   0  0  0  0  0  0  0  0  0  0  0  0
   11.9622    4.6124    0.0000 C   0  0  0  0  0  0  0  0  0  0  0  0
   12.8683    3.0570    0.0000 C   0  0  0  0  0  0  0  0  0  0  0  0
   12.8683    4.0986    0.0000 C   0  0  0  0  0  0  0  0  0  0  0  0
    6.4091   -2.2322    0.0000 H   0  0  0  0  0  0  0  0  0  0  0  0
    5.0061   -2.0422    0.0000 H   0  0  0  0  0  0  0  0  0  0  0  0
    4.6144    0.8501    0.0000 H   0  0  0  0  0  0  0  0  0  0  0  0
    6.0842   -3.5048    0.0000 H   0  0  0  0  0  0  0  0  0  0  0  0
    6.4827   -2.8146    0.0000 H   0  0  0  0  0  0  0  0  0  0  0  0
    3.2490    1.8699    0.0000 H   0  0  0  0  0  0  0  0  0  0  0  0
    2.4910    1.5324    0.0000 H   0  0  0  0  0  0  0  0  0  0  0  0
    2.7249   -0.6934    0.0000 H   0  0  0  0  0  0  0  0  0  0  0  0
    3.5365   -0.8659    0.0000 H   0  0  0  0  0  0  0  0  0  0  0  0
    6.7382   -0.8022    0.0000 H   0  0  0  0  0  0  0  0  0  0  0  0
    7.9333   -1.1122    0.0000 H   0  0  0  0  0  0  0  0  0  0  0  0
    9.9468   -2.0299    0.0000 H   0  0  0  0  0  0  0  0  0  0  0  0
    9.5483   -1.3396    0.0000 H   0  0  0  0  0  0  0  0  0  0  0  0
    3.6031   -1.6122    0.0000 H   0  0  0  0  0  0  0  0  0  0  0  0
    7.9333   -0.1122    0.0000 H   0  0  0  0  0  0  0  0  0  0  0  0
    5.0315    3.1344    0.0000 H   0  0  0  0  0  0  0  0  0  0  0  0
    4.1401   -2.3022    0.0000 H   0  0  0  0  0  0  0  0  0  0  0  0
    5.5430   -4.7322    0.0000 H   0  0  0  0  0  0  0  0  0  0  0  0
   10.3362   -3.5422    0.0000 H   0  0  0  0  0  0  0  0  0  0  0  0
   10.9562   -2.9222    0.0000 H   0  0  0  0  0  0  0  0  0  0  0  0
   10.3362   -2.3022    0.0000 H   0  0  0  0  0  0  0  0  0  0  0  0
    3.0001    3.0070    0.0000 H   0  0  0  0  0  0  0  0  0  0  0  0
    3.5334    2.4146    0.0000 H   0  0  0  0  0  0  0  0  0  0  0  0
    2.7371   -3.1122    0.0000 H   0  0  0  0  0  0  0  0  0  0  0  0
    4.1401   -5.5422    0.0000 H   0  0  0  0  0  0  0  0  0  0  0  0
    2.7371   -4.7322    0.0000 H   0  0  0  0  0  0  0  0  0  0  0  0
    9.1242    1.6604    0.0000 H   0  0  0  0  0  0  0  0  0  0  0  0
    8.7256    0.9701    0.0000 H   0  0  0  0  0  0  0  0  0  0  0  0
    2.3318    4.9222    0.0000 H   0  0  0  0  0  0  0  0  0  0  0  0
    2.0000    3.9009    0.0000 H   0  0  0  0  0  0  0  0  0  0  0  0
    8.7993    2.7678    0.0000 H   0  0  0  0  0  0  0  0  0  0  0  0
   11.9550    1.9232    0.0000 H   0  0  0  0  0  0  0  0  0  0  0  0
   10.2022    5.1978    0.0000 H   0  0  0  0  0  0  0  0  0  0  0  0
    8.7993    4.3878    0.0000 H   0  0  0  0  0  0  0  0  0  0  0  0
   11.9550    5.2324    0.0000 H   0  0  0  0  0  0  0  0  0  0  0  0
   13.4040    2.7449    0.0000 H   0  0  0  0  0  0  0  0  0  0  0  0
   13.4040    4.4107    0.0000 H   0  0  0  0  0  0  0  0  0  0  0  0
  1 22  1  0  0  0  0
  1 23  1  0  0  0  0
  2  7  2  0  0  0  0
  2  8  2  0  0  0  0
  2 28  1  0  0  0  0
  2 32  1  0  0  0  0
 18  3  1  6  0  0  0
  3 62  1  0  0  0  0
  4 20  2  0  0  0  0
  5 25  2  0  0  0  0
  6 26  2  0  0  0  0
  9 37  1  0  0  0  0
  9 39  1  0  0  0  0
 10 33  2  0  0  0  0
 11 38  2  0  0  0  0
 12 19  1  0  0  0  0
 12 20  1  0  0  0  0
 12 23  1  0  0  0  0
 17 13  1  1  0  0  0
 13 26  1  0  0  0  0
 13 58  1  0  0  0  0
 24 14  1  1  0  0  0
 14 33  1  0  0  0  0
 14 63  1  0  0  0  0
 15 25  1  0  0  0  0
 15 31  1  0  0  0  0
 15 64  1  0  0  0  0
 16 38  1  0  0  0  0
 16 77  1  0  0  0  0
 16 78  1  0  0  0  0
 17 18  1  0  0  0  0
 17 21  1  0  0  0  0
 17 49  1  0  0  0  0
 18 20  1  0  0  0  0
 18 50  1  0  0  0  0
 19 22  1  0  0  0  0
 19 25  1  1  0  0  0
 19 51  1  0  0  0  0
 21 27  1  0  0  0  0
 21 52  1  0  0  0  0
 21 53  1  0  0  0  0
 22 54  1  0  0  0  0
 22 55  1  0  0  0  0
 23 56  1  0  0  0  0
 23 57  1  0  0  0  0
 24 26  1  0  0  0  0
 24 28  1  0  0  0  0
 24 59  1  0  0  0  0
 27 29  2  0  0  0  0
 27 30  1  0  0  0  0
 28 60  1  0  0  0  0
 28 61  1  0  0  0  0
 29 34  1  0  0  0  0
 29 65  1  0  0  0  0
 30 35  2  0  0  0  0
 30 66  1  0  0  0  0
 31 38  1  0  0  0  0
 31 70  1  0  0  0  0
 31 71  1  0  0  0  0
 32 67  1  0  0  0  0
 32 68  1  0  0  0  0
 32 69  1  0  0  0  0
 33 37  1  0  0  0  0
 34 36  2  0  0  0  0
 34 72  1  0  0  0  0
 35 36  1  0  0  0  0
 35 73  1  0  0  0  0
 36 74  1  0  0  0  0
 37 75  1  0  0  0  0
 37 76  1  0  0  0  0
 39 40  1  0  0  0  0
 39 42  2  0  0  0  0
 40 41  1  0  0  0  0
 40 43  2  0  0  0  0
 41 44  1  0  0  0  0
 41 46  2  0  0  0  0
 42 45  1  0  0  0  0
 42 79  1  0  0  0  0
 43 47  1  0  0  0  0
 43 80  1  0  0  0  0
 44 45  2  0  0  0  0
 44 81  1  0  0  0  0
 45 82  1  0  0  0  0
 46 48  1  0  0  0  0
 46 83  1  0  0  0  0
 47 48  2  0  0  0  0
 47 84  1  0  0  0  0
 48 85  1  0  0  0  0
M  END
> <PUBCHEM_COMPOUND_CID>
501848
> <PUBCHEM_COMPOUND_CANONICALIZED>
1
> <PUBCHEM_CACTVS_COMPLEXITY>
1260
> <PUBCHEM_CACTVS_HBOND_ACCEPTOR>
10
> <PUBCHEM_CACTVS_HBOND_DONOR>
5
> <PUBCHEM_CACTVS_ROTATABLE_BOND>
15
> <PUBCHEM_CACTVS_SUBSKEYS>
AAADcfB/vABgAAAAAAAAAAAAAAAAAWAAAAAwYMAAAAAAAADBVAAAHgQQCAAADDzl2AayBsPABgqIAiFSEHJCCABgIBAIiIHOCIgOdjqk8T+XeCCk1hGYqAeYyLCOgAABAAAYAAAAAAIAADAAAAAAAAAAAA==
> <PUBCHEM_IUPAC_OPENEYE_NAME>
(4R)-N-(2-amino-2-oxo-ethyl)-3-[(2S,3S)-2-hydroxy-3-[[(2R)-3-methylsulfonyl-2-[[2-(1-naphthyloxy)acetyl]amino]propanoyl]amino]-4-phenyl-butanoyl]thiazolidine-4-carboxamide
> <PUBCHEM_IUPAC_CAS_NAME>
(4R)-N-(2-amino-2-oxoethyl)-3-[(2S,3S)-2-hydroxy-3-[[(2R)-3-methylsulfonyl-2-[[2-(1-naphthalenyloxy)-1-oxoethyl]amino]-1-oxopropyl]amino]-1-oxo-4-phenylbutyl]-4-thiazolidinecarboxamide
> <PUBCHEM_IUPAC_NAME_MARKUP>
(4<I>R</I>)-<I>N</I>-(2-amino-2-oxoethyl)-3-[(2<I>S</I>,3<I>S</I>)-2-hydroxy-3-[[(2<I>R</I>)-3-methylsulfonyl-2-[(2-naphthalen-1-yloxyacetyl)amino]propanoyl]amino]-4-phenylbutanoyl]-1,3-thiazolidine-4-carboxamide
> <PUBCHEM_IUPAC_NAME>
(4R)-N-(2-amino-2-oxoethyl)-3-[(2S,3S)-2-hydroxy-3-[[(2R)-3-methylsulfonyl-2-[(2-naphthalen-1-yloxyacetyl)amino]propanoyl]amino]-4-phenylbutanoyl]-1,3-thiazolidine-4-carboxamide
> <PUBCHEM_IUPAC_SYSTEMATIC_NAME>
(4R)-N-(2-azanyl-2-oxidanylidene-ethyl)-3-[(2S,3S)-3-[[(2R)-3-methylsulfonyl-2-(2-naphthalen-1-yloxyethanoylamino)propanoyl]amino]-2-oxidanyl-4-phenyl-butanoyl]-1,3-thiazolidine-4-carboxamide
> <PUBCHEM_IUPAC_TRADITIONAL_NAME>
(4R)-N-(2-amino-2-keto-ethyl)-3-[(2S,3S)-2-hydroxy-3-[[(2R)-3-mesyl-2-[[2-(1-naphthoxy)acetyl]amino]propanoyl]amino]-4-phenyl-butanoyl]thiazolidine-4-carboxamide
> <PUBCHEM_IUPAC_INCHI>
InChI=1S/C32H37N5O9S2/c1-48(44,45)18-24(35-28(39)16-46-26-13-7-11-21-10-5-6-12-22(21)26)30(41)36-23(14-20-8-3-2-4-9-20)29(40)32(43)37-19-47-17-25(37)31(42)34-15-27(33)38/h2-13,23-25,29,40H,14-19H2,1H3,(H2,33,38)(H,34,42)(H,35,39)(H,36,41)/t23-,24-,25-,29-/m0/s1
> <PUBCHEM_IUPAC_INCHIKEY>
QFMDRPCVWCGQOU-MGQBIDJDSA-N
> <PUBCHEM_XLOGP3_AA>
1
> <PUBCHEM_EXACT_MASS>
699.20327012
> <PUBCHEM_MOLECULAR_FORMULA>
C32H37N5O9S2
> <PUBCHEM_MOLECULAR_WEIGHT>
699.8
> <PUBCHEM_OPENEYE_CAN_SMILES>
CS(=O)(=O)CC(C(=O)NC(CC1=CC=CC=C1)C(C(=O)N2CSCC2C(=O)NCC(=O)N)O)NC(=O)COC3=CC=CC4=CC=CC=C43
> <PUBCHEM_OPENEYE_ISO_SMILES>
CS(=O)(=O)C[C@@H](C(=O)N[C@@H](CC1=CC=CC=C1)[C@@H](C(=O)N2CSC[C@H]2C(=O)NCC(=O)N)O)NC(=O)COC3=CC=CC4=CC=CC=C43
> <PUBCHEM_CACTVS_TPSA>
248
> <PUBCHEM_MONOISOTOPIC_WEIGHT>
699.20327012
> <PUBCHEM_TOTAL_CHARGE>
0
> <PUBCHEM_HEAVY_ATOM_COUNT>
48
> <PUBCHEM_ATOM_DEF_STEREO_COUNT>
4
> <PUBCHEM_ATOM_UDEF_STEREO_COUNT>
0
> <PUBCHEM_BOND_DEF_STEREO_COUNT>
0
> <PUBCHEM_BOND_UDEF_STEREO_COUNT>
0
> <PUBCHEM_ISOTOPIC_ATOM_COUNT>
0
> <PUBCHEM_COMPONENT_COUNT>
1
> <PUBCHEM_CACTVS_TAUTO_COUNT>
-1
> <PUBCHEM_COORDINATE_TYPE>
1
5
255
> <PUBCHEM_BONDANNOTATIONS>
17  13  5
24  14  5
19  25  5
27  29  8
27  30  8
29  34  8
18  3  6
30  35  8
34  36  8
35  36  8
39  40  8
39  42  8
40  41  8
40  43  8
41  44  8
41  46  8
42  45  8
43  47  8
44  45  8
46  48  8
47  48  8
$$$$
