501818
  -OEChem-10302200282D
 85 88  0     1  0  0  0  0  0999 V2000
    9.8622   -1.5270    0.0000 O   0  0  0  0  0  0  0  0  0  0  0  0
    8.1301    0.4730    0.0000 O   0  0  0  0  0  0  0  0  0  0  0  0
    8.2725    1.8276    0.0000 O   0  0  0  0  0  0  0  0  0  0  0  0
    6.3981   -2.5270    0.0000 O   0  0  0  0  0  0  0  0  0  0  0  0
    5.5321   -3.0270    0.0000 O   0  0  0  0  0  0  0  0  0  0  0  0
    3.8000   -0.0270    0.0000 O   0  0  0  0  0  0  0  0  0  0  0  0
    9.8622    0.4730    0.0000 N   0  0  0  0  0  0  0  0  0  0  0  0
    9.4315    3.1148    0.0000 N   0  0  0  0  0  0  0  0  0  0  0  0
    7.2641   -1.0270    0.0000 N   0  0  0  0  0  0  0  0  0  0  0  0
    5.5321   -0.0270    0.0000 N   0  0  0  0  0  0  0  0  0  0  0  0
    3.8000   -3.0270    0.0000 N   0  0  0  0  0  0  0  0  0  0  0  0
    5.5321    1.9730    0.0000 N   0  0  0  0  0  0  0  0  0  0  0  0
    9.9667    1.4675    0.0000 C   0  0  1  0  0  0  0  0  0  0  0  0
   10.9449    1.6754    0.0000 C   0  0  0  0  0  0  0  0  0  0  0  0
   11.4449    0.8094    0.0000 C   0  0  0  0  0  0  0  0  0  0  0  0
   10.7757    0.0662    0.0000 C   0  0  0  0  0  0  0  0  0  0  0  0
    8.9962   -0.0270    0.0000 C   0  0  0  0  0  0  0  0  0  0  0  0
    9.2236    2.1366    0.0000 C   0  0  0  0  0  0  0  0  0  0  0  0
    8.9962   -1.0270    0.0000 C   0  0  2  0  0  0  0  0  0  0  0  0
    8.1301   -1.5270    0.0000 C   0  0  2  0  0  0  0  0  0  0  0  0
    8.6883    3.7839    0.0000 C   0  0  0  0  0  0  0  0  0  0  0  0
    8.1301   -2.5270    0.0000 C   0  0  0  0  0  0  0  0  0  0  0  0
    7.9452    4.4530    0.0000 C   0  0  0  0  0  0  0  0  0  0  0  0
    9.3575    4.5270    0.0000 C   0  0  0  0  0  0  0  0  0  0  0  0
    8.0192    3.0408    0.0000 C   0  0  0  0  0  0  0  0  0  0  0  0
    8.9962   -3.0270    0.0000 C   0  0  0  0  0  0  0  0  0  0  0  0
    6.3981   -1.5270    0.0000 C   0  0  0  0  0  0  0  0  0  0  0  0
    5.5321   -1.0270    0.0000 C   0  0  2  0  0  0  0  0  0  0  0  0
    8.9962   -4.0270    0.0000 C   0  0  0  0  0  0  0  0  0  0  0  0
    9.8622   -2.5270    0.0000 C   0  0  0  0  0  0  0  0  0  0  0  0
    4.6660   -1.5270    0.0000 C   0  0  0  0  0  0  0  0  0  0  0  0
    9.8622   -4.5270    0.0000 C   0  0  0  0  0  0  0  0  0  0  0  0
   10.7282   -3.0270    0.0000 C   0  0  0  0  0  0  0  0  0  0  0  0
   10.7282   -4.0270    0.0000 C   0  0  0  0  0  0  0  0  0  0  0  0
    4.6660   -2.5270    0.0000 C   0  0  0  0  0  0  0  0  0  0  0  0
    4.6660    0.4730    0.0000 C   0  0  0  0  0  0  0  0  0  0  0  0
    4.6660    1.4730    0.0000 C   0  0  0  0  0  0  0  0  0  0  0  0
    3.8000    1.9730    0.0000 C   0  0  0  0  0  0  0  0  0  0  0  0
    3.8000    2.9730    0.0000 C   0  0  0  0  0  0  0  0  0  0  0  0
    2.9061    1.4383    0.0000 C   0  0  0  0  0  0  0  0  0  0  0  0
    4.6660    3.4730    0.0000 C   0  0  0  0  0  0  0  0  0  0  0  0
    5.5321    2.9730    0.0000 C   0  0  0  0  0  0  0  0  0  0  0  0
    2.9061    3.5076    0.0000 C   0  0  0  0  0  0  0  0  0  0  0  0
    2.0000    1.9522    0.0000 C   0  0  0  0  0  0  0  0  0  0  0  0
    2.0000    2.9938    0.0000 C   0  0  0  0  0  0  0  0  0  0  0  0
    9.3879    1.2453    0.0000 H   0  0  0  0  0  0  0  0  0  0  0  0
   11.5113    1.9276    0.0000 H   0  0  0  0  0  0  0  0  0  0  0  0
   10.7533    2.2650    0.0000 H   0  0  0  0  0  0  0  0  0  0  0  0
   11.8597    0.3486    0.0000 H   0  0  0  0  0  0  0  0  0  0  0  0
   11.9465    1.1738    0.0000 H   0  0  0  0  0  0  0  0  0  0  0  0
   10.4657   -0.4707    0.0000 H   0  0  0  0  0  0  0  0  0  0  0  0
   11.2773   -0.2982    0.0000 H   0  0  0  0  0  0  0  0  0  0  0  0
    9.5331   -0.7170    0.0000 H   0  0  0  0  0  0  0  0  0  0  0  0
    7.5932   -1.8370    0.0000 H   0  0  0  0  0  0  0  0  0  0  0  0
   10.0211    3.3064    0.0000 H   0  0  0  0  0  0  0  0  0  0  0  0
    7.5196   -2.4194    0.0000 H   0  0  0  0  0  0  0  0  0  0  0  0
    7.9181   -3.1096    0.0000 H   0  0  0  0  0  0  0  0  0  0  0  0
    7.2641   -0.4070    0.0000 H   0  0  0  0  0  0  0  0  0  0  0  0
    8.3600    4.9138    0.0000 H   0  0  0  0  0  0  0  0  0  0  0  0
    7.4844    4.8679    0.0000 H   0  0  0  0  0  0  0  0  0  0  0  0
    7.5303    3.9923    0.0000 H   0  0  0  0  0  0  0  0  0  0  0  0
    9.8182    4.1122    0.0000 H   0  0  0  0  0  0  0  0  0  0  0  0
    9.7723    4.9878    0.0000 H   0  0  0  0  0  0  0  0  0  0  0  0
    8.8967    4.9419    0.0000 H   0  0  0  0  0  0  0  0  0  0  0  0
    7.5585    3.4556    0.0000 H   0  0  0  0  0  0  0  0  0  0  0  0
    7.6044    2.5800    0.0000 H   0  0  0  0  0  0  0  0  0  0  0  0
    8.4800    2.6259    0.0000 H   0  0  0  0  0  0  0  0  0  0  0  0
   10.3991   -1.2170    0.0000 H   0  0  0  0  0  0  0  0  0  0  0  0
    6.0690   -0.7170    0.0000 H   0  0  0  0  0  0  0  0  0  0  0  0
    8.4592   -4.3370    0.0000 H   0  0  0  0  0  0  0  0  0  0  0  0
    9.8622   -1.9070    0.0000 H   0  0  0  0  0  0  0  0  0  0  0  0
    4.4540   -0.9444    0.0000 H   0  0  0  0  0  0  0  0  0  0  0  0
    4.0555   -1.6347    0.0000 H   0  0  0  0  0  0  0  0  0  0  0  0
    6.0690    0.2830    0.0000 H   0  0  0  0  0  0  0  0  0  0  0  0
    9.8622   -5.1470    0.0000 H   0  0  0  0  0  0  0  0  0  0  0  0
   11.2651   -2.7170    0.0000 H   0  0  0  0  0  0  0  0  0  0  0  0
   11.2651   -4.3370    0.0000 H   0  0  0  0  0  0  0  0  0  0  0  0
    3.8000   -3.6470    0.0000 H   0  0  0  0  0  0  0  0  0  0  0  0
    3.2631   -2.7170    0.0000 H   0  0  0  0  0  0  0  0  0  0  0  0
    2.9132    0.8183    0.0000 H   0  0  0  0  0  0  0  0  0  0  0  0
    4.6660    4.0930    0.0000 H   0  0  0  0  0  0  0  0  0  0  0  0
    6.0690    3.2830    0.0000 H   0  0  0  0  0  0  0  0  0  0  0  0
    2.9132    4.1276    0.0000 H   0  0  0  0  0  0  0  0  0  0  0  0
    1.4643    1.6401    0.0000 H   0  0  0  0  0  0  0  0  0  0  0  0
    1.4643    3.3058    0.0000 H   0  0  0  0  0  0  0  0  0  0  0  0
 19  1  1  1  0  0  0
  1 68  1  0  0  0  0
  2 17  2  0  0  0  0
  3 18  2  0  0  0  0
  4 27  2  0  0  0  0
  5 35  2  0  0  0  0
  6 36  2  0  0  0  0
  7 13  1  0  0  0  0
  7 16  1  0  0  0  0
  7 17  1  0  0  0  0
  8 18  1  0  0  0  0
  8 21  1  0  0  0  0
  8 55  1  0  0  0  0
 20  9  1  6  0  0  0
  9 27  1  0  0  0  0
  9 58  1  0  0  0  0
 28 10  1  6  0  0  0
 10 36  1  0  0  0  0
 10 74  1  0  0  0  0
 11 35  1  0  0  0  0
 11 78  1  0  0  0  0
 11 79  1  0  0  0  0
 12 37  2  0  0  0  0
 12 42  1  0  0  0  0
 13 14  1  0  0  0  0
 13 18  1  6  0  0  0
 13 46  1  0  0  0  0
 14 15  1  0  0  0  0
 14 47  1  0  0  0  0
 14 48  1  0  0  0  0
 15 16  1  0  0  0  0
 15 49  1  0  0  0  0
 15 50  1  0  0  0  0
 16 51  1  0  0  0  0
 16 52  1  0  0  0  0
 17 19  1  0  0  0  0
 19 20  1  0  0  0  0
 19 53  1  0  0  0  0
 20 22  1  0  0  0  0
 20 54  1  0  0  0  0
 21 23  1  0  0  0  0
 21 24  1  0  0  0  0
 21 25  1  0  0  0  0
 22 26  1  0  0  0  0
 22 56  1  0  0  0  0
 22 57  1  0  0  0  0
 23 59  1  0  0  0  0
 23 60  1  0  0  0  0
 23 61  1  0  0  0  0
 24 62  1  0  0  0  0
 24 63  1  0  0  0  0
 24 64  1  0  0  0  0
 25 65  1  0  0  0  0
 25 66  1  0  0  0  0
 25 67  1  0  0  0  0
 26 29  2  0  0  0  0
 26 30  1  0  0  0  0
 27 28  1  0  0  0  0
 28 31  1  0  0  0  0
 28 69  1  0  0  0  0
 29 32  1  0  0  0  0
 29 70  1  0  0  0  0
 30 33  2  0  0  0  0
 30 71  1  0  0  0  0
 31 35  1  0  0  0  0
 31 72  1  0  0  0  0
 31 73  1  0  0  0  0
 32 34  2  0  0  0  0
 32 75  1  0  0  0  0
 33 34  1  0  0  0  0
 33 76  1  0  0  0  0
 34 77  1  0  0  0  0
 36 37  1  0  0  0  0
 37 38  1  0  0  0  0
 38 39  1  0  0  0  0
 38 40  2  0  0  0  0
 39 41  1  0  0  0  0
 39 43  2  0  0  0  0
 40 44  1  0  0  0  0
 40 80  1  0  0  0  0
 41 42  2  0  0  0  0
 41 81  1  0  0  0  0
 42 82  1  0  0  0  0
 43 45  1  0  0  0  0
 43 83  1  0  0  0  0
 44 45  2  0  0  0  0
 44 84  1  0  0  0  0
 45 85  1  0  0  0  0
M  END
> <PUBCHEM_COMPOUND_CID>
501818
> <PUBCHEM_COMPOUND_CANONICALIZED>
1
> <PUBCHEM_CACTVS_COMPLEXITY>
1070
> <PUBCHEM_CACTVS_HBOND_ACCEPTOR>
7
> <PUBCHEM_CACTVS_HBOND_DONOR>
5
> <PUBCHEM_CACTVS_ROTATABLE_BOND>
12
> <PUBCHEM_CACTVS_SUBSKEYS>
AAADcfB/uAAAAAAAAAAAAAAAAAAAAWAAAAA8YIAAAAAAAACx9AAAHgAQCAAADLzhngY+gNPIEgCoAzV3VAKCgCA3AiAI2KH4ZNgKcPrA1bGUYQhklgDYyQedyaCOgAAAAAAQAAAAAAAAACAAAAAAAAAAAA==
> <PUBCHEM_IUPAC_OPENEYE_NAME>
(2S)-N-[(1S,2S)-1-benzyl-3-[(2S)-2-(tert-butylcarbamoyl)pyrrolidin-1-yl]-2-hydroxy-3-oxo-propyl]-2-(isoquinoline-1-carbonylamino)butanediamide
> <PUBCHEM_IUPAC_CAS_NAME>
(2S)-N-[(2S,3S)-4-[(2S)-2-[(tert-butylamino)-oxomethyl]-1-pyrrolidinyl]-3-hydroxy-4-oxo-1-phenylbutan-2-yl]-2-[[1-isoquinolinyl(oxo)methyl]amino]butanediamide
> <PUBCHEM_IUPAC_NAME_MARKUP>
(2<I>S</I>)-<I>N</I>-[(2<I>S</I>,3<I>S</I>)-4-[(2<I>S</I>)-2-(<I>tert</I>-butylcarbamoyl)pyrrolidin-1-yl]-3-hydroxy-4-oxo-1-phenylbutan-2-yl]-2-(isoquinoline-1-carbonylamino)butanediamide
> <PUBCHEM_IUPAC_NAME>
(2S)-N-[(2S,3S)-4-[(2S)-2-(tert-butylcarbamoyl)pyrrolidin-1-yl]-3-hydroxy-4-oxo-1-phenylbutan-2-yl]-2-(isoquinoline-1-carbonylamino)butanediamide
> <PUBCHEM_IUPAC_SYSTEMATIC_NAME>
(2S)-N-[(2S,3S)-4-[(2S)-2-(tert-butylcarbamoyl)pyrrolidin-1-yl]-3-oxidanyl-4-oxidanylidene-1-phenyl-butan-2-yl]-2-(isoquinolin-1-ylcarbonylamino)butanediamide
> <PUBCHEM_IUPAC_TRADITIONAL_NAME>
(2S)-N-[(1S,2S)-1-benzyl-3-[(2S)-2-(tert-butylcarbamoyl)pyrrolidino]-2-hydroxy-3-keto-propyl]-2-(isoquinoline-1-carbonylamino)succinamide
> <PUBCHEM_IUPAC_INCHI>
InChI=1S/C33H40N6O6/c1-33(2,3)38-30(43)25-14-9-17-39(25)32(45)28(41)23(18-20-10-5-4-6-11-20)36-29(42)24(19-26(34)40)37-31(44)27-22-13-8-7-12-21(22)15-16-35-27/h4-8,10-13,15-16,23-25,28,41H,9,14,17-19H2,1-3H3,(H2,34,40)(H,36,42)(H,37,44)(H,38,43)/t23-,24-,25-,28-/m0/s1
> <PUBCHEM_IUPAC_INCHIKEY>
SYRAMKVLIUAXEG-MGDCHWCSSA-N
> <PUBCHEM_XLOGP3_AA>
1.7
> <PUBCHEM_EXACT_MASS>
616.30093302
> <PUBCHEM_MOLECULAR_FORMULA>
C33H40N6O6
> <PUBCHEM_MOLECULAR_WEIGHT>
616.7
> <PUBCHEM_OPENEYE_CAN_SMILES>
CC(C)(C)NC(=O)C1CCCN1C(=O)C(C(CC2=CC=CC=C2)NC(=O)C(CC(=O)N)NC(=O)C3=NC=CC4=CC=CC=C43)O
> <PUBCHEM_OPENEYE_ISO_SMILES>
CC(C)(C)NC(=O)[C@@H]1CCCN1C(=O)[C@H]([C@H](CC2=CC=CC=C2)NC(=O)[C@H](CC(=O)N)NC(=O)C3=NC=CC4=CC=CC=C43)O
> <PUBCHEM_CACTVS_TPSA>
184
> <PUBCHEM_MONOISOTOPIC_WEIGHT>
616.30093302
> <PUBCHEM_TOTAL_CHARGE>
0
> <PUBCHEM_HEAVY_ATOM_COUNT>
45
> <PUBCHEM_ATOM_DEF_STEREO_COUNT>
4
> <PUBCHEM_ATOM_UDEF_STEREO_COUNT>
0
> <PUBCHEM_BOND_DEF_STEREO_COUNT>
0
> <PUBCHEM_BOND_UDEF_STEREO_COUNT>
0
> <PUBCHEM_ISOTOPIC_ATOM_COUNT>
0
> <PUBCHEM_COMPONENT_COUNT>
1
> <PUBCHEM_CACTVS_TAUTO_COUNT>
-1
> <PUBCHEM_COORDINATE_TYPE>
1
5
255
> <PUBCHEM_BONDANNOTATIONS>
19  1  5
28  10  6
12  37  8
12  42  8
13  18  6
26  29  8
26  30  8
29  32  8
30  33  8
32  34  8
33  34  8
37  38  8
38  39  8
38  40  8
39  41  8
39  43  8
40  44  8
41  42  8
43  45  8
44  45  8
20  9  6
$$$$
