501841
  -OEChem-10302200282D
 92 95  0     1  0  0  0  0  0999 V2000
    7.3635    0.2091    0.0000 O   0  0  0  0  0  0  0  0  0  0  0  0
    9.1715    2.1407    0.0000 O   0  0  0  0  0  0  0  0  0  0  0  0
   10.5336    2.1407    0.0000 O   0  0  0  0  0  0  0  0  0  0  0  0
    6.3690    0.1045    0.0000 O   0  0  0  0  0  0  0  0  0  0  0  0
    4.5610   -1.8271    0.0000 O   0  0  0  0  0  0  0  0  0  0  0  0
    2.7976    0.6000    0.0000 O   0  0  0  0  0  0  0  0  0  0  0  0
    5.9623   -0.8090    0.0000 O   0  0  0  0  0  0  0  0  0  0  0  0
    9.3526    0.4181    0.0000 N   0  0  0  0  0  0  0  0  0  0  0  0
   11.9349    1.1226    0.0000 N   0  0  0  0  0  0  0  0  0  0  0  0
    6.1880    1.8271    0.0000 N   0  0  0  0  0  0  0  0  0  0  0  0
    4.3800   -0.1045    0.0000 N   0  0  0  0  0  0  0  0  0  0  0  0
    2.6166    2.3225    0.0000 N   0  0  0  0  0  0  0  0  0  0  0  0
   10.3526    0.4181    0.0000 C   0  0  1  0  0  0  0  0  0  0  0  0
    9.0436   -0.5329    0.0000 C   0  0  0  0  0  0  0  0  0  0  0  0
    7.7703    1.1226    0.0000 C   0  0  1  0  0  0  0  0  0  0  0  0
    7.1825    1.9316    0.0000 C   0  0  2  0  0  0  0  0  0  0  0  0
    9.8526   -1.1207    0.0000 C   0  0  0  0  0  0  0  0  0  0  0  0
   10.6616   -0.5329    0.0000 C   0  0  0  0  0  0  0  0  0  0  0  0
    8.7648    1.2271    0.0000 C   0  0  0  0  0  0  0  0  0  0  0  0
   10.9404    1.2271    0.0000 C   0  0  0  0  0  0  0  0  0  0  0  0
   12.5227    1.9316    0.0000 C   0  0  0  0  0  0  0  0  0  0  0  0
    7.5892    2.8452    0.0000 C   0  0  0  0  0  0  0  0  0  0  0  0
    9.8526   -2.1207    0.0000 C   0  0  0  0  0  0  0  0  0  0  0  0
    7.0014    3.6542    0.0000 C   0  0  0  0  0  0  0  0  0  0  0  0
   13.1104    2.7406    0.0000 C   0  0  0  0  0  0  0  0  0  0  0  0
   13.3317    1.3438    0.0000 C   0  0  0  0  0  0  0  0  0  0  0  0
   11.7136    2.5194    0.0000 C   0  0  0  0  0  0  0  0  0  0  0  0
    5.7812    0.9135    0.0000 C   0  0  0  0  0  0  0  0  0  0  0  0
    4.7867    0.8090    0.0000 C   0  0  2  0  0  0  0  0  0  0  0  0
    8.9865   -2.6207    0.0000 C   0  0  0  0  0  0  0  0  0  0  0  0
   10.7186   -2.6207    0.0000 C   0  0  0  0  0  0  0  0  0  0  0  0
    6.0069    3.5496    0.0000 C   0  0  0  0  0  0  0  0  0  0  0  0
    7.4082    4.5677    0.0000 C   0  0  0  0  0  0  0  0  0  0  0  0
    4.1989    1.6180    0.0000 C   0  0  0  0  0  0  0  0  0  0  0  0
    8.9865   -3.6207    0.0000 C   0  0  0  0  0  0  0  0  0  0  0  0
   10.7186   -3.6207    0.0000 C   0  0  0  0  0  0  0  0  0  0  0  0
    9.8526   -4.1207    0.0000 C   0  0  0  0  0  0  0  0  0  0  0  0
    5.4191    4.3587    0.0000 C   0  0  0  0  0  0  0  0  0  0  0  0
    6.8204    5.3767    0.0000 C   0  0  0  0  0  0  0  0  0  0  0  0
    5.8259    5.2722    0.0000 C   0  0  0  0  0  0  0  0  0  0  0  0
    3.2044    1.5135    0.0000 C   0  0  0  0  0  0  0  0  0  0  0  0
    4.9677   -0.9135    0.0000 C   0  0  0  0  0  0  0  0  0  0  0  0
    5.1488   -2.6361    0.0000 C   0  0  0  0  0  0  0  0  0  0  0  0
    4.7421   -3.5496    0.0000 C   0  0  0  0  0  0  0  0  0  0  0  0
    3.7475   -3.6542    0.0000 C   0  0  0  0  0  0  0  0  0  0  0  0
    5.3298   -4.3587    0.0000 C   0  0  0  0  0  0  0  0  0  0  0  0
    3.3408   -4.5677    0.0000 C   0  0  0  0  0  0  0  0  0  0  0  0
    4.9231   -5.2722    0.0000 C   0  0  0  0  0  0  0  0  0  0  0  0
    3.9286   -5.3767    0.0000 C   0  0  0  0  0  0  0  0  0  0  0  0
   10.0711    0.9705    0.0000 H   0  0  0  0  0  0  0  0  0  0  0  0
    8.4772   -0.2808    0.0000 H   0  0  0  0  0  0  0  0  0  0  0  0
    8.7335   -1.0699    0.0000 H   0  0  0  0  0  0  0  0  0  0  0  0
    8.1347    0.6210    0.0000 H   0  0  0  0  0  0  0  0  0  0  0  0
    6.9303    1.3652    0.0000 H   0  0  0  0  0  0  0  0  0  0  0  0
   11.2512   -0.7245    0.0000 H   0  0  0  0  0  0  0  0  0  0  0  0
    8.1032    2.4985    0.0000 H   0  0  0  0  0  0  0  0  0  0  0  0
    8.0199    3.2912    0.0000 H   0  0  0  0  0  0  0  0  0  0  0  0
   12.1871    0.5562    0.0000 H   0  0  0  0  0  0  0  0  0  0  0  0
    5.8235    2.3287    0.0000 H   0  0  0  0  0  0  0  0  0  0  0  0
   13.6120    2.3762    0.0000 H   0  0  0  0  0  0  0  0  0  0  0  0
   13.4749    3.2422    0.0000 H   0  0  0  0  0  0  0  0  0  0  0  0
   12.6089    3.1051    0.0000 H   0  0  0  0  0  0  0  0  0  0  0  0
   12.9673    0.8422    0.0000 H   0  0  0  0  0  0  0  0  0  0  0  0
   13.8333    0.9794    0.0000 H   0  0  0  0  0  0  0  0  0  0  0  0
   13.6961    1.8454    0.0000 H   0  0  0  0  0  0  0  0  0  0  0  0
   12.0781    3.0210    0.0000 H   0  0  0  0  0  0  0  0  0  0  0  0
   11.2121    2.8838    0.0000 H   0  0  0  0  0  0  0  0  0  0  0  0
   11.3492    2.0178    0.0000 H   0  0  0  0  0  0  0  0  0  0  0  0
    7.7280   -0.2925    0.0000 H   0  0  0  0  0  0  0  0  0  0  0  0
    5.1511    0.3074    0.0000 H   0  0  0  0  0  0  0  0  0  0  0  0
    8.4496   -2.3107    0.0000 H   0  0  0  0  0  0  0  0  0  0  0  0
   11.2555   -2.3107    0.0000 H   0  0  0  0  0  0  0  0  0  0  0  0
    5.7547    2.9833    0.0000 H   0  0  0  0  0  0  0  0  0  0  0  0
    8.0248    4.6325    0.0000 H   0  0  0  0  0  0  0  0  0  0  0  0
    4.7562    1.8898    0.0000 H   0  0  0  0  0  0  0  0  0  0  0  0
    4.0280    2.2140    0.0000 H   0  0  0  0  0  0  0  0  0  0  0  0
    8.4496   -3.9307    0.0000 H   0  0  0  0  0  0  0  0  0  0  0  0
   11.2555   -3.9307    0.0000 H   0  0  0  0  0  0  0  0  0  0  0  0
    3.7634   -0.1693    0.0000 H   0  0  0  0  0  0  0  0  0  0  0  0
    9.8526   -4.7407    0.0000 H   0  0  0  0  0  0  0  0  0  0  0  0
    4.8025    4.2939    0.0000 H   0  0  0  0  0  0  0  0  0  0  0  0
    7.0726    5.9431    0.0000 H   0  0  0  0  0  0  0  0  0  0  0  0
    5.4614    5.7738    0.0000 H   0  0  0  0  0  0  0  0  0  0  0  0
    2.0000    2.2577    0.0000 H   0  0  0  0  0  0  0  0  0  0  0  0
    2.8688    2.8889    0.0000 H   0  0  0  0  0  0  0  0  0  0  0  0
    5.6628   -2.9828    0.0000 H   0  0  0  0  0  0  0  0  0  0  0  0
    5.5795   -2.1901    0.0000 H   0  0  0  0  0  0  0  0  0  0  0  0
    3.3831   -3.1526    0.0000 H   0  0  0  0  0  0  0  0  0  0  0  0
    5.9464   -4.2939    0.0000 H   0  0  0  0  0  0  0  0  0  0  0  0
    2.7242   -4.6325    0.0000 H   0  0  0  0  0  0  0  0  0  0  0  0
    5.2875   -5.7738    0.0000 H   0  0  0  0  0  0  0  0  0  0  0  0
    3.6764   -5.9431    0.0000 H   0  0  0  0  0  0  0  0  0  0  0  0
 15  1  1  1  0  0  0
  1 69  1  0  0  0  0
  2 19  2  0  0  0  0
  3 20  2  0  0  0  0
  4 28  2  0  0  0  0
  5 42  1  0  0  0  0
  5 43  1  0  0  0  0
  6 41  2  0  0  0  0
  7 42  2  0  0  0  0
  8 13  1  0  0  0  0
  8 14  1  0  0  0  0
  8 19  1  0  0  0  0
  9 20  1  0  0  0  0
  9 21  1  0  0  0  0
  9 58  1  0  0  0  0
 16 10  1  1  0  0  0
 10 28  1  0  0  0  0
 10 59  1  0  0  0  0
 29 11  1  1  0  0  0
 11 42  1  0  0  0  0
 11 79  1  0  0  0  0
 12 41  1  0  0  0  0
 12 84  1  0  0  0  0
 12 85  1  0  0  0  0
 13 18  1  0  0  0  0
 13 20  1  6  0  0  0
 13 50  1  0  0  0  0
 14 17  1  0  0  0  0
 14 51  1  0  0  0  0
 14 52  1  0  0  0  0
 15 16  1  0  0  0  0
 15 19  1  0  0  0  0
 15 53  1  0  0  0  0
 16 22  1  0  0  0  0
 16 54  1  0  0  0  0
 17 18  2  0  0  0  0
 17 23  1  0  0  0  0
 18 55  1  0  0  0  0
 21 25  1  0  0  0  0
 21 26  1  0  0  0  0
 21 27  1  0  0  0  0
 22 24  1  0  0  0  0
 22 56  1  0  0  0  0
 22 57  1  0  0  0  0
 23 30  2  0  0  0  0
 23 31  1  0  0  0  0
 24 32  2  0  0  0  0
 24 33  1  0  0  0  0
 25 60  1  0  0  0  0
 25 61  1  0  0  0  0
 25 62  1  0  0  0  0
 26 63  1  0  0  0  0
 26 64  1  0  0  0  0
 26 65  1  0  0  0  0
 27 66  1  0  0  0  0
 27 67  1  0  0  0  0
 27 68  1  0  0  0  0
 28 29  1  0  0  0  0
 29 34  1  0  0  0  0
 29 70  1  0  0  0  0
 30 35  1  0  0  0  0
 30 71  1  0  0  0  0
 31 36  2  0  0  0  0
 31 72  1  0  0  0  0
 32 38  1  0  0  0  0
 32 73  1  0  0  0  0
 33 39  2  0  0  0  0
 33 74  1  0  0  0  0
 34 41  1  0  0  0  0
 34 75  1  0  0  0  0
 34 76  1  0  0  0  0
 35 37  2  0  0  0  0
 35 77  1  0  0  0  0
 36 37  1  0  0  0  0
 36 78  1  0  0  0  0
 37 80  1  0  0  0  0
 38 40  2  0  0  0  0
 38 81  1  0  0  0  0
 39 40  1  0  0  0  0
 39 82  1  0  0  0  0
 40 83  1  0  0  0  0
 43 44  1  0  0  0  0
 43 86  1  0  0  0  0
 43 87  1  0  0  0  0
 44 45  2  0  0  0  0
 44 46  1  0  0  0  0
 45 47  1  0  0  0  0
 45 88  1  0  0  0  0
 46 48  2  0  0  0  0
 46 89  1  0  0  0  0
 47 49  2  0  0  0  0
 47 90  1  0  0  0  0
 48 49  1  0  0  0  0
 48 91  1  0  0  0  0
 49 92  1  0  0  0  0
M  END
> <PUBCHEM_COMPOUND_CID>
501841
> <PUBCHEM_COMPOUND_CANONICALIZED>
1
> <PUBCHEM_CACTVS_COMPLEXITY>
1180
> <PUBCHEM_CACTVS_HBOND_ACCEPTOR>
7
> <PUBCHEM_CACTVS_HBOND_DONOR>
5
> <PUBCHEM_CACTVS_ROTATABLE_BOND>
15
> <PUBCHEM_CACTVS_SUBSKEYS>
AAADcfB/uAAAAAAAAAAAAAAAAAAAAQAAAAAwYMAAAAAAAAABUAAAHgAQCAAADLzhmAYyCIPABgCIAiFSGAKCAAAgAAAIiIHICIkKdjqA8TmccAAk1gGYqAedyKCOAAAAAAAAAAAAAAAAAAAAAAAAAAAAAA==
> <PUBCHEM_IUPAC_OPENEYE_NAME>
benzyl N-[(1S)-3-amino-1-[[(1S,2S)-1-benzyl-3-[(2S)-2-(tert-butylcarbamoyl)-4-phenyl-2,5-dihydropyrrol-1-yl]-2-hydroxy-3-oxo-propyl]carbamoyl]-3-oxo-propyl]carbamate
> <PUBCHEM_IUPAC_CAS_NAME>
N-[(2S)-4-amino-1-[[(2S,3S)-4-[(2S)-2-[(tert-butylamino)-oxomethyl]-4-phenyl-2,5-dihydropyrrol-1-yl]-3-hydroxy-4-oxo-1-phenylbutan-2-yl]amino]-1,4-dioxobutan-2-yl]carbamic acid (phenylmethyl) ester
> <PUBCHEM_IUPAC_NAME_MARKUP>
benzyl <I>N</I>-[(2<I>S</I>)-4-amino-1-[[(2<I>S</I>,3<I>S</I>)-4-[(2<I>S</I>)-2-(<I>tert</I>-butylcarbamoyl)-4-phenyl-2,5-dihydropyrrol-1-yl]-3-hydroxy-4-oxo-1-phenylbutan-2-yl]amino]-1,4-dioxobutan-2-yl]carbamate
> <PUBCHEM_IUPAC_NAME>
benzyl N-[(2S)-4-amino-1-[[(2S,3S)-4-[(2S)-2-(tert-butylcarbamoyl)-4-phenyl-2,5-dihydropyrrol-1-yl]-3-hydroxy-4-oxo-1-phenylbutan-2-yl]amino]-1,4-dioxobutan-2-yl]carbamate
> <PUBCHEM_IUPAC_SYSTEMATIC_NAME>
(phenylmethyl) N-[(2S)-4-azanyl-1-[[(2S,3S)-4-[(2S)-2-(tert-butylcarbamoyl)-4-phenyl-2,5-dihydropyrrol-1-yl]-3-oxidanyl-4-oxidanylidene-1-phenyl-butan-2-yl]amino]-1,4-bis(oxidanylidene)butan-2-yl]carbamate
> <PUBCHEM_IUPAC_TRADITIONAL_NAME>
N-[(1S)-3-amino-1-[[(1S,2S)-1-benzyl-3-[(2S)-2-(tert-butylcarbamoyl)-4-phenyl-3-pyrrolin-1-yl]-2-hydroxy-3-keto-propyl]carbamoyl]-3-keto-propyl]carbamic acid benzyl ester
> <PUBCHEM_IUPAC_INCHI>
InChI=1S/C37H43N5O7/c1-37(2,3)41-34(46)30-20-27(26-17-11-6-12-18-26)22-42(30)35(47)32(44)28(19-24-13-7-4-8-14-24)39-33(45)29(21-31(38)43)40-36(48)49-23-25-15-9-5-10-16-25/h4-18,20,28-30,32,44H,19,21-23H2,1-3H3,(H2,38,43)(H,39,45)(H,40,48)(H,41,46)/t28-,29-,30-,32-/m0/s1
> <PUBCHEM_IUPAC_INCHIKEY>
OBLQXJXJIXZIOB-GKCWTWCASA-N
> <PUBCHEM_XLOGP3_AA>
2.5
> <PUBCHEM_EXACT_MASS>
669.31624873
> <PUBCHEM_MOLECULAR_FORMULA>
C37H43N5O7
> <PUBCHEM_MOLECULAR_WEIGHT>
669.8
> <PUBCHEM_OPENEYE_CAN_SMILES>
CC(C)(C)NC(=O)C1C=C(CN1C(=O)C(C(CC2=CC=CC=C2)NC(=O)C(CC(=O)N)NC(=O)OCC3=CC=CC=C3)O)C4=CC=CC=C4
> <PUBCHEM_OPENEYE_ISO_SMILES>
CC(C)(C)NC(=O)[C@@H]1C=C(CN1C(=O)[C@H]([C@H](CC2=CC=CC=C2)NC(=O)[C@H](CC(=O)N)NC(=O)OCC3=CC=CC=C3)O)C4=CC=CC=C4
> <PUBCHEM_CACTVS_TPSA>
180
> <PUBCHEM_MONOISOTOPIC_WEIGHT>
669.31624873
> <PUBCHEM_TOTAL_CHARGE>
0
> <PUBCHEM_HEAVY_ATOM_COUNT>
49
> <PUBCHEM_ATOM_DEF_STEREO_COUNT>
4
> <PUBCHEM_ATOM_UDEF_STEREO_COUNT>
0
> <PUBCHEM_BOND_DEF_STEREO_COUNT>
0
> <PUBCHEM_BOND_UDEF_STEREO_COUNT>
0
> <PUBCHEM_ISOTOPIC_ATOM_COUNT>
0
> <PUBCHEM_COMPONENT_COUNT>
1
> <PUBCHEM_CACTVS_TAUTO_COUNT>
-1
> <PUBCHEM_COORDINATE_TYPE>
1
5
255
> <PUBCHEM_BONDANNOTATIONS>
15  1  5
16  10  5
29  11  5
13  20  6
23  30  8
23  31  8
24  32  8
24  33  8
30  35  8
31  36  8
32  38  8
33  39  8
35  37  8
36  37  8
38  40  8
39  40  8
44  45  8
44  46  8
45  47  8
46  48  8
47  49  8
48  49  8
$$$$
