501814
  -OEChem-10302200282D
 94 97  0     1  0  0  0  0  0999 V2000
    3.0926    0.5374    0.0000 S   0  0  0  0  0  0  0  0  0  0  0  0
    9.8715   -2.7990    0.0000 S   0  0  0  0  0  0  0  0  0  0  0  0
    4.6753   -1.7990    0.0000 O   0  0  0  0  0  0  0  0  0  0  0  0
    6.4074    0.2010    0.0000 O   0  0  0  0  0  0  0  0  0  0  0  0
    6.2650    1.5556    0.0000 O   0  0  0  0  0  0  0  0  0  0  0  0
    2.4608    2.7917    0.0000 O   0  0  0  0  0  0  0  0  0  0  0  0
    8.1394   -2.7990    0.0000 O   0  0  0  0  0  0  0  0  0  0  0  0
    9.8715   -3.7990    0.0000 O   0  0  0  0  0  0  0  0  0  0  0  0
    8.8715   -2.7990    0.0000 O   0  0  0  0  0  0  0  0  0  0  0  0
   10.7375    1.7010    0.0000 O   0  0  0  0  0  0  0  0  0  0  0  0
   10.7375   -0.2990    0.0000 O   0  0  0  0  0  0  0  0  0  0  0  0
    4.6753    0.2010    0.0000 N   0  0  0  0  0  0  0  0  0  0  0  0
    5.1060    2.8428    0.0000 N   0  0  0  0  0  0  0  0  0  0  0  0
    7.2734   -1.2990    0.0000 N   0  0  0  0  0  0  0  0  0  0  0  0
    9.0054   -0.2990    0.0000 N   0  0  0  0  0  0  0  0  0  0  0  0
    4.5708    1.1955    0.0000 C   0  0  1  0  0  0  0  0  0  0  0  0
    6.4074   -1.7990    0.0000 C   0  0  2  0  0  0  0  0  0  0  0  0
    5.5413   -1.2990    0.0000 C   0  0  1  0  0  0  0  0  0  0  0  0
    3.5926    1.4034    0.0000 C   0  0  0  0  0  0  0  0  0  0  0  0
    3.7618   -0.2058    0.0000 C   0  0  0  0  0  0  0  0  0  0  0  0
    5.5413   -0.2990    0.0000 C   0  0  0  0  0  0  0  0  0  0  0  0
    4.1550    3.1518    0.0000 C   0  0  3  0  0  0  0  0  0  0  0  0
    5.3139    1.8646    0.0000 C   0  0  0  0  0  0  0  0  0  0  0  0
    6.4074   -2.7990    0.0000 C   0  0  0  0  0  0  0  0  0  0  0  0
    3.9470    4.1299    0.0000 C   0  0  0  0  0  0  0  0  0  0  0  0
    3.4118    2.4826    0.0000 C   0  0  0  0  0  0  0  0  0  0  0  0
    9.0054   -1.2990    0.0000 C   0  0  2  0  0  0  0  0  0  0  0  0
    8.1394   -1.7990    0.0000 C   0  0  0  0  0  0  0  0  0  0  0  0
    5.5413   -3.2990    0.0000 C   0  0  0  0  0  0  0  0  0  0  0  0
    2.9960    4.4389    0.0000 C   0  0  0  0  0  0  0  0  0  0  0  0
    4.6902    4.7990    0.0000 C   0  0  0  0  0  0  0  0  0  0  0  0
    9.8715   -1.7990    0.0000 C   0  0  0  0  0  0  0  0  0  0  0  0
    4.6753   -2.7990    0.0000 C   0  0  0  0  0  0  0  0  0  0  0  0
    5.5413   -4.2990    0.0000 C   0  0  0  0  0  0  0  0  0  0  0  0
   10.8715   -2.7990    0.0000 C   0  0  0  0  0  0  0  0  0  0  0  0
    3.8093   -3.2990    0.0000 C   0  0  0  0  0  0  0  0  0  0  0  0
    4.6753   -4.7990    0.0000 C   0  0  0  0  0  0  0  0  0  0  0  0
    9.8715    0.2010    0.0000 C   0  0  0  0  0  0  0  0  0  0  0  0
    3.8093   -4.2990    0.0000 C   0  0  0  0  0  0  0  0  0  0  0  0
    9.8715    1.2010    0.0000 C   0  0  0  0  0  0  0  0  0  0  0  0
   10.7375    2.7010    0.0000 C   0  0  0  0  0  0  0  0  0  0  0  0
   11.6035    3.2010    0.0000 C   0  0  0  0  0  0  0  0  0  0  0  0
   11.6035    4.2010    0.0000 C   0  0  0  0  0  0  0  0  0  0  0  0
    9.8715    3.2010    0.0000 C   0  0  0  0  0  0  0  0  0  0  0  0
   12.4974    2.6663    0.0000 C   0  0  0  0  0  0  0  0  0  0  0  0
   10.7375    4.7010    0.0000 C   0  0  0  0  0  0  0  0  0  0  0  0
    9.8715    4.2010    0.0000 C   0  0  0  0  0  0  0  0  0  0  0  0
   12.4974    4.7356    0.0000 C   0  0  0  0  0  0  0  0  0  0  0  0
   13.4035    3.1801    0.0000 C   0  0  0  0  0  0  0  0  0  0  0  0
   13.4035    4.2218    0.0000 C   0  0  0  0  0  0  0  0  0  0  0  0
    5.1496    0.9733    0.0000 H   0  0  0  0  0  0  0  0  0  0  0  0
    6.4074   -1.1790    0.0000 H   0  0  0  0  0  0  0  0  0  0  0  0
    5.5413   -1.9190    0.0000 H   0  0  0  0  0  0  0  0  0  0  0  0
    3.7842    1.9930    0.0000 H   0  0  0  0  0  0  0  0  0  0  0  0
    3.0262    1.6556    0.0000 H   0  0  0  0  0  0  0  0  0  0  0  0
    3.2602   -0.5702    0.0000 H   0  0  0  0  0  0  0  0  0  0  0  0
    4.0718   -0.7427    0.0000 H   0  0  0  0  0  0  0  0  0  0  0  0
    4.2839    2.5453    0.0000 H   0  0  0  0  0  0  0  0  0  0  0  0
    6.6194   -3.3817    0.0000 H   0  0  0  0  0  0  0  0  0  0  0  0
    7.0179   -2.6914    0.0000 H   0  0  0  0  0  0  0  0  0  0  0  0
    3.8181    4.7364    0.0000 H   0  0  0  0  0  0  0  0  0  0  0  0
    5.5668    3.2576    0.0000 H   0  0  0  0  0  0  0  0  0  0  0  0
    7.2734   -0.6790    0.0000 H   0  0  0  0  0  0  0  0  0  0  0  0
    3.1207    1.9352    0.0000 H   0  0  0  0  0  0  0  0  0  0  0  0
    3.9004    2.1009    0.0000 H   0  0  0  0  0  0  0  0  0  0  0  0
    9.5424   -0.9890    0.0000 H   0  0  0  0  0  0  0  0  0  0  0  0
    3.1876    5.0286    0.0000 H   0  0  0  0  0  0  0  0  0  0  0  0
    2.4063    4.6305    0.0000 H   0  0  0  0  0  0  0  0  0  0  0  0
    2.8044    3.8493    0.0000 H   0  0  0  0  0  0  0  0  0  0  0  0
    5.1050    4.3383    0.0000 H   0  0  0  0  0  0  0  0  0  0  0  0
    5.1509    5.2139    0.0000 H   0  0  0  0  0  0  0  0  0  0  0  0
    4.2753    5.2598    0.0000 H   0  0  0  0  0  0  0  0  0  0  0  0
   10.4820   -1.9067    0.0000 H   0  0  0  0  0  0  0  0  0  0  0  0
   10.0835   -1.2164    0.0000 H   0  0  0  0  0  0  0  0  0  0  0  0
    4.1384   -1.4890    0.0000 H   0  0  0  0  0  0  0  0  0  0  0  0
    8.4685    0.0110    0.0000 H   0  0  0  0  0  0  0  0  0  0  0  0
    4.6753   -2.1790    0.0000 H   0  0  0  0  0  0  0  0  0  0  0  0
    6.0783   -4.6090    0.0000 H   0  0  0  0  0  0  0  0  0  0  0  0
    2.0000    2.3768    0.0000 H   0  0  0  0  0  0  0  0  0  0  0  0
   10.8715   -3.4190    0.0000 H   0  0  0  0  0  0  0  0  0  0  0  0
   11.4915   -2.7990    0.0000 H   0  0  0  0  0  0  0  0  0  0  0  0
   10.8715   -2.1790    0.0000 H   0  0  0  0  0  0  0  0  0  0  0  0
    3.2723   -2.9891    0.0000 H   0  0  0  0  0  0  0  0  0  0  0  0
    4.6753   -5.4191    0.0000 H   0  0  0  0  0  0  0  0  0  0  0  0
    3.2723   -4.6090    0.0000 H   0  0  0  0  0  0  0  0  0  0  0  0
    9.6594    1.7836    0.0000 H   0  0  0  0  0  0  0  0  0  0  0  0
    9.2609    1.0933    0.0000 H   0  0  0  0  0  0  0  0  0  0  0  0
    9.3345    2.8910    0.0000 H   0  0  0  0  0  0  0  0  0  0  0  0
   12.4903    2.0463    0.0000 H   0  0  0  0  0  0  0  0  0  0  0  0
   10.7375    5.3210    0.0000 H   0  0  0  0  0  0  0  0  0  0  0  0
    9.3345    4.5110    0.0000 H   0  0  0  0  0  0  0  0  0  0  0  0
   12.4903    5.3556    0.0000 H   0  0  0  0  0  0  0  0  0  0  0  0
   13.9393    2.8681    0.0000 H   0  0  0  0  0  0  0  0  0  0  0  0
   13.9393    4.5338    0.0000 H   0  0  0  0  0  0  0  0  0  0  0  0
  1 19  1  0  0  0  0
  1 20  1  0  0  0  0
  2  8  2  0  0  0  0
  2  9  2  0  0  0  0
  2 32  1  0  0  0  0
  2 35  1  0  0  0  0
 18  3  1  6  0  0  0
  3 75  1  0  0  0  0
  4 21  2  0  0  0  0
  5 23  2  0  0  0  0
  6 26  1  0  0  0  0
  6 79  1  0  0  0  0
  7 28  2  0  0  0  0
 10 40  1  0  0  0  0
 10 41  1  0  0  0  0
 11 38  2  0  0  0  0
 12 16  1  0  0  0  0
 12 20  1  0  0  0  0
 12 21  1  0  0  0  0
 13 22  1  0  0  0  0
 13 23  1  0  0  0  0
 13 62  1  0  0  0  0
 17 14  1  1  0  0  0
 14 28  1  0  0  0  0
 14 63  1  0  0  0  0
 27 15  1  1  0  0  0
 15 38  1  0  0  0  0
 15 76  1  0  0  0  0
 16 19  1  0  0  0  0
 16 23  1  1  0  0  0
 16 51  1  0  0  0  0
 17 18  1  0  0  0  0
 17 24  1  0  0  0  0
 17 52  1  0  0  0  0
 18 21  1  0  0  0  0
 18 53  1  0  0  0  0
 19 54  1  0  0  0  0
 19 55  1  0  0  0  0
 20 56  1  0  0  0  0
 20 57  1  0  0  0  0
 22 25  1  0  0  0  0
 22 26  1  0  0  0  0
 22 58  1  0  0  0  0
 24 29  1  0  0  0  0
 24 59  1  0  0  0  0
 24 60  1  0  0  0  0
 25 30  1  0  0  0  0
 25 31  1  0  0  0  0
 25 61  1  0  0  0  0
 26 64  1  0  0  0  0
 26 65  1  0  0  0  0
 27 28  1  0  0  0  0
 27 32  1  0  0  0  0
 27 66  1  0  0  0  0
 29 33  2  0  0  0  0
 29 34  1  0  0  0  0
 30 67  1  0  0  0  0
 30 68  1  0  0  0  0
 30 69  1  0  0  0  0
 31 70  1  0  0  0  0
 31 71  1  0  0  0  0
 31 72  1  0  0  0  0
 32 73  1  0  0  0  0
 32 74  1  0  0  0  0
 33 36  1  0  0  0  0
 33 77  1  0  0  0  0
 34 37  2  0  0  0  0
 34 78  1  0  0  0  0
 35 80  1  0  0  0  0
 35 81  1  0  0  0  0
 35 82  1  0  0  0  0
 36 39  2  0  0  0  0
 36 83  1  0  0  0  0
 37 39  1  0  0  0  0
 37 84  1  0  0  0  0
 38 40  1  0  0  0  0
 39 85  1  0  0  0  0
 40 86  1  0  0  0  0
 40 87  1  0  0  0  0
 41 42  1  0  0  0  0
 41 44  2  0  0  0  0
 42 43  1  0  0  0  0
 42 45  2  0  0  0  0
 43 46  1  0  0  0  0
 43 48  2  0  0  0  0
 44 47  1  0  0  0  0
 44 88  1  0  0  0  0
 45 49  1  0  0  0  0
 45 89  1  0  0  0  0
 46 47  2  0  0  0  0
 46 90  1  0  0  0  0
 47 91  1  0  0  0  0
 48 50  1  0  0  0  0
 48 92  1  0  0  0  0
 49 50  2  0  0  0  0
 49 93  1  0  0  0  0
 50 94  1  0  0  0  0
M  END
> <PUBCHEM_COMPOUND_CID>
501814
> <PUBCHEM_COMPOUND_CANONICALIZED>
1
> <PUBCHEM_CACTVS_COMPLEXITY>
1260
> <PUBCHEM_CACTVS_HBOND_ACCEPTOR>
10
> <PUBCHEM_CACTVS_HBOND_DONOR>
5
> <PUBCHEM_CACTVS_ROTATABLE_BOND>
16
> <PUBCHEM_CACTVS_SUBSKEYS>
AAADcfB/vABgAAAAAAAAAAAAAAAAAWAAAAAwYMAAAAAAAADBVAAAHgQQCAAADTzl2AayBsPABgqIAiFSEHJCCABgIBAIiIHOCIgOdjqk8T+XeCCk1hGYqAeYyLCOgAABAAAYAAAAAAIAADAAAAAAAAAAAA==
> <PUBCHEM_IUPAC_OPENEYE_NAME>
(4R)-N-[1-(hydroxymethyl)-2-methyl-propyl]-3-[(2S,3S)-2-hydroxy-3-[[(2R)-3-methylsulfonyl-2-[[2-(1-naphthyloxy)acetyl]amino]propanoyl]amino]-4-phenyl-butanoyl]thiazolidine-4-carboxamide
> <PUBCHEM_IUPAC_CAS_NAME>
(4R)-N-(1-hydroxy-3-methylbutan-2-yl)-3-[(2S,3S)-2-hydroxy-3-[[(2R)-3-methylsulfonyl-2-[[2-(1-naphthalenyloxy)-1-oxoethyl]amino]-1-oxopropyl]amino]-1-oxo-4-phenylbutyl]-4-thiazolidinecarboxamide
> <PUBCHEM_IUPAC_NAME_MARKUP>
(4<I>R</I>)-<I>N</I>-(1-hydroxy-3-methylbutan-2-yl)-3-[(2<I>S</I>,3<I>S</I>)-2-hydroxy-3-[[(2<I>R</I>)-3-methylsulfonyl-2-[(2-naphthalen-1-yloxyacetyl)amino]propanoyl]amino]-4-phenylbutanoyl]-1,3-thiazolidine-4-carboxamide
> <PUBCHEM_IUPAC_NAME>
(4R)-N-(1-hydroxy-3-methylbutan-2-yl)-3-[(2S,3S)-2-hydroxy-3-[[(2R)-3-methylsulfonyl-2-[(2-naphthalen-1-yloxyacetyl)amino]propanoyl]amino]-4-phenylbutanoyl]-1,3-thiazolidine-4-carboxamide
> <PUBCHEM_IUPAC_SYSTEMATIC_NAME>
(4R)-N-(3-methyl-1-oxidanyl-butan-2-yl)-3-[(2S,3S)-3-[[(2R)-3-methylsulfonyl-2-(2-naphthalen-1-yloxyethanoylamino)propanoyl]amino]-2-oxidanyl-4-phenyl-butanoyl]-1,3-thiazolidine-4-carboxamide
> <PUBCHEM_IUPAC_TRADITIONAL_NAME>
(4R)-3-[(2S,3S)-2-hydroxy-3-[[(2R)-3-mesyl-2-[[2-(1-naphthoxy)acetyl]amino]propanoyl]amino]-4-phenyl-butanoyl]-N-(2-methyl-1-methylol-propyl)thiazolidine-4-carboxamide
> <PUBCHEM_IUPAC_INCHI>
InChI=1S/C35H44N4O9S2/c1-22(2)27(17-40)38-34(44)29-19-49-21-39(29)35(45)32(42)26(16-23-10-5-4-6-11-23)37-33(43)28(20-50(3,46)47)36-31(41)18-48-30-15-9-13-24-12-7-8-14-25(24)30/h4-15,22,26-29,32,40,42H,16-21H2,1-3H3,(H,36,41)(H,37,43)(H,38,44)/t26-,27?,28-,29-,32-/m0/s1
> <PUBCHEM_IUPAC_INCHIKEY>
HMKISKUDJKCDPE-CZTRDVQCSA-N
> <PUBCHEM_XLOGP3_AA>
2.8
> <PUBCHEM_EXACT_MASS>
728.25497134
> <PUBCHEM_MOLECULAR_FORMULA>
C35H44N4O9S2
> <PUBCHEM_MOLECULAR_WEIGHT>
728.9
> <PUBCHEM_OPENEYE_CAN_SMILES>
CC(C)C(CO)NC(=O)C1CSCN1C(=O)C(C(CC2=CC=CC=C2)NC(=O)C(CS(=O)(=O)C)NC(=O)COC3=CC=CC4=CC=CC=C43)O
> <PUBCHEM_OPENEYE_ISO_SMILES>
CC(C)C(CO)NC(=O)[C@@H]1CSCN1C(=O)[C@H]([C@H](CC2=CC=CC=C2)NC(=O)[C@H](CS(=O)(=O)C)NC(=O)COC3=CC=CC4=CC=CC=C43)O
> <PUBCHEM_CACTVS_TPSA>
225
> <PUBCHEM_MONOISOTOPIC_WEIGHT>
728.25497134
> <PUBCHEM_TOTAL_CHARGE>
0
> <PUBCHEM_HEAVY_ATOM_COUNT>
50
> <PUBCHEM_ATOM_DEF_STEREO_COUNT>
4
> <PUBCHEM_ATOM_UDEF_STEREO_COUNT>
1
> <PUBCHEM_BOND_DEF_STEREO_COUNT>
0
> <PUBCHEM_BOND_UDEF_STEREO_COUNT>
0
> <PUBCHEM_ISOTOPIC_ATOM_COUNT>
0
> <PUBCHEM_COMPONENT_COUNT>
1
> <PUBCHEM_CACTVS_TAUTO_COUNT>
-1
> <PUBCHEM_COORDINATE_TYPE>
1
5
255
> <PUBCHEM_BONDANNOTATIONS>
17  14  5
27  15  5
16  23  5
22  26  3
29  33  8
29  34  8
18  3  6
33  36  8
34  37  8
36  39  8
37  39  8
41  42  8
41  44  8
42  43  8
42  45  8
43  46  8
43  48  8
44  47  8
45  49  8
46  47  8
48  50  8
49  50  8
$$$$
