501821
  -OEChem-10302200282D
 90 93  0     1  0  0  0  0  0999 V2000
   12.2429   -0.8855    0.0000 S   0  0  0  0  0  0  0  0  0  0  0  0
    5.4641    2.4509    0.0000 S   0  0  0  0  0  0  0  0  0  0  0  0
   10.6603    1.4509    0.0000 O   0  0  0  0  0  0  0  0  0  0  0  0
    8.9282   -0.5491    0.0000 O   0  0  0  0  0  0  0  0  0  0  0  0
    9.0706   -1.9037    0.0000 O   0  0  0  0  0  0  0  0  0  0  0  0
    7.1962    2.4509    0.0000 O   0  0  0  0  0  0  0  0  0  0  0  0
    4.4641    2.4509    0.0000 O   0  0  0  0  0  0  0  0  0  0  0  0
    6.4641    2.4509    0.0000 O   0  0  0  0  0  0  0  0  0  0  0  0
    4.5981   -0.0491    0.0000 O   0  0  0  0  0  0  0  0  0  0  0  0
   10.6603   -0.5491    0.0000 N   0  0  0  0  0  0  0  0  0  0  0  0
    8.0622    0.9509    0.0000 N   0  0  0  0  0  0  0  0  0  0  0  0
   10.2295   -3.1909    0.0000 N   0  0  0  0  0  0  0  0  0  0  0  0
    6.3301   -0.0491    0.0000 N   0  0  0  0  0  0  0  0  0  0  0  0
   10.7648   -1.5436    0.0000 C   0  0  1  0  0  0  0  0  0  0  0  0
    8.9282    1.4509    0.0000 C   0  0  2  0  0  0  0  0  0  0  0  0
    9.7942    0.9509    0.0000 C   0  0  1  0  0  0  0  0  0  0  0  0
   11.7429   -1.7515    0.0000 C   0  0  0  0  0  0  0  0  0  0  0  0
    9.7942   -0.0491    0.0000 C   0  0  0  0  0  0  0  0  0  0  0  0
   11.5738   -0.1423    0.0000 C   0  0  0  0  0  0  0  0  0  0  0  0
    8.9282    2.4509    0.0000 C   0  0  0  0  0  0  0  0  0  0  0  0
   10.0216   -2.2127    0.0000 C   0  0  0  0  0  0  0  0  0  0  0  0
   11.1806   -3.4999    0.0000 C   0  0  0  0  0  0  0  0  0  0  0  0
    6.3301    0.9509    0.0000 C   0  0  2  0  0  0  0  0  0  0  0  0
    7.1962    1.4509    0.0000 C   0  0  0  0  0  0  0  0  0  0  0  0
    9.7942    2.9509    0.0000 C   0  0  0  0  0  0  0  0  0  0  0  0
    5.4641    1.4509    0.0000 C   0  0  0  0  0  0  0  0  0  0  0  0
   12.1317   -3.8089    0.0000 C   0  0  0  0  0  0  0  0  0  0  0  0
   10.8716   -4.4509    0.0000 C   0  0  0  0  0  0  0  0  0  0  0  0
   11.4896   -2.5488    0.0000 C   0  0  0  0  0  0  0  0  0  0  0  0
   10.6603    2.4509    0.0000 C   0  0  0  0  0  0  0  0  0  0  0  0
    9.7942    3.9509    0.0000 C   0  0  0  0  0  0  0  0  0  0  0  0
    5.4641    3.4509    0.0000 C   0  0  0  0  0  0  0  0  0  0  0  0
    5.4641   -0.5491    0.0000 C   0  0  0  0  0  0  0  0  0  0  0  0
   11.5263    2.9509    0.0000 C   0  0  0  0  0  0  0  0  0  0  0  0
   10.6603    4.4509    0.0000 C   0  0  0  0  0  0  0  0  0  0  0  0
   11.5263    3.9509    0.0000 C   0  0  0  0  0  0  0  0  0  0  0  0
    5.4641   -1.5491    0.0000 C   0  0  0  0  0  0  0  0  0  0  0  0
    4.5981   -2.0491    0.0000 C   0  0  0  0  0  0  0  0  0  0  0  0
    6.3301   -2.0491    0.0000 C   0  0  0  0  0  0  0  0  0  0  0  0
    3.7320   -1.5491    0.0000 C   0  0  0  0  0  0  0  0  0  0  0  0
    4.5981   -3.0491    0.0000 C   0  0  0  0  0  0  0  0  0  0  0  0
    6.3301   -3.0491    0.0000 C   0  0  0  0  0  0  0  0  0  0  0  0
    5.4641   -3.5491    0.0000 C   0  0  0  0  0  0  0  0  0  0  0  0
    3.7320   -0.5491    0.0000 C   0  0  0  0  0  0  0  0  0  0  0  0
    2.8660   -2.0491    0.0000 C   0  0  0  0  0  0  0  0  0  0  0  0
    2.8660   -0.0491    0.0000 C   0  0  0  0  0  0  0  0  0  0  0  0
    2.0000   -1.5491    0.0000 C   0  0  0  0  0  0  0  0  0  0  0  0
    2.0000   -0.5491    0.0000 C   0  0  0  0  0  0  0  0  0  0  0  0
   10.1860   -1.3214    0.0000 H   0  0  0  0  0  0  0  0  0  0  0  0
    8.9282    0.8309    0.0000 H   0  0  0  0  0  0  0  0  0  0  0  0
    9.7942    1.5709    0.0000 H   0  0  0  0  0  0  0  0  0  0  0  0
   11.5513   -2.3412    0.0000 H   0  0  0  0  0  0  0  0  0  0  0  0
   12.3093   -2.0037    0.0000 H   0  0  0  0  0  0  0  0  0  0  0  0
   12.0754    0.2221    0.0000 H   0  0  0  0  0  0  0  0  0  0  0  0
   11.2638    0.3946    0.0000 H   0  0  0  0  0  0  0  0  0  0  0  0
    8.7162    3.0336    0.0000 H   0  0  0  0  0  0  0  0  0  0  0  0
    8.3176    2.3433    0.0000 H   0  0  0  0  0  0  0  0  0  0  0  0
    8.0622    0.3309    0.0000 H   0  0  0  0  0  0  0  0  0  0  0  0
    9.7688   -3.6057    0.0000 H   0  0  0  0  0  0  0  0  0  0  0  0
    6.8671    0.6409    0.0000 H   0  0  0  0  0  0  0  0  0  0  0  0
    4.8535    1.5586    0.0000 H   0  0  0  0  0  0  0  0  0  0  0  0
    5.2520    0.8683    0.0000 H   0  0  0  0  0  0  0  0  0  0  0  0
   11.9401   -4.3986    0.0000 H   0  0  0  0  0  0  0  0  0  0  0  0
   12.7213   -4.0005    0.0000 H   0  0  0  0  0  0  0  0  0  0  0  0
   12.3233   -3.2192    0.0000 H   0  0  0  0  0  0  0  0  0  0  0  0
   10.2819   -4.2594    0.0000 H   0  0  0  0  0  0  0  0  0  0  0  0
   10.6800   -5.0406    0.0000 H   0  0  0  0  0  0  0  0  0  0  0  0
   11.4612   -4.6425    0.0000 H   0  0  0  0  0  0  0  0  0  0  0  0
   12.0793   -2.7404    0.0000 H   0  0  0  0  0  0  0  0  0  0  0  0
   11.6812   -1.9592    0.0000 H   0  0  0  0  0  0  0  0  0  0  0  0
   10.9000   -2.3572    0.0000 H   0  0  0  0  0  0  0  0  0  0  0  0
   11.1972    1.1409    0.0000 H   0  0  0  0  0  0  0  0  0  0  0  0
    6.8671   -0.3591    0.0000 H   0  0  0  0  0  0  0  0  0  0  0  0
   10.6603    1.8309    0.0000 H   0  0  0  0  0  0  0  0  0  0  0  0
    9.2573    4.2609    0.0000 H   0  0  0  0  0  0  0  0  0  0  0  0
    6.0841    3.4509    0.0000 H   0  0  0  0  0  0  0  0  0  0  0  0
    5.4641    4.0709    0.0000 H   0  0  0  0  0  0  0  0  0  0  0  0
    4.8441    3.4509    0.0000 H   0  0  0  0  0  0  0  0  0  0  0  0
   12.0632    2.6409    0.0000 H   0  0  0  0  0  0  0  0  0  0  0  0
   10.6603    5.0709    0.0000 H   0  0  0  0  0  0  0  0  0  0  0  0
   12.0632    4.2609    0.0000 H   0  0  0  0  0  0  0  0  0  0  0  0
    6.8671   -1.7391    0.0000 H   0  0  0  0  0  0  0  0  0  0  0  0
    4.0611   -3.3591    0.0000 H   0  0  0  0  0  0  0  0  0  0  0  0
    6.8671   -3.3591    0.0000 H   0  0  0  0  0  0  0  0  0  0  0  0
    5.4641   -4.1691    0.0000 H   0  0  0  0  0  0  0  0  0  0  0  0
    4.2690   -0.2391    0.0000 H   0  0  0  0  0  0  0  0  0  0  0  0
    2.8660   -2.6691    0.0000 H   0  0  0  0  0  0  0  0  0  0  0  0
    2.8660    0.5709    0.0000 H   0  0  0  0  0  0  0  0  0  0  0  0
    1.4631   -1.8591    0.0000 H   0  0  0  0  0  0  0  0  0  0  0  0
    1.4631   -0.2391    0.0000 H   0  0  0  0  0  0  0  0  0  0  0  0
  1 17  1  0  0  0  0
  1 19  1  0  0  0  0
  2  7  2  0  0  0  0
  2  8  2  0  0  0  0
  2 26  1  0  0  0  0
  2 32  1  0  0  0  0
 16  3  1  6  0  0  0
  3 72  1  0  0  0  0
  4 18  2  0  0  0  0
  5 21  2  0  0  0  0
  6 24  2  0  0  0  0
  9 33  2  0  0  0  0
 10 14  1  0  0  0  0
 10 18  1  0  0  0  0
 10 19  1  0  0  0  0
 15 11  1  1  0  0  0
 11 24  1  0  0  0  0
 11 58  1  0  0  0  0
 12 21  1  0  0  0  0
 12 22  1  0  0  0  0
 12 59  1  0  0  0  0
 23 13  1  1  0  0  0
 13 33  1  0  0  0  0
 13 73  1  0  0  0  0
 14 17  1  0  0  0  0
 14 21  1  1  0  0  0
 14 49  1  0  0  0  0
 15 16  1  0  0  0  0
 15 20  1  0  0  0  0
 15 50  1  0  0  0  0
 16 18  1  0  0  0  0
 16 51  1  0  0  0  0
 17 52  1  0  0  0  0
 17 53  1  0  0  0  0
 19 54  1  0  0  0  0
 19 55  1  0  0  0  0
 20 25  1  0  0  0  0
 20 56  1  0  0  0  0
 20 57  1  0  0  0  0
 22 27  1  0  0  0  0
 22 28  1  0  0  0  0
 22 29  1  0  0  0  0
 23 24  1  0  0  0  0
 23 26  1  0  0  0  0
 23 60  1  0  0  0  0
 25 30  2  0  0  0  0
 25 31  1  0  0  0  0
 26 61  1  0  0  0  0
 26 62  1  0  0  0  0
 27 63  1  0  0  0  0
 27 64  1  0  0  0  0
 27 65  1  0  0  0  0
 28 66  1  0  0  0  0
 28 67  1  0  0  0  0
 28 68  1  0  0  0  0
 29 69  1  0  0  0  0
 29 70  1  0  0  0  0
 29 71  1  0  0  0  0
 30 34  1  0  0  0  0
 30 74  1  0  0  0  0
 31 35  2  0  0  0  0
 31 75  1  0  0  0  0
 32 76  1  0  0  0  0
 32 77  1  0  0  0  0
 32 78  1  0  0  0  0
 33 37  1  0  0  0  0
 34 36  2  0  0  0  0
 34 79  1  0  0  0  0
 35 36  1  0  0  0  0
 35 80  1  0  0  0  0
 36 81  1  0  0  0  0
 37 38  1  0  0  0  0
 37 39  2  0  0  0  0
 38 40  1  0  0  0  0
 38 41  2  0  0  0  0
 39 42  1  0  0  0  0
 39 82  1  0  0  0  0
 40 44  2  0  0  0  0
 40 45  1  0  0  0  0
 41 43  1  0  0  0  0
 41 83  1  0  0  0  0
 42 43  2  0  0  0  0
 42 84  1  0  0  0  0
 43 85  1  0  0  0  0
 44 46  1  0  0  0  0
 44 86  1  0  0  0  0
 45 47  2  0  0  0  0
 45 87  1  0  0  0  0
 46 48  2  0  0  0  0
 46 88  1  0  0  0  0
 47 48  1  0  0  0  0
 47 89  1  0  0  0  0
 48 90  1  0  0  0  0
M  END
> <PUBCHEM_COMPOUND_CID>
501821
> <PUBCHEM_COMPOUND_CANONICALIZED>
1
> <PUBCHEM_CACTVS_COMPLEXITY>
1220
> <PUBCHEM_CACTVS_HBOND_ACCEPTOR>
8
> <PUBCHEM_CACTVS_HBOND_DONOR>
4
> <PUBCHEM_CACTVS_ROTATABLE_BOND>
13
> <PUBCHEM_CACTVS_SUBSKEYS>
AAADcfB/uABgAAAAAAAAAAAAAAAAAWAAAAAwYMAAAAAAAAABUAAAHgQQCAAADLzl2AayAIPAAgqIAiFSEHLCAABkABAIiIHIBMgKcDqg1TGUYQhklgCYiYeYyOCOgAAAAAAQAAAAAAAAACAAAAAAAAAAAA==
> <PUBCHEM_IUPAC_OPENEYE_NAME>
(4R)-N-tert-butyl-3-[(2S,3S)-2-hydroxy-3-[[(2R)-3-methylsulfonyl-2-[(2-phenylbenzoyl)amino]propanoyl]amino]-4-phenyl-butanoyl]thiazolidine-4-carboxamide
> <PUBCHEM_IUPAC_CAS_NAME>
(4R)-N-tert-butyl-3-[(2S,3S)-2-hydroxy-3-[[(2R)-3-methylsulfonyl-1-oxo-2-[[oxo-(2-phenylphenyl)methyl]amino]propyl]amino]-1-oxo-4-phenylbutyl]-4-thiazolidinecarboxamide
> <PUBCHEM_IUPAC_NAME_MARKUP>
(4<I>R</I>)-<I>N</I>-<I>tert</I>-butyl-3-[(2<I>S</I>,3<I>S</I>)-2-hydroxy-3-[[(2<I>R</I>)-3-methylsulfonyl-2-[(2-phenylbenzoyl)amino]propanoyl]amino]-4-phenylbutanoyl]-1,3-thiazolidine-4-carboxamide
> <PUBCHEM_IUPAC_NAME>
(4R)-N-tert-butyl-3-[(2S,3S)-2-hydroxy-3-[[(2R)-3-methylsulfonyl-2-[(2-phenylbenzoyl)amino]propanoyl]amino]-4-phenylbutanoyl]-1,3-thiazolidine-4-carboxamide
> <PUBCHEM_IUPAC_SYSTEMATIC_NAME>
(4R)-N-tert-butyl-3-[(2S,3S)-3-[[(2R)-3-methylsulfonyl-2-[(2-phenylphenyl)carbonylamino]propanoyl]amino]-2-oxidanyl-4-phenyl-butanoyl]-1,3-thiazolidine-4-carboxamide
> <PUBCHEM_IUPAC_TRADITIONAL_NAME>
(4R)-N-tert-butyl-3-[(2S,3S)-2-hydroxy-3-[[(2R)-3-mesyl-2-[(2-phenylbenzoyl)amino]propanoyl]amino]-4-phenyl-butanoyl]thiazolidine-4-carboxamide
> <PUBCHEM_IUPAC_INCHI>
InChI=1S/C35H42N4O7S2/c1-35(2,3)38-33(43)29-20-47-22-39(29)34(44)30(40)27(19-23-13-7-5-8-14-23)36-32(42)28(21-48(4,45)46)37-31(41)26-18-12-11-17-25(26)24-15-9-6-10-16-24/h5-18,27-30,40H,19-22H2,1-4H3,(H,36,42)(H,37,41)(H,38,43)/t27-,28-,29-,30-/m0/s1
> <PUBCHEM_IUPAC_INCHIKEY>
BGRSDEGTTCVIHX-KRCBVYEFSA-N
> <PUBCHEM_XLOGP3_AA>
3.4
> <PUBCHEM_EXACT_MASS>
694.24949204
> <PUBCHEM_MOLECULAR_FORMULA>
C35H42N4O7S2
> <PUBCHEM_MOLECULAR_WEIGHT>
694.9
> <PUBCHEM_OPENEYE_CAN_SMILES>
CC(C)(C)NC(=O)C1CSCN1C(=O)C(C(CC2=CC=CC=C2)NC(=O)C(CS(=O)(=O)C)NC(=O)C3=CC=CC=C3C4=CC=CC=C4)O
> <PUBCHEM_OPENEYE_ISO_SMILES>
CC(C)(C)NC(=O)[C@@H]1CSCN1C(=O)[C@H]([C@H](CC2=CC=CC=C2)NC(=O)[C@H](CS(=O)(=O)C)NC(=O)C3=CC=CC=C3C4=CC=CC=C4)O
> <PUBCHEM_CACTVS_TPSA>
196
> <PUBCHEM_MONOISOTOPIC_WEIGHT>
694.24949204
> <PUBCHEM_TOTAL_CHARGE>
0
> <PUBCHEM_HEAVY_ATOM_COUNT>
48
> <PUBCHEM_ATOM_DEF_STEREO_COUNT>
4
> <PUBCHEM_ATOM_UDEF_STEREO_COUNT>
0
> <PUBCHEM_BOND_DEF_STEREO_COUNT>
0
> <PUBCHEM_BOND_UDEF_STEREO_COUNT>
0
> <PUBCHEM_ISOTOPIC_ATOM_COUNT>
0
> <PUBCHEM_COMPONENT_COUNT>
1
> <PUBCHEM_CACTVS_TAUTO_COUNT>
-1
> <PUBCHEM_COORDINATE_TYPE>
1
5
255
> <PUBCHEM_BONDANNOTATIONS>
15  11  5
23  13  5
14  21  5
25  30  8
25  31  8
16  3  6
30  34  8
31  35  8
34  36  8
35  36  8
37  38  8
37  39  8
38  41  8
39  42  8
40  44  8
40  45  8
41  43  8
42  43  8
44  46  8
45  47  8
46  48  8
47  48  8
$$$$
