501823
  -OEChem-10302200282D
105109  0     1  0  0  0  0  0999 V2000
   11.5942   -0.2673    0.0000 S   0  0  0  0  0  0  0  0  0  0  0  0
    5.5321   -3.7673    0.0000 O   0  0  0  0  0  0  0  0  0  0  0  0
    6.3981   -3.2673    0.0000 O   0  0  0  0  0  0  0  0  0  0  0  0
    7.2641   -0.7673    0.0000 O   0  0  0  0  0  0  0  0  0  0  0  0
    8.1301   -0.2673    0.0000 O   0  0  0  0  0  0  0  0  0  0  0  0
   12.0942   -1.1334    0.0000 O   0  0  0  0  0  0  0  0  0  0  0  0
   11.0942    0.5987    0.0000 O   0  0  0  0  0  0  0  0  0  0  0  0
    8.1301    0.7327    0.0000 O   0  0  0  0  0  0  0  0  0  0  0  0
    8.1301    2.7327    0.0000 O   0  0  0  0  0  0  0  0  0  0  0  0
    5.5321   -1.7673    0.0000 N   0  0  0  0  0  0  0  0  0  0  0  0
    3.8000   -3.7673    0.0000 N   0  0  0  0  0  0  0  0  0  0  0  0
    8.9962   -1.7673    0.0000 N   0  0  0  0  0  0  0  0  0  0  0  0
    9.8622    0.7327    0.0000 N   0  0  0  0  0  0  0  0  0  0  0  0
    3.8000   -1.7673    0.0000 C   0  0  3  0  0  0  0  0  0  0  0  0
    3.8000   -0.7673    0.0000 C   0  0  3  0  0  0  0  0  0  0  0  0
    4.6660   -2.2673    0.0000 C   0  0  1  0  0  0  0  0  0  0  0  0
    2.9061   -2.3020    0.0000 C   0  0  0  0  0  0  0  0  0  0  0  0
    2.9061   -0.2327    0.0000 C   0  0  0  0  0  0  0  0  0  0  0  0
    4.6660   -0.2673    0.0000 C   0  0  0  0  0  0  0  0  0  0  0  0
    2.0000   -1.7882    0.0000 C   0  0  0  0  0  0  0  0  0  0  0  0
    2.0000   -0.7465    0.0000 C   0  0  0  0  0  0  0  0  0  0  0  0
    5.5321   -0.7673    0.0000 C   0  0  0  0  0  0  0  0  0  0  0  0
    4.6660   -3.2673    0.0000 C   0  0  0  0  0  0  0  0  0  0  0  0
    6.3981   -2.2673    0.0000 C   0  0  0  0  0  0  0  0  0  0  0  0
    7.2641   -1.7673    0.0000 C   0  0  2  0  0  0  0  0  0  0  0  0
    3.8000   -4.7673    0.0000 C   0  0  0  0  0  0  0  0  0  0  0  0
    8.1301   -2.2673    0.0000 C   0  0  2  0  0  0  0  0  0  0  0  0
    3.8000   -5.7673    0.0000 C   0  0  0  0  0  0  0  0  0  0  0  0
    2.8000   -4.7673    0.0000 C   0  0  0  0  0  0  0  0  0  0  0  0
    4.8000   -4.7673    0.0000 C   0  0  0  0  0  0  0  0  0  0  0  0
    8.1301   -3.2673    0.0000 C   0  0  0  0  0  0  0  0  0  0  0  0
    8.9962   -3.7673    0.0000 C   0  0  0  0  0  0  0  0  0  0  0  0
    8.9962   -0.7673    0.0000 C   0  0  0  0  0  0  0  0  0  0  0  0
    9.8622   -0.2673    0.0000 C   0  0  2  0  0  0  0  0  0  0  0  0
    9.8622   -3.2673    0.0000 C   0  0  0  0  0  0  0  0  0  0  0  0
    8.9962   -4.7673    0.0000 C   0  0  0  0  0  0  0  0  0  0  0  0
   10.7282   -0.7673    0.0000 C   0  0  0  0  0  0  0  0  0  0  0  0
   10.7282   -3.7673    0.0000 C   0  0  0  0  0  0  0  0  0  0  0  0
    9.8622   -5.2673    0.0000 C   0  0  0  0  0  0  0  0  0  0  0  0
   10.7282   -4.7673    0.0000 C   0  0  0  0  0  0  0  0  0  0  0  0
    8.9962    1.2327    0.0000 C   0  0  0  0  0  0  0  0  0  0  0  0
   12.4603    0.2327    0.0000 C   0  0  0  0  0  0  0  0  0  0  0  0
    8.9962    2.2327    0.0000 C   0  0  0  0  0  0  0  0  0  0  0  0
    8.1301    3.7327    0.0000 C   0  0  0  0  0  0  0  0  0  0  0  0
    7.2641    4.2327    0.0000 C   0  0  0  0  0  0  0  0  0  0  0  0
    8.9962    4.2327    0.0000 C   0  0  0  0  0  0  0  0  0  0  0  0
    7.2641    5.2327    0.0000 C   0  0  0  0  0  0  0  0  0  0  0  0
    6.3702    3.6980    0.0000 C   0  0  0  0  0  0  0  0  0  0  0  0
    8.9962    5.2327    0.0000 C   0  0  0  0  0  0  0  0  0  0  0  0
    8.1301    5.7327    0.0000 C   0  0  0  0  0  0  0  0  0  0  0  0
    6.3702    5.7673    0.0000 C   0  0  0  0  0  0  0  0  0  0  0  0
    5.4641    4.2118    0.0000 C   0  0  0  0  0  0  0  0  0  0  0  0
    5.4641    5.2535    0.0000 C   0  0  0  0  0  0  0  0  0  0  0  0
    3.8048   -2.3873    0.0000 H   0  0  0  0  0  0  0  0  0  0  0  0
    3.8048   -0.1473    0.0000 H   0  0  0  0  0  0  0  0  0  0  0  0
    5.2030   -2.5773    0.0000 H   0  0  0  0  0  0  0  0  0  0  0  0
    2.5124   -2.7810    0.0000 H   0  0  0  0  0  0  0  0  0  0  0  0
    3.3107   -2.7718    0.0000 H   0  0  0  0  0  0  0  0  0  0  0  0
    3.3107    0.2371    0.0000 H   0  0  0  0  0  0  0  0  0  0  0  0
    2.5124    0.2463    0.0000 H   0  0  0  0  0  0  0  0  0  0  0  0
    5.0646    0.2076    0.0000 H   0  0  0  0  0  0  0  0  0  0  0  0
    4.2675    0.2076    0.0000 H   0  0  0  0  0  0  0  0  0  0  0  0
    1.3891   -1.6820    0.0000 H   0  0  0  0  0  0  0  0  0  0  0  0
    1.7909   -2.3718    0.0000 H   0  0  0  0  0  0  0  0  0  0  0  0
    1.7909   -0.1628    0.0000 H   0  0  0  0  0  0  0  0  0  0  0  0
    1.3891   -0.8526    0.0000 H   0  0  0  0  0  0  0  0  0  0  0  0
    6.1426   -0.8750    0.0000 H   0  0  0  0  0  0  0  0  0  0  0  0
    5.7441   -0.1847    0.0000 H   0  0  0  0  0  0  0  0  0  0  0  0
    3.2631   -3.4573    0.0000 H   0  0  0  0  0  0  0  0  0  0  0  0
    6.7272   -1.4573    0.0000 H   0  0  0  0  0  0  0  0  0  0  0  0
    8.1301   -1.6473    0.0000 H   0  0  0  0  0  0  0  0  0  0  0  0
    3.1800   -5.7673    0.0000 H   0  0  0  0  0  0  0  0  0  0  0  0
    3.8000   -6.3873    0.0000 H   0  0  0  0  0  0  0  0  0  0  0  0
    4.4200   -5.7673    0.0000 H   0  0  0  0  0  0  0  0  0  0  0  0
    2.8000   -4.1473    0.0000 H   0  0  0  0  0  0  0  0  0  0  0  0
    2.1800   -4.7673    0.0000 H   0  0  0  0  0  0  0  0  0  0  0  0
    2.8000   -5.3873    0.0000 H   0  0  0  0  0  0  0  0  0  0  0  0
    4.8000   -5.3873    0.0000 H   0  0  0  0  0  0  0  0  0  0  0  0
    5.4200   -4.7673    0.0000 H   0  0  0  0  0  0  0  0  0  0  0  0
    4.8000   -4.1473    0.0000 H   0  0  0  0  0  0  0  0  0  0  0  0
    7.5196   -3.1597    0.0000 H   0  0  0  0  0  0  0  0  0  0  0  0
    7.9181   -3.8499    0.0000 H   0  0  0  0  0  0  0  0  0  0  0  0
    6.7272   -0.4573    0.0000 H   0  0  0  0  0  0  0  0  0  0  0  0
    9.5331   -2.0773    0.0000 H   0  0  0  0  0  0  0  0  0  0  0  0
    9.3252    0.0427    0.0000 H   0  0  0  0  0  0  0  0  0  0  0  0
    9.8622   -2.6473    0.0000 H   0  0  0  0  0  0  0  0  0  0  0  0
    8.4592   -5.0773    0.0000 H   0  0  0  0  0  0  0  0  0  0  0  0
   10.3297   -1.2423    0.0000 H   0  0  0  0  0  0  0  0  0  0  0  0
   11.1267   -1.2423    0.0000 H   0  0  0  0  0  0  0  0  0  0  0  0
   10.3991    1.0427    0.0000 H   0  0  0  0  0  0  0  0  0  0  0  0
   11.2651   -3.4573    0.0000 H   0  0  0  0  0  0  0  0  0  0  0  0
    9.8622   -5.8873    0.0000 H   0  0  0  0  0  0  0  0  0  0  0  0
   11.2651   -5.0773    0.0000 H   0  0  0  0  0  0  0  0  0  0  0  0
   12.7703   -0.3043    0.0000 H   0  0  0  0  0  0  0  0  0  0  0  0
   12.9972    0.5427    0.0000 H   0  0  0  0  0  0  0  0  0  0  0  0
   12.1503    0.7696    0.0000 H   0  0  0  0  0  0  0  0  0  0  0  0
    9.6067    2.1250    0.0000 H   0  0  0  0  0  0  0  0  0  0  0  0
    9.2082    2.8153    0.0000 H   0  0  0  0  0  0  0  0  0  0  0  0
    9.5331    3.9227    0.0000 H   0  0  0  0  0  0  0  0  0  0  0  0
    6.3773    3.0780    0.0000 H   0  0  0  0  0  0  0  0  0  0  0  0
    9.5331    5.5427    0.0000 H   0  0  0  0  0  0  0  0  0  0  0  0
    8.1301    6.3527    0.0000 H   0  0  0  0  0  0  0  0  0  0  0  0
    6.3773    6.3873    0.0000 H   0  0  0  0  0  0  0  0  0  0  0  0
    4.9284    3.8998    0.0000 H   0  0  0  0  0  0  0  0  0  0  0  0
    4.9284    5.5656    0.0000 H   0  0  0  0  0  0  0  0  0  0  0  0
  1  6  2  0  0  0  0
  1  7  2  0  0  0  0
  1 37  1  0  0  0  0
  1 42  1  0  0  0  0
  2 23  2  0  0  0  0
  3 24  2  0  0  0  0
 25  4  1  1  0  0  0
  4 83  1  0  0  0  0
  5 33  2  0  0  0  0
  8 41  2  0  0  0  0
  9 43  1  0  0  0  0
  9 44  1  0  0  0  0
 10 16  1  0  0  0  0
 10 22  1  0  0  0  0
 10 24  1  0  0  0  0
 11 23  1  0  0  0  0
 11 26  1  0  0  0  0
 11 69  1  0  0  0  0
 27 12  1  1  0  0  0
 12 33  1  0  0  0  0
 12 84  1  0  0  0  0
 34 13  1  1  0  0  0
 13 41  1  0  0  0  0
 13 90  1  0  0  0  0
 14 15  1  0  0  0  0
 14 16  1  0  0  0  0
 14 17  1  0  0  0  0
 14 54  1  0  0  0  0
 15 18  1  0  0  0  0
 15 19  1  0  0  0  0
 15 55  1  0  0  0  0
 16 23  1  6  0  0  0
 16 56  1  0  0  0  0
 17 20  1  0  0  0  0
 17 57  1  0  0  0  0
 17 58  1  0  0  0  0
 18 21  1  0  0  0  0
 18 59  1  0  0  0  0
 18 60  1  0  0  0  0
 19 22  1  0  0  0  0
 19 61  1  0  0  0  0
 19 62  1  0  0  0  0
 20 21  1  0  0  0  0
 20 63  1  0  0  0  0
 20 64  1  0  0  0  0
 21 65  1  0  0  0  0
 21 66  1  0  0  0  0
 22 67  1  0  0  0  0
 22 68  1  0  0  0  0
 24 25  1  0  0  0  0
 25 27  1  0  0  0  0
 25 70  1  0  0  0  0
 26 28  1  0  0  0  0
 26 29  1  0  0  0  0
 26 30  1  0  0  0  0
 27 31  1  0  0  0  0
 27 71  1  0  0  0  0
 28 72  1  0  0  0  0
 28 73  1  0  0  0  0
 28 74  1  0  0  0  0
 29 75  1  0  0  0  0
 29 76  1  0  0  0  0
 29 77  1  0  0  0  0
 30 78  1  0  0  0  0
 30 79  1  0  0  0  0
 30 80  1  0  0  0  0
 31 32  1  0  0  0  0
 31 81  1  0  0  0  0
 31 82  1  0  0  0  0
 32 35  2  0  0  0  0
 32 36  1  0  0  0  0
 33 34  1  0  0  0  0
 34 37  1  0  0  0  0
 34 85  1  0  0  0  0
 35 38  1  0  0  0  0
 35 86  1  0  0  0  0
 36 39  2  0  0  0  0
 36 87  1  0  0  0  0
 37 88  1  0  0  0  0
 37 89  1  0  0  0  0
 38 40  2  0  0  0  0
 38 91  1  0  0  0  0
 39 40  1  0  0  0  0
 39 92  1  0  0  0  0
 40 93  1  0  0  0  0
 41 43  1  0  0  0  0
 42 94  1  0  0  0  0
 42 95  1  0  0  0  0
 42 96  1  0  0  0  0
 43 97  1  0  0  0  0
 43 98  1  0  0  0  0
 44 45  1  0  0  0  0
 44 46  2  0  0  0  0
 45 47  1  0  0  0  0
 45 48  2  0  0  0  0
 46 49  1  0  0  0  0
 46 99  1  0  0  0  0
 47 50  1  0  0  0  0
 47 51  2  0  0  0  0
 48 52  1  0  0  0  0
 48100  1  0  0  0  0
 49 50  2  0  0  0  0
 49101  1  0  0  0  0
 50102  1  0  0  0  0
 51 53  1  0  0  0  0
 51103  1  0  0  0  0
 52 53  2  0  0  0  0
 52104  1  0  0  0  0
 53105  1  0  0  0  0
M  END
> <PUBCHEM_COMPOUND_CID>
501823
> <PUBCHEM_COMPOUND_CANONICALIZED>
1
> <PUBCHEM_CACTVS_COMPLEXITY>
1370
> <PUBCHEM_CACTVS_HBOND_ACCEPTOR>
8
> <PUBCHEM_CACTVS_HBOND_DONOR>
4
> <PUBCHEM_CACTVS_ROTATABLE_BOND>
14
> <PUBCHEM_CACTVS_SUBSKEYS>
AAADcfB/vABAAAAAAAAAAAAAAAAAAAAAAAA8YMGCAAAAAADxVAAAHgQQCAAADbzl2AayBsPABgqIAiFSEHJCCAAgIBAIiIHOCIgOdjqk8T+XeCCk1hGYqAeYyLCOgAABAAAYAAAAAAIAADAAAAAAAAAAAA==
> <PUBCHEM_IUPAC_OPENEYE_NAME>
(1S)-N-tert-butyl-2-[(2S,3S)-2-hydroxy-3-[[(2R)-3-methylsulfonyl-2-[[2-(1-naphthyloxy)acetyl]amino]propanoyl]amino]-4-phenyl-butanoyl]-3,4,4a,5,6,7,8,8a-octahydro-1H-isoquinoline-1-carboxamide
> <PUBCHEM_IUPAC_CAS_NAME>
(1S)-N-tert-butyl-2-[(2S,3S)-2-hydroxy-3-[[(2R)-3-methylsulfonyl-2-[[2-(1-naphthalenyloxy)-1-oxoethyl]amino]-1-oxopropyl]amino]-1-oxo-4-phenylbutyl]-3,4,4a,5,6,7,8,8a-octahydro-1H-isoquinoline-1-carboxamide
> <PUBCHEM_IUPAC_NAME_MARKUP>
(1<I>S</I>)-<I>N</I>-<I>tert</I>-butyl-2-[(2<I>S</I>,3<I>S</I>)-2-hydroxy-3-[[(2<I>R</I>)-3-methylsulfonyl-2-[(2-naphthalen-1-yloxyacetyl)amino]propanoyl]amino]-4-phenylbutanoyl]-3,4,4<I>a</I>,5,6,7,8,8<I>a</I>-octahydro-1<I>H</I>-isoquinoline-1-carboxamide
> <PUBCHEM_IUPAC_NAME>
(1S)-N-tert-butyl-2-[(2S,3S)-2-hydroxy-3-[[(2R)-3-methylsulfonyl-2-[(2-naphthalen-1-yloxyacetyl)amino]propanoyl]amino]-4-phenylbutanoyl]-3,4,4a,5,6,7,8,8a-octahydro-1H-isoquinoline-1-carboxamide
> <PUBCHEM_IUPAC_SYSTEMATIC_NAME>
(1S)-N-tert-butyl-2-[(2S,3S)-3-[[(2R)-3-methylsulfonyl-2-(2-naphthalen-1-yloxyethanoylamino)propanoyl]amino]-2-oxidanyl-4-phenyl-butanoyl]-3,4,4a,5,6,7,8,8a-octahydro-1H-isoquinoline-1-carboxamide
> <PUBCHEM_IUPAC_TRADITIONAL_NAME>
(1S)-N-tert-butyl-2-[(2S,3S)-2-hydroxy-3-[[(2R)-3-mesyl-2-[[2-(1-naphthoxy)acetyl]amino]propanoyl]amino]-4-phenyl-butanoyl]-3,4,4a,5,6,7,8,8a-octahydro-1H-isoquinoline-1-carboxamide
> <PUBCHEM_IUPAC_INCHI>
InChI=1S/C40H52N4O8S/c1-40(2,3)43-38(48)35-30-19-11-9-16-28(30)21-22-44(35)39(49)36(46)31(23-26-13-6-5-7-14-26)42-37(47)32(25-53(4,50)51)41-34(45)24-52-33-20-12-17-27-15-8-10-18-29(27)33/h5-8,10,12-15,17-18,20,28,30-32,35-36,46H,9,11,16,19,21-25H2,1-4H3,(H,41,45)(H,42,47)(H,43,48)/t28?,30?,31-,32-,35-,36-/m0/s1
> <PUBCHEM_IUPAC_INCHIKEY>
LMPHVUKLBJTNIM-LTQSUVDISA-N
> <PUBCHEM_XLOGP3_AA>
4.9
> <PUBCHEM_EXACT_MASS>
748.35058580
> <PUBCHEM_MOLECULAR_FORMULA>
C40H52N4O8S
> <PUBCHEM_MOLECULAR_WEIGHT>
748.9
> <PUBCHEM_OPENEYE_CAN_SMILES>
CC(C)(C)NC(=O)C1C2CCCCC2CCN1C(=O)C(C(CC3=CC=CC=C3)NC(=O)C(CS(=O)(=O)C)NC(=O)COC4=CC=CC5=CC=CC=C54)O
> <PUBCHEM_OPENEYE_ISO_SMILES>
CC(C)(C)NC(=O)[C@@H]1C2CCCCC2CCN1C(=O)[C@H]([C@H](CC3=CC=CC=C3)NC(=O)[C@H](CS(=O)(=O)C)NC(=O)COC4=CC=CC5=CC=CC=C54)O
> <PUBCHEM_CACTVS_TPSA>
180
> <PUBCHEM_MONOISOTOPIC_WEIGHT>
748.35058580
> <PUBCHEM_TOTAL_CHARGE>
0
> <PUBCHEM_HEAVY_ATOM_COUNT>
53
> <PUBCHEM_ATOM_DEF_STEREO_COUNT>
4
> <PUBCHEM_ATOM_UDEF_STEREO_COUNT>
2
> <PUBCHEM_BOND_DEF_STEREO_COUNT>
0
> <PUBCHEM_BOND_UDEF_STEREO_COUNT>
0
> <PUBCHEM_ISOTOPIC_ATOM_COUNT>
0
> <PUBCHEM_COMPONENT_COUNT>
1
> <PUBCHEM_CACTVS_TAUTO_COUNT>
-1
> <PUBCHEM_COORDINATE_TYPE>
1
5
255
> <PUBCHEM_BONDANNOTATIONS>
27  12  5
34  13  5
14  17  3
15  18  3
16  23  6
32  35  8
32  36  8
35  38  8
36  39  8
38  40  8
39  40  8
25  4  5
44  45  8
44  46  8
45  47  8
45  48  8
46  49  8
47  50  8
47  51  8
48  52  8
49  50  8
51  53  8
52  53  8
$$$$
