501825
  -OEChem-10302200282D
 91 95  0     1  0  0  0  0  0999 V2000
    9.6186   -3.1023    0.0000 S   0  0  0  0  0  0  0  0  0  0  0  0
    4.4225   -2.1023    0.0000 O   0  0  0  0  0  0  0  0  0  0  0  0
    6.1545   -0.1023    0.0000 O   0  0  0  0  0  0  0  0  0  0  0  0
    6.0121    1.2524    0.0000 O   0  0  0  0  0  0  0  0  0  0  0  0
    7.8866   -3.1023    0.0000 O   0  0  0  0  0  0  0  0  0  0  0  0
    9.6186   -4.1023    0.0000 O   0  0  0  0  0  0  0  0  0  0  0  0
    8.6186   -3.1023    0.0000 O   0  0  0  0  0  0  0  0  0  0  0  0
    4.4374    4.4958    0.0000 O   0  0  0  0  0  0  0  0  0  0  0  0
   10.4846   -0.6023    0.0000 O   0  0  0  0  0  0  0  0  0  0  0  0
   10.4846    1.3977    0.0000 O   0  0  0  0  0  0  0  0  0  0  0  0
    4.4225   -0.1023    0.0000 N   0  0  0  0  0  0  0  0  0  0  0  0
    7.0205   -1.6023    0.0000 N   0  0  0  0  0  0  0  0  0  0  0  0
    4.8532    2.5395    0.0000 N   0  0  0  0  0  0  0  0  0  0  0  0
    8.7526   -0.6023    0.0000 N   0  0  0  0  0  0  0  0  0  0  0  0
    4.3179    0.8922    0.0000 C   0  0  1  0  0  0  0  0  0  0  0  0
    3.3398    1.1002    0.0000 C   0  0  0  0  0  0  0  0  0  0  0  0
    2.8398    0.2341    0.0000 C   0  0  0  0  0  0  0  0  0  0  0  0
    3.5089   -0.5090    0.0000 C   0  0  0  0  0  0  0  0  0  0  0  0
    5.2885   -0.6023    0.0000 C   0  0  0  0  0  0  0  0  0  0  0  0
    5.2885   -1.6023    0.0000 C   0  0  2  0  0  0  0  0  0  0  0  0
    6.1545   -2.1023    0.0000 C   0  0  2  0  0  0  0  0  0  0  0  0
    5.0611    1.5614    0.0000 C   0  0  0  0  0  0  0  0  0  0  0  0
    6.1545   -3.1023    0.0000 C   0  0  0  0  0  0  0  0  0  0  0  0
    5.2885   -3.6023    0.0000 C   0  0  0  0  0  0  0  0  0  0  0  0
    7.8866   -2.1023    0.0000 C   0  0  0  0  0  0  0  0  0  0  0  0
    8.7526   -1.6023    0.0000 C   0  0  2  0  0  0  0  0  0  0  0  0
    9.6186   -2.1023    0.0000 C   0  0  0  0  0  0  0  0  0  0  0  0
    3.9021    2.8485    0.0000 C   0  0  0  0  0  0  0  0  0  0  0  0
    5.2885   -4.6023    0.0000 C   0  0  0  0  0  0  0  0  0  0  0  0
    4.4225   -3.1023    0.0000 C   0  0  0  0  0  0  0  0  0  0  0  0
    3.6942    3.8267    0.0000 C   0  0  0  0  0  0  0  0  0  0  0  0
    3.1590    2.1794    0.0000 C   0  0  0  0  0  0  0  0  0  0  0  0
    4.4225   -5.1023    0.0000 C   0  0  0  0  0  0  0  0  0  0  0  0
    3.5564   -3.6023    0.0000 C   0  0  0  0  0  0  0  0  0  0  0  0
   10.6186   -3.1023    0.0000 C   0  0  0  0  0  0  0  0  0  0  0  0
    9.6186   -0.1023    0.0000 C   0  0  0  0  0  0  0  0  0  0  0  0
    3.5564   -4.6023    0.0000 C   0  0  0  0  0  0  0  0  0  0  0  0
    2.7431    4.1357    0.0000 C   0  0  0  0  0  0  0  0  0  0  0  0
    2.2079    2.4884    0.0000 C   0  0  0  0  0  0  0  0  0  0  0  0
    2.0000    3.4666    0.0000 C   0  0  0  0  0  0  0  0  0  0  0  0
    9.6186    0.8977    0.0000 C   0  0  0  0  0  0  0  0  0  0  0  0
   10.4846    2.3977    0.0000 C   0  0  0  0  0  0  0  0  0  0  0  0
   11.3507    2.8977    0.0000 C   0  0  0  0  0  0  0  0  0  0  0  0
   11.3507    3.8977    0.0000 C   0  0  0  0  0  0  0  0  0  0  0  0
    9.6186    2.8977    0.0000 C   0  0  0  0  0  0  0  0  0  0  0  0
   12.2446    2.3631    0.0000 C   0  0  0  0  0  0  0  0  0  0  0  0
   10.4846    4.3977    0.0000 C   0  0  0  0  0  0  0  0  0  0  0  0
    9.6186    3.8977    0.0000 C   0  0  0  0  0  0  0  0  0  0  0  0
   12.2446    4.4324    0.0000 C   0  0  0  0  0  0  0  0  0  0  0  0
   13.1507    2.8769    0.0000 C   0  0  0  0  0  0  0  0  0  0  0  0
   13.1507    3.9185    0.0000 C   0  0  0  0  0  0  0  0  0  0  0  0
    4.8968    0.6701    0.0000 H   0  0  0  0  0  0  0  0  0  0  0  0
    3.5314    1.6898    0.0000 H   0  0  0  0  0  0  0  0  0  0  0  0
    2.7734    1.3523    0.0000 H   0  0  0  0  0  0  0  0  0  0  0  0
    2.3382    0.5986    0.0000 H   0  0  0  0  0  0  0  0  0  0  0  0
    2.4249   -0.2266    0.0000 H   0  0  0  0  0  0  0  0  0  0  0  0
    3.0073   -0.8734    0.0000 H   0  0  0  0  0  0  0  0  0  0  0  0
    3.8189   -1.0460    0.0000 H   0  0  0  0  0  0  0  0  0  0  0  0
    5.2885   -2.2223    0.0000 H   0  0  0  0  0  0  0  0  0  0  0  0
    6.1545   -1.4823    0.0000 H   0  0  0  0  0  0  0  0  0  0  0  0
    6.3666   -3.6849    0.0000 H   0  0  0  0  0  0  0  0  0  0  0  0
    6.7651   -2.9946    0.0000 H   0  0  0  0  0  0  0  0  0  0  0  0
    7.0205   -0.9823    0.0000 H   0  0  0  0  0  0  0  0  0  0  0  0
    5.3139    2.9544    0.0000 H   0  0  0  0  0  0  0  0  0  0  0  0
    3.8855   -1.7923    0.0000 H   0  0  0  0  0  0  0  0  0  0  0  0
    9.2895   -1.2923    0.0000 H   0  0  0  0  0  0  0  0  0  0  0  0
   10.2292   -2.2099    0.0000 H   0  0  0  0  0  0  0  0  0  0  0  0
    9.8307   -1.5197    0.0000 H   0  0  0  0  0  0  0  0  0  0  0  0
    5.8254   -4.9123    0.0000 H   0  0  0  0  0  0  0  0  0  0  0  0
    4.4225   -2.4823    0.0000 H   0  0  0  0  0  0  0  0  0  0  0  0
    8.2157   -0.2923    0.0000 H   0  0  0  0  0  0  0  0  0  0  0  0
    3.2879    1.5730    0.0000 H   0  0  0  0  0  0  0  0  0  0  0  0
    4.4225   -5.7223    0.0000 H   0  0  0  0  0  0  0  0  0  0  0  0
    3.0195   -3.2923    0.0000 H   0  0  0  0  0  0  0  0  0  0  0  0
   10.6186   -3.7223    0.0000 H   0  0  0  0  0  0  0  0  0  0  0  0
   11.2386   -3.1023    0.0000 H   0  0  0  0  0  0  0  0  0  0  0  0
   10.6186   -2.4823    0.0000 H   0  0  0  0  0  0  0  0  0  0  0  0
    3.0195   -4.9123    0.0000 H   0  0  0  0  0  0  0  0  0  0  0  0
    2.6142    4.7422    0.0000 H   0  0  0  0  0  0  0  0  0  0  0  0
    1.7472    2.0736    0.0000 H   0  0  0  0  0  0  0  0  0  0  0  0
    9.4066    1.4803    0.0000 H   0  0  0  0  0  0  0  0  0  0  0  0
    9.0080    0.7901    0.0000 H   0  0  0  0  0  0  0  0  0  0  0  0
    1.4103    3.6582    0.0000 H   0  0  0  0  0  0  0  0  0  0  0  0
    4.3084    5.1023    0.0000 H   0  0  0  0  0  0  0  0  0  0  0  0
    9.0817    2.5877    0.0000 H   0  0  0  0  0  0  0  0  0  0  0  0
   12.2374    1.7431    0.0000 H   0  0  0  0  0  0  0  0  0  0  0  0
   10.4846    5.0177    0.0000 H   0  0  0  0  0  0  0  0  0  0  0  0
    9.0817    4.2077    0.0000 H   0  0  0  0  0  0  0  0  0  0  0  0
   12.2374    5.0524    0.0000 H   0  0  0  0  0  0  0  0  0  0  0  0
   13.6864    2.5648    0.0000 H   0  0  0  0  0  0  0  0  0  0  0  0
   13.6864    4.2306    0.0000 H   0  0  0  0  0  0  0  0  0  0  0  0
  1  6  2  0  0  0  0
  1  7  2  0  0  0  0
  1 27  1  0  0  0  0
  1 35  1  0  0  0  0
 20  2  1  6  0  0  0
  2 65  1  0  0  0  0
  3 19  2  0  0  0  0
  4 22  2  0  0  0  0
  5 25  2  0  0  0  0
  8 31  1  0  0  0  0
  8 84  1  0  0  0  0
  9 36  2  0  0  0  0
 10 41  1  0  0  0  0
 10 42  1  0  0  0  0
 11 15  1  0  0  0  0
 11 18  1  0  0  0  0
 11 19  1  0  0  0  0
 21 12  1  1  0  0  0
 12 25  1  0  0  0  0
 12 63  1  0  0  0  0
 13 22  1  0  0  0  0
 13 28  1  0  0  0  0
 13 64  1  0  0  0  0
 26 14  1  1  0  0  0
 14 36  1  0  0  0  0
 14 71  1  0  0  0  0
 15 16  1  0  0  0  0
 15 22  1  1  0  0  0
 15 52  1  0  0  0  0
 16 17  1  0  0  0  0
 16 53  1  0  0  0  0
 16 54  1  0  0  0  0
 17 18  1  0  0  0  0
 17 55  1  0  0  0  0
 17 56  1  0  0  0  0
 18 57  1  0  0  0  0
 18 58  1  0  0  0  0
 19 20  1  0  0  0  0
 20 21  1  0  0  0  0
 20 59  1  0  0  0  0
 21 23  1  0  0  0  0
 21 60  1  0  0  0  0
 23 24  1  0  0  0  0
 23 61  1  0  0  0  0
 23 62  1  0  0  0  0
 24 29  2  0  0  0  0
 24 30  1  0  0  0  0
 25 26  1  0  0  0  0
 26 27  1  0  0  0  0
 26 66  1  0  0  0  0
 27 67  1  0  0  0  0
 27 68  1  0  0  0  0
 28 31  1  0  0  0  0
 28 32  2  0  0  0  0
 29 33  1  0  0  0  0
 29 69  1  0  0  0  0
 30 34  2  0  0  0  0
 30 70  1  0  0  0  0
 31 38  2  0  0  0  0
 32 39  1  0  0  0  0
 32 72  1  0  0  0  0
 33 37  2  0  0  0  0
 33 73  1  0  0  0  0
 34 37  1  0  0  0  0
 34 74  1  0  0  0  0
 35 75  1  0  0  0  0
 35 76  1  0  0  0  0
 35 77  1  0  0  0  0
 36 41  1  0  0  0  0
 37 78  1  0  0  0  0
 38 40  1  0  0  0  0
 38 79  1  0  0  0  0
 39 40  2  0  0  0  0
 39 80  1  0  0  0  0
 40 83  1  0  0  0  0
 41 81  1  0  0  0  0
 41 82  1  0  0  0  0
 42 43  1  0  0  0  0
 42 45  2  0  0  0  0
 43 44  1  0  0  0  0
 43 46  2  0  0  0  0
 44 47  1  0  0  0  0
 44 49  2  0  0  0  0
 45 48  1  0  0  0  0
 45 85  1  0  0  0  0
 46 50  1  0  0  0  0
 46 86  1  0  0  0  0
 47 48  2  0  0  0  0
 47 87  1  0  0  0  0
 48 88  1  0  0  0  0
 49 51  1  0  0  0  0
 49 89  1  0  0  0  0
 50 51  2  0  0  0  0
 50 90  1  0  0  0  0
 51 91  1  0  0  0  0
M  END
> <PUBCHEM_COMPOUND_CID>
501825
> <PUBCHEM_COMPOUND_CANONICALIZED>
1
> <PUBCHEM_CACTVS_COMPLEXITY>
1300
> <PUBCHEM_CACTVS_HBOND_ACCEPTOR>
9
> <PUBCHEM_CACTVS_HBOND_DONOR>
5
> <PUBCHEM_CACTVS_ROTATABLE_BOND>
14
> <PUBCHEM_CACTVS_SUBSKEYS>
AAADcfB/vABAAAAAAAAAAAAAAAAAAWAAAAAwYMGAAAAAAADBVAAAHgQQCAAADDzl2AayxsPABgqIAiVSUHLCCAAhIhAIiIHPbIgOdjr28b+XeCjk1hHY+AeYybCOgAABAAAYEAAAAAIAADAgAAAAAAAAAA==
> <PUBCHEM_IUPAC_OPENEYE_NAME>
(2S)-1-[(2S,3S)-2-hydroxy-3-[[(2R)-3-methylsulfonyl-2-[[2-(1-naphthyloxy)acetyl]amino]propanoyl]amino]-4-phenyl-butanoyl]-N-(2-hydroxyphenyl)pyrrolidine-2-carboxamide
> <PUBCHEM_IUPAC_CAS_NAME>
(2S)-1-[(2S,3S)-2-hydroxy-3-[[(2R)-3-methylsulfonyl-2-[[2-(1-naphthalenyloxy)-1-oxoethyl]amino]-1-oxopropyl]amino]-1-oxo-4-phenylbutyl]-N-(2-hydroxyphenyl)-2-pyrrolidinecarboxamide
> <PUBCHEM_IUPAC_NAME_MARKUP>
(2<I>S</I>)-1-[(2<I>S</I>,3<I>S</I>)-2-hydroxy-3-[[(2<I>R</I>)-3-methylsulfonyl-2-[(2-naphthalen-1-yloxyacetyl)amino]propanoyl]amino]-4-phenylbutanoyl]-<I>N</I>-(2-hydroxyphenyl)pyrrolidine-2-carboxamide
> <PUBCHEM_IUPAC_NAME>
(2S)-1-[(2S,3S)-2-hydroxy-3-[[(2R)-3-methylsulfonyl-2-[(2-naphthalen-1-yloxyacetyl)amino]propanoyl]amino]-4-phenylbutanoyl]-N-(2-hydroxyphenyl)pyrrolidine-2-carboxamide
> <PUBCHEM_IUPAC_SYSTEMATIC_NAME>
(2S)-N-(2-hydroxyphenyl)-1-[(2S,3S)-3-[[(2R)-3-methylsulfonyl-2-(2-naphthalen-1-yloxyethanoylamino)propanoyl]amino]-2-oxidanyl-4-phenyl-butanoyl]pyrrolidine-2-carboxamide
> <PUBCHEM_IUPAC_TRADITIONAL_NAME>
(2S)-1-[(2S,3S)-2-hydroxy-3-[[(2R)-3-mesyl-2-[[2-(1-naphthoxy)acetyl]amino]propanoyl]amino]-4-phenyl-butanoyl]-N-(2-hydroxyphenyl)pyrrolidine-2-carboxamide
> <PUBCHEM_IUPAC_INCHI>
InChI=1S/C37H40N4O9S/c1-51(48,49)23-29(38-33(43)22-50-32-19-9-14-25-13-5-6-15-26(25)32)35(45)40-28(21-24-11-3-2-4-12-24)34(44)37(47)41-20-10-17-30(41)36(46)39-27-16-7-8-18-31(27)42/h2-9,11-16,18-19,28-30,34,42,44H,10,17,20-23H2,1H3,(H,38,43)(H,39,46)(H,40,45)/t28-,29-,30-,34-/m0/s1
> <PUBCHEM_IUPAC_INCHIKEY>
JZEBNVRXYXUPCS-DCMQHHMNSA-N
> <PUBCHEM_XLOGP3_AA>
3.2
> <PUBCHEM_EXACT_MASS>
716.25160004
> <PUBCHEM_MOLECULAR_FORMULA>
C37H40N4O9S
> <PUBCHEM_MOLECULAR_WEIGHT>
716.8
> <PUBCHEM_OPENEYE_CAN_SMILES>
CS(=O)(=O)CC(C(=O)NC(CC1=CC=CC=C1)C(C(=O)N2CCCC2C(=O)NC3=CC=CC=C3O)O)NC(=O)COC4=CC=CC5=CC=CC=C54
> <PUBCHEM_OPENEYE_ISO_SMILES>
CS(=O)(=O)C[C@@H](C(=O)N[C@@H](CC1=CC=CC=C1)[C@@H](C(=O)N2CCC[C@H]2C(=O)NC3=CC=CC=C3O)O)NC(=O)COC4=CC=CC5=CC=CC=C54
> <PUBCHEM_CACTVS_TPSA>
200
> <PUBCHEM_MONOISOTOPIC_WEIGHT>
716.25160004
> <PUBCHEM_TOTAL_CHARGE>
0
> <PUBCHEM_HEAVY_ATOM_COUNT>
51
> <PUBCHEM_ATOM_DEF_STEREO_COUNT>
4
> <PUBCHEM_ATOM_UDEF_STEREO_COUNT>
0
> <PUBCHEM_BOND_DEF_STEREO_COUNT>
0
> <PUBCHEM_BOND_UDEF_STEREO_COUNT>
0
> <PUBCHEM_ISOTOPIC_ATOM_COUNT>
0
> <PUBCHEM_COMPONENT_COUNT>
1
> <PUBCHEM_CACTVS_TAUTO_COUNT>
-1
> <PUBCHEM_COORDINATE_TYPE>
1
5
255
> <PUBCHEM_BONDANNOTATIONS>
21  12  5
26  14  5
15  22  5
20  2  6
24  29  8
24  30  8
28  31  8
28  32  8
29  33  8
30  34  8
31  38  8
32  39  8
33  37  8
34  37  8
38  40  8
39  40  8
42  43  8
42  45  8
43  44  8
43  46  8
44  47  8
44  49  8
45  48  8
46  50  8
47  48  8
49  51  8
50  51  8
$$$$
