501824
  -OEChem-10302200282D
102106  0     1  0  0  0  0  0999 V2000
   10.0610   -2.7673    0.0000 S   0  0  0  0  0  0  0  0  0  0  0  0
    6.5968    0.2327    0.0000 O   0  0  0  0  0  0  0  0  0  0  0  0
    6.4566    1.5786    0.0000 O   0  0  0  0  0  0  0  0  0  0  0  0
    4.8648   -1.7673    0.0000 O   0  0  0  0  0  0  0  0  0  0  0  0
    8.3289   -2.7673    0.0000 O   0  0  0  0  0  0  0  0  0  0  0  0
   11.0610   -2.7673    0.0000 O   0  0  0  0  0  0  0  0  0  0  0  0
    9.0610   -2.7673    0.0000 O   0  0  0  0  0  0  0  0  0  0  0  0
   10.9270   -0.2673    0.0000 O   0  0  0  0  0  0  0  0  0  0  0  0
   10.9270    1.7327    0.0000 O   0  0  0  0  0  0  0  0  0  0  0  0
    4.8648    0.2327    0.0000 N   0  0  0  0  0  0  0  0  0  0  0  0
    5.2998    2.8677    0.0000 N   0  0  0  0  0  0  0  0  0  0  0  0
    7.4629   -1.2673    0.0000 N   0  0  0  0  0  0  0  0  0  0  0  0
    9.1949   -0.2673    0.0000 N   0  0  0  0  0  0  0  0  0  0  0  0
    3.2892    0.5719    0.0000 C   0  0  3  0  0  0  0  0  0  0  0  0
    3.9570   -0.1724    0.0000 C   0  0  3  0  0  0  0  0  0  0  0  0
    3.7899    1.4306    0.0000 C   0  0  0  0  0  0  0  0  0  0  0  0
    4.7617    1.2214    0.0000 C   0  0  1  0  0  0  0  0  0  0  0  0
    2.3107    0.3656    0.0000 C   0  0  0  0  0  0  0  0  0  0  0  0
    3.6464   -1.1230    0.0000 C   0  0  0  0  0  0  0  0  0  0  0  0
    2.0000   -0.5849    0.0000 C   0  0  0  0  0  0  0  0  0  0  0  0
    2.6678   -1.3292    0.0000 C   0  0  0  0  0  0  0  0  0  0  0  0
    5.7308   -0.2673    0.0000 C   0  0  0  0  0  0  0  0  0  0  0  0
    5.5060    1.8892    0.0000 C   0  0  0  0  0  0  0  0  0  0  0  0
    5.7308   -1.2673    0.0000 C   0  0  2  0  0  0  0  0  0  0  0  0
    6.5968   -1.7673    0.0000 C   0  0  2  0  0  0  0  0  0  0  0  0
    4.3493    3.1784    0.0000 C   0  0  0  0  0  0  0  0  0  0  0  0
    6.5968   -2.7673    0.0000 C   0  0  0  0  0  0  0  0  0  0  0  0
    3.3988    3.4891    0.0000 C   0  0  0  0  0  0  0  0  0  0  0  0
    4.6600    4.1289    0.0000 C   0  0  0  0  0  0  0  0  0  0  0  0
    4.0386    2.2279    0.0000 C   0  0  0  0  0  0  0  0  0  0  0  0
    5.7308   -3.2673    0.0000 C   0  0  0  0  0  0  0  0  0  0  0  0
    8.3289   -1.7673    0.0000 C   0  0  0  0  0  0  0  0  0  0  0  0
    9.1949   -1.2673    0.0000 C   0  0  2  0  0  0  0  0  0  0  0  0
    4.8648   -2.7673    0.0000 C   0  0  0  0  0  0  0  0  0  0  0  0
    5.7308   -4.2673    0.0000 C   0  0  0  0  0  0  0  0  0  0  0  0
   10.0610   -1.7673    0.0000 C   0  0  0  0  0  0  0  0  0  0  0  0
    3.9988   -3.2673    0.0000 C   0  0  0  0  0  0  0  0  0  0  0  0
    4.8648   -4.7673    0.0000 C   0  0  0  0  0  0  0  0  0  0  0  0
    3.9988   -4.2673    0.0000 C   0  0  0  0  0  0  0  0  0  0  0  0
   10.0610    0.2327    0.0000 C   0  0  0  0  0  0  0  0  0  0  0  0
   10.0610   -3.7673    0.0000 C   0  0  0  0  0  0  0  0  0  0  0  0
   10.0610    1.2327    0.0000 C   0  0  0  0  0  0  0  0  0  0  0  0
   10.9270    2.7327    0.0000 C   0  0  0  0  0  0  0  0  0  0  0  0
   11.7930    3.2327    0.0000 C   0  0  0  0  0  0  0  0  0  0  0  0
   10.0610    3.2327    0.0000 C   0  0  0  0  0  0  0  0  0  0  0  0
   11.7930    4.2327    0.0000 C   0  0  0  0  0  0  0  0  0  0  0  0
   12.6869    2.6980    0.0000 C   0  0  0  0  0  0  0  0  0  0  0  0
   10.0610    4.2327    0.0000 C   0  0  0  0  0  0  0  0  0  0  0  0
   10.9270    4.7327    0.0000 C   0  0  0  0  0  0  0  0  0  0  0  0
   12.6869    4.7673    0.0000 C   0  0  0  0  0  0  0  0  0  0  0  0
   13.5930    3.2118    0.0000 C   0  0  0  0  0  0  0  0  0  0  0  0
   13.5930    4.2535    0.0000 C   0  0  0  0  0  0  0  0  0  0  0  0
    2.9263    1.0745    0.0000 H   0  0  0  0  0  0  0  0  0  0  0  0
    4.4176   -0.5875    0.0000 H   0  0  0  0  0  0  0  0  0  0  0  0
    3.9834    2.0196    0.0000 H   0  0  0  0  0  0  0  0  0  0  0  0
    3.2245    1.6849    0.0000 H   0  0  0  0  0  0  0  0  0  0  0  0
    5.3403    0.9985    0.0000 H   0  0  0  0  0  0  0  0  0  0  0  0
    2.2901    0.9853    0.0000 H   0  0  0  0  0  0  0  0  0  0  0  0
    1.6968    0.4530    0.0000 H   0  0  0  0  0  0  0  0  0  0  0  0
    3.6669   -1.7426    0.0000 H   0  0  0  0  0  0  0  0  0  0  0  0
    4.2602   -1.2103    0.0000 H   0  0  0  0  0  0  0  0  0  0  0  0
    1.4531   -0.2929    0.0000 H   0  0  0  0  0  0  0  0  0  0  0  0
    1.6174   -1.0728    0.0000 H   0  0  0  0  0  0  0  0  0  0  0  0
    2.1415   -1.6568    0.0000 H   0  0  0  0  0  0  0  0  0  0  0  0
    2.8991   -1.9044    0.0000 H   0  0  0  0  0  0  0  0  0  0  0  0
    5.7308   -1.8873    0.0000 H   0  0  0  0  0  0  0  0  0  0  0  0
    5.7613    3.2818    0.0000 H   0  0  0  0  0  0  0  0  0  0  0  0
    6.5968   -1.1473    0.0000 H   0  0  0  0  0  0  0  0  0  0  0  0
    6.8089   -3.3499    0.0000 H   0  0  0  0  0  0  0  0  0  0  0  0
    7.2074   -2.6597    0.0000 H   0  0  0  0  0  0  0  0  0  0  0  0
    4.3279   -1.4573    0.0000 H   0  0  0  0  0  0  0  0  0  0  0  0
    7.4629   -0.6473    0.0000 H   0  0  0  0  0  0  0  0  0  0  0  0
    3.5914    4.0784    0.0000 H   0  0  0  0  0  0  0  0  0  0  0  0
    2.8095    3.6817    0.0000 H   0  0  0  0  0  0  0  0  0  0  0  0
    3.2062    2.8997    0.0000 H   0  0  0  0  0  0  0  0  0  0  0  0
    5.2493    3.9363    0.0000 H   0  0  0  0  0  0  0  0  0  0  0  0
    4.8526    4.7182    0.0000 H   0  0  0  0  0  0  0  0  0  0  0  0
    4.0706    4.3215    0.0000 H   0  0  0  0  0  0  0  0  0  0  0  0
    3.4493    2.4205    0.0000 H   0  0  0  0  0  0  0  0  0  0  0  0
    3.8460    1.6386    0.0000 H   0  0  0  0  0  0  0  0  0  0  0  0
    4.6280    2.0353    0.0000 H   0  0  0  0  0  0  0  0  0  0  0  0
    9.7319   -0.9573    0.0000 H   0  0  0  0  0  0  0  0  0  0  0  0
    4.8648   -2.1473    0.0000 H   0  0  0  0  0  0  0  0  0  0  0  0
    6.2678   -4.5773    0.0000 H   0  0  0  0  0  0  0  0  0  0  0  0
   10.6715   -1.8750    0.0000 H   0  0  0  0  0  0  0  0  0  0  0  0
   10.2730   -1.1847    0.0000 H   0  0  0  0  0  0  0  0  0  0  0  0
    8.6580    0.0427    0.0000 H   0  0  0  0  0  0  0  0  0  0  0  0
    3.4618   -2.9573    0.0000 H   0  0  0  0  0  0  0  0  0  0  0  0
    4.8648   -5.3873    0.0000 H   0  0  0  0  0  0  0  0  0  0  0  0
    3.4618   -4.5773    0.0000 H   0  0  0  0  0  0  0  0  0  0  0  0
    9.4410   -3.7673    0.0000 H   0  0  0  0  0  0  0  0  0  0  0  0
   10.0610   -4.3873    0.0000 H   0  0  0  0  0  0  0  0  0  0  0  0
   10.6810   -3.7673    0.0000 H   0  0  0  0  0  0  0  0  0  0  0  0
    9.8489    1.8153    0.0000 H   0  0  0  0  0  0  0  0  0  0  0  0
    9.4504    1.1250    0.0000 H   0  0  0  0  0  0  0  0  0  0  0  0
    9.5240    2.9227    0.0000 H   0  0  0  0  0  0  0  0  0  0  0  0
   12.6798    2.0780    0.0000 H   0  0  0  0  0  0  0  0  0  0  0  0
    9.5240    4.5427    0.0000 H   0  0  0  0  0  0  0  0  0  0  0  0
   10.9270    5.3527    0.0000 H   0  0  0  0  0  0  0  0  0  0  0  0
   12.6798    5.3873    0.0000 H   0  0  0  0  0  0  0  0  0  0  0  0
   14.1287    2.8998    0.0000 H   0  0  0  0  0  0  0  0  0  0  0  0
   14.1287    4.5656    0.0000 H   0  0  0  0  0  0  0  0  0  0  0  0
  1  6  2  0  0  0  0
  1  7  2  0  0  0  0
  1 36  1  0  0  0  0
  1 41  1  0  0  0  0
  2 22  2  0  0  0  0
  3 23  2  0  0  0  0
 24  4  1  6  0  0  0
  4 71  1  0  0  0  0
  5 32  2  0  0  0  0
  8 40  2  0  0  0  0
  9 42  1  0  0  0  0
  9 43  1  0  0  0  0
 10 15  1  0  0  0  0
 10 17  1  0  0  0  0
 10 22  1  0  0  0  0
 11 23  1  0  0  0  0
 11 26  1  0  0  0  0
 11 67  1  0  0  0  0
 25 12  1  1  0  0  0
 12 32  1  0  0  0  0
 12 72  1  0  0  0  0
 33 13  1  1  0  0  0
 13 40  1  0  0  0  0
 13 87  1  0  0  0  0
 14 15  1  0  0  0  0
 14 16  1  0  0  0  0
 14 18  1  0  0  0  0
 14 53  1  0  0  0  0
 15 19  1  0  0  0  0
 15 54  1  0  0  0  0
 16 17  1  0  0  0  0
 16 55  1  0  0  0  0
 16 56  1  0  0  0  0
 17 23  1  1  0  0  0
 17 57  1  0  0  0  0
 18 20  1  0  0  0  0
 18 58  1  0  0  0  0
 18 59  1  0  0  0  0
 19 21  1  0  0  0  0
 19 60  1  0  0  0  0
 19 61  1  0  0  0  0
 20 21  1  0  0  0  0
 20 62  1  0  0  0  0
 20 63  1  0  0  0  0
 21 64  1  0  0  0  0
 21 65  1  0  0  0  0
 22 24  1  0  0  0  0
 24 25  1  0  0  0  0
 24 66  1  0  0  0  0
 25 27  1  0  0  0  0
 25 68  1  0  0  0  0
 26 28  1  0  0  0  0
 26 29  1  0  0  0  0
 26 30  1  0  0  0  0
 27 31  1  0  0  0  0
 27 69  1  0  0  0  0
 27 70  1  0  0  0  0
 28 73  1  0  0  0  0
 28 74  1  0  0  0  0
 28 75  1  0  0  0  0
 29 76  1  0  0  0  0
 29 77  1  0  0  0  0
 29 78  1  0  0  0  0
 30 79  1  0  0  0  0
 30 80  1  0  0  0  0
 30 81  1  0  0  0  0
 31 34  2  0  0  0  0
 31 35  1  0  0  0  0
 32 33  1  0  0  0  0
 33 36  1  0  0  0  0
 33 82  1  0  0  0  0
 34 37  1  0  0  0  0
 34 83  1  0  0  0  0
 35 38  2  0  0  0  0
 35 84  1  0  0  0  0
 36 85  1  0  0  0  0
 36 86  1  0  0  0  0
 37 39  2  0  0  0  0
 37 88  1  0  0  0  0
 38 39  1  0  0  0  0
 38 89  1  0  0  0  0
 39 90  1  0  0  0  0
 40 42  1  0  0  0  0
 41 91  1  0  0  0  0
 41 92  1  0  0  0  0
 41 93  1  0  0  0  0
 42 94  1  0  0  0  0
 42 95  1  0  0  0  0
 43 44  1  0  0  0  0
 43 45  2  0  0  0  0
 44 46  1  0  0  0  0
 44 47  2  0  0  0  0
 45 48  1  0  0  0  0
 45 96  1  0  0  0  0
 46 49  1  0  0  0  0
 46 50  2  0  0  0  0
 47 51  1  0  0  0  0
 47 97  1  0  0  0  0
 48 49  2  0  0  0  0
 48 98  1  0  0  0  0
 49 99  1  0  0  0  0
 50 52  1  0  0  0  0
 50100  1  0  0  0  0
 51 52  2  0  0  0  0
 51101  1  0  0  0  0
 52102  1  0  0  0  0
M  END
> <PUBCHEM_COMPOUND_CID>
501824
> <PUBCHEM_COMPOUND_CANONICALIZED>
1
> <PUBCHEM_CACTVS_COMPLEXITY>
1360
> <PUBCHEM_CACTVS_HBOND_ACCEPTOR>
8
> <PUBCHEM_CACTVS_HBOND_DONOR>
4
> <PUBCHEM_CACTVS_ROTATABLE_BOND>
14
> <PUBCHEM_CACTVS_SUBSKEYS>
AAADcfB/vABAAAAAAAAAAAAAAAAAAWAAAAAwYMGAAAAAAFjBVAAAHgQQCAAADbzl2AayBsPABgqIAiFSEHJCCAAgIBAIiIHOCIgOdjqk8T+XeCCk1hGYqAeYybCegAABAAAYAAAAAAIAADQAAAAAAAAAAA==
> <PUBCHEM_IUPAC_OPENEYE_NAME>
(2S)-N-tert-butyl-1-[(2S,3S)-2-hydroxy-3-[[(2R)-3-methylsulfonyl-2-[[2-(1-naphthyloxy)acetyl]amino]propanoyl]amino]-4-phenyl-butanoyl]-2,3,3a,4,5,6,7,7a-octahydroindole-2-carboxamide
> <PUBCHEM_IUPAC_CAS_NAME>
(2S)-N-tert-butyl-1-[(2S,3S)-2-hydroxy-3-[[(2R)-3-methylsulfonyl-2-[[2-(1-naphthalenyloxy)-1-oxoethyl]amino]-1-oxopropyl]amino]-1-oxo-4-phenylbutyl]-2,3,3a,4,5,6,7,7a-octahydroindole-2-carboxamide
> <PUBCHEM_IUPAC_NAME_MARKUP>
(2<I>S</I>)-<I>N</I>-<I>tert</I>-butyl-1-[(2<I>S</I>,3<I>S</I>)-2-hydroxy-3-[[(2<I>R</I>)-3-methylsulfonyl-2-[(2-naphthalen-1-yloxyacetyl)amino]propanoyl]amino]-4-phenylbutanoyl]-2,3,3<I>a</I>,4,5,6,7,7<I>a</I>-octahydroindole-2-carboxamide
> <PUBCHEM_IUPAC_NAME>
(2S)-N-tert-butyl-1-[(2S,3S)-2-hydroxy-3-[[(2R)-3-methylsulfonyl-2-[(2-naphthalen-1-yloxyacetyl)amino]propanoyl]amino]-4-phenylbutanoyl]-2,3,3a,4,5,6,7,7a-octahydroindole-2-carboxamide
> <PUBCHEM_IUPAC_SYSTEMATIC_NAME>
(2S)-N-tert-butyl-1-[(2S,3S)-3-[[(2R)-3-methylsulfonyl-2-(2-naphthalen-1-yloxyethanoylamino)propanoyl]amino]-2-oxidanyl-4-phenyl-butanoyl]-2,3,3a,4,5,6,7,7a-octahydroindole-2-carboxamide
> <PUBCHEM_IUPAC_TRADITIONAL_NAME>
(2S)-N-tert-butyl-1-[(2S,3S)-2-hydroxy-3-[[(2R)-3-mesyl-2-[[2-(1-naphthoxy)acetyl]amino]propanoyl]amino]-4-phenyl-butanoyl]-2,3,3a,4,5,6,7,7a-octahydroindole-2-carboxamide
> <PUBCHEM_IUPAC_INCHI>
InChI=1S/C39H50N4O8S/c1-39(2,3)42-37(47)32-22-27-16-9-11-19-31(27)43(32)38(48)35(45)29(21-25-13-6-5-7-14-25)41-36(46)30(24-52(4,49)50)40-34(44)23-51-33-20-12-17-26-15-8-10-18-28(26)33/h5-8,10,12-15,17-18,20,27,29-32,35,45H,9,11,16,19,21-24H2,1-4H3,(H,40,44)(H,41,46)(H,42,47)/t27?,29-,30-,31?,32-,35-/m0/s1
> <PUBCHEM_IUPAC_INCHIKEY>
YHIKLNGLMSUSSQ-YSLAVOFHSA-N
> <PUBCHEM_XLOGP3_AA>
4.4
> <PUBCHEM_EXACT_MASS>
734.33493574
> <PUBCHEM_MOLECULAR_FORMULA>
C39H50N4O8S
> <PUBCHEM_MOLECULAR_WEIGHT>
734.9
> <PUBCHEM_OPENEYE_CAN_SMILES>
CC(C)(C)NC(=O)C1CC2CCCCC2N1C(=O)C(C(CC3=CC=CC=C3)NC(=O)C(CS(=O)(=O)C)NC(=O)COC4=CC=CC5=CC=CC=C54)O
> <PUBCHEM_OPENEYE_ISO_SMILES>
CC(C)(C)NC(=O)[C@@H]1CC2CCCCC2N1C(=O)[C@H]([C@H](CC3=CC=CC=C3)NC(=O)[C@H](CS(=O)(=O)C)NC(=O)COC4=CC=CC5=CC=CC=C54)O
> <PUBCHEM_CACTVS_TPSA>
180
> <PUBCHEM_MONOISOTOPIC_WEIGHT>
734.33493574
> <PUBCHEM_TOTAL_CHARGE>
0
> <PUBCHEM_HEAVY_ATOM_COUNT>
52
> <PUBCHEM_ATOM_DEF_STEREO_COUNT>
4
> <PUBCHEM_ATOM_UDEF_STEREO_COUNT>
2
> <PUBCHEM_BOND_DEF_STEREO_COUNT>
0
> <PUBCHEM_BOND_UDEF_STEREO_COUNT>
0
> <PUBCHEM_ISOTOPIC_ATOM_COUNT>
0
> <PUBCHEM_COMPONENT_COUNT>
1
> <PUBCHEM_CACTVS_TAUTO_COUNT>
-1
> <PUBCHEM_COORDINATE_TYPE>
1
5
255
> <PUBCHEM_BONDANNOTATIONS>
25  12  5
33  13  5
14  18  3
15  19  3
17  23  5
31  34  8
31  35  8
34  37  8
35  38  8
37  39  8
38  39  8
24  4  6
43  44  8
43  45  8
44  46  8
44  47  8
45  48  8
46  49  8
46  50  8
47  51  8
48  49  8
50  52  8
51  52  8
$$$$
