501833
  -OEChem-10302200282D
 96 99  0     1  0  0  0  0  0999 V2000
    2.8660   -0.3152    0.0000 S   0  0  0  0  0  0  0  0  0  0  0  0
    5.9641   -5.3541    0.0000 S   0  0  0  0  0  0  0  0  0  0  0  0
    3.3660   -1.1813    0.0000 O   0  0  0  0  0  0  0  0  0  0  0  0
    2.3660    0.5508    0.0000 O   0  0  0  0  0  0  0  0  0  0  0  0
    7.1962   -2.8152    0.0000 O   0  0  0  0  0  0  0  0  0  0  0  0
    6.3301    0.6848    0.0000 O   0  0  0  0  0  0  0  0  0  0  0  0
    4.5981   -2.3152    0.0000 O   0  0  0  0  0  0  0  0  0  0  0  0
    3.4961   -3.1158    0.0000 O   0  0  0  0  0  0  0  0  0  0  0  0
    6.3301    1.6848    0.0000 O   0  0  0  0  0  0  0  0  0  0  0  0
    6.3301    3.6848    0.0000 O   0  0  0  0  0  0  0  0  0  0  0  0
    5.4641   -0.8152    0.0000 N   0  0  0  0  0  0  0  0  0  0  0  0
    4.5981    1.6848    0.0000 N   0  0  0  0  0  0  0  0  0  0  0  0
    5.4641   -3.8152    0.0000 N   0  0  0  0  0  0  0  0  0  0  0  0
    2.9609   -4.7631    0.0000 N   0  0  0  0  0  0  0  0  0  0  0  0
    3.7320    0.1848    0.0000 C   0  0  0  0  0  0  0  0  0  0  0  0
    4.5981    0.6848    0.0000 C   0  0  1  0  0  0  0  0  0  0  0  0
    4.2320   -0.6813    0.0000 C   0  0  0  0  0  0  0  0  0  0  0  0
    3.2320    1.0508    0.0000 C   0  0  0  0  0  0  0  0  0  0  0  0
    6.3301   -1.3152    0.0000 C   0  0  2  0  0  0  0  0  0  0  0  0
    5.4641    0.1848    0.0000 C   0  0  0  0  0  0  0  0  0  0  0  0
    6.3301   -2.3152    0.0000 C   0  0  1  0  0  0  0  0  0  0  0  0
    4.6551   -4.4030    0.0000 C   0  0  1  0  0  0  0  0  0  0  0  0
    7.1962   -0.8152    0.0000 C   0  0  0  0  0  0  0  0  0  0  0  0
    2.0000   -0.8152    0.0000 C   0  0  0  0  0  0  0  0  0  0  0  0
    5.4641   -2.8152    0.0000 C   0  0  0  0  0  0  0  0  0  0  0  0
    4.9641   -5.3541    0.0000 C   0  0  0  0  0  0  0  0  0  0  0  0
    6.2731   -4.4030    0.0000 C   0  0  0  0  0  0  0  0  0  0  0  0
    3.7040   -4.0940    0.0000 C   0  0  0  0  0  0  0  0  0  0  0  0
    8.0622   -1.3152    0.0000 C   0  0  0  0  0  0  0  0  0  0  0  0
    5.4641    2.1848    0.0000 C   0  0  0  0  0  0  0  0  0  0  0  0
    3.1688   -5.7413    0.0000 C   0  0  0  0  0  0  0  0  0  0  0  0
    5.4641    3.1848    0.0000 C   0  0  0  0  0  0  0  0  0  0  0  0
    3.3767   -6.7194    0.0000 C   0  0  0  0  0  0  0  0  0  0  0  0
    2.1907   -5.9492    0.0000 C   0  0  0  0  0  0  0  0  0  0  0  0
    4.1469   -5.5334    0.0000 C   0  0  0  0  0  0  0  0  0  0  0  0
    8.9282   -0.8152    0.0000 C   0  0  0  0  0  0  0  0  0  0  0  0
    8.0622   -2.3152    0.0000 C   0  0  0  0  0  0  0  0  0  0  0  0
    9.7942   -1.3152    0.0000 C   0  0  0  0  0  0  0  0  0  0  0  0
    8.9282   -2.8152    0.0000 C   0  0  0  0  0  0  0  0  0  0  0  0
    9.7942   -2.3152    0.0000 C   0  0  0  0  0  0  0  0  0  0  0  0
    6.3301    4.6848    0.0000 C   0  0  0  0  0  0  0  0  0  0  0  0
    7.1962    5.1848    0.0000 C   0  0  0  0  0  0  0  0  0  0  0  0
    5.4641    5.1848    0.0000 C   0  0  0  0  0  0  0  0  0  0  0  0
    7.1962    6.1848    0.0000 C   0  0  0  0  0  0  0  0  0  0  0  0
    8.0901    4.6501    0.0000 C   0  0  0  0  0  0  0  0  0  0  0  0
    5.4641    6.1848    0.0000 C   0  0  0  0  0  0  0  0  0  0  0  0
    6.3301    6.6848    0.0000 C   0  0  0  0  0  0  0  0  0  0  0  0
    8.0901    6.7194    0.0000 C   0  0  0  0  0  0  0  0  0  0  0  0
    8.9962    5.1640    0.0000 C   0  0  0  0  0  0  0  0  0  0  0  0
    8.9962    6.2056    0.0000 C   0  0  0  0  0  0  0  0  0  0  0  0
    5.1350    0.9948    0.0000 H   0  0  0  0  0  0  0  0  0  0  0  0
    5.7932   -1.6252    0.0000 H   0  0  0  0  0  0  0  0  0  0  0  0
    3.6951   -0.9913    0.0000 H   0  0  0  0  0  0  0  0  0  0  0  0
    4.5420   -1.2182    0.0000 H   0  0  0  0  0  0  0  0  0  0  0  0
    4.7690   -0.3713    0.0000 H   0  0  0  0  0  0  0  0  0  0  0  0
    3.7690    1.3608    0.0000 H   0  0  0  0  0  0  0  0  0  0  0  0
    2.9220    1.5877    0.0000 H   0  0  0  0  0  0  0  0  0  0  0  0
    2.6951    0.7408    0.0000 H   0  0  0  0  0  0  0  0  0  0  0  0
    6.8671   -2.0052    0.0000 H   0  0  0  0  0  0  0  0  0  0  0  0
    4.9272   -1.1252    0.0000 H   0  0  0  0  0  0  0  0  0  0  0  0
    4.0611    1.9948    0.0000 H   0  0  0  0  0  0  0  0  0  0  0  0
    4.5581   -3.7906    0.0000 H   0  0  0  0  0  0  0  0  0  0  0  0
    7.5947   -0.3403    0.0000 H   0  0  0  0  0  0  0  0  0  0  0  0
    6.7976   -0.3403    0.0000 H   0  0  0  0  0  0  0  0  0  0  0  0
    1.6900   -0.2783    0.0000 H   0  0  0  0  0  0  0  0  0  0  0  0
    1.4631   -1.1252    0.0000 H   0  0  0  0  0  0  0  0  0  0  0  0
    2.3100   -1.3522    0.0000 H   0  0  0  0  0  0  0  0  0  0  0  0
    4.3576   -5.4830    0.0000 H   0  0  0  0  0  0  0  0  0  0  0  0
    5.0289   -5.9707    0.0000 H   0  0  0  0  0  0  0  0  0  0  0  0
    6.8395   -4.6552    0.0000 H   0  0  0  0  0  0  0  0  0  0  0  0
    6.5831   -3.8661    0.0000 H   0  0  0  0  0  0  0  0  0  0  0  0
    2.3712   -4.5715    0.0000 H   0  0  0  0  0  0  0  0  0  0  0  0
    7.1962   -3.4352    0.0000 H   0  0  0  0  0  0  0  0  0  0  0  0
    5.2520    3.7674    0.0000 H   0  0  0  0  0  0  0  0  0  0  0  0
    4.8535    3.0771    0.0000 H   0  0  0  0  0  0  0  0  0  0  0  0
    2.7703   -6.8483    0.0000 H   0  0  0  0  0  0  0  0  0  0  0  0
    3.5056   -7.3259    0.0000 H   0  0  0  0  0  0  0  0  0  0  0  0
    3.9832   -6.5905    0.0000 H   0  0  0  0  0  0  0  0  0  0  0  0
    2.0617   -5.3427    0.0000 H   0  0  0  0  0  0  0  0  0  0  0  0
    1.5842   -6.0781    0.0000 H   0  0  0  0  0  0  0  0  0  0  0  0
    2.3196   -6.5556    0.0000 H   0  0  0  0  0  0  0  0  0  0  0  0
    4.2758   -6.1398    0.0000 H   0  0  0  0  0  0  0  0  0  0  0  0
    4.7534   -5.4045    0.0000 H   0  0  0  0  0  0  0  0  0  0  0  0
    4.0180   -4.9269    0.0000 H   0  0  0  0  0  0  0  0  0  0  0  0
    8.9282   -0.1952    0.0000 H   0  0  0  0  0  0  0  0  0  0  0  0
    7.5252   -2.6252    0.0000 H   0  0  0  0  0  0  0  0  0  0  0  0
   10.3312   -1.0052    0.0000 H   0  0  0  0  0  0  0  0  0  0  0  0
    8.9282   -3.4352    0.0000 H   0  0  0  0  0  0  0  0  0  0  0  0
   10.3312   -2.6252    0.0000 H   0  0  0  0  0  0  0  0  0  0  0  0
    4.9272    4.8748    0.0000 H   0  0  0  0  0  0  0  0  0  0  0  0
    8.0829    4.0302    0.0000 H   0  0  0  0  0  0  0  0  0  0  0  0
    4.9272    6.4948    0.0000 H   0  0  0  0  0  0  0  0  0  0  0  0
    6.3301    7.3048    0.0000 H   0  0  0  0  0  0  0  0  0  0  0  0
    8.0829    7.3394    0.0000 H   0  0  0  0  0  0  0  0  0  0  0  0
    9.5319    4.8519    0.0000 H   0  0  0  0  0  0  0  0  0  0  0  0
    9.5319    6.5176    0.0000 H   0  0  0  0  0  0  0  0  0  0  0  0
  1  3  2  0  0  0  0
  1  4  2  0  0  0  0
  1 15  1  0  0  0  0
  1 24  1  0  0  0  0
  2 26  1  0  0  0  0
  2 27  1  0  0  0  0
 21  5  1  6  0  0  0
  5 73  1  0  0  0  0
  6 20  2  0  0  0  0
  7 25  2  0  0  0  0
  8 28  2  0  0  0  0
  9 30  2  0  0  0  0
 10 32  1  0  0  0  0
 10 41  1  0  0  0  0
 19 11  1  1  0  0  0
 11 20  1  0  0  0  0
 11 60  1  0  0  0  0
 16 12  1  6  0  0  0
 12 30  1  0  0  0  0
 12 61  1  0  0  0  0
 13 22  1  0  0  0  0
 13 25  1  0  0  0  0
 13 27  1  0  0  0  0
 14 28  1  0  0  0  0
 14 31  1  0  0  0  0
 14 72  1  0  0  0  0
 15 16  1  0  0  0  0
 15 17  1  0  0  0  0
 15 18  1  0  0  0  0
 16 20  1  0  0  0  0
 16 51  1  0  0  0  0
 17 53  1  0  0  0  0
 17 54  1  0  0  0  0
 17 55  1  0  0  0  0
 18 56  1  0  0  0  0
 18 57  1  0  0  0  0
 18 58  1  0  0  0  0
 19 21  1  0  0  0  0
 19 23  1  0  0  0  0
 19 52  1  0  0  0  0
 21 25  1  0  0  0  0
 21 59  1  0  0  0  0
 22 26  1  0  0  0  0
 22 28  1  1  0  0  0
 22 62  1  0  0  0  0
 23 29  1  0  0  0  0
 23 63  1  0  0  0  0
 23 64  1  0  0  0  0
 24 65  1  0  0  0  0
 24 66  1  0  0  0  0
 24 67  1  0  0  0  0
 26 68  1  0  0  0  0
 26 69  1  0  0  0  0
 27 70  1  0  0  0  0
 27 71  1  0  0  0  0
 29 36  2  0  0  0  0
 29 37  1  0  0  0  0
 30 32  1  0  0  0  0
 31 33  1  0  0  0  0
 31 34  1  0  0  0  0
 31 35  1  0  0  0  0
 32 74  1  0  0  0  0
 32 75  1  0  0  0  0
 33 76  1  0  0  0  0
 33 77  1  0  0  0  0
 33 78  1  0  0  0  0
 34 79  1  0  0  0  0
 34 80  1  0  0  0  0
 34 81  1  0  0  0  0
 35 82  1  0  0  0  0
 35 83  1  0  0  0  0
 35 84  1  0  0  0  0
 36 38  1  0  0  0  0
 36 85  1  0  0  0  0
 37 39  2  0  0  0  0
 37 86  1  0  0  0  0
 38 40  2  0  0  0  0
 38 87  1  0  0  0  0
 39 40  1  0  0  0  0
 39 88  1  0  0  0  0
 40 89  1  0  0  0  0
 41 42  1  0  0  0  0
 41 43  2  0  0  0  0
 42 44  1  0  0  0  0
 42 45  2  0  0  0  0
 43 46  1  0  0  0  0
 43 90  1  0  0  0  0
 44 47  1  0  0  0  0
 44 48  2  0  0  0  0
 45 49  1  0  0  0  0
 45 91  1  0  0  0  0
 46 47  2  0  0  0  0
 46 92  1  0  0  0  0
 47 93  1  0  0  0  0
 48 50  1  0  0  0  0
 48 94  1  0  0  0  0
 49 50  2  0  0  0  0
 49 95  1  0  0  0  0
 50 96  1  0  0  0  0
M  END
> <PUBCHEM_COMPOUND_CID>
501833
> <PUBCHEM_COMPOUND_CANONICALIZED>
1
> <PUBCHEM_CACTVS_COMPLEXITY>
1310
> <PUBCHEM_CACTVS_HBOND_ACCEPTOR>
9
> <PUBCHEM_CACTVS_HBOND_DONOR>
4
> <PUBCHEM_CACTVS_ROTATABLE_BOND>
14
> <PUBCHEM_CACTVS_SUBSKEYS>
AAADcfB/vABgAAAAAAAAAAAAAAAAAWAAAAAwYMAAAAAAAADBVAAAHgQQCAAADLzl2AayBsPABgqIAiFSEHJCCABgIBAIiIHOCIgOdjqk8T+XeCCk1hGYqAeYyLCOgAABAAAYAAAAAAIAADAAAAAAAAAAAA==
> <PUBCHEM_IUPAC_OPENEYE_NAME>
(4R)-N-tert-butyl-3-[(2S,3S)-2-hydroxy-3-[[(2R)-3-methyl-3-methylsulfonyl-2-[[2-(1-naphthyloxy)acetyl]amino]butanoyl]amino]-4-phenyl-butanoyl]thiazolidine-4-carboxamide
> <PUBCHEM_IUPAC_CAS_NAME>
(4R)-N-tert-butyl-3-[(2S,3S)-2-hydroxy-3-[[(2R)-3-methyl-3-methylsulfonyl-2-[[2-(1-naphthalenyloxy)-1-oxoethyl]amino]-1-oxobutyl]amino]-1-oxo-4-phenylbutyl]-4-thiazolidinecarboxamide
> <PUBCHEM_IUPAC_NAME_MARKUP>
(4<I>R</I>)-<I>N</I>-<I>tert</I>-butyl-3-[(2<I>S</I>,3<I>S</I>)-2-hydroxy-3-[[(2<I>R</I>)-3-methyl-3-methylsulfonyl-2-[(2-naphthalen-1-yloxyacetyl)amino]butanoyl]amino]-4-phenylbutanoyl]-1,3-thiazolidine-4-carboxamide
> <PUBCHEM_IUPAC_NAME>
(4R)-N-tert-butyl-3-[(2S,3S)-2-hydroxy-3-[[(2R)-3-methyl-3-methylsulfonyl-2-[(2-naphthalen-1-yloxyacetyl)amino]butanoyl]amino]-4-phenylbutanoyl]-1,3-thiazolidine-4-carboxamide
> <PUBCHEM_IUPAC_SYSTEMATIC_NAME>
(4R)-N-tert-butyl-3-[(2S,3S)-3-[[(2R)-3-methyl-3-methylsulfonyl-2-(2-naphthalen-1-yloxyethanoylamino)butanoyl]amino]-2-oxidanyl-4-phenyl-butanoyl]-1,3-thiazolidine-4-carboxamide
> <PUBCHEM_IUPAC_TRADITIONAL_NAME>
(4R)-N-tert-butyl-3-[(2S,3S)-2-hydroxy-3-[[(2R)-3-mesyl-3-methyl-2-[[2-(1-naphthoxy)acetyl]amino]butanoyl]amino]-4-phenyl-butanoyl]thiazolidine-4-carboxamide
> <PUBCHEM_IUPAC_INCHI>
InChI=1S/C36H46N4O8S2/c1-35(2,3)39-32(43)27-21-49-22-40(27)34(45)30(42)26(19-23-13-8-7-9-14-23)37-33(44)31(36(4,5)50(6,46)47)38-29(41)20-48-28-18-12-16-24-15-10-11-17-25(24)28/h7-18,26-27,30-31,42H,19-22H2,1-6H3,(H,37,44)(H,38,41)(H,39,43)/t26-,27-,30-,31+/m0/s1
> <PUBCHEM_IUPAC_INCHIKEY>
FXAYZQUZEWPCEO-QQPIMWAISA-N
> <PUBCHEM_XLOGP3_AA>
3.6
> <PUBCHEM_EXACT_MASS>
726.27570679
> <PUBCHEM_MOLECULAR_FORMULA>
C36H46N4O8S2
> <PUBCHEM_MOLECULAR_WEIGHT>
726.9
> <PUBCHEM_OPENEYE_CAN_SMILES>
CC(C)(C)NC(=O)C1CSCN1C(=O)C(C(CC2=CC=CC=C2)NC(=O)C(C(C)(C)S(=O)(=O)C)NC(=O)COC3=CC=CC4=CC=CC=C43)O
> <PUBCHEM_OPENEYE_ISO_SMILES>
CC(C)(C)NC(=O)[C@@H]1CSCN1C(=O)[C@H]([C@H](CC2=CC=CC=C2)NC(=O)[C@H](C(C)(C)S(=O)(=O)C)NC(=O)COC3=CC=CC4=CC=CC=C43)O
> <PUBCHEM_CACTVS_TPSA>
205
> <PUBCHEM_MONOISOTOPIC_WEIGHT>
726.27570679
> <PUBCHEM_TOTAL_CHARGE>
0
> <PUBCHEM_HEAVY_ATOM_COUNT>
50
> <PUBCHEM_ATOM_DEF_STEREO_COUNT>
4
> <PUBCHEM_ATOM_UDEF_STEREO_COUNT>
0
> <PUBCHEM_BOND_DEF_STEREO_COUNT>
0
> <PUBCHEM_BOND_UDEF_STEREO_COUNT>
0
> <PUBCHEM_ISOTOPIC_ATOM_COUNT>
0
> <PUBCHEM_COMPONENT_COUNT>
1
> <PUBCHEM_CACTVS_TAUTO_COUNT>
-1
> <PUBCHEM_COORDINATE_TYPE>
1
5
255
> <PUBCHEM_BONDANNOTATIONS>
19  11  5
16  12  6
22  28  5
29  36  8
29  37  8
36  38  8
37  39  8
38  40  8
39  40  8
41  42  8
41  43  8
42  44  8
42  45  8
43  46  8
44  47  8
44  48  8
45  49  8
46  47  8
48  50  8
49  50  8
21  5  6
$$$$
