501960
  -OEChem-10302200282D
 92 94  0     1  0  0  0  0  0999 V2000
    7.1962   -5.9400    0.0000 O   0  0  0  0  0  0  0  0  0  0  0  0
    7.1962   -0.9400    0.0000 O   0  0  0  0  0  0  0  0  0  0  0  0
    7.1962    0.0600    0.0000 O   0  0  0  0  0  0  0  0  0  0  0  0
    8.9282    0.0600    0.0000 O   0  0  0  0  0  0  0  0  0  0  0  0
    4.5981    3.5600    0.0000 O   0  0  0  0  0  0  0  0  0  0  0  0
    9.7942   -1.4400    0.0000 O   0  0  0  0  0  0  0  0  0  0  0  0
    6.3301    3.5600    0.0000 O   0  0  0  0  0  0  0  0  0  0  0  0
    8.9282   -5.9400    0.0000 N   0  0  0  0  0  0  0  0  0  0  0  0
    6.3301   -2.4400    0.0000 N   0  0  0  0  0  0  0  0  0  0  0  0
    5.4641    0.0600    0.0000 N   0  0  0  0  0  0  0  0  0  0  0  0
    5.4641    2.0600    0.0000 N   0  0  0  0  0  0  0  0  0  0  0  0
    8.0622   -4.4400    0.0000 C   0  0  1  0  0  0  0  0  0  0  0  0
    8.9282   -3.9400    0.0000 C   0  0  0  0  0  0  0  0  0  0  0  0
    7.1962   -3.9400    0.0000 C   0  0  0  0  0  0  0  0  0  0  0  0
    9.7942   -4.4400    0.0000 C   0  0  0  0  0  0  0  0  0  0  0  0
    7.1962   -2.9400    0.0000 C   0  0  1  0  0  0  0  0  0  0  0  0
    8.0622   -5.4400    0.0000 C   0  0  0  0  0  0  0  0  0  0  0  0
    9.7942   -5.4400    0.0000 C   0  0  0  0  0  0  0  0  0  0  0  0
    8.0622   -2.4400    0.0000 C   0  0  0  0  0  0  0  0  0  0  0  0
    5.4641   -0.9400    0.0000 C   0  0  2  0  0  0  0  0  0  0  0  0
    6.3301   -1.4400    0.0000 C   0  0  0  0  0  0  0  0  0  0  0  0
    6.3301    1.5600    0.0000 C   0  0  1  0  0  0  0  0  0  0  0  0
    4.5981   -1.4400    0.0000 C   0  0  0  0  0  0  0  0  0  0  0  0
    7.1962    2.0600    0.0000 C   0  0  0  0  0  0  0  0  0  0  0  0
    8.0622    1.5600    0.0000 C   0  0  0  0  0  0  0  0  0  0  0  0
    6.3301    0.5600    0.0000 C   0  0  0  0  0  0  0  0  0  0  0  0
    8.0622   -1.4400    0.0000 C   0  0  0  0  0  0  0  0  0  0  0  0
    3.7320   -0.9400    0.0000 C   0  0  0  0  0  0  0  0  0  0  0  0
    8.9282    2.0600    0.0000 C   0  0  0  0  0  0  0  0  0  0  0  0
    8.0622    0.5600    0.0000 C   0  0  0  0  0  0  0  0  0  0  0  0
    2.8660   -1.4400    0.0000 C   0  0  0  0  0  0  0  0  0  0  0  0
    3.7320    0.0600    0.0000 C   0  0  0  0  0  0  0  0  0  0  0  0
    8.9282   -0.9400    0.0000 C   0  0  0  0  0  0  0  0  0  0  0  0
    5.4641    3.0600    0.0000 C   0  0  0  0  0  0  0  0  0  0  0  0
    2.0000   -0.9400    0.0000 C   0  0  0  0  0  0  0  0  0  0  0  0
    2.8660    0.5600    0.0000 C   0  0  0  0  0  0  0  0  0  0  0  0
    2.0000    0.0600    0.0000 C   0  0  0  0  0  0  0  0  0  0  0  0
    9.7942    0.5600    0.0000 C   0  0  0  0  0  0  0  0  0  0  0  0
    4.5981    4.5600    0.0000 C   0  0  0  0  0  0  0  0  0  0  0  0
    3.7320    5.0600    0.0000 C   0  0  0  0  0  0  0  0  0  0  0  0
    9.7942    1.5600    0.0000 C   0  0  0  0  0  0  0  0  0  0  0  0
    3.7320    6.0600    0.0000 C   0  0  0  0  0  0  0  0  0  0  0  0
    2.8660    4.5600    0.0000 C   0  0  0  0  0  0  0  0  0  0  0  0
    2.8660    6.5600    0.0000 C   0  0  0  0  0  0  0  0  0  0  0  0
    2.0000    5.0600    0.0000 C   0  0  0  0  0  0  0  0  0  0  0  0
    2.0000    6.0600    0.0000 C   0  0  0  0  0  0  0  0  0  0  0  0
    8.0622   -3.8200    0.0000 H   0  0  0  0  0  0  0  0  0  0  0  0
    9.3267   -3.4650    0.0000 H   0  0  0  0  0  0  0  0  0  0  0  0
    8.5297   -3.4650    0.0000 H   0  0  0  0  0  0  0  0  0  0  0  0
    6.5856   -3.8323    0.0000 H   0  0  0  0  0  0  0  0  0  0  0  0
    6.9841   -4.5226    0.0000 H   0  0  0  0  0  0  0  0  0  0  0  0
   10.4048   -4.5477    0.0000 H   0  0  0  0  0  0  0  0  0  0  0  0
   10.0063   -3.8574    0.0000 H   0  0  0  0  0  0  0  0  0  0  0  0
    6.6592   -3.2500    0.0000 H   0  0  0  0  0  0  0  0  0  0  0  0
   10.0063   -6.0226    0.0000 H   0  0  0  0  0  0  0  0  0  0  0  0
   10.4048   -5.3323    0.0000 H   0  0  0  0  0  0  0  0  0  0  0  0
    8.9282   -6.5600    0.0000 H   0  0  0  0  0  0  0  0  0  0  0  0
    5.7932   -2.7500    0.0000 H   0  0  0  0  0  0  0  0  0  0  0  0
    6.0010   -0.6300    0.0000 H   0  0  0  0  0  0  0  0  0  0  0  0
    8.5991   -2.7500    0.0000 H   0  0  0  0  0  0  0  0  0  0  0  0
    5.7932    1.2500    0.0000 H   0  0  0  0  0  0  0  0  0  0  0  0
    7.5947    2.5349    0.0000 H   0  0  0  0  0  0  0  0  0  0  0  0
    6.7976    2.5349    0.0000 H   0  0  0  0  0  0  0  0  0  0  0  0
    4.1996   -1.9150    0.0000 H   0  0  0  0  0  0  0  0  0  0  0  0
    4.9966   -1.9150    0.0000 H   0  0  0  0  0  0  0  0  0  0  0  0
    8.0622    2.1800    0.0000 H   0  0  0  0  0  0  0  0  0  0  0  0
    4.9272    0.3700    0.0000 H   0  0  0  0  0  0  0  0  0  0  0  0
    7.5252   -1.1300    0.0000 H   0  0  0  0  0  0  0  0  0  0  0  0
    9.2382    1.5231    0.0000 H   0  0  0  0  0  0  0  0  0  0  0  0
    9.4651    2.3700    0.0000 H   0  0  0  0  0  0  0  0  0  0  0  0
    8.6182    2.5969    0.0000 H   0  0  0  0  0  0  0  0  0  0  0  0
    7.4422    0.5600    0.0000 H   0  0  0  0  0  0  0  0  0  0  0  0
    8.0622   -0.0600    0.0000 H   0  0  0  0  0  0  0  0  0  0  0  0
    8.6822    0.5600    0.0000 H   0  0  0  0  0  0  0  0  0  0  0  0
    4.9272    1.7500    0.0000 H   0  0  0  0  0  0  0  0  0  0  0  0
    2.8660   -2.0600    0.0000 H   0  0  0  0  0  0  0  0  0  0  0  0
    4.2690    0.3700    0.0000 H   0  0  0  0  0  0  0  0  0  0  0  0
    1.4631   -1.2500    0.0000 H   0  0  0  0  0  0  0  0  0  0  0  0
    2.8660    1.1800    0.0000 H   0  0  0  0  0  0  0  0  0  0  0  0
    1.4631    0.3700    0.0000 H   0  0  0  0  0  0  0  0  0  0  0  0
   10.0063   -0.0226    0.0000 H   0  0  0  0  0  0  0  0  0  0  0  0
   10.4048    0.6677    0.0000 H   0  0  0  0  0  0  0  0  0  0  0  0
    5.2087    4.4523    0.0000 H   0  0  0  0  0  0  0  0  0  0  0  0
    4.8101    5.1426    0.0000 H   0  0  0  0  0  0  0  0  0  0  0  0
   10.4142    1.5600    0.0000 H   0  0  0  0  0  0  0  0  0  0  0  0
    9.7942    2.1800    0.0000 H   0  0  0  0  0  0  0  0  0  0  0  0
    9.1742    1.5600    0.0000 H   0  0  0  0  0  0  0  0  0  0  0  0
    4.2690    6.3700    0.0000 H   0  0  0  0  0  0  0  0  0  0  0  0
    2.8660    3.9400    0.0000 H   0  0  0  0  0  0  0  0  0  0  0  0
    2.8660    7.1800    0.0000 H   0  0  0  0  0  0  0  0  0  0  0  0
    1.4631    4.7500    0.0000 H   0  0  0  0  0  0  0  0  0  0  0  0
    1.4631    6.3700    0.0000 H   0  0  0  0  0  0  0  0  0  0  0  0
  1 17  2  0  0  0  0
  2 21  2  0  0  0  0
  3 26  2  0  0  0  0
  4 33  1  0  0  0  0
  4 38  1  0  0  0  0
  5 34  1  0  0  0  0
  5 39  1  0  0  0  0
  6 33  2  0  0  0  0
  7 34  2  0  0  0  0
  8 17  1  0  0  0  0
  8 18  1  0  0  0  0
  8 57  1  0  0  0  0
 16  9  1  6  0  0  0
  9 21  1  0  0  0  0
  9 58  1  0  0  0  0
 20 10  1  6  0  0  0
 10 26  1  0  0  0  0
 10 67  1  0  0  0  0
 22 11  1  1  0  0  0
 11 34  1  0  0  0  0
 11 75  1  0  0  0  0
 12 13  1  0  0  0  0
 12 14  1  6  0  0  0
 12 17  1  0  0  0  0
 12 47  1  0  0  0  0
 13 15  1  0  0  0  0
 13 48  1  0  0  0  0
 13 49  1  0  0  0  0
 14 16  1  0  0  0  0
 14 50  1  0  0  0  0
 14 51  1  0  0  0  0
 15 18  1  0  0  0  0
 15 52  1  0  0  0  0
 15 53  1  0  0  0  0
 16 19  1  0  0  0  0
 16 54  1  0  0  0  0
 18 55  1  0  0  0  0
 18 56  1  0  0  0  0
 19 27  2  3  0  0  0
 19 60  1  0  0  0  0
 20 21  1  0  0  0  0
 20 23  1  0  0  0  0
 20 59  1  0  0  0  0
 22 24  1  0  0  0  0
 22 26  1  0  0  0  0
 22 61  1  0  0  0  0
 23 28  1  0  0  0  0
 23 64  1  0  0  0  0
 23 65  1  0  0  0  0
 24 25  1  0  0  0  0
 24 62  1  0  0  0  0
 24 63  1  0  0  0  0
 25 29  1  0  0  0  0
 25 30  1  0  0  0  0
 25 66  1  0  0  0  0
 27 33  1  0  0  0  0
 27 68  1  0  0  0  0
 28 31  2  0  0  0  0
 28 32  1  0  0  0  0
 29 69  1  0  0  0  0
 29 70  1  0  0  0  0
 29 71  1  0  0  0  0
 30 72  1  0  0  0  0
 30 73  1  0  0  0  0
 30 74  1  0  0  0  0
 31 35  1  0  0  0  0
 31 76  1  0  0  0  0
 32 36  2  0  0  0  0
 32 77  1  0  0  0  0
 35 37  2  0  0  0  0
 35 78  1  0  0  0  0
 36 37  1  0  0  0  0
 36 79  1  0  0  0  0
 37 80  1  0  0  0  0
 38 41  1  0  0  0  0
 38 81  1  0  0  0  0
 38 82  1  0  0  0  0
 39 40  1  0  0  0  0
 39 83  1  0  0  0  0
 39 84  1  0  0  0  0
 40 42  2  0  0  0  0
 40 43  1  0  0  0  0
 41 85  1  0  0  0  0
 41 86  1  0  0  0  0
 41 87  1  0  0  0  0
 42 44  1  0  0  0  0
 42 88  1  0  0  0  0
 43 45  2  0  0  0  0
 43 89  1  0  0  0  0
 44 46  2  0  0  0  0
 44 90  1  0  0  0  0
 45 46  1  0  0  0  0
 45 91  1  0  0  0  0
 46 92  1  0  0  0  0
M  END
> <PUBCHEM_COMPOUND_CID>
501960
> <PUBCHEM_COMPOUND_CANONICALIZED>
1
> <PUBCHEM_CACTVS_COMPLEXITY>
1020
> <PUBCHEM_CACTVS_HBOND_ACCEPTOR>
7
> <PUBCHEM_CACTVS_HBOND_DONOR>
4
> <PUBCHEM_CACTVS_ROTATABLE_BOND>
18
> <PUBCHEM_CACTVS_SUBSKEYS>
AAADcfB/uAAAAAAAAAAAAAAAAAAAAAAAAAA8YIAAAAAAAAABQAAAHgAQAAAADSjhmAYyCILABACIAiHSGACCAAAgAAAIiIGICMkIZjKAsTmeMAAk1gGIqYecyaCOAAAAAAAAAAAAAAAAAAAAAAAAAAAAAA==
> <PUBCHEM_IUPAC_OPENEYE_NAME>
ethyl (4S)-4-[[(2S)-2-[[(2S)-2-(benzyloxycarbonylamino)-4-methyl-pentanoyl]amino]-3-phenyl-propanoyl]amino]-5-[(3S)-2-oxo-3-piperidyl]pent-2-enoate
> <PUBCHEM_IUPAC_CAS_NAME>
(4S)-4-[[(2S)-2-[[(2S)-4-methyl-1-oxo-2-(phenylmethoxycarbonylamino)pentyl]amino]-1-oxo-3-phenylpropyl]amino]-5-[(3S)-2-oxo-3-piperidinyl]-2-pentenoic acid ethyl ester
> <PUBCHEM_IUPAC_NAME_MARKUP>
ethyl (4<I>S</I>)-4-[[(2<I>S</I>)-2-[[(2<I>S</I>)-4-methyl-2-(phenylmethoxycarbonylamino)pentanoyl]amino]-3-phenylpropanoyl]amino]-5-[(3<I>S</I>)-2-oxopiperidin-3-yl]pent-2-enoate
> <PUBCHEM_IUPAC_NAME>
ethyl (4S)-4-[[(2S)-2-[[(2S)-4-methyl-2-(phenylmethoxycarbonylamino)pentanoyl]amino]-3-phenylpropanoyl]amino]-5-[(3S)-2-oxopiperidin-3-yl]pent-2-enoate
> <PUBCHEM_IUPAC_SYSTEMATIC_NAME>
ethyl (4S)-4-[[(2S)-2-[[(2S)-4-methyl-2-(phenylmethoxycarbonylamino)pentanoyl]amino]-3-phenyl-propanoyl]amino]-5-[(3S)-2-oxidanylidenepiperidin-3-yl]pent-2-enoate
> <PUBCHEM_IUPAC_TRADITIONAL_NAME>
(4S)-4-[[(2S)-2-[[(2S)-2-(benzyloxycarbonylamino)-4-methyl-pentanoyl]amino]-3-phenyl-propanoyl]amino]-5-[(3S)-2-keto-3-piperidyl]pent-2-enoic acid ethyl ester
> <PUBCHEM_IUPAC_INCHI>
InChI=1S/C35H46N4O7/c1-4-45-31(40)18-17-28(22-27-16-11-19-36-32(27)41)37-33(42)30(21-25-12-7-5-8-13-25)38-34(43)29(20-24(2)3)39-35(44)46-23-26-14-9-6-10-15-26/h5-10,12-15,17-18,24,27-30H,4,11,16,19-23H2,1-3H3,(H,36,41)(H,37,42)(H,38,43)(H,39,44)/t27-,28+,29-,30-/m0/s1
> <PUBCHEM_IUPAC_INCHIKEY>
NLYFLAHUZKJMBO-XJYHXZFBSA-N
> <PUBCHEM_XLOGP3_AA>
4.5
> <PUBCHEM_EXACT_MASS>
634.33664982
> <PUBCHEM_MOLECULAR_FORMULA>
C35H46N4O7
> <PUBCHEM_MOLECULAR_WEIGHT>
634.8
> <PUBCHEM_OPENEYE_CAN_SMILES>
CCOC(=O)C=CC(CC1CCCNC1=O)NC(=O)C(CC2=CC=CC=C2)NC(=O)C(CC(C)C)NC(=O)OCC3=CC=CC=C3
> <PUBCHEM_OPENEYE_ISO_SMILES>
CCOC(=O)C=C[C@H](C[C@@H]1CCCNC1=O)NC(=O)[C@H](CC2=CC=CC=C2)NC(=O)[C@H](CC(C)C)NC(=O)OCC3=CC=CC=C3
> <PUBCHEM_CACTVS_TPSA>
152
> <PUBCHEM_MONOISOTOPIC_WEIGHT>
634.33664982
> <PUBCHEM_TOTAL_CHARGE>
0
> <PUBCHEM_HEAVY_ATOM_COUNT>
46
> <PUBCHEM_ATOM_DEF_STEREO_COUNT>
4
> <PUBCHEM_ATOM_UDEF_STEREO_COUNT>
0
> <PUBCHEM_BOND_DEF_STEREO_COUNT>
0
> <PUBCHEM_BOND_UDEF_STEREO_COUNT>
1
> <PUBCHEM_ISOTOPIC_ATOM_COUNT>
0
> <PUBCHEM_COMPONENT_COUNT>
1
> <PUBCHEM_CACTVS_TAUTO_COUNT>
-1
> <PUBCHEM_COORDINATE_TYPE>
1
5
255
> <PUBCHEM_BONDANNOTATIONS>
20  10  6
22  11  5
12  14  6
19  27  1
28  31  8
28  32  8
31  35  8
32  36  8
35  37  8
36  37  8
40  42  8
40  43  8
42  44  8
43  45  8
44  46  8
45  46  8
16  9  6
$$$$
