501966
  -OEChem-10302200282D
 84 86  0     1  0  0  0  0  0999 V2000
    6.3092   -4.8512    0.0000 F   0  0  0  0  0  0  0  0  0  0  0  0
   12.6269    0.5337    0.0000 O   0  0  0  0  0  0  0  0  0  0  0  0
    5.4432    0.6488    0.0000 O   0  0  0  0  0  0  0  0  0  0  0  0
    8.0413   -1.8512    0.0000 O   0  0  0  0  0  0  0  0  0  0  0  0
    6.3092    4.1488    0.0000 O   0  0  0  0  0  0  0  0  0  0  0  0
   11.5054   -3.8512    0.0000 O   0  0  0  0  0  0  0  0  0  0  0  0
    3.4945    5.3512    0.0000 O   0  0  0  0  0  0  0  0  0  0  0  0
    9.7734   -3.8512    0.0000 O   0  0  0  0  0  0  0  0  0  0  0  0
   13.0881   -1.1876    0.0000 N   0  0  0  0  0  0  0  0  0  0  0  0
    8.9073   -0.3512    0.0000 N   0  0  0  0  0  0  0  0  0  0  0  0
    7.1753    0.6488    0.0000 N   0  0  0  0  0  0  0  0  0  0  0  0
    5.4432    2.6488    0.0000 N   0  0  0  0  0  0  0  0  0  0  0  0
    4.4727    5.1433    0.0000 N   0  0  0  0  0  0  0  0  0  0  0  0
   11.5054   -0.8512    0.0000 C   0  0  2  0  0  0  0  0  0  0  0  0
   10.6394   -0.3512    0.0000 C   0  0  0  0  0  0  0  0  0  0  0  0
   11.6099   -1.8457    0.0000 C   0  0  0  0  0  0  0  0  0  0  0  0
    7.1753    2.6488    0.0000 C   0  0  0  0  0  0  0  0  0  0  0  0
    9.7734   -0.8512    0.0000 C   0  0  1  0  0  0  0  0  0  0  0  0
    6.3092    2.1488    0.0000 C   0  0  1  0  0  0  0  0  0  0  0  0
   12.5881   -2.0537    0.0000 C   0  0  0  0  0  0  0  0  0  0  0  0
   12.4189   -0.4445    0.0000 C   0  0  0  0  0  0  0  0  0  0  0  0
    7.1753   -0.3512    0.0000 C   0  0  2  0  0  0  0  0  0  0  0  0
    8.0413    3.1488    0.0000 C   0  0  0  0  0  0  0  0  0  0  0  0
    6.6753    3.5148    0.0000 C   0  0  0  0  0  0  0  0  0  0  0  0
    7.6753    1.7828    0.0000 C   0  0  0  0  0  0  0  0  0  0  0  0
    6.3092    1.1488    0.0000 C   0  0  0  0  0  0  0  0  0  0  0  0
    8.0413   -0.8512    0.0000 C   0  0  0  0  0  0  0  0  0  0  0  0
    9.7734   -1.8512    0.0000 C   0  0  0  0  0  0  0  0  0  0  0  0
    6.3092   -0.8512    0.0000 C   0  0  0  0  0  0  0  0  0  0  0  0
    6.3092   -1.8512    0.0000 C   0  0  0  0  0  0  0  0  0  0  0  0
    5.4432    3.6488    0.0000 C   0  0  0  0  0  0  0  0  0  0  0  0
   10.6394   -2.3512    0.0000 C   0  0  0  0  0  0  0  0  0  0  0  0
    7.1753   -2.3512    0.0000 C   0  0  0  0  0  0  0  0  0  0  0  0
    5.4432   -2.3512    0.0000 C   0  0  0  0  0  0  0  0  0  0  0  0
    4.5772    4.1488    0.0000 C   0  0  0  0  0  0  0  0  0  0  0  0
   10.6394   -3.3512    0.0000 C   0  0  0  0  0  0  0  0  0  0  0  0
    7.1753   -3.3512    0.0000 C   0  0  0  0  0  0  0  0  0  0  0  0
    5.4432   -3.3512    0.0000 C   0  0  0  0  0  0  0  0  0  0  0  0
    3.6636    3.7420    0.0000 C   0  0  0  0  0  0  0  0  0  0  0  0
    6.3092   -3.8512    0.0000 C   0  0  0  0  0  0  0  0  0  0  0  0
    2.9945    4.4852    0.0000 C   0  0  0  0  0  0  0  0  0  0  0  0
   11.5054   -4.8512    0.0000 C   0  0  0  0  0  0  0  0  0  0  0  0
    2.0000    4.3807    0.0000 C   0  0  0  0  0  0  0  0  0  0  0  0
   12.3714   -5.3512    0.0000 C   0  0  0  0  0  0  0  0  0  0  0  0
   11.5378   -0.2321    0.0000 H   0  0  0  0  0  0  0  0  0  0  0  0
   11.0379    0.1237    0.0000 H   0  0  0  0  0  0  0  0  0  0  0  0
   10.2408    0.1237    0.0000 H   0  0  0  0  0  0  0  0  0  0  0  0
   10.9899   -1.8457    0.0000 H   0  0  0  0  0  0  0  0  0  0  0  0
   11.5451   -2.4623    0.0000 H   0  0  0  0  0  0  0  0  0  0  0  0
    9.7734   -0.2312    0.0000 H   0  0  0  0  0  0  0  0  0  0  0  0
    6.3092    2.7688    0.0000 H   0  0  0  0  0  0  0  0  0  0  0  0
   12.3965   -2.6433    0.0000 H   0  0  0  0  0  0  0  0  0  0  0  0
   13.1545   -2.3058    0.0000 H   0  0  0  0  0  0  0  0  0  0  0  0
   13.7047   -1.1228    0.0000 H   0  0  0  0  0  0  0  0  0  0  0  0
    7.7122   -0.0412    0.0000 H   0  0  0  0  0  0  0  0  0  0  0  0
    8.9073    0.2688    0.0000 H   0  0  0  0  0  0  0  0  0  0  0  0
    8.3513    2.6118    0.0000 H   0  0  0  0  0  0  0  0  0  0  0  0
    8.5782    3.4588    0.0000 H   0  0  0  0  0  0  0  0  0  0  0  0
    7.7313    3.6857    0.0000 H   0  0  0  0  0  0  0  0  0  0  0  0
    7.2122    3.8248    0.0000 H   0  0  0  0  0  0  0  0  0  0  0  0
    6.3653    4.0517    0.0000 H   0  0  0  0  0  0  0  0  0  0  0  0
    6.1383    3.2048    0.0000 H   0  0  0  0  0  0  0  0  0  0  0  0
    7.1383    1.4728    0.0000 H   0  0  0  0  0  0  0  0  0  0  0  0
    7.9853    1.2458    0.0000 H   0  0  0  0  0  0  0  0  0  0  0  0
    8.2122    2.0928    0.0000 H   0  0  0  0  0  0  0  0  0  0  0  0
    7.7122    0.9588    0.0000 H   0  0  0  0  0  0  0  0  0  0  0  0
    9.2364   -2.1612    0.0000 H   0  0  0  0  0  0  0  0  0  0  0  0
    4.9063    2.3388    0.0000 H   0  0  0  0  0  0  0  0  0  0  0  0
    6.0972   -0.2686    0.0000 H   0  0  0  0  0  0  0  0  0  0  0  0
    5.6987   -0.9589    0.0000 H   0  0  0  0  0  0  0  0  0  0  0  0
   11.1763   -2.0412    0.0000 H   0  0  0  0  0  0  0  0  0  0  0  0
    7.7122   -2.0412    0.0000 H   0  0  0  0  0  0  0  0  0  0  0  0
    4.9063   -2.0412    0.0000 H   0  0  0  0  0  0  0  0  0  0  0  0
    7.7122   -3.6612    0.0000 H   0  0  0  0  0  0  0  0  0  0  0  0
    4.9063   -3.6612    0.0000 H   0  0  0  0  0  0  0  0  0  0  0  0
    3.5348    3.1356    0.0000 H   0  0  0  0  0  0  0  0  0  0  0  0
   10.8948   -4.7436    0.0000 H   0  0  0  0  0  0  0  0  0  0  0  0
   11.2933   -5.4338    0.0000 H   0  0  0  0  0  0  0  0  0  0  0  0
    1.9352    4.9973    0.0000 H   0  0  0  0  0  0  0  0  0  0  0  0
    1.3834    4.3159    0.0000 H   0  0  0  0  0  0  0  0  0  0  0  0
    2.0648    3.7641    0.0000 H   0  0  0  0  0  0  0  0  0  0  0  0
   12.0614   -5.8882    0.0000 H   0  0  0  0  0  0  0  0  0  0  0  0
   12.9084   -5.6612    0.0000 H   0  0  0  0  0  0  0  0  0  0  0  0
   12.6814   -4.8143    0.0000 H   0  0  0  0  0  0  0  0  0  0  0  0
  1 40  1  0  0  0  0
  2 21  2  0  0  0  0
  3 26  2  0  0  0  0
  4 27  2  0  0  0  0
  5 31  2  0  0  0  0
  6 36  1  0  0  0  0
  6 42  1  0  0  0  0
  7 13  1  0  0  0  0
  7 41  1  0  0  0  0
  8 36  2  0  0  0  0
  9 20  1  0  0  0  0
  9 21  1  0  0  0  0
  9 54  1  0  0  0  0
 18 10  1  1  0  0  0
 10 27  1  0  0  0  0
 10 56  1  0  0  0  0
 22 11  1  6  0  0  0
 11 26  1  0  0  0  0
 11 66  1  0  0  0  0
 19 12  1  1  0  0  0
 12 31  1  0  0  0  0
 12 68  1  0  0  0  0
 13 35  2  0  0  0  0
 14 15  1  1  0  0  0
 14 16  1  0  0  0  0
 14 21  1  0  0  0  0
 14 45  1  0  0  0  0
 15 18  1  0  0  0  0
 15 46  1  0  0  0  0
 15 47  1  0  0  0  0
 16 20  1  0  0  0  0
 16 48  1  0  0  0  0
 16 49  1  0  0  0  0
 17 19  1  0  0  0  0
 17 23  1  0  0  0  0
 17 24  1  0  0  0  0
 17 25  1  0  0  0  0
 18 28  1  0  0  0  0
 18 50  1  0  0  0  0
 19 26  1  0  0  0  0
 19 51  1  0  0  0  0
 20 52  1  0  0  0  0
 20 53  1  0  0  0  0
 22 27  1  0  0  0  0
 22 29  1  0  0  0  0
 22 55  1  0  0  0  0
 23 57  1  0  0  0  0
 23 58  1  0  0  0  0
 23 59  1  0  0  0  0
 24 60  1  0  0  0  0
 24 61  1  0  0  0  0
 24 62  1  0  0  0  0
 25 63  1  0  0  0  0
 25 64  1  0  0  0  0
 25 65  1  0  0  0  0
 28 32  2  3  0  0  0
 28 67  1  0  0  0  0
 29 30  1  0  0  0  0
 29 69  1  0  0  0  0
 29 70  1  0  0  0  0
 30 33  2  0  0  0  0
 30 34  1  0  0  0  0
 31 35  1  0  0  0  0
 32 36  1  0  0  0  0
 32 71  1  0  0  0  0
 33 37  1  0  0  0  0
 33 72  1  0  0  0  0
 34 38  2  0  0  0  0
 34 73  1  0  0  0  0
 35 39  1  0  0  0  0
 37 40  2  0  0  0  0
 37 74  1  0  0  0  0
 38 40  1  0  0  0  0
 38 75  1  0  0  0  0
 39 41  2  0  0  0  0
 39 76  1  0  0  0  0
 41 43  1  0  0  0  0
 42 44  1  0  0  0  0
 42 77  1  0  0  0  0
 42 78  1  0  0  0  0
 43 79  1  0  0  0  0
 43 80  1  0  0  0  0
 43 81  1  0  0  0  0
 44 82  1  0  0  0  0
 44 83  1  0  0  0  0
 44 84  1  0  0  0  0
M  END
> <PUBCHEM_COMPOUND_CID>
501966
> <PUBCHEM_COMPOUND_CANONICALIZED>
1
> <PUBCHEM_CACTVS_COMPLEXITY>
1060
> <PUBCHEM_CACTVS_HBOND_ACCEPTOR>
9
> <PUBCHEM_CACTVS_HBOND_DONOR>
4
> <PUBCHEM_CACTVS_ROTATABLE_BOND>
15
> <PUBCHEM_CACTVS_SUBSKEYS>
AAADcfB7uQAAAAAAAAAAAAAAAAAAAWLAAAAwAAAAAAAAAAABwAAAHwAUAAAADyzhng4yjJLQBACpA6XyWgCCAAAmIgAomKG+bNoIZjqAtbOWMYhmlhiI6cc/iICPAAAAAAAAAAAAAAAAAAAAAAAAAAAAAA==
> <PUBCHEM_IUPAC_OPENEYE_NAME>
ethyl (4S)-4-[[(2S)-2-[[(2S)-3,3-dimethyl-2-[(5-methylisoxazole-3-carbonyl)amino]butanoyl]amino]-3-(4-fluorophenyl)propanoyl]amino]-5-[(3S)-2-oxopyrrolidin-3-yl]pent-2-enoate
> <PUBCHEM_IUPAC_CAS_NAME>
(4S)-4-[[(2S)-2-[[(2S)-3,3-dimethyl-2-[[(5-methyl-3-isoxazolyl)-oxomethyl]amino]-1-oxobutyl]amino]-3-(4-fluorophenyl)-1-oxopropyl]amino]-5-[(3S)-2-oxo-3-pyrrolidinyl]-2-pentenoic acid ethyl ester
> <PUBCHEM_IUPAC_NAME_MARKUP>
ethyl (4<I>S</I>)-4-[[(2<I>S</I>)-2-[[(2<I>S</I>)-3,3-dimethyl-2-[(5-methyl-1,2-oxazole-3-carbonyl)amino]butanoyl]amino]-3-(4-fluorophenyl)propanoyl]amino]-5-[(3<I>S</I>)-2-oxopyrrolidin-3-yl]pent-2-enoate
> <PUBCHEM_IUPAC_NAME>
ethyl (4S)-4-[[(2S)-2-[[(2S)-3,3-dimethyl-2-[(5-methyl-1,2-oxazole-3-carbonyl)amino]butanoyl]amino]-3-(4-fluorophenyl)propanoyl]amino]-5-[(3S)-2-oxopyrrolidin-3-yl]pent-2-enoate
> <PUBCHEM_IUPAC_SYSTEMATIC_NAME>
ethyl (4S)-4-[[(2S)-2-[[(2S)-3,3-dimethyl-2-[(5-methyl-1,2-oxazol-3-yl)carbonylamino]butanoyl]amino]-3-(4-fluorophenyl)propanoyl]amino]-5-[(3S)-2-oxidanylidenepyrrolidin-3-yl]pent-2-enoate
> <PUBCHEM_IUPAC_TRADITIONAL_NAME>
(4S)-4-[[(2S)-2-[[(2S)-3,3-dimethyl-2-[(5-methylisoxazole-3-carbonyl)amino]butanoyl]amino]-3-(4-fluorophenyl)propanoyl]amino]-5-[(3S)-2-ketopyrrolidin-3-yl]pent-2-enoic acid ethyl ester
> <PUBCHEM_IUPAC_INCHI>
InChI=1S/C31H40FN5O7/c1-6-43-25(38)12-11-22(17-20-13-14-33-27(20)39)34-28(40)23(16-19-7-9-21(32)10-8-19)35-30(42)26(31(3,4)5)36-29(41)24-15-18(2)44-37-24/h7-12,15,20,22-23,26H,6,13-14,16-17H2,1-5H3,(H,33,39)(H,34,40)(H,35,42)(H,36,41)/t20-,22+,23-,26+/m0/s1
> <PUBCHEM_IUPAC_INCHIKEY>
JBRKSGSKGATCEA-TYDNGALESA-N
> <PUBCHEM_XLOGP3_AA>
3.2
> <PUBCHEM_EXACT_MASS>
613.29117679
> <PUBCHEM_MOLECULAR_FORMULA>
C31H40FN5O7
> <PUBCHEM_MOLECULAR_WEIGHT>
613.7
> <PUBCHEM_OPENEYE_CAN_SMILES>
CCOC(=O)C=CC(CC1CCNC1=O)NC(=O)C(CC2=CC=C(C=C2)F)NC(=O)C(C(C)(C)C)NC(=O)C3=NOC(=C3)C
> <PUBCHEM_OPENEYE_ISO_SMILES>
CCOC(=O)C=C[C@H](C[C@@H]1CCNC1=O)NC(=O)[C@H](CC2=CC=C(C=C2)F)NC(=O)[C@H](C(C)(C)C)NC(=O)C3=NOC(=C3)C
> <PUBCHEM_CACTVS_TPSA>
169
> <PUBCHEM_MONOISOTOPIC_WEIGHT>
613.29117679
> <PUBCHEM_TOTAL_CHARGE>
0
> <PUBCHEM_HEAVY_ATOM_COUNT>
44
> <PUBCHEM_ATOM_DEF_STEREO_COUNT>
4
> <PUBCHEM_ATOM_UDEF_STEREO_COUNT>
0
> <PUBCHEM_BOND_DEF_STEREO_COUNT>
0
> <PUBCHEM_BOND_UDEF_STEREO_COUNT>
1
> <PUBCHEM_ISOTOPIC_ATOM_COUNT>
0
> <PUBCHEM_COMPONENT_COUNT>
1
> <PUBCHEM_CACTVS_TAUTO_COUNT>
-1
> <PUBCHEM_COORDINATE_TYPE>
1
5
255
> <PUBCHEM_BONDANNOTATIONS>
18  10  5
22  11  6
19  12  5
13  35  8
14  15  5
28  32  1
30  33  8
30  34  8
33  37  8
34  38  8
35  39  8
37  40  8
38  40  8
39  41  8
7  13  8
7  41  8
$$$$
