501963
  -OEChem-10302200282D
 86 88  0     1  0  0  0  0  0999 V2000
   12.6477   -0.3651    0.0000 O   0  0  0  0  0  0  0  0  0  0  0  0
    8.0622   -2.7500    0.0000 O   0  0  0  0  0  0  0  0  0  0  0  0
    5.4641   -0.2500    0.0000 O   0  0  0  0  0  0  0  0  0  0  0  0
   11.5263   -4.7500    0.0000 O   0  0  0  0  0  0  0  0  0  0  0  0
    4.5981    3.2500    0.0000 O   0  0  0  0  0  0  0  0  0  0  0  0
    9.7942   -4.7500    0.0000 O   0  0  0  0  0  0  0  0  0  0  0  0
    6.3301    3.2500    0.0000 O   0  0  0  0  0  0  0  0  0  0  0  0
   13.1090   -2.0864    0.0000 N   0  0  0  0  0  0  0  0  0  0  0  0
    8.9282   -1.2500    0.0000 N   0  0  0  0  0  0  0  0  0  0  0  0
    7.1962   -0.2500    0.0000 N   0  0  0  0  0  0  0  0  0  0  0  0
    5.4641    1.7500    0.0000 N   0  0  0  0  0  0  0  0  0  0  0  0
   11.5263   -1.7500    0.0000 C   0  0  2  0  0  0  0  0  0  0  0  0
   10.6603   -1.2500    0.0000 C   0  0  0  0  0  0  0  0  0  0  0  0
   11.6308   -2.7445    0.0000 C   0  0  0  0  0  0  0  0  0  0  0  0
    9.7942   -1.7500    0.0000 C   0  0  1  0  0  0  0  0  0  0  0  0
   12.6090   -2.9524    0.0000 C   0  0  0  0  0  0  0  0  0  0  0  0
   12.4398   -1.3433    0.0000 C   0  0  0  0  0  0  0  0  0  0  0  0
    7.1962   -1.2500    0.0000 C   0  0  2  0  0  0  0  0  0  0  0  0
    9.7942   -2.7500    0.0000 C   0  0  0  0  0  0  0  0  0  0  0  0
    8.0622   -1.7500    0.0000 C   0  0  0  0  0  0  0  0  0  0  0  0
    6.3301   -1.7500    0.0000 C   0  0  0  0  0  0  0  0  0  0  0  0
    6.3301    1.2500    0.0000 C   0  0  1  0  0  0  0  0  0  0  0  0
    7.1962    1.7500    0.0000 C   0  0  0  0  0  0  0  0  0  0  0  0
    6.3301    0.2500    0.0000 C   0  0  0  0  0  0  0  0  0  0  0  0
   10.6603   -3.2500    0.0000 C   0  0  0  0  0  0  0  0  0  0  0  0
    6.3301   -2.7500    0.0000 C   0  0  0  0  0  0  0  0  0  0  0  0
    7.1962    2.7500    0.0000 C   0  0  0  0  0  0  0  0  0  0  0  0
    8.0622    1.2500    0.0000 C   0  0  0  0  0  0  0  0  0  0  0  0
    7.1962   -3.2500    0.0000 C   0  0  0  0  0  0  0  0  0  0  0  0
    5.4641   -3.2500    0.0000 C   0  0  0  0  0  0  0  0  0  0  0  0
   10.6603   -4.2500    0.0000 C   0  0  0  0  0  0  0  0  0  0  0  0
    5.4641    2.7500    0.0000 C   0  0  0  0  0  0  0  0  0  0  0  0
    7.1962   -4.2500    0.0000 C   0  0  0  0  0  0  0  0  0  0  0  0
    5.4641   -4.2500    0.0000 C   0  0  0  0  0  0  0  0  0  0  0  0
    6.3301   -4.7500    0.0000 C   0  0  0  0  0  0  0  0  0  0  0  0
   11.5263   -5.7500    0.0000 C   0  0  0  0  0  0  0  0  0  0  0  0
    4.5981    4.2500    0.0000 C   0  0  0  0  0  0  0  0  0  0  0  0
    3.7320    4.7500    0.0000 C   0  0  0  0  0  0  0  0  0  0  0  0
   12.3923   -6.2500    0.0000 C   0  0  0  0  0  0  0  0  0  0  0  0
    3.7320    5.7500    0.0000 C   0  0  0  0  0  0  0  0  0  0  0  0
    2.8660    4.2500    0.0000 C   0  0  0  0  0  0  0  0  0  0  0  0
    2.8660    6.2500    0.0000 C   0  0  0  0  0  0  0  0  0  0  0  0
    2.0000    4.7500    0.0000 C   0  0  0  0  0  0  0  0  0  0  0  0
    2.0000    5.7500    0.0000 C   0  0  0  0  0  0  0  0  0  0  0  0
   11.0063   -2.0877    0.0000 H   0  0  0  0  0  0  0  0  0  0  0  0
   11.0588   -0.7751    0.0000 H   0  0  0  0  0  0  0  0  0  0  0  0
   10.2617   -0.7751    0.0000 H   0  0  0  0  0  0  0  0  0  0  0  0
   11.0108   -2.7445    0.0000 H   0  0  0  0  0  0  0  0  0  0  0  0
   11.5660   -3.3611    0.0000 H   0  0  0  0  0  0  0  0  0  0  0  0
    9.2573   -2.0600    0.0000 H   0  0  0  0  0  0  0  0  0  0  0  0
   12.4174   -3.5421    0.0000 H   0  0  0  0  0  0  0  0  0  0  0  0
   13.1754   -3.2046    0.0000 H   0  0  0  0  0  0  0  0  0  0  0  0
   13.7256   -2.0216    0.0000 H   0  0  0  0  0  0  0  0  0  0  0  0
    8.9282   -0.6300    0.0000 H   0  0  0  0  0  0  0  0  0  0  0  0
    6.6592   -0.9400    0.0000 H   0  0  0  0  0  0  0  0  0  0  0  0
    9.2573   -3.0600    0.0000 H   0  0  0  0  0  0  0  0  0  0  0  0
    6.1181   -1.1674    0.0000 H   0  0  0  0  0  0  0  0  0  0  0  0
    5.7196   -1.8577    0.0000 H   0  0  0  0  0  0  0  0  0  0  0  0
    5.7932    0.9400    0.0000 H   0  0  0  0  0  0  0  0  0  0  0  0
    6.6592    2.0600    0.0000 H   0  0  0  0  0  0  0  0  0  0  0  0
    7.7331    0.0600    0.0000 H   0  0  0  0  0  0  0  0  0  0  0  0
   11.1972   -2.9400    0.0000 H   0  0  0  0  0  0  0  0  0  0  0  0
    7.8162    2.7500    0.0000 H   0  0  0  0  0  0  0  0  0  0  0  0
    7.1962    3.3700    0.0000 H   0  0  0  0  0  0  0  0  0  0  0  0
    6.5762    2.7500    0.0000 H   0  0  0  0  0  0  0  0  0  0  0  0
    7.7522    0.7131    0.0000 H   0  0  0  0  0  0  0  0  0  0  0  0
    8.5991    0.9400    0.0000 H   0  0  0  0  0  0  0  0  0  0  0  0
    8.3722    1.7869    0.0000 H   0  0  0  0  0  0  0  0  0  0  0  0
    4.9272    1.4400    0.0000 H   0  0  0  0  0  0  0  0  0  0  0  0
    7.7331   -2.9400    0.0000 H   0  0  0  0  0  0  0  0  0  0  0  0
    4.9272   -2.9400    0.0000 H   0  0  0  0  0  0  0  0  0  0  0  0
    7.7331   -4.5600    0.0000 H   0  0  0  0  0  0  0  0  0  0  0  0
    4.9272   -4.5600    0.0000 H   0  0  0  0  0  0  0  0  0  0  0  0
    6.3301   -5.3700    0.0000 H   0  0  0  0  0  0  0  0  0  0  0  0
   10.9157   -5.6423    0.0000 H   0  0  0  0  0  0  0  0  0  0  0  0
   11.3142   -6.3326    0.0000 H   0  0  0  0  0  0  0  0  0  0  0  0
    5.2087    4.1423    0.0000 H   0  0  0  0  0  0  0  0  0  0  0  0
    4.8101    4.8326    0.0000 H   0  0  0  0  0  0  0  0  0  0  0  0
   12.0823   -6.7869    0.0000 H   0  0  0  0  0  0  0  0  0  0  0  0
   12.9292   -6.5600    0.0000 H   0  0  0  0  0  0  0  0  0  0  0  0
   12.7023   -5.7131    0.0000 H   0  0  0  0  0  0  0  0  0  0  0  0
    4.2690    6.0600    0.0000 H   0  0  0  0  0  0  0  0  0  0  0  0
    2.8660    3.6300    0.0000 H   0  0  0  0  0  0  0  0  0  0  0  0
    2.8660    6.8700    0.0000 H   0  0  0  0  0  0  0  0  0  0  0  0
    1.4631    4.4400    0.0000 H   0  0  0  0  0  0  0  0  0  0  0  0
    1.4631    6.0600    0.0000 H   0  0  0  0  0  0  0  0  0  0  0  0
  1 17  2  0  0  0  0
  2 20  2  0  0  0  0
  3 24  2  0  0  0  0
  4 31  1  0  0  0  0
  4 36  1  0  0  0  0
  5 32  1  0  0  0  0
  5 37  1  0  0  0  0
  6 31  2  0  0  0  0
  7 32  2  0  0  0  0
  8 16  1  0  0  0  0
  8 17  1  0  0  0  0
  8 53  1  0  0  0  0
 15  9  1  1  0  0  0
  9 20  1  0  0  0  0
  9 54  1  0  0  0  0
 18 10  1  6  0  0  0
 10 24  1  0  0  0  0
 10 61  1  0  0  0  0
 22 11  1  1  0  0  0
 11 32  1  0  0  0  0
 11 69  1  0  0  0  0
 12 13  1  1  0  0  0
 12 14  1  0  0  0  0
 12 17  1  0  0  0  0
 12 45  1  0  0  0  0
 13 15  1  0  0  0  0
 13 46  1  0  0  0  0
 13 47  1  0  0  0  0
 14 16  1  0  0  0  0
 14 48  1  0  0  0  0
 14 49  1  0  0  0  0
 15 19  1  0  0  0  0
 15 50  1  0  0  0  0
 16 51  1  0  0  0  0
 16 52  1  0  0  0  0
 18 20  1  0  0  0  0
 18 21  1  0  0  0  0
 18 55  1  0  0  0  0
 19 25  2  3  0  0  0
 19 56  1  0  0  0  0
 21 26  1  0  0  0  0
 21 57  1  0  0  0  0
 21 58  1  0  0  0  0
 22 23  1  0  0  0  0
 22 24  1  0  0  0  0
 22 59  1  0  0  0  0
 23 27  1  0  0  0  0
 23 28  1  0  0  0  0
 23 60  1  0  0  0  0
 25 31  1  0  0  0  0
 25 62  1  0  0  0  0
 26 29  2  0  0  0  0
 26 30  1  0  0  0  0
 27 63  1  0  0  0  0
 27 64  1  0  0  0  0
 27 65  1  0  0  0  0
 28 66  1  0  0  0  0
 28 67  1  0  0  0  0
 28 68  1  0  0  0  0
 29 33  1  0  0  0  0
 29 70  1  0  0  0  0
 30 34  2  0  0  0  0
 30 71  1  0  0  0  0
 33 35  2  0  0  0  0
 33 72  1  0  0  0  0
 34 35  1  0  0  0  0
 34 73  1  0  0  0  0
 35 74  1  0  0  0  0
 36 39  1  0  0  0  0
 36 75  1  0  0  0  0
 36 76  1  0  0  0  0
 37 38  1  0  0  0  0
 37 77  1  0  0  0  0
 37 78  1  0  0  0  0
 38 40  2  0  0  0  0
 38 41  1  0  0  0  0
 39 79  1  0  0  0  0
 39 80  1  0  0  0  0
 39 81  1  0  0  0  0
 40 42  1  0  0  0  0
 40 82  1  0  0  0  0
 41 43  2  0  0  0  0
 41 83  1  0  0  0  0
 42 44  2  0  0  0  0
 42 84  1  0  0  0  0
 43 44  1  0  0  0  0
 43 85  1  0  0  0  0
 44 86  1  0  0  0  0
M  END
> <PUBCHEM_COMPOUND_CID>
501963
> <PUBCHEM_COMPOUND_CANONICALIZED>
1
> <PUBCHEM_CACTVS_COMPLEXITY>
989
> <PUBCHEM_CACTVS_HBOND_ACCEPTOR>
7
> <PUBCHEM_CACTVS_HBOND_DONOR>
4
> <PUBCHEM_CACTVS_ROTATABLE_BOND>
17
> <PUBCHEM_CACTVS_SUBSKEYS>
AAADcfB/uAAAAAAAAAAAAAAAAAAAAWAAAAAwYAAAAAAAAAABQAAAHgAQAAAADSjhmAYyCILABACIAiHSGACCAAAgAAAIiIGICMkIZjKAsTmeMAAk1gGIqYecyKCOAAAAAAAAAAAAAAAAAAAAAAAAAAAAAA==
> <PUBCHEM_IUPAC_OPENEYE_NAME>
ethyl (4S)-4-[[(2S)-2-[[(2S)-2-(benzyloxycarbonylamino)-3-methyl-butanoyl]amino]-3-phenyl-propanoyl]amino]-5-[(3S)-2-oxopyrrolidin-3-yl]pent-2-enoate
> <PUBCHEM_IUPAC_CAS_NAME>
(4S)-4-[[(2S)-2-[[(2S)-3-methyl-1-oxo-2-(phenylmethoxycarbonylamino)butyl]amino]-1-oxo-3-phenylpropyl]amino]-5-[(3S)-2-oxo-3-pyrrolidinyl]-2-pentenoic acid ethyl ester
> <PUBCHEM_IUPAC_NAME_MARKUP>
ethyl (4<I>S</I>)-4-[[(2<I>S</I>)-2-[[(2<I>S</I>)-3-methyl-2-(phenylmethoxycarbonylamino)butanoyl]amino]-3-phenylpropanoyl]amino]-5-[(3<I>S</I>)-2-oxopyrrolidin-3-yl]pent-2-enoate
> <PUBCHEM_IUPAC_NAME>
ethyl (4S)-4-[[(2S)-2-[[(2S)-3-methyl-2-(phenylmethoxycarbonylamino)butanoyl]amino]-3-phenylpropanoyl]amino]-5-[(3S)-2-oxopyrrolidin-3-yl]pent-2-enoate
> <PUBCHEM_IUPAC_SYSTEMATIC_NAME>
ethyl (4S)-4-[[(2S)-2-[[(2S)-3-methyl-2-(phenylmethoxycarbonylamino)butanoyl]amino]-3-phenyl-propanoyl]amino]-5-[(3S)-2-oxidanylidenepyrrolidin-3-yl]pent-2-enoate
> <PUBCHEM_IUPAC_TRADITIONAL_NAME>
(4S)-4-[[(2S)-2-[[(2S)-2-(benzyloxycarbonylamino)-3-methyl-butanoyl]amino]-3-phenyl-propanoyl]amino]-5-[(3S)-2-ketopyrrolidin-3-yl]pent-2-enoic acid ethyl ester
> <PUBCHEM_IUPAC_INCHI>
InChI=1S/C33H42N4O7/c1-4-43-28(38)16-15-26(20-25-17-18-34-30(25)39)35-31(40)27(19-23-11-7-5-8-12-23)36-32(41)29(22(2)3)37-33(42)44-21-24-13-9-6-10-14-24/h5-16,22,25-27,29H,4,17-21H2,1-3H3,(H,34,39)(H,35,40)(H,36,41)(H,37,42)/t25-,26+,27-,29-/m0/s1
> <PUBCHEM_IUPAC_INCHIKEY>
MQOSRSSZYUXZNH-UMNYJUJISA-N
> <PUBCHEM_XLOGP3_AA>
3.8
> <PUBCHEM_EXACT_MASS>
606.30534969
> <PUBCHEM_MOLECULAR_FORMULA>
C33H42N4O7
> <PUBCHEM_MOLECULAR_WEIGHT>
606.7
> <PUBCHEM_OPENEYE_CAN_SMILES>
CCOC(=O)C=CC(CC1CCNC1=O)NC(=O)C(CC2=CC=CC=C2)NC(=O)C(C(C)C)NC(=O)OCC3=CC=CC=C3
> <PUBCHEM_OPENEYE_ISO_SMILES>
CCOC(=O)C=C[C@H](C[C@@H]1CCNC1=O)NC(=O)[C@H](CC2=CC=CC=C2)NC(=O)[C@H](C(C)C)NC(=O)OCC3=CC=CC=C3
> <PUBCHEM_CACTVS_TPSA>
152
> <PUBCHEM_MONOISOTOPIC_WEIGHT>
606.30534969
> <PUBCHEM_TOTAL_CHARGE>
0
> <PUBCHEM_HEAVY_ATOM_COUNT>
44
> <PUBCHEM_ATOM_DEF_STEREO_COUNT>
4
> <PUBCHEM_ATOM_UDEF_STEREO_COUNT>
0
> <PUBCHEM_BOND_DEF_STEREO_COUNT>
0
> <PUBCHEM_BOND_UDEF_STEREO_COUNT>
1
> <PUBCHEM_ISOTOPIC_ATOM_COUNT>
0
> <PUBCHEM_COMPONENT_COUNT>
1
> <PUBCHEM_CACTVS_TAUTO_COUNT>
-1
> <PUBCHEM_COORDINATE_TYPE>
1
5
255
> <PUBCHEM_BONDANNOTATIONS>
18  10  6
22  11  5
12  13  5
19  25  1
26  29  8
26  30  8
29  33  8
30  34  8
33  35  8
34  35  8
38  40  8
38  41  8
40  42  8
41  43  8
42  44  8
43  44  8
15  9  5
$$$$
