501903
  -OEChem-10302200282D
 82 84  0     1  0  0  0  0  0999 V2000
    3.7320   -0.6900    0.0000 O   0  0  0  0  0  0  0  0  0  0  0  0
    6.3301   -3.1900    0.0000 O   0  0  0  0  0  0  0  0  0  0  0  0
    6.3301    2.8100    0.0000 O   0  0  0  0  0  0  0  0  0  0  0  0
    4.5981    2.8100    0.0000 O   0  0  0  0  0  0  0  0  0  0  0  0
    8.0622   -5.1900    0.0000 O   0  0  0  0  0  0  0  0  0  0  0  0
   11.5738   -2.0967    0.0000 O   0  0  0  0  0  0  0  0  0  0  0  0
    5.4641   -0.6900    0.0000 N   0  0  0  0  0  0  0  0  0  0  0  0
    5.4641    1.3100    0.0000 N   0  0  0  0  0  0  0  0  0  0  0  0
    7.1962   -1.6900    0.0000 N   0  0  0  0  0  0  0  0  0  0  0  0
    9.7942   -5.1900    0.0000 N   0  0  0  0  0  0  0  0  0  0  0  0
   12.2429   -1.3536    0.0000 N   0  0  0  0  0  0  0  0  0  0  0  0
    3.7320    1.3100    0.0000 C   0  0  0  0  0  0  0  0  0  0  0  0
    4.5981    0.8100    0.0000 C   0  0  1  0  0  0  0  0  0  0  0  0
    2.8660    0.8100    0.0000 C   0  0  0  0  0  0  0  0  0  0  0  0
    5.4641   -1.6900    0.0000 C   0  0  1  0  0  0  0  0  0  0  0  0
    4.5981   -0.1900    0.0000 C   0  0  0  0  0  0  0  0  0  0  0  0
    4.5981   -2.1900    0.0000 C   0  0  0  0  0  0  0  0  0  0  0  0
    2.0000    1.3100    0.0000 C   0  0  0  0  0  0  0  0  0  0  0  0
    2.8660   -0.1900    0.0000 C   0  0  0  0  0  0  0  0  0  0  0  0
    8.0622   -2.1900    0.0000 C   0  0  1  0  0  0  0  0  0  0  0  0
    6.3301   -2.1900    0.0000 C   0  0  0  0  0  0  0  0  0  0  0  0
    8.0622   -3.1900    0.0000 C   0  0  0  0  0  0  0  0  0  0  0  0
    4.5981   -3.1900    0.0000 C   0  0  0  0  0  0  0  0  0  0  0  0
    8.9282   -3.6900    0.0000 C   0  0  0  0  0  0  0  0  0  0  0  0
    8.9282   -1.6900    0.0000 C   0  0  0  0  0  0  0  0  0  0  0  0
    5.4641    2.3100    0.0000 C   0  0  0  0  0  0  0  0  0  0  0  0
    5.4641   -3.6900    0.0000 C   0  0  0  0  0  0  0  0  0  0  0  0
    3.7320   -3.6900    0.0000 C   0  0  0  0  0  0  0  0  0  0  0  0
    9.7942   -2.1900    0.0000 C   0  0  0  0  0  0  0  0  0  0  0  0
    8.9282   -4.6900    0.0000 C   0  0  0  0  0  0  0  0  0  0  0  0
    5.4641   -4.6900    0.0000 C   0  0  0  0  0  0  0  0  0  0  0  0
    3.7320   -4.6900    0.0000 C   0  0  0  0  0  0  0  0  0  0  0  0
    4.5981   -5.1900    0.0000 C   0  0  0  0  0  0  0  0  0  0  0  0
    6.3301    3.8100    0.0000 C   0  0  0  0  0  0  0  0  0  0  0  0
   10.6603   -1.6900    0.0000 C   0  0  0  0  0  0  0  0  0  0  0  0
    7.1962    4.3100    0.0000 C   0  0  0  0  0  0  0  0  0  0  0  0
   10.7648   -0.6955    0.0000 C   0  0  0  0  0  0  0  0  0  0  0  0
    7.1962    5.3100    0.0000 C   0  0  0  0  0  0  0  0  0  0  0  0
    8.0622    3.8100    0.0000 C   0  0  0  0  0  0  0  0  0  0  0  0
   11.7429   -0.4876    0.0000 C   0  0  0  0  0  0  0  0  0  0  0  0
    8.0622    5.8100    0.0000 C   0  0  0  0  0  0  0  0  0  0  0  0
    8.9282    4.3100    0.0000 C   0  0  0  0  0  0  0  0  0  0  0  0
    8.9282    5.3100    0.0000 C   0  0  0  0  0  0  0  0  0  0  0  0
    4.1306    1.7850    0.0000 H   0  0  0  0  0  0  0  0  0  0  0  0
    3.3335    1.7850    0.0000 H   0  0  0  0  0  0  0  0  0  0  0  0
    4.5981    1.4300    0.0000 H   0  0  0  0  0  0  0  0  0  0  0  0
    2.8660    1.4300    0.0000 H   0  0  0  0  0  0  0  0  0  0  0  0
    6.0010   -1.3800    0.0000 H   0  0  0  0  0  0  0  0  0  0  0  0
    4.3860   -1.6074    0.0000 H   0  0  0  0  0  0  0  0  0  0  0  0
    3.9875   -2.2977    0.0000 H   0  0  0  0  0  0  0  0  0  0  0  0
    6.0010   -0.3800    0.0000 H   0  0  0  0  0  0  0  0  0  0  0  0
    2.3100    1.8469    0.0000 H   0  0  0  0  0  0  0  0  0  0  0  0
    1.4631    1.6200    0.0000 H   0  0  0  0  0  0  0  0  0  0  0  0
    1.6900    0.7731    0.0000 H   0  0  0  0  0  0  0  0  0  0  0  0
    2.2460   -0.1900    0.0000 H   0  0  0  0  0  0  0  0  0  0  0  0
    2.8660   -0.8100    0.0000 H   0  0  0  0  0  0  0  0  0  0  0  0
    3.4860   -0.1900    0.0000 H   0  0  0  0  0  0  0  0  0  0  0  0
    8.0622   -1.5700    0.0000 H   0  0  0  0  0  0  0  0  0  0  0  0
    6.0010    1.0000    0.0000 H   0  0  0  0  0  0  0  0  0  0  0  0
    7.1962   -1.0700    0.0000 H   0  0  0  0  0  0  0  0  0  0  0  0
    7.4516   -3.0823    0.0000 H   0  0  0  0  0  0  0  0  0  0  0  0
    7.8501   -3.7726    0.0000 H   0  0  0  0  0  0  0  0  0  0  0  0
    9.5388   -3.7977    0.0000 H   0  0  0  0  0  0  0  0  0  0  0  0
    9.1403   -3.1074    0.0000 H   0  0  0  0  0  0  0  0  0  0  0  0
    8.9282   -1.0700    0.0000 H   0  0  0  0  0  0  0  0  0  0  0  0
    6.0010   -3.3800    0.0000 H   0  0  0  0  0  0  0  0  0  0  0  0
    3.1951   -3.3800    0.0000 H   0  0  0  0  0  0  0  0  0  0  0  0
    9.7942   -2.8100    0.0000 H   0  0  0  0  0  0  0  0  0  0  0  0
    6.0010   -5.0000    0.0000 H   0  0  0  0  0  0  0  0  0  0  0  0
    3.1951   -5.0000    0.0000 H   0  0  0  0  0  0  0  0  0  0  0  0
    4.5981   -5.8100    0.0000 H   0  0  0  0  0  0  0  0  0  0  0  0
    6.1181    4.3926    0.0000 H   0  0  0  0  0  0  0  0  0  0  0  0
    5.7196    3.7023    0.0000 H   0  0  0  0  0  0  0  0  0  0  0  0
    9.7942   -5.8100    0.0000 H   0  0  0  0  0  0  0  0  0  0  0  0
   10.3312   -4.8800    0.0000 H   0  0  0  0  0  0  0  0  0  0  0  0
   10.3040   -0.2806    0.0000 H   0  0  0  0  0  0  0  0  0  0  0  0
    6.6592    5.6200    0.0000 H   0  0  0  0  0  0  0  0  0  0  0  0
    8.0622    3.1900    0.0000 H   0  0  0  0  0  0  0  0  0  0  0  0
   11.9951    0.0788    0.0000 H   0  0  0  0  0  0  0  0  0  0  0  0
    8.0622    6.4300    0.0000 H   0  0  0  0  0  0  0  0  0  0  0  0
    9.4651    4.0000    0.0000 H   0  0  0  0  0  0  0  0  0  0  0  0
    9.4651    5.6200    0.0000 H   0  0  0  0  0  0  0  0  0  0  0  0
  1 16  2  0  0  0  0
  2 21  2  0  0  0  0
  3 26  1  0  0  0  0
  3 34  1  0  0  0  0
  4 26  2  0  0  0  0
  5 30  2  0  0  0  0
  6 11  1  0  0  0  0
  6 35  1  0  0  0  0
 15  7  1  6  0  0  0
  7 16  1  0  0  0  0
  7 51  1  0  0  0  0
 13  8  1  6  0  0  0
  8 26  1  0  0  0  0
  8 59  1  0  0  0  0
 20  9  1  6  0  0  0
  9 21  1  0  0  0  0
  9 60  1  0  0  0  0
 10 30  1  0  0  0  0
 10 74  1  0  0  0  0
 10 75  1  0  0  0  0
 11 40  2  0  0  0  0
 12 13  1  0  0  0  0
 12 14  1  0  0  0  0
 12 44  1  0  0  0  0
 12 45  1  0  0  0  0
 13 16  1  0  0  0  0
 13 46  1  0  0  0  0
 14 18  1  0  0  0  0
 14 19  1  0  0  0  0
 14 47  1  0  0  0  0
 15 17  1  0  0  0  0
 15 21  1  0  0  0  0
 15 48  1  0  0  0  0
 17 23  1  0  0  0  0
 17 49  1  0  0  0  0
 17 50  1  0  0  0  0
 18 52  1  0  0  0  0
 18 53  1  0  0  0  0
 18 54  1  0  0  0  0
 19 55  1  0  0  0  0
 19 56  1  0  0  0  0
 19 57  1  0  0  0  0
 20 22  1  0  0  0  0
 20 25  1  0  0  0  0
 20 58  1  0  0  0  0
 22 24  1  0  0  0  0
 22 61  1  0  0  0  0
 22 62  1  0  0  0  0
 23 27  2  0  0  0  0
 23 28  1  0  0  0  0
 24 30  1  0  0  0  0
 24 63  1  0  0  0  0
 24 64  1  0  0  0  0
 25 29  2  3  0  0  0
 25 65  1  0  0  0  0
 27 31  1  0  0  0  0
 27 66  1  0  0  0  0
 28 32  2  0  0  0  0
 28 67  1  0  0  0  0
 29 35  1  0  0  0  0
 29 68  1  0  0  0  0
 31 33  2  0  0  0  0
 31 69  1  0  0  0  0
 32 33  1  0  0  0  0
 32 70  1  0  0  0  0
 33 71  1  0  0  0  0
 34 36  1  0  0  0  0
 34 72  1  0  0  0  0
 34 73  1  0  0  0  0
 35 37  2  0  0  0  0
 36 38  2  0  0  0  0
 36 39  1  0  0  0  0
 37 40  1  0  0  0  0
 37 76  1  0  0  0  0
 38 41  1  0  0  0  0
 38 77  1  0  0  0  0
 39 42  2  0  0  0  0
 39 78  1  0  0  0  0
 40 79  1  0  0  0  0
 41 43  2  0  0  0  0
 41 80  1  0  0  0  0
 42 43  1  0  0  0  0
 42 81  1  0  0  0  0
 43 82  1  0  0  0  0
M  END
> <PUBCHEM_COMPOUND_CID>
501903
> <PUBCHEM_COMPOUND_CANONICALIZED>
1
> <PUBCHEM_CACTVS_COMPLEXITY>
916
> <PUBCHEM_CACTVS_HBOND_ACCEPTOR>
7
> <PUBCHEM_CACTVS_HBOND_DONOR>
4
> <PUBCHEM_CACTVS_ROTATABLE_BOND>
17
> <PUBCHEM_CACTVS_SUBSKEYS>
AAADcfB/uAAAAAAAAAAAAAAAAAAAAWAAAAAwYAAAAAAAAAAB0AAAHgAUAAAADSzhmgY+jJLQBACpArF3WgCCAAAkIgAomKG+bNsIZjqAsbmcMIBm1gmI6cecyKCOAAAAAAAAAAAAAAAAAAAAAAAAAAAAAA==
> <PUBCHEM_IUPAC_OPENEYE_NAME>
benzyl N-[(1S)-1-[[(1S)-2-[[(1S)-4-amino-1-(2-isoxazol-5-ylvinyl)-4-oxo-butyl]amino]-1-benzyl-2-oxo-ethyl]carbamoyl]-3-methyl-butyl]carbamate
> <PUBCHEM_IUPAC_CAS_NAME>
N-[(2S)-1-[[(2S)-1-[[(3S)-6-amino-1-(5-isoxazolyl)-6-oxohex-1-en-3-yl]amino]-1-oxo-3-phenylpropan-2-yl]amino]-4-methyl-1-oxopentan-2-yl]carbamic acid (phenylmethyl) ester
> <PUBCHEM_IUPAC_NAME_MARKUP>
benzyl <I>N</I>-[(2<I>S</I>)-1-[[(2<I>S</I>)-1-[[(3<I>S</I>)-6-amino-1-(1,2-oxazol-5-yl)-6-oxohex-1-en-3-yl]amino]-1-oxo-3-phenylpropan-2-yl]amino]-4-methyl-1-oxopentan-2-yl]carbamate
> <PUBCHEM_IUPAC_NAME>
benzyl N-[(2S)-1-[[(2S)-1-[[(3S)-6-amino-1-(1,2-oxazol-5-yl)-6-oxohex-1-en-3-yl]amino]-1-oxo-3-phenylpropan-2-yl]amino]-4-methyl-1-oxopentan-2-yl]carbamate
> <PUBCHEM_IUPAC_SYSTEMATIC_NAME>
(phenylmethyl) N-[(2S)-1-[[(2S)-1-[[(3S)-6-azanyl-1-(1,2-oxazol-5-yl)-6-oxidanylidene-hex-1-en-3-yl]amino]-1-oxidanylidene-3-phenyl-propan-2-yl]amino]-4-methyl-1-oxidanylidene-pentan-2-yl]carbamate
> <PUBCHEM_IUPAC_TRADITIONAL_NAME>
N-[(1S)-1-[[(1S)-2-[[(1S)-1-(3-amino-3-keto-propyl)-3-isoxazol-5-yl-allyl]amino]-1-benzyl-2-keto-ethyl]carbamoyl]-3-methyl-butyl]carbamic acid benzyl ester
> <PUBCHEM_IUPAC_INCHI>
InChI=1S/C32H39N5O6/c1-22(2)19-27(37-32(41)42-21-24-11-7-4-8-12-24)31(40)36-28(20-23-9-5-3-6-10-23)30(39)35-25(14-16-29(33)38)13-15-26-17-18-34-43-26/h3-13,15,17-18,22,25,27-28H,14,16,19-21H2,1-2H3,(H2,33,38)(H,35,39)(H,36,40)(H,37,41)/t25-,27+,28+/m1/s1
> <PUBCHEM_IUPAC_INCHIKEY>
SMSVZAATDLJXKP-PKXQUSJVSA-N
> <PUBCHEM_XLOGP3_AA>
3.7
> <PUBCHEM_EXACT_MASS>
589.29003398
> <PUBCHEM_MOLECULAR_FORMULA>
C32H39N5O6
> <PUBCHEM_MOLECULAR_WEIGHT>
589.7
> <PUBCHEM_OPENEYE_CAN_SMILES>
CC(C)CC(C(=O)NC(CC1=CC=CC=C1)C(=O)NC(CCC(=O)N)C=CC2=CC=NO2)NC(=O)OCC3=CC=CC=C3
> <PUBCHEM_OPENEYE_ISO_SMILES>
CC(C)C[C@@H](C(=O)N[C@@H](CC1=CC=CC=C1)C(=O)N[C@@H](CCC(=O)N)C=CC2=CC=NO2)NC(=O)OCC3=CC=CC=C3
> <PUBCHEM_CACTVS_TPSA>
166
> <PUBCHEM_MONOISOTOPIC_WEIGHT>
589.29003398
> <PUBCHEM_TOTAL_CHARGE>
0
> <PUBCHEM_HEAVY_ATOM_COUNT>
43
> <PUBCHEM_ATOM_DEF_STEREO_COUNT>
3
> <PUBCHEM_ATOM_UDEF_STEREO_COUNT>
0
> <PUBCHEM_BOND_DEF_STEREO_COUNT>
0
> <PUBCHEM_BOND_UDEF_STEREO_COUNT>
1
> <PUBCHEM_ISOTOPIC_ATOM_COUNT>
0
> <PUBCHEM_COMPONENT_COUNT>
1
> <PUBCHEM_CACTVS_TAUTO_COUNT>
-1
> <PUBCHEM_COORDINATE_TYPE>
1
5
255
> <PUBCHEM_BONDANNOTATIONS>
11  40  8
23  27  8
23  28  8
25  29  1
27  31  8
28  32  8
31  33  8
32  33  8
35  37  8
36  38  8
36  39  8
37  40  8
38  41  8
39  42  8
41  43  8
42  43  8
6  11  8
6  35  8
15  7  6
13  8  6
20  9  6
$$$$
