501943
  -OEChem-10302200282D
 35 37  0     1  0  0  0  0  0999 V2000
    3.7320   -3.0155    0.0000 Br  0  0  0  0  0  0  0  0  0  0  0  0
    2.0000   -0.0155    0.0000 Br  0  0  0  0  0  0  0  0  0  0  0  0
    6.8335    0.9459    0.0000 S   0  0  0  0  0  0  0  0  0  0  0  0
    8.5310    3.0155    0.0000 S   0  0  0  0  0  0  0  0  0  0  0  0
    4.5981   -0.5155    0.0000 N   0  0  0  0  0  0  0  0  0  0  0  0
    5.5443   -1.8203    0.0000 N   0  0  0  0  0  0  0  0  0  0  0  0
    5.5443   -0.2108    0.0000 C   0  0  0  0  0  0  0  0  0  0  0  0
    5.8550    0.7397    0.0000 C   0  0  0  0  0  0  0  0  0  0  0  0
    4.5981   -1.5155    0.0000 C   0  0  0  0  0  0  0  0  0  0  0  0
    3.7320   -0.0155    0.0000 C   0  0  0  0  0  0  0  0  0  0  0  0
    7.1441    1.8965    0.0000 C   0  0  3  0  0  0  0  0  0  0  0  0
    6.1279   -1.0155    0.0000 C   0  0  0  0  0  0  0  0  0  0  0  0
    3.7320   -2.0155    0.0000 C   0  0  0  0  0  0  0  0  0  0  0  0
    2.8660   -0.5155    0.0000 C   0  0  0  0  0  0  0  0  0  0  0  0
    8.1226    2.1027    0.0000 C   0  0  0  0  0  0  0  0  0  0  0  0
    3.7320    0.9845    0.0000 C   0  0  0  0  0  0  0  0  0  0  0  0
    6.4763    2.6408    0.0000 C   0  0  0  0  0  0  0  0  0  0  0  0
    2.8660   -1.5155    0.0000 C   0  0  0  0  0  0  0  0  0  0  0  0
    8.8646    1.4323    0.0000 C   0  0  0  0  0  0  0  0  0  0  0  0
    9.7315    1.9308    0.0000 C   0  0  0  0  0  0  0  0  0  0  0  0
    9.5253    2.9093    0.0000 C   0  0  0  0  0  0  0  0  0  0  0  0
    5.8344    1.3594    0.0000 H   0  0  0  0  0  0  0  0  0  0  0  0
    5.2411    0.8271    0.0000 H   0  0  0  0  0  0  0  0  0  0  0  0
    6.5374    1.7686    0.0000 H   0  0  0  0  0  0  0  0  0  0  0  0
    6.7479   -1.0155    0.0000 H   0  0  0  0  0  0  0  0  0  0  0  0
    6.9378    3.0548    0.0000 H   0  0  0  0  0  0  0  0  0  0  0  0
    6.0622    3.1022    0.0000 H   0  0  0  0  0  0  0  0  0  0  0  0
    6.0148    2.2267    0.0000 H   0  0  0  0  0  0  0  0  0  0  0  0
    4.3520    0.9845    0.0000 H   0  0  0  0  0  0  0  0  0  0  0  0
    3.7320    1.6045    0.0000 H   0  0  0  0  0  0  0  0  0  0  0  0
    3.1120    0.9845    0.0000 H   0  0  0  0  0  0  0  0  0  0  0  0
    2.3291   -1.8255    0.0000 H   0  0  0  0  0  0  0  0  0  0  0  0
    8.7987    0.8158    0.0000 H   0  0  0  0  0  0  0  0  0  0  0  0
   10.2975    1.6776    0.0000 H   0  0  0  0  0  0  0  0  0  0  0  0
    9.9410    3.3693    0.0000 H   0  0  0  0  0  0  0  0  0  0  0  0
  1 13  1  0  0  0  0
  2 14  1  0  0  0  0
  3  8  1  0  0  0  0
  3 11  1  0  0  0  0
  4 15  1  0  0  0  0
  4 21  1  0  0  0  0
  5  7  1  0  0  0  0
  5  9  1  0  0  0  0
  5 10  1  0  0  0  0
  6  9  2  0  0  0  0
  6 12  1  0  0  0  0
  7  8  1  0  0  0  0
  7 12  2  0  0  0  0
  8 22  1  0  0  0  0
  8 23  1  0  0  0  0
  9 13  1  0  0  0  0
 10 14  2  0  0  0  0
 10 16  1  0  0  0  0
 11 15  1  0  0  0  0
 11 17  1  0  0  0  0
 11 24  1  0  0  0  0
 12 25  1  0  0  0  0
 13 18  2  0  0  0  0
 14 18  1  0  0  0  0
 15 19  2  0  0  0  0
 16 29  1  0  0  0  0
 16 30  1  0  0  0  0
 16 31  1  0  0  0  0
 17 26  1  0  0  0  0
 17 27  1  0  0  0  0
 17 28  1  0  0  0  0
 18 32  1  0  0  0  0
 19 20  1  0  0  0  0
 19 33  1  0  0  0  0
 20 21  2  0  0  0  0
 20 34  1  0  0  0  0
 21 35  1  0  0  0  0
M  END
> <PUBCHEM_COMPOUND_CID>
501943
> <PUBCHEM_COMPOUND_CANONICALIZED>
1
> <PUBCHEM_CACTVS_COMPLEXITY>
361
> <PUBCHEM_CACTVS_HBOND_ACCEPTOR>
3
> <PUBCHEM_CACTVS_HBOND_DONOR>
0
> <PUBCHEM_CACTVS_ROTATABLE_BOND>
4
> <PUBCHEM_CACTVS_SUBSKEYS>
AAADccBzAABgGAAAAAAAAAAAAAAAAWJAAAAsAAAAAAAAAFgB+AAAHARAAAABqAjFVwS/sZ8MGAikATZnZACDgK0xGrRJ2Dg4dLiIaOLgmZGUIAhogALoyjcQAAAAAAAAAAAAAAAAAAAAAAAAAAAAAAAAAA==
> <PUBCHEM_IUPAC_OPENEYE_NAME>
6,8-dibromo-5-methyl-3-[1-(2-thienyl)ethylsulfanylmethyl]imidazo[1,2-a]pyridine
> <PUBCHEM_IUPAC_CAS_NAME>
6,8-dibromo-5-methyl-3-[(1-thiophen-2-ylethylthio)methyl]imidazo[1,2-a]pyridine
> <PUBCHEM_IUPAC_NAME_MARKUP>
6,8-dibromo-5-methyl-3-(1-thiophen-2-ylethylsulfanylmethyl)imidazo[1,2-a]pyridine
> <PUBCHEM_IUPAC_NAME>
6,8-dibromo-5-methyl-3-(1-thiophen-2-ylethylsulfanylmethyl)imidazo[1,2-a]pyridine
> <PUBCHEM_IUPAC_SYSTEMATIC_NAME>
6,8-bis(bromanyl)-5-methyl-3-(1-thiophen-2-ylethylsulfanylmethyl)imidazo[1,2-a]pyridine
> <PUBCHEM_IUPAC_TRADITIONAL_NAME>
6,8-dibromo-5-methyl-3-[[1-(2-thienyl)ethylthio]methyl]imidazo[1,2-a]pyridine
> <PUBCHEM_IUPAC_INCHI>
InChI=1S/C15H14Br2N2S2/c1-9-12(16)6-13(17)15-18-7-11(19(9)15)8-21-10(2)14-4-3-5-20-14/h3-7,10H,8H2,1-2H3
> <PUBCHEM_IUPAC_INCHIKEY>
WLMSGOYVPJSPKX-UHFFFAOYSA-N
> <PUBCHEM_XLOGP3_AA>
5.6
> <PUBCHEM_EXACT_MASS>
445.89447
> <PUBCHEM_MOLECULAR_FORMULA>
C15H14Br2N2S2
> <PUBCHEM_MOLECULAR_WEIGHT>
446.2
> <PUBCHEM_OPENEYE_CAN_SMILES>
CC1=C(C=C(C2=NC=C(N12)CSC(C)C3=CC=CS3)Br)Br
> <PUBCHEM_OPENEYE_ISO_SMILES>
CC1=C(C=C(C2=NC=C(N12)CSC(C)C3=CC=CS3)Br)Br
> <PUBCHEM_CACTVS_TPSA>
70.8
> <PUBCHEM_MONOISOTOPIC_WEIGHT>
443.89652
> <PUBCHEM_TOTAL_CHARGE>
0
> <PUBCHEM_HEAVY_ATOM_COUNT>
21
> <PUBCHEM_ATOM_DEF_STEREO_COUNT>
0
> <PUBCHEM_ATOM_UDEF_STEREO_COUNT>
1
> <PUBCHEM_BOND_DEF_STEREO_COUNT>
0
> <PUBCHEM_BOND_UDEF_STEREO_COUNT>
0
> <PUBCHEM_ISOTOPIC_ATOM_COUNT>
0
> <PUBCHEM_COMPONENT_COUNT>
1
> <PUBCHEM_CACTVS_TAUTO_COUNT>
-1
> <PUBCHEM_COORDINATE_TYPE>
1
5
255
> <PUBCHEM_BONDANNOTATIONS>
10  14  8
11  17  3
13  18  8
14  18  8
15  19  8
19  20  8
20  21  8
4  15  8
4  21  8
5  10  8
5  7  8
5  9  8
6  12  8
6  9  8
7  12  8
9  13  8
$$$$
