501962
  -OEChem-10302200282D
 88 90  0     1  0  0  0  0  0999 V2000
    7.1962    1.2500    0.0000 O   0  0  0  0  0  0  0  0  0  0  0  0
    9.7942   -1.2500    0.0000 O   0  0  0  0  0  0  0  0  0  0  0  0
   14.3798    1.1349    0.0000 O   0  0  0  0  0  0  0  0  0  0  0  0
    5.4641    3.2500    0.0000 O   0  0  0  0  0  0  0  0  0  0  0  0
    6.3301    1.7500    0.0000 O   0  0  0  0  0  0  0  0  0  0  0  0
   13.2583   -3.2500    0.0000 O   0  0  0  0  0  0  0  0  0  0  0  0
   11.5263   -3.2500    0.0000 O   0  0  0  0  0  0  0  0  0  0  0  0
   13.2583   -0.2500    0.0000 N   0  0  0  0  0  0  0  0  0  0  0  0
   10.6603    0.2500    0.0000 N   0  0  0  0  0  0  0  0  0  0  0  0
    8.9282    1.2500    0.0000 N   0  0  0  0  0  0  0  0  0  0  0  0
   14.8410   -0.5864    0.0000 N   0  0  0  0  0  0  0  0  0  0  0  0
    7.1962    3.2500    0.0000 N   0  0  0  0  0  0  0  0  0  0  0  0
    8.9282    3.2500    0.0000 C   0  0  0  0  0  0  0  0  0  0  0  0
    8.0622    2.7500    0.0000 C   0  0  1  0  0  0  0  0  0  0  0  0
   12.3923    0.2500    0.0000 C   0  0  0  0  0  0  0  0  0  0  0  0
   11.5263   -0.2500    0.0000 C   0  0  1  0  0  0  0  0  0  0  0  0
    8.9282    0.2500    0.0000 C   0  0  1  0  0  0  0  0  0  0  0  0
    8.9282    4.2500    0.0000 C   0  0  0  0  0  0  0  0  0  0  0  0
   13.3629   -1.2445    0.0000 C   0  0  0  0  0  0  0  0  0  0  0  0
   14.3410   -1.4524    0.0000 C   0  0  0  0  0  0  0  0  0  0  0  0
    8.0622   -0.2500    0.0000 C   0  0  0  0  0  0  0  0  0  0  0  0
    8.0622    1.7500    0.0000 C   0  0  0  0  0  0  0  0  0  0  0  0
    9.7942   -0.2500    0.0000 C   0  0  0  0  0  0  0  0  0  0  0  0
   14.1719    0.1567    0.0000 C   0  0  0  0  0  0  0  0  0  0  0  0
    9.7942    4.7500    0.0000 C   0  0  0  0  0  0  0  0  0  0  0  0
    8.0622    4.7500    0.0000 C   0  0  0  0  0  0  0  0  0  0  0  0
   11.5263   -1.2500    0.0000 C   0  0  0  0  0  0  0  0  0  0  0  0
    8.0622   -1.2500    0.0000 C   0  0  0  0  0  0  0  0  0  0  0  0
   12.3923   -1.7500    0.0000 C   0  0  0  0  0  0  0  0  0  0  0  0
    8.9282   -1.7500    0.0000 C   0  0  0  0  0  0  0  0  0  0  0  0
    7.1962   -1.7500    0.0000 C   0  0  0  0  0  0  0  0  0  0  0  0
    6.3301    2.7500    0.0000 C   0  0  0  0  0  0  0  0  0  0  0  0
    8.9282   -2.7500    0.0000 C   0  0  0  0  0  0  0  0  0  0  0  0
    7.1962   -2.7500    0.0000 C   0  0  0  0  0  0  0  0  0  0  0  0
    8.0622   -3.2500    0.0000 C   0  0  0  0  0  0  0  0  0  0  0  0
   12.3923   -2.7500    0.0000 C   0  0  0  0  0  0  0  0  0  0  0  0
    4.5981    2.7500    0.0000 C   0  0  0  0  0  0  0  0  0  0  0  0
    3.7320    3.2500    0.0000 C   0  0  0  0  0  0  0  0  0  0  0  0
   13.2583   -4.2500    0.0000 C   0  0  0  0  0  0  0  0  0  0  0  0
    2.8660    2.7500    0.0000 C   0  0  0  0  0  0  0  0  0  0  0  0
    3.7320    4.2500    0.0000 C   0  0  0  0  0  0  0  0  0  0  0  0
   14.1244   -4.7500    0.0000 C   0  0  0  0  0  0  0  0  0  0  0  0
    2.0000    3.2500    0.0000 C   0  0  0  0  0  0  0  0  0  0  0  0
    2.8660    4.7500    0.0000 C   0  0  0  0  0  0  0  0  0  0  0  0
    2.0000    4.2500    0.0000 C   0  0  0  0  0  0  0  0  0  0  0  0
    9.1403    2.6674    0.0000 H   0  0  0  0  0  0  0  0  0  0  0  0
    9.5388    3.3577    0.0000 H   0  0  0  0  0  0  0  0  0  0  0  0
    8.0622    3.3700    0.0000 H   0  0  0  0  0  0  0  0  0  0  0  0
   12.7908    0.7249    0.0000 H   0  0  0  0  0  0  0  0  0  0  0  0
   11.9938    0.7249    0.0000 H   0  0  0  0  0  0  0  0  0  0  0  0
   10.9893   -0.5600    0.0000 H   0  0  0  0  0  0  0  0  0  0  0  0
    9.4651    0.5600    0.0000 H   0  0  0  0  0  0  0  0  0  0  0  0
    9.4651    3.9400    0.0000 H   0  0  0  0  0  0  0  0  0  0  0  0
   12.7429   -1.2445    0.0000 H   0  0  0  0  0  0  0  0  0  0  0  0
   13.2981   -1.8611    0.0000 H   0  0  0  0  0  0  0  0  0  0  0  0
   14.1494   -2.0421    0.0000 H   0  0  0  0  0  0  0  0  0  0  0  0
   14.9074   -1.7046    0.0000 H   0  0  0  0  0  0  0  0  0  0  0  0
    7.8501    0.3326    0.0000 H   0  0  0  0  0  0  0  0  0  0  0  0
    7.4516   -0.3577    0.0000 H   0  0  0  0  0  0  0  0  0  0  0  0
   10.6603    0.8700    0.0000 H   0  0  0  0  0  0  0  0  0  0  0  0
    9.4651    1.5600    0.0000 H   0  0  0  0  0  0  0  0  0  0  0  0
   15.4576   -0.5216    0.0000 H   0  0  0  0  0  0  0  0  0  0  0  0
   10.1042    4.2131    0.0000 H   0  0  0  0  0  0  0  0  0  0  0  0
   10.3312    5.0600    0.0000 H   0  0  0  0  0  0  0  0  0  0  0  0
    9.4842    5.2869    0.0000 H   0  0  0  0  0  0  0  0  0  0  0  0
    8.3722    5.2869    0.0000 H   0  0  0  0  0  0  0  0  0  0  0  0
    7.5252    5.0600    0.0000 H   0  0  0  0  0  0  0  0  0  0  0  0
    7.7522    4.2131    0.0000 H   0  0  0  0  0  0  0  0  0  0  0  0
    7.1962    3.8700    0.0000 H   0  0  0  0  0  0  0  0  0  0  0  0
   10.9893   -1.5600    0.0000 H   0  0  0  0  0  0  0  0  0  0  0  0
   12.9292   -1.4400    0.0000 H   0  0  0  0  0  0  0  0  0  0  0  0
    9.4651   -1.4400    0.0000 H   0  0  0  0  0  0  0  0  0  0  0  0
    6.6592   -1.4400    0.0000 H   0  0  0  0  0  0  0  0  0  0  0  0
    9.4651   -3.0600    0.0000 H   0  0  0  0  0  0  0  0  0  0  0  0
    6.6592   -3.0600    0.0000 H   0  0  0  0  0  0  0  0  0  0  0  0
    8.0622   -3.8700    0.0000 H   0  0  0  0  0  0  0  0  0  0  0  0
    4.1996    2.2750    0.0000 H   0  0  0  0  0  0  0  0  0  0  0  0
    4.9966    2.2750    0.0000 H   0  0  0  0  0  0  0  0  0  0  0  0
   12.6477   -4.1423    0.0000 H   0  0  0  0  0  0  0  0  0  0  0  0
   13.0463   -4.8326    0.0000 H   0  0  0  0  0  0  0  0  0  0  0  0
    2.8660    2.1300    0.0000 H   0  0  0  0  0  0  0  0  0  0  0  0
    4.2690    4.5600    0.0000 H   0  0  0  0  0  0  0  0  0  0  0  0
   13.8144   -5.2869    0.0000 H   0  0  0  0  0  0  0  0  0  0  0  0
   14.6613   -5.0600    0.0000 H   0  0  0  0  0  0  0  0  0  0  0  0
   14.4344   -4.2131    0.0000 H   0  0  0  0  0  0  0  0  0  0  0  0
    1.4631    2.9400    0.0000 H   0  0  0  0  0  0  0  0  0  0  0  0
    2.8660    5.3700    0.0000 H   0  0  0  0  0  0  0  0  0  0  0  0
    1.4631    4.5600    0.0000 H   0  0  0  0  0  0  0  0  0  0  0  0
  1 22  2  0  0  0  0
  2 23  2  0  0  0  0
  3 24  2  0  0  0  0
  4 32  1  0  0  0  0
  4 37  1  0  0  0  0
  5 32  2  0  0  0  0
  6 36  1  0  0  0  0
  6 39  1  0  0  0  0
  7 36  2  0  0  0  0
  8 15  1  0  0  0  0
  8 19  1  0  0  0  0
  8 24  1  0  0  0  0
 16  9  1  1  0  0  0
  9 23  1  0  0  0  0
  9 60  1  0  0  0  0
 17 10  1  6  0  0  0
 10 22  1  0  0  0  0
 10 61  1  0  0  0  0
 11 20  1  0  0  0  0
 11 24  1  0  0  0  0
 11 62  1  0  0  0  0
 14 12  1  1  0  0  0
 12 32  1  0  0  0  0
 12 69  1  0  0  0  0
 13 14  1  0  0  0  0
 13 18  1  0  0  0  0
 13 46  1  0  0  0  0
 13 47  1  0  0  0  0
 14 22  1  0  0  0  0
 14 48  1  0  0  0  0
 15 16  1  0  0  0  0
 15 49  1  0  0  0  0
 15 50  1  0  0  0  0
 16 27  1  0  0  0  0
 16 51  1  0  0  0  0
 17 21  1  0  0  0  0
 17 23  1  0  0  0  0
 17 52  1  0  0  0  0
 18 25  1  0  0  0  0
 18 26  1  0  0  0  0
 18 53  1  0  0  0  0
 19 20  1  0  0  0  0
 19 54  1  0  0  0  0
 19 55  1  0  0  0  0
 20 56  1  0  0  0  0
 20 57  1  0  0  0  0
 21 28  1  0  0  0  0
 21 58  1  0  0  0  0
 21 59  1  0  0  0  0
 25 63  1  0  0  0  0
 25 64  1  0  0  0  0
 25 65  1  0  0  0  0
 26 66  1  0  0  0  0
 26 67  1  0  0  0  0
 26 68  1  0  0  0  0
 27 29  2  3  0  0  0
 27 70  1  0  0  0  0
 28 30  2  0  0  0  0
 28 31  1  0  0  0  0
 29 36  1  0  0  0  0
 29 71  1  0  0  0  0
 30 33  1  0  0  0  0
 30 72  1  0  0  0  0
 31 34  2  0  0  0  0
 31 73  1  0  0  0  0
 33 35  2  0  0  0  0
 33 74  1  0  0  0  0
 34 35  1  0  0  0  0
 34 75  1  0  0  0  0
 35 76  1  0  0  0  0
 37 38  1  0  0  0  0
 37 77  1  0  0  0  0
 37 78  1  0  0  0  0
 38 40  2  0  0  0  0
 38 41  1  0  0  0  0
 39 42  1  0  0  0  0
 39 79  1  0  0  0  0
 39 80  1  0  0  0  0
 40 43  1  0  0  0  0
 40 81  1  0  0  0  0
 41 44  2  0  0  0  0
 41 82  1  0  0  0  0
 42 83  1  0  0  0  0
 42 84  1  0  0  0  0
 42 85  1  0  0  0  0
 43 45  2  0  0  0  0
 43 86  1  0  0  0  0
 44 45  1  0  0  0  0
 44 87  1  0  0  0  0
 45 88  1  0  0  0  0
M  END
> <PUBCHEM_COMPOUND_CID>
501962
> <PUBCHEM_COMPOUND_CANONICALIZED>
1
> <PUBCHEM_CACTVS_COMPLEXITY>
1010
> <PUBCHEM_CACTVS_HBOND_ACCEPTOR>
7
> <PUBCHEM_CACTVS_HBOND_DONOR>
4
> <PUBCHEM_CACTVS_ROTATABLE_BOND>
18
> <PUBCHEM_CACTVS_SUBSKEYS>
AAADcfB/uAAAAAAAAAAAAAAAAAAAAWAAAAAwYAAAAAAAAAABQAAAHgAQAAAADSjhmAYzCIPABACIAiHSGACCAAAgAAAIiIGICMmIZjKAsTmeMAAs1gOIqYeYyKCOAAAAAAAAAAAAAAAAAAAAAAAAAAAAAA==
> <PUBCHEM_IUPAC_OPENEYE_NAME>
ethyl (4R)-4-[[(2S)-2-[[(2S)-2-(benzyloxycarbonylamino)-4-methyl-pentanoyl]amino]-3-phenyl-propanoyl]amino]-5-(2-oxoimidazolidin-1-yl)pent-2-enoate
> <PUBCHEM_IUPAC_CAS_NAME>
(4R)-4-[[(2S)-2-[[(2S)-4-methyl-1-oxo-2-(phenylmethoxycarbonylamino)pentyl]amino]-1-oxo-3-phenylpropyl]amino]-5-(2-oxo-1-imidazolidinyl)-2-pentenoic acid ethyl ester
> <PUBCHEM_IUPAC_NAME_MARKUP>
ethyl (4<I>R</I>)-4-[[(2<I>S</I>)-2-[[(2<I>S</I>)-4-methyl-2-(phenylmethoxycarbonylamino)pentanoyl]amino]-3-phenylpropanoyl]amino]-5-(2-oxoimidazolidin-1-yl)pent-2-enoate
> <PUBCHEM_IUPAC_NAME>
ethyl (4R)-4-[[(2S)-2-[[(2S)-4-methyl-2-(phenylmethoxycarbonylamino)pentanoyl]amino]-3-phenylpropanoyl]amino]-5-(2-oxoimidazolidin-1-yl)pent-2-enoate
> <PUBCHEM_IUPAC_SYSTEMATIC_NAME>
ethyl (4R)-4-[[(2S)-2-[[(2S)-4-methyl-2-(phenylmethoxycarbonylamino)pentanoyl]amino]-3-phenyl-propanoyl]amino]-5-(2-oxidanylideneimidazolidin-1-yl)pent-2-enoate
> <PUBCHEM_IUPAC_TRADITIONAL_NAME>
(4R)-4-[[(2S)-2-[[(2S)-2-(benzyloxycarbonylamino)-4-methyl-pentanoyl]amino]-3-phenyl-propanoyl]amino]-5-(2-ketoimidazolidin-1-yl)pent-2-enoic acid ethyl ester
> <PUBCHEM_IUPAC_INCHI>
InChI=1S/C33H43N5O7/c1-4-44-29(39)16-15-26(21-38-18-17-34-32(38)42)35-30(40)28(20-24-11-7-5-8-12-24)36-31(41)27(19-23(2)3)37-33(43)45-22-25-13-9-6-10-14-25/h5-16,23,26-28H,4,17-22H2,1-3H3,(H,34,42)(H,35,40)(H,36,41)(H,37,43)/t26-,27+,28+/m1/s1
> <PUBCHEM_IUPAC_INCHIKEY>
OXJIUAIPRUPWOS-PKTNWEFCSA-N
> <PUBCHEM_XLOGP3_AA>
3.5
> <PUBCHEM_EXACT_MASS>
621.31624873
> <PUBCHEM_MOLECULAR_FORMULA>
C33H43N5O7
> <PUBCHEM_MOLECULAR_WEIGHT>
621.7
> <PUBCHEM_OPENEYE_CAN_SMILES>
CCOC(=O)C=CC(CN1CCNC1=O)NC(=O)C(CC2=CC=CC=C2)NC(=O)C(CC(C)C)NC(=O)OCC3=CC=CC=C3
> <PUBCHEM_OPENEYE_ISO_SMILES>
CCOC(=O)C=C[C@H](CN1CCNC1=O)NC(=O)[C@H](CC2=CC=CC=C2)NC(=O)[C@H](CC(C)C)NC(=O)OCC3=CC=CC=C3
> <PUBCHEM_CACTVS_TPSA>
155
> <PUBCHEM_MONOISOTOPIC_WEIGHT>
621.31624873
> <PUBCHEM_TOTAL_CHARGE>
0
> <PUBCHEM_HEAVY_ATOM_COUNT>
45
> <PUBCHEM_ATOM_DEF_STEREO_COUNT>
3
> <PUBCHEM_ATOM_UDEF_STEREO_COUNT>
0
> <PUBCHEM_BOND_DEF_STEREO_COUNT>
0
> <PUBCHEM_BOND_UDEF_STEREO_COUNT>
1
> <PUBCHEM_ISOTOPIC_ATOM_COUNT>
0
> <PUBCHEM_COMPONENT_COUNT>
1
> <PUBCHEM_CACTVS_TAUTO_COUNT>
-1
> <PUBCHEM_COORDINATE_TYPE>
1
5
255
> <PUBCHEM_BONDANNOTATIONS>
17  10  6
14  12  5
27  29  1
28  30  8
28  31  8
30  33  8
31  34  8
33  35  8
34  35  8
38  40  8
38  41  8
40  43  8
41  44  8
43  45  8
44  45  8
16  9  5
$$$$
