502085
  -OEChem-10302200282D
 49 51  0     1  0  0  0  0  0999 V2000
    6.8909   -1.2727    0.0000 S   0  0  0  0  0  0  0  0  0  0  0  0
    5.0298    1.1919    0.0000 O   0  0  0  0  0  0  0  0  0  0  0  0
    3.1330   -0.5682    0.0000 O   0  0  0  0  0  0  0  0  0  0  0  0
    2.4608    1.5009    0.0000 O   0  0  0  0  0  0  0  0  0  0  0  0
    5.9529    2.7796    0.0000 O   0  0  0  0  0  0  0  0  0  0  0  0
    7.6999   -0.6849    0.0000 O   0  0  0  0  0  0  0  0  0  0  0  0
    6.0819   -1.8605    0.0000 O   0  0  0  0  0  0  0  0  0  0  0  0
    4.2208    5.7796    0.0000 O   0  0  0  0  0  0  0  0  0  0  0  0
    8.8353   -5.4223    0.0000 O   0  0  0  0  0  0  0  0  0  0  0  0
    4.2208    2.7796    0.0000 N   0  0  0  0  0  0  0  0  0  0  0  0
    6.3031   -0.4637    0.0000 N   0  0  0  0  0  0  0  0  0  0  0  0
    5.0868    4.2796    0.0000 N   0  0  0  0  0  0  0  0  0  0  0  0
   10.2366   -4.4042    0.0000 N   0  0  0  0  0  0  0  0  0  0  0  0
   10.8244   -5.2133    0.0000 N   0  0  0  0  0  0  0  0  0  0  0  0
    4.7208    0.2408    0.0000 C   0  0  1  0  0  0  0  0  0  0  0  0
    3.7208    0.2408    0.0000 C   0  0  2  0  0  0  0  0  0  0  0  0
    3.4118    1.1919    0.0000 C   0  0  2  0  0  0  0  0  0  0  0  0
    4.2208    1.7796    0.0000 C   0  0  1  0  0  0  0  0  0  0  0  0
    5.3086   -0.5682    0.0000 C   0  0  0  0  0  0  0  0  0  0  0  0
    5.0868    3.2796    0.0000 C   0  0  0  0  0  0  0  0  0  0  0  0
    3.3548    3.2796    0.0000 C   0  0  0  0  0  0  0  0  0  0  0  0
    3.3548    4.2796    0.0000 C   0  0  0  0  0  0  0  0  0  0  0  0
    7.4787   -2.0817    0.0000 C   0  0  0  0  0  0  0  0  0  0  0  0
    4.2208    4.7796    0.0000 C   0  0  0  0  0  0  0  0  0  0  0  0
    8.4732   -1.9772    0.0000 C   0  0  0  0  0  0  0  0  0  0  0  0
    7.0720   -2.9953    0.0000 C   0  0  0  0  0  0  0  0  0  0  0  0
    9.0610   -2.7862    0.0000 C   0  0  0  0  0  0  0  0  0  0  0  0
    7.6598   -3.8043    0.0000 C   0  0  0  0  0  0  0  0  0  0  0  0
    8.6543   -3.6998    0.0000 C   0  0  0  0  0  0  0  0  0  0  0  0
    9.2421   -4.5088    0.0000 C   0  0  0  0  0  0  0  0  0  0  0  0
    5.3332    0.3378    0.0000 H   0  0  0  0  0  0  0  0  0  0  0  0
    4.0023   -0.3116    0.0000 H   0  0  0  0  0  0  0  0  0  0  0  0
    2.9734    0.7535    0.0000 H   0  0  0  0  0  0  0  0  0  0  0  0
    3.6684    2.0611    0.0000 H   0  0  0  0  0  0  0  0  0  0  0  0
    4.7514   -0.8400    0.0000 H   0  0  0  0  0  0  0  0  0  0  0  0
    5.4795   -1.1642    0.0000 H   0  0  0  0  0  0  0  0  0  0  0  0
    6.5553    0.1027    0.0000 H   0  0  0  0  0  0  0  0  0  0  0  0
    3.3852   -1.1346    0.0000 H   0  0  0  0  0  0  0  0  0  0  0  0
    2.0000    1.0860    0.0000 H   0  0  0  0  0  0  0  0  0  0  0  0
    2.8179    2.9696    0.0000 H   0  0  0  0  0  0  0  0  0  0  0  0
    5.6238    4.5896    0.0000 H   0  0  0  0  0  0  0  0  0  0  0  0
    2.8179    4.5896    0.0000 H   0  0  0  0  0  0  0  0  0  0  0  0
    8.7254   -1.4108    0.0000 H   0  0  0  0  0  0  0  0  0  0  0  0
    6.4554   -3.0601    0.0000 H   0  0  0  0  0  0  0  0  0  0  0  0
    9.6776   -2.7214    0.0000 H   0  0  0  0  0  0  0  0  0  0  0  0
    7.4076   -4.3707    0.0000 H   0  0  0  0  0  0  0  0  0  0  0  0
   10.4888   -3.8378    0.0000 H   0  0  0  0  0  0  0  0  0  0  0  0
   11.4410   -5.1485    0.0000 H   0  0  0  0  0  0  0  0  0  0  0  0
   10.5722   -5.7796    0.0000 H   0  0  0  0  0  0  0  0  0  0  0  0
  1  6  2  0  0  0  0
  1  7  2  0  0  0  0
  1 11  1  0  0  0  0
  1 23  1  0  0  0  0
  2 15  1  0  0  0  0
  2 18  1  0  0  0  0
 16  3  1  1  0  0  0
  3 38  1  0  0  0  0
 17  4  1  1  0  0  0
  4 39  1  0  0  0  0
  5 20  2  0  0  0  0
  8 24  2  0  0  0  0
  9 30  2  0  0  0  0
 18 10  1  6  0  0  0
 10 20  1  0  0  0  0
 10 21  1  0  0  0  0
 11 19  1  0  0  0  0
 11 37  1  0  0  0  0
 12 20  1  0  0  0  0
 12 24  1  0  0  0  0
 12 41  1  0  0  0  0
 13 14  1  0  0  0  0
 13 30  1  0  0  0  0
 13 47  1  0  0  0  0
 14 48  1  0  0  0  0
 14 49  1  0  0  0  0
 15 16  1  0  0  0  0
 15 19  1  6  0  0  0
 15 31  1  0  0  0  0
 16 17  1  0  0  0  0
 16 32  1  0  0  0  0
 17 18  1  0  0  0  0
 17 33  1  0  0  0  0
 18 34  1  0  0  0  0
 19 35  1  0  0  0  0
 19 36  1  0  0  0  0
 21 22  2  0  0  0  0
 21 40  1  0  0  0  0
 22 24  1  0  0  0  0
 22 42  1  0  0  0  0
 23 25  2  0  0  0  0
 23 26  1  0  0  0  0
 25 27  1  0  0  0  0
 25 43  1  0  0  0  0
 26 28  2  0  0  0  0
 26 44  1  0  0  0  0
 27 29  2  0  0  0  0
 27 45  1  0  0  0  0
 28 29  1  0  0  0  0
 28 46  1  0  0  0  0
 29 30  1  0  0  0  0
M  END
> <PUBCHEM_COMPOUND_CID>
502085
> <PUBCHEM_COMPOUND_CANONICALIZED>
1
> <PUBCHEM_CACTVS_COMPLEXITY>
820
> <PUBCHEM_CACTVS_HBOND_ACCEPTOR>
10
> <PUBCHEM_CACTVS_HBOND_DONOR>
6
> <PUBCHEM_CACTVS_ROTATABLE_BOND>
6
> <PUBCHEM_CACTVS_SUBSKEYS>
AAADceB7vABAAAAAAAAAAAAAAAAAASAAAAAwQAAAAAAAAAABAAAAHgQYSAAADBTh2AYxAYPiBgKIAiFWUHDCABAkAgIaqJkIBMiLMDKAlRGPYQBvlyIbice4mACOEAAAAAAAAAAgAAAAAAAAAAAAAAAAAA==
> <PUBCHEM_IUPAC_OPENEYE_NAME>
N-[[(2R,3S,4R,5R)-5-(2,4-dioxopyrimidin-1-yl)-3,4-dihydroxy-tetrahydrofuran-2-yl]methyl]-4-(hydrazinecarbonyl)benzenesulfonamide
> <PUBCHEM_IUPAC_CAS_NAME>
N-[[(2R,3S,4R,5R)-5-(2,4-dioxo-1-pyrimidinyl)-3,4-dihydroxy-2-oxolanyl]methyl]-4-(hydrazinecarbonyl)benzenesulfonamide
> <PUBCHEM_IUPAC_NAME_MARKUP>
<I>N</I>-[[(2<I>R</I>,3<I>S</I>,4<I>R</I>,5<I>R</I>)-5-(2,4-dioxopyrimidin-1-yl)-3,4-dihydroxyoxolan-2-yl]methyl]-4-(hydrazinecarbonyl)benzenesulfonamide
> <PUBCHEM_IUPAC_NAME>
N-[[(2R,3S,4R,5R)-5-(2,4-dioxopyrimidin-1-yl)-3,4-dihydroxyoxolan-2-yl]methyl]-4-(hydrazinecarbonyl)benzenesulfonamide
> <PUBCHEM_IUPAC_SYSTEMATIC_NAME>
4-(aminocarbamoyl)-N-[[(2R,3S,4R,5R)-5-[2,4-bis(oxidanylidene)pyrimidin-1-yl]-3,4-bis(oxidanyl)oxolan-2-yl]methyl]benzenesulfonamide
> <PUBCHEM_IUPAC_TRADITIONAL_NAME>
4-carbazoyl-N-[[(2R,3S,4R,5R)-5-(2,4-diketopyrimidin-1-yl)-3,4-dihydroxy-tetrahydrofuran-2-yl]methyl]benzenesulfonamide
> <PUBCHEM_IUPAC_INCHI>
InChI=1S/C16H19N5O8S/c17-20-14(25)8-1-3-9(4-2-8)30(27,28)18-7-10-12(23)13(24)15(29-10)21-6-5-11(22)19-16(21)26/h1-6,10,12-13,15,18,23-24H,7,17H2,(H,20,25)(H,19,22,26)/t10-,12-,13-,15-/m1/s1
> <PUBCHEM_IUPAC_INCHIKEY>
PWPSFEOJNBETEQ-BPGGGUHBSA-N
> <PUBCHEM_XLOGP3>
-2.1
> <PUBCHEM_EXACT_MASS>
441.09543375
> <PUBCHEM_MOLECULAR_FORMULA>
C16H19N5O8S
> <PUBCHEM_MOLECULAR_WEIGHT>
441.4
> <PUBCHEM_OPENEYE_CAN_SMILES>
C1=CC(=CC=C1C(=O)NN)S(=O)(=O)NCC2C(C(C(O2)N3C=CC(=O)NC3=O)O)O
> <PUBCHEM_OPENEYE_ISO_SMILES>
C1=CC(=CC=C1C(=O)NN)S(=O)(=O)NC[C@@H]2[C@H]([C@H]([C@@H](O2)N3C=CC(=O)NC3=O)O)O
> <PUBCHEM_CACTVS_TPSA>
209
> <PUBCHEM_MONOISOTOPIC_WEIGHT>
441.09543375
> <PUBCHEM_TOTAL_CHARGE>
0
> <PUBCHEM_HEAVY_ATOM_COUNT>
30
> <PUBCHEM_ATOM_DEF_STEREO_COUNT>
4
> <PUBCHEM_ATOM_UDEF_STEREO_COUNT>
0
> <PUBCHEM_BOND_DEF_STEREO_COUNT>
0
> <PUBCHEM_BOND_UDEF_STEREO_COUNT>
0
> <PUBCHEM_ISOTOPIC_ATOM_COUNT>
0
> <PUBCHEM_COMPONENT_COUNT>
1
> <PUBCHEM_CACTVS_TAUTO_COUNT>
-1
> <PUBCHEM_COORDINATE_TYPE>
1
5
255
> <PUBCHEM_BONDANNOTATIONS>
18  10  6
10  20  8
10  21  8
12  20  8
12  24  8
15  19  6
21  22  8
22  24  8
23  25  8
23  26  8
25  27  8
26  28  8
27  29  8
28  29  8
16  3  5
17  4  5
$$$$
