502092
  -OEChem-10302200282D
 71 75  0     1  0  0  0  0  0999 V2000
    3.5498    4.6745    0.0000 F   0  0  0  0  0  0  0  0  0  0  0  0
    5.2819    1.6745    0.0000 O   0  0  0  0  0  0  0  0  0  0  0  0
    7.0303    5.7091    0.0000 O   0  0  0  0  0  0  0  0  0  0  0  0
    9.6799    4.2020    0.0000 O   0  0  0  0  0  0  0  0  0  0  0  0
    8.8081    5.6987    0.0000 O   0  0  0  0  0  0  0  0  0  0  0  0
    3.8088   11.0275    0.0000 O   0  0  0  0  0  0  0  0  0  0  0  0
    6.4069   12.5275    0.0000 O   0  0  0  0  0  0  0  0  0  0  0  0
    4.6748   12.5275    0.0000 O   0  0  0  0  0  0  0  0  0  0  0  0
    3.5498    2.6745    0.0000 N   0  0  3  0  0  0  0  0  0  0  0  0
    1.9750    0.6106    0.0000 N   0  0  0  0  0  0  0  0  0  0  0  0
    7.0418    2.6399    0.0000 N   0  0  0  0  0  0  0  0  0  0  0  0
    5.5408    8.0275    0.0000 N   0  0  0  0  0  0  0  0  0  0  0  0
    1.9750    2.3426    0.0000 C   0  0  2  0  0  0  0  0  0  0  0  0
    2.4750    1.4766    0.0000 C   0  0  1  0  0  0  0  0  0  0  0  0
    2.6420    3.0796    0.0000 C   0  0  0  0  0  0  0  0  0  0  0  0
    3.4468    1.6858    0.0000 C   0  0  0  0  0  0  0  0  0  0  0  0
    0.9749    2.3426    0.0000 C   0  0  0  0  0  0  0  0  0  0  0  0
    7.0303    1.6399    0.0000 C   0  0  0  0  0  0  0  0  0  0  0  0
    0.4749    1.4766    0.0000 C   0  0  0  0  0  0  0  0  0  0  0  0
    0.9749    0.6106    0.0000 C   0  0  0  0  0  0  0  0  0  0  0  0
    6.5203    0.7798    0.0000 C   0  0  0  0  0  0  0  0  0  0  0  0
    7.5202    0.7682    0.0000 C   0  0  0  0  0  0  0  0  0  0  0  0
    4.4158    3.1745    0.0000 C   0  0  0  0  0  0  0  0  0  0  0  0
    6.1479    3.1745    0.0000 C   0  0  0  0  0  0  0  0  0  0  0  0
    5.2819    2.6745    0.0000 C   0  0  0  0  0  0  0  0  0  0  0  0
    4.4158    4.1745    0.0000 C   0  0  0  0  0  0  0  0  0  0  0  0
    6.1479    4.1745    0.0000 C   0  0  0  0  0  0  0  0  0  0  0  0
    7.9479    3.1537    0.0000 C   0  0  0  0  0  0  0  0  0  0  0  0
    5.2819    4.6745    0.0000 C   0  0  0  0  0  0  0  0  0  0  0  0
    7.0418    4.7092    0.0000 C   0  0  0  0  0  0  0  0  0  0  0  0
    7.9479    4.1954    0.0000 C   0  0  0  0  0  0  0  0  0  0  0  0
    8.8120    4.6987    0.0000 C   0  0  0  0  0  0  0  0  0  0  0  0
    4.4158    1.1745    0.0000 C   0  0  0  0  0  0  0  0  0  0  0  0
    5.5408   11.0275    0.0000 C   0  0  0  0  0  0  0  0  0  0  0  0
    5.5408    9.0275    0.0000 C   0  0  0  0  0  0  0  0  0  0  0  0
    4.6748   10.5275    0.0000 C   0  0  0  0  0  0  0  0  0  0  0  0
    4.6748    9.5275    0.0000 C   0  0  0  0  0  0  0  0  0  0  0  0
    6.4069   10.5275    0.0000 C   0  0  0  0  0  0  0  0  0  0  0  0
    6.4069    9.5275    0.0000 C   0  0  0  0  0  0  0  0  0  0  0  0
    5.5408   12.0275    0.0000 C   0  0  0  0  0  0  0  0  0  0  0  0
    1.6302    3.1196    0.0000 H   0  0  0  0  0  0  0  0  0  0  0  0
    2.9755    0.7896    0.0000 H   0  0  0  0  0  0  0  0  0  0  0  0
    2.9528    3.6161    0.0000 H   0  0  0  0  0  0  0  0  0  0  0  0
    2.1412    3.4451    0.0000 H   0  0  0  0  0  0  0  0  0  0  0  0
    3.5128    1.0693    0.0000 H   0  0  0  0  0  0  0  0  0  0  0  0
    4.0668    1.6867    0.0000 H   0  0  0  0  0  0  0  0  0  0  0  0
    1.0826    2.9532    0.0000 H   0  0  0  0  0  0  0  0  0  0  0  0
    0.3923    2.5547    0.0000 H   0  0  0  0  0  0  0  0  0  0  0  0
    7.6310    1.7935    0.0000 H   0  0  0  0  0  0  0  0  0  0  0  0
    0.0000    1.8751    0.0000 H   0  0  0  0  0  0  0  0  0  0  0  0
    0.0000    1.0781    0.0000 H   0  0  0  0  0  0  0  0  0  0  0  0
    2.2849    0.0736    0.0000 H   0  0  0  0  0  0  0  0  0  0  0  0
    0.3923    0.3985    0.0000 H   0  0  0  0  0  0  0  0  0  0  0  0
    1.0826    0.0000    0.0000 H   0  0  0  0  0  0  0  0  0  0  0  0
    5.9402    0.9985    0.0000 H   0  0  0  0  0  0  0  0  0  0  0  0
    6.4056    0.1705    0.0000 H   0  0  0  0  0  0  0  0  0  0  0  0
    7.6208    0.1564    0.0000 H   0  0  0  0  0  0  0  0  0  0  0  0
    8.1052    0.9735    0.0000 H   0  0  0  0  0  0  0  0  0  0  0  0
    8.4836    2.8416    0.0000 H   0  0  0  0  0  0  0  0  0  0  0  0
    5.2819    5.2945    0.0000 H   0  0  0  0  0  0  0  0  0  0  0  0
    4.1058    1.7115    0.0000 H   0  0  0  0  0  0  0  0  0  0  0  0
    3.8789    0.8645    0.0000 H   0  0  0  0  0  0  0  0  0  0  0  0
    4.7258    0.6376    0.0000 H   0  0  0  0  0  0  0  0  0  0  0  0
   10.2157    4.5141    0.0000 H   0  0  0  0  0  0  0  0  0  0  0  0
    4.1379    9.2175    0.0000 H   0  0  0  0  0  0  0  0  0  0  0  0
    6.9438   10.8375    0.0000 H   0  0  0  0  0  0  0  0  0  0  0  0
    6.9438    9.2175    0.0000 H   0  0  0  0  0  0  0  0  0  0  0  0
    6.0778    7.7175    0.0000 H   0  0  0  0  0  0  0  0  0  0  0  0
    5.0039    7.7175    0.0000 H   0  0  0  0  0  0  0  0  0  0  0  0
    3.2719   10.7175    0.0000 H   0  0  0  0  0  0  0  0  0  0  0  0
    6.4069   13.1475    0.0000 H   0  0  0  0  0  0  0  0  0  0  0  0
  1 26  1  0  0  0  0
  2 25  1  0  0  0  0
  2 33  1  0  0  0  0
  3 30  2  0  0  0  0
  4 32  1  0  0  0  0
  4 64  1  0  0  0  0
  5 32  2  0  0  0  0
  6 36  1  0  0  0  0
  6 70  1  0  0  0  0
  7 40  1  0  0  0  0
  7 71  1  0  0  0  0
  8 40  2  0  0  0  0
  9 15  1  0  0  0  0
  9 16  1  0  0  0  0
  9 23  1  0  0  0  0
 10 14  1  0  0  0  0
 10 20  1  0  0  0  0
 10 52  1  0  0  0  0
 11 18  1  0  0  0  0
 11 24  1  0  0  0  0
 11 28  1  0  0  0  0
 12 35  1  0  0  0  0
 12 68  1  0  0  0  0
 12 69  1  0  0  0  0
 13 14  1  0  0  0  0
 13 15  1  0  0  0  0
 13 17  1  0  0  0  0
 13 41  1  6  0  0  0
 14 16  1  0  0  0  0
 14 42  1  6  0  0  0
 15 43  1  0  0  0  0
 15 44  1  0  0  0  0
 16 45  1  0  0  0  0
 16 46  1  0  0  0  0
 17 19  1  0  0  0  0
 17 47  1  0  0  0  0
 17 48  1  0  0  0  0
 18 21  1  0  0  0  0
 18 22  1  0  0  0  0
 18 49  1  0  0  0  0
 19 20  1  0  0  0  0
 19 50  1  0  0  0  0
 19 51  1  0  0  0  0
 20 53  1  0  0  0  0
 20 54  1  0  0  0  0
 21 22  1  0  0  0  0
 21 55  1  0  0  0  0
 21 56  1  0  0  0  0
 22 57  1  0  0  0  0
 22 58  1  0  0  0  0
 23 25  1  0  0  0  0
 23 26  2  0  0  0  0
 24 25  2  0  0  0  0
 24 27  1  0  0  0  0
 26 29  1  0  0  0  0
 27 29  2  0  0  0  0
 27 30  1  0  0  0  0
 28 31  2  0  0  0  0
 28 59  1  0  0  0  0
 29 60  1  0  0  0  0
 30 31  1  0  0  0  0
 31 32  1  0  0  0  0
 33 61  1  0  0  0  0
 33 62  1  0  0  0  0
 33 63  1  0  0  0  0
 34 36  2  0  0  0  0
 34 38  1  0  0  0  0
 34 40  1  0  0  0  0
 35 37  2  0  0  0  0
 35 39  1  0  0  0  0
 36 37  1  0  0  0  0
 37 65  1  0  0  0  0
 38 39  2  0  0  0  0
 38 66  1  0  0  0  0
 39 67  1  0  0  0  0
M  END
> <PUBCHEM_COMPOUND_CID>
502092
> <PUBCHEM_COMPOUND_CANONICALIZED>
1
> <PUBCHEM_CACTVS_COMPLEXITY>
887
> <PUBCHEM_CACTVS_HBOND_ACCEPTOR>
12
> <PUBCHEM_CACTVS_HBOND_DONOR>
5
> <PUBCHEM_CACTVS_ROTATABLE_BOND>
5
> <PUBCHEM_CACTVS_SUBSKEYS>
AAADceB7uQAAAAAAAAAAAAAAGAAAAWAAAAA8YIEAAAAAAFiBQAAAHwAQCAAADSzBmA4yzoPABgCIAqTWSACCCAAlIgAIiIEPbMgOZz7O9duVcehn8BnY+cea2bOeCAABAgQKEAAQAAIECBQgAAAAAAAAAA==
> <PUBCHEM_IUPAC_OPENEYE_NAME>
7-[(4aS,7aS)-1,2,3,4,4a,5,7,7a-octahydropyrrolo[3,4-b]pyridin-6-yl]-1-cyclopropyl-6-fluoro-8-methoxy-4-oxo-quinoline-3-carboxylic acid;4-amino-2-hydroxy-benzoic acid
> <PUBCHEM_IUPAC_CAS_NAME>
7-[(4aS,7aS)-1,2,3,4,4a,5,7,7a-octahydropyrrolo[3,4-b]pyridin-6-yl]-1-cyclopropyl-6-fluoro-8-methoxy-4-oxo-3-quinolinecarboxylic acid;4-amino-2-hydroxybenzoic acid
> <PUBCHEM_IUPAC_NAME_MARKUP>
7-[(4<I>a</I><I>S</I>,7<I>a</I><I>S</I>)-1,2,3,4,4<I>a</I>,5,7,7<I>a</I>-octahydropyrrolo[3,4-b]pyridin-6-yl]-1-cyclopropyl-6-fluoro-8-methoxy-4-oxoquinoline-3-carboxylic acid;4-amino-2-hydroxybenzoic acid
> <PUBCHEM_IUPAC_NAME>
7-[(4aS,7aS)-1,2,3,4,4a,5,7,7a-octahydropyrrolo[3,4-b]pyridin-6-yl]-1-cyclopropyl-6-fluoro-8-methoxy-4-oxoquinoline-3-carboxylic acid;4-amino-2-hydroxybenzoic acid
> <PUBCHEM_IUPAC_SYSTEMATIC_NAME>
7-[(4aS,7aS)-1,2,3,4,4a,5,7,7a-octahydropyrrolo[3,4-b]pyridin-6-yl]-1-cyclopropyl-6-fluoranyl-8-methoxy-4-oxidanylidene-quinoline-3-carboxylic acid;4-azanyl-2-oxidanyl-benzoic acid
> <PUBCHEM_IUPAC_TRADITIONAL_NAME>
7-[(4aS,7aS)-1,2,3,4,4a,5,7,7a-octahydropyrrolo[3,4-b]pyridin-6-yl]-1-cyclopropyl-6-fluoro-4-keto-8-methoxy-quinoline-3-carboxylic acid;4-amino-2-hydroxy-benzoic acid
> <PUBCHEM_IUPAC_INCHI>
InChI=1S/C21H24FN3O4.C7H7NO3/c1-29-20-17-13(19(26)14(21(27)28)9-25(17)12-4-5-12)7-15(22)18(20)24-8-11-3-2-6-23-16(11)10-24;8-4-1-2-5(7(10)11)6(9)3-4/h7,9,11-12,16,23H,2-6,8,10H2,1H3,(H,27,28);1-3,9H,8H2,(H,10,11)/t11-,16+;/m0./s1
> <PUBCHEM_IUPAC_INCHIKEY>
RTHXLTDRRJIXBQ-DFIJPDEKSA-N
> <PUBCHEM_EXACT_MASS>
554.21767750
> <PUBCHEM_MOLECULAR_FORMULA>
C28H31FN4O7
> <PUBCHEM_MOLECULAR_WEIGHT>
554.6
> <PUBCHEM_OPENEYE_CAN_SMILES>
COC1=C2C(=CC(=C1N3CC4CCCNC4C3)F)C(=O)C(=CN2C5CC5)C(=O)O.C1=CC(=C(C=C1N)O)C(=O)O
> <PUBCHEM_OPENEYE_ISO_SMILES>
COC1=C2C(=CC(=C1N3C[C@@H]4CCCN[C@@H]4C3)F)C(=O)C(=CN2C5CC5)C(=O)O.C1=CC(=C(C=C1N)O)C(=O)O
> <PUBCHEM_CACTVS_TPSA>
166
> <PUBCHEM_MONOISOTOPIC_WEIGHT>
554.21767750
> <PUBCHEM_TOTAL_CHARGE>
0
> <PUBCHEM_HEAVY_ATOM_COUNT>
40
> <PUBCHEM_ATOM_DEF_STEREO_COUNT>
2
> <PUBCHEM_ATOM_UDEF_STEREO_COUNT>
0
> <PUBCHEM_BOND_DEF_STEREO_COUNT>
0
> <PUBCHEM_BOND_UDEF_STEREO_COUNT>
0
> <PUBCHEM_ISOTOPIC_ATOM_COUNT>
0
> <PUBCHEM_COMPONENT_COUNT>
2
> <PUBCHEM_CACTVS_TAUTO_COUNT>
-1
> <PUBCHEM_COORDINATE_TYPE>
1
5
255
> <PUBCHEM_BONDANNOTATIONS>
11  24  8
11  28  8
13  41  6
14  42  6
23  25  8
23  26  8
24  25  8
24  27  8
26  29  8
27  29  8
27  30  8
28  31  8
30  31  8
34  36  8
34  38  8
35  37  8
35  39  8
36  37  8
38  39  8
$$$$
