502082
  -OEChem-10302200282D
 51 55  0     1  0  0  0  0  0999 V2000
    7.6616   -1.6016    0.0000 O   0  0  0  0  0  0  0  0  0  0  0  0
    9.4100    2.4330    0.0000 O   0  0  0  0  0  0  0  0  0  0  0  0
   12.0081    0.9330    0.0000 O   0  0  0  0  0  0  0  0  0  0  0  0
   11.1421    2.4330    0.0000 O   0  0  0  0  0  0  0  0  0  0  0  0
    9.4100   -0.5670    0.0000 N   0  0  0  0  0  0  0  0  0  0  0  0
    2.6200   -1.1037    0.0000 N   0  0  0  0  0  0  0  0  0  0  0  0
    9.4100   -1.5670    0.0000 C   0  0  0  0  0  0  0  0  0  0  0  0
    8.9100   -2.4330    0.0000 C   0  0  0  0  0  0  0  0  0  0  0  0
    9.9100   -2.4330    0.0000 C   0  0  0  0  0  0  0  0  0  0  0  0
    8.5440   -0.0670    0.0000 C   0  0  0  0  0  0  0  0  0  0  0  0
   10.2761   -0.0670    0.0000 C   0  0  0  0  0  0  0  0  0  0  0  0
    8.5440    0.9330    0.0000 C   0  0  0  0  0  0  0  0  0  0  0  0
    7.6501   -0.6016    0.0000 C   0  0  0  0  0  0  0  0  0  0  0  0
   10.2761    0.9330    0.0000 C   0  0  0  0  0  0  0  0  0  0  0  0
    6.7440   -0.0878    0.0000 C   0  0  0  0  0  0  0  0  0  0  0  0
    9.4100    1.4330    0.0000 C   0  0  0  0  0  0  0  0  0  0  0  0
    3.2005   -0.2967    0.0000 C   0  0  3  0  0  0  0  0  0  0  0  0
    4.1479   -0.5978    0.0000 C   0  0  0  0  0  0  0  0  0  0  0  0
    5.8799   -0.5911    0.0000 C   0  0  0  0  0  0  0  0  0  0  0  0
    4.1517   -1.5978    0.0000 C   0  0  0  0  0  0  0  0  0  0  0  0
    7.6501    1.4677    0.0000 C   0  0  0  0  0  0  0  0  0  0  0  0
    3.2067   -1.9062    0.0000 C   0  0  0  0  0  0  0  0  0  0  0  0
    6.7440    0.9538    0.0000 C   0  0  0  0  0  0  0  0  0  0  0  0
    5.0120   -0.0945    0.0000 C   0  0  0  0  0  0  0  0  0  0  0  0
    5.8838   -1.5911    0.0000 C   0  0  0  0  0  0  0  0  0  0  0  0
    5.0197   -2.0945    0.0000 C   0  0  0  0  0  0  0  0  0  0  0  0
    2.8862    0.6526    0.0000 C   0  0  0  0  0  0  0  0  0  0  0  0
   11.1421    1.4330    0.0000 C   0  0  0  0  0  0  0  0  0  0  0  0
    6.8015   -2.1116    0.0000 C   0  0  0  0  0  0  0  0  0  0  0  0
   10.0089   -1.4065    0.0000 H   0  0  0  0  0  0  0  0  0  0  0  0
    8.3274   -2.2210    0.0000 H   0  0  0  0  0  0  0  0  0  0  0  0
    8.8024   -3.0436    0.0000 H   0  0  0  0  0  0  0  0  0  0  0  0
   10.0177   -3.0436    0.0000 H   0  0  0  0  0  0  0  0  0  0  0  0
   10.4927   -2.2210    0.0000 H   0  0  0  0  0  0  0  0  0  0  0  0
   10.8130   -0.3770    0.0000 H   0  0  0  0  0  0  0  0  0  0  0  0
    2.5876   -0.2029    0.0000 H   0  0  0  0  0  0  0  0  0  0  0  0
    7.6572    2.0876    0.0000 H   0  0  0  0  0  0  0  0  0  0  0  0
    2.6705   -2.2175    0.0000 H   0  0  0  0  0  0  0  0  0  0  0  0
    3.4599   -2.4721    0.0000 H   0  0  0  0  0  0  0  0  0  0  0  0
    6.2083    1.2659    0.0000 H   0  0  0  0  0  0  0  0  0  0  0  0
    5.0096    0.5255    0.0000 H   0  0  0  0  0  0  0  0  0  0  0  0
    2.0000   -1.1061    0.0000 H   0  0  0  0  0  0  0  0  0  0  0  0
    5.0221   -2.7145    0.0000 H   0  0  0  0  0  0  0  0  0  0  0  0
    6.4219   -1.8991    0.0000 H   0  0  0  0  0  0  0  0  0  0  0  0
    3.4748    0.8475    0.0000 H   0  0  0  0  0  0  0  0  0  0  0  0
    2.6913    1.2412    0.0000 H   0  0  0  0  0  0  0  0  0  0  0  0
    2.2976    0.4577    0.0000 H   0  0  0  0  0  0  0  0  0  0  0  0
    6.4853   -1.5782    0.0000 H   0  0  0  0  0  0  0  0  0  0  0  0
    6.2681   -2.4278    0.0000 H   0  0  0  0  0  0  0  0  0  0  0  0
    7.1176   -2.6449    0.0000 H   0  0  0  0  0  0  0  0  0  0  0  0
   12.5451    1.2430    0.0000 H   0  0  0  0  0  0  0  0  0  0  0  0
  1 13  1  0  0  0  0
  1 29  1  0  0  0  0
  2 16  2  0  0  0  0
  3 28  1  0  0  0  0
  3 51  1  0  0  0  0
  4 28  2  0  0  0  0
  5  7  1  0  0  0  0
  5 10  1  0  0  0  0
  5 11  1  0  0  0  0
  6 17  1  0  0  0  0
  6 22  1  0  0  0  0
  6 42  1  0  0  0  0
  7  8  1  0  0  0  0
  7  9  1  0  0  0  0
  7 30  1  0  0  0  0
  8  9  1  0  0  0  0
  8 31  1  0  0  0  0
  8 32  1  0  0  0  0
  9 33  1  0  0  0  0
  9 34  1  0  0  0  0
 10 12  2  0  0  0  0
 10 13  1  0  0  0  0
 11 14  2  0  0  0  0
 11 35  1  0  0  0  0
 12 16  1  0  0  0  0
 12 21  1  0  0  0  0
 13 15  2  0  0  0  0
 14 16  1  0  0  0  0
 14 28  1  0  0  0  0
 15 19  1  0  0  0  0
 15 23  1  0  0  0  0
 17 18  1  0  0  0  0
 17 27  1  0  0  0  0
 17 36  1  0  0  0  0
 18 20  2  0  0  0  0
 18 24  1  0  0  0  0
 19 24  2  0  0  0  0
 19 25  1  0  0  0  0
 20 22  1  0  0  0  0
 20 26  1  0  0  0  0
 21 23  2  0  0  0  0
 21 37  1  0  0  0  0
 22 38  1  0  0  0  0
 22 39  1  0  0  0  0
 23 40  1  0  0  0  0
 24 41  1  0  0  0  0
 25 26  2  0  0  0  0
 25 44  1  0  0  0  0
 26 43  1  0  0  0  0
 27 45  1  0  0  0  0
 27 46  1  0  0  0  0
 27 47  1  0  0  0  0
 29 48  1  0  0  0  0
 29 49  1  0  0  0  0
 29 50  1  0  0  0  0
M  END
> <PUBCHEM_COMPOUND_CID>
502082
> <PUBCHEM_COMPOUND_CANONICALIZED>
1
> <PUBCHEM_CACTVS_COMPLEXITY>
718
> <PUBCHEM_CACTVS_HBOND_ACCEPTOR>
6
> <PUBCHEM_CACTVS_HBOND_DONOR>
2
> <PUBCHEM_CACTVS_ROTATABLE_BOND>
4
> <PUBCHEM_CACTVS_SUBSKEYS>
AAADceB7OAAAAAAAAAAAAAAAGAAAAWAAAAAwYIAAAAAAAFiBQAAAHgAQCAAADCzBmAYyzoPABgCIAqTWSACCCAAlIAAIiIENTMgOJj7MtZuFcahk8BHY+cea2fOewAADQAAaEACAAAaAADQgAAAAAAAAAA==
> <PUBCHEM_IUPAC_OPENEYE_NAME>
1-cyclopropyl-8-methoxy-7-(3-methylisoindolin-5-yl)-4-oxo-quinoline-3-carboxylic acid
> <PUBCHEM_IUPAC_CAS_NAME>
1-cyclopropyl-8-methoxy-7-(3-methyl-2,3-dihydro-1H-isoindol-5-yl)-4-oxo-3-quinolinecarboxylic acid
> <PUBCHEM_IUPAC_NAME_MARKUP>
1-cyclopropyl-8-methoxy-7-(3-methyl-2,3-dihydro-1<I>H</I>-isoindol-5-yl)-4-oxoquinoline-3-carboxylic acid
> <PUBCHEM_IUPAC_NAME>
1-cyclopropyl-8-methoxy-7-(3-methyl-2,3-dihydro-1H-isoindol-5-yl)-4-oxoquinoline-3-carboxylic acid
> <PUBCHEM_IUPAC_SYSTEMATIC_NAME>
1-cyclopropyl-8-methoxy-7-(3-methyl-2,3-dihydro-1H-isoindol-5-yl)-4-oxidanylidene-quinoline-3-carboxylic acid
> <PUBCHEM_IUPAC_TRADITIONAL_NAME>
1-cyclopropyl-4-keto-8-methoxy-7-(3-methylisoindolin-5-yl)quinoline-3-carboxylic acid
> <PUBCHEM_IUPAC_INCHI>
InChI=1S/C23H22N2O4/c1-12-18-9-13(3-4-14(18)10-24-12)16-7-8-17-20(22(16)29-2)25(15-5-6-15)11-19(21(17)26)23(27)28/h3-4,7-9,11-12,15,24H,5-6,10H2,1-2H3,(H,27,28)
> <PUBCHEM_IUPAC_INCHIKEY>
BJJXSFIUJTWIQV-UHFFFAOYSA-N
> <PUBCHEM_XLOGP3_AA>
1.2
> <PUBCHEM_EXACT_MASS>
390.15795719
> <PUBCHEM_MOLECULAR_FORMULA>
C23H22N2O4
> <PUBCHEM_MOLECULAR_WEIGHT>
390.4
> <PUBCHEM_OPENEYE_CAN_SMILES>
CC1C2=C(CN1)C=CC(=C2)C3=C(C4=C(C=C3)C(=O)C(=CN4C5CC5)C(=O)O)OC
> <PUBCHEM_OPENEYE_ISO_SMILES>
CC1C2=C(CN1)C=CC(=C2)C3=C(C4=C(C=C3)C(=O)C(=CN4C5CC5)C(=O)O)OC
> <PUBCHEM_CACTVS_TPSA>
78.9
> <PUBCHEM_MONOISOTOPIC_WEIGHT>
390.15795719
> <PUBCHEM_TOTAL_CHARGE>
0
> <PUBCHEM_HEAVY_ATOM_COUNT>
29
> <PUBCHEM_ATOM_DEF_STEREO_COUNT>
0
> <PUBCHEM_ATOM_UDEF_STEREO_COUNT>
1
> <PUBCHEM_BOND_DEF_STEREO_COUNT>
0
> <PUBCHEM_BOND_UDEF_STEREO_COUNT>
0
> <PUBCHEM_ISOTOPIC_ATOM_COUNT>
0
> <PUBCHEM_COMPONENT_COUNT>
1
> <PUBCHEM_CACTVS_TAUTO_COUNT>
-1
> <PUBCHEM_COORDINATE_TYPE>
1
5
255
> <PUBCHEM_BONDANNOTATIONS>
10  12  8
10  13  8
11  14  8
12  16  8
12  21  8
13  15  8
14  16  8
15  23  8
17  27  3
18  20  8
18  24  8
19  24  8
19  25  8
20  26  8
21  23  8
25  26  8
5  10  8
5  11  8
$$$$
