502068
  -OEChem-10302200282D
 67 71  0     1  0  0  0  0  0999 V2000
    4.0199    4.3657    0.0000 Cl  0  0  0  0  0  0  0  0  0  0  0  0
    6.5044   -1.7736    0.0000 O   0  0  0  0  0  0  0  0  0  0  0  0
    6.4766    1.7624    0.0000 O   0  0  0  0  0  0  0  0  0  0  0  0
    4.9798    0.8903    0.0000 O   0  0  0  0  0  0  0  0  0  0  0  0
    3.9420   -0.8757    0.0000 O   0  0  0  0  0  0  0  0  0  0  0  0
    9.5527    0.0185    0.0000 O   0  0  0  0  0  0  0  0  0  0  0  0
    9.5458    1.7509    0.0000 O   0  0  0  0  0  0  0  0  0  0  0  0
   11.0805   -0.8757    0.0000 O   0  0  0  0  0  0  0  0  0  0  0  0
    3.4699    0.0416    0.0000 O   0  0  0  0  0  0  0  0  0  0  0  0
    5.4628   -1.7816    0.0000 C   0  0  0  0  0  0  0  0  0  0  0  0
    4.9420   -0.8795    0.0000 C   0  0  1  0  0  0  0  0  0  0  0  0
    5.4697    0.0185    0.0000 C   0  0  2  0  0  0  0  0  0  0  0  0
    6.5112    0.0025    0.0000 C   0  0  0  0  0  0  0  0  0  0  0  0
    7.0112   -0.8636    0.0000 C   0  0  0  0  0  0  0  0  0  0  0  0
    7.0112    0.8685    0.0000 C   0  0  0  0  0  0  0  0  0  0  0  0
    8.0112    0.8685    0.0000 C   0  0  0  0  0  0  0  0  0  0  0  0
    8.0112   -0.8636    0.0000 C   0  0  0  0  0  0  0  0  0  0  0  0
    8.0320    2.6685    0.0000 C   0  0  2  0  0  0  0  0  0  0  0  0
    6.9904    2.6685    0.0000 C   0  0  1  0  0  0  0  0  0  0  0  0
    4.5987   -2.2849    0.0000 C   0  0  0  0  0  0  0  0  0  0  0  0
    5.4666   -2.7816    0.0000 C   0  0  0  0  0  0  0  0  0  0  0  0
    8.5112    0.0025    0.0000 C   0  0  0  0  0  0  0  0  0  0  0  0
    8.5459    1.7624    0.0000 C   0  0  0  0  0  0  0  0  0  0  0  0
    8.5181   -1.7736    0.0000 C   0  0  0  0  0  0  0  0  0  0  0  0
    8.5354    3.5326    0.0000 C   0  0  0  0  0  0  0  0  0  0  0  0
    6.4871    3.5326    0.0000 C   0  0  0  0  0  0  0  0  0  0  0  0
    8.0081   -2.6338    0.0000 C   0  0  0  0  0  0  0  0  0  0  0  0
    9.5597   -1.7816    0.0000 C   0  0  0  0  0  0  0  0  0  0  0  0
   10.0805   -0.8795    0.0000 C   0  0  0  0  0  0  0  0  0  0  0  0
    8.4980   -3.5055    0.0000 C   0  0  0  0  0  0  0  0  0  0  0  0
    3.9798    0.9018    0.0000 C   0  0  0  0  0  0  0  0  0  0  0  0
    3.4899    1.7736    0.0000 C   0  0  0  0  0  0  0  0  0  0  0  0
    7.9881   -4.3657    0.0000 C   0  0  0  0  0  0  0  0  0  0  0  0
    3.9999    2.6338    0.0000 C   0  0  0  0  0  0  0  0  0  0  0  0
    2.4900    1.7851    0.0000 C   0  0  0  0  0  0  0  0  0  0  0  0
    3.5099    3.5055    0.0000 C   0  0  0  0  0  0  0  0  0  0  0  0
    2.0000    2.6569    0.0000 C   0  0  0  0  0  0  0  0  0  0  0  0
    2.5100    3.5171    0.0000 C   0  0  0  0  0  0  0  0  0  0  0  0
    4.6309   -1.4159    0.0000 H   0  0  0  0  0  0  0  0  0  0  0  0
    4.8498    0.0245    0.0000 H   0  0  0  0  0  0  0  0  0  0  0  0
    8.6520    2.6649    0.0000 H   0  0  0  0  0  0  0  0  0  0  0  0
    6.3704    2.6649    0.0000 H   0  0  0  0  0  0  0  0  0  0  0  0
    4.2866   -1.7492    0.0000 H   0  0  0  0  0  0  0  0  0  0  0  0
    4.0630   -2.5970    0.0000 H   0  0  0  0  0  0  0  0  0  0  0  0
    4.9108   -2.8207    0.0000 H   0  0  0  0  0  0  0  0  0  0  0  0
    4.8466   -2.7840    0.0000 H   0  0  0  0  0  0  0  0  0  0  0  0
    5.4690   -3.4016    0.0000 H   0  0  0  0  0  0  0  0  0  0  0  0
    6.0866   -2.7792    0.0000 H   0  0  0  0  0  0  0  0  0  0  0  0
    3.6299   -1.4114    0.0000 H   0  0  0  0  0  0  0  0  0  0  0  0
    9.0711    3.2205    0.0000 H   0  0  0  0  0  0  0  0  0  0  0  0
    8.8474    4.0683    0.0000 H   0  0  0  0  0  0  0  0  0  0  0  0
    7.9996    3.8446    0.0000 H   0  0  0  0  0  0  0  0  0  0  0  0
    7.0228    3.8446    0.0000 H   0  0  0  0  0  0  0  0  0  0  0  0
    6.1750    4.0683    0.0000 H   0  0  0  0  0  0  0  0  0  0  0  0
    5.9513    3.2205    0.0000 H   0  0  0  0  0  0  0  0  0  0  0  0
    7.5378   -2.2298    0.0000 H   0  0  0  0  0  0  0  0  0  0  0  0
    7.5286   -3.0268    0.0000 H   0  0  0  0  0  0  0  0  0  0  0  0
    9.8676   -2.3197    0.0000 H   0  0  0  0  0  0  0  0  0  0  0  0
    8.9684   -3.9095    0.0000 H   0  0  0  0  0  0  0  0  0  0  0  0
    8.9776   -3.1125    0.0000 H   0  0  0  0  0  0  0  0  0  0  0  0
    7.4548   -4.0495    0.0000 H   0  0  0  0  0  0  0  0  0  0  0  0
    7.6719   -4.8990    0.0000 H   0  0  0  0  0  0  0  0  0  0  0  0
    8.5214   -4.6819    0.0000 H   0  0  0  0  0  0  0  0  0  0  0  0
    4.6198    2.6266    0.0000 H   0  0  0  0  0  0  0  0  0  0  0  0
    2.1738    1.2518    0.0000 H   0  0  0  0  0  0  0  0  0  0  0  0
    1.3800    2.6641    0.0000 H   0  0  0  0  0  0  0  0  0  0  0  0
    2.2062    4.0576    0.0000 H   0  0  0  0  0  0  0  0  0  0  0  0
  1 36  1  0  0  0  0
  2 10  1  0  0  0  0
  2 14  1  0  0  0  0
  3 15  1  0  0  0  0
  3 19  1  0  0  0  0
 12  4  1  1  0  0  0
  4 31  1  0  0  0  0
 11  5  1  6  0  0  0
  5 49  1  0  0  0  0
  6 22  1  0  0  0  0
  6 29  1  0  0  0  0
  7 23  2  0  0  0  0
  8 29  2  0  0  0  0
  9 31  2  0  0  0  0
 10 11  1  0  0  0  0
 10 20  1  0  0  0  0
 10 21  1  0  0  0  0
 11 12  1  0  0  0  0
 11 39  1  0  0  0  0
 12 13  1  0  0  0  0
 12 40  1  0  0  0  0
 13 14  2  0  0  0  0
 13 15  1  0  0  0  0
 14 17  1  0  0  0  0
 15 16  2  0  0  0  0
 16 22  1  0  0  0  0
 16 23  1  0  0  0  0
 17 22  2  0  0  0  0
 17 24  1  0  0  0  0
 18 19  1  0  0  0  0
 18 23  1  0  0  0  0
 18 25  1  1  0  0  0
 18 41  1  0  0  0  0
 19 26  1  6  0  0  0
 19 42  1  0  0  0  0
 20 43  1  0  0  0  0
 20 44  1  0  0  0  0
 20 45  1  0  0  0  0
 21 46  1  0  0  0  0
 21 47  1  0  0  0  0
 21 48  1  0  0  0  0
 24 27  1  0  0  0  0
 24 28  2  0  0  0  0
 25 50  1  0  0  0  0
 25 51  1  0  0  0  0
 25 52  1  0  0  0  0
 26 53  1  0  0  0  0
 26 54  1  0  0  0  0
 26 55  1  0  0  0  0
 27 30  1  0  0  0  0
 27 56  1  0  0  0  0
 27 57  1  0  0  0  0
 28 29  1  0  0  0  0
 28 58  1  0  0  0  0
 30 33  1  0  0  0  0
 30 59  1  0  0  0  0
 30 60  1  0  0  0  0
 31 32  1  0  0  0  0
 32 34  2  0  0  0  0
 32 35  1  0  0  0  0
 33 61  1  0  0  0  0
 33 62  1  0  0  0  0
 33 63  1  0  0  0  0
 34 36  1  0  0  0  0
 34 64  1  0  0  0  0
 35 37  2  0  0  0  0
 35 65  1  0  0  0  0
 36 38  2  0  0  0  0
 37 38  1  0  0  0  0
 37 66  1  0  0  0  0
 38 67  1  0  0  0  0
M  END
> <PUBCHEM_COMPOUND_CID>
502068
> <PUBCHEM_COMPOUND_CANONICALIZED>
1
> <PUBCHEM_CACTVS_COMPLEXITY>
993
> <PUBCHEM_CACTVS_HBOND_ACCEPTOR>
8
> <PUBCHEM_CACTVS_HBOND_DONOR>
1
> <PUBCHEM_CACTVS_ROTATABLE_BOND>
5
> <PUBCHEM_CACTVS_SUBSKEYS>
AAADceB4PAAEAAAAAAAAAAAAAAAAAAAAAAA0aIECAAAAAACRQAAAGgIACAAADVagmCIyDoAABgCIAqDSCAACCAAkJQAIiAEECsgNNzaFNxqCe2Cl4BULqYfI7PzOIAACKAAIAABAAARQABAAAAAAAAAAAA==
> <PUBCHEM_IUPAC_OPENEYE_NAME>
[(5R,6S,10R,11R)-5-hydroxy-4,4,10,11-tetramethyl-12,16-dioxo-18-propyl-3,9,15-trioxatetracyclo[12.4.0.02,7.08,13]octadeca-1(14),2(7),8(13),17-tetraen-6-yl] 3-chlorobenzoate
> <PUBCHEM_IUPAC_CAS_NAME>
3-chlorobenzoic acid [(5R,6S,10R,11R)-5-hydroxy-4,4,10,11-tetramethyl-12,16-dioxo-18-propyl-3,9,15-trioxatetracyclo[12.4.0.02,7.08,13]octadeca-1(14),2(7),8(13),17-tetraen-6-yl] ester
> <PUBCHEM_IUPAC_NAME_MARKUP>
[(5<I>R</I>,6<I>S</I>,10<I>R</I>,11<I>R</I>)-5-hydroxy-4,4,10,11-tetramethyl-12,16-dioxo-18-propyl-3,9,15-trioxatetracyclo[12.4.0.0<SUP>2,7</SUP>.0<SUP>8,13</SUP>]octadeca-1(14),2(7),8(13),17-tetraen-6-yl] 3-chlorobenzoate
> <PUBCHEM_IUPAC_NAME>
[(5R,6S,10R,11R)-5-hydroxy-4,4,10,11-tetramethyl-12,16-dioxo-18-propyl-3,9,15-trioxatetracyclo[12.4.0.02,7.08,13]octadeca-1(14),2(7),8(13),17-tetraen-6-yl] 3-chlorobenzoate
> <PUBCHEM_IUPAC_SYSTEMATIC_NAME>
[(5R,6S,10R,11R)-4,4,10,11-tetramethyl-5-oxidanyl-12,16-bis(oxidanylidene)-18-propyl-3,9,15-trioxatetracyclo[12.4.0.02,7.08,13]octadeca-1(14),2(7),8(13),17-tetraen-6-yl] 3-chloranylbenzoate
> <PUBCHEM_IUPAC_TRADITIONAL_NAME>
3-chlorobenzoic acid [(5R,6S,10R,11R)-5-hydroxy-12,16-diketo-4,4,10,11-tetramethyl-18-propyl-3,9,15-trioxatetracyclo[12.4.0.02,7.08,13]octadeca-1(14),2(7),8(13),17-tetraen-6-yl] ester
> <PUBCHEM_IUPAC_INCHI>
InChI=1S/C29H29ClO8/c1-6-8-15-12-18(31)36-23-19(15)25-21(24-20(23)22(32)13(2)14(3)35-24)26(27(33)29(4,5)38-25)37-28(34)16-9-7-10-17(30)11-16/h7,9-14,26-27,33H,6,8H2,1-5H3/t13-,14-,26+,27-/m1/s1
> <PUBCHEM_IUPAC_INCHIKEY>
IDCYHJZFBSYGSW-ZDWLSUPMSA-N
> <PUBCHEM_XLOGP3_AA>
5
> <PUBCHEM_EXACT_MASS>
540.1550956
> <PUBCHEM_MOLECULAR_FORMULA>
C29H29ClO8
> <PUBCHEM_MOLECULAR_WEIGHT>
541.0
> <PUBCHEM_OPENEYE_CAN_SMILES>
CCCC1=CC(=O)OC2=C1C3=C(C(C(C(O3)(C)C)O)OC(=O)C4=CC(=CC=C4)Cl)C5=C2C(=O)C(C(O5)C)C
> <PUBCHEM_OPENEYE_ISO_SMILES>
CCCC1=CC(=O)OC2=C1C3=C([C@@H]([C@H](C(O3)(C)C)O)OC(=O)C4=CC(=CC=C4)Cl)C5=C2C(=O)[C@@H]([C@H](O5)C)C
> <PUBCHEM_CACTVS_TPSA>
108
> <PUBCHEM_MONOISOTOPIC_WEIGHT>
540.1550956
> <PUBCHEM_TOTAL_CHARGE>
0
> <PUBCHEM_HEAVY_ATOM_COUNT>
38
> <PUBCHEM_ATOM_DEF_STEREO_COUNT>
4
> <PUBCHEM_ATOM_UDEF_STEREO_COUNT>
0
> <PUBCHEM_BOND_DEF_STEREO_COUNT>
0
> <PUBCHEM_BOND_UDEF_STEREO_COUNT>
0
> <PUBCHEM_ISOTOPIC_ATOM_COUNT>
0
> <PUBCHEM_COMPONENT_COUNT>
1
> <PUBCHEM_CACTVS_TAUTO_COUNT>
-1
> <PUBCHEM_COORDINATE_TYPE>
1
5
255
> <PUBCHEM_BONDANNOTATIONS>
13  14  8
13  15  8
14  17  8
15  16  8
16  22  8
17  22  8
17  24  8
18  25  5
19  26  6
24  28  8
28  29  8
32  34  8
32  35  8
34  36  8
35  37  8
36  38  8
37  38  8
12  4  5
11  5  6
6  22  8
6  29  8
$$$$
