502093
  -OEChem-10302200282D
 97103  0     1  0  0  0  0  0999 V2000
    3.5498    7.6365    0.0000 F   0  0  0  0  0  0  0  0  0  0  0  0
   12.7532    3.0826    0.0000 F   0  0  0  0  0  0  0  0  0  0  0  0
    5.2819    4.6365    0.0000 O   0  0  0  0  0  0  0  0  0  0  0  0
    7.0303    8.6710    0.0000 O   0  0  0  0  0  0  0  0  0  0  0  0
    9.6799    7.1640    0.0000 O   0  0  0  0  0  0  0  0  0  0  0  0
    8.8081    8.6606    0.0000 O   0  0  0  0  0  0  0  0  0  0  0  0
   14.9853    7.6214    0.0000 O   0  0  0  0  0  0  0  0  0  0  0  0
   14.4853    0.0826    0.0000 O   0  0  0  0  0  0  0  0  0  0  0  0
   16.2454    6.3614    0.0000 O   0  0  0  0  0  0  0  0  0  0  0  0
   12.2219   10.0485    0.0000 O   0  0  0  0  0  0  0  0  0  0  0  0
    3.5498    5.6365    0.0000 N   0  0  3  0  0  0  0  0  0  0  0  0
    1.9750    3.5725    0.0000 N   0  0  0  0  0  0  0  0  0  0  0  0
    7.0418    5.6018    0.0000 N   0  0  0  0  0  0  0  0  0  0  0  0
   14.4853    6.0826    0.0000 N   0  0  0  0  0  0  0  0  0  0  0  0
   14.4853    2.0826    0.0000 N   0  0  0  0  0  0  0  0  0  0  0  0
   13.8042    9.3440    0.0000 N   0  0  0  0  0  0  0  0  0  0  0  0
    1.9750    5.3046    0.0000 C   0  0  2  0  0  0  0  0  0  0  0  0
    2.4750    4.4385    0.0000 C   0  0  1  0  0  0  0  0  0  0  0  0
    2.6420    6.0416    0.0000 C   0  0  0  0  0  0  0  0  0  0  0  0
    3.4468    4.6477    0.0000 C   0  0  0  0  0  0  0  0  0  0  0  0
    0.9749    5.3046    0.0000 C   0  0  0  0  0  0  0  0  0  0  0  0
    0.4749    4.4385    0.0000 C   0  0  0  0  0  0  0  0  0  0  0  0
    0.9749    3.5725    0.0000 C   0  0  0  0  0  0  0  0  0  0  0  0
    7.0303    4.6019    0.0000 C   0  0  0  0  0  0  0  0  0  0  0  0
    6.5203    3.7417    0.0000 C   0  0  0  0  0  0  0  0  0  0  0  0
    7.5202    3.7301    0.0000 C   0  0  0  0  0  0  0  0  0  0  0  0
    4.4158    6.1365    0.0000 C   0  0  0  0  0  0  0  0  0  0  0  0
    6.1479    6.1365    0.0000 C   0  0  0  0  0  0  0  0  0  0  0  0
    5.2819    5.6365    0.0000 C   0  0  0  0  0  0  0  0  0  0  0  0
    4.4158    7.1365    0.0000 C   0  0  0  0  0  0  0  0  0  0  0  0
    6.1479    7.1365    0.0000 C   0  0  0  0  0  0  0  0  0  0  0  0
    7.9479    6.1156    0.0000 C   0  0  0  0  0  0  0  0  0  0  0  0
    5.2819    7.6365    0.0000 C   0  0  0  0  0  0  0  0  0  0  0  0
    7.0418    7.6711    0.0000 C   0  0  0  0  0  0  0  0  0  0  0  0
    7.9479    7.1573    0.0000 C   0  0  0  0  0  0  0  0  0  0  0  0
    4.4158    4.1365    0.0000 C   0  0  0  0  0  0  0  0  0  0  0  0
    8.8120    7.6606    0.0000 C   0  0  0  0  0  0  0  0  0  0  0  0
   13.9853    7.6214    0.0000 C   0  0  2  0  0  0  0  0  0  0  0  0
   13.6763    6.6704    0.0000 C   0  0  0  0  0  0  0  0  0  0  0  0
   15.3513    1.5826    0.0000 C   0  0  0  0  0  0  0  0  0  0  0  0
   13.6193    1.5826    0.0000 C   0  0  0  0  0  0  0  0  0  0  0  0
   14.4853    5.0826    0.0000 C   0  0  0  0  0  0  0  0  0  0  0  0
   13.3975    8.4305    0.0000 C   0  0  0  0  0  0  0  0  0  0  0  0
   14.4853    3.0826    0.0000 C   0  0  0  0  0  0  0  0  0  0  0  0
   15.2943    6.6704    0.0000 C   0  0  0  0  0  0  0  0  0  0  0  0
   15.3513    0.5826    0.0000 C   0  0  0  0  0  0  0  0  0  0  0  0
   13.6193    0.5826    0.0000 C   0  0  0  0  0  0  0  0  0  0  0  0
   13.6193    4.5826    0.0000 C   0  0  0  0  0  0  0  0  0  0  0  0
   15.3513    4.5826    0.0000 C   0  0  0  0  0  0  0  0  0  0  0  0
   13.6193    3.5826    0.0000 C   0  0  0  0  0  0  0  0  0  0  0  0
   15.3513    3.5826    0.0000 C   0  0  0  0  0  0  0  0  0  0  0  0
   13.2165   10.1530    0.0000 C   0  0  0  0  0  0  0  0  0  0  0  0
   13.6232   11.0666    0.0000 C   0  0  0  0  0  0  0  0  0  0  0  0
    1.6302    6.0815    0.0000 H   0  0  0  0  0  0  0  0  0  0  0  0
    2.9755    3.7515    0.0000 H   0  0  0  0  0  0  0  0  0  0  0  0
    2.9528    6.5781    0.0000 H   0  0  0  0  0  0  0  0  0  0  0  0
    2.1412    6.4070    0.0000 H   0  0  0  0  0  0  0  0  0  0  0  0
    3.5128    4.0313    0.0000 H   0  0  0  0  0  0  0  0  0  0  0  0
    4.0668    4.6486    0.0000 H   0  0  0  0  0  0  0  0  0  0  0  0
    1.0826    5.9151    0.0000 H   0  0  0  0  0  0  0  0  0  0  0  0
    0.3923    5.5166    0.0000 H   0  0  0  0  0  0  0  0  0  0  0  0
    0.0000    4.8371    0.0000 H   0  0  0  0  0  0  0  0  0  0  0  0
    0.0000    4.0400    0.0000 H   0  0  0  0  0  0  0  0  0  0  0  0
    2.2849    3.0356    0.0000 H   0  0  0  0  0  0  0  0  0  0  0  0
    0.3923    3.3604    0.0000 H   0  0  0  0  0  0  0  0  0  0  0  0
    1.0826    2.9619    0.0000 H   0  0  0  0  0  0  0  0  0  0  0  0
    6.4333    4.7692    0.0000 H   0  0  0  0  0  0  0  0  0  0  0  0
    5.9402    3.9604    0.0000 H   0  0  0  0  0  0  0  0  0  0  0  0
    6.4056    3.1324    0.0000 H   0  0  0  0  0  0  0  0  0  0  0  0
    7.6208    3.1183    0.0000 H   0  0  0  0  0  0  0  0  0  0  0  0
    8.1052    3.9354    0.0000 H   0  0  0  0  0  0  0  0  0  0  0  0
    8.4836    5.8036    0.0000 H   0  0  0  0  0  0  0  0  0  0  0  0
    5.2819    8.2565    0.0000 H   0  0  0  0  0  0  0  0  0  0  0  0
    4.1058    4.6734    0.0000 H   0  0  0  0  0  0  0  0  0  0  0  0
    3.8789    3.8265    0.0000 H   0  0  0  0  0  0  0  0  0  0  0  0
    4.7258    3.5995    0.0000 H   0  0  0  0  0  0  0  0  0  0  0  0
   10.2157    7.4760    0.0000 H   0  0  0  0  0  0  0  0  0  0  0  0
   14.2668    8.1739    0.0000 H   0  0  0  0  0  0  0  0  0  0  0  0
   13.1099    6.9226    0.0000 H   0  0  0  0  0  0  0  0  0  0  0  0
   13.3663    6.1335    0.0000 H   0  0  0  0  0  0  0  0  0  0  0  0
   15.9619    1.4750    0.0000 H   0  0  0  0  0  0  0  0  0  0  0  0
   15.5634    2.1652    0.0000 H   0  0  0  0  0  0  0  0  0  0  0  0
   13.4072    2.1652    0.0000 H   0  0  0  0  0  0  0  0  0  0  0  0
   13.0087    1.4750    0.0000 H   0  0  0  0  0  0  0  0  0  0  0  0
   12.8835    8.7772    0.0000 H   0  0  0  0  0  0  0  0  0  0  0  0
   12.9668    7.9845    0.0000 H   0  0  0  0  0  0  0  0  0  0  0  0
   15.5634    0.0000    0.0000 H   0  0  0  0  0  0  0  0  0  0  0  0
   15.9619    0.6903    0.0000 H   0  0  0  0  0  0  0  0  0  0  0  0
   13.0087    0.6903    0.0000 H   0  0  0  0  0  0  0  0  0  0  0  0
   13.4072    0.0000    0.0000 H   0  0  0  0  0  0  0  0  0  0  0  0
   13.0823    4.8926    0.0000 H   0  0  0  0  0  0  0  0  0  0  0  0
   15.8882    4.8926    0.0000 H   0  0  0  0  0  0  0  0  0  0  0  0
   15.8882    3.2726    0.0000 H   0  0  0  0  0  0  0  0  0  0  0  0
   14.4208    9.4088    0.0000 H   0  0  0  0  0  0  0  0  0  0  0  0
   14.1896   10.8144    0.0000 H   0  0  0  0  0  0  0  0  0  0  0  0
   13.8754   11.6330    0.0000 H   0  0  0  0  0  0  0  0  0  0  0  0
   13.0568   11.3188    0.0000 H   0  0  0  0  0  0  0  0  0  0  0  0
  1 30  1  0  0  0  0
  2 50  1  0  0  0  0
  3 29  1  0  0  0  0
  3 36  1  0  0  0  0
  4 34  2  0  0  0  0
  5 37  1  0  0  0  0
  5 77  1  0  0  0  0
  6 37  2  0  0  0  0
  7 38  1  0  0  0  0
  7 45  1  0  0  0  0
  8 46  1  0  0  0  0
  8 47  1  0  0  0  0
  9 45  2  0  0  0  0
 10 52  2  0  0  0  0
 11 19  1  0  0  0  0
 11 20  1  0  0  0  0
 11 27  1  0  0  0  0
 12 18  1  0  0  0  0
 12 23  1  0  0  0  0
 12 64  1  0  0  0  0
 13 24  1  0  0  0  0
 13 28  1  0  0  0  0
 13 32  1  0  0  0  0
 14 39  1  0  0  0  0
 14 42  1  0  0  0  0
 14 45  1  0  0  0  0
 15 40  1  0  0  0  0
 15 41  1  0  0  0  0
 15 44  1  0  0  0  0
 16 43  1  0  0  0  0
 16 52  1  0  0  0  0
 16 94  1  0  0  0  0
 17 18  1  0  0  0  0
 17 19  1  0  0  0  0
 17 21  1  0  0  0  0
 17 54  1  6  0  0  0
 18 20  1  0  0  0  0
 18 55  1  6  0  0  0
 19 56  1  0  0  0  0
 19 57  1  0  0  0  0
 20 58  1  0  0  0  0
 20 59  1  0  0  0  0
 21 22  1  0  0  0  0
 21 60  1  0  0  0  0
 21 61  1  0  0  0  0
 22 23  1  0  0  0  0
 22 62  1  0  0  0  0
 22 63  1  0  0  0  0
 23 65  1  0  0  0  0
 23 66  1  0  0  0  0
 24 25  1  0  0  0  0
 24 26  1  0  0  0  0
 24 67  1  0  0  0  0
 25 26  1  0  0  0  0
 25 68  1  0  0  0  0
 25 69  1  0  0  0  0
 26 70  1  0  0  0  0
 26 71  1  0  0  0  0
 27 29  1  0  0  0  0
 27 30  2  0  0  0  0
 28 29  2  0  0  0  0
 28 31  1  0  0  0  0
 30 33  1  0  0  0  0
 31 33  2  0  0  0  0
 31 34  1  0  0  0  0
 32 35  2  0  0  0  0
 32 72  1  0  0  0  0
 33 73  1  0  0  0  0
 34 35  1  0  0  0  0
 35 37  1  0  0  0  0
 36 74  1  0  0  0  0
 36 75  1  0  0  0  0
 36 76  1  0  0  0  0
 38 39  1  0  0  0  0
 38 43  1  6  0  0  0
 38 78  1  0  0  0  0
 39 79  1  0  0  0  0
 39 80  1  0  0  0  0
 40 46  1  0  0  0  0
 40 81  1  0  0  0  0
 40 82  1  0  0  0  0
 41 47  1  0  0  0  0
 41 83  1  0  0  0  0
 41 84  1  0  0  0  0
 42 48  2  0  0  0  0
 42 49  1  0  0  0  0
 43 85  1  0  0  0  0
 43 86  1  0  0  0  0
 44 50  2  0  0  0  0
 44 51  1  0  0  0  0
 46 87  1  0  0  0  0
 46 88  1  0  0  0  0
 47 89  1  0  0  0  0
 47 90  1  0  0  0  0
 48 50  1  0  0  0  0
 48 91  1  0  0  0  0
 49 51  2  0  0  0  0
 49 92  1  0  0  0  0
 51 93  1  0  0  0  0
 52 53  1  0  0  0  0
 53 95  1  0  0  0  0
 53 96  1  0  0  0  0
 53 97  1  0  0  0  0
M  END
> <PUBCHEM_COMPOUND_CID>
502093
> <PUBCHEM_COMPOUND_CANONICALIZED>
1
> <PUBCHEM_CACTVS_COMPLEXITY>
1200
> <PUBCHEM_CACTVS_HBOND_ACCEPTOR>
14
> <PUBCHEM_CACTVS_HBOND_DONOR>
3
> <PUBCHEM_CACTVS_ROTATABLE_BOND>
8
> <PUBCHEM_CACTVS_SUBSKEYS>
AAADcfB/vYAAAAAAAAAAAAAAGAAAAWLAAAA8eIECAAAAAFiBQAAAHwAQCAAADTzhmA4yzoPABgCIAqXWWACCCAAlIgAIiIENbMgOZj7M9dufcahk9hHY+cea2bOeCACBAAQCEAAQAQIACAQgAAAAAAAAAA==
> <PUBCHEM_IUPAC_OPENEYE_NAME>
7-[(4aS,7aS)-1,2,3,4,4a,5,7,7a-octahydropyrrolo[3,4-b]pyridin-6-yl]-1-cyclopropyl-6-fluoro-8-methoxy-4-oxo-quinoline-3-carboxylic acid;N-[[(5S)-3-(3-fluoro-4-morpholino-phenyl)-2-oxo-oxazolidin-5-yl]methyl]acetamide
> <PUBCHEM_IUPAC_CAS_NAME>
7-[(4aS,7aS)-1,2,3,4,4a,5,7,7a-octahydropyrrolo[3,4-b]pyridin-6-yl]-1-cyclopropyl-6-fluoro-8-methoxy-4-oxo-3-quinolinecarboxylic acid;N-[[(5S)-3-[3-fluoro-4-(4-morpholinyl)phenyl]-2-oxo-5-oxazolidinyl]methyl]acetamide
> <PUBCHEM_IUPAC_NAME_MARKUP>
7-[(4<I>a</I><I>S</I>,7<I>a</I><I>S</I>)-1,2,3,4,4<I>a</I>,5,7,7<I>a</I>-octahydropyrrolo[3,4-b]pyridin-6-yl]-1-cyclopropyl-6-fluoro-8-methoxy-4-oxoquinoline-3-carboxylic acid;<I>N</I>-[[(5<I>S</I>)-3-(3-fluoro-4-morpholin-4-ylphenyl)-2-oxo-1,3-oxazolidin-5-yl]methyl]acetamide
> <PUBCHEM_IUPAC_NAME>
7-[(4aS,7aS)-1,2,3,4,4a,5,7,7a-octahydropyrrolo[3,4-b]pyridin-6-yl]-1-cyclopropyl-6-fluoro-8-methoxy-4-oxoquinoline-3-carboxylic acid;N-[[(5S)-3-(3-fluoro-4-morpholin-4-ylphenyl)-2-oxo-1,3-oxazolidin-5-yl]methyl]acetamide
> <PUBCHEM_IUPAC_SYSTEMATIC_NAME>
7-[(4aS,7aS)-1,2,3,4,4a,5,7,7a-octahydropyrrolo[3,4-b]pyridin-6-yl]-1-cyclopropyl-6-fluoranyl-8-methoxy-4-oxidanylidene-quinoline-3-carboxylic acid;N-[[(5S)-3-(3-fluoranyl-4-morpholin-4-yl-phenyl)-2-oxidanylidene-1,3-oxazolidin-5-yl]methyl]ethanamide
> <PUBCHEM_IUPAC_TRADITIONAL_NAME>
7-[(4aS,7aS)-1,2,3,4,4a,5,7,7a-octahydropyrrolo[3,4-b]pyridin-6-yl]-1-cyclopropyl-6-fluoro-4-keto-8-methoxy-quinoline-3-carboxylic acid;N-[[(5S)-3-(3-fluoro-4-morpholino-phenyl)-2-keto-oxazolidin-5-yl]methyl]acetamide
> <PUBCHEM_IUPAC_INCHI>
InChI=1S/C21H24FN3O4.C16H20FN3O4/c1-29-20-17-13(19(26)14(21(27)28)9-25(17)12-4-5-12)7-15(22)18(20)24-8-11-3-2-6-23-16(11)10-24;1-11(21)18-9-13-10-20(16(22)24-13)12-2-3-15(14(17)8-12)19-4-6-23-7-5-19/h7,9,11-12,16,23H,2-6,8,10H2,1H3,(H,27,28);2-3,8,13H,4-7,9-10H2,1H3,(H,18,21)/t11-,16+;13-/m00/s1
> <PUBCHEM_IUPAC_INCHIKEY>
RTWRLXDMKONKPF-UKHQAZMXSA-N
> <PUBCHEM_EXACT_MASS>
738.31886871
> <PUBCHEM_MOLECULAR_FORMULA>
C37H44F2N6O8
> <PUBCHEM_MOLECULAR_WEIGHT>
738.8
> <PUBCHEM_OPENEYE_CAN_SMILES>
CC(=O)NCC1CN(C(=O)O1)C2=CC(=C(C=C2)N3CCOCC3)F.COC1=C2C(=CC(=C1N3CC4CCCNC4C3)F)C(=O)C(=CN2C5CC5)C(=O)O
> <PUBCHEM_OPENEYE_ISO_SMILES>
CC(=O)NC[C@H]1CN(C(=O)O1)C2=CC(=C(C=C2)N3CCOCC3)F.COC1=C2C(=CC(=C1N3C[C@@H]4CCCN[C@@H]4C3)F)C(=O)C(=CN2C5CC5)C(=O)O
> <PUBCHEM_CACTVS_TPSA>
153
> <PUBCHEM_MONOISOTOPIC_WEIGHT>
738.31886871
> <PUBCHEM_TOTAL_CHARGE>
0
> <PUBCHEM_HEAVY_ATOM_COUNT>
53
> <PUBCHEM_ATOM_DEF_STEREO_COUNT>
3
> <PUBCHEM_ATOM_UDEF_STEREO_COUNT>
0
> <PUBCHEM_BOND_DEF_STEREO_COUNT>
0
> <PUBCHEM_BOND_UDEF_STEREO_COUNT>
0
> <PUBCHEM_ISOTOPIC_ATOM_COUNT>
0
> <PUBCHEM_COMPONENT_COUNT>
2
> <PUBCHEM_CACTVS_TAUTO_COUNT>
-1
> <PUBCHEM_COORDINATE_TYPE>
1
5
255
> <PUBCHEM_BONDANNOTATIONS>
13  28  8
13  32  8
17  54  6
18  55  6
27  29  8
27  30  8
28  29  8
28  31  8
30  33  8
31  33  8
31  34  8
32  35  8
34  35  8
38  43  6
42  48  8
42  49  8
44  50  8
44  51  8
48  50  8
49  51  8
$$$$
