502000
  -OEChem-10302200282D
 82 83  0     1  0  0  0  0  0999 V2000
    5.4641   -0.2500    0.0000 O   0  0  0  0  0  0  0  0  0  0  0  0
    8.0622   -2.7500    0.0000 O   0  0  0  0  0  0  0  0  0  0  0  0
    4.5981    3.2500    0.0000 O   0  0  0  0  0  0  0  0  0  0  0  0
    6.3301    3.2500    0.0000 O   0  0  0  0  0  0  0  0  0  0  0  0
   12.3923   -0.2500    0.0000 O   0  0  0  0  0  0  0  0  0  0  0  0
   11.5263   -4.7500    0.0000 O   0  0  0  0  0  0  0  0  0  0  0  0
    9.7942   -4.7500    0.0000 O   0  0  0  0  0  0  0  0  0  0  0  0
    7.1962   -0.2500    0.0000 N   0  0  0  0  0  0  0  0  0  0  0  0
    5.4641    1.7500    0.0000 N   0  0  0  0  0  0  0  0  0  0  0  0
    8.9282   -1.2500    0.0000 N   0  0  0  0  0  0  0  0  0  0  0  0
   13.2583   -1.7500    0.0000 N   0  0  0  0  0  0  0  0  0  0  0  0
    6.3301    1.2500    0.0000 C   0  0  1  0  0  0  0  0  0  0  0  0
    7.1962    1.7500    0.0000 C   0  0  0  0  0  0  0  0  0  0  0  0
    7.1962   -1.2500    0.0000 C   0  0  1  0  0  0  0  0  0  0  0  0
    6.3301   -1.7500    0.0000 C   0  0  0  0  0  0  0  0  0  0  0  0
    6.3301    0.2500    0.0000 C   0  0  0  0  0  0  0  0  0  0  0  0
    9.7942   -1.7500    0.0000 C   0  0  1  0  0  0  0  0  0  0  0  0
    8.0622   -1.7500    0.0000 C   0  0  0  0  0  0  0  0  0  0  0  0
    7.1962    2.7500    0.0000 C   0  0  0  0  0  0  0  0  0  0  0  0
    8.0622    1.2500    0.0000 C   0  0  0  0  0  0  0  0  0  0  0  0
   10.6603   -1.2500    0.0000 C   0  0  0  0  0  0  0  0  0  0  0  0
    6.3301   -2.7500    0.0000 C   0  0  0  0  0  0  0  0  0  0  0  0
   11.5263   -1.7500    0.0000 C   0  0  0  0  0  0  0  0  0  0  0  0
    9.7942   -2.7500    0.0000 C   0  0  0  0  0  0  0  0  0  0  0  0
    7.1962   -3.2500    0.0000 C   0  0  0  0  0  0  0  0  0  0  0  0
    5.4641   -3.2500    0.0000 C   0  0  0  0  0  0  0  0  0  0  0  0
    5.4641    2.7500    0.0000 C   0  0  0  0  0  0  0  0  0  0  0  0
   12.3923   -1.2500    0.0000 C   0  0  0  0  0  0  0  0  0  0  0  0
    7.1962   -4.2500    0.0000 C   0  0  0  0  0  0  0  0  0  0  0  0
    5.4641   -4.2500    0.0000 C   0  0  0  0  0  0  0  0  0  0  0  0
   10.6603   -3.2500    0.0000 C   0  0  0  0  0  0  0  0  0  0  0  0
    6.3301   -4.7500    0.0000 C   0  0  0  0  0  0  0  0  0  0  0  0
    4.5981    4.2500    0.0000 C   0  0  0  0  0  0  0  0  0  0  0  0
   10.6603   -4.2500    0.0000 C   0  0  0  0  0  0  0  0  0  0  0  0
    3.7320    4.7500    0.0000 C   0  0  0  0  0  0  0  0  0  0  0  0
    2.8660    4.2500    0.0000 C   0  0  0  0  0  0  0  0  0  0  0  0
    3.7320    5.7500    0.0000 C   0  0  0  0  0  0  0  0  0  0  0  0
   11.5263   -5.7500    0.0000 C   0  0  0  0  0  0  0  0  0  0  0  0
    2.0000    4.7500    0.0000 C   0  0  0  0  0  0  0  0  0  0  0  0
    2.8660    6.2500    0.0000 C   0  0  0  0  0  0  0  0  0  0  0  0
    2.0000    5.7500    0.0000 C   0  0  0  0  0  0  0  0  0  0  0  0
   12.3923   -6.2500    0.0000 C   0  0  0  0  0  0  0  0  0  0  0  0
    5.7932    0.9400    0.0000 H   0  0  0  0  0  0  0  0  0  0  0  0
    6.6592    2.0600    0.0000 H   0  0  0  0  0  0  0  0  0  0  0  0
    6.6592   -0.9400    0.0000 H   0  0  0  0  0  0  0  0  0  0  0  0
    6.1181   -1.1674    0.0000 H   0  0  0  0  0  0  0  0  0  0  0  0
    5.7196   -1.8577    0.0000 H   0  0  0  0  0  0  0  0  0  0  0  0
    7.7331    0.0600    0.0000 H   0  0  0  0  0  0  0  0  0  0  0  0
    9.2573   -2.0600    0.0000 H   0  0  0  0  0  0  0  0  0  0  0  0
    7.8162    2.7500    0.0000 H   0  0  0  0  0  0  0  0  0  0  0  0
    7.1962    3.3700    0.0000 H   0  0  0  0  0  0  0  0  0  0  0  0
    6.5762    2.7500    0.0000 H   0  0  0  0  0  0  0  0  0  0  0  0
    7.7522    0.7131    0.0000 H   0  0  0  0  0  0  0  0  0  0  0  0
    8.5991    0.9400    0.0000 H   0  0  0  0  0  0  0  0  0  0  0  0
    8.3722    1.7869    0.0000 H   0  0  0  0  0  0  0  0  0  0  0  0
    4.9272    1.4400    0.0000 H   0  0  0  0  0  0  0  0  0  0  0  0
    8.9282   -0.6300    0.0000 H   0  0  0  0  0  0  0  0  0  0  0  0
   11.0588   -0.7751    0.0000 H   0  0  0  0  0  0  0  0  0  0  0  0
   10.2617   -0.7751    0.0000 H   0  0  0  0  0  0  0  0  0  0  0  0
   11.1278   -2.2250    0.0000 H   0  0  0  0  0  0  0  0  0  0  0  0
   11.9248   -2.2250    0.0000 H   0  0  0  0  0  0  0  0  0  0  0  0
    9.2573   -3.0600    0.0000 H   0  0  0  0  0  0  0  0  0  0  0  0
    7.7331   -2.9400    0.0000 H   0  0  0  0  0  0  0  0  0  0  0  0
    4.9272   -2.9400    0.0000 H   0  0  0  0  0  0  0  0  0  0  0  0
    7.7331   -4.5600    0.0000 H   0  0  0  0  0  0  0  0  0  0  0  0
    4.9272   -4.5600    0.0000 H   0  0  0  0  0  0  0  0  0  0  0  0
   11.1972   -2.9400    0.0000 H   0  0  0  0  0  0  0  0  0  0  0  0
    6.3301   -5.3700    0.0000 H   0  0  0  0  0  0  0  0  0  0  0  0
    5.2087    4.1423    0.0000 H   0  0  0  0  0  0  0  0  0  0  0  0
    4.8101    4.8326    0.0000 H   0  0  0  0  0  0  0  0  0  0  0  0
   13.7953   -1.4400    0.0000 H   0  0  0  0  0  0  0  0  0  0  0  0
   13.2583   -2.3700    0.0000 H   0  0  0  0  0  0  0  0  0  0  0  0
    2.8660    3.6300    0.0000 H   0  0  0  0  0  0  0  0  0  0  0  0
    4.2690    6.0600    0.0000 H   0  0  0  0  0  0  0  0  0  0  0  0
   10.9157   -5.6423    0.0000 H   0  0  0  0  0  0  0  0  0  0  0  0
   11.3142   -6.3326    0.0000 H   0  0  0  0  0  0  0  0  0  0  0  0
    1.4631    4.4400    0.0000 H   0  0  0  0  0  0  0  0  0  0  0  0
    2.8660    6.8700    0.0000 H   0  0  0  0  0  0  0  0  0  0  0  0
    1.4631    6.0600    0.0000 H   0  0  0  0  0  0  0  0  0  0  0  0
   12.0823   -6.7869    0.0000 H   0  0  0  0  0  0  0  0  0  0  0  0
   12.9292   -6.5600    0.0000 H   0  0  0  0  0  0  0  0  0  0  0  0
   12.7023   -5.7131    0.0000 H   0  0  0  0  0  0  0  0  0  0  0  0
  1 16  2  0  0  0  0
  2 18  2  0  0  0  0
  3 27  1  0  0  0  0
  3 33  1  0  0  0  0
  4 27  2  0  0  0  0
  5 28  2  0  0  0  0
  6 34  1  0  0  0  0
  6 38  1  0  0  0  0
  7 34  2  0  0  0  0
 14  8  1  6  0  0  0
  8 16  1  0  0  0  0
  8 48  1  0  0  0  0
 12  9  1  1  0  0  0
  9 27  1  0  0  0  0
  9 56  1  0  0  0  0
 17 10  1  1  0  0  0
 10 18  1  0  0  0  0
 10 57  1  0  0  0  0
 11 28  1  0  0  0  0
 11 71  1  0  0  0  0
 11 72  1  0  0  0  0
 12 13  1  0  0  0  0
 12 16  1  0  0  0  0
 12 43  1  0  0  0  0
 13 19  1  0  0  0  0
 13 20  1  0  0  0  0
 13 44  1  0  0  0  0
 14 15  1  0  0  0  0
 14 18  1  0  0  0  0
 14 45  1  0  0  0  0
 15 22  1  0  0  0  0
 15 46  1  0  0  0  0
 15 47  1  0  0  0  0
 17 21  1  0  0  0  0
 17 24  1  0  0  0  0
 17 49  1  0  0  0  0
 19 50  1  0  0  0  0
 19 51  1  0  0  0  0
 19 52  1  0  0  0  0
 20 53  1  0  0  0  0
 20 54  1  0  0  0  0
 20 55  1  0  0  0  0
 21 23  1  0  0  0  0
 21 58  1  0  0  0  0
 21 59  1  0  0  0  0
 22 25  2  0  0  0  0
 22 26  1  0  0  0  0
 23 28  1  0  0  0  0
 23 60  1  0  0  0  0
 23 61  1  0  0  0  0
 24 31  2  3  0  0  0
 24 62  1  0  0  0  0
 25 29  1  0  0  0  0
 25 63  1  0  0  0  0
 26 30  2  0  0  0  0
 26 64  1  0  0  0  0
 29 32  2  0  0  0  0
 29 65  1  0  0  0  0
 30 32  1  0  0  0  0
 30 66  1  0  0  0  0
 31 34  1  0  0  0  0
 31 67  1  0  0  0  0
 32 68  1  0  0  0  0
 33 35  1  0  0  0  0
 33 69  1  0  0  0  0
 33 70  1  0  0  0  0
 35 36  2  0  0  0  0
 35 37  1  0  0  0  0
 36 39  1  0  0  0  0
 36 73  1  0  0  0  0
 37 40  2  0  0  0  0
 37 74  1  0  0  0  0
 38 42  1  0  0  0  0
 38 75  1  0  0  0  0
 38 76  1  0  0  0  0
 39 41  2  0  0  0  0
 39 77  1  0  0  0  0
 40 41  1  0  0  0  0
 40 78  1  0  0  0  0
 41 79  1  0  0  0  0
 42 80  1  0  0  0  0
 42 81  1  0  0  0  0
 42 82  1  0  0  0  0
M  END
> <PUBCHEM_COMPOUND_CID>
502000
> <PUBCHEM_COMPOUND_CANONICALIZED>
1
> <PUBCHEM_CACTVS_COMPLEXITY>
911
> <PUBCHEM_CACTVS_HBOND_ACCEPTOR>
7
> <PUBCHEM_CACTVS_HBOND_DONOR>
4
> <PUBCHEM_CACTVS_ROTATABLE_BOND>
18
> <PUBCHEM_CACTVS_SUBSKEYS>
AAADcfB7uAAAAAAAAAAAAAAAAAAAAAAAAAAwYAAAAAAAAAABQAAAHgAQAAAADSjhmAYyCILABACIAiHSGACCAAAgAAAIiIGICMkIZjKAsTmeMAAk1gGIqYecyKCOAAAAAAAAAAAAAAAAAAAAAAAAAAAAAA==
> <PUBCHEM_IUPAC_OPENEYE_NAME>
ethyl (4S)-7-amino-4-[[(2S)-2-[[(2S)-2-(benzyloxycarbonylamino)-3-methyl-butanoyl]amino]-3-phenyl-propanoyl]amino]-7-oxo-hept-2-enoate
> <PUBCHEM_IUPAC_CAS_NAME>
(4S)-7-amino-4-[[(2S)-2-[[(2S)-3-methyl-1-oxo-2-(phenylmethoxycarbonylamino)butyl]amino]-1-oxo-3-phenylpropyl]amino]-7-oxo-2-heptenoic acid ethyl ester
> <PUBCHEM_IUPAC_NAME_MARKUP>
ethyl (4<I>S</I>)-7-amino-4-[[(2<I>S</I>)-2-[[(2<I>S</I>)-3-methyl-2-(phenylmethoxycarbonylamino)butanoyl]amino]-3-phenylpropanoyl]amino]-7-oxohept-2-enoate
> <PUBCHEM_IUPAC_NAME>
ethyl (4S)-7-amino-4-[[(2S)-2-[[(2S)-3-methyl-2-(phenylmethoxycarbonylamino)butanoyl]amino]-3-phenylpropanoyl]amino]-7-oxohept-2-enoate
> <PUBCHEM_IUPAC_SYSTEMATIC_NAME>
ethyl (4S)-7-azanyl-4-[[(2S)-2-[[(2S)-3-methyl-2-(phenylmethoxycarbonylamino)butanoyl]amino]-3-phenyl-propanoyl]amino]-7-oxidanylidene-hept-2-enoate
> <PUBCHEM_IUPAC_TRADITIONAL_NAME>
(4S)-7-amino-4-[[(2S)-2-[[(2S)-2-(benzyloxycarbonylamino)-3-methyl-butanoyl]amino]-3-phenyl-propanoyl]amino]-7-keto-hept-2-enoic acid ethyl ester
> <PUBCHEM_IUPAC_INCHI>
InChI=1S/C31H40N4O7/c1-4-41-27(37)18-16-24(15-17-26(32)36)33-29(38)25(19-22-11-7-5-8-12-22)34-30(39)28(21(2)3)35-31(40)42-20-23-13-9-6-10-14-23/h5-14,16,18,21,24-25,28H,4,15,17,19-20H2,1-3H3,(H2,32,36)(H,33,38)(H,34,39)(H,35,40)/t24-,25-,28-/m0/s1
> <PUBCHEM_IUPAC_INCHIKEY>
FPZPTSVNMRDOBU-VBOOUTDYSA-N
> <PUBCHEM_XLOGP3>
2.3
> <PUBCHEM_EXACT_MASS>
580.28969963
> <PUBCHEM_MOLECULAR_FORMULA>
C31H40N4O7
> <PUBCHEM_MOLECULAR_WEIGHT>
580.7
> <PUBCHEM_OPENEYE_CAN_SMILES>
CCOC(=O)C=CC(CCC(=O)N)NC(=O)C(CC1=CC=CC=C1)NC(=O)C(C(C)C)NC(=O)OCC2=CC=CC=C2
> <PUBCHEM_OPENEYE_ISO_SMILES>
CCOC(=O)C=C[C@H](CCC(=O)N)NC(=O)[C@H](CC1=CC=CC=C1)NC(=O)[C@H](C(C)C)NC(=O)OCC2=CC=CC=C2
> <PUBCHEM_CACTVS_TPSA>
166
> <PUBCHEM_MONOISOTOPIC_WEIGHT>
580.28969963
> <PUBCHEM_TOTAL_CHARGE>
0
> <PUBCHEM_HEAVY_ATOM_COUNT>
42
> <PUBCHEM_ATOM_DEF_STEREO_COUNT>
3
> <PUBCHEM_ATOM_UDEF_STEREO_COUNT>
0
> <PUBCHEM_BOND_DEF_STEREO_COUNT>
0
> <PUBCHEM_BOND_UDEF_STEREO_COUNT>
1
> <PUBCHEM_ISOTOPIC_ATOM_COUNT>
0
> <PUBCHEM_COMPONENT_COUNT>
1
> <PUBCHEM_CACTVS_TAUTO_COUNT>
-1
> <PUBCHEM_COORDINATE_TYPE>
1
5
255
> <PUBCHEM_BONDANNOTATIONS>
17  10  5
22  25  8
22  26  8
24  31  1
25  29  8
26  30  8
29  32  8
30  32  8
35  36  8
35  37  8
36  39  8
37  40  8
39  41  8
40  41  8
14  8  6
12  9  5
$$$$
