502157
  -OEChem-10302200282D
138140  0     1  0  0  0  0  0999 V2000
    8.6863    0.4435    0.0000 S   0  0  0  0  0  0  0  0  0  0  0  0
    8.2966    1.3644    0.0000 S   0  0  0  0  0  0  0  0  0  0  0  0
    8.3673   -1.2397    0.0000 O   0  0  0  0  0  0  0  0  0  0  0  0
    8.3535   -4.8452    0.0000 O   0  0  0  0  0  0  0  0  0  0  0  0
   11.4119   -1.7464    0.0000 O   0  0  0  0  0  0  0  0  0  0  0  0
   14.4642    0.7098    0.0000 O   0  0  0  0  0  0  0  0  0  0  0  0
   13.6261    4.5369    0.0000 O   0  0  0  0  0  0  0  0  0  0  0  0
    9.8266    5.4925    0.0000 O   0  0  0  0  0  0  0  0  0  0  0  0
    7.7321    4.8071    0.0000 O   0  0  0  0  0  0  0  0  0  0  0  0
    4.7501   -4.9701    0.0000 O   0  0  0  0  0  0  0  0  0  0  0  0
   17.5735    0.9864    0.0000 O   0  0  0  0  0  0  0  0  0  0  0  0
    4.2680    3.8071    0.0000 O   0  0  0  0  0  0  0  0  0  0  0  0
    5.1340    2.3071    0.0000 O   0  0  0  0  0  0  0  0  0  0  0  0
    6.0000    6.8071    0.0000 O   0  0  0  0  0  0  0  0  0  0  0  0
    7.8795   -3.1793    0.0000 N   0  0  0  0  0  0  0  0  0  0  0  0
   10.0470   -1.6622    0.0000 N   0  0  0  0  0  0  0  0  0  0  0  0
   12.2420   -0.4508    0.0000 N   0  0  0  0  0  0  0  0  0  0  0  0
   13.6745    2.0303    0.0000 N   0  0  0  0  0  0  0  0  0  0  0  0
    6.4298   -5.3926    0.0000 N   0  0  0  0  0  0  0  0  0  0  0  0
   12.0920    4.4185    0.0000 N   0  0  0  0  0  0  0  0  0  0  0  0
    9.2487    4.0665    0.0000 N   0  0  0  0  0  0  0  0  0  0  0  0
   10.5072   -6.9336    0.0000 N   0  0  0  0  0  0  0  0  0  0  0  0
    6.8661    3.3071    0.0000 N   0  0  0  0  0  0  0  0  0  0  0  0
   12.2444    7.0925    0.0000 N   0  0  0  0  0  0  0  0  0  0  0  0
    2.5963   -2.8817    0.0000 N   0  0  0  0  0  0  0  0  0  0  0  0
   13.6793    6.3446    0.0000 N   0  0  0  0  0  0  0  0  0  0  0  0
    4.2680    6.8071    0.0000 N   0  0  0  0  0  0  0  0  0  0  0  0
    8.8413   -2.9057    0.0000 C   0  0  1  0  0  0  0  0  0  0  0  0
    9.5592   -3.6018    0.0000 C   0  0  0  0  0  0  0  0  0  0  0  0
    9.3153   -4.5716    0.0000 C   0  0  0  0  0  0  0  0  0  0  0  0
    6.6737   -4.4228    0.0000 C   0  0  1  0  0  0  0  0  0  0  0  0
    5.9558   -3.7266    0.0000 C   0  0  0  0  0  0  0  0  0  0  0  0
    9.0852   -1.9359    0.0000 C   0  0  0  0  0  0  0  0  0  0  0  0
   10.2909   -0.6924    0.0000 C   0  0  2  0  0  0  0  0  0  0  0  0
    7.6355   -4.1491    0.0000 C   0  0  0  0  0  0  0  0  0  0  0  0
   10.0332   -5.2677    0.0000 C   0  0  0  0  0  0  0  0  0  0  0  0
    4.9940   -4.0003    0.0000 C   0  0  0  0  0  0  0  0  0  0  0  0
   13.0211    0.1761    0.0000 C   0  0  3  0  0  0  0  0  0  0  0  0
   13.4605    3.0072    0.0000 C   0  0  1  0  0  0  0  0  0  0  0  0
   11.1222    4.6624    0.0000 C   0  0  1  0  0  0  0  0  0  0  0  0
    4.2761   -3.3042    0.0000 C   0  0  0  0  0  0  0  0  0  0  0  0
   11.2890   -0.7540    0.0000 C   0  0  0  0  0  0  0  0  0  0  0  0
   14.3814    3.3969    0.0000 C   0  0  0  0  0  0  0  0  0  0  0  0
    9.3825   -0.2744    0.0000 C   0  0  0  0  0  0  0  0  0  0  0  0
   13.7805   -0.4745    0.0000 C   0  0  0  0  0  0  0  0  0  0  0  0
   13.5211    1.0421    0.0000 C   0  0  0  0  0  0  0  0  0  0  0  0
   12.9082    3.8408    0.0000 C   0  0  0  0  0  0  0  0  0  0  0  0
    9.7893   -6.2375    0.0000 C   0  0  0  0  0  0  0  0  0  0  0  0
   11.1837    5.6606    0.0000 C   0  0  0  0  0  0  0  0  0  0  0  0
    8.5981    3.3071    0.0000 C   0  0  1  0  0  0  0  0  0  0  0  0
   10.1297    4.5396    0.0000 C   0  0  0  0  0  0  0  0  0  0  0  0
    3.3142   -3.5778    0.0000 C   0  0  0  0  0  0  0  0  0  0  0  0
   15.1794    2.7943    0.0000 C   0  0  0  0  0  0  0  0  0  0  0  0
    8.2658    2.3639    0.0000 C   0  0  0  0  0  0  0  0  0  0  0  0
   13.5967   -1.4575    0.0000 C   0  0  0  0  0  0  0  0  0  0  0  0
   12.0789    6.1063    0.0000 C   0  0  0  0  0  0  0  0  0  0  0  0
    7.7321    3.8071    0.0000 C   0  0  0  0  0  0  0  0  0  0  0  0
    5.4680   -5.6662    0.0000 C   0  0  0  0  0  0  0  0  0  0  0  0
    6.0000    3.8071    0.0000 C   0  0  1  0  0  0  0  0  0  0  0  0
   16.1003    3.1841    0.0000 C   0  0  0  0  0  0  0  0  0  0  0  0
   15.0566    1.8019    0.0000 C   0  0  0  0  0  0  0  0  0  0  0  0
    6.0000    4.8071    0.0000 C   0  0  0  0  0  0  0  0  0  0  0  0
   12.9657    5.6441    0.0000 C   0  0  0  0  0  0  0  0  0  0  0  0
    5.2241   -6.6360    0.0000 C   0  0  0  0  0  0  0  0  0  0  0  0
    5.1340    5.3071    0.0000 C   0  0  0  0  0  0  0  0  0  0  0  0
   16.8984    2.5815    0.0000 C   0  0  0  0  0  0  0  0  0  0  0  0
   15.8546    1.1992    0.0000 C   0  0  0  0  0  0  0  0  0  0  0  0
   16.7755    1.5890    0.0000 C   0  0  0  0  0  0  0  0  0  0  0  0
    5.1340    3.3071    0.0000 C   0  0  0  0  0  0  0  0  0  0  0  0
   13.2335    7.2398    0.0000 C   0  0  0  0  0  0  0  0  0  0  0  0
    5.1340    6.3071    0.0000 C   0  0  0  0  0  0  0  0  0  0  0  0
    8.3962   -2.4740    0.0000 H   0  0  0  0  0  0  0  0  0  0  0  0
   10.1251   -3.8551    0.0000 H   0  0  0  0  0  0  0  0  0  0  0  0
    9.9070   -3.0885    0.0000 H   0  0  0  0  0  0  0  0  0  0  0  0
    8.7494   -4.3182    0.0000 H   0  0  0  0  0  0  0  0  0  0  0  0
    8.9675   -5.0849    0.0000 H   0  0  0  0  0  0  0  0  0  0  0  0
    6.0774   -4.5925    0.0000 H   0  0  0  0  0  0  0  0  0  0  0  0
    6.4582   -3.3632    0.0000 H   0  0  0  0  0  0  0  0  0  0  0  0
    5.6852   -3.1688    0.0000 H   0  0  0  0  0  0  0  0  0  0  0  0
    7.4344   -2.7477    0.0000 H   0  0  0  0  0  0  0  0  0  0  0  0
    9.7318   -0.9602    0.0000 H   0  0  0  0  0  0  0  0  0  0  0  0
   10.5991   -5.5211    0.0000 H   0  0  0  0  0  0  0  0  0  0  0  0
   10.3809   -4.7544    0.0000 H   0  0  0  0  0  0  0  0  0  0  0  0
    4.4916   -4.3637    0.0000 H   0  0  0  0  0  0  0  0  0  0  0  0
    5.2646   -4.5581    0.0000 H   0  0  0  0  0  0  0  0  0  0  0  0
   13.0115   -0.4438    0.0000 H   0  0  0  0  0  0  0  0  0  0  0  0
   14.0112    2.7223    0.0000 H   0  0  0  0  0  0  0  0  0  0  0  0
   10.4921   -2.0938    0.0000 H   0  0  0  0  0  0  0  0  0  0  0  0
   11.6226    5.0284    0.0000 H   0  0  0  0  0  0  0  0  0  0  0  0
    4.7784   -2.9408    0.0000 H   0  0  0  0  0  0  0  0  0  0  0  0
    4.0054   -2.7464    0.0000 H   0  0  0  0  0  0  0  0  0  0  0  0
   14.8353    3.8193    0.0000 H   0  0  0  0  0  0  0  0  0  0  0  0
   14.0443    3.9173    0.0000 H   0  0  0  0  0  0  0  0  0  0  0  0
    8.8043   -0.4984    0.0000 H   0  0  0  0  0  0  0  0  0  0  0  0
    9.7407    0.2316    0.0000 H   0  0  0  0  0  0  0  0  0  0  0  0
   12.5353   -0.9970    0.0000 H   0  0  0  0  0  0  0  0  0  0  0  0
   14.3609   -0.6925    0.0000 H   0  0  0  0  0  0  0  0  0  0  0  0
   14.0960    0.0592    0.0000 H   0  0  0  0  0  0  0  0  0  0  0  0
   14.2942    2.0494    0.0000 H   0  0  0  0  0  0  0  0  0  0  0  0
    6.8749   -5.8242    0.0000 H   0  0  0  0  0  0  0  0  0  0  0  0
    9.2234   -5.9842    0.0000 H   0  0  0  0  0  0  0  0  0  0  0  0
    9.4415   -6.7508    0.0000 H   0  0  0  0  0  0  0  0  0  0  0  0
   11.0079    6.2551    0.0000 H   0  0  0  0  0  0  0  0  0  0  0  0
   10.5677    5.5907    0.0000 H   0  0  0  0  0  0  0  0  0  0  0  0
   12.3511    4.9818    0.0000 H   0  0  0  0  0  0  0  0  0  0  0  0
    8.4936    3.9182    0.0000 H   0  0  0  0  0  0  0  0  0  0  0  0
    2.8119   -3.9412    0.0000 H   0  0  0  0  0  0  0  0  0  0  0  0
    3.5849   -4.1356    0.0000 H   0  0  0  0  0  0  0  0  0  0  0  0
    8.8600    4.5495    0.0000 H   0  0  0  0  0  0  0  0  0  0  0  0
    7.8076    2.7816    0.0000 H   0  0  0  0  0  0  0  0  0  0  0  0
    8.8784    2.2688    0.0000 H   0  0  0  0  0  0  0  0  0  0  0  0
   12.9873   -1.3436    0.0000 H   0  0  0  0  0  0  0  0  0  0  0  0
   13.4828   -2.0669    0.0000 H   0  0  0  0  0  0  0  0  0  0  0  0
   14.2062   -1.5714    0.0000 H   0  0  0  0  0  0  0  0  0  0  0  0
    6.5370    4.1171    0.0000 H   0  0  0  0  0  0  0  0  0  0  0  0
    6.8661    2.6871    0.0000 H   0  0  0  0  0  0  0  0  0  0  0  0
   10.3560   -7.5349    0.0000 H   0  0  0  0  0  0  0  0  0  0  0  0
   11.1035   -6.7640    0.0000 H   0  0  0  0  0  0  0  0  0  0  0  0
   16.1765    3.7994    0.0000 H   0  0  0  0  0  0  0  0  0  0  0  0
   14.4856    1.5602    0.0000 H   0  0  0  0  0  0  0  0  0  0  0  0
    6.6106    4.6994    0.0000 H   0  0  0  0  0  0  0  0  0  0  0  0
    6.2121    5.3897    0.0000 H   0  0  0  0  0  0  0  0  0  0  0  0
   11.8101    7.5349    0.0000 H   0  0  0  0  0  0  0  0  0  0  0  0
    2.0000   -3.0514    0.0000 H   0  0  0  0  0  0  0  0  0  0  0  0
    2.7476   -2.2804    0.0000 H   0  0  0  0  0  0  0  0  0  0  0  0
   13.0570    5.0308    0.0000 H   0  0  0  0  0  0  0  0  0  0  0  0
    4.6228   -6.4848    0.0000 H   0  0  0  0  0  0  0  0  0  0  0  0
    5.0728   -7.2373    0.0000 H   0  0  0  0  0  0  0  0  0  0  0  0
    5.8253   -6.7873    0.0000 H   0  0  0  0  0  0  0  0  0  0  0  0
    4.5234    5.4147    0.0000 H   0  0  0  0  0  0  0  0  0  0  0  0
    4.9220    4.7244    0.0000 H   0  0  0  0  0  0  0  0  0  0  0  0
   17.4693    2.8231    0.0000 H   0  0  0  0  0  0  0  0  0  0  0  0
   15.7784    0.5840    0.0000 H   0  0  0  0  0  0  0  0  0  0  0  0
   13.5201    7.7896    0.0000 H   0  0  0  0  0  0  0  0  0  0  0  0
    3.7310    3.4971    0.0000 H   0  0  0  0  0  0  0  0  0  0  0  0
   18.1445    1.2281    0.0000 H   0  0  0  0  0  0  0  0  0  0  0  0
    4.2680    7.4271    0.0000 H   0  0  0  0  0  0  0  0  0  0  0  0
    3.7310    6.4971    0.0000 H   0  0  0  0  0  0  0  0  0  0  0  0
  1  2  1  0  0  0  0
  1 44  1  0  0  0  0
  2 54  1  0  0  0  0
  3 33  2  0  0  0  0
  4 35  2  0  0  0  0
  5 42  2  0  0  0  0
  6 46  2  0  0  0  0
  7 47  2  0  0  0  0
  8 51  2  0  0  0  0
  9 57  2  0  0  0  0
 10 58  2  0  0  0  0
 11 68  1  0  0  0  0
 11136  1  0  0  0  0
 12 69  1  0  0  0  0
 12135  1  0  0  0  0
 13 69  2  0  0  0  0
 14 71  2  0  0  0  0
 28 15  1  6  0  0  0
 15 35  1  0  0  0  0
 15 80  1  0  0  0  0
 16 33  1  0  0  0  0
 34 16  1  1  0  0  0
 16 88  1  0  0  0  0
 17 38  1  0  0  0  0
 17 42  1  0  0  0  0
 17 96  1  0  0  0  0
 18 39  1  0  0  0  0
 18 46  1  0  0  0  0
 18 99  1  0  0  0  0
 31 19  1  1  0  0  0
 19 58  1  0  0  0  0
 19100  1  0  0  0  0
 20 40  1  0  0  0  0
 20 47  1  0  0  0  0
 20105  1  0  0  0  0
 21 50  1  0  0  0  0
 21 51  1  0  0  0  0
 21109  1  0  0  0  0
 22 48  1  0  0  0  0
 22117  1  0  0  0  0
 22118  1  0  0  0  0
 23 57  1  0  0  0  0
 59 23  1  6  0  0  0
 23116  1  0  0  0  0
 24 56  1  0  0  0  0
 24 70  1  0  0  0  0
 24123  1  0  0  0  0
 25 52  1  0  0  0  0
 25124  1  0  0  0  0
 25125  1  0  0  0  0
 26 63  1  0  0  0  0
 26 70  2  0  0  0  0
 27 71  1  0  0  0  0
 27137  1  0  0  0  0
 27138  1  0  0  0  0
 28 29  1  0  0  0  0
 28 33  1  0  0  0  0
 28 72  1  0  0  0  0
 29 30  1  0  0  0  0
 29 73  1  0  0  0  0
 29 74  1  0  0  0  0
 30 36  1  0  0  0  0
 30 75  1  0  0  0  0
 30 76  1  0  0  0  0
 31 32  1  0  0  0  0
 31 35  1  0  0  0  0
 31 77  1  0  0  0  0
 32 37  1  0  0  0  0
 32 78  1  0  0  0  0
 32 79  1  0  0  0  0
 34 42  1  0  0  0  0
 34 44  1  0  0  0  0
 34 81  1  0  0  0  0
 36 48  1  0  0  0  0
 36 82  1  0  0  0  0
 36 83  1  0  0  0  0
 37 41  1  0  0  0  0
 37 84  1  0  0  0  0
 37 85  1  0  0  0  0
 38 45  1  0  0  0  0
 38 46  1  0  0  0  0
 38 86  1  0  0  0  0
 39 43  1  6  0  0  0
 39 47  1  0  0  0  0
 39 87  1  0  0  0  0
 40 49  1  6  0  0  0
 40 51  1  0  0  0  0
 40 89  1  0  0  0  0
 41 52  1  0  0  0  0
 41 90  1  0  0  0  0
 41 91  1  0  0  0  0
 43 53  1  0  0  0  0
 43 92  1  0  0  0  0
 43 93  1  0  0  0  0
 44 94  1  0  0  0  0
 44 95  1  0  0  0  0
 45 55  1  0  0  0  0
 45 97  1  0  0  0  0
 45 98  1  0  0  0  0
 48101  1  0  0  0  0
 48102  1  0  0  0  0
 49 56  1  0  0  0  0
 49103  1  0  0  0  0
 49104  1  0  0  0  0
 50 54  1  0  0  0  0
 50 57  1  1  0  0  0
 50106  1  0  0  0  0
 52107  1  0  0  0  0
 52108  1  0  0  0  0
 53 60  2  0  0  0  0
 53 61  1  0  0  0  0
 54110  1  0  0  0  0
 54111  1  0  0  0  0
 55112  1  0  0  0  0
 55113  1  0  0  0  0
 55114  1  0  0  0  0
 56 63  2  0  0  0  0
 58 64  1  0  0  0  0
 59 62  1  0  0  0  0
 59 69  1  0  0  0  0
 59115  1  0  0  0  0
 60 66  1  0  0  0  0
 60119  1  0  0  0  0
 61 67  2  0  0  0  0
 61120  1  0  0  0  0
 62 65  1  0  0  0  0
 62121  1  0  0  0  0
 62122  1  0  0  0  0
 63126  1  0  0  0  0
 64127  1  0  0  0  0
 64128  1  0  0  0  0
 64129  1  0  0  0  0
 65 71  1  0  0  0  0
 65130  1  0  0  0  0
 65131  1  0  0  0  0
 66 68  2  0  0  0  0
 66132  1  0  0  0  0
 67 68  1  0  0  0  0
 67133  1  0  0  0  0
 70134  1  0  0  0  0
M  END
> <PUBCHEM_COMPOUND_CID>
502157
> <PUBCHEM_COMPOUND_CANONICALIZED>
1
> <PUBCHEM_CACTVS_COMPLEXITY>
1810
> <PUBCHEM_CACTVS_HBOND_ACCEPTOR>
17
> <PUBCHEM_CACTVS_HBOND_DONOR>
14
> <PUBCHEM_CACTVS_ROTATABLE_BOND>
24
> <PUBCHEM_CACTVS_SUBSKEYS>
AAADcfB//ABgAAAAAAAAAAAAAAAAAWAAAAAwAAAAAAAAAAABwAAAHgQQCAAADCzF3gS/npbJkgCoAzX3fAACgC2xMqAJ2YG+eIiKbjLC2TOUcAAs1hPY2Cec36COIAAAAAAAAABAAAAAAAAAAAAAAAAAAA==
> <PUBCHEM_IUPAC_OPENEYE_NAME>
(2S)-2-[[(4R,7S,10S,16R)-16-[[(2S)-2-[[(2S)-2-acetamido-6-amino-hexanoyl]amino]-6-amino-hexanoyl]amino]-13-ethyl-10-[(4-hydroxyphenyl)methyl]-7-(1H-imidazol-5-ylmethyl)-6,9,12,15-tetraoxo-1,2-dithia-5,8,11,14-tetrazacycloheptadecane-4-carbonyl]amino]-5-amino-5-oxo-pentanoic acid
> <PUBCHEM_IUPAC_CAS_NAME>
(2S)-2-[[[(4R,7S,10S,16R)-16-[[(2S)-2-[[(2S)-2-acetamido-6-amino-1-oxohexyl]amino]-6-amino-1-oxohexyl]amino]-13-ethyl-10-[(4-hydroxyphenyl)methyl]-7-(1H-imidazol-5-ylmethyl)-6,9,12,15-tetraoxo-1,2-dithia-5,8,11,14-tetrazacycloheptadec-4-yl]-oxomethyl]amino]-5-amino-5-oxopentanoic acid
> <PUBCHEM_IUPAC_NAME_MARKUP>
(2<I>S</I>)-2-[[(4<I>R</I>,7<I>S</I>,10<I>S</I>,16<I>R</I>)-16-[[(2<I>S</I>)-2-[[(2<I>S</I>)-2-acetamido-6-aminohexanoyl]amino]-6-aminohexanoyl]amino]-13-ethyl-10-[(4-hydroxyphenyl)methyl]-7-(1<I>H</I>-imidazol-5-ylmethyl)-6,9,12,15-tetraoxo-1,2-dithia-5,8,11,14-tetrazacycloheptadecane-4-carbonyl]amino]-5-amino-5-oxopentanoic acid
> <PUBCHEM_IUPAC_NAME>
(2S)-2-[[(4R,7S,10S,16R)-16-[[(2S)-2-[[(2S)-2-acetamido-6-aminohexanoyl]amino]-6-aminohexanoyl]amino]-13-ethyl-10-[(4-hydroxyphenyl)methyl]-7-(1H-imidazol-5-ylmethyl)-6,9,12,15-tetraoxo-1,2-dithia-5,8,11,14-tetrazacycloheptadecane-4-carbonyl]amino]-5-amino-5-oxopentanoic acid
> <PUBCHEM_IUPAC_SYSTEMATIC_NAME>
(2S)-2-[[(4R,7S,10S,16R)-16-[[(2S)-2-[[(2S)-2-acetamido-6-azanyl-hexanoyl]amino]-6-azanyl-hexanoyl]amino]-13-ethyl-10-[(4-hydroxyphenyl)methyl]-7-(1H-imidazol-5-ylmethyl)-6,9,12,15-tetrakis(oxidanylidene)-1,2-dithia-5,8,11,14-tetrazacycloheptadec-4-yl]carbonylamino]-5-azanyl-5-oxidanylidene-pentanoic acid
> <PUBCHEM_IUPAC_TRADITIONAL_NAME>
(2S)-2-[[(4R,7S,10S,16R)-16-[[(2S)-2-[[(2S)-2-acetamido-6-amino-hexanoyl]amino]-6-amino-hexanoyl]amino]-13-ethyl-10-(4-hydroxybenzyl)-7-(1H-imidazol-5-ylmethyl)-6,9,12,15-tetraketo-1,2-dithia-5,8,11,14-tetrazacycloheptadecane-4-carbonyl]amino]-5-amino-5-keto-valeric acid
> <PUBCHEM_IUPAC_INCHI>
InChI=1S/C44H67N13O12S2/c1-3-28-37(61)54-32(18-25-10-12-27(59)13-11-25)40(64)55-33(19-26-20-48-23-49-26)41(65)57-35(43(67)53-31(44(68)69)14-15-36(47)60)22-71-70-21-34(42(66)51-28)56-39(63)30(9-5-7-17-46)52-38(62)29(50-24(2)58)8-4-6-16-45/h10-13,20,23,28-35,59H,3-9,14-19,21-22,45-46H2,1-2H3,(H2,47,60)(H,48,49)(H,50,58)(H,51,66)(H,52,62)(H,53,67)(H,54,61)(H,55,64)(H,56,63)(H,57,65)(H,68,69)/t28?,29-,30-,31-,32-,33-,34-,35-/m0/s1
> <PUBCHEM_IUPAC_INCHIKEY>
GUEBNOFUDOPEDS-HMINWHGKSA-N
> <PUBCHEM_XLOGP3_AA>
-4.9
> <PUBCHEM_EXACT_MASS>
1033.44735697
> <PUBCHEM_MOLECULAR_FORMULA>
C44H67N13O12S2
> <PUBCHEM_MOLECULAR_WEIGHT>
1034.2
> <PUBCHEM_OPENEYE_CAN_SMILES>
CCC1C(=O)NC(C(=O)NC(C(=O)NC(CSSCC(C(=O)N1)NC(=O)C(CCCCN)NC(=O)C(CCCCN)NC(=O)C)C(=O)NC(CCC(=O)N)C(=O)O)CC2=CN=CN2)CC3=CC=C(C=C3)O
> <PUBCHEM_OPENEYE_ISO_SMILES>
CCC1C(=O)N[C@H](C(=O)N[C@H](C(=O)N[C@@H](CSSC[C@@H](C(=O)N1)NC(=O)[C@H](CCCCN)NC(=O)[C@H](CCCCN)NC(=O)C)C(=O)N[C@@H](CCC(=O)N)C(=O)O)CC2=CN=CN2)CC3=CC=C(C=C3)O
> <PUBCHEM_CACTVS_TPSA>
465
> <PUBCHEM_MONOISOTOPIC_WEIGHT>
1033.44735697
> <PUBCHEM_TOTAL_CHARGE>
0
> <PUBCHEM_HEAVY_ATOM_COUNT>
71
> <PUBCHEM_ATOM_DEF_STEREO_COUNT>
7
> <PUBCHEM_ATOM_UDEF_STEREO_COUNT>
1
> <PUBCHEM_BOND_DEF_STEREO_COUNT>
0
> <PUBCHEM_BOND_UDEF_STEREO_COUNT>
0
> <PUBCHEM_ISOTOPIC_ATOM_COUNT>
0
> <PUBCHEM_COMPONENT_COUNT>
1
> <PUBCHEM_CACTVS_TAUTO_COUNT>
-1
> <PUBCHEM_COORDINATE_TYPE>
1
5
255
> <PUBCHEM_BONDANNOTATIONS>
28  15  6
34  16  5
31  19  5
59  23  6
24  56  8
24  70  8
26  63  8
26  70  8
38  45  3
39  43  6
40  49  6
50  57  5
53  60  8
53  61  8
56  63  8
60  66  8
61  67  8
66  68  8
67  68  8
$$$$
