502177
  -OEChem-10302200282D
 48 50  0     1  0  0  0  0  0999 V2000
    4.5411    2.0313    0.0000 O   0  0  0  0  0  0  0  0  0  0  0  0
    4.4131   -0.6424    0.0000 O   0  0  0  0  0  0  0  0  0  0  0  0
    5.4641    3.6190    0.0000 O   0  0  0  0  0  0  0  0  0  0  0  0
    3.7320    6.6190    0.0000 O   0  0  0  0  0  0  0  0  0  0  0  0
    5.9954   -1.3468    0.0000 O   0  0  0  0  0  0  0  0  0  0  0  0
    3.7320    3.6190    0.0000 N   0  0  0  0  0  0  0  0  0  0  0  0
    4.5981    5.1190    0.0000 N   0  0  0  0  0  0  0  0  0  0  0  0
    4.5942   -2.3649    0.0000 N   0  0  0  0  0  0  0  0  0  0  0  0
    3.7320    2.6190    0.0000 C   0  0  1  0  0  0  0  0  0  0  0  0
    4.2320    1.0802    0.0000 C   0  0  1  0  0  0  0  0  0  0  0  0
    2.9230    2.0313    0.0000 C   0  0  0  0  0  0  0  0  0  0  0  0
    3.2320    1.0802    0.0000 C   0  0  0  0  0  0  0  0  0  0  0  0
    4.8198    0.2712    0.0000 C   0  0  0  0  0  0  0  0  0  0  0  0
    2.8660    4.1190    0.0000 C   0  0  0  0  0  0  0  0  0  0  0  0
    4.5981    4.1190    0.0000 C   0  0  0  0  0  0  0  0  0  0  0  0
    2.8660    5.1190    0.0000 C   0  0  0  0  0  0  0  0  0  0  0  0
    3.7320    5.6190    0.0000 C   0  0  0  0  0  0  0  0  0  0  0  0
    5.1819   -3.1739    0.0000 C   0  0  0  0  0  0  0  0  0  0  0  0
    4.7752   -4.0875    0.0000 C   0  0  0  0  0  0  0  0  0  0  0  0
    2.0000    5.6190    0.0000 C   0  0  0  0  0  0  0  0  0  0  0  0
    5.0009   -1.4514    0.0000 C   0  0  0  0  0  0  0  0  0  0  0  0
    5.3630   -4.8965    0.0000 C   0  0  0  0  0  0  0  0  0  0  0  0
    6.3575   -4.7920    0.0000 C   0  0  0  0  0  0  0  0  0  0  0  0
    4.9562   -5.8100    0.0000 C   0  0  0  0  0  0  0  0  0  0  0  0
    6.9453   -5.6010    0.0000 C   0  0  0  0  0  0  0  0  0  0  0  0
    5.5440   -6.6190    0.0000 C   0  0  0  0  0  0  0  0  0  0  0  0
    6.5386   -6.5145    0.0000 C   0  0  0  0  0  0  0  0  0  0  0  0
    4.2845    2.9005    0.0000 H   0  0  0  0  0  0  0  0  0  0  0  0
    4.8444    1.1772    0.0000 H   0  0  0  0  0  0  0  0  0  0  0  0
    2.3334    2.2229    0.0000 H   0  0  0  0  0  0  0  0  0  0  0  0
    2.8676    0.5786    0.0000 H   0  0  0  0  0  0  0  0  0  0  0  0
    5.3338   -0.0755    0.0000 H   0  0  0  0  0  0  0  0  0  0  0  0
    5.2505    0.7172    0.0000 H   0  0  0  0  0  0  0  0  0  0  0  0
    2.3291    3.8090    0.0000 H   0  0  0  0  0  0  0  0  0  0  0  0
    5.1350    5.4290    0.0000 H   0  0  0  0  0  0  0  0  0  0  0  0
    5.6959   -3.5206    0.0000 H   0  0  0  0  0  0  0  0  0  0  0  0
    5.6126   -2.7279    0.0000 H   0  0  0  0  0  0  0  0  0  0  0  0
    4.2612   -3.7408    0.0000 H   0  0  0  0  0  0  0  0  0  0  0  0
    4.3445   -4.5335    0.0000 H   0  0  0  0  0  0  0  0  0  0  0  0
    2.3100    6.1560    0.0000 H   0  0  0  0  0  0  0  0  0  0  0  0
    1.4631    5.9290    0.0000 H   0  0  0  0  0  0  0  0  0  0  0  0
    1.6900    5.0821    0.0000 H   0  0  0  0  0  0  0  0  0  0  0  0
    3.9775   -2.4297    0.0000 H   0  0  0  0  0  0  0  0  0  0  0  0
    6.6097   -4.2256    0.0000 H   0  0  0  0  0  0  0  0  0  0  0  0
    4.3396   -5.8748    0.0000 H   0  0  0  0  0  0  0  0  0  0  0  0
    7.5619   -5.5362    0.0000 H   0  0  0  0  0  0  0  0  0  0  0  0
    5.2918   -7.1854    0.0000 H   0  0  0  0  0  0  0  0  0  0  0  0
    6.9030   -7.0161    0.0000 H   0  0  0  0  0  0  0  0  0  0  0  0
  1  9  1  0  0  0  0
  1 10  1  0  0  0  0
  2 13  1  0  0  0  0
  2 21  1  0  0  0  0
  3 15  2  0  0  0  0
  4 17  2  0  0  0  0
  5 21  2  0  0  0  0
  9  6  1  6  0  0  0
  6 14  1  0  0  0  0
  6 15  1  0  0  0  0
  7 15  1  0  0  0  0
  7 17  1  0  0  0  0
  7 35  1  0  0  0  0
  8 18  1  0  0  0  0
  8 21  1  0  0  0  0
  8 43  1  0  0  0  0
  9 11  1  0  0  0  0
  9 28  1  0  0  0  0
 10 12  1  0  0  0  0
 10 13  1  6  0  0  0
 10 29  1  0  0  0  0
 11 12  2  0  0  0  0
 11 30  1  0  0  0  0
 12 31  1  0  0  0  0
 13 32  1  0  0  0  0
 13 33  1  0  0  0  0
 14 16  2  0  0  0  0
 14 34  1  0  0  0  0
 16 17  1  0  0  0  0
 16 20  1  0  0  0  0
 18 19  1  0  0  0  0
 18 36  1  0  0  0  0
 18 37  1  0  0  0  0
 19 22  1  0  0  0  0
 19 38  1  0  0  0  0
 19 39  1  0  0  0  0
 20 40  1  0  0  0  0
 20 41  1  0  0  0  0
 20 42  1  0  0  0  0
 22 23  2  0  0  0  0
 22 24  1  0  0  0  0
 23 25  1  0  0  0  0
 23 44  1  0  0  0  0
 24 26  2  0  0  0  0
 24 45  1  0  0  0  0
 25 27  2  0  0  0  0
 25 46  1  0  0  0  0
 26 27  1  0  0  0  0
 26 47  1  0  0  0  0
 27 48  1  0  0  0  0
M  END
> <PUBCHEM_COMPOUND_CID>
502177
> <PUBCHEM_COMPOUND_CANONICALIZED>
1
> <PUBCHEM_CACTVS_COMPLEXITY>
639
> <PUBCHEM_CACTVS_HBOND_ACCEPTOR>
5
> <PUBCHEM_CACTVS_HBOND_DONOR>
2
> <PUBCHEM_CACTVS_ROTATABLE_BOND>
7
> <PUBCHEM_CACTVS_SUBSKEYS>
AAADceB7OAAAAAAAAAAAAAAAAAAAAQAAAAAwQAAAAAAAAAABAAAAHgAQAAAADBThmAYzCIPABACIAiFWWACCAAAgAAAIiIEIAMmJJCKAsRGOMAAo1yIKqMcQgIAOAAAAAAAAAAAAAAAAAAAAAAAAAAAAAA==
> <PUBCHEM_IUPAC_OPENEYE_NAME>
[(2S,5R)-5-(5-methyl-2,4-dioxo-pyrimidin-1-yl)-2,5-dihydrofuran-2-yl]methyl N-(2-phenylethyl)carbamate
> <PUBCHEM_IUPAC_CAS_NAME>
N-(2-phenylethyl)carbamic acid [(2S,5R)-5-(5-methyl-2,4-dioxo-1-pyrimidinyl)-2,5-dihydrofuran-2-yl]methyl ester
> <PUBCHEM_IUPAC_NAME_MARKUP>
[(2<I>S</I>,5<I>R</I>)-5-(5-methyl-2,4-dioxopyrimidin-1-yl)-2,5-dihydrofuran-2-yl]methyl <I>N</I>-(2-phenylethyl)carbamate
> <PUBCHEM_IUPAC_NAME>
[(2S,5R)-5-(5-methyl-2,4-dioxopyrimidin-1-yl)-2,5-dihydrofuran-2-yl]methyl N-(2-phenylethyl)carbamate
> <PUBCHEM_IUPAC_SYSTEMATIC_NAME>
[(2S,5R)-5-[5-methyl-2,4-bis(oxidanylidene)pyrimidin-1-yl]-2,5-dihydrofuran-2-yl]methyl N-(2-phenylethyl)carbamate
> <PUBCHEM_IUPAC_TRADITIONAL_NAME>
N-phenethylcarbamic acid [(2S,5R)-5-(2,4-diketo-5-methyl-pyrimidin-1-yl)-2,5-dihydrofuran-2-yl]methyl ester
> <PUBCHEM_IUPAC_INCHI>
InChI=1S/C19H21N3O5/c1-13-11-22(18(24)21-17(13)23)16-8-7-15(27-16)12-26-19(25)20-10-9-14-5-3-2-4-6-14/h2-8,11,15-16H,9-10,12H2,1H3,(H,20,25)(H,21,23,24)/t15-,16+/m0/s1
> <PUBCHEM_IUPAC_INCHIKEY>
ARVCBAGWGJZGQR-JKSUJKDBSA-N
> <PUBCHEM_XLOGP3>
1.5
> <PUBCHEM_EXACT_MASS>
371.14812078
> <PUBCHEM_MOLECULAR_FORMULA>
C19H21N3O5
> <PUBCHEM_MOLECULAR_WEIGHT>
371.4
> <PUBCHEM_OPENEYE_CAN_SMILES>
CC1=CN(C(=O)NC1=O)C2C=CC(O2)COC(=O)NCCC3=CC=CC=C3
> <PUBCHEM_OPENEYE_ISO_SMILES>
CC1=CN(C(=O)NC1=O)[C@H]2C=C[C@H](O2)COC(=O)NCCC3=CC=CC=C3
> <PUBCHEM_CACTVS_TPSA>
97
> <PUBCHEM_MONOISOTOPIC_WEIGHT>
371.14812078
> <PUBCHEM_TOTAL_CHARGE>
0
> <PUBCHEM_HEAVY_ATOM_COUNT>
27
> <PUBCHEM_ATOM_DEF_STEREO_COUNT>
2
> <PUBCHEM_ATOM_UDEF_STEREO_COUNT>
0
> <PUBCHEM_BOND_DEF_STEREO_COUNT>
0
> <PUBCHEM_BOND_UDEF_STEREO_COUNT>
0
> <PUBCHEM_ISOTOPIC_ATOM_COUNT>
0
> <PUBCHEM_COMPONENT_COUNT>
1
> <PUBCHEM_CACTVS_TAUTO_COUNT>
-1
> <PUBCHEM_COORDINATE_TYPE>
1
5
255
> <PUBCHEM_BONDANNOTATIONS>
10  13  6
14  16  8
16  17  8
22  23  8
22  24  8
23  25  8
24  26  8
25  27  8
26  27  8
6  14  8
6  15  8
9  6  6
7  15  8
7  17  8
$$$$
