502189
  -OEChem-10302200282D
 39 41  0     1  0  0  0  0  0999 V2000
    2.0000   -2.9400    0.0000 O   0  0  0  0  0  0  0  0  0  0  0  0
    3.7320    3.0600    0.0000 O   0  0  0  0  0  0  0  0  0  0  0  0
    4.5981   -1.4400    0.0000 N   0  0  0  0  0  0  0  0  0  0  0  0
    3.7320   -2.9400    0.0000 N   0  0  0  0  0  0  0  0  0  0  0  0
    5.5443   -1.1353    0.0000 N   0  0  0  0  0  0  0  0  0  0  0  0
    5.5443   -2.7447    0.0000 N   0  0  0  0  0  0  0  0  0  0  0  0
    3.7320   -0.9400    0.0000 C   0  0  3  0  0  0  0  0  0  0  0  0
    2.8660   -1.4400    0.0000 C   0  0  0  0  0  0  0  0  0  0  0  0
    3.7320    0.0600    0.0000 C   0  0  0  0  0  0  0  0  0  0  0  0
    4.5981   -2.4400    0.0000 C   0  0  0  0  0  0  0  0  0  0  0  0
    2.8660   -2.4400    0.0000 C   0  0  0  0  0  0  0  0  0  0  0  0
    6.1279   -1.9400    0.0000 C   0  0  0  0  0  0  0  0  0  0  0  0
    7.1279   -1.9400    0.0000 C   0  0  0  0  0  0  0  0  0  0  0  0
    2.8660    0.5600    0.0000 C   0  0  0  0  0  0  0  0  0  0  0  0
    4.5981    0.5600    0.0000 C   0  0  0  0  0  0  0  0  0  0  0  0
    7.6279   -2.8060    0.0000 C   0  0  0  0  0  0  0  0  0  0  0  0
    2.8660    1.5600    0.0000 C   0  0  0  0  0  0  0  0  0  0  0  0
    4.5981    1.5600    0.0000 C   0  0  0  0  0  0  0  0  0  0  0  0
    3.7320    2.0600    0.0000 C   0  0  0  0  0  0  0  0  0  0  0  0
    8.6279   -2.8060    0.0000 C   0  0  0  0  0  0  0  0  0  0  0  0
    2.8660    3.5600    0.0000 C   0  0  0  0  0  0  0  0  0  0  0  0
    3.1951   -0.6300    0.0000 H   0  0  0  0  0  0  0  0  0  0  0  0
    2.6540   -0.8574    0.0000 H   0  0  0  0  0  0  0  0  0  0  0  0
    2.2554   -1.5477    0.0000 H   0  0  0  0  0  0  0  0  0  0  0  0
    3.7320   -3.5600    0.0000 H   0  0  0  0  0  0  0  0  0  0  0  0
    7.7105   -1.7280    0.0000 H   0  0  0  0  0  0  0  0  0  0  0  0
    7.0202   -1.3294    0.0000 H   0  0  0  0  0  0  0  0  0  0  0  0
    2.3291    0.2500    0.0000 H   0  0  0  0  0  0  0  0  0  0  0  0
    5.1350    0.2500    0.0000 H   0  0  0  0  0  0  0  0  0  0  0  0
    7.0453   -3.0181    0.0000 H   0  0  0  0  0  0  0  0  0  0  0  0
    7.7356   -3.4166    0.0000 H   0  0  0  0  0  0  0  0  0  0  0  0
    2.3291    1.8700    0.0000 H   0  0  0  0  0  0  0  0  0  0  0  0
    5.1350    1.8700    0.0000 H   0  0  0  0  0  0  0  0  0  0  0  0
    8.6279   -3.4260    0.0000 H   0  0  0  0  0  0  0  0  0  0  0  0
    9.2479   -2.8060    0.0000 H   0  0  0  0  0  0  0  0  0  0  0  0
    8.6279   -2.1860    0.0000 H   0  0  0  0  0  0  0  0  0  0  0  0
    3.1760    4.0969    0.0000 H   0  0  0  0  0  0  0  0  0  0  0  0
    2.3291    3.8700    0.0000 H   0  0  0  0  0  0  0  0  0  0  0  0
    2.5560    3.0231    0.0000 H   0  0  0  0  0  0  0  0  0  0  0  0
  1 11  2  0  0  0  0
  2 19  1  0  0  0  0
  2 21  1  0  0  0  0
  3  5  1  0  0  0  0
  3  7  1  0  0  0  0
  3 10  1  0  0  0  0
  4 10  1  0  0  0  0
  4 11  1  0  0  0  0
  4 25  1  0  0  0  0
  5 12  2  0  0  0  0
  6 10  2  0  0  0  0
  6 12  1  0  0  0  0
  7  8  1  0  0  0  0
  7  9  1  0  0  0  0
  7 22  1  0  0  0  0
  8 11  1  0  0  0  0
  8 23  1  0  0  0  0
  8 24  1  0  0  0  0
  9 14  2  0  0  0  0
  9 15  1  0  0  0  0
 12 13  1  0  0  0  0
 13 16  1  0  0  0  0
 13 26  1  0  0  0  0
 13 27  1  0  0  0  0
 14 17  1  0  0  0  0
 14 28  1  0  0  0  0
 15 18  2  0  0  0  0
 15 29  1  0  0  0  0
 16 20  1  0  0  0  0
 16 30  1  0  0  0  0
 16 31  1  0  0  0  0
 17 19  2  0  0  0  0
 17 32  1  0  0  0  0
 18 19  1  0  0  0  0
 18 33  1  0  0  0  0
 20 34  1  0  0  0  0
 20 35  1  0  0  0  0
 20 36  1  0  0  0  0
 21 37  1  0  0  0  0
 21 38  1  0  0  0  0
 21 39  1  0  0  0  0
M  END
> <PUBCHEM_COMPOUND_CID>
502189
> <PUBCHEM_COMPOUND_CANONICALIZED>
1
> <PUBCHEM_CACTVS_COMPLEXITY>
371
> <PUBCHEM_CACTVS_HBOND_ACCEPTOR>
4
> <PUBCHEM_CACTVS_HBOND_DONOR>
1
> <PUBCHEM_CACTVS_ROTATABLE_BOND>
4
> <PUBCHEM_CACTVS_SUBSKEYS>
AAADceBzsAAAAAAAAAAAAAAAAAAAAWAAAAA8QAAAAAAAAFgBwAAAHgAYAAAADCzBmwYzFobIFACqAiNyNACSiAsgoKAdyAE+DIiMLjqE+RuEMCh82RMIqAeY2KOOIAAAAAAAAABAAAAAAAAAAAAAAAAAAA==
> <PUBCHEM_IUPAC_OPENEYE_NAME>
7-(4-methoxyphenyl)-2-propyl-6,7-dihydro-4H-[1,2,4]triazolo[1,5-a]pyrimidin-5-one
> <PUBCHEM_IUPAC_CAS_NAME>
7-(4-methoxyphenyl)-2-propyl-6,7-dihydro-4H-[1,2,4]triazolo[1,5-a]pyrimidin-5-one
> <PUBCHEM_IUPAC_NAME_MARKUP>
7-(4-methoxyphenyl)-2-propyl-6,7-dihydro-4<I>H</I>-[1,2,4]triazolo[1,5-a]pyrimidin-5-one
> <PUBCHEM_IUPAC_NAME>
7-(4-methoxyphenyl)-2-propyl-6,7-dihydro-4H-[1,2,4]triazolo[1,5-a]pyrimidin-5-one
> <PUBCHEM_IUPAC_SYSTEMATIC_NAME>
7-(4-methoxyphenyl)-2-propyl-6,7-dihydro-4H-[1,2,4]triazolo[1,5-a]pyrimidin-5-one
> <PUBCHEM_IUPAC_TRADITIONAL_NAME>
7-(4-methoxyphenyl)-2-propyl-6,7-dihydro-4H-[1,2,4]triazolo[1,5-a]pyrimidin-5-one
> <PUBCHEM_IUPAC_INCHI>
InChI=1S/C15H18N4O2/c1-3-4-13-16-15-17-14(20)9-12(19(15)18-13)10-5-7-11(21-2)8-6-10/h5-8,12H,3-4,9H2,1-2H3,(H,16,17,18,20)
> <PUBCHEM_IUPAC_INCHIKEY>
ICNUTLGDYQMPAE-UHFFFAOYSA-N
> <PUBCHEM_XLOGP3_AA>
2
> <PUBCHEM_EXACT_MASS>
286.14297583
> <PUBCHEM_MOLECULAR_FORMULA>
C15H18N4O2
> <PUBCHEM_MOLECULAR_WEIGHT>
286.33
> <PUBCHEM_OPENEYE_CAN_SMILES>
CCCC1=NN2C(CC(=O)NC2=N1)C3=CC=C(C=C3)OC
> <PUBCHEM_OPENEYE_ISO_SMILES>
CCCC1=NN2C(CC(=O)NC2=N1)C3=CC=C(C=C3)OC
> <PUBCHEM_CACTVS_TPSA>
69
> <PUBCHEM_MONOISOTOPIC_WEIGHT>
286.14297583
> <PUBCHEM_TOTAL_CHARGE>
0
> <PUBCHEM_HEAVY_ATOM_COUNT>
21
> <PUBCHEM_ATOM_DEF_STEREO_COUNT>
0
> <PUBCHEM_ATOM_UDEF_STEREO_COUNT>
1
> <PUBCHEM_BOND_DEF_STEREO_COUNT>
0
> <PUBCHEM_BOND_UDEF_STEREO_COUNT>
0
> <PUBCHEM_ISOTOPIC_ATOM_COUNT>
0
> <PUBCHEM_COMPONENT_COUNT>
1
> <PUBCHEM_CACTVS_TAUTO_COUNT>
-1
> <PUBCHEM_COORDINATE_TYPE>
1
5
255
> <PUBCHEM_BONDANNOTATIONS>
14  17  8
15  18  8
17  19  8
18  19  8
3  10  8
3  5  8
5  12  8
6  10  8
6  12  8
7  9  3
9  14  8
9  15  8
$$$$
