502198
  -OEChem-10302200282D
 46 50  0     1  0  0  0  0  0999 V2000
    4.5000   -3.0311    0.0000 O   0  0  0  0  0  0  0  0  0  0  0  0
    3.0000    3.0311    0.0000 O   0  0  0  0  0  0  0  0  0  0  0  0
    6.0000   -0.4330    0.0000 N   0  0  0  0  0  0  0  0  0  0  0  0
    6.0000   -2.1651    0.0000 N   0  0  0  0  0  0  0  0  0  0  0  0
    6.6671    0.3040    0.0000 N   0  0  0  0  0  0  0  0  0  0  0  0
    7.4718   -1.0898    0.0000 N   0  0  0  0  0  0  0  0  0  0  0  0
    5.0000   -0.4330    0.0000 C   0  0  3  0  0  0  0  0  0  0  0  0
    4.5000   -1.2990    0.0000 C   0  0  0  0  0  0  0  0  0  0  0  0
    4.5000    0.4330    0.0000 C   0  0  0  0  0  0  0  0  0  0  0  0
    6.5000   -1.2990    0.0000 C   0  0  0  0  0  0  0  0  0  0  0  0
    5.0000   -2.1651    0.0000 C   0  0  0  0  0  0  0  0  0  0  0  0
    7.5749   -0.1011    0.0000 C   0  0  0  0  0  0  0  0  0  0  0  0
    5.0000    1.2990    0.0000 C   0  0  0  0  0  0  0  0  0  0  0  0
    3.5000    0.4330    0.0000 C   0  0  0  0  0  0  0  0  0  0  0  0
    8.4409    0.3989    0.0000 C   0  0  0  0  0  0  0  0  0  0  0  0
    4.5000    2.1651    0.0000 C   0  0  0  0  0  0  0  0  0  0  0  0
    3.0000    1.2990    0.0000 C   0  0  0  0  0  0  0  0  0  0  0  0
    9.3069   -0.1011    0.0000 C   0  0  0  0  0  0  0  0  0  0  0  0
   10.1729    0.3989    0.0000 C   0  0  0  0  0  0  0  0  0  0  0  0
    3.5000    2.1651    0.0000 C   0  0  0  0  0  0  0  0  0  0  0  0
    8.4409    1.3989    0.0000 C   0  0  0  0  0  0  0  0  0  0  0  0
   10.1729    1.3989    0.0000 C   0  0  0  0  0  0  0  0  0  0  0  0
    9.3069    1.8989    0.0000 C   0  0  0  0  0  0  0  0  0  0  0  0
   11.0669   -0.1358    0.0000 C   0  0  0  0  0  0  0  0  0  0  0  0
   11.0669    1.9336    0.0000 C   0  0  0  0  0  0  0  0  0  0  0  0
   11.9730    0.3781    0.0000 C   0  0  0  0  0  0  0  0  0  0  0  0
   11.9730    1.4197    0.0000 C   0  0  0  0  0  0  0  0  0  0  0  0
    2.0000    3.0311    0.0000 C   0  0  0  0  0  0  0  0  0  0  0  0
    4.3800   -0.4330    0.0000 H   0  0  0  0  0  0  0  0  0  0  0  0
    4.0250   -0.9005    0.0000 H   0  0  0  0  0  0  0  0  0  0  0  0
    4.0250   -1.6976    0.0000 H   0  0  0  0  0  0  0  0  0  0  0  0
    6.3100   -2.7020    0.0000 H   0  0  0  0  0  0  0  0  0  0  0  0
    5.6200    1.2990    0.0000 H   0  0  0  0  0  0  0  0  0  0  0  0
    3.1900   -0.1039    0.0000 H   0  0  0  0  0  0  0  0  0  0  0  0
    4.8100    2.7020    0.0000 H   0  0  0  0  0  0  0  0  0  0  0  0
    2.3800    1.2990    0.0000 H   0  0  0  0  0  0  0  0  0  0  0  0
    9.3069   -0.7211    0.0000 H   0  0  0  0  0  0  0  0  0  0  0  0
    7.9040    1.7089    0.0000 H   0  0  0  0  0  0  0  0  0  0  0  0
    9.3069    2.5189    0.0000 H   0  0  0  0  0  0  0  0  0  0  0  0
   11.0597   -0.7557    0.0000 H   0  0  0  0  0  0  0  0  0  0  0  0
   11.0597    2.5535    0.0000 H   0  0  0  0  0  0  0  0  0  0  0  0
   12.5087    0.0660    0.0000 H   0  0  0  0  0  0  0  0  0  0  0  0
   12.5087    1.7318    0.0000 H   0  0  0  0  0  0  0  0  0  0  0  0
    2.0000    3.6511    0.0000 H   0  0  0  0  0  0  0  0  0  0  0  0
    1.3800    3.0311    0.0000 H   0  0  0  0  0  0  0  0  0  0  0  0
    2.0000    2.4111    0.0000 H   0  0  0  0  0  0  0  0  0  0  0  0
  1 11  2  0  0  0  0
  2 20  1  0  0  0  0
  2 28  1  0  0  0  0
  3  5  1  0  0  0  0
  3  7  1  0  0  0  0
  3 10  1  0  0  0  0
  4 10  1  0  0  0  0
  4 11  1  0  0  0  0
  4 32  1  0  0  0  0
  5 12  2  0  0  0  0
  6 10  2  0  0  0  0
  6 12  1  0  0  0  0
  7  8  1  0  0  0  0
  7  9  1  0  0  0  0
  7 29  1  0  0  0  0
  8 11  1  0  0  0  0
  8 30  1  0  0  0  0
  8 31  1  0  0  0  0
  9 13  2  0  0  0  0
  9 14  1  0  0  0  0
 12 15  1  0  0  0  0
 13 16  1  0  0  0  0
 13 33  1  0  0  0  0
 14 17  2  0  0  0  0
 14 34  1  0  0  0  0
 15 18  2  0  0  0  0
 15 21  1  0  0  0  0
 16 20  2  0  0  0  0
 16 35  1  0  0  0  0
 17 20  1  0  0  0  0
 17 36  1  0  0  0  0
 18 19  1  0  0  0  0
 18 37  1  0  0  0  0
 19 22  1  0  0  0  0
 19 24  2  0  0  0  0
 21 23  2  0  0  0  0
 21 38  1  0  0  0  0
 22 23  1  0  0  0  0
 22 25  2  0  0  0  0
 23 39  1  0  0  0  0
 24 26  1  0  0  0  0
 24 40  1  0  0  0  0
 25 27  1  0  0  0  0
 25 41  1  0  0  0  0
 26 27  2  0  0  0  0
 26 42  1  0  0  0  0
 27 43  1  0  0  0  0
 28 44  1  0  0  0  0
 28 45  1  0  0  0  0
 28 46  1  0  0  0  0
M  END
> <PUBCHEM_COMPOUND_CID>
502198
> <PUBCHEM_COMPOUND_CANONICALIZED>
1
> <PUBCHEM_CACTVS_COMPLEXITY>
565
> <PUBCHEM_CACTVS_HBOND_ACCEPTOR>
4
> <PUBCHEM_CACTVS_HBOND_DONOR>
1
> <PUBCHEM_CACTVS_ROTATABLE_BOND>
3
> <PUBCHEM_CACTVS_SUBSKEYS>
AAADceB7sAAAAAAAAAAAAAAAAAAAAWAAAAA8YMEAAAAAAFjB1AAAHgAYAAAADCzBmwYzFsbIFACqAiNyNACSiAsgoKAdyCEuDJiMLrqE+RuEMCh82RMIqAeY2OOO4AACAAAQAADAAAQAACAAAAAAAAAAAA==
> <PUBCHEM_IUPAC_OPENEYE_NAME>
7-(4-methoxyphenyl)-2-(2-naphthyl)-6,7-dihydro-4H-[1,2,4]triazolo[1,5-a]pyrimidin-5-one
> <PUBCHEM_IUPAC_CAS_NAME>
7-(4-methoxyphenyl)-2-(2-naphthalenyl)-6,7-dihydro-4H-[1,2,4]triazolo[1,5-a]pyrimidin-5-one
> <PUBCHEM_IUPAC_NAME_MARKUP>
7-(4-methoxyphenyl)-2-naphthalen-2-yl-6,7-dihydro-4<I>H</I>-[1,2,4]triazolo[1,5-a]pyrimidin-5-one
> <PUBCHEM_IUPAC_NAME>
7-(4-methoxyphenyl)-2-naphthalen-2-yl-6,7-dihydro-4H-[1,2,4]triazolo[1,5-a]pyrimidin-5-one
> <PUBCHEM_IUPAC_SYSTEMATIC_NAME>
7-(4-methoxyphenyl)-2-naphthalen-2-yl-6,7-dihydro-4H-[1,2,4]triazolo[1,5-a]pyrimidin-5-one
> <PUBCHEM_IUPAC_TRADITIONAL_NAME>
7-(4-methoxyphenyl)-2-(2-naphthyl)-6,7-dihydro-4H-[1,2,4]triazolo[1,5-a]pyrimidin-5-one
> <PUBCHEM_IUPAC_INCHI>
InChI=1S/C22H18N4O2/c1-28-18-10-8-15(9-11-18)19-13-20(27)23-22-24-21(25-26(19)22)17-7-6-14-4-2-3-5-16(14)12-17/h2-12,19H,13H2,1H3,(H,23,24,25,27)
> <PUBCHEM_IUPAC_INCHIKEY>
NHXCUWVDQOUKPB-UHFFFAOYSA-N
> <PUBCHEM_XLOGP3_AA>
3.7
> <PUBCHEM_EXACT_MASS>
370.14297583
> <PUBCHEM_MOLECULAR_FORMULA>
C22H18N4O2
> <PUBCHEM_MOLECULAR_WEIGHT>
370.4
> <PUBCHEM_OPENEYE_CAN_SMILES>
COC1=CC=C(C=C1)C2CC(=O)NC3=NC(=NN23)C4=CC5=CC=CC=C5C=C4
> <PUBCHEM_OPENEYE_ISO_SMILES>
COC1=CC=C(C=C1)C2CC(=O)NC3=NC(=NN23)C4=CC5=CC=CC=C5C=C4
> <PUBCHEM_CACTVS_TPSA>
69
> <PUBCHEM_MONOISOTOPIC_WEIGHT>
370.14297583
> <PUBCHEM_TOTAL_CHARGE>
0
> <PUBCHEM_HEAVY_ATOM_COUNT>
28
> <PUBCHEM_ATOM_DEF_STEREO_COUNT>
0
> <PUBCHEM_ATOM_UDEF_STEREO_COUNT>
1
> <PUBCHEM_BOND_DEF_STEREO_COUNT>
0
> <PUBCHEM_BOND_UDEF_STEREO_COUNT>
0
> <PUBCHEM_ISOTOPIC_ATOM_COUNT>
0
> <PUBCHEM_COMPONENT_COUNT>
1
> <PUBCHEM_CACTVS_TAUTO_COUNT>
-1
> <PUBCHEM_COORDINATE_TYPE>
1
5
255
> <PUBCHEM_BONDANNOTATIONS>
13  16  8
14  17  8
15  18  8
15  21  8
16  20  8
17  20  8
18  19  8
19  22  8
19  24  8
21  23  8
22  23  8
22  25  8
24  26  8
25  27  8
26  27  8
3  10  8
3  5  8
5  12  8
6  10  8
6  12  8
7  9  3
9  13  8
9  14  8
$$$$
