502160
  -OEChem-10302200282D
 91 92  0     1  0  0  0  0  0999 V2000
   10.8100    3.7326    0.0000 S   0  0  0  0  0  0  0  0  0  0  0  0
   11.3100    2.8665    0.0000 S   0  0  0  0  0  0  0  0  0  0  0  0
    8.3100   -0.5976    0.0000 O   0  0  0  0  0  0  0  0  0  0  0  0
   12.2948   -0.4239    0.0000 O   0  0  0  0  0  0  0  0  0  0  0  0
   10.3100    2.8665    0.0000 O   0  0  0  0  0  0  0  0  0  0  0  0
    8.3100    4.5986    0.0000 O   0  0  0  0  0  0  0  0  0  0  0  0
   12.8100    2.0005    0.0000 O   0  0  0  0  0  0  0  0  0  0  0  0
   12.8100    0.2685    0.0000 O   0  0  0  0  0  0  0  0  0  0  0  0
    7.8100    5.4646    0.0000 O   0  0  0  0  0  0  0  0  0  0  0  0
    2.3100    2.8665    0.0000 O   0  0  0  0  0  0  0  0  0  0  0  0
    9.8100   -1.4636    0.0000 N   0  0  0  0  0  0  0  0  0  0  0  0
    9.3100    1.1345    0.0000 N   0  0  0  0  0  0  0  0  0  0  0  0
   10.8100    0.2685    0.0000 N   0  0  0  0  0  0  0  0  0  0  0  0
    8.3100    2.8665    0.0000 N   0  0  0  0  0  0  0  0  0  0  0  0
    6.3100    4.5986    0.0000 N   0  0  0  0  0  0  0  0  0  0  0  0
   13.1846   -2.0853    0.0000 N   0  0  0  0  0  0  0  0  0  0  0  0
   11.3100   -5.7937    0.0000 N   0  0  0  0  0  0  0  0  0  0  0  0
    9.8100    0.2685    0.0000 C   0  0  1  0  0  0  0  0  0  0  0  0
   10.8100   -1.4636    0.0000 C   0  0  1  0  0  0  0  0  0  0  0  0
   10.5760   -0.3743    0.0000 C   0  0  0  0  0  0  0  0  0  0  0  0
   11.3100   -2.3296    0.0000 C   0  0  0  0  0  0  0  0  0  0  0  0
   11.5157   -0.0323    0.0000 C   0  0  0  0  0  0  0  0  0  0  0  0
    9.3100   -0.5976    0.0000 C   0  0  0  0  0  0  0  0  0  0  0  0
   10.8100   -3.1956    0.0000 C   0  0  0  0  0  0  0  0  0  0  0  0
   11.8578   -0.9720    0.0000 C   0  0  0  0  0  0  0  0  0  0  0  0
    9.3100    2.8665    0.0000 C   0  0  2  0  0  0  0  0  0  0  0  0
   11.3100   -0.5976    0.0000 C   0  0  0  0  0  0  0  0  0  0  0  0
   11.3100   -4.0617    0.0000 C   0  0  0  0  0  0  0  0  0  0  0  0
    9.8100    2.0005    0.0000 C   0  0  0  0  0  0  0  0  0  0  0  0
   12.8426   -1.1456    0.0000 C   0  0  0  0  0  0  0  0  0  0  0  0
    9.8100    3.7326    0.0000 C   0  0  0  0  0  0  0  0  0  0  0  0
   11.3100    1.1345    0.0000 C   0  0  1  0  0  0  0  0  0  0  0  0
   10.8100   -4.9277    0.0000 C   0  0  0  0  0  0  0  0  0  0  0  0
    6.8100    3.7326    0.0000 C   0  0  2  0  0  0  0  0  0  0  0  0
    7.8100    3.7326    0.0000 C   0  0  0  0  0  0  0  0  0  0  0  0
   10.8100    2.0005    0.0000 C   0  0  0  0  0  0  0  0  0  0  0  0
    6.3100    2.8665    0.0000 C   0  0  0  0  0  0  0  0  0  0  0  0
    5.3100    2.8665    0.0000 C   0  0  0  0  0  0  0  0  0  0  0  0
   12.3100    1.1345    0.0000 C   0  0  0  0  0  0  0  0  0  0  0  0
    4.8100    2.0005    0.0000 C   0  0  0  0  0  0  0  0  0  0  0  0
    4.8100    3.7326    0.0000 C   0  0  0  0  0  0  0  0  0  0  0  0
    6.8100    5.4646    0.0000 C   0  0  0  0  0  0  0  0  0  0  0  0
    3.8100    2.0005    0.0000 C   0  0  0  0  0  0  0  0  0  0  0  0
    3.8100    3.7326    0.0000 C   0  0  0  0  0  0  0  0  0  0  0  0
    3.3100    2.8665    0.0000 C   0  0  0  0  0  0  0  0  0  0  0  0
    6.3100    6.3306    0.0000 C   0  0  0  0  0  0  0  0  0  0  0  0
   10.2849    0.6670    0.0000 H   0  0  0  0  0  0  0  0  0  0  0  0
   10.5000   -2.0005    0.0000 H   0  0  0  0  0  0  0  0  0  0  0  0
   10.1011   -0.7728    0.0000 H   0  0  0  0  0  0  0  0  0  0  0  0
   10.8860   -0.9113    0.0000 H   0  0  0  0  0  0  0  0  0  0  0  0
   11.7849   -2.7281    0.0000 H   0  0  0  0  0  0  0  0  0  0  0  0
   11.7849   -1.9311    0.0000 H   0  0  0  0  0  0  0  0  0  0  0  0
   12.0983    0.1798    0.0000 H   0  0  0  0  0  0  0  0  0  0  0  0
   11.3037    0.5503    0.0000 H   0  0  0  0  0  0  0  0  0  0  0  0
   10.3351   -2.7971    0.0000 H   0  0  0  0  0  0  0  0  0  0  0  0
   10.3351   -3.5942    0.0000 H   0  0  0  0  0  0  0  0  0  0  0  0
    9.5000   -2.0005    0.0000 H   0  0  0  0  0  0  0  0  0  0  0  0
    8.6900    1.1345    0.0000 H   0  0  0  0  0  0  0  0  0  0  0  0
   11.2472   -1.0796    0.0000 H   0  0  0  0  0  0  0  0  0  0  0  0
   11.8578   -1.5920    0.0000 H   0  0  0  0  0  0  0  0  0  0  0  0
    9.0000    2.3296    0.0000 H   0  0  0  0  0  0  0  0  0  0  0  0
   11.7849   -4.4602    0.0000 H   0  0  0  0  0  0  0  0  0  0  0  0
   11.7849   -3.6631    0.0000 H   0  0  0  0  0  0  0  0  0  0  0  0
   10.5001    0.8055    0.0000 H   0  0  0  0  0  0  0  0  0  0  0  0
   13.4531   -1.0380    0.0000 H   0  0  0  0  0  0  0  0  0  0  0  0
   12.8426   -0.5256    0.0000 H   0  0  0  0  0  0  0  0  0  0  0  0
    9.9177    4.3431    0.0000 H   0  0  0  0  0  0  0  0  0  0  0  0
    9.2274    3.9446    0.0000 H   0  0  0  0  0  0  0  0  0  0  0  0
   11.6200    0.5976    0.0000 H   0  0  0  0  0  0  0  0  0  0  0  0
    8.0000    2.3296    0.0000 H   0  0  0  0  0  0  0  0  0  0  0  0
   10.3351   -4.5292    0.0000 H   0  0  0  0  0  0  0  0  0  0  0  0
   10.3351   -5.3262    0.0000 H   0  0  0  0  0  0  0  0  0  0  0  0
    7.1200    4.2695    0.0000 H   0  0  0  0  0  0  0  0  0  0  0  0
   10.3351    2.3990    0.0000 H   0  0  0  0  0  0  0  0  0  0  0  0
   10.3351    1.6020    0.0000 H   0  0  0  0  0  0  0  0  0  0  0  0
    6.2023    2.2560    0.0000 H   0  0  0  0  0  0  0  0  0  0  0  0
    6.8926    2.6545    0.0000 H   0  0  0  0  0  0  0  0  0  0  0  0
    5.6900    4.5986    0.0000 H   0  0  0  0  0  0  0  0  0  0  0  0
   13.7952   -2.1930    0.0000 H   0  0  0  0  0  0  0  0  0  0  0  0
   12.7861   -2.5603    0.0000 H   0  0  0  0  0  0  0  0  0  0  0  0
   11.0000   -6.3306    0.0000 H   0  0  0  0  0  0  0  0  0  0  0  0
   11.9300   -5.7937    0.0000 H   0  0  0  0  0  0  0  0  0  0  0  0
    5.1200    1.4636    0.0000 H   0  0  0  0  0  0  0  0  0  0  0  0
    5.1200    4.2695    0.0000 H   0  0  0  0  0  0  0  0  0  0  0  0
    3.5000    1.4636    0.0000 H   0  0  0  0  0  0  0  0  0  0  0  0
    3.5000    4.2695    0.0000 H   0  0  0  0  0  0  0  0  0  0  0  0
   13.4300    2.0005    0.0000 H   0  0  0  0  0  0  0  0  0  0  0  0
    6.8469    6.6406    0.0000 H   0  0  0  0  0  0  0  0  0  0  0  0
    6.0000    6.8676    0.0000 H   0  0  0  0  0  0  0  0  0  0  0  0
    5.7731    6.0206    0.0000 H   0  0  0  0  0  0  0  0  0  0  0  0
    2.0000    2.3296    0.0000 H   0  0  0  0  0  0  0  0  0  0  0  0
  1  2  1  0  0  0  0
  1 31  1  0  0  0  0
  2 36  1  0  0  0  0
  3 23  2  0  0  0  0
  4 27  2  0  0  0  0
  5 29  2  0  0  0  0
  6 35  2  0  0  0  0
  7 39  1  0  0  0  0
  7 87  1  0  0  0  0
  8 39  2  0  0  0  0
  9 42  2  0  0  0  0
 10 45  1  0  0  0  0
 10 91  1  0  0  0  0
 11 19  1  0  0  0  0
 11 23  1  0  0  0  0
 11 57  1  0  0  0  0
 12 18  1  0  0  0  0
 12 29  1  0  0  0  0
 12 58  1  0  0  0  0
 13 27  1  0  0  0  0
 13 32  1  0  0  0  0
 13 64  1  0  0  0  0
 26 14  1  1  0  0  0
 14 35  1  0  0  0  0
 14 70  1  0  0  0  0
 34 15  1  6  0  0  0
 15 42  1  0  0  0  0
 15 78  1  0  0  0  0
 16 30  1  0  0  0  0
 16 79  1  0  0  0  0
 16 80  1  0  0  0  0
 17 33  1  0  0  0  0
 17 81  1  0  0  0  0
 17 82  1  0  0  0  0
 18 20  1  1  0  0  0
 18 23  1  0  0  0  0
 18 47  1  0  0  0  0
 19 21  1  6  0  0  0
 19 27  1  0  0  0  0
 19 48  1  0  0  0  0
 20 22  1  0  0  0  0
 20 49  1  0  0  0  0
 20 50  1  0  0  0  0
 21 24  1  0  0  0  0
 21 51  1  0  0  0  0
 21 52  1  0  0  0  0
 22 25  1  0  0  0  0
 22 53  1  0  0  0  0
 22 54  1  0  0  0  0
 24 28  1  0  0  0  0
 24 55  1  0  0  0  0
 24 56  1  0  0  0  0
 25 30  1  0  0  0  0
 25 59  1  0  0  0  0
 25 60  1  0  0  0  0
 26 29  1  0  0  0  0
 26 31  1  0  0  0  0
 26 61  1  0  0  0  0
 28 33  1  0  0  0  0
 28 62  1  0  0  0  0
 28 63  1  0  0  0  0
 30 65  1  0  0  0  0
 30 66  1  0  0  0  0
 31 67  1  0  0  0  0
 31 68  1  0  0  0  0
 32 36  1  0  0  0  0
 32 39  1  1  0  0  0
 32 69  1  0  0  0  0
 33 71  1  0  0  0  0
 33 72  1  0  0  0  0
 34 35  1  0  0  0  0
 34 37  1  0  0  0  0
 34 73  1  0  0  0  0
 36 74  1  0  0  0  0
 36 75  1  0  0  0  0
 37 38  1  0  0  0  0
 37 76  1  0  0  0  0
 37 77  1  0  0  0  0
 38 40  2  0  0  0  0
 38 41  1  0  0  0  0
 40 43  1  0  0  0  0
 40 83  1  0  0  0  0
 41 44  2  0  0  0  0
 41 84  1  0  0  0  0
 42 46  1  0  0  0  0
 43 45  2  0  0  0  0
 43 85  1  0  0  0  0
 44 45  1  0  0  0  0
 44 86  1  0  0  0  0
 46 88  1  0  0  0  0
 46 89  1  0  0  0  0
 46 90  1  0  0  0  0
M  END
> <PUBCHEM_COMPOUND_CID>
502160
> <PUBCHEM_COMPOUND_CANONICALIZED>
1
> <PUBCHEM_CACTVS_COMPLEXITY>
1030
> <PUBCHEM_CACTVS_HBOND_ACCEPTOR>
12
> <PUBCHEM_CACTVS_HBOND_DONOR>
9
> <PUBCHEM_CACTVS_ROTATABLE_BOND>
14
> <PUBCHEM_CACTVS_SUBSKEYS>
AAADcfB7vABgAAAAAAAAAAAAAAAAAAAAAAAwAAAAAAAAAAABAAAAHgQQCAAADCzF2ASyDoLAAgCIAiHSGAACAAAgIAAIiIGOCIgKZjKCkTOUcAAk1hGYmAeYyKCOIAAAAAAAAABAAAAAAAAAAAAAAAAAAA==
> <PUBCHEM_IUPAC_OPENEYE_NAME>
(4R,7S,10S,13R)-13-[[(2S)-2-acetamido-3-(4-hydroxyphenyl)propanoyl]amino]-7,10-bis(4-aminobutyl)-6,9,12-trioxo-1,2-dithia-5,8,11-triazacyclotetradecane-4-carboxylic acid
> <PUBCHEM_IUPAC_CAS_NAME>
(4R,7S,10S,13R)-13-[[(2S)-2-acetamido-3-(4-hydroxyphenyl)-1-oxopropyl]amino]-7,10-bis(4-aminobutyl)-6,9,12-trioxo-1,2-dithia-5,8,11-triazacyclotetradecane-4-carboxylic acid
> <PUBCHEM_IUPAC_NAME_MARKUP>
(4<I>R</I>,7<I>S</I>,10<I>S</I>,13<I>R</I>)-13-[[(2<I>S</I>)-2-acetamido-3-(4-hydroxyphenyl)propanoyl]amino]-7,10-bis(4-aminobutyl)-6,9,12-trioxo-1,2-dithia-5,8,11-triazacyclotetradecane-4-carboxylic acid
> <PUBCHEM_IUPAC_NAME>
(4R,7S,10S,13R)-13-[[(2S)-2-acetamido-3-(4-hydroxyphenyl)propanoyl]amino]-7,10-bis(4-aminobutyl)-6,9,12-trioxo-1,2-dithia-5,8,11-triazacyclotetradecane-4-carboxylic acid
> <PUBCHEM_IUPAC_SYSTEMATIC_NAME>
(4R,7S,10S,13R)-13-[[(2S)-2-acetamido-3-(4-hydroxyphenyl)propanoyl]amino]-7,10-bis(4-azanylbutyl)-6,9,12-tris(oxidanylidene)-1,2-dithia-5,8,11-triazacyclotetradecane-4-carboxylic acid
> <PUBCHEM_IUPAC_TRADITIONAL_NAME>
(4R,7S,10S,13R)-13-[[(2S)-2-acetamido-3-(4-hydroxyphenyl)propanoyl]amino]-7,10-bis(4-aminobutyl)-6,9,12-triketo-1,2-dithia-5,8,11-triazacyclotetradecane-4-carboxylic acid
> <PUBCHEM_IUPAC_INCHI>
InChI=1S/C29H45N7O8S2/c1-17(37)32-22(14-18-8-10-19(38)11-9-18)27(41)35-23-15-45-46-16-24(29(43)44)36-26(40)21(7-3-5-13-31)33-25(39)20(34-28(23)42)6-2-4-12-30/h8-11,20-24,38H,2-7,12-16,30-31H2,1H3,(H,32,37)(H,33,39)(H,34,42)(H,35,41)(H,36,40)(H,43,44)/t20-,21-,22-,23-,24-/m0/s1
> <PUBCHEM_IUPAC_INCHIKEY>
PNGVIBZSCIJIED-LSBAASHUSA-N
> <PUBCHEM_XLOGP3_AA>
-3.3
> <PUBCHEM_EXACT_MASS>
683.27710377
> <PUBCHEM_MOLECULAR_FORMULA>
C29H45N7O8S2
> <PUBCHEM_MOLECULAR_WEIGHT>
683.8
> <PUBCHEM_OPENEYE_CAN_SMILES>
CC(=O)NC(CC1=CC=C(C=C1)O)C(=O)NC2CSSCC(NC(=O)C(NC(=O)C(NC2=O)CCCCN)CCCCN)C(=O)O
> <PUBCHEM_OPENEYE_ISO_SMILES>
CC(=O)N[C@@H](CC1=CC=C(C=C1)O)C(=O)N[C@H]2CSSC[C@H](NC(=O)[C@@H](NC(=O)[C@@H](NC2=O)CCCCN)CCCCN)C(=O)O
> <PUBCHEM_CACTVS_TPSA>
306
> <PUBCHEM_MONOISOTOPIC_WEIGHT>
683.27710377
> <PUBCHEM_TOTAL_CHARGE>
0
> <PUBCHEM_HEAVY_ATOM_COUNT>
46
> <PUBCHEM_ATOM_DEF_STEREO_COUNT>
5
> <PUBCHEM_ATOM_UDEF_STEREO_COUNT>
0
> <PUBCHEM_BOND_DEF_STEREO_COUNT>
0
> <PUBCHEM_BOND_UDEF_STEREO_COUNT>
0
> <PUBCHEM_ISOTOPIC_ATOM_COUNT>
0
> <PUBCHEM_COMPONENT_COUNT>
1
> <PUBCHEM_CACTVS_TAUTO_COUNT>
-1
> <PUBCHEM_COORDINATE_TYPE>
1
5
255
> <PUBCHEM_BONDANNOTATIONS>
26  14  5
34  15  6
18  20  5
19  21  6
32  39  5
38  40  8
38  41  8
40  43  8
41  44  8
43  45  8
44  45  8
$$$$
