502158
  -OEChem-10302200282D
138140  0     1  0  0  0  0  0999 V2000
    9.4651   -2.7500    0.0000 S   0  0  0  0  0  0  0  0  0  0  0  0
    8.5991   -3.2500    0.0000 S   0  0  0  0  0  0  0  0  0  0  0  0
   12.0632    1.7500    0.0000 O   0  0  0  0  0  0  0  0  0  0  0  0
   15.5273    2.7500    0.0000 O   0  0  0  0  0  0  0  0  0  0  0  0
   12.9292   -1.7500    0.0000 O   0  0  0  0  0  0  0  0  0  0  0  0
   12.9292   -2.7500    0.0000 O   0  0  0  0  0  0  0  0  0  0  0  0
   11.1972   -3.7500    0.0000 O   0  0  0  0  0  0  0  0  0  0  0  0
    7.7331   -5.7500    0.0000 O   0  0  0  0  0  0  0  0  0  0  0  0
   14.6613    6.2500    0.0000 O   0  0  0  0  0  0  0  0  0  0  0  0
    6.0010   -1.7500    0.0000 O   0  0  0  0  0  0  0  0  0  0  0  0
    2.5369   -2.7500    0.0000 O   0  0  0  0  0  0  0  0  0  0  0  0
   14.6613   -7.7500    0.0000 O   0  0  0  0  0  0  0  0  0  0  0  0
    3.4030   -4.2500    0.0000 O   0  0  0  0  0  0  0  0  0  0  0  0
    4.2690    0.2500    0.0000 O   0  0  0  0  0  0  0  0  0  0  0  0
   13.7953    2.7500    0.0000 N   0  0  0  0  0  0  0  0  0  0  0  0
   12.9292    0.2500    0.0000 N   0  0  0  0  0  0  0  0  0  0  0  0
   11.1972   -1.7500    0.0000 N   0  0  0  0  0  0  0  0  0  0  0  0
   15.5273    4.7500    0.0000 N   0  0  0  0  0  0  0  0  0  0  0  0
   12.0632   -4.2500    0.0000 N   0  0  0  0  0  0  0  0  0  0  0  0
    9.4651   -4.7500    0.0000 N   0  0  0  0  0  0  0  0  0  0  0  0
    6.8671   -4.2500    0.0000 N   0  0  0  0  0  0  0  0  0  0  0  0
   18.1254    1.2500    0.0000 N   0  0  0  0  0  0  0  0  0  0  0  0
    5.1350   -3.2500    0.0000 N   0  0  0  0  0  0  0  0  0  0  0  0
    9.4591   -1.7152    0.0000 N   0  0  0  0  0  0  0  0  0  0  0  0
   12.0632    7.7500    0.0000 N   0  0  0  0  0  0  0  0  0  0  0  0
    7.9037   -1.2692    0.0000 N   0  0  0  0  0  0  0  0  0  0  0  0
    2.5369    0.2500    0.0000 N   0  0  0  0  0  0  0  0  0  0  0  0
   13.7953    1.7500    0.0000 C   0  0  1  0  0  0  0  0  0  0  0  0
   14.6613    1.2500    0.0000 C   0  0  0  0  0  0  0  0  0  0  0  0
   15.5273    1.7500    0.0000 C   0  0  0  0  0  0  0  0  0  0  0  0
   14.6613    4.2500    0.0000 C   0  0  1  0  0  0  0  0  0  0  0  0
   13.7953    4.7500    0.0000 C   0  0  0  0  0  0  0  0  0  0  0  0
   12.0632   -0.2500    0.0000 C   0  0  3  0  0  0  0  0  0  0  0  0
   12.9292    1.2500    0.0000 C   0  0  0  0  0  0  0  0  0  0  0  0
   14.6613    3.2500    0.0000 C   0  0  0  0  0  0  0  0  0  0  0  0
   16.3933    1.2500    0.0000 C   0  0  0  0  0  0  0  0  0  0  0  0
   13.7953    5.7500    0.0000 C   0  0  0  0  0  0  0  0  0  0  0  0
   11.1972   -4.7500    0.0000 C   0  0  1  0  0  0  0  0  0  0  0  0
   11.1972   -2.7500    0.0000 C   0  0  2  0  0  0  0  0  0  0  0  0
   11.1972    0.2500    0.0000 C   0  0  0  0  0  0  0  0  0  0  0  0
    8.5991   -4.2500    0.0000 C   0  0  1  0  0  0  0  0  0  0  0  0
   12.0632   -1.2500    0.0000 C   0  0  0  0  0  0  0  0  0  0  0  0
   12.9292    6.2500    0.0000 C   0  0  0  0  0  0  0  0  0  0  0  0
   11.1972   -5.7500    0.0000 C   0  0  0  0  0  0  0  0  0  0  0  0
   17.2594    1.7500    0.0000 C   0  0  0  0  0  0  0  0  0  0  0  0
   12.0632   -3.2500    0.0000 C   0  0  0  0  0  0  0  0  0  0  0  0
   10.3312   -4.2500    0.0000 C   0  0  0  0  0  0  0  0  0  0  0  0
    9.2419   -3.4840    0.0000 C   0  0  0  0  0  0  0  0  0  0  0  0
   10.3312   -3.2500    0.0000 C   0  0  0  0  0  0  0  0  0  0  0  0
    6.8671   -3.2500    0.0000 C   0  0  1  0  0  0  0  0  0  0  0  0
    7.7331   -4.7500    0.0000 C   0  0  0  0  0  0  0  0  0  0  0  0
   12.9292    7.2500    0.0000 C   0  0  0  0  0  0  0  0  0  0  0  0
   11.1972    1.2500    0.0000 C   0  0  0  0  0  0  0  0  0  0  0  0
   12.0632   -6.2500    0.0000 C   0  0  0  0  0  0  0  0  0  0  0  0
    7.7331   -2.7500    0.0000 C   0  0  0  0  0  0  0  0  0  0  0  0
    8.8999   -2.5443    0.0000 C   0  0  0  0  0  0  0  0  0  0  0  0
   15.5273    5.7500    0.0000 C   0  0  0  0  0  0  0  0  0  0  0  0
    6.0010   -2.7500    0.0000 C   0  0  0  0  0  0  0  0  0  0  0  0
    4.2690   -2.7500    0.0000 C   0  0  1  0  0  0  0  0  0  0  0  0
   12.9292   -5.7500    0.0000 C   0  0  0  0  0  0  0  0  0  0  0  0
   12.0632   -7.2500    0.0000 C   0  0  0  0  0  0  0  0  0  0  0  0
    4.2690   -1.7500    0.0000 C   0  0  0  0  0  0  0  0  0  0  0  0
    7.9386   -2.2686    0.0000 C   0  0  0  0  0  0  0  0  0  0  0  0
   16.3933    6.2500    0.0000 C   0  0  0  0  0  0  0  0  0  0  0  0
    3.4030   -1.2500    0.0000 C   0  0  0  0  0  0  0  0  0  0  0  0
   13.7953   -6.2500    0.0000 C   0  0  0  0  0  0  0  0  0  0  0  0
   12.9292   -7.7500    0.0000 C   0  0  0  0  0  0  0  0  0  0  0  0
   13.7953   -7.2500    0.0000 C   0  0  0  0  0  0  0  0  0  0  0  0
    3.4030   -3.2500    0.0000 C   0  0  0  0  0  0  0  0  0  0  0  0
    8.8434   -0.9272    0.0000 C   0  0  0  0  0  0  0  0  0  0  0  0
    3.4030   -0.2500    0.0000 C   0  0  0  0  0  0  0  0  0  0  0  0
   13.2583    2.0600    0.0000 H   0  0  0  0  0  0  0  0  0  0  0  0
   14.2628    0.7751    0.0000 H   0  0  0  0  0  0  0  0  0  0  0  0
   15.0598    0.7751    0.0000 H   0  0  0  0  0  0  0  0  0  0  0  0
   15.9258    2.2250    0.0000 H   0  0  0  0  0  0  0  0  0  0  0  0
   15.1288    2.2250    0.0000 H   0  0  0  0  0  0  0  0  0  0  0  0
   15.1982    3.9400    0.0000 H   0  0  0  0  0  0  0  0  0  0  0  0
   13.1847    4.8577    0.0000 H   0  0  0  0  0  0  0  0  0  0  0  0
   13.5832    4.1674    0.0000 H   0  0  0  0  0  0  0  0  0  0  0  0
   12.0632    0.3700    0.0000 H   0  0  0  0  0  0  0  0  0  0  0  0
   13.2583    3.0600    0.0000 H   0  0  0  0  0  0  0  0  0  0  0  0
   15.9948    0.7751    0.0000 H   0  0  0  0  0  0  0  0  0  0  0  0
   16.7919    0.7751    0.0000 H   0  0  0  0  0  0  0  0  0  0  0  0
   14.4058    5.6423    0.0000 H   0  0  0  0  0  0  0  0  0  0  0  0
   14.0073    6.3326    0.0000 H   0  0  0  0  0  0  0  0  0  0  0  0
   13.4662   -0.0600    0.0000 H   0  0  0  0  0  0  0  0  0  0  0  0
   11.7341   -5.0600    0.0000 H   0  0  0  0  0  0  0  0  0  0  0  0
   11.7341   -2.4400    0.0000 H   0  0  0  0  0  0  0  0  0  0  0  0
   10.5866    0.3577    0.0000 H   0  0  0  0  0  0  0  0  0  0  0  0
   10.9851   -0.3326    0.0000 H   0  0  0  0  0  0  0  0  0  0  0  0
    9.2097   -4.1423    0.0000 H   0  0  0  0  0  0  0  0  0  0  0  0
   12.3187    6.3577    0.0000 H   0  0  0  0  0  0  0  0  0  0  0  0
   12.7172    5.6674    0.0000 H   0  0  0  0  0  0  0  0  0  0  0  0
   10.5866   -5.6423    0.0000 H   0  0  0  0  0  0  0  0  0  0  0  0
   10.9851   -6.3326    0.0000 H   0  0  0  0  0  0  0  0  0  0  0  0
   10.6603   -1.4400    0.0000 H   0  0  0  0  0  0  0  0  0  0  0  0
   16.0643    4.4400    0.0000 H   0  0  0  0  0  0  0  0  0  0  0  0
   17.6579    2.2250    0.0000 H   0  0  0  0  0  0  0  0  0  0  0  0
   16.8608    2.2250    0.0000 H   0  0  0  0  0  0  0  0  0  0  0  0
   12.6002   -4.5600    0.0000 H   0  0  0  0  0  0  0  0  0  0  0  0
    9.6404   -3.9589    0.0000 H   0  0  0  0  0  0  0  0  0  0  0  0
    9.7788   -3.1740    0.0000 H   0  0  0  0  0  0  0  0  0  0  0  0
    9.4651   -5.3700    0.0000 H   0  0  0  0  0  0  0  0  0  0  0  0
    9.9326   -3.7250    0.0000 H   0  0  0  0  0  0  0  0  0  0  0  0
   10.7297   -3.7250    0.0000 H   0  0  0  0  0  0  0  0  0  0  0  0
    6.3301   -3.5600    0.0000 H   0  0  0  0  0  0  0  0  0  0  0  0
   13.5398    7.1423    0.0000 H   0  0  0  0  0  0  0  0  0  0  0  0
   13.1413    7.8326    0.0000 H   0  0  0  0  0  0  0  0  0  0  0  0
   11.8172    1.2500    0.0000 H   0  0  0  0  0  0  0  0  0  0  0  0
   11.1972    1.8700    0.0000 H   0  0  0  0  0  0  0  0  0  0  0  0
   10.5772    1.2500    0.0000 H   0  0  0  0  0  0  0  0  0  0  0  0
    6.3301   -4.5600    0.0000 H   0  0  0  0  0  0  0  0  0  0  0  0
    8.1316   -2.2750    0.0000 H   0  0  0  0  0  0  0  0  0  0  0  0
    7.3346   -2.2750    0.0000 H   0  0  0  0  0  0  0  0  0  0  0  0
    4.8059   -2.4400    0.0000 H   0  0  0  0  0  0  0  0  0  0  0  0
   18.6623    1.5600    0.0000 H   0  0  0  0  0  0  0  0  0  0  0  0
   18.1254    0.6300    0.0000 H   0  0  0  0  0  0  0  0  0  0  0  0
    5.1350   -3.8700    0.0000 H   0  0  0  0  0  0  0  0  0  0  0  0
   12.9292   -5.1300    0.0000 H   0  0  0  0  0  0  0  0  0  0  0  0
   11.5263   -7.5600    0.0000 H   0  0  0  0  0  0  0  0  0  0  0  0
    4.8796   -1.8577    0.0000 H   0  0  0  0  0  0  0  0  0  0  0  0
    4.4810   -1.1674    0.0000 H   0  0  0  0  0  0  0  0  0  0  0  0
   10.0787   -1.6936    0.0000 H   0  0  0  0  0  0  0  0  0  0  0  0
   12.0632    8.3700    0.0000 H   0  0  0  0  0  0  0  0  0  0  0  0
   11.5263    7.4400    0.0000 H   0  0  0  0  0  0  0  0  0  0  0  0
    7.4500   -2.6503    0.0000 H   0  0  0  0  0  0  0  0  0  0  0  0
   16.7033    5.7131    0.0000 H   0  0  0  0  0  0  0  0  0  0  0  0
   16.9303    6.5600    0.0000 H   0  0  0  0  0  0  0  0  0  0  0  0
   16.0833    6.7869    0.0000 H   0  0  0  0  0  0  0  0  0  0  0  0
    2.7924   -1.1423    0.0000 H   0  0  0  0  0  0  0  0  0  0  0  0
    3.1909   -1.8326    0.0000 H   0  0  0  0  0  0  0  0  0  0  0  0
   14.3322   -5.9400    0.0000 H   0  0  0  0  0  0  0  0  0  0  0  0
   12.9292   -8.3700    0.0000 H   0  0  0  0  0  0  0  0  0  0  0  0
    9.0143   -0.3312    0.0000 H   0  0  0  0  0  0  0  0  0  0  0  0
    2.0000   -3.0600    0.0000 H   0  0  0  0  0  0  0  0  0  0  0  0
   14.6613   -8.3700    0.0000 H   0  0  0  0  0  0  0  0  0  0  0  0
    2.5369    0.8700    0.0000 H   0  0  0  0  0  0  0  0  0  0  0  0
    2.0000   -0.0600    0.0000 H   0  0  0  0  0  0  0  0  0  0  0  0
  1  2  1  0  0  0  0
  1 49  1  0  0  0  0
  2 55  1  0  0  0  0
  3 34  2  0  0  0  0
  4 35  2  0  0  0  0
  5 42  2  0  0  0  0
  6 46  2  0  0  0  0
  7 47  2  0  0  0  0
  8 51  2  0  0  0  0
  9 57  2  0  0  0  0
 10 58  2  0  0  0  0
 11 69  1  0  0  0  0
 11135  1  0  0  0  0
 12 68  1  0  0  0  0
 12136  1  0  0  0  0
 13 69  2  0  0  0  0
 14 71  2  0  0  0  0
 28 15  1  1  0  0  0
 15 35  1  0  0  0  0
 15 81  1  0  0  0  0
 16 33  1  0  0  0  0
 16 34  1  0  0  0  0
 16 86  1  0  0  0  0
 39 17  1  6  0  0  0
 17 42  1  0  0  0  0
 17 96  1  0  0  0  0
 31 18  1  6  0  0  0
 18 57  1  0  0  0  0
 18 97  1  0  0  0  0
 19 38  1  0  0  0  0
 19 46  1  0  0  0  0
 19100  1  0  0  0  0
 20 41  1  0  0  0  0
 20 47  1  0  0  0  0
 20103  1  0  0  0  0
 21 50  1  0  0  0  0
 21 51  1  0  0  0  0
 21112  1  0  0  0  0
 22 45  1  0  0  0  0
 22116  1  0  0  0  0
 22117  1  0  0  0  0
 23 58  1  0  0  0  0
 59 23  1  6  0  0  0
 23118  1  0  0  0  0
 24 56  1  0  0  0  0
 24 70  1  0  0  0  0
 24123  1  0  0  0  0
 25 52  1  0  0  0  0
 25124  1  0  0  0  0
 25125  1  0  0  0  0
 26 63  1  0  0  0  0
 26 70  2  0  0  0  0
 27 71  1  0  0  0  0
 27137  1  0  0  0  0
 27138  1  0  0  0  0
 28 29  1  0  0  0  0
 28 34  1  0  0  0  0
 28 72  1  0  0  0  0
 29 30  1  0  0  0  0
 29 73  1  0  0  0  0
 29 74  1  0  0  0  0
 30 36  1  0  0  0  0
 30 75  1  0  0  0  0
 30 76  1  0  0  0  0
 31 32  1  0  0  0  0
 31 35  1  0  0  0  0
 31 77  1  0  0  0  0
 32 37  1  0  0  0  0
 32 78  1  0  0  0  0
 32 79  1  0  0  0  0
 33 40  1  0  0  0  0
 33 42  1  0  0  0  0
 33 80  1  0  0  0  0
 36 45  1  0  0  0  0
 36 82  1  0  0  0  0
 36 83  1  0  0  0  0
 37 43  1  0  0  0  0
 37 84  1  0  0  0  0
 37 85  1  0  0  0  0
 38 44  1  1  0  0  0
 38 47  1  0  0  0  0
 38 87  1  0  0  0  0
 39 46  1  0  0  0  0
 39 49  1  0  0  0  0
 39 88  1  0  0  0  0
 40 53  1  0  0  0  0
 40 89  1  0  0  0  0
 40 90  1  0  0  0  0
 41 48  1  6  0  0  0
 41 51  1  0  0  0  0
 41 91  1  0  0  0  0
 43 52  1  0  0  0  0
 43 92  1  0  0  0  0
 43 93  1  0  0  0  0
 44 54  1  0  0  0  0
 44 94  1  0  0  0  0
 44 95  1  0  0  0  0
 45 98  1  0  0  0  0
 45 99  1  0  0  0  0
 48 56  1  0  0  0  0
 48101  1  0  0  0  0
 48102  1  0  0  0  0
 49104  1  0  0  0  0
 49105  1  0  0  0  0
 50 55  1  0  0  0  0
 50 58  1  6  0  0  0
 50106  1  0  0  0  0
 52107  1  0  0  0  0
 52108  1  0  0  0  0
 53109  1  0  0  0  0
 53110  1  0  0  0  0
 53111  1  0  0  0  0
 54 60  2  0  0  0  0
 54 61  1  0  0  0  0
 55113  1  0  0  0  0
 55114  1  0  0  0  0
 56 63  2  0  0  0  0
 57 64  1  0  0  0  0
 59 62  1  0  0  0  0
 59 69  1  0  0  0  0
 59115  1  0  0  0  0
 60 66  1  0  0  0  0
 60119  1  0  0  0  0
 61 67  2  0  0  0  0
 61120  1  0  0  0  0
 62 65  1  0  0  0  0
 62121  1  0  0  0  0
 62122  1  0  0  0  0
 63126  1  0  0  0  0
 64127  1  0  0  0  0
 64128  1  0  0  0  0
 64129  1  0  0  0  0
 65 71  1  0  0  0  0
 65130  1  0  0  0  0
 65131  1  0  0  0  0
 66 68  2  0  0  0  0
 66132  1  0  0  0  0
 67 68  1  0  0  0  0
 67133  1  0  0  0  0
 70134  1  0  0  0  0
M  END
> <PUBCHEM_COMPOUND_CID>
502158
> <PUBCHEM_COMPOUND_CANONICALIZED>
1
> <PUBCHEM_CACTVS_COMPLEXITY>
1810
> <PUBCHEM_CACTVS_HBOND_ACCEPTOR>
17
> <PUBCHEM_CACTVS_HBOND_DONOR>
14
> <PUBCHEM_CACTVS_ROTATABLE_BOND>
26
> <PUBCHEM_CACTVS_SUBSKEYS>
AAADcfB//ABgAAAAAAAAAAAAAAAAAWAAAAAwAAAAAAAAAAABwAAAHgQQCAAADCzF3gS/npbJkgCoAzX3fAACgC2xMqAJ2YG+eIiKbjLC2TOUcAAs1hPY2Cec36COIAAAAAAAAABAAAAAAAAAAAAAAAAAAA==
> <PUBCHEM_IUPAC_OPENEYE_NAME>
(2S)-2-[[(4R,7S,10S,13R)-13-[2-[[(2S)-2-[[(2S)-2-acetamido-6-amino-hexanoyl]amino]-6-amino-hexanoyl]amino]butanoylamino]-10-[(4-hydroxyphenyl)methyl]-7-(1H-imidazol-5-ylmethyl)-6,9,12-trioxo-1,2-dithia-5,8,11-triazacyclotetradecane-4-carbonyl]amino]-5-amino-5-oxo-pentanoic acid
> <PUBCHEM_IUPAC_CAS_NAME>
(2S)-2-[[[(4R,7S,10S,13R)-13-[[2-[[(2S)-2-[[(2S)-2-acetamido-6-amino-1-oxohexyl]amino]-6-amino-1-oxohexyl]amino]-1-oxobutyl]amino]-10-[(4-hydroxyphenyl)methyl]-7-(1H-imidazol-5-ylmethyl)-6,9,12-trioxo-1,2-dithia-5,8,11-triazacyclotetradec-4-yl]-oxomethyl]amino]-5-amino-5-oxopentanoic acid
> <PUBCHEM_IUPAC_NAME_MARKUP>
(2<I>S</I>)-2-[[(4<I>R</I>,7<I>S</I>,10<I>S</I>,13<I>R</I>)-13-[2-[[(2<I>S</I>)-2-[[(2<I>S</I>)-2-acetamido-6-aminohexanoyl]amino]-6-aminohexanoyl]amino]butanoylamino]-10-[(4-hydroxyphenyl)methyl]-7-(1<I>H</I>-imidazol-5-ylmethyl)-6,9,12-trioxo-1,2-dithia-5,8,11-triazacyclotetradecane-4-carbonyl]amino]-5-amino-5-oxopentanoic acid
> <PUBCHEM_IUPAC_NAME>
(2S)-2-[[(4R,7S,10S,13R)-13-[2-[[(2S)-2-[[(2S)-2-acetamido-6-aminohexanoyl]amino]-6-aminohexanoyl]amino]butanoylamino]-10-[(4-hydroxyphenyl)methyl]-7-(1H-imidazol-5-ylmethyl)-6,9,12-trioxo-1,2-dithia-5,8,11-triazacyclotetradecane-4-carbonyl]amino]-5-amino-5-oxopentanoic acid
> <PUBCHEM_IUPAC_SYSTEMATIC_NAME>
(2S)-2-[[(4R,7S,10S,13R)-13-[2-[[(2S)-2-[[(2S)-2-acetamido-6-azanyl-hexanoyl]amino]-6-azanyl-hexanoyl]amino]butanoylamino]-10-[(4-hydroxyphenyl)methyl]-7-(1H-imidazol-5-ylmethyl)-6,9,12-tris(oxidanylidene)-1,2-dithia-5,8,11-triazacyclotetradec-4-yl]carbonylamino]-5-azanyl-5-oxidanylidene-pentanoic acid
> <PUBCHEM_IUPAC_TRADITIONAL_NAME>
(2S)-2-[[(4R,7S,10S,13R)-13-[2-[[(2S)-2-[[(2S)-2-acetamido-6-amino-hexanoyl]amino]-6-amino-hexanoyl]amino]butanoylamino]-10-(4-hydroxybenzyl)-7-(1H-imidazol-5-ylmethyl)-6,9,12-triketo-1,2-dithia-5,8,11-triazacyclotetradecane-4-carbonyl]amino]-5-amino-5-keto-valeric acid
> <PUBCHEM_IUPAC_INCHI>
InChI=1S/C44H67N13O12S2/c1-3-28(51-39(63)30(9-5-7-17-46)52-38(62)29(50-24(2)58)8-4-6-16-45)37(61)56-35-22-71-70-21-34(42(66)53-31(44(68)69)14-15-36(47)60)57-41(65)33(19-26-20-48-23-49-26)55-40(64)32(54-43(35)67)18-25-10-12-27(59)13-11-25/h10-13,20,23,28-35,59H,3-9,14-19,21-22,45-46H2,1-2H3,(H2,47,60)(H,48,49)(H,50,58)(H,51,63)(H,52,62)(H,53,66)(H,54,67)(H,55,64)(H,56,61)(H,57,65)(H,68,69)/t28?,29-,30-,31-,32-,33-,34-,35-/m0/s1
> <PUBCHEM_IUPAC_INCHIKEY>
FSCSRWRWIMRAKV-HMINWHGKSA-N
> <PUBCHEM_XLOGP3_AA>
-4.9
> <PUBCHEM_EXACT_MASS>
1033.44735697
> <PUBCHEM_MOLECULAR_FORMULA>
C44H67N13O12S2
> <PUBCHEM_MOLECULAR_WEIGHT>
1034.2
> <PUBCHEM_OPENEYE_CAN_SMILES>
CCC(C(=O)NC1CSSCC(NC(=O)C(NC(=O)C(NC1=O)CC2=CC=C(C=C2)O)CC3=CN=CN3)C(=O)NC(CCC(=O)N)C(=O)O)NC(=O)C(CCCCN)NC(=O)C(CCCCN)NC(=O)C
> <PUBCHEM_OPENEYE_ISO_SMILES>
CCC(C(=O)N[C@H]1CSSC[C@H](NC(=O)[C@@H](NC(=O)[C@@H](NC1=O)CC2=CC=C(C=C2)O)CC3=CN=CN3)C(=O)N[C@@H](CCC(=O)N)C(=O)O)NC(=O)[C@H](CCCCN)NC(=O)[C@H](CCCCN)NC(=O)C
> <PUBCHEM_CACTVS_TPSA>
465
> <PUBCHEM_MONOISOTOPIC_WEIGHT>
1033.44735697
> <PUBCHEM_TOTAL_CHARGE>
0
> <PUBCHEM_HEAVY_ATOM_COUNT>
71
> <PUBCHEM_ATOM_DEF_STEREO_COUNT>
7
> <PUBCHEM_ATOM_UDEF_STEREO_COUNT>
1
> <PUBCHEM_BOND_DEF_STEREO_COUNT>
0
> <PUBCHEM_BOND_UDEF_STEREO_COUNT>
0
> <PUBCHEM_ISOTOPIC_ATOM_COUNT>
0
> <PUBCHEM_COMPONENT_COUNT>
1
> <PUBCHEM_CACTVS_TAUTO_COUNT>
-1
> <PUBCHEM_COORDINATE_TYPE>
1
5
255
> <PUBCHEM_BONDANNOTATIONS>
28  15  5
39  17  6
31  18  6
59  23  6
24  56  8
24  70  8
26  63  8
26  70  8
33  40  3
38  44  5
41  48  6
50  58  6
54  60  8
54  61  8
56  63  8
60  66  8
61  67  8
66  68  8
67  68  8
$$$$
