502193
  -OEChem-10302200282D
 43 45  0     1  0  0  0  0  0999 V2000
    2.0000   -2.8840    0.0000 O   0  0  0  0  0  0  0  0  0  0  0  0
    2.8660    3.6160    0.0000 O   0  5  0  0  0  0  0  0  0  0  0  0
    4.5981    3.6160    0.0000 O   0  0  0  0  0  0  0  0  0  0  0  0
    4.5981   -1.3840    0.0000 N   0  0  0  0  0  0  0  0  0  0  0  0
    3.7320   -2.8840    0.0000 N   0  0  0  0  0  0  0  0  0  0  0  0
    5.5443   -1.0792    0.0000 N   0  0  0  0  0  0  0  0  0  0  0  0
    5.5443   -2.6887    0.0000 N   0  0  0  0  0  0  0  0  0  0  0  0
    3.7320    3.1160    0.0000 N   0  3  0  0  0  0  0  0  0  0  0  0
    3.7320   -0.8840    0.0000 C   0  0  3  0  0  0  0  0  0  0  0  0
    2.8660   -1.3840    0.0000 C   0  0  0  0  0  0  0  0  0  0  0  0
    3.7320    0.1160    0.0000 C   0  0  0  0  0  0  0  0  0  0  0  0
    4.5981   -2.3840    0.0000 C   0  0  0  0  0  0  0  0  0  0  0  0
    7.1279   -1.8840    0.0000 C   0  0  0  0  0  0  0  0  0  0  0  0
    6.1279   -1.8840    0.0000 C   0  0  0  0  0  0  0  0  0  0  0  0
    2.8660   -2.3840    0.0000 C   0  0  0  0  0  0  0  0  0  0  0  0
    7.6279   -2.7500    0.0000 C   0  0  0  0  0  0  0  0  0  0  0  0
    8.6279   -2.7500    0.0000 C   0  0  0  0  0  0  0  0  0  0  0  0
    2.8660    0.6160    0.0000 C   0  0  0  0  0  0  0  0  0  0  0  0
    4.5981    0.6160    0.0000 C   0  0  0  0  0  0  0  0  0  0  0  0
    9.1279   -3.6160    0.0000 C   0  0  0  0  0  0  0  0  0  0  0  0
    2.8660    1.6160    0.0000 C   0  0  0  0  0  0  0  0  0  0  0  0
    4.5981    1.6160    0.0000 C   0  0  0  0  0  0  0  0  0  0  0  0
    3.7320    2.1160    0.0000 C   0  0  0  0  0  0  0  0  0  0  0  0
   10.1279   -3.6160    0.0000 C   0  0  0  0  0  0  0  0  0  0  0  0
    3.1951   -0.5740    0.0000 H   0  0  0  0  0  0  0  0  0  0  0  0
    2.6540   -0.8014    0.0000 H   0  0  0  0  0  0  0  0  0  0  0  0
    2.2554   -1.4916    0.0000 H   0  0  0  0  0  0  0  0  0  0  0  0
    7.7105   -1.6719    0.0000 H   0  0  0  0  0  0  0  0  0  0  0  0
    7.0202   -1.2734    0.0000 H   0  0  0  0  0  0  0  0  0  0  0  0
    7.0453   -2.9620    0.0000 H   0  0  0  0  0  0  0  0  0  0  0  0
    7.7356   -3.3606    0.0000 H   0  0  0  0  0  0  0  0  0  0  0  0
    3.7320   -3.5040    0.0000 H   0  0  0  0  0  0  0  0  0  0  0  0
    9.2105   -2.5380    0.0000 H   0  0  0  0  0  0  0  0  0  0  0  0
    8.5202   -2.1394    0.0000 H   0  0  0  0  0  0  0  0  0  0  0  0
    2.3291    0.3060    0.0000 H   0  0  0  0  0  0  0  0  0  0  0  0
    5.1350    0.3060    0.0000 H   0  0  0  0  0  0  0  0  0  0  0  0
    8.5453   -3.8281    0.0000 H   0  0  0  0  0  0  0  0  0  0  0  0
    9.2356   -4.2266    0.0000 H   0  0  0  0  0  0  0  0  0  0  0  0
    2.3291    1.9260    0.0000 H   0  0  0  0  0  0  0  0  0  0  0  0
    5.1350    1.9260    0.0000 H   0  0  0  0  0  0  0  0  0  0  0  0
   10.1279   -4.2360    0.0000 H   0  0  0  0  0  0  0  0  0  0  0  0
   10.7479   -3.6160    0.0000 H   0  0  0  0  0  0  0  0  0  0  0  0
   10.1279   -2.9960    0.0000 H   0  0  0  0  0  0  0  0  0  0  0  0
  1 15  2  0  0  0  0
  2  8  1  0  0  0  0
  3  8  2  0  0  0  0
  4  6  1  0  0  0  0
  4  9  1  0  0  0  0
  4 12  1  0  0  0  0
  5 12  1  0  0  0  0
  5 15  1  0  0  0  0
  5 32  1  0  0  0  0
  6 14  2  0  0  0  0
  7 12  2  0  0  0  0
  7 14  1  0  0  0  0
  8 23  1  0  0  0  0
  9 10  1  0  0  0  0
  9 11  1  0  0  0  0
  9 25  1  0  0  0  0
 10 15  1  0  0  0  0
 10 26  1  0  0  0  0
 10 27  1  0  0  0  0
 11 18  2  0  0  0  0
 11 19  1  0  0  0  0
 13 14  1  0  0  0  0
 13 16  1  0  0  0  0
 13 28  1  0  0  0  0
 13 29  1  0  0  0  0
 16 17  1  0  0  0  0
 16 30  1  0  0  0  0
 16 31  1  0  0  0  0
 17 20  1  0  0  0  0
 17 33  1  0  0  0  0
 17 34  1  0  0  0  0
 18 21  1  0  0  0  0
 18 35  1  0  0  0  0
 19 22  2  0  0  0  0
 19 36  1  0  0  0  0
 20 24  1  0  0  0  0
 20 37  1  0  0  0  0
 20 38  1  0  0  0  0
 21 23  2  0  0  0  0
 21 39  1  0  0  0  0
 22 23  1  0  0  0  0
 22 40  1  0  0  0  0
 24 41  1  0  0  0  0
 24 42  1  0  0  0  0
 24 43  1  0  0  0  0
M  CHG  2   2  -1   8   1
M  END
> <PUBCHEM_COMPOUND_CID>
502193
> <PUBCHEM_COMPOUND_CANONICALIZED>
1
> <PUBCHEM_CACTVS_COMPLEXITY>
461
> <PUBCHEM_CACTVS_HBOND_ACCEPTOR>
5
> <PUBCHEM_CACTVS_HBOND_DONOR>
1
> <PUBCHEM_CACTVS_ROTATABLE_BOND>
5
> <PUBCHEM_CACTVS_SUBSKEYS>
AAADceB7sAAAAAAAAAAAAAAAAAAAAWAAAAA8QAAAAAAAAFgBwAAAHgAcAAAADCjBmwQz0IbYUACrAidydwCSgAsggqA9yAE4ZIqIKDqA2ZGEIAh4mQIIyAcYiICOCAAAAAAAAAAQAAAAAAAAAAAAAAAAAA==
> <PUBCHEM_IUPAC_OPENEYE_NAME>
7-(4-nitrophenyl)-2-pentyl-6,7-dihydro-4H-[1,2,4]triazolo[1,5-a]pyrimidin-5-one
> <PUBCHEM_IUPAC_CAS_NAME>
7-(4-nitrophenyl)-2-pentyl-6,7-dihydro-4H-[1,2,4]triazolo[1,5-a]pyrimidin-5-one
> <PUBCHEM_IUPAC_NAME_MARKUP>
7-(4-nitrophenyl)-2-pentyl-6,7-dihydro-4<I>H</I>-[1,2,4]triazolo[1,5-a]pyrimidin-5-one
> <PUBCHEM_IUPAC_NAME>
7-(4-nitrophenyl)-2-pentyl-6,7-dihydro-4H-[1,2,4]triazolo[1,5-a]pyrimidin-5-one
> <PUBCHEM_IUPAC_SYSTEMATIC_NAME>
7-(4-nitrophenyl)-2-pentyl-6,7-dihydro-4H-[1,2,4]triazolo[1,5-a]pyrimidin-5-one
> <PUBCHEM_IUPAC_TRADITIONAL_NAME>
2-amyl-7-(4-nitrophenyl)-6,7-dihydro-4H-[1,2,4]triazolo[1,5-a]pyrimidin-5-one
> <PUBCHEM_IUPAC_INCHI>
InChI=1S/C16H19N5O3/c1-2-3-4-5-14-17-16-18-15(22)10-13(20(16)19-14)11-6-8-12(9-7-11)21(23)24/h6-9,13H,2-5,10H2,1H3,(H,17,18,19,22)
> <PUBCHEM_IUPAC_INCHIKEY>
SOYMKZRFWVOLKR-UHFFFAOYSA-N
> <PUBCHEM_XLOGP3_AA>
3
> <PUBCHEM_EXACT_MASS>
329.14878949
> <PUBCHEM_MOLECULAR_FORMULA>
C16H19N5O3
> <PUBCHEM_MOLECULAR_WEIGHT>
329.35
> <PUBCHEM_OPENEYE_CAN_SMILES>
CCCCCC1=NN2C(CC(=O)NC2=N1)C3=CC=C(C=C3)[N+](=O)[O-]
> <PUBCHEM_OPENEYE_ISO_SMILES>
CCCCCC1=NN2C(CC(=O)NC2=N1)C3=CC=C(C=C3)[N+](=O)[O-]
> <PUBCHEM_CACTVS_TPSA>
106
> <PUBCHEM_MONOISOTOPIC_WEIGHT>
329.14878949
> <PUBCHEM_TOTAL_CHARGE>
0
> <PUBCHEM_HEAVY_ATOM_COUNT>
24
> <PUBCHEM_ATOM_DEF_STEREO_COUNT>
0
> <PUBCHEM_ATOM_UDEF_STEREO_COUNT>
1
> <PUBCHEM_BOND_DEF_STEREO_COUNT>
0
> <PUBCHEM_BOND_UDEF_STEREO_COUNT>
0
> <PUBCHEM_ISOTOPIC_ATOM_COUNT>
0
> <PUBCHEM_COMPONENT_COUNT>
1
> <PUBCHEM_CACTVS_TAUTO_COUNT>
-1
> <PUBCHEM_COORDINATE_TYPE>
1
5
255
> <PUBCHEM_BONDANNOTATIONS>
11  18  8
11  19  8
18  21  8
19  22  8
21  23  8
22  23  8
4  12  8
4  6  8
6  14  8
7  12  8
7  14  8
9  11  3
$$$$
