502143
  -OEChem-10302200282D
 62 62  0     1  0  0  0  0  0999 V2000
    5.1350    2.4400    0.0000 O   0  0  0  0  0  0  0  0  0  0  0  0
    4.2690    2.9400    0.0000 O   0  0  0  0  0  0  0  0  0  0  0  0
    2.5369   -0.0600    0.0000 O   0  0  0  0  0  0  0  0  0  0  0  0
    6.0010    0.9400    0.0000 N   0  0  0  0  0  0  0  0  0  0  0  0
    4.2690   -0.0600    0.0000 N   0  0  0  0  0  0  0  0  0  0  0  0
   15.5273    1.4400    0.0000 N   0  0  0  0  0  0  0  0  0  0  0  0
    2.5369    2.9400    0.0000 N   0  0  0  0  0  0  0  0  0  0  0  0
   10.3312    1.4400    0.0000 C   0  0  0  0  0  0  0  0  0  0  0  0
    9.4651    0.9400    0.0000 C   0  0  0  0  0  0  0  0  0  0  0  0
   11.1972    0.9400    0.0000 C   0  0  0  0  0  0  0  0  0  0  0  0
    8.5991    1.4400    0.0000 C   0  0  0  0  0  0  0  0  0  0  0  0
   12.0632    1.4400    0.0000 C   0  0  0  0  0  0  0  0  0  0  0  0
    7.7331    0.9400    0.0000 C   0  0  0  0  0  0  0  0  0  0  0  0
   12.9292    0.9400    0.0000 C   0  0  0  0  0  0  0  0  0  0  0  0
    6.8671    1.4400    0.0000 C   0  0  0  0  0  0  0  0  0  0  0  0
   13.7953    1.4400    0.0000 C   0  0  0  0  0  0  0  0  0  0  0  0
   14.6613    0.9400    0.0000 C   0  0  0  0  0  0  0  0  0  0  0  0
    4.2690    0.9400    0.0000 C   0  0  3  0  0  0  0  0  0  0  0  0
    5.1350    1.4400    0.0000 C   0  0  0  0  0  0  0  0  0  0  0  0
    3.4030    1.4400    0.0000 C   0  0  0  0  0  0  0  0  0  0  0  0
    3.4030    2.4400    0.0000 C   0  0  0  0  0  0  0  0  0  0  0  0
    3.4030   -0.5600    0.0000 C   0  0  0  0  0  0  0  0  0  0  0  0
    3.4030   -1.5600    0.0000 C   0  0  0  0  0  0  0  0  0  0  0  0
    2.5369   -2.0600    0.0000 C   0  0  0  0  0  0  0  0  0  0  0  0
    4.2690   -2.0600    0.0000 C   0  0  0  0  0  0  0  0  0  0  0  0
    2.5369   -3.0600    0.0000 C   0  0  0  0  0  0  0  0  0  0  0  0
    4.2690   -3.0600    0.0000 C   0  0  0  0  0  0  0  0  0  0  0  0
    3.4030   -3.5600    0.0000 C   0  0  0  0  0  0  0  0  0  0  0  0
   10.7297    1.9150    0.0000 H   0  0  0  0  0  0  0  0  0  0  0  0
    9.9326    1.9150    0.0000 H   0  0  0  0  0  0  0  0  0  0  0  0
    9.0666    0.4651    0.0000 H   0  0  0  0  0  0  0  0  0  0  0  0
    9.8637    0.4651    0.0000 H   0  0  0  0  0  0  0  0  0  0  0  0
   10.7987    0.4651    0.0000 H   0  0  0  0  0  0  0  0  0  0  0  0
   11.5957    0.4651    0.0000 H   0  0  0  0  0  0  0  0  0  0  0  0
    8.9976    1.9150    0.0000 H   0  0  0  0  0  0  0  0  0  0  0  0
    8.2006    1.9150    0.0000 H   0  0  0  0  0  0  0  0  0  0  0  0
   12.4617    1.9150    0.0000 H   0  0  0  0  0  0  0  0  0  0  0  0
   11.6647    1.9150    0.0000 H   0  0  0  0  0  0  0  0  0  0  0  0
    7.3346    0.4651    0.0000 H   0  0  0  0  0  0  0  0  0  0  0  0
    8.1316    0.4651    0.0000 H   0  0  0  0  0  0  0  0  0  0  0  0
   12.5307    0.4651    0.0000 H   0  0  0  0  0  0  0  0  0  0  0  0
   13.3278    0.4651    0.0000 H   0  0  0  0  0  0  0  0  0  0  0  0
    7.2656    1.9150    0.0000 H   0  0  0  0  0  0  0  0  0  0  0  0
    6.4685    1.9150    0.0000 H   0  0  0  0  0  0  0  0  0  0  0  0
   14.1938    1.9150    0.0000 H   0  0  0  0  0  0  0  0  0  0  0  0
   13.3967    1.9150    0.0000 H   0  0  0  0  0  0  0  0  0  0  0  0
    6.0010    0.3200    0.0000 H   0  0  0  0  0  0  0  0  0  0  0  0
   14.2628    0.4651    0.0000 H   0  0  0  0  0  0  0  0  0  0  0  0
   15.0598    0.4651    0.0000 H   0  0  0  0  0  0  0  0  0  0  0  0
    4.8059    0.6300    0.0000 H   0  0  0  0  0  0  0  0  0  0  0  0
    2.7924    1.5477    0.0000 H   0  0  0  0  0  0  0  0  0  0  0  0
    3.1909    0.8574    0.0000 H   0  0  0  0  0  0  0  0  0  0  0  0
    4.8059   -0.3700    0.0000 H   0  0  0  0  0  0  0  0  0  0  0  0
   16.0643    1.1300    0.0000 H   0  0  0  0  0  0  0  0  0  0  0  0
   15.5273    2.0600    0.0000 H   0  0  0  0  0  0  0  0  0  0  0  0
    2.5369    3.5600    0.0000 H   0  0  0  0  0  0  0  0  0  0  0  0
    2.0000    2.6300    0.0000 H   0  0  0  0  0  0  0  0  0  0  0  0
    2.0000   -1.7500    0.0000 H   0  0  0  0  0  0  0  0  0  0  0  0
    4.8059   -1.7500    0.0000 H   0  0  0  0  0  0  0  0  0  0  0  0
    2.0000   -3.3700    0.0000 H   0  0  0  0  0  0  0  0  0  0  0  0
    4.8059   -3.3700    0.0000 H   0  0  0  0  0  0  0  0  0  0  0  0
    3.4030   -4.1800    0.0000 H   0  0  0  0  0  0  0  0  0  0  0  0
  1 19  2  0  0  0  0
  2 21  2  0  0  0  0
  3 22  2  0  0  0  0
  4 15  1  0  0  0  0
  4 19  1  0  0  0  0
  4 47  1  0  0  0  0
  5 18  1  0  0  0  0
  5 22  1  0  0  0  0
  5 53  1  0  0  0  0
  6 17  1  0  0  0  0
  6 54  1  0  0  0  0
  6 55  1  0  0  0  0
  7 21  1  0  0  0  0
  7 56  1  0  0  0  0
  7 57  1  0  0  0  0
  8  9  1  0  0  0  0
  8 10  1  0  0  0  0
  8 29  1  0  0  0  0
  8 30  1  0  0  0  0
  9 11  1  0  0  0  0
  9 31  1  0  0  0  0
  9 32  1  0  0  0  0
 10 12  1  0  0  0  0
 10 33  1  0  0  0  0
 10 34  1  0  0  0  0
 11 13  1  0  0  0  0
 11 35  1  0  0  0  0
 11 36  1  0  0  0  0
 12 14  1  0  0  0  0
 12 37  1  0  0  0  0
 12 38  1  0  0  0  0
 13 15  1  0  0  0  0
 13 39  1  0  0  0  0
 13 40  1  0  0  0  0
 14 16  1  0  0  0  0
 14 41  1  0  0  0  0
 14 42  1  0  0  0  0
 15 43  1  0  0  0  0
 15 44  1  0  0  0  0
 16 17  1  0  0  0  0
 16 45  1  0  0  0  0
 16 46  1  0  0  0  0
 17 48  1  0  0  0  0
 17 49  1  0  0  0  0
 18 19  1  0  0  0  0
 18 20  1  0  0  0  0
 18 50  1  0  0  0  0
 20 21  1  0  0  0  0
 20 51  1  0  0  0  0
 20 52  1  0  0  0  0
 22 23  1  0  0  0  0
 23 24  2  0  0  0  0
 23 25  1  0  0  0  0
 24 26  1  0  0  0  0
 24 58  1  0  0  0  0
 25 27  2  0  0  0  0
 25 59  1  0  0  0  0
 26 28  2  0  0  0  0
 26 60  1  0  0  0  0
 27 28  1  0  0  0  0
 27 61  1  0  0  0  0
 28 62  1  0  0  0  0
M  END
> <PUBCHEM_COMPOUND_CID>
502143
> <PUBCHEM_COMPOUND_CANONICALIZED>
1
> <PUBCHEM_CACTVS_COMPLEXITY>
465
> <PUBCHEM_CACTVS_HBOND_ACCEPTOR>
4
> <PUBCHEM_CACTVS_HBOND_DONOR>
4
> <PUBCHEM_CACTVS_ROTATABLE_BOND>
15
> <PUBCHEM_CACTVS_SUBSKEYS>
AAADcfB7sAAAAAAAAAAAAAAAAAAAAAAAAAAwAAAAAAAAAAABAAAAHgAQAAAADCjBmAQwAILAAACIAiFSEACCAAAkAAAIiIGIBMgIYDqA1TGUIQhglgCIiYcdiICOAAAAAAAAAAAAAAAAAAAAAAAAAAAAAA==
> <PUBCHEM_IUPAC_OPENEYE_NAME>
N-(10-aminodecyl)-2-benzamido-butanediamide
> <PUBCHEM_IUPAC_CAS_NAME>
N-(10-aminodecyl)-2-benzamidobutanediamide
> <PUBCHEM_IUPAC_NAME_MARKUP>
<I>N</I>-(10-aminodecyl)-2-benzamidobutanediamide
> <PUBCHEM_IUPAC_NAME>
N-(10-aminodecyl)-2-benzamidobutanediamide
> <PUBCHEM_IUPAC_SYSTEMATIC_NAME>
N-(10-azanyldecyl)-2-benzamido-butanediamide
> <PUBCHEM_IUPAC_TRADITIONAL_NAME>
N-(10-aminodecyl)-2-benzamido-succinamide
> <PUBCHEM_IUPAC_INCHI>
InChI=1S/C21H34N4O3/c22-14-10-5-3-1-2-4-6-11-15-24-21(28)18(16-19(23)26)25-20(27)17-12-8-7-9-13-17/h7-9,12-13,18H,1-6,10-11,14-16,22H2,(H2,23,26)(H,24,28)(H,25,27)
> <PUBCHEM_IUPAC_INCHIKEY>
QUCMOLWLSVNQEX-UHFFFAOYSA-N
> <PUBCHEM_XLOGP3_AA>
2.1
> <PUBCHEM_EXACT_MASS>
390.26309096
> <PUBCHEM_MOLECULAR_FORMULA>
C21H34N4O3
> <PUBCHEM_MOLECULAR_WEIGHT>
390.5
> <PUBCHEM_OPENEYE_CAN_SMILES>
C1=CC=C(C=C1)C(=O)NC(CC(=O)N)C(=O)NCCCCCCCCCCN
> <PUBCHEM_OPENEYE_ISO_SMILES>
C1=CC=C(C=C1)C(=O)NC(CC(=O)N)C(=O)NCCCCCCCCCCN
> <PUBCHEM_CACTVS_TPSA>
127
> <PUBCHEM_MONOISOTOPIC_WEIGHT>
390.26309096
> <PUBCHEM_TOTAL_CHARGE>
0
> <PUBCHEM_HEAVY_ATOM_COUNT>
28
> <PUBCHEM_ATOM_DEF_STEREO_COUNT>
0
> <PUBCHEM_ATOM_UDEF_STEREO_COUNT>
1
> <PUBCHEM_BOND_DEF_STEREO_COUNT>
0
> <PUBCHEM_BOND_UDEF_STEREO_COUNT>
0
> <PUBCHEM_ISOTOPIC_ATOM_COUNT>
0
> <PUBCHEM_COMPONENT_COUNT>
1
> <PUBCHEM_CACTVS_TAUTO_COUNT>
-1
> <PUBCHEM_COORDINATE_TYPE>
1
5
255
> <PUBCHEM_BONDANNOTATIONS>
18  20  3
23  24  8
23  25  8
24  26  8
25  27  8
26  28  8
27  28  8
$$$$
