502146
  -OEChem-10302200282D
 62 62  0     1  0  0  0  0  0999 V2000
    6.3301   -2.4050    0.0000 O   0  0  0  0  0  0  0  0  0  0  0  0
    2.8660   -3.4050    0.0000 O   0  0  0  0  0  0  0  0  0  0  0  0
    2.0000   -0.9050    0.0000 O   0  0  0  0  0  0  0  0  0  0  0  0
    5.4641   -0.9050    0.0000 N   0  0  0  0  0  0  0  0  0  0  0  0
    4.5981   -3.4050    0.0000 N   0  0  0  0  0  0  0  0  0  0  0  0
    9.7942    6.5950    0.0000 N   0  0  0  0  0  0  0  0  0  0  0  0
    2.8660    0.5950    0.0000 N   0  0  0  0  0  0  0  0  0  0  0  0
    7.1962    2.0950    0.0000 C   0  0  0  0  0  0  0  0  0  0  0  0
    8.0622    2.5950    0.0000 C   0  0  0  0  0  0  0  0  0  0  0  0
    7.1962    1.0950    0.0000 C   0  0  0  0  0  0  0  0  0  0  0  0
    8.0622    3.5950    0.0000 C   0  0  0  0  0  0  0  0  0  0  0  0
    6.3301    0.5950    0.0000 C   0  0  0  0  0  0  0  0  0  0  0  0
    8.9282    4.0950    0.0000 C   0  0  0  0  0  0  0  0  0  0  0  0
    6.3301   -0.4050    0.0000 C   0  0  0  0  0  0  0  0  0  0  0  0
    8.9282    5.0950    0.0000 C   0  0  0  0  0  0  0  0  0  0  0  0
    4.5981   -2.4050    0.0000 C   0  0  3  0  0  0  0  0  0  0  0  0
    3.7320   -1.9050    0.0000 C   0  0  0  0  0  0  0  0  0  0  0  0
    5.4641   -1.9050    0.0000 C   0  0  0  0  0  0  0  0  0  0  0  0
    9.7942    5.5950    0.0000 C   0  0  0  0  0  0  0  0  0  0  0  0
    3.7320   -0.9050    0.0000 C   0  0  0  0  0  0  0  0  0  0  0  0
    3.7320   -3.9050    0.0000 C   0  0  0  0  0  0  0  0  0  0  0  0
    2.8660   -0.4050    0.0000 C   0  0  0  0  0  0  0  0  0  0  0  0
    3.7320   -4.9050    0.0000 C   0  0  0  0  0  0  0  0  0  0  0  0
    2.8660   -5.4050    0.0000 C   0  0  0  0  0  0  0  0  0  0  0  0
    4.5981   -5.4050    0.0000 C   0  0  0  0  0  0  0  0  0  0  0  0
    2.8660   -6.4050    0.0000 C   0  0  0  0  0  0  0  0  0  0  0  0
    4.5981   -6.4050    0.0000 C   0  0  0  0  0  0  0  0  0  0  0  0
    3.7320   -6.9050    0.0000 C   0  0  0  0  0  0  0  0  0  0  0  0
    6.9841    2.6776    0.0000 H   0  0  0  0  0  0  0  0  0  0  0  0
    6.5856    1.9873    0.0000 H   0  0  0  0  0  0  0  0  0  0  0  0
    8.2742    2.0124    0.0000 H   0  0  0  0  0  0  0  0  0  0  0  0
    8.6728    2.7027    0.0000 H   0  0  0  0  0  0  0  0  0  0  0  0
    7.4082    0.5124    0.0000 H   0  0  0  0  0  0  0  0  0  0  0  0
    7.8067    1.2027    0.0000 H   0  0  0  0  0  0  0  0  0  0  0  0
    7.8501    4.1776    0.0000 H   0  0  0  0  0  0  0  0  0  0  0  0
    7.4516    3.4873    0.0000 H   0  0  0  0  0  0  0  0  0  0  0  0
    6.1181    1.1776    0.0000 H   0  0  0  0  0  0  0  0  0  0  0  0
    5.7196    0.4873    0.0000 H   0  0  0  0  0  0  0  0  0  0  0  0
    9.1403    3.5124    0.0000 H   0  0  0  0  0  0  0  0  0  0  0  0
    9.5388    4.2027    0.0000 H   0  0  0  0  0  0  0  0  0  0  0  0
    6.5422   -0.9876    0.0000 H   0  0  0  0  0  0  0  0  0  0  0  0
    6.9407   -0.2973    0.0000 H   0  0  0  0  0  0  0  0  0  0  0  0
    8.7162    5.6776    0.0000 H   0  0  0  0  0  0  0  0  0  0  0  0
    8.3176    4.9873    0.0000 H   0  0  0  0  0  0  0  0  0  0  0  0
    5.1350   -2.7150    0.0000 H   0  0  0  0  0  0  0  0  0  0  0  0
    3.1215   -1.7973    0.0000 H   0  0  0  0  0  0  0  0  0  0  0  0
    3.5200   -2.4876    0.0000 H   0  0  0  0  0  0  0  0  0  0  0  0
    4.9272   -0.5950    0.0000 H   0  0  0  0  0  0  0  0  0  0  0  0
   10.0063    5.0124    0.0000 H   0  0  0  0  0  0  0  0  0  0  0  0
   10.4048    5.7027    0.0000 H   0  0  0  0  0  0  0  0  0  0  0  0
    4.3426   -1.0127    0.0000 H   0  0  0  0  0  0  0  0  0  0  0  0
    3.9441   -0.3224    0.0000 H   0  0  0  0  0  0  0  0  0  0  0  0
    5.1350   -3.7150    0.0000 H   0  0  0  0  0  0  0  0  0  0  0  0
   10.3312    6.9050    0.0000 H   0  0  0  0  0  0  0  0  0  0  0  0
    9.2573    6.9050    0.0000 H   0  0  0  0  0  0  0  0  0  0  0  0
    2.3291    0.9050    0.0000 H   0  0  0  0  0  0  0  0  0  0  0  0
    3.4030    0.9050    0.0000 H   0  0  0  0  0  0  0  0  0  0  0  0
    2.3291   -5.0950    0.0000 H   0  0  0  0  0  0  0  0  0  0  0  0
    5.1350   -5.0950    0.0000 H   0  0  0  0  0  0  0  0  0  0  0  0
    2.3291   -6.7150    0.0000 H   0  0  0  0  0  0  0  0  0  0  0  0
    5.1350   -6.7150    0.0000 H   0  0  0  0  0  0  0  0  0  0  0  0
    3.7320   -7.5250    0.0000 H   0  0  0  0  0  0  0  0  0  0  0  0
  1 18  2  0  0  0  0
  2 21  2  0  0  0  0
  3 22  2  0  0  0  0
  4 14  1  0  0  0  0
  4 18  1  0  0  0  0
  4 48  1  0  0  0  0
  5 16  1  0  0  0  0
  5 21  1  0  0  0  0
  5 53  1  0  0  0  0
  6 19  1  0  0  0  0
  6 54  1  0  0  0  0
  6 55  1  0  0  0  0
  7 22  1  0  0  0  0
  7 56  1  0  0  0  0
  7 57  1  0  0  0  0
  8  9  1  0  0  0  0
  8 10  1  0  0  0  0
  8 29  1  0  0  0  0
  8 30  1  0  0  0  0
  9 11  1  0  0  0  0
  9 31  1  0  0  0  0
  9 32  1  0  0  0  0
 10 12  1  0  0  0  0
 10 33  1  0  0  0  0
 10 34  1  0  0  0  0
 11 13  1  0  0  0  0
 11 35  1  0  0  0  0
 11 36  1  0  0  0  0
 12 14  1  0  0  0  0
 12 37  1  0  0  0  0
 12 38  1  0  0  0  0
 13 15  1  0  0  0  0
 13 39  1  0  0  0  0
 13 40  1  0  0  0  0
 14 41  1  0  0  0  0
 14 42  1  0  0  0  0
 15 19  1  0  0  0  0
 15 43  1  0  0  0  0
 15 44  1  0  0  0  0
 16 17  1  0  0  0  0
 16 18  1  0  0  0  0
 16 45  1  0  0  0  0
 17 20  1  0  0  0  0
 17 46  1  0  0  0  0
 17 47  1  0  0  0  0
 19 49  1  0  0  0  0
 19 50  1  0  0  0  0
 20 22  1  0  0  0  0
 20 51  1  0  0  0  0
 20 52  1  0  0  0  0
 21 23  1  0  0  0  0
 23 24  2  0  0  0  0
 23 25  1  0  0  0  0
 24 26  1  0  0  0  0
 24 58  1  0  0  0  0
 25 27  2  0  0  0  0
 25 59  1  0  0  0  0
 26 28  2  0  0  0  0
 26 60  1  0  0  0  0
 27 28  1  0  0  0  0
 27 61  1  0  0  0  0
 28 62  1  0  0  0  0
M  END
> <PUBCHEM_COMPOUND_CID>
502146
> <PUBCHEM_COMPOUND_CANONICALIZED>
1
> <PUBCHEM_CACTVS_COMPLEXITY>
465
> <PUBCHEM_CACTVS_HBOND_ACCEPTOR>
4
> <PUBCHEM_CACTVS_HBOND_DONOR>
4
> <PUBCHEM_CACTVS_ROTATABLE_BOND>
15
> <PUBCHEM_CACTVS_SUBSKEYS>
AAADcfB7sAAAAAAAAAAAAAAAAAAAAAAAAAAwAAAAAAAAAAABAAAAHgAQAAAADCjBmAQwAILAAACIAiFSEACCAAAkAAAIiIGIBMgIYDKAlTGUIQhglgCIiYcci4COAAAAAAAAAAAAAAAAAAAAAAAAAAAAAA==
> <PUBCHEM_IUPAC_OPENEYE_NAME>
N-(9-aminononyl)-2-benzamido-pentanediamide
> <PUBCHEM_IUPAC_CAS_NAME>
N-(9-aminononyl)-2-benzamidopentanediamide
> <PUBCHEM_IUPAC_NAME_MARKUP>
<I>N</I>-(9-aminononyl)-2-benzamidopentanediamide
> <PUBCHEM_IUPAC_NAME>
N-(9-aminononyl)-2-benzamidopentanediamide
> <PUBCHEM_IUPAC_SYSTEMATIC_NAME>
N-(9-azanylnonyl)-2-benzamido-pentanediamide
> <PUBCHEM_IUPAC_TRADITIONAL_NAME>
N-(9-aminononyl)-2-benzamido-glutaramide
> <PUBCHEM_IUPAC_INCHI>
InChI=1S/C21H34N4O3/c22-15-9-4-2-1-3-5-10-16-24-21(28)18(13-14-19(23)26)25-20(27)17-11-7-6-8-12-17/h6-8,11-12,18H,1-5,9-10,13-16,22H2,(H2,23,26)(H,24,28)(H,25,27)
> <PUBCHEM_IUPAC_INCHIKEY>
JGUUFXKICSGIHK-UHFFFAOYSA-N
> <PUBCHEM_XLOGP3_AA>
1.9
> <PUBCHEM_EXACT_MASS>
390.26309096
> <PUBCHEM_MOLECULAR_FORMULA>
C21H34N4O3
> <PUBCHEM_MOLECULAR_WEIGHT>
390.5
> <PUBCHEM_OPENEYE_CAN_SMILES>
C1=CC=C(C=C1)C(=O)NC(CCC(=O)N)C(=O)NCCCCCCCCCN
> <PUBCHEM_OPENEYE_ISO_SMILES>
C1=CC=C(C=C1)C(=O)NC(CCC(=O)N)C(=O)NCCCCCCCCCN
> <PUBCHEM_CACTVS_TPSA>
127
> <PUBCHEM_MONOISOTOPIC_WEIGHT>
390.26309096
> <PUBCHEM_TOTAL_CHARGE>
0
> <PUBCHEM_HEAVY_ATOM_COUNT>
28
> <PUBCHEM_ATOM_DEF_STEREO_COUNT>
0
> <PUBCHEM_ATOM_UDEF_STEREO_COUNT>
1
> <PUBCHEM_BOND_DEF_STEREO_COUNT>
0
> <PUBCHEM_BOND_UDEF_STEREO_COUNT>
0
> <PUBCHEM_ISOTOPIC_ATOM_COUNT>
0
> <PUBCHEM_COMPONENT_COUNT>
1
> <PUBCHEM_CACTVS_TAUTO_COUNT>
-1
> <PUBCHEM_COORDINATE_TYPE>
1
5
255
> <PUBCHEM_BONDANNOTATIONS>
16  17  3
23  24  8
23  25  8
24  26  8
25  27  8
26  28  8
27  28  8
$$$$
