502191
  -OEChem-10302200282D
 41 43  0     1  0  0  0  0  0999 V2000
    2.0000   -2.1340    0.0000 O   0  0  0  0  0  0  0  0  0  0  0  0
    4.5981   -0.6340    0.0000 N   0  0  0  0  0  0  0  0  0  0  0  0
    3.7320   -2.1340    0.0000 N   0  0  0  0  0  0  0  0  0  0  0  0
    5.5443   -0.3292    0.0000 N   0  0  0  0  0  0  0  0  0  0  0  0
    5.5443   -1.9387    0.0000 N   0  0  0  0  0  0  0  0  0  0  0  0
    3.7320   -0.1340    0.0000 C   0  0  3  0  0  0  0  0  0  0  0  0
    2.8660   -0.6340    0.0000 C   0  0  0  0  0  0  0  0  0  0  0  0
    4.5981   -1.6340    0.0000 C   0  0  0  0  0  0  0  0  0  0  0  0
    3.7320    0.8660    0.0000 C   0  0  0  0  0  0  0  0  0  0  0  0
    7.1279   -1.1340    0.0000 C   0  0  0  0  0  0  0  0  0  0  0  0
    6.1279   -1.1340    0.0000 C   0  0  0  0  0  0  0  0  0  0  0  0
    7.6279   -2.0000    0.0000 C   0  0  0  0  0  0  0  0  0  0  0  0
    2.8660   -1.6340    0.0000 C   0  0  0  0  0  0  0  0  0  0  0  0
    8.6279   -2.0000    0.0000 C   0  0  0  0  0  0  0  0  0  0  0  0
    9.1279   -2.8660    0.0000 C   0  0  0  0  0  0  0  0  0  0  0  0
    2.8660    1.3660    0.0000 C   0  0  0  0  0  0  0  0  0  0  0  0
    4.5981    1.3660    0.0000 C   0  0  0  0  0  0  0  0  0  0  0  0
    2.8660    2.3660    0.0000 C   0  0  0  0  0  0  0  0  0  0  0  0
    4.5981    2.3660    0.0000 C   0  0  0  0  0  0  0  0  0  0  0  0
   10.1279   -2.8660    0.0000 C   0  0  0  0  0  0  0  0  0  0  0  0
    3.7320    2.8660    0.0000 C   0  0  0  0  0  0  0  0  0  0  0  0
    3.1951    0.1760    0.0000 H   0  0  0  0  0  0  0  0  0  0  0  0
    2.6540   -0.0514    0.0000 H   0  0  0  0  0  0  0  0  0  0  0  0
    2.2554   -0.7416    0.0000 H   0  0  0  0  0  0  0  0  0  0  0  0
    7.7105   -0.9219    0.0000 H   0  0  0  0  0  0  0  0  0  0  0  0
    7.0202   -0.5234    0.0000 H   0  0  0  0  0  0  0  0  0  0  0  0
    7.0453   -2.2120    0.0000 H   0  0  0  0  0  0  0  0  0  0  0  0
    7.7356   -2.6106    0.0000 H   0  0  0  0  0  0  0  0  0  0  0  0
    3.7320   -2.7540    0.0000 H   0  0  0  0  0  0  0  0  0  0  0  0
    9.2105   -1.7880    0.0000 H   0  0  0  0  0  0  0  0  0  0  0  0
    8.5202   -1.3894    0.0000 H   0  0  0  0  0  0  0  0  0  0  0  0
    8.5453   -3.0781    0.0000 H   0  0  0  0  0  0  0  0  0  0  0  0
    9.2356   -3.4766    0.0000 H   0  0  0  0  0  0  0  0  0  0  0  0
    2.3291    1.0560    0.0000 H   0  0  0  0  0  0  0  0  0  0  0  0
    5.1350    1.0560    0.0000 H   0  0  0  0  0  0  0  0  0  0  0  0
    2.3291    2.6760    0.0000 H   0  0  0  0  0  0  0  0  0  0  0  0
    5.1350    2.6760    0.0000 H   0  0  0  0  0  0  0  0  0  0  0  0
   10.1279   -3.4860    0.0000 H   0  0  0  0  0  0  0  0  0  0  0  0
   10.7479   -2.8660    0.0000 H   0  0  0  0  0  0  0  0  0  0  0  0
   10.1279   -2.2460    0.0000 H   0  0  0  0  0  0  0  0  0  0  0  0
    3.7320    3.4860    0.0000 H   0  0  0  0  0  0  0  0  0  0  0  0
  1 13  2  0  0  0  0
  2  4  1  0  0  0  0
  2  6  1  0  0  0  0
  2  8  1  0  0  0  0
  3  8  1  0  0  0  0
  3 13  1  0  0  0  0
  3 29  1  0  0  0  0
  4 11  2  0  0  0  0
  5  8  2  0  0  0  0
  5 11  1  0  0  0  0
  6  7  1  0  0  0  0
  6  9  1  0  0  0  0
  6 22  1  0  0  0  0
  7 13  1  0  0  0  0
  7 23  1  0  0  0  0
  7 24  1  0  0  0  0
  9 16  2  0  0  0  0
  9 17  1  0  0  0  0
 10 11  1  0  0  0  0
 10 12  1  0  0  0  0
 10 25  1  0  0  0  0
 10 26  1  0  0  0  0
 12 14  1  0  0  0  0
 12 27  1  0  0  0  0
 12 28  1  0  0  0  0
 14 15  1  0  0  0  0
 14 30  1  0  0  0  0
 14 31  1  0  0  0  0
 15 20  1  0  0  0  0
 15 32  1  0  0  0  0
 15 33  1  0  0  0  0
 16 18  1  0  0  0  0
 16 34  1  0  0  0  0
 17 19  2  0  0  0  0
 17 35  1  0  0  0  0
 18 21  2  0  0  0  0
 18 36  1  0  0  0  0
 19 21  1  0  0  0  0
 19 37  1  0  0  0  0
 20 38  1  0  0  0  0
 20 39  1  0  0  0  0
 20 40  1  0  0  0  0
 21 41  1  0  0  0  0
M  END
> <PUBCHEM_COMPOUND_CID>
502191
> <PUBCHEM_COMPOUND_CANONICALIZED>
1
> <PUBCHEM_CACTVS_COMPLEXITY>
356
> <PUBCHEM_CACTVS_HBOND_ACCEPTOR>
3
> <PUBCHEM_CACTVS_HBOND_DONOR>
1
> <PUBCHEM_CACTVS_ROTATABLE_BOND>
5
> <PUBCHEM_CACTVS_SUBSKEYS>
AAADceB7oAAAAAAAAAAAAAAAAAAAAWAAAAA8QAAAAAAAAFgBwAAAHgAYAAAADCjBmwQzEIbIEACqAiNyNACSgAsggKAdyAE4BIiIKDqA2RGEIAh4mQIIiAcYiICOAAAAAAAAAAAAAAAAAAAAAAAAAAAAAA==
> <PUBCHEM_IUPAC_OPENEYE_NAME>
2-pentyl-7-phenyl-6,7-dihydro-4H-[1,2,4]triazolo[1,5-a]pyrimidin-5-one
> <PUBCHEM_IUPAC_CAS_NAME>
2-pentyl-7-phenyl-6,7-dihydro-4H-[1,2,4]triazolo[1,5-a]pyrimidin-5-one
> <PUBCHEM_IUPAC_NAME_MARKUP>
2-pentyl-7-phenyl-6,7-dihydro-4<I>H</I>-[1,2,4]triazolo[1,5-a]pyrimidin-5-one
> <PUBCHEM_IUPAC_NAME>
2-pentyl-7-phenyl-6,7-dihydro-4H-[1,2,4]triazolo[1,5-a]pyrimidin-5-one
> <PUBCHEM_IUPAC_SYSTEMATIC_NAME>
2-pentyl-7-phenyl-6,7-dihydro-4H-[1,2,4]triazolo[1,5-a]pyrimidin-5-one
> <PUBCHEM_IUPAC_TRADITIONAL_NAME>
2-amyl-7-phenyl-6,7-dihydro-4H-[1,2,4]triazolo[1,5-a]pyrimidin-5-one
> <PUBCHEM_IUPAC_INCHI>
InChI=1S/C16H20N4O/c1-2-3-5-10-14-17-16-18-15(21)11-13(20(16)19-14)12-8-6-4-7-9-12/h4,6-9,13H,2-3,5,10-11H2,1H3,(H,17,18,19,21)
> <PUBCHEM_IUPAC_INCHIKEY>
WQFHCIHPELOVLT-UHFFFAOYSA-N
> <PUBCHEM_XLOGP3_AA>
3.1
> <PUBCHEM_EXACT_MASS>
284.16371127
> <PUBCHEM_MOLECULAR_FORMULA>
C16H20N4O
> <PUBCHEM_MOLECULAR_WEIGHT>
284.36
> <PUBCHEM_OPENEYE_CAN_SMILES>
CCCCCC1=NN2C(CC(=O)NC2=N1)C3=CC=CC=C3
> <PUBCHEM_OPENEYE_ISO_SMILES>
CCCCCC1=NN2C(CC(=O)NC2=N1)C3=CC=CC=C3
> <PUBCHEM_CACTVS_TPSA>
59.8
> <PUBCHEM_MONOISOTOPIC_WEIGHT>
284.16371127
> <PUBCHEM_TOTAL_CHARGE>
0
> <PUBCHEM_HEAVY_ATOM_COUNT>
21
> <PUBCHEM_ATOM_DEF_STEREO_COUNT>
0
> <PUBCHEM_ATOM_UDEF_STEREO_COUNT>
1
> <PUBCHEM_BOND_DEF_STEREO_COUNT>
0
> <PUBCHEM_BOND_UDEF_STEREO_COUNT>
0
> <PUBCHEM_ISOTOPIC_ATOM_COUNT>
0
> <PUBCHEM_COMPONENT_COUNT>
1
> <PUBCHEM_CACTVS_TAUTO_COUNT>
-1
> <PUBCHEM_COORDINATE_TYPE>
1
5
255
> <PUBCHEM_BONDANNOTATIONS>
16  18  8
17  19  8
18  21  8
19  21  8
2  4  8
2  8  8
4  11  8
5  11  8
5  8  8
6  9  3
9  16  8
9  17  8
$$$$
