502196
  -OEChem-10302200282D
 44 47  0     1  0  0  0  0  0999 V2000
    2.0000   -2.9400    0.0000 O   0  0  0  0  0  0  0  0  0  0  0  0
    2.8660    3.5600    0.0000 O   0  5  0  0  0  0  0  0  0  0  0  0
    4.5981    3.5600    0.0000 O   0  0  0  0  0  0  0  0  0  0  0  0
    4.5981   -1.4400    0.0000 N   0  0  0  0  0  0  0  0  0  0  0  0
    5.5443   -1.1353    0.0000 N   0  0  0  0  0  0  0  0  0  0  0  0
    5.5443   -2.7447    0.0000 N   0  0  0  0  0  0  0  0  0  0  0  0
    3.7320   -2.9400    0.0000 N   0  0  0  0  0  0  0  0  0  0  0  0
    3.7320    3.0600    0.0000 N   0  3  0  0  0  0  0  0  0  0  0  0
    7.1279   -1.9400    0.0000 C   0  0  0  0  0  0  0  0  0  0  0  0
    7.6279   -2.8060    0.0000 C   0  0  0  0  0  0  0  0  0  0  0  0
    7.6279   -1.0740    0.0000 C   0  0  0  0  0  0  0  0  0  0  0  0
    8.6279   -2.8060    0.0000 C   0  0  0  0  0  0  0  0  0  0  0  0
    8.6279   -1.0740    0.0000 C   0  0  0  0  0  0  0  0  0  0  0  0
    9.1279   -1.9400    0.0000 C   0  0  0  0  0  0  0  0  0  0  0  0
    6.1279   -1.9400    0.0000 C   0  0  0  0  0  0  0  0  0  0  0  0
    3.7320   -0.9400    0.0000 C   0  0  3  0  0  0  0  0  0  0  0  0
    4.5981   -2.4400    0.0000 C   0  0  0  0  0  0  0  0  0  0  0  0
    2.8660   -1.4400    0.0000 C   0  0  0  0  0  0  0  0  0  0  0  0
    3.7320    0.0600    0.0000 C   0  0  0  0  0  0  0  0  0  0  0  0
    2.8660   -2.4400    0.0000 C   0  0  0  0  0  0  0  0  0  0  0  0
    2.8660    0.5600    0.0000 C   0  0  0  0  0  0  0  0  0  0  0  0
    4.5981    0.5600    0.0000 C   0  0  0  0  0  0  0  0  0  0  0  0
    2.8660    1.5600    0.0000 C   0  0  0  0  0  0  0  0  0  0  0  0
    4.5981    1.5600    0.0000 C   0  0  0  0  0  0  0  0  0  0  0  0
    3.7320    2.0600    0.0000 C   0  0  0  0  0  0  0  0  0  0  0  0
    6.8179   -1.4031    0.0000 H   0  0  0  0  0  0  0  0  0  0  0  0
    7.0453   -3.0181    0.0000 H   0  0  0  0  0  0  0  0  0  0  0  0
    7.7356   -3.4166    0.0000 H   0  0  0  0  0  0  0  0  0  0  0  0
    7.7356   -0.4634    0.0000 H   0  0  0  0  0  0  0  0  0  0  0  0
    7.0453   -0.8619    0.0000 H   0  0  0  0  0  0  0  0  0  0  0  0
    8.5202   -3.4166    0.0000 H   0  0  0  0  0  0  0  0  0  0  0  0
    9.2105   -3.0181    0.0000 H   0  0  0  0  0  0  0  0  0  0  0  0
    9.2105   -0.8619    0.0000 H   0  0  0  0  0  0  0  0  0  0  0  0
    8.5202   -0.4634    0.0000 H   0  0  0  0  0  0  0  0  0  0  0  0
    9.6028   -2.3385    0.0000 H   0  0  0  0  0  0  0  0  0  0  0  0
    9.6028   -1.5415    0.0000 H   0  0  0  0  0  0  0  0  0  0  0  0
    3.1951   -0.6300    0.0000 H   0  0  0  0  0  0  0  0  0  0  0  0
    2.6540   -0.8574    0.0000 H   0  0  0  0  0  0  0  0  0  0  0  0
    2.2554   -1.5477    0.0000 H   0  0  0  0  0  0  0  0  0  0  0  0
    3.7320   -3.5600    0.0000 H   0  0  0  0  0  0  0  0  0  0  0  0
    2.3291    0.2500    0.0000 H   0  0  0  0  0  0  0  0  0  0  0  0
    5.1350    0.2500    0.0000 H   0  0  0  0  0  0  0  0  0  0  0  0
    2.3291    1.8700    0.0000 H   0  0  0  0  0  0  0  0  0  0  0  0
    5.1350    1.8700    0.0000 H   0  0  0  0  0  0  0  0  0  0  0  0
  1 20  2  0  0  0  0
  2  8  1  0  0  0  0
  3  8  2  0  0  0  0
  4  5  1  0  0  0  0
  4 16  1  0  0  0  0
  4 17  1  0  0  0  0
  5 15  2  0  0  0  0
  6 15  1  0  0  0  0
  6 17  2  0  0  0  0
  7 17  1  0  0  0  0
  7 20  1  0  0  0  0
  7 40  1  0  0  0  0
  8 25  1  0  0  0  0
  9 10  1  0  0  0  0
  9 11  1  0  0  0  0
  9 15  1  0  0  0  0
  9 26  1  0  0  0  0
 10 12  1  0  0  0  0
 10 27  1  0  0  0  0
 10 28  1  0  0  0  0
 11 13  1  0  0  0  0
 11 29  1  0  0  0  0
 11 30  1  0  0  0  0
 12 14  1  0  0  0  0
 12 31  1  0  0  0  0
 12 32  1  0  0  0  0
 13 14  1  0  0  0  0
 13 33  1  0  0  0  0
 13 34  1  0  0  0  0
 14 35  1  0  0  0  0
 14 36  1  0  0  0  0
 16 18  1  0  0  0  0
 16 19  1  0  0  0  0
 16 37  1  0  0  0  0
 18 20  1  0  0  0  0
 18 38  1  0  0  0  0
 18 39  1  0  0  0  0
 19 21  2  0  0  0  0
 19 22  1  0  0  0  0
 21 23  1  0  0  0  0
 21 41  1  0  0  0  0
 22 24  2  0  0  0  0
 22 42  1  0  0  0  0
 23 25  2  0  0  0  0
 23 43  1  0  0  0  0
 24 25  1  0  0  0  0
 24 44  1  0  0  0  0
M  CHG  2   2  -1   8   1
M  END
> <PUBCHEM_COMPOUND_CID>
502196
> <PUBCHEM_COMPOUND_CANONICALIZED>
1
> <PUBCHEM_CACTVS_COMPLEXITY>
511
> <PUBCHEM_CACTVS_HBOND_ACCEPTOR>
5
> <PUBCHEM_CACTVS_HBOND_DONOR>
1
> <PUBCHEM_CACTVS_ROTATABLE_BOND>
2
> <PUBCHEM_CACTVS_SUBSKEYS>
AAADceB7sAAAAAAAAAAAAAAAAAAAAWAAAAA8YIAAAAAAAFgBwAAAHgAcAAAADSjBmwQx0IbYUACrAidydwCSgAsggqA9yAE4ZIqIKDqA2ZGEIAh4mQIIyAcYiICOCAAAAAAAAAAQAAAAAAAAAAAAAAAAAA==
> <PUBCHEM_IUPAC_OPENEYE_NAME>
2-cyclohexyl-7-(4-nitrophenyl)-6,7-dihydro-4H-[1,2,4]triazolo[1,5-a]pyrimidin-5-one
> <PUBCHEM_IUPAC_CAS_NAME>
2-cyclohexyl-7-(4-nitrophenyl)-6,7-dihydro-4H-[1,2,4]triazolo[1,5-a]pyrimidin-5-one
> <PUBCHEM_IUPAC_NAME_MARKUP>
2-cyclohexyl-7-(4-nitrophenyl)-6,7-dihydro-4<I>H</I>-[1,2,4]triazolo[1,5-a]pyrimidin-5-one
> <PUBCHEM_IUPAC_NAME>
2-cyclohexyl-7-(4-nitrophenyl)-6,7-dihydro-4H-[1,2,4]triazolo[1,5-a]pyrimidin-5-one
> <PUBCHEM_IUPAC_SYSTEMATIC_NAME>
2-cyclohexyl-7-(4-nitrophenyl)-6,7-dihydro-4H-[1,2,4]triazolo[1,5-a]pyrimidin-5-one
> <PUBCHEM_IUPAC_TRADITIONAL_NAME>
2-cyclohexyl-7-(4-nitrophenyl)-6,7-dihydro-4H-[1,2,4]triazolo[1,5-a]pyrimidin-5-one
> <PUBCHEM_IUPAC_INCHI>
InChI=1S/C17H19N5O3/c23-15-10-14(11-6-8-13(9-7-11)22(24)25)21-17(18-15)19-16(20-21)12-4-2-1-3-5-12/h6-9,12,14H,1-5,10H2,(H,18,19,20,23)
> <PUBCHEM_IUPAC_INCHIKEY>
YLUHIJIJOFCTGR-UHFFFAOYSA-N
> <PUBCHEM_XLOGP3_AA>
2.9
> <PUBCHEM_EXACT_MASS>
341.14878949
> <PUBCHEM_MOLECULAR_FORMULA>
C17H19N5O3
> <PUBCHEM_MOLECULAR_WEIGHT>
341.4
> <PUBCHEM_OPENEYE_CAN_SMILES>
C1CCC(CC1)C2=NN3C(CC(=O)NC3=N2)C4=CC=C(C=C4)[N+](=O)[O-]
> <PUBCHEM_OPENEYE_ISO_SMILES>
C1CCC(CC1)C2=NN3C(CC(=O)NC3=N2)C4=CC=C(C=C4)[N+](=O)[O-]
> <PUBCHEM_CACTVS_TPSA>
106
> <PUBCHEM_MONOISOTOPIC_WEIGHT>
341.14878949
> <PUBCHEM_TOTAL_CHARGE>
0
> <PUBCHEM_HEAVY_ATOM_COUNT>
25
> <PUBCHEM_ATOM_DEF_STEREO_COUNT>
0
> <PUBCHEM_ATOM_UDEF_STEREO_COUNT>
1
> <PUBCHEM_BOND_DEF_STEREO_COUNT>
0
> <PUBCHEM_BOND_UDEF_STEREO_COUNT>
0
> <PUBCHEM_ISOTOPIC_ATOM_COUNT>
0
> <PUBCHEM_COMPONENT_COUNT>
1
> <PUBCHEM_CACTVS_TAUTO_COUNT>
-1
> <PUBCHEM_COORDINATE_TYPE>
1
5
255
> <PUBCHEM_BONDANNOTATIONS>
16  19  3
19  21  8
19  22  8
21  23  8
22  24  8
23  25  8
24  25  8
4  17  8
4  5  8
5  15  8
6  15  8
6  17  8
$$$$
