502188
  -OEChem-10302200282D
 35 37  0     1  0  0  0  0  0999 V2000
    2.0000   -2.1900    0.0000 O   0  0  0  0  0  0  0  0  0  0  0  0
    4.5981   -0.6900    0.0000 N   0  0  0  0  0  0  0  0  0  0  0  0
    3.7320   -2.1900    0.0000 N   0  0  0  0  0  0  0  0  0  0  0  0
    5.5443   -0.3853    0.0000 N   0  0  0  0  0  0  0  0  0  0  0  0
    5.5443   -1.9947    0.0000 N   0  0  0  0  0  0  0  0  0  0  0  0
    3.7320   -0.1900    0.0000 C   0  0  3  0  0  0  0  0  0  0  0  0
    2.8660   -0.6900    0.0000 C   0  0  0  0  0  0  0  0  0  0  0  0
    3.7320    0.8100    0.0000 C   0  0  0  0  0  0  0  0  0  0  0  0
    4.5981   -1.6900    0.0000 C   0  0  0  0  0  0  0  0  0  0  0  0
    2.8660   -1.6900    0.0000 C   0  0  0  0  0  0  0  0  0  0  0  0
    6.1279   -1.1900    0.0000 C   0  0  0  0  0  0  0  0  0  0  0  0
    7.1279   -1.1900    0.0000 C   0  0  0  0  0  0  0  0  0  0  0  0
    2.8660    1.3100    0.0000 C   0  0  0  0  0  0  0  0  0  0  0  0
    4.5981    1.3100    0.0000 C   0  0  0  0  0  0  0  0  0  0  0  0
    7.6279   -2.0560    0.0000 C   0  0  0  0  0  0  0  0  0  0  0  0
    2.8660    2.3100    0.0000 C   0  0  0  0  0  0  0  0  0  0  0  0
    4.5981    2.3100    0.0000 C   0  0  0  0  0  0  0  0  0  0  0  0
    8.6279   -2.0560    0.0000 C   0  0  0  0  0  0  0  0  0  0  0  0
    3.7320    2.8100    0.0000 C   0  0  0  0  0  0  0  0  0  0  0  0
    3.1951    0.1200    0.0000 H   0  0  0  0  0  0  0  0  0  0  0  0
    2.6540   -0.1074    0.0000 H   0  0  0  0  0  0  0  0  0  0  0  0
    2.2554   -0.7977    0.0000 H   0  0  0  0  0  0  0  0  0  0  0  0
    3.7320   -2.8100    0.0000 H   0  0  0  0  0  0  0  0  0  0  0  0
    7.7105   -0.9779    0.0000 H   0  0  0  0  0  0  0  0  0  0  0  0
    7.0202   -0.5794    0.0000 H   0  0  0  0  0  0  0  0  0  0  0  0
    2.3291    1.0000    0.0000 H   0  0  0  0  0  0  0  0  0  0  0  0
    5.1350    1.0000    0.0000 H   0  0  0  0  0  0  0  0  0  0  0  0
    7.0453   -2.2681    0.0000 H   0  0  0  0  0  0  0  0  0  0  0  0
    7.7356   -2.6666    0.0000 H   0  0  0  0  0  0  0  0  0  0  0  0
    2.3291    2.6200    0.0000 H   0  0  0  0  0  0  0  0  0  0  0  0
    5.1350    2.6200    0.0000 H   0  0  0  0  0  0  0  0  0  0  0  0
    8.6279   -2.6760    0.0000 H   0  0  0  0  0  0  0  0  0  0  0  0
    9.2479   -2.0560    0.0000 H   0  0  0  0  0  0  0  0  0  0  0  0
    8.6279   -1.4360    0.0000 H   0  0  0  0  0  0  0  0  0  0  0  0
    3.7320    3.4300    0.0000 H   0  0  0  0  0  0  0  0  0  0  0  0
  1 10  2  0  0  0  0
  2  4  1  0  0  0  0
  2  6  1  0  0  0  0
  2  9  1  0  0  0  0
  3  9  1  0  0  0  0
  3 10  1  0  0  0  0
  3 23  1  0  0  0  0
  4 11  2  0  0  0  0
  5  9  2  0  0  0  0
  5 11  1  0  0  0  0
  6  7  1  0  0  0  0
  6  8  1  0  0  0  0
  6 20  1  0  0  0  0
  7 10  1  0  0  0  0
  7 21  1  0  0  0  0
  7 22  1  0  0  0  0
  8 13  2  0  0  0  0
  8 14  1  0  0  0  0
 11 12  1  0  0  0  0
 12 15  1  0  0  0  0
 12 24  1  0  0  0  0
 12 25  1  0  0  0  0
 13 16  1  0  0  0  0
 13 26  1  0  0  0  0
 14 17  2  0  0  0  0
 14 27  1  0  0  0  0
 15 18  1  0  0  0  0
 15 28  1  0  0  0  0
 15 29  1  0  0  0  0
 16 19  2  0  0  0  0
 16 30  1  0  0  0  0
 17 19  1  0  0  0  0
 17 31  1  0  0  0  0
 18 32  1  0  0  0  0
 18 33  1  0  0  0  0
 18 34  1  0  0  0  0
 19 35  1  0  0  0  0
M  END
> <PUBCHEM_COMPOUND_CID>
502188
> <PUBCHEM_COMPOUND_CANONICALIZED>
1
> <PUBCHEM_CACTVS_COMPLEXITY>
329
> <PUBCHEM_CACTVS_HBOND_ACCEPTOR>
3
> <PUBCHEM_CACTVS_HBOND_DONOR>
1
> <PUBCHEM_CACTVS_ROTATABLE_BOND>
3
> <PUBCHEM_CACTVS_SUBSKEYS>
AAADceBzoAAAAAAAAAAAAAAAAAAAAWAAAAA8QAAAAAAAAFgBwAAAHgAYAAAADCjBmwQzEIbIEACqAiNyNACSgAsggKAdyAE4BIiIKDqA2RGEIAh4mQIIiAcYiICOAAAAAAAAAAAAAAAAAAAAAAAAAAAAAA==
> <PUBCHEM_IUPAC_OPENEYE_NAME>
7-phenyl-2-propyl-6,7-dihydro-4H-[1,2,4]triazolo[1,5-a]pyrimidin-5-one
> <PUBCHEM_IUPAC_CAS_NAME>
7-phenyl-2-propyl-6,7-dihydro-4H-[1,2,4]triazolo[1,5-a]pyrimidin-5-one
> <PUBCHEM_IUPAC_NAME_MARKUP>
7-phenyl-2-propyl-6,7-dihydro-4<I>H</I>-[1,2,4]triazolo[1,5-a]pyrimidin-5-one
> <PUBCHEM_IUPAC_NAME>
7-phenyl-2-propyl-6,7-dihydro-4H-[1,2,4]triazolo[1,5-a]pyrimidin-5-one
> <PUBCHEM_IUPAC_SYSTEMATIC_NAME>
7-phenyl-2-propyl-6,7-dihydro-4H-[1,2,4]triazolo[1,5-a]pyrimidin-5-one
> <PUBCHEM_IUPAC_TRADITIONAL_NAME>
7-phenyl-2-propyl-6,7-dihydro-4H-[1,2,4]triazolo[1,5-a]pyrimidin-5-one
> <PUBCHEM_IUPAC_INCHI>
InChI=1S/C14H16N4O/c1-2-6-12-15-14-16-13(19)9-11(18(14)17-12)10-7-4-3-5-8-10/h3-5,7-8,11H,2,6,9H2,1H3,(H,15,16,17,19)
> <PUBCHEM_IUPAC_INCHIKEY>
XYJMDOGPTGPOOD-UHFFFAOYSA-N
> <PUBCHEM_XLOGP3_AA>
2
> <PUBCHEM_EXACT_MASS>
256.13241115
> <PUBCHEM_MOLECULAR_FORMULA>
C14H16N4O
> <PUBCHEM_MOLECULAR_WEIGHT>
256.30
> <PUBCHEM_OPENEYE_CAN_SMILES>
CCCC1=NN2C(CC(=O)NC2=N1)C3=CC=CC=C3
> <PUBCHEM_OPENEYE_ISO_SMILES>
CCCC1=NN2C(CC(=O)NC2=N1)C3=CC=CC=C3
> <PUBCHEM_CACTVS_TPSA>
59.8
> <PUBCHEM_MONOISOTOPIC_WEIGHT>
256.13241115
> <PUBCHEM_TOTAL_CHARGE>
0
> <PUBCHEM_HEAVY_ATOM_COUNT>
19
> <PUBCHEM_ATOM_DEF_STEREO_COUNT>
0
> <PUBCHEM_ATOM_UDEF_STEREO_COUNT>
1
> <PUBCHEM_BOND_DEF_STEREO_COUNT>
0
> <PUBCHEM_BOND_UDEF_STEREO_COUNT>
0
> <PUBCHEM_ISOTOPIC_ATOM_COUNT>
0
> <PUBCHEM_COMPONENT_COUNT>
1
> <PUBCHEM_CACTVS_TAUTO_COUNT>
-1
> <PUBCHEM_COORDINATE_TYPE>
1
5
255
> <PUBCHEM_BONDANNOTATIONS>
13  16  8
14  17  8
16  19  8
17  19  8
2  4  8
2  9  8
4  11  8
5  11  8
5  9  8
6  8  3
8  13  8
8  14  8
$$$$
