502154
  -OEChem-10302200282D
197199  0     1  0  0  0  0  0999 V2000
    8.7331   -2.1900    0.0000 S   0  0  0  0  0  0  0  0  0  0  0  0
    9.2017   -9.1900    0.0000 S   0  0  0  0  0  0  0  0  0  0  0  0
   11.4651    1.3100    0.0000 S   0  0  0  0  0  0  0  0  0  0  0  0
   19.1299    8.3100    0.0000 S   0  0  0  0  0  0  0  0  0  0  0  0
   11.9337    9.3100    0.0000 S   0  0  0  0  0  0  0  0  0  0  0  0
    9.2017    4.8100    0.0000 S   0  0  0  0  0  0  0  0  0  0  0  0
    6.4696   -8.6900    0.0000 O   0  0  0  0  0  0  0  0  0  0  0  0
    6.0010   -1.6900    0.0000 O   0  0  0  0  0  0  0  0  0  0  0  0
    9.2017   -6.1900    0.0000 O   0  0  0  0  0  0  0  0  0  0  0  0
    8.7331    0.8100    0.0000 O   0  0  0  0  0  0  0  0  0  0  0  0
   14.1972    0.8100    0.0000 O   0  0  0  0  0  0  0  0  0  0  0  0
   16.9292   -1.6900    0.0000 O   0  0  0  0  0  0  0  0  0  0  0  0
   11.4651   -1.6900    0.0000 O   0  0  0  0  0  0  0  0  0  0  0  0
   14.6658    7.8100    0.0000 O   0  0  0  0  0  0  0  0  0  0  0  0
   17.3978    5.3100    0.0000 O   0  0  0  0  0  0  0  0  0  0  0  0
   11.9337    5.3100    0.0000 O   0  0  0  0  0  0  0  0  0  0  0  0
   15.5318    3.3100    0.0000 O   0  0  0  0  0  0  0  0  0  0  0  0
   11.7998   -8.6900    0.0000 O   0  0  0  0  0  0  0  0  0  0  0  0
    9.2017    7.8100    0.0000 O   0  0  0  0  0  0  0  0  0  0  0  0
   16.7953   -3.6900    0.0000 O   0  0  0  0  0  0  0  0  0  0  0  0
    5.6036    6.8100    0.0000 O   0  0  0  0  0  0  0  0  0  0  0  0
    6.4696    5.3100    0.0000 O   0  0  0  0  0  0  0  0  0  0  0  0
    4.2690   -0.6900    0.0000 N   0  0  0  0  0  0  0  0  0  0  0  0
    8.2017   -7.6900    0.0000 N   0  0  0  0  0  0  0  0  0  0  0  0
    7.0010   -0.1900    0.0000 N   0  0  0  0  0  0  0  0  0  0  0  0
    9.7331   -0.6900    0.0000 N   0  0  0  0  0  0  0  0  0  0  0  0
   15.1972   -0.6900    0.0000 N   0  0  0  0  0  0  0  0  0  0  0  0
   12.4651   -0.1900    0.0000 N   0  0  0  0  0  0  0  0  0  0  0  0
   16.3978    6.8100    0.0000 N   0  0  0  0  0  0  0  0  0  0  0  0
   13.6658    6.3100    0.0000 N   0  0  0  0  0  0  0  0  0  0  0  0
   19.1299    6.3100    0.0000 N   0  0  0  0  0  0  0  0  0  0  0  0
    2.5369    2.3100    0.0000 N   0  0  0  0  0  0  0  0  0  0  0  0
   10.9337   -7.1900    0.0000 N   0  0  0  0  0  0  0  0  0  0  0  0
    3.8716   -6.1900    0.0000 N   0  0  0  0  0  0  0  0  0  0  0  0
   10.9337    6.8100    0.0000 N   0  0  0  0  0  0  0  0  0  0  0  0
   17.0338    2.3045    0.0000 N   0  0  0  0  0  0  0  0  0  0  0  0
    8.2017    6.3100    0.0000 N   0  0  0  0  0  0  0  0  0  0  0  0
   18.5119    1.6464    0.0000 N   0  0  0  0  0  0  0  0  0  0  0  0
   13.7998    3.3100    0.0000 N   0  0  0  0  0  0  0  0  0  0  0  0
    5.1350   -0.1900    0.0000 C   0  0  1  0  0  0  0  0  0  0  0  0
    7.3357   -7.1900    0.0000 C   0  0  1  0  0  0  0  0  0  0  0  0
    5.1350    0.8100    0.0000 C   0  0  0  0  0  0  0  0  0  0  0  0
    7.3356   -6.1900    0.0000 C   0  0  0  0  0  0  0  0  0  0  0  0
    4.2690    1.3100    0.0000 C   0  0  0  0  0  0  0  0  0  0  0  0
    6.4696   -5.6900    0.0000 C   0  0  0  0  0  0  0  0  0  0  0  0
    6.4696   -7.6900    0.0000 C   0  0  0  0  0  0  0  0  0  0  0  0
    6.0010   -0.6900    0.0000 C   0  0  0  0  0  0  0  0  0  0  0  0
    4.2690    2.3100    0.0000 C   0  0  0  0  0  0  0  0  0  0  0  0
    5.6036   -6.1900    0.0000 C   0  0  0  0  0  0  0  0  0  0  0  0
    7.8671   -0.6900    0.0000 C   0  0  2  0  0  0  0  0  0  0  0  0
    3.4030    2.8100    0.0000 C   0  0  0  0  0  0  0  0  0  0  0  0
    4.7376   -5.6900    0.0000 C   0  0  0  0  0  0  0  0  0  0  0  0
    9.2017   -7.1900    0.0000 C   0  0  0  0  0  0  0  0  0  0  0  0
   13.3312   -0.6900    0.0000 C   0  0  1  0  0  0  0  0  0  0  0  0
   16.0632   -0.1900    0.0000 C   0  0  1  0  0  0  0  0  0  0  0  0
   15.5318    6.3100    0.0000 C   0  0  1  0  0  0  0  0  0  0  0  0
   10.0677   -7.6900    0.0000 C   0  0  2  0  0  0  0  0  0  0  0  0
   10.5991   -0.1900    0.0000 C   0  0  2  0  0  0  0  0  0  0  0  0
    8.7331   -0.1900    0.0000 C   0  0  0  0  0  0  0  0  0  0  0  0
    7.8671   -1.6900    0.0000 C   0  0  0  0  0  0  0  0  0  0  0  0
   13.3312   -1.6900    0.0000 C   0  0  0  0  0  0  0  0  0  0  0  0
   12.7998    6.8100    0.0000 C   0  0  1  0  0  0  0  0  0  0  0  0
   15.5318    5.3100    0.0000 C   0  0  0  0  0  0  0  0  0  0  0  0
   18.2639    6.8100    0.0000 C   0  0  2  0  0  0  0  0  0  0  0  0
   16.0632    0.8100    0.0000 C   0  0  0  0  0  0  0  0  0  0  0  0
   14.1972   -0.1900    0.0000 C   0  0  0  0  0  0  0  0  0  0  0  0
   16.9292   -0.6900    0.0000 C   0  0  0  0  0  0  0  0  0  0  0  0
   11.4651   -0.6900    0.0000 C   0  0  0  0  0  0  0  0  0  0  0  0
   14.6658    6.8100    0.0000 C   0  0  0  0  0  0  0  0  0  0  0  0
   12.7998    7.8100    0.0000 C   0  0  0  0  0  0  0  0  0  0  0  0
   17.3978    6.3100    0.0000 C   0  0  0  0  0  0  0  0  0  0  0  0
   10.0677   -8.6900    0.0000 C   0  0  0  0  0  0  0  0  0  0  0  0
   10.5991    0.8100    0.0000 C   0  0  0  0  0  0  0  0  0  0  0  0
   14.6658    4.8100    0.0000 C   0  0  0  0  0  0  0  0  0  0  0  0
   14.1972   -2.1900    0.0000 C   0  0  0  0  0  0  0  0  0  0  0  0
   16.9292    1.3100    0.0000 C   0  0  0  0  0  0  0  0  0  0  0  0
   11.9337    6.3100    0.0000 C   0  0  0  0  0  0  0  0  0  0  0  0
   18.2639    7.8100    0.0000 C   0  0  0  0  0  0  0  0  0  0  0  0
   10.0677    6.3100    0.0000 C   0  0  2  0  0  0  0  0  0  0  0  0
   11.9337    8.3100    0.0000 C   0  0  0  0  0  0  0  0  0  0  0  0
   15.0632   -1.6900    0.0000 C   0  0  0  0  0  0  0  0  0  0  0  0
   14.1972   -3.1900    0.0000 C   0  0  0  0  0  0  0  0  0  0  0  0
   14.6658    3.8100    0.0000 C   0  0  0  0  0  0  0  0  0  0  0  0
   17.8428    0.9033    0.0000 C   0  0  0  0  0  0  0  0  0  0  0  0
   11.7998   -7.6900    0.0000 C   0  0  0  0  0  0  0  0  0  0  0  0
    9.2017    6.8100    0.0000 C   0  0  0  0  0  0  0  0  0  0  0  0
   10.0677    5.3100    0.0000 C   0  0  0  0  0  0  0  0  0  0  0  0
    7.3357    6.8100    0.0000 C   0  0  1  0  0  0  0  0  0  0  0  0
   15.9292   -2.1900    0.0000 C   0  0  0  0  0  0  0  0  0  0  0  0
   15.0632   -3.6900    0.0000 C   0  0  0  0  0  0  0  0  0  0  0  0
   18.0119    2.5124    0.0000 C   0  0  0  0  0  0  0  0  0  0  0  0
    7.3356    7.8100    0.0000 C   0  0  0  0  0  0  0  0  0  0  0  0
   15.9292   -3.1900    0.0000 C   0  0  0  0  0  0  0  0  0  0  0  0
   12.6658   -7.1900    0.0000 C   0  0  0  0  0  0  0  0  0  0  0  0
    6.4696    8.3100    0.0000 C   0  0  0  0  0  0  0  0  0  0  0  0
    6.4696    6.3100    0.0000 C   0  0  0  0  0  0  0  0  0  0  0  0
   11.0677    9.8100    0.0000 C   0  0  0  0  0  0  0  0  0  0  0  0
    5.6036    7.8100    0.0000 C   0  0  0  0  0  0  0  0  0  0  0  0
    6.4696    9.3100    0.0000 C   0  0  0  0  0  0  0  0  0  0  0  0
    4.7376    8.3100    0.0000 C   0  0  0  0  0  0  0  0  0  0  0  0
    5.6036    9.8100    0.0000 C   0  0  0  0  0  0  0  0  0  0  0  0
    4.7376    9.3100    0.0000 C   0  0  0  0  0  0  0  0  0  0  0  0
    4.5981    0.1200    0.0000 H   0  0  0  0  0  0  0  0  0  0  0  0
    7.8726   -6.8800    0.0000 H   0  0  0  0  0  0  0  0  0  0  0  0
    5.7456    0.7023    0.0000 H   0  0  0  0  0  0  0  0  0  0  0  0
    5.3471    1.3926    0.0000 H   0  0  0  0  0  0  0  0  0  0  0  0
    7.9462   -6.2977    0.0000 H   0  0  0  0  0  0  0  0  0  0  0  0
    7.5477   -5.6074    0.0000 H   0  0  0  0  0  0  0  0  0  0  0  0
    3.6584    1.4177    0.0000 H   0  0  0  0  0  0  0  0  0  0  0  0
    4.0569    0.7274    0.0000 H   0  0  0  0  0  0  0  0  0  0  0  0
    6.8682   -5.2150    0.0000 H   0  0  0  0  0  0  0  0  0  0  0  0
    6.0711   -5.2150    0.0000 H   0  0  0  0  0  0  0  0  0  0  0  0
    4.8059   -1.0000    0.0000 H   0  0  0  0  0  0  0  0  0  0  0  0
    4.8796    2.2023    0.0000 H   0  0  0  0  0  0  0  0  0  0  0  0
    4.4810    2.8926    0.0000 H   0  0  0  0  0  0  0  0  0  0  0  0
    5.2051   -6.6650    0.0000 H   0  0  0  0  0  0  0  0  0  0  0  0
    6.0021   -6.6650    0.0000 H   0  0  0  0  0  0  0  0  0  0  0  0
    8.7386   -8.0000    0.0000 H   0  0  0  0  0  0  0  0  0  0  0  0
    7.8671   -0.0700    0.0000 H   0  0  0  0  0  0  0  0  0  0  0  0
    7.5380    0.1200    0.0000 H   0  0  0  0  0  0  0  0  0  0  0  0
    3.8015    3.2850    0.0000 H   0  0  0  0  0  0  0  0  0  0  0  0
    3.0044    3.2850    0.0000 H   0  0  0  0  0  0  0  0  0  0  0  0
    5.1361   -5.2150    0.0000 H   0  0  0  0  0  0  0  0  0  0  0  0
    4.3390   -5.2150    0.0000 H   0  0  0  0  0  0  0  0  0  0  0  0
   12.7942   -1.0000    0.0000 H   0  0  0  0  0  0  0  0  0  0  0  0
   15.5263    0.1200    0.0000 H   0  0  0  0  0  0  0  0  0  0  0  0
   16.0687    6.0000    0.0000 H   0  0  0  0  0  0  0  0  0  0  0  0
   10.6046   -8.0000    0.0000 H   0  0  0  0  0  0  0  0  0  0  0  0
   10.0622    0.1200    0.0000 H   0  0  0  0  0  0  0  0  0  0  0  0
    7.2565   -1.5823    0.0000 H   0  0  0  0  0  0  0  0  0  0  0  0
    7.6550   -2.2726    0.0000 H   0  0  0  0  0  0  0  0  0  0  0  0
   12.7206   -1.5823    0.0000 H   0  0  0  0  0  0  0  0  0  0  0  0
   13.1191   -2.2726    0.0000 H   0  0  0  0  0  0  0  0  0  0  0  0
   13.3367    7.1200    0.0000 H   0  0  0  0  0  0  0  0  0  0  0  0
   15.7439    4.7274    0.0000 H   0  0  0  0  0  0  0  0  0  0  0  0
   16.1424    5.4177    0.0000 H   0  0  0  0  0  0  0  0  0  0  0  0
   18.8008    7.1200    0.0000 H   0  0  0  0  0  0  0  0  0  0  0  0
   15.8512    1.3926    0.0000 H   0  0  0  0  0  0  0  0  0  0  0  0
   15.4526    0.7023    0.0000 H   0  0  0  0  0  0  0  0  0  0  0  0
   10.2700   -1.0000    0.0000 H   0  0  0  0  0  0  0  0  0  0  0  0
   15.7341   -1.0000    0.0000 H   0  0  0  0  0  0  0  0  0  0  0  0
   13.0021    0.1200    0.0000 H   0  0  0  0  0  0  0  0  0  0  0  0
   16.9348    7.1200    0.0000 H   0  0  0  0  0  0  0  0  0  0  0  0
   13.4103    7.7023    0.0000 H   0  0  0  0  0  0  0  0  0  0  0  0
   13.0118    8.3926    0.0000 H   0  0  0  0  0  0  0  0  0  0  0  0
   14.2027    6.0000    0.0000 H   0  0  0  0  0  0  0  0  0  0  0  0
   19.6668    6.0000    0.0000 H   0  0  0  0  0  0  0  0  0  0  0  0
   10.2798   -9.2726    0.0000 H   0  0  0  0  0  0  0  0  0  0  0  0
   10.6783   -8.5823    0.0000 H   0  0  0  0  0  0  0  0  0  0  0  0
   10.3871    1.3926    0.0000 H   0  0  0  0  0  0  0  0  0  0  0  0
    9.9885    0.7023    0.0000 H   0  0  0  0  0  0  0  0  0  0  0  0
   14.4537    5.3926    0.0000 H   0  0  0  0  0  0  0  0  0  0  0  0
   14.0552    4.7023    0.0000 H   0  0  0  0  0  0  0  0  0  0  0  0
    2.0000    2.6200    0.0000 H   0  0  0  0  0  0  0  0  0  0  0  0
    2.5369    1.6900    0.0000 H   0  0  0  0  0  0  0  0  0  0  0  0
   10.9337   -6.5700    0.0000 H   0  0  0  0  0  0  0  0  0  0  0  0
   18.0518    8.3926    0.0000 H   0  0  0  0  0  0  0  0  0  0  0  0
   17.6533    7.7023    0.0000 H   0  0  0  0  0  0  0  0  0  0  0  0
    3.3346   -5.8800    0.0000 H   0  0  0  0  0  0  0  0  0  0  0  0
    3.8716   -6.8100    0.0000 H   0  0  0  0  0  0  0  0  0  0  0  0
   10.6046    6.0000    0.0000 H   0  0  0  0  0  0  0  0  0  0  0  0
   11.3231    8.4177    0.0000 H   0  0  0  0  0  0  0  0  0  0  0  0
   11.7217    7.7274    0.0000 H   0  0  0  0  0  0  0  0  0  0  0  0
   11.4707    7.1200    0.0000 H   0  0  0  0  0  0  0  0  0  0  0  0
    8.7331   -2.8100    0.0000 H   0  0  0  0  0  0  0  0  0  0  0  0
   15.0632   -1.0700    0.0000 H   0  0  0  0  0  0  0  0  0  0  0  0
   13.6603   -3.5000    0.0000 H   0  0  0  0  0  0  0  0  0  0  0  0
   16.5730    2.7194    0.0000 H   0  0  0  0  0  0  0  0  0  0  0  0
   17.9717    0.2968    0.0000 H   0  0  0  0  0  0  0  0  0  0  0  0
   10.2798    4.7274    0.0000 H   0  0  0  0  0  0  0  0  0  0  0  0
   10.6783    5.4177    0.0000 H   0  0  0  0  0  0  0  0  0  0  0  0
    7.8726    7.1200    0.0000 H   0  0  0  0  0  0  0  0  0  0  0  0
    9.2017   -9.8100    0.0000 H   0  0  0  0  0  0  0  0  0  0  0  0
    8.7386    6.0000    0.0000 H   0  0  0  0  0  0  0  0  0  0  0  0
   11.4651    1.9300    0.0000 H   0  0  0  0  0  0  0  0  0  0  0  0
   16.4662   -1.8800    0.0000 H   0  0  0  0  0  0  0  0  0  0  0  0
   15.0632   -4.3100    0.0000 H   0  0  0  0  0  0  0  0  0  0  0  0
   18.2641    3.0788    0.0000 H   0  0  0  0  0  0  0  0  0  0  0  0
   19.1299    8.9300    0.0000 H   0  0  0  0  0  0  0  0  0  0  0  0
    7.9462    7.7023    0.0000 H   0  0  0  0  0  0  0  0  0  0  0  0
    7.5477    8.3926    0.0000 H   0  0  0  0  0  0  0  0  0  0  0  0
   12.9758   -7.7269    0.0000 H   0  0  0  0  0  0  0  0  0  0  0  0
   13.2027   -6.8800    0.0000 H   0  0  0  0  0  0  0  0  0  0  0  0
   12.3558   -6.6531    0.0000 H   0  0  0  0  0  0  0  0  0  0  0  0
   13.2628    3.6200    0.0000 H   0  0  0  0  0  0  0  0  0  0  0  0
   13.7998    2.6900    0.0000 H   0  0  0  0  0  0  0  0  0  0  0  0
   11.3777   10.3469    0.0000 H   0  0  0  0  0  0  0  0  0  0  0  0
   10.5308   10.1200    0.0000 H   0  0  0  0  0  0  0  0  0  0  0  0
   10.7577    9.2731    0.0000 H   0  0  0  0  0  0  0  0  0  0  0  0
    9.2017    4.1900    0.0000 H   0  0  0  0  0  0  0  0  0  0  0  0
    5.6036    7.1900    0.0000 H   0  0  0  0  0  0  0  0  0  0  0  0
    7.0066    9.6200    0.0000 H   0  0  0  0  0  0  0  0  0  0  0  0
   16.7953   -4.3100    0.0000 H   0  0  0  0  0  0  0  0  0  0  0  0
    4.2006    8.0000    0.0000 H   0  0  0  0  0  0  0  0  0  0  0  0
    5.6036   10.4300    0.0000 H   0  0  0  0  0  0  0  0  0  0  0  0
    5.0667    6.5000    0.0000 H   0  0  0  0  0  0  0  0  0  0  0  0
    4.2006    9.6200    0.0000 H   0  0  0  0  0  0  0  0  0  0  0  0
  1 60  1  0  0  0  0
  1165  1  0  0  0  0
  2 72  1  0  0  0  0
  2173  1  0  0  0  0
  3 73  1  0  0  0  0
  3175  1  0  0  0  0
  4 78  1  0  0  0  0
  4179  1  0  0  0  0
  5 80  1  0  0  0  0
  5 97  1  0  0  0  0
  6 87  1  0  0  0  0
  6190  1  0  0  0  0
  7 46  2  0  0  0  0
  8 47  2  0  0  0  0
  9 53  2  0  0  0  0
 10 59  2  0  0  0  0
 11 66  2  0  0  0  0
 12 67  2  0  0  0  0
 13 68  2  0  0  0  0
 14 69  2  0  0  0  0
 15 71  2  0  0  0  0
 16 77  2  0  0  0  0
 17 83  2  0  0  0  0
 18 85  2  0  0  0  0
 19 86  2  0  0  0  0
 20 93  1  0  0  0  0
 20193  1  0  0  0  0
 21 96  1  0  0  0  0
 21196  1  0  0  0  0
 22 96  2  0  0  0  0
 40 23  1  1  0  0  0
 23 46  1  0  0  0  0
 23113  1  0  0  0  0
 41 24  1  6  0  0  0
 24 53  1  0  0  0  0
 24118  1  0  0  0  0
 25 47  1  0  0  0  0
 50 25  1  6  0  0  0
 25120  1  0  0  0  0
 58 26  1  1  0  0  0
 26 59  1  0  0  0  0
 26140  1  0  0  0  0
 55 27  1  1  0  0  0
 27 66  1  0  0  0  0
 27141  1  0  0  0  0
 54 28  1  6  0  0  0
 28 68  1  0  0  0  0
 28142  1  0  0  0  0
 56 29  1  1  0  0  0
 29 71  1  0  0  0  0
 29143  1  0  0  0  0
 62 30  1  6  0  0  0
 30 69  1  0  0  0  0
 30146  1  0  0  0  0
 64 31  1  6  0  0  0
 31 67  1  0  0  0  0
 31147  1  0  0  0  0
 32 51  1  0  0  0  0
 32154  1  0  0  0  0
 32155  1  0  0  0  0
 57 33  1  1  0  0  0
 33 85  1  0  0  0  0
 33156  1  0  0  0  0
 34 52  1  0  0  0  0
 34159  1  0  0  0  0
 34160  1  0  0  0  0
 35 77  1  0  0  0  0
 79 35  1  1  0  0  0
 35164  1  0  0  0  0
 36 76  1  0  0  0  0
 36 91  1  0  0  0  0
 36168  1  0  0  0  0
 37 86  1  0  0  0  0
 88 37  1  6  0  0  0
 37174  1  0  0  0  0
 38 84  1  0  0  0  0
 38 91  2  0  0  0  0
 39 83  1  0  0  0  0
 39185  1  0  0  0  0
 39186  1  0  0  0  0
 40 42  1  0  0  0  0
 40 47  1  0  0  0  0
 40103  1  0  0  0  0
 41 43  1  0  0  0  0
 41 46  1  0  0  0  0
 41104  1  0  0  0  0
 42 44  1  0  0  0  0
 42105  1  0  0  0  0
 42106  1  0  0  0  0
 43 45  1  0  0  0  0
 43107  1  0  0  0  0
 43108  1  0  0  0  0
 44 48  1  0  0  0  0
 44109  1  0  0  0  0
 44110  1  0  0  0  0
 45 49  1  0  0  0  0
 45111  1  0  0  0  0
 45112  1  0  0  0  0
 48 51  1  0  0  0  0
 48114  1  0  0  0  0
 48115  1  0  0  0  0
 49 52  1  0  0  0  0
 49116  1  0  0  0  0
 49117  1  0  0  0  0
 50 59  1  0  0  0  0
 50 60  1  0  0  0  0
 50119  1  0  0  0  0
 51121  1  0  0  0  0
 51122  1  0  0  0  0
 52123  1  0  0  0  0
 52124  1  0  0  0  0
 53 57  1  0  0  0  0
 54 61  1  0  0  0  0
 54 66  1  0  0  0  0
 54125  1  0  0  0  0
 55 65  1  0  0  0  0
 55 67  1  0  0  0  0
 55126  1  0  0  0  0
 56 63  1  0  0  0  0
 56 69  1  0  0  0  0
 56127  1  0  0  0  0
 57 72  1  0  0  0  0
 57128  1  0  0  0  0
 58 68  1  0  0  0  0
 58 73  1  0  0  0  0
 58129  1  0  0  0  0
 60130  1  0  0  0  0
 60131  1  0  0  0  0
 61 75  1  0  0  0  0
 61132  1  0  0  0  0
 61133  1  0  0  0  0
 62 70  1  0  0  0  0
 62 77  1  0  0  0  0
 62134  1  0  0  0  0
 63 74  1  0  0  0  0
 63135  1  0  0  0  0
 63136  1  0  0  0  0
 64 71  1  0  0  0  0
 64 78  1  0  0  0  0
 64137  1  0  0  0  0
 65 76  1  0  0  0  0
 65138  1  0  0  0  0
 65139  1  0  0  0  0
 70 80  1  0  0  0  0
 70144  1  0  0  0  0
 70145  1  0  0  0  0
 72148  1  0  0  0  0
 72149  1  0  0  0  0
 73150  1  0  0  0  0
 73151  1  0  0  0  0
 74 83  1  0  0  0  0
 74152  1  0  0  0  0
 74153  1  0  0  0  0
 75 81  2  0  0  0  0
 75 82  1  0  0  0  0
 76 84  2  0  0  0  0
 78157  1  0  0  0  0
 78158  1  0  0  0  0
 79 86  1  0  0  0  0
 79 87  1  0  0  0  0
 79161  1  0  0  0  0
 80162  1  0  0  0  0
 80163  1  0  0  0  0
 81 89  1  0  0  0  0
 81166  1  0  0  0  0
 82 90  2  0  0  0  0
 82167  1  0  0  0  0
 84169  1  0  0  0  0
 85 94  1  0  0  0  0
 87170  1  0  0  0  0
 87171  1  0  0  0  0
 88 92  1  0  0  0  0
 88 96  1  0  0  0  0
 88172  1  0  0  0  0
 89 93  2  0  0  0  0
 89176  1  0  0  0  0
 90 93  1  0  0  0  0
 90177  1  0  0  0  0
 91178  1  0  0  0  0
 92 95  1  0  0  0  0
 92180  1  0  0  0  0
 92181  1  0  0  0  0
 94182  1  0  0  0  0
 94183  1  0  0  0  0
 94184  1  0  0  0  0
 95 98  2  0  0  0  0
 95 99  1  0  0  0  0
 97187  1  0  0  0  0
 97188  1  0  0  0  0
 97189  1  0  0  0  0
 98100  1  0  0  0  0
 98191  1  0  0  0  0
 99101  2  0  0  0  0
 99192  1  0  0  0  0
100102  2  0  0  0  0
100194  1  0  0  0  0
101102  1  0  0  0  0
101195  1  0  0  0  0
102197  1  0  0  0  0
M  END
> <PUBCHEM_COMPOUND_CID>
502154
> <PUBCHEM_COMPOUND_CANONICALIZED>
1
> <PUBCHEM_CACTVS_COMPLEXITY>
2750
> <PUBCHEM_CACTVS_HBOND_ACCEPTOR>
25
> <PUBCHEM_CACTVS_HBOND_DONOR>
23
> <PUBCHEM_CACTVS_ROTATABLE_BOND>
49
> <PUBCHEM_CACTVS_SUBSKEYS>
AAADcfB//gBwAAAAAAAAAAAAAAAAAWAAAAAwYAAAAAAAAAAB0AAAHgQQCAAADCzF3gS/npbJkgyoAzX3fAACgC2xMrAJ2YG+eIiKbjLi2TOUcAAs1hPY2Cecy6COIAAAAAAAAABAAAAAAAAAAAAAAAAAAA==
> <PUBCHEM_IUPAC_OPENEYE_NAME>
(2S)-2-[[(2R)-2-[[(2S)-2-[[(2S)-2-[[(2R)-2-[[(2S)-2-[[(2S)-2-[[(2R)-2-[[(2R)-2-[[(2S)-2-[[(2S)-2-[[(2R)-2-acetamido-3-sulfanyl-propanoyl]amino]-6-amino-hexanoyl]amino]-6-amino-hexanoyl]amino]-3-sulfanyl-propanoyl]amino]-3-sulfanyl-propanoyl]amino]-3-(4-hydroxyphenyl)propanoyl]amino]-3-(1H-imidazol-5-yl)propanoyl]amino]-3-sulfanyl-propanoyl]amino]-5-amino-5-oxo-pentanoyl]amino]-4-methylsulfanyl-butanoyl]amino]-3-sulfanyl-propanoyl]amino]-3-phenyl-propanoic acid
> <PUBCHEM_IUPAC_CAS_NAME>
(2S)-2-[[(2R)-2-[[(2S)-2-[[(2S)-2-[[(2R)-2-[[(2S)-2-[[(2S)-2-[[(2R)-2-[[(2R)-2-[[(2S)-2-[[(2S)-2-[[(2R)-2-acetamido-3-mercapto-1-oxopropyl]amino]-6-amino-1-oxohexyl]amino]-6-amino-1-oxohexyl]amino]-3-mercapto-1-oxopropyl]amino]-3-mercapto-1-oxopropyl]amino]-3-(4-hydroxyphenyl)-1-oxopropyl]amino]-3-(1H-imidazol-5-yl)-1-oxopropyl]amino]-3-mercapto-1-oxopropyl]amino]-5-amino-1,5-dioxopentyl]amino]-4-(methylthio)-1-oxobutyl]amino]-3-mercapto-1-oxopropyl]amino]-3-phenylpropanoic acid
> <PUBCHEM_IUPAC_NAME_MARKUP>
(2<I>S</I>)-2-[[(2<I>R</I>)-2-[[(2<I>S</I>)-2-[[(2<I>S</I>)-2-[[(2<I>R</I>)-2-[[(2<I>S</I>)-2-[[(2<I>S</I>)-2-[[(2<I>R</I>)-2-[[(2<I>R</I>)-2-[[(2<I>S</I>)-2-[[(2<I>S</I>)-2-[[(2<I>R</I>)-2-acetamido-3-sulfanylpropanoyl]amino]-6-aminohexanoyl]amino]-6-aminohexanoyl]amino]-3-sulfanylpropanoyl]amino]-3-sulfanylpropanoyl]amino]-3-(4-hydroxyphenyl)propanoyl]amino]-3-(1<I>H</I>-imidazol-5-yl)propanoyl]amino]-3-sulfanylpropanoyl]amino]-5-amino-5-oxopentanoyl]amino]-4-methylsulfanylbutanoyl]amino]-3-sulfanylpropanoyl]amino]-3-phenylpropanoic acid
> <PUBCHEM_IUPAC_NAME>
(2S)-2-[[(2R)-2-[[(2S)-2-[[(2S)-2-[[(2R)-2-[[(2S)-2-[[(2S)-2-[[(2R)-2-[[(2R)-2-[[(2S)-2-[[(2S)-2-[[(2R)-2-acetamido-3-sulfanylpropanoyl]amino]-6-aminohexanoyl]amino]-6-aminohexanoyl]amino]-3-sulfanylpropanoyl]amino]-3-sulfanylpropanoyl]amino]-3-(4-hydroxyphenyl)propanoyl]amino]-3-(1H-imidazol-5-yl)propanoyl]amino]-3-sulfanylpropanoyl]amino]-5-amino-5-oxopentanoyl]amino]-4-methylsulfanylbutanoyl]amino]-3-sulfanylpropanoyl]amino]-3-phenylpropanoic acid
> <PUBCHEM_IUPAC_SYSTEMATIC_NAME>
(2S)-2-[[(2R)-2-[[(2S)-2-[[(2S)-2-[[(2R)-2-[[(2S)-2-[[(2S)-2-[[(2R)-2-[[(2R)-2-[[(2S)-2-[[(2S)-2-[[(2R)-2-acetamido-3-sulfanyl-propanoyl]amino]-6-azanyl-hexanoyl]amino]-6-azanyl-hexanoyl]amino]-3-sulfanyl-propanoyl]amino]-3-sulfanyl-propanoyl]amino]-3-(4-hydroxyphenyl)propanoyl]amino]-3-(1H-imidazol-5-yl)propanoyl]amino]-3-sulfanyl-propanoyl]amino]-5-azanyl-5-oxidanylidene-pentanoyl]amino]-4-methylsulfanyl-butanoyl]amino]-3-sulfanyl-propanoyl]amino]-3-phenyl-propanoic acid
> <PUBCHEM_IUPAC_TRADITIONAL_NAME>
(2S)-2-[[(2R)-2-[[(2S)-2-[[(2S)-2-[[(2R)-2-[[(2S)-2-[[(2S)-2-[[(2R)-2-[[(2R)-2-[[(2S)-2-[[(2S)-2-[[(2R)-2-acetamido-3-mercapto-propanoyl]amino]-6-amino-hexanoyl]amino]-6-amino-hexanoyl]amino]-3-mercapto-propanoyl]amino]-3-mercapto-propanoyl]amino]-3-(4-hydroxyphenyl)propanoyl]amino]-3-(1H-imidazol-5-yl)propanoyl]amino]-3-mercapto-propanoyl]amino]-5-amino-5-keto-pentanoyl]amino]-4-(methylthio)butanoyl]amino]-3-mercapto-propanoyl]amino]-3-phenyl-propionic acid
> <PUBCHEM_IUPAC_INCHI>
InChI=1S/C63H95N17O16S6/c1-34(81)69-46(28-97)58(90)71-39(12-6-8-21-64)52(84)70-40(13-7-9-22-65)53(85)77-50(32-101)62(94)80-48(30-99)60(92)74-43(24-36-14-16-38(82)17-15-36)56(88)75-44(26-37-27-67-33-68-37)57(89)79-47(29-98)59(91)72-41(18-19-51(66)83)54(86)73-42(20-23-102-2)55(87)78-49(31-100)61(93)76-45(63(95)96)25-35-10-4-3-5-11-35/h3-5,10-11,14-17,27,33,39-50,82,97-101H,6-9,12-13,18-26,28-32,64-65H2,1-2H3,(H2,66,83)(H,67,68)(H,69,81)(H,70,84)(H,71,90)(H,72,91)(H,73,86)(H,74,92)(H,75,88)(H,76,93)(H,77,85)(H,78,87)(H,79,89)(H,80,94)(H,95,96)/t39-,40-,41-,42-,43-,44-,45-,46-,47-,48-,49-,50-/m0/s1
> <PUBCHEM_IUPAC_INCHIKEY>
RISVLWSWFGQRAB-OBCMTGTFSA-N
> <PUBCHEM_XLOGP3_AA>
-4.3
> <PUBCHEM_EXACT_MASS>
1537.5466971
> <PUBCHEM_MOLECULAR_FORMULA>
C63H95N17O16S6
> <PUBCHEM_MOLECULAR_WEIGHT>
1538.9
> <PUBCHEM_OPENEYE_CAN_SMILES>
CC(=O)NC(CS)C(=O)NC(CCCCN)C(=O)NC(CCCCN)C(=O)NC(CS)C(=O)NC(CS)C(=O)NC(CC1=CC=C(C=C1)O)C(=O)NC(CC2=CN=CN2)C(=O)NC(CS)C(=O)NC(CCC(=O)N)C(=O)NC(CCSC)C(=O)NC(CS)C(=O)NC(CC3=CC=CC=C3)C(=O)O
> <PUBCHEM_OPENEYE_ISO_SMILES>
CC(=O)N[C@@H](CS)C(=O)N[C@@H](CCCCN)C(=O)N[C@@H](CCCCN)C(=O)N[C@@H](CS)C(=O)N[C@@H](CS)C(=O)N[C@@H](CC1=CC=C(C=C1)O)C(=O)N[C@@H](CC2=CN=CN2)C(=O)N[C@@H](CS)C(=O)N[C@@H](CCC(=O)N)C(=O)N[C@@H](CCSC)C(=O)N[C@@H](CS)C(=O)N[C@@H](CC3=CC=CC=C3)C(=O)O
> <PUBCHEM_CACTVS_TPSA>
561
> <PUBCHEM_MONOISOTOPIC_WEIGHT>
1537.5466971
> <PUBCHEM_TOTAL_CHARGE>
0
> <PUBCHEM_HEAVY_ATOM_COUNT>
102
> <PUBCHEM_ATOM_DEF_STEREO_COUNT>
12
> <PUBCHEM_ATOM_UDEF_STEREO_COUNT>
0
> <PUBCHEM_BOND_DEF_STEREO_COUNT>
0
> <PUBCHEM_BOND_UDEF_STEREO_COUNT>
0
> <PUBCHEM_ISOTOPIC_ATOM_COUNT>
0
> <PUBCHEM_COMPONENT_COUNT>
1
> <PUBCHEM_CACTVS_TAUTO_COUNT>
-1
> <PUBCHEM_COORDINATE_TYPE>
1
5
255
> <PUBCHEM_BONDANNOTATIONS>
100  102  8
101  102  8
40  23  5
41  24  6
50  25  6
58  26  5
55  27  5
54  28  6
56  29  5
62  30  6
64  31  6
57  33  5
79  35  5
36  76  8
36  91  8
88  37  6
38  84  8
38  91  8
75  81  8
75  82  8
76  84  8
81  89  8
82  90  8
89  93  8
90  93  8
95  98  8
95  99  8
98  100  8
99  101  8
$$$$
