502155
  -OEChem-10302200282D
146148  0     1  0  0  0  0  0999 V2000
   12.8100   -2.7626    0.0000 S   0  0  0  0  0  0  0  0  0  0  0  0
   12.3100   -3.6286    0.0000 S   0  0  0  0  0  0  0  0  0  0  0  0
    8.3100    3.2996    0.0000 S   0  0  0  0  0  0  0  0  0  0  0  0
    7.8100    4.1656    0.0000 S   0  0  0  0  0  0  0  0  0  0  0  0
    7.8100   -2.7626    0.0000 O   0  0  0  0  0  0  0  0  0  0  0  0
    9.9528   -6.1267    0.0000 O   0  0  0  0  0  0  0  0  0  0  0  0
   11.8100   -2.7626    0.0000 O   0  0  0  0  0  0  0  0  0  0  0  0
    6.3100   -0.1645    0.0000 O   0  0  0  0  0  0  0  0  0  0  0  0
   12.3100   -0.1645    0.0000 O   0  0  0  0  0  0  0  0  0  0  0  0
    9.8100    2.4335    0.0000 O   0  0  0  0  0  0  0  0  0  0  0  0
    5.3100    3.2996    0.0000 O   0  0  0  0  0  0  0  0  0  0  0  0
   12.3100   -5.3607    0.0000 O   0  0  0  0  0  0  0  0  0  0  0  0
    6.3100    6.7637    0.0000 O   0  0  0  0  0  0  0  0  0  0  0  0
   10.8100   -6.2267    0.0000 O   0  0  0  0  0  0  0  0  0  0  0  0
    9.0420    5.0316    0.0000 O   0  0  0  0  0  0  0  0  0  0  0  0
   15.3100    1.5675    0.0000 O   0  0  0  0  0  0  0  0  0  0  0  0
    6.8100    7.6297    0.0000 O   0  0  0  0  0  0  0  0  0  0  0  0
    7.8100   -4.4947    0.0000 N   0  0  0  0  0  0  0  0  0  0  0  0
    9.8100   -2.7626    0.0000 N   0  0  0  0  0  0  0  0  0  0  0  0
   10.8100   -1.0306    0.0000 N   0  0  0  0  0  0  0  0  0  0  0  0
    6.8100    2.4335    0.0000 N   0  0  0  0  0  0  0  0  0  0  0  0
    7.8100    0.7015    0.0000 N   0  0  0  0  0  0  0  0  0  0  0  0
    9.8100    0.7015    0.0000 N   0  0  0  0  0  0  0  0  0  0  0  0
    9.8100   -4.4947    0.0000 N   0  0  0  0  0  0  0  0  0  0  0  0
    6.3100    5.0316    0.0000 N   0  0  0  0  0  0  0  0  0  0  0  0
    8.9588   -7.7281    0.0000 N   0  0  0  0  0  0  0  0  0  0  0  0
    4.8100   -7.9588    0.0000 N   0  0  0  0  0  0  0  0  0  0  0  0
    2.3100   -0.1645    0.0000 N   0  0  0  0  0  0  0  0  0  0  0  0
    8.3100    6.7637    0.0000 N   0  0  0  0  0  0  0  0  0  0  0  0
    9.4081    3.6656    0.0000 N   0  0  0  0  0  0  0  0  0  0  0  0
    9.3100   -3.6286    0.0000 C   0  0  1  0  0  0  0  0  0  0  0  0
    9.1364   -4.6134    0.0000 C   0  0  0  0  0  0  0  0  0  0  0  0
    8.3100   -5.3607    0.0000 C   0  0  1  0  0  0  0  0  0  0  0  0
    7.8100   -6.2267    0.0000 C   0  0  0  0  0  0  0  0  0  0  0  0
    9.9023   -5.2563    0.0000 C   0  0  0  0  0  0  0  0  0  0  0  0
    8.3100   -3.6286    0.0000 C   0  0  0  0  0  0  0  0  0  0  0  0
    6.3100    1.5675    0.0000 C   0  0  1  0  0  0  0  0  0  0  0  0
    6.8100   -6.2267    0.0000 C   0  0  0  0  0  0  0  0  0  0  0  0
    5.3100    1.5675    0.0000 C   0  0  0  0  0  0  0  0  0  0  0  0
   11.3100   -1.8966    0.0000 C   0  0  2  0  0  0  0  0  0  0  0  0
    9.2595   -6.0223    0.0000 C   0  0  0  0  0  0  0  0  0  0  0  0
    4.8100    0.7015    0.0000 C   0  0  0  0  0  0  0  0  0  0  0  0
   10.8100    0.7015    0.0000 C   0  0  1  0  0  0  0  0  0  0  0  0
    9.3100   -5.3607    0.0000 C   0  0  0  0  0  0  0  0  0  0  0  0
   10.8100   -2.7626    0.0000 C   0  0  0  0  0  0  0  0  0  0  0  0
    6.3100   -7.0928    0.0000 C   0  0  0  0  0  0  0  0  0  0  0  0
    8.3100    1.5675    0.0000 C   0  0  2  0  0  0  0  0  0  0  0  0
    6.8100    0.7015    0.0000 C   0  0  0  0  0  0  0  0  0  0  0  0
    3.8100    0.7015    0.0000 C   0  0  0  0  0  0  0  0  0  0  0  0
   11.3100    1.5675    0.0000 C   0  0  0  0  0  0  0  0  0  0  0  0
   12.3100   -1.8966    0.0000 C   0  0  0  0  0  0  0  0  0  0  0  0
   11.3100   -0.1645    0.0000 C   0  0  0  0  0  0  0  0  0  0  0  0
    9.6016   -6.9620    0.0000 C   0  0  0  0  0  0  0  0  0  0  0  0
    6.8100    4.1656    0.0000 C   0  0  2  0  0  0  0  0  0  0  0  0
    9.3100    1.5675    0.0000 C   0  0  0  0  0  0  0  0  0  0  0  0
   10.8100   -4.4947    0.0000 C   0  0  1  0  0  0  0  0  0  0  0  0
    5.3100   -7.0928    0.0000 C   0  0  0  0  0  0  0  0  0  0  0  0
    6.3100    3.2996    0.0000 C   0  0  0  0  0  0  0  0  0  0  0  0
    7.8100    2.4335    0.0000 C   0  0  0  0  0  0  0  0  0  0  0  0
    3.3100   -0.1645    0.0000 C   0  0  0  0  0  0  0  0  0  0  0  0
   12.3100    1.5675    0.0000 C   0  0  0  0  0  0  0  0  0  0  0  0
   11.3100   -3.6286    0.0000 C   0  0  0  0  0  0  0  0  0  0  0  0
    7.6760    3.6656    0.0000 C   0  0  0  0  0  0  0  0  0  0  0  0
    7.8100    5.8976    0.0000 C   0  0  2  0  0  0  0  0  0  0  0  0
    6.8100    5.8976    0.0000 C   0  0  0  0  0  0  0  0  0  0  0  0
   11.3100   -5.3607    0.0000 C   0  0  0  0  0  0  0  0  0  0  0  0
    8.3100    5.0316    0.0000 C   0  0  0  0  0  0  0  0  0  0  0  0
   12.8100    2.4335    0.0000 C   0  0  0  0  0  0  0  0  0  0  0  0
   12.8100    0.7015    0.0000 C   0  0  0  0  0  0  0  0  0  0  0  0
    8.5420    4.1656    0.0000 C   0  0  0  0  0  0  0  0  0  0  0  0
   13.8100    2.4335    0.0000 C   0  0  0  0  0  0  0  0  0  0  0  0
   13.8100    0.7015    0.0000 C   0  0  0  0  0  0  0  0  0  0  0  0
   14.3100    1.5675    0.0000 C   0  0  0  0  0  0  0  0  0  0  0  0
    7.8100    7.6297    0.0000 C   0  0  0  0  0  0  0  0  0  0  0  0
    8.3100    8.4957    0.0000 C   0  0  0  0  0  0  0  0  0  0  0  0
    9.8926   -3.8407    0.0000 H   0  0  0  0  0  0  0  0  0  0  0  0
    8.5538   -4.4014    0.0000 H   0  0  0  0  0  0  0  0  0  0  0  0
    8.8263   -5.1504    0.0000 H   0  0  0  0  0  0  0  0  0  0  0  0
    7.6900   -5.3607    0.0000 H   0  0  0  0  0  0  0  0  0  0  0  0
    7.7023   -6.8373    0.0000 H   0  0  0  0  0  0  0  0  0  0  0  0
    8.3926   -6.4388    0.0000 H   0  0  0  0  0  0  0  0  0  0  0  0
   10.3772   -5.6548    0.0000 H   0  0  0  0  0  0  0  0  0  0  0  0
   10.3009   -4.7814    0.0000 H   0  0  0  0  0  0  0  0  0  0  0  0
    6.0000    2.1044    0.0000 H   0  0  0  0  0  0  0  0  0  0  0  0
    6.9177   -5.6161    0.0000 H   0  0  0  0  0  0  0  0  0  0  0  0
    6.2274   -6.0147    0.0000 H   0  0  0  0  0  0  0  0  0  0  0  0
    7.1900   -4.4947    0.0000 H   0  0  0  0  0  0  0  0  0  0  0  0
    9.5000   -2.2257    0.0000 H   0  0  0  0  0  0  0  0  0  0  0  0
    5.4177    2.1781    0.0000 H   0  0  0  0  0  0  0  0  0  0  0  0
    4.7274    1.7796    0.0000 H   0  0  0  0  0  0  0  0  0  0  0  0
   11.6200   -1.3597    0.0000 H   0  0  0  0  0  0  0  0  0  0  0  0
    8.8610   -5.5473    0.0000 H   0  0  0  0  0  0  0  0  0  0  0  0
    8.7226   -6.3323    0.0000 H   0  0  0  0  0  0  0  0  0  0  0  0
    4.7023    0.0909    0.0000 H   0  0  0  0  0  0  0  0  0  0  0  0
    5.3926    0.4894    0.0000 H   0  0  0  0  0  0  0  0  0  0  0  0
   10.5000    0.1645    0.0000 H   0  0  0  0  0  0  0  0  0  0  0  0
    6.2023   -7.7033    0.0000 H   0  0  0  0  0  0  0  0  0  0  0  0
    6.8926   -7.3048    0.0000 H   0  0  0  0  0  0  0  0  0  0  0  0
    8.6200    1.0306    0.0000 H   0  0  0  0  0  0  0  0  0  0  0  0
   10.1900   -1.0306    0.0000 H   0  0  0  0  0  0  0  0  0  0  0  0
    7.1200    1.8966    0.0000 H   0  0  0  0  0  0  0  0  0  0  0  0
    3.9177    1.3121    0.0000 H   0  0  0  0  0  0  0  0  0  0  0  0
    3.2274    0.9135    0.0000 H   0  0  0  0  0  0  0  0  0  0  0  0
   11.4177    2.1781    0.0000 H   0  0  0  0  0  0  0  0  0  0  0  0
   10.7274    1.7796    0.0000 H   0  0  0  0  0  0  0  0  0  0  0  0
   12.8926   -1.6845    0.0000 H   0  0  0  0  0  0  0  0  0  0  0  0
   12.2023   -1.2860    0.0000 H   0  0  0  0  0  0  0  0  0  0  0  0
    8.1200    0.1645    0.0000 H   0  0  0  0  0  0  0  0  0  0  0  0
    9.5000    0.1645    0.0000 H   0  0  0  0  0  0  0  0  0  0  0  0
   10.0001   -7.4370    0.0000 H   0  0  0  0  0  0  0  0  0  0  0  0
   10.1385   -6.6520    0.0000 H   0  0  0  0  0  0  0  0  0  0  0  0
    7.2484    4.6040    0.0000 H   0  0  0  0  0  0  0  0  0  0  0  0
   10.1200   -3.9577    0.0000 H   0  0  0  0  0  0  0  0  0  0  0  0
   10.5000   -5.0316    0.0000 H   0  0  0  0  0  0  0  0  0  0  0  0
    5.4177   -6.4822    0.0000 H   0  0  0  0  0  0  0  0  0  0  0  0
    4.7274   -6.8807    0.0000 H   0  0  0  0  0  0  0  0  0  0  0  0
    7.3350    2.8321    0.0000 H   0  0  0  0  0  0  0  0  0  0  0  0
    7.3350    2.0350    0.0000 H   0  0  0  0  0  0  0  0  0  0  0  0
    3.2023   -0.7751    0.0000 H   0  0  0  0  0  0  0  0  0  0  0  0
    3.8926   -0.3766    0.0000 H   0  0  0  0  0  0  0  0  0  0  0  0
   11.4177   -3.0181    0.0000 H   0  0  0  0  0  0  0  0  0  0  0  0
   10.7274   -3.4166    0.0000 H   0  0  0  0  0  0  0  0  0  0  0  0
    7.2775    3.1906    0.0000 H   0  0  0  0  0  0  0  0  0  0  0  0
    8.0746    3.1906    0.0000 H   0  0  0  0  0  0  0  0  0  0  0  0
    5.6900    5.0316    0.0000 H   0  0  0  0  0  0  0  0  0  0  0  0
    7.5000    6.4346    0.0000 H   0  0  0  0  0  0  0  0  0  0  0  0
    9.1709   -8.3107    0.0000 H   0  0  0  0  0  0  0  0  0  0  0  0
    8.3482   -7.6204    0.0000 H   0  0  0  0  0  0  0  0  0  0  0  0
    8.7850    4.6331    0.0000 H   0  0  0  0  0  0  0  0  0  0  0  0
    8.7850    5.4301    0.0000 H   0  0  0  0  0  0  0  0  0  0  0  0
    4.1900   -7.9588    0.0000 H   0  0  0  0  0  0  0  0  0  0  0  0
    5.1200   -8.4957    0.0000 H   0  0  0  0  0  0  0  0  0  0  0  0
   12.5000    2.9705    0.0000 H   0  0  0  0  0  0  0  0  0  0  0  0
   12.5000    0.1645    0.0000 H   0  0  0  0  0  0  0  0  0  0  0  0
    2.0000   -0.7015    0.0000 H   0  0  0  0  0  0  0  0  0  0  0  0
    2.0000    0.3724    0.0000 H   0  0  0  0  0  0  0  0  0  0  0  0
    8.9300    6.7637    0.0000 H   0  0  0  0  0  0  0  0  0  0  0  0
   14.1200    2.9705    0.0000 H   0  0  0  0  0  0  0  0  0  0  0  0
   14.1200    0.1645    0.0000 H   0  0  0  0  0  0  0  0  0  0  0  0
   12.6200   -5.8976    0.0000 H   0  0  0  0  0  0  0  0  0  0  0  0
    9.4081    3.0456    0.0000 H   0  0  0  0  0  0  0  0  0  0  0  0
    9.9450    3.9756    0.0000 H   0  0  0  0  0  0  0  0  0  0  0  0
    8.8469    8.1857    0.0000 H   0  0  0  0  0  0  0  0  0  0  0  0
    8.6200    9.0326    0.0000 H   0  0  0  0  0  0  0  0  0  0  0  0
    7.7731    8.8057    0.0000 H   0  0  0  0  0  0  0  0  0  0  0  0
   15.6200    2.1044    0.0000 H   0  0  0  0  0  0  0  0  0  0  0  0
  1  2  1  0  0  0  0
  1 51  1  0  0  0  0
  2 62  1  0  0  0  0
  3  4  1  0  0  0  0
  3 59  1  0  0  0  0
  4 67  1  0  0  0  0
  5 36  2  0  0  0  0
  6 44  2  0  0  0  0
  7 45  2  0  0  0  0
  8 48  2  0  0  0  0
  9 52  2  0  0  0  0
 10 55  2  0  0  0  0
 11 58  2  0  0  0  0
 12 66  1  0  0  0  0
 12140  1  0  0  0  0
 13 65  2  0  0  0  0
 14 66  2  0  0  0  0
 15 70  2  0  0  0  0
 16 73  1  0  0  0  0
 16146  1  0  0  0  0
 17 74  2  0  0  0  0
 18 33  1  0  0  0  0
 18 36  1  0  0  0  0
 18 87  1  0  0  0  0
 19 31  1  0  0  0  0
 19 45  1  0  0  0  0
 19 88  1  0  0  0  0
 40 20  1  1  0  0  0
 20 52  1  0  0  0  0
 20100  1  0  0  0  0
 21 37  1  0  0  0  0
 21 58  1  0  0  0  0
 21101  1  0  0  0  0
 22 47  1  0  0  0  0
 22 48  1  0  0  0  0
 22108  1  0  0  0  0
 43 23  1  1  0  0  0
 23 55  1  0  0  0  0
 23109  1  0  0  0  0
 24 44  1  0  0  0  0
 24 56  1  0  0  0  0
 24113  1  0  0  0  0
 25 54  1  0  0  0  0
 25 65  1  0  0  0  0
 25125  1  0  0  0  0
 26 53  1  0  0  0  0
 26127  1  0  0  0  0
 26128  1  0  0  0  0
 27 57  1  0  0  0  0
 27131  1  0  0  0  0
 27132  1  0  0  0  0
 28 60  1  0  0  0  0
 28135  1  0  0  0  0
 28136  1  0  0  0  0
 64 29  1  1  0  0  0
 29 74  1  0  0  0  0
 29137  1  0  0  0  0
 30 70  1  0  0  0  0
 30141  1  0  0  0  0
 30142  1  0  0  0  0
 31 32  1  1  0  0  0
 31 36  1  0  0  0  0
 31 76  1  0  0  0  0
 32 35  1  0  0  0  0
 32 77  1  0  0  0  0
 32 78  1  0  0  0  0
 33 34  1  6  0  0  0
 33 44  1  0  0  0  0
 33 79  1  0  0  0  0
 34 38  1  0  0  0  0
 34 80  1  0  0  0  0
 34 81  1  0  0  0  0
 35 41  1  0  0  0  0
 35 82  1  0  0  0  0
 35 83  1  0  0  0  0
 37 39  1  6  0  0  0
 37 48  1  0  0  0  0
 37 84  1  0  0  0  0
 38 46  1  0  0  0  0
 38 85  1  0  0  0  0
 38 86  1  0  0  0  0
 39 42  1  0  0  0  0
 39 89  1  0  0  0  0
 39 90  1  0  0  0  0
 40 45  1  0  0  0  0
 40 51  1  0  0  0  0
 40 91  1  0  0  0  0
 41 53  1  0  0  0  0
 41 92  1  0  0  0  0
 41 93  1  0  0  0  0
 42 49  1  0  0  0  0
 42 94  1  0  0  0  0
 42 95  1  0  0  0  0
 43 50  1  0  0  0  0
 43 52  1  0  0  0  0
 43 96  1  0  0  0  0
 46 57  1  0  0  0  0
 46 97  1  0  0  0  0
 46 98  1  0  0  0  0
 47 55  1  1  0  0  0
 47 59  1  0  0  0  0
 47 99  1  0  0  0  0
 49 60  1  0  0  0  0
 49102  1  0  0  0  0
 49103  1  0  0  0  0
 50 61  1  0  0  0  0
 50104  1  0  0  0  0
 50105  1  0  0  0  0
 51106  1  0  0  0  0
 51107  1  0  0  0  0
 53110  1  0  0  0  0
 53111  1  0  0  0  0
 54 58  1  0  0  0  0
 54 63  1  1  0  0  0
 54112  1  0  0  0  0
 56 62  1  0  0  0  0
 56 66  1  1  0  0  0
 56114  1  0  0  0  0
 57115  1  0  0  0  0
 57116  1  0  0  0  0
 59117  1  0  0  0  0
 59118  1  0  0  0  0
 60119  1  0  0  0  0
 60120  1  0  0  0  0
 61 68  2  0  0  0  0
 61 69  1  0  0  0  0
 62121  1  0  0  0  0
 62122  1  0  0  0  0
 63 70  1  0  0  0  0
 63123  1  0  0  0  0
 63124  1  0  0  0  0
 64 65  1  0  0  0  0
 64 67  1  0  0  0  0
 64126  1  0  0  0  0
 67129  1  0  0  0  0
 67130  1  0  0  0  0
 68 71  1  0  0  0  0
 68133  1  0  0  0  0
 69 72  2  0  0  0  0
 69134  1  0  0  0  0
 71 73  2  0  0  0  0
 71138  1  0  0  0  0
 72 73  1  0  0  0  0
 72139  1  0  0  0  0
 74 75  1  0  0  0  0
 75143  1  0  0  0  0
 75144  1  0  0  0  0
 75145  1  0  0  0  0
M  END
> <PUBCHEM_COMPOUND_CID>
502155
> <PUBCHEM_COMPOUND_CANONICALIZED>
1
> <PUBCHEM_CACTVS_COMPLEXITY>
1960
> <PUBCHEM_CACTVS_HBOND_ACCEPTOR>
20
> <PUBCHEM_CACTVS_HBOND_DONOR>
15
> <PUBCHEM_CACTVS_ROTATABLE_BOND>
22
> <PUBCHEM_CACTVS_SUBSKEYS>
AAADcfB//ABwAAAAAAAAAAAAAAAAAAAAAAAwAAAAAAAAAAABAAAAHgQQCAAADCzF2ASyDoLAAgCIAiHSGAACAAAgIAAIiIGOCIgKZjqC0TOUcAAk1hGYmAedyKCOIAAAAAAAAABAAAAAAAAAAAAAAAAAAA==
> <PUBCHEM_IUPAC_OPENEYE_NAME>
(4R,7S,10S,13R)-13-[[(2S)-2-[[(4R,7S,10S,13R)-13-acetamido-7-(4-aminobutyl)-10-(2-amino-2-oxo-ethyl)-6,9,12-trioxo-1,2-dithia-5,8,11-triazacyclotetradecane-4-carbonyl]amino]-3-(4-hydroxyphenyl)propanoyl]amino]-7,10-bis(4-aminobutyl)-6,9,12-trioxo-1,2-dithia-5,8,11-triazacyclotetradecane-4-carboxylic acid
> <PUBCHEM_IUPAC_CAS_NAME>
(4R,7S,10S,13R)-13-[[(2S)-2-[[[(4R,7S,10S,13R)-13-acetamido-7-(4-aminobutyl)-10-(2-amino-2-oxoethyl)-6,9,12-trioxo-1,2-dithia-5,8,11-triazacyclotetradec-4-yl]-oxomethyl]amino]-3-(4-hydroxyphenyl)-1-oxopropyl]amino]-7,10-bis(4-aminobutyl)-6,9,12-trioxo-1,2-dithia-5,8,11-triazacyclotetradecane-4-carboxylic acid
> <PUBCHEM_IUPAC_NAME_MARKUP>
(4<I>R</I>,7<I>S</I>,10<I>S</I>,13<I>R</I>)-13-[[(2<I>S</I>)-2-[[(4<I>R</I>,7<I>S</I>,10<I>S</I>,13<I>R</I>)-13-acetamido-7-(4-aminobutyl)-10-(2-amino-2-oxoethyl)-6,9,12-trioxo-1,2-dithia-5,8,11-triazacyclotetradecane-4-carbonyl]amino]-3-(4-hydroxyphenyl)propanoyl]amino]-7,10-bis(4-aminobutyl)-6,9,12-trioxo-1,2-dithia-5,8,11-triazacyclotetradecane-4-carboxylic acid
> <PUBCHEM_IUPAC_NAME>
(4R,7S,10S,13R)-13-[[(2S)-2-[[(4R,7S,10S,13R)-13-acetamido-7-(4-aminobutyl)-10-(2-amino-2-oxoethyl)-6,9,12-trioxo-1,2-dithia-5,8,11-triazacyclotetradecane-4-carbonyl]amino]-3-(4-hydroxyphenyl)propanoyl]amino]-7,10-bis(4-aminobutyl)-6,9,12-trioxo-1,2-dithia-5,8,11-triazacyclotetradecane-4-carboxylic acid
> <PUBCHEM_IUPAC_SYSTEMATIC_NAME>
(4R,7S,10S,13R)-13-[[(2S)-2-[[(4R,7S,10S,13R)-13-acetamido-7-(4-azanylbutyl)-10-(2-azanyl-2-oxidanylidene-ethyl)-6,9,12-tris(oxidanylidene)-1,2-dithia-5,8,11-triazacyclotetradec-4-yl]carbonylamino]-3-(4-hydroxyphenyl)propanoyl]amino]-7,10-bis(4-azanylbutyl)-6,9,12-tris(oxidanylidene)-1,2-dithia-5,8,11-triazacyclotetradecane-4-carboxylic acid
> <PUBCHEM_IUPAC_TRADITIONAL_NAME>
(4R,7S,10S,13R)-13-[[(2S)-2-[[(4R,7S,10S,13R)-13-acetamido-7-(4-aminobutyl)-10-(2-amino-2-keto-ethyl)-6,9,12-triketo-1,2-dithia-5,8,11-triazacyclotetradecane-4-carbonyl]amino]-3-(4-hydroxyphenyl)propanoyl]amino]-7,10-bis(4-aminobutyl)-6,9,12-triketo-1,2-dithia-5,8,11-triazacyclotetradecane-4-carboxylic acid
> <PUBCHEM_IUPAC_INCHI>
InChI=1S/C45H71N13O13S4/c1-24(59)50-32-20-72-73-22-34(56-38(63)28(9-3-6-16-47)52-41(66)31(19-36(49)61)55-42(32)67)44(69)54-30(18-25-11-13-26(60)14-12-25)40(65)57-33-21-74-75-23-35(45(70)71)58-39(64)29(10-4-7-17-48)51-37(62)27(53-43(33)68)8-2-5-15-46/h11-14,27-35,60H,2-10,15-23,46-48H2,1H3,(H2,49,61)(H,50,59)(H,51,62)(H,52,66)(H,53,68)(H,54,69)(H,55,67)(H,56,63)(H,57,65)(H,58,64)(H,70,71)/t27-,28-,29-,30-,31-,32-,33-,34-,35-/m0/s1
> <PUBCHEM_IUPAC_INCHIKEY>
BOYDVAHRUGGRIS-AGQURRGHSA-N
> <PUBCHEM_XLOGP3_AA>
-6.3
> <PUBCHEM_EXACT_MASS>
1129.41771406
> <PUBCHEM_MOLECULAR_FORMULA>
C45H71N13O13S4
> <PUBCHEM_MOLECULAR_WEIGHT>
1130.4
> <PUBCHEM_OPENEYE_CAN_SMILES>
CC(=O)NC1CSSCC(NC(=O)C(NC(=O)C(NC1=O)CC(=O)N)CCCCN)C(=O)NC(CC2=CC=C(C=C2)O)C(=O)NC3CSSCC(NC(=O)C(NC(=O)C(NC3=O)CCCCN)CCCCN)C(=O)O
> <PUBCHEM_OPENEYE_ISO_SMILES>
CC(=O)N[C@H]1CSSC[C@H](NC(=O)[C@@H](NC(=O)[C@@H](NC1=O)CC(=O)N)CCCCN)C(=O)N[C@@H](CC2=CC=C(C=C2)O)C(=O)N[C@H]3CSSC[C@H](NC(=O)[C@@H](NC(=O)[C@@H](NC3=O)CCCCN)CCCCN)C(=O)O
> <PUBCHEM_CACTVS_TPSA>
542
> <PUBCHEM_MONOISOTOPIC_WEIGHT>
1129.41771406
> <PUBCHEM_TOTAL_CHARGE>
0
> <PUBCHEM_HEAVY_ATOM_COUNT>
75
> <PUBCHEM_ATOM_DEF_STEREO_COUNT>
9
> <PUBCHEM_ATOM_UDEF_STEREO_COUNT>
0
> <PUBCHEM_BOND_DEF_STEREO_COUNT>
0
> <PUBCHEM_BOND_UDEF_STEREO_COUNT>
0
> <PUBCHEM_ISOTOPIC_ATOM_COUNT>
0
> <PUBCHEM_COMPONENT_COUNT>
1
> <PUBCHEM_CACTVS_TAUTO_COUNT>
-1
> <PUBCHEM_COORDINATE_TYPE>
1
5
255
> <PUBCHEM_BONDANNOTATIONS>
40  20  5
43  23  5
64  29  5
31  32  5
33  34  6
37  39  6
47  55  5
54  63  5
56  66  5
61  68  8
61  69  8
68  71  8
69  72  8
71  73  8
72  73  8
$$$$
