502197
  -OEChem-10302200282D
 42 46  0     1  0  0  0  0  0999 V2000
    3.5000   -2.5981    0.0000 O   0  0  0  0  0  0  0  0  0  0  0  0
    5.0000   -0.0000    0.0000 N   0  0  0  0  0  0  0  0  0  0  0  0
    5.0000   -1.7320    0.0000 N   0  0  0  0  0  0  0  0  0  0  0  0
    5.6671    0.7370    0.0000 N   0  0  0  0  0  0  0  0  0  0  0  0
    6.4718   -0.6568    0.0000 N   0  0  0  0  0  0  0  0  0  0  0  0
    4.0000   -0.0000    0.0000 C   0  0  3  0  0  0  0  0  0  0  0  0
    3.5000   -0.8660    0.0000 C   0  0  0  0  0  0  0  0  0  0  0  0
    3.5000    0.8660    0.0000 C   0  0  0  0  0  0  0  0  0  0  0  0
    5.5000   -0.8660    0.0000 C   0  0  0  0  0  0  0  0  0  0  0  0
    4.0000   -1.7320    0.0000 C   0  0  0  0  0  0  0  0  0  0  0  0
    6.5749    0.3319    0.0000 C   0  0  0  0  0  0  0  0  0  0  0  0
    4.0000    1.7320    0.0000 C   0  0  0  0  0  0  0  0  0  0  0  0
    2.5000    0.8660    0.0000 C   0  0  0  0  0  0  0  0  0  0  0  0
    7.4409    0.8319    0.0000 C   0  0  0  0  0  0  0  0  0  0  0  0
    8.3069    0.3319    0.0000 C   0  0  0  0  0  0  0  0  0  0  0  0
    9.1730    0.8319    0.0000 C   0  0  0  0  0  0  0  0  0  0  0  0
    7.4409    1.8319    0.0000 C   0  0  0  0  0  0  0  0  0  0  0  0
    9.1730    1.8319    0.0000 C   0  0  0  0  0  0  0  0  0  0  0  0
    3.5000    2.5981    0.0000 C   0  0  0  0  0  0  0  0  0  0  0  0
    2.0000    1.7320    0.0000 C   0  0  0  0  0  0  0  0  0  0  0  0
    8.3069    2.3319    0.0000 C   0  0  0  0  0  0  0  0  0  0  0  0
    2.5000    2.5981    0.0000 C   0  0  0  0  0  0  0  0  0  0  0  0
   10.0669    0.2972    0.0000 C   0  0  0  0  0  0  0  0  0  0  0  0
   10.0669    2.3666    0.0000 C   0  0  0  0  0  0  0  0  0  0  0  0
   10.9730    0.8111    0.0000 C   0  0  0  0  0  0  0  0  0  0  0  0
   10.9730    1.8527    0.0000 C   0  0  0  0  0  0  0  0  0  0  0  0
    3.3800   -0.0000    0.0000 H   0  0  0  0  0  0  0  0  0  0  0  0
    3.0250   -0.4675    0.0000 H   0  0  0  0  0  0  0  0  0  0  0  0
    3.0250   -1.2646    0.0000 H   0  0  0  0  0  0  0  0  0  0  0  0
    5.3100   -2.2690    0.0000 H   0  0  0  0  0  0  0  0  0  0  0  0
    4.6200    1.7320    0.0000 H   0  0  0  0  0  0  0  0  0  0  0  0
    2.1900    0.3291    0.0000 H   0  0  0  0  0  0  0  0  0  0  0  0
    8.3069   -0.2881    0.0000 H   0  0  0  0  0  0  0  0  0  0  0  0
    6.9040    2.1419    0.0000 H   0  0  0  0  0  0  0  0  0  0  0  0
    3.8100    3.1350    0.0000 H   0  0  0  0  0  0  0  0  0  0  0  0
    1.3800    1.7320    0.0000 H   0  0  0  0  0  0  0  0  0  0  0  0
    8.3069    2.9519    0.0000 H   0  0  0  0  0  0  0  0  0  0  0  0
    2.1900    3.1350    0.0000 H   0  0  0  0  0  0  0  0  0  0  0  0
   10.0597   -0.3227    0.0000 H   0  0  0  0  0  0  0  0  0  0  0  0
   10.0597    2.9865    0.0000 H   0  0  0  0  0  0  0  0  0  0  0  0
   11.5087    0.4990    0.0000 H   0  0  0  0  0  0  0  0  0  0  0  0
   11.5087    2.1648    0.0000 H   0  0  0  0  0  0  0  0  0  0  0  0
  1 10  2  0  0  0  0
  2  4  1  0  0  0  0
  2  6  1  0  0  0  0
  2  9  1  0  0  0  0
  3  9  1  0  0  0  0
  3 10  1  0  0  0  0
  3 30  1  0  0  0  0
  4 11  2  0  0  0  0
  5  9  2  0  0  0  0
  5 11  1  0  0  0  0
  6  7  1  0  0  0  0
  6  8  1  0  0  0  0
  6 27  1  0  0  0  0
  7 10  1  0  0  0  0
  7 28  1  0  0  0  0
  7 29  1  0  0  0  0
  8 12  2  0  0  0  0
  8 13  1  0  0  0  0
 11 14  1  0  0  0  0
 12 19  1  0  0  0  0
 12 31  1  0  0  0  0
 13 20  2  0  0  0  0
 13 32  1  0  0  0  0
 14 15  2  0  0  0  0
 14 17  1  0  0  0  0
 15 16  1  0  0  0  0
 15 33  1  0  0  0  0
 16 18  1  0  0  0  0
 16 23  2  0  0  0  0
 17 21  2  0  0  0  0
 17 34  1  0  0  0  0
 18 21  1  0  0  0  0
 18 24  2  0  0  0  0
 19 22  2  0  0  0  0
 19 35  1  0  0  0  0
 20 22  1  0  0  0  0
 20 36  1  0  0  0  0
 21 37  1  0  0  0  0
 22 38  1  0  0  0  0
 23 25  1  0  0  0  0
 23 39  1  0  0  0  0
 24 26  1  0  0  0  0
 24 40  1  0  0  0  0
 25 26  2  0  0  0  0
 25 41  1  0  0  0  0
 26 42  1  0  0  0  0
M  END
> <PUBCHEM_COMPOUND_CID>
502197
> <PUBCHEM_COMPOUND_CANONICALIZED>
1
> <PUBCHEM_CACTVS_COMPLEXITY>
520
> <PUBCHEM_CACTVS_HBOND_ACCEPTOR>
3
> <PUBCHEM_CACTVS_HBOND_DONOR>
1
> <PUBCHEM_CACTVS_ROTATABLE_BOND>
2
> <PUBCHEM_CACTVS_SUBSKEYS>
AAADceB7oAAAAAAAAAAAAAAAAAAAAWAAAAA8YMEAAAAAAFjB1AAAHgAYAAAADCjBmwQxEMbIEACqAiNyNACSgAsggKAdyCEoBJiIKLqA2RGEIAh4mQIIiAcYiMCOwAACAAAQAACAAAQAACAAAAAAAAAAAA==
> <PUBCHEM_IUPAC_OPENEYE_NAME>
2-(2-naphthyl)-7-phenyl-6,7-dihydro-4H-[1,2,4]triazolo[1,5-a]pyrimidin-5-one
> <PUBCHEM_IUPAC_CAS_NAME>
2-(2-naphthalenyl)-7-phenyl-6,7-dihydro-4H-[1,2,4]triazolo[1,5-a]pyrimidin-5-one
> <PUBCHEM_IUPAC_NAME_MARKUP>
2-naphthalen-2-yl-7-phenyl-6,7-dihydro-4<I>H</I>-[1,2,4]triazolo[1,5-a]pyrimidin-5-one
> <PUBCHEM_IUPAC_NAME>
2-naphthalen-2-yl-7-phenyl-6,7-dihydro-4H-[1,2,4]triazolo[1,5-a]pyrimidin-5-one
> <PUBCHEM_IUPAC_SYSTEMATIC_NAME>
2-naphthalen-2-yl-7-phenyl-6,7-dihydro-4H-[1,2,4]triazolo[1,5-a]pyrimidin-5-one
> <PUBCHEM_IUPAC_TRADITIONAL_NAME>
2-(2-naphthyl)-7-phenyl-6,7-dihydro-4H-[1,2,4]triazolo[1,5-a]pyrimidin-5-one
> <PUBCHEM_IUPAC_INCHI>
InChI=1S/C21H16N4O/c26-19-13-18(15-7-2-1-3-8-15)25-21(22-19)23-20(24-25)17-11-10-14-6-4-5-9-16(14)12-17/h1-12,18H,13H2,(H,22,23,24,26)
> <PUBCHEM_IUPAC_INCHIKEY>
QSOMCTIHESNACN-UHFFFAOYSA-N
> <PUBCHEM_XLOGP3_AA>
3.8
> <PUBCHEM_EXACT_MASS>
340.13241115
> <PUBCHEM_MOLECULAR_FORMULA>
C21H16N4O
> <PUBCHEM_MOLECULAR_WEIGHT>
340.4
> <PUBCHEM_OPENEYE_CAN_SMILES>
C1C(N2C(=NC(=N2)C3=CC4=CC=CC=C4C=C3)NC1=O)C5=CC=CC=C5
> <PUBCHEM_OPENEYE_ISO_SMILES>
C1C(N2C(=NC(=N2)C3=CC4=CC=CC=C4C=C3)NC1=O)C5=CC=CC=C5
> <PUBCHEM_CACTVS_TPSA>
59.8
> <PUBCHEM_MONOISOTOPIC_WEIGHT>
340.13241115
> <PUBCHEM_TOTAL_CHARGE>
0
> <PUBCHEM_HEAVY_ATOM_COUNT>
26
> <PUBCHEM_ATOM_DEF_STEREO_COUNT>
0
> <PUBCHEM_ATOM_UDEF_STEREO_COUNT>
1
> <PUBCHEM_BOND_DEF_STEREO_COUNT>
0
> <PUBCHEM_BOND_UDEF_STEREO_COUNT>
0
> <PUBCHEM_ISOTOPIC_ATOM_COUNT>
0
> <PUBCHEM_COMPONENT_COUNT>
1
> <PUBCHEM_CACTVS_TAUTO_COUNT>
-1
> <PUBCHEM_COORDINATE_TYPE>
1
5
255
> <PUBCHEM_BONDANNOTATIONS>
12  19  8
13  20  8
14  15  8
14  17  8
15  16  8
16  18  8
16  23  8
17  21  8
18  21  8
18  24  8
19  22  8
2  4  8
2  9  8
20  22  8
23  25  8
24  26  8
25  26  8
4  11  8
5  11  8
5  9  8
6  8  3
8  12  8
8  13  8
$$$$
