502141
  -OEChem-10302200282D
 53 53  0     1  0  0  0  0  0999 V2000
    5.1350    2.4400    0.0000 O   0  0  0  0  0  0  0  0  0  0  0  0
    4.2690    2.9400    0.0000 O   0  0  0  0  0  0  0  0  0  0  0  0
    2.5369   -0.0600    0.0000 O   0  0  0  0  0  0  0  0  0  0  0  0
    6.0010    0.9400    0.0000 N   0  0  0  0  0  0  0  0  0  0  0  0
    4.2690   -0.0600    0.0000 N   0  0  0  0  0  0  0  0  0  0  0  0
   12.9292    0.9400    0.0000 N   0  0  0  0  0  0  0  0  0  0  0  0
    2.5369    2.9400    0.0000 N   0  0  0  0  0  0  0  0  0  0  0  0
    8.5991    1.4400    0.0000 C   0  0  0  0  0  0  0  0  0  0  0  0
    9.4651    0.9400    0.0000 C   0  0  0  0  0  0  0  0  0  0  0  0
    7.7331    0.9400    0.0000 C   0  0  0  0  0  0  0  0  0  0  0  0
   10.3312    1.4400    0.0000 C   0  0  0  0  0  0  0  0  0  0  0  0
    6.8671    1.4400    0.0000 C   0  0  0  0  0  0  0  0  0  0  0  0
   11.1972    0.9400    0.0000 C   0  0  0  0  0  0  0  0  0  0  0  0
    4.2690    0.9400    0.0000 C   0  0  3  0  0  0  0  0  0  0  0  0
   12.0632    1.4400    0.0000 C   0  0  0  0  0  0  0  0  0  0  0  0
    5.1350    1.4400    0.0000 C   0  0  0  0  0  0  0  0  0  0  0  0
    3.4030    1.4400    0.0000 C   0  0  0  0  0  0  0  0  0  0  0  0
    3.4030    2.4400    0.0000 C   0  0  0  0  0  0  0  0  0  0  0  0
    3.4030   -0.5600    0.0000 C   0  0  0  0  0  0  0  0  0  0  0  0
    3.4030   -1.5600    0.0000 C   0  0  0  0  0  0  0  0  0  0  0  0
    2.5369   -2.0600    0.0000 C   0  0  0  0  0  0  0  0  0  0  0  0
    4.2690   -2.0600    0.0000 C   0  0  0  0  0  0  0  0  0  0  0  0
    2.5369   -3.0600    0.0000 C   0  0  0  0  0  0  0  0  0  0  0  0
    4.2690   -3.0600    0.0000 C   0  0  0  0  0  0  0  0  0  0  0  0
    3.4030   -3.5600    0.0000 C   0  0  0  0  0  0  0  0  0  0  0  0
    8.9976    1.9150    0.0000 H   0  0  0  0  0  0  0  0  0  0  0  0
    8.2006    1.9150    0.0000 H   0  0  0  0  0  0  0  0  0  0  0  0
    9.0666    0.4651    0.0000 H   0  0  0  0  0  0  0  0  0  0  0  0
    9.8637    0.4651    0.0000 H   0  0  0  0  0  0  0  0  0  0  0  0
    7.3346    0.4651    0.0000 H   0  0  0  0  0  0  0  0  0  0  0  0
    8.1316    0.4651    0.0000 H   0  0  0  0  0  0  0  0  0  0  0  0
   10.7297    1.9150    0.0000 H   0  0  0  0  0  0  0  0  0  0  0  0
    9.9326    1.9150    0.0000 H   0  0  0  0  0  0  0  0  0  0  0  0
    7.2656    1.9150    0.0000 H   0  0  0  0  0  0  0  0  0  0  0  0
    6.4685    1.9150    0.0000 H   0  0  0  0  0  0  0  0  0  0  0  0
   10.7987    0.4651    0.0000 H   0  0  0  0  0  0  0  0  0  0  0  0
   11.5957    0.4651    0.0000 H   0  0  0  0  0  0  0  0  0  0  0  0
    4.8059    0.6300    0.0000 H   0  0  0  0  0  0  0  0  0  0  0  0
    6.0010    0.3200    0.0000 H   0  0  0  0  0  0  0  0  0  0  0  0
   12.4617    1.9150    0.0000 H   0  0  0  0  0  0  0  0  0  0  0  0
   11.6647    1.9150    0.0000 H   0  0  0  0  0  0  0  0  0  0  0  0
    2.7924    1.5477    0.0000 H   0  0  0  0  0  0  0  0  0  0  0  0
    3.1909    0.8574    0.0000 H   0  0  0  0  0  0  0  0  0  0  0  0
    4.8059   -0.3700    0.0000 H   0  0  0  0  0  0  0  0  0  0  0  0
   13.4662    1.2500    0.0000 H   0  0  0  0  0  0  0  0  0  0  0  0
   12.9292    0.3200    0.0000 H   0  0  0  0  0  0  0  0  0  0  0  0
    2.5369    3.5600    0.0000 H   0  0  0  0  0  0  0  0  0  0  0  0
    2.0000    2.6300    0.0000 H   0  0  0  0  0  0  0  0  0  0  0  0
    2.0000   -1.7500    0.0000 H   0  0  0  0  0  0  0  0  0  0  0  0
    4.8059   -1.7500    0.0000 H   0  0  0  0  0  0  0  0  0  0  0  0
    2.0000   -3.3700    0.0000 H   0  0  0  0  0  0  0  0  0  0  0  0
    4.8059   -3.3700    0.0000 H   0  0  0  0  0  0  0  0  0  0  0  0
    3.4030   -4.1800    0.0000 H   0  0  0  0  0  0  0  0  0  0  0  0
  1 16  2  0  0  0  0
  2 18  2  0  0  0  0
  3 19  2  0  0  0  0
  4 12  1  0  0  0  0
  4 16  1  0  0  0  0
  4 39  1  0  0  0  0
  5 14  1  0  0  0  0
  5 19  1  0  0  0  0
  5 44  1  0  0  0  0
  6 15  1  0  0  0  0
  6 45  1  0  0  0  0
  6 46  1  0  0  0  0
  7 18  1  0  0  0  0
  7 47  1  0  0  0  0
  7 48  1  0  0  0  0
  8  9  1  0  0  0  0
  8 10  1  0  0  0  0
  8 26  1  0  0  0  0
  8 27  1  0  0  0  0
  9 11  1  0  0  0  0
  9 28  1  0  0  0  0
  9 29  1  0  0  0  0
 10 12  1  0  0  0  0
 10 30  1  0  0  0  0
 10 31  1  0  0  0  0
 11 13  1  0  0  0  0
 11 32  1  0  0  0  0
 11 33  1  0  0  0  0
 12 34  1  0  0  0  0
 12 35  1  0  0  0  0
 13 15  1  0  0  0  0
 13 36  1  0  0  0  0
 13 37  1  0  0  0  0
 14 16  1  0  0  0  0
 14 17  1  0  0  0  0
 14 38  1  0  0  0  0
 15 40  1  0  0  0  0
 15 41  1  0  0  0  0
 17 18  1  0  0  0  0
 17 42  1  0  0  0  0
 17 43  1  0  0  0  0
 19 20  1  0  0  0  0
 20 21  2  0  0  0  0
 20 22  1  0  0  0  0
 21 23  1  0  0  0  0
 21 49  1  0  0  0  0
 22 24  2  0  0  0  0
 22 50  1  0  0  0  0
 23 25  2  0  0  0  0
 23 51  1  0  0  0  0
 24 25  1  0  0  0  0
 24 52  1  0  0  0  0
 25 53  1  0  0  0  0
M  END
> <PUBCHEM_COMPOUND_CID>
502141
> <PUBCHEM_COMPOUND_CANONICALIZED>
1
> <PUBCHEM_CACTVS_COMPLEXITY>
423
> <PUBCHEM_CACTVS_HBOND_ACCEPTOR>
4
> <PUBCHEM_CACTVS_HBOND_DONOR>
4
> <PUBCHEM_CACTVS_ROTATABLE_BOND>
12
> <PUBCHEM_CACTVS_SUBSKEYS>
AAADceB7sAAAAAAAAAAAAAAAAAAAAAAAAAAwAAAAAAAAAAABAAAAHgAQAAAADCjBmAQwAILAAACIAiFSEACCAAAkAAAIiIGIBMgIYDqA1TGUIQhglgCIiYcdiACOAAAAAAAAAAAAAAAAAAAAAAAAAAAAAA==
> <PUBCHEM_IUPAC_OPENEYE_NAME>
N-(7-aminoheptyl)-2-benzamido-butanediamide
> <PUBCHEM_IUPAC_CAS_NAME>
N-(7-aminoheptyl)-2-benzamidobutanediamide
> <PUBCHEM_IUPAC_NAME_MARKUP>
<I>N</I>-(7-aminoheptyl)-2-benzamidobutanediamide
> <PUBCHEM_IUPAC_NAME>
N-(7-aminoheptyl)-2-benzamidobutanediamide
> <PUBCHEM_IUPAC_SYSTEMATIC_NAME>
N-(7-azanylheptyl)-2-benzamido-butanediamide
> <PUBCHEM_IUPAC_TRADITIONAL_NAME>
N-(7-aminoheptyl)-2-benzamido-succinamide
> <PUBCHEM_IUPAC_INCHI>
InChI=1S/C18H28N4O3/c19-11-7-2-1-3-8-12-21-18(25)15(13-16(20)23)22-17(24)14-9-5-4-6-10-14/h4-6,9-10,15H,1-3,7-8,11-13,19H2,(H2,20,23)(H,21,25)(H,22,24)
> <PUBCHEM_IUPAC_INCHIKEY>
QAHACAOWCLZBDL-UHFFFAOYSA-N
> <PUBCHEM_XLOGP3_AA>
0.5
> <PUBCHEM_EXACT_MASS>
348.21614077
> <PUBCHEM_MOLECULAR_FORMULA>
C18H28N4O3
> <PUBCHEM_MOLECULAR_WEIGHT>
348.4
> <PUBCHEM_OPENEYE_CAN_SMILES>
C1=CC=C(C=C1)C(=O)NC(CC(=O)N)C(=O)NCCCCCCCN
> <PUBCHEM_OPENEYE_ISO_SMILES>
C1=CC=C(C=C1)C(=O)NC(CC(=O)N)C(=O)NCCCCCCCN
> <PUBCHEM_CACTVS_TPSA>
127
> <PUBCHEM_MONOISOTOPIC_WEIGHT>
348.21614077
> <PUBCHEM_TOTAL_CHARGE>
0
> <PUBCHEM_HEAVY_ATOM_COUNT>
25
> <PUBCHEM_ATOM_DEF_STEREO_COUNT>
0
> <PUBCHEM_ATOM_UDEF_STEREO_COUNT>
1
> <PUBCHEM_BOND_DEF_STEREO_COUNT>
0
> <PUBCHEM_BOND_UDEF_STEREO_COUNT>
0
> <PUBCHEM_ISOTOPIC_ATOM_COUNT>
0
> <PUBCHEM_COMPONENT_COUNT>
1
> <PUBCHEM_CACTVS_TAUTO_COUNT>
-1
> <PUBCHEM_COORDINATE_TYPE>
1
5
255
> <PUBCHEM_BONDANNOTATIONS>
14  17  3
20  21  8
20  22  8
21  23  8
22  24  8
23  25  8
24  25  8
$$$$
