502170
  -OEChem-10302200282D
128134  0     1  0  0  0  0  0999 V2000
   22.2123    0.7669    0.0000 O   0  0  0  0  0  0  0  0  0  0  0  0
   21.3578   -0.7397    0.0000 O   0  0  0  0  0  0  0  0  0  0  0  0
   12.4269   -0.8163    0.0000 O   0  0  0  0  0  0  0  0  0  0  0  0
    7.2270   -1.7962    0.0000 O   0  0  0  0  0  0  0  0  0  0  0  0
    8.0872   -3.2995    0.0000 O   0  0  0  0  0  0  0  0  0  0  0  0
    5.3942   -0.7946    0.0000 O   0  0  0  0  0  0  0  0  0  0  0  0
    2.4287   -0.3662    0.0000 O   0  0  0  0  0  0  0  0  0  0  0  0
    2.8040    3.0775    0.0000 O   0  0  0  0  0  0  0  0  0  0  0  0
   13.2872   -2.3196    0.0000 N   0  0  0  0  0  0  0  0  0  0  0  0
    4.0137    0.3322    0.0000 N   0  0  0  0  0  0  0  0  0  0  0  0
    4.3681   -3.1701    0.0000 N   0  0  0  0  0  0  0  0  0  0  0  0
    3.4159   -3.4754    0.0000 N   0  3  0  0  0  0  0  0  0  0  0  0
    2.6164    1.3556    0.0000 N   0  0  0  0  0  0  0  0  0  0  0  0
    2.4636   -3.7808    0.0000 N   0  5  0  0  0  0  0  0  0  0  0  0
   17.8142   -0.7672    0.0000 C   0  0  2  0  0  0  0  0  0  0  0  0
   16.0382   -0.7741    0.0000 C   0  0  2  0  0  0  0  0  0  0  0  0
   16.9482   -0.2672    0.0000 C   0  0  1  0  0  0  0  0  0  0  0  0
   18.6802   -0.2672    0.0000 C   0  0  1  0  0  0  0  0  0  0  0  0
   16.0302   -1.8157    0.0000 C   0  0  2  0  0  0  0  0  0  0  0  0
   17.8303   -1.8088    0.0000 C   0  0  0  0  0  0  0  0  0  0  0  0
   15.0947   -2.3654    0.0000 C   0  0  0  0  0  0  0  0  0  0  0  0
   16.9322   -2.3365    0.0000 C   0  0  0  0  0  0  0  0  0  0  0  0
   18.6802    0.7328    0.0000 C   0  0  0  0  0  0  0  0  0  0  0  0
   15.1114   -0.2100    0.0000 C   0  0  0  0  0  0  0  0  0  0  0  0
   16.9482    0.7328    0.0000 C   0  0  0  0  0  0  0  0  0  0  0  0
   19.5742    1.2674    0.0000 C   0  0  1  0  0  0  0  0  0  0  0  0
   19.5742   -0.8019    0.0000 C   0  0  0  0  0  0  0  0  0  0  0  0
   20.4803    0.7536    0.0000 C   0  0  1  0  0  0  0  0  0  0  0  0
   14.1551   -1.8229    0.0000 C   0  0  1  0  0  0  0  0  0  0  0  0
   18.4570   -1.5333    0.0000 C   0  0  0  0  0  0  0  0  0  0  0  0
   20.4803   -0.2881    0.0000 C   0  0  0  0  0  0  0  0  0  0  0  0
   14.1635   -0.7380    0.0000 C   0  0  0  0  0  0  0  0  0  0  0  0
   16.0459    0.2259    0.0000 C   0  0  0  0  0  0  0  0  0  0  0  0
   17.8142    1.2328    0.0000 C   0  0  0  0  0  0  0  0  0  0  0  0
   19.0224   -1.2069    0.0000 C   0  0  0  0  0  0  0  0  0  0  0  0
   19.5491    2.3521    0.0000 C   0  0  0  0  0  0  0  0  0  0  0  0
   21.4240    1.2888    0.0000 C   0  0  0  0  0  0  0  0  0  0  0  0
   20.4803    2.9090    0.0000 C   0  0  0  0  0  0  0  0  0  0  0  0
   14.5981   -3.2334    0.0000 C   0  0  0  0  0  0  0  0  0  0  0  0
   15.5981   -3.2295    0.0000 C   0  0  0  0  0  0  0  0  0  0  0  0
   21.4240    2.3738    0.0000 C   0  0  0  0  0  0  0  0  0  0  0  0
   21.3501    0.2603    0.0000 C   0  0  0  0  0  0  0  0  0  0  0  0
   20.9702    3.7808    0.0000 C   0  0  0  0  0  0  0  0  0  0  0  0
   19.9703    3.7692    0.0000 C   0  0  0  0  0  0  0  0  0  0  0  0
   12.4231   -1.8162    0.0000 C   0  0  0  0  0  0  0  0  0  0  0  0
   11.5551   -2.3129    0.0000 C   0  0  0  0  0  0  0  0  0  0  0  0
   10.6910   -1.8096    0.0000 C   0  0  0  0  0  0  0  0  0  0  0  0
    9.8231   -2.3062    0.0000 C   0  0  0  0  0  0  0  0  0  0  0  0
    8.9590   -1.8029    0.0000 C   0  0  0  0  0  0  0  0  0  0  0  0
    8.0910   -2.2996    0.0000 C   0  0  0  0  0  0  0  0  0  0  0  0
    6.3590   -2.2929    0.0000 C   0  0  0  0  0  0  0  0  0  0  0  0
    5.4949   -1.7895    0.0000 C   0  0  2  0  0  0  0  0  0  0  0  0
    4.5798   -2.1928    0.0000 C   0  0  2  0  0  0  0  0  0  0  0  0
    3.9136   -1.4470    0.0000 C   0  0  0  0  0  0  0  0  0  0  0  0
    4.4169   -0.5829    0.0000 C   0  0  1  0  0  0  0  0  0  0  0  0
    4.6046    1.1389    0.0000 C   0  0  0  0  0  0  0  0  0  0  0  0
    3.0196    0.4405    0.0000 C   0  0  0  0  0  0  0  0  0  0  0  0
    4.2014    2.0540    0.0000 C   0  0  0  0  0  0  0  0  0  0  0  0
    3.2072    2.1624    0.0000 C   0  0  0  0  0  0  0  0  0  0  0  0
    4.7923    2.8608    0.0000 C   0  0  0  0  0  0  0  0  0  0  0  0
   17.6843    0.1578    0.0000 H   0  0  0  0  0  0  0  0  0  0  0  0
   16.0334   -2.6657    0.0000 H   0  0  0  0  0  0  0  0  0  0  0  0
   18.0483   -2.3892    0.0000 H   0  0  0  0  0  0  0  0  0  0  0  0
   18.4394   -1.6933    0.0000 H   0  0  0  0  0  0  0  0  0  0  0  0
   16.5349   -2.8125    0.0000 H   0  0  0  0  0  0  0  0  0  0  0  0
   17.3332   -2.8094    0.0000 H   0  0  0  0  0  0  0  0  0  0  0  0
   15.5196    0.2566    0.0000 H   0  0  0  0  0  0  0  0  0  0  0  0
   14.7214    0.2720    0.0000 H   0  0  0  0  0  0  0  0  0  0  0  0
   16.7361    1.3154    0.0000 H   0  0  0  0  0  0  0  0  0  0  0  0
   16.3376    0.6251    0.0000 H   0  0  0  0  0  0  0  0  0  0  0  0
   20.3037    1.7037    0.0000 H   0  0  0  0  0  0  0  0  0  0  0  0
   19.1696   -1.2717    0.0000 H   0  0  0  0  0  0  0  0  0  0  0  0
   19.9678   -1.2809    0.0000 H   0  0  0  0  0  0  0  0  0  0  0  0
   14.1539   -2.4429    0.0000 H   0  0  0  0  0  0  0  0  0  0  0  0
   17.9821   -1.9318    0.0000 H   0  0  0  0  0  0  0  0  0  0  0  0
   18.8555   -2.0082    0.0000 H   0  0  0  0  0  0  0  0  0  0  0  0
   18.9320   -1.1348    0.0000 H   0  0  0  0  0  0  0  0  0  0  0  0
   20.6893   -0.8718    0.0000 H   0  0  0  0  0  0  0  0  0  0  0  0
   21.0911   -0.1820    0.0000 H   0  0  0  0  0  0  0  0  0  0  0  0
   13.9589   -0.1527    0.0000 H   0  0  0  0  0  0  0  0  0  0  0  0
   13.5518   -0.8393    0.0000 H   0  0  0  0  0  0  0  0  0  0  0  0
   16.6659    0.2211    0.0000 H   0  0  0  0  0  0  0  0  0  0  0  0
   16.0507    0.8459    0.0000 H   0  0  0  0  0  0  0  0  0  0  0  0
   15.4259    0.2307    0.0000 H   0  0  0  0  0  0  0  0  0  0  0  0
   17.8142    1.8528    0.0000 H   0  0  0  0  0  0  0  0  0  0  0  0
   18.4398   -1.4190    0.0000 H   0  0  0  0  0  0  0  0  0  0  0  0
   19.2345   -1.7895    0.0000 H   0  0  0  0  0  0  0  0  0  0  0  0
   19.6049   -0.9948    0.0000 H   0  0  0  0  0  0  0  0  0  0  0  0
   19.3266    2.9308    0.0000 H   0  0  0  0  0  0  0  0  0  0  0  0
   18.9409    2.2319    0.0000 H   0  0  0  0  0  0  0  0  0  0  0  0
   21.6331    0.7051    0.0000 H   0  0  0  0  0  0  0  0  0  0  0  0
   22.0349    1.3949    0.0000 H   0  0  0  0  0  0  0  0  0  0  0  0
   14.0600   -2.9254    0.0000 H   0  0  0  0  0  0  0  0  0  0  0  0
   14.2902   -3.7715    0.0000 H   0  0  0  0  0  0  0  0  0  0  0  0
   15.1362   -3.5413    0.0000 H   0  0  0  0  0  0  0  0  0  0  0  0
   15.0623   -3.5416    0.0000 H   0  0  0  0  0  0  0  0  0  0  0  0
   15.9101   -3.7652    0.0000 H   0  0  0  0  0  0  0  0  0  0  0  0
   16.1338   -2.9174    0.0000 H   0  0  0  0  0  0  0  0  0  0  0  0
   22.0349    2.2677    0.0000 H   0  0  0  0  0  0  0  0  0  0  0  0
   21.6331    2.9575    0.0000 H   0  0  0  0  0  0  0  0  0  0  0  0
   13.2848   -2.9396    0.0000 H   0  0  0  0  0  0  0  0  0  0  0  0
   21.5107    3.4770    0.0000 H   0  0  0  0  0  0  0  0  0  0  0  0
   21.2740    4.3213    0.0000 H   0  0  0  0  0  0  0  0  0  0  0  0
   20.4297    4.0846    0.0000 H   0  0  0  0  0  0  0  0  0  0  0  0
   20.5036    4.0854    0.0000 H   0  0  0  0  0  0  0  0  0  0  0  0
   19.6541    4.3025    0.0000 H   0  0  0  0  0  0  0  0  0  0  0  0
   19.4370    3.4530    0.0000 H   0  0  0  0  0  0  0  0  0  0  0  0
   22.7516    0.4611    0.0000 H   0  0  0  0  0  0  0  0  0  0  0  0
   11.1548   -2.7863    0.0000 H   0  0  0  0  0  0  0  0  0  0  0  0
   11.9518   -2.7894    0.0000 H   0  0  0  0  0  0  0  0  0  0  0  0
   11.0914   -1.3362    0.0000 H   0  0  0  0  0  0  0  0  0  0  0  0
   10.2943   -1.3331    0.0000 H   0  0  0  0  0  0  0  0  0  0  0  0
    9.4227   -2.7796    0.0000 H   0  0  0  0  0  0  0  0  0  0  0  0
   10.2198   -2.7827    0.0000 H   0  0  0  0  0  0  0  0  0  0  0  0
    9.3593   -1.3295    0.0000 H   0  0  0  0  0  0  0  0  0  0  0  0
    8.5623   -1.3264    0.0000 H   0  0  0  0  0  0  0  0  0  0  0  0
    5.9586   -2.7663    0.0000 H   0  0  0  0  0  0  0  0  0  0  0  0
    6.7557   -2.7694    0.0000 H   0  0  0  0  0  0  0  0  0  0  0  0
    6.0162   -1.4539    0.0000 H   0  0  0  0  0  0  0  0  0  0  0  0
    5.0601   -2.5848    0.0000 H   0  0  0  0  0  0  0  0  0  0  0  0
    3.4134   -1.0807    0.0000 H   0  0  0  0  0  0  0  0  0  0  0  0
    3.4969   -1.9062    0.0000 H   0  0  0  0  0  0  0  0  0  0  0  0
    3.7979   -0.5481    0.0000 H   0  0  0  0  0  0  0  0  0  0  0  0
    5.2209    1.0717    0.0000 H   0  0  0  0  0  0  0  0  0  0  0  0
    2.0000    1.4228    0.0000 H   0  0  0  0  0  0  0  0  0  0  0  0
    5.2924    2.4944    0.0000 H   0  0  0  0  0  0  0  0  0  0  0  0
    5.1586    3.3609    0.0000 H   0  0  0  0  0  0  0  0  0  0  0  0
    4.2921    3.2271    0.0000 H   0  0  0  0  0  0  0  0  0  0  0  0
  1 42  1  0  0  0  0
  1108  1  0  0  0  0
  2 42  2  0  0  0  0
  3 45  2  0  0  0  0
  4 50  1  0  0  0  0
  4 51  1  0  0  0  0
  5 50  2  0  0  0  0
  6 52  1  0  0  0  0
  6 55  1  0  0  0  0
  7 57  2  0  0  0  0
  8 59  2  0  0  0  0
 29  9  1  6  0  0  0
  9 45  1  0  0  0  0
  9101  1  0  0  0  0
 55 10  1  6  0  0  0
 10 56  1  0  0  0  0
 10 57  1  0  0  0  0
 11 12  2  0  0  0  0
 53 11  1  1  0  0  0
 12 14  2  0  0  0  0
 13 57  1  0  0  0  0
 13 59  1  0  0  0  0
 13125  1  0  0  0  0
 15 17  1  0  0  0  0
 15 18  1  0  0  0  0
 15 20  1  0  0  0  0
 15 30  1  1  0  0  0
 16 17  1  0  0  0  0
 16 19  1  0  0  0  0
 16 24  1  0  0  0  0
 16 33  1  1  0  0  0
 17 25  1  0  0  0  0
 17 61  1  6  0  0  0
 18 23  1  0  0  0  0
 18 27  1  0  0  0  0
 18 35  1  6  0  0  0
 19 21  1  0  0  0  0
 19 22  1  0  0  0  0
 19 62  1  6  0  0  0
 20 22  1  0  0  0  0
 20 63  1  0  0  0  0
 20 64  1  0  0  0  0
 21 29  1  0  0  0  0
 21 39  1  0  0  0  0
 21 40  1  0  0  0  0
 22 65  1  0  0  0  0
 22 66  1  0  0  0  0
 23 26  1  0  0  0  0
 23 34  2  0  0  0  0
 24 32  1  0  0  0  0
 24 67  1  0  0  0  0
 24 68  1  0  0  0  0
 25 34  1  0  0  0  0
 25 69  1  0  0  0  0
 25 70  1  0  0  0  0
 26 28  1  0  0  0  0
 26 36  1  0  0  0  0
 26 71  1  1  0  0  0
 27 31  1  0  0  0  0
 27 72  1  0  0  0  0
 27 73  1  0  0  0  0
 28 31  1  0  0  0  0
 28 37  1  0  0  0  0
 28 42  1  1  0  0  0
 29 32  1  0  0  0  0
 29 74  1  0  0  0  0
 30 75  1  0  0  0  0
 30 76  1  0  0  0  0
 30 77  1  0  0  0  0
 31 78  1  0  0  0  0
 31 79  1  0  0  0  0
 32 80  1  0  0  0  0
 32 81  1  0  0  0  0
 33 82  1  0  0  0  0
 33 83  1  0  0  0  0
 33 84  1  0  0  0  0
 34 85  1  0  0  0  0
 35 86  1  0  0  0  0
 35 87  1  0  0  0  0
 35 88  1  0  0  0  0
 36 38  1  0  0  0  0
 36 89  1  0  0  0  0
 36 90  1  0  0  0  0
 37 41  1  0  0  0  0
 37 91  1  0  0  0  0
 37 92  1  0  0  0  0
 38 41  1  0  0  0  0
 38 43  1  0  0  0  0
 38 44  1  0  0  0  0
 39 93  1  0  0  0  0
 39 94  1  0  0  0  0
 39 95  1  0  0  0  0
 40 96  1  0  0  0  0
 40 97  1  0  0  0  0
 40 98  1  0  0  0  0
 41 99  1  0  0  0  0
 41100  1  0  0  0  0
 43102  1  0  0  0  0
 43103  1  0  0  0  0
 43104  1  0  0  0  0
 44105  1  0  0  0  0
 44106  1  0  0  0  0
 44107  1  0  0  0  0
 45 46  1  0  0  0  0
 46 47  1  0  0  0  0
 46109  1  0  0  0  0
 46110  1  0  0  0  0
 47 48  1  0  0  0  0
 47111  1  0  0  0  0
 47112  1  0  0  0  0
 48 49  1  0  0  0  0
 48113  1  0  0  0  0
 48114  1  0  0  0  0
 49 50  1  0  0  0  0
 49115  1  0  0  0  0
 49116  1  0  0  0  0
 52 51  1  6  0  0  0
 51117  1  0  0  0  0
 51118  1  0  0  0  0
 52 53  1  0  0  0  0
 52119  1  0  0  0  0
 53 54  1  0  0  0  0
 53120  1  0  0  0  0
 54 55  1  0  0  0  0
 54121  1  0  0  0  0
 54122  1  0  0  0  0
 55123  1  0  0  0  0
 56 58  2  0  0  0  0
 56124  1  0  0  0  0
 58 59  1  0  0  0  0
 58 60  1  0  0  0  0
 60126  1  0  0  0  0
 60127  1  0  0  0  0
 60128  1  0  0  0  0
M  CHG  2  12   1  14  -1
M  END
> <PUBCHEM_COMPOUND_CID>
502170
> <PUBCHEM_COMPOUND_CANONICALIZED>
1
> <PUBCHEM_CACTVS_COMPLEXITY>
1900
> <PUBCHEM_CACTVS_HBOND_ACCEPTOR>
10
> <PUBCHEM_CACTVS_HBOND_DONOR>
3
> <PUBCHEM_CACTVS_ROTATABLE_BOND>
12
> <PUBCHEM_CACTVS_SUBSKEYS>
AAADcfB/vAAAAAAAAAAAAAAAAAAAASAAAAAwYMGCAAAAAADAAAAAHgAYCAAADzzhgAYDCAPABgCKAiHWWACAAAAgAAAACIEIAEiDABIAwQAPQAAOlyKKAMO4+PqPgAAAAAAAAACQAASAACQAAAAAAAAAAA==
> <PUBCHEM_IUPAC_OPENEYE_NAME>
(4aS,6aR,6aS,6bR,8aR,10R,12aR,14bS)-10-[[6-[[(2S,3S,5R)-3-azido-5-(5-methyl-2,4-dioxo-pyrimidin-1-yl)tetrahydrofuran-2-yl]methoxy]-6-oxo-hexanoyl]amino]-2,2,6a,6b,9,9,12a-heptamethyl-1,3,4,5,6,6a,7,8,8a,10,11,12,13,14b-tetradecahydropicene-4a-carboxylic acid
> <PUBCHEM_IUPAC_CAS_NAME>
(4aS,6aR,6aS,6bR,8aR,10R,12aR,14bS)-10-[[6-[[(2S,3S,5R)-3-azido-5-(5-methyl-2,4-dioxo-1-pyrimidinyl)-2-oxolanyl]methoxy]-1,6-dioxohexyl]amino]-2,2,6a,6b,9,9,12a-heptamethyl-1,3,4,5,6,6a,7,8,8a,10,11,12,13,14b-tetradecahydropicene-4a-carboxylic acid
> <PUBCHEM_IUPAC_NAME_MARKUP>
(4<I>a</I><I>S</I>,6<I>a</I><I>R</I>,6<I>a</I><I>S</I>,6<I>b</I><I>R</I>,8<I>a</I><I>R</I>,10<I>R</I>,12<I>a</I><I>R</I>,14<I>b</I><I>S</I>)-10-[[6-[[(2<I>S</I>,3<I>S</I>,5<I>R</I>)-3-azido-5-(5-methyl-2,4-dioxopyrimidin-1-yl)oxolan-2-yl]methoxy]-6-oxohexanoyl]amino]-2,2,6<I>a</I>,6<I>b</I>,9,9,12<I>a</I>-heptamethyl-1,3,4,5,6,6<I>a</I>,7,8,8<I>a</I>,10,11,12,13,14<I>b</I>-tetradecahydropicene-4<I>a</I>-carboxylic acid
> <PUBCHEM_IUPAC_NAME>
(4aS,6aR,6aS,6bR,8aR,10R,12aR,14bS)-10-[[6-[[(2S,3S,5R)-3-azido-5-(5-methyl-2,4-dioxopyrimidin-1-yl)oxolan-2-yl]methoxy]-6-oxohexanoyl]amino]-2,2,6a,6b,9,9,12a-heptamethyl-1,3,4,5,6,6a,7,8,8a,10,11,12,13,14b-tetradecahydropicene-4a-carboxylic acid
> <PUBCHEM_IUPAC_SYSTEMATIC_NAME>
(4aS,6aR,6aS,6bR,8aR,10R,12aR,14bS)-10-[[6-[[(2S,3S,5R)-3-azido-5-[5-methyl-2,4-bis(oxidanylidene)pyrimidin-1-yl]oxolan-2-yl]methoxy]-6-oxidanylidene-hexanoyl]amino]-2,2,6a,6b,9,9,12a-heptamethyl-1,3,4,5,6,6a,7,8,8a,10,11,12,13,14b-tetradecahydropicene-4a-carboxylic acid
> <PUBCHEM_IUPAC_TRADITIONAL_NAME>
(4aS,6aR,6aS,6bR,8aR,10R,12aR,14bS)-10-[[6-[[(2S,3S,5R)-3-azido-5-(2,4-diketo-5-methyl-pyrimidin-1-yl)tetrahydrofuran-2-yl]methoxy]-6-keto-hexanoyl]amino]-2,2,6a,6b,9,9,12a-heptamethyl-1,3,4,5,6,6a,7,8,8a,10,11,12,13,14b-tetradecahydropicene-4a-carboxylic acid
> <PUBCHEM_IUPAC_INCHI>
InChI=1S/C46H68N6O8/c1-27-25-52(40(58)49-38(27)55)36-23-30(50-51-47)31(60-36)26-59-37(54)12-10-9-11-35(53)48-34-16-17-43(6)32(42(34,4)5)15-18-45(8)33(43)14-13-28-29-24-41(2,3)19-21-46(29,39(56)57)22-20-44(28,45)7/h13,25,29-34,36H,9-12,14-24,26H2,1-8H3,(H,48,53)(H,56,57)(H,49,55,58)/t29-,30-,31+,32-,33+,34+,36+,43-,44+,45+,46-/m0/s1
> <PUBCHEM_IUPAC_INCHIKEY>
VDQQRKOMGRFPCF-BQJNITIVSA-N
> <PUBCHEM_XLOGP3_AA>
8.5
> <PUBCHEM_EXACT_MASS>
832.50986315
> <PUBCHEM_MOLECULAR_FORMULA>
C46H68N6O8
> <PUBCHEM_MOLECULAR_WEIGHT>
833.1
> <PUBCHEM_OPENEYE_CAN_SMILES>
CC1=CN(C(=O)NC1=O)C2CC(C(O2)COC(=O)CCCCC(=O)NC3CCC4(C(C3(C)C)CCC5(C4CC=C6C5(CCC7(C6CC(CC7)(C)C)C(=O)O)C)C)C)N=[N+]=[N-]
> <PUBCHEM_OPENEYE_ISO_SMILES>
CC1=CN(C(=O)NC1=O)[C@H]2C[C@@H]([C@H](O2)COC(=O)CCCCC(=O)N[C@@H]3CC[C@]4([C@H](C3(C)C)CC[C@@]5([C@@H]4CC=C6[C@]5(CC[C@@]7([C@H]6CC(CC7)(C)C)C(=O)O)C)C)C)N=[N+]=[N-]
> <PUBCHEM_CACTVS_TPSA>
166
> <PUBCHEM_MONOISOTOPIC_WEIGHT>
832.50986315
> <PUBCHEM_TOTAL_CHARGE>
0
> <PUBCHEM_HEAVY_ATOM_COUNT>
60
> <PUBCHEM_ATOM_DEF_STEREO_COUNT>
11
> <PUBCHEM_ATOM_UDEF_STEREO_COUNT>
0
> <PUBCHEM_BOND_DEF_STEREO_COUNT>
0
> <PUBCHEM_BOND_UDEF_STEREO_COUNT>
0
> <PUBCHEM_ISOTOPIC_ATOM_COUNT>
0
> <PUBCHEM_COMPONENT_COUNT>
1
> <PUBCHEM_CACTVS_TAUTO_COUNT>
-1
> <PUBCHEM_COORDINATE_TYPE>
1
5
255
> <PUBCHEM_BONDANNOTATIONS>
55  10  6
10  56  8
10  57  8
53  11  5
13  57  8
13  59  8
15  30  5
16  33  5
17  61  6
18  35  6
19  62  6
26  71  5
28  42  5
52  51  6
56  58  8
58  59  8
29  9  6
$$$$
