502192
  -OEChem-10302200282D
 45 47  0     1  0  0  0  0  0999 V2000
    2.0000   -2.8840    0.0000 O   0  0  0  0  0  0  0  0  0  0  0  0
    3.7320    3.1160    0.0000 O   0  0  0  0  0  0  0  0  0  0  0  0
    4.5981   -1.3840    0.0000 N   0  0  0  0  0  0  0  0  0  0  0  0
    3.7320   -2.8840    0.0000 N   0  0  0  0  0  0  0  0  0  0  0  0
    5.5443   -1.0792    0.0000 N   0  0  0  0  0  0  0  0  0  0  0  0
    5.5443   -2.6887    0.0000 N   0  0  0  0  0  0  0  0  0  0  0  0
    3.7320   -0.8840    0.0000 C   0  0  3  0  0  0  0  0  0  0  0  0
    2.8660   -1.3840    0.0000 C   0  0  0  0  0  0  0  0  0  0  0  0
    3.7320    0.1160    0.0000 C   0  0  0  0  0  0  0  0  0  0  0  0
    4.5981   -2.3840    0.0000 C   0  0  0  0  0  0  0  0  0  0  0  0
    7.1279   -1.8840    0.0000 C   0  0  0  0  0  0  0  0  0  0  0  0
    6.1279   -1.8840    0.0000 C   0  0  0  0  0  0  0  0  0  0  0  0
    2.8660   -2.3840    0.0000 C   0  0  0  0  0  0  0  0  0  0  0  0
    7.6279   -2.7500    0.0000 C   0  0  0  0  0  0  0  0  0  0  0  0
    8.6279   -2.7500    0.0000 C   0  0  0  0  0  0  0  0  0  0  0  0
    2.8660    0.6160    0.0000 C   0  0  0  0  0  0  0  0  0  0  0  0
    4.5981    0.6160    0.0000 C   0  0  0  0  0  0  0  0  0  0  0  0
    9.1279   -3.6160    0.0000 C   0  0  0  0  0  0  0  0  0  0  0  0
    2.8660    1.6160    0.0000 C   0  0  0  0  0  0  0  0  0  0  0  0
    4.5981    1.6160    0.0000 C   0  0  0  0  0  0  0  0  0  0  0  0
    3.7320    2.1160    0.0000 C   0  0  0  0  0  0  0  0  0  0  0  0
   10.1279   -3.6160    0.0000 C   0  0  0  0  0  0  0  0  0  0  0  0
    2.8660    3.6160    0.0000 C   0  0  0  0  0  0  0  0  0  0  0  0
    3.1951   -0.5740    0.0000 H   0  0  0  0  0  0  0  0  0  0  0  0
    2.6540   -0.8014    0.0000 H   0  0  0  0  0  0  0  0  0  0  0  0
    2.2554   -1.4916    0.0000 H   0  0  0  0  0  0  0  0  0  0  0  0
    7.7105   -1.6719    0.0000 H   0  0  0  0  0  0  0  0  0  0  0  0
    7.0202   -1.2734    0.0000 H   0  0  0  0  0  0  0  0  0  0  0  0
    7.0453   -2.9620    0.0000 H   0  0  0  0  0  0  0  0  0  0  0  0
    7.7356   -3.3606    0.0000 H   0  0  0  0  0  0  0  0  0  0  0  0
    3.7320   -3.5040    0.0000 H   0  0  0  0  0  0  0  0  0  0  0  0
    9.2105   -2.5380    0.0000 H   0  0  0  0  0  0  0  0  0  0  0  0
    8.5202   -2.1394    0.0000 H   0  0  0  0  0  0  0  0  0  0  0  0
    2.3291    0.3060    0.0000 H   0  0  0  0  0  0  0  0  0  0  0  0
    5.1350    0.3060    0.0000 H   0  0  0  0  0  0  0  0  0  0  0  0
    8.5453   -3.8281    0.0000 H   0  0  0  0  0  0  0  0  0  0  0  0
    9.2356   -4.2266    0.0000 H   0  0  0  0  0  0  0  0  0  0  0  0
    2.3291    1.9260    0.0000 H   0  0  0  0  0  0  0  0  0  0  0  0
    5.1350    1.9260    0.0000 H   0  0  0  0  0  0  0  0  0  0  0  0
   10.1279   -4.2360    0.0000 H   0  0  0  0  0  0  0  0  0  0  0  0
   10.7479   -3.6160    0.0000 H   0  0  0  0  0  0  0  0  0  0  0  0
   10.1279   -2.9960    0.0000 H   0  0  0  0  0  0  0  0  0  0  0  0
    3.1760    4.1530    0.0000 H   0  0  0  0  0  0  0  0  0  0  0  0
    2.3291    3.9260    0.0000 H   0  0  0  0  0  0  0  0  0  0  0  0
    2.5560    3.0791    0.0000 H   0  0  0  0  0  0  0  0  0  0  0  0
  1 13  2  0  0  0  0
  2 21  1  0  0  0  0
  2 23  1  0  0  0  0
  3  5  1  0  0  0  0
  3  7  1  0  0  0  0
  3 10  1  0  0  0  0
  4 10  1  0  0  0  0
  4 13  1  0  0  0  0
  4 31  1  0  0  0  0
  5 12  2  0  0  0  0
  6 10  2  0  0  0  0
  6 12  1  0  0  0  0
  7  8  1  0  0  0  0
  7  9  1  0  0  0  0
  7 24  1  0  0  0  0
  8 13  1  0  0  0  0
  8 25  1  0  0  0  0
  8 26  1  0  0  0  0
  9 16  2  0  0  0  0
  9 17  1  0  0  0  0
 11 12  1  0  0  0  0
 11 14  1  0  0  0  0
 11 27  1  0  0  0  0
 11 28  1  0  0  0  0
 14 15  1  0  0  0  0
 14 29  1  0  0  0  0
 14 30  1  0  0  0  0
 15 18  1  0  0  0  0
 15 32  1  0  0  0  0
 15 33  1  0  0  0  0
 16 19  1  0  0  0  0
 16 34  1  0  0  0  0
 17 20  2  0  0  0  0
 17 35  1  0  0  0  0
 18 22  1  0  0  0  0
 18 36  1  0  0  0  0
 18 37  1  0  0  0  0
 19 21  2  0  0  0  0
 19 38  1  0  0  0  0
 20 21  1  0  0  0  0
 20 39  1  0  0  0  0
 22 40  1  0  0  0  0
 22 41  1  0  0  0  0
 22 42  1  0  0  0  0
 23 43  1  0  0  0  0
 23 44  1  0  0  0  0
 23 45  1  0  0  0  0
M  END
> <PUBCHEM_COMPOUND_CID>
502192
> <PUBCHEM_COMPOUND_CANONICALIZED>
1
> <PUBCHEM_CACTVS_COMPLEXITY>
398
> <PUBCHEM_CACTVS_HBOND_ACCEPTOR>
4
> <PUBCHEM_CACTVS_HBOND_DONOR>
1
> <PUBCHEM_CACTVS_ROTATABLE_BOND>
6
> <PUBCHEM_CACTVS_SUBSKEYS>
AAADceB7sAAAAAAAAAAAAAAAAAAAAWAAAAA8QAAAAAAAAFgBwAAAHgAYAAAADCzBmwYzFobIFACqAiNyNACSiAsgoKAdyAE+DIiMLjqE+RuEMCh82RMIqAeY2KOOIAAAAAAAAABAAAAAAAAAAAAAAAAAAA==
> <PUBCHEM_IUPAC_OPENEYE_NAME>
7-(4-methoxyphenyl)-2-pentyl-6,7-dihydro-4H-[1,2,4]triazolo[1,5-a]pyrimidin-5-one
> <PUBCHEM_IUPAC_CAS_NAME>
7-(4-methoxyphenyl)-2-pentyl-6,7-dihydro-4H-[1,2,4]triazolo[1,5-a]pyrimidin-5-one
> <PUBCHEM_IUPAC_NAME_MARKUP>
7-(4-methoxyphenyl)-2-pentyl-6,7-dihydro-4<I>H</I>-[1,2,4]triazolo[1,5-a]pyrimidin-5-one
> <PUBCHEM_IUPAC_NAME>
7-(4-methoxyphenyl)-2-pentyl-6,7-dihydro-4H-[1,2,4]triazolo[1,5-a]pyrimidin-5-one
> <PUBCHEM_IUPAC_SYSTEMATIC_NAME>
7-(4-methoxyphenyl)-2-pentyl-6,7-dihydro-4H-[1,2,4]triazolo[1,5-a]pyrimidin-5-one
> <PUBCHEM_IUPAC_TRADITIONAL_NAME>
2-amyl-7-(4-methoxyphenyl)-6,7-dihydro-4H-[1,2,4]triazolo[1,5-a]pyrimidin-5-one
> <PUBCHEM_IUPAC_INCHI>
InChI=1S/C17H22N4O2/c1-3-4-5-6-15-18-17-19-16(22)11-14(21(17)20-15)12-7-9-13(23-2)10-8-12/h7-10,14H,3-6,11H2,1-2H3,(H,18,19,20,22)
> <PUBCHEM_IUPAC_INCHIKEY>
HMRAPPHFKBWQRQ-UHFFFAOYSA-N
> <PUBCHEM_XLOGP3_AA>
3.1
> <PUBCHEM_EXACT_MASS>
314.17427596
> <PUBCHEM_MOLECULAR_FORMULA>
C17H22N4O2
> <PUBCHEM_MOLECULAR_WEIGHT>
314.4
> <PUBCHEM_OPENEYE_CAN_SMILES>
CCCCCC1=NN2C(CC(=O)NC2=N1)C3=CC=C(C=C3)OC
> <PUBCHEM_OPENEYE_ISO_SMILES>
CCCCCC1=NN2C(CC(=O)NC2=N1)C3=CC=C(C=C3)OC
> <PUBCHEM_CACTVS_TPSA>
69
> <PUBCHEM_MONOISOTOPIC_WEIGHT>
314.17427596
> <PUBCHEM_TOTAL_CHARGE>
0
> <PUBCHEM_HEAVY_ATOM_COUNT>
23
> <PUBCHEM_ATOM_DEF_STEREO_COUNT>
0
> <PUBCHEM_ATOM_UDEF_STEREO_COUNT>
1
> <PUBCHEM_BOND_DEF_STEREO_COUNT>
0
> <PUBCHEM_BOND_UDEF_STEREO_COUNT>
0
> <PUBCHEM_ISOTOPIC_ATOM_COUNT>
0
> <PUBCHEM_COMPONENT_COUNT>
1
> <PUBCHEM_CACTVS_TAUTO_COUNT>
-1
> <PUBCHEM_COORDINATE_TYPE>
1
5
255
> <PUBCHEM_BONDANNOTATIONS>
16  19  8
17  20  8
19  21  8
20  21  8
3  10  8
3  5  8
5  12  8
6  10  8
6  12  8
7  9  3
9  16  8
9  17  8
$$$$
