502156
  -OEChem-10302200282D
166170  0     1  0  0  0  0  0999 V2000
   12.7106    3.2803    0.0000 S   0  0  0  0  0  0  0  0  0  0  0  0
   13.2106    2.4143    0.0000 S   0  0  0  0  0  0  0  0  0  0  0  0
    9.4125   -0.3801    0.0000 S   0  0  0  0  0  0  0  0  0  0  0  0
    8.6465   -1.0229    0.0000 S   0  0  0  0  0  0  0  0  0  0  0  0
   11.2107   -1.0498    0.0000 O   0  0  0  0  0  0  0  0  0  0  0  0
    8.8446    2.0483    0.0000 O   0  0  0  0  0  0  0  0  0  0  0  0
   14.7106   -0.1838    0.0000 O   0  0  0  0  0  0  0  0  0  0  0  0
   12.6955    1.7219    0.0000 O   0  0  0  0  0  0  0  0  0  0  0  0
   12.4000    0.5184    0.0000 O   0  0  0  0  0  0  0  0  0  0  0  0
    9.5862   -1.3649    0.0000 O   0  0  0  0  0  0  0  0  0  0  0  0
   15.7106    3.2803    0.0000 O   0  0  0  0  0  0  0  0  0  0  0  0
    8.2277   -3.6353    0.0000 O   0  0  0  0  0  0  0  0  0  0  0  0
    6.0010    0.0184    0.0000 O   0  0  0  0  0  0  0  0  0  0  0  0
   15.3980   -4.4018    0.0000 O   0  0  0  0  0  0  0  0  0  0  0  0
    2.5369   -0.9816    0.0000 O   0  0  0  0  0  0  0  0  0  0  0  0
   16.2106    4.1464    0.0000 O   0  0  0  0  0  0  0  0  0  0  0  0
    3.4030   -2.4816    0.0000 O   0  0  0  0  0  0  0  0  0  0  0  0
   21.7106    1.5483    0.0000 O   0  0  0  0  0  0  0  0  0  0  0  0
    4.2690    2.0184    0.0000 O   0  0  0  0  0  0  0  0  0  0  0  0
   11.2106    0.6823    0.0000 N   0  0  0  0  0  0  0  0  0  0  0  0
   13.2106    0.6823    0.0000 N   0  0  0  0  0  0  0  0  0  0  0  0
   10.2106    2.4143    0.0000 N   0  0  0  0  0  0  0  0  0  0  0  0
   10.9446    0.9055    0.0000 N   0  0  0  0  0  0  0  0  0  0  0  0
   15.7106    1.5483    0.0000 N   0  0  0  0  0  0  0  0  0  0  0  0
   12.2316   -1.4061    0.0000 N   0  0  0  0  0  0  0  0  0  0  0  0
    9.7598   -2.3497    0.0000 N   0  0  0  0  0  0  0  0  0  0  0  0
    7.1144   -2.3084    0.0000 N   0  0  0  0  0  0  0  0  0  0  0  0
    6.8361    3.0361    0.0000 N   0  0  0  0  0  0  0  0  0  0  0  0
   16.2106   -1.0498    0.0000 N   0  0  0  0  0  0  0  0  0  0  0  0
   17.7106    3.2803    0.0000 N   0  0  0  0  0  0  0  0  0  0  0  0
    5.1350   -1.4816    0.0000 N   0  0  0  0  0  0  0  0  0  0  0  0
    6.7323   -0.3326    0.0000 N   0  0  0  0  0  0  0  0  0  0  0  0
    5.7813   -1.6417    0.0000 N   0  0  0  0  0  0  0  0  0  0  0  0
    2.5369    2.0184    0.0000 N   0  0  0  0  0  0  0  0  0  0  0  0
   10.2106    0.6824    0.0000 C   0  0  1  0  0  0  0  0  0  0  0  0
   12.7107   -0.1837    0.0000 C   0  0  1  0  0  0  0  0  0  0  0  0
    9.2709    0.3403    0.0000 C   0  0  0  0  0  0  0  0  0  0  0  0
   13.2107   -1.0497    0.0000 C   0  0  0  0  0  0  0  0  0  0  0  0
    8.5049    0.9833    0.0000 C   0  0  0  0  0  0  0  0  0  0  0  0
   14.2106   -1.0498    0.0000 C   0  0  0  0  0  0  0  0  0  0  0  0
   11.7107   -0.1838    0.0000 C   0  0  0  0  0  0  0  0  0  0  0  0
    9.7106    1.5483    0.0000 C   0  0  0  0  0  0  0  0  0  0  0  0
    8.1630    1.9227    0.0000 C   0  0  0  0  0  0  0  0  0  0  0  0
   11.2106    2.4143    0.0000 C   0  0  1  0  0  0  0  0  0  0  0  0
   14.7106   -1.9158    0.0000 C   0  0  0  0  0  0  0  0  0  0  0  0
   14.7106    1.5483    0.0000 C   0  0  2  0  0  0  0  0  0  0  0  0
   14.2106    0.6823    0.0000 C   0  0  0  0  0  0  0  0  0  0  0  0
   11.7106    3.2803    0.0000 C   0  0  0  0  0  0  0  0  0  0  0  0
   11.1182   -0.0793    0.0000 C   0  0  2  0  0  0  0  0  0  0  0  0
    7.1782    2.0964    0.0000 C   0  0  0  0  0  0  0  0  0  0  0  0
   11.4655   -2.0489    0.0000 C   0  0  1  0  0  0  0  0  0  0  0  0
   11.7106    1.5483    0.0000 C   0  0  0  0  0  0  0  0  0  0  0  0
   15.7106   -1.9158    0.0000 C   0  0  0  0  0  0  0  0  0  0  0  0
   14.2106    2.4143    0.0000 C   0  0  0  0  0  0  0  0  0  0  0  0
    8.8201   -2.0077    0.0000 C   0  0  1  0  0  0  0  0  0  0  0  0
   11.6392   -3.0337    0.0000 C   0  0  0  0  0  0  0  0  0  0  0  0
   12.0579   -0.4213    0.0000 C   0  0  0  0  0  0  0  0  0  0  0  0
   10.3522   -0.7221    0.0000 C   0  0  0  0  0  0  0  0  0  0  0  0
   10.5259   -1.7069    0.0000 C   0  0  0  0  0  0  0  0  0  0  0  0
    8.3201   -1.1416    0.0000 C   0  0  0  0  0  0  0  0  0  0  0  0
   17.2106    2.4143    0.0000 C   0  0  2  0  0  0  0  0  0  0  0  0
   16.2106    2.4143    0.0000 C   0  0  0  0  0  0  0  0  0  0  0  0
    6.9407   -1.3236    0.0000 C   0  0  1  0  0  0  0  0  0  0  0  0
    8.0541   -2.6505    0.0000 C   0  0  0  0  0  0  0  0  0  0  0  0
   12.5789   -3.3758    0.0000 C   0  0  0  0  0  0  0  0  0  0  0  0
   17.7106    1.5483    0.0000 C   0  0  0  0  0  0  0  0  0  0  0  0
    7.7068   -0.6808    0.0000 C   0  0  0  0  0  0  0  0  0  0  0  0
    7.3201   -1.1416    0.0000 C   0  0  0  0  0  0  0  0  0  0  0  0
    6.0010   -0.9816    0.0000 C   0  0  0  0  0  0  0  0  0  0  0  0
    4.2690   -0.9816    0.0000 C   0  0  1  0  0  0  0  0  0  0  0  0
   18.7106    1.5483    0.0000 C   0  0  0  0  0  0  0  0  0  0  0  0
   13.3449   -2.7330    0.0000 C   0  0  0  0  0  0  0  0  0  0  0  0
   12.7525   -4.3606    0.0000 C   0  0  0  0  0  0  0  0  0  0  0  0
    4.2690    0.0184    0.0000 C   0  0  0  0  0  0  0  0  0  0  0  0
    6.7323   -1.9507    0.0000 C   0  0  0  0  0  0  0  0  0  0  0  0
   14.2846   -3.0750    0.0000 C   0  0  0  0  0  0  0  0  0  0  0  0
   13.6922   -4.7026    0.0000 C   0  0  0  0  0  0  0  0  0  0  0  0
   17.2106    4.1464    0.0000 C   0  0  0  0  0  0  0  0  0  0  0  0
    3.4030    0.5184    0.0000 C   0  0  0  0  0  0  0  0  0  0  0  0
   19.2106    2.4143    0.0000 C   0  0  0  0  0  0  0  0  0  0  0  0
   19.2106    0.6823    0.0000 C   0  0  0  0  0  0  0  0  0  0  0  0
   14.4583   -4.0598    0.0000 C   0  0  0  0  0  0  0  0  0  0  0  0
    5.7813   -0.6416    0.0000 C   0  0  0  0  0  0  0  0  0  0  0  0
    3.4030   -1.4816    0.0000 C   0  0  0  0  0  0  0  0  0  0  0  0
   20.2106    2.4143    0.0000 C   0  0  0  0  0  0  0  0  0  0  0  0
   20.2106    0.6823    0.0000 C   0  0  0  0  0  0  0  0  0  0  0  0
   17.7106    5.0124    0.0000 C   0  0  0  0  0  0  0  0  0  0  0  0
   20.7106    1.5483    0.0000 C   0  0  0  0  0  0  0  0  0  0  0  0
    3.4030    1.5184    0.0000 C   0  0  0  0  0  0  0  0  0  0  0  0
   10.3182    0.0718    0.0000 H   0  0  0  0  0  0  0  0  0  0  0  0
   13.3307   -0.1837    0.0000 H   0  0  0  0  0  0  0  0  0  0  0  0
    8.7959   -0.0581    0.0000 H   0  0  0  0  0  0  0  0  0  0  0  0
    9.5808   -0.1966    0.0000 H   0  0  0  0  0  0  0  0  0  0  0  0
   12.6281   -1.2618    0.0000 H   0  0  0  0  0  0  0  0  0  0  0  0
   13.3184   -1.6603    0.0000 H   0  0  0  0  0  0  0  0  0  0  0  0
    7.8849    0.9833    0.0000 H   0  0  0  0  0  0  0  0  0  0  0  0
    9.0128    1.3389    0.0000 H   0  0  0  0  0  0  0  0  0  0  0  0
   14.7933   -0.8377    0.0000 H   0  0  0  0  0  0  0  0  0  0  0  0
   14.1030   -0.4392    0.0000 H   0  0  0  0  0  0  0  0  0  0  0  0
   11.7932    0.8943    0.0000 H   0  0  0  0  0  0  0  0  0  0  0  0
   13.4227    1.2649    0.0000 H   0  0  0  0  0  0  0  0  0  0  0  0
    8.7735    2.0304    0.0000 H   0  0  0  0  0  0  0  0  0  0  0  0
    8.1630    2.5427    0.0000 H   0  0  0  0  0  0  0  0  0  0  0  0
   10.9006    1.8774    0.0000 H   0  0  0  0  0  0  0  0  0  0  0  0
   14.1280   -2.1279    0.0000 H   0  0  0  0  0  0  0  0  0  0  0  0
   14.8183   -2.5264    0.0000 H   0  0  0  0  0  0  0  0  0  0  0  0
   15.0206    1.0114    0.0000 H   0  0  0  0  0  0  0  0  0  0  0  0
    9.9006    2.9512    0.0000 H   0  0  0  0  0  0  0  0  0  0  0  0
   11.8183    3.8909    0.0000 H   0  0  0  0  0  0  0  0  0  0  0  0
   11.1280    3.4924    0.0000 H   0  0  0  0  0  0  0  0  0  0  0  0
   10.5356    0.1327    0.0000 H   0  0  0  0  0  0  0  0  0  0  0  0
   12.0482   -2.2610    0.0000 H   0  0  0  0  0  0  0  0  0  0  0  0
    6.5676    1.9887    0.0000 H   0  0  0  0  0  0  0  0  0  0  0  0
    7.1782    1.4764    0.0000 H   0  0  0  0  0  0  0  0  0  0  0  0
   15.6030   -2.5264    0.0000 H   0  0  0  0  0  0  0  0  0  0  0  0
   16.2933   -2.1279    0.0000 H   0  0  0  0  0  0  0  0  0  0  0  0
   14.7933    2.6264    0.0000 H   0  0  0  0  0  0  0  0  0  0  0  0
   14.1030    3.0249    0.0000 H   0  0  0  0  0  0  0  0  0  0  0  0
    9.2186   -1.5327    0.0000 H   0  0  0  0  0  0  0  0  0  0  0  0
   10.5461    1.3804    0.0000 H   0  0  0  0  0  0  0  0  0  0  0  0
   16.0206    1.0114    0.0000 H   0  0  0  0  0  0  0  0  0  0  0  0
   11.0192   -3.0337    0.0000 H   0  0  0  0  0  0  0  0  0  0  0  0
   11.5315   -3.6443    0.0000 H   0  0  0  0  0  0  0  0  0  0  0  0
   12.8142   -1.6182    0.0000 H   0  0  0  0  0  0  0  0  0  0  0  0
   10.0422   -1.2590    0.0000 H   0  0  0  0  0  0  0  0  0  0  0  0
   10.8272   -1.1206    0.0000 H   0  0  0  0  0  0  0  0  0  0  0  0
    8.9027   -0.9296    0.0000 H   0  0  0  0  0  0  0  0  0  0  0  0
    8.2124   -0.5311    0.0000 H   0  0  0  0  0  0  0  0  0  0  0  0
    9.8675   -2.9603    0.0000 H   0  0  0  0  0  0  0  0  0  0  0  0
   17.8306    2.4143    0.0000 H   0  0  0  0  0  0  0  0  0  0  0  0
    6.4658   -1.7222    0.0000 H   0  0  0  0  0  0  0  0  0  0  0  0
   17.1280    1.3362    0.0000 H   0  0  0  0  0  0  0  0  0  0  0  0
   17.8183    0.9377    0.0000 H   0  0  0  0  0  0  0  0  0  0  0  0
    6.6394   -2.7070    0.0000 H   0  0  0  0  0  0  0  0  0  0  0  0
    8.0168   -0.1439    0.0000 H   0  0  0  0  0  0  0  0  0  0  0  0
    7.2318   -0.2823    0.0000 H   0  0  0  0  0  0  0  0  0  0  0  0
    6.2256    3.1437    0.0000 H   0  0  0  0  0  0  0  0  0  0  0  0
    7.2346    3.5110    0.0000 H   0  0  0  0  0  0  0  0  0  0  0  0
   16.8306   -1.0498    0.0000 H   0  0  0  0  0  0  0  0  0  0  0  0
   15.9006   -0.5129    0.0000 H   0  0  0  0  0  0  0  0  0  0  0  0
   18.3306    3.2803    0.0000 H   0  0  0  0  0  0  0  0  0  0  0  0
    4.8059   -0.6716    0.0000 H   0  0  0  0  0  0  0  0  0  0  0  0
    5.1350   -2.1016    0.0000 H   0  0  0  0  0  0  0  0  0  0  0  0
   13.2373   -2.1224    0.0000 H   0  0  0  0  0  0  0  0  0  0  0  0
   12.2776   -4.7591    0.0000 H   0  0  0  0  0  0  0  0  0  0  0  0
    4.8796   -0.0893    0.0000 H   0  0  0  0  0  0  0  0  0  0  0  0
    4.4810    0.6010    0.0000 H   0  0  0  0  0  0  0  0  0  0  0  0
    6.9239    0.2570    0.0000 H   0  0  0  0  0  0  0  0  0  0  0  0
    6.9239   -2.5403    0.0000 H   0  0  0  0  0  0  0  0  0  0  0  0
   14.7596   -2.6764    0.0000 H   0  0  0  0  0  0  0  0  0  0  0  0
   13.7999   -5.3132    0.0000 H   0  0  0  0  0  0  0  0  0  0  0  0
    2.7924    0.6261    0.0000 H   0  0  0  0  0  0  0  0  0  0  0  0
    3.1909   -0.0642    0.0000 H   0  0  0  0  0  0  0  0  0  0  0  0
   18.9006    2.9512    0.0000 H   0  0  0  0  0  0  0  0  0  0  0  0
   18.9006    0.1453    0.0000 H   0  0  0  0  0  0  0  0  0  0  0  0
    5.2797   -0.2772    0.0000 H   0  0  0  0  0  0  0  0  0  0  0  0
   20.5206    2.9512    0.0000 H   0  0  0  0  0  0  0  0  0  0  0  0
   20.5206    0.1453    0.0000 H   0  0  0  0  0  0  0  0  0  0  0  0
   18.2476    4.7024    0.0000 H   0  0  0  0  0  0  0  0  0  0  0  0
   18.0206    5.5493    0.0000 H   0  0  0  0  0  0  0  0  0  0  0  0
   17.1737    5.3224    0.0000 H   0  0  0  0  0  0  0  0  0  0  0  0
   15.5056   -5.0124    0.0000 H   0  0  0  0  0  0  0  0  0  0  0  0
    2.0000   -1.2916    0.0000 H   0  0  0  0  0  0  0  0  0  0  0  0
    2.5369    2.6384    0.0000 H   0  0  0  0  0  0  0  0  0  0  0  0
    2.0000    1.7084    0.0000 H   0  0  0  0  0  0  0  0  0  0  0  0
   22.0206    2.0852    0.0000 H   0  0  0  0  0  0  0  0  0  0  0  0
  1  2  1  0  0  0  0
  1 48  1  0  0  0  0
  2 54  1  0  0  0  0
  3  4  1  0  0  0  0
  3 58  1  0  0  0  0
  4 67  1  0  0  0  0
  5 41  2  0  0  0  0
  6 42  2  0  0  0  0
  7 47  2  0  0  0  0
  8 52  2  0  0  0  0
  9 57  2  0  0  0  0
 10 59  2  0  0  0  0
 11 62  2  0  0  0  0
 12 64  2  0  0  0  0
 13 69  2  0  0  0  0
 14 82  1  0  0  0  0
 14162  1  0  0  0  0
 15 84  1  0  0  0  0
 15163  1  0  0  0  0
 16 78  2  0  0  0  0
 17 84  2  0  0  0  0
 18 88  1  0  0  0  0
 18166  1  0  0  0  0
 19 89  2  0  0  0  0
 20 35  1  0  0  0  0
 20 41  1  0  0  0  0
 20100  1  0  0  0  0
 21 36  1  0  0  0  0
 21 47  1  0  0  0  0
 21101  1  0  0  0  0
 22 42  1  0  0  0  0
 22 44  1  0  0  0  0
 22108  1  0  0  0  0
 49 23  1  6  0  0  0
 23 52  1  0  0  0  0
 23120  1  0  0  0  0
 46 24  1  6  0  0  0
 24 62  1  0  0  0  0
 24121  1  0  0  0  0
 25 51  1  0  0  0  0
 25 57  1  0  0  0  0
 25124  1  0  0  0  0
 26 55  1  0  0  0  0
 26 59  1  0  0  0  0
 26129  1  0  0  0  0
 27 63  1  0  0  0  0
 27 64  1  0  0  0  0
 27134  1  0  0  0  0
 28 50  1  0  0  0  0
 28137  1  0  0  0  0
 28138  1  0  0  0  0
 29 53  1  0  0  0  0
 29139  1  0  0  0  0
 29140  1  0  0  0  0
 61 30  1  1  0  0  0
 30 78  1  0  0  0  0
 30141  1  0  0  0  0
 31 69  1  0  0  0  0
 70 31  1  6  0  0  0
 31143  1  0  0  0  0
 32 68  1  0  0  0  0
 32 83  1  0  0  0  0
 32148  1  0  0  0  0
 33 75  1  0  0  0  0
 33 83  2  0  0  0  0
 34 89  1  0  0  0  0
 34164  1  0  0  0  0
 34165  1  0  0  0  0
 35 37  1  1  0  0  0
 35 42  1  0  0  0  0
 35 90  1  0  0  0  0
 36 38  1  1  0  0  0
 36 41  1  0  0  0  0
 36 91  1  0  0  0  0
 37 39  1  0  0  0  0
 37 92  1  0  0  0  0
 37 93  1  0  0  0  0
 38 40  1  0  0  0  0
 38 94  1  0  0  0  0
 38 95  1  0  0  0  0
 39 43  1  0  0  0  0
 39 96  1  0  0  0  0
 39 97  1  0  0  0  0
 40 45  1  0  0  0  0
 40 98  1  0  0  0  0
 40 99  1  0  0  0  0
 43 50  1  0  0  0  0
 43102  1  0  0  0  0
 43103  1  0  0  0  0
 44 48  1  0  0  0  0
 44 52  1  1  0  0  0
 44104  1  0  0  0  0
 45 53  1  0  0  0  0
 45105  1  0  0  0  0
 45106  1  0  0  0  0
 46 47  1  0  0  0  0
 46 54  1  0  0  0  0
 46107  1  0  0  0  0
 48109  1  0  0  0  0
 48110  1  0  0  0  0
 49 57  1  0  0  0  0
 49 58  1  0  0  0  0
 49111  1  0  0  0  0
 50113  1  0  0  0  0
 50114  1  0  0  0  0
 51 56  1  1  0  0  0
 51 59  1  0  0  0  0
 51112  1  0  0  0  0
 53115  1  0  0  0  0
 53116  1  0  0  0  0
 54117  1  0  0  0  0
 54118  1  0  0  0  0
 55 60  1  6  0  0  0
 55 64  1  0  0  0  0
 55119  1  0  0  0  0
 56 65  1  0  0  0  0
 56122  1  0  0  0  0
 56123  1  0  0  0  0
 58125  1  0  0  0  0
 58126  1  0  0  0  0
 60 68  1  0  0  0  0
 60127  1  0  0  0  0
 60128  1  0  0  0  0
 61 62  1  0  0  0  0
 61 66  1  0  0  0  0
 61130  1  0  0  0  0
 63 67  1  0  0  0  0
 63 69  1  6  0  0  0
 63131  1  0  0  0  0
 65 72  2  0  0  0  0
 65 73  1  0  0  0  0
 66 71  1  0  0  0  0
 66132  1  0  0  0  0
 66133  1  0  0  0  0
 67135  1  0  0  0  0
 67136  1  0  0  0  0
 68 75  2  0  0  0  0
 70 74  1  0  0  0  0
 70 84  1  0  0  0  0
 70142  1  0  0  0  0
 71 80  2  0  0  0  0
 71 81  1  0  0  0  0
 72 76  1  0  0  0  0
 72144  1  0  0  0  0
 73 77  2  0  0  0  0
 73145  1  0  0  0  0
 74 79  1  0  0  0  0
 74146  1  0  0  0  0
 74147  1  0  0  0  0
 75149  1  0  0  0  0
 76 82  2  0  0  0  0
 76150  1  0  0  0  0
 77 82  1  0  0  0  0
 77151  1  0  0  0  0
 78 87  1  0  0  0  0
 79 89  1  0  0  0  0
 79152  1  0  0  0  0
 79153  1  0  0  0  0
 80 85  1  0  0  0  0
 80154  1  0  0  0  0
 81 86  2  0  0  0  0
 81155  1  0  0  0  0
 83156  1  0  0  0  0
 85 88  2  0  0  0  0
 85157  1  0  0  0  0
 86 88  1  0  0  0  0
 86158  1  0  0  0  0
 87159  1  0  0  0  0
 87160  1  0  0  0  0
 87161  1  0  0  0  0
M  END
> <PUBCHEM_COMPOUND_CID>
502156
> <PUBCHEM_COMPOUND_CANONICALIZED>
1
> <PUBCHEM_CACTVS_COMPLEXITY>
2410
> <PUBCHEM_CACTVS_HBOND_ACCEPTOR>
22
> <PUBCHEM_CACTVS_HBOND_DONOR>
17
> <PUBCHEM_CACTVS_ROTATABLE_BOND>
25
> <PUBCHEM_CACTVS_SUBSKEYS>
AAADcfB//ABwAAAAAAAAAAAAAAAAAWAAAAAwYAAAAAAAAAAB0AAAHgQQCAAADCzF3gS/npbJkgCoAzX3fAACgC2xMqAJ2YG+eIiKbjLC2TOUcAAs1hPY2Cec36COIAAAAAAAAABAAAAAAAAAAAAAAAAAAA==
> <PUBCHEM_IUPAC_OPENEYE_NAME>
(2S)-2-[[(4R,7S,10S,13R)-13-[[(4R,7S,10S,13R)-13-[[(2S)-2-acetamido-3-(4-hydroxyphenyl)propanoyl]amino]-7,10-bis(4-aminobutyl)-6,9,12-trioxo-1,2-dithia-5,8,11-triazacyclotetradecane-4-carbonyl]amino]-10-[(4-hydroxyphenyl)methyl]-7-(1H-imidazol-5-ylmethyl)-6,9,12-trioxo-1,2-dithia-5,8,11-triazacyclotetradecane-4-carbonyl]amino]-5-amino-5-oxo-pentanoic acid
> <PUBCHEM_IUPAC_CAS_NAME>
(2S)-2-[[[(4R,7S,10S,13R)-13-[[[(4R,7S,10S,13R)-13-[[(2S)-2-acetamido-3-(4-hydroxyphenyl)-1-oxopropyl]amino]-7,10-bis(4-aminobutyl)-6,9,12-trioxo-1,2-dithia-5,8,11-triazacyclotetradec-4-yl]-oxomethyl]amino]-10-[(4-hydroxyphenyl)methyl]-7-(1H-imidazol-5-ylmethyl)-6,9,12-trioxo-1,2-dithia-5,8,11-triazacyclotetradec-4-yl]-oxomethyl]amino]-5-amino-5-oxopentanoic acid
> <PUBCHEM_IUPAC_NAME_MARKUP>
(2<I>S</I>)-2-[[(4<I>R</I>,7<I>S</I>,10<I>S</I>,13<I>R</I>)-13-[[(4<I>R</I>,7<I>S</I>,10<I>S</I>,13<I>R</I>)-13-[[(2<I>S</I>)-2-acetamido-3-(4-hydroxyphenyl)propanoyl]amino]-7,10-bis(4-aminobutyl)-6,9,12-trioxo-1,2-dithia-5,8,11-triazacyclotetradecane-4-carbonyl]amino]-10-[(4-hydroxyphenyl)methyl]-7-(1<I>H</I>-imidazol-5-ylmethyl)-6,9,12-trioxo-1,2-dithia-5,8,11-triazacyclotetradecane-4-carbonyl]amino]-5-amino-5-oxopentanoic acid
> <PUBCHEM_IUPAC_NAME>
(2S)-2-[[(4R,7S,10S,13R)-13-[[(4R,7S,10S,13R)-13-[[(2S)-2-acetamido-3-(4-hydroxyphenyl)propanoyl]amino]-7,10-bis(4-aminobutyl)-6,9,12-trioxo-1,2-dithia-5,8,11-triazacyclotetradecane-4-carbonyl]amino]-10-[(4-hydroxyphenyl)methyl]-7-(1H-imidazol-5-ylmethyl)-6,9,12-trioxo-1,2-dithia-5,8,11-triazacyclotetradecane-4-carbonyl]amino]-5-amino-5-oxopentanoic acid
> <PUBCHEM_IUPAC_SYSTEMATIC_NAME>
(2S)-2-[[(4R,7S,10S,13R)-13-[[(4R,7S,10S,13R)-13-[[(2S)-2-acetamido-3-(4-hydroxyphenyl)propanoyl]amino]-7,10-bis(4-azanylbutyl)-6,9,12-tris(oxidanylidene)-1,2-dithia-5,8,11-triazacyclotetradec-4-yl]carbonylamino]-10-[(4-hydroxyphenyl)methyl]-7-(1H-imidazol-5-ylmethyl)-6,9,12-tris(oxidanylidene)-1,2-dithia-5,8,11-triazacyclotetradec-4-yl]carbonylamino]-5-azanyl-5-oxidanylidene-pentanoic acid
> <PUBCHEM_IUPAC_TRADITIONAL_NAME>
(2S)-2-[[(4R,7S,10S,13R)-13-[[(4R,7S,10S,13R)-13-[[(2S)-2-acetamido-3-(4-hydroxyphenyl)propanoyl]amino]-7,10-bis(4-aminobutyl)-6,9,12-triketo-1,2-dithia-5,8,11-triazacyclotetradecane-4-carbonyl]amino]-10-(4-hydroxybenzyl)-7-(1H-imidazol-5-ylmethyl)-6,9,12-triketo-1,2-dithia-5,8,11-triazacyclotetradecane-4-carbonyl]amino]-5-amino-5-keto-valeric acid
> <PUBCHEM_IUPAC_INCHI>
InChI=1S/C55H77N15O15S4/c1-29(71)61-38(20-30-8-12-33(72)13-9-30)48(77)68-41-24-86-89-27-44(67-47(76)36(7-3-5-19-57)62-46(75)35(63-51(41)80)6-2-4-18-56)54(83)70-43-26-88-87-25-42(52(81)64-37(55(84)85)16-17-45(58)74)69-50(79)40(22-32-23-59-28-60-32)66-49(78)39(65-53(43)82)21-31-10-14-34(73)15-11-31/h8-15,23,28,35-44,72-73H,2-7,16-22,24-27,56-57H2,1H3,(H2,58,74)(H,59,60)(H,61,71)(H,62,75)(H,63,80)(H,64,81)(H,65,82)(H,66,78)(H,67,76)(H,68,77)(H,69,79)(H,70,83)(H,84,85)/t35-,36-,37-,38-,39-,40-,41-,42-,43-,44-/m0/s1
> <PUBCHEM_IUPAC_INCHIKEY>
KZSIXCYMBPGEPQ-BLDAPKAQSA-N
> <PUBCHEM_XLOGP3_AA>
-5
> <PUBCHEM_EXACT_MASS>
1315.46064150
> <PUBCHEM_MOLECULAR_FORMULA>
C55H77N15O15S4
> <PUBCHEM_MOLECULAR_WEIGHT>
1316.6
> <PUBCHEM_OPENEYE_CAN_SMILES>
CC(=O)NC(CC1=CC=C(C=C1)O)C(=O)NC2CSSCC(NC(=O)C(NC(=O)C(NC2=O)CCCCN)CCCCN)C(=O)NC3CSSCC(NC(=O)C(NC(=O)C(NC3=O)CC4=CC=C(C=C4)O)CC5=CN=CN5)C(=O)NC(CCC(=O)N)C(=O)O
> <PUBCHEM_OPENEYE_ISO_SMILES>
CC(=O)N[C@@H](CC1=CC=C(C=C1)O)C(=O)N[C@H]2CSSC[C@H](NC(=O)[C@@H](NC(=O)[C@@H](NC2=O)CCCCN)CCCCN)C(=O)N[C@H]3CSSC[C@H](NC(=O)[C@@H](NC(=O)[C@@H](NC3=O)CC4=CC=C(C=C4)O)CC5=CN=CN5)C(=O)N[C@@H](CCC(=O)N)C(=O)O
> <PUBCHEM_CACTVS_TPSA>
594
> <PUBCHEM_MONOISOTOPIC_WEIGHT>
1315.46064150
> <PUBCHEM_TOTAL_CHARGE>
0
> <PUBCHEM_HEAVY_ATOM_COUNT>
89
> <PUBCHEM_ATOM_DEF_STEREO_COUNT>
10
> <PUBCHEM_ATOM_UDEF_STEREO_COUNT>
0
> <PUBCHEM_BOND_DEF_STEREO_COUNT>
0
> <PUBCHEM_BOND_UDEF_STEREO_COUNT>
0
> <PUBCHEM_ISOTOPIC_ATOM_COUNT>
0
> <PUBCHEM_COMPONENT_COUNT>
1
> <PUBCHEM_CACTVS_TAUTO_COUNT>
-1
> <PUBCHEM_COORDINATE_TYPE>
1
5
255
> <PUBCHEM_BONDANNOTATIONS>
49  23  6
46  24  6
61  30  5
70  31  6
32  68  8
32  83  8
33  75  8
33  83  8
35  37  5
36  38  5
44  52  5
51  56  5
55  60  6
63  69  6
65  72  8
65  73  8
68  75  8
71  80  8
71  81  8
72  76  8
73  77  8
76  82  8
77  82  8
80  85  8
81  86  8
85  88  8
86  88  8
$$$$
