502186
  -OEChem-10302200282D
 52 54  0     1  0  0  0  0  0999 V2000
    4.5411    2.0313    0.0000 O   0  0  0  0  0  0  0  0  0  0  0  0
    4.4131   -0.6424    0.0000 O   0  0  0  0  0  0  0  0  0  0  0  0
    5.4641    3.6190    0.0000 O   0  0  0  0  0  0  0  0  0  0  0  0
    5.9954   -1.3468    0.0000 O   0  0  0  0  0  0  0  0  0  0  0  0
    3.7320    6.6190    0.0000 O   0  0  0  0  0  0  0  0  0  0  0  0
    3.7320    3.6190    0.0000 N   0  0  0  0  0  0  0  0  0  0  0  0
    4.5942   -2.3649    0.0000 N   0  0  0  0  0  0  0  0  0  0  0  0
    4.5981    5.1190    0.0000 N   0  0  0  0  0  0  0  0  0  0  0  0
    6.9453   -5.6010    0.0000 C   0  0  0  0  0  0  0  0  0  0  0  0
    6.3575   -4.7920    0.0000 C   0  0  0  0  0  0  0  0  0  0  0  0
    6.5386   -6.5145    0.0000 C   0  0  0  0  0  0  0  0  0  0  0  0
    5.3630   -4.8965    0.0000 C   0  0  0  0  0  0  0  0  0  0  0  0
    5.5440   -6.6190    0.0000 C   0  0  0  0  0  0  0  0  0  0  0  0
    4.7752   -4.0875    0.0000 C   0  0  0  0  0  0  0  0  0  0  0  0
    4.9562   -5.8100    0.0000 C   0  0  0  0  0  0  0  0  0  0  0  0
    3.7320    2.6190    0.0000 C   0  0  1  0  0  0  0  0  0  0  0  0
    4.2320    1.0802    0.0000 C   0  0  1  0  0  0  0  0  0  0  0  0
    5.1819   -3.1739    0.0000 C   0  0  0  0  0  0  0  0  0  0  0  0
    2.9230    2.0313    0.0000 C   0  0  0  0  0  0  0  0  0  0  0  0
    3.2320    1.0802    0.0000 C   0  0  0  0  0  0  0  0  0  0  0  0
    4.8198    0.2712    0.0000 C   0  0  0  0  0  0  0  0  0  0  0  0
    2.8660    4.1190    0.0000 C   0  0  0  0  0  0  0  0  0  0  0  0
    4.5981    4.1190    0.0000 C   0  0  0  0  0  0  0  0  0  0  0  0
    2.8660    5.1190    0.0000 C   0  0  0  0  0  0  0  0  0  0  0  0
    5.0009   -1.4514    0.0000 C   0  0  0  0  0  0  0  0  0  0  0  0
    3.7320    5.6190    0.0000 C   0  0  0  0  0  0  0  0  0  0  0  0
    2.0000    5.6190    0.0000 C   0  0  0  0  0  0  0  0  0  0  0  0
    7.4593   -5.9477    0.0000 H   0  0  0  0  0  0  0  0  0  0  0  0
    7.3760   -5.1550    0.0000 H   0  0  0  0  0  0  0  0  0  0  0  0
    6.9148   -4.5202    0.0000 H   0  0  0  0  0  0  0  0  0  0  0  0
    6.1866   -4.1960    0.0000 H   0  0  0  0  0  0  0  0  0  0  0  0
    6.4953   -7.1330    0.0000 H   0  0  0  0  0  0  0  0  0  0  0  0
    7.1401   -6.6645    0.0000 H   0  0  0  0  0  0  0  0  0  0  0  0
    4.9868   -6.8908    0.0000 H   0  0  0  0  0  0  0  0  0  0  0  0
    5.7149   -7.2150    0.0000 H   0  0  0  0  0  0  0  0  0  0  0  0
    4.2612   -3.7408    0.0000 H   0  0  0  0  0  0  0  0  0  0  0  0
    4.3445   -4.5335    0.0000 H   0  0  0  0  0  0  0  0  0  0  0  0
    4.3396   -5.8748    0.0000 H   0  0  0  0  0  0  0  0  0  0  0  0
    4.2845    2.9005    0.0000 H   0  0  0  0  0  0  0  0  0  0  0  0
    4.8444    1.1772    0.0000 H   0  0  0  0  0  0  0  0  0  0  0  0
    5.6959   -3.5206    0.0000 H   0  0  0  0  0  0  0  0  0  0  0  0
    5.6126   -2.7279    0.0000 H   0  0  0  0  0  0  0  0  0  0  0  0
    2.3334    2.2229    0.0000 H   0  0  0  0  0  0  0  0  0  0  0  0
    2.8676    0.5786    0.0000 H   0  0  0  0  0  0  0  0  0  0  0  0
    5.3338   -0.0755    0.0000 H   0  0  0  0  0  0  0  0  0  0  0  0
    5.2505    0.7172    0.0000 H   0  0  0  0  0  0  0  0  0  0  0  0
    3.9775   -2.4297    0.0000 H   0  0  0  0  0  0  0  0  0  0  0  0
    2.3291    3.8090    0.0000 H   0  0  0  0  0  0  0  0  0  0  0  0
    5.1350    5.4290    0.0000 H   0  0  0  0  0  0  0  0  0  0  0  0
    2.3100    6.1560    0.0000 H   0  0  0  0  0  0  0  0  0  0  0  0
    1.4631    5.9290    0.0000 H   0  0  0  0  0  0  0  0  0  0  0  0
    1.6900    5.0821    0.0000 H   0  0  0  0  0  0  0  0  0  0  0  0
  1 16  1  0  0  0  0
  1 17  1  0  0  0  0
  2 21  1  0  0  0  0
  2 25  1  0  0  0  0
  3 23  2  0  0  0  0
  4 25  2  0  0  0  0
  5 26  2  0  0  0  0
 16  6  1  6  0  0  0
  6 22  1  0  0  0  0
  6 23  1  0  0  0  0
  7 18  1  0  0  0  0
  7 25  1  0  0  0  0
  7 47  1  0  0  0  0
  8 23  1  0  0  0  0
  8 26  1  0  0  0  0
  8 49  1  0  0  0  0
  9 10  1  0  0  0  0
  9 11  1  0  0  0  0
  9 28  1  0  0  0  0
  9 29  1  0  0  0  0
 10 12  1  0  0  0  0
 10 30  1  0  0  0  0
 10 31  1  0  0  0  0
 11 13  1  0  0  0  0
 11 32  1  0  0  0  0
 11 33  1  0  0  0  0
 12 14  1  0  0  0  0
 12 15  2  0  0  0  0
 13 15  1  0  0  0  0
 13 34  1  0  0  0  0
 13 35  1  0  0  0  0
 14 18  1  0  0  0  0
 14 36  1  0  0  0  0
 14 37  1  0  0  0  0
 15 38  1  0  0  0  0
 16 19  1  0  0  0  0
 16 39  1  0  0  0  0
 17 20  1  0  0  0  0
 17 21  1  6  0  0  0
 17 40  1  0  0  0  0
 18 41  1  0  0  0  0
 18 42  1  0  0  0  0
 19 20  2  0  0  0  0
 19 43  1  0  0  0  0
 20 44  1  0  0  0  0
 21 45  1  0  0  0  0
 21 46  1  0  0  0  0
 22 24  2  0  0  0  0
 22 48  1  0  0  0  0
 24 26  1  0  0  0  0
 24 27  1  0  0  0  0
 27 50  1  0  0  0  0
 27 51  1  0  0  0  0
 27 52  1  0  0  0  0
M  END
> <PUBCHEM_COMPOUND_CID>
502186
> <PUBCHEM_COMPOUND_CANONICALIZED>
1
> <PUBCHEM_CACTVS_COMPLEXITY>
698
> <PUBCHEM_CACTVS_HBOND_ACCEPTOR>
5
> <PUBCHEM_CACTVS_HBOND_DONOR>
2
> <PUBCHEM_CACTVS_ROTATABLE_BOND>
7
> <PUBCHEM_CACTVS_SUBSKEYS>
AAADceB7OAAAAAAAAAAAAAAAAAAAAQAAAAAgQAAAAAAAAAAAAAAAHgAQAAAADBThgAYDCAPABACIAiFWWACAAAAgAAAICIEIAEmBBAIAoQAOEAAI1yIKIMMQgIAAAAAAAAAAAAAAAAAAAAAAAAAAAAAAAA==
> <PUBCHEM_IUPAC_OPENEYE_NAME>
[(2S,5R)-5-(5-methyl-2,4-dioxo-pyrimidin-1-yl)-2,5-dihydrofuran-2-yl]methyl N-[2-(cyclohexen-1-yl)ethyl]carbamate
> <PUBCHEM_IUPAC_CAS_NAME>
N-[2-(1-cyclohexenyl)ethyl]carbamic acid [(2S,5R)-5-(5-methyl-2,4-dioxo-1-pyrimidinyl)-2,5-dihydrofuran-2-yl]methyl ester
> <PUBCHEM_IUPAC_NAME_MARKUP>
[(2<I>S</I>,5<I>R</I>)-5-(5-methyl-2,4-dioxopyrimidin-1-yl)-2,5-dihydrofuran-2-yl]methyl <I>N</I>-[2-(cyclohexen-1-yl)ethyl]carbamate
> <PUBCHEM_IUPAC_NAME>
[(2S,5R)-5-(5-methyl-2,4-dioxopyrimidin-1-yl)-2,5-dihydrofuran-2-yl]methyl N-[2-(cyclohexen-1-yl)ethyl]carbamate
> <PUBCHEM_IUPAC_SYSTEMATIC_NAME>
[(2S,5R)-5-[5-methyl-2,4-bis(oxidanylidene)pyrimidin-1-yl]-2,5-dihydrofuran-2-yl]methyl N-[2-(cyclohexen-1-yl)ethyl]carbamate
> <PUBCHEM_IUPAC_TRADITIONAL_NAME>
N-[2-(cyclohexen-1-yl)ethyl]carbamic acid [(2S,5R)-5-(2,4-diketo-5-methyl-pyrimidin-1-yl)-2,5-dihydrofuran-2-yl]methyl ester
> <PUBCHEM_IUPAC_INCHI>
InChI=1S/C19H25N3O5/c1-13-11-22(18(24)21-17(13)23)16-8-7-15(27-16)12-26-19(25)20-10-9-14-5-3-2-4-6-14/h5,7-8,11,15-16H,2-4,6,9-10,12H2,1H3,(H,20,25)(H,21,23,24)/t15-,16+/m0/s1
> <PUBCHEM_IUPAC_INCHIKEY>
SJJHVADPSXSNCY-JKSUJKDBSA-N
> <PUBCHEM_XLOGP3>
1.6
> <PUBCHEM_EXACT_MASS>
375.17942091
> <PUBCHEM_MOLECULAR_FORMULA>
C19H25N3O5
> <PUBCHEM_MOLECULAR_WEIGHT>
375.4
> <PUBCHEM_OPENEYE_CAN_SMILES>
CC1=CN(C(=O)NC1=O)C2C=CC(O2)COC(=O)NCCC3=CCCCC3
> <PUBCHEM_OPENEYE_ISO_SMILES>
CC1=CN(C(=O)NC1=O)[C@H]2C=C[C@H](O2)COC(=O)NCCC3=CCCCC3
> <PUBCHEM_CACTVS_TPSA>
97
> <PUBCHEM_MONOISOTOPIC_WEIGHT>
375.17942091
> <PUBCHEM_TOTAL_CHARGE>
0
> <PUBCHEM_HEAVY_ATOM_COUNT>
27
> <PUBCHEM_ATOM_DEF_STEREO_COUNT>
2
> <PUBCHEM_ATOM_UDEF_STEREO_COUNT>
0
> <PUBCHEM_BOND_DEF_STEREO_COUNT>
0
> <PUBCHEM_BOND_UDEF_STEREO_COUNT>
0
> <PUBCHEM_ISOTOPIC_ATOM_COUNT>
0
> <PUBCHEM_COMPONENT_COUNT>
1
> <PUBCHEM_CACTVS_TAUTO_COUNT>
-1
> <PUBCHEM_COORDINATE_TYPE>
1
5
255
> <PUBCHEM_BONDANNOTATIONS>
17  21  6
22  24  8
24  26  8
16  6  6
6  22  8
6  23  8
8  23  8
8  26  8
$$$$
