502148
  -OEChem-10302200282D
 71 71  0     1  0  0  0  0  0999 V2000
    6.3301   -3.5600    0.0000 O   0  0  0  0  0  0  0  0  0  0  0  0
    2.8660   -4.5600    0.0000 O   0  0  0  0  0  0  0  0  0  0  0  0
    2.0000   -2.0600    0.0000 O   0  0  0  0  0  0  0  0  0  0  0  0
    5.4641   -2.0600    0.0000 N   0  0  0  0  0  0  0  0  0  0  0  0
    4.5981   -4.5600    0.0000 N   0  0  0  0  0  0  0  0  0  0  0  0
   11.5263    7.4400    0.0000 N   0  0  0  0  0  0  0  0  0  0  0  0
    2.8660   -0.5600    0.0000 N   0  0  0  0  0  0  0  0  0  0  0  0
    8.0622    2.4400    0.0000 C   0  0  0  0  0  0  0  0  0  0  0  0
    8.0622    1.4400    0.0000 C   0  0  0  0  0  0  0  0  0  0  0  0
    8.9282    2.9400    0.0000 C   0  0  0  0  0  0  0  0  0  0  0  0
    7.1962    0.9400    0.0000 C   0  0  0  0  0  0  0  0  0  0  0  0
    8.9282    3.9400    0.0000 C   0  0  0  0  0  0  0  0  0  0  0  0
    7.1962   -0.0600    0.0000 C   0  0  0  0  0  0  0  0  0  0  0  0
    9.7942    4.4400    0.0000 C   0  0  0  0  0  0  0  0  0  0  0  0
    6.3301   -0.5600    0.0000 C   0  0  0  0  0  0  0  0  0  0  0  0
    9.7942    5.4400    0.0000 C   0  0  0  0  0  0  0  0  0  0  0  0
    6.3301   -1.5600    0.0000 C   0  0  0  0  0  0  0  0  0  0  0  0
   10.6603    5.9400    0.0000 C   0  0  0  0  0  0  0  0  0  0  0  0
    4.5981   -3.5600    0.0000 C   0  0  3  0  0  0  0  0  0  0  0  0
    3.7320   -3.0600    0.0000 C   0  0  0  0  0  0  0  0  0  0  0  0
   10.6603    6.9400    0.0000 C   0  0  0  0  0  0  0  0  0  0  0  0
    5.4641   -3.0600    0.0000 C   0  0  0  0  0  0  0  0  0  0  0  0
    3.7320   -2.0600    0.0000 C   0  0  0  0  0  0  0  0  0  0  0  0
    3.7320   -5.0600    0.0000 C   0  0  0  0  0  0  0  0  0  0  0  0
    2.8660   -1.5600    0.0000 C   0  0  0  0  0  0  0  0  0  0  0  0
    3.7320   -6.0600    0.0000 C   0  0  0  0  0  0  0  0  0  0  0  0
    2.8660   -6.5600    0.0000 C   0  0  0  0  0  0  0  0  0  0  0  0
    4.5981   -6.5600    0.0000 C   0  0  0  0  0  0  0  0  0  0  0  0
    2.8660   -7.5600    0.0000 C   0  0  0  0  0  0  0  0  0  0  0  0
    4.5981   -7.5600    0.0000 C   0  0  0  0  0  0  0  0  0  0  0  0
    3.7320   -8.0600    0.0000 C   0  0  0  0  0  0  0  0  0  0  0  0
    7.8501    3.0226    0.0000 H   0  0  0  0  0  0  0  0  0  0  0  0
    7.4516    2.3323    0.0000 H   0  0  0  0  0  0  0  0  0  0  0  0
    8.2742    0.8574    0.0000 H   0  0  0  0  0  0  0  0  0  0  0  0
    8.6728    1.5477    0.0000 H   0  0  0  0  0  0  0  0  0  0  0  0
    9.1403    2.3574    0.0000 H   0  0  0  0  0  0  0  0  0  0  0  0
    9.5388    3.0477    0.0000 H   0  0  0  0  0  0  0  0  0  0  0  0
    6.9841    1.5226    0.0000 H   0  0  0  0  0  0  0  0  0  0  0  0
    6.5856    0.8323    0.0000 H   0  0  0  0  0  0  0  0  0  0  0  0
    8.7162    4.5226    0.0000 H   0  0  0  0  0  0  0  0  0  0  0  0
    8.3176    3.8323    0.0000 H   0  0  0  0  0  0  0  0  0  0  0  0
    7.4082   -0.6426    0.0000 H   0  0  0  0  0  0  0  0  0  0  0  0
    7.8067    0.0477    0.0000 H   0  0  0  0  0  0  0  0  0  0  0  0
   10.0063    3.8574    0.0000 H   0  0  0  0  0  0  0  0  0  0  0  0
   10.4048    4.5477    0.0000 H   0  0  0  0  0  0  0  0  0  0  0  0
    6.1181    0.0226    0.0000 H   0  0  0  0  0  0  0  0  0  0  0  0
    5.7196   -0.6677    0.0000 H   0  0  0  0  0  0  0  0  0  0  0  0
    9.5822    6.0226    0.0000 H   0  0  0  0  0  0  0  0  0  0  0  0
    9.1836    5.3323    0.0000 H   0  0  0  0  0  0  0  0  0  0  0  0
    6.5422   -2.1426    0.0000 H   0  0  0  0  0  0  0  0  0  0  0  0
    6.9407   -1.4523    0.0000 H   0  0  0  0  0  0  0  0  0  0  0  0
   10.8723    5.3574    0.0000 H   0  0  0  0  0  0  0  0  0  0  0  0
   11.2708    6.0477    0.0000 H   0  0  0  0  0  0  0  0  0  0  0  0
    5.1350   -3.8700    0.0000 H   0  0  0  0  0  0  0  0  0  0  0  0
    4.9272   -1.7500    0.0000 H   0  0  0  0  0  0  0  0  0  0  0  0
    3.1215   -2.9523    0.0000 H   0  0  0  0  0  0  0  0  0  0  0  0
    3.5200   -3.6426    0.0000 H   0  0  0  0  0  0  0  0  0  0  0  0
   10.4482    7.5226    0.0000 H   0  0  0  0  0  0  0  0  0  0  0  0
   10.0497    6.8323    0.0000 H   0  0  0  0  0  0  0  0  0  0  0  0
    4.3426   -2.1677    0.0000 H   0  0  0  0  0  0  0  0  0  0  0  0
    3.9441   -1.4774    0.0000 H   0  0  0  0  0  0  0  0  0  0  0  0
    5.1350   -4.8700    0.0000 H   0  0  0  0  0  0  0  0  0  0  0  0
   11.5263    8.0600    0.0000 H   0  0  0  0  0  0  0  0  0  0  0  0
   12.0632    7.1300    0.0000 H   0  0  0  0  0  0  0  0  0  0  0  0
    2.3291   -0.2500    0.0000 H   0  0  0  0  0  0  0  0  0  0  0  0
    3.4030   -0.2500    0.0000 H   0  0  0  0  0  0  0  0  0  0  0  0
    2.3291   -6.2500    0.0000 H   0  0  0  0  0  0  0  0  0  0  0  0
    5.1350   -6.2500    0.0000 H   0  0  0  0  0  0  0  0  0  0  0  0
    2.3291   -7.8700    0.0000 H   0  0  0  0  0  0  0  0  0  0  0  0
    5.1350   -7.8700    0.0000 H   0  0  0  0  0  0  0  0  0  0  0  0
    3.7320   -8.6800    0.0000 H   0  0  0  0  0  0  0  0  0  0  0  0
  1 22  2  0  0  0  0
  2 24  2  0  0  0  0
  3 25  2  0  0  0  0
  4 17  1  0  0  0  0
  4 22  1  0  0  0  0
  4 55  1  0  0  0  0
  5 19  1  0  0  0  0
  5 24  1  0  0  0  0
  5 62  1  0  0  0  0
  6 21  1  0  0  0  0
  6 63  1  0  0  0  0
  6 64  1  0  0  0  0
  7 25  1  0  0  0  0
  7 65  1  0  0  0  0
  7 66  1  0  0  0  0
  8  9  1  0  0  0  0
  8 10  1  0  0  0  0
  8 32  1  0  0  0  0
  8 33  1  0  0  0  0
  9 11  1  0  0  0  0
  9 34  1  0  0  0  0
  9 35  1  0  0  0  0
 10 12  1  0  0  0  0
 10 36  1  0  0  0  0
 10 37  1  0  0  0  0
 11 13  1  0  0  0  0
 11 38  1  0  0  0  0
 11 39  1  0  0  0  0
 12 14  1  0  0  0  0
 12 40  1  0  0  0  0
 12 41  1  0  0  0  0
 13 15  1  0  0  0  0
 13 42  1  0  0  0  0
 13 43  1  0  0  0  0
 14 16  1  0  0  0  0
 14 44  1  0  0  0  0
 14 45  1  0  0  0  0
 15 17  1  0  0  0  0
 15 46  1  0  0  0  0
 15 47  1  0  0  0  0
 16 18  1  0  0  0  0
 16 48  1  0  0  0  0
 16 49  1  0  0  0  0
 17 50  1  0  0  0  0
 17 51  1  0  0  0  0
 18 21  1  0  0  0  0
 18 52  1  0  0  0  0
 18 53  1  0  0  0  0
 19 20  1  0  0  0  0
 19 22  1  0  0  0  0
 19 54  1  0  0  0  0
 20 23  1  0  0  0  0
 20 56  1  0  0  0  0
 20 57  1  0  0  0  0
 21 58  1  0  0  0  0
 21 59  1  0  0  0  0
 23 25  1  0  0  0  0
 23 60  1  0  0  0  0
 23 61  1  0  0  0  0
 24 26  1  0  0  0  0
 26 27  2  0  0  0  0
 26 28  1  0  0  0  0
 27 29  1  0  0  0  0
 27 67  1  0  0  0  0
 28 30  2  0  0  0  0
 28 68  1  0  0  0  0
 29 31  2  0  0  0  0
 29 69  1  0  0  0  0
 30 31  1  0  0  0  0
 30 70  1  0  0  0  0
 31 71  1  0  0  0  0
M  END
> <PUBCHEM_COMPOUND_CID>
502148
> <PUBCHEM_COMPOUND_CANONICALIZED>
1
> <PUBCHEM_CACTVS_COMPLEXITY>
507
> <PUBCHEM_CACTVS_HBOND_ACCEPTOR>
4
> <PUBCHEM_CACTVS_HBOND_DONOR>
4
> <PUBCHEM_CACTVS_ROTATABLE_BOND>
18
> <PUBCHEM_CACTVS_SUBSKEYS>
AAADcfB7sAAAAAAAAAAAAAAAAAAAAAAAAAAwAAAAAAAAAAABAAAAHgAQAAAADCjBmAQwAILAAACIAiFSEACCAAAkAAAIiIGIBMgIYDKAlTGUIQhglgCIiYcci4COAAAAAAAAAAAAAAAAAAAAAAAAAAAAAA==
> <PUBCHEM_IUPAC_OPENEYE_NAME>
N-(12-aminododecyl)-2-benzamido-pentanediamide
> <PUBCHEM_IUPAC_CAS_NAME>
N-(12-aminododecyl)-2-benzamidopentanediamide
> <PUBCHEM_IUPAC_NAME_MARKUP>
<I>N</I>-(12-aminododecyl)-2-benzamidopentanediamide
> <PUBCHEM_IUPAC_NAME>
N-(12-aminododecyl)-2-benzamidopentanediamide
> <PUBCHEM_IUPAC_SYSTEMATIC_NAME>
N-(12-azanyldodecyl)-2-benzamido-pentanediamide
> <PUBCHEM_IUPAC_TRADITIONAL_NAME>
N-(12-aminododecyl)-2-benzamido-glutaramide
> <PUBCHEM_IUPAC_INCHI>
InChI=1S/C24H40N4O3/c25-18-12-7-5-3-1-2-4-6-8-13-19-27-24(31)21(16-17-22(26)29)28-23(30)20-14-10-9-11-15-20/h9-11,14-15,21H,1-8,12-13,16-19,25H2,(H2,26,29)(H,27,31)(H,28,30)
> <PUBCHEM_IUPAC_INCHIKEY>
LABYCWDMZZCPOZ-UHFFFAOYSA-N
> <PUBCHEM_XLOGP3_AA>
3.5
> <PUBCHEM_EXACT_MASS>
432.31004115
> <PUBCHEM_MOLECULAR_FORMULA>
C24H40N4O3
> <PUBCHEM_MOLECULAR_WEIGHT>
432.6
> <PUBCHEM_OPENEYE_CAN_SMILES>
C1=CC=C(C=C1)C(=O)NC(CCC(=O)N)C(=O)NCCCCCCCCCCCCN
> <PUBCHEM_OPENEYE_ISO_SMILES>
C1=CC=C(C=C1)C(=O)NC(CCC(=O)N)C(=O)NCCCCCCCCCCCCN
> <PUBCHEM_CACTVS_TPSA>
127
> <PUBCHEM_MONOISOTOPIC_WEIGHT>
432.31004115
> <PUBCHEM_TOTAL_CHARGE>
0
> <PUBCHEM_HEAVY_ATOM_COUNT>
31
> <PUBCHEM_ATOM_DEF_STEREO_COUNT>
0
> <PUBCHEM_ATOM_UDEF_STEREO_COUNT>
1
> <PUBCHEM_BOND_DEF_STEREO_COUNT>
0
> <PUBCHEM_BOND_UDEF_STEREO_COUNT>
0
> <PUBCHEM_ISOTOPIC_ATOM_COUNT>
0
> <PUBCHEM_COMPONENT_COUNT>
1
> <PUBCHEM_CACTVS_TAUTO_COUNT>
-1
> <PUBCHEM_COORDINATE_TYPE>
1
5
255
> <PUBCHEM_BONDANNOTATIONS>
19  20  3
26  27  8
26  28  8
27  29  8
28  30  8
29  31  8
30  31  8
$$$$
