502151
  -OEChem-10302200282D
102104  0     1  0  0  0  0  0999 V2000
    6.0010   -6.2432    0.0000 O   0  0  0  0  0  0  0  0  0  0  0  0
    8.5991   -3.7432    0.0000 O   0  0  0  0  0  0  0  0  0  0  0  0
    5.1350   -4.7432    0.0000 O   0  0  0  0  0  0  0  0  0  0  0  0
    9.4651   -0.2432    0.0000 O   0  0  0  0  0  0  0  0  0  0  0  0
   10.3312   -0.7432    0.0000 O   0  0  0  0  0  0  0  0  0  0  0  0
    6.8671   -4.7432    0.0000 N   0  0  0  0  0  0  0  0  0  0  0  0
    7.7331   -2.2432    0.0000 N   0  0  0  0  0  0  0  0  0  0  0  0
    7.7331   -0.2432    0.0000 N   0  0  0  0  0  0  0  0  0  0  0  0
    6.0010    2.7568    0.0000 N   0  0  0  0  0  0  0  0  0  0  0  0
    4.2690    6.7568    0.0000 N   0  0  0  0  0  0  0  0  0  0  0  0
    4.2690   -0.2432    0.0000 N   0  0  0  0  0  0  0  0  0  0  0  0
   11.1972   -2.2432    0.0000 N   0  0  0  0  0  0  0  0  0  0  0  0
    2.5369    9.7568    0.0000 N   0  0  0  0  0  0  0  0  0  0  0  0
    5.1350   -7.7432    0.0000 C   0  0  0  0  0  0  0  0  0  0  0  0
    5.9440   -8.3310    0.0000 C   0  0  0  0  0  0  0  0  0  0  0  0
    4.3260   -8.3310    0.0000 C   0  0  0  0  0  0  0  0  0  0  0  0
    5.6350   -9.2820    0.0000 C   0  0  0  0  0  0  0  0  0  0  0  0
    4.6350   -9.2820    0.0000 C   0  0  0  0  0  0  0  0  0  0  0  0
    5.1350   -6.7432    0.0000 C   0  0  0  0  0  0  0  0  0  0  0  0
    6.9594   -8.0988    0.0000 C   0  0  0  0  0  0  0  0  0  0  0  0
    3.3106   -8.0988    0.0000 C   0  0  0  0  0  0  0  0  0  0  0  0
    6.3200  -10.0668    0.0000 C   0  0  0  0  0  0  0  0  0  0  0  0
    3.9500  -10.0668    0.0000 C   0  0  0  0  0  0  0  0  0  0  0  0
    6.8671   -3.7432    0.0000 C   0  0  3  0  0  0  0  0  0  0  0  0
    6.0010   -3.2432    0.0000 C   0  0  0  0  0  0  0  0  0  0  0  0
    7.6624   -8.8674    0.0000 C   0  0  0  0  0  0  0  0  0  0  0  0
    2.6076   -8.8674    0.0000 C   0  0  0  0  0  0  0  0  0  0  0  0
    7.3405   -9.8581    0.0000 C   0  0  0  0  0  0  0  0  0  0  0  0
    2.9295   -9.8581    0.0000 C   0  0  0  0  0  0  0  0  0  0  0  0
    6.0010   -2.2432    0.0000 C   0  0  0  0  0  0  0  0  0  0  0  0
    7.7331   -3.2432    0.0000 C   0  0  0  0  0  0  0  0  0  0  0  0
    6.0010   -5.2432    0.0000 C   0  0  0  0  0  0  0  0  0  0  0  0
    5.1350   -1.7432    0.0000 C   0  0  0  0  0  0  0  0  0  0  0  0
    8.5991   -1.7432    0.0000 C   0  0  3  0  0  0  0  0  0  0  0  0
    9.4651   -2.2432    0.0000 C   0  0  0  0  0  0  0  0  0  0  0  0
    5.1350   -0.7432    0.0000 C   0  0  0  0  0  0  0  0  0  0  0  0
    5.1350    4.2568    0.0000 C   0  0  0  0  0  0  0  0  0  0  0  0
    6.8671    1.2568    0.0000 C   0  0  0  0  0  0  0  0  0  0  0  0
    8.5991   -0.7432    0.0000 C   0  0  0  0  0  0  0  0  0  0  0  0
    6.0010    3.7568    0.0000 C   0  0  0  0  0  0  0  0  0  0  0  0
    5.1350    5.2568    0.0000 C   0  0  0  0  0  0  0  0  0  0  0  0
    6.8671    2.2568    0.0000 C   0  0  0  0  0  0  0  0  0  0  0  0
    7.7331    0.7568    0.0000 C   0  0  0  0  0  0  0  0  0  0  0  0
    4.2690    5.7568    0.0000 C   0  0  0  0  0  0  0  0  0  0  0  0
    3.4030    7.2568    0.0000 C   0  0  0  0  0  0  0  0  0  0  0  0
   10.3312   -1.7432    0.0000 C   0  0  0  0  0  0  0  0  0  0  0  0
    3.4030    8.2568    0.0000 C   0  0  0  0  0  0  0  0  0  0  0  0
    2.5369    8.7568    0.0000 C   0  0  0  0  0  0  0  0  0  0  0  0
    5.6874   -7.4617    0.0000 H   0  0  0  0  0  0  0  0  0  0  0  0
    4.9230   -6.1606    0.0000 H   0  0  0  0  0  0  0  0  0  0  0  0
    4.5244   -6.8509    0.0000 H   0  0  0  0  0  0  0  0  0  0  0  0
    7.1442   -7.5069    0.0000 H   0  0  0  0  0  0  0  0  0  0  0  0
    3.1258   -7.5069    0.0000 H   0  0  0  0  0  0  0  0  0  0  0  0
    6.1216  -10.6542    0.0000 H   0  0  0  0  0  0  0  0  0  0  0  0
    4.1484  -10.6542    0.0000 H   0  0  0  0  0  0  0  0  0  0  0  0
    6.3301   -4.0532    0.0000 H   0  0  0  0  0  0  0  0  0  0  0  0
    5.3905   -3.1356    0.0000 H   0  0  0  0  0  0  0  0  0  0  0  0
    5.7890   -3.8258    0.0000 H   0  0  0  0  0  0  0  0  0  0  0  0
    8.2683   -8.7362    0.0000 H   0  0  0  0  0  0  0  0  0  0  0  0
    2.0017   -8.7362    0.0000 H   0  0  0  0  0  0  0  0  0  0  0  0
    7.7536  -10.3204    0.0000 H   0  0  0  0  0  0  0  0  0  0  0  0
    2.5164  -10.3204    0.0000 H   0  0  0  0  0  0  0  0  0  0  0  0
    6.6116   -2.3509    0.0000 H   0  0  0  0  0  0  0  0  0  0  0  0
    6.2131   -1.6606    0.0000 H   0  0  0  0  0  0  0  0  0  0  0  0
    7.4040   -5.0532    0.0000 H   0  0  0  0  0  0  0  0  0  0  0  0
    4.5244   -1.6356    0.0000 H   0  0  0  0  0  0  0  0  0  0  0  0
    4.9230   -2.3258    0.0000 H   0  0  0  0  0  0  0  0  0  0  0  0
    8.0622   -1.4332    0.0000 H   0  0  0  0  0  0  0  0  0  0  0  0
    7.1962   -1.9332    0.0000 H   0  0  0  0  0  0  0  0  0  0  0  0
    9.0666   -2.7182    0.0000 H   0  0  0  0  0  0  0  0  0  0  0  0
    9.8637   -2.7182    0.0000 H   0  0  0  0  0  0  0  0  0  0  0  0
    5.7456   -0.8509    0.0000 H   0  0  0  0  0  0  0  0  0  0  0  0
    5.3471   -0.1606    0.0000 H   0  0  0  0  0  0  0  0  0  0  0  0
    4.5244    4.3644    0.0000 H   0  0  0  0  0  0  0  0  0  0  0  0
    4.9230    3.6742    0.0000 H   0  0  0  0  0  0  0  0  0  0  0  0
    6.2565    1.3644    0.0000 H   0  0  0  0  0  0  0  0  0  0  0  0
    6.6550    0.6742    0.0000 H   0  0  0  0  0  0  0  0  0  0  0  0
    6.6116    3.6491    0.0000 H   0  0  0  0  0  0  0  0  0  0  0  0
    6.2131    4.3394    0.0000 H   0  0  0  0  0  0  0  0  0  0  0  0
    5.7456    5.1491    0.0000 H   0  0  0  0  0  0  0  0  0  0  0  0
    5.3471    5.8394    0.0000 H   0  0  0  0  0  0  0  0  0  0  0  0
    7.4776    2.1491    0.0000 H   0  0  0  0  0  0  0  0  0  0  0  0
    7.0791    2.8394    0.0000 H   0  0  0  0  0  0  0  0  0  0  0  0
    8.3437    0.6491    0.0000 H   0  0  0  0  0  0  0  0  0  0  0  0
    7.9451    1.3394    0.0000 H   0  0  0  0  0  0  0  0  0  0  0  0
    5.4641    2.4468    0.0000 H   0  0  0  0  0  0  0  0  0  0  0  0
    7.1962   -0.5532    0.0000 H   0  0  0  0  0  0  0  0  0  0  0  0
    3.6584    5.8644    0.0000 H   0  0  0  0  0  0  0  0  0  0  0  0
    4.0569    5.1742    0.0000 H   0  0  0  0  0  0  0  0  0  0  0  0
    4.8059    7.0668    0.0000 H   0  0  0  0  0  0  0  0  0  0  0  0
    2.7924    7.3644    0.0000 H   0  0  0  0  0  0  0  0  0  0  0  0
    3.1909    6.6742    0.0000 H   0  0  0  0  0  0  0  0  0  0  0  0
    4.2690    0.3768    0.0000 H   0  0  0  0  0  0  0  0  0  0  0  0
    3.7320   -0.5532    0.0000 H   0  0  0  0  0  0  0  0  0  0  0  0
    4.0135    8.1491    0.0000 H   0  0  0  0  0  0  0  0  0  0  0  0
    3.6150    8.8394    0.0000 H   0  0  0  0  0  0  0  0  0  0  0  0
    1.9264    8.8644    0.0000 H   0  0  0  0  0  0  0  0  0  0  0  0
    2.3249    8.1742    0.0000 H   0  0  0  0  0  0  0  0  0  0  0  0
   11.7341   -1.9332    0.0000 H   0  0  0  0  0  0  0  0  0  0  0  0
   11.1972   -2.8632    0.0000 H   0  0  0  0  0  0  0  0  0  0  0  0
    2.0000   10.0668    0.0000 H   0  0  0  0  0  0  0  0  0  0  0  0
    3.0739   10.0668    0.0000 H   0  0  0  0  0  0  0  0  0  0  0  0
  1 19  1  0  0  0  0
  1 32  1  0  0  0  0
  2 31  2  0  0  0  0
  3 32  2  0  0  0  0
  4 39  2  0  0  0  0
  5 46  2  0  0  0  0
  6 24  1  0  0  0  0
  6 32  1  0  0  0  0
  6 65  1  0  0  0  0
  7 31  1  0  0  0  0
  7 34  1  0  0  0  0
  7 69  1  0  0  0  0
  8 39  1  0  0  0  0
  8 43  1  0  0  0  0
  8 87  1  0  0  0  0
  9 40  1  0  0  0  0
  9 42  1  0  0  0  0
  9 86  1  0  0  0  0
 10 44  1  0  0  0  0
 10 45  1  0  0  0  0
 10 90  1  0  0  0  0
 11 36  1  0  0  0  0
 11 93  1  0  0  0  0
 11 94  1  0  0  0  0
 12 46  1  0  0  0  0
 12 99  1  0  0  0  0
 12100  1  0  0  0  0
 13 48  1  0  0  0  0
 13101  1  0  0  0  0
 13102  1  0  0  0  0
 14 15  1  0  0  0  0
 14 16  1  0  0  0  0
 14 19  1  0  0  0  0
 14 49  1  0  0  0  0
 15 17  1  0  0  0  0
 15 20  2  0  0  0  0
 16 18  1  0  0  0  0
 16 21  2  0  0  0  0
 17 18  1  0  0  0  0
 17 22  2  0  0  0  0
 18 23  2  0  0  0  0
 19 50  1  0  0  0  0
 19 51  1  0  0  0  0
 20 26  1  0  0  0  0
 20 52  1  0  0  0  0
 21 27  1  0  0  0  0
 21 53  1  0  0  0  0
 22 28  1  0  0  0  0
 22 54  1  0  0  0  0
 23 29  1  0  0  0  0
 23 55  1  0  0  0  0
 24 25  1  0  0  0  0
 24 31  1  0  0  0  0
 24 56  1  0  0  0  0
 25 30  1  0  0  0  0
 25 57  1  0  0  0  0
 25 58  1  0  0  0  0
 26 28  2  0  0  0  0
 26 59  1  0  0  0  0
 27 29  2  0  0  0  0
 27 60  1  0  0  0  0
 28 61  1  0  0  0  0
 29 62  1  0  0  0  0
 30 33  1  0  0  0  0
 30 63  1  0  0  0  0
 30 64  1  0  0  0  0
 33 36  1  0  0  0  0
 33 66  1  0  0  0  0
 33 67  1  0  0  0  0
 34 35  1  0  0  0  0
 34 39  1  0  0  0  0
 34 68  1  0  0  0  0
 35 46  1  0  0  0  0
 35 70  1  0  0  0  0
 35 71  1  0  0  0  0
 36 72  1  0  0  0  0
 36 73  1  0  0  0  0
 37 40  1  0  0  0  0
 37 41  1  0  0  0  0
 37 74  1  0  0  0  0
 37 75  1  0  0  0  0
 38 42  1  0  0  0  0
 38 43  1  0  0  0  0
 38 76  1  0  0  0  0
 38 77  1  0  0  0  0
 40 78  1  0  0  0  0
 40 79  1  0  0  0  0
 41 44  1  0  0  0  0
 41 80  1  0  0  0  0
 41 81  1  0  0  0  0
 42 82  1  0  0  0  0
 42 83  1  0  0  0  0
 43 84  1  0  0  0  0
 43 85  1  0  0  0  0
 44 88  1  0  0  0  0
 44 89  1  0  0  0  0
 45 47  1  0  0  0  0
 45 91  1  0  0  0  0
 45 92  1  0  0  0  0
 47 48  1  0  0  0  0
 47 95  1  0  0  0  0
 47 96  1  0  0  0  0
 48 97  1  0  0  0  0
 48 98  1  0  0  0  0
M  END
> <PUBCHEM_COMPOUND_CID>
502151
> <PUBCHEM_COMPOUND_CANONICALIZED>
1
> <PUBCHEM_CACTVS_COMPLEXITY>
949
> <PUBCHEM_CACTVS_HBOND_ACCEPTOR>
9
> <PUBCHEM_CACTVS_HBOND_DONOR>
8
> <PUBCHEM_CACTVS_ROTATABLE_BOND>
25
> <PUBCHEM_CACTVS_SUBSKEYS>
AAADcfB/+AAAAAAAAAAAAAAAAAAAAYAAAAAwYAAAAAAAAGABQAAAHgAQAAAADSjhmAYwCILABACIAiFSGAACAAAgAAAIiIGIAIkIYDqA0TCcIAAk1gGIiAedyPAOgAAAAAAQAAAAAAAAACAAAQAACAAAAA==
> <PUBCHEM_IUPAC_OPENEYE_NAME>
9H-fluoren-9-ylmethyl N-[5-amino-1-[[3-amino-1-[3-[4-(3-aminopropylamino)butylamino]propylcarbamoyl]-3-oxo-propyl]carbamoyl]pentyl]carbamate
> <PUBCHEM_IUPAC_CAS_NAME>
N-[6-amino-1-[[4-amino-1-[3-[4-(3-aminopropylamino)butylamino]propylamino]-1,4-dioxobutan-2-yl]amino]-1-oxohexan-2-yl]carbamic acid 9H-fluoren-9-ylmethyl ester
> <PUBCHEM_IUPAC_NAME_MARKUP>
9<I>H</I>-fluoren-9-ylmethyl <I>N</I>-[6-amino-1-[[4-amino-1-[3-[4-(3-aminopropylamino)butylamino]propylamino]-1,4-dioxobutan-2-yl]amino]-1-oxohexan-2-yl]carbamate
> <PUBCHEM_IUPAC_NAME>
9H-fluoren-9-ylmethyl N-[6-amino-1-[[4-amino-1-[3-[4-(3-aminopropylamino)butylamino]propylamino]-1,4-dioxobutan-2-yl]amino]-1-oxohexan-2-yl]carbamate
> <PUBCHEM_IUPAC_SYSTEMATIC_NAME>
9H-fluoren-9-ylmethyl N-[6-azanyl-1-[[4-azanyl-1-[3-[4-(3-azanylpropylamino)butylamino]propylamino]-1,4-bis(oxidanylidene)butan-2-yl]amino]-1-oxidanylidene-hexan-2-yl]carbamate
> <PUBCHEM_IUPAC_TRADITIONAL_NAME>
N-[5-amino-1-[[3-amino-1-[3-[4-(3-aminopropylamino)butylamino]propylcarbamoyl]-3-keto-propyl]carbamoyl]pentyl]carbamic acid 9H-fluoren-9-ylmethyl ester
> <PUBCHEM_IUPAC_INCHI>
InChI=1S/C35H54N8O5/c36-16-6-5-15-30(43-35(47)48-24-29-27-13-3-1-11-25(27)26-12-2-4-14-28(26)29)34(46)42-31(23-32(38)44)33(45)41-22-10-21-40-19-8-7-18-39-20-9-17-37/h1-4,11-14,29-31,39-40H,5-10,15-24,36-37H2,(H2,38,44)(H,41,45)(H,42,46)(H,43,47)
> <PUBCHEM_IUPAC_INCHIKEY>
DLJPMXNBFFMLDS-UHFFFAOYSA-N
> <PUBCHEM_XLOGP3_AA>
0.4
> <PUBCHEM_EXACT_MASS>
666.42171685
> <PUBCHEM_MOLECULAR_FORMULA>
C35H54N8O5
> <PUBCHEM_MOLECULAR_WEIGHT>
666.9
> <PUBCHEM_OPENEYE_CAN_SMILES>
C1=CC=C2C(=C1)C(C3=CC=CC=C32)COC(=O)NC(CCCCN)C(=O)NC(CC(=O)N)C(=O)NCCCNCCCCNCCCN
> <PUBCHEM_OPENEYE_ISO_SMILES>
C1=CC=C2C(=C1)C(C3=CC=CC=C32)COC(=O)NC(CCCCN)C(=O)NC(CC(=O)N)C(=O)NCCCNCCCCNCCCN
> <PUBCHEM_CACTVS_TPSA>
216
> <PUBCHEM_MONOISOTOPIC_WEIGHT>
666.42171685
> <PUBCHEM_TOTAL_CHARGE>
0
> <PUBCHEM_HEAVY_ATOM_COUNT>
48
> <PUBCHEM_ATOM_DEF_STEREO_COUNT>
0
> <PUBCHEM_ATOM_UDEF_STEREO_COUNT>
2
> <PUBCHEM_BOND_DEF_STEREO_COUNT>
0
> <PUBCHEM_BOND_UDEF_STEREO_COUNT>
0
> <PUBCHEM_ISOTOPIC_ATOM_COUNT>
0
> <PUBCHEM_COMPONENT_COUNT>
1
> <PUBCHEM_CACTVS_TAUTO_COUNT>
-1
> <PUBCHEM_COORDINATE_TYPE>
1
5
255
> <PUBCHEM_BONDANNOTATIONS>
15  17  8
15  20  8
16  18  8
16  21  8
17  22  8
18  23  8
20  26  8
21  27  8
22  28  8
23  29  8
24  25  3
26  28  8
27  29  8
34  35  3
$$$$
