502208
  -OEChem-10302200282D
 66 68  0     1  0  0  0  0  0999 V2000
    5.0958   -2.2495    0.0000 P   0  0  3  0  0  0  0  0  0  0  0  0
    4.6360    1.2331    0.0000 O   0  0  0  0  0  0  0  0  0  0  0  0
    4.2868   -2.8373    0.0000 O   0  0  0  0  0  0  0  0  0  0  0  0
    4.5080   -1.4405    0.0000 O   0  0  0  0  0  0  0  0  0  0  0  0
    2.5878   -4.5242    0.0000 O   0  0  0  0  0  0  0  0  0  0  0  0
    2.9945   -3.6106    0.0000 O   0  0  0  0  0  0  0  0  0  0  0  0
    5.9048   -1.6618    0.0000 O   0  0  0  0  0  0  0  0  0  0  0  0
    5.5590    2.8209    0.0000 O   0  0  0  0  0  0  0  0  0  0  0  0
    8.0794   -1.9360    0.0000 O   0  0  0  0  0  0  0  0  0  0  0  0
    6.4971   -1.2315    0.0000 O   0  0  0  0  0  0  0  0  0  0  0  0
    3.8270    5.8209    0.0000 O   0  0  0  0  0  0  0  0  0  0  0  0
    3.8270    2.8209    0.0000 N   0  0  0  0  0  0  0  0  0  0  0  0
    5.6836   -3.0586    0.0000 N   0  0  0  0  0  0  0  0  0  0  0  0
    4.6930    4.3209    0.0000 N   0  0  0  0  0  0  0  0  0  0  0  0
    4.3270    0.2820    0.0000 C   0  0  2  0  0  0  0  0  0  0  0  0
    4.3913   -3.8318    0.0000 C   0  0  3  0  0  0  0  0  0  0  0  0
    3.5823   -4.4196    0.0000 C   0  0  0  0  0  0  0  0  0  0  0  0
    3.8270    1.8209    0.0000 C   0  0  1  0  0  0  0  0  0  0  0  0
    4.9148   -0.5270    0.0000 C   0  0  0  0  0  0  0  0  0  0  0  0
    3.3270    0.2820    0.0000 C   0  0  0  0  0  0  0  0  0  0  0  0
    3.0180    1.2331    0.0000 C   0  0  0  0  0  0  0  0  0  0  0  0
    5.3049   -4.2386    0.0000 C   0  0  0  0  0  0  0  0  0  0  0  0
    3.6868   -5.4142    0.0000 C   0  0  0  0  0  0  0  0  0  0  0  0
    6.6781   -2.9540    0.0000 C   0  0  3  0  0  0  0  0  0  0  0  0
    5.4094   -5.2331    0.0000 C   0  0  0  0  0  0  0  0  0  0  0  0
    4.6004   -5.8209    0.0000 C   0  0  0  0  0  0  0  0  0  0  0  0
    2.9610    3.3209    0.0000 C   0  0  0  0  0  0  0  0  0  0  0  0
    4.6930    3.3209    0.0000 C   0  0  0  0  0  0  0  0  0  0  0  0
    2.9610    4.3209    0.0000 C   0  0  0  0  0  0  0  0  0  0  0  0
    7.2659   -3.7630    0.0000 C   0  0  0  0  0  0  0  0  0  0  0  0
    7.0849   -2.0405    0.0000 C   0  0  0  0  0  0  0  0  0  0  0  0
    2.1810   -5.4377    0.0000 C   0  0  0  0  0  0  0  0  0  0  0  0
    2.0000   -3.7151    0.0000 C   0  0  0  0  0  0  0  0  0  0  0  0
    3.8270    4.8209    0.0000 C   0  0  0  0  0  0  0  0  0  0  0  0
    2.0949    4.8209    0.0000 C   0  0  0  0  0  0  0  0  0  0  0  0
    8.4861   -1.0224    0.0000 C   0  0  0  0  0  0  0  0  0  0  0  0
    4.9394    0.3790    0.0000 H   0  0  0  0  0  0  0  0  0  0  0  0
    3.8249   -3.5797    0.0000 H   0  0  0  0  0  0  0  0  0  0  0  0
    4.3794    2.1024    0.0000 H   0  0  0  0  0  0  0  0  0  0  0  0
    5.4288   -0.8737    0.0000 H   0  0  0  0  0  0  0  0  0  0  0  0
    5.3454   -0.0810    0.0000 H   0  0  0  0  0  0  0  0  0  0  0  0
    2.9625   -0.2195    0.0000 H   0  0  0  0  0  0  0  0  0  0  0  0
    2.4283    1.4247    0.0000 H   0  0  0  0  0  0  0  0  0  0  0  0
    5.8065   -3.8742    0.0000 H   0  0  0  0  0  0  0  0  0  0  0  0
    3.1852   -5.7786    0.0000 H   0  0  0  0  0  0  0  0  0  0  0  0
    5.4314   -3.6250    0.0000 H   0  0  0  0  0  0  0  0  0  0  0  0
    6.3137   -2.4524    0.0000 H   0  0  0  0  0  0  0  0  0  0  0  0
    5.9758   -5.4853    0.0000 H   0  0  0  0  0  0  0  0  0  0  0  0
    4.6652   -6.4375    0.0000 H   0  0  0  0  0  0  0  0  0  0  0  0
    2.4240    3.0109    0.0000 H   0  0  0  0  0  0  0  0  0  0  0  0
    6.7643   -4.1275    0.0000 H   0  0  0  0  0  0  0  0  0  0  0  0
    7.6303   -4.2646    0.0000 H   0  0  0  0  0  0  0  0  0  0  0  0
    7.7675   -3.3986    0.0000 H   0  0  0  0  0  0  0  0  0  0  0  0
    5.2299    4.6309    0.0000 H   0  0  0  0  0  0  0  0  0  0  0  0
    1.6146   -5.1855    0.0000 H   0  0  0  0  0  0  0  0  0  0  0  0
    1.9289   -6.0041    0.0000 H   0  0  0  0  0  0  0  0  0  0  0  0
    2.7474   -5.6899    0.0000 H   0  0  0  0  0  0  0  0  0  0  0  0
    1.9352   -3.0985    0.0000 H   0  0  0  0  0  0  0  0  0  0  0  0
    1.3834   -3.7800    0.0000 H   0  0  0  0  0  0  0  0  0  0  0  0
    2.0648   -4.3317    0.0000 H   0  0  0  0  0  0  0  0  0  0  0  0
    2.4049    5.3578    0.0000 H   0  0  0  0  0  0  0  0  0  0  0  0
    1.5580    5.1309    0.0000 H   0  0  0  0  0  0  0  0  0  0  0  0
    1.7849    4.2840    0.0000 H   0  0  0  0  0  0  0  0  0  0  0  0
    9.0525   -1.2746    0.0000 H   0  0  0  0  0  0  0  0  0  0  0  0
    8.7383   -0.4560    0.0000 H   0  0  0  0  0  0  0  0  0  0  0  0
    7.9197   -0.7702    0.0000 H   0  0  0  0  0  0  0  0  0  0  0  0
  1  3  1  0  0  0  0
  1  4  1  0  0  0  0
  1  7  2  0  0  0  0
  1 13  1  0  0  0  0
  2 15  1  0  0  0  0
  2 18  1  0  0  0  0
  3 16  1  0  0  0  0
  4 19  1  0  0  0  0
  5 17  1  0  0  0  0
  5 32  1  0  0  0  0
  6 17  1  0  0  0  0
  6 33  1  0  0  0  0
  8 28  2  0  0  0  0
  9 31  1  0  0  0  0
  9 36  1  0  0  0  0
 10 31  2  0  0  0  0
 11 34  2  0  0  0  0
 18 12  1  6  0  0  0
 12 27  1  0  0  0  0
 12 28  1  0  0  0  0
 13 24  1  0  0  0  0
 13 46  1  0  0  0  0
 14 28  1  0  0  0  0
 14 34  1  0  0  0  0
 14 54  1  0  0  0  0
 15 19  1  6  0  0  0
 15 20  1  0  0  0  0
 15 37  1  0  0  0  0
 16 17  1  0  0  0  0
 16 22  1  0  0  0  0
 16 38  1  0  0  0  0
 17 23  1  0  0  0  0
 18 21  1  0  0  0  0
 18 39  1  0  0  0  0
 19 40  1  0  0  0  0
 19 41  1  0  0  0  0
 20 21  2  0  0  0  0
 20 42  1  0  0  0  0
 21 43  1  0  0  0  0
 22 25  2  0  0  0  0
 22 44  1  0  0  0  0
 23 26  2  0  0  0  0
 23 45  1  0  0  0  0
 24 30  1  0  0  0  0
 24 31  1  0  0  0  0
 24 47  1  0  0  0  0
 25 26  1  0  0  0  0
 25 48  1  0  0  0  0
 26 49  1  0  0  0  0
 27 29  2  0  0  0  0
 27 50  1  0  0  0  0
 29 34  1  0  0  0  0
 29 35  1  0  0  0  0
 30 51  1  0  0  0  0
 30 52  1  0  0  0  0
 30 53  1  0  0  0  0
 32 55  1  0  0  0  0
 32 56  1  0  0  0  0
 32 57  1  0  0  0  0
 33 58  1  0  0  0  0
 33 59  1  0  0  0  0
 33 60  1  0  0  0  0
 35 61  1  0  0  0  0
 35 62  1  0  0  0  0
 35 63  1  0  0  0  0
 36 64  1  0  0  0  0
 36 65  1  0  0  0  0
 36 66  1  0  0  0  0
M  END
> <PUBCHEM_COMPOUND_CID>
502208
> <PUBCHEM_COMPOUND_CANONICALIZED>
1
> <PUBCHEM_CACTVS_COMPLEXITY>
1040
> <PUBCHEM_CACTVS_HBOND_ACCEPTOR>
11
> <PUBCHEM_CACTVS_HBOND_DONOR>
2
> <PUBCHEM_CACTVS_ROTATABLE_BOND>
12
> <PUBCHEM_CACTVS_SUBSKEYS>
AAADceB7PAIAAAAAAAAAAAAAAAAAAQAAAAAgQAAAAAAAAAAAAAAAHgAQgCAADDzhgAYDCAPABRCIQiHWWICAAAAgAAAICIGIAEibBAAAIQAvEAAI1yIKoMIAAAAAAAAAAAAAAAAAAAAAAAAAAAAAAAAAAA==
> <PUBCHEM_IUPAC_OPENEYE_NAME>
methyl 2-[[(6,6-dimethoxycyclohexa-2,4-dien-1-yl)oxy-[[(2S,5R)-5-(5-methyl-2,4-dioxo-pyrimidin-1-yl)-2,5-dihydrofuran-2-yl]methoxy]phosphoryl]amino]propanoate
> <PUBCHEM_IUPAC_CAS_NAME>
2-[[(6,6-dimethoxy-1-cyclohexa-2,4-dienyl)oxy-[[(2S,5R)-5-(5-methyl-2,4-dioxo-1-pyrimidinyl)-2,5-dihydrofuran-2-yl]methoxy]phosphoryl]amino]propanoic acid methyl ester
> <PUBCHEM_IUPAC_NAME_MARKUP>
methyl 2-[[(6,6-dimethoxycyclohexa-2,4-dien-1-yl)oxy-[[(2<I>S</I>,5<I>R</I>)-5-(5-methyl-2,4-dioxopyrimidin-1-yl)-2,5-dihydrofuran-2-yl]methoxy]phosphoryl]amino]propanoate
> <PUBCHEM_IUPAC_NAME>
methyl 2-[[(6,6-dimethoxycyclohexa-2,4-dien-1-yl)oxy-[[(2S,5R)-5-(5-methyl-2,4-dioxopyrimidin-1-yl)-2,5-dihydrofuran-2-yl]methoxy]phosphoryl]amino]propanoate
> <PUBCHEM_IUPAC_SYSTEMATIC_NAME>
methyl 2-[[(6,6-dimethoxycyclohexa-2,4-dien-1-yl)oxy-[[(2S,5R)-5-[5-methyl-2,4-bis(oxidanylidene)pyrimidin-1-yl]-2,5-dihydrofuran-2-yl]methoxy]phosphoryl]amino]propanoate
> <PUBCHEM_IUPAC_TRADITIONAL_NAME>
2-[[[(2S,5R)-5-(2,4-diketo-5-methyl-pyrimidin-1-yl)-2,5-dihydrofuran-2-yl]methoxy-(6,6-dimethoxycyclohexa-2,4-dien-1-yl)oxy-phosphoryl]amino]propionic acid methyl ester
> <PUBCHEM_IUPAC_INCHI>
InChI=1S/C22H30N3O10P/c1-14-12-25(21(28)23-19(14)26)18-10-9-16(34-18)13-33-36(29,24-15(2)20(27)30-3)35-17-8-6-7-11-22(17,31-4)32-5/h6-12,15-18H,13H2,1-5H3,(H,24,29)(H,23,26,28)/t15?,16-,17?,18+,36?/m0/s1
> <PUBCHEM_IUPAC_INCHIKEY>
UOBBUFWAXLRQJL-YJKMWJPTSA-N
> <PUBCHEM_XLOGP3_AA>
-0.1
> <PUBCHEM_EXACT_MASS>
527.16688116
> <PUBCHEM_MOLECULAR_FORMULA>
C22H30N3O10P
> <PUBCHEM_MOLECULAR_WEIGHT>
527.5
> <PUBCHEM_OPENEYE_CAN_SMILES>
CC1=CN(C(=O)NC1=O)C2C=CC(O2)COP(=O)(NC(C)C(=O)OC)OC3C=CC=CC3(OC)OC
> <PUBCHEM_OPENEYE_ISO_SMILES>
CC1=CN(C(=O)NC1=O)[C@H]2C=C[C@H](O2)COP(=O)(NC(C)C(=O)OC)OC3C=CC=CC3(OC)OC
> <PUBCHEM_CACTVS_TPSA>
151
> <PUBCHEM_MONOISOTOPIC_WEIGHT>
527.16688116
> <PUBCHEM_TOTAL_CHARGE>
0
> <PUBCHEM_HEAVY_ATOM_COUNT>
36
> <PUBCHEM_ATOM_DEF_STEREO_COUNT>
2
> <PUBCHEM_ATOM_UDEF_STEREO_COUNT>
3
> <PUBCHEM_BOND_DEF_STEREO_COUNT>
0
> <PUBCHEM_BOND_UDEF_STEREO_COUNT>
0
> <PUBCHEM_ISOTOPIC_ATOM_COUNT>
0
> <PUBCHEM_COMPONENT_COUNT>
1
> <PUBCHEM_CACTVS_TAUTO_COUNT>
-1
> <PUBCHEM_COORDINATE_TYPE>
1
5
255
> <PUBCHEM_BONDANNOTATIONS>
1  13  3
18  12  6
12  27  8
12  28  8
14  28  8
14  34  8
15  19  6
24  30  3
27  29  8
29  34  8
16  3  3
$$$$
