502298
  -OEChem-10302200282D
119119  0     1  0  0  0  0  0999 V2000
    6.8671   -7.5950    0.0000 O   0  0  0  0  0  0  0  0  0  0  0  0
    7.7331   -5.0950    0.0000 O   0  0  0  0  0  0  0  0  0  0  0  0
    8.5991   -7.5950    0.0000 O   0  0  0  0  0  0  0  0  0  0  0  0
   10.3312   -6.5950    0.0000 O   0  0  0  0  0  0  0  0  0  0  0  0
    4.2690   -5.0950    0.0000 O   0  0  0  0  0  0  0  0  0  0  0  0
    5.1350   -9.5950    0.0000 O   0  0  0  0  0  0  0  0  0  0  0  0
    6.8671   -9.5950    0.0000 O   0  0  0  0  0  0  0  0  0  0  0  0
    8.5991   -1.5950    0.0000 O   0  0  0  0  0  0  0  0  0  0  0  0
   13.7953    2.4050    0.0000 O   0  0  0  0  0  0  0  0  0  0  0  0
   10.3312    1.4050    0.0000 O   0  0  0  0  0  0  0  0  0  0  0  0
   12.9292    5.9050    0.0000 O   0  0  0  0  0  0  0  0  0  0  0  0
    9.4651    3.9050    0.0000 O   0  0  0  0  0  0  0  0  0  0  0  0
   16.3933    6.9050    0.0000 O   0  0  0  0  0  0  0  0  0  0  0  0
   16.3933    2.9050    0.0000 O   0  0  0  0  0  0  0  0  0  0  0  0
   12.0632    8.4050    0.0000 O   0  0  0  0  0  0  0  0  0  0  0  0
    6.0010   -5.0950    0.0000 N   0  0  0  0  0  0  0  0  0  0  0  0
    4.2690   -6.0950    0.0000 N   0  0  0  0  0  0  0  0  0  0  0  0
    9.4651   -3.0950    0.0000 N   0  0  0  0  0  0  0  0  0  0  0  0
    2.5369   -6.0950    0.0000 N   0  0  0  0  0  0  0  0  0  0  0  0
    3.4030   -7.5950    0.0000 N   0  0  0  0  0  0  0  0  0  0  0  0
   12.0632    1.4050    0.0000 N   0  0  0  0  0  0  0  0  0  0  0  0
   12.9292    3.9050    0.0000 N   0  0  0  0  0  0  0  0  0  0  0  0
   14.6613    5.9050    0.0000 N   0  0  0  0  0  0  0  0  0  0  0  0
   12.0632   -0.5950    0.0000 N   0  0  0  0  0  0  0  0  0  0  0  0
   10.3312    5.4050    0.0000 N   0  0  0  0  0  0  0  0  0  0  0  0
   15.5273    8.4050    0.0000 N   0  0  0  0  0  0  0  0  0  0  0  0
   17.2594    4.4050    0.0000 N   0  0  0  0  0  0  0  0  0  0  0  0
   12.9292    9.9050    0.0000 N   0  0  0  0  0  0  0  0  0  0  0  0
    6.8671   -6.5950    0.0000 C   0  0  2  0  0  0  0  0  0  0  0  0
    6.0010   -6.0950    0.0000 C   0  0  1  0  0  0  0  0  0  0  0  0
    7.7331   -6.0950    0.0000 C   0  0  1  0  0  0  0  0  0  0  0  0
    5.1350   -6.5950    0.0000 C   0  0  2  0  0  0  0  0  0  0  0  0
    8.5991   -6.5950    0.0000 C   0  0  1  0  0  0  0  0  0  0  0  0
    5.1350   -7.5950    0.0000 C   0  0  0  0  0  0  0  0  0  0  0  0
    6.0010   -8.0950    0.0000 C   0  0  0  0  0  0  0  0  0  0  0  0
    9.4651   -6.0950    0.0000 C   0  0  0  0  0  0  0  0  0  0  0  0
    8.5991   -4.5950    0.0000 C   0  0  0  0  0  0  0  0  0  0  0  0
    5.1350   -4.5950    0.0000 C   0  0  0  0  0  0  0  0  0  0  0  0
    6.0010   -9.0950    0.0000 C   0  0  0  0  0  0  0  0  0  0  0  0
    8.5991   -3.5950    0.0000 C   0  0  0  0  0  0  0  0  0  0  0  0
    3.4030   -6.5950    0.0000 C   0  0  0  0  0  0  0  0  0  0  0  0
    5.1350   -3.5950    0.0000 C   0  0  0  0  0  0  0  0  0  0  0  0
    9.4651   -2.0950    0.0000 C   0  0  0  0  0  0  0  0  0  0  0  0
   10.3312   -1.5950    0.0000 C   0  0  0  0  0  0  0  0  0  0  0  0
   10.3312   -0.5950    0.0000 C   0  0  0  0  0  0  0  0  0  0  0  0
   12.0632    2.4050    0.0000 C   0  0  1  0  0  0  0  0  0  0  0  0
   11.1972   -0.0950    0.0000 C   0  0  1  0  0  0  0  0  0  0  0  0
   13.7953    4.4050    0.0000 C   0  0  1  0  0  0  0  0  0  0  0  0
   11.1972    2.9050    0.0000 C   0  0  0  0  0  0  0  0  0  0  0  0
   14.6613    3.9050    0.0000 C   0  0  0  0  0  0  0  0  0  0  0  0
   12.9292    2.9050    0.0000 C   0  0  0  0  0  0  0  0  0  0  0  0
   11.1972    0.9050    0.0000 C   0  0  0  0  0  0  0  0  0  0  0  0
   13.7953    5.4050    0.0000 C   0  0  0  0  0  0  0  0  0  0  0  0
   11.1972    3.9050    0.0000 C   0  0  0  0  0  0  0  0  0  0  0  0
   14.6613    6.9050    0.0000 C   0  0  1  0  0  0  0  0  0  0  0  0
   15.5273    4.4050    0.0000 C   0  0  0  0  0  0  0  0  0  0  0  0
   13.7953    7.4050    0.0000 C   0  0  0  0  0  0  0  0  0  0  0  0
   13.7953    8.4050    0.0000 C   0  0  0  0  0  0  0  0  0  0  0  0
   10.3312    4.4050    0.0000 C   0  0  0  0  0  0  0  0  0  0  0  0
   15.5273    7.4050    0.0000 C   0  0  0  0  0  0  0  0  0  0  0  0
   16.3933    3.9050    0.0000 C   0  0  0  0  0  0  0  0  0  0  0  0
   12.9292    8.9050    0.0000 C   0  0  0  0  0  0  0  0  0  0  0  0
    7.6032   -7.0200    0.0000 H   0  0  0  0  0  0  0  0  0  0  0  0
    6.5380   -5.7850    0.0000 H   0  0  0  0  0  0  0  0  0  0  0  0
    8.2700   -5.7850    0.0000 H   0  0  0  0  0  0  0  0  0  0  0  0
    5.1350   -5.9750    0.0000 H   0  0  0  0  0  0  0  0  0  0  0  0
    8.0622   -6.9050    0.0000 H   0  0  0  0  0  0  0  0  0  0  0  0
    6.5380   -4.7850    0.0000 H   0  0  0  0  0  0  0  0  0  0  0  0
    4.5981   -7.9050    0.0000 H   0  0  0  0  0  0  0  0  0  0  0  0
    9.8637   -5.6200    0.0000 H   0  0  0  0  0  0  0  0  0  0  0  0
    9.0666   -5.6200    0.0000 H   0  0  0  0  0  0  0  0  0  0  0  0
    8.8112   -5.1776    0.0000 H   0  0  0  0  0  0  0  0  0  0  0  0
    9.2097   -4.4873    0.0000 H   0  0  0  0  0  0  0  0  0  0  0  0
    9.1360   -7.9050    0.0000 H   0  0  0  0  0  0  0  0  0  0  0  0
    8.3871   -3.0124    0.0000 H   0  0  0  0  0  0  0  0  0  0  0  0
    7.9885   -3.7027    0.0000 H   0  0  0  0  0  0  0  0  0  0  0  0
    5.7550   -3.5950    0.0000 H   0  0  0  0  0  0  0  0  0  0  0  0
    5.1350   -2.9750    0.0000 H   0  0  0  0  0  0  0  0  0  0  0  0
    4.5150   -3.5950    0.0000 H   0  0  0  0  0  0  0  0  0  0  0  0
   10.8681   -6.2850    0.0000 H   0  0  0  0  0  0  0  0  0  0  0  0
   10.0021   -3.4050    0.0000 H   0  0  0  0  0  0  0  0  0  0  0  0
   10.5432   -2.1776    0.0000 H   0  0  0  0  0  0  0  0  0  0  0  0
   10.9417   -1.4873    0.0000 H   0  0  0  0  0  0  0  0  0  0  0  0
    5.1350  -10.2150    0.0000 H   0  0  0  0  0  0  0  0  0  0  0  0
    2.0000   -6.4050    0.0000 H   0  0  0  0  0  0  0  0  0  0  0  0
    2.5369   -5.4750    0.0000 H   0  0  0  0  0  0  0  0  0  0  0  0
    2.8660   -7.9050    0.0000 H   0  0  0  0  0  0  0  0  0  0  0  0
    3.9399   -7.9050    0.0000 H   0  0  0  0  0  0  0  0  0  0  0  0
   10.1191   -0.0124    0.0000 H   0  0  0  0  0  0  0  0  0  0  0  0
    9.7206   -0.7027    0.0000 H   0  0  0  0  0  0  0  0  0  0  0  0
   12.6002    2.0950    0.0000 H   0  0  0  0  0  0  0  0  0  0  0  0
   11.1972   -0.7150    0.0000 H   0  0  0  0  0  0  0  0  0  0  0  0
   13.2583    4.7150    0.0000 H   0  0  0  0  0  0  0  0  0  0  0  0
   10.5866    3.0127    0.0000 H   0  0  0  0  0  0  0  0  0  0  0  0
   10.9851    2.3224    0.0000 H   0  0  0  0  0  0  0  0  0  0  0  0
   14.2628    3.4300    0.0000 H   0  0  0  0  0  0  0  0  0  0  0  0
   15.0598    3.4300    0.0000 H   0  0  0  0  0  0  0  0  0  0  0  0
   12.6002    1.0950    0.0000 H   0  0  0  0  0  0  0  0  0  0  0  0
   12.3923    4.2150    0.0000 H   0  0  0  0  0  0  0  0  0  0  0  0
   11.8078    3.7973    0.0000 H   0  0  0  0  0  0  0  0  0  0  0  0
   11.4092    4.4876    0.0000 H   0  0  0  0  0  0  0  0  0  0  0  0
   14.1244    6.5950    0.0000 H   0  0  0  0  0  0  0  0  0  0  0  0
   15.9258    4.8800    0.0000 H   0  0  0  0  0  0  0  0  0  0  0  0
   15.1288    4.8800    0.0000 H   0  0  0  0  0  0  0  0  0  0  0  0
   15.1982    5.5950    0.0000 H   0  0  0  0  0  0  0  0  0  0  0  0
   13.1847    7.5127    0.0000 H   0  0  0  0  0  0  0  0  0  0  0  0
   13.5832    6.8224    0.0000 H   0  0  0  0  0  0  0  0  0  0  0  0
   12.6002   -0.2850    0.0000 H   0  0  0  0  0  0  0  0  0  0  0  0
   12.0632   -1.2150    0.0000 H   0  0  0  0  0  0  0  0  0  0  0  0
   14.4058    8.2973    0.0000 H   0  0  0  0  0  0  0  0  0  0  0  0
   14.0073    8.9876    0.0000 H   0  0  0  0  0  0  0  0  0  0  0  0
    9.7942    5.7150    0.0000 H   0  0  0  0  0  0  0  0  0  0  0  0
   10.8681    5.7150    0.0000 H   0  0  0  0  0  0  0  0  0  0  0  0
   16.0643    8.7150    0.0000 H   0  0  0  0  0  0  0  0  0  0  0  0
   14.9904    8.7150    0.0000 H   0  0  0  0  0  0  0  0  0  0  0  0
   17.7963    4.0950    0.0000 H   0  0  0  0  0  0  0  0  0  0  0  0
   17.2594    5.0250    0.0000 H   0  0  0  0  0  0  0  0  0  0  0  0
   12.3923   10.2150    0.0000 H   0  0  0  0  0  0  0  0  0  0  0  0
   13.4662   10.2150    0.0000 H   0  0  0  0  0  0  0  0  0  0  0  0
  1 29  1  0  0  0  0
  1 35  1  0  0  0  0
 31  2  1  6  0  0  0
  2 37  1  0  0  0  0
 33  3  1  1  0  0  0
  3 74  1  0  0  0  0
  4 36  1  0  0  0  0
  4 80  1  0  0  0  0
  5 38  2  0  0  0  0
  6 39  1  0  0  0  0
  6 84  1  0  0  0  0
  7 39  2  0  0  0  0
  8 43  2  0  0  0  0
  9 51  2  0  0  0  0
 10 52  2  0  0  0  0
 11 53  2  0  0  0  0
 12 59  2  0  0  0  0
 13 60  2  0  0  0  0
 14 61  2  0  0  0  0
 15 62  2  0  0  0  0
 30 16  1  1  0  0  0
 16 38  1  0  0  0  0
 16 68  1  0  0  0  0
 32 17  1  6  0  0  0
 17 41  2  0  0  0  0
 18 40  1  0  0  0  0
 18 43  1  0  0  0  0
 18 81  1  0  0  0  0
 19 41  1  0  0  0  0
 19 85  1  0  0  0  0
 19 86  1  0  0  0  0
 20 41  1  0  0  0  0
 20 87  1  0  0  0  0
 20 88  1  0  0  0  0
 46 21  1  1  0  0  0
 21 52  1  0  0  0  0
 21 98  1  0  0  0  0
 48 22  1  6  0  0  0
 22 51  1  0  0  0  0
 22 99  1  0  0  0  0
 23 53  1  0  0  0  0
 55 23  1  1  0  0  0
 23105  1  0  0  0  0
 47 24  1  1  0  0  0
 24108  1  0  0  0  0
 24109  1  0  0  0  0
 25 59  1  0  0  0  0
 25112  1  0  0  0  0
 25113  1  0  0  0  0
 26 60  1  0  0  0  0
 26114  1  0  0  0  0
 26115  1  0  0  0  0
 27 61  1  0  0  0  0
 27116  1  0  0  0  0
 27117  1  0  0  0  0
 28 62  1  0  0  0  0
 28118  1  0  0  0  0
 28119  1  0  0  0  0
 29 30  1  0  0  0  0
 29 31  1  0  0  0  0
 29 63  1  1  0  0  0
 30 32  1  0  0  0  0
 30 64  1  0  0  0  0
 31 33  1  0  0  0  0
 31 65  1  0  0  0  0
 32 34  1  0  0  0  0
 32 66  1  0  0  0  0
 33 36  1  0  0  0  0
 33 67  1  0  0  0  0
 34 35  2  0  0  0  0
 34 69  1  0  0  0  0
 35 39  1  0  0  0  0
 36 70  1  0  0  0  0
 36 71  1  0  0  0  0
 37 40  1  0  0  0  0
 37 72  1  0  0  0  0
 37 73  1  0  0  0  0
 38 42  1  0  0  0  0
 40 75  1  0  0  0  0
 40 76  1  0  0  0  0
 42 77  1  0  0  0  0
 42 78  1  0  0  0  0
 42 79  1  0  0  0  0
 43 44  1  0  0  0  0
 44 45  1  0  0  0  0
 44 82  1  0  0  0  0
 44 83  1  0  0  0  0
 45 47  1  0  0  0  0
 45 89  1  0  0  0  0
 45 90  1  0  0  0  0
 46 49  1  0  0  0  0
 46 51  1  0  0  0  0
 46 91  1  0  0  0  0
 47 52  1  0  0  0  0
 47 92  1  0  0  0  0
 48 50  1  0  0  0  0
 48 53  1  0  0  0  0
 48 93  1  0  0  0  0
 49 54  1  0  0  0  0
 49 94  1  0  0  0  0
 49 95  1  0  0  0  0
 50 56  1  0  0  0  0
 50 96  1  0  0  0  0
 50 97  1  0  0  0  0
 54 59  1  0  0  0  0
 54100  1  0  0  0  0
 54101  1  0  0  0  0
 55 57  1  0  0  0  0
 55 60  1  0  0  0  0
 55102  1  0  0  0  0
 56 61  1  0  0  0  0
 56103  1  0  0  0  0
 56104  1  0  0  0  0
 57 58  1  0  0  0  0
 57106  1  0  0  0  0
 57107  1  0  0  0  0
 58 62  1  0  0  0  0
 58110  1  0  0  0  0
 58111  1  0  0  0  0
M  END
> <PUBCHEM_COMPOUND_CID>
502298
> <PUBCHEM_COMPOUND_CANONICALIZED>
1
> <PUBCHEM_CACTVS_COMPLEXITY>
1710
> <PUBCHEM_CACTVS_HBOND_ACCEPTOR>
17
> <PUBCHEM_CACTVS_HBOND_DONOR>
15
> <PUBCHEM_CACTVS_ROTATABLE_BOND>
29
> <PUBCHEM_CACTVS_SUBSKEYS>
AAADcfB//AAAAAAAAAAAAAAAAAAAAAAAAAAgAAAAAAAAAAAAAAAAHgAQCAAACDzhgAYDCALABgCoACHSPAKACAEgIAAACIHIAEgDVBIAgCQXUAAHlgCbEYP80yMAAAAAAAAAAAAAAAAAAAAAAAAAAAAAAA==
> <PUBCHEM_IUPAC_OPENEYE_NAME>
(2R,3R,4S)-3-acetamido-2-[(1R,2R)-1-[2-[[(4S)-4-amino-5-[[(1S)-4-amino-1-[[(1S)-4-amino-1-[[(1S)-4-amino-1-carbamoyl-4-oxo-butyl]carbamoyl]-4-oxo-butyl]carbamoyl]-4-oxo-butyl]amino]-5-oxo-pentanoyl]amino]ethoxy]-2,3-dihydroxy-propyl]-4-guanidino-3,4-dihydro-2H-pyran-6-carboxylic acid
> <PUBCHEM_IUPAC_CAS_NAME>
(2R,3R,4S)-3-acetamido-2-[(1R,2R)-1-[2-[[(4S)-4-amino-5-[[(2S)-5-amino-1-[[(2S)-5-amino-1-[[(2S)-1,5-diamino-1,5-dioxopentan-2-yl]amino]-1,5-dioxopentan-2-yl]amino]-1,5-dioxopentan-2-yl]amino]-1,5-dioxopentyl]amino]ethoxy]-2,3-dihydroxypropyl]-4-(diaminomethylideneamino)-3,4-dihydro-2H-pyran-6-carboxylic acid
> <PUBCHEM_IUPAC_NAME_MARKUP>
(2<I>R</I>,3<I>R</I>,4<I>S</I>)-3-acetamido-2-[(1<I>R</I>,2<I>R</I>)-1-[2-[[(4<I>S</I>)-4-amino-5-[[(2<I>S</I>)-5-amino-1-[[(2<I>S</I>)-5-amino-1-[[(2<I>S</I>)-1,5-diamino-1,5-dioxopentan-2-yl]amino]-1,5-dioxopentan-2-yl]amino]-1,5-dioxopentan-2-yl]amino]-5-oxopentanoyl]amino]ethoxy]-2,3-dihydroxypropyl]-4-(diaminomethylideneamino)-3,4-dihydro-2<I>H</I>-pyran-6-carboxylic acid
> <PUBCHEM_IUPAC_NAME>
(2R,3R,4S)-3-acetamido-2-[(1R,2R)-1-[2-[[(4S)-4-amino-5-[[(2S)-5-amino-1-[[(2S)-5-amino-1-[[(2S)-1,5-diamino-1,5-dioxopentan-2-yl]amino]-1,5-dioxopentan-2-yl]amino]-1,5-dioxopentan-2-yl]amino]-5-oxopentanoyl]amino]ethoxy]-2,3-dihydroxypropyl]-4-(diaminomethylideneamino)-3,4-dihydro-2H-pyran-6-carboxylic acid
> <PUBCHEM_IUPAC_SYSTEMATIC_NAME>
(2R,3R,4S)-3-acetamido-2-[(1R,2R)-1-[2-[[(4S)-4-azanyl-5-[[(2S)-5-azanyl-1-[[(2S)-5-azanyl-1-[[(2S)-1,5-bis(azanyl)-1,5-bis(oxidanylidene)pentan-2-yl]amino]-1,5-bis(oxidanylidene)pentan-2-yl]amino]-1,5-bis(oxidanylidene)pentan-2-yl]amino]-5-oxidanylidene-pentanoyl]amino]ethoxy]-2,3-bis(oxidanyl)propyl]-4-[bis(azanyl)methylideneamino]-3,4-dihydro-2H-pyran-6-carboxylic acid
> <PUBCHEM_IUPAC_TRADITIONAL_NAME>
(2R,3R,4S)-3-acetamido-2-[(1R,2R)-1-[2-[[(4S)-4-amino-5-[[(1S)-4-amino-1-[[(1S)-4-amino-1-[[(1S)-4-amino-1-carbamoyl-4-keto-butyl]carbamoyl]-4-keto-butyl]carbamoyl]-4-keto-butyl]amino]-5-keto-pentanoyl]amino]ethoxy]-2,3-dihydroxy-propyl]-4-guanidino-3,4-dihydro-2H-pyran-6-carboxylic acid
> <PUBCHEM_IUPAC_INCHI>
InChI=1S/C34H57N13O15/c1-14(49)43-26-19(47-34(40)41)12-21(33(59)60)62-28(26)27(20(50)13-48)61-11-10-42-25(54)9-2-15(35)30(56)45-17(4-7-23(37)52)32(58)46-18(5-8-24(38)53)31(57)44-16(29(39)55)3-6-22(36)51/h12,15-20,26-28,48,50H,2-11,13,35H2,1H3,(H2,36,51)(H2,37,52)(H2,38,53)(H2,39,55)(H,42,54)(H,43,49)(H,44,57)(H,45,56)(H,46,58)(H,59,60)(H4,40,41,47)/t15-,16-,17-,18-,19-,20+,26+,27+,28+/m0/s1
> <PUBCHEM_IUPAC_INCHIKEY>
PIEUJAPOTSYKQJ-FVYDYUHQSA-N
> <PUBCHEM_XLOGP3_AA>
-12.1
> <PUBCHEM_EXACT_MASS>
887.40970816
> <PUBCHEM_MOLECULAR_FORMULA>
C34H57N13O15
> <PUBCHEM_MOLECULAR_WEIGHT>
887.9
> <PUBCHEM_OPENEYE_CAN_SMILES>
CC(=O)NC1C(C=C(OC1C(C(CO)O)OCCNC(=O)CCC(C(=O)NC(CCC(=O)N)C(=O)NC(CCC(=O)N)C(=O)NC(CCC(=O)N)C(=O)N)N)C(=O)O)N=C(N)N
> <PUBCHEM_OPENEYE_ISO_SMILES>
CC(=O)N[C@@H]1[C@H](C=C(O[C@H]1[C@@H]([C@@H](CO)O)OCCNC(=O)CC[C@@H](C(=O)N[C@@H](CCC(=O)N)C(=O)N[C@@H](CCC(=O)N)C(=O)N[C@@H](CCC(=O)N)C(=O)N)N)C(=O)O)N=C(N)N
> <PUBCHEM_CACTVS_TPSA>
505
> <PUBCHEM_MONOISOTOPIC_WEIGHT>
887.40970816
> <PUBCHEM_TOTAL_CHARGE>
0
> <PUBCHEM_HEAVY_ATOM_COUNT>
62
> <PUBCHEM_ATOM_DEF_STEREO_COUNT>
9
> <PUBCHEM_ATOM_UDEF_STEREO_COUNT>
0
> <PUBCHEM_BOND_DEF_STEREO_COUNT>
0
> <PUBCHEM_BOND_UDEF_STEREO_COUNT>
0
> <PUBCHEM_ISOTOPIC_ATOM_COUNT>
0
> <PUBCHEM_COMPONENT_COUNT>
1
> <PUBCHEM_CACTVS_TAUTO_COUNT>
-1
> <PUBCHEM_COORDINATE_TYPE>
1
5
255
> <PUBCHEM_BONDANNOTATIONS>
30  16  5
32  17  6
31  2  6
46  21  5
48  22  6
55  23  5
47  24  5
29  63  5
33  3  5
$$$$
