502232
  -OEChem-10302200282D
 28 30  0     1  0  0  0  0  0999 V2000
    5.2686    0.8919    0.0000 S   0  0  0  0  0  0  0  0  0  0  0  0
    7.6146   -0.2000    0.0000 F   0  0  0  0  0  0  0  0  0  0  0  0
    2.0000   -0.6734    0.0000 F   0  0  0  0  0  0  0  0  0  0  0  0
    6.2208    3.3934    0.0000 O   0  0  0  0  0  0  0  0  0  0  0  0
    5.5443   -0.8687    0.0000 N   0  0  0  0  0  0  0  0  0  0  0  0
    5.5443   -2.4782    0.0000 N   0  0  0  0  0  0  0  0  0  0  0  0
    3.7320   -0.6734    0.0000 N   0  0  0  0  0  0  0  0  0  0  0  0
    2.8660   -2.1734    0.0000 N   0  0  0  0  0  0  0  0  0  0  0  0
    3.7320   -3.6734    0.0000 N   0  0  0  0  0  0  0  0  0  0  0  0
    5.8550    0.0818    0.0000 C   0  0  1  0  0  0  0  0  0  0  0  0
    5.8578    1.6999    0.0000 C   0  0  1  0  0  0  0  0  0  0  0  0
    6.8066    0.3892    0.0000 C   0  0  0  0  0  0  0  0  0  0  0  0
    6.8083    1.3892    0.0000 C   0  0  0  0  0  0  0  0  0  0  0  0
    4.5981   -1.1734    0.0000 C   0  0  0  0  0  0  0  0  0  0  0  0
    5.5504    2.6514    0.0000 C   0  0  0  0  0  0  0  0  0  0  0  0
    6.1279   -1.6734    0.0000 C   0  0  0  0  0  0  0  0  0  0  0  0
    4.5981   -2.1734    0.0000 C   0  0  0  0  0  0  0  0  0  0  0  0
    3.7320   -2.6734    0.0000 C   0  0  0  0  0  0  0  0  0  0  0  0
    2.8660   -1.1734    0.0000 C   0  0  0  0  0  0  0  0  0  0  0  0
    6.2926   -0.3573    0.0000 H   0  0  0  0  0  0  0  0  0  0  0  0
    5.2456    1.7979    0.0000 H   0  0  0  0  0  0  0  0  0  0  0  0
    7.3105    1.7528    0.0000 H   0  0  0  0  0  0  0  0  0  0  0  0
    5.1695    3.1407    0.0000 H   0  0  0  0  0  0  0  0  0  0  0  0
    5.0025    2.3613    0.0000 H   0  0  0  0  0  0  0  0  0  0  0  0
    6.7479   -1.6734    0.0000 H   0  0  0  0  0  0  0  0  0  0  0  0
    6.0302    3.9834    0.0000 H   0  0  0  0  0  0  0  0  0  0  0  0
    3.1951   -3.9834    0.0000 H   0  0  0  0  0  0  0  0  0  0  0  0
    4.2690   -3.9834    0.0000 H   0  0  0  0  0  0  0  0  0  0  0  0
  1 10  1  0  0  0  0
  1 11  1  0  0  0  0
  2 12  1  0  0  0  0
  3 19  1  0  0  0  0
  4 15  1  0  0  0  0
  4 26  1  0  0  0  0
 10  5  1  6  0  0  0
  5 14  1  0  0  0  0
  5 16  1  0  0  0  0
  6 16  2  0  0  0  0
  6 17  1  0  0  0  0
  7 14  2  0  0  0  0
  7 19  1  0  0  0  0
  8 18  1  0  0  0  0
  8 19  2  0  0  0  0
  9 18  1  0  0  0  0
  9 27  1  0  0  0  0
  9 28  1  0  0  0  0
 10 12  1  0  0  0  0
 10 20  1  0  0  0  0
 11 13  1  0  0  0  0
 11 15  1  6  0  0  0
 11 21  1  0  0  0  0
 12 13  2  0  0  0  0
 13 22  1  0  0  0  0
 14 17  1  0  0  0  0
 15 23  1  0  0  0  0
 15 24  1  0  0  0  0
 16 25  1  0  0  0  0
 17 18  2  0  0  0  0
M  END
> <PUBCHEM_COMPOUND_CID>
502232
> <PUBCHEM_COMPOUND_CANONICALIZED>
1
> <PUBCHEM_CACTVS_COMPLEXITY>
387
> <PUBCHEM_CACTVS_HBOND_ACCEPTOR>
8
> <PUBCHEM_CACTVS_HBOND_DONOR>
2
> <PUBCHEM_CACTVS_ROTATABLE_BOND>
2
> <PUBCHEM_CACTVS_SUBSKEYS>
AAADccBzoYBAAAAAAAAAAAAAAAAAAWIAAAAsAAAAAAAAAFgB+AAAHwQQCAAACAjl1waF8L9MEgigASZjZACAgC1xELABWCAoVBiAWABASUAURAgIQALoACIAAAAAAAAAAAAAAAAAAAAAAAAAAAAAAAAAAA==
> <PUBCHEM_IUPAC_OPENEYE_NAME>
[(2S,5R)-5-(6-amino-2-fluoro-purin-9-yl)-4-fluoro-2,5-dihydrothiophen-2-yl]methanol
> <PUBCHEM_IUPAC_CAS_NAME>
[(2S,5R)-5-(6-amino-2-fluoro-9-purinyl)-4-fluoro-2,5-dihydrothiophen-2-yl]methanol
> <PUBCHEM_IUPAC_NAME_MARKUP>
[(2<I>S</I>,5<I>R</I>)-5-(6-amino-2-fluoropurin-9-yl)-4-fluoro-2,5-dihydrothiophen-2-yl]methanol
> <PUBCHEM_IUPAC_NAME>
[(2S,5R)-5-(6-amino-2-fluoropurin-9-yl)-4-fluoro-2,5-dihydrothiophen-2-yl]methanol
> <PUBCHEM_IUPAC_SYSTEMATIC_NAME>
[(2S,5R)-5-(6-azanyl-2-fluoranyl-purin-9-yl)-4-fluoranyl-2,5-dihydrothiophen-2-yl]methanol
> <PUBCHEM_IUPAC_TRADITIONAL_NAME>
[(2S,5R)-5-(6-amino-2-fluoro-purin-9-yl)-4-fluoro-2,5-dihydrothiophen-2-yl]methanol
> <PUBCHEM_IUPAC_INCHI>
InChI=1S/C10H9F2N5OS/c11-5-1-4(2-18)19-9(5)17-3-14-6-7(13)15-10(12)16-8(6)17/h1,3-4,9,18H,2H2,(H2,13,15,16)/t4-,9+/m0/s1
> <PUBCHEM_IUPAC_INCHIKEY>
AXODMUZULWFLIS-AJAUBTJJSA-N
> <PUBCHEM_XLOGP3_AA>
0.4
> <PUBCHEM_EXACT_MASS>
285.04958743
> <PUBCHEM_MOLECULAR_FORMULA>
C10H9F2N5OS
> <PUBCHEM_MOLECULAR_WEIGHT>
285.28
> <PUBCHEM_OPENEYE_CAN_SMILES>
C1=C(C(SC1CO)N2C=NC3=C(N=C(N=C32)F)N)F
> <PUBCHEM_OPENEYE_ISO_SMILES>
C1=C([C@@H](S[C@@H]1CO)N2C=NC3=C(N=C(N=C32)F)N)F
> <PUBCHEM_CACTVS_TPSA>
115
> <PUBCHEM_MONOISOTOPIC_WEIGHT>
285.04958743
> <PUBCHEM_TOTAL_CHARGE>
0
> <PUBCHEM_HEAVY_ATOM_COUNT>
19
> <PUBCHEM_ATOM_DEF_STEREO_COUNT>
2
> <PUBCHEM_ATOM_UDEF_STEREO_COUNT>
0
> <PUBCHEM_BOND_DEF_STEREO_COUNT>
0
> <PUBCHEM_BOND_UDEF_STEREO_COUNT>
0
> <PUBCHEM_ISOTOPIC_ATOM_COUNT>
0
> <PUBCHEM_COMPONENT_COUNT>
1
> <PUBCHEM_CACTVS_TAUTO_COUNT>
-1
> <PUBCHEM_COORDINATE_TYPE>
1
5
255
> <PUBCHEM_BONDANNOTATIONS>
11  15  6
14  17  8
17  18  8
10  5  6
5  14  8
5  16  8
6  16  8
6  17  8
7  14  8
7  19  8
8  18  8
8  19  8
$$$$
