502245
  -OEChem-10302200282D
 34 35  0     1  0  0  0  0  0999 V2000
    2.7147   -0.1225    0.0000 F   0  0  0  0  0  0  0  0  0  0  0  0
    3.6377    1.4653    0.0000 O   0  0  0  0  0  0  0  0  0  0  0  0
    5.5345    3.2254    0.0000 O   0  0  0  0  0  0  0  0  0  0  0  0
    2.3644    3.1209    0.0000 O   0  0  0  0  0  0  0  0  0  0  0  0
    4.4467   -3.1225    0.0000 O   0  0  0  0  0  0  0  0  0  0  0  0
    7.0448   -1.6225    0.0000 O   0  5  0  0  0  0  0  0  0  0  0  0
    6.1788   -3.1225    0.0000 O   0  0  0  0  0  0  0  0  0  0  0  0
    6.1788   -2.1225    0.0000 N   0  3  0  0  0  0  0  0  0  0  0  0
    4.9467    2.4164    0.0000 C   0  0  1  0  0  0  0  0  0  0  0  0
    4.4467    0.8775    0.0000 C   0  0  2  0  0  0  0  0  0  0  0  0
    5.2558    1.4653    0.0000 C   0  0  0  0  0  0  0  0  0  0  0  0
    3.9467    2.4164    0.0000 C   0  0  1  0  0  0  0  0  0  0  0  0
    4.4467   -0.1225    0.0000 C   0  0  0  0  0  0  0  0  0  0  0  0
    3.3590    3.2254    0.0000 C   0  0  0  0  0  0  0  0  0  0  0  0
    5.3128   -0.6225    0.0000 C   0  0  0  0  0  0  0  0  0  0  0  0
    3.5807   -0.6225    0.0000 C   0  0  0  0  0  0  0  0  0  0  0  0
    5.3128   -1.6225    0.0000 C   0  0  0  0  0  0  0  0  0  0  0  0
    3.5807   -1.6225    0.0000 C   0  0  0  0  0  0  0  0  0  0  0  0
    4.4467   -2.1225    0.0000 C   0  0  0  0  0  0  0  0  0  0  0  0
    3.5807   -3.6225    0.0000 C   0  0  0  0  0  0  0  0  0  0  0  0
    4.6653    2.9688    0.0000 H   0  0  0  0  0  0  0  0  0  0  0  0
    3.8943    0.5961    0.0000 H   0  0  0  0  0  0  0  0  0  0  0  0
    5.5658    0.9284    0.0000 H   0  0  0  0  0  0  0  0  0  0  0  0
    5.8222    1.7175    0.0000 H   0  0  0  0  0  0  0  0  0  0  0  0
    3.3344    2.3194    0.0000 H   0  0  0  0  0  0  0  0  0  0  0  0
    3.9162    3.4972    0.0000 H   0  0  0  0  0  0  0  0  0  0  0  0
    3.1880    3.8214    0.0000 H   0  0  0  0  0  0  0  0  0  0  0  0
    6.1511    3.1606    0.0000 H   0  0  0  0  0  0  0  0  0  0  0  0
    5.8497   -0.3125    0.0000 H   0  0  0  0  0  0  0  0  0  0  0  0
    3.0438   -1.9325    0.0000 H   0  0  0  0  0  0  0  0  0  0  0  0
    2.0000    3.6225    0.0000 H   0  0  0  0  0  0  0  0  0  0  0  0
    3.2707   -3.0855    0.0000 H   0  0  0  0  0  0  0  0  0  0  0  0
    3.0438   -3.9325    0.0000 H   0  0  0  0  0  0  0  0  0  0  0  0
    3.8907   -4.1594    0.0000 H   0  0  0  0  0  0  0  0  0  0  0  0
  1 16  1  0  0  0  0
  2 10  1  0  0  0  0
  2 12  1  0  0  0  0
  9  3  1  1  0  0  0
  3 28  1  0  0  0  0
  4 14  1  0  0  0  0
  4 31  1  0  0  0  0
  5 19  1  0  0  0  0
  5 20  1  0  0  0  0
  6  8  1  0  0  0  0
  7  8  2  0  0  0  0
  8 17  1  0  0  0  0
  9 11  1  0  0  0  0
  9 12  1  0  0  0  0
  9 21  1  0  0  0  0
 10 11  1  0  0  0  0
 10 13  1  6  0  0  0
 10 22  1  0  0  0  0
 11 23  1  0  0  0  0
 11 24  1  0  0  0  0
 12 14  1  6  0  0  0
 12 25  1  0  0  0  0
 13 15  2  0  0  0  0
 13 16  1  0  0  0  0
 14 26  1  0  0  0  0
 14 27  1  0  0  0  0
 15 17  1  0  0  0  0
 15 29  1  0  0  0  0
 16 18  2  0  0  0  0
 17 19  2  0  0  0  0
 18 19  1  0  0  0  0
 18 30  1  0  0  0  0
 20 32  1  0  0  0  0
 20 33  1  0  0  0  0
 20 34  1  0  0  0  0
M  CHG  2   6  -1   8   1
M  END
> <PUBCHEM_COMPOUND_CID>
502245
> <PUBCHEM_COMPOUND_CANONICALIZED>
1
> <PUBCHEM_CACTVS_COMPLEXITY>
351
> <PUBCHEM_CACTVS_HBOND_ACCEPTOR>
7
> <PUBCHEM_CACTVS_HBOND_DONOR>
2
> <PUBCHEM_CACTVS_ROTATABLE_BOND>
3
> <PUBCHEM_CACTVS_SUBSKEYS>
AAADccByOQAAAAAAAAAAAAAAAAAAASAAAAAwAAAAAAAAAAABAAAAHwAECAAADByhmAoyxoAQRgCBAiRCQwCCCAAgIgAgiAAHbIoPNiKEsZuDcCBlwFEL6Aew4PwOIAAAQAAAEABAAACAAAAgAAAAAAAAAA==
> <PUBCHEM_IUPAC_OPENEYE_NAME>
(2R,3S,5R)-5-(2-fluoro-4-methoxy-5-nitro-phenyl)-2-(hydroxymethyl)tetrahydrofuran-3-ol
> <PUBCHEM_IUPAC_CAS_NAME>
(2R,3S,5R)-5-(2-fluoro-4-methoxy-5-nitrophenyl)-2-(hydroxymethyl)-3-oxolanol
> <PUBCHEM_IUPAC_NAME_MARKUP>
(2<I>R</I>,3<I>S</I>,5<I>R</I>)-5-(2-fluoro-4-methoxy-5-nitrophenyl)-2-(hydroxymethyl)oxolan-3-ol
> <PUBCHEM_IUPAC_NAME>
(2R,3S,5R)-5-(2-fluoro-4-methoxy-5-nitrophenyl)-2-(hydroxymethyl)oxolan-3-ol
> <PUBCHEM_IUPAC_SYSTEMATIC_NAME>
(2R,3S,5R)-5-(2-fluoranyl-4-methoxy-5-nitro-phenyl)-2-(hydroxymethyl)oxolan-3-ol
> <PUBCHEM_IUPAC_TRADITIONAL_NAME>
(2R,3S,5R)-5-(2-fluoro-4-methoxy-5-nitro-phenyl)-2-methylol-tetrahydrofuran-3-ol
> <PUBCHEM_IUPAC_INCHI>
InChI=1S/C12H14FNO6/c1-19-11-3-7(13)6(2-8(11)14(17)18)10-4-9(16)12(5-15)20-10/h2-3,9-10,12,15-16H,4-5H2,1H3/t9-,10+,12+/m0/s1
> <PUBCHEM_IUPAC_INCHIKEY>
ACBMSAMZGFRXOW-HOSYDEDBSA-N
> <PUBCHEM_XLOGP3_AA>
1
> <PUBCHEM_EXACT_MASS>
287.08051533
> <PUBCHEM_MOLECULAR_FORMULA>
C12H14FNO6
> <PUBCHEM_MOLECULAR_WEIGHT>
287.24
> <PUBCHEM_OPENEYE_CAN_SMILES>
COC1=C(C=C(C(=C1)F)C2CC(C(O2)CO)O)[N+](=O)[O-]
> <PUBCHEM_OPENEYE_ISO_SMILES>
COC1=C(C=C(C(=C1)F)[C@H]2C[C@@H]([C@H](O2)CO)O)[N+](=O)[O-]
> <PUBCHEM_CACTVS_TPSA>
105
> <PUBCHEM_MONOISOTOPIC_WEIGHT>
287.08051533
> <PUBCHEM_TOTAL_CHARGE>
0
> <PUBCHEM_HEAVY_ATOM_COUNT>
20
> <PUBCHEM_ATOM_DEF_STEREO_COUNT>
3
> <PUBCHEM_ATOM_UDEF_STEREO_COUNT>
0
> <PUBCHEM_BOND_DEF_STEREO_COUNT>
0
> <PUBCHEM_BOND_UDEF_STEREO_COUNT>
0
> <PUBCHEM_ISOTOPIC_ATOM_COUNT>
0
> <PUBCHEM_COMPONENT_COUNT>
1
> <PUBCHEM_CACTVS_TAUTO_COUNT>
-1
> <PUBCHEM_COORDINATE_TYPE>
1
5
255
> <PUBCHEM_BONDANNOTATIONS>
10  13  6
12  14  6
13  15  8
13  16  8
15  17  8
16  18  8
17  19  8
18  19  8
9  3  5
$$$$
