502296
  -OEChem-10302200282D
 77 77  0     1  0  0  0  0  0999 V2000
    6.8671   -0.6900    0.0000 O   0  0  0  0  0  0  0  0  0  0  0  0
    8.5991    0.3100    0.0000 O   0  0  0  0  0  0  0  0  0  0  0  0
    4.2690    1.8100    0.0000 O   0  0  0  0  0  0  0  0  0  0  0  0
    5.1350   -2.6900    0.0000 O   0  0  0  0  0  0  0  0  0  0  0  0
    6.8671   -2.6900    0.0000 O   0  0  0  0  0  0  0  0  0  0  0  0
    6.0010    1.8100    0.0000 N   0  0  0  0  0  0  0  0  0  0  0  0
    4.2690    0.8100    0.0000 N   0  0  0  0  0  0  0  0  0  0  0  0
    2.5369    0.8100    0.0000 N   0  0  0  0  0  0  0  0  0  0  0  0
    3.4030   -0.6900    0.0000 N   0  0  0  0  0  0  0  0  0  0  0  0
    6.8671    0.3100    0.0000 C   0  0  2  0  0  0  0  0  0  0  0  0
    6.0010    0.8100    0.0000 C   0  0  1  0  0  0  0  0  0  0  0  0
    7.7331    0.8100    0.0000 C   0  0  1  0  0  0  0  0  0  0  0  0
    5.1350    0.3100    0.0000 C   0  0  2  0  0  0  0  0  0  0  0  0
    7.7331    1.8100    0.0000 C   0  0  0  0  0  0  0  0  0  0  0  0
    5.1350   -0.6900    0.0000 C   0  0  0  0  0  0  0  0  0  0  0  0
    6.0010   -1.1900    0.0000 C   0  0  0  0  0  0  0  0  0  0  0  0
    9.4651    0.8100    0.0000 C   0  0  0  0  0  0  0  0  0  0  0  0
   10.3312    0.3100    0.0000 C   0  0  0  0  0  0  0  0  0  0  0  0
   11.1972    0.8100    0.0000 C   0  0  0  0  0  0  0  0  0  0  0  0
   12.0632    0.3100    0.0000 C   0  0  0  0  0  0  0  0  0  0  0  0
    8.5991    2.3100    0.0000 C   0  0  0  0  0  0  0  0  0  0  0  0
   12.9292    0.8100    0.0000 C   0  0  0  0  0  0  0  0  0  0  0  0
   13.7953    0.3100    0.0000 C   0  0  0  0  0  0  0  0  0  0  0  0
   14.6613    0.8100    0.0000 C   0  0  0  0  0  0  0  0  0  0  0  0
    5.1350    2.3100    0.0000 C   0  0  0  0  0  0  0  0  0  0  0  0
   15.5273    0.3100    0.0000 C   0  0  0  0  0  0  0  0  0  0  0  0
   16.3933    0.8100    0.0000 C   0  0  0  0  0  0  0  0  0  0  0  0
    6.0010   -2.1900    0.0000 C   0  0  0  0  0  0  0  0  0  0  0  0
    3.4030    0.3100    0.0000 C   0  0  0  0  0  0  0  0  0  0  0  0
   17.2594    0.3100    0.0000 C   0  0  0  0  0  0  0  0  0  0  0  0
    5.1350    3.3100    0.0000 C   0  0  0  0  0  0  0  0  0  0  0  0
   18.1254    0.8100    0.0000 C   0  0  0  0  0  0  0  0  0  0  0  0
   18.9914    0.3100    0.0000 C   0  0  0  0  0  0  0  0  0  0  0  0
    7.6032   -0.1150    0.0000 H   0  0  0  0  0  0  0  0  0  0  0  0
    6.5380    1.1200    0.0000 H   0  0  0  0  0  0  0  0  0  0  0  0
    7.7331    0.1900    0.0000 H   0  0  0  0  0  0  0  0  0  0  0  0
    5.1350    0.9300    0.0000 H   0  0  0  0  0  0  0  0  0  0  0  0
    7.5210    2.3926    0.0000 H   0  0  0  0  0  0  0  0  0  0  0  0
    7.1225    1.7023    0.0000 H   0  0  0  0  0  0  0  0  0  0  0  0
    6.5380    2.1200    0.0000 H   0  0  0  0  0  0  0  0  0  0  0  0
    4.5981   -1.0000    0.0000 H   0  0  0  0  0  0  0  0  0  0  0  0
    9.8637    1.2850    0.0000 H   0  0  0  0  0  0  0  0  0  0  0  0
    9.0666    1.2850    0.0000 H   0  0  0  0  0  0  0  0  0  0  0  0
    9.9326   -0.1649    0.0000 H   0  0  0  0  0  0  0  0  0  0  0  0
   10.7297   -0.1649    0.0000 H   0  0  0  0  0  0  0  0  0  0  0  0
   11.5957    1.2850    0.0000 H   0  0  0  0  0  0  0  0  0  0  0  0
   10.7987    1.2850    0.0000 H   0  0  0  0  0  0  0  0  0  0  0  0
   11.6647   -0.1649    0.0000 H   0  0  0  0  0  0  0  0  0  0  0  0
   12.4617   -0.1649    0.0000 H   0  0  0  0  0  0  0  0  0  0  0  0
    8.9091    1.7731    0.0000 H   0  0  0  0  0  0  0  0  0  0  0  0
    9.1360    2.6200    0.0000 H   0  0  0  0  0  0  0  0  0  0  0  0
    8.2891    2.8469    0.0000 H   0  0  0  0  0  0  0  0  0  0  0  0
   13.3278    1.2850    0.0000 H   0  0  0  0  0  0  0  0  0  0  0  0
   12.5307    1.2850    0.0000 H   0  0  0  0  0  0  0  0  0  0  0  0
   13.3967   -0.1649    0.0000 H   0  0  0  0  0  0  0  0  0  0  0  0
   14.1938   -0.1649    0.0000 H   0  0  0  0  0  0  0  0  0  0  0  0
   15.0598    1.2850    0.0000 H   0  0  0  0  0  0  0  0  0  0  0  0
   14.2628    1.2850    0.0000 H   0  0  0  0  0  0  0  0  0  0  0  0
   15.1288   -0.1649    0.0000 H   0  0  0  0  0  0  0  0  0  0  0  0
   15.9258   -0.1649    0.0000 H   0  0  0  0  0  0  0  0  0  0  0  0
   16.7919    1.2850    0.0000 H   0  0  0  0  0  0  0  0  0  0  0  0
   15.9948    1.2850    0.0000 H   0  0  0  0  0  0  0  0  0  0  0  0
   16.8608   -0.1649    0.0000 H   0  0  0  0  0  0  0  0  0  0  0  0
   17.6579   -0.1649    0.0000 H   0  0  0  0  0  0  0  0  0  0  0  0
    5.7550    3.3100    0.0000 H   0  0  0  0  0  0  0  0  0  0  0  0
    5.1350    3.9300    0.0000 H   0  0  0  0  0  0  0  0  0  0  0  0
    4.5150    3.3100    0.0000 H   0  0  0  0  0  0  0  0  0  0  0  0
   18.5239    1.2850    0.0000 H   0  0  0  0  0  0  0  0  0  0  0  0
   17.7269    1.2850    0.0000 H   0  0  0  0  0  0  0  0  0  0  0  0
    5.1350   -3.3100    0.0000 H   0  0  0  0  0  0  0  0  0  0  0  0
    2.0000    0.5000    0.0000 H   0  0  0  0  0  0  0  0  0  0  0  0
    2.5369    1.4300    0.0000 H   0  0  0  0  0  0  0  0  0  0  0  0
    2.8660   -1.0000    0.0000 H   0  0  0  0  0  0  0  0  0  0  0  0
    3.9399   -1.0000    0.0000 H   0  0  0  0  0  0  0  0  0  0  0  0
   18.6814   -0.2269    0.0000 H   0  0  0  0  0  0  0  0  0  0  0  0
   19.5284    0.0000    0.0000 H   0  0  0  0  0  0  0  0  0  0  0  0
   19.3014    0.8469    0.0000 H   0  0  0  0  0  0  0  0  0  0  0  0
  1 10  1  0  0  0  0
  1 16  1  0  0  0  0
 12  2  1  1  0  0  0
  2 17  1  0  0  0  0
  3 25  2  0  0  0  0
  4 28  1  0  0  0  0
  4 70  1  0  0  0  0
  5 28  2  0  0  0  0
 11  6  1  1  0  0  0
  6 25  1  0  0  0  0
  6 40  1  0  0  0  0
 13  7  1  6  0  0  0
  7 29  2  0  0  0  0
  8 29  1  0  0  0  0
  8 71  1  0  0  0  0
  8 72  1  0  0  0  0
  9 29  1  0  0  0  0
  9 73  1  0  0  0  0
  9 74  1  0  0  0  0
 10 11  1  0  0  0  0
 10 12  1  0  0  0  0
 10 34  1  1  0  0  0
 11 13  1  0  0  0  0
 11 35  1  0  0  0  0
 12 14  1  0  0  0  0
 12 36  1  0  0  0  0
 13 15  1  0  0  0  0
 13 37  1  0  0  0  0
 14 21  1  0  0  0  0
 14 38  1  0  0  0  0
 14 39  1  0  0  0  0
 15 16  2  0  0  0  0
 15 41  1  0  0  0  0
 16 28  1  0  0  0  0
 17 18  1  0  0  0  0
 17 42  1  0  0  0  0
 17 43  1  0  0  0  0
 18 19  1  0  0  0  0
 18 44  1  0  0  0  0
 18 45  1  0  0  0  0
 19 20  1  0  0  0  0
 19 46  1  0  0  0  0
 19 47  1  0  0  0  0
 20 22  1  0  0  0  0
 20 48  1  0  0  0  0
 20 49  1  0  0  0  0
 21 50  1  0  0  0  0
 21 51  1  0  0  0  0
 21 52  1  0  0  0  0
 22 23  1  0  0  0  0
 22 53  1  0  0  0  0
 22 54  1  0  0  0  0
 23 24  1  0  0  0  0
 23 55  1  0  0  0  0
 23 56  1  0  0  0  0
 24 26  1  0  0  0  0
 24 57  1  0  0  0  0
 24 58  1  0  0  0  0
 25 31  1  0  0  0  0
 26 27  1  0  0  0  0
 26 59  1  0  0  0  0
 26 60  1  0  0  0  0
 27 30  1  0  0  0  0
 27 61  1  0  0  0  0
 27 62  1  0  0  0  0
 30 32  1  0  0  0  0
 30 63  1  0  0  0  0
 30 64  1  0  0  0  0
 31 65  1  0  0  0  0
 31 66  1  0  0  0  0
 31 67  1  0  0  0  0
 32 33  1  0  0  0  0
 32 68  1  0  0  0  0
 32 69  1  0  0  0  0
 33 75  1  0  0  0  0
 33 76  1  0  0  0  0
 33 77  1  0  0  0  0
M  END
> <PUBCHEM_COMPOUND_CID>
502296
> <PUBCHEM_COMPOUND_CANONICALIZED>
1
> <PUBCHEM_CACTVS_COMPLEXITY>
649
> <PUBCHEM_CACTVS_HBOND_ACCEPTOR>
6
> <PUBCHEM_CACTVS_HBOND_DONOR>
4
> <PUBCHEM_CACTVS_ROTATABLE_BOND>
17
> <PUBCHEM_CACTVS_SUBSKEYS>
AAADcfB7uAAAAAAAAAAAAAAAAAAAAAAAAAAgAAAAAAAAAAAAAAAAHgAQCAAACDzhgAYDCALABgCoACHSPAKACAEgIAAACIBIAEgDRAIAgAQXEAAGlgCbEYOwwKAAAAAAAAAAAAAAAAAAAAAAAAAAAAAAAA==
> <PUBCHEM_IUPAC_OPENEYE_NAME>
(2R,3R,4S)-3-acetamido-2-[(1R)-1-dodecoxypropyl]-4-guanidino-3,4-dihydro-2H-pyran-6-carboxylic acid
> <PUBCHEM_IUPAC_CAS_NAME>
(2R,3R,4S)-3-acetamido-4-(diaminomethylideneamino)-2-[(1R)-1-dodecoxypropyl]-3,4-dihydro-2H-pyran-6-carboxylic acid
> <PUBCHEM_IUPAC_NAME_MARKUP>
(2<I>R</I>,3<I>R</I>,4<I>S</I>)-3-acetamido-4-(diaminomethylideneamino)-2-[(1<I>R</I>)-1-dodecoxypropyl]-3,4-dihydro-2<I>H</I>-pyran-6-carboxylic acid
> <PUBCHEM_IUPAC_NAME>
(2R,3R,4S)-3-acetamido-4-(diaminomethylideneamino)-2-[(1R)-1-dodecoxypropyl]-3,4-dihydro-2H-pyran-6-carboxylic acid
> <PUBCHEM_IUPAC_SYSTEMATIC_NAME>
(2R,3R,4S)-3-acetamido-4-[bis(azanyl)methylideneamino]-2-[(1R)-1-dodecoxypropyl]-3,4-dihydro-2H-pyran-6-carboxylic acid
> <PUBCHEM_IUPAC_TRADITIONAL_NAME>
(2R,3R,4S)-3-acetamido-4-guanidino-2-[(1R)-1-lauryloxypropyl]-3,4-dihydro-2H-pyran-6-carboxylic acid
> <PUBCHEM_IUPAC_INCHI>
InChI=1S/C24H44N4O5/c1-4-6-7-8-9-10-11-12-13-14-15-32-19(5-2)22-21(27-17(3)29)18(28-24(25)26)16-20(33-22)23(30)31/h16,18-19,21-22H,4-15H2,1-3H3,(H,27,29)(H,30,31)(H4,25,26,28)/t18-,19+,21+,22-/m0/s1
> <PUBCHEM_IUPAC_INCHIKEY>
WMVLYJKCWDGCOY-PSBKLILYSA-N
> <PUBCHEM_XLOGP3_AA>
4.6
> <PUBCHEM_EXACT_MASS>
468.33117052
> <PUBCHEM_MOLECULAR_FORMULA>
C24H44N4O5
> <PUBCHEM_MOLECULAR_WEIGHT>
468.6
> <PUBCHEM_OPENEYE_CAN_SMILES>
CCCCCCCCCCCCOC(CC)C1C(C(C=C(O1)C(=O)O)N=C(N)N)NC(=O)C
> <PUBCHEM_OPENEYE_ISO_SMILES>
CCCCCCCCCCCCO[C@H](CC)[C@H]1[C@@H]([C@H](C=C(O1)C(=O)O)N=C(N)N)NC(=O)C
> <PUBCHEM_CACTVS_TPSA>
149
> <PUBCHEM_MONOISOTOPIC_WEIGHT>
468.33117052
> <PUBCHEM_TOTAL_CHARGE>
0
> <PUBCHEM_HEAVY_ATOM_COUNT>
33
> <PUBCHEM_ATOM_DEF_STEREO_COUNT>
4
> <PUBCHEM_ATOM_UDEF_STEREO_COUNT>
0
> <PUBCHEM_BOND_DEF_STEREO_COUNT>
0
> <PUBCHEM_BOND_UDEF_STEREO_COUNT>
0
> <PUBCHEM_ISOTOPIC_ATOM_COUNT>
0
> <PUBCHEM_COMPONENT_COUNT>
1
> <PUBCHEM_CACTVS_TAUTO_COUNT>
-1
> <PUBCHEM_COORDINATE_TYPE>
1
5
255
> <PUBCHEM_BONDANNOTATIONS>
10  34  5
12  2  5
11  6  5
13  7  6
$$$$
