502297
  -OEChem-10302200282D
 65 65  0     1  0  0  0  0  0999 V2000
    6.8671   -2.9400    0.0000 O   0  0  0  0  0  0  0  0  0  0  0  0
    7.7331   -0.4400    0.0000 O   0  0  0  0  0  0  0  0  0  0  0  0
    8.5991   -2.9400    0.0000 O   0  0  0  0  0  0  0  0  0  0  0  0
   10.3312   -1.9400    0.0000 O   0  0  0  0  0  0  0  0  0  0  0  0
    4.2690   -0.4400    0.0000 O   0  0  0  0  0  0  0  0  0  0  0  0
    5.1350   -4.9400    0.0000 O   0  0  0  0  0  0  0  0  0  0  0  0
    6.8671   -4.9400    0.0000 O   0  0  0  0  0  0  0  0  0  0  0  0
   12.0632    4.0600    0.0000 O   0  0  0  0  0  0  0  0  0  0  0  0
    6.0010   -0.4400    0.0000 N   0  0  0  0  0  0  0  0  0  0  0  0
    4.2690   -1.4400    0.0000 N   0  0  0  0  0  0  0  0  0  0  0  0
    2.5369   -1.4400    0.0000 N   0  0  0  0  0  0  0  0  0  0  0  0
    3.4030   -2.9400    0.0000 N   0  0  0  0  0  0  0  0  0  0  0  0
   10.3312    4.0600    0.0000 N   0  0  0  0  0  0  0  0  0  0  0  0
    6.8671   -1.9400    0.0000 C   0  0  2  0  0  0  0  0  0  0  0  0
    6.0010   -1.4400    0.0000 C   0  0  1  0  0  0  0  0  0  0  0  0
    7.7331   -1.4400    0.0000 C   0  0  1  0  0  0  0  0  0  0  0  0
    5.1350   -1.9400    0.0000 C   0  0  2  0  0  0  0  0  0  0  0  0
    8.5991   -1.9400    0.0000 C   0  0  1  0  0  0  0  0  0  0  0  0
    5.1350   -2.9400    0.0000 C   0  0  0  0  0  0  0  0  0  0  0  0
    6.0010   -3.4400    0.0000 C   0  0  0  0  0  0  0  0  0  0  0  0
    9.4651   -1.4400    0.0000 C   0  0  0  0  0  0  0  0  0  0  0  0
    8.5991    0.0600    0.0000 C   0  0  0  0  0  0  0  0  0  0  0  0
    8.5991    1.0600    0.0000 C   0  0  0  0  0  0  0  0  0  0  0  0
    5.1350    0.0600    0.0000 C   0  0  0  0  0  0  0  0  0  0  0  0
    9.4651    1.5600    0.0000 C   0  0  0  0  0  0  0  0  0  0  0  0
    6.0010   -4.4400    0.0000 C   0  0  0  0  0  0  0  0  0  0  0  0
    9.4651    2.5600    0.0000 C   0  0  0  0  0  0  0  0  0  0  0  0
    3.4030   -1.9400    0.0000 C   0  0  0  0  0  0  0  0  0  0  0  0
    5.1350    1.0600    0.0000 C   0  0  0  0  0  0  0  0  0  0  0  0
   10.3312    3.0600    0.0000 C   0  0  0  0  0  0  0  0  0  0  0  0
   11.1972    4.5600    0.0000 C   0  0  0  0  0  0  0  0  0  0  0  0
   11.1972    5.5600    0.0000 C   0  0  0  0  0  0  0  0  0  0  0  0
    7.6032   -2.3650    0.0000 H   0  0  0  0  0  0  0  0  0  0  0  0
    6.5380   -1.1300    0.0000 H   0  0  0  0  0  0  0  0  0  0  0  0
    8.2700   -1.1300    0.0000 H   0  0  0  0  0  0  0  0  0  0  0  0
    5.1350   -1.3200    0.0000 H   0  0  0  0  0  0  0  0  0  0  0  0
    8.0622   -2.2500    0.0000 H   0  0  0  0  0  0  0  0  0  0  0  0
    6.5380   -0.1300    0.0000 H   0  0  0  0  0  0  0  0  0  0  0  0
    4.5981   -3.2500    0.0000 H   0  0  0  0  0  0  0  0  0  0  0  0
    9.8637   -0.9651    0.0000 H   0  0  0  0  0  0  0  0  0  0  0  0
    9.0666   -0.9651    0.0000 H   0  0  0  0  0  0  0  0  0  0  0  0
    8.8112   -0.5226    0.0000 H   0  0  0  0  0  0  0  0  0  0  0  0
    9.2097    0.1677    0.0000 H   0  0  0  0  0  0  0  0  0  0  0  0
    8.3871    1.6426    0.0000 H   0  0  0  0  0  0  0  0  0  0  0  0
    7.9885    0.9523    0.0000 H   0  0  0  0  0  0  0  0  0  0  0  0
    9.1360   -3.2500    0.0000 H   0  0  0  0  0  0  0  0  0  0  0  0
    9.6772    0.9774    0.0000 H   0  0  0  0  0  0  0  0  0  0  0  0
   10.0757    1.6677    0.0000 H   0  0  0  0  0  0  0  0  0  0  0  0
    9.2531    3.1426    0.0000 H   0  0  0  0  0  0  0  0  0  0  0  0
    8.8546    2.4523    0.0000 H   0  0  0  0  0  0  0  0  0  0  0  0
    5.7550    1.0600    0.0000 H   0  0  0  0  0  0  0  0  0  0  0  0
    5.1350    1.6800    0.0000 H   0  0  0  0  0  0  0  0  0  0  0  0
    4.5150    1.0600    0.0000 H   0  0  0  0  0  0  0  0  0  0  0  0
   10.8681   -1.6300    0.0000 H   0  0  0  0  0  0  0  0  0  0  0  0
   10.5432    2.4774    0.0000 H   0  0  0  0  0  0  0  0  0  0  0  0
   10.9417    3.1677    0.0000 H   0  0  0  0  0  0  0  0  0  0  0  0
    5.1350   -5.5600    0.0000 H   0  0  0  0  0  0  0  0  0  0  0  0
    2.0000   -1.7500    0.0000 H   0  0  0  0  0  0  0  0  0  0  0  0
    2.5369   -0.8200    0.0000 H   0  0  0  0  0  0  0  0  0  0  0  0
    2.8660   -3.2500    0.0000 H   0  0  0  0  0  0  0  0  0  0  0  0
    3.9399   -3.2500    0.0000 H   0  0  0  0  0  0  0  0  0  0  0  0
    9.7942    4.3700    0.0000 H   0  0  0  0  0  0  0  0  0  0  0  0
   11.8172    5.5600    0.0000 H   0  0  0  0  0  0  0  0  0  0  0  0
   11.1972    6.1800    0.0000 H   0  0  0  0  0  0  0  0  0  0  0  0
   10.5772    5.5600    0.0000 H   0  0  0  0  0  0  0  0  0  0  0  0
  1 14  1  0  0  0  0
  1 20  1  0  0  0  0
 16  2  1  6  0  0  0
  2 22  1  0  0  0  0
 18  3  1  1  0  0  0
  3 46  1  0  0  0  0
  4 21  1  0  0  0  0
  4 54  1  0  0  0  0
  5 24  2  0  0  0  0
  6 26  1  0  0  0  0
  6 57  1  0  0  0  0
  7 26  2  0  0  0  0
  8 31  2  0  0  0  0
 15  9  1  1  0  0  0
  9 24  1  0  0  0  0
  9 38  1  0  0  0  0
 17 10  1  6  0  0  0
 10 28  2  0  0  0  0
 11 28  1  0  0  0  0
 11 58  1  0  0  0  0
 11 59  1  0  0  0  0
 12 28  1  0  0  0  0
 12 60  1  0  0  0  0
 12 61  1  0  0  0  0
 13 30  1  0  0  0  0
 13 31  1  0  0  0  0
 13 62  1  0  0  0  0
 14 15  1  0  0  0  0
 14 16  1  0  0  0  0
 14 33  1  1  0  0  0
 15 17  1  0  0  0  0
 15 34  1  0  0  0  0
 16 18  1  0  0  0  0
 16 35  1  0  0  0  0
 17 19  1  0  0  0  0
 17 36  1  0  0  0  0
 18 21  1  0  0  0  0
 18 37  1  0  0  0  0
 19 20  2  0  0  0  0
 19 39  1  0  0  0  0
 20 26  1  0  0  0  0
 21 40  1  0  0  0  0
 21 41  1  0  0  0  0
 22 23  1  0  0  0  0
 22 42  1  0  0  0  0
 22 43  1  0  0  0  0
 23 25  1  0  0  0  0
 23 44  1  0  0  0  0
 23 45  1  0  0  0  0
 24 29  1  0  0  0  0
 25 27  1  0  0  0  0
 25 47  1  0  0  0  0
 25 48  1  0  0  0  0
 27 30  1  0  0  0  0
 27 49  1  0  0  0  0
 27 50  1  0  0  0  0
 29 51  1  0  0  0  0
 29 52  1  0  0  0  0
 29 53  1  0  0  0  0
 30 55  1  0  0  0  0
 30 56  1  0  0  0  0
 31 32  1  0  0  0  0
 32 63  1  0  0  0  0
 32 64  1  0  0  0  0
 32 65  1  0  0  0  0
M  END
> <PUBCHEM_COMPOUND_CID>
502297
> <PUBCHEM_COMPOUND_CANONICALIZED>
1
> <PUBCHEM_CACTVS_COMPLEXITY>
710
> <PUBCHEM_CACTVS_HBOND_ACCEPTOR>
9
> <PUBCHEM_CACTVS_HBOND_DONOR>
7
> <PUBCHEM_CACTVS_ROTATABLE_BOND>
13
> <PUBCHEM_CACTVS_SUBSKEYS>
AAADcfB7vAAAAAAAAAAAAAAAAAAAAAAAAAAgAAAAAAAAAAAAAAAAHgAQCAAACDzhgAYDCALABgCoACHSPAKACAEgIAAACIBIAEgDVAIAgAQXUAAHlgCbEYPw0CMAAAAAAAAAAAAAAAAAAAAAAAAAAAAAAA==
> <PUBCHEM_IUPAC_OPENEYE_NAME>
(2R,3R,4S)-3-acetamido-2-[(1R,2R)-1-(5-acetamidopentoxy)-2,3-dihydroxy-propyl]-4-guanidino-3,4-dihydro-2H-pyran-6-carboxylic acid
> <PUBCHEM_IUPAC_CAS_NAME>
(2R,3R,4S)-3-acetamido-2-[(1R,2R)-1-(5-acetamidopentoxy)-2,3-dihydroxypropyl]-4-(diaminomethylideneamino)-3,4-dihydro-2H-pyran-6-carboxylic acid
> <PUBCHEM_IUPAC_NAME_MARKUP>
(2<I>R</I>,3<I>R</I>,4<I>S</I>)-3-acetamido-2-[(1<I>R</I>,2<I>R</I>)-1-(5-acetamidopentoxy)-2,3-dihydroxypropyl]-4-(diaminomethylideneamino)-3,4-dihydro-2<I>H</I>-pyran-6-carboxylic acid
> <PUBCHEM_IUPAC_NAME>
(2R,3R,4S)-3-acetamido-2-[(1R,2R)-1-(5-acetamidopentoxy)-2,3-dihydroxypropyl]-4-(diaminomethylideneamino)-3,4-dihydro-2H-pyran-6-carboxylic acid
> <PUBCHEM_IUPAC_SYSTEMATIC_NAME>
(2R,3R,4S)-3-acetamido-2-[(1R,2R)-1-(5-acetamidopentoxy)-2,3-bis(oxidanyl)propyl]-4-[bis(azanyl)methylideneamino]-3,4-dihydro-2H-pyran-6-carboxylic acid
> <PUBCHEM_IUPAC_TRADITIONAL_NAME>
(2R,3R,4S)-3-acetamido-2-[(1R,2R)-1-(5-acetamidopentoxy)-2,3-dihydroxy-propyl]-4-guanidino-3,4-dihydro-2H-pyran-6-carboxylic acid
> <PUBCHEM_IUPAC_INCHI>
InChI=1S/C19H33N5O8/c1-10(26)22-6-4-3-5-7-31-16(13(28)9-25)17-15(23-11(2)27)12(24-19(20)21)8-14(32-17)18(29)30/h8,12-13,15-17,25,28H,3-7,9H2,1-2H3,(H,22,26)(H,23,27)(H,29,30)(H4,20,21,24)/t12-,13+,15+,16+,17+/m0/s1
> <PUBCHEM_IUPAC_INCHIKEY>
BBZAJEDBPOXSOQ-IHWGESPNSA-N
> <PUBCHEM_XLOGP3_AA>
-2.8
> <PUBCHEM_EXACT_MASS>
459.23291303
> <PUBCHEM_MOLECULAR_FORMULA>
C19H33N5O8
> <PUBCHEM_MOLECULAR_WEIGHT>
459.5
> <PUBCHEM_OPENEYE_CAN_SMILES>
CC(=O)NCCCCCOC(C1C(C(C=C(O1)C(=O)O)N=C(N)N)NC(=O)C)C(CO)O
> <PUBCHEM_OPENEYE_ISO_SMILES>
CC(=O)NCCCCCO[C@@H]([C@H]1[C@@H]([C@H](C=C(O1)C(=O)O)N=C(N)N)NC(=O)C)[C@@H](CO)O
> <PUBCHEM_CACTVS_TPSA>
219
> <PUBCHEM_MONOISOTOPIC_WEIGHT>
459.23291303
> <PUBCHEM_TOTAL_CHARGE>
0
> <PUBCHEM_HEAVY_ATOM_COUNT>
32
> <PUBCHEM_ATOM_DEF_STEREO_COUNT>
5
> <PUBCHEM_ATOM_UDEF_STEREO_COUNT>
0
> <PUBCHEM_BOND_DEF_STEREO_COUNT>
0
> <PUBCHEM_BOND_UDEF_STEREO_COUNT>
0
> <PUBCHEM_ISOTOPIC_ATOM_COUNT>
0
> <PUBCHEM_COMPONENT_COUNT>
1
> <PUBCHEM_CACTVS_TAUTO_COUNT>
-1
> <PUBCHEM_COORDINATE_TYPE>
1
5
255
> <PUBCHEM_BONDANNOTATIONS>
17  10  6
14  33  5
16  2  6
18  3  5
15  9  5
$$$$
