502266
  -OEChem-10302200282D
 50 52  0     1  0  0  0  0  0999 V2000
   10.7323   -3.1217    0.0000 P   0  0  0  0  0  0  0  0  0  0  0  0
    8.8712   -0.6571    0.0000 O   0  0  0  0  0  0  0  0  0  0  0  0
    6.9744   -2.4172    0.0000 O   0  0  0  0  0  0  0  0  0  0  0  0
   10.1445   -2.3126    0.0000 O   0  0  0  0  0  0  0  0  0  0  0  0
    9.7942    0.9307    0.0000 O   0  0  0  0  0  0  0  0  0  0  0  0
    5.4641    2.4307    0.0000 O   0  0  0  0  0  0  0  0  0  0  0  0
    8.0622    3.9307    0.0000 O   0  0  0  0  0  0  0  0  0  0  0  0
   11.3201   -3.9307    0.0000 O   0  0  0  0  0  0  0  0  0  0  0  0
   11.5413   -2.5339    0.0000 O   0  0  0  0  0  0  0  0  0  0  0  0
    9.9232   -3.7094    0.0000 O   0  0  0  0  0  0  0  0  0  0  0  0
    8.0622    0.9307    0.0000 N   0  0  0  0  0  0  0  0  0  0  0  0
    8.9282    2.4307    0.0000 N   0  0  0  0  0  0  0  0  0  0  0  0
    7.5622   -1.6082    0.0000 C   0  0  2  0  0  0  0  0  0  0  0  0
    8.5622   -1.6082    0.0000 C   0  0  1  0  0  0  0  0  0  0  0  0
    8.0622   -0.0693    0.0000 C   0  0  1  0  0  0  0  0  0  0  0  0
    7.2532   -0.6571    0.0000 C   0  0  0  0  0  0  0  0  0  0  0  0
    9.1500   -2.4172    0.0000 C   0  0  0  0  0  0  0  0  0  0  0  0
    7.1962    1.4307    0.0000 C   0  0  0  0  0  0  0  0  0  0  0  0
    8.9282    1.4307    0.0000 C   0  0  0  0  0  0  0  0  0  0  0  0
    7.1962    2.4307    0.0000 C   0  0  0  0  0  0  0  0  0  0  0  0
    8.0622    2.9307    0.0000 C   0  0  0  0  0  0  0  0  0  0  0  0
    6.3301    2.9307    0.0000 C   0  0  0  0  0  0  0  0  0  0  0  0
    4.5981    2.9307    0.0000 C   0  0  0  0  0  0  0  0  0  0  0  0
    3.7320    2.4307    0.0000 C   0  0  0  0  0  0  0  0  0  0  0  0
    2.8660    2.9307    0.0000 C   0  0  0  0  0  0  0  0  0  0  0  0
    3.7320    1.4307    0.0000 C   0  0  0  0  0  0  0  0  0  0  0  0
    2.0000    2.4307    0.0000 C   0  0  0  0  0  0  0  0  0  0  0  0
    2.8660    0.9307    0.0000 C   0  0  0  0  0  0  0  0  0  0  0  0
    2.0000    1.4307    0.0000 C   0  0  0  0  0  0  0  0  0  0  0  0
    6.9498   -1.5112    0.0000 H   0  0  0  0  0  0  0  0  0  0  0  0
    9.1745   -1.5112    0.0000 H   0  0  0  0  0  0  0  0  0  0  0  0
    7.5098    0.2122    0.0000 H   0  0  0  0  0  0  0  0  0  0  0  0
    6.9432   -0.1202    0.0000 H   0  0  0  0  0  0  0  0  0  0  0  0
    6.6868   -0.9093    0.0000 H   0  0  0  0  0  0  0  0  0  0  0  0
    8.5927   -2.6890    0.0000 H   0  0  0  0  0  0  0  0  0  0  0  0
    9.3209   -3.0132    0.0000 H   0  0  0  0  0  0  0  0  0  0  0  0
    6.3578   -2.3524    0.0000 H   0  0  0  0  0  0  0  0  0  0  0  0
    6.6592    1.1207    0.0000 H   0  0  0  0  0  0  0  0  0  0  0  0
    9.4651    2.7407    0.0000 H   0  0  0  0  0  0  0  0  0  0  0  0
    6.7287    3.4056    0.0000 H   0  0  0  0  0  0  0  0  0  0  0  0
    5.9316    3.4056    0.0000 H   0  0  0  0  0  0  0  0  0  0  0  0
    4.9966    3.4056    0.0000 H   0  0  0  0  0  0  0  0  0  0  0  0
    4.1996    3.4056    0.0000 H   0  0  0  0  0  0  0  0  0  0  0  0
   11.9367   -3.8659    0.0000 H   0  0  0  0  0  0  0  0  0  0  0  0
   11.4765   -1.9173    0.0000 H   0  0  0  0  0  0  0  0  0  0  0  0
    2.8660    3.5507    0.0000 H   0  0  0  0  0  0  0  0  0  0  0  0
    4.2690    1.1207    0.0000 H   0  0  0  0  0  0  0  0  0  0  0  0
    1.4631    2.7407    0.0000 H   0  0  0  0  0  0  0  0  0  0  0  0
    2.8660    0.3107    0.0000 H   0  0  0  0  0  0  0  0  0  0  0  0
    1.4631    1.1207    0.0000 H   0  0  0  0  0  0  0  0  0  0  0  0
  1  4  1  0  0  0  0
  1  8  1  0  0  0  0
  1  9  1  0  0  0  0
  1 10  2  0  0  0  0
  2 14  1  0  0  0  0
  2 15  1  0  0  0  0
 13  3  1  1  0  0  0
  3 37  1  0  0  0  0
  4 17  1  0  0  0  0
  5 19  2  0  0  0  0
  6 22  1  0  0  0  0
  6 23  1  0  0  0  0
  7 21  2  0  0  0  0
  8 44  1  0  0  0  0
  9 45  1  0  0  0  0
 15 11  1  6  0  0  0
 11 18  1  0  0  0  0
 11 19  1  0  0  0  0
 12 19  1  0  0  0  0
 12 21  1  0  0  0  0
 12 39  1  0  0  0  0
 13 14  1  0  0  0  0
 13 16  1  0  0  0  0
 13 30  1  0  0  0  0
 14 17  1  6  0  0  0
 14 31  1  0  0  0  0
 15 16  1  0  0  0  0
 15 32  1  0  0  0  0
 16 33  1  0  0  0  0
 16 34  1  0  0  0  0
 17 35  1  0  0  0  0
 17 36  1  0  0  0  0
 18 20  2  0  0  0  0
 18 38  1  0  0  0  0
 20 21  1  0  0  0  0
 20 22  1  0  0  0  0
 22 40  1  0  0  0  0
 22 41  1  0  0  0  0
 23 24  1  0  0  0  0
 23 42  1  0  0  0  0
 23 43  1  0  0  0  0
 24 25  2  0  0  0  0
 24 26  1  0  0  0  0
 25 27  1  0  0  0  0
 25 46  1  0  0  0  0
 26 28  2  0  0  0  0
 26 47  1  0  0  0  0
 27 29  2  0  0  0  0
 27 48  1  0  0  0  0
 28 29  1  0  0  0  0
 28 49  1  0  0  0  0
 29 50  1  0  0  0  0
M  END
> <PUBCHEM_COMPOUND_CID>
502266
> <PUBCHEM_COMPOUND_CANONICALIZED>
1
> <PUBCHEM_CACTVS_COMPLEXITY>
688
> <PUBCHEM_CACTVS_HBOND_ACCEPTOR>
9
> <PUBCHEM_CACTVS_HBOND_DONOR>
4
> <PUBCHEM_CACTVS_ROTATABLE_BOND>
8
> <PUBCHEM_CACTVS_SUBSKEYS>
AAADceB7PAIAAAAAAAAAAAAAAAAAASAAAAAwQAAAAAAAAAABAAAAHgAQCCAADBThmAYxAIPABxCIQiFWUICCAAAgAAAIiAEICMiJNiaAsRiOcAAv5yMLqMew8CIOAAAAAAAAAAAAAAAAAAAAAAAAAAAAAA==
> <PUBCHEM_IUPAC_OPENEYE_NAME>
[(2R,3S,5R)-5-[5-(benzyloxymethyl)-2,4-dioxo-pyrimidin-1-yl]-3-hydroxy-tetrahydrofuran-2-yl]methyl dihydrogen phosphate
> <PUBCHEM_IUPAC_CAS_NAME>
[(2R,3S,5R)-5-[2,4-dioxo-5-(phenylmethoxymethyl)-1-pyrimidinyl]-3-hydroxy-2-oxolanyl]methyl dihydrogen phosphate
> <PUBCHEM_IUPAC_NAME_MARKUP>
[(2<I>R</I>,3<I>S</I>,5<I>R</I>)-5-[2,4-dioxo-5-(phenylmethoxymethyl)pyrimidin-1-yl]-3-hydroxyoxolan-2-yl]methyl dihydrogen phosphate
> <PUBCHEM_IUPAC_NAME>
[(2R,3S,5R)-5-[2,4-dioxo-5-(phenylmethoxymethyl)pyrimidin-1-yl]-3-hydroxyoxolan-2-yl]methyl dihydrogen phosphate
> <PUBCHEM_IUPAC_SYSTEMATIC_NAME>
[(2R,3S,5R)-5-[2,4-bis(oxidanylidene)-5-(phenylmethoxymethyl)pyrimidin-1-yl]-3-oxidanyl-oxolan-2-yl]methyl dihydrogen phosphate
> <PUBCHEM_IUPAC_TRADITIONAL_NAME>
[(2R,3S,5R)-5-[5-(benzoxymethyl)-2,4-diketo-pyrimidin-1-yl]-3-hydroxy-tetrahydrofuran-2-yl]methyl dihydrogen phosphate
> <PUBCHEM_IUPAC_INCHI>
InChI=1S/C17H21N2O9P/c20-13-6-15(28-14(13)10-27-29(23,24)25)19-7-12(16(21)18-17(19)22)9-26-8-11-4-2-1-3-5-11/h1-5,7,13-15,20H,6,8-10H2,(H,18,21,22)(H2,23,24,25)/t13-,14+,15+/m0/s1
> <PUBCHEM_IUPAC_INCHIKEY>
OFYGUWKGFANSFE-RRFJBIMHSA-N
> <PUBCHEM_XLOGP3>
-2
> <PUBCHEM_EXACT_MASS>
428.09846725
> <PUBCHEM_MOLECULAR_FORMULA>
C17H21N2O9P
> <PUBCHEM_MOLECULAR_WEIGHT>
428.3
> <PUBCHEM_OPENEYE_CAN_SMILES>
C1C(C(OC1N2C=C(C(=O)NC2=O)COCC3=CC=CC=C3)COP(=O)(O)O)O
> <PUBCHEM_OPENEYE_ISO_SMILES>
C1[C@@H]([C@H](O[C@H]1N2C=C(C(=O)NC2=O)COCC3=CC=CC=C3)COP(=O)(O)O)O
> <PUBCHEM_CACTVS_TPSA>
155
> <PUBCHEM_MONOISOTOPIC_WEIGHT>
428.09846725
> <PUBCHEM_TOTAL_CHARGE>
0
> <PUBCHEM_HEAVY_ATOM_COUNT>
29
> <PUBCHEM_ATOM_DEF_STEREO_COUNT>
3
> <PUBCHEM_ATOM_UDEF_STEREO_COUNT>
0
> <PUBCHEM_BOND_DEF_STEREO_COUNT>
0
> <PUBCHEM_BOND_UDEF_STEREO_COUNT>
0
> <PUBCHEM_ISOTOPIC_ATOM_COUNT>
0
> <PUBCHEM_COMPONENT_COUNT>
1
> <PUBCHEM_CACTVS_TAUTO_COUNT>
-1
> <PUBCHEM_COORDINATE_TYPE>
1
5
255
> <PUBCHEM_BONDANNOTATIONS>
15  11  6
11  18  8
11  19  8
12  19  8
12  21  8
14  17  6
18  20  8
20  21  8
24  25  8
24  26  8
25  27  8
26  28  8
27  29  8
28  29  8
13  3  5
$$$$
