502233
  -OEChem-10302200282D
 58 60  0     1  0  0  0  0  0999 V2000
    8.5991   -2.0950    0.0000 O   0  0  0  0  0  0  0  0  0  0  0  0
   10.3312   -0.0950    0.0000 O   0  0  0  0  0  0  0  0  0  0  0  0
   13.7953   -2.0950    0.0000 O   0  0  0  0  0  0  0  0  0  0  0  0
   13.7953   -0.0950    0.0000 O   0  0  0  0  0  0  0  0  0  0  0  0
    8.5991   -0.0950    0.0000 O   0  0  0  0  0  0  0  0  0  0  0  0
    2.5369   -1.5950    0.0000 O   0  0  0  0  0  0  0  0  0  0  0  0
    2.5369   -3.5950    0.0000 O   0  0  0  0  0  0  0  0  0  0  0  0
    7.7331   -0.5950    0.0000 O   0  0  0  0  0  0  0  0  0  0  0  0
    6.8671    2.9050    0.0000 O   0  0  0  0  0  0  0  0  0  0  0  0
    5.1350    3.9050    0.0000 O   0  0  0  0  0  0  0  0  0  0  0  0
   10.3312   -2.0950    0.0000 C   0  0  0  0  0  0  0  0  0  0  0  0
    9.4651   -1.5950    0.0000 C   0  0  3  0  0  0  0  0  0  0  0  0
   11.1972   -1.5950    0.0000 C   0  0  0  0  0  0  0  0  0  0  0  0
   12.0632   -2.0950    0.0000 C   0  0  0  0  0  0  0  0  0  0  0  0
   11.1972   -0.5950    0.0000 C   0  0  0  0  0  0  0  0  0  0  0  0
    4.2690   -1.5950    0.0000 C   0  0  0  0  0  0  0  0  0  0  0  0
    5.1350   -2.0950    0.0000 C   0  0  0  0  0  0  0  0  0  0  0  0
    9.4651   -0.5950    0.0000 C   0  0  0  0  0  0  0  0  0  0  0  0
   12.9292   -1.5950    0.0000 C   0  0  0  0  0  0  0  0  0  0  0  0
   12.0632   -0.0950    0.0000 C   0  0  0  0  0  0  0  0  0  0  0  0
   12.9292   -0.5950    0.0000 C   0  0  0  0  0  0  0  0  0  0  0  0
    3.4030   -2.0950    0.0000 C   0  0  0  0  0  0  0  0  0  0  0  0
    6.0010   -1.5950    0.0000 C   0  0  0  0  0  0  0  0  0  0  0  0
    5.1350   -3.0950    0.0000 C   0  0  0  0  0  0  0  0  0  0  0  0
    4.2690   -0.5950    0.0000 C   0  0  0  0  0  0  0  0  0  0  0  0
    7.7331   -1.5950    0.0000 C   0  0  0  0  0  0  0  0  0  0  0  0
    3.4030   -3.0950    0.0000 C   0  0  0  0  0  0  0  0  0  0  0  0
    6.8671   -2.0950    0.0000 C   0  0  0  0  0  0  0  0  0  0  0  0
    4.2690   -3.5950    0.0000 C   0  0  0  0  0  0  0  0  0  0  0  0
    5.1350   -0.0950    0.0000 C   0  0  0  0  0  0  0  0  0  0  0  0
    5.1350    0.9050    0.0000 C   0  0  0  0  0  0  0  0  0  0  0  0
    6.0010    1.4050    0.0000 C   0  0  0  0  0  0  0  0  0  0  0  0
    4.2690    1.4050    0.0000 C   0  0  0  0  0  0  0  0  0  0  0  0
    6.0010    2.4050    0.0000 C   0  0  0  0  0  0  0  0  0  0  0  0
    4.2690    2.4050    0.0000 C   0  0  0  0  0  0  0  0  0  0  0  0
    5.1350    2.9050    0.0000 C   0  0  0  0  0  0  0  0  0  0  0  0
    9.9326   -2.5700    0.0000 H   0  0  0  0  0  0  0  0  0  0  0  0
   10.7297   -2.5700    0.0000 H   0  0  0  0  0  0  0  0  0  0  0  0
    9.4651   -2.2150    0.0000 H   0  0  0  0  0  0  0  0  0  0  0  0
   12.0632   -2.7150    0.0000 H   0  0  0  0  0  0  0  0  0  0  0  0
   10.6603   -0.2850    0.0000 H   0  0  0  0  0  0  0  0  0  0  0  0
   12.0632    0.5250    0.0000 H   0  0  0  0  0  0  0  0  0  0  0  0
    6.0010   -0.9750    0.0000 H   0  0  0  0  0  0  0  0  0  0  0  0
    5.6720   -3.4050    0.0000 H   0  0  0  0  0  0  0  0  0  0  0  0
    3.7320   -0.2850    0.0000 H   0  0  0  0  0  0  0  0  0  0  0  0
    6.8671   -2.7150    0.0000 H   0  0  0  0  0  0  0  0  0  0  0  0
    4.2690   -4.2150    0.0000 H   0  0  0  0  0  0  0  0  0  0  0  0
    5.6720   -0.4050    0.0000 H   0  0  0  0  0  0  0  0  0  0  0  0
    6.5380    1.0950    0.0000 H   0  0  0  0  0  0  0  0  0  0  0  0
    3.7320    1.0950    0.0000 H   0  0  0  0  0  0  0  0  0  0  0  0
   10.3312    0.5250    0.0000 H   0  0  0  0  0  0  0  0  0  0  0  0
   13.7953   -2.7150    0.0000 H   0  0  0  0  0  0  0  0  0  0  0  0
    3.7320    2.7150    0.0000 H   0  0  0  0  0  0  0  0  0  0  0  0
   13.7953    0.5250    0.0000 H   0  0  0  0  0  0  0  0  0  0  0  0
    2.0000   -1.9050    0.0000 H   0  0  0  0  0  0  0  0  0  0  0  0
    2.5369   -4.2150    0.0000 H   0  0  0  0  0  0  0  0  0  0  0  0
    6.8671    3.5250    0.0000 H   0  0  0  0  0  0  0  0  0  0  0  0
    4.5981    4.2150    0.0000 H   0  0  0  0  0  0  0  0  0  0  0  0
  1 12  1  0  0  0  0
  1 26  1  0  0  0  0
  2 18  1  0  0  0  0
  2 51  1  0  0  0  0
  3 19  1  0  0  0  0
  3 52  1  0  0  0  0
  4 21  1  0  0  0  0
  4 54  1  0  0  0  0
  5 18  2  0  0  0  0
  6 22  1  0  0  0  0
  6 55  1  0  0  0  0
  7 27  1  0  0  0  0
  7 56  1  0  0  0  0
  8 26  2  0  0  0  0
  9 34  1  0  0  0  0
  9 57  1  0  0  0  0
 10 36  1  0  0  0  0
 10 58  1  0  0  0  0
 11 12  1  0  0  0  0
 11 13  1  0  0  0  0
 11 37  1  0  0  0  0
 11 38  1  0  0  0  0
 12 18  1  0  0  0  0
 12 39  1  0  0  0  0
 13 14  2  0  0  0  0
 13 15  1  0  0  0  0
 14 19  1  0  0  0  0
 14 40  1  0  0  0  0
 15 20  2  0  0  0  0
 15 41  1  0  0  0  0
 16 17  2  0  0  0  0
 16 22  1  0  0  0  0
 16 25  1  0  0  0  0
 17 23  1  0  0  0  0
 17 24  1  0  0  0  0
 19 21  2  0  0  0  0
 20 21  1  0  0  0  0
 20 42  1  0  0  0  0
 22 27  2  0  0  0  0
 23 28  2  3  0  0  0
 23 43  1  0  0  0  0
 24 29  2  0  0  0  0
 24 44  1  0  0  0  0
 25 30  2  3  0  0  0
 25 45  1  0  0  0  0
 26 28  1  0  0  0  0
 27 29  1  0  0  0  0
 28 46  1  0  0  0  0
 29 47  1  0  0  0  0
 30 31  1  0  0  0  0
 30 48  1  0  0  0  0
 31 32  2  0  0  0  0
 31 33  1  0  0  0  0
 32 34  1  0  0  0  0
 32 49  1  0  0  0  0
 33 35  2  0  0  0  0
 33 50  1  0  0  0  0
 34 36  2  0  0  0  0
 35 36  1  0  0  0  0
 35 53  1  0  0  0  0
M  END
> <PUBCHEM_COMPOUND_CID>
502233
> <PUBCHEM_COMPOUND_CANONICALIZED>
1
> <PUBCHEM_CACTVS_COMPLEXITY>
798
> <PUBCHEM_CACTVS_HBOND_ACCEPTOR>
10
> <PUBCHEM_CACTVS_HBOND_DONOR>
7
> <PUBCHEM_CACTVS_ROTATABLE_BOND>
9
> <PUBCHEM_CACTVS_SUBSKEYS>
AAADceB4PAAAAAAAAAAAAAAAAAAAAAAAAAAwYMAAAAAAAAABUAAAGgAACAAADBSgmAIwDoAABgCIAiDSCAICAAAgIAAIiAFGiMgJJjKCMRaCcAEkwBELuYeI6LyOoAABAAAYQABAAAIAADCAAAAAAAAAAA==
> <PUBCHEM_IUPAC_OPENEYE_NAME>
3-(3,4-dihydroxyphenyl)-2-[3-[2-[2-(3,4-dihydroxyphenyl)vinyl]-3,4-dihydroxy-phenyl]prop-2-enoyloxy]propanoic acid
> <PUBCHEM_IUPAC_CAS_NAME>
3-(3,4-dihydroxyphenyl)-2-[3-[2-[2-(3,4-dihydroxyphenyl)ethenyl]-3,4-dihydroxyphenyl]-1-oxoprop-2-enoxy]propanoic acid
> <PUBCHEM_IUPAC_NAME_MARKUP>
3-(3,4-dihydroxyphenyl)-2-[3-[2-[2-(3,4-dihydroxyphenyl)ethenyl]-3,4-dihydroxyphenyl]prop-2-enoyloxy]propanoic acid
> <PUBCHEM_IUPAC_NAME>
3-(3,4-dihydroxyphenyl)-2-[3-[2-[2-(3,4-dihydroxyphenyl)ethenyl]-3,4-dihydroxyphenyl]prop-2-enoyloxy]propanoic acid
> <PUBCHEM_IUPAC_SYSTEMATIC_NAME>
3-[3,4-bis(oxidanyl)phenyl]-2-[3-[2-[2-[3,4-bis(oxidanyl)phenyl]ethenyl]-3,4-bis(oxidanyl)phenyl]prop-2-enoyloxy]propanoic acid
> <PUBCHEM_IUPAC_TRADITIONAL_NAME>
3-(3,4-dihydroxyphenyl)-2-[3-[2-[2-(3,4-dihydroxyphenyl)vinyl]-3,4-dihydroxy-phenyl]acryloyl]oxy-propionic acid
> <PUBCHEM_IUPAC_INCHI>
InChI=1S/C26H22O10/c27-18-7-2-14(11-21(18)30)1-6-17-16(4-9-20(29)25(17)33)5-10-24(32)36-23(26(34)35)13-15-3-8-19(28)22(31)12-15/h1-12,23,27-31,33H,13H2,(H,34,35)
> <PUBCHEM_IUPAC_INCHIKEY>
YMGFTDKNIWPMGF-UHFFFAOYSA-N
> <PUBCHEM_XLOGP3_AA>
3.9
> <PUBCHEM_EXACT_MASS>
494.12129689
> <PUBCHEM_MOLECULAR_FORMULA>
C26H22O10
> <PUBCHEM_MOLECULAR_WEIGHT>
494.4
> <PUBCHEM_OPENEYE_CAN_SMILES>
C1=CC(=C(C=C1CC(C(=O)O)OC(=O)C=CC2=C(C(=C(C=C2)O)O)C=CC3=CC(=C(C=C3)O)O)O)O
> <PUBCHEM_OPENEYE_ISO_SMILES>
C1=CC(=C(C=C1CC(C(=O)O)OC(=O)C=CC2=C(C(=C(C=C2)O)O)C=CC3=CC(=C(C=C3)O)O)O)O
> <PUBCHEM_CACTVS_TPSA>
185
> <PUBCHEM_MONOISOTOPIC_WEIGHT>
494.12129689
> <PUBCHEM_TOTAL_CHARGE>
0
> <PUBCHEM_HEAVY_ATOM_COUNT>
36
> <PUBCHEM_ATOM_DEF_STEREO_COUNT>
0
> <PUBCHEM_ATOM_UDEF_STEREO_COUNT>
1
> <PUBCHEM_BOND_DEF_STEREO_COUNT>
0
> <PUBCHEM_BOND_UDEF_STEREO_COUNT>
2
> <PUBCHEM_ISOTOPIC_ATOM_COUNT>
0
> <PUBCHEM_COMPONENT_COUNT>
1
> <PUBCHEM_CACTVS_TAUTO_COUNT>
-1
> <PUBCHEM_COORDINATE_TYPE>
1
5
255
> <PUBCHEM_BONDANNOTATIONS>
12  11  3
13  14  8
13  15  8
14  19  8
15  20  8
16  17  8
16  22  8
17  24  8
19  21  8
20  21  8
22  27  8
23  28  1
24  29  8
25  30  1
27  29  8
31  32  8
31  33  8
32  34  8
33  35  8
34  36  8
35  36  8
$$$$
