502276
  -OEChem-10302200282D
 52 52  0     1  0  0  0  0  0999 V2000
    6.3301    0.4400    0.0000 O   0  0  0  0  0  0  0  0  0  0  0  0
    7.1962   -1.0600    0.0000 O   0  0  0  0  0  0  0  0  0  0  0  0
    7.1962   -3.0600    0.0000 O   0  0  0  0  0  0  0  0  0  0  0  0
    5.4641   -3.0600    0.0000 O   0  0  0  0  0  0  0  0  0  0  0  0
    2.8660    1.4400    0.0000 O   0  0  0  0  0  0  0  0  0  0  0  0
    7.1962    2.9400    0.0000 O   0  0  0  0  0  0  0  0  0  0  0  0
    8.0622    1.4400    0.0000 O   0  0  0  0  0  0  0  0  0  0  0  0
    3.7320   -0.0600    0.0000 N   0  0  0  0  0  0  0  0  0  0  0  0
    4.5981   -1.5600    0.0000 N   0  0  0  0  0  0  0  0  0  0  0  0
    3.7320    1.9400    0.0000 N   0  0  0  0  0  0  0  0  0  0  0  0
    2.8660    3.4400    0.0000 N   0  0  0  0  0  0  0  0  0  0  0  0
    4.5981    3.4400    0.0000 N   0  0  0  0  0  0  0  0  0  0  0  0
    5.4641   -0.0600    0.0000 C   0  0  2  0  0  0  0  0  0  0  0  0
    4.5981    0.4400    0.0000 C   0  0  1  0  0  0  0  0  0  0  0  0
    5.4641   -1.0600    0.0000 C   0  0  1  0  0  0  0  0  0  0  0  0
    4.5981    1.4400    0.0000 C   0  0  2  0  0  0  0  0  0  0  0  0
    6.3301   -1.5600    0.0000 C   0  0  1  0  0  0  0  0  0  0  0  0
    5.4641    1.9400    0.0000 C   0  0  0  0  0  0  0  0  0  0  0  0
    6.3301    1.4400    0.0000 C   0  0  0  0  0  0  0  0  0  0  0  0
    6.3301   -2.5600    0.0000 C   0  0  0  0  0  0  0  0  0  0  0  0
    4.5981   -2.5600    0.0000 C   0  0  0  0  0  0  0  0  0  0  0  0
    2.8660    0.4400    0.0000 C   0  0  0  0  0  0  0  0  0  0  0  0
    7.1962    1.9400    0.0000 C   0  0  0  0  0  0  0  0  0  0  0  0
    3.7320   -3.0600    0.0000 C   0  0  0  0  0  0  0  0  0  0  0  0
    3.7320    2.9400    0.0000 C   0  0  0  0  0  0  0  0  0  0  0  0
    2.0000   -0.0600    0.0000 C   0  0  0  0  0  0  0  0  0  0  0  0
    3.7320   -4.0600    0.0000 C   0  0  0  0  0  0  0  0  0  0  0  0
    6.2002   -0.4850    0.0000 H   0  0  0  0  0  0  0  0  0  0  0  0
    4.5981   -0.1800    0.0000 H   0  0  0  0  0  0  0  0  0  0  0  0
    5.4641   -1.6800    0.0000 H   0  0  0  0  0  0  0  0  0  0  0  0
    4.5981    2.0600    0.0000 H   0  0  0  0  0  0  0  0  0  0  0  0
    6.8671   -1.8700    0.0000 H   0  0  0  0  0  0  0  0  0  0  0  0
    3.7320   -0.6800    0.0000 H   0  0  0  0  0  0  0  0  0  0  0  0
    4.0611   -1.2500    0.0000 H   0  0  0  0  0  0  0  0  0  0  0  0
    5.4641    2.5600    0.0000 H   0  0  0  0  0  0  0  0  0  0  0  0
    5.7196   -2.4523    0.0000 H   0  0  0  0  0  0  0  0  0  0  0  0
    6.1181   -3.1426    0.0000 H   0  0  0  0  0  0  0  0  0  0  0  0
    7.7331   -1.3700    0.0000 H   0  0  0  0  0  0  0  0  0  0  0  0
    3.5200   -2.4774    0.0000 H   0  0  0  0  0  0  0  0  0  0  0  0
    3.1215   -3.1677    0.0000 H   0  0  0  0  0  0  0  0  0  0  0  0
    7.1962   -3.6800    0.0000 H   0  0  0  0  0  0  0  0  0  0  0  0
    1.6900    0.4769    0.0000 H   0  0  0  0  0  0  0  0  0  0  0  0
    1.4631   -0.3700    0.0000 H   0  0  0  0  0  0  0  0  0  0  0  0
    2.3100   -0.5969    0.0000 H   0  0  0  0  0  0  0  0  0  0  0  0
    3.1120   -4.0600    0.0000 H   0  0  0  0  0  0  0  0  0  0  0  0
    3.7320   -4.6800    0.0000 H   0  0  0  0  0  0  0  0  0  0  0  0
    4.3520   -4.0600    0.0000 H   0  0  0  0  0  0  0  0  0  0  0  0
    7.7331    3.2500    0.0000 H   0  0  0  0  0  0  0  0  0  0  0  0
    2.8660    4.0600    0.0000 H   0  0  0  0  0  0  0  0  0  0  0  0
    2.3291    3.1300    0.0000 H   0  0  0  0  0  0  0  0  0  0  0  0
    4.5981    4.0600    0.0000 H   0  0  0  0  0  0  0  0  0  0  0  0
    5.1350    3.1300    0.0000 H   0  0  0  0  0  0  0  0  0  0  0  0
  1 13  1  0  0  0  0
  1 19  1  0  0  0  0
 17  2  1  6  0  0  0
  2 38  1  0  0  0  0
  3 20  1  0  0  0  0
  3 41  1  0  0  0  0
  4 21  2  0  0  0  0
  5 22  2  0  0  0  0
  6 23  1  0  0  0  0
  6 48  1  0  0  0  0
  7 23  2  0  0  0  0
 14  8  1  6  0  0  0
  8 22  1  0  0  0  0
  8 33  1  0  0  0  0
 15  9  1  1  0  0  0
  9 21  1  0  0  0  0
  9 34  1  0  0  0  0
 16 10  1  1  0  0  0
 10 25  2  0  0  0  0
 11 25  1  0  0  0  0
 11 49  1  0  0  0  0
 11 50  1  0  0  0  0
 12 25  1  0  0  0  0
 12 51  1  0  0  0  0
 12 52  1  0  0  0  0
 13 14  1  0  0  0  0
 13 15  1  0  0  0  0
 13 28  1  6  0  0  0
 14 16  1  0  0  0  0
 14 29  1  0  0  0  0
 15 17  1  0  0  0  0
 15 30  1  0  0  0  0
 16 18  1  0  0  0  0
 16 31  1  0  0  0  0
 17 20  1  0  0  0  0
 17 32  1  0  0  0  0
 18 19  2  0  0  0  0
 18 35  1  0  0  0  0
 19 23  1  0  0  0  0
 20 36  1  0  0  0  0
 20 37  1  0  0  0  0
 21 24  1  0  0  0  0
 22 26  1  0  0  0  0
 24 27  1  0  0  0  0
 24 39  1  0  0  0  0
 24 40  1  0  0  0  0
 26 42  1  0  0  0  0
 26 43  1  0  0  0  0
 26 44  1  0  0  0  0
 27 45  1  0  0  0  0
 27 46  1  0  0  0  0
 27 47  1  0  0  0  0
M  END
> <PUBCHEM_COMPOUND_CID>
502276
> <PUBCHEM_COMPOUND_CANONICALIZED>
1
> <PUBCHEM_CACTVS_COMPLEXITY>
632
> <PUBCHEM_CACTVS_HBOND_ACCEPTOR>
8
> <PUBCHEM_CACTVS_HBOND_DONOR>
7
> <PUBCHEM_CACTVS_ROTATABLE_BOND>
8
> <PUBCHEM_CACTVS_SUBSKEYS>
AAADceBzuAAAAAAAAAAAAAAAAAAAAAAAAAAgAAAAAAAAAAAAAAAAHgAQCAAACDzhgAYDCALABgCoACHSPAKACAEgIAAACIFIAEgDVAIAwAQXUAAHlgCbEYPw0CMAAAAAAAAAAAAAAAAAAAAAAAAAAAAAAA==
> <PUBCHEM_IUPAC_OPENEYE_NAME>
(2R,3R,4S)-3-acetamido-2-[(1R,2S)-2,3-dihydroxy-1-(propanoylamino)propyl]-4-guanidino-3,4-dihydro-2H-pyran-6-carboxylic acid
> <PUBCHEM_IUPAC_CAS_NAME>
(2R,3R,4S)-3-acetamido-4-(diaminomethylideneamino)-2-[(1R,2S)-2,3-dihydroxy-1-(1-oxopropylamino)propyl]-3,4-dihydro-2H-pyran-6-carboxylic acid
> <PUBCHEM_IUPAC_NAME_MARKUP>
(2<I>R</I>,3<I>R</I>,4<I>S</I>)-3-acetamido-4-(diaminomethylideneamino)-2-[(1<I>R</I>,2<I>S</I>)-2,3-dihydroxy-1-(propanoylamino)propyl]-3,4-dihydro-2<I>H</I>-pyran-6-carboxylic acid
> <PUBCHEM_IUPAC_NAME>
(2R,3R,4S)-3-acetamido-4-(diaminomethylideneamino)-2-[(1R,2S)-2,3-dihydroxy-1-(propanoylamino)propyl]-3,4-dihydro-2H-pyran-6-carboxylic acid
> <PUBCHEM_IUPAC_SYSTEMATIC_NAME>
(2R,3R,4S)-3-acetamido-4-[bis(azanyl)methylideneamino]-2-[(1R,2S)-2,3-bis(oxidanyl)-1-(propanoylamino)propyl]-3,4-dihydro-2H-pyran-6-carboxylic acid
> <PUBCHEM_IUPAC_TRADITIONAL_NAME>
(2R,3R,4S)-3-acetamido-2-[(1R,2S)-2,3-dihydroxy-1-propionamido-propyl]-4-guanidino-3,4-dihydro-2H-pyran-6-carboxylic acid
> <PUBCHEM_IUPAC_INCHI>
InChI=1S/C15H25N5O7/c1-3-10(24)20-12(8(23)5-21)13-11(18-6(2)22)7(19-15(16)17)4-9(27-13)14(25)26/h4,7-8,11-13,21,23H,3,5H2,1-2H3,(H,18,22)(H,20,24)(H,25,26)(H4,16,17,19)/t7-,8+,11+,12+,13+/m0/s1
> <PUBCHEM_IUPAC_INCHIKEY>
CRDJGWHXPDRCAM-RFCPQYNYSA-N
> <PUBCHEM_XLOGP3_AA>
-3.3
> <PUBCHEM_EXACT_MASS>
387.17539815
> <PUBCHEM_MOLECULAR_FORMULA>
C15H25N5O7
> <PUBCHEM_MOLECULAR_WEIGHT>
387.39
> <PUBCHEM_OPENEYE_CAN_SMILES>
CCC(=O)NC(C1C(C(C=C(O1)C(=O)O)N=C(N)N)NC(=O)C)C(CO)O
> <PUBCHEM_OPENEYE_ISO_SMILES>
CCC(=O)N[C@@H]([C@H]1[C@@H]([C@H](C=C(O1)C(=O)O)N=C(N)N)NC(=O)C)[C@@H](CO)O
> <PUBCHEM_CACTVS_TPSA>
210
> <PUBCHEM_MONOISOTOPIC_WEIGHT>
387.17539815
> <PUBCHEM_TOTAL_CHARGE>
0
> <PUBCHEM_HEAVY_ATOM_COUNT>
27
> <PUBCHEM_ATOM_DEF_STEREO_COUNT>
5
> <PUBCHEM_ATOM_UDEF_STEREO_COUNT>
0
> <PUBCHEM_BOND_DEF_STEREO_COUNT>
0
> <PUBCHEM_BOND_UDEF_STEREO_COUNT>
0
> <PUBCHEM_ISOTOPIC_ATOM_COUNT>
0
> <PUBCHEM_COMPONENT_COUNT>
1
> <PUBCHEM_CACTVS_TAUTO_COUNT>
-1
> <PUBCHEM_COORDINATE_TYPE>
1
5
255
> <PUBCHEM_BONDANNOTATIONS>
16  10  5
13  28  6
17  2  6
14  8  6
15  9  5
$$$$
