502293
  -OEChem-10302200282D
 50 50  0     1  0  0  0  0  0999 V2000
    6.8671   -0.6900    0.0000 O   0  0  0  0  0  0  0  0  0  0  0  0
    8.5991    0.3100    0.0000 O   0  0  0  0  0  0  0  0  0  0  0  0
    4.2690    1.8100    0.0000 O   0  0  0  0  0  0  0  0  0  0  0  0
    5.1350   -2.6900    0.0000 O   0  0  0  0  0  0  0  0  0  0  0  0
    6.8671   -2.6900    0.0000 O   0  0  0  0  0  0  0  0  0  0  0  0
    6.0010    1.8100    0.0000 N   0  0  0  0  0  0  0  0  0  0  0  0
    4.2690    0.8100    0.0000 N   0  0  0  0  0  0  0  0  0  0  0  0
    2.5369    0.8100    0.0000 N   0  0  0  0  0  0  0  0  0  0  0  0
    3.4030   -0.6900    0.0000 N   0  0  0  0  0  0  0  0  0  0  0  0
    6.8671    0.3100    0.0000 C   0  0  2  0  0  0  0  0  0  0  0  0
    6.0010    0.8100    0.0000 C   0  0  1  0  0  0  0  0  0  0  0  0
    7.7331    0.8100    0.0000 C   0  0  1  0  0  0  0  0  0  0  0  0
    5.1350    0.3100    0.0000 C   0  0  2  0  0  0  0  0  0  0  0  0
    7.7331    1.8100    0.0000 C   0  0  0  0  0  0  0  0  0  0  0  0
    5.1350   -0.6900    0.0000 C   0  0  0  0  0  0  0  0  0  0  0  0
    6.0010   -1.1900    0.0000 C   0  0  0  0  0  0  0  0  0  0  0  0
    8.5991    2.3100    0.0000 C   0  0  0  0  0  0  0  0  0  0  0  0
    9.4651    0.8100    0.0000 C   0  0  0  0  0  0  0  0  0  0  0  0
    5.1350    2.3100    0.0000 C   0  0  0  0  0  0  0  0  0  0  0  0
    6.0010   -2.1900    0.0000 C   0  0  0  0  0  0  0  0  0  0  0  0
   10.3312    0.3100    0.0000 C   0  0  0  0  0  0  0  0  0  0  0  0
    3.4030    0.3100    0.0000 C   0  0  0  0  0  0  0  0  0  0  0  0
    5.1350    3.3100    0.0000 C   0  0  0  0  0  0  0  0  0  0  0  0
   11.1972    0.8100    0.0000 C   0  0  0  0  0  0  0  0  0  0  0  0
    7.6032   -0.1150    0.0000 H   0  0  0  0  0  0  0  0  0  0  0  0
    6.5380    1.1200    0.0000 H   0  0  0  0  0  0  0  0  0  0  0  0
    7.7331    0.1900    0.0000 H   0  0  0  0  0  0  0  0  0  0  0  0
    5.1350    0.9300    0.0000 H   0  0  0  0  0  0  0  0  0  0  0  0
    7.5210    2.3926    0.0000 H   0  0  0  0  0  0  0  0  0  0  0  0
    7.1225    1.7023    0.0000 H   0  0  0  0  0  0  0  0  0  0  0  0
    6.5380    2.1200    0.0000 H   0  0  0  0  0  0  0  0  0  0  0  0
    4.5981   -1.0000    0.0000 H   0  0  0  0  0  0  0  0  0  0  0  0
    8.9091    1.7731    0.0000 H   0  0  0  0  0  0  0  0  0  0  0  0
    9.1360    2.6200    0.0000 H   0  0  0  0  0  0  0  0  0  0  0  0
    8.2891    2.8469    0.0000 H   0  0  0  0  0  0  0  0  0  0  0  0
    9.8637    1.2850    0.0000 H   0  0  0  0  0  0  0  0  0  0  0  0
    9.0666    1.2850    0.0000 H   0  0  0  0  0  0  0  0  0  0  0  0
    9.9326   -0.1649    0.0000 H   0  0  0  0  0  0  0  0  0  0  0  0
   10.7297   -0.1649    0.0000 H   0  0  0  0  0  0  0  0  0  0  0  0
    5.7550    3.3100    0.0000 H   0  0  0  0  0  0  0  0  0  0  0  0
    5.1350    3.9300    0.0000 H   0  0  0  0  0  0  0  0  0  0  0  0
    4.5150    3.3100    0.0000 H   0  0  0  0  0  0  0  0  0  0  0  0
   11.5072    0.2731    0.0000 H   0  0  0  0  0  0  0  0  0  0  0  0
   11.7341    1.1200    0.0000 H   0  0  0  0  0  0  0  0  0  0  0  0
   10.8872    1.3469    0.0000 H   0  0  0  0  0  0  0  0  0  0  0  0
    5.1350   -3.3100    0.0000 H   0  0  0  0  0  0  0  0  0  0  0  0
    2.0000    0.5000    0.0000 H   0  0  0  0  0  0  0  0  0  0  0  0
    2.5369    1.4300    0.0000 H   0  0  0  0  0  0  0  0  0  0  0  0
    2.8660   -1.0000    0.0000 H   0  0  0  0  0  0  0  0  0  0  0  0
    3.9399   -1.0000    0.0000 H   0  0  0  0  0  0  0  0  0  0  0  0
  1 10  1  0  0  0  0
  1 16  1  0  0  0  0
 12  2  1  1  0  0  0
  2 18  1  0  0  0  0
  3 19  2  0  0  0  0
  4 20  1  0  0  0  0
  4 46  1  0  0  0  0
  5 20  2  0  0  0  0
 11  6  1  1  0  0  0
  6 19  1  0  0  0  0
  6 31  1  0  0  0  0
 13  7  1  6  0  0  0
  7 22  2  0  0  0  0
  8 22  1  0  0  0  0
  8 47  1  0  0  0  0
  8 48  1  0  0  0  0
  9 22  1  0  0  0  0
  9 49  1  0  0  0  0
  9 50  1  0  0  0  0
 10 11  1  0  0  0  0
 10 12  1  0  0  0  0
 10 25  1  1  0  0  0
 11 13  1  0  0  0  0
 11 26  1  0  0  0  0
 12 14  1  0  0  0  0
 12 27  1  0  0  0  0
 13 15  1  0  0  0  0
 13 28  1  0  0  0  0
 14 17  1  0  0  0  0
 14 29  1  0  0  0  0
 14 30  1  0  0  0  0
 15 16  2  0  0  0  0
 15 32  1  0  0  0  0
 16 20  1  0  0  0  0
 17 33  1  0  0  0  0
 17 34  1  0  0  0  0
 17 35  1  0  0  0  0
 18 21  1  0  0  0  0
 18 36  1  0  0  0  0
 18 37  1  0  0  0  0
 19 23  1  0  0  0  0
 21 24  1  0  0  0  0
 21 38  1  0  0  0  0
 21 39  1  0  0  0  0
 23 40  1  0  0  0  0
 23 41  1  0  0  0  0
 23 42  1  0  0  0  0
 24 43  1  0  0  0  0
 24 44  1  0  0  0  0
 24 45  1  0  0  0  0
M  END
> <PUBCHEM_COMPOUND_CID>
502293
> <PUBCHEM_COMPOUND_CANONICALIZED>
1
> <PUBCHEM_CACTVS_COMPLEXITY>
516
> <PUBCHEM_CACTVS_HBOND_ACCEPTOR>
6
> <PUBCHEM_CACTVS_HBOND_DONOR>
4
> <PUBCHEM_CACTVS_ROTATABLE_BOND>
8
> <PUBCHEM_CACTVS_SUBSKEYS>
AAADceBzuAAAAAAAAAAAAAAAAAAAAAAAAAAgAAAAAAAAAAAAAAAAHgAQCAAACDzhgAYDCALABgCoACHSPAKACAEgIAAACIBIAEgDRAIAgAQXEAAGlgCbEYOwgAAAAAAAAAAAAAAAAAAAAAAAAAAAAAAAAA==
> <PUBCHEM_IUPAC_OPENEYE_NAME>
(2R,3R,4S)-3-acetamido-4-guanidino-2-[(1R)-1-propoxypropyl]-3,4-dihydro-2H-pyran-6-carboxylic acid
> <PUBCHEM_IUPAC_CAS_NAME>
(2R,3R,4S)-3-acetamido-4-(diaminomethylideneamino)-2-[(1R)-1-propoxypropyl]-3,4-dihydro-2H-pyran-6-carboxylic acid
> <PUBCHEM_IUPAC_NAME_MARKUP>
(2<I>R</I>,3<I>R</I>,4<I>S</I>)-3-acetamido-4-(diaminomethylideneamino)-2-[(1<I>R</I>)-1-propoxypropyl]-3,4-dihydro-2<I>H</I>-pyran-6-carboxylic acid
> <PUBCHEM_IUPAC_NAME>
(2R,3R,4S)-3-acetamido-4-(diaminomethylideneamino)-2-[(1R)-1-propoxypropyl]-3,4-dihydro-2H-pyran-6-carboxylic acid
> <PUBCHEM_IUPAC_SYSTEMATIC_NAME>
(2R,3R,4S)-3-acetamido-4-[bis(azanyl)methylideneamino]-2-[(1R)-1-propoxypropyl]-3,4-dihydro-2H-pyran-6-carboxylic acid
> <PUBCHEM_IUPAC_TRADITIONAL_NAME>
(2R,3R,4S)-3-acetamido-4-guanidino-2-[(1R)-1-propoxypropyl]-3,4-dihydro-2H-pyran-6-carboxylic acid
> <PUBCHEM_IUPAC_INCHI>
InChI=1S/C15H26N4O5/c1-4-6-23-10(5-2)13-12(18-8(3)20)9(19-15(16)17)7-11(24-13)14(21)22/h7,9-10,12-13H,4-6H2,1-3H3,(H,18,20)(H,21,22)(H4,16,17,19)/t9-,10+,12+,13-/m0/s1
> <PUBCHEM_IUPAC_INCHIKEY>
CQFPIXJWJCYUMI-YGNMPJRFSA-N
> <PUBCHEM_XLOGP3_AA>
-0.1
> <PUBCHEM_EXACT_MASS>
342.19031994
> <PUBCHEM_MOLECULAR_FORMULA>
C15H26N4O5
> <PUBCHEM_MOLECULAR_WEIGHT>
342.39
> <PUBCHEM_OPENEYE_CAN_SMILES>
CCCOC(CC)C1C(C(C=C(O1)C(=O)O)N=C(N)N)NC(=O)C
> <PUBCHEM_OPENEYE_ISO_SMILES>
CCCO[C@H](CC)[C@H]1[C@@H]([C@H](C=C(O1)C(=O)O)N=C(N)N)NC(=O)C
> <PUBCHEM_CACTVS_TPSA>
149
> <PUBCHEM_MONOISOTOPIC_WEIGHT>
342.19031994
> <PUBCHEM_TOTAL_CHARGE>
0
> <PUBCHEM_HEAVY_ATOM_COUNT>
24
> <PUBCHEM_ATOM_DEF_STEREO_COUNT>
4
> <PUBCHEM_ATOM_UDEF_STEREO_COUNT>
0
> <PUBCHEM_BOND_DEF_STEREO_COUNT>
0
> <PUBCHEM_BOND_UDEF_STEREO_COUNT>
0
> <PUBCHEM_ISOTOPIC_ATOM_COUNT>
0
> <PUBCHEM_COMPONENT_COUNT>
1
> <PUBCHEM_CACTVS_TAUTO_COUNT>
-1
> <PUBCHEM_COORDINATE_TYPE>
1
5
255
> <PUBCHEM_BONDANNOTATIONS>
10  25  5
12  2  5
11  6  5
13  7  6
$$$$
