502274
  -OEChem-10302200282D
 44 44  0     1  0  0  0  0  0999 V2000
    6.8671   -0.6900    0.0000 O   0  0  0  0  0  0  0  0  0  0  0  0
    8.5991   -0.6900    0.0000 O   0  0  0  0  0  0  0  0  0  0  0  0
   10.3312    0.3100    0.0000 O   0  0  0  0  0  0  0  0  0  0  0  0
    4.2690    1.8100    0.0000 O   0  0  0  0  0  0  0  0  0  0  0  0
    5.1350   -2.6900    0.0000 O   0  0  0  0  0  0  0  0  0  0  0  0
    6.8671   -2.6900    0.0000 O   0  0  0  0  0  0  0  0  0  0  0  0
    6.0010    1.8100    0.0000 N   0  0  0  0  0  0  0  0  0  0  0  0
    7.7331    1.8100    0.0000 N   0  0  0  0  0  0  0  0  0  0  0  0
    4.2690    0.8100    0.0000 N   0  0  0  0  0  0  0  0  0  0  0  0
    2.5369    0.8100    0.0000 N   0  0  0  0  0  0  0  0  0  0  0  0
    3.4030   -0.6900    0.0000 N   0  0  0  0  0  0  0  0  0  0  0  0
    6.8671    0.3100    0.0000 C   0  0  2  0  0  0  0  0  0  0  0  0
    6.0010    0.8100    0.0000 C   0  0  1  0  0  0  0  0  0  0  0  0
    7.7331    0.8100    0.0000 C   0  0  1  0  0  0  0  0  0  0  0  0
    5.1350    0.3100    0.0000 C   0  0  2  0  0  0  0  0  0  0  0  0
    8.5991    0.3100    0.0000 C   0  0  1  0  0  0  0  0  0  0  0  0
    5.1350   -0.6900    0.0000 C   0  0  0  0  0  0  0  0  0  0  0  0
    6.0010   -1.1900    0.0000 C   0  0  0  0  0  0  0  0  0  0  0  0
    9.4651    0.8100    0.0000 C   0  0  0  0  0  0  0  0  0  0  0  0
    5.1350    2.3100    0.0000 C   0  0  0  0  0  0  0  0  0  0  0  0
    6.0010   -2.1900    0.0000 C   0  0  0  0  0  0  0  0  0  0  0  0
    3.4030    0.3100    0.0000 C   0  0  0  0  0  0  0  0  0  0  0  0
    5.1350    3.3100    0.0000 C   0  0  0  0  0  0  0  0  0  0  0  0
    7.6032   -0.1150    0.0000 H   0  0  0  0  0  0  0  0  0  0  0  0
    6.5380    1.1200    0.0000 H   0  0  0  0  0  0  0  0  0  0  0  0
    8.2700    1.1200    0.0000 H   0  0  0  0  0  0  0  0  0  0  0  0
    5.1350    0.9300    0.0000 H   0  0  0  0  0  0  0  0  0  0  0  0
    8.0622   -0.0000    0.0000 H   0  0  0  0  0  0  0  0  0  0  0  0
    6.5380    2.1200    0.0000 H   0  0  0  0  0  0  0  0  0  0  0  0
    4.5981   -1.0000    0.0000 H   0  0  0  0  0  0  0  0  0  0  0  0
    8.2700    2.1200    0.0000 H   0  0  0  0  0  0  0  0  0  0  0  0
    7.1962    2.1200    0.0000 H   0  0  0  0  0  0  0  0  0  0  0  0
    9.8637    1.2850    0.0000 H   0  0  0  0  0  0  0  0  0  0  0  0
    9.0666    1.2850    0.0000 H   0  0  0  0  0  0  0  0  0  0  0  0
    9.1360   -1.0000    0.0000 H   0  0  0  0  0  0  0  0  0  0  0  0
    5.7550    3.3100    0.0000 H   0  0  0  0  0  0  0  0  0  0  0  0
    5.1350    3.9300    0.0000 H   0  0  0  0  0  0  0  0  0  0  0  0
    4.5150    3.3100    0.0000 H   0  0  0  0  0  0  0  0  0  0  0  0
   10.8681    0.6200    0.0000 H   0  0  0  0  0  0  0  0  0  0  0  0
    5.1350   -3.3100    0.0000 H   0  0  0  0  0  0  0  0  0  0  0  0
    2.0000    0.5000    0.0000 H   0  0  0  0  0  0  0  0  0  0  0  0
    2.5369    1.4300    0.0000 H   0  0  0  0  0  0  0  0  0  0  0  0
    2.8660   -1.0000    0.0000 H   0  0  0  0  0  0  0  0  0  0  0  0
    3.9399   -1.0000    0.0000 H   0  0  0  0  0  0  0  0  0  0  0  0
  1 12  1  0  0  0  0
  1 18  1  0  0  0  0
 16  2  1  1  0  0  0
  2 35  1  0  0  0  0
  3 19  1  0  0  0  0
  3 39  1  0  0  0  0
  4 20  2  0  0  0  0
  5 21  1  0  0  0  0
  5 40  1  0  0  0  0
  6 21  2  0  0  0  0
 13  7  1  1  0  0  0
  7 20  1  0  0  0  0
  7 29  1  0  0  0  0
 14  8  1  6  0  0  0
  8 31  1  0  0  0  0
  8 32  1  0  0  0  0
 15  9  1  6  0  0  0
  9 22  2  0  0  0  0
 10 22  1  0  0  0  0
 10 41  1  0  0  0  0
 10 42  1  0  0  0  0
 11 22  1  0  0  0  0
 11 43  1  0  0  0  0
 11 44  1  0  0  0  0
 12 13  1  0  0  0  0
 12 14  1  0  0  0  0
 12 24  1  1  0  0  0
 13 15  1  0  0  0  0
 13 25  1  0  0  0  0
 14 16  1  0  0  0  0
 14 26  1  0  0  0  0
 15 17  1  0  0  0  0
 15 27  1  0  0  0  0
 16 19  1  0  0  0  0
 16 28  1  0  0  0  0
 17 18  2  0  0  0  0
 17 30  1  0  0  0  0
 18 21  1  0  0  0  0
 19 33  1  0  0  0  0
 19 34  1  0  0  0  0
 20 23  1  0  0  0  0
 23 36  1  0  0  0  0
 23 37  1  0  0  0  0
 23 38  1  0  0  0  0
M  END
> <PUBCHEM_COMPOUND_CID>
502274
> <PUBCHEM_COMPOUND_CANONICALIZED>
1
> <PUBCHEM_CACTVS_COMPLEXITY>
518
> <PUBCHEM_CACTVS_HBOND_ACCEPTOR>
8
> <PUBCHEM_CACTVS_HBOND_DONOR>
7
> <PUBCHEM_CACTVS_ROTATABLE_BOND>
6
> <PUBCHEM_CACTVS_SUBSKEYS>
AAADceBzuAAAAAAAAAAAAAAAAAAAAAAAAAAgAAAAAAAAAAAAAAAAHgAQCAAACDzhgAYDCALABgCoACHSPAKACAEgIAAACIBIAEgDVAIAwAQXUAAHlgCbEYPw0CMAAAAAAAAAAAAAAAAAAAAAAAAAAAAAAA==
> <PUBCHEM_IUPAC_OPENEYE_NAME>
(2S,3R,4S)-3-acetamido-2-[(1R,2S)-1-amino-2,3-dihydroxy-propyl]-4-guanidino-3,4-dihydro-2H-pyran-6-carboxylic acid
> <PUBCHEM_IUPAC_CAS_NAME>
(2S,3R,4S)-3-acetamido-2-[(1R,2S)-1-amino-2,3-dihydroxypropyl]-4-(diaminomethylideneamino)-3,4-dihydro-2H-pyran-6-carboxylic acid
> <PUBCHEM_IUPAC_NAME_MARKUP>
(2<I>S</I>,3<I>R</I>,4<I>S</I>)-3-acetamido-2-[(1<I>R</I>,2<I>S</I>)-1-amino-2,3-dihydroxypropyl]-4-(diaminomethylideneamino)-3,4-dihydro-2<I>H</I>-pyran-6-carboxylic acid
> <PUBCHEM_IUPAC_NAME>
(2S,3R,4S)-3-acetamido-2-[(1R,2S)-1-amino-2,3-dihydroxypropyl]-4-(diaminomethylideneamino)-3,4-dihydro-2H-pyran-6-carboxylic acid
> <PUBCHEM_IUPAC_SYSTEMATIC_NAME>
(2S,3R,4S)-3-acetamido-2-[(1R,2S)-1-azanyl-2,3-bis(oxidanyl)propyl]-4-[bis(azanyl)methylideneamino]-3,4-dihydro-2H-pyran-6-carboxylic acid
> <PUBCHEM_IUPAC_TRADITIONAL_NAME>
(2S,3R,4S)-3-acetamido-2-[(1R,2S)-1-amino-2,3-dihydroxy-propyl]-4-guanidino-3,4-dihydro-2H-pyran-6-carboxylic acid
> <PUBCHEM_IUPAC_INCHI>
InChI=1S/C12H21N5O6/c1-4(19)16-9-5(17-12(14)15)2-7(11(21)22)23-10(9)8(13)6(20)3-18/h2,5-6,8-10,18,20H,3,13H2,1H3,(H,16,19)(H,21,22)(H4,14,15,17)/t5-,6+,8+,9+,10-/m0/s1
> <PUBCHEM_IUPAC_INCHIKEY>
DQUPXJPWBBJBMZ-LUTUWXHWSA-N
> <PUBCHEM_XLOGP3_AA>
-5.7
> <PUBCHEM_EXACT_MASS>
331.14918341
> <PUBCHEM_MOLECULAR_FORMULA>
C12H21N5O6
> <PUBCHEM_MOLECULAR_WEIGHT>
331.33
> <PUBCHEM_OPENEYE_CAN_SMILES>
CC(=O)NC1C(C=C(OC1C(C(CO)O)N)C(=O)O)N=C(N)N
> <PUBCHEM_OPENEYE_ISO_SMILES>
CC(=O)N[C@@H]1[C@H](C=C(O[C@H]1[C@@H]([C@@H](CO)O)N)C(=O)O)N=C(N)N
> <PUBCHEM_CACTVS_TPSA>
207
> <PUBCHEM_MONOISOTOPIC_WEIGHT>
331.14918341
> <PUBCHEM_TOTAL_CHARGE>
0
> <PUBCHEM_HEAVY_ATOM_COUNT>
23
> <PUBCHEM_ATOM_DEF_STEREO_COUNT>
5
> <PUBCHEM_ATOM_UDEF_STEREO_COUNT>
0
> <PUBCHEM_BOND_DEF_STEREO_COUNT>
0
> <PUBCHEM_BOND_UDEF_STEREO_COUNT>
0
> <PUBCHEM_ISOTOPIC_ATOM_COUNT>
0
> <PUBCHEM_COMPONENT_COUNT>
1
> <PUBCHEM_CACTVS_TAUTO_COUNT>
-1
> <PUBCHEM_COORDINATE_TYPE>
1
5
255
> <PUBCHEM_BONDANNOTATIONS>
12  24  5
16  2  5
13  7  5
14  8  6
15  9  6
$$$$
