502290
  -OEChem-10302200282D
 51 51  0     1  0  0  0  0  0999 V2000
    6.8671   -1.2500    0.0000 O   0  0  0  0  0  0  0  0  0  0  0  0
    7.7331    1.2500    0.0000 O   0  0  0  0  0  0  0  0  0  0  0  0
    8.5991   -1.2500    0.0000 O   0  0  0  0  0  0  0  0  0  0  0  0
   10.3312   -0.2500    0.0000 O   0  0  0  0  0  0  0  0  0  0  0  0
    4.2690    1.2500    0.0000 O   0  0  0  0  0  0  0  0  0  0  0  0
    5.1350   -3.2500    0.0000 O   0  0  0  0  0  0  0  0  0  0  0  0
    6.8671   -3.2500    0.0000 O   0  0  0  0  0  0  0  0  0  0  0  0
    6.0010    1.2500    0.0000 N   0  0  0  0  0  0  0  0  0  0  0  0
    4.2690    0.2500    0.0000 N   0  0  0  0  0  0  0  0  0  0  0  0
    9.4651    3.2500    0.0000 N   0  0  0  0  0  0  0  0  0  0  0  0
    2.5369    0.2500    0.0000 N   0  0  0  0  0  0  0  0  0  0  0  0
    3.4030   -1.2500    0.0000 N   0  0  0  0  0  0  0  0  0  0  0  0
    6.8671   -0.2500    0.0000 C   0  0  2  0  0  0  0  0  0  0  0  0
    6.0010    0.2500    0.0000 C   0  0  1  0  0  0  0  0  0  0  0  0
    7.7331    0.2500    0.0000 C   0  0  1  0  0  0  0  0  0  0  0  0
    5.1350   -0.2500    0.0000 C   0  0  2  0  0  0  0  0  0  0  0  0
    8.5991   -0.2500    0.0000 C   0  0  1  0  0  0  0  0  0  0  0  0
    5.1350   -1.2500    0.0000 C   0  0  0  0  0  0  0  0  0  0  0  0
    6.0010   -1.7500    0.0000 C   0  0  0  0  0  0  0  0  0  0  0  0
    9.4651    0.2500    0.0000 C   0  0  0  0  0  0  0  0  0  0  0  0
    8.5991    1.7500    0.0000 C   0  0  0  0  0  0  0  0  0  0  0  0
    5.1350    1.7500    0.0000 C   0  0  0  0  0  0  0  0  0  0  0  0
    6.0010   -2.7500    0.0000 C   0  0  0  0  0  0  0  0  0  0  0  0
    8.5991    2.7500    0.0000 C   0  0  0  0  0  0  0  0  0  0  0  0
    3.4030   -0.2500    0.0000 C   0  0  0  0  0  0  0  0  0  0  0  0
    5.1350    2.7500    0.0000 C   0  0  0  0  0  0  0  0  0  0  0  0
    7.6032   -0.6750    0.0000 H   0  0  0  0  0  0  0  0  0  0  0  0
    6.5380    0.5600    0.0000 H   0  0  0  0  0  0  0  0  0  0  0  0
    8.2700    0.5600    0.0000 H   0  0  0  0  0  0  0  0  0  0  0  0
    5.1350    0.3700    0.0000 H   0  0  0  0  0  0  0  0  0  0  0  0
    8.0622   -0.5600    0.0000 H   0  0  0  0  0  0  0  0  0  0  0  0
    6.5380    1.5600    0.0000 H   0  0  0  0  0  0  0  0  0  0  0  0
    4.5981   -1.5600    0.0000 H   0  0  0  0  0  0  0  0  0  0  0  0
    9.8637    0.7249    0.0000 H   0  0  0  0  0  0  0  0  0  0  0  0
    9.0666    0.7249    0.0000 H   0  0  0  0  0  0  0  0  0  0  0  0
    8.8112    1.1674    0.0000 H   0  0  0  0  0  0  0  0  0  0  0  0
    9.2097    1.8577    0.0000 H   0  0  0  0  0  0  0  0  0  0  0  0
    9.1360   -1.5600    0.0000 H   0  0  0  0  0  0  0  0  0  0  0  0
    8.3871    3.3326    0.0000 H   0  0  0  0  0  0  0  0  0  0  0  0
    7.9885    2.6423    0.0000 H   0  0  0  0  0  0  0  0  0  0  0  0
    5.7550    2.7500    0.0000 H   0  0  0  0  0  0  0  0  0  0  0  0
    5.1350    3.3700    0.0000 H   0  0  0  0  0  0  0  0  0  0  0  0
    4.5150    2.7500    0.0000 H   0  0  0  0  0  0  0  0  0  0  0  0
   10.8681    0.0600    0.0000 H   0  0  0  0  0  0  0  0  0  0  0  0
    9.4651    3.8700    0.0000 H   0  0  0  0  0  0  0  0  0  0  0  0
   10.0021    2.9400    0.0000 H   0  0  0  0  0  0  0  0  0  0  0  0
    5.1350   -3.8700    0.0000 H   0  0  0  0  0  0  0  0  0  0  0  0
    2.0000   -0.0600    0.0000 H   0  0  0  0  0  0  0  0  0  0  0  0
    2.5369    0.8700    0.0000 H   0  0  0  0  0  0  0  0  0  0  0  0
    2.8660   -1.5600    0.0000 H   0  0  0  0  0  0  0  0  0  0  0  0
    3.9399   -1.5600    0.0000 H   0  0  0  0  0  0  0  0  0  0  0  0
  1 13  1  0  0  0  0
  1 19  1  0  0  0  0
 15  2  1  6  0  0  0
  2 21  1  0  0  0  0
 17  3  1  1  0  0  0
  3 38  1  0  0  0  0
  4 20  1  0  0  0  0
  4 44  1  0  0  0  0
  5 22  2  0  0  0  0
  6 23  1  0  0  0  0
  6 47  1  0  0  0  0
  7 23  2  0  0  0  0
 14  8  1  1  0  0  0
  8 22  1  0  0  0  0
  8 32  1  0  0  0  0
 16  9  1  6  0  0  0
  9 25  2  0  0  0  0
 10 24  1  0  0  0  0
 10 45  1  0  0  0  0
 10 46  1  0  0  0  0
 11 25  1  0  0  0  0
 11 48  1  0  0  0  0
 11 49  1  0  0  0  0
 12 25  1  0  0  0  0
 12 50  1  0  0  0  0
 12 51  1  0  0  0  0
 13 14  1  0  0  0  0
 13 15  1  0  0  0  0
 13 27  1  1  0  0  0
 14 16  1  0  0  0  0
 14 28  1  0  0  0  0
 15 17  1  0  0  0  0
 15 29  1  0  0  0  0
 16 18  1  0  0  0  0
 16 30  1  0  0  0  0
 17 20  1  0  0  0  0
 17 31  1  0  0  0  0
 18 19  2  0  0  0  0
 18 33  1  0  0  0  0
 19 23  1  0  0  0  0
 20 34  1  0  0  0  0
 20 35  1  0  0  0  0
 21 24  1  0  0  0  0
 21 36  1  0  0  0  0
 21 37  1  0  0  0  0
 22 26  1  0  0  0  0
 24 39  1  0  0  0  0
 24 40  1  0  0  0  0
 26 41  1  0  0  0  0
 26 42  1  0  0  0  0
 26 43  1  0  0  0  0
M  END
> <PUBCHEM_COMPOUND_CID>
502290
> <PUBCHEM_COMPOUND_CANONICALIZED>
1
> <PUBCHEM_CACTVS_COMPLEXITY>
564
> <PUBCHEM_CACTVS_HBOND_ACCEPTOR>
9
> <PUBCHEM_CACTVS_HBOND_DONOR>
7
> <PUBCHEM_CACTVS_ROTATABLE_BOND>
9
> <PUBCHEM_CACTVS_SUBSKEYS>
AAADceBzuAAAAAAAAAAAAAAAAAAAAAAAAAAgAAAAAAAAAAAAAAAAHgAQCAAACDzhgAYDCALABgCoACHSPAKACAEgIAAACIBIAEgDVAIAgAQXUAAHlgCbEYPw0CMAAAAAAAAAAAAAAAAAAAAAAAAAAAAAAA==
> <PUBCHEM_IUPAC_OPENEYE_NAME>
(2R,3R,4S)-3-acetamido-2-[(1R,2R)-1-(2-aminoethoxy)-2,3-dihydroxy-propyl]-4-guanidino-3,4-dihydro-2H-pyran-6-carboxylic acid
> <PUBCHEM_IUPAC_CAS_NAME>
(2R,3R,4S)-3-acetamido-2-[(1R,2R)-1-(2-aminoethoxy)-2,3-dihydroxypropyl]-4-(diaminomethylideneamino)-3,4-dihydro-2H-pyran-6-carboxylic acid
> <PUBCHEM_IUPAC_NAME_MARKUP>
(2<I>R</I>,3<I>R</I>,4<I>S</I>)-3-acetamido-2-[(1<I>R</I>,2<I>R</I>)-1-(2-aminoethoxy)-2,3-dihydroxypropyl]-4-(diaminomethylideneamino)-3,4-dihydro-2<I>H</I>-pyran-6-carboxylic acid
> <PUBCHEM_IUPAC_NAME>
(2R,3R,4S)-3-acetamido-2-[(1R,2R)-1-(2-aminoethoxy)-2,3-dihydroxypropyl]-4-(diaminomethylideneamino)-3,4-dihydro-2H-pyran-6-carboxylic acid
> <PUBCHEM_IUPAC_SYSTEMATIC_NAME>
(2R,3R,4S)-3-acetamido-2-[(1R,2R)-1-(2-azanylethoxy)-2,3-bis(oxidanyl)propyl]-4-[bis(azanyl)methylideneamino]-3,4-dihydro-2H-pyran-6-carboxylic acid
> <PUBCHEM_IUPAC_TRADITIONAL_NAME>
(2R,3R,4S)-3-acetamido-2-[(1R,2R)-1-(2-aminoethoxy)-2,3-dihydroxy-propyl]-4-guanidino-3,4-dihydro-2H-pyran-6-carboxylic acid
> <PUBCHEM_IUPAC_INCHI>
InChI=1S/C14H25N5O7/c1-6(21)18-10-7(19-14(16)17)4-9(13(23)24)26-12(10)11(8(22)5-20)25-3-2-15/h4,7-8,10-12,20,22H,2-3,5,15H2,1H3,(H,18,21)(H,23,24)(H4,16,17,19)/t7-,8+,10+,11+,12+/m0/s1
> <PUBCHEM_IUPAC_INCHIKEY>
UNKCJAYTQNWVFE-RULNCXCMSA-N
> <PUBCHEM_XLOGP3_AA>
-6.4
> <PUBCHEM_EXACT_MASS>
375.17539815
> <PUBCHEM_MOLECULAR_FORMULA>
C14H25N5O7
> <PUBCHEM_MOLECULAR_WEIGHT>
375.38
> <PUBCHEM_OPENEYE_CAN_SMILES>
CC(=O)NC1C(C=C(OC1C(C(CO)O)OCCN)C(=O)O)N=C(N)N
> <PUBCHEM_OPENEYE_ISO_SMILES>
CC(=O)N[C@@H]1[C@H](C=C(O[C@H]1[C@@H]([C@@H](CO)O)OCCN)C(=O)O)N=C(N)N
> <PUBCHEM_CACTVS_TPSA>
216
> <PUBCHEM_MONOISOTOPIC_WEIGHT>
375.17539815
> <PUBCHEM_TOTAL_CHARGE>
0
> <PUBCHEM_HEAVY_ATOM_COUNT>
26
> <PUBCHEM_ATOM_DEF_STEREO_COUNT>
5
> <PUBCHEM_ATOM_UDEF_STEREO_COUNT>
0
> <PUBCHEM_BOND_DEF_STEREO_COUNT>
0
> <PUBCHEM_BOND_UDEF_STEREO_COUNT>
0
> <PUBCHEM_ISOTOPIC_ATOM_COUNT>
0
> <PUBCHEM_COMPONENT_COUNT>
1
> <PUBCHEM_CACTVS_TAUTO_COUNT>
-1
> <PUBCHEM_COORDINATE_TYPE>
1
5
255
> <PUBCHEM_BONDANNOTATIONS>
13  27  5
15  2  6
17  3  5
14  8  5
16  9  6
$$$$
