502277
  -OEChem-10302200282D
 67 67  0     1  0  0  0  0  0999 V2000
    7.1962    2.1900    0.0000 O   0  0  0  0  0  0  0  0  0  0  0  0
    8.0622    0.6900    0.0000 O   0  0  0  0  0  0  0  0  0  0  0  0
    8.0622   -1.3100    0.0000 O   0  0  0  0  0  0  0  0  0  0  0  0
    6.3301   -1.3100    0.0000 O   0  0  0  0  0  0  0  0  0  0  0  0
    3.7320    3.1900    0.0000 O   0  0  0  0  0  0  0  0  0  0  0  0
    8.0622    4.6900    0.0000 O   0  0  0  0  0  0  0  0  0  0  0  0
    8.9282    3.1900    0.0000 O   0  0  0  0  0  0  0  0  0  0  0  0
    5.4641    0.1900    0.0000 N   0  0  0  0  0  0  0  0  0  0  0  0
    4.5981    1.6900    0.0000 N   0  0  0  0  0  0  0  0  0  0  0  0
    4.5981    3.6900    0.0000 N   0  0  0  0  0  0  0  0  0  0  0  0
    3.7320    5.1900    0.0000 N   0  0  0  0  0  0  0  0  0  0  0  0
    5.4641    5.1900    0.0000 N   0  0  0  0  0  0  0  0  0  0  0  0
    6.3301    1.6900    0.0000 C   0  0  2  0  0  0  0  0  0  0  0  0
    5.4641    2.1900    0.0000 C   0  0  1  0  0  0  0  0  0  0  0  0
    6.3301    0.6900    0.0000 C   0  0  1  0  0  0  0  0  0  0  0  0
    5.4641    3.1900    0.0000 C   0  0  2  0  0  0  0  0  0  0  0  0
    7.1962    0.1900    0.0000 C   0  0  1  0  0  0  0  0  0  0  0  0
    6.3301    3.6900    0.0000 C   0  0  0  0  0  0  0  0  0  0  0  0
    7.1962    3.1900    0.0000 C   0  0  0  0  0  0  0  0  0  0  0  0
    7.1962   -0.8100    0.0000 C   0  0  0  0  0  0  0  0  0  0  0  0
    5.4641   -0.8100    0.0000 C   0  0  0  0  0  0  0  0  0  0  0  0
    4.5981   -1.3100    0.0000 C   0  0  0  0  0  0  0  0  0  0  0  0
    3.7320    2.1900    0.0000 C   0  0  0  0  0  0  0  0  0  0  0  0
    4.5981   -2.3100    0.0000 C   0  0  0  0  0  0  0  0  0  0  0  0
    3.7320   -2.8100    0.0000 C   0  0  0  0  0  0  0  0  0  0  0  0
    8.0622    3.6900    0.0000 C   0  0  0  0  0  0  0  0  0  0  0  0
    3.7320   -3.8100    0.0000 C   0  0  0  0  0  0  0  0  0  0  0  0
    4.5981    4.6900    0.0000 C   0  0  0  0  0  0  0  0  0  0  0  0
    2.8660    1.6900    0.0000 C   0  0  0  0  0  0  0  0  0  0  0  0
    2.8660   -4.3100    0.0000 C   0  0  0  0  0  0  0  0  0  0  0  0
    2.8660   -5.3100    0.0000 C   0  0  0  0  0  0  0  0  0  0  0  0
    2.0000   -5.8100    0.0000 C   0  0  0  0  0  0  0  0  0  0  0  0
    7.0662    1.2650    0.0000 H   0  0  0  0  0  0  0  0  0  0  0  0
    5.4641    1.5700    0.0000 H   0  0  0  0  0  0  0  0  0  0  0  0
    5.7932    1.0000    0.0000 H   0  0  0  0  0  0  0  0  0  0  0  0
    5.4641    3.8100    0.0000 H   0  0  0  0  0  0  0  0  0  0  0  0
    7.7331   -0.1200    0.0000 H   0  0  0  0  0  0  0  0  0  0  0  0
    4.9272    0.5000    0.0000 H   0  0  0  0  0  0  0  0  0  0  0  0
    4.5981    1.0700    0.0000 H   0  0  0  0  0  0  0  0  0  0  0  0
    6.3301    4.3100    0.0000 H   0  0  0  0  0  0  0  0  0  0  0  0
    6.5856   -0.7023    0.0000 H   0  0  0  0  0  0  0  0  0  0  0  0
    6.9841   -1.3926    0.0000 H   0  0  0  0  0  0  0  0  0  0  0  0
    4.3860   -0.7274    0.0000 H   0  0  0  0  0  0  0  0  0  0  0  0
    3.9875   -1.4177    0.0000 H   0  0  0  0  0  0  0  0  0  0  0  0
    8.5991    0.3800    0.0000 H   0  0  0  0  0  0  0  0  0  0  0  0
    4.8101   -2.8926    0.0000 H   0  0  0  0  0  0  0  0  0  0  0  0
    5.2087   -2.2023    0.0000 H   0  0  0  0  0  0  0  0  0  0  0  0
    3.5200   -2.2274    0.0000 H   0  0  0  0  0  0  0  0  0  0  0  0
    3.1215   -2.9177    0.0000 H   0  0  0  0  0  0  0  0  0  0  0  0
    3.9441   -4.3926    0.0000 H   0  0  0  0  0  0  0  0  0  0  0  0
    4.3426   -3.7023    0.0000 H   0  0  0  0  0  0  0  0  0  0  0  0
    8.0622   -1.9300    0.0000 H   0  0  0  0  0  0  0  0  0  0  0  0
    2.5560    2.2269    0.0000 H   0  0  0  0  0  0  0  0  0  0  0  0
    2.3291    1.3800    0.0000 H   0  0  0  0  0  0  0  0  0  0  0  0
    3.1760    1.1531    0.0000 H   0  0  0  0  0  0  0  0  0  0  0  0
    2.6540   -3.7274    0.0000 H   0  0  0  0  0  0  0  0  0  0  0  0
    2.2554   -4.4177    0.0000 H   0  0  0  0  0  0  0  0  0  0  0  0
    3.0781   -5.8926    0.0000 H   0  0  0  0  0  0  0  0  0  0  0  0
    3.4766   -5.2023    0.0000 H   0  0  0  0  0  0  0  0  0  0  0  0
    8.5991    5.0000    0.0000 H   0  0  0  0  0  0  0  0  0  0  0  0
    3.7320    5.8100    0.0000 H   0  0  0  0  0  0  0  0  0  0  0  0
    3.1951    4.8800    0.0000 H   0  0  0  0  0  0  0  0  0  0  0  0
    5.4641    5.8100    0.0000 H   0  0  0  0  0  0  0  0  0  0  0  0
    6.0010    4.8800    0.0000 H   0  0  0  0  0  0  0  0  0  0  0  0
    1.6900   -5.2731    0.0000 H   0  0  0  0  0  0  0  0  0  0  0  0
    1.4631   -6.1200    0.0000 H   0  0  0  0  0  0  0  0  0  0  0  0
    2.3100   -6.3469    0.0000 H   0  0  0  0  0  0  0  0  0  0  0  0
  1 13  1  0  0  0  0
  1 19  1  0  0  0  0
 17  2  1  6  0  0  0
  2 45  1  0  0  0  0
  3 20  1  0  0  0  0
  3 52  1  0  0  0  0
  4 21  2  0  0  0  0
  5 23  2  0  0  0  0
  6 26  1  0  0  0  0
  6 60  1  0  0  0  0
  7 26  2  0  0  0  0
 15  8  1  1  0  0  0
  8 21  1  0  0  0  0
  8 38  1  0  0  0  0
 14  9  1  6  0  0  0
  9 23  1  0  0  0  0
  9 39  1  0  0  0  0
 16 10  1  1  0  0  0
 10 28  2  0  0  0  0
 11 28  1  0  0  0  0
 11 61  1  0  0  0  0
 11 62  1  0  0  0  0
 12 28  1  0  0  0  0
 12 63  1  0  0  0  0
 12 64  1  0  0  0  0
 13 14  1  0  0  0  0
 13 15  1  0  0  0  0
 13 33  1  6  0  0  0
 14 16  1  0  0  0  0
 14 34  1  0  0  0  0
 15 17  1  0  0  0  0
 15 35  1  0  0  0  0
 16 18  1  0  0  0  0
 16 36  1  0  0  0  0
 17 20  1  0  0  0  0
 17 37  1  0  0  0  0
 18 19  2  0  0  0  0
 18 40  1  0  0  0  0
 19 26  1  0  0  0  0
 20 41  1  0  0  0  0
 20 42  1  0  0  0  0
 21 22  1  0  0  0  0
 22 24  1  0  0  0  0
 22 43  1  0  0  0  0
 22 44  1  0  0  0  0
 23 29  1  0  0  0  0
 24 25  1  0  0  0  0
 24 46  1  0  0  0  0
 24 47  1  0  0  0  0
 25 27  1  0  0  0  0
 25 48  1  0  0  0  0
 25 49  1  0  0  0  0
 27 30  1  0  0  0  0
 27 50  1  0  0  0  0
 27 51  1  0  0  0  0
 29 53  1  0  0  0  0
 29 54  1  0  0  0  0
 29 55  1  0  0  0  0
 30 31  1  0  0  0  0
 30 56  1  0  0  0  0
 30 57  1  0  0  0  0
 31 32  1  0  0  0  0
 31 58  1  0  0  0  0
 31 59  1  0  0  0  0
 32 65  1  0  0  0  0
 32 66  1  0  0  0  0
 32 67  1  0  0  0  0
M  END
> <PUBCHEM_COMPOUND_CID>
502277
> <PUBCHEM_COMPOUND_CANONICALIZED>
1
> <PUBCHEM_CACTVS_COMPLEXITY>
709
> <PUBCHEM_CACTVS_HBOND_ACCEPTOR>
8
> <PUBCHEM_CACTVS_HBOND_DONOR>
7
> <PUBCHEM_CACTVS_ROTATABLE_BOND>
13
> <PUBCHEM_CACTVS_SUBSKEYS>
AAADcfB7uAAAAAAAAAAAAAAAAAAAAAAAAAAgAAAAAAAAAAAAAAAAHgAQCAAACDzhgAYDCALABgCoACHSPAKACAEgIAAACIFIAEgDVBIAwAQXUAAHlgCbEYP42KOAAAAAAAAAAAAAAAAAAAAAAAAAAAAAAA==
> <PUBCHEM_IUPAC_OPENEYE_NAME>
(2R,3R,4S)-3-acetamido-2-[(1R,2S)-2,3-dihydroxy-1-(octanoylamino)propyl]-4-guanidino-3,4-dihydro-2H-pyran-6-carboxylic acid
> <PUBCHEM_IUPAC_CAS_NAME>
(2R,3R,4S)-3-acetamido-4-(diaminomethylideneamino)-2-[(1R,2S)-2,3-dihydroxy-1-(1-oxooctylamino)propyl]-3,4-dihydro-2H-pyran-6-carboxylic acid
> <PUBCHEM_IUPAC_NAME_MARKUP>
(2<I>R</I>,3<I>R</I>,4<I>S</I>)-3-acetamido-4-(diaminomethylideneamino)-2-[(1<I>R</I>,2<I>S</I>)-2,3-dihydroxy-1-(octanoylamino)propyl]-3,4-dihydro-2<I>H</I>-pyran-6-carboxylic acid
> <PUBCHEM_IUPAC_NAME>
(2R,3R,4S)-3-acetamido-4-(diaminomethylideneamino)-2-[(1R,2S)-2,3-dihydroxy-1-(octanoylamino)propyl]-3,4-dihydro-2H-pyran-6-carboxylic acid
> <PUBCHEM_IUPAC_SYSTEMATIC_NAME>
(2R,3R,4S)-3-acetamido-4-[bis(azanyl)methylideneamino]-2-[(1R,2S)-1-(octanoylamino)-2,3-bis(oxidanyl)propyl]-3,4-dihydro-2H-pyran-6-carboxylic acid
> <PUBCHEM_IUPAC_TRADITIONAL_NAME>
(2R,3R,4S)-3-acetamido-2-[(1R,2S)-1-(caprylylamino)-2,3-dihydroxy-propyl]-4-guanidino-3,4-dihydro-2H-pyran-6-carboxylic acid
> <PUBCHEM_IUPAC_INCHI>
InChI=1S/C20H35N5O7/c1-3-4-5-6-7-8-15(29)25-17(13(28)10-26)18-16(23-11(2)27)12(24-20(21)22)9-14(32-18)19(30)31/h9,12-13,16-18,26,28H,3-8,10H2,1-2H3,(H,23,27)(H,25,29)(H,30,31)(H4,21,22,24)/t12-,13+,16+,17+,18+/m0/s1
> <PUBCHEM_IUPAC_INCHIKEY>
IFABYPAOZSRUCY-NYMASUJMSA-N
> <PUBCHEM_XLOGP3_AA>
-0.8
> <PUBCHEM_EXACT_MASS>
457.25364847
> <PUBCHEM_MOLECULAR_FORMULA>
C20H35N5O7
> <PUBCHEM_MOLECULAR_WEIGHT>
457.5
> <PUBCHEM_OPENEYE_CAN_SMILES>
CCCCCCCC(=O)NC(C1C(C(C=C(O1)C(=O)O)N=C(N)N)NC(=O)C)C(CO)O
> <PUBCHEM_OPENEYE_ISO_SMILES>
CCCCCCCC(=O)N[C@@H]([C@H]1[C@@H]([C@H](C=C(O1)C(=O)O)N=C(N)N)NC(=O)C)[C@@H](CO)O
> <PUBCHEM_CACTVS_TPSA>
210
> <PUBCHEM_MONOISOTOPIC_WEIGHT>
457.25364847
> <PUBCHEM_TOTAL_CHARGE>
0
> <PUBCHEM_HEAVY_ATOM_COUNT>
32
> <PUBCHEM_ATOM_DEF_STEREO_COUNT>
5
> <PUBCHEM_ATOM_UDEF_STEREO_COUNT>
0
> <PUBCHEM_BOND_DEF_STEREO_COUNT>
0
> <PUBCHEM_BOND_UDEF_STEREO_COUNT>
0
> <PUBCHEM_ISOTOPIC_ATOM_COUNT>
0
> <PUBCHEM_COMPONENT_COUNT>
1
> <PUBCHEM_CACTVS_TAUTO_COUNT>
-1
> <PUBCHEM_COORDINATE_TYPE>
1
5
255
> <PUBCHEM_BONDANNOTATIONS>
16  10  5
13  33  6
17  2  6
15  8  5
14  9  6
$$$$
