502217
  -OEChem-10302200282D
 60 62  0     1  0  0  0  0  0999 V2000
    5.0009   -1.4584    0.0000 P   0  0  3  0  0  0  0  0  0  0  0  0
    4.5411    2.0242    0.0000 O   0  0  0  0  0  0  0  0  0  0  0  0
    4.4131   -0.6494    0.0000 O   0  0  0  0  0  0  0  0  0  0  0  0
    4.1919   -2.0462    0.0000 O   0  0  0  0  0  0  0  0  0  0  0  0
    5.8099   -0.8706    0.0000 O   0  0  0  0  0  0  0  0  0  0  0  0
    5.4641    3.6120    0.0000 O   0  0  0  0  0  0  0  0  0  0  0  0
    3.7320    6.6120    0.0000 O   0  0  0  0  0  0  0  0  0  0  0  0
    8.1655   -2.8674    0.0000 O   0  0  0  0  0  0  0  0  0  0  0  0
    6.7642   -3.8854    0.0000 O   0  0  0  0  0  0  0  0  0  0  0  0
    4.6100   -6.0242    0.0000 O   0  0  0  0  0  0  0  0  0  0  0  0
    3.7320    3.6120    0.0000 N   0  0  0  0  0  0  0  0  0  0  0  0
    5.5887   -2.2674    0.0000 N   0  0  0  0  0  0  0  0  0  0  0  0
    4.5981    5.1120    0.0000 N   0  0  0  0  0  0  0  0  0  0  0  0
    4.2320    1.0732    0.0000 C   0  0  2  0  0  0  0  0  0  0  0  0
    3.7320    2.6120    0.0000 C   0  0  1  0  0  0  0  0  0  0  0  0
    4.8198    0.2642    0.0000 C   0  0  0  0  0  0  0  0  0  0  0  0
    3.2320    1.0732    0.0000 C   0  0  0  0  0  0  0  0  0  0  0  0
    2.9230    2.0242    0.0000 C   0  0  0  0  0  0  0  0  0  0  0  0
    2.8660    4.1120    0.0000 C   0  0  0  0  0  0  0  0  0  0  0  0
    4.5981    4.1120    0.0000 C   0  0  0  0  0  0  0  0  0  0  0  0
    2.8660    5.1120    0.0000 C   0  0  0  0  0  0  0  0  0  0  0  0
    6.5832   -2.1629    0.0000 C   0  0  3  0  0  0  0  0  0  0  0  0
    3.7320    5.6120    0.0000 C   0  0  0  0  0  0  0  0  0  0  0  0
    6.9899   -1.2493    0.0000 C   0  0  0  0  0  0  0  0  0  0  0  0
    2.0000    5.6120    0.0000 C   0  0  0  0  0  0  0  0  0  0  0  0
    7.1710   -2.9719    0.0000 C   0  0  0  0  0  0  0  0  0  0  0  0
    4.2964   -3.0407    0.0000 C   0  0  0  0  0  0  0  0  0  0  0  0
    3.4874   -3.6285    0.0000 C   0  0  0  0  0  0  0  0  0  0  0  0
    5.2099   -3.4474    0.0000 C   0  0  0  0  0  0  0  0  0  0  0  0
    3.5919   -4.6230    0.0000 C   0  0  0  0  0  0  0  0  0  0  0  0
    5.3145   -4.4420    0.0000 C   0  0  0  0  0  0  0  0  0  0  0  0
    4.5054   -5.0297    0.0000 C   0  0  0  0  0  0  0  0  0  0  0  0
    8.7533   -3.6764    0.0000 C   0  0  0  0  0  0  0  0  0  0  0  0
    3.8010   -6.6120    0.0000 C   0  0  0  0  0  0  0  0  0  0  0  0
    4.8444    1.1702    0.0000 H   0  0  0  0  0  0  0  0  0  0  0  0
    4.2845    2.8935    0.0000 H   0  0  0  0  0  0  0  0  0  0  0  0
    5.3338   -0.0825    0.0000 H   0  0  0  0  0  0  0  0  0  0  0  0
    5.2505    0.7102    0.0000 H   0  0  0  0  0  0  0  0  0  0  0  0
    2.8676    0.5716    0.0000 H   0  0  0  0  0  0  0  0  0  0  0  0
    2.3334    2.2158    0.0000 H   0  0  0  0  0  0  0  0  0  0  0  0
    2.3291    3.8020    0.0000 H   0  0  0  0  0  0  0  0  0  0  0  0
    5.3365   -2.8338    0.0000 H   0  0  0  0  0  0  0  0  0  0  0  0
    6.3310   -2.7293    0.0000 H   0  0  0  0  0  0  0  0  0  0  0  0
    5.1350    5.4220    0.0000 H   0  0  0  0  0  0  0  0  0  0  0  0
    7.5563   -1.5015    0.0000 H   0  0  0  0  0  0  0  0  0  0  0  0
    7.2421   -0.6829    0.0000 H   0  0  0  0  0  0  0  0  0  0  0  0
    6.4235   -0.9971    0.0000 H   0  0  0  0  0  0  0  0  0  0  0  0
    2.3100    6.1490    0.0000 H   0  0  0  0  0  0  0  0  0  0  0  0
    1.4631    5.9220    0.0000 H   0  0  0  0  0  0  0  0  0  0  0  0
    1.6900    5.0751    0.0000 H   0  0  0  0  0  0  0  0  0  0  0  0
    2.9210   -3.3763    0.0000 H   0  0  0  0  0  0  0  0  0  0  0  0
    5.7115   -3.0830    0.0000 H   0  0  0  0  0  0  0  0  0  0  0  0
    3.0903   -4.9874    0.0000 H   0  0  0  0  0  0  0  0  0  0  0  0
    5.8809   -4.6941    0.0000 H   0  0  0  0  0  0  0  0  0  0  0  0
    8.2517   -4.0408    0.0000 H   0  0  0  0  0  0  0  0  0  0  0  0
    9.1177   -4.1780    0.0000 H   0  0  0  0  0  0  0  0  0  0  0  0
    9.2549   -3.3120    0.0000 H   0  0  0  0  0  0  0  0  0  0  0  0
    3.4365   -6.1104    0.0000 H   0  0  0  0  0  0  0  0  0  0  0  0
    3.2994   -6.9765    0.0000 H   0  0  0  0  0  0  0  0  0  0  0  0
    4.1654   -7.1136    0.0000 H   0  0  0  0  0  0  0  0  0  0  0  0
  1  3  1  0  0  0  0
  1  4  1  0  0  0  0
  1  5  2  0  0  0  0
  1 12  1  0  0  0  0
  2 14  1  0  0  0  0
  2 15  1  0  0  0  0
  3 16  1  0  0  0  0
  4 27  1  0  0  0  0
  6 20  2  0  0  0  0
  7 23  2  0  0  0  0
  8 26  1  0  0  0  0
  8 33  1  0  0  0  0
  9 26  2  0  0  0  0
 10 32  1  0  0  0  0
 10 34  1  0  0  0  0
 15 11  1  6  0  0  0
 11 19  1  0  0  0  0
 11 20  1  0  0  0  0
 12 22  1  0  0  0  0
 12 42  1  0  0  0  0
 13 20  1  0  0  0  0
 13 23  1  0  0  0  0
 13 44  1  0  0  0  0
 14 16  1  6  0  0  0
 14 17  1  0  0  0  0
 14 35  1  0  0  0  0
 15 18  1  0  0  0  0
 15 36  1  0  0  0  0
 16 37  1  0  0  0  0
 16 38  1  0  0  0  0
 17 18  2  0  0  0  0
 17 39  1  0  0  0  0
 18 40  1  0  0  0  0
 19 21  2  0  0  0  0
 19 41  1  0  0  0  0
 21 23  1  0  0  0  0
 21 25  1  0  0  0  0
 22 24  1  0  0  0  0
 22 26  1  0  0  0  0
 22 43  1  0  0  0  0
 24 45  1  0  0  0  0
 24 46  1  0  0  0  0
 24 47  1  0  0  0  0
 25 48  1  0  0  0  0
 25 49  1  0  0  0  0
 25 50  1  0  0  0  0
 27 28  2  0  0  0  0
 27 29  1  0  0  0  0
 28 30  1  0  0  0  0
 28 51  1  0  0  0  0
 29 31  2  0  0  0  0
 29 52  1  0  0  0  0
 30 32  2  0  0  0  0
 30 53  1  0  0  0  0
 31 32  1  0  0  0  0
 31 54  1  0  0  0  0
 33 55  1  0  0  0  0
 33 56  1  0  0  0  0
 33 57  1  0  0  0  0
 34 58  1  0  0  0  0
 34 59  1  0  0  0  0
 34 60  1  0  0  0  0
M  END
> <PUBCHEM_COMPOUND_CID>
502217
> <PUBCHEM_COMPOUND_CANONICALIZED>
1
> <PUBCHEM_CACTVS_COMPLEXITY>
885
> <PUBCHEM_CACTVS_HBOND_ACCEPTOR>
10
> <PUBCHEM_CACTVS_HBOND_DONOR>
2
> <PUBCHEM_CACTVS_ROTATABLE_BOND>
11
> <PUBCHEM_CACTVS_SUBSKEYS>
AAADceB7PAIAAAAAAAAAAAAAAAAAAQAAAAAwQAAAAAAAAAABAAAAHgAQgCAADDzhkAYzDoPABRCIQiHWWICCCAAgIAAIiIGOCMiPJiKEMRqPMCAs1zMKqMfAQAAAAQAAAAAAAAACAAAAAAAAAAAAAAAAAA==
> <PUBCHEM_IUPAC_OPENEYE_NAME>
methyl 2-[[(4-methoxyphenoxy)-[[(2S,5R)-5-(5-methyl-2,4-dioxo-pyrimidin-1-yl)-2,5-dihydrofuran-2-yl]methoxy]phosphoryl]amino]propanoate
> <PUBCHEM_IUPAC_CAS_NAME>
2-[[(4-methoxyphenoxy)-[[(2S,5R)-5-(5-methyl-2,4-dioxo-1-pyrimidinyl)-2,5-dihydrofuran-2-yl]methoxy]phosphoryl]amino]propanoic acid methyl ester
> <PUBCHEM_IUPAC_NAME_MARKUP>
methyl 2-[[(4-methoxyphenoxy)-[[(2<I>S</I>,5<I>R</I>)-5-(5-methyl-2,4-dioxopyrimidin-1-yl)-2,5-dihydrofuran-2-yl]methoxy]phosphoryl]amino]propanoate
> <PUBCHEM_IUPAC_NAME>
methyl 2-[[(4-methoxyphenoxy)-[[(2S,5R)-5-(5-methyl-2,4-dioxopyrimidin-1-yl)-2,5-dihydrofuran-2-yl]methoxy]phosphoryl]amino]propanoate
> <PUBCHEM_IUPAC_SYSTEMATIC_NAME>
methyl 2-[[(4-methoxyphenoxy)-[[(2S,5R)-5-[5-methyl-2,4-bis(oxidanylidene)pyrimidin-1-yl]-2,5-dihydrofuran-2-yl]methoxy]phosphoryl]amino]propanoate
> <PUBCHEM_IUPAC_TRADITIONAL_NAME>
2-[[[(2S,5R)-5-(2,4-diketo-5-methyl-pyrimidin-1-yl)-2,5-dihydrofuran-2-yl]methoxy-(4-methoxyphenoxy)phosphoryl]amino]propionic acid methyl ester
> <PUBCHEM_IUPAC_INCHI>
InChI=1S/C21H26N3O9P/c1-13-11-24(21(27)22-19(13)25)18-10-9-17(32-18)12-31-34(28,23-14(2)20(26)30-4)33-16-7-5-15(29-3)6-8-16/h5-11,14,17-18H,12H2,1-4H3,(H,23,28)(H,22,25,27)/t14?,17-,18+,34?/m0/s1
> <PUBCHEM_IUPAC_INCHIKEY>
ZXSVYVWRZXSVLR-ADVIUVPZSA-N
> <PUBCHEM_XLOGP3_AA>
1
> <PUBCHEM_EXACT_MASS>
495.14066641
> <PUBCHEM_MOLECULAR_FORMULA>
C21H26N3O9P
> <PUBCHEM_MOLECULAR_WEIGHT>
495.4
> <PUBCHEM_OPENEYE_CAN_SMILES>
CC1=CN(C(=O)NC1=O)C2C=CC(O2)COP(=O)(NC(C)C(=O)OC)OC3=CC=C(C=C3)OC
> <PUBCHEM_OPENEYE_ISO_SMILES>
CC1=CN(C(=O)NC1=O)[C@H]2C=C[C@H](O2)COP(=O)(NC(C)C(=O)OC)OC3=CC=C(C=C3)OC
> <PUBCHEM_CACTVS_TPSA>
142
> <PUBCHEM_MONOISOTOPIC_WEIGHT>
495.14066641
> <PUBCHEM_TOTAL_CHARGE>
0
> <PUBCHEM_HEAVY_ATOM_COUNT>
34
> <PUBCHEM_ATOM_DEF_STEREO_COUNT>
2
> <PUBCHEM_ATOM_UDEF_STEREO_COUNT>
2
> <PUBCHEM_BOND_DEF_STEREO_COUNT>
0
> <PUBCHEM_BOND_UDEF_STEREO_COUNT>
0
> <PUBCHEM_ISOTOPIC_ATOM_COUNT>
0
> <PUBCHEM_COMPONENT_COUNT>
1
> <PUBCHEM_CACTVS_TAUTO_COUNT>
-1
> <PUBCHEM_COORDINATE_TYPE>
1
5
255
> <PUBCHEM_BONDANNOTATIONS>
1  12  3
15  11  6
11  19  8
11  20  8
13  20  8
13  23  8
14  16  6
19  21  8
21  23  8
22  24  3
27  28  8
27  29  8
28  30  8
29  31  8
30  32  8
31  32  8
$$$$
