502267
  -OEChem-10302200282D
 37 38  0     1  0  0  0  0  0999 V2000
    7.8051   -3.1217    0.0000 P   0  0  0  0  0  0  0  0  0  0  0  0
    5.9440   -0.6571    0.0000 O   0  0  0  0  0  0  0  0  0  0  0  0
    4.0472   -2.4172    0.0000 O   0  0  0  0  0  0  0  0  0  0  0  0
    7.2173   -2.3126    0.0000 O   0  0  0  0  0  0  0  0  0  0  0  0
    6.8671    0.9307    0.0000 O   0  0  0  0  0  0  0  0  0  0  0  0
    5.1350    3.9307    0.0000 O   0  0  0  0  0  0  0  0  0  0  0  0
    8.3929   -3.9307    0.0000 O   0  0  0  0  0  0  0  0  0  0  0  0
    8.6141   -2.5339    0.0000 O   0  0  0  0  0  0  0  0  0  0  0  0
    2.5369    2.4307    0.0000 O   0  0  0  0  0  0  0  0  0  0  0  0
    6.9961   -3.7094    0.0000 O   0  0  0  0  0  0  0  0  0  0  0  0
    5.1350    0.9307    0.0000 N   0  0  0  0  0  0  0  0  0  0  0  0
    6.0010    2.4307    0.0000 N   0  0  0  0  0  0  0  0  0  0  0  0
    4.6350   -1.6082    0.0000 C   0  0  2  0  0  0  0  0  0  0  0  0
    5.6350   -1.6082    0.0000 C   0  0  1  0  0  0  0  0  0  0  0  0
    5.1350   -0.0693    0.0000 C   0  0  2  0  0  0  0  0  0  0  0  0
    4.3260   -0.6571    0.0000 C   0  0  0  0  0  0  0  0  0  0  0  0
    6.2228   -2.4172    0.0000 C   0  0  0  0  0  0  0  0  0  0  0  0
    4.2690    1.4307    0.0000 C   0  0  0  0  0  0  0  0  0  0  0  0
    6.0010    1.4307    0.0000 C   0  0  0  0  0  0  0  0  0  0  0  0
    4.2690    2.4307    0.0000 C   0  0  0  0  0  0  0  0  0  0  0  0
    5.1350    2.9307    0.0000 C   0  0  0  0  0  0  0  0  0  0  0  0
    3.4030    2.9307    0.0000 C   0  0  0  0  0  0  0  0  0  0  0  0
    4.9165   -2.1606    0.0000 H   0  0  0  0  0  0  0  0  0  0  0  0
    6.2474   -1.5112    0.0000 H   0  0  0  0  0  0  0  0  0  0  0  0
    5.6874    0.2122    0.0000 H   0  0  0  0  0  0  0  0  0  0  0  0
    4.0160   -0.1202    0.0000 H   0  0  0  0  0  0  0  0  0  0  0  0
    3.7596   -0.9093    0.0000 H   0  0  0  0  0  0  0  0  0  0  0  0
    5.6655   -2.6890    0.0000 H   0  0  0  0  0  0  0  0  0  0  0  0
    6.3937   -3.0132    0.0000 H   0  0  0  0  0  0  0  0  0  0  0  0
    3.4306   -2.3524    0.0000 H   0  0  0  0  0  0  0  0  0  0  0  0
    3.7320    1.1207    0.0000 H   0  0  0  0  0  0  0  0  0  0  0  0
    6.5380    2.7407    0.0000 H   0  0  0  0  0  0  0  0  0  0  0  0
    3.8015    3.4056    0.0000 H   0  0  0  0  0  0  0  0  0  0  0  0
    3.0044    3.4056    0.0000 H   0  0  0  0  0  0  0  0  0  0  0  0
    9.0095   -3.8659    0.0000 H   0  0  0  0  0  0  0  0  0  0  0  0
    8.5493   -1.9173    0.0000 H   0  0  0  0  0  0  0  0  0  0  0  0
    2.0000    2.7407    0.0000 H   0  0  0  0  0  0  0  0  0  0  0  0
  1  4  1  0  0  0  0
  1  7  1  0  0  0  0
  1  8  1  0  0  0  0
  1 10  2  0  0  0  0
  2 14  1  0  0  0  0
  2 15  1  0  0  0  0
 13  3  1  1  0  0  0
  3 30  1  0  0  0  0
  4 17  1  0  0  0  0
  5 19  2  0  0  0  0
  6 21  2  0  0  0  0
  7 35  1  0  0  0  0
  8 36  1  0  0  0  0
  9 22  1  0  0  0  0
  9 37  1  0  0  0  0
 15 11  1  1  0  0  0
 11 18  1  0  0  0  0
 11 19  1  0  0  0  0
 12 19  1  0  0  0  0
 12 21  1  0  0  0  0
 12 32  1  0  0  0  0
 13 14  1  0  0  0  0
 13 16  1  0  0  0  0
 13 23  1  0  0  0  0
 14 17  1  6  0  0  0
 14 24  1  0  0  0  0
 15 16  1  0  0  0  0
 15 25  1  0  0  0  0
 16 26  1  0  0  0  0
 16 27  1  0  0  0  0
 17 28  1  0  0  0  0
 17 29  1  0  0  0  0
 18 20  2  0  0  0  0
 18 31  1  0  0  0  0
 20 21  1  0  0  0  0
 20 22  1  0  0  0  0
 22 33  1  0  0  0  0
 22 34  1  0  0  0  0
M  END
> <PUBCHEM_COMPOUND_CID>
502267
> <PUBCHEM_COMPOUND_CANONICALIZED>
1
> <PUBCHEM_CACTVS_COMPLEXITY>
545
> <PUBCHEM_CACTVS_HBOND_ACCEPTOR>
9
> <PUBCHEM_CACTVS_HBOND_DONOR>
5
> <PUBCHEM_CACTVS_ROTATABLE_BOND>
5
> <PUBCHEM_CACTVS_SUBSKEYS>
AAADccBzPAIAAAAAAAAAAAAAAAAAASAAAAAgAAAAAAAAAAAAAAAAHgAQCCAADBThgAYBAAPABxCIQgFWUICAAAAAAAAAAAEIAECBFAYAgQAOQAAPJyIDEMCwMAIAAAAAAAAAAAAAAAAAAAAAAAAAAAAAAA==
> <PUBCHEM_IUPAC_OPENEYE_NAME>
[(2R,3S,5S)-3-hydroxy-5-[5-(hydroxymethyl)-2,4-dioxo-pyrimidin-1-yl]tetrahydrofuran-2-yl]methyl dihydrogen phosphate
> <PUBCHEM_IUPAC_CAS_NAME>
[(2R,3S,5S)-3-hydroxy-5-[5-(hydroxymethyl)-2,4-dioxo-1-pyrimidinyl]-2-oxolanyl]methyl dihydrogen phosphate
> <PUBCHEM_IUPAC_NAME_MARKUP>
[(2<I>R</I>,3<I>S</I>,5<I>S</I>)-3-hydroxy-5-[5-(hydroxymethyl)-2,4-dioxopyrimidin-1-yl]oxolan-2-yl]methyl dihydrogen phosphate
> <PUBCHEM_IUPAC_NAME>
[(2R,3S,5S)-3-hydroxy-5-[5-(hydroxymethyl)-2,4-dioxopyrimidin-1-yl]oxolan-2-yl]methyl dihydrogen phosphate
> <PUBCHEM_IUPAC_SYSTEMATIC_NAME>
[(2R,3S,5S)-5-[5-(hydroxymethyl)-2,4-bis(oxidanylidene)pyrimidin-1-yl]-3-oxidanyl-oxolan-2-yl]methyl dihydrogen phosphate
> <PUBCHEM_IUPAC_TRADITIONAL_NAME>
[(2R,3S,5S)-5-(2,4-diketo-5-methylol-pyrimidin-1-yl)-3-hydroxy-tetrahydrofuran-2-yl]methyl dihydrogen phosphate
> <PUBCHEM_IUPAC_INCHI>
InChI=1S/C10H15N2O9P/c13-3-5-2-12(10(16)11-9(5)15)8-1-6(14)7(21-8)4-20-22(17,18)19/h2,6-8,13-14H,1,3-4H2,(H,11,15,16)(H2,17,18,19)/t6-,7+,8-/m0/s1
> <PUBCHEM_IUPAC_INCHIKEY>
WEBVWKFGRVLCNS-RNJXMRFFSA-N
> <PUBCHEM_XLOGP3>
-3.5
> <PUBCHEM_EXACT_MASS>
338.05151706
> <PUBCHEM_MOLECULAR_FORMULA>
C10H15N2O9P
> <PUBCHEM_MOLECULAR_WEIGHT>
338.21
> <PUBCHEM_OPENEYE_CAN_SMILES>
C1C(C(OC1N2C=C(C(=O)NC2=O)CO)COP(=O)(O)O)O
> <PUBCHEM_OPENEYE_ISO_SMILES>
C1[C@@H]([C@H](O[C@@H]1N2C=C(C(=O)NC2=O)CO)COP(=O)(O)O)O
> <PUBCHEM_CACTVS_TPSA>
166
> <PUBCHEM_MONOISOTOPIC_WEIGHT>
338.05151706
> <PUBCHEM_TOTAL_CHARGE>
0
> <PUBCHEM_HEAVY_ATOM_COUNT>
22
> <PUBCHEM_ATOM_DEF_STEREO_COUNT>
3
> <PUBCHEM_ATOM_UDEF_STEREO_COUNT>
0
> <PUBCHEM_BOND_DEF_STEREO_COUNT>
0
> <PUBCHEM_BOND_UDEF_STEREO_COUNT>
0
> <PUBCHEM_ISOTOPIC_ATOM_COUNT>
0
> <PUBCHEM_COMPONENT_COUNT>
1
> <PUBCHEM_CACTVS_TAUTO_COUNT>
-1
> <PUBCHEM_COORDINATE_TYPE>
1
5
255
> <PUBCHEM_BONDANNOTATIONS>
15  11  5
11  18  8
11  19  8
12  19  8
12  21  8
14  17  6
18  20  8
20  21  8
13  3  5
$$$$
