502285
  -OEChem-10302200282D
 85 85  0     1  0  0  0  0  0999 V2000
    6.8671   -5.1900    0.0000 O   0  0  0  0  0  0  0  0  0  0  0  0
    7.7331   -2.6900    0.0000 O   0  0  0  0  0  0  0  0  0  0  0  0
    8.5991   -5.1900    0.0000 O   0  0  0  0  0  0  0  0  0  0  0  0
   10.3312   -4.1900    0.0000 O   0  0  0  0  0  0  0  0  0  0  0  0
    4.2690   -2.6900    0.0000 O   0  0  0  0  0  0  0  0  0  0  0  0
    5.1350   -7.1900    0.0000 O   0  0  0  0  0  0  0  0  0  0  0  0
    6.8671   -7.1900    0.0000 O   0  0  0  0  0  0  0  0  0  0  0  0
    6.0010   -2.6900    0.0000 N   0  0  0  0  0  0  0  0  0  0  0  0
    4.2690   -3.6900    0.0000 N   0  0  0  0  0  0  0  0  0  0  0  0
    2.5369   -3.6900    0.0000 N   0  0  0  0  0  0  0  0  0  0  0  0
    3.4030   -5.1900    0.0000 N   0  0  0  0  0  0  0  0  0  0  0  0
    6.8671   -4.1900    0.0000 C   0  0  2  0  0  0  0  0  0  0  0  0
    6.0010   -3.6900    0.0000 C   0  0  1  0  0  0  0  0  0  0  0  0
    7.7331   -3.6900    0.0000 C   0  0  1  0  0  0  0  0  0  0  0  0
    5.1350   -4.1900    0.0000 C   0  0  2  0  0  0  0  0  0  0  0  0
    8.5991   -4.1900    0.0000 C   0  0  1  0  0  0  0  0  0  0  0  0
    5.1350   -5.1900    0.0000 C   0  0  0  0  0  0  0  0  0  0  0  0
    6.0010   -5.6900    0.0000 C   0  0  0  0  0  0  0  0  0  0  0  0
    8.5991   -2.1900    0.0000 C   0  0  0  0  0  0  0  0  0  0  0  0
    9.4651   -3.6900    0.0000 C   0  0  0  0  0  0  0  0  0  0  0  0
    8.5991   -1.1900    0.0000 C   0  0  0  0  0  0  0  0  0  0  0  0
    9.4651   -0.6900    0.0000 C   0  0  0  0  0  0  0  0  0  0  0  0
    9.4651    0.3100    0.0000 C   0  0  0  0  0  0  0  0  0  0  0  0
   10.3312    0.8100    0.0000 C   0  0  0  0  0  0  0  0  0  0  0  0
   10.3312    1.8100    0.0000 C   0  0  0  0  0  0  0  0  0  0  0  0
   11.1972    2.3100    0.0000 C   0  0  0  0  0  0  0  0  0  0  0  0
    5.1350   -2.1900    0.0000 C   0  0  0  0  0  0  0  0  0  0  0  0
   11.1972    3.3100    0.0000 C   0  0  0  0  0  0  0  0  0  0  0  0
   12.0632    3.8100    0.0000 C   0  0  0  0  0  0  0  0  0  0  0  0
    6.0010   -6.6900    0.0000 C   0  0  0  0  0  0  0  0  0  0  0  0
   12.0632    4.8100    0.0000 C   0  0  0  0  0  0  0  0  0  0  0  0
   12.9292    5.3100    0.0000 C   0  0  0  0  0  0  0  0  0  0  0  0
    3.4030   -4.1900    0.0000 C   0  0  0  0  0  0  0  0  0  0  0  0
    5.1350   -1.1900    0.0000 C   0  0  0  0  0  0  0  0  0  0  0  0
   12.9292    6.3100    0.0000 C   0  0  0  0  0  0  0  0  0  0  0  0
   13.7953    6.8100    0.0000 C   0  0  0  0  0  0  0  0  0  0  0  0
   13.7953    7.8100    0.0000 C   0  0  0  0  0  0  0  0  0  0  0  0
    7.6032   -4.6150    0.0000 H   0  0  0  0  0  0  0  0  0  0  0  0
    6.5380   -3.3800    0.0000 H   0  0  0  0  0  0  0  0  0  0  0  0
    8.2700   -3.3800    0.0000 H   0  0  0  0  0  0  0  0  0  0  0  0
    5.1350   -3.5700    0.0000 H   0  0  0  0  0  0  0  0  0  0  0  0
    8.0622   -4.5000    0.0000 H   0  0  0  0  0  0  0  0  0  0  0  0
    6.5380   -2.3800    0.0000 H   0  0  0  0  0  0  0  0  0  0  0  0
    4.5981   -5.5000    0.0000 H   0  0  0  0  0  0  0  0  0  0  0  0
    8.8112   -2.7726    0.0000 H   0  0  0  0  0  0  0  0  0  0  0  0
    9.2097   -2.0823    0.0000 H   0  0  0  0  0  0  0  0  0  0  0  0
    8.3871   -0.6074    0.0000 H   0  0  0  0  0  0  0  0  0  0  0  0
    7.9885   -1.2977    0.0000 H   0  0  0  0  0  0  0  0  0  0  0  0
    9.8637   -3.2151    0.0000 H   0  0  0  0  0  0  0  0  0  0  0  0
    9.0666   -3.2151    0.0000 H   0  0  0  0  0  0  0  0  0  0  0  0
    9.6772   -1.2726    0.0000 H   0  0  0  0  0  0  0  0  0  0  0  0
   10.0757   -0.5823    0.0000 H   0  0  0  0  0  0  0  0  0  0  0  0
    9.2531    0.8926    0.0000 H   0  0  0  0  0  0  0  0  0  0  0  0
    8.8546    0.2023    0.0000 H   0  0  0  0  0  0  0  0  0  0  0  0
   10.5432    0.2274    0.0000 H   0  0  0  0  0  0  0  0  0  0  0  0
   10.9417    0.9177    0.0000 H   0  0  0  0  0  0  0  0  0  0  0  0
   10.1191    2.3926    0.0000 H   0  0  0  0  0  0  0  0  0  0  0  0
    9.7206    1.7023    0.0000 H   0  0  0  0  0  0  0  0  0  0  0  0
   11.4092    1.7274    0.0000 H   0  0  0  0  0  0  0  0  0  0  0  0
   11.8078    2.4177    0.0000 H   0  0  0  0  0  0  0  0  0  0  0  0
   10.9851    3.8926    0.0000 H   0  0  0  0  0  0  0  0  0  0  0  0
   10.5866    3.2023    0.0000 H   0  0  0  0  0  0  0  0  0  0  0  0
    9.1360   -5.5000    0.0000 H   0  0  0  0  0  0  0  0  0  0  0  0
   12.2753    3.2274    0.0000 H   0  0  0  0  0  0  0  0  0  0  0  0
   12.6738    3.9177    0.0000 H   0  0  0  0  0  0  0  0  0  0  0  0
   11.8512    5.3926    0.0000 H   0  0  0  0  0  0  0  0  0  0  0  0
   11.4526    4.7023    0.0000 H   0  0  0  0  0  0  0  0  0  0  0  0
   13.1413    4.7274    0.0000 H   0  0  0  0  0  0  0  0  0  0  0  0
   13.5398    5.4177    0.0000 H   0  0  0  0  0  0  0  0  0  0  0  0
   10.8681   -3.8800    0.0000 H   0  0  0  0  0  0  0  0  0  0  0  0
    5.7550   -1.1900    0.0000 H   0  0  0  0  0  0  0  0  0  0  0  0
    5.1350   -0.5700    0.0000 H   0  0  0  0  0  0  0  0  0  0  0  0
    4.5150   -1.1900    0.0000 H   0  0  0  0  0  0  0  0  0  0  0  0
   12.7172    6.8926    0.0000 H   0  0  0  0  0  0  0  0  0  0  0  0
   12.3187    6.2023    0.0000 H   0  0  0  0  0  0  0  0  0  0  0  0
   14.0073    6.2274    0.0000 H   0  0  0  0  0  0  0  0  0  0  0  0
   14.4058    6.9177    0.0000 H   0  0  0  0  0  0  0  0  0  0  0  0
    5.1350   -7.8100    0.0000 H   0  0  0  0  0  0  0  0  0  0  0  0
    2.0000   -4.0000    0.0000 H   0  0  0  0  0  0  0  0  0  0  0  0
    2.5369   -3.0700    0.0000 H   0  0  0  0  0  0  0  0  0  0  0  0
    2.8660   -5.5000    0.0000 H   0  0  0  0  0  0  0  0  0  0  0  0
    3.9399   -5.5000    0.0000 H   0  0  0  0  0  0  0  0  0  0  0  0
   14.4153    7.8100    0.0000 H   0  0  0  0  0  0  0  0  0  0  0  0
   13.7953    8.4300    0.0000 H   0  0  0  0  0  0  0  0  0  0  0  0
   13.1753    7.8100    0.0000 H   0  0  0  0  0  0  0  0  0  0  0  0
  1 12  1  0  0  0  0
  1 18  1  0  0  0  0
 14  2  1  6  0  0  0
  2 19  1  0  0  0  0
 16  3  1  1  0  0  0
  3 63  1  0  0  0  0
  4 20  1  0  0  0  0
  4 70  1  0  0  0  0
  5 27  2  0  0  0  0
  6 30  1  0  0  0  0
  6 78  1  0  0  0  0
  7 30  2  0  0  0  0
 13  8  1  1  0  0  0
  8 27  1  0  0  0  0
  8 43  1  0  0  0  0
 15  9  1  6  0  0  0
  9 33  2  0  0  0  0
 10 33  1  0  0  0  0
 10 79  1  0  0  0  0
 10 80  1  0  0  0  0
 11 33  1  0  0  0  0
 11 81  1  0  0  0  0
 11 82  1  0  0  0  0
 12 13  1  0  0  0  0
 12 14  1  0  0  0  0
 12 38  1  1  0  0  0
 13 15  1  0  0  0  0
 13 39  1  0  0  0  0
 14 16  1  0  0  0  0
 14 40  1  0  0  0  0
 15 17  1  0  0  0  0
 15 41  1  0  0  0  0
 16 20  1  0  0  0  0
 16 42  1  0  0  0  0
 17 18  2  0  0  0  0
 17 44  1  0  0  0  0
 18 30  1  0  0  0  0
 19 21  1  0  0  0  0
 19 45  1  0  0  0  0
 19 46  1  0  0  0  0
 20 49  1  0  0  0  0
 20 50  1  0  0  0  0
 21 22  1  0  0  0  0
 21 47  1  0  0  0  0
 21 48  1  0  0  0  0
 22 23  1  0  0  0  0
 22 51  1  0  0  0  0
 22 52  1  0  0  0  0
 23 24  1  0  0  0  0
 23 53  1  0  0  0  0
 23 54  1  0  0  0  0
 24 25  1  0  0  0  0
 24 55  1  0  0  0  0
 24 56  1  0  0  0  0
 25 26  1  0  0  0  0
 25 57  1  0  0  0  0
 25 58  1  0  0  0  0
 26 28  1  0  0  0  0
 26 59  1  0  0  0  0
 26 60  1  0  0  0  0
 27 34  1  0  0  0  0
 28 29  1  0  0  0  0
 28 61  1  0  0  0  0
 28 62  1  0  0  0  0
 29 31  1  0  0  0  0
 29 64  1  0  0  0  0
 29 65  1  0  0  0  0
 31 32  1  0  0  0  0
 31 66  1  0  0  0  0
 31 67  1  0  0  0  0
 32 35  1  0  0  0  0
 32 68  1  0  0  0  0
 32 69  1  0  0  0  0
 34 71  1  0  0  0  0
 34 72  1  0  0  0  0
 34 73  1  0  0  0  0
 35 36  1  0  0  0  0
 35 74  1  0  0  0  0
 35 75  1  0  0  0  0
 36 37  1  0  0  0  0
 36 76  1  0  0  0  0
 36 77  1  0  0  0  0
 37 83  1  0  0  0  0
 37 84  1  0  0  0  0
 37 85  1  0  0  0  0
M  END
> <PUBCHEM_COMPOUND_CID>
502285
> <PUBCHEM_COMPOUND_CANONICALIZED>
1
> <PUBCHEM_CACTVS_COMPLEXITY>
728
> <PUBCHEM_CACTVS_HBOND_ACCEPTOR>
8
> <PUBCHEM_CACTVS_HBOND_DONOR>
6
> <PUBCHEM_CACTVS_ROTATABLE_BOND>
20
> <PUBCHEM_CACTVS_SUBSKEYS>
AAADcfB7uAAAAAAAAAAAAAAAAAAAAAAAAAAgAAAAAAAAAAAAAAAAHgAQCAAACDzhgAYDCALABgCoACHSPAKACAEgIAAACIBIAEgDVAIAgAQXUAAHlgCbEYPw0KMAAAAAAAAAAAAAAAAAAAAAAAAAAAAAAA==
> <PUBCHEM_IUPAC_OPENEYE_NAME>
(2R,3R,4S)-3-acetamido-2-[(1R,2R)-2,3-dihydroxy-1-tetradecoxy-propyl]-4-guanidino-3,4-dihydro-2H-pyran-6-carboxylic acid
> <PUBCHEM_IUPAC_CAS_NAME>
(2R,3R,4S)-3-acetamido-4-(diaminomethylideneamino)-2-[(1R,2R)-2,3-dihydroxy-1-tetradecoxypropyl]-3,4-dihydro-2H-pyran-6-carboxylic acid
> <PUBCHEM_IUPAC_NAME_MARKUP>
(2<I>R</I>,3<I>R</I>,4<I>S</I>)-3-acetamido-4-(diaminomethylideneamino)-2-[(1<I>R</I>,2<I>R</I>)-2,3-dihydroxy-1-tetradecoxypropyl]-3,4-dihydro-2<I>H</I>-pyran-6-carboxylic acid
> <PUBCHEM_IUPAC_NAME>
(2R,3R,4S)-3-acetamido-4-(diaminomethylideneamino)-2-[(1R,2R)-2,3-dihydroxy-1-tetradecoxypropyl]-3,4-dihydro-2H-pyran-6-carboxylic acid
> <PUBCHEM_IUPAC_SYSTEMATIC_NAME>
(2R,3R,4S)-3-acetamido-4-[bis(azanyl)methylideneamino]-2-[(1R,2R)-2,3-bis(oxidanyl)-1-tetradecoxy-propyl]-3,4-dihydro-2H-pyran-6-carboxylic acid
> <PUBCHEM_IUPAC_TRADITIONAL_NAME>
(2R,3R,4S)-3-acetamido-2-[(1R,2R)-2,3-dihydroxy-1-myristyloxy-propyl]-4-guanidino-3,4-dihydro-2H-pyran-6-carboxylic acid
> <PUBCHEM_IUPAC_INCHI>
InChI=1S/C26H48N4O7/c1-3-4-5-6-7-8-9-10-11-12-13-14-15-36-23(20(33)17-31)24-22(29-18(2)32)19(30-26(27)28)16-21(37-24)25(34)35/h16,19-20,22-24,31,33H,3-15,17H2,1-2H3,(H,29,32)(H,34,35)(H4,27,28,30)/t19-,20+,22+,23+,24+/m0/s1
> <PUBCHEM_IUPAC_INCHIKEY>
DDFCPTNFBHYDMA-DGWCAWEPSA-N
> <PUBCHEM_XLOGP3_AA>
3.5
> <PUBCHEM_EXACT_MASS>
528.35229988
> <PUBCHEM_MOLECULAR_FORMULA>
C26H48N4O7
> <PUBCHEM_MOLECULAR_WEIGHT>
528.7
> <PUBCHEM_OPENEYE_CAN_SMILES>
CCCCCCCCCCCCCCOC(C1C(C(C=C(O1)C(=O)O)N=C(N)N)NC(=O)C)C(CO)O
> <PUBCHEM_OPENEYE_ISO_SMILES>
CCCCCCCCCCCCCCO[C@@H]([C@H]1[C@@H]([C@H](C=C(O1)C(=O)O)N=C(N)N)NC(=O)C)[C@@H](CO)O
> <PUBCHEM_CACTVS_TPSA>
190
> <PUBCHEM_MONOISOTOPIC_WEIGHT>
528.35229988
> <PUBCHEM_TOTAL_CHARGE>
0
> <PUBCHEM_HEAVY_ATOM_COUNT>
37
> <PUBCHEM_ATOM_DEF_STEREO_COUNT>
5
> <PUBCHEM_ATOM_UDEF_STEREO_COUNT>
0
> <PUBCHEM_BOND_DEF_STEREO_COUNT>
0
> <PUBCHEM_BOND_UDEF_STEREO_COUNT>
0
> <PUBCHEM_ISOTOPIC_ATOM_COUNT>
0
> <PUBCHEM_COMPONENT_COUNT>
1
> <PUBCHEM_CACTVS_TAUTO_COUNT>
-1
> <PUBCHEM_COORDINATE_TYPE>
1
5
255
> <PUBCHEM_BONDANNOTATIONS>
12  38  5
14  2  6
16  3  5
13  8  5
15  9  6
$$$$
