502278
  -OEChem-10302200282D
 91 91  0     1  0  0  0  0  0999 V2000
   10.6603    5.1900    0.0000 O   0  0  0  0  0  0  0  0  0  0  0  0
   11.5263    3.6900    0.0000 O   0  0  0  0  0  0  0  0  0  0  0  0
   11.5263    1.6900    0.0000 O   0  0  0  0  0  0  0  0  0  0  0  0
    9.7942    1.6900    0.0000 O   0  0  0  0  0  0  0  0  0  0  0  0
    7.1962    6.1900    0.0000 O   0  0  0  0  0  0  0  0  0  0  0  0
   11.5263    7.6900    0.0000 O   0  0  0  0  0  0  0  0  0  0  0  0
   12.3923    6.1900    0.0000 O   0  0  0  0  0  0  0  0  0  0  0  0
    8.9282    3.1900    0.0000 N   0  0  0  0  0  0  0  0  0  0  0  0
    8.0622    4.6900    0.0000 N   0  0  0  0  0  0  0  0  0  0  0  0
    8.0622    6.6900    0.0000 N   0  0  0  0  0  0  0  0  0  0  0  0
    7.1962    8.1900    0.0000 N   0  0  0  0  0  0  0  0  0  0  0  0
    8.9282    8.1900    0.0000 N   0  0  0  0  0  0  0  0  0  0  0  0
    9.7942    4.6900    0.0000 C   0  0  2  0  0  0  0  0  0  0  0  0
    8.9282    5.1900    0.0000 C   0  0  1  0  0  0  0  0  0  0  0  0
    9.7942    3.6900    0.0000 C   0  0  1  0  0  0  0  0  0  0  0  0
    8.9282    6.1900    0.0000 C   0  0  2  0  0  0  0  0  0  0  0  0
   10.6603    3.1900    0.0000 C   0  0  1  0  0  0  0  0  0  0  0  0
    9.7942    6.6900    0.0000 C   0  0  0  0  0  0  0  0  0  0  0  0
   10.6603    6.1900    0.0000 C   0  0  0  0  0  0  0  0  0  0  0  0
   10.6603    2.1900    0.0000 C   0  0  0  0  0  0  0  0  0  0  0  0
    8.9282    2.1900    0.0000 C   0  0  0  0  0  0  0  0  0  0  0  0
    8.0622    1.6900    0.0000 C   0  0  0  0  0  0  0  0  0  0  0  0
    8.0622    0.6900    0.0000 C   0  0  0  0  0  0  0  0  0  0  0  0
    7.1962    0.1900    0.0000 C   0  0  0  0  0  0  0  0  0  0  0  0
    7.1962   -0.8100    0.0000 C   0  0  0  0  0  0  0  0  0  0  0  0
    7.1962    5.1900    0.0000 C   0  0  0  0  0  0  0  0  0  0  0  0
    6.3301   -1.3100    0.0000 C   0  0  0  0  0  0  0  0  0  0  0  0
    6.3301   -2.3100    0.0000 C   0  0  0  0  0  0  0  0  0  0  0  0
    5.4641   -2.8100    0.0000 C   0  0  0  0  0  0  0  0  0  0  0  0
    5.4641   -3.8100    0.0000 C   0  0  0  0  0  0  0  0  0  0  0  0
    4.5981   -4.3100    0.0000 C   0  0  0  0  0  0  0  0  0  0  0  0
   11.5263    6.6900    0.0000 C   0  0  0  0  0  0  0  0  0  0  0  0
    4.5981   -5.3100    0.0000 C   0  0  0  0  0  0  0  0  0  0  0  0
    8.0622    7.6900    0.0000 C   0  0  0  0  0  0  0  0  0  0  0  0
    3.7320   -5.8100    0.0000 C   0  0  0  0  0  0  0  0  0  0  0  0
    6.3301    4.6900    0.0000 C   0  0  0  0  0  0  0  0  0  0  0  0
    3.7320   -6.8100    0.0000 C   0  0  0  0  0  0  0  0  0  0  0  0
    2.8660   -7.3100    0.0000 C   0  0  0  0  0  0  0  0  0  0  0  0
    2.8660   -8.3100    0.0000 C   0  0  0  0  0  0  0  0  0  0  0  0
    2.0000   -8.8100    0.0000 C   0  0  0  0  0  0  0  0  0  0  0  0
   10.5304    4.2650    0.0000 H   0  0  0  0  0  0  0  0  0  0  0  0
    8.9282    4.5700    0.0000 H   0  0  0  0  0  0  0  0  0  0  0  0
    9.2573    4.0000    0.0000 H   0  0  0  0  0  0  0  0  0  0  0  0
    8.9282    6.8100    0.0000 H   0  0  0  0  0  0  0  0  0  0  0  0
   11.1972    2.8800    0.0000 H   0  0  0  0  0  0  0  0  0  0  0  0
    8.3913    3.5000    0.0000 H   0  0  0  0  0  0  0  0  0  0  0  0
    8.0622    4.0700    0.0000 H   0  0  0  0  0  0  0  0  0  0  0  0
    9.7942    7.3100    0.0000 H   0  0  0  0  0  0  0  0  0  0  0  0
   10.0497    2.2977    0.0000 H   0  0  0  0  0  0  0  0  0  0  0  0
   10.4482    1.6074    0.0000 H   0  0  0  0  0  0  0  0  0  0  0  0
    7.8501    2.2726    0.0000 H   0  0  0  0  0  0  0  0  0  0  0  0
    7.4516    1.5823    0.0000 H   0  0  0  0  0  0  0  0  0  0  0  0
    8.2742    0.1074    0.0000 H   0  0  0  0  0  0  0  0  0  0  0  0
    8.6728    0.7977    0.0000 H   0  0  0  0  0  0  0  0  0  0  0  0
    6.9841    0.7726    0.0000 H   0  0  0  0  0  0  0  0  0  0  0  0
    6.5856    0.0823    0.0000 H   0  0  0  0  0  0  0  0  0  0  0  0
    7.4082   -1.3926    0.0000 H   0  0  0  0  0  0  0  0  0  0  0  0
    7.8067   -0.7023    0.0000 H   0  0  0  0  0  0  0  0  0  0  0  0
   12.0632    3.3800    0.0000 H   0  0  0  0  0  0  0  0  0  0  0  0
    6.1181   -0.7274    0.0000 H   0  0  0  0  0  0  0  0  0  0  0  0
    5.7196   -1.4177    0.0000 H   0  0  0  0  0  0  0  0  0  0  0  0
    6.5422   -2.8926    0.0000 H   0  0  0  0  0  0  0  0  0  0  0  0
    6.9407   -2.2023    0.0000 H   0  0  0  0  0  0  0  0  0  0  0  0
    5.2520   -2.2274    0.0000 H   0  0  0  0  0  0  0  0  0  0  0  0
    4.8535   -2.9177    0.0000 H   0  0  0  0  0  0  0  0  0  0  0  0
    5.6762   -4.3926    0.0000 H   0  0  0  0  0  0  0  0  0  0  0  0
    6.0747   -3.7023    0.0000 H   0  0  0  0  0  0  0  0  0  0  0  0
    4.3860   -3.7274    0.0000 H   0  0  0  0  0  0  0  0  0  0  0  0
    3.9875   -4.4177    0.0000 H   0  0  0  0  0  0  0  0  0  0  0  0
    4.8101   -5.8926    0.0000 H   0  0  0  0  0  0  0  0  0  0  0  0
    5.2087   -5.2023    0.0000 H   0  0  0  0  0  0  0  0  0  0  0  0
    3.5200   -5.2274    0.0000 H   0  0  0  0  0  0  0  0  0  0  0  0
    3.1215   -5.9177    0.0000 H   0  0  0  0  0  0  0  0  0  0  0  0
   11.5263    1.0700    0.0000 H   0  0  0  0  0  0  0  0  0  0  0  0
    6.0201    5.2269    0.0000 H   0  0  0  0  0  0  0  0  0  0  0  0
    5.7932    4.3800    0.0000 H   0  0  0  0  0  0  0  0  0  0  0  0
    6.6401    4.1531    0.0000 H   0  0  0  0  0  0  0  0  0  0  0  0
    3.9441   -7.3926    0.0000 H   0  0  0  0  0  0  0  0  0  0  0  0
    4.3426   -6.7023    0.0000 H   0  0  0  0  0  0  0  0  0  0  0  0
    2.6540   -6.7274    0.0000 H   0  0  0  0  0  0  0  0  0  0  0  0
    2.2554   -7.4177    0.0000 H   0  0  0  0  0  0  0  0  0  0  0  0
    3.0781   -8.8926    0.0000 H   0  0  0  0  0  0  0  0  0  0  0  0
    3.4766   -8.2023    0.0000 H   0  0  0  0  0  0  0  0  0  0  0  0
   12.0632    8.0000    0.0000 H   0  0  0  0  0  0  0  0  0  0  0  0
    7.1962    8.8100    0.0000 H   0  0  0  0  0  0  0  0  0  0  0  0
    6.6592    7.8800    0.0000 H   0  0  0  0  0  0  0  0  0  0  0  0
    8.9282    8.8100    0.0000 H   0  0  0  0  0  0  0  0  0  0  0  0
    9.4651    7.8800    0.0000 H   0  0  0  0  0  0  0  0  0  0  0  0
    1.6900   -8.2731    0.0000 H   0  0  0  0  0  0  0  0  0  0  0  0
    1.4631   -9.1200    0.0000 H   0  0  0  0  0  0  0  0  0  0  0  0
    2.3100   -9.3469    0.0000 H   0  0  0  0  0  0  0  0  0  0  0  0
  1 13  1  0  0  0  0
  1 19  1  0  0  0  0
 17  2  1  6  0  0  0
  2 59  1  0  0  0  0
  3 20  1  0  0  0  0
  3 74  1  0  0  0  0
  4 21  2  0  0  0  0
  5 26  2  0  0  0  0
  6 32  1  0  0  0  0
  6 84  1  0  0  0  0
  7 32  2  0  0  0  0
 15  8  1  1  0  0  0
  8 21  1  0  0  0  0
  8 46  1  0  0  0  0
 14  9  1  6  0  0  0
  9 26  1  0  0  0  0
  9 47  1  0  0  0  0
 16 10  1  1  0  0  0
 10 34  2  0  0  0  0
 11 34  1  0  0  0  0
 11 85  1  0  0  0  0
 11 86  1  0  0  0  0
 12 34  1  0  0  0  0
 12 87  1  0  0  0  0
 12 88  1  0  0  0  0
 13 14  1  0  0  0  0
 13 15  1  0  0  0  0
 13 41  1  6  0  0  0
 14 16  1  0  0  0  0
 14 42  1  0  0  0  0
 15 17  1  0  0  0  0
 15 43  1  0  0  0  0
 16 18  1  0  0  0  0
 16 44  1  0  0  0  0
 17 20  1  0  0  0  0
 17 45  1  0  0  0  0
 18 19  2  0  0  0  0
 18 48  1  0  0  0  0
 19 32  1  0  0  0  0
 20 49  1  0  0  0  0
 20 50  1  0  0  0  0
 21 22  1  0  0  0  0
 22 23  1  0  0  0  0
 22 51  1  0  0  0  0
 22 52  1  0  0  0  0
 23 24  1  0  0  0  0
 23 53  1  0  0  0  0
 23 54  1  0  0  0  0
 24 25  1  0  0  0  0
 24 55  1  0  0  0  0
 24 56  1  0  0  0  0
 25 27  1  0  0  0  0
 25 57  1  0  0  0  0
 25 58  1  0  0  0  0
 26 36  1  0  0  0  0
 27 28  1  0  0  0  0
 27 60  1  0  0  0  0
 27 61  1  0  0  0  0
 28 29  1  0  0  0  0
 28 62  1  0  0  0  0
 28 63  1  0  0  0  0
 29 30  1  0  0  0  0
 29 64  1  0  0  0  0
 29 65  1  0  0  0  0
 30 31  1  0  0  0  0
 30 66  1  0  0  0  0
 30 67  1  0  0  0  0
 31 33  1  0  0  0  0
 31 68  1  0  0  0  0
 31 69  1  0  0  0  0
 33 35  1  0  0  0  0
 33 70  1  0  0  0  0
 33 71  1  0  0  0  0
 35 37  1  0  0  0  0
 35 72  1  0  0  0  0
 35 73  1  0  0  0  0
 36 75  1  0  0  0  0
 36 76  1  0  0  0  0
 36 77  1  0  0  0  0
 37 38  1  0  0  0  0
 37 78  1  0  0  0  0
 37 79  1  0  0  0  0
 38 39  1  0  0  0  0
 38 80  1  0  0  0  0
 38 81  1  0  0  0  0
 39 40  1  0  0  0  0
 39 82  1  0  0  0  0
 39 83  1  0  0  0  0
 40 89  1  0  0  0  0
 40 90  1  0  0  0  0
 40 91  1  0  0  0  0
M  END
> <PUBCHEM_COMPOUND_CID>
502278
> <PUBCHEM_COMPOUND_CANONICALIZED>
1
> <PUBCHEM_CACTVS_COMPLEXITY>
832
> <PUBCHEM_CACTVS_HBOND_ACCEPTOR>
8
> <PUBCHEM_CACTVS_HBOND_DONOR>
7
> <PUBCHEM_CACTVS_ROTATABLE_BOND>
21
> <PUBCHEM_CACTVS_SUBSKEYS>
AAADcfB7uAAAAAAAAAAAAAAAAAAAAAAAAAAgAAAAAAAAAAAAAAAAHgAQCAAACDzhgAYDCALABgCoACHSPAKACAEgIAAACIFIAEgDVBIAwAQXUAAHlgCbEYP42KOAAAAAAAAAAAAAAAAAAAAAAAAAAAAAAA==
> <PUBCHEM_IUPAC_OPENEYE_NAME>
(2R,3R,4S)-3-acetamido-4-guanidino-2-[(1R,2S)-1-(hexadecanoylamino)-2,3-dihydroxy-propyl]-3,4-dihydro-2H-pyran-6-carboxylic acid
> <PUBCHEM_IUPAC_CAS_NAME>
(2R,3R,4S)-3-acetamido-4-(diaminomethylideneamino)-2-[(1R,2S)-2,3-dihydroxy-1-(1-oxohexadecylamino)propyl]-3,4-dihydro-2H-pyran-6-carboxylic acid
> <PUBCHEM_IUPAC_NAME_MARKUP>
(2<I>R</I>,3<I>R</I>,4<I>S</I>)-3-acetamido-4-(diaminomethylideneamino)-2-[(1<I>R</I>,2<I>S</I>)-1-(hexadecanoylamino)-2,3-dihydroxypropyl]-3,4-dihydro-2<I>H</I>-pyran-6-carboxylic acid
> <PUBCHEM_IUPAC_NAME>
(2R,3R,4S)-3-acetamido-4-(diaminomethylideneamino)-2-[(1R,2S)-1-(hexadecanoylamino)-2,3-dihydroxypropyl]-3,4-dihydro-2H-pyran-6-carboxylic acid
> <PUBCHEM_IUPAC_SYSTEMATIC_NAME>
(2R,3R,4S)-3-acetamido-4-[bis(azanyl)methylideneamino]-2-[(1R,2S)-1-(hexadecanoylamino)-2,3-bis(oxidanyl)propyl]-3,4-dihydro-2H-pyran-6-carboxylic acid
> <PUBCHEM_IUPAC_TRADITIONAL_NAME>
(2R,3R,4S)-3-acetamido-2-[(1R,2S)-2,3-dihydroxy-1-palmitamido-propyl]-4-guanidino-3,4-dihydro-2H-pyran-6-carboxylic acid
> <PUBCHEM_IUPAC_INCHI>
InChI=1S/C28H51N5O7/c1-3-4-5-6-7-8-9-10-11-12-13-14-15-16-23(37)33-25(21(36)18-34)26-24(31-19(2)35)20(32-28(29)30)17-22(40-26)27(38)39/h17,20-21,24-26,34,36H,3-16,18H2,1-2H3,(H,31,35)(H,33,37)(H,38,39)(H4,29,30,32)/t20-,21+,24+,25+,26+/m0/s1
> <PUBCHEM_IUPAC_INCHIKEY>
OBSYYCIJDVZXFK-TYFVSSEGSA-N
> <PUBCHEM_XLOGP3_AA>
3.6
> <PUBCHEM_EXACT_MASS>
569.37884898
> <PUBCHEM_MOLECULAR_FORMULA>
C28H51N5O7
> <PUBCHEM_MOLECULAR_WEIGHT>
569.7
> <PUBCHEM_OPENEYE_CAN_SMILES>
CCCCCCCCCCCCCCCC(=O)NC(C1C(C(C=C(O1)C(=O)O)N=C(N)N)NC(=O)C)C(CO)O
> <PUBCHEM_OPENEYE_ISO_SMILES>
CCCCCCCCCCCCCCCC(=O)N[C@@H]([C@H]1[C@@H]([C@H](C=C(O1)C(=O)O)N=C(N)N)NC(=O)C)[C@@H](CO)O
> <PUBCHEM_CACTVS_TPSA>
210
> <PUBCHEM_MONOISOTOPIC_WEIGHT>
569.37884898
> <PUBCHEM_TOTAL_CHARGE>
0
> <PUBCHEM_HEAVY_ATOM_COUNT>
40
> <PUBCHEM_ATOM_DEF_STEREO_COUNT>
5
> <PUBCHEM_ATOM_UDEF_STEREO_COUNT>
0
> <PUBCHEM_BOND_DEF_STEREO_COUNT>
0
> <PUBCHEM_BOND_UDEF_STEREO_COUNT>
0
> <PUBCHEM_ISOTOPIC_ATOM_COUNT>
0
> <PUBCHEM_COMPONENT_COUNT>
1
> <PUBCHEM_CACTVS_TAUTO_COUNT>
-1
> <PUBCHEM_COORDINATE_TYPE>
1
5
255
> <PUBCHEM_BONDANNOTATIONS>
16  10  5
13  41  6
17  2  6
15  8  5
14  9  6
$$$$
