502259
  -OEChem-10302200282D
 75 78  0     1  0  0  0  0  0999 V2000
    5.8301    7.1471    0.0000 F   0  0  0  0  0  0  0  0  0  0  0  0
    7.1962    6.7811    0.0000 F   0  0  0  0  0  0  0  0  0  0  0  0
    5.4641    5.7811    0.0000 F   0  0  0  0  0  0  0  0  0  0  0  0
    3.7320   -7.1471    0.0000 F   0  0  0  0  0  0  0  0  0  0  0  0
    2.7320   -6.1471    0.0000 F   0  0  0  0  0  0  0  0  0  0  0  0
    4.7320   -6.1471    0.0000 F   0  0  0  0  0  0  0  0  0  0  0  0
    2.8660   -1.6471    0.0000 O   0  0  0  0  0  0  0  0  0  0  0  0
    6.8301    0.2189    0.0000 N   0  0  3  0  0  0  0  0  0  0  0  0
    7.8301    1.9510    0.0000 N   0  0  3  0  0  0  0  0  0  0  0  0
    4.5981   -1.6471    0.0000 N   0  0  0  0  0  0  0  0  0  0  0  0
    2.8660   -4.6471    0.0000 N   0  0  0  0  0  0  0  0  0  0  0  0
    4.5981   -4.6471    0.0000 N   0  0  0  0  0  0  0  0  0  0  0  0
    6.3301   -0.6471    0.0000 C   0  0  0  0  0  0  0  0  0  0  0  0
    5.4641   -0.1471    0.0000 C   0  0  0  0  0  0  0  0  0  0  0  0
    6.3301   -1.6471    0.0000 C   0  0  0  0  0  0  0  0  0  0  0  0
    7.8301    0.2189    0.0000 C   0  0  0  0  0  0  0  0  0  0  0  0
    8.3301    1.0849    0.0000 C   0  0  2  0  0  0  0  0  0  0  0  0
    6.3301    1.0849    0.0000 C   0  0  0  0  0  0  0  0  0  0  0  0
    6.8301    1.9510    0.0000 C   0  0  0  0  0  0  0  0  0  0  0  0
    4.5981   -0.6471    0.0000 C   0  0  0  0  0  0  0  0  0  0  0  0
    5.4641   -2.1471    0.0000 C   0  0  0  0  0  0  0  0  0  0  0  0
    7.3301   -0.6471    0.0000 C   0  0  0  0  0  0  0  0  0  0  0  0
    8.3301    2.8170    0.0000 C   0  0  2  0  0  0  0  0  0  0  0  0
    9.3301    1.0849    0.0000 C   0  0  0  0  0  0  0  0  0  0  0  0
    3.7320   -2.1471    0.0000 C   0  0  0  0  0  0  0  0  0  0  0  0
    7.8301    3.6830    0.0000 C   0  0  0  0  0  0  0  0  0  0  0  0
    9.3301    2.8170    0.0000 C   0  0  0  0  0  0  0  0  0  0  0  0
    3.7320   -3.1471    0.0000 C   0  0  0  0  0  0  0  0  0  0  0  0
    6.8301    3.6830    0.0000 C   0  0  0  0  0  0  0  0  0  0  0  0
    8.3301    4.5490    0.0000 C   0  0  0  0  0  0  0  0  0  0  0  0
    2.8660   -3.6471    0.0000 C   0  0  0  0  0  0  0  0  0  0  0  0
    4.5981   -3.6471    0.0000 C   0  0  0  0  0  0  0  0  0  0  0  0
    6.3301    4.5490    0.0000 C   0  0  0  0  0  0  0  0  0  0  0  0
    7.8301    5.4151    0.0000 C   0  0  0  0  0  0  0  0  0  0  0  0
    6.8301    5.4151    0.0000 C   0  0  0  0  0  0  0  0  0  0  0  0
    2.0000   -3.1471    0.0000 C   0  0  0  0  0  0  0  0  0  0  0  0
    5.4641   -3.1471    0.0000 C   0  0  0  0  0  0  0  0  0  0  0  0
    6.3301    6.2811    0.0000 C   0  0  0  0  0  0  0  0  0  0  0  0
    3.7320   -5.1471    0.0000 C   0  0  0  0  0  0  0  0  0  0  0  0
    3.7320   -6.1471    0.0000 C   0  0  0  0  0  0  0  0  0  0  0  0
    5.8626    0.3278    0.0000 H   0  0  0  0  0  0  0  0  0  0  0  0
    5.0656    0.3278    0.0000 H   0  0  0  0  0  0  0  0  0  0  0  0
    6.5422   -2.2297    0.0000 H   0  0  0  0  0  0  0  0  0  0  0  0
    6.9407   -1.5394    0.0000 H   0  0  0  0  0  0  0  0  0  0  0  0
    7.7225   -0.3917    0.0000 H   0  0  0  0  0  0  0  0  0  0  0  0
    8.4127    0.0069    0.0000 H   0  0  0  0  0  0  0  0  0  0  0  0
    8.6401    1.6219    0.0000 H   0  0  0  0  0  0  0  0  0  0  0  0
    5.8552    1.4835    0.0000 H   0  0  0  0  0  0  0  0  0  0  0  0
    5.8552    0.6864    0.0000 H   0  0  0  0  0  0  0  0  0  0  0  0
    6.9378    2.5615    0.0000 H   0  0  0  0  0  0  0  0  0  0  0  0
    6.2475    2.1630    0.0000 H   0  0  0  0  0  0  0  0  0  0  0  0
    4.3860   -0.0645    0.0000 H   0  0  0  0  0  0  0  0  0  0  0  0
    3.9875   -0.7548    0.0000 H   0  0  0  0  0  0  0  0  0  0  0  0
    5.0656   -2.6221    0.0000 H   0  0  0  0  0  0  0  0  0  0  0  0
    5.8626   -2.6221    0.0000 H   0  0  0  0  0  0  0  0  0  0  0  0
    7.3301   -1.2671    0.0000 H   0  0  0  0  0  0  0  0  0  0  0  0
    7.9501   -0.6471    0.0000 H   0  0  0  0  0  0  0  0  0  0  0  0
    7.3301   -0.0271    0.0000 H   0  0  0  0  0  0  0  0  0  0  0  0
    8.6401    2.2800    0.0000 H   0  0  0  0  0  0  0  0  0  0  0  0
    9.3301    0.4649    0.0000 H   0  0  0  0  0  0  0  0  0  0  0  0
    9.9501    1.0849    0.0000 H   0  0  0  0  0  0  0  0  0  0  0  0
    9.3301    1.7049    0.0000 H   0  0  0  0  0  0  0  0  0  0  0  0
    9.3301    2.1970    0.0000 H   0  0  0  0  0  0  0  0  0  0  0  0
    9.9501    2.8170    0.0000 H   0  0  0  0  0  0  0  0  0  0  0  0
    9.3301    3.4370    0.0000 H   0  0  0  0  0  0  0  0  0  0  0  0
    6.5201    3.1461    0.0000 H   0  0  0  0  0  0  0  0  0  0  0  0
    8.9501    4.5490    0.0000 H   0  0  0  0  0  0  0  0  0  0  0  0
    5.7101    4.5490    0.0000 H   0  0  0  0  0  0  0  0  0  0  0  0
    8.1401    5.9520    0.0000 H   0  0  0  0  0  0  0  0  0  0  0  0
    2.3100   -2.6102    0.0000 H   0  0  0  0  0  0  0  0  0  0  0  0
    1.4631   -2.8371    0.0000 H   0  0  0  0  0  0  0  0  0  0  0  0
    1.6900   -3.6840    0.0000 H   0  0  0  0  0  0  0  0  0  0  0  0
    5.7741   -3.6840    0.0000 H   0  0  0  0  0  0  0  0  0  0  0  0
    6.0010   -2.8371    0.0000 H   0  0  0  0  0  0  0  0  0  0  0  0
    5.1541   -2.6102    0.0000 H   0  0  0  0  0  0  0  0  0  0  0  0
  1 38  1  0  0  0  0
  2 38  1  0  0  0  0
  3 38  1  0  0  0  0
  4 40  1  0  0  0  0
  5 40  1  0  0  0  0
  6 40  1  0  0  0  0
  7 25  2  0  0  0  0
  8 13  1  0  0  0  0
  8 16  1  0  0  0  0
  8 18  1  0  0  0  0
  9 17  1  0  0  0  0
  9 19  1  0  0  0  0
  9 23  1  0  0  0  0
 10 20  1  0  0  0  0
 10 21  1  0  0  0  0
 10 25  1  0  0  0  0
 11 31  2  0  0  0  0
 11 39  1  0  0  0  0
 12 32  1  0  0  0  0
 12 39  2  0  0  0  0
 13 14  1  0  0  0  0
 13 15  1  0  0  0  0
 13 22  1  0  0  0  0
 14 20  1  0  0  0  0
 14 41  1  0  0  0  0
 14 42  1  0  0  0  0
 15 21  1  0  0  0  0
 15 43  1  0  0  0  0
 15 44  1  0  0  0  0
 16 17  1  0  0  0  0
 16 45  1  0  0  0  0
 16 46  1  0  0  0  0
 17 24  1  1  0  0  0
 17 47  1  0  0  0  0
 18 19  1  0  0  0  0
 18 48  1  0  0  0  0
 18 49  1  0  0  0  0
 19 50  1  0  0  0  0
 19 51  1  0  0  0  0
 20 52  1  0  0  0  0
 20 53  1  0  0  0  0
 21 54  1  0  0  0  0
 21 55  1  0  0  0  0
 22 56  1  0  0  0  0
 22 57  1  0  0  0  0
 22 58  1  0  0  0  0
 23 26  1  0  0  0  0
 23 27  1  6  0  0  0
 23 59  1  0  0  0  0
 24 60  1  0  0  0  0
 24 61  1  0  0  0  0
 24 62  1  0  0  0  0
 25 28  1  0  0  0  0
 26 29  2  0  0  0  0
 26 30  1  0  0  0  0
 27 63  1  0  0  0  0
 27 64  1  0  0  0  0
 27 65  1  0  0  0  0
 28 31  1  0  0  0  0
 28 32  2  0  0  0  0
 29 33  1  0  0  0  0
 29 66  1  0  0  0  0
 30 34  2  0  0  0  0
 30 67  1  0  0  0  0
 31 36  1  0  0  0  0
 32 37  1  0  0  0  0
 33 35  2  0  0  0  0
 33 68  1  0  0  0  0
 34 35  1  0  0  0  0
 34 69  1  0  0  0  0
 35 38  1  0  0  0  0
 36 70  1  0  0  0  0
 36 71  1  0  0  0  0
 36 72  1  0  0  0  0
 37 73  1  0  0  0  0
 37 74  1  0  0  0  0
 37 75  1  0  0  0  0
 39 40  1  0  0  0  0
M  END
> <PUBCHEM_COMPOUND_CID>
502259
> <PUBCHEM_COMPOUND_CANONICALIZED>
1
> <PUBCHEM_CACTVS_COMPLEXITY>
856
> <PUBCHEM_CACTVS_HBOND_ACCEPTOR>
11
> <PUBCHEM_CACTVS_HBOND_DONOR>
0
> <PUBCHEM_CACTVS_ROTATABLE_BOND>
4
> <PUBCHEM_CACTVS_SUBSKEYS>
AAADcfB7ocAAAAAAAAAAAAAAAAAAAAAAAAA8WLEAAAAAAAABwAAAHwAAAAAADKjBnxQzkJcIEACoAydydACCgCklAKAJmCE4RNiIaDrA2dGUJYhohgLIyWcQgMAOQAAAAAAAAACAAAAAAAAAAAAAAAAAAA==
> <PUBCHEM_IUPAC_OPENEYE_NAME>
[4,6-dimethyl-2-(trifluoromethyl)pyrimidin-5-yl]-[4-methyl-4-[(3S)-3-methyl-4-[(1S)-1-[4-(trifluoromethyl)phenyl]ethyl]piperazin-1-yl]-1-piperidyl]methanone
> <PUBCHEM_IUPAC_CAS_NAME>
[4,6-dimethyl-2-(trifluoromethyl)-5-pyrimidinyl]-[4-methyl-4-[(3S)-3-methyl-4-[(1S)-1-[4-(trifluoromethyl)phenyl]ethyl]-1-piperazinyl]-1-piperidinyl]methanone
> <PUBCHEM_IUPAC_NAME_MARKUP>
[4,6-dimethyl-2-(trifluoromethyl)pyrimidin-5-yl]-[4-methyl-4-[(3<I>S</I>)-3-methyl-4-[(1<I>S</I>)-1-[4-(trifluoromethyl)phenyl]ethyl]piperazin-1-yl]piperidin-1-yl]methanone
> <PUBCHEM_IUPAC_NAME>
[4,6-dimethyl-2-(trifluoromethyl)pyrimidin-5-yl]-[4-methyl-4-[(3S)-3-methyl-4-[(1S)-1-[4-(trifluoromethyl)phenyl]ethyl]piperazin-1-yl]piperidin-1-yl]methanone
> <PUBCHEM_IUPAC_SYSTEMATIC_NAME>
[4,6-dimethyl-2-(trifluoromethyl)pyrimidin-5-yl]-[4-methyl-4-[(3S)-3-methyl-4-[(1S)-1-[4-(trifluoromethyl)phenyl]ethyl]piperazin-1-yl]piperidin-1-yl]methanone
> <PUBCHEM_IUPAC_TRADITIONAL_NAME>
[4,6-dimethyl-2-(trifluoromethyl)pyrimidin-5-yl]-[4-methyl-4-[(3S)-3-methyl-4-[(1S)-1-[4-(trifluoromethyl)phenyl]ethyl]piperazino]piperidino]methanone
> <PUBCHEM_IUPAC_INCHI>
InChI=1S/C28H35F6N5O/c1-17-16-38(14-15-39(17)20(4)21-6-8-22(9-7-21)27(29,30)31)26(5)10-12-37(13-11-26)24(40)23-18(2)35-25(28(32,33)34)36-19(23)3/h6-9,17,20H,10-16H2,1-5H3/t17-,20-/m0/s1
> <PUBCHEM_IUPAC_INCHIKEY>
KUOUHUKIBBTXEV-PXNSSMCTSA-N
> <PUBCHEM_XLOGP3_AA>
5.2
> <PUBCHEM_EXACT_MASS>
571.27457973
> <PUBCHEM_MOLECULAR_FORMULA>
C28H35F6N5O
> <PUBCHEM_MOLECULAR_WEIGHT>
571.6
> <PUBCHEM_OPENEYE_CAN_SMILES>
CC1CN(CCN1C(C)C2=CC=C(C=C2)C(F)(F)F)C3(CCN(CC3)C(=O)C4=C(N=C(N=C4C)C(F)(F)F)C)C
> <PUBCHEM_OPENEYE_ISO_SMILES>
C[C@H]1CN(CCN1[C@@H](C)C2=CC=C(C=C2)C(F)(F)F)C3(CCN(CC3)C(=O)C4=C(N=C(N=C4C)C(F)(F)F)C)C
> <PUBCHEM_CACTVS_TPSA>
52.6
> <PUBCHEM_MONOISOTOPIC_WEIGHT>
571.27457973
> <PUBCHEM_TOTAL_CHARGE>
0
> <PUBCHEM_HEAVY_ATOM_COUNT>
40
> <PUBCHEM_ATOM_DEF_STEREO_COUNT>
2
> <PUBCHEM_ATOM_UDEF_STEREO_COUNT>
0
> <PUBCHEM_BOND_DEF_STEREO_COUNT>
0
> <PUBCHEM_BOND_UDEF_STEREO_COUNT>
0
> <PUBCHEM_ISOTOPIC_ATOM_COUNT>
0
> <PUBCHEM_COMPONENT_COUNT>
1
> <PUBCHEM_CACTVS_TAUTO_COUNT>
-1
> <PUBCHEM_COORDINATE_TYPE>
1
5
255
> <PUBCHEM_BONDANNOTATIONS>
11  31  8
11  39  8
12  32  8
12  39  8
17  24  5
23  27  6
26  29  8
26  30  8
28  31  8
28  32  8
29  33  8
30  34  8
33  35  8
34  35  8
$$$$
