502204
  -OEChem-10302200282D
 39 42  0     1  0  0  0  0  0999 V2000
    2.0000   -2.9400    0.0000 O   0  0  0  0  0  0  0  0  0  0  0  0
    3.7320    3.0600    0.0000 O   0  0  0  0  0  0  0  0  0  0  0  0
    4.5981   -1.4400    0.0000 N   0  0  0  0  0  0  0  0  0  0  0  0
    3.7320   -2.9400    0.0000 N   0  0  0  0  0  0  0  0  0  0  0  0
    5.5443   -1.1353    0.0000 N   0  0  0  0  0  0  0  0  0  0  0  0
    5.5443   -2.7447    0.0000 N   0  0  0  0  0  0  0  0  0  0  0  0
    9.1279   -1.9400    0.0000 N   0  0  0  0  0  0  0  0  0  0  0  0
    3.7320   -0.9400    0.0000 C   0  0  3  0  0  0  0  0  0  0  0  0
    2.8660   -1.4400    0.0000 C   0  0  0  0  0  0  0  0  0  0  0  0
    3.7320    0.0600    0.0000 C   0  0  0  0  0  0  0  0  0  0  0  0
    4.5981   -2.4400    0.0000 C   0  0  0  0  0  0  0  0  0  0  0  0
    2.8660   -2.4400    0.0000 C   0  0  0  0  0  0  0  0  0  0  0  0
    2.8660    0.5600    0.0000 C   0  0  0  0  0  0  0  0  0  0  0  0
    4.5981    0.5600    0.0000 C   0  0  0  0  0  0  0  0  0  0  0  0
    6.1279   -1.9400    0.0000 C   0  0  0  0  0  0  0  0  0  0  0  0
    2.8660    1.5600    0.0000 C   0  0  0  0  0  0  0  0  0  0  0  0
    4.5981    1.5600    0.0000 C   0  0  0  0  0  0  0  0  0  0  0  0
    7.1279   -1.9400    0.0000 C   0  0  0  0  0  0  0  0  0  0  0  0
    3.7320    2.0600    0.0000 C   0  0  0  0  0  0  0  0  0  0  0  0
    7.6279   -1.0740    0.0000 C   0  0  0  0  0  0  0  0  0  0  0  0
    7.6279   -2.8060    0.0000 C   0  0  0  0  0  0  0  0  0  0  0  0
    8.6279   -1.0740    0.0000 C   0  0  0  0  0  0  0  0  0  0  0  0
    8.6279   -2.8060    0.0000 C   0  0  0  0  0  0  0  0  0  0  0  0
    2.8660    3.5600    0.0000 C   0  0  0  0  0  0  0  0  0  0  0  0
    3.1951   -0.6300    0.0000 H   0  0  0  0  0  0  0  0  0  0  0  0
    2.6540   -0.8574    0.0000 H   0  0  0  0  0  0  0  0  0  0  0  0
    2.2554   -1.5477    0.0000 H   0  0  0  0  0  0  0  0  0  0  0  0
    3.7320   -3.5600    0.0000 H   0  0  0  0  0  0  0  0  0  0  0  0
    2.3291    0.2500    0.0000 H   0  0  0  0  0  0  0  0  0  0  0  0
    5.1350    0.2500    0.0000 H   0  0  0  0  0  0  0  0  0  0  0  0
    2.3291    1.8700    0.0000 H   0  0  0  0  0  0  0  0  0  0  0  0
    5.1350    1.8700    0.0000 H   0  0  0  0  0  0  0  0  0  0  0  0
    7.3179   -0.5370    0.0000 H   0  0  0  0  0  0  0  0  0  0  0  0
    7.3179   -3.3430    0.0000 H   0  0  0  0  0  0  0  0  0  0  0  0
    8.9379   -0.5370    0.0000 H   0  0  0  0  0  0  0  0  0  0  0  0
    8.9379   -3.3430    0.0000 H   0  0  0  0  0  0  0  0  0  0  0  0
    3.1760    4.0969    0.0000 H   0  0  0  0  0  0  0  0  0  0  0  0
    2.3291    3.8700    0.0000 H   0  0  0  0  0  0  0  0  0  0  0  0
    2.5560    3.0231    0.0000 H   0  0  0  0  0  0  0  0  0  0  0  0
  1 12  2  0  0  0  0
  2 19  1  0  0  0  0
  2 24  1  0  0  0  0
  3  5  1  0  0  0  0
  3  8  1  0  0  0  0
  3 11  1  0  0  0  0
  4 11  1  0  0  0  0
  4 12  1  0  0  0  0
  4 28  1  0  0  0  0
  5 15  2  0  0  0  0
  6 11  2  0  0  0  0
  6 15  1  0  0  0  0
  7 22  2  0  0  0  0
  7 23  1  0  0  0  0
  8  9  1  0  0  0  0
  8 10  1  0  0  0  0
  8 25  1  0  0  0  0
  9 12  1  0  0  0  0
  9 26  1  0  0  0  0
  9 27  1  0  0  0  0
 10 13  2  0  0  0  0
 10 14  1  0  0  0  0
 13 16  1  0  0  0  0
 13 29  1  0  0  0  0
 14 17  2  0  0  0  0
 14 30  1  0  0  0  0
 15 18  1  0  0  0  0
 16 19  2  0  0  0  0
 16 31  1  0  0  0  0
 17 19  1  0  0  0  0
 17 32  1  0  0  0  0
 18 20  2  0  0  0  0
 18 21  1  0  0  0  0
 20 22  1  0  0  0  0
 20 33  1  0  0  0  0
 21 23  2  0  0  0  0
 21 34  1  0  0  0  0
 22 35  1  0  0  0  0
 23 36  1  0  0  0  0
 24 37  1  0  0  0  0
 24 38  1  0  0  0  0
 24 39  1  0  0  0  0
M  END
> <PUBCHEM_COMPOUND_CID>
502204
> <PUBCHEM_COMPOUND_CANONICALIZED>
1
> <PUBCHEM_CACTVS_COMPLEXITY>
448
> <PUBCHEM_CACTVS_HBOND_ACCEPTOR>
5
> <PUBCHEM_CACTVS_HBOND_DONOR>
1
> <PUBCHEM_CACTVS_ROTATABLE_BOND>
3
> <PUBCHEM_CACTVS_SUBSKEYS>
AAADccB7sAAAAAAAAAAAAAAAAAAAAWAAAAA8WIAAAAAAAFgB8AAAHgAYAAAADCzBmwY/lpbIFACqAjN3dACSiCsxoqAd2CE+bJiMLvrE+ZuEMCh82RPI6AeY2KOOIAAAAAAAAABAAAAAAAAAAAAAAAAAAA==
> <PUBCHEM_IUPAC_OPENEYE_NAME>
7-(4-methoxyphenyl)-2-(4-pyridyl)-6,7-dihydro-4H-[1,2,4]triazolo[1,5-a]pyrimidin-5-one
> <PUBCHEM_IUPAC_CAS_NAME>
7-(4-methoxyphenyl)-2-pyridin-4-yl-6,7-dihydro-4H-[1,2,4]triazolo[1,5-a]pyrimidin-5-one
> <PUBCHEM_IUPAC_NAME_MARKUP>
7-(4-methoxyphenyl)-2-pyridin-4-yl-6,7-dihydro-4<I>H</I>-[1,2,4]triazolo[1,5-a]pyrimidin-5-one
> <PUBCHEM_IUPAC_NAME>
7-(4-methoxyphenyl)-2-pyridin-4-yl-6,7-dihydro-4H-[1,2,4]triazolo[1,5-a]pyrimidin-5-one
> <PUBCHEM_IUPAC_SYSTEMATIC_NAME>
7-(4-methoxyphenyl)-2-pyridin-4-yl-6,7-dihydro-4H-[1,2,4]triazolo[1,5-a]pyrimidin-5-one
> <PUBCHEM_IUPAC_TRADITIONAL_NAME>
7-(4-methoxyphenyl)-2-(4-pyridyl)-6,7-dihydro-4H-[1,2,4]triazolo[1,5-a]pyrimidin-5-one
> <PUBCHEM_IUPAC_INCHI>
InChI=1S/C17H15N5O2/c1-24-13-4-2-11(3-5-13)14-10-15(23)19-17-20-16(21-22(14)17)12-6-8-18-9-7-12/h2-9,14H,10H2,1H3,(H,19,20,21,23)
> <PUBCHEM_IUPAC_INCHIKEY>
ARDAOJYSYJHUDI-UHFFFAOYSA-N
> <PUBCHEM_XLOGP3_AA>
1.4
> <PUBCHEM_EXACT_MASS>
321.12257474
> <PUBCHEM_MOLECULAR_FORMULA>
C17H15N5O2
> <PUBCHEM_MOLECULAR_WEIGHT>
321.33
> <PUBCHEM_OPENEYE_CAN_SMILES>
COC1=CC=C(C=C1)C2CC(=O)NC3=NC(=NN23)C4=CC=NC=C4
> <PUBCHEM_OPENEYE_ISO_SMILES>
COC1=CC=C(C=C1)C2CC(=O)NC3=NC(=NN23)C4=CC=NC=C4
> <PUBCHEM_CACTVS_TPSA>
81.9
> <PUBCHEM_MONOISOTOPIC_WEIGHT>
321.12257474
> <PUBCHEM_TOTAL_CHARGE>
0
> <PUBCHEM_HEAVY_ATOM_COUNT>
24
> <PUBCHEM_ATOM_DEF_STEREO_COUNT>
0
> <PUBCHEM_ATOM_UDEF_STEREO_COUNT>
1
> <PUBCHEM_BOND_DEF_STEREO_COUNT>
0
> <PUBCHEM_BOND_UDEF_STEREO_COUNT>
0
> <PUBCHEM_ISOTOPIC_ATOM_COUNT>
0
> <PUBCHEM_COMPONENT_COUNT>
1
> <PUBCHEM_CACTVS_TAUTO_COUNT>
-1
> <PUBCHEM_COORDINATE_TYPE>
1
5
255
> <PUBCHEM_BONDANNOTATIONS>
10  13  8
10  14  8
13  16  8
14  17  8
16  19  8
17  19  8
18  20  8
18  21  8
20  22  8
21  23  8
3  11  8
3  5  8
5  15  8
6  11  8
6  15  8
7  22  8
7  23  8
8  10  3
$$$$
