502602
  -OEChem-10302200282D
 47 49  0     1  0  0  0  0  0999 V2000
    8.0622   -1.8450    0.0000 O   0  0  0  0  0  0  0  0  0  0  0  0
    6.3301    1.1550    0.0000 O   0  0  0  0  0  0  0  0  0  0  0  0
    8.0622    2.1550    0.0000 O   0  0  0  0  0  0  0  0  0  0  0  0
    3.7320   -0.3450    0.0000 C   0  0  0  0  0  0  0  0  0  0  0  0
    3.7320    0.6550    0.0000 C   0  0  0  0  0  0  0  0  0  0  0  0
    2.8660   -0.8450    0.0000 C   0  0  0  0  0  0  0  0  0  0  0  0
    4.5981   -0.8450    0.0000 C   0  0  0  0  0  0  0  0  0  0  0  0
    2.8660    1.1550    0.0000 C   0  0  0  0  0  0  0  0  0  0  0  0
    2.0000   -0.3450    0.0000 C   0  0  0  0  0  0  0  0  0  0  0  0
    5.4641   -0.3450    0.0000 C   0  0  3  0  0  0  0  0  0  0  0  0
    2.0000    0.6550    0.0000 C   0  0  0  0  0  0  0  0  0  0  0  0
    6.3301   -0.8450    0.0000 C   0  0  0  0  0  0  0  0  0  0  0  0
    5.4641    0.6550    0.0000 C   0  0  0  0  0  0  0  0  0  0  0  0
    7.1962   -0.3450    0.0000 C   0  0  0  0  0  0  0  0  0  0  0  0
    8.0622   -0.8450    0.0000 C   0  0  0  0  0  0  0  0  0  0  0  0
    7.1962    0.6550    0.0000 C   0  0  0  0  0  0  0  0  0  0  0  0
    8.9282   -0.3450    0.0000 C   0  0  0  0  0  0  0  0  0  0  0  0
    8.9282    0.6550    0.0000 C   0  0  0  0  0  0  0  0  0  0  0  0
    8.0622    1.1550    0.0000 C   0  0  0  0  0  0  0  0  0  0  0  0
    9.8222   -0.8797    0.0000 C   0  0  0  0  0  0  0  0  0  0  0  0
    9.8222    1.1897    0.0000 C   0  0  0  0  0  0  0  0  0  0  0  0
   10.7282   -0.3658    0.0000 C   0  0  0  0  0  0  0  0  0  0  0  0
   10.7282    0.6758    0.0000 C   0  0  0  0  0  0  0  0  0  0  0  0
    3.7320   -0.9650    0.0000 H   0  0  0  0  0  0  0  0  0  0  0  0
    4.3426    0.5473    0.0000 H   0  0  0  0  0  0  0  0  0  0  0  0
    3.9441    1.2376    0.0000 H   0  0  0  0  0  0  0  0  0  0  0  0
    2.4675   -1.3200    0.0000 H   0  0  0  0  0  0  0  0  0  0  0  0
    3.2646   -1.3200    0.0000 H   0  0  0  0  0  0  0  0  0  0  0  0
    4.1996   -1.3200    0.0000 H   0  0  0  0  0  0  0  0  0  0  0  0
    4.9966   -1.3200    0.0000 H   0  0  0  0  0  0  0  0  0  0  0  0
    3.2646    1.6300    0.0000 H   0  0  0  0  0  0  0  0  0  0  0  0
    2.4675    1.6300    0.0000 H   0  0  0  0  0  0  0  0  0  0  0  0
    1.3894   -0.2373    0.0000 H   0  0  0  0  0  0  0  0  0  0  0  0
    1.7880   -0.9276    0.0000 H   0  0  0  0  0  0  0  0  0  0  0  0
    6.0010   -0.0350    0.0000 H   0  0  0  0  0  0  0  0  0  0  0  0
    1.7880    1.2376    0.0000 H   0  0  0  0  0  0  0  0  0  0  0  0
    1.3894    0.5473    0.0000 H   0  0  0  0  0  0  0  0  0  0  0  0
    5.9316   -1.3200    0.0000 H   0  0  0  0  0  0  0  0  0  0  0  0
    6.7287   -1.3200    0.0000 H   0  0  0  0  0  0  0  0  0  0  0  0
    6.0841    0.6550    0.0000 H   0  0  0  0  0  0  0  0  0  0  0  0
    5.4641    1.2750    0.0000 H   0  0  0  0  0  0  0  0  0  0  0  0
    4.8441    0.6550    0.0000 H   0  0  0  0  0  0  0  0  0  0  0  0
    9.8150   -1.4996    0.0000 H   0  0  0  0  0  0  0  0  0  0  0  0
    9.8150    1.8096    0.0000 H   0  0  0  0  0  0  0  0  0  0  0  0
    7.5252   -2.1550    0.0000 H   0  0  0  0  0  0  0  0  0  0  0  0
   11.2639   -0.6779    0.0000 H   0  0  0  0  0  0  0  0  0  0  0  0
   11.2639    0.9879    0.0000 H   0  0  0  0  0  0  0  0  0  0  0  0
  1 15  1  0  0  0  0
  1 45  1  0  0  0  0
  2 16  2  0  0  0  0
  3 19  2  0  0  0  0
  4  5  1  0  0  0  0
  4  6  1  0  0  0  0
  4  7  1  0  0  0  0
  4 24  1  0  0  0  0
  5  8  1  0  0  0  0
  5 25  1  0  0  0  0
  5 26  1  0  0  0  0
  6  9  1  0  0  0  0
  6 27  1  0  0  0  0
  6 28  1  0  0  0  0
  7 10  1  0  0  0  0
  7 29  1  0  0  0  0
  7 30  1  0  0  0  0
  8 11  1  0  0  0  0
  8 31  1  0  0  0  0
  8 32  1  0  0  0  0
  9 11  1  0  0  0  0
  9 33  1  0  0  0  0
  9 34  1  0  0  0  0
 10 12  1  0  0  0  0
 10 13  1  0  0  0  0
 10 35  1  0  0  0  0
 11 36  1  0  0  0  0
 11 37  1  0  0  0  0
 12 14  1  0  0  0  0
 12 38  1  0  0  0  0
 12 39  1  0  0  0  0
 13 40  1  0  0  0  0
 13 41  1  0  0  0  0
 13 42  1  0  0  0  0
 14 15  2  0  0  0  0
 14 16  1  0  0  0  0
 15 17  1  0  0  0  0
 16 19  1  0  0  0  0
 17 18  1  0  0  0  0
 17 20  2  0  0  0  0
 18 19  1  0  0  0  0
 18 21  2  0  0  0  0
 20 22  1  0  0  0  0
 20 43  1  0  0  0  0
 21 23  1  0  0  0  0
 21 44  1  0  0  0  0
 22 23  2  0  0  0  0
 22 46  1  0  0  0  0
 23 47  1  0  0  0  0
M  END
> <PUBCHEM_COMPOUND_CID>
502602
> <PUBCHEM_COMPOUND_CANONICALIZED>
1
> <PUBCHEM_CACTVS_COMPLEXITY>
499
> <PUBCHEM_CACTVS_HBOND_ACCEPTOR>
3
> <PUBCHEM_CACTVS_HBOND_DONOR>
1
> <PUBCHEM_CACTVS_ROTATABLE_BOND>
4
> <PUBCHEM_CACTVS_SUBSKEYS>
AAADceB4MAAAAAAAAAAAAAAAAAAAAAAAAAAwYIAAAAAAAACBAAAAGgAACAAADQSAmAAyAIAAAgCIAqBSAAACAAAkIAAIiAEACMgIJjKAFRCAcQAkwAEImYeKzOCOgAAAAAAQAAAAAAAAACAAAAAAAAAAAA==
> <PUBCHEM_IUPAC_OPENEYE_NAME>
3-(3-cyclohexyl-2-methyl-propyl)-4-hydroxy-naphthalene-1,2-dione
> <PUBCHEM_IUPAC_CAS_NAME>
3-(3-cyclohexyl-2-methylpropyl)-4-hydroxynaphthalene-1,2-dione
> <PUBCHEM_IUPAC_NAME_MARKUP>
3-(3-cyclohexyl-2-methylpropyl)-4-hydroxynaphthalene-1,2-dione
> <PUBCHEM_IUPAC_NAME>
3-(3-cyclohexyl-2-methylpropyl)-4-hydroxynaphthalene-1,2-dione
> <PUBCHEM_IUPAC_SYSTEMATIC_NAME>
3-(3-cyclohexyl-2-methyl-propyl)-4-oxidanyl-naphthalene-1,2-dione
> <PUBCHEM_IUPAC_TRADITIONAL_NAME>
3-(3-cyclohexyl-2-methyl-propyl)-4-hydroxy-1,2-naphthoquinone
> <PUBCHEM_IUPAC_INCHI>
InChI=1S/C20H24O3/c1-13(11-14-7-3-2-4-8-14)12-17-18(21)15-9-5-6-10-16(15)19(22)20(17)23/h5-6,9-10,13-14,21H,2-4,7-8,11-12H2,1H3
> <PUBCHEM_IUPAC_INCHIKEY>
KSSNBOPWMUIBHZ-UHFFFAOYSA-N
> <PUBCHEM_XLOGP3_AA>
5.2
> <PUBCHEM_EXACT_MASS>
312.17254462
> <PUBCHEM_MOLECULAR_FORMULA>
C20H24O3
> <PUBCHEM_MOLECULAR_WEIGHT>
312.4
> <PUBCHEM_OPENEYE_CAN_SMILES>
CC(CC1CCCCC1)CC2=C(C3=CC=CC=C3C(=O)C2=O)O
> <PUBCHEM_OPENEYE_ISO_SMILES>
CC(CC1CCCCC1)CC2=C(C3=CC=CC=C3C(=O)C2=O)O
> <PUBCHEM_CACTVS_TPSA>
54.4
> <PUBCHEM_MONOISOTOPIC_WEIGHT>
312.17254462
> <PUBCHEM_TOTAL_CHARGE>
0
> <PUBCHEM_HEAVY_ATOM_COUNT>
23
> <PUBCHEM_ATOM_DEF_STEREO_COUNT>
0
> <PUBCHEM_ATOM_UDEF_STEREO_COUNT>
1
> <PUBCHEM_BOND_DEF_STEREO_COUNT>
0
> <PUBCHEM_BOND_UDEF_STEREO_COUNT>
0
> <PUBCHEM_ISOTOPIC_ATOM_COUNT>
0
> <PUBCHEM_COMPONENT_COUNT>
1
> <PUBCHEM_CACTVS_TAUTO_COUNT>
-1
> <PUBCHEM_COORDINATE_TYPE>
1
5
255
> <PUBCHEM_BONDANNOTATIONS>
10  13  3
17  18  8
17  20  8
18  21  8
20  22  8
21  23  8
22  23  8
$$$$
