502615
  -OEChem-10302200282D
 77 78  0     1  0  0  0  0  0999 V2000
    8.9282   -1.8450    0.0000 O   0  0  0  0  0  0  0  0  0  0  0  0
   19.3205   -1.8450    0.0000 O   0  0  0  0  0  0  0  0  0  0  0  0
   17.5885    1.1550    0.0000 O   0  0  0  0  0  0  0  0  0  0  0  0
   19.3205    2.1550    0.0000 O   0  0  0  0  0  0  0  0  0  0  0  0
    8.9282   -0.8450    0.0000 C   0  0  3  0  0  0  0  0  0  0  0  0
    9.7942   -0.3450    0.0000 C   0  0  0  0  0  0  0  0  0  0  0  0
   10.6603   -0.8450    0.0000 C   0  0  0  0  0  0  0  0  0  0  0  0
   11.5263   -0.3450    0.0000 C   0  0  0  0  0  0  0  0  0  0  0  0
    8.0622   -0.3450    0.0000 C   0  0  0  0  0  0  0  0  0  0  0  0
   12.3923   -0.8450    0.0000 C   0  0  0  0  0  0  0  0  0  0  0  0
   13.2583   -0.3450    0.0000 C   0  0  0  0  0  0  0  0  0  0  0  0
    7.1962   -0.8450    0.0000 C   0  0  0  0  0  0  0  0  0  0  0  0
   14.1244   -0.8450    0.0000 C   0  0  0  0  0  0  0  0  0  0  0  0
    6.3301   -0.3450    0.0000 C   0  0  0  0  0  0  0  0  0  0  0  0
   14.9904   -0.3450    0.0000 C   0  0  0  0  0  0  0  0  0  0  0  0
    5.4641   -0.8450    0.0000 C   0  0  0  0  0  0  0  0  0  0  0  0
   15.8564   -0.8450    0.0000 C   0  0  0  0  0  0  0  0  0  0  0  0
    4.5981   -0.3450    0.0000 C   0  0  0  0  0  0  0  0  0  0  0  0
   16.7224   -0.3450    0.0000 C   0  0  0  0  0  0  0  0  0  0  0  0
    3.7320   -0.8450    0.0000 C   0  0  0  0  0  0  0  0  0  0  0  0
   17.5885   -0.8450    0.0000 C   0  0  0  0  0  0  0  0  0  0  0  0
    2.8660   -0.3450    0.0000 C   0  0  0  0  0  0  0  0  0  0  0  0
   18.4545   -0.3450    0.0000 C   0  0  0  0  0  0  0  0  0  0  0  0
   19.3205   -0.8450    0.0000 C   0  0  0  0  0  0  0  0  0  0  0  0
   18.4545    0.6550    0.0000 C   0  0  0  0  0  0  0  0  0  0  0  0
    2.0000   -0.8450    0.0000 C   0  0  0  0  0  0  0  0  0  0  0  0
   20.1865   -0.3450    0.0000 C   0  0  0  0  0  0  0  0  0  0  0  0
   20.1865    0.6550    0.0000 C   0  0  0  0  0  0  0  0  0  0  0  0
   19.3205    1.1550    0.0000 C   0  0  0  0  0  0  0  0  0  0  0  0
   21.0805   -0.8797    0.0000 C   0  0  0  0  0  0  0  0  0  0  0  0
   21.0805    1.1897    0.0000 C   0  0  0  0  0  0  0  0  0  0  0  0
   21.9865   -0.3658    0.0000 C   0  0  0  0  0  0  0  0  0  0  0  0
   21.9865    0.6758    0.0000 C   0  0  0  0  0  0  0  0  0  0  0  0
    9.4651   -1.1550    0.0000 H   0  0  0  0  0  0  0  0  0  0  0  0
   10.1928    0.1299    0.0000 H   0  0  0  0  0  0  0  0  0  0  0  0
    9.3957    0.1299    0.0000 H   0  0  0  0  0  0  0  0  0  0  0  0
   10.2617   -1.3200    0.0000 H   0  0  0  0  0  0  0  0  0  0  0  0
   11.0588   -1.3200    0.0000 H   0  0  0  0  0  0  0  0  0  0  0  0
   11.9248    0.1299    0.0000 H   0  0  0  0  0  0  0  0  0  0  0  0
   11.1278    0.1299    0.0000 H   0  0  0  0  0  0  0  0  0  0  0  0
    8.4607    0.1299    0.0000 H   0  0  0  0  0  0  0  0  0  0  0  0
    7.6636    0.1299    0.0000 H   0  0  0  0  0  0  0  0  0  0  0  0
   11.9938   -1.3200    0.0000 H   0  0  0  0  0  0  0  0  0  0  0  0
   12.7908   -1.3200    0.0000 H   0  0  0  0  0  0  0  0  0  0  0  0
   13.6569    0.1299    0.0000 H   0  0  0  0  0  0  0  0  0  0  0  0
   12.8598    0.1299    0.0000 H   0  0  0  0  0  0  0  0  0  0  0  0
    6.7976   -1.3200    0.0000 H   0  0  0  0  0  0  0  0  0  0  0  0
    7.5947   -1.3200    0.0000 H   0  0  0  0  0  0  0  0  0  0  0  0
   13.7258   -1.3200    0.0000 H   0  0  0  0  0  0  0  0  0  0  0  0
   14.5229   -1.3200    0.0000 H   0  0  0  0  0  0  0  0  0  0  0  0
    6.7287    0.1299    0.0000 H   0  0  0  0  0  0  0  0  0  0  0  0
    5.9316    0.1299    0.0000 H   0  0  0  0  0  0  0  0  0  0  0  0
   15.3889    0.1299    0.0000 H   0  0  0  0  0  0  0  0  0  0  0  0
   14.5919    0.1299    0.0000 H   0  0  0  0  0  0  0  0  0  0  0  0
    5.0656   -1.3200    0.0000 H   0  0  0  0  0  0  0  0  0  0  0  0
    5.8626   -1.3200    0.0000 H   0  0  0  0  0  0  0  0  0  0  0  0
   15.4579   -1.3200    0.0000 H   0  0  0  0  0  0  0  0  0  0  0  0
   16.2549   -1.3200    0.0000 H   0  0  0  0  0  0  0  0  0  0  0  0
    4.9966    0.1299    0.0000 H   0  0  0  0  0  0  0  0  0  0  0  0
    4.1996    0.1299    0.0000 H   0  0  0  0  0  0  0  0  0  0  0  0
   17.1210    0.1299    0.0000 H   0  0  0  0  0  0  0  0  0  0  0  0
   16.3239    0.1299    0.0000 H   0  0  0  0  0  0  0  0  0  0  0  0
    3.3335   -1.3200    0.0000 H   0  0  0  0  0  0  0  0  0  0  0  0
    4.1306   -1.3200    0.0000 H   0  0  0  0  0  0  0  0  0  0  0  0
   17.1899   -1.3200    0.0000 H   0  0  0  0  0  0  0  0  0  0  0  0
   17.9870   -1.3200    0.0000 H   0  0  0  0  0  0  0  0  0  0  0  0
    8.3913   -2.1550    0.0000 H   0  0  0  0  0  0  0  0  0  0  0  0
    3.2646    0.1299    0.0000 H   0  0  0  0  0  0  0  0  0  0  0  0
    2.4675    0.1299    0.0000 H   0  0  0  0  0  0  0  0  0  0  0  0
    1.6900   -0.3081    0.0000 H   0  0  0  0  0  0  0  0  0  0  0  0
    1.4631   -1.1550    0.0000 H   0  0  0  0  0  0  0  0  0  0  0  0
    2.3100   -1.3819    0.0000 H   0  0  0  0  0  0  0  0  0  0  0  0
   21.0733   -1.4996    0.0000 H   0  0  0  0  0  0  0  0  0  0  0  0
   21.0733    1.8096    0.0000 H   0  0  0  0  0  0  0  0  0  0  0  0
   18.7836   -2.1550    0.0000 H   0  0  0  0  0  0  0  0  0  0  0  0
   22.5223   -0.6779    0.0000 H   0  0  0  0  0  0  0  0  0  0  0  0
   22.5223    0.9879    0.0000 H   0  0  0  0  0  0  0  0  0  0  0  0
  1  5  1  0  0  0  0
  1 67  1  0  0  0  0
  2 24  1  0  0  0  0
  2 75  1  0  0  0  0
  3 25  2  0  0  0  0
  4 29  2  0  0  0  0
  5  6  1  0  0  0  0
  5  9  1  0  0  0  0
  5 34  1  0  0  0  0
  6  7  1  0  0  0  0
  6 35  1  0  0  0  0
  6 36  1  0  0  0  0
  7  8  1  0  0  0  0
  7 37  1  0  0  0  0
  7 38  1  0  0  0  0
  8 10  1  0  0  0  0
  8 39  1  0  0  0  0
  8 40  1  0  0  0  0
  9 12  1  0  0  0  0
  9 41  1  0  0  0  0
  9 42  1  0  0  0  0
 10 11  1  0  0  0  0
 10 43  1  0  0  0  0
 10 44  1  0  0  0  0
 11 13  1  0  0  0  0
 11 45  1  0  0  0  0
 11 46  1  0  0  0  0
 12 14  1  0  0  0  0
 12 47  1  0  0  0  0
 12 48  1  0  0  0  0
 13 15  1  0  0  0  0
 13 49  1  0  0  0  0
 13 50  1  0  0  0  0
 14 16  1  0  0  0  0
 14 51  1  0  0  0  0
 14 52  1  0  0  0  0
 15 17  1  0  0  0  0
 15 53  1  0  0  0  0
 15 54  1  0  0  0  0
 16 18  1  0  0  0  0
 16 55  1  0  0  0  0
 16 56  1  0  0  0  0
 17 19  1  0  0  0  0
 17 57  1  0  0  0  0
 17 58  1  0  0  0  0
 18 20  1  0  0  0  0
 18 59  1  0  0  0  0
 18 60  1  0  0  0  0
 19 21  1  0  0  0  0
 19 61  1  0  0  0  0
 19 62  1  0  0  0  0
 20 22  1  0  0  0  0
 20 63  1  0  0  0  0
 20 64  1  0  0  0  0
 21 23  1  0  0  0  0
 21 65  1  0  0  0  0
 21 66  1  0  0  0  0
 22 26  1  0  0  0  0
 22 68  1  0  0  0  0
 22 69  1  0  0  0  0
 23 24  2  0  0  0  0
 23 25  1  0  0  0  0
 24 27  1  0  0  0  0
 25 29  1  0  0  0  0
 26 70  1  0  0  0  0
 26 71  1  0  0  0  0
 26 72  1  0  0  0  0
 27 28  1  0  0  0  0
 27 30  2  0  0  0  0
 28 29  1  0  0  0  0
 28 31  2  0  0  0  0
 30 32  1  0  0  0  0
 30 73  1  0  0  0  0
 31 33  1  0  0  0  0
 31 74  1  0  0  0  0
 32 33  2  0  0  0  0
 32 76  1  0  0  0  0
 33 77  1  0  0  0  0
M  END
> <PUBCHEM_COMPOUND_CID>
502615
> <PUBCHEM_COMPOUND_CANONICALIZED>
1
> <PUBCHEM_CACTVS_COMPLEXITY>
609
> <PUBCHEM_CACTVS_HBOND_ACCEPTOR>
4
> <PUBCHEM_CACTVS_HBOND_DONOR>
2
> <PUBCHEM_CACTVS_ROTATABLE_BOND>
18
> <PUBCHEM_CACTVS_SUBSKEYS>
AAADcfB4OAAAAAAAAAAAAAAAAAAAAAAAAAAwQAAAAAAAAACBAAAAGgAACAAADBSgmAIyAIAAAgCIAqBSAAACAAAkIAAIiAEACMgINjKAFRCAcQAkwAEImYeKzOCOgAAAAAAQAAAAAAAAACAAAAAAAAAAAA==
> <PUBCHEM_IUPAC_OPENEYE_NAME>
4-hydroxy-3-(11-hydroxynonadecyl)naphthalene-1,2-dione
> <PUBCHEM_IUPAC_CAS_NAME>
4-hydroxy-3-(11-hydroxynonadecyl)naphthalene-1,2-dione
> <PUBCHEM_IUPAC_NAME_MARKUP>
4-hydroxy-3-(11-hydroxynonadecyl)naphthalene-1,2-dione
> <PUBCHEM_IUPAC_NAME>
4-hydroxy-3-(11-hydroxynonadecyl)naphthalene-1,2-dione
> <PUBCHEM_IUPAC_SYSTEMATIC_NAME>
4-oxidanyl-3-(11-oxidanylnonadecyl)naphthalene-1,2-dione
> <PUBCHEM_IUPAC_TRADITIONAL_NAME>
4-hydroxy-3-(11-hydroxynonadecyl)-1,2-naphthoquinone
> <PUBCHEM_IUPAC_INCHI>
InChI=1S/C29H44O4/c1-2-3-4-5-10-13-18-23(30)19-14-11-8-6-7-9-12-15-22-26-27(31)24-20-16-17-21-25(24)28(32)29(26)33/h16-17,20-21,23,30-31H,2-15,18-19,22H2,1H3
> <PUBCHEM_IUPAC_INCHIKEY>
WJHMFLCJDPBMFS-UHFFFAOYSA-N
> <PUBCHEM_XLOGP3_AA>
9
> <PUBCHEM_EXACT_MASS>
456.32395988
> <PUBCHEM_MOLECULAR_FORMULA>
C29H44O4
> <PUBCHEM_MOLECULAR_WEIGHT>
456.7
> <PUBCHEM_OPENEYE_CAN_SMILES>
CCCCCCCCC(CCCCCCCCCCC1=C(C2=CC=CC=C2C(=O)C1=O)O)O
> <PUBCHEM_OPENEYE_ISO_SMILES>
CCCCCCCCC(CCCCCCCCCCC1=C(C2=CC=CC=C2C(=O)C1=O)O)O
> <PUBCHEM_CACTVS_TPSA>
74.6
> <PUBCHEM_MONOISOTOPIC_WEIGHT>
456.32395988
> <PUBCHEM_TOTAL_CHARGE>
0
> <PUBCHEM_HEAVY_ATOM_COUNT>
33
> <PUBCHEM_ATOM_DEF_STEREO_COUNT>
0
> <PUBCHEM_ATOM_UDEF_STEREO_COUNT>
1
> <PUBCHEM_BOND_DEF_STEREO_COUNT>
0
> <PUBCHEM_BOND_UDEF_STEREO_COUNT>
0
> <PUBCHEM_ISOTOPIC_ATOM_COUNT>
0
> <PUBCHEM_COMPONENT_COUNT>
1
> <PUBCHEM_CACTVS_TAUTO_COUNT>
-1
> <PUBCHEM_COORDINATE_TYPE>
1
5
255
> <PUBCHEM_BONDANNOTATIONS>
5  1  3
27  28  8
27  30  8
28  31  8
30  32  8
31  33  8
32  33  8
$$$$
