502614
  -OEChem-10302200282D
 68 69  0     1  0  0  0  0  0999 V2000
    8.9282    0.6550    0.0000 O   0  0  0  0  0  0  0  0  0  0  0  0
   16.7224   -1.8450    0.0000 O   0  0  0  0  0  0  0  0  0  0  0  0
   14.9904    1.1550    0.0000 O   0  0  0  0  0  0  0  0  0  0  0  0
   16.7224    2.1550    0.0000 O   0  0  0  0  0  0  0  0  0  0  0  0
    8.9282   -0.3450    0.0000 C   0  0  3  0  0  0  0  0  0  0  0  0
    9.7942   -0.8450    0.0000 C   0  0  0  0  0  0  0  0  0  0  0  0
    8.0622   -0.8450    0.0000 C   0  0  0  0  0  0  0  0  0  0  0  0
   10.6603   -0.3450    0.0000 C   0  0  0  0  0  0  0  0  0  0  0  0
    7.1962   -0.3450    0.0000 C   0  0  0  0  0  0  0  0  0  0  0  0
   11.5263   -0.8450    0.0000 C   0  0  0  0  0  0  0  0  0  0  0  0
    6.3301   -0.8450    0.0000 C   0  0  0  0  0  0  0  0  0  0  0  0
   12.3923   -0.3450    0.0000 C   0  0  0  0  0  0  0  0  0  0  0  0
   13.2583   -0.8450    0.0000 C   0  0  0  0  0  0  0  0  0  0  0  0
    5.4641   -0.3450    0.0000 C   0  0  0  0  0  0  0  0  0  0  0  0
   14.1244   -0.3450    0.0000 C   0  0  0  0  0  0  0  0  0  0  0  0
    4.5981   -0.8450    0.0000 C   0  0  0  0  0  0  0  0  0  0  0  0
   14.9904   -0.8450    0.0000 C   0  0  0  0  0  0  0  0  0  0  0  0
    3.7320   -0.3450    0.0000 C   0  0  0  0  0  0  0  0  0  0  0  0
   15.8564   -0.3450    0.0000 C   0  0  0  0  0  0  0  0  0  0  0  0
    2.8660   -0.8450    0.0000 C   0  0  0  0  0  0  0  0  0  0  0  0
   16.7224   -0.8450    0.0000 C   0  0  0  0  0  0  0  0  0  0  0  0
   15.8564    0.6550    0.0000 C   0  0  0  0  0  0  0  0  0  0  0  0
   17.5885   -0.3450    0.0000 C   0  0  0  0  0  0  0  0  0  0  0  0
    2.0000   -0.3450    0.0000 C   0  0  0  0  0  0  0  0  0  0  0  0
   17.5885    0.6550    0.0000 C   0  0  0  0  0  0  0  0  0  0  0  0
   16.7224    1.1550    0.0000 C   0  0  0  0  0  0  0  0  0  0  0  0
   18.4824   -0.8797    0.0000 C   0  0  0  0  0  0  0  0  0  0  0  0
   18.4824    1.1897    0.0000 C   0  0  0  0  0  0  0  0  0  0  0  0
   19.3885   -0.3658    0.0000 C   0  0  0  0  0  0  0  0  0  0  0  0
   19.3885    0.6758    0.0000 C   0  0  0  0  0  0  0  0  0  0  0  0
    9.4651   -0.0350    0.0000 H   0  0  0  0  0  0  0  0  0  0  0  0
    9.3957   -1.3200    0.0000 H   0  0  0  0  0  0  0  0  0  0  0  0
   10.1928   -1.3200    0.0000 H   0  0  0  0  0  0  0  0  0  0  0  0
    7.6636   -1.3200    0.0000 H   0  0  0  0  0  0  0  0  0  0  0  0
    8.4607   -1.3200    0.0000 H   0  0  0  0  0  0  0  0  0  0  0  0
   11.0588    0.1299    0.0000 H   0  0  0  0  0  0  0  0  0  0  0  0
   10.2617    0.1299    0.0000 H   0  0  0  0  0  0  0  0  0  0  0  0
    7.5947    0.1299    0.0000 H   0  0  0  0  0  0  0  0  0  0  0  0
    6.7976    0.1299    0.0000 H   0  0  0  0  0  0  0  0  0  0  0  0
   11.1278   -1.3200    0.0000 H   0  0  0  0  0  0  0  0  0  0  0  0
   11.9248   -1.3200    0.0000 H   0  0  0  0  0  0  0  0  0  0  0  0
    5.9316   -1.3200    0.0000 H   0  0  0  0  0  0  0  0  0  0  0  0
    6.7287   -1.3200    0.0000 H   0  0  0  0  0  0  0  0  0  0  0  0
   12.7908    0.1299    0.0000 H   0  0  0  0  0  0  0  0  0  0  0  0
   11.9938    0.1299    0.0000 H   0  0  0  0  0  0  0  0  0  0  0  0
   12.8598   -1.3200    0.0000 H   0  0  0  0  0  0  0  0  0  0  0  0
   13.6569   -1.3200    0.0000 H   0  0  0  0  0  0  0  0  0  0  0  0
    5.8626    0.1299    0.0000 H   0  0  0  0  0  0  0  0  0  0  0  0
    5.0656    0.1299    0.0000 H   0  0  0  0  0  0  0  0  0  0  0  0
   14.5229    0.1299    0.0000 H   0  0  0  0  0  0  0  0  0  0  0  0
   13.7258    0.1299    0.0000 H   0  0  0  0  0  0  0  0  0  0  0  0
    4.1996   -1.3200    0.0000 H   0  0  0  0  0  0  0  0  0  0  0  0
    4.9966   -1.3200    0.0000 H   0  0  0  0  0  0  0  0  0  0  0  0
   14.5919   -1.3200    0.0000 H   0  0  0  0  0  0  0  0  0  0  0  0
   15.3889   -1.3200    0.0000 H   0  0  0  0  0  0  0  0  0  0  0  0
    4.1306    0.1299    0.0000 H   0  0  0  0  0  0  0  0  0  0  0  0
    3.3335    0.1299    0.0000 H   0  0  0  0  0  0  0  0  0  0  0  0
    8.3913    0.9650    0.0000 H   0  0  0  0  0  0  0  0  0  0  0  0
    2.4675   -1.3200    0.0000 H   0  0  0  0  0  0  0  0  0  0  0  0
    3.2646   -1.3200    0.0000 H   0  0  0  0  0  0  0  0  0  0  0  0
    2.3100    0.1919    0.0000 H   0  0  0  0  0  0  0  0  0  0  0  0
    1.4631   -0.0350    0.0000 H   0  0  0  0  0  0  0  0  0  0  0  0
    1.6900   -0.8819    0.0000 H   0  0  0  0  0  0  0  0  0  0  0  0
   18.4752   -1.4996    0.0000 H   0  0  0  0  0  0  0  0  0  0  0  0
   18.4752    1.8096    0.0000 H   0  0  0  0  0  0  0  0  0  0  0  0
   16.1855   -2.1550    0.0000 H   0  0  0  0  0  0  0  0  0  0  0  0
   19.9242   -0.6779    0.0000 H   0  0  0  0  0  0  0  0  0  0  0  0
   19.9242    0.9879    0.0000 H   0  0  0  0  0  0  0  0  0  0  0  0
  1  5  1  0  0  0  0
  1 58  1  0  0  0  0
  2 21  1  0  0  0  0
  2 66  1  0  0  0  0
  3 22  2  0  0  0  0
  4 26  2  0  0  0  0
  5  6  1  0  0  0  0
  5  7  1  0  0  0  0
  5 31  1  0  0  0  0
  6  8  1  0  0  0  0
  6 32  1  0  0  0  0
  6 33  1  0  0  0  0
  7  9  1  0  0  0  0
  7 34  1  0  0  0  0
  7 35  1  0  0  0  0
  8 10  1  0  0  0  0
  8 36  1  0  0  0  0
  8 37  1  0  0  0  0
  9 11  1  0  0  0  0
  9 38  1  0  0  0  0
  9 39  1  0  0  0  0
 10 12  1  0  0  0  0
 10 40  1  0  0  0  0
 10 41  1  0  0  0  0
 11 14  1  0  0  0  0
 11 42  1  0  0  0  0
 11 43  1  0  0  0  0
 12 13  1  0  0  0  0
 12 44  1  0  0  0  0
 12 45  1  0  0  0  0
 13 15  1  0  0  0  0
 13 46  1  0  0  0  0
 13 47  1  0  0  0  0
 14 16  1  0  0  0  0
 14 48  1  0  0  0  0
 14 49  1  0  0  0  0
 15 17  1  0  0  0  0
 15 50  1  0  0  0  0
 15 51  1  0  0  0  0
 16 18  1  0  0  0  0
 16 52  1  0  0  0  0
 16 53  1  0  0  0  0
 17 19  1  0  0  0  0
 17 54  1  0  0  0  0
 17 55  1  0  0  0  0
 18 20  1  0  0  0  0
 18 56  1  0  0  0  0
 18 57  1  0  0  0  0
 19 21  2  0  0  0  0
 19 22  1  0  0  0  0
 20 24  1  0  0  0  0
 20 59  1  0  0  0  0
 20 60  1  0  0  0  0
 21 23  1  0  0  0  0
 22 26  1  0  0  0  0
 23 25  1  0  0  0  0
 23 27  2  0  0  0  0
 24 61  1  0  0  0  0
 24 62  1  0  0  0  0
 24 63  1  0  0  0  0
 25 26  1  0  0  0  0
 25 28  2  0  0  0  0
 27 29  1  0  0  0  0
 27 64  1  0  0  0  0
 28 30  1  0  0  0  0
 28 65  1  0  0  0  0
 29 30  2  0  0  0  0
 29 67  1  0  0  0  0
 30 68  1  0  0  0  0
M  END
> <PUBCHEM_COMPOUND_CID>
502614
> <PUBCHEM_COMPOUND_CANONICALIZED>
1
> <PUBCHEM_CACTVS_COMPLEXITY>
565
> <PUBCHEM_CACTVS_HBOND_ACCEPTOR>
4
> <PUBCHEM_CACTVS_HBOND_DONOR>
2
> <PUBCHEM_CACTVS_ROTATABLE_BOND>
15
> <PUBCHEM_CACTVS_SUBSKEYS>
AAADcfB4OAAAAAAAAAAAAAAAAAAAAAAAAAAwQAAAAAAAAACBAAAAGgAACAAADBSgmAIyAIAAAgCIAqBSAAACAAAkIAAIiAEACMgINjKAFRCAcQAkwAEImYeKzOCOgAAAAAAQAAAAAAAAACAAAAAAAAAAAA==
> <PUBCHEM_IUPAC_OPENEYE_NAME>
4-hydroxy-3-(8-hydroxyhexadecyl)naphthalene-1,2-dione
> <PUBCHEM_IUPAC_CAS_NAME>
4-hydroxy-3-(8-hydroxyhexadecyl)naphthalene-1,2-dione
> <PUBCHEM_IUPAC_NAME_MARKUP>
4-hydroxy-3-(8-hydroxyhexadecyl)naphthalene-1,2-dione
> <PUBCHEM_IUPAC_NAME>
4-hydroxy-3-(8-hydroxyhexadecyl)naphthalene-1,2-dione
> <PUBCHEM_IUPAC_SYSTEMATIC_NAME>
4-oxidanyl-3-(8-oxidanylhexadecyl)naphthalene-1,2-dione
> <PUBCHEM_IUPAC_TRADITIONAL_NAME>
4-hydroxy-3-(8-hydroxyhexadecyl)-1,2-naphthoquinone
> <PUBCHEM_IUPAC_INCHI>
InChI=1S/C26H38O4/c1-2-3-4-5-7-10-15-20(27)16-11-8-6-9-12-19-23-24(28)21-17-13-14-18-22(21)25(29)26(23)30/h13-14,17-18,20,27-28H,2-12,15-16,19H2,1H3
> <PUBCHEM_IUPAC_INCHIKEY>
APMWAIBNNLQVSR-UHFFFAOYSA-N
> <PUBCHEM_XLOGP3_AA>
7.3
> <PUBCHEM_EXACT_MASS>
414.27700969
> <PUBCHEM_MOLECULAR_FORMULA>
C26H38O4
> <PUBCHEM_MOLECULAR_WEIGHT>
414.6
> <PUBCHEM_OPENEYE_CAN_SMILES>
CCCCCCCCC(CCCCCCCC1=C(C2=CC=CC=C2C(=O)C1=O)O)O
> <PUBCHEM_OPENEYE_ISO_SMILES>
CCCCCCCCC(CCCCCCCC1=C(C2=CC=CC=C2C(=O)C1=O)O)O
> <PUBCHEM_CACTVS_TPSA>
74.6
> <PUBCHEM_MONOISOTOPIC_WEIGHT>
414.27700969
> <PUBCHEM_TOTAL_CHARGE>
0
> <PUBCHEM_HEAVY_ATOM_COUNT>
30
> <PUBCHEM_ATOM_DEF_STEREO_COUNT>
0
> <PUBCHEM_ATOM_UDEF_STEREO_COUNT>
1
> <PUBCHEM_BOND_DEF_STEREO_COUNT>
0
> <PUBCHEM_BOND_UDEF_STEREO_COUNT>
0
> <PUBCHEM_ISOTOPIC_ATOM_COUNT>
0
> <PUBCHEM_COMPONENT_COUNT>
1
> <PUBCHEM_CACTVS_TAUTO_COUNT>
-1
> <PUBCHEM_COORDINATE_TYPE>
1
5
255
> <PUBCHEM_BONDANNOTATIONS>
5  1  3
23  25  8
23  27  8
25  28  8
27  29  8
28  30  8
29  30  8
$$$$
