502975
  -OEChem-10302200282D
119120  0     1  0  0  0  0  0999 V2000
    4.2690   -0.3450    0.0000 O   0  0  0  0  0  0  0  0  0  0  0  0
    7.7331    0.6550    0.0000 O   0  0  0  0  0  0  0  0  0  0  0  0
    5.1350   -3.8450    0.0000 O   0  0  0  0  0  0  0  0  0  0  0  0
    8.5991    4.1550    0.0000 O   0  0  0  0  0  0  0  0  0  0  0  0
    6.0010    6.6550    0.0000 O   0  0  0  0  0  0  0  0  0  0  0  0
    9.4651    3.6550    0.0000 O   0  0  0  0  0  0  0  0  0  0  0  0
    2.5369    5.6550    0.0000 O   0  0  0  0  0  0  0  0  0  0  0  0
    3.4030    4.1550    0.0000 O   0  0  0  0  0  0  0  0  0  0  0  0
    8.5991    7.1550    0.0000 O   0  0  0  0  0  0  0  0  0  0  0  0
    6.8671    7.1550    0.0000 O   0  0  0  0  0  0  0  0  0  0  0  0
    3.4030   -7.8450    0.0000 O   0  0  0  0  0  0  0  0  0  0  0  0
    6.0010   -0.3450    0.0000 N   0  0  0  0  0  0  0  0  0  0  0  0
    4.2690   -2.3450    0.0000 N   0  0  0  0  0  0  0  0  0  0  0  0
    6.8671    2.1550    0.0000 N   0  0  0  0  0  0  0  0  0  0  0  0
    6.8671    4.1550    0.0000 N   0  0  0  0  0  0  0  0  0  0  0  0
    5.1350    5.1550    0.0000 N   0  0  0  0  0  0  0  0  0  0  0  0
   10.3312    2.1550    0.0000 N   0  0  0  0  0  0  0  0  0  0  0  0
    5.1350    1.1550    0.0000 C   0  0  2  0  0  0  0  0  0  0  0  0
    6.0010    0.6550    0.0000 C   0  0  1  0  0  0  0  0  0  0  0  0
    5.1350   -1.8450    0.0000 C   0  0  1  0  0  0  0  0  0  0  0  0
    6.0010   -2.3450    0.0000 C   0  0  0  0  0  0  0  0  0  0  0  0
    5.1350    2.1550    0.0000 C   0  0  0  0  0  0  0  0  0  0  0  0
    5.1350   -0.8450    0.0000 C   0  0  0  0  0  0  0  0  0  0  0  0
    6.8671    1.1550    0.0000 C   0  0  0  0  0  0  0  0  0  0  0  0
    4.2690    0.6550    0.0000 C   0  0  0  0  0  0  0  0  0  0  0  0
    7.7331    2.6550    0.0000 C   0  0  3  0  0  0  0  0  0  0  0  0
    6.8671   -1.8450    0.0000 C   0  0  0  0  0  0  0  0  0  0  0  0
    6.0010   -3.3450    0.0000 C   0  0  0  0  0  0  0  0  0  0  0  0
    4.2690    2.6550    0.0000 C   0  0  0  0  0  0  0  0  0  0  0  0
    4.2690   -3.3450    0.0000 C   0  0  0  0  0  0  0  0  0  0  0  0
    3.4030   -1.8450    0.0000 C   0  0  0  0  0  0  0  0  0  0  0  0
    8.5991    2.1550    0.0000 C   0  0  0  0  0  0  0  0  0  0  0  0
    7.7331    3.6550    0.0000 C   0  0  0  0  0  0  0  0  0  0  0  0
    6.8671    5.1550    0.0000 C   0  0  2  0  0  0  0  0  0  0  0  0
    3.4030   -3.8450    0.0000 C   0  0  0  0  0  0  0  0  0  0  0  0
    4.2690    6.6550    0.0000 C   0  0  0  0  0  0  0  0  0  0  0  0
    4.2690    5.6550    0.0000 C   0  0  1  0  0  0  0  0  0  0  0  0
    3.4030    7.1550    0.0000 C   0  0  0  0  0  0  0  0  0  0  0  0
    9.4651    2.6550    0.0000 C   0  0  0  0  0  0  0  0  0  0  0  0
    6.0010    5.6550    0.0000 C   0  0  0  0  0  0  0  0  0  0  0  0
    7.7331    5.6550    0.0000 C   0  0  0  0  0  0  0  0  0  0  0  0
    3.4030   -4.8450    0.0000 C   0  0  0  0  0  0  0  0  0  0  0  0
    3.4030    8.1550    0.0000 C   0  0  0  0  0  0  0  0  0  0  0  0
    2.5369    6.6550    0.0000 C   0  0  0  0  0  0  0  0  0  0  0  0
    3.4030    5.1550    0.0000 C   0  0  0  0  0  0  0  0  0  0  0  0
   11.1972    2.6550    0.0000 C   0  0  0  0  0  0  0  0  0  0  0  0
    4.2690   -5.3450    0.0000 C   0  0  0  0  0  0  0  0  0  0  0  0
    2.5369   -5.3450    0.0000 C   0  0  0  0  0  0  0  0  0  0  0  0
    7.7331    6.6550    0.0000 C   0  0  0  0  0  0  0  0  0  0  0  0
   12.0632    2.1550    0.0000 C   0  0  0  0  0  0  0  0  0  0  0  0
    4.2690   -6.3450    0.0000 C   0  0  0  0  0  0  0  0  0  0  0  0
    2.5369   -6.3450    0.0000 C   0  0  0  0  0  0  0  0  0  0  0  0
    3.4030   -6.8450    0.0000 C   0  0  0  0  0  0  0  0  0  0  0  0
   12.9292    2.6550    0.0000 C   0  0  0  0  0  0  0  0  0  0  0  0
   12.9292    3.6550    0.0000 C   0  0  0  0  0  0  0  0  0  0  0  0
   13.7953    2.1550    0.0000 C   0  0  0  0  0  0  0  0  0  0  0  0
   13.7953    4.1550    0.0000 C   0  0  0  0  0  0  0  0  0  0  0  0
   14.6613    2.6550    0.0000 C   0  0  0  0  0  0  0  0  0  0  0  0
   14.6613    3.6550    0.0000 C   0  0  0  0  0  0  0  0  0  0  0  0
    5.1350    0.5350    0.0000 H   0  0  0  0  0  0  0  0  0  0  0  0
    6.5380    0.3450    0.0000 H   0  0  0  0  0  0  0  0  0  0  0  0
    5.1350   -2.4650    0.0000 H   0  0  0  0  0  0  0  0  0  0  0  0
    6.5380   -2.6550    0.0000 H   0  0  0  0  0  0  0  0  0  0  0  0
    5.7456    2.0473    0.0000 H   0  0  0  0  0  0  0  0  0  0  0  0
    5.3471    2.7376    0.0000 H   0  0  0  0  0  0  0  0  0  0  0  0
    6.5380   -0.6550    0.0000 H   0  0  0  0  0  0  0  0  0  0  0  0
    3.9590    1.1919    0.0000 H   0  0  0  0  0  0  0  0  0  0  0  0
    3.7320    0.3450    0.0000 H   0  0  0  0  0  0  0  0  0  0  0  0
    4.5790    0.1181    0.0000 H   0  0  0  0  0  0  0  0  0  0  0  0
    7.7331    2.0350    0.0000 H   0  0  0  0  0  0  0  0  0  0  0  0
    7.1771   -2.3819    0.0000 H   0  0  0  0  0  0  0  0  0  0  0  0
    7.4040   -1.5350    0.0000 H   0  0  0  0  0  0  0  0  0  0  0  0
    6.5571   -1.3081    0.0000 H   0  0  0  0  0  0  0  0  0  0  0  0
    5.3810   -3.3450    0.0000 H   0  0  0  0  0  0  0  0  0  0  0  0
    6.0010   -3.9650    0.0000 H   0  0  0  0  0  0  0  0  0  0  0  0
    6.6210   -3.3450    0.0000 H   0  0  0  0  0  0  0  0  0  0  0  0
    6.3301    2.4650    0.0000 H   0  0  0  0  0  0  0  0  0  0  0  0
    4.5790    3.1919    0.0000 H   0  0  0  0  0  0  0  0  0  0  0  0
    3.7320    2.9650    0.0000 H   0  0  0  0  0  0  0  0  0  0  0  0
    3.9590    2.1181    0.0000 H   0  0  0  0  0  0  0  0  0  0  0  0
    3.7130   -1.3081    0.0000 H   0  0  0  0  0  0  0  0  0  0  0  0
    2.8660   -1.5350    0.0000 H   0  0  0  0  0  0  0  0  0  0  0  0
    3.0930   -2.3819    0.0000 H   0  0  0  0  0  0  0  0  0  0  0  0
    8.2006    1.6800    0.0000 H   0  0  0  0  0  0  0  0  0  0  0  0
    8.9976    1.6800    0.0000 H   0  0  0  0  0  0  0  0  0  0  0  0
    6.3301    4.8450    0.0000 H   0  0  0  0  0  0  0  0  0  0  0  0
    3.1909   -3.2624    0.0000 H   0  0  0  0  0  0  0  0  0  0  0  0
    2.7924   -3.9527    0.0000 H   0  0  0  0  0  0  0  0  0  0  0  0
    4.8796    6.5473    0.0000 H   0  0  0  0  0  0  0  0  0  0  0  0
    4.4810    7.2376    0.0000 H   0  0  0  0  0  0  0  0  0  0  0  0
    4.2690    5.0350    0.0000 H   0  0  0  0  0  0  0  0  0  0  0  0
    6.3301    3.8450    0.0000 H   0  0  0  0  0  0  0  0  0  0  0  0
    3.4030    6.5350    0.0000 H   0  0  0  0  0  0  0  0  0  0  0  0
    5.1350    4.5350    0.0000 H   0  0  0  0  0  0  0  0  0  0  0  0
    7.9451    5.0724    0.0000 H   0  0  0  0  0  0  0  0  0  0  0  0
    8.3437    5.7627    0.0000 H   0  0  0  0  0  0  0  0  0  0  0  0
    4.0230    8.1550    0.0000 H   0  0  0  0  0  0  0  0  0  0  0  0
    3.4030    8.7750    0.0000 H   0  0  0  0  0  0  0  0  0  0  0  0
    2.7830    8.1550    0.0000 H   0  0  0  0  0  0  0  0  0  0  0  0
    2.2269    7.1919    0.0000 H   0  0  0  0  0  0  0  0  0  0  0  0
    2.0000    6.3450    0.0000 H   0  0  0  0  0  0  0  0  0  0  0  0
    2.8469    6.1181    0.0000 H   0  0  0  0  0  0  0  0  0  0  0  0
   10.3312    1.5350    0.0000 H   0  0  0  0  0  0  0  0  0  0  0  0
   11.5957    3.1300    0.0000 H   0  0  0  0  0  0  0  0  0  0  0  0
   10.7987    3.1300    0.0000 H   0  0  0  0  0  0  0  0  0  0  0  0
    4.8059   -5.0350    0.0000 H   0  0  0  0  0  0  0  0  0  0  0  0
    2.0000   -5.0350    0.0000 H   0  0  0  0  0  0  0  0  0  0  0  0
   11.6647    1.6800    0.0000 H   0  0  0  0  0  0  0  0  0  0  0  0
   12.4617    1.6800    0.0000 H   0  0  0  0  0  0  0  0  0  0  0  0
    4.8059   -6.6550    0.0000 H   0  0  0  0  0  0  0  0  0  0  0  0
    2.0000   -6.6550    0.0000 H   0  0  0  0  0  0  0  0  0  0  0  0
    2.0000    5.3450    0.0000 H   0  0  0  0  0  0  0  0  0  0  0  0
    8.5991    7.7750    0.0000 H   0  0  0  0  0  0  0  0  0  0  0  0
   12.3923    3.9650    0.0000 H   0  0  0  0  0  0  0  0  0  0  0  0
   13.7953    1.5350    0.0000 H   0  0  0  0  0  0  0  0  0  0  0  0
    2.8660   -8.1550    0.0000 H   0  0  0  0  0  0  0  0  0  0  0  0
   13.7953    4.7750    0.0000 H   0  0  0  0  0  0  0  0  0  0  0  0
   15.1982    2.3450    0.0000 H   0  0  0  0  0  0  0  0  0  0  0  0
   15.1982    3.9650    0.0000 H   0  0  0  0  0  0  0  0  0  0  0  0
  1 23  2  0  0  0  0
  2 24  2  0  0  0  0
  3 30  2  0  0  0  0
  4 33  2  0  0  0  0
  5 40  2  0  0  0  0
  6 39  2  0  0  0  0
  7 45  1  0  0  0  0
  7112  1  0  0  0  0
  8 45  2  0  0  0  0
  9 49  1  0  0  0  0
  9113  1  0  0  0  0
 10 49  2  0  0  0  0
 11 53  1  0  0  0  0
 11116  1  0  0  0  0
 19 12  1  1  0  0  0
 12 23  1  0  0  0  0
 12 66  1  0  0  0  0
 20 13  1  6  0  0  0
 13 30  1  0  0  0  0
 13 31  1  0  0  0  0
 14 24  1  0  0  0  0
 14 26  1  0  0  0  0
 14 77  1  0  0  0  0
 15 33  1  0  0  0  0
 34 15  1  6  0  0  0
 15 92  1  0  0  0  0
 37 16  1  6  0  0  0
 16 40  1  0  0  0  0
 16 94  1  0  0  0  0
 17 39  1  0  0  0  0
 17 46  1  0  0  0  0
 17103  1  0  0  0  0
 18 19  1  0  0  0  0
 18 22  1  0  0  0  0
 18 25  1  1  0  0  0
 18 60  1  0  0  0  0
 19 24  1  0  0  0  0
 19 61  1  0  0  0  0
 20 21  1  0  0  0  0
 20 23  1  0  0  0  0
 20 62  1  0  0  0  0
 21 27  1  0  0  0  0
 21 28  1  0  0  0  0
 21 63  1  0  0  0  0
 22 29  1  0  0  0  0
 22 64  1  0  0  0  0
 22 65  1  0  0  0  0
 25 67  1  0  0  0  0
 25 68  1  0  0  0  0
 25 69  1  0  0  0  0
 26 32  1  0  0  0  0
 26 33  1  0  0  0  0
 26 70  1  0  0  0  0
 27 71  1  0  0  0  0
 27 72  1  0  0  0  0
 27 73  1  0  0  0  0
 28 74  1  0  0  0  0
 28 75  1  0  0  0  0
 28 76  1  0  0  0  0
 29 78  1  0  0  0  0
 29 79  1  0  0  0  0
 29 80  1  0  0  0  0
 30 35  1  0  0  0  0
 31 81  1  0  0  0  0
 31 82  1  0  0  0  0
 31 83  1  0  0  0  0
 32 39  1  0  0  0  0
 32 84  1  0  0  0  0
 32 85  1  0  0  0  0
 34 40  1  0  0  0  0
 34 41  1  0  0  0  0
 34 86  1  0  0  0  0
 35 42  1  0  0  0  0
 35 87  1  0  0  0  0
 35 88  1  0  0  0  0
 36 37  1  0  0  0  0
 36 38  1  0  0  0  0
 36 89  1  0  0  0  0
 36 90  1  0  0  0  0
 37 45  1  0  0  0  0
 37 91  1  0  0  0  0
 38 43  1  0  0  0  0
 38 44  1  0  0  0  0
 38 93  1  0  0  0  0
 41 49  1  0  0  0  0
 41 95  1  0  0  0  0
 41 96  1  0  0  0  0
 42 47  2  0  0  0  0
 42 48  1  0  0  0  0
 43 97  1  0  0  0  0
 43 98  1  0  0  0  0
 43 99  1  0  0  0  0
 44100  1  0  0  0  0
 44101  1  0  0  0  0
 44102  1  0  0  0  0
 46 50  1  0  0  0  0
 46104  1  0  0  0  0
 46105  1  0  0  0  0
 47 51  1  0  0  0  0
 47106  1  0  0  0  0
 48 52  2  0  0  0  0
 48107  1  0  0  0  0
 50 54  1  0  0  0  0
 50108  1  0  0  0  0
 50109  1  0  0  0  0
 51 53  2  0  0  0  0
 51110  1  0  0  0  0
 52 53  1  0  0  0  0
 52111  1  0  0  0  0
 54 55  2  0  0  0  0
 54 56  1  0  0  0  0
 55 57  1  0  0  0  0
 55114  1  0  0  0  0
 56 58  2  0  0  0  0
 56115  1  0  0  0  0
 57 59  2  0  0  0  0
 57117  1  0  0  0  0
 58 59  1  0  0  0  0
 58118  1  0  0  0  0
 59119  1  0  0  0  0
M  END
> <PUBCHEM_COMPOUND_CID>
502975
> <PUBCHEM_COMPOUND_CANONICALIZED>
1
> <PUBCHEM_CACTVS_COMPLEXITY>
1430
> <PUBCHEM_CACTVS_HBOND_ACCEPTOR>
11
> <PUBCHEM_CACTVS_HBOND_DONOR>
8
> <PUBCHEM_CACTVS_ROTATABLE_BOND>
24
> <PUBCHEM_CACTVS_SUBSKEYS>
AAADcfB/vAAAAAAAAAAAAAAAAAAAAAAAAAAwYAAAAAAAAAABQAAAHgAQCAAADSzBmAQyDoPAAgCIAiHSGAACAAAgIAAIiIGOCIgKZjqC1TOUcAAm1hGYmAe/yICOIAAAAAAAAABAAAAAAAAAAAAAAAAAAA==
> <PUBCHEM_IUPAC_OPENEYE_NAME>
(2S)-2-[[(2S)-3-carboxy-2-[[2-[[(2S,3S)-2-[[(2S)-2-[[2-(4-hydroxyphenyl)acetyl]-methyl-amino]-3-methyl-butanoyl]amino]-3-methyl-pentanoyl]amino]-4-oxo-4-(2-phenylethylamino)butanoyl]amino]propanoyl]amino]-4-methyl-pentanoic acid
> <PUBCHEM_IUPAC_CAS_NAME>
(2S)-2-[[(2S)-3-carboxy-2-[[2-[[(2S,3S)-2-[[(2S)-2-[[2-(4-hydroxyphenyl)-1-oxoethyl]-methylamino]-3-methyl-1-oxobutyl]amino]-3-methyl-1-oxopentyl]amino]-1,4-dioxo-4-(2-phenylethylamino)butyl]amino]-1-oxopropyl]amino]-4-methylpentanoic acid
> <PUBCHEM_IUPAC_NAME_MARKUP>
(2<I>S</I>)-2-[[(2<I>S</I>)-3-carboxy-2-[[2-[[(2<I>S</I>,3<I>S</I>)-2-[[(2<I>S</I>)-2-[[2-(4-hydroxyphenyl)acetyl]-methylamino]-3-methylbutanoyl]amino]-3-methylpentanoyl]amino]-4-oxo-4-(2-phenylethylamino)butanoyl]amino]propanoyl]amino]-4-methylpentanoic acid
> <PUBCHEM_IUPAC_NAME>
(2S)-2-[[(2S)-3-carboxy-2-[[2-[[(2S,3S)-2-[[(2S)-2-[[2-(4-hydroxyphenyl)acetyl]-methylamino]-3-methylbutanoyl]amino]-3-methylpentanoyl]amino]-4-oxo-4-(2-phenylethylamino)butanoyl]amino]propanoyl]amino]-4-methylpentanoic acid
> <PUBCHEM_IUPAC_SYSTEMATIC_NAME>
(2S)-2-[[(2S)-2-[[2-[[(2S,3S)-2-[[(2S)-2-[2-(4-hydroxyphenyl)ethanoyl-methyl-amino]-3-methyl-butanoyl]amino]-3-methyl-pentanoyl]amino]-4-oxidanylidene-4-(2-phenylethylamino)butanoyl]amino]-4-oxidanyl-4-oxidanylidene-butanoyl]amino]-4-methyl-pentanoic acid
> <PUBCHEM_IUPAC_TRADITIONAL_NAME>
(2S)-2-[[(2S)-3-carboxy-2-[[2-[[(2S,3S)-2-[[(2S)-2-[[2-(4-hydroxyphenyl)acetyl]-methyl-amino]-3-methyl-butanoyl]amino]-3-methyl-pentanoyl]amino]-4-keto-4-(phenethylamino)butanoyl]amino]propanoyl]amino]-4-methyl-valeric acid
> <PUBCHEM_IUPAC_INCHI>
InChI=1S/C42H60N6O11/c1-8-26(6)36(47-41(57)37(25(4)5)48(7)34(51)21-28-14-16-29(49)17-15-28)40(56)45-30(22-33(50)43-19-18-27-12-10-9-11-13-27)38(54)44-31(23-35(52)53)39(55)46-32(42(58)59)20-24(2)3/h9-17,24-26,30-32,36-37,49H,8,18-23H2,1-7H3,(H,43,50)(H,44,54)(H,45,56)(H,46,55)(H,47,57)(H,52,53)(H,58,59)/t26-,30?,31-,32-,36-,37-/m0/s1
> <PUBCHEM_IUPAC_INCHIKEY>
DSFOQJDKMBJHNB-NRCOMLQZSA-N
> <PUBCHEM_XLOGP3_AA>
3.5
> <PUBCHEM_EXACT_MASS>
824.43200675
> <PUBCHEM_MOLECULAR_FORMULA>
C42H60N6O11
> <PUBCHEM_MOLECULAR_WEIGHT>
825.0
> <PUBCHEM_OPENEYE_CAN_SMILES>
CCC(C)C(C(=O)NC(CC(=O)NCCC1=CC=CC=C1)C(=O)NC(CC(=O)O)C(=O)NC(CC(C)C)C(=O)O)NC(=O)C(C(C)C)N(C)C(=O)CC2=CC=C(C=C2)O
> <PUBCHEM_OPENEYE_ISO_SMILES>
CC[C@H](C)[C@@H](C(=O)NC(CC(=O)NCCC1=CC=CC=C1)C(=O)N[C@@H](CC(=O)O)C(=O)N[C@@H](CC(C)C)C(=O)O)NC(=O)[C@H](C(C)C)N(C)C(=O)CC2=CC=C(C=C2)O
> <PUBCHEM_CACTVS_TPSA>
261
> <PUBCHEM_MONOISOTOPIC_WEIGHT>
824.43200675
> <PUBCHEM_TOTAL_CHARGE>
0
> <PUBCHEM_HEAVY_ATOM_COUNT>
59
> <PUBCHEM_ATOM_DEF_STEREO_COUNT>
5
> <PUBCHEM_ATOM_UDEF_STEREO_COUNT>
1
> <PUBCHEM_BOND_DEF_STEREO_COUNT>
0
> <PUBCHEM_BOND_UDEF_STEREO_COUNT>
0
> <PUBCHEM_ISOTOPIC_ATOM_COUNT>
0
> <PUBCHEM_COMPONENT_COUNT>
1
> <PUBCHEM_CACTVS_TAUTO_COUNT>
-1
> <PUBCHEM_COORDINATE_TYPE>
1
5
255
> <PUBCHEM_BONDANNOTATIONS>
19  12  5
20  13  6
34  15  6
37  16  6
18  25  5
26  32  3
42  47  8
42  48  8
47  51  8
48  52  8
51  53  8
52  53  8
54  55  8
54  56  8
55  57  8
56  58  8
57  59  8
58  59  8
$$$$
