502984
  -OEChem-10302200282D
119120  0     1  0  0  0  0  0999 V2000
    7.7331    0.6550    0.0000 O   0  0  0  0  0  0  0  0  0  0  0  0
    4.2690   -0.3450    0.0000 O   0  0  0  0  0  0  0  0  0  0  0  0
    8.5991    4.1550    0.0000 O   0  0  0  0  0  0  0  0  0  0  0  0
    9.4651    3.6550    0.0000 O   0  0  0  0  0  0  0  0  0  0  0  0
    6.0010    6.6550    0.0000 O   0  0  0  0  0  0  0  0  0  0  0  0
    5.1350   -3.8450    0.0000 O   0  0  0  0  0  0  0  0  0  0  0  0
    2.5369    5.6550    0.0000 O   0  0  0  0  0  0  0  0  0  0  0  0
    3.4030    4.1550    0.0000 O   0  0  0  0  0  0  0  0  0  0  0  0
    8.5991    7.1550    0.0000 O   0  0  0  0  0  0  0  0  0  0  0  0
    6.8671    7.1550    0.0000 O   0  0  0  0  0  0  0  0  0  0  0  0
    3.4030   -7.8450    0.0000 O   0  0  0  0  0  0  0  0  0  0  0  0
    6.0010   -0.3450    0.0000 N   0  0  0  0  0  0  0  0  0  0  0  0
    6.8671    2.1550    0.0000 N   0  0  0  0  0  0  0  0  0  0  0  0
    4.2690   -2.3450    0.0000 N   0  0  0  0  0  0  0  0  0  0  0  0
    6.8671    4.1550    0.0000 N   0  0  0  0  0  0  0  0  0  0  0  0
    5.1350    5.1550    0.0000 N   0  0  0  0  0  0  0  0  0  0  0  0
   10.3312    2.1550    0.0000 N   0  0  0  0  0  0  0  0  0  0  0  0
    5.1350    1.1550    0.0000 C   0  0  2  0  0  0  0  0  0  0  0  0
    6.0010    0.6550    0.0000 C   0  0  1  0  0  0  0  0  0  0  0  0
    5.1350    2.1550    0.0000 C   0  0  0  0  0  0  0  0  0  0  0  0
    5.1350   -1.8450    0.0000 C   0  0  1  0  0  0  0  0  0  0  0  0
    6.8671    1.1550    0.0000 C   0  0  0  0  0  0  0  0  0  0  0  0
    4.2690    0.6550    0.0000 C   0  0  0  0  0  0  0  0  0  0  0  0
    6.0010   -2.3450    0.0000 C   0  0  0  0  0  0  0  0  0  0  0  0
    5.1350   -0.8450    0.0000 C   0  0  0  0  0  0  0  0  0  0  0  0
    7.7331    2.6550    0.0000 C   0  0  3  0  0  0  0  0  0  0  0  0
    4.2690    2.6550    0.0000 C   0  0  0  0  0  0  0  0  0  0  0  0
    8.5991    2.1550    0.0000 C   0  0  0  0  0  0  0  0  0  0  0  0
    6.8671   -1.8450    0.0000 C   0  0  0  0  0  0  0  0  0  0  0  0
    6.0010   -3.3450    0.0000 C   0  0  0  0  0  0  0  0  0  0  0  0
    7.7331    3.6550    0.0000 C   0  0  0  0  0  0  0  0  0  0  0  0
    6.8671    5.1550    0.0000 C   0  0  2  0  0  0  0  0  0  0  0  0
    4.2690    6.6550    0.0000 C   0  0  0  0  0  0  0  0  0  0  0  0
    4.2690    5.6550    0.0000 C   0  0  1  0  0  0  0  0  0  0  0  0
    3.4030    7.1550    0.0000 C   0  0  0  0  0  0  0  0  0  0  0  0
    9.4651    2.6550    0.0000 C   0  0  0  0  0  0  0  0  0  0  0  0
    4.2690   -3.3450    0.0000 C   0  0  0  0  0  0  0  0  0  0  0  0
    6.0010    5.6550    0.0000 C   0  0  0  0  0  0  0  0  0  0  0  0
    7.7331    5.6550    0.0000 C   0  0  0  0  0  0  0  0  0  0  0  0
   11.1972    2.6550    0.0000 C   0  0  0  0  0  0  0  0  0  0  0  0
    3.4030   -3.8450    0.0000 C   0  0  0  0  0  0  0  0  0  0  0  0
    3.4030    8.1550    0.0000 C   0  0  0  0  0  0  0  0  0  0  0  0
    2.5369    6.6550    0.0000 C   0  0  0  0  0  0  0  0  0  0  0  0
    3.4030    5.1550    0.0000 C   0  0  0  0  0  0  0  0  0  0  0  0
   12.0632    2.1550    0.0000 C   0  0  0  0  0  0  0  0  0  0  0  0
   10.3312    1.1550    0.0000 C   0  0  0  0  0  0  0  0  0  0  0  0
    3.4030   -4.8450    0.0000 C   0  0  0  0  0  0  0  0  0  0  0  0
    7.7331    6.6550    0.0000 C   0  0  0  0  0  0  0  0  0  0  0  0
   12.9292    2.6550    0.0000 C   0  0  0  0  0  0  0  0  0  0  0  0
    4.2690   -5.3450    0.0000 C   0  0  0  0  0  0  0  0  0  0  0  0
    2.5369   -5.3450    0.0000 C   0  0  0  0  0  0  0  0  0  0  0  0
   12.9292    3.6550    0.0000 C   0  0  0  0  0  0  0  0  0  0  0  0
   13.7953    2.1550    0.0000 C   0  0  0  0  0  0  0  0  0  0  0  0
    4.2690   -6.3450    0.0000 C   0  0  0  0  0  0  0  0  0  0  0  0
    2.5369   -6.3450    0.0000 C   0  0  0  0  0  0  0  0  0  0  0  0
    3.4030   -6.8450    0.0000 C   0  0  0  0  0  0  0  0  0  0  0  0
   13.7953    4.1550    0.0000 C   0  0  0  0  0  0  0  0  0  0  0  0
   14.6613    2.6550    0.0000 C   0  0  0  0  0  0  0  0  0  0  0  0
   14.6613    3.6550    0.0000 C   0  0  0  0  0  0  0  0  0  0  0  0
    5.1350    0.5350    0.0000 H   0  0  0  0  0  0  0  0  0  0  0  0
    6.5380    0.3450    0.0000 H   0  0  0  0  0  0  0  0  0  0  0  0
    5.7456    2.0473    0.0000 H   0  0  0  0  0  0  0  0  0  0  0  0
    5.3471    2.7376    0.0000 H   0  0  0  0  0  0  0  0  0  0  0  0
    5.1350   -2.4650    0.0000 H   0  0  0  0  0  0  0  0  0  0  0  0
    6.5380   -0.6550    0.0000 H   0  0  0  0  0  0  0  0  0  0  0  0
    3.9590    1.1919    0.0000 H   0  0  0  0  0  0  0  0  0  0  0  0
    3.7320    0.3450    0.0000 H   0  0  0  0  0  0  0  0  0  0  0  0
    4.5790    0.1181    0.0000 H   0  0  0  0  0  0  0  0  0  0  0  0
    6.5380   -2.6550    0.0000 H   0  0  0  0  0  0  0  0  0  0  0  0
    7.7331    2.0350    0.0000 H   0  0  0  0  0  0  0  0  0  0  0  0
    6.3301    2.4650    0.0000 H   0  0  0  0  0  0  0  0  0  0  0  0
    4.5790    3.1919    0.0000 H   0  0  0  0  0  0  0  0  0  0  0  0
    3.7320    2.9650    0.0000 H   0  0  0  0  0  0  0  0  0  0  0  0
    3.9590    2.1181    0.0000 H   0  0  0  0  0  0  0  0  0  0  0  0
    8.2006    1.6800    0.0000 H   0  0  0  0  0  0  0  0  0  0  0  0
    8.9976    1.6800    0.0000 H   0  0  0  0  0  0  0  0  0  0  0  0
    3.7320   -2.0350    0.0000 H   0  0  0  0  0  0  0  0  0  0  0  0
    7.1771   -2.3819    0.0000 H   0  0  0  0  0  0  0  0  0  0  0  0
    7.4040   -1.5350    0.0000 H   0  0  0  0  0  0  0  0  0  0  0  0
    6.5571   -1.3081    0.0000 H   0  0  0  0  0  0  0  0  0  0  0  0
    5.3810   -3.3450    0.0000 H   0  0  0  0  0  0  0  0  0  0  0  0
    6.0010   -3.9650    0.0000 H   0  0  0  0  0  0  0  0  0  0  0  0
    6.6210   -3.3450    0.0000 H   0  0  0  0  0  0  0  0  0  0  0  0
    6.3301    4.8450    0.0000 H   0  0  0  0  0  0  0  0  0  0  0  0
    4.8796    6.5473    0.0000 H   0  0  0  0  0  0  0  0  0  0  0  0
    4.4810    7.2376    0.0000 H   0  0  0  0  0  0  0  0  0  0  0  0
    4.2690    5.0350    0.0000 H   0  0  0  0  0  0  0  0  0  0  0  0
    6.3301    3.8450    0.0000 H   0  0  0  0  0  0  0  0  0  0  0  0
    3.4030    6.5350    0.0000 H   0  0  0  0  0  0  0  0  0  0  0  0
    5.1350    4.5350    0.0000 H   0  0  0  0  0  0  0  0  0  0  0  0
    7.9451    5.0724    0.0000 H   0  0  0  0  0  0  0  0  0  0  0  0
    8.3437    5.7627    0.0000 H   0  0  0  0  0  0  0  0  0  0  0  0
   11.5957    3.1300    0.0000 H   0  0  0  0  0  0  0  0  0  0  0  0
   10.7987    3.1300    0.0000 H   0  0  0  0  0  0  0  0  0  0  0  0
    3.1909   -3.2624    0.0000 H   0  0  0  0  0  0  0  0  0  0  0  0
    2.7924   -3.9527    0.0000 H   0  0  0  0  0  0  0  0  0  0  0  0
    4.0230    8.1550    0.0000 H   0  0  0  0  0  0  0  0  0  0  0  0
    3.4030    8.7750    0.0000 H   0  0  0  0  0  0  0  0  0  0  0  0
    2.7830    8.1550    0.0000 H   0  0  0  0  0  0  0  0  0  0  0  0
    2.2269    7.1919    0.0000 H   0  0  0  0  0  0  0  0  0  0  0  0
    2.0000    6.3450    0.0000 H   0  0  0  0  0  0  0  0  0  0  0  0
    2.8469    6.1181    0.0000 H   0  0  0  0  0  0  0  0  0  0  0  0
   11.6647    1.6800    0.0000 H   0  0  0  0  0  0  0  0  0  0  0  0
   12.4617    1.6800    0.0000 H   0  0  0  0  0  0  0  0  0  0  0  0
    9.7112    1.1550    0.0000 H   0  0  0  0  0  0  0  0  0  0  0  0
   10.3312    0.5350    0.0000 H   0  0  0  0  0  0  0  0  0  0  0  0
   10.9512    1.1550    0.0000 H   0  0  0  0  0  0  0  0  0  0  0  0
    4.8059   -5.0350    0.0000 H   0  0  0  0  0  0  0  0  0  0  0  0
    2.0000   -5.0350    0.0000 H   0  0  0  0  0  0  0  0  0  0  0  0
    2.0000    5.3450    0.0000 H   0  0  0  0  0  0  0  0  0  0  0  0
   12.3923    3.9650    0.0000 H   0  0  0  0  0  0  0  0  0  0  0  0
   13.7953    1.5350    0.0000 H   0  0  0  0  0  0  0  0  0  0  0  0
    8.5991    7.7750    0.0000 H   0  0  0  0  0  0  0  0  0  0  0  0
    4.8059   -6.6550    0.0000 H   0  0  0  0  0  0  0  0  0  0  0  0
    2.0000   -6.6550    0.0000 H   0  0  0  0  0  0  0  0  0  0  0  0
   13.7953    4.7750    0.0000 H   0  0  0  0  0  0  0  0  0  0  0  0
   15.1982    2.3450    0.0000 H   0  0  0  0  0  0  0  0  0  0  0  0
   15.1982    3.9650    0.0000 H   0  0  0  0  0  0  0  0  0  0  0  0
    2.8660   -8.1550    0.0000 H   0  0  0  0  0  0  0  0  0  0  0  0
  1 22  2  0  0  0  0
  2 25  2  0  0  0  0
  3 31  2  0  0  0  0
  4 36  2  0  0  0  0
  5 38  2  0  0  0  0
  6 37  2  0  0  0  0
  7 44  1  0  0  0  0
  7110  1  0  0  0  0
  8 44  2  0  0  0  0
  9 48  1  0  0  0  0
  9113  1  0  0  0  0
 10 48  2  0  0  0  0
 11 56  1  0  0  0  0
 11119  1  0  0  0  0
 19 12  1  1  0  0  0
 12 25  1  0  0  0  0
 12 65  1  0  0  0  0
 13 22  1  0  0  0  0
 13 26  1  0  0  0  0
 13 71  1  0  0  0  0
 21 14  1  6  0  0  0
 14 37  1  0  0  0  0
 14 77  1  0  0  0  0
 15 31  1  0  0  0  0
 32 15  1  6  0  0  0
 15 88  1  0  0  0  0
 34 16  1  6  0  0  0
 16 38  1  0  0  0  0
 16 90  1  0  0  0  0
 17 36  1  0  0  0  0
 17 40  1  0  0  0  0
 17 46  1  0  0  0  0
 18 19  1  0  0  0  0
 18 20  1  0  0  0  0
 18 23  1  1  0  0  0
 18 60  1  0  0  0  0
 19 22  1  0  0  0  0
 19 61  1  0  0  0  0
 20 27  1  0  0  0  0
 20 62  1  0  0  0  0
 20 63  1  0  0  0  0
 21 24  1  0  0  0  0
 21 25  1  0  0  0  0
 21 64  1  0  0  0  0
 23 66  1  0  0  0  0
 23 67  1  0  0  0  0
 23 68  1  0  0  0  0
 24 29  1  0  0  0  0
 24 30  1  0  0  0  0
 24 69  1  0  0  0  0
 26 28  1  0  0  0  0
 26 31  1  0  0  0  0
 26 70  1  0  0  0  0
 27 72  1  0  0  0  0
 27 73  1  0  0  0  0
 27 74  1  0  0  0  0
 28 36  1  0  0  0  0
 28 75  1  0  0  0  0
 28 76  1  0  0  0  0
 29 78  1  0  0  0  0
 29 79  1  0  0  0  0
 29 80  1  0  0  0  0
 30 81  1  0  0  0  0
 30 82  1  0  0  0  0
 30 83  1  0  0  0  0
 32 38  1  0  0  0  0
 32 39  1  0  0  0  0
 32 84  1  0  0  0  0
 33 34  1  0  0  0  0
 33 35  1  0  0  0  0
 33 85  1  0  0  0  0
 33 86  1  0  0  0  0
 34 44  1  0  0  0  0
 34 87  1  0  0  0  0
 35 42  1  0  0  0  0
 35 43  1  0  0  0  0
 35 89  1  0  0  0  0
 37 41  1  0  0  0  0
 39 48  1  0  0  0  0
 39 91  1  0  0  0  0
 39 92  1  0  0  0  0
 40 45  1  0  0  0  0
 40 93  1  0  0  0  0
 40 94  1  0  0  0  0
 41 47  1  0  0  0  0
 41 95  1  0  0  0  0
 41 96  1  0  0  0  0
 42 97  1  0  0  0  0
 42 98  1  0  0  0  0
 42 99  1  0  0  0  0
 43100  1  0  0  0  0
 43101  1  0  0  0  0
 43102  1  0  0  0  0
 45 49  1  0  0  0  0
 45103  1  0  0  0  0
 45104  1  0  0  0  0
 46105  1  0  0  0  0
 46106  1  0  0  0  0
 46107  1  0  0  0  0
 47 50  2  0  0  0  0
 47 51  1  0  0  0  0
 49 52  2  0  0  0  0
 49 53  1  0  0  0  0
 50 54  1  0  0  0  0
 50108  1  0  0  0  0
 51 55  2  0  0  0  0
 51109  1  0  0  0  0
 52 57  1  0  0  0  0
 52111  1  0  0  0  0
 53 58  2  0  0  0  0
 53112  1  0  0  0  0
 54 56  2  0  0  0  0
 54114  1  0  0  0  0
 55 56  1  0  0  0  0
 55115  1  0  0  0  0
 57 59  2  0  0  0  0
 57116  1  0  0  0  0
 58 59  1  0  0  0  0
 58117  1  0  0  0  0
 59118  1  0  0  0  0
M  END
> <PUBCHEM_COMPOUND_CID>
502984
> <PUBCHEM_COMPOUND_CANONICALIZED>
1
> <PUBCHEM_CACTVS_COMPLEXITY>
1430
> <PUBCHEM_CACTVS_HBOND_ACCEPTOR>
11
> <PUBCHEM_CACTVS_HBOND_DONOR>
8
> <PUBCHEM_CACTVS_ROTATABLE_BOND>
24
> <PUBCHEM_CACTVS_SUBSKEYS>
AAADcfB/vAAAAAAAAAAAAAAAAAAAAAAAAAAwYAAAAAAAAAABQAAAHgAQCAAADSzBmAQyDoPAAgCIAiHSGAACAAAgIAAIiIGOCIgKZjqC1TOUcAAm1hGYmAe/yICOIAAAAAAAAABAAAAAAAAAAAAAAAAAAA==
> <PUBCHEM_IUPAC_OPENEYE_NAME>
(2S)-2-[[(2S)-3-carboxy-2-[[2-[[(2S,3S)-2-[[(2S)-2-[[2-(4-hydroxyphenyl)acetyl]amino]-3-methyl-butanoyl]amino]-3-methyl-pentanoyl]amino]-4-[methyl(2-phenylethyl)amino]-4-oxo-butanoyl]amino]propanoyl]amino]-4-methyl-pentanoic acid
> <PUBCHEM_IUPAC_CAS_NAME>
(2S)-2-[[(2S)-3-carboxy-2-[[2-[[(2S,3S)-2-[[(2S)-2-[[2-(4-hydroxyphenyl)-1-oxoethyl]amino]-3-methyl-1-oxobutyl]amino]-3-methyl-1-oxopentyl]amino]-4-[methyl(2-phenylethyl)amino]-1,4-dioxobutyl]amino]-1-oxopropyl]amino]-4-methylpentanoic acid
> <PUBCHEM_IUPAC_NAME_MARKUP>
(2<I>S</I>)-2-[[(2<I>S</I>)-3-carboxy-2-[[2-[[(2<I>S</I>,3<I>S</I>)-2-[[(2<I>S</I>)-2-[[2-(4-hydroxyphenyl)acetyl]amino]-3-methylbutanoyl]amino]-3-methylpentanoyl]amino]-4-[methyl(2-phenylethyl)amino]-4-oxobutanoyl]amino]propanoyl]amino]-4-methylpentanoic acid
> <PUBCHEM_IUPAC_NAME>
(2S)-2-[[(2S)-3-carboxy-2-[[2-[[(2S,3S)-2-[[(2S)-2-[[2-(4-hydroxyphenyl)acetyl]amino]-3-methylbutanoyl]amino]-3-methylpentanoyl]amino]-4-[methyl(2-phenylethyl)amino]-4-oxobutanoyl]amino]propanoyl]amino]-4-methylpentanoic acid
> <PUBCHEM_IUPAC_SYSTEMATIC_NAME>
(2S)-2-[[(2S)-2-[[2-[[(2S,3S)-2-[[(2S)-2-[2-(4-hydroxyphenyl)ethanoylamino]-3-methyl-butanoyl]amino]-3-methyl-pentanoyl]amino]-4-[methyl(2-phenylethyl)amino]-4-oxidanylidene-butanoyl]amino]-4-oxidanyl-4-oxidanylidene-butanoyl]amino]-4-methyl-pentanoic acid
> <PUBCHEM_IUPAC_TRADITIONAL_NAME>
(2S)-2-[[(2S)-3-carboxy-2-[[2-[[(2S,3S)-2-[[(2S)-2-[[2-(4-hydroxyphenyl)acetyl]amino]-3-methyl-butanoyl]amino]-3-methyl-pentanoyl]amino]-4-keto-4-[methyl(phenethyl)amino]butanoyl]amino]propanoyl]amino]-4-methyl-valeric acid
> <PUBCHEM_IUPAC_INCHI>
InChI=1S/C42H60N6O11/c1-8-26(6)37(47-40(56)36(25(4)5)46-33(50)21-28-14-16-29(49)17-15-28)41(57)44-30(22-34(51)48(7)19-18-27-12-10-9-11-13-27)38(54)43-31(23-35(52)53)39(55)45-32(42(58)59)20-24(2)3/h9-17,24-26,30-32,36-37,49H,8,18-23H2,1-7H3,(H,43,54)(H,44,57)(H,45,55)(H,46,50)(H,47,56)(H,52,53)(H,58,59)/t26-,30?,31-,32-,36-,37-/m0/s1
> <PUBCHEM_IUPAC_INCHIKEY>
SWPOBWOQRKGBRI-NRCOMLQZSA-N
> <PUBCHEM_XLOGP3_AA>
3.5
> <PUBCHEM_EXACT_MASS>
824.43200675
> <PUBCHEM_MOLECULAR_FORMULA>
C42H60N6O11
> <PUBCHEM_MOLECULAR_WEIGHT>
825.0
> <PUBCHEM_OPENEYE_CAN_SMILES>
CCC(C)C(C(=O)NC(CC(=O)N(C)CCC1=CC=CC=C1)C(=O)NC(CC(=O)O)C(=O)NC(CC(C)C)C(=O)O)NC(=O)C(C(C)C)NC(=O)CC2=CC=C(C=C2)O
> <PUBCHEM_OPENEYE_ISO_SMILES>
CC[C@H](C)[C@@H](C(=O)NC(CC(=O)N(C)CCC1=CC=CC=C1)C(=O)N[C@@H](CC(=O)O)C(=O)N[C@@H](CC(C)C)C(=O)O)NC(=O)[C@H](C(C)C)NC(=O)CC2=CC=C(C=C2)O
> <PUBCHEM_CACTVS_TPSA>
261
> <PUBCHEM_MONOISOTOPIC_WEIGHT>
824.43200675
> <PUBCHEM_TOTAL_CHARGE>
0
> <PUBCHEM_HEAVY_ATOM_COUNT>
59
> <PUBCHEM_ATOM_DEF_STEREO_COUNT>
5
> <PUBCHEM_ATOM_UDEF_STEREO_COUNT>
1
> <PUBCHEM_BOND_DEF_STEREO_COUNT>
0
> <PUBCHEM_BOND_UDEF_STEREO_COUNT>
0
> <PUBCHEM_ISOTOPIC_ATOM_COUNT>
0
> <PUBCHEM_COMPONENT_COUNT>
1
> <PUBCHEM_CACTVS_TAUTO_COUNT>
-1
> <PUBCHEM_COORDINATE_TYPE>
1
5
255
> <PUBCHEM_BONDANNOTATIONS>
19  12  5
21  14  6
32  15  6
34  16  6
18  23  5
26  28  3
47  50  8
47  51  8
49  52  8
49  53  8
50  54  8
51  55  8
52  57  8
53  58  8
54  56  8
55  56  8
57  59  8
58  59  8
$$$$
