502970
  -OEChem-10302200282D
115116  0     1  0  0  0  0  0999 V2000
    7.1962    5.5950    0.0000 O   0  0  0  0  0  0  0  0  0  0  0  0
    5.4641    2.5950    0.0000 O   0  0  0  0  0  0  0  0  0  0  0  0
    6.3301   -0.9050    0.0000 O   0  0  0  0  0  0  0  0  0  0  0  0
    8.0622    5.0950    0.0000 O   0  0  0  0  0  0  0  0  0  0  0  0
    2.8660   -1.9050    0.0000 O   0  0  0  0  0  0  0  0  0  0  0  0
   11.5263    4.0950    0.0000 O   0  0  0  0  0  0  0  0  0  0  0  0
   12.3923    0.5950    0.0000 O   0  0  0  0  0  0  0  0  0  0  0  0
   10.6603    6.5950    0.0000 O   0  0  0  0  0  0  0  0  0  0  0  0
   10.6603    0.5950    0.0000 O   0  0  0  0  0  0  0  0  0  0  0  0
   11.5263    5.0950    0.0000 O   0  0  0  0  0  0  0  0  0  0  0  0
    5.4641    5.5950    0.0000 N   0  0  0  0  0  0  0  0  0  0  0  0
    5.4641    0.5950    0.0000 N   0  0  0  0  0  0  0  0  0  0  0  0
    7.1962    2.5950    0.0000 N   0  0  0  0  0  0  0  0  0  0  0  0
    4.5981   -1.9050    0.0000 N   0  0  0  0  0  0  0  0  0  0  0  0
    8.9282    3.5950    0.0000 N   0  0  0  0  0  0  0  0  0  0  0  0
   10.6603    2.5950    0.0000 N   0  0  0  0  0  0  0  0  0  0  0  0
    6.3301    1.0950    0.0000 C   0  0  1  0  0  0  0  0  0  0  0  0
    7.1962    0.5950    0.0000 C   0  0  2  0  0  0  0  0  0  0  0  0
    5.3596    6.5895    0.0000 C   0  0  0  0  0  0  0  0  0  0  0  0
    4.5506    5.1883    0.0000 C   0  0  0  0  0  0  0  0  0  0  0  0
    4.3814    6.7974    0.0000 C   0  0  0  0  0  0  0  0  0  0  0  0
    3.8814    5.9314    0.0000 C   0  0  0  0  0  0  0  0  0  0  0  0
    4.5981   -0.9050    0.0000 C   0  0  1  0  0  0  0  0  0  0  0  0
    7.1962    3.5950    0.0000 C   0  0  3  0  0  0  0  0  0  0  0  0
    6.3301    4.0950    0.0000 C   0  0  0  0  0  0  0  0  0  0  0  0
    6.3301    5.0950    0.0000 C   0  0  0  0  0  0  0  0  0  0  0  0
    3.7320   -0.4050    0.0000 C   0  0  0  0  0  0  0  0  0  0  0  0
    8.0622    1.0950    0.0000 C   0  0  0  0  0  0  0  0  0  0  0  0
    6.3301    2.0950    0.0000 C   0  0  0  0  0  0  0  0  0  0  0  0
    5.4641   -0.4050    0.0000 C   0  0  0  0  0  0  0  0  0  0  0  0
    7.1962   -0.4050    0.0000 C   0  0  0  0  0  0  0  0  0  0  0  0
    8.0622    4.0950    0.0000 C   0  0  0  0  0  0  0  0  0  0  0  0
    3.7320    0.5950    0.0000 C   0  0  0  0  0  0  0  0  0  0  0  0
    2.8660   -0.9050    0.0000 C   0  0  0  0  0  0  0  0  0  0  0  0
    8.9282    0.5950    0.0000 C   0  0  0  0  0  0  0  0  0  0  0  0
    9.7942    4.0950    0.0000 C   0  0  1  0  0  0  0  0  0  0  0  0
    3.7320   -2.4050    0.0000 C   0  0  0  0  0  0  0  0  0  0  0  0
    5.4641   -2.4050    0.0000 C   0  0  0  0  0  0  0  0  0  0  0  0
    3.7320   -3.4050    0.0000 C   0  0  0  0  0  0  0  0  0  0  0  0
   11.5263    2.0950    0.0000 C   0  0  1  0  0  0  0  0  0  0  0  0
   12.3923    2.5950    0.0000 C   0  0  0  0  0  0  0  0  0  0  0  0
    9.7942    5.0950    0.0000 C   0  0  0  0  0  0  0  0  0  0  0  0
   10.6603    3.5950    0.0000 C   0  0  0  0  0  0  0  0  0  0  0  0
   13.2583    2.0950    0.0000 C   0  0  0  0  0  0  0  0  0  0  0  0
    2.8660   -3.9050    0.0000 C   0  0  0  0  0  0  0  0  0  0  0  0
   14.1244    2.5950    0.0000 C   0  0  0  0  0  0  0  0  0  0  0  0
   13.2583    1.0950    0.0000 C   0  0  0  0  0  0  0  0  0  0  0  0
    2.8660   -4.9050    0.0000 C   0  0  0  0  0  0  0  0  0  0  0  0
   11.5263    1.0950    0.0000 C   0  0  0  0  0  0  0  0  0  0  0  0
   10.6603    5.5950    0.0000 C   0  0  0  0  0  0  0  0  0  0  0  0
    3.7320   -5.4050    0.0000 C   0  0  0  0  0  0  0  0  0  0  0  0
    2.0000   -5.4050    0.0000 C   0  0  0  0  0  0  0  0  0  0  0  0
    3.7320   -6.4050    0.0000 C   0  0  0  0  0  0  0  0  0  0  0  0
    2.0000   -6.4050    0.0000 C   0  0  0  0  0  0  0  0  0  0  0  0
    2.8660   -6.9050    0.0000 C   0  0  0  0  0  0  0  0  0  0  0  0
    5.7932    1.4050    0.0000 H   0  0  0  0  0  0  0  0  0  0  0  0
    6.6592    0.2850    0.0000 H   0  0  0  0  0  0  0  0  0  0  0  0
    5.9796    6.5895    0.0000 H   0  0  0  0  0  0  0  0  0  0  0  0
    5.4244    7.2061    0.0000 H   0  0  0  0  0  0  0  0  0  0  0  0
    4.0490    4.8238    0.0000 H   0  0  0  0  0  0  0  0  0  0  0  0
    4.8606    4.6513    0.0000 H   0  0  0  0  0  0  0  0  0  0  0  0
    4.5730    7.3871    0.0000 H   0  0  0  0  0  0  0  0  0  0  0  0
    3.8150    7.0496    0.0000 H   0  0  0  0  0  0  0  0  0  0  0  0
    3.3798    6.2958    0.0000 H   0  0  0  0  0  0  0  0  0  0  0  0
    3.4666    5.4707    0.0000 H   0  0  0  0  0  0  0  0  0  0  0  0
    5.1350   -1.2150    0.0000 H   0  0  0  0  0  0  0  0  0  0  0  0
    6.6592    3.2850    0.0000 H   0  0  0  0  0  0  0  0  0  0  0  0
    5.7196    4.2027    0.0000 H   0  0  0  0  0  0  0  0  0  0  0  0
    6.1181    3.5124    0.0000 H   0  0  0  0  0  0  0  0  0  0  0  0
    3.7320   -1.0250    0.0000 H   0  0  0  0  0  0  0  0  0  0  0  0
    8.4607    1.5700    0.0000 H   0  0  0  0  0  0  0  0  0  0  0  0
    7.6636    1.5700    0.0000 H   0  0  0  0  0  0  0  0  0  0  0  0
    4.9272    0.9050    0.0000 H   0  0  0  0  0  0  0  0  0  0  0  0
    7.7331    2.2850    0.0000 H   0  0  0  0  0  0  0  0  0  0  0  0
    6.5762   -0.4050    0.0000 H   0  0  0  0  0  0  0  0  0  0  0  0
    7.1962   -1.0250    0.0000 H   0  0  0  0  0  0  0  0  0  0  0  0
    7.8162   -0.4050    0.0000 H   0  0  0  0  0  0  0  0  0  0  0  0
    4.3520    0.5950    0.0000 H   0  0  0  0  0  0  0  0  0  0  0  0
    3.7320    1.2150    0.0000 H   0  0  0  0  0  0  0  0  0  0  0  0
    3.1120    0.5950    0.0000 H   0  0  0  0  0  0  0  0  0  0  0  0
    2.5560   -0.3681    0.0000 H   0  0  0  0  0  0  0  0  0  0  0  0
    2.3291   -1.2150    0.0000 H   0  0  0  0  0  0  0  0  0  0  0  0
    3.1760   -1.4419    0.0000 H   0  0  0  0  0  0  0  0  0  0  0  0
    8.6182    0.0581    0.0000 H   0  0  0  0  0  0  0  0  0  0  0  0
    9.4651    0.2850    0.0000 H   0  0  0  0  0  0  0  0  0  0  0  0
    9.2382    1.1319    0.0000 H   0  0  0  0  0  0  0  0  0  0  0  0
    9.7942    3.4750    0.0000 H   0  0  0  0  0  0  0  0  0  0  0  0
    8.9282    2.9750    0.0000 H   0  0  0  0  0  0  0  0  0  0  0  0
    5.1541   -2.9419    0.0000 H   0  0  0  0  0  0  0  0  0  0  0  0
    6.0010   -2.7150    0.0000 H   0  0  0  0  0  0  0  0  0  0  0  0
    5.7741   -1.8681    0.0000 H   0  0  0  0  0  0  0  0  0  0  0  0
    3.9441   -3.9876    0.0000 H   0  0  0  0  0  0  0  0  0  0  0  0
    4.3426   -3.2973    0.0000 H   0  0  0  0  0  0  0  0  0  0  0  0
   10.9893    1.7850    0.0000 H   0  0  0  0  0  0  0  0  0  0  0  0
   12.7908    3.0700    0.0000 H   0  0  0  0  0  0  0  0  0  0  0  0
   11.9938    3.0700    0.0000 H   0  0  0  0  0  0  0  0  0  0  0  0
    9.5822    5.6776    0.0000 H   0  0  0  0  0  0  0  0  0  0  0  0
    9.1836    4.9873    0.0000 H   0  0  0  0  0  0  0  0  0  0  0  0
   13.7953    1.7850    0.0000 H   0  0  0  0  0  0  0  0  0  0  0  0
   10.1233    2.2850    0.0000 H   0  0  0  0  0  0  0  0  0  0  0  0
    2.6540   -3.3224    0.0000 H   0  0  0  0  0  0  0  0  0  0  0  0
    2.2554   -4.0127    0.0000 H   0  0  0  0  0  0  0  0  0  0  0  0
   14.4344    2.0581    0.0000 H   0  0  0  0  0  0  0  0  0  0  0  0
   14.6613    2.9050    0.0000 H   0  0  0  0  0  0  0  0  0  0  0  0
   13.8144    3.1319    0.0000 H   0  0  0  0  0  0  0  0  0  0  0  0
   12.6383    1.0950    0.0000 H   0  0  0  0  0  0  0  0  0  0  0  0
   13.2583    0.4750    0.0000 H   0  0  0  0  0  0  0  0  0  0  0  0
   13.8783    1.0950    0.0000 H   0  0  0  0  0  0  0  0  0  0  0  0
    4.2690   -5.0950    0.0000 H   0  0  0  0  0  0  0  0  0  0  0  0
    1.4631   -5.0950    0.0000 H   0  0  0  0  0  0  0  0  0  0  0  0
   12.3923   -0.0250    0.0000 H   0  0  0  0  0  0  0  0  0  0  0  0
   11.1972    6.9050    0.0000 H   0  0  0  0  0  0  0  0  0  0  0  0
    4.2690   -6.7150    0.0000 H   0  0  0  0  0  0  0  0  0  0  0  0
    1.4631   -6.7150    0.0000 H   0  0  0  0  0  0  0  0  0  0  0  0
    2.8660   -7.5250    0.0000 H   0  0  0  0  0  0  0  0  0  0  0  0
  1 26  2  0  0  0  0
  2 29  2  0  0  0  0
  3 30  2  0  0  0  0
  4 32  2  0  0  0  0
  5 37  2  0  0  0  0
  6 43  2  0  0  0  0
  7 49  1  0  0  0  0
  7111  1  0  0  0  0
  8 50  1  0  0  0  0
  8112  1  0  0  0  0
  9 49  2  0  0  0  0
 10 50  2  0  0  0  0
 11 19  1  0  0  0  0
 11 20  1  0  0  0  0
 11 26  1  0  0  0  0
 17 12  1  6  0  0  0
 12 30  1  0  0  0  0
 12 73  1  0  0  0  0
 13 24  1  0  0  0  0
 13 29  1  0  0  0  0
 13 74  1  0  0  0  0
 23 14  1  1  0  0  0
 14 37  1  0  0  0  0
 14 38  1  0  0  0  0
 15 32  1  0  0  0  0
 36 15  1  1  0  0  0
 15 88  1  0  0  0  0
 40 16  1  1  0  0  0
 16 43  1  0  0  0  0
 16100  1  0  0  0  0
 17 18  1  0  0  0  0
 17 29  1  0  0  0  0
 17 56  1  0  0  0  0
 18 28  1  0  0  0  0
 18 31  1  6  0  0  0
 18 57  1  0  0  0  0
 19 21  1  0  0  0  0
 19 58  1  0  0  0  0
 19 59  1  0  0  0  0
 20 22  1  0  0  0  0
 20 60  1  0  0  0  0
 20 61  1  0  0  0  0
 21 22  1  0  0  0  0
 21 62  1  0  0  0  0
 21 63  1  0  0  0  0
 22 64  1  0  0  0  0
 22 65  1  0  0  0  0
 23 27  1  0  0  0  0
 23 30  1  0  0  0  0
 23 66  1  0  0  0  0
 24 25  1  0  0  0  0
 24 32  1  0  0  0  0
 24 67  1  0  0  0  0
 25 26  1  0  0  0  0
 25 68  1  0  0  0  0
 25 69  1  0  0  0  0
 27 33  1  0  0  0  0
 27 34  1  0  0  0  0
 27 70  1  0  0  0  0
 28 35  1  0  0  0  0
 28 71  1  0  0  0  0
 28 72  1  0  0  0  0
 31 75  1  0  0  0  0
 31 76  1  0  0  0  0
 31 77  1  0  0  0  0
 33 78  1  0  0  0  0
 33 79  1  0  0  0  0
 33 80  1  0  0  0  0
 34 81  1  0  0  0  0
 34 82  1  0  0  0  0
 34 83  1  0  0  0  0
 35 84  1  0  0  0  0
 35 85  1  0  0  0  0
 35 86  1  0  0  0  0
 36 42  1  0  0  0  0
 36 43  1  0  0  0  0
 36 87  1  0  0  0  0
 37 39  1  0  0  0  0
 38 89  1  0  0  0  0
 38 90  1  0  0  0  0
 38 91  1  0  0  0  0
 39 45  1  0  0  0  0
 39 92  1  0  0  0  0
 39 93  1  0  0  0  0
 40 41  1  0  0  0  0
 40 49  1  0  0  0  0
 40 94  1  0  0  0  0
 41 44  1  0  0  0  0
 41 95  1  0  0  0  0
 41 96  1  0  0  0  0
 42 50  1  0  0  0  0
 42 97  1  0  0  0  0
 42 98  1  0  0  0  0
 44 46  1  0  0  0  0
 44 47  1  0  0  0  0
 44 99  1  0  0  0  0
 45 48  1  0  0  0  0
 45101  1  0  0  0  0
 45102  1  0  0  0  0
 46103  1  0  0  0  0
 46104  1  0  0  0  0
 46105  1  0  0  0  0
 47106  1  0  0  0  0
 47107  1  0  0  0  0
 47108  1  0  0  0  0
 48 51  2  0  0  0  0
 48 52  1  0  0  0  0
 51 53  1  0  0  0  0
 51109  1  0  0  0  0
 52 54  2  0  0  0  0
 52110  1  0  0  0  0
 53 55  2  0  0  0  0
 53113  1  0  0  0  0
 54 55  1  0  0  0  0
 54114  1  0  0  0  0
 55115  1  0  0  0  0
M  END
> <PUBCHEM_COMPOUND_CID>
502970
> <PUBCHEM_COMPOUND_CANONICALIZED>
1
> <PUBCHEM_CACTVS_COMPLEXITY>
1340
> <PUBCHEM_CACTVS_HBOND_ACCEPTOR>
10
> <PUBCHEM_CACTVS_HBOND_DONOR>
6
> <PUBCHEM_CACTVS_ROTATABLE_BOND>
22
> <PUBCHEM_CACTVS_SUBSKEYS>
AAADcfB/vAAAAAAAAAAAAAAAAAAAAWAAAAAwAAAAAAAAAAABAAAAHgAQCAAADSjBmAQyCIPAAgCIAiHSGAACAAAgAAAIiIGIAIgKYDqA0TCUYAAmlgCYiAe/iICOAAAAAAAAAAAAAAAAAAAAAAAAAAAAAA==
> <PUBCHEM_IUPAC_OPENEYE_NAME>
(2S)-2-[[(2S)-3-carboxy-2-[[2-[[(2S,3S)-3-methyl-2-[[(2S)-3-methyl-2-[methyl(3-phenylpropanoyl)amino]butanoyl]amino]pentanoyl]amino]-4-oxo-4-pyrrolidin-1-yl-butanoyl]amino]propanoyl]amino]-4-methyl-pentanoic acid
> <PUBCHEM_IUPAC_CAS_NAME>
(2S)-2-[[(2S)-3-carboxy-2-[[2-[[(2S,3S)-3-methyl-2-[[(2S)-3-methyl-2-[methyl-(1-oxo-3-phenylpropyl)amino]-1-oxobutyl]amino]-1-oxopentyl]amino]-1,4-dioxo-4-(1-pyrrolidinyl)butyl]amino]-1-oxopropyl]amino]-4-methylpentanoic acid
> <PUBCHEM_IUPAC_NAME_MARKUP>
(2<I>S</I>)-2-[[(2<I>S</I>)-3-carboxy-2-[[2-[[(2<I>S</I>,3<I>S</I>)-3-methyl-2-[[(2<I>S</I>)-3-methyl-2-[methyl(3-phenylpropanoyl)amino]butanoyl]amino]pentanoyl]amino]-4-oxo-4-pyrrolidin-1-ylbutanoyl]amino]propanoyl]amino]-4-methylpentanoic acid
> <PUBCHEM_IUPAC_NAME>
(2S)-2-[[(2S)-3-carboxy-2-[[2-[[(2S,3S)-3-methyl-2-[[(2S)-3-methyl-2-[methyl(3-phenylpropanoyl)amino]butanoyl]amino]pentanoyl]amino]-4-oxo-4-pyrrolidin-1-ylbutanoyl]amino]propanoyl]amino]-4-methylpentanoic acid
> <PUBCHEM_IUPAC_SYSTEMATIC_NAME>
(2S)-4-methyl-2-[[(2S)-2-[[2-[[(2S,3S)-3-methyl-2-[[(2S)-3-methyl-2-[methyl(3-phenylpropanoyl)amino]butanoyl]amino]pentanoyl]amino]-4-oxidanylidene-4-pyrrolidin-1-yl-butanoyl]amino]-4-oxidanyl-4-oxidanylidene-butanoyl]amino]pentanoic acid
> <PUBCHEM_IUPAC_TRADITIONAL_NAME>
(2S)-2-[[(2S)-3-carboxy-2-[[2-[[(2S,3S)-2-[[(2S)-2-[hydrocinnamoyl(methyl)amino]-3-methyl-butanoyl]amino]-3-methyl-pentanoyl]amino]-4-keto-4-pyrrolidino-butanoyl]amino]propanoyl]amino]-4-methyl-valeric acid
> <PUBCHEM_IUPAC_INCHI>
InChI=1S/C39H60N6O10/c1-8-25(6)33(43-38(53)34(24(4)5)44(7)30(46)17-16-26-14-10-9-11-15-26)37(52)41-27(21-31(47)45-18-12-13-19-45)35(50)40-28(22-32(48)49)36(51)42-29(39(54)55)20-23(2)3/h9-11,14-15,23-25,27-29,33-34H,8,12-13,16-22H2,1-7H3,(H,40,50)(H,41,52)(H,42,51)(H,43,53)(H,48,49)(H,54,55)/t25-,27?,28-,29-,33-,34-/m0/s1
> <PUBCHEM_IUPAC_INCHIKEY>
KZWIHTMRZPTHAE-KTRKGMDOSA-N
> <PUBCHEM_XLOGP3_AA>
2.9
> <PUBCHEM_EXACT_MASS>
772.43709213
> <PUBCHEM_MOLECULAR_FORMULA>
C39H60N6O10
> <PUBCHEM_MOLECULAR_WEIGHT>
772.9
> <PUBCHEM_OPENEYE_CAN_SMILES>
CCC(C)C(C(=O)NC(CC(=O)N1CCCC1)C(=O)NC(CC(=O)O)C(=O)NC(CC(C)C)C(=O)O)NC(=O)C(C(C)C)N(C)C(=O)CCC2=CC=CC=C2
> <PUBCHEM_OPENEYE_ISO_SMILES>
CC[C@H](C)[C@@H](C(=O)NC(CC(=O)N1CCCC1)C(=O)N[C@@H](CC(=O)O)C(=O)N[C@@H](CC(C)C)C(=O)O)NC(=O)[C@H](C(C)C)N(C)C(=O)CCC2=CC=CC=C2
> <PUBCHEM_CACTVS_TPSA>
232
> <PUBCHEM_MONOISOTOPIC_WEIGHT>
772.43709213
> <PUBCHEM_TOTAL_CHARGE>
0
> <PUBCHEM_HEAVY_ATOM_COUNT>
55
> <PUBCHEM_ATOM_DEF_STEREO_COUNT>
5
> <PUBCHEM_ATOM_UDEF_STEREO_COUNT>
1
> <PUBCHEM_BOND_DEF_STEREO_COUNT>
0
> <PUBCHEM_BOND_UDEF_STEREO_COUNT>
0
> <PUBCHEM_ISOTOPIC_ATOM_COUNT>
0
> <PUBCHEM_COMPONENT_COUNT>
1
> <PUBCHEM_CACTVS_TAUTO_COUNT>
-1
> <PUBCHEM_COORDINATE_TYPE>
1
5
255
> <PUBCHEM_BONDANNOTATIONS>
17  12  6
23  14  5
36  15  5
40  16  5
18  31  6
24  25  3
48  51  8
48  52  8
51  53  8
52  54  8
53  55  8
54  55  8
$$$$
