502962
  -OEChem-10302200282D
104103  0     1  0  0  0  0  0999 V2000
    8.5991    0.7500    0.0000 O   0  0  0  0  0  0  0  0  0  0  0  0
   11.1972   -1.7500    0.0000 O   0  0  0  0  0  0  0  0  0  0  0  0
    5.1350   -0.2500    0.0000 O   0  0  0  0  0  0  0  0  0  0  0  0
    5.1350    0.7500    0.0000 O   0  0  0  0  0  0  0  0  0  0  0  0
    4.2690   -3.7500    0.0000 O   0  0  0  0  0  0  0  0  0  0  0  0
    6.8671   -6.2500    0.0000 O   0  0  0  0  0  0  0  0  0  0  0  0
    7.7331   -4.7500    0.0000 O   0  0  0  0  0  0  0  0  0  0  0  0
    2.5369   -1.7500    0.0000 O   0  0  0  0  0  0  0  0  0  0  0  0
    3.4030   -3.2500    0.0000 O   0  0  0  0  0  0  0  0  0  0  0  0
    9.4651   -1.7500    0.0000 N   0  0  0  0  0  0  0  0  0  0  0  0
    7.7331   -0.7500    0.0000 N   0  0  0  0  0  0  0  0  0  0  0  0
    6.0010   -1.7500    0.0000 N   0  0  0  0  0  0  0  0  0  0  0  0
    6.0010   -3.7500    0.0000 N   0  0  0  0  0  0  0  0  0  0  0  0
   10.3312   -0.2500    0.0000 C   0  0  0  0  0  0  0  0  0  0  0  0
    9.4651   -0.7500    0.0000 C   0  0  1  0  0  0  0  0  0  0  0  0
   11.1972    0.2500    0.0000 C   0  0  0  0  0  0  0  0  0  0  0  0
   10.8312   -1.1160    0.0000 C   0  0  0  0  0  0  0  0  0  0  0  0
    9.8312    0.6160    0.0000 C   0  0  0  0  0  0  0  0  0  0  0  0
    8.5991   -0.2500    0.0000 C   0  0  0  0  0  0  0  0  0  0  0  0
   10.3312   -3.2500    0.0000 C   0  0  0  0  0  0  0  0  0  0  0  0
    6.8671   -0.2500    0.0000 C   0  0  3  0  0  0  0  0  0  0  0  0
   10.3312   -2.2500    0.0000 C   0  0  0  0  0  0  0  0  0  0  0  0
    6.8671    0.7500    0.0000 C   0  0  0  0  0  0  0  0  0  0  0  0
   11.1972   -3.7500    0.0000 C   0  0  0  0  0  0  0  0  0  0  0  0
    9.4651   -3.7500    0.0000 C   0  0  0  0  0  0  0  0  0  0  0  0
    6.0010   -0.7500    0.0000 C   0  0  0  0  0  0  0  0  0  0  0  0
    6.0010    1.2500    0.0000 C   0  0  0  0  0  0  0  0  0  0  0  0
    6.0010    2.2500    0.0000 C   0  0  0  0  0  0  0  0  0  0  0  0
    5.1350   -2.2500    0.0000 C   0  0  2  0  0  0  0  0  0  0  0  0
    5.1350    2.7500    0.0000 C   0  0  0  0  0  0  0  0  0  0  0  0
    5.1350    3.7500    0.0000 C   0  0  0  0  0  0  0  0  0  0  0  0
   11.1972   -4.7500    0.0000 C   0  0  0  0  0  0  0  0  0  0  0  0
    9.4651   -4.7500    0.0000 C   0  0  0  0  0  0  0  0  0  0  0  0
    6.0010   -4.7500    0.0000 C   0  0  1  0  0  0  0  0  0  0  0  0
    5.1350   -5.2500    0.0000 C   0  0  0  0  0  0  0  0  0  0  0  0
    4.2690    4.2500    0.0000 C   0  0  0  0  0  0  0  0  0  0  0  0
    5.1350   -6.2500    0.0000 C   0  0  0  0  0  0  0  0  0  0  0  0
    5.1350   -3.2500    0.0000 C   0  0  0  0  0  0  0  0  0  0  0  0
    4.2690   -1.7500    0.0000 C   0  0  0  0  0  0  0  0  0  0  0  0
    4.2690    5.2500    0.0000 C   0  0  0  0  0  0  0  0  0  0  0  0
    3.4030    5.7500    0.0000 C   0  0  0  0  0  0  0  0  0  0  0  0
    4.2690   -6.7500    0.0000 C   0  0  0  0  0  0  0  0  0  0  0  0
    6.0010   -6.7500    0.0000 C   0  0  0  0  0  0  0  0  0  0  0  0
    6.8671   -5.2500    0.0000 C   0  0  0  0  0  0  0  0  0  0  0  0
    3.4030   -2.2500    0.0000 C   0  0  0  0  0  0  0  0  0  0  0  0
    3.4030    6.7500    0.0000 C   0  0  0  0  0  0  0  0  0  0  0  0
   10.0021   -1.0600    0.0000 H   0  0  0  0  0  0  0  0  0  0  0  0
   11.5072   -0.2869    0.0000 H   0  0  0  0  0  0  0  0  0  0  0  0
   11.7341    0.5600    0.0000 H   0  0  0  0  0  0  0  0  0  0  0  0
   10.8872    0.7869    0.0000 H   0  0  0  0  0  0  0  0  0  0  0  0
   10.2942   -1.4260    0.0000 H   0  0  0  0  0  0  0  0  0  0  0  0
   11.1412   -1.6530    0.0000 H   0  0  0  0  0  0  0  0  0  0  0  0
   11.3681   -0.8060    0.0000 H   0  0  0  0  0  0  0  0  0  0  0  0
   10.3681    0.9260    0.0000 H   0  0  0  0  0  0  0  0  0  0  0  0
    9.5212    1.1530    0.0000 H   0  0  0  0  0  0  0  0  0  0  0  0
    9.2942    0.3060    0.0000 H   0  0  0  0  0  0  0  0  0  0  0  0
    8.9282   -2.0600    0.0000 H   0  0  0  0  0  0  0  0  0  0  0  0
   10.8681   -2.9400    0.0000 H   0  0  0  0  0  0  0  0  0  0  0  0
    7.4040    0.0600    0.0000 H   0  0  0  0  0  0  0  0  0  0  0  0
    7.7331   -1.3700    0.0000 H   0  0  0  0  0  0  0  0  0  0  0  0
    7.4776    0.6423    0.0000 H   0  0  0  0  0  0  0  0  0  0  0  0
    7.0791    1.3326    0.0000 H   0  0  0  0  0  0  0  0  0  0  0  0
   11.8078   -3.8577    0.0000 H   0  0  0  0  0  0  0  0  0  0  0  0
   11.4092   -3.1674    0.0000 H   0  0  0  0  0  0  0  0  0  0  0  0
    9.2531   -3.1674    0.0000 H   0  0  0  0  0  0  0  0  0  0  0  0
    8.8546   -3.8577    0.0000 H   0  0  0  0  0  0  0  0  0  0  0  0
    6.6116    2.1423    0.0000 H   0  0  0  0  0  0  0  0  0  0  0  0
    6.2131    2.8326    0.0000 H   0  0  0  0  0  0  0  0  0  0  0  0
    5.1350   -1.6300    0.0000 H   0  0  0  0  0  0  0  0  0  0  0  0
    4.5244    2.8577    0.0000 H   0  0  0  0  0  0  0  0  0  0  0  0
    4.9230    2.1674    0.0000 H   0  0  0  0  0  0  0  0  0  0  0  0
    6.5380   -2.0600    0.0000 H   0  0  0  0  0  0  0  0  0  0  0  0
    5.7456    3.6423    0.0000 H   0  0  0  0  0  0  0  0  0  0  0  0
    5.3471    4.3326    0.0000 H   0  0  0  0  0  0  0  0  0  0  0  0
   10.5772   -4.7500    0.0000 H   0  0  0  0  0  0  0  0  0  0  0  0
   11.1972   -5.3700    0.0000 H   0  0  0  0  0  0  0  0  0  0  0  0
   11.8172   -4.7500    0.0000 H   0  0  0  0  0  0  0  0  0  0  0  0
    8.8451   -4.7500    0.0000 H   0  0  0  0  0  0  0  0  0  0  0  0
    9.4651   -5.3700    0.0000 H   0  0  0  0  0  0  0  0  0  0  0  0
   10.0851   -4.7500    0.0000 H   0  0  0  0  0  0  0  0  0  0  0  0
    6.5380   -4.4400    0.0000 H   0  0  0  0  0  0  0  0  0  0  0  0
    4.9230   -4.6674    0.0000 H   0  0  0  0  0  0  0  0  0  0  0  0
    4.5244   -5.3577    0.0000 H   0  0  0  0  0  0  0  0  0  0  0  0
    3.6584    4.3577    0.0000 H   0  0  0  0  0  0  0  0  0  0  0  0
    4.0569    3.6674    0.0000 H   0  0  0  0  0  0  0  0  0  0  0  0
    5.1350   -6.8700    0.0000 H   0  0  0  0  0  0  0  0  0  0  0  0
    4.6675   -1.2750    0.0000 H   0  0  0  0  0  0  0  0  0  0  0  0
    3.8705   -1.2750    0.0000 H   0  0  0  0  0  0  0  0  0  0  0  0
    6.5380   -3.4400    0.0000 H   0  0  0  0  0  0  0  0  0  0  0  0
    4.8796    5.1423    0.0000 H   0  0  0  0  0  0  0  0  0  0  0  0
    4.4810    5.8326    0.0000 H   0  0  0  0  0  0  0  0  0  0  0  0
    3.9590   -6.2131    0.0000 H   0  0  0  0  0  0  0  0  0  0  0  0
    3.7320   -7.0600    0.0000 H   0  0  0  0  0  0  0  0  0  0  0  0
    4.5790   -7.2869    0.0000 H   0  0  0  0  0  0  0  0  0  0  0  0
    5.6910   -7.2869    0.0000 H   0  0  0  0  0  0  0  0  0  0  0  0
    6.5380   -7.0600    0.0000 H   0  0  0  0  0  0  0  0  0  0  0  0
    6.3110   -6.2131    0.0000 H   0  0  0  0  0  0  0  0  0  0  0  0
    2.7924    5.8577    0.0000 H   0  0  0  0  0  0  0  0  0  0  0  0
    3.1909    5.1674    0.0000 H   0  0  0  0  0  0  0  0  0  0  0  0
    4.0230    6.7500    0.0000 H   0  0  0  0  0  0  0  0  0  0  0  0
    3.4030    7.3700    0.0000 H   0  0  0  0  0  0  0  0  0  0  0  0
    2.7830    6.7500    0.0000 H   0  0  0  0  0  0  0  0  0  0  0  0
    7.4040   -6.5600    0.0000 H   0  0  0  0  0  0  0  0  0  0  0  0
    2.0000   -2.0600    0.0000 H   0  0  0  0  0  0  0  0  0  0  0  0
  1 19  2  0  0  0  0
  2 22  2  0  0  0  0
  3 26  2  0  0  0  0
  4 27  2  0  0  0  0
  5 38  2  0  0  0  0
  6 44  1  0  0  0  0
  6103  1  0  0  0  0
  7 44  2  0  0  0  0
  8 45  1  0  0  0  0
  8104  1  0  0  0  0
  9 45  2  0  0  0  0
 15 10  1  6  0  0  0
 10 22  1  0  0  0  0
 10 57  1  0  0  0  0
 11 19  1  0  0  0  0
 11 21  1  0  0  0  0
 11 60  1  0  0  0  0
 12 26  1  0  0  0  0
 29 12  1  6  0  0  0
 12 72  1  0  0  0  0
 34 13  1  6  0  0  0
 13 38  1  0  0  0  0
 13 89  1  0  0  0  0
 14 15  1  0  0  0  0
 14 16  1  0  0  0  0
 14 17  1  0  0  0  0
 14 18  1  0  0  0  0
 15 19  1  0  0  0  0
 15 47  1  0  0  0  0
 16 48  1  0  0  0  0
 16 49  1  0  0  0  0
 16 50  1  0  0  0  0
 17 51  1  0  0  0  0
 17 52  1  0  0  0  0
 17 53  1  0  0  0  0
 18 54  1  0  0  0  0
 18 55  1  0  0  0  0
 18 56  1  0  0  0  0
 20 22  1  0  0  0  0
 20 24  1  0  0  0  0
 20 25  1  0  0  0  0
 20 58  1  0  0  0  0
 21 23  1  0  0  0  0
 21 26  1  0  0  0  0
 21 59  1  0  0  0  0
 23 27  1  0  0  0  0
 23 61  1  0  0  0  0
 23 62  1  0  0  0  0
 24 32  1  0  0  0  0
 24 63  1  0  0  0  0
 24 64  1  0  0  0  0
 25 33  1  0  0  0  0
 25 65  1  0  0  0  0
 25 66  1  0  0  0  0
 27 28  1  0  0  0  0
 28 30  1  0  0  0  0
 28 67  1  0  0  0  0
 28 68  1  0  0  0  0
 29 38  1  0  0  0  0
 29 39  1  0  0  0  0
 29 69  1  0  0  0  0
 30 31  1  0  0  0  0
 30 70  1  0  0  0  0
 30 71  1  0  0  0  0
 31 36  1  0  0  0  0
 31 73  1  0  0  0  0
 31 74  1  0  0  0  0
 32 75  1  0  0  0  0
 32 76  1  0  0  0  0
 32 77  1  0  0  0  0
 33 78  1  0  0  0  0
 33 79  1  0  0  0  0
 33 80  1  0  0  0  0
 34 35  1  0  0  0  0
 34 44  1  0  0  0  0
 34 81  1  0  0  0  0
 35 37  1  0  0  0  0
 35 82  1  0  0  0  0
 35 83  1  0  0  0  0
 36 40  1  0  0  0  0
 36 84  1  0  0  0  0
 36 85  1  0  0  0  0
 37 42  1  0  0  0  0
 37 43  1  0  0  0  0
 37 86  1  0  0  0  0
 39 45  1  0  0  0  0
 39 87  1  0  0  0  0
 39 88  1  0  0  0  0
 40 41  1  0  0  0  0
 40 90  1  0  0  0  0
 40 91  1  0  0  0  0
 41 46  1  0  0  0  0
 41 98  1  0  0  0  0
 41 99  1  0  0  0  0
 42 92  1  0  0  0  0
 42 93  1  0  0  0  0
 42 94  1  0  0  0  0
 43 95  1  0  0  0  0
 43 96  1  0  0  0  0
 43 97  1  0  0  0  0
 46100  1  0  0  0  0
 46101  1  0  0  0  0
 46102  1  0  0  0  0
M  END
> <PUBCHEM_COMPOUND_CID>
502962
> <PUBCHEM_COMPOUND_CANONICALIZED>
1
> <PUBCHEM_CACTVS_COMPLEXITY>
1030
> <PUBCHEM_CACTVS_HBOND_ACCEPTOR>
9
> <PUBCHEM_CACTVS_HBOND_DONOR>
6
> <PUBCHEM_CACTVS_ROTATABLE_BOND>
24
> <PUBCHEM_CACTVS_SUBSKEYS>
AAADcfB/vAAAAAAAAAAAAAAAAAAAAAAAAAAAAAAAAAAAAAAAAAAAHgAQCAAADyzBgAQCCALAAgAIAIGQGAAAAAAAAAAAAIGIAAACQBoAgCAUQAAGFgCQAAG/iICPAAAAAAAAAAAAAAAAAAAAAAAAAAAAAA==
> <PUBCHEM_IUPAC_OPENEYE_NAME>
(2S)-2-[[(2S)-3-carboxy-2-[[2-[[(2S)-2-(2-ethylbutanoylamino)-3,3-dimethyl-butanoyl]amino]-4-oxo-undecanoyl]amino]propanoyl]amino]-4-methyl-pentanoic acid
> <PUBCHEM_IUPAC_CAS_NAME>
(2S)-2-[[(2S)-3-carboxy-2-[[2-[[(2S)-2-[(2-ethyl-1-oxobutyl)amino]-3,3-dimethyl-1-oxobutyl]amino]-1,4-dioxoundecyl]amino]-1-oxopropyl]amino]-4-methylpentanoic acid
> <PUBCHEM_IUPAC_NAME_MARKUP>
(2<I>S</I>)-2-[[(2<I>S</I>)-3-carboxy-2-[[2-[[(2<I>S</I>)-2-(2-ethylbutanoylamino)-3,3-dimethylbutanoyl]amino]-4-oxoundecanoyl]amino]propanoyl]amino]-4-methylpentanoic acid
> <PUBCHEM_IUPAC_NAME>
(2S)-2-[[(2S)-3-carboxy-2-[[2-[[(2S)-2-(2-ethylbutanoylamino)-3,3-dimethylbutanoyl]amino]-4-oxoundecanoyl]amino]propanoyl]amino]-4-methylpentanoic acid
> <PUBCHEM_IUPAC_SYSTEMATIC_NAME>
(2S)-2-[[(2S)-2-[[2-[[(2S)-2-(2-ethylbutanoylamino)-3,3-dimethyl-butanoyl]amino]-4-oxidanylidene-undecanoyl]amino]-4-oxidanyl-4-oxidanylidene-butanoyl]amino]-4-methyl-pentanoic acid
> <PUBCHEM_IUPAC_TRADITIONAL_NAME>
(2S)-2-[[(2S)-3-carboxy-2-[[2-[[(2S)-2-(2-ethylbutanoylamino)-3,3-dimethyl-butanoyl]amino]-4-keto-undecanoyl]amino]propanoyl]amino]-4-methyl-valeric acid
> <PUBCHEM_IUPAC_INCHI>
InChI=1S/C33H58N4O9/c1-9-12-13-14-15-16-22(38)18-23(35-31(44)27(33(6,7)8)37-28(41)21(10-2)11-3)29(42)34-24(19-26(39)40)30(43)36-25(32(45)46)17-20(4)5/h20-21,23-25,27H,9-19H2,1-8H3,(H,34,42)(H,35,44)(H,36,43)(H,37,41)(H,39,40)(H,45,46)/t23?,24-,25-,27+/m0/s1
> <PUBCHEM_IUPAC_INCHIKEY>
JHDWYMDPFCDBEL-QVZFMRBZSA-N
> <PUBCHEM_XLOGP3_AA>
4.6
> <PUBCHEM_EXACT_MASS>
654.42037944
> <PUBCHEM_MOLECULAR_FORMULA>
C33H58N4O9
> <PUBCHEM_MOLECULAR_WEIGHT>
654.8
> <PUBCHEM_OPENEYE_CAN_SMILES>
CCCCCCCC(=O)CC(C(=O)NC(CC(=O)O)C(=O)NC(CC(C)C)C(=O)O)NC(=O)C(C(C)(C)C)NC(=O)C(CC)CC
> <PUBCHEM_OPENEYE_ISO_SMILES>
CCCCCCCC(=O)CC(C(=O)N[C@@H](CC(=O)O)C(=O)N[C@@H](CC(C)C)C(=O)O)NC(=O)[C@H](C(C)(C)C)NC(=O)C(CC)CC
> <PUBCHEM_CACTVS_TPSA>
208
> <PUBCHEM_MONOISOTOPIC_WEIGHT>
654.42037944
> <PUBCHEM_TOTAL_CHARGE>
0
> <PUBCHEM_HEAVY_ATOM_COUNT>
46
> <PUBCHEM_ATOM_DEF_STEREO_COUNT>
3
> <PUBCHEM_ATOM_UDEF_STEREO_COUNT>
1
> <PUBCHEM_BOND_DEF_STEREO_COUNT>
0
> <PUBCHEM_BOND_UDEF_STEREO_COUNT>
0
> <PUBCHEM_ISOTOPIC_ATOM_COUNT>
0
> <PUBCHEM_COMPONENT_COUNT>
1
> <PUBCHEM_CACTVS_TAUTO_COUNT>
-1
> <PUBCHEM_COORDINATE_TYPE>
1
5
255
> <PUBCHEM_BONDANNOTATIONS>
15  10  6
29  12  6
34  13  6
21  23  3
$$$$
