502971
  -OEChem-10302200282D
116117  0     1  0  0  0  0  0999 V2000
    8.9282   -0.5000    0.0000 O   0  0  0  0  0  0  0  0  0  0  0  0
   11.5263    2.0000    0.0000 O   0  0  0  0  0  0  0  0  0  0  0  0
   14.1244    5.5000    0.0000 O   0  0  0  0  0  0  0  0  0  0  0  0
   14.9904    1.0000    0.0000 O   0  0  0  0  0  0  0  0  0  0  0  0
    6.3301    2.0000    0.0000 O   0  0  0  0  0  0  0  0  0  0  0  0
   14.9904    2.0000    0.0000 O   0  0  0  0  0  0  0  0  0  0  0  0
   15.8564   -2.5000    0.0000 O   0  0  0  0  0  0  0  0  0  0  0  0
   13.2583   -5.0000    0.0000 O   0  0  0  0  0  0  0  0  0  0  0  0
   12.3923   -3.5000    0.0000 O   0  0  0  0  0  0  0  0  0  0  0  0
   17.5885   -0.5000    0.0000 O   0  0  0  0  0  0  0  0  0  0  0  0
   16.7224   -2.0000    0.0000 O   0  0  0  0  0  0  0  0  0  0  0  0
    9.7942    1.0000    0.0000 N   0  0  0  0  0  0  0  0  0  0  0  0
    7.1962    0.5000    0.0000 N   0  0  0  0  0  0  0  0  0  0  0  0
   12.3923    0.5000    0.0000 N   0  0  0  0  0  0  0  0  0  0  0  0
   14.1244    3.5000    0.0000 N   0  0  0  0  0  0  0  0  0  0  0  0
   14.1244   -0.5000    0.0000 N   0  0  0  0  0  0  0  0  0  0  0  0
   14.1244   -2.5000    0.0000 N   0  0  0  0  0  0  0  0  0  0  0  0
   10.6603    0.5000    0.0000 C   0  0  1  0  0  0  0  0  0  0  0  0
   10.6603   -0.5000    0.0000 C   0  0  2  0  0  0  0  0  0  0  0  0
    8.0622    1.0000    0.0000 C   0  0  1  0  0  0  0  0  0  0  0  0
    8.0622    2.0000    0.0000 C   0  0  0  0  0  0  0  0  0  0  0  0
    9.7942   -1.0000    0.0000 C   0  0  0  0  0  0  0  0  0  0  0  0
    8.9282    0.5000    0.0000 C   0  0  0  0  0  0  0  0  0  0  0  0
   11.5263    1.0000    0.0000 C   0  0  0  0  0  0  0  0  0  0  0  0
   11.5263   -1.0000    0.0000 C   0  0  0  0  0  0  0  0  0  0  0  0
   13.2583    1.0000    0.0000 C   0  0  3  0  0  0  0  0  0  0  0  0
   13.2583    2.0000    0.0000 C   0  0  0  0  0  0  0  0  0  0  0  0
    7.1962    2.5000    0.0000 C   0  0  0  0  0  0  0  0  0  0  0  0
    8.9282    2.5000    0.0000 C   0  0  0  0  0  0  0  0  0  0  0  0
    9.7942   -2.0000    0.0000 C   0  0  0  0  0  0  0  0  0  0  0  0
   14.1244    0.5000    0.0000 C   0  0  0  0  0  0  0  0  0  0  0  0
    6.3301    1.0000    0.0000 C   0  0  0  0  0  0  0  0  0  0  0  0
   14.1244    2.5000    0.0000 C   0  0  0  0  0  0  0  0  0  0  0  0
    7.1962   -0.5000    0.0000 C   0  0  0  0  0  0  0  0  0  0  0  0
   14.9904   -1.0000    0.0000 C   0  0  2  0  0  0  0  0  0  0  0  0
   14.9904    4.0000    0.0000 C   0  0  0  0  0  0  0  0  0  0  0  0
   13.2583    4.0000    0.0000 C   0  0  0  0  0  0  0  0  0  0  0  0
    5.4641    0.5000    0.0000 C   0  0  0  0  0  0  0  0  0  0  0  0
   14.1244   -3.5000    0.0000 C   0  0  1  0  0  0  0  0  0  0  0  0
   14.9904   -4.0000    0.0000 C   0  0  0  0  0  0  0  0  0  0  0  0
   14.9904    5.0000    0.0000 C   0  0  0  0  0  0  0  0  0  0  0  0
   13.2583    5.0000    0.0000 C   0  0  0  0  0  0  0  0  0  0  0  0
   14.9904   -5.0000    0.0000 C   0  0  0  0  0  0  0  0  0  0  0  0
    4.5981    1.0000    0.0000 C   0  0  0  0  0  0  0  0  0  0  0  0
   14.9904   -2.0000    0.0000 C   0  0  0  0  0  0  0  0  0  0  0  0
   15.8564   -0.5000    0.0000 C   0  0  0  0  0  0  0  0  0  0  0  0
   15.8564   -5.5000    0.0000 C   0  0  0  0  0  0  0  0  0  0  0  0
   14.1244   -5.5000    0.0000 C   0  0  0  0  0  0  0  0  0  0  0  0
    3.7320    0.5000    0.0000 C   0  0  0  0  0  0  0  0  0  0  0  0
   13.2583   -4.0000    0.0000 C   0  0  0  0  0  0  0  0  0  0  0  0
   16.7224   -1.0000    0.0000 C   0  0  0  0  0  0  0  0  0  0  0  0
    2.8660    1.0000    0.0000 C   0  0  0  0  0  0  0  0  0  0  0  0
    3.7320   -0.5000    0.0000 C   0  0  0  0  0  0  0  0  0  0  0  0
    2.0000    0.5000    0.0000 C   0  0  0  0  0  0  0  0  0  0  0  0
    2.8660   -1.0000    0.0000 C   0  0  0  0  0  0  0  0  0  0  0  0
    2.0000   -0.5000    0.0000 C   0  0  0  0  0  0  0  0  0  0  0  0
   10.6603    1.1200    0.0000 H   0  0  0  0  0  0  0  0  0  0  0  0
   11.1972   -0.1900    0.0000 H   0  0  0  0  0  0  0  0  0  0  0  0
    8.0622    0.3800    0.0000 H   0  0  0  0  0  0  0  0  0  0  0  0
    8.0622    2.6200    0.0000 H   0  0  0  0  0  0  0  0  0  0  0  0
    9.5822   -0.4174    0.0000 H   0  0  0  0  0  0  0  0  0  0  0  0
    9.1836   -1.1077    0.0000 H   0  0  0  0  0  0  0  0  0  0  0  0
    9.7942    1.6200    0.0000 H   0  0  0  0  0  0  0  0  0  0  0  0
   11.2163   -1.5369    0.0000 H   0  0  0  0  0  0  0  0  0  0  0  0
   12.0632   -1.3100    0.0000 H   0  0  0  0  0  0  0  0  0  0  0  0
   11.8363   -0.4631    0.0000 H   0  0  0  0  0  0  0  0  0  0  0  0
   13.2583    0.3800    0.0000 H   0  0  0  0  0  0  0  0  0  0  0  0
   12.3923   -0.1200    0.0000 H   0  0  0  0  0  0  0  0  0  0  0  0
   13.0463    2.5826    0.0000 H   0  0  0  0  0  0  0  0  0  0  0  0
   12.6477    1.8923    0.0000 H   0  0  0  0  0  0  0  0  0  0  0  0
    7.5062    3.0369    0.0000 H   0  0  0  0  0  0  0  0  0  0  0  0
    6.6592    2.8100    0.0000 H   0  0  0  0  0  0  0  0  0  0  0  0
    6.8862    1.9631    0.0000 H   0  0  0  0  0  0  0  0  0  0  0  0
    9.2382    1.9631    0.0000 H   0  0  0  0  0  0  0  0  0  0  0  0
    9.4651    2.8100    0.0000 H   0  0  0  0  0  0  0  0  0  0  0  0
    8.6182    3.0369    0.0000 H   0  0  0  0  0  0  0  0  0  0  0  0
    9.1742   -2.0000    0.0000 H   0  0  0  0  0  0  0  0  0  0  0  0
    9.7942   -2.6200    0.0000 H   0  0  0  0  0  0  0  0  0  0  0  0
   10.4142   -2.0000    0.0000 H   0  0  0  0  0  0  0  0  0  0  0  0
    6.5762   -0.5000    0.0000 H   0  0  0  0  0  0  0  0  0  0  0  0
    7.1962   -1.1200    0.0000 H   0  0  0  0  0  0  0  0  0  0  0  0
    7.8162   -0.5000    0.0000 H   0  0  0  0  0  0  0  0  0  0  0  0
   14.9904   -0.3800    0.0000 H   0  0  0  0  0  0  0  0  0  0  0  0
   15.2024    3.4174    0.0000 H   0  0  0  0  0  0  0  0  0  0  0  0
   15.6010    4.1077    0.0000 H   0  0  0  0  0  0  0  0  0  0  0  0
   12.6477    4.1077    0.0000 H   0  0  0  0  0  0  0  0  0  0  0  0
   13.0463    3.4174    0.0000 H   0  0  0  0  0  0  0  0  0  0  0  0
    5.0656    0.0251    0.0000 H   0  0  0  0  0  0  0  0  0  0  0  0
    5.8626    0.0251    0.0000 H   0  0  0  0  0  0  0  0  0  0  0  0
   13.5874   -0.8100    0.0000 H   0  0  0  0  0  0  0  0  0  0  0  0
   13.5874   -3.1900    0.0000 H   0  0  0  0  0  0  0  0  0  0  0  0
   15.6010   -4.1077    0.0000 H   0  0  0  0  0  0  0  0  0  0  0  0
   15.2024   -3.4174    0.0000 H   0  0  0  0  0  0  0  0  0  0  0  0
   15.6010    4.8923    0.0000 H   0  0  0  0  0  0  0  0  0  0  0  0
   15.2024    5.5826    0.0000 H   0  0  0  0  0  0  0  0  0  0  0  0
   13.0463    5.5826    0.0000 H   0  0  0  0  0  0  0  0  0  0  0  0
   12.6477    4.8923    0.0000 H   0  0  0  0  0  0  0  0  0  0  0  0
   15.5273   -4.6900    0.0000 H   0  0  0  0  0  0  0  0  0  0  0  0
    4.9966    1.4750    0.0000 H   0  0  0  0  0  0  0  0  0  0  0  0
    4.1996    1.4750    0.0000 H   0  0  0  0  0  0  0  0  0  0  0  0
   16.2549   -0.0251    0.0000 H   0  0  0  0  0  0  0  0  0  0  0  0
   15.4579   -0.0251    0.0000 H   0  0  0  0  0  0  0  0  0  0  0  0
   13.5874   -2.1900    0.0000 H   0  0  0  0  0  0  0  0  0  0  0  0
   15.5464   -6.0369    0.0000 H   0  0  0  0  0  0  0  0  0  0  0  0
   16.3933   -5.8100    0.0000 H   0  0  0  0  0  0  0  0  0  0  0  0
   16.1664   -4.9631    0.0000 H   0  0  0  0  0  0  0  0  0  0  0  0
   13.8144   -4.9631    0.0000 H   0  0  0  0  0  0  0  0  0  0  0  0
   13.5874   -5.8100    0.0000 H   0  0  0  0  0  0  0  0  0  0  0  0
   14.4344   -6.0369    0.0000 H   0  0  0  0  0  0  0  0  0  0  0  0
    2.8660    1.6200    0.0000 H   0  0  0  0  0  0  0  0  0  0  0  0
    4.2690   -0.8100    0.0000 H   0  0  0  0  0  0  0  0  0  0  0  0
   12.7214   -5.3100    0.0000 H   0  0  0  0  0  0  0  0  0  0  0  0
    1.4631    0.8100    0.0000 H   0  0  0  0  0  0  0  0  0  0  0  0
    2.8660   -1.6200    0.0000 H   0  0  0  0  0  0  0  0  0  0  0  0
    1.4631   -0.8100    0.0000 H   0  0  0  0  0  0  0  0  0  0  0  0
   18.1254   -0.8100    0.0000 H   0  0  0  0  0  0  0  0  0  0  0  0
  1 23  2  0  0  0  0
  2 24  2  0  0  0  0
  3 41  1  0  0  0  0
  3 42  1  0  0  0  0
  4 31  2  0  0  0  0
  5 32  2  0  0  0  0
  6 33  2  0  0  0  0
  7 45  2  0  0  0  0
  8 50  1  0  0  0  0
  8112  1  0  0  0  0
  9 50  2  0  0  0  0
 10 51  1  0  0  0  0
 10116  1  0  0  0  0
 11 51  2  0  0  0  0
 18 12  1  6  0  0  0
 12 23  1  0  0  0  0
 12 63  1  0  0  0  0
 20 13  1  1  0  0  0
 13 32  1  0  0  0  0
 13 34  1  0  0  0  0
 14 24  1  0  0  0  0
 14 26  1  0  0  0  0
 14 68  1  0  0  0  0
 15 33  1  0  0  0  0
 15 36  1  0  0  0  0
 15 37  1  0  0  0  0
 16 31  1  0  0  0  0
 35 16  1  1  0  0  0
 16 90  1  0  0  0  0
 39 17  1  1  0  0  0
 17 45  1  0  0  0  0
 17103  1  0  0  0  0
 18 19  1  0  0  0  0
 18 24  1  0  0  0  0
 18 57  1  0  0  0  0
 19 22  1  0  0  0  0
 19 25  1  1  0  0  0
 19 58  1  0  0  0  0
 20 21  1  0  0  0  0
 20 23  1  0  0  0  0
 20 59  1  0  0  0  0
 21 28  1  0  0  0  0
 21 29  1  0  0  0  0
 21 60  1  0  0  0  0
 22 30  1  0  0  0  0
 22 61  1  0  0  0  0
 22 62  1  0  0  0  0
 25 64  1  0  0  0  0
 25 65  1  0  0  0  0
 25 66  1  0  0  0  0
 26 27  1  0  0  0  0
 26 31  1  0  0  0  0
 26 67  1  0  0  0  0
 27 33  1  0  0  0  0
 27 69  1  0  0  0  0
 27 70  1  0  0  0  0
 28 71  1  0  0  0  0
 28 72  1  0  0  0  0
 28 73  1  0  0  0  0
 29 74  1  0  0  0  0
 29 75  1  0  0  0  0
 29 76  1  0  0  0  0
 30 77  1  0  0  0  0
 30 78  1  0  0  0  0
 30 79  1  0  0  0  0
 32 38  1  0  0  0  0
 34 80  1  0  0  0  0
 34 81  1  0  0  0  0
 34 82  1  0  0  0  0
 35 45  1  0  0  0  0
 35 46  1  0  0  0  0
 35 83  1  0  0  0  0
 36 41  1  0  0  0  0
 36 84  1  0  0  0  0
 36 85  1  0  0  0  0
 37 42  1  0  0  0  0
 37 86  1  0  0  0  0
 37 87  1  0  0  0  0
 38 44  1  0  0  0  0
 38 88  1  0  0  0  0
 38 89  1  0  0  0  0
 39 40  1  0  0  0  0
 39 50  1  0  0  0  0
 39 91  1  0  0  0  0
 40 43  1  0  0  0  0
 40 92  1  0  0  0  0
 40 93  1  0  0  0  0
 41 94  1  0  0  0  0
 41 95  1  0  0  0  0
 42 96  1  0  0  0  0
 42 97  1  0  0  0  0
 43 47  1  0  0  0  0
 43 48  1  0  0  0  0
 43 98  1  0  0  0  0
 44 49  1  0  0  0  0
 44 99  1  0  0  0  0
 44100  1  0  0  0  0
 46 51  1  0  0  0  0
 46101  1  0  0  0  0
 46102  1  0  0  0  0
 47104  1  0  0  0  0
 47105  1  0  0  0  0
 47106  1  0  0  0  0
 48107  1  0  0  0  0
 48108  1  0  0  0  0
 48109  1  0  0  0  0
 49 52  2  0  0  0  0
 49 53  1  0  0  0  0
 52 54  1  0  0  0  0
 52110  1  0  0  0  0
 53 55  2  0  0  0  0
 53111  1  0  0  0  0
 54 56  2  0  0  0  0
 54113  1  0  0  0  0
 55 56  1  0  0  0  0
 55114  1  0  0  0  0
 56115  1  0  0  0  0
M  END
> <PUBCHEM_COMPOUND_CID>
502971
> <PUBCHEM_COMPOUND_CANONICALIZED>
1
> <PUBCHEM_CACTVS_COMPLEXITY>
1360
> <PUBCHEM_CACTVS_HBOND_ACCEPTOR>
11
> <PUBCHEM_CACTVS_HBOND_DONOR>
6
> <PUBCHEM_CACTVS_ROTATABLE_BOND>
22
> <PUBCHEM_CACTVS_SUBSKEYS>
AAADcfB/vAAAAAAAAAAAAAAAAAAAAAAAAAA8QAAAAAAAAAABAAAAHgAQCAAADSjhmAYyCIPABgCIAiHSGAACAAAgAAAIiIGIAIgKYDqA0TCXYAAmlgCYiAe/iICOAAAAAAAAAAAAAAAAAAAAAAAAAAAAAA==
> <PUBCHEM_IUPAC_OPENEYE_NAME>
(2S)-2-[[(2S)-3-carboxy-2-[[2-[[(2S,3S)-3-methyl-2-[[(2S)-3-methyl-2-[methyl(3-phenylpropanoyl)amino]butanoyl]amino]pentanoyl]amino]-4-morpholino-4-oxo-butanoyl]amino]propanoyl]amino]-4-methyl-pentanoic acid
> <PUBCHEM_IUPAC_CAS_NAME>
(2S)-2-[[(2S)-3-carboxy-2-[[2-[[(2S,3S)-3-methyl-2-[[(2S)-3-methyl-2-[methyl-(1-oxo-3-phenylpropyl)amino]-1-oxobutyl]amino]-1-oxopentyl]amino]-4-(4-morpholinyl)-1,4-dioxobutyl]amino]-1-oxopropyl]amino]-4-methylpentanoic acid
> <PUBCHEM_IUPAC_NAME_MARKUP>
(2<I>S</I>)-2-[[(2<I>S</I>)-3-carboxy-2-[[2-[[(2<I>S</I>,3<I>S</I>)-3-methyl-2-[[(2<I>S</I>)-3-methyl-2-[methyl(3-phenylpropanoyl)amino]butanoyl]amino]pentanoyl]amino]-4-morpholin-4-yl-4-oxobutanoyl]amino]propanoyl]amino]-4-methylpentanoic acid
> <PUBCHEM_IUPAC_NAME>
(2S)-2-[[(2S)-3-carboxy-2-[[2-[[(2S,3S)-3-methyl-2-[[(2S)-3-methyl-2-[methyl(3-phenylpropanoyl)amino]butanoyl]amino]pentanoyl]amino]-4-morpholin-4-yl-4-oxobutanoyl]amino]propanoyl]amino]-4-methylpentanoic acid
> <PUBCHEM_IUPAC_SYSTEMATIC_NAME>
(2S)-4-methyl-2-[[(2S)-2-[[2-[[(2S,3S)-3-methyl-2-[[(2S)-3-methyl-2-[methyl(3-phenylpropanoyl)amino]butanoyl]amino]pentanoyl]amino]-4-morpholin-4-yl-4-oxidanylidene-butanoyl]amino]-4-oxidanyl-4-oxidanylidene-butanoyl]amino]pentanoic acid
> <PUBCHEM_IUPAC_TRADITIONAL_NAME>
(2S)-2-[[(2S)-3-carboxy-2-[[2-[[(2S,3S)-2-[[(2S)-2-[hydrocinnamoyl(methyl)amino]-3-methyl-butanoyl]amino]-3-methyl-pentanoyl]amino]-4-keto-4-morpholino-butanoyl]amino]propanoyl]amino]-4-methyl-valeric acid
> <PUBCHEM_IUPAC_INCHI>
InChI=1S/C39H60N6O11/c1-8-25(6)33(43-38(53)34(24(4)5)44(7)30(46)15-14-26-12-10-9-11-13-26)37(52)41-27(21-31(47)45-16-18-56-19-17-45)35(50)40-28(22-32(48)49)36(51)42-29(39(54)55)20-23(2)3/h9-13,23-25,27-29,33-34H,8,14-22H2,1-7H3,(H,40,50)(H,41,52)(H,42,51)(H,43,53)(H,48,49)(H,54,55)/t25-,27?,28-,29-,33-,34-/m0/s1
> <PUBCHEM_IUPAC_INCHIKEY>
VKTSJQIRKOPZHL-KTRKGMDOSA-N
> <PUBCHEM_XLOGP3_AA>
2
> <PUBCHEM_EXACT_MASS>
788.43200675
> <PUBCHEM_MOLECULAR_FORMULA>
C39H60N6O11
> <PUBCHEM_MOLECULAR_WEIGHT>
788.9
> <PUBCHEM_OPENEYE_CAN_SMILES>
CCC(C)C(C(=O)NC(CC(=O)N1CCOCC1)C(=O)NC(CC(=O)O)C(=O)NC(CC(C)C)C(=O)O)NC(=O)C(C(C)C)N(C)C(=O)CCC2=CC=CC=C2
> <PUBCHEM_OPENEYE_ISO_SMILES>
CC[C@H](C)[C@@H](C(=O)NC(CC(=O)N1CCOCC1)C(=O)N[C@@H](CC(=O)O)C(=O)N[C@@H](CC(C)C)C(=O)O)NC(=O)[C@H](C(C)C)N(C)C(=O)CCC2=CC=CC=C2
> <PUBCHEM_CACTVS_TPSA>
241
> <PUBCHEM_MONOISOTOPIC_WEIGHT>
788.43200675
> <PUBCHEM_TOTAL_CHARGE>
0
> <PUBCHEM_HEAVY_ATOM_COUNT>
56
> <PUBCHEM_ATOM_DEF_STEREO_COUNT>
5
> <PUBCHEM_ATOM_UDEF_STEREO_COUNT>
1
> <PUBCHEM_BOND_DEF_STEREO_COUNT>
0
> <PUBCHEM_BOND_UDEF_STEREO_COUNT>
0
> <PUBCHEM_ISOTOPIC_ATOM_COUNT>
0
> <PUBCHEM_COMPONENT_COUNT>
1
> <PUBCHEM_CACTVS_TAUTO_COUNT>
-1
> <PUBCHEM_COORDINATE_TYPE>
1
5
255
> <PUBCHEM_BONDANNOTATIONS>
18  12  6
20  13  5
35  16  5
39  17  5
19  25  5
26  27  3
49  52  8
49  53  8
52  54  8
53  55  8
54  56  8
55  56  8
$$$$
