502985
  -OEChem-10302200282D
122124  0     1  0  0  0  0  0999 V2000
    7.1962    0.2500    0.0000 O   0  0  0  0  0  0  0  0  0  0  0  0
    8.0622   -3.2500    0.0000 O   0  0  0  0  0  0  0  0  0  0  0  0
    9.7942    2.7500    0.0000 O   0  0  0  0  0  0  0  0  0  0  0  0
   13.2583    1.7500    0.0000 O   0  0  0  0  0  0  0  0  0  0  0  0
    4.5981   -4.2500    0.0000 O   0  0  0  0  0  0  0  0  0  0  0  0
    8.9282    3.2500    0.0000 O   0  0  0  0  0  0  0  0  0  0  0  0
   14.1244   -1.7500    0.0000 O   0  0  0  0  0  0  0  0  0  0  0  0
   12.3923   -1.7500    0.0000 O   0  0  0  0  0  0  0  0  0  0  0  0
   12.3923    4.2500    0.0000 O   0  0  0  0  0  0  0  0  0  0  0  0
   13.2583    2.7500    0.0000 O   0  0  0  0  0  0  0  0  0  0  0  0
    7.1962   -1.7500    0.0000 N   0  0  0  0  0  0  0  0  0  0  0  0
    8.9282    0.2500    0.0000 N   0  0  0  0  0  0  0  0  0  0  0  0
    6.3301   -4.2500    0.0000 N   0  0  0  0  0  0  0  0  0  0  0  0
   10.6603    1.2500    0.0000 N   0  0  0  0  0  0  0  0  0  0  0  0
   12.3923    0.2500    0.0000 N   0  0  0  0  0  0  0  0  0  0  0  0
    7.1962    3.2500    0.0000 N   0  0  0  0  0  0  0  0  0  0  0  0
    8.9282   -1.7500    0.0000 C   0  0  2  0  0  0  0  0  0  0  0  0
    8.0622   -1.2500    0.0000 C   0  0  1  0  0  0  0  0  0  0  0  0
    9.7942   -1.2500    0.0000 C   0  0  0  0  0  0  0  0  0  0  0  0
    6.3301   -3.2500    0.0000 C   0  0  1  0  0  0  0  0  0  0  0  0
    8.0622   -0.2500    0.0000 C   0  0  0  0  0  0  0  0  0  0  0  0
    8.9282   -2.7500    0.0000 C   0  0  0  0  0  0  0  0  0  0  0  0
    5.4641   -2.7500    0.0000 C   0  0  0  0  0  0  0  0  0  0  0  0
    7.1962   -2.7500    0.0000 C   0  0  0  0  0  0  0  0  0  0  0  0
    8.9282    1.2500    0.0000 C   0  0  1  0  0  0  0  0  0  0  0  0
   10.6603   -1.7500    0.0000 C   0  0  0  0  0  0  0  0  0  0  0  0
    5.4641   -1.7500    0.0000 C   0  0  0  0  0  0  0  0  0  0  0  0
    4.5981   -3.2500    0.0000 C   0  0  0  0  0  0  0  0  0  0  0  0
    8.0622    1.7500    0.0000 C   0  0  0  0  0  0  0  0  0  0  0  0
    9.7942    1.7500    0.0000 C   0  0  0  0  0  0  0  0  0  0  0  0
   11.5263    1.7500    0.0000 C   0  0  2  0  0  0  0  0  0  0  0  0
   14.1244    0.2500    0.0000 C   0  0  0  0  0  0  0  0  0  0  0  0
   13.2583   -0.2500    0.0000 C   0  0  1  0  0  0  0  0  0  0  0  0
   14.9904   -0.2500    0.0000 C   0  0  0  0  0  0  0  0  0  0  0  0
    5.4641   -4.7500    0.0000 C   0  0  0  0  0  0  0  0  0  0  0  0
   12.3923    1.2500    0.0000 C   0  0  0  0  0  0  0  0  0  0  0  0
    8.0622    2.7500    0.0000 C   0  0  0  0  0  0  0  0  0  0  0  0
   11.5263    2.7500    0.0000 C   0  0  0  0  0  0  0  0  0  0  0  0
   15.8564    0.2500    0.0000 C   0  0  0  0  0  0  0  0  0  0  0  0
   14.9904   -1.2500    0.0000 C   0  0  0  0  0  0  0  0  0  0  0  0
    5.4641   -5.7500    0.0000 C   0  0  0  0  0  0  0  0  0  0  0  0
   13.2583   -1.2500    0.0000 C   0  0  0  0  0  0  0  0  0  0  0  0
    7.1962    4.2500    0.0000 C   0  0  0  0  0  0  0  0  0  0  0  0
    4.5981   -6.2500    0.0000 C   0  0  0  0  0  0  0  0  0  0  0  0
   12.3923    3.2500    0.0000 C   0  0  0  0  0  0  0  0  0  0  0  0
    6.3301   -6.2500    0.0000 C   0  0  0  0  0  0  0  0  0  0  0  0
    6.3301    4.7500    0.0000 C   0  0  0  0  0  0  0  0  0  0  0  0
    3.7320   -5.7500    0.0000 C   0  0  0  0  0  0  0  0  0  0  0  0
    4.5981   -7.2500    0.0000 C   0  0  0  0  0  0  0  0  0  0  0  0
    6.3301   -7.2500    0.0000 C   0  0  0  0  0  0  0  0  0  0  0  0
    6.3301    5.7500    0.0000 C   0  0  0  0  0  0  0  0  0  0  0  0
    5.4641   -7.7500    0.0000 C   0  0  0  0  0  0  0  0  0  0  0  0
    3.7320   -4.7500    0.0000 C   0  0  0  0  0  0  0  0  0  0  0  0
    2.8660   -6.2500    0.0000 C   0  0  0  0  0  0  0  0  0  0  0  0
    5.4641    6.2500    0.0000 C   0  0  0  0  0  0  0  0  0  0  0  0
    7.1962    6.2500    0.0000 C   0  0  0  0  0  0  0  0  0  0  0  0
    2.8660   -4.2500    0.0000 C   0  0  0  0  0  0  0  0  0  0  0  0
    2.0000   -5.7500    0.0000 C   0  0  0  0  0  0  0  0  0  0  0  0
    2.0000   -4.7500    0.0000 C   0  0  0  0  0  0  0  0  0  0  0  0
    5.4641    7.2500    0.0000 C   0  0  0  0  0  0  0  0  0  0  0  0
    7.1962    7.2500    0.0000 C   0  0  0  0  0  0  0  0  0  0  0  0
    6.3301    7.7500    0.0000 C   0  0  0  0  0  0  0  0  0  0  0  0
    9.4651   -2.0600    0.0000 H   0  0  0  0  0  0  0  0  0  0  0  0
    8.0622   -1.8700    0.0000 H   0  0  0  0  0  0  0  0  0  0  0  0
   10.1928   -0.7751    0.0000 H   0  0  0  0  0  0  0  0  0  0  0  0
    9.3957   -0.7751    0.0000 H   0  0  0  0  0  0  0  0  0  0  0  0
    6.8671   -3.5600    0.0000 H   0  0  0  0  0  0  0  0  0  0  0  0
    6.6592   -1.4400    0.0000 H   0  0  0  0  0  0  0  0  0  0  0  0
    8.3082   -2.7500    0.0000 H   0  0  0  0  0  0  0  0  0  0  0  0
    8.9282   -3.3700    0.0000 H   0  0  0  0  0  0  0  0  0  0  0  0
    9.5482   -2.7500    0.0000 H   0  0  0  0  0  0  0  0  0  0  0  0
    5.4641   -3.3700    0.0000 H   0  0  0  0  0  0  0  0  0  0  0  0
    9.4651    0.9400    0.0000 H   0  0  0  0  0  0  0  0  0  0  0  0
    9.4651   -0.0600    0.0000 H   0  0  0  0  0  0  0  0  0  0  0  0
   10.3503   -2.2869    0.0000 H   0  0  0  0  0  0  0  0  0  0  0  0
   11.1972   -2.0600    0.0000 H   0  0  0  0  0  0  0  0  0  0  0  0
   10.9703   -1.2131    0.0000 H   0  0  0  0  0  0  0  0  0  0  0  0
    6.8671   -4.5600    0.0000 H   0  0  0  0  0  0  0  0  0  0  0  0
    7.4516    1.8577    0.0000 H   0  0  0  0  0  0  0  0  0  0  0  0
    7.8501    1.1674    0.0000 H   0  0  0  0  0  0  0  0  0  0  0  0
    6.0841   -1.7500    0.0000 H   0  0  0  0  0  0  0  0  0  0  0  0
    5.4641   -1.1300    0.0000 H   0  0  0  0  0  0  0  0  0  0  0  0
    4.8441   -1.7500    0.0000 H   0  0  0  0  0  0  0  0  0  0  0  0
    4.2881   -2.7131    0.0000 H   0  0  0  0  0  0  0  0  0  0  0  0
    4.0611   -3.5600    0.0000 H   0  0  0  0  0  0  0  0  0  0  0  0
    4.9081   -3.7869    0.0000 H   0  0  0  0  0  0  0  0  0  0  0  0
   10.9893    2.0600    0.0000 H   0  0  0  0  0  0  0  0  0  0  0  0
   14.5229    0.7249    0.0000 H   0  0  0  0  0  0  0  0  0  0  0  0
   13.7258    0.7249    0.0000 H   0  0  0  0  0  0  0  0  0  0  0  0
   13.2583    0.3700    0.0000 H   0  0  0  0  0  0  0  0  0  0  0  0
   15.5273   -0.5600    0.0000 H   0  0  0  0  0  0  0  0  0  0  0  0
   10.6603    0.6300    0.0000 H   0  0  0  0  0  0  0  0  0  0  0  0
   11.8554   -0.0600    0.0000 H   0  0  0  0  0  0  0  0  0  0  0  0
   11.3142    3.3326    0.0000 H   0  0  0  0  0  0  0  0  0  0  0  0
   10.9157    2.6423    0.0000 H   0  0  0  0  0  0  0  0  0  0  0  0
   16.1664   -0.2869    0.0000 H   0  0  0  0  0  0  0  0  0  0  0  0
   16.3933    0.5600    0.0000 H   0  0  0  0  0  0  0  0  0  0  0  0
   15.5464    0.7869    0.0000 H   0  0  0  0  0  0  0  0  0  0  0  0
   14.3704   -1.2500    0.0000 H   0  0  0  0  0  0  0  0  0  0  0  0
   14.9904   -1.8700    0.0000 H   0  0  0  0  0  0  0  0  0  0  0  0
   15.6104   -1.2500    0.0000 H   0  0  0  0  0  0  0  0  0  0  0  0
    6.6592    2.9400    0.0000 H   0  0  0  0  0  0  0  0  0  0  0  0
    7.8067    4.1423    0.0000 H   0  0  0  0  0  0  0  0  0  0  0  0
    7.4082    4.8326    0.0000 H   0  0  0  0  0  0  0  0  0  0  0  0
    6.8671   -5.9400    0.0000 H   0  0  0  0  0  0  0  0  0  0  0  0
    5.7196    4.8577    0.0000 H   0  0  0  0  0  0  0  0  0  0  0  0
    6.1181    4.1674    0.0000 H   0  0  0  0  0  0  0  0  0  0  0  0
    4.0611   -7.5600    0.0000 H   0  0  0  0  0  0  0  0  0  0  0  0
    6.8671   -7.5600    0.0000 H   0  0  0  0  0  0  0  0  0  0  0  0
   14.1244   -2.3700    0.0000 H   0  0  0  0  0  0  0  0  0  0  0  0
    5.4641   -8.3700    0.0000 H   0  0  0  0  0  0  0  0  0  0  0  0
   12.9292    4.5600    0.0000 H   0  0  0  0  0  0  0  0  0  0  0  0
    4.2690   -4.4400    0.0000 H   0  0  0  0  0  0  0  0  0  0  0  0
    2.8660   -6.8700    0.0000 H   0  0  0  0  0  0  0  0  0  0  0  0
    4.9272    5.9400    0.0000 H   0  0  0  0  0  0  0  0  0  0  0  0
    7.7331    5.9400    0.0000 H   0  0  0  0  0  0  0  0  0  0  0  0
    2.8660   -3.6300    0.0000 H   0  0  0  0  0  0  0  0  0  0  0  0
    1.4631   -6.0600    0.0000 H   0  0  0  0  0  0  0  0  0  0  0  0
    1.4631   -4.4400    0.0000 H   0  0  0  0  0  0  0  0  0  0  0  0
    4.9272    7.5600    0.0000 H   0  0  0  0  0  0  0  0  0  0  0  0
    7.7331    7.5600    0.0000 H   0  0  0  0  0  0  0  0  0  0  0  0
    6.3301    8.3700    0.0000 H   0  0  0  0  0  0  0  0  0  0  0  0
  1 21  2  0  0  0  0
  2 24  2  0  0  0  0
  3 30  2  0  0  0  0
  4 36  2  0  0  0  0
  5 35  2  0  0  0  0
  6 37  2  0  0  0  0
  7 42  1  0  0  0  0
  7110  1  0  0  0  0
  8 42  2  0  0  0  0
  9 45  1  0  0  0  0
  9112  1  0  0  0  0
 10 45  2  0  0  0  0
 18 11  1  6  0  0  0
 11 24  1  0  0  0  0
 11 68  1  0  0  0  0
 12 21  1  0  0  0  0
 25 12  1  1  0  0  0
 12 74  1  0  0  0  0
 20 13  1  1  0  0  0
 13 35  1  0  0  0  0
 13 78  1  0  0  0  0
 14 30  1  0  0  0  0
 31 14  1  1  0  0  0
 14 92  1  0  0  0  0
 33 15  1  1  0  0  0
 15 36  1  0  0  0  0
 15 93  1  0  0  0  0
 16 37  1  0  0  0  0
 16 43  1  0  0  0  0
 16102  1  0  0  0  0
 17 18  1  0  0  0  0
 17 19  1  0  0  0  0
 17 22  1  6  0  0  0
 17 63  1  0  0  0  0
 18 21  1  0  0  0  0
 18 64  1  0  0  0  0
 19 26  1  0  0  0  0
 19 65  1  0  0  0  0
 19 66  1  0  0  0  0
 20 23  1  0  0  0  0
 20 24  1  0  0  0  0
 20 67  1  0  0  0  0
 22 69  1  0  0  0  0
 22 70  1  0  0  0  0
 22 71  1  0  0  0  0
 23 27  1  0  0  0  0
 23 28  1  0  0  0  0
 23 72  1  0  0  0  0
 25 29  1  0  0  0  0
 25 30  1  0  0  0  0
 25 73  1  0  0  0  0
 26 75  1  0  0  0  0
 26 76  1  0  0  0  0
 26 77  1  0  0  0  0
 27 81  1  0  0  0  0
 27 82  1  0  0  0  0
 27 83  1  0  0  0  0
 28 84  1  0  0  0  0
 28 85  1  0  0  0  0
 28 86  1  0  0  0  0
 29 37  1  0  0  0  0
 29 79  1  0  0  0  0
 29 80  1  0  0  0  0
 31 36  1  0  0  0  0
 31 38  1  0  0  0  0
 31 87  1  0  0  0  0
 32 33  1  0  0  0  0
 32 34  1  0  0  0  0
 32 88  1  0  0  0  0
 32 89  1  0  0  0  0
 33 42  1  0  0  0  0
 33 90  1  0  0  0  0
 34 39  1  0  0  0  0
 34 40  1  0  0  0  0
 34 91  1  0  0  0  0
 35 41  1  0  0  0  0
 38 45  1  0  0  0  0
 38 94  1  0  0  0  0
 38 95  1  0  0  0  0
 39 96  1  0  0  0  0
 39 97  1  0  0  0  0
 39 98  1  0  0  0  0
 40 99  1  0  0  0  0
 40100  1  0  0  0  0
 40101  1  0  0  0  0
 41 44  1  0  0  0  0
 41 46  2  0  0  0  0
 43 47  1  0  0  0  0
 43103  1  0  0  0  0
 43104  1  0  0  0  0
 44 48  1  0  0  0  0
 44 49  2  0  0  0  0
 46 50  1  0  0  0  0
 46105  1  0  0  0  0
 47 51  1  0  0  0  0
 47106  1  0  0  0  0
 47107  1  0  0  0  0
 48 53  2  0  0  0  0
 48 54  1  0  0  0  0
 49 52  1  0  0  0  0
 49108  1  0  0  0  0
 50 52  2  0  0  0  0
 50109  1  0  0  0  0
 51 55  2  0  0  0  0
 51 56  1  0  0  0  0
 52111  1  0  0  0  0
 53 57  1  0  0  0  0
 53113  1  0  0  0  0
 54 58  2  0  0  0  0
 54114  1  0  0  0  0
 55 60  1  0  0  0  0
 55115  1  0  0  0  0
 56 61  2  0  0  0  0
 56116  1  0  0  0  0
 57 59  2  0  0  0  0
 57117  1  0  0  0  0
 58 59  1  0  0  0  0
 58118  1  0  0  0  0
 59119  1  0  0  0  0
 60 62  2  0  0  0  0
 60120  1  0  0  0  0
 61 62  1  0  0  0  0
 61121  1  0  0  0  0
 62122  1  0  0  0  0
M  END
> <PUBCHEM_COMPOUND_CID>
502985
> <PUBCHEM_COMPOUND_CANONICALIZED>
1
> <PUBCHEM_CACTVS_COMPLEXITY>
1510
> <PUBCHEM_CACTVS_HBOND_ACCEPTOR>
10
> <PUBCHEM_CACTVS_HBOND_DONOR>
8
> <PUBCHEM_CACTVS_ROTATABLE_BOND>
24
> <PUBCHEM_CACTVS_SUBSKEYS>
AAADcfB/vAAAAAAAAAAAAAAAAAAAAAAAAAAwYMAAAAAAAAABUAAAHgAQCAAADSjBmAQyCILAAgCIAiHSGACCAAAkAAAIiIGIBMgKYDqA1TGUYQhmlgCYiYe/iMCOgAAAAAAQAAAAAAAAACAAAAAAAAAAAA==
> <PUBCHEM_IUPAC_OPENEYE_NAME>
(2S)-2-[[(2S)-3-carboxy-2-[[(2S)-2-[[(2S,3S)-3-methyl-2-[[(2S)-3-methyl-2-[(2-phenylbenzoyl)amino]butanoyl]amino]pentanoyl]amino]-4-oxo-4-(2-phenylethylamino)butanoyl]amino]propanoyl]amino]-4-methyl-pentanoic acid
> <PUBCHEM_IUPAC_CAS_NAME>
(2S)-2-[[(2S)-3-carboxy-2-[[(2S)-2-[[(2S,3S)-3-methyl-2-[[(2S)-3-methyl-1-oxo-2-[[oxo-(2-phenylphenyl)methyl]amino]butyl]amino]-1-oxopentyl]amino]-1,4-dioxo-4-(2-phenylethylamino)butyl]amino]-1-oxopropyl]amino]-4-methylpentanoic acid
> <PUBCHEM_IUPAC_NAME_MARKUP>
(2<I>S</I>)-2-[[(2<I>S</I>)-3-carboxy-2-[[(2<I>S</I>)-2-[[(2<I>S</I>,3<I>S</I>)-3-methyl-2-[[(2<I>S</I>)-3-methyl-2-[(2-phenylbenzoyl)amino]butanoyl]amino]pentanoyl]amino]-4-oxo-4-(2-phenylethylamino)butanoyl]amino]propanoyl]amino]-4-methylpentanoic acid
> <PUBCHEM_IUPAC_NAME>
(2S)-2-[[(2S)-3-carboxy-2-[[(2S)-2-[[(2S,3S)-3-methyl-2-[[(2S)-3-methyl-2-[(2-phenylbenzoyl)amino]butanoyl]amino]pentanoyl]amino]-4-oxo-4-(2-phenylethylamino)butanoyl]amino]propanoyl]amino]-4-methylpentanoic acid
> <PUBCHEM_IUPAC_SYSTEMATIC_NAME>
(2S)-4-methyl-2-[[(2S)-2-[[(2S)-2-[[(2S,3S)-3-methyl-2-[[(2S)-3-methyl-2-[(2-phenylphenyl)carbonylamino]butanoyl]amino]pentanoyl]amino]-4-oxidanylidene-4-(2-phenylethylamino)butanoyl]amino]-4-oxidanyl-4-oxidanylidene-butanoyl]amino]pentanoic acid
> <PUBCHEM_IUPAC_TRADITIONAL_NAME>
(2S)-2-[[(2S)-3-carboxy-2-[[(2S)-4-keto-2-[[(2S,3S)-3-methyl-2-[[(2S)-3-methyl-2-[(2-phenylbenzoyl)amino]butanoyl]amino]pentanoyl]amino]-4-(phenethylamino)butanoyl]amino]propanoyl]amino]-4-methyl-valeric acid
> <PUBCHEM_IUPAC_INCHI>
InChI=1S/C46H60N6O10/c1-7-29(6)40(52-44(59)39(28(4)5)51-41(56)33-21-15-14-20-32(33)31-18-12-9-13-19-31)45(60)49-34(25-37(53)47-23-22-30-16-10-8-11-17-30)42(57)48-35(26-38(54)55)43(58)50-36(46(61)62)24-27(2)3/h8-21,27-29,34-36,39-40H,7,22-26H2,1-6H3,(H,47,53)(H,48,57)(H,49,60)(H,50,58)(H,51,56)(H,52,59)(H,54,55)(H,61,62)/t29-,34-,35-,36-,39-,40-/m0/s1
> <PUBCHEM_IUPAC_INCHIKEY>
RYQVJGNBLDTOJC-LKWWCLDOSA-N
> <PUBCHEM_XLOGP3_AA>
5.4
> <PUBCHEM_EXACT_MASS>
856.43709213
> <PUBCHEM_MOLECULAR_FORMULA>
C46H60N6O10
> <PUBCHEM_MOLECULAR_WEIGHT>
857.0
> <PUBCHEM_OPENEYE_CAN_SMILES>
CCC(C)C(C(=O)NC(CC(=O)NCCC1=CC=CC=C1)C(=O)NC(CC(=O)O)C(=O)NC(CC(C)C)C(=O)O)NC(=O)C(C(C)C)NC(=O)C2=CC=CC=C2C3=CC=CC=C3
> <PUBCHEM_OPENEYE_ISO_SMILES>
CC[C@H](C)[C@@H](C(=O)N[C@@H](CC(=O)NCCC1=CC=CC=C1)C(=O)N[C@@H](CC(=O)O)C(=O)N[C@@H](CC(C)C)C(=O)O)NC(=O)[C@H](C(C)C)NC(=O)C2=CC=CC=C2C3=CC=CC=C3
> <PUBCHEM_CACTVS_TPSA>
249
> <PUBCHEM_MONOISOTOPIC_WEIGHT>
856.43709213
> <PUBCHEM_TOTAL_CHARGE>
0
> <PUBCHEM_HEAVY_ATOM_COUNT>
62
> <PUBCHEM_ATOM_DEF_STEREO_COUNT>
6
> <PUBCHEM_ATOM_UDEF_STEREO_COUNT>
0
> <PUBCHEM_BOND_DEF_STEREO_COUNT>
0
> <PUBCHEM_BOND_UDEF_STEREO_COUNT>
0
> <PUBCHEM_ISOTOPIC_ATOM_COUNT>
0
> <PUBCHEM_COMPONENT_COUNT>
1
> <PUBCHEM_CACTVS_TAUTO_COUNT>
-1
> <PUBCHEM_COORDINATE_TYPE>
1
5
255
> <PUBCHEM_BONDANNOTATIONS>
18  11  6
25  12  5
20  13  5
31  14  5
33  15  5
17  22  6
41  44  8
41  46  8
44  49  8
46  50  8
48  53  8
48  54  8
49  52  8
50  52  8
51  55  8
51  56  8
53  57  8
54  58  8
55  60  8
56  61  8
57  59  8
58  59  8
60  62  8
61  62  8
$$$$
