502958
  -OEChem-10302200282D
116115  0     1  0  0  0  0  0999 V2000
    7.1962   -0.7500    0.0000 O   0  0  0  0  0  0  0  0  0  0  0  0
    4.5981   -3.2500    0.0000 O   0  0  0  0  0  0  0  0  0  0  0  0
   10.6603   -0.7500    0.0000 O   0  0  0  0  0  0  0  0  0  0  0  0
   10.6603   -1.7500    0.0000 O   0  0  0  0  0  0  0  0  0  0  0  0
   11.5263   -5.2500    0.0000 O   0  0  0  0  0  0  0  0  0  0  0  0
    8.9282   -7.7500    0.0000 O   0  0  0  0  0  0  0  0  0  0  0  0
    8.0622   -6.2500    0.0000 O   0  0  0  0  0  0  0  0  0  0  0  0
   13.2583   -3.2500    0.0000 O   0  0  0  0  0  0  0  0  0  0  0  0
   12.3923   -4.7500    0.0000 O   0  0  0  0  0  0  0  0  0  0  0  0
    5.4641   -1.7500    0.0000 N   0  0  0  0  0  0  0  0  0  0  0  0
    8.0622   -2.2500    0.0000 N   0  0  0  0  0  0  0  0  0  0  0  0
    9.7942   -3.2500    0.0000 N   0  0  0  0  0  0  0  0  0  0  0  0
    9.7942   -5.2500    0.0000 N   0  0  0  0  0  0  0  0  0  0  0  0
    6.3301   -3.2500    0.0000 C   0  0  2  0  0  0  0  0  0  0  0  0
    6.3301   -2.2500    0.0000 C   0  0  1  0  0  0  0  0  0  0  0  0
    5.4641   -3.7500    0.0000 C   0  0  0  0  0  0  0  0  0  0  0  0
    8.9282   -1.7500    0.0000 C   0  0  3  0  0  0  0  0  0  0  0  0
    7.1962   -1.7500    0.0000 C   0  0  0  0  0  0  0  0  0  0  0  0
    3.7320   -1.7500    0.0000 C   0  0  0  0  0  0  0  0  0  0  0  0
    7.1962   -3.7500    0.0000 C   0  0  0  0  0  0  0  0  0  0  0  0
    8.9282   -0.7500    0.0000 C   0  0  0  0  0  0  0  0  0  0  0  0
   11.5263    2.7500    0.0000 C   0  0  0  0  0  0  0  0  0  0  0  0
   10.6603    2.2500    0.0000 C   0  0  0  0  0  0  0  0  0  0  0  0
   11.5263    3.7500    0.0000 C   0  0  0  0  0  0  0  0  0  0  0  0
   10.6603    1.2500    0.0000 C   0  0  0  0  0  0  0  0  0  0  0  0
    4.5981   -2.2500    0.0000 C   0  0  0  0  0  0  0  0  0  0  0  0
   12.3923    4.2500    0.0000 C   0  0  0  0  0  0  0  0  0  0  0  0
    9.7942    0.7500    0.0000 C   0  0  0  0  0  0  0  0  0  0  0  0
   12.3923    5.2500    0.0000 C   0  0  0  0  0  0  0  0  0  0  0  0
    9.7942   -0.2500    0.0000 C   0  0  0  0  0  0  0  0  0  0  0  0
    2.8660   -2.2500    0.0000 C   0  0  0  0  0  0  0  0  0  0  0  0
    3.7320   -0.7500    0.0000 C   0  0  0  0  0  0  0  0  0  0  0  0
    5.4641   -4.7500    0.0000 C   0  0  0  0  0  0  0  0  0  0  0  0
    9.7942   -2.2500    0.0000 C   0  0  0  0  0  0  0  0  0  0  0  0
   13.2583    5.7500    0.0000 C   0  0  0  0  0  0  0  0  0  0  0  0
   10.6603   -3.7500    0.0000 C   0  0  2  0  0  0  0  0  0  0  0  0
   13.2583    6.7500    0.0000 C   0  0  0  0  0  0  0  0  0  0  0  0
   10.6603   -6.7500    0.0000 C   0  0  0  0  0  0  0  0  0  0  0  0
    9.7942   -6.2500    0.0000 C   0  0  1  0  0  0  0  0  0  0  0  0
   10.6603   -7.7500    0.0000 C   0  0  0  0  0  0  0  0  0  0  0  0
    2.0000   -1.7500    0.0000 C   0  0  0  0  0  0  0  0  0  0  0  0
    2.8660   -0.2500    0.0000 C   0  0  0  0  0  0  0  0  0  0  0  0
   10.6603   -4.7500    0.0000 C   0  0  0  0  0  0  0  0  0  0  0  0
   11.5263   -3.2500    0.0000 C   0  0  0  0  0  0  0  0  0  0  0  0
   14.1244    7.2500    0.0000 C   0  0  0  0  0  0  0  0  0  0  0  0
   11.5263   -8.2500    0.0000 C   0  0  0  0  0  0  0  0  0  0  0  0
    9.7942   -8.2500    0.0000 C   0  0  0  0  0  0  0  0  0  0  0  0
    8.9282   -6.7500    0.0000 C   0  0  0  0  0  0  0  0  0  0  0  0
   14.1244    8.2500    0.0000 C   0  0  0  0  0  0  0  0  0  0  0  0
   12.3923   -3.7500    0.0000 C   0  0  0  0  0  0  0  0  0  0  0  0
    6.8671   -2.9400    0.0000 H   0  0  0  0  0  0  0  0  0  0  0  0
    5.7932   -2.5600    0.0000 H   0  0  0  0  0  0  0  0  0  0  0  0
    5.2520   -3.1674    0.0000 H   0  0  0  0  0  0  0  0  0  0  0  0
    4.8535   -3.8577    0.0000 H   0  0  0  0  0  0  0  0  0  0  0  0
    8.9282   -2.3700    0.0000 H   0  0  0  0  0  0  0  0  0  0  0  0
    5.4641   -1.1300    0.0000 H   0  0  0  0  0  0  0  0  0  0  0  0
    3.7320   -2.3700    0.0000 H   0  0  0  0  0  0  0  0  0  0  0  0
    6.8862   -4.2869    0.0000 H   0  0  0  0  0  0  0  0  0  0  0  0
    7.7331   -4.0600    0.0000 H   0  0  0  0  0  0  0  0  0  0  0  0
    7.5062   -3.2131    0.0000 H   0  0  0  0  0  0  0  0  0  0  0  0
    8.7162   -0.1674    0.0000 H   0  0  0  0  0  0  0  0  0  0  0  0
    8.3176   -0.8577    0.0000 H   0  0  0  0  0  0  0  0  0  0  0  0
    8.0622   -2.8700    0.0000 H   0  0  0  0  0  0  0  0  0  0  0  0
   11.7383    2.1674    0.0000 H   0  0  0  0  0  0  0  0  0  0  0  0
   12.1369    2.8577    0.0000 H   0  0  0  0  0  0  0  0  0  0  0  0
   10.4482    2.8326    0.0000 H   0  0  0  0  0  0  0  0  0  0  0  0
   10.0497    2.1423    0.0000 H   0  0  0  0  0  0  0  0  0  0  0  0
   11.3142    4.3326    0.0000 H   0  0  0  0  0  0  0  0  0  0  0  0
   10.9157    3.6423    0.0000 H   0  0  0  0  0  0  0  0  0  0  0  0
   10.8723    0.6674    0.0000 H   0  0  0  0  0  0  0  0  0  0  0  0
   11.2708    1.3577    0.0000 H   0  0  0  0  0  0  0  0  0  0  0  0
   12.6044    3.6674    0.0000 H   0  0  0  0  0  0  0  0  0  0  0  0
   13.0029    4.3577    0.0000 H   0  0  0  0  0  0  0  0  0  0  0  0
    9.5822    1.3326    0.0000 H   0  0  0  0  0  0  0  0  0  0  0  0
    9.1836    0.6423    0.0000 H   0  0  0  0  0  0  0  0  0  0  0  0
   12.1803    5.8326    0.0000 H   0  0  0  0  0  0  0  0  0  0  0  0
   11.7817    5.1423    0.0000 H   0  0  0  0  0  0  0  0  0  0  0  0
    2.4675   -2.7250    0.0000 H   0  0  0  0  0  0  0  0  0  0  0  0
    3.2646   -2.7250    0.0000 H   0  0  0  0  0  0  0  0  0  0  0  0
    4.3426   -0.8577    0.0000 H   0  0  0  0  0  0  0  0  0  0  0  0
    3.9441   -0.1674    0.0000 H   0  0  0  0  0  0  0  0  0  0  0  0
    4.8441   -4.7500    0.0000 H   0  0  0  0  0  0  0  0  0  0  0  0
    5.4641   -5.3700    0.0000 H   0  0  0  0  0  0  0  0  0  0  0  0
    6.0841   -4.7500    0.0000 H   0  0  0  0  0  0  0  0  0  0  0  0
   13.4704    5.1674    0.0000 H   0  0  0  0  0  0  0  0  0  0  0  0
   13.8689    5.8577    0.0000 H   0  0  0  0  0  0  0  0  0  0  0  0
   10.6603   -3.1300    0.0000 H   0  0  0  0  0  0  0  0  0  0  0  0
    9.2573   -3.5600    0.0000 H   0  0  0  0  0  0  0  0  0  0  0  0
   13.0463    7.3326    0.0000 H   0  0  0  0  0  0  0  0  0  0  0  0
   12.6477    6.6423    0.0000 H   0  0  0  0  0  0  0  0  0  0  0  0
   11.2708   -6.8577    0.0000 H   0  0  0  0  0  0  0  0  0  0  0  0
   10.8723   -6.1674    0.0000 H   0  0  0  0  0  0  0  0  0  0  0  0
    9.2573   -5.9400    0.0000 H   0  0  0  0  0  0  0  0  0  0  0  0
   11.1972   -7.4400    0.0000 H   0  0  0  0  0  0  0  0  0  0  0  0
    2.3100   -1.2131    0.0000 H   0  0  0  0  0  0  0  0  0  0  0  0
    1.4631   -1.4400    0.0000 H   0  0  0  0  0  0  0  0  0  0  0  0
    1.6900   -2.2869    0.0000 H   0  0  0  0  0  0  0  0  0  0  0  0
    3.1760    0.2869    0.0000 H   0  0  0  0  0  0  0  0  0  0  0  0
    2.3291    0.0600    0.0000 H   0  0  0  0  0  0  0  0  0  0  0  0
    2.5560   -0.7869    0.0000 H   0  0  0  0  0  0  0  0  0  0  0  0
   11.9248   -2.7750    0.0000 H   0  0  0  0  0  0  0  0  0  0  0  0
   11.1278   -2.7750    0.0000 H   0  0  0  0  0  0  0  0  0  0  0  0
    9.2573   -4.9400    0.0000 H   0  0  0  0  0  0  0  0  0  0  0  0
   14.3364    6.6674    0.0000 H   0  0  0  0  0  0  0  0  0  0  0  0
   14.7349    7.3577    0.0000 H   0  0  0  0  0  0  0  0  0  0  0  0
   11.2163   -8.7869    0.0000 H   0  0  0  0  0  0  0  0  0  0  0  0
   12.0632   -8.5600    0.0000 H   0  0  0  0  0  0  0  0  0  0  0  0
   11.8363   -7.7131    0.0000 H   0  0  0  0  0  0  0  0  0  0  0  0
    9.4842   -7.7131    0.0000 H   0  0  0  0  0  0  0  0  0  0  0  0
    9.2573   -8.5600    0.0000 H   0  0  0  0  0  0  0  0  0  0  0  0
   10.1042   -8.7869    0.0000 H   0  0  0  0  0  0  0  0  0  0  0  0
   14.7444    8.2500    0.0000 H   0  0  0  0  0  0  0  0  0  0  0  0
   14.1244    8.8700    0.0000 H   0  0  0  0  0  0  0  0  0  0  0  0
   13.5044    8.2500    0.0000 H   0  0  0  0  0  0  0  0  0  0  0  0
    8.3913   -8.0600    0.0000 H   0  0  0  0  0  0  0  0  0  0  0  0
   13.7953   -3.5600    0.0000 H   0  0  0  0  0  0  0  0  0  0  0  0
  1 18  2  0  0  0  0
  2 26  2  0  0  0  0
  3 30  2  0  0  0  0
  4 34  2  0  0  0  0
  5 43  2  0  0  0  0
  6 48  1  0  0  0  0
  6115  1  0  0  0  0
  7 48  2  0  0  0  0
  8 50  1  0  0  0  0
  8116  1  0  0  0  0
  9 50  2  0  0  0  0
 15 10  1  6  0  0  0
 10 26  1  0  0  0  0
 10 56  1  0  0  0  0
 11 17  1  0  0  0  0
 11 18  1  0  0  0  0
 11 63  1  0  0  0  0
 12 34  1  0  0  0  0
 36 12  1  1  0  0  0
 12 88  1  0  0  0  0
 39 13  1  1  0  0  0
 13 43  1  0  0  0  0
 13103  1  0  0  0  0
 14 15  1  0  0  0  0
 14 16  1  0  0  0  0
 14 20  1  1  0  0  0
 14 51  1  0  0  0  0
 15 18  1  0  0  0  0
 15 52  1  0  0  0  0
 16 33  1  0  0  0  0
 16 53  1  0  0  0  0
 16 54  1  0  0  0  0
 17 21  1  0  0  0  0
 17 34  1  0  0  0  0
 17 55  1  0  0  0  0
 19 26  1  0  0  0  0
 19 31  1  0  0  0  0
 19 32  1  0  0  0  0
 19 57  1  0  0  0  0
 20 58  1  0  0  0  0
 20 59  1  0  0  0  0
 20 60  1  0  0  0  0
 21 30  1  0  0  0  0
 21 61  1  0  0  0  0
 21 62  1  0  0  0  0
 22 23  1  0  0  0  0
 22 24  1  0  0  0  0
 22 64  1  0  0  0  0
 22 65  1  0  0  0  0
 23 25  1  0  0  0  0
 23 66  1  0  0  0  0
 23 67  1  0  0  0  0
 24 27  1  0  0  0  0
 24 68  1  0  0  0  0
 24 69  1  0  0  0  0
 25 28  1  0  0  0  0
 25 70  1  0  0  0  0
 25 71  1  0  0  0  0
 27 29  1  0  0  0  0
 27 72  1  0  0  0  0
 27 73  1  0  0  0  0
 28 30  1  0  0  0  0
 28 74  1  0  0  0  0
 28 75  1  0  0  0  0
 29 35  1  0  0  0  0
 29 76  1  0  0  0  0
 29 77  1  0  0  0  0
 31 41  1  0  0  0  0
 31 78  1  0  0  0  0
 31 79  1  0  0  0  0
 32 42  1  0  0  0  0
 32 80  1  0  0  0  0
 32 81  1  0  0  0  0
 33 82  1  0  0  0  0
 33 83  1  0  0  0  0
 33 84  1  0  0  0  0
 35 37  1  0  0  0  0
 35 85  1  0  0  0  0
 35 86  1  0  0  0  0
 36 43  1  0  0  0  0
 36 44  1  0  0  0  0
 36 87  1  0  0  0  0
 37 45  1  0  0  0  0
 37 89  1  0  0  0  0
 37 90  1  0  0  0  0
 38 39  1  0  0  0  0
 38 40  1  0  0  0  0
 38 91  1  0  0  0  0
 38 92  1  0  0  0  0
 39 48  1  0  0  0  0
 39 93  1  0  0  0  0
 40 46  1  0  0  0  0
 40 47  1  0  0  0  0
 40 94  1  0  0  0  0
 41 95  1  0  0  0  0
 41 96  1  0  0  0  0
 41 97  1  0  0  0  0
 42 98  1  0  0  0  0
 42 99  1  0  0  0  0
 42100  1  0  0  0  0
 44 50  1  0  0  0  0
 44101  1  0  0  0  0
 44102  1  0  0  0  0
 45 49  1  0  0  0  0
 45104  1  0  0  0  0
 45105  1  0  0  0  0
 46106  1  0  0  0  0
 46107  1  0  0  0  0
 46108  1  0  0  0  0
 47109  1  0  0  0  0
 47110  1  0  0  0  0
 47111  1  0  0  0  0
 49112  1  0  0  0  0
 49113  1  0  0  0  0
 49114  1  0  0  0  0
M  END
> <PUBCHEM_COMPOUND_CID>
502958
> <PUBCHEM_COMPOUND_CANONICALIZED>
1
> <PUBCHEM_CACTVS_COMPLEXITY>
1080
> <PUBCHEM_CACTVS_HBOND_ACCEPTOR>
9
> <PUBCHEM_CACTVS_HBOND_DONOR>
6
> <PUBCHEM_CACTVS_ROTATABLE_BOND>
29
> <PUBCHEM_CACTVS_SUBSKEYS>
AAADcfB/vAAAAAAAAAAAAAAAAAAAAAAAAAAAAAAAAAAAAAAAAAAAHgAQCAAADSzBgAQCCALAAgAIAIGQGAAAAAAAAAAAAIGIAAACQBoAgCAUQAAGFgCQAAG/iICOAAAAAAAAAAAAAAAAAAAAAAAAAAAAAA==
> <PUBCHEM_IUPAC_OPENEYE_NAME>
(2S)-2-[[(2S)-3-carboxy-2-[[2-[[(2S,3S)-2-(2-ethylbutanoylamino)-3-methyl-pentanoyl]amino]-4-oxo-pentadecanoyl]amino]propanoyl]amino]-4-methyl-pentanoic acid
> <PUBCHEM_IUPAC_CAS_NAME>
(2S)-2-[[(2S)-3-carboxy-2-[[2-[[(2S,3S)-2-[(2-ethyl-1-oxobutyl)amino]-3-methyl-1-oxopentyl]amino]-1,4-dioxopentadecyl]amino]-1-oxopropyl]amino]-4-methylpentanoic acid
> <PUBCHEM_IUPAC_NAME_MARKUP>
(2<I>S</I>)-2-[[(2<I>S</I>)-3-carboxy-2-[[2-[[(2<I>S</I>,3<I>S</I>)-2-(2-ethylbutanoylamino)-3-methylpentanoyl]amino]-4-oxopentadecanoyl]amino]propanoyl]amino]-4-methylpentanoic acid
> <PUBCHEM_IUPAC_NAME>
(2S)-2-[[(2S)-3-carboxy-2-[[2-[[(2S,3S)-2-(2-ethylbutanoylamino)-3-methylpentanoyl]amino]-4-oxopentadecanoyl]amino]propanoyl]amino]-4-methylpentanoic acid
> <PUBCHEM_IUPAC_SYSTEMATIC_NAME>
(2S)-2-[[(2S)-2-[[2-[[(2S,3S)-2-(2-ethylbutanoylamino)-3-methyl-pentanoyl]amino]-4-oxidanylidene-pentadecanoyl]amino]-4-oxidanyl-4-oxidanylidene-butanoyl]amino]-4-methyl-pentanoic acid
> <PUBCHEM_IUPAC_TRADITIONAL_NAME>
(2S)-2-[[(2S)-3-carboxy-2-[[2-[[(2S,3S)-2-(2-ethylbutanoylamino)-3-methyl-pentanoyl]amino]-4-keto-pentadecanoyl]amino]propanoyl]amino]-4-methyl-valeric acid
> <PUBCHEM_IUPAC_INCHI>
InChI=1S/C37H66N4O9/c1-8-12-13-14-15-16-17-18-19-20-27(42)22-28(39-36(48)32(25(7)9-2)41-33(45)26(10-3)11-4)34(46)38-29(23-31(43)44)35(47)40-30(37(49)50)21-24(5)6/h24-26,28-30,32H,8-23H2,1-7H3,(H,38,46)(H,39,48)(H,40,47)(H,41,45)(H,43,44)(H,49,50)/t25-,28?,29-,30-,32-/m0/s1
> <PUBCHEM_IUPAC_INCHIKEY>
MJUPCFJMNQZLBF-IXBZKNFHSA-N
> <PUBCHEM_XLOGP3>
6.6
> <PUBCHEM_EXACT_MASS>
710.48297970
> <PUBCHEM_MOLECULAR_FORMULA>
C37H66N4O9
> <PUBCHEM_MOLECULAR_WEIGHT>
710.9
> <PUBCHEM_OPENEYE_CAN_SMILES>
CCCCCCCCCCCC(=O)CC(C(=O)NC(CC(=O)O)C(=O)NC(CC(C)C)C(=O)O)NC(=O)C(C(C)CC)NC(=O)C(CC)CC
> <PUBCHEM_OPENEYE_ISO_SMILES>
CCCCCCCCCCCC(=O)CC(C(=O)N[C@@H](CC(=O)O)C(=O)N[C@@H](CC(C)C)C(=O)O)NC(=O)[C@H]([C@@H](C)CC)NC(=O)C(CC)CC
> <PUBCHEM_CACTVS_TPSA>
208
> <PUBCHEM_MONOISOTOPIC_WEIGHT>
710.48297970
> <PUBCHEM_TOTAL_CHARGE>
0
> <PUBCHEM_HEAVY_ATOM_COUNT>
50
> <PUBCHEM_ATOM_DEF_STEREO_COUNT>
4
> <PUBCHEM_ATOM_UDEF_STEREO_COUNT>
1
> <PUBCHEM_BOND_DEF_STEREO_COUNT>
0
> <PUBCHEM_BOND_UDEF_STEREO_COUNT>
0
> <PUBCHEM_ISOTOPIC_ATOM_COUNT>
0
> <PUBCHEM_COMPONENT_COUNT>
1
> <PUBCHEM_CACTVS_TAUTO_COUNT>
-1
> <PUBCHEM_COORDINATE_TYPE>
1
5
255
> <PUBCHEM_BONDANNOTATIONS>
15  10  6
36  12  5
39  13  5
14  20  5
17  21  3
$$$$
