502987
  -OEChem-10302200282D
105105  0     1  0  0  0  0  0999 V2000
    4.5981    0.7500    0.0000 O   0  0  0  0  0  0  0  0  0  0  0  0
    5.4641    4.2500    0.0000 O   0  0  0  0  0  0  0  0  0  0  0  0
    7.1962   -1.7500    0.0000 O   0  0  0  0  0  0  0  0  0  0  0  0
   10.6603   -0.7500    0.0000 O   0  0  0  0  0  0  0  0  0  0  0  0
    6.3301   -2.2500    0.0000 O   0  0  0  0  0  0  0  0  0  0  0  0
   11.5263    2.7500    0.0000 O   0  0  0  0  0  0  0  0  0  0  0  0
    2.0000    5.2500    0.0000 O   0  0  0  0  0  0  0  0  0  0  0  0
    9.7942    2.7500    0.0000 O   0  0  0  0  0  0  0  0  0  0  0  0
    9.7942   -3.2500    0.0000 O   0  0  0  0  0  0  0  0  0  0  0  0
   10.6603   -1.7500    0.0000 O   0  0  0  0  0  0  0  0  0  0  0  0
    4.5981    2.7500    0.0000 N   0  0  0  0  0  0  0  0  0  0  0  0
    6.3301    0.7500    0.0000 N   0  0  0  0  0  0  0  0  0  0  0  0
    3.7320    5.2500    0.0000 N   0  0  0  0  0  0  0  0  0  0  0  0
    8.0622   -0.2500    0.0000 N   0  0  0  0  0  0  0  0  0  0  0  0
    9.7942    0.7500    0.0000 N   0  0  0  0  0  0  0  0  0  0  0  0
    4.5981   -2.2500    0.0000 N   0  0  0  0  0  0  0  0  0  0  0  0
    6.3301    2.7500    0.0000 C   0  0  2  0  0  0  0  0  0  0  0  0
    5.4641    2.2500    0.0000 C   0  0  1  0  0  0  0  0  0  0  0  0
    6.3301    3.7500    0.0000 C   0  0  0  0  0  0  0  0  0  0  0  0
    3.7320    4.2500    0.0000 C   0  0  1  0  0  0  0  0  0  0  0  0
    5.4641    1.2500    0.0000 C   0  0  0  0  0  0  0  0  0  0  0  0
    7.1962    2.2500    0.0000 C   0  0  0  0  0  0  0  0  0  0  0  0
    2.8660    3.7500    0.0000 C   0  0  0  0  0  0  0  0  0  0  0  0
    4.5981    3.7500    0.0000 C   0  0  0  0  0  0  0  0  0  0  0  0
    6.3301   -0.2500    0.0000 C   0  0  1  0  0  0  0  0  0  0  0  0
    7.1962    4.2500    0.0000 C   0  0  0  0  0  0  0  0  0  0  0  0
    5.4641   -0.7500    0.0000 C   0  0  0  0  0  0  0  0  0  0  0  0
    2.0000    4.2500    0.0000 C   0  0  0  0  0  0  0  0  0  0  0  0
    2.8660    2.7500    0.0000 C   0  0  0  0  0  0  0  0  0  0  0  0
    7.1962   -0.7500    0.0000 C   0  0  0  0  0  0  0  0  0  0  0  0
    8.9282   -0.7500    0.0000 C   0  0  2  0  0  0  0  0  0  0  0  0
   11.5263    0.7500    0.0000 C   0  0  0  0  0  0  0  0  0  0  0  0
   10.6603    1.2500    0.0000 C   0  0  1  0  0  0  0  0  0  0  0  0
   12.3923    1.2500    0.0000 C   0  0  0  0  0  0  0  0  0  0  0  0
    9.7942   -0.2500    0.0000 C   0  0  0  0  0  0  0  0  0  0  0  0
    8.9282   -1.7500    0.0000 C   0  0  0  0  0  0  0  0  0  0  0  0
    5.4641   -1.7500    0.0000 C   0  0  0  0  0  0  0  0  0  0  0  0
   13.2583    0.7500    0.0000 C   0  0  0  0  0  0  0  0  0  0  0  0
   12.3923    2.2500    0.0000 C   0  0  0  0  0  0  0  0  0  0  0  0
    2.8660    5.7500    0.0000 C   0  0  0  0  0  0  0  0  0  0  0  0
   10.6603    2.2500    0.0000 C   0  0  0  0  0  0  0  0  0  0  0  0
    4.5981   -3.2500    0.0000 C   0  0  0  0  0  0  0  0  0  0  0  0
    2.8660    6.7500    0.0000 C   0  0  0  0  0  0  0  0  0  0  0  0
    9.7942   -2.2500    0.0000 C   0  0  0  0  0  0  0  0  0  0  0  0
    3.7320   -3.7500    0.0000 C   0  0  0  0  0  0  0  0  0  0  0  0
    3.7320   -4.7500    0.0000 C   0  0  0  0  0  0  0  0  0  0  0  0
    4.5981   -5.2500    0.0000 C   0  0  0  0  0  0  0  0  0  0  0  0
    2.8660   -5.2500    0.0000 C   0  0  0  0  0  0  0  0  0  0  0  0
    4.5981   -6.2500    0.0000 C   0  0  0  0  0  0  0  0  0  0  0  0
    2.8660   -6.2500    0.0000 C   0  0  0  0  0  0  0  0  0  0  0  0
    3.7320   -6.7500    0.0000 C   0  0  0  0  0  0  0  0  0  0  0  0
    6.8671    3.0600    0.0000 H   0  0  0  0  0  0  0  0  0  0  0  0
    5.4641    2.8700    0.0000 H   0  0  0  0  0  0  0  0  0  0  0  0
    6.1181    4.3326    0.0000 H   0  0  0  0  0  0  0  0  0  0  0  0
    5.7196    3.6423    0.0000 H   0  0  0  0  0  0  0  0  0  0  0  0
    4.0611    2.4400    0.0000 H   0  0  0  0  0  0  0  0  0  0  0  0
    4.2690    4.5600    0.0000 H   0  0  0  0  0  0  0  0  0  0  0  0
    6.8862    1.7131    0.0000 H   0  0  0  0  0  0  0  0  0  0  0  0
    7.7331    1.9400    0.0000 H   0  0  0  0  0  0  0  0  0  0  0  0
    7.5062    2.7869    0.0000 H   0  0  0  0  0  0  0  0  0  0  0  0
    2.8660    4.3700    0.0000 H   0  0  0  0  0  0  0  0  0  0  0  0
    6.8671    0.0600    0.0000 H   0  0  0  0  0  0  0  0  0  0  0  0
    6.8671    1.0600    0.0000 H   0  0  0  0  0  0  0  0  0  0  0  0
    7.5062    3.7131    0.0000 H   0  0  0  0  0  0  0  0  0  0  0  0
    7.7331    4.5600    0.0000 H   0  0  0  0  0  0  0  0  0  0  0  0
    6.8862    4.7869    0.0000 H   0  0  0  0  0  0  0  0  0  0  0  0
    5.2520   -0.1674    0.0000 H   0  0  0  0  0  0  0  0  0  0  0  0
    4.8535   -0.8577    0.0000 H   0  0  0  0  0  0  0  0  0  0  0  0
    2.3100    4.7869    0.0000 H   0  0  0  0  0  0  0  0  0  0  0  0
    1.4631    4.5600    0.0000 H   0  0  0  0  0  0  0  0  0  0  0  0
    1.6900    3.7131    0.0000 H   0  0  0  0  0  0  0  0  0  0  0  0
    2.2460    2.7500    0.0000 H   0  0  0  0  0  0  0  0  0  0  0  0
    2.8660    2.1300    0.0000 H   0  0  0  0  0  0  0  0  0  0  0  0
    3.4860    2.7500    0.0000 H   0  0  0  0  0  0  0  0  0  0  0  0
    4.2690    5.5600    0.0000 H   0  0  0  0  0  0  0  0  0  0  0  0
    8.9282   -0.1300    0.0000 H   0  0  0  0  0  0  0  0  0  0  0  0
   11.1278    0.2751    0.0000 H   0  0  0  0  0  0  0  0  0  0  0  0
   11.9248    0.2751    0.0000 H   0  0  0  0  0  0  0  0  0  0  0  0
   10.6603    0.6300    0.0000 H   0  0  0  0  0  0  0  0  0  0  0  0
   11.8554    1.5600    0.0000 H   0  0  0  0  0  0  0  0  0  0  0  0
    8.0622    0.3700    0.0000 H   0  0  0  0  0  0  0  0  0  0  0  0
    9.2573    1.0600    0.0000 H   0  0  0  0  0  0  0  0  0  0  0  0
    8.3176   -1.6423    0.0000 H   0  0  0  0  0  0  0  0  0  0  0  0
    8.7162   -2.3326    0.0000 H   0  0  0  0  0  0  0  0  0  0  0  0
   12.9483    0.2131    0.0000 H   0  0  0  0  0  0  0  0  0  0  0  0
   13.7953    0.4400    0.0000 H   0  0  0  0  0  0  0  0  0  0  0  0
   13.5683    1.2869    0.0000 H   0  0  0  0  0  0  0  0  0  0  0  0
   13.0123    2.2500    0.0000 H   0  0  0  0  0  0  0  0  0  0  0  0
   12.3923    2.8700    0.0000 H   0  0  0  0  0  0  0  0  0  0  0  0
   11.7723    2.2500    0.0000 H   0  0  0  0  0  0  0  0  0  0  0  0
    4.0611   -1.9400    0.0000 H   0  0  0  0  0  0  0  0  0  0  0  0
    4.8101   -3.8326    0.0000 H   0  0  0  0  0  0  0  0  0  0  0  0
    5.2087   -3.1423    0.0000 H   0  0  0  0  0  0  0  0  0  0  0  0
    3.4860    6.7500    0.0000 H   0  0  0  0  0  0  0  0  0  0  0  0
    2.8660    7.3700    0.0000 H   0  0  0  0  0  0  0  0  0  0  0  0
    2.2460    6.7500    0.0000 H   0  0  0  0  0  0  0  0  0  0  0  0
    3.5200   -3.1674    0.0000 H   0  0  0  0  0  0  0  0  0  0  0  0
    3.1215   -3.8577    0.0000 H   0  0  0  0  0  0  0  0  0  0  0  0
   11.5263    3.3700    0.0000 H   0  0  0  0  0  0  0  0  0  0  0  0
   10.3312   -3.5600    0.0000 H   0  0  0  0  0  0  0  0  0  0  0  0
    5.1350   -4.9400    0.0000 H   0  0  0  0  0  0  0  0  0  0  0  0
    2.3291   -4.9400    0.0000 H   0  0  0  0  0  0  0  0  0  0  0  0
    5.1350   -6.5600    0.0000 H   0  0  0  0  0  0  0  0  0  0  0  0
    2.3291   -6.5600    0.0000 H   0  0  0  0  0  0  0  0  0  0  0  0
    3.7320   -7.3700    0.0000 H   0  0  0  0  0  0  0  0  0  0  0  0
  1 21  2  0  0  0  0
  2 24  2  0  0  0  0
  3 30  2  0  0  0  0
  4 35  2  0  0  0  0
  5 37  2  0  0  0  0
  6 41  1  0  0  0  0
  6 99  1  0  0  0  0
  7 40  2  0  0  0  0
  8 41  2  0  0  0  0
  9 44  1  0  0  0  0
  9100  1  0  0  0  0
 10 44  2  0  0  0  0
 18 11  1  1  0  0  0
 11 24  1  0  0  0  0
 11 56  1  0  0  0  0
 12 21  1  0  0  0  0
 25 12  1  6  0  0  0
 12 63  1  0  0  0  0
 20 13  1  6  0  0  0
 13 40  1  0  0  0  0
 13 75  1  0  0  0  0
 14 30  1  0  0  0  0
 31 14  1  6  0  0  0
 14 81  1  0  0  0  0
 33 15  1  6  0  0  0
 15 35  1  0  0  0  0
 15 82  1  0  0  0  0
 16 37  1  0  0  0  0
 16 42  1  0  0  0  0
 16 91  1  0  0  0  0
 17 18  1  0  0  0  0
 17 19  1  0  0  0  0
 17 22  1  6  0  0  0
 17 52  1  0  0  0  0
 18 21  1  0  0  0  0
 18 53  1  0  0  0  0
 19 26  1  0  0  0  0
 19 54  1  0  0  0  0
 19 55  1  0  0  0  0
 20 23  1  0  0  0  0
 20 24  1  0  0  0  0
 20 57  1  0  0  0  0
 22 58  1  0  0  0  0
 22 59  1  0  0  0  0
 22 60  1  0  0  0  0
 23 28  1  0  0  0  0
 23 29  1  0  0  0  0
 23 61  1  0  0  0  0
 25 27  1  0  0  0  0
 25 30  1  0  0  0  0
 25 62  1  0  0  0  0
 26 64  1  0  0  0  0
 26 65  1  0  0  0  0
 26 66  1  0  0  0  0
 27 37  1  0  0  0  0
 27 67  1  0  0  0  0
 27 68  1  0  0  0  0
 28 69  1  0  0  0  0
 28 70  1  0  0  0  0
 28 71  1  0  0  0  0
 29 72  1  0  0  0  0
 29 73  1  0  0  0  0
 29 74  1  0  0  0  0
 31 35  1  0  0  0  0
 31 36  1  0  0  0  0
 31 76  1  0  0  0  0
 32 33  1  0  0  0  0
 32 34  1  0  0  0  0
 32 77  1  0  0  0  0
 32 78  1  0  0  0  0
 33 41  1  0  0  0  0
 33 79  1  0  0  0  0
 34 38  1  0  0  0  0
 34 39  1  0  0  0  0
 34 80  1  0  0  0  0
 36 44  1  0  0  0  0
 36 83  1  0  0  0  0
 36 84  1  0  0  0  0
 38 85  1  0  0  0  0
 38 86  1  0  0  0  0
 38 87  1  0  0  0  0
 39 88  1  0  0  0  0
 39 89  1  0  0  0  0
 39 90  1  0  0  0  0
 40 43  1  0  0  0  0
 42 45  1  0  0  0  0
 42 92  1  0  0  0  0
 42 93  1  0  0  0  0
 43 94  1  0  0  0  0
 43 95  1  0  0  0  0
 43 96  1  0  0  0  0
 45 46  1  0  0  0  0
 45 97  1  0  0  0  0
 45 98  1  0  0  0  0
 46 47  2  0  0  0  0
 46 48  1  0  0  0  0
 47 49  1  0  0  0  0
 47101  1  0  0  0  0
 48 50  2  0  0  0  0
 48102  1  0  0  0  0
 49 51  2  0  0  0  0
 49103  1  0  0  0  0
 50 51  1  0  0  0  0
 50104  1  0  0  0  0
 51105  1  0  0  0  0
M  END
> <PUBCHEM_COMPOUND_CID>
502987
> <PUBCHEM_COMPOUND_CANONICALIZED>
1
> <PUBCHEM_CACTVS_COMPLEXITY>
1220
> <PUBCHEM_CACTVS_HBOND_ACCEPTOR>
10
> <PUBCHEM_CACTVS_HBOND_DONOR>
8
> <PUBCHEM_CACTVS_ROTATABLE_BOND>
22
> <PUBCHEM_CACTVS_SUBSKEYS>
AAADcfB/vAAAAAAAAAAAAAAAAAAAAAAAAAAwAAAAAAAAAAABAAAAHgAQCAAADSjBmAQyCILAAgCIAiHSGAACAAAgAAAIiIGIAIgKYDqA0TGUYAAmlgCYiAe/gIAOAAAAAAAAAAAAAAAAAAAAAAAAAAAAAA==
> <PUBCHEM_IUPAC_OPENEYE_NAME>
(2S)-2-[[(2S)-2-[[(2S)-2-[[(2S,3S)-2-[[(2S)-2-acetamido-3-methyl-butanoyl]amino]-3-methyl-pentanoyl]amino]-4-oxo-4-(2-phenylethylamino)butanoyl]amino]-3-carboxy-propanoyl]amino]-4-methyl-pentanoic acid
> <PUBCHEM_IUPAC_CAS_NAME>
(2S)-2-[[(2S)-2-[[(2S)-2-[[(2S,3S)-2-[[(2S)-2-acetamido-3-methyl-1-oxobutyl]amino]-3-methyl-1-oxopentyl]amino]-1,4-dioxo-4-(2-phenylethylamino)butyl]amino]-3-carboxy-1-oxopropyl]amino]-4-methylpentanoic acid
> <PUBCHEM_IUPAC_NAME_MARKUP>
(2<I>S</I>)-2-[[(2<I>S</I>)-2-[[(2<I>S</I>)-2-[[(2<I>S</I>,3<I>S</I>)-2-[[(2<I>S</I>)-2-acetamido-3-methylbutanoyl]amino]-3-methylpentanoyl]amino]-4-oxo-4-(2-phenylethylamino)butanoyl]amino]-3-carboxypropanoyl]amino]-4-methylpentanoic acid
> <PUBCHEM_IUPAC_NAME>
(2S)-2-[[(2S)-2-[[(2S)-2-[[(2S,3S)-2-[[(2S)-2-acetamido-3-methylbutanoyl]amino]-3-methylpentanoyl]amino]-4-oxo-4-(2-phenylethylamino)butanoyl]amino]-3-carboxypropanoyl]amino]-4-methylpentanoic acid
> <PUBCHEM_IUPAC_SYSTEMATIC_NAME>
(2S)-2-[[(2S)-2-[[(2S)-2-[[(2S,3S)-2-[[(2S)-2-acetamido-3-methyl-butanoyl]amino]-3-methyl-pentanoyl]amino]-4-oxidanylidene-4-(2-phenylethylamino)butanoyl]amino]-4-oxidanyl-4-oxidanylidene-butanoyl]amino]-4-methyl-pentanoic acid
> <PUBCHEM_IUPAC_TRADITIONAL_NAME>
(2S)-2-[[(2S)-2-[[(2S)-2-[[(2S,3S)-2-[[(2S)-2-acetamido-3-methyl-butanoyl]amino]-3-methyl-pentanoyl]amino]-4-keto-4-(phenethylamino)butanoyl]amino]-3-carboxy-propanoyl]amino]-4-methyl-valeric acid
> <PUBCHEM_IUPAC_INCHI>
InChI=1S/C35H54N6O10/c1-8-21(6)30(41-33(48)29(20(4)5)37-22(7)42)34(49)39-24(17-27(43)36-15-14-23-12-10-9-11-13-23)31(46)38-25(18-28(44)45)32(47)40-26(35(50)51)16-19(2)3/h9-13,19-21,24-26,29-30H,8,14-18H2,1-7H3,(H,36,43)(H,37,42)(H,38,46)(H,39,49)(H,40,47)(H,41,48)(H,44,45)(H,50,51)/t21-,24-,25-,26-,29-,30-/m0/s1
> <PUBCHEM_IUPAC_INCHIKEY>
UYUXEGWXTDWHTG-YMPWGIFLSA-N
> <PUBCHEM_XLOGP3_AA>
2.1
> <PUBCHEM_EXACT_MASS>
718.39014194
> <PUBCHEM_MOLECULAR_FORMULA>
C35H54N6O10
> <PUBCHEM_MOLECULAR_WEIGHT>
718.8
> <PUBCHEM_OPENEYE_CAN_SMILES>
CCC(C)C(C(=O)NC(CC(=O)NCCC1=CC=CC=C1)C(=O)NC(CC(=O)O)C(=O)NC(CC(C)C)C(=O)O)NC(=O)C(C(C)C)NC(=O)C
> <PUBCHEM_OPENEYE_ISO_SMILES>
CC[C@H](C)[C@@H](C(=O)N[C@@H](CC(=O)NCCC1=CC=CC=C1)C(=O)N[C@@H](CC(=O)O)C(=O)N[C@@H](CC(C)C)C(=O)O)NC(=O)[C@H](C(C)C)NC(=O)C
> <PUBCHEM_CACTVS_TPSA>
249
> <PUBCHEM_MONOISOTOPIC_WEIGHT>
718.39014194
> <PUBCHEM_TOTAL_CHARGE>
0
> <PUBCHEM_HEAVY_ATOM_COUNT>
51
> <PUBCHEM_ATOM_DEF_STEREO_COUNT>
6
> <PUBCHEM_ATOM_UDEF_STEREO_COUNT>
0
> <PUBCHEM_BOND_DEF_STEREO_COUNT>
0
> <PUBCHEM_BOND_UDEF_STEREO_COUNT>
0
> <PUBCHEM_ISOTOPIC_ATOM_COUNT>
0
> <PUBCHEM_COMPONENT_COUNT>
1
> <PUBCHEM_CACTVS_TAUTO_COUNT>
-1
> <PUBCHEM_COORDINATE_TYPE>
1
5
255
> <PUBCHEM_BONDANNOTATIONS>
18  11  5
25  12  6
20  13  6
31  14  6
33  15  6
17  22  6
46  47  8
46  48  8
47  49  8
48  50  8
49  51  8
50  51  8
$$$$
