502999
  -OEChem-10302200282D
121122  0     1  0  0  0  0  0999 V2000
    7.1962    4.7500    0.0000 O   0  0  0  0  0  0  0  0  0  0  0  0
    5.4641    1.7500    0.0000 O   0  0  0  0  0  0  0  0  0  0  0  0
    8.0622    4.2500    0.0000 O   0  0  0  0  0  0  0  0  0  0  0  0
    6.3301   -1.7500    0.0000 O   0  0  0  0  0  0  0  0  0  0  0  0
    8.9282    4.7500    0.0000 O   0  0  0  0  0  0  0  0  0  0  0  0
   12.3923    2.7500    0.0000 O   0  0  0  0  0  0  0  0  0  0  0  0
   11.5263    1.2500    0.0000 O   0  0  0  0  0  0  0  0  0  0  0  0
    2.8660   -2.7500    0.0000 O   0  0  0  0  0  0  0  0  0  0  0  0
   11.5263    7.2500    0.0000 O   0  0  0  0  0  0  0  0  0  0  0  0
   12.3923    5.7500    0.0000 O   0  0  0  0  0  0  0  0  0  0  0  0
    5.4641    4.7500    0.0000 N   0  0  0  0  0  0  0  0  0  0  0  0
    7.1962    1.7500    0.0000 N   0  0  0  0  0  0  0  0  0  0  0  0
    8.9282    2.7500    0.0000 N   0  0  0  0  0  0  0  0  0  0  0  0
    5.4641   -0.2500    0.0000 N   0  0  0  0  0  0  0  0  0  0  0  0
    4.5981   -2.7500    0.0000 N   0  0  0  0  0  0  0  0  0  0  0  0
   10.6603    4.7500    0.0000 N   0  0  0  0  0  0  0  0  0  0  0  0
    6.3301    0.2500    0.0000 C   0  0  1  0  0  0  0  0  0  0  0  0
    5.3596    5.7445    0.0000 C   0  0  0  0  0  0  0  0  0  0  0  0
    4.5506    4.3433    0.0000 C   0  0  0  0  0  0  0  0  0  0  0  0
    4.3814    5.9524    0.0000 C   0  0  0  0  0  0  0  0  0  0  0  0
    3.8814    5.0864    0.0000 C   0  0  0  0  0  0  0  0  0  0  0  0
    7.1962    2.7500    0.0000 C   0  0  1  0  0  0  0  0  0  0  0  0
    7.1962   -0.2500    0.0000 C   0  0  2  0  0  0  0  0  0  0  0  0
   10.6603    2.7500    0.0000 C   0  0  0  0  0  0  0  0  0  0  0  0
    9.7942    3.2500    0.0000 C   0  0  1  0  0  0  0  0  0  0  0  0
    6.3301    3.2500    0.0000 C   0  0  0  0  0  0  0  0  0  0  0  0
    6.3301    4.2500    0.0000 C   0  0  0  0  0  0  0  0  0  0  0  0
    4.5981   -1.7500    0.0000 C   0  0  1  0  0  0  0  0  0  0  0  0
    6.3301    1.2500    0.0000 C   0  0  0  0  0  0  0  0  0  0  0  0
    8.0622    3.2500    0.0000 C   0  0  0  0  0  0  0  0  0  0  0  0
    8.0622    0.2500    0.0000 C   0  0  0  0  0  0  0  0  0  0  0  0
    3.7320   -1.2500    0.0000 C   0  0  0  0  0  0  0  0  0  0  0  0
    5.4641   -1.2500    0.0000 C   0  0  0  0  0  0  0  0  0  0  0  0
    9.7942    4.2500    0.0000 C   0  0  0  0  0  0  0  0  0  0  0  0
    7.1962   -1.2500    0.0000 C   0  0  0  0  0  0  0  0  0  0  0  0
   11.1603    3.6160    0.0000 C   0  0  0  0  0  0  0  0  0  0  0  0
   10.1603    1.8840    0.0000 C   0  0  0  0  0  0  0  0  0  0  0  0
   11.5263    2.2500    0.0000 C   0  0  0  0  0  0  0  0  0  0  0  0
   10.6603    5.7500    0.0000 C   0  0  1  0  0  0  0  0  0  0  0  0
    9.7942    6.2500    0.0000 C   0  0  0  0  0  0  0  0  0  0  0  0
    8.9282   -0.2500    0.0000 C   0  0  0  0  0  0  0  0  0  0  0  0
    3.7320   -0.2500    0.0000 C   0  0  0  0  0  0  0  0  0  0  0  0
    2.8660   -1.7500    0.0000 C   0  0  0  0  0  0  0  0  0  0  0  0
    9.7942    7.2500    0.0000 C   0  0  0  0  0  0  0  0  0  0  0  0
    3.7320   -3.2500    0.0000 C   0  0  0  0  0  0  0  0  0  0  0  0
    5.4641   -3.2500    0.0000 C   0  0  0  0  0  0  0  0  0  0  0  0
    3.7320   -4.2500    0.0000 C   0  0  0  0  0  0  0  0  0  0  0  0
   11.5263    6.2500    0.0000 C   0  0  0  0  0  0  0  0  0  0  0  0
    8.9282    7.7500    0.0000 C   0  0  0  0  0  0  0  0  0  0  0  0
   10.6603    7.7500    0.0000 C   0  0  0  0  0  0  0  0  0  0  0  0
    2.8660   -4.7500    0.0000 C   0  0  0  0  0  0  0  0  0  0  0  0
    2.8660   -5.7500    0.0000 C   0  0  0  0  0  0  0  0  0  0  0  0
    3.7320   -6.2500    0.0000 C   0  0  0  0  0  0  0  0  0  0  0  0
    2.0000   -6.2500    0.0000 C   0  0  0  0  0  0  0  0  0  0  0  0
    3.7320   -7.2500    0.0000 C   0  0  0  0  0  0  0  0  0  0  0  0
    2.0000   -7.2500    0.0000 C   0  0  0  0  0  0  0  0  0  0  0  0
    2.8660   -7.7500    0.0000 C   0  0  0  0  0  0  0  0  0  0  0  0
    5.7932    0.5600    0.0000 H   0  0  0  0  0  0  0  0  0  0  0  0
    5.9796    5.7445    0.0000 H   0  0  0  0  0  0  0  0  0  0  0  0
    5.4244    6.3611    0.0000 H   0  0  0  0  0  0  0  0  0  0  0  0
    4.0490    3.9788    0.0000 H   0  0  0  0  0  0  0  0  0  0  0  0
    4.8606    3.8063    0.0000 H   0  0  0  0  0  0  0  0  0  0  0  0
    4.5730    6.5421    0.0000 H   0  0  0  0  0  0  0  0  0  0  0  0
    3.8150    6.2046    0.0000 H   0  0  0  0  0  0  0  0  0  0  0  0
    3.3798    5.4508    0.0000 H   0  0  0  0  0  0  0  0  0  0  0  0
    3.4666    4.6257    0.0000 H   0  0  0  0  0  0  0  0  0  0  0  0
    6.6592    2.4400    0.0000 H   0  0  0  0  0  0  0  0  0  0  0  0
    6.6592   -0.5600    0.0000 H   0  0  0  0  0  0  0  0  0  0  0  0
    9.2573    3.5600    0.0000 H   0  0  0  0  0  0  0  0  0  0  0  0
    5.7196    3.3577    0.0000 H   0  0  0  0  0  0  0  0  0  0  0  0
    6.1181    2.6674    0.0000 H   0  0  0  0  0  0  0  0  0  0  0  0
    5.1350   -2.0600    0.0000 H   0  0  0  0  0  0  0  0  0  0  0  0
    7.7331    1.4400    0.0000 H   0  0  0  0  0  0  0  0  0  0  0  0
    8.9282    2.1300    0.0000 H   0  0  0  0  0  0  0  0  0  0  0  0
    8.4607    0.7249    0.0000 H   0  0  0  0  0  0  0  0  0  0  0  0
    7.6636    0.7249    0.0000 H   0  0  0  0  0  0  0  0  0  0  0  0
    4.9272    0.0600    0.0000 H   0  0  0  0  0  0  0  0  0  0  0  0
    3.7320   -1.8700    0.0000 H   0  0  0  0  0  0  0  0  0  0  0  0
    6.5762   -1.2500    0.0000 H   0  0  0  0  0  0  0  0  0  0  0  0
    7.1962   -1.8700    0.0000 H   0  0  0  0  0  0  0  0  0  0  0  0
    7.8162   -1.2500    0.0000 H   0  0  0  0  0  0  0  0  0  0  0  0
   11.6972    3.3060    0.0000 H   0  0  0  0  0  0  0  0  0  0  0  0
   11.4703    4.1530    0.0000 H   0  0  0  0  0  0  0  0  0  0  0  0
   10.6233    3.9260    0.0000 H   0  0  0  0  0  0  0  0  0  0  0  0
    9.6233    2.1940    0.0000 H   0  0  0  0  0  0  0  0  0  0  0  0
    9.8503    1.3470    0.0000 H   0  0  0  0  0  0  0  0  0  0  0  0
   10.6972    1.5740    0.0000 H   0  0  0  0  0  0  0  0  0  0  0  0
   11.1972    5.4400    0.0000 H   0  0  0  0  0  0  0  0  0  0  0  0
   11.1972    4.4400    0.0000 H   0  0  0  0  0  0  0  0  0  0  0  0
    9.1836    6.3577    0.0000 H   0  0  0  0  0  0  0  0  0  0  0  0
    9.5822    5.6674    0.0000 H   0  0  0  0  0  0  0  0  0  0  0  0
    8.6182   -0.7869    0.0000 H   0  0  0  0  0  0  0  0  0  0  0  0
    9.4651   -0.5600    0.0000 H   0  0  0  0  0  0  0  0  0  0  0  0
    9.2382    0.2869    0.0000 H   0  0  0  0  0  0  0  0  0  0  0  0
    4.3520   -0.2500    0.0000 H   0  0  0  0  0  0  0  0  0  0  0  0
    3.7320    0.3700    0.0000 H   0  0  0  0  0  0  0  0  0  0  0  0
    3.1120   -0.2500    0.0000 H   0  0  0  0  0  0  0  0  0  0  0  0
    2.5560   -1.2131    0.0000 H   0  0  0  0  0  0  0  0  0  0  0  0
    2.3291   -2.0600    0.0000 H   0  0  0  0  0  0  0  0  0  0  0  0
    3.1760   -2.2869    0.0000 H   0  0  0  0  0  0  0  0  0  0  0  0
    9.2573    6.9400    0.0000 H   0  0  0  0  0  0  0  0  0  0  0  0
    5.1541   -3.7869    0.0000 H   0  0  0  0  0  0  0  0  0  0  0  0
    6.0010   -3.5600    0.0000 H   0  0  0  0  0  0  0  0  0  0  0  0
    5.7741   -2.7131    0.0000 H   0  0  0  0  0  0  0  0  0  0  0  0
    3.9441   -4.8326    0.0000 H   0  0  0  0  0  0  0  0  0  0  0  0
    4.3426   -4.1423    0.0000 H   0  0  0  0  0  0  0  0  0  0  0  0
    9.2382    8.2869    0.0000 H   0  0  0  0  0  0  0  0  0  0  0  0
    8.3913    8.0600    0.0000 H   0  0  0  0  0  0  0  0  0  0  0  0
    8.6182    7.2131    0.0000 H   0  0  0  0  0  0  0  0  0  0  0  0
   10.9703    7.2131    0.0000 H   0  0  0  0  0  0  0  0  0  0  0  0
   11.1972    8.0600    0.0000 H   0  0  0  0  0  0  0  0  0  0  0  0
   10.3503    8.2869    0.0000 H   0  0  0  0  0  0  0  0  0  0  0  0
   12.9292    2.4400    0.0000 H   0  0  0  0  0  0  0  0  0  0  0  0
    2.6540   -4.1674    0.0000 H   0  0  0  0  0  0  0  0  0  0  0  0
    2.2554   -4.8577    0.0000 H   0  0  0  0  0  0  0  0  0  0  0  0
   12.0632    7.5600    0.0000 H   0  0  0  0  0  0  0  0  0  0  0  0
    4.2690   -5.9400    0.0000 H   0  0  0  0  0  0  0  0  0  0  0  0
    1.4631   -5.9400    0.0000 H   0  0  0  0  0  0  0  0  0  0  0  0
    4.2690   -7.5600    0.0000 H   0  0  0  0  0  0  0  0  0  0  0  0
    1.4631   -7.5600    0.0000 H   0  0  0  0  0  0  0  0  0  0  0  0
    2.8660   -8.3700    0.0000 H   0  0  0  0  0  0  0  0  0  0  0  0
  1 27  2  0  0  0  0
  2 29  2  0  0  0  0
  3 30  2  0  0  0  0
  4 33  2  0  0  0  0
  5 34  2  0  0  0  0
  6 38  1  0  0  0  0
  6113  1  0  0  0  0
  7 38  2  0  0  0  0
  8 45  2  0  0  0  0
  9 48  1  0  0  0  0
  9116  1  0  0  0  0
 10 48  2  0  0  0  0
 11 18  1  0  0  0  0
 11 19  1  0  0  0  0
 11 27  1  0  0  0  0
 22 12  1  1  0  0  0
 12 29  1  0  0  0  0
 12 73  1  0  0  0  0
 25 13  1  6  0  0  0
 13 30  1  0  0  0  0
 13 74  1  0  0  0  0
 17 14  1  6  0  0  0
 14 33  1  0  0  0  0
 14 77  1  0  0  0  0
 28 15  1  1  0  0  0
 15 45  1  0  0  0  0
 15 46  1  0  0  0  0
 16 34  1  0  0  0  0
 39 16  1  1  0  0  0
 16 89  1  0  0  0  0
 17 23  1  0  0  0  0
 17 29  1  0  0  0  0
 17 58  1  0  0  0  0
 18 20  1  0  0  0  0
 18 59  1  0  0  0  0
 18 60  1  0  0  0  0
 19 21  1  0  0  0  0
 19 61  1  0  0  0  0
 19 62  1  0  0  0  0
 20 21  1  0  0  0  0
 20 63  1  0  0  0  0
 20 64  1  0  0  0  0
 21 65  1  0  0  0  0
 21 66  1  0  0  0  0
 22 26  1  0  0  0  0
 22 30  1  0  0  0  0
 22 67  1  0  0  0  0
 23 31  1  0  0  0  0
 23 35  1  6  0  0  0
 23 68  1  0  0  0  0
 24 25  1  0  0  0  0
 24 36  1  0  0  0  0
 24 37  1  0  0  0  0
 24 38  1  0  0  0  0
 25 34  1  0  0  0  0
 25 69  1  0  0  0  0
 26 27  1  0  0  0  0
 26 70  1  0  0  0  0
 26 71  1  0  0  0  0
 28 32  1  0  0  0  0
 28 33  1  0  0  0  0
 28 72  1  0  0  0  0
 31 41  1  0  0  0  0
 31 75  1  0  0  0  0
 31 76  1  0  0  0  0
 32 42  1  0  0  0  0
 32 43  1  0  0  0  0
 32 78  1  0  0  0  0
 35 79  1  0  0  0  0
 35 80  1  0  0  0  0
 35 81  1  0  0  0  0
 36 82  1  0  0  0  0
 36 83  1  0  0  0  0
 36 84  1  0  0  0  0
 37 85  1  0  0  0  0
 37 86  1  0  0  0  0
 37 87  1  0  0  0  0
 39 40  1  0  0  0  0
 39 48  1  0  0  0  0
 39 88  1  0  0  0  0
 40 44  1  0  0  0  0
 40 90  1  0  0  0  0
 40 91  1  0  0  0  0
 41 92  1  0  0  0  0
 41 93  1  0  0  0  0
 41 94  1  0  0  0  0
 42 95  1  0  0  0  0
 42 96  1  0  0  0  0
 42 97  1  0  0  0  0
 43 98  1  0  0  0  0
 43 99  1  0  0  0  0
 43100  1  0  0  0  0
 44 49  1  0  0  0  0
 44 50  1  0  0  0  0
 44101  1  0  0  0  0
 45 47  1  0  0  0  0
 46102  1  0  0  0  0
 46103  1  0  0  0  0
 46104  1  0  0  0  0
 47 51  1  0  0  0  0
 47105  1  0  0  0  0
 47106  1  0  0  0  0
 49107  1  0  0  0  0
 49108  1  0  0  0  0
 49109  1  0  0  0  0
 50110  1  0  0  0  0
 50111  1  0  0  0  0
 50112  1  0  0  0  0
 51 52  1  0  0  0  0
 51114  1  0  0  0  0
 51115  1  0  0  0  0
 52 53  2  0  0  0  0
 52 54  1  0  0  0  0
 53 55  1  0  0  0  0
 53117  1  0  0  0  0
 54 56  2  0  0  0  0
 54118  1  0  0  0  0
 55 57  2  0  0  0  0
 55119  1  0  0  0  0
 56 57  1  0  0  0  0
 56120  1  0  0  0  0
 57121  1  0  0  0  0
M  END
> <PUBCHEM_COMPOUND_CID>
502999
> <PUBCHEM_COMPOUND_CANONICALIZED>
1
> <PUBCHEM_CACTVS_COMPLEXITY>
1420
> <PUBCHEM_CACTVS_HBOND_ACCEPTOR>
10
> <PUBCHEM_CACTVS_HBOND_DONOR>
6
> <PUBCHEM_CACTVS_ROTATABLE_BOND>
22
> <PUBCHEM_CACTVS_SUBSKEYS>
AAADcfB/vAAAAAAAAAAAAAAAAAAAAWAAAAAwAAAAAAAAAAABAAAAHgAQCAAADyjBmAQyCIPAAgCIAiHSGAACAAAgAAAIiIGIAIgKYDqA0TCUYAAmlgCYiAe/iICPAAAAAAAAAAAAAAAAAAAAAAAAAAAAAA==
> <PUBCHEM_IUPAC_OPENEYE_NAME>
(3S)-4-[[(1S)-1-carboxy-3-methyl-butyl]amino]-2,2-dimethyl-3-[[(2S)-2-[[(2S,3S)-3-methyl-2-[[(2S)-3-methyl-2-[methyl(3-phenylpropanoyl)amino]butanoyl]amino]pentanoyl]amino]-4-oxo-4-pyrrolidin-1-yl-butanoyl]amino]-4-oxo-butanoic acid
> <PUBCHEM_IUPAC_CAS_NAME>
(3S)-4-[[(1S)-1-carboxy-3-methylbutyl]amino]-2,2-dimethyl-3-[[(2S)-2-[[(2S,3S)-3-methyl-2-[[(2S)-3-methyl-2-[methyl-(1-oxo-3-phenylpropyl)amino]-1-oxobutyl]amino]-1-oxopentyl]amino]-1,4-dioxo-4-(1-pyrrolidinyl)butyl]amino]-4-oxobutanoic acid
> <PUBCHEM_IUPAC_NAME_MARKUP>
(3<I>S</I>)-4-[[(1<I>S</I>)-1-carboxy-3-methylbutyl]amino]-2,2-dimethyl-3-[[(2<I>S</I>)-2-[[(2<I>S</I>,3<I>S</I>)-3-methyl-2-[[(2<I>S</I>)-3-methyl-2-[methyl(3-phenylpropanoyl)amino]butanoyl]amino]pentanoyl]amino]-4-oxo-4-pyrrolidin-1-ylbutanoyl]amino]-4-oxobutanoic acid
> <PUBCHEM_IUPAC_NAME>
(3S)-4-[[(1S)-1-carboxy-3-methylbutyl]amino]-2,2-dimethyl-3-[[(2S)-2-[[(2S,3S)-3-methyl-2-[[(2S)-3-methyl-2-[methyl(3-phenylpropanoyl)amino]butanoyl]amino]pentanoyl]amino]-4-oxo-4-pyrrolidin-1-ylbutanoyl]amino]-4-oxobutanoic acid
> <PUBCHEM_IUPAC_SYSTEMATIC_NAME>
(3S)-2,2-dimethyl-3-[[(2S)-2-[[(2S,3S)-3-methyl-2-[[(2S)-3-methyl-2-[methyl(3-phenylpropanoyl)amino]butanoyl]amino]pentanoyl]amino]-4-oxidanylidene-4-pyrrolidin-1-yl-butanoyl]amino]-4-[[(2S)-4-methyl-1-oxidanyl-1-oxidanylidene-pentan-2-yl]amino]-4-oxidanylidene-butanoic acid
> <PUBCHEM_IUPAC_TRADITIONAL_NAME>
(3S)-4-[[(1S)-1-carboxy-3-methyl-butyl]amino]-3-[[(2S)-2-[[(2S,3S)-2-[[(2S)-2-[hydrocinnamoyl(methyl)amino]-3-methyl-butanoyl]amino]-3-methyl-pentanoyl]amino]-4-keto-4-pyrrolidino-butanoyl]amino]-4-keto-2,2-dimethyl-butyric acid
> <PUBCHEM_IUPAC_INCHI>
InChI=1S/C41H64N6O10/c1-10-26(6)32(44-37(52)33(25(4)5)46(9)30(48)19-18-27-16-12-11-13-17-27)36(51)42-28(23-31(49)47-20-14-15-21-47)35(50)45-34(41(7,8)40(56)57)38(53)43-29(39(54)55)22-24(2)3/h11-13,16-17,24-26,28-29,32-34H,10,14-15,18-23H2,1-9H3,(H,42,51)(H,43,53)(H,44,52)(H,45,50)(H,54,55)(H,56,57)/t26-,28-,29-,32-,33-,34+/m0/s1
> <PUBCHEM_IUPAC_INCHIKEY>
FHFQSHITCGEVBM-RRCQHFHRSA-N
> <PUBCHEM_XLOGP3_AA>
3.8
> <PUBCHEM_EXACT_MASS>
800.46839226
> <PUBCHEM_MOLECULAR_FORMULA>
C41H64N6O10
> <PUBCHEM_MOLECULAR_WEIGHT>
801.0
> <PUBCHEM_OPENEYE_CAN_SMILES>
CCC(C)C(C(=O)NC(CC(=O)N1CCCC1)C(=O)NC(C(=O)NC(CC(C)C)C(=O)O)C(C)(C)C(=O)O)NC(=O)C(C(C)C)N(C)C(=O)CCC2=CC=CC=C2
> <PUBCHEM_OPENEYE_ISO_SMILES>
CC[C@H](C)[C@@H](C(=O)N[C@@H](CC(=O)N1CCCC1)C(=O)N[C@H](C(=O)N[C@@H](CC(C)C)C(=O)O)C(C)(C)C(=O)O)NC(=O)[C@H](C(C)C)N(C)C(=O)CCC2=CC=CC=C2
> <PUBCHEM_CACTVS_TPSA>
232
> <PUBCHEM_MONOISOTOPIC_WEIGHT>
800.46839226
> <PUBCHEM_TOTAL_CHARGE>
0
> <PUBCHEM_HEAVY_ATOM_COUNT>
57
> <PUBCHEM_ATOM_DEF_STEREO_COUNT>
6
> <PUBCHEM_ATOM_UDEF_STEREO_COUNT>
0
> <PUBCHEM_BOND_DEF_STEREO_COUNT>
0
> <PUBCHEM_BOND_UDEF_STEREO_COUNT>
0
> <PUBCHEM_ISOTOPIC_ATOM_COUNT>
0
> <PUBCHEM_COMPONENT_COUNT>
1
> <PUBCHEM_CACTVS_TAUTO_COUNT>
-1
> <PUBCHEM_COORDINATE_TYPE>
1
5
255
> <PUBCHEM_BONDANNOTATIONS>
22  12  5
25  13  6
17  14  6
28  15  5
39  16  5
23  35  6
52  53  8
52  54  8
53  55  8
54  56  8
55  57  8
56  57  8
$$$$
