502992
  -OEChem-10302200282D
117118  0     1  0  0  0  0  0999 V2000
   12.0632   -3.6550    0.0000 O   0  0  0  0  0  0  0  0  0  0  0  0
   10.3312   -0.6550    0.0000 O   0  0  0  0  0  0  0  0  0  0  0  0
    6.8671    0.3450    0.0000 O   0  0  0  0  0  0  0  0  0  0  0  0
   11.1972   -4.1550    0.0000 O   0  0  0  0  0  0  0  0  0  0  0  0
    7.7331    3.8450    0.0000 O   0  0  0  0  0  0  0  0  0  0  0  0
    8.5991   -6.6550    0.0000 O   0  0  0  0  0  0  0  0  0  0  0  0
    5.1350   -5.6550    0.0000 O   0  0  0  0  0  0  0  0  0  0  0  0
   11.1972   -7.1550    0.0000 O   0  0  0  0  0  0  0  0  0  0  0  0
    6.0010   -4.1550    0.0000 O   0  0  0  0  0  0  0  0  0  0  0  0
    9.4651   -7.1550    0.0000 O   0  0  0  0  0  0  0  0  0  0  0  0
    4.2690    7.8450    0.0000 O   0  0  0  0  0  0  0  0  0  0  0  0
    2.5369    6.8450    0.0000 O   0  0  0  0  0  0  0  0  0  0  0  0
   12.9292   -2.1550    0.0000 N   0  0  0  0  0  0  0  0  0  0  0  0
    8.5991    0.3450    0.0000 N   0  0  0  0  0  0  0  0  0  0  0  0
    9.4651   -2.1550    0.0000 N   0  0  0  0  0  0  0  0  0  0  0  0
    6.8671    2.3450    0.0000 N   0  0  0  0  0  0  0  0  0  0  0  0
    9.4651   -4.1550    0.0000 N   0  0  0  0  0  0  0  0  0  0  0  0
    7.7331   -5.1550    0.0000 N   0  0  0  0  0  0  0  0  0  0  0  0
    8.5991   -0.6550    0.0000 C   0  0  1  0  0  0  0  0  0  0  0  0
    7.7331   -1.1550    0.0000 C   0  0  2  0  0  0  0  0  0  0  0  0
   13.8428   -2.5617    0.0000 C   0  0  0  0  0  0  0  0  0  0  0  0
   13.0338   -1.1605    0.0000 C   0  0  0  0  0  0  0  0  0  0  0  0
   14.5119   -1.8186    0.0000 C   0  0  0  0  0  0  0  0  0  0  0  0
   14.0119   -0.9526    0.0000 C   0  0  0  0  0  0  0  0  0  0  0  0
    7.7331    1.8450    0.0000 C   0  0  1  0  0  0  0  0  0  0  0  0
   10.3312   -2.6550    0.0000 C   0  0  1  0  0  0  0  0  0  0  0  0
   11.1972   -2.1550    0.0000 C   0  0  0  0  0  0  0  0  0  0  0  0
   12.0632   -2.6550    0.0000 C   0  0  0  0  0  0  0  0  0  0  0  0
    8.5991    2.3450    0.0000 C   0  0  0  0  0  0  0  0  0  0  0  0
    7.7331   -2.1550    0.0000 C   0  0  0  0  0  0  0  0  0  0  0  0
    9.4651   -1.1550    0.0000 C   0  0  0  0  0  0  0  0  0  0  0  0
    7.7331    0.8450    0.0000 C   0  0  0  0  0  0  0  0  0  0  0  0
    6.8671   -0.6550    0.0000 C   0  0  0  0  0  0  0  0  0  0  0  0
   10.3312   -3.6550    0.0000 C   0  0  0  0  0  0  0  0  0  0  0  0
    9.4651    1.8450    0.0000 C   0  0  0  0  0  0  0  0  0  0  0  0
    8.5991    3.3450    0.0000 C   0  0  0  0  0  0  0  0  0  0  0  0
    6.8671   -2.6550    0.0000 C   0  0  0  0  0  0  0  0  0  0  0  0
    9.4651   -5.1550    0.0000 C   0  0  1  0  0  0  0  0  0  0  0  0
    6.8671    3.3450    0.0000 C   0  0  0  0  0  0  0  0  0  0  0  0
    6.0010    1.8450    0.0000 C   0  0  0  0  0  0  0  0  0  0  0  0
    6.0010    3.8450    0.0000 C   0  0  0  0  0  0  0  0  0  0  0  0
    6.8671   -5.6550    0.0000 C   0  0  1  0  0  0  0  0  0  0  0  0
    6.8671   -6.6550    0.0000 C   0  0  0  0  0  0  0  0  0  0  0  0
   10.3312   -5.6550    0.0000 C   0  0  0  0  0  0  0  0  0  0  0  0
    8.5991   -5.6550    0.0000 C   0  0  0  0  0  0  0  0  0  0  0  0
    6.0010   -7.1550    0.0000 C   0  0  0  0  0  0  0  0  0  0  0  0
    6.0010    4.8450    0.0000 C   0  0  0  0  0  0  0  0  0  0  0  0
    6.0010   -8.1550    0.0000 C   0  0  0  0  0  0  0  0  0  0  0  0
    5.1350   -6.6550    0.0000 C   0  0  0  0  0  0  0  0  0  0  0  0
    5.1350    5.3450    0.0000 C   0  0  0  0  0  0  0  0  0  0  0  0
    6.0010   -5.1550    0.0000 C   0  0  0  0  0  0  0  0  0  0  0  0
   10.3312   -6.6550    0.0000 C   0  0  0  0  0  0  0  0  0  0  0  0
    5.1350    6.3450    0.0000 C   0  0  0  0  0  0  0  0  0  0  0  0
    4.2690    4.8450    0.0000 C   0  0  0  0  0  0  0  0  0  0  0  0
    4.2690    6.8450    0.0000 C   0  0  0  0  0  0  0  0  0  0  0  0
    3.4030    5.3450    0.0000 C   0  0  0  0  0  0  0  0  0  0  0  0
    3.4030    6.3450    0.0000 C   0  0  0  0  0  0  0  0  0  0  0  0
    9.1360   -0.3450    0.0000 H   0  0  0  0  0  0  0  0  0  0  0  0
    7.7331   -0.5350    0.0000 H   0  0  0  0  0  0  0  0  0  0  0  0
   13.5328   -3.0987    0.0000 H   0  0  0  0  0  0  0  0  0  0  0  0
   14.3444   -2.9262    0.0000 H   0  0  0  0  0  0  0  0  0  0  0  0
   12.9690   -0.5439    0.0000 H   0  0  0  0  0  0  0  0  0  0  0  0
   12.4138   -1.1605    0.0000 H   0  0  0  0  0  0  0  0  0  0  0  0
   14.9268   -2.2793    0.0000 H   0  0  0  0  0  0  0  0  0  0  0  0
   15.0135   -1.4542    0.0000 H   0  0  0  0  0  0  0  0  0  0  0  0
   14.5783   -0.7004    0.0000 H   0  0  0  0  0  0  0  0  0  0  0  0
   13.8203   -0.3629    0.0000 H   0  0  0  0  0  0  0  0  0  0  0  0
    7.7331    2.4650    0.0000 H   0  0  0  0  0  0  0  0  0  0  0  0
    9.7942   -2.9650    0.0000 H   0  0  0  0  0  0  0  0  0  0  0  0
   11.5957   -1.6800    0.0000 H   0  0  0  0  0  0  0  0  0  0  0  0
   10.7987   -1.6800    0.0000 H   0  0  0  0  0  0  0  0  0  0  0  0
    8.5991    1.7250    0.0000 H   0  0  0  0  0  0  0  0  0  0  0  0
    7.9451   -2.7376    0.0000 H   0  0  0  0  0  0  0  0  0  0  0  0
    8.3437   -2.0473    0.0000 H   0  0  0  0  0  0  0  0  0  0  0  0
    9.1360    0.6550    0.0000 H   0  0  0  0  0  0  0  0  0  0  0  0
    8.9282   -2.4650    0.0000 H   0  0  0  0  0  0  0  0  0  0  0  0
    7.1771   -0.1181    0.0000 H   0  0  0  0  0  0  0  0  0  0  0  0
    6.3301   -0.3450    0.0000 H   0  0  0  0  0  0  0  0  0  0  0  0
    6.5571   -1.1919    0.0000 H   0  0  0  0  0  0  0  0  0  0  0  0
    9.1551    1.3081    0.0000 H   0  0  0  0  0  0  0  0  0  0  0  0
   10.0021    1.5350    0.0000 H   0  0  0  0  0  0  0  0  0  0  0  0
    9.7751    2.3819    0.0000 H   0  0  0  0  0  0  0  0  0  0  0  0
    9.2191    3.3450    0.0000 H   0  0  0  0  0  0  0  0  0  0  0  0
    8.5991    3.9650    0.0000 H   0  0  0  0  0  0  0  0  0  0  0  0
    7.9791    3.3450    0.0000 H   0  0  0  0  0  0  0  0  0  0  0  0
    6.5571   -2.1181    0.0000 H   0  0  0  0  0  0  0  0  0  0  0  0
    6.3301   -2.9650    0.0000 H   0  0  0  0  0  0  0  0  0  0  0  0
    7.1771   -3.1919    0.0000 H   0  0  0  0  0  0  0  0  0  0  0  0
   10.0021   -4.8450    0.0000 H   0  0  0  0  0  0  0  0  0  0  0  0
    8.9282   -3.8450    0.0000 H   0  0  0  0  0  0  0  0  0  0  0  0
    5.6910    2.3819    0.0000 H   0  0  0  0  0  0  0  0  0  0  0  0
    5.4641    1.5350    0.0000 H   0  0  0  0  0  0  0  0  0  0  0  0
    6.3110    1.3081    0.0000 H   0  0  0  0  0  0  0  0  0  0  0  0
    5.3905    3.9527    0.0000 H   0  0  0  0  0  0  0  0  0  0  0  0
    5.7890    3.2624    0.0000 H   0  0  0  0  0  0  0  0  0  0  0  0
    7.4040   -5.9650    0.0000 H   0  0  0  0  0  0  0  0  0  0  0  0
    7.0791   -7.2376    0.0000 H   0  0  0  0  0  0  0  0  0  0  0  0
    7.4776   -6.5473    0.0000 H   0  0  0  0  0  0  0  0  0  0  0  0
   10.9417   -5.7627    0.0000 H   0  0  0  0  0  0  0  0  0  0  0  0
   10.5432   -5.0724    0.0000 H   0  0  0  0  0  0  0  0  0  0  0  0
    6.5380   -7.4650    0.0000 H   0  0  0  0  0  0  0  0  0  0  0  0
    7.7331   -4.5350    0.0000 H   0  0  0  0  0  0  0  0  0  0  0  0
    6.6116    4.7373    0.0000 H   0  0  0  0  0  0  0  0  0  0  0  0
    6.2131    5.4276    0.0000 H   0  0  0  0  0  0  0  0  0  0  0  0
    5.3810   -8.1550    0.0000 H   0  0  0  0  0  0  0  0  0  0  0  0
    6.0010   -8.7750    0.0000 H   0  0  0  0  0  0  0  0  0  0  0  0
    6.6210   -8.1550    0.0000 H   0  0  0  0  0  0  0  0  0  0  0  0
    5.4450   -6.1181    0.0000 H   0  0  0  0  0  0  0  0  0  0  0  0
    4.5981   -6.3450    0.0000 H   0  0  0  0  0  0  0  0  0  0  0  0
    4.8250   -7.1919    0.0000 H   0  0  0  0  0  0  0  0  0  0  0  0
    5.6720    6.6550    0.0000 H   0  0  0  0  0  0  0  0  0  0  0  0
    4.2690    4.2250    0.0000 H   0  0  0  0  0  0  0  0  0  0  0  0
    4.5981   -5.3450    0.0000 H   0  0  0  0  0  0  0  0  0  0  0  0
    2.8660    5.0350    0.0000 H   0  0  0  0  0  0  0  0  0  0  0  0
   11.1972   -7.7750    0.0000 H   0  0  0  0  0  0  0  0  0  0  0  0
    4.8059    8.1550    0.0000 H   0  0  0  0  0  0  0  0  0  0  0  0
    2.0000    6.5350    0.0000 H   0  0  0  0  0  0  0  0  0  0  0  0
  1 28  2  0  0  0  0
  2 31  2  0  0  0  0
  3 32  2  0  0  0  0
  4 34  2  0  0  0  0
  5 39  2  0  0  0  0
  6 45  2  0  0  0  0
  7 51  1  0  0  0  0
  7113  1  0  0  0  0
  8 52  1  0  0  0  0
  8115  1  0  0  0  0
  9 51  2  0  0  0  0
 10 52  2  0  0  0  0
 11 55  1  0  0  0  0
 11116  1  0  0  0  0
 12 57  1  0  0  0  0
 12117  1  0  0  0  0
 13 21  1  0  0  0  0
 13 22  1  0  0  0  0
 13 28  1  0  0  0  0
 19 14  1  6  0  0  0
 14 32  1  0  0  0  0
 14 75  1  0  0  0  0
 26 15  1  1  0  0  0
 15 31  1  0  0  0  0
 15 76  1  0  0  0  0
 25 16  1  1  0  0  0
 16 39  1  0  0  0  0
 16 40  1  0  0  0  0
 17 34  1  0  0  0  0
 38 17  1  1  0  0  0
 17 90  1  0  0  0  0
 42 18  1  1  0  0  0
 18 45  1  0  0  0  0
 18102  1  0  0  0  0
 19 20  1  0  0  0  0
 19 31  1  0  0  0  0
 19 58  1  0  0  0  0
 20 30  1  0  0  0  0
 20 33  1  6  0  0  0
 20 59  1  0  0  0  0
 21 23  1  0  0  0  0
 21 60  1  0  0  0  0
 21 61  1  0  0  0  0
 22 24  1  0  0  0  0
 22 62  1  0  0  0  0
 22 63  1  0  0  0  0
 23 24  1  0  0  0  0
 23 64  1  0  0  0  0
 23 65  1  0  0  0  0
 24 66  1  0  0  0  0
 24 67  1  0  0  0  0
 25 29  1  0  0  0  0
 25 32  1  0  0  0  0
 25 68  1  0  0  0  0
 26 27  1  0  0  0  0
 26 34  1  0  0  0  0
 26 69  1  0  0  0  0
 27 28  1  0  0  0  0
 27 70  1  0  0  0  0
 27 71  1  0  0  0  0
 29 35  1  0  0  0  0
 29 36  1  0  0  0  0
 29 72  1  0  0  0  0
 30 37  1  0  0  0  0
 30 73  1  0  0  0  0
 30 74  1  0  0  0  0
 33 77  1  0  0  0  0
 33 78  1  0  0  0  0
 33 79  1  0  0  0  0
 35 80  1  0  0  0  0
 35 81  1  0  0  0  0
 35 82  1  0  0  0  0
 36 83  1  0  0  0  0
 36 84  1  0  0  0  0
 36 85  1  0  0  0  0
 37 86  1  0  0  0  0
 37 87  1  0  0  0  0
 37 88  1  0  0  0  0
 38 44  1  0  0  0  0
 38 45  1  0  0  0  0
 38 89  1  0  0  0  0
 39 41  1  0  0  0  0
 40 91  1  0  0  0  0
 40 92  1  0  0  0  0
 40 93  1  0  0  0  0
 41 47  1  0  0  0  0
 41 94  1  0  0  0  0
 41 95  1  0  0  0  0
 42 43  1  0  0  0  0
 42 51  1  0  0  0  0
 42 96  1  0  0  0  0
 43 46  1  0  0  0  0
 43 97  1  0  0  0  0
 43 98  1  0  0  0  0
 44 52  1  0  0  0  0
 44 99  1  0  0  0  0
 44100  1  0  0  0  0
 46 48  1  0  0  0  0
 46 49  1  0  0  0  0
 46101  1  0  0  0  0
 47 50  1  0  0  0  0
 47103  1  0  0  0  0
 47104  1  0  0  0  0
 48105  1  0  0  0  0
 48106  1  0  0  0  0
 48107  1  0  0  0  0
 49108  1  0  0  0  0
 49109  1  0  0  0  0
 49110  1  0  0  0  0
 50 53  2  0  0  0  0
 50 54  1  0  0  0  0
 53 55  1  0  0  0  0
 53111  1  0  0  0  0
 54 56  2  0  0  0  0
 54112  1  0  0  0  0
 55 57  2  0  0  0  0
 56 57  1  0  0  0  0
 56114  1  0  0  0  0
M  END
> <PUBCHEM_COMPOUND_CID>
502992
> <PUBCHEM_COMPOUND_CANONICALIZED>
1
> <PUBCHEM_CACTVS_COMPLEXITY>
1420
> <PUBCHEM_CACTVS_HBOND_ACCEPTOR>
12
> <PUBCHEM_CACTVS_HBOND_DONOR>
8
> <PUBCHEM_CACTVS_ROTATABLE_BOND>
22
> <PUBCHEM_CACTVS_SUBSKEYS>
AAADcfB/vAAAAAAAAAAAAAAAAAAAAWAAAAAwAAAAAAAAAAABAAAAHgAQCAAADSzBmAQyDoPAAgCIAiHSGAACAAAgIAAIiIGOiIgLZjqC0TKUcAEm1hGZmAe/yLCOIAABAAAAQABAAAIAAACAAAAAAAAAAA==
> <PUBCHEM_IUPAC_OPENEYE_NAME>
(2S)-2-[[(2S)-3-carboxy-2-[[(2S)-2-[[(2S,3S)-2-[[(2S)-2-[3-(3,4-dihydroxyphenyl)propanoyl-methyl-amino]-3-methyl-butanoyl]amino]-3-methyl-pentanoyl]amino]-4-oxo-4-pyrrolidin-1-yl-butanoyl]amino]propanoyl]amino]-4-methyl-pentanoic acid
> <PUBCHEM_IUPAC_CAS_NAME>
(2S)-2-[[(2S)-3-carboxy-2-[[(2S)-2-[[(2S,3S)-2-[[(2S)-2-[[3-(3,4-dihydroxyphenyl)-1-oxopropyl]-methylamino]-3-methyl-1-oxobutyl]amino]-3-methyl-1-oxopentyl]amino]-1,4-dioxo-4-(1-pyrrolidinyl)butyl]amino]-1-oxopropyl]amino]-4-methylpentanoic acid
> <PUBCHEM_IUPAC_NAME_MARKUP>
(2<I>S</I>)-2-[[(2<I>S</I>)-3-carboxy-2-[[(2<I>S</I>)-2-[[(2<I>S</I>,3<I>S</I>)-2-[[(2<I>S</I>)-2-[3-(3,4-dihydroxyphenyl)propanoyl-methylamino]-3-methylbutanoyl]amino]-3-methylpentanoyl]amino]-4-oxo-4-pyrrolidin-1-ylbutanoyl]amino]propanoyl]amino]-4-methylpentanoic acid
> <PUBCHEM_IUPAC_NAME>
(2S)-2-[[(2S)-3-carboxy-2-[[(2S)-2-[[(2S,3S)-2-[[(2S)-2-[3-(3,4-dihydroxyphenyl)propanoyl-methylamino]-3-methylbutanoyl]amino]-3-methylpentanoyl]amino]-4-oxo-4-pyrrolidin-1-ylbutanoyl]amino]propanoyl]amino]-4-methylpentanoic acid
> <PUBCHEM_IUPAC_SYSTEMATIC_NAME>
(2S)-2-[[(2S)-2-[[(2S)-2-[[(2S,3S)-2-[[(2S)-2-[3-[3,4-bis(oxidanyl)phenyl]propanoyl-methyl-amino]-3-methyl-butanoyl]amino]-3-methyl-pentanoyl]amino]-4-oxidanylidene-4-pyrrolidin-1-yl-butanoyl]amino]-4-oxidanyl-4-oxidanylidene-butanoyl]amino]-4-methyl-pentanoic acid
> <PUBCHEM_IUPAC_TRADITIONAL_NAME>
(2S)-2-[[(2S)-3-carboxy-2-[[(2S)-2-[[(2S,3S)-2-[[(2S)-2-[3-(3,4-dihydroxyphenyl)propanoyl-methyl-amino]-3-methyl-butanoyl]amino]-3-methyl-pentanoyl]amino]-4-keto-4-pyrrolidino-butanoyl]amino]propanoyl]amino]-4-methyl-valeric acid
> <PUBCHEM_IUPAC_INCHI>
InChI=1S/C39H60N6O12/c1-8-23(6)33(43-38(55)34(22(4)5)44(7)30(48)14-12-24-11-13-28(46)29(47)18-24)37(54)41-25(19-31(49)45-15-9-10-16-45)35(52)40-26(20-32(50)51)36(53)42-27(39(56)57)17-21(2)3/h11,13,18,21-23,25-27,33-34,46-47H,8-10,12,14-17,19-20H2,1-7H3,(H,40,52)(H,41,54)(H,42,53)(H,43,55)(H,50,51)(H,56,57)/t23-,25-,26-,27-,33-,34-/m0/s1
> <PUBCHEM_IUPAC_INCHIKEY>
HPXXTCJOCQXKJW-WPPNMVNMSA-N
> <PUBCHEM_XLOGP3_AA>
2.2
> <PUBCHEM_EXACT_MASS>
804.42692137
> <PUBCHEM_MOLECULAR_FORMULA>
C39H60N6O12
> <PUBCHEM_MOLECULAR_WEIGHT>
804.9
> <PUBCHEM_OPENEYE_CAN_SMILES>
CCC(C)C(C(=O)NC(CC(=O)N1CCCC1)C(=O)NC(CC(=O)O)C(=O)NC(CC(C)C)C(=O)O)NC(=O)C(C(C)C)N(C)C(=O)CCC2=CC(=C(C=C2)O)O
> <PUBCHEM_OPENEYE_ISO_SMILES>
CC[C@H](C)[C@@H](C(=O)N[C@@H](CC(=O)N1CCCC1)C(=O)N[C@@H](CC(=O)O)C(=O)N[C@@H](CC(C)C)C(=O)O)NC(=O)[C@H](C(C)C)N(C)C(=O)CCC2=CC(=C(C=C2)O)O
> <PUBCHEM_CACTVS_TPSA>
272
> <PUBCHEM_MONOISOTOPIC_WEIGHT>
804.42692137
> <PUBCHEM_TOTAL_CHARGE>
0
> <PUBCHEM_HEAVY_ATOM_COUNT>
57
> <PUBCHEM_ATOM_DEF_STEREO_COUNT>
6
> <PUBCHEM_ATOM_UDEF_STEREO_COUNT>
0
> <PUBCHEM_BOND_DEF_STEREO_COUNT>
0
> <PUBCHEM_BOND_UDEF_STEREO_COUNT>
0
> <PUBCHEM_ISOTOPIC_ATOM_COUNT>
0
> <PUBCHEM_COMPONENT_COUNT>
1
> <PUBCHEM_CACTVS_TAUTO_COUNT>
-1
> <PUBCHEM_COORDINATE_TYPE>
1
5
255
> <PUBCHEM_BONDANNOTATIONS>
19  14  6
26  15  5
25  16  5
38  17  5
42  18  5
20  33  6
50  53  8
50  54  8
53  55  8
54  56  8
55  57  8
56  57  8
$$$$
