502960
  -OEChem-10302200282D
104103  0     1  0  0  0  0  0999 V2000
    7.1962    0.7500    0.0000 O   0  0  0  0  0  0  0  0  0  0  0  0
    4.5981   -1.7500    0.0000 O   0  0  0  0  0  0  0  0  0  0  0  0
   10.6603   -0.2500    0.0000 O   0  0  0  0  0  0  0  0  0  0  0  0
   10.6603    0.7500    0.0000 O   0  0  0  0  0  0  0  0  0  0  0  0
   11.5263   -3.7500    0.0000 O   0  0  0  0  0  0  0  0  0  0  0  0
    8.9282   -6.2500    0.0000 O   0  0  0  0  0  0  0  0  0  0  0  0
    8.0622   -4.7500    0.0000 O   0  0  0  0  0  0  0  0  0  0  0  0
   13.2583   -1.7500    0.0000 O   0  0  0  0  0  0  0  0  0  0  0  0
   12.3923   -3.2500    0.0000 O   0  0  0  0  0  0  0  0  0  0  0  0
    5.4641   -0.2500    0.0000 N   0  0  0  0  0  0  0  0  0  0  0  0
    8.0622   -0.7500    0.0000 N   0  0  0  0  0  0  0  0  0  0  0  0
    9.7942   -1.7500    0.0000 N   0  0  0  0  0  0  0  0  0  0  0  0
    9.7942   -3.7500    0.0000 N   0  0  0  0  0  0  0  0  0  0  0  0
    6.3301   -1.7500    0.0000 C   0  0  2  0  0  0  0  0  0  0  0  0
    6.3301   -0.7500    0.0000 C   0  0  1  0  0  0  0  0  0  0  0  0
    5.4641   -2.2500    0.0000 C   0  0  0  0  0  0  0  0  0  0  0  0
    7.1962   -0.2500    0.0000 C   0  0  0  0  0  0  0  0  0  0  0  0
    8.9282   -0.2500    0.0000 C   0  0  3  0  0  0  0  0  0  0  0  0
    3.7320   -0.2500    0.0000 C   0  0  0  0  0  0  0  0  0  0  0  0
    7.1962   -2.2500    0.0000 C   0  0  0  0  0  0  0  0  0  0  0  0
    4.5981   -0.7500    0.0000 C   0  0  0  0  0  0  0  0  0  0  0  0
    8.9282    0.7500    0.0000 C   0  0  0  0  0  0  0  0  0  0  0  0
    2.8660   -0.7500    0.0000 C   0  0  0  0  0  0  0  0  0  0  0  0
    3.7320    0.7500    0.0000 C   0  0  0  0  0  0  0  0  0  0  0  0
    5.4641   -3.2500    0.0000 C   0  0  0  0  0  0  0  0  0  0  0  0
    9.7942   -0.7500    0.0000 C   0  0  0  0  0  0  0  0  0  0  0  0
    9.7942    2.2500    0.0000 C   0  0  0  0  0  0  0  0  0  0  0  0
    9.7942    1.2500    0.0000 C   0  0  0  0  0  0  0  0  0  0  0  0
   10.6603    2.7500    0.0000 C   0  0  0  0  0  0  0  0  0  0  0  0
   10.6603   -2.2500    0.0000 C   0  0  2  0  0  0  0  0  0  0  0  0
   10.6603    3.7500    0.0000 C   0  0  0  0  0  0  0  0  0  0  0  0
   10.6603   -5.2500    0.0000 C   0  0  0  0  0  0  0  0  0  0  0  0
    9.7942   -4.7500    0.0000 C   0  0  1  0  0  0  0  0  0  0  0  0
   10.6603   -6.2500    0.0000 C   0  0  0  0  0  0  0  0  0  0  0  0
   11.5263    4.2500    0.0000 C   0  0  0  0  0  0  0  0  0  0  0  0
    2.0000   -0.2500    0.0000 C   0  0  0  0  0  0  0  0  0  0  0  0
    2.8660    1.2500    0.0000 C   0  0  0  0  0  0  0  0  0  0  0  0
   10.6603   -3.2500    0.0000 C   0  0  0  0  0  0  0  0  0  0  0  0
   11.5263    5.2500    0.0000 C   0  0  0  0  0  0  0  0  0  0  0  0
   11.5263   -1.7500    0.0000 C   0  0  0  0  0  0  0  0  0  0  0  0
   11.5263   -6.7500    0.0000 C   0  0  0  0  0  0  0  0  0  0  0  0
    9.7942   -6.7500    0.0000 C   0  0  0  0  0  0  0  0  0  0  0  0
   12.3923    5.7500    0.0000 C   0  0  0  0  0  0  0  0  0  0  0  0
    8.9282   -5.2500    0.0000 C   0  0  0  0  0  0  0  0  0  0  0  0
   12.3923   -2.2500    0.0000 C   0  0  0  0  0  0  0  0  0  0  0  0
   12.3923    6.7500    0.0000 C   0  0  0  0  0  0  0  0  0  0  0  0
    6.8671   -1.4400    0.0000 H   0  0  0  0  0  0  0  0  0  0  0  0
    5.7932   -1.0600    0.0000 H   0  0  0  0  0  0  0  0  0  0  0  0
    5.2520   -1.6674    0.0000 H   0  0  0  0  0  0  0  0  0  0  0  0
    4.8535   -2.3577    0.0000 H   0  0  0  0  0  0  0  0  0  0  0  0
    8.9282   -0.8700    0.0000 H   0  0  0  0  0  0  0  0  0  0  0  0
    5.4641    0.3700    0.0000 H   0  0  0  0  0  0  0  0  0  0  0  0
    3.7320   -0.8700    0.0000 H   0  0  0  0  0  0  0  0  0  0  0  0
    6.8862   -2.7869    0.0000 H   0  0  0  0  0  0  0  0  0  0  0  0
    7.7331   -2.5600    0.0000 H   0  0  0  0  0  0  0  0  0  0  0  0
    7.5062   -1.7131    0.0000 H   0  0  0  0  0  0  0  0  0  0  0  0
    8.0622   -1.3700    0.0000 H   0  0  0  0  0  0  0  0  0  0  0  0
    8.7162    1.3326    0.0000 H   0  0  0  0  0  0  0  0  0  0  0  0
    8.3176    0.6423    0.0000 H   0  0  0  0  0  0  0  0  0  0  0  0
    2.4675   -1.2250    0.0000 H   0  0  0  0  0  0  0  0  0  0  0  0
    3.2646   -1.2250    0.0000 H   0  0  0  0  0  0  0  0  0  0  0  0
    4.3426    0.6423    0.0000 H   0  0  0  0  0  0  0  0  0  0  0  0
    3.9441    1.3326    0.0000 H   0  0  0  0  0  0  0  0  0  0  0  0
    4.8441   -3.2500    0.0000 H   0  0  0  0  0  0  0  0  0  0  0  0
    5.4641   -3.8700    0.0000 H   0  0  0  0  0  0  0  0  0  0  0  0
    6.0841   -3.2500    0.0000 H   0  0  0  0  0  0  0  0  0  0  0  0
    9.5822    2.8326    0.0000 H   0  0  0  0  0  0  0  0  0  0  0  0
    9.1836    2.1423    0.0000 H   0  0  0  0  0  0  0  0  0  0  0  0
   10.8723    2.1674    0.0000 H   0  0  0  0  0  0  0  0  0  0  0  0
   11.2708    2.8577    0.0000 H   0  0  0  0  0  0  0  0  0  0  0  0
   10.6603   -1.6300    0.0000 H   0  0  0  0  0  0  0  0  0  0  0  0
   10.4482    4.3326    0.0000 H   0  0  0  0  0  0  0  0  0  0  0  0
   10.0497    3.6423    0.0000 H   0  0  0  0  0  0  0  0  0  0  0  0
   11.2708   -5.3577    0.0000 H   0  0  0  0  0  0  0  0  0  0  0  0
   10.8723   -4.6674    0.0000 H   0  0  0  0  0  0  0  0  0  0  0  0
    9.2573   -2.0600    0.0000 H   0  0  0  0  0  0  0  0  0  0  0  0
    9.2573   -4.4400    0.0000 H   0  0  0  0  0  0  0  0  0  0  0  0
   11.1972   -5.9400    0.0000 H   0  0  0  0  0  0  0  0  0  0  0  0
   11.7383    3.6674    0.0000 H   0  0  0  0  0  0  0  0  0  0  0  0
   12.1369    4.3577    0.0000 H   0  0  0  0  0  0  0  0  0  0  0  0
    2.3100    0.2869    0.0000 H   0  0  0  0  0  0  0  0  0  0  0  0
    1.4631    0.0600    0.0000 H   0  0  0  0  0  0  0  0  0  0  0  0
    1.6900   -0.7869    0.0000 H   0  0  0  0  0  0  0  0  0  0  0  0
    3.1760    1.7869    0.0000 H   0  0  0  0  0  0  0  0  0  0  0  0
    2.3291    1.5600    0.0000 H   0  0  0  0  0  0  0  0  0  0  0  0
    2.5560    0.7131    0.0000 H   0  0  0  0  0  0  0  0  0  0  0  0
   11.3142    5.8326    0.0000 H   0  0  0  0  0  0  0  0  0  0  0  0
   10.9157    5.1423    0.0000 H   0  0  0  0  0  0  0  0  0  0  0  0
    9.2573   -3.4400    0.0000 H   0  0  0  0  0  0  0  0  0  0  0  0
   11.9248   -1.2750    0.0000 H   0  0  0  0  0  0  0  0  0  0  0  0
   11.1278   -1.2750    0.0000 H   0  0  0  0  0  0  0  0  0  0  0  0
   11.2163   -7.2869    0.0000 H   0  0  0  0  0  0  0  0  0  0  0  0
   12.0632   -7.0600    0.0000 H   0  0  0  0  0  0  0  0  0  0  0  0
   11.8363   -6.2131    0.0000 H   0  0  0  0  0  0  0  0  0  0  0  0
    9.4842   -6.2131    0.0000 H   0  0  0  0  0  0  0  0  0  0  0  0
    9.2573   -7.0600    0.0000 H   0  0  0  0  0  0  0  0  0  0  0  0
   10.1042   -7.2869    0.0000 H   0  0  0  0  0  0  0  0  0  0  0  0
   12.6044    5.1674    0.0000 H   0  0  0  0  0  0  0  0  0  0  0  0
   13.0029    5.8577    0.0000 H   0  0  0  0  0  0  0  0  0  0  0  0
   13.0123    6.7500    0.0000 H   0  0  0  0  0  0  0  0  0  0  0  0
   12.3923    7.3700    0.0000 H   0  0  0  0  0  0  0  0  0  0  0  0
   11.7723    6.7500    0.0000 H   0  0  0  0  0  0  0  0  0  0  0  0
    8.3913   -6.5600    0.0000 H   0  0  0  0  0  0  0  0  0  0  0  0
   13.7953   -2.0600    0.0000 H   0  0  0  0  0  0  0  0  0  0  0  0
  1 17  2  0  0  0  0
  2 21  2  0  0  0  0
  3 26  2  0  0  0  0
  4 28  2  0  0  0  0
  5 38  2  0  0  0  0
  6 44  1  0  0  0  0
  6103  1  0  0  0  0
  7 44  2  0  0  0  0
  8 45  1  0  0  0  0
  8104  1  0  0  0  0
  9 45  2  0  0  0  0
 15 10  1  6  0  0  0
 10 21  1  0  0  0  0
 10 52  1  0  0  0  0
 11 17  1  0  0  0  0
 11 18  1  0  0  0  0
 11 57  1  0  0  0  0
 12 26  1  0  0  0  0
 30 12  1  1  0  0  0
 12 76  1  0  0  0  0
 33 13  1  1  0  0  0
 13 38  1  0  0  0  0
 13 89  1  0  0  0  0
 14 15  1  0  0  0  0
 14 16  1  0  0  0  0
 14 20  1  1  0  0  0
 14 47  1  0  0  0  0
 15 17  1  0  0  0  0
 15 48  1  0  0  0  0
 16 25  1  0  0  0  0
 16 49  1  0  0  0  0
 16 50  1  0  0  0  0
 18 22  1  0  0  0  0
 18 26  1  0  0  0  0
 18 51  1  0  0  0  0
 19 21  1  0  0  0  0
 19 23  1  0  0  0  0
 19 24  1  0  0  0  0
 19 53  1  0  0  0  0
 20 54  1  0  0  0  0
 20 55  1  0  0  0  0
 20 56  1  0  0  0  0
 22 28  1  0  0  0  0
 22 58  1  0  0  0  0
 22 59  1  0  0  0  0
 23 36  1  0  0  0  0
 23 60  1  0  0  0  0
 23 61  1  0  0  0  0
 24 37  1  0  0  0  0
 24 62  1  0  0  0  0
 24 63  1  0  0  0  0
 25 64  1  0  0  0  0
 25 65  1  0  0  0  0
 25 66  1  0  0  0  0
 27 28  1  0  0  0  0
 27 29  1  0  0  0  0
 27 67  1  0  0  0  0
 27 68  1  0  0  0  0
 29 31  1  0  0  0  0
 29 69  1  0  0  0  0
 29 70  1  0  0  0  0
 30 38  1  0  0  0  0
 30 40  1  0  0  0  0
 30 71  1  0  0  0  0
 31 35  1  0  0  0  0
 31 72  1  0  0  0  0
 31 73  1  0  0  0  0
 32 33  1  0  0  0  0
 32 34  1  0  0  0  0
 32 74  1  0  0  0  0
 32 75  1  0  0  0  0
 33 44  1  0  0  0  0
 33 77  1  0  0  0  0
 34 41  1  0  0  0  0
 34 42  1  0  0  0  0
 34 78  1  0  0  0  0
 35 39  1  0  0  0  0
 35 79  1  0  0  0  0
 35 80  1  0  0  0  0
 36 81  1  0  0  0  0
 36 82  1  0  0  0  0
 36 83  1  0  0  0  0
 37 84  1  0  0  0  0
 37 85  1  0  0  0  0
 37 86  1  0  0  0  0
 39 43  1  0  0  0  0
 39 87  1  0  0  0  0
 39 88  1  0  0  0  0
 40 45  1  0  0  0  0
 40 90  1  0  0  0  0
 40 91  1  0  0  0  0
 41 92  1  0  0  0  0
 41 93  1  0  0  0  0
 41 94  1  0  0  0  0
 42 95  1  0  0  0  0
 42 96  1  0  0  0  0
 42 97  1  0  0  0  0
 43 46  1  0  0  0  0
 43 98  1  0  0  0  0
 43 99  1  0  0  0  0
 46100  1  0  0  0  0
 46101  1  0  0  0  0
 46102  1  0  0  0  0
M  END
> <PUBCHEM_COMPOUND_CID>
502960
> <PUBCHEM_COMPOUND_CANONICALIZED>
1
> <PUBCHEM_CACTVS_COMPLEXITY>
1010
> <PUBCHEM_CACTVS_HBOND_ACCEPTOR>
9
> <PUBCHEM_CACTVS_HBOND_DONOR>
6
> <PUBCHEM_CACTVS_ROTATABLE_BOND>
25
> <PUBCHEM_CACTVS_SUBSKEYS>
AAADcfB/vAAAAAAAAAAAAAAAAAAAAAAAAAAAAAAAAAAAAAAAAAAAHgAQCAAADSzBgAQCCALAAgAIAIGQGAAAAAAAAAAAAIGIAAACQBoAgCAUQAAGFgCQAAG/iICOAAAAAAAAAAAAAAAAAAAAAAAAAAAAAA==
> <PUBCHEM_IUPAC_OPENEYE_NAME>
(2S)-2-[[(2S)-3-carboxy-2-[[2-[[(2S,3S)-2-(2-ethylbutanoylamino)-3-methyl-pentanoyl]amino]-4-oxo-undecanoyl]amino]propanoyl]amino]-4-methyl-pentanoic acid
> <PUBCHEM_IUPAC_CAS_NAME>
(2S)-2-[[(2S)-3-carboxy-2-[[2-[[(2S,3S)-2-[(2-ethyl-1-oxobutyl)amino]-3-methyl-1-oxopentyl]amino]-1,4-dioxoundecyl]amino]-1-oxopropyl]amino]-4-methylpentanoic acid
> <PUBCHEM_IUPAC_NAME_MARKUP>
(2<I>S</I>)-2-[[(2<I>S</I>)-3-carboxy-2-[[2-[[(2<I>S</I>,3<I>S</I>)-2-(2-ethylbutanoylamino)-3-methylpentanoyl]amino]-4-oxoundecanoyl]amino]propanoyl]amino]-4-methylpentanoic acid
> <PUBCHEM_IUPAC_NAME>
(2S)-2-[[(2S)-3-carboxy-2-[[2-[[(2S,3S)-2-(2-ethylbutanoylamino)-3-methylpentanoyl]amino]-4-oxoundecanoyl]amino]propanoyl]amino]-4-methylpentanoic acid
> <PUBCHEM_IUPAC_SYSTEMATIC_NAME>
(2S)-2-[[(2S)-2-[[2-[[(2S,3S)-2-(2-ethylbutanoylamino)-3-methyl-pentanoyl]amino]-4-oxidanylidene-undecanoyl]amino]-4-oxidanyl-4-oxidanylidene-butanoyl]amino]-4-methyl-pentanoic acid
> <PUBCHEM_IUPAC_TRADITIONAL_NAME>
(2S)-2-[[(2S)-3-carboxy-2-[[2-[[(2S,3S)-2-(2-ethylbutanoylamino)-3-methyl-pentanoyl]amino]-4-keto-undecanoyl]amino]propanoyl]amino]-4-methyl-valeric acid
> <PUBCHEM_IUPAC_INCHI>
InChI=1S/C33H58N4O9/c1-8-12-13-14-15-16-23(38)18-24(35-32(44)28(21(7)9-2)37-29(41)22(10-3)11-4)30(42)34-25(19-27(39)40)31(43)36-26(33(45)46)17-20(5)6/h20-22,24-26,28H,8-19H2,1-7H3,(H,34,42)(H,35,44)(H,36,43)(H,37,41)(H,39,40)(H,45,46)/t21-,24?,25-,26-,28-/m0/s1
> <PUBCHEM_IUPAC_INCHIKEY>
UGZXVBLYHJZWGX-BMDOTPRGSA-N
> <PUBCHEM_XLOGP3>
4.4
> <PUBCHEM_EXACT_MASS>
654.42037944
> <PUBCHEM_MOLECULAR_FORMULA>
C33H58N4O9
> <PUBCHEM_MOLECULAR_WEIGHT>
654.8
> <PUBCHEM_OPENEYE_CAN_SMILES>
CCCCCCCC(=O)CC(C(=O)NC(CC(=O)O)C(=O)NC(CC(C)C)C(=O)O)NC(=O)C(C(C)CC)NC(=O)C(CC)CC
> <PUBCHEM_OPENEYE_ISO_SMILES>
CCCCCCCC(=O)CC(C(=O)N[C@@H](CC(=O)O)C(=O)N[C@@H](CC(C)C)C(=O)O)NC(=O)[C@H]([C@@H](C)CC)NC(=O)C(CC)CC
> <PUBCHEM_CACTVS_TPSA>
208
> <PUBCHEM_MONOISOTOPIC_WEIGHT>
654.42037944
> <PUBCHEM_TOTAL_CHARGE>
0
> <PUBCHEM_HEAVY_ATOM_COUNT>
46
> <PUBCHEM_ATOM_DEF_STEREO_COUNT>
4
> <PUBCHEM_ATOM_UDEF_STEREO_COUNT>
1
> <PUBCHEM_BOND_DEF_STEREO_COUNT>
0
> <PUBCHEM_BOND_UDEF_STEREO_COUNT>
0
> <PUBCHEM_ISOTOPIC_ATOM_COUNT>
0
> <PUBCHEM_COMPONENT_COUNT>
1
> <PUBCHEM_CACTVS_TAUTO_COUNT>
-1
> <PUBCHEM_COORDINATE_TYPE>
1
5
255
> <PUBCHEM_BONDANNOTATIONS>
15  10  6
30  12  5
33  13  5
14  20  5
18  22  3
$$$$
