502994
  -OEChem-10302200282D
127126  0     1  0  0  0  0  0999 V2000
   11.1972    2.0000    0.0000 O   0  0  0  0  0  0  0  0  0  0  0  0
    8.5991   -0.5000    0.0000 O   0  0  0  0  0  0  0  0  0  0  0  0
    6.0010   -2.0000    0.0000 O   0  0  0  0  0  0  0  0  0  0  0  0
   13.7953   -0.5000    0.0000 O   0  0  0  0  0  0  0  0  0  0  0  0
    5.1350    0.5000    0.0000 O   0  0  0  0  0  0  0  0  0  0  0  0
    5.1350   -0.5000    0.0000 O   0  0  0  0  0  0  0  0  0  0  0  0
    4.2690    4.0000    0.0000 O   0  0  0  0  0  0  0  0  0  0  0  0
    6.8671    6.5000    0.0000 O   0  0  0  0  0  0  0  0  0  0  0  0
    7.7331    5.0000    0.0000 O   0  0  0  0  0  0  0  0  0  0  0  0
    2.5369    2.0000    0.0000 O   0  0  0  0  0  0  0  0  0  0  0  0
    3.4030    3.5000    0.0000 O   0  0  0  0  0  0  0  0  0  0  0  0
   10.3312    0.5000    0.0000 N   0  0  0  0  0  0  0  0  0  0  0  0
   12.9292    1.0000    0.0000 N   0  0  0  0  0  0  0  0  0  0  0  0
    7.7331    1.0000    0.0000 N   0  0  0  0  0  0  0  0  0  0  0  0
    6.0010    2.0000    0.0000 N   0  0  0  0  0  0  0  0  0  0  0  0
    6.0010    4.0000    0.0000 N   0  0  0  0  0  0  0  0  0  0  0  0
    9.4651    1.0000    0.0000 C   0  0  1  0  0  0  0  0  0  0  0  0
    9.4651    2.0000    0.0000 C   0  0  2  0  0  0  0  0  0  0  0  0
   12.0632    0.5000    0.0000 C   0  0  1  0  0  0  0  0  0  0  0  0
   12.0632   -0.5000    0.0000 C   0  0  0  0  0  0  0  0  0  0  0  0
    8.5991    2.5000    0.0000 C   0  0  0  0  0  0  0  0  0  0  0  0
   11.1972    1.0000    0.0000 C   0  0  0  0  0  0  0  0  0  0  0  0
    8.5991    0.5000    0.0000 C   0  0  0  0  0  0  0  0  0  0  0  0
   10.3312    2.5000    0.0000 C   0  0  0  0  0  0  0  0  0  0  0  0
   11.1972   -1.0000    0.0000 C   0  0  0  0  0  0  0  0  0  0  0  0
   12.9292   -1.0000    0.0000 C   0  0  0  0  0  0  0  0  0  0  0  0
    6.8671    0.5000    0.0000 C   0  0  1  0  0  0  0  0  0  0  0  0
   13.7953    0.5000    0.0000 C   0  0  0  0  0  0  0  0  0  0  0  0
   14.6613    1.0000    0.0000 C   0  0  0  0  0  0  0  0  0  0  0  0
    8.5991    3.5000    0.0000 C   0  0  0  0  0  0  0  0  0  0  0  0
   12.9292    2.0000    0.0000 C   0  0  0  0  0  0  0  0  0  0  0  0
   15.5273    0.5000    0.0000 C   0  0  0  0  0  0  0  0  0  0  0  0
    6.8671   -0.5000    0.0000 C   0  0  0  0  0  0  0  0  0  0  0  0
   16.3933    1.0000    0.0000 C   0  0  0  0  0  0  0  0  0  0  0  0
    6.0010    1.0000    0.0000 C   0  0  0  0  0  0  0  0  0  0  0  0
    5.1350    2.5000    0.0000 C   0  0  2  0  0  0  0  0  0  0  0  0
    5.1350   -2.5000    0.0000 C   0  0  2  0  0  0  0  0  0  0  0  0
    5.1350   -3.5000    0.0000 C   0  0  0  0  0  0  0  0  0  0  0  0
    4.2690   -4.0000    0.0000 C   0  0  0  0  0  0  0  0  0  0  0  0
    6.0010   -1.0000    0.0000 C   0  0  0  0  0  0  0  0  0  0  0  0
    5.1350    5.5000    0.0000 C   0  0  0  0  0  0  0  0  0  0  0  0
    6.0010    5.0000    0.0000 C   0  0  1  0  0  0  0  0  0  0  0  0
   17.2594    0.5000    0.0000 C   0  0  0  0  0  0  0  0  0  0  0  0
   16.3933    2.0000    0.0000 C   0  0  0  0  0  0  0  0  0  0  0  0
    5.1350    6.5000    0.0000 C   0  0  0  0  0  0  0  0  0  0  0  0
    4.2690   -5.0000    0.0000 C   0  0  0  0  0  0  0  0  0  0  0  0
    5.1350    3.5000    0.0000 C   0  0  0  0  0  0  0  0  0  0  0  0
    4.2690    2.0000    0.0000 C   0  0  0  0  0  0  0  0  0  0  0  0
    3.4030   -5.5000    0.0000 C   0  0  0  0  0  0  0  0  0  0  0  0
    4.2690   -2.0000    0.0000 C   0  0  0  0  0  0  0  0  0  0  0  0
    4.2690    7.0000    0.0000 C   0  0  0  0  0  0  0  0  0  0  0  0
    6.0010    7.0000    0.0000 C   0  0  0  0  0  0  0  0  0  0  0  0
    3.4030   -6.5000    0.0000 C   0  0  0  0  0  0  0  0  0  0  0  0
    6.8671    5.5000    0.0000 C   0  0  0  0  0  0  0  0  0  0  0  0
    3.4030    2.5000    0.0000 C   0  0  0  0  0  0  0  0  0  0  0  0
    2.5369   -7.0000    0.0000 C   0  0  0  0  0  0  0  0  0  0  0  0
    9.4651    0.3800    0.0000 H   0  0  0  0  0  0  0  0  0  0  0  0
   10.0021    1.6900    0.0000 H   0  0  0  0  0  0  0  0  0  0  0  0
   12.0632    1.1200    0.0000 H   0  0  0  0  0  0  0  0  0  0  0  0
   12.6002   -0.1900    0.0000 H   0  0  0  0  0  0  0  0  0  0  0  0
   10.3312   -0.1200    0.0000 H   0  0  0  0  0  0  0  0  0  0  0  0
    7.9885    2.6077    0.0000 H   0  0  0  0  0  0  0  0  0  0  0  0
    8.3871    1.9174    0.0000 H   0  0  0  0  0  0  0  0  0  0  0  0
   10.6412    1.9631    0.0000 H   0  0  0  0  0  0  0  0  0  0  0  0
   10.8681    2.8100    0.0000 H   0  0  0  0  0  0  0  0  0  0  0  0
   10.0212    3.0369    0.0000 H   0  0  0  0  0  0  0  0  0  0  0  0
   10.8872   -0.4631    0.0000 H   0  0  0  0  0  0  0  0  0  0  0  0
   10.6603   -1.3100    0.0000 H   0  0  0  0  0  0  0  0  0  0  0  0
   11.5072   -1.5369    0.0000 H   0  0  0  0  0  0  0  0  0  0  0  0
   12.6192   -1.5369    0.0000 H   0  0  0  0  0  0  0  0  0  0  0  0
   13.4662   -1.3100    0.0000 H   0  0  0  0  0  0  0  0  0  0  0  0
   13.2392   -0.4631    0.0000 H   0  0  0  0  0  0  0  0  0  0  0  0
    7.4040    0.1900    0.0000 H   0  0  0  0  0  0  0  0  0  0  0  0
    7.7331    1.6200    0.0000 H   0  0  0  0  0  0  0  0  0  0  0  0
   15.0598    1.4750    0.0000 H   0  0  0  0  0  0  0  0  0  0  0  0
   14.2628    1.4750    0.0000 H   0  0  0  0  0  0  0  0  0  0  0  0
    9.2191    3.5000    0.0000 H   0  0  0  0  0  0  0  0  0  0  0  0
    8.5991    4.1200    0.0000 H   0  0  0  0  0  0  0  0  0  0  0  0
    7.9791    3.5000    0.0000 H   0  0  0  0  0  0  0  0  0  0  0  0
   13.5492    2.0000    0.0000 H   0  0  0  0  0  0  0  0  0  0  0  0
   12.9292    2.6200    0.0000 H   0  0  0  0  0  0  0  0  0  0  0  0
   12.3092    2.0000    0.0000 H   0  0  0  0  0  0  0  0  0  0  0  0
   15.1288    0.0251    0.0000 H   0  0  0  0  0  0  0  0  0  0  0  0
   15.9258    0.0251    0.0000 H   0  0  0  0  0  0  0  0  0  0  0  0
    7.0791   -1.0826    0.0000 H   0  0  0  0  0  0  0  0  0  0  0  0
    7.4776   -0.3923    0.0000 H   0  0  0  0  0  0  0  0  0  0  0  0
   16.9303    1.3100    0.0000 H   0  0  0  0  0  0  0  0  0  0  0  0
    5.1350    1.8800    0.0000 H   0  0  0  0  0  0  0  0  0  0  0  0
    6.5380    2.3100    0.0000 H   0  0  0  0  0  0  0  0  0  0  0  0
    5.1350   -1.8800    0.0000 H   0  0  0  0  0  0  0  0  0  0  0  0
    5.3471   -4.0826    0.0000 H   0  0  0  0  0  0  0  0  0  0  0  0
    5.7456   -3.3923    0.0000 H   0  0  0  0  0  0  0  0  0  0  0  0
    4.0569   -3.4174    0.0000 H   0  0  0  0  0  0  0  0  0  0  0  0
    3.6584   -4.1077    0.0000 H   0  0  0  0  0  0  0  0  0  0  0  0
    4.5244    5.6077    0.0000 H   0  0  0  0  0  0  0  0  0  0  0  0
    4.9230    4.9174    0.0000 H   0  0  0  0  0  0  0  0  0  0  0  0
    6.5380    4.6900    0.0000 H   0  0  0  0  0  0  0  0  0  0  0  0
   16.9494   -0.0369    0.0000 H   0  0  0  0  0  0  0  0  0  0  0  0
   17.7963    0.1900    0.0000 H   0  0  0  0  0  0  0  0  0  0  0  0
   17.5694    1.0369    0.0000 H   0  0  0  0  0  0  0  0  0  0  0  0
   17.0133    2.0000    0.0000 H   0  0  0  0  0  0  0  0  0  0  0  0
   16.3933    2.6200    0.0000 H   0  0  0  0  0  0  0  0  0  0  0  0
   15.7733    2.0000    0.0000 H   0  0  0  0  0  0  0  0  0  0  0  0
    5.1350    7.1200    0.0000 H   0  0  0  0  0  0  0  0  0  0  0  0
    4.4810   -5.5826    0.0000 H   0  0  0  0  0  0  0  0  0  0  0  0
    4.8796   -4.8923    0.0000 H   0  0  0  0  0  0  0  0  0  0  0  0
    3.8705    1.5250    0.0000 H   0  0  0  0  0  0  0  0  0  0  0  0
    4.6675    1.5250    0.0000 H   0  0  0  0  0  0  0  0  0  0  0  0
    6.5380    3.6900    0.0000 H   0  0  0  0  0  0  0  0  0  0  0  0
    3.1909   -4.9174    0.0000 H   0  0  0  0  0  0  0  0  0  0  0  0
    2.7924   -5.6077    0.0000 H   0  0  0  0  0  0  0  0  0  0  0  0
    4.5790   -1.4631    0.0000 H   0  0  0  0  0  0  0  0  0  0  0  0
    3.7320   -1.6900    0.0000 H   0  0  0  0  0  0  0  0  0  0  0  0
    3.9590   -2.5369    0.0000 H   0  0  0  0  0  0  0  0  0  0  0  0
    4.5790    7.5369    0.0000 H   0  0  0  0  0  0  0  0  0  0  0  0
    3.7320    7.3100    0.0000 H   0  0  0  0  0  0  0  0  0  0  0  0
    3.9590    6.4631    0.0000 H   0  0  0  0  0  0  0  0  0  0  0  0
    6.3110    6.4631    0.0000 H   0  0  0  0  0  0  0  0  0  0  0  0
    6.5380    7.3100    0.0000 H   0  0  0  0  0  0  0  0  0  0  0  0
    5.6910    7.5369    0.0000 H   0  0  0  0  0  0  0  0  0  0  0  0
    3.6150   -7.0826    0.0000 H   0  0  0  0  0  0  0  0  0  0  0  0
    4.0135   -6.3923    0.0000 H   0  0  0  0  0  0  0  0  0  0  0  0
    2.2269   -6.4631    0.0000 H   0  0  0  0  0  0  0  0  0  0  0  0
    2.0000   -7.3100    0.0000 H   0  0  0  0  0  0  0  0  0  0  0  0
    2.8469   -7.5369    0.0000 H   0  0  0  0  0  0  0  0  0  0  0  0
    7.4040    6.8100    0.0000 H   0  0  0  0  0  0  0  0  0  0  0  0
    2.0000    2.3100    0.0000 H   0  0  0  0  0  0  0  0  0  0  0  0
  1 22  2  0  0  0  0
  2 23  2  0  0  0  0
 37  3  1  6  0  0  0
  3 40  1  0  0  0  0
  4 28  2  0  0  0  0
  5 35  2  0  0  0  0
  6 40  2  0  0  0  0
  7 47  2  0  0  0  0
  8 54  1  0  0  0  0
  8126  1  0  0  0  0
  9 54  2  0  0  0  0
 10 55  1  0  0  0  0
 10127  1  0  0  0  0
 11 55  2  0  0  0  0
 17 12  1  6  0  0  0
 12 22  1  0  0  0  0
 12 61  1  0  0  0  0
 19 13  1  1  0  0  0
 13 28  1  0  0  0  0
 13 31  1  0  0  0  0
 14 23  1  0  0  0  0
 27 14  1  1  0  0  0
 14 74  1  0  0  0  0
 15 35  1  0  0  0  0
 36 15  1  1  0  0  0
 15 89  1  0  0  0  0
 42 16  1  1  0  0  0
 16 47  1  0  0  0  0
 16109  1  0  0  0  0
 17 18  1  0  0  0  0
 17 23  1  0  0  0  0
 17 57  1  0  0  0  0
 18 21  1  0  0  0  0
 18 24  1  6  0  0  0
 18 58  1  0  0  0  0
 19 20  1  0  0  0  0
 19 22  1  0  0  0  0
 19 59  1  0  0  0  0
 20 25  1  0  0  0  0
 20 26  1  0  0  0  0
 20 60  1  0  0  0  0
 21 30  1  0  0  0  0
 21 62  1  0  0  0  0
 21 63  1  0  0  0  0
 24 64  1  0  0  0  0
 24 65  1  0  0  0  0
 24 66  1  0  0  0  0
 25 67  1  0  0  0  0
 25 68  1  0  0  0  0
 25 69  1  0  0  0  0
 26 70  1  0  0  0  0
 26 71  1  0  0  0  0
 26 72  1  0  0  0  0
 27 33  1  0  0  0  0
 27 35  1  0  0  0  0
 27 73  1  0  0  0  0
 28 29  1  0  0  0  0
 29 32  1  0  0  0  0
 29 75  1  0  0  0  0
 29 76  1  0  0  0  0
 30 77  1  0  0  0  0
 30 78  1  0  0  0  0
 30 79  1  0  0  0  0
 31 80  1  0  0  0  0
 31 81  1  0  0  0  0
 31 82  1  0  0  0  0
 32 34  1  0  0  0  0
 32 83  1  0  0  0  0
 32 84  1  0  0  0  0
 33 40  1  0  0  0  0
 33 85  1  0  0  0  0
 33 86  1  0  0  0  0
 34 43  1  0  0  0  0
 34 44  1  0  0  0  0
 34 87  1  0  0  0  0
 36 47  1  0  0  0  0
 36 48  1  0  0  0  0
 36 88  1  0  0  0  0
 37 38  1  0  0  0  0
 37 50  1  0  0  0  0
 37 90  1  0  0  0  0
 38 39  1  0  0  0  0
 38 91  1  0  0  0  0
 38 92  1  0  0  0  0
 39 46  1  0  0  0  0
 39 93  1  0  0  0  0
 39 94  1  0  0  0  0
 41 42  1  0  0  0  0
 41 45  1  0  0  0  0
 41 95  1  0  0  0  0
 41 96  1  0  0  0  0
 42 54  1  0  0  0  0
 42 97  1  0  0  0  0
 43 98  1  0  0  0  0
 43 99  1  0  0  0  0
 43100  1  0  0  0  0
 44101  1  0  0  0  0
 44102  1  0  0  0  0
 44103  1  0  0  0  0
 45 51  1  0  0  0  0
 45 52  1  0  0  0  0
 45104  1  0  0  0  0
 46 49  1  0  0  0  0
 46105  1  0  0  0  0
 46106  1  0  0  0  0
 48 55  1  0  0  0  0
 48107  1  0  0  0  0
 48108  1  0  0  0  0
 49 53  1  0  0  0  0
 49110  1  0  0  0  0
 49111  1  0  0  0  0
 50112  1  0  0  0  0
 50113  1  0  0  0  0
 50114  1  0  0  0  0
 51115  1  0  0  0  0
 51116  1  0  0  0  0
 51117  1  0  0  0  0
 52118  1  0  0  0  0
 52119  1  0  0  0  0
 52120  1  0  0  0  0
 53 56  1  0  0  0  0
 53121  1  0  0  0  0
 53122  1  0  0  0  0
 56123  1  0  0  0  0
 56124  1  0  0  0  0
 56125  1  0  0  0  0
M  END
> <PUBCHEM_COMPOUND_CID>
502994
> <PUBCHEM_COMPOUND_CANONICALIZED>
1
> <PUBCHEM_CACTVS_COMPLEXITY>
1310
> <PUBCHEM_CACTVS_HBOND_ACCEPTOR>
11
> <PUBCHEM_CACTVS_HBOND_DONOR>
6
> <PUBCHEM_CACTVS_ROTATABLE_BOND>
29
> <PUBCHEM_CACTVS_SUBSKEYS>
AAADcfB/vAAAAAAAAAAAAAAAAAAAAAAAAAAAAAAAAAAAAAAAAAAAHgAQCAAADTzhgAYCCAPABgAIAAGQGAAAAAAAAAAAAIGIAAACQBoAgCAWQAAGFgCQAAG/wKAOAAAAAAAAAAAAAAAAAAAAAAAAAAAAAA==
> <PUBCHEM_IUPAC_OPENEYE_NAME>
(2S)-2-[[(2S)-3-carboxy-2-[[(2S)-4-[(1S)-1-methylheptoxy]-2-[[(2S,3S)-3-methyl-2-[[(2S)-3-methyl-2-[methyl(4-methylpentanoyl)amino]butanoyl]amino]pentanoyl]amino]-4-oxo-butanoyl]amino]propanoyl]amino]-4-methyl-pentanoic acid
> <PUBCHEM_IUPAC_CAS_NAME>
(2S)-2-[[(2S)-3-carboxy-2-[[(2S)-2-[[(2S,3S)-3-methyl-2-[[(2S)-3-methyl-2-[methyl-(4-methyl-1-oxopentyl)amino]-1-oxobutyl]amino]-1-oxopentyl]amino]-4-[(2S)-octan-2-yl]oxy-1,4-dioxobutyl]amino]-1-oxopropyl]amino]-4-methylpentanoic acid
> <PUBCHEM_IUPAC_NAME_MARKUP>
(2<I>S</I>)-2-[[(2<I>S</I>)-3-carboxy-2-[[(2<I>S</I>)-2-[[(2<I>S</I>,3<I>S</I>)-3-methyl-2-[[(2<I>S</I>)-3-methyl-2-[methyl(4-methylpentanoyl)amino]butanoyl]amino]pentanoyl]amino]-4-[(2<I>S</I>)-octan-2-yl]oxy-4-oxobutanoyl]amino]propanoyl]amino]-4-methylpentanoic acid
> <PUBCHEM_IUPAC_NAME>
(2S)-2-[[(2S)-3-carboxy-2-[[(2S)-2-[[(2S,3S)-3-methyl-2-[[(2S)-3-methyl-2-[methyl(4-methylpentanoyl)amino]butanoyl]amino]pentanoyl]amino]-4-[(2S)-octan-2-yl]oxy-4-oxobutanoyl]amino]propanoyl]amino]-4-methylpentanoic acid
> <PUBCHEM_IUPAC_SYSTEMATIC_NAME>
(2S)-4-methyl-2-[[(2S)-2-[[(2S)-2-[[(2S,3S)-3-methyl-2-[[(2S)-3-methyl-2-[methyl(4-methylpentanoyl)amino]butanoyl]amino]pentanoyl]amino]-4-[(2S)-octan-2-yl]oxy-4-oxidanylidene-butanoyl]amino]-4-oxidanyl-4-oxidanylidene-butanoyl]amino]pentanoic acid
> <PUBCHEM_IUPAC_TRADITIONAL_NAME>
(2S)-2-[[(2S)-3-carboxy-2-[[(2S)-4-keto-4-[(1S)-1-methylheptoxy]-2-[[(2S,3S)-3-methyl-2-[[(2S)-3-methyl-2-[methyl(4-methylpentanoyl)amino]butanoyl]amino]pentanoyl]amino]butanoyl]amino]propanoyl]amino]-4-methyl-valeric acid
> <PUBCHEM_IUPAC_INCHI>
InChI=1S/C40H71N5O11/c1-12-14-15-16-17-27(10)56-33(49)22-29(37(51)41-28(21-32(47)48)36(50)43-30(40(54)55)20-24(5)6)42-38(52)34(26(9)13-2)44-39(53)35(25(7)8)45(11)31(46)19-18-23(3)4/h23-30,34-35H,12-22H2,1-11H3,(H,41,51)(H,42,52)(H,43,50)(H,44,53)(H,47,48)(H,54,55)/t26-,27-,28-,29-,30-,34-,35-/m0/s1
> <PUBCHEM_IUPAC_INCHIKEY>
WLJXGXPPOATYRZ-GPHPOYFESA-N
> <PUBCHEM_XLOGP3_AA>
5.8
> <PUBCHEM_EXACT_MASS>
797.51500810
> <PUBCHEM_MOLECULAR_FORMULA>
C40H71N5O11
> <PUBCHEM_MOLECULAR_WEIGHT>
798.0
> <PUBCHEM_OPENEYE_CAN_SMILES>
CCCCCCC(C)OC(=O)CC(C(=O)NC(CC(=O)O)C(=O)NC(CC(C)C)C(=O)O)NC(=O)C(C(C)CC)NC(=O)C(C(C)C)N(C)C(=O)CCC(C)C
> <PUBCHEM_OPENEYE_ISO_SMILES>
CCCCCC[C@H](C)OC(=O)C[C@@H](C(=O)N[C@@H](CC(=O)O)C(=O)N[C@@H](CC(C)C)C(=O)O)NC(=O)[C@H]([C@@H](C)CC)NC(=O)[C@H](C(C)C)N(C)C(=O)CCC(C)C
> <PUBCHEM_CACTVS_TPSA>
238
> <PUBCHEM_MONOISOTOPIC_WEIGHT>
797.51500810
> <PUBCHEM_TOTAL_CHARGE>
0
> <PUBCHEM_HEAVY_ATOM_COUNT>
56
> <PUBCHEM_ATOM_DEF_STEREO_COUNT>
7
> <PUBCHEM_ATOM_UDEF_STEREO_COUNT>
0
> <PUBCHEM_BOND_DEF_STEREO_COUNT>
0
> <PUBCHEM_BOND_UDEF_STEREO_COUNT>
0
> <PUBCHEM_ISOTOPIC_ATOM_COUNT>
0
> <PUBCHEM_COMPONENT_COUNT>
1
> <PUBCHEM_CACTVS_TAUTO_COUNT>
-1
> <PUBCHEM_COORDINATE_TYPE>
1
5
255
> <PUBCHEM_BONDANNOTATIONS>
17  12  6
19  13  5
27  14  5
36  15  5
42  16  5
18  24  6
37  3  6
$$$$
