502972
  -OEChem-10302200282D
112112  0     1  0  0  0  0  0999 V2000
    6.3301   -1.0000    0.0000 O   0  0  0  0  0  0  0  0  0  0  0  0
    5.4641    2.5000    0.0000 O   0  0  0  0  0  0  0  0  0  0  0  0
    2.8660   -2.0000    0.0000 O   0  0  0  0  0  0  0  0  0  0  0  0
    8.0622    5.0000    0.0000 O   0  0  0  0  0  0  0  0  0  0  0  0
   11.5263    4.0000    0.0000 O   0  0  0  0  0  0  0  0  0  0  0  0
    7.1962    5.5000    0.0000 O   0  0  0  0  0  0  0  0  0  0  0  0
   12.3923    0.5000    0.0000 O   0  0  0  0  0  0  0  0  0  0  0  0
    5.4641    6.5000    0.0000 O   0  0  0  0  0  0  0  0  0  0  0  0
   10.6603    0.5000    0.0000 O   0  0  0  0  0  0  0  0  0  0  0  0
   10.6603    6.5000    0.0000 O   0  0  0  0  0  0  0  0  0  0  0  0
   11.5263    5.0000    0.0000 O   0  0  0  0  0  0  0  0  0  0  0  0
    5.4641    0.5000    0.0000 N   0  0  0  0  0  0  0  0  0  0  0  0
    4.5981   -2.0000    0.0000 N   0  0  0  0  0  0  0  0  0  0  0  0
    7.1962    2.5000    0.0000 N   0  0  0  0  0  0  0  0  0  0  0  0
    8.9282    3.5000    0.0000 N   0  0  0  0  0  0  0  0  0  0  0  0
   10.6603    2.5000    0.0000 N   0  0  0  0  0  0  0  0  0  0  0  0
    5.4641    5.5000    0.0000 N   0  0  0  0  0  0  0  0  0  0  0  0
    7.1962    0.5000    0.0000 C   0  0  2  0  0  0  0  0  0  0  0  0
    6.3301    1.0000    0.0000 C   0  0  1  0  0  0  0  0  0  0  0  0
    4.5981   -1.0000    0.0000 C   0  0  1  0  0  0  0  0  0  0  0  0
    3.7320   -0.5000    0.0000 C   0  0  0  0  0  0  0  0  0  0  0  0
    8.0622    1.0000    0.0000 C   0  0  0  0  0  0  0  0  0  0  0  0
    5.4641   -0.5000    0.0000 C   0  0  0  0  0  0  0  0  0  0  0  0
    6.3301    2.0000    0.0000 C   0  0  0  0  0  0  0  0  0  0  0  0
    7.1962   -0.5000    0.0000 C   0  0  0  0  0  0  0  0  0  0  0  0
    3.7320    0.5000    0.0000 C   0  0  0  0  0  0  0  0  0  0  0  0
    2.8660   -1.0000    0.0000 C   0  0  0  0  0  0  0  0  0  0  0  0
    7.1962    3.5000    0.0000 C   0  0  3  0  0  0  0  0  0  0  0  0
    8.9282    0.5000    0.0000 C   0  0  0  0  0  0  0  0  0  0  0  0
    3.7320   -2.5000    0.0000 C   0  0  0  0  0  0  0  0  0  0  0  0
    5.4641   -2.5000    0.0000 C   0  0  0  0  0  0  0  0  0  0  0  0
    6.3301    4.0000    0.0000 C   0  0  0  0  0  0  0  0  0  0  0  0
    3.7320   -3.5000    0.0000 C   0  0  0  0  0  0  0  0  0  0  0  0
    8.0622    4.0000    0.0000 C   0  0  0  0  0  0  0  0  0  0  0  0
    9.7942    4.0000    0.0000 C   0  0  2  0  0  0  0  0  0  0  0  0
   12.3923    2.5000    0.0000 C   0  0  0  0  0  0  0  0  0  0  0  0
   11.5263    2.0000    0.0000 C   0  0  1  0  0  0  0  0  0  0  0  0
   13.2583    2.0000    0.0000 C   0  0  0  0  0  0  0  0  0  0  0  0
    2.8660   -4.0000    0.0000 C   0  0  0  0  0  0  0  0  0  0  0  0
   10.6603    3.5000    0.0000 C   0  0  0  0  0  0  0  0  0  0  0  0
    9.7942    5.0000    0.0000 C   0  0  0  0  0  0  0  0  0  0  0  0
    6.3301    5.0000    0.0000 C   0  0  0  0  0  0  0  0  0  0  0  0
   14.1244    2.5000    0.0000 C   0  0  0  0  0  0  0  0  0  0  0  0
   13.2583    1.0000    0.0000 C   0  0  0  0  0  0  0  0  0  0  0  0
    2.8660   -5.0000    0.0000 C   0  0  0  0  0  0  0  0  0  0  0  0
   11.5263    1.0000    0.0000 C   0  0  0  0  0  0  0  0  0  0  0  0
   10.6603    5.5000    0.0000 C   0  0  0  0  0  0  0  0  0  0  0  0
    3.7320   -5.5000    0.0000 C   0  0  0  0  0  0  0  0  0  0  0  0
    2.0000   -5.5000    0.0000 C   0  0  0  0  0  0  0  0  0  0  0  0
    4.5981    5.0000    0.0000 C   0  0  0  0  0  0  0  0  0  0  0  0
    3.7320   -6.5000    0.0000 C   0  0  0  0  0  0  0  0  0  0  0  0
    2.0000   -6.5000    0.0000 C   0  0  0  0  0  0  0  0  0  0  0  0
    2.8660   -7.0000    0.0000 C   0  0  0  0  0  0  0  0  0  0  0  0
    4.5981    7.0000    0.0000 C   0  0  0  0  0  0  0  0  0  0  0  0
    6.6592    0.1900    0.0000 H   0  0  0  0  0  0  0  0  0  0  0  0
    5.7932    1.3100    0.0000 H   0  0  0  0  0  0  0  0  0  0  0  0
    5.1350   -1.3100    0.0000 H   0  0  0  0  0  0  0  0  0  0  0  0
    3.7320   -1.1200    0.0000 H   0  0  0  0  0  0  0  0  0  0  0  0
    8.4607    1.4750    0.0000 H   0  0  0  0  0  0  0  0  0  0  0  0
    7.6636    1.4750    0.0000 H   0  0  0  0  0  0  0  0  0  0  0  0
    4.9272    0.8100    0.0000 H   0  0  0  0  0  0  0  0  0  0  0  0
    6.5762   -0.5000    0.0000 H   0  0  0  0  0  0  0  0  0  0  0  0
    7.1962   -1.1200    0.0000 H   0  0  0  0  0  0  0  0  0  0  0  0
    7.8162   -0.5000    0.0000 H   0  0  0  0  0  0  0  0  0  0  0  0
    4.3520    0.5000    0.0000 H   0  0  0  0  0  0  0  0  0  0  0  0
    3.7320    1.1200    0.0000 H   0  0  0  0  0  0  0  0  0  0  0  0
    3.1120    0.5000    0.0000 H   0  0  0  0  0  0  0  0  0  0  0  0
    2.5560   -0.4631    0.0000 H   0  0  0  0  0  0  0  0  0  0  0  0
    2.3291   -1.3100    0.0000 H   0  0  0  0  0  0  0  0  0  0  0  0
    3.1760   -1.5369    0.0000 H   0  0  0  0  0  0  0  0  0  0  0  0
    6.6592    3.1900    0.0000 H   0  0  0  0  0  0  0  0  0  0  0  0
    7.7331    2.1900    0.0000 H   0  0  0  0  0  0  0  0  0  0  0  0
    8.6182   -0.0369    0.0000 H   0  0  0  0  0  0  0  0  0  0  0  0
    9.4651    0.1900    0.0000 H   0  0  0  0  0  0  0  0  0  0  0  0
    9.2382    1.0369    0.0000 H   0  0  0  0  0  0  0  0  0  0  0  0
    5.1541   -3.0369    0.0000 H   0  0  0  0  0  0  0  0  0  0  0  0
    6.0010   -2.8100    0.0000 H   0  0  0  0  0  0  0  0  0  0  0  0
    5.7741   -1.9631    0.0000 H   0  0  0  0  0  0  0  0  0  0  0  0
    5.7196    4.1077    0.0000 H   0  0  0  0  0  0  0  0  0  0  0  0
    6.1181    3.4174    0.0000 H   0  0  0  0  0  0  0  0  0  0  0  0
    3.9441   -4.0826    0.0000 H   0  0  0  0  0  0  0  0  0  0  0  0
    4.3426   -3.3923    0.0000 H   0  0  0  0  0  0  0  0  0  0  0  0
    9.2573    4.3100    0.0000 H   0  0  0  0  0  0  0  0  0  0  0  0
   12.7908    2.9750    0.0000 H   0  0  0  0  0  0  0  0  0  0  0  0
   11.9938    2.9750    0.0000 H   0  0  0  0  0  0  0  0  0  0  0  0
   10.9893    1.6900    0.0000 H   0  0  0  0  0  0  0  0  0  0  0  0
   13.7953    1.6900    0.0000 H   0  0  0  0  0  0  0  0  0  0  0  0
    8.9282    2.8800    0.0000 H   0  0  0  0  0  0  0  0  0  0  0  0
    2.6540   -3.4174    0.0000 H   0  0  0  0  0  0  0  0  0  0  0  0
    2.2554   -4.1077    0.0000 H   0  0  0  0  0  0  0  0  0  0  0  0
   10.1233    2.1900    0.0000 H   0  0  0  0  0  0  0  0  0  0  0  0
    9.5822    5.5826    0.0000 H   0  0  0  0  0  0  0  0  0  0  0  0
    9.1836    4.8923    0.0000 H   0  0  0  0  0  0  0  0  0  0  0  0
   14.4344    1.9631    0.0000 H   0  0  0  0  0  0  0  0  0  0  0  0
   14.6613    2.8100    0.0000 H   0  0  0  0  0  0  0  0  0  0  0  0
   13.8144    3.0369    0.0000 H   0  0  0  0  0  0  0  0  0  0  0  0
   12.6383    1.0000    0.0000 H   0  0  0  0  0  0  0  0  0  0  0  0
   13.2583    0.3800    0.0000 H   0  0  0  0  0  0  0  0  0  0  0  0
   13.8783    1.0000    0.0000 H   0  0  0  0  0  0  0  0  0  0  0  0
    4.2690   -5.1900    0.0000 H   0  0  0  0  0  0  0  0  0  0  0  0
    1.4631   -5.1900    0.0000 H   0  0  0  0  0  0  0  0  0  0  0  0
    4.2881    5.5369    0.0000 H   0  0  0  0  0  0  0  0  0  0  0  0
    4.0611    4.6900    0.0000 H   0  0  0  0  0  0  0  0  0  0  0  0
    4.9081    4.4631    0.0000 H   0  0  0  0  0  0  0  0  0  0  0  0
    4.2690   -6.8100    0.0000 H   0  0  0  0  0  0  0  0  0  0  0  0
    1.4631   -6.8100    0.0000 H   0  0  0  0  0  0  0  0  0  0  0  0
   12.3923   -0.1200    0.0000 H   0  0  0  0  0  0  0  0  0  0  0  0
    2.8660   -7.6200    0.0000 H   0  0  0  0  0  0  0  0  0  0  0  0
   11.1972    6.8100    0.0000 H   0  0  0  0  0  0  0  0  0  0  0  0
    4.9081    7.5369    0.0000 H   0  0  0  0  0  0  0  0  0  0  0  0
    4.0611    7.3100    0.0000 H   0  0  0  0  0  0  0  0  0  0  0  0
    4.2881    6.4631    0.0000 H   0  0  0  0  0  0  0  0  0  0  0  0
  1 23  2  0  0  0  0
  2 24  2  0  0  0  0
  3 30  2  0  0  0  0
  4 34  2  0  0  0  0
  5 40  2  0  0  0  0
  6 42  2  0  0  0  0
  7 46  1  0  0  0  0
  7107  1  0  0  0  0
  8 17  1  0  0  0  0
  8 54  1  0  0  0  0
  9 46  2  0  0  0  0
 10 47  1  0  0  0  0
 10109  1  0  0  0  0
 11 47  2  0  0  0  0
 19 12  1  6  0  0  0
 12 23  1  0  0  0  0
 12 61  1  0  0  0  0
 20 13  1  1  0  0  0
 13 30  1  0  0  0  0
 13 31  1  0  0  0  0
 14 24  1  0  0  0  0
 14 28  1  0  0  0  0
 14 72  1  0  0  0  0
 15 34  1  0  0  0  0
 35 15  1  1  0  0  0
 15 88  1  0  0  0  0
 37 16  1  1  0  0  0
 16 40  1  0  0  0  0
 16 91  1  0  0  0  0
 17 42  1  0  0  0  0
 17 50  1  0  0  0  0
 18 19  1  0  0  0  0
 18 22  1  0  0  0  0
 18 25  1  6  0  0  0
 18 55  1  0  0  0  0
 19 24  1  0  0  0  0
 19 56  1  0  0  0  0
 20 21  1  0  0  0  0
 20 23  1  0  0  0  0
 20 57  1  0  0  0  0
 21 26  1  0  0  0  0
 21 27  1  0  0  0  0
 21 58  1  0  0  0  0
 22 29  1  0  0  0  0
 22 59  1  0  0  0  0
 22 60  1  0  0  0  0
 25 62  1  0  0  0  0
 25 63  1  0  0  0  0
 25 64  1  0  0  0  0
 26 65  1  0  0  0  0
 26 66  1  0  0  0  0
 26 67  1  0  0  0  0
 27 68  1  0  0  0  0
 27 69  1  0  0  0  0
 27 70  1  0  0  0  0
 28 32  1  0  0  0  0
 28 34  1  0  0  0  0
 28 71  1  0  0  0  0
 29 73  1  0  0  0  0
 29 74  1  0  0  0  0
 29 75  1  0  0  0  0
 30 33  1  0  0  0  0
 31 76  1  0  0  0  0
 31 77  1  0  0  0  0
 31 78  1  0  0  0  0
 32 42  1  0  0  0  0
 32 79  1  0  0  0  0
 32 80  1  0  0  0  0
 33 39  1  0  0  0  0
 33 81  1  0  0  0  0
 33 82  1  0  0  0  0
 35 40  1  0  0  0  0
 35 41  1  0  0  0  0
 35 83  1  0  0  0  0
 36 37  1  0  0  0  0
 36 38  1  0  0  0  0
 36 84  1  0  0  0  0
 36 85  1  0  0  0  0
 37 46  1  0  0  0  0
 37 86  1  0  0  0  0
 38 43  1  0  0  0  0
 38 44  1  0  0  0  0
 38 87  1  0  0  0  0
 39 45  1  0  0  0  0
 39 89  1  0  0  0  0
 39 90  1  0  0  0  0
 41 47  1  0  0  0  0
 41 92  1  0  0  0  0
 41 93  1  0  0  0  0
 43 94  1  0  0  0  0
 43 95  1  0  0  0  0
 43 96  1  0  0  0  0
 44 97  1  0  0  0  0
 44 98  1  0  0  0  0
 44 99  1  0  0  0  0
 45 48  2  0  0  0  0
 45 49  1  0  0  0  0
 48 51  1  0  0  0  0
 48100  1  0  0  0  0
 49 52  2  0  0  0  0
 49101  1  0  0  0  0
 50102  1  0  0  0  0
 50103  1  0  0  0  0
 50104  1  0  0  0  0
 51 53  2  0  0  0  0
 51105  1  0  0  0  0
 52 53  1  0  0  0  0
 52106  1  0  0  0  0
 53108  1  0  0  0  0
 54110  1  0  0  0  0
 54111  1  0  0  0  0
 54112  1  0  0  0  0
M  END
> <PUBCHEM_COMPOUND_CID>
502972
> <PUBCHEM_COMPOUND_CANONICALIZED>
1
> <PUBCHEM_CACTVS_COMPLEXITY>
1300
> <PUBCHEM_CACTVS_HBOND_ACCEPTOR>
11
> <PUBCHEM_CACTVS_HBOND_DONOR>
6
> <PUBCHEM_CACTVS_ROTATABLE_BOND>
23
> <PUBCHEM_CACTVS_SUBSKEYS>
AAADcfB/vAAAAAAAAAAAAAAAAAAAAAAAAAAwAAAAAAAAAAABAAAAHgAUCAAADSjBmAYyCIPQAgCIAiHSGAACAAAgAAAoiIGIAIgKYDqA0TCUYAAmlgCYiAe/iICOAAAAAAAAAAAAAAAAAAAAAAAAAAAAAA==
> <PUBCHEM_IUPAC_OPENEYE_NAME>
(2S)-2-[[(2S)-3-carboxy-2-[[4-[methoxy(methyl)amino]-2-[[(2S,3S)-3-methyl-2-[[(2S)-3-methyl-2-[methyl(3-phenylpropanoyl)amino]butanoyl]amino]pentanoyl]amino]-4-oxo-butanoyl]amino]propanoyl]amino]-4-methyl-pentanoic acid
> <PUBCHEM_IUPAC_CAS_NAME>
(2S)-2-[[(2S)-3-carboxy-2-[[4-[methoxy(methyl)amino]-2-[[(2S,3S)-3-methyl-2-[[(2S)-3-methyl-2-[methyl-(1-oxo-3-phenylpropyl)amino]-1-oxobutyl]amino]-1-oxopentyl]amino]-1,4-dioxobutyl]amino]-1-oxopropyl]amino]-4-methylpentanoic acid
> <PUBCHEM_IUPAC_NAME_MARKUP>
(2<I>S</I>)-2-[[(2<I>S</I>)-3-carboxy-2-[[4-[methoxy(methyl)amino]-2-[[(2<I>S</I>,3<I>S</I>)-3-methyl-2-[[(2<I>S</I>)-3-methyl-2-[methyl(3-phenylpropanoyl)amino]butanoyl]amino]pentanoyl]amino]-4-oxobutanoyl]amino]propanoyl]amino]-4-methylpentanoic acid
> <PUBCHEM_IUPAC_NAME>
(2S)-2-[[(2S)-3-carboxy-2-[[4-[methoxy(methyl)amino]-2-[[(2S,3S)-3-methyl-2-[[(2S)-3-methyl-2-[methyl(3-phenylpropanoyl)amino]butanoyl]amino]pentanoyl]amino]-4-oxobutanoyl]amino]propanoyl]amino]-4-methylpentanoic acid
> <PUBCHEM_IUPAC_SYSTEMATIC_NAME>
(2S)-2-[[(2S)-2-[[4-[methoxy(methyl)amino]-2-[[(2S,3S)-3-methyl-2-[[(2S)-3-methyl-2-[methyl(3-phenylpropanoyl)amino]butanoyl]amino]pentanoyl]amino]-4-oxidanylidene-butanoyl]amino]-4-oxidanyl-4-oxidanylidene-butanoyl]amino]-4-methyl-pentanoic acid
> <PUBCHEM_IUPAC_TRADITIONAL_NAME>
(2S)-2-[[(2S)-3-carboxy-2-[[2-[[(2S,3S)-2-[[(2S)-2-[hydrocinnamoyl(methyl)amino]-3-methyl-butanoyl]amino]-3-methyl-pentanoyl]amino]-4-keto-4-[methoxy(methyl)amino]butanoyl]amino]propanoyl]amino]-4-methyl-valeric acid
> <PUBCHEM_IUPAC_INCHI>
InChI=1S/C37H58N6O11/c1-10-23(6)31(41-36(51)32(22(4)5)42(7)28(44)17-16-24-14-12-11-13-15-24)35(50)39-25(19-29(45)43(8)54-9)33(48)38-26(20-30(46)47)34(49)40-27(37(52)53)18-21(2)3/h11-15,21-23,25-27,31-32H,10,16-20H2,1-9H3,(H,38,48)(H,39,50)(H,40,49)(H,41,51)(H,46,47)(H,52,53)/t23-,25?,26-,27-,31-,32-/m0/s1
> <PUBCHEM_IUPAC_INCHIKEY>
QYLBJOJAQHUSJH-VUKHEHHTSA-N
> <PUBCHEM_XLOGP3_AA>
2.4
> <PUBCHEM_EXACT_MASS>
762.41635669
> <PUBCHEM_MOLECULAR_FORMULA>
C37H58N6O11
> <PUBCHEM_MOLECULAR_WEIGHT>
762.9
> <PUBCHEM_OPENEYE_CAN_SMILES>
CCC(C)C(C(=O)NC(CC(=O)N(C)OC)C(=O)NC(CC(=O)O)C(=O)NC(CC(C)C)C(=O)O)NC(=O)C(C(C)C)N(C)C(=O)CCC1=CC=CC=C1
> <PUBCHEM_OPENEYE_ISO_SMILES>
CC[C@H](C)[C@@H](C(=O)NC(CC(=O)N(C)OC)C(=O)N[C@@H](CC(=O)O)C(=O)N[C@@H](CC(C)C)C(=O)O)NC(=O)[C@H](C(C)C)N(C)C(=O)CCC1=CC=CC=C1
> <PUBCHEM_CACTVS_TPSA>
241
> <PUBCHEM_MONOISOTOPIC_WEIGHT>
762.41635669
> <PUBCHEM_TOTAL_CHARGE>
0
> <PUBCHEM_HEAVY_ATOM_COUNT>
54
> <PUBCHEM_ATOM_DEF_STEREO_COUNT>
5
> <PUBCHEM_ATOM_UDEF_STEREO_COUNT>
1
> <PUBCHEM_BOND_DEF_STEREO_COUNT>
0
> <PUBCHEM_BOND_UDEF_STEREO_COUNT>
0
> <PUBCHEM_ISOTOPIC_ATOM_COUNT>
0
> <PUBCHEM_COMPONENT_COUNT>
1
> <PUBCHEM_CACTVS_TAUTO_COUNT>
-1
> <PUBCHEM_COORDINATE_TYPE>
1
5
255
> <PUBCHEM_BONDANNOTATIONS>
19  12  6
20  13  5
35  15  5
37  16  5
18  25  6
28  32  3
45  48  8
45  49  8
48  51  8
49  52  8
51  53  8
52  53  8
$$$$
