502964
  -OEChem-10302200282D
 96 96  0     1  0  0  0  0  0999 V2000
    5.1350   -2.4806    0.0000 O   0  0  0  0  0  0  0  0  0  0  0  0
    8.5991   -2.4806    0.0000 O   0  0  0  0  0  0  0  0  0  0  0  0
    5.1350   -1.4806    0.0000 O   0  0  0  0  0  0  0  0  0  0  0  0
   11.1972    0.0194    0.0000 O   0  0  0  0  0  0  0  0  0  0  0  0
    4.2690    2.0194    0.0000 O   0  0  0  0  0  0  0  0  0  0  0  0
    2.5369    0.0194    0.0000 O   0  0  0  0  0  0  0  0  0  0  0  0
    3.4030    1.5194    0.0000 O   0  0  0  0  0  0  0  0  0  0  0  0
    7.7331   -0.9806    0.0000 N   0  0  0  0  0  0  0  0  0  0  0  0
   10.3312   -1.4806    0.0000 N   0  0  0  0  0  0  0  0  0  0  0  0
    6.0010    0.0194    0.0000 N   0  0  0  0  0  0  0  0  0  0  0  0
    6.0010    2.0194    0.0000 N   0  0  0  0  0  0  0  0  0  0  0  0
    6.0010   -3.9806    0.0000 C   0  0  0  0  0  0  0  0  0  0  0  0
    5.1920   -4.5684    0.0000 C   0  0  0  0  0  0  0  0  0  0  0  0
    6.8100   -4.5684    0.0000 C   0  0  0  0  0  0  0  0  0  0  0  0
    5.5010   -5.5194    0.0000 C   0  0  0  0  0  0  0  0  0  0  0  0
    6.5010   -5.5194    0.0000 C   0  0  0  0  0  0  0  0  0  0  0  0
    6.0010   -2.9806    0.0000 C   0  0  0  0  0  0  0  0  0  0  0  0
    6.8671   -2.4806    0.0000 C   0  0  0  0  0  0  0  0  0  0  0  0
    6.8671   -1.4806    0.0000 C   0  0  3  0  0  0  0  0  0  0  0  0
    9.4651    0.0194    0.0000 C   0  0  0  0  0  0  0  0  0  0  0  0
    9.4651   -0.9806    0.0000 C   0  0  1  0  0  0  0  0  0  0  0  0
    8.5991   -1.4806    0.0000 C   0  0  0  0  0  0  0  0  0  0  0  0
    9.4651    1.0194    0.0000 C   0  0  0  0  0  0  0  0  0  0  0  0
   10.4651    0.0194    0.0000 C   0  0  0  0  0  0  0  0  0  0  0  0
    8.4651    0.0194    0.0000 C   0  0  0  0  0  0  0  0  0  0  0  0
    6.0010   -0.9806    0.0000 C   0  0  0  0  0  0  0  0  0  0  0  0
   12.0632   -1.4806    0.0000 C   0  0  0  0  0  0  0  0  0  0  0  0
   11.1972   -0.9806    0.0000 C   0  0  0  0  0  0  0  0  0  0  0  0
    6.8671    4.5194    0.0000 C   0  0  0  0  0  0  0  0  0  0  0  0
    5.1350    0.5194    0.0000 C   0  0  2  0  0  0  0  0  0  0  0  0
    6.8671    3.5194    0.0000 C   0  0  0  0  0  0  0  0  0  0  0  0
   12.9292   -0.9806    0.0000 C   0  0  0  0  0  0  0  0  0  0  0  0
   12.0632   -2.4806    0.0000 C   0  0  0  0  0  0  0  0  0  0  0  0
    6.0010    3.0194    0.0000 C   0  0  0  0  0  0  0  0  0  0  0  0
    5.1350    1.5194    0.0000 C   0  0  0  0  0  0  0  0  0  0  0  0
    4.2690    0.0194    0.0000 C   0  0  0  0  0  0  0  0  0  0  0  0
    6.8671    5.5194    0.0000 C   0  0  0  0  0  0  0  0  0  0  0  0
    7.8671    4.5194    0.0000 C   0  0  0  0  0  0  0  0  0  0  0  0
    5.8671    4.5194    0.0000 C   0  0  0  0  0  0  0  0  0  0  0  0
   13.7953   -1.4806    0.0000 C   0  0  0  0  0  0  0  0  0  0  0  0
   12.9292   -2.9806    0.0000 C   0  0  0  0  0  0  0  0  0  0  0  0
    3.4030    0.5194    0.0000 C   0  0  0  0  0  0  0  0  0  0  0  0
    6.5535   -3.6991    0.0000 H   0  0  0  0  0  0  0  0  0  0  0  0
    4.8820   -4.0314    0.0000 H   0  0  0  0  0  0  0  0  0  0  0  0
    4.6256   -4.8205    0.0000 H   0  0  0  0  0  0  0  0  0  0  0  0
    7.3764   -4.8205    0.0000 H   0  0  0  0  0  0  0  0  0  0  0  0
    7.1200   -4.0314    0.0000 H   0  0  0  0  0  0  0  0  0  0  0  0
    4.8946   -5.6483    0.0000 H   0  0  0  0  0  0  0  0  0  0  0  0
    5.5658   -6.1360    0.0000 H   0  0  0  0  0  0  0  0  0  0  0  0
    6.4362   -6.1360    0.0000 H   0  0  0  0  0  0  0  0  0  0  0  0
    7.1075   -5.6483    0.0000 H   0  0  0  0  0  0  0  0  0  0  0  0
    7.0791   -3.0632    0.0000 H   0  0  0  0  0  0  0  0  0  0  0  0
    7.4776   -2.3729    0.0000 H   0  0  0  0  0  0  0  0  0  0  0  0
    7.4040   -1.7906    0.0000 H   0  0  0  0  0  0  0  0  0  0  0  0
   10.0021   -0.6706    0.0000 H   0  0  0  0  0  0  0  0  0  0  0  0
    7.7331   -0.3606    0.0000 H   0  0  0  0  0  0  0  0  0  0  0  0
   10.0851    1.0194    0.0000 H   0  0  0  0  0  0  0  0  0  0  0  0
    9.4651    1.6394    0.0000 H   0  0  0  0  0  0  0  0  0  0  0  0
    8.8451    1.0194    0.0000 H   0  0  0  0  0  0  0  0  0  0  0  0
   10.4651   -0.6006    0.0000 H   0  0  0  0  0  0  0  0  0  0  0  0
   11.0851    0.0194    0.0000 H   0  0  0  0  0  0  0  0  0  0  0  0
   10.4651    0.6394    0.0000 H   0  0  0  0  0  0  0  0  0  0  0  0
    8.4651    0.6394    0.0000 H   0  0  0  0  0  0  0  0  0  0  0  0
    7.8451    0.0194    0.0000 H   0  0  0  0  0  0  0  0  0  0  0  0
    8.4651   -0.6006    0.0000 H   0  0  0  0  0  0  0  0  0  0  0  0
   10.3312   -2.1006    0.0000 H   0  0  0  0  0  0  0  0  0  0  0  0
   12.6002   -1.7906    0.0000 H   0  0  0  0  0  0  0  0  0  0  0  0
    6.5380    0.3294    0.0000 H   0  0  0  0  0  0  0  0  0  0  0  0
    5.1350   -0.1006    0.0000 H   0  0  0  0  0  0  0  0  0  0  0  0
    7.0791    2.9368    0.0000 H   0  0  0  0  0  0  0  0  0  0  0  0
    7.4776    3.6271    0.0000 H   0  0  0  0  0  0  0  0  0  0  0  0
   13.3278   -0.5056    0.0000 H   0  0  0  0  0  0  0  0  0  0  0  0
   12.5307   -0.5056    0.0000 H   0  0  0  0  0  0  0  0  0  0  0  0
   11.4526   -2.3729    0.0000 H   0  0  0  0  0  0  0  0  0  0  0  0
   11.8512   -3.0632    0.0000 H   0  0  0  0  0  0  0  0  0  0  0  0
    5.7890    3.6020    0.0000 H   0  0  0  0  0  0  0  0  0  0  0  0
    5.3905    2.9118    0.0000 H   0  0  0  0  0  0  0  0  0  0  0  0
    3.8705   -0.4555    0.0000 H   0  0  0  0  0  0  0  0  0  0  0  0
    4.6675   -0.4555    0.0000 H   0  0  0  0  0  0  0  0  0  0  0  0
    7.4871    5.5194    0.0000 H   0  0  0  0  0  0  0  0  0  0  0  0
    6.8671    6.1394    0.0000 H   0  0  0  0  0  0  0  0  0  0  0  0
    6.2471    5.5194    0.0000 H   0  0  0  0  0  0  0  0  0  0  0  0
    7.8671    3.8994    0.0000 H   0  0  0  0  0  0  0  0  0  0  0  0
    8.4871    4.5194    0.0000 H   0  0  0  0  0  0  0  0  0  0  0  0
    7.8671    5.1394    0.0000 H   0  0  0  0  0  0  0  0  0  0  0  0
    5.8671    5.1394    0.0000 H   0  0  0  0  0  0  0  0  0  0  0  0
    5.2471    4.5194    0.0000 H   0  0  0  0  0  0  0  0  0  0  0  0
    5.8671    3.8994    0.0000 H   0  0  0  0  0  0  0  0  0  0  0  0
    6.5380    1.7094    0.0000 H   0  0  0  0  0  0  0  0  0  0  0  0
   13.4853   -2.0175    0.0000 H   0  0  0  0  0  0  0  0  0  0  0  0
   14.3322   -1.7906    0.0000 H   0  0  0  0  0  0  0  0  0  0  0  0
   14.1053   -0.9436    0.0000 H   0  0  0  0  0  0  0  0  0  0  0  0
   12.6192   -3.5175    0.0000 H   0  0  0  0  0  0  0  0  0  0  0  0
   13.4662   -3.2906    0.0000 H   0  0  0  0  0  0  0  0  0  0  0  0
   13.2392   -2.4436    0.0000 H   0  0  0  0  0  0  0  0  0  0  0  0
    2.0000    0.3294    0.0000 H   0  0  0  0  0  0  0  0  0  0  0  0
  1 17  2  0  0  0  0
  2 22  2  0  0  0  0
  3 26  2  0  0  0  0
  4 28  2  0  0  0  0
  5 35  2  0  0  0  0
  6 42  1  0  0  0  0
  6 96  1  0  0  0  0
  7 42  2  0  0  0  0
  8 19  1  0  0  0  0
  8 22  1  0  0  0  0
  8 56  1  0  0  0  0
 21  9  1  6  0  0  0
  9 28  1  0  0  0  0
  9 66  1  0  0  0  0
 10 26  1  0  0  0  0
 30 10  1  1  0  0  0
 10 68  1  0  0  0  0
 11 34  1  0  0  0  0
 11 35  1  0  0  0  0
 11 89  1  0  0  0  0
 12 13  1  0  0  0  0
 12 14  1  0  0  0  0
 12 17  1  0  0  0  0
 12 43  1  0  0  0  0
 13 15  1  0  0  0  0
 13 44  1  0  0  0  0
 13 45  1  0  0  0  0
 14 16  1  0  0  0  0
 14 46  1  0  0  0  0
 14 47  1  0  0  0  0
 15 16  1  0  0  0  0
 15 48  1  0  0  0  0
 15 49  1  0  0  0  0
 16 50  1  0  0  0  0
 16 51  1  0  0  0  0
 17 18  1  0  0  0  0
 18 19  1  0  0  0  0
 18 52  1  0  0  0  0
 18 53  1  0  0  0  0
 19 26  1  0  0  0  0
 19 54  1  0  0  0  0
 20 21  1  0  0  0  0
 20 23  1  0  0  0  0
 20 24  1  0  0  0  0
 20 25  1  0  0  0  0
 21 22  1  0  0  0  0
 21 55  1  0  0  0  0
 23 57  1  0  0  0  0
 23 58  1  0  0  0  0
 23 59  1  0  0  0  0
 24 60  1  0  0  0  0
 24 61  1  0  0  0  0
 24 62  1  0  0  0  0
 25 63  1  0  0  0  0
 25 64  1  0  0  0  0
 25 65  1  0  0  0  0
 27 28  1  0  0  0  0
 27 32  1  0  0  0  0
 27 33  1  0  0  0  0
 27 67  1  0  0  0  0
 29 31  1  0  0  0  0
 29 37  1  0  0  0  0
 29 38  1  0  0  0  0
 29 39  1  0  0  0  0
 30 35  1  0  0  0  0
 30 36  1  0  0  0  0
 30 69  1  0  0  0  0
 31 34  1  0  0  0  0
 31 70  1  0  0  0  0
 31 71  1  0  0  0  0
 32 40  1  0  0  0  0
 32 72  1  0  0  0  0
 32 73  1  0  0  0  0
 33 41  1  0  0  0  0
 33 74  1  0  0  0  0
 33 75  1  0  0  0  0
 34 76  1  0  0  0  0
 34 77  1  0  0  0  0
 36 42  1  0  0  0  0
 36 78  1  0  0  0  0
 36 79  1  0  0  0  0
 37 80  1  0  0  0  0
 37 81  1  0  0  0  0
 37 82  1  0  0  0  0
 38 83  1  0  0  0  0
 38 84  1  0  0  0  0
 38 85  1  0  0  0  0
 39 86  1  0  0  0  0
 39 87  1  0  0  0  0
 39 88  1  0  0  0  0
 40 90  1  0  0  0  0
 40 91  1  0  0  0  0
 40 92  1  0  0  0  0
 41 93  1  0  0  0  0
 41 94  1  0  0  0  0
 41 95  1  0  0  0  0
M  END
> <PUBCHEM_COMPOUND_CID>
502964
> <PUBCHEM_COMPOUND_CANONICALIZED>
1
> <PUBCHEM_CACTVS_COMPLEXITY>
957
> <PUBCHEM_CACTVS_HBOND_ACCEPTOR>
7
> <PUBCHEM_CACTVS_HBOND_DONOR>
5
> <PUBCHEM_CACTVS_ROTATABLE_BOND>
18
> <PUBCHEM_CACTVS_SUBSKEYS>
AAADcfB7uAAAAAAAAAAAAAAAAAAAAYAAAAAAAAAAAAAAAAAAAAAAHgAQCAAADyzBgAQCCALAAgAIAIGQGAAAAAAAAAAAAIGIAAAAQBoAgCAUQAAGFgCAAAE/iICPAAAAAAAAAAAAAAAAAAAAAAAAAAAAAA==
> <PUBCHEM_IUPAC_OPENEYE_NAME>
(3S)-3-[[4-cyclopentyl-2-[[(2S)-2-(2-ethylbutanoylamino)-3,3-dimethyl-butanoyl]amino]-4-oxo-butanoyl]amino]-4-(3,3-dimethylbutylamino)-4-oxo-butanoic acid
> <PUBCHEM_IUPAC_CAS_NAME>
(3S)-3-[[4-cyclopentyl-2-[[(2S)-2-[(2-ethyl-1-oxobutyl)amino]-3,3-dimethyl-1-oxobutyl]amino]-1,4-dioxobutyl]amino]-4-(3,3-dimethylbutylamino)-4-oxobutanoic acid
> <PUBCHEM_IUPAC_NAME_MARKUP>
(3<I>S</I>)-3-[[4-cyclopentyl-2-[[(2<I>S</I>)-2-(2-ethylbutanoylamino)-3,3-dimethylbutanoyl]amino]-4-oxobutanoyl]amino]-4-(3,3-dimethylbutylamino)-4-oxobutanoic acid
> <PUBCHEM_IUPAC_NAME>
(3S)-3-[[4-cyclopentyl-2-[[(2S)-2-(2-ethylbutanoylamino)-3,3-dimethylbutanoyl]amino]-4-oxobutanoyl]amino]-4-(3,3-dimethylbutylamino)-4-oxobutanoic acid
> <PUBCHEM_IUPAC_SYSTEMATIC_NAME>
(3S)-3-[[4-cyclopentyl-2-[[(2S)-2-(2-ethylbutanoylamino)-3,3-dimethyl-butanoyl]amino]-4-oxidanylidene-butanoyl]amino]-4-(3,3-dimethylbutylamino)-4-oxidanylidene-butanoic acid
> <PUBCHEM_IUPAC_TRADITIONAL_NAME>
(3S)-3-[[4-cyclopentyl-2-[[(2S)-2-(2-ethylbutanoylamino)-3,3-dimethyl-butanoyl]amino]-4-keto-butanoyl]amino]-4-(3,3-dimethylbutylamino)-4-keto-butyric acid
> <PUBCHEM_IUPAC_INCHI>
InChI=1S/C31H54N4O7/c1-9-19(10-2)26(39)35-25(31(6,7)8)29(42)34-21(17-23(36)20-13-11-12-14-20)28(41)33-22(18-24(37)38)27(40)32-16-15-30(3,4)5/h19-22,25H,9-18H2,1-8H3,(H,32,40)(H,33,41)(H,34,42)(H,35,39)(H,37,38)/t21?,22-,25+/m0/s1
> <PUBCHEM_IUPAC_INCHIKEY>
SBIMRUAGVZHSSK-UALOAUQUSA-N
> <PUBCHEM_XLOGP3_AA>
3.9
> <PUBCHEM_EXACT_MASS>
594.39925007
> <PUBCHEM_MOLECULAR_FORMULA>
C31H54N4O7
> <PUBCHEM_MOLECULAR_WEIGHT>
594.8
> <PUBCHEM_OPENEYE_CAN_SMILES>
CCC(CC)C(=O)NC(C(=O)NC(CC(=O)C1CCCC1)C(=O)NC(CC(=O)O)C(=O)NCCC(C)(C)C)C(C)(C)C
> <PUBCHEM_OPENEYE_ISO_SMILES>
CCC(CC)C(=O)N[C@H](C(=O)NC(CC(=O)C1CCCC1)C(=O)N[C@@H](CC(=O)O)C(=O)NCCC(C)(C)C)C(C)(C)C
> <PUBCHEM_CACTVS_TPSA>
171
> <PUBCHEM_MONOISOTOPIC_WEIGHT>
594.39925007
> <PUBCHEM_TOTAL_CHARGE>
0
> <PUBCHEM_HEAVY_ATOM_COUNT>
42
> <PUBCHEM_ATOM_DEF_STEREO_COUNT>
2
> <PUBCHEM_ATOM_UDEF_STEREO_COUNT>
1
> <PUBCHEM_BOND_DEF_STEREO_COUNT>
0
> <PUBCHEM_BOND_UDEF_STEREO_COUNT>
0
> <PUBCHEM_ISOTOPIC_ATOM_COUNT>
0
> <PUBCHEM_COMPONENT_COUNT>
1
> <PUBCHEM_CACTVS_TAUTO_COUNT>
-1
> <PUBCHEM_COORDINATE_TYPE>
1
5
255
> <PUBCHEM_BONDANNOTATIONS>
30  10  5
19  18  3
21  9  6
$$$$
