502976
  -OEChem-10302200282D
109109  0     1  0  0  0  0  0999 V2000
    4.2690   -0.3450    0.0000 O   0  0  0  0  0  0  0  0  0  0  0  0
    7.7331    0.6550    0.0000 O   0  0  0  0  0  0  0  0  0  0  0  0
    5.1350   -3.8450    0.0000 O   0  0  0  0  0  0  0  0  0  0  0  0
    8.5991    4.1550    0.0000 O   0  0  0  0  0  0  0  0  0  0  0  0
    6.0010    6.6550    0.0000 O   0  0  0  0  0  0  0  0  0  0  0  0
    9.4651    3.6550    0.0000 O   0  0  0  0  0  0  0  0  0  0  0  0
    2.5369    5.6550    0.0000 O   0  0  0  0  0  0  0  0  0  0  0  0
    3.4030    4.1550    0.0000 O   0  0  0  0  0  0  0  0  0  0  0  0
    8.5991    7.1550    0.0000 O   0  0  0  0  0  0  0  0  0  0  0  0
    6.8671    7.1550    0.0000 O   0  0  0  0  0  0  0  0  0  0  0  0
    3.4030   -7.8450    0.0000 O   0  0  0  0  0  0  0  0  0  0  0  0
    6.0010   -0.3450    0.0000 N   0  0  0  0  0  0  0  0  0  0  0  0
    4.2690   -2.3450    0.0000 N   0  0  0  0  0  0  0  0  0  0  0  0
    6.8671    2.1550    0.0000 N   0  0  0  0  0  0  0  0  0  0  0  0
    6.8671    4.1550    0.0000 N   0  0  0  0  0  0  0  0  0  0  0  0
    5.1350    5.1550    0.0000 N   0  0  0  0  0  0  0  0  0  0  0  0
   10.3312    2.1550    0.0000 N   0  0  0  0  0  0  0  0  0  0  0  0
    5.1350    1.1550    0.0000 C   0  0  2  0  0  0  0  0  0  0  0  0
    6.0010    0.6550    0.0000 C   0  0  1  0  0  0  0  0  0  0  0  0
    5.1350   -1.8450    0.0000 C   0  0  1  0  0  0  0  0  0  0  0  0
    6.0010   -2.3450    0.0000 C   0  0  0  0  0  0  0  0  0  0  0  0
    5.1350    2.1550    0.0000 C   0  0  0  0  0  0  0  0  0  0  0  0
    5.1350   -0.8450    0.0000 C   0  0  0  0  0  0  0  0  0  0  0  0
    6.8671    1.1550    0.0000 C   0  0  0  0  0  0  0  0  0  0  0  0
    4.2690    0.6550    0.0000 C   0  0  0  0  0  0  0  0  0  0  0  0
    7.7331    2.6550    0.0000 C   0  0  3  0  0  0  0  0  0  0  0  0
    6.8671   -1.8450    0.0000 C   0  0  0  0  0  0  0  0  0  0  0  0
    6.0010   -3.3450    0.0000 C   0  0  0  0  0  0  0  0  0  0  0  0
    4.2690    2.6550    0.0000 C   0  0  0  0  0  0  0  0  0  0  0  0
    4.2690   -3.3450    0.0000 C   0  0  0  0  0  0  0  0  0  0  0  0
    8.5991    2.1550    0.0000 C   0  0  0  0  0  0  0  0  0  0  0  0
    3.4030   -1.8450    0.0000 C   0  0  0  0  0  0  0  0  0  0  0  0
    7.7331    3.6550    0.0000 C   0  0  0  0  0  0  0  0  0  0  0  0
    6.8671    5.1550    0.0000 C   0  0  2  0  0  0  0  0  0  0  0  0
    4.2690    6.6550    0.0000 C   0  0  0  0  0  0  0  0  0  0  0  0
    4.2690    5.6550    0.0000 C   0  0  1  0  0  0  0  0  0  0  0  0
    3.4030   -3.8450    0.0000 C   0  0  0  0  0  0  0  0  0  0  0  0
    3.4030    7.1550    0.0000 C   0  0  0  0  0  0  0  0  0  0  0  0
    6.0010    5.6550    0.0000 C   0  0  0  0  0  0  0  0  0  0  0  0
    9.4651    2.6550    0.0000 C   0  0  0  0  0  0  0  0  0  0  0  0
    7.7331    5.6550    0.0000 C   0  0  0  0  0  0  0  0  0  0  0  0
    3.4030   -4.8450    0.0000 C   0  0  0  0  0  0  0  0  0  0  0  0
    3.4030    8.1550    0.0000 C   0  0  0  0  0  0  0  0  0  0  0  0
    2.5369    6.6550    0.0000 C   0  0  0  0  0  0  0  0  0  0  0  0
    3.4030    5.1550    0.0000 C   0  0  0  0  0  0  0  0  0  0  0  0
    7.7331    6.6550    0.0000 C   0  0  0  0  0  0  0  0  0  0  0  0
    4.2690   -5.3450    0.0000 C   0  0  0  0  0  0  0  0  0  0  0  0
    2.5369   -5.3450    0.0000 C   0  0  0  0  0  0  0  0  0  0  0  0
   11.1972    2.6550    0.0000 C   0  0  0  0  0  0  0  0  0  0  0  0
   10.3312    1.1550    0.0000 C   0  0  0  0  0  0  0  0  0  0  0  0
    4.2690   -6.3450    0.0000 C   0  0  0  0  0  0  0  0  0  0  0  0
    2.5369   -6.3450    0.0000 C   0  0  0  0  0  0  0  0  0  0  0  0
    3.4030   -6.8450    0.0000 C   0  0  0  0  0  0  0  0  0  0  0  0
    5.1350    0.5350    0.0000 H   0  0  0  0  0  0  0  0  0  0  0  0
    6.5380    0.3450    0.0000 H   0  0  0  0  0  0  0  0  0  0  0  0
    5.1350   -2.4650    0.0000 H   0  0  0  0  0  0  0  0  0  0  0  0
    6.5380   -2.6550    0.0000 H   0  0  0  0  0  0  0  0  0  0  0  0
    5.7456    2.0473    0.0000 H   0  0  0  0  0  0  0  0  0  0  0  0
    5.3471    2.7376    0.0000 H   0  0  0  0  0  0  0  0  0  0  0  0
    6.5380   -0.6550    0.0000 H   0  0  0  0  0  0  0  0  0  0  0  0
    3.9590    1.1919    0.0000 H   0  0  0  0  0  0  0  0  0  0  0  0
    3.7320    0.3450    0.0000 H   0  0  0  0  0  0  0  0  0  0  0  0
    4.5790    0.1181    0.0000 H   0  0  0  0  0  0  0  0  0  0  0  0
    7.7331    2.0350    0.0000 H   0  0  0  0  0  0  0  0  0  0  0  0
    7.1771   -2.3819    0.0000 H   0  0  0  0  0  0  0  0  0  0  0  0
    7.4040   -1.5350    0.0000 H   0  0  0  0  0  0  0  0  0  0  0  0
    6.5571   -1.3081    0.0000 H   0  0  0  0  0  0  0  0  0  0  0  0
    5.3810   -3.3450    0.0000 H   0  0  0  0  0  0  0  0  0  0  0  0
    6.0010   -3.9650    0.0000 H   0  0  0  0  0  0  0  0  0  0  0  0
    6.6210   -3.3450    0.0000 H   0  0  0  0  0  0  0  0  0  0  0  0
    6.3301    2.4650    0.0000 H   0  0  0  0  0  0  0  0  0  0  0  0
    4.5790    3.1919    0.0000 H   0  0  0  0  0  0  0  0  0  0  0  0
    3.7320    2.9650    0.0000 H   0  0  0  0  0  0  0  0  0  0  0  0
    3.9590    2.1181    0.0000 H   0  0  0  0  0  0  0  0  0  0  0  0
    8.2006    1.6800    0.0000 H   0  0  0  0  0  0  0  0  0  0  0  0
    8.9976    1.6800    0.0000 H   0  0  0  0  0  0  0  0  0  0  0  0
    3.7130   -1.3081    0.0000 H   0  0  0  0  0  0  0  0  0  0  0  0
    2.8660   -1.5350    0.0000 H   0  0  0  0  0  0  0  0  0  0  0  0
    3.0930   -2.3819    0.0000 H   0  0  0  0  0  0  0  0  0  0  0  0
    6.3301    4.8450    0.0000 H   0  0  0  0  0  0  0  0  0  0  0  0
    4.8796    6.5473    0.0000 H   0  0  0  0  0  0  0  0  0  0  0  0
    4.4810    7.2376    0.0000 H   0  0  0  0  0  0  0  0  0  0  0  0
    4.2690    5.0350    0.0000 H   0  0  0  0  0  0  0  0  0  0  0  0
    3.4030    6.5350    0.0000 H   0  0  0  0  0  0  0  0  0  0  0  0
    3.1909   -3.2624    0.0000 H   0  0  0  0  0  0  0  0  0  0  0  0
    2.7924   -3.9527    0.0000 H   0  0  0  0  0  0  0  0  0  0  0  0
    6.3301    3.8450    0.0000 H   0  0  0  0  0  0  0  0  0  0  0  0
    5.1350    4.5350    0.0000 H   0  0  0  0  0  0  0  0  0  0  0  0
    7.9451    5.0724    0.0000 H   0  0  0  0  0  0  0  0  0  0  0  0
    8.3437    5.7627    0.0000 H   0  0  0  0  0  0  0  0  0  0  0  0
    4.0230    8.1550    0.0000 H   0  0  0  0  0  0  0  0  0  0  0  0
    3.4030    8.7750    0.0000 H   0  0  0  0  0  0  0  0  0  0  0  0
    2.7830    8.1550    0.0000 H   0  0  0  0  0  0  0  0  0  0  0  0
    2.2269    7.1919    0.0000 H   0  0  0  0  0  0  0  0  0  0  0  0
    2.0000    6.3450    0.0000 H   0  0  0  0  0  0  0  0  0  0  0  0
    2.8469    6.1181    0.0000 H   0  0  0  0  0  0  0  0  0  0  0  0
    4.8059   -5.0350    0.0000 H   0  0  0  0  0  0  0  0  0  0  0  0
    2.0000   -5.0350    0.0000 H   0  0  0  0  0  0  0  0  0  0  0  0
   11.5072    2.1181    0.0000 H   0  0  0  0  0  0  0  0  0  0  0  0
   11.7341    2.9650    0.0000 H   0  0  0  0  0  0  0  0  0  0  0  0
   10.8872    3.1919    0.0000 H   0  0  0  0  0  0  0  0  0  0  0  0
    9.7112    1.1550    0.0000 H   0  0  0  0  0  0  0  0  0  0  0  0
   10.3312    0.5350    0.0000 H   0  0  0  0  0  0  0  0  0  0  0  0
   10.9512    1.1550    0.0000 H   0  0  0  0  0  0  0  0  0  0  0  0
    4.8059   -6.6550    0.0000 H   0  0  0  0  0  0  0  0  0  0  0  0
    2.0000   -6.6550    0.0000 H   0  0  0  0  0  0  0  0  0  0  0  0
    2.0000    5.3450    0.0000 H   0  0  0  0  0  0  0  0  0  0  0  0
    8.5991    7.7750    0.0000 H   0  0  0  0  0  0  0  0  0  0  0  0
    2.8660   -8.1550    0.0000 H   0  0  0  0  0  0  0  0  0  0  0  0
  1 23  2  0  0  0  0
  2 24  2  0  0  0  0
  3 30  2  0  0  0  0
  4 33  2  0  0  0  0
  5 39  2  0  0  0  0
  6 40  2  0  0  0  0
  7 45  1  0  0  0  0
  7107  1  0  0  0  0
  8 45  2  0  0  0  0
  9 46  1  0  0  0  0
  9108  1  0  0  0  0
 10 46  2  0  0  0  0
 11 53  1  0  0  0  0
 11109  1  0  0  0  0
 19 12  1  1  0  0  0
 12 23  1  0  0  0  0
 12 60  1  0  0  0  0
 20 13  1  6  0  0  0
 13 30  1  0  0  0  0
 13 32  1  0  0  0  0
 14 24  1  0  0  0  0
 14 26  1  0  0  0  0
 14 71  1  0  0  0  0
 15 33  1  0  0  0  0
 34 15  1  6  0  0  0
 15 87  1  0  0  0  0
 36 16  1  6  0  0  0
 16 39  1  0  0  0  0
 16 88  1  0  0  0  0
 17 40  1  0  0  0  0
 17 49  1  0  0  0  0
 17 50  1  0  0  0  0
 18 19  1  0  0  0  0
 18 22  1  0  0  0  0
 18 25  1  1  0  0  0
 18 54  1  0  0  0  0
 19 24  1  0  0  0  0
 19 55  1  0  0  0  0
 20 21  1  0  0  0  0
 20 23  1  0  0  0  0
 20 56  1  0  0  0  0
 21 27  1  0  0  0  0
 21 28  1  0  0  0  0
 21 57  1  0  0  0  0
 22 29  1  0  0  0  0
 22 58  1  0  0  0  0
 22 59  1  0  0  0  0
 25 61  1  0  0  0  0
 25 62  1  0  0  0  0
 25 63  1  0  0  0  0
 26 31  1  0  0  0  0
 26 33  1  0  0  0  0
 26 64  1  0  0  0  0
 27 65  1  0  0  0  0
 27 66  1  0  0  0  0
 27 67  1  0  0  0  0
 28 68  1  0  0  0  0
 28 69  1  0  0  0  0
 28 70  1  0  0  0  0
 29 72  1  0  0  0  0
 29 73  1  0  0  0  0
 29 74  1  0  0  0  0
 30 37  1  0  0  0  0
 31 40  1  0  0  0  0
 31 75  1  0  0  0  0
 31 76  1  0  0  0  0
 32 77  1  0  0  0  0
 32 78  1  0  0  0  0
 32 79  1  0  0  0  0
 34 39  1  0  0  0  0
 34 41  1  0  0  0  0
 34 80  1  0  0  0  0
 35 36  1  0  0  0  0
 35 38  1  0  0  0  0
 35 81  1  0  0  0  0
 35 82  1  0  0  0  0
 36 45  1  0  0  0  0
 36 83  1  0  0  0  0
 37 42  1  0  0  0  0
 37 85  1  0  0  0  0
 37 86  1  0  0  0  0
 38 43  1  0  0  0  0
 38 44  1  0  0  0  0
 38 84  1  0  0  0  0
 41 46  1  0  0  0  0
 41 89  1  0  0  0  0
 41 90  1  0  0  0  0
 42 47  2  0  0  0  0
 42 48  1  0  0  0  0
 43 91  1  0  0  0  0
 43 92  1  0  0  0  0
 43 93  1  0  0  0  0
 44 94  1  0  0  0  0
 44 95  1  0  0  0  0
 44 96  1  0  0  0  0
 47 51  1  0  0  0  0
 47 97  1  0  0  0  0
 48 52  2  0  0  0  0
 48 98  1  0  0  0  0
 49 99  1  0  0  0  0
 49100  1  0  0  0  0
 49101  1  0  0  0  0
 50102  1  0  0  0  0
 50103  1  0  0  0  0
 50104  1  0  0  0  0
 51 53  2  0  0  0  0
 51105  1  0  0  0  0
 52 53  1  0  0  0  0
 52106  1  0  0  0  0
M  END
> <PUBCHEM_COMPOUND_CID>
502976
> <PUBCHEM_COMPOUND_CANONICALIZED>
1
> <PUBCHEM_CACTVS_COMPLEXITY>
1300
> <PUBCHEM_CACTVS_HBOND_ACCEPTOR>
11
> <PUBCHEM_CACTVS_HBOND_DONOR>
7
> <PUBCHEM_CACTVS_ROTATABLE_BOND>
21
> <PUBCHEM_CACTVS_SUBSKEYS>
AAADcfB/vAAAAAAAAAAAAAAAAAAAAAAAAAAwAAAAAAAAAAABAAAAHgAQCAAADSzBmAQyDoPAAgCIAiHSGAACAAAgIAAIiIGOCIgKZjqC1TOUcAAm1hGYmAe/yICOIAAAAAAAAABAAAAAAAAAAAAAAAAAAA==
> <PUBCHEM_IUPAC_OPENEYE_NAME>
(2S)-2-[[(2S)-3-carboxy-2-[[4-(dimethylamino)-2-[[(2S,3S)-2-[[(2S)-2-[[2-(4-hydroxyphenyl)acetyl]-methyl-amino]-3-methyl-butanoyl]amino]-3-methyl-pentanoyl]amino]-4-oxo-butanoyl]amino]propanoyl]amino]-4-methyl-pentanoic acid
> <PUBCHEM_IUPAC_CAS_NAME>
(2S)-2-[[(2S)-3-carboxy-2-[[4-(dimethylamino)-2-[[(2S,3S)-2-[[(2S)-2-[[2-(4-hydroxyphenyl)-1-oxoethyl]-methylamino]-3-methyl-1-oxobutyl]amino]-3-methyl-1-oxopentyl]amino]-1,4-dioxobutyl]amino]-1-oxopropyl]amino]-4-methylpentanoic acid
> <PUBCHEM_IUPAC_NAME_MARKUP>
(2<I>S</I>)-2-[[(2<I>S</I>)-3-carboxy-2-[[4-(dimethylamino)-2-[[(2<I>S</I>,3<I>S</I>)-2-[[(2<I>S</I>)-2-[[2-(4-hydroxyphenyl)acetyl]-methylamino]-3-methylbutanoyl]amino]-3-methylpentanoyl]amino]-4-oxobutanoyl]amino]propanoyl]amino]-4-methylpentanoic acid
> <PUBCHEM_IUPAC_NAME>
(2S)-2-[[(2S)-3-carboxy-2-[[4-(dimethylamino)-2-[[(2S,3S)-2-[[(2S)-2-[[2-(4-hydroxyphenyl)acetyl]-methylamino]-3-methylbutanoyl]amino]-3-methylpentanoyl]amino]-4-oxobutanoyl]amino]propanoyl]amino]-4-methylpentanoic acid
> <PUBCHEM_IUPAC_SYSTEMATIC_NAME>
(2S)-2-[[(2S)-2-[[4-(dimethylamino)-2-[[(2S,3S)-2-[[(2S)-2-[2-(4-hydroxyphenyl)ethanoyl-methyl-amino]-3-methyl-butanoyl]amino]-3-methyl-pentanoyl]amino]-4-oxidanylidene-butanoyl]amino]-4-oxidanyl-4-oxidanylidene-butanoyl]amino]-4-methyl-pentanoic acid
> <PUBCHEM_IUPAC_TRADITIONAL_NAME>
(2S)-2-[[(2S)-3-carboxy-2-[[4-(dimethylamino)-2-[[(2S,3S)-2-[[(2S)-2-[[2-(4-hydroxyphenyl)acetyl]-methyl-amino]-3-methyl-butanoyl]amino]-3-methyl-pentanoyl]amino]-4-keto-butanoyl]amino]propanoyl]amino]-4-methyl-valeric acid
> <PUBCHEM_IUPAC_INCHI>
InChI=1S/C36H56N6O11/c1-10-21(6)30(40-35(51)31(20(4)5)42(9)28(45)16-22-11-13-23(43)14-12-22)34(50)38-24(17-27(44)41(7)8)32(48)37-25(18-29(46)47)33(49)39-26(36(52)53)15-19(2)3/h11-14,19-21,24-26,30-31,43H,10,15-18H2,1-9H3,(H,37,48)(H,38,50)(H,39,49)(H,40,51)(H,46,47)(H,52,53)/t21-,24?,25-,26-,30-,31-/m0/s1
> <PUBCHEM_IUPAC_INCHIKEY>
WZAWSAUDEANNRD-KBRAIHPPSA-N
> <PUBCHEM_XLOGP3_AA>
1.7
> <PUBCHEM_EXACT_MASS>
748.40070662
> <PUBCHEM_MOLECULAR_FORMULA>
C36H56N6O11
> <PUBCHEM_MOLECULAR_WEIGHT>
748.9
> <PUBCHEM_OPENEYE_CAN_SMILES>
CCC(C)C(C(=O)NC(CC(=O)N(C)C)C(=O)NC(CC(=O)O)C(=O)NC(CC(C)C)C(=O)O)NC(=O)C(C(C)C)N(C)C(=O)CC1=CC=C(C=C1)O
> <PUBCHEM_OPENEYE_ISO_SMILES>
CC[C@H](C)[C@@H](C(=O)NC(CC(=O)N(C)C)C(=O)N[C@@H](CC(=O)O)C(=O)N[C@@H](CC(C)C)C(=O)O)NC(=O)[C@H](C(C)C)N(C)C(=O)CC1=CC=C(C=C1)O
> <PUBCHEM_CACTVS_TPSA>
252
> <PUBCHEM_MONOISOTOPIC_WEIGHT>
748.40070662
> <PUBCHEM_TOTAL_CHARGE>
0
> <PUBCHEM_HEAVY_ATOM_COUNT>
53
> <PUBCHEM_ATOM_DEF_STEREO_COUNT>
5
> <PUBCHEM_ATOM_UDEF_STEREO_COUNT>
1
> <PUBCHEM_BOND_DEF_STEREO_COUNT>
0
> <PUBCHEM_BOND_UDEF_STEREO_COUNT>
0
> <PUBCHEM_ISOTOPIC_ATOM_COUNT>
0
> <PUBCHEM_COMPONENT_COUNT>
1
> <PUBCHEM_CACTVS_TAUTO_COUNT>
-1
> <PUBCHEM_COORDINATE_TYPE>
1
5
255
> <PUBCHEM_BONDANNOTATIONS>
19  12  5
20  13  6
34  15  6
36  16  6
18  25  5
26  31  3
42  47  8
42  48  8
47  51  8
48  52  8
51  53  8
52  53  8
$$$$
