502973
  -OEChem-10302200282D
121122  0     1  0  0  0  0  0999 V2000
    4.2690   -0.3450    0.0000 O   0  0  0  0  0  0  0  0  0  0  0  0
    7.7331    0.6550    0.0000 O   0  0  0  0  0  0  0  0  0  0  0  0
    5.1350   -3.8450    0.0000 O   0  0  0  0  0  0  0  0  0  0  0  0
    8.5991    4.1550    0.0000 O   0  0  0  0  0  0  0  0  0  0  0  0
   10.3312    2.1550    0.0000 O   0  0  0  0  0  0  0  0  0  0  0  0
    6.0010    6.6550    0.0000 O   0  0  0  0  0  0  0  0  0  0  0  0
    9.4651    3.6550    0.0000 O   0  0  0  0  0  0  0  0  0  0  0  0
    2.5369    5.6550    0.0000 O   0  0  0  0  0  0  0  0  0  0  0  0
    3.4030    4.1550    0.0000 O   0  0  0  0  0  0  0  0  0  0  0  0
    8.5991    7.1550    0.0000 O   0  0  0  0  0  0  0  0  0  0  0  0
    6.8671    7.1550    0.0000 O   0  0  0  0  0  0  0  0  0  0  0  0
    3.4030   -7.8450    0.0000 O   0  0  0  0  0  0  0  0  0  0  0  0
    6.0010   -0.3450    0.0000 N   0  0  0  0  0  0  0  0  0  0  0  0
    4.2690   -2.3450    0.0000 N   0  0  0  0  0  0  0  0  0  0  0  0
    6.8671    2.1550    0.0000 N   0  0  0  0  0  0  0  0  0  0  0  0
    6.8671    4.1550    0.0000 N   0  0  0  0  0  0  0  0  0  0  0  0
    5.1350    5.1550    0.0000 N   0  0  0  0  0  0  0  0  0  0  0  0
    5.1350    1.1550    0.0000 C   0  0  2  0  0  0  0  0  0  0  0  0
    6.0010    0.6550    0.0000 C   0  0  1  0  0  0  0  0  0  0  0  0
    5.1350   -1.8450    0.0000 C   0  0  1  0  0  0  0  0  0  0  0  0
    6.0010   -2.3450    0.0000 C   0  0  0  0  0  0  0  0  0  0  0  0
    5.1350    2.1550    0.0000 C   0  0  0  0  0  0  0  0  0  0  0  0
    5.1350   -0.8450    0.0000 C   0  0  0  0  0  0  0  0  0  0  0  0
    6.8671    1.1550    0.0000 C   0  0  0  0  0  0  0  0  0  0  0  0
    4.2690    0.6550    0.0000 C   0  0  0  0  0  0  0  0  0  0  0  0
    6.8671   -1.8450    0.0000 C   0  0  0  0  0  0  0  0  0  0  0  0
    6.0010   -3.3450    0.0000 C   0  0  0  0  0  0  0  0  0  0  0  0
    7.7331    2.6550    0.0000 C   0  0  3  0  0  0  0  0  0  0  0  0
    4.2690    2.6550    0.0000 C   0  0  0  0  0  0  0  0  0  0  0  0
    4.2690   -3.3450    0.0000 C   0  0  0  0  0  0  0  0  0  0  0  0
    3.4030   -1.8450    0.0000 C   0  0  0  0  0  0  0  0  0  0  0  0
    8.5991    2.1550    0.0000 C   0  0  0  0  0  0  0  0  0  0  0  0
    7.7331    3.6550    0.0000 C   0  0  0  0  0  0  0  0  0  0  0  0
    6.8671    5.1550    0.0000 C   0  0  2  0  0  0  0  0  0  0  0  0
    3.4030   -3.8450    0.0000 C   0  0  0  0  0  0  0  0  0  0  0  0
    4.2690    6.6550    0.0000 C   0  0  0  0  0  0  0  0  0  0  0  0
    4.2690    5.6550    0.0000 C   0  0  1  0  0  0  0  0  0  0  0  0
    3.4030    7.1550    0.0000 C   0  0  0  0  0  0  0  0  0  0  0  0
    6.0010    5.6550    0.0000 C   0  0  0  0  0  0  0  0  0  0  0  0
    7.7331    5.6550    0.0000 C   0  0  0  0  0  0  0  0  0  0  0  0
    9.4651    2.6550    0.0000 C   0  0  0  0  0  0  0  0  0  0  0  0
    3.4030   -4.8450    0.0000 C   0  0  0  0  0  0  0  0  0  0  0  0
    3.4030    8.1550    0.0000 C   0  0  0  0  0  0  0  0  0  0  0  0
    2.5369    6.6550    0.0000 C   0  0  0  0  0  0  0  0  0  0  0  0
    3.4030    5.1550    0.0000 C   0  0  0  0  0  0  0  0  0  0  0  0
    4.2690   -5.3450    0.0000 C   0  0  0  0  0  0  0  0  0  0  0  0
    2.5369   -5.3450    0.0000 C   0  0  0  0  0  0  0  0  0  0  0  0
    7.7331    6.6550    0.0000 C   0  0  0  0  0  0  0  0  0  0  0  0
   11.1972    2.6550    0.0000 C   0  0  0  0  0  0  0  0  0  0  0  0
   12.0632    2.1550    0.0000 C   0  0  0  0  0  0  0  0  0  0  0  0
    4.2690   -6.3450    0.0000 C   0  0  0  0  0  0  0  0  0  0  0  0
    2.5369   -6.3450    0.0000 C   0  0  0  0  0  0  0  0  0  0  0  0
    3.4030   -6.8450    0.0000 C   0  0  0  0  0  0  0  0  0  0  0  0
   12.9292    2.6550    0.0000 C   0  0  0  0  0  0  0  0  0  0  0  0
   13.7953    2.1550    0.0000 C   0  0  0  0  0  0  0  0  0  0  0  0
   14.6613    2.6550    0.0000 C   0  0  0  0  0  0  0  0  0  0  0  0
   13.7953    1.1550    0.0000 C   0  0  0  0  0  0  0  0  0  0  0  0
   15.5273    2.1550    0.0000 C   0  0  0  0  0  0  0  0  0  0  0  0
   14.6613    0.6550    0.0000 C   0  0  0  0  0  0  0  0  0  0  0  0
   15.5273    1.1550    0.0000 C   0  0  0  0  0  0  0  0  0  0  0  0
    5.1350    0.5350    0.0000 H   0  0  0  0  0  0  0  0  0  0  0  0
    6.5380    0.3450    0.0000 H   0  0  0  0  0  0  0  0  0  0  0  0
    5.1350   -2.4650    0.0000 H   0  0  0  0  0  0  0  0  0  0  0  0
    6.5380   -2.6550    0.0000 H   0  0  0  0  0  0  0  0  0  0  0  0
    5.7456    2.0473    0.0000 H   0  0  0  0  0  0  0  0  0  0  0  0
    5.3471    2.7376    0.0000 H   0  0  0  0  0  0  0  0  0  0  0  0
    6.5380   -0.6550    0.0000 H   0  0  0  0  0  0  0  0  0  0  0  0
    3.9590    1.1919    0.0000 H   0  0  0  0  0  0  0  0  0  0  0  0
    3.7320    0.3450    0.0000 H   0  0  0  0  0  0  0  0  0  0  0  0
    4.5790    0.1181    0.0000 H   0  0  0  0  0  0  0  0  0  0  0  0
    7.1771   -2.3819    0.0000 H   0  0  0  0  0  0  0  0  0  0  0  0
    7.4040   -1.5350    0.0000 H   0  0  0  0  0  0  0  0  0  0  0  0
    6.5571   -1.3081    0.0000 H   0  0  0  0  0  0  0  0  0  0  0  0
    5.3810   -3.3450    0.0000 H   0  0  0  0  0  0  0  0  0  0  0  0
    6.0010   -3.9650    0.0000 H   0  0  0  0  0  0  0  0  0  0  0  0
    6.6210   -3.3450    0.0000 H   0  0  0  0  0  0  0  0  0  0  0  0
    7.7331    2.0350    0.0000 H   0  0  0  0  0  0  0  0  0  0  0  0
    6.3301    2.4650    0.0000 H   0  0  0  0  0  0  0  0  0  0  0  0
    4.5790    3.1919    0.0000 H   0  0  0  0  0  0  0  0  0  0  0  0
    3.7320    2.9650    0.0000 H   0  0  0  0  0  0  0  0  0  0  0  0
    3.9590    2.1181    0.0000 H   0  0  0  0  0  0  0  0  0  0  0  0
    3.7130   -1.3081    0.0000 H   0  0  0  0  0  0  0  0  0  0  0  0
    2.8660   -1.5350    0.0000 H   0  0  0  0  0  0  0  0  0  0  0  0
    3.0930   -2.3819    0.0000 H   0  0  0  0  0  0  0  0  0  0  0  0
    8.2006    1.6800    0.0000 H   0  0  0  0  0  0  0  0  0  0  0  0
    8.9976    1.6800    0.0000 H   0  0  0  0  0  0  0  0  0  0  0  0
    6.3301    4.8450    0.0000 H   0  0  0  0  0  0  0  0  0  0  0  0
    3.1909   -3.2624    0.0000 H   0  0  0  0  0  0  0  0  0  0  0  0
    2.7924   -3.9527    0.0000 H   0  0  0  0  0  0  0  0  0  0  0  0
    4.8796    6.5473    0.0000 H   0  0  0  0  0  0  0  0  0  0  0  0
    4.4810    7.2376    0.0000 H   0  0  0  0  0  0  0  0  0  0  0  0
    4.2690    5.0350    0.0000 H   0  0  0  0  0  0  0  0  0  0  0  0
    6.3301    3.8450    0.0000 H   0  0  0  0  0  0  0  0  0  0  0  0
    3.4030    6.5350    0.0000 H   0  0  0  0  0  0  0  0  0  0  0  0
    5.1350    4.5350    0.0000 H   0  0  0  0  0  0  0  0  0  0  0  0
    7.9451    5.0724    0.0000 H   0  0  0  0  0  0  0  0  0  0  0  0
    8.3437    5.7627    0.0000 H   0  0  0  0  0  0  0  0  0  0  0  0
    4.0230    8.1550    0.0000 H   0  0  0  0  0  0  0  0  0  0  0  0
    3.4030    8.7750    0.0000 H   0  0  0  0  0  0  0  0  0  0  0  0
    2.7830    8.1550    0.0000 H   0  0  0  0  0  0  0  0  0  0  0  0
    2.2269    7.1919    0.0000 H   0  0  0  0  0  0  0  0  0  0  0  0
    2.0000    6.3450    0.0000 H   0  0  0  0  0  0  0  0  0  0  0  0
    2.8469    6.1181    0.0000 H   0  0  0  0  0  0  0  0  0  0  0  0
    4.8059   -5.0350    0.0000 H   0  0  0  0  0  0  0  0  0  0  0  0
    2.0000   -5.0350    0.0000 H   0  0  0  0  0  0  0  0  0  0  0  0
   11.5957    3.1300    0.0000 H   0  0  0  0  0  0  0  0  0  0  0  0
   10.7987    3.1300    0.0000 H   0  0  0  0  0  0  0  0  0  0  0  0
   11.6647    1.6800    0.0000 H   0  0  0  0  0  0  0  0  0  0  0  0
   12.4617    1.6800    0.0000 H   0  0  0  0  0  0  0  0  0  0  0  0
    4.8059   -6.6550    0.0000 H   0  0  0  0  0  0  0  0  0  0  0  0
    2.0000   -6.6550    0.0000 H   0  0  0  0  0  0  0  0  0  0  0  0
   13.3278    3.1300    0.0000 H   0  0  0  0  0  0  0  0  0  0  0  0
   12.5307    3.1300    0.0000 H   0  0  0  0  0  0  0  0  0  0  0  0
    2.0000    5.3450    0.0000 H   0  0  0  0  0  0  0  0  0  0  0  0
    8.5991    7.7750    0.0000 H   0  0  0  0  0  0  0  0  0  0  0  0
    2.8660   -8.1550    0.0000 H   0  0  0  0  0  0  0  0  0  0  0  0
   14.6613    3.2750    0.0000 H   0  0  0  0  0  0  0  0  0  0  0  0
   13.2583    0.8450    0.0000 H   0  0  0  0  0  0  0  0  0  0  0  0
   16.0643    2.4650    0.0000 H   0  0  0  0  0  0  0  0  0  0  0  0
   14.6613    0.0350    0.0000 H   0  0  0  0  0  0  0  0  0  0  0  0
   16.0643    0.8450    0.0000 H   0  0  0  0  0  0  0  0  0  0  0  0
  1 23  2  0  0  0  0
  2 24  2  0  0  0  0
  3 30  2  0  0  0  0
  4 33  2  0  0  0  0
  5 41  1  0  0  0  0
  5 49  1  0  0  0  0
  6 39  2  0  0  0  0
  7 41  2  0  0  0  0
  8 45  1  0  0  0  0
  8114  1  0  0  0  0
  9 45  2  0  0  0  0
 10 48  1  0  0  0  0
 10115  1  0  0  0  0
 11 48  2  0  0  0  0
 12 53  1  0  0  0  0
 12116  1  0  0  0  0
 19 13  1  1  0  0  0
 13 23  1  0  0  0  0
 13 67  1  0  0  0  0
 20 14  1  6  0  0  0
 14 30  1  0  0  0  0
 14 31  1  0  0  0  0
 15 24  1  0  0  0  0
 15 28  1  0  0  0  0
 15 78  1  0  0  0  0
 16 33  1  0  0  0  0
 34 16  1  6  0  0  0
 16 93  1  0  0  0  0
 37 17  1  6  0  0  0
 17 39  1  0  0  0  0
 17 95  1  0  0  0  0
 18 19  1  0  0  0  0
 18 22  1  0  0  0  0
 18 25  1  1  0  0  0
 18 61  1  0  0  0  0
 19 24  1  0  0  0  0
 19 62  1  0  0  0  0
 20 21  1  0  0  0  0
 20 23  1  0  0  0  0
 20 63  1  0  0  0  0
 21 26  1  0  0  0  0
 21 27  1  0  0  0  0
 21 64  1  0  0  0  0
 22 29  1  0  0  0  0
 22 65  1  0  0  0  0
 22 66  1  0  0  0  0
 25 68  1  0  0  0  0
 25 69  1  0  0  0  0
 25 70  1  0  0  0  0
 26 71  1  0  0  0  0
 26 72  1  0  0  0  0
 26 73  1  0  0  0  0
 27 74  1  0  0  0  0
 27 75  1  0  0  0  0
 27 76  1  0  0  0  0
 28 32  1  0  0  0  0
 28 33  1  0  0  0  0
 28 77  1  0  0  0  0
 29 79  1  0  0  0  0
 29 80  1  0  0  0  0
 29 81  1  0  0  0  0
 30 35  1  0  0  0  0
 31 82  1  0  0  0  0
 31 83  1  0  0  0  0
 31 84  1  0  0  0  0
 32 41  1  0  0  0  0
 32 85  1  0  0  0  0
 32 86  1  0  0  0  0
 34 39  1  0  0  0  0
 34 40  1  0  0  0  0
 34 87  1  0  0  0  0
 35 42  1  0  0  0  0
 35 88  1  0  0  0  0
 35 89  1  0  0  0  0
 36 37  1  0  0  0  0
 36 38  1  0  0  0  0
 36 90  1  0  0  0  0
 36 91  1  0  0  0  0
 37 45  1  0  0  0  0
 37 92  1  0  0  0  0
 38 43  1  0  0  0  0
 38 44  1  0  0  0  0
 38 94  1  0  0  0  0
 40 48  1  0  0  0  0
 40 96  1  0  0  0  0
 40 97  1  0  0  0  0
 42 46  2  0  0  0  0
 42 47  1  0  0  0  0
 43 98  1  0  0  0  0
 43 99  1  0  0  0  0
 43100  1  0  0  0  0
 44101  1  0  0  0  0
 44102  1  0  0  0  0
 44103  1  0  0  0  0
 46 51  1  0  0  0  0
 46104  1  0  0  0  0
 47 52  2  0  0  0  0
 47105  1  0  0  0  0
 49 50  1  0  0  0  0
 49106  1  0  0  0  0
 49107  1  0  0  0  0
 50 54  1  0  0  0  0
 50108  1  0  0  0  0
 50109  1  0  0  0  0
 51 53  2  0  0  0  0
 51110  1  0  0  0  0
 52 53  1  0  0  0  0
 52111  1  0  0  0  0
 54 55  1  0  0  0  0
 54112  1  0  0  0  0
 54113  1  0  0  0  0
 55 56  2  0  0  0  0
 55 57  1  0  0  0  0
 56 58  1  0  0  0  0
 56117  1  0  0  0  0
 57 59  2  0  0  0  0
 57118  1  0  0  0  0
 58 60  2  0  0  0  0
 58119  1  0  0  0  0
 59 60  1  0  0  0  0
 59120  1  0  0  0  0
 60121  1  0  0  0  0
M  END
> <PUBCHEM_COMPOUND_CID>
502973
> <PUBCHEM_COMPOUND_CANONICALIZED>
1
> <PUBCHEM_CACTVS_COMPLEXITY>
1440
> <PUBCHEM_CACTVS_HBOND_ACCEPTOR>
12
> <PUBCHEM_CACTVS_HBOND_DONOR>
7
> <PUBCHEM_CACTVS_ROTATABLE_BOND>
26
> <PUBCHEM_CACTVS_SUBSKEYS>
AAADcfB/vAAAAAAAAAAAAAAAAAAAAAAAAAAwYAAAAAAAAAABQAAAHgAQCAAADSzhmAYyDoPABgCIAiHSGAACAAAgIAAIiIGOCIgKZjqClTOWcAAm1hGYmAe/yKCOIAAAAAAAAABAAAAAAAAAAAAAAAAAAA==
> <PUBCHEM_IUPAC_OPENEYE_NAME>
(2S)-2-[[(2S)-3-carboxy-2-[[2-[[(2S,3S)-2-[[(2S)-2-[[2-(4-hydroxyphenyl)acetyl]-methyl-amino]-3-methyl-butanoyl]amino]-3-methyl-pentanoyl]amino]-4-oxo-4-(3-phenylpropoxy)butanoyl]amino]propanoyl]amino]-4-methyl-pentanoic acid
> <PUBCHEM_IUPAC_CAS_NAME>
(2S)-2-[[(2S)-3-carboxy-2-[[2-[[(2S,3S)-2-[[(2S)-2-[[2-(4-hydroxyphenyl)-1-oxoethyl]-methylamino]-3-methyl-1-oxobutyl]amino]-3-methyl-1-oxopentyl]amino]-1,4-dioxo-4-(3-phenylpropoxy)butyl]amino]-1-oxopropyl]amino]-4-methylpentanoic acid
> <PUBCHEM_IUPAC_NAME_MARKUP>
(2<I>S</I>)-2-[[(2<I>S</I>)-3-carboxy-2-[[2-[[(2<I>S</I>,3<I>S</I>)-2-[[(2<I>S</I>)-2-[[2-(4-hydroxyphenyl)acetyl]-methylamino]-3-methylbutanoyl]amino]-3-methylpentanoyl]amino]-4-oxo-4-(3-phenylpropoxy)butanoyl]amino]propanoyl]amino]-4-methylpentanoic acid
> <PUBCHEM_IUPAC_NAME>
(2S)-2-[[(2S)-3-carboxy-2-[[2-[[(2S,3S)-2-[[(2S)-2-[[2-(4-hydroxyphenyl)acetyl]-methylamino]-3-methylbutanoyl]amino]-3-methylpentanoyl]amino]-4-oxo-4-(3-phenylpropoxy)butanoyl]amino]propanoyl]amino]-4-methylpentanoic acid
> <PUBCHEM_IUPAC_SYSTEMATIC_NAME>
(2S)-2-[[(2S)-2-[[2-[[(2S,3S)-2-[[(2S)-2-[2-(4-hydroxyphenyl)ethanoyl-methyl-amino]-3-methyl-butanoyl]amino]-3-methyl-pentanoyl]amino]-4-oxidanylidene-4-(3-phenylpropoxy)butanoyl]amino]-4-oxidanyl-4-oxidanylidene-butanoyl]amino]-4-methyl-pentanoic acid
> <PUBCHEM_IUPAC_TRADITIONAL_NAME>
(2S)-2-[[(2S)-3-carboxy-2-[[2-[[(2S,3S)-2-[[(2S)-2-[[2-(4-hydroxyphenyl)acetyl]-methyl-amino]-3-methyl-butanoyl]amino]-3-methyl-pentanoyl]amino]-4-keto-4-(3-phenylpropoxy)butanoyl]amino]propanoyl]amino]-4-methyl-valeric acid
> <PUBCHEM_IUPAC_INCHI>
InChI=1S/C43H61N5O12/c1-8-27(6)37(47-42(57)38(26(4)5)48(7)34(50)22-29-16-18-30(49)19-17-29)41(56)45-32(24-36(53)60-20-12-15-28-13-10-9-11-14-28)40(55)44-31(23-35(51)52)39(54)46-33(43(58)59)21-25(2)3/h9-11,13-14,16-19,25-27,31-33,37-38,49H,8,12,15,20-24H2,1-7H3,(H,44,55)(H,45,56)(H,46,54)(H,47,57)(H,51,52)(H,58,59)/t27-,31-,32?,33-,37-,38-/m0/s1
> <PUBCHEM_IUPAC_INCHIKEY>
ZSHUZWCAQXCAOA-YXSZOSKGSA-N
> <PUBCHEM_XLOGP3_AA>
4.5
> <PUBCHEM_EXACT_MASS>
839.43167240
> <PUBCHEM_MOLECULAR_FORMULA>
C43H61N5O12
> <PUBCHEM_MOLECULAR_WEIGHT>
840.0
> <PUBCHEM_OPENEYE_CAN_SMILES>
CCC(C)C(C(=O)NC(CC(=O)OCCCC1=CC=CC=C1)C(=O)NC(CC(=O)O)C(=O)NC(CC(C)C)C(=O)O)NC(=O)C(C(C)C)N(C)C(=O)CC2=CC=C(C=C2)O
> <PUBCHEM_OPENEYE_ISO_SMILES>
CC[C@H](C)[C@@H](C(=O)NC(CC(=O)OCCCC1=CC=CC=C1)C(=O)N[C@@H](CC(=O)O)C(=O)N[C@@H](CC(C)C)C(=O)O)NC(=O)[C@H](C(C)C)N(C)C(=O)CC2=CC=C(C=C2)O
> <PUBCHEM_CACTVS_TPSA>
258
> <PUBCHEM_MONOISOTOPIC_WEIGHT>
839.43167240
> <PUBCHEM_TOTAL_CHARGE>
0
> <PUBCHEM_HEAVY_ATOM_COUNT>
60
> <PUBCHEM_ATOM_DEF_STEREO_COUNT>
5
> <PUBCHEM_ATOM_UDEF_STEREO_COUNT>
1
> <PUBCHEM_BOND_DEF_STEREO_COUNT>
0
> <PUBCHEM_BOND_UDEF_STEREO_COUNT>
0
> <PUBCHEM_ISOTOPIC_ATOM_COUNT>
0
> <PUBCHEM_COMPONENT_COUNT>
1
> <PUBCHEM_CACTVS_TAUTO_COUNT>
-1
> <PUBCHEM_COORDINATE_TYPE>
1
5
255
> <PUBCHEM_BONDANNOTATIONS>
19  13  5
20  14  6
34  16  6
37  17  6
18  25  5
28  32  3
42  46  8
42  47  8
46  51  8
47  52  8
51  53  8
52  53  8
55  56  8
55  57  8
56  58  8
57  59  8
58  60  8
59  60  8
$$$$
