502967
  -OEChem-10302200282D
111111  0     1  0  0  0  0  0999 V2000
    6.3301   -0.9050    0.0000 O   0  0  0  0  0  0  0  0  0  0  0  0
    5.4641    2.5950    0.0000 O   0  0  0  0  0  0  0  0  0  0  0  0
    2.8660   -1.9050    0.0000 O   0  0  0  0  0  0  0  0  0  0  0  0
    8.0622    5.0950    0.0000 O   0  0  0  0  0  0  0  0  0  0  0  0
   11.5263    4.0950    0.0000 O   0  0  0  0  0  0  0  0  0  0  0  0
    7.1962    5.5950    0.0000 O   0  0  0  0  0  0  0  0  0  0  0  0
   12.3923    0.5950    0.0000 O   0  0  0  0  0  0  0  0  0  0  0  0
   10.6603    0.5950    0.0000 O   0  0  0  0  0  0  0  0  0  0  0  0
   10.6603    6.5950    0.0000 O   0  0  0  0  0  0  0  0  0  0  0  0
   11.5263    5.0950    0.0000 O   0  0  0  0  0  0  0  0  0  0  0  0
    5.4641    0.5950    0.0000 N   0  0  0  0  0  0  0  0  0  0  0  0
    4.5981   -1.9050    0.0000 N   0  0  0  0  0  0  0  0  0  0  0  0
    7.1962    2.5950    0.0000 N   0  0  0  0  0  0  0  0  0  0  0  0
    8.9282    3.5950    0.0000 N   0  0  0  0  0  0  0  0  0  0  0  0
   10.6603    2.5950    0.0000 N   0  0  0  0  0  0  0  0  0  0  0  0
    5.4641    5.5950    0.0000 N   0  0  0  0  0  0  0  0  0  0  0  0
    6.3301    1.0950    0.0000 C   0  0  1  0  0  0  0  0  0  0  0  0
    7.1962    0.5950    0.0000 C   0  0  2  0  0  0  0  0  0  0  0  0
    4.5981   -0.9050    0.0000 C   0  0  1  0  0  0  0  0  0  0  0  0
    3.7320   -0.4050    0.0000 C   0  0  0  0  0  0  0  0  0  0  0  0
    8.0622    1.0950    0.0000 C   0  0  0  0  0  0  0  0  0  0  0  0
    5.4641   -0.4050    0.0000 C   0  0  0  0  0  0  0  0  0  0  0  0
    6.3301    2.0950    0.0000 C   0  0  0  0  0  0  0  0  0  0  0  0
    7.1962   -0.4050    0.0000 C   0  0  0  0  0  0  0  0  0  0  0  0
    7.1962    3.5950    0.0000 C   0  0  3  0  0  0  0  0  0  0  0  0
    3.7320    0.5950    0.0000 C   0  0  0  0  0  0  0  0  0  0  0  0
    2.8660   -0.9050    0.0000 C   0  0  0  0  0  0  0  0  0  0  0  0
    8.9282    0.5950    0.0000 C   0  0  0  0  0  0  0  0  0  0  0  0
    3.7320   -2.4050    0.0000 C   0  0  0  0  0  0  0  0  0  0  0  0
    5.4641   -2.4050    0.0000 C   0  0  0  0  0  0  0  0  0  0  0  0
    6.3301    4.0950    0.0000 C   0  0  0  0  0  0  0  0  0  0  0  0
    8.0622    4.0950    0.0000 C   0  0  0  0  0  0  0  0  0  0  0  0
    3.7320   -3.4050    0.0000 C   0  0  0  0  0  0  0  0  0  0  0  0
    9.7942    4.0950    0.0000 C   0  0  2  0  0  0  0  0  0  0  0  0
   12.3923    2.5950    0.0000 C   0  0  0  0  0  0  0  0  0  0  0  0
   11.5263    2.0950    0.0000 C   0  0  1  0  0  0  0  0  0  0  0  0
   13.2583    2.0950    0.0000 C   0  0  0  0  0  0  0  0  0  0  0  0
    2.8660   -3.9050    0.0000 C   0  0  0  0  0  0  0  0  0  0  0  0
   10.6603    3.5950    0.0000 C   0  0  0  0  0  0  0  0  0  0  0  0
    6.3301    5.0950    0.0000 C   0  0  0  0  0  0  0  0  0  0  0  0
    9.7942    5.0950    0.0000 C   0  0  0  0  0  0  0  0  0  0  0  0
   14.1244    2.5950    0.0000 C   0  0  0  0  0  0  0  0  0  0  0  0
   13.2583    1.0950    0.0000 C   0  0  0  0  0  0  0  0  0  0  0  0
    2.8660   -4.9050    0.0000 C   0  0  0  0  0  0  0  0  0  0  0  0
   11.5263    1.0950    0.0000 C   0  0  0  0  0  0  0  0  0  0  0  0
   10.6603    5.5950    0.0000 C   0  0  0  0  0  0  0  0  0  0  0  0
    3.7320   -5.4050    0.0000 C   0  0  0  0  0  0  0  0  0  0  0  0
    2.0000   -5.4050    0.0000 C   0  0  0  0  0  0  0  0  0  0  0  0
    5.4641    6.5950    0.0000 C   0  0  0  0  0  0  0  0  0  0  0  0
    4.5981    5.0950    0.0000 C   0  0  0  0  0  0  0  0  0  0  0  0
    3.7320   -6.4050    0.0000 C   0  0  0  0  0  0  0  0  0  0  0  0
    2.0000   -6.4050    0.0000 C   0  0  0  0  0  0  0  0  0  0  0  0
    2.8660   -6.9050    0.0000 C   0  0  0  0  0  0  0  0  0  0  0  0
    5.7932    1.4050    0.0000 H   0  0  0  0  0  0  0  0  0  0  0  0
    6.6592    0.2850    0.0000 H   0  0  0  0  0  0  0  0  0  0  0  0
    5.1350   -1.2150    0.0000 H   0  0  0  0  0  0  0  0  0  0  0  0
    3.7320   -1.0250    0.0000 H   0  0  0  0  0  0  0  0  0  0  0  0
    8.4607    1.5700    0.0000 H   0  0  0  0  0  0  0  0  0  0  0  0
    7.6636    1.5700    0.0000 H   0  0  0  0  0  0  0  0  0  0  0  0
    4.9272    0.9050    0.0000 H   0  0  0  0  0  0  0  0  0  0  0  0
    6.5762   -0.4050    0.0000 H   0  0  0  0  0  0  0  0  0  0  0  0
    7.1962   -1.0250    0.0000 H   0  0  0  0  0  0  0  0  0  0  0  0
    7.8162   -0.4050    0.0000 H   0  0  0  0  0  0  0  0  0  0  0  0
    6.6592    3.2850    0.0000 H   0  0  0  0  0  0  0  0  0  0  0  0
    4.3520    0.5950    0.0000 H   0  0  0  0  0  0  0  0  0  0  0  0
    3.7320    1.2150    0.0000 H   0  0  0  0  0  0  0  0  0  0  0  0
    3.1120    0.5950    0.0000 H   0  0  0  0  0  0  0  0  0  0  0  0
    2.5560   -0.3681    0.0000 H   0  0  0  0  0  0  0  0  0  0  0  0
    2.3291   -1.2150    0.0000 H   0  0  0  0  0  0  0  0  0  0  0  0
    3.1760   -1.4419    0.0000 H   0  0  0  0  0  0  0  0  0  0  0  0
    7.7331    2.2850    0.0000 H   0  0  0  0  0  0  0  0  0  0  0  0
    8.6182    0.0581    0.0000 H   0  0  0  0  0  0  0  0  0  0  0  0
    9.4651    0.2850    0.0000 H   0  0  0  0  0  0  0  0  0  0  0  0
    9.2382    1.1319    0.0000 H   0  0  0  0  0  0  0  0  0  0  0  0
    5.1541   -2.9419    0.0000 H   0  0  0  0  0  0  0  0  0  0  0  0
    6.0010   -2.7150    0.0000 H   0  0  0  0  0  0  0  0  0  0  0  0
    5.7741   -1.8681    0.0000 H   0  0  0  0  0  0  0  0  0  0  0  0
    5.7196    4.2027    0.0000 H   0  0  0  0  0  0  0  0  0  0  0  0
    6.1181    3.5124    0.0000 H   0  0  0  0  0  0  0  0  0  0  0  0
    3.9441   -3.9876    0.0000 H   0  0  0  0  0  0  0  0  0  0  0  0
    4.3426   -3.2973    0.0000 H   0  0  0  0  0  0  0  0  0  0  0  0
    9.7942    3.4750    0.0000 H   0  0  0  0  0  0  0  0  0  0  0  0
   12.7908    3.0700    0.0000 H   0  0  0  0  0  0  0  0  0  0  0  0
   11.9938    3.0700    0.0000 H   0  0  0  0  0  0  0  0  0  0  0  0
   10.9893    1.7850    0.0000 H   0  0  0  0  0  0  0  0  0  0  0  0
   13.7953    1.7850    0.0000 H   0  0  0  0  0  0  0  0  0  0  0  0
    8.9282    2.9750    0.0000 H   0  0  0  0  0  0  0  0  0  0  0  0
    2.6540   -3.3224    0.0000 H   0  0  0  0  0  0  0  0  0  0  0  0
    2.2554   -4.0127    0.0000 H   0  0  0  0  0  0  0  0  0  0  0  0
   10.1233    2.2850    0.0000 H   0  0  0  0  0  0  0  0  0  0  0  0
    9.5822    5.6776    0.0000 H   0  0  0  0  0  0  0  0  0  0  0  0
    9.1836    4.9873    0.0000 H   0  0  0  0  0  0  0  0  0  0  0  0
   14.4344    2.0581    0.0000 H   0  0  0  0  0  0  0  0  0  0  0  0
   14.6613    2.9050    0.0000 H   0  0  0  0  0  0  0  0  0  0  0  0
   13.8144    3.1319    0.0000 H   0  0  0  0  0  0  0  0  0  0  0  0
   12.6383    1.0950    0.0000 H   0  0  0  0  0  0  0  0  0  0  0  0
   13.2583    0.4750    0.0000 H   0  0  0  0  0  0  0  0  0  0  0  0
   13.8783    1.0950    0.0000 H   0  0  0  0  0  0  0  0  0  0  0  0
    4.2690   -5.0950    0.0000 H   0  0  0  0  0  0  0  0  0  0  0  0
    1.4631   -5.0950    0.0000 H   0  0  0  0  0  0  0  0  0  0  0  0
    6.0841    6.5950    0.0000 H   0  0  0  0  0  0  0  0  0  0  0  0
    5.4641    7.2150    0.0000 H   0  0  0  0  0  0  0  0  0  0  0  0
    4.8441    6.5950    0.0000 H   0  0  0  0  0  0  0  0  0  0  0  0
    4.2881    5.6319    0.0000 H   0  0  0  0  0  0  0  0  0  0  0  0
    4.0611    4.7850    0.0000 H   0  0  0  0  0  0  0  0  0  0  0  0
    4.9081    4.5581    0.0000 H   0  0  0  0  0  0  0  0  0  0  0  0
    4.2690   -6.7150    0.0000 H   0  0  0  0  0  0  0  0  0  0  0  0
    1.4631   -6.7150    0.0000 H   0  0  0  0  0  0  0  0  0  0  0  0
   12.3923   -0.0250    0.0000 H   0  0  0  0  0  0  0  0  0  0  0  0
    2.8660   -7.5250    0.0000 H   0  0  0  0  0  0  0  0  0  0  0  0
   11.1972    6.9050    0.0000 H   0  0  0  0  0  0  0  0  0  0  0  0
  1 22  2  0  0  0  0
  2 23  2  0  0  0  0
  3 29  2  0  0  0  0
  4 32  2  0  0  0  0
  5 39  2  0  0  0  0
  6 40  2  0  0  0  0
  7 45  1  0  0  0  0
  7109  1  0  0  0  0
  8 45  2  0  0  0  0
  9 46  1  0  0  0  0
  9111  1  0  0  0  0
 10 46  2  0  0  0  0
 17 11  1  6  0  0  0
 11 22  1  0  0  0  0
 11 60  1  0  0  0  0
 19 12  1  1  0  0  0
 12 29  1  0  0  0  0
 12 30  1  0  0  0  0
 13 23  1  0  0  0  0
 13 25  1  0  0  0  0
 13 71  1  0  0  0  0
 14 32  1  0  0  0  0
 34 14  1  1  0  0  0
 14 87  1  0  0  0  0
 36 15  1  1  0  0  0
 15 39  1  0  0  0  0
 15 90  1  0  0  0  0
 16 40  1  0  0  0  0
 16 49  1  0  0  0  0
 16 50  1  0  0  0  0
 17 18  1  0  0  0  0
 17 23  1  0  0  0  0
 17 54  1  0  0  0  0
 18 21  1  0  0  0  0
 18 24  1  6  0  0  0
 18 55  1  0  0  0  0
 19 20  1  0  0  0  0
 19 22  1  0  0  0  0
 19 56  1  0  0  0  0
 20 26  1  0  0  0  0
 20 27  1  0  0  0  0
 20 57  1  0  0  0  0
 21 28  1  0  0  0  0
 21 58  1  0  0  0  0
 21 59  1  0  0  0  0
 24 61  1  0  0  0  0
 24 62  1  0  0  0  0
 24 63  1  0  0  0  0
 25 31  1  0  0  0  0
 25 32  1  0  0  0  0
 25 64  1  0  0  0  0
 26 65  1  0  0  0  0
 26 66  1  0  0  0  0
 26 67  1  0  0  0  0
 27 68  1  0  0  0  0
 27 69  1  0  0  0  0
 27 70  1  0  0  0  0
 28 72  1  0  0  0  0
 28 73  1  0  0  0  0
 28 74  1  0  0  0  0
 29 33  1  0  0  0  0
 30 75  1  0  0  0  0
 30 76  1  0  0  0  0
 30 77  1  0  0  0  0
 31 40  1  0  0  0  0
 31 78  1  0  0  0  0
 31 79  1  0  0  0  0
 33 38  1  0  0  0  0
 33 80  1  0  0  0  0
 33 81  1  0  0  0  0
 34 39  1  0  0  0  0
 34 41  1  0  0  0  0
 34 82  1  0  0  0  0
 35 36  1  0  0  0  0
 35 37  1  0  0  0  0
 35 83  1  0  0  0  0
 35 84  1  0  0  0  0
 36 45  1  0  0  0  0
 36 85  1  0  0  0  0
 37 42  1  0  0  0  0
 37 43  1  0  0  0  0
 37 86  1  0  0  0  0
 38 44  1  0  0  0  0
 38 88  1  0  0  0  0
 38 89  1  0  0  0  0
 41 46  1  0  0  0  0
 41 91  1  0  0  0  0
 41 92  1  0  0  0  0
 42 93  1  0  0  0  0
 42 94  1  0  0  0  0
 42 95  1  0  0  0  0
 43 96  1  0  0  0  0
 43 97  1  0  0  0  0
 43 98  1  0  0  0  0
 44 47  2  0  0  0  0
 44 48  1  0  0  0  0
 47 51  1  0  0  0  0
 47 99  1  0  0  0  0
 48 52  2  0  0  0  0
 48100  1  0  0  0  0
 49101  1  0  0  0  0
 49102  1  0  0  0  0
 49103  1  0  0  0  0
 50104  1  0  0  0  0
 50105  1  0  0  0  0
 50106  1  0  0  0  0
 51 53  2  0  0  0  0
 51107  1  0  0  0  0
 52 53  1  0  0  0  0
 52108  1  0  0  0  0
 53110  1  0  0  0  0
M  END
> <PUBCHEM_COMPOUND_CID>
502967
> <PUBCHEM_COMPOUND_CANONICALIZED>
1
> <PUBCHEM_CACTVS_COMPLEXITY>
1280
> <PUBCHEM_CACTVS_HBOND_ACCEPTOR>
10
> <PUBCHEM_CACTVS_HBOND_DONOR>
6
> <PUBCHEM_CACTVS_ROTATABLE_BOND>
22
> <PUBCHEM_CACTVS_SUBSKEYS>
AAADcfB/vAAAAAAAAAAAAAAAAAAAAAAAAAAwAAAAAAAAAAABAAAAHgAQCAAADSjBmAQyCIPAAgCIAiHSGAACAAAgAAAIiIGIAIgKYDqA0TCUYAAmlgCYiAe/iICOAAAAAAAAAAAAAAAAAAAAAAAAAAAAAA==
> <PUBCHEM_IUPAC_OPENEYE_NAME>
(2S)-2-[[(2S)-3-carboxy-2-[[4-(dimethylamino)-2-[[(2S,3S)-3-methyl-2-[[(2S)-3-methyl-2-[methyl(3-phenylpropanoyl)amino]butanoyl]amino]pentanoyl]amino]-4-oxo-butanoyl]amino]propanoyl]amino]-4-methyl-pentanoic acid
> <PUBCHEM_IUPAC_CAS_NAME>
(2S)-2-[[(2S)-3-carboxy-2-[[4-(dimethylamino)-2-[[(2S,3S)-3-methyl-2-[[(2S)-3-methyl-2-[methyl-(1-oxo-3-phenylpropyl)amino]-1-oxobutyl]amino]-1-oxopentyl]amino]-1,4-dioxobutyl]amino]-1-oxopropyl]amino]-4-methylpentanoic acid
> <PUBCHEM_IUPAC_NAME_MARKUP>
(2<I>S</I>)-2-[[(2<I>S</I>)-3-carboxy-2-[[4-(dimethylamino)-2-[[(2<I>S</I>,3<I>S</I>)-3-methyl-2-[[(2<I>S</I>)-3-methyl-2-[methyl(3-phenylpropanoyl)amino]butanoyl]amino]pentanoyl]amino]-4-oxobutanoyl]amino]propanoyl]amino]-4-methylpentanoic acid
> <PUBCHEM_IUPAC_NAME>
(2S)-2-[[(2S)-3-carboxy-2-[[4-(dimethylamino)-2-[[(2S,3S)-3-methyl-2-[[(2S)-3-methyl-2-[methyl(3-phenylpropanoyl)amino]butanoyl]amino]pentanoyl]amino]-4-oxobutanoyl]amino]propanoyl]amino]-4-methylpentanoic acid
> <PUBCHEM_IUPAC_SYSTEMATIC_NAME>
(2S)-2-[[(2S)-2-[[4-(dimethylamino)-2-[[(2S,3S)-3-methyl-2-[[(2S)-3-methyl-2-[methyl(3-phenylpropanoyl)amino]butanoyl]amino]pentanoyl]amino]-4-oxidanylidene-butanoyl]amino]-4-oxidanyl-4-oxidanylidene-butanoyl]amino]-4-methyl-pentanoic acid
> <PUBCHEM_IUPAC_TRADITIONAL_NAME>
(2S)-2-[[(2S)-3-carboxy-2-[[4-(dimethylamino)-2-[[(2S,3S)-2-[[(2S)-2-[hydrocinnamoyl(methyl)amino]-3-methyl-butanoyl]amino]-3-methyl-pentanoyl]amino]-4-keto-butanoyl]amino]propanoyl]amino]-4-methyl-valeric acid
> <PUBCHEM_IUPAC_INCHI>
InChI=1S/C37H58N6O10/c1-10-23(6)31(41-36(51)32(22(4)5)43(9)28(44)17-16-24-14-12-11-13-15-24)35(50)39-25(19-29(45)42(7)8)33(48)38-26(20-30(46)47)34(49)40-27(37(52)53)18-21(2)3/h11-15,21-23,25-27,31-32H,10,16-20H2,1-9H3,(H,38,48)(H,39,50)(H,40,49)(H,41,51)(H,46,47)(H,52,53)/t23-,25?,26-,27-,31-,32-/m0/s1
> <PUBCHEM_IUPAC_INCHIKEY>
FVMOQRNITIGOJN-VUKHEHHTSA-N
> <PUBCHEM_XLOGP3_AA>
2.4
> <PUBCHEM_EXACT_MASS>
746.42144207
> <PUBCHEM_MOLECULAR_FORMULA>
C37H58N6O10
> <PUBCHEM_MOLECULAR_WEIGHT>
746.9
> <PUBCHEM_OPENEYE_CAN_SMILES>
CCC(C)C(C(=O)NC(CC(=O)N(C)C)C(=O)NC(CC(=O)O)C(=O)NC(CC(C)C)C(=O)O)NC(=O)C(C(C)C)N(C)C(=O)CCC1=CC=CC=C1
> <PUBCHEM_OPENEYE_ISO_SMILES>
CC[C@H](C)[C@@H](C(=O)NC(CC(=O)N(C)C)C(=O)N[C@@H](CC(=O)O)C(=O)N[C@@H](CC(C)C)C(=O)O)NC(=O)[C@H](C(C)C)N(C)C(=O)CCC1=CC=CC=C1
> <PUBCHEM_CACTVS_TPSA>
232
> <PUBCHEM_MONOISOTOPIC_WEIGHT>
746.42144207
> <PUBCHEM_TOTAL_CHARGE>
0
> <PUBCHEM_HEAVY_ATOM_COUNT>
53
> <PUBCHEM_ATOM_DEF_STEREO_COUNT>
5
> <PUBCHEM_ATOM_UDEF_STEREO_COUNT>
1
> <PUBCHEM_BOND_DEF_STEREO_COUNT>
0
> <PUBCHEM_BOND_UDEF_STEREO_COUNT>
0
> <PUBCHEM_ISOTOPIC_ATOM_COUNT>
0
> <PUBCHEM_COMPONENT_COUNT>
1
> <PUBCHEM_CACTVS_TAUTO_COUNT>
-1
> <PUBCHEM_COORDINATE_TYPE>
1
5
255
> <PUBCHEM_BONDANNOTATIONS>
17  11  6
19  12  5
34  14  5
36  15  5
18  24  6
25  31  3
44  47  8
44  48  8
47  51  8
48  52  8
51  53  8
52  53  8
$$$$
