503052
  -OEChem-10302200282D
 84 87  0     1  0  0  0  0  0999 V2000
   10.7282    0.4720    0.0000 O   0  0  0  0  0  0  0  0  0  0  0  0
    8.9962    1.4720    0.0000 O   0  0  0  0  0  0  0  0  0  0  0  0
    9.8622   -3.0280    0.0000 O   0  0  0  0  0  0  0  0  0  0  0  0
    9.8622    2.9720    0.0000 O   0  0  0  0  0  0  0  0  0  0  0  0
    9.8622   -4.0280    0.0000 O   0  0  0  0  0  0  0  0  0  0  0  0
    6.3981   -4.0280    0.0000 O   0  0  0  0  0  0  0  0  0  0  0  0
    8.9962   -1.5280    0.0000 N   0  0  0  0  0  0  0  0  0  0  0  0
    7.2641   -2.5280    0.0000 N   0  0  0  0  0  0  0  0  0  0  0  0
    8.9962    4.4720    0.0000 N   0  0  0  0  0  0  0  0  0  0  0  0
    7.2641    1.4720    0.0000 N   0  0  0  0  0  0  0  0  0  0  0  0
    8.9962   -5.5280    0.0000 N   0  0  0  0  0  0  0  0  0  0  0  0
    4.6660   -3.0280    0.0000 N   0  0  0  0  0  0  0  0  0  0  0  0
    9.8622   -1.0280    0.0000 C   0  0  2  0  0  0  0  0  0  0  0  0
    9.8622   -0.0280    0.0000 C   0  0  2  0  0  0  0  0  0  0  0  0
   10.7282   -1.5280    0.0000 C   0  0  0  0  0  0  0  0  0  0  0  0
    8.9962    0.4720    0.0000 C   0  0  0  0  0  0  0  0  0  0  0  0
   11.5942   -1.0280    0.0000 C   0  0  0  0  0  0  0  0  0  0  0  0
    8.1301   -3.0280    0.0000 C   0  0  2  0  0  0  0  0  0  0  0  0
    8.9962   -2.5280    0.0000 C   0  0  0  0  0  0  0  0  0  0  0  0
    8.1301   -4.0280    0.0000 C   0  0  0  0  0  0  0  0  0  0  0  0
    8.1301    4.9720    0.0000 C   0  0  0  0  0  0  0  0  0  0  0  0
   12.4603   -1.5280    0.0000 C   0  0  0  0  0  0  0  0  0  0  0  0
   11.5942   -0.0280    0.0000 C   0  0  0  0  0  0  0  0  0  0  0  0
    8.1301    1.9720    0.0000 C   0  0  0  0  0  0  0  0  0  0  0  0
    7.2641    5.4720    0.0000 C   0  0  0  0  0  0  0  0  0  0  0  0
    7.6301    4.1060    0.0000 C   0  0  0  0  0  0  0  0  0  0  0  0
    8.6301    5.8380    0.0000 C   0  0  0  0  0  0  0  0  0  0  0  0
    8.1301    2.9720    0.0000 C   0  0  0  0  0  0  0  0  0  0  0  0
   13.3263   -1.0280    0.0000 C   0  0  0  0  0  0  0  0  0  0  0  0
   12.4603    0.4720    0.0000 C   0  0  0  0  0  0  0  0  0  0  0  0
    8.9962    3.4720    0.0000 C   0  0  0  0  0  0  0  0  0  0  0  0
    8.9962   -4.5280    0.0000 C   0  0  0  0  0  0  0  0  0  0  0  0
   13.3263   -0.0280    0.0000 C   0  0  0  0  0  0  0  0  0  0  0  0
    6.3981   -3.0280    0.0000 C   0  0  0  0  0  0  0  0  0  0  0  0
    7.2641    3.4720    0.0000 C   0  0  0  0  0  0  0  0  0  0  0  0
    5.5321   -2.5280    0.0000 C   0  0  0  0  0  0  0  0  0  0  0  0
    6.3981    2.9720    0.0000 C   0  0  0  0  0  0  0  0  0  0  0  0
    6.3981    1.9720    0.0000 C   0  0  0  0  0  0  0  0  0  0  0  0
    5.5321   -1.5280    0.0000 C   0  0  0  0  0  0  0  0  0  0  0  0
    3.8000   -2.5280    0.0000 C   0  0  0  0  0  0  0  0  0  0  0  0
    3.8000   -1.5280    0.0000 C   0  0  0  0  0  0  0  0  0  0  0  0
    4.6660   -1.0280    0.0000 C   0  0  0  0  0  0  0  0  0  0  0  0
    2.9061   -3.0627    0.0000 C   0  0  0  0  0  0  0  0  0  0  0  0
    2.9061   -0.9934    0.0000 C   0  0  0  0  0  0  0  0  0  0  0  0
    2.0000   -2.5488    0.0000 C   0  0  0  0  0  0  0  0  0  0  0  0
    2.0000   -1.5072    0.0000 C   0  0  0  0  0  0  0  0  0  0  0  0
    9.3252   -0.7180    0.0000 H   0  0  0  0  0  0  0  0  0  0  0  0
    9.8622    0.5920    0.0000 H   0  0  0  0  0  0  0  0  0  0  0  0
   10.3297   -2.0030    0.0000 H   0  0  0  0  0  0  0  0  0  0  0  0
   11.1267   -2.0030    0.0000 H   0  0  0  0  0  0  0  0  0  0  0  0
    8.4592   -1.2180    0.0000 H   0  0  0  0  0  0  0  0  0  0  0  0
    8.3856    0.5796    0.0000 H   0  0  0  0  0  0  0  0  0  0  0  0
    8.7841   -0.1106    0.0000 H   0  0  0  0  0  0  0  0  0  0  0  0
    7.5932   -3.3380    0.0000 H   0  0  0  0  0  0  0  0  0  0  0  0
    7.5196   -3.9204    0.0000 H   0  0  0  0  0  0  0  0  0  0  0  0
    7.9181   -4.6106    0.0000 H   0  0  0  0  0  0  0  0  0  0  0  0
   10.7282    1.0920    0.0000 H   0  0  0  0  0  0  0  0  0  0  0  0
   12.4603   -2.1480    0.0000 H   0  0  0  0  0  0  0  0  0  0  0  0
   11.0573    0.2820    0.0000 H   0  0  0  0  0  0  0  0  0  0  0  0
    7.2641   -1.9080    0.0000 H   0  0  0  0  0  0  0  0  0  0  0  0
    9.5331    4.7820    0.0000 H   0  0  0  0  0  0  0  0  0  0  0  0
    7.5741    6.0089    0.0000 H   0  0  0  0  0  0  0  0  0  0  0  0
    6.7272    5.7820    0.0000 H   0  0  0  0  0  0  0  0  0  0  0  0
    6.9541    4.9351    0.0000 H   0  0  0  0  0  0  0  0  0  0  0  0
    7.0932    4.4160    0.0000 H   0  0  0  0  0  0  0  0  0  0  0  0
    7.3201    3.5690    0.0000 H   0  0  0  0  0  0  0  0  0  0  0  0
    8.1671    3.7960    0.0000 H   0  0  0  0  0  0  0  0  0  0  0  0
    9.1671    5.5280    0.0000 H   0  0  0  0  0  0  0  0  0  0  0  0
    8.9401    6.3750    0.0000 H   0  0  0  0  0  0  0  0  0  0  0  0
    8.0932    6.1480    0.0000 H   0  0  0  0  0  0  0  0  0  0  0  0
   13.8632   -1.3380    0.0000 H   0  0  0  0  0  0  0  0  0  0  0  0
   12.4603    1.0920    0.0000 H   0  0  0  0  0  0  0  0  0  0  0  0
   13.8632    0.2820    0.0000 H   0  0  0  0  0  0  0  0  0  0  0  0
    7.2641    4.0920    0.0000 H   0  0  0  0  0  0  0  0  0  0  0  0
    5.8612    3.2820    0.0000 H   0  0  0  0  0  0  0  0  0  0  0  0
    5.8612    1.6620    0.0000 H   0  0  0  0  0  0  0  0  0  0  0  0
    9.5331   -5.8380    0.0000 H   0  0  0  0  0  0  0  0  0  0  0  0
    8.4592   -5.8380    0.0000 H   0  0  0  0  0  0  0  0  0  0  0  0
    6.0690   -1.2180    0.0000 H   0  0  0  0  0  0  0  0  0  0  0  0
    4.6660   -0.4080    0.0000 H   0  0  0  0  0  0  0  0  0  0  0  0
    2.9132   -3.6826    0.0000 H   0  0  0  0  0  0  0  0  0  0  0  0
    2.9132   -0.3734    0.0000 H   0  0  0  0  0  0  0  0  0  0  0  0
    1.4643   -2.8609    0.0000 H   0  0  0  0  0  0  0  0  0  0  0  0
    1.4643   -1.1951    0.0000 H   0  0  0  0  0  0  0  0  0  0  0  0
 14  1  1  6  0  0  0
  1 57  1  0  0  0  0
  2 16  1  0  0  0  0
  2 24  1  0  0  0  0
  3 19  2  0  0  0  0
  4 31  2  0  0  0  0
  5 32  2  0  0  0  0
  6 34  2  0  0  0  0
 13  7  1  6  0  0  0
  7 19  1  0  0  0  0
  7 51  1  0  0  0  0
 18  8  1  6  0  0  0
  8 34  1  0  0  0  0
  8 60  1  0  0  0  0
  9 21  1  0  0  0  0
  9 31  1  0  0  0  0
  9 61  1  0  0  0  0
 10 24  1  0  0  0  0
 10 38  2  0  0  0  0
 11 32  1  0  0  0  0
 11 77  1  0  0  0  0
 11 78  1  0  0  0  0
 12 36  2  0  0  0  0
 12 40  1  0  0  0  0
 13 14  1  0  0  0  0
 13 15  1  0  0  0  0
 13 47  1  0  0  0  0
 14 16  1  0  0  0  0
 14 48  1  0  0  0  0
 15 17  1  0  0  0  0
 15 49  1  0  0  0  0
 15 50  1  0  0  0  0
 16 52  1  0  0  0  0
 16 53  1  0  0  0  0
 17 22  2  0  0  0  0
 17 23  1  0  0  0  0
 18 19  1  0  0  0  0
 18 20  1  0  0  0  0
 18 54  1  0  0  0  0
 20 32  1  0  0  0  0
 20 55  1  0  0  0  0
 20 56  1  0  0  0  0
 21 25  1  0  0  0  0
 21 26  1  0  0  0  0
 21 27  1  0  0  0  0
 22 29  1  0  0  0  0
 22 58  1  0  0  0  0
 23 30  2  0  0  0  0
 23 59  1  0  0  0  0
 24 28  2  0  0  0  0
 25 62  1  0  0  0  0
 25 63  1  0  0  0  0
 25 64  1  0  0  0  0
 26 65  1  0  0  0  0
 26 66  1  0  0  0  0
 26 67  1  0  0  0  0
 27 68  1  0  0  0  0
 27 69  1  0  0  0  0
 27 70  1  0  0  0  0
 28 31  1  0  0  0  0
 28 35  1  0  0  0  0
 29 33  2  0  0  0  0
 29 71  1  0  0  0  0
 30 33  1  0  0  0  0
 30 72  1  0  0  0  0
 33 73  1  0  0  0  0
 34 36  1  0  0  0  0
 35 37  2  0  0  0  0
 35 74  1  0  0  0  0
 36 39  1  0  0  0  0
 37 38  1  0  0  0  0
 37 75  1  0  0  0  0
 38 76  1  0  0  0  0
 39 42  2  0  0  0  0
 39 79  1  0  0  0  0
 40 41  1  0  0  0  0
 40 43  2  0  0  0  0
 41 42  1  0  0  0  0
 41 44  2  0  0  0  0
 42 80  1  0  0  0  0
 43 45  1  0  0  0  0
 43 81  1  0  0  0  0
 44 46  1  0  0  0  0
 44 82  1  0  0  0  0
 45 46  2  0  0  0  0
 45 83  1  0  0  0  0
 46 84  1  0  0  0  0
M  END
> <PUBCHEM_COMPOUND_CID>
503052
> <PUBCHEM_COMPOUND_CANONICALIZED>
1
> <PUBCHEM_CACTVS_COMPLEXITY>
1030
> <PUBCHEM_CACTVS_HBOND_ACCEPTOR>
8
> <PUBCHEM_CACTVS_HBOND_DONOR>
5
> <PUBCHEM_CACTVS_ROTATABLE_BOND>
14
> <PUBCHEM_CACTVS_SUBSKEYS>
AAADcfB/uAAAAAAAAAAAAAAAAAAAAAAAAAA8eIEAAAAAAACx/AAAHgAQCAAADLzhngY+xPLIFgCoAzV3VACCiCA3IiAI2KG8bNgPdv7E9bueeejm9hHb6ced2bCOAAAAAAACAAAAAAAAAAQAAAAAAAAAAA==
> <PUBCHEM_IUPAC_OPENEYE_NAME>
(2S)-N-[(1S,2R)-1-benzyl-3-[[3-(tert-butylcarbamoyl)-2-pyridyl]oxy]-2-hydroxy-propyl]-2-(quinoline-2-carbonylamino)butanediamide
> <PUBCHEM_IUPAC_CAS_NAME>
(2S)-N-[(2S,3R)-4-[[3-[(tert-butylamino)-oxomethyl]-2-pyridinyl]oxy]-3-hydroxy-1-phenylbutan-2-yl]-2-[[oxo(2-quinolinyl)methyl]amino]butanediamide
> <PUBCHEM_IUPAC_NAME_MARKUP>
(2<I>S</I>)-<I>N</I>-[(2<I>S</I>,3<I>R</I>)-4-[3-(<I>tert</I>-butylcarbamoyl)pyridin-2-yl]oxy-3-hydroxy-1-phenylbutan-2-yl]-2-(quinoline-2-carbonylamino)butanediamide
> <PUBCHEM_IUPAC_NAME>
(2S)-N-[(2S,3R)-4-[3-(tert-butylcarbamoyl)pyridin-2-yl]oxy-3-hydroxy-1-phenylbutan-2-yl]-2-(quinoline-2-carbonylamino)butanediamide
> <PUBCHEM_IUPAC_SYSTEMATIC_NAME>
(2S)-N-[(2S,3R)-4-[3-(tert-butylcarbamoyl)pyridin-2-yl]oxy-3-oxidanyl-1-phenyl-butan-2-yl]-2-(quinolin-2-ylcarbonylamino)butanediamide
> <PUBCHEM_IUPAC_TRADITIONAL_NAME>
(2S)-N-[(1S,2R)-1-benzyl-3-[[3-(tert-butylcarbamoyl)-2-pyridyl]oxy]-2-hydroxy-propyl]-2-(quinaldoylamino)succinamide
> <PUBCHEM_IUPAC_INCHI>
InChI=1S/C34H38N6O6/c1-34(2,3)40-30(43)23-13-9-17-36-33(23)46-20-28(41)26(18-21-10-5-4-6-11-21)38-32(45)27(19-29(35)42)39-31(44)25-16-15-22-12-7-8-14-24(22)37-25/h4-17,26-28,41H,18-20H2,1-3H3,(H2,35,42)(H,38,45)(H,39,44)(H,40,43)/t26-,27-,28-/m0/s1
> <PUBCHEM_IUPAC_INCHIKEY>
JYALXCOJTAMXQV-KCHLEUMXSA-N
> <PUBCHEM_XLOGP3_AA>
2.6
> <PUBCHEM_EXACT_MASS>
626.28528295
> <PUBCHEM_MOLECULAR_FORMULA>
C34H38N6O6
> <PUBCHEM_MOLECULAR_WEIGHT>
626.7
> <PUBCHEM_OPENEYE_CAN_SMILES>
CC(C)(C)NC(=O)C1=C(N=CC=C1)OCC(C(CC2=CC=CC=C2)NC(=O)C(CC(=O)N)NC(=O)C3=NC4=CC=CC=C4C=C3)O
> <PUBCHEM_OPENEYE_ISO_SMILES>
CC(C)(C)NC(=O)C1=C(N=CC=C1)OC[C@@H]([C@H](CC2=CC=CC=C2)NC(=O)[C@H](CC(=O)N)NC(=O)C3=NC4=CC=CC=C4C=C3)O
> <PUBCHEM_CACTVS_TPSA>
186
> <PUBCHEM_MONOISOTOPIC_WEIGHT>
626.28528295
> <PUBCHEM_TOTAL_CHARGE>
0
> <PUBCHEM_HEAVY_ATOM_COUNT>
46
> <PUBCHEM_ATOM_DEF_STEREO_COUNT>
3
> <PUBCHEM_ATOM_UDEF_STEREO_COUNT>
0
> <PUBCHEM_BOND_DEF_STEREO_COUNT>
0
> <PUBCHEM_BOND_UDEF_STEREO_COUNT>
0
> <PUBCHEM_ISOTOPIC_ATOM_COUNT>
0
> <PUBCHEM_COMPONENT_COUNT>
1
> <PUBCHEM_CACTVS_TAUTO_COUNT>
-1
> <PUBCHEM_COORDINATE_TYPE>
1
5
255
> <PUBCHEM_BONDANNOTATIONS>
14  1  6
10  24  8
10  38  8
12  36  8
12  40  8
17  22  8
17  23  8
22  29  8
23  30  8
24  28  8
28  35  8
29  33  8
30  33  8
35  37  8
36  39  8
37  38  8
39  42  8
40  41  8
40  43  8
41  42  8
41  44  8
43  45  8
44  46  8
45  46  8
13  7  6
18  8  6
$$$$
