503088
  -OEChem-10302200282D
 95100  0     1  0  0  0  0  0999 V2000
    8.9962    3.4449    0.0000 S   0  0  0  0  0  0  0  0  0  0  0  0
   10.7282    2.4449    0.0000 O   0  0  0  0  0  0  0  0  0  0  0  0
    9.8622   -1.0551    0.0000 O   0  0  0  0  0  0  0  0  0  0  0  0
    6.3981   -2.0551    0.0000 O   0  0  0  0  0  0  0  0  0  0  0  0
    8.1301    1.9449    0.0000 O   0  0  0  0  0  0  0  0  0  0  0  0
    8.9962    0.4449    0.0000 N   0  0  0  0  0  0  0  0  0  0  0  0
    7.2641   -0.5551    0.0000 N   0  0  0  0  0  0  0  0  0  0  0  0
   10.5710   -2.8870    0.0000 N   0  0  0  0  0  0  0  0  0  0  0  0
    6.3981    1.9449    0.0000 N   0  0  0  0  0  0  0  0  0  0  0  0
    4.6660   -1.0551    0.0000 N   0  0  0  0  0  0  0  0  0  0  0  0
    9.8622    0.9449    0.0000 C   0  0  2  0  0  0  0  0  0  0  0  0
    9.8622    1.9449    0.0000 C   0  0  2  0  0  0  0  0  0  0  0  0
   10.7282    0.4449    0.0000 C   0  0  0  0  0  0  0  0  0  0  0  0
    8.1301   -1.0551    0.0000 C   0  0  1  0  0  0  0  0  0  0  0  0
    8.1301   -2.0551    0.0000 C   0  0  0  0  0  0  0  0  0  0  0  0
    8.9962   -0.5551    0.0000 C   0  0  0  0  0  0  0  0  0  0  0  0
    8.9962    2.4449    0.0000 C   0  0  0  0  0  0  0  0  0  0  0  0
    8.9962   -2.5551    0.0000 C   0  0  0  0  0  0  0  0  0  0  0  0
   11.5942    0.9449    0.0000 C   0  0  0  0  0  0  0  0  0  0  0  0
    9.0992   -3.5438    0.0000 C   0  0  0  0  0  0  0  0  0  0  0  0
   10.0777   -3.7501    0.0000 C   0  0  0  0  0  0  0  0  0  0  0  0
    9.9040   -2.1500    0.0000 C   0  0  0  0  0  0  0  0  0  0  0  0
   12.4603    0.4449    0.0000 C   0  0  0  0  0  0  0  0  0  0  0  0
   11.5942    1.9449    0.0000 C   0  0  0  0  0  0  0  0  0  0  0  0
    5.5321    2.4449    0.0000 C   0  0  0  0  0  0  0  0  0  0  0  0
    8.4314   -4.2881    0.0000 C   0  0  0  0  0  0  0  0  0  0  0  0
    6.3981   -1.0551    0.0000 C   0  0  0  0  0  0  0  0  0  0  0  0
    8.1301    3.9449    0.0000 C   0  0  0  0  0  0  0  0  0  0  0  0
   10.3884   -4.7006    0.0000 C   0  0  0  0  0  0  0  0  0  0  0  0
    7.2641    3.4449    0.0000 C   0  0  0  0  0  0  0  0  0  0  0  0
   13.3263    0.9449    0.0000 C   0  0  0  0  0  0  0  0  0  0  0  0
   12.4603    2.4449    0.0000 C   0  0  0  0  0  0  0  0  0  0  0  0
    8.7420   -5.2387    0.0000 C   0  0  0  0  0  0  0  0  0  0  0  0
    9.7205   -5.4449    0.0000 C   0  0  0  0  0  0  0  0  0  0  0  0
    4.6660    2.9449    0.0000 C   0  0  0  0  0  0  0  0  0  0  0  0
    6.0321    3.3109    0.0000 C   0  0  0  0  0  0  0  0  0  0  0  0
    5.0321    1.5789    0.0000 C   0  0  0  0  0  0  0  0  0  0  0  0
    7.2641    2.4449    0.0000 C   0  0  0  0  0  0  0  0  0  0  0  0
   13.3263    1.9449    0.0000 C   0  0  0  0  0  0  0  0  0  0  0  0
    5.5321   -0.5551    0.0000 C   0  0  0  0  0  0  0  0  0  0  0  0
    8.1301    4.9449    0.0000 C   0  0  0  0  0  0  0  0  0  0  0  0
    6.3981    3.9449    0.0000 C   0  0  0  0  0  0  0  0  0  0  0  0
    7.2641    5.4449    0.0000 C   0  0  0  0  0  0  0  0  0  0  0  0
    6.3981    4.9449    0.0000 C   0  0  0  0  0  0  0  0  0  0  0  0
    5.5321    0.4449    0.0000 C   0  0  0  0  0  0  0  0  0  0  0  0
    3.8000   -0.5551    0.0000 C   0  0  0  0  0  0  0  0  0  0  0  0
    3.8000    0.4449    0.0000 C   0  0  0  0  0  0  0  0  0  0  0  0
    4.6660    0.9449    0.0000 C   0  0  0  0  0  0  0  0  0  0  0  0
    2.9061   -1.0898    0.0000 C   0  0  0  0  0  0  0  0  0  0  0  0
    2.9061    0.9795    0.0000 C   0  0  0  0  0  0  0  0  0  0  0  0
    2.0000   -0.5759    0.0000 C   0  0  0  0  0  0  0  0  0  0  0  0
    2.0000    0.4657    0.0000 C   0  0  0  0  0  0  0  0  0  0  0  0
    9.3252    1.2549    0.0000 H   0  0  0  0  0  0  0  0  0  0  0  0
    9.8622    2.5649    0.0000 H   0  0  0  0  0  0  0  0  0  0  0  0
   10.3297   -0.0301    0.0000 H   0  0  0  0  0  0  0  0  0  0  0  0
   11.1267   -0.0301    0.0000 H   0  0  0  0  0  0  0  0  0  0  0  0
    7.5932   -1.3651    0.0000 H   0  0  0  0  0  0  0  0  0  0  0  0
    8.4592    0.7549    0.0000 H   0  0  0  0  0  0  0  0  0  0  0  0
    7.5196   -1.9475    0.0000 H   0  0  0  0  0  0  0  0  0  0  0  0
    7.9181   -2.6377    0.0000 H   0  0  0  0  0  0  0  0  0  0  0  0
    8.3856    2.5525    0.0000 H   0  0  0  0  0  0  0  0  0  0  0  0
    8.7841    1.8623    0.0000 H   0  0  0  0  0  0  0  0  0  0  0  0
    7.2641    0.0649    0.0000 H   0  0  0  0  0  0  0  0  0  0  0  0
   10.0318   -1.5433    0.0000 H   0  0  0  0  0  0  0  0  0  0  0  0
   10.7282    3.0649    0.0000 H   0  0  0  0  0  0  0  0  0  0  0  0
   11.1874   -2.8201    0.0000 H   0  0  0  0  0  0  0  0  0  0  0  0
   12.4603   -0.1751    0.0000 H   0  0  0  0  0  0  0  0  0  0  0  0
   11.0573    2.2549    0.0000 H   0  0  0  0  0  0  0  0  0  0  0  0
    7.8247   -4.1603    0.0000 H   0  0  0  0  0  0  0  0  0  0  0  0
   10.9951   -4.8284    0.0000 H   0  0  0  0  0  0  0  0  0  0  0  0
   13.8632    0.6349    0.0000 H   0  0  0  0  0  0  0  0  0  0  0  0
   12.4603    3.0649    0.0000 H   0  0  0  0  0  0  0  0  0  0  0  0
    8.3280   -5.7001    0.0000 H   0  0  0  0  0  0  0  0  0  0  0  0
    6.3981    1.3249    0.0000 H   0  0  0  0  0  0  0  0  0  0  0  0
    9.9132   -6.0342    0.0000 H   0  0  0  0  0  0  0  0  0  0  0  0
    4.9760    3.4818    0.0000 H   0  0  0  0  0  0  0  0  0  0  0  0
    4.1291    3.2549    0.0000 H   0  0  0  0  0  0  0  0  0  0  0  0
    4.3560    2.4080    0.0000 H   0  0  0  0  0  0  0  0  0  0  0  0
    6.5690    3.0009    0.0000 H   0  0  0  0  0  0  0  0  0  0  0  0
    6.3421    3.8478    0.0000 H   0  0  0  0  0  0  0  0  0  0  0  0
    5.4951    3.6209    0.0000 H   0  0  0  0  0  0  0  0  0  0  0  0
    4.4951    1.8889    0.0000 H   0  0  0  0  0  0  0  0  0  0  0  0
    4.7221    1.0419    0.0000 H   0  0  0  0  0  0  0  0  0  0  0  0
    5.5690    1.2689    0.0000 H   0  0  0  0  0  0  0  0  0  0  0  0
   13.8632    2.2549    0.0000 H   0  0  0  0  0  0  0  0  0  0  0  0
    8.6671    5.2549    0.0000 H   0  0  0  0  0  0  0  0  0  0  0  0
    5.8612    3.6349    0.0000 H   0  0  0  0  0  0  0  0  0  0  0  0
    7.2641    6.0649    0.0000 H   0  0  0  0  0  0  0  0  0  0  0  0
    5.8612    5.2549    0.0000 H   0  0  0  0  0  0  0  0  0  0  0  0
    6.0690    0.7549    0.0000 H   0  0  0  0  0  0  0  0  0  0  0  0
    4.6660    1.5649    0.0000 H   0  0  0  0  0  0  0  0  0  0  0  0
    2.9132   -1.7097    0.0000 H   0  0  0  0  0  0  0  0  0  0  0  0
    2.9132    1.5995    0.0000 H   0  0  0  0  0  0  0  0  0  0  0  0
    1.4643   -0.8880    0.0000 H   0  0  0  0  0  0  0  0  0  0  0  0
    1.4643    0.7778    0.0000 H   0  0  0  0  0  0  0  0  0  0  0  0
  1 17  1  0  0  0  0
  1 28  1  0  0  0  0
 12  2  1  6  0  0  0
  2 65  1  0  0  0  0
  3 16  2  0  0  0  0
  4 27  2  0  0  0  0
  5 38  2  0  0  0  0
 11  6  1  6  0  0  0
  6 16  1  0  0  0  0
  6 58  1  0  0  0  0
 14  7  1  6  0  0  0
  7 27  1  0  0  0  0
  7 63  1  0  0  0  0
  8 21  1  0  0  0  0
  8 22  1  0  0  0  0
  8 66  1  0  0  0  0
  9 25  1  0  0  0  0
  9 38  1  0  0  0  0
  9 74  1  0  0  0  0
 10 40  2  0  0  0  0
 10 46  1  0  0  0  0
 11 12  1  0  0  0  0
 11 13  1  0  0  0  0
 11 53  1  0  0  0  0
 12 17  1  0  0  0  0
 12 54  1  0  0  0  0
 13 19  1  0  0  0  0
 13 55  1  0  0  0  0
 13 56  1  0  0  0  0
 14 15  1  0  0  0  0
 14 16  1  0  0  0  0
 14 57  1  0  0  0  0
 15 18  1  0  0  0  0
 15 59  1  0  0  0  0
 15 60  1  0  0  0  0
 17 61  1  0  0  0  0
 17 62  1  0  0  0  0
 18 20  1  0  0  0  0
 18 22  2  0  0  0  0
 19 23  2  0  0  0  0
 19 24  1  0  0  0  0
 20 21  1  0  0  0  0
 20 26  2  0  0  0  0
 21 29  2  0  0  0  0
 22 64  1  0  0  0  0
 23 31  1  0  0  0  0
 23 67  1  0  0  0  0
 24 32  2  0  0  0  0
 24 68  1  0  0  0  0
 25 35  1  0  0  0  0
 25 36  1  0  0  0  0
 25 37  1  0  0  0  0
 26 33  1  0  0  0  0
 26 69  1  0  0  0  0
 27 40  1  0  0  0  0
 28 30  1  0  0  0  0
 28 41  2  0  0  0  0
 29 34  1  0  0  0  0
 29 70  1  0  0  0  0
 30 38  1  0  0  0  0
 30 42  2  0  0  0  0
 31 39  2  0  0  0  0
 31 71  1  0  0  0  0
 32 39  1  0  0  0  0
 32 72  1  0  0  0  0
 33 34  2  0  0  0  0
 33 73  1  0  0  0  0
 34 75  1  0  0  0  0
 35 76  1  0  0  0  0
 35 77  1  0  0  0  0
 35 78  1  0  0  0  0
 36 79  1  0  0  0  0
 36 80  1  0  0  0  0
 36 81  1  0  0  0  0
 37 82  1  0  0  0  0
 37 83  1  0  0  0  0
 37 84  1  0  0  0  0
 39 85  1  0  0  0  0
 40 45  1  0  0  0  0
 41 43  1  0  0  0  0
 41 86  1  0  0  0  0
 42 44  1  0  0  0  0
 42 87  1  0  0  0  0
 43 44  2  0  0  0  0
 43 88  1  0  0  0  0
 44 89  1  0  0  0  0
 45 48  2  0  0  0  0
 45 90  1  0  0  0  0
 46 47  1  0  0  0  0
 46 49  2  0  0  0  0
 47 48  1  0  0  0  0
 47 50  2  0  0  0  0
 48 91  1  0  0  0  0
 49 51  1  0  0  0  0
 49 92  1  0  0  0  0
 50 52  1  0  0  0  0
 50 93  1  0  0  0  0
 51 52  2  0  0  0  0
 51 94  1  0  0  0  0
 52 95  1  0  0  0  0
M  END
> <PUBCHEM_COMPOUND_CID>
503088
> <PUBCHEM_COMPOUND_CANONICALIZED>
1
> <PUBCHEM_CACTVS_COMPLEXITY>
1180
> <PUBCHEM_CACTVS_HBOND_ACCEPTOR>
6
> <PUBCHEM_CACTVS_HBOND_DONOR>
5
> <PUBCHEM_CACTVS_ROTATABLE_BOND>
14
> <PUBCHEM_CACTVS_SUBSKEYS>
AAADcfB/uABAAAAAAAAAAAAAAAAAAWAAAAA8YMGCAAAAAFix/gAAHgQQCAAADLzl3ga+wfLJkgioAzV3VACCgCA3CjAI2bm4ZNgKcPLglbGUYQhklgD4yYeYyeCOgAAAAAAGAAAAAAAAAAwAAAAAAAAAAA==
> <PUBCHEM_IUPAC_OPENEYE_NAME>
N-[(1S)-2-[[(1S,2R)-1-benzyl-3-[2-(tert-butylcarbamoyl)phenyl]sulfanyl-2-hydroxy-propyl]amino]-1-(1H-indol-3-ylmethyl)-2-oxo-ethyl]quinoline-2-carboxamide
> <PUBCHEM_IUPAC_CAS_NAME>
N-[(2S)-1-[[(2S,3R)-4-[[2-[(tert-butylamino)-oxomethyl]phenyl]thio]-3-hydroxy-1-phenylbutan-2-yl]amino]-3-(1H-indol-3-yl)-1-oxopropan-2-yl]-2-quinolinecarboxamide
> <PUBCHEM_IUPAC_NAME_MARKUP>
<I>N</I>-[(2<I>S</I>)-1-[[(2<I>S</I>,3<I>R</I>)-4-[2-(<I>tert</I>-butylcarbamoyl)phenyl]sulfanyl-3-hydroxy-1-phenylbutan-2-yl]amino]-3-(1<I>H</I>-indol-3-yl)-1-oxopropan-2-yl]quinoline-2-carboxamide
> <PUBCHEM_IUPAC_NAME>
N-[(2S)-1-[[(2S,3R)-4-[2-(tert-butylcarbamoyl)phenyl]sulfanyl-3-hydroxy-1-phenylbutan-2-yl]amino]-3-(1H-indol-3-yl)-1-oxopropan-2-yl]quinoline-2-carboxamide
> <PUBCHEM_IUPAC_SYSTEMATIC_NAME>
N-[(2S)-1-[[(2S,3R)-4-[2-(tert-butylcarbamoyl)phenyl]sulfanyl-3-oxidanyl-1-phenyl-butan-2-yl]amino]-3-(1H-indol-3-yl)-1-oxidanylidene-propan-2-yl]quinoline-2-carboxamide
> <PUBCHEM_IUPAC_TRADITIONAL_NAME>
N-[(1S)-2-[[(1S,2R)-1-benzyl-3-[[2-(tert-butylcarbamoyl)phenyl]thio]-2-hydroxy-propyl]amino]-1-(1H-indol-3-ylmethyl)-2-keto-ethyl]quinaldamide
> <PUBCHEM_IUPAC_INCHI>
InChI=1S/C42H43N5O4S/c1-42(2,3)47-39(49)31-17-9-12-20-38(31)52-26-37(48)35(23-27-13-5-4-6-14-27)45-41(51)36(24-29-25-43-33-19-11-8-16-30(29)33)46-40(50)34-22-21-28-15-7-10-18-32(28)44-34/h4-22,25,35-37,43,48H,23-24,26H2,1-3H3,(H,45,51)(H,46,50)(H,47,49)/t35-,36-,37-/m0/s1
> <PUBCHEM_IUPAC_INCHIKEY>
XSFRZVAVXSHWRP-FSEITFBQSA-N
> <PUBCHEM_XLOGP3_AA>
7.1
> <PUBCHEM_EXACT_MASS>
713.30357604
> <PUBCHEM_MOLECULAR_FORMULA>
C42H43N5O4S
> <PUBCHEM_MOLECULAR_WEIGHT>
713.9
> <PUBCHEM_OPENEYE_CAN_SMILES>
CC(C)(C)NC(=O)C1=CC=CC=C1SCC(C(CC2=CC=CC=C2)NC(=O)C(CC3=CNC4=CC=CC=C43)NC(=O)C5=NC6=CC=CC=C6C=C5)O
> <PUBCHEM_OPENEYE_ISO_SMILES>
CC(C)(C)NC(=O)C1=CC=CC=C1SC[C@@H]([C@H](CC2=CC=CC=C2)NC(=O)[C@H](CC3=CNC4=CC=CC=C43)NC(=O)C5=NC6=CC=CC=C6C=C5)O
> <PUBCHEM_CACTVS_TPSA>
162
> <PUBCHEM_MONOISOTOPIC_WEIGHT>
713.30357604
> <PUBCHEM_TOTAL_CHARGE>
0
> <PUBCHEM_HEAVY_ATOM_COUNT>
52
> <PUBCHEM_ATOM_DEF_STEREO_COUNT>
3
> <PUBCHEM_ATOM_UDEF_STEREO_COUNT>
0
> <PUBCHEM_BOND_DEF_STEREO_COUNT>
0
> <PUBCHEM_BOND_UDEF_STEREO_COUNT>
0
> <PUBCHEM_ISOTOPIC_ATOM_COUNT>
0
> <PUBCHEM_COMPONENT_COUNT>
1
> <PUBCHEM_CACTVS_TAUTO_COUNT>
-1
> <PUBCHEM_COORDINATE_TYPE>
1
5
255
> <PUBCHEM_BONDANNOTATIONS>
10  40  8
10  46  8
18  20  8
18  22  8
19  23  8
19  24  8
12  2  6
20  21  8
20  26  8
21  29  8
23  31  8
24  32  8
26  33  8
28  30  8
28  41  8
29  34  8
30  42  8
31  39  8
32  39  8
33  34  8
40  45  8
41  43  8
42  44  8
43  44  8
45  48  8
46  47  8
46  49  8
47  48  8
47  50  8
49  51  8
50  52  8
51  52  8
11  6  6
14  7  6
8  21  8
8  22  8
$$$$
