503002
  -OEChem-10302200282D
112113  0     1  0  0  0  0  0999 V2000
    7.1962    5.5950    0.0000 O   0  0  0  0  0  0  0  0  0  0  0  0
    5.4641    2.5950    0.0000 O   0  0  0  0  0  0  0  0  0  0  0  0
    6.3301   -0.9050    0.0000 O   0  0  0  0  0  0  0  0  0  0  0  0
    8.0622    5.0950    0.0000 O   0  0  0  0  0  0  0  0  0  0  0  0
    2.8660   -1.9050    0.0000 O   0  0  0  0  0  0  0  0  0  0  0  0
   11.5263    4.0950    0.0000 O   0  0  0  0  0  0  0  0  0  0  0  0
   10.6603    6.5950    0.0000 O   0  0  0  0  0  0  0  0  0  0  0  0
   11.5263    5.0950    0.0000 O   0  0  0  0  0  0  0  0  0  0  0  0
    5.4641    5.5950    0.0000 N   0  0  0  0  0  0  0  0  0  0  0  0
    5.4641    0.5950    0.0000 N   0  0  0  0  0  0  0  0  0  0  0  0
    7.1962    2.5950    0.0000 N   0  0  0  0  0  0  0  0  0  0  0  0
    4.5981   -1.9050    0.0000 N   0  0  0  0  0  0  0  0  0  0  0  0
    8.9282    3.5950    0.0000 N   0  0  0  0  0  0  0  0  0  0  0  0
   10.6603    2.5950    0.0000 N   0  0  0  0  0  0  0  0  0  0  0  0
    6.3301    1.0950    0.0000 C   0  0  1  0  0  0  0  0  0  0  0  0
    7.1962    0.5950    0.0000 C   0  0  2  0  0  0  0  0  0  0  0  0
    5.3596    6.5895    0.0000 C   0  0  0  0  0  0  0  0  0  0  0  0
    4.5506    5.1883    0.0000 C   0  0  0  0  0  0  0  0  0  0  0  0
    4.3814    6.7974    0.0000 C   0  0  0  0  0  0  0  0  0  0  0  0
    3.8814    5.9314    0.0000 C   0  0  0  0  0  0  0  0  0  0  0  0
    4.5981   -0.9050    0.0000 C   0  0  1  0  0  0  0  0  0  0  0  0
    7.1962    3.5950    0.0000 C   0  0  1  0  0  0  0  0  0  0  0  0
    6.3301    4.0950    0.0000 C   0  0  0  0  0  0  0  0  0  0  0  0
    6.3301    5.0950    0.0000 C   0  0  0  0  0  0  0  0  0  0  0  0
    3.7320   -0.4050    0.0000 C   0  0  0  0  0  0  0  0  0  0  0  0
    8.0622    1.0950    0.0000 C   0  0  0  0  0  0  0  0  0  0  0  0
    6.3301    2.0950    0.0000 C   0  0  0  0  0  0  0  0  0  0  0  0
    5.4641   -0.4050    0.0000 C   0  0  0  0  0  0  0  0  0  0  0  0
    7.1962   -0.4050    0.0000 C   0  0  0  0  0  0  0  0  0  0  0  0
    8.0622    4.0950    0.0000 C   0  0  0  0  0  0  0  0  0  0  0  0
    3.7320    0.5950    0.0000 C   0  0  0  0  0  0  0  0  0  0  0  0
    2.8660   -0.9050    0.0000 C   0  0  0  0  0  0  0  0  0  0  0  0
    8.9282    0.5950    0.0000 C   0  0  0  0  0  0  0  0  0  0  0  0
    3.7320   -2.4050    0.0000 C   0  0  0  0  0  0  0  0  0  0  0  0
    5.4641   -2.4050    0.0000 C   0  0  0  0  0  0  0  0  0  0  0  0
    9.7942    4.0950    0.0000 C   0  0  1  0  0  0  0  0  0  0  0  0
    3.7320   -3.4050    0.0000 C   0  0  0  0  0  0  0  0  0  0  0  0
    9.7942    5.0950    0.0000 C   0  0  0  0  0  0  0  0  0  0  0  0
    2.8660   -3.9050    0.0000 C   0  0  0  0  0  0  0  0  0  0  0  0
   10.6603    3.5950    0.0000 C   0  0  0  0  0  0  0  0  0  0  0  0
   11.5263    2.0950    0.0000 C   0  0  0  0  0  0  0  0  0  0  0  0
   11.5263    1.0950    0.0000 C   0  0  0  0  0  0  0  0  0  0  0  0
   12.3923    0.5950    0.0000 C   0  0  0  0  0  0  0  0  0  0  0  0
    2.8660   -4.9050    0.0000 C   0  0  0  0  0  0  0  0  0  0  0  0
   10.6603    5.5950    0.0000 C   0  0  0  0  0  0  0  0  0  0  0  0
   12.3923   -0.4050    0.0000 C   0  0  0  0  0  0  0  0  0  0  0  0
   13.2583    1.0950    0.0000 C   0  0  0  0  0  0  0  0  0  0  0  0
    3.7320   -5.4050    0.0000 C   0  0  0  0  0  0  0  0  0  0  0  0
    2.0000   -5.4050    0.0000 C   0  0  0  0  0  0  0  0  0  0  0  0
    3.7320   -6.4050    0.0000 C   0  0  0  0  0  0  0  0  0  0  0  0
    2.0000   -6.4050    0.0000 C   0  0  0  0  0  0  0  0  0  0  0  0
    2.8660   -6.9050    0.0000 C   0  0  0  0  0  0  0  0  0  0  0  0
    5.7932    1.4050    0.0000 H   0  0  0  0  0  0  0  0  0  0  0  0
    6.6592    0.2850    0.0000 H   0  0  0  0  0  0  0  0  0  0  0  0
    5.9796    6.5895    0.0000 H   0  0  0  0  0  0  0  0  0  0  0  0
    5.4244    7.2061    0.0000 H   0  0  0  0  0  0  0  0  0  0  0  0
    4.0490    4.8238    0.0000 H   0  0  0  0  0  0  0  0  0  0  0  0
    4.8606    4.6513    0.0000 H   0  0  0  0  0  0  0  0  0  0  0  0
    4.5730    7.3871    0.0000 H   0  0  0  0  0  0  0  0  0  0  0  0
    3.8150    7.0496    0.0000 H   0  0  0  0  0  0  0  0  0  0  0  0
    3.3798    6.2958    0.0000 H   0  0  0  0  0  0  0  0  0  0  0  0
    3.4666    5.4707    0.0000 H   0  0  0  0  0  0  0  0  0  0  0  0
    5.1350   -1.2150    0.0000 H   0  0  0  0  0  0  0  0  0  0  0  0
    6.6592    3.2850    0.0000 H   0  0  0  0  0  0  0  0  0  0  0  0
    5.7196    4.2027    0.0000 H   0  0  0  0  0  0  0  0  0  0  0  0
    6.1181    3.5124    0.0000 H   0  0  0  0  0  0  0  0  0  0  0  0
    3.7320   -1.0250    0.0000 H   0  0  0  0  0  0  0  0  0  0  0  0
    8.4607    1.5700    0.0000 H   0  0  0  0  0  0  0  0  0  0  0  0
    7.6636    1.5700    0.0000 H   0  0  0  0  0  0  0  0  0  0  0  0
    4.9272    0.9050    0.0000 H   0  0  0  0  0  0  0  0  0  0  0  0
    7.7331    2.2850    0.0000 H   0  0  0  0  0  0  0  0  0  0  0  0
    6.5762   -0.4050    0.0000 H   0  0  0  0  0  0  0  0  0  0  0  0
    7.1962   -1.0250    0.0000 H   0  0  0  0  0  0  0  0  0  0  0  0
    7.8162   -0.4050    0.0000 H   0  0  0  0  0  0  0  0  0  0  0  0
    4.3520    0.5950    0.0000 H   0  0  0  0  0  0  0  0  0  0  0  0
    3.7320    1.2150    0.0000 H   0  0  0  0  0  0  0  0  0  0  0  0
    3.1120    0.5950    0.0000 H   0  0  0  0  0  0  0  0  0  0  0  0
    2.5560   -0.3681    0.0000 H   0  0  0  0  0  0  0  0  0  0  0  0
    2.3291   -1.2150    0.0000 H   0  0  0  0  0  0  0  0  0  0  0  0
    3.1760   -1.4419    0.0000 H   0  0  0  0  0  0  0  0  0  0  0  0
    8.6182    0.0581    0.0000 H   0  0  0  0  0  0  0  0  0  0  0  0
    9.4651    0.2850    0.0000 H   0  0  0  0  0  0  0  0  0  0  0  0
    9.2382    1.1319    0.0000 H   0  0  0  0  0  0  0  0  0  0  0  0
    8.9282    2.9750    0.0000 H   0  0  0  0  0  0  0  0  0  0  0  0
    5.1541   -2.9419    0.0000 H   0  0  0  0  0  0  0  0  0  0  0  0
    6.0010   -2.7150    0.0000 H   0  0  0  0  0  0  0  0  0  0  0  0
    5.7741   -1.8681    0.0000 H   0  0  0  0  0  0  0  0  0  0  0  0
    9.7942    3.4750    0.0000 H   0  0  0  0  0  0  0  0  0  0  0  0
    3.9441   -3.9876    0.0000 H   0  0  0  0  0  0  0  0  0  0  0  0
    4.3426   -3.2973    0.0000 H   0  0  0  0  0  0  0  0  0  0  0  0
    9.5822    5.6776    0.0000 H   0  0  0  0  0  0  0  0  0  0  0  0
    9.1836    4.9873    0.0000 H   0  0  0  0  0  0  0  0  0  0  0  0
    2.6540   -3.3224    0.0000 H   0  0  0  0  0  0  0  0  0  0  0  0
    2.2554   -4.0127    0.0000 H   0  0  0  0  0  0  0  0  0  0  0  0
   12.1369    1.9873    0.0000 H   0  0  0  0  0  0  0  0  0  0  0  0
   11.7383    2.6776    0.0000 H   0  0  0  0  0  0  0  0  0  0  0  0
   10.9157    1.2027    0.0000 H   0  0  0  0  0  0  0  0  0  0  0  0
   11.3142    0.5124    0.0000 H   0  0  0  0  0  0  0  0  0  0  0  0
   10.1233    2.2850    0.0000 H   0  0  0  0  0  0  0  0  0  0  0  0
   11.8554    0.2850    0.0000 H   0  0  0  0  0  0  0  0  0  0  0  0
   11.7723   -0.4050    0.0000 H   0  0  0  0  0  0  0  0  0  0  0  0
   12.3923   -1.0250    0.0000 H   0  0  0  0  0  0  0  0  0  0  0  0
   13.0123   -0.4050    0.0000 H   0  0  0  0  0  0  0  0  0  0  0  0
   13.5683    0.5581    0.0000 H   0  0  0  0  0  0  0  0  0  0  0  0
   13.7953    1.4050    0.0000 H   0  0  0  0  0  0  0  0  0  0  0  0
   12.9483    1.6319    0.0000 H   0  0  0  0  0  0  0  0  0  0  0  0
    4.2690   -5.0950    0.0000 H   0  0  0  0  0  0  0  0  0  0  0  0
    1.4631   -5.0950    0.0000 H   0  0  0  0  0  0  0  0  0  0  0  0
    4.2690   -6.7150    0.0000 H   0  0  0  0  0  0  0  0  0  0  0  0
    1.4631   -6.7150    0.0000 H   0  0  0  0  0  0  0  0  0  0  0  0
   11.1972    6.9050    0.0000 H   0  0  0  0  0  0  0  0  0  0  0  0
    2.8660   -7.5250    0.0000 H   0  0  0  0  0  0  0  0  0  0  0  0
  1 24  2  0  0  0  0
  2 27  2  0  0  0  0
  3 28  2  0  0  0  0
  4 30  2  0  0  0  0
  5 34  2  0  0  0  0
  6 40  2  0  0  0  0
  7 45  1  0  0  0  0
  7111  1  0  0  0  0
  8 45  2  0  0  0  0
  9 17  1  0  0  0  0
  9 18  1  0  0  0  0
  9 24  1  0  0  0  0
 15 10  1  6  0  0  0
 10 28  1  0  0  0  0
 10 70  1  0  0  0  0
 22 11  1  1  0  0  0
 11 27  1  0  0  0  0
 11 71  1  0  0  0  0
 21 12  1  1  0  0  0
 12 34  1  0  0  0  0
 12 35  1  0  0  0  0
 13 30  1  0  0  0  0
 36 13  1  1  0  0  0
 13 84  1  0  0  0  0
 14 40  1  0  0  0  0
 14 41  1  0  0  0  0
 14 99  1  0  0  0  0
 15 16  1  0  0  0  0
 15 27  1  0  0  0  0
 15 53  1  0  0  0  0
 16 26  1  0  0  0  0
 16 29  1  6  0  0  0
 16 54  1  0  0  0  0
 17 19  1  0  0  0  0
 17 55  1  0  0  0  0
 17 56  1  0  0  0  0
 18 20  1  0  0  0  0
 18 57  1  0  0  0  0
 18 58  1  0  0  0  0
 19 20  1  0  0  0  0
 19 59  1  0  0  0  0
 19 60  1  0  0  0  0
 20 61  1  0  0  0  0
 20 62  1  0  0  0  0
 21 25  1  0  0  0  0
 21 28  1  0  0  0  0
 21 63  1  0  0  0  0
 22 23  1  0  0  0  0
 22 30  1  0  0  0  0
 22 64  1  0  0  0  0
 23 24  1  0  0  0  0
 23 65  1  0  0  0  0
 23 66  1  0  0  0  0
 25 31  1  0  0  0  0
 25 32  1  0  0  0  0
 25 67  1  0  0  0  0
 26 33  1  0  0  0  0
 26 68  1  0  0  0  0
 26 69  1  0  0  0  0
 29 72  1  0  0  0  0
 29 73  1  0  0  0  0
 29 74  1  0  0  0  0
 31 75  1  0  0  0  0
 31 76  1  0  0  0  0
 31 77  1  0  0  0  0
 32 78  1  0  0  0  0
 32 79  1  0  0  0  0
 32 80  1  0  0  0  0
 33 81  1  0  0  0  0
 33 82  1  0  0  0  0
 33 83  1  0  0  0  0
 34 37  1  0  0  0  0
 35 85  1  0  0  0  0
 35 86  1  0  0  0  0
 35 87  1  0  0  0  0
 36 38  1  0  0  0  0
 36 40  1  0  0  0  0
 36 88  1  0  0  0  0
 37 39  1  0  0  0  0
 37 89  1  0  0  0  0
 37 90  1  0  0  0  0
 38 45  1  0  0  0  0
 38 91  1  0  0  0  0
 38 92  1  0  0  0  0
 39 44  1  0  0  0  0
 39 93  1  0  0  0  0
 39 94  1  0  0  0  0
 41 42  1  0  0  0  0
 41 95  1  0  0  0  0
 41 96  1  0  0  0  0
 42 43  1  0  0  0  0
 42 97  1  0  0  0  0
 42 98  1  0  0  0  0
 43 46  1  0  0  0  0
 43 47  1  0  0  0  0
 43100  1  0  0  0  0
 44 48  2  0  0  0  0
 44 49  1  0  0  0  0
 46101  1  0  0  0  0
 46102  1  0  0  0  0
 46103  1  0  0  0  0
 47104  1  0  0  0  0
 47105  1  0  0  0  0
 47106  1  0  0  0  0
 48 50  1  0  0  0  0
 48107  1  0  0  0  0
 49 51  2  0  0  0  0
 49108  1  0  0  0  0
 50 52  2  0  0  0  0
 50109  1  0  0  0  0
 51 52  1  0  0  0  0
 51110  1  0  0  0  0
 52112  1  0  0  0  0
M  END
> <PUBCHEM_COMPOUND_CID>
503002
> <PUBCHEM_COMPOUND_CANONICALIZED>
1
> <PUBCHEM_CACTVS_COMPLEXITY>
1210
> <PUBCHEM_CACTVS_HBOND_ACCEPTOR>
8
> <PUBCHEM_CACTVS_HBOND_DONOR>
5
> <PUBCHEM_CACTVS_ROTATABLE_BOND>
21
> <PUBCHEM_CACTVS_SUBSKEYS>
AAADcfB/vAAAAAAAAAAAAAAAAAAAAWAAAAAwAAAAAAAAAAABAAAAHgAQCAAADSjBmAQyCIPAAgCIAiHSGAACAAAgAAAIiIGIAIgIYDqA0TCUYAAmlgCIiAc/iICOAAAAAAAAAAAAAAAAAAAAAAAAAAAAAA==
> <PUBCHEM_IUPAC_OPENEYE_NAME>
(3S)-4-(isopentylamino)-3-[[(2S)-2-[[(2S,3S)-3-methyl-2-[[(2S)-3-methyl-2-[methyl(3-phenylpropanoyl)amino]butanoyl]amino]pentanoyl]amino]-4-oxo-4-pyrrolidin-1-yl-butanoyl]amino]-4-oxo-butanoic acid
> <PUBCHEM_IUPAC_CAS_NAME>
(3S)-4-(3-methylbutylamino)-3-[[(2S)-2-[[(2S,3S)-3-methyl-2-[[(2S)-3-methyl-2-[methyl-(1-oxo-3-phenylpropyl)amino]-1-oxobutyl]amino]-1-oxopentyl]amino]-1,4-dioxo-4-(1-pyrrolidinyl)butyl]amino]-4-oxobutanoic acid
> <PUBCHEM_IUPAC_NAME_MARKUP>
(3<I>S</I>)-4-(3-methylbutylamino)-3-[[(2<I>S</I>)-2-[[(2<I>S</I>,3<I>S</I>)-3-methyl-2-[[(2<I>S</I>)-3-methyl-2-[methyl(3-phenylpropanoyl)amino]butanoyl]amino]pentanoyl]amino]-4-oxo-4-pyrrolidin-1-ylbutanoyl]amino]-4-oxobutanoic acid
> <PUBCHEM_IUPAC_NAME>
(3S)-4-(3-methylbutylamino)-3-[[(2S)-2-[[(2S,3S)-3-methyl-2-[[(2S)-3-methyl-2-[methyl(3-phenylpropanoyl)amino]butanoyl]amino]pentanoyl]amino]-4-oxo-4-pyrrolidin-1-ylbutanoyl]amino]-4-oxobutanoic acid
> <PUBCHEM_IUPAC_SYSTEMATIC_NAME>
(3S)-4-(3-methylbutylamino)-3-[[(2S)-2-[[(2S,3S)-3-methyl-2-[[(2S)-3-methyl-2-[methyl(3-phenylpropanoyl)amino]butanoyl]amino]pentanoyl]amino]-4-oxidanylidene-4-pyrrolidin-1-yl-butanoyl]amino]-4-oxidanylidene-butanoic acid
> <PUBCHEM_IUPAC_TRADITIONAL_NAME>
(3S)-3-[[(2S)-2-[[(2S,3S)-2-[[(2S)-2-[hydrocinnamoyl(methyl)amino]-3-methyl-butanoyl]amino]-3-methyl-pentanoyl]amino]-4-keto-4-pyrrolidino-butanoyl]amino]-4-(isoamylamino)-4-keto-butyric acid
> <PUBCHEM_IUPAC_INCHI>
InChI=1S/C38H60N6O8/c1-8-26(6)33(42-38(52)34(25(4)5)43(7)30(45)17-16-27-14-10-9-11-15-27)37(51)41-28(22-31(46)44-20-12-13-21-44)36(50)40-29(23-32(47)48)35(49)39-19-18-24(2)3/h9-11,14-15,24-26,28-29,33-34H,8,12-13,16-23H2,1-7H3,(H,39,49)(H,40,50)(H,41,51)(H,42,52)(H,47,48)/t26-,28-,29-,33-,34-/m0/s1
> <PUBCHEM_IUPAC_INCHIKEY>
ZOOXCYPFUHETCB-YTYIDKSRSA-N
> <PUBCHEM_XLOGP3_AA>
3.3
> <PUBCHEM_EXACT_MASS>
728.44726289
> <PUBCHEM_MOLECULAR_FORMULA>
C38H60N6O8
> <PUBCHEM_MOLECULAR_WEIGHT>
728.9
> <PUBCHEM_OPENEYE_CAN_SMILES>
CCC(C)C(C(=O)NC(CC(=O)N1CCCC1)C(=O)NC(CC(=O)O)C(=O)NCCC(C)C)NC(=O)C(C(C)C)N(C)C(=O)CCC2=CC=CC=C2
> <PUBCHEM_OPENEYE_ISO_SMILES>
CC[C@H](C)[C@@H](C(=O)N[C@@H](CC(=O)N1CCCC1)C(=O)N[C@@H](CC(=O)O)C(=O)NCCC(C)C)NC(=O)[C@H](C(C)C)N(C)C(=O)CCC2=CC=CC=C2
> <PUBCHEM_CACTVS_TPSA>
194
> <PUBCHEM_MONOISOTOPIC_WEIGHT>
728.44726289
> <PUBCHEM_TOTAL_CHARGE>
0
> <PUBCHEM_HEAVY_ATOM_COUNT>
52
> <PUBCHEM_ATOM_DEF_STEREO_COUNT>
5
> <PUBCHEM_ATOM_UDEF_STEREO_COUNT>
0
> <PUBCHEM_BOND_DEF_STEREO_COUNT>
0
> <PUBCHEM_BOND_UDEF_STEREO_COUNT>
0
> <PUBCHEM_ISOTOPIC_ATOM_COUNT>
0
> <PUBCHEM_COMPONENT_COUNT>
1
> <PUBCHEM_CACTVS_TAUTO_COUNT>
-1
> <PUBCHEM_COORDINATE_TYPE>
1
5
255
> <PUBCHEM_BONDANNOTATIONS>
15  10  6
22  11  5
21  12  5
36  13  5
16  29  6
44  48  8
44  49  8
48  50  8
49  51  8
50  52  8
51  52  8
$$$$
