503095
  -OEChem-10302200282D
 88 91  0     1  0  0  0  0  0999 V2000
    8.9962    0.4720    0.0000 O   0  0  0  0  0  0  0  0  0  0  0  0
   10.7282    1.4720    0.0000 O   0  0  0  0  0  0  0  0  0  0  0  0
    9.8622   -3.0280    0.0000 O   0  0  0  0  0  0  0  0  0  0  0  0
    9.8622    2.9720    0.0000 O   0  0  0  0  0  0  0  0  0  0  0  0
    9.8622   -4.0280    0.0000 O   0  0  0  0  0  0  0  0  0  0  0  0
    6.3981   -4.0280    0.0000 O   0  0  0  0  0  0  0  0  0  0  0  0
    8.9962   -1.5280    0.0000 N   0  0  0  0  0  0  0  0  0  0  0  0
    7.2641   -2.5280    0.0000 N   0  0  0  0  0  0  0  0  0  0  0  0
   10.7282    4.4720    0.0000 N   0  0  0  0  0  0  0  0  0  0  0  0
    8.9962   -5.5280    0.0000 N   0  0  0  0  0  0  0  0  0  0  0  0
    4.6660   -3.0280    0.0000 N   0  0  0  0  0  0  0  0  0  0  0  0
    9.8622   -1.0280    0.0000 C   0  0  1  0  0  0  0  0  0  0  0  0
   10.7282   -1.5280    0.0000 C   0  0  0  0  0  0  0  0  0  0  0  0
    9.8622   -0.0280    0.0000 C   0  0  1  0  0  0  0  0  0  0  0  0
   11.5942   -1.0280    0.0000 C   0  0  0  0  0  0  0  0  0  0  0  0
   10.7282    0.4720    0.0000 C   0  0  0  0  0  0  0  0  0  0  0  0
    8.9962   -2.5280    0.0000 C   0  0  0  0  0  0  0  0  0  0  0  0
    8.1301   -3.0280    0.0000 C   0  0  2  0  0  0  0  0  0  0  0  0
   12.4603   -1.5280    0.0000 C   0  0  0  0  0  0  0  0  0  0  0  0
    8.1301   -4.0280    0.0000 C   0  0  0  0  0  0  0  0  0  0  0  0
   11.5942    4.9720    0.0000 C   0  0  0  0  0  0  0  0  0  0  0  0
   12.4603   -2.5280    0.0000 C   0  0  0  0  0  0  0  0  0  0  0  0
   13.3263   -1.0280    0.0000 C   0  0  0  0  0  0  0  0  0  0  0  0
   11.5942    1.9720    0.0000 C   0  0  0  0  0  0  0  0  0  0  0  0
   11.5942    2.9720    0.0000 C   0  0  0  0  0  0  0  0  0  0  0  0
   12.4603    5.4720    0.0000 C   0  0  0  0  0  0  0  0  0  0  0  0
   11.0942    5.8380    0.0000 C   0  0  0  0  0  0  0  0  0  0  0  0
   12.0942    4.1060    0.0000 C   0  0  0  0  0  0  0  0  0  0  0  0
   10.7282    3.4720    0.0000 C   0  0  0  0  0  0  0  0  0  0  0  0
    8.9962   -4.5280    0.0000 C   0  0  0  0  0  0  0  0  0  0  0  0
   13.3263   -3.0280    0.0000 C   0  0  0  0  0  0  0  0  0  0  0  0
   14.1923   -1.5280    0.0000 C   0  0  0  0  0  0  0  0  0  0  0  0
    6.3981   -3.0280    0.0000 C   0  0  0  0  0  0  0  0  0  0  0  0
   12.4603    1.4720    0.0000 C   0  0  0  0  0  0  0  0  0  0  0  0
   14.1923   -2.5280    0.0000 C   0  0  0  0  0  0  0  0  0  0  0  0
   12.4603    3.4720    0.0000 C   0  0  0  0  0  0  0  0  0  0  0  0
   13.3263    1.9720    0.0000 C   0  0  0  0  0  0  0  0  0  0  0  0
    5.5321   -2.5280    0.0000 C   0  0  0  0  0  0  0  0  0  0  0  0
   13.3263    2.9720    0.0000 C   0  0  0  0  0  0  0  0  0  0  0  0
    5.5321   -1.5280    0.0000 C   0  0  0  0  0  0  0  0  0  0  0  0
    3.8000   -2.5280    0.0000 C   0  0  0  0  0  0  0  0  0  0  0  0
    3.8000   -1.5280    0.0000 C   0  0  0  0  0  0  0  0  0  0  0  0
    4.6660   -1.0280    0.0000 C   0  0  0  0  0  0  0  0  0  0  0  0
    2.9061   -3.0627    0.0000 C   0  0  0  0  0  0  0  0  0  0  0  0
    2.9061   -0.9934    0.0000 C   0  0  0  0  0  0  0  0  0  0  0  0
    2.0000   -2.5488    0.0000 C   0  0  0  0  0  0  0  0  0  0  0  0
    2.0000   -1.5072    0.0000 C   0  0  0  0  0  0  0  0  0  0  0  0
    9.8622   -1.6480    0.0000 H   0  0  0  0  0  0  0  0  0  0  0  0
   10.3297   -2.0030    0.0000 H   0  0  0  0  0  0  0  0  0  0  0  0
   11.1267   -2.0030    0.0000 H   0  0  0  0  0  0  0  0  0  0  0  0
    9.3252   -0.3380    0.0000 H   0  0  0  0  0  0  0  0  0  0  0  0
   11.9928   -0.5531    0.0000 H   0  0  0  0  0  0  0  0  0  0  0  0
   11.1957   -0.5531    0.0000 H   0  0  0  0  0  0  0  0  0  0  0  0
    8.4592   -1.2180    0.0000 H   0  0  0  0  0  0  0  0  0  0  0  0
   10.9403   -0.1106    0.0000 H   0  0  0  0  0  0  0  0  0  0  0  0
   11.3388    0.5796    0.0000 H   0  0  0  0  0  0  0  0  0  0  0  0
    7.5932   -3.3380    0.0000 H   0  0  0  0  0  0  0  0  0  0  0  0
    8.9962    1.0920    0.0000 H   0  0  0  0  0  0  0  0  0  0  0  0
    7.5196   -3.9204    0.0000 H   0  0  0  0  0  0  0  0  0  0  0  0
    7.9181   -4.6106    0.0000 H   0  0  0  0  0  0  0  0  0  0  0  0
    7.2641   -1.9080    0.0000 H   0  0  0  0  0  0  0  0  0  0  0  0
   11.9233   -2.8380    0.0000 H   0  0  0  0  0  0  0  0  0  0  0  0
   13.3263   -0.4080    0.0000 H   0  0  0  0  0  0  0  0  0  0  0  0
   10.1913    4.7820    0.0000 H   0  0  0  0  0  0  0  0  0  0  0  0
   12.7703    4.9351    0.0000 H   0  0  0  0  0  0  0  0  0  0  0  0
   12.9972    5.7820    0.0000 H   0  0  0  0  0  0  0  0  0  0  0  0
   12.1503    6.0089    0.0000 H   0  0  0  0  0  0  0  0  0  0  0  0
   11.6312    6.1480    0.0000 H   0  0  0  0  0  0  0  0  0  0  0  0
   10.7842    6.3750    0.0000 H   0  0  0  0  0  0  0  0  0  0  0  0
   10.5573    5.5280    0.0000 H   0  0  0  0  0  0  0  0  0  0  0  0
   11.5573    3.7960    0.0000 H   0  0  0  0  0  0  0  0  0  0  0  0
   12.4042    3.5690    0.0000 H   0  0  0  0  0  0  0  0  0  0  0  0
   12.6312    4.4160    0.0000 H   0  0  0  0  0  0  0  0  0  0  0  0
   13.3263   -3.6480    0.0000 H   0  0  0  0  0  0  0  0  0  0  0  0
   14.7292   -1.2180    0.0000 H   0  0  0  0  0  0  0  0  0  0  0  0
   12.4603    0.8520    0.0000 H   0  0  0  0  0  0  0  0  0  0  0  0
   14.7292   -2.8380    0.0000 H   0  0  0  0  0  0  0  0  0  0  0  0
   12.4603    4.0920    0.0000 H   0  0  0  0  0  0  0  0  0  0  0  0
   13.8632    1.6620    0.0000 H   0  0  0  0  0  0  0  0  0  0  0  0
   13.8632    3.2820    0.0000 H   0  0  0  0  0  0  0  0  0  0  0  0
    9.5331   -5.8380    0.0000 H   0  0  0  0  0  0  0  0  0  0  0  0
    8.4592   -5.8380    0.0000 H   0  0  0  0  0  0  0  0  0  0  0  0
    6.0690   -1.2180    0.0000 H   0  0  0  0  0  0  0  0  0  0  0  0
    4.6660   -0.4080    0.0000 H   0  0  0  0  0  0  0  0  0  0  0  0
    2.9132   -3.6826    0.0000 H   0  0  0  0  0  0  0  0  0  0  0  0
    2.9132   -0.3734    0.0000 H   0  0  0  0  0  0  0  0  0  0  0  0
    1.4643   -2.8609    0.0000 H   0  0  0  0  0  0  0  0  0  0  0  0
    1.4643   -1.1951    0.0000 H   0  0  0  0  0  0  0  0  0  0  0  0
 14  1  1  6  0  0  0
  1 58  1  0  0  0  0
  2 16  1  0  0  0  0
  2 24  1  0  0  0  0
  3 17  2  0  0  0  0
  4 29  2  0  0  0  0
  5 30  2  0  0  0  0
  6 33  2  0  0  0  0
 12  7  1  6  0  0  0
  7 17  1  0  0  0  0
  7 54  1  0  0  0  0
 18  8  1  6  0  0  0
  8 33  1  0  0  0  0
  8 61  1  0  0  0  0
  9 21  1  0  0  0  0
  9 29  1  0  0  0  0
  9 64  1  0  0  0  0
 10 30  1  0  0  0  0
 10 81  1  0  0  0  0
 10 82  1  0  0  0  0
 11 38  2  0  0  0  0
 11 41  1  0  0  0  0
 12 13  1  0  0  0  0
 12 14  1  0  0  0  0
 12 48  1  0  0  0  0
 13 15  1  0  0  0  0
 13 49  1  0  0  0  0
 13 50  1  0  0  0  0
 14 16  1  0  0  0  0
 14 51  1  0  0  0  0
 15 19  1  0  0  0  0
 15 52  1  0  0  0  0
 15 53  1  0  0  0  0
 16 55  1  0  0  0  0
 16 56  1  0  0  0  0
 17 18  1  0  0  0  0
 18 20  1  0  0  0  0
 18 57  1  0  0  0  0
 19 22  2  0  0  0  0
 19 23  1  0  0  0  0
 20 30  1  0  0  0  0
 20 59  1  0  0  0  0
 20 60  1  0  0  0  0
 21 26  1  0  0  0  0
 21 27  1  0  0  0  0
 21 28  1  0  0  0  0
 22 31  1  0  0  0  0
 22 62  1  0  0  0  0
 23 32  2  0  0  0  0
 23 63  1  0  0  0  0
 24 25  1  0  0  0  0
 24 34  2  0  0  0  0
 25 29  1  0  0  0  0
 25 36  2  0  0  0  0
 26 65  1  0  0  0  0
 26 66  1  0  0  0  0
 26 67  1  0  0  0  0
 27 68  1  0  0  0  0
 27 69  1  0  0  0  0
 27 70  1  0  0  0  0
 28 71  1  0  0  0  0
 28 72  1  0  0  0  0
 28 73  1  0  0  0  0
 31 35  2  0  0  0  0
 31 74  1  0  0  0  0
 32 35  1  0  0  0  0
 32 75  1  0  0  0  0
 33 38  1  0  0  0  0
 34 37  1  0  0  0  0
 34 76  1  0  0  0  0
 35 77  1  0  0  0  0
 36 39  1  0  0  0  0
 36 78  1  0  0  0  0
 37 39  2  0  0  0  0
 37 79  1  0  0  0  0
 38 40  1  0  0  0  0
 39 80  1  0  0  0  0
 40 43  2  0  0  0  0
 40 83  1  0  0  0  0
 41 42  1  0  0  0  0
 41 44  2  0  0  0  0
 42 43  1  0  0  0  0
 42 45  2  0  0  0  0
 43 84  1  0  0  0  0
 44 46  1  0  0  0  0
 44 85  1  0  0  0  0
 45 47  1  0  0  0  0
 45 86  1  0  0  0  0
 46 47  2  0  0  0  0
 46 87  1  0  0  0  0
 47 88  1  0  0  0  0
M  END
> <PUBCHEM_COMPOUND_CID>
503095
> <PUBCHEM_COMPOUND_CANONICALIZED>
1
> <PUBCHEM_CACTVS_COMPLEXITY>
1040
> <PUBCHEM_CACTVS_HBOND_ACCEPTOR>
7
> <PUBCHEM_CACTVS_HBOND_DONOR>
5
> <PUBCHEM_CACTVS_ROTATABLE_BOND>
15
> <PUBCHEM_CACTVS_SUBSKEYS>
AAADcfB/uAAAAAAAAAAAAAAAAAAAAAAAAAA8YMEAAAAAAACx9AAAHgAQCAAADLzhngYyxvLIFgCoAyVyVACCiCAnIiAImKG+bNgPdv7E9buWeWjm9hHb6YedyPCOAAAAAAAKAAAAAAAAABQAAAAAAAAAAA==
> <PUBCHEM_IUPAC_OPENEYE_NAME>
(2S)-N-[(1S,2S)-3-[2-(tert-butylcarbamoyl)phenoxy]-2-hydroxy-1-(2-phenylethyl)propyl]-2-(quinoline-2-carbonylamino)butanediamide
> <PUBCHEM_IUPAC_CAS_NAME>
(2S)-N-[(2S,3S)-1-[2-[(tert-butylamino)-oxomethyl]phenoxy]-2-hydroxy-5-phenylpentan-3-yl]-2-[[oxo(2-quinolinyl)methyl]amino]butanediamide
> <PUBCHEM_IUPAC_NAME_MARKUP>
(2<I>S</I>)-<I>N</I>-[(2<I>S</I>,3<I>S</I>)-1-[2-(<I>tert</I>-butylcarbamoyl)phenoxy]-2-hydroxy-5-phenylpentan-3-yl]-2-(quinoline-2-carbonylamino)butanediamide
> <PUBCHEM_IUPAC_NAME>
(2S)-N-[(2S,3S)-1-[2-(tert-butylcarbamoyl)phenoxy]-2-hydroxy-5-phenylpentan-3-yl]-2-(quinoline-2-carbonylamino)butanediamide
> <PUBCHEM_IUPAC_SYSTEMATIC_NAME>
(2S)-N-[(2S,3S)-1-[2-(tert-butylcarbamoyl)phenoxy]-2-oxidanyl-5-phenyl-pentan-3-yl]-2-(quinolin-2-ylcarbonylamino)butanediamide
> <PUBCHEM_IUPAC_TRADITIONAL_NAME>
(2S)-N-[(1S,2S)-3-[2-(tert-butylcarbamoyl)phenoxy]-2-hydroxy-1-phenethyl-propyl]-2-(quinaldoylamino)succinamide
> <PUBCHEM_IUPAC_INCHI>
InChI=1S/C36H41N5O6/c1-36(2,3)41-33(44)25-14-8-10-16-31(25)47-22-30(42)27(19-17-23-11-5-4-6-12-23)39-35(46)29(21-32(37)43)40-34(45)28-20-18-24-13-7-9-15-26(24)38-28/h4-16,18,20,27,29-30,42H,17,19,21-22H2,1-3H3,(H2,37,43)(H,39,46)(H,40,45)(H,41,44)/t27-,29-,30+/m0/s1
> <PUBCHEM_IUPAC_INCHIKEY>
WVDUETRJPMNVCZ-LOAGWBBBSA-N
> <PUBCHEM_XLOGP3_AA>
3.7
> <PUBCHEM_EXACT_MASS>
639.30568404
> <PUBCHEM_MOLECULAR_FORMULA>
C36H41N5O6
> <PUBCHEM_MOLECULAR_WEIGHT>
639.7
> <PUBCHEM_OPENEYE_CAN_SMILES>
CC(C)(C)NC(=O)C1=CC=CC=C1OCC(C(CCC2=CC=CC=C2)NC(=O)C(CC(=O)N)NC(=O)C3=NC4=CC=CC=C4C=C3)O
> <PUBCHEM_OPENEYE_ISO_SMILES>
CC(C)(C)NC(=O)C1=CC=CC=C1OC[C@H]([C@H](CCC2=CC=CC=C2)NC(=O)[C@H](CC(=O)N)NC(=O)C3=NC4=CC=CC=C4C=C3)O
> <PUBCHEM_CACTVS_TPSA>
173
> <PUBCHEM_MONOISOTOPIC_WEIGHT>
639.30568404
> <PUBCHEM_TOTAL_CHARGE>
0
> <PUBCHEM_HEAVY_ATOM_COUNT>
47
> <PUBCHEM_ATOM_DEF_STEREO_COUNT>
3
> <PUBCHEM_ATOM_UDEF_STEREO_COUNT>
0
> <PUBCHEM_BOND_DEF_STEREO_COUNT>
0
> <PUBCHEM_BOND_UDEF_STEREO_COUNT>
0
> <PUBCHEM_ISOTOPIC_ATOM_COUNT>
0
> <PUBCHEM_COMPONENT_COUNT>
1
> <PUBCHEM_CACTVS_TAUTO_COUNT>
-1
> <PUBCHEM_COORDINATE_TYPE>
1
5
255
> <PUBCHEM_BONDANNOTATIONS>
14  1  6
11  38  8
11  41  8
19  22  8
19  23  8
22  31  8
23  32  8
24  25  8
24  34  8
25  36  8
31  35  8
32  35  8
34  37  8
36  39  8
37  39  8
38  40  8
40  43  8
41  42  8
41  44  8
42  43  8
42  45  8
44  46  8
45  47  8
46  47  8
12  7  6
18  8  6
$$$$
