503089
  -OEChem-10302200282D
 94 97  0     1  0  0  0  0  0999 V2000
    6.3301   -1.4720    0.0000 S   0  0  0  0  0  0  0  0  0  0  0  0
    4.5981   -0.4720    0.0000 O   0  0  0  0  0  0  0  0  0  0  0  0
    5.4641    3.0280    0.0000 O   0  0  0  0  0  0  0  0  0  0  0  0
    8.9282    4.0280    0.0000 O   0  0  0  0  0  0  0  0  0  0  0  0
    5.4641    4.0280    0.0000 O   0  0  0  0  0  0  0  0  0  0  0  0
    5.4641   -2.9720    0.0000 O   0  0  0  0  0  0  0  0  0  0  0  0
   10.6603    4.0280    0.0000 O   0  0  0  0  0  0  0  0  0  0  0  0
    6.3301    1.5280    0.0000 N   0  0  0  0  0  0  0  0  0  0  0  0
    8.0622    2.5280    0.0000 N   0  0  0  0  0  0  0  0  0  0  0  0
    6.3301   -4.4720    0.0000 N   0  0  0  0  0  0  0  0  0  0  0  0
   10.6603    1.0280    0.0000 N   0  0  0  0  0  0  0  0  0  0  0  0
   12.4202    0.9934    0.0000 N   0  0  0  0  0  0  0  0  0  0  0  0
    6.3301    5.5280    0.0000 N   0  0  0  0  0  0  0  0  0  0  0  0
    5.4641    1.0280    0.0000 C   0  0  2  0  0  0  0  0  0  0  0  0
    5.4641    0.0280    0.0000 C   0  0  2  0  0  0  0  0  0  0  0  0
    4.5981    1.5280    0.0000 C   0  0  0  0  0  0  0  0  0  0  0  0
    6.3301   -0.4720    0.0000 C   0  0  0  0  0  0  0  0  0  0  0  0
    7.1962    3.0280    0.0000 C   0  0  2  0  0  0  0  0  0  0  0  0
    3.7320    1.0280    0.0000 C   0  0  0  0  0  0  0  0  0  0  0  0
    6.3301    2.5280    0.0000 C   0  0  0  0  0  0  0  0  0  0  0  0
    7.1962    4.0280    0.0000 C   0  0  0  0  0  0  0  0  0  0  0  0
    5.4641   -4.9720    0.0000 C   0  0  0  0  0  0  0  0  0  0  0  0
    2.8660    1.5280    0.0000 C   0  0  0  0  0  0  0  0  0  0  0  0
    3.7320    0.0280    0.0000 C   0  0  0  0  0  0  0  0  0  0  0  0
    7.1962   -1.9720    0.0000 C   0  0  0  0  0  0  0  0  0  0  0  0
    8.9282    3.0280    0.0000 C   0  0  0  0  0  0  0  0  0  0  0  0
    9.7942    2.5280    0.0000 C   0  0  0  0  0  0  0  0  0  0  0  0
    7.1962   -2.9720    0.0000 C   0  0  0  0  0  0  0  0  0  0  0  0
    2.0000    1.0280    0.0000 C   0  0  0  0  0  0  0  0  0  0  0  0
    2.8660   -0.4720    0.0000 C   0  0  0  0  0  0  0  0  0  0  0  0
    4.5981   -5.4720    0.0000 C   0  0  0  0  0  0  0  0  0  0  0  0
    5.9641   -5.8380    0.0000 C   0  0  0  0  0  0  0  0  0  0  0  0
    4.9641   -4.1060    0.0000 C   0  0  0  0  0  0  0  0  0  0  0  0
    6.3301    4.5280    0.0000 C   0  0  0  0  0  0  0  0  0  0  0  0
    6.3301   -3.4720    0.0000 C   0  0  0  0  0  0  0  0  0  0  0  0
    9.7942    1.5280    0.0000 C   0  0  0  0  0  0  0  0  0  0  0  0
   11.5263    1.5280    0.0000 C   0  0  0  0  0  0  0  0  0  0  0  0
   11.5263    2.5280    0.0000 C   0  0  0  0  0  0  0  0  0  0  0  0
   10.6603    3.0280    0.0000 C   0  0  0  0  0  0  0  0  0  0  0  0
    2.0000    0.0280    0.0000 C   0  0  0  0  0  0  0  0  0  0  0  0
    8.0622   -1.4720    0.0000 C   0  0  0  0  0  0  0  0  0  0  0  0
   10.6603    0.0280    0.0000 C   0  0  0  0  0  0  0  0  0  0  0  0
    8.0622   -3.4720    0.0000 C   0  0  0  0  0  0  0  0  0  0  0  0
   12.4202    3.0627    0.0000 C   0  0  0  0  0  0  0  0  0  0  0  0
    8.9282   -1.9720    0.0000 C   0  0  0  0  0  0  0  0  0  0  0  0
    8.9282   -2.9720    0.0000 C   0  0  0  0  0  0  0  0  0  0  0  0
   13.3263    1.5072    0.0000 C   0  0  0  0  0  0  0  0  0  0  0  0
    9.7942   -0.4720    0.0000 C   0  0  0  0  0  0  0  0  0  0  0  0
   13.3263    2.5488    0.0000 C   0  0  0  0  0  0  0  0  0  0  0  0
   14.1904    1.0039    0.0000 C   0  0  0  0  0  0  0  0  0  0  0  0
    5.4641    1.6480    0.0000 H   0  0  0  0  0  0  0  0  0  0  0  0
    5.4641   -0.5920    0.0000 H   0  0  0  0  0  0  0  0  0  0  0  0
    4.9966    2.0030    0.0000 H   0  0  0  0  0  0  0  0  0  0  0  0
    4.1996    2.0030    0.0000 H   0  0  0  0  0  0  0  0  0  0  0  0
    6.8671    1.2180    0.0000 H   0  0  0  0  0  0  0  0  0  0  0  0
    6.9407   -0.5796    0.0000 H   0  0  0  0  0  0  0  0  0  0  0  0
    6.5422    0.1106    0.0000 H   0  0  0  0  0  0  0  0  0  0  0  0
    7.7331    3.3380    0.0000 H   0  0  0  0  0  0  0  0  0  0  0  0
    7.8067    3.9204    0.0000 H   0  0  0  0  0  0  0  0  0  0  0  0
    7.4082    4.6106    0.0000 H   0  0  0  0  0  0  0  0  0  0  0  0
    4.5981   -1.0920    0.0000 H   0  0  0  0  0  0  0  0  0  0  0  0
    8.0622    1.9080    0.0000 H   0  0  0  0  0  0  0  0  0  0  0  0
    2.8660    2.1480    0.0000 H   0  0  0  0  0  0  0  0  0  0  0  0
    4.2690   -0.2820    0.0000 H   0  0  0  0  0  0  0  0  0  0  0  0
    6.8671   -4.7820    0.0000 H   0  0  0  0  0  0  0  0  0  0  0  0
    4.2881   -4.9351    0.0000 H   0  0  0  0  0  0  0  0  0  0  0  0
    4.0611   -5.7820    0.0000 H   0  0  0  0  0  0  0  0  0  0  0  0
    4.9081   -6.0089    0.0000 H   0  0  0  0  0  0  0  0  0  0  0  0
    5.4272   -6.1480    0.0000 H   0  0  0  0  0  0  0  0  0  0  0  0
    6.2741   -6.3750    0.0000 H   0  0  0  0  0  0  0  0  0  0  0  0
    6.5010   -5.5280    0.0000 H   0  0  0  0  0  0  0  0  0  0  0  0
    5.5010   -3.7960    0.0000 H   0  0  0  0  0  0  0  0  0  0  0  0
    4.6541   -3.5690    0.0000 H   0  0  0  0  0  0  0  0  0  0  0  0
    4.4272   -4.4160    0.0000 H   0  0  0  0  0  0  0  0  0  0  0  0
    1.4631    1.3380    0.0000 H   0  0  0  0  0  0  0  0  0  0  0  0
    2.8660   -1.0920    0.0000 H   0  0  0  0  0  0  0  0  0  0  0  0
    9.2573    1.2180    0.0000 H   0  0  0  0  0  0  0  0  0  0  0  0
    1.4631   -0.2820    0.0000 H   0  0  0  0  0  0  0  0  0  0  0  0
    8.0622   -0.8520    0.0000 H   0  0  0  0  0  0  0  0  0  0  0  0
   10.8723   -0.5546    0.0000 H   0  0  0  0  0  0  0  0  0  0  0  0
   11.2708    0.1357    0.0000 H   0  0  0  0  0  0  0  0  0  0  0  0
    8.0622   -4.0920    0.0000 H   0  0  0  0  0  0  0  0  0  0  0  0
   12.4131    3.6826    0.0000 H   0  0  0  0  0  0  0  0  0  0  0  0
    9.4651   -1.6620    0.0000 H   0  0  0  0  0  0  0  0  0  0  0  0
    9.4651   -3.2820    0.0000 H   0  0  0  0  0  0  0  0  0  0  0  0
    5.7932    5.8380    0.0000 H   0  0  0  0  0  0  0  0  0  0  0  0
    6.8671    5.8380    0.0000 H   0  0  0  0  0  0  0  0  0  0  0  0
    9.4842    0.0649    0.0000 H   0  0  0  0  0  0  0  0  0  0  0  0
    9.2573   -0.7820    0.0000 H   0  0  0  0  0  0  0  0  0  0  0  0
   10.1042   -1.0089    0.0000 H   0  0  0  0  0  0  0  0  0  0  0  0
   13.8620    2.8609    0.0000 H   0  0  0  0  0  0  0  0  0  0  0  0
   13.8783    0.4681    0.0000 H   0  0  0  0  0  0  0  0  0  0  0  0
   14.7261    0.6918    0.0000 H   0  0  0  0  0  0  0  0  0  0  0  0
   14.5024    1.5396    0.0000 H   0  0  0  0  0  0  0  0  0  0  0  0
  1 17  1  0  0  0  0
  1 25  1  0  0  0  0
 15  2  1  6  0  0  0
  2 61  1  0  0  0  0
  3 20  2  0  0  0  0
  4 26  2  0  0  0  0
  5 34  2  0  0  0  0
  6 35  2  0  0  0  0
  7 39  2  0  0  0  0
 14  8  1  6  0  0  0
  8 20  1  0  0  0  0
  8 55  1  0  0  0  0
 18  9  1  6  0  0  0
  9 26  1  0  0  0  0
  9 62  1  0  0  0  0
 10 22  1  0  0  0  0
 10 35  1  0  0  0  0
 10 65  1  0  0  0  0
 11 36  1  0  0  0  0
 11 37  1  0  0  0  0
 11 42  1  0  0  0  0
 12 37  1  0  0  0  0
 12 47  2  0  0  0  0
 13 34  1  0  0  0  0
 13 86  1  0  0  0  0
 13 87  1  0  0  0  0
 14 15  1  0  0  0  0
 14 16  1  0  0  0  0
 14 51  1  0  0  0  0
 15 17  1  0  0  0  0
 15 52  1  0  0  0  0
 16 19  1  0  0  0  0
 16 53  1  0  0  0  0
 16 54  1  0  0  0  0
 17 56  1  0  0  0  0
 17 57  1  0  0  0  0
 18 20  1  0  0  0  0
 18 21  1  0  0  0  0
 18 58  1  0  0  0  0
 19 23  2  0  0  0  0
 19 24  1  0  0  0  0
 21 34  1  0  0  0  0
 21 59  1  0  0  0  0
 21 60  1  0  0  0  0
 22 31  1  0  0  0  0
 22 32  1  0  0  0  0
 22 33  1  0  0  0  0
 23 29  1  0  0  0  0
 23 63  1  0  0  0  0
 24 30  2  0  0  0  0
 24 64  1  0  0  0  0
 25 28  1  0  0  0  0
 25 41  2  0  0  0  0
 26 27  1  0  0  0  0
 27 36  2  0  0  0  0
 27 39  1  0  0  0  0
 28 35  1  0  0  0  0
 28 43  2  0  0  0  0
 29 40  2  0  0  0  0
 29 75  1  0  0  0  0
 30 40  1  0  0  0  0
 30 76  1  0  0  0  0
 31 66  1  0  0  0  0
 31 67  1  0  0  0  0
 31 68  1  0  0  0  0
 32 69  1  0  0  0  0
 32 70  1  0  0  0  0
 32 71  1  0  0  0  0
 33 72  1  0  0  0  0
 33 73  1  0  0  0  0
 33 74  1  0  0  0  0
 36 77  1  0  0  0  0
 37 38  2  0  0  0  0
 38 39  1  0  0  0  0
 38 44  1  0  0  0  0
 40 78  1  0  0  0  0
 41 45  1  0  0  0  0
 41 79  1  0  0  0  0
 42 48  1  0  0  0  0
 42 80  1  0  0  0  0
 42 81  1  0  0  0  0
 43 46  1  0  0  0  0
 43 82  1  0  0  0  0
 44 49  2  0  0  0  0
 44 83  1  0  0  0  0
 45 46  2  0  0  0  0
 45 84  1  0  0  0  0
 46 85  1  0  0  0  0
 47 49  1  0  0  0  0
 47 50  1  0  0  0  0
 48 88  1  0  0  0  0
 48 89  1  0  0  0  0
 48 90  1  0  0  0  0
 49 91  1  0  0  0  0
 50 92  1  0  0  0  0
 50 93  1  0  0  0  0
 50 94  1  0  0  0  0
M  END
> <PUBCHEM_COMPOUND_CID>
503089
> <PUBCHEM_COMPOUND_CANONICALIZED>
1
> <PUBCHEM_CACTVS_COMPLEXITY>
1250
> <PUBCHEM_CACTVS_HBOND_ACCEPTOR>
9
> <PUBCHEM_CACTVS_HBOND_DONOR>
5
> <PUBCHEM_CACTVS_ROTATABLE_BOND>
15
> <PUBCHEM_CACTVS_SUBSKEYS>
AAADcfB/uABAAAAAAAAAAAAAAAAAAAAAAAA8YIEAAAAAAACB0AAAHgQQCAAADLzl3gazsZPIEgioA6d2dACCgCklCjAJmLm4ZNiKcPro3bGUYYhslgL4yeedyaCeAAAAAAAEAAAAAAAAAAgAAAAAAAAAAA==
> <PUBCHEM_IUPAC_OPENEYE_NAME>
(2S)-N-[(1S,2R)-1-benzyl-3-[2-(tert-butylcarbamoyl)phenyl]sulfanyl-2-hydroxy-propyl]-2-[(1-ethyl-7-methyl-4-oxo-1,8-naphthyridine-3-carbonyl)amino]butanediamide
> <PUBCHEM_IUPAC_CAS_NAME>
(2S)-N-[(2S,3R)-4-[[2-[(tert-butylamino)-oxomethyl]phenyl]thio]-3-hydroxy-1-phenylbutan-2-yl]-2-[[(1-ethyl-7-methyl-4-oxo-1,8-naphthyridin-3-yl)-oxomethyl]amino]butanediamide
> <PUBCHEM_IUPAC_NAME_MARKUP>
(2<I>S</I>)-<I>N</I>-[(2<I>S</I>,3<I>R</I>)-4-[2-(<I>tert</I>-butylcarbamoyl)phenyl]sulfanyl-3-hydroxy-1-phenylbutan-2-yl]-2-[(1-ethyl-7-methyl-4-oxo-1,8-naphthyridine-3-carbonyl)amino]butanediamide
> <PUBCHEM_IUPAC_NAME>
(2S)-N-[(2S,3R)-4-[2-(tert-butylcarbamoyl)phenyl]sulfanyl-3-hydroxy-1-phenylbutan-2-yl]-2-[(1-ethyl-7-methyl-4-oxo-1,8-naphthyridine-3-carbonyl)amino]butanediamide
> <PUBCHEM_IUPAC_SYSTEMATIC_NAME>
(2S)-N-[(2S,3R)-4-[2-(tert-butylcarbamoyl)phenyl]sulfanyl-3-oxidanyl-1-phenyl-butan-2-yl]-2-[(1-ethyl-7-methyl-4-oxidanylidene-1,8-naphthyridin-3-yl)carbonylamino]butanediamide
> <PUBCHEM_IUPAC_TRADITIONAL_NAME>
(2S)-N-[(1S,2R)-1-benzyl-3-[[2-(tert-butylcarbamoyl)phenyl]thio]-2-hydroxy-propyl]-2-[(1-ethyl-4-keto-7-methyl-1,8-naphthyridine-3-carbonyl)amino]succinamide
> <PUBCHEM_IUPAC_INCHI>
InChI=1S/C37H44N6O6S/c1-6-43-20-26(32(46)25-17-16-22(2)39-33(25)43)34(47)41-28(19-31(38)45)36(49)40-27(18-23-12-8-7-9-13-23)29(44)21-50-30-15-11-10-14-24(30)35(48)42-37(3,4)5/h7-17,20,27-29,44H,6,18-19,21H2,1-5H3,(H2,38,45)(H,40,49)(H,41,47)(H,42,48)/t27-,28-,29-/m0/s1
> <PUBCHEM_IUPAC_INCHIKEY>
MRKBJNAYIRWDTC-AWCRTANDSA-N
> <PUBCHEM_XLOGP3_AA>
3.9
> <PUBCHEM_EXACT_MASS>
700.30430432
> <PUBCHEM_MOLECULAR_FORMULA>
C37H44N6O6S
> <PUBCHEM_MOLECULAR_WEIGHT>
700.8
> <PUBCHEM_OPENEYE_CAN_SMILES>
CCN1C=C(C(=O)C2=C1N=C(C=C2)C)C(=O)NC(CC(=O)N)C(=O)NC(CC3=CC=CC=C3)C(CSC4=CC=CC=C4C(=O)NC(C)(C)C)O
> <PUBCHEM_OPENEYE_ISO_SMILES>
CCN1C=C(C(=O)C2=C1N=C(C=C2)C)C(=O)N[C@@H](CC(=O)N)C(=O)N[C@@H](CC3=CC=CC=C3)[C@H](CSC4=CC=CC=C4C(=O)NC(C)(C)C)O
> <PUBCHEM_CACTVS_TPSA>
209
> <PUBCHEM_MONOISOTOPIC_WEIGHT>
700.30430432
> <PUBCHEM_TOTAL_CHARGE>
0
> <PUBCHEM_HEAVY_ATOM_COUNT>
50
> <PUBCHEM_ATOM_DEF_STEREO_COUNT>
3
> <PUBCHEM_ATOM_UDEF_STEREO_COUNT>
0
> <PUBCHEM_BOND_DEF_STEREO_COUNT>
0
> <PUBCHEM_BOND_UDEF_STEREO_COUNT>
0
> <PUBCHEM_ISOTOPIC_ATOM_COUNT>
0
> <PUBCHEM_COMPONENT_COUNT>
1
> <PUBCHEM_CACTVS_TAUTO_COUNT>
-1
> <PUBCHEM_COORDINATE_TYPE>
1
5
255
> <PUBCHEM_BONDANNOTATIONS>
11  36  8
11  37  8
12  37  8
12  47  8
19  23  8
19  24  8
15  2  6
23  29  8
24  30  8
25  28  8
25  41  8
27  36  8
27  39  8
28  43  8
29  40  8
30  40  8
37  38  8
38  39  8
38  44  8
41  45  8
43  46  8
44  49  8
45  46  8
47  49  8
14  8  6
18  9  6
$$$$
