503069
  -OEChem-10302200282D
 97103  0     1  0  0  0  0  0999 V2000
    6.2711    2.0346    0.0000 S   0  0  0  0  0  0  0  0  0  0  0  0
    5.4050    0.5346    0.0000 O   0  0  0  0  0  0  0  0  0  0  0  0
    8.0031    1.0346    0.0000 O   0  0  0  0  0  0  0  0  0  0  0  0
    8.8692    0.5346    0.0000 O   0  0  0  0  0  0  0  0  0  0  0  0
   12.3333   -0.4654    0.0000 O   0  0  0  0  0  0  0  0  0  0  0  0
    8.8692   -0.4654    0.0000 O   0  0  0  0  0  0  0  0  0  0  0  0
    3.6730    0.5346    0.0000 N   0  0  0  0  0  0  0  0  0  0  0  0
    9.7352    2.0346    0.0000 N   0  0  0  0  0  0  0  0  0  0  0  0
   10.6012   -0.4654    0.0000 N   0  0  0  0  0  0  0  0  0  0  0  0
   13.1993    1.0346    0.0000 N   0  0  0  0  0  0  0  0  0  0  0  0
    8.8692   -2.4654    0.0000 N   0  0  0  0  0  0  0  0  0  0  0  0
    3.6730   -0.4654    0.0000 C   0  0  0  0  0  0  0  0  0  0  0  0
    4.5092   -1.9137    0.0000 C   0  0  0  0  0  0  0  0  0  0  0  0
    2.9819   -2.3488    0.0000 C   0  0  0  0  0  0  0  0  0  0  0  0
    2.8368   -1.9137    0.0000 C   0  0  0  0  0  0  0  0  0  0  0  0
    4.5092   -0.9482    0.0000 C   0  0  0  0  0  0  0  0  0  0  0  0
    2.9819   -1.3035    0.0000 C   0  0  0  0  0  0  0  0  0  0  0  0
    2.8368   -0.9482    0.0000 C   0  0  0  0  0  0  0  0  0  0  0  0
    3.8876   -2.8256    0.0000 C   0  0  0  0  0  0  0  0  0  0  0  0
    3.6730   -2.2165    0.0000 C   0  0  0  0  0  0  0  0  0  0  0  0
    2.0000   -2.3965    0.0000 C   0  0  0  0  0  0  0  0  0  0  0  0
    4.5390    1.0346    0.0000 C   0  0  0  0  0  0  0  0  0  0  0  0
    4.5390    2.0346    0.0000 C   0  0  0  0  0  0  0  0  0  0  0  0
    5.4050    2.5346    0.0000 C   0  0  0  0  0  0  0  0  0  0  0  0
    3.6730    2.5346    0.0000 C   0  0  0  0  0  0  0  0  0  0  0  0
    5.4050    3.5346    0.0000 C   0  0  0  0  0  0  0  0  0  0  0  0
    3.6730    3.5346    0.0000 C   0  0  0  0  0  0  0  0  0  0  0  0
    4.5390    4.0346    0.0000 C   0  0  0  0  0  0  0  0  0  0  0  0
    7.1371    2.5346    0.0000 C   0  0  0  0  0  0  0  0  0  0  0  0
    8.0031    2.0346    0.0000 C   0  0  1  0  0  0  0  0  0  0  0  0
    8.8691    2.5346    0.0000 C   0  0  2  0  0  0  0  0  0  0  0  0
    8.8691    3.5346    0.0000 C   0  0  0  0  0  0  0  0  0  0  0  0
    9.7352    4.0346    0.0000 C   0  0  0  0  0  0  0  0  0  0  0  0
    9.7352    1.0346    0.0000 C   0  0  0  0  0  0  0  0  0  0  0  0
   10.6012    0.5346    0.0000 C   0  0  2  0  0  0  0  0  0  0  0  0
   10.6012    3.5346    0.0000 C   0  0  0  0  0  0  0  0  0  0  0  0
    9.7352    5.0346    0.0000 C   0  0  0  0  0  0  0  0  0  0  0  0
   11.4672    1.0346    0.0000 C   0  0  0  0  0  0  0  0  0  0  0  0
   11.4672    4.0346    0.0000 C   0  0  0  0  0  0  0  0  0  0  0  0
   10.6012    5.5346    0.0000 C   0  0  0  0  0  0  0  0  0  0  0  0
   11.4672    5.0346    0.0000 C   0  0  0  0  0  0  0  0  0  0  0  0
   12.3333    0.5346    0.0000 C   0  0  0  0  0  0  0  0  0  0  0  0
    9.7352   -0.9654    0.0000 C   0  0  0  0  0  0  0  0  0  0  0  0
    9.7352   -1.9654    0.0000 C   0  0  0  0  0  0  0  0  0  0  0  0
   10.6012   -2.4654    0.0000 C   0  0  0  0  0  0  0  0  0  0  0  0
    8.8692   -3.4654    0.0000 C   0  0  0  0  0  0  0  0  0  0  0  0
   10.6012   -3.4654    0.0000 C   0  0  0  0  0  0  0  0  0  0  0  0
    9.7352   -3.9654    0.0000 C   0  0  0  0  0  0  0  0  0  0  0  0
    7.9592   -3.9722    0.0000 C   0  0  0  0  0  0  0  0  0  0  0  0
    9.7512   -5.0069    0.0000 C   0  0  0  0  0  0  0  0  0  0  0  0
    7.9511   -5.0138    0.0000 C   0  0  0  0  0  0  0  0  0  0  0  0
    8.8532   -5.5346    0.0000 C   0  0  0  0  0  0  0  0  0  0  0  0
    5.1016   -2.0964    0.0000 H   0  0  0  0  0  0  0  0  0  0  0  0
    2.8478   -2.9541    0.0000 H   0  0  0  0  0  0  0  0  0  0  0  0
    3.3444   -1.5577    0.0000 H   0  0  0  0  0  0  0  0  0  0  0  0
    5.1198   -1.0558    0.0000 H   0  0  0  0  0  0  0  0  0  0  0  0
    4.7212   -0.3656    0.0000 H   0  0  0  0  0  0  0  0  0  0  0  0
    2.6383   -0.7875    0.0000 H   0  0  0  0  0  0  0  0  0  0  0  0
    2.3885   -1.4830    0.0000 H   0  0  0  0  0  0  0  0  0  0  0  0
    2.6247   -0.3656    0.0000 H   0  0  0  0  0  0  0  0  0  0  0  0
    2.2262   -1.0558    0.0000 H   0  0  0  0  0  0  0  0  0  0  0  0
    3.5782   -3.3629    0.0000 H   0  0  0  0  0  0  0  0  0  0  0  0
    4.4127   -3.1552    0.0000 H   0  0  0  0  0  0  0  0  0  0  0  0
    3.3030   -2.7140    0.0000 H   0  0  0  0  0  0  0  0  0  0  0  0
    4.0430   -2.7140    0.0000 H   0  0  0  0  0  0  0  0  0  0  0  0
    1.5188   -2.0056    0.0000 H   0  0  0  0  0  0  0  0  0  0  0  0
    1.8068   -2.9856    0.0000 H   0  0  0  0  0  0  0  0  0  0  0  0
    3.1361    0.8446    0.0000 H   0  0  0  0  0  0  0  0  0  0  0  0
    3.1360    2.2246    0.0000 H   0  0  0  0  0  0  0  0  0  0  0  0
    5.9420    3.8446    0.0000 H   0  0  0  0  0  0  0  0  0  0  0  0
    3.1360    3.8446    0.0000 H   0  0  0  0  0  0  0  0  0  0  0  0
    4.5390    4.6546    0.0000 H   0  0  0  0  0  0  0  0  0  0  0  0
    7.5356    3.0096    0.0000 H   0  0  0  0  0  0  0  0  0  0  0  0
    6.7386    3.0096    0.0000 H   0  0  0  0  0  0  0  0  0  0  0  0
    7.4662    1.7246    0.0000 H   0  0  0  0  0  0  0  0  0  0  0  0
    9.4061    2.8446    0.0000 H   0  0  0  0  0  0  0  0  0  0  0  0
    8.6571    4.1172    0.0000 H   0  0  0  0  0  0  0  0  0  0  0  0
    8.2586    3.4270    0.0000 H   0  0  0  0  0  0  0  0  0  0  0  0
    7.4662    0.7246    0.0000 H   0  0  0  0  0  0  0  0  0  0  0  0
   10.2721    2.3446    0.0000 H   0  0  0  0  0  0  0  0  0  0  0  0
   10.0643    0.2246    0.0000 H   0  0  0  0  0  0  0  0  0  0  0  0
   10.6012    2.9146    0.0000 H   0  0  0  0  0  0  0  0  0  0  0  0
    9.1982    5.3446    0.0000 H   0  0  0  0  0  0  0  0  0  0  0  0
   11.8657    1.5096    0.0000 H   0  0  0  0  0  0  0  0  0  0  0  0
   11.0687    1.5096    0.0000 H   0  0  0  0  0  0  0  0  0  0  0  0
   11.1381   -0.7754    0.0000 H   0  0  0  0  0  0  0  0  0  0  0  0
   12.0041    3.7246    0.0000 H   0  0  0  0  0  0  0  0  0  0  0  0
   10.6012    6.1546    0.0000 H   0  0  0  0  0  0  0  0  0  0  0  0
   12.0041    5.3446    0.0000 H   0  0  0  0  0  0  0  0  0  0  0  0
   13.7362    0.7246    0.0000 H   0  0  0  0  0  0  0  0  0  0  0  0
   13.1993    1.6546    0.0000 H   0  0  0  0  0  0  0  0  0  0  0  0
   11.1381   -2.1554    0.0000 H   0  0  0  0  0  0  0  0  0  0  0  0
   11.1382   -3.7754    0.0000 H   0  0  0  0  0  0  0  0  0  0  0  0
    7.4258   -3.6560    0.0000 H   0  0  0  0  0  0  0  0  0  0  0  0
   10.2917   -5.3106    0.0000 H   0  0  0  0  0  0  0  0  0  0  0  0
    7.4130   -5.3218    0.0000 H   0  0  0  0  0  0  0  0  0  0  0  0
    8.8556   -6.1546    0.0000 H   0  0  0  0  0  0  0  0  0  0  0  0
  1 24  1  0  0  0  0
  1 29  1  0  0  0  0
  2 22  2  0  0  0  0
 30  3  1  1  0  0  0
  3 79  1  0  0  0  0
  4 34  2  0  0  0  0
  5 42  2  0  0  0  0
  6 43  2  0  0  0  0
  7 12  1  0  0  0  0
  7 22  1  0  0  0  0
  7 68  1  0  0  0  0
 31  8  1  6  0  0  0
  8 34  1  0  0  0  0
  8 80  1  0  0  0  0
 35  9  1  6  0  0  0
  9 43  1  0  0  0  0
  9 86  1  0  0  0  0
 10 42  1  0  0  0  0
 10 90  1  0  0  0  0
 10 91  1  0  0  0  0
 11 44  2  0  0  0  0
 11 46  1  0  0  0  0
 12 16  1  0  0  0  0
 12 17  1  0  0  0  0
 12 18  1  0  0  0  0
 13 16  1  0  0  0  0
 13 19  1  0  0  0  0
 13 20  1  0  0  0  0
 13 53  1  0  0  0  0
 14 17  1  0  0  0  0
 14 19  1  0  0  0  0
 14 21  1  0  0  0  0
 14 54  1  0  0  0  0
 15 18  1  0  0  0  0
 15 20  1  0  0  0  0
 15 21  1  0  0  0  0
 15 55  1  0  0  0  0
 16 56  1  0  0  0  0
 16 57  1  0  0  0  0
 17 58  1  0  0  0  0
 17 59  1  0  0  0  0
 18 60  1  0  0  0  0
 18 61  1  0  0  0  0
 19 62  1  0  0  0  0
 19 63  1  0  0  0  0
 20 64  1  0  0  0  0
 20 65  1  0  0  0  0
 21 66  1  0  0  0  0
 21 67  1  0  0  0  0
 22 23  1  0  0  0  0
 23 24  1  0  0  0  0
 23 25  2  0  0  0  0
 24 26  2  0  0  0  0
 25 27  1  0  0  0  0
 25 69  1  0  0  0  0
 26 28  1  0  0  0  0
 26 70  1  0  0  0  0
 27 28  2  0  0  0  0
 27 71  1  0  0  0  0
 28 72  1  0  0  0  0
 29 30  1  0  0  0  0
 29 73  1  0  0  0  0
 29 74  1  0  0  0  0
 30 31  1  0  0  0  0
 30 75  1  0  0  0  0
 31 32  1  0  0  0  0
 31 76  1  0  0  0  0
 32 33  1  0  0  0  0
 32 77  1  0  0  0  0
 32 78  1  0  0  0  0
 33 36  2  0  0  0  0
 33 37  1  0  0  0  0
 34 35  1  0  0  0  0
 35 38  1  0  0  0  0
 35 81  1  0  0  0  0
 36 39  1  0  0  0  0
 36 82  1  0  0  0  0
 37 40  2  0  0  0  0
 37 83  1  0  0  0  0
 38 42  1  0  0  0  0
 38 84  1  0  0  0  0
 38 85  1  0  0  0  0
 39 41  2  0  0  0  0
 39 87  1  0  0  0  0
 40 41  1  0  0  0  0
 40 88  1  0  0  0  0
 41 89  1  0  0  0  0
 43 44  1  0  0  0  0
 44 45  1  0  0  0  0
 45 47  2  0  0  0  0
 45 92  1  0  0  0  0
 46 48  1  0  0  0  0
 46 49  2  0  0  0  0
 47 48  1  0  0  0  0
 47 93  1  0  0  0  0
 48 50  2  0  0  0  0
 49 51  1  0  0  0  0
 49 94  1  0  0  0  0
 50 52  1  0  0  0  0
 50 95  1  0  0  0  0
 51 52  2  0  0  0  0
 51 96  1  0  0  0  0
 52 97  1  0  0  0  0
M  END
> <PUBCHEM_COMPOUND_CID>
503069
> <PUBCHEM_COMPOUND_CANONICALIZED>
1
> <PUBCHEM_CACTVS_COMPLEXITY>
1230
> <PUBCHEM_CACTVS_HBOND_ACCEPTOR>
7
> <PUBCHEM_CACTVS_HBOND_DONOR>
5
> <PUBCHEM_CACTVS_ROTATABLE_BOND>
14
> <PUBCHEM_CACTVS_SUBSKEYS>
AAADcfB/uABAAAAAAAAAAAAAAAAAAAAAAAA8YMGDAAAAAACx9AAAHgQQCAAADbzl3gawwfLIEgioAyVyVACCgCAnCjAImLm4ZNgKcPrg1bGUYQhklgD4yYedyOCOAAAAAAAGAAAAAASAAAwAAAAAAAAAAA==
> <PUBCHEM_IUPAC_OPENEYE_NAME>
(2S)-N-[(1S,2R)-3-[2-(1-adamantylcarbamoyl)phenyl]sulfanyl-1-benzyl-2-hydroxy-propyl]-2-(quinoline-2-carbonylamino)butanediamide
> <PUBCHEM_IUPAC_CAS_NAME>
(2S)-N-[(2S,3R)-4-[[2-[(1-adamantylamino)-oxomethyl]phenyl]thio]-3-hydroxy-1-phenylbutan-2-yl]-2-[[oxo(2-quinolinyl)methyl]amino]butanediamide
> <PUBCHEM_IUPAC_NAME_MARKUP>
(2<I>S</I>)-<I>N</I>-[(2<I>S</I>,3<I>R</I>)-4-[2-(1-adamantylcarbamoyl)phenyl]sulfanyl-3-hydroxy-1-phenylbutan-2-yl]-2-(quinoline-2-carbonylamino)butanediamide
> <PUBCHEM_IUPAC_NAME>
(2S)-N-[(2S,3R)-4-[2-(1-adamantylcarbamoyl)phenyl]sulfanyl-3-hydroxy-1-phenylbutan-2-yl]-2-(quinoline-2-carbonylamino)butanediamide
> <PUBCHEM_IUPAC_SYSTEMATIC_NAME>
(2S)-N-[(2S,3R)-4-[2-(1-adamantylcarbamoyl)phenyl]sulfanyl-3-oxidanyl-1-phenyl-butan-2-yl]-2-(quinolin-2-ylcarbonylamino)butanediamide
> <PUBCHEM_IUPAC_TRADITIONAL_NAME>
(2S)-N-[(1S,2R)-3-[[2-(1-adamantylcarbamoyl)phenyl]thio]-1-benzyl-2-hydroxy-propyl]-2-(quinaldoylamino)succinamide
> <PUBCHEM_IUPAC_INCHI>
InChI=1S/C41H45N5O5S/c42-37(48)20-34(45-39(50)32-15-14-29-10-4-6-12-31(29)43-32)40(51)44-33(19-25-8-2-1-3-9-25)35(47)24-52-36-13-7-5-11-30(36)38(49)46-41-21-26-16-27(22-41)18-28(17-26)23-41/h1-15,26-28,33-35,47H,16-24H2,(H2,42,48)(H,44,51)(H,45,50)(H,46,49)/t26?,27?,28?,33-,34-,35-,41?/m0/s1
> <PUBCHEM_IUPAC_INCHIKEY>
ZQGGPHMQQGBOGE-ZNJMLVHZSA-N
> <PUBCHEM_XLOGP3_AA>
5.6
> <PUBCHEM_EXACT_MASS>
719.31414073
> <PUBCHEM_MOLECULAR_FORMULA>
C41H45N5O5S
> <PUBCHEM_MOLECULAR_WEIGHT>
719.9
> <PUBCHEM_OPENEYE_CAN_SMILES>
C1C2CC3CC1CC(C2)(C3)NC(=O)C4=CC=CC=C4SCC(C(CC5=CC=CC=C5)NC(=O)C(CC(=O)N)NC(=O)C6=NC7=CC=CC=C7C=C6)O
> <PUBCHEM_OPENEYE_ISO_SMILES>
C1C2CC3CC1CC(C2)(C3)NC(=O)C4=CC=CC=C4SC[C@@H]([C@H](CC5=CC=CC=C5)NC(=O)[C@H](CC(=O)N)NC(=O)C6=NC7=CC=CC=C7C=C6)O
> <PUBCHEM_CACTVS_TPSA>
189
> <PUBCHEM_MONOISOTOPIC_WEIGHT>
719.31414073
> <PUBCHEM_TOTAL_CHARGE>
0
> <PUBCHEM_HEAVY_ATOM_COUNT>
52
> <PUBCHEM_ATOM_DEF_STEREO_COUNT>
3
> <PUBCHEM_ATOM_UDEF_STEREO_COUNT>
0
> <PUBCHEM_BOND_DEF_STEREO_COUNT>
0
> <PUBCHEM_BOND_UDEF_STEREO_COUNT>
0
> <PUBCHEM_ISOTOPIC_ATOM_COUNT>
0
> <PUBCHEM_COMPONENT_COUNT>
1
> <PUBCHEM_CACTVS_TAUTO_COUNT>
-1
> <PUBCHEM_COORDINATE_TYPE>
1
5
255
> <PUBCHEM_BONDANNOTATIONS>
11  44  8
11  46  8
23  24  8
23  25  8
24  26  8
25  27  8
26  28  8
27  28  8
30  3  5
33  36  8
33  37  8
36  39  8
37  40  8
39  41  8
40  41  8
44  45  8
45  47  8
46  48  8
46  49  8
47  48  8
48  50  8
49  51  8
50  52  8
51  52  8
31  8  6
35  9  6
$$$$
