503053
  -OEChem-10302200282D
 85 88  0     1  0  0  0  0  0999 V2000
    8.9962    0.6550    0.0000 S   0  0  0  0  0  0  0  0  0  0  0  0
   10.7282   -0.3450    0.0000 O   0  0  0  0  0  0  0  0  0  0  0  0
    9.8622   -3.8450    0.0000 O   0  0  0  0  0  0  0  0  0  0  0  0
    9.8622   -4.8450    0.0000 O   0  0  0  0  0  0  0  0  0  0  0  0
    6.3981   -4.8450    0.0000 O   0  0  0  0  0  0  0  0  0  0  0  0
    9.8622    2.1550    0.0000 O   0  0  0  0  0  0  0  0  0  0  0  0
    8.9962   -2.3450    0.0000 N   0  0  0  0  0  0  0  0  0  0  0  0
    7.2641   -3.3450    0.0000 N   0  0  0  0  0  0  0  0  0  0  0  0
    8.9962    3.6550    0.0000 N   0  0  0  0  0  0  0  0  0  0  0  0
    8.9962   -6.3450    0.0000 N   0  0  0  0  0  0  0  0  0  0  0  0
    4.6660   -3.8450    0.0000 N   0  0  0  0  0  0  0  0  0  0  0  0
    9.8622   -1.8450    0.0000 C   0  0  2  0  0  0  0  0  0  0  0  0
    9.8622   -0.8450    0.0000 C   0  0  2  0  0  0  0  0  0  0  0  0
   10.7282   -2.3450    0.0000 C   0  0  0  0  0  0  0  0  0  0  0  0
    8.9962   -0.3450    0.0000 C   0  0  0  0  0  0  0  0  0  0  0  0
   11.5942   -1.8450    0.0000 C   0  0  0  0  0  0  0  0  0  0  0  0
    8.1301   -3.8450    0.0000 C   0  0  2  0  0  0  0  0  0  0  0  0
    8.9962   -3.3450    0.0000 C   0  0  0  0  0  0  0  0  0  0  0  0
    8.1301   -4.8450    0.0000 C   0  0  0  0  0  0  0  0  0  0  0  0
   12.4603   -2.3450    0.0000 C   0  0  0  0  0  0  0  0  0  0  0  0
   11.5942   -0.8450    0.0000 C   0  0  0  0  0  0  0  0  0  0  0  0
    8.1301    1.1550    0.0000 C   0  0  0  0  0  0  0  0  0  0  0  0
   13.3263   -1.8450    0.0000 C   0  0  0  0  0  0  0  0  0  0  0  0
   12.4603   -0.3450    0.0000 C   0  0  0  0  0  0  0  0  0  0  0  0
    8.9962   -5.3450    0.0000 C   0  0  0  0  0  0  0  0  0  0  0  0
   13.3263   -0.8450    0.0000 C   0  0  0  0  0  0  0  0  0  0  0  0
    6.3981   -3.8450    0.0000 C   0  0  0  0  0  0  0  0  0  0  0  0
    8.1301    2.1550    0.0000 C   0  0  0  0  0  0  0  0  0  0  0  0
    7.2641    0.6550    0.0000 C   0  0  0  0  0  0  0  0  0  0  0  0
    5.5321   -3.3450    0.0000 C   0  0  0  0  0  0  0  0  0  0  0  0
    8.9962    2.6550    0.0000 C   0  0  0  0  0  0  0  0  0  0  0  0
    7.2641    2.6550    0.0000 C   0  0  0  0  0  0  0  0  0  0  0  0
    9.8622    4.1550    0.0000 C   0  0  0  0  0  0  0  0  0  0  0  0
    9.8622    5.1550    0.0000 C   0  0  0  0  0  0  0  0  0  0  0  0
    6.3981    1.1550    0.0000 C   0  0  0  0  0  0  0  0  0  0  0  0
    6.3981    2.1550    0.0000 C   0  0  0  0  0  0  0  0  0  0  0  0
   10.7282    5.6550    0.0000 C   0  0  0  0  0  0  0  0  0  0  0  0
    5.5321   -2.3450    0.0000 C   0  0  0  0  0  0  0  0  0  0  0  0
    3.8000   -3.3450    0.0000 C   0  0  0  0  0  0  0  0  0  0  0  0
    3.8000   -2.3450    0.0000 C   0  0  0  0  0  0  0  0  0  0  0  0
    4.6660   -1.8450    0.0000 C   0  0  0  0  0  0  0  0  0  0  0  0
   10.7282    6.6550    0.0000 C   0  0  0  0  0  0  0  0  0  0  0  0
    2.9061   -3.8797    0.0000 C   0  0  0  0  0  0  0  0  0  0  0  0
    2.9061   -1.8103    0.0000 C   0  0  0  0  0  0  0  0  0  0  0  0
    2.0000   -3.3658    0.0000 C   0  0  0  0  0  0  0  0  0  0  0  0
    2.0000   -2.3242    0.0000 C   0  0  0  0  0  0  0  0  0  0  0  0
    9.3252   -1.5350    0.0000 H   0  0  0  0  0  0  0  0  0  0  0  0
    9.8622   -0.2250    0.0000 H   0  0  0  0  0  0  0  0  0  0  0  0
   10.3297   -2.8200    0.0000 H   0  0  0  0  0  0  0  0  0  0  0  0
   11.1267   -2.8200    0.0000 H   0  0  0  0  0  0  0  0  0  0  0  0
    8.4592   -2.0350    0.0000 H   0  0  0  0  0  0  0  0  0  0  0  0
    8.3856   -0.2373    0.0000 H   0  0  0  0  0  0  0  0  0  0  0  0
    8.7841   -0.9276    0.0000 H   0  0  0  0  0  0  0  0  0  0  0  0
    7.5932   -4.1550    0.0000 H   0  0  0  0  0  0  0  0  0  0  0  0
    7.5196   -4.7373    0.0000 H   0  0  0  0  0  0  0  0  0  0  0  0
    7.9181   -5.4276    0.0000 H   0  0  0  0  0  0  0  0  0  0  0  0
   10.7282    0.2750    0.0000 H   0  0  0  0  0  0  0  0  0  0  0  0
   12.4603   -2.9650    0.0000 H   0  0  0  0  0  0  0  0  0  0  0  0
   11.0573   -0.5350    0.0000 H   0  0  0  0  0  0  0  0  0  0  0  0
    7.2641   -2.7250    0.0000 H   0  0  0  0  0  0  0  0  0  0  0  0
   13.8632   -2.1550    0.0000 H   0  0  0  0  0  0  0  0  0  0  0  0
   12.4603    0.2750    0.0000 H   0  0  0  0  0  0  0  0  0  0  0  0
   13.8632   -0.5350    0.0000 H   0  0  0  0  0  0  0  0  0  0  0  0
    7.2641    0.0350    0.0000 H   0  0  0  0  0  0  0  0  0  0  0  0
    7.2641    3.2750    0.0000 H   0  0  0  0  0  0  0  0  0  0  0  0
   10.0742    3.5724    0.0000 H   0  0  0  0  0  0  0  0  0  0  0  0
   10.4728    4.2627    0.0000 H   0  0  0  0  0  0  0  0  0  0  0  0
    9.6501    5.7376    0.0000 H   0  0  0  0  0  0  0  0  0  0  0  0
    9.2516    5.0473    0.0000 H   0  0  0  0  0  0  0  0  0  0  0  0
    5.8612    0.8450    0.0000 H   0  0  0  0  0  0  0  0  0  0  0  0
    8.4592    3.9650    0.0000 H   0  0  0  0  0  0  0  0  0  0  0  0
    9.5331   -6.6550    0.0000 H   0  0  0  0  0  0  0  0  0  0  0  0
    8.4592   -6.6550    0.0000 H   0  0  0  0  0  0  0  0  0  0  0  0
    5.8612    2.4650    0.0000 H   0  0  0  0  0  0  0  0  0  0  0  0
   10.9403    5.0724    0.0000 H   0  0  0  0  0  0  0  0  0  0  0  0
   11.3388    5.7627    0.0000 H   0  0  0  0  0  0  0  0  0  0  0  0
    6.0690   -2.0350    0.0000 H   0  0  0  0  0  0  0  0  0  0  0  0
    4.6660   -1.2250    0.0000 H   0  0  0  0  0  0  0  0  0  0  0  0
   11.3482    6.6550    0.0000 H   0  0  0  0  0  0  0  0  0  0  0  0
   10.7282    7.2750    0.0000 H   0  0  0  0  0  0  0  0  0  0  0  0
   10.1082    6.6550    0.0000 H   0  0  0  0  0  0  0  0  0  0  0  0
    2.9132   -4.4996    0.0000 H   0  0  0  0  0  0  0  0  0  0  0  0
    2.9132   -1.1904    0.0000 H   0  0  0  0  0  0  0  0  0  0  0  0
    1.4643   -3.6779    0.0000 H   0  0  0  0  0  0  0  0  0  0  0  0
    1.4643   -2.0121    0.0000 H   0  0  0  0  0  0  0  0  0  0  0  0
  1 15  1  0  0  0  0
  1 22  1  0  0  0  0
 13  2  1  6  0  0  0
  2 57  1  0  0  0  0
  3 18  2  0  0  0  0
  4 25  2  0  0  0  0
  5 27  2  0  0  0  0
  6 31  2  0  0  0  0
 12  7  1  6  0  0  0
  7 18  1  0  0  0  0
  7 51  1  0  0  0  0
 17  8  1  6  0  0  0
  8 27  1  0  0  0  0
  8 60  1  0  0  0  0
  9 31  1  0  0  0  0
  9 33  1  0  0  0  0
  9 71  1  0  0  0  0
 10 25  1  0  0  0  0
 10 72  1  0  0  0  0
 10 73  1  0  0  0  0
 11 30  2  0  0  0  0
 11 39  1  0  0  0  0
 12 13  1  0  0  0  0
 12 14  1  0  0  0  0
 12 47  1  0  0  0  0
 13 15  1  0  0  0  0
 13 48  1  0  0  0  0
 14 16  1  0  0  0  0
 14 49  1  0  0  0  0
 14 50  1  0  0  0  0
 15 52  1  0  0  0  0
 15 53  1  0  0  0  0
 16 20  2  0  0  0  0
 16 21  1  0  0  0  0
 17 18  1  0  0  0  0
 17 19  1  0  0  0  0
 17 54  1  0  0  0  0
 19 25  1  0  0  0  0
 19 55  1  0  0  0  0
 19 56  1  0  0  0  0
 20 23  1  0  0  0  0
 20 58  1  0  0  0  0
 21 24  2  0  0  0  0
 21 59  1  0  0  0  0
 22 28  1  0  0  0  0
 22 29  2  0  0  0  0
 23 26  2  0  0  0  0
 23 61  1  0  0  0  0
 24 26  1  0  0  0  0
 24 62  1  0  0  0  0
 26 63  1  0  0  0  0
 27 30  1  0  0  0  0
 28 31  1  0  0  0  0
 28 32  2  0  0  0  0
 29 35  1  0  0  0  0
 29 64  1  0  0  0  0
 30 38  1  0  0  0  0
 32 36  1  0  0  0  0
 32 65  1  0  0  0  0
 33 34  1  0  0  0  0
 33 66  1  0  0  0  0
 33 67  1  0  0  0  0
 34 37  1  0  0  0  0
 34 68  1  0  0  0  0
 34 69  1  0  0  0  0
 35 36  2  0  0  0  0
 35 70  1  0  0  0  0
 36 74  1  0  0  0  0
 37 42  1  0  0  0  0
 37 75  1  0  0  0  0
 37 76  1  0  0  0  0
 38 41  2  0  0  0  0
 38 77  1  0  0  0  0
 39 40  1  0  0  0  0
 39 43  2  0  0  0  0
 40 41  1  0  0  0  0
 40 44  2  0  0  0  0
 41 78  1  0  0  0  0
 42 79  1  0  0  0  0
 42 80  1  0  0  0  0
 42 81  1  0  0  0  0
 43 45  1  0  0  0  0
 43 82  1  0  0  0  0
 44 46  1  0  0  0  0
 44 83  1  0  0  0  0
 45 46  2  0  0  0  0
 45 84  1  0  0  0  0
 46 85  1  0  0  0  0
M  END
> <PUBCHEM_COMPOUND_CID>
503053
> <PUBCHEM_COMPOUND_CANONICALIZED>
1
> <PUBCHEM_CACTVS_COMPLEXITY>
994
> <PUBCHEM_CACTVS_HBOND_ACCEPTOR>
7
> <PUBCHEM_CACTVS_HBOND_DONOR>
5
> <PUBCHEM_CACTVS_ROTATABLE_BOND>
16
> <PUBCHEM_CACTVS_SUBSKEYS>
AAADcfB/uABAAAAAAAAAAAAAAAAAAAAAAAA8YMEAAAAAAACx9AAAHgQQCAAADDzl3gaywfLIEgioAyVyVACCgCAnCjAImLm4ZNgKcPrg1bGUYQhklgD4yYedyKCOAAAAAAAGAAAAAAAAAAwAAAAAAAAAAA==
> <PUBCHEM_IUPAC_OPENEYE_NAME>
(2S)-N-[(1S,2R)-1-benzyl-3-[2-(butylcarbamoyl)phenyl]sulfanyl-2-hydroxy-propyl]-2-(quinoline-2-carbonylamino)butanediamide
> <PUBCHEM_IUPAC_CAS_NAME>
(2S)-N-[(2S,3R)-4-[[2-[butylamino(oxo)methyl]phenyl]thio]-3-hydroxy-1-phenylbutan-2-yl]-2-[[oxo(2-quinolinyl)methyl]amino]butanediamide
> <PUBCHEM_IUPAC_NAME_MARKUP>
(2<I>S</I>)-<I>N</I>-[(2<I>S</I>,3<I>R</I>)-4-[2-(butylcarbamoyl)phenyl]sulfanyl-3-hydroxy-1-phenylbutan-2-yl]-2-(quinoline-2-carbonylamino)butanediamide
> <PUBCHEM_IUPAC_NAME>
(2S)-N-[(2S,3R)-4-[2-(butylcarbamoyl)phenyl]sulfanyl-3-hydroxy-1-phenylbutan-2-yl]-2-(quinoline-2-carbonylamino)butanediamide
> <PUBCHEM_IUPAC_SYSTEMATIC_NAME>
(2S)-N-[(2S,3R)-4-[2-(butylcarbamoyl)phenyl]sulfanyl-3-oxidanyl-1-phenyl-butan-2-yl]-2-(quinolin-2-ylcarbonylamino)butanediamide
> <PUBCHEM_IUPAC_TRADITIONAL_NAME>
(2S)-N-[(1S,2R)-1-benzyl-3-[[2-(butylcarbamoyl)phenyl]thio]-2-hydroxy-propyl]-2-(quinaldoylamino)succinamide
> <PUBCHEM_IUPAC_INCHI>
InChI=1S/C35H39N5O5S/c1-2-3-19-37-33(43)25-14-8-10-16-31(25)46-22-30(41)28(20-23-11-5-4-6-12-23)39-35(45)29(21-32(36)42)40-34(44)27-18-17-24-13-7-9-15-26(24)38-27/h4-18,28-30,41H,2-3,19-22H2,1H3,(H2,36,42)(H,37,43)(H,39,45)(H,40,44)/t28-,29-,30-/m0/s1
> <PUBCHEM_IUPAC_INCHIKEY>
AQMZRKHNKSFDLX-DTXPUJKBSA-N
> <PUBCHEM_XLOGP3_AA>
4.2
> <PUBCHEM_EXACT_MASS>
641.26719054
> <PUBCHEM_MOLECULAR_FORMULA>
C35H39N5O5S
> <PUBCHEM_MOLECULAR_WEIGHT>
641.8
> <PUBCHEM_OPENEYE_CAN_SMILES>
CCCCNC(=O)C1=CC=CC=C1SCC(C(CC2=CC=CC=C2)NC(=O)C(CC(=O)N)NC(=O)C3=NC4=CC=CC=C4C=C3)O
> <PUBCHEM_OPENEYE_ISO_SMILES>
CCCCNC(=O)C1=CC=CC=C1SC[C@@H]([C@H](CC2=CC=CC=C2)NC(=O)[C@H](CC(=O)N)NC(=O)C3=NC4=CC=CC=C4C=C3)O
> <PUBCHEM_CACTVS_TPSA>
189
> <PUBCHEM_MONOISOTOPIC_WEIGHT>
641.26719054
> <PUBCHEM_TOTAL_CHARGE>
0
> <PUBCHEM_HEAVY_ATOM_COUNT>
46
> <PUBCHEM_ATOM_DEF_STEREO_COUNT>
3
> <PUBCHEM_ATOM_UDEF_STEREO_COUNT>
0
> <PUBCHEM_BOND_DEF_STEREO_COUNT>
0
> <PUBCHEM_BOND_UDEF_STEREO_COUNT>
0
> <PUBCHEM_ISOTOPIC_ATOM_COUNT>
0
> <PUBCHEM_COMPONENT_COUNT>
1
> <PUBCHEM_CACTVS_TAUTO_COUNT>
-1
> <PUBCHEM_COORDINATE_TYPE>
1
5
255
> <PUBCHEM_BONDANNOTATIONS>
11  30  8
11  39  8
16  20  8
16  21  8
13  2  6
20  23  8
21  24  8
22  28  8
22  29  8
23  26  8
24  26  8
28  32  8
29  35  8
30  38  8
32  36  8
35  36  8
38  41  8
39  40  8
39  43  8
40  41  8
40  44  8
43  45  8
44  46  8
45  46  8
12  7  6
17  8  6
$$$$
