503097
  -OEChem-10302200282D
 91 94  0     1  0  0  0  0  0999 V2000
    8.9962    1.4720    0.0000 S   0  0  0  0  0  0  0  0  0  0  0  0
   10.7282    0.4720    0.0000 O   0  0  0  0  0  0  0  0  0  0  0  0
    9.8622   -3.0280    0.0000 O   0  0  0  0  0  0  0  0  0  0  0  0
    9.8622   -4.0280    0.0000 O   0  0  0  0  0  0  0  0  0  0  0  0
    6.3981   -4.0280    0.0000 O   0  0  0  0  0  0  0  0  0  0  0  0
    9.8622    2.9720    0.0000 O   0  0  0  0  0  0  0  0  0  0  0  0
    8.9962   -1.5280    0.0000 N   0  0  0  0  0  0  0  0  0  0  0  0
    7.2641   -2.5280    0.0000 N   0  0  0  0  0  0  0  0  0  0  0  0
    8.9962    4.4720    0.0000 N   0  0  0  0  0  0  0  0  0  0  0  0
    8.9962   -5.5280    0.0000 N   0  0  0  0  0  0  0  0  0  0  0  0
    4.6660   -3.0280    0.0000 N   0  0  0  0  0  0  0  0  0  0  0  0
   11.5942   -1.0280    0.0000 C   0  0  0  0  0  0  0  0  0  0  0  0
   11.5942   -0.0280    0.0000 C   0  0  0  0  0  0  0  0  0  0  0  0
   12.4603   -1.5280    0.0000 C   0  0  0  0  0  0  0  0  0  0  0  0
   10.7282   -1.5280    0.0000 C   0  0  0  0  0  0  0  0  0  0  0  0
   12.4603    0.4720    0.0000 C   0  0  0  0  0  0  0  0  0  0  0  0
   13.3263   -1.0280    0.0000 C   0  0  0  0  0  0  0  0  0  0  0  0
   13.3263   -0.0280    0.0000 C   0  0  0  0  0  0  0  0  0  0  0  0
    9.8622   -1.0280    0.0000 C   0  0  1  0  0  0  0  0  0  0  0  0
    9.8622   -0.0280    0.0000 C   0  0  1  0  0  0  0  0  0  0  0  0
    8.9962    0.4720    0.0000 C   0  0  0  0  0  0  0  0  0  0  0  0
    8.9962   -2.5280    0.0000 C   0  0  0  0  0  0  0  0  0  0  0  0
    8.1301   -3.0280    0.0000 C   0  0  2  0  0  0  0  0  0  0  0  0
    8.1301   -4.0280    0.0000 C   0  0  0  0  0  0  0  0  0  0  0  0
    8.1301    1.9720    0.0000 C   0  0  0  0  0  0  0  0  0  0  0  0
    8.9962   -4.5280    0.0000 C   0  0  0  0  0  0  0  0  0  0  0  0
    8.1301    2.9720    0.0000 C   0  0  0  0  0  0  0  0  0  0  0  0
    6.3981   -3.0280    0.0000 C   0  0  0  0  0  0  0  0  0  0  0  0
    7.2641    1.4720    0.0000 C   0  0  0  0  0  0  0  0  0  0  0  0
    8.9962    3.4720    0.0000 C   0  0  0  0  0  0  0  0  0  0  0  0
    8.1301    4.9720    0.0000 C   0  0  0  0  0  0  0  0  0  0  0  0
    7.2641    3.4720    0.0000 C   0  0  0  0  0  0  0  0  0  0  0  0
    6.3981    1.9720    0.0000 C   0  0  0  0  0  0  0  0  0  0  0  0
    5.5321   -2.5280    0.0000 C   0  0  0  0  0  0  0  0  0  0  0  0
    6.3981    2.9720    0.0000 C   0  0  0  0  0  0  0  0  0  0  0  0
    7.2641    5.4720    0.0000 C   0  0  0  0  0  0  0  0  0  0  0  0
    7.6301    4.1060    0.0000 C   0  0  0  0  0  0  0  0  0  0  0  0
    8.6301    5.8380    0.0000 C   0  0  0  0  0  0  0  0  0  0  0  0
    5.5321   -1.5280    0.0000 C   0  0  0  0  0  0  0  0  0  0  0  0
    3.8000   -2.5280    0.0000 C   0  0  0  0  0  0  0  0  0  0  0  0
    4.6660   -1.0280    0.0000 C   0  0  0  0  0  0  0  0  0  0  0  0
    3.8000   -1.5280    0.0000 C   0  0  0  0  0  0  0  0  0  0  0  0
    2.9061   -3.0627    0.0000 C   0  0  0  0  0  0  0  0  0  0  0  0
    2.9061   -0.9934    0.0000 C   0  0  0  0  0  0  0  0  0  0  0  0
    2.0000   -2.5488    0.0000 C   0  0  0  0  0  0  0  0  0  0  0  0
    2.0000   -1.5072    0.0000 C   0  0  0  0  0  0  0  0  0  0  0  0
   11.0573   -0.7180    0.0000 H   0  0  0  0  0  0  0  0  0  0  0  0
   11.3822    0.5546    0.0000 H   0  0  0  0  0  0  0  0  0  0  0  0
   10.9837   -0.1357    0.0000 H   0  0  0  0  0  0  0  0  0  0  0  0
   12.0617   -2.0030    0.0000 H   0  0  0  0  0  0  0  0  0  0  0  0
   12.8588   -2.0030    0.0000 H   0  0  0  0  0  0  0  0  0  0  0  0
   10.3297   -2.0030    0.0000 H   0  0  0  0  0  0  0  0  0  0  0  0
   11.1267   -2.0030    0.0000 H   0  0  0  0  0  0  0  0  0  0  0  0
   12.8588    0.9469    0.0000 H   0  0  0  0  0  0  0  0  0  0  0  0
   12.0617    0.9469    0.0000 H   0  0  0  0  0  0  0  0  0  0  0  0
   13.5383   -1.6106    0.0000 H   0  0  0  0  0  0  0  0  0  0  0  0
   13.9369   -0.9204    0.0000 H   0  0  0  0  0  0  0  0  0  0  0  0
   13.9369   -0.1357    0.0000 H   0  0  0  0  0  0  0  0  0  0  0  0
   13.5383    0.5546    0.0000 H   0  0  0  0  0  0  0  0  0  0  0  0
    9.3252   -0.7180    0.0000 H   0  0  0  0  0  0  0  0  0  0  0  0
    9.8622    0.5920    0.0000 H   0  0  0  0  0  0  0  0  0  0  0  0
    8.4592   -1.2180    0.0000 H   0  0  0  0  0  0  0  0  0  0  0  0
    8.3856    0.5796    0.0000 H   0  0  0  0  0  0  0  0  0  0  0  0
    8.7841   -0.1106    0.0000 H   0  0  0  0  0  0  0  0  0  0  0  0
   10.7282    1.0920    0.0000 H   0  0  0  0  0  0  0  0  0  0  0  0
    7.5932   -3.3380    0.0000 H   0  0  0  0  0  0  0  0  0  0  0  0
    7.5196   -3.9204    0.0000 H   0  0  0  0  0  0  0  0  0  0  0  0
    7.9181   -4.6106    0.0000 H   0  0  0  0  0  0  0  0  0  0  0  0
    7.2641   -1.9080    0.0000 H   0  0  0  0  0  0  0  0  0  0  0  0
    7.2641    0.8520    0.0000 H   0  0  0  0  0  0  0  0  0  0  0  0
    7.2641    4.0920    0.0000 H   0  0  0  0  0  0  0  0  0  0  0  0
    5.8612    1.6620    0.0000 H   0  0  0  0  0  0  0  0  0  0  0  0
    9.5331    4.7820    0.0000 H   0  0  0  0  0  0  0  0  0  0  0  0
    9.5331   -5.8380    0.0000 H   0  0  0  0  0  0  0  0  0  0  0  0
    8.4592   -5.8380    0.0000 H   0  0  0  0  0  0  0  0  0  0  0  0
    5.8612    3.2820    0.0000 H   0  0  0  0  0  0  0  0  0  0  0  0
    7.5741    6.0089    0.0000 H   0  0  0  0  0  0  0  0  0  0  0  0
    6.7272    5.7820    0.0000 H   0  0  0  0  0  0  0  0  0  0  0  0
    6.9541    4.9351    0.0000 H   0  0  0  0  0  0  0  0  0  0  0  0
    7.0932    4.4160    0.0000 H   0  0  0  0  0  0  0  0  0  0  0  0
    7.3201    3.5690    0.0000 H   0  0  0  0  0  0  0  0  0  0  0  0
    8.1671    3.7960    0.0000 H   0  0  0  0  0  0  0  0  0  0  0  0
    9.1671    5.5280    0.0000 H   0  0  0  0  0  0  0  0  0  0  0  0
    8.9401    6.3750    0.0000 H   0  0  0  0  0  0  0  0  0  0  0  0
    8.0932    6.1480    0.0000 H   0  0  0  0  0  0  0  0  0  0  0  0
    6.0690   -1.2180    0.0000 H   0  0  0  0  0  0  0  0  0  0  0  0
    4.6660   -0.4080    0.0000 H   0  0  0  0  0  0  0  0  0  0  0  0
    2.9132   -3.6826    0.0000 H   0  0  0  0  0  0  0  0  0  0  0  0
    2.9132   -0.3734    0.0000 H   0  0  0  0  0  0  0  0  0  0  0  0
    1.4643   -2.8609    0.0000 H   0  0  0  0  0  0  0  0  0  0  0  0
    1.4643   -1.1951    0.0000 H   0  0  0  0  0  0  0  0  0  0  0  0
  1 21  1  0  0  0  0
  1 25  1  0  0  0  0
 20  2  1  1  0  0  0
  2 65  1  0  0  0  0
  3 22  2  0  0  0  0
  4 26  2  0  0  0  0
  5 28  2  0  0  0  0
  6 30  2  0  0  0  0
 19  7  1  6  0  0  0
  7 22  1  0  0  0  0
  7 62  1  0  0  0  0
 23  8  1  6  0  0  0
  8 28  1  0  0  0  0
  8 69  1  0  0  0  0
  9 30  1  0  0  0  0
  9 31  1  0  0  0  0
  9 73  1  0  0  0  0
 10 26  1  0  0  0  0
 10 74  1  0  0  0  0
 10 75  1  0  0  0  0
 11 34  2  0  0  0  0
 11 40  1  0  0  0  0
 12 13  1  0  0  0  0
 12 14  1  0  0  0  0
 12 15  1  0  0  0  0
 12 47  1  0  0  0  0
 13 16  1  0  0  0  0
 13 48  1  0  0  0  0
 13 49  1  0  0  0  0
 14 17  1  0  0  0  0
 14 50  1  0  0  0  0
 14 51  1  0  0  0  0
 15 19  1  0  0  0  0
 15 52  1  0  0  0  0
 15 53  1  0  0  0  0
 16 18  1  0  0  0  0
 16 54  1  0  0  0  0
 16 55  1  0  0  0  0
 17 18  1  0  0  0  0
 17 56  1  0  0  0  0
 17 57  1  0  0  0  0
 18 58  1  0  0  0  0
 18 59  1  0  0  0  0
 19 20  1  0  0  0  0
 19 60  1  0  0  0  0
 20 21  1  0  0  0  0
 20 61  1  0  0  0  0
 21 63  1  0  0  0  0
 21 64  1  0  0  0  0
 22 23  1  0  0  0  0
 23 24  1  0  0  0  0
 23 66  1  0  0  0  0
 24 26  1  0  0  0  0
 24 67  1  0  0  0  0
 24 68  1  0  0  0  0
 25 27  1  0  0  0  0
 25 29  2  0  0  0  0
 27 30  1  0  0  0  0
 27 32  2  0  0  0  0
 28 34  1  0  0  0  0
 29 33  1  0  0  0  0
 29 70  1  0  0  0  0
 31 36  1  0  0  0  0
 31 37  1  0  0  0  0
 31 38  1  0  0  0  0
 32 35  1  0  0  0  0
 32 71  1  0  0  0  0
 33 35  2  0  0  0  0
 33 72  1  0  0  0  0
 34 39  1  0  0  0  0
 35 76  1  0  0  0  0
 36 77  1  0  0  0  0
 36 78  1  0  0  0  0
 36 79  1  0  0  0  0
 37 80  1  0  0  0  0
 37 81  1  0  0  0  0
 37 82  1  0  0  0  0
 38 83  1  0  0  0  0
 38 84  1  0  0  0  0
 38 85  1  0  0  0  0
 39 41  2  0  0  0  0
 39 86  1  0  0  0  0
 40 42  1  0  0  0  0
 40 43  2  0  0  0  0
 41 42  1  0  0  0  0
 41 87  1  0  0  0  0
 42 44  2  0  0  0  0
 43 45  1  0  0  0  0
 43 88  1  0  0  0  0
 44 46  1  0  0  0  0
 44 89  1  0  0  0  0
 45 46  2  0  0  0  0
 45 90  1  0  0  0  0
 46 91  1  0  0  0  0
M  END
> <PUBCHEM_COMPOUND_CID>
503097
> <PUBCHEM_COMPOUND_CANONICALIZED>
1
> <PUBCHEM_CACTVS_COMPLEXITY>
1030
> <PUBCHEM_CACTVS_HBOND_ACCEPTOR>
7
> <PUBCHEM_CACTVS_HBOND_DONOR>
5
> <PUBCHEM_CACTVS_ROTATABLE_BOND>
14
> <PUBCHEM_CACTVS_SUBSKEYS>
AAADcfB/uABAAAAAAAAAAAAAAAAAAAAAAAA8YMEAAAAAAACx9AAAHgQQCAAADbzl3gaywfLIEgioAyVyVACCgCAnCjAImLm4ZNgKcPrg1bGUYQhklgD4yYedyKCOAAAAAAAGAAAAAAAAAAwAAAAAAAAAAA==
> <PUBCHEM_IUPAC_OPENEYE_NAME>
(2S)-N-[(1S,2S)-3-[2-(tert-butylcarbamoyl)phenyl]sulfanyl-1-(cyclohexylmethyl)-2-hydroxy-propyl]-2-(quinoline-2-carbonylamino)butanediamide
> <PUBCHEM_IUPAC_CAS_NAME>
(2S)-N-[(2S,3S)-4-[[2-[(tert-butylamino)-oxomethyl]phenyl]thio]-1-cyclohexyl-3-hydroxybutan-2-yl]-2-[[oxo(2-quinolinyl)methyl]amino]butanediamide
> <PUBCHEM_IUPAC_NAME_MARKUP>
(2<I>S</I>)-<I>N</I>-[(2<I>S</I>,3<I>S</I>)-4-[2-(<I>tert</I>-butylcarbamoyl)phenyl]sulfanyl-1-cyclohexyl-3-hydroxybutan-2-yl]-2-(quinoline-2-carbonylamino)butanediamide
> <PUBCHEM_IUPAC_NAME>
(2S)-N-[(2S,3S)-4-[2-(tert-butylcarbamoyl)phenyl]sulfanyl-1-cyclohexyl-3-hydroxybutan-2-yl]-2-(quinoline-2-carbonylamino)butanediamide
> <PUBCHEM_IUPAC_SYSTEMATIC_NAME>
(2S)-N-[(2S,3S)-4-[2-(tert-butylcarbamoyl)phenyl]sulfanyl-1-cyclohexyl-3-oxidanyl-butan-2-yl]-2-(quinolin-2-ylcarbonylamino)butanediamide
> <PUBCHEM_IUPAC_TRADITIONAL_NAME>
(2S)-N-[(1S,2S)-3-[[2-(tert-butylcarbamoyl)phenyl]thio]-1-(cyclohexylmethyl)-2-hydroxy-propyl]-2-(quinaldoylamino)succinamide
> <PUBCHEM_IUPAC_INCHI>
InChI=1S/C35H45N5O5S/c1-35(2,3)40-32(43)24-14-8-10-16-30(24)46-21-29(41)27(19-22-11-5-4-6-12-22)38-34(45)28(20-31(36)42)39-33(44)26-18-17-23-13-7-9-15-25(23)37-26/h7-10,13-18,22,27-29,41H,4-6,11-12,19-21H2,1-3H3,(H2,36,42)(H,38,45)(H,39,44)(H,40,43)/t27-,28-,29+/m0/s1
> <PUBCHEM_IUPAC_INCHIKEY>
ZCNPUGHIASNPBS-YTCPBCGMSA-N
> <PUBCHEM_XLOGP3_AA>
5
> <PUBCHEM_EXACT_MASS>
647.31414073
> <PUBCHEM_MOLECULAR_FORMULA>
C35H45N5O5S
> <PUBCHEM_MOLECULAR_WEIGHT>
647.8
> <PUBCHEM_OPENEYE_CAN_SMILES>
CC(C)(C)NC(=O)C1=CC=CC=C1SCC(C(CC2CCCCC2)NC(=O)C(CC(=O)N)NC(=O)C3=NC4=CC=CC=C4C=C3)O
> <PUBCHEM_OPENEYE_ISO_SMILES>
CC(C)(C)NC(=O)C1=CC=CC=C1SC[C@H]([C@H](CC2CCCCC2)NC(=O)[C@H](CC(=O)N)NC(=O)C3=NC4=CC=CC=C4C=C3)O
> <PUBCHEM_CACTVS_TPSA>
189
> <PUBCHEM_MONOISOTOPIC_WEIGHT>
647.31414073
> <PUBCHEM_TOTAL_CHARGE>
0
> <PUBCHEM_HEAVY_ATOM_COUNT>
46
> <PUBCHEM_ATOM_DEF_STEREO_COUNT>
3
> <PUBCHEM_ATOM_UDEF_STEREO_COUNT>
0
> <PUBCHEM_BOND_DEF_STEREO_COUNT>
0
> <PUBCHEM_BOND_UDEF_STEREO_COUNT>
0
> <PUBCHEM_ISOTOPIC_ATOM_COUNT>
0
> <PUBCHEM_COMPONENT_COUNT>
1
> <PUBCHEM_CACTVS_TAUTO_COUNT>
-1
> <PUBCHEM_COORDINATE_TYPE>
1
5
255
> <PUBCHEM_BONDANNOTATIONS>
11  34  8
11  40  8
20  2  5
25  27  8
25  29  8
27  32  8
29  33  8
32  35  8
33  35  8
34  39  8
39  41  8
40  42  8
40  43  8
41  42  8
42  44  8
43  45  8
44  46  8
45  46  8
19  7  6
23  8  6
$$$$
