503048
  -OEChem-10302200282D
 81 84  0     1  0  0  0  0  0999 V2000
    7.2945    0.4744    0.0000 Cu  0  2  0  0  0  0  0  0  0  0  0  0
    2.5369    0.3434    0.0000 O   0  0  0  0  0  0  0  0  0  0  0  0
    6.5819    5.5371    0.0000 O   0  0  0  0  0  0  0  0  0  0  0  0
    8.1915   -5.5371    0.0000 O   0  0  0  0  0  0  0  0  0  0  0  0
   13.7845   -0.0461    0.0000 O   0  0  0  0  0  0  0  0  0  0  0  0
    9.5865   -4.5104    0.0000 O   0  0  0  0  0  0  0  0  0  0  0  0
   12.7418   -1.4291    0.0000 O   0  0  0  0  0  0  0  0  0  0  0  0
    7.3077   -0.5255    0.0000 N   0  5  0  0  0  0  0  0  0  0  0  0
    8.8094    0.8440    0.0000 N   0  5  0  0  0  0  0  0  0  0  0  0
    5.8042    0.8440    0.0000 N   0  0  0  0  0  0  0  0  0  0  0  0
    7.2742    2.2135    0.0000 N   0  0  0  0  0  0  0  0  0  0  0  0
    7.8082   -2.0943    0.0000 C   0  0  0  0  0  0  0  0  0  0  0  0
   10.3463    0.3769    0.0000 C   0  0  0  0  0  0  0  0  0  0  0  0
    4.2690    0.3434    0.0000 C   0  0  0  0  0  0  0  0  0  0  0  0
    6.7736    3.8157    0.0000 C   0  0  0  0  0  0  0  0  0  0  0  0
    6.8071   -2.0943    0.0000 C   0  0  0  0  0  0  0  0  0  0  0  0
    8.1096   -1.1266    0.0000 C   0  0  0  0  0  0  0  0  0  0  0  0
    9.4105    0.1090    0.0000 C   0  0  0  0  0  0  0  0  0  0  0  0
   10.3463    1.3780    0.0000 C   0  0  0  0  0  0  0  0  0  0  0  0
    4.2690    1.3446    0.0000 C   0  0  0  0  0  0  0  0  0  0  0  0
    5.2367    0.0755    0.0000 C   0  0  0  0  0  0  0  0  0  0  0  0
    6.5057   -1.1601    0.0000 C   0  0  0  0  0  0  0  0  0  0  0  0
    7.7748    3.8157    0.0000 C   0  0  0  0  0  0  0  0  0  0  0  0
    6.4722    2.8480    0.0000 C   0  0  0  0  0  0  0  0  0  0  0  0
    9.3770    1.6459    0.0000 C   0  0  0  0  0  0  0  0  0  0  0  0
    5.2367    1.6124    0.0000 C   0  0  0  0  0  0  0  0  0  0  0  0
    8.1096    2.8815    0.0000 C   0  0  0  0  0  0  0  0  0  0  0  0
    8.4010   -2.8996    0.0000 C   0  0  0  0  0  0  0  0  0  0  0  0
   11.1448   -0.2251    0.0000 C   0  0  0  0  0  0  0  0  0  0  0  0
    9.1108   -0.8587    0.0000 C   0  0  0  0  0  0  0  0  0  0  0  0
    3.4030   -0.1566    0.0000 C   0  0  3  0  0  0  0  0  0  0  0  0
    5.5380   -0.8587    0.0000 C   0  0  0  0  0  0  0  0  0  0  0  0
    6.1808    4.6211    0.0000 C   0  0  3  0  0  0  0  0  0  0  0  0
    5.5045    2.5801    0.0000 C   0  0  0  0  0  0  0  0  0  0  0  0
    9.0773    2.5801    0.0000 C   0  0  0  0  0  0  0  0  0  0  0  0
    6.1364   -2.8360    0.0000 C   0  0  0  0  0  0  0  0  0  0  0  0
    7.9999   -3.8157    0.0000 C   0  0  0  0  0  0  0  0  0  0  0  0
   11.1421    1.9837    0.0000 C   0  0  0  0  0  0  0  0  0  0  0  0
   12.0654    0.1654    0.0000 C   0  0  0  0  0  0  0  0  0  0  0  0
    3.4731    1.9500    0.0000 C   0  0  0  0  0  0  0  0  0  0  0  0
    8.3503    4.6334    0.0000 C   0  0  0  0  0  0  0  0  0  0  0  0
    3.4030   -1.1566    0.0000 C   0  0  0  0  0  0  0  0  0  0  0  0
    5.1870    4.5104    0.0000 C   0  0  0  0  0  0  0  0  0  0  0  0
    8.5926   -4.6211    0.0000 C   0  0  0  0  0  0  0  0  0  0  0  0
   12.8639   -0.4366    0.0000 C   0  0  0  0  0  0  0  0  0  0  0  0
    8.9171   -3.2432    0.0000 H   0  0  0  0  0  0  0  0  0  0  0  0
    8.8289   -2.4510    0.0000 H   0  0  0  0  0  0  0  0  0  0  0  0
   10.6913   -0.6479    0.0000 H   0  0  0  0  0  0  0  0  0  0  0  0
   11.4824   -0.7452    0.0000 H   0  0  0  0  0  0  0  0  0  0  0  0
    9.5406   -1.3055    0.0000 H   0  0  0  0  0  0  0  0  0  0  0  0
    2.8660   -0.4666    0.0000 H   0  0  0  0  0  0  0  0  0  0  0  0
    5.1018   -1.2993    0.0000 H   0  0  0  0  0  0  0  0  0  0  0  0
    6.7970    4.6897    0.0000 H   0  0  0  0  0  0  0  0  0  0  0  0
    5.0661    3.0185    0.0000 H   0  0  0  0  0  0  0  0  0  0  0  0
    9.5138    3.0204    0.0000 H   0  0  0  0  0  0  0  0  0  0  0  0
    5.6765   -2.4201    0.0000 H   0  0  0  0  0  0  0  0  0  0  0  0
    5.7205   -3.2958    0.0000 H   0  0  0  0  0  0  0  0  0  0  0  0
    6.5962   -3.2518    0.0000 H   0  0  0  0  0  0  0  0  0  0  0  0
    7.4838   -3.4721    0.0000 H   0  0  0  0  0  0  0  0  0  0  0  0
    7.5720   -4.2643    0.0000 H   0  0  0  0  0  0  0  0  0  0  0  0
   11.5176    1.4904    0.0000 H   0  0  0  0  0  0  0  0  0  0  0  0
   11.6354    2.3592    0.0000 H   0  0  0  0  0  0  0  0  0  0  0  0
   10.7665    2.4770    0.0000 H   0  0  0  0  0  0  0  0  0  0  0  0
   12.5190    0.5881    0.0000 H   0  0  0  0  0  0  0  0  0  0  0  0
   11.7279    0.6854    0.0000 H   0  0  0  0  0  0  0  0  0  0  0  0
    3.8485    2.4435    0.0000 H   0  0  0  0  0  0  0  0  0  0  0  0
    2.9797    2.3254    0.0000 H   0  0  0  0  0  0  0  0  0  0  0  0
    3.0977    1.4566    0.0000 H   0  0  0  0  0  0  0  0  0  0  0  0
    8.8573    4.2766    0.0000 H   0  0  0  0  0  0  0  0  0  0  0  0
    8.7072    5.1404    0.0000 H   0  0  0  0  0  0  0  0  0  0  0  0
    7.8433    4.9903    0.0000 H   0  0  0  0  0  0  0  0  0  0  0  0
    2.7830   -1.1566    0.0000 H   0  0  0  0  0  0  0  0  0  0  0  0
    3.4030   -1.7766    0.0000 H   0  0  0  0  0  0  0  0  0  0  0  0
    4.0230   -1.1566    0.0000 H   0  0  0  0  0  0  0  0  0  0  0  0
    5.1184    5.1266    0.0000 H   0  0  0  0  0  0  0  0  0  0  0  0
    4.5708    4.4418    0.0000 H   0  0  0  0  0  0  0  0  0  0  0  0
    5.2556    3.8942    0.0000 H   0  0  0  0  0  0  0  0  0  0  0  0
    2.0000    0.0333    0.0000 H   0  0  0  0  0  0  0  0  0  0  0  0
    6.2144    6.0364    0.0000 H   0  0  0  0  0  0  0  0  0  0  0  0
    8.5590   -6.0364    0.0000 H   0  0  0  0  0  0  0  0  0  0  0  0
   14.2796   -0.4193    0.0000 H   0  0  0  0  0  0  0  0  0  0  0  0
  2 31  1  0  0  0  0
  2 78  1  0  0  0  0
  3 33  1  0  0  0  0
  3 79  1  0  0  0  0
  4 44  1  0  0  0  0
  4 80  1  0  0  0  0
  5 45  1  0  0  0  0
  5 81  1  0  0  0  0
  6 44  2  0  0  0  0
  7 45  2  0  0  0  0
  8 17  1  0  0  0  0
  8 22  1  0  0  0  0
  9 18  1  0  0  0  0
  9 25  1  0  0  0  0
 10 21  1  0  0  0  0
 10 26  2  0  0  0  0
 11 24  1  0  0  0  0
 11 27  2  0  0  0  0
 12 16  1  0  0  0  0
 12 17  2  0  0  0  0
 12 28  1  0  0  0  0
 13 18  1  0  0  0  0
 13 19  2  0  0  0  0
 13 29  1  0  0  0  0
 14 20  2  0  0  0  0
 14 21  1  0  0  0  0
 14 31  1  0  0  0  0
 15 23  2  0  0  0  0
 15 24  1  0  0  0  0
 15 33  1  0  0  0  0
 16 22  2  0  0  0  0
 16 36  1  0  0  0  0
 17 30  1  0  0  0  0
 18 30  2  0  0  0  0
 19 25  1  0  0  0  0
 19 38  1  0  0  0  0
 20 26  1  0  0  0  0
 20 40  1  0  0  0  0
 21 32  2  0  0  0  0
 22 32  1  0  0  0  0
 23 27  1  0  0  0  0
 23 41  1  0  0  0  0
 24 34  2  0  0  0  0
 25 35  2  0  0  0  0
 26 34  1  0  0  0  0
 27 35  1  0  0  0  0
 28 37  1  0  0  0  0
 28 46  1  0  0  0  0
 28 47  1  0  0  0  0
 29 39  1  0  0  0  0
 29 48  1  0  0  0  0
 29 49  1  0  0  0  0
 30 50  1  0  0  0  0
 31 42  1  0  0  0  0
 31 51  1  0  0  0  0
 32 52  1  0  0  0  0
 33 43  1  0  0  0  0
 33 53  1  0  0  0  0
 34 54  1  0  0  0  0
 35 55  1  0  0  0  0
 36 56  1  0  0  0  0
 36 57  1  0  0  0  0
 36 58  1  0  0  0  0
 37 44  1  0  0  0  0
 37 59  1  0  0  0  0
 37 60  1  0  0  0  0
 38 61  1  0  0  0  0
 38 62  1  0  0  0  0
 38 63  1  0  0  0  0
 39 45  1  0  0  0  0
 39 64  1  0  0  0  0
 39 65  1  0  0  0  0
 40 66  1  0  0  0  0
 40 67  1  0  0  0  0
 40 68  1  0  0  0  0
 41 69  1  0  0  0  0
 41 70  1  0  0  0  0
 41 71  1  0  0  0  0
 42 72  1  0  0  0  0
 42 73  1  0  0  0  0
 42 74  1  0  0  0  0
 43 75  1  0  0  0  0
 43 76  1  0  0  0  0
 43 77  1  0  0  0  0
M  CHG  3   1   2   8  -1   9  -1
M  END
> <PUBCHEM_COMPOUND_CID>
503048
> <PUBCHEM_COMPOUND_CANONICALIZED>
1
> <PUBCHEM_CACTVS_COMPLEXITY>
1020
> <PUBCHEM_CACTVS_HBOND_ACCEPTOR>
10
> <PUBCHEM_CACTVS_HBOND_DONOR>
4
> <PUBCHEM_CACTVS_ROTATABLE_BOND>
8
> <PUBCHEM_CACTVS_SUBSKEYS>
AAADcfB/uAAAAAAEAAAAAAAAAAAAAWLFiwAAAAAAAAAAAAAB/gAAHgAACAAADByhngIyyLIIEgCoAyTyTACCgCAhAiAAmCEwbJgINnLA0NGEdAhmwAHI2Ae42fOegAAAAAAAAAAAAAAAAAAAAAAAAAAAAA==
> <PUBCHEM_IUPAC_OPENEYE_NAME>
copper;3-[18-(2-carboxyethyl)-8,13-bis(1-hydroxyethyl)-3,7,12,17-tetramethyl-porphyrin-21,24-diid-2-yl]propanoic acid
> <PUBCHEM_IUPAC_CAS_NAME>
copper;3-[18-(2-carboxyethyl)-8,13-bis(1-hydroxyethyl)-3,7,12,17-tetramethyl-2-porphyrin-21,24-diidyl]propanoic acid
> <PUBCHEM_IUPAC_NAME_MARKUP>
copper;3-[18-(2-carboxyethyl)-8,13-bis(1-hydroxyethyl)-3,7,12,17-tetramethylporphyrin-21,24-diid-2-yl]propanoic acid
> <PUBCHEM_IUPAC_NAME>
copper;3-[18-(2-carboxyethyl)-8,13-bis(1-hydroxyethyl)-3,7,12,17-tetramethylporphyrin-21,24-diid-2-yl]propanoic acid
> <PUBCHEM_IUPAC_SYSTEMATIC_NAME>
copper;3-[8,13-bis(1-hydroxyethyl)-18-(3-hydroxy-3-oxopropyl)-3,7,12,17-tetramethyl-porphyrin-21,24-diid-2-yl]propanoic acid
> <PUBCHEM_IUPAC_TRADITIONAL_NAME>
cupric;3-[18-(2-carboxyethyl)-8,13-bis(1-hydroxyethyl)-3,7,12,17-tetramethyl-porphine-21,24-diid-2-yl]propionic acid
> <PUBCHEM_IUPAC_INCHI>
InChI=1S/C34H38N4O6.Cu/c1-15-21(7-9-31(41)42)27-14-28-22(8-10-32(43)44)16(2)24(36-28)12-29-34(20(6)40)18(4)26(38-29)13-30-33(19(5)39)17(3)25(37-30)11-23(15)35-27;/h11-14,19-20,39-40H,7-10H2,1-6H3,(H4,35,36,37,38,41,42,43,44);/q;+2/p-2
> <PUBCHEM_IUPAC_INCHIKEY>
ADIFJKQHDBLERB-UHFFFAOYSA-L
> <PUBCHEM_EXACT_MASS>
659.193082
> <PUBCHEM_MOLECULAR_FORMULA>
C34H36CuN4O6
> <PUBCHEM_MOLECULAR_WEIGHT>
660.2
> <PUBCHEM_OPENEYE_CAN_SMILES>
CC1=C(C2=CC3=C(C(=C([N-]3)C=C4C(=C(C(=N4)C=C5C(=C(C(=N5)C=C1[N-]2)C)C(C)O)C)C(C)O)C)CCC(=O)O)CCC(=O)O.[Cu+2]
> <PUBCHEM_OPENEYE_ISO_SMILES>
CC1=C(C2=CC3=C(C(=C([N-]3)C=C4C(=C(C(=N4)C=C5C(=C(C(=N5)C=C1[N-]2)C)C(C)O)C)C(C)O)C)CCC(=O)O)CCC(=O)O.[Cu+2]
> <PUBCHEM_CACTVS_TPSA>
143
> <PUBCHEM_MONOISOTOPIC_WEIGHT>
659.193082
> <PUBCHEM_TOTAL_CHARGE>
0
> <PUBCHEM_HEAVY_ATOM_COUNT>
45
> <PUBCHEM_ATOM_DEF_STEREO_COUNT>
0
> <PUBCHEM_ATOM_UDEF_STEREO_COUNT>
2
> <PUBCHEM_BOND_DEF_STEREO_COUNT>
0
> <PUBCHEM_BOND_UDEF_STEREO_COUNT>
0
> <PUBCHEM_ISOTOPIC_ATOM_COUNT>
0
> <PUBCHEM_COMPONENT_COUNT>
2
> <PUBCHEM_CACTVS_TAUTO_COUNT>
-1
> <PUBCHEM_COORDINATE_TYPE>
1
5
255
> <PUBCHEM_BONDANNOTATIONS>
10  21  8
10  26  8
11  24  8
11  27  8
12  16  8
12  17  8
13  18  8
13  19  8
16  22  8
17  30  8
18  30  8
19  25  8
31  2  3
21  32  8
22  32  8
24  34  8
25  35  8
26  34  8
27  35  8
33  3  3
8  17  8
8  22  8
9  18  8
9  25  8
$$$$
