503071
  -OEChem-10302200282D
 85 89  0     1  0  0  0  0  0999 V2000
   12.1898   -0.3460    0.0000 S   0  0  0  0  0  0  0  0  0  0  0  0
    7.6424    0.2209    0.0000 O   0  0  0  0  0  0  0  0  0  0  0  0
   10.7035   -1.6843    0.0000 O   0  0  0  0  0  0  0  0  0  0  0  0
    6.3981    0.7749    0.0000 O   0  0  0  0  0  0  0  0  0  0  0  0
   11.0308    0.9411    0.0000 O   0  0  0  0  0  0  0  0  0  0  0  0
    7.2641    2.2749    0.0000 N   0  0  0  0  0  0  0  0  0  0  0  0
    9.3366    0.5810    0.0000 N   0  0  0  0  0  0  0  0  0  0  0  0
    4.6660    1.7749    0.0000 N   0  0  0  0  0  0  0  0  0  0  0  0
   11.5661    2.5884    0.0000 N   0  0  0  0  0  0  0  0  0  0  0  0
    8.1777    1.8682    0.0000 C   0  0  1  0  0  0  0  0  0  0  0  0
    8.8468    2.6113    0.0000 C   0  0  0  0  0  0  0  0  0  0  0  0
    8.3468    3.4774    0.0000 C   0  0  0  0  0  0  0  0  0  0  0  0
    7.3686    3.2694    0.0000 C   0  0  0  0  0  0  0  0  0  0  0  0
    8.3856    0.8900    0.0000 C   0  0  0  0  0  0  0  0  0  0  0  0
    9.5445   -0.3971    0.0000 C   0  0  2  0  0  0  0  0  0  0  0  0
    6.3981    1.7749    0.0000 C   0  0  0  0  0  0  0  0  0  0  0  0
   10.4956   -0.7061    0.0000 C   0  0  2  0  0  0  0  0  0  0  0  0
    8.8014   -1.0662    0.0000 C   0  0  0  0  0  0  0  0  0  0  0  0
   11.2387   -0.0370    0.0000 C   0  0  0  0  0  0  0  0  0  0  0  0
    5.5321    2.2749    0.0000 C   0  0  0  0  0  0  0  0  0  0  0  0
    9.0093   -2.0444    0.0000 C   0  0  0  0  0  0  0  0  0  0  0  0
    5.5321    3.2749    0.0000 C   0  0  0  0  0  0  0  0  0  0  0  0
    9.9604   -2.3534    0.0000 C   0  0  0  0  0  0  0  0  0  0  0  0
    8.2662   -2.7135    0.0000 C   0  0  0  0  0  0  0  0  0  0  0  0
    3.8000    2.2749    0.0000 C   0  0  0  0  0  0  0  0  0  0  0  0
    4.6660    3.7749    0.0000 C   0  0  0  0  0  0  0  0  0  0  0  0
   12.9329    0.3231    0.0000 C   0  0  0  0  0  0  0  0  0  0  0  0
    3.8000    3.2749    0.0000 C   0  0  0  0  0  0  0  0  0  0  0  0
   12.3092    3.2576    0.0000 C   0  0  0  0  0  0  0  0  0  0  0  0
   10.1683   -3.3316    0.0000 C   0  0  0  0  0  0  0  0  0  0  0  0
    8.4741   -3.6917    0.0000 C   0  0  0  0  0  0  0  0  0  0  0  0
   12.7250    1.3012    0.0000 C   0  0  0  0  0  0  0  0  0  0  0  0
    9.4251   -4.0007    0.0000 C   0  0  0  0  0  0  0  0  0  0  0  0
    2.9061    1.7403    0.0000 C   0  0  0  0  0  0  0  0  0  0  0  0
   11.7740    1.6103    0.0000 C   0  0  0  0  0  0  0  0  0  0  0  0
   13.8840    0.0141    0.0000 C   0  0  0  0  0  0  0  0  0  0  0  0
    2.9061    3.8096    0.0000 C   0  0  0  0  0  0  0  0  0  0  0  0
   13.0523    3.9267    0.0000 C   0  0  0  0  0  0  0  0  0  0  0  0
   11.6401    4.0007    0.0000 C   0  0  0  0  0  0  0  0  0  0  0  0
   12.9783    2.5144    0.0000 C   0  0  0  0  0  0  0  0  0  0  0  0
   13.4682    1.9704    0.0000 C   0  0  0  0  0  0  0  0  0  0  0  0
    2.0000    2.2541    0.0000 C   0  0  0  0  0  0  0  0  0  0  0  0
    2.0000    3.2957    0.0000 C   0  0  0  0  0  0  0  0  0  0  0  0
   14.6271    0.6832    0.0000 C   0  0  0  0  0  0  0  0  0  0  0  0
   14.4192    1.6614    0.0000 C   0  0  0  0  0  0  0  0  0  0  0  0
    7.6958    1.4780    0.0000 H   0  0  0  0  0  0  0  0  0  0  0  0
    9.2616    2.1506    0.0000 H   0  0  0  0  0  0  0  0  0  0  0  0
    9.3484    2.9758    0.0000 H   0  0  0  0  0  0  0  0  0  0  0  0
    8.9132    3.7295    0.0000 H   0  0  0  0  0  0  0  0  0  0  0  0
    8.1552    4.0670    0.0000 H   0  0  0  0  0  0  0  0  0  0  0  0
    7.3038    3.8860    0.0000 H   0  0  0  0  0  0  0  0  0  0  0  0
    6.7486    3.2694    0.0000 H   0  0  0  0  0  0  0  0  0  0  0  0
    8.9549   -0.2055    0.0000 H   0  0  0  0  0  0  0  0  0  0  0  0
    9.7974    0.9959    0.0000 H   0  0  0  0  0  0  0  0  0  0  0  0
   11.0852   -0.8977    0.0000 H   0  0  0  0  0  0  0  0  0  0  0  0
    8.4728   -0.5405    0.0000 H   0  0  0  0  0  0  0  0  0  0  0  0
    8.2265   -1.2985    0.0000 H   0  0  0  0  0  0  0  0  0  0  0  0
   11.5298    0.5104    0.0000 H   0  0  0  0  0  0  0  0  0  0  0  0
   10.7502    0.3447    0.0000 H   0  0  0  0  0  0  0  0  0  0  0  0
   11.2932   -1.8759    0.0000 H   0  0  0  0  0  0  0  0  0  0  0  0
    6.0690    3.5849    0.0000 H   0  0  0  0  0  0  0  0  0  0  0  0
   10.4211   -1.9386    0.0000 H   0  0  0  0  0  0  0  0  0  0  0  0
    7.6765   -2.5219    0.0000 H   0  0  0  0  0  0  0  0  0  0  0  0
    4.6660    4.3949    0.0000 H   0  0  0  0  0  0  0  0  0  0  0  0
   10.7579   -3.5232    0.0000 H   0  0  0  0  0  0  0  0  0  0  0  0
    8.0133   -4.1065    0.0000 H   0  0  0  0  0  0  0  0  0  0  0  0
    9.5540   -4.6072    0.0000 H   0  0  0  0  0  0  0  0  0  0  0  0
   10.9764    2.7800    0.0000 H   0  0  0  0  0  0  0  0  0  0  0  0
    2.9132    1.1203    0.0000 H   0  0  0  0  0  0  0  0  0  0  0  0
   14.0129   -0.5924    0.0000 H   0  0  0  0  0  0  0  0  0  0  0  0
   13.4672    3.4659    0.0000 H   0  0  0  0  0  0  0  0  0  0  0  0
   13.5131    4.3415    0.0000 H   0  0  0  0  0  0  0  0  0  0  0  0
   12.6375    4.3874    0.0000 H   0  0  0  0  0  0  0  0  0  0  0  0
   12.1008    4.4156    0.0000 H   0  0  0  0  0  0  0  0  0  0  0  0
   11.2252    4.4614    0.0000 H   0  0  0  0  0  0  0  0  0  0  0  0
   11.1793    3.5858    0.0000 H   0  0  0  0  0  0  0  0  0  0  0  0
   12.5176    2.0995    0.0000 H   0  0  0  0  0  0  0  0  0  0  0  0
   13.3932    2.0537    0.0000 H   0  0  0  0  0  0  0  0  0  0  0  0
   13.4391    2.9293    0.0000 H   0  0  0  0  0  0  0  0  0  0  0  0
    2.9132    4.4296    0.0000 H   0  0  0  0  0  0  0  0  0  0  0  0
   13.3393    2.5768    0.0000 H   0  0  0  0  0  0  0  0  0  0  0  0
    1.4643    1.9420    0.0000 H   0  0  0  0  0  0  0  0  0  0  0  0
    1.4643    3.6078    0.0000 H   0  0  0  0  0  0  0  0  0  0  0  0
   15.2168    0.4916    0.0000 H   0  0  0  0  0  0  0  0  0  0  0  0
   14.8800    2.0762    0.0000 H   0  0  0  0  0  0  0  0  0  0  0  0
  1 19  1  0  0  0  0
  1 27  1  0  0  0  0
  2 14  2  0  0  0  0
 17  3  1  6  0  0  0
  3 60  1  0  0  0  0
  4 16  2  0  0  0  0
  5 35  2  0  0  0  0
  6 10  1  0  0  0  0
  6 13  1  0  0  0  0
  6 16  1  0  0  0  0
  7 14  1  0  0  0  0
 15  7  1  6  0  0  0
  7 54  1  0  0  0  0
  8 20  2  0  0  0  0
  8 25  1  0  0  0  0
  9 29  1  0  0  0  0
  9 35  1  0  0  0  0
  9 68  1  0  0  0  0
 10 11  1  0  0  0  0
 10 14  1  1  0  0  0
 10 46  1  0  0  0  0
 11 12  1  0  0  0  0
 11 47  1  0  0  0  0
 11 48  1  0  0  0  0
 12 13  1  0  0  0  0
 12 49  1  0  0  0  0
 12 50  1  0  0  0  0
 13 51  1  0  0  0  0
 13 52  1  0  0  0  0
 15 17  1  0  0  0  0
 15 18  1  0  0  0  0
 15 53  1  0  0  0  0
 16 20  1  0  0  0  0
 17 19  1  0  0  0  0
 17 55  1  0  0  0  0
 18 21  1  0  0  0  0
 18 56  1  0  0  0  0
 18 57  1  0  0  0  0
 19 58  1  0  0  0  0
 19 59  1  0  0  0  0
 20 22  1  0  0  0  0
 21 23  2  0  0  0  0
 21 24  1  0  0  0  0
 22 26  2  0  0  0  0
 22 61  1  0  0  0  0
 23 30  1  0  0  0  0
 23 62  1  0  0  0  0
 24 31  2  0  0  0  0
 24 63  1  0  0  0  0
 25 28  1  0  0  0  0
 25 34  2  0  0  0  0
 26 28  1  0  0  0  0
 26 64  1  0  0  0  0
 27 32  1  0  0  0  0
 27 36  2  0  0  0  0
 28 37  2  0  0  0  0
 29 38  1  0  0  0  0
 29 39  1  0  0  0  0
 29 40  1  0  0  0  0
 30 33  2  0  0  0  0
 30 65  1  0  0  0  0
 31 33  1  0  0  0  0
 31 66  1  0  0  0  0
 32 35  1  0  0  0  0
 32 41  2  0  0  0  0
 33 67  1  0  0  0  0
 34 42  1  0  0  0  0
 34 69  1  0  0  0  0
 36 44  1  0  0  0  0
 36 70  1  0  0  0  0
 37 43  1  0  0  0  0
 37 80  1  0  0  0  0
 38 71  1  0  0  0  0
 38 72  1  0  0  0  0
 38 73  1  0  0  0  0
 39 74  1  0  0  0  0
 39 75  1  0  0  0  0
 39 76  1  0  0  0  0
 40 77  1  0  0  0  0
 40 78  1  0  0  0  0
 40 79  1  0  0  0  0
 41 45  1  0  0  0  0
 41 81  1  0  0  0  0
 42 43  2  0  0  0  0
 42 82  1  0  0  0  0
 43 83  1  0  0  0  0
 44 45  2  0  0  0  0
 44 84  1  0  0  0  0
 45 85  1  0  0  0  0
M  END
> <PUBCHEM_COMPOUND_CID>
503071
> <PUBCHEM_COMPOUND_CANONICALIZED>
1
> <PUBCHEM_CACTVS_COMPLEXITY>
998
> <PUBCHEM_CACTVS_HBOND_ACCEPTOR>
6
> <PUBCHEM_CACTVS_HBOND_DONOR>
3
> <PUBCHEM_CACTVS_ROTATABLE_BOND>
11
> <PUBCHEM_CACTVS_SUBSKEYS>
AAADcfB/uABAAAAAAAAAAAAAAAAAAWAAAAA8YMEAAAAAAACx9AAAHgQQCAAADLzl3gaywfPIEgioAyVyVACCgCAnCjAImLm4ZNgKcPLglbGUYQhklgD4yYeYyaCOAAAAAAAGAAAAAAAAAAwAAAAAAAAAAA==
> <PUBCHEM_IUPAC_OPENEYE_NAME>
(2S)-N-[(1S,2R)-1-benzyl-3-[2-(tert-butylcarbamoyl)phenyl]sulfanyl-2-hydroxy-propyl]-1-(quinoline-2-carbonyl)pyrrolidine-2-carboxamide
> <PUBCHEM_IUPAC_CAS_NAME>
(2S)-N-[(2S,3R)-4-[[2-[(tert-butylamino)-oxomethyl]phenyl]thio]-3-hydroxy-1-phenylbutan-2-yl]-1-[oxo(2-quinolinyl)methyl]-2-pyrrolidinecarboxamide
> <PUBCHEM_IUPAC_NAME_MARKUP>
(2<I>S</I>)-<I>N</I>-[(2<I>S</I>,3<I>R</I>)-4-[2-(<I>tert</I>-butylcarbamoyl)phenyl]sulfanyl-3-hydroxy-1-phenylbutan-2-yl]-1-(quinoline-2-carbonyl)pyrrolidine-2-carboxamide
> <PUBCHEM_IUPAC_NAME>
(2S)-N-[(2S,3R)-4-[2-(tert-butylcarbamoyl)phenyl]sulfanyl-3-hydroxy-1-phenylbutan-2-yl]-1-(quinoline-2-carbonyl)pyrrolidine-2-carboxamide
> <PUBCHEM_IUPAC_SYSTEMATIC_NAME>
(2S)-N-[(2S,3R)-4-[2-(tert-butylcarbamoyl)phenyl]sulfanyl-3-oxidanyl-1-phenyl-butan-2-yl]-1-quinolin-2-ylcarbonyl-pyrrolidine-2-carboxamide
> <PUBCHEM_IUPAC_TRADITIONAL_NAME>
(2S)-N-[(1S,2R)-1-benzyl-3-[[2-(tert-butylcarbamoyl)phenyl]thio]-2-hydroxy-propyl]-1-quinaldoyl-pyrrolidine-2-carboxamide
> <PUBCHEM_IUPAC_INCHI>
InChI=1S/C36H40N4O4S/c1-36(2,3)39-33(42)26-15-8-10-18-32(26)45-23-31(41)29(22-24-12-5-4-6-13-24)38-34(43)30-17-11-21-40(30)35(44)28-20-19-25-14-7-9-16-27(25)37-28/h4-10,12-16,18-20,29-31,41H,11,17,21-23H2,1-3H3,(H,38,43)(H,39,42)/t29-,30-,31-/m0/s1
> <PUBCHEM_IUPAC_INCHIKEY>
ZYHJKQAPFNNMCM-CHQNGUEUSA-N
> <PUBCHEM_XLOGP3_AA>
5.7
> <PUBCHEM_EXACT_MASS>
624.27702694
> <PUBCHEM_MOLECULAR_FORMULA>
C36H40N4O4S
> <PUBCHEM_MOLECULAR_WEIGHT>
624.8
> <PUBCHEM_OPENEYE_CAN_SMILES>
CC(C)(C)NC(=O)C1=CC=CC=C1SCC(C(CC2=CC=CC=C2)NC(=O)C3CCCN3C(=O)C4=NC5=CC=CC=C5C=C4)O
> <PUBCHEM_OPENEYE_ISO_SMILES>
CC(C)(C)NC(=O)C1=CC=CC=C1SC[C@@H]([C@H](CC2=CC=CC=C2)NC(=O)[C@@H]3CCCN3C(=O)C4=NC5=CC=CC=C5C=C4)O
> <PUBCHEM_CACTVS_TPSA>
137
> <PUBCHEM_MONOISOTOPIC_WEIGHT>
624.27702694
> <PUBCHEM_TOTAL_CHARGE>
0
> <PUBCHEM_HEAVY_ATOM_COUNT>
45
> <PUBCHEM_ATOM_DEF_STEREO_COUNT>
3
> <PUBCHEM_ATOM_UDEF_STEREO_COUNT>
0
> <PUBCHEM_BOND_DEF_STEREO_COUNT>
0
> <PUBCHEM_BOND_UDEF_STEREO_COUNT>
0
> <PUBCHEM_ISOTOPIC_ATOM_COUNT>
0
> <PUBCHEM_COMPONENT_COUNT>
1
> <PUBCHEM_CACTVS_TAUTO_COUNT>
-1
> <PUBCHEM_COORDINATE_TYPE>
1
5
255
> <PUBCHEM_BONDANNOTATIONS>
10  14  5
20  22  8
21  23  8
21  24  8
22  26  8
23  30  8
24  31  8
25  28  8
25  34  8
26  28  8
27  32  8
27  36  8
28  37  8
17  3  6
30  33  8
31  33  8
32  41  8
34  42  8
36  44  8
37  43  8
41  45  8
42  43  8
44  45  8
15  7  6
8  20  8
8  25  8
$$$$
