503054
  -OEChem-10302200282D
 87 90  0     1  0  0  0  0  0999 V2000
    8.9962    2.1550    0.0000 S   0  0  0  0  0  0  0  0  0  0  0  0
   10.7282    1.1550    0.0000 O   0  0  0  0  0  0  0  0  0  0  0  0
    7.9962    2.1550    0.0000 O   0  0  0  0  0  0  0  0  0  0  0  0
    9.9962    2.1550    0.0000 O   0  0  0  0  0  0  0  0  0  0  0  0
    9.8622   -2.3450    0.0000 O   0  0  0  0  0  0  0  0  0  0  0  0
    7.2641    2.1550    0.0000 O   0  0  0  0  0  0  0  0  0  0  0  0
    9.8622   -3.3450    0.0000 O   0  0  0  0  0  0  0  0  0  0  0  0
    6.3981   -3.3450    0.0000 O   0  0  0  0  0  0  0  0  0  0  0  0
    8.9962   -0.8450    0.0000 N   0  0  0  0  0  0  0  0  0  0  0  0
    7.2641   -1.8450    0.0000 N   0  0  0  0  0  0  0  0  0  0  0  0
    6.3981    3.6550    0.0000 N   0  0  0  0  0  0  0  0  0  0  0  0
    8.9962   -4.8450    0.0000 N   0  0  0  0  0  0  0  0  0  0  0  0
    4.6660   -2.3450    0.0000 N   0  0  0  0  0  0  0  0  0  0  0  0
    9.8622   -0.3450    0.0000 C   0  0  2  0  0  0  0  0  0  0  0  0
    9.8622    0.6550    0.0000 C   0  0  2  0  0  0  0  0  0  0  0  0
    8.9962    1.1550    0.0000 C   0  0  0  0  0  0  0  0  0  0  0  0
   10.7282   -0.8450    0.0000 C   0  0  0  0  0  0  0  0  0  0  0  0
   11.5942   -0.3450    0.0000 C   0  0  0  0  0  0  0  0  0  0  0  0
    8.9962    3.1550    0.0000 C   0  0  0  0  0  0  0  0  0  0  0  0
    8.9962   -1.8450    0.0000 C   0  0  0  0  0  0  0  0  0  0  0  0
    8.1301   -2.3450    0.0000 C   0  0  2  0  0  0  0  0  0  0  0  0
    8.1301    3.6550    0.0000 C   0  0  0  0  0  0  0  0  0  0  0  0
    8.1301   -3.3450    0.0000 C   0  0  0  0  0  0  0  0  0  0  0  0
   12.4603   -0.8450    0.0000 C   0  0  0  0  0  0  0  0  0  0  0  0
   11.5942    0.6550    0.0000 C   0  0  0  0  0  0  0  0  0  0  0  0
    9.8622    3.6550    0.0000 C   0  0  0  0  0  0  0  0  0  0  0  0
    8.1301    4.6550    0.0000 C   0  0  0  0  0  0  0  0  0  0  0  0
   13.3263   -0.3450    0.0000 C   0  0  0  0  0  0  0  0  0  0  0  0
   12.4603    1.1550    0.0000 C   0  0  0  0  0  0  0  0  0  0  0  0
    7.2641    3.1550    0.0000 C   0  0  0  0  0  0  0  0  0  0  0  0
    9.8622    4.6550    0.0000 C   0  0  0  0  0  0  0  0  0  0  0  0
    8.9962    5.1550    0.0000 C   0  0  0  0  0  0  0  0  0  0  0  0
   13.3263    0.6550    0.0000 C   0  0  0  0  0  0  0  0  0  0  0  0
    8.9962   -3.8450    0.0000 C   0  0  0  0  0  0  0  0  0  0  0  0
    6.3981   -2.3450    0.0000 C   0  0  0  0  0  0  0  0  0  0  0  0
    5.5321    3.1550    0.0000 C   0  0  0  0  0  0  0  0  0  0  0  0
    4.6660    3.6550    0.0000 C   0  0  0  0  0  0  0  0  0  0  0  0
    5.5321   -1.8450    0.0000 C   0  0  0  0  0  0  0  0  0  0  0  0
    3.8000    3.1550    0.0000 C   0  0  0  0  0  0  0  0  0  0  0  0
    5.5321   -0.8450    0.0000 C   0  0  0  0  0  0  0  0  0  0  0  0
    2.9340    3.6550    0.0000 C   0  0  0  0  0  0  0  0  0  0  0  0
    3.8000   -1.8450    0.0000 C   0  0  0  0  0  0  0  0  0  0  0  0
    3.8000   -0.8450    0.0000 C   0  0  0  0  0  0  0  0  0  0  0  0
    4.6660   -0.3450    0.0000 C   0  0  0  0  0  0  0  0  0  0  0  0
    2.9061   -2.3797    0.0000 C   0  0  0  0  0  0  0  0  0  0  0  0
    2.9061   -0.3103    0.0000 C   0  0  0  0  0  0  0  0  0  0  0  0
    2.0000   -1.8658    0.0000 C   0  0  0  0  0  0  0  0  0  0  0  0
    2.0000   -0.8242    0.0000 C   0  0  0  0  0  0  0  0  0  0  0  0
    9.3252   -0.0350    0.0000 H   0  0  0  0  0  0  0  0  0  0  0  0
    9.8622    1.2750    0.0000 H   0  0  0  0  0  0  0  0  0  0  0  0
    8.3856    1.2627    0.0000 H   0  0  0  0  0  0  0  0  0  0  0  0
    8.7841    0.5724    0.0000 H   0  0  0  0  0  0  0  0  0  0  0  0
   10.3297   -1.3200    0.0000 H   0  0  0  0  0  0  0  0  0  0  0  0
   11.1267   -1.3200    0.0000 H   0  0  0  0  0  0  0  0  0  0  0  0
    8.4592   -0.5350    0.0000 H   0  0  0  0  0  0  0  0  0  0  0  0
    7.5932   -2.6550    0.0000 H   0  0  0  0  0  0  0  0  0  0  0  0
   10.7282    1.7750    0.0000 H   0  0  0  0  0  0  0  0  0  0  0  0
    7.5196   -3.2373    0.0000 H   0  0  0  0  0  0  0  0  0  0  0  0
    7.9181   -3.9276    0.0000 H   0  0  0  0  0  0  0  0  0  0  0  0
   12.4603   -1.4650    0.0000 H   0  0  0  0  0  0  0  0  0  0  0  0
   11.0573    0.9650    0.0000 H   0  0  0  0  0  0  0  0  0  0  0  0
   10.3991    3.3450    0.0000 H   0  0  0  0  0  0  0  0  0  0  0  0
    7.2641   -1.2250    0.0000 H   0  0  0  0  0  0  0  0  0  0  0  0
    7.5932    4.9650    0.0000 H   0  0  0  0  0  0  0  0  0  0  0  0
   13.8632   -0.6550    0.0000 H   0  0  0  0  0  0  0  0  0  0  0  0
   12.4603    1.7750    0.0000 H   0  0  0  0  0  0  0  0  0  0  0  0
   10.3991    4.9650    0.0000 H   0  0  0  0  0  0  0  0  0  0  0  0
    8.9962    5.7750    0.0000 H   0  0  0  0  0  0  0  0  0  0  0  0
   13.8632    0.9650    0.0000 H   0  0  0  0  0  0  0  0  0  0  0  0
    6.3981    4.2750    0.0000 H   0  0  0  0  0  0  0  0  0  0  0  0
    5.1335    2.6800    0.0000 H   0  0  0  0  0  0  0  0  0  0  0  0
    5.9306    2.6800    0.0000 H   0  0  0  0  0  0  0  0  0  0  0  0
    5.0646    4.1300    0.0000 H   0  0  0  0  0  0  0  0  0  0  0  0
    4.2675    4.1300    0.0000 H   0  0  0  0  0  0  0  0  0  0  0  0
    3.4015    2.6800    0.0000 H   0  0  0  0  0  0  0  0  0  0  0  0
    4.1985    2.6800    0.0000 H   0  0  0  0  0  0  0  0  0  0  0  0
    9.5331   -5.1550    0.0000 H   0  0  0  0  0  0  0  0  0  0  0  0
    8.4592   -5.1550    0.0000 H   0  0  0  0  0  0  0  0  0  0  0  0
    6.0690   -0.5350    0.0000 H   0  0  0  0  0  0  0  0  0  0  0  0
    3.2440    4.1919    0.0000 H   0  0  0  0  0  0  0  0  0  0  0  0
    2.3970    3.9650    0.0000 H   0  0  0  0  0  0  0  0  0  0  0  0
    2.6240    3.1181    0.0000 H   0  0  0  0  0  0  0  0  0  0  0  0
    4.6660    0.2750    0.0000 H   0  0  0  0  0  0  0  0  0  0  0  0
    2.9132   -2.9996    0.0000 H   0  0  0  0  0  0  0  0  0  0  0  0
    2.9132    0.3096    0.0000 H   0  0  0  0  0  0  0  0  0  0  0  0
    1.4643   -2.1779    0.0000 H   0  0  0  0  0  0  0  0  0  0  0  0
    1.4643   -0.5121    0.0000 H   0  0  0  0  0  0  0  0  0  0  0  0
  1  3  2  0  0  0  0
  1  4  2  0  0  0  0
  1 16  1  0  0  0  0
  1 19  1  0  0  0  0
 15  2  1  6  0  0  0
  2 57  1  0  0  0  0
  5 20  2  0  0  0  0
  6 30  2  0  0  0  0
  7 34  2  0  0  0  0
  8 35  2  0  0  0  0
 14  9  1  6  0  0  0
  9 20  1  0  0  0  0
  9 55  1  0  0  0  0
 21 10  1  6  0  0  0
 10 35  1  0  0  0  0
 10 63  1  0  0  0  0
 11 30  1  0  0  0  0
 11 36  1  0  0  0  0
 11 70  1  0  0  0  0
 12 34  1  0  0  0  0
 12 77  1  0  0  0  0
 12 78  1  0  0  0  0
 13 38  2  0  0  0  0
 13 42  1  0  0  0  0
 14 15  1  0  0  0  0
 14 17  1  0  0  0  0
 14 49  1  0  0  0  0
 15 16  1  0  0  0  0
 15 50  1  0  0  0  0
 16 51  1  0  0  0  0
 16 52  1  0  0  0  0
 17 18  1  0  0  0  0
 17 53  1  0  0  0  0
 17 54  1  0  0  0  0
 18 24  2  0  0  0  0
 18 25  1  0  0  0  0
 19 22  1  0  0  0  0
 19 26  2  0  0  0  0
 20 21  1  0  0  0  0
 21 23  1  0  0  0  0
 21 56  1  0  0  0  0
 22 27  2  0  0  0  0
 22 30  1  0  0  0  0
 23 34  1  0  0  0  0
 23 58  1  0  0  0  0
 23 59  1  0  0  0  0
 24 28  1  0  0  0  0
 24 60  1  0  0  0  0
 25 29  2  0  0  0  0
 25 61  1  0  0  0  0
 26 31  1  0  0  0  0
 26 62  1  0  0  0  0
 27 32  1  0  0  0  0
 27 64  1  0  0  0  0
 28 33  2  0  0  0  0
 28 65  1  0  0  0  0
 29 33  1  0  0  0  0
 29 66  1  0  0  0  0
 31 32  2  0  0  0  0
 31 67  1  0  0  0  0
 32 68  1  0  0  0  0
 33 69  1  0  0  0  0
 35 38  1  0  0  0  0
 36 37  1  0  0  0  0
 36 71  1  0  0  0  0
 36 72  1  0  0  0  0
 37 39  1  0  0  0  0
 37 73  1  0  0  0  0
 37 74  1  0  0  0  0
 38 40  1  0  0  0  0
 39 41  1  0  0  0  0
 39 75  1  0  0  0  0
 39 76  1  0  0  0  0
 40 44  2  0  0  0  0
 40 79  1  0  0  0  0
 41 80  1  0  0  0  0
 41 81  1  0  0  0  0
 41 82  1  0  0  0  0
 42 43  1  0  0  0  0
 42 45  2  0  0  0  0
 43 44  1  0  0  0  0
 43 46  2  0  0  0  0
 44 83  1  0  0  0  0
 45 47  1  0  0  0  0
 45 84  1  0  0  0  0
 46 48  1  0  0  0  0
 46 85  1  0  0  0  0
 47 48  2  0  0  0  0
 47 86  1  0  0  0  0
 48 87  1  0  0  0  0
M  END
> <PUBCHEM_COMPOUND_CID>
503054
> <PUBCHEM_COMPOUND_CANONICALIZED>
1
> <PUBCHEM_CACTVS_COMPLEXITY>
1190
> <PUBCHEM_CACTVS_HBOND_ACCEPTOR>
8
> <PUBCHEM_CACTVS_HBOND_DONOR>
5
> <PUBCHEM_CACTVS_ROTATABLE_BOND>
16
> <PUBCHEM_CACTVS_SUBSKEYS>
AAADcfB/uABAAAAAAAAAAAAAAAAAAAAAAAA8YMEAAAAAAACx9AAAHgQQCAAADDzl3gaywfLIEgqoAyVyVHDCgCAnCjAImLm4ZNgKcPrg1bGUYQhklgD4yYedyKCOAAAAAAAGAAAAAAAAAAwAAAAAAAAAAA==
> <PUBCHEM_IUPAC_OPENEYE_NAME>
(2S)-N-[(1S,2R)-1-benzyl-3-[2-(butylcarbamoyl)phenyl]sulfonyl-2-hydroxy-propyl]-2-(quinoline-2-carbonylamino)butanediamide
> <PUBCHEM_IUPAC_CAS_NAME>
(2S)-N-[(2S,3R)-4-[2-[butylamino(oxo)methyl]phenyl]sulfonyl-3-hydroxy-1-phenylbutan-2-yl]-2-[[oxo(2-quinolinyl)methyl]amino]butanediamide
> <PUBCHEM_IUPAC_NAME_MARKUP>
(2<I>S</I>)-<I>N</I>-[(2<I>S</I>,3<I>R</I>)-4-[2-(butylcarbamoyl)phenyl]sulfonyl-3-hydroxy-1-phenylbutan-2-yl]-2-(quinoline-2-carbonylamino)butanediamide
> <PUBCHEM_IUPAC_NAME>
(2S)-N-[(2S,3R)-4-[2-(butylcarbamoyl)phenyl]sulfonyl-3-hydroxy-1-phenylbutan-2-yl]-2-(quinoline-2-carbonylamino)butanediamide
> <PUBCHEM_IUPAC_SYSTEMATIC_NAME>
(2S)-N-[(2S,3R)-4-[2-(butylcarbamoyl)phenyl]sulfonyl-3-oxidanyl-1-phenyl-butan-2-yl]-2-(quinolin-2-ylcarbonylamino)butanediamide
> <PUBCHEM_IUPAC_TRADITIONAL_NAME>
(2S)-N-[(1S,2R)-1-benzyl-3-[2-(butylcarbamoyl)phenyl]sulfonyl-2-hydroxy-propyl]-2-(quinaldoylamino)succinamide
> <PUBCHEM_IUPAC_INCHI>
InChI=1S/C35H39N5O7S/c1-2-3-19-37-33(43)25-14-8-10-16-31(25)48(46,47)22-30(41)28(20-23-11-5-4-6-12-23)39-35(45)29(21-32(36)42)40-34(44)27-18-17-24-13-7-9-15-26(24)38-27/h4-18,28-30,41H,2-3,19-22H2,1H3,(H2,36,42)(H,37,43)(H,39,45)(H,40,44)/t28-,29-,30-/m0/s1
> <PUBCHEM_IUPAC_INCHIKEY>
MPQLASREHONIEQ-DTXPUJKBSA-N
> <PUBCHEM_XLOGP3_AA>
2.9
> <PUBCHEM_EXACT_MASS>
673.25701977
> <PUBCHEM_MOLECULAR_FORMULA>
C35H39N5O7S
> <PUBCHEM_MOLECULAR_WEIGHT>
673.8
> <PUBCHEM_OPENEYE_CAN_SMILES>
CCCCNC(=O)C1=CC=CC=C1S(=O)(=O)CC(C(CC2=CC=CC=C2)NC(=O)C(CC(=O)N)NC(=O)C3=NC4=CC=CC=C4C=C3)O
> <PUBCHEM_OPENEYE_ISO_SMILES>
CCCCNC(=O)C1=CC=CC=C1S(=O)(=O)C[C@@H]([C@H](CC2=CC=CC=C2)NC(=O)[C@H](CC(=O)N)NC(=O)C3=NC4=CC=CC=C4C=C3)O
> <PUBCHEM_CACTVS_TPSA>
206
> <PUBCHEM_MONOISOTOPIC_WEIGHT>
673.25701977
> <PUBCHEM_TOTAL_CHARGE>
0
> <PUBCHEM_HEAVY_ATOM_COUNT>
48
> <PUBCHEM_ATOM_DEF_STEREO_COUNT>
3
> <PUBCHEM_ATOM_UDEF_STEREO_COUNT>
0
> <PUBCHEM_BOND_DEF_STEREO_COUNT>
0
> <PUBCHEM_BOND_UDEF_STEREO_COUNT>
0
> <PUBCHEM_ISOTOPIC_ATOM_COUNT>
0
> <PUBCHEM_COMPONENT_COUNT>
1
> <PUBCHEM_CACTVS_TAUTO_COUNT>
-1
> <PUBCHEM_COORDINATE_TYPE>
1
5
255
> <PUBCHEM_BONDANNOTATIONS>
21  10  6
13  38  8
13  42  8
18  24  8
18  25  8
19  22  8
19  26  8
15  2  6
22  27  8
24  28  8
25  29  8
26  31  8
27  32  8
28  33  8
29  33  8
31  32  8
38  40  8
40  44  8
42  43  8
42  45  8
43  44  8
43  46  8
45  47  8
46  48  8
47  48  8
14  9  6
$$$$
