503082
  -OEChem-10302200282D
 88 91  0     1  0  0  0  0  0999 V2000
   12.4603   -1.0000    0.0000 S   0  0  0  0  0  0  0  0  0  0  0  0
    8.9962   -2.0000    0.0000 S   0  0  0  0  0  0  0  0  0  0  0  0
   12.4603    1.0000    0.0000 O   0  0  0  0  0  0  0  0  0  0  0  0
    8.9962    2.0000    0.0000 O   0  0  0  0  0  0  0  0  0  0  0  0
    6.3981   -0.5000    0.0000 O   0  0  0  0  0  0  0  0  0  0  0  0
   14.1923   -1.0000    0.0000 O   0  0  0  0  0  0  0  0  0  0  0  0
    9.8622    0.5000    0.0000 N   0  0  0  0  0  0  0  0  0  0  0  0
    7.2641    1.0000    0.0000 N   0  0  0  0  0  0  0  0  0  0  0  0
   15.0583   -2.5000    0.0000 N   0  0  0  0  0  0  0  0  0  0  0  0
    4.6660    0.5000    0.0000 N   0  0  0  0  0  0  0  0  0  0  0  0
   10.7282    1.0000    0.0000 C   0  0  2  0  0  0  0  0  0  0  0  0
   11.5942    0.5000    0.0000 C   0  0  2  0  0  0  0  0  0  0  0  0
   10.7282    2.0000    0.0000 C   0  0  0  0  0  0  0  0  0  0  0  0
   11.5942   -0.5000    0.0000 C   0  0  0  0  0  0  0  0  0  0  0  0
    8.1301    0.5000    0.0000 C   0  0  2  0  0  0  0  0  0  0  0  0
    8.9962    1.0000    0.0000 C   0  0  0  0  0  0  0  0  0  0  0  0
   11.5942    2.5000    0.0000 C   0  0  0  0  0  0  0  0  0  0  0  0
    8.1301   -0.5000    0.0000 C   0  0  0  0  0  0  0  0  0  0  0  0
   15.9244   -2.0000    0.0000 C   0  0  0  0  0  0  0  0  0  0  0  0
   11.5942    3.5000    0.0000 C   0  0  0  0  0  0  0  0  0  0  0  0
   12.4603    2.0000    0.0000 C   0  0  0  0  0  0  0  0  0  0  0  0
    8.9962   -1.0000    0.0000 C   0  0  0  0  0  0  0  0  0  0  0  0
   12.4603   -2.0000    0.0000 C   0  0  0  0  0  0  0  0  0  0  0  0
   13.3263   -2.5000    0.0000 C   0  0  0  0  0  0  0  0  0  0  0  0
   16.7904   -1.5000    0.0000 C   0  0  0  0  0  0  0  0  0  0  0  0
   16.4244   -2.8660    0.0000 C   0  0  0  0  0  0  0  0  0  0  0  0
   15.4244   -1.1340    0.0000 C   0  0  0  0  0  0  0  0  0  0  0  0
   12.4603    4.0000    0.0000 C   0  0  0  0  0  0  0  0  0  0  0  0
   13.3263    2.5000    0.0000 C   0  0  0  0  0  0  0  0  0  0  0  0
    6.3981    0.5000    0.0000 C   0  0  0  0  0  0  0  0  0  0  0  0
   14.1923   -2.0000    0.0000 C   0  0  0  0  0  0  0  0  0  0  0  0
   13.3263    3.5000    0.0000 C   0  0  0  0  0  0  0  0  0  0  0  0
   11.5942   -2.5000    0.0000 C   0  0  0  0  0  0  0  0  0  0  0  0
   13.3263   -3.5000    0.0000 C   0  0  0  0  0  0  0  0  0  0  0  0
    5.5321    1.0000    0.0000 C   0  0  0  0  0  0  0  0  0  0  0  0
   11.5942   -3.5000    0.0000 C   0  0  0  0  0  0  0  0  0  0  0  0
   12.4603   -4.0000    0.0000 C   0  0  0  0  0  0  0  0  0  0  0  0
    5.5321    2.0000    0.0000 C   0  0  0  0  0  0  0  0  0  0  0  0
    9.8622   -2.5000    0.0000 C   0  0  0  0  0  0  0  0  0  0  0  0
    3.8000    1.0000    0.0000 C   0  0  0  0  0  0  0  0  0  0  0  0
    3.8000    2.0000    0.0000 C   0  0  0  0  0  0  0  0  0  0  0  0
    4.6660    2.5000    0.0000 C   0  0  0  0  0  0  0  0  0  0  0  0
    2.9061    0.4653    0.0000 C   0  0  0  0  0  0  0  0  0  0  0  0
    2.9061    2.5347    0.0000 C   0  0  0  0  0  0  0  0  0  0  0  0
    2.0000    0.9792    0.0000 C   0  0  0  0  0  0  0  0  0  0  0  0
    2.0000    2.0208    0.0000 C   0  0  0  0  0  0  0  0  0  0  0  0
   10.7282    0.3800    0.0000 H   0  0  0  0  0  0  0  0  0  0  0  0
   11.5942    1.1200    0.0000 H   0  0  0  0  0  0  0  0  0  0  0  0
   10.5162    2.5826    0.0000 H   0  0  0  0  0  0  0  0  0  0  0  0
   10.1176    1.8923    0.0000 H   0  0  0  0  0  0  0  0  0  0  0  0
    9.8622   -0.1200    0.0000 H   0  0  0  0  0  0  0  0  0  0  0  0
   10.9837   -0.3923    0.0000 H   0  0  0  0  0  0  0  0  0  0  0  0
   11.3822   -1.0826    0.0000 H   0  0  0  0  0  0  0  0  0  0  0  0
    7.5932    0.1900    0.0000 H   0  0  0  0  0  0  0  0  0  0  0  0
    7.5196   -0.3923    0.0000 H   0  0  0  0  0  0  0  0  0  0  0  0
    7.9181   -1.0826    0.0000 H   0  0  0  0  0  0  0  0  0  0  0  0
   12.9972    0.6900    0.0000 H   0  0  0  0  0  0  0  0  0  0  0  0
    7.2641    1.6200    0.0000 H   0  0  0  0  0  0  0  0  0  0  0  0
   11.0573    3.8100    0.0000 H   0  0  0  0  0  0  0  0  0  0  0  0
   12.4603    1.3800    0.0000 H   0  0  0  0  0  0  0  0  0  0  0  0
    9.6067   -1.1077    0.0000 H   0  0  0  0  0  0  0  0  0  0  0  0
    9.2082   -0.4174    0.0000 H   0  0  0  0  0  0  0  0  0  0  0  0
   15.0583   -3.1200    0.0000 H   0  0  0  0  0  0  0  0  0  0  0  0
   17.1004   -2.0369    0.0000 H   0  0  0  0  0  0  0  0  0  0  0  0
   17.3273   -1.1900    0.0000 H   0  0  0  0  0  0  0  0  0  0  0  0
   16.4804   -0.9631    0.0000 H   0  0  0  0  0  0  0  0  0  0  0  0
   15.8874   -3.1760    0.0000 H   0  0  0  0  0  0  0  0  0  0  0  0
   16.7344   -3.4030    0.0000 H   0  0  0  0  0  0  0  0  0  0  0  0
   16.9613   -2.5560    0.0000 H   0  0  0  0  0  0  0  0  0  0  0  0
   15.9613   -0.8240    0.0000 H   0  0  0  0  0  0  0  0  0  0  0  0
   15.1144   -0.5970    0.0000 H   0  0  0  0  0  0  0  0  0  0  0  0
   14.8874   -1.4440    0.0000 H   0  0  0  0  0  0  0  0  0  0  0  0
   12.4603    4.6200    0.0000 H   0  0  0  0  0  0  0  0  0  0  0  0
   13.8632    2.1900    0.0000 H   0  0  0  0  0  0  0  0  0  0  0  0
   13.8632    3.8100    0.0000 H   0  0  0  0  0  0  0  0  0  0  0  0
   11.0573   -2.1900    0.0000 H   0  0  0  0  0  0  0  0  0  0  0  0
   13.8632   -3.8100    0.0000 H   0  0  0  0  0  0  0  0  0  0  0  0
   11.0573   -3.8100    0.0000 H   0  0  0  0  0  0  0  0  0  0  0  0
   12.4603   -4.6200    0.0000 H   0  0  0  0  0  0  0  0  0  0  0  0
    6.0690    2.3100    0.0000 H   0  0  0  0  0  0  0  0  0  0  0  0
    9.5522   -3.0369    0.0000 H   0  0  0  0  0  0  0  0  0  0  0  0
   10.3991   -2.8100    0.0000 H   0  0  0  0  0  0  0  0  0  0  0  0
   10.1722   -1.9631    0.0000 H   0  0  0  0  0  0  0  0  0  0  0  0
    4.6660    3.1200    0.0000 H   0  0  0  0  0  0  0  0  0  0  0  0
    2.9132   -0.1546    0.0000 H   0  0  0  0  0  0  0  0  0  0  0  0
    2.9132    3.1546    0.0000 H   0  0  0  0  0  0  0  0  0  0  0  0
    1.4643    0.6671    0.0000 H   0  0  0  0  0  0  0  0  0  0  0  0
    1.4643    2.3329    0.0000 H   0  0  0  0  0  0  0  0  0  0  0  0
  1 14  1  0  0  0  0
  1 23  1  0  0  0  0
  2 22  1  0  0  0  0
  2 39  1  0  0  0  0
 12  3  1  1  0  0  0
  3 57  1  0  0  0  0
  4 16  2  0  0  0  0
  5 30  2  0  0  0  0
  6 31  2  0  0  0  0
 11  7  1  1  0  0  0
  7 16  1  0  0  0  0
  7 51  1  0  0  0  0
 15  8  1  6  0  0  0
  8 30  1  0  0  0  0
  8 58  1  0  0  0  0
  9 19  1  0  0  0  0
  9 31  1  0  0  0  0
  9 63  1  0  0  0  0
 10 35  2  0  0  0  0
 10 40  1  0  0  0  0
 11 12  1  0  0  0  0
 11 13  1  0  0  0  0
 11 47  1  0  0  0  0
 12 14  1  0  0  0  0
 12 48  1  0  0  0  0
 13 17  1  0  0  0  0
 13 49  1  0  0  0  0
 13 50  1  0  0  0  0
 14 52  1  0  0  0  0
 14 53  1  0  0  0  0
 15 16  1  0  0  0  0
 15 18  1  0  0  0  0
 15 54  1  0  0  0  0
 17 20  2  0  0  0  0
 17 21  1  0  0  0  0
 18 22  1  0  0  0  0
 18 55  1  0  0  0  0
 18 56  1  0  0  0  0
 19 25  1  0  0  0  0
 19 26  1  0  0  0  0
 19 27  1  0  0  0  0
 20 28  1  0  0  0  0
 20 59  1  0  0  0  0
 21 29  2  0  0  0  0
 21 60  1  0  0  0  0
 22 61  1  0  0  0  0
 22 62  1  0  0  0  0
 23 24  1  0  0  0  0
 23 33  2  0  0  0  0
 24 31  1  0  0  0  0
 24 34  2  0  0  0  0
 25 64  1  0  0  0  0
 25 65  1  0  0  0  0
 25 66  1  0  0  0  0
 26 67  1  0  0  0  0
 26 68  1  0  0  0  0
 26 69  1  0  0  0  0
 27 70  1  0  0  0  0
 27 71  1  0  0  0  0
 27 72  1  0  0  0  0
 28 32  2  0  0  0  0
 28 73  1  0  0  0  0
 29 32  1  0  0  0  0
 29 74  1  0  0  0  0
 30 35  1  0  0  0  0
 32 75  1  0  0  0  0
 33 36  1  0  0  0  0
 33 76  1  0  0  0  0
 34 37  1  0  0  0  0
 34 77  1  0  0  0  0
 35 38  1  0  0  0  0
 36 37  2  0  0  0  0
 36 78  1  0  0  0  0
 37 79  1  0  0  0  0
 38 42  2  0  0  0  0
 38 80  1  0  0  0  0
 39 81  1  0  0  0  0
 39 82  1  0  0  0  0
 39 83  1  0  0  0  0
 40 41  1  0  0  0  0
 40 43  2  0  0  0  0
 41 42  1  0  0  0  0
 41 44  2  0  0  0  0
 42 84  1  0  0  0  0
 43 45  1  0  0  0  0
 43 85  1  0  0  0  0
 44 46  1  0  0  0  0
 44 86  1  0  0  0  0
 45 46  2  0  0  0  0
 45 87  1  0  0  0  0
 46 88  1  0  0  0  0
M  END
> <PUBCHEM_COMPOUND_CID>
503082
> <PUBCHEM_COMPOUND_CANONICALIZED>
1
> <PUBCHEM_CACTVS_COMPLEXITY>
972
> <PUBCHEM_CACTVS_HBOND_ACCEPTOR>
7
> <PUBCHEM_CACTVS_HBOND_DONOR>
4
> <PUBCHEM_CACTVS_ROTATABLE_BOND>
15
> <PUBCHEM_CACTVS_SUBSKEYS>
AAADcfB/uABgAAAAAAAAAAAAAAAAAAAAAAA8YMEAAAAAAACx9AAAHgQQCAAADLzl3gaywfLIEgioAyVyVACCgCAnCjAImLm4ZNgKcPLglbGUYQhklgD4yYeYyKCOAAAAAAAGAAAAAAAAAAwAAAAAAAAAAA==
> <PUBCHEM_IUPAC_OPENEYE_NAME>
N-[(1S)-1-[[(1S,2R)-1-benzyl-3-[2-(tert-butylcarbamoyl)phenyl]sulfanyl-2-hydroxy-propyl]carbamoyl]-3-methylsulfanyl-propyl]quinoline-2-carboxamide
> <PUBCHEM_IUPAC_CAS_NAME>
N-[(2S)-1-[[(2S,3R)-4-[[2-[(tert-butylamino)-oxomethyl]phenyl]thio]-3-hydroxy-1-phenylbutan-2-yl]amino]-4-(methylthio)-1-oxobutan-2-yl]-2-quinolinecarboxamide
> <PUBCHEM_IUPAC_NAME_MARKUP>
<I>N</I>-[(2<I>S</I>)-1-[[(2<I>S</I>,3<I>R</I>)-4-[2-(<I>tert</I>-butylcarbamoyl)phenyl]sulfanyl-3-hydroxy-1-phenylbutan-2-yl]amino]-4-methylsulfanyl-1-oxobutan-2-yl]quinoline-2-carboxamide
> <PUBCHEM_IUPAC_NAME>
N-[(2S)-1-[[(2S,3R)-4-[2-(tert-butylcarbamoyl)phenyl]sulfanyl-3-hydroxy-1-phenylbutan-2-yl]amino]-4-methylsulfanyl-1-oxobutan-2-yl]quinoline-2-carboxamide
> <PUBCHEM_IUPAC_SYSTEMATIC_NAME>
N-[(2S)-1-[[(2S,3R)-4-[2-(tert-butylcarbamoyl)phenyl]sulfanyl-3-oxidanyl-1-phenyl-butan-2-yl]amino]-4-methylsulfanyl-1-oxidanylidene-butan-2-yl]quinoline-2-carboxamide
> <PUBCHEM_IUPAC_TRADITIONAL_NAME>
N-[(1S)-1-[[(1S,2R)-1-benzyl-3-[[2-(tert-butylcarbamoyl)phenyl]thio]-2-hydroxy-propyl]carbamoyl]-3-(methylthio)propyl]quinaldamide
> <PUBCHEM_IUPAC_INCHI>
InChI=1S/C36H42N4O4S2/c1-36(2,3)40-33(42)26-15-9-11-17-32(26)46-23-31(41)30(22-24-12-6-5-7-13-24)39-35(44)29(20-21-45-4)38-34(43)28-19-18-25-14-8-10-16-27(25)37-28/h5-19,29-31,41H,20-23H2,1-4H3,(H,38,43)(H,39,44)(H,40,42)/t29-,30-,31-/m0/s1
> <PUBCHEM_IUPAC_INCHIKEY>
YKMAMBCODCGLLR-CHQNGUEUSA-N
> <PUBCHEM_XLOGP3_AA>
6.1
> <PUBCHEM_EXACT_MASS>
658.26474818
> <PUBCHEM_MOLECULAR_FORMULA>
C36H42N4O4S2
> <PUBCHEM_MOLECULAR_WEIGHT>
658.9
> <PUBCHEM_OPENEYE_CAN_SMILES>
CC(C)(C)NC(=O)C1=CC=CC=C1SCC(C(CC2=CC=CC=C2)NC(=O)C(CCSC)NC(=O)C3=NC4=CC=CC=C4C=C3)O
> <PUBCHEM_OPENEYE_ISO_SMILES>
CC(C)(C)NC(=O)C1=CC=CC=C1SC[C@@H]([C@H](CC2=CC=CC=C2)NC(=O)[C@H](CCSC)NC(=O)C3=NC4=CC=CC=C4C=C3)O
> <PUBCHEM_CACTVS_TPSA>
171
> <PUBCHEM_MONOISOTOPIC_WEIGHT>
658.26474818
> <PUBCHEM_TOTAL_CHARGE>
0
> <PUBCHEM_HEAVY_ATOM_COUNT>
46
> <PUBCHEM_ATOM_DEF_STEREO_COUNT>
3
> <PUBCHEM_ATOM_UDEF_STEREO_COUNT>
0
> <PUBCHEM_BOND_DEF_STEREO_COUNT>
0
> <PUBCHEM_BOND_UDEF_STEREO_COUNT>
0
> <PUBCHEM_ISOTOPIC_ATOM_COUNT>
0
> <PUBCHEM_COMPONENT_COUNT>
1
> <PUBCHEM_CACTVS_TAUTO_COUNT>
-1
> <PUBCHEM_COORDINATE_TYPE>
1
5
255
> <PUBCHEM_BONDANNOTATIONS>
10  35  8
10  40  8
17  20  8
17  21  8
20  28  8
21  29  8
23  24  8
23  33  8
24  34  8
28  32  8
29  32  8
12  3  5
33  36  8
34  37  8
35  38  8
36  37  8
38  42  8
40  41  8
40  43  8
41  42  8
41  44  8
43  45  8
44  46  8
45  46  8
11  7  5
15  8  6
$$$$
