503061
  -OEChem-10302200282D
 86 90  0     1  0  0  0  0  0999 V2000
    8.9962    0.9259    0.0000 S   0  0  0  0  0  0  0  0  0  0  0  0
    9.7198    2.7805    0.0000 O   0  0  0  0  0  0  0  0  0  0  0  0
   10.7282   -0.0741    0.0000 O   0  0  0  0  0  0  0  0  0  0  0  0
    9.8622   -3.5741    0.0000 O   0  0  0  0  0  0  0  0  0  0  0  0
    9.8622   -4.5741    0.0000 O   0  0  0  0  0  0  0  0  0  0  0  0
    6.3981   -4.5741    0.0000 O   0  0  0  0  0  0  0  0  0  0  0  0
    8.5608    4.0677    0.0000 N   0  0  0  0  0  0  0  0  0  0  0  0
    8.9962   -2.0741    0.0000 N   0  0  0  0  0  0  0  0  0  0  0  0
    7.2641   -3.0741    0.0000 N   0  0  0  0  0  0  0  0  0  0  0  0
    8.9962   -6.0741    0.0000 N   0  0  0  0  0  0  0  0  0  0  0  0
    4.6660   -3.5741    0.0000 N   0  0  0  0  0  0  0  0  0  0  0  0
    8.0256    2.4204    0.0000 C   0  0  1  0  0  0  0  0  0  0  0  0
    8.1301    1.4259    0.0000 C   0  0  2  0  0  0  0  0  0  0  0  0
    7.0475    2.6283    0.0000 C   0  0  0  0  0  0  0  0  0  0  0  0
    7.2166    1.0192    0.0000 C   0  0  0  0  0  0  0  0  0  0  0  0
    6.5475    1.7623    0.0000 C   0  0  0  0  0  0  0  0  0  0  0  0
    8.7688    3.0896    0.0000 C   0  0  0  0  0  0  0  0  0  0  0  0
    8.9962   -0.0741    0.0000 C   0  0  0  0  0  0  0  0  0  0  0  0
    9.8622   -0.5741    0.0000 C   0  0  2  0  0  0  0  0  0  0  0  0
    9.8622   -1.5741    0.0000 C   0  0  2  0  0  0  0  0  0  0  0  0
   10.7282   -2.0741    0.0000 C   0  0  0  0  0  0  0  0  0  0  0  0
    9.3040    4.7368    0.0000 C   0  0  0  0  0  0  0  0  0  0  0  0
   11.5942   -1.5741    0.0000 C   0  0  0  0  0  0  0  0  0  0  0  0
    8.9962   -3.0741    0.0000 C   0  0  0  0  0  0  0  0  0  0  0  0
    8.1301   -3.5741    0.0000 C   0  0  2  0  0  0  0  0  0  0  0  0
   10.2550    4.4278    0.0000 C   0  0  0  0  0  0  0  0  0  0  0  0
    9.0961    5.7150    0.0000 C   0  0  0  0  0  0  0  0  0  0  0  0
   11.5942   -0.5741    0.0000 C   0  0  0  0  0  0  0  0  0  0  0  0
   12.4603   -2.0741    0.0000 C   0  0  0  0  0  0  0  0  0  0  0  0
    8.1301   -4.5741    0.0000 C   0  0  0  0  0  0  0  0  0  0  0  0
   10.9982    5.0969    0.0000 C   0  0  0  0  0  0  0  0  0  0  0  0
    9.8392    6.3841    0.0000 C   0  0  0  0  0  0  0  0  0  0  0  0
   12.4603   -0.0741    0.0000 C   0  0  0  0  0  0  0  0  0  0  0  0
   13.3263   -1.5741    0.0000 C   0  0  0  0  0  0  0  0  0  0  0  0
   10.7903    6.0751    0.0000 C   0  0  0  0  0  0  0  0  0  0  0  0
   13.3263   -0.5741    0.0000 C   0  0  0  0  0  0  0  0  0  0  0  0
    8.9962   -5.0741    0.0000 C   0  0  0  0  0  0  0  0  0  0  0  0
    6.3981   -3.5741    0.0000 C   0  0  0  0  0  0  0  0  0  0  0  0
    5.5321   -3.0741    0.0000 C   0  0  0  0  0  0  0  0  0  0  0  0
    5.5321   -2.0741    0.0000 C   0  0  0  0  0  0  0  0  0  0  0  0
    3.8000   -3.0741    0.0000 C   0  0  0  0  0  0  0  0  0  0  0  0
    3.8000   -2.0741    0.0000 C   0  0  0  0  0  0  0  0  0  0  0  0
    4.6660   -1.5741    0.0000 C   0  0  0  0  0  0  0  0  0  0  0  0
    2.9061   -3.6088    0.0000 C   0  0  0  0  0  0  0  0  0  0  0  0
    2.9061   -1.5394    0.0000 C   0  0  0  0  0  0  0  0  0  0  0  0
    2.0000   -3.0949    0.0000 C   0  0  0  0  0  0  0  0  0  0  0  0
    2.0000   -2.0533    0.0000 C   0  0  0  0  0  0  0  0  0  0  0  0
    7.8651    3.0193    0.0000 H   0  0  0  0  0  0  0  0  0  0  0  0
    8.0977    0.8067    0.0000 H   0  0  0  0  0  0  0  0  0  0  0  0
    7.2390    3.2180    0.0000 H   0  0  0  0  0  0  0  0  0  0  0  0
    6.4811    2.8805    0.0000 H   0  0  0  0  0  0  0  0  0  0  0  0
    6.7150    0.6547    0.0000 H   0  0  0  0  0  0  0  0  0  0  0  0
    7.5266    0.4822    0.0000 H   0  0  0  0  0  0  0  0  0  0  0  0
    6.0459    2.1267    0.0000 H   0  0  0  0  0  0  0  0  0  0  0  0
    6.1326    1.3016    0.0000 H   0  0  0  0  0  0  0  0  0  0  0  0
    8.3856    0.0336    0.0000 H   0  0  0  0  0  0  0  0  0  0  0  0
    8.7841   -0.6567    0.0000 H   0  0  0  0  0  0  0  0  0  0  0  0
    9.8622    0.0459    0.0000 H   0  0  0  0  0  0  0  0  0  0  0  0
    9.3252   -1.2641    0.0000 H   0  0  0  0  0  0  0  0  0  0  0  0
    7.9712    4.2593    0.0000 H   0  0  0  0  0  0  0  0  0  0  0  0
   10.3297   -2.5490    0.0000 H   0  0  0  0  0  0  0  0  0  0  0  0
   11.1267   -2.5490    0.0000 H   0  0  0  0  0  0  0  0  0  0  0  0
    8.4592   -1.7641    0.0000 H   0  0  0  0  0  0  0  0  0  0  0  0
   10.7282    0.5459    0.0000 H   0  0  0  0  0  0  0  0  0  0  0  0
    7.5932   -3.8841    0.0000 H   0  0  0  0  0  0  0  0  0  0  0  0
   10.3839    3.8214    0.0000 H   0  0  0  0  0  0  0  0  0  0  0  0
    8.5064    5.9066    0.0000 H   0  0  0  0  0  0  0  0  0  0  0  0
   11.0573   -0.2641    0.0000 H   0  0  0  0  0  0  0  0  0  0  0  0
   12.4603   -2.6941    0.0000 H   0  0  0  0  0  0  0  0  0  0  0  0
    7.5196   -4.4664    0.0000 H   0  0  0  0  0  0  0  0  0  0  0  0
    7.9181   -5.1567    0.0000 H   0  0  0  0  0  0  0  0  0  0  0  0
    7.2641   -2.4541    0.0000 H   0  0  0  0  0  0  0  0  0  0  0  0
   11.5878    4.9054    0.0000 H   0  0  0  0  0  0  0  0  0  0  0  0
    9.7103    6.9906    0.0000 H   0  0  0  0  0  0  0  0  0  0  0  0
   12.4603    0.5459    0.0000 H   0  0  0  0  0  0  0  0  0  0  0  0
   13.8632   -1.8841    0.0000 H   0  0  0  0  0  0  0  0  0  0  0  0
   11.2510    6.4900    0.0000 H   0  0  0  0  0  0  0  0  0  0  0  0
   13.8632   -0.2641    0.0000 H   0  0  0  0  0  0  0  0  0  0  0  0
    9.5331   -6.3841    0.0000 H   0  0  0  0  0  0  0  0  0  0  0  0
    8.4592   -6.3841    0.0000 H   0  0  0  0  0  0  0  0  0  0  0  0
    6.0690   -1.7641    0.0000 H   0  0  0  0  0  0  0  0  0  0  0  0
    4.6660   -0.9541    0.0000 H   0  0  0  0  0  0  0  0  0  0  0  0
    2.9132   -4.2287    0.0000 H   0  0  0  0  0  0  0  0  0  0  0  0
    2.9132   -0.9195    0.0000 H   0  0  0  0  0  0  0  0  0  0  0  0
    1.4643   -3.4070    0.0000 H   0  0  0  0  0  0  0  0  0  0  0  0
    1.4643   -1.7412    0.0000 H   0  0  0  0  0  0  0  0  0  0  0  0
 13  1  1  1  0  0  0
  1 18  1  0  0  0  0
  2 17  2  0  0  0  0
 19  3  1  1  0  0  0
  3 64  1  0  0  0  0
  4 24  2  0  0  0  0
  5 37  2  0  0  0  0
  6 38  2  0  0  0  0
  7 17  1  0  0  0  0
  7 22  1  0  0  0  0
  7 60  1  0  0  0  0
 20  8  1  6  0  0  0
  8 24  1  0  0  0  0
  8 63  1  0  0  0  0
 25  9  1  6  0  0  0
  9 38  1  0  0  0  0
  9 72  1  0  0  0  0
 10 37  1  0  0  0  0
 10 79  1  0  0  0  0
 10 80  1  0  0  0  0
 11 39  2  0  0  0  0
 11 41  1  0  0  0  0
 12 13  1  0  0  0  0
 12 14  1  0  0  0  0
 12 17  1  1  0  0  0
 12 48  1  0  0  0  0
 13 15  1  0  0  0  0
 13 49  1  0  0  0  0
 14 16  1  0  0  0  0
 14 50  1  0  0  0  0
 14 51  1  0  0  0  0
 15 16  1  0  0  0  0
 15 52  1  0  0  0  0
 15 53  1  0  0  0  0
 16 54  1  0  0  0  0
 16 55  1  0  0  0  0
 18 19  1  0  0  0  0
 18 56  1  0  0  0  0
 18 57  1  0  0  0  0
 19 20  1  0  0  0  0
 19 58  1  0  0  0  0
 20 21  1  0  0  0  0
 20 59  1  0  0  0  0
 21 23  1  0  0  0  0
 21 61  1  0  0  0  0
 21 62  1  0  0  0  0
 22 26  2  0  0  0  0
 22 27  1  0  0  0  0
 23 28  2  0  0  0  0
 23 29  1  0  0  0  0
 24 25  1  0  0  0  0
 25 30  1  0  0  0  0
 25 65  1  0  0  0  0
 26 31  1  0  0  0  0
 26 66  1  0  0  0  0
 27 32  2  0  0  0  0
 27 67  1  0  0  0  0
 28 33  1  0  0  0  0
 28 68  1  0  0  0  0
 29 34  2  0  0  0  0
 29 69  1  0  0  0  0
 30 37  1  0  0  0  0
 30 70  1  0  0  0  0
 30 71  1  0  0  0  0
 31 35  2  0  0  0  0
 31 73  1  0  0  0  0
 32 35  1  0  0  0  0
 32 74  1  0  0  0  0
 33 36  2  0  0  0  0
 33 75  1  0  0  0  0
 34 36  1  0  0  0  0
 34 76  1  0  0  0  0
 35 77  1  0  0  0  0
 36 78  1  0  0  0  0
 38 39  1  0  0  0  0
 39 40  1  0  0  0  0
 40 43  2  0  0  0  0
 40 81  1  0  0  0  0
 41 42  1  0  0  0  0
 41 44  2  0  0  0  0
 42 43  1  0  0  0  0
 42 45  2  0  0  0  0
 43 82  1  0  0  0  0
 44 46  1  0  0  0  0
 44 83  1  0  0  0  0
 45 47  1  0  0  0  0
 45 84  1  0  0  0  0
 46 47  2  0  0  0  0
 46 85  1  0  0  0  0
 47 86  1  0  0  0  0
M  END
> <PUBCHEM_COMPOUND_CID>
503061
> <PUBCHEM_COMPOUND_CANONICALIZED>
1
> <PUBCHEM_CACTVS_COMPLEXITY>
1050
> <PUBCHEM_CACTVS_HBOND_ACCEPTOR>
7
> <PUBCHEM_CACTVS_HBOND_DONOR>
5
> <PUBCHEM_CACTVS_ROTATABLE_BOND>
14
> <PUBCHEM_CACTVS_SUBSKEYS>
AAADcfB/uABAAAAAAAAAAAAAAAAAAYAAAAA8YMEAAAAAAACx9AAAHgQQCAAADTzl3gawwPLIEgioAyVyVACCgCAnAjAImKG4ZNgKcPrg1bGUYQhklgD4yYedyKCOAAAAAAACAAAAAAAAAAQAAAAAAgAAAA==
> <PUBCHEM_IUPAC_OPENEYE_NAME>
(2S)-N-[(1S,2S)-1-benzyl-2-hydroxy-3-[(1S,2S)-2-(phenylcarbamoyl)cyclopentyl]sulfanyl-propyl]-2-(quinoline-2-carbonylamino)butanediamide
> <PUBCHEM_IUPAC_CAS_NAME>
(2S)-N-[(2S,3S)-4-[[(1S,2S)-2-[anilino(oxo)methyl]cyclopentyl]thio]-3-hydroxy-1-phenylbutan-2-yl]-2-[[oxo(2-quinolinyl)methyl]amino]butanediamide
> <PUBCHEM_IUPAC_NAME_MARKUP>
(2<I>S</I>)-<I>N</I>-[(2<I>S</I>,3<I>S</I>)-3-hydroxy-1-phenyl-4-[(1<I>S</I>,2<I>S</I>)-2-(phenylcarbamoyl)cyclopentyl]sulfanylbutan-2-yl]-2-(quinoline-2-carbonylamino)butanediamide
> <PUBCHEM_IUPAC_NAME>
(2S)-N-[(2S,3S)-3-hydroxy-1-phenyl-4-[(1S,2S)-2-(phenylcarbamoyl)cyclopentyl]sulfanylbutan-2-yl]-2-(quinoline-2-carbonylamino)butanediamide
> <PUBCHEM_IUPAC_SYSTEMATIC_NAME>
(2S)-N-[(2S,3S)-3-oxidanyl-1-phenyl-4-[(1S,2S)-2-(phenylcarbamoyl)cyclopentyl]sulfanyl-butan-2-yl]-2-(quinolin-2-ylcarbonylamino)butanediamide
> <PUBCHEM_IUPAC_TRADITIONAL_NAME>
(2S)-N-[(1S,2S)-1-benzyl-2-hydroxy-3-[[(1S,2S)-2-(phenylcarbamoyl)cyclopentyl]thio]propyl]-2-(quinaldoylamino)succinamide
> <PUBCHEM_IUPAC_INCHI>
InChI=1S/C36H39N5O5S/c37-33(43)21-30(41-35(45)28-19-18-24-12-7-8-16-27(24)39-28)36(46)40-29(20-23-10-3-1-4-11-23)31(42)22-47-32-17-9-15-26(32)34(44)38-25-13-5-2-6-14-25/h1-8,10-14,16,18-19,26,29-32,42H,9,15,17,20-22H2,(H2,37,43)(H,38,44)(H,40,46)(H,41,45)/t26-,29+,30+,31-,32+/m1/s1
> <PUBCHEM_IUPAC_INCHIKEY>
YLQPKRKPTGRZCW-KHQGQIEXSA-N
> <PUBCHEM_XLOGP3_AA>
3.8
> <PUBCHEM_EXACT_MASS>
653.26719054
> <PUBCHEM_MOLECULAR_FORMULA>
C36H39N5O5S
> <PUBCHEM_MOLECULAR_WEIGHT>
653.8
> <PUBCHEM_OPENEYE_CAN_SMILES>
C1CC(C(C1)SCC(C(CC2=CC=CC=C2)NC(=O)C(CC(=O)N)NC(=O)C3=NC4=CC=CC=C4C=C3)O)C(=O)NC5=CC=CC=C5
> <PUBCHEM_OPENEYE_ISO_SMILES>
C1C[C@H]([C@H](C1)SC[C@H]([C@H](CC2=CC=CC=C2)NC(=O)[C@H](CC(=O)N)NC(=O)C3=NC4=CC=CC=C4C=C3)O)C(=O)NC5=CC=CC=C5
> <PUBCHEM_CACTVS_TPSA>
189
> <PUBCHEM_MONOISOTOPIC_WEIGHT>
653.26719054
> <PUBCHEM_TOTAL_CHARGE>
0
> <PUBCHEM_HEAVY_ATOM_COUNT>
47
> <PUBCHEM_ATOM_DEF_STEREO_COUNT>
5
> <PUBCHEM_ATOM_UDEF_STEREO_COUNT>
0
> <PUBCHEM_BOND_DEF_STEREO_COUNT>
0
> <PUBCHEM_BOND_UDEF_STEREO_COUNT>
0
> <PUBCHEM_ISOTOPIC_ATOM_COUNT>
0
> <PUBCHEM_COMPONENT_COUNT>
1
> <PUBCHEM_CACTVS_TAUTO_COUNT>
-1
> <PUBCHEM_COORDINATE_TYPE>
1
5
255
> <PUBCHEM_BONDANNOTATIONS>
13  1  5
11  39  8
11  41  8
12  17  5
22  26  8
22  27  8
23  28  8
23  29  8
26  31  8
27  32  8
28  33  8
29  34  8
19  3  5
31  35  8
32  35  8
33  36  8
34  36  8
39  40  8
40  43  8
41  42  8
41  44  8
42  43  8
42  45  8
44  46  8
45  47  8
46  47  8
20  8  6
25  9  6
$$$$
