503090
  -OEChem-10302200282D
 80 82  0     1  0  0  0  0  0999 V2000
    9.4651   -1.9050    0.0000 S   0  0  0  0  0  0  0  0  0  0  0  0
    7.7331   -0.9050    0.0000 O   0  0  0  0  0  0  0  0  0  0  0  0
    6.8671   -0.4050    0.0000 O   0  0  0  0  0  0  0  0  0  0  0  0
   10.3312   -0.4050    0.0000 O   0  0  0  0  0  0  0  0  0  0  0  0
    3.4030    0.5950    0.0000 O   0  0  0  0  0  0  0  0  0  0  0  0
    6.8671    0.5950    0.0000 O   0  0  0  0  0  0  0  0  0  0  0  0
    6.0010    5.0950    0.0000 O   0  0  0  0  0  0  0  0  0  0  0  0
    6.0010   -1.9050    0.0000 N   0  0  0  0  0  0  0  0  0  0  0  0
    5.1350    0.5950    0.0000 N   0  0  0  0  0  0  0  0  0  0  0  0
   12.0632   -0.4050    0.0000 N   0  0  0  0  0  0  0  0  0  0  0  0
    2.5369   -0.9050    0.0000 N   0  0  0  0  0  0  0  0  0  0  0  0
    6.8671    2.5950    0.0000 N   0  0  0  0  0  0  0  0  0  0  0  0
    6.8671   -2.4050    0.0000 C   0  0  2  0  0  0  0  0  0  0  0  0
    7.7331   -1.9050    0.0000 C   0  0  2  0  0  0  0  0  0  0  0  0
    6.8671   -3.4050    0.0000 C   0  0  0  0  0  0  0  0  0  0  0  0
    8.5991   -2.4050    0.0000 C   0  0  0  0  0  0  0  0  0  0  0  0
    6.0010   -3.9050    0.0000 C   0  0  0  0  0  0  0  0  0  0  0  0
    5.1350   -0.4050    0.0000 C   0  0  2  0  0  0  0  0  0  0  0  0
    6.0010   -0.9050    0.0000 C   0  0  0  0  0  0  0  0  0  0  0  0
   12.0632    0.5950    0.0000 C   0  0  0  0  0  0  0  0  0  0  0  0
    4.2690   -0.9050    0.0000 C   0  0  0  0  0  0  0  0  0  0  0  0
    6.0010   -4.9050    0.0000 C   0  0  0  0  0  0  0  0  0  0  0  0
    5.1350   -3.4050    0.0000 C   0  0  0  0  0  0  0  0  0  0  0  0
   10.3312   -2.4050    0.0000 C   0  0  0  0  0  0  0  0  0  0  0  0
   11.1972   -1.9050    0.0000 C   0  0  0  0  0  0  0  0  0  0  0  0
   12.0632    1.5950    0.0000 C   0  0  0  0  0  0  0  0  0  0  0  0
   13.0632    0.5950    0.0000 C   0  0  0  0  0  0  0  0  0  0  0  0
   11.0632    0.5950    0.0000 C   0  0  0  0  0  0  0  0  0  0  0  0
   11.1972   -0.9050    0.0000 C   0  0  0  0  0  0  0  0  0  0  0  0
    5.1350   -5.4050    0.0000 C   0  0  0  0  0  0  0  0  0  0  0  0
    4.2690   -3.9050    0.0000 C   0  0  0  0  0  0  0  0  0  0  0  0
    3.4030   -0.4050    0.0000 C   0  0  0  0  0  0  0  0  0  0  0  0
    4.2690   -4.9050    0.0000 C   0  0  0  0  0  0  0  0  0  0  0  0
   10.3312   -3.4050    0.0000 C   0  0  0  0  0  0  0  0  0  0  0  0
    6.0010    1.0950    0.0000 C   0  0  0  0  0  0  0  0  0  0  0  0
   12.0632   -2.4050    0.0000 C   0  0  0  0  0  0  0  0  0  0  0  0
   11.1972   -3.9050    0.0000 C   0  0  0  0  0  0  0  0  0  0  0  0
   12.0632   -3.4050    0.0000 C   0  0  0  0  0  0  0  0  0  0  0  0
    6.0010    2.0950    0.0000 C   0  0  0  0  0  0  0  0  0  0  0  0
    5.1350    2.5950    0.0000 C   0  0  0  0  0  0  0  0  0  0  0  0
    5.1350    3.5950    0.0000 C   0  0  0  0  0  0  0  0  0  0  0  0
    6.8671    3.5950    0.0000 C   0  0  0  0  0  0  0  0  0  0  0  0
    6.0010    4.0950    0.0000 C   0  0  0  0  0  0  0  0  0  0  0  0
    6.3301   -2.7150    0.0000 H   0  0  0  0  0  0  0  0  0  0  0  0
    8.2700   -1.5950    0.0000 H   0  0  0  0  0  0  0  0  0  0  0  0
    7.0791   -3.9876    0.0000 H   0  0  0  0  0  0  0  0  0  0  0  0
    7.4776   -3.2973    0.0000 H   0  0  0  0  0  0  0  0  0  0  0  0
    5.4641   -2.2150    0.0000 H   0  0  0  0  0  0  0  0  0  0  0  0
    8.2006   -2.8800    0.0000 H   0  0  0  0  0  0  0  0  0  0  0  0
    8.9976   -2.8800    0.0000 H   0  0  0  0  0  0  0  0  0  0  0  0
    5.6720   -0.0950    0.0000 H   0  0  0  0  0  0  0  0  0  0  0  0
    8.2700   -0.5950    0.0000 H   0  0  0  0  0  0  0  0  0  0  0  0
    3.8705   -1.3800    0.0000 H   0  0  0  0  0  0  0  0  0  0  0  0
    4.6675   -1.3800    0.0000 H   0  0  0  0  0  0  0  0  0  0  0  0
    6.5380   -5.2150    0.0000 H   0  0  0  0  0  0  0  0  0  0  0  0
    5.1350   -2.7850    0.0000 H   0  0  0  0  0  0  0  0  0  0  0  0
    4.5981    0.9050    0.0000 H   0  0  0  0  0  0  0  0  0  0  0  0
   12.6002   -0.7150    0.0000 H   0  0  0  0  0  0  0  0  0  0  0  0
   12.6832    1.5950    0.0000 H   0  0  0  0  0  0  0  0  0  0  0  0
   12.0632    2.2150    0.0000 H   0  0  0  0  0  0  0  0  0  0  0  0
   11.4432    1.5950    0.0000 H   0  0  0  0  0  0  0  0  0  0  0  0
   13.0632   -0.0250    0.0000 H   0  0  0  0  0  0  0  0  0  0  0  0
   13.6832    0.5950    0.0000 H   0  0  0  0  0  0  0  0  0  0  0  0
   13.0632    1.2150    0.0000 H   0  0  0  0  0  0  0  0  0  0  0  0
   11.0632    1.2150    0.0000 H   0  0  0  0  0  0  0  0  0  0  0  0
   10.4432    0.5950    0.0000 H   0  0  0  0  0  0  0  0  0  0  0  0
   11.0632   -0.0250    0.0000 H   0  0  0  0  0  0  0  0  0  0  0  0
    5.1350   -6.0250    0.0000 H   0  0  0  0  0  0  0  0  0  0  0  0
    3.7320   -3.5950    0.0000 H   0  0  0  0  0  0  0  0  0  0  0  0
    3.7320   -5.2150    0.0000 H   0  0  0  0  0  0  0  0  0  0  0  0
    9.7942   -3.7150    0.0000 H   0  0  0  0  0  0  0  0  0  0  0  0
   12.6002   -2.0950    0.0000 H   0  0  0  0  0  0  0  0  0  0  0  0
   11.1972   -4.5250    0.0000 H   0  0  0  0  0  0  0  0  0  0  0  0
   12.6002   -3.7150    0.0000 H   0  0  0  0  0  0  0  0  0  0  0  0
    2.0000   -0.5950    0.0000 H   0  0  0  0  0  0  0  0  0  0  0  0
    2.5369   -1.5250    0.0000 H   0  0  0  0  0  0  0  0  0  0  0  0
    4.5981    2.2850    0.0000 H   0  0  0  0  0  0  0  0  0  0  0  0
    4.5981    3.9050    0.0000 H   0  0  0  0  0  0  0  0  0  0  0  0
    7.4040    3.9050    0.0000 H   0  0  0  0  0  0  0  0  0  0  0  0
    6.5380    5.4050    0.0000 H   0  0  0  0  0  0  0  0  0  0  0  0
  1 16  1  0  0  0  0
  1 24  1  0  0  0  0
 14  2  1  1  0  0  0
  2 52  1  0  0  0  0
  3 19  2  0  0  0  0
  4 29  2  0  0  0  0
  5 32  2  0  0  0  0
  6 35  2  0  0  0  0
  7 43  1  0  0  0  0
  7 80  1  0  0  0  0
 13  8  1  6  0  0  0
  8 19  1  0  0  0  0
  8 48  1  0  0  0  0
 18  9  1  6  0  0  0
  9 35  1  0  0  0  0
  9 57  1  0  0  0  0
 10 20  1  0  0  0  0
 10 29  1  0  0  0  0
 10 58  1  0  0  0  0
 11 32  1  0  0  0  0
 11 75  1  0  0  0  0
 11 76  1  0  0  0  0
 12 39  2  0  0  0  0
 12 42  1  0  0  0  0
 13 14  1  0  0  0  0
 13 15  1  0  0  0  0
 13 44  1  0  0  0  0
 14 16  1  0  0  0  0
 14 45  1  0  0  0  0
 15 17  1  0  0  0  0
 15 46  1  0  0  0  0
 15 47  1  0  0  0  0
 16 49  1  0  0  0  0
 16 50  1  0  0  0  0
 17 22  2  0  0  0  0
 17 23  1  0  0  0  0
 18 19  1  0  0  0  0
 18 21  1  0  0  0  0
 18 51  1  0  0  0  0
 20 26  1  0  0  0  0
 20 27  1  0  0  0  0
 20 28  1  0  0  0  0
 21 32  1  0  0  0  0
 21 53  1  0  0  0  0
 21 54  1  0  0  0  0
 22 30  1  0  0  0  0
 22 55  1  0  0  0  0
 23 31  2  0  0  0  0
 23 56  1  0  0  0  0
 24 25  1  0  0  0  0
 24 34  2  0  0  0  0
 25 29  1  0  0  0  0
 25 36  2  0  0  0  0
 26 59  1  0  0  0  0
 26 60  1  0  0  0  0
 26 61  1  0  0  0  0
 27 62  1  0  0  0  0
 27 63  1  0  0  0  0
 27 64  1  0  0  0  0
 28 65  1  0  0  0  0
 28 66  1  0  0  0  0
 28 67  1  0  0  0  0
 30 33  2  0  0  0  0
 30 68  1  0  0  0  0
 31 33  1  0  0  0  0
 31 69  1  0  0  0  0
 33 70  1  0  0  0  0
 34 37  1  0  0  0  0
 34 71  1  0  0  0  0
 35 39  1  0  0  0  0
 36 38  1  0  0  0  0
 36 72  1  0  0  0  0
 37 38  2  0  0  0  0
 37 73  1  0  0  0  0
 38 74  1  0  0  0  0
 39 40  1  0  0  0  0
 40 41  2  0  0  0  0
 40 77  1  0  0  0  0
 41 43  1  0  0  0  0
 41 78  1  0  0  0  0
 42 43  2  0  0  0  0
 42 79  1  0  0  0  0
M  END
> <PUBCHEM_COMPOUND_CID>
503090
> <PUBCHEM_COMPOUND_CANONICALIZED>
1
> <PUBCHEM_CACTVS_COMPLEXITY>
940
> <PUBCHEM_CACTVS_HBOND_ACCEPTOR>
8
> <PUBCHEM_CACTVS_HBOND_DONOR>
6
> <PUBCHEM_CACTVS_ROTATABLE_BOND>
14
> <PUBCHEM_CACTVS_SUBSKEYS>
AAADcfB7uABAAAAAAAAAAAAAAAAAAAAAAAA8YIAAAAAAAAAB0AAAHgQQCAAADLzl3ga+h5LIEgioAzV3VASCgCA3ajAI2Lm/bNgKdvry1bOUcQhk1hH42Ye93KLOAAAAAAAEAAAAAAAAAAgAAAAAAAAAAA==
> <PUBCHEM_IUPAC_OPENEYE_NAME>
(2S)-N-[(1S,2R)-1-benzyl-3-[2-(tert-butylcarbamoyl)phenyl]sulfanyl-2-hydroxy-propyl]-2-[(5-hydroxypyridine-2-carbonyl)amino]butanediamide
> <PUBCHEM_IUPAC_CAS_NAME>
(2S)-N-[(2S,3R)-4-[[2-[(tert-butylamino)-oxomethyl]phenyl]thio]-3-hydroxy-1-phenylbutan-2-yl]-2-[[(5-hydroxy-2-pyridinyl)-oxomethyl]amino]butanediamide
> <PUBCHEM_IUPAC_NAME_MARKUP>
(2<I>S</I>)-<I>N</I>-[(2<I>S</I>,3<I>R</I>)-4-[2-(<I>tert</I>-butylcarbamoyl)phenyl]sulfanyl-3-hydroxy-1-phenylbutan-2-yl]-2-[(5-hydroxypyridine-2-carbonyl)amino]butanediamide
> <PUBCHEM_IUPAC_NAME>
(2S)-N-[(2S,3R)-4-[2-(tert-butylcarbamoyl)phenyl]sulfanyl-3-hydroxy-1-phenylbutan-2-yl]-2-[(5-hydroxypyridine-2-carbonyl)amino]butanediamide
> <PUBCHEM_IUPAC_SYSTEMATIC_NAME>
(2S)-N-[(2S,3R)-4-[2-(tert-butylcarbamoyl)phenyl]sulfanyl-3-oxidanyl-1-phenyl-butan-2-yl]-2-[(5-oxidanylpyridin-2-yl)carbonylamino]butanediamide
> <PUBCHEM_IUPAC_TRADITIONAL_NAME>
(2S)-N-[(1S,2R)-1-benzyl-3-[[2-(tert-butylcarbamoyl)phenyl]thio]-2-hydroxy-propyl]-2-[(5-hydroxypicolinoyl)amino]succinamide
> <PUBCHEM_IUPAC_INCHI>
InChI=1S/C31H37N5O6S/c1-31(2,3)36-28(40)21-11-7-8-12-26(21)43-18-25(38)23(15-19-9-5-4-6-10-19)34-30(42)24(16-27(32)39)35-29(41)22-14-13-20(37)17-33-22/h4-14,17,23-25,37-38H,15-16,18H2,1-3H3,(H2,32,39)(H,34,42)(H,35,41)(H,36,40)/t23-,24-,25-/m0/s1
> <PUBCHEM_IUPAC_INCHIKEY>
KWBCHKJPODODLF-SDHOMARFSA-N
> <PUBCHEM_XLOGP3_AA>
2.2
> <PUBCHEM_EXACT_MASS>
607.24645509
> <PUBCHEM_MOLECULAR_FORMULA>
C31H37N5O6S
> <PUBCHEM_MOLECULAR_WEIGHT>
607.7
> <PUBCHEM_OPENEYE_CAN_SMILES>
CC(C)(C)NC(=O)C1=CC=CC=C1SCC(C(CC2=CC=CC=C2)NC(=O)C(CC(=O)N)NC(=O)C3=NC=C(C=C3)O)O
> <PUBCHEM_OPENEYE_ISO_SMILES>
CC(C)(C)NC(=O)C1=CC=CC=C1SC[C@@H]([C@H](CC2=CC=CC=C2)NC(=O)[C@H](CC(=O)N)NC(=O)C3=NC=C(C=C3)O)O
> <PUBCHEM_CACTVS_TPSA>
209
> <PUBCHEM_MONOISOTOPIC_WEIGHT>
607.24645509
> <PUBCHEM_TOTAL_CHARGE>
0
> <PUBCHEM_HEAVY_ATOM_COUNT>
43
> <PUBCHEM_ATOM_DEF_STEREO_COUNT>
3
> <PUBCHEM_ATOM_UDEF_STEREO_COUNT>
0
> <PUBCHEM_BOND_DEF_STEREO_COUNT>
0
> <PUBCHEM_BOND_UDEF_STEREO_COUNT>
0
> <PUBCHEM_ISOTOPIC_ATOM_COUNT>
0
> <PUBCHEM_COMPONENT_COUNT>
1
> <PUBCHEM_CACTVS_TAUTO_COUNT>
-1
> <PUBCHEM_COORDINATE_TYPE>
1
5
255
> <PUBCHEM_BONDANNOTATIONS>
12  39  8
12  42  8
17  22  8
17  23  8
14  2  5
22  30  8
23  31  8
24  25  8
24  34  8
25  36  8
30  33  8
31  33  8
34  37  8
36  38  8
37  38  8
39  40  8
40  41  8
41  43  8
42  43  8
13  8  6
18  9  6
$$$$
