503067
  -OEChem-10302200282D
 81 83  0     1  0  0  0  0  0999 V2000
    8.9962    1.4720    0.0000 S   0  0  0  0  0  0  0  0  0  0  0  0
   10.7282    0.4720    0.0000 O   0  0  0  0  0  0  0  0  0  0  0  0
    9.8622   -3.0280    0.0000 O   0  0  0  0  0  0  0  0  0  0  0  0
    6.3981    2.9720    0.0000 O   0  0  0  0  0  0  0  0  0  0  0  0
    9.8622   -4.0280    0.0000 O   0  0  0  0  0  0  0  0  0  0  0  0
    6.3981   -4.0280    0.0000 O   0  0  0  0  0  0  0  0  0  0  0  0
    8.9962   -1.5280    0.0000 N   0  0  0  0  0  0  0  0  0  0  0  0
    7.2641    4.4720    0.0000 N   0  0  0  0  0  0  0  0  0  0  0  0
    7.2641   -2.5280    0.0000 N   0  0  0  0  0  0  0  0  0  0  0  0
    8.9962   -5.5280    0.0000 N   0  0  0  0  0  0  0  0  0  0  0  0
    4.6660   -3.0280    0.0000 N   0  0  0  0  0  0  0  0  0  0  0  0
    9.8622   -1.0280    0.0000 C   0  0  2  0  0  0  0  0  0  0  0  0
    9.8622   -0.0280    0.0000 C   0  0  2  0  0  0  0  0  0  0  0  0
   10.7282   -1.5280    0.0000 C   0  0  0  0  0  0  0  0  0  0  0  0
    8.9962    0.4720    0.0000 C   0  0  0  0  0  0  0  0  0  0  0  0
   11.5942   -1.0280    0.0000 C   0  0  0  0  0  0  0  0  0  0  0  0
    8.1301   -3.0280    0.0000 C   0  0  2  0  0  0  0  0  0  0  0  0
    8.9962   -2.5280    0.0000 C   0  0  0  0  0  0  0  0  0  0  0  0
    6.3981    4.9720    0.0000 C   0  0  0  0  0  0  0  0  0  0  0  0
    8.1301   -4.0280    0.0000 C   0  0  0  0  0  0  0  0  0  0  0  0
    8.1301    1.9720    0.0000 C   0  0  0  0  0  0  0  0  0  0  0  0
    8.1301    2.9720    0.0000 C   0  0  0  0  0  0  0  0  0  0  0  0
   12.4603   -1.5280    0.0000 C   0  0  0  0  0  0  0  0  0  0  0  0
   11.5942   -0.0280    0.0000 C   0  0  0  0  0  0  0  0  0  0  0  0
    7.2641    3.4720    0.0000 C   0  0  0  0  0  0  0  0  0  0  0  0
    5.5321    5.4720    0.0000 C   0  0  0  0  0  0  0  0  0  0  0  0
    6.8981    5.8380    0.0000 C   0  0  0  0  0  0  0  0  0  0  0  0
    5.8981    4.1060    0.0000 C   0  0  0  0  0  0  0  0  0  0  0  0
   13.3263   -1.0280    0.0000 C   0  0  0  0  0  0  0  0  0  0  0  0
   12.4603    0.4720    0.0000 C   0  0  0  0  0  0  0  0  0  0  0  0
    8.9962   -4.5280    0.0000 C   0  0  0  0  0  0  0  0  0  0  0  0
   13.3263   -0.0280    0.0000 C   0  0  0  0  0  0  0  0  0  0  0  0
    6.3981   -3.0280    0.0000 C   0  0  0  0  0  0  0  0  0  0  0  0
    5.5321   -2.5280    0.0000 C   0  0  0  0  0  0  0  0  0  0  0  0
    5.5321   -1.5280    0.0000 C   0  0  0  0  0  0  0  0  0  0  0  0
    3.8000   -2.5280    0.0000 C   0  0  0  0  0  0  0  0  0  0  0  0
    3.8000   -1.5280    0.0000 C   0  0  0  0  0  0  0  0  0  0  0  0
    4.6660   -1.0280    0.0000 C   0  0  0  0  0  0  0  0  0  0  0  0
    2.9061   -3.0627    0.0000 C   0  0  0  0  0  0  0  0  0  0  0  0
    2.9061   -0.9934    0.0000 C   0  0  0  0  0  0  0  0  0  0  0  0
    2.0000   -2.5488    0.0000 C   0  0  0  0  0  0  0  0  0  0  0  0
    2.0000   -1.5072    0.0000 C   0  0  0  0  0  0  0  0  0  0  0  0
    9.3252   -0.7180    0.0000 H   0  0  0  0  0  0  0  0  0  0  0  0
    9.8622    0.5920    0.0000 H   0  0  0  0  0  0  0  0  0  0  0  0
   10.3297   -2.0030    0.0000 H   0  0  0  0  0  0  0  0  0  0  0  0
   11.1267   -2.0030    0.0000 H   0  0  0  0  0  0  0  0  0  0  0  0
    8.4592   -1.2180    0.0000 H   0  0  0  0  0  0  0  0  0  0  0  0
    8.3856    0.5796    0.0000 H   0  0  0  0  0  0  0  0  0  0  0  0
    8.7841   -0.1106    0.0000 H   0  0  0  0  0  0  0  0  0  0  0  0
    7.5932   -3.3380    0.0000 H   0  0  0  0  0  0  0  0  0  0  0  0
   10.7282    1.0920    0.0000 H   0  0  0  0  0  0  0  0  0  0  0  0
    7.5196   -3.9204    0.0000 H   0  0  0  0  0  0  0  0  0  0  0  0
    7.9181   -4.6106    0.0000 H   0  0  0  0  0  0  0  0  0  0  0  0
    7.5196    2.0796    0.0000 H   0  0  0  0  0  0  0  0  0  0  0  0
    7.9181    1.3894    0.0000 H   0  0  0  0  0  0  0  0  0  0  0  0
    8.7407    2.8643    0.0000 H   0  0  0  0  0  0  0  0  0  0  0  0
    8.3422    3.5546    0.0000 H   0  0  0  0  0  0  0  0  0  0  0  0
   12.4603   -2.1480    0.0000 H   0  0  0  0  0  0  0  0  0  0  0  0
   11.0573    0.2820    0.0000 H   0  0  0  0  0  0  0  0  0  0  0  0
    7.8010    4.7820    0.0000 H   0  0  0  0  0  0  0  0  0  0  0  0
    7.2641   -1.9080    0.0000 H   0  0  0  0  0  0  0  0  0  0  0  0
    5.8421    6.0089    0.0000 H   0  0  0  0  0  0  0  0  0  0  0  0
    4.9951    5.7820    0.0000 H   0  0  0  0  0  0  0  0  0  0  0  0
    5.2221    4.9351    0.0000 H   0  0  0  0  0  0  0  0  0  0  0  0
    7.4350    5.5280    0.0000 H   0  0  0  0  0  0  0  0  0  0  0  0
    7.2081    6.3750    0.0000 H   0  0  0  0  0  0  0  0  0  0  0  0
    6.3612    6.1480    0.0000 H   0  0  0  0  0  0  0  0  0  0  0  0
    5.3612    4.4160    0.0000 H   0  0  0  0  0  0  0  0  0  0  0  0
    5.5881    3.5690    0.0000 H   0  0  0  0  0  0  0  0  0  0  0  0
    6.4350    3.7960    0.0000 H   0  0  0  0  0  0  0  0  0  0  0  0
   13.8632   -1.3380    0.0000 H   0  0  0  0  0  0  0  0  0  0  0  0
   12.4603    1.0920    0.0000 H   0  0  0  0  0  0  0  0  0  0  0  0
   13.8632    0.2820    0.0000 H   0  0  0  0  0  0  0  0  0  0  0  0
    9.5331   -5.8380    0.0000 H   0  0  0  0  0  0  0  0  0  0  0  0
    8.4592   -5.8380    0.0000 H   0  0  0  0  0  0  0  0  0  0  0  0
    6.0690   -1.2180    0.0000 H   0  0  0  0  0  0  0  0  0  0  0  0
    4.6660   -0.4080    0.0000 H   0  0  0  0  0  0  0  0  0  0  0  0
    2.9132   -3.6826    0.0000 H   0  0  0  0  0  0  0  0  0  0  0  0
    2.9132   -0.3734    0.0000 H   0  0  0  0  0  0  0  0  0  0  0  0
    1.4643   -2.8609    0.0000 H   0  0  0  0  0  0  0  0  0  0  0  0
    1.4643   -1.1951    0.0000 H   0  0  0  0  0  0  0  0  0  0  0  0
  1 15  1  0  0  0  0
  1 21  1  0  0  0  0
 13  2  1  6  0  0  0
  2 51  1  0  0  0  0
  3 18  2  0  0  0  0
  4 25  2  0  0  0  0
  5 31  2  0  0  0  0
  6 33  2  0  0  0  0
 12  7  1  6  0  0  0
  7 18  1  0  0  0  0
  7 47  1  0  0  0  0
  8 19  1  0  0  0  0
  8 25  1  0  0  0  0
  8 60  1  0  0  0  0
 17  9  1  6  0  0  0
  9 33  1  0  0  0  0
  9 61  1  0  0  0  0
 10 31  1  0  0  0  0
 10 74  1  0  0  0  0
 10 75  1  0  0  0  0
 11 34  2  0  0  0  0
 11 36  1  0  0  0  0
 12 13  1  0  0  0  0
 12 14  1  0  0  0  0
 12 43  1  0  0  0  0
 13 15  1  0  0  0  0
 13 44  1  0  0  0  0
 14 16  1  0  0  0  0
 14 45  1  0  0  0  0
 14 46  1  0  0  0  0
 15 48  1  0  0  0  0
 15 49  1  0  0  0  0
 16 23  2  0  0  0  0
 16 24  1  0  0  0  0
 17 18  1  0  0  0  0
 17 20  1  0  0  0  0
 17 50  1  0  0  0  0
 19 26  1  0  0  0  0
 19 27  1  0  0  0  0
 19 28  1  0  0  0  0
 20 31  1  0  0  0  0
 20 52  1  0  0  0  0
 20 53  1  0  0  0  0
 21 22  1  0  0  0  0
 21 54  1  0  0  0  0
 21 55  1  0  0  0  0
 22 25  1  0  0  0  0
 22 56  1  0  0  0  0
 22 57  1  0  0  0  0
 23 29  1  0  0  0  0
 23 58  1  0  0  0  0
 24 30  2  0  0  0  0
 24 59  1  0  0  0  0
 26 62  1  0  0  0  0
 26 63  1  0  0  0  0
 26 64  1  0  0  0  0
 27 65  1  0  0  0  0
 27 66  1  0  0  0  0
 27 67  1  0  0  0  0
 28 68  1  0  0  0  0
 28 69  1  0  0  0  0
 28 70  1  0  0  0  0
 29 32  2  0  0  0  0
 29 71  1  0  0  0  0
 30 32  1  0  0  0  0
 30 72  1  0  0  0  0
 32 73  1  0  0  0  0
 33 34  1  0  0  0  0
 34 35  1  0  0  0  0
 35 38  2  0  0  0  0
 35 76  1  0  0  0  0
 36 37  1  0  0  0  0
 36 39  2  0  0  0  0
 37 38  1  0  0  0  0
 37 40  2  0  0  0  0
 38 77  1  0  0  0  0
 39 41  1  0  0  0  0
 39 78  1  0  0  0  0
 40 42  1  0  0  0  0
 40 79  1  0  0  0  0
 41 42  2  0  0  0  0
 41 80  1  0  0  0  0
 42 81  1  0  0  0  0
M  END
> <PUBCHEM_COMPOUND_CID>
503067
> <PUBCHEM_COMPOUND_CANONICALIZED>
1
> <PUBCHEM_CACTVS_COMPLEXITY>
907
> <PUBCHEM_CACTVS_HBOND_ACCEPTOR>
7
> <PUBCHEM_CACTVS_HBOND_DONOR>
5
> <PUBCHEM_CACTVS_ROTATABLE_BOND>
15
> <PUBCHEM_CACTVS_SUBSKEYS>
AAADcfB7uABAAAAAAAAAAAAAAAAAAAAAAAA8YIAAAAAAAACx9AAAHgQQCAAADLzl3gaywPLIEgioAyVyVACCgCAnAjAImKG4ZNgKcPrg1bGUYQhklgD4yYedyKCOAAAAAAACAAAAAAAAAAQAAAAAAAAAAA==
> <PUBCHEM_IUPAC_OPENEYE_NAME>
(2S)-N-[(1S,2R)-1-benzyl-3-[3-(tert-butylamino)-3-oxo-propyl]sulfanyl-2-hydroxy-propyl]-2-(quinoline-2-carbonylamino)butanediamide
> <PUBCHEM_IUPAC_CAS_NAME>
(2S)-N-[(2S,3R)-4-[[3-(tert-butylamino)-3-oxopropyl]thio]-3-hydroxy-1-phenylbutan-2-yl]-2-[[oxo(2-quinolinyl)methyl]amino]butanediamide
> <PUBCHEM_IUPAC_NAME_MARKUP>
(2<I>S</I>)-<I>N</I>-[(2<I>S</I>,3<I>R</I>)-4-[3-(<I>tert</I>-butylamino)-3-oxopropyl]sulfanyl-3-hydroxy-1-phenylbutan-2-yl]-2-(quinoline-2-carbonylamino)butanediamide
> <PUBCHEM_IUPAC_NAME>
(2S)-N-[(2S,3R)-4-[3-(tert-butylamino)-3-oxopropyl]sulfanyl-3-hydroxy-1-phenylbutan-2-yl]-2-(quinoline-2-carbonylamino)butanediamide
> <PUBCHEM_IUPAC_SYSTEMATIC_NAME>
(2S)-N-[(2S,3R)-4-[3-(tert-butylamino)-3-oxidanylidene-propyl]sulfanyl-3-oxidanyl-1-phenyl-butan-2-yl]-2-(quinolin-2-ylcarbonylamino)butanediamide
> <PUBCHEM_IUPAC_TRADITIONAL_NAME>
(2S)-N-[(1S,2R)-1-benzyl-3-[[3-(tert-butylamino)-3-keto-propyl]thio]-2-hydroxy-propyl]-2-(quinaldoylamino)succinamide
> <PUBCHEM_IUPAC_INCHI>
InChI=1S/C31H39N5O5S/c1-31(2,3)36-28(39)15-16-42-19-26(37)24(17-20-9-5-4-6-10-20)34-30(41)25(18-27(32)38)35-29(40)23-14-13-21-11-7-8-12-22(21)33-23/h4-14,24-26,37H,15-19H2,1-3H3,(H2,32,38)(H,34,41)(H,35,40)(H,36,39)/t24-,25-,26-/m0/s1
> <PUBCHEM_IUPAC_INCHIKEY>
ZTVBIWHZUPGELY-GSDHBNRESA-N
> <PUBCHEM_XLOGP3_AA>
2.3
> <PUBCHEM_EXACT_MASS>
593.26719054
> <PUBCHEM_MOLECULAR_FORMULA>
C31H39N5O5S
> <PUBCHEM_MOLECULAR_WEIGHT>
593.7
> <PUBCHEM_OPENEYE_CAN_SMILES>
CC(C)(C)NC(=O)CCSCC(C(CC1=CC=CC=C1)NC(=O)C(CC(=O)N)NC(=O)C2=NC3=CC=CC=C3C=C2)O
> <PUBCHEM_OPENEYE_ISO_SMILES>
CC(C)(C)NC(=O)CCSC[C@@H]([C@H](CC1=CC=CC=C1)NC(=O)[C@H](CC(=O)N)NC(=O)C2=NC3=CC=CC=C3C=C2)O
> <PUBCHEM_CACTVS_TPSA>
189
> <PUBCHEM_MONOISOTOPIC_WEIGHT>
593.26719054
> <PUBCHEM_TOTAL_CHARGE>
0
> <PUBCHEM_HEAVY_ATOM_COUNT>
42
> <PUBCHEM_ATOM_DEF_STEREO_COUNT>
3
> <PUBCHEM_ATOM_UDEF_STEREO_COUNT>
0
> <PUBCHEM_BOND_DEF_STEREO_COUNT>
0
> <PUBCHEM_BOND_UDEF_STEREO_COUNT>
0
> <PUBCHEM_ISOTOPIC_ATOM_COUNT>
0
> <PUBCHEM_COMPONENT_COUNT>
1
> <PUBCHEM_CACTVS_TAUTO_COUNT>
-1
> <PUBCHEM_COORDINATE_TYPE>
1
5
255
> <PUBCHEM_BONDANNOTATIONS>
11  34  8
11  36  8
16  23  8
16  24  8
13  2  6
23  29  8
24  30  8
29  32  8
30  32  8
34  35  8
35  38  8
36  37  8
36  39  8
37  38  8
37  40  8
39  41  8
40  42  8
41  42  8
12  7  6
17  9  6
$$$$
