503000
  -OEChem-10302200282D
115116  0     1  0  0  0  0  0999 V2000
    7.1962    5.5950    0.0000 O   0  0  0  0  0  0  0  0  0  0  0  0
    5.4641    2.5950    0.0000 O   0  0  0  0  0  0  0  0  0  0  0  0
    6.3301   -0.9050    0.0000 O   0  0  0  0  0  0  0  0  0  0  0  0
    8.0622    5.0950    0.0000 O   0  0  0  0  0  0  0  0  0  0  0  0
    2.8660   -1.9050    0.0000 O   0  0  0  0  0  0  0  0  0  0  0  0
   11.5263    4.0950    0.0000 O   0  0  0  0  0  0  0  0  0  0  0  0
   10.6603    6.5950    0.0000 O   0  0  0  0  0  0  0  0  0  0  0  0
   11.5263    5.0950    0.0000 O   0  0  0  0  0  0  0  0  0  0  0  0
    5.4641    5.5950    0.0000 N   0  0  0  0  0  0  0  0  0  0  0  0
    5.4641    0.5950    0.0000 N   0  0  0  0  0  0  0  0  0  0  0  0
    7.1962    2.5950    0.0000 N   0  0  0  0  0  0  0  0  0  0  0  0
    4.5981   -1.9050    0.0000 N   0  0  0  0  0  0  0  0  0  0  0  0
    8.9282    3.5950    0.0000 N   0  0  0  0  0  0  0  0  0  0  0  0
   10.6603    2.5950    0.0000 N   0  0  0  0  0  0  0  0  0  0  0  0
    6.3301    1.0950    0.0000 C   0  0  1  0  0  0  0  0  0  0  0  0
    5.3596    6.5895    0.0000 C   0  0  0  0  0  0  0  0  0  0  0  0
    4.5506    5.1883    0.0000 C   0  0  0  0  0  0  0  0  0  0  0  0
    7.1962    0.5950    0.0000 C   0  0  2  0  0  0  0  0  0  0  0  0
    4.3814    6.7974    0.0000 C   0  0  0  0  0  0  0  0  0  0  0  0
    3.8814    5.9314    0.0000 C   0  0  0  0  0  0  0  0  0  0  0  0
    7.1962    3.5950    0.0000 C   0  0  1  0  0  0  0  0  0  0  0  0
    4.5981   -0.9050    0.0000 C   0  0  1  0  0  0  0  0  0  0  0  0
    6.3301    4.0950    0.0000 C   0  0  0  0  0  0  0  0  0  0  0  0
    6.3301    5.0950    0.0000 C   0  0  0  0  0  0  0  0  0  0  0  0
    3.7320   -0.4050    0.0000 C   0  0  0  0  0  0  0  0  0  0  0  0
    8.0622    1.0950    0.0000 C   0  0  0  0  0  0  0  0  0  0  0  0
    6.3301    2.0950    0.0000 C   0  0  0  0  0  0  0  0  0  0  0  0
    5.4641   -0.4050    0.0000 C   0  0  0  0  0  0  0  0  0  0  0  0
    7.1962   -0.4050    0.0000 C   0  0  0  0  0  0  0  0  0  0  0  0
   12.3923    0.5950    0.0000 C   0  0  0  0  0  0  0  0  0  0  0  0
    8.0622    4.0950    0.0000 C   0  0  0  0  0  0  0  0  0  0  0  0
   11.5263    1.0950    0.0000 C   0  0  0  0  0  0  0  0  0  0  0  0
    3.7320    0.5950    0.0000 C   0  0  0  0  0  0  0  0  0  0  0  0
    2.8660   -0.9050    0.0000 C   0  0  0  0  0  0  0  0  0  0  0  0
    8.9282    0.5950    0.0000 C   0  0  0  0  0  0  0  0  0  0  0  0
    9.7942    4.0950    0.0000 C   0  0  2  0  0  0  0  0  0  0  0  0
   11.5263    2.0950    0.0000 C   0  0  0  0  0  0  0  0  0  0  0  0
   13.2583    0.0950    0.0000 C   0  0  0  0  0  0  0  0  0  0  0  0
   11.8923   -0.2710    0.0000 C   0  0  0  0  0  0  0  0  0  0  0  0
   12.8923    1.4610    0.0000 C   0  0  0  0  0  0  0  0  0  0  0  0
    3.7320   -2.4050    0.0000 C   0  0  0  0  0  0  0  0  0  0  0  0
    5.4641   -2.4050    0.0000 C   0  0  0  0  0  0  0  0  0  0  0  0
   10.6603    3.5950    0.0000 C   0  0  0  0  0  0  0  0  0  0  0  0
    3.7320   -3.4050    0.0000 C   0  0  0  0  0  0  0  0  0  0  0  0
    9.7942    5.0950    0.0000 C   0  0  0  0  0  0  0  0  0  0  0  0
    2.8660   -3.9050    0.0000 C   0  0  0  0  0  0  0  0  0  0  0  0
   10.6603    5.5950    0.0000 C   0  0  0  0  0  0  0  0  0  0  0  0
    2.8660   -4.9050    0.0000 C   0  0  0  0  0  0  0  0  0  0  0  0
    3.7320   -5.4050    0.0000 C   0  0  0  0  0  0  0  0  0  0  0  0
    2.0000   -5.4050    0.0000 C   0  0  0  0  0  0  0  0  0  0  0  0
    3.7320   -6.4050    0.0000 C   0  0  0  0  0  0  0  0  0  0  0  0
    2.0000   -6.4050    0.0000 C   0  0  0  0  0  0  0  0  0  0  0  0
    2.8660   -6.9050    0.0000 C   0  0  0  0  0  0  0  0  0  0  0  0
    5.7932    1.4050    0.0000 H   0  0  0  0  0  0  0  0  0  0  0  0
    6.6592    0.2850    0.0000 H   0  0  0  0  0  0  0  0  0  0  0  0
    5.9796    6.5895    0.0000 H   0  0  0  0  0  0  0  0  0  0  0  0
    5.4244    7.2061    0.0000 H   0  0  0  0  0  0  0  0  0  0  0  0
    4.0490    4.8238    0.0000 H   0  0  0  0  0  0  0  0  0  0  0  0
    4.8606    4.6513    0.0000 H   0  0  0  0  0  0  0  0  0  0  0  0
    4.5730    7.3871    0.0000 H   0  0  0  0  0  0  0  0  0  0  0  0
    3.8150    7.0496    0.0000 H   0  0  0  0  0  0  0  0  0  0  0  0
    3.3798    6.2958    0.0000 H   0  0  0  0  0  0  0  0  0  0  0  0
    3.4666    5.4707    0.0000 H   0  0  0  0  0  0  0  0  0  0  0  0
    6.6592    3.2850    0.0000 H   0  0  0  0  0  0  0  0  0  0  0  0
    5.1350   -1.2150    0.0000 H   0  0  0  0  0  0  0  0  0  0  0  0
    5.7196    4.2027    0.0000 H   0  0  0  0  0  0  0  0  0  0  0  0
    6.1181    3.5124    0.0000 H   0  0  0  0  0  0  0  0  0  0  0  0
    3.7320   -1.0250    0.0000 H   0  0  0  0  0  0  0  0  0  0  0  0
    8.4607    1.5700    0.0000 H   0  0  0  0  0  0  0  0  0  0  0  0
    7.6636    1.5700    0.0000 H   0  0  0  0  0  0  0  0  0  0  0  0
    4.9272    0.9050    0.0000 H   0  0  0  0  0  0  0  0  0  0  0  0
    7.7331    2.2850    0.0000 H   0  0  0  0  0  0  0  0  0  0  0  0
    6.5762   -0.4050    0.0000 H   0  0  0  0  0  0  0  0  0  0  0  0
    7.1962   -1.0250    0.0000 H   0  0  0  0  0  0  0  0  0  0  0  0
    7.8162   -0.4050    0.0000 H   0  0  0  0  0  0  0  0  0  0  0  0
   10.9157    1.2027    0.0000 H   0  0  0  0  0  0  0  0  0  0  0  0
   11.3142    0.5124    0.0000 H   0  0  0  0  0  0  0  0  0  0  0  0
    4.3520    0.5950    0.0000 H   0  0  0  0  0  0  0  0  0  0  0  0
    3.7320    1.2150    0.0000 H   0  0  0  0  0  0  0  0  0  0  0  0
    3.1120    0.5950    0.0000 H   0  0  0  0  0  0  0  0  0  0  0  0
    2.5560   -0.3681    0.0000 H   0  0  0  0  0  0  0  0  0  0  0  0
    2.3291   -1.2150    0.0000 H   0  0  0  0  0  0  0  0  0  0  0  0
    3.1760   -1.4419    0.0000 H   0  0  0  0  0  0  0  0  0  0  0  0
    8.6182    0.0581    0.0000 H   0  0  0  0  0  0  0  0  0  0  0  0
    9.4651    0.2850    0.0000 H   0  0  0  0  0  0  0  0  0  0  0  0
    9.2382    1.1319    0.0000 H   0  0  0  0  0  0  0  0  0  0  0  0
    9.7942    3.4750    0.0000 H   0  0  0  0  0  0  0  0  0  0  0  0
   12.1369    1.9873    0.0000 H   0  0  0  0  0  0  0  0  0  0  0  0
   11.7383    2.6776    0.0000 H   0  0  0  0  0  0  0  0  0  0  0  0
    8.9282    2.9750    0.0000 H   0  0  0  0  0  0  0  0  0  0  0  0
   12.9483   -0.4419    0.0000 H   0  0  0  0  0  0  0  0  0  0  0  0
   13.7953   -0.2150    0.0000 H   0  0  0  0  0  0  0  0  0  0  0  0
   13.5683    0.6319    0.0000 H   0  0  0  0  0  0  0  0  0  0  0  0
   11.3554    0.0390    0.0000 H   0  0  0  0  0  0  0  0  0  0  0  0
   11.5823   -0.8080    0.0000 H   0  0  0  0  0  0  0  0  0  0  0  0
   12.4292   -0.5810    0.0000 H   0  0  0  0  0  0  0  0  0  0  0  0
   13.4292    1.1510    0.0000 H   0  0  0  0  0  0  0  0  0  0  0  0
   13.2023    1.9980    0.0000 H   0  0  0  0  0  0  0  0  0  0  0  0
   12.3554    1.7710    0.0000 H   0  0  0  0  0  0  0  0  0  0  0  0
    5.1541   -2.9419    0.0000 H   0  0  0  0  0  0  0  0  0  0  0  0
    6.0010   -2.7150    0.0000 H   0  0  0  0  0  0  0  0  0  0  0  0
    5.7741   -1.8681    0.0000 H   0  0  0  0  0  0  0  0  0  0  0  0
   10.1233    2.2850    0.0000 H   0  0  0  0  0  0  0  0  0  0  0  0
    3.9441   -3.9876    0.0000 H   0  0  0  0  0  0  0  0  0  0  0  0
    4.3426   -3.2973    0.0000 H   0  0  0  0  0  0  0  0  0  0  0  0
    9.5822    5.6776    0.0000 H   0  0  0  0  0  0  0  0  0  0  0  0
    9.1836    4.9873    0.0000 H   0  0  0  0  0  0  0  0  0  0  0  0
    2.6540   -3.3224    0.0000 H   0  0  0  0  0  0  0  0  0  0  0  0
    2.2554   -4.0127    0.0000 H   0  0  0  0  0  0  0  0  0  0  0  0
    4.2690   -5.0950    0.0000 H   0  0  0  0  0  0  0  0  0  0  0  0
    1.4631   -5.0950    0.0000 H   0  0  0  0  0  0  0  0  0  0  0  0
   11.1972    6.9050    0.0000 H   0  0  0  0  0  0  0  0  0  0  0  0
    4.2690   -6.7150    0.0000 H   0  0  0  0  0  0  0  0  0  0  0  0
    1.4631   -6.7150    0.0000 H   0  0  0  0  0  0  0  0  0  0  0  0
    2.8660   -7.5250    0.0000 H   0  0  0  0  0  0  0  0  0  0  0  0
  1 24  2  0  0  0  0
  2 27  2  0  0  0  0
  3 28  2  0  0  0  0
  4 31  2  0  0  0  0
  5 41  2  0  0  0  0
  6 43  2  0  0  0  0
  7 47  1  0  0  0  0
  7112  1  0  0  0  0
  8 47  2  0  0  0  0
  9 16  1  0  0  0  0
  9 17  1  0  0  0  0
  9 24  1  0  0  0  0
 15 10  1  6  0  0  0
 10 28  1  0  0  0  0
 10 71  1  0  0  0  0
 21 11  1  1  0  0  0
 11 27  1  0  0  0  0
 11 72  1  0  0  0  0
 22 12  1  1  0  0  0
 12 41  1  0  0  0  0
 12 42  1  0  0  0  0
 13 31  1  0  0  0  0
 36 13  1  1  0  0  0
 13 90  1  0  0  0  0
 14 37  1  0  0  0  0
 14 43  1  0  0  0  0
 14103  1  0  0  0  0
 15 18  1  0  0  0  0
 15 27  1  0  0  0  0
 15 54  1  0  0  0  0
 16 19  1  0  0  0  0
 16 56  1  0  0  0  0
 16 57  1  0  0  0  0
 17 20  1  0  0  0  0
 17 58  1  0  0  0  0
 17 59  1  0  0  0  0
 18 26  1  0  0  0  0
 18 29  1  6  0  0  0
 18 55  1  0  0  0  0
 19 20  1  0  0  0  0
 19 60  1  0  0  0  0
 19 61  1  0  0  0  0
 20 62  1  0  0  0  0
 20 63  1  0  0  0  0
 21 23  1  0  0  0  0
 21 31  1  0  0  0  0
 21 64  1  0  0  0  0
 22 25  1  0  0  0  0
 22 28  1  0  0  0  0
 22 65  1  0  0  0  0
 23 24  1  0  0  0  0
 23 66  1  0  0  0  0
 23 67  1  0  0  0  0
 25 33  1  0  0  0  0
 25 34  1  0  0  0  0
 25 68  1  0  0  0  0
 26 35  1  0  0  0  0
 26 69  1  0  0  0  0
 26 70  1  0  0  0  0
 29 73  1  0  0  0  0
 29 74  1  0  0  0  0
 29 75  1  0  0  0  0
 30 32  1  0  0  0  0
 30 38  1  0  0  0  0
 30 39  1  0  0  0  0
 30 40  1  0  0  0  0
 32 37  1  0  0  0  0
 32 76  1  0  0  0  0
 32 77  1  0  0  0  0
 33 78  1  0  0  0  0
 33 79  1  0  0  0  0
 33 80  1  0  0  0  0
 34 81  1  0  0  0  0
 34 82  1  0  0  0  0
 34 83  1  0  0  0  0
 35 84  1  0  0  0  0
 35 85  1  0  0  0  0
 35 86  1  0  0  0  0
 36 43  1  0  0  0  0
 36 45  1  0  0  0  0
 36 87  1  0  0  0  0
 37 88  1  0  0  0  0
 37 89  1  0  0  0  0
 38 91  1  0  0  0  0
 38 92  1  0  0  0  0
 38 93  1  0  0  0  0
 39 94  1  0  0  0  0
 39 95  1  0  0  0  0
 39 96  1  0  0  0  0
 40 97  1  0  0  0  0
 40 98  1  0  0  0  0
 40 99  1  0  0  0  0
 41 44  1  0  0  0  0
 42100  1  0  0  0  0
 42101  1  0  0  0  0
 42102  1  0  0  0  0
 44 46  1  0  0  0  0
 44104  1  0  0  0  0
 44105  1  0  0  0  0
 45 47  1  0  0  0  0
 45106  1  0  0  0  0
 45107  1  0  0  0  0
 46 48  1  0  0  0  0
 46108  1  0  0  0  0
 46109  1  0  0  0  0
 48 49  2  0  0  0  0
 48 50  1  0  0  0  0
 49 51  1  0  0  0  0
 49110  1  0  0  0  0
 50 52  2  0  0  0  0
 50111  1  0  0  0  0
 51 53  2  0  0  0  0
 51113  1  0  0  0  0
 52 53  1  0  0  0  0
 52114  1  0  0  0  0
 53115  1  0  0  0  0
M  END
> <PUBCHEM_COMPOUND_CID>
503000
> <PUBCHEM_COMPOUND_CANONICALIZED>
1
> <PUBCHEM_CACTVS_COMPLEXITY>
1250
> <PUBCHEM_CACTVS_HBOND_ACCEPTOR>
8
> <PUBCHEM_CACTVS_HBOND_DONOR>
5
> <PUBCHEM_CACTVS_ROTATABLE_BOND>
21
> <PUBCHEM_CACTVS_SUBSKEYS>
AAADcfB/vAAAAAAAAAAAAAAAAAAAAWAAAAAwAAAAAAAAAAABAAAAHgAQCAAADyjBmAQyCIPAAgCIAiHSGAACAAAgAAAIiIGIAIgIYDqA0TCUYAAmlgCIiAc/iICPAAAAAAAAAAAAAAAAAAAAAAAAAAAAAA==
> <PUBCHEM_IUPAC_OPENEYE_NAME>
(3S)-4-(3,3-dimethylbutylamino)-3-[[(2S)-2-[[(2S,3S)-3-methyl-2-[[(2S)-3-methyl-2-[methyl(3-phenylpropanoyl)amino]butanoyl]amino]pentanoyl]amino]-4-oxo-4-pyrrolidin-1-yl-butanoyl]amino]-4-oxo-butanoic acid
> <PUBCHEM_IUPAC_CAS_NAME>
(3S)-4-(3,3-dimethylbutylamino)-3-[[(2S)-2-[[(2S,3S)-3-methyl-2-[[(2S)-3-methyl-2-[methyl-(1-oxo-3-phenylpropyl)amino]-1-oxobutyl]amino]-1-oxopentyl]amino]-1,4-dioxo-4-(1-pyrrolidinyl)butyl]amino]-4-oxobutanoic acid
> <PUBCHEM_IUPAC_NAME_MARKUP>
(3<I>S</I>)-4-(3,3-dimethylbutylamino)-3-[[(2<I>S</I>)-2-[[(2<I>S</I>,3<I>S</I>)-3-methyl-2-[[(2<I>S</I>)-3-methyl-2-[methyl(3-phenylpropanoyl)amino]butanoyl]amino]pentanoyl]amino]-4-oxo-4-pyrrolidin-1-ylbutanoyl]amino]-4-oxobutanoic acid
> <PUBCHEM_IUPAC_NAME>
(3S)-4-(3,3-dimethylbutylamino)-3-[[(2S)-2-[[(2S,3S)-3-methyl-2-[[(2S)-3-methyl-2-[methyl(3-phenylpropanoyl)amino]butanoyl]amino]pentanoyl]amino]-4-oxo-4-pyrrolidin-1-ylbutanoyl]amino]-4-oxobutanoic acid
> <PUBCHEM_IUPAC_SYSTEMATIC_NAME>
(3S)-4-(3,3-dimethylbutylamino)-3-[[(2S)-2-[[(2S,3S)-3-methyl-2-[[(2S)-3-methyl-2-[methyl(3-phenylpropanoyl)amino]butanoyl]amino]pentanoyl]amino]-4-oxidanylidene-4-pyrrolidin-1-yl-butanoyl]amino]-4-oxidanylidene-butanoic acid
> <PUBCHEM_IUPAC_TRADITIONAL_NAME>
(3S)-4-(3,3-dimethylbutylamino)-3-[[(2S)-2-[[(2S,3S)-2-[[(2S)-2-[hydrocinnamoyl(methyl)amino]-3-methyl-butanoyl]amino]-3-methyl-pentanoyl]amino]-4-keto-4-pyrrolidino-butanoyl]amino]-4-keto-butyric acid
> <PUBCHEM_IUPAC_INCHI>
InChI=1S/C39H62N6O8/c1-9-26(4)33(43-38(53)34(25(2)3)44(8)30(46)18-17-27-15-11-10-12-16-27)37(52)42-28(23-31(47)45-21-13-14-22-45)36(51)41-29(24-32(48)49)35(50)40-20-19-39(5,6)7/h10-12,15-16,25-26,28-29,33-34H,9,13-14,17-24H2,1-8H3,(H,40,50)(H,41,51)(H,42,52)(H,43,53)(H,48,49)/t26-,28-,29-,33-,34-/m0/s1
> <PUBCHEM_IUPAC_INCHIKEY>
RIANDNQNJCXVOI-YTYIDKSRSA-N
> <PUBCHEM_XLOGP3_AA>
3.7
> <PUBCHEM_EXACT_MASS>
742.46291296
> <PUBCHEM_MOLECULAR_FORMULA>
C39H62N6O8
> <PUBCHEM_MOLECULAR_WEIGHT>
742.9
> <PUBCHEM_OPENEYE_CAN_SMILES>
CCC(C)C(C(=O)NC(CC(=O)N1CCCC1)C(=O)NC(CC(=O)O)C(=O)NCCC(C)(C)C)NC(=O)C(C(C)C)N(C)C(=O)CCC2=CC=CC=C2
> <PUBCHEM_OPENEYE_ISO_SMILES>
CC[C@H](C)[C@@H](C(=O)N[C@@H](CC(=O)N1CCCC1)C(=O)N[C@@H](CC(=O)O)C(=O)NCCC(C)(C)C)NC(=O)[C@H](C(C)C)N(C)C(=O)CCC2=CC=CC=C2
> <PUBCHEM_CACTVS_TPSA>
194
> <PUBCHEM_MONOISOTOPIC_WEIGHT>
742.46291296
> <PUBCHEM_TOTAL_CHARGE>
0
> <PUBCHEM_HEAVY_ATOM_COUNT>
53
> <PUBCHEM_ATOM_DEF_STEREO_COUNT>
5
> <PUBCHEM_ATOM_UDEF_STEREO_COUNT>
0
> <PUBCHEM_BOND_DEF_STEREO_COUNT>
0
> <PUBCHEM_BOND_UDEF_STEREO_COUNT>
0
> <PUBCHEM_ISOTOPIC_ATOM_COUNT>
0
> <PUBCHEM_COMPONENT_COUNT>
1
> <PUBCHEM_CACTVS_TAUTO_COUNT>
-1
> <PUBCHEM_COORDINATE_TYPE>
1
5
255
> <PUBCHEM_BONDANNOTATIONS>
15  10  6
21  11  5
22  12  5
36  13  5
18  29  6
48  49  8
48  50  8
49  51  8
50  52  8
51  53  8
52  53  8
$$$$
