503096
  -OEChem-10302200282D
 81 83  0     1  0  0  0  0  0999 V2000
    8.9962    1.6550    0.0000 O   0  0  0  0  0  0  0  0  0  0  0  0
   10.7282    2.6550    0.0000 O   0  0  0  0  0  0  0  0  0  0  0  0
    9.8622   -1.8450    0.0000 O   0  0  0  0  0  0  0  0  0  0  0  0
   11.5942    1.1550    0.0000 O   0  0  0  0  0  0  0  0  0  0  0  0
    9.8622   -2.8450    0.0000 O   0  0  0  0  0  0  0  0  0  0  0  0
    6.3981   -2.8450    0.0000 O   0  0  0  0  0  0  0  0  0  0  0  0
    8.9962   -0.3450    0.0000 N   0  0  0  0  0  0  0  0  0  0  0  0
    7.2641   -1.3450    0.0000 N   0  0  0  0  0  0  0  0  0  0  0  0
   13.3263    1.1550    0.0000 N   0  0  0  0  0  0  0  0  0  0  0  0
    8.9962   -4.3450    0.0000 N   0  0  0  0  0  0  0  0  0  0  0  0
    4.6660   -1.8450    0.0000 N   0  0  0  0  0  0  0  0  0  0  0  0
    9.8622    0.1550    0.0000 C   0  0  2  0  0  0  0  0  0  0  0  0
    9.8622    1.1550    0.0000 C   0  0  1  0  0  0  0  0  0  0  0  0
   10.7282   -0.3450    0.0000 C   0  0  0  0  0  0  0  0  0  0  0  0
   11.5942    0.1550    0.0000 C   0  0  0  0  0  0  0  0  0  0  0  0
   10.7282    1.6550    0.0000 C   0  0  0  0  0  0  0  0  0  0  0  0
    8.9962   -1.3450    0.0000 C   0  0  0  0  0  0  0  0  0  0  0  0
    8.1301   -1.8450    0.0000 C   0  0  2  0  0  0  0  0  0  0  0  0
   12.4603   -0.3450    0.0000 C   0  0  0  0  0  0  0  0  0  0  0  0
    8.1301   -2.8450    0.0000 C   0  0  0  0  0  0  0  0  0  0  0  0
   14.1923    1.6550    0.0000 C   0  0  0  0  0  0  0  0  0  0  0  0
   11.5942    3.1550    0.0000 C   0  0  0  0  0  0  0  0  0  0  0  0
   12.4603    2.6550    0.0000 C   0  0  0  0  0  0  0  0  0  0  0  0
   15.0583    2.1550    0.0000 C   0  0  0  0  0  0  0  0  0  0  0  0
   14.6923    0.7890    0.0000 C   0  0  0  0  0  0  0  0  0  0  0  0
   13.6923    2.5210    0.0000 C   0  0  0  0  0  0  0  0  0  0  0  0
   12.4603    1.6550    0.0000 C   0  0  0  0  0  0  0  0  0  0  0  0
    8.9962   -3.3450    0.0000 C   0  0  0  0  0  0  0  0  0  0  0  0
    6.3981   -1.8450    0.0000 C   0  0  0  0  0  0  0  0  0  0  0  0
   11.5942    4.1550    0.0000 C   0  0  0  0  0  0  0  0  0  0  0  0
   13.3263    3.1550    0.0000 C   0  0  0  0  0  0  0  0  0  0  0  0
   12.4603    4.6550    0.0000 C   0  0  0  0  0  0  0  0  0  0  0  0
    5.5321   -1.3450    0.0000 C   0  0  0  0  0  0  0  0  0  0  0  0
   13.3263    4.1550    0.0000 C   0  0  0  0  0  0  0  0  0  0  0  0
    5.5321   -0.3450    0.0000 C   0  0  0  0  0  0  0  0  0  0  0  0
    3.8000   -1.3450    0.0000 C   0  0  0  0  0  0  0  0  0  0  0  0
    3.8000   -0.3450    0.0000 C   0  0  0  0  0  0  0  0  0  0  0  0
    4.6660    0.1550    0.0000 C   0  0  0  0  0  0  0  0  0  0  0  0
    2.9061   -1.8797    0.0000 C   0  0  0  0  0  0  0  0  0  0  0  0
    2.9061    0.1897    0.0000 C   0  0  0  0  0  0  0  0  0  0  0  0
    2.0000   -1.3658    0.0000 C   0  0  0  0  0  0  0  0  0  0  0  0
    2.0000   -0.3242    0.0000 C   0  0  0  0  0  0  0  0  0  0  0  0
    9.8622   -0.4650    0.0000 H   0  0  0  0  0  0  0  0  0  0  0  0
    9.3252    0.8450    0.0000 H   0  0  0  0  0  0  0  0  0  0  0  0
   10.3297   -0.8199    0.0000 H   0  0  0  0  0  0  0  0  0  0  0  0
   11.1267   -0.8199    0.0000 H   0  0  0  0  0  0  0  0  0  0  0  0
    8.4592   -0.0350    0.0000 H   0  0  0  0  0  0  0  0  0  0  0  0
   11.9928    0.6299    0.0000 H   0  0  0  0  0  0  0  0  0  0  0  0
   11.1957    0.6299    0.0000 H   0  0  0  0  0  0  0  0  0  0  0  0
   10.9403    1.0724    0.0000 H   0  0  0  0  0  0  0  0  0  0  0  0
   11.3388    1.7627    0.0000 H   0  0  0  0  0  0  0  0  0  0  0  0
    7.5932   -2.1550    0.0000 H   0  0  0  0  0  0  0  0  0  0  0  0
   12.1503   -0.8819    0.0000 H   0  0  0  0  0  0  0  0  0  0  0  0
   12.9972   -0.6550    0.0000 H   0  0  0  0  0  0  0  0  0  0  0  0
   12.7703    0.1919    0.0000 H   0  0  0  0  0  0  0  0  0  0  0  0
    8.9962    2.2750    0.0000 H   0  0  0  0  0  0  0  0  0  0  0  0
    7.5196   -2.7373    0.0000 H   0  0  0  0  0  0  0  0  0  0  0  0
    7.9181   -3.4276    0.0000 H   0  0  0  0  0  0  0  0  0  0  0  0
    7.2641   -0.7250    0.0000 H   0  0  0  0  0  0  0  0  0  0  0  0
   13.3263    0.5350    0.0000 H   0  0  0  0  0  0  0  0  0  0  0  0
   15.3683    1.6181    0.0000 H   0  0  0  0  0  0  0  0  0  0  0  0
   15.5953    2.4650    0.0000 H   0  0  0  0  0  0  0  0  0  0  0  0
   14.7483    2.6919    0.0000 H   0  0  0  0  0  0  0  0  0  0  0  0
   14.1554    0.4790    0.0000 H   0  0  0  0  0  0  0  0  0  0  0  0
   15.0023    0.2520    0.0000 H   0  0  0  0  0  0  0  0  0  0  0  0
   15.2292    1.0990    0.0000 H   0  0  0  0  0  0  0  0  0  0  0  0
   14.2292    2.8310    0.0000 H   0  0  0  0  0  0  0  0  0  0  0  0
   13.3823    3.0580    0.0000 H   0  0  0  0  0  0  0  0  0  0  0  0
   13.1554    2.2110    0.0000 H   0  0  0  0  0  0  0  0  0  0  0  0
   11.0573    4.4650    0.0000 H   0  0  0  0  0  0  0  0  0  0  0  0
   13.8632    2.8450    0.0000 H   0  0  0  0  0  0  0  0  0  0  0  0
   12.4603    5.2750    0.0000 H   0  0  0  0  0  0  0  0  0  0  0  0
   13.8632    4.4650    0.0000 H   0  0  0  0  0  0  0  0  0  0  0  0
    9.5331   -4.6550    0.0000 H   0  0  0  0  0  0  0  0  0  0  0  0
    8.4592   -4.6550    0.0000 H   0  0  0  0  0  0  0  0  0  0  0  0
    6.0690   -0.0350    0.0000 H   0  0  0  0  0  0  0  0  0  0  0  0
    4.6660    0.7750    0.0000 H   0  0  0  0  0  0  0  0  0  0  0  0
    2.9132   -2.4996    0.0000 H   0  0  0  0  0  0  0  0  0  0  0  0
    2.9132    0.8096    0.0000 H   0  0  0  0  0  0  0  0  0  0  0  0
    1.4643   -1.6779    0.0000 H   0  0  0  0  0  0  0  0  0  0  0  0
    1.4643   -0.0121    0.0000 H   0  0  0  0  0  0  0  0  0  0  0  0
 13  1  1  6  0  0  0
  1 56  1  0  0  0  0
  2 16  1  0  0  0  0
  2 22  1  0  0  0  0
  3 17  2  0  0  0  0
  4 27  2  0  0  0  0
  5 28  2  0  0  0  0
  6 29  2  0  0  0  0
 12  7  1  6  0  0  0
  7 17  1  0  0  0  0
  7 47  1  0  0  0  0
 18  8  1  6  0  0  0
  8 29  1  0  0  0  0
  8 59  1  0  0  0  0
  9 21  1  0  0  0  0
  9 27  1  0  0  0  0
  9 60  1  0  0  0  0
 10 28  1  0  0  0  0
 10 74  1  0  0  0  0
 10 75  1  0  0  0  0
 11 33  2  0  0  0  0
 11 36  1  0  0  0  0
 12 13  1  0  0  0  0
 12 14  1  0  0  0  0
 12 43  1  0  0  0  0
 13 16  1  0  0  0  0
 13 44  1  0  0  0  0
 14 15  1  0  0  0  0
 14 45  1  0  0  0  0
 14 46  1  0  0  0  0
 15 19  1  0  0  0  0
 15 48  1  0  0  0  0
 15 49  1  0  0  0  0
 16 50  1  0  0  0  0
 16 51  1  0  0  0  0
 17 18  1  0  0  0  0
 18 20  1  0  0  0  0
 18 52  1  0  0  0  0
 19 53  1  0  0  0  0
 19 54  1  0  0  0  0
 19 55  1  0  0  0  0
 20 28  1  0  0  0  0
 20 57  1  0  0  0  0
 20 58  1  0  0  0  0
 21 24  1  0  0  0  0
 21 25  1  0  0  0  0
 21 26  1  0  0  0  0
 22 23  1  0  0  0  0
 22 30  2  0  0  0  0
 23 27  1  0  0  0  0
 23 31  2  0  0  0  0
 24 61  1  0  0  0  0
 24 62  1  0  0  0  0
 24 63  1  0  0  0  0
 25 64  1  0  0  0  0
 25 65  1  0  0  0  0
 25 66  1  0  0  0  0
 26 67  1  0  0  0  0
 26 68  1  0  0  0  0
 26 69  1  0  0  0  0
 29 33  1  0  0  0  0
 30 32  1  0  0  0  0
 30 70  1  0  0  0  0
 31 34  1  0  0  0  0
 31 71  1  0  0  0  0
 32 34  2  0  0  0  0
 32 72  1  0  0  0  0
 33 35  1  0  0  0  0
 34 73  1  0  0  0  0
 35 38  2  0  0  0  0
 35 76  1  0  0  0  0
 36 37  1  0  0  0  0
 36 39  2  0  0  0  0
 37 38  1  0  0  0  0
 37 40  2  0  0  0  0
 38 77  1  0  0  0  0
 39 41  1  0  0  0  0
 39 78  1  0  0  0  0
 40 42  1  0  0  0  0
 40 79  1  0  0  0  0
 41 42  2  0  0  0  0
 41 80  1  0  0  0  0
 42 81  1  0  0  0  0
M  END
> <PUBCHEM_COMPOUND_CID>
503096
> <PUBCHEM_COMPOUND_CANONICALIZED>
1
> <PUBCHEM_CACTVS_COMPLEXITY>
924
> <PUBCHEM_CACTVS_HBOND_ACCEPTOR>
7
> <PUBCHEM_CACTVS_HBOND_DONOR>
5
> <PUBCHEM_CACTVS_ROTATABLE_BOND>
14
> <PUBCHEM_CACTVS_SUBSKEYS>
AAADcfB7uAAAAAAAAAAAAAAAAAAAAAAAAAA8YIAAAAAAAACx9AAAHgAQCAAADLzhngYyxvLIFgCoAyVyVACCiCAnIiAImKG+bNgPdv7E9buWeWjm9hHb6YedyKCOAAAAAAAKAAAAAAAAABQAAAAAAAAAAA==
> <PUBCHEM_IUPAC_OPENEYE_NAME>
(2S)-N-[(1S)-1-[(1S)-2-[2-(tert-butylcarbamoyl)phenoxy]-1-hydroxy-ethyl]butyl]-2-(quinoline-2-carbonylamino)butanediamide
> <PUBCHEM_IUPAC_CAS_NAME>
(2S)-N-[(2S,3S)-1-[2-[(tert-butylamino)-oxomethyl]phenoxy]-2-hydroxyhexan-3-yl]-2-[[oxo(2-quinolinyl)methyl]amino]butanediamide
> <PUBCHEM_IUPAC_NAME_MARKUP>
(2<I>S</I>)-<I>N</I>-[(2<I>S</I>,3<I>S</I>)-1-[2-(<I>tert</I>-butylcarbamoyl)phenoxy]-2-hydroxyhexan-3-yl]-2-(quinoline-2-carbonylamino)butanediamide
> <PUBCHEM_IUPAC_NAME>
(2S)-N-[(2S,3S)-1-[2-(tert-butylcarbamoyl)phenoxy]-2-hydroxyhexan-3-yl]-2-(quinoline-2-carbonylamino)butanediamide
> <PUBCHEM_IUPAC_SYSTEMATIC_NAME>
(2S)-N-[(2S,3S)-1-[2-(tert-butylcarbamoyl)phenoxy]-2-oxidanyl-hexan-3-yl]-2-(quinolin-2-ylcarbonylamino)butanediamide
> <PUBCHEM_IUPAC_TRADITIONAL_NAME>
(2S)-N-[(1S)-1-[(1S)-2-[2-(tert-butylcarbamoyl)phenoxy]-1-hydroxy-ethyl]butyl]-2-(quinaldoylamino)succinamide
> <PUBCHEM_IUPAC_INCHI>
InChI=1S/C31H39N5O6/c1-5-10-22(25(37)18-42-26-14-9-7-12-20(26)28(39)36-31(2,3)4)34-30(41)24(17-27(32)38)35-29(40)23-16-15-19-11-6-8-13-21(19)33-23/h6-9,11-16,22,24-25,37H,5,10,17-18H2,1-4H3,(H2,32,38)(H,34,41)(H,35,40)(H,36,39)/t22-,24-,25+/m0/s1
> <PUBCHEM_IUPAC_INCHIKEY>
JKXNFCGNXVXTIA-ZKMPZPQNSA-N
> <PUBCHEM_XLOGP3_AA>
2.7
> <PUBCHEM_EXACT_MASS>
577.29003398
> <PUBCHEM_MOLECULAR_FORMULA>
C31H39N5O6
> <PUBCHEM_MOLECULAR_WEIGHT>
577.7
> <PUBCHEM_OPENEYE_CAN_SMILES>
CCCC(C(COC1=CC=CC=C1C(=O)NC(C)(C)C)O)NC(=O)C(CC(=O)N)NC(=O)C2=NC3=CC=CC=C3C=C2
> <PUBCHEM_OPENEYE_ISO_SMILES>
CCC[C@@H]([C@@H](COC1=CC=CC=C1C(=O)NC(C)(C)C)O)NC(=O)[C@H](CC(=O)N)NC(=O)C2=NC3=CC=CC=C3C=C2
> <PUBCHEM_CACTVS_TPSA>
173
> <PUBCHEM_MONOISOTOPIC_WEIGHT>
577.29003398
> <PUBCHEM_TOTAL_CHARGE>
0
> <PUBCHEM_HEAVY_ATOM_COUNT>
42
> <PUBCHEM_ATOM_DEF_STEREO_COUNT>
3
> <PUBCHEM_ATOM_UDEF_STEREO_COUNT>
0
> <PUBCHEM_BOND_DEF_STEREO_COUNT>
0
> <PUBCHEM_BOND_UDEF_STEREO_COUNT>
0
> <PUBCHEM_ISOTOPIC_ATOM_COUNT>
0
> <PUBCHEM_COMPONENT_COUNT>
1
> <PUBCHEM_CACTVS_TAUTO_COUNT>
-1
> <PUBCHEM_COORDINATE_TYPE>
1
5
255
> <PUBCHEM_BONDANNOTATIONS>
13  1  6
11  33  8
11  36  8
22  23  8
22  30  8
23  31  8
30  32  8
31  34  8
32  34  8
33  35  8
35  38  8
36  37  8
36  39  8
37  38  8
37  40  8
39  41  8
40  42  8
41  42  8
12  7  6
18  8  6
$$$$
