503066
  -OEChem-10302200282D
 85 88  0     1  0  0  0  0  0999 V2000
    8.9962    0.9050    0.0000 S   0  0  0  0  0  0  0  0  0  0  0  0
   10.7282   -0.0950    0.0000 O   0  0  0  0  0  0  0  0  0  0  0  0
    9.8622   -3.5950    0.0000 O   0  0  0  0  0  0  0  0  0  0  0  0
    9.8622   -4.5950    0.0000 O   0  0  0  0  0  0  0  0  0  0  0  0
    8.1301    4.4050    0.0000 O   0  0  0  0  0  0  0  0  0  0  0  0
    6.3981   -4.5950    0.0000 O   0  0  0  0  0  0  0  0  0  0  0  0
    8.9962   -2.0950    0.0000 N   0  0  0  0  0  0  0  0  0  0  0  0
    7.2641   -3.0950    0.0000 N   0  0  0  0  0  0  0  0  0  0  0  0
    6.3981    4.4050    0.0000 N   0  0  0  0  0  0  0  0  0  0  0  0
    8.9962   -6.0950    0.0000 N   0  0  0  0  0  0  0  0  0  0  0  0
    4.6660   -3.5950    0.0000 N   0  0  0  0  0  0  0  0  0  0  0  0
    9.8622   -1.5950    0.0000 C   0  0  2  0  0  0  0  0  0  0  0  0
    9.8622   -0.5950    0.0000 C   0  0  2  0  0  0  0  0  0  0  0  0
   10.7282   -2.0950    0.0000 C   0  0  0  0  0  0  0  0  0  0  0  0
    8.9962   -0.0950    0.0000 C   0  0  0  0  0  0  0  0  0  0  0  0
   11.5942   -1.5950    0.0000 C   0  0  0  0  0  0  0  0  0  0  0  0
    8.1301   -3.5950    0.0000 C   0  0  2  0  0  0  0  0  0  0  0  0
    8.9962   -3.0950    0.0000 C   0  0  0  0  0  0  0  0  0  0  0  0
    8.1301   -4.5950    0.0000 C   0  0  0  0  0  0  0  0  0  0  0  0
    6.3981    5.4050    0.0000 C   0  0  0  0  0  0  0  0  0  0  0  0
   12.4603   -2.0950    0.0000 C   0  0  0  0  0  0  0  0  0  0  0  0
   11.5942   -0.5950    0.0000 C   0  0  0  0  0  0  0  0  0  0  0  0
    8.1301    1.4050    0.0000 C   0  0  0  0  0  0  0  0  0  0  0  0
   13.3263   -1.5950    0.0000 C   0  0  0  0  0  0  0  0  0  0  0  0
   12.4603   -0.0950    0.0000 C   0  0  0  0  0  0  0  0  0  0  0  0
    6.3981    6.4050    0.0000 C   0  0  0  0  0  0  0  0  0  0  0  0
    5.3981    5.4050    0.0000 C   0  0  0  0  0  0  0  0  0  0  0  0
    7.3981    5.4050    0.0000 C   0  0  0  0  0  0  0  0  0  0  0  0
    8.9962   -5.0950    0.0000 C   0  0  0  0  0  0  0  0  0  0  0  0
    7.2641    2.9050    0.0000 C   0  0  0  0  0  0  0  0  0  0  0  0
    8.1301    2.4050    0.0000 C   0  0  0  0  0  0  0  0  0  0  0  0
   13.3263   -0.5950    0.0000 C   0  0  0  0  0  0  0  0  0  0  0  0
    6.3981   -3.5950    0.0000 C   0  0  0  0  0  0  0  0  0  0  0  0
    7.2641    3.9050    0.0000 C   0  0  0  0  0  0  0  0  0  0  0  0
    7.2641    0.9050    0.0000 C   0  0  0  0  0  0  0  0  0  0  0  0
    6.3981    2.4050    0.0000 C   0  0  0  0  0  0  0  0  0  0  0  0
    6.3981    1.4050    0.0000 C   0  0  0  0  0  0  0  0  0  0  0  0
    5.5321   -3.0950    0.0000 C   0  0  0  0  0  0  0  0  0  0  0  0
    5.5321   -2.0950    0.0000 C   0  0  0  0  0  0  0  0  0  0  0  0
    3.8000   -3.0950    0.0000 C   0  0  0  0  0  0  0  0  0  0  0  0
    3.8000   -2.0950    0.0000 C   0  0  0  0  0  0  0  0  0  0  0  0
    4.6660   -1.5950    0.0000 C   0  0  0  0  0  0  0  0  0  0  0  0
    2.9061   -3.6297    0.0000 C   0  0  0  0  0  0  0  0  0  0  0  0
    2.9061   -1.5603    0.0000 C   0  0  0  0  0  0  0  0  0  0  0  0
    2.0000   -3.1158    0.0000 C   0  0  0  0  0  0  0  0  0  0  0  0
    2.0000   -2.0742    0.0000 C   0  0  0  0  0  0  0  0  0  0  0  0
    9.3252   -1.2850    0.0000 H   0  0  0  0  0  0  0  0  0  0  0  0
    9.8622    0.0250    0.0000 H   0  0  0  0  0  0  0  0  0  0  0  0
   10.3297   -2.5700    0.0000 H   0  0  0  0  0  0  0  0  0  0  0  0
   11.1267   -2.5700    0.0000 H   0  0  0  0  0  0  0  0  0  0  0  0
    8.4592   -1.7850    0.0000 H   0  0  0  0  0  0  0  0  0  0  0  0
    8.3856    0.0127    0.0000 H   0  0  0  0  0  0  0  0  0  0  0  0
    8.7841   -0.6776    0.0000 H   0  0  0  0  0  0  0  0  0  0  0  0
    7.5932   -3.9050    0.0000 H   0  0  0  0  0  0  0  0  0  0  0  0
    7.5196   -4.4873    0.0000 H   0  0  0  0  0  0  0  0  0  0  0  0
    7.9181   -5.1776    0.0000 H   0  0  0  0  0  0  0  0  0  0  0  0
   10.7282    0.5250    0.0000 H   0  0  0  0  0  0  0  0  0  0  0  0
   12.4603   -2.7150    0.0000 H   0  0  0  0  0  0  0  0  0  0  0  0
   11.0573   -0.2850    0.0000 H   0  0  0  0  0  0  0  0  0  0  0  0
    7.2641   -2.4750    0.0000 H   0  0  0  0  0  0  0  0  0  0  0  0
    5.8612    4.0950    0.0000 H   0  0  0  0  0  0  0  0  0  0  0  0
    7.0181    6.4050    0.0000 H   0  0  0  0  0  0  0  0  0  0  0  0
    6.3981    7.0250    0.0000 H   0  0  0  0  0  0  0  0  0  0  0  0
    5.7781    6.4050    0.0000 H   0  0  0  0  0  0  0  0  0  0  0  0
    5.3981    6.0250    0.0000 H   0  0  0  0  0  0  0  0  0  0  0  0
    4.7781    5.4050    0.0000 H   0  0  0  0  0  0  0  0  0  0  0  0
    5.3981    4.7850    0.0000 H   0  0  0  0  0  0  0  0  0  0  0  0
    7.3981    4.7850    0.0000 H   0  0  0  0  0  0  0  0  0  0  0  0
    8.0181    5.4050    0.0000 H   0  0  0  0  0  0  0  0  0  0  0  0
    7.3981    6.0250    0.0000 H   0  0  0  0  0  0  0  0  0  0  0  0
   13.8632   -1.9050    0.0000 H   0  0  0  0  0  0  0  0  0  0  0  0
   12.4603    0.5250    0.0000 H   0  0  0  0  0  0  0  0  0  0  0  0
    8.6671    2.7150    0.0000 H   0  0  0  0  0  0  0  0  0  0  0  0
   13.8632   -0.2850    0.0000 H   0  0  0  0  0  0  0  0  0  0  0  0
    7.2641    0.2850    0.0000 H   0  0  0  0  0  0  0  0  0  0  0  0
    5.8612    2.7150    0.0000 H   0  0  0  0  0  0  0  0  0  0  0  0
    5.8612    1.0950    0.0000 H   0  0  0  0  0  0  0  0  0  0  0  0
    9.5331   -6.4050    0.0000 H   0  0  0  0  0  0  0  0  0  0  0  0
    8.4592   -6.4050    0.0000 H   0  0  0  0  0  0  0  0  0  0  0  0
    6.0690   -1.7850    0.0000 H   0  0  0  0  0  0  0  0  0  0  0  0
    4.6660   -0.9750    0.0000 H   0  0  0  0  0  0  0  0  0  0  0  0
    2.9132   -4.2496    0.0000 H   0  0  0  0  0  0  0  0  0  0  0  0
    2.9132   -0.9404    0.0000 H   0  0  0  0  0  0  0  0  0  0  0  0
    1.4643   -3.4279    0.0000 H   0  0  0  0  0  0  0  0  0  0  0  0
    1.4643   -1.7621    0.0000 H   0  0  0  0  0  0  0  0  0  0  0  0
  1 15  1  0  0  0  0
  1 23  1  0  0  0  0
 13  2  1  6  0  0  0
  2 57  1  0  0  0  0
  3 18  2  0  0  0  0
  4 29  2  0  0  0  0
  5 34  2  0  0  0  0
  6 33  2  0  0  0  0
 12  7  1  6  0  0  0
  7 18  1  0  0  0  0
  7 51  1  0  0  0  0
 17  8  1  6  0  0  0
  8 33  1  0  0  0  0
  8 60  1  0  0  0  0
  9 20  1  0  0  0  0
  9 34  1  0  0  0  0
  9 61  1  0  0  0  0
 10 29  1  0  0  0  0
 10 78  1  0  0  0  0
 10 79  1  0  0  0  0
 11 38  2  0  0  0  0
 11 40  1  0  0  0  0
 12 13  1  0  0  0  0
 12 14  1  0  0  0  0
 12 47  1  0  0  0  0
 13 15  1  0  0  0  0
 13 48  1  0  0  0  0
 14 16  1  0  0  0  0
 14 49  1  0  0  0  0
 14 50  1  0  0  0  0
 15 52  1  0  0  0  0
 15 53  1  0  0  0  0
 16 21  2  0  0  0  0
 16 22  1  0  0  0  0
 17 18  1  0  0  0  0
 17 19  1  0  0  0  0
 17 54  1  0  0  0  0
 19 29  1  0  0  0  0
 19 55  1  0  0  0  0
 19 56  1  0  0  0  0
 20 26  1  0  0  0  0
 20 27  1  0  0  0  0
 20 28  1  0  0  0  0
 21 24  1  0  0  0  0
 21 58  1  0  0  0  0
 22 25  2  0  0  0  0
 22 59  1  0  0  0  0
 23 31  1  0  0  0  0
 23 35  2  0  0  0  0
 24 32  2  0  0  0  0
 24 71  1  0  0  0  0
 25 32  1  0  0  0  0
 25 72  1  0  0  0  0
 26 62  1  0  0  0  0
 26 63  1  0  0  0  0
 26 64  1  0  0  0  0
 27 65  1  0  0  0  0
 27 66  1  0  0  0  0
 27 67  1  0  0  0  0
 28 68  1  0  0  0  0
 28 69  1  0  0  0  0
 28 70  1  0  0  0  0
 30 31  2  0  0  0  0
 30 34  1  0  0  0  0
 30 36  1  0  0  0  0
 31 73  1  0  0  0  0
 32 74  1  0  0  0  0
 33 38  1  0  0  0  0
 35 37  1  0  0  0  0
 35 75  1  0  0  0  0
 36 37  2  0  0  0  0
 36 76  1  0  0  0  0
 37 77  1  0  0  0  0
 38 39  1  0  0  0  0
 39 42  2  0  0  0  0
 39 80  1  0  0  0  0
 40 41  1  0  0  0  0
 40 43  2  0  0  0  0
 41 42  1  0  0  0  0
 41 44  2  0  0  0  0
 42 81  1  0  0  0  0
 43 45  1  0  0  0  0
 43 82  1  0  0  0  0
 44 46  1  0  0  0  0
 44 83  1  0  0  0  0
 45 46  2  0  0  0  0
 45 84  1  0  0  0  0
 46 85  1  0  0  0  0
M  END
> <PUBCHEM_COMPOUND_CID>
503066
> <PUBCHEM_COMPOUND_CANONICALIZED>
1
> <PUBCHEM_CACTVS_COMPLEXITY>
1030
> <PUBCHEM_CACTVS_HBOND_ACCEPTOR>
7
> <PUBCHEM_CACTVS_HBOND_DONOR>
5
> <PUBCHEM_CACTVS_ROTATABLE_BOND>
14
> <PUBCHEM_CACTVS_SUBSKEYS>
AAADcfB/uABAAAAAAAAAAAAAAAAAAAAAAAA8YMEAAAAAAACx9AAAHgQQCAAADLzl3gaywfLIEgioAyVyVACCgCAnCjAImLm4ZNgKcPrg1bGUYQhklgD4yYedyKCOAAAAgAACAAAAAAEAAAQAAAAAAAAAAA==
> <PUBCHEM_IUPAC_OPENEYE_NAME>
(2S)-N-[(1S,2R)-1-benzyl-3-[3-(tert-butylcarbamoyl)phenyl]sulfanyl-2-hydroxy-propyl]-2-(quinoline-2-carbonylamino)butanediamide
> <PUBCHEM_IUPAC_CAS_NAME>
(2S)-N-[(2S,3R)-4-[[3-[(tert-butylamino)-oxomethyl]phenyl]thio]-3-hydroxy-1-phenylbutan-2-yl]-2-[[oxo(2-quinolinyl)methyl]amino]butanediamide
> <PUBCHEM_IUPAC_NAME_MARKUP>
(2<I>S</I>)-<I>N</I>-[(2<I>S</I>,3<I>R</I>)-4-[3-(<I>tert</I>-butylcarbamoyl)phenyl]sulfanyl-3-hydroxy-1-phenylbutan-2-yl]-2-(quinoline-2-carbonylamino)butanediamide
> <PUBCHEM_IUPAC_NAME>
(2S)-N-[(2S,3R)-4-[3-(tert-butylcarbamoyl)phenyl]sulfanyl-3-hydroxy-1-phenylbutan-2-yl]-2-(quinoline-2-carbonylamino)butanediamide
> <PUBCHEM_IUPAC_SYSTEMATIC_NAME>
(2S)-N-[(2S,3R)-4-[3-(tert-butylcarbamoyl)phenyl]sulfanyl-3-oxidanyl-1-phenyl-butan-2-yl]-2-(quinolin-2-ylcarbonylamino)butanediamide
> <PUBCHEM_IUPAC_TRADITIONAL_NAME>
(2S)-N-[(1S,2R)-1-benzyl-3-[[3-(tert-butylcarbamoyl)phenyl]thio]-2-hydroxy-propyl]-2-(quinaldoylamino)succinamide
> <PUBCHEM_IUPAC_INCHI>
InChI=1S/C35H39N5O5S/c1-35(2,3)40-32(43)24-13-9-14-25(19-24)46-21-30(41)28(18-22-10-5-4-6-11-22)38-34(45)29(20-31(36)42)39-33(44)27-17-16-23-12-7-8-15-26(23)37-27/h4-17,19,28-30,41H,18,20-21H2,1-3H3,(H2,36,42)(H,38,45)(H,39,44)(H,40,43)/t28-,29-,30-/m0/s1
> <PUBCHEM_IUPAC_INCHIKEY>
GTXDBGUIDILITN-DTXPUJKBSA-N
> <PUBCHEM_XLOGP3_AA>
3.9
> <PUBCHEM_EXACT_MASS>
641.26719054
> <PUBCHEM_MOLECULAR_FORMULA>
C35H39N5O5S
> <PUBCHEM_MOLECULAR_WEIGHT>
641.8
> <PUBCHEM_OPENEYE_CAN_SMILES>
CC(C)(C)NC(=O)C1=CC(=CC=C1)SCC(C(CC2=CC=CC=C2)NC(=O)C(CC(=O)N)NC(=O)C3=NC4=CC=CC=C4C=C3)O
> <PUBCHEM_OPENEYE_ISO_SMILES>
CC(C)(C)NC(=O)C1=CC(=CC=C1)SC[C@@H]([C@H](CC2=CC=CC=C2)NC(=O)[C@H](CC(=O)N)NC(=O)C3=NC4=CC=CC=C4C=C3)O
> <PUBCHEM_CACTVS_TPSA>
189
> <PUBCHEM_MONOISOTOPIC_WEIGHT>
641.26719054
> <PUBCHEM_TOTAL_CHARGE>
0
> <PUBCHEM_HEAVY_ATOM_COUNT>
46
> <PUBCHEM_ATOM_DEF_STEREO_COUNT>
3
> <PUBCHEM_ATOM_UDEF_STEREO_COUNT>
0
> <PUBCHEM_BOND_DEF_STEREO_COUNT>
0
> <PUBCHEM_BOND_UDEF_STEREO_COUNT>
0
> <PUBCHEM_ISOTOPIC_ATOM_COUNT>
0
> <PUBCHEM_COMPONENT_COUNT>
1
> <PUBCHEM_CACTVS_TAUTO_COUNT>
-1
> <PUBCHEM_COORDINATE_TYPE>
1
5
255
> <PUBCHEM_BONDANNOTATIONS>
11  38  8
11  40  8
16  21  8
16  22  8
13  2  6
21  24  8
22  25  8
23  31  8
23  35  8
24  32  8
25  32  8
30  31  8
30  36  8
35  37  8
36  37  8
38  39  8
39  42  8
40  41  8
40  43  8
41  42  8
41  44  8
43  45  8
44  46  8
45  46  8
12  7  6
17  8  6
$$$$
