503051
  -OEChem-10302200282D
 67 70  0     1  0  0  0  0  0999 V2000
    8.9962    2.6550    0.0000 S   0  0  0  0  0  0  0  0  0  0  0  0
   10.7282    1.6550    0.0000 O   0  0  0  0  0  0  0  0  0  0  0  0
    9.8622   -1.8450    0.0000 O   0  0  0  0  0  0  0  0  0  0  0  0
    9.8622   -2.8450    0.0000 O   0  0  0  0  0  0  0  0  0  0  0  0
    6.3981   -2.8450    0.0000 O   0  0  0  0  0  0  0  0  0  0  0  0
    8.9962   -0.3450    0.0000 N   0  0  0  0  0  0  0  0  0  0  0  0
    7.2641   -1.3450    0.0000 N   0  0  0  0  0  0  0  0  0  0  0  0
    8.9962   -4.3450    0.0000 N   0  0  0  0  0  0  0  0  0  0  0  0
    4.6660   -1.8450    0.0000 N   0  0  0  0  0  0  0  0  0  0  0  0
    7.2641    2.6550    0.0000 N   0  0  0  0  0  0  0  0  0  0  0  0
    8.1301    4.1550    0.0000 N   0  0  0  0  0  0  0  0  0  0  0  0
    9.8622    0.1550    0.0000 C   0  0  2  0  0  0  0  0  0  0  0  0
    9.8622    1.1550    0.0000 C   0  0  2  0  0  0  0  0  0  0  0  0
   10.7282   -0.3450    0.0000 C   0  0  0  0  0  0  0  0  0  0  0  0
    8.9962    1.6550    0.0000 C   0  0  0  0  0  0  0  0  0  0  0  0
    8.1301   -1.8450    0.0000 C   0  0  2  0  0  0  0  0  0  0  0  0
   11.5942    0.1550    0.0000 C   0  0  0  0  0  0  0  0  0  0  0  0
    8.9962   -1.3450    0.0000 C   0  0  0  0  0  0  0  0  0  0  0  0
    8.1301   -2.8450    0.0000 C   0  0  0  0  0  0  0  0  0  0  0  0
   12.4603   -0.3450    0.0000 C   0  0  0  0  0  0  0  0  0  0  0  0
   11.5942    1.1550    0.0000 C   0  0  0  0  0  0  0  0  0  0  0  0
   13.3263    0.1550    0.0000 C   0  0  0  0  0  0  0  0  0  0  0  0
   12.4603    1.6550    0.0000 C   0  0  0  0  0  0  0  0  0  0  0  0
    8.9962   -3.3450    0.0000 C   0  0  0  0  0  0  0  0  0  0  0  0
    6.3981   -1.8450    0.0000 C   0  0  0  0  0  0  0  0  0  0  0  0
   13.3263    1.1550    0.0000 C   0  0  0  0  0  0  0  0  0  0  0  0
    5.5321   -1.3450    0.0000 C   0  0  0  0  0  0  0  0  0  0  0  0
    8.1301    3.1550    0.0000 C   0  0  0  0  0  0  0  0  0  0  0  0
    5.5321   -0.3450    0.0000 C   0  0  0  0  0  0  0  0  0  0  0  0
    3.8000   -1.3450    0.0000 C   0  0  0  0  0  0  0  0  0  0  0  0
    3.8000   -0.3450    0.0000 C   0  0  0  0  0  0  0  0  0  0  0  0
    4.6660    0.1550    0.0000 C   0  0  0  0  0  0  0  0  0  0  0  0
    2.9061   -1.8797    0.0000 C   0  0  0  0  0  0  0  0  0  0  0  0
    2.9061    0.1897    0.0000 C   0  0  0  0  0  0  0  0  0  0  0  0
    2.0000   -1.3658    0.0000 C   0  0  0  0  0  0  0  0  0  0  0  0
    2.0000   -0.3242    0.0000 C   0  0  0  0  0  0  0  0  0  0  0  0
    6.3981    3.1550    0.0000 C   0  0  0  0  0  0  0  0  0  0  0  0
    7.2641    4.6550    0.0000 C   0  0  0  0  0  0  0  0  0  0  0  0
    6.3981    4.1550    0.0000 C   0  0  0  0  0  0  0  0  0  0  0  0
    9.3252    0.4650    0.0000 H   0  0  0  0  0  0  0  0  0  0  0  0
    9.8622    1.7750    0.0000 H   0  0  0  0  0  0  0  0  0  0  0  0
   10.3297   -0.8199    0.0000 H   0  0  0  0  0  0  0  0  0  0  0  0
   11.1267   -0.8199    0.0000 H   0  0  0  0  0  0  0  0  0  0  0  0
    8.4592   -0.0350    0.0000 H   0  0  0  0  0  0  0  0  0  0  0  0
    8.3856    1.7627    0.0000 H   0  0  0  0  0  0  0  0  0  0  0  0
    8.7841    1.0724    0.0000 H   0  0  0  0  0  0  0  0  0  0  0  0
    7.5932   -2.1550    0.0000 H   0  0  0  0  0  0  0  0  0  0  0  0
    7.5196   -2.7373    0.0000 H   0  0  0  0  0  0  0  0  0  0  0  0
    7.9181   -3.4276    0.0000 H   0  0  0  0  0  0  0  0  0  0  0  0
   10.7282    2.2750    0.0000 H   0  0  0  0  0  0  0  0  0  0  0  0
   12.4603   -0.9650    0.0000 H   0  0  0  0  0  0  0  0  0  0  0  0
   11.0573    1.4650    0.0000 H   0  0  0  0  0  0  0  0  0  0  0  0
    7.2641   -0.7250    0.0000 H   0  0  0  0  0  0  0  0  0  0  0  0
   13.8632   -0.1550    0.0000 H   0  0  0  0  0  0  0  0  0  0  0  0
   12.4603    2.2750    0.0000 H   0  0  0  0  0  0  0  0  0  0  0  0
   13.8632    1.4650    0.0000 H   0  0  0  0  0  0  0  0  0  0  0  0
    6.0690   -0.0350    0.0000 H   0  0  0  0  0  0  0  0  0  0  0  0
    9.5331   -4.6550    0.0000 H   0  0  0  0  0  0  0  0  0  0  0  0
    8.4592   -4.6550    0.0000 H   0  0  0  0  0  0  0  0  0  0  0  0
    4.6660    0.7750    0.0000 H   0  0  0  0  0  0  0  0  0  0  0  0
    2.9132   -2.4996    0.0000 H   0  0  0  0  0  0  0  0  0  0  0  0
    2.9132    0.8096    0.0000 H   0  0  0  0  0  0  0  0  0  0  0  0
    1.4643   -1.6779    0.0000 H   0  0  0  0  0  0  0  0  0  0  0  0
    1.4643   -0.0121    0.0000 H   0  0  0  0  0  0  0  0  0  0  0  0
    5.8612    2.8450    0.0000 H   0  0  0  0  0  0  0  0  0  0  0  0
    7.2641    5.2750    0.0000 H   0  0  0  0  0  0  0  0  0  0  0  0
    5.8612    4.4650    0.0000 H   0  0  0  0  0  0  0  0  0  0  0  0
  1 15  1  0  0  0  0
  1 28  1  0  0  0  0
 13  2  1  6  0  0  0
  2 50  1  0  0  0  0
  3 18  2  0  0  0  0
  4 24  2  0  0  0  0
  5 25  2  0  0  0  0
 12  6  1  6  0  0  0
  6 18  1  0  0  0  0
  6 44  1  0  0  0  0
 16  7  1  6  0  0  0
  7 25  1  0  0  0  0
  7 53  1  0  0  0  0
  8 24  1  0  0  0  0
  8 58  1  0  0  0  0
  8 59  1  0  0  0  0
  9 27  2  0  0  0  0
  9 30  1  0  0  0  0
 10 28  2  0  0  0  0
 10 37  1  0  0  0  0
 11 28  1  0  0  0  0
 11 38  2  0  0  0  0
 12 13  1  0  0  0  0
 12 14  1  0  0  0  0
 12 40  1  0  0  0  0
 13 15  1  0  0  0  0
 13 41  1  0  0  0  0
 14 17  1  0  0  0  0
 14 42  1  0  0  0  0
 14 43  1  0  0  0  0
 15 45  1  0  0  0  0
 15 46  1  0  0  0  0
 16 18  1  0  0  0  0
 16 19  1  0  0  0  0
 16 47  1  0  0  0  0
 17 20  2  0  0  0  0
 17 21  1  0  0  0  0
 19 24  1  0  0  0  0
 19 48  1  0  0  0  0
 19 49  1  0  0  0  0
 20 22  1  0  0  0  0
 20 51  1  0  0  0  0
 21 23  2  0  0  0  0
 21 52  1  0  0  0  0
 22 26  2  0  0  0  0
 22 54  1  0  0  0  0
 23 26  1  0  0  0  0
 23 55  1  0  0  0  0
 25 27  1  0  0  0  0
 26 56  1  0  0  0  0
 27 29  1  0  0  0  0
 29 32  2  0  0  0  0
 29 57  1  0  0  0  0
 30 31  1  0  0  0  0
 30 33  2  0  0  0  0
 31 32  1  0  0  0  0
 31 34  2  0  0  0  0
 32 60  1  0  0  0  0
 33 35  1  0  0  0  0
 33 61  1  0  0  0  0
 34 36  1  0  0  0  0
 34 62  1  0  0  0  0
 35 36  2  0  0  0  0
 35 63  1  0  0  0  0
 36 64  1  0  0  0  0
 37 39  2  0  0  0  0
 37 65  1  0  0  0  0
 38 39  1  0  0  0  0
 38 66  1  0  0  0  0
 39 67  1  0  0  0  0
M  END
> <PUBCHEM_COMPOUND_CID>
503051
> <PUBCHEM_COMPOUND_CANONICALIZED>
1
> <PUBCHEM_CACTVS_COMPLEXITY>
807
> <PUBCHEM_CACTVS_HBOND_ACCEPTOR>
8
> <PUBCHEM_CACTVS_HBOND_DONOR>
4
> <PUBCHEM_CACTVS_ROTATABLE_BOND>
12
> <PUBCHEM_CACTVS_SUBSKEYS>
AAADceB7uABAAAAAAAAAAAAAAAAAAAAAAAA8eIEAAAAAAACx/AAAHgQQCAAADDzl3ga90PbIEgioAzV3dACC0Cl3ArAJ2KG4ZNiKePrg3fGUZQhslgLYyaedyKCOAAAAAAACAAAAAAAAAAQAAAAAAAAAAA==
> <PUBCHEM_IUPAC_OPENEYE_NAME>
(2S)-N-[(1S,2R)-1-benzyl-2-hydroxy-3-pyrimidin-2-ylsulfanyl-propyl]-2-(quinoline-2-carbonylamino)butanediamide
> <PUBCHEM_IUPAC_CAS_NAME>
(2S)-N-[(2S,3R)-3-hydroxy-1-phenyl-4-(2-pyrimidinylthio)butan-2-yl]-2-[[oxo(2-quinolinyl)methyl]amino]butanediamide
> <PUBCHEM_IUPAC_NAME_MARKUP>
(2<I>S</I>)-<I>N</I>-[(2<I>S</I>,3<I>R</I>)-3-hydroxy-1-phenyl-4-pyrimidin-2-ylsulfanylbutan-2-yl]-2-(quinoline-2-carbonylamino)butanediamide
> <PUBCHEM_IUPAC_NAME>
(2S)-N-[(2S,3R)-3-hydroxy-1-phenyl-4-pyrimidin-2-ylsulfanylbutan-2-yl]-2-(quinoline-2-carbonylamino)butanediamide
> <PUBCHEM_IUPAC_SYSTEMATIC_NAME>
(2S)-N-[(2S,3R)-3-oxidanyl-1-phenyl-4-pyrimidin-2-ylsulfanyl-butan-2-yl]-2-(quinolin-2-ylcarbonylamino)butanediamide
> <PUBCHEM_IUPAC_TRADITIONAL_NAME>
(2S)-N-[(1S,2R)-1-benzyl-2-hydroxy-3-(2-pyrimidylthio)propyl]-2-(quinaldoylamino)succinamide
> <PUBCHEM_IUPAC_INCHI>
InChI=1S/C28H28N6O4S/c29-25(36)16-23(34-26(37)21-12-11-19-9-4-5-10-20(19)32-21)27(38)33-22(15-18-7-2-1-3-8-18)24(35)17-39-28-30-13-6-14-31-28/h1-14,22-24,35H,15-17H2,(H2,29,36)(H,33,38)(H,34,37)/t22-,23-,24-/m0/s1
> <PUBCHEM_IUPAC_INCHIKEY>
WIYXHQMDOLBTMN-HJOGWXRNSA-N
> <PUBCHEM_XLOGP3_AA>
2.3
> <PUBCHEM_EXACT_MASS>
544.18927457
> <PUBCHEM_MOLECULAR_FORMULA>
C28H28N6O4S
> <PUBCHEM_MOLECULAR_WEIGHT>
544.6
> <PUBCHEM_OPENEYE_CAN_SMILES>
C1=CC=C(C=C1)CC(C(CSC2=NC=CC=N2)O)NC(=O)C(CC(=O)N)NC(=O)C3=NC4=CC=CC=C4C=C3
> <PUBCHEM_OPENEYE_ISO_SMILES>
C1=CC=C(C=C1)C[C@@H]([C@H](CSC2=NC=CC=N2)O)NC(=O)[C@H](CC(=O)N)NC(=O)C3=NC4=CC=CC=C4C=C3
> <PUBCHEM_CACTVS_TPSA>
186
> <PUBCHEM_MONOISOTOPIC_WEIGHT>
544.18927457
> <PUBCHEM_TOTAL_CHARGE>
0
> <PUBCHEM_HEAVY_ATOM_COUNT>
39
> <PUBCHEM_ATOM_DEF_STEREO_COUNT>
3
> <PUBCHEM_ATOM_UDEF_STEREO_COUNT>
0
> <PUBCHEM_BOND_DEF_STEREO_COUNT>
0
> <PUBCHEM_BOND_UDEF_STEREO_COUNT>
0
> <PUBCHEM_ISOTOPIC_ATOM_COUNT>
0
> <PUBCHEM_COMPONENT_COUNT>
1
> <PUBCHEM_CACTVS_TAUTO_COUNT>
-1
> <PUBCHEM_COORDINATE_TYPE>
1
5
255
> <PUBCHEM_BONDANNOTATIONS>
10  28  8
10  37  8
11  28  8
11  38  8
17  20  8
17  21  8
13  2  6
20  22  8
21  23  8
22  26  8
23  26  8
27  29  8
29  32  8
30  31  8
30  33  8
31  32  8
31  34  8
33  35  8
34  36  8
35  36  8
37  39  8
38  39  8
12  6  6
16  7  6
9  27  8
9  30  8
$$$$
