503093
  -OEChem-10302200282D
101104  0     1  0  0  0  0  0999 V2000
    6.0290   -4.5364    0.0000 O   0  0  0  0  0  0  0  0  0  0  0  0
    8.4317   -4.8944    0.0000 O   0  0  0  0  0  0  0  0  0  0  0  0
    2.5369   -2.5017    0.0000 O   0  0  0  0  0  0  0  0  0  0  0  0
    9.9550    1.1620    0.0000 O   0  0  0  0  0  0  0  0  0  0  0  0
   10.9417   -2.3059    0.0000 O   0  0  0  0  0  0  0  0  0  0  0  0
    7.9550    1.1697    0.0000 O   0  0  0  0  0  0  0  0  0  0  0  0
   11.4383   -3.1739    0.0000 O   0  0  0  0  0  0  0  0  0  0  0  0
    7.9617    2.9018    0.0000 O   0  0  0  0  0  0  0  0  0  0  0  0
    8.4384   -3.1623    0.0000 N   0  0  0  0  0  0  0  0  0  0  0  0
    9.4450   -1.4341    0.0000 N   0  0  0  0  0  0  0  0  0  0  0  0
   11.4316   -4.9059    0.0000 N   0  0  0  0  0  0  0  0  0  0  0  0
    6.4651    3.7736    0.0000 N   0  0  0  0  0  0  0  0  0  0  0  0
    6.9350   -4.0226    0.0000 C   0  0  3  0  0  0  0  0  0  0  0  0
    6.9350   -2.9809    0.0000 C   0  0  0  0  0  0  0  0  0  0  0  0
    6.0290   -2.4671    0.0000 C   0  0  0  0  0  0  0  0  0  0  0  0
    5.1350   -3.0017    0.0000 C   0  0  0  0  0  0  0  0  0  0  0  0
    5.1350   -4.0017    0.0000 C   0  0  0  0  0  0  0  0  0  0  0  0
    7.9350   -4.0264    0.0000 C   0  0  0  0  0  0  0  0  0  0  0  0
    7.4317   -4.8905    0.0000 C   0  0  0  0  0  0  0  0  0  0  0  0
    4.2690   -2.5017    0.0000 C   0  0  0  0  0  0  0  0  0  0  0  0
    4.2690   -4.5017    0.0000 C   0  0  0  0  0  0  0  0  0  0  0  0
    3.4030   -4.0017    0.0000 C   0  0  0  0  0  0  0  0  0  0  0  0
    9.4383   -3.1662    0.0000 C   0  0  2  0  0  0  0  0  0  0  0  0
    3.4030   -3.0017    0.0000 C   0  0  0  0  0  0  0  0  0  0  0  0
    9.9484   -0.5700    0.0000 C   0  0  2  0  0  0  0  0  0  0  0  0
    4.2690   -1.5017    0.0000 C   0  0  0  0  0  0  0  0  0  0  0  0
    4.2690   -5.5017    0.0000 C   0  0  0  0  0  0  0  0  0  0  0  0
    9.9417   -2.3021    0.0000 C   0  0  0  0  0  0  0  0  0  0  0  0
    9.9350   -4.0341    0.0000 C   0  0  0  0  0  0  0  0  0  0  0  0
    9.4517    0.2979    0.0000 C   0  0  2  0  0  0  0  0  0  0  0  0
   10.9483   -0.5739    0.0000 C   0  0  0  0  0  0  0  0  0  0  0  0
    2.5369   -4.5017    0.0000 C   0  0  0  0  0  0  0  0  0  0  0  0
    8.4517    0.3018    0.0000 C   0  0  0  0  0  0  0  0  0  0  0  0
   11.4517    0.2902    0.0000 C   0  0  0  0  0  0  0  0  0  0  0  0
   10.9350   -4.0380    0.0000 C   0  0  0  0  0  0  0  0  0  0  0  0
   12.4517    0.2863    0.0000 C   0  0  0  0  0  0  0  0  0  0  0  0
   10.9550    1.1582    0.0000 C   0  0  0  0  0  0  0  0  0  0  0  0
    6.9550    1.1736    0.0000 C   0  0  0  0  0  0  0  0  0  0  0  0
    6.9684    4.6376    0.0000 C   0  0  0  0  0  0  0  0  0  0  0  0
   12.9550    1.1504    0.0000 C   0  0  0  0  0  0  0  0  0  0  0  0
   11.4584    2.0222    0.0000 C   0  0  0  0  0  0  0  0  0  0  0  0
    6.4584    2.0415    0.0000 C   0  0  0  0  0  0  0  0  0  0  0  0
   12.4583    2.0184    0.0000 C   0  0  0  0  0  0  0  0  0  0  0  0
    6.9617    2.9056    0.0000 C   0  0  0  0  0  0  0  0  0  0  0  0
    7.4717    5.5017    0.0000 C   0  0  0  0  0  0  0  0  0  0  0  0
    6.1043    5.1410    0.0000 C   0  0  0  0  0  0  0  0  0  0  0  0
    7.8325    4.1343    0.0000 C   0  0  0  0  0  0  0  0  0  0  0  0
    6.4517    0.3095    0.0000 C   0  0  0  0  0  0  0  0  0  0  0  0
    5.4584    2.0454    0.0000 C   0  0  0  0  0  0  0  0  0  0  0  0
    5.4517    0.3133    0.0000 C   0  0  0  0  0  0  0  0  0  0  0  0
    4.9551    1.1813    0.0000 C   0  0  0  0  0  0  0  0  0  0  0  0
    7.5459   -3.0870    0.0000 H   0  0  0  0  0  0  0  0  0  0  0  0
    7.1441   -2.3972    0.0000 H   0  0  0  0  0  0  0  0  0  0  0  0
    6.4226   -1.9880    0.0000 H   0  0  0  0  0  0  0  0  0  0  0  0
    5.6244   -1.9973    0.0000 H   0  0  0  0  0  0  0  0  0  0  0  0
    6.8936   -5.1984    0.0000 H   0  0  0  0  0  0  0  0  0  0  0  0
    7.7396   -5.4286    0.0000 H   0  0  0  0  0  0  0  0  0  0  0  0
    7.9698   -4.5826    0.0000 H   0  0  0  0  0  0  0  0  0  0  0  0
    9.1263   -3.7019    0.0000 H   0  0  0  0  0  0  0  0  0  0  0  0
    8.1304   -2.6242    0.0000 H   0  0  0  0  0  0  0  0  0  0  0  0
    9.3284   -0.5676    0.0000 H   0  0  0  0  0  0  0  0  0  0  0  0
    4.8890   -1.5017    0.0000 H   0  0  0  0  0  0  0  0  0  0  0  0
    4.2690   -0.8817    0.0000 H   0  0  0  0  0  0  0  0  0  0  0  0
    3.6490   -1.5017    0.0000 H   0  0  0  0  0  0  0  0  0  0  0  0
    3.6490   -5.5017    0.0000 H   0  0  0  0  0  0  0  0  0  0  0  0
    4.2690   -6.1217    0.0000 H   0  0  0  0  0  0  0  0  0  0  0  0
    4.8890   -5.5017    0.0000 H   0  0  0  0  0  0  0  0  0  0  0  0
    9.3516   -4.2439    0.0000 H   0  0  0  0  0  0  0  0  0  0  0  0
   10.0403   -4.6451    0.0000 H   0  0  0  0  0  0  0  0  0  0  0  0
   10.0717    0.2955    0.0000 H   0  0  0  0  0  0  0  0  0  0  0  0
    8.8250   -1.4317    0.0000 H   0  0  0  0  0  0  0  0  0  0  0  0
   10.8383   -1.1840    0.0000 H   0  0  0  0  0  0  0  0  0  0  0  0
   11.5301   -0.7882    0.0000 H   0  0  0  0  0  0  0  0  0  0  0  0
    2.2269   -3.9648    0.0000 H   0  0  0  0  0  0  0  0  0  0  0  0
    2.0000   -4.8117    0.0000 H   0  0  0  0  0  0  0  0  0  0  0  0
    2.8469   -5.0387    0.0000 H   0  0  0  0  0  0  0  0  0  0  0  0
    7.8683    0.0920    0.0000 H   0  0  0  0  0  0  0  0  0  0  0  0
    8.5570   -0.3092    0.0000 H   0  0  0  0  0  0  0  0  0  0  0  0
    2.0000   -2.8117    0.0000 H   0  0  0  0  0  0  0  0  0  0  0  0
    9.6471    1.7001    0.0000 H   0  0  0  0  0  0  0  0  0  0  0  0
   12.7596   -0.2518    0.0000 H   0  0  0  0  0  0  0  0  0  0  0  0
   10.3350    1.1605    0.0000 H   0  0  0  0  0  0  0  0  0  0  0  0
   12.0516   -4.9083    0.0000 H   0  0  0  0  0  0  0  0  0  0  0  0
   11.1196   -5.4416    0.0000 H   0  0  0  0  0  0  0  0  0  0  0  0
   13.5750    1.1480    0.0000 H   0  0  0  0  0  0  0  0  0  0  0  0
   11.1504    2.5604    0.0000 H   0  0  0  0  0  0  0  0  0  0  0  0
   12.7704    2.5541    0.0000 H   0  0  0  0  0  0  0  0  0  0  0  0
    5.8451    3.7759    0.0000 H   0  0  0  0  0  0  0  0  0  0  0  0
    8.0075    5.1897    0.0000 H   0  0  0  0  0  0  0  0  0  0  0  0
    7.7838    6.0375    0.0000 H   0  0  0  0  0  0  0  0  0  0  0  0
    6.9360    5.8138    0.0000 H   0  0  0  0  0  0  0  0  0  0  0  0
    6.4164    5.6767    0.0000 H   0  0  0  0  0  0  0  0  0  0  0  0
    5.5686    5.4530    0.0000 H   0  0  0  0  0  0  0  0  0  0  0  0
    5.7922    4.6052    0.0000 H   0  0  0  0  0  0  0  0  0  0  0  0
    7.5204    3.5986    0.0000 H   0  0  0  0  0  0  0  0  0  0  0  0
    8.3682    3.8222    0.0000 H   0  0  0  0  0  0  0  0  0  0  0  0
    8.1446    4.6700    0.0000 H   0  0  0  0  0  0  0  0  0  0  0  0
    6.7596   -0.2287    0.0000 H   0  0  0  0  0  0  0  0  0  0  0  0
    5.1505    2.5835    0.0000 H   0  0  0  0  0  0  0  0  0  0  0  0
    5.1397   -0.2224    0.0000 H   0  0  0  0  0  0  0  0  0  0  0  0
    4.3351    1.1837    0.0000 H   0  0  0  0  0  0  0  0  0  0  0  0
  1 13  1  0  0  0  0
  1 17  1  0  0  0  0
  2 18  2  0  0  0  0
  3 24  1  0  0  0  0
  3 79  1  0  0  0  0
 30  4  1  6  0  0  0
  4 80  1  0  0  0  0
  5 28  2  0  0  0  0
  6 33  1  0  0  0  0
  6 38  1  0  0  0  0
  7 35  2  0  0  0  0
  8 44  2  0  0  0  0
  9 18  1  0  0  0  0
 23  9  1  6  0  0  0
  9 60  1  0  0  0  0
 25 10  1  6  0  0  0
 10 28  1  0  0  0  0
 10 71  1  0  0  0  0
 11 35  1  0  0  0  0
 11 83  1  0  0  0  0
 11 84  1  0  0  0  0
 12 39  1  0  0  0  0
 12 44  1  0  0  0  0
 12 88  1  0  0  0  0
 13 14  1  0  0  0  0
 13 18  1  0  0  0  0
 13 19  1  0  0  0  0
 14 15  1  0  0  0  0
 14 52  1  0  0  0  0
 14 53  1  0  0  0  0
 15 16  1  0  0  0  0
 15 54  1  0  0  0  0
 15 55  1  0  0  0  0
 16 17  2  0  0  0  0
 16 20  1  0  0  0  0
 17 21  1  0  0  0  0
 19 56  1  0  0  0  0
 19 57  1  0  0  0  0
 19 58  1  0  0  0  0
 20 24  2  0  0  0  0
 20 26  1  0  0  0  0
 21 22  2  0  0  0  0
 21 27  1  0  0  0  0
 22 24  1  0  0  0  0
 22 32  1  0  0  0  0
 23 28  1  0  0  0  0
 23 29  1  0  0  0  0
 23 59  1  0  0  0  0
 25 30  1  0  0  0  0
 25 31  1  0  0  0  0
 25 61  1  0  0  0  0
 26 62  1  0  0  0  0
 26 63  1  0  0  0  0
 26 64  1  0  0  0  0
 27 65  1  0  0  0  0
 27 66  1  0  0  0  0
 27 67  1  0  0  0  0
 29 35  1  0  0  0  0
 29 68  1  0  0  0  0
 29 69  1  0  0  0  0
 30 33  1  0  0  0  0
 30 70  1  0  0  0  0
 31 34  1  0  0  0  0
 31 72  1  0  0  0  0
 31 73  1  0  0  0  0
 32 74  1  0  0  0  0
 32 75  1  0  0  0  0
 32 76  1  0  0  0  0
 33 77  1  0  0  0  0
 33 78  1  0  0  0  0
 34 36  2  0  0  0  0
 34 37  1  0  0  0  0
 36 40  1  0  0  0  0
 36 81  1  0  0  0  0
 37 41  2  0  0  0  0
 37 82  1  0  0  0  0
 38 42  1  0  0  0  0
 38 48  2  0  0  0  0
 39 45  1  0  0  0  0
 39 46  1  0  0  0  0
 39 47  1  0  0  0  0
 40 43  2  0  0  0  0
 40 85  1  0  0  0  0
 41 43  1  0  0  0  0
 41 86  1  0  0  0  0
 42 44  1  0  0  0  0
 42 49  2  0  0  0  0
 43 87  1  0  0  0  0
 45 89  1  0  0  0  0
 45 90  1  0  0  0  0
 45 91  1  0  0  0  0
 46 92  1  0  0  0  0
 46 93  1  0  0  0  0
 46 94  1  0  0  0  0
 47 95  1  0  0  0  0
 47 96  1  0  0  0  0
 47 97  1  0  0  0  0
 48 50  1  0  0  0  0
 48 98  1  0  0  0  0
 49 51  1  0  0  0  0
 49 99  1  0  0  0  0
 50 51  2  0  0  0  0
 50100  1  0  0  0  0
 51101  1  0  0  0  0
M  END
> <PUBCHEM_COMPOUND_CID>
503093
> <PUBCHEM_COMPOUND_CANONICALIZED>
1
> <PUBCHEM_CACTVS_COMPLEXITY>
1200
> <PUBCHEM_CACTVS_HBOND_ACCEPTOR>
8
> <PUBCHEM_CACTVS_HBOND_DONOR>
6
> <PUBCHEM_CACTVS_ROTATABLE_BOND>
14
> <PUBCHEM_CACTVS_SUBSKEYS>
AAADcfB/vAAAAAAAAAAAAAAAAAAAAAAAAAA0YMEAAAAAAACRUAAAHgAQCAAADPzhmAYyBoLABgCIAiFSEAKCCAAkIAAIiIHODMgPdj6G9T+XeWjm9hGbuYfdyPCOwQADAAAYAACCAAYAADAAAAAAAAAAAA==
> <PUBCHEM_IUPAC_OPENEYE_NAME>
(2S)-N-[(1S,2R)-1-benzyl-3-[2-(tert-butylcarbamoyl)phenoxy]-2-hydroxy-propyl]-2-[(6-hydroxy-2,5,7,8-tetramethyl-chromane-2-carbonyl)amino]butanediamide
> <PUBCHEM_IUPAC_CAS_NAME>
(2S)-N-[(2S,3R)-4-[2-[(tert-butylamino)-oxomethyl]phenoxy]-3-hydroxy-1-phenylbutan-2-yl]-2-[[(6-hydroxy-2,5,7,8-tetramethyl-3,4-dihydro-2H-1-benzopyran-2-yl)-oxomethyl]amino]butanediamide
> <PUBCHEM_IUPAC_NAME_MARKUP>
(2<I>S</I>)-<I>N</I>-[(2<I>S</I>,3<I>R</I>)-4-[2-(<I>tert</I>-butylcarbamoyl)phenoxy]-3-hydroxy-1-phenylbutan-2-yl]-2-[(6-hydroxy-2,5,7,8-tetramethyl-3,4-dihydrochromene-2-carbonyl)amino]butanediamide
> <PUBCHEM_IUPAC_NAME>
(2S)-N-[(2S,3R)-4-[2-(tert-butylcarbamoyl)phenoxy]-3-hydroxy-1-phenylbutan-2-yl]-2-[(6-hydroxy-2,5,7,8-tetramethyl-3,4-dihydrochromene-2-carbonyl)amino]butanediamide
> <PUBCHEM_IUPAC_SYSTEMATIC_NAME>
(2S)-N-[(2S,3R)-4-[2-(tert-butylcarbamoyl)phenoxy]-3-oxidanyl-1-phenyl-butan-2-yl]-2-[(2,5,7,8-tetramethyl-6-oxidanyl-3,4-dihydrochromen-2-yl)carbonylamino]butanediamide
> <PUBCHEM_IUPAC_TRADITIONAL_NAME>
(2S)-N-[(1S,2R)-1-benzyl-3-[2-(tert-butylcarbamoyl)phenoxy]-2-hydroxy-propyl]-2-[(6-hydroxy-2,5,7,8-tetramethyl-chroman-2-carbonyl)amino]succinamide
> <PUBCHEM_IUPAC_INCHI>
InChI=1S/C39H50N4O8/c1-22-23(2)34-26(24(3)33(22)46)17-18-39(7,51-34)37(49)42-29(20-32(40)45)36(48)41-28(19-25-13-9-8-10-14-25)30(44)21-50-31-16-12-11-15-27(31)35(47)43-38(4,5)6/h8-16,28-30,44,46H,17-21H2,1-7H3,(H2,40,45)(H,41,48)(H,42,49)(H,43,47)/t28-,29-,30-,39?/m0/s1
> <PUBCHEM_IUPAC_INCHIKEY>
WUPPFDIIDKLESY-CSPCYGTOSA-N
> <PUBCHEM_XLOGP3_AA>
4.2
> <PUBCHEM_EXACT_MASS>
702.36286457
> <PUBCHEM_MOLECULAR_FORMULA>
C39H50N4O8
> <PUBCHEM_MOLECULAR_WEIGHT>
702.8
> <PUBCHEM_OPENEYE_CAN_SMILES>
CC1=C(C2=C(CCC(O2)(C)C(=O)NC(CC(=O)N)C(=O)NC(CC3=CC=CC=C3)C(COC4=CC=CC=C4C(=O)NC(C)(C)C)O)C(=C1O)C)C
> <PUBCHEM_OPENEYE_ISO_SMILES>
CC1=C(C2=C(CCC(O2)(C)C(=O)N[C@@H](CC(=O)N)C(=O)N[C@@H](CC3=CC=CC=C3)[C@H](COC4=CC=CC=C4C(=O)NC(C)(C)C)O)C(=C1O)C)C
> <PUBCHEM_CACTVS_TPSA>
189
> <PUBCHEM_MONOISOTOPIC_WEIGHT>
702.36286457
> <PUBCHEM_TOTAL_CHARGE>
0
> <PUBCHEM_HEAVY_ATOM_COUNT>
51
> <PUBCHEM_ATOM_DEF_STEREO_COUNT>
3
> <PUBCHEM_ATOM_UDEF_STEREO_COUNT>
1
> <PUBCHEM_BOND_DEF_STEREO_COUNT>
0
> <PUBCHEM_BOND_UDEF_STEREO_COUNT>
0
> <PUBCHEM_ISOTOPIC_ATOM_COUNT>
0
> <PUBCHEM_COMPONENT_COUNT>
1
> <PUBCHEM_CACTVS_TAUTO_COUNT>
-1
> <PUBCHEM_COORDINATE_TYPE>
1
5
255
> <PUBCHEM_BONDANNOTATIONS>
25  10  6
13  19  3
16  17  8
16  20  8
17  21  8
20  24  8
21  22  8
22  24  8
34  36  8
34  37  8
36  40  8
37  41  8
38  42  8
38  48  8
30  4  6
40  43  8
41  43  8
42  49  8
48  50  8
49  51  8
50  51  8
23  9  6
$$$$
