503020
  -OEChem-10302200282D
 36 37  0     1  0  0  0  0  0999 V2000
    6.4302   -3.1217    0.0000 P   0  0  0  0  0  0  0  0  0  0  0  0
    2.0000   -0.3481    0.0000 F   0  0  0  0  0  0  0  0  0  0  0  0
    4.5691   -0.6571    0.0000 O   0  0  0  0  0  0  0  0  0  0  0  0
    2.6723   -2.4172    0.0000 O   0  0  0  0  0  0  0  0  0  0  0  0
    5.8424   -2.3126    0.0000 O   0  0  0  0  0  0  0  0  0  0  0  0
    5.4921    0.9307    0.0000 O   0  0  0  0  0  0  0  0  0  0  0  0
    3.7601    3.9307    0.0000 O   0  0  0  0  0  0  0  0  0  0  0  0
    7.0180   -3.9307    0.0000 O   0  0  0  0  0  0  0  0  0  0  0  0
    7.2392   -2.5339    0.0000 O   0  0  0  0  0  0  0  0  0  0  0  0
    5.6212   -3.7094    0.0000 O   0  0  0  0  0  0  0  0  0  0  0  0
    3.7601    0.9307    0.0000 N   0  0  0  0  0  0  0  0  0  0  0  0
    4.6261    2.4307    0.0000 N   0  0  0  0  0  0  0  0  0  0  0  0
    3.2601   -1.6082    0.0000 C   0  0  2  0  0  0  0  0  0  0  0  0
    4.2601   -1.6082    0.0000 C   0  0  1  0  0  0  0  0  0  0  0  0
    2.9511   -0.6571    0.0000 C   0  0  1  0  0  0  0  0  0  0  0  0
    3.7601   -0.0693    0.0000 C   0  0  1  0  0  0  0  0  0  0  0  0
    4.8479   -2.4172    0.0000 C   0  0  0  0  0  0  0  0  0  0  0  0
    2.8940    1.4307    0.0000 C   0  0  0  0  0  0  0  0  0  0  0  0
    4.6261    1.4307    0.0000 C   0  0  0  0  0  0  0  0  0  0  0  0
    2.8940    2.4307    0.0000 C   0  0  0  0  0  0  0  0  0  0  0  0
    3.7601    2.9307    0.0000 C   0  0  0  0  0  0  0  0  0  0  0  0
    2.0280    2.9307    0.0000 C   0  0  0  0  0  0  0  0  0  0  0  0
    2.6477   -1.5112    0.0000 H   0  0  0  0  0  0  0  0  0  0  0  0
    4.8724   -1.5112    0.0000 H   0  0  0  0  0  0  0  0  0  0  0  0
    2.5126   -1.0955    0.0000 H   0  0  0  0  0  0  0  0  0  0  0  0
    4.3125    0.2122    0.0000 H   0  0  0  0  0  0  0  0  0  0  0  0
    4.2906   -2.6890    0.0000 H   0  0  0  0  0  0  0  0  0  0  0  0
    5.0188   -3.0132    0.0000 H   0  0  0  0  0  0  0  0  0  0  0  0
    2.9245   -2.9836    0.0000 H   0  0  0  0  0  0  0  0  0  0  0  0
    2.3571    1.1207    0.0000 H   0  0  0  0  0  0  0  0  0  0  0  0
    5.1630    2.7407    0.0000 H   0  0  0  0  0  0  0  0  0  0  0  0
    2.3380    3.4676    0.0000 H   0  0  0  0  0  0  0  0  0  0  0  0
    1.4911    3.2407    0.0000 H   0  0  0  0  0  0  0  0  0  0  0  0
    1.7180    2.3938    0.0000 H   0  0  0  0  0  0  0  0  0  0  0  0
    7.6346   -3.8659    0.0000 H   0  0  0  0  0  0  0  0  0  0  0  0
    7.1744   -1.9173    0.0000 H   0  0  0  0  0  0  0  0  0  0  0  0
  1  5  1  0  0  0  0
  1  8  1  0  0  0  0
  1  9  1  0  0  0  0
  1 10  2  0  0  0  0
 15  2  1  6  0  0  0
  3 14  1  0  0  0  0
  3 16  1  0  0  0  0
 13  4  1  1  0  0  0
  4 29  1  0  0  0  0
  5 17  1  0  0  0  0
  6 19  2  0  0  0  0
  7 21  2  0  0  0  0
  8 35  1  0  0  0  0
  9 36  1  0  0  0  0
 16 11  1  6  0  0  0
 11 18  1  0  0  0  0
 11 19  1  0  0  0  0
 12 19  1  0  0  0  0
 12 21  1  0  0  0  0
 12 31  1  0  0  0  0
 13 14  1  0  0  0  0
 13 15  1  0  0  0  0
 13 23  1  0  0  0  0
 14 17  1  6  0  0  0
 14 24  1  0  0  0  0
 15 16  1  0  0  0  0
 15 25  1  0  0  0  0
 16 26  1  0  0  0  0
 17 27  1  0  0  0  0
 17 28  1  0  0  0  0
 18 20  2  0  0  0  0
 18 30  1  0  0  0  0
 20 21  1  0  0  0  0
 20 22  1  0  0  0  0
 22 32  1  0  0  0  0
 22 33  1  0  0  0  0
 22 34  1  0  0  0  0
M  END
> <PUBCHEM_COMPOUND_CID>
503020
> <PUBCHEM_COMPOUND_CANONICALIZED>
1
> <PUBCHEM_CACTVS_COMPLEXITY>
563
> <PUBCHEM_CACTVS_HBOND_ACCEPTOR>
9
> <PUBCHEM_CACTVS_HBOND_DONOR>
4
> <PUBCHEM_CACTVS_ROTATABLE_BOND>
4
> <PUBCHEM_CACTVS_SUBSKEYS>
AAADccBzPQIAAAAAAAAAAAAAAAAAASAAAAAgAAAAAAAAAAAAAAAAHwAQCCAADBThgAYDAAPABxCIQgFWUICAAAAAAAAAAAEIAECBEAIAgQAOQAAPByIDAMCwMAIAAAAAAAAAAAAAAAAAAAAAAAAAAAAAAA==
> <PUBCHEM_IUPAC_OPENEYE_NAME>
[(2R,3R,4S,5R)-4-fluoro-3-hydroxy-5-(5-methyl-2,4-dioxo-pyrimidin-1-yl)tetrahydrofuran-2-yl]methyl dihydrogen phosphate
> <PUBCHEM_IUPAC_CAS_NAME>
[(2R,3R,4S,5R)-4-fluoro-3-hydroxy-5-(5-methyl-2,4-dioxo-1-pyrimidinyl)-2-oxolanyl]methyl dihydrogen phosphate
> <PUBCHEM_IUPAC_NAME_MARKUP>
[(2<I>R</I>,3<I>R</I>,4<I>S</I>,5<I>R</I>)-4-fluoro-3-hydroxy-5-(5-methyl-2,4-dioxopyrimidin-1-yl)oxolan-2-yl]methyl dihydrogen phosphate
> <PUBCHEM_IUPAC_NAME>
[(2R,3R,4S,5R)-4-fluoro-3-hydroxy-5-(5-methyl-2,4-dioxopyrimidin-1-yl)oxolan-2-yl]methyl dihydrogen phosphate
> <PUBCHEM_IUPAC_SYSTEMATIC_NAME>
[(2R,3R,4S,5R)-4-fluoranyl-5-[5-methyl-2,4-bis(oxidanylidene)pyrimidin-1-yl]-3-oxidanyl-oxolan-2-yl]methyl dihydrogen phosphate
> <PUBCHEM_IUPAC_TRADITIONAL_NAME>
[(2R,3R,4S,5R)-5-(2,4-diketo-5-methyl-pyrimidin-1-yl)-4-fluoro-3-hydroxy-tetrahydrofuran-2-yl]methyl dihydrogen phosphate
> <PUBCHEM_IUPAC_INCHI>
InChI=1S/C10H14FN2O8P/c1-4-2-13(10(16)12-8(4)15)9-6(11)7(14)5(21-9)3-20-22(17,18)19/h2,5-7,9,14H,3H2,1H3,(H,12,15,16)(H2,17,18,19)/t5-,6+,7-,9-/m1/s1
> <PUBCHEM_IUPAC_INCHIKEY>
XJQFIHYTCPKUTK-JVZYCSMKSA-N
> <PUBCHEM_XLOGP3>
-2.5
> <PUBCHEM_EXACT_MASS>
340.04718057
> <PUBCHEM_MOLECULAR_FORMULA>
C10H14FN2O8P
> <PUBCHEM_MOLECULAR_WEIGHT>
340.20
> <PUBCHEM_OPENEYE_CAN_SMILES>
CC1=CN(C(=O)NC1=O)C2C(C(C(O2)COP(=O)(O)O)O)F
> <PUBCHEM_OPENEYE_ISO_SMILES>
CC1=CN(C(=O)NC1=O)[C@H]2[C@H]([C@@H]([C@H](O2)COP(=O)(O)O)O)F
> <PUBCHEM_CACTVS_TPSA>
146
> <PUBCHEM_MONOISOTOPIC_WEIGHT>
340.04718057
> <PUBCHEM_TOTAL_CHARGE>
0
> <PUBCHEM_HEAVY_ATOM_COUNT>
22
> <PUBCHEM_ATOM_DEF_STEREO_COUNT>
4
> <PUBCHEM_ATOM_UDEF_STEREO_COUNT>
0
> <PUBCHEM_BOND_DEF_STEREO_COUNT>
0
> <PUBCHEM_BOND_UDEF_STEREO_COUNT>
0
> <PUBCHEM_ISOTOPIC_ATOM_COUNT>
0
> <PUBCHEM_COMPONENT_COUNT>
1
> <PUBCHEM_CACTVS_TAUTO_COUNT>
-1
> <PUBCHEM_COORDINATE_TYPE>
1
5
255
> <PUBCHEM_BONDANNOTATIONS>
16  11  6
11  18  8
11  19  8
12  19  8
12  21  8
14  17  6
18  20  8
15  2  6
20  21  8
13  4  5
$$$$
