503106
  -OEChem-10302200282D
 84 86  0     1  0  0  0  0  0999 V2000
    7.7331   -1.0000    0.0000 O   0  0  0  0  0  0  0  0  0  0  0  0
    9.4651   -2.0000    0.0000 O   0  0  0  0  0  0  0  0  0  0  0  0
    6.8671   -0.5000    0.0000 O   0  0  0  0  0  0  0  0  0  0  0  0
   10.3312   -0.5000    0.0000 O   0  0  0  0  0  0  0  0  0  0  0  0
    6.0010    2.0000    0.0000 O   0  0  0  0  0  0  0  0  0  0  0  0
    3.4030    0.5000    0.0000 O   0  0  0  0  0  0  0  0  0  0  0  0
    6.8671    0.5000    0.0000 O   0  0  0  0  0  0  0  0  0  0  0  0
    6.0010   -2.0000    0.0000 N   0  0  0  0  0  0  0  0  0  0  0  0
    5.1350    0.5000    0.0000 N   0  0  0  0  0  0  0  0  0  0  0  0
   12.0632   -0.5000    0.0000 N   0  0  0  0  0  0  0  0  0  0  0  0
    2.5369   -1.0000    0.0000 N   0  0  0  0  0  0  0  0  0  0  0  0
    6.8671   -2.5000    0.0000 C   0  0  2  0  0  0  0  0  0  0  0  0
    7.7331   -2.0000    0.0000 C   0  0  1  0  0  0  0  0  0  0  0  0
    6.8671   -3.5000    0.0000 C   0  0  0  0  0  0  0  0  0  0  0  0
    8.5991   -2.5000    0.0000 C   0  0  0  0  0  0  0  0  0  0  0  0
    6.0010   -4.0000    0.0000 C   0  0  0  0  0  0  0  0  0  0  0  0
    6.0010   -1.0000    0.0000 C   0  0  0  0  0  0  0  0  0  0  0  0
    5.1350   -0.5000    0.0000 C   0  0  2  0  0  0  0  0  0  0  0  0
   12.0632    0.5000    0.0000 C   0  0  0  0  0  0  0  0  0  0  0  0
    4.2690   -1.0000    0.0000 C   0  0  0  0  0  0  0  0  0  0  0  0
    6.0010   -5.0000    0.0000 C   0  0  0  0  0  0  0  0  0  0  0  0
    5.1350   -3.5000    0.0000 C   0  0  0  0  0  0  0  0  0  0  0  0
   10.3312   -2.5000    0.0000 C   0  0  0  0  0  0  0  0  0  0  0  0
   11.1972   -2.0000    0.0000 C   0  0  0  0  0  0  0  0  0  0  0  0
   12.0632    1.5000    0.0000 C   0  0  0  0  0  0  0  0  0  0  0  0
   13.0632    0.5000    0.0000 C   0  0  0  0  0  0  0  0  0  0  0  0
   11.0632    0.5000    0.0000 C   0  0  0  0  0  0  0  0  0  0  0  0
   11.1972   -1.0000    0.0000 C   0  0  0  0  0  0  0  0  0  0  0  0
    5.1350   -5.5000    0.0000 C   0  0  0  0  0  0  0  0  0  0  0  0
    4.2690   -4.0000    0.0000 C   0  0  0  0  0  0  0  0  0  0  0  0
    4.2690   -5.0000    0.0000 C   0  0  0  0  0  0  0  0  0  0  0  0
    3.4030   -0.5000    0.0000 C   0  0  0  0  0  0  0  0  0  0  0  0
   10.3312   -3.5000    0.0000 C   0  0  0  0  0  0  0  0  0  0  0  0
   12.0632   -2.5000    0.0000 C   0  0  0  0  0  0  0  0  0  0  0  0
    6.0010    1.0000    0.0000 C   0  0  0  0  0  0  0  0  0  0  0  0
   11.1972   -4.0000    0.0000 C   0  0  0  0  0  0  0  0  0  0  0  0
   12.0632   -3.5000    0.0000 C   0  0  0  0  0  0  0  0  0  0  0  0
    6.8671    2.5000    0.0000 C   0  0  0  0  0  0  0  0  0  0  0  0
    6.8671    3.5000    0.0000 C   0  0  0  0  0  0  0  0  0  0  0  0
    6.0010    4.0000    0.0000 C   0  0  0  0  0  0  0  0  0  0  0  0
    7.7331    4.0000    0.0000 C   0  0  0  0  0  0  0  0  0  0  0  0
    6.0010    5.0000    0.0000 C   0  0  0  0  0  0  0  0  0  0  0  0
    7.7331    5.0000    0.0000 C   0  0  0  0  0  0  0  0  0  0  0  0
    6.8671    5.5000    0.0000 C   0  0  0  0  0  0  0  0  0  0  0  0
    6.3301   -2.8100    0.0000 H   0  0  0  0  0  0  0  0  0  0  0  0
    8.2700   -1.6900    0.0000 H   0  0  0  0  0  0  0  0  0  0  0  0
    7.0791   -4.0826    0.0000 H   0  0  0  0  0  0  0  0  0  0  0  0
    7.4776   -3.3923    0.0000 H   0  0  0  0  0  0  0  0  0  0  0  0
    5.4641   -2.3100    0.0000 H   0  0  0  0  0  0  0  0  0  0  0  0
    8.2006   -2.9750    0.0000 H   0  0  0  0  0  0  0  0  0  0  0  0
    8.9976   -2.9750    0.0000 H   0  0  0  0  0  0  0  0  0  0  0  0
    5.6720   -0.1900    0.0000 H   0  0  0  0  0  0  0  0  0  0  0  0
    8.2700   -0.6900    0.0000 H   0  0  0  0  0  0  0  0  0  0  0  0
    3.8705   -1.4750    0.0000 H   0  0  0  0  0  0  0  0  0  0  0  0
    4.6675   -1.4750    0.0000 H   0  0  0  0  0  0  0  0  0  0  0  0
    6.5380   -5.3100    0.0000 H   0  0  0  0  0  0  0  0  0  0  0  0
    5.1350   -2.8800    0.0000 H   0  0  0  0  0  0  0  0  0  0  0  0
    4.5981    0.8100    0.0000 H   0  0  0  0  0  0  0  0  0  0  0  0
   12.6002   -0.8100    0.0000 H   0  0  0  0  0  0  0  0  0  0  0  0
   12.6832    1.5000    0.0000 H   0  0  0  0  0  0  0  0  0  0  0  0
   12.0632    2.1200    0.0000 H   0  0  0  0  0  0  0  0  0  0  0  0
   11.4432    1.5000    0.0000 H   0  0  0  0  0  0  0  0  0  0  0  0
   13.0632   -0.1200    0.0000 H   0  0  0  0  0  0  0  0  0  0  0  0
   13.6832    0.5000    0.0000 H   0  0  0  0  0  0  0  0  0  0  0  0
   13.0632    1.1200    0.0000 H   0  0  0  0  0  0  0  0  0  0  0  0
   11.0632    1.1200    0.0000 H   0  0  0  0  0  0  0  0  0  0  0  0
   10.4432    0.5000    0.0000 H   0  0  0  0  0  0  0  0  0  0  0  0
   11.0632   -0.1200    0.0000 H   0  0  0  0  0  0  0  0  0  0  0  0
    5.1350   -6.1200    0.0000 H   0  0  0  0  0  0  0  0  0  0  0  0
    3.7320   -3.6900    0.0000 H   0  0  0  0  0  0  0  0  0  0  0  0
    3.7320   -5.3100    0.0000 H   0  0  0  0  0  0  0  0  0  0  0  0
    9.7942   -3.8100    0.0000 H   0  0  0  0  0  0  0  0  0  0  0  0
   12.6002   -2.1900    0.0000 H   0  0  0  0  0  0  0  0  0  0  0  0
   11.1972   -4.6200    0.0000 H   0  0  0  0  0  0  0  0  0  0  0  0
   12.6002   -3.8100    0.0000 H   0  0  0  0  0  0  0  0  0  0  0  0
    2.0000   -0.6900    0.0000 H   0  0  0  0  0  0  0  0  0  0  0  0
    2.5369   -1.6200    0.0000 H   0  0  0  0  0  0  0  0  0  0  0  0
    7.0791    1.9174    0.0000 H   0  0  0  0  0  0  0  0  0  0  0  0
    7.4776    2.6077    0.0000 H   0  0  0  0  0  0  0  0  0  0  0  0
    5.4641    3.6900    0.0000 H   0  0  0  0  0  0  0  0  0  0  0  0
    8.2700    3.6900    0.0000 H   0  0  0  0  0  0  0  0  0  0  0  0
    5.4641    5.3100    0.0000 H   0  0  0  0  0  0  0  0  0  0  0  0
    8.2700    5.3100    0.0000 H   0  0  0  0  0  0  0  0  0  0  0  0
    6.8671    6.1200    0.0000 H   0  0  0  0  0  0  0  0  0  0  0  0
 13  1  1  6  0  0  0
  1 53  1  0  0  0  0
  2 15  1  0  0  0  0
  2 23  1  0  0  0  0
  3 17  2  0  0  0  0
  4 28  2  0  0  0  0
  5 35  1  0  0  0  0
  5 38  1  0  0  0  0
  6 32  2  0  0  0  0
  7 35  2  0  0  0  0
 12  8  1  6  0  0  0
  8 17  1  0  0  0  0
  8 49  1  0  0  0  0
 18  9  1  6  0  0  0
  9 35  1  0  0  0  0
  9 58  1  0  0  0  0
 10 19  1  0  0  0  0
 10 28  1  0  0  0  0
 10 59  1  0  0  0  0
 11 32  1  0  0  0  0
 11 76  1  0  0  0  0
 11 77  1  0  0  0  0
 12 13  1  0  0  0  0
 12 14  1  0  0  0  0
 12 45  1  0  0  0  0
 13 15  1  0  0  0  0
 13 46  1  0  0  0  0
 14 16  1  0  0  0  0
 14 47  1  0  0  0  0
 14 48  1  0  0  0  0
 15 50  1  0  0  0  0
 15 51  1  0  0  0  0
 16 21  2  0  0  0  0
 16 22  1  0  0  0  0
 17 18  1  0  0  0  0
 18 20  1  0  0  0  0
 18 52  1  0  0  0  0
 19 25  1  0  0  0  0
 19 26  1  0  0  0  0
 19 27  1  0  0  0  0
 20 32  1  0  0  0  0
 20 54  1  0  0  0  0
 20 55  1  0  0  0  0
 21 29  1  0  0  0  0
 21 56  1  0  0  0  0
 22 30  2  0  0  0  0
 22 57  1  0  0  0  0
 23 24  1  0  0  0  0
 23 33  2  0  0  0  0
 24 28  1  0  0  0  0
 24 34  2  0  0  0  0
 25 60  1  0  0  0  0
 25 61  1  0  0  0  0
 25 62  1  0  0  0  0
 26 63  1  0  0  0  0
 26 64  1  0  0  0  0
 26 65  1  0  0  0  0
 27 66  1  0  0  0  0
 27 67  1  0  0  0  0
 27 68  1  0  0  0  0
 29 31  2  0  0  0  0
 29 69  1  0  0  0  0
 30 31  1  0  0  0  0
 30 70  1  0  0  0  0
 31 71  1  0  0  0  0
 33 36  1  0  0  0  0
 33 72  1  0  0  0  0
 34 37  1  0  0  0  0
 34 73  1  0  0  0  0
 36 37  2  0  0  0  0
 36 74  1  0  0  0  0
 37 75  1  0  0  0  0
 38 39  1  0  0  0  0
 38 78  1  0  0  0  0
 38 79  1  0  0  0  0
 39 40  2  0  0  0  0
 39 41  1  0  0  0  0
 40 42  1  0  0  0  0
 40 80  1  0  0  0  0
 41 43  2  0  0  0  0
 41 81  1  0  0  0  0
 42 44  2  0  0  0  0
 42 82  1  0  0  0  0
 43 44  1  0  0  0  0
 43 83  1  0  0  0  0
 44 84  1  0  0  0  0
M  END
> <PUBCHEM_COMPOUND_CID>
503106
> <PUBCHEM_COMPOUND_CANONICALIZED>
1
> <PUBCHEM_CACTVS_COMPLEXITY>
928
> <PUBCHEM_CACTVS_HBOND_ACCEPTOR>
7
> <PUBCHEM_CACTVS_HBOND_DONOR>
5
> <PUBCHEM_CACTVS_ROTATABLE_BOND>
16
> <PUBCHEM_CACTVS_SUBSKEYS>
AAADcfB/uAAAAAAAAAAAAAAAAAAAAAAAAAAwYMAAAAAAAAABUAAAHgAQCAAADLzhmAYyDoLABgCIAiFSGACCCAAkIAAIiIGODMkPdj6E9TueeWjm9hGbqYedyLCOAAAAAAAIAAAAAAAAABAAAAAAAAAAAA==
> <PUBCHEM_IUPAC_OPENEYE_NAME>
benzyl N-[(1S)-3-amino-1-[[(1S,2S)-1-benzyl-3-[2-(tert-butylcarbamoyl)phenoxy]-2-hydroxy-propyl]carbamoyl]-3-oxo-propyl]carbamate
> <PUBCHEM_IUPAC_CAS_NAME>
N-[(2S)-4-amino-1-[[(2S,3S)-4-[2-[(tert-butylamino)-oxomethyl]phenoxy]-3-hydroxy-1-phenylbutan-2-yl]amino]-1,4-dioxobutan-2-yl]carbamic acid (phenylmethyl) ester
> <PUBCHEM_IUPAC_NAME_MARKUP>
benzyl <I>N</I>-[(2<I>S</I>)-4-amino-1-[[(2<I>S</I>,3<I>S</I>)-4-[2-(<I>tert</I>-butylcarbamoyl)phenoxy]-3-hydroxy-1-phenylbutan-2-yl]amino]-1,4-dioxobutan-2-yl]carbamate
> <PUBCHEM_IUPAC_NAME>
benzyl N-[(2S)-4-amino-1-[[(2S,3S)-4-[2-(tert-butylcarbamoyl)phenoxy]-3-hydroxy-1-phenylbutan-2-yl]amino]-1,4-dioxobutan-2-yl]carbamate
> <PUBCHEM_IUPAC_SYSTEMATIC_NAME>
(phenylmethyl) N-[(2S)-4-azanyl-1-[[(2S,3S)-4-[2-(tert-butylcarbamoyl)phenoxy]-3-oxidanyl-1-phenyl-butan-2-yl]amino]-1,4-bis(oxidanylidene)butan-2-yl]carbamate
> <PUBCHEM_IUPAC_TRADITIONAL_NAME>
N-[(1S)-3-amino-1-[[(1S,2S)-1-benzyl-3-[2-(tert-butylcarbamoyl)phenoxy]-2-hydroxy-propyl]carbamoyl]-3-keto-propyl]carbamic acid benzyl ester
> <PUBCHEM_IUPAC_INCHI>
InChI=1S/C33H40N4O7/c1-33(2,3)37-30(40)24-16-10-11-17-28(24)43-21-27(38)25(18-22-12-6-4-7-13-22)35-31(41)26(19-29(34)39)36-32(42)44-20-23-14-8-5-9-15-23/h4-17,25-27,38H,18-21H2,1-3H3,(H2,34,39)(H,35,41)(H,36,42)(H,37,40)/t25-,26-,27+/m0/s1
> <PUBCHEM_IUPAC_INCHIKEY>
CHOPBWGFXRZCKM-GMQQYTKMSA-N
> <PUBCHEM_XLOGP3_AA>
3
> <PUBCHEM_EXACT_MASS>
604.28969963
> <PUBCHEM_MOLECULAR_FORMULA>
C33H40N4O7
> <PUBCHEM_MOLECULAR_WEIGHT>
604.7
> <PUBCHEM_OPENEYE_CAN_SMILES>
CC(C)(C)NC(=O)C1=CC=CC=C1OCC(C(CC2=CC=CC=C2)NC(=O)C(CC(=O)N)NC(=O)OCC3=CC=CC=C3)O
> <PUBCHEM_OPENEYE_ISO_SMILES>
CC(C)(C)NC(=O)C1=CC=CC=C1OC[C@H]([C@H](CC2=CC=CC=C2)NC(=O)[C@H](CC(=O)N)NC(=O)OCC3=CC=CC=C3)O
> <PUBCHEM_CACTVS_TPSA>
169
> <PUBCHEM_MONOISOTOPIC_WEIGHT>
604.28969963
> <PUBCHEM_TOTAL_CHARGE>
0
> <PUBCHEM_HEAVY_ATOM_COUNT>
44
> <PUBCHEM_ATOM_DEF_STEREO_COUNT>
3
> <PUBCHEM_ATOM_UDEF_STEREO_COUNT>
0
> <PUBCHEM_BOND_DEF_STEREO_COUNT>
0
> <PUBCHEM_BOND_UDEF_STEREO_COUNT>
0
> <PUBCHEM_ISOTOPIC_ATOM_COUNT>
0
> <PUBCHEM_COMPONENT_COUNT>
1
> <PUBCHEM_CACTVS_TAUTO_COUNT>
-1
> <PUBCHEM_COORDINATE_TYPE>
1
5
255
> <PUBCHEM_BONDANNOTATIONS>
13  1  6
16  21  8
16  22  8
21  29  8
22  30  8
23  24  8
23  33  8
24  34  8
29  31  8
30  31  8
33  36  8
34  37  8
36  37  8
39  40  8
39  41  8
40  42  8
41  43  8
42  44  8
43  44  8
12  8  6
18  9  6
$$$$
