503100
  -OEChem-10302200282D
 93 95  0     1  0  0  0  0  0999 V2000
   11.5263   -0.9330    0.0000 S   0  0  0  0  0  0  0  0  0  0  0  0
    9.7942    0.0670    0.0000 O   0  0  0  0  0  0  0  0  0  0  0  0
    8.9282    0.5670    0.0000 O   0  0  0  0  0  0  0  0  0  0  0  0
    8.0622    3.0670    0.0000 O   0  0  0  0  0  0  0  0  0  0  0  0
    8.9282    1.5670    0.0000 O   0  0  0  0  0  0  0  0  0  0  0  0
   12.3923    0.5670    0.0000 O   0  0  0  0  0  0  0  0  0  0  0  0
    2.8660    2.0670    0.0000 O   0  0  0  0  0  0  0  0  0  0  0  0
    8.0622   -0.9330    0.0000 N   0  0  0  0  0  0  0  0  0  0  0  0
    7.1962    1.5670    0.0000 N   0  0  0  0  0  0  0  0  0  0  0  0
   14.1244    0.5670    0.0000 N   0  0  0  0  0  0  0  0  0  0  0  0
    8.9282   -1.4330    0.0000 C   0  0  2  0  0  0  0  0  0  0  0  0
    9.7942   -0.9330    0.0000 C   0  0  2  0  0  0  0  0  0  0  0  0
    8.9282   -2.4330    0.0000 C   0  0  0  0  0  0  0  0  0  0  0  0
    7.1962    0.5670    0.0000 C   0  0  2  0  0  0  0  0  0  0  0  0
   10.6603   -1.4330    0.0000 C   0  0  0  0  0  0  0  0  0  0  0  0
    8.0622    0.0670    0.0000 C   0  0  0  0  0  0  0  0  0  0  0  0
    8.0622   -2.9330    0.0000 C   0  0  0  0  0  0  0  0  0  0  0  0
    6.3301    0.0670    0.0000 C   0  0  0  0  0  0  0  0  0  0  0  0
    5.4641    0.5670    0.0000 C   0  0  0  0  0  0  0  0  0  0  0  0
   14.1244    1.5670    0.0000 C   0  0  0  0  0  0  0  0  0  0  0  0
    8.0622   -3.9330    0.0000 C   0  0  0  0  0  0  0  0  0  0  0  0
    7.1962   -2.4330    0.0000 C   0  0  0  0  0  0  0  0  0  0  0  0
   12.3923   -1.4330    0.0000 C   0  0  0  0  0  0  0  0  0  0  0  0
    8.9282    3.5670    0.0000 C   0  0  0  0  0  0  0  0  0  0  0  0
    8.0622    2.0670    0.0000 C   0  0  0  0  0  0  0  0  0  0  0  0
   13.2583   -0.9330    0.0000 C   0  0  0  0  0  0  0  0  0  0  0  0
    7.1962   -4.4330    0.0000 C   0  0  0  0  0  0  0  0  0  0  0  0
    6.3301   -2.9330    0.0000 C   0  0  0  0  0  0  0  0  0  0  0  0
    4.5981    0.0670    0.0000 C   0  0  0  0  0  0  0  0  0  0  0  0
    5.4641    1.5670    0.0000 C   0  0  0  0  0  0  0  0  0  0  0  0
   14.1244    2.5670    0.0000 C   0  0  0  0  0  0  0  0  0  0  0  0
   15.1244    1.5670    0.0000 C   0  0  0  0  0  0  0  0  0  0  0  0
   13.1244    1.5670    0.0000 C   0  0  0  0  0  0  0  0  0  0  0  0
   13.2583    0.0670    0.0000 C   0  0  0  0  0  0  0  0  0  0  0  0
    6.3301   -3.9330    0.0000 C   0  0  0  0  0  0  0  0  0  0  0  0
   12.3923   -2.4330    0.0000 C   0  0  0  0  0  0  0  0  0  0  0  0
    9.7942    4.0670    0.0000 C   0  0  0  0  0  0  0  0  0  0  0  0
    8.4282    4.4330    0.0000 C   0  0  0  0  0  0  0  0  0  0  0  0
    9.4282    2.7010    0.0000 C   0  0  0  0  0  0  0  0  0  0  0  0
   14.1244   -1.4330    0.0000 C   0  0  0  0  0  0  0  0  0  0  0  0
    3.7320    0.5670    0.0000 C   0  0  0  0  0  0  0  0  0  0  0  0
    4.5981    2.0670    0.0000 C   0  0  0  0  0  0  0  0  0  0  0  0
    3.7320    1.5670    0.0000 C   0  0  0  0  0  0  0  0  0  0  0  0
   13.2583   -2.9330    0.0000 C   0  0  0  0  0  0  0  0  0  0  0  0
   14.1244   -2.4330    0.0000 C   0  0  0  0  0  0  0  0  0  0  0  0
    2.0000    1.5670    0.0000 C   0  0  0  0  0  0  0  0  0  0  0  0
    8.9282   -0.8130    0.0000 H   0  0  0  0  0  0  0  0  0  0  0  0
    9.2573   -0.6230    0.0000 H   0  0  0  0  0  0  0  0  0  0  0  0
    9.1403   -3.0156    0.0000 H   0  0  0  0  0  0  0  0  0  0  0  0
    9.5388   -2.3253    0.0000 H   0  0  0  0  0  0  0  0  0  0  0  0
    7.5252   -1.2430    0.0000 H   0  0  0  0  0  0  0  0  0  0  0  0
    6.6592    0.8770    0.0000 H   0  0  0  0  0  0  0  0  0  0  0  0
   10.2617   -1.9080    0.0000 H   0  0  0  0  0  0  0  0  0  0  0  0
   11.0588   -1.9080    0.0000 H   0  0  0  0  0  0  0  0  0  0  0  0
    5.9316   -0.4080    0.0000 H   0  0  0  0  0  0  0  0  0  0  0  0
    6.7287   -0.4080    0.0000 H   0  0  0  0  0  0  0  0  0  0  0  0
    6.6592    1.8770    0.0000 H   0  0  0  0  0  0  0  0  0  0  0  0
   10.3312    0.3770    0.0000 H   0  0  0  0  0  0  0  0  0  0  0  0
    8.5991   -4.2430    0.0000 H   0  0  0  0  0  0  0  0  0  0  0  0
    7.1962   -1.8130    0.0000 H   0  0  0  0  0  0  0  0  0  0  0  0
   14.6613    0.2570    0.0000 H   0  0  0  0  0  0  0  0  0  0  0  0
    7.1962   -5.0530    0.0000 H   0  0  0  0  0  0  0  0  0  0  0  0
    5.7932   -2.6230    0.0000 H   0  0  0  0  0  0  0  0  0  0  0  0
    4.5981   -0.5530    0.0000 H   0  0  0  0  0  0  0  0  0  0  0  0
    6.0010    1.8770    0.0000 H   0  0  0  0  0  0  0  0  0  0  0  0
   14.7444    2.5670    0.0000 H   0  0  0  0  0  0  0  0  0  0  0  0
   14.1244    3.1870    0.0000 H   0  0  0  0  0  0  0  0  0  0  0  0
   13.5044    2.5670    0.0000 H   0  0  0  0  0  0  0  0  0  0  0  0
   15.1244    0.9470    0.0000 H   0  0  0  0  0  0  0  0  0  0  0  0
   15.7444    1.5670    0.0000 H   0  0  0  0  0  0  0  0  0  0  0  0
   15.1244    2.1870    0.0000 H   0  0  0  0  0  0  0  0  0  0  0  0
   13.1244    2.1870    0.0000 H   0  0  0  0  0  0  0  0  0  0  0  0
   12.5044    1.5670    0.0000 H   0  0  0  0  0  0  0  0  0  0  0  0
   13.1244    0.9470    0.0000 H   0  0  0  0  0  0  0  0  0  0  0  0
    5.7932   -4.2430    0.0000 H   0  0  0  0  0  0  0  0  0  0  0  0
   11.8554   -2.7430    0.0000 H   0  0  0  0  0  0  0  0  0  0  0  0
   10.1042    3.5300    0.0000 H   0  0  0  0  0  0  0  0  0  0  0  0
   10.3312    4.3770    0.0000 H   0  0  0  0  0  0  0  0  0  0  0  0
    9.4842    4.6039    0.0000 H   0  0  0  0  0  0  0  0  0  0  0  0
    8.9651    4.7430    0.0000 H   0  0  0  0  0  0  0  0  0  0  0  0
    8.1182    4.9700    0.0000 H   0  0  0  0  0  0  0  0  0  0  0  0
    7.8913    4.1230    0.0000 H   0  0  0  0  0  0  0  0  0  0  0  0
    8.8913    2.3910    0.0000 H   0  0  0  0  0  0  0  0  0  0  0  0
    9.7382    2.1640    0.0000 H   0  0  0  0  0  0  0  0  0  0  0  0
    9.9651    3.0110    0.0000 H   0  0  0  0  0  0  0  0  0  0  0  0
   14.6613   -1.1230    0.0000 H   0  0  0  0  0  0  0  0  0  0  0  0
    3.1951    0.2570    0.0000 H   0  0  0  0  0  0  0  0  0  0  0  0
    4.5981    2.6870    0.0000 H   0  0  0  0  0  0  0  0  0  0  0  0
   13.2583   -3.5530    0.0000 H   0  0  0  0  0  0  0  0  0  0  0  0
   14.6613   -2.7430    0.0000 H   0  0  0  0  0  0  0  0  0  0  0  0
    1.6900    2.1039    0.0000 H   0  0  0  0  0  0  0  0  0  0  0  0
    1.4631    1.2570    0.0000 H   0  0  0  0  0  0  0  0  0  0  0  0
    2.3100    1.0300    0.0000 H   0  0  0  0  0  0  0  0  0  0  0  0
  1 15  1  0  0  0  0
  1 23  1  0  0  0  0
 12  2  1  1  0  0  0
  2 58  1  0  0  0  0
  3 16  2  0  0  0  0
  4 24  1  0  0  0  0
  4 25  1  0  0  0  0
  5 25  2  0  0  0  0
  6 34  2  0  0  0  0
  7 43  1  0  0  0  0
  7 46  1  0  0  0  0
 11  8  1  6  0  0  0
  8 16  1  0  0  0  0
  8 51  1  0  0  0  0
 14  9  1  6  0  0  0
  9 25  1  0  0  0  0
  9 57  1  0  0  0  0
 10 20  1  0  0  0  0
 10 34  1  0  0  0  0
 10 61  1  0  0  0  0
 11 12  1  0  0  0  0
 11 13  1  0  0  0  0
 11 47  1  0  0  0  0
 12 15  1  0  0  0  0
 12 48  1  0  0  0  0
 13 17  1  0  0  0  0
 13 49  1  0  0  0  0
 13 50  1  0  0  0  0
 14 16  1  0  0  0  0
 14 18  1  0  0  0  0
 14 52  1  0  0  0  0
 15 53  1  0  0  0  0
 15 54  1  0  0  0  0
 17 21  2  0  0  0  0
 17 22  1  0  0  0  0
 18 19  1  0  0  0  0
 18 55  1  0  0  0  0
 18 56  1  0  0  0  0
 19 29  2  0  0  0  0
 19 30  1  0  0  0  0
 20 31  1  0  0  0  0
 20 32  1  0  0  0  0
 20 33  1  0  0  0  0
 21 27  1  0  0  0  0
 21 59  1  0  0  0  0
 22 28  2  0  0  0  0
 22 60  1  0  0  0  0
 23 26  1  0  0  0  0
 23 36  2  0  0  0  0
 24 37  1  0  0  0  0
 24 38  1  0  0  0  0
 24 39  1  0  0  0  0
 26 34  1  0  0  0  0
 26 40  2  0  0  0  0
 27 35  2  0  0  0  0
 27 62  1  0  0  0  0
 28 35  1  0  0  0  0
 28 63  1  0  0  0  0
 29 41  1  0  0  0  0
 29 64  1  0  0  0  0
 30 42  2  0  0  0  0
 30 65  1  0  0  0  0
 31 66  1  0  0  0  0
 31 67  1  0  0  0  0
 31 68  1  0  0  0  0
 32 69  1  0  0  0  0
 32 70  1  0  0  0  0
 32 71  1  0  0  0  0
 33 72  1  0  0  0  0
 33 73  1  0  0  0  0
 33 74  1  0  0  0  0
 35 75  1  0  0  0  0
 36 44  1  0  0  0  0
 36 76  1  0  0  0  0
 37 77  1  0  0  0  0
 37 78  1  0  0  0  0
 37 79  1  0  0  0  0
 38 80  1  0  0  0  0
 38 81  1  0  0  0  0
 38 82  1  0  0  0  0
 39 83  1  0  0  0  0
 39 84  1  0  0  0  0
 39 85  1  0  0  0  0
 40 45  1  0  0  0  0
 40 86  1  0  0  0  0
 41 43  2  0  0  0  0
 41 87  1  0  0  0  0
 42 43  1  0  0  0  0
 42 88  1  0  0  0  0
 44 45  2  0  0  0  0
 44 89  1  0  0  0  0
 45 90  1  0  0  0  0
 46 91  1  0  0  0  0
 46 92  1  0  0  0  0
 46 93  1  0  0  0  0
M  END
> <PUBCHEM_COMPOUND_CID>
503100
> <PUBCHEM_COMPOUND_CANONICALIZED>
1
> <PUBCHEM_CACTVS_COMPLEXITY>
952
> <PUBCHEM_CACTVS_HBOND_ACCEPTOR>
7
> <PUBCHEM_CACTVS_HBOND_DONOR>
4
> <PUBCHEM_CACTVS_ROTATABLE_BOND>
16
> <PUBCHEM_CACTVS_SUBSKEYS>
AAADcfB/OABAAAAAAAAAAAAAAAAAAAAAAAAwYMAAAAAAAAABUAAAHgQQCAAADPzl2AayD4LABgiIAiFSGACCCAAkKBAIiJmODMkOdjKktTuccShk1hG4qYeYyKCOIAAAAAAEAABAAAAAAAgAAAAAAAAAAA==
> <PUBCHEM_IUPAC_OPENEYE_NAME>
tert-butyl N-[(1S)-2-[[(1S,2R)-1-benzyl-3-[2-(tert-butylcarbamoyl)phenyl]sulfanyl-2-hydroxy-propyl]amino]-1-[(4-methoxyphenyl)methyl]-2-oxo-ethyl]carbamate
> <PUBCHEM_IUPAC_CAS_NAME>
N-[(2S)-1-[[(2S,3R)-4-[[2-[(tert-butylamino)-oxomethyl]phenyl]thio]-3-hydroxy-1-phenylbutan-2-yl]amino]-3-(4-methoxyphenyl)-1-oxopropan-2-yl]carbamic acid tert-butyl ester
> <PUBCHEM_IUPAC_NAME_MARKUP>
<I>tert</I>-butyl <I>N</I>-[(2<I>S</I>)-1-[[(2<I>S</I>,3<I>R</I>)-4-[2-(<I>tert</I>-butylcarbamoyl)phenyl]sulfanyl-3-hydroxy-1-phenylbutan-2-yl]amino]-3-(4-methoxyphenyl)-1-oxopropan-2-yl]carbamate
> <PUBCHEM_IUPAC_NAME>
tert-butyl N-[(2S)-1-[[(2S,3R)-4-[2-(tert-butylcarbamoyl)phenyl]sulfanyl-3-hydroxy-1-phenylbutan-2-yl]amino]-3-(4-methoxyphenyl)-1-oxopropan-2-yl]carbamate
> <PUBCHEM_IUPAC_SYSTEMATIC_NAME>
tert-butyl N-[(2S)-1-[[(2S,3R)-4-[2-(tert-butylcarbamoyl)phenyl]sulfanyl-3-oxidanyl-1-phenyl-butan-2-yl]amino]-3-(4-methoxyphenyl)-1-oxidanylidene-propan-2-yl]carbamate
> <PUBCHEM_IUPAC_TRADITIONAL_NAME>
N-[(1S)-2-[[(1S,2R)-1-benzyl-3-[[2-(tert-butylcarbamoyl)phenyl]thio]-2-hydroxy-propyl]amino]-2-keto-1-p-anisyl-ethyl]carbamic acid tert-butyl ester
> <PUBCHEM_IUPAC_INCHI>
InChI=1S/C36H47N3O6S/c1-35(2,3)39-32(41)27-15-11-12-16-31(27)46-23-30(40)28(21-24-13-9-8-10-14-24)37-33(42)29(38-34(43)45-36(4,5)6)22-25-17-19-26(44-7)20-18-25/h8-20,28-30,40H,21-23H2,1-7H3,(H,37,42)(H,38,43)(H,39,41)/t28-,29-,30-/m0/s1
> <PUBCHEM_IUPAC_INCHIKEY>
FGOIENUYHUGKFJ-DTXPUJKBSA-N
> <PUBCHEM_XLOGP3_AA>
6.1
> <PUBCHEM_EXACT_MASS>
649.31855740
> <PUBCHEM_MOLECULAR_FORMULA>
C36H47N3O6S
> <PUBCHEM_MOLECULAR_WEIGHT>
649.8
> <PUBCHEM_OPENEYE_CAN_SMILES>
CC(C)(C)NC(=O)C1=CC=CC=C1SCC(C(CC2=CC=CC=C2)NC(=O)C(CC3=CC=C(C=C3)OC)NC(=O)OC(C)(C)C)O
> <PUBCHEM_OPENEYE_ISO_SMILES>
CC(C)(C)NC(=O)C1=CC=CC=C1SC[C@@H]([C@H](CC2=CC=CC=C2)NC(=O)[C@H](CC3=CC=C(C=C3)OC)NC(=O)OC(C)(C)C)O
> <PUBCHEM_CACTVS_TPSA>
151
> <PUBCHEM_MONOISOTOPIC_WEIGHT>
649.31855740
> <PUBCHEM_TOTAL_CHARGE>
0
> <PUBCHEM_HEAVY_ATOM_COUNT>
46
> <PUBCHEM_ATOM_DEF_STEREO_COUNT>
3
> <PUBCHEM_ATOM_UDEF_STEREO_COUNT>
0
> <PUBCHEM_BOND_DEF_STEREO_COUNT>
0
> <PUBCHEM_BOND_UDEF_STEREO_COUNT>
0
> <PUBCHEM_ISOTOPIC_ATOM_COUNT>
0
> <PUBCHEM_COMPONENT_COUNT>
1
> <PUBCHEM_CACTVS_TAUTO_COUNT>
-1
> <PUBCHEM_COORDINATE_TYPE>
1
5
255
> <PUBCHEM_BONDANNOTATIONS>
17  21  8
17  22  8
19  29  8
19  30  8
12  2  5
21  27  8
22  28  8
23  26  8
23  36  8
26  40  8
27  35  8
28  35  8
29  41  8
30  42  8
36  44  8
40  45  8
41  43  8
42  43  8
44  45  8
11  8  6
14  9  6
$$$$
