503187
  -OEChem-10302200282D
102106  0     1  0  0  0  0  0999 V2000
    8.9962    3.6550    0.0000 S   0  0  0  0  0  0  0  0  0  0  0  0
    7.9962    3.6550    0.0000 O   0  0  0  0  0  0  0  0  0  0  0  0
    9.9962    3.6550    0.0000 O   0  0  0  0  0  0  0  0  0  0  0  0
   10.7282   -0.3450    0.0000 O   0  0  0  0  0  0  0  0  0  0  0  0
    7.2641   -0.3450    0.0000 O   0  0  0  0  0  0  0  0  0  0  0  0
    9.8622   -3.8450    0.0000 O   0  0  0  0  0  0  0  0  0  0  0  0
    9.8622   -4.8450    0.0000 O   0  0  0  0  0  0  0  0  0  0  0  0
    6.3981   -4.8450    0.0000 O   0  0  0  0  0  0  0  0  0  0  0  0
    8.9962    0.6550    0.0000 N   0  0  3  0  0  0  0  0  0  0  0  0
    6.3981    1.1550    0.0000 N   0  0  0  0  0  0  0  0  0  0  0  0
    8.9962   -2.3450    0.0000 N   0  0  0  0  0  0  0  0  0  0  0  0
    7.2641   -3.3450    0.0000 N   0  0  0  0  0  0  0  0  0  0  0  0
    8.9962   -6.3450    0.0000 N   0  0  0  0  0  0  0  0  0  0  0  0
    4.6660   -3.8450    0.0000 N   0  0  0  0  0  0  0  0  0  0  0  0
    8.9962    2.6550    0.0000 C   0  0  1  0  0  0  0  0  0  0  0  0
    8.1301    1.1550    0.0000 C   0  0  1  0  0  0  0  0  0  0  0  0
    8.1301    2.1550    0.0000 C   0  0  0  0  0  0  0  0  0  0  0  0
    9.8622    2.1550    0.0000 C   0  0  0  0  0  0  0  0  0  0  0  0
    9.8622    1.1550    0.0000 C   0  0  0  0  0  0  0  0  0  0  0  0
    8.9962   -0.3450    0.0000 C   0  0  0  0  0  0  0  0  0  0  0  0
    9.8622   -0.8450    0.0000 C   0  0  2  0  0  0  0  0  0  0  0  0
    7.2641    0.6550    0.0000 C   0  0  0  0  0  0  0  0  0  0  0  0
    9.8622   -1.8450    0.0000 C   0  0  2  0  0  0  0  0  0  0  0  0
    8.9962    4.6550    0.0000 C   0  0  0  0  0  0  0  0  0  0  0  0
    5.5321    0.6550    0.0000 C   0  0  0  0  0  0  0  0  0  0  0  0
   10.7282   -2.3450    0.0000 C   0  0  0  0  0  0  0  0  0  0  0  0
    9.8622    5.1550    0.0000 C   0  0  0  0  0  0  0  0  0  0  0  0
    8.1301    5.1550    0.0000 C   0  0  0  0  0  0  0  0  0  0  0  0
    4.6660    0.1550    0.0000 C   0  0  0  0  0  0  0  0  0  0  0  0
    5.0321    1.5210    0.0000 C   0  0  0  0  0  0  0  0  0  0  0  0
    6.0321   -0.2110    0.0000 C   0  0  0  0  0  0  0  0  0  0  0  0
   11.5942   -1.8450    0.0000 C   0  0  0  0  0  0  0  0  0  0  0  0
    8.9962   -3.3450    0.0000 C   0  0  0  0  0  0  0  0  0  0  0  0
    9.8622    6.1550    0.0000 C   0  0  0  0  0  0  0  0  0  0  0  0
    8.1301    6.1550    0.0000 C   0  0  0  0  0  0  0  0  0  0  0  0
    8.1301   -3.8450    0.0000 C   0  0  2  0  0  0  0  0  0  0  0  0
    8.9962    6.6550    0.0000 C   0  0  0  0  0  0  0  0  0  0  0  0
   11.5942   -0.8450    0.0000 C   0  0  0  0  0  0  0  0  0  0  0  0
   12.4603   -2.3450    0.0000 C   0  0  0  0  0  0  0  0  0  0  0  0
    8.1301   -4.8450    0.0000 C   0  0  0  0  0  0  0  0  0  0  0  0
   12.4603   -0.3450    0.0000 C   0  0  0  0  0  0  0  0  0  0  0  0
   13.3263   -1.8450    0.0000 C   0  0  0  0  0  0  0  0  0  0  0  0
   13.3263   -0.8450    0.0000 C   0  0  0  0  0  0  0  0  0  0  0  0
    8.9962   -5.3450    0.0000 C   0  0  0  0  0  0  0  0  0  0  0  0
    6.3981   -3.8450    0.0000 C   0  0  0  0  0  0  0  0  0  0  0  0
    5.5321   -3.3450    0.0000 C   0  0  0  0  0  0  0  0  0  0  0  0
    5.5321   -2.3450    0.0000 C   0  0  0  0  0  0  0  0  0  0  0  0
    3.8000   -3.3450    0.0000 C   0  0  0  0  0  0  0  0  0  0  0  0
    4.6660   -1.8450    0.0000 C   0  0  0  0  0  0  0  0  0  0  0  0
    3.8000   -2.3450    0.0000 C   0  0  0  0  0  0  0  0  0  0  0  0
    2.9061   -3.8797    0.0000 C   0  0  0  0  0  0  0  0  0  0  0  0
    2.9061   -1.8103    0.0000 C   0  0  0  0  0  0  0  0  0  0  0  0
    2.0000   -3.3658    0.0000 C   0  0  0  0  0  0  0  0  0  0  0  0
    2.0000   -2.3242    0.0000 C   0  0  0  0  0  0  0  0  0  0  0  0
    9.5331    2.9650    0.0000 H   0  0  0  0  0  0  0  0  0  0  0  0
    8.1301    0.5350    0.0000 H   0  0  0  0  0  0  0  0  0  0  0  0
    7.9181    2.7376    0.0000 H   0  0  0  0  0  0  0  0  0  0  0  0
    7.5196    2.0473    0.0000 H   0  0  0  0  0  0  0  0  0  0  0  0
   10.4728    2.0473    0.0000 H   0  0  0  0  0  0  0  0  0  0  0  0
   10.0742    2.7376    0.0000 H   0  0  0  0  0  0  0  0  0  0  0  0
   10.0742    0.5724    0.0000 H   0  0  0  0  0  0  0  0  0  0  0  0
   10.4728    1.2627    0.0000 H   0  0  0  0  0  0  0  0  0  0  0  0
    8.3856   -0.2373    0.0000 H   0  0  0  0  0  0  0  0  0  0  0  0
    8.7841   -0.9276    0.0000 H   0  0  0  0  0  0  0  0  0  0  0  0
    9.8622   -0.2250    0.0000 H   0  0  0  0  0  0  0  0  0  0  0  0
    9.3252   -1.5350    0.0000 H   0  0  0  0  0  0  0  0  0  0  0  0
    6.3981    1.7750    0.0000 H   0  0  0  0  0  0  0  0  0  0  0  0
   10.3297   -2.8200    0.0000 H   0  0  0  0  0  0  0  0  0  0  0  0
   11.1267   -2.8200    0.0000 H   0  0  0  0  0  0  0  0  0  0  0  0
    8.4592   -2.0350    0.0000 H   0  0  0  0  0  0  0  0  0  0  0  0
   10.7282    0.2750    0.0000 H   0  0  0  0  0  0  0  0  0  0  0  0
   10.3991    4.8450    0.0000 H   0  0  0  0  0  0  0  0  0  0  0  0
    7.5932    4.8450    0.0000 H   0  0  0  0  0  0  0  0  0  0  0  0
    4.3560    0.6919    0.0000 H   0  0  0  0  0  0  0  0  0  0  0  0
    4.1291   -0.1550    0.0000 H   0  0  0  0  0  0  0  0  0  0  0  0
    4.9760   -0.3819    0.0000 H   0  0  0  0  0  0  0  0  0  0  0  0
    5.5690    1.8310    0.0000 H   0  0  0  0  0  0  0  0  0  0  0  0
    4.7221    2.0580    0.0000 H   0  0  0  0  0  0  0  0  0  0  0  0
    4.4951    1.2110    0.0000 H   0  0  0  0  0  0  0  0  0  0  0  0
    5.4951   -0.5210    0.0000 H   0  0  0  0  0  0  0  0  0  0  0  0
    6.3421   -0.7480    0.0000 H   0  0  0  0  0  0  0  0  0  0  0  0
    6.5690    0.0990    0.0000 H   0  0  0  0  0  0  0  0  0  0  0  0
   10.3991    6.4650    0.0000 H   0  0  0  0  0  0  0  0  0  0  0  0
    7.5932    6.4650    0.0000 H   0  0  0  0  0  0  0  0  0  0  0  0
    7.5932   -4.1550    0.0000 H   0  0  0  0  0  0  0  0  0  0  0  0
    8.9962    7.2750    0.0000 H   0  0  0  0  0  0  0  0  0  0  0  0
   11.0573   -0.5350    0.0000 H   0  0  0  0  0  0  0  0  0  0  0  0
   12.4603   -2.9650    0.0000 H   0  0  0  0  0  0  0  0  0  0  0  0
    7.5196   -4.7373    0.0000 H   0  0  0  0  0  0  0  0  0  0  0  0
    7.9181   -5.4276    0.0000 H   0  0  0  0  0  0  0  0  0  0  0  0
    7.2641   -2.7250    0.0000 H   0  0  0  0  0  0  0  0  0  0  0  0
   12.4603    0.2750    0.0000 H   0  0  0  0  0  0  0  0  0  0  0  0
   13.8632   -2.1550    0.0000 H   0  0  0  0  0  0  0  0  0  0  0  0
   13.8632   -0.5350    0.0000 H   0  0  0  0  0  0  0  0  0  0  0  0
    9.5331   -6.6550    0.0000 H   0  0  0  0  0  0  0  0  0  0  0  0
    8.4592   -6.6550    0.0000 H   0  0  0  0  0  0  0  0  0  0  0  0
    6.0690   -2.0350    0.0000 H   0  0  0  0  0  0  0  0  0  0  0  0
    4.6660   -1.2250    0.0000 H   0  0  0  0  0  0  0  0  0  0  0  0
    2.9132   -4.4996    0.0000 H   0  0  0  0  0  0  0  0  0  0  0  0
    2.9132   -1.1904    0.0000 H   0  0  0  0  0  0  0  0  0  0  0  0
    1.4643   -3.6779    0.0000 H   0  0  0  0  0  0  0  0  0  0  0  0
    1.4643   -2.0121    0.0000 H   0  0  0  0  0  0  0  0  0  0  0  0
  1  2  2  0  0  0  0
  1  3  2  0  0  0  0
 15  1  1  6  0  0  0
  1 24  1  0  0  0  0
 21  4  1  1  0  0  0
  4 71  1  0  0  0  0
  5 22  2  0  0  0  0
  6 33  2  0  0  0  0
  7 44  2  0  0  0  0
  8 45  2  0  0  0  0
  9 16  1  0  0  0  0
  9 19  1  0  0  0  0
  9 20  1  0  0  0  0
 10 22  1  0  0  0  0
 10 25  1  0  0  0  0
 10 67  1  0  0  0  0
 23 11  1  6  0  0  0
 11 33  1  0  0  0  0
 11 70  1  0  0  0  0
 36 12  1  6  0  0  0
 12 45  1  0  0  0  0
 12 91  1  0  0  0  0
 13 44  1  0  0  0  0
 13 95  1  0  0  0  0
 13 96  1  0  0  0  0
 14 46  2  0  0  0  0
 14 48  1  0  0  0  0
 15 17  1  0  0  0  0
 15 18  1  0  0  0  0
 15 55  1  0  0  0  0
 16 17  1  0  0  0  0
 16 22  1  6  0  0  0
 16 56  1  0  0  0  0
 17 57  1  0  0  0  0
 17 58  1  0  0  0  0
 18 19  1  0  0  0  0
 18 59  1  0  0  0  0
 18 60  1  0  0  0  0
 19 61  1  0  0  0  0
 19 62  1  0  0  0  0
 20 21  1  0  0  0  0
 20 63  1  0  0  0  0
 20 64  1  0  0  0  0
 21 23  1  0  0  0  0
 21 65  1  0  0  0  0
 23 26  1  0  0  0  0
 23 66  1  0  0  0  0
 24 27  2  0  0  0  0
 24 28  1  0  0  0  0
 25 29  1  0  0  0  0
 25 30  1  0  0  0  0
 25 31  1  0  0  0  0
 26 32  1  0  0  0  0
 26 68  1  0  0  0  0
 26 69  1  0  0  0  0
 27 34  1  0  0  0  0
 27 72  1  0  0  0  0
 28 35  2  0  0  0  0
 28 73  1  0  0  0  0
 29 74  1  0  0  0  0
 29 75  1  0  0  0  0
 29 76  1  0  0  0  0
 30 77  1  0  0  0  0
 30 78  1  0  0  0  0
 30 79  1  0  0  0  0
 31 80  1  0  0  0  0
 31 81  1  0  0  0  0
 31 82  1  0  0  0  0
 32 38  2  0  0  0  0
 32 39  1  0  0  0  0
 33 36  1  0  0  0  0
 34 37  2  0  0  0  0
 34 83  1  0  0  0  0
 35 37  1  0  0  0  0
 35 84  1  0  0  0  0
 36 40  1  0  0  0  0
 36 85  1  0  0  0  0
 37 86  1  0  0  0  0
 38 41  1  0  0  0  0
 38 87  1  0  0  0  0
 39 42  2  0  0  0  0
 39 88  1  0  0  0  0
 40 44  1  0  0  0  0
 40 89  1  0  0  0  0
 40 90  1  0  0  0  0
 41 43  2  0  0  0  0
 41 92  1  0  0  0  0
 42 43  1  0  0  0  0
 42 93  1  0  0  0  0
 43 94  1  0  0  0  0
 45 46  1  0  0  0  0
 46 47  1  0  0  0  0
 47 49  2  0  0  0  0
 47 97  1  0  0  0  0
 48 50  1  0  0  0  0
 48 51  2  0  0  0  0
 49 50  1  0  0  0  0
 49 98  1  0  0  0  0
 50 52  2  0  0  0  0
 51 53  1  0  0  0  0
 51 99  1  0  0  0  0
 52 54  1  0  0  0  0
 52100  1  0  0  0  0
 53 54  2  0  0  0  0
 53101  1  0  0  0  0
 54102  1  0  0  0  0
M  END
> <PUBCHEM_COMPOUND_CID>
503187
> <PUBCHEM_COMPOUND_CANONICALIZED>
1
> <PUBCHEM_CACTVS_COMPLEXITY>
1390
> <PUBCHEM_CACTVS_HBOND_ACCEPTOR>
9
> <PUBCHEM_CACTVS_HBOND_DONOR>
5
> <PUBCHEM_CACTVS_ROTATABLE_BOND>
15
> <PUBCHEM_CACTVS_SUBSKEYS>
AAADcfB/uABAAAAAAAAAAAAAAAAAAAAAAAA8eMECAAAAAACx9AAAHgQQCAAADLzl3gaywfPIEgqoAyVyVHDCgCAnCjAImLm4ZNgKcPrg1bGUYQhklgD4yYedyKCOAAAAAAACAAAAAAAAAAQAAAAAAAAAAA==
> <PUBCHEM_IUPAC_OPENEYE_NAME>
(2S)-N-[(1S,2R)-3-[(2S,4R)-4-(benzenesulfonyl)-2-(tert-butylcarbamoyl)-1-piperidyl]-1-benzyl-2-hydroxy-propyl]-2-(quinoline-2-carbonylamino)butanediamide
> <PUBCHEM_IUPAC_CAS_NAME>
(2S)-N-[(2S,3R)-4-[(2S,4R)-4-(benzenesulfonyl)-2-[(tert-butylamino)-oxomethyl]-1-piperidinyl]-3-hydroxy-1-phenylbutan-2-yl]-2-[[oxo(2-quinolinyl)methyl]amino]butanediamide
> <PUBCHEM_IUPAC_NAME_MARKUP>
(2<I>S</I>)-<I>N</I>-[(2<I>S</I>,3<I>R</I>)-4-[(2<I>S</I>,4<I>R</I>)-4-(benzenesulfonyl)-2-(<I>tert</I>-butylcarbamoyl)piperidin-1-yl]-3-hydroxy-1-phenylbutan-2-yl]-2-(quinoline-2-carbonylamino)butanediamide
> <PUBCHEM_IUPAC_NAME>
(2S)-N-[(2S,3R)-4-[(2S,4R)-4-(benzenesulfonyl)-2-(tert-butylcarbamoyl)piperidin-1-yl]-3-hydroxy-1-phenylbutan-2-yl]-2-(quinoline-2-carbonylamino)butanediamide
> <PUBCHEM_IUPAC_SYSTEMATIC_NAME>
(2S)-N-[(2S,3R)-4-[(2S,4R)-2-(tert-butylcarbamoyl)-4-(phenylsulfonyl)piperidin-1-yl]-3-oxidanyl-1-phenyl-butan-2-yl]-2-(quinolin-2-ylcarbonylamino)butanediamide
> <PUBCHEM_IUPAC_TRADITIONAL_NAME>
(2S)-N-[(1S,2R)-1-benzyl-3-[(2S,4R)-4-besyl-2-(tert-butylcarbamoyl)piperidino]-2-hydroxy-propyl]-2-(quinaldoylamino)succinamide
> <PUBCHEM_IUPAC_INCHI>
InChI=1S/C40H48N6O7S/c1-40(2,3)45-39(51)34-23-29(54(52,53)28-15-8-5-9-16-28)20-21-46(34)25-35(47)32(22-26-12-6-4-7-13-26)43-38(50)33(24-36(41)48)44-37(49)31-19-18-27-14-10-11-17-30(27)42-31/h4-19,29,32-35,47H,20-25H2,1-3H3,(H2,41,48)(H,43,50)(H,44,49)(H,45,51)/t29-,32+,33+,34+,35-/m1/s1
> <PUBCHEM_IUPAC_INCHIKEY>
FQHBDBYVAMSRRA-BTWQBLKXSA-N
> <PUBCHEM_XLOGP3_AA>
3.3
> <PUBCHEM_EXACT_MASS>
756.33051906
> <PUBCHEM_MOLECULAR_FORMULA>
C40H48N6O7S
> <PUBCHEM_MOLECULAR_WEIGHT>
756.9
> <PUBCHEM_OPENEYE_CAN_SMILES>
CC(C)(C)NC(=O)C1CC(CCN1CC(C(CC2=CC=CC=C2)NC(=O)C(CC(=O)N)NC(=O)C3=NC4=CC=CC=C4C=C3)O)S(=O)(=O)C5=CC=CC=C5
> <PUBCHEM_OPENEYE_ISO_SMILES>
CC(C)(C)NC(=O)[C@@H]1C[C@@H](CCN1C[C@H]([C@H](CC2=CC=CC=C2)NC(=O)[C@H](CC(=O)N)NC(=O)C3=NC4=CC=CC=C4C=C3)O)S(=O)(=O)C5=CC=CC=C5
> <PUBCHEM_CACTVS_TPSA>
209
> <PUBCHEM_MONOISOTOPIC_WEIGHT>
756.33051906
> <PUBCHEM_TOTAL_CHARGE>
0
> <PUBCHEM_HEAVY_ATOM_COUNT>
54
> <PUBCHEM_ATOM_DEF_STEREO_COUNT>
5
> <PUBCHEM_ATOM_UDEF_STEREO_COUNT>
0
> <PUBCHEM_BOND_DEF_STEREO_COUNT>
0
> <PUBCHEM_BOND_UDEF_STEREO_COUNT>
0
> <PUBCHEM_ISOTOPIC_ATOM_COUNT>
0
> <PUBCHEM_COMPONENT_COUNT>
1
> <PUBCHEM_CACTVS_TAUTO_COUNT>
-1
> <PUBCHEM_COORDINATE_TYPE>
1
5
255
> <PUBCHEM_BONDANNOTATIONS>
15  1  6
23  11  6
36  12  6
14  46  8
14  48  8
16  22  6
24  27  8
24  28  8
27  34  8
28  35  8
32  38  8
32  39  8
34  37  8
35  37  8
38  41  8
39  42  8
21  4  5
41  43  8
42  43  8
46  47  8
47  49  8
48  50  8
48  51  8
49  50  8
50  52  8
51  53  8
52  54  8
53  54  8
$$$$
