503196
  -OEChem-10302200282D
 89 92  0     1  0  0  0  0  0999 V2000
    6.3301    3.0000    0.0000 S   0  0  0  0  0  0  0  0  0  0  0  0
    8.0622   -1.0000    0.0000 O   0  0  0  0  0  0  0  0  0  0  0  0
    4.5981   -1.0000    0.0000 O   0  0  0  0  0  0  0  0  0  0  0  0
    9.7942   -3.0000    0.0000 O   0  0  0  0  0  0  0  0  0  0  0  0
    8.9282   -1.5000    0.0000 O   0  0  0  0  0  0  0  0  0  0  0  0
    6.3301   -0.0000    0.0000 N   0  0  3  0  0  0  0  0  0  0  0  0
    3.7320    0.5000    0.0000 N   0  0  0  0  0  0  0  0  0  0  0  0
    8.0622   -3.0000    0.0000 N   0  0  0  0  0  0  0  0  0  0  0  0
    8.0622    3.0000    0.0000 N   0  0  0  0  0  0  0  0  0  0  0  0
    7.1962    4.5000    0.0000 N   0  0  0  0  0  0  0  0  0  0  0  0
    5.4641    0.5000    0.0000 C   0  0  1  0  0  0  0  0  0  0  0  0
    5.4641    1.5000    0.0000 C   0  0  0  0  0  0  0  0  0  0  0  0
    6.3301    2.0000    0.0000 C   0  0  1  0  0  0  0  0  0  0  0  0
    7.1962    0.5000    0.0000 C   0  0  0  0  0  0  0  0  0  0  0  0
    7.1962    1.5000    0.0000 C   0  0  0  0  0  0  0  0  0  0  0  0
    6.3301   -1.0000    0.0000 C   0  0  0  0  0  0  0  0  0  0  0  0
    7.1962   -1.5000    0.0000 C   0  0  2  0  0  0  0  0  0  0  0  0
    4.5981   -0.0000    0.0000 C   0  0  0  0  0  0  0  0  0  0  0  0
    7.1962   -2.5000    0.0000 C   0  0  2  0  0  0  0  0  0  0  0  0
    2.8660   -0.0000    0.0000 C   0  0  0  0  0  0  0  0  0  0  0  0
    6.3301   -3.0000    0.0000 C   0  0  0  0  0  0  0  0  0  0  0  0
    2.0000   -0.5000    0.0000 C   0  0  0  0  0  0  0  0  0  0  0  0
    2.3660    0.8660    0.0000 C   0  0  0  0  0  0  0  0  0  0  0  0
    3.3660   -0.8660    0.0000 C   0  0  0  0  0  0  0  0  0  0  0  0
    7.1962    3.5000    0.0000 C   0  0  0  0  0  0  0  0  0  0  0  0
    6.3301   -4.0000    0.0000 C   0  0  0  0  0  0  0  0  0  0  0  0
    8.9282   -2.5000    0.0000 C   0  0  0  0  0  0  0  0  0  0  0  0
    5.4641   -4.5000    0.0000 C   0  0  0  0  0  0  0  0  0  0  0  0
    7.1962   -4.5000    0.0000 C   0  0  0  0  0  0  0  0  0  0  0  0
    8.0622    5.0000    0.0000 C   0  0  0  0  0  0  0  0  0  0  0  0
    8.9282    3.5000    0.0000 C   0  0  0  0  0  0  0  0  0  0  0  0
    5.4641   -5.5000    0.0000 C   0  0  0  0  0  0  0  0  0  0  0  0
    7.1962   -5.5000    0.0000 C   0  0  0  0  0  0  0  0  0  0  0  0
    8.9282    4.5000    0.0000 C   0  0  0  0  0  0  0  0  0  0  0  0
    6.3301   -6.0000    0.0000 C   0  0  0  0  0  0  0  0  0  0  0  0
   10.6603   -2.5000    0.0000 C   0  0  0  0  0  0  0  0  0  0  0  0
    8.0622    6.0000    0.0000 C   0  0  0  0  0  0  0  0  0  0  0  0
    9.7942    3.0000    0.0000 C   0  0  0  0  0  0  0  0  0  0  0  0
   11.5263   -3.0000    0.0000 C   0  0  0  0  0  0  0  0  0  0  0  0
   12.3923   -2.5000    0.0000 C   0  0  0  0  0  0  0  0  0  0  0  0
   11.5263   -4.0000    0.0000 C   0  0  0  0  0  0  0  0  0  0  0  0
   13.2583   -3.0000    0.0000 C   0  0  0  0  0  0  0  0  0  0  0  0
   12.3923   -4.5000    0.0000 C   0  0  0  0  0  0  0  0  0  0  0  0
   13.2583   -4.0000    0.0000 C   0  0  0  0  0  0  0  0  0  0  0  0
    5.4641   -0.1200    0.0000 H   0  0  0  0  0  0  0  0  0  0  0  0
    5.2520    2.0826    0.0000 H   0  0  0  0  0  0  0  0  0  0  0  0
    4.8535    1.3923    0.0000 H   0  0  0  0  0  0  0  0  0  0  0  0
    6.8671    2.3100    0.0000 H   0  0  0  0  0  0  0  0  0  0  0  0
    7.4082   -0.0826    0.0000 H   0  0  0  0  0  0  0  0  0  0  0  0
    7.8067    0.6077    0.0000 H   0  0  0  0  0  0  0  0  0  0  0  0
    7.8067    1.3923    0.0000 H   0  0  0  0  0  0  0  0  0  0  0  0
    7.4082    2.0826    0.0000 H   0  0  0  0  0  0  0  0  0  0  0  0
    5.7196   -0.8923    0.0000 H   0  0  0  0  0  0  0  0  0  0  0  0
    6.1181   -1.5826    0.0000 H   0  0  0  0  0  0  0  0  0  0  0  0
    7.7331   -1.8100    0.0000 H   0  0  0  0  0  0  0  0  0  0  0  0
    7.1962   -3.1200    0.0000 H   0  0  0  0  0  0  0  0  0  0  0  0
    3.7320    1.1200    0.0000 H   0  0  0  0  0  0  0  0  0  0  0  0
    6.1181   -2.4174    0.0000 H   0  0  0  0  0  0  0  0  0  0  0  0
    5.7196   -3.1077    0.0000 H   0  0  0  0  0  0  0  0  0  0  0  0
    8.0622   -3.6200    0.0000 H   0  0  0  0  0  0  0  0  0  0  0  0
    8.0622   -0.3800    0.0000 H   0  0  0  0  0  0  0  0  0  0  0  0
    1.6900    0.0369    0.0000 H   0  0  0  0  0  0  0  0  0  0  0  0
    1.4631   -0.8100    0.0000 H   0  0  0  0  0  0  0  0  0  0  0  0
    2.3100   -1.0369    0.0000 H   0  0  0  0  0  0  0  0  0  0  0  0
    2.9030    1.1760    0.0000 H   0  0  0  0  0  0  0  0  0  0  0  0
    2.0560    1.4030    0.0000 H   0  0  0  0  0  0  0  0  0  0  0  0
    1.8291    0.5560    0.0000 H   0  0  0  0  0  0  0  0  0  0  0  0
    2.8291   -1.1760    0.0000 H   0  0  0  0  0  0  0  0  0  0  0  0
    3.6760   -1.4030    0.0000 H   0  0  0  0  0  0  0  0  0  0  0  0
    3.9030   -0.5560    0.0000 H   0  0  0  0  0  0  0  0  0  0  0  0
    4.9272   -4.1900    0.0000 H   0  0  0  0  0  0  0  0  0  0  0  0
    7.7331   -4.1900    0.0000 H   0  0  0  0  0  0  0  0  0  0  0  0
    4.9272   -5.8100    0.0000 H   0  0  0  0  0  0  0  0  0  0  0  0
    7.7331   -5.8100    0.0000 H   0  0  0  0  0  0  0  0  0  0  0  0
    9.4651    4.8100    0.0000 H   0  0  0  0  0  0  0  0  0  0  0  0
    6.3301   -6.6200    0.0000 H   0  0  0  0  0  0  0  0  0  0  0  0
   11.0588   -2.0250    0.0000 H   0  0  0  0  0  0  0  0  0  0  0  0
   10.2617   -2.0250    0.0000 H   0  0  0  0  0  0  0  0  0  0  0  0
    8.6822    6.0000    0.0000 H   0  0  0  0  0  0  0  0  0  0  0  0
    8.0622    6.6200    0.0000 H   0  0  0  0  0  0  0  0  0  0  0  0
    7.4422    6.0000    0.0000 H   0  0  0  0  0  0  0  0  0  0  0  0
    9.4842    2.4631    0.0000 H   0  0  0  0  0  0  0  0  0  0  0  0
   10.3312    2.6900    0.0000 H   0  0  0  0  0  0  0  0  0  0  0  0
   10.1042    3.5369    0.0000 H   0  0  0  0  0  0  0  0  0  0  0  0
   12.3923   -1.8800    0.0000 H   0  0  0  0  0  0  0  0  0  0  0  0
   10.9893   -4.3100    0.0000 H   0  0  0  0  0  0  0  0  0  0  0  0
   13.7953   -2.6900    0.0000 H   0  0  0  0  0  0  0  0  0  0  0  0
   12.3923   -5.1200    0.0000 H   0  0  0  0  0  0  0  0  0  0  0  0
   13.7953   -4.3100    0.0000 H   0  0  0  0  0  0  0  0  0  0  0  0
 13  1  1  6  0  0  0
  1 25  1  0  0  0  0
 17  2  1  1  0  0  0
  2 61  1  0  0  0  0
  3 18  2  0  0  0  0
  4 27  1  0  0  0  0
  4 36  1  0  0  0  0
  5 27  2  0  0  0  0
  6 11  1  0  0  0  0
  6 14  1  0  0  0  0
  6 16  1  0  0  0  0
  7 18  1  0  0  0  0
  7 20  1  0  0  0  0
  7 57  1  0  0  0  0
 19  8  1  1  0  0  0
  8 27  1  0  0  0  0
  8 60  1  0  0  0  0
  9 25  2  0  0  0  0
  9 31  1  0  0  0  0
 10 25  1  0  0  0  0
 10 30  2  0  0  0  0
 11 12  1  0  0  0  0
 11 18  1  6  0  0  0
 11 45  1  0  0  0  0
 12 13  1  0  0  0  0
 12 46  1  0  0  0  0
 12 47  1  0  0  0  0
 13 15  1  0  0  0  0
 13 48  1  0  0  0  0
 14 15  1  0  0  0  0
 14 49  1  0  0  0  0
 14 50  1  0  0  0  0
 15 51  1  0  0  0  0
 15 52  1  0  0  0  0
 16 17  1  0  0  0  0
 16 53  1  0  0  0  0
 16 54  1  0  0  0  0
 17 19  1  0  0  0  0
 17 55  1  0  0  0  0
 19 21  1  0  0  0  0
 19 56  1  0  0  0  0
 20 22  1  0  0  0  0
 20 23  1  0  0  0  0
 20 24  1  0  0  0  0
 21 26  1  0  0  0  0
 21 58  1  0  0  0  0
 21 59  1  0  0  0  0
 22 62  1  0  0  0  0
 22 63  1  0  0  0  0
 22 64  1  0  0  0  0
 23 65  1  0  0  0  0
 23 66  1  0  0  0  0
 23 67  1  0  0  0  0
 24 68  1  0  0  0  0
 24 69  1  0  0  0  0
 24 70  1  0  0  0  0
 26 28  2  0  0  0  0
 26 29  1  0  0  0  0
 28 32  1  0  0  0  0
 28 71  1  0  0  0  0
 29 33  2  0  0  0  0
 29 72  1  0  0  0  0
 30 34  1  0  0  0  0
 30 37  1  0  0  0  0
 31 34  2  0  0  0  0
 31 38  1  0  0  0  0
 32 35  2  0  0  0  0
 32 73  1  0  0  0  0
 33 35  1  0  0  0  0
 33 74  1  0  0  0  0
 34 75  1  0  0  0  0
 35 76  1  0  0  0  0
 36 39  1  0  0  0  0
 36 77  1  0  0  0  0
 36 78  1  0  0  0  0
 37 79  1  0  0  0  0
 37 80  1  0  0  0  0
 37 81  1  0  0  0  0
 38 82  1  0  0  0  0
 38 83  1  0  0  0  0
 38 84  1  0  0  0  0
 39 40  2  0  0  0  0
 39 41  1  0  0  0  0
 40 42  1  0  0  0  0
 40 85  1  0  0  0  0
 41 43  2  0  0  0  0
 41 86  1  0  0  0  0
 42 44  2  0  0  0  0
 42 87  1  0  0  0  0
 43 44  1  0  0  0  0
 43 88  1  0  0  0  0
 44 89  1  0  0  0  0
M  END
> <PUBCHEM_COMPOUND_CID>
503196
> <PUBCHEM_COMPOUND_CANONICALIZED>
1
> <PUBCHEM_CACTVS_COMPLEXITY>
881
> <PUBCHEM_CACTVS_HBOND_ACCEPTOR>
8
> <PUBCHEM_CACTVS_HBOND_DONOR>
3
> <PUBCHEM_CACTVS_ROTATABLE_BOND>
13
> <PUBCHEM_CACTVS_SUBSKEYS>
AAADcfB/uABAAAAAAAAAAAAAAAAAAAAAAAA8eIEAAAAAAAAB0AAAHgQQCAAADLzl3gazmJfIFgioAyVyfACC0ClhArAJmKG4bJmKfjLg+fmcdAhs1gPY6CeYyKAOAAAAAAAAAAAAAAAAAAAAAAAAAAAAAA==
> <PUBCHEM_IUPAC_OPENEYE_NAME>
benzyl N-[(1S,2R)-1-benzyl-3-[(2S,4R)-2-(tert-butylcarbamoyl)-4-(4,6-dimethylpyrimidin-2-yl)sulfanyl-1-piperidyl]-2-hydroxy-propyl]carbamate
> <PUBCHEM_IUPAC_CAS_NAME>
N-[(2S,3R)-4-[(2S,4R)-2-[(tert-butylamino)-oxomethyl]-4-[(4,6-dimethyl-2-pyrimidinyl)thio]-1-piperidinyl]-3-hydroxy-1-phenylbutan-2-yl]carbamic acid (phenylmethyl) ester
> <PUBCHEM_IUPAC_NAME_MARKUP>
benzyl <I>N</I>-[(2<I>S</I>,3<I>R</I>)-4-[(2<I>S</I>,4<I>R</I>)-2-(<I>tert</I>-butylcarbamoyl)-4-(4,6-dimethylpyrimidin-2-yl)sulfanylpiperidin-1-yl]-3-hydroxy-1-phenylbutan-2-yl]carbamate
> <PUBCHEM_IUPAC_NAME>
benzyl N-[(2S,3R)-4-[(2S,4R)-2-(tert-butylcarbamoyl)-4-(4,6-dimethylpyrimidin-2-yl)sulfanylpiperidin-1-yl]-3-hydroxy-1-phenylbutan-2-yl]carbamate
> <PUBCHEM_IUPAC_SYSTEMATIC_NAME>
(phenylmethyl) N-[(2S,3R)-4-[(2S,4R)-2-(tert-butylcarbamoyl)-4-(4,6-dimethylpyrimidin-2-yl)sulfanyl-piperidin-1-yl]-3-oxidanyl-1-phenyl-butan-2-yl]carbamate
> <PUBCHEM_IUPAC_TRADITIONAL_NAME>
N-[(1S,2R)-1-benzyl-3-[(2S,4R)-2-(tert-butylcarbamoyl)-4-[(4,6-dimethylpyrimidin-2-yl)thio]piperidino]-2-hydroxy-propyl]carbamic acid benzyl ester
> <PUBCHEM_IUPAC_INCHI>
InChI=1S/C34H45N5O4S/c1-23-18-24(2)36-32(35-23)44-27-16-17-39(29(20-27)31(41)38-34(3,4)5)21-30(40)28(19-25-12-8-6-9-13-25)37-33(42)43-22-26-14-10-7-11-15-26/h6-15,18,27-30,40H,16-17,19-22H2,1-5H3,(H,37,42)(H,38,41)/t27-,28+,29+,30-/m1/s1
> <PUBCHEM_IUPAC_INCHIKEY>
SBUJKUIDWOZMCV-IBHPWDLASA-N
> <PUBCHEM_XLOGP3_AA>
5.4
> <PUBCHEM_EXACT_MASS>
619.31922611
> <PUBCHEM_MOLECULAR_FORMULA>
C34H45N5O4S
> <PUBCHEM_MOLECULAR_WEIGHT>
619.8
> <PUBCHEM_OPENEYE_CAN_SMILES>
CC1=CC(=NC(=N1)SC2CCN(C(C2)C(=O)NC(C)(C)C)CC(C(CC3=CC=CC=C3)NC(=O)OCC4=CC=CC=C4)O)C
> <PUBCHEM_OPENEYE_ISO_SMILES>
CC1=CC(=NC(=N1)S[C@@H]2CCN([C@@H](C2)C(=O)NC(C)(C)C)C[C@H]([C@H](CC3=CC=CC=C3)NC(=O)OCC4=CC=CC=C4)O)C
> <PUBCHEM_CACTVS_TPSA>
142
> <PUBCHEM_MONOISOTOPIC_WEIGHT>
619.31922611
> <PUBCHEM_TOTAL_CHARGE>
0
> <PUBCHEM_HEAVY_ATOM_COUNT>
44
> <PUBCHEM_ATOM_DEF_STEREO_COUNT>
4
> <PUBCHEM_ATOM_UDEF_STEREO_COUNT>
0
> <PUBCHEM_BOND_DEF_STEREO_COUNT>
0
> <PUBCHEM_BOND_UDEF_STEREO_COUNT>
0
> <PUBCHEM_ISOTOPIC_ATOM_COUNT>
0
> <PUBCHEM_COMPONENT_COUNT>
1
> <PUBCHEM_CACTVS_TAUTO_COUNT>
-1
> <PUBCHEM_COORDINATE_TYPE>
1
5
255
> <PUBCHEM_BONDANNOTATIONS>
13  1  6
10  25  8
10  30  8
11  18  6
17  2  5
26  28  8
26  29  8
28  32  8
29  33  8
30  34  8
31  34  8
32  35  8
33  35  8
39  40  8
39  41  8
40  42  8
41  43  8
42  44  8
43  44  8
19  8  5
9  25  8
9  31  8
$$$$
