503162
  -OEChem-10302200282D
 32 34  0     1  0  0  0  0  0999 V2000
    7.6628    1.3470    0.0000 O   0  0  0  0  0  0  0  0  0  0  0  0
    4.6783    0.2731    0.0000 N   0  0  0  0  0  0  0  0  0  0  0  0
    4.6783   -1.3364    0.0000 N   0  0  0  0  0  0  0  0  0  0  0  0
    2.8660    0.4684    0.0000 N   0  0  0  0  0  0  0  0  0  0  0  0
    2.0000   -1.0316    0.0000 N   0  0  0  0  0  0  0  0  0  0  0  0
    2.8660   -2.5316    0.0000 N   0  0  0  0  0  0  0  0  0  0  0  0
    4.9889    1.2236    0.0000 C   0  0  2  0  0  0  0  0  0  0  0  0
    5.9405    1.5310    0.0000 C   0  0  1  0  0  0  0  0  0  0  0  0
    4.4026    2.0336    0.0000 C   0  0  0  0  0  0  0  0  0  0  0  0
    5.9422    2.5310    0.0000 C   0  0  0  0  0  0  0  0  0  0  0  0
    4.9917    2.8416    0.0000 C   0  0  0  0  0  0  0  0  0  0  0  0
    6.7485    0.9418    0.0000 C   0  0  0  0  0  0  0  0  0  0  0  0
    3.7320   -0.0316    0.0000 C   0  0  0  0  0  0  0  0  0  0  0  0
    5.2619   -0.5316    0.0000 C   0  0  0  0  0  0  0  0  0  0  0  0
    3.7320   -1.0316    0.0000 C   0  0  0  0  0  0  0  0  0  0  0  0
    2.8660   -1.5316    0.0000 C   0  0  0  0  0  0  0  0  0  0  0  0
    2.0000   -0.0316    0.0000 C   0  0  0  0  0  0  0  0  0  0  0  0
    5.4266    0.7844    0.0000 H   0  0  0  0  0  0  0  0  0  0  0  0
    6.4934    1.8115    0.0000 H   0  0  0  0  0  0  0  0  0  0  0  0
    3.9425    2.4493    0.0000 H   0  0  0  0  0  0  0  0  0  0  0  0
    3.9411    1.6196    0.0000 H   0  0  0  0  0  0  0  0  0  0  0  0
    6.5587    2.4651    0.0000 H   0  0  0  0  0  0  0  0  0  0  0  0
    6.0722    3.1372    0.0000 H   0  0  0  0  0  0  0  0  0  0  0  0
    5.2449    3.4076    0.0000 H   0  0  0  0  0  0  0  0  0  0  0  0
    4.4553    3.1526    0.0000 H   0  0  0  0  0  0  0  0  0  0  0  0
    6.3018    0.5119    0.0000 H   0  0  0  0  0  0  0  0  0  0  0  0
    7.0943    0.4272    0.0000 H   0  0  0  0  0  0  0  0  0  0  0  0
    5.8819   -0.5316    0.0000 H   0  0  0  0  0  0  0  0  0  0  0  0
    8.1637    0.9817    0.0000 H   0  0  0  0  0  0  0  0  0  0  0  0
    1.4631    0.2784    0.0000 H   0  0  0  0  0  0  0  0  0  0  0  0
    2.3291   -2.8416    0.0000 H   0  0  0  0  0  0  0  0  0  0  0  0
    3.4030   -2.8416    0.0000 H   0  0  0  0  0  0  0  0  0  0  0  0
  1 12  1  0  0  0  0
  1 29  1  0  0  0  0
  7  2  1  1  0  0  0
  2 13  1  0  0  0  0
  2 14  1  0  0  0  0
  3 14  2  0  0  0  0
  3 15  1  0  0  0  0
  4 13  2  0  0  0  0
  4 17  1  0  0  0  0
  5 16  1  0  0  0  0
  5 17  2  0  0  0  0
  6 16  1  0  0  0  0
  6 31  1  0  0  0  0
  6 32  1  0  0  0  0
  7  8  1  0  0  0  0
  7  9  1  0  0  0  0
  7 18  1  0  0  0  0
  8 10  1  0  0  0  0
  8 12  1  1  0  0  0
  8 19  1  0  0  0  0
  9 11  1  0  0  0  0
  9 20  1  0  0  0  0
  9 21  1  0  0  0  0
 10 11  1  0  0  0  0
 10 22  1  0  0  0  0
 10 23  1  0  0  0  0
 11 24  1  0  0  0  0
 11 25  1  0  0  0  0
 12 26  1  0  0  0  0
 12 27  1  0  0  0  0
 13 15  1  0  0  0  0
 14 28  1  0  0  0  0
 15 16  2  0  0  0  0
 17 30  1  0  0  0  0
M  END
> <PUBCHEM_COMPOUND_CID>
503162
> <PUBCHEM_COMPOUND_CANONICALIZED>
1
> <PUBCHEM_CACTVS_COMPLEXITY>
277
> <PUBCHEM_CACTVS_HBOND_ACCEPTOR>
5
> <PUBCHEM_CACTVS_HBOND_DONOR>
2
> <PUBCHEM_CACTVS_ROTATABLE_BOND>
2
> <PUBCHEM_CACTVS_SUBSKEYS>
AAADccBzoAAAAAAAAAAAAAAAAAAAAeIAAAAsAAAAAAAAAFgB+AAAHgAQCAAADSjhlwYF8L9MEgCgAQZhZACAgC0REKABUCAoVBCAWAJAyEAURAgOAALAACGQQAAOAAAAAAAAAAAAAAAAAAAAAAAAAQAAAA==
> <PUBCHEM_IUPAC_OPENEYE_NAME>
[(1R,2S)-2-(6-aminopurin-9-yl)cyclopentyl]methanol
> <PUBCHEM_IUPAC_CAS_NAME>
[(1R,2S)-2-(6-aminopurin-9-yl)cyclopentyl]methanol
> <PUBCHEM_IUPAC_NAME_MARKUP>
[(1<I>R</I>,2<I>S</I>)-2-(6-aminopurin-9-yl)cyclopentyl]methanol
> <PUBCHEM_IUPAC_NAME>
[(1R,2S)-2-(6-aminopurin-9-yl)cyclopentyl]methanol
> <PUBCHEM_IUPAC_SYSTEMATIC_NAME>
[(1R,2S)-2-(6-aminopurin-9-yl)cyclopentyl]methanol
> <PUBCHEM_IUPAC_TRADITIONAL_NAME>
[(1R,2S)-2-adenin-9-ylcyclopentyl]methanol
> <PUBCHEM_IUPAC_INCHI>
InChI=1S/C11H15N5O/c12-10-9-11(14-5-13-10)16(6-15-9)8-3-1-2-7(8)4-17/h5-8,17H,1-4H2,(H2,12,13,14)/t7-,8-/m0/s1
> <PUBCHEM_IUPAC_INCHIKEY>
SKHQGPMILDEHMB-YUMQZZPRSA-N
> <PUBCHEM_XLOGP3>
0.4
> <PUBCHEM_EXACT_MASS>
233.12766012
> <PUBCHEM_MOLECULAR_FORMULA>
C11H15N5O
> <PUBCHEM_MOLECULAR_WEIGHT>
233.27
> <PUBCHEM_OPENEYE_CAN_SMILES>
C1CC(C(C1)N2C=NC3=C(N=CN=C32)N)CO
> <PUBCHEM_OPENEYE_ISO_SMILES>
C1C[C@H]([C@H](C1)N2C=NC3=C(N=CN=C32)N)CO
> <PUBCHEM_CACTVS_TPSA>
89.8
> <PUBCHEM_MONOISOTOPIC_WEIGHT>
233.12766012
> <PUBCHEM_TOTAL_CHARGE>
0
> <PUBCHEM_HEAVY_ATOM_COUNT>
17
> <PUBCHEM_ATOM_DEF_STEREO_COUNT>
2
> <PUBCHEM_ATOM_UDEF_STEREO_COUNT>
0
> <PUBCHEM_BOND_DEF_STEREO_COUNT>
0
> <PUBCHEM_BOND_UDEF_STEREO_COUNT>
0
> <PUBCHEM_ISOTOPIC_ATOM_COUNT>
0
> <PUBCHEM_COMPONENT_COUNT>
1
> <PUBCHEM_CACTVS_TAUTO_COUNT>
-1
> <PUBCHEM_COORDINATE_TYPE>
1
5
255
> <PUBCHEM_BONDANNOTATIONS>
13  15  8
15  16  8
2  13  8
2  14  8
7  2  5
3  14  8
3  15  8
4  13  8
4  17  8
5  16  8
5  17  8
8  12  5
$$$$
