503190
  -OEChem-10302200282D
101105  0     1  0  0  0  0  0999 V2000
    6.3301    4.1550    0.0000 S   0  0  0  0  0  0  0  0  0  0  0  0
    4.5981    0.1550    0.0000 O   0  0  0  0  0  0  0  0  0  0  0  0
    8.0622    0.1550    0.0000 O   0  0  0  0  0  0  0  0  0  0  0  0
    5.4641   -3.3450    0.0000 O   0  0  0  0  0  0  0  0  0  0  0  0
    5.4641   -4.3450    0.0000 O   0  0  0  0  0  0  0  0  0  0  0  0
    8.9282   -4.3450    0.0000 O   0  0  0  0  0  0  0  0  0  0  0  0
    6.3301    1.1550    0.0000 N   0  0  3  0  0  0  0  0  0  0  0  0
    8.9282    1.6550    0.0000 N   0  0  0  0  0  0  0  0  0  0  0  0
    6.3301   -1.8450    0.0000 N   0  0  0  0  0  0  0  0  0  0  0  0
    8.0622   -2.8450    0.0000 N   0  0  0  0  0  0  0  0  0  0  0  0
    6.3301   -5.8450    0.0000 N   0  0  0  0  0  0  0  0  0  0  0  0
    7.1962    1.6550    0.0000 C   0  0  1  0  0  0  0  0  0  0  0  0
    7.1962    2.6550    0.0000 C   0  0  0  0  0  0  0  0  0  0  0  0
    6.3301    3.1550    0.0000 C   0  0  1  0  0  0  0  0  0  0  0  0
    5.4641    1.6550    0.0000 C   0  0  0  0  0  0  0  0  0  0  0  0
    5.4641    2.6550    0.0000 C   0  0  0  0  0  0  0  0  0  0  0  0
    6.3301    0.1550    0.0000 C   0  0  0  0  0  0  0  0  0  0  0  0
    5.4641   -0.3450    0.0000 C   0  0  2  0  0  0  0  0  0  0  0  0
    8.0622    1.1550    0.0000 C   0  0  0  0  0  0  0  0  0  0  0  0
    5.4641   -1.3450    0.0000 C   0  0  2  0  0  0  0  0  0  0  0  0
    4.5981   -1.8450    0.0000 C   0  0  0  0  0  0  0  0  0  0  0  0
    9.7942    1.1550    0.0000 C   0  0  0  0  0  0  0  0  0  0  0  0
    5.4641    4.6550    0.0000 C   0  0  0  0  0  0  0  0  0  0  0  0
    3.7320   -1.3450    0.0000 C   0  0  0  0  0  0  0  0  0  0  0  0
   10.6603    0.6550    0.0000 C   0  0  0  0  0  0  0  0  0  0  0  0
   10.2942    2.0210    0.0000 C   0  0  0  0  0  0  0  0  0  0  0  0
    9.2942    0.2890    0.0000 C   0  0  0  0  0  0  0  0  0  0  0  0
    6.3301   -2.8450    0.0000 C   0  0  0  0  0  0  0  0  0  0  0  0
    7.1962   -3.3450    0.0000 C   0  0  2  0  0  0  0  0  0  0  0  0
    5.4641    5.6550    0.0000 C   0  0  0  0  0  0  0  0  0  0  0  0
    4.5981    4.1550    0.0000 C   0  0  0  0  0  0  0  0  0  0  0  0
    3.7320   -0.3450    0.0000 C   0  0  0  0  0  0  0  0  0  0  0  0
    2.8660   -1.8450    0.0000 C   0  0  0  0  0  0  0  0  0  0  0  0
    7.1962   -4.3450    0.0000 C   0  0  0  0  0  0  0  0  0  0  0  0
    4.5981    6.1550    0.0000 C   0  0  0  0  0  0  0  0  0  0  0  0
    3.7320    4.6550    0.0000 C   0  0  0  0  0  0  0  0  0  0  0  0
    2.8660    0.1550    0.0000 C   0  0  0  0  0  0  0  0  0  0  0  0
    2.0000   -1.3450    0.0000 C   0  0  0  0  0  0  0  0  0  0  0  0
    3.7320    5.6550    0.0000 C   0  0  0  0  0  0  0  0  0  0  0  0
    2.0000   -0.3450    0.0000 C   0  0  0  0  0  0  0  0  0  0  0  0
    6.3301   -4.8450    0.0000 C   0  0  0  0  0  0  0  0  0  0  0  0
    8.9282   -3.3450    0.0000 C   0  0  0  0  0  0  0  0  0  0  0  0
    9.7942   -2.8450    0.0000 C   0  0  0  0  0  0  0  0  0  0  0  0
   10.6603   -3.3450    0.0000 C   0  0  0  0  0  0  0  0  0  0  0  0
    9.7942   -1.8450    0.0000 C   0  0  0  0  0  0  0  0  0  0  0  0
   11.5263   -2.8450    0.0000 C   0  0  0  0  0  0  0  0  0  0  0  0
   11.5263   -1.8450    0.0000 C   0  0  0  0  0  0  0  0  0  0  0  0
   10.6603   -1.3450    0.0000 C   0  0  0  0  0  0  0  0  0  0  0  0
   12.4202   -3.3797    0.0000 C   0  0  0  0  0  0  0  0  0  0  0  0
   12.4202   -1.3103    0.0000 C   0  0  0  0  0  0  0  0  0  0  0  0
   13.3263   -2.8658    0.0000 C   0  0  0  0  0  0  0  0  0  0  0  0
   13.3263   -1.8242    0.0000 C   0  0  0  0  0  0  0  0  0  0  0  0
    7.1962    1.0350    0.0000 H   0  0  0  0  0  0  0  0  0  0  0  0
    7.8067    2.5473    0.0000 H   0  0  0  0  0  0  0  0  0  0  0  0
    7.4082    3.2376    0.0000 H   0  0  0  0  0  0  0  0  0  0  0  0
    6.8671    3.4650    0.0000 H   0  0  0  0  0  0  0  0  0  0  0  0
    4.8535    1.7627    0.0000 H   0  0  0  0  0  0  0  0  0  0  0  0
    5.2520    1.0724    0.0000 H   0  0  0  0  0  0  0  0  0  0  0  0
    5.2520    3.2376    0.0000 H   0  0  0  0  0  0  0  0  0  0  0  0
    4.8535    2.5473    0.0000 H   0  0  0  0  0  0  0  0  0  0  0  0
    6.5422   -0.4276    0.0000 H   0  0  0  0  0  0  0  0  0  0  0  0
    6.9407    0.2627    0.0000 H   0  0  0  0  0  0  0  0  0  0  0  0
    5.4641    0.2750    0.0000 H   0  0  0  0  0  0  0  0  0  0  0  0
    5.4641   -1.9650    0.0000 H   0  0  0  0  0  0  0  0  0  0  0  0
    8.9282    2.2750    0.0000 H   0  0  0  0  0  0  0  0  0  0  0  0
    4.1996   -2.3200    0.0000 H   0  0  0  0  0  0  0  0  0  0  0  0
    4.9966   -2.3200    0.0000 H   0  0  0  0  0  0  0  0  0  0  0  0
    6.8671   -1.5350    0.0000 H   0  0  0  0  0  0  0  0  0  0  0  0
    4.5981    0.7750    0.0000 H   0  0  0  0  0  0  0  0  0  0  0  0
   10.3503    0.1181    0.0000 H   0  0  0  0  0  0  0  0  0  0  0  0
   11.1972    0.3450    0.0000 H   0  0  0  0  0  0  0  0  0  0  0  0
   10.9703    1.1919    0.0000 H   0  0  0  0  0  0  0  0  0  0  0  0
   10.8312    1.7110    0.0000 H   0  0  0  0  0  0  0  0  0  0  0  0
   10.6042    2.5580    0.0000 H   0  0  0  0  0  0  0  0  0  0  0  0
    9.7573    2.3310    0.0000 H   0  0  0  0  0  0  0  0  0  0  0  0
    8.7573    0.5990    0.0000 H   0  0  0  0  0  0  0  0  0  0  0  0
    8.9842   -0.2480    0.0000 H   0  0  0  0  0  0  0  0  0  0  0  0
    9.8312   -0.0210    0.0000 H   0  0  0  0  0  0  0  0  0  0  0  0
    7.7331   -3.6550    0.0000 H   0  0  0  0  0  0  0  0  0  0  0  0
    6.0010    5.9650    0.0000 H   0  0  0  0  0  0  0  0  0  0  0  0
    4.5981    3.5350    0.0000 H   0  0  0  0  0  0  0  0  0  0  0  0
    4.2690   -0.0350    0.0000 H   0  0  0  0  0  0  0  0  0  0  0  0
    2.8660   -2.4650    0.0000 H   0  0  0  0  0  0  0  0  0  0  0  0
    7.4082   -4.9276    0.0000 H   0  0  0  0  0  0  0  0  0  0  0  0
    7.8067   -4.2373    0.0000 H   0  0  0  0  0  0  0  0  0  0  0  0
    8.0622   -2.2250    0.0000 H   0  0  0  0  0  0  0  0  0  0  0  0
    4.5981    6.7750    0.0000 H   0  0  0  0  0  0  0  0  0  0  0  0
    3.1951    4.3450    0.0000 H   0  0  0  0  0  0  0  0  0  0  0  0
    2.8660    0.7750    0.0000 H   0  0  0  0  0  0  0  0  0  0  0  0
    1.4631   -1.6550    0.0000 H   0  0  0  0  0  0  0  0  0  0  0  0
    3.1951    5.9650    0.0000 H   0  0  0  0  0  0  0  0  0  0  0  0
    1.4631   -0.0350    0.0000 H   0  0  0  0  0  0  0  0  0  0  0  0
    5.7932   -6.1550    0.0000 H   0  0  0  0  0  0  0  0  0  0  0  0
    6.8671   -6.1550    0.0000 H   0  0  0  0  0  0  0  0  0  0  0  0
   10.6603   -3.9650    0.0000 H   0  0  0  0  0  0  0  0  0  0  0  0
    9.2573   -1.5350    0.0000 H   0  0  0  0  0  0  0  0  0  0  0  0
   10.6603   -0.7250    0.0000 H   0  0  0  0  0  0  0  0  0  0  0  0
   12.4131   -3.9996    0.0000 H   0  0  0  0  0  0  0  0  0  0  0  0
   12.4131   -0.6904    0.0000 H   0  0  0  0  0  0  0  0  0  0  0  0
   13.8620   -3.1779    0.0000 H   0  0  0  0  0  0  0  0  0  0  0  0
   13.8620   -1.5121    0.0000 H   0  0  0  0  0  0  0  0  0  0  0  0
 14  1  1  1  0  0  0
  1 23  1  0  0  0  0
 18  2  1  6  0  0  0
  2 69  1  0  0  0  0
  3 19  2  0  0  0  0
  4 28  2  0  0  0  0
  5 41  2  0  0  0  0
  6 42  2  0  0  0  0
  7 12  1  0  0  0  0
  7 15  1  0  0  0  0
  7 17  1  0  0  0  0
  8 19  1  0  0  0  0
  8 22  1  0  0  0  0
  8 65  1  0  0  0  0
 20  9  1  1  0  0  0
  9 28  1  0  0  0  0
  9 68  1  0  0  0  0
 29 10  1  1  0  0  0
 10 42  1  0  0  0  0
 10 86  1  0  0  0  0
 11 41  1  0  0  0  0
 11 93  1  0  0  0  0
 11 94  1  0  0  0  0
 12 13  1  0  0  0  0
 12 19  1  1  0  0  0
 12 53  1  0  0  0  0
 13 14  1  0  0  0  0
 13 54  1  0  0  0  0
 13 55  1  0  0  0  0
 14 16  1  0  0  0  0
 14 56  1  0  0  0  0
 15 16  1  0  0  0  0
 15 57  1  0  0  0  0
 15 58  1  0  0  0  0
 16 59  1  0  0  0  0
 16 60  1  0  0  0  0
 17 18  1  0  0  0  0
 17 61  1  0  0  0  0
 17 62  1  0  0  0  0
 18 20  1  0  0  0  0
 18 63  1  0  0  0  0
 20 21  1  0  0  0  0
 20 64  1  0  0  0  0
 21 24  1  0  0  0  0
 21 66  1  0  0  0  0
 21 67  1  0  0  0  0
 22 25  1  0  0  0  0
 22 26  1  0  0  0  0
 22 27  1  0  0  0  0
 23 30  2  0  0  0  0
 23 31  1  0  0  0  0
 24 32  2  0  0  0  0
 24 33  1  0  0  0  0
 25 70  1  0  0  0  0
 25 71  1  0  0  0  0
 25 72  1  0  0  0  0
 26 73  1  0  0  0  0
 26 74  1  0  0  0  0
 26 75  1  0  0  0  0
 27 76  1  0  0  0  0
 27 77  1  0  0  0  0
 27 78  1  0  0  0  0
 28 29  1  0  0  0  0
 29 34  1  0  0  0  0
 29 79  1  0  0  0  0
 30 35  1  0  0  0  0
 30 80  1  0  0  0  0
 31 36  2  0  0  0  0
 31 81  1  0  0  0  0
 32 37  1  0  0  0  0
 32 82  1  0  0  0  0
 33 38  2  0  0  0  0
 33 83  1  0  0  0  0
 34 41  1  0  0  0  0
 34 84  1  0  0  0  0
 34 85  1  0  0  0  0
 35 39  2  0  0  0  0
 35 87  1  0  0  0  0
 36 39  1  0  0  0  0
 36 88  1  0  0  0  0
 37 40  2  0  0  0  0
 37 89  1  0  0  0  0
 38 40  1  0  0  0  0
 38 90  1  0  0  0  0
 39 91  1  0  0  0  0
 40 92  1  0  0  0  0
 42 43  1  0  0  0  0
 43 44  2  0  0  0  0
 43 45  1  0  0  0  0
 44 46  1  0  0  0  0
 44 95  1  0  0  0  0
 45 48  2  0  0  0  0
 45 96  1  0  0  0  0
 46 47  1  0  0  0  0
 46 49  2  0  0  0  0
 47 48  1  0  0  0  0
 47 50  2  0  0  0  0
 48 97  1  0  0  0  0
 49 51  1  0  0  0  0
 49 98  1  0  0  0  0
 50 52  1  0  0  0  0
 50 99  1  0  0  0  0
 51 52  2  0  0  0  0
 51100  1  0  0  0  0
 52101  1  0  0  0  0
M  END
> <PUBCHEM_COMPOUND_CID>
503190
> <PUBCHEM_COMPOUND_CANONICALIZED>
1
> <PUBCHEM_CACTVS_COMPLEXITY>
1180
> <PUBCHEM_CACTVS_HBOND_ACCEPTOR>
7
> <PUBCHEM_CACTVS_HBOND_DONOR>
5
> <PUBCHEM_CACTVS_ROTATABLE_BOND>
15
> <PUBCHEM_CACTVS_SUBSKEYS>
AAADcfB/uABAAAAAAAAAAAAAAAAAAAAAAAA8YMGCAAAAAADBVAAAHgQQCAAADLzl2AayAcPAAgiIAiFSEACCAAAkCBAIiJmIBMgKcDqg1TGUYQhklgC4iYedyOCOwAACAAAQAACAAAQAACAAAAAAAAAAAA==
> <PUBCHEM_IUPAC_OPENEYE_NAME>
(2S)-N-[(1S,2R)-1-benzyl-3-[(2S,4R)-2-(tert-butylcarbamoyl)-4-phenylsulfanyl-1-piperidyl]-2-hydroxy-propyl]-2-(naphthalene-2-carbonylamino)butanediamide
> <PUBCHEM_IUPAC_CAS_NAME>
(2S)-N-[(2S,3R)-4-[(2S,4R)-2-[(tert-butylamino)-oxomethyl]-4-(phenylthio)-1-piperidinyl]-3-hydroxy-1-phenylbutan-2-yl]-2-[[2-naphthalenyl(oxo)methyl]amino]butanediamide
> <PUBCHEM_IUPAC_NAME_MARKUP>
(2<I>S</I>)-<I>N</I>-[(2<I>S</I>,3<I>R</I>)-4-[(2<I>S</I>,4<I>R</I>)-2-(<I>tert</I>-butylcarbamoyl)-4-phenylsulfanylpiperidin-1-yl]-3-hydroxy-1-phenylbutan-2-yl]-2-(naphthalene-2-carbonylamino)butanediamide
> <PUBCHEM_IUPAC_NAME>
(2S)-N-[(2S,3R)-4-[(2S,4R)-2-(tert-butylcarbamoyl)-4-phenylsulfanylpiperidin-1-yl]-3-hydroxy-1-phenylbutan-2-yl]-2-(naphthalene-2-carbonylamino)butanediamide
> <PUBCHEM_IUPAC_SYSTEMATIC_NAME>
(2S)-N-[(2S,3R)-4-[(2S,4R)-2-(tert-butylcarbamoyl)-4-phenylsulfanyl-piperidin-1-yl]-3-oxidanyl-1-phenyl-butan-2-yl]-2-(naphthalen-2-ylcarbonylamino)butanediamide
> <PUBCHEM_IUPAC_TRADITIONAL_NAME>
(2S)-N-[(1S,2R)-1-benzyl-3-[(2S,4R)-2-(tert-butylcarbamoyl)-4-(phenylthio)piperidino]-2-hydroxy-propyl]-2-(2-naphthoylamino)succinamide
> <PUBCHEM_IUPAC_INCHI>
InChI=1S/C41H49N5O5S/c1-41(2,3)45-40(51)35-24-32(52-31-16-8-5-9-17-31)20-21-46(35)26-36(47)33(22-27-12-6-4-7-13-27)43-39(50)34(25-37(42)48)44-38(49)30-19-18-28-14-10-11-15-29(28)23-30/h4-19,23,32-36,47H,20-22,24-26H2,1-3H3,(H2,42,48)(H,43,50)(H,44,49)(H,45,51)/t32-,33+,34+,35+,36-/m1/s1
> <PUBCHEM_IUPAC_INCHIKEY>
JTEPIYXSCMGSOM-QHDLJYJXSA-N
> <PUBCHEM_XLOGP3_AA>
5.2
> <PUBCHEM_EXACT_MASS>
723.34544085
> <PUBCHEM_MOLECULAR_FORMULA>
C41H49N5O5S
> <PUBCHEM_MOLECULAR_WEIGHT>
723.9
> <PUBCHEM_OPENEYE_CAN_SMILES>
CC(C)(C)NC(=O)C1CC(CCN1CC(C(CC2=CC=CC=C2)NC(=O)C(CC(=O)N)NC(=O)C3=CC4=CC=CC=C4C=C3)O)SC5=CC=CC=C5
> <PUBCHEM_OPENEYE_ISO_SMILES>
CC(C)(C)NC(=O)[C@@H]1C[C@@H](CCN1C[C@H]([C@H](CC2=CC=CC=C2)NC(=O)[C@H](CC(=O)N)NC(=O)C3=CC4=CC=CC=C4C=C3)O)SC5=CC=CC=C5
> <PUBCHEM_CACTVS_TPSA>
179
> <PUBCHEM_MONOISOTOPIC_WEIGHT>
723.34544085
> <PUBCHEM_TOTAL_CHARGE>
0
> <PUBCHEM_HEAVY_ATOM_COUNT>
52
> <PUBCHEM_ATOM_DEF_STEREO_COUNT>
5
> <PUBCHEM_ATOM_UDEF_STEREO_COUNT>
0
> <PUBCHEM_BOND_DEF_STEREO_COUNT>
0
> <PUBCHEM_BOND_UDEF_STEREO_COUNT>
0
> <PUBCHEM_ISOTOPIC_ATOM_COUNT>
0
> <PUBCHEM_COMPONENT_COUNT>
1
> <PUBCHEM_CACTVS_TAUTO_COUNT>
-1
> <PUBCHEM_COORDINATE_TYPE>
1
5
255
> <PUBCHEM_BONDANNOTATIONS>
14  1  5
29  10  5
12  19  5
18  2  6
23  30  8
23  31  8
24  32  8
24  33  8
30  35  8
31  36  8
32  37  8
33  38  8
35  39  8
36  39  8
37  40  8
38  40  8
43  44  8
43  45  8
44  46  8
45  48  8
46  47  8
46  49  8
47  48  8
47  50  8
49  51  8
50  52  8
51  52  8
20  9  5
$$$$
