503161
  -OEChem-10302200282D
 34 36  0     1  0  0  0  0  0999 V2000
    6.3788   -3.1894    0.0000 O   0  0  0  0  0  0  0  0  0  0  0  0
    4.6783    0.6122    0.0000 N   0  0  0  0  0  0  0  0  0  0  0  0
    5.2619    1.4169    0.0000 N   0  0  0  0  0  0  0  0  0  0  0  0
    4.6783    2.2216    0.0000 N   0  0  0  0  0  0  0  0  0  0  0  0
    2.8660    0.4169    0.0000 N   0  0  0  0  0  0  0  0  0  0  0  0
    2.0000    1.9169    0.0000 N   0  0  0  0  0  0  0  0  0  0  0  0
    2.8660    3.4169    0.0000 N   0  0  0  0  0  0  0  0  0  0  0  0
    5.9674   -0.5446    0.0000 C   0  0  2  0  0  0  0  0  0  0  0  0
    6.3758   -1.4574    0.0000 C   0  0  1  0  0  0  0  0  0  0  0  0
    6.7094    0.1259    0.0000 C   0  0  0  0  0  0  0  0  0  0  0  0
    7.3701   -1.3512    0.0000 C   0  0  0  0  0  0  0  0  0  0  0  0
    7.5763   -0.3726    0.0000 C   0  0  0  0  0  0  0  0  0  0  0  0
    4.9889   -0.3383    0.0000 C   0  0  0  0  0  0  0  0  0  0  0  0
    5.8772   -2.3243    0.0000 C   0  0  0  0  0  0  0  0  0  0  0  0
    3.7320    0.9169    0.0000 C   0  0  0  0  0  0  0  0  0  0  0  0
    3.7320    1.9169    0.0000 C   0  0  0  0  0  0  0  0  0  0  0  0
    2.8660    2.4169    0.0000 C   0  0  0  0  0  0  0  0  0  0  0  0
    2.0000    0.9169    0.0000 C   0  0  0  0  0  0  0  0  0  0  0  0
    5.5781   -1.0271    0.0000 H   0  0  0  0  0  0  0  0  0  0  0  0
    6.7143   -1.9768    0.0000 H   0  0  0  0  0  0  0  0  0  0  0  0
    7.0730    0.6281    0.0000 H   0  0  0  0  0  0  0  0  0  0  0  0
    6.2480    0.5399    0.0000 H   0  0  0  0  0  0  0  0  0  0  0  0
    7.3712   -1.9712    0.0000 H   0  0  0  0  0  0  0  0  0  0  0  0
    7.9868   -1.4149    0.0000 H   0  0  0  0  0  0  0  0  0  0  0  0
    8.1663   -0.5632    0.0000 H   0  0  0  0  0  0  0  0  0  0  0  0
    7.8275    0.1942    0.0000 H   0  0  0  0  0  0  0  0  0  0  0  0
    4.3751   -0.4257    0.0000 H   0  0  0  0  0  0  0  0  0  0  0  0
    4.9684   -0.9580    0.0000 H   0  0  0  0  0  0  0  0  0  0  0  0
    5.4016   -1.9266    0.0000 H   0  0  0  0  0  0  0  0  0  0  0  0
    5.4030   -2.7236    0.0000 H   0  0  0  0  0  0  0  0  0  0  0  0
    6.0697   -3.7269    0.0000 H   0  0  0  0  0  0  0  0  0  0  0  0
    1.4631    0.6069    0.0000 H   0  0  0  0  0  0  0  0  0  0  0  0
    2.3291    3.7269    0.0000 H   0  0  0  0  0  0  0  0  0  0  0  0
    3.4030    3.7269    0.0000 H   0  0  0  0  0  0  0  0  0  0  0  0
  1 14  1  0  0  0  0
  1 31  1  0  0  0  0
  2  3  1  0  0  0  0
  2 13  1  0  0  0  0
  2 15  1  0  0  0  0
  3  4  2  0  0  0  0
  4 16  1  0  0  0  0
  5 15  2  0  0  0  0
  5 18  1  0  0  0  0
  6 17  1  0  0  0  0
  6 18  2  0  0  0  0
  7 17  1  0  0  0  0
  7 33  1  0  0  0  0
  7 34  1  0  0  0  0
  8  9  1  0  0  0  0
  8 10  1  0  0  0  0
  8 13  1  1  0  0  0
  8 19  1  0  0  0  0
  9 11  1  0  0  0  0
  9 14  1  1  0  0  0
  9 20  1  0  0  0  0
 10 12  1  0  0  0  0
 10 21  1  0  0  0  0
 10 22  1  0  0  0  0
 11 12  1  0  0  0  0
 11 23  1  0  0  0  0
 11 24  1  0  0  0  0
 12 25  1  0  0  0  0
 12 26  1  0  0  0  0
 13 27  1  0  0  0  0
 13 28  1  0  0  0  0
 14 29  1  0  0  0  0
 14 30  1  0  0  0  0
 15 16  1  0  0  0  0
 16 17  2  0  0  0  0
 18 32  1  0  0  0  0
M  END
> <PUBCHEM_COMPOUND_CID>
503161
> <PUBCHEM_COMPOUND_CANONICALIZED>
1
> <PUBCHEM_CACTVS_COMPLEXITY>
291
> <PUBCHEM_CACTVS_HBOND_ACCEPTOR>
6
> <PUBCHEM_CACTVS_HBOND_DONOR>
2
> <PUBCHEM_CACTVS_ROTATABLE_BOND>
3
> <PUBCHEM_CACTVS_SUBSKEYS>
AAADceBzoAAAAAAAAAAAAAAAAAAAAeIAAAAsAAAAAAAAAFgB+AAAHgAYCAAADQjhlwYF8L5IEgCiAQZhZACAhC8RkKAVUCAoVBCAWAJAyEAURAgMAALAACGwwCAOgAAAAAAAAAAAAAAAAAAAAAAACAAAAA==
> <PUBCHEM_IUPAC_OPENEYE_NAME>
[(1R,2S)-2-[(7-aminotriazolo[4,5-d]pyrimidin-3-yl)methyl]cyclopentyl]methanol
> <PUBCHEM_IUPAC_CAS_NAME>
[(1R,2S)-2-[(7-amino-3-triazolo[4,5-d]pyrimidinyl)methyl]cyclopentyl]methanol
> <PUBCHEM_IUPAC_NAME_MARKUP>
[(1<I>R</I>,2<I>S</I>)-2-[(7-aminotriazolo[4,5-d]pyrimidin-3-yl)methyl]cyclopentyl]methanol
> <PUBCHEM_IUPAC_NAME>
[(1R,2S)-2-[(7-aminotriazolo[4,5-d]pyrimidin-3-yl)methyl]cyclopentyl]methanol
> <PUBCHEM_IUPAC_SYSTEMATIC_NAME>
[(1R,2S)-2-[(7-azanyl-[1,2,3]triazolo[4,5-d]pyrimidin-3-yl)methyl]cyclopentyl]methanol
> <PUBCHEM_IUPAC_TRADITIONAL_NAME>
[(1R,2S)-2-[(7-aminotriazolo[4,5-d]pyrimidin-3-yl)methyl]cyclopentyl]methanol
> <PUBCHEM_IUPAC_INCHI>
InChI=1S/C11H16N6O/c12-10-9-11(14-6-13-10)17(16-15-9)4-7-2-1-3-8(7)5-18/h6-8,18H,1-5H2,(H2,12,13,14)/t7-,8+/m1/s1
> <PUBCHEM_IUPAC_INCHIKEY>
QIPUEUAIHMZFRN-SFYZADRCSA-N
> <PUBCHEM_XLOGP3_AA>
0.2
> <PUBCHEM_EXACT_MASS>
248.13855916
> <PUBCHEM_MOLECULAR_FORMULA>
C11H16N6O
> <PUBCHEM_MOLECULAR_WEIGHT>
248.28
> <PUBCHEM_OPENEYE_CAN_SMILES>
C1CC(C(C1)CO)CN2C3=NC=NC(=C3N=N2)N
> <PUBCHEM_OPENEYE_ISO_SMILES>
C1C[C@@H]([C@@H](C1)CO)CN2C3=NC=NC(=C3N=N2)N
> <PUBCHEM_CACTVS_TPSA>
103
> <PUBCHEM_MONOISOTOPIC_WEIGHT>
248.13855916
> <PUBCHEM_TOTAL_CHARGE>
0
> <PUBCHEM_HEAVY_ATOM_COUNT>
18
> <PUBCHEM_ATOM_DEF_STEREO_COUNT>
2
> <PUBCHEM_ATOM_UDEF_STEREO_COUNT>
0
> <PUBCHEM_BOND_DEF_STEREO_COUNT>
0
> <PUBCHEM_BOND_UDEF_STEREO_COUNT>
0
> <PUBCHEM_ISOTOPIC_ATOM_COUNT>
0
> <PUBCHEM_COMPONENT_COUNT>
1
> <PUBCHEM_CACTVS_TAUTO_COUNT>
-1
> <PUBCHEM_COORDINATE_TYPE>
1
5
255
> <PUBCHEM_BONDANNOTATIONS>
15  16  8
16  17  8
2  15  8
2  3  8
3  4  8
4  16  8
5  15  8
5  18  8
6  17  8
6  18  8
8  13  5
9  14  5
$$$$
