503188
  -OEChem-10302200282D
100104  0     1  0  0  0  0  0999 V2000
    8.9962    4.1550    0.0000 S   0  0  0  0  0  0  0  0  0  0  0  0
   10.7282    0.1550    0.0000 O   0  0  0  0  0  0  0  0  0  0  0  0
    7.2641    0.1550    0.0000 O   0  0  0  0  0  0  0  0  0  0  0  0
    9.8622   -3.3450    0.0000 O   0  0  0  0  0  0  0  0  0  0  0  0
    9.8622   -4.3450    0.0000 O   0  0  0  0  0  0  0  0  0  0  0  0
    6.3981   -4.3450    0.0000 O   0  0  0  0  0  0  0  0  0  0  0  0
    8.9962    1.1550    0.0000 N   0  0  3  0  0  0  0  0  0  0  0  0
    6.3981    1.6550    0.0000 N   0  0  0  0  0  0  0  0  0  0  0  0
    8.9962   -1.8450    0.0000 N   0  0  0  0  0  0  0  0  0  0  0  0
    7.2641   -2.8450    0.0000 N   0  0  0  0  0  0  0  0  0  0  0  0
    8.9962   -5.8450    0.0000 N   0  0  0  0  0  0  0  0  0  0  0  0
    4.6660   -3.3450    0.0000 N   0  0  0  0  0  0  0  0  0  0  0  0
    8.1301    1.6550    0.0000 C   0  0  1  0  0  0  0  0  0  0  0  0
    8.1301    2.6550    0.0000 C   0  0  0  0  0  0  0  0  0  0  0  0
    8.9962    3.1550    0.0000 C   0  0  1  0  0  0  0  0  0  0  0  0
    9.8622    1.6550    0.0000 C   0  0  0  0  0  0  0  0  0  0  0  0
    9.8622    2.6550    0.0000 C   0  0  0  0  0  0  0  0  0  0  0  0
    8.9962    0.1550    0.0000 C   0  0  0  0  0  0  0  0  0  0  0  0
    9.8622   -0.3450    0.0000 C   0  0  2  0  0  0  0  0  0  0  0  0
    7.2641    1.1550    0.0000 C   0  0  0  0  0  0  0  0  0  0  0  0
    9.8622   -1.3450    0.0000 C   0  0  2  0  0  0  0  0  0  0  0  0
    5.5321    1.1550    0.0000 C   0  0  0  0  0  0  0  0  0  0  0  0
   10.7282   -1.8450    0.0000 C   0  0  0  0  0  0  0  0  0  0  0  0
    9.8622    4.6550    0.0000 C   0  0  0  0  0  0  0  0  0  0  0  0
   11.5942   -1.3450    0.0000 C   0  0  0  0  0  0  0  0  0  0  0  0
    4.6660    0.6550    0.0000 C   0  0  0  0  0  0  0  0  0  0  0  0
    5.0321    2.0210    0.0000 C   0  0  0  0  0  0  0  0  0  0  0  0
    6.0321    0.2890    0.0000 C   0  0  0  0  0  0  0  0  0  0  0  0
    8.9962   -2.8450    0.0000 C   0  0  0  0  0  0  0  0  0  0  0  0
    8.1301   -3.3450    0.0000 C   0  0  2  0  0  0  0  0  0  0  0  0
    9.8622    5.6550    0.0000 C   0  0  0  0  0  0  0  0  0  0  0  0
   10.7282    4.1550    0.0000 C   0  0  0  0  0  0  0  0  0  0  0  0
   12.4603   -1.8450    0.0000 C   0  0  0  0  0  0  0  0  0  0  0  0
   11.5942   -0.3450    0.0000 C   0  0  0  0  0  0  0  0  0  0  0  0
    8.1301   -4.3450    0.0000 C   0  0  0  0  0  0  0  0  0  0  0  0
   10.7282    6.1550    0.0000 C   0  0  0  0  0  0  0  0  0  0  0  0
   11.5942    4.6550    0.0000 C   0  0  0  0  0  0  0  0  0  0  0  0
   13.3263   -1.3450    0.0000 C   0  0  0  0  0  0  0  0  0  0  0  0
   12.4603    0.1550    0.0000 C   0  0  0  0  0  0  0  0  0  0  0  0
   11.5942    5.6550    0.0000 C   0  0  0  0  0  0  0  0  0  0  0  0
   13.3263   -0.3450    0.0000 C   0  0  0  0  0  0  0  0  0  0  0  0
    8.9962   -4.8450    0.0000 C   0  0  0  0  0  0  0  0  0  0  0  0
    6.3981   -3.3450    0.0000 C   0  0  0  0  0  0  0  0  0  0  0  0
    5.5321   -2.8450    0.0000 C   0  0  0  0  0  0  0  0  0  0  0  0
    5.5321   -1.8450    0.0000 C   0  0  0  0  0  0  0  0  0  0  0  0
    3.8000   -2.8450    0.0000 C   0  0  0  0  0  0  0  0  0  0  0  0
    4.6660   -1.3450    0.0000 C   0  0  0  0  0  0  0  0  0  0  0  0
    3.8000   -1.8450    0.0000 C   0  0  0  0  0  0  0  0  0  0  0  0
    2.9061   -3.3797    0.0000 C   0  0  0  0  0  0  0  0  0  0  0  0
    2.9061   -1.3103    0.0000 C   0  0  0  0  0  0  0  0  0  0  0  0
    2.0000   -2.8658    0.0000 C   0  0  0  0  0  0  0  0  0  0  0  0
    2.0000   -1.8242    0.0000 C   0  0  0  0  0  0  0  0  0  0  0  0
    8.1301    1.0350    0.0000 H   0  0  0  0  0  0  0  0  0  0  0  0
    7.9181    3.2376    0.0000 H   0  0  0  0  0  0  0  0  0  0  0  0
    7.5196    2.5473    0.0000 H   0  0  0  0  0  0  0  0  0  0  0  0
    9.5331    3.4650    0.0000 H   0  0  0  0  0  0  0  0  0  0  0  0
   10.0742    1.0724    0.0000 H   0  0  0  0  0  0  0  0  0  0  0  0
   10.4728    1.7627    0.0000 H   0  0  0  0  0  0  0  0  0  0  0  0
   10.4728    2.5473    0.0000 H   0  0  0  0  0  0  0  0  0  0  0  0
   10.0742    3.2376    0.0000 H   0  0  0  0  0  0  0  0  0  0  0  0
    8.3856    0.2627    0.0000 H   0  0  0  0  0  0  0  0  0  0  0  0
    8.7841   -0.4276    0.0000 H   0  0  0  0  0  0  0  0  0  0  0  0
    9.8622    0.2750    0.0000 H   0  0  0  0  0  0  0  0  0  0  0  0
    9.3252   -1.0350    0.0000 H   0  0  0  0  0  0  0  0  0  0  0  0
    6.3981    2.2750    0.0000 H   0  0  0  0  0  0  0  0  0  0  0  0
   10.3297   -2.3200    0.0000 H   0  0  0  0  0  0  0  0  0  0  0  0
   11.1267   -2.3200    0.0000 H   0  0  0  0  0  0  0  0  0  0  0  0
    8.4592   -1.5350    0.0000 H   0  0  0  0  0  0  0  0  0  0  0  0
   10.7282    0.7750    0.0000 H   0  0  0  0  0  0  0  0  0  0  0  0
    4.3560    1.1919    0.0000 H   0  0  0  0  0  0  0  0  0  0  0  0
    4.1291    0.3450    0.0000 H   0  0  0  0  0  0  0  0  0  0  0  0
    4.9760    0.1181    0.0000 H   0  0  0  0  0  0  0  0  0  0  0  0
    5.5690    2.3310    0.0000 H   0  0  0  0  0  0  0  0  0  0  0  0
    4.7221    2.5580    0.0000 H   0  0  0  0  0  0  0  0  0  0  0  0
    4.4951    1.7110    0.0000 H   0  0  0  0  0  0  0  0  0  0  0  0
    5.4951   -0.0210    0.0000 H   0  0  0  0  0  0  0  0  0  0  0  0
    6.3421   -0.2480    0.0000 H   0  0  0  0  0  0  0  0  0  0  0  0
    6.5690    0.5990    0.0000 H   0  0  0  0  0  0  0  0  0  0  0  0
    7.5932   -3.6550    0.0000 H   0  0  0  0  0  0  0  0  0  0  0  0
    9.3252    5.9650    0.0000 H   0  0  0  0  0  0  0  0  0  0  0  0
   10.7282    3.5350    0.0000 H   0  0  0  0  0  0  0  0  0  0  0  0
   12.4603   -2.4650    0.0000 H   0  0  0  0  0  0  0  0  0  0  0  0
   11.0573   -0.0350    0.0000 H   0  0  0  0  0  0  0  0  0  0  0  0
    7.5196   -4.2373    0.0000 H   0  0  0  0  0  0  0  0  0  0  0  0
    7.9181   -4.9276    0.0000 H   0  0  0  0  0  0  0  0  0  0  0  0
    7.2641   -2.2250    0.0000 H   0  0  0  0  0  0  0  0  0  0  0  0
   10.7282    6.7750    0.0000 H   0  0  0  0  0  0  0  0  0  0  0  0
   12.1312    4.3450    0.0000 H   0  0  0  0  0  0  0  0  0  0  0  0
   13.8632   -1.6550    0.0000 H   0  0  0  0  0  0  0  0  0  0  0  0
   12.4603    0.7750    0.0000 H   0  0  0  0  0  0  0  0  0  0  0  0
   12.1312    5.9650    0.0000 H   0  0  0  0  0  0  0  0  0  0  0  0
   13.8632   -0.0350    0.0000 H   0  0  0  0  0  0  0  0  0  0  0  0
    9.5331   -6.1550    0.0000 H   0  0  0  0  0  0  0  0  0  0  0  0
    8.4592   -6.1550    0.0000 H   0  0  0  0  0  0  0  0  0  0  0  0
    6.0690   -1.5350    0.0000 H   0  0  0  0  0  0  0  0  0  0  0  0
    4.6660   -0.7250    0.0000 H   0  0  0  0  0  0  0  0  0  0  0  0
    2.9132   -3.9996    0.0000 H   0  0  0  0  0  0  0  0  0  0  0  0
    2.9132   -0.6904    0.0000 H   0  0  0  0  0  0  0  0  0  0  0  0
    1.4643   -3.1779    0.0000 H   0  0  0  0  0  0  0  0  0  0  0  0
    1.4643   -1.5121    0.0000 H   0  0  0  0  0  0  0  0  0  0  0  0
 15  1  1  6  0  0  0
  1 24  1  0  0  0  0
 19  2  1  1  0  0  0
  2 69  1  0  0  0  0
  3 20  2  0  0  0  0
  4 29  2  0  0  0  0
  5 42  2  0  0  0  0
  6 43  2  0  0  0  0
  7 13  1  0  0  0  0
  7 16  1  0  0  0  0
  7 18  1  0  0  0  0
  8 20  1  0  0  0  0
  8 22  1  0  0  0  0
  8 65  1  0  0  0  0
 21  9  1  6  0  0  0
  9 29  1  0  0  0  0
  9 68  1  0  0  0  0
 30 10  1  6  0  0  0
 10 43  1  0  0  0  0
 10 86  1  0  0  0  0
 11 42  1  0  0  0  0
 11 93  1  0  0  0  0
 11 94  1  0  0  0  0
 12 44  2  0  0  0  0
 12 46  1  0  0  0  0
 13 14  1  0  0  0  0
 13 20  1  6  0  0  0
 13 53  1  0  0  0  0
 14 15  1  0  0  0  0
 14 54  1  0  0  0  0
 14 55  1  0  0  0  0
 15 17  1  0  0  0  0
 15 56  1  0  0  0  0
 16 17  1  0  0  0  0
 16 57  1  0  0  0  0
 16 58  1  0  0  0  0
 17 59  1  0  0  0  0
 17 60  1  0  0  0  0
 18 19  1  0  0  0  0
 18 61  1  0  0  0  0
 18 62  1  0  0  0  0
 19 21  1  0  0  0  0
 19 63  1  0  0  0  0
 21 23  1  0  0  0  0
 21 64  1  0  0  0  0
 22 26  1  0  0  0  0
 22 27  1  0  0  0  0
 22 28  1  0  0  0  0
 23 25  1  0  0  0  0
 23 66  1  0  0  0  0
 23 67  1  0  0  0  0
 24 31  2  0  0  0  0
 24 32  1  0  0  0  0
 25 33  2  0  0  0  0
 25 34  1  0  0  0  0
 26 70  1  0  0  0  0
 26 71  1  0  0  0  0
 26 72  1  0  0  0  0
 27 73  1  0  0  0  0
 27 74  1  0  0  0  0
 27 75  1  0  0  0  0
 28 76  1  0  0  0  0
 28 77  1  0  0  0  0
 28 78  1  0  0  0  0
 29 30  1  0  0  0  0
 30 35  1  0  0  0  0
 30 79  1  0  0  0  0
 31 36  1  0  0  0  0
 31 80  1  0  0  0  0
 32 37  2  0  0  0  0
 32 81  1  0  0  0  0
 33 38  1  0  0  0  0
 33 82  1  0  0  0  0
 34 39  2  0  0  0  0
 34 83  1  0  0  0  0
 35 42  1  0  0  0  0
 35 84  1  0  0  0  0
 35 85  1  0  0  0  0
 36 40  2  0  0  0  0
 36 87  1  0  0  0  0
 37 40  1  0  0  0  0
 37 88  1  0  0  0  0
 38 41  2  0  0  0  0
 38 89  1  0  0  0  0
 39 41  1  0  0  0  0
 39 90  1  0  0  0  0
 40 91  1  0  0  0  0
 41 92  1  0  0  0  0
 43 44  1  0  0  0  0
 44 45  1  0  0  0  0
 45 47  2  0  0  0  0
 45 95  1  0  0  0  0
 46 48  1  0  0  0  0
 46 49  2  0  0  0  0
 47 48  1  0  0  0  0
 47 96  1  0  0  0  0
 48 50  2  0  0  0  0
 49 51  1  0  0  0  0
 49 97  1  0  0  0  0
 50 52  1  0  0  0  0
 50 98  1  0  0  0  0
 51 52  2  0  0  0  0
 51 99  1  0  0  0  0
 52100  1  0  0  0  0
M  END
> <PUBCHEM_COMPOUND_CID>
503188
> <PUBCHEM_COMPOUND_CANONICALIZED>
1
> <PUBCHEM_CACTVS_COMPLEXITY>
1190
> <PUBCHEM_CACTVS_HBOND_ACCEPTOR>
8
> <PUBCHEM_CACTVS_HBOND_DONOR>
5
> <PUBCHEM_CACTVS_ROTATABLE_BOND>
15
> <PUBCHEM_CACTVS_SUBSKEYS>
AAADcfB/uABAAAAAAAAAAAAAAAAAAAAAAAA8eMECAAAAAACx9AAAHgQQCAAADLzl3gaywfPIEgioAyVyVACCgCAnCjAImLm4ZNgKcPrg1bGUYQhklgD4yYedyKCOAAAAAAACAAAAAAAAAAQAAAAAAAAAAA==
> <PUBCHEM_IUPAC_OPENEYE_NAME>
(2S)-N-[(1S,2R)-1-benzyl-3-[(2S,4R)-2-(tert-butylcarbamoyl)-4-phenylsulfanyl-1-piperidyl]-2-hydroxy-propyl]-2-(quinoline-2-carbonylamino)butanediamide
> <PUBCHEM_IUPAC_CAS_NAME>
(2S)-N-[(2S,3R)-4-[(2S,4R)-2-[(tert-butylamino)-oxomethyl]-4-(phenylthio)-1-piperidinyl]-3-hydroxy-1-phenylbutan-2-yl]-2-[[oxo(2-quinolinyl)methyl]amino]butanediamide
> <PUBCHEM_IUPAC_NAME_MARKUP>
(2<I>S</I>)-<I>N</I>-[(2<I>S</I>,3<I>R</I>)-4-[(2<I>S</I>,4<I>R</I>)-2-(<I>tert</I>-butylcarbamoyl)-4-phenylsulfanylpiperidin-1-yl]-3-hydroxy-1-phenylbutan-2-yl]-2-(quinoline-2-carbonylamino)butanediamide
> <PUBCHEM_IUPAC_NAME>
(2S)-N-[(2S,3R)-4-[(2S,4R)-2-(tert-butylcarbamoyl)-4-phenylsulfanylpiperidin-1-yl]-3-hydroxy-1-phenylbutan-2-yl]-2-(quinoline-2-carbonylamino)butanediamide
> <PUBCHEM_IUPAC_SYSTEMATIC_NAME>
(2S)-N-[(2S,3R)-4-[(2S,4R)-2-(tert-butylcarbamoyl)-4-phenylsulfanyl-piperidin-1-yl]-3-oxidanyl-1-phenyl-butan-2-yl]-2-(quinolin-2-ylcarbonylamino)butanediamide
> <PUBCHEM_IUPAC_TRADITIONAL_NAME>
(2S)-N-[(1S,2R)-1-benzyl-3-[(2S,4R)-2-(tert-butylcarbamoyl)-4-(phenylthio)piperidino]-2-hydroxy-propyl]-2-(quinaldoylamino)succinamide
> <PUBCHEM_IUPAC_INCHI>
InChI=1S/C40H48N6O5S/c1-40(2,3)45-39(51)34-23-29(52-28-15-8-5-9-16-28)20-21-46(34)25-35(47)32(22-26-12-6-4-7-13-26)43-38(50)33(24-36(41)48)44-37(49)31-19-18-27-14-10-11-17-30(27)42-31/h4-19,29,32-35,47H,20-25H2,1-3H3,(H2,41,48)(H,43,50)(H,44,49)(H,45,51)/t29-,32+,33+,34+,35-/m1/s1
> <PUBCHEM_IUPAC_INCHIKEY>
OGFGYGYJHAATAJ-BTWQBLKXSA-N
> <PUBCHEM_XLOGP3_AA>
4.6
> <PUBCHEM_EXACT_MASS>
724.34068983
> <PUBCHEM_MOLECULAR_FORMULA>
C40H48N6O5S
> <PUBCHEM_MOLECULAR_WEIGHT>
724.9
> <PUBCHEM_OPENEYE_CAN_SMILES>
CC(C)(C)NC(=O)C1CC(CCN1CC(C(CC2=CC=CC=C2)NC(=O)C(CC(=O)N)NC(=O)C3=NC4=CC=CC=C4C=C3)O)SC5=CC=CC=C5
> <PUBCHEM_OPENEYE_ISO_SMILES>
CC(C)(C)NC(=O)[C@@H]1C[C@@H](CCN1C[C@H]([C@H](CC2=CC=CC=C2)NC(=O)[C@H](CC(=O)N)NC(=O)C3=NC4=CC=CC=C4C=C3)O)SC5=CC=CC=C5
> <PUBCHEM_CACTVS_TPSA>
192
> <PUBCHEM_MONOISOTOPIC_WEIGHT>
724.34068983
> <PUBCHEM_TOTAL_CHARGE>
0
> <PUBCHEM_HEAVY_ATOM_COUNT>
52
> <PUBCHEM_ATOM_DEF_STEREO_COUNT>
5
> <PUBCHEM_ATOM_UDEF_STEREO_COUNT>
0
> <PUBCHEM_BOND_DEF_STEREO_COUNT>
0
> <PUBCHEM_BOND_UDEF_STEREO_COUNT>
0
> <PUBCHEM_ISOTOPIC_ATOM_COUNT>
0
> <PUBCHEM_COMPONENT_COUNT>
1
> <PUBCHEM_CACTVS_TAUTO_COUNT>
-1
> <PUBCHEM_COORDINATE_TYPE>
1
5
255
> <PUBCHEM_BONDANNOTATIONS>
15  1  6
30  10  6
12  44  8
12  46  8
13  20  6
19  2  5
24  31  8
24  32  8
25  33  8
25  34  8
31  36  8
32  37  8
33  38  8
34  39  8
36  40  8
37  40  8
38  41  8
39  41  8
44  45  8
45  47  8
46  48  8
46  49  8
47  48  8
48  50  8
49  51  8
50  52  8
51  52  8
21  9  6
$$$$
