503184
  -OEChem-10302200282D
106109  0     1  0  0  0  0  0999 V2000
    4.5981   -0.5000    0.0000 O   0  0  0  0  0  0  0  0  0  0  0  0
    8.0622   -0.5000    0.0000 O   0  0  0  0  0  0  0  0  0  0  0  0
    8.9282   -1.0000    0.0000 O   0  0  0  0  0  0  0  0  0  0  0  0
   12.3923   -2.0000    0.0000 O   0  0  0  0  0  0  0  0  0  0  0  0
   11.5263   -3.5000    0.0000 O   0  0  0  0  0  0  0  0  0  0  0  0
    6.3301    0.5000    0.0000 N   0  0  3  0  0  0  0  0  0  0  0  0
    3.7320    1.0000    0.0000 N   0  0  0  0  0  0  0  0  0  0  0  0
    8.0622   -2.5000    0.0000 N   0  0  0  0  0  0  0  0  0  0  0  0
   10.6603   -2.0000    0.0000 N   0  0  0  0  0  0  0  0  0  0  0  0
    6.3301    2.5000    0.0000 C   0  0  1  0  0  0  0  0  0  0  0  0
    6.3301    3.5000    0.0000 C   0  0  0  0  0  0  0  0  0  0  0  0
    5.4641    2.0000    0.0000 C   0  0  0  0  0  0  0  0  0  0  0  0
    7.1962    2.0000    0.0000 C   0  0  0  0  0  0  0  0  0  0  0  0
    5.4641    1.0000    0.0000 C   0  0  1  0  0  0  0  0  0  0  0  0
    7.1962    4.0000    0.0000 C   0  0  0  0  0  0  0  0  0  0  0  0
    5.4641    4.0000    0.0000 C   0  0  0  0  0  0  0  0  0  0  0  0
    7.1962    1.0000    0.0000 C   0  0  0  0  0  0  0  0  0  0  0  0
    7.1962    5.0000    0.0000 C   0  0  0  0  0  0  0  0  0  0  0  0
    5.4641    5.0000    0.0000 C   0  0  0  0  0  0  0  0  0  0  0  0
    6.3301    5.5000    0.0000 C   0  0  0  0  0  0  0  0  0  0  0  0
    6.3301   -0.5000    0.0000 C   0  0  0  0  0  0  0  0  0  0  0  0
    4.5981    0.5000    0.0000 C   0  0  0  0  0  0  0  0  0  0  0  0
    7.1962   -1.0000    0.0000 C   0  0  2  0  0  0  0  0  0  0  0  0
    7.1962   -2.0000    0.0000 C   0  0  2  0  0  0  0  0  0  0  0  0
    2.8660    0.5000    0.0000 C   0  0  0  0  0  0  0  0  0  0  0  0
    6.3301   -2.5000    0.0000 C   0  0  0  0  0  0  0  0  0  0  0  0
    2.0000   -0.0000    0.0000 C   0  0  0  0  0  0  0  0  0  0  0  0
    2.3660    1.3660    0.0000 C   0  0  0  0  0  0  0  0  0  0  0  0
    3.3660   -0.3660    0.0000 C   0  0  0  0  0  0  0  0  0  0  0  0
    6.3301   -3.5000    0.0000 C   0  0  0  0  0  0  0  0  0  0  0  0
    8.9282   -2.0000    0.0000 C   0  0  0  0  0  0  0  0  0  0  0  0
    9.7942   -2.5000    0.0000 C   0  0  2  0  0  0  0  0  0  0  0  0
    7.1962   -4.0000    0.0000 C   0  0  0  0  0  0  0  0  0  0  0  0
    5.4641   -4.0000    0.0000 C   0  0  0  0  0  0  0  0  0  0  0  0
    9.7942   -3.5000    0.0000 C   0  0  0  0  0  0  0  0  0  0  0  0
    7.1962   -5.0000    0.0000 C   0  0  0  0  0  0  0  0  0  0  0  0
    5.4641   -5.0000    0.0000 C   0  0  0  0  0  0  0  0  0  0  0  0
   10.6603   -4.0000    0.0000 C   0  0  0  0  0  0  0  0  0  0  0  0
    8.9282   -4.0000    0.0000 C   0  0  0  0  0  0  0  0  0  0  0  0
    6.3301   -5.5000    0.0000 C   0  0  0  0  0  0  0  0  0  0  0  0
   11.5263   -2.5000    0.0000 C   0  0  0  0  0  0  0  0  0  0  0  0
   13.2583   -2.5000    0.0000 C   0  0  0  0  0  0  0  0  0  0  0  0
   14.1244   -2.0000    0.0000 C   0  0  0  0  0  0  0  0  0  0  0  0
   14.1244   -1.0000    0.0000 C   0  0  0  0  0  0  0  0  0  0  0  0
   14.9904   -2.5000    0.0000 C   0  0  0  0  0  0  0  0  0  0  0  0
   14.9904   -0.5000    0.0000 C   0  0  0  0  0  0  0  0  0  0  0  0
   15.8564   -2.0000    0.0000 C   0  0  0  0  0  0  0  0  0  0  0  0
   15.8564   -1.0000    0.0000 C   0  0  0  0  0  0  0  0  0  0  0  0
    7.0662    2.9250    0.0000 H   0  0  0  0  0  0  0  0  0  0  0  0
    5.7932    3.1900    0.0000 H   0  0  0  0  0  0  0  0  0  0  0  0
    5.2520    2.5826    0.0000 H   0  0  0  0  0  0  0  0  0  0  0  0
    4.8535    1.8923    0.0000 H   0  0  0  0  0  0  0  0  0  0  0  0
    7.8067    1.8923    0.0000 H   0  0  0  0  0  0  0  0  0  0  0  0
    7.4082    2.5826    0.0000 H   0  0  0  0  0  0  0  0  0  0  0  0
    5.4641    0.3800    0.0000 H   0  0  0  0  0  0  0  0  0  0  0  0
    7.4082    3.4174    0.0000 H   0  0  0  0  0  0  0  0  0  0  0  0
    7.8067    4.1077    0.0000 H   0  0  0  0  0  0  0  0  0  0  0  0
    4.8535    4.1077    0.0000 H   0  0  0  0  0  0  0  0  0  0  0  0
    5.2520    3.4174    0.0000 H   0  0  0  0  0  0  0  0  0  0  0  0
    7.4082    0.4174    0.0000 H   0  0  0  0  0  0  0  0  0  0  0  0
    7.8067    1.1077    0.0000 H   0  0  0  0  0  0  0  0  0  0  0  0
    7.8067    4.8923    0.0000 H   0  0  0  0  0  0  0  0  0  0  0  0
    7.4082    5.5826    0.0000 H   0  0  0  0  0  0  0  0  0  0  0  0
    5.2520    5.5826    0.0000 H   0  0  0  0  0  0  0  0  0  0  0  0
    4.8535    4.8923    0.0000 H   0  0  0  0  0  0  0  0  0  0  0  0
    6.7287    5.9750    0.0000 H   0  0  0  0  0  0  0  0  0  0  0  0
    5.9316    5.9750    0.0000 H   0  0  0  0  0  0  0  0  0  0  0  0
    5.7196   -0.3923    0.0000 H   0  0  0  0  0  0  0  0  0  0  0  0
    6.1181   -1.0826    0.0000 H   0  0  0  0  0  0  0  0  0  0  0  0
    7.7331   -1.3100    0.0000 H   0  0  0  0  0  0  0  0  0  0  0  0
    7.1962   -2.6200    0.0000 H   0  0  0  0  0  0  0  0  0  0  0  0
    3.7320    1.6200    0.0000 H   0  0  0  0  0  0  0  0  0  0  0  0
    6.1181   -1.9174    0.0000 H   0  0  0  0  0  0  0  0  0  0  0  0
    5.7196   -2.6077    0.0000 H   0  0  0  0  0  0  0  0  0  0  0  0
    8.0622    0.1200    0.0000 H   0  0  0  0  0  0  0  0  0  0  0  0
    8.0622   -3.1200    0.0000 H   0  0  0  0  0  0  0  0  0  0  0  0
    1.6900    0.5369    0.0000 H   0  0  0  0  0  0  0  0  0  0  0  0
    1.4631   -0.3100    0.0000 H   0  0  0  0  0  0  0  0  0  0  0  0
    2.3100   -0.5369    0.0000 H   0  0  0  0  0  0  0  0  0  0  0  0
    2.9030    1.6760    0.0000 H   0  0  0  0  0  0  0  0  0  0  0  0
    2.0560    1.9030    0.0000 H   0  0  0  0  0  0  0  0  0  0  0  0
    1.8291    1.0560    0.0000 H   0  0  0  0  0  0  0  0  0  0  0  0
    2.8291   -0.6760    0.0000 H   0  0  0  0  0  0  0  0  0  0  0  0
    3.6760   -0.9030    0.0000 H   0  0  0  0  0  0  0  0  0  0  0  0
    3.9030   -0.0560    0.0000 H   0  0  0  0  0  0  0  0  0  0  0  0
    9.7942   -1.8800    0.0000 H   0  0  0  0  0  0  0  0  0  0  0  0
    7.7331   -3.6900    0.0000 H   0  0  0  0  0  0  0  0  0  0  0  0
    4.9272   -3.6900    0.0000 H   0  0  0  0  0  0  0  0  0  0  0  0
    9.2573   -3.1900    0.0000 H   0  0  0  0  0  0  0  0  0  0  0  0
   10.6603   -1.3800    0.0000 H   0  0  0  0  0  0  0  0  0  0  0  0
    7.7331   -5.3100    0.0000 H   0  0  0  0  0  0  0  0  0  0  0  0
    4.9272   -5.3100    0.0000 H   0  0  0  0  0  0  0  0  0  0  0  0
   10.3503   -4.5369    0.0000 H   0  0  0  0  0  0  0  0  0  0  0  0
   11.1972   -4.3100    0.0000 H   0  0  0  0  0  0  0  0  0  0  0  0
   10.9703   -3.4631    0.0000 H   0  0  0  0  0  0  0  0  0  0  0  0
    8.6182   -3.4631    0.0000 H   0  0  0  0  0  0  0  0  0  0  0  0
    8.3913   -4.3100    0.0000 H   0  0  0  0  0  0  0  0  0  0  0  0
    9.2382   -4.5369    0.0000 H   0  0  0  0  0  0  0  0  0  0  0  0
    6.3301   -6.1200    0.0000 H   0  0  0  0  0  0  0  0  0  0  0  0
   12.8598   -2.9750    0.0000 H   0  0  0  0  0  0  0  0  0  0  0  0
   13.6569   -2.9750    0.0000 H   0  0  0  0  0  0  0  0  0  0  0  0
   13.5874   -0.6900    0.0000 H   0  0  0  0  0  0  0  0  0  0  0  0
   14.9904   -3.1200    0.0000 H   0  0  0  0  0  0  0  0  0  0  0  0
   14.9904    0.1200    0.0000 H   0  0  0  0  0  0  0  0  0  0  0  0
   16.3933   -2.3100    0.0000 H   0  0  0  0  0  0  0  0  0  0  0  0
   16.3933   -0.6900    0.0000 H   0  0  0  0  0  0  0  0  0  0  0  0
  1 22  2  0  0  0  0
 23  2  1  1  0  0  0
  2 75  1  0  0  0  0
  3 31  2  0  0  0  0
  4 41  1  0  0  0  0
  4 42  1  0  0  0  0
  5 41  2  0  0  0  0
  6 14  1  0  0  0  0
  6 17  1  0  0  0  0
  6 21  1  0  0  0  0
  7 22  1  0  0  0  0
  7 25  1  0  0  0  0
  7 72  1  0  0  0  0
 24  8  1  1  0  0  0
  8 31  1  0  0  0  0
  8 76  1  0  0  0  0
 32  9  1  1  0  0  0
  9 41  1  0  0  0  0
  9 90  1  0  0  0  0
 10 11  1  0  0  0  0
 10 12  1  0  0  0  0
 10 13  1  0  0  0  0
 10 49  1  1  0  0  0
 11 15  1  0  0  0  0
 11 16  1  0  0  0  0
 11 50  1  0  0  0  0
 12 14  1  0  0  0  0
 12 51  1  0  0  0  0
 12 52  1  0  0  0  0
 13 17  1  0  0  0  0
 13 53  1  0  0  0  0
 13 54  1  0  0  0  0
 14 22  1  6  0  0  0
 14 55  1  0  0  0  0
 15 18  1  0  0  0  0
 15 56  1  0  0  0  0
 15 57  1  0  0  0  0
 16 19  1  0  0  0  0
 16 58  1  0  0  0  0
 16 59  1  0  0  0  0
 17 60  1  0  0  0  0
 17 61  1  0  0  0  0
 18 20  1  0  0  0  0
 18 62  1  0  0  0  0
 18 63  1  0  0  0  0
 19 20  1  0  0  0  0
 19 64  1  0  0  0  0
 19 65  1  0  0  0  0
 20 66  1  0  0  0  0
 20 67  1  0  0  0  0
 21 23  1  0  0  0  0
 21 68  1  0  0  0  0
 21 69  1  0  0  0  0
 23 24  1  0  0  0  0
 23 70  1  0  0  0  0
 24 26  1  0  0  0  0
 24 71  1  0  0  0  0
 25 27  1  0  0  0  0
 25 28  1  0  0  0  0
 25 29  1  0  0  0  0
 26 30  1  0  0  0  0
 26 73  1  0  0  0  0
 26 74  1  0  0  0  0
 27 77  1  0  0  0  0
 27 78  1  0  0  0  0
 27 79  1  0  0  0  0
 28 80  1  0  0  0  0
 28 81  1  0  0  0  0
 28 82  1  0  0  0  0
 29 83  1  0  0  0  0
 29 84  1  0  0  0  0
 29 85  1  0  0  0  0
 30 33  2  0  0  0  0
 30 34  1  0  0  0  0
 31 32  1  0  0  0  0
 32 35  1  0  0  0  0
 32 86  1  0  0  0  0
 33 36  1  0  0  0  0
 33 87  1  0  0  0  0
 34 37  2  0  0  0  0
 34 88  1  0  0  0  0
 35 38  1  0  0  0  0
 35 39  1  0  0  0  0
 35 89  1  0  0  0  0
 36 40  2  0  0  0  0
 36 91  1  0  0  0  0
 37 40  1  0  0  0  0
 37 92  1  0  0  0  0
 38 93  1  0  0  0  0
 38 94  1  0  0  0  0
 38 95  1  0  0  0  0
 39 96  1  0  0  0  0
 39 97  1  0  0  0  0
 39 98  1  0  0  0  0
 40 99  1  0  0  0  0
 42 43  1  0  0  0  0
 42100  1  0  0  0  0
 42101  1  0  0  0  0
 43 44  2  0  0  0  0
 43 45  1  0  0  0  0
 44 46  1  0  0  0  0
 44102  1  0  0  0  0
 45 47  2  0  0  0  0
 45103  1  0  0  0  0
 46 48  2  0  0  0  0
 46104  1  0  0  0  0
 47 48  1  0  0  0  0
 47105  1  0  0  0  0
 48106  1  0  0  0  0
M  END
> <PUBCHEM_COMPOUND_CID>
503184
> <PUBCHEM_COMPOUND_CANONICALIZED>
1
> <PUBCHEM_CACTVS_COMPLEXITY>
997
> <PUBCHEM_CACTVS_HBOND_ACCEPTOR>
6
> <PUBCHEM_CACTVS_HBOND_DONOR>
4
> <PUBCHEM_CACTVS_ROTATABLE_BOND>
15
> <PUBCHEM_CACTVS_SUBSKEYS>
AAADcfB/uAAAAAAAAAAAAAAAAAAAAAAAAAA8YMEAAAAAAAABQAAAHgAQCAAADbzhmAYyCIPABgCIAiFSGAACAAAgAAAIiIGICIkKdjKA8TmccAAk1gGYqAeYyOCOgAAAAAAAAAAAAAAAAAAAAAAAAAAAAA==
> <PUBCHEM_IUPAC_OPENEYE_NAME>
benzyl N-[(1S)-1-[[(1S,2R)-1-benzyl-3-[(2S,4R)-2-(tert-butylcarbamoyl)-4-cyclohexyl-1-piperidyl]-2-hydroxy-propyl]carbamoyl]-2-methyl-propyl]carbamate
> <PUBCHEM_IUPAC_CAS_NAME>
N-[(2S)-1-[[(2S,3R)-4-[(2S,4R)-2-[(tert-butylamino)-oxomethyl]-4-cyclohexyl-1-piperidinyl]-3-hydroxy-1-phenylbutan-2-yl]amino]-3-methyl-1-oxobutan-2-yl]carbamic acid (phenylmethyl) ester
> <PUBCHEM_IUPAC_NAME_MARKUP>
benzyl <I>N</I>-[(2<I>S</I>)-1-[[(2<I>S</I>,3<I>R</I>)-4-[(2<I>S</I>,4<I>R</I>)-2-(<I>tert</I>-butylcarbamoyl)-4-cyclohexylpiperidin-1-yl]-3-hydroxy-1-phenylbutan-2-yl]amino]-3-methyl-1-oxobutan-2-yl]carbamate
> <PUBCHEM_IUPAC_NAME>
benzyl N-[(2S)-1-[[(2S,3R)-4-[(2S,4R)-2-(tert-butylcarbamoyl)-4-cyclohexylpiperidin-1-yl]-3-hydroxy-1-phenylbutan-2-yl]amino]-3-methyl-1-oxobutan-2-yl]carbamate
> <PUBCHEM_IUPAC_SYSTEMATIC_NAME>
(phenylmethyl) N-[(2S)-1-[[(2S,3R)-4-[(2S,4R)-2-(tert-butylcarbamoyl)-4-cyclohexyl-piperidin-1-yl]-3-oxidanyl-1-phenyl-butan-2-yl]amino]-3-methyl-1-oxidanylidene-butan-2-yl]carbamate
> <PUBCHEM_IUPAC_TRADITIONAL_NAME>
N-[(1S)-1-[[(1S,2R)-1-benzyl-3-[(2S,4R)-2-(tert-butylcarbamoyl)-4-cyclohexyl-piperidino]-2-hydroxy-propyl]carbamoyl]-2-methyl-propyl]carbamic acid benzyl ester
> <PUBCHEM_IUPAC_INCHI>
InChI=1S/C39H58N4O5/c1-27(2)35(41-38(47)48-26-29-17-11-7-12-18-29)37(46)40-32(23-28-15-9-6-10-16-28)34(44)25-43-22-21-31(30-19-13-8-14-20-30)24-33(43)36(45)42-39(3,4)5/h6-7,9-12,15-18,27,30-35,44H,8,13-14,19-26H2,1-5H3,(H,40,46)(H,41,47)(H,42,45)/t31-,32+,33+,34-,35+/m1/s1
> <PUBCHEM_IUPAC_INCHIKEY>
BYMUNSWZANGELT-NVCPMKERSA-N
> <PUBCHEM_XLOGP3_AA>
7.4
> <PUBCHEM_EXACT_MASS>
662.44072096
> <PUBCHEM_MOLECULAR_FORMULA>
C39H58N4O5
> <PUBCHEM_MOLECULAR_WEIGHT>
662.9
> <PUBCHEM_OPENEYE_CAN_SMILES>
CC(C)C(C(=O)NC(CC1=CC=CC=C1)C(CN2CCC(CC2C(=O)NC(C)(C)C)C3CCCCC3)O)NC(=O)OCC4=CC=CC=C4
> <PUBCHEM_OPENEYE_ISO_SMILES>
CC(C)[C@@H](C(=O)N[C@@H](CC1=CC=CC=C1)[C@@H](CN2CC[C@H](C[C@H]2C(=O)NC(C)(C)C)C3CCCCC3)O)NC(=O)OCC4=CC=CC=C4
> <PUBCHEM_CACTVS_TPSA>
120
> <PUBCHEM_MONOISOTOPIC_WEIGHT>
662.44072096
> <PUBCHEM_TOTAL_CHARGE>
0
> <PUBCHEM_HEAVY_ATOM_COUNT>
48
> <PUBCHEM_ATOM_DEF_STEREO_COUNT>
5
> <PUBCHEM_ATOM_UDEF_STEREO_COUNT>
0
> <PUBCHEM_BOND_DEF_STEREO_COUNT>
0
> <PUBCHEM_BOND_UDEF_STEREO_COUNT>
0
> <PUBCHEM_ISOTOPIC_ATOM_COUNT>
0
> <PUBCHEM_COMPONENT_COUNT>
1
> <PUBCHEM_CACTVS_TAUTO_COUNT>
-1
> <PUBCHEM_COORDINATE_TYPE>
1
5
255
> <PUBCHEM_BONDANNOTATIONS>
10  49  5
14  22  6
23  2  5
30  33  8
30  34  8
33  36  8
34  37  8
36  40  8
37  40  8
43  44  8
43  45  8
44  46  8
45  47  8
46  48  8
47  48  8
24  8  5
32  9  5
$$$$
