503105
  -OEChem-10302200282D
 88 89  0     1  0  0  0  0  0999 V2000
    8.9282   -0.9330    0.0000 S   0  0  0  0  0  0  0  0  0  0  0  0
    7.1962    0.0670    0.0000 O   0  0  0  0  0  0  0  0  0  0  0  0
    6.3301    0.5670    0.0000 O   0  0  0  0  0  0  0  0  0  0  0  0
    3.7320    3.0670    0.0000 O   0  0  0  0  0  0  0  0  0  0  0  0
    2.8660    1.5670    0.0000 O   0  0  0  0  0  0  0  0  0  0  0  0
    9.7942    0.5670    0.0000 O   0  0  0  0  0  0  0  0  0  0  0  0
    5.4641   -0.9330    0.0000 N   0  0  0  0  0  0  0  0  0  0  0  0
    4.5981    1.5670    0.0000 N   0  0  0  0  0  0  0  0  0  0  0  0
   11.5263    0.5670    0.0000 N   0  0  0  0  0  0  0  0  0  0  0  0
    3.7320    0.0670    0.0000 C   0  0  3  0  0  0  0  0  0  0  0  0
    4.5981    0.5670    0.0000 C   0  0  2  0  0  0  0  0  0  0  0  0
    6.3301   -1.4330    0.0000 C   0  0  2  0  0  0  0  0  0  0  0  0
    7.1962   -0.9330    0.0000 C   0  0  1  0  0  0  0  0  0  0  0  0
    2.8660    0.5670    0.0000 C   0  0  0  0  0  0  0  0  0  0  0  0
    6.3301   -2.4330    0.0000 C   0  0  0  0  0  0  0  0  0  0  0  0
    5.4641    0.0670    0.0000 C   0  0  0  0  0  0  0  0  0  0  0  0
    3.7320   -0.9330    0.0000 C   0  0  0  0  0  0  0  0  0  0  0  0
    8.0622   -1.4330    0.0000 C   0  0  0  0  0  0  0  0  0  0  0  0
    5.4641   -2.9330    0.0000 C   0  0  0  0  0  0  0  0  0  0  0  0
    2.0000    0.0670    0.0000 C   0  0  0  0  0  0  0  0  0  0  0  0
    3.7320    2.0670    0.0000 C   0  0  0  0  0  0  0  0  0  0  0  0
    2.8660    3.5670    0.0000 C   0  0  0  0  0  0  0  0  0  0  0  0
    5.4641   -3.9330    0.0000 C   0  0  0  0  0  0  0  0  0  0  0  0
    4.5981   -2.4330    0.0000 C   0  0  0  0  0  0  0  0  0  0  0  0
   11.5263    1.5670    0.0000 C   0  0  0  0  0  0  0  0  0  0  0  0
    9.7942   -1.4330    0.0000 C   0  0  0  0  0  0  0  0  0  0  0  0
    4.5981   -4.4330    0.0000 C   0  0  0  0  0  0  0  0  0  0  0  0
    3.7320   -2.9330    0.0000 C   0  0  0  0  0  0  0  0  0  0  0  0
   10.6603   -0.9330    0.0000 C   0  0  0  0  0  0  0  0  0  0  0  0
    2.0000    4.0670    0.0000 C   0  0  0  0  0  0  0  0  0  0  0  0
    3.3660    4.4330    0.0000 C   0  0  0  0  0  0  0  0  0  0  0  0
    2.3660    2.7010    0.0000 C   0  0  0  0  0  0  0  0  0  0  0  0
    3.7320   -3.9330    0.0000 C   0  0  0  0  0  0  0  0  0  0  0  0
   11.5263    2.5670    0.0000 C   0  0  0  0  0  0  0  0  0  0  0  0
   12.5263    1.5670    0.0000 C   0  0  0  0  0  0  0  0  0  0  0  0
   10.5263    1.5670    0.0000 C   0  0  0  0  0  0  0  0  0  0  0  0
   10.6603    0.0670    0.0000 C   0  0  0  0  0  0  0  0  0  0  0  0
    9.7942   -2.4330    0.0000 C   0  0  0  0  0  0  0  0  0  0  0  0
   11.5263   -1.4330    0.0000 C   0  0  0  0  0  0  0  0  0  0  0  0
   10.6603   -2.9330    0.0000 C   0  0  0  0  0  0  0  0  0  0  0  0
   11.5263   -2.4330    0.0000 C   0  0  0  0  0  0  0  0  0  0  0  0
    4.2690   -0.2430    0.0000 H   0  0  0  0  0  0  0  0  0  0  0  0
    5.1350    0.8770    0.0000 H   0  0  0  0  0  0  0  0  0  0  0  0
    5.7932   -1.7430    0.0000 H   0  0  0  0  0  0  0  0  0  0  0  0
    6.6592   -0.6230    0.0000 H   0  0  0  0  0  0  0  0  0  0  0  0
    3.2646    1.0419    0.0000 H   0  0  0  0  0  0  0  0  0  0  0  0
    2.4675    1.0419    0.0000 H   0  0  0  0  0  0  0  0  0  0  0  0
    6.5422   -3.0156    0.0000 H   0  0  0  0  0  0  0  0  0  0  0  0
    6.9407   -2.3253    0.0000 H   0  0  0  0  0  0  0  0  0  0  0  0
    4.9272   -1.2430    0.0000 H   0  0  0  0  0  0  0  0  0  0  0  0
    3.1120   -0.9330    0.0000 H   0  0  0  0  0  0  0  0  0  0  0  0
    3.7320   -1.5530    0.0000 H   0  0  0  0  0  0  0  0  0  0  0  0
    4.3520   -0.9330    0.0000 H   0  0  0  0  0  0  0  0  0  0  0  0
    5.1350    1.8770    0.0000 H   0  0  0  0  0  0  0  0  0  0  0  0
    7.6636   -1.9080    0.0000 H   0  0  0  0  0  0  0  0  0  0  0  0
    8.4607   -1.9080    0.0000 H   0  0  0  0  0  0  0  0  0  0  0  0
    1.6900    0.6039    0.0000 H   0  0  0  0  0  0  0  0  0  0  0  0
    1.4631   -0.2430    0.0000 H   0  0  0  0  0  0  0  0  0  0  0  0
    2.3100   -0.4699    0.0000 H   0  0  0  0  0  0  0  0  0  0  0  0
    7.7331    0.3770    0.0000 H   0  0  0  0  0  0  0  0  0  0  0  0
    6.0010   -4.2430    0.0000 H   0  0  0  0  0  0  0  0  0  0  0  0
    4.5981   -1.8130    0.0000 H   0  0  0  0  0  0  0  0  0  0  0  0
    4.5981   -5.0530    0.0000 H   0  0  0  0  0  0  0  0  0  0  0  0
    3.1951   -2.6230    0.0000 H   0  0  0  0  0  0  0  0  0  0  0  0
    2.3100    4.6039    0.0000 H   0  0  0  0  0  0  0  0  0  0  0  0
    1.4631    4.3770    0.0000 H   0  0  0  0  0  0  0  0  0  0  0  0
    1.6900    3.5300    0.0000 H   0  0  0  0  0  0  0  0  0  0  0  0
    3.9030    4.1230    0.0000 H   0  0  0  0  0  0  0  0  0  0  0  0
    3.6760    4.9700    0.0000 H   0  0  0  0  0  0  0  0  0  0  0  0
    2.8291    4.7430    0.0000 H   0  0  0  0  0  0  0  0  0  0  0  0
    1.8291    3.0110    0.0000 H   0  0  0  0  0  0  0  0  0  0  0  0
    2.0560    2.1640    0.0000 H   0  0  0  0  0  0  0  0  0  0  0  0
    2.9030    2.3910    0.0000 H   0  0  0  0  0  0  0  0  0  0  0  0
   12.0632    0.2570    0.0000 H   0  0  0  0  0  0  0  0  0  0  0  0
    3.1951   -4.2430    0.0000 H   0  0  0  0  0  0  0  0  0  0  0  0
   12.1463    2.5670    0.0000 H   0  0  0  0  0  0  0  0  0  0  0  0
   11.5263    3.1870    0.0000 H   0  0  0  0  0  0  0  0  0  0  0  0
   10.9063    2.5670    0.0000 H   0  0  0  0  0  0  0  0  0  0  0  0
   12.5263    0.9470    0.0000 H   0  0  0  0  0  0  0  0  0  0  0  0
   13.1463    1.5670    0.0000 H   0  0  0  0  0  0  0  0  0  0  0  0
   12.5263    2.1870    0.0000 H   0  0  0  0  0  0  0  0  0  0  0  0
   10.5263    2.1870    0.0000 H   0  0  0  0  0  0  0  0  0  0  0  0
    9.9063    1.5670    0.0000 H   0  0  0  0  0  0  0  0  0  0  0  0
   10.5263    0.9470    0.0000 H   0  0  0  0  0  0  0  0  0  0  0  0
    9.2573   -2.7430    0.0000 H   0  0  0  0  0  0  0  0  0  0  0  0
   12.0632   -1.1230    0.0000 H   0  0  0  0  0  0  0  0  0  0  0  0
   10.6603   -3.5530    0.0000 H   0  0  0  0  0  0  0  0  0  0  0  0
   12.0632   -2.7430    0.0000 H   0  0  0  0  0  0  0  0  0  0  0  0
  1 18  1  0  0  0  0
  1 26  1  0  0  0  0
 13  2  1  6  0  0  0
  2 60  1  0  0  0  0
  3 16  2  0  0  0  0
  4 21  1  0  0  0  0
  4 22  1  0  0  0  0
  5 21  2  0  0  0  0
  6 37  2  0  0  0  0
 12  7  1  6  0  0  0
  7 16  1  0  0  0  0
  7 50  1  0  0  0  0
 11  8  1  1  0  0  0
  8 21  1  0  0  0  0
  8 54  1  0  0  0  0
  9 25  1  0  0  0  0
  9 37  1  0  0  0  0
  9 74  1  0  0  0  0
 10 11  1  0  0  0  0
 10 14  1  0  0  0  0
 10 17  1  0  0  0  0
 10 42  1  0  0  0  0
 11 16  1  0  0  0  0
 11 43  1  0  0  0  0
 12 13  1  0  0  0  0
 12 15  1  0  0  0  0
 12 44  1  0  0  0  0
 13 18  1  0  0  0  0
 13 45  1  0  0  0  0
 14 20  1  0  0  0  0
 14 46  1  0  0  0  0
 14 47  1  0  0  0  0
 15 19  1  0  0  0  0
 15 48  1  0  0  0  0
 15 49  1  0  0  0  0
 17 51  1  0  0  0  0
 17 52  1  0  0  0  0
 17 53  1  0  0  0  0
 18 55  1  0  0  0  0
 18 56  1  0  0  0  0
 19 23  2  0  0  0  0
 19 24  1  0  0  0  0
 20 57  1  0  0  0  0
 20 58  1  0  0  0  0
 20 59  1  0  0  0  0
 22 30  1  0  0  0  0
 22 31  1  0  0  0  0
 22 32  1  0  0  0  0
 23 27  1  0  0  0  0
 23 61  1  0  0  0  0
 24 28  2  0  0  0  0
 24 62  1  0  0  0  0
 25 34  1  0  0  0  0
 25 35  1  0  0  0  0
 25 36  1  0  0  0  0
 26 29  1  0  0  0  0
 26 38  2  0  0  0  0
 27 33  2  0  0  0  0
 27 63  1  0  0  0  0
 28 33  1  0  0  0  0
 28 64  1  0  0  0  0
 29 37  1  0  0  0  0
 29 39  2  0  0  0  0
 30 65  1  0  0  0  0
 30 66  1  0  0  0  0
 30 67  1  0  0  0  0
 31 68  1  0  0  0  0
 31 69  1  0  0  0  0
 31 70  1  0  0  0  0
 32 71  1  0  0  0  0
 32 72  1  0  0  0  0
 32 73  1  0  0  0  0
 33 75  1  0  0  0  0
 34 76  1  0  0  0  0
 34 77  1  0  0  0  0
 34 78  1  0  0  0  0
 35 79  1  0  0  0  0
 35 80  1  0  0  0  0
 35 81  1  0  0  0  0
 36 82  1  0  0  0  0
 36 83  1  0  0  0  0
 36 84  1  0  0  0  0
 38 40  1  0  0  0  0
 38 85  1  0  0  0  0
 39 41  1  0  0  0  0
 39 86  1  0  0  0  0
 40 41  2  0  0  0  0
 40 87  1  0  0  0  0
 41 88  1  0  0  0  0
M  END
> <PUBCHEM_COMPOUND_CID>
503105
> <PUBCHEM_COMPOUND_CANONICALIZED>
1
> <PUBCHEM_CACTVS_COMPLEXITY>
834
> <PUBCHEM_CACTVS_HBOND_ACCEPTOR>
6
> <PUBCHEM_CACTVS_HBOND_DONOR>
4
> <PUBCHEM_CACTVS_ROTATABLE_BOND>
15
> <PUBCHEM_CACTVS_SUBSKEYS>
AAADcfB/OABAAAAAAAAAAAAAAAAAAAAAAAAwYAAAAAAAAAABQAAAHgQQCAAADfzl2AayCYLABgiIAiFSGACCAAAkCBAIiJmIBMkKcDKglTGcYQhklgC4iYeYyKCOAAAAAAAEAAAAAAAAAAgAAAAAAAAAAA==
> <PUBCHEM_IUPAC_OPENEYE_NAME>
tert-butyl N-[(1R)-1-[[(1S,2S)-1-benzyl-3-[2-(tert-butylcarbamoyl)phenyl]sulfanyl-2-hydroxy-propyl]carbamoyl]-2-methyl-butyl]carbamate
> <PUBCHEM_IUPAC_CAS_NAME>
N-[(2R)-1-[[(2S,3S)-4-[[2-[(tert-butylamino)-oxomethyl]phenyl]thio]-3-hydroxy-1-phenylbutan-2-yl]amino]-3-methyl-1-oxopentan-2-yl]carbamic acid tert-butyl ester
> <PUBCHEM_IUPAC_NAME_MARKUP>
<I>tert</I>-butyl <I>N</I>-[(2<I>R</I>)-1-[[(2<I>S</I>,3<I>S</I>)-4-[2-(<I>tert</I>-butylcarbamoyl)phenyl]sulfanyl-3-hydroxy-1-phenylbutan-2-yl]amino]-3-methyl-1-oxopentan-2-yl]carbamate
> <PUBCHEM_IUPAC_NAME>
tert-butyl N-[(2R)-1-[[(2S,3S)-4-[2-(tert-butylcarbamoyl)phenyl]sulfanyl-3-hydroxy-1-phenylbutan-2-yl]amino]-3-methyl-1-oxopentan-2-yl]carbamate
> <PUBCHEM_IUPAC_SYSTEMATIC_NAME>
tert-butyl N-[(2R)-1-[[(2S,3S)-4-[2-(tert-butylcarbamoyl)phenyl]sulfanyl-3-oxidanyl-1-phenyl-butan-2-yl]amino]-3-methyl-1-oxidanylidene-pentan-2-yl]carbamate
> <PUBCHEM_IUPAC_TRADITIONAL_NAME>
N-[(1R)-1-[[(1S,2S)-1-benzyl-3-[[2-(tert-butylcarbamoyl)phenyl]thio]-2-hydroxy-propyl]carbamoyl]-2-methyl-butyl]carbamic acid tert-butyl ester
> <PUBCHEM_IUPAC_INCHI>
InChI=1S/C32H47N3O5S/c1-9-21(2)27(34-30(39)40-32(6,7)8)29(38)33-24(19-22-15-11-10-12-16-22)25(36)20-41-26-18-14-13-17-23(26)28(37)35-31(3,4)5/h10-18,21,24-25,27,36H,9,19-20H2,1-8H3,(H,33,38)(H,34,39)(H,35,37)/t21?,24-,25+,27+/m0/s1
> <PUBCHEM_IUPAC_INCHIKEY>
GHZCPXPQFOIZMC-KXFDCDMLSA-N
> <PUBCHEM_XLOGP3_AA>
5.9
> <PUBCHEM_EXACT_MASS>
585.32364278
> <PUBCHEM_MOLECULAR_FORMULA>
C32H47N3O5S
> <PUBCHEM_MOLECULAR_WEIGHT>
585.8
> <PUBCHEM_OPENEYE_CAN_SMILES>
CCC(C)C(C(=O)NC(CC1=CC=CC=C1)C(CSC2=CC=CC=C2C(=O)NC(C)(C)C)O)NC(=O)OC(C)(C)C
> <PUBCHEM_OPENEYE_ISO_SMILES>
CCC(C)[C@H](C(=O)N[C@@H](CC1=CC=CC=C1)[C@@H](CSC2=CC=CC=C2C(=O)NC(C)(C)C)O)NC(=O)OC(C)(C)C
> <PUBCHEM_CACTVS_TPSA>
142
> <PUBCHEM_MONOISOTOPIC_WEIGHT>
585.32364278
> <PUBCHEM_TOTAL_CHARGE>
0
> <PUBCHEM_HEAVY_ATOM_COUNT>
41
> <PUBCHEM_ATOM_DEF_STEREO_COUNT>
3
> <PUBCHEM_ATOM_UDEF_STEREO_COUNT>
1
> <PUBCHEM_BOND_DEF_STEREO_COUNT>
0
> <PUBCHEM_BOND_UDEF_STEREO_COUNT>
0
> <PUBCHEM_ISOTOPIC_ATOM_COUNT>
0
> <PUBCHEM_COMPONENT_COUNT>
1
> <PUBCHEM_CACTVS_TAUTO_COUNT>
-1
> <PUBCHEM_COORDINATE_TYPE>
1
5
255
> <PUBCHEM_BONDANNOTATIONS>
10  17  3
19  23  8
19  24  8
13  2  6
23  27  8
24  28  8
26  29  8
26  38  8
27  33  8
28  33  8
29  39  8
38  40  8
39  41  8
40  41  8
12  7  6
11  8  5
$$$$
