503167
  -OEChem-10302200282D
 84 87  0     1  0  0  0  0  0999 V2000
    8.0622   -0.5000    0.0000 O   0  0  0  0  0  0  0  0  0  0  0  0
    4.5981   -0.5000    0.0000 O   0  0  0  0  0  0  0  0  0  0  0  0
    9.7942   -2.5000    0.0000 O   0  0  0  0  0  0  0  0  0  0  0  0
    8.9282   -1.0000    0.0000 O   0  0  0  0  0  0  0  0  0  0  0  0
    6.3301    0.5000    0.0000 N   0  0  3  0  0  0  0  0  0  0  0  0
    3.7320    1.0000    0.0000 N   0  0  0  0  0  0  0  0  0  0  0  0
    8.0622   -2.5000    0.0000 N   0  0  0  0  0  0  0  0  0  0  0  0
    5.4641    1.0000    0.0000 C   0  0  1  0  0  0  0  0  0  0  0  0
    6.3301    2.5000    0.0000 C   0  0  1  0  0  0  0  0  0  0  0  0
    5.4641    2.0000    0.0000 C   0  0  0  0  0  0  0  0  0  0  0  0
    7.1962    2.0000    0.0000 C   0  0  0  0  0  0  0  0  0  0  0  0
    7.1962    1.0000    0.0000 C   0  0  0  0  0  0  0  0  0  0  0  0
    6.3301   -0.5000    0.0000 C   0  0  0  0  0  0  0  0  0  0  0  0
    7.1962   -1.0000    0.0000 C   0  0  2  0  0  0  0  0  0  0  0  0
    6.3301    3.5000    0.0000 C   0  0  0  0  0  0  0  0  0  0  0  0
    4.5981    0.5000    0.0000 C   0  0  0  0  0  0  0  0  0  0  0  0
    7.1962   -2.0000    0.0000 C   0  0  2  0  0  0  0  0  0  0  0  0
    2.8660    0.5000    0.0000 C   0  0  0  0  0  0  0  0  0  0  0  0
    6.3301   -2.5000    0.0000 C   0  0  0  0  0  0  0  0  0  0  0  0
    7.1962    4.0000    0.0000 C   0  0  0  0  0  0  0  0  0  0  0  0
    5.4641    4.0000    0.0000 C   0  0  0  0  0  0  0  0  0  0  0  0
    2.0000   -0.0000    0.0000 C   0  0  0  0  0  0  0  0  0  0  0  0
    2.3660    1.3660    0.0000 C   0  0  0  0  0  0  0  0  0  0  0  0
    3.3660   -0.3660    0.0000 C   0  0  0  0  0  0  0  0  0  0  0  0
    7.1962    5.0000    0.0000 C   0  0  0  0  0  0  0  0  0  0  0  0
    5.4641    5.0000    0.0000 C   0  0  0  0  0  0  0  0  0  0  0  0
    6.3301   -3.5000    0.0000 C   0  0  0  0  0  0  0  0  0  0  0  0
    6.3301    5.5000    0.0000 C   0  0  0  0  0  0  0  0  0  0  0  0
    8.9282   -2.0000    0.0000 C   0  0  0  0  0  0  0  0  0  0  0  0
    7.1962   -4.0000    0.0000 C   0  0  0  0  0  0  0  0  0  0  0  0
    5.4641   -4.0000    0.0000 C   0  0  0  0  0  0  0  0  0  0  0  0
    7.1962   -5.0000    0.0000 C   0  0  0  0  0  0  0  0  0  0  0  0
    5.4641   -5.0000    0.0000 C   0  0  0  0  0  0  0  0  0  0  0  0
    6.3301   -5.5000    0.0000 C   0  0  0  0  0  0  0  0  0  0  0  0
   10.6603   -2.0000    0.0000 C   0  0  0  0  0  0  0  0  0  0  0  0
   11.5263   -2.5000    0.0000 C   0  0  0  0  0  0  0  0  0  0  0  0
   11.5263   -3.5000    0.0000 C   0  0  0  0  0  0  0  0  0  0  0  0
   12.3923   -2.0000    0.0000 C   0  0  0  0  0  0  0  0  0  0  0  0
   12.3923   -4.0000    0.0000 C   0  0  0  0  0  0  0  0  0  0  0  0
   13.2583   -2.5000    0.0000 C   0  0  0  0  0  0  0  0  0  0  0  0
   13.2583   -3.5000    0.0000 C   0  0  0  0  0  0  0  0  0  0  0  0
    5.4641    0.3800    0.0000 H   0  0  0  0  0  0  0  0  0  0  0  0
    6.8671    2.8100    0.0000 H   0  0  0  0  0  0  0  0  0  0  0  0
    5.2520    2.5826    0.0000 H   0  0  0  0  0  0  0  0  0  0  0  0
    4.8535    1.8923    0.0000 H   0  0  0  0  0  0  0  0  0  0  0  0
    7.8067    1.8923    0.0000 H   0  0  0  0  0  0  0  0  0  0  0  0
    7.4082    2.5826    0.0000 H   0  0  0  0  0  0  0  0  0  0  0  0
    7.4082    0.4174    0.0000 H   0  0  0  0  0  0  0  0  0  0  0  0
    7.8067    1.1077    0.0000 H   0  0  0  0  0  0  0  0  0  0  0  0
    5.7196   -0.3923    0.0000 H   0  0  0  0  0  0  0  0  0  0  0  0
    6.1181   -1.0826    0.0000 H   0  0  0  0  0  0  0  0  0  0  0  0
    7.7331   -1.3100    0.0000 H   0  0  0  0  0  0  0  0  0  0  0  0
    7.1962   -2.6200    0.0000 H   0  0  0  0  0  0  0  0  0  0  0  0
    3.7320    1.6200    0.0000 H   0  0  0  0  0  0  0  0  0  0  0  0
    6.1181   -1.9174    0.0000 H   0  0  0  0  0  0  0  0  0  0  0  0
    5.7196   -2.6077    0.0000 H   0  0  0  0  0  0  0  0  0  0  0  0
    7.7331    3.6900    0.0000 H   0  0  0  0  0  0  0  0  0  0  0  0
    4.9272    3.6900    0.0000 H   0  0  0  0  0  0  0  0  0  0  0  0
    8.0622   -3.1200    0.0000 H   0  0  0  0  0  0  0  0  0  0  0  0
    8.0622    0.1200    0.0000 H   0  0  0  0  0  0  0  0  0  0  0  0
    1.6900    0.5369    0.0000 H   0  0  0  0  0  0  0  0  0  0  0  0
    1.4631   -0.3100    0.0000 H   0  0  0  0  0  0  0  0  0  0  0  0
    2.3100   -0.5369    0.0000 H   0  0  0  0  0  0  0  0  0  0  0  0
    2.9030    1.6760    0.0000 H   0  0  0  0  0  0  0  0  0  0  0  0
    2.0560    1.9030    0.0000 H   0  0  0  0  0  0  0  0  0  0  0  0
    1.8291    1.0560    0.0000 H   0  0  0  0  0  0  0  0  0  0  0  0
    2.8291   -0.6760    0.0000 H   0  0  0  0  0  0  0  0  0  0  0  0
    3.6760   -0.9030    0.0000 H   0  0  0  0  0  0  0  0  0  0  0  0
    3.9030   -0.0560    0.0000 H   0  0  0  0  0  0  0  0  0  0  0  0
    7.7331    5.3100    0.0000 H   0  0  0  0  0  0  0  0  0  0  0  0
    4.9272    5.3100    0.0000 H   0  0  0  0  0  0  0  0  0  0  0  0
    6.3301    6.1200    0.0000 H   0  0  0  0  0  0  0  0  0  0  0  0
    7.7331   -3.6900    0.0000 H   0  0  0  0  0  0  0  0  0  0  0  0
    4.9272   -3.6900    0.0000 H   0  0  0  0  0  0  0  0  0  0  0  0
    7.7331   -5.3100    0.0000 H   0  0  0  0  0  0  0  0  0  0  0  0
    4.9272   -5.3100    0.0000 H   0  0  0  0  0  0  0  0  0  0  0  0
    6.3301   -6.1200    0.0000 H   0  0  0  0  0  0  0  0  0  0  0  0
   11.0588   -1.5250    0.0000 H   0  0  0  0  0  0  0  0  0  0  0  0
   10.2617   -1.5250    0.0000 H   0  0  0  0  0  0  0  0  0  0  0  0
   10.9893   -3.8100    0.0000 H   0  0  0  0  0  0  0  0  0  0  0  0
   12.3923   -1.3800    0.0000 H   0  0  0  0  0  0  0  0  0  0  0  0
   12.3923   -4.6200    0.0000 H   0  0  0  0  0  0  0  0  0  0  0  0
   13.7953   -2.1900    0.0000 H   0  0  0  0  0  0  0  0  0  0  0  0
   13.7953   -3.8100    0.0000 H   0  0  0  0  0  0  0  0  0  0  0  0
 14  1  1  1  0  0  0
  1 60  1  0  0  0  0
  2 16  2  0  0  0  0
  3 29  1  0  0  0  0
  3 35  1  0  0  0  0
  4 29  2  0  0  0  0
  5  8  1  0  0  0  0
  5 12  1  0  0  0  0
  5 13  1  0  0  0  0
  6 16  1  0  0  0  0
  6 18  1  0  0  0  0
  6 54  1  0  0  0  0
 17  7  1  1  0  0  0
  7 29  1  0  0  0  0
  7 59  1  0  0  0  0
  8 10  1  0  0  0  0
  8 16  1  6  0  0  0
  8 42  1  0  0  0  0
  9 10  1  0  0  0  0
  9 11  1  0  0  0  0
  9 15  1  6  0  0  0
  9 43  1  0  0  0  0
 10 44  1  0  0  0  0
 10 45  1  0  0  0  0
 11 12  1  0  0  0  0
 11 46  1  0  0  0  0
 11 47  1  0  0  0  0
 12 48  1  0  0  0  0
 12 49  1  0  0  0  0
 13 14  1  0  0  0  0
 13 50  1  0  0  0  0
 13 51  1  0  0  0  0
 14 17  1  0  0  0  0
 14 52  1  0  0  0  0
 15 20  2  0  0  0  0
 15 21  1  0  0  0  0
 17 19  1  0  0  0  0
 17 53  1  0  0  0  0
 18 22  1  0  0  0  0
 18 23  1  0  0  0  0
 18 24  1  0  0  0  0
 19 27  1  0  0  0  0
 19 55  1  0  0  0  0
 19 56  1  0  0  0  0
 20 25  1  0  0  0  0
 20 57  1  0  0  0  0
 21 26  2  0  0  0  0
 21 58  1  0  0  0  0
 22 61  1  0  0  0  0
 22 62  1  0  0  0  0
 22 63  1  0  0  0  0
 23 64  1  0  0  0  0
 23 65  1  0  0  0  0
 23 66  1  0  0  0  0
 24 67  1  0  0  0  0
 24 68  1  0  0  0  0
 24 69  1  0  0  0  0
 25 28  2  0  0  0  0
 25 70  1  0  0  0  0
 26 28  1  0  0  0  0
 26 71  1  0  0  0  0
 27 30  2  0  0  0  0
 27 31  1  0  0  0  0
 28 72  1  0  0  0  0
 30 32  1  0  0  0  0
 30 73  1  0  0  0  0
 31 33  2  0  0  0  0
 31 74  1  0  0  0  0
 32 34  2  0  0  0  0
 32 75  1  0  0  0  0
 33 34  1  0  0  0  0
 33 76  1  0  0  0  0
 34 77  1  0  0  0  0
 35 36  1  0  0  0  0
 35 78  1  0  0  0  0
 35 79  1  0  0  0  0
 36 37  2  0  0  0  0
 36 38  1  0  0  0  0
 37 39  1  0  0  0  0
 37 80  1  0  0  0  0
 38 40  2  0  0  0  0
 38 81  1  0  0  0  0
 39 41  2  0  0  0  0
 39 82  1  0  0  0  0
 40 41  1  0  0  0  0
 40 83  1  0  0  0  0
 41 84  1  0  0  0  0
M  END
> <PUBCHEM_COMPOUND_CID>
503167
> <PUBCHEM_COMPOUND_CANONICALIZED>
1
> <PUBCHEM_CACTVS_COMPLEXITY>
796
> <PUBCHEM_CACTVS_HBOND_ACCEPTOR>
5
> <PUBCHEM_CACTVS_HBOND_DONOR>
3
> <PUBCHEM_CACTVS_ROTATABLE_BOND>
12
> <PUBCHEM_CACTVS_SUBSKEYS>
AAADcfB/OAAAAAAAAAAAAAAAAAAAAAAAAAA8YMEAAAAAAAABUAAAHgAQCAAADbzhmAYyCIPABgCIAiFSGAACAAAgAAAIiIGICIkKdjKA8TmccAAk1gGYqAeYyOCOgAAAAAAAAAAAAAAAAAAAAAAAAAAAAA==
> <PUBCHEM_IUPAC_OPENEYE_NAME>
benzyl N-[(1S,2R)-1-benzyl-3-[(2S,4R)-2-(tert-butylcarbamoyl)-4-phenyl-1-piperidyl]-2-hydroxy-propyl]carbamate
> <PUBCHEM_IUPAC_CAS_NAME>
N-[(2S,3R)-4-[(2S,4R)-2-[(tert-butylamino)-oxomethyl]-4-phenyl-1-piperidinyl]-3-hydroxy-1-phenylbutan-2-yl]carbamic acid (phenylmethyl) ester
> <PUBCHEM_IUPAC_NAME_MARKUP>
benzyl <I>N</I>-[(2<I>S</I>,3<I>R</I>)-4-[(2<I>S</I>,4<I>R</I>)-2-(<I>tert</I>-butylcarbamoyl)-4-phenylpiperidin-1-yl]-3-hydroxy-1-phenylbutan-2-yl]carbamate
> <PUBCHEM_IUPAC_NAME>
benzyl N-[(2S,3R)-4-[(2S,4R)-2-(tert-butylcarbamoyl)-4-phenylpiperidin-1-yl]-3-hydroxy-1-phenylbutan-2-yl]carbamate
> <PUBCHEM_IUPAC_SYSTEMATIC_NAME>
(phenylmethyl) N-[(2S,3R)-4-[(2S,4R)-2-(tert-butylcarbamoyl)-4-phenyl-piperidin-1-yl]-3-oxidanyl-1-phenyl-butan-2-yl]carbamate
> <PUBCHEM_IUPAC_TRADITIONAL_NAME>
N-[(1S,2R)-1-benzyl-3-[(2S,4R)-2-(tert-butylcarbamoyl)-4-phenyl-piperidino]-2-hydroxy-propyl]carbamic acid benzyl ester
> <PUBCHEM_IUPAC_INCHI>
InChI=1S/C34H43N3O4/c1-34(2,3)36-32(39)30-22-28(27-17-11-6-12-18-27)19-20-37(30)23-31(38)29(21-25-13-7-4-8-14-25)35-33(40)41-24-26-15-9-5-10-16-26/h4-18,28-31,38H,19-24H2,1-3H3,(H,35,40)(H,36,39)/t28-,29+,30+,31-/m1/s1
> <PUBCHEM_IUPAC_INCHIKEY>
OGVYXMGRYFURTN-QNRWOPMTSA-N
> <PUBCHEM_XLOGP3_AA>
5.5
> <PUBCHEM_EXACT_MASS>
557.32535686
> <PUBCHEM_MOLECULAR_FORMULA>
C34H43N3O4
> <PUBCHEM_MOLECULAR_WEIGHT>
557.7
> <PUBCHEM_OPENEYE_CAN_SMILES>
CC(C)(C)NC(=O)C1CC(CCN1CC(C(CC2=CC=CC=C2)NC(=O)OCC3=CC=CC=C3)O)C4=CC=CC=C4
> <PUBCHEM_OPENEYE_ISO_SMILES>
CC(C)(C)NC(=O)[C@@H]1C[C@@H](CCN1C[C@H]([C@H](CC2=CC=CC=C2)NC(=O)OCC3=CC=CC=C3)O)C4=CC=CC=C4
> <PUBCHEM_CACTVS_TPSA>
90.9
> <PUBCHEM_MONOISOTOPIC_WEIGHT>
557.32535686
> <PUBCHEM_TOTAL_CHARGE>
0
> <PUBCHEM_HEAVY_ATOM_COUNT>
41
> <PUBCHEM_ATOM_DEF_STEREO_COUNT>
4
> <PUBCHEM_ATOM_UDEF_STEREO_COUNT>
0
> <PUBCHEM_BOND_DEF_STEREO_COUNT>
0
> <PUBCHEM_BOND_UDEF_STEREO_COUNT>
0
> <PUBCHEM_ISOTOPIC_ATOM_COUNT>
0
> <PUBCHEM_COMPONENT_COUNT>
1
> <PUBCHEM_CACTVS_TAUTO_COUNT>
-1
> <PUBCHEM_COORDINATE_TYPE>
1
5
255
> <PUBCHEM_BONDANNOTATIONS>
14  1  5
15  20  8
15  21  8
20  25  8
21  26  8
25  28  8
26  28  8
27  30  8
27  31  8
30  32  8
31  33  8
32  34  8
33  34  8
36  37  8
36  38  8
37  39  8
38  40  8
39  41  8
40  41  8
17  7  5
8  16  6
9  15  6
$$$$
