503107
  -OEChem-10302200282D
 28 29  0     1  0  0  0  0  0999 V2000
    2.3090   -1.3888    0.0000 S   0  0  0  0  0  0  0  0  0  0  0  0
    5.3781   -0.7165    0.0000 O   0  0  0  0  0  0  0  0  0  0  0  0
    6.4659    1.6314    0.0000 O   0  0  0  0  0  0  0  0  0  0  0  0
    7.3461   -1.4159    0.0000 O   0  0  0  0  0  0  0  0  0  0  0  0
    3.8968   -2.1978    0.0000 O   0  0  0  0  0  0  0  0  0  0  0  0
    3.6180   -0.4377    0.0000 N   0  0  0  0  0  0  0  0  0  0  0  0
    4.5691   -0.1287    0.0000 C   0  0  1  0  0  0  0  0  0  0  0  0
    5.8781    0.8224    0.0000 C   0  0  1  0  0  0  0  0  0  0  0  0
    4.8781    0.8224    0.0000 C   0  0  0  0  0  0  0  0  0  0  0  0
    6.1871   -0.1287    0.0000 C   0  0  1  0  0  0  0  0  0  0  0  0
    7.1382   -0.4377    0.0000 C   0  0  0  0  0  0  0  0  0  0  0  0
    2.8090    0.1501    0.0000 C   0  0  0  0  0  0  0  0  0  0  0  0
    3.3090   -1.3888    0.0000 C   0  0  0  0  0  0  0  0  0  0  0  0
    2.0000   -0.4377    0.0000 C   0  0  0  0  0  0  0  0  0  0  0  0
    2.8090    1.1501    0.0000 C   0  0  0  0  0  0  0  0  0  0  0  0
    4.1307    0.3097    0.0000 H   0  0  0  0  0  0  0  0  0  0  0  0
    5.5966    1.3748    0.0000 H   0  0  0  0  0  0  0  0  0  0  0  0
    4.9429    1.4390    0.0000 H   0  0  0  0  0  0  0  0  0  0  0  0
    4.2717    0.9513    0.0000 H   0  0  0  0  0  0  0  0  0  0  0  0
    6.2841   -0.7411    0.0000 H   0  0  0  0  0  0  0  0  0  0  0  0
    7.7578   -0.4161    0.0000 H   0  0  0  0  0  0  0  0  0  0  0  0
    7.2245    0.1763    0.0000 H   0  0  0  0  0  0  0  0  0  0  0  0
    6.2137    2.1978    0.0000 H   0  0  0  0  0  0  0  0  0  0  0  0
    1.4103   -0.2461    0.0000 H   0  0  0  0  0  0  0  0  0  0  0  0
    3.4290    1.1501    0.0000 H   0  0  0  0  0  0  0  0  0  0  0  0
    2.8090    1.7701    0.0000 H   0  0  0  0  0  0  0  0  0  0  0  0
    2.1890    1.1501    0.0000 H   0  0  0  0  0  0  0  0  0  0  0  0
    7.9358   -1.6074    0.0000 H   0  0  0  0  0  0  0  0  0  0  0  0
  1 13  1  0  0  0  0
  1 14  1  0  0  0  0
  2  7  1  0  0  0  0
  2 10  1  0  0  0  0
  8  3  1  6  0  0  0
  3 23  1  0  0  0  0
  4 11  1  0  0  0  0
  4 28  1  0  0  0  0
  5 13  2  0  0  0  0
  7  6  1  1  0  0  0
  6 12  1  0  0  0  0
  6 13  1  0  0  0  0
  7  9  1  0  0  0  0
  7 16  1  0  0  0  0
  8  9  1  0  0  0  0
  8 10  1  0  0  0  0
  8 17  1  0  0  0  0
  9 18  1  0  0  0  0
  9 19  1  0  0  0  0
 10 11  1  1  0  0  0
 10 20  1  0  0  0  0
 11 21  1  0  0  0  0
 11 22  1  0  0  0  0
 12 14  2  0  0  0  0
 12 15  1  0  0  0  0
 14 24  1  0  0  0  0
 15 25  1  0  0  0  0
 15 26  1  0  0  0  0
 15 27  1  0  0  0  0
M  END
> <PUBCHEM_COMPOUND_CID>
503107
> <PUBCHEM_COMPOUND_CANONICALIZED>
1
> <PUBCHEM_CACTVS_COMPLEXITY>
307
> <PUBCHEM_CACTVS_HBOND_ACCEPTOR>
5
> <PUBCHEM_CACTVS_HBOND_DONOR>
2
> <PUBCHEM_CACTVS_ROTATABLE_BOND>
2
> <PUBCHEM_CACTVS_SUBSKEYS>
AAADccByOABAAAAAAAAAAAAAAAAAASIAAAAAAAAAAAAAAAAAAAAAHgQACAAACBzlwAaCAAMABgiIAARCUAAAAABAAgAAAAAIAAABEAIAgQAOQAAHBgCDAACwMAIAAAAAAAAAAAAAAAAAAAAAAAAAAAAAAA==
> <PUBCHEM_IUPAC_OPENEYE_NAME>
3-[(2R,4S,5R)-4-hydroxy-5-(hydroxymethyl)tetrahydrofuran-2-yl]-4-methyl-thiazol-2-one
> <PUBCHEM_IUPAC_CAS_NAME>
3-[(2R,4S,5R)-4-hydroxy-5-(hydroxymethyl)-2-oxolanyl]-4-methyl-2-thiazolone
> <PUBCHEM_IUPAC_NAME_MARKUP>
3-[(2<I>R</I>,4<I>S</I>,5<I>R</I>)-4-hydroxy-5-(hydroxymethyl)oxolan-2-yl]-4-methyl-1,3-thiazol-2-one
> <PUBCHEM_IUPAC_NAME>
3-[(2R,4S,5R)-4-hydroxy-5-(hydroxymethyl)oxolan-2-yl]-4-methyl-1,3-thiazol-2-one
> <PUBCHEM_IUPAC_SYSTEMATIC_NAME>
3-[(2R,4S,5R)-5-(hydroxymethyl)-4-oxidanyl-oxolan-2-yl]-4-methyl-1,3-thiazol-2-one
> <PUBCHEM_IUPAC_TRADITIONAL_NAME>
3-[(2R,4S,5R)-4-hydroxy-5-methylol-tetrahydrofuran-2-yl]-4-methyl-4-thiazolin-2-one
> <PUBCHEM_IUPAC_INCHI>
InChI=1S/C9H13NO4S/c1-5-4-15-9(13)10(5)8-2-6(12)7(3-11)14-8/h4,6-8,11-12H,2-3H2,1H3/t6-,7+,8+/m0/s1
> <PUBCHEM_IUPAC_INCHIKEY>
ANWBDEYHMPCJMI-XLPZGREQSA-N
> <PUBCHEM_XLOGP3_AA>
0.3
> <PUBCHEM_EXACT_MASS>
231.05652907
> <PUBCHEM_MOLECULAR_FORMULA>
C9H13NO4S
> <PUBCHEM_MOLECULAR_WEIGHT>
231.27
> <PUBCHEM_OPENEYE_CAN_SMILES>
CC1=CSC(=O)N1C2CC(C(O2)CO)O
> <PUBCHEM_OPENEYE_ISO_SMILES>
CC1=CSC(=O)N1[C@H]2C[C@@H]([C@H](O2)CO)O
> <PUBCHEM_CACTVS_TPSA>
95.3
> <PUBCHEM_MONOISOTOPIC_WEIGHT>
231.05652907
> <PUBCHEM_TOTAL_CHARGE>
0
> <PUBCHEM_HEAVY_ATOM_COUNT>
15
> <PUBCHEM_ATOM_DEF_STEREO_COUNT>
3
> <PUBCHEM_ATOM_UDEF_STEREO_COUNT>
0
> <PUBCHEM_BOND_DEF_STEREO_COUNT>
0
> <PUBCHEM_BOND_UDEF_STEREO_COUNT>
0
> <PUBCHEM_ISOTOPIC_ATOM_COUNT>
0
> <PUBCHEM_COMPONENT_COUNT>
1
> <PUBCHEM_CACTVS_TAUTO_COUNT>
-1
> <PUBCHEM_COORDINATE_TYPE>
1
5
255
> <PUBCHEM_BONDANNOTATIONS>
1  13  8
1  14  8
10  11  5
12  14  8
8  3  6
6  12  8
6  13  8
7  6  5
$$$$
