503254
  -OEChem-10302200282D
 42 42  0     1  0  0  0  0  0999 V2000
    3.5807   -1.6307    0.0000 O   0  0  0  0  0  0  0  0  0  0  0  0
    2.3644    2.1126    0.0000 O   0  0  0  0  0  0  0  0  0  0  0  0
    3.7657    3.1307    0.0000 O   0  0  0  0  0  0  0  0  0  0  0  0
    8.7769   -1.6307    0.0000 O   0  0  0  0  0  0  0  0  0  0  0  0
    4.4467   -0.1307    0.0000 N   0  0  0  0  0  0  0  0  0  0  0  0
    5.3128   -1.6307    0.0000 N   0  0  0  0  0  0  0  0  0  0  0  0
    5.5345    2.2172    0.0000 N   0  0  0  0  0  0  0  0  0  0  0  0
    3.9467    1.4081    0.0000 C   0  0  3  0  0  0  0  0  0  0  0  0
    4.9467    1.4081    0.0000 C   0  0  3  0  0  0  0  0  0  0  0  0
    3.6377    0.4571    0.0000 C   0  0  0  0  0  0  0  0  0  0  0  0
    5.2558    0.4571    0.0000 C   0  0  0  0  0  0  0  0  0  0  0  0
    4.4467   -1.1307    0.0000 C   0  0  0  0  0  0  0  0  0  0  0  0
    3.3590    2.2172    0.0000 C   0  0  0  0  0  0  0  0  0  0  0  0
    5.3128   -2.6307    0.0000 C   0  0  0  0  0  0  0  0  0  0  0  0
    6.1788   -1.1307    0.0000 C   0  0  0  0  0  0  0  0  0  0  0  0
    7.0448   -1.6307    0.0000 C   0  0  0  0  0  0  0  0  0  0  0  0
    6.1788   -3.1307    0.0000 C   0  0  0  0  0  0  0  0  0  0  0  0
    4.4467   -3.1307    0.0000 C   0  0  0  0  0  0  0  0  0  0  0  0
    7.9108   -1.1307    0.0000 C   0  0  0  0  0  0  0  0  0  0  0  0
    3.3344    1.3112    0.0000 H   0  0  0  0  0  0  0  0  0  0  0  0
    4.6653    1.9606    0.0000 H   0  0  0  0  0  0  0  0  0  0  0  0
    3.0713    0.7093    0.0000 H   0  0  0  0  0  0  0  0  0  0  0  0
    3.3277   -0.0799    0.0000 H   0  0  0  0  0  0  0  0  0  0  0  0
    5.5658   -0.0799    0.0000 H   0  0  0  0  0  0  0  0  0  0  0  0
    5.8222    0.7093    0.0000 H   0  0  0  0  0  0  0  0  0  0  0  0
    6.1511    2.1524    0.0000 H   0  0  0  0  0  0  0  0  0  0  0  0
    5.2823    2.7836    0.0000 H   0  0  0  0  0  0  0  0  0  0  0  0
    5.8497   -2.3207    0.0000 H   0  0  0  0  0  0  0  0  0  0  0  0
    6.5773   -0.6558    0.0000 H   0  0  0  0  0  0  0  0  0  0  0  0
    5.7803   -0.6558    0.0000 H   0  0  0  0  0  0  0  0  0  0  0  0
    6.6463   -2.1056    0.0000 H   0  0  0  0  0  0  0  0  0  0  0  0
    7.4433   -2.1056    0.0000 H   0  0  0  0  0  0  0  0  0  0  0  0
    5.8688   -3.6676    0.0000 H   0  0  0  0  0  0  0  0  0  0  0  0
    6.7157   -3.4407    0.0000 H   0  0  0  0  0  0  0  0  0  0  0  0
    6.4888   -2.5938    0.0000 H   0  0  0  0  0  0  0  0  0  0  0  0
    4.1367   -2.5938    0.0000 H   0  0  0  0  0  0  0  0  0  0  0  0
    3.9098   -3.4407    0.0000 H   0  0  0  0  0  0  0  0  0  0  0  0
    4.7567   -3.6676    0.0000 H   0  0  0  0  0  0  0  0  0  0  0  0
    2.0000    2.6142    0.0000 H   0  0  0  0  0  0  0  0  0  0  0  0
    8.3094   -0.6558    0.0000 H   0  0  0  0  0  0  0  0  0  0  0  0
    7.5123   -0.6558    0.0000 H   0  0  0  0  0  0  0  0  0  0  0  0
    9.3138   -1.3207    0.0000 H   0  0  0  0  0  0  0  0  0  0  0  0
  1 12  2  0  0  0  0
  2 13  1  0  0  0  0
  2 39  1  0  0  0  0
  3 13  2  0  0  0  0
  4 19  1  0  0  0  0
  4 42  1  0  0  0  0
  5 10  1  0  0  0  0
  5 11  1  0  0  0  0
  5 12  1  0  0  0  0
  6 12  1  0  0  0  0
  6 14  1  0  0  0  0
  6 15  1  0  0  0  0
  7  9  1  0  0  0  0
  7 26  1  0  0  0  0
  7 27  1  0  0  0  0
  8  9  1  0  0  0  0
  8 10  1  0  0  0  0
  8 13  1  0  0  0  0
  8 20  1  0  0  0  0
  9 11  1  0  0  0  0
  9 21  1  0  0  0  0
 10 22  1  0  0  0  0
 10 23  1  0  0  0  0
 11 24  1  0  0  0  0
 11 25  1  0  0  0  0
 14 17  1  0  0  0  0
 14 18  1  0  0  0  0
 14 28  1  0  0  0  0
 15 16  1  0  0  0  0
 15 29  1  0  0  0  0
 15 30  1  0  0  0  0
 16 19  1  0  0  0  0
 16 31  1  0  0  0  0
 16 32  1  0  0  0  0
 17 33  1  0  0  0  0
 17 34  1  0  0  0  0
 17 35  1  0  0  0  0
 18 36  1  0  0  0  0
 18 37  1  0  0  0  0
 18 38  1  0  0  0  0
 19 40  1  0  0  0  0
 19 41  1  0  0  0  0
M  END
> <PUBCHEM_COMPOUND_CID>
503254
> <PUBCHEM_COMPOUND_CANONICALIZED>
1
> <PUBCHEM_CACTVS_COMPLEXITY>
335
> <PUBCHEM_CACTVS_HBOND_ACCEPTOR>
5
> <PUBCHEM_CACTVS_HBOND_DONOR>
3
> <PUBCHEM_CACTVS_ROTATABLE_BOND>
5
> <PUBCHEM_CACTVS_SUBSKEYS>
AAADceBzOAAAAAAAAAAAAAAAAAAAAWAAAAAAAAAAAAAAAAAAAAAAHgAQCAAADSjhgAYDCANAAgAIAACQGAAAAAAAAAAAAIEIAACAUBgAwAAUQAAOFgKAAAAkAAAIAAAAAAAAAAAAAAAAAAAAAAAAAAAAAA==
> <PUBCHEM_IUPAC_OPENEYE_NAME>
4-amino-1-[3-hydroxypropyl(isopropyl)carbamoyl]pyrrolidine-3-carboxylic acid
> <PUBCHEM_IUPAC_CAS_NAME>
4-amino-1-[[3-hydroxypropyl(propan-2-yl)amino]-oxomethyl]-3-pyrrolidinecarboxylic acid
> <PUBCHEM_IUPAC_NAME_MARKUP>
4-amino-1-[3-hydroxypropyl(propan-2-yl)carbamoyl]pyrrolidine-3-carboxylic acid
> <PUBCHEM_IUPAC_NAME>
4-amino-1-[3-hydroxypropyl(propan-2-yl)carbamoyl]pyrrolidine-3-carboxylic acid
> <PUBCHEM_IUPAC_SYSTEMATIC_NAME>
4-azanyl-1-[3-oxidanylpropyl(propan-2-yl)carbamoyl]pyrrolidine-3-carboxylic acid
> <PUBCHEM_IUPAC_TRADITIONAL_NAME>
4-amino-1-[3-hydroxypropyl(isopropyl)carbamoyl]pyrrolidine-3-carboxylic acid
> <PUBCHEM_IUPAC_INCHI>
InChI=1S/C12H23N3O4/c1-8(2)15(4-3-5-16)12(19)14-6-9(11(17)18)10(13)7-14/h8-10,16H,3-7,13H2,1-2H3,(H,17,18)
> <PUBCHEM_IUPAC_INCHIKEY>
HMIIBNQIZSBHLN-UHFFFAOYSA-N
> <PUBCHEM_XLOGP3_AA>
-3.1
> <PUBCHEM_EXACT_MASS>
273.16885622
> <PUBCHEM_MOLECULAR_FORMULA>
C12H23N3O4
> <PUBCHEM_MOLECULAR_WEIGHT>
273.33
> <PUBCHEM_OPENEYE_CAN_SMILES>
CC(C)N(CCCO)C(=O)N1CC(C(C1)N)C(=O)O
> <PUBCHEM_OPENEYE_ISO_SMILES>
CC(C)N(CCCO)C(=O)N1CC(C(C1)N)C(=O)O
> <PUBCHEM_CACTVS_TPSA>
107
> <PUBCHEM_MONOISOTOPIC_WEIGHT>
273.16885622
> <PUBCHEM_TOTAL_CHARGE>
0
> <PUBCHEM_HEAVY_ATOM_COUNT>
19
> <PUBCHEM_ATOM_DEF_STEREO_COUNT>
0
> <PUBCHEM_ATOM_UDEF_STEREO_COUNT>
2
> <PUBCHEM_BOND_DEF_STEREO_COUNT>
0
> <PUBCHEM_BOND_UDEF_STEREO_COUNT>
0
> <PUBCHEM_ISOTOPIC_ATOM_COUNT>
0
> <PUBCHEM_COMPONENT_COUNT>
1
> <PUBCHEM_CACTVS_TAUTO_COUNT>
-1
> <PUBCHEM_COORDINATE_TYPE>
1
5
255
> <PUBCHEM_BONDANNOTATIONS>
9  7  3
8  13  3
$$$$
