503230
  -OEChem-10302200282D
107111  0     1  0  0  0  0  0999 V2000
   15.0583   -2.0670    0.0000 S   0  0  0  0  0  0  0  0  0  0  0  0
   12.4603    1.4330    0.0000 O   0  0  0  0  0  0  0  0  0  0  0  0
   10.7282   -1.5670    0.0000 O   0  0  0  0  0  0  0  0  0  0  0  0
    8.9962    2.4330    0.0000 O   0  0  0  0  0  0  0  0  0  0  0  0
    6.3981   -0.0670    0.0000 O   0  0  0  0  0  0  0  0  0  0  0  0
   12.4603   -0.5670    0.0000 N   0  0  3  0  0  0  0  0  0  0  0  0
   11.5942   -3.0670    0.0000 N   0  0  0  0  0  0  0  0  0  0  0  0
    9.8622    0.9330    0.0000 N   0  0  0  0  0  0  0  0  0  0  0  0
    7.2641    1.4330    0.0000 N   0  0  0  0  0  0  0  0  0  0  0  0
   17.6564   -3.5670    0.0000 N   0  0  0  0  0  0  0  0  0  0  0  0
    4.6660    0.9330    0.0000 N   0  0  0  0  0  0  0  0  0  0  0  0
   12.4603   -1.5670    0.0000 C   0  0  1  0  0  0  0  0  0  0  0  0
   13.3263   -2.0670    0.0000 C   0  0  0  0  0  0  0  0  0  0  0  0
   14.1923   -1.5670    0.0000 C   0  0  1  0  0  0  0  0  0  0  0  0
   13.3263   -0.0670    0.0000 C   0  0  0  0  0  0  0  0  0  0  0  0
   14.1923   -0.5670    0.0000 C   0  0  0  0  0  0  0  0  0  0  0  0
   11.5942   -0.0670    0.0000 C   0  0  0  0  0  0  0  0  0  0  0  0
   11.5942    0.9330    0.0000 C   0  0  2  0  0  0  0  0  0  0  0  0
   10.7282    1.4330    0.0000 C   0  0  2  0  0  0  0  0  0  0  0  0
   11.5942   -2.0670    0.0000 C   0  0  0  0  0  0  0  0  0  0  0  0
   10.7282    2.4330    0.0000 C   0  0  0  0  0  0  0  0  0  0  0  0
   10.7282   -3.5670    0.0000 C   0  0  0  0  0  0  0  0  0  0  0  0
    8.1301   -0.0670    0.0000 C   0  0  0  0  0  0  0  0  0  0  0  0
    8.1301    0.9330    0.0000 C   0  0  3  0  0  0  0  0  0  0  0  0
    8.9962    1.4330    0.0000 C   0  0  0  0  0  0  0  0  0  0  0  0
   15.9244   -1.5670    0.0000 C   0  0  0  0  0  0  0  0  0  0  0  0
   11.5942    2.9330    0.0000 C   0  0  0  0  0  0  0  0  0  0  0  0
    9.8622   -4.0670    0.0000 C   0  0  0  0  0  0  0  0  0  0  0  0
   11.2282   -4.4330    0.0000 C   0  0  0  0  0  0  0  0  0  0  0  0
   10.2282   -2.7010    0.0000 C   0  0  0  0  0  0  0  0  0  0  0  0
    8.1301   -1.0670    0.0000 C   0  0  0  0  0  0  0  0  0  0  0  0
    9.1301   -0.0670    0.0000 C   0  0  0  0  0  0  0  0  0  0  0  0
    7.1301   -0.0670    0.0000 C   0  0  0  0  0  0  0  0  0  0  0  0
   16.7904   -2.0670    0.0000 C   0  0  0  0  0  0  0  0  0  0  0  0
   11.5942    3.9330    0.0000 C   0  0  0  0  0  0  0  0  0  0  0  0
   12.4603    2.4330    0.0000 C   0  0  0  0  0  0  0  0  0  0  0  0
    6.3981    0.9330    0.0000 C   0  0  0  0  0  0  0  0  0  0  0  0
   17.6564   -1.5670    0.0000 C   0  0  0  0  0  0  0  0  0  0  0  0
   16.7904   -3.0670    0.0000 C   0  0  0  0  0  0  0  0  0  0  0  0
   12.4603    4.4330    0.0000 C   0  0  0  0  0  0  0  0  0  0  0  0
   13.3263    2.9330    0.0000 C   0  0  0  0  0  0  0  0  0  0  0  0
   13.3263    3.9330    0.0000 C   0  0  0  0  0  0  0  0  0  0  0  0
    5.5321    1.4330    0.0000 C   0  0  0  0  0  0  0  0  0  0  0  0
   18.5224   -2.0670    0.0000 C   0  0  0  0  0  0  0  0  0  0  0  0
   18.5224   -3.0670    0.0000 C   0  0  0  0  0  0  0  0  0  0  0  0
    5.5321    2.4330    0.0000 C   0  0  0  0  0  0  0  0  0  0  0  0
    3.8000    1.4330    0.0000 C   0  0  0  0  0  0  0  0  0  0  0  0
    4.6660    2.9330    0.0000 C   0  0  0  0  0  0  0  0  0  0  0  0
    3.8000    2.4330    0.0000 C   0  0  0  0  0  0  0  0  0  0  0  0
    2.9061    0.8984    0.0000 C   0  0  0  0  0  0  0  0  0  0  0  0
    2.9061    2.9677    0.0000 C   0  0  0  0  0  0  0  0  0  0  0  0
    2.0000    1.4122    0.0000 C   0  0  0  0  0  0  0  0  0  0  0  0
    2.0000    2.4538    0.0000 C   0  0  0  0  0  0  0  0  0  0  0  0
   11.9233   -1.2570    0.0000 H   0  0  0  0  0  0  0  0  0  0  0  0
   12.9278   -2.5419    0.0000 H   0  0  0  0  0  0  0  0  0  0  0  0
   13.7248   -2.5419    0.0000 H   0  0  0  0  0  0  0  0  0  0  0  0
   14.1923   -2.1870    0.0000 H   0  0  0  0  0  0  0  0  0  0  0  0
   13.7248    0.4080    0.0000 H   0  0  0  0  0  0  0  0  0  0  0  0
   12.9278    0.4080    0.0000 H   0  0  0  0  0  0  0  0  0  0  0  0
   14.8029   -0.6746    0.0000 H   0  0  0  0  0  0  0  0  0  0  0  0
   14.4044    0.0156    0.0000 H   0  0  0  0  0  0  0  0  0  0  0  0
   10.9837    0.0407    0.0000 H   0  0  0  0  0  0  0  0  0  0  0  0
   11.3822   -0.6496    0.0000 H   0  0  0  0  0  0  0  0  0  0  0  0
   11.5942    1.5530    0.0000 H   0  0  0  0  0  0  0  0  0  0  0  0
   10.7282    0.8130    0.0000 H   0  0  0  0  0  0  0  0  0  0  0  0
   10.5162    3.0156    0.0000 H   0  0  0  0  0  0  0  0  0  0  0  0
   10.1176    2.3253    0.0000 H   0  0  0  0  0  0  0  0  0  0  0  0
   12.1312   -3.3770    0.0000 H   0  0  0  0  0  0  0  0  0  0  0  0
    9.8622    0.3130    0.0000 H   0  0  0  0  0  0  0  0  0  0  0  0
    7.5932    0.6230    0.0000 H   0  0  0  0  0  0  0  0  0  0  0  0
   12.9972    1.1230    0.0000 H   0  0  0  0  0  0  0  0  0  0  0  0
   16.3229   -1.0920    0.0000 H   0  0  0  0  0  0  0  0  0  0  0  0
   15.5258   -1.0920    0.0000 H   0  0  0  0  0  0  0  0  0  0  0  0
    9.5522   -3.5300    0.0000 H   0  0  0  0  0  0  0  0  0  0  0  0
    9.3252   -4.3770    0.0000 H   0  0  0  0  0  0  0  0  0  0  0  0
   10.1722   -4.6039    0.0000 H   0  0  0  0  0  0  0  0  0  0  0  0
   10.6913   -4.7430    0.0000 H   0  0  0  0  0  0  0  0  0  0  0  0
   11.5382   -4.9700    0.0000 H   0  0  0  0  0  0  0  0  0  0  0  0
   11.7651   -4.1230    0.0000 H   0  0  0  0  0  0  0  0  0  0  0  0
   10.7651   -2.3910    0.0000 H   0  0  0  0  0  0  0  0  0  0  0  0
    9.9182   -2.1640    0.0000 H   0  0  0  0  0  0  0  0  0  0  0  0
    9.6913   -3.0110    0.0000 H   0  0  0  0  0  0  0  0  0  0  0  0
    7.5101   -1.0670    0.0000 H   0  0  0  0  0  0  0  0  0  0  0  0
    8.1301   -1.6870    0.0000 H   0  0  0  0  0  0  0  0  0  0  0  0
    8.7501   -1.0670    0.0000 H   0  0  0  0  0  0  0  0  0  0  0  0
    9.1301   -0.6870    0.0000 H   0  0  0  0  0  0  0  0  0  0  0  0
    9.7501   -0.0670    0.0000 H   0  0  0  0  0  0  0  0  0  0  0  0
    9.1301    0.5530    0.0000 H   0  0  0  0  0  0  0  0  0  0  0  0
    7.1301    0.5530    0.0000 H   0  0  0  0  0  0  0  0  0  0  0  0
    6.5101   -0.0670    0.0000 H   0  0  0  0  0  0  0  0  0  0  0  0
    7.1301   -0.6870    0.0000 H   0  0  0  0  0  0  0  0  0  0  0  0
    7.2641    2.0530    0.0000 H   0  0  0  0  0  0  0  0  0  0  0  0
   11.0573    4.2430    0.0000 H   0  0  0  0  0  0  0  0  0  0  0  0
   12.4603    1.8130    0.0000 H   0  0  0  0  0  0  0  0  0  0  0  0
   17.6564   -0.9470    0.0000 H   0  0  0  0  0  0  0  0  0  0  0  0
   16.2535   -3.3770    0.0000 H   0  0  0  0  0  0  0  0  0  0  0  0
   12.4603    5.0530    0.0000 H   0  0  0  0  0  0  0  0  0  0  0  0
   13.8632    2.6230    0.0000 H   0  0  0  0  0  0  0  0  0  0  0  0
   13.8632    4.2430    0.0000 H   0  0  0  0  0  0  0  0  0  0  0  0
   19.0594   -1.7570    0.0000 H   0  0  0  0  0  0  0  0  0  0  0  0
   19.0594   -3.3770    0.0000 H   0  0  0  0  0  0  0  0  0  0  0  0
    6.0690    2.7430    0.0000 H   0  0  0  0  0  0  0  0  0  0  0  0
    4.6660    3.5530    0.0000 H   0  0  0  0  0  0  0  0  0  0  0  0
    2.9132    0.2784    0.0000 H   0  0  0  0  0  0  0  0  0  0  0  0
    2.9132    3.5876    0.0000 H   0  0  0  0  0  0  0  0  0  0  0  0
    1.4643    1.1001    0.0000 H   0  0  0  0  0  0  0  0  0  0  0  0
    1.4643    2.7659    0.0000 H   0  0  0  0  0  0  0  0  0  0  0  0
 14  1  1  1  0  0  0
  1 26  1  0  0  0  0
 18  2  1  6  0  0  0
  2 71  1  0  0  0  0
  3 20  2  0  0  0  0
  4 25  2  0  0  0  0
  5 37  2  0  0  0  0
  6 12  1  0  0  0  0
  6 15  1  0  0  0  0
  6 17  1  0  0  0  0
  7 20  1  0  0  0  0
  7 22  1  0  0  0  0
  7 68  1  0  0  0  0
 19  8  1  1  0  0  0
  8 25  1  0  0  0  0
  8 69  1  0  0  0  0
  9 24  1  0  0  0  0
  9 37  1  0  0  0  0
  9 92  1  0  0  0  0
 10 39  1  0  0  0  0
 10 45  2  0  0  0  0
 11 43  2  0  0  0  0
 11 47  1  0  0  0  0
 12 13  1  0  0  0  0
 12 20  1  1  0  0  0
 12 54  1  0  0  0  0
 13 14  1  0  0  0  0
 13 55  1  0  0  0  0
 13 56  1  0  0  0  0
 14 16  1  0  0  0  0
 14 57  1  0  0  0  0
 15 16  1  0  0  0  0
 15 58  1  0  0  0  0
 15 59  1  0  0  0  0
 16 60  1  0  0  0  0
 16 61  1  0  0  0  0
 17 18  1  0  0  0  0
 17 62  1  0  0  0  0
 17 63  1  0  0  0  0
 18 19  1  0  0  0  0
 18 64  1  0  0  0  0
 19 21  1  0  0  0  0
 19 65  1  0  0  0  0
 21 27  1  0  0  0  0
 21 66  1  0  0  0  0
 21 67  1  0  0  0  0
 22 28  1  0  0  0  0
 22 29  1  0  0  0  0
 22 30  1  0  0  0  0
 23 24  1  0  0  0  0
 23 31  1  0  0  0  0
 23 32  1  0  0  0  0
 23 33  1  0  0  0  0
 24 25  1  0  0  0  0
 24 70  1  0  0  0  0
 26 34  1  0  0  0  0
 26 72  1  0  0  0  0
 26 73  1  0  0  0  0
 27 35  2  0  0  0  0
 27 36  1  0  0  0  0
 28 74  1  0  0  0  0
 28 75  1  0  0  0  0
 28 76  1  0  0  0  0
 29 77  1  0  0  0  0
 29 78  1  0  0  0  0
 29 79  1  0  0  0  0
 30 80  1  0  0  0  0
 30 81  1  0  0  0  0
 30 82  1  0  0  0  0
 31 83  1  0  0  0  0
 31 84  1  0  0  0  0
 31 85  1  0  0  0  0
 32 86  1  0  0  0  0
 32 87  1  0  0  0  0
 32 88  1  0  0  0  0
 33 89  1  0  0  0  0
 33 90  1  0  0  0  0
 33 91  1  0  0  0  0
 34 38  1  0  0  0  0
 34 39  2  0  0  0  0
 35 40  1  0  0  0  0
 35 93  1  0  0  0  0
 36 41  2  0  0  0  0
 36 94  1  0  0  0  0
 37 43  1  0  0  0  0
 38 44  2  0  0  0  0
 38 95  1  0  0  0  0
 39 96  1  0  0  0  0
 40 42  2  0  0  0  0
 40 97  1  0  0  0  0
 41 42  1  0  0  0  0
 41 98  1  0  0  0  0
 42 99  1  0  0  0  0
 43 46  1  0  0  0  0
 44 45  1  0  0  0  0
 44100  1  0  0  0  0
 45101  1  0  0  0  0
 46 48  2  0  0  0  0
 46102  1  0  0  0  0
 47 49  1  0  0  0  0
 47 50  2  0  0  0  0
 48 49  1  0  0  0  0
 48103  1  0  0  0  0
 49 51  2  0  0  0  0
 50 52  1  0  0  0  0
 50104  1  0  0  0  0
 51 53  1  0  0  0  0
 51105  1  0  0  0  0
 52 53  2  0  0  0  0
 52106  1  0  0  0  0
 53107  1  0  0  0  0
M  END
> <PUBCHEM_COMPOUND_CID>
503230
> <PUBCHEM_COMPOUND_CANONICALIZED>
1
> <PUBCHEM_CACTVS_COMPLEXITY>
1190
> <PUBCHEM_CACTVS_HBOND_ACCEPTOR>
8
> <PUBCHEM_CACTVS_HBOND_DONOR>
4
> <PUBCHEM_CACTVS_ROTATABLE_BOND>
15
> <PUBCHEM_CACTVS_SUBSKEYS>
AAADcfB/uABAAAAAAAAAAAAAAAAAAAAAAAA8eLECAAAAAACx/AAAHgQQCAAADrzl3ga+wPPIEgioAzV3VACCgCA3AjAI2KG4ZNgKcPLg1bGUYQhklgD4yYeYyKCPAAAAAAACAAAAAAAAAAQAAAAAAAAAAA==
> <PUBCHEM_IUPAC_OPENEYE_NAME>
N-[1-[[(1S,2R)-1-benzyl-3-[(2S,4R)-2-(tert-butylcarbamoyl)-4-(3-pyridylmethylsulfanyl)-1-piperidyl]-2-hydroxy-propyl]carbamoyl]-2,2-dimethyl-propyl]quinoline-2-carboxamide
> <PUBCHEM_IUPAC_CAS_NAME>
N-[1-[[(2S,3R)-4-[(2S,4R)-2-[(tert-butylamino)-oxomethyl]-4-(3-pyridinylmethylthio)-1-piperidinyl]-3-hydroxy-1-phenylbutan-2-yl]amino]-3,3-dimethyl-1-oxobutan-2-yl]-2-quinolinecarboxamide
> <PUBCHEM_IUPAC_NAME_MARKUP>
<I>N</I>-[1-[[(2<I>S</I>,3<I>R</I>)-4-[(2<I>S</I>,4<I>R</I>)-2-(<I>tert</I>-butylcarbamoyl)-4-(pyridin-3-ylmethylsulfanyl)piperidin-1-yl]-3-hydroxy-1-phenylbutan-2-yl]amino]-3,3-dimethyl-1-oxobutan-2-yl]quinoline-2-carboxamide
> <PUBCHEM_IUPAC_NAME>
N-[1-[[(2S,3R)-4-[(2S,4R)-2-(tert-butylcarbamoyl)-4-(pyridin-3-ylmethylsulfanyl)piperidin-1-yl]-3-hydroxy-1-phenylbutan-2-yl]amino]-3,3-dimethyl-1-oxobutan-2-yl]quinoline-2-carboxamide
> <PUBCHEM_IUPAC_SYSTEMATIC_NAME>
N-[1-[[(2S,3R)-4-[(2S,4R)-2-(tert-butylcarbamoyl)-4-(pyridin-3-ylmethylsulfanyl)piperidin-1-yl]-3-oxidanyl-1-phenyl-butan-2-yl]amino]-3,3-dimethyl-1-oxidanylidene-butan-2-yl]quinoline-2-carboxamide
> <PUBCHEM_IUPAC_TRADITIONAL_NAME>
N-[1-[[(1S,2R)-1-benzyl-3-[(2S,4R)-2-(tert-butylcarbamoyl)-4-(3-pyridylmethylthio)piperidino]-2-hydroxy-propyl]carbamoyl]-2,2-dimethyl-propyl]quinaldamide
> <PUBCHEM_IUPAC_INCHI>
InChI=1S/C42H54N6O4S/c1-41(2,3)37(46-38(50)33-19-18-30-16-10-11-17-32(30)44-33)40(52)45-34(23-28-13-8-7-9-14-28)36(49)26-48-22-20-31(53-27-29-15-12-21-43-25-29)24-35(48)39(51)47-42(4,5)6/h7-19,21,25,31,34-37,49H,20,22-24,26-27H2,1-6H3,(H,45,52)(H,46,50)(H,47,51)/t31-,34+,35+,36-,37?/m1/s1
> <PUBCHEM_IUPAC_INCHIKEY>
FOACXOJGRKWUCY-SGIUYIQBSA-N
> <PUBCHEM_XLOGP3_AA>
6.3
> <PUBCHEM_EXACT_MASS>
738.39272540
> <PUBCHEM_MOLECULAR_FORMULA>
C42H54N6O4S
> <PUBCHEM_MOLECULAR_WEIGHT>
739.0
> <PUBCHEM_OPENEYE_CAN_SMILES>
CC(C)(C)C(C(=O)NC(CC1=CC=CC=C1)C(CN2CCC(CC2C(=O)NC(C)(C)C)SCC3=CN=CC=C3)O)NC(=O)C4=NC5=CC=CC=C5C=C4
> <PUBCHEM_OPENEYE_ISO_SMILES>
CC(C)(C)C(C(=O)N[C@@H](CC1=CC=CC=C1)[C@@H](CN2CC[C@H](C[C@H]2C(=O)NC(C)(C)C)SCC3=CN=CC=C3)O)NC(=O)C4=NC5=CC=CC=C5C=C4
> <PUBCHEM_CACTVS_TPSA>
162
> <PUBCHEM_MONOISOTOPIC_WEIGHT>
738.39272540
> <PUBCHEM_TOTAL_CHARGE>
0
> <PUBCHEM_HEAVY_ATOM_COUNT>
53
> <PUBCHEM_ATOM_DEF_STEREO_COUNT>
4
> <PUBCHEM_ATOM_UDEF_STEREO_COUNT>
1
> <PUBCHEM_BOND_DEF_STEREO_COUNT>
0
> <PUBCHEM_BOND_UDEF_STEREO_COUNT>
0
> <PUBCHEM_ISOTOPIC_ATOM_COUNT>
0
> <PUBCHEM_COMPONENT_COUNT>
1
> <PUBCHEM_CACTVS_TAUTO_COUNT>
-1
> <PUBCHEM_COORDINATE_TYPE>
1
5
255
> <PUBCHEM_BONDANNOTATIONS>
14  1  5
10  39  8
10  45  8
11  43  8
11  47  8
12  20  5
18  2  6
24  25  3
27  35  8
27  36  8
34  38  8
34  39  8
35  40  8
36  41  8
38  44  8
40  42  8
41  42  8
43  46  8
44  45  8
46  48  8
47  49  8
47  50  8
48  49  8
49  51  8
50  52  8
51  53  8
52  53  8
19  8  5
$$$$
