503253
  -OEChem-10302200282D
 38 38  0     1  0  0  0  0  0999 V2000
    2.3644    2.1126    0.0000 O   0  0  0  0  0  0  0  0  0  0  0  0
    3.5807   -1.6307    0.0000 O   0  0  0  0  0  0  0  0  0  0  0  0
    3.7657    3.1307    0.0000 O   0  0  0  0  0  0  0  0  0  0  0  0
    4.4467   -0.1307    0.0000 N   0  0  0  0  0  0  0  0  0  0  0  0
    5.3128   -1.6307    0.0000 N   0  0  0  0  0  0  0  0  0  0  0  0
    5.5345    2.2172    0.0000 N   0  0  0  0  0  0  0  0  0  0  0  0
    3.9467    1.4081    0.0000 C   0  0  2  0  0  0  0  0  0  0  0  0
    4.9467    1.4081    0.0000 C   0  0  1  0  0  0  0  0  0  0  0  0
    3.6377    0.4571    0.0000 C   0  0  0  0  0  0  0  0  0  0  0  0
    5.2558    0.4571    0.0000 C   0  0  0  0  0  0  0  0  0  0  0  0
    4.4467   -1.1307    0.0000 C   0  0  0  0  0  0  0  0  0  0  0  0
    3.3590    2.2172    0.0000 C   0  0  0  0  0  0  0  0  0  0  0  0
    5.3128   -2.6307    0.0000 C   0  0  0  0  0  0  0  0  0  0  0  0
    6.1788   -1.1307    0.0000 C   0  0  0  0  0  0  0  0  0  0  0  0
    6.1788   -3.1307    0.0000 C   0  0  0  0  0  0  0  0  0  0  0  0
    4.4467   -3.1307    0.0000 C   0  0  0  0  0  0  0  0  0  0  0  0
    7.0448   -1.6307    0.0000 C   0  0  0  0  0  0  0  0  0  0  0  0
    3.3344    1.3112    0.0000 H   0  0  0  0  0  0  0  0  0  0  0  0
    4.6653    1.9606    0.0000 H   0  0  0  0  0  0  0  0  0  0  0  0
    3.0713    0.7093    0.0000 H   0  0  0  0  0  0  0  0  0  0  0  0
    3.3277   -0.0799    0.0000 H   0  0  0  0  0  0  0  0  0  0  0  0
    5.5658   -0.0799    0.0000 H   0  0  0  0  0  0  0  0  0  0  0  0
    5.8222    0.7093    0.0000 H   0  0  0  0  0  0  0  0  0  0  0  0
    6.1511    2.1524    0.0000 H   0  0  0  0  0  0  0  0  0  0  0  0
    5.2823    2.7836    0.0000 H   0  0  0  0  0  0  0  0  0  0  0  0
    5.8497   -2.3207    0.0000 H   0  0  0  0  0  0  0  0  0  0  0  0
    6.5773   -0.6558    0.0000 H   0  0  0  0  0  0  0  0  0  0  0  0
    5.7803   -0.6558    0.0000 H   0  0  0  0  0  0  0  0  0  0  0  0
    5.8688   -3.6676    0.0000 H   0  0  0  0  0  0  0  0  0  0  0  0
    6.7157   -3.4407    0.0000 H   0  0  0  0  0  0  0  0  0  0  0  0
    6.4888   -2.5938    0.0000 H   0  0  0  0  0  0  0  0  0  0  0  0
    4.1367   -2.5938    0.0000 H   0  0  0  0  0  0  0  0  0  0  0  0
    3.9098   -3.4407    0.0000 H   0  0  0  0  0  0  0  0  0  0  0  0
    4.7567   -3.6676    0.0000 H   0  0  0  0  0  0  0  0  0  0  0  0
    6.7348   -2.1676    0.0000 H   0  0  0  0  0  0  0  0  0  0  0  0
    7.5818   -1.9407    0.0000 H   0  0  0  0  0  0  0  0  0  0  0  0
    7.3548   -1.0938    0.0000 H   0  0  0  0  0  0  0  0  0  0  0  0
    2.0000    2.6142    0.0000 H   0  0  0  0  0  0  0  0  0  0  0  0
  1 12  1  0  0  0  0
  1 38  1  0  0  0  0
  2 11  2  0  0  0  0
  3 12  2  0  0  0  0
  4  9  1  0  0  0  0
  4 10  1  0  0  0  0
  4 11  1  0  0  0  0
  5 11  1  0  0  0  0
  5 13  1  0  0  0  0
  5 14  1  0  0  0  0
  8  6  1  6  0  0  0
  6 24  1  0  0  0  0
  6 25  1  0  0  0  0
  7  8  1  0  0  0  0
  7  9  1  0  0  0  0
  7 12  1  6  0  0  0
  7 18  1  0  0  0  0
  8 10  1  0  0  0  0
  8 19  1  0  0  0  0
  9 20  1  0  0  0  0
  9 21  1  0  0  0  0
 10 22  1  0  0  0  0
 10 23  1  0  0  0  0
 13 15  1  0  0  0  0
 13 16  1  0  0  0  0
 13 26  1  0  0  0  0
 14 17  1  0  0  0  0
 14 27  1  0  0  0  0
 14 28  1  0  0  0  0
 15 29  1  0  0  0  0
 15 30  1  0  0  0  0
 15 31  1  0  0  0  0
 16 32  1  0  0  0  0
 16 33  1  0  0  0  0
 16 34  1  0  0  0  0
 17 35  1  0  0  0  0
 17 36  1  0  0  0  0
 17 37  1  0  0  0  0
M  END
> <PUBCHEM_COMPOUND_CID>
503253
> <PUBCHEM_COMPOUND_CANONICALIZED>
1
> <PUBCHEM_CACTVS_COMPLEXITY>
306
> <PUBCHEM_CACTVS_HBOND_ACCEPTOR>
4
> <PUBCHEM_CACTVS_HBOND_DONOR>
2
> <PUBCHEM_CACTVS_ROTATABLE_BOND>
3
> <PUBCHEM_CACTVS_SUBSKEYS>
AAADceBzMAAAAAAAAAAAAAAAAAAAAWAAAAAAAAAAAAAAAAAAAAAAHgAQCAAADSjBgAQDCANAAgAIAACQGAAAAAAAAAAAAIEIAACAQBgAwAAUQAAOFgKAAAAkAAAIAAAAAAAAAAAAAAAAAAAAAAAAAAAAAA==
> <PUBCHEM_IUPAC_OPENEYE_NAME>
(3S,4S)-4-amino-1-[ethyl(isopropyl)carbamoyl]pyrrolidine-3-carboxylic acid
> <PUBCHEM_IUPAC_CAS_NAME>
(3S,4S)-4-amino-1-[[ethyl(propan-2-yl)amino]-oxomethyl]-3-pyrrolidinecarboxylic acid
> <PUBCHEM_IUPAC_NAME_MARKUP>
(3<I>S</I>,4<I>S</I>)-4-amino-1-[ethyl(propan-2-yl)carbamoyl]pyrrolidine-3-carboxylic acid
> <PUBCHEM_IUPAC_NAME>
(3S,4S)-4-amino-1-[ethyl(propan-2-yl)carbamoyl]pyrrolidine-3-carboxylic acid
> <PUBCHEM_IUPAC_SYSTEMATIC_NAME>
(3S,4S)-4-azanyl-1-[ethyl(propan-2-yl)carbamoyl]pyrrolidine-3-carboxylic acid
> <PUBCHEM_IUPAC_TRADITIONAL_NAME>
(3S,4S)-4-amino-1-[ethyl(isopropyl)carbamoyl]pyrrolidine-3-carboxylic acid
> <PUBCHEM_IUPAC_INCHI>
InChI=1S/C11H21N3O3/c1-4-14(7(2)3)11(17)13-5-8(10(15)16)9(12)6-13/h7-9H,4-6,12H2,1-3H3,(H,15,16)/t8-,9+/m0/s1
> <PUBCHEM_IUPAC_INCHIKEY>
AKRSNNDSRNCUEU-DTWKUNHWSA-N
> <PUBCHEM_XLOGP3_AA>
-2.4
> <PUBCHEM_EXACT_MASS>
243.15829154
> <PUBCHEM_MOLECULAR_FORMULA>
C11H21N3O3
> <PUBCHEM_MOLECULAR_WEIGHT>
243.30
> <PUBCHEM_OPENEYE_CAN_SMILES>
CCN(C(C)C)C(=O)N1CC(C(C1)N)C(=O)O
> <PUBCHEM_OPENEYE_ISO_SMILES>
CCN(C(C)C)C(=O)N1C[C@@H]([C@@H](C1)N)C(=O)O
> <PUBCHEM_CACTVS_TPSA>
86.9
> <PUBCHEM_MONOISOTOPIC_WEIGHT>
243.15829154
> <PUBCHEM_TOTAL_CHARGE>
0
> <PUBCHEM_HEAVY_ATOM_COUNT>
17
> <PUBCHEM_ATOM_DEF_STEREO_COUNT>
2
> <PUBCHEM_ATOM_UDEF_STEREO_COUNT>
0
> <PUBCHEM_BOND_DEF_STEREO_COUNT>
0
> <PUBCHEM_BOND_UDEF_STEREO_COUNT>
0
> <PUBCHEM_ISOTOPIC_ATOM_COUNT>
0
> <PUBCHEM_COMPONENT_COUNT>
1
> <PUBCHEM_CACTVS_TAUTO_COUNT>
-1
> <PUBCHEM_COORDINATE_TYPE>
1
5
255
> <PUBCHEM_BONDANNOTATIONS>
8  6  6
7  12  6
$$$$
