503223
  -OEChem-10302200282D
106110  0     1  0  0  0  0  0999 V2000
   15.0583   -2.0670    0.0000 S   0  0  0  0  0  0  0  0  0  0  0  0
   12.4603    1.4330    0.0000 O   0  0  0  0  0  0  0  0  0  0  0  0
   10.7282   -1.5670    0.0000 O   0  0  0  0  0  0  0  0  0  0  0  0
    8.9962    2.4330    0.0000 O   0  0  0  0  0  0  0  0  0  0  0  0
    6.3981   -0.0670    0.0000 O   0  0  0  0  0  0  0  0  0  0  0  0
   12.4603   -0.5670    0.0000 N   0  0  3  0  0  0  0  0  0  0  0  0
   11.5942   -3.0670    0.0000 N   0  0  0  0  0  0  0  0  0  0  0  0
    9.8622    0.9330    0.0000 N   0  0  0  0  0  0  0  0  0  0  0  0
    7.2641    1.4330    0.0000 N   0  0  0  0  0  0  0  0  0  0  0  0
   15.9244   -0.5670    0.0000 N   0  0  0  0  0  0  0  0  0  0  0  0
   17.6564   -0.5670    0.0000 N   0  0  0  0  0  0  0  0  0  0  0  0
    4.6660    0.9330    0.0000 N   0  0  0  0  0  0  0  0  0  0  0  0
   12.4603   -1.5670    0.0000 C   0  0  1  0  0  0  0  0  0  0  0  0
   13.3263   -2.0670    0.0000 C   0  0  0  0  0  0  0  0  0  0  0  0
   14.1923   -1.5670    0.0000 C   0  0  1  0  0  0  0  0  0  0  0  0
   13.3263   -0.0670    0.0000 C   0  0  0  0  0  0  0  0  0  0  0  0
   14.1923   -0.5670    0.0000 C   0  0  0  0  0  0  0  0  0  0  0  0
   11.5942   -0.0670    0.0000 C   0  0  0  0  0  0  0  0  0  0  0  0
   11.5942    0.9330    0.0000 C   0  0  2  0  0  0  0  0  0  0  0  0
   10.7282    1.4330    0.0000 C   0  0  2  0  0  0  0  0  0  0  0  0
   11.5942   -2.0670    0.0000 C   0  0  0  0  0  0  0  0  0  0  0  0
   10.7282    2.4330    0.0000 C   0  0  0  0  0  0  0  0  0  0  0  0
   10.7282   -3.5670    0.0000 C   0  0  0  0  0  0  0  0  0  0  0  0
   11.5942    2.9330    0.0000 C   0  0  0  0  0  0  0  0  0  0  0  0
   15.9244   -1.5670    0.0000 C   0  0  0  0  0  0  0  0  0  0  0  0
    8.9962    1.4330    0.0000 C   0  0  0  0  0  0  0  0  0  0  0  0
    9.8622   -4.0670    0.0000 C   0  0  0  0  0  0  0  0  0  0  0  0
   11.2282   -4.4330    0.0000 C   0  0  0  0  0  0  0  0  0  0  0  0
   10.2282   -2.7010    0.0000 C   0  0  0  0  0  0  0  0  0  0  0  0
    8.1301    0.9330    0.0000 C   0  0  2  0  0  0  0  0  0  0  0  0
    8.1301   -0.0670    0.0000 C   0  0  0  0  0  0  0  0  0  0  0  0
   11.5942    3.9330    0.0000 C   0  0  0  0  0  0  0  0  0  0  0  0
   12.4603    2.4330    0.0000 C   0  0  0  0  0  0  0  0  0  0  0  0
   16.7904   -2.0670    0.0000 C   0  0  0  0  0  0  0  0  0  0  0  0
    8.9962   -0.5670    0.0000 C   0  0  0  0  0  0  0  0  0  0  0  0
    7.2641   -0.5670    0.0000 C   0  0  0  0  0  0  0  0  0  0  0  0
   17.6564   -1.5670    0.0000 C   0  0  0  0  0  0  0  0  0  0  0  0
   12.4603    4.4330    0.0000 C   0  0  0  0  0  0  0  0  0  0  0  0
   13.3263    2.9330    0.0000 C   0  0  0  0  0  0  0  0  0  0  0  0
   16.7904   -0.0670    0.0000 C   0  0  0  0  0  0  0  0  0  0  0  0
   13.3263    3.9330    0.0000 C   0  0  0  0  0  0  0  0  0  0  0  0
    6.3981    0.9330    0.0000 C   0  0  0  0  0  0  0  0  0  0  0  0
   18.5224   -2.0670    0.0000 C   0  0  0  0  0  0  0  0  0  0  0  0
   16.7904    0.9330    0.0000 C   0  0  0  0  0  0  0  0  0  0  0  0
    5.5321    1.4330    0.0000 C   0  0  0  0  0  0  0  0  0  0  0  0
    5.5321    2.4330    0.0000 C   0  0  0  0  0  0  0  0  0  0  0  0
    3.8000    1.4330    0.0000 C   0  0  0  0  0  0  0  0  0  0  0  0
    4.6660    2.9330    0.0000 C   0  0  0  0  0  0  0  0  0  0  0  0
    3.8000    2.4330    0.0000 C   0  0  0  0  0  0  0  0  0  0  0  0
    2.9061    0.8984    0.0000 C   0  0  0  0  0  0  0  0  0  0  0  0
    2.9061    2.9677    0.0000 C   0  0  0  0  0  0  0  0  0  0  0  0
    2.0000    1.4122    0.0000 C   0  0  0  0  0  0  0  0  0  0  0  0
    2.0000    2.4538    0.0000 C   0  0  0  0  0  0  0  0  0  0  0  0
   11.9233   -1.2570    0.0000 H   0  0  0  0  0  0  0  0  0  0  0  0
   12.9278   -2.5419    0.0000 H   0  0  0  0  0  0  0  0  0  0  0  0
   13.7248   -2.5419    0.0000 H   0  0  0  0  0  0  0  0  0  0  0  0
   14.1923   -2.1870    0.0000 H   0  0  0  0  0  0  0  0  0  0  0  0
   13.7248    0.4080    0.0000 H   0  0  0  0  0  0  0  0  0  0  0  0
   12.9278    0.4080    0.0000 H   0  0  0  0  0  0  0  0  0  0  0  0
   14.8029   -0.6746    0.0000 H   0  0  0  0  0  0  0  0  0  0  0  0
   14.4044    0.0156    0.0000 H   0  0  0  0  0  0  0  0  0  0  0  0
   10.9837    0.0407    0.0000 H   0  0  0  0  0  0  0  0  0  0  0  0
   11.3822   -0.6496    0.0000 H   0  0  0  0  0  0  0  0  0  0  0  0
   11.5942    1.5530    0.0000 H   0  0  0  0  0  0  0  0  0  0  0  0
   10.7282    0.8130    0.0000 H   0  0  0  0  0  0  0  0  0  0  0  0
   10.5162    3.0156    0.0000 H   0  0  0  0  0  0  0  0  0  0  0  0
   10.1176    2.3253    0.0000 H   0  0  0  0  0  0  0  0  0  0  0  0
   12.1312   -3.3770    0.0000 H   0  0  0  0  0  0  0  0  0  0  0  0
    9.8622    0.3130    0.0000 H   0  0  0  0  0  0  0  0  0  0  0  0
   12.9972    1.1230    0.0000 H   0  0  0  0  0  0  0  0  0  0  0  0
    9.5522   -3.5300    0.0000 H   0  0  0  0  0  0  0  0  0  0  0  0
    9.3252   -4.3770    0.0000 H   0  0  0  0  0  0  0  0  0  0  0  0
   10.1722   -4.6039    0.0000 H   0  0  0  0  0  0  0  0  0  0  0  0
   10.6913   -4.7430    0.0000 H   0  0  0  0  0  0  0  0  0  0  0  0
   11.5382   -4.9700    0.0000 H   0  0  0  0  0  0  0  0  0  0  0  0
   11.7651   -4.1230    0.0000 H   0  0  0  0  0  0  0  0  0  0  0  0
   10.7651   -2.3910    0.0000 H   0  0  0  0  0  0  0  0  0  0  0  0
    9.9182   -2.1640    0.0000 H   0  0  0  0  0  0  0  0  0  0  0  0
    9.6913   -3.0110    0.0000 H   0  0  0  0  0  0  0  0  0  0  0  0
    8.1301    1.5530    0.0000 H   0  0  0  0  0  0  0  0  0  0  0  0
    7.5932    0.2430    0.0000 H   0  0  0  0  0  0  0  0  0  0  0  0
   11.0573    4.2430    0.0000 H   0  0  0  0  0  0  0  0  0  0  0  0
   12.4603    1.8130    0.0000 H   0  0  0  0  0  0  0  0  0  0  0  0
   16.7904   -2.6870    0.0000 H   0  0  0  0  0  0  0  0  0  0  0  0
    7.2641    2.0530    0.0000 H   0  0  0  0  0  0  0  0  0  0  0  0
    8.6862   -1.1039    0.0000 H   0  0  0  0  0  0  0  0  0  0  0  0
    9.5331   -0.8770    0.0000 H   0  0  0  0  0  0  0  0  0  0  0  0
    9.3062   -0.0301    0.0000 H   0  0  0  0  0  0  0  0  0  0  0  0
    6.9541   -0.0301    0.0000 H   0  0  0  0  0  0  0  0  0  0  0  0
    6.7272   -0.8770    0.0000 H   0  0  0  0  0  0  0  0  0  0  0  0
    7.5741   -1.1039    0.0000 H   0  0  0  0  0  0  0  0  0  0  0  0
   12.4603    5.0530    0.0000 H   0  0  0  0  0  0  0  0  0  0  0  0
   13.8632    2.6230    0.0000 H   0  0  0  0  0  0  0  0  0  0  0  0
   13.8632    4.2430    0.0000 H   0  0  0  0  0  0  0  0  0  0  0  0
   18.2124   -2.6039    0.0000 H   0  0  0  0  0  0  0  0  0  0  0  0
   19.0594   -2.3770    0.0000 H   0  0  0  0  0  0  0  0  0  0  0  0
   18.8324   -1.5300    0.0000 H   0  0  0  0  0  0  0  0  0  0  0  0
   17.4104    0.9330    0.0000 H   0  0  0  0  0  0  0  0  0  0  0  0
   16.7904    1.5530    0.0000 H   0  0  0  0  0  0  0  0  0  0  0  0
   16.1704    0.9330    0.0000 H   0  0  0  0  0  0  0  0  0  0  0  0
    6.0690    2.7430    0.0000 H   0  0  0  0  0  0  0  0  0  0  0  0
    4.6660    3.5530    0.0000 H   0  0  0  0  0  0  0  0  0  0  0  0
    2.9132    0.2784    0.0000 H   0  0  0  0  0  0  0  0  0  0  0  0
    2.9132    3.5876    0.0000 H   0  0  0  0  0  0  0  0  0  0  0  0
    1.4643    1.1001    0.0000 H   0  0  0  0  0  0  0  0  0  0  0  0
    1.4643    2.7659    0.0000 H   0  0  0  0  0  0  0  0  0  0  0  0
 15  1  1  1  0  0  0
  1 25  1  0  0  0  0
 19  2  1  6  0  0  0
  2 70  1  0  0  0  0
  3 21  2  0  0  0  0
  4 26  2  0  0  0  0
  5 42  2  0  0  0  0
  6 13  1  0  0  0  0
  6 16  1  0  0  0  0
  6 18  1  0  0  0  0
  7 21  1  0  0  0  0
  7 23  1  0  0  0  0
  7 68  1  0  0  0  0
 20  8  1  1  0  0  0
  8 26  1  0  0  0  0
  8 69  1  0  0  0  0
 30  9  1  6  0  0  0
  9 42  1  0  0  0  0
  9 85  1  0  0  0  0
 10 25  2  0  0  0  0
 10 40  1  0  0  0  0
 11 37  1  0  0  0  0
 11 40  2  0  0  0  0
 12 45  2  0  0  0  0
 12 47  1  0  0  0  0
 13 14  1  0  0  0  0
 13 21  1  1  0  0  0
 13 54  1  0  0  0  0
 14 15  1  0  0  0  0
 14 55  1  0  0  0  0
 14 56  1  0  0  0  0
 15 17  1  0  0  0  0
 15 57  1  0  0  0  0
 16 17  1  0  0  0  0
 16 58  1  0  0  0  0
 16 59  1  0  0  0  0
 17 60  1  0  0  0  0
 17 61  1  0  0  0  0
 18 19  1  0  0  0  0
 18 62  1  0  0  0  0
 18 63  1  0  0  0  0
 19 20  1  0  0  0  0
 19 64  1  0  0  0  0
 20 22  1  0  0  0  0
 20 65  1  0  0  0  0
 22 24  1  0  0  0  0
 22 66  1  0  0  0  0
 22 67  1  0  0  0  0
 23 27  1  0  0  0  0
 23 28  1  0  0  0  0
 23 29  1  0  0  0  0
 24 32  2  0  0  0  0
 24 33  1  0  0  0  0
 25 34  1  0  0  0  0
 26 30  1  0  0  0  0
 27 71  1  0  0  0  0
 27 72  1  0  0  0  0
 27 73  1  0  0  0  0
 28 74  1  0  0  0  0
 28 75  1  0  0  0  0
 28 76  1  0  0  0  0
 29 77  1  0  0  0  0
 29 78  1  0  0  0  0
 29 79  1  0  0  0  0
 30 31  1  0  0  0  0
 30 80  1  0  0  0  0
 31 35  1  0  0  0  0
 31 36  1  0  0  0  0
 31 81  1  0  0  0  0
 32 38  1  0  0  0  0
 32 82  1  0  0  0  0
 33 39  2  0  0  0  0
 33 83  1  0  0  0  0
 34 37  2  0  0  0  0
 34 84  1  0  0  0  0
 35 86  1  0  0  0  0
 35 87  1  0  0  0  0
 35 88  1  0  0  0  0
 36 89  1  0  0  0  0
 36 90  1  0  0  0  0
 36 91  1  0  0  0  0
 37 43  1  0  0  0  0
 38 41  2  0  0  0  0
 38 92  1  0  0  0  0
 39 41  1  0  0  0  0
 39 93  1  0  0  0  0
 40 44  1  0  0  0  0
 41 94  1  0  0  0  0
 42 45  1  0  0  0  0
 43 95  1  0  0  0  0
 43 96  1  0  0  0  0
 43 97  1  0  0  0  0
 44 98  1  0  0  0  0
 44 99  1  0  0  0  0
 44100  1  0  0  0  0
 45 46  1  0  0  0  0
 46 48  2  0  0  0  0
 46101  1  0  0  0  0
 47 49  1  0  0  0  0
 47 50  2  0  0  0  0
 48 49  1  0  0  0  0
 48102  1  0  0  0  0
 49 51  2  0  0  0  0
 50 52  1  0  0  0  0
 50103  1  0  0  0  0
 51 53  1  0  0  0  0
 51104  1  0  0  0  0
 52 53  2  0  0  0  0
 52105  1  0  0  0  0
 53106  1  0  0  0  0
M  END
> <PUBCHEM_COMPOUND_CID>
503223
> <PUBCHEM_COMPOUND_CANONICALIZED>
1
> <PUBCHEM_CACTVS_COMPLEXITY>
1200
> <PUBCHEM_CACTVS_HBOND_ACCEPTOR>
9
> <PUBCHEM_CACTVS_HBOND_DONOR>
4
> <PUBCHEM_CACTVS_ROTATABLE_BOND>
14
> <PUBCHEM_CACTVS_SUBSKEYS>
AAADcfB/uABAAAAAAAAAAAAAAAAAAAAAAAA8eLECAAAAAACx/AAAHgQQCAAADbzl3waz0ffIEgioAydydACC0ClnCrAJmLm4ZNiKePLg3fGUZQxslgL4yaeYyKCOAAAAAAACAAAAAAAAAAQAAAAAAAAAAA==
> <PUBCHEM_IUPAC_OPENEYE_NAME>
N-[(1S)-1-[[(1S,2R)-1-benzyl-3-[(2S,4R)-2-(tert-butylcarbamoyl)-4-(2,6-dimethylpyrimidin-4-yl)sulfanyl-1-piperidyl]-2-hydroxy-propyl]carbamoyl]-2-methyl-propyl]quinoline-2-carboxamide
> <PUBCHEM_IUPAC_CAS_NAME>
N-[(2S)-1-[[(2S,3R)-4-[(2S,4R)-2-[(tert-butylamino)-oxomethyl]-4-[(2,6-dimethyl-4-pyrimidinyl)thio]-1-piperidinyl]-3-hydroxy-1-phenylbutan-2-yl]amino]-3-methyl-1-oxobutan-2-yl]-2-quinolinecarboxamide
> <PUBCHEM_IUPAC_NAME_MARKUP>
<I>N</I>-[(2<I>S</I>)-1-[[(2<I>S</I>,3<I>R</I>)-4-[(2<I>S</I>,4<I>R</I>)-2-(<I>tert</I>-butylcarbamoyl)-4-(2,6-dimethylpyrimidin-4-yl)sulfanylpiperidin-1-yl]-3-hydroxy-1-phenylbutan-2-yl]amino]-3-methyl-1-oxobutan-2-yl]quinoline-2-carboxamide
> <PUBCHEM_IUPAC_NAME>
N-[(2S)-1-[[(2S,3R)-4-[(2S,4R)-2-(tert-butylcarbamoyl)-4-(2,6-dimethylpyrimidin-4-yl)sulfanylpiperidin-1-yl]-3-hydroxy-1-phenylbutan-2-yl]amino]-3-methyl-1-oxobutan-2-yl]quinoline-2-carboxamide
> <PUBCHEM_IUPAC_SYSTEMATIC_NAME>
N-[(2S)-1-[[(2S,3R)-4-[(2S,4R)-2-(tert-butylcarbamoyl)-4-(2,6-dimethylpyrimidin-4-yl)sulfanyl-piperidin-1-yl]-3-oxidanyl-1-phenyl-butan-2-yl]amino]-3-methyl-1-oxidanylidene-butan-2-yl]quinoline-2-carboxamide
> <PUBCHEM_IUPAC_TRADITIONAL_NAME>
N-[(1S)-1-[[(1S,2R)-1-benzyl-3-[(2S,4R)-2-(tert-butylcarbamoyl)-4-[(2,6-dimethylpyrimidin-4-yl)thio]piperidino]-2-hydroxy-propyl]carbamoyl]-2-methyl-propyl]quinaldamide
> <PUBCHEM_IUPAC_INCHI>
InChI=1S/C41H53N7O4S/c1-25(2)37(46-38(50)32-18-17-29-15-11-12-16-31(29)44-32)40(52)45-33(22-28-13-9-8-10-14-28)35(49)24-48-20-19-30(23-34(48)39(51)47-41(5,6)7)53-36-21-26(3)42-27(4)43-36/h8-18,21,25,30,33-35,37,49H,19-20,22-24H2,1-7H3,(H,45,52)(H,46,50)(H,47,51)/t30-,33+,34+,35-,37+/m1/s1
> <PUBCHEM_IUPAC_INCHIKEY>
CPKUQRHHNRWRHN-CCRRNQKPSA-N
> <PUBCHEM_XLOGP3_AA>
6.5
> <PUBCHEM_EXACT_MASS>
739.38797437
> <PUBCHEM_MOLECULAR_FORMULA>
C41H53N7O4S
> <PUBCHEM_MOLECULAR_WEIGHT>
740.0
> <PUBCHEM_OPENEYE_CAN_SMILES>
CC1=CC(=NC(=N1)C)SC2CCN(C(C2)C(=O)NC(C)(C)C)CC(C(CC3=CC=CC=C3)NC(=O)C(C(C)C)NC(=O)C4=NC5=CC=CC=C5C=C4)O
> <PUBCHEM_OPENEYE_ISO_SMILES>
CC1=CC(=NC(=N1)C)S[C@@H]2CCN([C@@H](C2)C(=O)NC(C)(C)C)C[C@H]([C@H](CC3=CC=CC=C3)NC(=O)[C@H](C(C)C)NC(=O)C4=NC5=CC=CC=C5C=C4)O
> <PUBCHEM_CACTVS_TPSA>
175
> <PUBCHEM_MONOISOTOPIC_WEIGHT>
739.38797437
> <PUBCHEM_TOTAL_CHARGE>
0
> <PUBCHEM_HEAVY_ATOM_COUNT>
53
> <PUBCHEM_ATOM_DEF_STEREO_COUNT>
5
> <PUBCHEM_ATOM_UDEF_STEREO_COUNT>
0
> <PUBCHEM_BOND_DEF_STEREO_COUNT>
0
> <PUBCHEM_BOND_UDEF_STEREO_COUNT>
0
> <PUBCHEM_ISOTOPIC_ATOM_COUNT>
0
> <PUBCHEM_COMPONENT_COUNT>
1
> <PUBCHEM_CACTVS_TAUTO_COUNT>
-1
> <PUBCHEM_COORDINATE_TYPE>
1
5
255
> <PUBCHEM_BONDANNOTATIONS>
15  1  5
10  25  8
10  40  8
11  37  8
11  40  8
12  45  8
12  47  8
13  21  5
19  2  6
24  32  8
24  33  8
25  34  8
32  38  8
33  39  8
34  37  8
38  41  8
39  41  8
45  46  8
46  48  8
47  49  8
47  50  8
48  49  8
49  51  8
50  52  8
51  53  8
52  53  8
20  8  5
30  9  6
$$$$
