503260
  -OEChem-10302200282D
 33 33  0     1  0  0  0  0  0999 V2000
    5.7739    2.2195    0.0000 O   0  0  0  0  0  0  0  0  0  0  0  0
    7.1752    1.2014    0.0000 O   0  0  0  0  0  0  0  0  0  0  0  0
    2.5896   -0.0940    0.0000 O   0  0  0  0  0  0  0  0  0  0  0  0
    3.1249   -1.7413    0.0000 O   0  0  0  0  0  0  0  0  0  0  0  0
    8.7551   -1.3812    0.0000 O   0  0  0  0  0  0  0  0  0  0  0  0
    5.0929   -1.0419    0.0000 N   0  0  0  0  0  0  0  0  0  0  0  0
    7.0609   -1.7413    0.0000 N   0  0  0  0  0  0  0  0  0  0  0  0
    5.9019   -0.4542    0.0000 C   0  0  3  0  0  0  0  0  0  0  0  0
    5.5929    0.4969    0.0000 C   0  0  3  0  0  0  0  0  0  0  0  0
    4.5929    0.4969    0.0000 C   0  0  0  0  0  0  0  0  0  0  0  0
    4.2839   -0.4542    0.0000 C   0  0  3  0  0  0  0  0  0  0  0  0
    6.8530   -0.7632    0.0000 C   0  0  0  0  0  0  0  0  0  0  0  0
    6.1807    1.3059    0.0000 C   0  0  0  0  0  0  0  0  0  0  0  0
    3.3328   -0.7632    0.0000 C   0  0  0  0  0  0  0  0  0  0  0  0
    8.0119   -2.0503    0.0000 C   0  0  0  0  0  0  0  0  0  0  0  0
    6.3617    3.0285    0.0000 C   0  0  0  0  0  0  0  0  0  0  0  0
    8.2198   -3.0285    0.0000 C   0  0  0  0  0  0  0  0  0  0  0  0
    5.9989   -1.0665    0.0000 H   0  0  0  0  0  0  0  0  0  0  0  0
    6.2052    0.3999    0.0000 H   0  0  0  0  0  0  0  0  0  0  0  0
    4.6577    1.1135    0.0000 H   0  0  0  0  0  0  0  0  0  0  0  0
    3.9864    0.6258    0.0000 H   0  0  0  0  0  0  0  0  0  0  0  0
    4.1869   -1.0665    0.0000 H   0  0  0  0  0  0  0  0  0  0  0  0
    5.0929   -1.6619    0.0000 H   0  0  0  0  0  0  0  0  0  0  0  0
    7.4726   -0.7415    0.0000 H   0  0  0  0  0  0  0  0  0  0  0  0
    6.9392   -0.1492    0.0000 H   0  0  0  0  0  0  0  0  0  0  0  0
    6.6001   -2.1562    0.0000 H   0  0  0  0  0  0  0  0  0  0  0  0
    2.0000   -0.2856    0.0000 H   0  0  0  0  0  0  0  0  0  0  0  0
    6.8633    2.6641    0.0000 H   0  0  0  0  0  0  0  0  0  0  0  0
    6.7261    3.5301    0.0000 H   0  0  0  0  0  0  0  0  0  0  0  0
    5.8601    3.3929    0.0000 H   0  0  0  0  0  0  0  0  0  0  0  0
    7.6134   -3.1574    0.0000 H   0  0  0  0  0  0  0  0  0  0  0  0
    8.3487   -3.6349    0.0000 H   0  0  0  0  0  0  0  0  0  0  0  0
    8.8263   -2.8996    0.0000 H   0  0  0  0  0  0  0  0  0  0  0  0
  1 13  1  0  0  0  0
  1 16  1  0  0  0  0
  2 13  2  0  0  0  0
  3 14  1  0  0  0  0
  3 27  1  0  0  0  0
  4 14  2  0  0  0  0
  5 15  2  0  0  0  0
  6  8  1  0  0  0  0
  6 11  1  0  0  0  0
  6 23  1  0  0  0  0
  7 12  1  0  0  0  0
  7 15  1  0  0  0  0
  7 26  1  0  0  0  0
  8  9  1  0  0  0  0
  8 12  1  0  0  0  0
  8 18  1  0  0  0  0
  9 10  1  0  0  0  0
  9 13  1  0  0  0  0
  9 19  1  0  0  0  0
 10 11  1  0  0  0  0
 10 20  1  0  0  0  0
 10 21  1  0  0  0  0
 11 14  1  0  0  0  0
 11 22  1  0  0  0  0
 12 24  1  0  0  0  0
 12 25  1  0  0  0  0
 15 17  1  0  0  0  0
 16 28  1  0  0  0  0
 16 29  1  0  0  0  0
 16 30  1  0  0  0  0
 17 31  1  0  0  0  0
 17 32  1  0  0  0  0
 17 33  1  0  0  0  0
M  END
> <PUBCHEM_COMPOUND_CID>
503260
> <PUBCHEM_COMPOUND_CANONICALIZED>
1
> <PUBCHEM_CACTVS_COMPLEXITY>
331
> <PUBCHEM_CACTVS_HBOND_ACCEPTOR>
6
> <PUBCHEM_CACTVS_HBOND_DONOR>
3
> <PUBCHEM_CACTVS_ROTATABLE_BOND>
5
> <PUBCHEM_CACTVS_SUBSKEYS>
AAADceBzOAAAAAAAAAAAAAAAAAAAAWAAAAAAAAAAAAAAAAAAAAAAHgAQCAAADSjBgAYCCALABgAIAAGQGAAAAAAAAAAAAIGIAAACQBoAgCAUQAAGFgCQAAG8fwkeAAAAAAAAAAAAAAAAAAAAAAAAAAAAAA==
> <PUBCHEM_IUPAC_OPENEYE_NAME>
5-(acetamidomethyl)-4-methoxycarbonyl-pyrrolidine-2-carboxylic acid
> <PUBCHEM_IUPAC_CAS_NAME>
5-(acetamidomethyl)-4-methoxycarbonyl-2-pyrrolidinecarboxylic acid
> <PUBCHEM_IUPAC_NAME_MARKUP>
5-(acetamidomethyl)-4-methoxycarbonylpyrrolidine-2-carboxylic acid
> <PUBCHEM_IUPAC_NAME>
5-(acetamidomethyl)-4-methoxycarbonylpyrrolidine-2-carboxylic acid
> <PUBCHEM_IUPAC_SYSTEMATIC_NAME>
5-(acetamidomethyl)-4-methoxycarbonyl-pyrrolidine-2-carboxylic acid
> <PUBCHEM_IUPAC_TRADITIONAL_NAME>
5-(acetamidomethyl)-4-carbomethoxy-proline
> <PUBCHEM_IUPAC_INCHI>
InChI=1S/C10H16N2O5/c1-5(13)11-4-8-6(10(16)17-2)3-7(12-8)9(14)15/h6-8,12H,3-4H2,1-2H3,(H,11,13)(H,14,15)
> <PUBCHEM_IUPAC_INCHIKEY>
KYVHTULMFRQQLU-UHFFFAOYSA-N
> <PUBCHEM_XLOGP3_AA>
-3.5
> <PUBCHEM_EXACT_MASS>
244.10592162
> <PUBCHEM_MOLECULAR_FORMULA>
C10H16N2O5
> <PUBCHEM_MOLECULAR_WEIGHT>
244.24
> <PUBCHEM_OPENEYE_CAN_SMILES>
CC(=O)NCC1C(CC(N1)C(=O)O)C(=O)OC
> <PUBCHEM_OPENEYE_ISO_SMILES>
CC(=O)NCC1C(CC(N1)C(=O)O)C(=O)OC
> <PUBCHEM_CACTVS_TPSA>
105
> <PUBCHEM_MONOISOTOPIC_WEIGHT>
244.10592162
> <PUBCHEM_TOTAL_CHARGE>
0
> <PUBCHEM_HEAVY_ATOM_COUNT>
17
> <PUBCHEM_ATOM_DEF_STEREO_COUNT>
0
> <PUBCHEM_ATOM_UDEF_STEREO_COUNT>
3
> <PUBCHEM_BOND_DEF_STEREO_COUNT>
0
> <PUBCHEM_BOND_UDEF_STEREO_COUNT>
0
> <PUBCHEM_ISOTOPIC_ATOM_COUNT>
0
> <PUBCHEM_COMPONENT_COUNT>
1
> <PUBCHEM_CACTVS_TAUTO_COUNT>
-1
> <PUBCHEM_COORDINATE_TYPE>
1
5
255
> <PUBCHEM_BONDANNOTATIONS>
11  14  3
8  12  3
9  13  3
$$$$
