503201
  -OEChem-10302200282D
105108  0     1  0  0  0  0  0999 V2000
    6.3301    3.0000    0.0000 S   0  0  0  0  0  0  0  0  0  0  0  0
    8.0622   -1.0000    0.0000 O   0  0  0  0  0  0  0  0  0  0  0  0
    4.5981   -1.0000    0.0000 O   0  0  0  0  0  0  0  0  0  0  0  0
    8.9282   -1.5000    0.0000 O   0  0  0  0  0  0  0  0  0  0  0  0
   12.3923   -2.5000    0.0000 O   0  0  0  0  0  0  0  0  0  0  0  0
   11.5263   -4.0000    0.0000 O   0  0  0  0  0  0  0  0  0  0  0  0
    6.3301   -0.0000    0.0000 N   0  0  3  0  0  0  0  0  0  0  0  0
    3.7320    0.5000    0.0000 N   0  0  0  0  0  0  0  0  0  0  0  0
    8.0622   -3.0000    0.0000 N   0  0  0  0  0  0  0  0  0  0  0  0
   10.6603   -2.5000    0.0000 N   0  0  0  0  0  0  0  0  0  0  0  0
    7.1962    4.5000    0.0000 N   0  0  0  0  0  0  0  0  0  0  0  0
    8.0622    3.0000    0.0000 N   0  0  0  0  0  0  0  0  0  0  0  0
    5.4641    0.5000    0.0000 C   0  0  1  0  0  0  0  0  0  0  0  0
    5.4641    1.5000    0.0000 C   0  0  0  0  0  0  0  0  0  0  0  0
    6.3301    2.0000    0.0000 C   0  0  1  0  0  0  0  0  0  0  0  0
    7.1962    0.5000    0.0000 C   0  0  0  0  0  0  0  0  0  0  0  0
    7.1962    1.5000    0.0000 C   0  0  0  0  0  0  0  0  0  0  0  0
    6.3301   -1.0000    0.0000 C   0  0  0  0  0  0  0  0  0  0  0  0
    7.1962   -1.5000    0.0000 C   0  0  2  0  0  0  0  0  0  0  0  0
    7.1962   -2.5000    0.0000 C   0  0  2  0  0  0  0  0  0  0  0  0
    4.5981   -0.0000    0.0000 C   0  0  0  0  0  0  0  0  0  0  0  0
    6.3301   -3.0000    0.0000 C   0  0  0  0  0  0  0  0  0  0  0  0
    2.8660   -0.0000    0.0000 C   0  0  0  0  0  0  0  0  0  0  0  0
    6.3301   -4.0000    0.0000 C   0  0  0  0  0  0  0  0  0  0  0  0
    2.0000   -0.5000    0.0000 C   0  0  0  0  0  0  0  0  0  0  0  0
    2.3660    0.8660    0.0000 C   0  0  0  0  0  0  0  0  0  0  0  0
    3.3660   -0.8660    0.0000 C   0  0  0  0  0  0  0  0  0  0  0  0
    8.9282   -2.5000    0.0000 C   0  0  0  0  0  0  0  0  0  0  0  0
    7.1962    3.5000    0.0000 C   0  0  0  0  0  0  0  0  0  0  0  0
    9.7942   -3.0000    0.0000 C   0  0  2  0  0  0  0  0  0  0  0  0
    9.7942   -4.0000    0.0000 C   0  0  0  0  0  0  0  0  0  0  0  0
    7.1962   -4.5000    0.0000 C   0  0  0  0  0  0  0  0  0  0  0  0
    5.4641   -4.5000    0.0000 C   0  0  0  0  0  0  0  0  0  0  0  0
   10.6603   -4.5000    0.0000 C   0  0  0  0  0  0  0  0  0  0  0  0
    8.9282   -4.5000    0.0000 C   0  0  0  0  0  0  0  0  0  0  0  0
    7.1962   -5.5000    0.0000 C   0  0  0  0  0  0  0  0  0  0  0  0
    5.4641   -5.5000    0.0000 C   0  0  0  0  0  0  0  0  0  0  0  0
    8.0622    5.0000    0.0000 C   0  0  0  0  0  0  0  0  0  0  0  0
    8.9282    3.5000    0.0000 C   0  0  0  0  0  0  0  0  0  0  0  0
    6.3301   -6.0000    0.0000 C   0  0  0  0  0  0  0  0  0  0  0  0
    8.9282    4.5000    0.0000 C   0  0  0  0  0  0  0  0  0  0  0  0
   11.5263   -3.0000    0.0000 C   0  0  0  0  0  0  0  0  0  0  0  0
    8.0622    6.0000    0.0000 C   0  0  0  0  0  0  0  0  0  0  0  0
    9.7942    3.0000    0.0000 C   0  0  0  0  0  0  0  0  0  0  0  0
   13.2583   -3.0000    0.0000 C   0  0  0  0  0  0  0  0  0  0  0  0
   14.1244   -2.5000    0.0000 C   0  0  0  0  0  0  0  0  0  0  0  0
   14.1244   -1.5000    0.0000 C   0  0  0  0  0  0  0  0  0  0  0  0
   14.9904   -3.0000    0.0000 C   0  0  0  0  0  0  0  0  0  0  0  0
   14.9904   -1.0000    0.0000 C   0  0  0  0  0  0  0  0  0  0  0  0
   15.8564   -2.5000    0.0000 C   0  0  0  0  0  0  0  0  0  0  0  0
   15.8564   -1.5000    0.0000 C   0  0  0  0  0  0  0  0  0  0  0  0
    5.4641   -0.1200    0.0000 H   0  0  0  0  0  0  0  0  0  0  0  0
    5.2520    2.0826    0.0000 H   0  0  0  0  0  0  0  0  0  0  0  0
    4.8535    1.3923    0.0000 H   0  0  0  0  0  0  0  0  0  0  0  0
    6.8671    2.3100    0.0000 H   0  0  0  0  0  0  0  0  0  0  0  0
    7.4082   -0.0826    0.0000 H   0  0  0  0  0  0  0  0  0  0  0  0
    7.8067    0.6077    0.0000 H   0  0  0  0  0  0  0  0  0  0  0  0
    7.8067    1.3923    0.0000 H   0  0  0  0  0  0  0  0  0  0  0  0
    7.4082    2.0826    0.0000 H   0  0  0  0  0  0  0  0  0  0  0  0
    5.7196   -0.8923    0.0000 H   0  0  0  0  0  0  0  0  0  0  0  0
    6.1181   -1.5826    0.0000 H   0  0  0  0  0  0  0  0  0  0  0  0
    7.7331   -1.8100    0.0000 H   0  0  0  0  0  0  0  0  0  0  0  0
    7.1962   -3.1200    0.0000 H   0  0  0  0  0  0  0  0  0  0  0  0
    6.1181   -2.4174    0.0000 H   0  0  0  0  0  0  0  0  0  0  0  0
    5.7196   -3.1077    0.0000 H   0  0  0  0  0  0  0  0  0  0  0  0
    3.7320    1.1200    0.0000 H   0  0  0  0  0  0  0  0  0  0  0  0
    8.0622   -3.6200    0.0000 H   0  0  0  0  0  0  0  0  0  0  0  0
    8.0622   -0.3800    0.0000 H   0  0  0  0  0  0  0  0  0  0  0  0
    1.6900    0.0369    0.0000 H   0  0  0  0  0  0  0  0  0  0  0  0
    1.4631   -0.8100    0.0000 H   0  0  0  0  0  0  0  0  0  0  0  0
    2.3100   -1.0369    0.0000 H   0  0  0  0  0  0  0  0  0  0  0  0
    2.9030    1.1760    0.0000 H   0  0  0  0  0  0  0  0  0  0  0  0
    2.0560    1.4030    0.0000 H   0  0  0  0  0  0  0  0  0  0  0  0
    1.8291    0.5560    0.0000 H   0  0  0  0  0  0  0  0  0  0  0  0
    2.8291   -1.1760    0.0000 H   0  0  0  0  0  0  0  0  0  0  0  0
    3.6760   -1.4030    0.0000 H   0  0  0  0  0  0  0  0  0  0  0  0
    3.9030   -0.5560    0.0000 H   0  0  0  0  0  0  0  0  0  0  0  0
    9.7942   -2.3800    0.0000 H   0  0  0  0  0  0  0  0  0  0  0  0
    9.2573   -3.6900    0.0000 H   0  0  0  0  0  0  0  0  0  0  0  0
    7.7331   -4.1900    0.0000 H   0  0  0  0  0  0  0  0  0  0  0  0
    4.9272   -4.1900    0.0000 H   0  0  0  0  0  0  0  0  0  0  0  0
   10.6603   -1.8800    0.0000 H   0  0  0  0  0  0  0  0  0  0  0  0
   10.3503   -5.0369    0.0000 H   0  0  0  0  0  0  0  0  0  0  0  0
   11.1972   -4.8100    0.0000 H   0  0  0  0  0  0  0  0  0  0  0  0
   10.9703   -3.9631    0.0000 H   0  0  0  0  0  0  0  0  0  0  0  0
    8.6182   -3.9631    0.0000 H   0  0  0  0  0  0  0  0  0  0  0  0
    8.3913   -4.8100    0.0000 H   0  0  0  0  0  0  0  0  0  0  0  0
    9.2382   -5.0369    0.0000 H   0  0  0  0  0  0  0  0  0  0  0  0
    7.7331   -5.8100    0.0000 H   0  0  0  0  0  0  0  0  0  0  0  0
    4.9272   -5.8100    0.0000 H   0  0  0  0  0  0  0  0  0  0  0  0
    6.3301   -6.6200    0.0000 H   0  0  0  0  0  0  0  0  0  0  0  0
    9.4651    4.8100    0.0000 H   0  0  0  0  0  0  0  0  0  0  0  0
    8.6822    6.0000    0.0000 H   0  0  0  0  0  0  0  0  0  0  0  0
    8.0622    6.6200    0.0000 H   0  0  0  0  0  0  0  0  0  0  0  0
    7.4422    6.0000    0.0000 H   0  0  0  0  0  0  0  0  0  0  0  0
    9.4842    2.4631    0.0000 H   0  0  0  0  0  0  0  0  0  0  0  0
   10.3312    2.6900    0.0000 H   0  0  0  0  0  0  0  0  0  0  0  0
   10.1042    3.5369    0.0000 H   0  0  0  0  0  0  0  0  0  0  0  0
   12.8598   -3.4750    0.0000 H   0  0  0  0  0  0  0  0  0  0  0  0
   13.6569   -3.4750    0.0000 H   0  0  0  0  0  0  0  0  0  0  0  0
   13.5874   -1.1900    0.0000 H   0  0  0  0  0  0  0  0  0  0  0  0
   14.9904   -3.6200    0.0000 H   0  0  0  0  0  0  0  0  0  0  0  0
   14.9904   -0.3800    0.0000 H   0  0  0  0  0  0  0  0  0  0  0  0
   16.3933   -2.8100    0.0000 H   0  0  0  0  0  0  0  0  0  0  0  0
   16.3933   -1.1900    0.0000 H   0  0  0  0  0  0  0  0  0  0  0  0
 15  1  1  6  0  0  0
  1 29  1  0  0  0  0
 19  2  1  1  0  0  0
  2 68  1  0  0  0  0
  3 21  2  0  0  0  0
  4 28  2  0  0  0  0
  5 42  1  0  0  0  0
  5 45  1  0  0  0  0
  6 42  2  0  0  0  0
  7 13  1  0  0  0  0
  7 16  1  0  0  0  0
  7 18  1  0  0  0  0
  8 21  1  0  0  0  0
  8 23  1  0  0  0  0
  8 66  1  0  0  0  0
 20  9  1  1  0  0  0
  9 28  1  0  0  0  0
  9 67  1  0  0  0  0
 30 10  1  1  0  0  0
 10 42  1  0  0  0  0
 10 82  1  0  0  0  0
 11 29  2  0  0  0  0
 11 38  1  0  0  0  0
 12 29  1  0  0  0  0
 12 39  2  0  0  0  0
 13 14  1  0  0  0  0
 13 21  1  6  0  0  0
 13 52  1  0  0  0  0
 14 15  1  0  0  0  0
 14 53  1  0  0  0  0
 14 54  1  0  0  0  0
 15 17  1  0  0  0  0
 15 55  1  0  0  0  0
 16 17  1  0  0  0  0
 16 56  1  0  0  0  0
 16 57  1  0  0  0  0
 17 58  1  0  0  0  0
 17 59  1  0  0  0  0
 18 19  1  0  0  0  0
 18 60  1  0  0  0  0
 18 61  1  0  0  0  0
 19 20  1  0  0  0  0
 19 62  1  0  0  0  0
 20 22  1  0  0  0  0
 20 63  1  0  0  0  0
 22 24  1  0  0  0  0
 22 64  1  0  0  0  0
 22 65  1  0  0  0  0
 23 25  1  0  0  0  0
 23 26  1  0  0  0  0
 23 27  1  0  0  0  0
 24 32  2  0  0  0  0
 24 33  1  0  0  0  0
 25 69  1  0  0  0  0
 25 70  1  0  0  0  0
 25 71  1  0  0  0  0
 26 72  1  0  0  0  0
 26 73  1  0  0  0  0
 26 74  1  0  0  0  0
 27 75  1  0  0  0  0
 27 76  1  0  0  0  0
 27 77  1  0  0  0  0
 28 30  1  0  0  0  0
 30 31  1  0  0  0  0
 30 78  1  0  0  0  0
 31 34  1  0  0  0  0
 31 35  1  0  0  0  0
 31 79  1  0  0  0  0
 32 36  1  0  0  0  0
 32 80  1  0  0  0  0
 33 37  2  0  0  0  0
 33 81  1  0  0  0  0
 34 83  1  0  0  0  0
 34 84  1  0  0  0  0
 34 85  1  0  0  0  0
 35 86  1  0  0  0  0
 35 87  1  0  0  0  0
 35 88  1  0  0  0  0
 36 40  2  0  0  0  0
 36 89  1  0  0  0  0
 37 40  1  0  0  0  0
 37 90  1  0  0  0  0
 38 41  2  0  0  0  0
 38 43  1  0  0  0  0
 39 41  1  0  0  0  0
 39 44  1  0  0  0  0
 40 91  1  0  0  0  0
 41 92  1  0  0  0  0
 43 93  1  0  0  0  0
 43 94  1  0  0  0  0
 43 95  1  0  0  0  0
 44 96  1  0  0  0  0
 44 97  1  0  0  0  0
 44 98  1  0  0  0  0
 45 46  1  0  0  0  0
 45 99  1  0  0  0  0
 45100  1  0  0  0  0
 46 47  2  0  0  0  0
 46 48  1  0  0  0  0
 47 49  1  0  0  0  0
 47101  1  0  0  0  0
 48 50  2  0  0  0  0
 48102  1  0  0  0  0
 49 51  2  0  0  0  0
 49103  1  0  0  0  0
 50 51  1  0  0  0  0
 50104  1  0  0  0  0
 51105  1  0  0  0  0
M  END
> <PUBCHEM_COMPOUND_CID>
503201
> <PUBCHEM_COMPOUND_CANONICALIZED>
1
> <PUBCHEM_CACTVS_COMPLEXITY>
1080
> <PUBCHEM_CACTVS_HBOND_ACCEPTOR>
9
> <PUBCHEM_CACTVS_HBOND_DONOR>
4
> <PUBCHEM_CACTVS_ROTATABLE_BOND>
16
> <PUBCHEM_CACTVS_SUBSKEYS>
AAADcfB/uABAAAAAAAAAAAAAAAAAAAAAAAA8eIEAAAAAAAAB0AAAHgQQCAAADbzl3gazmJfIFgioAyVyfACC0ClhArAJmKG4bJmKfjLg+fmcdAhs1gPY6CeYyKAOAAAAAAAAAAAAAAAAAAAAAAAAAAAAAA==
> <PUBCHEM_IUPAC_OPENEYE_NAME>
benzyl N-[(1S)-1-[[(1S,2R)-1-benzyl-3-[(2S,4R)-2-(tert-butylcarbamoyl)-4-(4,6-dimethylpyrimidin-2-yl)sulfanyl-1-piperidyl]-2-hydroxy-propyl]carbamoyl]-2-methyl-propyl]carbamate
> <PUBCHEM_IUPAC_CAS_NAME>
N-[(2S)-1-[[(2S,3R)-4-[(2S,4R)-2-[(tert-butylamino)-oxomethyl]-4-[(4,6-dimethyl-2-pyrimidinyl)thio]-1-piperidinyl]-3-hydroxy-1-phenylbutan-2-yl]amino]-3-methyl-1-oxobutan-2-yl]carbamic acid (phenylmethyl) ester
> <PUBCHEM_IUPAC_NAME_MARKUP>
benzyl <I>N</I>-[(2<I>S</I>)-1-[[(2<I>S</I>,3<I>R</I>)-4-[(2<I>S</I>,4<I>R</I>)-2-(<I>tert</I>-butylcarbamoyl)-4-(4,6-dimethylpyrimidin-2-yl)sulfanylpiperidin-1-yl]-3-hydroxy-1-phenylbutan-2-yl]amino]-3-methyl-1-oxobutan-2-yl]carbamate
> <PUBCHEM_IUPAC_NAME>
benzyl N-[(2S)-1-[[(2S,3R)-4-[(2S,4R)-2-(tert-butylcarbamoyl)-4-(4,6-dimethylpyrimidin-2-yl)sulfanylpiperidin-1-yl]-3-hydroxy-1-phenylbutan-2-yl]amino]-3-methyl-1-oxobutan-2-yl]carbamate
> <PUBCHEM_IUPAC_SYSTEMATIC_NAME>
(phenylmethyl) N-[(2S)-1-[[(2S,3R)-4-[(2S,4R)-2-(tert-butylcarbamoyl)-4-(4,6-dimethylpyrimidin-2-yl)sulfanyl-piperidin-1-yl]-3-oxidanyl-1-phenyl-butan-2-yl]amino]-3-methyl-1-oxidanylidene-butan-2-yl]carbamate
> <PUBCHEM_IUPAC_TRADITIONAL_NAME>
N-[(1S)-1-[[(1S,2R)-1-benzyl-3-[(2S,4R)-2-(tert-butylcarbamoyl)-4-[(4,6-dimethylpyrimidin-2-yl)thio]piperidino]-2-hydroxy-propyl]carbamoyl]-2-methyl-propyl]carbamic acid benzyl ester
> <PUBCHEM_IUPAC_INCHI>
InChI=1S/C39H54N6O5S/c1-25(2)34(43-38(49)50-24-29-16-12-9-13-17-29)36(48)42-31(21-28-14-10-8-11-15-28)33(46)23-45-19-18-30(22-32(45)35(47)44-39(5,6)7)51-37-40-26(3)20-27(4)41-37/h8-17,20,25,30-34,46H,18-19,21-24H2,1-7H3,(H,42,48)(H,43,49)(H,44,47)/t30-,31+,32+,33-,34+/m1/s1
> <PUBCHEM_IUPAC_INCHIKEY>
BHQBRSABFNDIGR-YODGASFJSA-N
> <PUBCHEM_XLOGP3_AA>
6.1
> <PUBCHEM_EXACT_MASS>
718.38764002
> <PUBCHEM_MOLECULAR_FORMULA>
C39H54N6O5S
> <PUBCHEM_MOLECULAR_WEIGHT>
718.9
> <PUBCHEM_OPENEYE_CAN_SMILES>
CC1=CC(=NC(=N1)SC2CCN(C(C2)C(=O)NC(C)(C)C)CC(C(CC3=CC=CC=C3)NC(=O)C(C(C)C)NC(=O)OCC4=CC=CC=C4)O)C
> <PUBCHEM_OPENEYE_ISO_SMILES>
CC1=CC(=NC(=N1)S[C@@H]2CCN([C@@H](C2)C(=O)NC(C)(C)C)C[C@H]([C@H](CC3=CC=CC=C3)NC(=O)[C@H](C(C)C)NC(=O)OCC4=CC=CC=C4)O)C
> <PUBCHEM_CACTVS_TPSA>
171
> <PUBCHEM_MONOISOTOPIC_WEIGHT>
718.38764002
> <PUBCHEM_TOTAL_CHARGE>
0
> <PUBCHEM_HEAVY_ATOM_COUNT>
51
> <PUBCHEM_ATOM_DEF_STEREO_COUNT>
5
> <PUBCHEM_ATOM_UDEF_STEREO_COUNT>
0
> <PUBCHEM_BOND_DEF_STEREO_COUNT>
0
> <PUBCHEM_BOND_UDEF_STEREO_COUNT>
0
> <PUBCHEM_ISOTOPIC_ATOM_COUNT>
0
> <PUBCHEM_COMPONENT_COUNT>
1
> <PUBCHEM_CACTVS_TAUTO_COUNT>
-1
> <PUBCHEM_COORDINATE_TYPE>
1
5
255
> <PUBCHEM_BONDANNOTATIONS>
15  1  6
30  10  5
11  29  8
11  38  8
12  29  8
12  39  8
13  21  6
19  2  5
24  32  8
24  33  8
32  36  8
33  37  8
36  40  8
37  40  8
38  41  8
39  41  8
46  47  8
46  48  8
47  49  8
48  50  8
49  51  8
50  51  8
20  9  5
$$$$
