503208
  -OEChem-10302200282D
101105  0     1  0  0  0  0  0999 V2000
   15.0583   -2.0670    0.0000 S   0  0  0  0  0  0  0  0  0  0  0  0
   12.4603    1.4330    0.0000 O   0  0  0  0  0  0  0  0  0  0  0  0
   10.7282   -1.5670    0.0000 O   0  0  0  0  0  0  0  0  0  0  0  0
    8.9962    2.4330    0.0000 O   0  0  0  0  0  0  0  0  0  0  0  0
    6.3981   -0.0670    0.0000 O   0  0  0  0  0  0  0  0  0  0  0  0
   12.4603   -0.5670    0.0000 N   0  0  3  0  0  0  0  0  0  0  0  0
   11.5942   -3.0670    0.0000 N   0  0  0  0  0  0  0  0  0  0  0  0
    9.8622    0.9330    0.0000 N   0  0  0  0  0  0  0  0  0  0  0  0
    7.2641    1.4330    0.0000 N   0  0  0  0  0  0  0  0  0  0  0  0
   17.6564   -0.5670    0.0000 N   0  0  0  0  0  0  0  0  0  0  0  0
    4.6660    0.9330    0.0000 N   0  0  0  0  0  0  0  0  0  0  0  0
   12.4603   -1.5670    0.0000 C   0  0  1  0  0  0  0  0  0  0  0  0
   13.3263   -2.0670    0.0000 C   0  0  0  0  0  0  0  0  0  0  0  0
   14.1923   -1.5670    0.0000 C   0  0  1  0  0  0  0  0  0  0  0  0
   13.3263   -0.0670    0.0000 C   0  0  0  0  0  0  0  0  0  0  0  0
   14.1923   -0.5670    0.0000 C   0  0  0  0  0  0  0  0  0  0  0  0
   11.5942   -0.0670    0.0000 C   0  0  0  0  0  0  0  0  0  0  0  0
   11.5942    0.9330    0.0000 C   0  0  2  0  0  0  0  0  0  0  0  0
   10.7282    1.4330    0.0000 C   0  0  2  0  0  0  0  0  0  0  0  0
   11.5942   -2.0670    0.0000 C   0  0  0  0  0  0  0  0  0  0  0  0
   10.7282    2.4330    0.0000 C   0  0  0  0  0  0  0  0  0  0  0  0
   10.7282   -3.5670    0.0000 C   0  0  0  0  0  0  0  0  0  0  0  0
   15.9244   -1.5670    0.0000 C   0  0  0  0  0  0  0  0  0  0  0  0
   11.5942    2.9330    0.0000 C   0  0  0  0  0  0  0  0  0  0  0  0
    8.9962    1.4330    0.0000 C   0  0  0  0  0  0  0  0  0  0  0  0
    9.8622   -4.0670    0.0000 C   0  0  0  0  0  0  0  0  0  0  0  0
   11.2282   -4.4330    0.0000 C   0  0  0  0  0  0  0  0  0  0  0  0
   10.2282   -2.7010    0.0000 C   0  0  0  0  0  0  0  0  0  0  0  0
    8.1301    0.9330    0.0000 C   0  0  2  0  0  0  0  0  0  0  0  0
    8.1301   -0.0670    0.0000 C   0  0  0  0  0  0  0  0  0  0  0  0
   11.5942    3.9330    0.0000 C   0  0  0  0  0  0  0  0  0  0  0  0
   12.4603    2.4330    0.0000 C   0  0  0  0  0  0  0  0  0  0  0  0
   15.9244   -0.5670    0.0000 C   0  0  0  0  0  0  0  0  0  0  0  0
   16.7904   -2.0670    0.0000 C   0  0  0  0  0  0  0  0  0  0  0  0
    8.9962   -0.5670    0.0000 C   0  0  0  0  0  0  0  0  0  0  0  0
    7.2641   -0.5670    0.0000 C   0  0  0  0  0  0  0  0  0  0  0  0
   12.4603    4.4330    0.0000 C   0  0  0  0  0  0  0  0  0  0  0  0
   13.3263    2.9330    0.0000 C   0  0  0  0  0  0  0  0  0  0  0  0
   16.7904   -0.0670    0.0000 C   0  0  0  0  0  0  0  0  0  0  0  0
   17.6564   -1.5670    0.0000 C   0  0  0  0  0  0  0  0  0  0  0  0
   13.3263    3.9330    0.0000 C   0  0  0  0  0  0  0  0  0  0  0  0
    6.3981    0.9330    0.0000 C   0  0  0  0  0  0  0  0  0  0  0  0
    5.5321    1.4330    0.0000 C   0  0  0  0  0  0  0  0  0  0  0  0
    5.5321    2.4330    0.0000 C   0  0  0  0  0  0  0  0  0  0  0  0
    3.8000    1.4330    0.0000 C   0  0  0  0  0  0  0  0  0  0  0  0
    4.6660    2.9330    0.0000 C   0  0  0  0  0  0  0  0  0  0  0  0
    3.8000    2.4330    0.0000 C   0  0  0  0  0  0  0  0  0  0  0  0
    2.9061    0.8984    0.0000 C   0  0  0  0  0  0  0  0  0  0  0  0
    2.9061    2.9677    0.0000 C   0  0  0  0  0  0  0  0  0  0  0  0
    2.0000    1.4122    0.0000 C   0  0  0  0  0  0  0  0  0  0  0  0
    2.0000    2.4538    0.0000 C   0  0  0  0  0  0  0  0  0  0  0  0
   11.9233   -1.2570    0.0000 H   0  0  0  0  0  0  0  0  0  0  0  0
   12.9278   -2.5419    0.0000 H   0  0  0  0  0  0  0  0  0  0  0  0
   13.7248   -2.5419    0.0000 H   0  0  0  0  0  0  0  0  0  0  0  0
   14.1923   -2.1870    0.0000 H   0  0  0  0  0  0  0  0  0  0  0  0
   13.7248    0.4080    0.0000 H   0  0  0  0  0  0  0  0  0  0  0  0
   12.9278    0.4080    0.0000 H   0  0  0  0  0  0  0  0  0  0  0  0
   14.8029   -0.6746    0.0000 H   0  0  0  0  0  0  0  0  0  0  0  0
   14.4044    0.0156    0.0000 H   0  0  0  0  0  0  0  0  0  0  0  0
   10.9837    0.0407    0.0000 H   0  0  0  0  0  0  0  0  0  0  0  0
   11.3822   -0.6496    0.0000 H   0  0  0  0  0  0  0  0  0  0  0  0
   11.5942    1.5530    0.0000 H   0  0  0  0  0  0  0  0  0  0  0  0
   10.7282    0.8130    0.0000 H   0  0  0  0  0  0  0  0  0  0  0  0
   10.5162    3.0156    0.0000 H   0  0  0  0  0  0  0  0  0  0  0  0
   10.1176    2.3253    0.0000 H   0  0  0  0  0  0  0  0  0  0  0  0
   12.1312   -3.3770    0.0000 H   0  0  0  0  0  0  0  0  0  0  0  0
    9.8622    0.3130    0.0000 H   0  0  0  0  0  0  0  0  0  0  0  0
   12.9972    1.1230    0.0000 H   0  0  0  0  0  0  0  0  0  0  0  0
    9.5522   -3.5300    0.0000 H   0  0  0  0  0  0  0  0  0  0  0  0
    9.3252   -4.3770    0.0000 H   0  0  0  0  0  0  0  0  0  0  0  0
   10.1722   -4.6039    0.0000 H   0  0  0  0  0  0  0  0  0  0  0  0
   10.6913   -4.7430    0.0000 H   0  0  0  0  0  0  0  0  0  0  0  0
   11.5382   -4.9700    0.0000 H   0  0  0  0  0  0  0  0  0  0  0  0
   11.7651   -4.1230    0.0000 H   0  0  0  0  0  0  0  0  0  0  0  0
   10.7651   -2.3910    0.0000 H   0  0  0  0  0  0  0  0  0  0  0  0
    9.9182   -2.1640    0.0000 H   0  0  0  0  0  0  0  0  0  0  0  0
    9.6913   -3.0110    0.0000 H   0  0  0  0  0  0  0  0  0  0  0  0
    8.1301    1.5530    0.0000 H   0  0  0  0  0  0  0  0  0  0  0  0
    7.5932    0.2430    0.0000 H   0  0  0  0  0  0  0  0  0  0  0  0
   11.0573    4.2430    0.0000 H   0  0  0  0  0  0  0  0  0  0  0  0
   12.4603    1.8130    0.0000 H   0  0  0  0  0  0  0  0  0  0  0  0
   15.3874   -0.2570    0.0000 H   0  0  0  0  0  0  0  0  0  0  0  0
   16.7904   -2.6870    0.0000 H   0  0  0  0  0  0  0  0  0  0  0  0
    7.2641    2.0530    0.0000 H   0  0  0  0  0  0  0  0  0  0  0  0
    8.6862   -1.1039    0.0000 H   0  0  0  0  0  0  0  0  0  0  0  0
    9.5331   -0.8770    0.0000 H   0  0  0  0  0  0  0  0  0  0  0  0
    9.3062   -0.0301    0.0000 H   0  0  0  0  0  0  0  0  0  0  0  0
    6.9541   -0.0301    0.0000 H   0  0  0  0  0  0  0  0  0  0  0  0
    6.7272   -0.8770    0.0000 H   0  0  0  0  0  0  0  0  0  0  0  0
    7.5741   -1.1039    0.0000 H   0  0  0  0  0  0  0  0  0  0  0  0
   12.4603    5.0530    0.0000 H   0  0  0  0  0  0  0  0  0  0  0  0
   13.8632    2.6230    0.0000 H   0  0  0  0  0  0  0  0  0  0  0  0
   16.7904    0.5530    0.0000 H   0  0  0  0  0  0  0  0  0  0  0  0
   18.1934   -1.8770    0.0000 H   0  0  0  0  0  0  0  0  0  0  0  0
   13.8632    4.2430    0.0000 H   0  0  0  0  0  0  0  0  0  0  0  0
    6.0690    2.7430    0.0000 H   0  0  0  0  0  0  0  0  0  0  0  0
    4.6660    3.5530    0.0000 H   0  0  0  0  0  0  0  0  0  0  0  0
    2.9132    0.2784    0.0000 H   0  0  0  0  0  0  0  0  0  0  0  0
    2.9132    3.5876    0.0000 H   0  0  0  0  0  0  0  0  0  0  0  0
    1.4643    1.1001    0.0000 H   0  0  0  0  0  0  0  0  0  0  0  0
    1.4643    2.7659    0.0000 H   0  0  0  0  0  0  0  0  0  0  0  0
 14  1  1  1  0  0  0
  1 23  1  0  0  0  0
 18  2  1  6  0  0  0
  2 68  1  0  0  0  0
  3 20  2  0  0  0  0
  4 25  2  0  0  0  0
  5 42  2  0  0  0  0
  6 12  1  0  0  0  0
  6 15  1  0  0  0  0
  6 17  1  0  0  0  0
  7 20  1  0  0  0  0
  7 22  1  0  0  0  0
  7 66  1  0  0  0  0
 19  8  1  1  0  0  0
  8 25  1  0  0  0  0
  8 67  1  0  0  0  0
 29  9  1  6  0  0  0
  9 42  1  0  0  0  0
  9 84  1  0  0  0  0
 10 39  2  0  0  0  0
 10 40  1  0  0  0  0
 11 43  2  0  0  0  0
 11 45  1  0  0  0  0
 12 13  1  0  0  0  0
 12 20  1  1  0  0  0
 12 52  1  0  0  0  0
 13 14  1  0  0  0  0
 13 53  1  0  0  0  0
 13 54  1  0  0  0  0
 14 16  1  0  0  0  0
 14 55  1  0  0  0  0
 15 16  1  0  0  0  0
 15 56  1  0  0  0  0
 15 57  1  0  0  0  0
 16 58  1  0  0  0  0
 16 59  1  0  0  0  0
 17 18  1  0  0  0  0
 17 60  1  0  0  0  0
 17 61  1  0  0  0  0
 18 19  1  0  0  0  0
 18 62  1  0  0  0  0
 19 21  1  0  0  0  0
 19 63  1  0  0  0  0
 21 24  1  0  0  0  0
 21 64  1  0  0  0  0
 21 65  1  0  0  0  0
 22 26  1  0  0  0  0
 22 27  1  0  0  0  0
 22 28  1  0  0  0  0
 23 33  2  0  0  0  0
 23 34  1  0  0  0  0
 24 31  2  0  0  0  0
 24 32  1  0  0  0  0
 25 29  1  0  0  0  0
 26 69  1  0  0  0  0
 26 70  1  0  0  0  0
 26 71  1  0  0  0  0
 27 72  1  0  0  0  0
 27 73  1  0  0  0  0
 27 74  1  0  0  0  0
 28 75  1  0  0  0  0
 28 76  1  0  0  0  0
 28 77  1  0  0  0  0
 29 30  1  0  0  0  0
 29 78  1  0  0  0  0
 30 35  1  0  0  0  0
 30 36  1  0  0  0  0
 30 79  1  0  0  0  0
 31 37  1  0  0  0  0
 31 80  1  0  0  0  0
 32 38  2  0  0  0  0
 32 81  1  0  0  0  0
 33 39  1  0  0  0  0
 33 82  1  0  0  0  0
 34 40  2  0  0  0  0
 34 83  1  0  0  0  0
 35 85  1  0  0  0  0
 35 86  1  0  0  0  0
 35 87  1  0  0  0  0
 36 88  1  0  0  0  0
 36 89  1  0  0  0  0
 36 90  1  0  0  0  0
 37 41  2  0  0  0  0
 37 91  1  0  0  0  0
 38 41  1  0  0  0  0
 38 92  1  0  0  0  0
 39 93  1  0  0  0  0
 40 94  1  0  0  0  0
 41 95  1  0  0  0  0
 42 43  1  0  0  0  0
 43 44  1  0  0  0  0
 44 46  2  0  0  0  0
 44 96  1  0  0  0  0
 45 47  1  0  0  0  0
 45 48  2  0  0  0  0
 46 47  1  0  0  0  0
 46 97  1  0  0  0  0
 47 49  2  0  0  0  0
 48 50  1  0  0  0  0
 48 98  1  0  0  0  0
 49 51  1  0  0  0  0
 49 99  1  0  0  0  0
 50 51  2  0  0  0  0
 50100  1  0  0  0  0
 51101  1  0  0  0  0
M  END
> <PUBCHEM_COMPOUND_CID>
503208
> <PUBCHEM_COMPOUND_CANONICALIZED>
1
> <PUBCHEM_CACTVS_COMPLEXITY>
1120
> <PUBCHEM_CACTVS_HBOND_ACCEPTOR>
8
> <PUBCHEM_CACTVS_HBOND_DONOR>
4
> <PUBCHEM_CACTVS_ROTATABLE_BOND>
14
> <PUBCHEM_CACTVS_SUBSKEYS>
AAADcfB/uABAAAAAAAAAAAAAAAAAAAAAAAA8eLECAAAAAACx/AAAHgQQCAAADbzl3ga+wfPIEgioAzV3VACCgCA3CjAI2Lm4ZNgKcPLg1bGUYQxklgD4yYeYyKCOAAAAAAACAAAAAAAAAAQAAAAAAAAAAA==
> <PUBCHEM_IUPAC_OPENEYE_NAME>
N-[(1S)-1-[[(1S,2R)-1-benzyl-3-[(2S,4R)-2-(tert-butylcarbamoyl)-4-(4-pyridylsulfanyl)-1-piperidyl]-2-hydroxy-propyl]carbamoyl]-2-methyl-propyl]quinoline-2-carboxamide
> <PUBCHEM_IUPAC_CAS_NAME>
N-[(2S)-1-[[(2S,3R)-4-[(2S,4R)-2-[(tert-butylamino)-oxomethyl]-4-(pyridin-4-ylthio)-1-piperidinyl]-3-hydroxy-1-phenylbutan-2-yl]amino]-3-methyl-1-oxobutan-2-yl]-2-quinolinecarboxamide
> <PUBCHEM_IUPAC_NAME_MARKUP>
<I>N</I>-[(2<I>S</I>)-1-[[(2<I>S</I>,3<I>R</I>)-4-[(2<I>S</I>,4<I>R</I>)-2-(<I>tert</I>-butylcarbamoyl)-4-pyridin-4-ylsulfanylpiperidin-1-yl]-3-hydroxy-1-phenylbutan-2-yl]amino]-3-methyl-1-oxobutan-2-yl]quinoline-2-carboxamide
> <PUBCHEM_IUPAC_NAME>
N-[(2S)-1-[[(2S,3R)-4-[(2S,4R)-2-(tert-butylcarbamoyl)-4-pyridin-4-ylsulfanylpiperidin-1-yl]-3-hydroxy-1-phenylbutan-2-yl]amino]-3-methyl-1-oxobutan-2-yl]quinoline-2-carboxamide
> <PUBCHEM_IUPAC_SYSTEMATIC_NAME>
N-[(2S)-1-[[(2S,3R)-4-[(2S,4R)-2-(tert-butylcarbamoyl)-4-pyridin-4-ylsulfanyl-piperidin-1-yl]-3-oxidanyl-1-phenyl-butan-2-yl]amino]-3-methyl-1-oxidanylidene-butan-2-yl]quinoline-2-carboxamide
> <PUBCHEM_IUPAC_TRADITIONAL_NAME>
N-[(1S)-1-[[(1S,2R)-1-benzyl-3-[(2S,4R)-2-(tert-butylcarbamoyl)-4-(4-pyridylthio)piperidino]-2-hydroxy-propyl]carbamoyl]-2-methyl-propyl]quinaldamide
> <PUBCHEM_IUPAC_INCHI>
InChI=1S/C40H50N6O4S/c1-26(2)36(44-37(48)32-16-15-28-13-9-10-14-31(28)42-32)39(50)43-33(23-27-11-7-6-8-12-27)35(47)25-46-22-19-30(51-29-17-20-41-21-18-29)24-34(46)38(49)45-40(3,4)5/h6-18,20-21,26,30,33-36,47H,19,22-25H2,1-5H3,(H,43,50)(H,44,48)(H,45,49)/t30-,33+,34+,35-,36+/m1/s1
> <PUBCHEM_IUPAC_INCHIKEY>
JRQAECBGHZULGO-AIIVFDHXSA-N
> <PUBCHEM_XLOGP3_AA>
6
> <PUBCHEM_EXACT_MASS>
710.36142527
> <PUBCHEM_MOLECULAR_FORMULA>
C40H50N6O4S
> <PUBCHEM_MOLECULAR_WEIGHT>
710.9
> <PUBCHEM_OPENEYE_CAN_SMILES>
CC(C)C(C(=O)NC(CC1=CC=CC=C1)C(CN2CCC(CC2C(=O)NC(C)(C)C)SC3=CC=NC=C3)O)NC(=O)C4=NC5=CC=CC=C5C=C4
> <PUBCHEM_OPENEYE_ISO_SMILES>
CC(C)[C@@H](C(=O)N[C@@H](CC1=CC=CC=C1)[C@@H](CN2CC[C@H](C[C@H]2C(=O)NC(C)(C)C)SC3=CC=NC=C3)O)NC(=O)C4=NC5=CC=CC=C5C=C4
> <PUBCHEM_CACTVS_TPSA>
162
> <PUBCHEM_MONOISOTOPIC_WEIGHT>
710.36142527
> <PUBCHEM_TOTAL_CHARGE>
0
> <PUBCHEM_HEAVY_ATOM_COUNT>
51
> <PUBCHEM_ATOM_DEF_STEREO_COUNT>
5
> <PUBCHEM_ATOM_UDEF_STEREO_COUNT>
0
> <PUBCHEM_BOND_DEF_STEREO_COUNT>
0
> <PUBCHEM_BOND_UDEF_STEREO_COUNT>
0
> <PUBCHEM_ISOTOPIC_ATOM_COUNT>
0
> <PUBCHEM_COMPONENT_COUNT>
1
> <PUBCHEM_CACTVS_TAUTO_COUNT>
-1
> <PUBCHEM_COORDINATE_TYPE>
1
5
255
> <PUBCHEM_BONDANNOTATIONS>
14  1  5
10  39  8
10  40  8
11  43  8
11  45  8
12  20  5
18  2  6
23  33  8
23  34  8
24  31  8
24  32  8
31  37  8
32  38  8
33  39  8
34  40  8
37  41  8
38  41  8
43  44  8
44  46  8
45  47  8
45  48  8
46  47  8
47  49  8
48  50  8
49  51  8
50  51  8
19  8  5
29  9  6
$$$$
