503229
  -OEChem-10302200282D
103107  0     1  0  0  0  0  0999 V2000
    8.9962    4.2500    0.0000 O   0  0  0  0  0  0  0  0  0  0  0  0
   10.7282    0.2500    0.0000 O   0  0  0  0  0  0  0  0  0  0  0  0
    7.2641    0.2500    0.0000 O   0  0  0  0  0  0  0  0  0  0  0  0
    9.8622   -3.2500    0.0000 O   0  0  0  0  0  0  0  0  0  0  0  0
    9.8622   -4.2500    0.0000 O   0  0  0  0  0  0  0  0  0  0  0  0
    6.3981   -4.2500    0.0000 O   0  0  0  0  0  0  0  0  0  0  0  0
    8.9962    1.2500    0.0000 N   0  0  3  0  0  0  0  0  0  0  0  0
    6.3981    1.7500    0.0000 N   0  0  0  0  0  0  0  0  0  0  0  0
    8.9962   -1.7500    0.0000 N   0  0  0  0  0  0  0  0  0  0  0  0
    7.2641   -2.7500    0.0000 N   0  0  0  0  0  0  0  0  0  0  0  0
    8.9962   -5.7500    0.0000 N   0  0  0  0  0  0  0  0  0  0  0  0
    4.6660   -3.2500    0.0000 N   0  0  0  0  0  0  0  0  0  0  0  0
    8.1301    1.7500    0.0000 C   0  0  1  0  0  0  0  0  0  0  0  0
    8.1301    2.7500    0.0000 C   0  0  0  0  0  0  0  0  0  0  0  0
    8.9962    3.2500    0.0000 C   0  0  1  0  0  0  0  0  0  0  0  0
    9.8622    1.7500    0.0000 C   0  0  0  0  0  0  0  0  0  0  0  0
    9.8622    2.7500    0.0000 C   0  0  0  0  0  0  0  0  0  0  0  0
    8.9962    0.2500    0.0000 C   0  0  0  0  0  0  0  0  0  0  0  0
    9.8622   -0.2500    0.0000 C   0  0  2  0  0  0  0  0  0  0  0  0
    7.2641    1.2500    0.0000 C   0  0  0  0  0  0  0  0  0  0  0  0
    9.8622   -1.2500    0.0000 C   0  0  2  0  0  0  0  0  0  0  0  0
    5.5321    1.2500    0.0000 C   0  0  0  0  0  0  0  0  0  0  0  0
   10.7282   -1.7500    0.0000 C   0  0  0  0  0  0  0  0  0  0  0  0
    9.8622    4.7500    0.0000 C   0  0  0  0  0  0  0  0  0  0  0  0
   11.5942   -1.2500    0.0000 C   0  0  0  0  0  0  0  0  0  0  0  0
    4.6660    0.7500    0.0000 C   0  0  0  0  0  0  0  0  0  0  0  0
    5.0321    2.1160    0.0000 C   0  0  0  0  0  0  0  0  0  0  0  0
    6.0321    0.3840    0.0000 C   0  0  0  0  0  0  0  0  0  0  0  0
    8.9962   -2.7500    0.0000 C   0  0  0  0  0  0  0  0  0  0  0  0
    8.1301   -3.2500    0.0000 C   0  0  2  0  0  0  0  0  0  0  0  0
   10.7282    4.2500    0.0000 C   0  0  0  0  0  0  0  0  0  0  0  0
    9.8622    5.7500    0.0000 C   0  0  0  0  0  0  0  0  0  0  0  0
   12.4603   -1.7500    0.0000 C   0  0  0  0  0  0  0  0  0  0  0  0
   11.5942   -0.2500    0.0000 C   0  0  0  0  0  0  0  0  0  0  0  0
    8.1301   -4.2500    0.0000 C   0  0  0  0  0  0  0  0  0  0  0  0
   11.5942    4.7500    0.0000 C   0  0  0  0  0  0  0  0  0  0  0  0
   10.7282    6.2500    0.0000 C   0  0  0  0  0  0  0  0  0  0  0  0
   13.3263   -1.2500    0.0000 C   0  0  0  0  0  0  0  0  0  0  0  0
   12.4603    0.2500    0.0000 C   0  0  0  0  0  0  0  0  0  0  0  0
   11.5942    5.7500    0.0000 C   0  0  0  0  0  0  0  0  0  0  0  0
   13.3263   -0.2500    0.0000 C   0  0  0  0  0  0  0  0  0  0  0  0
    8.9962   -4.7500    0.0000 C   0  0  0  0  0  0  0  0  0  0  0  0
    6.3981   -3.2500    0.0000 C   0  0  0  0  0  0  0  0  0  0  0  0
    5.5321   -2.7500    0.0000 C   0  0  0  0  0  0  0  0  0  0  0  0
    9.8622   -6.2500    0.0000 C   0  0  0  0  0  0  0  0  0  0  0  0
    5.5321   -1.7500    0.0000 C   0  0  0  0  0  0  0  0  0  0  0  0
    3.8000   -2.7500    0.0000 C   0  0  0  0  0  0  0  0  0  0  0  0
    4.6660   -1.2500    0.0000 C   0  0  0  0  0  0  0  0  0  0  0  0
    3.8000   -1.7500    0.0000 C   0  0  0  0  0  0  0  0  0  0  0  0
    2.9061   -3.2847    0.0000 C   0  0  0  0  0  0  0  0  0  0  0  0
    2.9061   -1.2153    0.0000 C   0  0  0  0  0  0  0  0  0  0  0  0
    2.0000   -2.7708    0.0000 C   0  0  0  0  0  0  0  0  0  0  0  0
    2.0000   -1.7292    0.0000 C   0  0  0  0  0  0  0  0  0  0  0  0
    8.1301    1.1300    0.0000 H   0  0  0  0  0  0  0  0  0  0  0  0
    7.9181    3.3326    0.0000 H   0  0  0  0  0  0  0  0  0  0  0  0
    7.5196    2.6423    0.0000 H   0  0  0  0  0  0  0  0  0  0  0  0
    9.5331    3.5600    0.0000 H   0  0  0  0  0  0  0  0  0  0  0  0
   10.0742    1.1674    0.0000 H   0  0  0  0  0  0  0  0  0  0  0  0
   10.4728    1.8577    0.0000 H   0  0  0  0  0  0  0  0  0  0  0  0
   10.4728    2.6423    0.0000 H   0  0  0  0  0  0  0  0  0  0  0  0
   10.0742    3.3326    0.0000 H   0  0  0  0  0  0  0  0  0  0  0  0
    8.3856    0.3577    0.0000 H   0  0  0  0  0  0  0  0  0  0  0  0
    8.7841   -0.3326    0.0000 H   0  0  0  0  0  0  0  0  0  0  0  0
    9.8622    0.3700    0.0000 H   0  0  0  0  0  0  0  0  0  0  0  0
    9.3252   -0.9400    0.0000 H   0  0  0  0  0  0  0  0  0  0  0  0
    6.3981    2.3700    0.0000 H   0  0  0  0  0  0  0  0  0  0  0  0
   10.3297   -2.2250    0.0000 H   0  0  0  0  0  0  0  0  0  0  0  0
   11.1267   -2.2250    0.0000 H   0  0  0  0  0  0  0  0  0  0  0  0
    8.4592   -1.4400    0.0000 H   0  0  0  0  0  0  0  0  0  0  0  0
   10.7282    0.8700    0.0000 H   0  0  0  0  0  0  0  0  0  0  0  0
    4.3560    1.2869    0.0000 H   0  0  0  0  0  0  0  0  0  0  0  0
    4.1291    0.4400    0.0000 H   0  0  0  0  0  0  0  0  0  0  0  0
    4.9760    0.2131    0.0000 H   0  0  0  0  0  0  0  0  0  0  0  0
    5.5690    2.4260    0.0000 H   0  0  0  0  0  0  0  0  0  0  0  0
    4.7221    2.6530    0.0000 H   0  0  0  0  0  0  0  0  0  0  0  0
    4.4951    1.8060    0.0000 H   0  0  0  0  0  0  0  0  0  0  0  0
    5.4951    0.0740    0.0000 H   0  0  0  0  0  0  0  0  0  0  0  0
    6.3421   -0.1530    0.0000 H   0  0  0  0  0  0  0  0  0  0  0  0
    6.5690    0.6940    0.0000 H   0  0  0  0  0  0  0  0  0  0  0  0
    7.5932   -3.5600    0.0000 H   0  0  0  0  0  0  0  0  0  0  0  0
   10.7282    3.6300    0.0000 H   0  0  0  0  0  0  0  0  0  0  0  0
    9.3252    6.0600    0.0000 H   0  0  0  0  0  0  0  0  0  0  0  0
   12.4603   -2.3700    0.0000 H   0  0  0  0  0  0  0  0  0  0  0  0
   11.0573    0.0600    0.0000 H   0  0  0  0  0  0  0  0  0  0  0  0
    7.5196   -4.1423    0.0000 H   0  0  0  0  0  0  0  0  0  0  0  0
    7.9181   -4.8326    0.0000 H   0  0  0  0  0  0  0  0  0  0  0  0
    7.2641   -2.1300    0.0000 H   0  0  0  0  0  0  0  0  0  0  0  0
   12.1312    4.4400    0.0000 H   0  0  0  0  0  0  0  0  0  0  0  0
   10.7282    6.8700    0.0000 H   0  0  0  0  0  0  0  0  0  0  0  0
   13.8632   -1.5600    0.0000 H   0  0  0  0  0  0  0  0  0  0  0  0
   12.4603    0.8700    0.0000 H   0  0  0  0  0  0  0  0  0  0  0  0
   12.1312    6.0600    0.0000 H   0  0  0  0  0  0  0  0  0  0  0  0
   13.8632    0.0600    0.0000 H   0  0  0  0  0  0  0  0  0  0  0  0
    8.4592   -6.0600    0.0000 H   0  0  0  0  0  0  0  0  0  0  0  0
    9.5522   -6.7869    0.0000 H   0  0  0  0  0  0  0  0  0  0  0  0
   10.3991   -6.5600    0.0000 H   0  0  0  0  0  0  0  0  0  0  0  0
   10.1722   -5.7131    0.0000 H   0  0  0  0  0  0  0  0  0  0  0  0
    6.0690   -1.4400    0.0000 H   0  0  0  0  0  0  0  0  0  0  0  0
    4.6660   -0.6300    0.0000 H   0  0  0  0  0  0  0  0  0  0  0  0
    2.9132   -3.9046    0.0000 H   0  0  0  0  0  0  0  0  0  0  0  0
    2.9132   -0.5954    0.0000 H   0  0  0  0  0  0  0  0  0  0  0  0
    1.4643   -3.0829    0.0000 H   0  0  0  0  0  0  0  0  0  0  0  0
    1.4643   -1.4171    0.0000 H   0  0  0  0  0  0  0  0  0  0  0  0
 15  1  1  6  0  0  0
  1 24  1  0  0  0  0
 19  2  1  1  0  0  0
  2 70  1  0  0  0  0
  3 20  2  0  0  0  0
  4 29  2  0  0  0  0
  5 42  2  0  0  0  0
  6 43  2  0  0  0  0
  7 13  1  0  0  0  0
  7 16  1  0  0  0  0
  7 18  1  0  0  0  0
  8 20  1  0  0  0  0
  8 22  1  0  0  0  0
  8 66  1  0  0  0  0
 21  9  1  6  0  0  0
  9 29  1  0  0  0  0
  9 69  1  0  0  0  0
 30 10  1  6  0  0  0
 10 43  1  0  0  0  0
 10 87  1  0  0  0  0
 11 42  1  0  0  0  0
 11 45  1  0  0  0  0
 11 94  1  0  0  0  0
 12 44  2  0  0  0  0
 12 47  1  0  0  0  0
 13 14  1  0  0  0  0
 13 20  1  6  0  0  0
 13 54  1  0  0  0  0
 14 15  1  0  0  0  0
 14 55  1  0  0  0  0
 14 56  1  0  0  0  0
 15 17  1  0  0  0  0
 15 57  1  0  0  0  0
 16 17  1  0  0  0  0
 16 58  1  0  0  0  0
 16 59  1  0  0  0  0
 17 60  1  0  0  0  0
 17 61  1  0  0  0  0
 18 19  1  0  0  0  0
 18 62  1  0  0  0  0
 18 63  1  0  0  0  0
 19 21  1  0  0  0  0
 19 64  1  0  0  0  0
 21 23  1  0  0  0  0
 21 65  1  0  0  0  0
 22 26  1  0  0  0  0
 22 27  1  0  0  0  0
 22 28  1  0  0  0  0
 23 25  1  0  0  0  0
 23 67  1  0  0  0  0
 23 68  1  0  0  0  0
 24 31  2  0  0  0  0
 24 32  1  0  0  0  0
 25 33  2  0  0  0  0
 25 34  1  0  0  0  0
 26 71  1  0  0  0  0
 26 72  1  0  0  0  0
 26 73  1  0  0  0  0
 27 74  1  0  0  0  0
 27 75  1  0  0  0  0
 27 76  1  0  0  0  0
 28 77  1  0  0  0  0
 28 78  1  0  0  0  0
 28 79  1  0  0  0  0
 29 30  1  0  0  0  0
 30 35  1  0  0  0  0
 30 80  1  0  0  0  0
 31 36  1  0  0  0  0
 31 81  1  0  0  0  0
 32 37  2  0  0  0  0
 32 82  1  0  0  0  0
 33 38  1  0  0  0  0
 33 83  1  0  0  0  0
 34 39  2  0  0  0  0
 34 84  1  0  0  0  0
 35 42  1  0  0  0  0
 35 85  1  0  0  0  0
 35 86  1  0  0  0  0
 36 40  2  0  0  0  0
 36 88  1  0  0  0  0
 37 40  1  0  0  0  0
 37 89  1  0  0  0  0
 38 41  2  0  0  0  0
 38 90  1  0  0  0  0
 39 41  1  0  0  0  0
 39 91  1  0  0  0  0
 40 92  1  0  0  0  0
 41 93  1  0  0  0  0
 43 44  1  0  0  0  0
 44 46  1  0  0  0  0
 45 95  1  0  0  0  0
 45 96  1  0  0  0  0
 45 97  1  0  0  0  0
 46 48  2  0  0  0  0
 46 98  1  0  0  0  0
 47 49  1  0  0  0  0
 47 50  2  0  0  0  0
 48 49  1  0  0  0  0
 48 99  1  0  0  0  0
 49 51  2  0  0  0  0
 50 52  1  0  0  0  0
 50100  1  0  0  0  0
 51 53  1  0  0  0  0
 51101  1  0  0  0  0
 52 53  2  0  0  0  0
 52102  1  0  0  0  0
 53103  1  0  0  0  0
M  END
> <PUBCHEM_COMPOUND_CID>
503229
> <PUBCHEM_COMPOUND_CANONICALIZED>
1
> <PUBCHEM_CACTVS_COMPLEXITY>
1200
> <PUBCHEM_CACTVS_HBOND_ACCEPTOR>
8
> <PUBCHEM_CACTVS_HBOND_DONOR>
5
> <PUBCHEM_CACTVS_ROTATABLE_BOND>
15
> <PUBCHEM_CACTVS_SUBSKEYS>
AAADcfB/uAAAAAAAAAAAAAAAAAAAAAAAAAA8eMECAAAAAACx9AAAHgAQCAAADLzhngYyxvPIFgCoAyVyVACCiCAnIiAImKG+bNgOdvrE9buWeSjm1hHY6Ye/yKCOAAAAAAACAAAAAAAAAAQAAAAAAAAAAA==
> <PUBCHEM_IUPAC_OPENEYE_NAME>
(2S)-N-[(1S,2R)-1-benzyl-3-[(2S,4R)-2-(tert-butylcarbamoyl)-4-phenoxy-1-piperidyl]-2-hydroxy-propyl]-N'-methyl-2-(quinoline-2-carbonylamino)butanediamide
> <PUBCHEM_IUPAC_CAS_NAME>
(2S)-N-[(2S,3R)-4-[(2S,4R)-2-[(tert-butylamino)-oxomethyl]-4-phenoxy-1-piperidinyl]-3-hydroxy-1-phenylbutan-2-yl]-N'-methyl-2-[[oxo(2-quinolinyl)methyl]amino]butanediamide
> <PUBCHEM_IUPAC_NAME_MARKUP>
(2<I>S</I>)-<I>N</I>-[(2<I>S</I>,3<I>R</I>)-4-[(2<I>S</I>,4<I>R</I>)-2-(<I>tert</I>-butylcarbamoyl)-4-phenoxypiperidin-1-yl]-3-hydroxy-1-phenylbutan-2-yl]-<I>N</I>&apos;-methyl-2-(quinoline-2-carbonylamino)butanediamide
> <PUBCHEM_IUPAC_NAME>
(2S)-N-[(2S,3R)-4-[(2S,4R)-2-(tert-butylcarbamoyl)-4-phenoxypiperidin-1-yl]-3-hydroxy-1-phenylbutan-2-yl]-N'-methyl-2-(quinoline-2-carbonylamino)butanediamide
> <PUBCHEM_IUPAC_SYSTEMATIC_NAME>
(2S)-N-[(2S,3R)-4-[(2S,4R)-2-(tert-butylcarbamoyl)-4-phenoxy-piperidin-1-yl]-3-oxidanyl-1-phenyl-butan-2-yl]-N'-methyl-2-(quinolin-2-ylcarbonylamino)butanediamide
> <PUBCHEM_IUPAC_TRADITIONAL_NAME>
(2S)-N-[(1S,2R)-1-benzyl-3-[(2S,4R)-2-(tert-butylcarbamoyl)-4-phenoxy-piperidino]-2-hydroxy-propyl]-N'-methyl-2-(quinaldoylamino)succinamide
> <PUBCHEM_IUPAC_INCHI>
InChI=1S/C41H50N6O6/c1-41(2,3)46-40(52)35-24-30(53-29-16-9-6-10-17-29)21-22-47(35)26-36(48)33(23-27-13-7-5-8-14-27)44-39(51)34(25-37(49)42-4)45-38(50)32-20-19-28-15-11-12-18-31(28)43-32/h5-20,30,33-36,48H,21-26H2,1-4H3,(H,42,49)(H,44,51)(H,45,50)(H,46,52)/t30-,33+,34+,35+,36-/m1/s1
> <PUBCHEM_IUPAC_INCHIKEY>
GTAUWDBKOCBUJS-FBBBETDXSA-N
> <PUBCHEM_XLOGP3_AA>
4.5
> <PUBCHEM_EXACT_MASS>
722.37918334
> <PUBCHEM_MOLECULAR_FORMULA>
C41H50N6O6
> <PUBCHEM_MOLECULAR_WEIGHT>
722.9
> <PUBCHEM_OPENEYE_CAN_SMILES>
CC(C)(C)NC(=O)C1CC(CCN1CC(C(CC2=CC=CC=C2)NC(=O)C(CC(=O)NC)NC(=O)C3=NC4=CC=CC=C4C=C3)O)OC5=CC=CC=C5
> <PUBCHEM_OPENEYE_ISO_SMILES>
CC(C)(C)NC(=O)[C@@H]1C[C@@H](CCN1C[C@H]([C@H](CC2=CC=CC=C2)NC(=O)[C@H](CC(=O)NC)NC(=O)C3=NC4=CC=CC=C4C=C3)O)OC5=CC=CC=C5
> <PUBCHEM_CACTVS_TPSA>
162
> <PUBCHEM_MONOISOTOPIC_WEIGHT>
722.37918334
> <PUBCHEM_TOTAL_CHARGE>
0
> <PUBCHEM_HEAVY_ATOM_COUNT>
53
> <PUBCHEM_ATOM_DEF_STEREO_COUNT>
5
> <PUBCHEM_ATOM_UDEF_STEREO_COUNT>
0
> <PUBCHEM_BOND_DEF_STEREO_COUNT>
0
> <PUBCHEM_BOND_UDEF_STEREO_COUNT>
0
> <PUBCHEM_ISOTOPIC_ATOM_COUNT>
0
> <PUBCHEM_COMPONENT_COUNT>
1
> <PUBCHEM_CACTVS_TAUTO_COUNT>
-1
> <PUBCHEM_COORDINATE_TYPE>
1
5
255
> <PUBCHEM_BONDANNOTATIONS>
15  1  6
30  10  6
12  44  8
12  47  8
13  20  6
19  2  5
24  31  8
24  32  8
25  33  8
25  34  8
31  36  8
32  37  8
33  38  8
34  39  8
36  40  8
37  40  8
38  41  8
39  41  8
44  46  8
46  48  8
47  49  8
47  50  8
48  49  8
49  51  8
50  52  8
51  53  8
52  53  8
21  9  6
$$$$
