503261
  -OEChem-10302200282D
 45 45  0     1  0  0  0  0  0999 V2000
    5.7739    2.4230    0.0000 O   0  0  0  0  0  0  0  0  0  0  0  0
    7.1752    1.4049    0.0000 O   0  0  0  0  0  0  0  0  0  0  0  0
    2.5896    0.1095    0.0000 O   0  0  0  0  0  0  0  0  0  0  0  0
    3.1249   -1.5378    0.0000 O   0  0  0  0  0  0  0  0  0  0  0  0
    8.7551   -1.1777    0.0000 O   0  0  0  0  0  0  0  0  0  0  0  0
    5.0929   -0.8384    0.0000 N   0  0  0  0  0  0  0  0  0  0  0  0
    7.5961    0.1095    0.0000 N   0  0  0  0  0  0  0  0  0  0  0  0
    5.9019   -0.2506    0.0000 C   0  0  3  0  0  0  0  0  0  0  0  0
    5.5929    0.7004    0.0000 C   0  0  3  0  0  0  0  0  0  0  0  0
    6.8530   -0.5597    0.0000 C   0  0  3  0  0  0  0  0  0  0  0  0
    4.5929    0.7004    0.0000 C   0  0  0  0  0  0  0  0  0  0  0  0
    4.2839   -0.2506    0.0000 C   0  0  3  0  0  0  0  0  0  0  0  0
    7.0609   -1.5378    0.0000 C   0  0  0  0  0  0  0  0  0  0  0  0
    6.7518   -2.4889    0.0000 C   0  0  0  0  0  0  0  0  0  0  0  0
    6.1807    1.5094    0.0000 C   0  0  0  0  0  0  0  0  0  0  0  0
    3.3328   -0.5597    0.0000 C   0  0  0  0  0  0  0  0  0  0  0  0
    7.4210   -3.2320    0.0000 C   0  0  0  0  0  0  0  0  0  0  0  0
    5.7736   -2.6967    0.0000 C   0  0  0  0  0  0  0  0  0  0  0  0
    8.5472   -0.1995    0.0000 C   0  0  0  0  0  0  0  0  0  0  0  0
    9.2903    0.4696    0.0000 C   0  0  0  0  0  0  0  0  0  0  0  0
    6.3617    3.2320    0.0000 C   0  0  0  0  0  0  0  0  0  0  0  0
    5.9989   -0.8630    0.0000 H   0  0  0  0  0  0  0  0  0  0  0  0
    6.2052    0.6034    0.0000 H   0  0  0  0  0  0  0  0  0  0  0  0
    6.7240    0.0468    0.0000 H   0  0  0  0  0  0  0  0  0  0  0  0
    4.6577    1.3170    0.0000 H   0  0  0  0  0  0  0  0  0  0  0  0
    3.9864    0.8293    0.0000 H   0  0  0  0  0  0  0  0  0  0  0  0
    4.1869   -0.8630    0.0000 H   0  0  0  0  0  0  0  0  0  0  0  0
    4.7830   -1.3754    0.0000 H   0  0  0  0  0  0  0  0  0  0  0  0
    7.5494   -1.9195    0.0000 H   0  0  0  0  0  0  0  0  0  0  0  0
    6.4417   -1.5054    0.0000 H   0  0  0  0  0  0  0  0  0  0  0  0
    6.5602   -3.0785    0.0000 H   0  0  0  0  0  0  0  0  0  0  0  0
    7.4672    0.7159    0.0000 H   0  0  0  0  0  0  0  0  0  0  0  0
    6.9603   -3.6469    0.0000 H   0  0  0  0  0  0  0  0  0  0  0  0
    7.8359   -3.6927    0.0000 H   0  0  0  0  0  0  0  0  0  0  0  0
    7.8818   -2.8171    0.0000 H   0  0  0  0  0  0  0  0  0  0  0  0
    5.6448   -2.0903    0.0000 H   0  0  0  0  0  0  0  0  0  0  0  0
    5.1672   -2.8256    0.0000 H   0  0  0  0  0  0  0  0  0  0  0  0
    5.9025   -3.3032    0.0000 H   0  0  0  0  0  0  0  0  0  0  0  0
    2.0000   -0.0821    0.0000 H   0  0  0  0  0  0  0  0  0  0  0  0
    9.7052    0.0088    0.0000 H   0  0  0  0  0  0  0  0  0  0  0  0
    9.7510    0.8844    0.0000 H   0  0  0  0  0  0  0  0  0  0  0  0
    8.8754    0.9303    0.0000 H   0  0  0  0  0  0  0  0  0  0  0  0
    6.8633    2.8676    0.0000 H   0  0  0  0  0  0  0  0  0  0  0  0
    6.7261    3.7336    0.0000 H   0  0  0  0  0  0  0  0  0  0  0  0
    5.8601    3.5964    0.0000 H   0  0  0  0  0  0  0  0  0  0  0  0
  1 15  1  0  0  0  0
  1 21  1  0  0  0  0
  2 15  2  0  0  0  0
  3 16  1  0  0  0  0
  3 39  1  0  0  0  0
  4 16  2  0  0  0  0
  5 19  2  0  0  0  0
  6  8  1  0  0  0  0
  6 12  1  0  0  0  0
  6 28  1  0  0  0  0
  7 10  1  0  0  0  0
  7 19  1  0  0  0  0
  7 32  1  0  0  0  0
  8  9  1  0  0  0  0
  8 10  1  0  0  0  0
  8 22  1  0  0  0  0
  9 11  1  0  0  0  0
  9 15  1  0  0  0  0
  9 23  1  0  0  0  0
 10 13  1  0  0  0  0
 10 24  1  0  0  0  0
 11 12  1  0  0  0  0
 11 25  1  0  0  0  0
 11 26  1  0  0  0  0
 12 16  1  0  0  0  0
 12 27  1  0  0  0  0
 13 14  1  0  0  0  0
 13 29  1  0  0  0  0
 13 30  1  0  0  0  0
 14 17  1  0  0  0  0
 14 18  1  0  0  0  0
 14 31  1  0  0  0  0
 17 33  1  0  0  0  0
 17 34  1  0  0  0  0
 17 35  1  0  0  0  0
 18 36  1  0  0  0  0
 18 37  1  0  0  0  0
 18 38  1  0  0  0  0
 19 20  1  0  0  0  0
 20 40  1  0  0  0  0
 20 41  1  0  0  0  0
 20 42  1  0  0  0  0
 21 43  1  0  0  0  0
 21 44  1  0  0  0  0
 21 45  1  0  0  0  0
M  END
> <PUBCHEM_COMPOUND_CID>
503261
> <PUBCHEM_COMPOUND_CANONICALIZED>
1
> <PUBCHEM_CACTVS_COMPLEXITY>
410
> <PUBCHEM_CACTVS_HBOND_ACCEPTOR>
6
> <PUBCHEM_CACTVS_HBOND_DONOR>
3
> <PUBCHEM_CACTVS_ROTATABLE_BOND>
7
> <PUBCHEM_CACTVS_SUBSKEYS>
AAADceBzOAAAAAAAAAAAAAAAAAAAAWAAAAAAAAAAAAAAAAAAAAAAHgAQCAAADSjBgAYCCALABgAIAAGQGAAAAAAAAAAAAIGIAAACQBoAgCAUQAAGFgCQAAG8/+meAAAAAAAAAAAAAAAAAAAAAAAAAAAAAA==
> <PUBCHEM_IUPAC_OPENEYE_NAME>
5-(1-acetamido-3-methyl-butyl)-4-methoxycarbonyl-pyrrolidine-2-carboxylic acid
> <PUBCHEM_IUPAC_CAS_NAME>
5-(1-acetamido-3-methylbutyl)-4-methoxycarbonyl-2-pyrrolidinecarboxylic acid
> <PUBCHEM_IUPAC_NAME_MARKUP>
5-(1-acetamido-3-methylbutyl)-4-methoxycarbonylpyrrolidine-2-carboxylic acid
> <PUBCHEM_IUPAC_NAME>
5-(1-acetamido-3-methylbutyl)-4-methoxycarbonylpyrrolidine-2-carboxylic acid
> <PUBCHEM_IUPAC_SYSTEMATIC_NAME>
5-(1-acetamido-3-methyl-butyl)-4-methoxycarbonyl-pyrrolidine-2-carboxylic acid
> <PUBCHEM_IUPAC_TRADITIONAL_NAME>
5-(1-acetamido-3-methyl-butyl)-4-carbomethoxy-proline
> <PUBCHEM_IUPAC_INCHI>
InChI=1S/C14H24N2O5/c1-7(2)5-10(15-8(3)17)12-9(14(20)21-4)6-11(16-12)13(18)19/h7,9-12,16H,5-6H2,1-4H3,(H,15,17)(H,18,19)
> <PUBCHEM_IUPAC_INCHIKEY>
OXAVBPLKPVSWSQ-UHFFFAOYSA-N
> <PUBCHEM_XLOGP3_AA>
-1.7
> <PUBCHEM_EXACT_MASS>
300.16852187
> <PUBCHEM_MOLECULAR_FORMULA>
C14H24N2O5
> <PUBCHEM_MOLECULAR_WEIGHT>
300.35
> <PUBCHEM_OPENEYE_CAN_SMILES>
CC(C)CC(C1C(CC(N1)C(=O)O)C(=O)OC)NC(=O)C
> <PUBCHEM_OPENEYE_ISO_SMILES>
CC(C)CC(C1C(CC(N1)C(=O)O)C(=O)OC)NC(=O)C
> <PUBCHEM_CACTVS_TPSA>
105
> <PUBCHEM_MONOISOTOPIC_WEIGHT>
300.16852187
> <PUBCHEM_TOTAL_CHARGE>
0
> <PUBCHEM_HEAVY_ATOM_COUNT>
21
> <PUBCHEM_ATOM_DEF_STEREO_COUNT>
0
> <PUBCHEM_ATOM_UDEF_STEREO_COUNT>
4
> <PUBCHEM_BOND_DEF_STEREO_COUNT>
0
> <PUBCHEM_BOND_UDEF_STEREO_COUNT>
0
> <PUBCHEM_ISOTOPIC_ATOM_COUNT>
0
> <PUBCHEM_COMPONENT_COUNT>
1
> <PUBCHEM_CACTVS_TAUTO_COUNT>
-1
> <PUBCHEM_COORDINATE_TYPE>
1
5
255
> <PUBCHEM_BONDANNOTATIONS>
10  13  3
12  16  3
8  6  3
9  15  3
$$$$
