503265
  -OEChem-10302200282D
 37 37  0     1  0  0  0  0  0999 V2000
    6.3301    0.8100    0.0000 O   0  0  0  0  0  0  0  0  0  0  0  0
    3.7320    2.3100    0.0000 O   0  0  0  0  0  0  0  0  0  0  0  0
    7.1962   -0.6900    0.0000 O   0  0  0  0  0  0  0  0  0  0  0  0
    7.1962   -2.6900    0.0000 O   0  0  0  0  0  0  0  0  0  0  0  0
    2.8660    1.8100    0.0000 O   0  0  0  0  0  0  0  0  0  0  0  0
    7.1962    3.3100    0.0000 O   0  5  0  0  0  0  0  0  0  0  0  0
    8.0622    1.8100    0.0000 O   0  0  0  0  0  0  0  0  0  0  0  0
    3.7320    0.3100    0.0000 N   0  0  0  0  0  0  0  0  0  0  0  0
    4.5981   -1.1900    0.0000 N   0  0  0  0  0  0  0  0  0  0  0  0
    5.4641    0.3100    0.0000 C   0  0  2  0  0  0  0  0  0  0  0  0
    4.5981    0.8100    0.0000 C   0  0  1  0  0  0  0  0  0  0  0  0
    5.4641   -0.6900    0.0000 C   0  0  1  0  0  0  0  0  0  0  0  0
    4.5981    1.8100    0.0000 C   0  0  2  0  0  0  0  0  0  0  0  0
    6.3301   -1.1900    0.0000 C   0  0  1  0  0  0  0  0  0  0  0  0
    5.4641    2.3100    0.0000 C   0  0  0  0  0  0  0  0  0  0  0  0
    6.3301    1.8100    0.0000 C   0  0  0  0  0  0  0  0  0  0  0  0
    6.3301   -2.1900    0.0000 C   0  0  0  0  0  0  0  0  0  0  0  0
    2.8660    0.8100    0.0000 C   0  0  0  0  0  0  0  0  0  0  0  0
    7.1962    2.3100    0.0000 C   0  0  0  0  0  0  0  0  0  0  0  0
    2.0000    0.3100    0.0000 C   0  0  0  0  0  0  0  0  0  0  0  0
    6.2002   -0.1150    0.0000 H   0  0  0  0  0  0  0  0  0  0  0  0
    4.5981    0.1900    0.0000 H   0  0  0  0  0  0  0  0  0  0  0  0
    4.9272   -0.3800    0.0000 H   0  0  0  0  0  0  0  0  0  0  0  0
    4.5981    2.4300    0.0000 H   0  0  0  0  0  0  0  0  0  0  0  0
    6.8671   -1.5000    0.0000 H   0  0  0  0  0  0  0  0  0  0  0  0
    3.7320   -0.3100    0.0000 H   0  0  0  0  0  0  0  0  0  0  0  0
    5.4641    2.9300    0.0000 H   0  0  0  0  0  0  0  0  0  0  0  0
    4.5981   -1.8100    0.0000 H   0  0  0  0  0  0  0  0  0  0  0  0
    4.0611   -0.8800    0.0000 H   0  0  0  0  0  0  0  0  0  0  0  0
    5.7196   -2.0823    0.0000 H   0  0  0  0  0  0  0  0  0  0  0  0
    6.1181   -2.7726    0.0000 H   0  0  0  0  0  0  0  0  0  0  0  0
    3.7320    2.9300    0.0000 H   0  0  0  0  0  0  0  0  0  0  0  0
    7.7331   -1.0000    0.0000 H   0  0  0  0  0  0  0  0  0  0  0  0
    1.6900    0.8469    0.0000 H   0  0  0  0  0  0  0  0  0  0  0  0
    1.4631    0.0000    0.0000 H   0  0  0  0  0  0  0  0  0  0  0  0
    2.3100   -0.2269    0.0000 H   0  0  0  0  0  0  0  0  0  0  0  0
    7.1962   -3.3100    0.0000 H   0  0  0  0  0  0  0  0  0  0  0  0
  1 10  1  0  0  0  0
  1 16  1  0  0  0  0
 13  2  1  1  0  0  0
  2 32  1  0  0  0  0
 14  3  1  6  0  0  0
  3 33  1  0  0  0  0
  4 17  1  0  0  0  0
  4 37  1  0  0  0  0
  5 18  2  0  0  0  0
  6 19  1  0  0  0  0
  7 19  2  0  0  0  0
 11  8  1  6  0  0  0
  8 18  1  0  0  0  0
  8 26  1  0  0  0  0
 12  9  1  1  0  0  0
  9 28  1  0  0  0  0
  9 29  1  0  0  0  0
 10 11  1  0  0  0  0
 10 12  1  0  0  0  0
 10 21  1  6  0  0  0
 11 13  1  0  0  0  0
 11 22  1  0  0  0  0
 12 14  1  0  0  0  0
 12 23  1  0  0  0  0
 13 15  1  0  0  0  0
 13 24  1  0  0  0  0
 14 17  1  0  0  0  0
 14 25  1  0  0  0  0
 15 16  2  0  0  0  0
 15 27  1  0  0  0  0
 16 19  1  0  0  0  0
 17 30  1  0  0  0  0
 17 31  1  0  0  0  0
 18 20  1  0  0  0  0
 20 34  1  0  0  0  0
 20 35  1  0  0  0  0
 20 36  1  0  0  0  0
M  CHG  1   6  -1
M  END
> <PUBCHEM_COMPOUND_CID>
503265
> <PUBCHEM_COMPOUND_CANONICALIZED>
1
> <PUBCHEM_CACTVS_COMPLEXITY>
406
> <PUBCHEM_CACTVS_HBOND_ACCEPTOR>
8
> <PUBCHEM_CACTVS_HBOND_DONOR>
5
> <PUBCHEM_CACTVS_ROTATABLE_BOND>
4
> <PUBCHEM_CACTVS_SUBSKEYS>
AAADceBzOAAAAAAAAAAAAAAAAAAAAAAAAAAgAAAAAAAAAAAAAAAAHgAQCAAACDzhgAYCCALABgCIACHSGAIACAAgIAAACIBIAEgDFAIAwAQHUAAHlgCbEYPw8CcAAAAAAAAAAAAAAAAAAAAAAAAAAAAAAA==
> <PUBCHEM_IUPAC_OPENEYE_NAME>
(2S,3R,4S)-3-acetamido-2-[(1R,2S)-1-amino-2,3-dihydroxy-propyl]-4-hydroxy-3,4-dihydro-2H-pyran-6-carboxylate
> <PUBCHEM_IUPAC_CAS_NAME>
(2S,3R,4S)-3-acetamido-2-[(1R,2S)-1-amino-2,3-dihydroxypropyl]-4-hydroxy-3,4-dihydro-2H-pyran-6-carboxylate
> <PUBCHEM_IUPAC_NAME_MARKUP>
(2<I>S</I>,3<I>R</I>,4<I>S</I>)-3-acetamido-2-[(1<I>R</I>,2<I>S</I>)-1-amino-2,3-dihydroxypropyl]-4-hydroxy-3,4-dihydro-2<I>H</I>-pyran-6-carboxylate
> <PUBCHEM_IUPAC_NAME>
(2S,3R,4S)-3-acetamido-2-[(1R,2S)-1-amino-2,3-dihydroxypropyl]-4-hydroxy-3,4-dihydro-2H-pyran-6-carboxylate
> <PUBCHEM_IUPAC_SYSTEMATIC_NAME>
(2S,3R,4S)-3-acetamido-2-[(1R,2S)-1-azanyl-2,3-bis(oxidanyl)propyl]-4-oxidanyl-3,4-dihydro-2H-pyran-6-carboxylate
> <PUBCHEM_IUPAC_TRADITIONAL_NAME>
(2S,3R,4S)-3-acetamido-2-[(1R,2S)-1-amino-2,3-dihydroxy-propyl]-4-hydroxy-3,4-dihydro-2H-pyran-6-carboxylate
> <PUBCHEM_IUPAC_INCHI>
InChI=1S/C11H18N2O7/c1-4(15)13-9-5(16)2-7(11(18)19)20-10(9)8(12)6(17)3-14/h2,5-6,8-10,14,16-17H,3,12H2,1H3,(H,13,15)(H,18,19)/p-1/t5-,6+,8+,9+,10-/m0/s1
> <PUBCHEM_IUPAC_INCHIKEY>
PQUVNWVCMJHBFC-LUTUWXHWSA-M
> <PUBCHEM_XLOGP3_AA>
-4.4
> <PUBCHEM_EXACT_MASS>
289.10357589
> <PUBCHEM_MOLECULAR_FORMULA>
C11H17N2O7-
> <PUBCHEM_MOLECULAR_WEIGHT>
289.26
> <PUBCHEM_OPENEYE_CAN_SMILES>
CC(=O)NC1C(C=C(OC1C(C(CO)O)N)C(=O)[O-])O
> <PUBCHEM_OPENEYE_ISO_SMILES>
CC(=O)N[C@@H]1[C@H](C=C(O[C@H]1[C@@H]([C@@H](CO)O)N)C(=O)[O-])O
> <PUBCHEM_CACTVS_TPSA>
165
> <PUBCHEM_MONOISOTOPIC_WEIGHT>
289.10357589
> <PUBCHEM_TOTAL_CHARGE>
-1
> <PUBCHEM_HEAVY_ATOM_COUNT>
20
> <PUBCHEM_ATOM_DEF_STEREO_COUNT>
5
> <PUBCHEM_ATOM_UDEF_STEREO_COUNT>
0
> <PUBCHEM_BOND_DEF_STEREO_COUNT>
0
> <PUBCHEM_BOND_UDEF_STEREO_COUNT>
0
> <PUBCHEM_ISOTOPIC_ATOM_COUNT>
0
> <PUBCHEM_COMPONENT_COUNT>
1
> <PUBCHEM_CACTVS_TAUTO_COUNT>
-1
> <PUBCHEM_COORDINATE_TYPE>
1
5
255
> <PUBCHEM_BONDANNOTATIONS>
10  21  6
13  2  5
14  3  6
11  8  6
12  9  5
$$$$
