503252
  -OEChem-10302200282D
 34 34  0     1  0  0  0  0  0999 V2000
    5.3128   -1.3807    0.0000 O   0  0  0  0  0  0  0  0  0  0  0  0
    2.3644    2.3626    0.0000 O   0  0  0  0  0  0  0  0  0  0  0  0
    3.7657    3.3807    0.0000 O   0  0  0  0  0  0  0  0  0  0  0  0
    3.5807   -1.3807    0.0000 O   0  0  0  0  0  0  0  0  0  0  0  0
    4.4467    0.1193    0.0000 N   0  0  0  0  0  0  0  0  0  0  0  0
    5.5345    2.4672    0.0000 N   0  0  0  0  0  0  0  0  0  0  0  0
    3.9467    1.6581    0.0000 C   0  0  3  0  0  0  0  0  0  0  0  0
    4.9467    1.6581    0.0000 C   0  0  3  0  0  0  0  0  0  0  0  0
    3.6377    0.7071    0.0000 C   0  0  0  0  0  0  0  0  0  0  0  0
    5.2558    0.7071    0.0000 C   0  0  0  0  0  0  0  0  0  0  0  0
    3.3590    2.4672    0.0000 C   0  0  0  0  0  0  0  0  0  0  0  0
    4.4467   -0.8807    0.0000 C   0  0  0  0  0  0  0  0  0  0  0  0
    5.3128   -2.3807    0.0000 C   0  0  0  0  0  0  0  0  0  0  0  0
    5.3128   -3.3807    0.0000 C   0  0  0  0  0  0  0  0  0  0  0  0
    6.3128   -2.3807    0.0000 C   0  0  0  0  0  0  0  0  0  0  0  0
    4.3128   -2.3807    0.0000 C   0  0  0  0  0  0  0  0  0  0  0  0
    3.3344    1.5612    0.0000 H   0  0  0  0  0  0  0  0  0  0  0  0
    4.6653    2.2106    0.0000 H   0  0  0  0  0  0  0  0  0  0  0  0
    3.0713    0.9593    0.0000 H   0  0  0  0  0  0  0  0  0  0  0  0
    3.3277    0.1701    0.0000 H   0  0  0  0  0  0  0  0  0  0  0  0
    5.5658    0.1701    0.0000 H   0  0  0  0  0  0  0  0  0  0  0  0
    5.8222    0.9593    0.0000 H   0  0  0  0  0  0  0  0  0  0  0  0
    6.1511    2.4024    0.0000 H   0  0  0  0  0  0  0  0  0  0  0  0
    5.2823    3.0336    0.0000 H   0  0  0  0  0  0  0  0  0  0  0  0
    4.6928   -3.3807    0.0000 H   0  0  0  0  0  0  0  0  0  0  0  0
    5.3128   -4.0007    0.0000 H   0  0  0  0  0  0  0  0  0  0  0  0
    5.9328   -3.3807    0.0000 H   0  0  0  0  0  0  0  0  0  0  0  0
    6.3128   -3.0007    0.0000 H   0  0  0  0  0  0  0  0  0  0  0  0
    6.9328   -2.3807    0.0000 H   0  0  0  0  0  0  0  0  0  0  0  0
    6.3128   -1.7607    0.0000 H   0  0  0  0  0  0  0  0  0  0  0  0
    4.3128   -1.7607    0.0000 H   0  0  0  0  0  0  0  0  0  0  0  0
    3.6928   -2.3807    0.0000 H   0  0  0  0  0  0  0  0  0  0  0  0
    4.3128   -3.0007    0.0000 H   0  0  0  0  0  0  0  0  0  0  0  0
    2.0000    2.8642    0.0000 H   0  0  0  0  0  0  0  0  0  0  0  0
  1 12  1  0  0  0  0
  1 13  1  0  0  0  0
  2 11  1  0  0  0  0
  2 34  1  0  0  0  0
  3 11  2  0  0  0  0
  4 12  2  0  0  0  0
  5  9  1  0  0  0  0
  5 10  1  0  0  0  0
  5 12  1  0  0  0  0
  6  8  1  0  0  0  0
  6 23  1  0  0  0  0
  6 24  1  0  0  0  0
  7  8  1  0  0  0  0
  7  9  1  0  0  0  0
  7 11  1  0  0  0  0
  7 17  1  0  0  0  0
  8 10  1  0  0  0  0
  8 18  1  0  0  0  0
  9 19  1  0  0  0  0
  9 20  1  0  0  0  0
 10 21  1  0  0  0  0
 10 22  1  0  0  0  0
 13 14  1  0  0  0  0
 13 15  1  0  0  0  0
 13 16  1  0  0  0  0
 14 25  1  0  0  0  0
 14 26  1  0  0  0  0
 14 27  1  0  0  0  0
 15 28  1  0  0  0  0
 15 29  1  0  0  0  0
 15 30  1  0  0  0  0
 16 31  1  0  0  0  0
 16 32  1  0  0  0  0
 16 33  1  0  0  0  0
M  END
> <PUBCHEM_COMPOUND_CID>
503252
> <PUBCHEM_COMPOUND_CANONICALIZED>
1
> <PUBCHEM_CACTVS_COMPLEXITY>
298
> <PUBCHEM_CACTVS_HBOND_ACCEPTOR>
5
> <PUBCHEM_CACTVS_HBOND_DONOR>
2
> <PUBCHEM_CACTVS_ROTATABLE_BOND>
3
> <PUBCHEM_CACTVS_SUBSKEYS>
AAADceBzOAAAAAAAAAAAAAAAAAAAAWAAAAAAAAAAAAAAAAAAAAAAHgAQCAAADWzBgAQCCANABgAIAACQGAAAAAAAAAAAAIEIAAAAQBgAwAAcQAAGFgCAAAAkAAAIAAAAAAAAAAAAAAAAAAAAAAAAAAAAAA==
> <PUBCHEM_IUPAC_OPENEYE_NAME>
4-amino-1-tert-butoxycarbonyl-pyrrolidine-3-carboxylic acid
> <PUBCHEM_IUPAC_CAS_NAME>
4-amino-1-[(2-methylpropan-2-yl)oxy-oxomethyl]-3-pyrrolidinecarboxylic acid
> <PUBCHEM_IUPAC_NAME_MARKUP>
4-amino-1-[(2-methylpropan-2-yl)oxycarbonyl]pyrrolidine-3-carboxylic acid
> <PUBCHEM_IUPAC_NAME>
4-amino-1-[(2-methylpropan-2-yl)oxycarbonyl]pyrrolidine-3-carboxylic acid
> <PUBCHEM_IUPAC_SYSTEMATIC_NAME>
4-azanyl-1-[(2-methylpropan-2-yl)oxycarbonyl]pyrrolidine-3-carboxylic acid
> <PUBCHEM_IUPAC_TRADITIONAL_NAME>
4-amino-1-tert-butoxycarbonyl-pyrrolidine-3-carboxylic acid
> <PUBCHEM_IUPAC_INCHI>
InChI=1S/C10H18N2O4/c1-10(2,3)16-9(15)12-4-6(8(13)14)7(11)5-12/h6-7H,4-5,11H2,1-3H3,(H,13,14)
> <PUBCHEM_IUPAC_INCHIKEY>
OSQJCAMJAGJCSX-UHFFFAOYSA-N
> <PUBCHEM_XLOGP3_AA>
-2.2
> <PUBCHEM_EXACT_MASS>
230.12665706
> <PUBCHEM_MOLECULAR_FORMULA>
C10H18N2O4
> <PUBCHEM_MOLECULAR_WEIGHT>
230.26
> <PUBCHEM_OPENEYE_CAN_SMILES>
CC(C)(C)OC(=O)N1CC(C(C1)N)C(=O)O
> <PUBCHEM_OPENEYE_ISO_SMILES>
CC(C)(C)OC(=O)N1CC(C(C1)N)C(=O)O
> <PUBCHEM_CACTVS_TPSA>
92.9
> <PUBCHEM_MONOISOTOPIC_WEIGHT>
230.12665706
> <PUBCHEM_TOTAL_CHARGE>
0
> <PUBCHEM_HEAVY_ATOM_COUNT>
16
> <PUBCHEM_ATOM_DEF_STEREO_COUNT>
0
> <PUBCHEM_ATOM_UDEF_STEREO_COUNT>
2
> <PUBCHEM_BOND_DEF_STEREO_COUNT>
0
> <PUBCHEM_BOND_UDEF_STEREO_COUNT>
0
> <PUBCHEM_ISOTOPIC_ATOM_COUNT>
0
> <PUBCHEM_COMPONENT_COUNT>
1
> <PUBCHEM_CACTVS_TAUTO_COUNT>
-1
> <PUBCHEM_COORDINATE_TYPE>
1
5
255
> <PUBCHEM_BONDANNOTATIONS>
8  6  3
7  11  3
$$$$
