503202
  -OEChem-10302200282D
104107  0     1  0  0  0  0  0999 V2000
    6.3301    2.7500    0.0000 S   0  0  0  0  0  0  0  0  0  0  0  0
    8.0622   -1.2500    0.0000 O   0  0  0  0  0  0  0  0  0  0  0  0
    4.5981   -1.2500    0.0000 O   0  0  0  0  0  0  0  0  0  0  0  0
    8.9282   -1.7500    0.0000 O   0  0  0  0  0  0  0  0  0  0  0  0
   12.3923   -2.7500    0.0000 O   0  0  0  0  0  0  0  0  0  0  0  0
   11.5263   -4.2500    0.0000 O   0  0  0  0  0  0  0  0  0  0  0  0
    6.3301   -0.2500    0.0000 N   0  0  3  0  0  0  0  0  0  0  0  0
    3.7320    0.2500    0.0000 N   0  0  0  0  0  0  0  0  0  0  0  0
    8.0622   -3.2500    0.0000 N   0  0  0  0  0  0  0  0  0  0  0  0
   10.6603   -2.7500    0.0000 N   0  0  0  0  0  0  0  0  0  0  0  0
    5.4641    0.2500    0.0000 C   0  0  1  0  0  0  0  0  0  0  0  0
    5.4641    1.2500    0.0000 C   0  0  0  0  0  0  0  0  0  0  0  0
    6.3301    1.7500    0.0000 C   0  0  1  0  0  0  0  0  0  0  0  0
    7.1962    0.2500    0.0000 C   0  0  0  0  0  0  0  0  0  0  0  0
    7.1962    1.2500    0.0000 C   0  0  0  0  0  0  0  0  0  0  0  0
    6.3301   -1.2500    0.0000 C   0  0  0  0  0  0  0  0  0  0  0  0
    7.1962   -1.7500    0.0000 C   0  0  2  0  0  0  0  0  0  0  0  0
    4.5981   -0.2500    0.0000 C   0  0  0  0  0  0  0  0  0  0  0  0
    7.1962   -2.7500    0.0000 C   0  0  2  0  0  0  0  0  0  0  0  0
    6.3301   -3.2500    0.0000 C   0  0  0  0  0  0  0  0  0  0  0  0
    2.8660   -0.2500    0.0000 C   0  0  0  0  0  0  0  0  0  0  0  0
    7.1962    3.2500    0.0000 C   0  0  0  0  0  0  0  0  0  0  0  0
    6.3301   -4.2500    0.0000 C   0  0  0  0  0  0  0  0  0  0  0  0
    2.0000   -0.7500    0.0000 C   0  0  0  0  0  0  0  0  0  0  0  0
    2.3660    0.6160    0.0000 C   0  0  0  0  0  0  0  0  0  0  0  0
    3.3660   -1.1160    0.0000 C   0  0  0  0  0  0  0  0  0  0  0  0
    8.9282   -2.7500    0.0000 C   0  0  0  0  0  0  0  0  0  0  0  0
    9.7942   -3.2500    0.0000 C   0  0  2  0  0  0  0  0  0  0  0  0
    7.1962    4.2500    0.0000 C   0  0  0  0  0  0  0  0  0  0  0  0
    9.7942   -4.2500    0.0000 C   0  0  0  0  0  0  0  0  0  0  0  0
    7.1962   -4.7500    0.0000 C   0  0  0  0  0  0  0  0  0  0  0  0
    5.4641   -4.7500    0.0000 C   0  0  0  0  0  0  0  0  0  0  0  0
   10.6603   -4.7500    0.0000 C   0  0  0  0  0  0  0  0  0  0  0  0
    8.9282   -4.7500    0.0000 C   0  0  0  0  0  0  0  0  0  0  0  0
    6.3301    4.7500    0.0000 C   0  0  0  0  0  0  0  0  0  0  0  0
    8.0622    4.7500    0.0000 C   0  0  0  0  0  0  0  0  0  0  0  0
    7.1962   -5.7500    0.0000 C   0  0  0  0  0  0  0  0  0  0  0  0
    5.4641   -5.7500    0.0000 C   0  0  0  0  0  0  0  0  0  0  0  0
    6.3301   -6.2500    0.0000 C   0  0  0  0  0  0  0  0  0  0  0  0
    6.3301    5.7500    0.0000 C   0  0  0  0  0  0  0  0  0  0  0  0
    8.0622    5.7500    0.0000 C   0  0  0  0  0  0  0  0  0  0  0  0
   11.5263   -3.2500    0.0000 C   0  0  0  0  0  0  0  0  0  0  0  0
    7.1962    6.2500    0.0000 C   0  0  0  0  0  0  0  0  0  0  0  0
   13.2583   -3.2500    0.0000 C   0  0  0  0  0  0  0  0  0  0  0  0
   14.1244   -2.7500    0.0000 C   0  0  0  0  0  0  0  0  0  0  0  0
   14.1244   -1.7500    0.0000 C   0  0  0  0  0  0  0  0  0  0  0  0
   14.9904   -3.2500    0.0000 C   0  0  0  0  0  0  0  0  0  0  0  0
   14.9904   -1.2500    0.0000 C   0  0  0  0  0  0  0  0  0  0  0  0
   15.8564   -2.7500    0.0000 C   0  0  0  0  0  0  0  0  0  0  0  0
   15.8564   -1.7500    0.0000 C   0  0  0  0  0  0  0  0  0  0  0  0
    5.4641   -0.3700    0.0000 H   0  0  0  0  0  0  0  0  0  0  0  0
    5.2520    1.8326    0.0000 H   0  0  0  0  0  0  0  0  0  0  0  0
    4.8535    1.1423    0.0000 H   0  0  0  0  0  0  0  0  0  0  0  0
    6.8671    2.0600    0.0000 H   0  0  0  0  0  0  0  0  0  0  0  0
    7.4082   -0.3326    0.0000 H   0  0  0  0  0  0  0  0  0  0  0  0
    7.8067    0.3577    0.0000 H   0  0  0  0  0  0  0  0  0  0  0  0
    7.8067    1.1423    0.0000 H   0  0  0  0  0  0  0  0  0  0  0  0
    7.4082    1.8326    0.0000 H   0  0  0  0  0  0  0  0  0  0  0  0
    5.7196   -1.1423    0.0000 H   0  0  0  0  0  0  0  0  0  0  0  0
    6.1181   -1.8326    0.0000 H   0  0  0  0  0  0  0  0  0  0  0  0
    7.7331   -2.0600    0.0000 H   0  0  0  0  0  0  0  0  0  0  0  0
    7.1962   -3.3700    0.0000 H   0  0  0  0  0  0  0  0  0  0  0  0
    3.7320    0.8700    0.0000 H   0  0  0  0  0  0  0  0  0  0  0  0
    6.1181   -2.6674    0.0000 H   0  0  0  0  0  0  0  0  0  0  0  0
    5.7196   -3.3577    0.0000 H   0  0  0  0  0  0  0  0  0  0  0  0
    8.0622   -3.8700    0.0000 H   0  0  0  0  0  0  0  0  0  0  0  0
    7.4082    2.6674    0.0000 H   0  0  0  0  0  0  0  0  0  0  0  0
    7.8067    3.3577    0.0000 H   0  0  0  0  0  0  0  0  0  0  0  0
    8.0622   -0.6300    0.0000 H   0  0  0  0  0  0  0  0  0  0  0  0
    1.6900   -0.2131    0.0000 H   0  0  0  0  0  0  0  0  0  0  0  0
    1.4631   -1.0600    0.0000 H   0  0  0  0  0  0  0  0  0  0  0  0
    2.3100   -1.2869    0.0000 H   0  0  0  0  0  0  0  0  0  0  0  0
    2.9030    0.9260    0.0000 H   0  0  0  0  0  0  0  0  0  0  0  0
    2.0560    1.1530    0.0000 H   0  0  0  0  0  0  0  0  0  0  0  0
    1.8291    0.3060    0.0000 H   0  0  0  0  0  0  0  0  0  0  0  0
    2.8291   -1.4260    0.0000 H   0  0  0  0  0  0  0  0  0  0  0  0
    3.6760   -1.6530    0.0000 H   0  0  0  0  0  0  0  0  0  0  0  0
    3.9030   -0.8060    0.0000 H   0  0  0  0  0  0  0  0  0  0  0  0
    9.7942   -2.6300    0.0000 H   0  0  0  0  0  0  0  0  0  0  0  0
    9.2573   -3.9400    0.0000 H   0  0  0  0  0  0  0  0  0  0  0  0
    7.7331   -4.4400    0.0000 H   0  0  0  0  0  0  0  0  0  0  0  0
    4.9272   -4.4400    0.0000 H   0  0  0  0  0  0  0  0  0  0  0  0
   10.6603   -2.1300    0.0000 H   0  0  0  0  0  0  0  0  0  0  0  0
   10.3503   -5.2869    0.0000 H   0  0  0  0  0  0  0  0  0  0  0  0
   11.1972   -5.0600    0.0000 H   0  0  0  0  0  0  0  0  0  0  0  0
   10.9703   -4.2131    0.0000 H   0  0  0  0  0  0  0  0  0  0  0  0
    8.6182   -4.2131    0.0000 H   0  0  0  0  0  0  0  0  0  0  0  0
    8.3913   -5.0600    0.0000 H   0  0  0  0  0  0  0  0  0  0  0  0
    9.2382   -5.2869    0.0000 H   0  0  0  0  0  0  0  0  0  0  0  0
    5.7932    4.4400    0.0000 H   0  0  0  0  0  0  0  0  0  0  0  0
    8.5991    4.4400    0.0000 H   0  0  0  0  0  0  0  0  0  0  0  0
    7.7331   -6.0600    0.0000 H   0  0  0  0  0  0  0  0  0  0  0  0
    4.9272   -6.0600    0.0000 H   0  0  0  0  0  0  0  0  0  0  0  0
    6.3301   -6.8700    0.0000 H   0  0  0  0  0  0  0  0  0  0  0  0
    5.7932    6.0600    0.0000 H   0  0  0  0  0  0  0  0  0  0  0  0
    8.5991    6.0600    0.0000 H   0  0  0  0  0  0  0  0  0  0  0  0
    7.1962    6.8700    0.0000 H   0  0  0  0  0  0  0  0  0  0  0  0
   12.8598   -3.7250    0.0000 H   0  0  0  0  0  0  0  0  0  0  0  0
   13.6569   -3.7250    0.0000 H   0  0  0  0  0  0  0  0  0  0  0  0
   13.5874   -1.4400    0.0000 H   0  0  0  0  0  0  0  0  0  0  0  0
   14.9904   -3.8700    0.0000 H   0  0  0  0  0  0  0  0  0  0  0  0
   14.9904   -0.6300    0.0000 H   0  0  0  0  0  0  0  0  0  0  0  0
   16.3933   -3.0600    0.0000 H   0  0  0  0  0  0  0  0  0  0  0  0
   16.3933   -1.4400    0.0000 H   0  0  0  0  0  0  0  0  0  0  0  0
 13  1  1  6  0  0  0
  1 22  1  0  0  0  0
 17  2  1  1  0  0  0
  2 69  1  0  0  0  0
  3 18  2  0  0  0  0
  4 27  2  0  0  0  0
  5 42  1  0  0  0  0
  5 44  1  0  0  0  0
  6 42  2  0  0  0  0
  7 11  1  0  0  0  0
  7 14  1  0  0  0  0
  7 16  1  0  0  0  0
  8 18  1  0  0  0  0
  8 21  1  0  0  0  0
  8 63  1  0  0  0  0
 19  9  1  1  0  0  0
  9 27  1  0  0  0  0
  9 66  1  0  0  0  0
 28 10  1  1  0  0  0
 10 42  1  0  0  0  0
 10 83  1  0  0  0  0
 11 12  1  0  0  0  0
 11 18  1  6  0  0  0
 11 51  1  0  0  0  0
 12 13  1  0  0  0  0
 12 52  1  0  0  0  0
 12 53  1  0  0  0  0
 13 15  1  0  0  0  0
 13 54  1  0  0  0  0
 14 15  1  0  0  0  0
 14 55  1  0  0  0  0
 14 56  1  0  0  0  0
 15 57  1  0  0  0  0
 15 58  1  0  0  0  0
 16 17  1  0  0  0  0
 16 59  1  0  0  0  0
 16 60  1  0  0  0  0
 17 19  1  0  0  0  0
 17 61  1  0  0  0  0
 19 20  1  0  0  0  0
 19 62  1  0  0  0  0
 20 23  1  0  0  0  0
 20 64  1  0  0  0  0
 20 65  1  0  0  0  0
 21 24  1  0  0  0  0
 21 25  1  0  0  0  0
 21 26  1  0  0  0  0
 22 29  1  0  0  0  0
 22 67  1  0  0  0  0
 22 68  1  0  0  0  0
 23 31  2  0  0  0  0
 23 32  1  0  0  0  0
 24 70  1  0  0  0  0
 24 71  1  0  0  0  0
 24 72  1  0  0  0  0
 25 73  1  0  0  0  0
 25 74  1  0  0  0  0
 25 75  1  0  0  0  0
 26 76  1  0  0  0  0
 26 77  1  0  0  0  0
 26 78  1  0  0  0  0
 27 28  1  0  0  0  0
 28 30  1  0  0  0  0
 28 79  1  0  0  0  0
 29 35  2  0  0  0  0
 29 36  1  0  0  0  0
 30 33  1  0  0  0  0
 30 34  1  0  0  0  0
 30 80  1  0  0  0  0
 31 37  1  0  0  0  0
 31 81  1  0  0  0  0
 32 38  2  0  0  0  0
 32 82  1  0  0  0  0
 33 84  1  0  0  0  0
 33 85  1  0  0  0  0
 33 86  1  0  0  0  0
 34 87  1  0  0  0  0
 34 88  1  0  0  0  0
 34 89  1  0  0  0  0
 35 40  1  0  0  0  0
 35 90  1  0  0  0  0
 36 41  2  0  0  0  0
 36 91  1  0  0  0  0
 37 39  2  0  0  0  0
 37 92  1  0  0  0  0
 38 39  1  0  0  0  0
 38 93  1  0  0  0  0
 39 94  1  0  0  0  0
 40 43  2  0  0  0  0
 40 95  1  0  0  0  0
 41 43  1  0  0  0  0
 41 96  1  0  0  0  0
 43 97  1  0  0  0  0
 44 45  1  0  0  0  0
 44 98  1  0  0  0  0
 44 99  1  0  0  0  0
 45 46  2  0  0  0  0
 45 47  1  0  0  0  0
 46 48  1  0  0  0  0
 46100  1  0  0  0  0
 47 49  2  0  0  0  0
 47101  1  0  0  0  0
 48 50  2  0  0  0  0
 48102  1  0  0  0  0
 49 50  1  0  0  0  0
 49103  1  0  0  0  0
 50104  1  0  0  0  0
M  END
> <PUBCHEM_COMPOUND_CID>
503202
> <PUBCHEM_COMPOUND_CANONICALIZED>
1
> <PUBCHEM_CACTVS_COMPLEXITY>
1040
> <PUBCHEM_CACTVS_HBOND_ACCEPTOR>
7
> <PUBCHEM_CACTVS_HBOND_DONOR>
4
> <PUBCHEM_CACTVS_ROTATABLE_BOND>
17
> <PUBCHEM_CACTVS_SUBSKEYS>
AAADcfB/uABAAAAAAAAAAAAAAAAAAAAAAAA8YMEAAAAAAAABUAAAHgQQCAAADbzl2AayCIPABgiIAiFSGAACAAAgABAIiIGICIkKdjKg8TmccAAk1gG4qAeYyKAOAAAAAAAAAAAAAAAAAAAAAAAAAAAAAA==
> <PUBCHEM_IUPAC_OPENEYE_NAME>
benzyl N-[(1S)-1-[[(1S,2R)-1-benzyl-3-[(2S,4R)-4-benzylsulfanyl-2-(tert-butylcarbamoyl)-1-piperidyl]-2-hydroxy-propyl]carbamoyl]-2-methyl-propyl]carbamate
> <PUBCHEM_IUPAC_CAS_NAME>
N-[(2S)-1-[[(2S,3R)-4-[(2S,4R)-2-[(tert-butylamino)-oxomethyl]-4-(phenylmethylthio)-1-piperidinyl]-3-hydroxy-1-phenylbutan-2-yl]amino]-3-methyl-1-oxobutan-2-yl]carbamic acid (phenylmethyl) ester
> <PUBCHEM_IUPAC_NAME_MARKUP>
benzyl <I>N</I>-[(2<I>S</I>)-1-[[(2<I>S</I>,3<I>R</I>)-4-[(2<I>S</I>,4<I>R</I>)-4-benzylsulfanyl-2-(<I>tert</I>-butylcarbamoyl)piperidin-1-yl]-3-hydroxy-1-phenylbutan-2-yl]amino]-3-methyl-1-oxobutan-2-yl]carbamate
> <PUBCHEM_IUPAC_NAME>
benzyl N-[(2S)-1-[[(2S,3R)-4-[(2S,4R)-4-benzylsulfanyl-2-(tert-butylcarbamoyl)piperidin-1-yl]-3-hydroxy-1-phenylbutan-2-yl]amino]-3-methyl-1-oxobutan-2-yl]carbamate
> <PUBCHEM_IUPAC_SYSTEMATIC_NAME>
(phenylmethyl) N-[(2S)-1-[[(2S,3R)-4-[(2S,4R)-2-(tert-butylcarbamoyl)-4-(phenylmethylsulfanyl)piperidin-1-yl]-3-oxidanyl-1-phenyl-butan-2-yl]amino]-3-methyl-1-oxidanylidene-butan-2-yl]carbamate
> <PUBCHEM_IUPAC_TRADITIONAL_NAME>
N-[(1S)-1-[[(1S,2R)-1-benzyl-3-[(2S,4R)-4-(benzylthio)-2-(tert-butylcarbamoyl)piperidino]-2-hydroxy-propyl]carbamoyl]-2-methyl-propyl]carbamic acid benzyl ester
> <PUBCHEM_IUPAC_INCHI>
InChI=1S/C40H54N4O5S/c1-28(2)36(42-39(48)49-26-30-17-11-7-12-18-30)38(47)41-33(23-29-15-9-6-10-16-29)35(45)25-44-22-21-32(50-27-31-19-13-8-14-20-31)24-34(44)37(46)43-40(3,4)5/h6-20,28,32-36,45H,21-27H2,1-5H3,(H,41,47)(H,42,48)(H,43,46)/t32-,33+,34+,35-,36+/m1/s1
> <PUBCHEM_IUPAC_INCHIKEY>
XEJSYKJTJSOIKL-BVMCXEQJSA-N
> <PUBCHEM_XLOGP3_AA>
6.7
> <PUBCHEM_EXACT_MASS>
702.38149201
> <PUBCHEM_MOLECULAR_FORMULA>
C40H54N4O5S
> <PUBCHEM_MOLECULAR_WEIGHT>
702.9
> <PUBCHEM_OPENEYE_CAN_SMILES>
CC(C)C(C(=O)NC(CC1=CC=CC=C1)C(CN2CCC(CC2C(=O)NC(C)(C)C)SCC3=CC=CC=C3)O)NC(=O)OCC4=CC=CC=C4
> <PUBCHEM_OPENEYE_ISO_SMILES>
CC(C)[C@@H](C(=O)N[C@@H](CC1=CC=CC=C1)[C@@H](CN2CC[C@H](C[C@H]2C(=O)NC(C)(C)C)SCC3=CC=CC=C3)O)NC(=O)OCC4=CC=CC=C4
> <PUBCHEM_CACTVS_TPSA>
145
> <PUBCHEM_MONOISOTOPIC_WEIGHT>
702.38149201
> <PUBCHEM_TOTAL_CHARGE>
0
> <PUBCHEM_HEAVY_ATOM_COUNT>
50
> <PUBCHEM_ATOM_DEF_STEREO_COUNT>
5
> <PUBCHEM_ATOM_UDEF_STEREO_COUNT>
0
> <PUBCHEM_BOND_DEF_STEREO_COUNT>
0
> <PUBCHEM_BOND_UDEF_STEREO_COUNT>
0
> <PUBCHEM_ISOTOPIC_ATOM_COUNT>
0
> <PUBCHEM_COMPONENT_COUNT>
1
> <PUBCHEM_CACTVS_TAUTO_COUNT>
-1
> <PUBCHEM_COORDINATE_TYPE>
1
5
255
> <PUBCHEM_BONDANNOTATIONS>
13  1  6
28  10  5
11  18  6
17  2  5
23  31  8
23  32  8
29  35  8
29  36  8
31  37  8
32  38  8
35  40  8
36  41  8
37  39  8
38  39  8
40  43  8
41  43  8
45  46  8
45  47  8
46  48  8
47  49  8
48  50  8
49  50  8
19  9  5
$$$$
