503262
  -OEChem-10302200282D
 51 51  0     1  0  0  0  0  0999 V2000
    5.7739    2.8985    0.0000 O   0  0  0  0  0  0  0  0  0  0  0  0
    7.1752    1.8804    0.0000 O   0  0  0  0  0  0  0  0  0  0  0  0
    2.5896    0.5850    0.0000 O   0  0  0  0  0  0  0  0  0  0  0  0
    3.1249   -1.0623    0.0000 O   0  0  0  0  0  0  0  0  0  0  0  0
    8.7551   -0.7022    0.0000 O   0  0  0  0  0  0  0  0  0  0  0  0
    5.0929   -0.3629    0.0000 N   0  0  0  0  0  0  0  0  0  0  0  0
    7.5961    0.5850    0.0000 N   0  0  0  0  0  0  0  0  0  0  0  0
    5.9019    0.2249    0.0000 C   0  0  3  0  0  0  0  0  0  0  0  0
    5.5929    1.1760    0.0000 C   0  0  3  0  0  0  0  0  0  0  0  0
    6.8530   -0.0841    0.0000 C   0  0  3  0  0  0  0  0  0  0  0  0
    4.5929    1.1760    0.0000 C   0  0  0  0  0  0  0  0  0  0  0  0
    4.2839    0.2249    0.0000 C   0  0  3  0  0  0  0  0  0  0  0  0
    7.0609   -1.0623    0.0000 C   0  0  0  0  0  0  0  0  0  0  0  0
    6.7518   -2.0133    0.0000 C   0  0  0  0  0  0  0  0  0  0  0  0
    6.1807    1.9850    0.0000 C   0  0  0  0  0  0  0  0  0  0  0  0
    7.4210   -2.7565    0.0000 C   0  0  0  0  0  0  0  0  0  0  0  0
    5.7736   -2.2212    0.0000 C   0  0  0  0  0  0  0  0  0  0  0  0
    3.3328   -0.0841    0.0000 C   0  0  0  0  0  0  0  0  0  0  0  0
    8.5472    0.2760    0.0000 C   0  0  0  0  0  0  0  0  0  0  0  0
    7.1120   -3.7075    0.0000 C   0  0  0  0  0  0  0  0  0  0  0  0
    5.4646   -3.1723    0.0000 C   0  0  0  0  0  0  0  0  0  0  0  0
    9.2903    0.9451    0.0000 C   0  0  0  0  0  0  0  0  0  0  0  0
    6.3617    3.7075    0.0000 C   0  0  0  0  0  0  0  0  0  0  0  0
    5.9989   -0.3875    0.0000 H   0  0  0  0  0  0  0  0  0  0  0  0
    6.2052    1.0790    0.0000 H   0  0  0  0  0  0  0  0  0  0  0  0
    6.7240    0.5223    0.0000 H   0  0  0  0  0  0  0  0  0  0  0  0
    4.6577    1.7926    0.0000 H   0  0  0  0  0  0  0  0  0  0  0  0
    3.9864    1.3048    0.0000 H   0  0  0  0  0  0  0  0  0  0  0  0
    4.1869   -0.3875    0.0000 H   0  0  0  0  0  0  0  0  0  0  0  0
    5.0929   -0.9829    0.0000 H   0  0  0  0  0  0  0  0  0  0  0  0
    7.5494   -1.4440    0.0000 H   0  0  0  0  0  0  0  0  0  0  0  0
    6.4417   -1.0298    0.0000 H   0  0  0  0  0  0  0  0  0  0  0  0
    6.5602   -2.6030    0.0000 H   0  0  0  0  0  0  0  0  0  0  0  0
    7.4672    1.1915    0.0000 H   0  0  0  0  0  0  0  0  0  0  0  0
    7.9685   -3.0475    0.0000 H   0  0  0  0  0  0  0  0  0  0  0  0
    7.8027   -2.2679    0.0000 H   0  0  0  0  0  0  0  0  0  0  0  0
    5.7520   -1.6016    0.0000 H   0  0  0  0  0  0  0  0  0  0  0  0
    5.1597   -2.1349    0.0000 H   0  0  0  0  0  0  0  0  0  0  0  0
    6.5223   -3.5159    0.0000 H   0  0  0  0  0  0  0  0  0  0  0  0
    6.9204   -4.2972    0.0000 H   0  0  0  0  0  0  0  0  0  0  0  0
    7.7016   -3.8991    0.0000 H   0  0  0  0  0  0  0  0  0  0  0  0
    4.8750   -2.9807    0.0000 H   0  0  0  0  0  0  0  0  0  0  0  0
    5.2730   -3.7619    0.0000 H   0  0  0  0  0  0  0  0  0  0  0  0
    6.0543   -3.3638    0.0000 H   0  0  0  0  0  0  0  0  0  0  0  0
    2.0000    0.3934    0.0000 H   0  0  0  0  0  0  0  0  0  0  0  0
    9.7052    0.4844    0.0000 H   0  0  0  0  0  0  0  0  0  0  0  0
    9.7510    1.3600    0.0000 H   0  0  0  0  0  0  0  0  0  0  0  0
    8.8754    1.4059    0.0000 H   0  0  0  0  0  0  0  0  0  0  0  0
    6.8633    3.3431    0.0000 H   0  0  0  0  0  0  0  0  0  0  0  0
    6.7261    4.2091    0.0000 H   0  0  0  0  0  0  0  0  0  0  0  0
    5.8601    4.0720    0.0000 H   0  0  0  0  0  0  0  0  0  0  0  0
  1 15  1  0  0  0  0
  1 23  1  0  0  0  0
  2 15  2  0  0  0  0
  3 18  1  0  0  0  0
  3 45  1  0  0  0  0
  4 18  2  0  0  0  0
  5 19  2  0  0  0  0
  6  8  1  0  0  0  0
  6 12  1  0  0  0  0
  6 30  1  0  0  0  0
  7 10  1  0  0  0  0
  7 19  1  0  0  0  0
  7 34  1  0  0  0  0
  8  9  1  0  0  0  0
  8 10  1  0  0  0  0
  8 24  1  0  0  0  0
  9 11  1  0  0  0  0
  9 15  1  0  0  0  0
  9 25  1  0  0  0  0
 10 13  1  0  0  0  0
 10 26  1  0  0  0  0
 11 12  1  0  0  0  0
 11 27  1  0  0  0  0
 11 28  1  0  0  0  0
 12 18  1  0  0  0  0
 12 29  1  0  0  0  0
 13 14  1  0  0  0  0
 13 31  1  0  0  0  0
 13 32  1  0  0  0  0
 14 16  1  0  0  0  0
 14 17  1  0  0  0  0
 14 33  1  0  0  0  0
 16 20  1  0  0  0  0
 16 35  1  0  0  0  0
 16 36  1  0  0  0  0
 17 21  1  0  0  0  0
 17 37  1  0  0  0  0
 17 38  1  0  0  0  0
 19 22  1  0  0  0  0
 20 39  1  0  0  0  0
 20 40  1  0  0  0  0
 20 41  1  0  0  0  0
 21 42  1  0  0  0  0
 21 43  1  0  0  0  0
 21 44  1  0  0  0  0
 22 46  1  0  0  0  0
 22 47  1  0  0  0  0
 22 48  1  0  0  0  0
 23 49  1  0  0  0  0
 23 50  1  0  0  0  0
 23 51  1  0  0  0  0
M  END
> <PUBCHEM_COMPOUND_CID>
503262
> <PUBCHEM_COMPOUND_CANONICALIZED>
1
> <PUBCHEM_CACTVS_COMPLEXITY>
436
> <PUBCHEM_CACTVS_HBOND_ACCEPTOR>
6
> <PUBCHEM_CACTVS_HBOND_DONOR>
3
> <PUBCHEM_CACTVS_ROTATABLE_BOND>
9
> <PUBCHEM_CACTVS_SUBSKEYS>
AAADceB7OAAAAAAAAAAAAAAAAAAAAWAAAAAAAAAAAAAAAAAAAAAAHgAQCAAADSjBgAYCCALABgAIAAGQGAAAAAAAAAAAAIGIAAACQBoAgCAUQAAGFgCQAAG8/+meAAAAAAAAAAAAAAAAAAAAAAAAAAAAAA==
> <PUBCHEM_IUPAC_OPENEYE_NAME>
5-(1-acetamido-3-ethyl-pentyl)-4-methoxycarbonyl-pyrrolidine-2-carboxylic acid
> <PUBCHEM_IUPAC_CAS_NAME>
5-(1-acetamido-3-ethylpentyl)-4-methoxycarbonyl-2-pyrrolidinecarboxylic acid
> <PUBCHEM_IUPAC_NAME_MARKUP>
5-(1-acetamido-3-ethylpentyl)-4-methoxycarbonylpyrrolidine-2-carboxylic acid
> <PUBCHEM_IUPAC_NAME>
5-(1-acetamido-3-ethylpentyl)-4-methoxycarbonylpyrrolidine-2-carboxylic acid
> <PUBCHEM_IUPAC_SYSTEMATIC_NAME>
5-(1-acetamido-3-ethyl-pentyl)-4-methoxycarbonyl-pyrrolidine-2-carboxylic acid
> <PUBCHEM_IUPAC_TRADITIONAL_NAME>
5-(1-acetamido-3-ethyl-pentyl)-4-carbomethoxy-proline
> <PUBCHEM_IUPAC_INCHI>
InChI=1S/C16H28N2O5/c1-5-10(6-2)7-12(17-9(3)19)14-11(16(22)23-4)8-13(18-14)15(20)21/h10-14,18H,5-8H2,1-4H3,(H,17,19)(H,20,21)
> <PUBCHEM_IUPAC_INCHIKEY>
XDTZJYDMOHHYDR-UHFFFAOYSA-N
> <PUBCHEM_XLOGP3_AA>
-0.6
> <PUBCHEM_EXACT_MASS>
328.19982200
> <PUBCHEM_MOLECULAR_FORMULA>
C16H28N2O5
> <PUBCHEM_MOLECULAR_WEIGHT>
328.40
> <PUBCHEM_OPENEYE_CAN_SMILES>
CCC(CC)CC(C1C(CC(N1)C(=O)O)C(=O)OC)NC(=O)C
> <PUBCHEM_OPENEYE_ISO_SMILES>
CCC(CC)CC(C1C(CC(N1)C(=O)O)C(=O)OC)NC(=O)C
> <PUBCHEM_CACTVS_TPSA>
105
> <PUBCHEM_MONOISOTOPIC_WEIGHT>
328.19982200
> <PUBCHEM_TOTAL_CHARGE>
0
> <PUBCHEM_HEAVY_ATOM_COUNT>
23
> <PUBCHEM_ATOM_DEF_STEREO_COUNT>
0
> <PUBCHEM_ATOM_UDEF_STEREO_COUNT>
4
> <PUBCHEM_BOND_DEF_STEREO_COUNT>
0
> <PUBCHEM_BOND_UDEF_STEREO_COUNT>
0
> <PUBCHEM_ISOTOPIC_ATOM_COUNT>
0
> <PUBCHEM_COMPONENT_COUNT>
1
> <PUBCHEM_CACTVS_TAUTO_COUNT>
-1
> <PUBCHEM_COORDINATE_TYPE>
1
5
255
> <PUBCHEM_BONDANNOTATIONS>
10  13  3
12  18  3
8  6  3
9  15  3
$$$$
