503200
  -OEChem-10302200282D
 99102  0     1  0  0  0  0  0999 V2000
    6.3301    3.5000    0.0000 S   0  0  0  0  0  0  0  0  0  0  0  0
    8.0622   -0.5000    0.0000 O   0  0  0  0  0  0  0  0  0  0  0  0
    4.5981   -0.5000    0.0000 O   0  0  0  0  0  0  0  0  0  0  0  0
    8.9282   -1.0000    0.0000 O   0  0  0  0  0  0  0  0  0  0  0  0
   12.3923   -2.0000    0.0000 O   0  0  0  0  0  0  0  0  0  0  0  0
   11.5263   -3.5000    0.0000 O   0  0  0  0  0  0  0  0  0  0  0  0
    6.3301    0.5000    0.0000 N   0  0  3  0  0  0  0  0  0  0  0  0
    3.7320    1.0000    0.0000 N   0  0  0  0  0  0  0  0  0  0  0  0
    8.0622   -2.5000    0.0000 N   0  0  0  0  0  0  0  0  0  0  0  0
   10.6603   -2.0000    0.0000 N   0  0  0  0  0  0  0  0  0  0  0  0
    8.0622    3.5000    0.0000 N   0  0  0  0  0  0  0  0  0  0  0  0
    7.1962    5.0000    0.0000 N   0  0  0  0  0  0  0  0  0  0  0  0
    5.4641    1.0000    0.0000 C   0  0  1  0  0  0  0  0  0  0  0  0
    5.4641    2.0000    0.0000 C   0  0  0  0  0  0  0  0  0  0  0  0
    6.3301    2.5000    0.0000 C   0  0  1  0  0  0  0  0  0  0  0  0
    7.1962    1.0000    0.0000 C   0  0  0  0  0  0  0  0  0  0  0  0
    7.1962    2.0000    0.0000 C   0  0  0  0  0  0  0  0  0  0  0  0
    6.3301   -0.5000    0.0000 C   0  0  0  0  0  0  0  0  0  0  0  0
    7.1962   -1.0000    0.0000 C   0  0  2  0  0  0  0  0  0  0  0  0
    7.1962   -2.0000    0.0000 C   0  0  2  0  0  0  0  0  0  0  0  0
    4.5981    0.5000    0.0000 C   0  0  0  0  0  0  0  0  0  0  0  0
    6.3301   -2.5000    0.0000 C   0  0  0  0  0  0  0  0  0  0  0  0
    2.8660    0.5000    0.0000 C   0  0  0  0  0  0  0  0  0  0  0  0
    6.3301   -3.5000    0.0000 C   0  0  0  0  0  0  0  0  0  0  0  0
    8.9282   -2.0000    0.0000 C   0  0  0  0  0  0  0  0  0  0  0  0
    2.0000   -0.0000    0.0000 C   0  0  0  0  0  0  0  0  0  0  0  0
    2.3660    1.3660    0.0000 C   0  0  0  0  0  0  0  0  0  0  0  0
    3.3660   -0.3660    0.0000 C   0  0  0  0  0  0  0  0  0  0  0  0
    9.7942   -2.5000    0.0000 C   0  0  2  0  0  0  0  0  0  0  0  0
    7.1962    4.0000    0.0000 C   0  0  0  0  0  0  0  0  0  0  0  0
    9.7942   -3.5000    0.0000 C   0  0  0  0  0  0  0  0  0  0  0  0
    5.4641   -4.0000    0.0000 C   0  0  0  0  0  0  0  0  0  0  0  0
    7.1962   -4.0000    0.0000 C   0  0  0  0  0  0  0  0  0  0  0  0
   10.6603   -4.0000    0.0000 C   0  0  0  0  0  0  0  0  0  0  0  0
    8.9282   -4.0000    0.0000 C   0  0  0  0  0  0  0  0  0  0  0  0
    5.4641   -5.0000    0.0000 C   0  0  0  0  0  0  0  0  0  0  0  0
    7.1962   -5.0000    0.0000 C   0  0  0  0  0  0  0  0  0  0  0  0
    6.3301   -5.5000    0.0000 C   0  0  0  0  0  0  0  0  0  0  0  0
    8.9282    4.0000    0.0000 C   0  0  0  0  0  0  0  0  0  0  0  0
    8.0622    5.5000    0.0000 C   0  0  0  0  0  0  0  0  0  0  0  0
   11.5263   -2.5000    0.0000 C   0  0  0  0  0  0  0  0  0  0  0  0
    8.9282    5.0000    0.0000 C   0  0  0  0  0  0  0  0  0  0  0  0
   13.2583   -2.5000    0.0000 C   0  0  0  0  0  0  0  0  0  0  0  0
   14.1244   -2.0000    0.0000 C   0  0  0  0  0  0  0  0  0  0  0  0
   14.9904   -2.5000    0.0000 C   0  0  0  0  0  0  0  0  0  0  0  0
   14.1244   -1.0000    0.0000 C   0  0  0  0  0  0  0  0  0  0  0  0
   15.8564   -2.0000    0.0000 C   0  0  0  0  0  0  0  0  0  0  0  0
   14.9904   -0.5000    0.0000 C   0  0  0  0  0  0  0  0  0  0  0  0
   15.8564   -1.0000    0.0000 C   0  0  0  0  0  0  0  0  0  0  0  0
    5.4641    0.3800    0.0000 H   0  0  0  0  0  0  0  0  0  0  0  0
    5.2520    2.5826    0.0000 H   0  0  0  0  0  0  0  0  0  0  0  0
    4.8535    1.8923    0.0000 H   0  0  0  0  0  0  0  0  0  0  0  0
    6.8671    2.8100    0.0000 H   0  0  0  0  0  0  0  0  0  0  0  0
    7.4082    0.4174    0.0000 H   0  0  0  0  0  0  0  0  0  0  0  0
    7.8067    1.1077    0.0000 H   0  0  0  0  0  0  0  0  0  0  0  0
    7.8067    1.8923    0.0000 H   0  0  0  0  0  0  0  0  0  0  0  0
    7.4082    2.5826    0.0000 H   0  0  0  0  0  0  0  0  0  0  0  0
    5.7196   -0.3923    0.0000 H   0  0  0  0  0  0  0  0  0  0  0  0
    6.1181   -1.0826    0.0000 H   0  0  0  0  0  0  0  0  0  0  0  0
    7.7331   -1.3100    0.0000 H   0  0  0  0  0  0  0  0  0  0  0  0
    7.1962   -2.6200    0.0000 H   0  0  0  0  0  0  0  0  0  0  0  0
    6.1181   -1.9174    0.0000 H   0  0  0  0  0  0  0  0  0  0  0  0
    5.7196   -2.6077    0.0000 H   0  0  0  0  0  0  0  0  0  0  0  0
    3.7320    1.6200    0.0000 H   0  0  0  0  0  0  0  0  0  0  0  0
    8.0622   -3.1200    0.0000 H   0  0  0  0  0  0  0  0  0  0  0  0
    8.0622    0.1200    0.0000 H   0  0  0  0  0  0  0  0  0  0  0  0
    1.6900    0.5369    0.0000 H   0  0  0  0  0  0  0  0  0  0  0  0
    1.4631   -0.3100    0.0000 H   0  0  0  0  0  0  0  0  0  0  0  0
    2.3100   -0.5369    0.0000 H   0  0  0  0  0  0  0  0  0  0  0  0
    2.9030    1.6760    0.0000 H   0  0  0  0  0  0  0  0  0  0  0  0
    2.0560    1.9030    0.0000 H   0  0  0  0  0  0  0  0  0  0  0  0
    1.8291    1.0560    0.0000 H   0  0  0  0  0  0  0  0  0  0  0  0
    2.8291   -0.6760    0.0000 H   0  0  0  0  0  0  0  0  0  0  0  0
    3.6760   -0.9030    0.0000 H   0  0  0  0  0  0  0  0  0  0  0  0
    3.9030   -0.0560    0.0000 H   0  0  0  0  0  0  0  0  0  0  0  0
    9.7942   -1.8800    0.0000 H   0  0  0  0  0  0  0  0  0  0  0  0
    9.2573   -3.1900    0.0000 H   0  0  0  0  0  0  0  0  0  0  0  0
    4.9272   -3.6900    0.0000 H   0  0  0  0  0  0  0  0  0  0  0  0
    7.7331   -3.6900    0.0000 H   0  0  0  0  0  0  0  0  0  0  0  0
   10.6603   -1.3800    0.0000 H   0  0  0  0  0  0  0  0  0  0  0  0
   10.3503   -4.5369    0.0000 H   0  0  0  0  0  0  0  0  0  0  0  0
   11.1972   -4.3100    0.0000 H   0  0  0  0  0  0  0  0  0  0  0  0
   10.9703   -3.4631    0.0000 H   0  0  0  0  0  0  0  0  0  0  0  0
    8.6182   -3.4631    0.0000 H   0  0  0  0  0  0  0  0  0  0  0  0
    8.3913   -4.3100    0.0000 H   0  0  0  0  0  0  0  0  0  0  0  0
    9.2382   -4.5369    0.0000 H   0  0  0  0  0  0  0  0  0  0  0  0
    4.9272   -5.3100    0.0000 H   0  0  0  0  0  0  0  0  0  0  0  0
    7.7331   -5.3100    0.0000 H   0  0  0  0  0  0  0  0  0  0  0  0
    6.3301   -6.1200    0.0000 H   0  0  0  0  0  0  0  0  0  0  0  0
    9.4651    3.6900    0.0000 H   0  0  0  0  0  0  0  0  0  0  0  0
    8.0622    6.1200    0.0000 H   0  0  0  0  0  0  0  0  0  0  0  0
    9.4651    5.3100    0.0000 H   0  0  0  0  0  0  0  0  0  0  0  0
   12.8598   -2.9750    0.0000 H   0  0  0  0  0  0  0  0  0  0  0  0
   13.6569   -2.9750    0.0000 H   0  0  0  0  0  0  0  0  0  0  0  0
   14.9904   -3.1200    0.0000 H   0  0  0  0  0  0  0  0  0  0  0  0
   13.5874   -0.6900    0.0000 H   0  0  0  0  0  0  0  0  0  0  0  0
   16.3933   -2.3100    0.0000 H   0  0  0  0  0  0  0  0  0  0  0  0
   14.9904    0.1200    0.0000 H   0  0  0  0  0  0  0  0  0  0  0  0
   16.3933   -0.6900    0.0000 H   0  0  0  0  0  0  0  0  0  0  0  0
 15  1  1  6  0  0  0
  1 30  1  0  0  0  0
 19  2  1  1  0  0  0
  2 66  1  0  0  0  0
  3 21  2  0  0  0  0
  4 25  2  0  0  0  0
  5 41  1  0  0  0  0
  5 43  1  0  0  0  0
  6 41  2  0  0  0  0
  7 13  1  0  0  0  0
  7 16  1  0  0  0  0
  7 18  1  0  0  0  0
  8 21  1  0  0  0  0
  8 23  1  0  0  0  0
  8 64  1  0  0  0  0
 20  9  1  1  0  0  0
  9 25  1  0  0  0  0
  9 65  1  0  0  0  0
 29 10  1  1  0  0  0
 10 41  1  0  0  0  0
 10 80  1  0  0  0  0
 11 30  2  0  0  0  0
 11 39  1  0  0  0  0
 12 30  1  0  0  0  0
 12 40  2  0  0  0  0
 13 14  1  0  0  0  0
 13 21  1  6  0  0  0
 13 50  1  0  0  0  0
 14 15  1  0  0  0  0
 14 51  1  0  0  0  0
 14 52  1  0  0  0  0
 15 17  1  0  0  0  0
 15 53  1  0  0  0  0
 16 17  1  0  0  0  0
 16 54  1  0  0  0  0
 16 55  1  0  0  0  0
 17 56  1  0  0  0  0
 17 57  1  0  0  0  0
 18 19  1  0  0  0  0
 18 58  1  0  0  0  0
 18 59  1  0  0  0  0
 19 20  1  0  0  0  0
 19 60  1  0  0  0  0
 20 22  1  0  0  0  0
 20 61  1  0  0  0  0
 22 24  1  0  0  0  0
 22 62  1  0  0  0  0
 22 63  1  0  0  0  0
 23 26  1  0  0  0  0
 23 27  1  0  0  0  0
 23 28  1  0  0  0  0
 24 32  2  0  0  0  0
 24 33  1  0  0  0  0
 25 29  1  0  0  0  0
 26 67  1  0  0  0  0
 26 68  1  0  0  0  0
 26 69  1  0  0  0  0
 27 70  1  0  0  0  0
 27 71  1  0  0  0  0
 27 72  1  0  0  0  0
 28 73  1  0  0  0  0
 28 74  1  0  0  0  0
 28 75  1  0  0  0  0
 29 31  1  0  0  0  0
 29 76  1  0  0  0  0
 31 34  1  0  0  0  0
 31 35  1  0  0  0  0
 31 77  1  0  0  0  0
 32 36  1  0  0  0  0
 32 78  1  0  0  0  0
 33 37  2  0  0  0  0
 33 79  1  0  0  0  0
 34 81  1  0  0  0  0
 34 82  1  0  0  0  0
 34 83  1  0  0  0  0
 35 84  1  0  0  0  0
 35 85  1  0  0  0  0
 35 86  1  0  0  0  0
 36 38  2  0  0  0  0
 36 87  1  0  0  0  0
 37 38  1  0  0  0  0
 37 88  1  0  0  0  0
 38 89  1  0  0  0  0
 39 42  2  0  0  0  0
 39 90  1  0  0  0  0
 40 42  1  0  0  0  0
 40 91  1  0  0  0  0
 42 92  1  0  0  0  0
 43 44  1  0  0  0  0
 43 93  1  0  0  0  0
 43 94  1  0  0  0  0
 44 45  2  0  0  0  0
 44 46  1  0  0  0  0
 45 47  1  0  0  0  0
 45 95  1  0  0  0  0
 46 48  2  0  0  0  0
 46 96  1  0  0  0  0
 47 49  2  0  0  0  0
 47 97  1  0  0  0  0
 48 49  1  0  0  0  0
 48 98  1  0  0  0  0
 49 99  1  0  0  0  0
M  END
> <PUBCHEM_COMPOUND_CID>
503200
> <PUBCHEM_COMPOUND_CANONICALIZED>
1
> <PUBCHEM_CACTVS_COMPLEXITY>
1030
> <PUBCHEM_CACTVS_HBOND_ACCEPTOR>
9
> <PUBCHEM_CACTVS_HBOND_DONOR>
4
> <PUBCHEM_CACTVS_ROTATABLE_BOND>
16
> <PUBCHEM_CACTVS_SUBSKEYS>
AAADcfB/uABAAAAAAAAAAAAAAAAAAAAAAAA8eIEAAAAAAAAB0AAAHgQQCAAADbzl2ga/mJfIFgioAjF3fACC0ClxArAJ2KG4bJmKfrLg+XmcdAgs1gPYqCeYyKAOAAAAAAAAAAAAAAAAAAAAAAAAAAAAAA==
> <PUBCHEM_IUPAC_OPENEYE_NAME>
benzyl N-[(1S)-1-[[(1S,2R)-1-benzyl-3-[(2S,4R)-2-(tert-butylcarbamoyl)-4-pyrimidin-2-ylsulfanyl-1-piperidyl]-2-hydroxy-propyl]carbamoyl]-2-methyl-propyl]carbamate
> <PUBCHEM_IUPAC_CAS_NAME>
N-[(2S)-1-[[(2S,3R)-4-[(2S,4R)-2-[(tert-butylamino)-oxomethyl]-4-(2-pyrimidinylthio)-1-piperidinyl]-3-hydroxy-1-phenylbutan-2-yl]amino]-3-methyl-1-oxobutan-2-yl]carbamic acid (phenylmethyl) ester
> <PUBCHEM_IUPAC_NAME_MARKUP>
benzyl <I>N</I>-[(2<I>S</I>)-1-[[(2<I>S</I>,3<I>R</I>)-4-[(2<I>S</I>,4<I>R</I>)-2-(<I>tert</I>-butylcarbamoyl)-4-pyrimidin-2-ylsulfanylpiperidin-1-yl]-3-hydroxy-1-phenylbutan-2-yl]amino]-3-methyl-1-oxobutan-2-yl]carbamate
> <PUBCHEM_IUPAC_NAME>
benzyl N-[(2S)-1-[[(2S,3R)-4-[(2S,4R)-2-(tert-butylcarbamoyl)-4-pyrimidin-2-ylsulfanylpiperidin-1-yl]-3-hydroxy-1-phenylbutan-2-yl]amino]-3-methyl-1-oxobutan-2-yl]carbamate
> <PUBCHEM_IUPAC_SYSTEMATIC_NAME>
(phenylmethyl) N-[(2S)-1-[[(2S,3R)-4-[(2S,4R)-2-(tert-butylcarbamoyl)-4-pyrimidin-2-ylsulfanyl-piperidin-1-yl]-3-oxidanyl-1-phenyl-butan-2-yl]amino]-3-methyl-1-oxidanylidene-butan-2-yl]carbamate
> <PUBCHEM_IUPAC_TRADITIONAL_NAME>
N-[(1S)-1-[[(1S,2R)-1-benzyl-3-[(2S,4R)-2-(tert-butylcarbamoyl)-4-(2-pyrimidylthio)piperidino]-2-hydroxy-propyl]carbamoyl]-2-methyl-propyl]carbamic acid benzyl ester
> <PUBCHEM_IUPAC_INCHI>
InChI=1S/C37H50N6O5S/c1-25(2)32(41-36(47)48-24-27-15-10-7-11-16-27)34(46)40-29(21-26-13-8-6-9-14-26)31(44)23-43-20-17-28(49-35-38-18-12-19-39-35)22-30(43)33(45)42-37(3,4)5/h6-16,18-19,25,28-32,44H,17,20-24H2,1-5H3,(H,40,46)(H,41,47)(H,42,45)/t28-,29+,30+,31-,32+/m1/s1
> <PUBCHEM_IUPAC_INCHIKEY>
APGODHAMYGUGEP-MQSWGENCSA-N
> <PUBCHEM_XLOGP3_AA>
5.3
> <PUBCHEM_EXACT_MASS>
690.35633989
> <PUBCHEM_MOLECULAR_FORMULA>
C37H50N6O5S
> <PUBCHEM_MOLECULAR_WEIGHT>
690.9
> <PUBCHEM_OPENEYE_CAN_SMILES>
CC(C)C(C(=O)NC(CC1=CC=CC=C1)C(CN2CCC(CC2C(=O)NC(C)(C)C)SC3=NC=CC=N3)O)NC(=O)OCC4=CC=CC=C4
> <PUBCHEM_OPENEYE_ISO_SMILES>
CC(C)[C@@H](C(=O)N[C@@H](CC1=CC=CC=C1)[C@@H](CN2CC[C@H](C[C@H]2C(=O)NC(C)(C)C)SC3=NC=CC=N3)O)NC(=O)OCC4=CC=CC=C4
> <PUBCHEM_CACTVS_TPSA>
171
> <PUBCHEM_MONOISOTOPIC_WEIGHT>
690.35633989
> <PUBCHEM_TOTAL_CHARGE>
0
> <PUBCHEM_HEAVY_ATOM_COUNT>
49
> <PUBCHEM_ATOM_DEF_STEREO_COUNT>
5
> <PUBCHEM_ATOM_UDEF_STEREO_COUNT>
0
> <PUBCHEM_BOND_DEF_STEREO_COUNT>
0
> <PUBCHEM_BOND_UDEF_STEREO_COUNT>
0
> <PUBCHEM_ISOTOPIC_ATOM_COUNT>
0
> <PUBCHEM_COMPONENT_COUNT>
1
> <PUBCHEM_CACTVS_TAUTO_COUNT>
-1
> <PUBCHEM_COORDINATE_TYPE>
1
5
255
> <PUBCHEM_BONDANNOTATIONS>
15  1  6
29  10  5
11  30  8
11  39  8
12  30  8
12  40  8
13  21  6
19  2  5
24  32  8
24  33  8
32  36  8
33  37  8
36  38  8
37  38  8
39  42  8
40  42  8
44  45  8
44  46  8
45  47  8
46  48  8
47  49  8
48  49  8
20  9  5
$$$$
