503248
  -OEChem-10302200282D
128134  0     1  0  0  0  0  0999 V2000
    9.7942    1.2977    0.0000 S   0  0  0  0  0  0  0  0  0  0  0  0
   11.4693    4.3855    0.0000 O   0  0  0  0  0  0  0  0  0  0  0  0
    8.9002    4.0765    0.0000 O   0  0  0  0  0  0  0  0  0  0  0  0
    9.5725    6.1456    0.0000 O   0  0  0  0  0  0  0  0  0  0  0  0
    7.1962   -1.2023    0.0000 O   0  0  0  0  0  0  0  0  0  0  0  0
    7.1962   -4.2023    0.0000 O   0  0  0  0  0  0  0  0  0  0  0  0
    5.4641   -3.2023    0.0000 O   0  0  0  0  0  0  0  0  0  0  0  0
    8.9282   -3.2023    0.0000 O   0  0  0  0  0  0  0  0  0  0  0  0
    9.7942    2.2977    0.0000 O   0  0  0  0  0  0  0  0  0  0  0  0
    8.9282   -1.2023    0.0000 O   0  0  0  0  0  0  0  0  0  0  0  0
    5.4641   -0.2023    0.0000 O   0  0  0  0  0  0  0  0  0  0  0  0
   12.9578    4.4598    0.0000 O   0  0  0  0  0  0  0  0  0  0  0  0
   10.7942    1.2977    0.0000 O   0  0  0  0  0  0  0  0  0  0  0  0
    8.7942    1.2977    0.0000 O   0  0  0  0  0  0  0  0  0  0  0  0
    8.0622    0.2977    0.0000 O   0  0  0  0  0  0  0  0  0  0  0  0
   14.4764    7.5733    0.0000 O   0  0  0  0  0  0  0  0  0  0  0  0
   11.9893    5.8957    0.0000 N   0  0  0  0  0  0  0  0  0  0  0  0
   13.7171    6.0165    0.0000 N   0  0  0  0  0  0  0  0  0  0  0  0
    9.7942    0.2977    0.0000 N   0  0  0  0  0  0  0  0  0  0  0  0
    9.8512    4.3855    0.0000 C   0  0  1  0  0  0  0  0  0  0  0  0
   10.1603    5.3365    0.0000 C   0  0  2  0  0  0  0  0  0  0  0  0
   10.6603    3.7977    0.0000 C   0  0  1  0  0  0  0  0  0  0  0  0
   11.1603    5.3365    0.0000 C   0  0  1  0  0  0  0  0  0  0  0  0
    7.1962   -3.2023    0.0000 C   0  0  1  0  0  0  0  0  0  0  0  0
    6.3301   -2.7023    0.0000 C   0  0  1  0  0  0  0  0  0  0  0  0
    8.0622   -2.7023    0.0000 C   0  0  2  0  0  0  0  0  0  0  0  0
   10.6603    2.7977    0.0000 C   0  0  0  0  0  0  0  0  0  0  0  0
    6.3301   -1.7023    0.0000 C   0  0  1  0  0  0  0  0  0  0  0  0
    8.0622   -1.7023    0.0000 C   0  0  2  0  0  0  0  0  0  0  0  0
    8.1570    4.7456    0.0000 C   0  0  0  0  0  0  0  0  0  0  0  0
    9.6422    7.1431    0.0000 C   0  0  0  0  0  0  0  0  0  0  0  0
    5.4641   -1.2023    0.0000 C   0  0  0  0  0  0  0  0  0  0  0  0
   12.8881    5.4574    0.0000 C   0  0  0  0  0  0  0  0  0  0  0  0
   11.9195    6.8933    0.0000 C   0  0  0  0  0  0  0  0  0  0  0  0
    7.2060    4.4366    0.0000 C   0  0  0  0  0  0  0  0  0  0  0  0
    8.3650    5.7237    0.0000 C   0  0  0  0  0  0  0  0  0  0  0  0
    8.8132    7.7023    0.0000 C   0  0  0  0  0  0  0  0  0  0  0  0
   10.5410    7.5815    0.0000 C   0  0  0  0  0  0  0  0  0  0  0  0
    6.3301   -4.7023    0.0000 C   0  0  0  0  0  0  0  0  0  0  0  0
    4.5981   -2.7023    0.0000 C   0  0  0  0  0  0  0  0  0  0  0  0
    9.7942   -2.7023    0.0000 C   0  0  0  0  0  0  0  0  0  0  0  0
   12.7486    7.4525    0.0000 C   0  0  0  0  0  0  0  0  0  0  0  0
    8.9282   -0.2023    0.0000 C   0  0  0  0  0  0  0  0  0  0  0  0
   13.6474    7.0141    0.0000 C   0  0  0  0  0  0  0  0  0  0  0  0
    6.3301   -5.7023    0.0000 C   0  0  0  0  0  0  0  0  0  0  0  0
    3.7320   -3.2023    0.0000 C   0  0  0  0  0  0  0  0  0  0  0  0
    4.5981    0.2977    0.0000 C   0  0  0  0  0  0  0  0  0  0  0  0
   10.6603   -3.2023    0.0000 C   0  0  0  0  0  0  0  0  0  0  0  0
    4.5981    1.2977    0.0000 C   0  0  0  0  0  0  0  0  0  0  0  0
    7.1962   -6.2023    0.0000 C   0  0  0  0  0  0  0  0  0  0  0  0
    5.4641   -6.2023    0.0000 C   0  0  0  0  0  0  0  0  0  0  0  0
    3.7320   -4.2023    0.0000 C   0  0  0  0  0  0  0  0  0  0  0  0
    2.8660   -2.7023    0.0000 C   0  0  0  0  0  0  0  0  0  0  0  0
   11.5263   -2.7023    0.0000 C   0  0  0  0  0  0  0  0  0  0  0  0
   10.6603   -4.2023    0.0000 C   0  0  0  0  0  0  0  0  0  0  0  0
    7.1962   -7.2023    0.0000 C   0  0  0  0  0  0  0  0  0  0  0  0
    5.4641   -7.2023    0.0000 C   0  0  0  0  0  0  0  0  0  0  0  0
    2.8660   -4.7023    0.0000 C   0  0  0  0  0  0  0  0  0  0  0  0
    2.0000   -3.2023    0.0000 C   0  0  0  0  0  0  0  0  0  0  0  0
   12.3923   -3.2023    0.0000 C   0  0  0  0  0  0  0  0  0  0  0  0
   11.5263   -4.7023    0.0000 C   0  0  0  0  0  0  0  0  0  0  0  0
    3.7320    1.7977    0.0000 C   0  0  0  0  0  0  0  0  0  0  0  0
    5.4641    1.7977    0.0000 C   0  0  0  0  0  0  0  0  0  0  0  0
    6.3301   -7.7023    0.0000 C   0  0  0  0  0  0  0  0  0  0  0  0
    2.0000   -4.2023    0.0000 C   0  0  0  0  0  0  0  0  0  0  0  0
   12.3923   -4.2023    0.0000 C   0  0  0  0  0  0  0  0  0  0  0  0
    3.7320    2.7977    0.0000 C   0  0  0  0  0  0  0  0  0  0  0  0
    5.4641    2.7977    0.0000 C   0  0  0  0  0  0  0  0  0  0  0  0
    4.5981    3.2977    0.0000 C   0  0  0  0  0  0  0  0  0  0  0  0
    9.4128    4.8239    0.0000 H   0  0  0  0  0  0  0  0  0  0  0  0
   10.4417    5.8890    0.0000 H   0  0  0  0  0  0  0  0  0  0  0  0
   11.2127    3.5162    0.0000 H   0  0  0  0  0  0  0  0  0  0  0  0
   10.9790    5.9294    0.0000 H   0  0  0  0  0  0  0  0  0  0  0  0
    6.6592   -3.5123    0.0000 H   0  0  0  0  0  0  0  0  0  0  0  0
    6.3301   -3.3223    0.0000 H   0  0  0  0  0  0  0  0  0  0  0  0
    8.0622   -3.3223    0.0000 H   0  0  0  0  0  0  0  0  0  0  0  0
    6.3301   -1.0823    0.0000 H   0  0  0  0  0  0  0  0  0  0  0  0
   10.8723    2.2151    0.0000 H   0  0  0  0  0  0  0  0  0  0  0  0
   11.2708    2.9054    0.0000 H   0  0  0  0  0  0  0  0  0  0  0  0
    8.0622   -1.0823    0.0000 H   0  0  0  0  0  0  0  0  0  0  0  0
    8.7467    4.9372    0.0000 H   0  0  0  0  0  0  0  0  0  0  0  0
   10.1562    6.7964    0.0000 H   0  0  0  0  0  0  0  0  0  0  0  0
    4.8535   -1.0946    0.0000 H   0  0  0  0  0  0  0  0  0  0  0  0
    5.2520   -1.7849    0.0000 H   0  0  0  0  0  0  0  0  0  0  0  0
   11.3623    7.1651    0.0000 H   0  0  0  0  0  0  0  0  0  0  0  0
    7.0144    5.0262    0.0000 H   0  0  0  0  0  0  0  0  0  0  0  0
    6.6163    4.2450    0.0000 H   0  0  0  0  0  0  0  0  0  0  0  0
    7.3976    3.8469    0.0000 H   0  0  0  0  0  0  0  0  0  0  0  0
    8.9714    5.5948    0.0000 H   0  0  0  0  0  0  0  0  0  0  0  0
    8.4938    6.3302    0.0000 H   0  0  0  0  0  0  0  0  0  0  0  0
    7.7585    5.8526    0.0000 H   0  0  0  0  0  0  0  0  0  0  0  0
    9.1599    8.2163    0.0000 H   0  0  0  0  0  0  0  0  0  0  0  0
    8.2992    8.0490    0.0000 H   0  0  0  0  0  0  0  0  0  0  0  0
    8.4665    7.1883    0.0000 H   0  0  0  0  0  0  0  0  0  0  0  0
   10.8128    7.0242    0.0000 H   0  0  0  0  0  0  0  0  0  0  0  0
   11.0983    7.8533    0.0000 H   0  0  0  0  0  0  0  0  0  0  0  0
   10.2692    8.1387    0.0000 H   0  0  0  0  0  0  0  0  0  0  0  0
    6.1181   -4.1197    0.0000 H   0  0  0  0  0  0  0  0  0  0  0  0
    5.7196   -4.8100    0.0000 H   0  0  0  0  0  0  0  0  0  0  0  0
    4.9966   -2.2274    0.0000 H   0  0  0  0  0  0  0  0  0  0  0  0
    4.1996   -2.2274    0.0000 H   0  0  0  0  0  0  0  0  0  0  0  0
   10.1928   -2.2274    0.0000 H   0  0  0  0  0  0  0  0  0  0  0  0
    9.3957   -2.2274    0.0000 H   0  0  0  0  0  0  0  0  0  0  0  0
   14.2744    5.7448    0.0000 H   0  0  0  0  0  0  0  0  0  0  0  0
   12.7053    8.0710    0.0000 H   0  0  0  0  0  0  0  0  0  0  0  0
   10.3312   -0.0123    0.0000 H   0  0  0  0  0  0  0  0  0  0  0  0
    3.9875    0.4054    0.0000 H   0  0  0  0  0  0  0  0  0  0  0  0
    4.3860   -0.2849    0.0000 H   0  0  0  0  0  0  0  0  0  0  0  0
    7.7331   -5.8923    0.0000 H   0  0  0  0  0  0  0  0  0  0  0  0
    4.9272   -5.8923    0.0000 H   0  0  0  0  0  0  0  0  0  0  0  0
    4.2690   -4.5123    0.0000 H   0  0  0  0  0  0  0  0  0  0  0  0
    2.8660   -2.0823    0.0000 H   0  0  0  0  0  0  0  0  0  0  0  0
   11.5263   -2.0823    0.0000 H   0  0  0  0  0  0  0  0  0  0  0  0
   10.1233   -4.5123    0.0000 H   0  0  0  0  0  0  0  0  0  0  0  0
    7.7331   -7.5123    0.0000 H   0  0  0  0  0  0  0  0  0  0  0  0
    4.9272   -7.5123    0.0000 H   0  0  0  0  0  0  0  0  0  0  0  0
    2.8660   -5.3223    0.0000 H   0  0  0  0  0  0  0  0  0  0  0  0
    1.4631   -2.8923    0.0000 H   0  0  0  0  0  0  0  0  0  0  0  0
   12.9292   -2.8923    0.0000 H   0  0  0  0  0  0  0  0  0  0  0  0
   11.5263   -5.3223    0.0000 H   0  0  0  0  0  0  0  0  0  0  0  0
    3.1951    1.4877    0.0000 H   0  0  0  0  0  0  0  0  0  0  0  0
    6.0010    1.4877    0.0000 H   0  0  0  0  0  0  0  0  0  0  0  0
    6.3301   -8.3223    0.0000 H   0  0  0  0  0  0  0  0  0  0  0  0
    1.4631   -4.5123    0.0000 H   0  0  0  0  0  0  0  0  0  0  0  0
   12.9292   -4.5123    0.0000 H   0  0  0  0  0  0  0  0  0  0  0  0
    3.1951    3.1077    0.0000 H   0  0  0  0  0  0  0  0  0  0  0  0
    6.0010    3.1077    0.0000 H   0  0  0  0  0  0  0  0  0  0  0  0
    4.5981    3.9177    0.0000 H   0  0  0  0  0  0  0  0  0  0  0  0
  1  9  1  0  0  0  0
  1 13  2  0  0  0  0
  1 14  2  0  0  0  0
  1 19  1  0  0  0  0
  2 22  1  0  0  0  0
  2 23  1  0  0  0  0
 20  3  1  1  0  0  0
  3 30  1  0  0  0  0
 21  4  1  1  0  0  0
  4 31  1  0  0  0  0
  5 28  1  0  0  0  0
  5 29  1  0  0  0  0
 24  6  1  1  0  0  0
  6 39  1  0  0  0  0
 25  7  1  6  0  0  0
  7 40  1  0  0  0  0
 26  8  1  6  0  0  0
  8 41  1  0  0  0  0
  9 27  1  0  0  0  0
 29 10  1  6  0  0  0
 10 43  1  0  0  0  0
 11 32  1  0  0  0  0
 11 47  1  0  0  0  0
 12 33  2  0  0  0  0
 15 43  2  0  0  0  0
 16 44  2  0  0  0  0
 23 17  1  6  0  0  0
 17 33  1  0  0  0  0
 17 34  1  0  0  0  0
 18 33  1  0  0  0  0
 18 44  1  0  0  0  0
 18104  1  0  0  0  0
 19 43  1  0  0  0  0
 19106  1  0  0  0  0
 20 21  1  0  0  0  0
 20 22  1  0  0  0  0
 20 70  1  0  0  0  0
 21 23  1  0  0  0  0
 21 71  1  0  0  0  0
 22 27  1  6  0  0  0
 22 72  1  0  0  0  0
 23 73  1  0  0  0  0
 24 25  1  0  0  0  0
 24 26  1  0  0  0  0
 24 74  1  0  0  0  0
 25 28  1  0  0  0  0
 25 75  1  0  0  0  0
 26 29  1  0  0  0  0
 26 76  1  0  0  0  0
 27 78  1  0  0  0  0
 27 79  1  0  0  0  0
 28 32  1  1  0  0  0
 28 77  1  0  0  0  0
 29 80  1  0  0  0  0
 30 35  1  0  0  0  0
 30 36  1  0  0  0  0
 30 81  1  0  0  0  0
 31 37  1  0  0  0  0
 31 38  1  0  0  0  0
 31 82  1  0  0  0  0
 32 83  1  0  0  0  0
 32 84  1  0  0  0  0
 34 42  2  0  0  0  0
 34 85  1  0  0  0  0
 35 86  1  0  0  0  0
 35 87  1  0  0  0  0
 35 88  1  0  0  0  0
 36 89  1  0  0  0  0
 36 90  1  0  0  0  0
 36 91  1  0  0  0  0
 37 92  1  0  0  0  0
 37 93  1  0  0  0  0
 37 94  1  0  0  0  0
 38 95  1  0  0  0  0
 38 96  1  0  0  0  0
 38 97  1  0  0  0  0
 39 45  1  0  0  0  0
 39 98  1  0  0  0  0
 39 99  1  0  0  0  0
 40 46  1  0  0  0  0
 40100  1  0  0  0  0
 40101  1  0  0  0  0
 41 48  1  0  0  0  0
 41102  1  0  0  0  0
 41103  1  0  0  0  0
 42 44  1  0  0  0  0
 42105  1  0  0  0  0
 45 50  2  0  0  0  0
 45 51  1  0  0  0  0
 46 52  2  0  0  0  0
 46 53  1  0  0  0  0
 47 49  1  0  0  0  0
 47107  1  0  0  0  0
 47108  1  0  0  0  0
 48 54  2  0  0  0  0
 48 55  1  0  0  0  0
 49 62  2  0  0  0  0
 49 63  1  0  0  0  0
 50 56  1  0  0  0  0
 50109  1  0  0  0  0
 51 57  2  0  0  0  0
 51110  1  0  0  0  0
 52 58  1  0  0  0  0
 52111  1  0  0  0  0
 53 59  2  0  0  0  0
 53112  1  0  0  0  0
 54 60  1  0  0  0  0
 54113  1  0  0  0  0
 55 61  2  0  0  0  0
 55114  1  0  0  0  0
 56 64  2  0  0  0  0
 56115  1  0  0  0  0
 57 64  1  0  0  0  0
 57116  1  0  0  0  0
 58 65  2  0  0  0  0
 58117  1  0  0  0  0
 59 65  1  0  0  0  0
 59118  1  0  0  0  0
 60 66  2  0  0  0  0
 60119  1  0  0  0  0
 61 66  1  0  0  0  0
 61120  1  0  0  0  0
 62 67  1  0  0  0  0
 62121  1  0  0  0  0
 63 68  2  0  0  0  0
 63122  1  0  0  0  0
 64123  1  0  0  0  0
 65124  1  0  0  0  0
 66125  1  0  0  0  0
 67 69  2  0  0  0  0
 67126  1  0  0  0  0
 68 69  1  0  0  0  0
 68127  1  0  0  0  0
 69128  1  0  0  0  0
M  END
> <PUBCHEM_COMPOUND_CID>
503248
> <PUBCHEM_COMPOUND_CANONICALIZED>
1
> <PUBCHEM_CACTVS_COMPLEXITY>
1730
> <PUBCHEM_CACTVS_HBOND_ACCEPTOR>
15
> <PUBCHEM_CACTVS_HBOND_DONOR>
2
> <PUBCHEM_CACTVS_ROTATABLE_BOND>
24
> <PUBCHEM_CACTVS_SUBSKEYS>
AAADcfB/PABAAAAAAAAAAAAAAAAAASAAAAA0YMGCAAAAAAABVAAAHgAQQAAADBTxmAczCIPABACIAiFWWDCCAAAgAgAIiAAICMmbJiKAsRivMAAv1yMeqMfw8C4OAAAAAAAAAAAAAAAAAAAAAAAAAAAAAA==
> <PUBCHEM_IUPAC_OPENEYE_NAME>
[(2R,3R,4S,5R,6R)-3,4,5-tribenzyloxy-6-(benzyloxymethyl)tetrahydropyran-2-yl] N-[[(2R,3R,4R,5R)-5-(2,4-dioxopyrimidin-1-yl)-3,4-diisopropoxy-tetrahydrofuran-2-yl]methoxysulfonyl]carbamate
> <PUBCHEM_IUPAC_CAS_NAME>
N-[[(2R,3R,4R,5R)-5-(2,4-dioxo-1-pyrimidinyl)-3,4-di(propan-2-yloxy)-2-oxolanyl]methoxysulfonyl]carbamic acid [(2R,3R,4S,5R,6R)-3,4,5-tris(phenylmethoxy)-6-(phenylmethoxymethyl)-2-oxanyl] ester
> <PUBCHEM_IUPAC_NAME_MARKUP>
[(2<I>R</I>,3<I>R</I>,4<I>S</I>,5<I>R</I>,6<I>R</I>)-3,4,5-tris(phenylmethoxy)-6-(phenylmethoxymethyl)oxan-2-yl] <I>N</I>-[[(2<I>R</I>,3<I>R</I>,4<I>R</I>,5<I>R</I>)-5-(2,4-dioxopyrimidin-1-yl)-3,4-di(propan-2-yloxy)oxolan-2-yl]methoxysulfonyl]carbamate
> <PUBCHEM_IUPAC_NAME>
[(2R,3R,4S,5R,6R)-3,4,5-tris(phenylmethoxy)-6-(phenylmethoxymethyl)oxan-2-yl] N-[[(2R,3R,4R,5R)-5-(2,4-dioxopyrimidin-1-yl)-3,4-di(propan-2-yloxy)oxolan-2-yl]methoxysulfonyl]carbamate
> <PUBCHEM_IUPAC_SYSTEMATIC_NAME>
[(2R,3R,4S,5R,6R)-3,4,5-tris(phenylmethoxy)-6-(phenylmethoxymethyl)oxan-2-yl] N-[[(2R,3R,4R,5R)-5-[2,4-bis(oxidanylidene)pyrimidin-1-yl]-3,4-di(propan-2-yloxy)oxolan-2-yl]methoxysulfonyl]carbamate
> <PUBCHEM_IUPAC_TRADITIONAL_NAME>
N-[[(2R,3R,4R,5R)-5-(2,4-diketopyrimidin-1-yl)-3,4-diisopropoxy-tetrahydrofuran-2-yl]methoxysulfonyl]carbamic acid [(2R,3R,4S,5R,6R)-3,4,5-tribenzoxy-6-(benzoxymethyl)tetrahydropyran-2-yl] ester
> <PUBCHEM_IUPAC_INCHI>
InChI=1S/C50H59N3O15S/c1-33(2)64-43-40(66-47(45(43)65-34(3)4)53-26-25-41(54)51-49(53)55)32-63-69(57,58)52-50(56)68-48-46(62-30-38-23-15-8-16-24-38)44(61-29-37-21-13-7-14-22-37)42(60-28-36-19-11-6-12-20-36)39(67-48)31-59-27-35-17-9-5-10-18-35/h5-26,33-34,39-40,42-48H,27-32H2,1-4H3,(H,52,56)(H,51,54,55)/t39-,40-,42-,43-,44+,45-,46-,47-,48-/m1/s1
> <PUBCHEM_IUPAC_INCHIKEY>
BOSHOIVKPSVJEW-SPQLNONLSA-N
> <PUBCHEM_XLOGP3_AA>
5.3
> <PUBCHEM_EXACT_MASS>
973.36668936
> <PUBCHEM_MOLECULAR_FORMULA>
C50H59N3O15S
> <PUBCHEM_MOLECULAR_WEIGHT>
974.1
> <PUBCHEM_OPENEYE_CAN_SMILES>
CC(C)OC1C(OC(C1OC(C)C)N2C=CC(=O)NC2=O)COS(=O)(=O)NC(=O)OC3C(C(C(C(O3)COCC4=CC=CC=C4)OCC5=CC=CC=C5)OCC6=CC=CC=C6)OCC7=CC=CC=C7
> <PUBCHEM_OPENEYE_ISO_SMILES>
CC(C)O[C@@H]1[C@H](O[C@H]([C@@H]1OC(C)C)N2C=CC(=O)NC2=O)COS(=O)(=O)NC(=O)O[C@@H]3[C@@H]([C@H]([C@@H]([C@H](O3)COCC4=CC=CC=C4)OCC5=CC=CC=C5)OCC6=CC=CC=C6)OCC7=CC=CC=C7
> <PUBCHEM_CACTVS_TPSA>
213
> <PUBCHEM_MONOISOTOPIC_WEIGHT>
973.36668936
> <PUBCHEM_TOTAL_CHARGE>
0
> <PUBCHEM_HEAVY_ATOM_COUNT>
69
> <PUBCHEM_ATOM_DEF_STEREO_COUNT>
9
> <PUBCHEM_ATOM_UDEF_STEREO_COUNT>
0
> <PUBCHEM_BOND_DEF_STEREO_COUNT>
0
> <PUBCHEM_BOND_UDEF_STEREO_COUNT>
0
> <PUBCHEM_ISOTOPIC_ATOM_COUNT>
0
> <PUBCHEM_COMPONENT_COUNT>
1
> <PUBCHEM_CACTVS_TAUTO_COUNT>
-1
> <PUBCHEM_COORDINATE_TYPE>
1
5
255
> <PUBCHEM_BONDANNOTATIONS>
29  10  6
23  17  6
17  33  8
17  34  8
18  33  8
18  44  8
22  27  6
28  32  5
20  3  5
34  42  8
21  4  5
42  44  8
45  50  8
45  51  8
46  52  8
46  53  8
48  54  8
48  55  8
49  62  8
49  63  8
50  56  8
51  57  8
52  58  8
53  59  8
54  60  8
55  61  8
56  64  8
57  64  8
58  65  8
59  65  8
24  6  5
60  66  8
61  66  8
62  67  8
63  68  8
67  69  8
68  69  8
25  7  6
26  8  6
$$$$
