503317
  -OEChem-10302200282D
 39 40  0     1  0  0  0  0  0999 V2000
    7.1962    0.8815    0.0000 S   0  0  0  0  0  0  0  0  0  0  0  0
    6.2731   -0.7063    0.0000 O   0  0  0  0  0  0  0  0  0  0  0  0
    6.1452   -3.3799    0.0000 O   0  0  0  0  0  0  0  0  0  0  0  0
    5.4641    3.8815    0.0000 O   0  0  0  0  0  0  0  0  0  0  0  0
    5.4641    0.8815    0.0000 N   0  0  0  0  0  0  0  0  0  0  0  0
    6.3301    2.3815    0.0000 N   0  0  0  0  0  0  0  0  0  0  0  0
    5.4641   -0.1185    0.0000 C   0  0  1  0  0  0  0  0  0  0  0  0
    4.6551   -0.7063    0.0000 C   0  0  0  0  0  0  0  0  0  0  0  0
    4.9641   -1.6573    0.0000 C   0  0  0  0  0  0  0  0  0  0  0  0
    5.9641   -1.6573    0.0000 C   0  0  1  0  0  0  0  0  0  0  0  0
    6.5519   -2.4664    0.0000 C   0  0  0  0  0  0  0  0  0  0  0  0
    4.5981    1.3815    0.0000 C   0  0  0  0  0  0  0  0  0  0  0  0
    6.3301    1.3815    0.0000 C   0  0  0  0  0  0  0  0  0  0  0  0
    4.5981    2.3815    0.0000 C   0  0  0  0  0  0  0  0  0  0  0  0
    3.7320    2.8815    0.0000 C   0  0  0  0  0  0  0  0  0  0  0  0
    5.4641    2.8815    0.0000 C   0  0  0  0  0  0  0  0  0  0  0  0
    2.8660    2.3815    0.0000 C   0  0  0  0  0  0  0  0  0  0  0  0
    2.0000    2.8815    0.0000 C   0  0  0  0  0  0  0  0  0  0  0  0
    8.0622    1.3815    0.0000 C   0  0  0  0  0  0  0  0  0  0  0  0
    6.0165    0.1630    0.0000 H   0  0  0  0  0  0  0  0  0  0  0  0
    4.3451   -0.1694    0.0000 H   0  0  0  0  0  0  0  0  0  0  0  0
    4.0887   -0.9585    0.0000 H   0  0  0  0  0  0  0  0  0  0  0  0
    4.3576   -1.7862    0.0000 H   0  0  0  0  0  0  0  0  0  0  0  0
    5.0289   -2.2740    0.0000 H   0  0  0  0  0  0  0  0  0  0  0  0
    6.5765   -1.5603    0.0000 H   0  0  0  0  0  0  0  0  0  0  0  0
    7.0659   -2.8131    0.0000 H   0  0  0  0  0  0  0  0  0  0  0  0
    6.9826   -2.0204    0.0000 H   0  0  0  0  0  0  0  0  0  0  0  0
    4.0611    1.0715    0.0000 H   0  0  0  0  0  0  0  0  0  0  0  0
    4.1306    3.3564    0.0000 H   0  0  0  0  0  0  0  0  0  0  0  0
    3.3335    3.3564    0.0000 H   0  0  0  0  0  0  0  0  0  0  0  0
    2.4675    1.9066    0.0000 H   0  0  0  0  0  0  0  0  0  0  0  0
    3.2646    1.9066    0.0000 H   0  0  0  0  0  0  0  0  0  0  0  0
    6.5096   -3.8815    0.0000 H   0  0  0  0  0  0  0  0  0  0  0  0
    2.3100    3.4184    0.0000 H   0  0  0  0  0  0  0  0  0  0  0  0
    1.4631    3.1915    0.0000 H   0  0  0  0  0  0  0  0  0  0  0  0
    1.6900    2.3446    0.0000 H   0  0  0  0  0  0  0  0  0  0  0  0
    8.3722    0.8446    0.0000 H   0  0  0  0  0  0  0  0  0  0  0  0
    8.5991    1.6915    0.0000 H   0  0  0  0  0  0  0  0  0  0  0  0
    7.7522    1.9184    0.0000 H   0  0  0  0  0  0  0  0  0  0  0  0
  1 13  1  0  0  0  0
  1 19  1  0  0  0  0
  2  7  1  0  0  0  0
  2 10  1  0  0  0  0
  3 11  1  0  0  0  0
  3 33  1  0  0  0  0
  4 16  2  0  0  0  0
  7  5  1  6  0  0  0
  5 12  1  0  0  0  0
  5 13  1  0  0  0  0
  6 13  2  0  0  0  0
  6 16  1  0  0  0  0
  7  8  1  0  0  0  0
  7 20  1  0  0  0  0
  8  9  1  0  0  0  0
  8 21  1  0  0  0  0
  8 22  1  0  0  0  0
  9 10  1  0  0  0  0
  9 23  1  0  0  0  0
  9 24  1  0  0  0  0
 10 11  1  6  0  0  0
 10 25  1  0  0  0  0
 11 26  1  0  0  0  0
 11 27  1  0  0  0  0
 12 14  2  0  0  0  0
 12 28  1  0  0  0  0
 14 15  1  0  0  0  0
 14 16  1  0  0  0  0
 15 17  1  0  0  0  0
 15 29  1  0  0  0  0
 15 30  1  0  0  0  0
 17 18  1  0  0  0  0
 17 31  1  0  0  0  0
 17 32  1  0  0  0  0
 18 34  1  0  0  0  0
 18 35  1  0  0  0  0
 18 36  1  0  0  0  0
 19 37  1  0  0  0  0
 19 38  1  0  0  0  0
 19 39  1  0  0  0  0
M  END
> <PUBCHEM_COMPOUND_CID>
503317
> <PUBCHEM_COMPOUND_CANONICALIZED>
1
> <PUBCHEM_CACTVS_COMPLEXITY>
409
> <PUBCHEM_CACTVS_HBOND_ACCEPTOR>
4
> <PUBCHEM_CACTVS_HBOND_DONOR>
1
> <PUBCHEM_CACTVS_ROTATABLE_BOND>
5
> <PUBCHEM_CACTVS_SUBSKEYS>
AAADceBzMABAAAAAAAAAAAAAAAAAASAAAAAgAAAAAAAAAAAAAAAAHgQACAAADBThgAaDAAMABgioAgFWdACAEAFgAAABAAEIAEgBEBIAiQAOQAAEgAADAMC4MAIAAAAAAAAAAAAAAAAAAAAAAAAAAAAAAA==
> <PUBCHEM_IUPAC_OPENEYE_NAME>
1-[(2R,5S)-5-(hydroxymethyl)tetrahydrofuran-2-yl]-2-methylsulfanyl-5-propyl-pyrimidin-4-one
> <PUBCHEM_IUPAC_CAS_NAME>
1-[(2R,5S)-5-(hydroxymethyl)-2-oxolanyl]-2-(methylthio)-5-propyl-4-pyrimidinone
> <PUBCHEM_IUPAC_NAME_MARKUP>
1-[(2<I>R</I>,5<I>S</I>)-5-(hydroxymethyl)oxolan-2-yl]-2-methylsulfanyl-5-propylpyrimidin-4-one
> <PUBCHEM_IUPAC_NAME>
1-[(2R,5S)-5-(hydroxymethyl)oxolan-2-yl]-2-methylsulfanyl-5-propylpyrimidin-4-one
> <PUBCHEM_IUPAC_SYSTEMATIC_NAME>
1-[(2R,5S)-5-(hydroxymethyl)oxolan-2-yl]-2-methylsulfanyl-5-propyl-pyrimidin-4-one
> <PUBCHEM_IUPAC_TRADITIONAL_NAME>
1-[(2R,5S)-5-methyloltetrahydrofuran-2-yl]-2-(methylthio)-5-propyl-pyrimidin-4-one
> <PUBCHEM_IUPAC_INCHI>
InChI=1S/C13H20N2O3S/c1-3-4-9-7-15(13(19-2)14-12(9)17)11-6-5-10(8-16)18-11/h7,10-11,16H,3-6,8H2,1-2H3/t10-,11+/m0/s1
> <PUBCHEM_IUPAC_INCHIKEY>
PBVQXMJKDSGYJR-WDEREUQCSA-N
> <PUBCHEM_XLOGP3>
1.5
> <PUBCHEM_EXACT_MASS>
284.11946368
> <PUBCHEM_MOLECULAR_FORMULA>
C13H20N2O3S
> <PUBCHEM_MOLECULAR_WEIGHT>
284.38
> <PUBCHEM_OPENEYE_CAN_SMILES>
CCCC1=CN(C(=NC1=O)SC)C2CCC(O2)CO
> <PUBCHEM_OPENEYE_ISO_SMILES>
CCCC1=CN(C(=NC1=O)SC)[C@H]2CC[C@H](O2)CO
> <PUBCHEM_CACTVS_TPSA>
87.4
> <PUBCHEM_MONOISOTOPIC_WEIGHT>
284.11946368
> <PUBCHEM_TOTAL_CHARGE>
0
> <PUBCHEM_HEAVY_ATOM_COUNT>
19
> <PUBCHEM_ATOM_DEF_STEREO_COUNT>
2
> <PUBCHEM_ATOM_UDEF_STEREO_COUNT>
0
> <PUBCHEM_BOND_DEF_STEREO_COUNT>
0
> <PUBCHEM_BOND_UDEF_STEREO_COUNT>
0
> <PUBCHEM_ISOTOPIC_ATOM_COUNT>
0
> <PUBCHEM_COMPONENT_COUNT>
1
> <PUBCHEM_CACTVS_TAUTO_COUNT>
-1
> <PUBCHEM_COORDINATE_TYPE>
1
5
255
> <PUBCHEM_BONDANNOTATIONS>
10  11  6
12  14  8
14  16  8
5  12  8
5  13  8
7  5  6
6  13  8
6  16  8
$$$$
