503311
  -OEChem-10302200282D
 28 29  0     1  0  0  0  0  0999 V2000
    3.3660    3.7475    0.0000 F   0  0  0  0  0  0  0  0  0  0  0  0
    2.0000    3.3815    0.0000 F   0  0  0  0  0  0  0  0  0  0  0  0
    2.3660    2.0155    0.0000 F   0  0  0  0  0  0  0  0  0  0  0  0
    5.4071   -0.7063    0.0000 O   0  0  0  0  0  0  0  0  0  0  0  0
    4.0981   -1.6573    0.0000 O   0  0  0  0  0  0  0  0  0  0  0  0
    5.2791   -3.3799    0.0000 O   0  0  0  0  0  0  0  0  0  0  0  0
    6.3301    0.8815    0.0000 O   0  0  0  0  0  0  0  0  0  0  0  0
    4.5981    3.8815    0.0000 O   0  0  0  0  0  0  0  0  0  0  0  0
    4.5981    0.8815    0.0000 N   0  0  0  0  0  0  0  0  0  0  0  0
    5.4641    2.3815    0.0000 N   0  0  0  0  0  0  0  0  0  0  0  0
    4.5981   -0.1185    0.0000 C   0  0  2  0  0  0  0  0  0  0  0  0
    3.7891   -0.7063    0.0000 C   0  0  0  0  0  0  0  0  0  0  0  0
    5.0981   -1.6573    0.0000 C   0  0  2  0  0  0  0  0  0  0  0  0
    3.7320    1.3815    0.0000 C   0  0  0  0  0  0  0  0  0  0  0  0
    5.6859   -2.4664    0.0000 C   0  0  0  0  0  0  0  0  0  0  0  0
    5.4641    1.3815    0.0000 C   0  0  0  0  0  0  0  0  0  0  0  0
    3.7320    2.3815    0.0000 C   0  0  0  0  0  0  0  0  0  0  0  0
    4.5981    2.8815    0.0000 C   0  0  0  0  0  0  0  0  0  0  0  0
    2.8660    2.8815    0.0000 C   0  0  0  0  0  0  0  0  0  0  0  0
    5.1505    0.1630    0.0000 H   0  0  0  0  0  0  0  0  0  0  0  0
    3.4791   -0.1694    0.0000 H   0  0  0  0  0  0  0  0  0  0  0  0
    3.2227   -0.9585    0.0000 H   0  0  0  0  0  0  0  0  0  0  0  0
    5.7104   -1.5603    0.0000 H   0  0  0  0  0  0  0  0  0  0  0  0
    3.1951    1.0715    0.0000 H   0  0  0  0  0  0  0  0  0  0  0  0
    6.1999   -2.8131    0.0000 H   0  0  0  0  0  0  0  0  0  0  0  0
    6.1166   -2.0204    0.0000 H   0  0  0  0  0  0  0  0  0  0  0  0
    6.0010    2.6915    0.0000 H   0  0  0  0  0  0  0  0  0  0  0  0
    5.6436   -3.8815    0.0000 H   0  0  0  0  0  0  0  0  0  0  0  0
  1 19  1  0  0  0  0
  2 19  1  0  0  0  0
  3 19  1  0  0  0  0
  4 11  1  0  0  0  0
  4 13  1  0  0  0  0
  5 12  1  0  0  0  0
  5 13  1  0  0  0  0
  6 15  1  0  0  0  0
  6 28  1  0  0  0  0
  7 16  2  0  0  0  0
  8 18  2  0  0  0  0
 11  9  1  1  0  0  0
  9 14  1  0  0  0  0
  9 16  1  0  0  0  0
 10 16  1  0  0  0  0
 10 18  1  0  0  0  0
 10 27  1  0  0  0  0
 11 12  1  0  0  0  0
 11 20  1  0  0  0  0
 12 21  1  0  0  0  0
 12 22  1  0  0  0  0
 13 15  1  1  0  0  0
 13 23  1  0  0  0  0
 14 17  2  0  0  0  0
 14 24  1  0  0  0  0
 15 25  1  0  0  0  0
 15 26  1  0  0  0  0
 17 18  1  0  0  0  0
 17 19  1  0  0  0  0
M  END
> <PUBCHEM_COMPOUND_CID>
503311
> <PUBCHEM_COMPOUND_CANONICALIZED>
1
> <PUBCHEM_CACTVS_COMPLEXITY>
436
> <PUBCHEM_CACTVS_HBOND_ACCEPTOR>
8
> <PUBCHEM_CACTVS_HBOND_DONOR>
2
> <PUBCHEM_CACTVS_ROTATABLE_BOND>
2
> <PUBCHEM_CACTVS_SUBSKEYS>
AAADccBzOYAAAAAAAAAAAAAAAAAAASAAAAAgAAAAAAAAAAAAAAAAHwAQCAAADADxgBcBCAPABgCIAgFWUACAAAAAAAAAAAEIAECTEAAAAAAvAAAIByIXAMAAAAAAAAAAAAAAAAAAAAAAAAAAAAAAAAAAAA==
> <PUBCHEM_IUPAC_OPENEYE_NAME>
1-[(2S,4S)-2-(hydroxymethyl)-1,3-dioxolan-4-yl]-5-(trifluoromethyl)pyrimidine-2,4-dione
> <PUBCHEM_IUPAC_CAS_NAME>
1-[(2S,4S)-2-(hydroxymethyl)-1,3-dioxolan-4-yl]-5-(trifluoromethyl)pyrimidine-2,4-dione
> <PUBCHEM_IUPAC_NAME_MARKUP>
1-[(2<I>S</I>,4<I>S</I>)-2-(hydroxymethyl)-1,3-dioxolan-4-yl]-5-(trifluoromethyl)pyrimidine-2,4-dione
> <PUBCHEM_IUPAC_NAME>
1-[(2S,4S)-2-(hydroxymethyl)-1,3-dioxolan-4-yl]-5-(trifluoromethyl)pyrimidine-2,4-dione
> <PUBCHEM_IUPAC_SYSTEMATIC_NAME>
1-[(2S,4S)-2-(hydroxymethyl)-1,3-dioxolan-4-yl]-5-(trifluoromethyl)pyrimidine-2,4-dione
> <PUBCHEM_IUPAC_TRADITIONAL_NAME>
1-[(2S,4S)-2-methylol-1,3-dioxolan-4-yl]-5-(trifluoromethyl)pyrimidine-2,4-quinone
> <PUBCHEM_IUPAC_INCHI>
InChI=1S/C9H9F3N2O5/c10-9(11,12)4-1-14(8(17)13-7(4)16)5-3-18-6(2-15)19-5/h1,5-6,15H,2-3H2,(H,13,16,17)/t5-,6-/m0/s1
> <PUBCHEM_IUPAC_INCHIKEY>
HRUCCLXTXHRWKN-WDSKDSINSA-N
> <PUBCHEM_XLOGP3>
-0.8
> <PUBCHEM_EXACT_MASS>
282.04635588
> <PUBCHEM_MOLECULAR_FORMULA>
C9H9F3N2O5
> <PUBCHEM_MOLECULAR_WEIGHT>
282.17
> <PUBCHEM_OPENEYE_CAN_SMILES>
C1C(OC(O1)CO)N2C=C(C(=O)NC2=O)C(F)(F)F
> <PUBCHEM_OPENEYE_ISO_SMILES>
C1[C@H](O[C@H](O1)CO)N2C=C(C(=O)NC2=O)C(F)(F)F
> <PUBCHEM_CACTVS_TPSA>
88.1
> <PUBCHEM_MONOISOTOPIC_WEIGHT>
282.04635588
> <PUBCHEM_TOTAL_CHARGE>
0
> <PUBCHEM_HEAVY_ATOM_COUNT>
19
> <PUBCHEM_ATOM_DEF_STEREO_COUNT>
2
> <PUBCHEM_ATOM_UDEF_STEREO_COUNT>
0
> <PUBCHEM_BOND_DEF_STEREO_COUNT>
0
> <PUBCHEM_BOND_UDEF_STEREO_COUNT>
0
> <PUBCHEM_ISOTOPIC_ATOM_COUNT>
0
> <PUBCHEM_COMPONENT_COUNT>
1
> <PUBCHEM_CACTVS_TAUTO_COUNT>
-1
> <PUBCHEM_COORDINATE_TYPE>
1
5
255
> <PUBCHEM_BONDANNOTATIONS>
10  16  8
10  18  8
13  15  5
14  17  8
17  18  8
11  9  5
9  14  8
9  16  8
$$$$
