503383
  -OEChem-10302200282D
 44 46  0     1  0  0  0  0  0999 V2000
    2.0000   -0.6230    0.0000 F   0  0  0  0  0  0  0  0  0  0  0  0
    5.5301    0.3529    0.0000 O   0  0  0  0  0  0  0  0  0  0  0  0
    7.2622   -2.6471    0.0000 O   0  0  0  0  0  0  0  0  0  0  0  0
    5.5301   -2.6471    0.0000 N   0  0  0  0  0  0  0  0  0  0  0  0
    4.6641    1.8529    0.0000 C   0  0  0  0  0  0  0  0  0  0  0  0
    5.3712    2.5600    0.0000 C   0  0  0  0  0  0  0  0  0  0  0  0
    3.9570    2.5600    0.0000 C   0  0  0  0  0  0  0  0  0  0  0  0
    4.6641    3.2671    0.0000 C   0  0  0  0  0  0  0  0  0  0  0  0
    4.6641    0.8529    0.0000 C   0  0  0  0  0  0  0  0  0  0  0  0
    5.5301   -0.6471    0.0000 C   0  0  0  0  0  0  0  0  0  0  0  0
    7.2622   -0.6471    0.0000 C   0  0  3  0  0  0  0  0  0  0  0  0
    6.3961   -1.1471    0.0000 C   0  0  0  0  0  0  0  0  0  0  0  0
    4.6641   -1.1471    0.0000 C   0  0  0  0  0  0  0  0  0  0  0  0
    8.1282   -1.1471    0.0000 C   0  0  0  0  0  0  0  0  0  0  0  0
    6.3961   -2.1471    0.0000 C   0  0  0  0  0  0  0  0  0  0  0  0
    4.6641   -2.1471    0.0000 C   0  0  0  0  0  0  0  0  0  0  0  0
    7.2622    0.3529    0.0000 C   0  0  0  0  0  0  0  0  0  0  0  0
    3.7702   -0.6124    0.0000 C   0  0  0  0  0  0  0  0  0  0  0  0
    8.9942   -0.6471    0.0000 C   0  0  0  0  0  0  0  0  0  0  0  0
    3.7702   -2.6818    0.0000 C   0  0  0  0  0  0  0  0  0  0  0  0
    2.8641   -1.1263    0.0000 C   0  0  0  0  0  0  0  0  0  0  0  0
    2.8641   -2.1679    0.0000 C   0  0  0  0  0  0  0  0  0  0  0  0
    5.2369    1.6156    0.0000 H   0  0  0  0  0  0  0  0  0  0  0  0
    5.8096    2.1216    0.0000 H   0  0  0  0  0  0  0  0  0  0  0  0
    5.8096    2.9984    0.0000 H   0  0  0  0  0  0  0  0  0  0  0  0
    3.5186    2.9984    0.0000 H   0  0  0  0  0  0  0  0  0  0  0  0
    3.5186    2.1216    0.0000 H   0  0  0  0  0  0  0  0  0  0  0  0
    5.1025    3.7055    0.0000 H   0  0  0  0  0  0  0  0  0  0  0  0
    4.2257    3.7055    0.0000 H   0  0  0  0  0  0  0  0  0  0  0  0
    4.0535    0.9606    0.0000 H   0  0  0  0  0  0  0  0  0  0  0  0
    4.4520    0.2703    0.0000 H   0  0  0  0  0  0  0  0  0  0  0  0
    6.7252   -0.3371    0.0000 H   0  0  0  0  0  0  0  0  0  0  0  0
    7.7297   -1.6220    0.0000 H   0  0  0  0  0  0  0  0  0  0  0  0
    8.5267   -1.6220    0.0000 H   0  0  0  0  0  0  0  0  0  0  0  0
    7.8822    0.3529    0.0000 H   0  0  0  0  0  0  0  0  0  0  0  0
    7.2622    0.9729    0.0000 H   0  0  0  0  0  0  0  0  0  0  0  0
    6.6422    0.3529    0.0000 H   0  0  0  0  0  0  0  0  0  0  0  0
    5.5301   -3.2671    0.0000 H   0  0  0  0  0  0  0  0  0  0  0  0
    3.7773    0.0075    0.0000 H   0  0  0  0  0  0  0  0  0  0  0  0
    9.3042   -1.1840    0.0000 H   0  0  0  0  0  0  0  0  0  0  0  0
    9.5312   -0.3371    0.0000 H   0  0  0  0  0  0  0  0  0  0  0  0
    8.6842   -0.1102    0.0000 H   0  0  0  0  0  0  0  0  0  0  0  0
    3.7773   -3.3017    0.0000 H   0  0  0  0  0  0  0  0  0  0  0  0
    2.3284   -2.4800    0.0000 H   0  0  0  0  0  0  0  0  0  0  0  0
  1 21  1  0  0  0  0
  2  9  1  0  0  0  0
  2 10  1  0  0  0  0
  3 15  2  0  0  0  0
  4 15  1  0  0  0  0
  4 16  1  0  0  0  0
  4 38  1  0  0  0  0
  5  6  1  0  0  0  0
  5  7  1  0  0  0  0
  5  9  1  0  0  0  0
  5 23  1  0  0  0  0
  6  8  1  0  0  0  0
  6 24  1  0  0  0  0
  6 25  1  0  0  0  0
  7  8  1  0  0  0  0
  7 26  1  0  0  0  0
  7 27  1  0  0  0  0
  8 28  1  0  0  0  0
  8 29  1  0  0  0  0
  9 30  1  0  0  0  0
  9 31  1  0  0  0  0
 10 12  2  0  0  0  0
 10 13  1  0  0  0  0
 11 12  1  0  0  0  0
 11 14  1  0  0  0  0
 11 17  1  0  0  0  0
 11 32  1  0  0  0  0
 12 15  1  0  0  0  0
 13 16  2  0  0  0  0
 13 18  1  0  0  0  0
 14 19  1  0  0  0  0
 14 33  1  0  0  0  0
 14 34  1  0  0  0  0
 16 20  1  0  0  0  0
 17 35  1  0  0  0  0
 17 36  1  0  0  0  0
 17 37  1  0  0  0  0
 18 21  2  0  0  0  0
 18 39  1  0  0  0  0
 19 40  1  0  0  0  0
 19 41  1  0  0  0  0
 19 42  1  0  0  0  0
 20 22  2  0  0  0  0
 20 43  1  0  0  0  0
 21 22  1  0  0  0  0
 22 44  1  0  0  0  0
M  END
> <PUBCHEM_COMPOUND_CID>
503383
> <PUBCHEM_COMPOUND_CANONICALIZED>
1
> <PUBCHEM_CACTVS_COMPLEXITY>
458
> <PUBCHEM_CACTVS_HBOND_ACCEPTOR>
3
> <PUBCHEM_CACTVS_HBOND_DONOR>
1
> <PUBCHEM_CACTVS_ROTATABLE_BOND>
5
> <PUBCHEM_CACTVS_SUBSKEYS>
AAADceB6MQAAAAAAAAAAAAAAAABgAAAAAAAwQAAAAAAAAACBAAAAHwAQAAAADQyhmAoywILABACIAiVSUACCCAAhIgAIiAEAbMgIJjLAsZmGMAhm1AHI6QeYwCAOAAAAAAACAAAAAAAAAAQAAAAAAAAAAA==
> <PUBCHEM_IUPAC_OPENEYE_NAME>
4-(cyclobutylmethoxy)-6-fluoro-3-sec-butyl-1H-quinolin-2-one
> <PUBCHEM_IUPAC_CAS_NAME>
3-butan-2-yl-4-(cyclobutylmethoxy)-6-fluoro-1H-quinolin-2-one
> <PUBCHEM_IUPAC_NAME_MARKUP>
3-butan-2-yl-4-(cyclobutylmethoxy)-6-fluoro-1<I>H</I>-quinolin-2-one
> <PUBCHEM_IUPAC_NAME>
3-butan-2-yl-4-(cyclobutylmethoxy)-6-fluoro-1H-quinolin-2-one
> <PUBCHEM_IUPAC_SYSTEMATIC_NAME>
3-butan-2-yl-4-(cyclobutylmethoxy)-6-fluoranyl-1H-quinolin-2-one
> <PUBCHEM_IUPAC_TRADITIONAL_NAME>
4-(cyclobutylmethoxy)-6-fluoro-3-sec-butyl-carbostyril
> <PUBCHEM_IUPAC_INCHI>
InChI=1S/C18H22FNO2/c1-3-11(2)16-17(22-10-12-5-4-6-12)14-9-13(19)7-8-15(14)20-18(16)21/h7-9,11-12H,3-6,10H2,1-2H3,(H,20,21)
> <PUBCHEM_IUPAC_INCHIKEY>
CLBMHUDBSAWWMN-UHFFFAOYSA-N
> <PUBCHEM_XLOGP3_AA>
4.1
> <PUBCHEM_EXACT_MASS>
303.16345711
> <PUBCHEM_MOLECULAR_FORMULA>
C18H22FNO2
> <PUBCHEM_MOLECULAR_WEIGHT>
303.4
> <PUBCHEM_OPENEYE_CAN_SMILES>
CCC(C)C1=C(C2=C(C=CC(=C2)F)NC1=O)OCC3CCC3
> <PUBCHEM_OPENEYE_ISO_SMILES>
CCC(C)C1=C(C2=C(C=CC(=C2)F)NC1=O)OCC3CCC3
> <PUBCHEM_CACTVS_TPSA>
38.3
> <PUBCHEM_MONOISOTOPIC_WEIGHT>
303.16345711
> <PUBCHEM_TOTAL_CHARGE>
0
> <PUBCHEM_HEAVY_ATOM_COUNT>
22
> <PUBCHEM_ATOM_DEF_STEREO_COUNT>
0
> <PUBCHEM_ATOM_UDEF_STEREO_COUNT>
1
> <PUBCHEM_BOND_DEF_STEREO_COUNT>
0
> <PUBCHEM_BOND_UDEF_STEREO_COUNT>
0
> <PUBCHEM_ISOTOPIC_ATOM_COUNT>
0
> <PUBCHEM_COMPONENT_COUNT>
1
> <PUBCHEM_CACTVS_TAUTO_COUNT>
-1
> <PUBCHEM_COORDINATE_TYPE>
1
5
255
> <PUBCHEM_BONDANNOTATIONS>
10  12  8
10  13  8
11  17  3
12  15  8
13  16  8
13  18  8
16  20  8
18  21  8
20  22  8
21  22  8
4  15  8
4  16  8
$$$$
