503321
  -OEChem-10302200282D
124130  0     1  0  0  0  0  0999 V2000
    9.7942    1.2977    0.0000 S   0  0  0  0  0  0  0  0  0  0  0  0
   11.4693    4.3855    0.0000 O   0  0  0  0  0  0  0  0  0  0  0  0
    8.9002    4.0765    0.0000 O   0  0  0  0  0  0  0  0  0  0  0  0
    9.5725    6.1456    0.0000 O   0  0  0  0  0  0  0  0  0  0  0  0
    9.7942    2.2977    0.0000 O   0  0  0  0  0  0  0  0  0  0  0  0
    7.1962   -1.2023    0.0000 O   0  0  0  0  0  0  0  0  0  0  0  0
    7.1962   -4.2023    0.0000 O   0  0  0  0  0  0  0  0  0  0  0  0
    5.4641   -3.2023    0.0000 O   0  0  0  0  0  0  0  0  0  0  0  0
    8.9282   -3.2023    0.0000 O   0  0  0  0  0  0  0  0  0  0  0  0
    8.9282   -1.2023    0.0000 O   0  0  0  0  0  0  0  0  0  0  0  0
    5.4641   -0.2023    0.0000 O   0  0  0  0  0  0  0  0  0  0  0  0
   12.9578    4.4598    0.0000 O   0  0  0  0  0  0  0  0  0  0  0  0
   10.7942    1.2977    0.0000 O   0  0  0  0  0  0  0  0  0  0  0  0
    8.7942    1.2977    0.0000 O   0  0  0  0  0  0  0  0  0  0  0  0
   14.4764    7.5733    0.0000 O   0  0  0  0  0  0  0  0  0  0  0  0
    8.0622    0.2977    0.0000 O   0  0  0  0  0  0  0  0  0  0  0  0
    5.4641   -4.2023    0.0000 O   0  0  0  0  0  0  0  0  0  0  0  0
    4.5981   -1.7023    0.0000 O   0  0  0  0  0  0  0  0  0  0  0  0
    9.7942   -1.7023    0.0000 O   0  0  0  0  0  0  0  0  0  0  0  0
    3.7320   -0.2023    0.0000 O   0  0  0  0  0  0  0  0  0  0  0  0
   11.9893    5.8957    0.0000 N   0  0  0  0  0  0  0  0  0  0  0  0
   13.7171    6.0165    0.0000 N   0  0  0  0  0  0  0  0  0  0  0  0
    9.7942    0.2977    0.0000 N   0  0  0  0  0  0  0  0  0  0  0  0
    9.8512    4.3855    0.0000 C   0  0  1  0  0  0  0  0  0  0  0  0
   10.1603    5.3365    0.0000 C   0  0  2  0  0  0  0  0  0  0  0  0
   10.6603    3.7977    0.0000 C   0  0  1  0  0  0  0  0  0  0  0  0
   11.1603    5.3365    0.0000 C   0  0  1  0  0  0  0  0  0  0  0  0
   10.6603    2.7977    0.0000 C   0  0  0  0  0  0  0  0  0  0  0  0
    7.1962   -3.2023    0.0000 C   0  0  1  0  0  0  0  0  0  0  0  0
    6.3301   -2.7023    0.0000 C   0  0  1  0  0  0  0  0  0  0  0  0
    8.1570    4.7456    0.0000 C   0  0  0  0  0  0  0  0  0  0  0  0
    9.6422    7.1431    0.0000 C   0  0  0  0  0  0  0  0  0  0  0  0
    8.0622   -2.7023    0.0000 C   0  0  1  0  0  0  0  0  0  0  0  0
    6.3301   -1.7023    0.0000 C   0  0  1  0  0  0  0  0  0  0  0  0
    8.0622   -1.7023    0.0000 C   0  0  2  0  0  0  0  0  0  0  0  0
   12.8881    5.4574    0.0000 C   0  0  0  0  0  0  0  0  0  0  0  0
   11.9195    6.8933    0.0000 C   0  0  0  0  0  0  0  0  0  0  0  0
    5.4641   -1.2023    0.0000 C   0  0  0  0  0  0  0  0  0  0  0  0
    7.2060    4.4366    0.0000 C   0  0  0  0  0  0  0  0  0  0  0  0
    8.3650    5.7237    0.0000 C   0  0  0  0  0  0  0  0  0  0  0  0
    8.8132    7.7023    0.0000 C   0  0  0  0  0  0  0  0  0  0  0  0
   10.5410    7.5815    0.0000 C   0  0  0  0  0  0  0  0  0  0  0  0
   12.7486    7.4525    0.0000 C   0  0  0  0  0  0  0  0  0  0  0  0
   13.6474    7.0141    0.0000 C   0  0  0  0  0  0  0  0  0  0  0  0
    8.9282   -0.2023    0.0000 C   0  0  0  0  0  0  0  0  0  0  0  0
    6.3301   -4.7023    0.0000 C   0  0  0  0  0  0  0  0  0  0  0  0
    4.5981   -2.7023    0.0000 C   0  0  0  0  0  0  0  0  0  0  0  0
    9.7942   -2.7023    0.0000 C   0  0  0  0  0  0  0  0  0  0  0  0
    6.3301   -5.7023    0.0000 C   0  0  0  0  0  0  0  0  0  0  0  0
    3.7320   -3.2023    0.0000 C   0  0  0  0  0  0  0  0  0  0  0  0
    4.5981    0.2977    0.0000 C   0  0  0  0  0  0  0  0  0  0  0  0
   10.6603   -3.2023    0.0000 C   0  0  0  0  0  0  0  0  0  0  0  0
    4.5981    1.2977    0.0000 C   0  0  0  0  0  0  0  0  0  0  0  0
    5.4641   -6.2023    0.0000 C   0  0  0  0  0  0  0  0  0  0  0  0
    7.1962   -6.2023    0.0000 C   0  0  0  0  0  0  0  0  0  0  0  0
    3.7320   -4.2023    0.0000 C   0  0  0  0  0  0  0  0  0  0  0  0
    2.8660   -2.7023    0.0000 C   0  0  0  0  0  0  0  0  0  0  0  0
   11.5263   -2.7023    0.0000 C   0  0  0  0  0  0  0  0  0  0  0  0
   10.6603   -4.2023    0.0000 C   0  0  0  0  0  0  0  0  0  0  0  0
    5.4641   -7.2023    0.0000 C   0  0  0  0  0  0  0  0  0  0  0  0
    7.1962   -7.2023    0.0000 C   0  0  0  0  0  0  0  0  0  0  0  0
    2.8660   -4.7023    0.0000 C   0  0  0  0  0  0  0  0  0  0  0  0
    2.0000   -3.2023    0.0000 C   0  0  0  0  0  0  0  0  0  0  0  0
   12.3923   -3.2023    0.0000 C   0  0  0  0  0  0  0  0  0  0  0  0
   11.5263   -4.7023    0.0000 C   0  0  0  0  0  0  0  0  0  0  0  0
    5.4641    1.7977    0.0000 C   0  0  0  0  0  0  0  0  0  0  0  0
    3.7320    1.7977    0.0000 C   0  0  0  0  0  0  0  0  0  0  0  0
    6.3301   -7.7023    0.0000 C   0  0  0  0  0  0  0  0  0  0  0  0
    2.0000   -4.2023    0.0000 C   0  0  0  0  0  0  0  0  0  0  0  0
   12.3923   -4.2023    0.0000 C   0  0  0  0  0  0  0  0  0  0  0  0
    5.4641    2.7977    0.0000 C   0  0  0  0  0  0  0  0  0  0  0  0
    3.7320    2.7977    0.0000 C   0  0  0  0  0  0  0  0  0  0  0  0
    4.5981    3.2977    0.0000 C   0  0  0  0  0  0  0  0  0  0  0  0
    9.4128    4.8239    0.0000 H   0  0  0  0  0  0  0  0  0  0  0  0
   10.4417    5.8890    0.0000 H   0  0  0  0  0  0  0  0  0  0  0  0
   11.2127    3.5162    0.0000 H   0  0  0  0  0  0  0  0  0  0  0  0
   10.9790    5.9294    0.0000 H   0  0  0  0  0  0  0  0  0  0  0  0
   10.8723    2.2151    0.0000 H   0  0  0  0  0  0  0  0  0  0  0  0
   11.2708    2.9054    0.0000 H   0  0  0  0  0  0  0  0  0  0  0  0
    6.6592   -3.5123    0.0000 H   0  0  0  0  0  0  0  0  0  0  0  0
    6.3301   -3.3223    0.0000 H   0  0  0  0  0  0  0  0  0  0  0  0
    8.7467    4.9372    0.0000 H   0  0  0  0  0  0  0  0  0  0  0  0
    8.0622   -3.3223    0.0000 H   0  0  0  0  0  0  0  0  0  0  0  0
   10.1562    6.7964    0.0000 H   0  0  0  0  0  0  0  0  0  0  0  0
    6.3301   -1.0823    0.0000 H   0  0  0  0  0  0  0  0  0  0  0  0
    8.0622   -1.0823    0.0000 H   0  0  0  0  0  0  0  0  0  0  0  0
   11.3623    7.1651    0.0000 H   0  0  0  0  0  0  0  0  0  0  0  0
    4.8535   -1.0946    0.0000 H   0  0  0  0  0  0  0  0  0  0  0  0
    5.2520   -1.7849    0.0000 H   0  0  0  0  0  0  0  0  0  0  0  0
    7.0144    5.0262    0.0000 H   0  0  0  0  0  0  0  0  0  0  0  0
    6.6163    4.2450    0.0000 H   0  0  0  0  0  0  0  0  0  0  0  0
    7.3976    3.8469    0.0000 H   0  0  0  0  0  0  0  0  0  0  0  0
    8.9714    5.5948    0.0000 H   0  0  0  0  0  0  0  0  0  0  0  0
    8.4938    6.3302    0.0000 H   0  0  0  0  0  0  0  0  0  0  0  0
    7.7585    5.8526    0.0000 H   0  0  0  0  0  0  0  0  0  0  0  0
    9.1599    8.2163    0.0000 H   0  0  0  0  0  0  0  0  0  0  0  0
    8.2992    8.0490    0.0000 H   0  0  0  0  0  0  0  0  0  0  0  0
    8.4665    7.1883    0.0000 H   0  0  0  0  0  0  0  0  0  0  0  0
   10.8128    7.0242    0.0000 H   0  0  0  0  0  0  0  0  0  0  0  0
   11.0983    7.8533    0.0000 H   0  0  0  0  0  0  0  0  0  0  0  0
   10.2692    8.1387    0.0000 H   0  0  0  0  0  0  0  0  0  0  0  0
   14.2744    5.7448    0.0000 H   0  0  0  0  0  0  0  0  0  0  0  0
   12.7053    8.0710    0.0000 H   0  0  0  0  0  0  0  0  0  0  0  0
   10.3312   -0.0123    0.0000 H   0  0  0  0  0  0  0  0  0  0  0  0
    4.9272   -5.8923    0.0000 H   0  0  0  0  0  0  0  0  0  0  0  0
    7.7331   -5.8923    0.0000 H   0  0  0  0  0  0  0  0  0  0  0  0
    4.2690   -4.5123    0.0000 H   0  0  0  0  0  0  0  0  0  0  0  0
    2.8660   -2.0823    0.0000 H   0  0  0  0  0  0  0  0  0  0  0  0
   11.5263   -2.0823    0.0000 H   0  0  0  0  0  0  0  0  0  0  0  0
   10.1233   -4.5123    0.0000 H   0  0  0  0  0  0  0  0  0  0  0  0
    4.9272   -7.5123    0.0000 H   0  0  0  0  0  0  0  0  0  0  0  0
    7.7331   -7.5123    0.0000 H   0  0  0  0  0  0  0  0  0  0  0  0
    2.8660   -5.3223    0.0000 H   0  0  0  0  0  0  0  0  0  0  0  0
    1.4631   -2.8923    0.0000 H   0  0  0  0  0  0  0  0  0  0  0  0
   12.9292   -2.8923    0.0000 H   0  0  0  0  0  0  0  0  0  0  0  0
   11.5263   -5.3223    0.0000 H   0  0  0  0  0  0  0  0  0  0  0  0
    6.0010    1.4877    0.0000 H   0  0  0  0  0  0  0  0  0  0  0  0
    3.1951    1.4877    0.0000 H   0  0  0  0  0  0  0  0  0  0  0  0
    6.3301   -8.3223    0.0000 H   0  0  0  0  0  0  0  0  0  0  0  0
    1.4631   -4.5123    0.0000 H   0  0  0  0  0  0  0  0  0  0  0  0
   12.9292   -4.5123    0.0000 H   0  0  0  0  0  0  0  0  0  0  0  0
    6.0010    3.1077    0.0000 H   0  0  0  0  0  0  0  0  0  0  0  0
    3.1951    3.1077    0.0000 H   0  0  0  0  0  0  0  0  0  0  0  0
    4.5981    3.9177    0.0000 H   0  0  0  0  0  0  0  0  0  0  0  0
  1  5  1  0  0  0  0
  1 13  2  0  0  0  0
  1 14  2  0  0  0  0
  1 23  1  0  0  0  0
  2 26  1  0  0  0  0
  2 27  1  0  0  0  0
 24  3  1  1  0  0  0
  3 31  1  0  0  0  0
 25  4  1  1  0  0  0
  4 32  1  0  0  0  0
  5 28  1  0  0  0  0
  6 34  1  0  0  0  0
  6 35  1  0  0  0  0
 29  7  1  1  0  0  0
  7 46  1  0  0  0  0
 30  8  1  6  0  0  0
  8 47  1  0  0  0  0
 33  9  1  1  0  0  0
  9 48  1  0  0  0  0
 35 10  1  6  0  0  0
 10 45  1  0  0  0  0
 11 38  1  0  0  0  0
 11 51  1  0  0  0  0
 12 36  2  0  0  0  0
 15 44  2  0  0  0  0
 16 45  2  0  0  0  0
 17 46  2  0  0  0  0
 18 47  2  0  0  0  0
 19 48  2  0  0  0  0
 20 51  2  0  0  0  0
 27 21  1  6  0  0  0
 21 36  1  0  0  0  0
 21 37  1  0  0  0  0
 22 36  1  0  0  0  0
 22 44  1  0  0  0  0
 22102  1  0  0  0  0
 23 45  1  0  0  0  0
 23104  1  0  0  0  0
 24 25  1  0  0  0  0
 24 26  1  0  0  0  0
 24 74  1  0  0  0  0
 25 27  1  0  0  0  0
 25 75  1  0  0  0  0
 26 28  1  6  0  0  0
 26 76  1  0  0  0  0
 27 77  1  0  0  0  0
 28 78  1  0  0  0  0
 28 79  1  0  0  0  0
 29 30  1  0  0  0  0
 29 33  1  0  0  0  0
 29 80  1  0  0  0  0
 30 34  1  0  0  0  0
 30 81  1  0  0  0  0
 31 39  1  0  0  0  0
 31 40  1  0  0  0  0
 31 82  1  0  0  0  0
 32 41  1  0  0  0  0
 32 42  1  0  0  0  0
 32 84  1  0  0  0  0
 33 35  1  0  0  0  0
 33 83  1  0  0  0  0
 34 38  1  1  0  0  0
 34 85  1  0  0  0  0
 35 86  1  0  0  0  0
 37 43  2  0  0  0  0
 37 87  1  0  0  0  0
 38 88  1  0  0  0  0
 38 89  1  0  0  0  0
 39 90  1  0  0  0  0
 39 91  1  0  0  0  0
 39 92  1  0  0  0  0
 40 93  1  0  0  0  0
 40 94  1  0  0  0  0
 40 95  1  0  0  0  0
 41 96  1  0  0  0  0
 41 97  1  0  0  0  0
 41 98  1  0  0  0  0
 42 99  1  0  0  0  0
 42100  1  0  0  0  0
 42101  1  0  0  0  0
 43 44  1  0  0  0  0
 43103  1  0  0  0  0
 46 49  1  0  0  0  0
 47 50  1  0  0  0  0
 48 52  1  0  0  0  0
 49 54  2  0  0  0  0
 49 55  1  0  0  0  0
 50 56  2  0  0  0  0
 50 57  1  0  0  0  0
 51 53  1  0  0  0  0
 52 58  2  0  0  0  0
 52 59  1  0  0  0  0
 53 66  2  0  0  0  0
 53 67  1  0  0  0  0
 54 60  1  0  0  0  0
 54105  1  0  0  0  0
 55 61  2  0  0  0  0
 55106  1  0  0  0  0
 56 62  1  0  0  0  0
 56107  1  0  0  0  0
 57 63  2  0  0  0  0
 57108  1  0  0  0  0
 58 64  1  0  0  0  0
 58109  1  0  0  0  0
 59 65  2  0  0  0  0
 59110  1  0  0  0  0
 60 68  2  0  0  0  0
 60111  1  0  0  0  0
 61 68  1  0  0  0  0
 61112  1  0  0  0  0
 62 69  2  0  0  0  0
 62113  1  0  0  0  0
 63 69  1  0  0  0  0
 63114  1  0  0  0  0
 64 70  2  0  0  0  0
 64115  1  0  0  0  0
 65 70  1  0  0  0  0
 65116  1  0  0  0  0
 66 71  1  0  0  0  0
 66117  1  0  0  0  0
 67 72  2  0  0  0  0
 67118  1  0  0  0  0
 68119  1  0  0  0  0
 69120  1  0  0  0  0
 70121  1  0  0  0  0
 71 73  2  0  0  0  0
 71122  1  0  0  0  0
 72 73  1  0  0  0  0
 72123  1  0  0  0  0
 73124  1  0  0  0  0
M  END
> <PUBCHEM_COMPOUND_CID>
503321
> <PUBCHEM_COMPOUND_CANONICALIZED>
1
> <PUBCHEM_CACTVS_COMPLEXITY>
2060
> <PUBCHEM_CACTVS_HBOND_ACCEPTOR>
19
> <PUBCHEM_CACTVS_HBOND_DONOR>
2
> <PUBCHEM_CACTVS_ROTATABLE_BOND>
24
> <PUBCHEM_CACTVS_SUBSKEYS>
AAADcfB/PgBAAAAAAAAAAAAAAAAAASAAAAA0YMGCAAAAAAABVAAAHgAQQAAADBTxmAczCIPABACIAiHWWDCCAAAkAgAIiAEICMmbJjKAtRivMQAv1yMeqcf4+C6OAAAAAAAAAAAAAAAAAAAAAAAAAAAAAA==
> <PUBCHEM_IUPAC_OPENEYE_NAME>
[(2R,3R,4S,5S,6R)-3,4,5-tribenzoyloxy-6-[[(2R,3R,4R,5R)-5-(2,4-dioxopyrimidin-1-yl)-3,4-diisopropoxy-tetrahydrofuran-2-yl]methoxysulfonylcarbamoyloxy]tetrahydropyran-2-yl]methyl benzoate
> <PUBCHEM_IUPAC_CAS_NAME>
benzoic acid [(2R,3R,4S,5S,6R)-3,4,5-tribenzoyloxy-6-[[[(2R,3R,4R,5R)-5-(2,4-dioxo-1-pyrimidinyl)-3,4-di(propan-2-yloxy)-2-oxolanyl]methoxysulfonylamino]-oxomethoxy]-2-oxanyl]methyl ester
> <PUBCHEM_IUPAC_NAME_MARKUP>
[(2<I>R</I>,3<I>R</I>,4<I>S</I>,5<I>S</I>,6<I>R</I>)-3,4,5-tribenzoyloxy-6-[[(2<I>R</I>,3<I>R</I>,4<I>R</I>,5<I>R</I>)-5-(2,4-dioxopyrimidin-1-yl)-3,4-di(propan-2-yloxy)oxolan-2-yl]methoxysulfonylcarbamoyloxy]oxan-2-yl]methyl benzoate
> <PUBCHEM_IUPAC_NAME>
[(2R,3R,4S,5S,6R)-3,4,5-tribenzoyloxy-6-[[(2R,3R,4R,5R)-5-(2,4-dioxopyrimidin-1-yl)-3,4-di(propan-2-yloxy)oxolan-2-yl]methoxysulfonylcarbamoyloxy]oxan-2-yl]methyl benzoate
> <PUBCHEM_IUPAC_SYSTEMATIC_NAME>
[(2R,3R,4S,5S,6R)-6-[[(2R,3R,4R,5R)-5-[2,4-bis(oxidanylidene)pyrimidin-1-yl]-3,4-di(propan-2-yloxy)oxolan-2-yl]methoxysulfonylcarbamoyloxy]-3,4,5-tris(phenylcarbonyloxy)oxan-2-yl]methyl benzoate
> <PUBCHEM_IUPAC_TRADITIONAL_NAME>
benzoic acid [(2R,3R,4S,5S,6R)-3,4,5-tribenzoyloxy-6-[[(2R,3R,4R,5R)-5-(2,4-diketopyrimidin-1-yl)-3,4-diisopropoxy-tetrahydrofuran-2-yl]methoxysulfonylcarbamoyloxy]tetrahydropyran-2-yl]methyl ester
> <PUBCHEM_IUPAC_INCHI>
InChI=1S/C50H51N3O19S/c1-29(2)65-39-36(67-43(41(39)66-30(3)4)53-26-25-37(54)51-49(53)59)28-64-73(61,62)52-50(60)72-48-42(71-47(58)34-23-15-8-16-24-34)40(70-46(57)33-21-13-7-14-22-33)38(69-45(56)32-19-11-6-12-20-32)35(68-48)27-63-44(55)31-17-9-5-10-18-31/h5-26,29-30,35-36,38-43,48H,27-28H2,1-4H3,(H,52,60)(H,51,54,59)/t35-,36-,38-,39-,40+,41-,42+,43-,48-/m1/s1
> <PUBCHEM_IUPAC_INCHIKEY>
HHBXZKGFWHUZOC-ZGICHEDVSA-N
> <PUBCHEM_XLOGP3_AA>
6.1
> <PUBCHEM_EXACT_MASS>
1029.28374758
> <PUBCHEM_MOLECULAR_FORMULA>
C50H51N3O19S
> <PUBCHEM_MOLECULAR_WEIGHT>
1030.0
> <PUBCHEM_OPENEYE_CAN_SMILES>
CC(C)OC1C(OC(C1OC(C)C)N2C=CC(=O)NC2=O)COS(=O)(=O)NC(=O)OC3C(C(C(C(O3)COC(=O)C4=CC=CC=C4)OC(=O)C5=CC=CC=C5)OC(=O)C6=CC=CC=C6)OC(=O)C7=CC=CC=C7
> <PUBCHEM_OPENEYE_ISO_SMILES>
CC(C)O[C@@H]1[C@H](O[C@H]([C@@H]1OC(C)C)N2C=CC(=O)NC2=O)COS(=O)(=O)NC(=O)O[C@@H]3[C@H]([C@H]([C@@H]([C@H](O3)COC(=O)C4=CC=CC=C4)OC(=O)C5=CC=CC=C5)OC(=O)C6=CC=CC=C6)OC(=O)C7=CC=CC=C7
> <PUBCHEM_CACTVS_TPSA>
282
> <PUBCHEM_MONOISOTOPIC_WEIGHT>
1029.28374758
> <PUBCHEM_TOTAL_CHARGE>
0
> <PUBCHEM_HEAVY_ATOM_COUNT>
73
> <PUBCHEM_ATOM_DEF_STEREO_COUNT>
9
> <PUBCHEM_ATOM_UDEF_STEREO_COUNT>
0
> <PUBCHEM_BOND_DEF_STEREO_COUNT>
0
> <PUBCHEM_BOND_UDEF_STEREO_COUNT>
0
> <PUBCHEM_ISOTOPIC_ATOM_COUNT>
0
> <PUBCHEM_COMPONENT_COUNT>
1
> <PUBCHEM_CACTVS_TAUTO_COUNT>
-1
> <PUBCHEM_COORDINATE_TYPE>
1
5
255
> <PUBCHEM_BONDANNOTATIONS>
35  10  6
27  21  6
21  36  8
21  37  8
22  36  8
22  44  8
26  28  6
24  3  5
34  38  5
37  43  8
25  4  5
43  44  8
49  54  8
49  55  8
50  56  8
50  57  8
52  58  8
52  59  8
53  66  8
53  67  8
54  60  8
55  61  8
56  62  8
57  63  8
58  64  8
59  65  8
60  68  8
61  68  8
62  69  8
63  69  8
64  70  8
65  70  8
66  71  8
67  72  8
29  7  5
71  73  8
72  73  8
30  8  6
33  9  5
$$$$
