503304
  -OEChem-10302200282D
 35 36  0     1  0  0  0  0  0999 V2000
    5.4071   -0.7063    0.0000 O   0  0  0  0  0  0  0  0  0  0  0  0
    3.5103   -2.4664    0.0000 O   0  0  0  0  0  0  0  0  0  0  0  0
    5.2791   -3.3799    0.0000 O   0  0  0  0  0  0  0  0  0  0  0  0
    4.5981    3.8815    0.0000 O   0  0  0  0  0  0  0  0  0  0  0  0
    4.5981    0.8815    0.0000 N   0  0  0  0  0  0  0  0  0  0  0  0
    5.4641    2.3815    0.0000 N   0  0  0  0  0  0  0  0  0  0  0  0
    6.3301    0.8815    0.0000 N   0  0  0  0  0  0  0  0  0  0  0  0
    4.5981   -0.1185    0.0000 C   0  0  1  0  0  0  0  0  0  0  0  0
    4.0981   -1.6573    0.0000 C   0  0  1  0  0  0  0  0  0  0  0  0
    3.7891   -0.7063    0.0000 C   0  0  0  0  0  0  0  0  0  0  0  0
    5.0981   -1.6573    0.0000 C   0  0  1  0  0  0  0  0  0  0  0  0
    5.6859   -2.4664    0.0000 C   0  0  0  0  0  0  0  0  0  0  0  0
    3.7320    1.3815    0.0000 C   0  0  0  0  0  0  0  0  0  0  0  0
    5.4641    1.3815    0.0000 C   0  0  0  0  0  0  0  0  0  0  0  0
    3.7320    2.3815    0.0000 C   0  0  0  0  0  0  0  0  0  0  0  0
    2.8660    2.8815    0.0000 C   0  0  0  0  0  0  0  0  0  0  0  0
    4.5981    2.8815    0.0000 C   0  0  0  0  0  0  0  0  0  0  0  0
    2.0000    2.3815    0.0000 C   0  0  0  0  0  0  0  0  0  0  0  0
    5.1505    0.1630    0.0000 H   0  0  0  0  0  0  0  0  0  0  0  0
    4.3796   -2.2098    0.0000 H   0  0  0  0  0  0  0  0  0  0  0  0
    3.4791   -0.1694    0.0000 H   0  0  0  0  0  0  0  0  0  0  0  0
    3.2227   -0.9585    0.0000 H   0  0  0  0  0  0  0  0  0  0  0  0
    5.7104   -1.5603    0.0000 H   0  0  0  0  0  0  0  0  0  0  0  0
    6.1999   -2.8131    0.0000 H   0  0  0  0  0  0  0  0  0  0  0  0
    6.1166   -2.0204    0.0000 H   0  0  0  0  0  0  0  0  0  0  0  0
    3.1951    1.0715    0.0000 H   0  0  0  0  0  0  0  0  0  0  0  0
    2.8937   -2.4016    0.0000 H   0  0  0  0  0  0  0  0  0  0  0  0
    3.2646    3.3564    0.0000 H   0  0  0  0  0  0  0  0  0  0  0  0
    2.4675    3.3564    0.0000 H   0  0  0  0  0  0  0  0  0  0  0  0
    5.6436   -3.8815    0.0000 H   0  0  0  0  0  0  0  0  0  0  0  0
    6.8671    1.1915    0.0000 H   0  0  0  0  0  0  0  0  0  0  0  0
    6.3301    0.2615    0.0000 H   0  0  0  0  0  0  0  0  0  0  0  0
    1.6900    2.9184    0.0000 H   0  0  0  0  0  0  0  0  0  0  0  0
    1.4631    2.0715    0.0000 H   0  0  0  0  0  0  0  0  0  0  0  0
    2.3100    1.8446    0.0000 H   0  0  0  0  0  0  0  0  0  0  0  0
  1  8  1  0  0  0  0
  1 11  1  0  0  0  0
  9  2  1  1  0  0  0
  2 27  1  0  0  0  0
  3 12  1  0  0  0  0
  3 30  1  0  0  0  0
  4 17  2  0  0  0  0
  8  5  1  6  0  0  0
  5 13  1  0  0  0  0
  5 14  1  0  0  0  0
  6 14  2  0  0  0  0
  6 17  1  0  0  0  0
  7 14  1  0  0  0  0
  7 31  1  0  0  0  0
  7 32  1  0  0  0  0
  8 10  1  0  0  0  0
  8 19  1  0  0  0  0
  9 10  1  0  0  0  0
  9 11  1  0  0  0  0
  9 20  1  0  0  0  0
 10 21  1  0  0  0  0
 10 22  1  0  0  0  0
 11 12  1  6  0  0  0
 11 23  1  0  0  0  0
 12 24  1  0  0  0  0
 12 25  1  0  0  0  0
 13 15  2  0  0  0  0
 13 26  1  0  0  0  0
 15 16  1  0  0  0  0
 15 17  1  0  0  0  0
 16 18  1  0  0  0  0
 16 28  1  0  0  0  0
 16 29  1  0  0  0  0
 18 33  1  0  0  0  0
 18 34  1  0  0  0  0
 18 35  1  0  0  0  0
M  END
> <PUBCHEM_COMPOUND_CID>
503304
> <PUBCHEM_COMPOUND_CANONICALIZED>
1
> <PUBCHEM_CACTVS_COMPLEXITY>
407
> <PUBCHEM_CACTVS_HBOND_ACCEPTOR>
4
> <PUBCHEM_CACTVS_HBOND_DONOR>
3
> <PUBCHEM_CACTVS_ROTATABLE_BOND>
3
> <PUBCHEM_CACTVS_SUBSKEYS>
AAADceBzOAAAAAAAAAAAAAAAAAAAASAAAAAgAAAAAAAAAAAAAAAAHgAQCAAADBThgAYDAANABgCoAgFWdACAAAEgAAABAAEIAEiBEBIAiQAOQAAHAAIDAMCwMAIAAAAAAAAAAAAAAAAAAAAAAAAAAAAAAA==
> <PUBCHEM_IUPAC_OPENEYE_NAME>
2-amino-5-ethyl-1-[(2R,4S,5R)-4-hydroxy-5-(hydroxymethyl)tetrahydrofuran-2-yl]pyrimidin-4-one
> <PUBCHEM_IUPAC_CAS_NAME>
2-amino-5-ethyl-1-[(2R,4S,5R)-4-hydroxy-5-(hydroxymethyl)-2-oxolanyl]-4-pyrimidinone
> <PUBCHEM_IUPAC_NAME_MARKUP>
2-amino-5-ethyl-1-[(2<I>R</I>,4<I>S</I>,5<I>R</I>)-4-hydroxy-5-(hydroxymethyl)oxolan-2-yl]pyrimidin-4-one
> <PUBCHEM_IUPAC_NAME>
2-amino-5-ethyl-1-[(2R,4S,5R)-4-hydroxy-5-(hydroxymethyl)oxolan-2-yl]pyrimidin-4-one
> <PUBCHEM_IUPAC_SYSTEMATIC_NAME>
2-azanyl-5-ethyl-1-[(2R,4S,5R)-5-(hydroxymethyl)-4-oxidanyl-oxolan-2-yl]pyrimidin-4-one
> <PUBCHEM_IUPAC_TRADITIONAL_NAME>
2-amino-5-ethyl-1-[(2R,4S,5R)-4-hydroxy-5-methylol-tetrahydrofuran-2-yl]pyrimidin-4-one
> <PUBCHEM_IUPAC_INCHI>
InChI=1S/C11H17N3O4/c1-2-6-4-14(11(12)13-10(6)17)9-3-7(16)8(5-15)18-9/h4,7-9,15-16H,2-3,5H2,1H3,(H2,12,13,17)/t7-,8+,9+/m0/s1
> <PUBCHEM_IUPAC_INCHIKEY>
FILYVRBGJWAXRZ-DJLDLDEBSA-N
> <PUBCHEM_XLOGP3>
-1
> <PUBCHEM_EXACT_MASS>
255.12190603
> <PUBCHEM_MOLECULAR_FORMULA>
C11H17N3O4
> <PUBCHEM_MOLECULAR_WEIGHT>
255.27
> <PUBCHEM_OPENEYE_CAN_SMILES>
CCC1=CN(C(=NC1=O)N)C2CC(C(O2)CO)O
> <PUBCHEM_OPENEYE_ISO_SMILES>
CCC1=CN(C(=NC1=O)N)[C@H]2C[C@@H]([C@H](O2)CO)O
> <PUBCHEM_CACTVS_TPSA>
108
> <PUBCHEM_MONOISOTOPIC_WEIGHT>
255.12190603
> <PUBCHEM_TOTAL_CHARGE>
0
> <PUBCHEM_HEAVY_ATOM_COUNT>
18
> <PUBCHEM_ATOM_DEF_STEREO_COUNT>
3
> <PUBCHEM_ATOM_UDEF_STEREO_COUNT>
0
> <PUBCHEM_BOND_DEF_STEREO_COUNT>
0
> <PUBCHEM_BOND_UDEF_STEREO_COUNT>
0
> <PUBCHEM_ISOTOPIC_ATOM_COUNT>
0
> <PUBCHEM_COMPONENT_COUNT>
1
> <PUBCHEM_CACTVS_TAUTO_COUNT>
-1
> <PUBCHEM_COORDINATE_TYPE>
1
5
255
> <PUBCHEM_BONDANNOTATIONS>
11  12  6
13  15  8
15  17  8
9  2  5
5  13  8
5  14  8
8  5  6
6  14  8
6  17  8
$$$$
