503316
  -OEChem-10302200282D
 36 37  0     1  0  0  0  0  0999 V2000
    6.3301    0.8815    0.0000 S   0  0  0  0  0  0  0  0  0  0  0  0
    5.4071   -0.7063    0.0000 O   0  0  0  0  0  0  0  0  0  0  0  0
    5.2791   -3.3799    0.0000 O   0  0  0  0  0  0  0  0  0  0  0  0
    4.5981    3.8815    0.0000 O   0  0  0  0  0  0  0  0  0  0  0  0
    4.5981    0.8815    0.0000 N   0  0  0  0  0  0  0  0  0  0  0  0
    5.4641    2.3815    0.0000 N   0  0  0  0  0  0  0  0  0  0  0  0
    4.5981   -0.1185    0.0000 C   0  0  1  0  0  0  0  0  0  0  0  0
    3.7891   -0.7063    0.0000 C   0  0  0  0  0  0  0  0  0  0  0  0
    4.0981   -1.6573    0.0000 C   0  0  0  0  0  0  0  0  0  0  0  0
    5.0981   -1.6573    0.0000 C   0  0  1  0  0  0  0  0  0  0  0  0
    5.6859   -2.4664    0.0000 C   0  0  0  0  0  0  0  0  0  0  0  0
    3.7320    1.3815    0.0000 C   0  0  0  0  0  0  0  0  0  0  0  0
    5.4641    1.3815    0.0000 C   0  0  0  0  0  0  0  0  0  0  0  0
    3.7320    2.3815    0.0000 C   0  0  0  0  0  0  0  0  0  0  0  0
    2.8660    2.8815    0.0000 C   0  0  0  0  0  0  0  0  0  0  0  0
    4.5981    2.8815    0.0000 C   0  0  0  0  0  0  0  0  0  0  0  0
    2.0000    2.3815    0.0000 C   0  0  0  0  0  0  0  0  0  0  0  0
    7.1962    1.3815    0.0000 C   0  0  0  0  0  0  0  0  0  0  0  0
    5.1505    0.1630    0.0000 H   0  0  0  0  0  0  0  0  0  0  0  0
    3.4791   -0.1694    0.0000 H   0  0  0  0  0  0  0  0  0  0  0  0
    3.2227   -0.9585    0.0000 H   0  0  0  0  0  0  0  0  0  0  0  0
    3.4916   -1.7862    0.0000 H   0  0  0  0  0  0  0  0  0  0  0  0
    4.1629   -2.2740    0.0000 H   0  0  0  0  0  0  0  0  0  0  0  0
    5.7104   -1.5603    0.0000 H   0  0  0  0  0  0  0  0  0  0  0  0
    6.1999   -2.8131    0.0000 H   0  0  0  0  0  0  0  0  0  0  0  0
    6.1166   -2.0204    0.0000 H   0  0  0  0  0  0  0  0  0  0  0  0
    3.1951    1.0715    0.0000 H   0  0  0  0  0  0  0  0  0  0  0  0
    3.2646    3.3564    0.0000 H   0  0  0  0  0  0  0  0  0  0  0  0
    2.4675    3.3564    0.0000 H   0  0  0  0  0  0  0  0  0  0  0  0
    5.6436   -3.8815    0.0000 H   0  0  0  0  0  0  0  0  0  0  0  0
    1.6900    2.9184    0.0000 H   0  0  0  0  0  0  0  0  0  0  0  0
    1.4631    2.0715    0.0000 H   0  0  0  0  0  0  0  0  0  0  0  0
    2.3100    1.8446    0.0000 H   0  0  0  0  0  0  0  0  0  0  0  0
    7.5062    0.8446    0.0000 H   0  0  0  0  0  0  0  0  0  0  0  0
    7.7331    1.6915    0.0000 H   0  0  0  0  0  0  0  0  0  0  0  0
    6.8862    1.9184    0.0000 H   0  0  0  0  0  0  0  0  0  0  0  0
  1 13  1  0  0  0  0
  1 18  1  0  0  0  0
  2  7  1  0  0  0  0
  2 10  1  0  0  0  0
  3 11  1  0  0  0  0
  3 30  1  0  0  0  0
  4 16  2  0  0  0  0
  7  5  1  6  0  0  0
  5 12  1  0  0  0  0
  5 13  1  0  0  0  0
  6 13  2  0  0  0  0
  6 16  1  0  0  0  0
  7  8  1  0  0  0  0
  7 19  1  0  0  0  0
  8  9  1  0  0  0  0
  8 20  1  0  0  0  0
  8 21  1  0  0  0  0
  9 10  1  0  0  0  0
  9 22  1  0  0  0  0
  9 23  1  0  0  0  0
 10 11  1  6  0  0  0
 10 24  1  0  0  0  0
 11 25  1  0  0  0  0
 11 26  1  0  0  0  0
 12 14  2  0  0  0  0
 12 27  1  0  0  0  0
 14 15  1  0  0  0  0
 14 16  1  0  0  0  0
 15 17  1  0  0  0  0
 15 28  1  0  0  0  0
 15 29  1  0  0  0  0
 17 31  1  0  0  0  0
 17 32  1  0  0  0  0
 17 33  1  0  0  0  0
 18 34  1  0  0  0  0
 18 35  1  0  0  0  0
 18 36  1  0  0  0  0
M  END
> <PUBCHEM_COMPOUND_CID>
503316
> <PUBCHEM_COMPOUND_CANONICALIZED>
1
> <PUBCHEM_CACTVS_COMPLEXITY>
395
> <PUBCHEM_CACTVS_HBOND_ACCEPTOR>
4
> <PUBCHEM_CACTVS_HBOND_DONOR>
1
> <PUBCHEM_CACTVS_ROTATABLE_BOND>
4
> <PUBCHEM_CACTVS_SUBSKEYS>
AAADceBzMABAAAAAAAAAAAAAAAAAASAAAAAgAAAAAAAAAAAAAAAAHgQACAAADBThgAaDAAMABgioAgFWdACAEAFgAAABAAEIAEgBEBIAiQAOQAAEAAADAMCwMAIAAAAAAAAAAAAAAAAAAAAAAAAAAAAAAA==
> <PUBCHEM_IUPAC_OPENEYE_NAME>
5-ethyl-1-[(2R,5S)-5-(hydroxymethyl)tetrahydrofuran-2-yl]-2-methylsulfanyl-pyrimidin-4-one
> <PUBCHEM_IUPAC_CAS_NAME>
5-ethyl-1-[(2R,5S)-5-(hydroxymethyl)-2-oxolanyl]-2-(methylthio)-4-pyrimidinone
> <PUBCHEM_IUPAC_NAME_MARKUP>
5-ethyl-1-[(2<I>R</I>,5<I>S</I>)-5-(hydroxymethyl)oxolan-2-yl]-2-methylsulfanylpyrimidin-4-one
> <PUBCHEM_IUPAC_NAME>
5-ethyl-1-[(2R,5S)-5-(hydroxymethyl)oxolan-2-yl]-2-methylsulfanylpyrimidin-4-one
> <PUBCHEM_IUPAC_SYSTEMATIC_NAME>
5-ethyl-1-[(2R,5S)-5-(hydroxymethyl)oxolan-2-yl]-2-methylsulfanyl-pyrimidin-4-one
> <PUBCHEM_IUPAC_TRADITIONAL_NAME>
5-ethyl-1-[(2R,5S)-5-methyloltetrahydrofuran-2-yl]-2-(methylthio)pyrimidin-4-one
> <PUBCHEM_IUPAC_INCHI>
InChI=1S/C12H18N2O3S/c1-3-8-6-14(12(18-2)13-11(8)16)10-5-4-9(7-15)17-10/h6,9-10,15H,3-5,7H2,1-2H3/t9-,10+/m0/s1
> <PUBCHEM_IUPAC_INCHIKEY>
HWCILCARYYYVTC-VHSXEESVSA-N
> <PUBCHEM_XLOGP3>
0.9
> <PUBCHEM_EXACT_MASS>
270.10381361
> <PUBCHEM_MOLECULAR_FORMULA>
C12H18N2O3S
> <PUBCHEM_MOLECULAR_WEIGHT>
270.35
> <PUBCHEM_OPENEYE_CAN_SMILES>
CCC1=CN(C(=NC1=O)SC)C2CCC(O2)CO
> <PUBCHEM_OPENEYE_ISO_SMILES>
CCC1=CN(C(=NC1=O)SC)[C@H]2CC[C@H](O2)CO
> <PUBCHEM_CACTVS_TPSA>
87.4
> <PUBCHEM_MONOISOTOPIC_WEIGHT>
270.10381361
> <PUBCHEM_TOTAL_CHARGE>
0
> <PUBCHEM_HEAVY_ATOM_COUNT>
18
> <PUBCHEM_ATOM_DEF_STEREO_COUNT>
2
> <PUBCHEM_ATOM_UDEF_STEREO_COUNT>
0
> <PUBCHEM_BOND_DEF_STEREO_COUNT>
0
> <PUBCHEM_BOND_UDEF_STEREO_COUNT>
0
> <PUBCHEM_ISOTOPIC_ATOM_COUNT>
0
> <PUBCHEM_COMPONENT_COUNT>
1
> <PUBCHEM_CACTVS_TAUTO_COUNT>
-1
> <PUBCHEM_COORDINATE_TYPE>
1
5
255
> <PUBCHEM_BONDANNOTATIONS>
10  11  6
12  14  8
14  16  8
5  12  8
5  13  8
7  5  6
6  13  8
6  16  8
$$$$
