503319
  -OEChem-10302200282D
118123  0     1  0  0  0  0  0999 V2000
    9.7942    1.2849    0.0000 S   0  0  0  0  0  0  0  0  0  0  0  0
   11.4693    4.3727    0.0000 O   0  0  0  0  0  0  0  0  0  0  0  0
    8.9002    4.0637    0.0000 O   0  0  0  0  0  0  0  0  0  0  0  0
    9.5725    6.1328    0.0000 O   0  0  0  0  0  0  0  0  0  0  0  0
    7.1962   -1.2151    0.0000 O   0  0  0  0  0  0  0  0  0  0  0  0
    9.7942    2.2849    0.0000 O   0  0  0  0  0  0  0  0  0  0  0  0
    7.1962   -4.2151    0.0000 O   0  0  0  0  0  0  0  0  0  0  0  0
    5.4641   -3.2151    0.0000 O   0  0  0  0  0  0  0  0  0  0  0  0
    8.9282   -1.2151    0.0000 O   0  0  0  0  0  0  0  0  0  0  0  0
    5.4641   -0.2151    0.0000 O   0  0  0  0  0  0  0  0  0  0  0  0
   12.7783    4.1482    0.0000 O   0  0  0  0  0  0  0  0  0  0  0  0
   10.7942    1.2849    0.0000 O   0  0  0  0  0  0  0  0  0  0  0  0
    8.7942    1.2849    0.0000 O   0  0  0  0  0  0  0  0  0  0  0  0
    9.7942   -1.7151    0.0000 O   0  0  0  0  0  0  0  0  0  0  0  0
    8.0622    0.2849    0.0000 O   0  0  0  0  0  0  0  0  0  0  0  0
   14.8144    6.9507    0.0000 O   0  0  0  0  0  0  0  0  0  0  0  0
    5.4641   -4.2151    0.0000 O   0  0  0  0  0  0  0  0  0  0  0  0
    4.5981   -1.7151    0.0000 O   0  0  0  0  0  0  0  0  0  0  0  0
    3.7320   -0.2151    0.0000 O   0  0  0  0  0  0  0  0  0  0  0  0
   12.0738    5.7305    0.0000 N   0  0  0  0  0  0  0  0  0  0  0  0
    8.9282   -3.2151    0.0000 N   0  0  0  0  0  0  0  0  0  0  0  0
   13.7964    5.5494    0.0000 N   0  0  0  0  0  0  0  0  0  0  0  0
    9.7942    0.2849    0.0000 N   0  0  0  0  0  0  0  0  0  0  0  0
    9.8512    4.3727    0.0000 C   0  0  1  0  0  0  0  0  0  0  0  0
   10.1603    5.3238    0.0000 C   0  0  2  0  0  0  0  0  0  0  0  0
   10.6603    3.7849    0.0000 C   0  0  1  0  0  0  0  0  0  0  0  0
   11.1603    5.3238    0.0000 C   0  0  1  0  0  0  0  0  0  0  0  0
    7.1962   -3.2151    0.0000 C   0  0  2  0  0  0  0  0  0  0  0  0
   10.6603    2.7849    0.0000 C   0  0  0  0  0  0  0  0  0  0  0  0
    8.0622   -2.7151    0.0000 C   0  0  2  0  0  0  0  0  0  0  0  0
    6.3301   -2.7151    0.0000 C   0  0  1  0  0  0  0  0  0  0  0  0
    6.3301   -1.7151    0.0000 C   0  0  1  0  0  0  0  0  0  0  0  0
    8.0622   -1.7151    0.0000 C   0  0  2  0  0  0  0  0  0  0  0  0
    8.1570    4.7328    0.0000 C   0  0  0  0  0  0  0  0  0  0  0  0
    9.4679    7.1273    0.0000 C   0  0  0  0  0  0  0  0  0  0  0  0
    5.4641   -1.2151    0.0000 C   0  0  0  0  0  0  0  0  0  0  0  0
   12.8828    5.1427    0.0000 C   0  0  0  0  0  0  0  0  0  0  0  0
   12.1783    6.7250    0.0000 C   0  0  0  0  0  0  0  0  0  0  0  0
    7.2060    4.4238    0.0000 C   0  0  0  0  0  0  0  0  0  0  0  0
    8.3650    5.7110    0.0000 C   0  0  0  0  0  0  0  0  0  0  0  0
    8.5544    7.5340    0.0000 C   0  0  0  0  0  0  0  0  0  0  0  0
   10.2770    7.7151    0.0000 C   0  0  0  0  0  0  0  0  0  0  0  0
   13.0919    7.1318    0.0000 C   0  0  0  0  0  0  0  0  0  0  0  0
    9.7942   -2.7151    0.0000 C   0  0  0  0  0  0  0  0  0  0  0  0
    8.9282   -0.2151    0.0000 C   0  0  0  0  0  0  0  0  0  0  0  0
   13.9009    6.5440    0.0000 C   0  0  0  0  0  0  0  0  0  0  0  0
    6.3301   -4.7151    0.0000 C   0  0  0  0  0  0  0  0  0  0  0  0
    4.5981   -2.7151    0.0000 C   0  0  0  0  0  0  0  0  0  0  0  0
   10.6603   -3.2151    0.0000 C   0  0  0  0  0  0  0  0  0  0  0  0
    6.3301   -5.7151    0.0000 C   0  0  0  0  0  0  0  0  0  0  0  0
    3.7320   -3.2151    0.0000 C   0  0  0  0  0  0  0  0  0  0  0  0
    4.5981    0.2849    0.0000 C   0  0  0  0  0  0  0  0  0  0  0  0
    5.4641   -6.2151    0.0000 C   0  0  0  0  0  0  0  0  0  0  0  0
    7.1962   -6.2151    0.0000 C   0  0  0  0  0  0  0  0  0  0  0  0
    4.5981    1.2849    0.0000 C   0  0  0  0  0  0  0  0  0  0  0  0
    2.8660   -2.7151    0.0000 C   0  0  0  0  0  0  0  0  0  0  0  0
    3.7320   -4.2151    0.0000 C   0  0  0  0  0  0  0  0  0  0  0  0
    5.4641   -7.2151    0.0000 C   0  0  0  0  0  0  0  0  0  0  0  0
    7.1962   -7.2151    0.0000 C   0  0  0  0  0  0  0  0  0  0  0  0
    2.0000   -3.2151    0.0000 C   0  0  0  0  0  0  0  0  0  0  0  0
    2.8660   -4.7151    0.0000 C   0  0  0  0  0  0  0  0  0  0  0  0
    3.7320    1.7849    0.0000 C   0  0  0  0  0  0  0  0  0  0  0  0
    5.4641    1.7849    0.0000 C   0  0  0  0  0  0  0  0  0  0  0  0
    6.3301   -7.7151    0.0000 C   0  0  0  0  0  0  0  0  0  0  0  0
    2.0000   -4.2151    0.0000 C   0  0  0  0  0  0  0  0  0  0  0  0
    3.7320    2.7849    0.0000 C   0  0  0  0  0  0  0  0  0  0  0  0
    5.4641    2.7849    0.0000 C   0  0  0  0  0  0  0  0  0  0  0  0
    4.5981    3.2849    0.0000 C   0  0  0  0  0  0  0  0  0  0  0  0
    9.7543    3.7603    0.0000 H   0  0  0  0  0  0  0  0  0  0  0  0
   10.4417    5.8762    0.0000 H   0  0  0  0  0  0  0  0  0  0  0  0
   11.2127    3.5034    0.0000 H   0  0  0  0  0  0  0  0  0  0  0  0
   11.0313    5.9302    0.0000 H   0  0  0  0  0  0  0  0  0  0  0  0
    7.7331   -3.5251    0.0000 H   0  0  0  0  0  0  0  0  0  0  0  0
   10.8723    2.2023    0.0000 H   0  0  0  0  0  0  0  0  0  0  0  0
   11.2708    2.8926    0.0000 H   0  0  0  0  0  0  0  0  0  0  0  0
    8.5991   -2.4051    0.0000 H   0  0  0  0  0  0  0  0  0  0  0  0
    6.3301   -3.3351    0.0000 H   0  0  0  0  0  0  0  0  0  0  0  0
    6.3301   -1.0951    0.0000 H   0  0  0  0  0  0  0  0  0  0  0  0
    8.0622   -1.0951    0.0000 H   0  0  0  0  0  0  0  0  0  0  0  0
    8.0281    4.1264    0.0000 H   0  0  0  0  0  0  0  0  0  0  0  0
   10.0343    6.8751    0.0000 H   0  0  0  0  0  0  0  0  0  0  0  0
    4.8535   -1.1074    0.0000 H   0  0  0  0  0  0  0  0  0  0  0  0
    5.2520   -1.7977    0.0000 H   0  0  0  0  0  0  0  0  0  0  0  0
    8.9282   -3.8351    0.0000 H   0  0  0  0  0  0  0  0  0  0  0  0
   11.6767    7.0894    0.0000 H   0  0  0  0  0  0  0  0  0  0  0  0
    7.0144    5.0134    0.0000 H   0  0  0  0  0  0  0  0  0  0  0  0
    6.6163    4.2322    0.0000 H   0  0  0  0  0  0  0  0  0  0  0  0
    7.3976    3.8341    0.0000 H   0  0  0  0  0  0  0  0  0  0  0  0
    8.9714    5.5821    0.0000 H   0  0  0  0  0  0  0  0  0  0  0  0
    8.4938    6.3174    0.0000 H   0  0  0  0  0  0  0  0  0  0  0  0
    7.7585    5.8399    0.0000 H   0  0  0  0  0  0  0  0  0  0  0  0
    8.8066    8.1004    0.0000 H   0  0  0  0  0  0  0  0  0  0  0  0
    7.9880    7.7862    0.0000 H   0  0  0  0  0  0  0  0  0  0  0  0
    8.3022    6.9676    0.0000 H   0  0  0  0  0  0  0  0  0  0  0  0
   10.6414    7.2135    0.0000 H   0  0  0  0  0  0  0  0  0  0  0  0
   10.7785    8.0795    0.0000 H   0  0  0  0  0  0  0  0  0  0  0  0
    9.9125    8.2167    0.0000 H   0  0  0  0  0  0  0  0  0  0  0  0
   14.2980    5.1850    0.0000 H   0  0  0  0  0  0  0  0  0  0  0  0
   13.1567    7.7484    0.0000 H   0  0  0  0  0  0  0  0  0  0  0  0
   10.3312   -0.0251    0.0000 H   0  0  0  0  0  0  0  0  0  0  0  0
   10.3503   -3.7520    0.0000 H   0  0  0  0  0  0  0  0  0  0  0  0
   11.1972   -3.5251    0.0000 H   0  0  0  0  0  0  0  0  0  0  0  0
   10.9703   -2.6782    0.0000 H   0  0  0  0  0  0  0  0  0  0  0  0
    4.9272   -5.9051    0.0000 H   0  0  0  0  0  0  0  0  0  0  0  0
    7.7331   -5.9051    0.0000 H   0  0  0  0  0  0  0  0  0  0  0  0
    2.8660   -2.0951    0.0000 H   0  0  0  0  0  0  0  0  0  0  0  0
    4.2690   -4.5251    0.0000 H   0  0  0  0  0  0  0  0  0  0  0  0
    4.9272   -7.5251    0.0000 H   0  0  0  0  0  0  0  0  0  0  0  0
    7.7331   -7.5251    0.0000 H   0  0  0  0  0  0  0  0  0  0  0  0
    1.4631   -2.9051    0.0000 H   0  0  0  0  0  0  0  0  0  0  0  0
    2.8660   -5.3351    0.0000 H   0  0  0  0  0  0  0  0  0  0  0  0
    3.1951    1.4749    0.0000 H   0  0  0  0  0  0  0  0  0  0  0  0
    6.0010    1.4749    0.0000 H   0  0  0  0  0  0  0  0  0  0  0  0
    6.3301   -8.3351    0.0000 H   0  0  0  0  0  0  0  0  0  0  0  0
    1.4631   -4.5251    0.0000 H   0  0  0  0  0  0  0  0  0  0  0  0
    3.1951    3.0949    0.0000 H   0  0  0  0  0  0  0  0  0  0  0  0
    6.0010    3.0949    0.0000 H   0  0  0  0  0  0  0  0  0  0  0  0
    4.5981    3.9049    0.0000 H   0  0  0  0  0  0  0  0  0  0  0  0
  1  6  1  0  0  0  0
  1 12  2  0  0  0  0
  1 13  2  0  0  0  0
  1 23  1  0  0  0  0
  2 26  1  0  0  0  0
  2 27  1  0  0  0  0
 24  3  1  1  0  0  0
  3 34  1  0  0  0  0
 25  4  1  1  0  0  0
  4 35  1  0  0  0  0
  5 32  1  0  0  0  0
  5 33  1  0  0  0  0
  6 29  1  0  0  0  0
 28  7  1  1  0  0  0
  7 47  1  0  0  0  0
 31  8  1  6  0  0  0
  8 48  1  0  0  0  0
 33  9  1  6  0  0  0
  9 45  1  0  0  0  0
 10 36  1  0  0  0  0
 10 52  1  0  0  0  0
 11 37  2  0  0  0  0
 14 44  2  0  0  0  0
 15 45  2  0  0  0  0
 16 46  2  0  0  0  0
 17 47  2  0  0  0  0
 18 48  2  0  0  0  0
 19 52  2  0  0  0  0
 27 20  1  6  0  0  0
 20 37  1  0  0  0  0
 20 38  1  0  0  0  0
 30 21  1  6  0  0  0
 21 44  1  0  0  0  0
 21 84  1  0  0  0  0
 22 37  1  0  0  0  0
 22 46  1  0  0  0  0
 22 98  1  0  0  0  0
 23 45  1  0  0  0  0
 23100  1  0  0  0  0
 24 25  1  0  0  0  0
 24 26  1  0  0  0  0
 24 69  1  0  0  0  0
 25 27  1  0  0  0  0
 25 70  1  0  0  0  0
 26 29  1  6  0  0  0
 26 71  1  0  0  0  0
 27 72  1  0  0  0  0
 28 30  1  0  0  0  0
 28 31  1  0  0  0  0
 28 73  1  0  0  0  0
 29 74  1  0  0  0  0
 29 75  1  0  0  0  0
 30 33  1  0  0  0  0
 30 76  1  0  0  0  0
 31 32  1  0  0  0  0
 31 77  1  0  0  0  0
 32 36  1  1  0  0  0
 32 78  1  0  0  0  0
 33 79  1  0  0  0  0
 34 39  1  0  0  0  0
 34 40  1  0  0  0  0
 34 80  1  0  0  0  0
 35 41  1  0  0  0  0
 35 42  1  0  0  0  0
 35 81  1  0  0  0  0
 36 82  1  0  0  0  0
 36 83  1  0  0  0  0
 38 43  2  0  0  0  0
 38 85  1  0  0  0  0
 39 86  1  0  0  0  0
 39 87  1  0  0  0  0
 39 88  1  0  0  0  0
 40 89  1  0  0  0  0
 40 90  1  0  0  0  0
 40 91  1  0  0  0  0
 41 92  1  0  0  0  0
 41 93  1  0  0  0  0
 41 94  1  0  0  0  0
 42 95  1  0  0  0  0
 42 96  1  0  0  0  0
 42 97  1  0  0  0  0
 43 46  1  0  0  0  0
 43 99  1  0  0  0  0
 44 49  1  0  0  0  0
 47 50  1  0  0  0  0
 48 51  1  0  0  0  0
 49101  1  0  0  0  0
 49102  1  0  0  0  0
 49103  1  0  0  0  0
 50 53  2  0  0  0  0
 50 54  1  0  0  0  0
 51 56  2  0  0  0  0
 51 57  1  0  0  0  0
 52 55  1  0  0  0  0
 53 58  1  0  0  0  0
 53104  1  0  0  0  0
 54 59  2  0  0  0  0
 54105  1  0  0  0  0
 55 62  2  0  0  0  0
 55 63  1  0  0  0  0
 56 60  1  0  0  0  0
 56106  1  0  0  0  0
 57 61  2  0  0  0  0
 57107  1  0  0  0  0
 58 64  2  0  0  0  0
 58108  1  0  0  0  0
 59 64  1  0  0  0  0
 59109  1  0  0  0  0
 60 65  2  0  0  0  0
 60110  1  0  0  0  0
 61 65  1  0  0  0  0
 61111  1  0  0  0  0
 62 66  1  0  0  0  0
 62112  1  0  0  0  0
 63 67  2  0  0  0  0
 63113  1  0  0  0  0
 64114  1  0  0  0  0
 65115  1  0  0  0  0
 66 68  2  0  0  0  0
 66116  1  0  0  0  0
 67 68  1  0  0  0  0
 67117  1  0  0  0  0
 68118  1  0  0  0  0
M  END
> <PUBCHEM_COMPOUND_CID>
503319
> <PUBCHEM_COMPOUND_CANONICALIZED>
1
> <PUBCHEM_CACTVS_COMPLEXITY>
1930
> <PUBCHEM_CACTVS_HBOND_ACCEPTOR>
18
> <PUBCHEM_CACTVS_HBOND_DONOR>
3
> <PUBCHEM_CACTVS_ROTATABLE_BOND>
22
> <PUBCHEM_CACTVS_SUBSKEYS>
AAADcfB/vgBAAAAAAAAAAAAAAAAAASAAAAA0YMECAAAAAAABUAAAHgAQQAAADDzxmAczCIPABACIAiHWWDCCAAAkAgAIiIEICMmbJjKAtRivMQAv1yOeqcf4+C+OAAAAAAAAAAAAAAAAAAAAAAAAAAAAAA==
> <PUBCHEM_IUPAC_OPENEYE_NAME>
[(2R,3S,4R,5R,6R)-5-acetamido-3,4-dibenzoyloxy-6-[[(2R,3R,4R,5R)-5-(2,4-dioxopyrimidin-1-yl)-3,4-diisopropoxy-tetrahydrofuran-2-yl]methoxysulfonylcarbamoyloxy]tetrahydropyran-2-yl]methyl benzoate
> <PUBCHEM_IUPAC_CAS_NAME>
benzoic acid [(2R,3S,4R,5R,6R)-5-acetamido-3,4-dibenzoyloxy-6-[[[(2R,3R,4R,5R)-5-(2,4-dioxo-1-pyrimidinyl)-3,4-di(propan-2-yloxy)-2-oxolanyl]methoxysulfonylamino]-oxomethoxy]-2-oxanyl]methyl ester
> <PUBCHEM_IUPAC_NAME_MARKUP>
[(2<I>R</I>,3<I>S</I>,4<I>R</I>,5<I>R</I>,6<I>R</I>)-5-acetamido-3,4-dibenzoyloxy-6-[[(2<I>R</I>,3<I>R</I>,4<I>R</I>,5<I>R</I>)-5-(2,4-dioxopyrimidin-1-yl)-3,4-di(propan-2-yloxy)oxolan-2-yl]methoxysulfonylcarbamoyloxy]oxan-2-yl]methyl benzoate
> <PUBCHEM_IUPAC_NAME>
[(2R,3S,4R,5R,6R)-5-acetamido-3,4-dibenzoyloxy-6-[[(2R,3R,4R,5R)-5-(2,4-dioxopyrimidin-1-yl)-3,4-di(propan-2-yloxy)oxolan-2-yl]methoxysulfonylcarbamoyloxy]oxan-2-yl]methyl benzoate
> <PUBCHEM_IUPAC_SYSTEMATIC_NAME>
[(2R,3S,4R,5R,6R)-5-acetamido-6-[[(2R,3R,4R,5R)-5-[2,4-bis(oxidanylidene)pyrimidin-1-yl]-3,4-di(propan-2-yloxy)oxolan-2-yl]methoxysulfonylcarbamoyloxy]-3,4-bis(phenylcarbonyloxy)oxan-2-yl]methyl benzoate
> <PUBCHEM_IUPAC_TRADITIONAL_NAME>
benzoic acid [(2R,3S,4R,5R,6R)-5-acetamido-3,4-dibenzoyloxy-6-[[(2R,3R,4R,5R)-5-(2,4-diketopyrimidin-1-yl)-3,4-diisopropoxy-tetrahydrofuran-2-yl]methoxysulfonylcarbamoyloxy]tetrahydropyran-2-yl]methyl ester
> <PUBCHEM_IUPAC_INCHI>
InChI=1S/C45H50N4O18S/c1-25(2)61-36-32(63-39(38(36)62-26(3)4)49-22-21-33(51)47-44(49)55)24-60-68(57,58)48-45(56)67-43-34(46-27(5)50)37(66-42(54)30-19-13-8-14-20-30)35(65-41(53)29-17-11-7-12-18-29)31(64-43)23-59-40(52)28-15-9-6-10-16-28/h6-22,25-26,31-32,34-39,43H,23-24H2,1-5H3,(H,46,50)(H,48,56)(H,47,51,55)/t31-,32-,34-,35-,36-,37-,38-,39-,43-/m1/s1
> <PUBCHEM_IUPAC_INCHIKEY>
BMTFRZSGCLWXCY-FROOASOGSA-N
> <PUBCHEM_XLOGP3_AA>
3.9
> <PUBCHEM_EXACT_MASS>
966.28408193
> <PUBCHEM_MOLECULAR_FORMULA>
C45H50N4O18S
> <PUBCHEM_MOLECULAR_WEIGHT>
967.0
> <PUBCHEM_OPENEYE_CAN_SMILES>
CC(C)OC1C(OC(C1OC(C)C)N2C=CC(=O)NC2=O)COS(=O)(=O)NC(=O)OC3C(C(C(C(O3)COC(=O)C4=CC=CC=C4)OC(=O)C5=CC=CC=C5)OC(=O)C6=CC=CC=C6)NC(=O)C
> <PUBCHEM_OPENEYE_ISO_SMILES>
CC(C)O[C@@H]1[C@H](O[C@H]([C@@H]1OC(C)C)N2C=CC(=O)NC2=O)COS(=O)(=O)NC(=O)O[C@@H]3[C@@H]([C@H]([C@@H]([C@H](O3)COC(=O)C4=CC=CC=C4)OC(=O)C5=CC=CC=C5)OC(=O)C6=CC=CC=C6)NC(=O)C
> <PUBCHEM_CACTVS_TPSA>
284
> <PUBCHEM_MONOISOTOPIC_WEIGHT>
966.28408193
> <PUBCHEM_TOTAL_CHARGE>
0
> <PUBCHEM_HEAVY_ATOM_COUNT>
68
> <PUBCHEM_ATOM_DEF_STEREO_COUNT>
9
> <PUBCHEM_ATOM_UDEF_STEREO_COUNT>
0
> <PUBCHEM_BOND_DEF_STEREO_COUNT>
0
> <PUBCHEM_BOND_UDEF_STEREO_COUNT>
0
> <PUBCHEM_ISOTOPIC_ATOM_COUNT>
0
> <PUBCHEM_COMPONENT_COUNT>
1
> <PUBCHEM_CACTVS_TAUTO_COUNT>
-1
> <PUBCHEM_COORDINATE_TYPE>
1
5
255
> <PUBCHEM_BONDANNOTATIONS>
27  20  6
20  37  8
20  38  8
30  21  6
22  37  8
22  46  8
26  29  6
24  3  5
32  36  5
38  43  8
25  4  5
43  46  8
50  53  8
50  54  8
51  56  8
51  57  8
53  58  8
54  59  8
55  62  8
55  63  8
56  60  8
57  61  8
58  64  8
59  64  8
60  65  8
61  65  8
62  66  8
63  67  8
66  68  8
67  68  8
28  7  5
31  8  6
33  9  6
$$$$
