503448
  -OEChem-10302200282D
 45 48  0     1  0  0  0  0  0999 V2000
    8.9030   -2.7461    0.0000 Cl  0  0  0  0  0  0  0  0  0  0  0  0
    4.6783   -0.9707    0.0000 N   0  0  0  0  0  0  0  0  0  0  0  0
    5.9674    1.7955    0.0000 N   0  0  0  0  0  0  0  0  0  0  0  0
    7.5763    1.6236    0.0000 N   0  0  0  0  0  0  0  0  0  0  0  0
    4.9889    1.5893    0.0000 C   0  0  3  0  0  0  0  0  0  0  0  0
    4.6783    0.6388    0.0000 C   0  0  0  0  0  0  0  0  0  0  0  0
    3.7320    0.3341    0.0000 C   0  0  0  0  0  0  0  0  0  0  0  0
    3.7320   -0.6659    0.0000 C   0  0  0  0  0  0  0  0  0  0  0  0
    4.3211    2.3336    0.0000 C   0  0  0  0  0  0  0  0  0  0  0  0
    5.2619   -0.1659    0.0000 C   0  0  0  0  0  0  0  0  0  0  0  0
    4.9889   -1.9212    0.0000 C   0  0  0  0  0  0  0  0  0  0  0  0
    2.8660    0.8341    0.0000 C   0  0  0  0  0  0  0  0  0  0  0  0
    2.8660   -1.1659    0.0000 C   0  0  0  0  0  0  0  0  0  0  0  0
    4.6318    3.2841    0.0000 C   0  0  0  0  0  0  0  0  0  0  0  0
    5.9674   -2.1274    0.0000 C   0  0  0  0  0  0  0  0  0  0  0  0
    6.3758    2.7084    0.0000 C   0  0  0  0  0  0  0  0  0  0  0  0
    6.7094    1.1251    0.0000 C   0  0  0  0  0  0  0  0  0  0  0  0
    2.0000    0.3341    0.0000 C   0  0  0  0  0  0  0  0  0  0  0  0
    2.0000   -0.6659    0.0000 C   0  0  0  0  0  0  0  0  0  0  0  0
    7.3701    2.6021    0.0000 C   0  0  0  0  0  0  0  0  0  0  0  0
    6.2781   -3.0779    0.0000 C   0  0  0  0  0  0  0  0  0  0  0  0
    6.6353   -1.3831    0.0000 C   0  0  0  0  0  0  0  0  0  0  0  0
    7.2566   -3.2841    0.0000 C   0  0  0  0  0  0  0  0  0  0  0  0
    7.6138   -1.5893    0.0000 C   0  0  0  0  0  0  0  0  0  0  0  0
    7.9244   -2.5398    0.0000 C   0  0  0  0  0  0  0  0  0  0  0  0
    5.1815    2.1786    0.0000 H   0  0  0  0  0  0  0  0  0  0  0  0
    3.7742    2.6256    0.0000 H   0  0  0  0  0  0  0  0  0  0  0  0
    3.9385    1.8457    0.0000 H   0  0  0  0  0  0  0  0  0  0  0  0
    5.8819   -0.1659    0.0000 H   0  0  0  0  0  0  0  0  0  0  0  0
    4.3751   -2.0085    0.0000 H   0  0  0  0  0  0  0  0  0  0  0  0
    4.9684   -2.5408    0.0000 H   0  0  0  0  0  0  0  0  0  0  0  0
    2.8660    1.4541    0.0000 H   0  0  0  0  0  0  0  0  0  0  0  0
    2.8660   -1.7859    0.0000 H   0  0  0  0  0  0  0  0  0  0  0  0
    5.2211    3.0915    0.0000 H   0  0  0  0  0  0  0  0  0  0  0  0
    4.8244    3.8735    0.0000 H   0  0  0  0  0  0  0  0  0  0  0  0
    4.0424    3.4768    0.0000 H   0  0  0  0  0  0  0  0  0  0  0  0
    6.0667    3.2458    0.0000 H   0  0  0  0  0  0  0  0  0  0  0  0
    6.6436    0.5086    0.0000 H   0  0  0  0  0  0  0  0  0  0  0  0
    1.4631    0.6441    0.0000 H   0  0  0  0  0  0  0  0  0  0  0  0
    1.4631   -0.9759    0.0000 H   0  0  0  0  0  0  0  0  0  0  0  0
    7.7858    3.0622    0.0000 H   0  0  0  0  0  0  0  0  0  0  0  0
    5.8640   -3.5394    0.0000 H   0  0  0  0  0  0  0  0  0  0  0  0
    6.4427   -0.7938    0.0000 H   0  0  0  0  0  0  0  0  0  0  0  0
    7.4492   -3.8735    0.0000 H   0  0  0  0  0  0  0  0  0  0  0  0
    8.0279   -1.1278    0.0000 H   0  0  0  0  0  0  0  0  0  0  0  0
  1 25  1  0  0  0  0
  2  8  1  0  0  0  0
  2 10  1  0  0  0  0
  2 11  1  0  0  0  0
  3  5  1  0  0  0  0
  3 16  1  0  0  0  0
  3 17  1  0  0  0  0
  4 17  2  0  0  0  0
  4 20  1  0  0  0  0
  5  6  1  0  0  0  0
  5  9  1  0  0  0  0
  5 26  1  0  0  0  0
  6  7  1  0  0  0  0
  6 10  2  0  0  0  0
  7  8  1  0  0  0  0
  7 12  2  0  0  0  0
  8 13  2  0  0  0  0
  9 14  1  0  0  0  0
  9 27  1  0  0  0  0
  9 28  1  0  0  0  0
 10 29  1  0  0  0  0
 11 15  1  0  0  0  0
 11 30  1  0  0  0  0
 11 31  1  0  0  0  0
 12 18  1  0  0  0  0
 12 32  1  0  0  0  0
 13 19  1  0  0  0  0
 13 33  1  0  0  0  0
 14 34  1  0  0  0  0
 14 35  1  0  0  0  0
 14 36  1  0  0  0  0
 15 21  2  0  0  0  0
 15 22  1  0  0  0  0
 16 20  2  0  0  0  0
 16 37  1  0  0  0  0
 17 38  1  0  0  0  0
 18 19  2  0  0  0  0
 18 39  1  0  0  0  0
 19 40  1  0  0  0  0
 20 41  1  0  0  0  0
 21 23  1  0  0  0  0
 21 42  1  0  0  0  0
 22 24  2  0  0  0  0
 22 43  1  0  0  0  0
 23 25  2  0  0  0  0
 23 44  1  0  0  0  0
 24 25  1  0  0  0  0
 24 45  1  0  0  0  0
M  END
> <PUBCHEM_COMPOUND_CID>
503448
> <PUBCHEM_COMPOUND_CANONICALIZED>
1
> <PUBCHEM_CACTVS_COMPLEXITY>
423
> <PUBCHEM_CACTVS_HBOND_ACCEPTOR>
1
> <PUBCHEM_CACTVS_HBOND_DONOR>
0
> <PUBCHEM_CACTVS_ROTATABLE_BOND>
5
> <PUBCHEM_CACTVS_SUBSKEYS>
AAADceB7AAAEAAAAAAAAAAAAAAAAAWLAAAAwYAAAAAAAAFgB/AAAHAIAAAAADCrBHiQ/0PcMEACgAzRnZACCgC0xF6AJ2CA4dpiIaOLB25GUIAhogALIyCcQgMAOhAAAAAACAAAIAAAAAAQAAAAAAAAAAA==
> <PUBCHEM_IUPAC_OPENEYE_NAME>
1-[(4-chlorophenyl)methyl]-3-(1-imidazol-1-ylpropyl)indole
> <PUBCHEM_IUPAC_CAS_NAME>
1-[(4-chlorophenyl)methyl]-3-[1-(1-imidazolyl)propyl]indole
> <PUBCHEM_IUPAC_NAME_MARKUP>
1-[(4-chlorophenyl)methyl]-3-(1-imidazol-1-ylpropyl)indole
> <PUBCHEM_IUPAC_NAME>
1-[(4-chlorophenyl)methyl]-3-(1-imidazol-1-ylpropyl)indole
> <PUBCHEM_IUPAC_SYSTEMATIC_NAME>
1-[(4-chlorophenyl)methyl]-3-(1-imidazol-1-ylpropyl)indole
> <PUBCHEM_IUPAC_TRADITIONAL_NAME>
1-(4-chlorobenzyl)-3-(1-imidazol-1-ylpropyl)indole
> <PUBCHEM_IUPAC_INCHI>
InChI=1S/C21H20ClN3/c1-2-20(24-12-11-23-15-24)19-14-25(21-6-4-3-5-18(19)21)13-16-7-9-17(22)10-8-16/h3-12,14-15,20H,2,13H2,1H3
> <PUBCHEM_IUPAC_INCHIKEY>
UVZDCSMHVRCYKN-UHFFFAOYSA-N
> <PUBCHEM_XLOGP3_AA>
4.8
> <PUBCHEM_EXACT_MASS>
349.1345753
> <PUBCHEM_MOLECULAR_FORMULA>
C21H20ClN3
> <PUBCHEM_MOLECULAR_WEIGHT>
349.9
> <PUBCHEM_OPENEYE_CAN_SMILES>
CCC(C1=CN(C2=CC=CC=C21)CC3=CC=C(C=C3)Cl)N4C=CN=C4
> <PUBCHEM_OPENEYE_ISO_SMILES>
CCC(C1=CN(C2=CC=CC=C21)CC3=CC=C(C=C3)Cl)N4C=CN=C4
> <PUBCHEM_CACTVS_TPSA>
22.8
> <PUBCHEM_MONOISOTOPIC_WEIGHT>
349.1345753
> <PUBCHEM_TOTAL_CHARGE>
0
> <PUBCHEM_HEAVY_ATOM_COUNT>
25
> <PUBCHEM_ATOM_DEF_STEREO_COUNT>
0
> <PUBCHEM_ATOM_UDEF_STEREO_COUNT>
1
> <PUBCHEM_BOND_DEF_STEREO_COUNT>
0
> <PUBCHEM_BOND_UDEF_STEREO_COUNT>
0
> <PUBCHEM_ISOTOPIC_ATOM_COUNT>
0
> <PUBCHEM_COMPONENT_COUNT>
1
> <PUBCHEM_CACTVS_TAUTO_COUNT>
-1
> <PUBCHEM_COORDINATE_TYPE>
1
5
255
> <PUBCHEM_BONDANNOTATIONS>
12  18  8
13  19  8
15  21  8
15  22  8
16  20  8
18  19  8
2  10  8
2  8  8
21  23  8
22  24  8
23  25  8
24  25  8
3  16  8
3  17  8
4  17  8
4  20  8
5  9  3
6  10  8
6  7  8
7  12  8
7  8  8
8  13  8
$$$$
