503416
  -OEChem-10302200282D
 30 31  0     1  0  0  0  0  0999 V2000
    7.2109   -0.7106    0.0000 O   0  0  0  0  0  0  0  0  0  0  0  0
    2.6135    2.9567    0.0000 O   0  0  0  0  0  0  0  0  0  0  0  0
    8.8002   -2.8258    0.0000 O   0  0  0  0  0  0  0  0  0  0  0  0
    5.9276    0.4526    0.0000 N   0  0  0  0  0  0  0  0  0  0  0  0
    4.1979    0.1424    0.0000 N   0  0  0  0  0  0  0  0  0  0  0  0
    5.9356    2.0620    0.0000 N   0  0  0  0  0  0  0  0  0  0  0  0
    2.7947    1.2729    0.0000 N   0  0  0  0  0  0  0  0  0  0  0  0
    4.9878    1.7620    0.0000 C   0  0  0  0  0  0  0  0  0  0  0  0
    4.9829    0.7620    0.0000 C   0  0  0  0  0  0  0  0  0  0  0  0
    4.2091    2.3894    0.0000 C   0  0  0  0  0  0  0  0  0  0  0  0
    3.2331    2.1717    0.0000 C   0  0  2  0  0  0  0  0  0  0  0  0
    6.2335   -0.4995    0.0000 C   0  0  0  0  0  0  0  0  0  0  0  0
    6.5152    1.2544    0.0000 C   0  0  0  0  0  0  0  0  0  0  0  0
    3.2241    0.3698    0.0000 C   0  0  0  0  0  0  0  0  0  0  0  0
    7.5168   -1.6626    0.0000 C   0  0  0  0  0  0  0  0  0  0  0  0
    8.4943   -1.8737    0.0000 C   0  0  0  0  0  0  0  0  0  0  0  0
    4.6958    2.7735    0.0000 H   0  0  0  0  0  0  0  0  0  0  0  0
    3.9429    2.9493    0.0000 H   0  0  0  0  0  0  0  0  0  0  0  0
    3.4408    2.7559    0.0000 H   0  0  0  0  0  0  0  0  0  0  0  0
    5.6192   -0.5838    0.0000 H   0  0  0  0  0  0  0  0  0  0  0  0
    6.2098   -1.1190    0.0000 H   0  0  0  0  0  0  0  0  0  0  0  0
    7.1352    1.2513    0.0000 H   0  0  0  0  0  0  0  0  0  0  0  0
    4.3329   -0.4627    0.0000 H   0  0  0  0  0  0  0  0  0  0  0  0
    2.8352   -0.1130    0.0000 H   0  0  0  0  0  0  0  0  0  0  0  0
    6.9026   -1.7469    0.0000 H   0  0  0  0  0  0  0  0  0  0  0  0
    7.4932   -2.2822    0.0000 H   0  0  0  0  0  0  0  0  0  0  0  0
    2.0000    2.8673    0.0000 H   0  0  0  0  0  0  0  0  0  0  0  0
    9.1086   -1.7894    0.0000 H   0  0  0  0  0  0  0  0  0  0  0  0
    8.5180   -1.2542    0.0000 H   0  0  0  0  0  0  0  0  0  0  0  0
    9.4063   -2.9567    0.0000 H   0  0  0  0  0  0  0  0  0  0  0  0
  1 12  1  0  0  0  0
  1 15  1  0  0  0  0
 11  2  1  1  0  0  0
  2 27  1  0  0  0  0
  3 16  1  0  0  0  0
  3 30  1  0  0  0  0
  4  9  1  0  0  0  0
  4 12  1  0  0  0  0
  4 13  1  0  0  0  0
  5  9  1  0  0  0  0
  5 14  1  0  0  0  0
  5 23  1  0  0  0  0
  6  8  1  0  0  0  0
  6 13  2  0  0  0  0
  7 11  1  0  0  0  0
  7 14  2  0  0  0  0
  8  9  2  0  0  0  0
  8 10  1  0  0  0  0
 10 11  1  0  0  0  0
 10 17  1  0  0  0  0
 10 18  1  0  0  0  0
 11 19  1  0  0  0  0
 12 20  1  0  0  0  0
 12 21  1  0  0  0  0
 13 22  1  0  0  0  0
 14 24  1  0  0  0  0
 15 16  1  0  0  0  0
 15 25  1  0  0  0  0
 15 26  1  0  0  0  0
 16 28  1  0  0  0  0
 16 29  1  0  0  0  0
M  END
> <PUBCHEM_COMPOUND_CID>
503416
> <PUBCHEM_COMPOUND_CANONICALIZED>
1
> <PUBCHEM_CACTVS_COMPLEXITY>
251
> <PUBCHEM_CACTVS_HBOND_ACCEPTOR>
5
> <PUBCHEM_CACTVS_HBOND_DONOR>
3
> <PUBCHEM_CACTVS_ROTATABLE_BOND>
4
> <PUBCHEM_CACTVS_SUBSKEYS>
AAADccBzsAAAAAAAAAAAAAAAAAAAAWAAAAAAAAAABAAAAACBgAAAHgAQCAAACAjhlgYFsBfMFgCgAQZhZAAAgC0xEKABUIA4UAiBeABAyAEcQAAOQANDQCAgAAAAAAAAAAAAAAAAAAAAAAAAAAAAAAAAAA==
> <PUBCHEM_IUPAC_OPENEYE_NAME>
(7S)-3-(2-hydroxyethoxymethyl)-7,8-dihydro-4H-imidazo[4,5-d][1,3]diazepin-7-ol
> <PUBCHEM_IUPAC_CAS_NAME>
(7S)-3-(2-hydroxyethoxymethyl)-7,8-dihydro-4H-imidazo[4,5-d][1,3]diazepin-7-ol
> <PUBCHEM_IUPAC_NAME_MARKUP>
(7<I>S</I>)-3-(2-hydroxyethoxymethyl)-7,8-dihydro-4<I>H</I>-imidazo[4,5-d][1,3]diazepin-7-ol
> <PUBCHEM_IUPAC_NAME>
(7S)-3-(2-hydroxyethoxymethyl)-7,8-dihydro-4H-imidazo[4,5-d][1,3]diazepin-7-ol
> <PUBCHEM_IUPAC_SYSTEMATIC_NAME>
(7S)-3-(2-hydroxyethyloxymethyl)-7,8-dihydro-4H-imidazo[4,5-d][1,3]diazepin-7-ol
> <PUBCHEM_IUPAC_TRADITIONAL_NAME>
(7S)-3-(2-hydroxyethoxymethyl)-7,8-dihydro-4H-imidazo[4,5-d][1,3]diazepin-7-ol
> <PUBCHEM_IUPAC_INCHI>
InChI=1S/C9H14N4O3/c14-1-2-16-6-13-5-12-7-3-8(15)10-4-11-9(7)13/h4-5,8,14-15H,1-3,6H2,(H,10,11)/t8-/m0/s1
> <PUBCHEM_IUPAC_INCHIKEY>
GCPHNKLTEYHTQZ-QMMMGPOBSA-N
> <PUBCHEM_XLOGP3_AA>
-1.8
> <PUBCHEM_EXACT_MASS>
226.10659032
> <PUBCHEM_MOLECULAR_FORMULA>
C9H14N4O3
> <PUBCHEM_MOLECULAR_WEIGHT>
226.23
> <PUBCHEM_OPENEYE_CAN_SMILES>
C1C(N=CNC2=C1N=CN2COCCO)O
> <PUBCHEM_OPENEYE_ISO_SMILES>
C1[C@@H](N=CNC2=C1N=CN2COCCO)O
> <PUBCHEM_CACTVS_TPSA>
91.9
> <PUBCHEM_MONOISOTOPIC_WEIGHT>
226.10659032
> <PUBCHEM_TOTAL_CHARGE>
0
> <PUBCHEM_HEAVY_ATOM_COUNT>
16
> <PUBCHEM_ATOM_DEF_STEREO_COUNT>
1
> <PUBCHEM_ATOM_UDEF_STEREO_COUNT>
0
> <PUBCHEM_BOND_DEF_STEREO_COUNT>
0
> <PUBCHEM_BOND_UDEF_STEREO_COUNT>
0
> <PUBCHEM_ISOTOPIC_ATOM_COUNT>
0
> <PUBCHEM_COMPONENT_COUNT>
1
> <PUBCHEM_CACTVS_TAUTO_COUNT>
-1
> <PUBCHEM_COORDINATE_TYPE>
1
5
255
> <PUBCHEM_BONDANNOTATIONS>
11  2  5
4  13  8
4  9  8
6  13  8
6  8  8
8  9  8
$$$$
