503478
  -OEChem-10302200282D
140144  0     1  0  0  0  0  0999 V2000
    8.2619    2.9641    0.0000 S   0  0  0  0  0  0  0  0  0  0  0  0
    9.2619    2.9641    0.0000 O   0  0  0  0  0  0  0  0  0  0  0  0
    9.7619    2.0981    0.0000 O   0  0  0  0  0  0  0  0  0  0  0  0
    8.2619    6.4282    0.0000 O   0  0  0  0  0  0  0  0  0  0  0  0
   12.2619   -0.5000    0.0000 O   0  0  0  0  0  0  0  0  0  0  0  0
    6.2619    4.6962    0.0000 O   0  0  0  0  0  0  0  0  0  0  0  0
   14.2619   -0.5000    0.0000 O   0  0  0  0  0  0  0  0  0  0  0  0
   14.2619    1.2320    0.0000 O   0  0  0  0  0  0  0  0  0  0  0  0
   12.7619   -1.3660    0.0000 O   0  0  0  0  0  0  0  0  0  0  0  0
   13.7619   -4.8301    0.0000 O   0  0  0  0  0  0  0  0  0  0  0  0
   15.7619   -4.8301    0.0000 O   0  0  0  0  0  0  0  0  0  0  0  0
   15.7619   -3.0981    0.0000 O   0  0  0  0  0  0  0  0  0  0  0  0
    9.7619   -6.5622    0.0000 O   0  0  0  0  0  0  0  0  0  0  0  0
   11.2619   -7.4282    0.0000 O   0  0  0  0  0  0  0  0  0  0  0  0
   14.2619   -5.6962    0.0000 O   0  0  0  0  0  0  0  0  0  0  0  0
   11.2619    2.9641    0.0000 N   0  0  0  0  0  0  0  0  0  0  0  0
    9.2619    4.6962    0.0000 N   0  0  0  0  0  0  0  0  0  0  0  0
   10.7619    0.3660    0.0000 N   0  0  0  0  0  0  0  0  0  0  0  0
    6.2619    6.4282    0.0000 N   0  0  0  0  0  0  0  0  0  0  0  0
   11.2619   -2.2320    0.0000 N   0  0  0  0  0  0  0  0  0  0  0  0
   12.2619   -3.9641    0.0000 N   0  0  0  0  0  0  0  0  0  0  0  0
   12.7619   -6.5622    0.0000 N   0  0  0  0  0  0  0  0  0  0  0  0
   12.2619    4.6962    0.0000 C   0  0  0  0  0  0  0  0  0  0  0  0
   12.7619    3.8301    0.0000 C   0  0  0  0  0  0  0  0  0  0  0  0
   12.7619    5.5622    0.0000 C   0  0  0  0  0  0  0  0  0  0  0  0
   11.2619    4.6962    0.0000 C   0  0  0  0  0  0  0  0  0  0  0  0
   13.7619    3.8301    0.0000 C   0  0  0  0  0  0  0  0  0  0  0  0
   13.7619    5.5622    0.0000 C   0  0  0  0  0  0  0  0  0  0  0  0
   14.2619    4.6962    0.0000 C   0  0  0  0  0  0  0  0  0  0  0  0
   10.7619    3.8301    0.0000 C   0  0  1  0  0  0  0  0  0  0  0  0
    9.7619    3.8301    0.0000 C   0  0  0  0  0  0  0  0  0  0  0  0
   10.7619    2.0981    0.0000 C   0  0  0  0  0  0  0  0  0  0  0  0
   11.2619    1.2320    0.0000 C   0  0  2  0  0  0  0  0  0  0  0  0
    8.2619    4.6962    0.0000 C   0  0  1  0  0  0  0  0  0  0  0  0
   12.2619    1.2320    0.0000 C   0  0  0  0  0  0  0  0  0  0  0  0
    5.2619    6.4282    0.0000 C   0  0  0  0  0  0  0  0  0  0  0  0
    4.6783    7.2329    0.0000 C   0  0  0  0  0  0  0  0  0  0  0  0
    4.6783    5.6235    0.0000 C   0  0  0  0  0  0  0  0  0  0  0  0
    7.7619    3.8301    0.0000 C   0  0  0  0  0  0  0  0  0  0  0  0
    7.7619    5.5622    0.0000 C   0  0  0  0  0  0  0  0  0  0  0  0
    3.7320    6.9282    0.0000 C   0  0  0  0  0  0  0  0  0  0  0  0
    3.7320    5.9282    0.0000 C   0  0  0  0  0  0  0  0  0  0  0  0
   10.7619   -1.3660    0.0000 C   0  0  2  0  0  0  0  0  0  0  0  0
   12.7619    0.3660    0.0000 C   0  0  0  0  0  0  0  0  0  0  0  0
   11.2619   -0.5000    0.0000 C   0  0  0  0  0  0  0  0  0  0  0  0
    9.7619   -1.3660    0.0000 C   0  0  0  0  0  0  0  0  0  0  0  0
    6.7619    5.5622    0.0000 C   0  0  0  0  0  0  0  0  0  0  0  0
    2.8660    7.4282    0.0000 C   0  0  0  0  0  0  0  0  0  0  0  0
    2.8660    5.4282    0.0000 C   0  0  0  0  0  0  0  0  0  0  0  0
    9.2619   -2.2320    0.0000 C   0  0  0  0  0  0  0  0  0  0  0  0
    8.8958   -0.8660    0.0000 C   0  0  0  0  0  0  0  0  0  0  0  0
   13.7619    0.3660    0.0000 C   0  0  0  0  0  0  0  0  0  0  0  0
    2.0000    6.9282    0.0000 C   0  0  0  0  0  0  0  0  0  0  0  0
    2.0000    5.9282    0.0000 C   0  0  0  0  0  0  0  0  0  0  0  0
   12.2619   -2.2320    0.0000 C   0  0  0  0  0  0  0  0  0  0  0  0
   12.7619   -3.0981    0.0000 C   0  0  2  0  0  0  0  0  0  0  0  0
    8.2619   -2.2320    0.0000 C   0  0  0  0  0  0  0  0  0  0  0  0
    8.8958    0.1340    0.0000 C   0  0  0  0  0  0  0  0  0  0  0  0
    9.7619   -3.0981    0.0000 C   0  0  0  0  0  0  0  0  0  0  0  0
    8.0298   -1.3660    0.0000 C   0  0  0  0  0  0  0  0  0  0  0  0
   13.7619   -3.0981    0.0000 C   0  0  0  0  0  0  0  0  0  0  0  0
    7.7619   -3.0981    0.0000 C   0  0  0  0  0  0  0  0  0  0  0  0
    8.0298    0.6340    0.0000 C   0  0  0  0  0  0  0  0  0  0  0  0
    9.2619   -3.9641    0.0000 C   0  0  0  0  0  0  0  0  0  0  0  0
    7.1638   -0.8660    0.0000 C   0  0  0  0  0  0  0  0  0  0  0  0
   14.2619   -3.9641    0.0000 C   0  0  0  0  0  0  0  0  0  0  0  0
    8.2619   -3.9641    0.0000 C   0  0  0  0  0  0  0  0  0  0  0  0
    7.1638    0.1340    0.0000 C   0  0  0  0  0  0  0  0  0  0  0  0
   12.7619   -4.8301    0.0000 C   0  0  0  0  0  0  0  0  0  0  0  0
   12.2619   -5.6962    0.0000 C   0  0  2  0  0  0  0  0  0  0  0  0
   15.2619   -3.9641    0.0000 C   0  0  0  0  0  0  0  0  0  0  0  0
   11.2619   -5.6962    0.0000 C   0  0  0  0  0  0  0  0  0  0  0  0
   10.7619   -6.5622    0.0000 C   0  0  0  0  0  0  0  0  0  0  0  0
   13.7619   -6.5622    0.0000 C   0  0  0  0  0  0  0  0  0  0  0  0
   14.2619   -7.4282    0.0000 C   0  0  0  0  0  0  0  0  0  0  0  0
   11.9519    4.1592    0.0000 H   0  0  0  0  0  0  0  0  0  0  0  0
   12.1793    3.6181    0.0000 H   0  0  0  0  0  0  0  0  0  0  0  0
   12.8695    3.2196    0.0000 H   0  0  0  0  0  0  0  0  0  0  0  0
   12.8695    6.1728    0.0000 H   0  0  0  0  0  0  0  0  0  0  0  0
   12.1793    5.7742    0.0000 H   0  0  0  0  0  0  0  0  0  0  0  0
   11.3695    5.3067    0.0000 H   0  0  0  0  0  0  0  0  0  0  0  0
   10.6793    4.9082    0.0000 H   0  0  0  0  0  0  0  0  0  0  0  0
   13.6542    3.2196    0.0000 H   0  0  0  0  0  0  0  0  0  0  0  0
   14.3445    3.6181    0.0000 H   0  0  0  0  0  0  0  0  0  0  0  0
   14.3445    5.7742    0.0000 H   0  0  0  0  0  0  0  0  0  0  0  0
   13.6542    6.1728    0.0000 H   0  0  0  0  0  0  0  0  0  0  0  0
   14.7368    4.2976    0.0000 H   0  0  0  0  0  0  0  0  0  0  0  0
   14.7368    5.0947    0.0000 H   0  0  0  0  0  0  0  0  0  0  0  0
   10.4519    3.2932    0.0000 H   0  0  0  0  0  0  0  0  0  0  0  0
   11.8819    2.9641    0.0000 H   0  0  0  0  0  0  0  0  0  0  0  0
    9.5719    5.2331    0.0000 H   0  0  0  0  0  0  0  0  0  0  0  0
   11.5719    0.6951    0.0000 H   0  0  0  0  0  0  0  0  0  0  0  0
    8.5719    4.1592    0.0000 H   0  0  0  0  0  0  0  0  0  0  0  0
   12.8445    1.4441    0.0000 H   0  0  0  0  0  0  0  0  0  0  0  0
   12.1542    1.8426    0.0000 H   0  0  0  0  0  0  0  0  0  0  0  0
    5.5436    5.8759    0.0000 H   0  0  0  0  0  0  0  0  0  0  0  0
   10.1419    0.3660    0.0000 H   0  0  0  0  0  0  0  0  0  0  0  0
    5.2156    7.5422    0.0000 H   0  0  0  0  0  0  0  0  0  0  0  0
    4.4272    7.7998    0.0000 H   0  0  0  0  0  0  0  0  0  0  0  0
    4.4272    5.0566    0.0000 H   0  0  0  0  0  0  0  0  0  0  0  0
    5.2156    5.3142    0.0000 H   0  0  0  0  0  0  0  0  0  0  0  0
    7.2869    4.2287    0.0000 H   0  0  0  0  0  0  0  0  0  0  0  0
    7.2869    3.4316    0.0000 H   0  0  0  0  0  0  0  0  0  0  0  0
   11.3819   -1.3660    0.0000 H   0  0  0  0  0  0  0  0  0  0  0  0
   12.1793    0.1540    0.0000 H   0  0  0  0  0  0  0  0  0  0  0  0
   12.8695   -0.2446    0.0000 H   0  0  0  0  0  0  0  0  0  0  0  0
    6.5719    6.9651    0.0000 H   0  0  0  0  0  0  0  0  0  0  0  0
    9.9224   -0.7672    0.0000 H   0  0  0  0  0  0  0  0  0  0  0  0
    2.8660    8.0482    0.0000 H   0  0  0  0  0  0  0  0  0  0  0  0
    2.8660    4.8082    0.0000 H   0  0  0  0  0  0  0  0  0  0  0  0
   10.9519   -2.7690    0.0000 H   0  0  0  0  0  0  0  0  0  0  0  0
    7.9519    2.4272    0.0000 H   0  0  0  0  0  0  0  0  0  0  0  0
    1.4631    7.2382    0.0000 H   0  0  0  0  0  0  0  0  0  0  0  0
    1.4631    5.6182    0.0000 H   0  0  0  0  0  0  0  0  0  0  0  0
   13.0719   -3.6350    0.0000 H   0  0  0  0  0  0  0  0  0  0  0  0
    7.9519   -1.6951    0.0000 H   0  0  0  0  0  0  0  0  0  0  0  0
    9.4328    0.4440    0.0000 H   0  0  0  0  0  0  0  0  0  0  0  0
   10.3819   -3.0981    0.0000 H   0  0  0  0  0  0  0  0  0  0  0  0
    8.0298   -1.9860    0.0000 H   0  0  0  0  0  0  0  0  0  0  0  0
   14.3445   -2.8860    0.0000 H   0  0  0  0  0  0  0  0  0  0  0  0
   13.6542   -2.4875    0.0000 H   0  0  0  0  0  0  0  0  0  0  0  0
   11.6419   -3.9641    0.0000 H   0  0  0  0  0  0  0  0  0  0  0  0
    7.1419   -3.0981    0.0000 H   0  0  0  0  0  0  0  0  0  0  0  0
    8.0298    1.2540    0.0000 H   0  0  0  0  0  0  0  0  0  0  0  0
    9.5719   -4.5010    0.0000 H   0  0  0  0  0  0  0  0  0  0  0  0
    6.6269   -1.1760    0.0000 H   0  0  0  0  0  0  0  0  0  0  0  0
   13.6793   -4.1762    0.0000 H   0  0  0  0  0  0  0  0  0  0  0  0
   14.3695   -4.5747    0.0000 H   0  0  0  0  0  0  0  0  0  0  0  0
   14.8819   -0.5000    0.0000 H   0  0  0  0  0  0  0  0  0  0  0  0
    7.9519   -4.5010    0.0000 H   0  0  0  0  0  0  0  0  0  0  0  0
    6.6269    0.4440    0.0000 H   0  0  0  0  0  0  0  0  0  0  0  0
   11.9519   -6.2331    0.0000 H   0  0  0  0  0  0  0  0  0  0  0  0
   11.3695   -5.0856    0.0000 H   0  0  0  0  0  0  0  0  0  0  0  0
   10.6793   -5.4841    0.0000 H   0  0  0  0  0  0  0  0  0  0  0  0
   12.4519   -7.0991    0.0000 H   0  0  0  0  0  0  0  0  0  0  0  0
   16.3819   -4.8301    0.0000 H   0  0  0  0  0  0  0  0  0  0  0  0
   13.7249   -7.7382    0.0000 H   0  0  0  0  0  0  0  0  0  0  0  0
   14.5719   -7.9651    0.0000 H   0  0  0  0  0  0  0  0  0  0  0  0
   14.7988   -7.1182    0.0000 H   0  0  0  0  0  0  0  0  0  0  0  0
    9.4519   -7.0991    0.0000 H   0  0  0  0  0  0  0  0  0  0  0  0
  1 39  1  0  0  0  0
  1112  1  0  0  0  0
  2 31  2  0  0  0  0
  3 32  2  0  0  0  0
  4 40  2  0  0  0  0
  5 45  2  0  0  0  0
  6 47  2  0  0  0  0
  7 52  1  0  0  0  0
  7129  1  0  0  0  0
  8 52  2  0  0  0  0
  9 55  2  0  0  0  0
 10 69  2  0  0  0  0
 11 71  1  0  0  0  0
 11136  1  0  0  0  0
 12 71  2  0  0  0  0
 13 73  1  0  0  0  0
 13140  1  0  0  0  0
 14 73  2  0  0  0  0
 15 74  2  0  0  0  0
 30 16  1  6  0  0  0
 16 32  1  0  0  0  0
 16 90  1  0  0  0  0
 17 31  1  0  0  0  0
 34 17  1  1  0  0  0
 17 91  1  0  0  0  0
 33 18  1  6  0  0  0
 18 45  1  0  0  0  0
 18 97  1  0  0  0  0
 19 36  1  0  0  0  0
 19 47  1  0  0  0  0
 19107  1  0  0  0  0
 43 20  1  1  0  0  0
 20 55  1  0  0  0  0
 20111  1  0  0  0  0
 56 21  1  6  0  0  0
 21 69  1  0  0  0  0
 21122  1  0  0  0  0
 70 22  1  1  0  0  0
 22 74  1  0  0  0  0
 22135  1  0  0  0  0
 23 24  1  0  0  0  0
 23 25  1  0  0  0  0
 23 26  1  0  0  0  0
 23 76  1  0  0  0  0
 24 27  1  0  0  0  0
 24 77  1  0  0  0  0
 24 78  1  0  0  0  0
 25 28  1  0  0  0  0
 25 79  1  0  0  0  0
 25 80  1  0  0  0  0
 26 30  1  0  0  0  0
 26 81  1  0  0  0  0
 26 82  1  0  0  0  0
 27 29  1  0  0  0  0
 27 83  1  0  0  0  0
 27 84  1  0  0  0  0
 28 29  1  0  0  0  0
 28 85  1  0  0  0  0
 28 86  1  0  0  0  0
 29 87  1  0  0  0  0
 29 88  1  0  0  0  0
 30 31  1  0  0  0  0
 30 89  1  0  0  0  0
 32 33  1  0  0  0  0
 33 35  1  0  0  0  0
 33 92  1  0  0  0  0
 34 39  1  0  0  0  0
 34 40  1  0  0  0  0
 34 93  1  0  0  0  0
 35 44  1  0  0  0  0
 35 94  1  0  0  0  0
 35 95  1  0  0  0  0
 36 37  1  0  0  0  0
 36 38  1  0  0  0  0
 36 96  1  0  0  0  0
 37 41  1  0  0  0  0
 37 98  1  0  0  0  0
 37 99  1  0  0  0  0
 38 42  1  0  0  0  0
 38100  1  0  0  0  0
 38101  1  0  0  0  0
 39102  1  0  0  0  0
 39103  1  0  0  0  0
 40 47  1  0  0  0  0
 41 42  1  0  0  0  0
 41 48  2  0  0  0  0
 42 49  2  0  0  0  0
 43 45  1  0  0  0  0
 43 46  1  0  0  0  0
 43104  1  0  0  0  0
 44 52  1  0  0  0  0
 44105  1  0  0  0  0
 44106  1  0  0  0  0
 46 50  1  0  0  0  0
 46 51  1  0  0  0  0
 46108  1  0  0  0  0
 48 53  1  0  0  0  0
 48109  1  0  0  0  0
 49 54  1  0  0  0  0
 49110  1  0  0  0  0
 50 57  2  0  0  0  0
 50 59  1  0  0  0  0
 51 58  2  0  0  0  0
 51 60  1  0  0  0  0
 53 54  2  0  0  0  0
 53113  1  0  0  0  0
 54114  1  0  0  0  0
 55 56  1  0  0  0  0
 56 61  1  0  0  0  0
 56115  1  0  0  0  0
 57 62  1  0  0  0  0
 57116  1  0  0  0  0
 58 63  1  0  0  0  0
 58117  1  0  0  0  0
 59 64  2  0  0  0  0
 59118  1  0  0  0  0
 60 65  2  0  0  0  0
 60119  1  0  0  0  0
 61 66  1  0  0  0  0
 61120  1  0  0  0  0
 61121  1  0  0  0  0
 62 67  2  0  0  0  0
 62123  1  0  0  0  0
 63 68  2  0  0  0  0
 63124  1  0  0  0  0
 64 67  1  0  0  0  0
 64125  1  0  0  0  0
 65 68  1  0  0  0  0
 65126  1  0  0  0  0
 66 71  1  0  0  0  0
 66127  1  0  0  0  0
 66128  1  0  0  0  0
 67130  1  0  0  0  0
 68131  1  0  0  0  0
 69 70  1  0  0  0  0
 70 72  1  0  0  0  0
 70132  1  0  0  0  0
 72 73  1  0  0  0  0
 72133  1  0  0  0  0
 72134  1  0  0  0  0
 74 75  1  0  0  0  0
 75137  1  0  0  0  0
 75138  1  0  0  0  0
 75139  1  0  0  0  0
M  END
> <PUBCHEM_COMPOUND_CID>
503478
> <PUBCHEM_COMPOUND_CANONICALIZED>
1
> <PUBCHEM_CACTVS_COMPLEXITY>
1990
> <PUBCHEM_CACTVS_HBOND_ACCEPTOR>
15
> <PUBCHEM_CACTVS_HBOND_DONOR>
11
> <PUBCHEM_CACTVS_ROTATABLE_BOND>
28
> <PUBCHEM_CACTVS_SUBSKEYS>
AAADcfB/vABAAAAAAAAAAAAAAAAAAYAAAAAwYMGAAAAAAGABUAAAHgQQCAAADSzF2ASyCILAAgSIAqHSGAACAAAgAAAIiIGIAIgIYDqA0TGUYAAmlgCIiAe/n8KOgAAAAAAQAAAAAAAAACAAACAACAAAAA==
> <PUBCHEM_IUPAC_OPENEYE_NAME>
(4S)-4-[[(2S)-2-acetamido-3-carboxy-propanoyl]amino]-5-[[(1S)-1-benzhydryl-2-[[(1S)-3-carboxy-1-[[(1S)-1-(cyclohexylmethyl)-2-[[(1R)-3-(indan-2-ylamino)-2,3-dioxo-1-(sulfanylmethyl)propyl]amino]-2-oxo-ethyl]carbamoyl]propyl]amino]-2-oxo-ethyl]amino]-5-oxo-pentanoic acid
> <PUBCHEM_IUPAC_CAS_NAME>
(4S)-4-[[(2S)-2-acetamido-3-carboxy-1-oxopropyl]amino]-5-[[(2S)-1-[[(2S)-4-carboxy-1-[[(2S)-3-cyclohexyl-1-[[(2R)-4-(2,3-dihydro-1H-inden-2-ylamino)-1-mercapto-3,4-dioxobutan-2-yl]amino]-1-oxopropan-2-yl]amino]-1-oxobutan-2-yl]amino]-1-oxo-3,3-diphenylpropan-2-yl]amino]-5-oxopentanoic acid
> <PUBCHEM_IUPAC_NAME_MARKUP>
(4<I>S</I>)-4-[[(2<I>S</I>)-2-acetamido-3-carboxypropanoyl]amino]-5-[[(2<I>S</I>)-1-[[(2<I>S</I>)-4-carboxy-1-[[(2<I>S</I>)-3-cyclohexyl-1-[[(2<I>R</I>)-4-(2,3-dihydro-1<I>H</I>-inden-2-ylamino)-3,4-dioxo-1-sulfanylbutan-2-yl]amino]-1-oxopropan-2-yl]amino]-1-oxobutan-2-yl]amino]-1-oxo-3,3-diphenylpropan-2-yl]amino]-5-oxopentanoic acid
> <PUBCHEM_IUPAC_NAME>
(4S)-4-[[(2S)-2-acetamido-3-carboxypropanoyl]amino]-5-[[(2S)-1-[[(2S)-4-carboxy-1-[[(2S)-3-cyclohexyl-1-[[(2R)-4-(2,3-dihydro-1H-inden-2-ylamino)-3,4-dioxo-1-sulfanylbutan-2-yl]amino]-1-oxopropan-2-yl]amino]-1-oxobutan-2-yl]amino]-1-oxo-3,3-diphenylpropan-2-yl]amino]-5-oxopentanoic acid
> <PUBCHEM_IUPAC_SYSTEMATIC_NAME>
(4S)-4-[[(2S)-2-acetamido-4-oxidanyl-4-oxidanylidene-butanoyl]amino]-5-[[(2S)-1-[[(2S)-1-[[(2S)-3-cyclohexyl-1-[[(2R)-4-(2,3-dihydro-1H-inden-2-ylamino)-3,4-bis(oxidanylidene)-1-sulfanyl-butan-2-yl]amino]-1-oxidanylidene-propan-2-yl]amino]-5-oxidanyl-1,5-bis(oxidanylidene)pentan-2-yl]amino]-1-oxidanylidene-3,3-diphenyl-propan-2-yl]amino]-5-oxidanylidene-pentanoic acid
> <PUBCHEM_IUPAC_TRADITIONAL_NAME>
(4S)-4-[[(2S)-2-acetamido-3-carboxy-propanoyl]amino]-5-[[(1S)-1-benzhydryl-2-[[(1S)-3-carboxy-1-[[(1S)-1-(cyclohexylmethyl)-2-[[(1R)-3-(indan-2-ylamino)-2,3-diketo-1-(mercaptomethyl)propyl]amino]-2-keto-ethyl]carbamoyl]propyl]amino]-2-keto-ethyl]amino]-5-keto-valeric acid
> <PUBCHEM_IUPAC_INCHI>
InChI=1S/C53H65N7O14S/c1-30(61)54-40(28-44(66)67)51(72)56-38(22-24-43(64)65)49(70)60-46(45(32-15-7-3-8-16-32)33-17-9-4-10-18-33)52(73)57-37(21-23-42(62)63)48(69)58-39(25-31-13-5-2-6-14-31)50(71)59-41(29-75)47(68)53(74)55-36-26-34-19-11-12-20-35(34)27-36/h3-4,7-12,15-20,31,36-41,45-46,75H,2,5-6,13-14,21-29H2,1H3,(H,54,61)(H,55,74)(H,56,72)(H,57,73)(H,58,69)(H,59,71)(H,60,70)(H,62,63)(H,64,65)(H,66,67)/t37-,38-,39-,40-,41-,46-/m0/s1
> <PUBCHEM_IUPAC_INCHIKEY>
UEROWSGISFCYDB-HWEVAMLISA-N
> <PUBCHEM_XLOGP3_AA>
3.8
> <PUBCHEM_EXACT_MASS>
1055.43102095
> <PUBCHEM_MOLECULAR_FORMULA>
C53H65N7O14S
> <PUBCHEM_MOLECULAR_WEIGHT>
1056.2
> <PUBCHEM_OPENEYE_CAN_SMILES>
CC(=O)NC(CC(=O)O)C(=O)NC(CCC(=O)O)C(=O)NC(C(C1=CC=CC=C1)C2=CC=CC=C2)C(=O)NC(CCC(=O)O)C(=O)NC(CC3CCCCC3)C(=O)NC(CS)C(=O)C(=O)NC4CC5=CC=CC=C5C4
> <PUBCHEM_OPENEYE_ISO_SMILES>
CC(=O)N[C@@H](CC(=O)O)C(=O)N[C@@H](CCC(=O)O)C(=O)N[C@@H](C(C1=CC=CC=C1)C2=CC=CC=C2)C(=O)N[C@@H](CCC(=O)O)C(=O)N[C@@H](CC3CCCCC3)C(=O)N[C@@H](CS)C(=O)C(=O)NC4CC5=CC=CC=C5C4
> <PUBCHEM_CACTVS_TPSA>
334
> <PUBCHEM_MONOISOTOPIC_WEIGHT>
1055.43102095
> <PUBCHEM_TOTAL_CHARGE>
0
> <PUBCHEM_HEAVY_ATOM_COUNT>
75
> <PUBCHEM_ATOM_DEF_STEREO_COUNT>
6
> <PUBCHEM_ATOM_UDEF_STEREO_COUNT>
0
> <PUBCHEM_BOND_DEF_STEREO_COUNT>
0
> <PUBCHEM_BOND_UDEF_STEREO_COUNT>
0
> <PUBCHEM_ISOTOPIC_ATOM_COUNT>
0
> <PUBCHEM_COMPONENT_COUNT>
1
> <PUBCHEM_CACTVS_TAUTO_COUNT>
-1
> <PUBCHEM_COORDINATE_TYPE>
1
5
255
> <PUBCHEM_BONDANNOTATIONS>
30  16  6
34  17  5
33  18  6
43  20  5
56  21  6
70  22  5
41  42  8
41  48  8
42  49  8
48  53  8
49  54  8
50  57  8
50  59  8
51  58  8
51  60  8
53  54  8
57  62  8
58  63  8
59  64  8
60  65  8
62  67  8
63  68  8
64  67  8
65  68  8
$$$$
