503408
  -OEChem-10302200282D
 32 32  0     1  0  0  0  0  0999 V2000
    4.5981   -1.9400    0.0000 O   0  0  0  0  0  0  0  0  0  0  0  0
    2.0000   -3.4400    0.0000 O   0  0  0  0  0  0  0  0  0  0  0  0
    6.3301    1.0600    0.0000 O   0  0  0  0  0  0  0  0  0  0  0  0
    4.5981    4.0600    0.0000 O   0  0  0  0  0  0  0  0  0  0  0  0
    4.5981    1.0600    0.0000 N   0  0  0  0  0  0  0  0  0  0  0  0
    5.4641    2.5600    0.0000 N   0  0  0  0  0  0  0  0  0  0  0  0
    3.7320   -0.4400    0.0000 C   0  0  0  0  0  0  0  0  0  0  0  0
    3.7320   -1.4400    0.0000 C   0  0  1  0  0  0  0  0  0  0  0  0
    4.5981    0.0600    0.0000 C   0  0  0  0  0  0  0  0  0  0  0  0
    2.8660   -1.9400    0.0000 C   0  0  0  0  0  0  0  0  0  0  0  0
    2.8660   -2.9400    0.0000 C   0  0  0  0  0  0  0  0  0  0  0  0
    3.7320    1.5600    0.0000 C   0  0  0  0  0  0  0  0  0  0  0  0
    5.4641    1.5600    0.0000 C   0  0  0  0  0  0  0  0  0  0  0  0
    3.7320    2.5600    0.0000 C   0  0  0  0  0  0  0  0  0  0  0  0
    4.5981    3.0600    0.0000 C   0  0  0  0  0  0  0  0  0  0  0  0
    2.8660    3.0600    0.0000 C   0  0  0  0  0  0  0  0  0  0  0  0
    3.5200    0.1426    0.0000 H   0  0  0  0  0  0  0  0  0  0  0  0
    3.1215   -0.5477    0.0000 H   0  0  0  0  0  0  0  0  0  0  0  0
    3.7320   -2.0600    0.0000 H   0  0  0  0  0  0  0  0  0  0  0  0
    4.8101   -0.5226    0.0000 H   0  0  0  0  0  0  0  0  0  0  0  0
    5.2087    0.1677    0.0000 H   0  0  0  0  0  0  0  0  0  0  0  0
    2.6540   -1.3574    0.0000 H   0  0  0  0  0  0  0  0  0  0  0  0
    2.2554   -2.0477    0.0000 H   0  0  0  0  0  0  0  0  0  0  0  0
    3.0781   -3.5226    0.0000 H   0  0  0  0  0  0  0  0  0  0  0  0
    3.4766   -2.8323    0.0000 H   0  0  0  0  0  0  0  0  0  0  0  0
    3.1951    1.2500    0.0000 H   0  0  0  0  0  0  0  0  0  0  0  0
    4.5981   -2.5600    0.0000 H   0  0  0  0  0  0  0  0  0  0  0  0
    6.0010    2.8700    0.0000 H   0  0  0  0  0  0  0  0  0  0  0  0
    3.1760    3.5969    0.0000 H   0  0  0  0  0  0  0  0  0  0  0  0
    2.3291    3.3700    0.0000 H   0  0  0  0  0  0  0  0  0  0  0  0
    2.5560    2.5231    0.0000 H   0  0  0  0  0  0  0  0  0  0  0  0
    2.0000   -4.0600    0.0000 H   0  0  0  0  0  0  0  0  0  0  0  0
  8  1  1  6  0  0  0
  1 27  1  0  0  0  0
  2 11  1  0  0  0  0
  2 32  1  0  0  0  0
  3 13  2  0  0  0  0
  4 15  2  0  0  0  0
  5  9  1  0  0  0  0
  5 12  1  0  0  0  0
  5 13  1  0  0  0  0
  6 13  1  0  0  0  0
  6 15  1  0  0  0  0
  6 28  1  0  0  0  0
  7  8  1  0  0  0  0
  7  9  1  0  0  0  0
  7 17  1  0  0  0  0
  7 18  1  0  0  0  0
  8 10  1  0  0  0  0
  8 19  1  0  0  0  0
  9 20  1  0  0  0  0
  9 21  1  0  0  0  0
 10 11  1  0  0  0  0
 10 22  1  0  0  0  0
 10 23  1  0  0  0  0
 11 24  1  0  0  0  0
 11 25  1  0  0  0  0
 12 14  2  0  0  0  0
 12 26  1  0  0  0  0
 14 15  1  0  0  0  0
 14 16  1  0  0  0  0
 16 29  1  0  0  0  0
 16 30  1  0  0  0  0
 16 31  1  0  0  0  0
M  END
> <PUBCHEM_COMPOUND_CID>
503408
> <PUBCHEM_COMPOUND_CANONICALIZED>
1
> <PUBCHEM_CACTVS_COMPLEXITY>
314
> <PUBCHEM_CACTVS_HBOND_ACCEPTOR>
4
> <PUBCHEM_CACTVS_HBOND_DONOR>
3
> <PUBCHEM_CACTVS_ROTATABLE_BOND>
5
> <PUBCHEM_CACTVS_SUBSKEYS>
AAADceBzOAAAAAAAAAAAAAAAAAAAAAAAAAAgAAAAAAAAAAAAAAAAHgAQCAAADBThgAYDAAPAAgCIAgFWUACAAAAAAAAAAAEIAECAEAIAgQAEQAAPByIAAMCQEAIAAAAAAAAAAAAAAAAAAAAAAAAAAAAAAA==
> <PUBCHEM_IUPAC_OPENEYE_NAME>
1-[(3S)-3,5-dihydroxypentyl]-5-methyl-pyrimidine-2,4-dione
> <PUBCHEM_IUPAC_CAS_NAME>
1-[(3S)-3,5-dihydroxypentyl]-5-methylpyrimidine-2,4-dione
> <PUBCHEM_IUPAC_NAME_MARKUP>
1-[(3<I>S</I>)-3,5-dihydroxypentyl]-5-methylpyrimidine-2,4-dione
> <PUBCHEM_IUPAC_NAME>
1-[(3S)-3,5-dihydroxypentyl]-5-methylpyrimidine-2,4-dione
> <PUBCHEM_IUPAC_SYSTEMATIC_NAME>
1-[(3S)-3,5-bis(oxidanyl)pentyl]-5-methyl-pyrimidine-2,4-dione
> <PUBCHEM_IUPAC_TRADITIONAL_NAME>
1-[(3S)-3,5-dihydroxypentyl]-5-methyl-pyrimidine-2,4-quinone
> <PUBCHEM_IUPAC_INCHI>
InChI=1S/C10H16N2O4/c1-7-6-12(10(16)11-9(7)15)4-2-8(14)3-5-13/h6,8,13-14H,2-5H2,1H3,(H,11,15,16)/t8-/m0/s1
> <PUBCHEM_IUPAC_INCHIKEY>
YEPCFTBHKDVDKM-QMMMGPOBSA-N
> <PUBCHEM_XLOGP3>
-0.9
> <PUBCHEM_EXACT_MASS>
228.11100700
> <PUBCHEM_MOLECULAR_FORMULA>
C10H16N2O4
> <PUBCHEM_MOLECULAR_WEIGHT>
228.24
> <PUBCHEM_OPENEYE_CAN_SMILES>
CC1=CN(C(=O)NC1=O)CCC(CCO)O
> <PUBCHEM_OPENEYE_ISO_SMILES>
CC1=CN(C(=O)NC1=O)CC[C@@H](CCO)O
> <PUBCHEM_CACTVS_TPSA>
89.9
> <PUBCHEM_MONOISOTOPIC_WEIGHT>
228.11100700
> <PUBCHEM_TOTAL_CHARGE>
0
> <PUBCHEM_HEAVY_ATOM_COUNT>
16
> <PUBCHEM_ATOM_DEF_STEREO_COUNT>
1
> <PUBCHEM_ATOM_UDEF_STEREO_COUNT>
0
> <PUBCHEM_BOND_DEF_STEREO_COUNT>
0
> <PUBCHEM_BOND_UDEF_STEREO_COUNT>
0
> <PUBCHEM_ISOTOPIC_ATOM_COUNT>
0
> <PUBCHEM_COMPONENT_COUNT>
1
> <PUBCHEM_CACTVS_TAUTO_COUNT>
-1
> <PUBCHEM_COORDINATE_TYPE>
1
5
255
> <PUBCHEM_BONDANNOTATIONS>
8  1  6
12  14  8
14  15  8
5  12  8
5  13  8
6  13  8
6  15  8
$$$$
