503425
  -OEChem-10302200282D
 35 37  0     1  0  0  0  0  0999 V2000
    6.1610    1.0575    0.0000 O   0  0  0  0  0  0  0  0  0  0  0  0
    8.5124   -0.0226    0.0000 O   0  0  0  0  0  0  0  0  0  0  0  0
    8.5053    2.1530    0.0000 O   0  0  0  0  0  0  0  0  0  0  0  0
    5.4552    3.0232    0.0000 O   0  0  0  0  0  0  0  0  0  0  0  0
    4.9335    0.5845    0.0000 O   0  0  0  0  0  0  0  0  0  0  0  0
    4.9544   -3.6122    0.0000 O   0  0  0  0  0  0  0  0  0  0  0  0
    6.4455   -0.7016    0.0000 N   0  0  0  0  0  0  0  0  0  0  0  0
    6.4535   -2.3111    0.0000 N   0  0  0  0  0  0  0  0  0  0  0  0
    3.7420   -0.6189    0.0000 N   0  0  0  0  0  0  0  0  0  0  0  0
    3.7510   -2.4208    0.0000 N   0  0  0  0  0  0  0  0  0  0  0  0
    2.3127   -1.5270    0.0000 N   0  0  0  0  0  0  0  0  0  0  0  0
    7.7014    0.5625    0.0000 C   0  0  2  0  0  0  0  0  0  0  0  0
    6.7514    0.2504    0.0000 C   0  0  2  0  0  0  0  0  0  0  0  0
    7.6982    1.5625    0.0000 C   0  0  2  0  0  0  0  0  0  0  0  0
    6.7461    1.8684    0.0000 C   0  0  2  0  0  0  0  0  0  0  0  0
    6.4340    2.8185    0.0000 C   0  0  0  0  0  0  0  0  0  0  0  0
    5.5008   -1.0111    0.0000 C   0  0  0  0  0  0  0  0  0  0  0  0
    7.0331   -1.5034    0.0000 C   0  0  0  0  0  0  0  0  0  0  0  0
    5.5058   -2.0111    0.0000 C   0  0  0  0  0  0  0  0  0  0  0  0
    4.7158   -0.3915    0.0000 C   0  0  0  0  0  0  0  0  0  0  0  0
    4.7271   -2.6385    0.0000 C   0  0  0  0  0  0  0  0  0  0  0  0
    3.3127   -1.5220    0.0000 C   0  0  0  0  0  0  0  0  0  0  0  0
    8.2529    0.8458    0.0000 H   0  0  0  0  0  0  0  0  0  0  0  0
    7.1912   -0.1865    0.0000 H   0  0  0  0  0  0  0  0  0  0  0  0
    7.5992    2.1746    0.0000 H   0  0  0  0  0  0  0  0  0  0  0  0
    6.1334    1.9634    0.0000 H   0  0  0  0  0  0  0  0  0  0  0  0
    7.0477    2.9068    0.0000 H   0  0  0  0  0  0  0  0  0  0  0  0
    6.4536    3.4382    0.0000 H   0  0  0  0  0  0  0  0  0  0  0  0
    9.0779    0.2314    0.0000 H   0  0  0  0  0  0  0  0  0  0  0  0
    8.4385    2.7693    0.0000 H   0  0  0  0  0  0  0  0  0  0  0  0
    7.6531   -1.5004    0.0000 H   0  0  0  0  0  0  0  0  0  0  0  0
    5.2617    3.6122    0.0000 H   0  0  0  0  0  0  0  0  0  0  0  0
    3.3531   -0.1361    0.0000 H   0  0  0  0  0  0  0  0  0  0  0  0
    2.0054   -2.0655    0.0000 H   0  0  0  0  0  0  0  0  0  0  0  0
    2.0000   -0.9916    0.0000 H   0  0  0  0  0  0  0  0  0  0  0  0
  1 13  1  0  0  0  0
  1 15  1  0  0  0  0
 12  2  1  6  0  0  0
  2 29  1  0  0  0  0
 14  3  1  6  0  0  0
  3 30  1  0  0  0  0
  4 16  1  0  0  0  0
  4 32  1  0  0  0  0
  5 20  2  0  0  0  0
  6 21  2  0  0  0  0
 13  7  1  1  0  0  0
  7 17  1  0  0  0  0
  7 18  1  0  0  0  0
  8 18  2  0  0  0  0
  8 19  1  0  0  0  0
  9 20  1  0  0  0  0
  9 22  1  0  0  0  0
  9 33  1  0  0  0  0
 10 21  1  0  0  0  0
 10 22  2  0  0  0  0
 11 22  1  0  0  0  0
 11 34  1  0  0  0  0
 11 35  1  0  0  0  0
 12 13  1  0  0  0  0
 12 14  1  0  0  0  0
 12 23  1  0  0  0  0
 13 24  1  0  0  0  0
 14 15  1  0  0  0  0
 14 25  1  0  0  0  0
 15 16  1  1  0  0  0
 15 26  1  0  0  0  0
 16 27  1  0  0  0  0
 16 28  1  0  0  0  0
 17 19  2  0  0  0  0
 17 20  1  0  0  0  0
 18 31  1  0  0  0  0
 19 21  1  0  0  0  0
M  END
> <PUBCHEM_COMPOUND_CID>
503425
> <PUBCHEM_COMPOUND_CANONICALIZED>
1
> <PUBCHEM_CACTVS_COMPLEXITY>
527
> <PUBCHEM_CACTVS_HBOND_ACCEPTOR>
7
> <PUBCHEM_CACTVS_HBOND_DONOR>
5
> <PUBCHEM_CACTVS_ROTATABLE_BOND>
2
> <PUBCHEM_CACTVS_SUBSKEYS>
AAADccBzuAAAAAAAAAAAAAAAAAAAAWJAAAAAAAAABAAAAACBgAAAHgAQCAAACBzhlgYFkBfMFgCoAQVxdACAgC0XEKABWAGoVECDWBpAyCAeQYhPAQLTAWD1MAIAAAAAAAAAAAAAAAAAAAAAAAAAAAAAAA==
> <PUBCHEM_IUPAC_OPENEYE_NAME>
6-amino-1-[(2S,3S,4R,5S)-3,4-dihydroxy-5-(hydroxymethyl)tetrahydrofuran-2-yl]-7H-imidazo[4,5-e][1,3]diazepine-4,8-dione
> <PUBCHEM_IUPAC_CAS_NAME>
6-amino-1-[(2S,3S,4R,5S)-3,4-dihydroxy-5-(hydroxymethyl)-2-oxolanyl]-7H-imidazo[4,5-e][1,3]diazepine-4,8-dione
> <PUBCHEM_IUPAC_NAME_MARKUP>
6-amino-1-[(2<I>S</I>,3<I>S</I>,4<I>R</I>,5<I>S</I>)-3,4-dihydroxy-5-(hydroxymethyl)oxolan-2-yl]-7<I>H</I>-imidazo[4,5-e][1,3]diazepine-4,8-dione
> <PUBCHEM_IUPAC_NAME>
6-amino-1-[(2S,3S,4R,5S)-3,4-dihydroxy-5-(hydroxymethyl)oxolan-2-yl]-7H-imidazo[4,5-e][1,3]diazepine-4,8-dione
> <PUBCHEM_IUPAC_SYSTEMATIC_NAME>
6-azanyl-1-[(2S,3S,4R,5S)-5-(hydroxymethyl)-3,4-bis(oxidanyl)oxolan-2-yl]-7H-imidazo[4,5-e][1,3]diazepine-4,8-dione
> <PUBCHEM_IUPAC_TRADITIONAL_NAME>
6-amino-1-[(2S,3S,4R,5S)-3,4-dihydroxy-5-methylol-tetrahydrofuran-2-yl]-7H-imidazo[4,5-e][1,3]diazepine-4,8-quinone
> <PUBCHEM_IUPAC_INCHI>
InChI=1S/C11H13N5O6/c12-11-14-8(20)4-5(9(21)15-11)16(2-13-4)10-7(19)6(18)3(1-17)22-10/h2-3,6-7,10,17-19H,1H2,(H3,12,14,15,20,21)/t3-,6-,7-,10-/m0/s1
> <PUBCHEM_IUPAC_INCHIKEY>
PQXXNVVBWVRCCL-VUZZUPLGSA-N
> <PUBCHEM_XLOGP3>
-2
> <PUBCHEM_EXACT_MASS>
311.08658315
> <PUBCHEM_MOLECULAR_FORMULA>
C11H13N5O6
> <PUBCHEM_MOLECULAR_WEIGHT>
311.25
> <PUBCHEM_OPENEYE_CAN_SMILES>
C1=NC2=C(N1C3C(C(C(O3)CO)O)O)C(=O)NC(=NC2=O)N
> <PUBCHEM_OPENEYE_ISO_SMILES>
C1=NC2=C(N1[C@@H]3[C@H]([C@H]([C@@H](O3)CO)O)O)C(=O)NC(=NC2=O)N
> <PUBCHEM_CACTVS_TPSA>
172
> <PUBCHEM_MONOISOTOPIC_WEIGHT>
311.08658315
> <PUBCHEM_TOTAL_CHARGE>
0
> <PUBCHEM_HEAVY_ATOM_COUNT>
22
> <PUBCHEM_ATOM_DEF_STEREO_COUNT>
4
> <PUBCHEM_ATOM_UDEF_STEREO_COUNT>
0
> <PUBCHEM_BOND_DEF_STEREO_COUNT>
0
> <PUBCHEM_BOND_UDEF_STEREO_COUNT>
0
> <PUBCHEM_ISOTOPIC_ATOM_COUNT>
0
> <PUBCHEM_COMPONENT_COUNT>
1
> <PUBCHEM_CACTVS_TAUTO_COUNT>
-1
> <PUBCHEM_COORDINATE_TYPE>
1
5
255
> <PUBCHEM_BONDANNOTATIONS>
10  21  8
10  22  8
15  16  5
17  19  8
17  20  8
19  21  8
12  2  6
14  3  6
13  7  5
7  17  8
7  18  8
8  18  8
8  19  8
9  20  8
9  22  8
$$$$
