503479
  -OEChem-10302200282D
140144  0     1  0  0  0  0  0999 V2000
    8.1962   -1.5600    0.0000 S   0  0  0  0  0  0  0  0  0  0  0  0
    8.1962   -0.5600    0.0000 O   0  0  0  0  0  0  0  0  0  0  0  0
    9.0622   -0.0600    0.0000 O   0  0  0  0  0  0  0  0  0  0  0  0
    6.4641   -3.5600    0.0000 O   0  0  0  0  0  0  0  0  0  0  0  0
    4.7320   -1.5600    0.0000 O   0  0  0  0  0  0  0  0  0  0  0  0
   11.6603    2.4400    0.0000 O   0  0  0  0  0  0  0  0  0  0  0  0
   11.6603    4.4400    0.0000 O   0  0  0  0  0  0  0  0  0  0  0  0
    9.9282    4.4400    0.0000 O   0  0  0  0  0  0  0  0  0  0  0  0
   12.5263    2.9400    0.0000 O   0  0  0  0  0  0  0  0  0  0  0  0
   15.9904    3.9400    0.0000 O   0  0  0  0  0  0  0  0  0  0  0  0
   15.9904    5.9400    0.0000 O   0  0  0  0  0  0  0  0  0  0  0  0
   14.2583    5.9400    0.0000 O   0  0  0  0  0  0  0  0  0  0  0  0
   17.7224   -0.0600    0.0000 O   0  0  0  0  0  0  0  0  0  0  0  0
   18.5885    1.4400    0.0000 O   0  0  0  0  0  0  0  0  0  0  0  0
   16.8564    4.4400    0.0000 O   0  0  0  0  0  0  0  0  0  0  0  0
    8.1962    1.4400    0.0000 N   0  0  0  0  0  0  0  0  0  0  0  0
    4.7320   -3.5600    0.0000 N   0  0  0  0  0  0  0  0  0  0  0  0
    6.4641   -0.5600    0.0000 N   0  0  0  0  0  0  0  0  0  0  0  0
   10.7942    0.9400    0.0000 N   0  0  0  0  0  0  0  0  0  0  0  0
   13.3923    1.4400    0.0000 N   0  0  0  0  0  0  0  0  0  0  0  0
   15.1244    2.4400    0.0000 N   0  0  0  0  0  0  0  0  0  0  0  0
   17.7224    2.9400    0.0000 N   0  0  0  0  0  0  0  0  0  0  0  0
    3.0000   -4.5600    0.0000 C   0  0  0  0  0  0  0  0  0  0  0  0
    6.4641    2.4400    0.0000 C   0  0  0  0  0  0  0  0  0  0  0  0
    2.5000   -3.6940    0.0000 C   0  0  0  0  0  0  0  0  0  0  0  0
    2.0000   -4.5600    0.0000 C   0  0  0  0  0  0  0  0  0  0  0  0
    7.3301    2.9400    0.0000 C   0  0  0  0  0  0  0  0  0  0  0  0
    5.5981    2.9400    0.0000 C   0  0  0  0  0  0  0  0  0  0  0  0
    6.4641    1.4400    0.0000 C   0  0  0  0  0  0  0  0  0  0  0  0
    7.3301    3.9400    0.0000 C   0  0  0  0  0  0  0  0  0  0  0  0
    5.5981    3.9400    0.0000 C   0  0  0  0  0  0  0  0  0  0  0  0
    6.4641    4.4400    0.0000 C   0  0  0  0  0  0  0  0  0  0  0  0
    3.8660   -5.0600    0.0000 C   0  0  0  0  0  0  0  0  0  0  0  0
    7.3301    0.9400    0.0000 C   0  0  1  0  0  0  0  0  0  0  0  0
    4.7320   -4.5600    0.0000 C   0  0  0  0  0  0  0  0  0  0  0  0
    3.8660   -6.0600    0.0000 C   0  0  0  0  0  0  0  0  0  0  0  0
    7.3301   -0.0600    0.0000 C   0  0  0  0  0  0  0  0  0  0  0  0
    5.5981   -5.0600    0.0000 C   0  0  0  0  0  0  0  0  0  0  0  0
    4.7320   -6.5600    0.0000 C   0  0  0  0  0  0  0  0  0  0  0  0
    9.0622    0.9400    0.0000 C   0  0  0  0  0  0  0  0  0  0  0  0
    5.5981   -6.0600    0.0000 C   0  0  0  0  0  0  0  0  0  0  0  0
    6.4641   -1.5600    0.0000 C   0  0  2  0  0  0  0  0  0  0  0  0
    9.9282    1.4400    0.0000 C   0  0  2  0  0  0  0  0  0  0  0  0
    5.5981   -3.0600    0.0000 C   0  0  0  0  0  0  0  0  0  0  0  0
    5.5981   -2.0600    0.0000 C   0  0  0  0  0  0  0  0  0  0  0  0
    9.9282    2.4400    0.0000 C   0  0  0  0  0  0  0  0  0  0  0  0
    7.3301   -2.0600    0.0000 C   0  0  0  0  0  0  0  0  0  0  0  0
   12.5263    0.9400    0.0000 C   0  0  2  0  0  0  0  0  0  0  0  0
   10.7942    2.9400    0.0000 C   0  0  0  0  0  0  0  0  0  0  0  0
   11.6603    1.4400    0.0000 C   0  0  0  0  0  0  0  0  0  0  0  0
   12.5263   -0.0600    0.0000 C   0  0  0  0  0  0  0  0  0  0  0  0
   13.3923   -0.5600    0.0000 C   0  0  0  0  0  0  0  0  0  0  0  0
   12.0262   -0.9260    0.0000 C   0  0  0  0  0  0  0  0  0  0  0  0
   10.7942    3.9400    0.0000 C   0  0  0  0  0  0  0  0  0  0  0  0
   13.3923    2.4400    0.0000 C   0  0  0  0  0  0  0  0  0  0  0  0
   14.2583    2.9400    0.0000 C   0  0  2  0  0  0  0  0  0  0  0  0
   13.3923   -1.5600    0.0000 C   0  0  0  0  0  0  0  0  0  0  0  0
   11.0262   -0.9259    0.0000 C   0  0  0  0  0  0  0  0  0  0  0  0
   14.2583   -0.0600    0.0000 C   0  0  0  0  0  0  0  0  0  0  0  0
   12.5263   -1.7920    0.0000 C   0  0  0  0  0  0  0  0  0  0  0  0
   14.2583    3.9400    0.0000 C   0  0  0  0  0  0  0  0  0  0  0  0
   14.2583   -2.0600    0.0000 C   0  0  0  0  0  0  0  0  0  0  0  0
   10.5262   -1.7920    0.0000 C   0  0  0  0  0  0  0  0  0  0  0  0
   15.1244   -0.5600    0.0000 C   0  0  0  0  0  0  0  0  0  0  0  0
   12.0263   -2.6581    0.0000 C   0  0  0  0  0  0  0  0  0  0  0  0
   15.1244    4.4400    0.0000 C   0  0  0  0  0  0  0  0  0  0  0  0
   15.1244   -1.5600    0.0000 C   0  0  0  0  0  0  0  0  0  0  0  0
   11.0262   -2.6581    0.0000 C   0  0  0  0  0  0  0  0  0  0  0  0
   15.9904    2.9400    0.0000 C   0  0  0  0  0  0  0  0  0  0  0  0
   16.8564    2.4400    0.0000 C   0  0  2  0  0  0  0  0  0  0  0  0
   15.1244    5.4400    0.0000 C   0  0  0  0  0  0  0  0  0  0  0  0
   16.8564    1.4400    0.0000 C   0  0  0  0  0  0  0  0  0  0  0  0
   17.7224    0.9400    0.0000 C   0  0  0  0  0  0  0  0  0  0  0  0
   17.7224    3.9400    0.0000 C   0  0  0  0  0  0  0  0  0  0  0  0
   18.5885    4.4400    0.0000 C   0  0  0  0  0  0  0  0  0  0  0  0
    2.8395   -5.1589    0.0000 H   0  0  0  0  0  0  0  0  0  0  0  0
    7.0010    2.1300    0.0000 H   0  0  0  0  0  0  0  0  0  0  0  0
    2.9750   -3.2954    0.0000 H   0  0  0  0  0  0  0  0  0  0  0  0
    2.0250   -3.2954    0.0000 H   0  0  0  0  0  0  0  0  0  0  0  0
    1.4174   -4.3480    0.0000 H   0  0  0  0  0  0  0  0  0  0  0  0
    1.8923   -5.1706    0.0000 H   0  0  0  0  0  0  0  0  0  0  0  0
    7.5422    2.3574    0.0000 H   0  0  0  0  0  0  0  0  0  0  0  0
    7.9407    3.0477    0.0000 H   0  0  0  0  0  0  0  0  0  0  0  0
    4.9875    3.0477    0.0000 H   0  0  0  0  0  0  0  0  0  0  0  0
    5.3860    2.3574    0.0000 H   0  0  0  0  0  0  0  0  0  0  0  0
    5.8535    1.5477    0.0000 H   0  0  0  0  0  0  0  0  0  0  0  0
    6.2520    0.8574    0.0000 H   0  0  0  0  0  0  0  0  0  0  0  0
    7.9407    3.8323    0.0000 H   0  0  0  0  0  0  0  0  0  0  0  0
    7.5422    4.5226    0.0000 H   0  0  0  0  0  0  0  0  0  0  0  0
    5.3860    4.5226    0.0000 H   0  0  0  0  0  0  0  0  0  0  0  0
    4.9875    3.8323    0.0000 H   0  0  0  0  0  0  0  0  0  0  0  0
    6.8626    4.9150    0.0000 H   0  0  0  0  0  0  0  0  0  0  0  0
    6.0656    4.9150    0.0000 H   0  0  0  0  0  0  0  0  0  0  0  0
    7.8671    0.6300    0.0000 H   0  0  0  0  0  0  0  0  0  0  0  0
    3.3291   -6.3700    0.0000 H   0  0  0  0  0  0  0  0  0  0  0  0
    8.1962    2.0600    0.0000 H   0  0  0  0  0  0  0  0  0  0  0  0
    6.1350   -4.7500    0.0000 H   0  0  0  0  0  0  0  0  0  0  0  0
    4.7320   -7.1800    0.0000 H   0  0  0  0  0  0  0  0  0  0  0  0
    4.1951   -3.2500    0.0000 H   0  0  0  0  0  0  0  0  0  0  0  0
    5.9272   -0.2500    0.0000 H   0  0  0  0  0  0  0  0  0  0  0  0
    7.0010   -1.2500    0.0000 H   0  0  0  0  0  0  0  0  0  0  0  0
    6.1350   -6.3700    0.0000 H   0  0  0  0  0  0  0  0  0  0  0  0
   10.4651    1.7500    0.0000 H   0  0  0  0  0  0  0  0  0  0  0  0
    9.7162    3.0226    0.0000 H   0  0  0  0  0  0  0  0  0  0  0  0
    9.3176    2.3323    0.0000 H   0  0  0  0  0  0  0  0  0  0  0  0
    6.9316   -2.5349    0.0000 H   0  0  0  0  0  0  0  0  0  0  0  0
    7.7287   -2.5349    0.0000 H   0  0  0  0  0  0  0  0  0  0  0  0
   10.7942    0.3200    0.0000 H   0  0  0  0  0  0  0  0  0  0  0  0
   13.0632    0.6300    0.0000 H   0  0  0  0  0  0  0  0  0  0  0  0
   11.0063    2.3574    0.0000 H   0  0  0  0  0  0  0  0  0  0  0  0
   11.4048    3.0477    0.0000 H   0  0  0  0  0  0  0  0  0  0  0  0
   11.9274    0.1005    0.0000 H   0  0  0  0  0  0  0  0  0  0  0  0
   13.9292    1.1300    0.0000 H   0  0  0  0  0  0  0  0  0  0  0  0
    8.7331   -1.8700    0.0000 H   0  0  0  0  0  0  0  0  0  0  0  0
   14.7953    3.2500    0.0000 H   0  0  0  0  0  0  0  0  0  0  0  0
   12.8554   -1.8700    0.0000 H   0  0  0  0  0  0  0  0  0  0  0  0
   10.7162   -0.3890    0.0000 H   0  0  0  0  0  0  0  0  0  0  0  0
   14.2583    0.5600    0.0000 H   0  0  0  0  0  0  0  0  0  0  0  0
   13.1463   -1.7920    0.0000 H   0  0  0  0  0  0  0  0  0  0  0  0
   14.0463    4.5226    0.0000 H   0  0  0  0  0  0  0  0  0  0  0  0
   13.6477    3.8323    0.0000 H   0  0  0  0  0  0  0  0  0  0  0  0
   15.1244    1.8200    0.0000 H   0  0  0  0  0  0  0  0  0  0  0  0
   14.2583   -2.6800    0.0000 H   0  0  0  0  0  0  0  0  0  0  0  0
    9.9062   -1.7920    0.0000 H   0  0  0  0  0  0  0  0  0  0  0  0
   15.6613   -0.2500    0.0000 H   0  0  0  0  0  0  0  0  0  0  0  0
   12.3363   -3.1950    0.0000 H   0  0  0  0  0  0  0  0  0  0  0  0
   15.3364    3.8574    0.0000 H   0  0  0  0  0  0  0  0  0  0  0  0
   15.7349    4.5477    0.0000 H   0  0  0  0  0  0  0  0  0  0  0  0
   11.6603    5.0600    0.0000 H   0  0  0  0  0  0  0  0  0  0  0  0
   15.6613   -1.8700    0.0000 H   0  0  0  0  0  0  0  0  0  0  0  0
   10.7162   -3.1950    0.0000 H   0  0  0  0  0  0  0  0  0  0  0  0
   17.3933    2.1300    0.0000 H   0  0  0  0  0  0  0  0  0  0  0  0
   16.2458    1.5477    0.0000 H   0  0  0  0  0  0  0  0  0  0  0  0
   16.6444    0.8574    0.0000 H   0  0  0  0  0  0  0  0  0  0  0  0
   18.2594    2.6300    0.0000 H   0  0  0  0  0  0  0  0  0  0  0  0
   15.9904    6.5600    0.0000 H   0  0  0  0  0  0  0  0  0  0  0  0
   18.8985    3.9031    0.0000 H   0  0  0  0  0  0  0  0  0  0  0  0
   19.1254    4.7500    0.0000 H   0  0  0  0  0  0  0  0  0  0  0  0
   18.2785    4.9769    0.0000 H   0  0  0  0  0  0  0  0  0  0  0  0
   18.2594   -0.3700    0.0000 H   0  0  0  0  0  0  0  0  0  0  0  0
  1 47  1  0  0  0  0
  1114  1  0  0  0  0
  2 37  2  0  0  0  0
  3 40  2  0  0  0  0
  4 44  2  0  0  0  0
  5 45  2  0  0  0  0
  6 50  2  0  0  0  0
  7 54  1  0  0  0  0
  7129  1  0  0  0  0
  8 54  2  0  0  0  0
  9 55  2  0  0  0  0
 10 69  2  0  0  0  0
 11 71  1  0  0  0  0
 11136  1  0  0  0  0
 12 71  2  0  0  0  0
 13 73  1  0  0  0  0
 13140  1  0  0  0  0
 14 73  2  0  0  0  0
 15 74  2  0  0  0  0
 34 16  1  6  0  0  0
 16 40  1  0  0  0  0
 16 96  1  0  0  0  0
 17 35  1  0  0  0  0
 17 44  1  0  0  0  0
 17 99  1  0  0  0  0
 18 37  1  0  0  0  0
 42 18  1  1  0  0  0
 18100  1  0  0  0  0
 43 19  1  6  0  0  0
 19 50  1  0  0  0  0
 19108  1  0  0  0  0
 48 20  1  1  0  0  0
 20 55  1  0  0  0  0
 20113  1  0  0  0  0
 56 21  1  6  0  0  0
 21 69  1  0  0  0  0
 21122  1  0  0  0  0
 70 22  1  1  0  0  0
 22 74  1  0  0  0  0
 22135  1  0  0  0  0
 23 25  1  0  0  0  0
 23 26  1  0  0  0  0
 23 33  1  0  0  0  0
 23 76  1  0  0  0  0
 24 27  1  0  0  0  0
 24 28  1  0  0  0  0
 24 29  1  0  0  0  0
 24 77  1  0  0  0  0
 25 26  1  0  0  0  0
 25 78  1  0  0  0  0
 25 79  1  0  0  0  0
 26 80  1  0  0  0  0
 26 81  1  0  0  0  0
 27 30  1  0  0  0  0
 27 82  1  0  0  0  0
 27 83  1  0  0  0  0
 28 31  1  0  0  0  0
 28 84  1  0  0  0  0
 28 85  1  0  0  0  0
 29 34  1  0  0  0  0
 29 86  1  0  0  0  0
 29 87  1  0  0  0  0
 30 32  1  0  0  0  0
 30 88  1  0  0  0  0
 30 89  1  0  0  0  0
 31 32  1  0  0  0  0
 31 90  1  0  0  0  0
 31 91  1  0  0  0  0
 32 92  1  0  0  0  0
 32 93  1  0  0  0  0
 33 35  1  0  0  0  0
 33 36  2  0  0  0  0
 34 37  1  0  0  0  0
 34 94  1  0  0  0  0
 35 38  2  0  0  0  0
 36 39  1  0  0  0  0
 36 95  1  0  0  0  0
 38 41  1  0  0  0  0
 38 97  1  0  0  0  0
 39 41  2  0  0  0  0
 39 98  1  0  0  0  0
 40 43  1  0  0  0  0
 41102  1  0  0  0  0
 42 45  1  0  0  0  0
 42 47  1  0  0  0  0
 42101  1  0  0  0  0
 43 46  1  0  0  0  0
 43103  1  0  0  0  0
 44 45  1  0  0  0  0
 46 49  1  0  0  0  0
 46104  1  0  0  0  0
 46105  1  0  0  0  0
 47106  1  0  0  0  0
 47107  1  0  0  0  0
 48 50  1  0  0  0  0
 48 51  1  0  0  0  0
 48109  1  0  0  0  0
 49 54  1  0  0  0  0
 49110  1  0  0  0  0
 49111  1  0  0  0  0
 51 52  1  0  0  0  0
 51 53  1  0  0  0  0
 51112  1  0  0  0  0
 52 57  2  0  0  0  0
 52 59  1  0  0  0  0
 53 58  2  0  0  0  0
 53 60  1  0  0  0  0
 55 56  1  0  0  0  0
 56 61  1  0  0  0  0
 56115  1  0  0  0  0
 57 62  1  0  0  0  0
 57116  1  0  0  0  0
 58 63  1  0  0  0  0
 58117  1  0  0  0  0
 59 64  2  0  0  0  0
 59118  1  0  0  0  0
 60 65  2  0  0  0  0
 60119  1  0  0  0  0
 61 66  1  0  0  0  0
 61120  1  0  0  0  0
 61121  1  0  0  0  0
 62 67  2  0  0  0  0
 62123  1  0  0  0  0
 63 68  2  0  0  0  0
 63124  1  0  0  0  0
 64 67  1  0  0  0  0
 64125  1  0  0  0  0
 65 68  1  0  0  0  0
 65126  1  0  0  0  0
 66 71  1  0  0  0  0
 66127  1  0  0  0  0
 66128  1  0  0  0  0
 67130  1  0  0  0  0
 68131  1  0  0  0  0
 69 70  1  0  0  0  0
 70 72  1  0  0  0  0
 70132  1  0  0  0  0
 72 73  1  0  0  0  0
 72133  1  0  0  0  0
 72134  1  0  0  0  0
 74 75  1  0  0  0  0
 75137  1  0  0  0  0
 75138  1  0  0  0  0
 75139  1  0  0  0  0
M  END
> <PUBCHEM_COMPOUND_CID>
503479
> <PUBCHEM_COMPOUND_CANONICALIZED>
1
> <PUBCHEM_CACTVS_COMPLEXITY>
2000
> <PUBCHEM_CACTVS_HBOND_ACCEPTOR>
15
> <PUBCHEM_CACTVS_HBOND_DONOR>
11
> <PUBCHEM_CACTVS_ROTATABLE_BOND>
29
> <PUBCHEM_CACTVS_SUBSKEYS>
AAADcfB/vABAAAAAAAAAAAAAGAAAAAAAAAAwYMGAAAAAAAABUAAAHgQQCAAADSzF2ASyyILAAgSIAqXSWACCAAAhAgAIiIGIZIgIYDrA0bGUYAhmlgDIyAe/n8KOgAAAAAACAAAAAAAAAAQAAAAAAAAAAA==
> <PUBCHEM_IUPAC_OPENEYE_NAME>
(4S)-4-[[(2S)-2-acetamido-3-carboxy-propanoyl]amino]-5-[[(1S)-1-benzhydryl-2-[[(1S)-3-carboxy-1-[[(1S)-1-(cyclohexylmethyl)-2-[[(1R)-3-(2-cyclopropylanilino)-2,3-dioxo-1-(sulfanylmethyl)propyl]amino]-2-oxo-ethyl]carbamoyl]propyl]amino]-2-oxo-ethyl]amino]-5-oxo-pentanoic acid
> <PUBCHEM_IUPAC_CAS_NAME>
(4S)-4-[[(2S)-2-acetamido-3-carboxy-1-oxopropyl]amino]-5-[[(2S)-1-[[(2S)-4-carboxy-1-[[(2S)-3-cyclohexyl-1-[[(2R)-4-(2-cyclopropylanilino)-1-mercapto-3,4-dioxobutan-2-yl]amino]-1-oxopropan-2-yl]amino]-1-oxobutan-2-yl]amino]-1-oxo-3,3-diphenylpropan-2-yl]amino]-5-oxopentanoic acid
> <PUBCHEM_IUPAC_NAME_MARKUP>
(4<I>S</I>)-4-[[(2<I>S</I>)-2-acetamido-3-carboxypropanoyl]amino]-5-[[(2<I>S</I>)-1-[[(2<I>S</I>)-4-carboxy-1-[[(2<I>S</I>)-3-cyclohexyl-1-[[(2<I>R</I>)-4-(2-cyclopropylanilino)-3,4-dioxo-1-sulfanylbutan-2-yl]amino]-1-oxopropan-2-yl]amino]-1-oxobutan-2-yl]amino]-1-oxo-3,3-diphenylpropan-2-yl]amino]-5-oxopentanoic acid
> <PUBCHEM_IUPAC_NAME>
(4S)-4-[[(2S)-2-acetamido-3-carboxypropanoyl]amino]-5-[[(2S)-1-[[(2S)-4-carboxy-1-[[(2S)-3-cyclohexyl-1-[[(2R)-4-(2-cyclopropylanilino)-3,4-dioxo-1-sulfanylbutan-2-yl]amino]-1-oxopropan-2-yl]amino]-1-oxobutan-2-yl]amino]-1-oxo-3,3-diphenylpropan-2-yl]amino]-5-oxopentanoic acid
> <PUBCHEM_IUPAC_SYSTEMATIC_NAME>
(4S)-4-[[(2S)-2-acetamido-4-oxidanyl-4-oxidanylidene-butanoyl]amino]-5-[[(2S)-1-[[(2S)-1-[[(2S)-3-cyclohexyl-1-[[(2R)-4-[(2-cyclopropylphenyl)amino]-3,4-bis(oxidanylidene)-1-sulfanyl-butan-2-yl]amino]-1-oxidanylidene-propan-2-yl]amino]-5-oxidanyl-1,5-bis(oxidanylidene)pentan-2-yl]amino]-1-oxidanylidene-3,3-diphenyl-propan-2-yl]amino]-5-oxidanylidene-pentanoic acid
> <PUBCHEM_IUPAC_TRADITIONAL_NAME>
(4S)-4-[[(2S)-2-acetamido-3-carboxy-propanoyl]amino]-5-[[(1S)-1-benzhydryl-2-[[(1S)-3-carboxy-1-[[(1S)-1-(cyclohexylmethyl)-2-[[(1R)-3-(2-cyclopropylanilino)-2,3-diketo-1-(mercaptomethyl)propyl]amino]-2-keto-ethyl]carbamoyl]propyl]amino]-2-keto-ethyl]amino]-5-keto-valeric acid
> <PUBCHEM_IUPAC_INCHI>
InChI=1S/C53H65N7O14S/c1-30(61)54-40(28-44(66)67)51(72)56-38(24-26-43(64)65)49(70)60-46(45(33-15-7-3-8-16-33)34-17-9-4-10-18-34)52(73)57-37(23-25-42(62)63)48(69)58-39(27-31-13-5-2-6-14-31)50(71)59-41(29-75)47(68)53(74)55-36-20-12-11-19-35(36)32-21-22-32/h3-4,7-12,15-20,31-32,37-41,45-46,75H,2,5-6,13-14,21-29H2,1H3,(H,54,61)(H,55,74)(H,56,72)(H,57,73)(H,58,69)(H,59,71)(H,60,70)(H,62,63)(H,64,65)(H,66,67)/t37-,38-,39-,40-,41-,46-/m0/s1
> <PUBCHEM_IUPAC_INCHIKEY>
KOUGVYVVASOTEE-HWEVAMLISA-N
> <PUBCHEM_XLOGP3_AA>
4.2
> <PUBCHEM_EXACT_MASS>
1055.43102095
> <PUBCHEM_MOLECULAR_FORMULA>
C53H65N7O14S
> <PUBCHEM_MOLECULAR_WEIGHT>
1056.2
> <PUBCHEM_OPENEYE_CAN_SMILES>
CC(=O)NC(CC(=O)O)C(=O)NC(CCC(=O)O)C(=O)NC(C(C1=CC=CC=C1)C2=CC=CC=C2)C(=O)NC(CCC(=O)O)C(=O)NC(CC3CCCCC3)C(=O)NC(CS)C(=O)C(=O)NC4=CC=CC=C4C5CC5
> <PUBCHEM_OPENEYE_ISO_SMILES>
CC(=O)N[C@@H](CC(=O)O)C(=O)N[C@@H](CCC(=O)O)C(=O)N[C@@H](C(C1=CC=CC=C1)C2=CC=CC=C2)C(=O)N[C@@H](CCC(=O)O)C(=O)N[C@@H](CC3CCCCC3)C(=O)N[C@@H](CS)C(=O)C(=O)NC4=CC=CC=C4C5CC5
> <PUBCHEM_CACTVS_TPSA>
334
> <PUBCHEM_MONOISOTOPIC_WEIGHT>
1055.43102095
> <PUBCHEM_TOTAL_CHARGE>
0
> <PUBCHEM_HEAVY_ATOM_COUNT>
75
> <PUBCHEM_ATOM_DEF_STEREO_COUNT>
6
> <PUBCHEM_ATOM_UDEF_STEREO_COUNT>
0
> <PUBCHEM_BOND_DEF_STEREO_COUNT>
0
> <PUBCHEM_BOND_UDEF_STEREO_COUNT>
0
> <PUBCHEM_ISOTOPIC_ATOM_COUNT>
0
> <PUBCHEM_COMPONENT_COUNT>
1
> <PUBCHEM_CACTVS_TAUTO_COUNT>
-1
> <PUBCHEM_COORDINATE_TYPE>
1
5
255
> <PUBCHEM_BONDANNOTATIONS>
34  16  6
42  18  5
43  19  6
48  20  5
56  21  6
70  22  5
33  35  8
33  36  8
35  38  8
36  39  8
38  41  8
39  41  8
52  57  8
52  59  8
53  58  8
53  60  8
57  62  8
58  63  8
59  64  8
60  65  8
62  67  8
63  68  8
64  67  8
65  68  8
$$$$
