503495
  -OEChem-10302200282D
 84 84  0     1  0  0  0  0  0999 V2000
    7.1962   -1.0600    0.0000 S   0  0  0  0  0  0  0  0  0  0  0  0
    6.3301   -1.5600    0.0000 O   0  0  0  0  0  0  0  0  0  0  0  0
    6.3301   -2.5600    0.0000 O   0  0  0  0  0  0  0  0  0  0  0  0
    7.1962   -6.0600    0.0000 O   0  0  0  0  0  0  0  0  0  0  0  0
    5.4641    1.9400    0.0000 O   0  0  0  0  0  0  0  0  0  0  0  0
    3.7320   -7.0600    0.0000 O   0  0  0  0  0  0  0  0  0  0  0  0
    5.4641   -6.0600    0.0000 O   0  0  0  0  0  0  0  0  0  0  0  0
    2.8660   -5.5600    0.0000 O   0  0  0  0  0  0  0  0  0  0  0  0
    8.9282    7.9400    0.0000 O   0  0  0  0  0  0  0  0  0  0  0  0
    7.1962    7.9400    0.0000 O   0  0  0  0  0  0  0  0  0  0  0  0
    4.5981   -2.5600    0.0000 N   0  0  0  0  0  0  0  0  0  0  0  0
    5.4641   -0.0600    0.0000 N   0  0  0  0  0  0  0  0  0  0  0  0
    6.3301   -4.5600    0.0000 N   0  0  0  0  0  0  0  0  0  0  0  0
    7.1962    1.9400    0.0000 N   0  0  0  0  0  0  0  0  0  0  0  0
    3.7320   -1.0600    0.0000 C   0  0  0  0  0  0  0  0  0  0  0  0
    4.5981   -1.5600    0.0000 C   0  0  1  0  0  0  0  0  0  0  0  0
    2.8660   -1.5600    0.0000 C   0  0  0  0  0  0  0  0  0  0  0  0
    5.4641   -1.0600    0.0000 C   0  0  0  0  0  0  0  0  0  0  0  0
    5.4641   -4.0600    0.0000 C   0  0  2  0  0  0  0  0  0  0  0  0
    2.0000   -1.0600    0.0000 C   0  0  0  0  0  0  0  0  0  0  0  0
    2.8660   -2.5600    0.0000 C   0  0  0  0  0  0  0  0  0  0  0  0
    5.4641   -3.0600    0.0000 C   0  0  0  0  0  0  0  0  0  0  0  0
    4.5981   -4.5600    0.0000 C   0  0  0  0  0  0  0  0  0  0  0  0
    6.3301    0.4400    0.0000 C   0  0  1  0  0  0  0  0  0  0  0  0
    4.5981   -5.5600    0.0000 C   0  0  0  0  0  0  0  0  0  0  0  0
    7.1962   -0.0600    0.0000 C   0  0  0  0  0  0  0  0  0  0  0  0
    6.3301    1.4400    0.0000 C   0  0  0  0  0  0  0  0  0  0  0  0
    6.3301   -5.5600    0.0000 C   0  0  0  0  0  0  0  0  0  0  0  0
    7.1962    2.9400    0.0000 C   0  0  0  0  0  0  0  0  0  0  0  0
    3.7320   -6.0600    0.0000 C   0  0  0  0  0  0  0  0  0  0  0  0
    8.0622    3.4400    0.0000 C   0  0  0  0  0  0  0  0  0  0  0  0
    8.0622   -7.5600    0.0000 C   0  0  0  0  0  0  0  0  0  0  0  0
    7.1962   -7.0600    0.0000 C   0  0  0  0  0  0  0  0  0  0  0  0
    8.0622    4.4400    0.0000 C   0  0  0  0  0  0  0  0  0  0  0  0
    8.0622   -8.5600    0.0000 C   0  0  0  0  0  0  0  0  0  0  0  0
    8.9282   -7.0600    0.0000 C   0  0  0  0  0  0  0  0  0  0  0  0
    8.9282    4.9400    0.0000 C   0  0  0  0  0  0  0  0  0  0  0  0
    7.1962    4.9400    0.0000 C   0  0  0  0  0  0  0  0  0  0  0  0
    8.9282    5.9400    0.0000 C   0  0  0  0  0  0  0  0  0  0  0  0
    7.1962    5.9400    0.0000 C   0  0  0  0  0  0  0  0  0  0  0  0
    8.0622    6.4400    0.0000 C   0  0  0  0  0  0  0  0  0  0  0  0
    8.0622    7.4400    0.0000 C   0  0  0  0  0  0  0  0  0  0  0  0
    4.1306   -0.5851    0.0000 H   0  0  0  0  0  0  0  0  0  0  0  0
    3.3335   -0.5851    0.0000 H   0  0  0  0  0  0  0  0  0  0  0  0
    5.1350   -1.8700    0.0000 H   0  0  0  0  0  0  0  0  0  0  0  0
    2.8660   -0.9400    0.0000 H   0  0  0  0  0  0  0  0  0  0  0  0
    4.0611   -2.8700    0.0000 H   0  0  0  0  0  0  0  0  0  0  0  0
    5.4641   -4.6800    0.0000 H   0  0  0  0  0  0  0  0  0  0  0  0
    2.3100   -0.5231    0.0000 H   0  0  0  0  0  0  0  0  0  0  0  0
    1.4631   -0.7500    0.0000 H   0  0  0  0  0  0  0  0  0  0  0  0
    1.6900   -1.5969    0.0000 H   0  0  0  0  0  0  0  0  0  0  0  0
    2.2460   -2.5600    0.0000 H   0  0  0  0  0  0  0  0  0  0  0  0
    2.8660   -3.1800    0.0000 H   0  0  0  0  0  0  0  0  0  0  0  0
    3.4860   -2.5600    0.0000 H   0  0  0  0  0  0  0  0  0  0  0  0
    4.3860   -3.9774    0.0000 H   0  0  0  0  0  0  0  0  0  0  0  0
    3.9875   -4.6677    0.0000 H   0  0  0  0  0  0  0  0  0  0  0  0
    4.9272    0.2500    0.0000 H   0  0  0  0  0  0  0  0  0  0  0  0
    5.7932    0.7500    0.0000 H   0  0  0  0  0  0  0  0  0  0  0  0
    6.8671   -4.2500    0.0000 H   0  0  0  0  0  0  0  0  0  0  0  0
    4.8101   -6.1426    0.0000 H   0  0  0  0  0  0  0  0  0  0  0  0
    5.2087   -5.4523    0.0000 H   0  0  0  0  0  0  0  0  0  0  0  0
    7.8067   -0.1677    0.0000 H   0  0  0  0  0  0  0  0  0  0  0  0
    7.4082    0.5226    0.0000 H   0  0  0  0  0  0  0  0  0  0  0  0
    7.7331    1.6300    0.0000 H   0  0  0  0  0  0  0  0  0  0  0  0
    6.9841    3.5226    0.0000 H   0  0  0  0  0  0  0  0  0  0  0  0
    6.5856    2.8323    0.0000 H   0  0  0  0  0  0  0  0  0  0  0  0
    8.2742    2.8574    0.0000 H   0  0  0  0  0  0  0  0  0  0  0  0
    8.6728    3.5477    0.0000 H   0  0  0  0  0  0  0  0  0  0  0  0
    8.0622   -6.9400    0.0000 H   0  0  0  0  0  0  0  0  0  0  0  0
    6.5856   -6.9523    0.0000 H   0  0  0  0  0  0  0  0  0  0  0  0
    6.9841   -7.6426    0.0000 H   0  0  0  0  0  0  0  0  0  0  0  0
    7.7331   -1.3700    0.0000 H   0  0  0  0  0  0  0  0  0  0  0  0
    7.4422   -8.5600    0.0000 H   0  0  0  0  0  0  0  0  0  0  0  0
    8.0622   -9.1800    0.0000 H   0  0  0  0  0  0  0  0  0  0  0  0
    8.6822   -8.5600    0.0000 H   0  0  0  0  0  0  0  0  0  0  0  0
    9.2382   -7.5969    0.0000 H   0  0  0  0  0  0  0  0  0  0  0  0
    9.4651   -6.7500    0.0000 H   0  0  0  0  0  0  0  0  0  0  0  0
    8.6182   -6.5231    0.0000 H   0  0  0  0  0  0  0  0  0  0  0  0
    9.4651    4.6300    0.0000 H   0  0  0  0  0  0  0  0  0  0  0  0
    6.6592    4.6300    0.0000 H   0  0  0  0  0  0  0  0  0  0  0  0
    3.1951   -7.3700    0.0000 H   0  0  0  0  0  0  0  0  0  0  0  0
    9.4651    6.2500    0.0000 H   0  0  0  0  0  0  0  0  0  0  0  0
    6.6592    6.2500    0.0000 H   0  0  0  0  0  0  0  0  0  0  0  0
    8.9282    8.5600    0.0000 H   0  0  0  0  0  0  0  0  0  0  0  0
  1 26  1  0  0  0  0
  1 72  1  0  0  0  0
  2 18  2  0  0  0  0
  3 22  2  0  0  0  0
  4 28  1  0  0  0  0
  4 33  1  0  0  0  0
  5 27  2  0  0  0  0
  6 30  1  0  0  0  0
  6 81  1  0  0  0  0
  7 28  2  0  0  0  0
  8 30  2  0  0  0  0
  9 42  1  0  0  0  0
  9 84  1  0  0  0  0
 10 42  2  0  0  0  0
 16 11  1  1  0  0  0
 11 22  1  0  0  0  0
 11 47  1  0  0  0  0
 12 18  1  0  0  0  0
 24 12  1  6  0  0  0
 12 57  1  0  0  0  0
 19 13  1  1  0  0  0
 13 28  1  0  0  0  0
 13 59  1  0  0  0  0
 14 27  1  0  0  0  0
 14 29  1  0  0  0  0
 14 64  1  0  0  0  0
 15 16  1  0  0  0  0
 15 17  1  0  0  0  0
 15 43  1  0  0  0  0
 15 44  1  0  0  0  0
 16 18  1  0  0  0  0
 16 45  1  0  0  0  0
 17 20  1  0  0  0  0
 17 21  1  0  0  0  0
 17 46  1  0  0  0  0
 19 22  1  0  0  0  0
 19 23  1  0  0  0  0
 19 48  1  0  0  0  0
 20 49  1  0  0  0  0
 20 50  1  0  0  0  0
 20 51  1  0  0  0  0
 21 52  1  0  0  0  0
 21 53  1  0  0  0  0
 21 54  1  0  0  0  0
 23 25  1  0  0  0  0
 23 55  1  0  0  0  0
 23 56  1  0  0  0  0
 24 26  1  0  0  0  0
 24 27  1  0  0  0  0
 24 58  1  0  0  0  0
 25 30  1  0  0  0  0
 25 60  1  0  0  0  0
 25 61  1  0  0  0  0
 26 62  1  0  0  0  0
 26 63  1  0  0  0  0
 29 31  1  0  0  0  0
 29 65  1  0  0  0  0
 29 66  1  0  0  0  0
 31 34  1  0  0  0  0
 31 67  1  0  0  0  0
 31 68  1  0  0  0  0
 32 33  1  0  0  0  0
 32 35  1  0  0  0  0
 32 36  1  0  0  0  0
 32 69  1  0  0  0  0
 33 70  1  0  0  0  0
 33 71  1  0  0  0  0
 34 37  2  0  0  0  0
 34 38  1  0  0  0  0
 35 73  1  0  0  0  0
 35 74  1  0  0  0  0
 35 75  1  0  0  0  0
 36 76  1  0  0  0  0
 36 77  1  0  0  0  0
 36 78  1  0  0  0  0
 37 39  1  0  0  0  0
 37 79  1  0  0  0  0
 38 40  2  0  0  0  0
 38 80  1  0  0  0  0
 39 41  2  0  0  0  0
 39 82  1  0  0  0  0
 40 41  1  0  0  0  0
 40 83  1  0  0  0  0
 41 42  1  0  0  0  0
M  END
> <PUBCHEM_COMPOUND_CID>
503495
> <PUBCHEM_COMPOUND_CANONICALIZED>
1
> <PUBCHEM_CACTVS_COMPLEXITY>
923
> <PUBCHEM_CACTVS_HBOND_ACCEPTOR>
10
> <PUBCHEM_CACTVS_HBOND_DONOR>
7
> <PUBCHEM_CACTVS_ROTATABLE_BOND>
19
> <PUBCHEM_CACTVS_SUBSKEYS>
AAADcfB7vABAAAAAAAAAAAAAAAAAAAAAAAAwAAAAAAAAAAABAAAAHgQQCAAADSjl2AayCILABgSIAiHSGAACAAAkAAAIiIGICMkIZjKAlTGccQAk1gGImYe83/KOQAAAAAAAAACAAAAAAAAAAAAAAAAAAA==
> <PUBCHEM_IUPAC_OPENEYE_NAME>
4-[2-[[(2R)-2-[[(2S)-2-[[(2S)-4-carboxy-2-(isobutoxycarbonylamino)butanoyl]amino]-4-methyl-pentanoyl]amino]-3-sulfanyl-propanoyl]amino]ethyl]benzoic acid
> <PUBCHEM_IUPAC_CAS_NAME>
4-[2-[[(2R)-2-[[(2S)-2-[[(2S)-4-carboxy-2-[[2-methylpropoxy(oxo)methyl]amino]-1-oxobutyl]amino]-4-methyl-1-oxopentyl]amino]-3-mercapto-1-oxopropyl]amino]ethyl]benzoic acid
> <PUBCHEM_IUPAC_NAME_MARKUP>
4-[2-[[(2<I>R</I>)-2-[[(2<I>S</I>)-2-[[(2<I>S</I>)-4-carboxy-2-(2-methylpropoxycarbonylamino)butanoyl]amino]-4-methylpentanoyl]amino]-3-sulfanylpropanoyl]amino]ethyl]benzoic acid
> <PUBCHEM_IUPAC_NAME>
4-[2-[[(2R)-2-[[(2S)-2-[[(2S)-4-carboxy-2-(2-methylpropoxycarbonylamino)butanoyl]amino]-4-methylpentanoyl]amino]-3-sulfanylpropanoyl]amino]ethyl]benzoic acid
> <PUBCHEM_IUPAC_SYSTEMATIC_NAME>
4-[2-[[(2R)-2-[[(2S)-4-methyl-2-[[(2S)-2-(2-methylpropoxycarbonylamino)-5-oxidanyl-5-oxidanylidene-pentanoyl]amino]pentanoyl]amino]-3-sulfanyl-propanoyl]amino]ethyl]benzoic acid
> <PUBCHEM_IUPAC_TRADITIONAL_NAME>
4-[2-[[(2R)-2-[[(2S)-2-[[(2S)-4-carboxy-2-(isobutoxycarbonylamino)butanoyl]amino]-4-methyl-pentanoyl]amino]-3-mercapto-propanoyl]amino]ethyl]benzoic acid
> <PUBCHEM_IUPAC_INCHI>
InChI=1S/C28H42N4O9S/c1-16(2)13-21(30-25(36)20(9-10-23(33)34)32-28(40)41-14-17(3)4)26(37)31-22(15-42)24(35)29-12-11-18-5-7-19(8-6-18)27(38)39/h5-8,16-17,20-22,42H,9-15H2,1-4H3,(H,29,35)(H,30,36)(H,31,37)(H,32,40)(H,33,34)(H,38,39)/t20-,21-,22-/m0/s1
> <PUBCHEM_IUPAC_INCHIKEY>
OHCVWGFALBQESO-FKBYEOEOSA-N
> <PUBCHEM_XLOGP3_AA>
2.7
> <PUBCHEM_EXACT_MASS>
610.26725010
> <PUBCHEM_MOLECULAR_FORMULA>
C28H42N4O9S
> <PUBCHEM_MOLECULAR_WEIGHT>
610.7
> <PUBCHEM_OPENEYE_CAN_SMILES>
CC(C)CC(C(=O)NC(CS)C(=O)NCCC1=CC=C(C=C1)C(=O)O)NC(=O)C(CCC(=O)O)NC(=O)OCC(C)C
> <PUBCHEM_OPENEYE_ISO_SMILES>
CC(C)C[C@@H](C(=O)N[C@@H](CS)C(=O)NCCC1=CC=C(C=C1)C(=O)O)NC(=O)[C@H](CCC(=O)O)NC(=O)OCC(C)C
> <PUBCHEM_CACTVS_TPSA>
201
> <PUBCHEM_MONOISOTOPIC_WEIGHT>
610.26725010
> <PUBCHEM_TOTAL_CHARGE>
0
> <PUBCHEM_HEAVY_ATOM_COUNT>
42
> <PUBCHEM_ATOM_DEF_STEREO_COUNT>
3
> <PUBCHEM_ATOM_UDEF_STEREO_COUNT>
0
> <PUBCHEM_BOND_DEF_STEREO_COUNT>
0
> <PUBCHEM_BOND_UDEF_STEREO_COUNT>
0
> <PUBCHEM_ISOTOPIC_ATOM_COUNT>
0
> <PUBCHEM_COMPONENT_COUNT>
1
> <PUBCHEM_CACTVS_TAUTO_COUNT>
-1
> <PUBCHEM_COORDINATE_TYPE>
1
5
255
> <PUBCHEM_BONDANNOTATIONS>
16  11  5
24  12  6
19  13  5
34  37  8
34  38  8
37  39  8
38  40  8
39  41  8
40  41  8
$$$$
