503401
  -OEChem-10302200282D
109108  0     1  0  0  0  0  0999 V2000
   14.1244    0.8450    0.0000 O   0  0  0  0  0  0  0  0  0  0  0  0
   13.2583   -1.6550    0.0000 O   0  0  0  0  0  0  0  0  0  0  0  0
   14.9904   -1.6550    0.0000 O   0  0  0  0  0  0  0  0  0  0  0  0
   16.7224    1.3450    0.0000 O   0  0  0  0  0  0  0  0  0  0  0  0
   17.5885    0.8450    0.0000 O   0  0  0  0  0  0  0  0  0  0  0  0
   16.7224   -0.6550    0.0000 N   0  0  0  0  0  0  0  0  0  0  0  0
   14.1244   -0.1550    0.0000 C   0  0  3  0  0  0  0  0  0  0  0  0
   13.2583   -0.6550    0.0000 C   0  0  3  0  0  0  0  0  0  0  0  0
   14.9904   -0.6550    0.0000 C   0  0  3  0  0  0  0  0  0  0  0  0
   12.3923   -0.1550    0.0000 C   0  0  0  0  0  0  0  0  0  0  0  0
   11.5263   -0.6550    0.0000 C   0  0  0  0  0  0  0  0  0  0  0  0
   15.8564   -0.1550    0.0000 C   0  0  3  0  0  0  0  0  0  0  0  0
   10.6603   -0.1550    0.0000 C   0  0  0  0  0  0  0  0  0  0  0  0
    9.7942   -0.6550    0.0000 C   0  0  0  0  0  0  0  0  0  0  0  0
    8.9282   -0.1550    0.0000 C   0  0  0  0  0  0  0  0  0  0  0  0
    8.0622   -0.6550    0.0000 C   0  0  0  0  0  0  0  0  0  0  0  0
    7.1962   -0.1550    0.0000 C   0  0  0  0  0  0  0  0  0  0  0  0
   15.8564    0.8450    0.0000 C   0  0  0  0  0  0  0  0  0  0  0  0
    6.3301   -0.6550    0.0000 C   0  0  0  0  0  0  0  0  0  0  0  0
   22.7846   -0.1550    0.0000 C   0  0  0  0  0  0  0  0  0  0  0  0
   21.9186   -0.6550    0.0000 C   0  0  0  0  0  0  0  0  0  0  0  0
   21.0526   -0.1550    0.0000 C   0  0  0  0  0  0  0  0  0  0  0  0
   23.6506   -0.6550    0.0000 C   0  0  0  0  0  0  0  0  0  0  0  0
   20.1865   -0.6550    0.0000 C   0  0  0  0  0  0  0  0  0  0  0  0
   24.5167   -0.1550    0.0000 C   0  0  0  0  0  0  0  0  0  0  0  0
   19.3205   -0.1550    0.0000 C   0  0  0  0  0  0  0  0  0  0  0  0
   25.3827   -0.6550    0.0000 C   0  0  0  0  0  0  0  0  0  0  0  0
   18.4545   -0.6550    0.0000 C   0  0  0  0  0  0  0  0  0  0  0  0
    5.4641   -0.1550    0.0000 C   0  0  0  0  0  0  0  0  0  0  0  0
   26.2487   -0.1550    0.0000 C   0  0  0  0  0  0  0  0  0  0  0  0
   17.5885   -0.1550    0.0000 C   0  0  0  0  0  0  0  0  0  0  0  0
   27.1147   -0.6550    0.0000 C   0  0  0  0  0  0  0  0  0  0  0  0
    4.5981   -0.6550    0.0000 C   0  0  0  0  0  0  0  0  0  0  0  0
   27.9808   -0.1550    0.0000 C   0  0  0  0  0  0  0  0  0  0  0  0
    3.7320   -0.1550    0.0000 C   0  0  0  0  0  0  0  0  0  0  0  0
   28.8468   -0.6550    0.0000 C   0  0  0  0  0  0  0  0  0  0  0  0
    2.8660   -0.6550    0.0000 C   0  0  0  0  0  0  0  0  0  0  0  0
   29.7128   -0.1550    0.0000 C   0  0  0  0  0  0  0  0  0  0  0  0
    2.0000   -0.1550    0.0000 C   0  0  0  0  0  0  0  0  0  0  0  0
   30.5788   -0.6550    0.0000 C   0  0  0  0  0  0  0  0  0  0  0  0
   13.5874    0.1550    0.0000 H   0  0  0  0  0  0  0  0  0  0  0  0
   13.7953   -0.9650    0.0000 H   0  0  0  0  0  0  0  0  0  0  0  0
   15.5273   -0.9650    0.0000 H   0  0  0  0  0  0  0  0  0  0  0  0
   12.7908    0.3199    0.0000 H   0  0  0  0  0  0  0  0  0  0  0  0
   11.9938    0.3199    0.0000 H   0  0  0  0  0  0  0  0  0  0  0  0
   11.1278   -1.1300    0.0000 H   0  0  0  0  0  0  0  0  0  0  0  0
   11.9248   -1.1300    0.0000 H   0  0  0  0  0  0  0  0  0  0  0  0
   16.3933    0.1550    0.0000 H   0  0  0  0  0  0  0  0  0  0  0  0
   11.0588    0.3199    0.0000 H   0  0  0  0  0  0  0  0  0  0  0  0
   10.2617    0.3199    0.0000 H   0  0  0  0  0  0  0  0  0  0  0  0
    9.3957   -1.1300    0.0000 H   0  0  0  0  0  0  0  0  0  0  0  0
   10.1928   -1.1300    0.0000 H   0  0  0  0  0  0  0  0  0  0  0  0
    9.3267    0.3199    0.0000 H   0  0  0  0  0  0  0  0  0  0  0  0
    8.5297    0.3199    0.0000 H   0  0  0  0  0  0  0  0  0  0  0  0
    7.6636   -1.1300    0.0000 H   0  0  0  0  0  0  0  0  0  0  0  0
    8.4607   -1.1300    0.0000 H   0  0  0  0  0  0  0  0  0  0  0  0
    7.5947    0.3199    0.0000 H   0  0  0  0  0  0  0  0  0  0  0  0
    6.7976    0.3199    0.0000 H   0  0  0  0  0  0  0  0  0  0  0  0
   15.6444    1.4276    0.0000 H   0  0  0  0  0  0  0  0  0  0  0  0
   15.2458    0.7373    0.0000 H   0  0  0  0  0  0  0  0  0  0  0  0
   16.7224   -1.2750    0.0000 H   0  0  0  0  0  0  0  0  0  0  0  0
    5.9316   -1.1300    0.0000 H   0  0  0  0  0  0  0  0  0  0  0  0
    6.7287   -1.1300    0.0000 H   0  0  0  0  0  0  0  0  0  0  0  0
   23.1831    0.3199    0.0000 H   0  0  0  0  0  0  0  0  0  0  0  0
   22.3861    0.3199    0.0000 H   0  0  0  0  0  0  0  0  0  0  0  0
   21.5201   -1.1300    0.0000 H   0  0  0  0  0  0  0  0  0  0  0  0
   22.3171   -1.1300    0.0000 H   0  0  0  0  0  0  0  0  0  0  0  0
   23.2521   -1.1300    0.0000 H   0  0  0  0  0  0  0  0  0  0  0  0
   24.0492   -1.1300    0.0000 H   0  0  0  0  0  0  0  0  0  0  0  0
   21.4511    0.3199    0.0000 H   0  0  0  0  0  0  0  0  0  0  0  0
   20.6540    0.3199    0.0000 H   0  0  0  0  0  0  0  0  0  0  0  0
   19.7880   -1.1300    0.0000 H   0  0  0  0  0  0  0  0  0  0  0  0
   20.5851   -1.1300    0.0000 H   0  0  0  0  0  0  0  0  0  0  0  0
   24.9152    0.3199    0.0000 H   0  0  0  0  0  0  0  0  0  0  0  0
   24.1181    0.3199    0.0000 H   0  0  0  0  0  0  0  0  0  0  0  0
   19.7190    0.3199    0.0000 H   0  0  0  0  0  0  0  0  0  0  0  0
   18.9220    0.3199    0.0000 H   0  0  0  0  0  0  0  0  0  0  0  0
   24.9842   -1.1300    0.0000 H   0  0  0  0  0  0  0  0  0  0  0  0
   25.7812   -1.1300    0.0000 H   0  0  0  0  0  0  0  0  0  0  0  0
   18.0560   -1.1300    0.0000 H   0  0  0  0  0  0  0  0  0  0  0  0
   18.8530   -1.1300    0.0000 H   0  0  0  0  0  0  0  0  0  0  0  0
    5.8626    0.3199    0.0000 H   0  0  0  0  0  0  0  0  0  0  0  0
    5.0656    0.3199    0.0000 H   0  0  0  0  0  0  0  0  0  0  0  0
   13.5874    1.1550    0.0000 H   0  0  0  0  0  0  0  0  0  0  0  0
   12.7214   -1.9650    0.0000 H   0  0  0  0  0  0  0  0  0  0  0  0
   26.6472    0.3199    0.0000 H   0  0  0  0  0  0  0  0  0  0  0  0
   25.8502    0.3199    0.0000 H   0  0  0  0  0  0  0  0  0  0  0  0
   14.4534   -1.9650    0.0000 H   0  0  0  0  0  0  0  0  0  0  0  0
   26.7162   -1.1300    0.0000 H   0  0  0  0  0  0  0  0  0  0  0  0
   27.5133   -1.1300    0.0000 H   0  0  0  0  0  0  0  0  0  0  0  0
    4.1996   -1.1300    0.0000 H   0  0  0  0  0  0  0  0  0  0  0  0
    4.9966   -1.1300    0.0000 H   0  0  0  0  0  0  0  0  0  0  0  0
   28.3793    0.3199    0.0000 H   0  0  0  0  0  0  0  0  0  0  0  0
   27.5822    0.3199    0.0000 H   0  0  0  0  0  0  0  0  0  0  0  0
    4.1306    0.3199    0.0000 H   0  0  0  0  0  0  0  0  0  0  0  0
    3.3335    0.3199    0.0000 H   0  0  0  0  0  0  0  0  0  0  0  0
   28.4483   -1.1300    0.0000 H   0  0  0  0  0  0  0  0  0  0  0  0
   29.2453   -1.1300    0.0000 H   0  0  0  0  0  0  0  0  0  0  0  0
   16.7224    1.9650    0.0000 H   0  0  0  0  0  0  0  0  0  0  0  0
    2.4675   -1.1300    0.0000 H   0  0  0  0  0  0  0  0  0  0  0  0
    3.2646   -1.1300    0.0000 H   0  0  0  0  0  0  0  0  0  0  0  0
   30.1113    0.3199    0.0000 H   0  0  0  0  0  0  0  0  0  0  0  0
   29.3143    0.3199    0.0000 H   0  0  0  0  0  0  0  0  0  0  0  0
    2.3100    0.3819    0.0000 H   0  0  0  0  0  0  0  0  0  0  0  0
    1.4631    0.1550    0.0000 H   0  0  0  0  0  0  0  0  0  0  0  0
    1.6900   -0.6919    0.0000 H   0  0  0  0  0  0  0  0  0  0  0  0
   30.2688   -1.1919    0.0000 H   0  0  0  0  0  0  0  0  0  0  0  0
   31.1158   -0.9650    0.0000 H   0  0  0  0  0  0  0  0  0  0  0  0
   30.8888   -0.1181    0.0000 H   0  0  0  0  0  0  0  0  0  0  0  0
  1  7  1  0  0  0  0
  1 84  1  0  0  0  0
  2  8  1  0  0  0  0
  2 85  1  0  0  0  0
  3  9  1  0  0  0  0
  3 88  1  0  0  0  0
  4 18  1  0  0  0  0
  4 99  1  0  0  0  0
  5 31  2  0  0  0  0
  6 12  1  0  0  0  0
  6 31  1  0  0  0  0
  6 61  1  0  0  0  0
  7  8  1  0  0  0  0
  7  9  1  0  0  0  0
  7 41  1  0  0  0  0
  8 10  1  0  0  0  0
  8 42  1  0  0  0  0
  9 12  1  0  0  0  0
  9 43  1  0  0  0  0
 10 11  1  0  0  0  0
 10 44  1  0  0  0  0
 10 45  1  0  0  0  0
 11 13  1  0  0  0  0
 11 46  1  0  0  0  0
 11 47  1  0  0  0  0
 12 18  1  0  0  0  0
 12 48  1  0  0  0  0
 13 14  1  0  0  0  0
 13 49  1  0  0  0  0
 13 50  1  0  0  0  0
 14 15  1  0  0  0  0
 14 51  1  0  0  0  0
 14 52  1  0  0  0  0
 15 16  1  0  0  0  0
 15 53  1  0  0  0  0
 15 54  1  0  0  0  0
 16 17  1  0  0  0  0
 16 55  1  0  0  0  0
 16 56  1  0  0  0  0
 17 19  1  0  0  0  0
 17 57  1  0  0  0  0
 17 58  1  0  0  0  0
 18 59  1  0  0  0  0
 18 60  1  0  0  0  0
 19 29  1  0  0  0  0
 19 62  1  0  0  0  0
 19 63  1  0  0  0  0
 20 21  1  0  0  0  0
 20 23  1  0  0  0  0
 20 64  1  0  0  0  0
 20 65  1  0  0  0  0
 21 22  1  0  0  0  0
 21 66  1  0  0  0  0
 21 67  1  0  0  0  0
 22 24  1  0  0  0  0
 22 70  1  0  0  0  0
 22 71  1  0  0  0  0
 23 25  1  0  0  0  0
 23 68  1  0  0  0  0
 23 69  1  0  0  0  0
 24 26  1  0  0  0  0
 24 72  1  0  0  0  0
 24 73  1  0  0  0  0
 25 27  1  0  0  0  0
 25 74  1  0  0  0  0
 25 75  1  0  0  0  0
 26 28  1  0  0  0  0
 26 76  1  0  0  0  0
 26 77  1  0  0  0  0
 27 30  1  0  0  0  0
 27 78  1  0  0  0  0
 27 79  1  0  0  0  0
 28 31  1  0  0  0  0
 28 80  1  0  0  0  0
 28 81  1  0  0  0  0
 29 33  1  0  0  0  0
 29 82  1  0  0  0  0
 29 83  1  0  0  0  0
 30 32  1  0  0  0  0
 30 86  1  0  0  0  0
 30 87  1  0  0  0  0
 32 34  1  0  0  0  0
 32 89  1  0  0  0  0
 32 90  1  0  0  0  0
 33 35  1  0  0  0  0
 33 91  1  0  0  0  0
 33 92  1  0  0  0  0
 34 36  1  0  0  0  0
 34 93  1  0  0  0  0
 34 94  1  0  0  0  0
 35 37  1  0  0  0  0
 35 95  1  0  0  0  0
 35 96  1  0  0  0  0
 36 38  1  0  0  0  0
 36 97  1  0  0  0  0
 36 98  1  0  0  0  0
 37 39  1  0  0  0  0
 37100  1  0  0  0  0
 37101  1  0  0  0  0
 38 40  1  0  0  0  0
 38102  1  0  0  0  0
 38103  1  0  0  0  0
 39104  1  0  0  0  0
 39105  1  0  0  0  0
 39106  1  0  0  0  0
 40107  1  0  0  0  0
 40108  1  0  0  0  0
 40109  1  0  0  0  0
M  END
> <PUBCHEM_COMPOUND_CID>
503401
> <PUBCHEM_COMPOUND_CANONICALIZED>
1
> <PUBCHEM_CACTVS_COMPLEXITY>
533
> <PUBCHEM_CACTVS_HBOND_ACCEPTOR>
5
> <PUBCHEM_CACTVS_HBOND_DONOR>
5
> <PUBCHEM_CACTVS_ROTATABLE_BOND>
31
> <PUBCHEM_CACTVS_SUBSKEYS>
AAADcfB+OAAAAAAAAAAAAAAAAAAAAAAAAAAAAAAAAAAAAAAAAAAAHgAQCAAACDzhgAYCAALAAgAIAAEQEAAAAAAAAAAAAIEIAAADEBIAgAAEQAAHFgCRAAH46KSAAAAAAAAAAAAAAAAAAAAAAAAAAAAAAA==
> <PUBCHEM_IUPAC_OPENEYE_NAME>
N-[2,3,4-trihydroxy-1-(hydroxymethyl)heptadecyl]hexadecanamide
> <PUBCHEM_IUPAC_CAS_NAME>
N-(1,3,4,5-tetrahydroxyoctadecan-2-yl)hexadecanamide
> <PUBCHEM_IUPAC_NAME_MARKUP>
<I>N</I>-(1,3,4,5-tetrahydroxyoctadecan-2-yl)hexadecanamide
> <PUBCHEM_IUPAC_NAME>
N-(1,3,4,5-tetrahydroxyoctadecan-2-yl)hexadecanamide
> <PUBCHEM_IUPAC_SYSTEMATIC_NAME>
N-[1,3,4,5-tetrakis(oxidanyl)octadecan-2-yl]hexadecanamide
> <PUBCHEM_IUPAC_TRADITIONAL_NAME>
N-(2,3,4-trihydroxy-1-methylol-heptadecyl)palmitamide
> <PUBCHEM_IUPAC_INCHI>
InChI=1S/C34H69NO5/c1-3-5-7-9-11-13-15-16-18-20-22-24-26-28-32(38)35-30(29-36)33(39)34(40)31(37)27-25-23-21-19-17-14-12-10-8-6-4-2/h30-31,33-34,36-37,39-40H,3-29H2,1-2H3,(H,35,38)
> <PUBCHEM_IUPAC_INCHIKEY>
ZMQRUGJRPFLTGX-UHFFFAOYSA-N
> <PUBCHEM_XLOGP3_AA>
11.1
> <PUBCHEM_EXACT_MASS>
571.51757430
> <PUBCHEM_MOLECULAR_FORMULA>
C34H69NO5
> <PUBCHEM_MOLECULAR_WEIGHT>
571.9
> <PUBCHEM_OPENEYE_CAN_SMILES>
CCCCCCCCCCCCCCCC(=O)NC(CO)C(C(C(CCCCCCCCCCCCC)O)O)O
> <PUBCHEM_OPENEYE_ISO_SMILES>
CCCCCCCCCCCCCCCC(=O)NC(CO)C(C(C(CCCCCCCCCCCCC)O)O)O
> <PUBCHEM_CACTVS_TPSA>
110
> <PUBCHEM_MONOISOTOPIC_WEIGHT>
571.51757430
> <PUBCHEM_TOTAL_CHARGE>
0
> <PUBCHEM_HEAVY_ATOM_COUNT>
40
> <PUBCHEM_ATOM_DEF_STEREO_COUNT>
0
> <PUBCHEM_ATOM_UDEF_STEREO_COUNT>
4
> <PUBCHEM_BOND_DEF_STEREO_COUNT>
0
> <PUBCHEM_BOND_UDEF_STEREO_COUNT>
0
> <PUBCHEM_ISOTOPIC_ATOM_COUNT>
0
> <PUBCHEM_COMPONENT_COUNT>
1
> <PUBCHEM_CACTVS_TAUTO_COUNT>
-1
> <PUBCHEM_COORDINATE_TYPE>
1
5
255
> <PUBCHEM_BONDANNOTATIONS>
7  1  3
12  18  3
8  2  3
9  3  3
$$$$
