503483
  -OEChem-10302200282D
 82 83  0     1  0  0  0  0  0999 V2000
    7.1962    4.2500    0.0000 S   0  0  0  0  0  0  0  0  0  0  0  0
    8.0622    1.7500    0.0000 O   0  0  0  0  0  0  0  0  0  0  0  0
    7.1962   -1.7500    0.0000 O   0  0  0  0  0  0  0  0  0  0  0  0
    4.5981    2.7500    0.0000 O   0  0  0  0  0  0  0  0  0  0  0  0
    4.5981   -4.2500    0.0000 O   0  0  0  0  0  0  0  0  0  0  0  0
    3.7320    1.2500    0.0000 O   0  0  0  0  0  0  0  0  0  0  0  0
    3.7320   -2.7500    0.0000 O   0  0  0  0  0  0  0  0  0  0  0  0
    2.8660   -0.2500    0.0000 O   0  0  0  0  0  0  0  0  0  0  0  0
    6.3301   -0.2500    0.0000 N   0  0  0  0  0  0  0  0  0  0  0  0
    6.3301    1.7500    0.0000 N   0  0  0  0  0  0  0  0  0  0  0  0
    5.4641   -2.7500    0.0000 N   0  0  0  0  0  0  0  0  0  0  0  0
    5.4641    4.2500    0.0000 N   0  0  0  0  0  0  0  0  0  0  0  0
    8.0622   -0.2500    0.0000 C   0  0  0  0  0  0  0  0  0  0  0  0
    7.1962    0.2500    0.0000 C   0  0  1  0  0  0  0  0  0  0  0  0
    8.9282    0.2500    0.0000 C   0  0  0  0  0  0  0  0  0  0  0  0
    7.1962    1.2500    0.0000 C   0  0  0  0  0  0  0  0  0  0  0  0
    9.7942   -0.2500    0.0000 C   0  0  0  0  0  0  0  0  0  0  0  0
    8.9282    1.2500    0.0000 C   0  0  0  0  0  0  0  0  0  0  0  0
    5.4641   -1.7500    0.0000 C   0  0  2  0  0  0  0  0  0  0  0  0
    6.3301   -1.2500    0.0000 C   0  0  0  0  0  0  0  0  0  0  0  0
    4.5981   -1.2500    0.0000 C   0  0  0  0  0  0  0  0  0  0  0  0
    6.3301    2.7500    0.0000 C   0  0  1  0  0  0  0  0  0  0  0  0
    4.5981   -0.2500    0.0000 C   0  0  0  0  0  0  0  0  0  0  0  0
    7.1962    3.2500    0.0000 C   0  0  0  0  0  0  0  0  0  0  0  0
    5.4641    3.2500    0.0000 C   0  0  0  0  0  0  0  0  0  0  0  0
    4.5981    4.7500    0.0000 C   0  0  0  0  0  0  0  0  0  0  0  0
    4.5981   -3.2500    0.0000 C   0  0  0  0  0  0  0  0  0  0  0  0
    3.7320    0.2500    0.0000 C   0  0  0  0  0  0  0  0  0  0  0  0
    4.5981    5.7500    0.0000 C   0  0  0  0  0  0  0  0  0  0  0  0
    3.7320    6.2500    0.0000 C   0  0  0  0  0  0  0  0  0  0  0  0
    3.7320   -4.7500    0.0000 C   0  0  0  0  0  0  0  0  0  0  0  0
    3.7320    7.2500    0.0000 C   0  0  0  0  0  0  0  0  0  0  0  0
    2.8660    5.7500    0.0000 C   0  0  0  0  0  0  0  0  0  0  0  0
    3.7320   -5.7500    0.0000 C   0  0  0  0  0  0  0  0  0  0  0  0
    2.8660    7.7500    0.0000 C   0  0  0  0  0  0  0  0  0  0  0  0
    2.0000    6.2500    0.0000 C   0  0  0  0  0  0  0  0  0  0  0  0
    2.0000    7.2500    0.0000 C   0  0  0  0  0  0  0  0  0  0  0  0
    4.5981   -6.2500    0.0000 C   0  0  0  0  0  0  0  0  0  0  0  0
    2.8660   -6.2500    0.0000 C   0  0  0  0  0  0  0  0  0  0  0  0
    4.5981   -7.2500    0.0000 C   0  0  0  0  0  0  0  0  0  0  0  0
    2.8660   -7.2500    0.0000 C   0  0  0  0  0  0  0  0  0  0  0  0
    3.7320   -7.7500    0.0000 C   0  0  0  0  0  0  0  0  0  0  0  0
    7.6636   -0.7249    0.0000 H   0  0  0  0  0  0  0  0  0  0  0  0
    8.4607   -0.7249    0.0000 H   0  0  0  0  0  0  0  0  0  0  0  0
    6.6592    0.5600    0.0000 H   0  0  0  0  0  0  0  0  0  0  0  0
    9.4651    0.5600    0.0000 H   0  0  0  0  0  0  0  0  0  0  0  0
    5.7932    0.0600    0.0000 H   0  0  0  0  0  0  0  0  0  0  0  0
    9.4842   -0.7869    0.0000 H   0  0  0  0  0  0  0  0  0  0  0  0
   10.3312   -0.5600    0.0000 H   0  0  0  0  0  0  0  0  0  0  0  0
   10.1042    0.2869    0.0000 H   0  0  0  0  0  0  0  0  0  0  0  0
    9.5482    1.2500    0.0000 H   0  0  0  0  0  0  0  0  0  0  0  0
    8.9282    1.8700    0.0000 H   0  0  0  0  0  0  0  0  0  0  0  0
    8.3082    1.2500    0.0000 H   0  0  0  0  0  0  0  0  0  0  0  0
    6.0010   -2.0600    0.0000 H   0  0  0  0  0  0  0  0  0  0  0  0
    3.9875   -1.1423    0.0000 H   0  0  0  0  0  0  0  0  0  0  0  0
    4.3860   -1.8326    0.0000 H   0  0  0  0  0  0  0  0  0  0  0  0
    5.7932    1.4400    0.0000 H   0  0  0  0  0  0  0  0  0  0  0  0
    6.8671    2.4400    0.0000 H   0  0  0  0  0  0  0  0  0  0  0  0
    5.2087   -0.3577    0.0000 H   0  0  0  0  0  0  0  0  0  0  0  0
    4.8101    0.3326    0.0000 H   0  0  0  0  0  0  0  0  0  0  0  0
    6.0010   -3.0600    0.0000 H   0  0  0  0  0  0  0  0  0  0  0  0
    7.4082    2.6674    0.0000 H   0  0  0  0  0  0  0  0  0  0  0  0
    7.8067    3.3577    0.0000 H   0  0  0  0  0  0  0  0  0  0  0  0
    6.0010    4.5600    0.0000 H   0  0  0  0  0  0  0  0  0  0  0  0
    3.9875    4.8577    0.0000 H   0  0  0  0  0  0  0  0  0  0  0  0
    4.3860    4.1674    0.0000 H   0  0  0  0  0  0  0  0  0  0  0  0
    5.2087    5.6423    0.0000 H   0  0  0  0  0  0  0  0  0  0  0  0
    4.8101    6.3326    0.0000 H   0  0  0  0  0  0  0  0  0  0  0  0
    7.7331    4.5600    0.0000 H   0  0  0  0  0  0  0  0  0  0  0  0
    3.5200   -4.1674    0.0000 H   0  0  0  0  0  0  0  0  0  0  0  0
    3.1215   -4.8577    0.0000 H   0  0  0  0  0  0  0  0  0  0  0  0
    4.2690    7.5600    0.0000 H   0  0  0  0  0  0  0  0  0  0  0  0
    2.8660    5.1300    0.0000 H   0  0  0  0  0  0  0  0  0  0  0  0
    3.1951    1.5600    0.0000 H   0  0  0  0  0  0  0  0  0  0  0  0
    2.8660    8.3700    0.0000 H   0  0  0  0  0  0  0  0  0  0  0  0
    1.4631    5.9400    0.0000 H   0  0  0  0  0  0  0  0  0  0  0  0
    1.4631    7.5600    0.0000 H   0  0  0  0  0  0  0  0  0  0  0  0
    5.1350   -5.9400    0.0000 H   0  0  0  0  0  0  0  0  0  0  0  0
    2.3291   -5.9400    0.0000 H   0  0  0  0  0  0  0  0  0  0  0  0
    5.1350   -7.5600    0.0000 H   0  0  0  0  0  0  0  0  0  0  0  0
    2.3291   -7.5600    0.0000 H   0  0  0  0  0  0  0  0  0  0  0  0
    3.7320   -8.3700    0.0000 H   0  0  0  0  0  0  0  0  0  0  0  0
  1 24  1  0  0  0  0
  1 69  1  0  0  0  0
  2 16  2  0  0  0  0
  3 20  2  0  0  0  0
  4 25  2  0  0  0  0
  5 27  1  0  0  0  0
  5 31  1  0  0  0  0
  6 28  1  0  0  0  0
  6 74  1  0  0  0  0
  7 27  2  0  0  0  0
  8 28  2  0  0  0  0
 14  9  1  6  0  0  0
  9 20  1  0  0  0  0
  9 47  1  0  0  0  0
 10 16  1  0  0  0  0
 22 10  1  6  0  0  0
 10 57  1  0  0  0  0
 19 11  1  1  0  0  0
 11 27  1  0  0  0  0
 11 61  1  0  0  0  0
 12 25  1  0  0  0  0
 12 26  1  0  0  0  0
 12 64  1  0  0  0  0
 13 14  1  0  0  0  0
 13 15  1  0  0  0  0
 13 43  1  0  0  0  0
 13 44  1  0  0  0  0
 14 16  1  0  0  0  0
 14 45  1  0  0  0  0
 15 17  1  0  0  0  0
 15 18  1  0  0  0  0
 15 46  1  0  0  0  0
 17 48  1  0  0  0  0
 17 49  1  0  0  0  0
 17 50  1  0  0  0  0
 18 51  1  0  0  0  0
 18 52  1  0  0  0  0
 18 53  1  0  0  0  0
 19 20  1  0  0  0  0
 19 21  1  0  0  0  0
 19 54  1  0  0  0  0
 21 23  1  0  0  0  0
 21 55  1  0  0  0  0
 21 56  1  0  0  0  0
 22 24  1  0  0  0  0
 22 25  1  0  0  0  0
 22 58  1  0  0  0  0
 23 28  1  0  0  0  0
 23 59  1  0  0  0  0
 23 60  1  0  0  0  0
 24 62  1  0  0  0  0
 24 63  1  0  0  0  0
 26 29  1  0  0  0  0
 26 65  1  0  0  0  0
 26 66  1  0  0  0  0
 29 30  1  0  0  0  0
 29 67  1  0  0  0  0
 29 68  1  0  0  0  0
 30 32  2  0  0  0  0
 30 33  1  0  0  0  0
 31 34  1  0  0  0  0
 31 70  1  0  0  0  0
 31 71  1  0  0  0  0
 32 35  1  0  0  0  0
 32 72  1  0  0  0  0
 33 36  2  0  0  0  0
 33 73  1  0  0  0  0
 34 38  2  0  0  0  0
 34 39  1  0  0  0  0
 35 37  2  0  0  0  0
 35 75  1  0  0  0  0
 36 37  1  0  0  0  0
 36 76  1  0  0  0  0
 37 77  1  0  0  0  0
 38 40  1  0  0  0  0
 38 78  1  0  0  0  0
 39 41  2  0  0  0  0
 39 79  1  0  0  0  0
 40 42  2  0  0  0  0
 40 80  1  0  0  0  0
 41 42  1  0  0  0  0
 41 81  1  0  0  0  0
 42 82  1  0  0  0  0
M  END
> <PUBCHEM_COMPOUND_CID>
503483
> <PUBCHEM_COMPOUND_CANONICALIZED>
1
> <PUBCHEM_CACTVS_COMPLEXITY>
876
> <PUBCHEM_CACTVS_HBOND_ACCEPTOR>
8
> <PUBCHEM_CACTVS_HBOND_DONOR>
6
> <PUBCHEM_CACTVS_ROTATABLE_BOND>
18
> <PUBCHEM_CACTVS_SUBSKEYS>
AAADcfB7uABAAAAAAAAAAAAAAAAAAAAAAAAwYAAAAAAAAAABQAAAHgQQCAAADSjl2AayCILABgSIAiHSGAACAAAgAAAIiIGICIkIZjKAsTmccAAk1gGIqAe816IOAAAAAAAAAAAAAAAAAAAAAAAAAAAAAA==
> <PUBCHEM_IUPAC_OPENEYE_NAME>
(4S)-4-(benzyloxycarbonylamino)-5-[[(1S)-3-methyl-1-[[(1R)-2-oxo-2-(2-phenylethylamino)-1-(sulfanylmethyl)ethyl]carbamoyl]butyl]amino]-5-oxo-pentanoic acid
> <PUBCHEM_IUPAC_CAS_NAME>
(4S)-5-[[(2S)-1-[[(2R)-3-mercapto-1-oxo-1-(2-phenylethylamino)propan-2-yl]amino]-4-methyl-1-oxopentan-2-yl]amino]-5-oxo-4-(phenylmethoxycarbonylamino)pentanoic acid
> <PUBCHEM_IUPAC_NAME_MARKUP>
(4<I>S</I>)-5-[[(2<I>S</I>)-4-methyl-1-oxo-1-[[(2<I>R</I>)-1-oxo-1-(2-phenylethylamino)-3-sulfanylpropan-2-yl]amino]pentan-2-yl]amino]-5-oxo-4-(phenylmethoxycarbonylamino)pentanoic acid
> <PUBCHEM_IUPAC_NAME>
(4S)-5-[[(2S)-4-methyl-1-oxo-1-[[(2R)-1-oxo-1-(2-phenylethylamino)-3-sulfanylpropan-2-yl]amino]pentan-2-yl]amino]-5-oxo-4-(phenylmethoxycarbonylamino)pentanoic acid
> <PUBCHEM_IUPAC_SYSTEMATIC_NAME>
(4S)-5-[[(2S)-4-methyl-1-oxidanylidene-1-[[(2R)-1-oxidanylidene-1-(2-phenylethylamino)-3-sulfanyl-propan-2-yl]amino]pentan-2-yl]amino]-5-oxidanylidene-4-(phenylmethoxycarbonylamino)pentanoic acid
> <PUBCHEM_IUPAC_TRADITIONAL_NAME>
(4S)-4-(benzyloxycarbonylamino)-5-keto-5-[[(1S)-1-[[(1R)-2-keto-1-(mercaptomethyl)-2-(phenethylamino)ethyl]carbamoyl]-3-methyl-butyl]amino]valeric acid
> <PUBCHEM_IUPAC_INCHI>
InChI=1S/C30H40N4O7S/c1-20(2)17-24(29(39)33-25(19-42)27(37)31-16-15-21-9-5-3-6-10-21)32-28(38)23(13-14-26(35)36)34-30(40)41-18-22-11-7-4-8-12-22/h3-12,20,23-25,42H,13-19H2,1-2H3,(H,31,37)(H,32,38)(H,33,39)(H,34,40)(H,35,36)/t23-,24-,25-/m0/s1
> <PUBCHEM_IUPAC_INCHIKEY>
ADIHOAMHQBIVBZ-SDHOMARFSA-N
> <PUBCHEM_XLOGP3_AA>
3.4
> <PUBCHEM_EXACT_MASS>
600.26177080
> <PUBCHEM_MOLECULAR_FORMULA>
C30H40N4O7S
> <PUBCHEM_MOLECULAR_WEIGHT>
600.7
> <PUBCHEM_OPENEYE_CAN_SMILES>
CC(C)CC(C(=O)NC(CS)C(=O)NCCC1=CC=CC=C1)NC(=O)C(CCC(=O)O)NC(=O)OCC2=CC=CC=C2
> <PUBCHEM_OPENEYE_ISO_SMILES>
CC(C)C[C@@H](C(=O)N[C@@H](CS)C(=O)NCCC1=CC=CC=C1)NC(=O)[C@H](CCC(=O)O)NC(=O)OCC2=CC=CC=C2
> <PUBCHEM_CACTVS_TPSA>
164
> <PUBCHEM_MONOISOTOPIC_WEIGHT>
600.26177080
> <PUBCHEM_TOTAL_CHARGE>
0
> <PUBCHEM_HEAVY_ATOM_COUNT>
42
> <PUBCHEM_ATOM_DEF_STEREO_COUNT>
3
> <PUBCHEM_ATOM_UDEF_STEREO_COUNT>
0
> <PUBCHEM_BOND_DEF_STEREO_COUNT>
0
> <PUBCHEM_BOND_UDEF_STEREO_COUNT>
0
> <PUBCHEM_ISOTOPIC_ATOM_COUNT>
0
> <PUBCHEM_COMPONENT_COUNT>
1
> <PUBCHEM_CACTVS_TAUTO_COUNT>
-1
> <PUBCHEM_COORDINATE_TYPE>
1
5
255
> <PUBCHEM_BONDANNOTATIONS>
22  10  6
19  11  5
30  32  8
30  33  8
32  35  8
33  36  8
34  38  8
34  39  8
35  37  8
36  37  8
38  40  8
39  41  8
40  42  8
41  42  8
14  9  6
$$$$
