503481
  -OEChem-10302200282D
139142  0     1  0  0  0  0  0999 V2000
    6.3301    6.8100    0.0000 Cl  0  0  0  0  0  0  0  0  0  0  0  0
   11.5263    3.8100    0.0000 S   0  0  0  0  0  0  0  0  0  0  0  0
   12.3923    1.3100    0.0000 O   0  0  0  0  0  0  0  0  0  0  0  0
   11.5263   -2.1900    0.0000 O   0  0  0  0  0  0  0  0  0  0  0  0
    8.0622   -3.1900    0.0000 O   0  0  0  0  0  0  0  0  0  0  0  0
    8.9282    2.3100    0.0000 O   0  0  0  0  0  0  0  0  0  0  0  0
    8.0622    0.8100    0.0000 O   0  0  0  0  0  0  0  0  0  0  0  0
    7.1962   -0.6900    0.0000 O   0  0  0  0  0  0  0  0  0  0  0  0
   10.6603    4.3100    0.0000 O   0  0  0  0  0  0  0  0  0  0  0  0
    7.1962   -3.6900    0.0000 O   0  0  0  0  0  0  0  0  0  0  0  0
    4.5981   -6.1900    0.0000 O   0  0  0  0  0  0  0  0  0  0  0  0
    4.5981   -8.1900    0.0000 O   0  0  0  0  0  0  0  0  0  0  0  0
    6.3301   -8.1900    0.0000 O   0  0  0  0  0  0  0  0  0  0  0  0
    2.8660   -2.1900    0.0000 O   0  0  0  0  0  0  0  0  0  0  0  0
    2.0000   -3.6900    0.0000 O   0  0  0  0  0  0  0  0  0  0  0  0
    3.7320   -6.6900    0.0000 O   0  0  0  0  0  0  0  0  0  0  0  0
   10.6603   -0.6900    0.0000 N   0  0  0  0  0  0  0  0  0  0  0  0
   10.6603    1.3100    0.0000 N   0  0  0  0  0  0  0  0  0  0  0  0
    9.7942   -3.1900    0.0000 N   0  0  0  0  0  0  0  0  0  0  0  0
    8.0622   -5.1900    0.0000 N   0  0  0  0  0  0  0  0  0  0  0  0
    8.9282    4.3100    0.0000 N   0  0  0  0  0  0  0  0  0  0  0  0
    5.4641   -4.6900    0.0000 N   0  0  0  0  0  0  0  0  0  0  0  0
    2.8660   -5.1900    0.0000 N   0  0  0  0  0  0  0  0  0  0  0  0
   13.2583   -0.1900    0.0000 C   0  0  0  0  0  0  0  0  0  0  0  0
   13.2583    0.8100    0.0000 C   0  0  0  0  0  0  0  0  0  0  0  0
   14.1244   -0.6900    0.0000 C   0  0  0  0  0  0  0  0  0  0  0  0
   14.1244    1.3100    0.0000 C   0  0  0  0  0  0  0  0  0  0  0  0
   14.9904   -0.1900    0.0000 C   0  0  0  0  0  0  0  0  0  0  0  0
   12.3923   -0.6900    0.0000 C   0  0  0  0  0  0  0  0  0  0  0  0
   14.9904    0.8100    0.0000 C   0  0  0  0  0  0  0  0  0  0  0  0
   11.5263   -0.1900    0.0000 C   0  0  1  0  0  0  0  0  0  0  0  0
   11.5263    0.8100    0.0000 C   0  0  0  0  0  0  0  0  0  0  0  0
   10.6603   -1.6900    0.0000 C   0  0  0  0  0  0  0  0  0  0  0  0
    9.7942   -2.1900    0.0000 C   0  0  2  0  0  0  0  0  0  0  0  0
   10.6603    2.3100    0.0000 C   0  0  1  0  0  0  0  0  0  0  0  0
    8.9282   -1.6900    0.0000 C   0  0  0  0  0  0  0  0  0  0  0  0
    8.9282   -4.6900    0.0000 C   0  0  2  0  0  0  0  0  0  0  0  0
   11.5263    2.8100    0.0000 C   0  0  0  0  0  0  0  0  0  0  0  0
    8.9282   -3.6900    0.0000 C   0  0  0  0  0  0  0  0  0  0  0  0
    8.9282   -0.6900    0.0000 C   0  0  0  0  0  0  0  0  0  0  0  0
    9.7942   -5.1900    0.0000 C   0  0  0  0  0  0  0  0  0  0  0  0
    9.7942    2.8100    0.0000 C   0  0  0  0  0  0  0  0  0  0  0  0
    9.7942   -6.1900    0.0000 C   0  0  0  0  0  0  0  0  0  0  0  0
   10.7942   -5.1900    0.0000 C   0  0  0  0  0  0  0  0  0  0  0  0
    9.7942    3.8100    0.0000 C   0  0  0  0  0  0  0  0  0  0  0  0
    8.0622   -0.1900    0.0000 C   0  0  0  0  0  0  0  0  0  0  0  0
    7.1962   -4.6900    0.0000 C   0  0  0  0  0  0  0  0  0  0  0  0
    6.3301   -5.1900    0.0000 C   0  0  2  0  0  0  0  0  0  0  0  0
   10.6603   -6.6900    0.0000 C   0  0  0  0  0  0  0  0  0  0  0  0
   11.2942   -4.3240    0.0000 C   0  0  0  0  0  0  0  0  0  0  0  0
    8.9282   -6.6900    0.0000 C   0  0  0  0  0  0  0  0  0  0  0  0
   11.2942   -6.0560    0.0000 C   0  0  0  0  0  0  0  0  0  0  0  0
    6.3301   -6.1900    0.0000 C   0  0  0  0  0  0  0  0  0  0  0  0
   10.6603   -7.6900    0.0000 C   0  0  0  0  0  0  0  0  0  0  0  0
   12.2942   -4.3240    0.0000 C   0  0  0  0  0  0  0  0  0  0  0  0
    8.9282   -7.6900    0.0000 C   0  0  0  0  0  0  0  0  0  0  0  0
   12.2942   -6.0560    0.0000 C   0  0  0  0  0  0  0  0  0  0  0  0
    5.4641   -6.6900    0.0000 C   0  0  0  0  0  0  0  0  0  0  0  0
    8.9282    5.3100    0.0000 C   0  0  0  0  0  0  0  0  0  0  0  0
    9.7942   -8.1900    0.0000 C   0  0  0  0  0  0  0  0  0  0  0  0
   12.7942   -5.1900    0.0000 C   0  0  0  0  0  0  0  0  0  0  0  0
    4.5981   -5.1900    0.0000 C   0  0  0  0  0  0  0  0  0  0  0  0
    3.7320   -4.6900    0.0000 C   0  0  2  0  0  0  0  0  0  0  0  0
    8.0622    5.8100    0.0000 C   0  0  0  0  0  0  0  0  0  0  0  0
    5.4641   -7.6900    0.0000 C   0  0  0  0  0  0  0  0  0  0  0  0
    3.7320   -3.6900    0.0000 C   0  0  0  0  0  0  0  0  0  0  0  0
    8.0622    6.8100    0.0000 C   0  0  0  0  0  0  0  0  0  0  0  0
    2.8660   -3.1900    0.0000 C   0  0  0  0  0  0  0  0  0  0  0  0
    2.8660   -6.1900    0.0000 C   0  0  0  0  0  0  0  0  0  0  0  0
    7.1962    7.3100    0.0000 C   0  0  0  0  0  0  0  0  0  0  0  0
    8.9282    7.3100    0.0000 C   0  0  0  0  0  0  0  0  0  0  0  0
    2.0000   -6.6900    0.0000 C   0  0  0  0  0  0  0  0  0  0  0  0
    7.1962    8.3100    0.0000 C   0  0  0  0  0  0  0  0  0  0  0  0
    8.9282    8.3100    0.0000 C   0  0  0  0  0  0  0  0  0  0  0  0
    8.0622    8.8100    0.0000 C   0  0  0  0  0  0  0  0  0  0  0  0
   13.2583   -0.8100    0.0000 H   0  0  0  0  0  0  0  0  0  0  0  0
   13.0463    1.3926    0.0000 H   0  0  0  0  0  0  0  0  0  0  0  0
   12.6477    0.7023    0.0000 H   0  0  0  0  0  0  0  0  0  0  0  0
   13.7258   -1.1650    0.0000 H   0  0  0  0  0  0  0  0  0  0  0  0
   14.5229   -1.1650    0.0000 H   0  0  0  0  0  0  0  0  0  0  0  0
   14.5229    1.7850    0.0000 H   0  0  0  0  0  0  0  0  0  0  0  0
   13.7258    1.7850    0.0000 H   0  0  0  0  0  0  0  0  0  0  0  0
   15.2024   -0.7726    0.0000 H   0  0  0  0  0  0  0  0  0  0  0  0
   15.6010   -0.0823    0.0000 H   0  0  0  0  0  0  0  0  0  0  0  0
   11.9938   -1.1650    0.0000 H   0  0  0  0  0  0  0  0  0  0  0  0
   12.7908   -1.1650    0.0000 H   0  0  0  0  0  0  0  0  0  0  0  0
   15.6010    0.7023    0.0000 H   0  0  0  0  0  0  0  0  0  0  0  0
   15.2024    1.3926    0.0000 H   0  0  0  0  0  0  0  0  0  0  0  0
   10.9893    0.1200    0.0000 H   0  0  0  0  0  0  0  0  0  0  0  0
   10.1233   -0.3800    0.0000 H   0  0  0  0  0  0  0  0  0  0  0  0
   10.1233    1.0000    0.0000 H   0  0  0  0  0  0  0  0  0  0  0  0
    9.2573   -2.5000    0.0000 H   0  0  0  0  0  0  0  0  0  0  0  0
   11.1972    2.0000    0.0000 H   0  0  0  0  0  0  0  0  0  0  0  0
    8.3176   -1.5823    0.0000 H   0  0  0  0  0  0  0  0  0  0  0  0
    8.7162   -2.2726    0.0000 H   0  0  0  0  0  0  0  0  0  0  0  0
   10.3312   -3.5000    0.0000 H   0  0  0  0  0  0  0  0  0  0  0  0
    8.9282   -5.3100    0.0000 H   0  0  0  0  0  0  0  0  0  0  0  0
   11.7383    2.2274    0.0000 H   0  0  0  0  0  0  0  0  0  0  0  0
   12.1369    2.9177    0.0000 H   0  0  0  0  0  0  0  0  0  0  0  0
    9.5388   -0.7977    0.0000 H   0  0  0  0  0  0  0  0  0  0  0  0
    9.1403   -0.1074    0.0000 H   0  0  0  0  0  0  0  0  0  0  0  0
    9.9547   -4.5911    0.0000 H   0  0  0  0  0  0  0  0  0  0  0  0
    8.0622   -5.8100    0.0000 H   0  0  0  0  0  0  0  0  0  0  0  0
    5.7932   -5.5000    0.0000 H   0  0  0  0  0  0  0  0  0  0  0  0
   12.0632    4.1200    0.0000 H   0  0  0  0  0  0  0  0  0  0  0  0
   11.1972   -6.3800    0.0000 H   0  0  0  0  0  0  0  0  0  0  0  0
   10.9842   -3.7870    0.0000 H   0  0  0  0  0  0  0  0  0  0  0  0
    8.3913   -6.3800    0.0000 H   0  0  0  0  0  0  0  0  0  0  0  0
   10.9842   -6.5930    0.0000 H   0  0  0  0  0  0  0  0  0  0  0  0
    6.5422   -6.7726    0.0000 H   0  0  0  0  0  0  0  0  0  0  0  0
    6.9407   -6.0823    0.0000 H   0  0  0  0  0  0  0  0  0  0  0  0
    8.3913    4.0000    0.0000 H   0  0  0  0  0  0  0  0  0  0  0  0
    5.4641   -4.0700    0.0000 H   0  0  0  0  0  0  0  0  0  0  0  0
   11.1972   -8.0000    0.0000 H   0  0  0  0  0  0  0  0  0  0  0  0
   12.6042   -3.7870    0.0000 H   0  0  0  0  0  0  0  0  0  0  0  0
    8.3913   -8.0000    0.0000 H   0  0  0  0  0  0  0  0  0  0  0  0
   12.6042   -6.5930    0.0000 H   0  0  0  0  0  0  0  0  0  0  0  0
    5.2520   -6.1074    0.0000 H   0  0  0  0  0  0  0  0  0  0  0  0
    4.8535   -6.7977    0.0000 H   0  0  0  0  0  0  0  0  0  0  0  0
    9.5388    5.2023    0.0000 H   0  0  0  0  0  0  0  0  0  0  0  0
    9.1403    5.8926    0.0000 H   0  0  0  0  0  0  0  0  0  0  0  0
    7.5252    1.1200    0.0000 H   0  0  0  0  0  0  0  0  0  0  0  0
    9.7942   -8.8100    0.0000 H   0  0  0  0  0  0  0  0  0  0  0  0
   13.4142   -5.1900    0.0000 H   0  0  0  0  0  0  0  0  0  0  0  0
    3.7320   -5.3100    0.0000 H   0  0  0  0  0  0  0  0  0  0  0  0
    7.4516    5.9177    0.0000 H   0  0  0  0  0  0  0  0  0  0  0  0
    7.8501    5.2274    0.0000 H   0  0  0  0  0  0  0  0  0  0  0  0
    4.3426   -3.7977    0.0000 H   0  0  0  0  0  0  0  0  0  0  0  0
    3.9441   -3.1074    0.0000 H   0  0  0  0  0  0  0  0  0  0  0  0
    2.3291   -4.8800    0.0000 H   0  0  0  0  0  0  0  0  0  0  0  0
    4.5981   -8.8100    0.0000 H   0  0  0  0  0  0  0  0  0  0  0  0
    9.4651    7.0000    0.0000 H   0  0  0  0  0  0  0  0  0  0  0  0
    1.6900   -6.1531    0.0000 H   0  0  0  0  0  0  0  0  0  0  0  0
    1.4631   -7.0000    0.0000 H   0  0  0  0  0  0  0  0  0  0  0  0
    2.3100   -7.2269    0.0000 H   0  0  0  0  0  0  0  0  0  0  0  0
    6.6592    8.6200    0.0000 H   0  0  0  0  0  0  0  0  0  0  0  0
    9.4651    8.6200    0.0000 H   0  0  0  0  0  0  0  0  0  0  0  0
    8.0622    9.4300    0.0000 H   0  0  0  0  0  0  0  0  0  0  0  0
    2.3291   -1.8800    0.0000 H   0  0  0  0  0  0  0  0  0  0  0  0
  1 70  1  0  0  0  0
  2 38  1  0  0  0  0
  2105  1  0  0  0  0
  3 32  2  0  0  0  0
  4 33  2  0  0  0  0
  5 39  2  0  0  0  0
  6 42  2  0  0  0  0
  7 46  1  0  0  0  0
  7122  1  0  0  0  0
  8 46  2  0  0  0  0
  9 45  2  0  0  0  0
 10 47  2  0  0  0  0
 11 62  2  0  0  0  0
 12 65  1  0  0  0  0
 12131  1  0  0  0  0
 13 65  2  0  0  0  0
 14 68  1  0  0  0  0
 14139  1  0  0  0  0
 15 68  2  0  0  0  0
 16 69  2  0  0  0  0
 31 17  1  6  0  0  0
 17 33  1  0  0  0  0
 17 90  1  0  0  0  0
 18 32  1  0  0  0  0
 35 18  1  6  0  0  0
 18 91  1  0  0  0  0
 34 19  1  1  0  0  0
 19 39  1  0  0  0  0
 19 96  1  0  0  0  0
 37 20  1  6  0  0  0
 20 47  1  0  0  0  0
 20103  1  0  0  0  0
 21 45  1  0  0  0  0
 21 59  1  0  0  0  0
 21112  1  0  0  0  0
 48 22  1  6  0  0  0
 22 62  1  0  0  0  0
 22113  1  0  0  0  0
 63 23  1  1  0  0  0
 23 69  1  0  0  0  0
 23130  1  0  0  0  0
 24 25  1  0  0  0  0
 24 26  1  0  0  0  0
 24 29  1  0  0  0  0
 24 76  1  0  0  0  0
 25 27  1  0  0  0  0
 25 77  1  0  0  0  0
 25 78  1  0  0  0  0
 26 28  1  0  0  0  0
 26 79  1  0  0  0  0
 26 80  1  0  0  0  0
 27 30  1  0  0  0  0
 27 81  1  0  0  0  0
 27 82  1  0  0  0  0
 28 30  1  0  0  0  0
 28 83  1  0  0  0  0
 28 84  1  0  0  0  0
 29 31  1  0  0  0  0
 29 85  1  0  0  0  0
 29 86  1  0  0  0  0
 30 87  1  0  0  0  0
 30 88  1  0  0  0  0
 31 32  1  0  0  0  0
 31 89  1  0  0  0  0
 33 34  1  0  0  0  0
 34 36  1  0  0  0  0
 34 92  1  0  0  0  0
 35 38  1  0  0  0  0
 35 42  1  0  0  0  0
 35 93  1  0  0  0  0
 36 40  1  0  0  0  0
 36 94  1  0  0  0  0
 36 95  1  0  0  0  0
 37 39  1  0  0  0  0
 37 41  1  0  0  0  0
 37 97  1  0  0  0  0
 38 98  1  0  0  0  0
 38 99  1  0  0  0  0
 40 46  1  0  0  0  0
 40100  1  0  0  0  0
 40101  1  0  0  0  0
 41 43  1  0  0  0  0
 41 44  1  0  0  0  0
 41102  1  0  0  0  0
 42 45  1  0  0  0  0
 43 49  2  0  0  0  0
 43 51  1  0  0  0  0
 44 50  2  0  0  0  0
 44 52  1  0  0  0  0
 47 48  1  0  0  0  0
 48 53  1  0  0  0  0
 48104  1  0  0  0  0
 49 54  1  0  0  0  0
 49106  1  0  0  0  0
 50 55  1  0  0  0  0
 50107  1  0  0  0  0
 51 56  2  0  0  0  0
 51108  1  0  0  0  0
 52 57  2  0  0  0  0
 52109  1  0  0  0  0
 53 58  1  0  0  0  0
 53110  1  0  0  0  0
 53111  1  0  0  0  0
 54 60  2  0  0  0  0
 54114  1  0  0  0  0
 55 61  2  0  0  0  0
 55115  1  0  0  0  0
 56 60  1  0  0  0  0
 56116  1  0  0  0  0
 57 61  1  0  0  0  0
 57117  1  0  0  0  0
 58 65  1  0  0  0  0
 58118  1  0  0  0  0
 58119  1  0  0  0  0
 59 64  1  0  0  0  0
 59120  1  0  0  0  0
 59121  1  0  0  0  0
 60123  1  0  0  0  0
 61124  1  0  0  0  0
 62 63  1  0  0  0  0
 63 66  1  0  0  0  0
 63125  1  0  0  0  0
 64 67  1  0  0  0  0
 64126  1  0  0  0  0
 64127  1  0  0  0  0
 66 68  1  0  0  0  0
 66128  1  0  0  0  0
 66129  1  0  0  0  0
 67 70  1  0  0  0  0
 67 71  2  0  0  0  0
 69 72  1  0  0  0  0
 70 73  2  0  0  0  0
 71 74  1  0  0  0  0
 71132  1  0  0  0  0
 72133  1  0  0  0  0
 72134  1  0  0  0  0
 72135  1  0  0  0  0
 73 75  1  0  0  0  0
 73136  1  0  0  0  0
 74 75  2  0  0  0  0
 74137  1  0  0  0  0
 75138  1  0  0  0  0
M  END
> <PUBCHEM_COMPOUND_CID>
503481
> <PUBCHEM_COMPOUND_CANONICALIZED>
1
> <PUBCHEM_CACTVS_COMPLEXITY>
1960
> <PUBCHEM_CACTVS_HBOND_ACCEPTOR>
15
> <PUBCHEM_CACTVS_HBOND_DONOR>
11
> <PUBCHEM_CACTVS_ROTATABLE_BOND>
30
> <PUBCHEM_CACTVS_SUBSKEYS>
AAADcfB/vABEAAAAAAAAAAAAAAAAAAAAAAAwYMGAAAAAAAABUAAAHgYQCAAADS7F2CSyCILAAgSIAqHSGAACAAAgBQAIiIGIAogIYDqB0zGUYAAmlgCIiAe/n8KOgAAAAAABAAAAAAAAAAIAAAAAAAAAAA==
> <PUBCHEM_IUPAC_OPENEYE_NAME>
(4S)-4-[[(2S)-2-acetamido-3-carboxy-propanoyl]amino]-5-[[(1S)-1-benzhydryl-2-[[(1S)-3-carboxy-1-[[(1S)-2-[[(1R)-3-[2-(2-chlorophenyl)ethylamino]-2,3-dioxo-1-(sulfanylmethyl)propyl]amino]-1-(cyclohexylmethyl)-2-oxo-ethyl]carbamoyl]propyl]amino]-2-oxo-ethyl]amino]-5-oxo-pentanoic acid
> <PUBCHEM_IUPAC_CAS_NAME>
(4S)-4-[[(2S)-2-acetamido-3-carboxy-1-oxopropyl]amino]-5-[[(2S)-1-[[(2S)-4-carboxy-1-[[(2S)-1-[[(2R)-4-[2-(2-chlorophenyl)ethylamino]-1-mercapto-3,4-dioxobutan-2-yl]amino]-3-cyclohexyl-1-oxopropan-2-yl]amino]-1-oxobutan-2-yl]amino]-1-oxo-3,3-diphenylpropan-2-yl]amino]-5-oxopentanoic acid
> <PUBCHEM_IUPAC_NAME_MARKUP>
(4<I>S</I>)-4-[[(2<I>S</I>)-2-acetamido-3-carboxypropanoyl]amino]-5-[[(2<I>S</I>)-1-[[(2<I>S</I>)-4-carboxy-1-[[(2<I>S</I>)-1-[[(2<I>R</I>)-4-[2-(2-chlorophenyl)ethylamino]-3,4-dioxo-1-sulfanylbutan-2-yl]amino]-3-cyclohexyl-1-oxopropan-2-yl]amino]-1-oxobutan-2-yl]amino]-1-oxo-3,3-diphenylpropan-2-yl]amino]-5-oxopentanoic acid
> <PUBCHEM_IUPAC_NAME>
(4S)-4-[[(2S)-2-acetamido-3-carboxypropanoyl]amino]-5-[[(2S)-1-[[(2S)-4-carboxy-1-[[(2S)-1-[[(2R)-4-[2-(2-chlorophenyl)ethylamino]-3,4-dioxo-1-sulfanylbutan-2-yl]amino]-3-cyclohexyl-1-oxopropan-2-yl]amino]-1-oxobutan-2-yl]amino]-1-oxo-3,3-diphenylpropan-2-yl]amino]-5-oxopentanoic acid
> <PUBCHEM_IUPAC_SYSTEMATIC_NAME>
(4S)-4-[[(2S)-2-acetamido-4-oxidanyl-4-oxidanylidene-butanoyl]amino]-5-[[(2S)-1-[[(2S)-1-[[(2S)-1-[[(2R)-4-[2-(2-chlorophenyl)ethylamino]-3,4-bis(oxidanylidene)-1-sulfanyl-butan-2-yl]amino]-3-cyclohexyl-1-oxidanylidene-propan-2-yl]amino]-5-oxidanyl-1,5-bis(oxidanylidene)pentan-2-yl]amino]-1-oxidanylidene-3,3-diphenyl-propan-2-yl]amino]-5-oxidanylidene-pentanoic acid
> <PUBCHEM_IUPAC_TRADITIONAL_NAME>
(4S)-4-[[(2S)-2-acetamido-3-carboxy-propanoyl]amino]-5-[[(1S)-1-benzhydryl-2-[[(1S)-3-carboxy-1-[[(1S)-2-[[(1R)-3-[2-(2-chlorophenyl)ethylamino]-2,3-diketo-1-(mercaptomethyl)propyl]amino]-1-(cyclohexylmethyl)-2-keto-ethyl]carbamoyl]propyl]amino]-2-keto-ethyl]amino]-5-keto-valeric acid
> <PUBCHEM_IUPAC_INCHI>
InChI=1S/C52H64ClN7O14S/c1-30(61)55-39(28-43(66)67)50(72)56-37(22-24-42(64)65)48(70)60-45(44(33-16-7-3-8-17-33)34-18-9-4-10-19-34)51(73)57-36(21-23-41(62)63)47(69)58-38(27-31-13-5-2-6-14-31)49(71)59-40(29-75)46(68)52(74)54-26-25-32-15-11-12-20-35(32)53/h3-4,7-12,15-20,31,36-40,44-45,75H,2,5-6,13-14,21-29H2,1H3,(H,54,74)(H,55,61)(H,56,72)(H,57,73)(H,58,69)(H,59,71)(H,60,70)(H,62,63)(H,64,65)(H,66,67)/t36-,37-,38-,39-,40-,45-/m0/s1
> <PUBCHEM_IUPAC_INCHIKEY>
QLHQDNYIJAVTCB-VUKWIJDPSA-N
> <PUBCHEM_XLOGP3_AA>
4.3
> <PUBCHEM_EXACT_MASS>
1077.3920486
> <PUBCHEM_MOLECULAR_FORMULA>
C52H64ClN7O14S
> <PUBCHEM_MOLECULAR_WEIGHT>
1078.6
> <PUBCHEM_OPENEYE_CAN_SMILES>
CC(=O)NC(CC(=O)O)C(=O)NC(CCC(=O)O)C(=O)NC(C(C1=CC=CC=C1)C2=CC=CC=C2)C(=O)NC(CCC(=O)O)C(=O)NC(CC3CCCCC3)C(=O)NC(CS)C(=O)C(=O)NCCC4=CC=CC=C4Cl
> <PUBCHEM_OPENEYE_ISO_SMILES>
CC(=O)N[C@@H](CC(=O)O)C(=O)N[C@@H](CCC(=O)O)C(=O)N[C@@H](C(C1=CC=CC=C1)C2=CC=CC=C2)C(=O)N[C@@H](CCC(=O)O)C(=O)N[C@@H](CC3CCCCC3)C(=O)N[C@@H](CS)C(=O)C(=O)NCCC4=CC=CC=C4Cl
> <PUBCHEM_CACTVS_TPSA>
334
> <PUBCHEM_MONOISOTOPIC_WEIGHT>
1077.3920486
> <PUBCHEM_TOTAL_CHARGE>
0
> <PUBCHEM_HEAVY_ATOM_COUNT>
75
> <PUBCHEM_ATOM_DEF_STEREO_COUNT>
6
> <PUBCHEM_ATOM_UDEF_STEREO_COUNT>
0
> <PUBCHEM_BOND_DEF_STEREO_COUNT>
0
> <PUBCHEM_BOND_UDEF_STEREO_COUNT>
0
> <PUBCHEM_ISOTOPIC_ATOM_COUNT>
0
> <PUBCHEM_COMPONENT_COUNT>
1
> <PUBCHEM_CACTVS_TAUTO_COUNT>
-1
> <PUBCHEM_COORDINATE_TYPE>
1
5
255
> <PUBCHEM_BONDANNOTATIONS>
31  17  6
35  18  6
34  19  5
37  20  6
48  22  6
63  23  5
43  49  8
43  51  8
44  50  8
44  52  8
49  54  8
50  55  8
51  56  8
52  57  8
54  60  8
55  61  8
56  60  8
57  61  8
67  70  8
67  71  8
70  73  8
71  74  8
73  75  8
74  75  8
$$$$
