503492
  -OEChem-10302200282D
 87 87  0     1  0  0  0  0  0999 V2000
    2.0000    4.2500    0.0000 Cl  0  0  0  0  0  0  0  0  0  0  0  0
    4.5981   -1.2500    0.0000 S   0  0  0  0  0  0  0  0  0  0  0  0
    5.4641   -1.7500    0.0000 O   0  0  0  0  0  0  0  0  0  0  0  0
    5.4641   -2.7500    0.0000 O   0  0  0  0  0  0  0  0  0  0  0  0
    4.5981   -6.2500    0.0000 O   0  0  0  0  0  0  0  0  0  0  0  0
    6.3301    1.7500    0.0000 O   0  0  0  0  0  0  0  0  0  0  0  0
    8.0622   -7.2500    0.0000 O   0  0  0  0  0  0  0  0  0  0  0  0
    6.3301   -6.2500    0.0000 O   0  0  0  0  0  0  0  0  0  0  0  0
    8.9282   -5.7500    0.0000 O   0  0  0  0  0  0  0  0  0  0  0  0
    4.5981    7.7500    0.0000 O   0  0  0  0  0  0  0  0  0  0  0  0
    2.8660    7.7500    0.0000 O   0  0  0  0  0  0  0  0  0  0  0  0
    7.1962   -2.7500    0.0000 N   0  0  0  0  0  0  0  0  0  0  0  0
    6.3301   -0.2500    0.0000 N   0  0  0  0  0  0  0  0  0  0  0  0
    5.4641   -4.7500    0.0000 N   0  0  0  0  0  0  0  0  0  0  0  0
    4.5981    1.7500    0.0000 N   0  0  0  0  0  0  0  0  0  0  0  0
    8.0622   -1.2500    0.0000 C   0  0  0  0  0  0  0  0  0  0  0  0
    7.1962   -1.7500    0.0000 C   0  0  1  0  0  0  0  0  0  0  0  0
    8.9282   -1.7500    0.0000 C   0  0  0  0  0  0  0  0  0  0  0  0
    6.3301   -1.2500    0.0000 C   0  0  0  0  0  0  0  0  0  0  0  0
    6.3301   -4.2500    0.0000 C   0  0  2  0  0  0  0  0  0  0  0  0
    9.7942   -1.2500    0.0000 C   0  0  0  0  0  0  0  0  0  0  0  0
    8.9282   -2.7500    0.0000 C   0  0  0  0  0  0  0  0  0  0  0  0
    6.3301   -3.2500    0.0000 C   0  0  0  0  0  0  0  0  0  0  0  0
    7.1962   -4.7500    0.0000 C   0  0  0  0  0  0  0  0  0  0  0  0
    5.4641    0.2500    0.0000 C   0  0  1  0  0  0  0  0  0  0  0  0
    7.1962   -5.7500    0.0000 C   0  0  0  0  0  0  0  0  0  0  0  0
    4.5981   -0.2500    0.0000 C   0  0  0  0  0  0  0  0  0  0  0  0
    5.4641    1.2500    0.0000 C   0  0  0  0  0  0  0  0  0  0  0  0
    5.4641   -5.7500    0.0000 C   0  0  0  0  0  0  0  0  0  0  0  0
    4.5981    2.7500    0.0000 C   0  0  0  0  0  0  0  0  0  0  0  0
    8.0622   -6.2500    0.0000 C   0  0  0  0  0  0  0  0  0  0  0  0
    3.7320    3.2500    0.0000 C   0  0  0  0  0  0  0  0  0  0  0  0
    3.7320   -7.7500    0.0000 C   0  0  0  0  0  0  0  0  0  0  0  0
    4.5981   -7.2500    0.0000 C   0  0  0  0  0  0  0  0  0  0  0  0
    3.7320    4.2500    0.0000 C   0  0  0  0  0  0  0  0  0  0  0  0
    3.7320   -8.7500    0.0000 C   0  0  0  0  0  0  0  0  0  0  0  0
    2.8660   -7.2500    0.0000 C   0  0  0  0  0  0  0  0  0  0  0  0
    2.8660    4.7500    0.0000 C   0  0  0  0  0  0  0  0  0  0  0  0
    4.5981    4.7500    0.0000 C   0  0  0  0  0  0  0  0  0  0  0  0
    2.8660    5.7500    0.0000 C   0  0  0  0  0  0  0  0  0  0  0  0
    4.5981    5.7500    0.0000 C   0  0  0  0  0  0  0  0  0  0  0  0
    3.7320    6.2500    0.0000 C   0  0  0  0  0  0  0  0  0  0  0  0
    3.7320    7.2500    0.0000 C   0  0  0  0  0  0  0  0  0  0  0  0
    4.5981    8.7500    0.0000 C   0  0  0  0  0  0  0  0  0  0  0  0
    8.4607   -0.7751    0.0000 H   0  0  0  0  0  0  0  0  0  0  0  0
    7.6636   -0.7751    0.0000 H   0  0  0  0  0  0  0  0  0  0  0  0
    6.6592   -2.0600    0.0000 H   0  0  0  0  0  0  0  0  0  0  0  0
    9.4651   -2.0600    0.0000 H   0  0  0  0  0  0  0  0  0  0  0  0
    7.7331   -3.0600    0.0000 H   0  0  0  0  0  0  0  0  0  0  0  0
    5.7932   -3.9400    0.0000 H   0  0  0  0  0  0  0  0  0  0  0  0
   10.1042   -1.7869    0.0000 H   0  0  0  0  0  0  0  0  0  0  0  0
   10.3312   -0.9400    0.0000 H   0  0  0  0  0  0  0  0  0  0  0  0
    9.4842   -0.7131    0.0000 H   0  0  0  0  0  0  0  0  0  0  0  0
    8.3082   -2.7500    0.0000 H   0  0  0  0  0  0  0  0  0  0  0  0
    8.9282   -3.3700    0.0000 H   0  0  0  0  0  0  0  0  0  0  0  0
    9.5482   -2.7500    0.0000 H   0  0  0  0  0  0  0  0  0  0  0  0
    7.8067   -4.8577    0.0000 H   0  0  0  0  0  0  0  0  0  0  0  0
    7.4082   -4.1674    0.0000 H   0  0  0  0  0  0  0  0  0  0  0  0
    6.8671    0.0600    0.0000 H   0  0  0  0  0  0  0  0  0  0  0  0
    5.4641   -0.3700    0.0000 H   0  0  0  0  0  0  0  0  0  0  0  0
    4.9272   -4.4400    0.0000 H   0  0  0  0  0  0  0  0  0  0  0  0
    6.5856   -5.6423    0.0000 H   0  0  0  0  0  0  0  0  0  0  0  0
    6.9841   -6.3326    0.0000 H   0  0  0  0  0  0  0  0  0  0  0  0
    4.3860    0.3326    0.0000 H   0  0  0  0  0  0  0  0  0  0  0  0
    3.9875   -0.3577    0.0000 H   0  0  0  0  0  0  0  0  0  0  0  0
    4.0611    1.4400    0.0000 H   0  0  0  0  0  0  0  0  0  0  0  0
    5.2087    2.6423    0.0000 H   0  0  0  0  0  0  0  0  0  0  0  0
    4.8101    3.3326    0.0000 H   0  0  0  0  0  0  0  0  0  0  0  0
    3.1215    3.3577    0.0000 H   0  0  0  0  0  0  0  0  0  0  0  0
    3.5200    2.6674    0.0000 H   0  0  0  0  0  0  0  0  0  0  0  0
    3.7320   -7.1300    0.0000 H   0  0  0  0  0  0  0  0  0  0  0  0
    4.8101   -7.8326    0.0000 H   0  0  0  0  0  0  0  0  0  0  0  0
    5.2087   -7.1423    0.0000 H   0  0  0  0  0  0  0  0  0  0  0  0
    4.0611   -1.5600    0.0000 H   0  0  0  0  0  0  0  0  0  0  0  0
    3.1120   -8.7500    0.0000 H   0  0  0  0  0  0  0  0  0  0  0  0
    3.7320   -9.3700    0.0000 H   0  0  0  0  0  0  0  0  0  0  0  0
    4.3520   -8.7500    0.0000 H   0  0  0  0  0  0  0  0  0  0  0  0
    3.1760   -6.7131    0.0000 H   0  0  0  0  0  0  0  0  0  0  0  0
    2.3291   -6.9400    0.0000 H   0  0  0  0  0  0  0  0  0  0  0  0
    2.5560   -7.7869    0.0000 H   0  0  0  0  0  0  0  0  0  0  0  0
    5.1350    4.4400    0.0000 H   0  0  0  0  0  0  0  0  0  0  0  0
    8.5991   -7.5600    0.0000 H   0  0  0  0  0  0  0  0  0  0  0  0
    2.3291    6.0600    0.0000 H   0  0  0  0  0  0  0  0  0  0  0  0
    5.1350    6.0600    0.0000 H   0  0  0  0  0  0  0  0  0  0  0  0
    5.2181    8.7500    0.0000 H   0  0  0  0  0  0  0  0  0  0  0  0
    4.5981    9.3700    0.0000 H   0  0  0  0  0  0  0  0  0  0  0  0
    3.9781    8.7500    0.0000 H   0  0  0  0  0  0  0  0  0  0  0  0
  1 38  1  0  0  0  0
  2 27  1  0  0  0  0
  2 74  1  0  0  0  0
  3 19  2  0  0  0  0
  4 23  2  0  0  0  0
  5 29  1  0  0  0  0
  5 34  1  0  0  0  0
  6 28  2  0  0  0  0
  7 31  1  0  0  0  0
  7 82  1  0  0  0  0
  8 29  2  0  0  0  0
  9 31  2  0  0  0  0
 10 43  1  0  0  0  0
 10 44  1  0  0  0  0
 11 43  2  0  0  0  0
 17 12  1  6  0  0  0
 12 23  1  0  0  0  0
 12 49  1  0  0  0  0
 13 19  1  0  0  0  0
 25 13  1  1  0  0  0
 13 59  1  0  0  0  0
 20 14  1  6  0  0  0
 14 29  1  0  0  0  0
 14 61  1  0  0  0  0
 15 28  1  0  0  0  0
 15 30  1  0  0  0  0
 15 66  1  0  0  0  0
 16 17  1  0  0  0  0
 16 18  1  0  0  0  0
 16 45  1  0  0  0  0
 16 46  1  0  0  0  0
 17 19  1  0  0  0  0
 17 47  1  0  0  0  0
 18 21  1  0  0  0  0
 18 22  1  0  0  0  0
 18 48  1  0  0  0  0
 20 23  1  0  0  0  0
 20 24  1  0  0  0  0
 20 50  1  0  0  0  0
 21 51  1  0  0  0  0
 21 52  1  0  0  0  0
 21 53  1  0  0  0  0
 22 54  1  0  0  0  0
 22 55  1  0  0  0  0
 22 56  1  0  0  0  0
 24 26  1  0  0  0  0
 24 57  1  0  0  0  0
 24 58  1  0  0  0  0
 25 27  1  0  0  0  0
 25 28  1  0  0  0  0
 25 60  1  0  0  0  0
 26 31  1  0  0  0  0
 26 62  1  0  0  0  0
 26 63  1  0  0  0  0
 27 64  1  0  0  0  0
 27 65  1  0  0  0  0
 30 32  1  0  0  0  0
 30 67  1  0  0  0  0
 30 68  1  0  0  0  0
 32 35  1  0  0  0  0
 32 69  1  0  0  0  0
 32 70  1  0  0  0  0
 33 34  1  0  0  0  0
 33 36  1  0  0  0  0
 33 37  1  0  0  0  0
 33 71  1  0  0  0  0
 34 72  1  0  0  0  0
 34 73  1  0  0  0  0
 35 38  2  0  0  0  0
 35 39  1  0  0  0  0
 36 75  1  0  0  0  0
 36 76  1  0  0  0  0
 36 77  1  0  0  0  0
 37 78  1  0  0  0  0
 37 79  1  0  0  0  0
 37 80  1  0  0  0  0
 38 40  1  0  0  0  0
 39 41  2  0  0  0  0
 39 81  1  0  0  0  0
 40 42  2  0  0  0  0
 40 83  1  0  0  0  0
 41 42  1  0  0  0  0
 41 84  1  0  0  0  0
 42 43  1  0  0  0  0
 44 85  1  0  0  0  0
 44 86  1  0  0  0  0
 44 87  1  0  0  0  0
M  END
> <PUBCHEM_COMPOUND_CID>
503492
> <PUBCHEM_COMPOUND_CANONICALIZED>
1
> <PUBCHEM_CACTVS_COMPLEXITY>
985
> <PUBCHEM_CACTVS_HBOND_ACCEPTOR>
10
> <PUBCHEM_CACTVS_HBOND_DONOR>
6
> <PUBCHEM_CACTVS_ROTATABLE_BOND>
20
> <PUBCHEM_CACTVS_SUBSKEYS>
AAADcfB7vABEAAAAAAAAAAAAAAAAAAAAAAAwAAAAAAAAAAABAAAAHgYQCAAADSrl2CayCILABgSIAiHSGAACAAAkBQAIiIGICskIZjKBtzmccQAk1gGIqYe83/KOQAAAIAABAACAAABAAAIAAAAAAAAAAA==
> <PUBCHEM_IUPAC_OPENEYE_NAME>
(4S)-5-[[(1S)-1-[[(1R)-2-[2-(2-chloro-4-methoxycarbonyl-phenyl)ethylamino]-2-oxo-1-(sulfanylmethyl)ethyl]carbamoyl]-3-methyl-butyl]amino]-4-(isobutoxycarbonylamino)-5-oxo-pentanoic acid
> <PUBCHEM_IUPAC_CAS_NAME>
(4S)-5-[[(2S)-1-[[(2R)-1-[2-(2-chloro-4-methoxycarbonylphenyl)ethylamino]-3-mercapto-1-oxopropan-2-yl]amino]-4-methyl-1-oxopentan-2-yl]amino]-4-[[2-methylpropoxy(oxo)methyl]amino]-5-oxopentanoic acid
> <PUBCHEM_IUPAC_NAME_MARKUP>
(4<I>S</I>)-5-[[(2<I>S</I>)-1-[[(2<I>R</I>)-1-[2-(2-chloro-4-methoxycarbonylphenyl)ethylamino]-1-oxo-3-sulfanylpropan-2-yl]amino]-4-methyl-1-oxopentan-2-yl]amino]-4-(2-methylpropoxycarbonylamino)-5-oxopentanoic acid
> <PUBCHEM_IUPAC_NAME>
(4S)-5-[[(2S)-1-[[(2R)-1-[2-(2-chloro-4-methoxycarbonylphenyl)ethylamino]-1-oxo-3-sulfanylpropan-2-yl]amino]-4-methyl-1-oxopentan-2-yl]amino]-4-(2-methylpropoxycarbonylamino)-5-oxopentanoic acid
> <PUBCHEM_IUPAC_SYSTEMATIC_NAME>
(4S)-5-[[(2S)-1-[[(2R)-1-[2-(2-chloranyl-4-methoxycarbonyl-phenyl)ethylamino]-1-oxidanylidene-3-sulfanyl-propan-2-yl]amino]-4-methyl-1-oxidanylidene-pentan-2-yl]amino]-4-(2-methylpropoxycarbonylamino)-5-oxidanylidene-pentanoic acid
> <PUBCHEM_IUPAC_TRADITIONAL_NAME>
(4S)-5-[[(1S)-1-[[(1R)-2-[2-(4-carbomethoxy-2-chloro-phenyl)ethylamino]-2-keto-1-(mercaptomethyl)ethyl]carbamoyl]-3-methyl-butyl]amino]-4-(isobutoxycarbonylamino)-5-keto-valeric acid
> <PUBCHEM_IUPAC_INCHI>
InChI=1S/C29H43ClN4O9S/c1-16(2)12-22(32-26(38)21(8-9-24(35)36)34-29(41)43-14-17(3)4)27(39)33-23(15-44)25(37)31-11-10-18-6-7-19(13-20(18)30)28(40)42-5/h6-7,13,16-17,21-23,44H,8-12,14-15H2,1-5H3,(H,31,37)(H,32,38)(H,33,39)(H,34,41)(H,35,36)/t21-,22-,23-/m0/s1
> <PUBCHEM_IUPAC_INCHIKEY>
OAZXWBLENZSFCH-VABKMULXSA-N
> <PUBCHEM_XLOGP3_AA>
3.7
> <PUBCHEM_EXACT_MASS>
658.2439278
> <PUBCHEM_MOLECULAR_FORMULA>
C29H43ClN4O9S
> <PUBCHEM_MOLECULAR_WEIGHT>
659.2
> <PUBCHEM_OPENEYE_CAN_SMILES>
CC(C)CC(C(=O)NC(CS)C(=O)NCCC1=C(C=C(C=C1)C(=O)OC)Cl)NC(=O)C(CCC(=O)O)NC(=O)OCC(C)C
> <PUBCHEM_OPENEYE_ISO_SMILES>
CC(C)C[C@@H](C(=O)N[C@@H](CS)C(=O)NCCC1=C(C=C(C=C1)C(=O)OC)Cl)NC(=O)[C@H](CCC(=O)O)NC(=O)OCC(C)C
> <PUBCHEM_CACTVS_TPSA>
190
> <PUBCHEM_MONOISOTOPIC_WEIGHT>
658.2439278
> <PUBCHEM_TOTAL_CHARGE>
0
> <PUBCHEM_HEAVY_ATOM_COUNT>
44
> <PUBCHEM_ATOM_DEF_STEREO_COUNT>
3
> <PUBCHEM_ATOM_UDEF_STEREO_COUNT>
0
> <PUBCHEM_BOND_DEF_STEREO_COUNT>
0
> <PUBCHEM_BOND_UDEF_STEREO_COUNT>
0
> <PUBCHEM_ISOTOPIC_ATOM_COUNT>
0
> <PUBCHEM_COMPONENT_COUNT>
1
> <PUBCHEM_CACTVS_TAUTO_COUNT>
-1
> <PUBCHEM_COORDINATE_TYPE>
1
5
255
> <PUBCHEM_BONDANNOTATIONS>
17  12  6
25  13  5
20  14  6
35  38  8
35  39  8
38  40  8
39  41  8
40  42  8
41  42  8
$$$$
