503488
  -OEChem-10302200282D
 81 81  0     1  0  0  0  0  0999 V2000
    3.7320    0.0000    0.0000 S   0  0  0  0  0  0  0  0  0  0  0  0
    4.5981    0.5000    0.0000 O   0  0  0  0  0  0  0  0  0  0  0  0
    4.5981    1.5000    0.0000 O   0  0  0  0  0  0  0  0  0  0  0  0
    3.7320    5.0000    0.0000 O   0  0  0  0  0  0  0  0  0  0  0  0
    5.4641   -3.0000    0.0000 O   0  0  0  0  0  0  0  0  0  0  0  0
    7.1962    6.0000    0.0000 O   0  0  0  0  0  0  0  0  0  0  0  0
    5.4641    5.0000    0.0000 O   0  0  0  0  0  0  0  0  0  0  0  0
    8.0622    4.5000    0.0000 O   0  0  0  0  0  0  0  0  0  0  0  0
    6.3301    1.5000    0.0000 N   0  0  0  0  0  0  0  0  0  0  0  0
    5.4641   -1.0000    0.0000 N   0  0  0  0  0  0  0  0  0  0  0  0
    4.5981    3.5000    0.0000 N   0  0  0  0  0  0  0  0  0  0  0  0
    3.7320   -3.0000    0.0000 N   0  0  0  0  0  0  0  0  0  0  0  0
    7.1962    0.0000    0.0000 C   0  0  0  0  0  0  0  0  0  0  0  0
    6.3301    0.5000    0.0000 C   0  0  1  0  0  0  0  0  0  0  0  0
    8.0622    0.5000    0.0000 C   0  0  0  0  0  0  0  0  0  0  0  0
    5.4641    0.0000    0.0000 C   0  0  0  0  0  0  0  0  0  0  0  0
    5.4641    3.0000    0.0000 C   0  0  2  0  0  0  0  0  0  0  0  0
    8.9282    0.0000    0.0000 C   0  0  0  0  0  0  0  0  0  0  0  0
    8.0622    1.5000    0.0000 C   0  0  0  0  0  0  0  0  0  0  0  0
    5.4641    2.0000    0.0000 C   0  0  0  0  0  0  0  0  0  0  0  0
    6.3301    3.5000    0.0000 C   0  0  0  0  0  0  0  0  0  0  0  0
    4.5981   -1.5000    0.0000 C   0  0  1  0  0  0  0  0  0  0  0  0
    6.3301    4.5000    0.0000 C   0  0  0  0  0  0  0  0  0  0  0  0
    3.7320   -1.0000    0.0000 C   0  0  0  0  0  0  0  0  0  0  0  0
    4.5981   -2.5000    0.0000 C   0  0  0  0  0  0  0  0  0  0  0  0
    4.5981    4.5000    0.0000 C   0  0  0  0  0  0  0  0  0  0  0  0
    3.7320   -4.0000    0.0000 C   0  0  0  0  0  0  0  0  0  0  0  0
    7.1962    5.0000    0.0000 C   0  0  0  0  0  0  0  0  0  0  0  0
    2.8660    6.5000    0.0000 C   0  0  0  0  0  0  0  0  0  0  0  0
    2.8660   -4.5000    0.0000 C   0  0  0  0  0  0  0  0  0  0  0  0
    3.7320    6.0000    0.0000 C   0  0  0  0  0  0  0  0  0  0  0  0
    2.8660   -5.5000    0.0000 C   0  0  0  0  0  0  0  0  0  0  0  0
    2.8660    7.5000    0.0000 C   0  0  0  0  0  0  0  0  0  0  0  0
    2.0000    6.0000    0.0000 C   0  0  0  0  0  0  0  0  0  0  0  0
    3.7320   -6.0000    0.0000 C   0  0  0  0  0  0  0  0  0  0  0  0
    2.0000   -6.0000    0.0000 C   0  0  0  0  0  0  0  0  0  0  0  0
    3.7320   -7.0000    0.0000 C   0  0  0  0  0  0  0  0  0  0  0  0
    2.0000   -7.0000    0.0000 C   0  0  0  0  0  0  0  0  0  0  0  0
    2.8660   -7.5000    0.0000 C   0  0  0  0  0  0  0  0  0  0  0  0
    6.7976   -0.4749    0.0000 H   0  0  0  0  0  0  0  0  0  0  0  0
    7.5947   -0.4749    0.0000 H   0  0  0  0  0  0  0  0  0  0  0  0
    6.8671    0.8100    0.0000 H   0  0  0  0  0  0  0  0  0  0  0  0
    8.0622   -0.1200    0.0000 H   0  0  0  0  0  0  0  0  0  0  0  0
    6.8671    1.8100    0.0000 H   0  0  0  0  0  0  0  0  0  0  0  0
    5.4641    3.6200    0.0000 H   0  0  0  0  0  0  0  0  0  0  0  0
    8.6182   -0.5369    0.0000 H   0  0  0  0  0  0  0  0  0  0  0  0
    9.4651   -0.3100    0.0000 H   0  0  0  0  0  0  0  0  0  0  0  0
    9.2382    0.5369    0.0000 H   0  0  0  0  0  0  0  0  0  0  0  0
    8.6822    1.5000    0.0000 H   0  0  0  0  0  0  0  0  0  0  0  0
    8.0622    2.1200    0.0000 H   0  0  0  0  0  0  0  0  0  0  0  0
    7.4422    1.5000    0.0000 H   0  0  0  0  0  0  0  0  0  0  0  0
    6.5422    2.9174    0.0000 H   0  0  0  0  0  0  0  0  0  0  0  0
    6.9407    3.6077    0.0000 H   0  0  0  0  0  0  0  0  0  0  0  0
    6.0010   -1.3100    0.0000 H   0  0  0  0  0  0  0  0  0  0  0  0
    4.5981   -0.8800    0.0000 H   0  0  0  0  0  0  0  0  0  0  0  0
    4.0611    3.1900    0.0000 H   0  0  0  0  0  0  0  0  0  0  0  0
    6.1181    5.0826    0.0000 H   0  0  0  0  0  0  0  0  0  0  0  0
    5.7196    4.3923    0.0000 H   0  0  0  0  0  0  0  0  0  0  0  0
    3.1215   -0.8923    0.0000 H   0  0  0  0  0  0  0  0  0  0  0  0
    3.5200   -1.5826    0.0000 H   0  0  0  0  0  0  0  0  0  0  0  0
    3.1951   -2.6900    0.0000 H   0  0  0  0  0  0  0  0  0  0  0  0
    3.9441   -4.5826    0.0000 H   0  0  0  0  0  0  0  0  0  0  0  0
    4.3426   -3.8923    0.0000 H   0  0  0  0  0  0  0  0  0  0  0  0
    2.8660    5.8800    0.0000 H   0  0  0  0  0  0  0  0  0  0  0  0
    2.6540   -3.9174    0.0000 H   0  0  0  0  0  0  0  0  0  0  0  0
    2.2554   -4.6077    0.0000 H   0  0  0  0  0  0  0  0  0  0  0  0
    4.3426    5.8923    0.0000 H   0  0  0  0  0  0  0  0  0  0  0  0
    3.9441    6.5826    0.0000 H   0  0  0  0  0  0  0  0  0  0  0  0
    3.1951    0.3100    0.0000 H   0  0  0  0  0  0  0  0  0  0  0  0
    3.4860    7.5000    0.0000 H   0  0  0  0  0  0  0  0  0  0  0  0
    2.8660    8.1200    0.0000 H   0  0  0  0  0  0  0  0  0  0  0  0
    2.2460    7.5000    0.0000 H   0  0  0  0  0  0  0  0  0  0  0  0
    1.6900    6.5369    0.0000 H   0  0  0  0  0  0  0  0  0  0  0  0
    1.4631    5.6900    0.0000 H   0  0  0  0  0  0  0  0  0  0  0  0
    2.3100    5.4631    0.0000 H   0  0  0  0  0  0  0  0  0  0  0  0
    4.2690   -5.6900    0.0000 H   0  0  0  0  0  0  0  0  0  0  0  0
    1.4631   -5.6900    0.0000 H   0  0  0  0  0  0  0  0  0  0  0  0
    7.7331    6.3100    0.0000 H   0  0  0  0  0  0  0  0  0  0  0  0
    4.2690   -7.3100    0.0000 H   0  0  0  0  0  0  0  0  0  0  0  0
    1.4631   -7.3100    0.0000 H   0  0  0  0  0  0  0  0  0  0  0  0
    2.8660   -8.1200    0.0000 H   0  0  0  0  0  0  0  0  0  0  0  0
  1 24  1  0  0  0  0
  1 69  1  0  0  0  0
  2 16  2  0  0  0  0
  3 20  2  0  0  0  0
  4 26  1  0  0  0  0
  4 31  1  0  0  0  0
  5 25  2  0  0  0  0
  6 28  1  0  0  0  0
  6 78  1  0  0  0  0
  7 26  2  0  0  0  0
  8 28  2  0  0  0  0
 14  9  1  1  0  0  0
  9 20  1  0  0  0  0
  9 44  1  0  0  0  0
 10 16  1  0  0  0  0
 22 10  1  6  0  0  0
 10 54  1  0  0  0  0
 17 11  1  1  0  0  0
 11 26  1  0  0  0  0
 11 56  1  0  0  0  0
 12 25  1  0  0  0  0
 12 27  1  0  0  0  0
 12 61  1  0  0  0  0
 13 14  1  0  0  0  0
 13 15  1  0  0  0  0
 13 40  1  0  0  0  0
 13 41  1  0  0  0  0
 14 16  1  0  0  0  0
 14 42  1  0  0  0  0
 15 18  1  0  0  0  0
 15 19  1  0  0  0  0
 15 43  1  0  0  0  0
 17 20  1  0  0  0  0
 17 21  1  0  0  0  0
 17 45  1  0  0  0  0
 18 46  1  0  0  0  0
 18 47  1  0  0  0  0
 18 48  1  0  0  0  0
 19 49  1  0  0  0  0
 19 50  1  0  0  0  0
 19 51  1  0  0  0  0
 21 23  1  0  0  0  0
 21 52  1  0  0  0  0
 21 53  1  0  0  0  0
 22 24  1  0  0  0  0
 22 25  1  0  0  0  0
 22 55  1  0  0  0  0
 23 28  1  0  0  0  0
 23 57  1  0  0  0  0
 23 58  1  0  0  0  0
 24 59  1  0  0  0  0
 24 60  1  0  0  0  0
 27 30  1  0  0  0  0
 27 62  1  0  0  0  0
 27 63  1  0  0  0  0
 29 31  1  0  0  0  0
 29 33  1  0  0  0  0
 29 34  1  0  0  0  0
 29 64  1  0  0  0  0
 30 32  1  0  0  0  0
 30 65  1  0  0  0  0
 30 66  1  0  0  0  0
 31 67  1  0  0  0  0
 31 68  1  0  0  0  0
 32 35  2  0  0  0  0
 32 36  1  0  0  0  0
 33 70  1  0  0  0  0
 33 71  1  0  0  0  0
 33 72  1  0  0  0  0
 34 73  1  0  0  0  0
 34 74  1  0  0  0  0
 34 75  1  0  0  0  0
 35 37  1  0  0  0  0
 35 76  1  0  0  0  0
 36 38  2  0  0  0  0
 36 77  1  0  0  0  0
 37 39  2  0  0  0  0
 37 79  1  0  0  0  0
 38 39  1  0  0  0  0
 38 80  1  0  0  0  0
 39 81  1  0  0  0  0
M  END
> <PUBCHEM_COMPOUND_CID>
503488
> <PUBCHEM_COMPOUND_CANONICALIZED>
1
> <PUBCHEM_CACTVS_COMPLEXITY>
803
> <PUBCHEM_CACTVS_HBOND_ACCEPTOR>
8
> <PUBCHEM_CACTVS_HBOND_DONOR>
6
> <PUBCHEM_CACTVS_ROTATABLE_BOND>
18
> <PUBCHEM_CACTVS_SUBSKEYS>
AAADcfB7uABAAAAAAAAAAAAAAAAAAAAAAAAwAAAAAAAAAAABAAAAHgQQCAAADSjl2AayCILABgSIAiHSGAACAAAgAAAIiIGIAIkIYDKAkTGcYAAklgCIiAe8l4IOAAAAAAAAAAAAAAAAAAAAAAAAAAAAAA==
> <PUBCHEM_IUPAC_OPENEYE_NAME>
(4S)-4-(isobutoxycarbonylamino)-5-[[(1S)-3-methyl-1-[[(1R)-2-oxo-2-(2-phenylethylamino)-1-(sulfanylmethyl)ethyl]carbamoyl]butyl]amino]-5-oxo-pentanoic acid
> <PUBCHEM_IUPAC_CAS_NAME>
(4S)-5-[[(2S)-1-[[(2R)-3-mercapto-1-oxo-1-(2-phenylethylamino)propan-2-yl]amino]-4-methyl-1-oxopentan-2-yl]amino]-4-[[2-methylpropoxy(oxo)methyl]amino]-5-oxopentanoic acid
> <PUBCHEM_IUPAC_NAME_MARKUP>
(4<I>S</I>)-5-[[(2<I>S</I>)-4-methyl-1-oxo-1-[[(2<I>R</I>)-1-oxo-1-(2-phenylethylamino)-3-sulfanylpropan-2-yl]amino]pentan-2-yl]amino]-4-(2-methylpropoxycarbonylamino)-5-oxopentanoic acid
> <PUBCHEM_IUPAC_NAME>
(4S)-5-[[(2S)-4-methyl-1-oxo-1-[[(2R)-1-oxo-1-(2-phenylethylamino)-3-sulfanylpropan-2-yl]amino]pentan-2-yl]amino]-4-(2-methylpropoxycarbonylamino)-5-oxopentanoic acid
> <PUBCHEM_IUPAC_SYSTEMATIC_NAME>
(4S)-5-[[(2S)-4-methyl-1-oxidanylidene-1-[[(2R)-1-oxidanylidene-1-(2-phenylethylamino)-3-sulfanyl-propan-2-yl]amino]pentan-2-yl]amino]-4-(2-methylpropoxycarbonylamino)-5-oxidanylidene-pentanoic acid
> <PUBCHEM_IUPAC_TRADITIONAL_NAME>
(4S)-4-(isobutoxycarbonylamino)-5-keto-5-[[(1S)-1-[[(1R)-2-keto-1-(mercaptomethyl)-2-(phenethylamino)ethyl]carbamoyl]-3-methyl-butyl]amino]valeric acid
> <PUBCHEM_IUPAC_INCHI>
InChI=1S/C27H42N4O7S/c1-17(2)14-21(29-25(35)20(10-11-23(32)33)31-27(37)38-15-18(3)4)26(36)30-22(16-39)24(34)28-13-12-19-8-6-5-7-9-19/h5-9,17-18,20-22,39H,10-16H2,1-4H3,(H,28,34)(H,29,35)(H,30,36)(H,31,37)(H,32,33)/t20-,21-,22-/m0/s1
> <PUBCHEM_IUPAC_INCHIKEY>
HZODIBVAIXKMAU-FKBYEOEOSA-N
> <PUBCHEM_XLOGP3_AA>
3.2
> <PUBCHEM_EXACT_MASS>
566.27742087
> <PUBCHEM_MOLECULAR_FORMULA>
C27H42N4O7S
> <PUBCHEM_MOLECULAR_WEIGHT>
566.7
> <PUBCHEM_OPENEYE_CAN_SMILES>
CC(C)CC(C(=O)NC(CS)C(=O)NCCC1=CC=CC=C1)NC(=O)C(CCC(=O)O)NC(=O)OCC(C)C
> <PUBCHEM_OPENEYE_ISO_SMILES>
CC(C)C[C@@H](C(=O)N[C@@H](CS)C(=O)NCCC1=CC=CC=C1)NC(=O)[C@H](CCC(=O)O)NC(=O)OCC(C)C
> <PUBCHEM_CACTVS_TPSA>
164
> <PUBCHEM_MONOISOTOPIC_WEIGHT>
566.27742087
> <PUBCHEM_TOTAL_CHARGE>
0
> <PUBCHEM_HEAVY_ATOM_COUNT>
39
> <PUBCHEM_ATOM_DEF_STEREO_COUNT>
3
> <PUBCHEM_ATOM_UDEF_STEREO_COUNT>
0
> <PUBCHEM_BOND_DEF_STEREO_COUNT>
0
> <PUBCHEM_BOND_UDEF_STEREO_COUNT>
0
> <PUBCHEM_ISOTOPIC_ATOM_COUNT>
0
> <PUBCHEM_COMPONENT_COUNT>
1
> <PUBCHEM_CACTVS_TAUTO_COUNT>
-1
> <PUBCHEM_COORDINATE_TYPE>
1
5
255
> <PUBCHEM_BONDANNOTATIONS>
22  10  6
17  11  5
32  35  8
32  36  8
35  37  8
36  38  8
37  39  8
38  39  8
14  9  5
$$$$
