503452
  -OEChem-10302200282D
 51 54  0     1  0  0  0  0  0999 V2000
    8.9030   -3.5935    0.0000 Cl  0  0  0  0  0  0  0  0  0  0  0  0
    4.6783   -1.8181    0.0000 N   0  0  0  0  0  0  0  0  0  0  0  0
    5.9674    0.9481    0.0000 N   0  0  0  0  0  0  0  0  0  0  0  0
    7.5763    0.7762    0.0000 N   0  0  0  0  0  0  0  0  0  0  0  0
    4.9889    0.7419    0.0000 C   0  0  3  0  0  0  0  0  0  0  0  0
    4.6783   -0.2086    0.0000 C   0  0  0  0  0  0  0  0  0  0  0  0
    4.3211    1.4862    0.0000 C   0  0  0  0  0  0  0  0  0  0  0  0
    3.7320   -0.5133    0.0000 C   0  0  0  0  0  0  0  0  0  0  0  0
    3.7320   -1.5133    0.0000 C   0  0  0  0  0  0  0  0  0  0  0  0
    4.6318    2.4367    0.0000 C   0  0  0  0  0  0  0  0  0  0  0  0
    5.2619   -1.0133    0.0000 C   0  0  0  0  0  0  0  0  0  0  0  0
    4.9889   -2.7686    0.0000 C   0  0  0  0  0  0  0  0  0  0  0  0
    3.9639    3.1810    0.0000 C   0  0  0  0  0  0  0  0  0  0  0  0
    2.8660   -0.0133    0.0000 C   0  0  0  0  0  0  0  0  0  0  0  0
    2.8660   -2.0133    0.0000 C   0  0  0  0  0  0  0  0  0  0  0  0
    6.3758    1.8610    0.0000 C   0  0  0  0  0  0  0  0  0  0  0  0
    6.7094    0.2777    0.0000 C   0  0  0  0  0  0  0  0  0  0  0  0
    5.9674   -2.9748    0.0000 C   0  0  0  0  0  0  0  0  0  0  0  0
    2.0000   -0.5133    0.0000 C   0  0  0  0  0  0  0  0  0  0  0  0
    2.0000   -1.5133    0.0000 C   0  0  0  0  0  0  0  0  0  0  0  0
    4.2746    4.1316    0.0000 C   0  0  0  0  0  0  0  0  0  0  0  0
    7.3701    1.7547    0.0000 C   0  0  0  0  0  0  0  0  0  0  0  0
    6.2781   -3.9253    0.0000 C   0  0  0  0  0  0  0  0  0  0  0  0
    6.6353   -2.2305    0.0000 C   0  0  0  0  0  0  0  0  0  0  0  0
    7.2566   -4.1316    0.0000 C   0  0  0  0  0  0  0  0  0  0  0  0
    7.6138   -2.4367    0.0000 C   0  0  0  0  0  0  0  0  0  0  0  0
    7.9244   -3.3872    0.0000 C   0  0  0  0  0  0  0  0  0  0  0  0
    5.1815    1.3312    0.0000 H   0  0  0  0  0  0  0  0  0  0  0  0
    3.7742    1.7782    0.0000 H   0  0  0  0  0  0  0  0  0  0  0  0
    3.9385    0.9983    0.0000 H   0  0  0  0  0  0  0  0  0  0  0  0
    5.1787    2.1447    0.0000 H   0  0  0  0  0  0  0  0  0  0  0  0
    5.0143    2.9246    0.0000 H   0  0  0  0  0  0  0  0  0  0  0  0
    5.8819   -1.0133    0.0000 H   0  0  0  0  0  0  0  0  0  0  0  0
    4.3751   -2.8560    0.0000 H   0  0  0  0  0  0  0  0  0  0  0  0
    4.9684   -3.3882    0.0000 H   0  0  0  0  0  0  0  0  0  0  0  0
    3.4170    3.4730    0.0000 H   0  0  0  0  0  0  0  0  0  0  0  0
    3.5814    2.6931    0.0000 H   0  0  0  0  0  0  0  0  0  0  0  0
    2.8660    0.6067    0.0000 H   0  0  0  0  0  0  0  0  0  0  0  0
    2.8660   -2.6333    0.0000 H   0  0  0  0  0  0  0  0  0  0  0  0
    6.0667    2.3984    0.0000 H   0  0  0  0  0  0  0  0  0  0  0  0
    6.6436   -0.3388    0.0000 H   0  0  0  0  0  0  0  0  0  0  0  0
    1.4631   -0.2033    0.0000 H   0  0  0  0  0  0  0  0  0  0  0  0
    1.4631   -1.8233    0.0000 H   0  0  0  0  0  0  0  0  0  0  0  0
    4.8639    3.9389    0.0000 H   0  0  0  0  0  0  0  0  0  0  0  0
    4.4672    4.7209    0.0000 H   0  0  0  0  0  0  0  0  0  0  0  0
    3.6852    4.3242    0.0000 H   0  0  0  0  0  0  0  0  0  0  0  0
    7.7858    2.2148    0.0000 H   0  0  0  0  0  0  0  0  0  0  0  0
    5.8640   -4.3868    0.0000 H   0  0  0  0  0  0  0  0  0  0  0  0
    6.4427   -1.6412    0.0000 H   0  0  0  0  0  0  0  0  0  0  0  0
    7.4492   -4.7209    0.0000 H   0  0  0  0  0  0  0  0  0  0  0  0
    8.0279   -1.9753    0.0000 H   0  0  0  0  0  0  0  0  0  0  0  0
  1 27  1  0  0  0  0
  2  9  1  0  0  0  0
  2 11  1  0  0  0  0
  2 12  1  0  0  0  0
  3  5  1  0  0  0  0
  3 16  1  0  0  0  0
  3 17  1  0  0  0  0
  4 17  2  0  0  0  0
  4 22  1  0  0  0  0
  5  6  1  0  0  0  0
  5  7  1  0  0  0  0
  5 28  1  0  0  0  0
  6  8  1  0  0  0  0
  6 11  2  0  0  0  0
  7 10  1  0  0  0  0
  7 29  1  0  0  0  0
  7 30  1  0  0  0  0
  8  9  1  0  0  0  0
  8 14  2  0  0  0  0
  9 15  2  0  0  0  0
 10 13  1  0  0  0  0
 10 31  1  0  0  0  0
 10 32  1  0  0  0  0
 11 33  1  0  0  0  0
 12 18  1  0  0  0  0
 12 34  1  0  0  0  0
 12 35  1  0  0  0  0
 13 21  1  0  0  0  0
 13 36  1  0  0  0  0
 13 37  1  0  0  0  0
 14 19  1  0  0  0  0
 14 38  1  0  0  0  0
 15 20  1  0  0  0  0
 15 39  1  0  0  0  0
 16 22  2  0  0  0  0
 16 40  1  0  0  0  0
 17 41  1  0  0  0  0
 18 23  2  0  0  0  0
 18 24  1  0  0  0  0
 19 20  2  0  0  0  0
 19 42  1  0  0  0  0
 20 43  1  0  0  0  0
 21 44  1  0  0  0  0
 21 45  1  0  0  0  0
 21 46  1  0  0  0  0
 22 47  1  0  0  0  0
 23 25  1  0  0  0  0
 23 48  1  0  0  0  0
 24 26  2  0  0  0  0
 24 49  1  0  0  0  0
 25 27  2  0  0  0  0
 25 50  1  0  0  0  0
 26 27  1  0  0  0  0
 26 51  1  0  0  0  0
M  END
> <PUBCHEM_COMPOUND_CID>
503452
> <PUBCHEM_COMPOUND_CANONICALIZED>
1
> <PUBCHEM_CACTVS_COMPLEXITY>
451
> <PUBCHEM_CACTVS_HBOND_ACCEPTOR>
1
> <PUBCHEM_CACTVS_HBOND_DONOR>
0
> <PUBCHEM_CACTVS_ROTATABLE_BOND>
7
> <PUBCHEM_CACTVS_SUBSKEYS>
AAADceB7AAAEAAAAAAAAAAAAAAAAAWLAAAAwYAAAAAAAAFgB/AAAHAIAAAAADCrBHiQ/0PcMEACgAzRnZACCgC0xF6AJ2CA4dpiIaOLB25GUIAhogALIyCcQgMAOhAAAAAACAAAIAAAAAAQAAAAAAAAAAA==
> <PUBCHEM_IUPAC_OPENEYE_NAME>
1-[(4-chlorophenyl)methyl]-3-(1-imidazol-1-ylpentyl)indole
> <PUBCHEM_IUPAC_CAS_NAME>
1-[(4-chlorophenyl)methyl]-3-[1-(1-imidazolyl)pentyl]indole
> <PUBCHEM_IUPAC_NAME_MARKUP>
1-[(4-chlorophenyl)methyl]-3-(1-imidazol-1-ylpentyl)indole
> <PUBCHEM_IUPAC_NAME>
1-[(4-chlorophenyl)methyl]-3-(1-imidazol-1-ylpentyl)indole
> <PUBCHEM_IUPAC_SYSTEMATIC_NAME>
1-[(4-chlorophenyl)methyl]-3-(1-imidazol-1-ylpentyl)indole
> <PUBCHEM_IUPAC_TRADITIONAL_NAME>
1-(4-chlorobenzyl)-3-(1-imidazol-1-ylpentyl)indole
> <PUBCHEM_IUPAC_INCHI>
InChI=1S/C23H24ClN3/c1-2-3-7-23(26-14-13-25-17-26)21-16-27(22-8-5-4-6-20(21)22)15-18-9-11-19(24)12-10-18/h4-6,8-14,16-17,23H,2-3,7,15H2,1H3
> <PUBCHEM_IUPAC_INCHIKEY>
GZUZXOSBCBLQDH-UHFFFAOYSA-N
> <PUBCHEM_XLOGP3_AA>
5.7
> <PUBCHEM_EXACT_MASS>
377.1658755
> <PUBCHEM_MOLECULAR_FORMULA>
C23H24ClN3
> <PUBCHEM_MOLECULAR_WEIGHT>
377.9
> <PUBCHEM_OPENEYE_CAN_SMILES>
CCCCC(C1=CN(C2=CC=CC=C21)CC3=CC=C(C=C3)Cl)N4C=CN=C4
> <PUBCHEM_OPENEYE_ISO_SMILES>
CCCCC(C1=CN(C2=CC=CC=C21)CC3=CC=C(C=C3)Cl)N4C=CN=C4
> <PUBCHEM_CACTVS_TPSA>
22.8
> <PUBCHEM_MONOISOTOPIC_WEIGHT>
377.1658755
> <PUBCHEM_TOTAL_CHARGE>
0
> <PUBCHEM_HEAVY_ATOM_COUNT>
27
> <PUBCHEM_ATOM_DEF_STEREO_COUNT>
0
> <PUBCHEM_ATOM_UDEF_STEREO_COUNT>
1
> <PUBCHEM_BOND_DEF_STEREO_COUNT>
0
> <PUBCHEM_BOND_UDEF_STEREO_COUNT>
0
> <PUBCHEM_ISOTOPIC_ATOM_COUNT>
0
> <PUBCHEM_COMPONENT_COUNT>
1
> <PUBCHEM_CACTVS_TAUTO_COUNT>
-1
> <PUBCHEM_COORDINATE_TYPE>
1
5
255
> <PUBCHEM_BONDANNOTATIONS>
14  19  8
15  20  8
16  22  8
18  23  8
18  24  8
19  20  8
2  11  8
2  9  8
23  25  8
24  26  8
25  27  8
26  27  8
3  16  8
3  17  8
4  17  8
4  22  8
5  7  3
6  11  8
6  8  8
8  14  8
8  9  8
9  15  8
$$$$
