503449
  -OEChem-10302200282D
 48 51  0     1  0  0  0  0  0999 V2000
    8.9030   -3.1182    0.0000 Cl  0  0  0  0  0  0  0  0  0  0  0  0
    4.6783   -1.3428    0.0000 N   0  0  0  0  0  0  0  0  0  0  0  0
    5.9674    1.4234    0.0000 N   0  0  0  0  0  0  0  0  0  0  0  0
    7.5763    1.2515    0.0000 N   0  0  0  0  0  0  0  0  0  0  0  0
    4.9889    1.2172    0.0000 C   0  0  3  0  0  0  0  0  0  0  0  0
    4.6783    0.2666    0.0000 C   0  0  0  0  0  0  0  0  0  0  0  0
    4.3211    1.9615    0.0000 C   0  0  0  0  0  0  0  0  0  0  0  0
    3.7320   -0.0381    0.0000 C   0  0  0  0  0  0  0  0  0  0  0  0
    3.7320   -1.0381    0.0000 C   0  0  0  0  0  0  0  0  0  0  0  0
    5.2619   -0.5381    0.0000 C   0  0  0  0  0  0  0  0  0  0  0  0
    4.6318    2.9120    0.0000 C   0  0  0  0  0  0  0  0  0  0  0  0
    4.9889   -2.2933    0.0000 C   0  0  0  0  0  0  0  0  0  0  0  0
    2.8660    0.4619    0.0000 C   0  0  0  0  0  0  0  0  0  0  0  0
    2.8660   -1.5381    0.0000 C   0  0  0  0  0  0  0  0  0  0  0  0
    6.3758    2.3362    0.0000 C   0  0  0  0  0  0  0  0  0  0  0  0
    6.7094    0.7530    0.0000 C   0  0  0  0  0  0  0  0  0  0  0  0
    3.9639    3.6563    0.0000 C   0  0  0  0  0  0  0  0  0  0  0  0
    5.9674   -2.4996    0.0000 C   0  0  0  0  0  0  0  0  0  0  0  0
    2.0000   -0.0381    0.0000 C   0  0  0  0  0  0  0  0  0  0  0  0
    2.0000   -1.0381    0.0000 C   0  0  0  0  0  0  0  0  0  0  0  0
    7.3701    2.2300    0.0000 C   0  0  0  0  0  0  0  0  0  0  0  0
    6.2781   -3.4501    0.0000 C   0  0  0  0  0  0  0  0  0  0  0  0
    6.6353   -1.7552    0.0000 C   0  0  0  0  0  0  0  0  0  0  0  0
    7.2566   -3.6563    0.0000 C   0  0  0  0  0  0  0  0  0  0  0  0
    7.6138   -1.9615    0.0000 C   0  0  0  0  0  0  0  0  0  0  0  0
    7.9244   -2.9120    0.0000 C   0  0  0  0  0  0  0  0  0  0  0  0
    5.1815    1.8065    0.0000 H   0  0  0  0  0  0  0  0  0  0  0  0
    3.7742    2.2535    0.0000 H   0  0  0  0  0  0  0  0  0  0  0  0
    3.9385    1.4736    0.0000 H   0  0  0  0  0  0  0  0  0  0  0  0
    5.8819   -0.5381    0.0000 H   0  0  0  0  0  0  0  0  0  0  0  0
    5.1787    2.6200    0.0000 H   0  0  0  0  0  0  0  0  0  0  0  0
    5.0143    3.3999    0.0000 H   0  0  0  0  0  0  0  0  0  0  0  0
    4.3751   -2.3807    0.0000 H   0  0  0  0  0  0  0  0  0  0  0  0
    4.9684   -2.9130    0.0000 H   0  0  0  0  0  0  0  0  0  0  0  0
    2.8660    1.0819    0.0000 H   0  0  0  0  0  0  0  0  0  0  0  0
    2.8660   -2.1581    0.0000 H   0  0  0  0  0  0  0  0  0  0  0  0
    6.0667    2.8737    0.0000 H   0  0  0  0  0  0  0  0  0  0  0  0
    6.6436    0.1365    0.0000 H   0  0  0  0  0  0  0  0  0  0  0  0
    4.4254    4.0704    0.0000 H   0  0  0  0  0  0  0  0  0  0  0  0
    3.5498    4.1178    0.0000 H   0  0  0  0  0  0  0  0  0  0  0  0
    3.5024    3.2422    0.0000 H   0  0  0  0  0  0  0  0  0  0  0  0
    1.4631    0.2719    0.0000 H   0  0  0  0  0  0  0  0  0  0  0  0
    1.4631   -1.3481    0.0000 H   0  0  0  0  0  0  0  0  0  0  0  0
    7.7858    2.6900    0.0000 H   0  0  0  0  0  0  0  0  0  0  0  0
    5.8640   -3.9115    0.0000 H   0  0  0  0  0  0  0  0  0  0  0  0
    6.4427   -1.1659    0.0000 H   0  0  0  0  0  0  0  0  0  0  0  0
    7.4492   -4.2456    0.0000 H   0  0  0  0  0  0  0  0  0  0  0  0
    8.0279   -1.5000    0.0000 H   0  0  0  0  0  0  0  0  0  0  0  0
  1 26  1  0  0  0  0
  2  9  1  0  0  0  0
  2 10  1  0  0  0  0
  2 12  1  0  0  0  0
  3  5  1  0  0  0  0
  3 15  1  0  0  0  0
  3 16  1  0  0  0  0
  4 16  2  0  0  0  0
  4 21  1  0  0  0  0
  5  6  1  0  0  0  0
  5  7  1  0  0  0  0
  5 27  1  0  0  0  0
  6  8  1  0  0  0  0
  6 10  2  0  0  0  0
  7 11  1  0  0  0  0
  7 28  1  0  0  0  0
  7 29  1  0  0  0  0
  8  9  1  0  0  0  0
  8 13  2  0  0  0  0
  9 14  2  0  0  0  0
 10 30  1  0  0  0  0
 11 17  1  0  0  0  0
 11 31  1  0  0  0  0
 11 32  1  0  0  0  0
 12 18  1  0  0  0  0
 12 33  1  0  0  0  0
 12 34  1  0  0  0  0
 13 19  1  0  0  0  0
 13 35  1  0  0  0  0
 14 20  1  0  0  0  0
 14 36  1  0  0  0  0
 15 21  2  0  0  0  0
 15 37  1  0  0  0  0
 16 38  1  0  0  0  0
 17 39  1  0  0  0  0
 17 40  1  0  0  0  0
 17 41  1  0  0  0  0
 18 22  2  0  0  0  0
 18 23  1  0  0  0  0
 19 20  2  0  0  0  0
 19 42  1  0  0  0  0
 20 43  1  0  0  0  0
 21 44  1  0  0  0  0
 22 24  1  0  0  0  0
 22 45  1  0  0  0  0
 23 25  2  0  0  0  0
 23 46  1  0  0  0  0
 24 26  2  0  0  0  0
 24 47  1  0  0  0  0
 25 26  1  0  0  0  0
 25 48  1  0  0  0  0
M  END
> <PUBCHEM_COMPOUND_CID>
503449
> <PUBCHEM_COMPOUND_CANONICALIZED>
1
> <PUBCHEM_CACTVS_COMPLEXITY>
437
> <PUBCHEM_CACTVS_HBOND_ACCEPTOR>
1
> <PUBCHEM_CACTVS_HBOND_DONOR>
0
> <PUBCHEM_CACTVS_ROTATABLE_BOND>
6
> <PUBCHEM_CACTVS_SUBSKEYS>
AAADceB7AAAEAAAAAAAAAAAAAAAAAWLAAAAwYAAAAAAAAFgB/AAAHAIAAAAADCrBHiQ/0PcMEACgAzRnZACCgC0xF6AJ2CA4dpiIaOLB25GUIAhogALIyCcQgMAOhAAAAAACAAAIAAAAAAQAAAAAAAAAAA==
> <PUBCHEM_IUPAC_OPENEYE_NAME>
1-[(4-chlorophenyl)methyl]-3-(1-imidazol-1-ylbutyl)indole
> <PUBCHEM_IUPAC_CAS_NAME>
1-[(4-chlorophenyl)methyl]-3-[1-(1-imidazolyl)butyl]indole
> <PUBCHEM_IUPAC_NAME_MARKUP>
1-[(4-chlorophenyl)methyl]-3-(1-imidazol-1-ylbutyl)indole
> <PUBCHEM_IUPAC_NAME>
1-[(4-chlorophenyl)methyl]-3-(1-imidazol-1-ylbutyl)indole
> <PUBCHEM_IUPAC_SYSTEMATIC_NAME>
1-[(4-chlorophenyl)methyl]-3-(1-imidazol-1-ylbutyl)indole
> <PUBCHEM_IUPAC_TRADITIONAL_NAME>
1-(4-chlorobenzyl)-3-(1-imidazol-1-ylbutyl)indole
> <PUBCHEM_IUPAC_INCHI>
InChI=1S/C22H22ClN3/c1-2-5-21(25-13-12-24-16-25)20-15-26(22-7-4-3-6-19(20)22)14-17-8-10-18(23)11-9-17/h3-4,6-13,15-16,21H,2,5,14H2,1H3
> <PUBCHEM_IUPAC_INCHIKEY>
UZSNDYXRDRBHOC-UHFFFAOYSA-N
> <PUBCHEM_XLOGP3_AA>
5.2
> <PUBCHEM_EXACT_MASS>
363.1502254
> <PUBCHEM_MOLECULAR_FORMULA>
C22H22ClN3
> <PUBCHEM_MOLECULAR_WEIGHT>
363.9
> <PUBCHEM_OPENEYE_CAN_SMILES>
CCCC(C1=CN(C2=CC=CC=C21)CC3=CC=C(C=C3)Cl)N4C=CN=C4
> <PUBCHEM_OPENEYE_ISO_SMILES>
CCCC(C1=CN(C2=CC=CC=C21)CC3=CC=C(C=C3)Cl)N4C=CN=C4
> <PUBCHEM_CACTVS_TPSA>
22.8
> <PUBCHEM_MONOISOTOPIC_WEIGHT>
363.1502254
> <PUBCHEM_TOTAL_CHARGE>
0
> <PUBCHEM_HEAVY_ATOM_COUNT>
26
> <PUBCHEM_ATOM_DEF_STEREO_COUNT>
0
> <PUBCHEM_ATOM_UDEF_STEREO_COUNT>
1
> <PUBCHEM_BOND_DEF_STEREO_COUNT>
0
> <PUBCHEM_BOND_UDEF_STEREO_COUNT>
0
> <PUBCHEM_ISOTOPIC_ATOM_COUNT>
0
> <PUBCHEM_COMPONENT_COUNT>
1
> <PUBCHEM_CACTVS_TAUTO_COUNT>
-1
> <PUBCHEM_COORDINATE_TYPE>
1
5
255
> <PUBCHEM_BONDANNOTATIONS>
13  19  8
14  20  8
15  21  8
18  22  8
18  23  8
19  20  8
2  10  8
2  9  8
22  24  8
23  25  8
24  26  8
25  26  8
3  15  8
3  16  8
4  16  8
4  21  8
5  7  3
6  10  8
6  8  8
8  13  8
8  9  8
9  14  8
$$$$
