503404
  -OEChem-10302200282D
 96103  0     1  0  0  0  0  0999 V2000
   11.8391   -0.3829    0.0000 P   0  0  3  0  0  0  0  0  0  0  0  0
    6.2680   -0.7761    0.0000 P   0  0  3  0  0  0  0  0  0  0  0  0
    2.5338    5.7097    0.0000 F   0  0  0  0  0  0  0  0  0  0  0  0
    9.3045   -2.1474    0.0000 O   0  0  0  0  0  0  0  0  0  0  0  0
   15.1708   -0.3768    0.0000 O   0  0  0  0  0  0  0  0  0  0  0  0
    6.7665   -1.6430    0.0000 O   0  0  0  0  0  0  0  0  0  0  0  0
   12.6491    0.2034    0.0000 O   0  0  0  0  0  0  0  0  0  0  0  0
    8.0483    0.1149    0.0000 O   0  0  0  0  0  0  0  0  0  0  0  0
   11.0291   -0.9693    0.0000 O   0  0  0  0  0  0  0  0  0  0  0  0
    4.6793    1.8722    0.0000 O   0  0  0  0  0  0  0  0  0  0  0  0
   13.0978   -1.9254    0.0000 O   0  0  0  0  0  0  0  0  0  0  0  0
    5.7695    0.0908    0.0000 O   0  0  0  0  0  0  0  0  0  0  0  0
    2.6062    0.3237    0.0000 O   0  0  0  0  0  0  0  0  0  0  0  0
   16.2610   -2.1582    0.0000 O   0  0  0  0  0  0  0  0  0  0  0  0
   12.4255   -1.1930    0.0000 O   0  0  0  0  0  0  0  0  0  0  0  0
    5.4011   -1.2746    0.0000 O   0  0  0  0  0  0  0  0  0  0  0  0
   11.2527    0.4271    0.0000 O   0  0  0  0  0  0  0  0  0  0  0  0
    7.1349   -0.2776    0.0000 O   0  0  0  0  0  0  0  0  0  0  0  0
    5.7658    3.3530    0.0000 O   0  0  0  0  0  0  0  0  0  0  0  0
    4.3623    6.5200    0.0000 O   0  0  0  0  0  0  0  0  0  0  0  0
    8.0422   -3.4053    0.0000 N   0  0  0  0  0  0  0  0  0  0  0  0
   14.5351    1.2880    0.0000 N   0  0  0  0  0  0  0  0  0  0  0  0
    4.0436    3.5370    0.0000 N   0  0  0  0  0  0  0  0  0  0  0  0
    8.0422   -5.0148    0.0000 N   0  0  0  0  0  0  0  0  0  0  0  0
   14.2005    2.8623    0.0000 N   0  0  0  0  0  0  0  0  0  0  0  0
    6.2300   -3.2100    0.0000 N   0  0  0  0  0  0  0  0  0  0  0  0
   16.3483    1.4737    0.0000 N   0  0  0  0  0  0  0  0  0  0  0  0
    5.0641    4.9365    0.0000 N   0  0  0  0  0  0  0  0  0  0  0  0
    5.3639   -4.7100    0.0000 N   0  0  0  0  0  0  0  0  0  0  0  0
   16.8836    3.1210    0.0000 N   0  0  0  0  0  0  0  0  0  0  0  0
    6.2300   -6.2100    0.0000 N   0  0  0  0  0  0  0  0  0  0  0  0
   15.7246    4.4082    0.0000 N   0  0  0  0  0  0  0  0  0  0  0  0
    7.7665   -1.6447    0.0000 C   0  0  2  0  0  0  0  0  0  0  0  0
    8.3557   -0.8367    0.0000 C   0  0  1  0  0  0  0  0  0  0  0  0
    9.3062   -1.1474    0.0000 C   0  0  1  0  0  0  0  0  0  0  0  0
    8.3529   -2.4548    0.0000 C   0  0  1  0  0  0  0  0  0  0  0  0
   13.5620   -0.2049    0.0000 C   0  0  2  0  0  0  0  0  0  0  0  0
   13.7682   -1.1834    0.0000 C   0  0  1  0  0  0  0  0  0  0  0  0
   14.4289    0.2936    0.0000 C   0  0  1  0  0  0  0  0  0  0  0  0
   14.7625   -1.2896    0.0000 C   0  0  1  0  0  0  0  0  0  0  0  0
   10.1162   -0.5610    0.0000 C   0  0  0  0  0  0  0  0  0  0  0  0
    4.2710    0.9594    0.0000 C   0  0  1  0  0  0  0  0  0  0  0  0
    3.2766    1.0656    0.0000 C   0  0  2  0  0  0  0  0  0  0  0  0
    3.0704    2.0442    0.0000 C   0  0  0  0  0  0  0  0  0  0  0  0
    3.9373    2.5427    0.0000 C   0  0  1  0  0  0  0  0  0  0  0  0
   15.2610   -2.1565    0.0000 C   0  0  0  0  0  0  0  0  0  0  0  0
    4.7695    0.0925    0.0000 C   0  0  0  0  0  0  0  0  0  0  0  0
    7.0960   -3.7100    0.0000 C   0  0  0  0  0  0  0  0  0  0  0  0
    8.6258   -4.2100    0.0000 C   0  0  0  0  0  0  0  0  0  0  0  0
   15.3973    1.7828    0.0000 C   0  0  0  0  0  0  0  0  0  0  0  0
   13.7969    1.9538    0.0000 C   0  0  0  0  0  0  0  0  0  0  0  0
    7.0960   -4.7100    0.0000 C   0  0  0  0  0  0  0  0  0  0  0  0
   15.1894    2.7609    0.0000 C   0  0  0  0  0  0  0  0  0  0  0  0
    4.9578    3.9422    0.0000 C   0  0  0  0  0  0  0  0  0  0  0  0
    3.2356    4.1262    0.0000 C   0  0  0  0  0  0  0  0  0  0  0  0
    6.2300   -5.2100    0.0000 C   0  0  0  0  0  0  0  0  0  0  0  0
   15.9325    3.4300    0.0000 C   0  0  0  0  0  0  0  0  0  0  0  0
    5.3639   -3.7100    0.0000 C   0  0  0  0  0  0  0  0  0  0  0  0
    3.3418    5.1205    0.0000 C   0  0  0  0  0  0  0  0  0  0  0  0
   17.0915    2.1429    0.0000 C   0  0  0  0  0  0  0  0  0  0  0  0
    4.2561    5.5257    0.0000 C   0  0  0  0  0  0  0  0  0  0  0  0
    7.4860   -1.0918    0.0000 H   0  0  0  0  0  0  0  0  0  0  0  0
    8.7948   -0.3991    0.0000 H   0  0  0  0  0  0  0  0  0  0  0  0
    9.8581   -1.4298    0.0000 H   0  0  0  0  0  0  0  0  0  0  0  0
    8.7905   -2.8939    0.0000 H   0  0  0  0  0  0  0  0  0  0  0  0
   13.5306    0.4143    0.0000 H   0  0  0  0  0  0  0  0  0  0  0  0
   13.9894   -1.7626    0.0000 H   0  0  0  0  0  0  0  0  0  0  0  0
   15.0081    0.5148    0.0000 H   0  0  0  0  0  0  0  0  0  0  0  0
   15.3817   -1.2582    0.0000 H   0  0  0  0  0  0  0  0  0  0  0  0
   10.4638   -0.0476    0.0000 H   0  0  0  0  0  0  0  0  0  0  0  0
    9.6710   -0.1295    0.0000 H   0  0  0  0  0  0  0  0  0  0  0  0
    4.8902    0.9908    0.0000 H   0  0  0  0  0  0  0  0  0  0  0  0
    2.6780    1.2272    0.0000 H   0  0  0  0  0  0  0  0  0  0  0  0
    2.8192    2.6110    0.0000 H   0  0  0  0  0  0  0  0  0  0  0  0
    2.4804    1.8536    0.0000 H   0  0  0  0  0  0  0  0  0  0  0  0
    4.5165    2.7638    0.0000 H   0  0  0  0  0  0  0  0  0  0  0  0
   14.6780   -2.3676    0.0000 H   0  0  0  0  0  0  0  0  0  0  0  0
   15.3676   -2.7673    0.0000 H   0  0  0  0  0  0  0  0  0  0  0  0
    8.4640    0.5749    0.0000 H   0  0  0  0  0  0  0  0  0  0  0  0
    4.1865   -0.1185    0.0000 H   0  0  0  0  0  0  0  0  0  0  0  0
    4.8761   -0.5183    0.0000 H   0  0  0  0  0  0  0  0  0  0  0  0
    9.2458   -4.2100    0.0000 H   0  0  0  0  0  0  0  0  0  0  0  0
   13.2883   -2.5154    0.0000 H   0  0  0  0  0  0  0  0  0  0  0  0
   13.1905    1.8249    0.0000 H   0  0  0  0  0  0  0  0  0  0  0  0
    2.0000    0.4536    0.0000 H   0  0  0  0  0  0  0  0  0  0  0  0
   16.5701   -2.6957    0.0000 H   0  0  0  0  0  0  0  0  0  0  0  0
   12.1723   -1.7589    0.0000 H   0  0  0  0  0  0  0  0  0  0  0  0
    2.6687    3.8750    0.0000 H   0  0  0  0  0  0  0  0  0  0  0  0
    4.8647   -0.9637    0.0000 H   0  0  0  0  0  0  0  0  0  0  0  0
    4.8270   -3.4000    0.0000 H   0  0  0  0  0  0  0  0  0  0  0  0
    5.6309    5.1877    0.0000 H   0  0  0  0  0  0  0  0  0  0  0  0
   17.6811    1.9513    0.0000 H   0  0  0  0  0  0  0  0  0  0  0  0
    5.6930   -6.5200    0.0000 H   0  0  0  0  0  0  0  0  0  0  0  0
    6.7669   -6.5200    0.0000 H   0  0  0  0  0  0  0  0  0  0  0  0
   16.1854    4.8231    0.0000 H   0  0  0  0  0  0  0  0  0  0  0  0
   15.1350    4.5998    0.0000 H   0  0  0  0  0  0  0  0  0  0  0  0
  1  7  1  0  0  0  0
  1  9  1  0  0  0  0
  1 15  1  0  0  0  0
  1 17  2  0  0  0  0
  2  6  1  0  0  0  0
  2 12  1  0  0  0  0
  2 16  1  0  0  0  0
  2 18  2  0  0  0  0
  3 59  1  0  0  0  0
  4 35  1  0  0  0  0
  4 36  1  0  0  0  0
  5 39  1  0  0  0  0
  5 40  1  0  0  0  0
 33  6  1  6  0  0  0
 37  7  1  1  0  0  0
 34  8  1  6  0  0  0
  8 79  1  0  0  0  0
  9 41  1  0  0  0  0
 10 42  1  0  0  0  0
 10 45  1  0  0  0  0
 38 11  1  1  0  0  0
 11 83  1  0  0  0  0
 12 47  1  0  0  0  0
 43 13  1  1  0  0  0
 13 85  1  0  0  0  0
 14 46  1  0  0  0  0
 14 86  1  0  0  0  0
 15 87  1  0  0  0  0
 16 89  1  0  0  0  0
 19 54  2  0  0  0  0
 20 61  2  0  0  0  0
 36 21  1  1  0  0  0
 21 48  1  0  0  0  0
 21 49  1  0  0  0  0
 39 22  1  6  0  0  0
 22 50  1  0  0  0  0
 22 51  1  0  0  0  0
 45 23  1  6  0  0  0
 23 54  1  0  0  0  0
 23 55  1  0  0  0  0
 24 49  2  0  0  0  0
 24 52  1  0  0  0  0
 25 51  2  0  0  0  0
 25 53  1  0  0  0  0
 26 48  2  0  0  0  0
 26 58  1  0  0  0  0
 27 50  2  0  0  0  0
 27 60  1  0  0  0  0
 28 54  1  0  0  0  0
 28 61  1  0  0  0  0
 28 91  1  0  0  0  0
 29 56  1  0  0  0  0
 29 58  2  0  0  0  0
 30 57  1  0  0  0  0
 30 60  2  0  0  0  0
 31 56  1  0  0  0  0
 31 93  1  0  0  0  0
 31 94  1  0  0  0  0
 32 57  1  0  0  0  0
 32 95  1  0  0  0  0
 32 96  1  0  0  0  0
 33 34  1  0  0  0  0
 33 36  1  0  0  0  0
 33 62  1  0  0  0  0
 34 35  1  0  0  0  0
 34 63  1  0  0  0  0
 35 41  1  1  0  0  0
 35 64  1  0  0  0  0
 36 65  1  0  0  0  0
 37 38  1  0  0  0  0
 37 39  1  0  0  0  0
 37 66  1  0  0  0  0
 38 40  1  0  0  0  0
 38 67  1  0  0  0  0
 39 68  1  0  0  0  0
 40 46  1  6  0  0  0
 40 69  1  0  0  0  0
 41 70  1  0  0  0  0
 41 71  1  0  0  0  0
 42 43  1  0  0  0  0
 42 47  1  6  0  0  0
 42 72  1  0  0  0  0
 43 44  1  0  0  0  0
 43 73  1  0  0  0  0
 44 45  1  0  0  0  0
 44 74  1  0  0  0  0
 44 75  1  0  0  0  0
 45 76  1  0  0  0  0
 46 77  1  0  0  0  0
 46 78  1  0  0  0  0
 47 80  1  0  0  0  0
 47 81  1  0  0  0  0
 48 52  1  0  0  0  0
 49 82  1  0  0  0  0
 50 53  1  0  0  0  0
 51 84  1  0  0  0  0
 52 56  2  0  0  0  0
 53 57  2  0  0  0  0
 55 59  2  0  0  0  0
 55 88  1  0  0  0  0
 58 90  1  0  0  0  0
 59 61  1  0  0  0  0
 60 92  1  0  0  0  0
M  END
> <PUBCHEM_COMPOUND_CID>
503404
> <PUBCHEM_COMPOUND_CANONICALIZED>
1
> <PUBCHEM_CACTVS_COMPLEXITY>
1770
> <PUBCHEM_CACTVS_HBOND_ACCEPTOR>
26
> <PUBCHEM_CACTVS_HBOND_DONOR>
9
> <PUBCHEM_CACTVS_ROTATABLE_BOND>
14
> <PUBCHEM_CACTVS_SUBSKEYS>
AAADcfB7/wMAAAAAAAAAAAAAAAAAAWLEiRIsWIAAAAAAAFgB/gAAHwAQCCAACBzhlwYF8L/MFxCoQQd3dICAgC0REKABUCAoVFCDWAJAyEAeRAgPByLTAODwMAIAAAAAAAAAAAAAAAAAAAAAAAAAAAAAAA==
> <PUBCHEM_IUPAC_OPENEYE_NAME>
[(2R,3R,4R,5R)-2-(6-aminopurin-9-yl)-5-[[[(2R,3R,4R,5R)-2-(6-aminopurin-9-yl)-4-hydroxy-5-(hydroxymethyl)tetrahydrofuran-3-yl]oxy-hydroxy-phosphoryl]oxymethyl]-4-hydroxy-tetrahydrofuran-3-yl] [(2R,3S,5R)-5-(5-fluoro-2,4-dioxo-pyrimidin-1-yl)-3-hydroxy-tetrahydrofuran-2-yl]methyl hydrogen phosphate
> <PUBCHEM_IUPAC_CAS_NAME>
[(2R,3R,4R,5R)-2-(6-aminopurin-9-yl)-5-[[[(2R,3R,4R,5R)-2-(6-aminopurin-9-yl)-4-hydroxy-5-(hydroxymethyl)-3-oxolanyl]oxy-hydroxyphosphoryl]oxymethyl]-4-hydroxy-3-oxolanyl] [(2R,3S,5R)-5-(5-fluoro-2,4-dioxo-1-pyrimidinyl)-3-hydroxy-2-oxolanyl]methyl hydrogen phosphate
> <PUBCHEM_IUPAC_NAME_MARKUP>
[(2<I>R</I>,3<I>R</I>,4<I>R</I>,5<I>R</I>)-2-(6-aminopurin-9-yl)-5-[[[(2<I>R</I>,3<I>R</I>,4<I>R</I>,5<I>R</I>)-2-(6-aminopurin-9-yl)-4-hydroxy-5-(hydroxymethyl)oxolan-3-yl]oxy-hydroxyphosphoryl]oxymethyl]-4-hydroxyoxolan-3-yl] [(2<I>R</I>,3<I>S</I>,5<I>R</I>)-5-(5-fluoro-2,4-dioxopyrimidin-1-yl)-3-hydroxyoxolan-2-yl]methyl hydrogen phosphate
> <PUBCHEM_IUPAC_NAME>
[(2R,3R,4R,5R)-2-(6-aminopurin-9-yl)-5-[[[(2R,3R,4R,5R)-2-(6-aminopurin-9-yl)-4-hydroxy-5-(hydroxymethyl)oxolan-3-yl]oxy-hydroxyphosphoryl]oxymethyl]-4-hydroxyoxolan-3-yl] [(2R,3S,5R)-5-(5-fluoro-2,4-dioxopyrimidin-1-yl)-3-hydroxyoxolan-2-yl]methyl hydrogen phosphate
> <PUBCHEM_IUPAC_SYSTEMATIC_NAME>
[(2R,3R,4R,5R)-2-(6-aminopurin-9-yl)-5-[[[(2R,3R,4R,5R)-2-(6-aminopurin-9-yl)-5-(hydroxymethyl)-4-oxidanyl-oxolan-3-yl]oxy-oxidanyl-phosphoryl]oxymethyl]-4-oxidanyl-oxolan-3-yl] [(2R,3S,5R)-5-[5-fluoranyl-2,4-bis(oxidanylidene)pyrimidin-1-yl]-3-oxidanyl-oxolan-2-yl]methyl hydrogen phosphate
> <PUBCHEM_IUPAC_TRADITIONAL_NAME>
[(2R,3R,4R,5R)-2-adenin-9-yl-5-[[[(2R,3R,4R,5R)-2-adenin-9-yl-4-hydroxy-5-methylol-tetrahydrofuran-3-yl]oxy-hydroxy-phosphoryl]oxymethyl]-4-hydroxy-tetrahydrofuran-3-yl] [(2R,3S,5R)-5-(5-fluoro-2,4-diketo-pyrimidin-1-yl)-3-hydroxy-tetrahydrofuran-2-yl]methyl hydrogen phosphate
> <PUBCHEM_IUPAC_INCHI>
InChI=1S/C29H35FN12O17P2/c30-10-2-40(29(48)39-26(10)47)15-1-11(44)13(55-15)4-53-60(49,50)59-21-19(46)14(57-28(21)42-9-38-17-23(32)34-7-36-25(17)42)5-54-61(51,52)58-20-18(45)12(3-43)56-27(20)41-8-37-16-22(31)33-6-35-24(16)41/h2,6-9,11-15,18-21,27-28,43-46H,1,3-5H2,(H,49,50)(H,51,52)(H2,31,33,35)(H2,32,34,36)(H,39,47,48)/t11-,12+,13+,14+,15+,18+,19+,20+,21+,27+,28+/m0/s1
> <PUBCHEM_IUPAC_INCHIKEY>
UMPCXTGAEKEZGG-FESPHEFUSA-N
> <PUBCHEM_XLOGP3_AA>
-6.1
> <PUBCHEM_EXACT_MASS>
904.17023985
> <PUBCHEM_MOLECULAR_FORMULA>
C29H35FN12O17P2
> <PUBCHEM_MOLECULAR_WEIGHT>
904.6
> <PUBCHEM_OPENEYE_CAN_SMILES>
C1C(C(OC1N2C=C(C(=O)NC2=O)F)COP(=O)(O)OC3C(C(OC3N4C=NC5=C(N=CN=C54)N)COP(=O)(O)OC6C(C(OC6N7C=NC8=C(N=CN=C87)N)CO)O)O)O
> <PUBCHEM_OPENEYE_ISO_SMILES>
C1[C@@H]([C@H](O[C@H]1N2C=C(C(=O)NC2=O)F)COP(=O)(O)O[C@@H]3[C@@H]([C@H](O[C@H]3N4C=NC5=C(N=CN=C54)N)COP(=O)(O)O[C@@H]6[C@@H]([C@H](O[C@H]6N7C=NC8=C(N=CN=C87)N)CO)O)O)O
> <PUBCHEM_CACTVS_TPSA>
409
> <PUBCHEM_MONOISOTOPIC_WEIGHT>
904.17023985
> <PUBCHEM_TOTAL_CHARGE>
0
> <PUBCHEM_HEAVY_ATOM_COUNT>
61
> <PUBCHEM_ATOM_DEF_STEREO_COUNT>
11
> <PUBCHEM_ATOM_UDEF_STEREO_COUNT>
0
> <PUBCHEM_BOND_DEF_STEREO_COUNT>
0
> <PUBCHEM_BOND_UDEF_STEREO_COUNT>
0
> <PUBCHEM_ISOTOPIC_ATOM_COUNT>
0
> <PUBCHEM_COMPONENT_COUNT>
1
> <PUBCHEM_CACTVS_TAUTO_COUNT>
-1
> <PUBCHEM_COORDINATE_TYPE>
1
5
255
> <PUBCHEM_BONDANNOTATIONS>
38  11  5
43  13  5
36  21  5
21  48  8
21  49  8
39  22  6
22  50  8
22  51  8
45  23  6
23  54  8
23  55  8
24  49  8
24  52  8
25  51  8
25  53  8
26  48  8
26  58  8
27  50  8
27  60  8
28  54  8
28  61  8
29  56  8
29  58  8
30  57  8
30  60  8
35  41  5
40  46  6
42  47  6
48  52  8
50  53  8
52  56  8
53  57  8
55  59  8
59  61  8
33  6  6
37  7  5
34  8  6
$$$$
