503493
  -OEChem-10302200282D
 84 84  0     1  0  0  0  0  0999 V2000
    9.4651   -0.0000    0.0000 S   0  0  0  0  0  0  0  0  0  0  0  0
    8.5991   -0.5000    0.0000 O   0  0  0  0  0  0  0  0  0  0  0  0
    7.7331   -0.0000    0.0000 O   0  0  0  0  0  0  0  0  0  0  0  0
    5.1350    2.5000    0.0000 O   0  0  0  0  0  0  0  0  0  0  0  0
   11.1972   -3.0000    0.0000 O   0  0  0  0  0  0  0  0  0  0  0  0
    2.5369    0.0000    0.0000 O   0  0  0  0  0  0  0  0  0  0  0  0
    4.2690    1.0000    0.0000 O   0  0  0  0  0  0  0  0  0  0  0  0
    3.4030   -1.5000    0.0000 O   0  0  0  0  0  0  0  0  0  0  0  0
   16.3933   -0.0000    0.0000 O   0  0  0  0  0  0  0  0  0  0  0  0
   14.6613   -0.0000    0.0000 O   0  0  0  0  0  0  0  0  0  0  0  0
    6.8671   -1.5000    0.0000 N   0  0  0  0  0  0  0  0  0  0  0  0
    9.4651   -2.0000    0.0000 N   0  0  0  0  0  0  0  0  0  0  0  0
    6.0010    1.0000    0.0000 N   0  0  0  0  0  0  0  0  0  0  0  0
   12.0632   -1.5000    0.0000 N   0  0  0  0  0  0  0  0  0  0  0  0
    7.7331   -3.0000    0.0000 C   0  0  0  0  0  0  0  0  0  0  0  0
    7.7331   -2.0000    0.0000 C   0  0  1  0  0  0  0  0  0  0  0  0
    6.8671   -3.5000    0.0000 C   0  0  0  0  0  0  0  0  0  0  0  0
    8.5991   -1.5000    0.0000 C   0  0  0  0  0  0  0  0  0  0  0  0
    6.0010   -0.0000    0.0000 C   0  0  2  0  0  0  0  0  0  0  0  0
    6.8671   -4.5000    0.0000 C   0  0  0  0  0  0  0  0  0  0  0  0
    6.0010   -3.0000    0.0000 C   0  0  0  0  0  0  0  0  0  0  0  0
    6.8671   -0.5000    0.0000 C   0  0  0  0  0  0  0  0  0  0  0  0
    5.1350   -0.5000    0.0000 C   0  0  0  0  0  0  0  0  0  0  0  0
   10.3312   -1.5000    0.0000 C   0  0  1  0  0  0  0  0  0  0  0  0
    4.2690    0.0000    0.0000 C   0  0  0  0  0  0  0  0  0  0  0  0
   10.3312   -0.5000    0.0000 C   0  0  0  0  0  0  0  0  0  0  0  0
   11.1972   -2.0000    0.0000 C   0  0  0  0  0  0  0  0  0  0  0  0
   12.9292   -2.0000    0.0000 C   0  0  0  0  0  0  0  0  0  0  0  0
    5.1350    1.5000    0.0000 C   0  0  0  0  0  0  0  0  0  0  0  0
   13.7953   -1.5000    0.0000 C   0  0  0  0  0  0  0  0  0  0  0  0
    3.4030   -0.5000    0.0000 C   0  0  0  0  0  0  0  0  0  0  0  0
    4.2690    4.0000    0.0000 C   0  0  0  0  0  0  0  0  0  0  0  0
    4.2690    3.0000    0.0000 C   0  0  0  0  0  0  0  0  0  0  0  0
   14.6613   -2.0000    0.0000 C   0  0  0  0  0  0  0  0  0  0  0  0
    3.4030    4.5000    0.0000 C   0  0  0  0  0  0  0  0  0  0  0  0
    5.1350    4.5000    0.0000 C   0  0  0  0  0  0  0  0  0  0  0  0
   15.5273   -1.5000    0.0000 C   0  0  0  0  0  0  0  0  0  0  0  0
   14.6613   -3.0000    0.0000 C   0  0  0  0  0  0  0  0  0  0  0  0
   16.3933   -2.0000    0.0000 C   0  0  0  0  0  0  0  0  0  0  0  0
   15.5273   -3.5000    0.0000 C   0  0  0  0  0  0  0  0  0  0  0  0
   16.3933   -3.0000    0.0000 C   0  0  0  0  0  0  0  0  0  0  0  0
   15.5273   -0.5000    0.0000 C   0  0  0  0  0  0  0  0  0  0  0  0
    7.9451   -3.5826    0.0000 H   0  0  0  0  0  0  0  0  0  0  0  0
    8.3437   -2.8923    0.0000 H   0  0  0  0  0  0  0  0  0  0  0  0
    7.7331   -1.3800    0.0000 H   0  0  0  0  0  0  0  0  0  0  0  0
    6.3301   -3.8100    0.0000 H   0  0  0  0  0  0  0  0  0  0  0  0
    6.3301   -1.8100    0.0000 H   0  0  0  0  0  0  0  0  0  0  0  0
    6.5380    0.3100    0.0000 H   0  0  0  0  0  0  0  0  0  0  0  0
    6.2471   -4.5000    0.0000 H   0  0  0  0  0  0  0  0  0  0  0  0
    6.8671   -5.1200    0.0000 H   0  0  0  0  0  0  0  0  0  0  0  0
    7.4871   -4.5000    0.0000 H   0  0  0  0  0  0  0  0  0  0  0  0
    6.3110   -2.4631    0.0000 H   0  0  0  0  0  0  0  0  0  0  0  0
    5.4641   -2.6900    0.0000 H   0  0  0  0  0  0  0  0  0  0  0  0
    5.6910   -3.5369    0.0000 H   0  0  0  0  0  0  0  0  0  0  0  0
    4.7365   -0.9749    0.0000 H   0  0  0  0  0  0  0  0  0  0  0  0
    5.5335   -0.9749    0.0000 H   0  0  0  0  0  0  0  0  0  0  0  0
    9.7942   -1.1900    0.0000 H   0  0  0  0  0  0  0  0  0  0  0  0
    9.4651   -2.6200    0.0000 H   0  0  0  0  0  0  0  0  0  0  0  0
    6.5380    1.3100    0.0000 H   0  0  0  0  0  0  0  0  0  0  0  0
    4.6675    0.4749    0.0000 H   0  0  0  0  0  0  0  0  0  0  0  0
    3.8705    0.4749    0.0000 H   0  0  0  0  0  0  0  0  0  0  0  0
   10.9417   -0.6077    0.0000 H   0  0  0  0  0  0  0  0  0  0  0  0
   10.5432    0.0826    0.0000 H   0  0  0  0  0  0  0  0  0  0  0  0
   12.0632   -0.8800    0.0000 H   0  0  0  0  0  0  0  0  0  0  0  0
   12.5307   -2.4750    0.0000 H   0  0  0  0  0  0  0  0  0  0  0  0
   13.3278   -2.4750    0.0000 H   0  0  0  0  0  0  0  0  0  0  0  0
   14.1938   -1.0250    0.0000 H   0  0  0  0  0  0  0  0  0  0  0  0
   13.3967   -1.0250    0.0000 H   0  0  0  0  0  0  0  0  0  0  0  0
    4.2690    4.6200    0.0000 H   0  0  0  0  0  0  0  0  0  0  0  0
    3.6584    3.1077    0.0000 H   0  0  0  0  0  0  0  0  0  0  0  0
    4.0569    2.4174    0.0000 H   0  0  0  0  0  0  0  0  0  0  0  0
    9.4651    0.6200    0.0000 H   0  0  0  0  0  0  0  0  0  0  0  0
    3.7130    5.0369    0.0000 H   0  0  0  0  0  0  0  0  0  0  0  0
    2.8660    4.8100    0.0000 H   0  0  0  0  0  0  0  0  0  0  0  0
    3.0930    3.9631    0.0000 H   0  0  0  0  0  0  0  0  0  0  0  0
    5.4450    3.9631    0.0000 H   0  0  0  0  0  0  0  0  0  0  0  0
    5.6720    4.8100    0.0000 H   0  0  0  0  0  0  0  0  0  0  0  0
    4.8250    5.0369    0.0000 H   0  0  0  0  0  0  0  0  0  0  0  0
   14.1244   -3.3100    0.0000 H   0  0  0  0  0  0  0  0  0  0  0  0
    2.0000   -0.3100    0.0000 H   0  0  0  0  0  0  0  0  0  0  0  0
   16.9303   -1.6900    0.0000 H   0  0  0  0  0  0  0  0  0  0  0  0
   15.5273   -4.1200    0.0000 H   0  0  0  0  0  0  0  0  0  0  0  0
   16.9303   -3.3100    0.0000 H   0  0  0  0  0  0  0  0  0  0  0  0
   16.3933    0.6200    0.0000 H   0  0  0  0  0  0  0  0  0  0  0  0
  1 26  1  0  0  0  0
  1 72  1  0  0  0  0
  2 18  2  0  0  0  0
  3 22  2  0  0  0  0
  4 29  1  0  0  0  0
  4 33  1  0  0  0  0
  5 27  2  0  0  0  0
  6 31  1  0  0  0  0
  6 80  1  0  0  0  0
  7 29  2  0  0  0  0
  8 31  2  0  0  0  0
  9 42  1  0  0  0  0
  9 84  1  0  0  0  0
 10 42  2  0  0  0  0
 16 11  1  6  0  0  0
 11 22  1  0  0  0  0
 11 47  1  0  0  0  0
 12 18  1  0  0  0  0
 24 12  1  1  0  0  0
 12 58  1  0  0  0  0
 19 13  1  6  0  0  0
 13 29  1  0  0  0  0
 13 59  1  0  0  0  0
 14 27  1  0  0  0  0
 14 28  1  0  0  0  0
 14 64  1  0  0  0  0
 15 16  1  0  0  0  0
 15 17  1  0  0  0  0
 15 43  1  0  0  0  0
 15 44  1  0  0  0  0
 16 18  1  0  0  0  0
 16 45  1  0  0  0  0
 17 20  1  0  0  0  0
 17 21  1  0  0  0  0
 17 46  1  0  0  0  0
 19 22  1  0  0  0  0
 19 23  1  0  0  0  0
 19 48  1  0  0  0  0
 20 49  1  0  0  0  0
 20 50  1  0  0  0  0
 20 51  1  0  0  0  0
 21 52  1  0  0  0  0
 21 53  1  0  0  0  0
 21 54  1  0  0  0  0
 23 25  1  0  0  0  0
 23 55  1  0  0  0  0
 23 56  1  0  0  0  0
 24 26  1  0  0  0  0
 24 27  1  0  0  0  0
 24 57  1  0  0  0  0
 25 31  1  0  0  0  0
 25 60  1  0  0  0  0
 25 61  1  0  0  0  0
 26 62  1  0  0  0  0
 26 63  1  0  0  0  0
 28 30  1  0  0  0  0
 28 65  1  0  0  0  0
 28 66  1  0  0  0  0
 30 34  1  0  0  0  0
 30 67  1  0  0  0  0
 30 68  1  0  0  0  0
 32 33  1  0  0  0  0
 32 35  1  0  0  0  0
 32 36  1  0  0  0  0
 32 69  1  0  0  0  0
 33 70  1  0  0  0  0
 33 71  1  0  0  0  0
 34 37  1  0  0  0  0
 34 38  2  0  0  0  0
 35 73  1  0  0  0  0
 35 74  1  0  0  0  0
 35 75  1  0  0  0  0
 36 76  1  0  0  0  0
 36 77  1  0  0  0  0
 36 78  1  0  0  0  0
 37 39  2  0  0  0  0
 37 42  1  0  0  0  0
 38 40  1  0  0  0  0
 38 79  1  0  0  0  0
 39 41  1  0  0  0  0
 39 81  1  0  0  0  0
 40 41  2  0  0  0  0
 40 82  1  0  0  0  0
 41 83  1  0  0  0  0
M  END
> <PUBCHEM_COMPOUND_CID>
503493
> <PUBCHEM_COMPOUND_CANONICALIZED>
1
> <PUBCHEM_CACTVS_COMPLEXITY>
931
> <PUBCHEM_CACTVS_HBOND_ACCEPTOR>
10
> <PUBCHEM_CACTVS_HBOND_DONOR>
7
> <PUBCHEM_CACTVS_ROTATABLE_BOND>
19
> <PUBCHEM_CACTVS_SUBSKEYS>
AAADcfB7vABAAAAAAAAAAAAAAAAAAAAAAAAwAAAAAAAAAAABAAAAHgQQCAAADSjl2AayCILABgSIAiHSGAACAAAkAAAIiIGICMkIZjKAlTGccQAk1gGImYe836KOgAAAAAAQAAAAAAAAACAAAAAAAAAAAA==
> <PUBCHEM_IUPAC_OPENEYE_NAME>
2-[2-[[(2R)-2-[[(2S)-2-[[(2S)-4-carboxy-2-(isobutoxycarbonylamino)butanoyl]amino]-4-methyl-pentanoyl]amino]-3-sulfanyl-propanoyl]amino]ethyl]benzoic acid
> <PUBCHEM_IUPAC_CAS_NAME>
2-[2-[[(2R)-2-[[(2S)-2-[[(2S)-4-carboxy-2-[[2-methylpropoxy(oxo)methyl]amino]-1-oxobutyl]amino]-4-methyl-1-oxopentyl]amino]-3-mercapto-1-oxopropyl]amino]ethyl]benzoic acid
> <PUBCHEM_IUPAC_NAME_MARKUP>
2-[2-[[(2<I>R</I>)-2-[[(2<I>S</I>)-2-[[(2<I>S</I>)-4-carboxy-2-(2-methylpropoxycarbonylamino)butanoyl]amino]-4-methylpentanoyl]amino]-3-sulfanylpropanoyl]amino]ethyl]benzoic acid
> <PUBCHEM_IUPAC_NAME>
2-[2-[[(2R)-2-[[(2S)-2-[[(2S)-4-carboxy-2-(2-methylpropoxycarbonylamino)butanoyl]amino]-4-methylpentanoyl]amino]-3-sulfanylpropanoyl]amino]ethyl]benzoic acid
> <PUBCHEM_IUPAC_SYSTEMATIC_NAME>
2-[2-[[(2R)-2-[[(2S)-4-methyl-2-[[(2S)-2-(2-methylpropoxycarbonylamino)-5-oxidanyl-5-oxidanylidene-pentanoyl]amino]pentanoyl]amino]-3-sulfanyl-propanoyl]amino]ethyl]benzoic acid
> <PUBCHEM_IUPAC_TRADITIONAL_NAME>
2-[2-[[(2R)-2-[[(2S)-2-[[(2S)-4-carboxy-2-(isobutoxycarbonylamino)butanoyl]amino]-4-methyl-pentanoyl]amino]-3-mercapto-propanoyl]amino]ethyl]benzoic acid
> <PUBCHEM_IUPAC_INCHI>
InChI=1S/C28H42N4O9S/c1-16(2)13-21(30-25(36)20(9-10-23(33)34)32-28(40)41-14-17(3)4)26(37)31-22(15-42)24(35)29-12-11-18-7-5-6-8-19(18)27(38)39/h5-8,16-17,20-22,42H,9-15H2,1-4H3,(H,29,35)(H,30,36)(H,31,37)(H,32,40)(H,33,34)(H,38,39)/t20-,21-,22-/m0/s1
> <PUBCHEM_IUPAC_INCHIKEY>
CQVSAVCRPRFIPA-FKBYEOEOSA-N
> <PUBCHEM_XLOGP3_AA>
2.7
> <PUBCHEM_EXACT_MASS>
610.26725010
> <PUBCHEM_MOLECULAR_FORMULA>
C28H42N4O9S
> <PUBCHEM_MOLECULAR_WEIGHT>
610.7
> <PUBCHEM_OPENEYE_CAN_SMILES>
CC(C)CC(C(=O)NC(CS)C(=O)NCCC1=CC=CC=C1C(=O)O)NC(=O)C(CCC(=O)O)NC(=O)OCC(C)C
> <PUBCHEM_OPENEYE_ISO_SMILES>
CC(C)C[C@@H](C(=O)N[C@@H](CS)C(=O)NCCC1=CC=CC=C1C(=O)O)NC(=O)[C@H](CCC(=O)O)NC(=O)OCC(C)C
> <PUBCHEM_CACTVS_TPSA>
201
> <PUBCHEM_MONOISOTOPIC_WEIGHT>
610.26725010
> <PUBCHEM_TOTAL_CHARGE>
0
> <PUBCHEM_HEAVY_ATOM_COUNT>
42
> <PUBCHEM_ATOM_DEF_STEREO_COUNT>
3
> <PUBCHEM_ATOM_UDEF_STEREO_COUNT>
0
> <PUBCHEM_BOND_DEF_STEREO_COUNT>
0
> <PUBCHEM_BOND_UDEF_STEREO_COUNT>
0
> <PUBCHEM_ISOTOPIC_ATOM_COUNT>
0
> <PUBCHEM_COMPONENT_COUNT>
1
> <PUBCHEM_CACTVS_TAUTO_COUNT>
-1
> <PUBCHEM_COORDINATE_TYPE>
1
5
255
> <PUBCHEM_BONDANNOTATIONS>
16  11  6
24  12  5
19  13  6
34  37  8
34  38  8
37  39  8
38  40  8
39  41  8
40  41  8
$$$$
