503491
  -OEChem-10302200282D
 87 87  0     1  0  0  0  0  0999 V2000
    7.1962   -1.2500    0.0000 S   0  0  0  0  0  0  0  0  0  0  0  0
    6.3301   -1.7500    0.0000 O   0  0  0  0  0  0  0  0  0  0  0  0
    6.3301   -2.7500    0.0000 O   0  0  0  0  0  0  0  0  0  0  0  0
    7.1962   -6.2500    0.0000 O   0  0  0  0  0  0  0  0  0  0  0  0
    5.4641    1.7500    0.0000 O   0  0  0  0  0  0  0  0  0  0  0  0
    3.7320   -7.2500    0.0000 O   0  0  0  0  0  0  0  0  0  0  0  0
    5.4641   -6.2500    0.0000 O   0  0  0  0  0  0  0  0  0  0  0  0
    2.8660   -5.7500    0.0000 O   0  0  0  0  0  0  0  0  0  0  0  0
    8.9282    7.7500    0.0000 O   0  0  0  0  0  0  0  0  0  0  0  0
    7.1962    7.7500    0.0000 O   0  0  0  0  0  0  0  0  0  0  0  0
    4.5981   -2.7500    0.0000 N   0  0  0  0  0  0  0  0  0  0  0  0
    5.4641   -0.2500    0.0000 N   0  0  0  0  0  0  0  0  0  0  0  0
    6.3301   -4.7500    0.0000 N   0  0  0  0  0  0  0  0  0  0  0  0
    7.1962    1.7500    0.0000 N   0  0  0  0  0  0  0  0  0  0  0  0
    3.7320   -1.2500    0.0000 C   0  0  0  0  0  0  0  0  0  0  0  0
    4.5981   -1.7500    0.0000 C   0  0  1  0  0  0  0  0  0  0  0  0
    2.8660   -1.7500    0.0000 C   0  0  0  0  0  0  0  0  0  0  0  0
    5.4641   -1.2500    0.0000 C   0  0  0  0  0  0  0  0  0  0  0  0
    5.4641   -4.2500    0.0000 C   0  0  2  0  0  0  0  0  0  0  0  0
    2.0000   -1.2500    0.0000 C   0  0  0  0  0  0  0  0  0  0  0  0
    2.8660   -2.7500    0.0000 C   0  0  0  0  0  0  0  0  0  0  0  0
    5.4641   -3.2500    0.0000 C   0  0  0  0  0  0  0  0  0  0  0  0
    4.5981   -4.7500    0.0000 C   0  0  0  0  0  0  0  0  0  0  0  0
    6.3301    0.2500    0.0000 C   0  0  1  0  0  0  0  0  0  0  0  0
    4.5981   -5.7500    0.0000 C   0  0  0  0  0  0  0  0  0  0  0  0
    7.1962   -0.2500    0.0000 C   0  0  0  0  0  0  0  0  0  0  0  0
    6.3301    1.2500    0.0000 C   0  0  0  0  0  0  0  0  0  0  0  0
    6.3301   -5.7500    0.0000 C   0  0  0  0  0  0  0  0  0  0  0  0
    7.1962    2.7500    0.0000 C   0  0  0  0  0  0  0  0  0  0  0  0
    3.7320   -6.2500    0.0000 C   0  0  0  0  0  0  0  0  0  0  0  0
    8.0622    3.2500    0.0000 C   0  0  0  0  0  0  0  0  0  0  0  0
    8.0622   -7.7500    0.0000 C   0  0  0  0  0  0  0  0  0  0  0  0
    7.1962   -7.2500    0.0000 C   0  0  0  0  0  0  0  0  0  0  0  0
    8.0622    4.2500    0.0000 C   0  0  0  0  0  0  0  0  0  0  0  0
    8.0622   -8.7500    0.0000 C   0  0  0  0  0  0  0  0  0  0  0  0
    8.9282   -7.2500    0.0000 C   0  0  0  0  0  0  0  0  0  0  0  0
    8.9282    4.7500    0.0000 C   0  0  0  0  0  0  0  0  0  0  0  0
    7.1962    4.7500    0.0000 C   0  0  0  0  0  0  0  0  0  0  0  0
    8.9282    5.7500    0.0000 C   0  0  0  0  0  0  0  0  0  0  0  0
    7.1962    5.7500    0.0000 C   0  0  0  0  0  0  0  0  0  0  0  0
    8.0622    6.2500    0.0000 C   0  0  0  0  0  0  0  0  0  0  0  0
    8.0622    7.2500    0.0000 C   0  0  0  0  0  0  0  0  0  0  0  0
    8.9282    8.7500    0.0000 C   0  0  0  0  0  0  0  0  0  0  0  0
    4.1306   -0.7751    0.0000 H   0  0  0  0  0  0  0  0  0  0  0  0
    3.3335   -0.7751    0.0000 H   0  0  0  0  0  0  0  0  0  0  0  0
    5.1350   -2.0600    0.0000 H   0  0  0  0  0  0  0  0  0  0  0  0
    2.8660   -1.1300    0.0000 H   0  0  0  0  0  0  0  0  0  0  0  0
    4.0611   -3.0600    0.0000 H   0  0  0  0  0  0  0  0  0  0  0  0
    5.4641   -4.8700    0.0000 H   0  0  0  0  0  0  0  0  0  0  0  0
    2.3100   -0.7131    0.0000 H   0  0  0  0  0  0  0  0  0  0  0  0
    1.4631   -0.9400    0.0000 H   0  0  0  0  0  0  0  0  0  0  0  0
    1.6900   -1.7869    0.0000 H   0  0  0  0  0  0  0  0  0  0  0  0
    2.2460   -2.7500    0.0000 H   0  0  0  0  0  0  0  0  0  0  0  0
    2.8660   -3.3700    0.0000 H   0  0  0  0  0  0  0  0  0  0  0  0
    3.4860   -2.7500    0.0000 H   0  0  0  0  0  0  0  0  0  0  0  0
    4.3860   -4.1674    0.0000 H   0  0  0  0  0  0  0  0  0  0  0  0
    3.9875   -4.8577    0.0000 H   0  0  0  0  0  0  0  0  0  0  0  0
    4.9272    0.0600    0.0000 H   0  0  0  0  0  0  0  0  0  0  0  0
    5.7932    0.5600    0.0000 H   0  0  0  0  0  0  0  0  0  0  0  0
    6.8671   -4.4400    0.0000 H   0  0  0  0  0  0  0  0  0  0  0  0
    4.8101   -6.3326    0.0000 H   0  0  0  0  0  0  0  0  0  0  0  0
    5.2087   -5.6423    0.0000 H   0  0  0  0  0  0  0  0  0  0  0  0
    7.8067   -0.3577    0.0000 H   0  0  0  0  0  0  0  0  0  0  0  0
    7.4082    0.3326    0.0000 H   0  0  0  0  0  0  0  0  0  0  0  0
    7.7331    1.4400    0.0000 H   0  0  0  0  0  0  0  0  0  0  0  0
    6.9841    3.3326    0.0000 H   0  0  0  0  0  0  0  0  0  0  0  0
    6.5856    2.6423    0.0000 H   0  0  0  0  0  0  0  0  0  0  0  0
    8.2742    2.6674    0.0000 H   0  0  0  0  0  0  0  0  0  0  0  0
    8.6728    3.3577    0.0000 H   0  0  0  0  0  0  0  0  0  0  0  0
    8.0622   -7.1300    0.0000 H   0  0  0  0  0  0  0  0  0  0  0  0
    6.5856   -7.1423    0.0000 H   0  0  0  0  0  0  0  0  0  0  0  0
    6.9841   -7.8326    0.0000 H   0  0  0  0  0  0  0  0  0  0  0  0
    7.7331   -1.5600    0.0000 H   0  0  0  0  0  0  0  0  0  0  0  0
    7.4422   -8.7500    0.0000 H   0  0  0  0  0  0  0  0  0  0  0  0
    8.0622   -9.3700    0.0000 H   0  0  0  0  0  0  0  0  0  0  0  0
    8.6822   -8.7500    0.0000 H   0  0  0  0  0  0  0  0  0  0  0  0
    9.2382   -7.7869    0.0000 H   0  0  0  0  0  0  0  0  0  0  0  0
    9.4651   -6.9400    0.0000 H   0  0  0  0  0  0  0  0  0  0  0  0
    8.6182   -6.7131    0.0000 H   0  0  0  0  0  0  0  0  0  0  0  0
    9.4651    4.4400    0.0000 H   0  0  0  0  0  0  0  0  0  0  0  0
    6.6592    4.4400    0.0000 H   0  0  0  0  0  0  0  0  0  0  0  0
    3.1951   -7.5600    0.0000 H   0  0  0  0  0  0  0  0  0  0  0  0
    9.4651    6.0600    0.0000 H   0  0  0  0  0  0  0  0  0  0  0  0
    6.6592    6.0600    0.0000 H   0  0  0  0  0  0  0  0  0  0  0  0
    9.5482    8.7500    0.0000 H   0  0  0  0  0  0  0  0  0  0  0  0
    8.9282    9.3700    0.0000 H   0  0  0  0  0  0  0  0  0  0  0  0
    8.3082    8.7500    0.0000 H   0  0  0  0  0  0  0  0  0  0  0  0
  1 26  1  0  0  0  0
  1 73  1  0  0  0  0
  2 18  2  0  0  0  0
  3 22  2  0  0  0  0
  4 28  1  0  0  0  0
  4 33  1  0  0  0  0
  5 27  2  0  0  0  0
  6 30  1  0  0  0  0
  6 82  1  0  0  0  0
  7 28  2  0  0  0  0
  8 30  2  0  0  0  0
  9 42  1  0  0  0  0
  9 43  1  0  0  0  0
 10 42  2  0  0  0  0
 16 11  1  1  0  0  0
 11 22  1  0  0  0  0
 11 48  1  0  0  0  0
 12 18  1  0  0  0  0
 24 12  1  6  0  0  0
 12 58  1  0  0  0  0
 19 13  1  1  0  0  0
 13 28  1  0  0  0  0
 13 60  1  0  0  0  0
 14 27  1  0  0  0  0
 14 29  1  0  0  0  0
 14 65  1  0  0  0  0
 15 16  1  0  0  0  0
 15 17  1  0  0  0  0
 15 44  1  0  0  0  0
 15 45  1  0  0  0  0
 16 18  1  0  0  0  0
 16 46  1  0  0  0  0
 17 20  1  0  0  0  0
 17 21  1  0  0  0  0
 17 47  1  0  0  0  0
 19 22  1  0  0  0  0
 19 23  1  0  0  0  0
 19 49  1  0  0  0  0
 20 50  1  0  0  0  0
 20 51  1  0  0  0  0
 20 52  1  0  0  0  0
 21 53  1  0  0  0  0
 21 54  1  0  0  0  0
 21 55  1  0  0  0  0
 23 25  1  0  0  0  0
 23 56  1  0  0  0  0
 23 57  1  0  0  0  0
 24 26  1  0  0  0  0
 24 27  1  0  0  0  0
 24 59  1  0  0  0  0
 25 30  1  0  0  0  0
 25 61  1  0  0  0  0
 25 62  1  0  0  0  0
 26 63  1  0  0  0  0
 26 64  1  0  0  0  0
 29 31  1  0  0  0  0
 29 66  1  0  0  0  0
 29 67  1  0  0  0  0
 31 34  1  0  0  0  0
 31 68  1  0  0  0  0
 31 69  1  0  0  0  0
 32 33  1  0  0  0  0
 32 35  1  0  0  0  0
 32 36  1  0  0  0  0
 32 70  1  0  0  0  0
 33 71  1  0  0  0  0
 33 72  1  0  0  0  0
 34 37  2  0  0  0  0
 34 38  1  0  0  0  0
 35 74  1  0  0  0  0
 35 75  1  0  0  0  0
 35 76  1  0  0  0  0
 36 77  1  0  0  0  0
 36 78  1  0  0  0  0
 36 79  1  0  0  0  0
 37 39  1  0  0  0  0
 37 80  1  0  0  0  0
 38 40  2  0  0  0  0
 38 81  1  0  0  0  0
 39 41  2  0  0  0  0
 39 83  1  0  0  0  0
 40 41  1  0  0  0  0
 40 84  1  0  0  0  0
 41 42  1  0  0  0  0
 43 85  1  0  0  0  0
 43 86  1  0  0  0  0
 43 87  1  0  0  0  0
M  END
> <PUBCHEM_COMPOUND_CID>
503491
> <PUBCHEM_COMPOUND_CANONICALIZED>
1
> <PUBCHEM_CACTVS_COMPLEXITY>
939
> <PUBCHEM_CACTVS_HBOND_ACCEPTOR>
10
> <PUBCHEM_CACTVS_HBOND_DONOR>
6
> <PUBCHEM_CACTVS_ROTATABLE_BOND>
20
> <PUBCHEM_CACTVS_SUBSKEYS>
AAADcfB7vABAAAAAAAAAAAAAAAAAAAAAAAAwAAAAAAAAAAABAAAAHgQQCAAADSjl2AayCILABgSIAiHSGAACAAAkAAAIiIGICMkIZjKAtTmccQAk1gGIqYe83/KOQAAAAAAAAACAAAAAAAAAAAAAAAAAAA==
> <PUBCHEM_IUPAC_OPENEYE_NAME>
(4S)-4-(isobutoxycarbonylamino)-5-[[(1S)-1-[[(1R)-2-[2-(4-methoxycarbonylphenyl)ethylamino]-2-oxo-1-(sulfanylmethyl)ethyl]carbamoyl]-3-methyl-butyl]amino]-5-oxo-pentanoic acid
> <PUBCHEM_IUPAC_CAS_NAME>
(4S)-5-[[(2S)-1-[[(2R)-3-mercapto-1-[2-(4-methoxycarbonylphenyl)ethylamino]-1-oxopropan-2-yl]amino]-4-methyl-1-oxopentan-2-yl]amino]-4-[[2-methylpropoxy(oxo)methyl]amino]-5-oxopentanoic acid
> <PUBCHEM_IUPAC_NAME_MARKUP>
(4<I>S</I>)-5-[[(2<I>S</I>)-1-[[(2<I>R</I>)-1-[2-(4-methoxycarbonylphenyl)ethylamino]-1-oxo-3-sulfanylpropan-2-yl]amino]-4-methyl-1-oxopentan-2-yl]amino]-4-(2-methylpropoxycarbonylamino)-5-oxopentanoic acid
> <PUBCHEM_IUPAC_NAME>
(4S)-5-[[(2S)-1-[[(2R)-1-[2-(4-methoxycarbonylphenyl)ethylamino]-1-oxo-3-sulfanylpropan-2-yl]amino]-4-methyl-1-oxopentan-2-yl]amino]-4-(2-methylpropoxycarbonylamino)-5-oxopentanoic acid
> <PUBCHEM_IUPAC_SYSTEMATIC_NAME>
(4S)-5-[[(2S)-1-[[(2R)-1-[2-(4-methoxycarbonylphenyl)ethylamino]-1-oxidanylidene-3-sulfanyl-propan-2-yl]amino]-4-methyl-1-oxidanylidene-pentan-2-yl]amino]-4-(2-methylpropoxycarbonylamino)-5-oxidanylidene-pentanoic acid
> <PUBCHEM_IUPAC_TRADITIONAL_NAME>
(4S)-5-[[(1S)-1-[[(1R)-2-[2-(4-carbomethoxyphenyl)ethylamino]-2-keto-1-(mercaptomethyl)ethyl]carbamoyl]-3-methyl-butyl]amino]-4-(isobutoxycarbonylamino)-5-keto-valeric acid
> <PUBCHEM_IUPAC_INCHI>
InChI=1S/C29H44N4O9S/c1-17(2)14-22(31-26(37)21(10-11-24(34)35)33-29(40)42-15-18(3)4)27(38)32-23(16-43)25(36)30-13-12-19-6-8-20(9-7-19)28(39)41-5/h6-9,17-18,21-23,43H,10-16H2,1-5H3,(H,30,36)(H,31,37)(H,32,38)(H,33,40)(H,34,35)/t21-,22-,23-/m0/s1
> <PUBCHEM_IUPAC_INCHIKEY>
WFXOVJQDDKQOGV-VABKMULXSA-N
> <PUBCHEM_XLOGP3_AA>
3.1
> <PUBCHEM_EXACT_MASS>
624.28290017
> <PUBCHEM_MOLECULAR_FORMULA>
C29H44N4O9S
> <PUBCHEM_MOLECULAR_WEIGHT>
624.7
> <PUBCHEM_OPENEYE_CAN_SMILES>
CC(C)CC(C(=O)NC(CS)C(=O)NCCC1=CC=C(C=C1)C(=O)OC)NC(=O)C(CCC(=O)O)NC(=O)OCC(C)C
> <PUBCHEM_OPENEYE_ISO_SMILES>
CC(C)C[C@@H](C(=O)N[C@@H](CS)C(=O)NCCC1=CC=C(C=C1)C(=O)OC)NC(=O)[C@H](CCC(=O)O)NC(=O)OCC(C)C
> <PUBCHEM_CACTVS_TPSA>
190
> <PUBCHEM_MONOISOTOPIC_WEIGHT>
624.28290017
> <PUBCHEM_TOTAL_CHARGE>
0
> <PUBCHEM_HEAVY_ATOM_COUNT>
43
> <PUBCHEM_ATOM_DEF_STEREO_COUNT>
3
> <PUBCHEM_ATOM_UDEF_STEREO_COUNT>
0
> <PUBCHEM_BOND_DEF_STEREO_COUNT>
0
> <PUBCHEM_BOND_UDEF_STEREO_COUNT>
0
> <PUBCHEM_ISOTOPIC_ATOM_COUNT>
0
> <PUBCHEM_COMPONENT_COUNT>
1
> <PUBCHEM_CACTVS_TAUTO_COUNT>
-1
> <PUBCHEM_COORDINATE_TYPE>
1
5
255
> <PUBCHEM_BONDANNOTATIONS>
16  11  5
24  12  6
19  13  5
34  37  8
34  38  8
37  39  8
38  40  8
39  41  8
40  41  8
$$$$
