503472
  -OEChem-10302200282D
137140  0     1  0  0  0  0  0999 V2000
   10.6603    6.5600    0.0000 F   0  0  0  0  0  0  0  0  0  0  0  0
   12.3923    6.5600    0.0000 F   0  0  0  0  0  0  0  0  0  0  0  0
   12.3923    3.5600    0.0000 O   0  0  0  0  0  0  0  0  0  0  0  0
   11.5263    0.0600    0.0000 O   0  0  0  0  0  0  0  0  0  0  0  0
    8.0622   -0.9400    0.0000 O   0  0  0  0  0  0  0  0  0  0  0  0
    9.7942    6.0600    0.0000 O   0  0  0  0  0  0  0  0  0  0  0  0
    8.0622    5.0600    0.0000 O   0  0  0  0  0  0  0  0  0  0  0  0
    8.0622    3.0600    0.0000 O   0  0  0  0  0  0  0  0  0  0  0  0
    7.1962    1.5600    0.0000 O   0  0  0  0  0  0  0  0  0  0  0  0
    7.1962   -1.4400    0.0000 O   0  0  0  0  0  0  0  0  0  0  0  0
    4.5981   -3.9400    0.0000 O   0  0  0  0  0  0  0  0  0  0  0  0
    4.5981   -5.9400    0.0000 O   0  0  0  0  0  0  0  0  0  0  0  0
    6.3301   -5.9400    0.0000 O   0  0  0  0  0  0  0  0  0  0  0  0
    2.8660    0.0600    0.0000 O   0  0  0  0  0  0  0  0  0  0  0  0
    2.0000   -1.4400    0.0000 O   0  0  0  0  0  0  0  0  0  0  0  0
    3.7320   -4.4400    0.0000 O   0  0  0  0  0  0  0  0  0  0  0  0
   10.6603    1.5600    0.0000 N   0  0  0  0  0  0  0  0  0  0  0  0
   10.6603    3.5600    0.0000 N   0  0  0  0  0  0  0  0  0  0  0  0
    9.7942   -0.9400    0.0000 N   0  0  0  0  0  0  0  0  0  0  0  0
    8.0622   -2.9400    0.0000 N   0  0  0  0  0  0  0  0  0  0  0  0
    8.9282    4.5600    0.0000 N   0  0  0  0  0  0  0  0  0  0  0  0
    5.4641   -2.4400    0.0000 N   0  0  0  0  0  0  0  0  0  0  0  0
    2.8660   -2.9400    0.0000 N   0  0  0  0  0  0  0  0  0  0  0  0
   13.2583    2.0600    0.0000 C   0  0  0  0  0  0  0  0  0  0  0  0
   13.2583    3.0600    0.0000 C   0  0  0  0  0  0  0  0  0  0  0  0
   14.1244    1.5600    0.0000 C   0  0  0  0  0  0  0  0  0  0  0  0
   12.3923    1.5600    0.0000 C   0  0  0  0  0  0  0  0  0  0  0  0
   14.1244    3.5600    0.0000 C   0  0  0  0  0  0  0  0  0  0  0  0
   14.9904    2.0600    0.0000 C   0  0  0  0  0  0  0  0  0  0  0  0
   14.9904    3.0600    0.0000 C   0  0  0  0  0  0  0  0  0  0  0  0
   11.5263    2.0600    0.0000 C   0  0  1  0  0  0  0  0  0  0  0  0
   11.5263    3.0600    0.0000 C   0  0  0  0  0  0  0  0  0  0  0  0
   10.6603    0.5600    0.0000 C   0  0  0  0  0  0  0  0  0  0  0  0
    9.7942    0.0600    0.0000 C   0  0  2  0  0  0  0  0  0  0  0  0
   10.6603    4.5600    0.0000 C   0  0  1  0  0  0  0  0  0  0  0  0
    8.9282    0.5600    0.0000 C   0  0  0  0  0  0  0  0  0  0  0  0
   11.5263    5.0600    0.0000 C   0  0  0  0  0  0  0  0  0  0  0  0
    8.9282   -2.4400    0.0000 C   0  0  2  0  0  0  0  0  0  0  0  0
    8.9282   -1.4400    0.0000 C   0  0  0  0  0  0  0  0  0  0  0  0
    8.9282    1.5600    0.0000 C   0  0  0  0  0  0  0  0  0  0  0  0
    9.7942    5.0600    0.0000 C   0  0  0  0  0  0  0  0  0  0  0  0
    9.7942   -2.9400    0.0000 C   0  0  0  0  0  0  0  0  0  0  0  0
   11.5263    6.0600    0.0000 C   0  0  0  0  0  0  0  0  0  0  0  0
    9.7942   -3.9400    0.0000 C   0  0  0  0  0  0  0  0  0  0  0  0
   10.7942   -2.9400    0.0000 C   0  0  0  0  0  0  0  0  0  0  0  0
    8.0622    2.0600    0.0000 C   0  0  0  0  0  0  0  0  0  0  0  0
    7.1962   -2.4400    0.0000 C   0  0  0  0  0  0  0  0  0  0  0  0
    6.3301   -2.9400    0.0000 C   0  0  2  0  0  0  0  0  0  0  0  0
   10.6603   -4.4400    0.0000 C   0  0  0  0  0  0  0  0  0  0  0  0
   11.2942   -2.0740    0.0000 C   0  0  0  0  0  0  0  0  0  0  0  0
    8.9282   -4.4400    0.0000 C   0  0  0  0  0  0  0  0  0  0  0  0
   11.2942   -3.8060    0.0000 C   0  0  0  0  0  0  0  0  0  0  0  0
    6.3301   -3.9400    0.0000 C   0  0  0  0  0  0  0  0  0  0  0  0
   10.6603   -5.4400    0.0000 C   0  0  0  0  0  0  0  0  0  0  0  0
   12.2942   -2.0740    0.0000 C   0  0  0  0  0  0  0  0  0  0  0  0
    8.9282   -5.4400    0.0000 C   0  0  0  0  0  0  0  0  0  0  0  0
   12.2942   -3.8060    0.0000 C   0  0  0  0  0  0  0  0  0  0  0  0
    5.4641   -4.4400    0.0000 C   0  0  0  0  0  0  0  0  0  0  0  0
    9.7942   -5.9400    0.0000 C   0  0  0  0  0  0  0  0  0  0  0  0
   12.7942   -2.9400    0.0000 C   0  0  0  0  0  0  0  0  0  0  0  0
    4.5981   -2.9400    0.0000 C   0  0  0  0  0  0  0  0  0  0  0  0
    7.1962    4.5600    0.0000 C   0  0  0  0  0  0  0  0  0  0  0  0
    3.7320   -2.4400    0.0000 C   0  0  2  0  0  0  0  0  0  0  0  0
    5.4641   -5.4400    0.0000 C   0  0  0  0  0  0  0  0  0  0  0  0
    3.7320   -1.4400    0.0000 C   0  0  0  0  0  0  0  0  0  0  0  0
    6.3301    5.0600    0.0000 C   0  0  0  0  0  0  0  0  0  0  0  0
    2.8660   -0.9400    0.0000 C   0  0  0  0  0  0  0  0  0  0  0  0
    5.4641    4.5600    0.0000 C   0  0  0  0  0  0  0  0  0  0  0  0
    6.3301    6.0600    0.0000 C   0  0  0  0  0  0  0  0  0  0  0  0
    2.8660   -3.9400    0.0000 C   0  0  0  0  0  0  0  0  0  0  0  0
    4.5981    5.0600    0.0000 C   0  0  0  0  0  0  0  0  0  0  0  0
    5.4641    6.5600    0.0000 C   0  0  0  0  0  0  0  0  0  0  0  0
    2.0000   -4.4400    0.0000 C   0  0  0  0  0  0  0  0  0  0  0  0
    4.5981    6.0600    0.0000 C   0  0  0  0  0  0  0  0  0  0  0  0
   13.2583    1.4400    0.0000 H   0  0  0  0  0  0  0  0  0  0  0  0
   13.0463    3.6426    0.0000 H   0  0  0  0  0  0  0  0  0  0  0  0
   12.6477    2.9523    0.0000 H   0  0  0  0  0  0  0  0  0  0  0  0
   13.7258    1.0850    0.0000 H   0  0  0  0  0  0  0  0  0  0  0  0
   14.5229    1.0850    0.0000 H   0  0  0  0  0  0  0  0  0  0  0  0
   11.9938    1.0850    0.0000 H   0  0  0  0  0  0  0  0  0  0  0  0
   12.7908    1.0850    0.0000 H   0  0  0  0  0  0  0  0  0  0  0  0
   14.5229    4.0350    0.0000 H   0  0  0  0  0  0  0  0  0  0  0  0
   13.7258    4.0350    0.0000 H   0  0  0  0  0  0  0  0  0  0  0  0
   15.2024    1.4774    0.0000 H   0  0  0  0  0  0  0  0  0  0  0  0
   15.6010    2.1677    0.0000 H   0  0  0  0  0  0  0  0  0  0  0  0
   15.6010    2.9523    0.0000 H   0  0  0  0  0  0  0  0  0  0  0  0
   15.2024    3.6426    0.0000 H   0  0  0  0  0  0  0  0  0  0  0  0
   10.9893    2.3700    0.0000 H   0  0  0  0  0  0  0  0  0  0  0  0
   10.1233    1.8700    0.0000 H   0  0  0  0  0  0  0  0  0  0  0  0
   10.1233    3.2500    0.0000 H   0  0  0  0  0  0  0  0  0  0  0  0
    9.2573   -0.2500    0.0000 H   0  0  0  0  0  0  0  0  0  0  0  0
   11.1972    4.2500    0.0000 H   0  0  0  0  0  0  0  0  0  0  0  0
    8.3176    0.6677    0.0000 H   0  0  0  0  0  0  0  0  0  0  0  0
    8.7162   -0.0226    0.0000 H   0  0  0  0  0  0  0  0  0  0  0  0
   10.3312   -1.2500    0.0000 H   0  0  0  0  0  0  0  0  0  0  0  0
   11.7383    4.4774    0.0000 H   0  0  0  0  0  0  0  0  0  0  0  0
   12.1369    5.1677    0.0000 H   0  0  0  0  0  0  0  0  0  0  0  0
    8.9282   -3.0600    0.0000 H   0  0  0  0  0  0  0  0  0  0  0  0
    9.5388    1.4523    0.0000 H   0  0  0  0  0  0  0  0  0  0  0  0
    9.1403    2.1426    0.0000 H   0  0  0  0  0  0  0  0  0  0  0  0
    9.9547   -2.3411    0.0000 H   0  0  0  0  0  0  0  0  0  0  0  0
   12.0632    5.7500    0.0000 H   0  0  0  0  0  0  0  0  0  0  0  0
    8.0622   -3.5600    0.0000 H   0  0  0  0  0  0  0  0  0  0  0  0
    8.9282    3.9400    0.0000 H   0  0  0  0  0  0  0  0  0  0  0  0
    5.7932   -3.2500    0.0000 H   0  0  0  0  0  0  0  0  0  0  0  0
   11.1972   -4.1300    0.0000 H   0  0  0  0  0  0  0  0  0  0  0  0
   10.9842   -1.5370    0.0000 H   0  0  0  0  0  0  0  0  0  0  0  0
    8.3913   -4.1300    0.0000 H   0  0  0  0  0  0  0  0  0  0  0  0
   10.9842   -4.3430    0.0000 H   0  0  0  0  0  0  0  0  0  0  0  0
    6.5422   -4.5226    0.0000 H   0  0  0  0  0  0  0  0  0  0  0  0
    6.9407   -3.8323    0.0000 H   0  0  0  0  0  0  0  0  0  0  0  0
    5.4641   -1.8200    0.0000 H   0  0  0  0  0  0  0  0  0  0  0  0
   11.1972   -5.7500    0.0000 H   0  0  0  0  0  0  0  0  0  0  0  0
   12.6042   -1.5370    0.0000 H   0  0  0  0  0  0  0  0  0  0  0  0
    8.3913   -5.7500    0.0000 H   0  0  0  0  0  0  0  0  0  0  0  0
   12.6042   -4.3430    0.0000 H   0  0  0  0  0  0  0  0  0  0  0  0
    5.2520   -3.8574    0.0000 H   0  0  0  0  0  0  0  0  0  0  0  0
    4.8535   -4.5477    0.0000 H   0  0  0  0  0  0  0  0  0  0  0  0
    7.5252    3.3700    0.0000 H   0  0  0  0  0  0  0  0  0  0  0  0
    9.7942   -6.5600    0.0000 H   0  0  0  0  0  0  0  0  0  0  0  0
   13.4142   -2.9400    0.0000 H   0  0  0  0  0  0  0  0  0  0  0  0
    3.7320   -3.0600    0.0000 H   0  0  0  0  0  0  0  0  0  0  0  0
    6.7976    4.0850    0.0000 H   0  0  0  0  0  0  0  0  0  0  0  0
    7.5947    4.0850    0.0000 H   0  0  0  0  0  0  0  0  0  0  0  0
    4.3426   -1.5477    0.0000 H   0  0  0  0  0  0  0  0  0  0  0  0
    3.9441   -0.8574    0.0000 H   0  0  0  0  0  0  0  0  0  0  0  0
    2.3291   -2.6300    0.0000 H   0  0  0  0  0  0  0  0  0  0  0  0
    5.4641    3.9400    0.0000 H   0  0  0  0  0  0  0  0  0  0  0  0
    6.8671    6.3700    0.0000 H   0  0  0  0  0  0  0  0  0  0  0  0
    4.5981   -6.5600    0.0000 H   0  0  0  0  0  0  0  0  0  0  0  0
    4.0611    4.7500    0.0000 H   0  0  0  0  0  0  0  0  0  0  0  0
    5.4641    7.1800    0.0000 H   0  0  0  0  0  0  0  0  0  0  0  0
    1.6900   -3.9031    0.0000 H   0  0  0  0  0  0  0  0  0  0  0  0
    1.4631   -4.7500    0.0000 H   0  0  0  0  0  0  0  0  0  0  0  0
    2.3100   -4.9769    0.0000 H   0  0  0  0  0  0  0  0  0  0  0  0
    4.0611    6.3700    0.0000 H   0  0  0  0  0  0  0  0  0  0  0  0
    2.3291    0.3700    0.0000 H   0  0  0  0  0  0  0  0  0  0  0  0
  1 43  1  0  0  0  0
  2 43  1  0  0  0  0
  3 32  2  0  0  0  0
  4 33  2  0  0  0  0
  5 39  2  0  0  0  0
  6 41  2  0  0  0  0
  7 21  1  0  0  0  0
  7 62  1  0  0  0  0
  8 46  1  0  0  0  0
  8119  1  0  0  0  0
  9 46  2  0  0  0  0
 10 47  2  0  0  0  0
 11 61  2  0  0  0  0
 12 64  1  0  0  0  0
 12130  1  0  0  0  0
 13 64  2  0  0  0  0
 14 67  1  0  0  0  0
 14137  1  0  0  0  0
 15 67  2  0  0  0  0
 16 70  2  0  0  0  0
 31 17  1  6  0  0  0
 17 33  1  0  0  0  0
 17 89  1  0  0  0  0
 18 32  1  0  0  0  0
 35 18  1  6  0  0  0
 18 90  1  0  0  0  0
 34 19  1  1  0  0  0
 19 39  1  0  0  0  0
 19 95  1  0  0  0  0
 38 20  1  6  0  0  0
 20 47  1  0  0  0  0
 20103  1  0  0  0  0
 21 41  1  0  0  0  0
 21104  1  0  0  0  0
 48 22  1  6  0  0  0
 22 61  1  0  0  0  0
 22112  1  0  0  0  0
 63 23  1  1  0  0  0
 23 70  1  0  0  0  0
 23127  1  0  0  0  0
 24 25  1  0  0  0  0
 24 26  1  0  0  0  0
 24 27  1  0  0  0  0
 24 75  1  0  0  0  0
 25 28  1  0  0  0  0
 25 76  1  0  0  0  0
 25 77  1  0  0  0  0
 26 29  1  0  0  0  0
 26 78  1  0  0  0  0
 26 79  1  0  0  0  0
 27 31  1  0  0  0  0
 27 80  1  0  0  0  0
 27 81  1  0  0  0  0
 28 30  1  0  0  0  0
 28 82  1  0  0  0  0
 28 83  1  0  0  0  0
 29 30  1  0  0  0  0
 29 84  1  0  0  0  0
 29 85  1  0  0  0  0
 30 86  1  0  0  0  0
 30 87  1  0  0  0  0
 31 32  1  0  0  0  0
 31 88  1  0  0  0  0
 33 34  1  0  0  0  0
 34 36  1  0  0  0  0
 34 91  1  0  0  0  0
 35 37  1  0  0  0  0
 35 41  1  0  0  0  0
 35 92  1  0  0  0  0
 36 40  1  0  0  0  0
 36 93  1  0  0  0  0
 36 94  1  0  0  0  0
 37 43  1  0  0  0  0
 37 96  1  0  0  0  0
 37 97  1  0  0  0  0
 38 39  1  0  0  0  0
 38 42  1  0  0  0  0
 38 98  1  0  0  0  0
 40 46  1  0  0  0  0
 40 99  1  0  0  0  0
 40100  1  0  0  0  0
 42 44  1  0  0  0  0
 42 45  1  0  0  0  0
 42101  1  0  0  0  0
 43102  1  0  0  0  0
 44 49  2  0  0  0  0
 44 51  1  0  0  0  0
 45 50  2  0  0  0  0
 45 52  1  0  0  0  0
 47 48  1  0  0  0  0
 48 53  1  0  0  0  0
 48105  1  0  0  0  0
 49 54  1  0  0  0  0
 49106  1  0  0  0  0
 50 55  1  0  0  0  0
 50107  1  0  0  0  0
 51 56  2  0  0  0  0
 51108  1  0  0  0  0
 52 57  2  0  0  0  0
 52109  1  0  0  0  0
 53 58  1  0  0  0  0
 53110  1  0  0  0  0
 53111  1  0  0  0  0
 54 59  2  0  0  0  0
 54113  1  0  0  0  0
 55 60  2  0  0  0  0
 55114  1  0  0  0  0
 56 59  1  0  0  0  0
 56115  1  0  0  0  0
 57 60  1  0  0  0  0
 57116  1  0  0  0  0
 58 64  1  0  0  0  0
 58117  1  0  0  0  0
 58118  1  0  0  0  0
 59120  1  0  0  0  0
 60121  1  0  0  0  0
 61 63  1  0  0  0  0
 62 66  1  0  0  0  0
 62123  1  0  0  0  0
 62124  1  0  0  0  0
 63 65  1  0  0  0  0
 63122  1  0  0  0  0
 65 67  1  0  0  0  0
 65125  1  0  0  0  0
 65126  1  0  0  0  0
 66 68  2  0  0  0  0
 66 69  1  0  0  0  0
 68 71  1  0  0  0  0
 68128  1  0  0  0  0
 69 72  2  0  0  0  0
 69129  1  0  0  0  0
 70 73  1  0  0  0  0
 71 74  2  0  0  0  0
 71131  1  0  0  0  0
 72 74  1  0  0  0  0
 72132  1  0  0  0  0
 73133  1  0  0  0  0
 73134  1  0  0  0  0
 73135  1  0  0  0  0
 74136  1  0  0  0  0
M  END
> <PUBCHEM_COMPOUND_CID>
503472
> <PUBCHEM_COMPOUND_CANONICALIZED>
1
> <PUBCHEM_CACTVS_COMPLEXITY>
1870
> <PUBCHEM_CACTVS_HBOND_ACCEPTOR>
16
> <PUBCHEM_CACTVS_HBOND_DONOR>
10
> <PUBCHEM_CACTVS_ROTATABLE_BOND>
30
> <PUBCHEM_CACTVS_SUBSKEYS>
AAADcfB/vYAAAAAAAAAAAAAAAAAAAAAAAAAwYMGAAAAAAAABUAAAHwAUCAAADSjhmBYyCILQAgCIAiHSGAACAAAgAAAoiIGICIgIZjqAkTGUcAAm1gGIiAe/3+KOgAAAAAAAAAAAAAAAAAAAAAAAAAAAAA==
> <PUBCHEM_IUPAC_OPENEYE_NAME>
(4S)-4-[[(2S)-2-acetamido-3-carboxy-propanoyl]amino]-5-[[(1S)-1-benzhydryl-2-[[(1S)-1-[[(1S)-2-[[(1S)-1-(benzyloxycarbamoyl)-3,3-difluoro-propyl]amino]-1-(cyclohexylmethyl)-2-oxo-ethyl]carbamoyl]-3-carboxy-propyl]amino]-2-oxo-ethyl]amino]-5-oxo-pentanoic acid
> <PUBCHEM_IUPAC_CAS_NAME>
(4S)-4-[[(2S)-2-acetamido-3-carboxy-1-oxopropyl]amino]-5-[[(2S)-1-[[(2S)-4-carboxy-1-[[(2S)-3-cyclohexyl-1-[[(2S)-4,4-difluoro-1-oxo-1-(phenylmethoxyamino)butan-2-yl]amino]-1-oxopropan-2-yl]amino]-1-oxobutan-2-yl]amino]-1-oxo-3,3-diphenylpropan-2-yl]amino]-5-oxopentanoic acid
> <PUBCHEM_IUPAC_NAME_MARKUP>
(4<I>S</I>)-4-[[(2<I>S</I>)-2-acetamido-3-carboxypropanoyl]amino]-5-[[(2<I>S</I>)-1-[[(2<I>S</I>)-4-carboxy-1-[[(2<I>S</I>)-3-cyclohexyl-1-[[(2<I>S</I>)-4,4-difluoro-1-oxo-1-(phenylmethoxyamino)butan-2-yl]amino]-1-oxopropan-2-yl]amino]-1-oxobutan-2-yl]amino]-1-oxo-3,3-diphenylpropan-2-yl]amino]-5-oxopentanoic acid
> <PUBCHEM_IUPAC_NAME>
(4S)-4-[[(2S)-2-acetamido-3-carboxypropanoyl]amino]-5-[[(2S)-1-[[(2S)-4-carboxy-1-[[(2S)-3-cyclohexyl-1-[[(2S)-4,4-difluoro-1-oxo-1-(phenylmethoxyamino)butan-2-yl]amino]-1-oxopropan-2-yl]amino]-1-oxobutan-2-yl]amino]-1-oxo-3,3-diphenylpropan-2-yl]amino]-5-oxopentanoic acid
> <PUBCHEM_IUPAC_SYSTEMATIC_NAME>
(4S)-4-[[(2S)-2-acetamido-4-oxidanyl-4-oxidanylidene-butanoyl]amino]-5-[[(2S)-1-[[(2S)-1-[[(2S)-1-[[(2S)-4,4-bis(fluoranyl)-1-oxidanylidene-1-(phenylmethoxyamino)butan-2-yl]amino]-3-cyclohexyl-1-oxidanylidene-propan-2-yl]amino]-5-oxidanyl-1,5-bis(oxidanylidene)pentan-2-yl]amino]-1-oxidanylidene-3,3-diphenyl-propan-2-yl]amino]-5-oxidanylidene-pentanoic acid
> <PUBCHEM_IUPAC_TRADITIONAL_NAME>
(4S)-4-[[(2S)-2-acetamido-3-carboxy-propanoyl]amino]-5-[[(1S)-1-benzhydryl-2-[[(1S)-1-[[(1S)-2-[[(1S)-1-(benzoxycarbamoyl)-3,3-difluoro-propyl]amino]-1-(cyclohexylmethyl)-2-keto-ethyl]carbamoyl]-3-carboxy-propyl]amino]-2-keto-ethyl]amino]-5-keto-valeric acid
> <PUBCHEM_IUPAC_INCHI>
InChI=1S/C51H63F2N7O14/c1-30(61)54-39(28-43(66)67)49(71)55-36(23-25-42(64)65)47(69)59-45(44(33-18-10-4-11-19-33)34-20-12-5-13-21-34)51(73)56-35(22-24-41(62)63)46(68)57-37(26-31-14-6-2-7-15-31)48(70)58-38(27-40(52)53)50(72)60-74-29-32-16-8-3-9-17-32/h3-5,8-13,16-21,31,35-40,44-45H,2,6-7,14-15,22-29H2,1H3,(H,54,61)(H,55,71)(H,56,73)(H,57,68)(H,58,70)(H,59,69)(H,60,72)(H,62,63)(H,64,65)(H,66,67)/t35-,36-,37-,38-,39-,45-/m0/s1
> <PUBCHEM_IUPAC_INCHIKEY>
XCUYYOPASQHWDC-FNMDYEDDSA-N
> <PUBCHEM_XLOGP3_AA>
4.3
> <PUBCHEM_EXACT_MASS>
1035.44010603
> <PUBCHEM_MOLECULAR_FORMULA>
C51H63F2N7O14
> <PUBCHEM_MOLECULAR_WEIGHT>
1036.1
> <PUBCHEM_OPENEYE_CAN_SMILES>
CC(=O)NC(CC(=O)O)C(=O)NC(CCC(=O)O)C(=O)NC(C(C1=CC=CC=C1)C2=CC=CC=C2)C(=O)NC(CCC(=O)O)C(=O)NC(CC3CCCCC3)C(=O)NC(CC(F)F)C(=O)NOCC4=CC=CC=C4
> <PUBCHEM_OPENEYE_ISO_SMILES>
CC(=O)N[C@@H](CC(=O)O)C(=O)N[C@@H](CCC(=O)O)C(=O)N[C@@H](C(C1=CC=CC=C1)C2=CC=CC=C2)C(=O)N[C@@H](CCC(=O)O)C(=O)N[C@@H](CC3CCCCC3)C(=O)N[C@@H](CC(F)F)C(=O)NOCC4=CC=CC=C4
> <PUBCHEM_CACTVS_TPSA>
325
> <PUBCHEM_MONOISOTOPIC_WEIGHT>
1035.44010603
> <PUBCHEM_TOTAL_CHARGE>
0
> <PUBCHEM_HEAVY_ATOM_COUNT>
74
> <PUBCHEM_ATOM_DEF_STEREO_COUNT>
6
> <PUBCHEM_ATOM_UDEF_STEREO_COUNT>
0
> <PUBCHEM_BOND_DEF_STEREO_COUNT>
0
> <PUBCHEM_BOND_UDEF_STEREO_COUNT>
0
> <PUBCHEM_ISOTOPIC_ATOM_COUNT>
0
> <PUBCHEM_COMPONENT_COUNT>
1
> <PUBCHEM_CACTVS_TAUTO_COUNT>
-1
> <PUBCHEM_COORDINATE_TYPE>
1
5
255
> <PUBCHEM_BONDANNOTATIONS>
31  17  6
35  18  6
34  19  5
38  20  6
48  22  6
63  23  5
44  49  8
44  51  8
45  50  8
45  52  8
49  54  8
50  55  8
51  56  8
52  57  8
54  59  8
55  60  8
56  59  8
57  60  8
66  68  8
66  69  8
68  71  8
69  72  8
71  74  8
72  74  8
$$$$
