503541
  -OEChem-10302200282D
 93 98  0     1  0  0  0  0  0999 V2000
    9.7942    0.8625    0.0000 S   0  0  0  0  0  0  0  0  0  0  0  0
   11.4693    3.9503    0.0000 O   0  0  0  0  0  0  0  0  0  0  0  0
    7.1962   -1.6374    0.0000 O   0  0  0  0  0  0  0  0  0  0  0  0
    8.9002    3.6413    0.0000 O   0  0  0  0  0  0  0  0  0  0  0  0
    9.5725    5.7104    0.0000 O   0  0  0  0  0  0  0  0  0  0  0  0
    5.4641   -3.6374    0.0000 O   0  0  0  0  0  0  0  0  0  0  0  0
    7.1962   -4.6374    0.0000 O   0  0  0  0  0  0  0  0  0  0  0  0
    9.7942    1.8626    0.0000 O   0  0  0  0  0  0  0  0  0  0  0  0
    8.9282   -1.6374    0.0000 O   0  0  0  0  0  0  0  0  0  0  0  0
    5.4641   -0.6375    0.0000 O   0  0  0  0  0  0  0  0  0  0  0  0
   13.1493    4.6923    0.0000 O   0  0  0  0  0  0  0  0  0  0  0  0
   10.7942    0.8625    0.0000 O   0  0  0  0  0  0  0  0  0  0  0  0
    8.7942    0.8625    0.0000 O   0  0  0  0  0  0  0  0  0  0  0  0
    8.0622   -0.1375    0.0000 O   0  0  0  0  0  0  0  0  0  0  0  0
    4.5981   -2.1374    0.0000 O   0  0  0  0  0  0  0  0  0  0  0  0
    8.9282   -4.6374    0.0000 O   0  0  0  0  0  0  0  0  0  0  0  0
   13.5114    8.1374    0.0000 O   0  0  0  0  0  0  0  0  0  0  0  0
    3.7320   -0.6375    0.0000 O   0  0  0  0  0  0  0  0  0  0  0  0
   11.7480    5.7104    0.0000 N   0  0  0  0  0  0  0  0  0  0  0  0
   13.3303    6.4149    0.0000 N   0  0  0  0  0  0  0  0  0  0  0  0
    9.7942   -0.1375    0.0000 N   0  0  0  0  0  0  0  0  0  0  0  0
    9.8512    3.9503    0.0000 C   0  0  1  0  0  0  0  0  0  0  0  0
   10.1603    4.9014    0.0000 C   0  0  2  0  0  0  0  0  0  0  0  0
   10.6603    3.3626    0.0000 C   0  0  1  0  0  0  0  0  0  0  0  0
   11.1603    4.9014    0.0000 C   0  0  1  0  0  0  0  0  0  0  0  0
    6.3301   -3.1374    0.0000 C   0  0  1  0  0  0  0  0  0  0  0  0
    7.1962   -3.6374    0.0000 C   0  0  1  0  0  0  0  0  0  0  0  0
    6.3301   -2.1374    0.0000 C   0  0  1  0  0  0  0  0  0  0  0  0
    8.0622   -3.1374    0.0000 C   0  0  0  0  0  0  0  0  0  0  0  0
    8.0622   -2.1374    0.0000 C   0  0  2  0  0  0  0  0  0  0  0  0
   10.6603    2.3626    0.0000 C   0  0  0  0  0  0  0  0  0  0  0  0
    5.4641   -1.6374    0.0000 C   0  0  0  0  0  0  0  0  0  0  0  0
   12.7426    5.6059    0.0000 C   0  0  0  0  0  0  0  0  0  0  0  0
   11.3413    6.6240    0.0000 C   0  0  0  0  0  0  0  0  0  0  0  0
   11.9291    7.4330    0.0000 C   0  0  0  0  0  0  0  0  0  0  0  0
    8.9282   -0.6375    0.0000 C   0  0  0  0  0  0  0  0  0  0  0  0
    4.5981   -3.1374    0.0000 C   0  0  0  0  0  0  0  0  0  0  0  0
    8.0622   -5.1374    0.0000 C   0  0  0  0  0  0  0  0  0  0  0  0
   12.9236    7.3284    0.0000 C   0  0  0  0  0  0  0  0  0  0  0  0
    3.7320   -3.6374    0.0000 C   0  0  0  0  0  0  0  0  0  0  0  0
    8.0622   -6.1374    0.0000 C   0  0  0  0  0  0  0  0  0  0  0  0
    4.5981   -0.1375    0.0000 C   0  0  0  0  0  0  0  0  0  0  0  0
    4.5981    0.8625    0.0000 C   0  0  0  0  0  0  0  0  0  0  0  0
    3.7320   -4.6374    0.0000 C   0  0  0  0  0  0  0  0  0  0  0  0
    2.8660   -3.1374    0.0000 C   0  0  0  0  0  0  0  0  0  0  0  0
    8.9282   -6.6374    0.0000 C   0  0  0  0  0  0  0  0  0  0  0  0
    7.1962   -6.6374    0.0000 C   0  0  0  0  0  0  0  0  0  0  0  0
    2.8660   -5.1374    0.0000 C   0  0  0  0  0  0  0  0  0  0  0  0
    2.0000   -3.6374    0.0000 C   0  0  0  0  0  0  0  0  0  0  0  0
    8.9282   -7.6374    0.0000 C   0  0  0  0  0  0  0  0  0  0  0  0
    7.1962   -7.6374    0.0000 C   0  0  0  0  0  0  0  0  0  0  0  0
    5.4641    1.3626    0.0000 C   0  0  0  0  0  0  0  0  0  0  0  0
    3.7320    1.3626    0.0000 C   0  0  0  0  0  0  0  0  0  0  0  0
    2.0000   -4.6374    0.0000 C   0  0  0  0  0  0  0  0  0  0  0  0
    8.0622   -8.1374    0.0000 C   0  0  0  0  0  0  0  0  0  0  0  0
    5.4641    2.3626    0.0000 C   0  0  0  0  0  0  0  0  0  0  0  0
    3.7320    2.3626    0.0000 C   0  0  0  0  0  0  0  0  0  0  0  0
    4.5981    2.8626    0.0000 C   0  0  0  0  0  0  0  0  0  0  0  0
    9.7543    3.3380    0.0000 H   0  0  0  0  0  0  0  0  0  0  0  0
   10.4417    5.4538    0.0000 H   0  0  0  0  0  0  0  0  0  0  0  0
   11.2127    3.0811    0.0000 H   0  0  0  0  0  0  0  0  0  0  0  0
   11.7726    4.8044    0.0000 H   0  0  0  0  0  0  0  0  0  0  0  0
    6.3301   -3.7574    0.0000 H   0  0  0  0  0  0  0  0  0  0  0  0
    7.7331   -3.9474    0.0000 H   0  0  0  0  0  0  0  0  0  0  0  0
    6.3301   -1.5174    0.0000 H   0  0  0  0  0  0  0  0  0  0  0  0
    8.2742   -3.7201    0.0000 H   0  0  0  0  0  0  0  0  0  0  0  0
    8.6728   -3.0298    0.0000 H   0  0  0  0  0  0  0  0  0  0  0  0
    8.5991   -2.4474    0.0000 H   0  0  0  0  0  0  0  0  0  0  0  0
   10.8723    1.7799    0.0000 H   0  0  0  0  0  0  0  0  0  0  0  0
   11.2708    2.4702    0.0000 H   0  0  0  0  0  0  0  0  0  0  0  0
    4.8535   -1.5298    0.0000 H   0  0  0  0  0  0  0  0  0  0  0  0
    5.2520   -2.2201    0.0000 H   0  0  0  0  0  0  0  0  0  0  0  0
    8.4394    4.0562    0.0000 H   0  0  0  0  0  0  0  0  0  0  0  0
    8.9559    5.6456    0.0000 H   0  0  0  0  0  0  0  0  0  0  0  0
   10.7247    6.6888    0.0000 H   0  0  0  0  0  0  0  0  0  0  0  0
   13.9469    6.3501    0.0000 H   0  0  0  0  0  0  0  0  0  0  0  0
   11.6769    7.9994    0.0000 H   0  0  0  0  0  0  0  0  0  0  0  0
   10.3312   -0.4475    0.0000 H   0  0  0  0  0  0  0  0  0  0  0  0
    4.2690   -4.9474    0.0000 H   0  0  0  0  0  0  0  0  0  0  0  0
    2.8660   -2.5175    0.0000 H   0  0  0  0  0  0  0  0  0  0  0  0
    9.4651   -6.3275    0.0000 H   0  0  0  0  0  0  0  0  0  0  0  0
    6.6592   -6.3275    0.0000 H   0  0  0  0  0  0  0  0  0  0  0  0
    2.8660   -5.7575    0.0000 H   0  0  0  0  0  0  0  0  0  0  0  0
    1.4631   -3.3275    0.0000 H   0  0  0  0  0  0  0  0  0  0  0  0
    9.4651   -7.9474    0.0000 H   0  0  0  0  0  0  0  0  0  0  0  0
    6.6592   -7.9474    0.0000 H   0  0  0  0  0  0  0  0  0  0  0  0
    6.0010    1.0526    0.0000 H   0  0  0  0  0  0  0  0  0  0  0  0
    3.1951    1.0526    0.0000 H   0  0  0  0  0  0  0  0  0  0  0  0
    1.4631   -4.9474    0.0000 H   0  0  0  0  0  0  0  0  0  0  0  0
    8.0622   -8.7574    0.0000 H   0  0  0  0  0  0  0  0  0  0  0  0
    6.0010    2.6725    0.0000 H   0  0  0  0  0  0  0  0  0  0  0  0
    3.1951    2.6725    0.0000 H   0  0  0  0  0  0  0  0  0  0  0  0
    4.5981    3.4825    0.0000 H   0  0  0  0  0  0  0  0  0  0  0  0
  1  8  1  0  0  0  0
  1 12  2  0  0  0  0
  1 13  2  0  0  0  0
  1 21  1  0  0  0  0
  2 24  1  0  0  0  0
  2 25  1  0  0  0  0
  3 28  1  0  0  0  0
  3 30  1  0  0  0  0
 22  4  1  1  0  0  0
  4 73  1  0  0  0  0
 23  5  1  1  0  0  0
  5 74  1  0  0  0  0
 26  6  1  6  0  0  0
  6 37  1  0  0  0  0
 27  7  1  1  0  0  0
  7 38  1  0  0  0  0
  8 31  1  0  0  0  0
 30  9  1  6  0  0  0
  9 36  1  0  0  0  0
 10 32  1  0  0  0  0
 10 42  1  0  0  0  0
 11 33  2  0  0  0  0
 14 36  2  0  0  0  0
 15 37  2  0  0  0  0
 16 38  2  0  0  0  0
 17 39  2  0  0  0  0
 18 42  2  0  0  0  0
 25 19  1  6  0  0  0
 19 33  1  0  0  0  0
 19 34  1  0  0  0  0
 20 33  1  0  0  0  0
 20 39  1  0  0  0  0
 20 76  1  0  0  0  0
 21 36  1  0  0  0  0
 21 78  1  0  0  0  0
 22 23  1  0  0  0  0
 22 24  1  0  0  0  0
 22 59  1  0  0  0  0
 23 25  1  0  0  0  0
 23 60  1  0  0  0  0
 24 31  1  6  0  0  0
 24 61  1  0  0  0  0
 25 62  1  0  0  0  0
 26 27  1  0  0  0  0
 26 28  1  0  0  0  0
 26 63  1  0  0  0  0
 27 29  1  0  0  0  0
 27 64  1  0  0  0  0
 28 32  1  1  0  0  0
 28 65  1  0  0  0  0
 29 30  1  0  0  0  0
 29 66  1  0  0  0  0
 29 67  1  0  0  0  0
 30 68  1  0  0  0  0
 31 69  1  0  0  0  0
 31 70  1  0  0  0  0
 32 71  1  0  0  0  0
 32 72  1  0  0  0  0
 34 35  2  0  0  0  0
 34 75  1  0  0  0  0
 35 39  1  0  0  0  0
 35 77  1  0  0  0  0
 37 40  1  0  0  0  0
 38 41  1  0  0  0  0
 40 44  2  0  0  0  0
 40 45  1  0  0  0  0
 41 46  2  0  0  0  0
 41 47  1  0  0  0  0
 42 43  1  0  0  0  0
 43 52  2  0  0  0  0
 43 53  1  0  0  0  0
 44 48  1  0  0  0  0
 44 79  1  0  0  0  0
 45 49  2  0  0  0  0
 45 80  1  0  0  0  0
 46 50  1  0  0  0  0
 46 81  1  0  0  0  0
 47 51  2  0  0  0  0
 47 82  1  0  0  0  0
 48 54  2  0  0  0  0
 48 83  1  0  0  0  0
 49 54  1  0  0  0  0
 49 84  1  0  0  0  0
 50 55  2  0  0  0  0
 50 85  1  0  0  0  0
 51 55  1  0  0  0  0
 51 86  1  0  0  0  0
 52 56  1  0  0  0  0
 52 87  1  0  0  0  0
 53 57  2  0  0  0  0
 53 88  1  0  0  0  0
 54 89  1  0  0  0  0
 55 90  1  0  0  0  0
 56 58  2  0  0  0  0
 56 91  1  0  0  0  0
 57 58  1  0  0  0  0
 57 92  1  0  0  0  0
 58 93  1  0  0  0  0
M  END
> <PUBCHEM_COMPOUND_CID>
503541
> <PUBCHEM_COMPOUND_CANONICALIZED>
1
> <PUBCHEM_CACTVS_COMPLEXITY>
1640
> <PUBCHEM_CACTVS_HBOND_ACCEPTOR>
17
> <PUBCHEM_CACTVS_HBOND_DONOR>
4
> <PUBCHEM_CACTVS_ROTATABLE_BOND>
17
> <PUBCHEM_CACTVS_SUBSKEYS>
AAADcfB/PgBAAAAAAAAAAAAAAAAAASAAAAA0YMECAAAAAAABUAAAHgAQSAAADBTxmAcxCIPABgCIAiHWWDCCAAAkAgAIiAEICMmbNjKAtRiucQAv1yMfqcf4+C6OAAAAAAAAAAAAAAAAAAAAAAAAAAAAAA==
> <PUBCHEM_IUPAC_OPENEYE_NAME>
[(2R,3S,4R,6R)-3,4-dibenzoyloxy-6-[[(2R,3S,4R,5R)-5-(2,4-dioxopyrimidin-1-yl)-3,4-dihydroxy-tetrahydrofuran-2-yl]methoxysulfonylcarbamoyloxy]tetrahydropyran-2-yl]methyl benzoate
> <PUBCHEM_IUPAC_CAS_NAME>
benzoic acid [(2R,3S,4R,6R)-3,4-dibenzoyloxy-6-[[[(2R,3S,4R,5R)-5-(2,4-dioxo-1-pyrimidinyl)-3,4-dihydroxy-2-oxolanyl]methoxysulfonylamino]-oxomethoxy]-2-oxanyl]methyl ester
> <PUBCHEM_IUPAC_NAME_MARKUP>
[(2<I>R</I>,3<I>S</I>,4<I>R</I>,6<I>R</I>)-3,4-dibenzoyloxy-6-[[(2<I>R</I>,3<I>S</I>,4<I>R</I>,5<I>R</I>)-5-(2,4-dioxopyrimidin-1-yl)-3,4-dihydroxyoxolan-2-yl]methoxysulfonylcarbamoyloxy]oxan-2-yl]methyl benzoate
> <PUBCHEM_IUPAC_NAME>
[(2R,3S,4R,6R)-3,4-dibenzoyloxy-6-[[(2R,3S,4R,5R)-5-(2,4-dioxopyrimidin-1-yl)-3,4-dihydroxyoxolan-2-yl]methoxysulfonylcarbamoyloxy]oxan-2-yl]methyl benzoate
> <PUBCHEM_IUPAC_SYSTEMATIC_NAME>
[(2R,3S,4R,6R)-6-[[(2R,3S,4R,5R)-5-[2,4-bis(oxidanylidene)pyrimidin-1-yl]-3,4-bis(oxidanyl)oxolan-2-yl]methoxysulfonylcarbamoyloxy]-3,4-bis(phenylcarbonyloxy)oxan-2-yl]methyl benzoate
> <PUBCHEM_IUPAC_TRADITIONAL_NAME>
benzoic acid [(2R,3S,4R,6R)-3,4-dibenzoyloxy-6-[[(2R,3S,4R,5R)-5-(2,4-diketopyrimidin-1-yl)-3,4-dihydroxy-tetrahydrofuran-2-yl]methoxysulfonylcarbamoyloxy]tetrahydropyran-2-yl]methyl ester
> <PUBCHEM_IUPAC_INCHI>
InChI=1S/C37H35N3O17S/c41-27-16-17-40(36(47)38-27)32-30(43)29(42)25(54-32)20-52-58(49,50)39-37(48)56-28-18-24(55-34(45)22-12-6-2-7-13-22)31(57-35(46)23-14-8-3-9-15-23)26(53-28)19-51-33(44)21-10-4-1-5-11-21/h1-17,24-26,28-32,42-43H,18-20H2,(H,39,48)(H,38,41,47)/t24-,25-,26-,28-,29-,30-,31+,32-/m1/s1
> <PUBCHEM_IUPAC_INCHIKEY>
YVLBEMOZOIAIMQ-XYJWIKCJSA-N
> <PUBCHEM_XLOGP3_AA>
2.2
> <PUBCHEM_EXACT_MASS>
825.16871783
> <PUBCHEM_MOLECULAR_FORMULA>
C37H35N3O17S
> <PUBCHEM_MOLECULAR_WEIGHT>
825.7
> <PUBCHEM_OPENEYE_CAN_SMILES>
C1C(C(C(OC1OC(=O)NS(=O)(=O)OCC2C(C(C(O2)N3C=CC(=O)NC3=O)O)O)COC(=O)C4=CC=CC=C4)OC(=O)C5=CC=CC=C5)OC(=O)C6=CC=CC=C6
> <PUBCHEM_OPENEYE_ISO_SMILES>
C1[C@H]([C@@H]([C@H](O[C@@H]1OC(=O)NS(=O)(=O)OC[C@@H]2[C@H]([C@H]([C@@H](O2)N3C=CC(=O)NC3=O)O)O)COC(=O)C4=CC=CC=C4)OC(=O)C5=CC=CC=C5)OC(=O)C6=CC=CC=C6
> <PUBCHEM_CACTVS_TPSA>
277
> <PUBCHEM_MONOISOTOPIC_WEIGHT>
825.16871783
> <PUBCHEM_TOTAL_CHARGE>
0
> <PUBCHEM_HEAVY_ATOM_COUNT>
58
> <PUBCHEM_ATOM_DEF_STEREO_COUNT>
8
> <PUBCHEM_ATOM_UDEF_STEREO_COUNT>
0
> <PUBCHEM_BOND_DEF_STEREO_COUNT>
0
> <PUBCHEM_BOND_UDEF_STEREO_COUNT>
0
> <PUBCHEM_ISOTOPIC_ATOM_COUNT>
0
> <PUBCHEM_COMPONENT_COUNT>
1
> <PUBCHEM_CACTVS_TAUTO_COUNT>
-1
> <PUBCHEM_COORDINATE_TYPE>
1
5
255
> <PUBCHEM_BONDANNOTATIONS>
25  19  6
19  33  8
19  34  8
20  33  8
20  39  8
24  31  6
28  32  5
34  35  8
35  39  8
22  4  5
40  44  8
40  45  8
41  46  8
41  47  8
43  52  8
43  53  8
44  48  8
45  49  8
46  50  8
47  51  8
48  54  8
49  54  8
23  5  5
50  55  8
51  55  8
52  56  8
53  57  8
56  58  8
57  58  8
26  6  6
27  7  5
30  9  6
$$$$
