503547
  -OEChem-10302200282D
117123  0     1  0  0  0  0  0999 V2000
    9.7942    0.8625    0.0000 S   0  0  0  0  0  0  0  0  0  0  0  0
    7.1962   -1.6374    0.0000 O   0  0  0  0  0  0  0  0  0  0  0  0
    7.1962   -4.6374    0.0000 O   0  0  0  0  0  0  0  0  0  0  0  0
    5.4641   -3.6374    0.0000 O   0  0  0  0  0  0  0  0  0  0  0  0
    8.9282   -3.6374    0.0000 O   0  0  0  0  0  0  0  0  0  0  0  0
    9.8512    3.9503    0.0000 O   0  0  0  0  0  0  0  0  0  0  0  0
    8.9282   -1.6374    0.0000 O   0  0  0  0  0  0  0  0  0  0  0  0
    5.4641   -0.6375    0.0000 O   0  0  0  0  0  0  0  0  0  0  0  0
   12.4203    3.6413    0.0000 O   0  0  0  0  0  0  0  0  0  0  0  0
    9.7942    1.8626    0.0000 O   0  0  0  0  0  0  0  0  0  0  0  0
    8.0622   -0.1375    0.0000 O   0  0  0  0  0  0  0  0  0  0  0  0
   10.9737    6.7285    0.0000 O   0  0  0  0  0  0  0  0  0  0  0  0
   10.7942    0.8625    0.0000 O   0  0  0  0  0  0  0  0  0  0  0  0
    8.7942    0.8625    0.0000 O   0  0  0  0  0  0  0  0  0  0  0  0
   12.9556    5.2886    0.0000 O   0  0  0  0  0  0  0  0  0  0  0  0
    7.8091    8.1374    0.0000 O   0  0  0  0  0  0  0  0  0  0  0  0
    9.5725    5.7104    0.0000 N   0  0  0  0  0  0  0  0  0  0  0  0
    9.7942   -0.1375    0.0000 N   0  0  0  0  0  0  0  0  0  0  0  0
    9.3914    7.4330    0.0000 N   0  0  0  0  0  0  0  0  0  0  0  0
    7.1962   -3.6374    0.0000 C   0  0  1  0  0  0  0  0  0  0  0  0
    6.3301   -3.1374    0.0000 C   0  0  1  0  0  0  0  0  0  0  0  0
    8.0622   -3.1374    0.0000 C   0  0  2  0  0  0  0  0  0  0  0  0
    6.3301   -2.1374    0.0000 C   0  0  1  0  0  0  0  0  0  0  0  0
    8.0622   -2.1374    0.0000 C   0  0  2  0  0  0  0  0  0  0  0  0
    5.4641   -1.6374    0.0000 C   0  0  0  0  0  0  0  0  0  0  0  0
   11.4693    3.9503    0.0000 C   0  0  2  0  0  0  0  0  0  0  0  0
   10.6603    3.3626    0.0000 C   0  0  1  0  0  0  0  0  0  0  0  0
   11.1603    4.9014    0.0000 C   0  0  0  0  0  0  0  0  0  0  0  0
   10.1603    4.9014    0.0000 C   0  0  1  0  0  0  0  0  0  0  0  0
   10.6603    2.3626    0.0000 C   0  0  0  0  0  0  0  0  0  0  0  0
    6.3301   -5.1374    0.0000 C   0  0  0  0  0  0  0  0  0  0  0  0
    4.5981   -3.1374    0.0000 C   0  0  0  0  0  0  0  0  0  0  0  0
    9.7942   -3.1374    0.0000 C   0  0  0  0  0  0  0  0  0  0  0  0
    8.9282   -0.6375    0.0000 C   0  0  0  0  0  0  0  0  0  0  0  0
    8.5780    5.6059    0.0000 C   0  0  0  0  0  0  0  0  0  0  0  0
    6.3301   -6.1374    0.0000 C   0  0  0  0  0  0  0  0  0  0  0  0
    3.7320   -3.6374    0.0000 C   0  0  0  0  0  0  0  0  0  0  0  0
    9.9792    6.6240    0.0000 C   0  0  0  0  0  0  0  0  0  0  0  0
    4.5981   -0.1375    0.0000 C   0  0  0  0  0  0  0  0  0  0  0  0
   10.6603   -3.6374    0.0000 C   0  0  0  0  0  0  0  0  0  0  0  0
    7.9902    6.4149    0.0000 C   0  0  0  0  0  0  0  0  0  0  0  0
   13.1635    4.3104    0.0000 C   0  0  0  0  0  0  0  0  0  0  0  0
    8.3969    7.3284    0.0000 C   0  0  0  0  0  0  0  0  0  0  0  0
    4.5981    0.8625    0.0000 C   0  0  0  0  0  0  0  0  0  0  0  0
    7.1962   -6.6374    0.0000 C   0  0  0  0  0  0  0  0  0  0  0  0
    5.4641   -6.6374    0.0000 C   0  0  0  0  0  0  0  0  0  0  0  0
    3.7320   -4.6374    0.0000 C   0  0  0  0  0  0  0  0  0  0  0  0
    2.8660   -3.1374    0.0000 C   0  0  0  0  0  0  0  0  0  0  0  0
   10.6603   -4.6374    0.0000 C   0  0  0  0  0  0  0  0  0  0  0  0
   11.5263   -3.1374    0.0000 C   0  0  0  0  0  0  0  0  0  0  0  0
    6.9956    6.3104    0.0000 C   0  0  0  0  0  0  0  0  0  0  0  0
   14.1145    4.0014    0.0000 C   0  0  0  0  0  0  0  0  0  0  0  0
    7.1962   -7.6374    0.0000 C   0  0  0  0  0  0  0  0  0  0  0  0
    5.4641   -7.6374    0.0000 C   0  0  0  0  0  0  0  0  0  0  0  0
    2.8660   -5.1374    0.0000 C   0  0  0  0  0  0  0  0  0  0  0  0
    2.0000   -3.6374    0.0000 C   0  0  0  0  0  0  0  0  0  0  0  0
   11.5263   -5.1374    0.0000 C   0  0  0  0  0  0  0  0  0  0  0  0
   12.3923   -3.6374    0.0000 C   0  0  0  0  0  0  0  0  0  0  0  0
    3.7320    1.3626    0.0000 C   0  0  0  0  0  0  0  0  0  0  0  0
    5.4641    1.3626    0.0000 C   0  0  0  0  0  0  0  0  0  0  0  0
    6.3301   -8.1374    0.0000 C   0  0  0  0  0  0  0  0  0  0  0  0
    2.0000   -4.6374    0.0000 C   0  0  0  0  0  0  0  0  0  0  0  0
   12.3923   -4.6374    0.0000 C   0  0  0  0  0  0  0  0  0  0  0  0
    3.7320    2.3626    0.0000 C   0  0  0  0  0  0  0  0  0  0  0  0
    5.4641    2.3626    0.0000 C   0  0  0  0  0  0  0  0  0  0  0  0
    4.5981    2.8626    0.0000 C   0  0  0  0  0  0  0  0  0  0  0  0
    6.6592   -3.9474    0.0000 H   0  0  0  0  0  0  0  0  0  0  0  0
    6.3301   -3.7574    0.0000 H   0  0  0  0  0  0  0  0  0  0  0  0
    8.0622   -3.7574    0.0000 H   0  0  0  0  0  0  0  0  0  0  0  0
    6.3301   -1.5174    0.0000 H   0  0  0  0  0  0  0  0  0  0  0  0
    8.5991   -2.4474    0.0000 H   0  0  0  0  0  0  0  0  0  0  0  0
   11.5663    3.3380    0.0000 H   0  0  0  0  0  0  0  0  0  0  0  0
    4.8535   -1.5298    0.0000 H   0  0  0  0  0  0  0  0  0  0  0  0
    5.2520   -2.2201    0.0000 H   0  0  0  0  0  0  0  0  0  0  0  0
   10.1078    3.0811    0.0000 H   0  0  0  0  0  0  0  0  0  0  0  0
   11.7667    5.0303    0.0000 H   0  0  0  0  0  0  0  0  0  0  0  0
   11.0954    5.5180    0.0000 H   0  0  0  0  0  0  0  0  0  0  0  0
   10.4417    5.4538    0.0000 H   0  0  0  0  0  0  0  0  0  0  0  0
   10.8723    1.7799    0.0000 H   0  0  0  0  0  0  0  0  0  0  0  0
   11.2708    2.4702    0.0000 H   0  0  0  0  0  0  0  0  0  0  0  0
    6.1181   -4.5548    0.0000 H   0  0  0  0  0  0  0  0  0  0  0  0
    5.7196   -5.2451    0.0000 H   0  0  0  0  0  0  0  0  0  0  0  0
    4.9966   -2.6625    0.0000 H   0  0  0  0  0  0  0  0  0  0  0  0
    4.1996   -2.6625    0.0000 H   0  0  0  0  0  0  0  0  0  0  0  0
   10.1928   -2.6625    0.0000 H   0  0  0  0  0  0  0  0  0  0  0  0
    9.3957   -2.6625    0.0000 H   0  0  0  0  0  0  0  0  0  0  0  0
    8.3258    5.0395    0.0000 H   0  0  0  0  0  0  0  0  0  0  0  0
    3.9875   -0.0298    0.0000 H   0  0  0  0  0  0  0  0  0  0  0  0
    4.3860   -0.7201    0.0000 H   0  0  0  0  0  0  0  0  0  0  0  0
   10.3312   -0.4475    0.0000 H   0  0  0  0  0  0  0  0  0  0  0  0
    9.6436    7.9994    0.0000 H   0  0  0  0  0  0  0  0  0  0  0  0
    7.7331   -6.3275    0.0000 H   0  0  0  0  0  0  0  0  0  0  0  0
    4.9272   -6.3275    0.0000 H   0  0  0  0  0  0  0  0  0  0  0  0
    4.2690   -4.9474    0.0000 H   0  0  0  0  0  0  0  0  0  0  0  0
    2.8660   -2.5175    0.0000 H   0  0  0  0  0  0  0  0  0  0  0  0
   10.1233   -4.9474    0.0000 H   0  0  0  0  0  0  0  0  0  0  0  0
   11.5263   -2.5175    0.0000 H   0  0  0  0  0  0  0  0  0  0  0  0
    6.9308    6.9270    0.0000 H   0  0  0  0  0  0  0  0  0  0  0  0
    6.3790    6.2456    0.0000 H   0  0  0  0  0  0  0  0  0  0  0  0
    7.0604    5.6938    0.0000 H   0  0  0  0  0  0  0  0  0  0  0  0
   13.9229    3.4118    0.0000 H   0  0  0  0  0  0  0  0  0  0  0  0
   14.7042    3.8098    0.0000 H   0  0  0  0  0  0  0  0  0  0  0  0
   14.3061    4.5911    0.0000 H   0  0  0  0  0  0  0  0  0  0  0  0
    7.7331   -7.9474    0.0000 H   0  0  0  0  0  0  0  0  0  0  0  0
    4.9272   -7.9474    0.0000 H   0  0  0  0  0  0  0  0  0  0  0  0
    2.8660   -5.7575    0.0000 H   0  0  0  0  0  0  0  0  0  0  0  0
    1.4631   -3.3275    0.0000 H   0  0  0  0  0  0  0  0  0  0  0  0
   11.5263   -5.7575    0.0000 H   0  0  0  0  0  0  0  0  0  0  0  0
   12.9292   -3.3274    0.0000 H   0  0  0  0  0  0  0  0  0  0  0  0
    3.1951    1.0526    0.0000 H   0  0  0  0  0  0  0  0  0  0  0  0
    6.0010    1.0526    0.0000 H   0  0  0  0  0  0  0  0  0  0  0  0
    6.3301   -8.7574    0.0000 H   0  0  0  0  0  0  0  0  0  0  0  0
    1.4631   -4.9474    0.0000 H   0  0  0  0  0  0  0  0  0  0  0  0
   12.9292   -4.9474    0.0000 H   0  0  0  0  0  0  0  0  0  0  0  0
    3.1951    2.6726    0.0000 H   0  0  0  0  0  0  0  0  0  0  0  0
    6.0010    2.6726    0.0000 H   0  0  0  0  0  0  0  0  0  0  0  0
    4.5981    3.4826    0.0000 H   0  0  0  0  0  0  0  0  0  0  0  0
  1 10  1  0  0  0  0
  1 13  2  0  0  0  0
  1 14  2  0  0  0  0
  1 18  1  0  0  0  0
  2 23  1  0  0  0  0
  2 24  1  0  0  0  0
 20  3  1  1  0  0  0
  3 31  1  0  0  0  0
 21  4  1  6  0  0  0
  4 32  1  0  0  0  0
 22  5  1  6  0  0  0
  5 33  1  0  0  0  0
  6 27  1  0  0  0  0
  6 29  1  0  0  0  0
 24  7  1  6  0  0  0
  7 34  1  0  0  0  0
  8 25  1  0  0  0  0
  8 39  1  0  0  0  0
 26  9  1  6  0  0  0
  9 42  1  0  0  0  0
 10 30  1  0  0  0  0
 11 34  2  0  0  0  0
 12 38  2  0  0  0  0
 15 42  2  0  0  0  0
 16 43  2  0  0  0  0
 29 17  1  1  0  0  0
 17 35  1  0  0  0  0
 17 38  1  0  0  0  0
 18 34  1  0  0  0  0
 18 90  1  0  0  0  0
 19 38  1  0  0  0  0
 19 43  1  0  0  0  0
 19 91  1  0  0  0  0
 20 21  1  0  0  0  0
 20 22  1  0  0  0  0
 20 67  1  0  0  0  0
 21 23  1  0  0  0  0
 21 68  1  0  0  0  0
 22 24  1  0  0  0  0
 22 69  1  0  0  0  0
 23 25  1  1  0  0  0
 23 70  1  0  0  0  0
 24 71  1  0  0  0  0
 25 73  1  0  0  0  0
 25 74  1  0  0  0  0
 26 27  1  0  0  0  0
 26 28  1  0  0  0  0
 26 72  1  0  0  0  0
 27 30  1  1  0  0  0
 27 75  1  0  0  0  0
 28 29  1  0  0  0  0
 28 76  1  0  0  0  0
 28 77  1  0  0  0  0
 29 78  1  0  0  0  0
 30 79  1  0  0  0  0
 30 80  1  0  0  0  0
 31 36  1  0  0  0  0
 31 81  1  0  0  0  0
 31 82  1  0  0  0  0
 32 37  1  0  0  0  0
 32 83  1  0  0  0  0
 32 84  1  0  0  0  0
 33 40  1  0  0  0  0
 33 85  1  0  0  0  0
 33 86  1  0  0  0  0
 35 41  2  0  0  0  0
 35 87  1  0  0  0  0
 36 45  2  0  0  0  0
 36 46  1  0  0  0  0
 37 47  2  0  0  0  0
 37 48  1  0  0  0  0
 39 44  1  0  0  0  0
 39 88  1  0  0  0  0
 39 89  1  0  0  0  0
 40 49  2  0  0  0  0
 40 50  1  0  0  0  0
 41 43  1  0  0  0  0
 41 51  1  0  0  0  0
 42 52  1  0  0  0  0
 44 59  2  0  0  0  0
 44 60  1  0  0  0  0
 45 53  1  0  0  0  0
 45 92  1  0  0  0  0
 46 54  2  0  0  0  0
 46 93  1  0  0  0  0
 47 55  1  0  0  0  0
 47 94  1  0  0  0  0
 48 56  2  0  0  0  0
 48 95  1  0  0  0  0
 49 57  1  0  0  0  0
 49 96  1  0  0  0  0
 50 58  2  0  0  0  0
 50 97  1  0  0  0  0
 51 98  1  0  0  0  0
 51 99  1  0  0  0  0
 51100  1  0  0  0  0
 52101  1  0  0  0  0
 52102  1  0  0  0  0
 52103  1  0  0  0  0
 53 61  2  0  0  0  0
 53104  1  0  0  0  0
 54 61  1  0  0  0  0
 54105  1  0  0  0  0
 55 62  2  0  0  0  0
 55106  1  0  0  0  0
 56 62  1  0  0  0  0
 56107  1  0  0  0  0
 57 63  2  0  0  0  0
 57108  1  0  0  0  0
 58 63  1  0  0  0  0
 58109  1  0  0  0  0
 59 64  1  0  0  0  0
 59110  1  0  0  0  0
 60 65  2  0  0  0  0
 60111  1  0  0  0  0
 61112  1  0  0  0  0
 62113  1  0  0  0  0
 63114  1  0  0  0  0
 64 66  2  0  0  0  0
 64115  1  0  0  0  0
 65 66  1  0  0  0  0
 65116  1  0  0  0  0
 66117  1  0  0  0  0
M  END
> <PUBCHEM_COMPOUND_CID>
503547
> <PUBCHEM_COMPOUND_CANONICALIZED>
1
> <PUBCHEM_CACTVS_COMPLEXITY>
1720
> <PUBCHEM_CACTVS_HBOND_ACCEPTOR>
15
> <PUBCHEM_CACTVS_HBOND_DONOR>
2
> <PUBCHEM_CACTVS_ROTATABLE_BOND>
22
> <PUBCHEM_CACTVS_SUBSKEYS>
AAADcfB/PABAAAAAAAAAAAAAAAAAASAAAAA0YMGCAAAAAAABVAAAHgAQQAAADBTxmAczCIPABACIAiHWWDCCAAAgAAAIiAEICMmZJiKAsRiuMAAvxyMOqMfw8C4OAAAAAAAAAAAAAAAAAAAAAAAAAAAAAA==
> <PUBCHEM_IUPAC_OPENEYE_NAME>
[(2R,3S,5R)-5-(5-methyl-2,4-dioxo-pyrimidin-1-yl)-2-[[(2R,3R,4S,5R,6R)-3,4,5-tribenzyloxy-6-(benzyloxymethyl)tetrahydropyran-2-yl]oxycarbonylsulfamoyloxymethyl]tetrahydrofuran-3-yl] acetate
> <PUBCHEM_IUPAC_CAS_NAME>
acetic acid [(2R,3S,5R)-5-(5-methyl-2,4-dioxo-1-pyrimidinyl)-2-[[oxo-[[(2R,3R,4S,5R,6R)-3,4,5-tris(phenylmethoxy)-6-(phenylmethoxymethyl)-2-oxanyl]oxy]methyl]sulfamoyloxymethyl]-3-oxolanyl] ester
> <PUBCHEM_IUPAC_NAME_MARKUP>
[(2<I>R</I>,3<I>S</I>,5<I>R</I>)-5-(5-methyl-2,4-dioxopyrimidin-1-yl)-2-[[(2<I>R</I>,3<I>R</I>,4<I>S</I>,5<I>R</I>,6<I>R</I>)-3,4,5-tris(phenylmethoxy)-6-(phenylmethoxymethyl)oxan-2-yl]oxycarbonylsulfamoyloxymethyl]oxolan-3-yl] acetate
> <PUBCHEM_IUPAC_NAME>
[(2R,3S,5R)-5-(5-methyl-2,4-dioxopyrimidin-1-yl)-2-[[(2R,3R,4S,5R,6R)-3,4,5-tris(phenylmethoxy)-6-(phenylmethoxymethyl)oxan-2-yl]oxycarbonylsulfamoyloxymethyl]oxolan-3-yl] acetate
> <PUBCHEM_IUPAC_SYSTEMATIC_NAME>
[(2R,3S,5R)-5-[5-methyl-2,4-bis(oxidanylidene)pyrimidin-1-yl]-2-[[(2R,3R,4S,5R,6R)-3,4,5-tris(phenylmethoxy)-6-(phenylmethoxymethyl)oxan-2-yl]oxycarbonylsulfamoyloxymethyl]oxolan-3-yl] ethanoate
> <PUBCHEM_IUPAC_TRADITIONAL_NAME>
acetic acid [(2R,3S,5R)-5-(2,4-diketo-5-methyl-pyrimidin-1-yl)-2-[[(2R,3R,4S,5R,6R)-3,4,5-tribenzoxy-6-(benzoxymethyl)tetrahydropyran-2-yl]oxycarbonylsulfamoyloxymethyl]tetrahydrofuran-3-yl] ester
> <PUBCHEM_IUPAC_INCHI>
InChI=1S/C47H51N3O15S/c1-31-24-50(46(53)48-44(31)52)40-23-37(62-32(2)51)38(63-40)30-61-66(55,56)49-47(54)65-45-43(60-28-36-21-13-6-14-22-36)42(59-27-35-19-11-5-12-20-35)41(58-26-34-17-9-4-10-18-34)39(64-45)29-57-25-33-15-7-3-8-16-33/h3-22,24,37-43,45H,23,25-30H2,1-2H3,(H,49,54)(H,48,52,53)/t37-,38+,39+,40+,41+,42-,43+,45+/m0/s1
> <PUBCHEM_IUPAC_INCHIKEY>
AAILAAOQVAOLFD-RYDIJBBESA-N
> <PUBCHEM_XLOGP3_AA>
4.5
> <PUBCHEM_EXACT_MASS>
929.30408910
> <PUBCHEM_MOLECULAR_FORMULA>
C47H51N3O15S
> <PUBCHEM_MOLECULAR_WEIGHT>
930.0
> <PUBCHEM_OPENEYE_CAN_SMILES>
CC1=CN(C(=O)NC1=O)C2CC(C(O2)COS(=O)(=O)NC(=O)OC3C(C(C(C(O3)COCC4=CC=CC=C4)OCC5=CC=CC=C5)OCC6=CC=CC=C6)OCC7=CC=CC=C7)OC(=O)C
> <PUBCHEM_OPENEYE_ISO_SMILES>
CC1=CN(C(=O)NC1=O)[C@H]2C[C@@H]([C@H](O2)COS(=O)(=O)NC(=O)O[C@@H]3[C@@H]([C@H]([C@@H]([C@H](O3)COCC4=CC=CC=C4)OCC5=CC=CC=C5)OCC6=CC=CC=C6)OCC7=CC=CC=C7)OC(=O)C
> <PUBCHEM_CACTVS_TPSA>
221
> <PUBCHEM_MONOISOTOPIC_WEIGHT>
929.30408910
> <PUBCHEM_TOTAL_CHARGE>
0
> <PUBCHEM_HEAVY_ATOM_COUNT>
66
> <PUBCHEM_ATOM_DEF_STEREO_COUNT>
8
> <PUBCHEM_ATOM_UDEF_STEREO_COUNT>
0
> <PUBCHEM_BOND_DEF_STEREO_COUNT>
0
> <PUBCHEM_BOND_UDEF_STEREO_COUNT>
0
> <PUBCHEM_ISOTOPIC_ATOM_COUNT>
0
> <PUBCHEM_COMPONENT_COUNT>
1
> <PUBCHEM_CACTVS_TAUTO_COUNT>
-1
> <PUBCHEM_COORDINATE_TYPE>
1
5
255
> <PUBCHEM_BONDANNOTATIONS>
29  17  5
17  35  8
17  38  8
19  38  8
19  43  8
23  25  5
27  30  5
20  3  5
35  41  8
36  45  8
36  46  8
37  47  8
37  48  8
21  4  6
40  49  8
40  50  8
41  43  8
44  59  8
44  60  8
45  53  8
46  54  8
47  55  8
48  56  8
49  57  8
22  5  6
50  58  8
53  61  8
54  61  8
55  62  8
56  62  8
57  63  8
58  63  8
59  64  8
60  65  8
64  66  8
65  66  8
24  7  6
26  9  6
$$$$
