503589
  -OEChem-10302200282D
 61 64  0     1  0  0  0  0  0999 V2000
    5.7290   -1.1336    0.0000 P   0  0  3  0  0  0  0  0  0  0  0  0
    6.5950   -2.6336    0.0000 P   0  0  3  0  0  0  0  0  0  0  0  0
    4.0540    1.9542    0.0000 O   0  0  0  0  0  0  0  0  0  0  0  0
    9.1931   -4.1336    0.0000 O   0  0  0  0  0  0  0  0  0  0  0  0
    5.9508    3.7143    0.0000 O   0  0  0  0  0  0  0  0  0  0  0  0
    6.6231    1.6452    0.0000 O   0  0  0  0  0  0  0  0  0  0  0  0
    5.7290   -0.1336    0.0000 O   0  0  0  0  0  0  0  0  0  0  0  0
    7.4611   -6.1336    0.0000 O   0  0  0  0  0  0  0  0  0  0  0  0
    9.1931   -7.1336    0.0000 O   0  0  0  0  0  0  0  0  0  0  0  0
   10.9252   -6.1336    0.0000 O   0  0  0  0  0  0  0  0  0  0  0  0
    7.4611   -3.1336    0.0000 O   0  0  0  0  0  0  0  0  0  0  0  0
   10.9252   -4.1336    0.0000 O   0  0  0  0  0  0  0  0  0  0  0  0
    5.7290   -2.1336    0.0000 O   0  0  0  0  0  0  0  0  0  0  0  0
    4.7290   -1.1336    0.0000 O   0  5  0  0  0  0  0  0  0  0  0  0
    6.7290   -1.1336    0.0000 O   0  0  0  0  0  0  0  0  0  0  0  0
    7.0950   -1.7676    0.0000 O   0  5  0  0  0  0  0  0  0  0  0  0
    6.0950   -3.4996    0.0000 O   0  0  0  0  0  0  0  0  0  0  0  0
    3.7752    3.7143    0.0000 N   0  0  0  0  0  0  0  0  0  0  0  0
    2.4715    4.6580    0.0000 N   0  0  0  0  0  0  0  0  0  0  0  0
    4.9961    5.0677    0.0000 N   0  0  0  0  0  0  0  0  0  0  0  0
    4.2888    6.6488    0.0000 N   0  0  0  0  0  0  0  0  0  0  0  0
    2.5660    6.8269    0.0000 N   0  0  0  0  0  0  0  0  0  0  0  0
    5.3630    2.9052    0.0000 C   0  0  2  0  0  0  0  0  0  0  0  0
    5.6720    1.9542    0.0000 C   0  0  1  0  0  0  0  0  0  0  0  0
    4.3630    2.9052    0.0000 C   0  0  1  0  0  0  0  0  0  0  0  0
    4.8630    1.3664    0.0000 C   0  0  1  0  0  0  0  0  0  0  0  0
    8.3271   -5.6336    0.0000 C   0  0  2  0  0  0  0  0  0  0  0  0
    9.1931   -6.1336    0.0000 C   0  0  2  0  0  0  0  0  0  0  0  0
    8.3271   -4.6336    0.0000 C   0  0  2  0  0  0  0  0  0  0  0  0
    4.8630    0.3664    0.0000 C   0  0  0  0  0  0  0  0  0  0  0  0
   10.0592   -5.6336    0.0000 C   0  0  2  0  0  0  0  0  0  0  0  0
   10.0592   -4.6336    0.0000 C   0  0  3  0  0  0  0  0  0  0  0  0
    7.4611   -4.1336    0.0000 C   0  0  0  0  0  0  0  0  0  0  0  0
    4.0832    4.6594    0.0000 C   0  0  0  0  0  0  0  0  0  0  0  0
    2.7811    3.7134    0.0000 C   0  0  0  0  0  0  0  0  0  0  0  0
    3.2732    5.2458    0.0000 C   0  0  0  0  0  0  0  0  0  0  0  0
    3.3760    6.2405    0.0000 C   0  0  0  0  0  0  0  0  0  0  0  0
    5.0989    6.0624    0.0000 C   0  0  0  0  0  0  0  0  0  0  0  0
    5.0815    3.4577    0.0000 H   0  0  0  0  0  0  0  0  0  0  0  0
    5.7690    1.3418    0.0000 H   0  0  0  0  0  0  0  0  0  0  0  0
    4.6445    3.4577    0.0000 H   0  0  0  0  0  0  0  0  0  0  0  0
    4.3106    1.0849    0.0000 H   0  0  0  0  0  0  0  0  0  0  0  0
    8.3271   -6.2536    0.0000 H   0  0  0  0  0  0  0  0  0  0  0  0
    8.6562   -6.4436    0.0000 H   0  0  0  0  0  0  0  0  0  0  0  0
    8.3271   -4.0136    0.0000 H   0  0  0  0  0  0  0  0  0  0  0  0
   10.0592   -6.2536    0.0000 H   0  0  0  0  0  0  0  0  0  0  0  0
    4.2524    0.4741    0.0000 H   0  0  0  0  0  0  0  0  0  0  0  0
    4.6510   -0.2162    0.0000 H   0  0  0  0  0  0  0  0  0  0  0  0
   10.0592   -4.0136    0.0000 H   0  0  0  0  0  0  0  0  0  0  0  0
    6.8505   -4.0259    0.0000 H   0  0  0  0  0  0  0  0  0  0  0  0
    7.2490   -4.7162    0.0000 H   0  0  0  0  0  0  0  0  0  0  0  0
    6.5674    3.6494    0.0000 H   0  0  0  0  0  0  0  0  0  0  0  0
    7.0838    2.0600    0.0000 H   0  0  0  0  0  0  0  0  0  0  0  0
    2.4176    3.2112    0.0000 H   0  0  0  0  0  0  0  0  0  0  0  0
    6.9241   -5.8236    0.0000 H   0  0  0  0  0  0  0  0  0  0  0  0
    9.7301   -7.4436    0.0000 H   0  0  0  0  0  0  0  0  0  0  0  0
   11.4621   -5.8236    0.0000 H   0  0  0  0  0  0  0  0  0  0  0  0
   10.9252   -3.5136    0.0000 H   0  0  0  0  0  0  0  0  0  0  0  0
    5.6648    6.3156    0.0000 H   0  0  0  0  0  0  0  0  0  0  0  0
    2.6297    7.4436    0.0000 H   0  0  0  0  0  0  0  0  0  0  0  0
    2.0000    6.5737    0.0000 H   0  0  0  0  0  0  0  0  0  0  0  0
  1  7  1  0  0  0  0
  1 13  1  0  0  0  0
  1 14  1  0  0  0  0
  1 15  2  0  0  0  0
  2 11  1  0  0  0  0
  2 13  1  0  0  0  0
  2 16  1  0  0  0  0
  2 17  2  0  0  0  0
  3 25  1  0  0  0  0
  3 26  1  0  0  0  0
  4 29  1  0  0  0  0
  4 32  1  0  0  0  0
 23  5  1  6  0  0  0
  5 52  1  0  0  0  0
 24  6  1  6  0  0  0
  6 53  1  0  0  0  0
  7 30  1  0  0  0  0
 27  8  1  1  0  0  0
  8 55  1  0  0  0  0
 28  9  1  6  0  0  0
  9 56  1  0  0  0  0
 31 10  1  6  0  0  0
 10 57  1  0  0  0  0
 11 33  1  0  0  0  0
 12 32  1  0  0  0  0
 12 58  1  0  0  0  0
 25 18  1  1  0  0  0
 18 34  1  0  0  0  0
 18 35  1  0  0  0  0
 19 35  2  0  0  0  0
 19 36  1  0  0  0  0
 20 34  2  0  0  0  0
 20 38  1  0  0  0  0
 21 37  1  0  0  0  0
 21 38  2  0  0  0  0
 22 37  1  0  0  0  0
 22 60  1  0  0  0  0
 22 61  1  0  0  0  0
 23 24  1  0  0  0  0
 23 25  1  0  0  0  0
 23 39  1  0  0  0  0
 24 26  1  0  0  0  0
 24 40  1  0  0  0  0
 25 41  1  0  0  0  0
 26 30  1  1  0  0  0
 26 42  1  0  0  0  0
 27 28  1  0  0  0  0
 27 29  1  0  0  0  0
 27 43  1  0  0  0  0
 28 31  1  0  0  0  0
 28 44  1  0  0  0  0
 29 33  1  6  0  0  0
 29 45  1  0  0  0  0
 30 47  1  0  0  0  0
 30 48  1  0  0  0  0
 31 32  1  0  0  0  0
 31 46  1  0  0  0  0
 32 49  1  0  0  0  0
 33 50  1  0  0  0  0
 33 51  1  0  0  0  0
 34 36  1  0  0  0  0
 35 54  1  0  0  0  0
 36 37  2  0  0  0  0
 38 59  1  0  0  0  0
M  CHG  2  14  -1  16  -1
M  END
> <PUBCHEM_COMPOUND_CID>
503589
> <PUBCHEM_COMPOUND_CANONICALIZED>
1
> <PUBCHEM_CACTVS_COMPLEXITY>
908
> <PUBCHEM_CACTVS_HBOND_ACCEPTOR>
19
> <PUBCHEM_CACTVS_HBOND_DONOR>
7
> <PUBCHEM_CACTVS_ROTATABLE_BOND>
9
> <PUBCHEM_CACTVS_SUBSKEYS>
AAADceB7vAMAAAAAAAAAAAAAAAAAAWJAAAAsSAAAAAAAAFgB+AAAHgAQCCAACBzxlwcF+L9MFxCgQQZhZICAgC0REKABUCAoVBCTWAJAyEAeRAgPAALXACHwcAYAAAAAAAAAAAAAAAAAAAAAAAAAAAAAAA==
> <PUBCHEM_IUPAC_OPENEYE_NAME>
[[(2R,3S,4R,5R)-5-(6-aminopurin-9-yl)-3,4-dihydroxy-tetrahydrofuran-2-yl]methoxy-oxido-phosphoryl] [(2S,3R,4R,5R)-3,4,5,6-tetrahydroxytetrahydropyran-2-yl]methyl phosphate
> <PUBCHEM_IUPAC_CAS_NAME>
[[(2R,3S,4R,5R)-5-(6-aminopurin-9-yl)-3,4-dihydroxy-2-oxolanyl]methoxy-oxidophosphoryl] [(2S,3R,4R,5R)-3,4,5,6-tetrahydroxy-2-oxanyl]methyl phosphate
> <PUBCHEM_IUPAC_NAME_MARKUP>
[[(2<I>R</I>,3<I>S</I>,4<I>R</I>,5<I>R</I>)-5-(6-aminopurin-9-yl)-3,4-dihydroxyoxolan-2-yl]methoxy-oxidophosphoryl] [(2<I>S</I>,3<I>R</I>,4<I>R</I>,5<I>R</I>)-3,4,5,6-tetrahydroxyoxan-2-yl]methyl phosphate
> <PUBCHEM_IUPAC_NAME>
[[(2R,3S,4R,5R)-5-(6-aminopurin-9-yl)-3,4-dihydroxyoxolan-2-yl]methoxy-oxidophosphoryl] [(2S,3R,4R,5R)-3,4,5,6-tetrahydroxyoxan-2-yl]methyl phosphate
> <PUBCHEM_IUPAC_SYSTEMATIC_NAME>
[[(2R,3S,4R,5R)-5-(6-aminopurin-9-yl)-3,4-bis(oxidanyl)oxolan-2-yl]methoxy-oxidanidyl-phosphoryl] [(2S,3R,4R,5R)-3,4,5,6-tetrakis(oxidanyl)oxan-2-yl]methyl phosphate
> <PUBCHEM_IUPAC_TRADITIONAL_NAME>
[[(2R,3S,4R,5R)-5-adenin-9-yl-3,4-dihydroxy-tetrahydrofuran-2-yl]methoxy-oxido-phosphoryl] [(2S,3R,4R,5R)-3,4,5,6-tetrahydroxytetrahydropyran-2-yl]methyl phosphate
> <PUBCHEM_IUPAC_INCHI>
InChI=1S/C16H25N5O15P2/c17-13-7-14(19-3-18-13)21(4-20-7)15-11(25)9(23)5(34-15)1-32-37(28,29)36-38(30,31)33-2-6-8(22)10(24)12(26)16(27)35-6/h3-6,8-12,15-16,22-27H,1-2H2,(H,28,29)(H,30,31)(H2,17,18,19)/p-2/t5-,6+,8+,9-,10-,11-,12-,15-,16?/m1/s1
> <PUBCHEM_IUPAC_INCHIKEY>
PGBMXLIMFJXBBL-FYVCJKFPSA-L
> <PUBCHEM_XLOGP3>
-6.9
> <PUBCHEM_EXACT_MASS>
587.06658904
> <PUBCHEM_MOLECULAR_FORMULA>
C16H23N5O15P2-2
> <PUBCHEM_MOLECULAR_WEIGHT>
587.3
> <PUBCHEM_OPENEYE_CAN_SMILES>
C1=NC(=C2C(=N1)N(C=N2)C3C(C(C(O3)COP(=O)([O-])OP(=O)([O-])OCC4C(C(C(C(O4)O)O)O)O)O)O)N
> <PUBCHEM_OPENEYE_ISO_SMILES>
C1=NC(=C2C(=N1)N(C=N2)[C@H]3[C@@H]([C@@H]([C@H](O3)COP(=O)([O-])OP(=O)([O-])OC[C@H]4[C@@H]([C@H]([C@H](C(O4)O)O)O)O)O)O)N
> <PUBCHEM_CACTVS_TPSA>
317
> <PUBCHEM_MONOISOTOPIC_WEIGHT>
587.06658904
> <PUBCHEM_TOTAL_CHARGE>
-2
> <PUBCHEM_HEAVY_ATOM_COUNT>
38
> <PUBCHEM_ATOM_DEF_STEREO_COUNT>
8
> <PUBCHEM_ATOM_UDEF_STEREO_COUNT>
1
> <PUBCHEM_BOND_DEF_STEREO_COUNT>
0
> <PUBCHEM_BOND_UDEF_STEREO_COUNT>
0
> <PUBCHEM_ISOTOPIC_ATOM_COUNT>
0
> <PUBCHEM_COMPONENT_COUNT>
1
> <PUBCHEM_CACTVS_TAUTO_COUNT>
-1
> <PUBCHEM_COORDINATE_TYPE>
1
5
255
> <PUBCHEM_BONDANNOTATIONS>
31  10  6
32  12  3
25  18  5
18  34  8
18  35  8
19  35  8
19  36  8
20  34  8
20  38  8
21  37  8
21  38  8
26  30  5
29  33  6
34  36  8
36  37  8
23  5  6
24  6  6
27  8  5
28  9  6
$$$$
