503539
  -OEChem-10302200282D
 98102  0     1  0  0  0  0  0999 V2000
    9.7942    0.5000    0.0000 S   0  0  0  0  0  0  0  0  0  0  0  0
   12.4968   -0.9945    0.0000 O   0  0  0  0  0  0  0  0  0  0  0  0
   13.5138    1.3849    0.0000 O   0  0  0  0  0  0  0  0  0  0  0  0
   14.9695   -0.2319    0.0000 O   0  0  0  0  0  0  0  0  0  0  0  0
   10.6603    0.0000    0.0000 O   0  0  0  0  0  0  0  0  0  0  0  0
    5.4641    1.0000    0.0000 O   0  0  0  0  0  0  0  0  0  0  0  0
    7.1962    1.0000    0.0000 O   0  0  0  0  0  0  0  0  0  0  0  0
   15.4640   -1.4115    0.0000 O   0  0  0  0  0  0  0  0  0  0  0  0
    5.4641   -2.0000    0.0000 O   0  0  0  0  0  0  0  0  0  0  0  0
   10.2942    1.3660    0.0000 O   0  0  0  0  0  0  0  0  0  0  0  0
    9.2942   -0.3660    0.0000 O   0  0  0  0  0  0  0  0  0  0  0  0
    3.7320    2.0000    0.0000 O   0  0  0  0  0  0  0  0  0  0  0  0
   15.1019   -4.8566    0.0000 O   0  0  0  0  0  0  0  0  0  0  0  0
    8.0622   -0.5000    0.0000 O   0  0  0  0  0  0  0  0  0  0  0  0
    3.7320   -2.0000    0.0000 O   0  0  0  0  0  0  0  0  0  0  0  0
    2.0000    2.0000    0.0000 O   0  0  0  0  0  0  0  0  0  0  0  0
   13.8817   -2.1160    0.0000 N   0  0  0  0  0  0  0  0  0  0  0  0
   15.2830   -3.1340    0.0000 N   0  0  0  0  0  0  0  0  0  0  0  0
    8.9282    1.0000    0.0000 N   0  0  0  0  0  0  0  0  0  0  0  0
   13.3059    0.4067    0.0000 C   0  0  1  0  0  0  0  0  0  0  0  0
   13.9750   -0.3364    0.0000 C   0  0  2  0  0  0  0  0  0  0  0  0
   12.3923    0.0000    0.0000 C   0  0  1  0  0  0  0  0  0  0  0  0
   13.4750   -1.2024    0.0000 C   0  0  1  0  0  0  0  0  0  0  0  0
   11.5263    0.5000    0.0000 C   0  0  0  0  0  0  0  0  0  0  0  0
   12.7706    2.0540    0.0000 C   0  0  0  0  0  0  0  0  0  0  0  0
   15.3762    0.6817    0.0000 C   0  0  0  0  0  0  0  0  0  0  0  0
   14.8762   -2.2205    0.0000 C   0  0  0  0  0  0  0  0  0  0  0  0
   13.2939   -2.9250    0.0000 C   0  0  0  0  0  0  0  0  0  0  0  0
   12.9785    3.0322    0.0000 C   0  0  0  0  0  0  0  0  0  0  0  0
   11.8196    1.7450    0.0000 C   0  0  0  0  0  0  0  0  0  0  0  0
   16.3708    0.7862    0.0000 C   0  0  0  0  0  0  0  0  0  0  0  0
   14.7885    1.4907    0.0000 C   0  0  0  0  0  0  0  0  0  0  0  0
    5.4641   -1.0000    0.0000 C   0  0  1  0  0  0  0  0  0  0  0  0
    4.5981   -0.5000    0.0000 C   0  0  0  0  0  0  0  0  0  0  0  0
    4.5981    0.5000    0.0000 C   0  0  1  0  0  0  0  0  0  0  0  0
    6.3301   -0.5000    0.0000 C   0  0  0  0  0  0  0  0  0  0  0  0
    6.3301    0.5000    0.0000 C   0  0  2  0  0  0  0  0  0  0  0  0
   13.7007   -3.8385    0.0000 C   0  0  0  0  0  0  0  0  0  0  0  0
   14.6952   -3.9431    0.0000 C   0  0  0  0  0  0  0  0  0  0  0  0
    3.7320    1.0000    0.0000 C   0  0  0  0  0  0  0  0  0  0  0  0
    8.0622    0.5000    0.0000 C   0  0  0  0  0  0  0  0  0  0  0  0
    4.5981   -2.5000    0.0000 C   0  0  0  0  0  0  0  0  0  0  0  0
    4.5981   -3.5000    0.0000 C   0  0  0  0  0  0  0  0  0  0  0  0
    2.8660    2.5000    0.0000 C   0  0  0  0  0  0  0  0  0  0  0  0
    2.8660    3.5000    0.0000 C   0  0  0  0  0  0  0  0  0  0  0  0
    3.7320   -4.0000    0.0000 C   0  0  0  0  0  0  0  0  0  0  0  0
    5.4641   -4.0000    0.0000 C   0  0  0  0  0  0  0  0  0  0  0  0
    3.7320   -5.0000    0.0000 C   0  0  0  0  0  0  0  0  0  0  0  0
    5.4641   -5.0000    0.0000 C   0  0  0  0  0  0  0  0  0  0  0  0
    2.0000    4.0000    0.0000 C   0  0  0  0  0  0  0  0  0  0  0  0
    3.7320    4.0000    0.0000 C   0  0  0  0  0  0  0  0  0  0  0  0
    4.5981   -5.5000    0.0000 C   0  0  0  0  0  0  0  0  0  0  0  0
    2.0000    5.0000    0.0000 C   0  0  0  0  0  0  0  0  0  0  0  0
    3.7320    5.0000    0.0000 C   0  0  0  0  0  0  0  0  0  0  0  0
    2.8660    5.5000    0.0000 C   0  0  0  0  0  0  0  0  0  0  0  0
   12.8240    0.7969    0.0000 H   0  0  0  0  0  0  0  0  0  0  0  0
   14.1972    0.2424    0.0000 H   0  0  0  0  0  0  0  0  0  0  0  0
   11.8723   -0.3377    0.0000 H   0  0  0  0  0  0  0  0  0  0  0  0
   14.0941   -1.2349    0.0000 H   0  0  0  0  0  0  0  0  0  0  0  0
   11.9248    0.9749    0.0000 H   0  0  0  0  0  0  0  0  0  0  0  0
   11.1278    0.9749    0.0000 H   0  0  0  0  0  0  0  0  0  0  0  0
   12.6417    1.4476    0.0000 H   0  0  0  0  0  0  0  0  0  0  0  0
   15.7407    0.1801    0.0000 H   0  0  0  0  0  0  0  0  0  0  0  0
   12.6773   -2.8602    0.0000 H   0  0  0  0  0  0  0  0  0  0  0  0
    6.0010   -1.3100    0.0000 H   0  0  0  0  0  0  0  0  0  0  0  0
   13.5850    2.9033    0.0000 H   0  0  0  0  0  0  0  0  0  0  0  0
   13.1074    3.6386    0.0000 H   0  0  0  0  0  0  0  0  0  0  0  0
   12.3721    3.1611    0.0000 H   0  0  0  0  0  0  0  0  0  0  0  0
   11.6280    2.3346    0.0000 H   0  0  0  0  0  0  0  0  0  0  0  0
   11.2299    1.5534    0.0000 H   0  0  0  0  0  0  0  0  0  0  0  0
   12.0112    1.1553    0.0000 H   0  0  0  0  0  0  0  0  0  0  0  0
   16.4356    0.1696    0.0000 H   0  0  0  0  0  0  0  0  0  0  0  0
   16.9874    0.8510    0.0000 H   0  0  0  0  0  0  0  0  0  0  0  0
   16.3060    1.4028    0.0000 H   0  0  0  0  0  0  0  0  0  0  0  0
   15.2900    1.8551    0.0000 H   0  0  0  0  0  0  0  0  0  0  0  0
   14.4240    1.9923    0.0000 H   0  0  0  0  0  0  0  0  0  0  0  0
   14.2869    1.1263    0.0000 H   0  0  0  0  0  0  0  0  0  0  0  0
    3.9875   -0.3923    0.0000 H   0  0  0  0  0  0  0  0  0  0  0  0
    4.3860   -1.0826    0.0000 H   0  0  0  0  0  0  0  0  0  0  0  0
    4.5981    1.1200    0.0000 H   0  0  0  0  0  0  0  0  0  0  0  0
    6.5422   -1.0826    0.0000 H   0  0  0  0  0  0  0  0  0  0  0  0
    6.9407   -0.3923    0.0000 H   0  0  0  0  0  0  0  0  0  0  0  0
    6.3301    1.1200    0.0000 H   0  0  0  0  0  0  0  0  0  0  0  0
   15.8996   -3.1989    0.0000 H   0  0  0  0  0  0  0  0  0  0  0  0
   13.3362   -4.3401    0.0000 H   0  0  0  0  0  0  0  0  0  0  0  0
    3.1215    1.1077    0.0000 H   0  0  0  0  0  0  0  0  0  0  0  0
    3.5200    0.4174    0.0000 H   0  0  0  0  0  0  0  0  0  0  0  0
    8.9282    1.6200    0.0000 H   0  0  0  0  0  0  0  0  0  0  0  0
    3.1951   -3.6900    0.0000 H   0  0  0  0  0  0  0  0  0  0  0  0
    6.0010   -3.6900    0.0000 H   0  0  0  0  0  0  0  0  0  0  0  0
    3.1951   -5.3100    0.0000 H   0  0  0  0  0  0  0  0  0  0  0  0
    6.0010   -5.3100    0.0000 H   0  0  0  0  0  0  0  0  0  0  0  0
    1.4631    3.6900    0.0000 H   0  0  0  0  0  0  0  0  0  0  0  0
    4.2690    3.6900    0.0000 H   0  0  0  0  0  0  0  0  0  0  0  0
    4.5981   -6.1200    0.0000 H   0  0  0  0  0  0  0  0  0  0  0  0
    1.4631    5.3100    0.0000 H   0  0  0  0  0  0  0  0  0  0  0  0
    4.2690    5.3100    0.0000 H   0  0  0  0  0  0  0  0  0  0  0  0
    2.8660    6.1200    0.0000 H   0  0  0  0  0  0  0  0  0  0  0  0
  1  5  1  0  0  0  0
  1 10  2  0  0  0  0
  1 11  2  0  0  0  0
  1 19  1  0  0  0  0
  2 22  1  0  0  0  0
  2 23  1  0  0  0  0
 20  3  1  1  0  0  0
  3 25  1  0  0  0  0
 21  4  1  1  0  0  0
  4 26  1  0  0  0  0
  5 24  1  0  0  0  0
  6 35  1  0  0  0  0
  6 37  1  0  0  0  0
 37  7  1  6  0  0  0
  7 41  1  0  0  0  0
  8 27  2  0  0  0  0
 33  9  1  1  0  0  0
  9 42  1  0  0  0  0
 12 40  1  0  0  0  0
 12 44  1  0  0  0  0
 13 39  2  0  0  0  0
 14 41  2  0  0  0  0
 15 42  2  0  0  0  0
 16 44  2  0  0  0  0
 23 17  1  6  0  0  0
 17 27  1  0  0  0  0
 17 28  1  0  0  0  0
 18 27  1  0  0  0  0
 18 39  1  0  0  0  0
 18 84  1  0  0  0  0
 19 41  1  0  0  0  0
 19 88  1  0  0  0  0
 20 21  1  0  0  0  0
 20 22  1  0  0  0  0
 20 56  1  0  0  0  0
 21 23  1  0  0  0  0
 21 57  1  0  0  0  0
 22 24  1  6  0  0  0
 22 58  1  0  0  0  0
 23 59  1  0  0  0  0
 24 60  1  0  0  0  0
 24 61  1  0  0  0  0
 25 29  1  0  0  0  0
 25 30  1  0  0  0  0
 25 62  1  0  0  0  0
 26 31  1  0  0  0  0
 26 32  1  0  0  0  0
 26 63  1  0  0  0  0
 28 38  2  0  0  0  0
 28 64  1  0  0  0  0
 29 66  1  0  0  0  0
 29 67  1  0  0  0  0
 29 68  1  0  0  0  0
 30 69  1  0  0  0  0
 30 70  1  0  0  0  0
 30 71  1  0  0  0  0
 31 72  1  0  0  0  0
 31 73  1  0  0  0  0
 31 74  1  0  0  0  0
 32 75  1  0  0  0  0
 32 76  1  0  0  0  0
 32 77  1  0  0  0  0
 33 34  1  0  0  0  0
 33 36  1  0  0  0  0
 33 65  1  0  0  0  0
 34 35  1  0  0  0  0
 34 78  1  0  0  0  0
 34 79  1  0  0  0  0
 35 40  1  1  0  0  0
 35 80  1  0  0  0  0
 36 37  1  0  0  0  0
 36 81  1  0  0  0  0
 36 82  1  0  0  0  0
 37 83  1  0  0  0  0
 38 39  1  0  0  0  0
 38 85  1  0  0  0  0
 40 86  1  0  0  0  0
 40 87  1  0  0  0  0
 42 43  1  0  0  0  0
 43 46  2  0  0  0  0
 43 47  1  0  0  0  0
 44 45  1  0  0  0  0
 45 50  2  0  0  0  0
 45 51  1  0  0  0  0
 46 48  1  0  0  0  0
 46 89  1  0  0  0  0
 47 49  2  0  0  0  0
 47 90  1  0  0  0  0
 48 52  2  0  0  0  0
 48 91  1  0  0  0  0
 49 52  1  0  0  0  0
 49 92  1  0  0  0  0
 50 53  1  0  0  0  0
 50 93  1  0  0  0  0
 51 54  2  0  0  0  0
 51 94  1  0  0  0  0
 52 95  1  0  0  0  0
 53 55  2  0  0  0  0
 53 96  1  0  0  0  0
 54 55  1  0  0  0  0
 54 97  1  0  0  0  0
 55 98  1  0  0  0  0
M  END
> <PUBCHEM_COMPOUND_CID>
503539
> <PUBCHEM_COMPOUND_CANONICALIZED>
1
> <PUBCHEM_CACTVS_COMPLEXITY>
1490
> <PUBCHEM_CACTVS_HBOND_ACCEPTOR>
15
> <PUBCHEM_CACTVS_HBOND_DONOR>
2
> <PUBCHEM_CACTVS_ROTATABLE_BOND>
18
> <PUBCHEM_CACTVS_SUBSKEYS>
AAADcfB/PABAAAAAAAAAAAAAAAAAASAAAAA0YIEAAAAAAAABQAAAHgAQQAAADBTxmAczCIPABACIAiHWWDCCAAAkAgAIiAEICMmbJjKAtRivMQAv1yMeqcf4+C6OAAAAAAAAAAAAAAAAAAAAAAAAAAAAAA==
> <PUBCHEM_IUPAC_OPENEYE_NAME>
[(2S,4S,6R)-4-benzoyloxy-6-[[(2R,3R,4R,5R)-5-(2,4-dioxopyrimidin-1-yl)-3,4-diisopropoxy-tetrahydrofuran-2-yl]methoxysulfonylcarbamoyloxy]tetrahydropyran-2-yl]methyl benzoate
> <PUBCHEM_IUPAC_CAS_NAME>
benzoic acid [(2S,4S,6R)-4-benzoyloxy-6-[[[(2R,3R,4R,5R)-5-(2,4-dioxo-1-pyrimidinyl)-3,4-di(propan-2-yloxy)-2-oxolanyl]methoxysulfonylamino]-oxomethoxy]-2-oxanyl]methyl ester
> <PUBCHEM_IUPAC_NAME_MARKUP>
[(2<I>S</I>,4<I>S</I>,6<I>R</I>)-4-benzoyloxy-6-[[(2<I>R</I>,3<I>R</I>,4<I>R</I>,5<I>R</I>)-5-(2,4-dioxopyrimidin-1-yl)-3,4-di(propan-2-yloxy)oxolan-2-yl]methoxysulfonylcarbamoyloxy]oxan-2-yl]methyl benzoate
> <PUBCHEM_IUPAC_NAME>
[(2S,4S,6R)-4-benzoyloxy-6-[[(2R,3R,4R,5R)-5-(2,4-dioxopyrimidin-1-yl)-3,4-di(propan-2-yloxy)oxolan-2-yl]methoxysulfonylcarbamoyloxy]oxan-2-yl]methyl benzoate
> <PUBCHEM_IUPAC_SYSTEMATIC_NAME>
[(2S,4S,6R)-6-[[(2R,3R,4R,5R)-5-[2,4-bis(oxidanylidene)pyrimidin-1-yl]-3,4-di(propan-2-yloxy)oxolan-2-yl]methoxysulfonylcarbamoyloxy]-4-(phenylcarbonyloxy)oxan-2-yl]methyl benzoate
> <PUBCHEM_IUPAC_TRADITIONAL_NAME>
benzoic acid [(2S,4S,6R)-4-benzoyloxy-6-[[(2R,3R,4R,5R)-5-(2,4-diketopyrimidin-1-yl)-3,4-diisopropoxy-tetrahydrofuran-2-yl]methoxysulfonylcarbamoyloxy]tetrahydropyran-2-yl]methyl ester
> <PUBCHEM_IUPAC_INCHI>
InChI=1S/C36H43N3O15S/c1-21(2)49-30-27(53-32(31(30)50-22(3)4)39-16-15-28(40)37-35(39)43)20-48-55(45,46)38-36(44)54-29-18-25(52-34(42)24-13-9-6-10-14-24)17-26(51-29)19-47-33(41)23-11-7-5-8-12-23/h5-16,21-22,25-27,29-32H,17-20H2,1-4H3,(H,38,44)(H,37,40,43)/t25-,26-,27+,29+,30+,31+,32+/m0/s1
> <PUBCHEM_IUPAC_INCHIKEY>
BIRMBLHZEULMLS-LFLJHEARSA-N
> <PUBCHEM_XLOGP3_AA>
3.6
> <PUBCHEM_EXACT_MASS>
789.24148885
> <PUBCHEM_MOLECULAR_FORMULA>
C36H43N3O15S
> <PUBCHEM_MOLECULAR_WEIGHT>
789.8
> <PUBCHEM_OPENEYE_CAN_SMILES>
CC(C)OC1C(OC(C1OC(C)C)N2C=CC(=O)NC2=O)COS(=O)(=O)NC(=O)OC3CC(CC(O3)COC(=O)C4=CC=CC=C4)OC(=O)C5=CC=CC=C5
> <PUBCHEM_OPENEYE_ISO_SMILES>
CC(C)O[C@@H]1[C@H](O[C@H]([C@@H]1OC(C)C)N2C=CC(=O)NC2=O)COS(=O)(=O)NC(=O)O[C@@H]3C[C@H](C[C@H](O3)COC(=O)C4=CC=CC=C4)OC(=O)C5=CC=CC=C5
> <PUBCHEM_CACTVS_TPSA>
229
> <PUBCHEM_MONOISOTOPIC_WEIGHT>
789.24148885
> <PUBCHEM_TOTAL_CHARGE>
0
> <PUBCHEM_HEAVY_ATOM_COUNT>
55
> <PUBCHEM_ATOM_DEF_STEREO_COUNT>
7
> <PUBCHEM_ATOM_UDEF_STEREO_COUNT>
0
> <PUBCHEM_BOND_DEF_STEREO_COUNT>
0
> <PUBCHEM_BOND_UDEF_STEREO_COUNT>
0
> <PUBCHEM_ISOTOPIC_ATOM_COUNT>
0
> <PUBCHEM_COMPONENT_COUNT>
1
> <PUBCHEM_CACTVS_TAUTO_COUNT>
-1
> <PUBCHEM_COORDINATE_TYPE>
1
5
255
> <PUBCHEM_BONDANNOTATIONS>
23  17  6
17  27  8
17  28  8
18  27  8
18  39  8
22  24  6
28  38  8
20  3  5
35  40  5
38  39  8
21  4  5
43  46  8
43  47  8
45  50  8
45  51  8
46  48  8
47  49  8
48  52  8
49  52  8
50  53  8
51  54  8
53  55  8
54  55  8
37  7  6
33  9  5
$$$$
