503504
  -OEChem-10302200282D
 34 36  0     1  0  0  0  0  0999 V2000
    9.9673    2.3581    0.0000 O   0  0  0  0  0  0  0  0  0  0  0  0
    6.0812    2.0501    0.0000 N   0  0  0  0  0  0  0  0  0  0  0  0
    6.0812    0.4406    0.0000 N   0  0  0  0  0  0  0  0  0  0  0  0
    4.2690    2.2453    0.0000 N   0  0  0  0  0  0  0  0  0  0  0  0
    4.2690   -0.7547    0.0000 N   0  0  0  0  0  0  0  0  0  0  0  0
    3.4030    0.7453    0.0000 N   0  0  0  0  0  0  0  0  0  0  0  0
    2.5369    2.2453    0.0000 N   0  0  0  0  0  0  0  0  0  0  0  0
    8.3209    2.8962    0.0000 C   0  0  1  0  0  0  0  0  0  0  0  0
    8.1147    3.8747    0.0000 C   0  0  0  0  0  0  0  0  0  0  0  0
    7.3704    3.2068    0.0000 C   0  0  0  0  0  0  0  0  0  0  0  0
    8.9888    2.1518    0.0000 C   0  0  0  0  0  0  0  0  0  0  0  0
    6.3919    3.0006    0.0000 C   0  0  0  0  0  0  0  0  0  0  0  0
    5.1350    1.7453    0.0000 C   0  0  0  0  0  0  0  0  0  0  0  0
    6.6648    1.2453    0.0000 C   0  0  0  0  0  0  0  0  0  0  0  0
    5.1350    0.7453    0.0000 C   0  0  0  0  0  0  0  0  0  0  0  0
    4.2690    0.2453    0.0000 C   0  0  0  0  0  0  0  0  0  0  0  0
    3.4030    1.7453    0.0000 C   0  0  0  0  0  0  0  0  0  0  0  0
    3.4030   -1.2547    0.0000 C   0  0  0  0  0  0  0  0  0  0  0  0
    3.4030   -2.2547    0.0000 C   0  0  0  0  0  0  0  0  0  0  0  0
    3.4030   -3.2547    0.0000 C   0  0  0  0  0  0  0  0  0  0  0  0
    7.9823    2.3768    0.0000 H   0  0  0  0  0  0  0  0  0  0  0  0
    8.6900    4.1059    0.0000 H   0  0  0  0  0  0  0  0  0  0  0  0
    7.7871    4.4010    0.0000 H   0  0  0  0  0  0  0  0  0  0  0  0
    8.4624    1.8242    0.0000 H   0  0  0  0  0  0  0  0  0  0  0  0
    9.2200    1.5766    0.0000 H   0  0  0  0  0  0  0  0  0  0  0  0
    5.9778    3.4621    0.0000 H   0  0  0  0  0  0  0  0  0  0  0  0
   10.3813    1.8966    0.0000 H   0  0  0  0  0  0  0  0  0  0  0  0
    7.2848    1.2453    0.0000 H   0  0  0  0  0  0  0  0  0  0  0  0
    4.8059   -1.0647    0.0000 H   0  0  0  0  0  0  0  0  0  0  0  0
    3.1909   -0.6720    0.0000 H   0  0  0  0  0  0  0  0  0  0  0  0
    2.7924   -1.3623    0.0000 H   0  0  0  0  0  0  0  0  0  0  0  0
    2.0000    1.9353    0.0000 H   0  0  0  0  0  0  0  0  0  0  0  0
    2.5369    2.8653    0.0000 H   0  0  0  0  0  0  0  0  0  0  0  0
    3.4030   -3.8747    0.0000 H   0  0  0  0  0  0  0  0  0  0  0  0
  1 11  1  0  0  0  0
  1 27  1  0  0  0  0
  2 12  1  0  0  0  0
  2 13  1  0  0  0  0
  2 14  1  0  0  0  0
  3 14  2  0  0  0  0
  3 15  1  0  0  0  0
  4 13  2  0  0  0  0
  4 17  1  0  0  0  0
  5 16  1  0  0  0  0
  5 18  1  0  0  0  0
  5 29  1  0  0  0  0
  6 16  1  0  0  0  0
  6 17  2  0  0  0  0
  7 17  1  0  0  0  0
  7 32  1  0  0  0  0
  7 33  1  0  0  0  0
  8  9  1  0  0  0  0
  8 10  1  0  0  0  0
  8 11  1  6  0  0  0
  8 21  1  0  0  0  0
  9 10  1  0  0  0  0
  9 22  1  0  0  0  0
  9 23  1  0  0  0  0
 10 12  2  3  0  0  0
 11 24  1  0  0  0  0
 11 25  1  0  0  0  0
 12 26  1  0  0  0  0
 13 15  1  0  0  0  0
 14 28  1  0  0  0  0
 15 16  2  0  0  0  0
 18 19  1  0  0  0  0
 18 30  1  0  0  0  0
 18 31  1  0  0  0  0
 19 20  3  0  0  0  0
 20 34  1  0  0  0  0
M  END
> <PUBCHEM_COMPOUND_CID>
503504
> <PUBCHEM_COMPOUND_CANONICALIZED>
1
> <PUBCHEM_CACTVS_COMPLEXITY>
443
> <PUBCHEM_CACTVS_HBOND_ACCEPTOR>
6
> <PUBCHEM_CACTVS_HBOND_DONOR>
3
> <PUBCHEM_CACTVS_ROTATABLE_BOND>
4
> <PUBCHEM_CACTVS_SUBSKEYS>
AAADccBzoAAAAAAAAAAAAAAAGAAAAWAAAAAsAAAAAAAAAFgB+AAAHgAQCAAADQjhlwYF8L/MEgDgGwZnZACAgC0xEKABUKAoVBiAWABASUAURAgMwALAACAAAAAAAAAAAAAAAAAAAAAAAAAAAAAAAAAAAA==
> <PUBCHEM_IUPAC_OPENEYE_NAME>
[(1S)-2-[[2-amino-6-(prop-2-ynylamino)purin-9-yl]methylene]cyclopropyl]methanol
> <PUBCHEM_IUPAC_CAS_NAME>
[(1S)-2-[[2-amino-6-(prop-2-ynylamino)-9-purinyl]methylidene]cyclopropyl]methanol
> <PUBCHEM_IUPAC_NAME_MARKUP>
[(1<I>S</I>)-2-[[2-amino-6-(prop-2-ynylamino)purin-9-yl]methylidene]cyclopropyl]methanol
> <PUBCHEM_IUPAC_NAME>
[(1S)-2-[[2-amino-6-(prop-2-ynylamino)purin-9-yl]methylidene]cyclopropyl]methanol
> <PUBCHEM_IUPAC_SYSTEMATIC_NAME>
[(1S)-2-[[2-azanyl-6-(prop-2-ynylamino)purin-9-yl]methylidene]cyclopropyl]methanol
> <PUBCHEM_IUPAC_TRADITIONAL_NAME>
[(1S)-2-[[2-amino-6-(propargylamino)purin-9-yl]methylene]cyclopropyl]methanol
> <PUBCHEM_IUPAC_INCHI>
InChI=1S/C13H14N6O/c1-2-3-15-11-10-12(18-13(14)17-11)19(7-16-10)5-8-4-9(8)6-20/h1,5,7,9,20H,3-4,6H2,(H3,14,15,17,18)/t9-/m1/s1
> <PUBCHEM_IUPAC_INCHIKEY>
RCWPTQJLPZIIAH-SECBINFHSA-N
> <PUBCHEM_XLOGP3_AA>
-0.4
> <PUBCHEM_EXACT_MASS>
270.12290909
> <PUBCHEM_MOLECULAR_FORMULA>
C13H14N6O
> <PUBCHEM_MOLECULAR_WEIGHT>
270.29
> <PUBCHEM_OPENEYE_CAN_SMILES>
C#CCNC1=C2C(=NC(=N1)N)N(C=N2)C=C3CC3CO
> <PUBCHEM_OPENEYE_ISO_SMILES>
C#CCNC1=C2C(=NC(=N1)N)N(C=N2)C=C3C[C@@H]3CO
> <PUBCHEM_CACTVS_TPSA>
102
> <PUBCHEM_MONOISOTOPIC_WEIGHT>
270.12290909
> <PUBCHEM_TOTAL_CHARGE>
0
> <PUBCHEM_HEAVY_ATOM_COUNT>
20
> <PUBCHEM_ATOM_DEF_STEREO_COUNT>
1
> <PUBCHEM_ATOM_UDEF_STEREO_COUNT>
0
> <PUBCHEM_BOND_DEF_STEREO_COUNT>
0
> <PUBCHEM_BOND_UDEF_STEREO_COUNT>
1
> <PUBCHEM_ISOTOPIC_ATOM_COUNT>
0
> <PUBCHEM_COMPONENT_COUNT>
1
> <PUBCHEM_CACTVS_TAUTO_COUNT>
-1
> <PUBCHEM_COORDINATE_TYPE>
1
5
255
> <PUBCHEM_BONDANNOTATIONS>
10  12  1
13  15  8
15  16  8
2  13  8
2  14  8
3  14  8
3  15  8
4  13  8
4  17  8
6  16  8
6  17  8
8  11  6
$$$$
