503552
  -OEChem-10302200282D
132138  0     1  0  0  0  0  0999 V2000
    9.2928   -1.8307    0.0000 S   0  0  0  0  0  0  0  0  0  0  0  0
   12.7569    1.1693    0.0000 O   0  0  0  0  0  0  0  0  0  0  0  0
    6.6472   -3.4240    0.0000 O   0  0  0  0  0  0  0  0  0  0  0  0
   12.7569    4.1693    0.0000 O   0  0  0  0  0  0  0  0  0  0  0  0
   11.0249    3.1693    0.0000 O   0  0  0  0  0  0  0  0  0  0  0  0
   14.4890    3.1693    0.0000 O   0  0  0  0  0  0  0  0  0  0  0  0
    8.1994   -5.4944    0.0000 O   0  0  0  0  0  0  0  0  0  0  0  0
    6.0714   -5.9467    0.0000 O   0  0  0  0  0  0  0  0  0  0  0  0
   14.4890    0.1693    0.0000 O   0  0  0  0  0  0  0  0  0  0  0  0
    8.4268   -2.3307    0.0000 O   0  0  0  0  0  0  0  0  0  0  0  0
    4.8025   -5.7852    0.0000 O   0  0  0  0  0  0  0  0  0  0  0  0
    9.2928    0.1693    0.0000 O   0  0  0  0  0  0  0  0  0  0  0  0
    9.7928   -2.6968    0.0000 O   0  0  0  0  0  0  0  0  0  0  0  0
    8.7928   -0.9647    0.0000 O   0  0  0  0  0  0  0  0  0  0  0  0
    2.0000   -3.7490    0.0000 O   0  0  0  0  0  0  0  0  0  0  0  0
    4.9836   -4.0626    0.0000 N   0  0  0  0  0  0  0  0  0  0  0  0
   11.0249    0.1693    0.0000 N   0  0  0  0  0  0  0  0  0  0  0  0
   10.1588   -1.3307    0.0000 N   0  0  0  0  0  0  0  0  0  0  0  0
    3.4013   -4.7671    0.0000 N   0  0  0  0  0  0  0  0  0  0  0  0
   12.7569    3.1693    0.0000 C   0  0  2  0  0  0  0  0  0  0  0  0
   11.8909    2.6693    0.0000 C   0  0  2  0  0  0  0  0  0  0  0  0
   13.6229    2.6693    0.0000 C   0  0  1  0  0  0  0  0  0  0  0  0
   11.8909    1.6693    0.0000 C   0  0  1  0  0  0  0  0  0  0  0  0
   13.6229    1.6693    0.0000 C   0  0  1  0  0  0  0  0  0  0  0  0
    7.4562   -4.8252    0.0000 C   0  0  1  0  0  0  0  0  0  0  0  0
    6.4781   -5.0332    0.0000 C   0  0  3  0  0  0  0  0  0  0  0  0
    7.5608   -3.8307    0.0000 C   0  0  1  0  0  0  0  0  0  0  0  0
    5.9781   -4.1671    0.0000 C   0  0  1  0  0  0  0  0  0  0  0  0
   11.0249    1.1693    0.0000 C   0  0  0  0  0  0  0  0  0  0  0  0
   14.4890    1.1693    0.0000 C   0  0  0  0  0  0  0  0  0  0  0  0
    8.4268   -3.3307    0.0000 C   0  0  0  0  0  0  0  0  0  0  0  0
    9.1504   -5.1854    0.0000 C   0  0  0  0  0  0  0  0  0  0  0  0
    6.6591   -6.7557    0.0000 C   0  0  0  0  0  0  0  0  0  0  0  0
   13.6229    4.6693    0.0000 C   0  0  0  0  0  0  0  0  0  0  0  0
   10.1588    2.6693    0.0000 C   0  0  0  0  0  0  0  0  0  0  0  0
   15.3550    2.6693    0.0000 C   0  0  0  0  0  0  0  0  0  0  0  0
    4.3958   -4.8716    0.0000 C   0  0  0  0  0  0  0  0  0  0  0  0
    4.5768   -3.1491    0.0000 C   0  0  0  0  0  0  0  0  0  0  0  0
   10.1588   -0.3307    0.0000 C   0  0  0  0  0  0  0  0  0  0  0  0
    9.8936   -5.8545    0.0000 C   0  0  0  0  0  0  0  0  0  0  0  0
    9.3584   -4.2072    0.0000 C   0  0  0  0  0  0  0  0  0  0  0  0
    6.2524   -7.6693    0.0000 C   0  0  0  0  0  0  0  0  0  0  0  0
    7.6537   -6.6512    0.0000 C   0  0  0  0  0  0  0  0  0  0  0  0
   13.6229    5.6693    0.0000 C   0  0  0  0  0  0  0  0  0  0  0  0
    9.2928    3.1693    0.0000 C   0  0  0  0  0  0  0  0  0  0  0  0
   16.2210    3.1693    0.0000 C   0  0  0  0  0  0  0  0  0  0  0  0
   15.3550   -0.3307    0.0000 C   0  0  0  0  0  0  0  0  0  0  0  0
    3.5823   -3.0445    0.0000 C   0  0  0  0  0  0  0  0  0  0  0  0
    2.9945   -3.8536    0.0000 C   0  0  0  0  0  0  0  0  0  0  0  0
   15.3550   -1.3307    0.0000 C   0  0  0  0  0  0  0  0  0  0  0  0
   12.7569    6.1693    0.0000 C   0  0  0  0  0  0  0  0  0  0  0  0
   14.4890    6.1693    0.0000 C   0  0  0  0  0  0  0  0  0  0  0  0
    8.4268    2.6693    0.0000 C   0  0  0  0  0  0  0  0  0  0  0  0
    9.2928    4.1693    0.0000 C   0  0  0  0  0  0  0  0  0  0  0  0
   16.2210    4.1693    0.0000 C   0  0  0  0  0  0  0  0  0  0  0  0
   17.0870    2.6693    0.0000 C   0  0  0  0  0  0  0  0  0  0  0  0
   12.7569    7.1693    0.0000 C   0  0  0  0  0  0  0  0  0  0  0  0
   14.4890    7.1693    0.0000 C   0  0  0  0  0  0  0  0  0  0  0  0
    7.5608    3.1693    0.0000 C   0  0  0  0  0  0  0  0  0  0  0  0
    8.4268    4.6693    0.0000 C   0  0  0  0  0  0  0  0  0  0  0  0
   17.0870    4.6693    0.0000 C   0  0  0  0  0  0  0  0  0  0  0  0
   17.9531    3.1693    0.0000 C   0  0  0  0  0  0  0  0  0  0  0  0
   16.2210   -1.8307    0.0000 C   0  0  0  0  0  0  0  0  0  0  0  0
   14.4890   -1.8307    0.0000 C   0  0  0  0  0  0  0  0  0  0  0  0
   13.6229    7.6693    0.0000 C   0  0  0  0  0  0  0  0  0  0  0  0
    7.5608    4.1693    0.0000 C   0  0  0  0  0  0  0  0  0  0  0  0
   17.9531    4.1693    0.0000 C   0  0  0  0  0  0  0  0  0  0  0  0
   16.2210   -2.8307    0.0000 C   0  0  0  0  0  0  0  0  0  0  0  0
   14.4890   -2.8307    0.0000 C   0  0  0  0  0  0  0  0  0  0  0  0
   15.3550   -3.3307    0.0000 C   0  0  0  0  0  0  0  0  0  0  0  0
   12.2200    3.4793    0.0000 H   0  0  0  0  0  0  0  0  0  0  0  0
   11.8909    3.2893    0.0000 H   0  0  0  0  0  0  0  0  0  0  0  0
   13.6229    3.2893    0.0000 H   0  0  0  0  0  0  0  0  0  0  0  0
   11.8909    1.0493    0.0000 H   0  0  0  0  0  0  0  0  0  0  0  0
   13.6229    1.0493    0.0000 H   0  0  0  0  0  0  0  0  0  0  0  0
    8.0351   -4.6031    0.0000 H   0  0  0  0  0  0  0  0  0  0  0  0
    5.8589   -5.0656    0.0000 H   0  0  0  0  0  0  0  0  0  0  0  0
    7.5283   -3.2116    0.0000 H   0  0  0  0  0  0  0  0  0  0  0  0
    5.7559   -3.5883    0.0000 H   0  0  0  0  0  0  0  0  0  0  0  0
   10.8128    1.7519    0.0000 H   0  0  0  0  0  0  0  0  0  0  0  0
   10.4143    1.0616    0.0000 H   0  0  0  0  0  0  0  0  0  0  0  0
   15.0995    1.0616    0.0000 H   0  0  0  0  0  0  0  0  0  0  0  0
   14.7010    1.7519    0.0000 H   0  0  0  0  0  0  0  0  0  0  0  0
    8.6388   -3.9133    0.0000 H   0  0  0  0  0  0  0  0  0  0  0  0
    9.0374   -3.2231    0.0000 H   0  0  0  0  0  0  0  0  0  0  0  0
    8.6897   -4.7705    0.0000 H   0  0  0  0  0  0  0  0  0  0  0  0
    6.9113   -6.1893    0.0000 H   0  0  0  0  0  0  0  0  0  0  0  0
   11.5618   -0.1407    0.0000 H   0  0  0  0  0  0  0  0  0  0  0  0
   13.8350    4.0867    0.0000 H   0  0  0  0  0  0  0  0  0  0  0  0
   14.2335    4.7769    0.0000 H   0  0  0  0  0  0  0  0  0  0  0  0
    9.7603    2.1943    0.0000 H   0  0  0  0  0  0  0  0  0  0  0  0
   10.5574    2.1943    0.0000 H   0  0  0  0  0  0  0  0  0  0  0  0
   14.9565    2.1943    0.0000 H   0  0  0  0  0  0  0  0  0  0  0  0
   15.7535    2.1943    0.0000 H   0  0  0  0  0  0  0  0  0  0  0  0
    4.9413   -2.6475    0.0000 H   0  0  0  0  0  0  0  0  0  0  0  0
    9.4787   -6.3152    0.0000 H   0  0  0  0  0  0  0  0  0  0  0  0
   10.3543   -6.2694    0.0000 H   0  0  0  0  0  0  0  0  0  0  0  0
   10.3084   -5.3938    0.0000 H   0  0  0  0  0  0  0  0  0  0  0  0
    9.9648   -4.3361    0.0000 H   0  0  0  0  0  0  0  0  0  0  0  0
    9.4872   -3.6008    0.0000 H   0  0  0  0  0  0  0  0  0  0  0  0
    8.7519   -4.0783    0.0000 H   0  0  0  0  0  0  0  0  0  0  0  0
    5.6860   -7.4171    0.0000 H   0  0  0  0  0  0  0  0  0  0  0  0
    6.0002   -8.2357    0.0000 H   0  0  0  0  0  0  0  0  0  0  0  0
    6.8188   -7.9214    0.0000 H   0  0  0  0  0  0  0  0  0  0  0  0
    7.7185   -7.2678    0.0000 H   0  0  0  0  0  0  0  0  0  0  0  0
    8.2703   -6.5864    0.0000 H   0  0  0  0  0  0  0  0  0  0  0  0
    7.5888   -6.0346    0.0000 H   0  0  0  0  0  0  0  0  0  0  0  0
   15.9656   -0.4384    0.0000 H   0  0  0  0  0  0  0  0  0  0  0  0
   15.5670    0.2519    0.0000 H   0  0  0  0  0  0  0  0  0  0  0  0
   10.6958   -1.6407    0.0000 H   0  0  0  0  0  0  0  0  0  0  0  0
    3.0368   -5.2687    0.0000 H   0  0  0  0  0  0  0  0  0  0  0  0
    3.3301   -2.4781    0.0000 H   0  0  0  0  0  0  0  0  0  0  0  0
   12.2200    5.8593    0.0000 H   0  0  0  0  0  0  0  0  0  0  0  0
   15.0259    5.8593    0.0000 H   0  0  0  0  0  0  0  0  0  0  0  0
    8.4268    2.0493    0.0000 H   0  0  0  0  0  0  0  0  0  0  0  0
    9.8298    4.4793    0.0000 H   0  0  0  0  0  0  0  0  0  0  0  0
   15.6841    4.4793    0.0000 H   0  0  0  0  0  0  0  0  0  0  0  0
   17.0870    2.0493    0.0000 H   0  0  0  0  0  0  0  0  0  0  0  0
   12.2200    7.4793    0.0000 H   0  0  0  0  0  0  0  0  0  0  0  0
   15.0259    7.4793    0.0000 H   0  0  0  0  0  0  0  0  0  0  0  0
    7.0238    2.8593    0.0000 H   0  0  0  0  0  0  0  0  0  0  0  0
    8.4268    5.2893    0.0000 H   0  0  0  0  0  0  0  0  0  0  0  0
   17.0870    5.2893    0.0000 H   0  0  0  0  0  0  0  0  0  0  0  0
   18.4900    2.8593    0.0000 H   0  0  0  0  0  0  0  0  0  0  0  0
   16.7580   -1.5207    0.0000 H   0  0  0  0  0  0  0  0  0  0  0  0
   13.9520   -1.5207    0.0000 H   0  0  0  0  0  0  0  0  0  0  0  0
   13.6229    8.2893    0.0000 H   0  0  0  0  0  0  0  0  0  0  0  0
    7.0238    4.4793    0.0000 H   0  0  0  0  0  0  0  0  0  0  0  0
   18.4900    4.4793    0.0000 H   0  0  0  0  0  0  0  0  0  0  0  0
   16.7580   -3.1407    0.0000 H   0  0  0  0  0  0  0  0  0  0  0  0
   13.9520   -3.1407    0.0000 H   0  0  0  0  0  0  0  0  0  0  0  0
   15.3550   -3.9507    0.0000 H   0  0  0  0  0  0  0  0  0  0  0  0
  1 10  1  0  0  0  0
  1 13  2  0  0  0  0
  1 14  2  0  0  0  0
  1 18  1  0  0  0  0
  2 23  1  0  0  0  0
  2 24  1  0  0  0  0
  3 27  1  0  0  0  0
  3 28  1  0  0  0  0
 20  4  1  1  0  0  0
  4 34  1  0  0  0  0
 21  5  1  6  0  0  0
  5 35  1  0  0  0  0
 22  6  1  6  0  0  0
  6 36  1  0  0  0  0
 25  7  1  1  0  0  0
  7 32  1  0  0  0  0
  8 26  1  0  0  0  0
  8 33  1  0  0  0  0
  9 30  1  0  0  0  0
  9 47  1  0  0  0  0
 10 31  1  0  0  0  0
 11 37  2  0  0  0  0
 12 39  2  0  0  0  0
 15 49  2  0  0  0  0
 28 16  1  6  0  0  0
 16 37  1  0  0  0  0
 16 38  1  0  0  0  0
 17 29  1  0  0  0  0
 17 39  1  0  0  0  0
 17 88  1  0  0  0  0
 18 39  1  0  0  0  0
 18110  1  0  0  0  0
 19 37  1  0  0  0  0
 19 49  1  0  0  0  0
 19111  1  0  0  0  0
 20 21  1  0  0  0  0
 20 22  1  0  0  0  0
 20 71  1  0  0  0  0
 21 23  1  0  0  0  0
 21 72  1  0  0  0  0
 22 24  1  0  0  0  0
 22 73  1  0  0  0  0
 23 29  1  6  0  0  0
 23 74  1  0  0  0  0
 24 30  1  1  0  0  0
 24 75  1  0  0  0  0
 25 26  1  0  0  0  0
 25 27  1  0  0  0  0
 25 76  1  0  0  0  0
 26 28  1  0  0  0  0
 26 77  1  0  0  0  0
 27 31  1  6  0  0  0
 27 78  1  0  0  0  0
 28 79  1  0  0  0  0
 29 80  1  0  0  0  0
 29 81  1  0  0  0  0
 30 82  1  0  0  0  0
 30 83  1  0  0  0  0
 31 84  1  0  0  0  0
 31 85  1  0  0  0  0
 32 40  1  0  0  0  0
 32 41  1  0  0  0  0
 32 86  1  0  0  0  0
 33 42  1  0  0  0  0
 33 43  1  0  0  0  0
 33 87  1  0  0  0  0
 34 44  1  0  0  0  0
 34 89  1  0  0  0  0
 34 90  1  0  0  0  0
 35 45  1  0  0  0  0
 35 91  1  0  0  0  0
 35 92  1  0  0  0  0
 36 46  1  0  0  0  0
 36 93  1  0  0  0  0
 36 94  1  0  0  0  0
 38 48  2  0  0  0  0
 38 95  1  0  0  0  0
 40 96  1  0  0  0  0
 40 97  1  0  0  0  0
 40 98  1  0  0  0  0
 41 99  1  0  0  0  0
 41100  1  0  0  0  0
 41101  1  0  0  0  0
 42102  1  0  0  0  0
 42103  1  0  0  0  0
 42104  1  0  0  0  0
 43105  1  0  0  0  0
 43106  1  0  0  0  0
 43107  1  0  0  0  0
 44 51  2  0  0  0  0
 44 52  1  0  0  0  0
 45 53  2  0  0  0  0
 45 54  1  0  0  0  0
 46 55  2  0  0  0  0
 46 56  1  0  0  0  0
 47 50  1  0  0  0  0
 47108  1  0  0  0  0
 47109  1  0  0  0  0
 48 49  1  0  0  0  0
 48112  1  0  0  0  0
 50 63  2  0  0  0  0
 50 64  1  0  0  0  0
 51 57  1  0  0  0  0
 51113  1  0  0  0  0
 52 58  2  0  0  0  0
 52114  1  0  0  0  0
 53 59  1  0  0  0  0
 53115  1  0  0  0  0
 54 60  2  0  0  0  0
 54116  1  0  0  0  0
 55 61  1  0  0  0  0
 55117  1  0  0  0  0
 56 62  2  0  0  0  0
 56118  1  0  0  0  0
 57 65  2  0  0  0  0
 57119  1  0  0  0  0
 58 65  1  0  0  0  0
 58120  1  0  0  0  0
 59 66  2  0  0  0  0
 59121  1  0  0  0  0
 60 66  1  0  0  0  0
 60122  1  0  0  0  0
 61 67  2  0  0  0  0
 61123  1  0  0  0  0
 62 67  1  0  0  0  0
 62124  1  0  0  0  0
 63 68  1  0  0  0  0
 63125  1  0  0  0  0
 64 69  2  0  0  0  0
 64126  1  0  0  0  0
 65127  1  0  0  0  0
 66128  1  0  0  0  0
 67129  1  0  0  0  0
 68 70  2  0  0  0  0
 68130  1  0  0  0  0
 69 70  1  0  0  0  0
 69131  1  0  0  0  0
 70132  1  0  0  0  0
M  END
> <PUBCHEM_COMPOUND_CID>
503552
> <PUBCHEM_COMPOUND_CANONICALIZED>
1
> <PUBCHEM_CACTVS_COMPLEXITY>
1740
> <PUBCHEM_CACTVS_HBOND_ACCEPTOR>
14
> <PUBCHEM_CACTVS_HBOND_DONOR>
3
> <PUBCHEM_CACTVS_ROTATABLE_BOND>
24
> <PUBCHEM_CACTVS_SUBSKEYS>
AAADcfB/vABAAAAAAAAAAAAAAAAAASAAAAA0YMGCAAAAAAABVAAAHgAQQAAADBThmAYzAIPABACIAiFWUDCCAAAgAgAIiIAICMiLJiKAsRiPMAAv1yMaqMfw8C4OAAAAAAAAAAAAAAAAAAAAAAAAAAAAAA==
> <PUBCHEM_IUPAC_OPENEYE_NAME>
[(2R,3R,5R)-5-(2,4-dioxopyrimidin-1-yl)-3,4-diisopropoxy-tetrahydrofuran-2-yl]methyl N-[[(2R,3S,4R,5R,6R)-3,4,5-tribenzyloxy-6-(benzyloxymethyl)tetrahydropyran-2-yl]methylcarbamoyl]sulfamate
> <PUBCHEM_IUPAC_CAS_NAME>
N-[oxo-[[(2R,3S,4R,5R,6R)-3,4,5-tris(phenylmethoxy)-6-(phenylmethoxymethyl)-2-oxanyl]methylamino]methyl]sulfamic acid [(2R,3R,5R)-5-(2,4-dioxo-1-pyrimidinyl)-3,4-di(propan-2-yloxy)-2-oxolanyl]methyl ester
> <PUBCHEM_IUPAC_NAME_MARKUP>
[(2<I>R</I>,3<I>R</I>,5<I>R</I>)-5-(2,4-dioxopyrimidin-1-yl)-3,4-di(propan-2-yloxy)oxolan-2-yl]methyl <I>N</I>-[[(2<I>R</I>,3<I>S</I>,4<I>R</I>,5<I>R</I>,6<I>R</I>)-3,4,5-tris(phenylmethoxy)-6-(phenylmethoxymethyl)oxan-2-yl]methylcarbamoyl]sulfamate
> <PUBCHEM_IUPAC_NAME>
[(2R,3R,5R)-5-(2,4-dioxopyrimidin-1-yl)-3,4-di(propan-2-yloxy)oxolan-2-yl]methyl N-[[(2R,3S,4R,5R,6R)-3,4,5-tris(phenylmethoxy)-6-(phenylmethoxymethyl)oxan-2-yl]methylcarbamoyl]sulfamate
> <PUBCHEM_IUPAC_SYSTEMATIC_NAME>
[(2R,3R,5R)-5-[2,4-bis(oxidanylidene)pyrimidin-1-yl]-3,4-di(propan-2-yloxy)oxolan-2-yl]methyl N-[[(2R,3S,4R,5R,6R)-3,4,5-tris(phenylmethoxy)-6-(phenylmethoxymethyl)oxan-2-yl]methylcarbamoyl]sulfamate
> <PUBCHEM_IUPAC_TRADITIONAL_NAME>
N-[[(2R,3S,4R,5R,6R)-3,4,5-tribenzoxy-6-(benzoxymethyl)tetrahydropyran-2-yl]methylcarbamoyl]sulfamic acid [(2R,3R,5R)-5-(2,4-diketopyrimidin-1-yl)-3,4-diisopropoxy-tetrahydrofuran-2-yl]methyl ester
> <PUBCHEM_IUPAC_INCHI>
InChI=1S/C51H62N4O14S/c1-34(2)66-46-42(69-49(48(46)67-35(3)4)55-26-25-43(56)53-51(55)58)33-65-70(59,60)54-50(57)52-27-40-44(62-29-37-19-11-6-12-20-37)47(64-31-39-23-15-8-16-24-39)45(63-30-38-21-13-7-14-22-38)41(68-40)32-61-28-36-17-9-5-10-18-36/h5-26,34-35,40-42,44-49H,27-33H2,1-4H3,(H2,52,54,57)(H,53,56,58)/t40-,41-,42-,44+,45-,46-,47-,48?,49-/m1/s1
> <PUBCHEM_IUPAC_INCHIKEY>
XZFUQTPIHQUUFD-YCVOIEMXSA-N
> <PUBCHEM_XLOGP3_AA>
4.6
> <PUBCHEM_EXACT_MASS>
986.39832384
> <PUBCHEM_MOLECULAR_FORMULA>
C51H62N4O14S
> <PUBCHEM_MOLECULAR_WEIGHT>
987.1
> <PUBCHEM_OPENEYE_CAN_SMILES>
CC(C)OC1C(OC(C1OC(C)C)N2C=CC(=O)NC2=O)COS(=O)(=O)NC(=O)NCC3C(C(C(C(O3)COCC4=CC=CC=C4)OCC5=CC=CC=C5)OCC6=CC=CC=C6)OCC7=CC=CC=C7
> <PUBCHEM_OPENEYE_ISO_SMILES>
CC(C)O[C@@H]1[C@H](O[C@H](C1OC(C)C)N2C=CC(=O)NC2=O)COS(=O)(=O)NC(=O)NC[C@@H]3[C@@H]([C@H]([C@@H]([C@H](O3)COCC4=CC=CC=C4)OCC5=CC=CC=C5)OCC6=CC=CC=C6)OCC7=CC=CC=C7
> <PUBCHEM_CACTVS_TPSA>
216
> <PUBCHEM_MONOISOTOPIC_WEIGHT>
986.39832384
> <PUBCHEM_TOTAL_CHARGE>
0
> <PUBCHEM_HEAVY_ATOM_COUNT>
70
> <PUBCHEM_ATOM_DEF_STEREO_COUNT>
8
> <PUBCHEM_ATOM_UDEF_STEREO_COUNT>
1
> <PUBCHEM_BOND_DEF_STEREO_COUNT>
0
> <PUBCHEM_BOND_UDEF_STEREO_COUNT>
0
> <PUBCHEM_ISOTOPIC_ATOM_COUNT>
0
> <PUBCHEM_COMPONENT_COUNT>
1
> <PUBCHEM_CACTVS_TAUTO_COUNT>
-1
> <PUBCHEM_COORDINATE_TYPE>
1
5
255
> <PUBCHEM_BONDANNOTATIONS>
28  16  6
16  37  8
16  38  8
19  37  8
19  49  8
23  29  6
24  30  5
27  31  6
38  48  8
20  4  5
44  51  8
44  52  8
45  53  8
45  54  8
46  55  8
46  56  8
48  49  8
21  5  6
50  63  8
50  64  8
51  57  8
52  58  8
53  59  8
54  60  8
55  61  8
56  62  8
57  65  8
58  65  8
59  66  8
22  6  6
60  66  8
61  67  8
62  67  8
63  68  8
64  69  8
68  70  8
69  70  8
25  7  5
26  8  3
$$$$
