503592
  -OEChem-10302200282D
131140  0     1  0  0  0  0  0999 V2000
    6.9453    0.0199    0.0000 P   0  0  3  0  0  0  0  0  0  0  0  0
   11.9708    2.4562    0.0000 P   0  0  3  0  0  0  0  0  0  0  0  0
    5.7290   -4.7234    0.0000 P   0  0  3  0  0  0  0  0  0  0  0  0
    6.5950   -6.2234    0.0000 P   0  0  3  0  0  0  0  0  0  0  0  0
   10.0221   -0.2462    0.0000 O   0  0  0  0  0  0  0  0  0  0  0  0
    4.0540   -1.6357    0.0000 O   0  0  0  0  0  0  0  0  0  0  0  0
   11.9708    1.4562    0.0000 O   0  0  0  0  0  0  0  0  0  0  0  0
    5.9508    0.1244    0.0000 O   0  0  0  0  0  0  0  0  0  0  0  0
   12.0278    5.5440    0.0000 O   0  0  0  0  0  0  0  0  0  0  0  0
    9.9834    2.3411    0.0000 O   0  0  0  0  0  0  0  0  0  0  0  0
    7.9398   -0.0846    0.0000 O   0  0  0  0  0  0  0  0  0  0  0  0
    6.6231   -1.9447    0.0000 O   0  0  0  0  0  0  0  0  0  0  0  0
   11.9708    3.4562    0.0000 O   0  0  0  0  0  0  0  0  0  0  0  0
   14.5969    5.2350    0.0000 O   0  0  0  0  0  0  0  0  0  0  0  0
   13.9246    7.3041    0.0000 O   0  0  0  0  0  0  0  0  0  0  0  0
    5.7290   -3.7234    0.0000 O   0  0  0  0  0  0  0  0  0  0  0  0
    7.0498    1.0144    0.0000 O   0  0  0  0  0  0  0  0  0  0  0  0
   12.9708    2.4562    0.0000 O   0  0  0  0  0  0  0  0  0  0  0  0
    6.8408   -0.9746    0.0000 O   0  0  0  0  0  0  0  0  0  0  0  0
   10.9708    2.4562    0.0000 O   0  0  0  0  0  0  0  0  0  0  0  0
    9.1931   -7.7234    0.0000 O   0  0  0  0  0  0  0  0  0  0  0  0
    5.7290   -5.7234    0.0000 O   0  0  0  0  0  0  0  0  0  0  0  0
    7.4611   -9.7234    0.0000 O   0  0  0  0  0  0  0  0  0  0  0  0
    9.1931  -10.7235    0.0000 O   0  0  0  0  0  0  0  0  0  0  0  0
    7.4611   -6.7234    0.0000 O   0  0  0  0  0  0  0  0  0  0  0  0
   10.9252   -9.7234    0.0000 O   0  0  0  0  0  0  0  0  0  0  0  0
   10.9252   -7.7234    0.0000 O   0  0  0  0  0  0  0  0  0  0  0  0
    4.7290   -4.7234    0.0000 O   0  0  0  0  0  0  0  0  0  0  0  0
    6.7290   -4.7234    0.0000 O   0  0  0  0  0  0  0  0  0  0  0  0
    7.0950   -5.3574    0.0000 O   0  0  0  0  0  0  0  0  0  0  0  0
    6.0950   -7.0895    0.0000 O   0  0  0  0  0  0  0  0  0  0  0  0
   11.7434   -0.7074    0.0000 N   0  0  0  0  0  0  0  0  0  0  0  0
    3.7752    0.1244    0.0000 N   0  0  0  0  0  0  0  0  0  0  0  0
   11.7491    7.3041    0.0000 N   0  0  0  0  0  0  0  0  0  0  0  0
   12.5457   -2.1026    0.0000 N   0  0  0  0  0  0  0  0  0  0  0  0
    2.4715    1.0682    0.0000 N   0  0  0  0  0  0  0  0  0  0  0  0
   13.2171    0.3653    0.0000 N   0  0  0  0  0  0  0  0  0  0  0  0
    4.9961    1.4779    0.0000 N   0  0  0  0  0  0  0  0  0  0  0  0
   10.4454    8.2479    0.0000 N   0  0  0  0  0  0  0  0  0  0  0  0
   12.9699    8.6576    0.0000 N   0  0  0  0  0  0  0  0  0  0  0  0
   14.7156   -0.5033    0.0000 N   0  0  0  0  0  0  0  0  0  0  0  0
    4.2888    3.0590    0.0000 N   0  0  0  0  0  0  0  0  0  0  0  0
   14.7126   -2.2354    0.0000 N   0  0  0  0  0  0  0  0  0  0  0  0
    2.5660    3.2370    0.0000 N   0  0  0  0  0  0  0  0  0  0  0  0
   12.2627   10.2387    0.0000 N   0  0  0  0  0  0  0  0  0  0  0  0
   10.5398   10.4167    0.0000 N   0  0  0  0  0  0  0  0  0  0  0  0
   11.1048    0.9562    0.0000 C   0  0  2  0  0  0  0  0  0  0  0  0
   10.1913    1.3630    0.0000 C   0  0  1  0  0  0  0  0  0  0  0  0
    9.5221    0.6198    0.0000 C   0  0  1  0  0  0  0  0  0  0  0  0
   11.0003   -0.0383    0.0000 C   0  0  1  0  0  0  0  0  0  0  0  0
    5.3630   -0.6846    0.0000 C   0  0  2  0  0  0  0  0  0  0  0  0
    5.6720   -1.6357    0.0000 C   0  0  1  0  0  0  0  0  0  0  0  0
    4.3630   -0.6846    0.0000 C   0  0  1  0  0  0  0  0  0  0  0  0
    4.8630   -2.2234    0.0000 C   0  0  1  0  0  0  0  0  0  0  0  0
    8.5276    0.7244    0.0000 C   0  0  0  0  0  0  0  0  0  0  0  0
   12.8369    4.9562    0.0000 C   0  0  1  0  0  0  0  0  0  0  0  0
   13.6459    5.5440    0.0000 C   0  0  2  0  0  0  0  0  0  0  0  0
   13.3369    6.4951    0.0000 C   0  0  2  0  0  0  0  0  0  0  0  0
   12.3369    6.4951    0.0000 C   0  0  1  0  0  0  0  0  0  0  0  0
    4.8630   -3.2234    0.0000 C   0  0  0  0  0  0  0  0  0  0  0  0
   12.8369    3.9562    0.0000 C   0  0  0  0  0  0  0  0  0  0  0  0
   12.7156   -0.4999    0.0000 C   0  0  0  0  0  0  0  0  0  0  0  0
    4.0832    1.0696    0.0000 C   0  0  0  0  0  0  0  0  0  0  0  0
   11.6387   -1.6960    0.0000 C   0  0  0  0  0  0  0  0  0  0  0  0
    2.7811    0.1235    0.0000 C   0  0  0  0  0  0  0  0  0  0  0  0
   13.2141   -1.3668    0.0000 C   0  0  0  0  0  0  0  0  0  0  0  0
    3.2732    1.6560    0.0000 C   0  0  0  0  0  0  0  0  0  0  0  0
   12.0571    8.2493    0.0000 C   0  0  0  0  0  0  0  0  0  0  0  0
    8.3271   -9.2234    0.0000 C   0  0  1  0  0  0  0  0  0  0  0  0
   10.7550    7.3032    0.0000 C   0  0  0  0  0  0  0  0  0  0  0  0
    8.3271   -8.2234    0.0000 C   0  0  2  0  0  0  0  0  0  0  0  0
    9.1931   -9.7234    0.0000 C   0  0  2  0  0  0  0  0  0  0  0  0
   10.0592   -9.2234    0.0000 C   0  0  2  0  0  0  0  0  0  0  0  0
   11.2470    8.8356    0.0000 C   0  0  0  0  0  0  0  0  0  0  0  0
   10.0592   -8.2234    0.0000 C   0  0  3  0  0  0  0  0  0  0  0  0
   14.2141   -1.3685    0.0000 C   0  0  0  0  0  0  0  0  0  0  0  0
    7.4611   -7.7234    0.0000 C   0  0  0  0  0  0  0  0  0  0  0  0
    3.3760    2.6506    0.0000 C   0  0  0  0  0  0  0  0  0  0  0  0
   14.2171    0.3635    0.0000 C   0  0  0  0  0  0  0  0  0  0  0  0
   11.3499    9.8303    0.0000 C   0  0  0  0  0  0  0  0  0  0  0  0
    5.0989    2.4726    0.0000 C   0  0  0  0  0  0  0  0  0  0  0  0
   13.0727    9.6523    0.0000 C   0  0  0  0  0  0  0  0  0  0  0  0
   11.6248    0.6186    0.0000 H   0  0  0  0  0  0  0  0  0  0  0  0
    9.5924    1.5234    0.0000 H   0  0  0  0  0  0  0  0  0  0  0  0
    9.1845    0.0999    0.0000 H   0  0  0  0  0  0  0  0  0  0  0  0
   10.8398   -0.6371    0.0000 H   0  0  0  0  0  0  0  0  0  0  0  0
    5.0815   -0.1322    0.0000 H   0  0  0  0  0  0  0  0  0  0  0  0
    5.7690   -2.2480    0.0000 H   0  0  0  0  0  0  0  0  0  0  0  0
    4.6445   -0.1322    0.0000 H   0  0  0  0  0  0  0  0  0  0  0  0
    4.3106   -2.5049    0.0000 H   0  0  0  0  0  0  0  0  0  0  0  0
    8.6985    1.3204    0.0000 H   0  0  0  0  0  0  0  0  0  0  0  0
    7.9704    0.9962    0.0000 H   0  0  0  0  0  0  0  0  0  0  0  0
   12.2844    4.6748    0.0000 H   0  0  0  0  0  0  0  0  0  0  0  0
   14.0843    5.9824    0.0000 H   0  0  0  0  0  0  0  0  0  0  0  0
   13.0554    7.0475    0.0000 H   0  0  0  0  0  0  0  0  0  0  0  0
   11.7245    6.3981    0.0000 H   0  0  0  0  0  0  0  0  0  0  0  0
    4.2524   -3.1158    0.0000 H   0  0  0  0  0  0  0  0  0  0  0  0
    4.6510   -3.8061    0.0000 H   0  0  0  0  0  0  0  0  0  0  0  0
   13.0489    3.3736    0.0000 H   0  0  0  0  0  0  0  0  0  0  0  0
   13.4474    4.0639    0.0000 H   0  0  0  0  0  0  0  0  0  0  0  0
   10.4441    2.7560    0.0000 H   0  0  0  0  0  0  0  0  0  0  0  0
    7.0838   -1.5298    0.0000 H   0  0  0  0  0  0  0  0  0  0  0  0
   11.1012   -2.0050    0.0000 H   0  0  0  0  0  0  0  0  0  0  0  0
    2.4176   -0.3787    0.0000 H   0  0  0  0  0  0  0  0  0  0  0  0
   15.0577    5.6499    0.0000 H   0  0  0  0  0  0  0  0  0  0  0  0
   14.5413    7.2393    0.0000 H   0  0  0  0  0  0  0  0  0  0  0  0
    8.3271   -9.8434    0.0000 H   0  0  0  0  0  0  0  0  0  0  0  0
    8.3271   -7.6034    0.0000 H   0  0  0  0  0  0  0  0  0  0  0  0
    8.6562  -10.0335    0.0000 H   0  0  0  0  0  0  0  0  0  0  0  0
   10.3914    6.8010    0.0000 H   0  0  0  0  0  0  0  0  0  0  0  0
   10.0592   -9.8434    0.0000 H   0  0  0  0  0  0  0  0  0  0  0  0
    7.6162    1.2666    0.0000 H   0  0  0  0  0  0  0  0  0  0  0  0
   10.0592   -7.6034    0.0000 H   0  0  0  0  0  0  0  0  0  0  0  0
   13.2808    2.9932    0.0000 H   0  0  0  0  0  0  0  0  0  0  0  0
    6.8505   -7.6158    0.0000 H   0  0  0  0  0  0  0  0  0  0  0  0
    7.2490   -8.3061    0.0000 H   0  0  0  0  0  0  0  0  0  0  0  0
   14.5280    0.8999    0.0000 H   0  0  0  0  0  0  0  0  0  0  0  0
    5.6648    2.7257    0.0000 H   0  0  0  0  0  0  0  0  0  0  0  0
    6.9241   -9.4134    0.0000 H   0  0  0  0  0  0  0  0  0  0  0  0
    9.7301  -11.0335    0.0000 H   0  0  0  0  0  0  0  0  0  0  0  0
   11.4621   -9.4134    0.0000 H   0  0  0  0  0  0  0  0  0  0  0  0
   15.3326   -2.2365    0.0000 H   0  0  0  0  0  0  0  0  0  0  0  0
   14.4017   -2.7718    0.0000 H   0  0  0  0  0  0  0  0  0  0  0  0
   13.6387    9.9054    0.0000 H   0  0  0  0  0  0  0  0  0  0  0  0
   10.9252   -7.1034    0.0000 H   0  0  0  0  0  0  0  0  0  0  0  0
    4.4190   -5.2604    0.0000 H   0  0  0  0  0  0  0  0  0  0  0  0
    2.6297    3.8538    0.0000 H   0  0  0  0  0  0  0  0  0  0  0  0
    2.0000    2.9839    0.0000 H   0  0  0  0  0  0  0  0  0  0  0  0
   10.6036   11.0335    0.0000 H   0  0  0  0  0  0  0  0  0  0  0  0
    9.9739   10.1636    0.0000 H   0  0  0  0  0  0  0  0  0  0  0  0
    7.7150   -5.3574    0.0000 H   0  0  0  0  0  0  0  0  0  0  0  0
  1  8  1  0  0  0  0
  1 11  1  0  0  0  0
  1 17  1  0  0  0  0
  1 19  2  0  0  0  0
  2  7  1  0  0  0  0
  2 13  1  0  0  0  0
  2 18  1  0  0  0  0
  2 20  2  0  0  0  0
  3 16  1  0  0  0  0
  3 22  1  0  0  0  0
  3 28  1  0  0  0  0
  3 29  2  0  0  0  0
  4 22  1  0  0  0  0
  4 25  1  0  0  0  0
  4 30  1  0  0  0  0
  4 31  2  0  0  0  0
  5 49  1  0  0  0  0
  5 50  1  0  0  0  0
  6 53  1  0  0  0  0
  6 54  1  0  0  0  0
 47  7  1  1  0  0  0
 51  8  1  6  0  0  0
  9 56  1  0  0  0  0
  9 59  1  0  0  0  0
 48 10  1  1  0  0  0
 10101  1  0  0  0  0
 11 55  1  0  0  0  0
 52 12  1  6  0  0  0
 12102  1  0  0  0  0
 13 61  1  0  0  0  0
 57 14  1  6  0  0  0
 14105  1  0  0  0  0
 58 15  1  6  0  0  0
 15106  1  0  0  0  0
 16 60  1  0  0  0  0
 17112  1  0  0  0  0
 18114  1  0  0  0  0
 21 71  1  0  0  0  0
 21 75  1  0  0  0  0
 69 23  1  1  0  0  0
 23119  1  0  0  0  0
 72 24  1  6  0  0  0
 24120  1  0  0  0  0
 25 77  1  0  0  0  0
 73 26  1  6  0  0  0
 26121  1  0  0  0  0
 27 75  1  0  0  0  0
 27125  1  0  0  0  0
 28126  1  0  0  0  0
 30131  1  0  0  0  0
 50 32  1  6  0  0  0
 32 62  1  0  0  0  0
 32 64  1  0  0  0  0
 53 33  1  1  0  0  0
 33 63  1  0  0  0  0
 33 65  1  0  0  0  0
 59 34  1  1  0  0  0
 34 68  1  0  0  0  0
 34 70  1  0  0  0  0
 35 64  2  0  0  0  0
 35 66  1  0  0  0  0
 36 65  2  0  0  0  0
 36 67  1  0  0  0  0
 37 62  2  0  0  0  0
 37 79  1  0  0  0  0
 38 63  2  0  0  0  0
 38 81  1  0  0  0  0
 39 70  2  0  0  0  0
 39 74  1  0  0  0  0
 40 68  2  0  0  0  0
 40 82  1  0  0  0  0
 41 76  1  0  0  0  0
 41 79  2  0  0  0  0
 42 78  1  0  0  0  0
 42 81  2  0  0  0  0
 43 76  1  0  0  0  0
 43122  1  0  0  0  0
 43123  1  0  0  0  0
 44 78  1  0  0  0  0
 44127  1  0  0  0  0
 44128  1  0  0  0  0
 45 80  1  0  0  0  0
 45 82  2  0  0  0  0
 46 80  1  0  0  0  0
 46129  1  0  0  0  0
 46130  1  0  0  0  0
 47 48  1  0  0  0  0
 47 50  1  0  0  0  0
 47 83  1  0  0  0  0
 48 49  1  0  0  0  0
 48 84  1  0  0  0  0
 49 55  1  6  0  0  0
 49 85  1  0  0  0  0
 50 86  1  0  0  0  0
 51 52  1  0  0  0  0
 51 53  1  0  0  0  0
 51 87  1  0  0  0  0
 52 54  1  0  0  0  0
 52 88  1  0  0  0  0
 53 89  1  0  0  0  0
 54 60  1  1  0  0  0
 54 90  1  0  0  0  0
 55 91  1  0  0  0  0
 55 92  1  0  0  0  0
 56 57  1  0  0  0  0
 56 61  1  1  0  0  0
 56 93  1  0  0  0  0
 57 58  1  0  0  0  0
 57 94  1  0  0  0  0
 58 59  1  0  0  0  0
 58 95  1  0  0  0  0
 59 96  1  0  0  0  0
 60 97  1  0  0  0  0
 60 98  1  0  0  0  0
 61 99  1  0  0  0  0
 61100  1  0  0  0  0
 62 66  1  0  0  0  0
 63 67  1  0  0  0  0
 64103  1  0  0  0  0
 65104  1  0  0  0  0
 66 76  2  0  0  0  0
 67 78  2  0  0  0  0
 68 74  1  0  0  0  0
 69 71  1  0  0  0  0
 69 72  1  0  0  0  0
 69107  1  0  0  0  0
 70110  1  0  0  0  0
 71 77  1  6  0  0  0
 71108  1  0  0  0  0
 72 73  1  0  0  0  0
 72109  1  0  0  0  0
 73 75  1  0  0  0  0
 73111  1  0  0  0  0
 74 80  2  0  0  0  0
 75113  1  0  0  0  0
 77115  1  0  0  0  0
 77116  1  0  0  0  0
 79117  1  0  0  0  0
 81118  1  0  0  0  0
 82124  1  0  0  0  0
M  END
> <PUBCHEM_COMPOUND_CID>
503592
> <PUBCHEM_COMPOUND_CANONICALIZED>
1
> <PUBCHEM_CACTVS_COMPLEXITY>
2410
> <PUBCHEM_CACTVS_HBOND_ACCEPTOR>
39
> <PUBCHEM_CACTVS_HBOND_DONOR>
15
> <PUBCHEM_CACTVS_ROTATABLE_BOND>
21
> <PUBCHEM_CACTVS_SUBSKEYS>
AAADcfB//gOAAAAAAAAAAAAAAAAAAWLFiRIsWLEgAAAAAFgB/gAAHgAQCCAACBzxlwcF+L9MFxCgQQZhZICAgC0REKABUCAoVBCTWAJAyEAeRAgPAALXACHwcAYAAAAAAAAAAAAAAAAAAAAAAAAAAAAAAA==
> <PUBCHEM_IUPAC_OPENEYE_NAME>
[[(2R,3R,4R,5R)-5-(6-aminopurin-9-yl)-4-[[(2R,3R,4R,5R)-5-(6-aminopurin-9-yl)-4-[[(2R,3S,4R,5R)-5-(6-aminopurin-9-yl)-3,4-dihydroxy-tetrahydrofuran-2-yl]methoxy-hydroxy-phosphoryl]oxy-3-hydroxy-tetrahydrofuran-2-yl]methoxy-hydroxy-phosphoryl]oxy-3-hydroxy-tetrahydrofuran-2-yl]methoxy-hydroxy-phosphoryl] [(2S,3R,4R,5R)-3,4,5,6-tetrahydroxytetrahydropyran-2-yl]methyl hydrogen phosphate
> <PUBCHEM_IUPAC_CAS_NAME>
[[(2R,3R,4R,5R)-5-(6-aminopurin-9-yl)-4-[[(2R,3R,4R,5R)-5-(6-aminopurin-9-yl)-4-[[(2R,3S,4R,5R)-5-(6-aminopurin-9-yl)-3,4-dihydroxy-2-oxolanyl]methoxy-hydroxyphosphoryl]oxy-3-hydroxy-2-oxolanyl]methoxy-hydroxyphosphoryl]oxy-3-hydroxy-2-oxolanyl]methoxy-hydroxyphosphoryl] [(2S,3R,4R,5R)-3,4,5,6-tetrahydroxy-2-oxanyl]methyl hydrogen phosphate
> <PUBCHEM_IUPAC_NAME_MARKUP>
[[(2<I>R</I>,3<I>R</I>,4<I>R</I>,5<I>R</I>)-5-(6-aminopurin-9-yl)-4-[[(2<I>R</I>,3<I>R</I>,4<I>R</I>,5<I>R</I>)-5-(6-aminopurin-9-yl)-4-[[(2<I>R</I>,3<I>S</I>,4<I>R</I>,5<I>R</I>)-5-(6-aminopurin-9-yl)-3,4-dihydroxyoxolan-2-yl]methoxy-hydroxyphosphoryl]oxy-3-hydroxyoxolan-2-yl]methoxy-hydroxyphosphoryl]oxy-3-hydroxyoxolan-2-yl]methoxy-hydroxyphosphoryl] [(2<I>S</I>,3<I>R</I>,4<I>R</I>,5<I>R</I>)-3,4,5,6-tetrahydroxyoxan-2-yl]methyl hydrogen phosphate
> <PUBCHEM_IUPAC_NAME>
[[(2R,3R,4R,5R)-5-(6-aminopurin-9-yl)-4-[[(2R,3R,4R,5R)-5-(6-aminopurin-9-yl)-4-[[(2R,3S,4R,5R)-5-(6-aminopurin-9-yl)-3,4-dihydroxyoxolan-2-yl]methoxy-hydroxyphosphoryl]oxy-3-hydroxyoxolan-2-yl]methoxy-hydroxyphosphoryl]oxy-3-hydroxyoxolan-2-yl]methoxy-hydroxyphosphoryl] [(2S,3R,4R,5R)-3,4,5,6-tetrahydroxyoxan-2-yl]methyl hydrogen phosphate
> <PUBCHEM_IUPAC_SYSTEMATIC_NAME>
[[(2R,3R,4R,5R)-5-(6-aminopurin-9-yl)-4-[[(2R,3R,4R,5R)-5-(6-aminopurin-9-yl)-4-[[(2R,3S,4R,5R)-5-(6-aminopurin-9-yl)-3,4-bis(oxidanyl)oxolan-2-yl]methoxy-oxidanyl-phosphoryl]oxy-3-oxidanyl-oxolan-2-yl]methoxy-oxidanyl-phosphoryl]oxy-3-oxidanyl-oxolan-2-yl]methoxy-oxidanyl-phosphoryl] [(2S,3R,4R,5R)-3,4,5,6-tetrakis(oxidanyl)oxan-2-yl]methyl hydrogen phosphate
> <PUBCHEM_IUPAC_TRADITIONAL_NAME>
[[(2R,3R,4R,5R)-5-adenin-9-yl-4-[[(2R,3R,4R,5R)-5-adenin-9-yl-4-[[(2R,3S,4R,5R)-5-adenin-9-yl-3,4-dihydroxy-tetrahydrofuran-2-yl]methoxy-hydroxy-phosphoryl]oxy-3-hydroxy-tetrahydrofuran-2-yl]methoxy-hydroxy-phosphoryl]oxy-3-hydroxy-tetrahydrofuran-2-yl]methoxy-hydroxy-phosphoryl] [(2S,3R,4R,5R)-3,4,5,6-tetrahydroxytetrahydropyran-2-yl]methyl hydrogen phosphate
> <PUBCHEM_IUPAC_INCHI>
InChI=1S/C36H49N15O27P4/c37-27-15-30(43-5-40-27)49(8-46-15)33-23(57)19(53)11(72-33)1-68-79(60,61)76-25-20(54)13(73-34(25)50-9-47-16-28(38)41-6-44-31(16)50)3-69-80(62,63)77-26-21(55)14(74-35(26)51-10-48-17-29(39)42-7-45-32(17)51)4-71-82(66,67)78-81(64,65)70-2-12-18(52)22(56)24(58)36(59)75-12/h5-14,18-26,33-36,52-59H,1-4H2,(H,60,61)(H,62,63)(H,64,65)(H,66,67)(H2,37,40,43)(H2,38,41,44)(H2,39,42,45)/t11-,12+,13-,14-,18+,19-,20-,21-,22-,23-,24-,25-,26-,33-,34-,35-,36?/m1/s1
> <PUBCHEM_IUPAC_INCHIKEY>
HAJGPFHDHVQXJY-KDYMHNTHSA-N
> <PUBCHEM_XLOGP3_AA>
-11.9
> <PUBCHEM_EXACT_MASS>
1247.18727934
> <PUBCHEM_MOLECULAR_FORMULA>
C36H49N15O27P4
> <PUBCHEM_MOLECULAR_WEIGHT>
1247.8
> <PUBCHEM_OPENEYE_CAN_SMILES>
C1=NC(=C2C(=N1)N(C=N2)C3C(C(C(O3)COP(=O)(O)OC4C(C(OC4N5C=NC6=C(N=CN=C65)N)COP(=O)(O)OC7C(C(OC7N8C=NC9=C(N=CN=C98)N)COP(=O)(O)OP(=O)(O)OCC1C(C(C(C(O1)O)O)O)O)O)O)O)O)N
> <PUBCHEM_OPENEYE_ISO_SMILES>
C1=NC(=C2C(=N1)N(C=N2)[C@H]3[C@@H]([C@@H]([C@H](O3)COP(=O)(O)O[C@@H]4[C@@H]([C@H](O[C@H]4N5C=NC6=C(N=CN=C65)N)COP(=O)(O)O[C@@H]7[C@@H]([C@H](O[C@H]7N8C=NC9=C(N=CN=C98)N)COP(=O)(O)OP(=O)(O)OC[C@H]1[C@@H]([C@H]([C@H](C(O1)O)O)O)O)O)O)O)O)N
> <PUBCHEM_CACTVS_TPSA>
621
> <PUBCHEM_MONOISOTOPIC_WEIGHT>
1247.18727934
> <PUBCHEM_TOTAL_CHARGE>
0
> <PUBCHEM_HEAVY_ATOM_COUNT>
82
> <PUBCHEM_ATOM_DEF_STEREO_COUNT>
16
> <PUBCHEM_ATOM_UDEF_STEREO_COUNT>
1
> <PUBCHEM_BOND_DEF_STEREO_COUNT>
0
> <PUBCHEM_BOND_UDEF_STEREO_COUNT>
0
> <PUBCHEM_ISOTOPIC_ATOM_COUNT>
0
> <PUBCHEM_COMPONENT_COUNT>
1
> <PUBCHEM_CACTVS_TAUTO_COUNT>
-1
> <PUBCHEM_COORDINATE_TYPE>
1
5
255
> <PUBCHEM_BONDANNOTATIONS>
48  10  5
52  12  6
57  14  6
58  15  6
69  23  5
72  24  6
73  26  6
75  27  3
50  32  6
32  62  8
32  64  8
53  33  5
33  63  8
33  65  8
59  34  5
34  68  8
34  70  8
35  64  8
35  66  8
36  65  8
36  67  8
37  62  8
37  79  8
38  63  8
38  81  8
39  70  8
39  74  8
40  68  8
40  82  8
41  76  8
41  79  8
42  78  8
42  81  8
45  80  8
45  82  8
49  55  6
54  60  5
56  61  5
62  66  8
63  67  8
66  76  8
67  78  8
68  74  8
47  7  5
71  77  6
74  80  8
51  8  6
$$$$
