503537
  -OEChem-10302200282D
106112  0     1  0  0  0  0  0999 V2000
    9.7942    0.8625    0.0000 S   0  0  0  0  0  0  0  0  0  0  0  0
    7.1962   -1.6374    0.0000 O   0  0  0  0  0  0  0  0  0  0  0  0
   11.4693    3.9503    0.0000 O   0  0  0  0  0  0  0  0  0  0  0  0
    7.1962   -4.6374    0.0000 O   0  0  0  0  0  0  0  0  0  0  0  0
    5.4641   -3.6374    0.0000 O   0  0  0  0  0  0  0  0  0  0  0  0
    8.9282   -3.6374    0.0000 O   0  0  0  0  0  0  0  0  0  0  0  0
    8.9282   -1.6374    0.0000 O   0  0  0  0  0  0  0  0  0  0  0  0
    8.9002    3.6413    0.0000 O   0  0  0  0  0  0  0  0  0  0  0  0
    9.5725    5.7104    0.0000 O   0  0  0  0  0  0  0  0  0  0  0  0
    9.7942    1.8626    0.0000 O   0  0  0  0  0  0  0  0  0  0  0  0
    5.4641   -0.6375    0.0000 O   0  0  0  0  0  0  0  0  0  0  0  0
   13.1493    4.6923    0.0000 O   0  0  0  0  0  0  0  0  0  0  0  0
    5.4641   -4.6374    0.0000 O   0  0  0  0  0  0  0  0  0  0  0  0
    4.5981   -2.1374    0.0000 O   0  0  0  0  0  0  0  0  0  0  0  0
   10.7942    0.8625    0.0000 O   0  0  0  0  0  0  0  0  0  0  0  0
    8.7942    0.8625    0.0000 O   0  0  0  0  0  0  0  0  0  0  0  0
    8.0622   -0.1375    0.0000 O   0  0  0  0  0  0  0  0  0  0  0  0
    9.7942   -2.1374    0.0000 O   0  0  0  0  0  0  0  0  0  0  0  0
   13.5114    8.1374    0.0000 O   0  0  0  0  0  0  0  0  0  0  0  0
    3.7320   -0.6375    0.0000 O   0  0  0  0  0  0  0  0  0  0  0  0
   11.7480    5.7104    0.0000 N   0  0  0  0  0  0  0  0  0  0  0  0
    9.7942   -0.1375    0.0000 N   0  0  0  0  0  0  0  0  0  0  0  0
   13.3303    6.4149    0.0000 N   0  0  0  0  0  0  0  0  0  0  0  0
    7.1962   -3.6374    0.0000 C   0  0  1  0  0  0  0  0  0  0  0  0
    6.3301   -3.1374    0.0000 C   0  0  1  0  0  0  0  0  0  0  0  0
    8.0622   -3.1374    0.0000 C   0  0  1  0  0  0  0  0  0  0  0  0
    6.3301   -2.1374    0.0000 C   0  0  1  0  0  0  0  0  0  0  0  0
    9.8512    3.9503    0.0000 C   0  0  1  0  0  0  0  0  0  0  0  0
   10.1603    4.9014    0.0000 C   0  0  2  0  0  0  0  0  0  0  0  0
   10.6603    3.3626    0.0000 C   0  0  1  0  0  0  0  0  0  0  0  0
   11.1603    4.9014    0.0000 C   0  0  1  0  0  0  0  0  0  0  0  0
    8.0622   -2.1374    0.0000 C   0  0  2  0  0  0  0  0  0  0  0  0
    5.4641   -1.6374    0.0000 C   0  0  0  0  0  0  0  0  0  0  0  0
   10.6603    2.3626    0.0000 C   0  0  0  0  0  0  0  0  0  0  0  0
   12.7426    5.6059    0.0000 C   0  0  0  0  0  0  0  0  0  0  0  0
   11.3413    6.6240    0.0000 C   0  0  0  0  0  0  0  0  0  0  0  0
    6.3301   -5.1374    0.0000 C   0  0  0  0  0  0  0  0  0  0  0  0
    4.5981   -3.1374    0.0000 C   0  0  0  0  0  0  0  0  0  0  0  0
    8.9282   -0.6375    0.0000 C   0  0  0  0  0  0  0  0  0  0  0  0
    9.7942   -3.1374    0.0000 C   0  0  0  0  0  0  0  0  0  0  0  0
   11.9291    7.4330    0.0000 C   0  0  0  0  0  0  0  0  0  0  0  0
   12.9236    7.3284    0.0000 C   0  0  0  0  0  0  0  0  0  0  0  0
    6.3301   -6.1374    0.0000 C   0  0  0  0  0  0  0  0  0  0  0  0
    3.7320   -3.6374    0.0000 C   0  0  0  0  0  0  0  0  0  0  0  0
    4.5981   -0.1375    0.0000 C   0  0  0  0  0  0  0  0  0  0  0  0
   10.6603   -3.6374    0.0000 C   0  0  0  0  0  0  0  0  0  0  0  0
    4.5981    0.8625    0.0000 C   0  0  0  0  0  0  0  0  0  0  0  0
    7.1962   -6.6374    0.0000 C   0  0  0  0  0  0  0  0  0  0  0  0
    5.4641   -6.6374    0.0000 C   0  0  0  0  0  0  0  0  0  0  0  0
    3.7320   -4.6374    0.0000 C   0  0  0  0  0  0  0  0  0  0  0  0
    2.8660   -3.1374    0.0000 C   0  0  0  0  0  0  0  0  0  0  0  0
   11.5263   -3.1374    0.0000 C   0  0  0  0  0  0  0  0  0  0  0  0
   10.6603   -4.6374    0.0000 C   0  0  0  0  0  0  0  0  0  0  0  0
    7.1962   -7.6374    0.0000 C   0  0  0  0  0  0  0  0  0  0  0  0
    5.4641   -7.6374    0.0000 C   0  0  0  0  0  0  0  0  0  0  0  0
    2.8660   -5.1374    0.0000 C   0  0  0  0  0  0  0  0  0  0  0  0
    2.0000   -3.6374    0.0000 C   0  0  0  0  0  0  0  0  0  0  0  0
   12.3923   -3.6374    0.0000 C   0  0  0  0  0  0  0  0  0  0  0  0
   11.5263   -5.1374    0.0000 C   0  0  0  0  0  0  0  0  0  0  0  0
    5.4641    1.3626    0.0000 C   0  0  0  0  0  0  0  0  0  0  0  0
    3.7320    1.3626    0.0000 C   0  0  0  0  0  0  0  0  0  0  0  0
    6.3301   -8.1374    0.0000 C   0  0  0  0  0  0  0  0  0  0  0  0
    2.0000   -4.6374    0.0000 C   0  0  0  0  0  0  0  0  0  0  0  0
   12.3923   -4.6374    0.0000 C   0  0  0  0  0  0  0  0  0  0  0  0
    5.4641    2.3626    0.0000 C   0  0  0  0  0  0  0  0  0  0  0  0
    3.7320    2.3626    0.0000 C   0  0  0  0  0  0  0  0  0  0  0  0
    4.5981    2.8626    0.0000 C   0  0  0  0  0  0  0  0  0  0  0  0
    6.6592   -3.9474    0.0000 H   0  0  0  0  0  0  0  0  0  0  0  0
    6.3301   -3.7574    0.0000 H   0  0  0  0  0  0  0  0  0  0  0  0
    8.0622   -3.7574    0.0000 H   0  0  0  0  0  0  0  0  0  0  0  0
    6.3301   -1.5174    0.0000 H   0  0  0  0  0  0  0  0  0  0  0  0
    9.7543    3.3380    0.0000 H   0  0  0  0  0  0  0  0  0  0  0  0
   10.4417    5.4538    0.0000 H   0  0  0  0  0  0  0  0  0  0  0  0
   11.2127    3.0811    0.0000 H   0  0  0  0  0  0  0  0  0  0  0  0
   11.7726    4.8044    0.0000 H   0  0  0  0  0  0  0  0  0  0  0  0
    8.5991   -2.4474    0.0000 H   0  0  0  0  0  0  0  0  0  0  0  0
    4.8535   -1.5298    0.0000 H   0  0  0  0  0  0  0  0  0  0  0  0
    5.2520   -2.2201    0.0000 H   0  0  0  0  0  0  0  0  0  0  0  0
   10.8723    1.7799    0.0000 H   0  0  0  0  0  0  0  0  0  0  0  0
   11.2708    2.4702    0.0000 H   0  0  0  0  0  0  0  0  0  0  0  0
    8.4394    4.0562    0.0000 H   0  0  0  0  0  0  0  0  0  0  0  0
    8.9559    5.6456    0.0000 H   0  0  0  0  0  0  0  0  0  0  0  0
   10.7247    6.6888    0.0000 H   0  0  0  0  0  0  0  0  0  0  0  0
   10.3312   -0.4475    0.0000 H   0  0  0  0  0  0  0  0  0  0  0  0
   13.9469    6.3501    0.0000 H   0  0  0  0  0  0  0  0  0  0  0  0
   11.6769    7.9994    0.0000 H   0  0  0  0  0  0  0  0  0  0  0  0
    7.7331   -6.3275    0.0000 H   0  0  0  0  0  0  0  0  0  0  0  0
    4.9272   -6.3275    0.0000 H   0  0  0  0  0  0  0  0  0  0  0  0
    4.2690   -4.9474    0.0000 H   0  0  0  0  0  0  0  0  0  0  0  0
    2.8660   -2.5175    0.0000 H   0  0  0  0  0  0  0  0  0  0  0  0
   11.5263   -2.5175    0.0000 H   0  0  0  0  0  0  0  0  0  0  0  0
   10.1233   -4.9474    0.0000 H   0  0  0  0  0  0  0  0  0  0  0  0
    7.7331   -7.9474    0.0000 H   0  0  0  0  0  0  0  0  0  0  0  0
    4.9272   -7.9474    0.0000 H   0  0  0  0  0  0  0  0  0  0  0  0
    2.8660   -5.7575    0.0000 H   0  0  0  0  0  0  0  0  0  0  0  0
    1.4631   -3.3275    0.0000 H   0  0  0  0  0  0  0  0  0  0  0  0
   12.9292   -3.3274    0.0000 H   0  0  0  0  0  0  0  0  0  0  0  0
   11.5263   -5.7575    0.0000 H   0  0  0  0  0  0  0  0  0  0  0  0
    6.0010    1.0526    0.0000 H   0  0  0  0  0  0  0  0  0  0  0  0
    3.1951    1.0526    0.0000 H   0  0  0  0  0  0  0  0  0  0  0  0
    6.3301   -8.7574    0.0000 H   0  0  0  0  0  0  0  0  0  0  0  0
    1.4631   -4.9474    0.0000 H   0  0  0  0  0  0  0  0  0  0  0  0
   12.9292   -4.9474    0.0000 H   0  0  0  0  0  0  0  0  0  0  0  0
    6.0010    2.6725    0.0000 H   0  0  0  0  0  0  0  0  0  0  0  0
    3.1951    2.6725    0.0000 H   0  0  0  0  0  0  0  0  0  0  0  0
    4.5981    3.4825    0.0000 H   0  0  0  0  0  0  0  0  0  0  0  0
  1 10  1  0  0  0  0
  1 15  2  0  0  0  0
  1 16  2  0  0  0  0
  1 22  1  0  0  0  0
  2 27  1  0  0  0  0
  2 32  1  0  0  0  0
  3 30  1  0  0  0  0
  3 31  1  0  0  0  0
 24  4  1  1  0  0  0
  4 37  1  0  0  0  0
 25  5  1  6  0  0  0
  5 38  1  0  0  0  0
 26  6  1  1  0  0  0
  6 40  1  0  0  0  0
 32  7  1  6  0  0  0
  7 39  1  0  0  0  0
 28  8  1  1  0  0  0
  8 81  1  0  0  0  0
 29  9  1  1  0  0  0
  9 82  1  0  0  0  0
 10 34  1  0  0  0  0
 11 33  1  0  0  0  0
 11 45  1  0  0  0  0
 12 35  2  0  0  0  0
 13 37  2  0  0  0  0
 14 38  2  0  0  0  0
 17 39  2  0  0  0  0
 18 40  2  0  0  0  0
 19 42  2  0  0  0  0
 20 45  2  0  0  0  0
 31 21  1  6  0  0  0
 21 35  1  0  0  0  0
 21 36  1  0  0  0  0
 22 39  1  0  0  0  0
 22 84  1  0  0  0  0
 23 35  1  0  0  0  0
 23 42  1  0  0  0  0
 23 85  1  0  0  0  0
 24 25  1  0  0  0  0
 24 26  1  0  0  0  0
 24 68  1  0  0  0  0
 25 27  1  0  0  0  0
 25 69  1  0  0  0  0
 26 32  1  0  0  0  0
 26 70  1  0  0  0  0
 27 33  1  1  0  0  0
 27 71  1  0  0  0  0
 28 29  1  0  0  0  0
 28 30  1  0  0  0  0
 28 72  1  0  0  0  0
 29 31  1  0  0  0  0
 29 73  1  0  0  0  0
 30 34  1  6  0  0  0
 30 74  1  0  0  0  0
 31 75  1  0  0  0  0
 32 76  1  0  0  0  0
 33 77  1  0  0  0  0
 33 78  1  0  0  0  0
 34 79  1  0  0  0  0
 34 80  1  0  0  0  0
 36 41  2  0  0  0  0
 36 83  1  0  0  0  0
 37 43  1  0  0  0  0
 38 44  1  0  0  0  0
 40 46  1  0  0  0  0
 41 42  1  0  0  0  0
 41 86  1  0  0  0  0
 43 48  2  0  0  0  0
 43 49  1  0  0  0  0
 44 50  2  0  0  0  0
 44 51  1  0  0  0  0
 45 47  1  0  0  0  0
 46 52  2  0  0  0  0
 46 53  1  0  0  0  0
 47 60  2  0  0  0  0
 47 61  1  0  0  0  0
 48 54  1  0  0  0  0
 48 87  1  0  0  0  0
 49 55  2  0  0  0  0
 49 88  1  0  0  0  0
 50 56  1  0  0  0  0
 50 89  1  0  0  0  0
 51 57  2  0  0  0  0
 51 90  1  0  0  0  0
 52 58  1  0  0  0  0
 52 91  1  0  0  0  0
 53 59  2  0  0  0  0
 53 92  1  0  0  0  0
 54 62  2  0  0  0  0
 54 93  1  0  0  0  0
 55 62  1  0  0  0  0
 55 94  1  0  0  0  0
 56 63  2  0  0  0  0
 56 95  1  0  0  0  0
 57 63  1  0  0  0  0
 57 96  1  0  0  0  0
 58 64  2  0  0  0  0
 58 97  1  0  0  0  0
 59 64  1  0  0  0  0
 59 98  1  0  0  0  0
 60 65  1  0  0  0  0
 60 99  1  0  0  0  0
 61 66  2  0  0  0  0
 61100  1  0  0  0  0
 62101  1  0  0  0  0
 63102  1  0  0  0  0
 64103  1  0  0  0  0
 65 67  2  0  0  0  0
 65104  1  0  0  0  0
 66 67  1  0  0  0  0
 66105  1  0  0  0  0
 67106  1  0  0  0  0
M  END
> <PUBCHEM_COMPOUND_CID>
503537
> <PUBCHEM_COMPOUND_CANONICALIZED>
1
> <PUBCHEM_CACTVS_COMPLEXITY>
1920
> <PUBCHEM_CACTVS_HBOND_ACCEPTOR>
19
> <PUBCHEM_CACTVS_HBOND_DONOR>
4
> <PUBCHEM_CACTVS_ROTATABLE_BOND>
20
> <PUBCHEM_CACTVS_SUBSKEYS>
AAADcfB/PgBAAAAAAAAAAAAAAAAAASAAAAA0YMGCAAAAAAABVAAAHgAQSAAADBTxmAcxCIPABgCIAiHWWDCCAAAkAgAIiAEICMmbNjKAtRiucQAv1yMfqcf4+C6OAAAAAAAAAAAAAAAAAAAAAAAAAAAAAA==
> <PUBCHEM_IUPAC_OPENEYE_NAME>
[(2R,3R,4S,5S,6R)-3,4,5-tribenzoyloxy-6-[[(2R,3S,4R,5R)-5-(2,4-dioxopyrimidin-1-yl)-3,4-dihydroxy-tetrahydrofuran-2-yl]methoxysulfonylcarbamoyloxy]tetrahydropyran-2-yl]methyl benzoate
> <PUBCHEM_IUPAC_CAS_NAME>
benzoic acid [(2R,3R,4S,5S,6R)-3,4,5-tribenzoyloxy-6-[[[(2R,3S,4R,5R)-5-(2,4-dioxo-1-pyrimidinyl)-3,4-dihydroxy-2-oxolanyl]methoxysulfonylamino]-oxomethoxy]-2-oxanyl]methyl ester
> <PUBCHEM_IUPAC_NAME_MARKUP>
[(2<I>R</I>,3<I>R</I>,4<I>S</I>,5<I>S</I>,6<I>R</I>)-3,4,5-tribenzoyloxy-6-[[(2<I>R</I>,3<I>S</I>,4<I>R</I>,5<I>R</I>)-5-(2,4-dioxopyrimidin-1-yl)-3,4-dihydroxyoxolan-2-yl]methoxysulfonylcarbamoyloxy]oxan-2-yl]methyl benzoate
> <PUBCHEM_IUPAC_NAME>
[(2R,3R,4S,5S,6R)-3,4,5-tribenzoyloxy-6-[[(2R,3S,4R,5R)-5-(2,4-dioxopyrimidin-1-yl)-3,4-dihydroxyoxolan-2-yl]methoxysulfonylcarbamoyloxy]oxan-2-yl]methyl benzoate
> <PUBCHEM_IUPAC_SYSTEMATIC_NAME>
[(2R,3R,4S,5S,6R)-6-[[(2R,3S,4R,5R)-5-[2,4-bis(oxidanylidene)pyrimidin-1-yl]-3,4-bis(oxidanyl)oxolan-2-yl]methoxysulfonylcarbamoyloxy]-3,4,5-tris(phenylcarbonyloxy)oxan-2-yl]methyl benzoate
> <PUBCHEM_IUPAC_TRADITIONAL_NAME>
benzoic acid [(2R,3R,4S,5S,6R)-3,4,5-tribenzoyloxy-6-[[(2R,3S,4R,5R)-5-(2,4-diketopyrimidin-1-yl)-3,4-dihydroxy-tetrahydrofuran-2-yl]methoxysulfonylcarbamoyloxy]tetrahydropyran-2-yl]methyl ester
> <PUBCHEM_IUPAC_INCHI>
InChI=1S/C44H39N3O19S/c48-31-21-22-47(43(55)45-31)37-33(50)32(49)29(61-37)24-60-67(57,58)46-44(56)66-42-36(65-41(54)28-19-11-4-12-20-28)35(64-40(53)27-17-9-3-10-18-27)34(63-39(52)26-15-7-2-8-16-26)30(62-42)23-59-38(51)25-13-5-1-6-14-25/h1-22,29-30,32-37,42,49-50H,23-24H2,(H,46,56)(H,45,48,55)/t29-,30-,32-,33-,34-,35+,36+,37-,42-/m1/s1
> <PUBCHEM_IUPAC_INCHIKEY>
SUAOMMKFCCTVDC-DJRJZVMMSA-N
> <PUBCHEM_XLOGP3_AA>
3.4
> <PUBCHEM_EXACT_MASS>
945.18984720
> <PUBCHEM_MOLECULAR_FORMULA>
C44H39N3O19S
> <PUBCHEM_MOLECULAR_WEIGHT>
945.9
> <PUBCHEM_OPENEYE_CAN_SMILES>
C1=CC=C(C=C1)C(=O)OCC2C(C(C(C(O2)OC(=O)NS(=O)(=O)OCC3C(C(C(O3)N4C=CC(=O)NC4=O)O)O)OC(=O)C5=CC=CC=C5)OC(=O)C6=CC=CC=C6)OC(=O)C7=CC=CC=C7
> <PUBCHEM_OPENEYE_ISO_SMILES>
C1=CC=C(C=C1)C(=O)OC[C@@H]2[C@H]([C@@H]([C@@H]([C@H](O2)OC(=O)NS(=O)(=O)OC[C@@H]3[C@H]([C@H]([C@@H](O3)N4C=CC(=O)NC4=O)O)O)OC(=O)C5=CC=CC=C5)OC(=O)C6=CC=CC=C6)OC(=O)C7=CC=CC=C7
> <PUBCHEM_CACTVS_TPSA>
304
> <PUBCHEM_MONOISOTOPIC_WEIGHT>
945.18984720
> <PUBCHEM_TOTAL_CHARGE>
0
> <PUBCHEM_HEAVY_ATOM_COUNT>
67
> <PUBCHEM_ATOM_DEF_STEREO_COUNT>
9
> <PUBCHEM_ATOM_UDEF_STEREO_COUNT>
0
> <PUBCHEM_BOND_DEF_STEREO_COUNT>
0
> <PUBCHEM_BOND_UDEF_STEREO_COUNT>
0
> <PUBCHEM_ISOTOPIC_ATOM_COUNT>
0
> <PUBCHEM_COMPONENT_COUNT>
1
> <PUBCHEM_CACTVS_TAUTO_COUNT>
-1
> <PUBCHEM_COORDINATE_TYPE>
1
5
255
> <PUBCHEM_BONDANNOTATIONS>
31  21  6
21  35  8
21  36  8
23  35  8
23  42  8
27  33  5
30  34  6
36  41  8
24  4  5
41  42  8
43  48  8
43  49  8
44  50  8
44  51  8
46  52  8
46  53  8
47  60  8
47  61  8
48  54  8
49  55  8
25  5  6
50  56  8
51  57  8
52  58  8
53  59  8
54  62  8
55  62  8
56  63  8
57  63  8
58  64  8
59  64  8
26  6  5
60  65  8
61  66  8
65  67  8
66  67  8
32  7  6
28  8  5
29  9  5
$$$$
