503502
  -OEChem-10302200282D
 75 76  0     1  0  0  0  0  0999 V2000
   14.5000    1.0871    0.0000 P   0  0  3  0  0  0  0  0  0  0  0  0
   15.3660    2.5871    0.0000 O   0  0  0  0  0  0  0  0  0  0  0  0
   13.6340    1.5871    0.0000 O   0  0  0  0  0  0  0  0  0  0  0  0
   14.0000    0.2211    0.0000 O   0  0  0  0  0  0  0  0  0  0  0  0
   11.0000   -1.5110    0.0000 O   0  0  0  0  0  0  0  0  0  0  0  0
   15.0000    0.2211    0.0000 O   0  0  0  0  0  0  0  0  0  0  0  0
   16.2320    3.0871    0.0000 O   0  0  0  0  0  0  0  0  0  0  0  0
   15.3660    4.5871    0.0000 N   0  0  0  0  0  0  0  0  0  0  0  0
   17.0981    4.5871    0.0000 N   0  0  0  0  0  0  0  0  0  0  0  0
   17.9641    6.0871    0.0000 N   0  0  0  0  0  0  0  0  0  0  0  0
    6.5000   -4.1090    0.0000 C   0  0  0  0  0  0  0  0  0  0  0  0
    7.0000   -3.2430    0.0000 C   0  0  0  0  0  0  0  0  0  0  0  0
    5.5000   -4.1090    0.0000 C   0  0  0  0  0  0  0  0  0  0  0  0
    8.0000   -3.2430    0.0000 C   0  0  0  0  0  0  0  0  0  0  0  0
    5.0000   -4.9751    0.0000 C   0  0  0  0  0  0  0  0  0  0  0  0
    8.5000   -2.3770    0.0000 C   0  0  0  0  0  0  0  0  0  0  0  0
    4.0000   -4.9751    0.0000 C   0  0  0  0  0  0  0  0  0  0  0  0
   14.5000    3.0871    0.0000 C   0  0  2  0  0  0  0  0  0  0  0  0
    9.5000   -2.3770    0.0000 C   0  0  0  0  0  0  0  0  0  0  0  0
    3.5000   -5.8411    0.0000 C   0  0  0  0  0  0  0  0  0  0  0  0
   13.6340    2.5871    0.0000 C   0  0  0  0  0  0  0  0  0  0  0  0
   14.5000    4.0871    0.0000 C   0  0  0  0  0  0  0  0  0  0  0  0
   15.3660    1.5871    0.0000 C   0  0  0  0  0  0  0  0  0  0  0  0
   10.0000   -1.5110    0.0000 C   0  0  0  0  0  0  0  0  0  0  0  0
    2.5000   -5.8411    0.0000 C   0  0  0  0  0  0  0  0  0  0  0  0
   13.0000    0.2211    0.0000 C   0  0  0  0  0  0  0  0  0  0  0  0
   12.5000   -0.6449    0.0000 C   0  0  0  0  0  0  0  0  0  0  0  0
   11.5000   -0.6449    0.0000 C   0  0  0  0  0  0  0  0  0  0  0  0
    2.0000   -6.7071    0.0000 C   0  0  0  0  0  0  0  0  0  0  0  0
   15.3660    5.5871    0.0000 C   0  0  0  0  0  0  0  0  0  0  0  0
   16.2320    4.0871    0.0000 C   0  0  0  0  0  0  0  0  0  0  0  0
   16.2320    6.0871    0.0000 C   0  0  0  0  0  0  0  0  0  0  0  0
   17.0981    5.5871    0.0000 C   0  0  0  0  0  0  0  0  0  0  0  0
    6.3923   -4.7196    0.0000 H   0  0  0  0  0  0  0  0  0  0  0  0
    7.0826   -4.3211    0.0000 H   0  0  0  0  0  0  0  0  0  0  0  0
    7.1077   -2.6324    0.0000 H   0  0  0  0  0  0  0  0  0  0  0  0
    6.4174   -3.0310    0.0000 H   0  0  0  0  0  0  0  0  0  0  0  0
    5.6077   -3.4985    0.0000 H   0  0  0  0  0  0  0  0  0  0  0  0
    4.9174   -3.8970    0.0000 H   0  0  0  0  0  0  0  0  0  0  0  0
    7.8923   -3.8536    0.0000 H   0  0  0  0  0  0  0  0  0  0  0  0
    8.5826   -3.4551    0.0000 H   0  0  0  0  0  0  0  0  0  0  0  0
    4.8923   -5.5856    0.0000 H   0  0  0  0  0  0  0  0  0  0  0  0
    5.5826   -5.1871    0.0000 H   0  0  0  0  0  0  0  0  0  0  0  0
    8.6077   -1.7664    0.0000 H   0  0  0  0  0  0  0  0  0  0  0  0
    7.9174   -2.1649    0.0000 H   0  0  0  0  0  0  0  0  0  0  0  0
    4.1077   -4.3645    0.0000 H   0  0  0  0  0  0  0  0  0  0  0  0
    3.4174   -4.7630    0.0000 H   0  0  0  0  0  0  0  0  0  0  0  0
   15.0369    3.3971    0.0000 H   0  0  0  0  0  0  0  0  0  0  0  0
    9.3923   -2.9876    0.0000 H   0  0  0  0  0  0  0  0  0  0  0  0
   10.0826   -2.5890    0.0000 H   0  0  0  0  0  0  0  0  0  0  0  0
    3.3923   -6.4517    0.0000 H   0  0  0  0  0  0  0  0  0  0  0  0
    4.0826   -6.0531    0.0000 H   0  0  0  0  0  0  0  0  0  0  0  0
   13.4219    3.1697    0.0000 H   0  0  0  0  0  0  0  0  0  0  0  0
   13.0234    2.4794    0.0000 H   0  0  0  0  0  0  0  0  0  0  0  0
   14.2879    4.6697    0.0000 H   0  0  0  0  0  0  0  0  0  0  0  0
   13.8894    3.9794    0.0000 H   0  0  0  0  0  0  0  0  0  0  0  0
   15.5781    1.0045    0.0000 H   0  0  0  0  0  0  0  0  0  0  0  0
   15.9766    1.6948    0.0000 H   0  0  0  0  0  0  0  0  0  0  0  0
   10.1077   -0.9004    0.0000 H   0  0  0  0  0  0  0  0  0  0  0  0
    9.4174   -1.2989    0.0000 H   0  0  0  0  0  0  0  0  0  0  0  0
    2.6077   -5.2305    0.0000 H   0  0  0  0  0  0  0  0  0  0  0  0
    1.9174   -5.6290    0.0000 H   0  0  0  0  0  0  0  0  0  0  0  0
   13.1077    0.8317    0.0000 H   0  0  0  0  0  0  0  0  0  0  0  0
   12.4174    0.4331    0.0000 H   0  0  0  0  0  0  0  0  0  0  0  0
   12.3923   -1.2555    0.0000 H   0  0  0  0  0  0  0  0  0  0  0  0
   13.0826   -0.8570    0.0000 H   0  0  0  0  0  0  0  0  0  0  0  0
   11.6077   -0.0344    0.0000 H   0  0  0  0  0  0  0  0  0  0  0  0
   10.9174   -0.4329    0.0000 H   0  0  0  0  0  0  0  0  0  0  0  0
    1.4631   -6.3971    0.0000 H   0  0  0  0  0  0  0  0  0  0  0  0
    1.6900   -7.2440    0.0000 H   0  0  0  0  0  0  0  0  0  0  0  0
    2.5369   -7.0171    0.0000 H   0  0  0  0  0  0  0  0  0  0  0  0
   14.8291    5.8971    0.0000 H   0  0  0  0  0  0  0  0  0  0  0  0
   16.2320    6.7071    0.0000 H   0  0  0  0  0  0  0  0  0  0  0  0
   17.9641    6.7071    0.0000 H   0  0  0  0  0  0  0  0  0  0  0  0
   18.5010    5.7771    0.0000 H   0  0  0  0  0  0  0  0  0  0  0  0
  1  3  1  0  0  0  0
  1  4  1  0  0  0  0
  1  6  2  0  0  0  0
  1 23  1  0  0  0  0
  2 18  1  0  0  0  0
  2 23  1  0  0  0  0
  3 21  1  0  0  0  0
  4 26  1  0  0  0  0
  5 24  1  0  0  0  0
  5 28  1  0  0  0  0
  7 31  2  0  0  0  0
  8 22  1  0  0  0  0
  8 30  1  0  0  0  0
  8 31  1  0  0  0  0
  9 31  1  0  0  0  0
  9 33  2  0  0  0  0
 10 33  1  0  0  0  0
 10 74  1  0  0  0  0
 10 75  1  0  0  0  0
 11 12  1  0  0  0  0
 11 13  1  0  0  0  0
 11 34  1  0  0  0  0
 11 35  1  0  0  0  0
 12 14  1  0  0  0  0
 12 36  1  0  0  0  0
 12 37  1  0  0  0  0
 13 15  1  0  0  0  0
 13 38  1  0  0  0  0
 13 39  1  0  0  0  0
 14 16  1  0  0  0  0
 14 40  1  0  0  0  0
 14 41  1  0  0  0  0
 15 17  1  0  0  0  0
 15 42  1  0  0  0  0
 15 43  1  0  0  0  0
 16 19  1  0  0  0  0
 16 44  1  0  0  0  0
 16 45  1  0  0  0  0
 17 20  1  0  0  0  0
 17 46  1  0  0  0  0
 17 47  1  0  0  0  0
 18 21  1  0  0  0  0
 18 22  1  6  0  0  0
 18 48  1  0  0  0  0
 19 24  1  0  0  0  0
 19 49  1  0  0  0  0
 19 50  1  0  0  0  0
 20 25  1  0  0  0  0
 20 51  1  0  0  0  0
 20 52  1  0  0  0  0
 21 53  1  0  0  0  0
 21 54  1  0  0  0  0
 22 55  1  0  0  0  0
 22 56  1  0  0  0  0
 23 57  1  0  0  0  0
 23 58  1  0  0  0  0
 24 59  1  0  0  0  0
 24 60  1  0  0  0  0
 25 29  1  0  0  0  0
 25 61  1  0  0  0  0
 25 62  1  0  0  0  0
 26 27  1  0  0  0  0
 26 63  1  0  0  0  0
 26 64  1  0  0  0  0
 27 28  1  0  0  0  0
 27 65  1  0  0  0  0
 27 66  1  0  0  0  0
 28 67  1  0  0  0  0
 28 68  1  0  0  0  0
 29 69  1  0  0  0  0
 29 70  1  0  0  0  0
 29 71  1  0  0  0  0
 30 32  2  0  0  0  0
 30 72  1  0  0  0  0
 32 33  1  0  0  0  0
 32 73  1  0  0  0  0
M  END
> <PUBCHEM_COMPOUND_CID>
503502
> <PUBCHEM_COMPOUND_CANONICALIZED>
1
> <PUBCHEM_CACTVS_COMPLEXITY>
673
> <PUBCHEM_CACTVS_HBOND_ACCEPTOR>
6
> <PUBCHEM_CACTVS_HBOND_DONOR>
1
> <PUBCHEM_CACTVS_ROTATABLE_BOND>
18
> <PUBCHEM_CACTVS_SUBSKEYS>
AAADcfB7OAIAAAAAAAAAAAAAAAAAAAAAAAAkQAAAAAAAAAAAAAAAHggQACAACBThgAYDAANABRCoQCJmdICAAAEAAgAIAAAYABCDAAIAAAAHAAAHFgISAAGAwKAAAAAAAAAAAAAAAAAAAAAAAAAAAAAAAA==
> <PUBCHEM_IUPAC_OPENEYE_NAME>
4-amino-1-[[(5S)-2-(3-dodecoxypropoxy)-2-oxo-1,4,2lambda5-dioxaphosphinan-5-yl]methyl]pyrimidin-2-one
> <PUBCHEM_IUPAC_CAS_NAME>
4-amino-1-[[(5S)-2-(3-dodecoxypropoxy)-2-oxo-1,4,2lambda5-dioxaphosphorinan-5-yl]methyl]-2-pyrimidinone
> <PUBCHEM_IUPAC_NAME_MARKUP>
4-amino-1-[[(5<I>S</I>)-2-(3-dodecoxypropoxy)-2-oxo-1,4,2&lambda;<SUP>5</SUP>-dioxaphosphinan-5-yl]methyl]pyrimidin-2-one
> <PUBCHEM_IUPAC_NAME>
4-amino-1-[[(5S)-2-(3-dodecoxypropoxy)-2-oxo-1,4,2lambda5-dioxaphosphinan-5-yl]methyl]pyrimidin-2-one
> <PUBCHEM_IUPAC_SYSTEMATIC_NAME>
4-azanyl-1-[[(5S)-2-(3-dodecoxypropoxy)-2-oxidanylidene-1,4,2lambda5-dioxaphosphinan-5-yl]methyl]pyrimidin-2-one
> <PUBCHEM_IUPAC_TRADITIONAL_NAME>
4-amino-1-[[(5S)-2-keto-2-(3-lauryloxypropoxy)-1,4,2lambda5-dioxaphosphorinan-5-yl]methyl]pyrimidin-2-one
> <PUBCHEM_IUPAC_INCHI>
InChI=1S/C23H42N3O6P/c1-2-3-4-5-6-7-8-9-10-11-15-29-16-12-17-31-33(28)20-30-21(19-32-33)18-26-14-13-22(24)25-23(26)27/h13-14,21H,2-12,15-20H2,1H3,(H2,24,25,27)/t21-,33?/m0/s1
> <PUBCHEM_IUPAC_INCHIKEY>
CUXSEMAPGAUJTL-KEDGCLKXSA-N
> <PUBCHEM_XLOGP3_AA>
3.7
> <PUBCHEM_EXACT_MASS>
487.28112307
> <PUBCHEM_MOLECULAR_FORMULA>
C23H42N3O6P
> <PUBCHEM_MOLECULAR_WEIGHT>
487.6
> <PUBCHEM_OPENEYE_CAN_SMILES>
CCCCCCCCCCCCOCCCOP1(=O)COC(CO1)CN2C=CC(=NC2=O)N
> <PUBCHEM_OPENEYE_ISO_SMILES>
CCCCCCCCCCCCOCCCOP1(=O)CO[C@H](CO1)CN2C=CC(=NC2=O)N
> <PUBCHEM_CACTVS_TPSA>
113
> <PUBCHEM_MONOISOTOPIC_WEIGHT>
487.28112307
> <PUBCHEM_TOTAL_CHARGE>
0
> <PUBCHEM_HEAVY_ATOM_COUNT>
33
> <PUBCHEM_ATOM_DEF_STEREO_COUNT>
1
> <PUBCHEM_ATOM_UDEF_STEREO_COUNT>
1
> <PUBCHEM_BOND_DEF_STEREO_COUNT>
0
> <PUBCHEM_BOND_UDEF_STEREO_COUNT>
0
> <PUBCHEM_ISOTOPIC_ATOM_COUNT>
0
> <PUBCHEM_COMPONENT_COUNT>
1
> <PUBCHEM_CACTVS_TAUTO_COUNT>
-1
> <PUBCHEM_COORDINATE_TYPE>
1
5
255
> <PUBCHEM_BONDANNOTATIONS>
1  4  3
18  22  6
30  32  8
32  33  8
8  30  8
8  31  8
9  31  8
9  33  8
$$$$
