503591
  -OEChem-10302200282D
 97103  0     1  0  0  0  0  0999 V2000
    6.9453    3.6097    0.0000 P   0  0  3  0  0  0  0  0  0  0  0  0
    5.7290   -1.1336    0.0000 P   0  0  3  0  0  0  0  0  0  0  0  0
    6.5950   -2.6336    0.0000 P   0  0  3  0  0  0  0  0  0  0  0  0
    4.0540    1.9542    0.0000 O   0  0  0  0  0  0  0  0  0  0  0  0
   10.0221    3.3437    0.0000 O   0  0  0  0  0  0  0  0  0  0  0  0
    5.9508    3.7143    0.0000 O   0  0  0  0  0  0  0  0  0  0  0  0
    6.6231    1.6452    0.0000 O   0  0  0  0  0  0  0  0  0  0  0  0
    7.9398    3.5052    0.0000 O   0  0  0  0  0  0  0  0  0  0  0  0
    9.9834    5.9310    0.0000 O   0  0  0  0  0  0  0  0  0  0  0  0
   11.9708    5.0461    0.0000 O   0  0  0  0  0  0  0  0  0  0  0  0
    5.7290   -0.1336    0.0000 O   0  0  0  0  0  0  0  0  0  0  0  0
    9.1931   -4.1336    0.0000 O   0  0  0  0  0  0  0  0  0  0  0  0
    7.0498    4.6043    0.0000 O   0  0  0  0  0  0  0  0  0  0  0  0
    6.8408    2.6152    0.0000 O   0  0  0  0  0  0  0  0  0  0  0  0
    7.4611   -6.1336    0.0000 O   0  0  0  0  0  0  0  0  0  0  0  0
    9.1931   -7.1336    0.0000 O   0  0  0  0  0  0  0  0  0  0  0  0
   10.9252   -6.1336    0.0000 O   0  0  0  0  0  0  0  0  0  0  0  0
    7.4611   -3.1336    0.0000 O   0  0  0  0  0  0  0  0  0  0  0  0
    5.7290   -2.1336    0.0000 O   0  0  0  0  0  0  0  0  0  0  0  0
   10.9252   -4.1336    0.0000 O   0  0  0  0  0  0  0  0  0  0  0  0
    4.7290   -1.1336    0.0000 O   0  0  0  0  0  0  0  0  0  0  0  0
    6.7290   -1.1336    0.0000 O   0  0  0  0  0  0  0  0  0  0  0  0
    7.0950   -1.7676    0.0000 O   0  0  0  0  0  0  0  0  0  0  0  0
    6.0950   -3.4996    0.0000 O   0  0  0  0  0  0  0  0  0  0  0  0
    3.7752    3.7143    0.0000 N   0  0  0  0  0  0  0  0  0  0  0  0
   11.7434    2.8824    0.0000 N   0  0  0  0  0  0  0  0  0  0  0  0
    2.4715    4.6580    0.0000 N   0  0  0  0  0  0  0  0  0  0  0  0
    4.9961    5.0677    0.0000 N   0  0  0  0  0  0  0  0  0  0  0  0
   12.5457    1.4872    0.0000 N   0  0  0  0  0  0  0  0  0  0  0  0
   13.2171    3.9551    0.0000 N   0  0  0  0  0  0  0  0  0  0  0  0
    4.2888    6.6488    0.0000 N   0  0  0  0  0  0  0  0  0  0  0  0
    2.5660    6.8269    0.0000 N   0  0  0  0  0  0  0  0  0  0  0  0
   14.7156    3.0865    0.0000 N   0  0  0  0  0  0  0  0  0  0  0  0
   14.7126    1.3545    0.0000 N   0  0  0  0  0  0  0  0  0  0  0  0
    5.3630    2.9052    0.0000 C   0  0  2  0  0  0  0  0  0  0  0  0
    5.6720    1.9542    0.0000 C   0  0  1  0  0  0  0  0  0  0  0  0
    4.3630    2.9052    0.0000 C   0  0  1  0  0  0  0  0  0  0  0  0
    4.8630    1.3664    0.0000 C   0  0  1  0  0  0  0  0  0  0  0  0
    9.5221    4.2097    0.0000 C   0  0  1  0  0  0  0  0  0  0  0  0
   10.1913    4.9528    0.0000 C   0  0  2  0  0  0  0  0  0  0  0  0
   11.1048    4.5461    0.0000 C   0  0  2  0  0  0  0  0  0  0  0  0
   11.0003    3.5516    0.0000 C   0  0  1  0  0  0  0  0  0  0  0  0
    4.8630    0.3664    0.0000 C   0  0  0  0  0  0  0  0  0  0  0  0
    8.5276    4.3142    0.0000 C   0  0  0  0  0  0  0  0  0  0  0  0
    4.0832    4.6594    0.0000 C   0  0  0  0  0  0  0  0  0  0  0  0
    8.3271   -5.6336    0.0000 C   0  0  1  0  0  0  0  0  0  0  0  0
    8.3271   -4.6336    0.0000 C   0  0  2  0  0  0  0  0  0  0  0  0
    9.1931   -6.1336    0.0000 C   0  0  2  0  0  0  0  0  0  0  0  0
    2.7811    3.7134    0.0000 C   0  0  0  0  0  0  0  0  0  0  0  0
   10.0592   -5.6336    0.0000 C   0  0  2  0  0  0  0  0  0  0  0  0
   12.7156    3.0900    0.0000 C   0  0  0  0  0  0  0  0  0  0  0  0
   10.0592   -4.6336    0.0000 C   0  0  3  0  0  0  0  0  0  0  0  0
    3.2732    5.2458    0.0000 C   0  0  0  0  0  0  0  0  0  0  0  0
   11.6387    1.8939    0.0000 C   0  0  0  0  0  0  0  0  0  0  0  0
    7.4611   -4.1336    0.0000 C   0  0  0  0  0  0  0  0  0  0  0  0
   13.2141    2.2231    0.0000 C   0  0  0  0  0  0  0  0  0  0  0  0
    3.3760    6.2405    0.0000 C   0  0  0  0  0  0  0  0  0  0  0  0
   14.2141    2.2214    0.0000 C   0  0  0  0  0  0  0  0  0  0  0  0
    5.0989    6.0624    0.0000 C   0  0  0  0  0  0  0  0  0  0  0  0
   14.2171    3.9534    0.0000 C   0  0  0  0  0  0  0  0  0  0  0  0
    5.0815    3.4577    0.0000 H   0  0  0  0  0  0  0  0  0  0  0  0
    5.7690    1.3418    0.0000 H   0  0  0  0  0  0  0  0  0  0  0  0
    4.6445    3.4577    0.0000 H   0  0  0  0  0  0  0  0  0  0  0  0
    4.3106    1.0849    0.0000 H   0  0  0  0  0  0  0  0  0  0  0  0
    9.1845    3.6897    0.0000 H   0  0  0  0  0  0  0  0  0  0  0  0
    9.5924    5.1133    0.0000 H   0  0  0  0  0  0  0  0  0  0  0  0
   11.6248    4.2084    0.0000 H   0  0  0  0  0  0  0  0  0  0  0  0
   10.8398    2.9527    0.0000 H   0  0  0  0  0  0  0  0  0  0  0  0
    4.2524    0.4741    0.0000 H   0  0  0  0  0  0  0  0  0  0  0  0
    4.6510   -0.2162    0.0000 H   0  0  0  0  0  0  0  0  0  0  0  0
    8.6985    4.9102    0.0000 H   0  0  0  0  0  0  0  0  0  0  0  0
    7.9704    4.5860    0.0000 H   0  0  0  0  0  0  0  0  0  0  0  0
    7.0838    2.0600    0.0000 H   0  0  0  0  0  0  0  0  0  0  0  0
    8.3271   -6.2536    0.0000 H   0  0  0  0  0  0  0  0  0  0  0  0
    8.6562   -6.4436    0.0000 H   0  0  0  0  0  0  0  0  0  0  0  0
    8.3271   -4.0136    0.0000 H   0  0  0  0  0  0  0  0  0  0  0  0
    2.4176    3.2112    0.0000 H   0  0  0  0  0  0  0  0  0  0  0  0
   10.0592   -6.2536    0.0000 H   0  0  0  0  0  0  0  0  0  0  0  0
   10.4441    6.3458    0.0000 H   0  0  0  0  0  0  0  0  0  0  0  0
   11.9708    5.6661    0.0000 H   0  0  0  0  0  0  0  0  0  0  0  0
   10.0592   -4.0136    0.0000 H   0  0  0  0  0  0  0  0  0  0  0  0
   11.1012    1.5848    0.0000 H   0  0  0  0  0  0  0  0  0  0  0  0
    6.8505   -4.0259    0.0000 H   0  0  0  0  0  0  0  0  0  0  0  0
    7.2490   -4.7162    0.0000 H   0  0  0  0  0  0  0  0  0  0  0  0
    7.6162    4.8564    0.0000 H   0  0  0  0  0  0  0  0  0  0  0  0
    6.9241   -5.8236    0.0000 H   0  0  0  0  0  0  0  0  0  0  0  0
    9.7301   -7.4436    0.0000 H   0  0  0  0  0  0  0  0  0  0  0  0
   11.4621   -5.8236    0.0000 H   0  0  0  0  0  0  0  0  0  0  0  0
   10.9252   -3.5136    0.0000 H   0  0  0  0  0  0  0  0  0  0  0  0
    5.6648    6.3156    0.0000 H   0  0  0  0  0  0  0  0  0  0  0  0
   14.5280    4.4898    0.0000 H   0  0  0  0  0  0  0  0  0  0  0  0
    4.4190   -1.6705    0.0000 H   0  0  0  0  0  0  0  0  0  0  0  0
    2.6297    7.4436    0.0000 H   0  0  0  0  0  0  0  0  0  0  0  0
    2.0000    6.5737    0.0000 H   0  0  0  0  0  0  0  0  0  0  0  0
   15.3326    1.3534    0.0000 H   0  0  0  0  0  0  0  0  0  0  0  0
   14.4017    0.8181    0.0000 H   0  0  0  0  0  0  0  0  0  0  0  0
    7.7150   -1.7676    0.0000 H   0  0  0  0  0  0  0  0  0  0  0  0
  1  6  1  0  0  0  0
  1  8  1  0  0  0  0
  1 13  1  0  0  0  0
  1 14  2  0  0  0  0
  2 11  1  0  0  0  0
  2 19  1  0  0  0  0
  2 21  1  0  0  0  0
  2 22  2  0  0  0  0
  3 18  1  0  0  0  0
  3 19  1  0  0  0  0
  3 23  1  0  0  0  0
  3 24  2  0  0  0  0
  4 37  1  0  0  0  0
  4 38  1  0  0  0  0
  5 39  1  0  0  0  0
  5 42  1  0  0  0  0
 35  6  1  6  0  0  0
 36  7  1  6  0  0  0
  7 73  1  0  0  0  0
  8 44  1  0  0  0  0
 40  9  1  1  0  0  0
  9 79  1  0  0  0  0
 41 10  1  1  0  0  0
 10 80  1  0  0  0  0
 11 43  1  0  0  0  0
 12 47  1  0  0  0  0
 12 52  1  0  0  0  0
 13 85  1  0  0  0  0
 46 15  1  1  0  0  0
 15 86  1  0  0  0  0
 48 16  1  6  0  0  0
 16 87  1  0  0  0  0
 50 17  1  6  0  0  0
 17 88  1  0  0  0  0
 18 55  1  0  0  0  0
 20 52  1  0  0  0  0
 20 89  1  0  0  0  0
 21 92  1  0  0  0  0
 23 97  1  0  0  0  0
 37 25  1  1  0  0  0
 25 45  1  0  0  0  0
 25 49  1  0  0  0  0
 42 26  1  6  0  0  0
 26 51  1  0  0  0  0
 26 54  1  0  0  0  0
 27 49  2  0  0  0  0
 27 53  1  0  0  0  0
 28 45  2  0  0  0  0
 28 59  1  0  0  0  0
 29 54  2  0  0  0  0
 29 56  1  0  0  0  0
 30 51  2  0  0  0  0
 30 60  1  0  0  0  0
 31 57  1  0  0  0  0
 31 59  2  0  0  0  0
 32 57  1  0  0  0  0
 32 93  1  0  0  0  0
 32 94  1  0  0  0  0
 33 58  1  0  0  0  0
 33 60  2  0  0  0  0
 34 58  1  0  0  0  0
 34 95  1  0  0  0  0
 34 96  1  0  0  0  0
 35 36  1  0  0  0  0
 35 37  1  0  0  0  0
 35 61  1  0  0  0  0
 36 38  1  0  0  0  0
 36 62  1  0  0  0  0
 37 63  1  0  0  0  0
 38 43  1  1  0  0  0
 38 64  1  0  0  0  0
 39 40  1  0  0  0  0
 39 44  1  6  0  0  0
 39 65  1  0  0  0  0
 40 41  1  0  0  0  0
 40 66  1  0  0  0  0
 41 42  1  0  0  0  0
 41 67  1  0  0  0  0
 42 68  1  0  0  0  0
 43 69  1  0  0  0  0
 43 70  1  0  0  0  0
 44 71  1  0  0  0  0
 44 72  1  0  0  0  0
 45 53  1  0  0  0  0
 46 47  1  0  0  0  0
 46 48  1  0  0  0  0
 46 74  1  0  0  0  0
 47 55  1  6  0  0  0
 47 76  1  0  0  0  0
 48 50  1  0  0  0  0
 48 75  1  0  0  0  0
 49 77  1  0  0  0  0
 50 52  1  0  0  0  0
 50 78  1  0  0  0  0
 51 56  1  0  0  0  0
 52 81  1  0  0  0  0
 53 57  2  0  0  0  0
 54 82  1  0  0  0  0
 55 83  1  0  0  0  0
 55 84  1  0  0  0  0
 56 58  2  0  0  0  0
 59 90  1  0  0  0  0
 60 91  1  0  0  0  0
M  END
> <PUBCHEM_COMPOUND_CID>
503591
> <PUBCHEM_COMPOUND_CANONICALIZED>
1
> <PUBCHEM_CACTVS_COMPLEXITY>
1640
> <PUBCHEM_CACTVS_HBOND_ACCEPTOR>
29
> <PUBCHEM_CACTVS_HBOND_DONOR>
12
> <PUBCHEM_CACTVS_ROTATABLE_BOND>
15
> <PUBCHEM_CACTVS_SUBSKEYS>
AAADcfB7/gMAAAAAAAAAAAAAAAAAAWLEiQAsWJAAAAAAAFgB/gAAHgAQCCAACBzxlwcF+L9MFxCgQQZhZICAgC0REKABUCAoVBCTWAJAyEAeRAgPAALXACHwcAYAAAAAAAAAAAAAAAAAAAAAAAAAAAAAAA==
> <PUBCHEM_IUPAC_OPENEYE_NAME>
[[(2R,3R,4R,5R)-5-(6-aminopurin-9-yl)-4-[[(2R,3S,4R,5R)-5-(6-aminopurin-9-yl)-3,4-dihydroxy-tetrahydrofuran-2-yl]methoxy-hydroxy-phosphoryl]oxy-3-hydroxy-tetrahydrofuran-2-yl]methoxy-hydroxy-phosphoryl] [(2S,3R,4R,5R)-3,4,5,6-tetrahydroxytetrahydropyran-2-yl]methyl hydrogen phosphate
> <PUBCHEM_IUPAC_CAS_NAME>
[[(2R,3R,4R,5R)-5-(6-aminopurin-9-yl)-4-[[(2R,3S,4R,5R)-5-(6-aminopurin-9-yl)-3,4-dihydroxy-2-oxolanyl]methoxy-hydroxyphosphoryl]oxy-3-hydroxy-2-oxolanyl]methoxy-hydroxyphosphoryl] [(2S,3R,4R,5R)-3,4,5,6-tetrahydroxy-2-oxanyl]methyl hydrogen phosphate
> <PUBCHEM_IUPAC_NAME_MARKUP>
[[(2<I>R</I>,3<I>R</I>,4<I>R</I>,5<I>R</I>)-5-(6-aminopurin-9-yl)-4-[[(2<I>R</I>,3<I>S</I>,4<I>R</I>,5<I>R</I>)-5-(6-aminopurin-9-yl)-3,4-dihydroxyoxolan-2-yl]methoxy-hydroxyphosphoryl]oxy-3-hydroxyoxolan-2-yl]methoxy-hydroxyphosphoryl] [(2<I>S</I>,3<I>R</I>,4<I>R</I>,5<I>R</I>)-3,4,5,6-tetrahydroxyoxan-2-yl]methyl hydrogen phosphate
> <PUBCHEM_IUPAC_NAME>
[[(2R,3R,4R,5R)-5-(6-aminopurin-9-yl)-4-[[(2R,3S,4R,5R)-5-(6-aminopurin-9-yl)-3,4-dihydroxyoxolan-2-yl]methoxy-hydroxyphosphoryl]oxy-3-hydroxyoxolan-2-yl]methoxy-hydroxyphosphoryl] [(2S,3R,4R,5R)-3,4,5,6-tetrahydroxyoxan-2-yl]methyl hydrogen phosphate
> <PUBCHEM_IUPAC_SYSTEMATIC_NAME>
[[(2R,3R,4R,5R)-5-(6-aminopurin-9-yl)-4-[[(2R,3S,4R,5R)-5-(6-aminopurin-9-yl)-3,4-bis(oxidanyl)oxolan-2-yl]methoxy-oxidanyl-phosphoryl]oxy-3-oxidanyl-oxolan-2-yl]methoxy-oxidanyl-phosphoryl] [(2S,3R,4R,5R)-3,4,5,6-tetrakis(oxidanyl)oxan-2-yl]methyl hydrogen phosphate
> <PUBCHEM_IUPAC_TRADITIONAL_NAME>
[[(2R,3R,4R,5R)-5-adenin-9-yl-4-[[(2R,3S,4R,5R)-5-adenin-9-yl-3,4-dihydroxy-tetrahydrofuran-2-yl]methoxy-hydroxy-phosphoryl]oxy-3-hydroxy-tetrahydrofuran-2-yl]methoxy-hydroxy-phosphoryl] [(2S,3R,4R,5R)-3,4,5,6-tetrahydroxytetrahydropyran-2-yl]methyl hydrogen phosphate
> <PUBCHEM_IUPAC_INCHI>
InChI=1S/C26H37N10O21P3/c27-20-11-22(31-4-29-20)35(6-33-11)24-17(41)14(38)8(53-24)1-50-58(44,45)56-19-15(39)10(54-25(19)36-7-34-12-21(28)30-5-32-23(12)36)3-52-60(48,49)57-59(46,47)51-2-9-13(37)16(40)18(42)26(43)55-9/h4-10,13-19,24-26,37-43H,1-3H2,(H,44,45)(H,46,47)(H,48,49)(H2,27,29,31)(H2,28,30,32)/t8-,9+,10-,13+,14-,15-,16-,17-,18-,19-,24-,25-,26?/m1/s1
> <PUBCHEM_IUPAC_INCHIKEY>
LKNNSHCLCXQNFW-DXZFNLRPSA-N
> <PUBCHEM_XLOGP3_AA>
-9.4
> <PUBCHEM_EXACT_MASS>
918.13475922
> <PUBCHEM_MOLECULAR_FORMULA>
C26H37N10O21P3
> <PUBCHEM_MOLECULAR_WEIGHT>
918.5
> <PUBCHEM_OPENEYE_CAN_SMILES>
C1=NC(=C2C(=N1)N(C=N2)C3C(C(C(O3)COP(=O)(O)OC4C(C(OC4N5C=NC6=C(N=CN=C65)N)COP(=O)(O)OP(=O)(O)OCC7C(C(C(C(O7)O)O)O)O)O)O)O)N
> <PUBCHEM_OPENEYE_ISO_SMILES>
C1=NC(=C2C(=N1)N(C=N2)[C@H]3[C@@H]([C@@H]([C@H](O3)COP(=O)(O)O[C@@H]4[C@@H]([C@H](O[C@H]4N5C=NC6=C(N=CN=C65)N)COP(=O)(O)OP(=O)(O)OC[C@H]7[C@@H]([C@H]([C@H](C(O7)O)O)O)O)O)O)O)N
> <PUBCHEM_CACTVS_TPSA>
467
> <PUBCHEM_MONOISOTOPIC_WEIGHT>
918.13475922
> <PUBCHEM_TOTAL_CHARGE>
0
> <PUBCHEM_HEAVY_ATOM_COUNT>
60
> <PUBCHEM_ATOM_DEF_STEREO_COUNT>
12
> <PUBCHEM_ATOM_UDEF_STEREO_COUNT>
1
> <PUBCHEM_BOND_DEF_STEREO_COUNT>
0
> <PUBCHEM_BOND_UDEF_STEREO_COUNT>
0
> <PUBCHEM_ISOTOPIC_ATOM_COUNT>
0
> <PUBCHEM_COMPONENT_COUNT>
1
> <PUBCHEM_CACTVS_TAUTO_COUNT>
-1
> <PUBCHEM_COORDINATE_TYPE>
1
5
255
> <PUBCHEM_BONDANNOTATIONS>
41  10  5
46  15  5
48  16  6
50  17  6
52  20  3
37  25  5
25  45  8
25  49  8
42  26  6
26  51  8
26  54  8
27  49  8
27  53  8
28  45  8
28  59  8
29  54  8
29  56  8
30  51  8
30  60  8
31  57  8
31  59  8
33  58  8
33  60  8
38  43  5
39  44  6
45  53  8
47  55  6
51  56  8
53  57  8
56  58  8
35  6  6
36  7  6
40  9  5
$$$$
