503593
  -OEChem-10302200282D
115123  0     1  0  0  0  0  0999 V2000
   13.3956   -1.1866    0.0000 P   0  0  3  0  0  0  0  0  0  0  0  0
    8.4752    1.4556    0.0000 P   0  0  3  0  0  0  0  0  0  0  0  0
   18.9667   -0.7934    0.0000 P   0  0  3  0  0  0  0  0  0  0  0  0
   20.6896   -0.6153    0.0000 P   0  0  3  0  0  0  0  0  0  0  0  0
   22.4124   -0.4373    0.0000 P   0  0  0  0  0  0  0  0  0  0  0  0
   11.8069    1.4618    0.0000 O   0  0  0  0  0  0  0  0  0  0  0  0
   16.4321   -2.5579    0.0000 O   0  0  0  0  0  0  0  0  0  0  0  0
    9.2852    2.0420    0.0000 O   0  0  0  0  0  0  0  0  0  0  0  0
   13.8941   -2.0535    0.0000 O   0  0  0  0  0  0  0  0  0  0  0  0
    5.9405   -0.3088    0.0000 O   0  0  0  0  0  0  0  0  0  0  0  0
    9.7338   -0.0868    0.0000 O   0  0  0  0  0  0  0  0  0  0  0  0
   12.8971   -0.3197    0.0000 O   0  0  0  0  0  0  0  0  0  0  0  0
   15.1759   -0.2956    0.0000 O   0  0  0  0  0  0  0  0  0  0  0  0
    7.6651    0.8692    0.0000 O   0  0  0  0  0  0  0  0  0  0  0  0
    4.6844    1.9534    0.0000 O   0  0  0  0  0  0  0  0  0  0  0  0
    3.4026    0.1956    0.0000 O   0  0  0  0  0  0  0  0  0  0  0  0
   18.1567   -1.3798    0.0000 O   0  0  0  0  0  0  0  0  0  0  0  0
   12.5287   -1.6851    0.0000 O   0  0  0  0  0  0  0  0  0  0  0  0
    7.8888    2.2656    0.0000 O   0  0  0  0  0  0  0  0  0  0  0  0
   14.2625   -0.6881    0.0000 O   0  0  0  0  0  0  0  0  0  0  0  0
    9.0615    0.6456    0.0000 O   0  0  0  0  0  0  0  0  0  0  0  0
   19.7767   -0.2070    0.0000 O   0  0  0  0  0  0  0  0  0  0  0  0
   19.5531   -1.6034    0.0000 O   0  0  0  0  0  0  0  0  0  0  0  0
   18.3803    0.0166    0.0000 O   0  0  0  0  0  0  0  0  0  0  0  0
   21.6024   -1.0237    0.0000 O   0  0  0  0  0  0  0  0  0  0  0  0
   21.0979    0.2975    0.0000 O   0  0  0  0  0  0  0  0  0  0  0  0
   20.2813   -1.5282    0.0000 O   0  0  0  0  0  0  0  0  0  0  0  0
   23.2225    0.1491    0.0000 O   0  0  0  0  0  0  0  0  0  0  0  0
   22.9988   -1.2473    0.0000 O   0  0  0  0  0  0  0  0  0  0  0  0
   21.8261    0.3728    0.0000 O   0  0  0  0  0  0  0  0  0  0  0  0
   11.1712    3.1265    0.0000 N   0  0  0  0  0  0  0  0  0  0  0  0
   15.1698   -3.8158    0.0000 N   0  0  0  0  0  0  0  0  0  0  0  0
    4.6783   -1.5667    0.0000 N   0  0  0  0  0  0  0  0  0  0  0  0
   11.8309    4.5946    0.0000 N   0  0  0  0  0  0  0  0  0  0  0  0
   15.1698   -5.4252    0.0000 N   0  0  0  0  0  0  0  0  0  0  0  0
    9.4381    3.6912    0.0000 N   0  0  0  0  0  0  0  0  0  0  0  0
   13.3576   -3.6205    0.0000 N   0  0  0  0  0  0  0  0  0  0  0  0
    4.6783   -3.1762    0.0000 N   0  0  0  0  0  0  0  0  0  0  0  0
    2.8660   -1.3715    0.0000 N   0  0  0  0  0  0  0  0  0  0  0  0
    9.2630    5.4144    0.0000 N   0  0  0  0  0  0  0  0  0  0  0  0
   12.4915   -5.1205    0.0000 N   0  0  0  0  0  0  0  0  0  0  0  0
   10.6678    6.4276    0.0000 N   0  0  0  0  0  0  0  0  0  0  0  0
   13.3576   -6.6205    0.0000 N   0  0  0  0  0  0  0  0  0  0  0  0
    2.0000   -2.8715    0.0000 N   0  0  0  0  0  0  0  0  0  0  0  0
    2.8660   -4.3715    0.0000 N   0  0  0  0  0  0  0  0  0  0  0  0
   10.1980    1.6337    0.0000 C   0  0  2  0  0  0  0  0  0  0  0  0
   10.4043    0.6552    0.0000 C   0  0  1  0  0  0  0  0  0  0  0  0
   11.3986    0.5489    0.0000 C   0  0  1  0  0  0  0  0  0  0  0  0
   11.0649    2.1322    0.0000 C   0  0  1  0  0  0  0  0  0  0  0  0
   14.8941   -2.0552    0.0000 C   0  0  2  0  0  0  0  0  0  0  0  0
   15.4833   -1.2472    0.0000 C   0  0  1  0  0  0  0  0  0  0  0  0
   15.4805   -2.8652    0.0000 C   0  0  1  0  0  0  0  0  0  0  0  0
   16.4338   -1.5579    0.0000 C   0  0  1  0  0  0  0  0  0  0  0  0
   11.8971   -0.3180    0.0000 C   0  0  0  0  0  0  0  0  0  0  0  0
    5.9422    0.6912    0.0000 C   0  0  1  0  0  0  0  0  0  0  0  0
    4.9917    1.0018    0.0000 C   0  0  2  0  0  0  0  0  0  0  0  0
    4.4026    0.1938    0.0000 C   0  0  2  0  0  0  0  0  0  0  0  0
    4.9889   -0.6162    0.0000 C   0  0  1  0  0  0  0  0  0  0  0  0
   17.2438   -0.9715    0.0000 C   0  0  0  0  0  0  0  0  0  0  0  0
    6.7523    1.2776    0.0000 C   0  0  0  0  0  0  0  0  0  0  0  0
   10.4330    3.7923    0.0000 C   0  0  0  0  0  0  0  0  0  0  0  0
   14.2236   -4.1205    0.0000 C   0  0  0  0  0  0  0  0  0  0  0  0
   12.0334    3.6213    0.0000 C   0  0  0  0  0  0  0  0  0  0  0  0
   15.7534   -4.6205    0.0000 C   0  0  0  0  0  0  0  0  0  0  0  0
   10.8429    4.7045    0.0000 C   0  0  0  0  0  0  0  0  0  0  0  0
    3.7320   -1.8715    0.0000 C   0  0  0  0  0  0  0  0  0  0  0  0
   14.2236   -5.1205    0.0000 C   0  0  0  0  0  0  0  0  0  0  0  0
    5.2619   -2.3715    0.0000 C   0  0  0  0  0  0  0  0  0  0  0  0
    3.7320   -2.8715    0.0000 C   0  0  0  0  0  0  0  0  0  0  0  0
   10.2579    5.5155    0.0000 C   0  0  0  0  0  0  0  0  0  0  0  0
   13.3576   -5.6205    0.0000 C   0  0  0  0  0  0  0  0  0  0  0  0
    8.8531    4.5023    0.0000 C   0  0  0  0  0  0  0  0  0  0  0  0
    2.8660   -3.3715    0.0000 C   0  0  0  0  0  0  0  0  0  0  0  0
   12.4915   -4.1205    0.0000 C   0  0  0  0  0  0  0  0  0  0  0  0
    2.0000   -1.8715    0.0000 C   0  0  0  0  0  0  0  0  0  0  0  0
    9.7155    1.2443    0.0000 H   0  0  0  0  0  0  0  0  0  0  0  0
   10.6254    0.0760    0.0000 H   0  0  0  0  0  0  0  0  0  0  0  0
   12.0178    0.5803    0.0000 H   0  0  0  0  0  0  0  0  0  0  0  0
   10.5455    2.4708    0.0000 H   0  0  0  0  0  0  0  0  0  0  0  0
   14.6136   -1.5023    0.0000 H   0  0  0  0  0  0  0  0  0  0  0  0
   14.8711   -1.1492    0.0000 H   0  0  0  0  0  0  0  0  0  0  0  0
   14.8679   -2.9612    0.0000 H   0  0  0  0  0  0  0  0  0  0  0  0
   16.9857   -1.8403    0.0000 H   0  0  0  0  0  0  0  0  0  0  0  0
   11.3141   -0.5290    0.0000 H   0  0  0  0  0  0  0  0  0  0  0  0
   12.0037   -0.9287    0.0000 H   0  0  0  0  0  0  0  0  0  0  0  0
    6.4942    0.4087    0.0000 H   0  0  0  0  0  0  0  0  0  0  0  0
    5.4309    1.4395    0.0000 H   0  0  0  0  0  0  0  0  0  0  0  0
    4.1220    0.7467    0.0000 H   0  0  0  0  0  0  0  0  0  0  0  0
    5.4266   -1.0554    0.0000 H   0  0  0  0  0  0  0  0  0  0  0  0
   17.5914   -0.4581    0.0000 H   0  0  0  0  0  0  0  0  0  0  0  0
   16.7986   -0.5400    0.0000 H   0  0  0  0  0  0  0  0  0  0  0  0
    7.0999    1.7910    0.0000 H   0  0  0  0  0  0  0  0  0  0  0  0
    6.3070    1.7090    0.0000 H   0  0  0  0  0  0  0  0  0  0  0  0
    9.1276    0.0431    0.0000 H   0  0  0  0  0  0  0  0  0  0  0  0
   15.5916    0.1644    0.0000 H   0  0  0  0  0  0  0  0  0  0  0  0
   12.5989    3.3672    0.0000 H   0  0  0  0  0  0  0  0  0  0  0  0
   16.3734   -4.6205    0.0000 H   0  0  0  0  0  0  0  0  0  0  0  0
    4.0781    2.0834    0.0000 H   0  0  0  0  0  0  0  0  0  0  0  0
    3.0935    0.7330    0.0000 H   0  0  0  0  0  0  0  0  0  0  0  0
    5.8819   -2.3715    0.0000 H   0  0  0  0  0  0  0  0  0  0  0  0
   11.9923   -1.3742    0.0000 H   0  0  0  0  0  0  0  0  0  0  0  0
    7.2721    2.2019    0.0000 H   0  0  0  0  0  0  0  0  0  0  0  0
    8.2363    4.4396    0.0000 H   0  0  0  0  0  0  0  0  0  0  0  0
   11.9546   -3.8105    0.0000 H   0  0  0  0  0  0  0  0  0  0  0  0
   10.3051    6.9305    0.0000 H   0  0  0  0  0  0  0  0  0  0  0  0
   11.2846    6.4903    0.0000 H   0  0  0  0  0  0  0  0  0  0  0  0
    1.4631   -1.5615    0.0000 H   0  0  0  0  0  0  0  0  0  0  0  0
   12.8206   -6.9305    0.0000 H   0  0  0  0  0  0  0  0  0  0  0  0
   13.8945   -6.9305    0.0000 H   0  0  0  0  0  0  0  0  0  0  0  0
   19.2999   -2.1694    0.0000 H   0  0  0  0  0  0  0  0  0  0  0  0
    2.3291   -4.6815    0.0000 H   0  0  0  0  0  0  0  0  0  0  0  0
    3.4030   -4.6815    0.0000 H   0  0  0  0  0  0  0  0  0  0  0  0
   20.7343    0.7997    0.0000 H   0  0  0  0  0  0  0  0  0  0  0  0
   23.7884   -0.1041    0.0000 H   0  0  0  0  0  0  0  0  0  0  0  0
   22.7457   -1.8133    0.0000 H   0  0  0  0  0  0  0  0  0  0  0  0
  1  9  1  0  0  0  0
  1 12  1  0  0  0  0
  1 18  1  0  0  0  0
  1 20  2  0  0  0  0
  2  8  1  0  0  0  0
  2 14  1  0  0  0  0
  2 19  1  0  0  0  0
  2 21  2  0  0  0  0
  3 17  1  0  0  0  0
  3 22  1  0  0  0  0
  3 23  1  0  0  0  0
  3 24  2  0  0  0  0
  4 22  1  0  0  0  0
  4 25  1  0  0  0  0
  4 26  1  0  0  0  0
  4 27  2  0  0  0  0
  5 25  1  0  0  0  0
  5 28  1  0  0  0  0
  5 29  1  0  0  0  0
  5 30  2  0  0  0  0
  6 48  1  0  0  0  0
  6 49  1  0  0  0  0
  7 52  1  0  0  0  0
  7 53  1  0  0  0  0
 46  8  1  1  0  0  0
 50  9  1  6  0  0  0
 10 55  1  0  0  0  0
 10 58  1  0  0  0  0
 47 11  1  1  0  0  0
 11 94  1  0  0  0  0
 12 54  1  0  0  0  0
 51 13  1  6  0  0  0
 13 95  1  0  0  0  0
 14 60  1  0  0  0  0
 56 15  1  6  0  0  0
 15 98  1  0  0  0  0
 57 16  1  6  0  0  0
 16 99  1  0  0  0  0
 17 59  1  0  0  0  0
 18101  1  0  0  0  0
 19102  1  0  0  0  0
 23110  1  0  0  0  0
 26113  1  0  0  0  0
 28114  1  0  0  0  0
 29115  1  0  0  0  0
 49 31  1  6  0  0  0
 31 61  1  0  0  0  0
 31 63  1  0  0  0  0
 52 32  1  1  0  0  0
 32 62  1  0  0  0  0
 32 64  1  0  0  0  0
 58 33  1  1  0  0  0
 33 66  1  0  0  0  0
 33 68  1  0  0  0  0
 34 63  2  0  0  0  0
 34 65  1  0  0  0  0
 35 64  2  0  0  0  0
 35 67  1  0  0  0  0
 36 61  2  0  0  0  0
 36 72  1  0  0  0  0
 37 62  2  0  0  0  0
 37 74  1  0  0  0  0
 38 68  2  0  0  0  0
 38 69  1  0  0  0  0
 39 66  2  0  0  0  0
 39 75  1  0  0  0  0
 40 70  1  0  0  0  0
 40 72  2  0  0  0  0
 41 71  1  0  0  0  0
 41 74  2  0  0  0  0
 42 70  1  0  0  0  0
 42105  1  0  0  0  0
 42106  1  0  0  0  0
 43 71  1  0  0  0  0
 43108  1  0  0  0  0
 43109  1  0  0  0  0
 44 73  1  0  0  0  0
 44 75  2  0  0  0  0
 45 73  1  0  0  0  0
 45111  1  0  0  0  0
 45112  1  0  0  0  0
 46 47  1  0  0  0  0
 46 49  1  0  0  0  0
 46 76  1  0  0  0  0
 47 48  1  0  0  0  0
 47 77  1  0  0  0  0
 48 54  1  6  0  0  0
 48 78  1  0  0  0  0
 49 79  1  0  0  0  0
 50 51  1  0  0  0  0
 50 52  1  0  0  0  0
 50 80  1  0  0  0  0
 51 53  1  0  0  0  0
 51 81  1  0  0  0  0
 52 82  1  0  0  0  0
 53 59  1  1  0  0  0
 53 83  1  0  0  0  0
 54 84  1  0  0  0  0
 54 85  1  0  0  0  0
 55 56  1  0  0  0  0
 55 60  1  1  0  0  0
 55 86  1  0  0  0  0
 56 57  1  0  0  0  0
 56 87  1  0  0  0  0
 57 58  1  0  0  0  0
 57 88  1  0  0  0  0
 58 89  1  0  0  0  0
 59 90  1  0  0  0  0
 59 91  1  0  0  0  0
 60 92  1  0  0  0  0
 60 93  1  0  0  0  0
 61 65  1  0  0  0  0
 62 67  1  0  0  0  0
 63 96  1  0  0  0  0
 64 97  1  0  0  0  0
 65 70  2  0  0  0  0
 66 69  1  0  0  0  0
 67 71  2  0  0  0  0
 68100  1  0  0  0  0
 69 73  2  0  0  0  0
 72103  1  0  0  0  0
 74104  1  0  0  0  0
 75107  1  0  0  0  0
M  END
> <PUBCHEM_COMPOUND_CID>
503593
> <PUBCHEM_COMPOUND_CANONICALIZED>
1
> <PUBCHEM_CACTVS_COMPLEXITY>
2270
> <PUBCHEM_CACTVS_HBOND_ACCEPTOR>
37
> <PUBCHEM_CACTVS_HBOND_DONOR>
13
> <PUBCHEM_CACTVS_ROTATABLE_BOND>
20
> <PUBCHEM_CACTVS_SUBSKEYS>
AAADcfB7/gOAAAAAAAAAAAAAAAAAAWLFiRIsWLAAAAAAAFgB/gAAHgAQCCAACBzhlwYF8L9MFxCgQQZhZICAgC0REKABUCAoVBCDWAJAyEAeRAgPAALTACDwMAIAAAAAAAAAAAAAAAAAAAAAAAAAAAAAAA==
> <PUBCHEM_IUPAC_OPENEYE_NAME>
[[(2R,3R,4R,5R)-5-(6-aminopurin-9-yl)-4-[[(2R,3R,4R,5R)-5-(6-aminopurin-9-yl)-4-[[(2R,3S,4R,5R)-5-(6-aminopurin-9-yl)-3,4-dihydroxy-tetrahydrofuran-2-yl]methoxy-hydroxy-phosphoryl]oxy-3-hydroxy-tetrahydrofuran-2-yl]methoxy-hydroxy-phosphoryl]oxy-3-hydroxy-tetrahydrofuran-2-yl]methoxy-hydroxy-phosphoryl] phosphono hydrogen phosphate
> <PUBCHEM_IUPAC_CAS_NAME>
[[(2R,3R,4R,5R)-5-(6-aminopurin-9-yl)-4-[[(2R,3R,4R,5R)-5-(6-aminopurin-9-yl)-4-[[(2R,3S,4R,5R)-5-(6-aminopurin-9-yl)-3,4-dihydroxy-2-oxolanyl]methoxy-hydroxyphosphoryl]oxy-3-hydroxy-2-oxolanyl]methoxy-hydroxyphosphoryl]oxy-3-hydroxy-2-oxolanyl]methoxy-hydroxyphosphoryl] phosphono hydrogen phosphate
> <PUBCHEM_IUPAC_NAME_MARKUP>
[[(2<I>R</I>,3<I>R</I>,4<I>R</I>,5<I>R</I>)-5-(6-aminopurin-9-yl)-4-[[(2<I>R</I>,3<I>R</I>,4<I>R</I>,5<I>R</I>)-5-(6-aminopurin-9-yl)-4-[[(2<I>R</I>,3<I>S</I>,4<I>R</I>,5<I>R</I>)-5-(6-aminopurin-9-yl)-3,4-dihydroxyoxolan-2-yl]methoxy-hydroxyphosphoryl]oxy-3-hydroxyoxolan-2-yl]methoxy-hydroxyphosphoryl]oxy-3-hydroxyoxolan-2-yl]methoxy-hydroxyphosphoryl] phosphono hydrogen phosphate
> <PUBCHEM_IUPAC_NAME>
[[(2R,3R,4R,5R)-5-(6-aminopurin-9-yl)-4-[[(2R,3R,4R,5R)-5-(6-aminopurin-9-yl)-4-[[(2R,3S,4R,5R)-5-(6-aminopurin-9-yl)-3,4-dihydroxyoxolan-2-yl]methoxy-hydroxyphosphoryl]oxy-3-hydroxyoxolan-2-yl]methoxy-hydroxyphosphoryl]oxy-3-hydroxyoxolan-2-yl]methoxy-hydroxyphosphoryl] phosphono hydrogen phosphate
> <PUBCHEM_IUPAC_SYSTEMATIC_NAME>
[[(2R,3R,4R,5R)-5-(6-aminopurin-9-yl)-4-[[(2R,3R,4R,5R)-5-(6-aminopurin-9-yl)-4-[[(2R,3S,4R,5R)-5-(6-aminopurin-9-yl)-3,4-bis(oxidanyl)oxolan-2-yl]methoxy-oxidanyl-phosphoryl]oxy-3-oxidanyl-oxolan-2-yl]methoxy-oxidanyl-phosphoryl]oxy-3-oxidanyl-oxolan-2-yl]methoxy-oxidanyl-phosphoryl] phosphono hydrogen phosphate
> <PUBCHEM_IUPAC_TRADITIONAL_NAME>
[[(2R,3R,4R,5R)-5-adenin-9-yl-4-[[(2R,3R,4R,5R)-5-adenin-9-yl-4-[[(2R,3S,4R,5R)-5-adenin-9-yl-3,4-dihydroxy-tetrahydrofuran-2-yl]methoxy-hydroxy-phosphoryl]oxy-3-hydroxy-tetrahydrofuran-2-yl]methoxy-hydroxy-phosphoryl]oxy-3-hydroxy-tetrahydrofuran-2-yl]methoxy-hydroxy-phosphoryl] phosphono hydrogen phosphate
> <PUBCHEM_IUPAC_INCHI>
InChI=1S/C30H40N15O25P5/c31-22-13-25(37-4-34-22)43(7-40-13)28-19(49)16(46)10(64-28)1-61-72(53,54)67-20-17(47)11(65-29(20)44-8-41-14-23(32)35-5-38-26(14)44)2-62-73(55,56)68-21-18(48)12(3-63-74(57,58)70-75(59,60)69-71(50,51)52)66-30(21)45-9-42-15-24(33)36-6-39-27(15)45/h4-12,16-21,28-30,46-49H,1-3H2,(H,53,54)(H,55,56)(H,57,58)(H,59,60)(H2,31,34,37)(H2,32,35,38)(H2,33,36,39)(H2,50,51,52)/t10-,11-,12-,16-,17-,18-,19-,20-,21-,28-,29-,30-/m1/s1
> <PUBCHEM_IUPAC_INCHIKEY>
RTAGLZBJCCVJET-UQTMIEBXSA-N
> <PUBCHEM_XLOGP3_AA>
-10.9
> <PUBCHEM_EXACT_MASS>
1165.10078681
> <PUBCHEM_MOLECULAR_FORMULA>
C30H40N15O25P5
> <PUBCHEM_MOLECULAR_WEIGHT>
1165.6
> <PUBCHEM_OPENEYE_CAN_SMILES>
C1=NC(=C2C(=N1)N(C=N2)C3C(C(C(O3)COP(=O)(O)OC4C(C(OC4N5C=NC6=C(N=CN=C65)N)COP(=O)(O)OC7C(C(OC7N8C=NC9=C(N=CN=C98)N)COP(=O)(O)OP(=O)(O)OP(=O)(O)O)O)O)O)O)N
> <PUBCHEM_OPENEYE_ISO_SMILES>
C1=NC(=C2C(=N1)N(C=N2)[C@H]3[C@@H]([C@@H]([C@H](O3)COP(=O)(O)O[C@@H]4[C@@H]([C@H](O[C@H]4N5C=NC6=C(N=CN=C65)N)COP(=O)(O)O[C@@H]7[C@@H]([C@H](O[C@H]7N8C=NC9=C(N=CN=C98)N)COP(=O)(O)OP(=O)(O)OP(=O)(O)O)O)O)O)O)N
> <PUBCHEM_CACTVS_TPSA>
589
> <PUBCHEM_MONOISOTOPIC_WEIGHT>
1165.10078681
> <PUBCHEM_TOTAL_CHARGE>
0
> <PUBCHEM_HEAVY_ATOM_COUNT>
75
> <PUBCHEM_ATOM_DEF_STEREO_COUNT>
12
> <PUBCHEM_ATOM_UDEF_STEREO_COUNT>
0
> <PUBCHEM_BOND_DEF_STEREO_COUNT>
0
> <PUBCHEM_BOND_UDEF_STEREO_COUNT>
0
> <PUBCHEM_ISOTOPIC_ATOM_COUNT>
0
> <PUBCHEM_COMPONENT_COUNT>
1
> <PUBCHEM_CACTVS_TAUTO_COUNT>
-1
> <PUBCHEM_COORDINATE_TYPE>
1
5
255
> <PUBCHEM_BONDANNOTATIONS>
47  11  5
51  13  6
56  15  6
57  16  6
49  31  6
31  61  8
31  63  8
52  32  5
32  62  8
32  64  8
58  33  5
33  66  8
33  68  8
34  63  8
34  65  8
35  64  8
35  67  8
36  61  8
36  72  8
37  62  8
37  74  8
38  68  8
38  69  8
39  66  8
39  75  8
40  70  8
40  72  8
41  71  8
41  74  8
44  73  8
44  75  8
48  54  6
53  59  5
55  60  5
61  65  8
62  67  8
65  70  8
66  69  8
67  71  8
69  73  8
46  8  5
50  9  6
$$$$
