503509
  -OEChem-10302200282D
 39 42  0     1  0  0  0  0  0999 V2000
    9.9673    1.9811    0.0000 O   0  0  0  0  0  0  0  0  0  0  0  0
    4.2690   -1.1316    0.0000 N   0  0  0  0  0  0  0  0  0  0  0  0
    6.0812    1.6731    0.0000 N   0  0  0  0  0  0  0  0  0  0  0  0
    6.0812    0.0636    0.0000 N   0  0  0  0  0  0  0  0  0  0  0  0
    3.4030    0.3684    0.0000 N   0  0  0  0  0  0  0  0  0  0  0  0
    4.2690    1.8684    0.0000 N   0  0  0  0  0  0  0  0  0  0  0  0
    2.5369    1.8684    0.0000 N   0  0  0  0  0  0  0  0  0  0  0  0
    3.4030   -2.6316    0.0000 C   0  0  0  0  0  0  0  0  0  0  0  0
    2.9030   -3.4977    0.0000 C   0  0  0  0  0  0  0  0  0  0  0  0
    3.9030   -3.4977    0.0000 C   0  0  0  0  0  0  0  0  0  0  0  0
    8.3209    2.5192    0.0000 C   0  0  1  0  0  0  0  0  0  0  0  0
    3.4030   -1.6316    0.0000 C   0  0  0  0  0  0  0  0  0  0  0  0
    8.1147    3.4977    0.0000 C   0  0  0  0  0  0  0  0  0  0  0  0
    7.3704    2.8298    0.0000 C   0  0  0  0  0  0  0  0  0  0  0  0
    8.9888    1.7749    0.0000 C   0  0  0  0  0  0  0  0  0  0  0  0
    6.3919    2.6236    0.0000 C   0  0  0  0  0  0  0  0  0  0  0  0
    4.2690   -0.1316    0.0000 C   0  0  0  0  0  0  0  0  0  0  0  0
    5.1350    0.3684    0.0000 C   0  0  0  0  0  0  0  0  0  0  0  0
    5.1350    1.3684    0.0000 C   0  0  0  0  0  0  0  0  0  0  0  0
    6.6648    0.8684    0.0000 C   0  0  0  0  0  0  0  0  0  0  0  0
    3.4030    1.3684    0.0000 C   0  0  0  0  0  0  0  0  0  0  0  0
    4.0018   -2.4712    0.0000 H   0  0  0  0  0  0  0  0  0  0  0  0
    2.3204   -3.2856    0.0000 H   0  0  0  0  0  0  0  0  0  0  0  0
    2.7953   -4.1082    0.0000 H   0  0  0  0  0  0  0  0  0  0  0  0
    4.0106   -4.1082    0.0000 H   0  0  0  0  0  0  0  0  0  0  0  0
    4.4856   -3.2856    0.0000 H   0  0  0  0  0  0  0  0  0  0  0  0
    7.9823    1.9998    0.0000 H   0  0  0  0  0  0  0  0  0  0  0  0
    3.1909   -1.0490    0.0000 H   0  0  0  0  0  0  0  0  0  0  0  0
    2.7924   -1.7393    0.0000 H   0  0  0  0  0  0  0  0  0  0  0  0
    8.6900    3.7289    0.0000 H   0  0  0  0  0  0  0  0  0  0  0  0
    7.7871    4.0240    0.0000 H   0  0  0  0  0  0  0  0  0  0  0  0
    8.4624    1.4472    0.0000 H   0  0  0  0  0  0  0  0  0  0  0  0
    9.2200    1.1996    0.0000 H   0  0  0  0  0  0  0  0  0  0  0  0
    4.8059   -1.4416    0.0000 H   0  0  0  0  0  0  0  0  0  0  0  0
    5.9778    3.0851    0.0000 H   0  0  0  0  0  0  0  0  0  0  0  0
    7.2848    0.8684    0.0000 H   0  0  0  0  0  0  0  0  0  0  0  0
   10.3813    1.5196    0.0000 H   0  0  0  0  0  0  0  0  0  0  0  0
    2.0000    1.5584    0.0000 H   0  0  0  0  0  0  0  0  0  0  0  0
    2.5369    2.4884    0.0000 H   0  0  0  0  0  0  0  0  0  0  0  0
  1 15  1  0  0  0  0
  1 37  1  0  0  0  0
  2 12  1  0  0  0  0
  2 17  1  0  0  0  0
  2 34  1  0  0  0  0
  3 16  1  0  0  0  0
  3 19  1  0  0  0  0
  3 20  1  0  0  0  0
  4 18  1  0  0  0  0
  4 20  2  0  0  0  0
  5 17  1  0  0  0  0
  5 21  2  0  0  0  0
  6 19  2  0  0  0  0
  6 21  1  0  0  0  0
  7 21  1  0  0  0  0
  7 38  1  0  0  0  0
  7 39  1  0  0  0  0
  8  9  1  0  0  0  0
  8 10  1  0  0  0  0
  8 12  1  0  0  0  0
  8 22  1  0  0  0  0
  9 10  1  0  0  0  0
  9 23  1  0  0  0  0
  9 24  1  0  0  0  0
 10 25  1  0  0  0  0
 10 26  1  0  0  0  0
 11 13  1  0  0  0  0
 11 14  1  0  0  0  0
 11 15  1  6  0  0  0
 11 27  1  0  0  0  0
 12 28  1  0  0  0  0
 12 29  1  0  0  0  0
 13 14  1  0  0  0  0
 13 30  1  0  0  0  0
 13 31  1  0  0  0  0
 14 16  2  3  0  0  0
 15 32  1  0  0  0  0
 15 33  1  0  0  0  0
 16 35  1  0  0  0  0
 17 18  2  0  0  0  0
 18 19  1  0  0  0  0
 20 36  1  0  0  0  0
M  END
> <PUBCHEM_COMPOUND_CID>
503509
> <PUBCHEM_COMPOUND_CANONICALIZED>
1
> <PUBCHEM_CACTVS_COMPLEXITY>
426
> <PUBCHEM_CACTVS_HBOND_ACCEPTOR>
6
> <PUBCHEM_CACTVS_HBOND_DONOR>
3
> <PUBCHEM_CACTVS_ROTATABLE_BOND>
5
> <PUBCHEM_CACTVS_SUBSKEYS>
AAADceBzoAAAAAAAAAAAAAAAGDAAAWAAAAAsAAAAAAAAAFgB+AAAHgAQCAAADQjhlwYF8L/MEgCgAwZnZACAgC0xEKABUKAoVBiAWABAyUAURAgM0ALAACAAAAAAAAAAAAAAAAAAAAAAAAAAAAAAAAAAAA==
> <PUBCHEM_IUPAC_OPENEYE_NAME>
[(1S)-2-[[2-amino-6-(cyclopropylmethylamino)purin-9-yl]methylene]cyclopropyl]methanol
> <PUBCHEM_IUPAC_CAS_NAME>
[(1S)-2-[[2-amino-6-(cyclopropylmethylamino)-9-purinyl]methylidene]cyclopropyl]methanol
> <PUBCHEM_IUPAC_NAME_MARKUP>
[(1<I>S</I>)-2-[[2-amino-6-(cyclopropylmethylamino)purin-9-yl]methylidene]cyclopropyl]methanol
> <PUBCHEM_IUPAC_NAME>
[(1S)-2-[[2-amino-6-(cyclopropylmethylamino)purin-9-yl]methylidene]cyclopropyl]methanol
> <PUBCHEM_IUPAC_SYSTEMATIC_NAME>
[(1S)-2-[[2-azanyl-6-(cyclopropylmethylamino)purin-9-yl]methylidene]cyclopropyl]methanol
> <PUBCHEM_IUPAC_TRADITIONAL_NAME>
[(1S)-2-[[2-amino-6-(cyclopropylmethylamino)purin-9-yl]methylene]cyclopropyl]methanol
> <PUBCHEM_IUPAC_INCHI>
InChI=1S/C14H18N6O/c15-14-18-12(16-4-8-1-2-8)11-13(19-14)20(7-17-11)5-9-3-10(9)6-21/h5,7-8,10,21H,1-4,6H2,(H3,15,16,18,19)/t10-/m1/s1
> <PUBCHEM_IUPAC_INCHIKEY>
XAWISFDVBDAIRK-SNVBAGLBSA-N
> <PUBCHEM_XLOGP3_AA>
0.3
> <PUBCHEM_EXACT_MASS>
286.15420922
> <PUBCHEM_MOLECULAR_FORMULA>
C14H18N6O
> <PUBCHEM_MOLECULAR_WEIGHT>
286.33
> <PUBCHEM_OPENEYE_CAN_SMILES>
C1CC1CNC2=C3C(=NC(=N2)N)N(C=N3)C=C4CC4CO
> <PUBCHEM_OPENEYE_ISO_SMILES>
C1CC1CNC2=C3C(=NC(=N2)N)N(C=N3)C=C4C[C@@H]4CO
> <PUBCHEM_CACTVS_TPSA>
102
> <PUBCHEM_MONOISOTOPIC_WEIGHT>
286.15420922
> <PUBCHEM_TOTAL_CHARGE>
0
> <PUBCHEM_HEAVY_ATOM_COUNT>
21
> <PUBCHEM_ATOM_DEF_STEREO_COUNT>
1
> <PUBCHEM_ATOM_UDEF_STEREO_COUNT>
0
> <PUBCHEM_BOND_DEF_STEREO_COUNT>
0
> <PUBCHEM_BOND_UDEF_STEREO_COUNT>
1
> <PUBCHEM_ISOTOPIC_ATOM_COUNT>
0
> <PUBCHEM_COMPONENT_COUNT>
1
> <PUBCHEM_CACTVS_TAUTO_COUNT>
-1
> <PUBCHEM_COORDINATE_TYPE>
1
5
255
> <PUBCHEM_BONDANNOTATIONS>
11  15  6
14  16  1
17  18  8
18  19  8
3  19  8
3  20  8
4  18  8
4  20  8
5  17  8
5  21  8
6  19  8
6  21  8
$$$$
