503553
  -OEChem-10302200282D
125131  0     1  0  0  0  0  0999 V2000
    7.1962    1.1374    0.0000 O   0  0  0  0  0  0  0  0  0  0  0  0
    9.8512   -3.4503    0.0000 O   0  0  0  0  0  0  0  0  0  0  0  0
   12.4203   -3.1413    0.0000 O   0  0  0  0  0  0  0  0  0  0  0  0
   11.7480   -5.2104    0.0000 O   0  0  0  0  0  0  0  0  0  0  0  0
    8.9282    3.1374    0.0000 O   0  0  0  0  0  0  0  0  0  0  0  0
    7.1962    4.1374    0.0000 O   0  0  0  0  0  0  0  0  0  0  0  0
    9.7942   -1.3626    0.0000 O   0  0  0  0  0  0  0  0  0  0  0  0
    5.4641    3.1374    0.0000 O   0  0  0  0  0  0  0  0  0  0  0  0
    5.4641    0.1375    0.0000 O   0  0  0  0  0  0  0  0  0  0  0  0
   10.9737   -6.2285    0.0000 O   0  0  0  0  0  0  0  0  0  0  0  0
    9.7942    1.6374    0.0000 O   0  0  0  0  0  0  0  0  0  0  0  0
    8.9282    4.1374    0.0000 O   0  0  0  0  0  0  0  0  0  0  0  0
    4.5981    1.6374    0.0000 O   0  0  0  0  0  0  0  0  0  0  0  0
    7.8091   -7.6374    0.0000 O   0  0  0  0  0  0  0  0  0  0  0  0
    3.7320    0.1375    0.0000 O   0  0  0  0  0  0  0  0  0  0  0  0
    9.5725   -5.2104    0.0000 N   0  0  0  0  0  0  0  0  0  0  0  0
    9.3914   -6.9330    0.0000 N   0  0  0  0  0  0  0  0  0  0  0  0
    8.0622    1.6374    0.0000 C   0  0  3  0  0  0  0  0  0  0  0  0
   11.4693   -3.4503    0.0000 C   0  0  1  0  0  0  0  0  0  0  0  0
    8.0622    2.6374    0.0000 C   0  0  1  0  0  0  0  0  0  0  0  0
   11.1603   -4.4014    0.0000 C   0  0  2  0  0  0  0  0  0  0  0  0
    7.1962    3.1374    0.0000 C   0  0  2  0  0  0  0  0  0  0  0  0
   10.6603   -2.8626    0.0000 C   0  0  1  0  0  0  0  0  0  0  0  0
    6.3301    2.6374    0.0000 C   0  0  1  0  0  0  0  0  0  0  0  0
   10.1603   -4.4014    0.0000 C   0  0  1  0  0  0  0  0  0  0  0  0
    6.3301    1.6374    0.0000 C   0  0  1  0  0  0  0  0  0  0  0  0
    8.9282    1.1374    0.0000 C   0  0  0  0  0  0  0  0  0  0  0  0
   10.6603   -1.8626    0.0000 C   0  0  0  0  0  0  0  0  0  0  0  0
    8.9282    0.1375    0.0000 C   0  0  0  0  0  0  0  0  0  0  0  0
    5.4641    1.1374    0.0000 C   0  0  0  0  0  0  0  0  0  0  0  0
    9.7942   -0.3625    0.0000 C   0  0  0  0  0  0  0  0  0  0  0  0
   12.6282   -2.1632    0.0000 C   0  0  0  0  0  0  0  0  0  0  0  0
   12.7426   -5.1059    0.0000 C   0  0  0  0  0  0  0  0  0  0  0  0
    9.9792   -6.1240    0.0000 C   0  0  0  0  0  0  0  0  0  0  0  0
    8.5780   -5.1059    0.0000 C   0  0  0  0  0  0  0  0  0  0  0  0
    9.7942    2.6374    0.0000 C   0  0  0  0  0  0  0  0  0  0  0  0
    8.0622    4.6374    0.0000 C   0  0  0  0  0  0  0  0  0  0  0  0
   13.5793   -1.8542    0.0000 C   0  0  0  0  0  0  0  0  0  0  0  0
   11.8851   -1.4940    0.0000 C   0  0  0  0  0  0  0  0  0  0  0  0
   13.3303   -5.9149    0.0000 C   0  0  0  0  0  0  0  0  0  0  0  0
   13.1493   -4.1923    0.0000 C   0  0  0  0  0  0  0  0  0  0  0  0
    4.5981    2.6374    0.0000 C   0  0  0  0  0  0  0  0  0  0  0  0
    7.9902   -5.9149    0.0000 C   0  0  0  0  0  0  0  0  0  0  0  0
    8.3969   -6.8284    0.0000 C   0  0  0  0  0  0  0  0  0  0  0  0
   10.6603    3.1374    0.0000 C   0  0  0  0  0  0  0  0  0  0  0  0
    8.0622    5.6374    0.0000 C   0  0  0  0  0  0  0  0  0  0  0  0
    3.7320    3.1374    0.0000 C   0  0  0  0  0  0  0  0  0  0  0  0
    4.5981   -0.3625    0.0000 C   0  0  0  0  0  0  0  0  0  0  0  0
   10.6603    4.1374    0.0000 C   0  0  0  0  0  0  0  0  0  0  0  0
   11.5263    2.6374    0.0000 C   0  0  0  0  0  0  0  0  0  0  0  0
    4.5981   -1.3626    0.0000 C   0  0  0  0  0  0  0  0  0  0  0  0
    8.9282    6.1374    0.0000 C   0  0  0  0  0  0  0  0  0  0  0  0
    7.1962    6.1374    0.0000 C   0  0  0  0  0  0  0  0  0  0  0  0
    2.8660    2.6374    0.0000 C   0  0  0  0  0  0  0  0  0  0  0  0
    3.7320    4.1374    0.0000 C   0  0  0  0  0  0  0  0  0  0  0  0
   11.5263    4.6374    0.0000 C   0  0  0  0  0  0  0  0  0  0  0  0
   12.3923    3.1374    0.0000 C   0  0  0  0  0  0  0  0  0  0  0  0
    8.9282    7.1374    0.0000 C   0  0  0  0  0  0  0  0  0  0  0  0
    7.1962    7.1374    0.0000 C   0  0  0  0  0  0  0  0  0  0  0  0
    2.0000    3.1374    0.0000 C   0  0  0  0  0  0  0  0  0  0  0  0
    2.8660    4.6374    0.0000 C   0  0  0  0  0  0  0  0  0  0  0  0
    5.4641   -1.8626    0.0000 C   0  0  0  0  0  0  0  0  0  0  0  0
    3.7320   -1.8626    0.0000 C   0  0  0  0  0  0  0  0  0  0  0  0
   12.3923    4.1374    0.0000 C   0  0  0  0  0  0  0  0  0  0  0  0
    8.0622    7.6374    0.0000 C   0  0  0  0  0  0  0  0  0  0  0  0
    2.0000    4.1374    0.0000 C   0  0  0  0  0  0  0  0  0  0  0  0
    5.4641   -2.8626    0.0000 C   0  0  0  0  0  0  0  0  0  0  0  0
    3.7320   -2.8626    0.0000 C   0  0  0  0  0  0  0  0  0  0  0  0
    4.5981   -3.3626    0.0000 C   0  0  0  0  0  0  0  0  0  0  0  0
    8.0622    1.0174    0.0000 H   0  0  0  0  0  0  0  0  0  0  0  0
   11.9077   -3.8887    0.0000 H   0  0  0  0  0  0  0  0  0  0  0  0
    8.0622    3.2574    0.0000 H   0  0  0  0  0  0  0  0  0  0  0  0
   11.7726   -4.3044    0.0000 H   0  0  0  0  0  0  0  0  0  0  0  0
    6.6592    3.4474    0.0000 H   0  0  0  0  0  0  0  0  0  0  0  0
   10.1078   -2.5811    0.0000 H   0  0  0  0  0  0  0  0  0  0  0  0
    5.7932    2.3275    0.0000 H   0  0  0  0  0  0  0  0  0  0  0  0
   10.4417   -4.9538    0.0000 H   0  0  0  0  0  0  0  0  0  0  0  0
    6.3301    1.0174    0.0000 H   0  0  0  0  0  0  0  0  0  0  0  0
    9.5388    1.0298    0.0000 H   0  0  0  0  0  0  0  0  0  0  0  0
    9.1403    1.7201    0.0000 H   0  0  0  0  0  0  0  0  0  0  0  0
   11.2708   -1.9702    0.0000 H   0  0  0  0  0  0  0  0  0  0  0  0
   10.8723   -1.2799    0.0000 H   0  0  0  0  0  0  0  0  0  0  0  0
    8.3176    0.2451    0.0000 H   0  0  0  0  0  0  0  0  0  0  0  0
    8.7162   -0.4452    0.0000 H   0  0  0  0  0  0  0  0  0  0  0  0
    5.2520    1.7201    0.0000 H   0  0  0  0  0  0  0  0  0  0  0  0
    4.8535    1.0298    0.0000 H   0  0  0  0  0  0  0  0  0  0  0  0
   10.4048   -0.4702    0.0000 H   0  0  0  0  0  0  0  0  0  0  0  0
   10.0063    0.2201    0.0000 H   0  0  0  0  0  0  0  0  0  0  0  0
   13.0890   -2.5780    0.0000 H   0  0  0  0  0  0  0  0  0  0  0  0
   12.4904   -5.6723    0.0000 H   0  0  0  0  0  0  0  0  0  0  0  0
    8.3258   -4.5395    0.0000 H   0  0  0  0  0  0  0  0  0  0  0  0
   13.7709   -2.4438    0.0000 H   0  0  0  0  0  0  0  0  0  0  0  0
   14.1690   -1.6626    0.0000 H   0  0  0  0  0  0  0  0  0  0  0  0
   13.3877   -1.2645    0.0000 H   0  0  0  0  0  0  0  0  0  0  0  0
   12.3000   -1.0333    0.0000 H   0  0  0  0  0  0  0  0  0  0  0  0
   11.4243   -1.0792    0.0000 H   0  0  0  0  0  0  0  0  0  0  0  0
   11.4702   -1.9548    0.0000 H   0  0  0  0  0  0  0  0  0  0  0  0
   12.8288   -6.2793    0.0000 H   0  0  0  0  0  0  0  0  0  0  0  0
   13.6948   -6.4165    0.0000 H   0  0  0  0  0  0  0  0  0  0  0  0
   13.8319   -5.5505    0.0000 H   0  0  0  0  0  0  0  0  0  0  0  0
   13.7157   -4.4445    0.0000 H   0  0  0  0  0  0  0  0  0  0  0  0
   13.4015   -3.6259    0.0000 H   0  0  0  0  0  0  0  0  0  0  0  0
   12.5829   -3.9402    0.0000 H   0  0  0  0  0  0  0  0  0  0  0  0
    9.6436   -7.4994    0.0000 H   0  0  0  0  0  0  0  0  0  0  0  0
    7.3736   -5.8501    0.0000 H   0  0  0  0  0  0  0  0  0  0  0  0
   10.1233    4.4474    0.0000 H   0  0  0  0  0  0  0  0  0  0  0  0
   11.5263    2.0175    0.0000 H   0  0  0  0  0  0  0  0  0  0  0  0
    9.4651    5.8275    0.0000 H   0  0  0  0  0  0  0  0  0  0  0  0
    6.6592    5.8275    0.0000 H   0  0  0  0  0  0  0  0  0  0  0  0
    2.8660    2.0175    0.0000 H   0  0  0  0  0  0  0  0  0  0  0  0
    4.2690    4.4474    0.0000 H   0  0  0  0  0  0  0  0  0  0  0  0
   11.5263    5.2575    0.0000 H   0  0  0  0  0  0  0  0  0  0  0  0
   12.9292    2.8275    0.0000 H   0  0  0  0  0  0  0  0  0  0  0  0
    9.4651    7.4474    0.0000 H   0  0  0  0  0  0  0  0  0  0  0  0
    6.6592    7.4474    0.0000 H   0  0  0  0  0  0  0  0  0  0  0  0
    1.4631    2.8275    0.0000 H   0  0  0  0  0  0  0  0  0  0  0  0
    2.8660    5.2575    0.0000 H   0  0  0  0  0  0  0  0  0  0  0  0
    6.0010   -1.5526    0.0000 H   0  0  0  0  0  0  0  0  0  0  0  0
    3.1951   -1.5526    0.0000 H   0  0  0  0  0  0  0  0  0  0  0  0
   12.9292    4.4474    0.0000 H   0  0  0  0  0  0  0  0  0  0  0  0
    8.0622    8.2574    0.0000 H   0  0  0  0  0  0  0  0  0  0  0  0
    1.4631    4.4474    0.0000 H   0  0  0  0  0  0  0  0  0  0  0  0
    6.0010   -3.1725    0.0000 H   0  0  0  0  0  0  0  0  0  0  0  0
    3.1951   -3.1725    0.0000 H   0  0  0  0  0  0  0  0  0  0  0  0
    4.5981   -3.9825    0.0000 H   0  0  0  0  0  0  0  0  0  0  0  0
  1 18  1  0  0  0  0
  1 26  1  0  0  0  0
  2 23  1  0  0  0  0
  2 25  1  0  0  0  0
 19  3  1  1  0  0  0
  3 32  1  0  0  0  0
 21  4  1  1  0  0  0
  4 33  1  0  0  0  0
 20  5  1  1  0  0  0
  5 36  1  0  0  0  0
 22  6  1  6  0  0  0
  6 37  1  0  0  0  0
  7 28  1  0  0  0  0
  7 31  1  0  0  0  0
 24  8  1  1  0  0  0
  8 42  1  0  0  0  0
  9 30  1  0  0  0  0
  9 48  1  0  0  0  0
 10 34  2  0  0  0  0
 11 36  2  0  0  0  0
 12 37  2  0  0  0  0
 13 42  2  0  0  0  0
 14 44  2  0  0  0  0
 15 48  2  0  0  0  0
 25 16  1  6  0  0  0
 16 34  1  0  0  0  0
 16 35  1  0  0  0  0
 17 34  1  0  0  0  0
 17 44  1  0  0  0  0
 17104  1  0  0  0  0
 18 20  1  0  0  0  0
 18 27  1  0  0  0  0
 18 70  1  0  0  0  0
 19 21  1  0  0  0  0
 19 23  1  0  0  0  0
 19 71  1  0  0  0  0
 20 22  1  0  0  0  0
 20 72  1  0  0  0  0
 21 25  1  0  0  0  0
 21 73  1  0  0  0  0
 22 24  1  0  0  0  0
 22 74  1  0  0  0  0
 23 28  1  6  0  0  0
 23 75  1  0  0  0  0
 24 26  1  0  0  0  0
 24 76  1  0  0  0  0
 25 77  1  0  0  0  0
 26 30  1  6  0  0  0
 26 78  1  0  0  0  0
 27 29  1  0  0  0  0
 27 79  1  0  0  0  0
 27 80  1  0  0  0  0
 28 81  1  0  0  0  0
 28 82  1  0  0  0  0
 29 31  1  0  0  0  0
 29 83  1  0  0  0  0
 29 84  1  0  0  0  0
 30 85  1  0  0  0  0
 30 86  1  0  0  0  0
 31 87  1  0  0  0  0
 31 88  1  0  0  0  0
 32 38  1  0  0  0  0
 32 39  1  0  0  0  0
 32 89  1  0  0  0  0
 33 40  1  0  0  0  0
 33 41  1  0  0  0  0
 33 90  1  0  0  0  0
 35 43  2  0  0  0  0
 35 91  1  0  0  0  0
 36 45  1  0  0  0  0
 37 46  1  0  0  0  0
 38 92  1  0  0  0  0
 38 93  1  0  0  0  0
 38 94  1  0  0  0  0
 39 95  1  0  0  0  0
 39 96  1  0  0  0  0
 39 97  1  0  0  0  0
 40 98  1  0  0  0  0
 40 99  1  0  0  0  0
 40100  1  0  0  0  0
 41101  1  0  0  0  0
 41102  1  0  0  0  0
 41103  1  0  0  0  0
 42 47  1  0  0  0  0
 43 44  1  0  0  0  0
 43105  1  0  0  0  0
 45 49  2  0  0  0  0
 45 50  1  0  0  0  0
 46 52  2  0  0  0  0
 46 53  1  0  0  0  0
 47 54  2  0  0  0  0
 47 55  1  0  0  0  0
 48 51  1  0  0  0  0
 49 56  1  0  0  0  0
 49106  1  0  0  0  0
 50 57  2  0  0  0  0
 50107  1  0  0  0  0
 51 62  2  0  0  0  0
 51 63  1  0  0  0  0
 52 58  1  0  0  0  0
 52108  1  0  0  0  0
 53 59  2  0  0  0  0
 53109  1  0  0  0  0
 54 60  1  0  0  0  0
 54110  1  0  0  0  0
 55 61  2  0  0  0  0
 55111  1  0  0  0  0
 56 64  2  0  0  0  0
 56112  1  0  0  0  0
 57 64  1  0  0  0  0
 57113  1  0  0  0  0
 58 65  2  0  0  0  0
 58114  1  0  0  0  0
 59 65  1  0  0  0  0
 59115  1  0  0  0  0
 60 66  2  0  0  0  0
 60116  1  0  0  0  0
 61 66  1  0  0  0  0
 61117  1  0  0  0  0
 62 67  1  0  0  0  0
 62118  1  0  0  0  0
 63 68  2  0  0  0  0
 63119  1  0  0  0  0
 64120  1  0  0  0  0
 65121  1  0  0  0  0
 66122  1  0  0  0  0
 67 69  2  0  0  0  0
 67123  1  0  0  0  0
 68 69  1  0  0  0  0
 68124  1  0  0  0  0
 69125  1  0  0  0  0
M  END
> <PUBCHEM_COMPOUND_CID>
503553
> <PUBCHEM_COMPOUND_CANONICALIZED>
1
> <PUBCHEM_CACTVS_COMPLEXITY>
1730
> <PUBCHEM_CACTVS_HBOND_ACCEPTOR>
15
> <PUBCHEM_CACTVS_HBOND_DONOR>
1
> <PUBCHEM_CACTVS_ROTATABLE_BOND>
24
> <PUBCHEM_CACTVS_SUBSKEYS>
AAADcfB/PAAAAAAAAAAAAAAAAAAAASAAAAA0YMGCAAAAAAABVAAAHgAQAAAADBThmAYzCIPABACIAiHWWACCAAAkAgAIiAEICMiLJjKAtRiPMQAv1yMaqcf4+K6OAAAAAAAAAAAAAAAAAAAAAAAAAAAAAA==
> <PUBCHEM_IUPAC_OPENEYE_NAME>
[(2R,3R,4R,5S)-3,4,5-tribenzoyloxy-6-[3-[[(2R,3R,4R,5R)-5-(2,4-dioxopyrimidin-1-yl)-3,4-diisopropoxy-tetrahydrofuran-2-yl]methoxy]propyl]tetrahydropyran-2-yl]methyl benzoate
> <PUBCHEM_IUPAC_CAS_NAME>
benzoic acid [(2R,3R,4R,5S)-3,4,5-tribenzoyloxy-6-[3-[[(2R,3R,4R,5R)-5-(2,4-dioxo-1-pyrimidinyl)-3,4-di(propan-2-yloxy)-2-oxolanyl]methoxy]propyl]-2-oxanyl]methyl ester
> <PUBCHEM_IUPAC_NAME_MARKUP>
[(2<I>R</I>,3<I>R</I>,4<I>R</I>,5<I>S</I>)-3,4,5-tribenzoyloxy-6-[3-[[(2<I>R</I>,3<I>R</I>,4<I>R</I>,5<I>R</I>)-5-(2,4-dioxopyrimidin-1-yl)-3,4-di(propan-2-yloxy)oxolan-2-yl]methoxy]propyl]oxan-2-yl]methyl benzoate
> <PUBCHEM_IUPAC_NAME>
[(2R,3R,4R,5S)-3,4,5-tribenzoyloxy-6-[3-[[(2R,3R,4R,5R)-5-(2,4-dioxopyrimidin-1-yl)-3,4-di(propan-2-yloxy)oxolan-2-yl]methoxy]propyl]oxan-2-yl]methyl benzoate
> <PUBCHEM_IUPAC_SYSTEMATIC_NAME>
[(2R,3R,4R,5S)-6-[3-[[(2R,3R,4R,5R)-5-[2,4-bis(oxidanylidene)pyrimidin-1-yl]-3,4-di(propan-2-yloxy)oxolan-2-yl]methoxy]propyl]-3,4,5-tris(phenylcarbonyloxy)oxan-2-yl]methyl benzoate
> <PUBCHEM_IUPAC_TRADITIONAL_NAME>
benzoic acid [(2R,3R,4R,5S)-3,4,5-tribenzoyloxy-6-[3-[[(2R,3R,4R,5R)-5-(2,4-diketopyrimidin-1-yl)-3,4-diisopropoxy-tetrahydrofuran-2-yl]methoxy]propyl]tetrahydropyran-2-yl]methyl ester
> <PUBCHEM_IUPAC_INCHI>
InChI=1S/C52H56N2O15/c1-32(2)63-44-39(66-47(46(44)64-33(3)4)54-28-27-41(55)53-52(54)60)30-61-29-17-26-38-42(67-49(57)35-20-11-6-12-21-35)45(69-51(59)37-24-15-8-16-25-37)43(68-50(58)36-22-13-7-14-23-36)40(65-38)31-62-48(56)34-18-9-5-10-19-34/h5-16,18-25,27-28,32-33,38-40,42-47H,17,26,29-31H2,1-4H3,(H,53,55,60)/t38?,39-,40-,42+,43-,44-,45-,46-,47-/m1/s1
> <PUBCHEM_IUPAC_INCHIKEY>
BPJCWXPQQPPRPE-MSSKZXHVSA-N
> <PUBCHEM_XLOGP3_AA>
7.2
> <PUBCHEM_EXACT_MASS>
948.36806908
> <PUBCHEM_MOLECULAR_FORMULA>
C52H56N2O15
> <PUBCHEM_MOLECULAR_WEIGHT>
949.0
> <PUBCHEM_OPENEYE_CAN_SMILES>
CC(C)OC1C(OC(C1OC(C)C)N2C=CC(=O)NC2=O)COCCCC3C(C(C(C(O3)COC(=O)C4=CC=CC=C4)OC(=O)C5=CC=CC=C5)OC(=O)C6=CC=CC=C6)OC(=O)C7=CC=CC=C7
> <PUBCHEM_OPENEYE_ISO_SMILES>
CC(C)O[C@@H]1[C@H](O[C@H]([C@@H]1OC(C)C)N2C=CC(=O)NC2=O)COCCCC3[C@@H]([C@H]([C@@H]([C@H](O3)COC(=O)C4=CC=CC=C4)OC(=O)C5=CC=CC=C5)OC(=O)C6=CC=CC=C6)OC(=O)C7=CC=CC=C7
> <PUBCHEM_CACTVS_TPSA>
201
> <PUBCHEM_MONOISOTOPIC_WEIGHT>
948.36806908
> <PUBCHEM_TOTAL_CHARGE>
0
> <PUBCHEM_HEAVY_ATOM_COUNT>
69
> <PUBCHEM_ATOM_DEF_STEREO_COUNT>
8
> <PUBCHEM_ATOM_UDEF_STEREO_COUNT>
1
> <PUBCHEM_BOND_DEF_STEREO_COUNT>
0
> <PUBCHEM_BOND_UDEF_STEREO_COUNT>
0
> <PUBCHEM_ISOTOPIC_ATOM_COUNT>
0
> <PUBCHEM_COMPONENT_COUNT>
1
> <PUBCHEM_CACTVS_TAUTO_COUNT>
-1
> <PUBCHEM_COORDINATE_TYPE>
1
5
255
> <PUBCHEM_BONDANNOTATIONS>
25  16  6
16  34  8
16  35  8
17  34  8
17  44  8
18  27  3
23  28  6
26  30  6
19  3  5
35  43  8
21  4  5
43  44  8
45  49  8
45  50  8
46  52  8
46  53  8
47  54  8
47  55  8
49  56  8
20  5  5
50  57  8
51  62  8
51  63  8
52  58  8
53  59  8
54  60  8
55  61  8
56  64  8
57  64  8
58  65  8
59  65  8
22  6  6
60  66  8
61  66  8
62  67  8
63  68  8
67  69  8
68  69  8
24  8  5
$$$$
