503551
  -OEChem-10302200282D
125131  0     1  0  0  0  0  0999 V2000
    9.7942    0.8625    0.0000 S   0  0  0  0  0  0  0  0  0  0  0  0
    9.8512    3.9503    0.0000 O   0  0  0  0  0  0  0  0  0  0  0  0
   12.4203    3.6413    0.0000 O   0  0  0  0  0  0  0  0  0  0  0  0
   11.7480    5.7104    0.0000 O   0  0  0  0  0  0  0  0  0  0  0  0
    7.1962   -1.6374    0.0000 O   0  0  0  0  0  0  0  0  0  0  0  0
    9.7942    1.8626    0.0000 O   0  0  0  0  0  0  0  0  0  0  0  0
    7.1962   -4.6374    0.0000 O   0  0  0  0  0  0  0  0  0  0  0  0
    5.4641   -3.6374    0.0000 O   0  0  0  0  0  0  0  0  0  0  0  0
    8.9282   -3.6374    0.0000 O   0  0  0  0  0  0  0  0  0  0  0  0
    5.4641   -0.6375    0.0000 O   0  0  0  0  0  0  0  0  0  0  0  0
   10.9737    6.7285    0.0000 O   0  0  0  0  0  0  0  0  0  0  0  0
   10.7942    0.8625    0.0000 O   0  0  0  0  0  0  0  0  0  0  0  0
    8.7942    0.8625    0.0000 O   0  0  0  0  0  0  0  0  0  0  0  0
    8.0622   -0.1375    0.0000 O   0  0  0  0  0  0  0  0  0  0  0  0
    7.8091    8.1374    0.0000 O   0  0  0  0  0  0  0  0  0  0  0  0
    5.4641   -4.6374    0.0000 O   0  0  0  0  0  0  0  0  0  0  0  0
    4.5981   -2.1374    0.0000 O   0  0  0  0  0  0  0  0  0  0  0  0
    8.0622   -5.1374    0.0000 O   0  0  0  0  0  0  0  0  0  0  0  0
    3.7320   -0.6375    0.0000 O   0  0  0  0  0  0  0  0  0  0  0  0
    9.5725    5.7104    0.0000 N   0  0  0  0  0  0  0  0  0  0  0  0
    8.9282   -1.6374    0.0000 N   0  0  0  0  0  0  0  0  0  0  0  0
    9.3914    7.4330    0.0000 N   0  0  0  0  0  0  0  0  0  0  0  0
    9.7942   -0.1375    0.0000 N   0  0  0  0  0  0  0  0  0  0  0  0
   11.4693    3.9503    0.0000 C   0  0  1  0  0  0  0  0  0  0  0  0
   11.1603    4.9014    0.0000 C   0  0  3  0  0  0  0  0  0  0  0  0
   10.6603    3.3626    0.0000 C   0  0  1  0  0  0  0  0  0  0  0  0
   10.1603    4.9014    0.0000 C   0  0  1  0  0  0  0  0  0  0  0  0
   10.6603    2.3626    0.0000 C   0  0  0  0  0  0  0  0  0  0  0  0
    7.1962   -3.6374    0.0000 C   0  0  1  0  0  0  0  0  0  0  0  0
    6.3301   -3.1374    0.0000 C   0  0  1  0  0  0  0  0  0  0  0  0
    8.0622   -3.1374    0.0000 C   0  0  2  0  0  0  0  0  0  0  0  0
    6.3301   -2.1374    0.0000 C   0  0  1  0  0  0  0  0  0  0  0  0
    8.0622   -2.1374    0.0000 C   0  0  1  0  0  0  0  0  0  0  0  0
   12.6282    2.6632    0.0000 C   0  0  0  0  0  0  0  0  0  0  0  0
   12.7426    5.6059    0.0000 C   0  0  0  0  0  0  0  0  0  0  0  0
    5.4641   -1.6374    0.0000 C   0  0  0  0  0  0  0  0  0  0  0  0
    9.9792    6.6240    0.0000 C   0  0  0  0  0  0  0  0  0  0  0  0
    8.5780    5.6059    0.0000 C   0  0  0  0  0  0  0  0  0  0  0  0
   13.5793    2.3542    0.0000 C   0  0  0  0  0  0  0  0  0  0  0  0
   11.8851    1.9940    0.0000 C   0  0  0  0  0  0  0  0  0  0  0  0
   13.3303    6.4149    0.0000 C   0  0  0  0  0  0  0  0  0  0  0  0
   13.1493    4.6923    0.0000 C   0  0  0  0  0  0  0  0  0  0  0  0
    7.9902    6.4149    0.0000 C   0  0  0  0  0  0  0  0  0  0  0  0
    8.9282   -0.6375    0.0000 C   0  0  0  0  0  0  0  0  0  0  0  0
    8.3969    7.3284    0.0000 C   0  0  0  0  0  0  0  0  0  0  0  0
    6.3301   -5.1374    0.0000 C   0  0  0  0  0  0  0  0  0  0  0  0
    4.5981   -3.1374    0.0000 C   0  0  0  0  0  0  0  0  0  0  0  0
    8.9282   -4.6374    0.0000 C   0  0  0  0  0  0  0  0  0  0  0  0
    6.3301   -6.1374    0.0000 C   0  0  0  0  0  0  0  0  0  0  0  0
    3.7320   -3.6374    0.0000 C   0  0  0  0  0  0  0  0  0  0  0  0
    9.7942   -5.1374    0.0000 C   0  0  0  0  0  0  0  0  0  0  0  0
    4.5981   -0.1375    0.0000 C   0  0  0  0  0  0  0  0  0  0  0  0
    4.5981    0.8625    0.0000 C   0  0  0  0  0  0  0  0  0  0  0  0
    5.4641   -6.6374    0.0000 C   0  0  0  0  0  0  0  0  0  0  0  0
    7.1962   -6.6374    0.0000 C   0  0  0  0  0  0  0  0  0  0  0  0
    3.7320   -4.6374    0.0000 C   0  0  0  0  0  0  0  0  0  0  0  0
    2.8660   -3.1374    0.0000 C   0  0  0  0  0  0  0  0  0  0  0  0
   10.6603   -4.6374    0.0000 C   0  0  0  0  0  0  0  0  0  0  0  0
    9.7942   -6.1374    0.0000 C   0  0  0  0  0  0  0  0  0  0  0  0
    5.4641   -7.6374    0.0000 C   0  0  0  0  0  0  0  0  0  0  0  0
    7.1962   -7.6374    0.0000 C   0  0  0  0  0  0  0  0  0  0  0  0
    2.8660   -5.1374    0.0000 C   0  0  0  0  0  0  0  0  0  0  0  0
    2.0000   -3.6374    0.0000 C   0  0  0  0  0  0  0  0  0  0  0  0
   11.5263   -5.1374    0.0000 C   0  0  0  0  0  0  0  0  0  0  0  0
   10.6603   -6.6374    0.0000 C   0  0  0  0  0  0  0  0  0  0  0  0
    5.4641    1.3626    0.0000 C   0  0  0  0  0  0  0  0  0  0  0  0
    3.7320    1.3626    0.0000 C   0  0  0  0  0  0  0  0  0  0  0  0
    6.3301   -8.1374    0.0000 C   0  0  0  0  0  0  0  0  0  0  0  0
    2.0000   -4.6374    0.0000 C   0  0  0  0  0  0  0  0  0  0  0  0
   11.5263   -6.1374    0.0000 C   0  0  0  0  0  0  0  0  0  0  0  0
    5.4641    2.3626    0.0000 C   0  0  0  0  0  0  0  0  0  0  0  0
    3.7320    2.3626    0.0000 C   0  0  0  0  0  0  0  0  0  0  0  0
    4.5981    2.8626    0.0000 C   0  0  0  0  0  0  0  0  0  0  0  0
   11.5663    3.3380    0.0000 H   0  0  0  0  0  0  0  0  0  0  0  0
   11.7726    4.8044    0.0000 H   0  0  0  0  0  0  0  0  0  0  0  0
   10.1078    3.0811    0.0000 H   0  0  0  0  0  0  0  0  0  0  0  0
   10.4417    5.4538    0.0000 H   0  0  0  0  0  0  0  0  0  0  0  0
   10.8723    1.7799    0.0000 H   0  0  0  0  0  0  0  0  0  0  0  0
   11.2708    2.4702    0.0000 H   0  0  0  0  0  0  0  0  0  0  0  0
    6.6592   -3.9474    0.0000 H   0  0  0  0  0  0  0  0  0  0  0  0
    6.3301   -3.7574    0.0000 H   0  0  0  0  0  0  0  0  0  0  0  0
    8.0622   -3.7574    0.0000 H   0  0  0  0  0  0  0  0  0  0  0  0
    6.3301   -1.5174    0.0000 H   0  0  0  0  0  0  0  0  0  0  0  0
    8.5991   -2.4474    0.0000 H   0  0  0  0  0  0  0  0  0  0  0  0
   13.0890    3.0780    0.0000 H   0  0  0  0  0  0  0  0  0  0  0  0
   12.3781    5.1043    0.0000 H   0  0  0  0  0  0  0  0  0  0  0  0
    4.8535   -1.5298    0.0000 H   0  0  0  0  0  0  0  0  0  0  0  0
    5.2520   -2.2201    0.0000 H   0  0  0  0  0  0  0  0  0  0  0  0
    8.3258    5.0395    0.0000 H   0  0  0  0  0  0  0  0  0  0  0  0
    9.4651   -1.9474    0.0000 H   0  0  0  0  0  0  0  0  0  0  0  0
   13.3877    1.7645    0.0000 H   0  0  0  0  0  0  0  0  0  0  0  0
   14.1690    2.1626    0.0000 H   0  0  0  0  0  0  0  0  0  0  0  0
   13.7709    2.9438    0.0000 H   0  0  0  0  0  0  0  0  0  0  0  0
   11.4702    2.4548    0.0000 H   0  0  0  0  0  0  0  0  0  0  0  0
   11.4243    1.5792    0.0000 H   0  0  0  0  0  0  0  0  0  0  0  0
   12.3000    1.5333    0.0000 H   0  0  0  0  0  0  0  0  0  0  0  0
   13.8319    6.0505    0.0000 H   0  0  0  0  0  0  0  0  0  0  0  0
   13.6948    6.9165    0.0000 H   0  0  0  0  0  0  0  0  0  0  0  0
   12.8288    6.7793    0.0000 H   0  0  0  0  0  0  0  0  0  0  0  0
   12.5829    4.4402    0.0000 H   0  0  0  0  0  0  0  0  0  0  0  0
   13.4015    4.1259    0.0000 H   0  0  0  0  0  0  0  0  0  0  0  0
   13.7157    4.9445    0.0000 H   0  0  0  0  0  0  0  0  0  0  0  0
    9.6436    7.9994    0.0000 H   0  0  0  0  0  0  0  0  0  0  0  0
    7.3736    6.3501    0.0000 H   0  0  0  0  0  0  0  0  0  0  0  0
   10.3312   -0.4475    0.0000 H   0  0  0  0  0  0  0  0  0  0  0  0
    4.9272   -6.3275    0.0000 H   0  0  0  0  0  0  0  0  0  0  0  0
    7.7331   -6.3275    0.0000 H   0  0  0  0  0  0  0  0  0  0  0  0
    4.2690   -4.9474    0.0000 H   0  0  0  0  0  0  0  0  0  0  0  0
    2.8660   -2.5175    0.0000 H   0  0  0  0  0  0  0  0  0  0  0  0
   10.6603   -4.0175    0.0000 H   0  0  0  0  0  0  0  0  0  0  0  0
    9.2573   -6.4474    0.0000 H   0  0  0  0  0  0  0  0  0  0  0  0
    4.9272   -7.9474    0.0000 H   0  0  0  0  0  0  0  0  0  0  0  0
    7.7331   -7.9474    0.0000 H   0  0  0  0  0  0  0  0  0  0  0  0
    2.8660   -5.7575    0.0000 H   0  0  0  0  0  0  0  0  0  0  0  0
    1.4631   -3.3275    0.0000 H   0  0  0  0  0  0  0  0  0  0  0  0
   12.0632   -4.8275    0.0000 H   0  0  0  0  0  0  0  0  0  0  0  0
   10.6603   -7.2574    0.0000 H   0  0  0  0  0  0  0  0  0  0  0  0
    6.0010    1.0526    0.0000 H   0  0  0  0  0  0  0  0  0  0  0  0
    3.1951    1.0526    0.0000 H   0  0  0  0  0  0  0  0  0  0  0  0
    6.3301   -8.7574    0.0000 H   0  0  0  0  0  0  0  0  0  0  0  0
    1.4631   -4.9474    0.0000 H   0  0  0  0  0  0  0  0  0  0  0  0
   12.0632   -6.4474    0.0000 H   0  0  0  0  0  0  0  0  0  0  0  0
    6.0010    2.6726    0.0000 H   0  0  0  0  0  0  0  0  0  0  0  0
    3.1951    2.6726    0.0000 H   0  0  0  0  0  0  0  0  0  0  0  0
    4.5981    3.4826    0.0000 H   0  0  0  0  0  0  0  0  0  0  0  0
  1  6  1  0  0  0  0
  1 12  2  0  0  0  0
  1 13  2  0  0  0  0
  1 23  1  0  0  0  0
  2 26  1  0  0  0  0
  2 27  1  0  0  0  0
 24  3  1  6  0  0  0
  3 34  1  0  0  0  0
  4 25  1  0  0  0  0
  4 35  1  0  0  0  0
  5 32  1  0  0  0  0
  5 33  1  0  0  0  0
  6 28  1  0  0  0  0
 29  7  1  1  0  0  0
  7 46  1  0  0  0  0
 30  8  1  6  0  0  0
  8 47  1  0  0  0  0
 31  9  1  6  0  0  0
  9 48  1  0  0  0  0
 10 36  1  0  0  0  0
 10 52  1  0  0  0  0
 11 37  2  0  0  0  0
 14 44  2  0  0  0  0
 15 45  2  0  0  0  0
 16 46  2  0  0  0  0
 17 47  2  0  0  0  0
 18 48  2  0  0  0  0
 19 52  2  0  0  0  0
 27 20  1  1  0  0  0
 20 37  1  0  0  0  0
 20 38  1  0  0  0  0
 33 21  1  1  0  0  0
 21 44  1  0  0  0  0
 21 90  1  0  0  0  0
 22 37  1  0  0  0  0
 22 45  1  0  0  0  0
 22103  1  0  0  0  0
 23 44  1  0  0  0  0
 23105  1  0  0  0  0
 24 25  1  0  0  0  0
 24 26  1  0  0  0  0
 24 74  1  0  0  0  0
 25 27  1  0  0  0  0
 25 75  1  0  0  0  0
 26 28  1  1  0  0  0
 26 76  1  0  0  0  0
 27 77  1  0  0  0  0
 28 78  1  0  0  0  0
 28 79  1  0  0  0  0
 29 30  1  0  0  0  0
 29 31  1  0  0  0  0
 29 80  1  0  0  0  0
 30 32  1  0  0  0  0
 30 81  1  0  0  0  0
 31 33  1  0  0  0  0
 31 82  1  0  0  0  0
 32 36  1  1  0  0  0
 32 83  1  0  0  0  0
 33 84  1  0  0  0  0
 34 39  1  0  0  0  0
 34 40  1  0  0  0  0
 34 85  1  0  0  0  0
 35 41  1  0  0  0  0
 35 42  1  0  0  0  0
 35 86  1  0  0  0  0
 36 87  1  0  0  0  0
 36 88  1  0  0  0  0
 38 43  2  0  0  0  0
 38 89  1  0  0  0  0
 39 91  1  0  0  0  0
 39 92  1  0  0  0  0
 39 93  1  0  0  0  0
 40 94  1  0  0  0  0
 40 95  1  0  0  0  0
 40 96  1  0  0  0  0
 41 97  1  0  0  0  0
 41 98  1  0  0  0  0
 41 99  1  0  0  0  0
 42100  1  0  0  0  0
 42101  1  0  0  0  0
 42102  1  0  0  0  0
 43 45  1  0  0  0  0
 43104  1  0  0  0  0
 46 49  1  0  0  0  0
 47 50  1  0  0  0  0
 48 51  1  0  0  0  0
 49 54  2  0  0  0  0
 49 55  1  0  0  0  0
 50 56  2  0  0  0  0
 50 57  1  0  0  0  0
 51 58  2  0  0  0  0
 51 59  1  0  0  0  0
 52 53  1  0  0  0  0
 53 66  2  0  0  0  0
 53 67  1  0  0  0  0
 54 60  1  0  0  0  0
 54106  1  0  0  0  0
 55 61  2  0  0  0  0
 55107  1  0  0  0  0
 56 62  1  0  0  0  0
 56108  1  0  0  0  0
 57 63  2  0  0  0  0
 57109  1  0  0  0  0
 58 64  1  0  0  0  0
 58110  1  0  0  0  0
 59 65  2  0  0  0  0
 59111  1  0  0  0  0
 60 68  2  0  0  0  0
 60112  1  0  0  0  0
 61 68  1  0  0  0  0
 61113  1  0  0  0  0
 62 69  2  0  0  0  0
 62114  1  0  0  0  0
 63 69  1  0  0  0  0
 63115  1  0  0  0  0
 64 70  2  0  0  0  0
 64116  1  0  0  0  0
 65 70  1  0  0  0  0
 65117  1  0  0  0  0
 66 71  1  0  0  0  0
 66118  1  0  0  0  0
 67 72  2  0  0  0  0
 67119  1  0  0  0  0
 68120  1  0  0  0  0
 69121  1  0  0  0  0
 70122  1  0  0  0  0
 71 73  2  0  0  0  0
 71123  1  0  0  0  0
 72 73  1  0  0  0  0
 72124  1  0  0  0  0
 73125  1  0  0  0  0
M  END
> <PUBCHEM_COMPOUND_CID>
503551
> <PUBCHEM_COMPOUND_CANONICALIZED>
1
> <PUBCHEM_CACTVS_COMPLEXITY>
2060
> <PUBCHEM_CACTVS_HBOND_ACCEPTOR>
18
> <PUBCHEM_CACTVS_HBOND_DONOR>
3
> <PUBCHEM_CACTVS_ROTATABLE_BOND>
23
> <PUBCHEM_CACTVS_SUBSKEYS>
AAADcfB/vgBAAAAAAAAAAAAAAAAAASAAAAA0YMGCAAAAAAABVAAAHgAQQAAADBThmAYzCIPABACIAiHWWDCCAAAkAgAIiIEICMmLJjKAtRiPMQAv1yMaqcf4+C6OAAAAAAAAAAAAAAAAAAAAAAAAAAAAAA==
> <PUBCHEM_IUPAC_OPENEYE_NAME>
[(2R,3R,4S,5R,6R)-3,4,5-tribenzoyloxy-6-[[(2R,3R,5R)-5-(2,4-dioxopyrimidin-1-yl)-3,4-diisopropoxy-tetrahydrofuran-2-yl]methoxysulfonylcarbamoylamino]tetrahydropyran-2-yl]methyl benzoate
> <PUBCHEM_IUPAC_CAS_NAME>
benzoic acid [(2R,3R,4S,5R,6R)-3,4,5-tribenzoyloxy-6-[[[[(2R,3R,5R)-5-(2,4-dioxo-1-pyrimidinyl)-3,4-di(propan-2-yloxy)-2-oxolanyl]methoxysulfonylamino]-oxomethyl]amino]-2-oxanyl]methyl ester
> <PUBCHEM_IUPAC_NAME_MARKUP>
[(2<I>R</I>,3<I>R</I>,4<I>S</I>,5<I>R</I>,6<I>R</I>)-3,4,5-tribenzoyloxy-6-[[(2<I>R</I>,3<I>R</I>,5<I>R</I>)-5-(2,4-dioxopyrimidin-1-yl)-3,4-di(propan-2-yloxy)oxolan-2-yl]methoxysulfonylcarbamoylamino]oxan-2-yl]methyl benzoate
> <PUBCHEM_IUPAC_NAME>
[(2R,3R,4S,5R,6R)-3,4,5-tribenzoyloxy-6-[[(2R,3R,5R)-5-(2,4-dioxopyrimidin-1-yl)-3,4-di(propan-2-yloxy)oxolan-2-yl]methoxysulfonylcarbamoylamino]oxan-2-yl]methyl benzoate
> <PUBCHEM_IUPAC_SYSTEMATIC_NAME>
[(2R,3R,4S,5R,6R)-6-[[(2R,3R,5R)-5-[2,4-bis(oxidanylidene)pyrimidin-1-yl]-3,4-di(propan-2-yloxy)oxolan-2-yl]methoxysulfonylcarbamoylamino]-3,4,5-tris(phenylcarbonyloxy)oxan-2-yl]methyl benzoate
> <PUBCHEM_IUPAC_TRADITIONAL_NAME>
benzoic acid [(2R,3R,4S,5R,6R)-3,4,5-tribenzoyloxy-6-[[(2R,3R,5R)-5-(2,4-diketopyrimidin-1-yl)-3,4-diisopropoxy-tetrahydrofuran-2-yl]methoxysulfonylcarbamoylamino]tetrahydropyran-2-yl]methyl ester
> <PUBCHEM_IUPAC_INCHI>
InChI=1S/C50H52N4O18S/c1-29(2)66-39-36(69-44(42(39)67-30(3)4)54-26-25-37(55)51-50(54)61)28-65-73(62,63)53-49(60)52-43-41(72-48(59)34-23-15-8-16-24-34)40(71-47(58)33-21-13-7-14-22-33)38(70-46(57)32-19-11-6-12-20-32)35(68-43)27-64-45(56)31-17-9-5-10-18-31/h5-26,29-30,35-36,38-44H,27-28H2,1-4H3,(H,51,55,61)(H2,52,53,60)/t35-,36-,38-,39-,40+,41-,42?,43-,44-/m1/s1
> <PUBCHEM_IUPAC_INCHIKEY>
OFJMAMPGKXBKEJ-NZKPJBQSSA-N
> <PUBCHEM_XLOGP3_AA>
6.1
> <PUBCHEM_EXACT_MASS>
1028.29973200
> <PUBCHEM_MOLECULAR_FORMULA>
C50H52N4O18S
> <PUBCHEM_MOLECULAR_WEIGHT>
1029.0
> <PUBCHEM_OPENEYE_CAN_SMILES>
CC(C)OC1C(OC(C1OC(C)C)N2C=CC(=O)NC2=O)COS(=O)(=O)NC(=O)NC3C(C(C(C(O3)COC(=O)C4=CC=CC=C4)OC(=O)C5=CC=CC=C5)OC(=O)C6=CC=CC=C6)OC(=O)C7=CC=CC=C7
> <PUBCHEM_OPENEYE_ISO_SMILES>
CC(C)O[C@@H]1[C@H](O[C@H](C1OC(C)C)N2C=CC(=O)NC2=O)COS(=O)(=O)NC(=O)N[C@H]3[C@@H]([C@H]([C@@H]([C@H](O3)COC(=O)C4=CC=CC=C4)OC(=O)C5=CC=CC=C5)OC(=O)C6=CC=CC=C6)OC(=O)C7=CC=CC=C7
> <PUBCHEM_CACTVS_TPSA>
284
> <PUBCHEM_MONOISOTOPIC_WEIGHT>
1028.29973200
> <PUBCHEM_TOTAL_CHARGE>
0
> <PUBCHEM_HEAVY_ATOM_COUNT>
73
> <PUBCHEM_ATOM_DEF_STEREO_COUNT>
8
> <PUBCHEM_ATOM_UDEF_STEREO_COUNT>
1
> <PUBCHEM_BOND_DEF_STEREO_COUNT>
0
> <PUBCHEM_BOND_UDEF_STEREO_COUNT>
0
> <PUBCHEM_ISOTOPIC_ATOM_COUNT>
0
> <PUBCHEM_COMPONENT_COUNT>
1
> <PUBCHEM_CACTVS_TAUTO_COUNT>
-1
> <PUBCHEM_COORDINATE_TYPE>
1
5
255
> <PUBCHEM_BONDANNOTATIONS>
27  20  5
20  37  8
20  38  8
33  21  5
22  37  8
22  45  8
26  28  5
24  3  6
32  36  5
38  43  8
25  4  3
43  45  8
49  54  8
49  55  8
50  56  8
50  57  8
51  58  8
51  59  8
53  66  8
53  67  8
54  60  8
55  61  8
56  62  8
57  63  8
58  64  8
59  65  8
60  68  8
61  68  8
62  69  8
63  69  8
64  70  8
65  70  8
66  71  8
67  72  8
29  7  5
71  73  8
72  73  8
30  8  6
31  9  6
$$$$
