503656
  -OEChem-10302200282D
 49 51  0     1  0  0  0  0  0999 V2000
    8.0622    1.2500    0.0000 S   0  0  0  0  0  0  0  0  0  0  0  0
    7.1962   -0.2500    0.0000 O   0  0  0  0  0  0  0  0  0  0  0  0
    4.5981    0.2500    0.0000 O   0  0  0  0  0  0  0  0  0  0  0  0
   10.6603   -0.2500    0.0000 O   0  0  0  0  0  0  0  0  0  0  0  0
    8.9282   -0.2500    0.0000 N   0  0  0  0  0  0  0  0  0  0  0  0
    6.3301    0.2500    0.0000 C   0  0  3  0  0  0  0  0  0  0  0  0
    5.4641   -0.2500    0.0000 C   0  0  0  0  0  0  0  0  0  0  0  0
    6.3301    1.2500    0.0000 C   0  0  0  0  0  0  0  0  0  0  0  0
    8.9282   -1.2500    0.0000 C   0  0  0  0  0  0  0  0  0  0  0  0
    8.0622    0.2500    0.0000 C   0  0  0  0  0  0  0  0  0  0  0  0
    9.7942    0.2500    0.0000 C   0  0  0  0  0  0  0  0  0  0  0  0
    9.7942    1.2500    0.0000 C   0  0  0  0  0  0  0  0  0  0  0  0
    8.0622   -1.7500    0.0000 C   0  0  0  0  0  0  0  0  0  0  0  0
    9.7942   -1.7500    0.0000 C   0  0  0  0  0  0  0  0  0  0  0  0
    3.7320   -0.2500    0.0000 C   0  0  0  0  0  0  0  0  0  0  0  0
   10.6603    1.7500    0.0000 C   0  0  0  0  0  0  0  0  0  0  0  0
    8.9282    1.7500    0.0000 C   0  0  0  0  0  0  0  0  0  0  0  0
    8.0622   -2.7500    0.0000 C   0  0  0  0  0  0  0  0  0  0  0  0
    9.7942   -2.7500    0.0000 C   0  0  0  0  0  0  0  0  0  0  0  0
    8.9282   -3.2500    0.0000 C   0  0  0  0  0  0  0  0  0  0  0  0
    2.8660    0.2500    0.0000 C   0  0  0  0  0  0  0  0  0  0  0  0
    3.7320   -1.2500    0.0000 C   0  0  0  0  0  0  0  0  0  0  0  0
   10.6603    2.7500    0.0000 C   0  0  0  0  0  0  0  0  0  0  0  0
    8.9282    2.7500    0.0000 C   0  0  0  0  0  0  0  0  0  0  0  0
    9.7942    3.2500    0.0000 C   0  0  0  0  0  0  0  0  0  0  0  0
    2.0000   -0.2500    0.0000 C   0  0  0  0  0  0  0  0  0  0  0  0
    2.8660   -1.7500    0.0000 C   0  0  0  0  0  0  0  0  0  0  0  0
    2.0000   -1.2500    0.0000 C   0  0  0  0  0  0  0  0  0  0  0  0
    6.8671    0.5600    0.0000 H   0  0  0  0  0  0  0  0  0  0  0  0
    5.0656   -0.7249    0.0000 H   0  0  0  0  0  0  0  0  0  0  0  0
    5.8626   -0.7249    0.0000 H   0  0  0  0  0  0  0  0  0  0  0  0
    6.9501    1.2500    0.0000 H   0  0  0  0  0  0  0  0  0  0  0  0
    6.3301    1.8700    0.0000 H   0  0  0  0  0  0  0  0  0  0  0  0
    5.7101    1.2500    0.0000 H   0  0  0  0  0  0  0  0  0  0  0  0
    7.5252   -1.4400    0.0000 H   0  0  0  0  0  0  0  0  0  0  0  0
   10.3312   -1.4400    0.0000 H   0  0  0  0  0  0  0  0  0  0  0  0
   11.1972    1.4400    0.0000 H   0  0  0  0  0  0  0  0  0  0  0  0
    8.3913    1.4400    0.0000 H   0  0  0  0  0  0  0  0  0  0  0  0
    7.5252   -3.0600    0.0000 H   0  0  0  0  0  0  0  0  0  0  0  0
   10.3312   -3.0600    0.0000 H   0  0  0  0  0  0  0  0  0  0  0  0
    8.9282   -3.8700    0.0000 H   0  0  0  0  0  0  0  0  0  0  0  0
    2.8660    0.8700    0.0000 H   0  0  0  0  0  0  0  0  0  0  0  0
    4.2690   -1.5600    0.0000 H   0  0  0  0  0  0  0  0  0  0  0  0
   11.1972    3.0600    0.0000 H   0  0  0  0  0  0  0  0  0  0  0  0
    8.3913    3.0600    0.0000 H   0  0  0  0  0  0  0  0  0  0  0  0
    9.7942    3.8700    0.0000 H   0  0  0  0  0  0  0  0  0  0  0  0
    1.4631    0.0600    0.0000 H   0  0  0  0  0  0  0  0  0  0  0  0
    2.8660   -2.3700    0.0000 H   0  0  0  0  0  0  0  0  0  0  0  0
    1.4631   -1.5600    0.0000 H   0  0  0  0  0  0  0  0  0  0  0  0
  1 10  2  0  0  0  0
  2  6  1  0  0  0  0
  2 10  1  0  0  0  0
  3  7  1  0  0  0  0
  3 15  1  0  0  0  0
  4 11  2  0  0  0  0
  5  9  1  0  0  0  0
  5 10  1  0  0  0  0
  5 11  1  0  0  0  0
  6  7  1  0  0  0  0
  6  8  1  0  0  0  0
  6 29  1  0  0  0  0
  7 30  1  0  0  0  0
  7 31  1  0  0  0  0
  8 32  1  0  0  0  0
  8 33  1  0  0  0  0
  8 34  1  0  0  0  0
  9 13  2  0  0  0  0
  9 14  1  0  0  0  0
 11 12  1  0  0  0  0
 12 16  2  0  0  0  0
 12 17  1  0  0  0  0
 13 18  1  0  0  0  0
 13 35  1  0  0  0  0
 14 19  2  0  0  0  0
 14 36  1  0  0  0  0
 15 21  2  0  0  0  0
 15 22  1  0  0  0  0
 16 23  1  0  0  0  0
 16 37  1  0  0  0  0
 17 24  2  0  0  0  0
 17 38  1  0  0  0  0
 18 20  2  0  0  0  0
 18 39  1  0  0  0  0
 19 20  1  0  0  0  0
 19 40  1  0  0  0  0
 20 41  1  0  0  0  0
 21 26  1  0  0  0  0
 21 42  1  0  0  0  0
 22 27  2  0  0  0  0
 22 43  1  0  0  0  0
 23 25  2  0  0  0  0
 23 44  1  0  0  0  0
 24 25  1  0  0  0  0
 24 45  1  0  0  0  0
 25 46  1  0  0  0  0
 26 28  2  0  0  0  0
 26 47  1  0  0  0  0
 27 28  1  0  0  0  0
 27 48  1  0  0  0  0
 28 49  1  0  0  0  0
M  END
> <PUBCHEM_COMPOUND_CID>
503656
> <PUBCHEM_COMPOUND_CANONICALIZED>
1
> <PUBCHEM_CACTVS_COMPLEXITY>
494
> <PUBCHEM_CACTVS_HBOND_ACCEPTOR>
4
> <PUBCHEM_CACTVS_HBOND_DONOR>
0
> <PUBCHEM_CACTVS_ROTATABLE_BOND>
7
> <PUBCHEM_CACTVS_SUBSKEYS>
AAADceB6MABAAAAAAAAAAAAAAAAAAAAAAAAwYMAAAAAAAAABUAAAHgQAAAAADByhmAIyxoMABACMAiVSUACCCAAlIggIiAEGbMgNJjLEtZuOOSjkxBHK6YeYyACOAAAAAAAAAAAAAAAAAAAAAAAAAAAAAA==
> <PUBCHEM_IUPAC_OPENEYE_NAME>
O-(1-methyl-2-phenoxy-ethyl) N-benzoyl-N-phenyl-carbamothioate
> <PUBCHEM_IUPAC_CAS_NAME>
N-benzoyl-N-phenylcarbamothioic acid O-(1-phenoxypropan-2-yl) ester
> <PUBCHEM_IUPAC_NAME_MARKUP>
<I>O</I>-(1-phenoxypropan-2-yl) <I>N</I>-benzoyl-<I>N</I>-phenylcarbamothioate
> <PUBCHEM_IUPAC_NAME>
O-(1-phenoxypropan-2-yl) N-benzoyl-N-phenylcarbamothioate
> <PUBCHEM_IUPAC_SYSTEMATIC_NAME>
O-(1-phenoxypropan-2-yl) N-phenyl-N-(phenylcarbonyl)carbamothioate
> <PUBCHEM_IUPAC_TRADITIONAL_NAME>
N-benzoyl-N-phenyl-thiocarbamic acid O-(1-methyl-2-phenoxy-ethyl) ester
> <PUBCHEM_IUPAC_INCHI>
InChI=1S/C23H21NO3S/c1-18(17-26-21-15-9-4-10-16-21)27-23(28)24(20-13-7-3-8-14-20)22(25)19-11-5-2-6-12-19/h2-16,18H,17H2,1H3
> <PUBCHEM_IUPAC_INCHIKEY>
RGZSFXCJLMEPFB-UHFFFAOYSA-N
> <PUBCHEM_XLOGP3_AA>
5.8
> <PUBCHEM_EXACT_MASS>
391.12421471
> <PUBCHEM_MOLECULAR_FORMULA>
C23H21NO3S
> <PUBCHEM_MOLECULAR_WEIGHT>
391.5
> <PUBCHEM_OPENEYE_CAN_SMILES>
CC(COC1=CC=CC=C1)OC(=S)N(C2=CC=CC=C2)C(=O)C3=CC=CC=C3
> <PUBCHEM_OPENEYE_ISO_SMILES>
CC(COC1=CC=CC=C1)OC(=S)N(C2=CC=CC=C2)C(=O)C3=CC=CC=C3
> <PUBCHEM_CACTVS_TPSA>
70.9
> <PUBCHEM_MONOISOTOPIC_WEIGHT>
391.12421471
> <PUBCHEM_TOTAL_CHARGE>
0
> <PUBCHEM_HEAVY_ATOM_COUNT>
28
> <PUBCHEM_ATOM_DEF_STEREO_COUNT>
0
> <PUBCHEM_ATOM_UDEF_STEREO_COUNT>
1
> <PUBCHEM_BOND_DEF_STEREO_COUNT>
0
> <PUBCHEM_BOND_UDEF_STEREO_COUNT>
0
> <PUBCHEM_ISOTOPIC_ATOM_COUNT>
0
> <PUBCHEM_COMPONENT_COUNT>
1
> <PUBCHEM_CACTVS_TAUTO_COUNT>
-1
> <PUBCHEM_COORDINATE_TYPE>
1
5
255
> <PUBCHEM_BONDANNOTATIONS>
12  16  8
12  17  8
13  18  8
14  19  8
15  21  8
15  22  8
16  23  8
17  24  8
18  20  8
19  20  8
21  26  8
22  27  8
23  25  8
24  25  8
26  28  8
27  28  8
6  8  3
9  13  8
9  14  8
$$$$
