503621
  -OEChem-10302200282D
 87 90  0     1  0  0  0  0  0999 V2000
    7.0628    1.3265    0.0000 O   0  0  0  0  0  0  0  0  0  0  0  0
    5.3307    0.3265    0.0000 O   0  0  0  0  0  0  0  0  0  0  0  0
    2.5357   -3.2258    0.0000 O   0  0  0  0  0  0  0  0  0  0  0  0
    2.5519   -1.1342    0.0000 O   0  0  0  0  0  0  0  0  0  0  0  0
    5.3307    1.3265    0.0000 O   0  0  0  0  0  0  0  0  0  0  0  0
    5.2868   -1.6803    0.0000 C   0  0  1  0  0  0  0  0  0  0  0  0
    5.2787   -2.7219    0.0000 C   0  0  2  0  0  0  0  0  0  0  0  0
    4.3433   -3.2716    0.0000 C   0  0  0  0  0  0  0  0  0  0  0  0
    7.9288   -0.1735    0.0000 C   0  0  2  0  0  0  0  0  0  0  0  0
    6.1968   -1.1735    0.0000 C   0  0  0  0  0  0  0  0  0  0  0  0
    4.3599   -1.1162    0.0000 C   0  0  0  0  0  0  0  0  0  0  0  0
    7.0628   -1.6735    0.0000 C   0  0  0  0  0  0  0  0  0  0  0  0
    6.1808   -3.2427    0.0000 C   0  0  0  0  0  0  0  0  0  0  0  0
    7.0628    0.3265    0.0000 C   0  0  2  0  0  0  0  0  0  0  0  0
    8.8750    0.1313    0.0000 C   0  0  2  0  0  0  0  0  0  0  0  0
    7.9288   -1.1735    0.0000 C   0  0  0  0  0  0  0  0  0  0  0  0
    6.1968   -0.1735    0.0000 C   0  0  2  0  0  0  0  0  0  0  0  0
    3.4037   -2.7291    0.0000 C   0  0  2  0  0  0  0  0  0  0  0  0
    7.0789   -2.7150    0.0000 C   0  0  0  0  0  0  0  0  0  0  0  0
    3.4120   -1.6442    0.0000 C   0  0  2  0  0  0  0  0  0  0  0  0
    5.2945   -0.6803    0.0000 C   0  0  0  0  0  0  0  0  0  0  0  0
    9.4586   -0.6735    0.0000 C   0  0  0  0  0  0  0  0  0  0  0  0
    9.1857    1.0818    0.0000 C   0  0  1  0  0  0  0  0  0  0  0  0
    8.8750   -1.4782    0.0000 C   0  0  0  0  0  0  0  0  0  0  0  0
    3.8467   -4.1396    0.0000 C   0  0  0  0  0  0  0  0  0  0  0  0
    4.8466   -4.1357    0.0000 C   0  0  0  0  0  0  0  0  0  0  0  0
    7.9288    0.8265    0.0000 C   0  0  0  0  0  0  0  0  0  0  0  0
   10.1642    1.2880    0.0000 C   0  0  0  0  0  0  0  0  0  0  0  0
    8.5179    1.8261    0.0000 C   0  0  0  0  0  0  0  0  0  0  0  0
   10.4749    2.2385    0.0000 C   0  0  0  0  0  0  0  0  0  0  0  0
    6.1968    1.8265    0.0000 C   0  0  0  0  0  0  0  0  0  0  0  0
   11.4534    2.4448    0.0000 C   0  0  0  0  0  0  0  0  0  0  0  0
    6.1968    2.8265    0.0000 C   0  0  0  0  0  0  0  0  0  0  0  0
   11.7640    3.3953    0.0000 C   0  0  0  0  0  0  0  0  0  0  0  0
   12.1212    1.7004    0.0000 C   0  0  0  0  0  0  0  0  0  0  0  0
   12.7425    3.6015    0.0000 C   0  0  0  0  0  0  0  0  0  0  0  0
   11.0962    4.1396    0.0000 C   0  0  0  0  0  0  0  0  0  0  0  0
    5.2820   -3.5719    0.0000 H   0  0  0  0  0  0  0  0  0  0  0  0
    4.7681   -0.6496    0.0000 H   0  0  0  0  0  0  0  0  0  0  0  0
    3.9700   -0.6342    0.0000 H   0  0  0  0  0  0  0  0  0  0  0  0
    5.7835   -3.7187    0.0000 H   0  0  0  0  0  0  0  0  0  0  0  0
    6.5818   -3.7156    0.0000 H   0  0  0  0  0  0  0  0  0  0  0  0
    6.5259    0.6365    0.0000 H   0  0  0  0  0  0  0  0  0  0  0  0
    9.7148    0.2632    0.0000 H   0  0  0  0  0  0  0  0  0  0  0  0
    6.1968    0.4465    0.0000 H   0  0  0  0  0  0  0  0  0  0  0  0
    3.4025   -3.3491    0.0000 H   0  0  0  0  0  0  0  0  0  0  0  0
    7.2969   -3.2954    0.0000 H   0  0  0  0  0  0  0  0  0  0  0  0
    7.6880   -2.5995    0.0000 H   0  0  0  0  0  0  0  0  0  0  0  0
    2.8722   -1.9490    0.0000 H   0  0  0  0  0  0  0  0  0  0  0  0
    5.9145   -0.6851    0.0000 H   0  0  0  0  0  0  0  0  0  0  0  0
    5.2993   -0.0604    0.0000 H   0  0  0  0  0  0  0  0  0  0  0  0
    4.6745   -0.6756    0.0000 H   0  0  0  0  0  0  0  0  0  0  0  0
    9.9195   -1.0882    0.0000 H   0  0  0  0  0  0  0  0  0  0  0  0
    9.9195   -0.2587    0.0000 H   0  0  0  0  0  0  0  0  0  0  0  0
    9.3783    1.6711    0.0000 H   0  0  0  0  0  0  0  0  0  0  0  0
    9.0676   -2.0675    0.0000 H   0  0  0  0  0  0  0  0  0  0  0  0
    3.3085   -3.8316    0.0000 H   0  0  0  0  0  0  0  0  0  0  0  0
    3.5387   -4.6777    0.0000 H   0  0  0  0  0  0  0  0  0  0  0  0
    4.3848   -4.4475    0.0000 H   0  0  0  0  0  0  0  0  0  0  0  0
    4.3109   -4.4478    0.0000 H   0  0  0  0  0  0  0  0  0  0  0  0
    5.1587   -4.6715    0.0000 H   0  0  0  0  0  0  0  0  0  0  0  0
    5.3824   -3.8236    0.0000 H   0  0  0  0  0  0  0  0  0  0  0  0
    8.5488    0.8265    0.0000 H   0  0  0  0  0  0  0  0  0  0  0  0
    7.9288    1.4465    0.0000 H   0  0  0  0  0  0  0  0  0  0  0  0
    7.3088    0.8265    0.0000 H   0  0  0  0  0  0  0  0  0  0  0  0
   10.1848    0.6684    0.0000 H   0  0  0  0  0  0  0  0  0  0  0  0
   10.7780    1.2007    0.0000 H   0  0  0  0  0  0  0  0  0  0  0  0
    4.7938    0.0165    0.0000 H   0  0  0  0  0  0  0  0  0  0  0  0
    2.0000   -2.9137    0.0000 H   0  0  0  0  0  0  0  0  0  0  0  0
    2.5590   -0.5142    0.0000 H   0  0  0  0  0  0  0  0  0  0  0  0
    8.9793    2.2402    0.0000 H   0  0  0  0  0  0  0  0  0  0  0  0
    8.1038    2.2876    0.0000 H   0  0  0  0  0  0  0  0  0  0  0  0
    8.0564    1.4120    0.0000 H   0  0  0  0  0  0  0  0  0  0  0  0
   10.4543    2.8582    0.0000 H   0  0  0  0  0  0  0  0  0  0  0  0
    9.8611    2.3259    0.0000 H   0  0  0  0  0  0  0  0  0  0  0  0
    6.8168    2.8265    0.0000 H   0  0  0  0  0  0  0  0  0  0  0  0
    6.1968    3.4465    0.0000 H   0  0  0  0  0  0  0  0  0  0  0  0
    5.5768    2.8265    0.0000 H   0  0  0  0  0  0  0  0  0  0  0  0
   12.1781    2.9338    0.0000 H   0  0  0  0  0  0  0  0  0  0  0  0
   11.9286    1.1111    0.0000 H   0  0  0  0  0  0  0  0  0  0  0  0
   12.7279    1.8283    0.0000 H   0  0  0  0  0  0  0  0  0  0  0  0
   12.8704    2.9948    0.0000 H   0  0  0  0  0  0  0  0  0  0  0  0
   13.3492    3.7294    0.0000 H   0  0  0  0  0  0  0  0  0  0  0  0
   12.6147    4.2082    0.0000 H   0  0  0  0  0  0  0  0  0  0  0  0
   11.5577    4.5536    0.0000 H   0  0  0  0  0  0  0  0  0  0  0  0
   10.6821    4.6010    0.0000 H   0  0  0  0  0  0  0  0  0  0  0  0
   10.6347    3.7255    0.0000 H   0  0  0  0  0  0  0  0  0  0  0  0
 14  1  1  6  0  0  0
  1 31  1  0  0  0  0
 17  2  1  1  0  0  0
  2 68  1  0  0  0  0
 18  3  1  1  0  0  0
  3 69  1  0  0  0  0
 20  4  1  6  0  0  0
  4 70  1  0  0  0  0
  5 31  2  0  0  0  0
  6  7  1  0  0  0  0
  6 10  1  0  0  0  0
  6 11  1  0  0  0  0
  6 21  1  1  0  0  0
  7  8  1  0  0  0  0
  7 13  1  0  0  0  0
  7 38  1  6  0  0  0
  8 18  1  0  0  0  0
  8 25  1  0  0  0  0
  8 26  1  0  0  0  0
  9 14  1  0  0  0  0
  9 15  1  0  0  0  0
  9 16  1  0  0  0  0
  9 27  1  1  0  0  0
 10 12  2  0  0  0  0
 10 17  1  0  0  0  0
 11 20  1  0  0  0  0
 11 39  1  0  0  0  0
 11 40  1  0  0  0  0
 12 16  1  0  0  0  0
 12 19  1  0  0  0  0
 13 19  1  0  0  0  0
 13 41  1  0  0  0  0
 13 42  1  0  0  0  0
 14 17  1  0  0  0  0
 14 43  1  0  0  0  0
 15 22  1  0  0  0  0
 15 23  1  0  0  0  0
 15 44  1  6  0  0  0
 16 24  2  0  0  0  0
 17 45  1  0  0  0  0
 18 20  1  0  0  0  0
 18 46  1  0  0  0  0
 19 47  1  0  0  0  0
 19 48  1  0  0  0  0
 20 49  1  0  0  0  0
 21 50  1  0  0  0  0
 21 51  1  0  0  0  0
 21 52  1  0  0  0  0
 22 24  1  0  0  0  0
 22 53  1  0  0  0  0
 22 54  1  0  0  0  0
 23 28  1  0  0  0  0
 23 29  1  6  0  0  0
 23 55  1  0  0  0  0
 24 56  1  0  0  0  0
 25 57  1  0  0  0  0
 25 58  1  0  0  0  0
 25 59  1  0  0  0  0
 26 60  1  0  0  0  0
 26 61  1  0  0  0  0
 26 62  1  0  0  0  0
 27 63  1  0  0  0  0
 27 64  1  0  0  0  0
 27 65  1  0  0  0  0
 28 30  1  0  0  0  0
 28 66  1  0  0  0  0
 28 67  1  0  0  0  0
 29 71  1  0  0  0  0
 29 72  1  0  0  0  0
 29 73  1  0  0  0  0
 30 32  1  0  0  0  0
 30 74  1  0  0  0  0
 30 75  1  0  0  0  0
 31 33  1  0  0  0  0
 32 34  1  0  0  0  0
 32 35  2  0  0  0  0
 33 76  1  0  0  0  0
 33 77  1  0  0  0  0
 33 78  1  0  0  0  0
 34 36  1  0  0  0  0
 34 37  1  0  0  0  0
 34 79  1  0  0  0  0
 35 80  1  0  0  0  0
 35 81  1  0  0  0  0
 36 82  1  0  0  0  0
 36 83  1  0  0  0  0
 36 84  1  0  0  0  0
 37 85  1  0  0  0  0
 37 86  1  0  0  0  0
 37 87  1  0  0  0  0
M  END
> <PUBCHEM_COMPOUND_CID>
503621
> <PUBCHEM_COMPOUND_CANONICALIZED>
1
> <PUBCHEM_CACTVS_COMPLEXITY>
1000
> <PUBCHEM_CACTVS_HBOND_ACCEPTOR>
5
> <PUBCHEM_CACTVS_HBOND_DONOR>
3
> <PUBCHEM_CACTVS_ROTATABLE_BOND>
7
> <PUBCHEM_CACTVS_SUBSKEYS>
AAADcfB8OAAAAAAAAAAAAAAAAAAAAQAAAAAwQIAAAAAAAEDAAAAAGgAACAAADxSggAICCAAABgCIAiDSCAAAAAAgAAAACAAAAAgJFAIAAQACUAAEwAALkAOA4PQPgAAAAAAAAABAAAYAADCAAAAAAAAAAA==
> <PUBCHEM_IUPAC_OPENEYE_NAME>
[(2R,3R,5R,10S,11R,12R,13R,17R)-17-[(1R)-1,5-dimethyl-4-methylene-hexyl]-2,3,11-trihydroxy-4,4,10,13-tetramethyl-1,2,3,5,6,7,11,12,16,17-decahydrocyclopenta[a]phenanthren-12-yl] acetate
> <PUBCHEM_IUPAC_CAS_NAME>
acetic acid [(2R,3R,5R,10S,11R,12R,13R,17R)-2,3,11-trihydroxy-4,4,10,13-tetramethyl-17-[(2R)-6-methyl-5-methyleneheptan-2-yl]-1,2,3,5,6,7,11,12,16,17-decahydrocyclopenta[a]phenanthren-12-yl] ester
> <PUBCHEM_IUPAC_NAME_MARKUP>
[(2<I>R</I>,3<I>R</I>,5<I>R</I>,10<I>S</I>,11<I>R</I>,12<I>R</I>,13<I>R</I>,17<I>R</I>)-2,3,11-trihydroxy-4,4,10,13-tetramethyl-17-[(2<I>R</I>)-6-methyl-5-methylideneheptan-2-yl]-1,2,3,5,6,7,11,12,16,17-decahydrocyclopenta[a]phenanthren-12-yl] acetate
> <PUBCHEM_IUPAC_NAME>
[(2R,3R,5R,10S,11R,12R,13R,17R)-2,3,11-trihydroxy-4,4,10,13-tetramethyl-17-[(2R)-6-methyl-5-methylideneheptan-2-yl]-1,2,3,5,6,7,11,12,16,17-decahydrocyclopenta[a]phenanthren-12-yl] acetate
> <PUBCHEM_IUPAC_SYSTEMATIC_NAME>
[(2R,3R,5R,10S,11R,12R,13R,17R)-4,4,10,13-tetramethyl-17-[(2R)-6-methyl-5-methylidene-heptan-2-yl]-2,3,11-tris(oxidanyl)-1,2,3,5,6,7,11,12,16,17-decahydrocyclopenta[a]phenanthren-12-yl] ethanoate
> <PUBCHEM_IUPAC_TRADITIONAL_NAME>
acetic acid [(2R,3R,5R,10S,11R,12R,13R,17R)-2,3,11-trihydroxy-17-[(1R)-4-isopropyl-1-methyl-pent-4-enyl]-4,4,10,13-tetramethyl-1,2,3,5,6,7,11,12,16,17-decahydrocyclopenta[a]phenanthren-12-yl] ester
> <PUBCHEM_IUPAC_INCHI>
InChI=1S/C32H50O5/c1-17(2)18(3)10-11-19(4)22-13-14-23-21-12-15-25-30(6,7)28(36)24(34)16-31(25,8)26(21)27(35)29(32(22,23)9)37-20(5)33/h14,17,19,22,24-25,27-29,34-36H,3,10-13,15-16H2,1-2,4-9H3/t19-,22-,24-,25+,27-,28+,29+,31+,32-/m1/s1
> <PUBCHEM_IUPAC_INCHIKEY>
VCOKSAAKIDFNQE-PGHPLGCHSA-N
> <PUBCHEM_XLOGP3_AA>
5.6
> <PUBCHEM_EXACT_MASS>
514.36582469
> <PUBCHEM_MOLECULAR_FORMULA>
C32H50O5
> <PUBCHEM_MOLECULAR_WEIGHT>
514.7
> <PUBCHEM_OPENEYE_CAN_SMILES>
CC(C)C(=C)CCC(C)C1CC=C2C1(C(C(C3=C2CCC4C3(CC(C(C4(C)C)O)O)C)O)OC(=O)C)C
> <PUBCHEM_OPENEYE_ISO_SMILES>
C[C@H](CCC(=C)C(C)C)[C@H]1CC=C2[C@@]1([C@H]([C@@H](C3=C2CC[C@@H]4[C@@]3(C[C@H]([C@@H](C4(C)C)O)O)C)O)OC(=O)C)C
> <PUBCHEM_CACTVS_TPSA>
87
> <PUBCHEM_MONOISOTOPIC_WEIGHT>
514.36582469
> <PUBCHEM_TOTAL_CHARGE>
0
> <PUBCHEM_HEAVY_ATOM_COUNT>
37
> <PUBCHEM_ATOM_DEF_STEREO_COUNT>
9
> <PUBCHEM_ATOM_UDEF_STEREO_COUNT>
0
> <PUBCHEM_BOND_DEF_STEREO_COUNT>
0
> <PUBCHEM_BOND_UDEF_STEREO_COUNT>
0
> <PUBCHEM_ISOTOPIC_ATOM_COUNT>
0
> <PUBCHEM_COMPONENT_COUNT>
1
> <PUBCHEM_CACTVS_TAUTO_COUNT>
-1
> <PUBCHEM_COORDINATE_TYPE>
1
5
255
> <PUBCHEM_BONDANNOTATIONS>
14  1  6
15  44  6
17  2  5
23  29  6
18  3  5
20  4  6
6  21  5
7  38  6
9  27  5
$$$$
