503601
  -OEChem-10302200282D
209219  0     1  0  0  0  0  0999 V2000
   14.2578    7.7584    0.0000 O   0  0  0  0  0  0  0  0  0  0  0  0
   15.0773    5.5752    0.0000 O   0  0  0  0  0  0  0  0  0  0  0  0
   15.1307    6.6246    0.0000 O   0  0  0  0  0  0  0  0  0  0  0  0
   13.2583    0.0591    0.0000 O   0  0  0  0  0  0  0  0  0  0  0  0
   11.5263    0.0591    0.0000 O   0  0  0  0  0  0  0  0  0  0  0  0
   13.2583   -1.9410    0.0000 O   0  0  0  0  0  0  0  0  0  0  0  0
   11.5263   -2.9410    0.0000 O   0  0  0  0  0  0  0  0  0  0  0  0
    9.7942   -1.9410    0.0000 O   0  0  0  0  0  0  0  0  0  0  0  0
   12.3923   -3.4410    0.0000 O   0  0  0  0  0  0  0  0  0  0  0  0
    8.9282   -0.4409    0.0000 O   0  0  0  0  0  0  0  0  0  0  0  0
   14.9904   -2.9410    0.0000 O   0  0  0  0  0  0  0  0  0  0  0  0
   14.9904   -4.9410    0.0000 O   0  0  0  0  0  0  0  0  0  0  0  0
   13.2583   -5.9410    0.0000 O   0  0  0  0  0  0  0  0  0  0  0  0
    8.0622   -2.9410    0.0000 O   0  0  0  0  0  0  0  0  0  0  0  0
    6.3301   -1.9410    0.0000 O   0  0  0  0  0  0  0  0  0  0  0  0
    6.3301    0.0591    0.0000 O   0  0  0  0  0  0  0  0  0  0  0  0
   11.5263   -5.9410    0.0000 O   0  0  0  0  0  0  0  0  0  0  0  0
    7.1962    1.5590    0.0000 O   0  0  0  0  0  0  0  0  0  0  0  0
    5.4641   -0.4409    0.0000 O   0  0  0  0  0  0  0  0  0  0  0  0
   13.2583   -7.9410    0.0000 O   0  0  0  0  0  0  0  0  0  0  0  0
   11.5263   -8.9410    0.0000 O   0  0  0  0  0  0  0  0  0  0  0  0
    4.5981   -2.9410    0.0000 O   0  0  0  0  0  0  0  0  0  0  0  0
    9.7942   -7.9410    0.0000 O   0  0  0  0  0  0  0  0  0  0  0  0
    2.8660   -1.9410    0.0000 O   0  0  0  0  0  0  0  0  0  0  0  0
    2.8660    0.0591    0.0000 O   0  0  0  0  0  0  0  0  0  0  0  0
    9.7942   -4.9410    0.0000 O   0  0  0  0  0  0  0  0  0  0  0  0
    9.7942   -8.9410    0.0000 O   0  0  0  0  0  0  0  0  0  0  0  0
    5.4641    1.5590    0.0000 O   0  0  0  0  0  0  0  0  0  0  0  0
   11.5263  -10.9409    0.0000 O   0  0  0  0  0  0  0  0  0  0  0  0
    9.7942  -11.9409    0.0000 O   0  0  0  0  0  0  0  0  0  0  0  0
    8.0622  -10.9409    0.0000 O   0  0  0  0  0  0  0  0  0  0  0  0
    7.1962   -9.4410    0.0000 O   0  0  0  0  0  0  0  0  0  0  0  0
   12.3611    5.7593    0.0000 C   0  0  2  0  0  0  0  0  0  0  0  0
   13.2291    6.2559    0.0000 C   0  0  3  0  0  0  0  0  0  0  0  0
   13.0236    7.2285    0.0000 C   0  0  3  0  0  0  0  0  0  0  0  0
   12.3573    4.7593    0.0000 C   0  0  3  0  0  0  0  0  0  0  0  0
   11.6267    6.4292    0.0000 C   0  0  0  0  0  0  0  0  0  0  0  0
   13.2334    3.2144    0.0000 C   0  0  2  0  0  0  0  0  0  0  0  0
   13.2214    4.2559    0.0000 C   0  0  0  0  0  0  0  0  0  0  0  0
   12.0353    7.3354    0.0000 C   0  0  0  0  0  0  0  0  0  0  0  0
   14.0932    5.7526    0.0000 C   0  0  2  0  0  0  0  0  0  0  0  0
   12.3333    2.6901    0.0000 C   0  0  3  0  0  0  0  0  0  0  0  0
   13.5210    8.0824    0.0000 C   0  0  2  0  0  0  0  0  0  0  0  0
   11.4453    4.2559    0.0000 C   0  0  0  0  0  0  0  0  0  0  0  0
   14.1313    6.6591    0.0000 C   0  0  0  0  0  0  0  0  0  0  0  0
   11.4333    3.2144    0.0000 C   0  0  0  0  0  0  0  0  0  0  0  0
   11.4932    5.2626    0.0000 C   0  0  0  0  0  0  0  0  0  0  0  0
   12.3208    1.6052    0.0000 C   0  0  0  0  0  0  0  0  0  0  0  0
   14.0893    4.7526    0.0000 C   0  0  0  0  0  0  0  0  0  0  0  0
   14.1833    2.6901    0.0000 C   0  0  0  0  0  0  0  0  0  0  0  0
   13.2583    1.0590    0.0000 C   0  0  3  0  0  0  0  0  0  0  0  0
   13.9305    8.9948    0.0000 C   0  0  0  0  0  0  0  0  0  0  0  0
   14.1959    1.6052    0.0000 C   0  0  0  0  0  0  0  0  0  0  0  0
   14.0975    3.7177    0.0000 C   0  0  0  0  0  0  0  0  0  0  0  0
   12.7799    8.7538    0.0000 C   0  0  0  0  0  0  0  0  0  0  0  0
   11.3208    1.6129    0.0000 C   0  0  0  0  0  0  0  0  0  0  0  0
   11.8141    0.7430    0.0000 C   0  0  0  0  0  0  0  0  0  0  0  0
   13.3451    9.8055    0.0000 C   0  0  0  0  0  0  0  0  0  0  0  0
   13.7546   10.7179    0.0000 C   0  0  0  0  0  0  0  0  0  0  0  0
   12.3923   -0.4409    0.0000 C   0  0  2  0  0  0  0  0  0  0  0  0
   13.1692   11.5286    0.0000 C   0  0  0  0  0  0  0  0  0  0  0  0
   12.3923   -1.4410    0.0000 C   0  0  1  0  0  0  0  0  0  0  0  0
   11.5263   -1.9410    0.0000 C   0  0  2  0  0  0  0  0  0  0  0  0
   13.5787   12.4409    0.0000 C   0  0  0  0  0  0  0  0  0  0  0  0
   12.1744   11.4271    0.0000 C   0  0  0  0  0  0  0  0  0  0  0  0
   10.6603   -0.4409    0.0000 C   0  0  0  0  0  0  0  0  0  0  0  0
   10.6603   -1.4410    0.0000 C   0  0  1  0  0  0  0  0  0  0  0  0
   13.2583   -2.9410    0.0000 C   0  0  2  0  0  0  0  0  0  0  0  0
   14.1244   -3.4410    0.0000 C   0  0  1  0  0  0  0  0  0  0  0  0
    8.9282   -1.4410    0.0000 C   0  0  2  0  0  0  0  0  0  0  0  0
   14.1244   -4.4410    0.0000 C   0  0  2  0  0  0  0  0  0  0  0  0
   12.3923   -4.4410    0.0000 C   0  0  1  0  0  0  0  0  0  0  0  0
   13.2583   -4.9410    0.0000 C   0  0  1  0  0  0  0  0  0  0  0  0
    8.0622   -1.9410    0.0000 C   0  0  1  0  0  0  0  0  0  0  0  0
    7.1962   -1.4410    0.0000 C   0  0  2  0  0  0  0  0  0  0  0  0
    8.0622    0.0591    0.0000 C   0  0  1  0  0  0  0  0  0  0  0  0
   11.5263   -4.9410    0.0000 C   0  0  0  0  0  0  0  0  0  0  0  0
    7.1962   -0.4409    0.0000 C   0  0  1  0  0  0  0  0  0  0  0  0
    8.0622    1.0590    0.0000 C   0  0  0  0  0  0  0  0  0  0  0  0
   12.3923   -6.4410    0.0000 C   0  0  2  0  0  0  0  0  0  0  0  0
    5.4641   -1.4410    0.0000 C   0  0  3  0  0  0  0  0  0  0  0  0
   12.3923   -7.4410    0.0000 C   0  0  1  0  0  0  0  0  0  0  0  0
   11.5263   -7.9410    0.0000 C   0  0  3  0  0  0  0  0  0  0  0  0
    4.5981   -1.9410    0.0000 C   0  0  1  0  0  0  0  0  0  0  0  0
   10.6603   -6.4410    0.0000 C   0  0  1  0  0  0  0  0  0  0  0  0
   10.6603   -7.4410    0.0000 C   0  0  1  0  0  0  0  0  0  0  0  0
    3.7320   -1.4410    0.0000 C   0  0  2  0  0  0  0  0  0  0  0  0
    4.5981    0.0591    0.0000 C   0  0  1  0  0  0  0  0  0  0  0  0
    3.7320   -0.4409    0.0000 C   0  0  1  0  0  0  0  0  0  0  0  0
    9.7942   -5.9410    0.0000 C   0  0  0  0  0  0  0  0  0  0  0  0
    4.5981    1.0590    0.0000 C   0  0  0  0  0  0  0  0  0  0  0  0
   10.6603   -9.4410    0.0000 C   0  0  3  0  0  0  0  0  0  0  0  0
   10.6603  -10.4409    0.0000 C   0  0  1  0  0  0  0  0  0  0  0  0
    2.0000   -1.4410    0.0000 C   0  0  0  0  0  0  0  0  0  0  0  0
    9.7942  -10.9409    0.0000 C   0  0  3  0  0  0  0  0  0  0  0  0
    8.9282   -9.4410    0.0000 C   0  0  1  0  0  0  0  0  0  0  0  0
    8.9282  -10.4409    0.0000 C   0  0  1  0  0  0  0  0  0  0  0  0
    8.0622   -8.9410    0.0000 C   0  0  0  0  0  0  0  0  0  0  0  0
   10.6603  -12.4409    0.0000 C   0  0  0  0  0  0  0  0  0  0  0  0
   12.7440    7.7819    0.0000 H   0  0  0  0  0  0  0  0  0  0  0  0
   12.8954    5.0672    0.0000 H   0  0  0  0  0  0  0  0  0  0  0  0
   11.0914    6.7420    0.0000 H   0  0  0  0  0  0  0  0  0  0  0  0
   11.2593    5.9297    0.0000 H   0  0  0  0  0  0  0  0  0  0  0  0
   12.1664    7.9414    0.0000 H   0  0  0  0  0  0  0  0  0  0  0  0
   11.4464    7.5294    0.0000 H   0  0  0  0  0  0  0  0  0  0  0  0
   14.3075    6.3344    0.0000 H   0  0  0  0  0  0  0  0  0  0  0  0
   11.7940    2.3842    0.0000 H   0  0  0  0  0  0  0  0  0  0  0  0
   11.2430    4.8420    0.0000 H   0  0  0  0  0  0  0  0  0  0  0  0
   10.8333    4.1569    0.0000 H   0  0  0  0  0  0  0  0  0  0  0  0
   10.8237    3.3275    0.0000 H   0  0  0  0  0  0  0  0  0  0  0  0
   11.2175    2.6331    0.0000 H   0  0  0  0  0  0  0  0  0  0  0  0
   11.1852    5.8007    0.0000 H   0  0  0  0  0  0  0  0  0  0  0  0
   10.9551    4.9547    0.0000 H   0  0  0  0  0  0  0  0  0  0  0  0
   11.8011    4.7245    0.0000 H   0  0  0  0  0  0  0  0  0  0  0  0
   14.6250    4.4405    0.0000 H   0  0  0  0  0  0  0  0  0  0  0  0
   14.7954    2.5911    0.0000 H   0  0  0  0  0  0  0  0  0  0  0  0
   14.3856    3.2762    0.0000 H   0  0  0  0  0  0  0  0  0  0  0  0
   13.7959    0.7501    0.0000 H   0  0  0  0  0  0  0  0  0  0  0  0
   14.4434    8.6465    0.0000 H   0  0  0  0  0  0  0  0  0  0  0  0
   14.3625    9.4395    0.0000 H   0  0  0  0  0  0  0  0  0  0  0  0
   14.4117    1.0239    0.0000 H   0  0  0  0  0  0  0  0  0  0  0  0
   14.8055    1.7183    0.0000 H   0  0  0  0  0  0  0  0  0  0  0  0
   14.4096    3.1820    0.0000 H   0  0  0  0  0  0  0  0  0  0  0  0
   14.6332    4.0298    0.0000 H   0  0  0  0  0  0  0  0  0  0  0  0
   13.7854    4.2534    0.0000 H   0  0  0  0  0  0  0  0  0  0  0  0
   13.1961    9.2133    0.0000 H   0  0  0  0  0  0  0  0  0  0  0  0
   12.3204    9.1700    0.0000 H   0  0  0  0  0  0  0  0  0  0  0  0
   12.3636    8.2943    0.0000 H   0  0  0  0  0  0  0  0  0  0  0  0
   11.3256    2.2329    0.0000 H   0  0  0  0  0  0  0  0  0  0  0  0
   10.7008    1.6177    0.0000 H   0  0  0  0  0  0  0  0  0  0  0  0
   11.3160    0.9929    0.0000 H   0  0  0  0  0  0  0  0  0  0  0  0
   11.2796    1.0572    0.0000 H   0  0  0  0  0  0  0  0  0  0  0  0
   11.5000    0.2085    0.0000 H   0  0  0  0  0  0  0  0  0  0  0  0
   12.3487    0.4289    0.0000 H   0  0  0  0  0  0  0  0  0  0  0  0
   15.2871    4.9917    0.0000 H   0  0  0  0  0  0  0  0  0  0  0  0
   12.8321   10.1538    0.0000 H   0  0  0  0  0  0  0  0  0  0  0  0
   12.9131    9.3608    0.0000 H   0  0  0  0  0  0  0  0  0  0  0  0
   14.2675   10.3696    0.0000 H   0  0  0  0  0  0  0  0  0  0  0  0
   14.1866   11.1626    0.0000 H   0  0  0  0  0  0  0  0  0  0  0  0
   12.3923    0.1791    0.0000 H   0  0  0  0  0  0  0  0  0  0  0  0
   12.8063   12.0313    0.0000 H   0  0  0  0  0  0  0  0  0  0  0  0
   12.3923   -2.0610    0.0000 H   0  0  0  0  0  0  0  0  0  0  0  0
   10.9893   -2.2510    0.0000 H   0  0  0  0  0  0  0  0  0  0  0  0
   14.1443   12.1871    0.0000 H   0  0  0  0  0  0  0  0  0  0  0  0
   13.8325   13.0066    0.0000 H   0  0  0  0  0  0  0  0  0  0  0  0
   13.0130   12.6948    0.0000 H   0  0  0  0  0  0  0  0  0  0  0  0
   12.1114   12.0439    0.0000 H   0  0  0  0  0  0  0  0  0  0  0  0
   11.5576   11.3641    0.0000 H   0  0  0  0  0  0  0  0  0  0  0  0
   12.2373   10.8103    0.0000 H   0  0  0  0  0  0  0  0  0  0  0  0
   10.4482    0.1417    0.0000 H   0  0  0  0  0  0  0  0  0  0  0  0
   10.0497   -0.5486    0.0000 H   0  0  0  0  0  0  0  0  0  0  0  0
   10.1233   -1.1309    0.0000 H   0  0  0  0  0  0  0  0  0  0  0  0
   13.7953   -2.6310    0.0000 H   0  0  0  0  0  0  0  0  0  0  0  0
   10.9893   -3.2510    0.0000 H   0  0  0  0  0  0  0  0  0  0  0  0
   14.6613   -3.7510    0.0000 H   0  0  0  0  0  0  0  0  0  0  0  0
    8.9282   -2.0610    0.0000 H   0  0  0  0  0  0  0  0  0  0  0  0
   14.6613   -4.1310    0.0000 H   0  0  0  0  0  0  0  0  0  0  0  0
   11.8554   -4.1310    0.0000 H   0  0  0  0  0  0  0  0  0  0  0  0
   13.7953   -5.2509    0.0000 H   0  0  0  0  0  0  0  0  0  0  0  0
    7.5252   -2.2510    0.0000 H   0  0  0  0  0  0  0  0  0  0  0  0
   14.9904   -2.3210    0.0000 H   0  0  0  0  0  0  0  0  0  0  0  0
    6.6592   -1.1309    0.0000 H   0  0  0  0  0  0  0  0  0  0  0  0
    8.5991    0.3691    0.0000 H   0  0  0  0  0  0  0  0  0  0  0  0
   11.2163   -4.4040    0.0000 H   0  0  0  0  0  0  0  0  0  0  0  0
   10.9893   -5.2509    0.0000 H   0  0  0  0  0  0  0  0  0  0  0  0
   11.8363   -5.4779    0.0000 H   0  0  0  0  0  0  0  0  0  0  0  0
    7.1962    0.1791    0.0000 H   0  0  0  0  0  0  0  0  0  0  0  0
   15.5273   -4.6310    0.0000 H   0  0  0  0  0  0  0  0  0  0  0  0
    7.5252   -3.2510    0.0000 H   0  0  0  0  0  0  0  0  0  0  0  0
    8.6728    0.9514    0.0000 H   0  0  0  0  0  0  0  0  0  0  0  0
    8.2742    1.6417    0.0000 H   0  0  0  0  0  0  0  0  0  0  0  0
   12.9292   -6.7510    0.0000 H   0  0  0  0  0  0  0  0  0  0  0  0
    6.3301    0.6791    0.0000 H   0  0  0  0  0  0  0  0  0  0  0  0
    5.4641   -2.0610    0.0000 H   0  0  0  0  0  0  0  0  0  0  0  0
   12.3923   -8.0610    0.0000 H   0  0  0  0  0  0  0  0  0  0  0  0
   12.0632   -8.2510    0.0000 H   0  0  0  0  0  0  0  0  0  0  0  0
    7.1962    2.1790    0.0000 H   0  0  0  0  0  0  0  0  0  0  0  0
    4.0611   -2.2510    0.0000 H   0  0  0  0  0  0  0  0  0  0  0  0
   10.6603   -5.8210    0.0000 H   0  0  0  0  0  0  0  0  0  0  0  0
   10.6603   -8.0610    0.0000 H   0  0  0  0  0  0  0  0  0  0  0  0
    3.1951   -1.1309    0.0000 H   0  0  0  0  0  0  0  0  0  0  0  0
    5.1350    0.3691    0.0000 H   0  0  0  0  0  0  0  0  0  0  0  0
   13.7953   -7.6310    0.0000 H   0  0  0  0  0  0  0  0  0  0  0  0
    3.7320    0.1791    0.0000 H   0  0  0  0  0  0  0  0  0  0  0  0
    9.1836   -5.8333    0.0000 H   0  0  0  0  0  0  0  0  0  0  0  0
    9.5822   -6.5236    0.0000 H   0  0  0  0  0  0  0  0  0  0  0  0
    4.0611   -3.2510    0.0000 H   0  0  0  0  0  0  0  0  0  0  0  0
    9.2573   -7.6310    0.0000 H   0  0  0  0  0  0  0  0  0  0  0  0
    4.3860    1.6417    0.0000 H   0  0  0  0  0  0  0  0  0  0  0  0
    3.9875    0.9514    0.0000 H   0  0  0  0  0  0  0  0  0  0  0  0
   11.1972   -9.7510    0.0000 H   0  0  0  0  0  0  0  0  0  0  0  0
    2.8660    0.6791    0.0000 H   0  0  0  0  0  0  0  0  0  0  0  0
   10.6603  -11.0609    0.0000 H   0  0  0  0  0  0  0  0  0  0  0  0
    9.2573   -4.6310    0.0000 H   0  0  0  0  0  0  0  0  0  0  0  0
    2.3100   -0.9040    0.0000 H   0  0  0  0  0  0  0  0  0  0  0  0
    1.4631   -1.1309    0.0000 H   0  0  0  0  0  0  0  0  0  0  0  0
    1.6900   -1.9779    0.0000 H   0  0  0  0  0  0  0  0  0  0  0  0
   10.3312  -11.2509    0.0000 H   0  0  0  0  0  0  0  0  0  0  0  0
    5.4641    2.1790    0.0000 H   0  0  0  0  0  0  0  0  0  0  0  0
    8.9282   -8.8210    0.0000 H   0  0  0  0  0  0  0  0  0  0  0  0
    8.9282  -11.0609    0.0000 H   0  0  0  0  0  0  0  0  0  0  0  0
   12.0632  -10.6309    0.0000 H   0  0  0  0  0  0  0  0  0  0  0  0
    8.4607   -8.4660    0.0000 H   0  0  0  0  0  0  0  0  0  0  0  0
    7.6636   -8.4660    0.0000 H   0  0  0  0  0  0  0  0  0  0  0  0
    8.0622  -11.5609    0.0000 H   0  0  0  0  0  0  0  0  0  0  0  0
   10.3503  -12.9779    0.0000 H   0  0  0  0  0  0  0  0  0  0  0  0
   11.1972  -12.7509    0.0000 H   0  0  0  0  0  0  0  0  0  0  0  0
   10.9703  -11.9040    0.0000 H   0  0  0  0  0  0  0  0  0  0  0  0
    6.6592   -9.1310    0.0000 H   0  0  0  0  0  0  0  0  0  0  0  0
  1 43  1  0  0  0  0
  1 45  1  0  0  0  0
 41  2  1  1  0  0  0
  2135  1  0  0  0  0
  3 45  2  0  0  0  0
  4 51  1  0  0  0  0
 60  4  1  1  0  0  0
  5 60  1  0  0  0  0
  5 66  1  0  0  0  0
 62  6  1  6  0  0  0
 68  6  1  1  0  0  0
 63  7  1  1  0  0  0
  7154  1  0  0  0  0
 67  8  1  6  0  0  0
 70  8  1  1  0  0  0
  9 68  1  0  0  0  0
  9 72  1  0  0  0  0
 10 70  1  0  0  0  0
 10 76  1  0  0  0  0
 69 11  1  6  0  0  0
 11161  1  0  0  0  0
 71 12  1  1  0  0  0
 12168  1  0  0  0  0
 73 13  1  6  0  0  0
 80 13  1  1  0  0  0
 74 14  1  6  0  0  0
 14169  1  0  0  0  0
 75 15  1  1  0  0  0
 15 81  1  0  0  0  0
 78 16  1  6  0  0  0
 16173  1  0  0  0  0
 17 80  1  0  0  0  0
 17 85  1  0  0  0  0
 18 79  1  0  0  0  0
 18177  1  0  0  0  0
 19 81  1  0  0  0  0
 19 88  1  0  0  0  0
 82 20  1  6  0  0  0
 20183  1  0  0  0  0
 21 83  1  0  0  0  0
 21 92  1  0  0  0  0
 84 22  1  6  0  0  0
 22187  1  0  0  0  0
 86 23  1  6  0  0  0
 23188  1  0  0  0  0
 87 24  1  1  0  0  0
 24 94  1  0  0  0  0
 89 25  1  6  0  0  0
 25192  1  0  0  0  0
 26 90  1  0  0  0  0
 26194  1  0  0  0  0
 27 92  1  0  0  0  0
 27 96  1  0  0  0  0
 28 91  1  0  0  0  0
 28199  1  0  0  0  0
 93 29  1  6  0  0  0
 29202  1  0  0  0  0
 30 95  1  0  0  0  0
 30 99  1  0  0  0  0
 97 31  1  6  0  0  0
 31205  1  0  0  0  0
 32 98  1  0  0  0  0
 32209  1  0  0  0  0
 33 34  1  0  0  0  0
 33 36  1  0  0  0  0
 33 37  1  0  0  0  0
 33 47  1  1  0  0  0
 34 35  1  0  0  0  0
 34 41  1  0  0  0  0
 34 45  1  0  0  0  0
 35 40  1  0  0  0  0
 35 43  1  0  0  0  0
 35100  1  0  0  0  0
 36 39  1  0  0  0  0
 36 44  1  0  0  0  0
 36101  1  0  0  0  0
 37 40  1  0  0  0  0
 37102  1  0  0  0  0
 37103  1  0  0  0  0
 38 39  1  0  0  0  0
 38 42  1  0  0  0  0
 38 50  1  0  0  0  0
 38 54  1  6  0  0  0
 39 49  2  0  0  0  0
 40104  1  0  0  0  0
 40105  1  0  0  0  0
 41 49  1  0  0  0  0
 41106  1  0  0  0  0
 42 46  1  0  0  0  0
 42 48  1  0  0  0  0
 42107  1  0  0  0  0
 43 52  1  0  0  0  0
 43 55  1  1  0  0  0
 44 46  1  0  0  0  0
 44108  1  0  0  0  0
 44109  1  0  0  0  0
 46110  1  0  0  0  0
 46111  1  0  0  0  0
 47112  1  0  0  0  0
 47113  1  0  0  0  0
 47114  1  0  0  0  0
 48 51  1  0  0  0  0
 48 56  1  0  0  0  0
 48 57  1  0  0  0  0
 49115  1  0  0  0  0
 50 53  1  0  0  0  0
 50116  1  0  0  0  0
 50117  1  0  0  0  0
 51 53  1  0  0  0  0
 51118  1  0  0  0  0
 52 58  1  0  0  0  0
 52119  1  0  0  0  0
 52120  1  0  0  0  0
 53121  1  0  0  0  0
 53122  1  0  0  0  0
 54123  1  0  0  0  0
 54124  1  0  0  0  0
 54125  1  0  0  0  0
 55126  1  0  0  0  0
 55127  1  0  0  0  0
 55128  1  0  0  0  0
 56129  1  0  0  0  0
 56130  1  0  0  0  0
 56131  1  0  0  0  0
 57132  1  0  0  0  0
 57133  1  0  0  0  0
 57134  1  0  0  0  0
 58 59  1  0  0  0  0
 58136  1  0  0  0  0
 58137  1  0  0  0  0
 59 61  1  0  0  0  0
 59138  1  0  0  0  0
 59139  1  0  0  0  0
 60 62  1  0  0  0  0
 60140  1  0  0  0  0
 61 64  1  0  0  0  0
 61 65  1  0  0  0  0
 61141  1  0  0  0  0
 62 63  1  0  0  0  0
 62142  1  0  0  0  0
 63 67  1  0  0  0  0
 63143  1  0  0  0  0
 64144  1  0  0  0  0
 64145  1  0  0  0  0
 64146  1  0  0  0  0
 65147  1  0  0  0  0
 65148  1  0  0  0  0
 65149  1  0  0  0  0
 66 67  1  0  0  0  0
 66150  1  0  0  0  0
 66151  1  0  0  0  0
 67152  1  0  0  0  0
 68 69  1  0  0  0  0
 68153  1  0  0  0  0
 69 71  1  0  0  0  0
 69155  1  0  0  0  0
 70 74  1  0  0  0  0
 70156  1  0  0  0  0
 71 73  1  0  0  0  0
 71157  1  0  0  0  0
 72 73  1  0  0  0  0
 72 77  1  1  0  0  0
 72158  1  0  0  0  0
 73159  1  0  0  0  0
 74 75  1  0  0  0  0
 74160  1  0  0  0  0
 75 78  1  0  0  0  0
 75162  1  0  0  0  0
 76 78  1  0  0  0  0
 76 79  1  1  0  0  0
 76163  1  0  0  0  0
 77164  1  0  0  0  0
 77165  1  0  0  0  0
 77166  1  0  0  0  0
 78167  1  0  0  0  0
 79170  1  0  0  0  0
 79171  1  0  0  0  0
 80 82  1  0  0  0  0
 80172  1  0  0  0  0
 81 84  1  0  0  0  0
 81174  1  0  0  0  0
 82 83  1  0  0  0  0
 82175  1  0  0  0  0
 83 86  1  0  0  0  0
 83176  1  0  0  0  0
 84 87  1  0  0  0  0
 84178  1  0  0  0  0
 85 86  1  0  0  0  0
 85 90  1  1  0  0  0
 85179  1  0  0  0  0
 86180  1  0  0  0  0
 87 89  1  0  0  0  0
 87181  1  0  0  0  0
 88 89  1  0  0  0  0
 88 91  1  1  0  0  0
 88182  1  0  0  0  0
 89184  1  0  0  0  0
 90185  1  0  0  0  0
 90186  1  0  0  0  0
 91189  1  0  0  0  0
 91190  1  0  0  0  0
 92 93  1  0  0  0  0
 92191  1  0  0  0  0
 93 95  1  0  0  0  0
 93193  1  0  0  0  0
 94195  1  0  0  0  0
 94196  1  0  0  0  0
 94197  1  0  0  0  0
 95 97  1  0  0  0  0
 95198  1  0  0  0  0
 96 97  1  0  0  0  0
 96 98  1  1  0  0  0
 96200  1  0  0  0  0
 97201  1  0  0  0  0
 98203  1  0  0  0  0
 98204  1  0  0  0  0
 99206  1  0  0  0  0
 99207  1  0  0  0  0
 99208  1  0  0  0  0
M  END
> <PUBCHEM_COMPOUND_CID>
503601
> <PUBCHEM_COMPOUND_CANONICALIZED>
1
> <PUBCHEM_CACTVS_COMPLEXITY>
2740
> <PUBCHEM_CACTVS_HBOND_ACCEPTOR>
32
> <PUBCHEM_CACTVS_HBOND_DONOR>
16
> <PUBCHEM_CACTVS_ROTATABLE_BOND>
22
> <PUBCHEM_CACTVS_SUBSKEYS>
AAADcfB8PgAAAAAAAAAAAAAAAAAAAaIAAAA0aJEiQAASAEDAAAAAGgAACAAAD1SwgAMCCAAABgCIAiDSCAAAAAAgAAAACAEAAAgRFBYAAQAiUAAFoAAPEAPK6PyPgAAAAAAAAADAAAYAADAAAQAACAAAAA==
> <PUBCHEM_IUPAC_OPENEYE_NAME>
(2S,6S,10S,13S)-16-[(2S,3R,4S,5R)-5-[(2S,3R,4S,5R,6R)-4-[(3R,4S,5R,6R)-3,5-dihydroxy-6-(hydroxymethyl)-4-methoxy-tetrahydropyran-2-yl]oxy-3,5-dihydroxy-6-(hydroxymethyl)tetrahydropyran-2-yl]oxy-3-[(2S,3R,4R,5S,6R)-5-[(2S,3R,5R,6R)-4-[(3R,5R,6R)-3,5-dihydroxy-6-(hydroxymethyl)-4-methoxy-tetrahydropyran-2-yl]oxy-3,5-dihydroxy-6-(hydroxymethyl)tetrahydropyran-2-yl]oxy-3,4-dihydroxy-6-methyl-tetrahydropyran-2-yl]oxy-4-hydroxy-tetrahydropyran-2-yl]oxy-10-hydroxy-6-isohexyl-2,6,13,17,17-pentamethyl-7-oxapentacyclo[10.8.0.02,9.05,9.013,18]icos-11-en-8-one
> <PUBCHEM_IUPAC_CAS_NAME>
(2S,6S,10S,13S)-16-[[(2S,3R,4S,5R)-5-[[(2S,3R,4S,5R,6R)-4-[[(3R,4S,5R,6R)-3,5-dihydroxy-6-(hydroxymethyl)-4-methoxy-2-oxanyl]oxy]-3,5-dihydroxy-6-(hydroxymethyl)-2-oxanyl]oxy]-3-[[(2S,3R,4R,5S,6R)-5-[[(2S,3R,5R,6R)-4-[[(3R,5R,6R)-3,5-dihydroxy-6-(hydroxymethyl)-4-methoxy-2-oxanyl]oxy]-3,5-dihydroxy-6-(hydroxymethyl)-2-oxanyl]oxy]-3,4-dihydroxy-6-methyl-2-oxanyl]oxy]-4-hydroxy-2-oxanyl]oxy]-10-hydroxy-2,6,13,17,17-pentamethyl-6-(4-methylpentyl)-7-oxapentacyclo[10.8.0.02,9.05,9.013,18]eicos-11-en-8-one
> <PUBCHEM_IUPAC_NAME_MARKUP>
(2<I>S</I>,6<I>S</I>,10<I>S</I>,13<I>S</I>)-16-[(2<I>S</I>,3<I>R</I>,4<I>S</I>,5<I>R</I>)-5-[(2<I>S</I>,3<I>R</I>,4<I>S</I>,5<I>R</I>,6<I>R</I>)-4-[(3<I>R</I>,4<I>S</I>,5<I>R</I>,6<I>R</I>)-3,5-dihydroxy-6-(hydroxymethyl)-4-methoxyoxan-2-yl]oxy-3,5-dihydroxy-6-(hydroxymethyl)oxan-2-yl]oxy-3-[(2<I>S</I>,3<I>R</I>,4<I>R</I>,5<I>S</I>,6<I>R</I>)-5-[(2<I>S</I>,3<I>R</I>,5<I>R</I>,6<I>R</I>)-4-[(3<I>R</I>,5<I>R</I>,6<I>R</I>)-3,5-dihydroxy-6-(hydroxymethyl)-4-methoxyoxan-2-yl]oxy-3,5-dihydroxy-6-(hydroxymethyl)oxan-2-yl]oxy-3,4-dihydroxy-6-methyloxan-2-yl]oxy-4-hydroxyoxan-2-yl]oxy-10-hydroxy-2,6,13,17,17-pentamethyl-6-(4-methylpentyl)-7-oxapentacyclo[10.8.0.0<SUP>2,9</SUP>.0<SUP>5,9</SUP>.0<SUP>13,18</SUP>]icos-11-en-8-one
> <PUBCHEM_IUPAC_NAME>
(2S,6S,10S,13S)-16-[(2S,3R,4S,5R)-5-[(2S,3R,4S,5R,6R)-4-[(3R,4S,5R,6R)-3,5-dihydroxy-6-(hydroxymethyl)-4-methoxyoxan-2-yl]oxy-3,5-dihydroxy-6-(hydroxymethyl)oxan-2-yl]oxy-3-[(2S,3R,4R,5S,6R)-5-[(2S,3R,5R,6R)-4-[(3R,5R,6R)-3,5-dihydroxy-6-(hydroxymethyl)-4-methoxyoxan-2-yl]oxy-3,5-dihydroxy-6-(hydroxymethyl)oxan-2-yl]oxy-3,4-dihydroxy-6-methyloxan-2-yl]oxy-4-hydroxyoxan-2-yl]oxy-10-hydroxy-2,6,13,17,17-pentamethyl-6-(4-methylpentyl)-7-oxapentacyclo[10.8.0.02,9.05,9.013,18]icos-11-en-8-one
> <PUBCHEM_IUPAC_SYSTEMATIC_NAME>
(2S,6S,10S,13S)-16-[(2S,3R,4S,5R)-5-[(2S,3R,4S,5R,6R)-6-(hydroxymethyl)-4-[(3R,4S,5R,6R)-6-(hydroxymethyl)-4-methoxy-3,5-bis(oxidanyl)oxan-2-yl]oxy-3,5-bis(oxidanyl)oxan-2-yl]oxy-3-[(2S,3R,4R,5S,6R)-5-[(2S,3R,5R,6R)-6-(hydroxymethyl)-4-[(3R,5R,6R)-6-(hydroxymethyl)-4-methoxy-3,5-bis(oxidanyl)oxan-2-yl]oxy-3,5-bis(oxidanyl)oxan-2-yl]oxy-6-methyl-3,4-bis(oxidanyl)oxan-2-yl]oxy-4-oxidanyl-oxan-2-yl]oxy-2,6,13,17,17-pentamethyl-6-(4-methylpentyl)-10-oxidanyl-7-oxapentacyclo[10.8.0.02,9.05,9.013,18]icos-11-en-8-one
> <PUBCHEM_IUPAC_TRADITIONAL_NAME>
(2S,6S,10S,13S)-16-[(2S,3R,4S,5R)-5-[(2S,3R,4S,5R,6R)-4-[(3R,4S,5R,6R)-3,5-dihydroxy-4-methoxy-6-methylol-tetrahydropyran-2-yl]oxy-3,5-dihydroxy-6-methylol-tetrahydropyran-2-yl]oxy-3-[(2S,3R,4R,5S,6R)-5-[(2S,3R,5R,6R)-4-[(3R,5R,6R)-3,5-dihydroxy-4-methoxy-6-methylol-tetrahydropyran-2-yl]oxy-3,5-dihydroxy-6-methylol-tetrahydropyran-2-yl]oxy-3,4-dihydroxy-6-methyl-tetrahydropyran-2-yl]oxy-4-hydroxy-tetrahydropyran-2-yl]oxy-10-hydroxy-6-isohexyl-2,6,13,17,17-pentamethyl-7-oxapentacyclo[10.8.0.02,9.05,9.013,18]eicos-11-en-8-one
> <PUBCHEM_IUPAC_INCHI>
InChI=1S/C67H110O32/c1-26(2)12-11-17-66(8)36-15-19-65(7)28-13-14-35-63(4,5)38(16-18-64(35,6)29(28)20-37(72)67(36,65)62(84)99-66)94-61-55(43(77)34(25-87-61)93-57-48(82)53(41(75)32(23-70)89-57)96-58-46(80)51(85-9)39(73)30(21-68)90-58)98-56-45(79)44(78)50(27(3)88-56)95-60-49(83)54(42(76)33(24-71)92-60)97-59-47(81)52(86-10)40(74)31(22-69)91-59/h20,26-28,30-61,68-83H,11-19,21-25H2,1-10H3/t27-,28?,30-,31-,32-,33-,34-,35?,36?,37+,38?,39-,40-,41-,42-,43+,44-,45-,46-,47-,48-,49-,50-,51+,52?,53+,54?,55-,56+,57+,58?,59?,60+,61+,64-,65+,66+,67?/m1/s1
> <PUBCHEM_IUPAC_INCHIKEY>
QJXYVWRUWRZFBA-QXWCBLGHSA-N
> <PUBCHEM_XLOGP3_AA>
-1.7
> <PUBCHEM_EXACT_MASS>
1426.6980213
> <PUBCHEM_MOLECULAR_FORMULA>
C67H110O32
> <PUBCHEM_MOLECULAR_WEIGHT>
1427.6
> <PUBCHEM_OPENEYE_CAN_SMILES>
CC1C(C(C(C(O1)OC2C(C(COC2OC3CCC4(C(C3(C)C)CCC5C4=CC(C67C5(CCC6C(OC7=O)(C)CCCC(C)C)C)O)C)OC8C(C(C(C(O8)CO)O)OC9C(C(C(C(O9)CO)O)OC)O)O)O)O)O)OC1C(C(C(C(O1)CO)O)OC1C(C(C(C(O1)CO)O)OC)O)O
> <PUBCHEM_OPENEYE_ISO_SMILES>
C[C@@H]1[C@H]([C@@H]([C@H]([C@@H](O1)O[C@@H]2[C@H]([C@@H](CO[C@H]2OC3CC[C@]4(C(C3(C)C)CCC5C4=C[C@@H](C67[C@]5(CCC6[C@](OC7=O)(C)CCCC(C)C)C)O)C)O[C@H]8[C@@H]([C@H]([C@@H]([C@H](O8)CO)O)OC9[C@@H]([C@H]([C@@H]([C@H](O9)CO)O)OC)O)O)O)O)O)O[C@H]1[C@@H](C([C@@H]([C@H](O1)CO)O)OC1[C@@H](C([C@@H]([C@H](O1)CO)O)OC)O)O
> <PUBCHEM_CACTVS_TPSA>
479
> <PUBCHEM_MONOISOTOPIC_WEIGHT>
1426.6980213
> <PUBCHEM_TOTAL_CHARGE>
0
> <PUBCHEM_HEAVY_ATOM_COUNT>
99
> <PUBCHEM_ATOM_DEF_STEREO_COUNT>
29
> <PUBCHEM_ATOM_UDEF_STEREO_COUNT>
9
> <PUBCHEM_BOND_DEF_STEREO_COUNT>
0
> <PUBCHEM_BOND_UDEF_STEREO_COUNT>
0
> <PUBCHEM_ISOTOPIC_ATOM_COUNT>
0
> <PUBCHEM_COMPONENT_COUNT>
1
> <PUBCHEM_CACTVS_TAUTO_COUNT>
-1
> <PUBCHEM_COORDINATE_TYPE>
1
5
255
> <PUBCHEM_BONDANNOTATIONS>
69  11  6
71  12  5
73  13  6
80  13  5
74  14  6
75  15  5
81  15  3
78  16  6
41  2  5
82  20  6
83  21  3
92  21  3
84  22  6
86  23  6
87  24  5
89  25  6
93  29  6
95  30  3
97  31  6
33  47  5
34  35  3
35  40  3
36  44  3
38  54  6
51  4  3
60  4  5
42  46  3
43  55  5
62  6  6
68  6  5
63  7  5
72  77  5
76  79  5
67  8  6
70  8  5
85  90  5
88  91  5
96  98  5
$$$$
