503600
  -OEChem-10302200282D
140148  0     1  0  0  0  0  0999 V2000
   13.0352    4.6697    0.0000 O   0  0  0  0  0  0  0  0  0  0  0  0
   14.1928    3.3023    0.0000 O   0  0  0  0  0  0  0  0  0  0  0  0
   10.7347    4.2878    0.0000 O   0  0  0  0  0  0  0  0  0  0  0  0
   13.9577    5.9546    0.0000 O   0  0  0  0  0  0  0  0  0  0  0  0
   11.6168    4.8588    0.0000 O   0  0  0  0  0  0  0  0  0  0  0  0
    6.8671   -0.0455    0.0000 O   0  0  0  0  0  0  0  0  0  0  0  0
    7.7331   -1.5455    0.0000 O   0  0  0  0  0  0  0  0  0  0  0  0
    5.1350   -1.0455    0.0000 O   0  0  0  0  0  0  0  0  0  0  0  0
    5.1350   -3.0455    0.0000 O   0  0  0  0  0  0  0  0  0  0  0  0
    6.8671   -4.0455    0.0000 O   0  0  0  0  0  0  0  0  0  0  0  0
    6.0010    0.4545    0.0000 O   0  0  0  0  0  0  0  0  0  0  0  0
    5.1350   -4.0455    0.0000 O   0  0  0  0  0  0  0  0  0  0  0  0
    3.4030   -0.0455    0.0000 O   0  0  0  0  0  0  0  0  0  0  0  0
    3.4030    1.9545    0.0000 O   0  0  0  0  0  0  0  0  0  0  0  0
    5.1350    2.9545    0.0000 O   0  0  0  0  0  0  0  0  0  0  0  0
    6.8671   -6.0455    0.0000 O   0  0  0  0  0  0  0  0  0  0  0  0
    5.1350   -7.0455    0.0000 O   0  0  0  0  0  0  0  0  0  0  0  0
    3.4030   -6.0455    0.0000 O   0  0  0  0  0  0  0  0  0  0  0  0
    2.5369   -4.5455    0.0000 O   0  0  0  0  0  0  0  0  0  0  0  0
   12.2483    3.0276    0.0000 C   0  0  3  0  0  0  0  0  0  0  0  0
   12.2522    2.0276    0.0000 C   0  0  2  0  0  0  0  0  0  0  0  0
   13.1934    3.3360    0.0000 C   0  0  1  0  0  0  0  0  0  0  0  0
   11.3881    1.5243    0.0000 C   0  0  3  0  0  0  0  0  0  0  0  0
   13.1996    1.7265    0.0000 C   0  0  0  0  0  0  0  0  0  0  0  0
   13.7801    2.5335    0.0000 C   0  0  0  0  0  0  0  0  0  0  0  0
   13.6842    4.1936    0.0000 C   0  0  2  0  0  0  0  0  0  0  0  0
    9.6121    1.5106    0.0000 C   0  0  2  0  0  0  0  0  0  0  0  0
   11.3804    3.5242    0.0000 C   0  0  2  0  0  0  0  0  0  0  0  0
   10.5202    2.0209    0.0000 C   0  0  0  0  0  0  0  0  0  0  0  0
    9.6081    0.4689    0.0000 C   0  0  3  0  0  0  0  0  0  0  0  0
   11.4082    0.4828    0.0000 C   0  0  0  0  0  0  0  0  0  0  0  0
   12.1464    4.0105    0.0000 C   0  0  0  0  0  0  0  0  0  0  0  0
   12.2561    1.0276    0.0000 C   0  0  0  0  0  0  0  0  0  0  0  0
   10.5122   -0.0484    0.0000 C   0  0  0  0  0  0  0  0  0  0  0  0
   10.5163    3.0209    0.0000 C   0  0  0  0  0  0  0  0  0  0  0  0
    8.6748   -0.0844    0.0000 C   0  0  0  0  0  0  0  0  0  0  0  0
   14.2695    5.0044    0.0000 C   0  0  3  0  0  0  0  0  0  0  0  0
    8.6831    2.0711    0.0000 C   0  0  0  0  0  0  0  0  0  0  0  0
    7.7331    0.4545    0.0000 C   0  0  3  0  0  0  0  0  0  0  0  0
   14.6835    4.2315    0.0000 C   0  0  0  0  0  0  0  0  0  0  0  0
    9.6160    2.5106    0.0000 C   0  0  0  0  0  0  0  0  0  0  0  0
    7.7373    1.5395    0.0000 C   0  0  0  0  0  0  0  0  0  0  0  0
   15.2695    5.0074    0.0000 C   0  0  0  0  0  0  0  0  0  0  0  0
    9.1815   -0.9465    0.0000 C   0  0  0  0  0  0  0  0  0  0  0  0
    8.1815   -0.9542    0.0000 C   0  0  0  0  0  0  0  0  0  0  0  0
   14.7649    6.5447    0.0000 C   0  0  0  0  0  0  0  0  0  0  0  0
   15.5757    5.9594    0.0000 C   0  0  0  0  0  0  0  0  0  0  0  0
   15.3503    7.3555    0.0000 C   0  0  0  0  0  0  0  0  0  0  0  0
   14.1747    7.3520    0.0000 C   0  0  0  0  0  0  0  0  0  0  0  0
    6.8671   -1.0455    0.0000 C   0  0  2  0  0  0  0  0  0  0  0  0
    6.0010   -1.5455    0.0000 C   0  0  1  0  0  0  0  0  0  0  0  0
    6.0010   -2.5455    0.0000 C   0  0  2  0  0  0  0  0  0  0  0  0
    7.7331   -2.5455    0.0000 C   0  0  0  0  0  0  0  0  0  0  0  0
    6.8671   -3.0455    0.0000 C   0  0  1  0  0  0  0  0  0  0  0  0
    5.1350   -0.0455    0.0000 C   0  0  2  0  0  0  0  0  0  0  0  0
    4.2690    0.4545    0.0000 C   0  0  1  0  0  0  0  0  0  0  0  0
    6.0010   -4.5455    0.0000 C   0  0  2  0  0  0  0  0  0  0  0  0
    4.2690    1.4545    0.0000 C   0  0  2  0  0  0  0  0  0  0  0  0
    6.0010    1.4545    0.0000 C   0  0  1  0  0  0  0  0  0  0  0  0
    5.1350    1.9545    0.0000 C   0  0  1  0  0  0  0  0  0  0  0  0
    6.0010   -5.5455    0.0000 C   0  0  1  0  0  0  0  0  0  0  0  0
    5.1350   -6.0455    0.0000 C   0  0  2  0  0  0  0  0  0  0  0  0
    4.2690   -4.5455    0.0000 C   0  0  1  0  0  0  0  0  0  0  0  0
    6.8671    1.9545    0.0000 C   0  0  0  0  0  0  0  0  0  0  0  0
    4.2690   -5.5455    0.0000 C   0  0  1  0  0  0  0  0  0  0  0  0
    3.4030   -4.0455    0.0000 C   0  0  0  0  0  0  0  0  0  0  0  0
   11.9286    1.2205    0.0000 H   0  0  0  0  0  0  0  0  0  0  0  0
   12.9507    1.1586    0.0000 H   0  0  0  0  0  0  0  0  0  0  0  0
   13.7382    1.4193    0.0000 H   0  0  0  0  0  0  0  0  0  0  0  0
   14.2426    2.1205    0.0000 H   0  0  0  0  0  0  0  0  0  0  0  0
   14.2394    2.9500    0.0000 H   0  0  0  0  0  0  0  0  0  0  0  0
   11.7771    4.0007    0.0000 H   0  0  0  0  0  0  0  0  0  0  0  0
    9.6129   -0.1510    0.0000 H   0  0  0  0  0  0  0  0  0  0  0  0
   11.6284   -0.0967    0.0000 H   0  0  0  0  0  0  0  0  0  0  0  0
   12.0169    0.6007    0.0000 H   0  0  0  0  0  0  0  0  0  0  0  0
   11.6361    1.0252    0.0000 H   0  0  0  0  0  0  0  0  0  0  0  0
   12.2584    0.4076    0.0000 H   0  0  0  0  0  0  0  0  0  0  0  0
   12.8760    1.0300    0.0000 H   0  0  0  0  0  0  0  0  0  0  0  0
   10.1167   -0.5259    0.0000 H   0  0  0  0  0  0  0  0  0  0  0  0
   10.9150   -0.5197    0.0000 H   0  0  0  0  0  0  0  0  0  0  0  0
    9.9782    3.3288    0.0000 H   0  0  0  0  0  0  0  0  0  0  0  0
   13.6569    5.0996    0.0000 H   0  0  0  0  0  0  0  0  0  0  0  0
    9.0895    2.5393    0.0000 H   0  0  0  0  0  0  0  0  0  0  0  0
    8.2913    2.5516    0.0000 H   0  0  0  0  0  0  0  0  0  0  0  0
    7.1968    0.7655    0.0000 H   0  0  0  0  0  0  0  0  0  0  0  0
   14.7069    3.6120    0.0000 H   0  0  0  0  0  0  0  0  0  0  0  0
   15.3030    4.2550    0.0000 H   0  0  0  0  0  0  0  0  0  0  0  0
   14.6600    4.8511    0.0000 H   0  0  0  0  0  0  0  0  0  0  0  0
   14.4846    2.7553    0.0000 H   0  0  0  0  0  0  0  0  0  0  0  0
   10.2360    2.5082    0.0000 H   0  0  0  0  0  0  0  0  0  0  0  0
    9.6184    3.1305    0.0000 H   0  0  0  0  0  0  0  0  0  0  0  0
    8.9960    2.5129    0.0000 H   0  0  0  0  0  0  0  0  0  0  0  0
    7.5305    2.1240    0.0000 H   0  0  0  0  0  0  0  0  0  0  0  0
    7.1260    1.4357    0.0000 H   0  0  0  0  0  0  0  0  0  0  0  0
   15.2066    4.3906    0.0000 H   0  0  0  0  0  0  0  0  0  0  0  0
   15.8764    4.8803    0.0000 H   0  0  0  0  0  0  0  0  0  0  0  0
   10.1245    4.1778    0.0000 H   0  0  0  0  0  0  0  0  0  0  0  0
    8.6469   -1.2607    0.0000 H   0  0  0  0  0  0  0  0  0  0  0  0
    9.4956   -1.4811    0.0000 H   0  0  0  0  0  0  0  0  0  0  0  0
    9.7160   -0.6324    0.0000 H   0  0  0  0  0  0  0  0  0  0  0  0
    7.6422   -0.6484    0.0000 H   0  0  0  0  0  0  0  0  0  0  0  0
    7.8756   -1.4936    0.0000 H   0  0  0  0  0  0  0  0  0  0  0  0
    8.7208   -1.2601    0.0000 H   0  0  0  0  0  0  0  0  0  0  0  0
   16.1429    5.7089    0.0000 H   0  0  0  0  0  0  0  0  0  0  0  0
   15.8841    6.4972    0.0000 H   0  0  0  0  0  0  0  0  0  0  0  0
   15.8530    6.9926    0.0000 H   0  0  0  0  0  0  0  0  0  0  0  0
   15.7132    7.8582    0.0000 H   0  0  0  0  0  0  0  0  0  0  0  0
   14.8476    7.7184    0.0000 H   0  0  0  0  0  0  0  0  0  0  0  0
   14.6752    7.7179    0.0000 H   0  0  0  0  0  0  0  0  0  0  0  0
   13.8088    7.8525    0.0000 H   0  0  0  0  0  0  0  0  0  0  0  0
   13.6742    6.9861    0.0000 H   0  0  0  0  0  0  0  0  0  0  0  0
    6.3301   -0.7355    0.0000 H   0  0  0  0  0  0  0  0  0  0  0  0
    6.0010   -0.9255    0.0000 H   0  0  0  0  0  0  0  0  0  0  0  0
    6.0010   -3.1655    0.0000 H   0  0  0  0  0  0  0  0  0  0  0  0
    7.9451   -3.1281    0.0000 H   0  0  0  0  0  0  0  0  0  0  0  0
    8.3437   -2.4379    0.0000 H   0  0  0  0  0  0  0  0  0  0  0  0
    7.4040   -3.3555    0.0000 H   0  0  0  0  0  0  0  0  0  0  0  0
    4.5981   -0.3555    0.0000 H   0  0  0  0  0  0  0  0  0  0  0  0
    4.5981   -2.7355    0.0000 H   0  0  0  0  0  0  0  0  0  0  0  0
    3.7320    0.7645    0.0000 H   0  0  0  0  0  0  0  0  0  0  0  0
    6.0010   -3.9255    0.0000 H   0  0  0  0  0  0  0  0  0  0  0  0
    4.2690    2.0745    0.0000 H   0  0  0  0  0  0  0  0  0  0  0  0
    6.5380    1.1445    0.0000 H   0  0  0  0  0  0  0  0  0  0  0  0
    5.6720    2.2645    0.0000 H   0  0  0  0  0  0  0  0  0  0  0  0
    6.0010   -6.1655    0.0000 H   0  0  0  0  0  0  0  0  0  0  0  0
    2.8660    0.2645    0.0000 H   0  0  0  0  0  0  0  0  0  0  0  0
    4.5981   -6.3555    0.0000 H   0  0  0  0  0  0  0  0  0  0  0  0
    4.2690   -3.9255    0.0000 H   0  0  0  0  0  0  0  0  0  0  0  0
    7.1771    1.4175    0.0000 H   0  0  0  0  0  0  0  0  0  0  0  0
    7.4040    2.2645    0.0000 H   0  0  0  0  0  0  0  0  0  0  0  0
    6.5571    2.4914    0.0000 H   0  0  0  0  0  0  0  0  0  0  0  0
    4.2690   -6.1655    0.0000 H   0  0  0  0  0  0  0  0  0  0  0  0
    3.4030    2.5745    0.0000 H   0  0  0  0  0  0  0  0  0  0  0  0
    4.5981    3.2645    0.0000 H   0  0  0  0  0  0  0  0  0  0  0  0
    7.4040   -5.7355    0.0000 H   0  0  0  0  0  0  0  0  0  0  0  0
    3.8015   -3.5706    0.0000 H   0  0  0  0  0  0  0  0  0  0  0  0
    3.0044   -3.5706    0.0000 H   0  0  0  0  0  0  0  0  0  0  0  0
    5.6720   -7.3555    0.0000 H   0  0  0  0  0  0  0  0  0  0  0  0
    3.4030   -6.6655    0.0000 H   0  0  0  0  0  0  0  0  0  0  0  0
    2.0000   -4.2355    0.0000 H   0  0  0  0  0  0  0  0  0  0  0  0
  1 26  1  0  0  0  0
  1 32  1  0  0  0  0
 22  2  1  6  0  0  0
  2 89  1  0  0  0  0
  3 28  1  0  0  0  0
  3 97  1  0  0  0  0
  4 37  1  0  0  0  0
  4 46  1  0  0  0  0
  5 32  2  0  0  0  0
  6 39  1  0  0  0  0
 50  6  1  6  0  0  0
  7 50  1  0  0  0  0
  7 53  1  0  0  0  0
 51  8  1  1  0  0  0
 55  8  1  1  0  0  0
 52  9  1  6  0  0  0
  9119  1  0  0  0  0
 54 10  1  1  0  0  0
 57 10  1  1  0  0  0
 11 55  1  0  0  0  0
 11 59  1  0  0  0  0
 12 57  1  0  0  0  0
 12 63  1  0  0  0  0
 56 13  1  6  0  0  0
 13126  1  0  0  0  0
 58 14  1  1  0  0  0
 14133  1  0  0  0  0
 60 15  1  6  0  0  0
 15134  1  0  0  0  0
 61 16  1  6  0  0  0
 16135  1  0  0  0  0
 62 17  1  1  0  0  0
 17138  1  0  0  0  0
 65 18  1  6  0  0  0
 18139  1  0  0  0  0
 19 66  1  0  0  0  0
 19140  1  0  0  0  0
 20 21  1  0  0  0  0
 20 22  1  0  0  0  0
 20 28  1  0  0  0  0
 20 32  1  0  0  0  0
 21 23  1  0  0  0  0
 21 24  1  0  0  0  0
 21 33  1  6  0  0  0
 22 25  1  0  0  0  0
 22 26  1  0  0  0  0
 23 29  1  0  0  0  0
 23 31  1  0  0  0  0
 23 67  1  0  0  0  0
 24 25  1  0  0  0  0
 24 68  1  0  0  0  0
 24 69  1  0  0  0  0
 25 70  1  0  0  0  0
 25 71  1  0  0  0  0
 26 37  1  0  0  0  0
 26 40  1  6  0  0  0
 27 29  1  0  0  0  0
 27 30  1  0  0  0  0
 27 38  1  0  0  0  0
 27 41  1  1  0  0  0
 28 35  1  0  0  0  0
 28 72  1  0  0  0  0
 29 35  2  0  0  0  0
 30 34  1  0  0  0  0
 30 36  1  0  0  0  0
 30 73  1  0  0  0  0
 31 34  1  0  0  0  0
 31 74  1  0  0  0  0
 31 75  1  0  0  0  0
 33 76  1  0  0  0  0
 33 77  1  0  0  0  0
 33 78  1  0  0  0  0
 34 79  1  0  0  0  0
 34 80  1  0  0  0  0
 35 81  1  0  0  0  0
 36 39  1  0  0  0  0
 36 44  1  0  0  0  0
 36 45  1  0  0  0  0
 37 43  1  0  0  0  0
 37 82  1  0  0  0  0
 38 42  1  0  0  0  0
 38 83  1  0  0  0  0
 38 84  1  0  0  0  0
 39 42  1  0  0  0  0
 39 85  1  0  0  0  0
 40 86  1  0  0  0  0
 40 87  1  0  0  0  0
 40 88  1  0  0  0  0
 41 90  1  0  0  0  0
 41 91  1  0  0  0  0
 41 92  1  0  0  0  0
 42 93  1  0  0  0  0
 42 94  1  0  0  0  0
 43 47  1  0  0  0  0
 43 95  1  0  0  0  0
 43 96  1  0  0  0  0
 44 98  1  0  0  0  0
 44 99  1  0  0  0  0
 44100  1  0  0  0  0
 45101  1  0  0  0  0
 45102  1  0  0  0  0
 45103  1  0  0  0  0
 46 47  1  0  0  0  0
 46 48  1  0  0  0  0
 46 49  1  0  0  0  0
 47104  1  0  0  0  0
 47105  1  0  0  0  0
 48106  1  0  0  0  0
 48107  1  0  0  0  0
 48108  1  0  0  0  0
 49109  1  0  0  0  0
 49110  1  0  0  0  0
 49111  1  0  0  0  0
 50 51  1  0  0  0  0
 50112  1  0  0  0  0
 51 52  1  0  0  0  0
 51113  1  0  0  0  0
 52 54  1  0  0  0  0
 52114  1  0  0  0  0
 53 54  1  0  0  0  0
 53115  1  0  0  0  0
 53116  1  0  0  0  0
 54117  1  0  0  0  0
 55 56  1  0  0  0  0
 55118  1  0  0  0  0
 56 58  1  0  0  0  0
 56120  1  0  0  0  0
 57 61  1  0  0  0  0
 57121  1  0  0  0  0
 58 60  1  0  0  0  0
 58122  1  0  0  0  0
 59 60  1  0  0  0  0
 59 64  1  1  0  0  0
 59123  1  0  0  0  0
 60124  1  0  0  0  0
 61 62  1  0  0  0  0
 61125  1  0  0  0  0
 62 65  1  0  0  0  0
 62127  1  0  0  0  0
 63 65  1  0  0  0  0
 63 66  1  1  0  0  0
 63128  1  0  0  0  0
 64129  1  0  0  0  0
 64130  1  0  0  0  0
 64131  1  0  0  0  0
 65132  1  0  0  0  0
 66136  1  0  0  0  0
 66137  1  0  0  0  0
M  END
> <PUBCHEM_COMPOUND_CID>
503600
> <PUBCHEM_COMPOUND_CANONICALIZED>
1
> <PUBCHEM_CACTVS_COMPLEXITY>
1880
> <PUBCHEM_CACTVS_HBOND_ACCEPTOR>
19
> <PUBCHEM_CACTVS_HBOND_DONOR>
10
> <PUBCHEM_CACTVS_ROTATABLE_BOND>
8
> <PUBCHEM_CACTVS_SUBSKEYS>
AAADcfB8PgAAAAAAAAAAAAAAAAAAAaJEAAA0aJECAAASAEDAAAAAGgAACAAAD1SwgAMCCAAABgCIAiDSCAAAAAAgAAAACAEAAAgRFBYAAQAiUAAFoAAPEAPK7PzPgAAAAAAAAADAAAYAADAAAYAADAAAAA==
> <PUBCHEM_IUPAC_OPENEYE_NAME>
(2S,5R,6S,10S,13S)-6-(5,5-dimethyltetrahydrofuran-2-yl)-5,10-dihydroxy-16-[(2S,3R,4S,5R)-4-hydroxy-5-[(2S,3R,4S,5S,6R)-3,4,5-trihydroxy-6-(hydroxymethyl)tetrahydropyran-2-yl]oxy-3-[(2S,3R,4S,5S,6R)-3,4,5-trihydroxy-6-methyl-tetrahydropyran-2-yl]oxy-tetrahydropyran-2-yl]oxy-2,6,13,17,17-pentamethyl-7-oxapentacyclo[10.8.0.02,9.05,9.013,18]icos-11-en-8-one
> <PUBCHEM_IUPAC_CAS_NAME>
(2S,5R,6S,10S,13S)-6-(5,5-dimethyl-2-oxolanyl)-5,10-dihydroxy-16-[[(2S,3R,4S,5R)-4-hydroxy-5-[[(2S,3R,4S,5S,6R)-3,4,5-trihydroxy-6-(hydroxymethyl)-2-oxanyl]oxy]-3-[[(2S,3R,4S,5S,6R)-3,4,5-trihydroxy-6-methyl-2-oxanyl]oxy]-2-oxanyl]oxy]-2,6,13,17,17-pentamethyl-7-oxapentacyclo[10.8.0.02,9.05,9.013,18]eicos-11-en-8-one
> <PUBCHEM_IUPAC_NAME_MARKUP>
(2<I>S</I>,5<I>R</I>,6<I>S</I>,10<I>S</I>,13<I>S</I>)-6-(5,5-dimethyloxolan-2-yl)-5,10-dihydroxy-16-[(2<I>S</I>,3<I>R</I>,4<I>S</I>,5<I>R</I>)-4-hydroxy-5-[(2<I>S</I>,3<I>R</I>,4<I>S</I>,5<I>S</I>,6<I>R</I>)-3,4,5-trihydroxy-6-(hydroxymethyl)oxan-2-yl]oxy-3-[(2<I>S</I>,3<I>R</I>,4<I>S</I>,5<I>S</I>,6<I>R</I>)-3,4,5-trihydroxy-6-methyloxan-2-yl]oxyoxan-2-yl]oxy-2,6,13,17,17-pentamethyl-7-oxapentacyclo[10.8.0.0<SUP>2,9</SUP>.0<SUP>5,9</SUP>.0<SUP>13,18</SUP>]icos-11-en-8-one
> <PUBCHEM_IUPAC_NAME>
(2S,5R,6S,10S,13S)-6-(5,5-dimethyloxolan-2-yl)-5,10-dihydroxy-16-[(2S,3R,4S,5R)-4-hydroxy-5-[(2S,3R,4S,5S,6R)-3,4,5-trihydroxy-6-(hydroxymethyl)oxan-2-yl]oxy-3-[(2S,3R,4S,5S,6R)-3,4,5-trihydroxy-6-methyloxan-2-yl]oxyoxan-2-yl]oxy-2,6,13,17,17-pentamethyl-7-oxapentacyclo[10.8.0.02,9.05,9.013,18]icos-11-en-8-one
> <PUBCHEM_IUPAC_SYSTEMATIC_NAME>
(2S,5R,6S,10S,13S)-6-(5,5-dimethyloxolan-2-yl)-16-[(2S,3R,4S,5R)-5-[(2S,3R,4S,5S,6R)-6-(hydroxymethyl)-3,4,5-tris(oxidanyl)oxan-2-yl]oxy-3-[(2S,3R,4S,5S,6R)-6-methyl-3,4,5-tris(oxidanyl)oxan-2-yl]oxy-4-oxidanyl-oxan-2-yl]oxy-2,6,13,17,17-pentamethyl-5,10-bis(oxidanyl)-7-oxapentacyclo[10.8.0.02,9.05,9.013,18]icos-11-en-8-one
> <PUBCHEM_IUPAC_TRADITIONAL_NAME>
(2S,5R,6S,10S,13S)-6-(5,5-dimethyltetrahydrofuran-2-yl)-5,10-dihydroxy-16-[(2S,3R,4S,5R)-4-hydroxy-5-[(2S,3R,4S,5S,6R)-3,4,5-trihydroxy-6-methylol-tetrahydropyran-2-yl]oxy-3-[(2S,3R,4S,5S,6R)-3,4,5-trihydroxy-6-methyl-tetrahydropyran-2-yl]oxy-tetrahydropyran-2-yl]oxy-2,6,13,17,17-pentamethyl-7-oxapentacyclo[10.8.0.02,9.05,9.013,18]eicos-11-en-8-one
> <PUBCHEM_IUPAC_INCHI>
InChI=1S/C47H74O19/c1-20-29(50)32(53)34(55)37(60-20)64-36-31(52)24(62-38-35(56)33(54)30(51)23(18-48)61-38)19-59-39(36)63-27-12-14-43(6)22-17-26(49)47-40(57)66-45(8,28-11-13-41(2,3)65-28)46(47,58)16-15-44(47,7)21(22)9-10-25(43)42(27,4)5/h17,20-21,23-39,48-56,58H,9-16,18-19H2,1-8H3/t20-,21?,23-,24-,25?,26+,27?,28?,29-,30-,31+,32+,33+,34-,35-,36-,37+,38+,39+,43-,44+,45+,46+,47?/m1/s1
> <PUBCHEM_IUPAC_INCHIKEY>
NXTLSYMVSDURIH-MBDDNGAASA-N
> <PUBCHEM_XLOGP3_AA>
-0.8
> <PUBCHEM_EXACT_MASS>
942.48243013
> <PUBCHEM_MOLECULAR_FORMULA>
C47H74O19
> <PUBCHEM_MOLECULAR_WEIGHT>
943.1
> <PUBCHEM_OPENEYE_CAN_SMILES>
CC1C(C(C(C(O1)OC2C(C(COC2OC3CCC4(C(C3(C)C)CCC5C4=CC(C67C5(CCC6(C(OC7=O)(C)C8CCC(O8)(C)C)O)C)O)C)OC9C(C(C(C(O9)CO)O)O)O)O)O)O)O
> <PUBCHEM_OPENEYE_ISO_SMILES>
C[C@@H]1[C@H]([C@@H]([C@H]([C@@H](O1)O[C@@H]2[C@H]([C@@H](CO[C@H]2OC3CC[C@]4(C(C3(C)C)CCC5C4=C[C@@H](C67[C@]5(CC[C@@]6([C@](OC7=O)(C)C8CCC(O8)(C)C)O)C)O)C)O[C@H]9[C@@H]([C@H]([C@@H]([C@H](O9)CO)O)O)O)O)O)O)O
> <PUBCHEM_CACTVS_TPSA>
293
> <PUBCHEM_MONOISOTOPIC_WEIGHT>
942.48243013
> <PUBCHEM_TOTAL_CHARGE>
0
> <PUBCHEM_HEAVY_ATOM_COUNT>
66
> <PUBCHEM_ATOM_DEF_STEREO_COUNT>
19
> <PUBCHEM_ATOM_UDEF_STEREO_COUNT>
5
> <PUBCHEM_BOND_DEF_STEREO_COUNT>
0
> <PUBCHEM_BOND_UDEF_STEREO_COUNT>
0
> <PUBCHEM_ISOTOPIC_ATOM_COUNT>
0
> <PUBCHEM_COMPONENT_COUNT>
1
> <PUBCHEM_CACTVS_TAUTO_COUNT>
-1
> <PUBCHEM_COORDINATE_TYPE>
1
5
255
> <PUBCHEM_BONDANNOTATIONS>
54  10  5
57  10  5
56  13  6
58  14  5
60  15  6
61  16  6
62  17  5
65  18  6
22  2  6
20  28  3
21  33  6
23  31  3
26  40  6
27  41  5
30  34  3
37  43  3
59  64  5
39  6  3
50  6  6
63  66  5
51  8  5
55  8  5
52  9  6
$$$$
