503732
  -OEChem-10302200282D
 74 77  0     1  0  0  0  0  0999 V2000
    6.8671   -0.1157    0.0000 O   0  0  0  0  0  0  0  0  0  0  0  0
    4.2690   -2.6157    0.0000 O   0  0  0  0  0  0  0  0  0  0  0  0
    6.0010   -2.6157    0.0000 O   0  0  0  0  0  0  0  0  0  0  0  0
    7.7331   -2.6157    0.0000 O   0  0  0  0  0  0  0  0  0  0  0  0
    7.7331    1.3843    0.0000 O   0  0  0  0  0  0  0  0  0  0  0  0
    9.4651   -1.6157    0.0000 O   0  0  0  0  0  0  0  0  0  0  0  0
    9.4651    0.3843    0.0000 O   0  0  0  0  0  0  0  0  0  0  0  0
    6.0010   -4.6157    0.0000 O   0  0  0  0  0  0  0  0  0  0  0  0
    4.2690   -5.6157    0.0000 O   0  0  0  0  0  0  0  0  0  0  0  0
    2.5369   -4.6157    0.0000 O   0  0  0  0  0  0  0  0  0  0  0  0
    2.5369   -1.6157    0.0000 O   0  0  0  0  0  0  0  0  0  0  0  0
    4.1934    1.4116    0.0000 O   0  0  0  0  0  0  0  0  0  0  0  0
    8.5950    2.9059    0.0000 O   0  0  0  0  0  0  0  0  0  0  0  0
    9.4783    4.3958    0.0000 O   0  0  0  0  0  0  0  0  0  0  0  0
    6.8671   -1.1157    0.0000 C   0  0  1  0  0  0  0  0  0  0  0  0
    7.7331   -1.6157    0.0000 C   0  0  2  0  0  0  0  0  0  0  0  0
    8.5991   -1.1157    0.0000 C   0  0  1  0  0  0  0  0  0  0  0  0
    8.5991   -0.1157    0.0000 C   0  0  2  0  0  0  0  0  0  0  0  0
    5.1350   -4.1157    0.0000 C   0  0  1  0  0  0  0  0  0  0  0  0
    5.1350   -3.1157    0.0000 C   0  0  1  0  0  0  0  0  0  0  0  0
    4.2690   -4.6157    0.0000 C   0  0  2  0  0  0  0  0  0  0  0  0
    3.4030   -4.1157    0.0000 C   0  0  1  0  0  0  0  0  0  0  0  0
    3.4030   -3.1157    0.0000 C   0  0  1  0  0  0  0  0  0  0  0  0
    7.7331    0.3843    0.0000 C   0  0  1  0  0  0  0  0  0  0  0  0
    6.0010   -1.6157    0.0000 C   0  0  0  0  0  0  0  0  0  0  0  0
    2.5369   -2.6157    0.0000 C   0  0  0  0  0  0  0  0  0  0  0  0
    6.8671    1.8843    0.0000 C   0  0  0  0  0  0  0  0  0  0  0  0
    6.8630    2.9259    0.0000 C   0  0  0  0  0  0  0  0  0  0  0  0
    5.9630    1.3670    0.0000 C   0  0  0  0  0  0  0  0  0  0  0  0
    6.0029    3.4359    0.0000 C   0  0  0  0  0  0  0  0  0  0  0  0
    7.7348    3.4159    0.0000 C   0  0  0  0  0  0  0  0  0  0  0  0
    5.0670    1.8982    0.0000 C   0  0  0  0  0  0  0  0  0  0  0  0
    5.0871    2.9396    0.0000 C   0  0  0  0  0  0  0  0  0  0  0  0
    7.7464    4.4158    0.0000 C   0  0  0  0  0  0  0  0  0  0  0  0
    6.0144    4.4358    0.0000 C   0  0  0  0  0  0  0  0  0  0  0  0
    6.8862    4.9258    0.0000 C   0  0  0  0  0  0  0  0  0  0  0  0
    6.8977    5.9257    0.0000 C   0  0  0  0  0  0  0  0  0  0  0  0
    8.6181    4.9058    0.0000 C   0  0  0  0  0  0  0  0  0  0  0  0
    8.6297    5.9057    0.0000 C   0  0  0  0  0  0  0  0  0  0  0  0
    3.3351    1.9249    0.0000 C   0  0  0  0  0  0  0  0  0  0  0  0
    6.3301   -0.8057    0.0000 H   0  0  0  0  0  0  0  0  0  0  0  0
    8.2700   -1.9257    0.0000 H   0  0  0  0  0  0  0  0  0  0  0  0
    9.1360   -0.8057    0.0000 H   0  0  0  0  0  0  0  0  0  0  0  0
    8.5991    0.5043    0.0000 H   0  0  0  0  0  0  0  0  0  0  0  0
    5.1350   -4.7357    0.0000 H   0  0  0  0  0  0  0  0  0  0  0  0
    5.1350   -2.4957    0.0000 H   0  0  0  0  0  0  0  0  0  0  0  0
    3.7320   -4.9257    0.0000 H   0  0  0  0  0  0  0  0  0  0  0  0
    3.4030   -4.7357    0.0000 H   0  0  0  0  0  0  0  0  0  0  0  0
    3.4030   -2.4957    0.0000 H   0  0  0  0  0  0  0  0  0  0  0  0
    7.1962    0.6943    0.0000 H   0  0  0  0  0  0  0  0  0  0  0  0
    5.7890   -1.0331    0.0000 H   0  0  0  0  0  0  0  0  0  0  0  0
    5.3905   -1.7234    0.0000 H   0  0  0  0  0  0  0  0  0  0  0  0
    1.9264   -2.5080    0.0000 H   0  0  0  0  0  0  0  0  0  0  0  0
    2.3249   -3.1983    0.0000 H   0  0  0  0  0  0  0  0  0  0  0  0
    8.2700   -2.9257    0.0000 H   0  0  0  0  0  0  0  0  0  0  0  0
   10.0021   -1.3057    0.0000 H   0  0  0  0  0  0  0  0  0  0  0  0
    9.4651    1.0043    0.0000 H   0  0  0  0  0  0  0  0  0  0  0  0
    6.5380   -4.3057    0.0000 H   0  0  0  0  0  0  0  0  0  0  0  0
    3.7320   -5.9257    0.0000 H   0  0  0  0  0  0  0  0  0  0  0  0
    2.0000   -4.3057    0.0000 H   0  0  0  0  0  0  0  0  0  0  0  0
    2.0000   -1.3057    0.0000 H   0  0  0  0  0  0  0  0  0  0  0  0
    5.9582    0.7470    0.0000 H   0  0  0  0  0  0  0  0  0  0  0  0
    4.5574    3.2619    0.0000 H   0  0  0  0  0  0  0  0  0  0  0  0
    5.4811    4.7520    0.0000 H   0  0  0  0  0  0  0  0  0  0  0  0
    7.5177    5.9185    0.0000 H   0  0  0  0  0  0  0  0  0  0  0  0
    6.9049    6.5457    0.0000 H   0  0  0  0  0  0  0  0  0  0  0  0
    6.2778    5.9329    0.0000 H   0  0  0  0  0  0  0  0  0  0  0  0
    9.1355    3.2096    0.0000 H   0  0  0  0  0  0  0  0  0  0  0  0
    9.2496    5.8985    0.0000 H   0  0  0  0  0  0  0  0  0  0  0  0
    8.6368    6.5256    0.0000 H   0  0  0  0  0  0  0  0  0  0  0  0
    8.0097    5.9128    0.0000 H   0  0  0  0  0  0  0  0  0  0  0  0
    3.6534    2.4570    0.0000 H   0  0  0  0  0  0  0  0  0  0  0  0
    2.8030    2.2431    0.0000 H   0  0  0  0  0  0  0  0  0  0  0  0
    3.0169    1.3928    0.0000 H   0  0  0  0  0  0  0  0  0  0  0  0
  1 15  1  0  0  0  0
  1 24  1  0  0  0  0
  2 20  1  0  0  0  0
  2 23  1  0  0  0  0
 20  3  1  1  0  0  0
  3 25  1  0  0  0  0
 16  4  1  6  0  0  0
  4 55  1  0  0  0  0
 24  5  1  1  0  0  0
  5 27  1  0  0  0  0
 17  6  1  1  0  0  0
  6 56  1  0  0  0  0
 18  7  1  6  0  0  0
  7 57  1  0  0  0  0
 19  8  1  6  0  0  0
  8 58  1  0  0  0  0
 21  9  1  1  0  0  0
  9 59  1  0  0  0  0
 22 10  1  6  0  0  0
 10 60  1  0  0  0  0
 11 26  1  0  0  0  0
 11 61  1  0  0  0  0
 12 32  1  0  0  0  0
 12 40  1  0  0  0  0
 13 31  1  0  0  0  0
 13 68  1  0  0  0  0
 14 38  2  0  0  0  0
 15 16  1  0  0  0  0
 15 25  1  1  0  0  0
 15 41  1  0  0  0  0
 16 17  1  0  0  0  0
 16 42  1  0  0  0  0
 17 18  1  0  0  0  0
 17 43  1  0  0  0  0
 18 24  1  0  0  0  0
 18 44  1  0  0  0  0
 19 20  1  0  0  0  0
 19 21  1  0  0  0  0
 19 45  1  0  0  0  0
 20 46  1  0  0  0  0
 21 22  1  0  0  0  0
 21 47  1  0  0  0  0
 22 23  1  0  0  0  0
 22 48  1  0  0  0  0
 23 26  1  1  0  0  0
 23 49  1  0  0  0  0
 24 50  1  0  0  0  0
 25 51  1  0  0  0  0
 25 52  1  0  0  0  0
 26 53  1  0  0  0  0
 26 54  1  0  0  0  0
 27 28  2  0  0  0  0
 27 29  1  0  0  0  0
 28 30  1  0  0  0  0
 28 31  1  0  0  0  0
 29 32  2  0  0  0  0
 29 62  1  0  0  0  0
 30 33  2  0  0  0  0
 30 35  1  0  0  0  0
 31 34  2  0  0  0  0
 32 33  1  0  0  0  0
 33 63  1  0  0  0  0
 34 36  1  0  0  0  0
 34 38  1  0  0  0  0
 35 36  2  0  0  0  0
 35 64  1  0  0  0  0
 36 37  1  0  0  0  0
 37 65  1  0  0  0  0
 37 66  1  0  0  0  0
 37 67  1  0  0  0  0
 38 39  1  0  0  0  0
 39 69  1  0  0  0  0
 39 70  1  0  0  0  0
 39 71  1  0  0  0  0
 40 72  1  0  0  0  0
 40 73  1  0  0  0  0
 40 74  1  0  0  0  0
M  END
> <PUBCHEM_COMPOUND_CID>
503732
> <PUBCHEM_COMPOUND_CANONICALIZED>
1
> <PUBCHEM_CACTVS_COMPLEXITY>
846
> <PUBCHEM_CACTVS_HBOND_ACCEPTOR>
14
> <PUBCHEM_CACTVS_HBOND_DONOR>
8
> <PUBCHEM_CACTVS_ROTATABLE_BOND>
8
> <PUBCHEM_CACTVS_SUBSKEYS>
AAADcfB4PAAAAAAAAAAAAAAAAAAAAAAAAAA0aIEAAAAAAADBUAAAGgAACAAADBSwmAMyDsAABgCIAqBSAAACCAAkIAAAiAEGCMgdNzaGNRqieWCl4BUPuQfI7PzO4AADCAAYAADAAAYQADAAAAAAAAAAAA==
> <PUBCHEM_IUPAC_OPENEYE_NAME>
1-[1-hydroxy-6-methoxy-3-methyl-8-[(2S,3R,4S,5S,6R)-3,4,5-trihydroxy-6-[[(2R,3R,4S,5S,6R)-3,4,5-trihydroxy-6-(hydroxymethyl)tetrahydropyran-2-yl]oxymethyl]tetrahydropyran-2-yl]oxy-2-naphthyl]ethanone
> <PUBCHEM_IUPAC_CAS_NAME>
1-[1-hydroxy-6-methoxy-3-methyl-8-[[(2S,3R,4S,5S,6R)-3,4,5-trihydroxy-6-[[(2R,3R,4S,5S,6R)-3,4,5-trihydroxy-6-(hydroxymethyl)-2-oxanyl]oxymethyl]-2-oxanyl]oxy]-2-naphthalenyl]ethanone
> <PUBCHEM_IUPAC_NAME_MARKUP>
1-[1-hydroxy-6-methoxy-3-methyl-8-[(2<I>S</I>,3<I>R</I>,4<I>S</I>,5<I>S</I>,6<I>R</I>)-3,4,5-trihydroxy-6-[[(2<I>R</I>,3<I>R</I>,4<I>S</I>,5<I>S</I>,6<I>R</I>)-3,4,5-trihydroxy-6-(hydroxymethyl)oxan-2-yl]oxymethyl]oxan-2-yl]oxynaphthalen-2-yl]ethanone
> <PUBCHEM_IUPAC_NAME>
1-[1-hydroxy-6-methoxy-3-methyl-8-[(2S,3R,4S,5S,6R)-3,4,5-trihydroxy-6-[[(2R,3R,4S,5S,6R)-3,4,5-trihydroxy-6-(hydroxymethyl)oxan-2-yl]oxymethyl]oxan-2-yl]oxynaphthalen-2-yl]ethanone
> <PUBCHEM_IUPAC_SYSTEMATIC_NAME>
1-[8-[(2S,3R,4S,5S,6R)-6-[[(2R,3R,4S,5S,6R)-6-(hydroxymethyl)-3,4,5-tris(oxidanyl)oxan-2-yl]oxymethyl]-3,4,5-tris(oxidanyl)oxan-2-yl]oxy-6-methoxy-3-methyl-1-oxidanyl-naphthalen-2-yl]ethanone
> <PUBCHEM_IUPAC_TRADITIONAL_NAME>
1-[1-hydroxy-6-methoxy-3-methyl-8-[(2S,3R,4S,5S,6R)-3,4,5-trihydroxy-6-[[(2R,3R,4S,5S,6R)-3,4,5-trihydroxy-6-methylol-tetrahydropyran-2-yl]oxymethyl]tetrahydropyran-2-yl]oxy-2-naphthyl]ethanone
> <PUBCHEM_IUPAC_INCHI>
InChI=1S/C26H34O14/c1-9-4-11-5-12(36-3)6-13(17(11)20(31)16(9)10(2)28)38-26-24(35)22(33)19(30)15(40-26)8-37-25-23(34)21(32)18(29)14(7-27)39-25/h4-6,14-15,18-19,21-27,29-35H,7-8H2,1-3H3/t14-,15-,18-,19-,21+,22+,23-,24-,25-,26-/m1/s1
> <PUBCHEM_IUPAC_INCHIKEY>
XCIHPNCERQKEMU-IFEXPISBSA-N
> <PUBCHEM_XLOGP3_AA>
-0.9
> <PUBCHEM_EXACT_MASS>
570.19485575
> <PUBCHEM_MOLECULAR_FORMULA>
C26H34O14
> <PUBCHEM_MOLECULAR_WEIGHT>
570.5
> <PUBCHEM_OPENEYE_CAN_SMILES>
CC1=CC2=CC(=CC(=C2C(=C1C(=O)C)O)OC3C(C(C(C(O3)COC4C(C(C(C(O4)CO)O)O)O)O)O)O)OC
> <PUBCHEM_OPENEYE_ISO_SMILES>
CC1=CC2=CC(=CC(=C2C(=C1C(=O)C)O)O[C@H]3[C@@H]([C@H]([C@@H]([C@H](O3)CO[C@H]4[C@@H]([C@H]([C@@H]([C@H](O4)CO)O)O)O)O)O)O)OC
> <PUBCHEM_CACTVS_TPSA>
225
> <PUBCHEM_MONOISOTOPIC_WEIGHT>
570.19485575
> <PUBCHEM_TOTAL_CHARGE>
0
> <PUBCHEM_HEAVY_ATOM_COUNT>
40
> <PUBCHEM_ATOM_DEF_STEREO_COUNT>
10
> <PUBCHEM_ATOM_UDEF_STEREO_COUNT>
0
> <PUBCHEM_BOND_DEF_STEREO_COUNT>
0
> <PUBCHEM_BOND_UDEF_STEREO_COUNT>
0
> <PUBCHEM_ISOTOPIC_ATOM_COUNT>
0
> <PUBCHEM_COMPONENT_COUNT>
1
> <PUBCHEM_CACTVS_TAUTO_COUNT>
-1
> <PUBCHEM_COORDINATE_TYPE>
1
5
255
> <PUBCHEM_BONDANNOTATIONS>
22  10  6
15  25  5
23  26  5
27  28  8
27  29  8
28  30  8
28  31  8
29  32  8
20  3  5
30  33  8
30  35  8
31  34  8
32  33  8
34  36  8
35  36  8
16  4  6
24  5  5
17  6  5
18  7  6
19  8  6
21  9  5
$$$$
