503715
  -OEChem-10302200282D
 58 60  0     1  0  0  0  0  0999 V2000
    9.2928   -0.4050    0.0000 P   0  0  3  0  0  0  0  0  0  0  0  0
    6.6472    1.1883    0.0000 O   0  0  0  0  0  0  0  0  0  0  0  0
   11.8909   -1.9050    0.0000 O   0  0  0  0  0  0  0  0  0  0  0  0
    8.4268    0.0950    0.0000 O   0  0  0  0  0  0  0  0  0  0  0  0
   10.1588   -3.9050    0.0000 O   0  0  0  0  0  0  0  0  0  0  0  0
   10.1588   -0.9050    0.0000 O   0  0  0  0  0  0  0  0  0  0  0  0
   11.8909   -4.9050    0.0000 O   0  0  0  0  0  0  0  0  0  0  0  0
   13.6229   -3.9050    0.0000 O   0  0  0  0  0  0  0  0  0  0  0  0
   13.6229   -1.9050    0.0000 O   0  0  0  0  0  0  0  0  0  0  0  0
    9.7928    0.4611    0.0000 O   0  0  0  0  0  0  0  0  0  0  0  0
    8.7928   -1.2710    0.0000 O   0  0  0  0  0  0  0  0  0  0  0  0
    4.8025    3.5495    0.0000 O   0  0  0  0  0  0  0  0  0  0  0  0
    2.0000    1.5133    0.0000 O   0  0  0  0  0  0  0  0  0  0  0  0
    4.9836    1.8269    0.0000 N   0  0  0  0  0  0  0  0  0  0  0  0
    8.1994    3.2587    0.0000 N   0  0  0  0  0  0  0  0  0  0  0  0
    3.4013    2.5314    0.0000 N   0  0  0  0  0  0  0  0  0  0  0  0
    7.9915    4.2368    0.0000 N   0  3  0  0  0  0  0  0  0  0  0  0
    7.7836    5.2150    0.0000 N   0  5  0  0  0  0  0  0  0  0  0  0
    7.5608    1.5950    0.0000 C   0  0  1  0  0  0  0  0  0  0  0  0
    7.4562    2.5896    0.0000 C   0  0  2  0  0  0  0  0  0  0  0  0
    6.4781    2.7975    0.0000 C   0  0  0  0  0  0  0  0  0  0  0  0
    5.9781    1.9314    0.0000 C   0  0  1  0  0  0  0  0  0  0  0  0
   11.0249   -3.4050    0.0000 C   0  0  2  0  0  0  0  0  0  0  0  0
   11.0249   -2.4050    0.0000 C   0  0  1  0  0  0  0  0  0  0  0  0
   11.8909   -3.9050    0.0000 C   0  0  1  0  0  0  0  0  0  0  0  0
   12.7569   -3.4050    0.0000 C   0  0  2  0  0  0  0  0  0  0  0  0
   12.7569   -2.4050    0.0000 C   0  0  3  0  0  0  0  0  0  0  0  0
    8.4268    1.0950    0.0000 C   0  0  0  0  0  0  0  0  0  0  0  0
   10.1588   -1.9050    0.0000 C   0  0  0  0  0  0  0  0  0  0  0  0
    4.5768    0.9134    0.0000 C   0  0  0  0  0  0  0  0  0  0  0  0
    4.3958    2.6359    0.0000 C   0  0  0  0  0  0  0  0  0  0  0  0
    3.5823    0.8088    0.0000 C   0  0  0  0  0  0  0  0  0  0  0  0
    2.9945    1.6178    0.0000 C   0  0  0  0  0  0  0  0  0  0  0  0
    3.1756   -0.1047    0.0000 C   0  0  0  0  0  0  0  0  0  0  0  0
    7.5283    0.9759    0.0000 H   0  0  0  0  0  0  0  0  0  0  0  0
    8.0351    2.3674    0.0000 H   0  0  0  0  0  0  0  0  0  0  0  0
    6.6697    3.3871    0.0000 H   0  0  0  0  0  0  0  0  0  0  0  0
    5.9117    3.0496    0.0000 H   0  0  0  0  0  0  0  0  0  0  0  0
    5.7559    1.3526    0.0000 H   0  0  0  0  0  0  0  0  0  0  0  0
   10.4879   -3.0950    0.0000 H   0  0  0  0  0  0  0  0  0  0  0  0
   11.0249   -1.7850    0.0000 H   0  0  0  0  0  0  0  0  0  0  0  0
   11.3540   -4.2150    0.0000 H   0  0  0  0  0  0  0  0  0  0  0  0
   12.7569   -4.0250    0.0000 H   0  0  0  0  0  0  0  0  0  0  0  0
   13.2939   -2.7150    0.0000 H   0  0  0  0  0  0  0  0  0  0  0  0
    9.0374    0.9874    0.0000 H   0  0  0  0  0  0  0  0  0  0  0  0
    8.6388    1.6776    0.0000 H   0  0  0  0  0  0  0  0  0  0  0  0
    9.5483   -1.7973    0.0000 H   0  0  0  0  0  0  0  0  0  0  0  0
    9.9468   -2.4876    0.0000 H   0  0  0  0  0  0  0  0  0  0  0  0
    9.6219   -3.5950    0.0000 H   0  0  0  0  0  0  0  0  0  0  0  0
    4.9413    0.4118    0.0000 H   0  0  0  0  0  0  0  0  0  0  0  0
   12.4278   -5.2150    0.0000 H   0  0  0  0  0  0  0  0  0  0  0  0
   14.1599   -3.5950    0.0000 H   0  0  0  0  0  0  0  0  0  0  0  0
   13.6229   -1.2850    0.0000 H   0  0  0  0  0  0  0  0  0  0  0  0
    3.0368    3.0330    0.0000 H   0  0  0  0  0  0  0  0  0  0  0  0
    2.6092    0.1475    0.0000 H   0  0  0  0  0  0  0  0  0  0  0  0
    2.9234   -0.6711    0.0000 H   0  0  0  0  0  0  0  0  0  0  0  0
    3.7420   -0.3569    0.0000 H   0  0  0  0  0  0  0  0  0  0  0  0
   10.4128    0.4611    0.0000 H   0  0  0  0  0  0  0  0  0  0  0  0
  1  4  1  0  0  0  0
  1  6  1  0  0  0  0
  1 10  1  0  0  0  0
  1 11  2  0  0  0  0
  2 19  1  0  0  0  0
  2 22  1  0  0  0  0
  3 24  1  0  0  0  0
  3 27  1  0  0  0  0
  4 28  1  0  0  0  0
 23  5  1  6  0  0  0
  5 49  1  0  0  0  0
  6 29  1  0  0  0  0
 25  7  1  1  0  0  0
  7 51  1  0  0  0  0
 26  8  1  6  0  0  0
  8 52  1  0  0  0  0
  9 27  1  0  0  0  0
  9 53  1  0  0  0  0
 10 58  1  0  0  0  0
 12 31  2  0  0  0  0
 13 33  2  0  0  0  0
 22 14  1  1  0  0  0
 14 30  1  0  0  0  0
 14 31  1  0  0  0  0
 15 17  2  0  0  0  0
 20 15  1  6  0  0  0
 16 31  1  0  0  0  0
 16 33  1  0  0  0  0
 16 54  1  0  0  0  0
 17 18  2  0  0  0  0
 19 20  1  0  0  0  0
 19 28  1  1  0  0  0
 19 35  1  0  0  0  0
 20 21  1  0  0  0  0
 20 36  1  0  0  0  0
 21 22  1  0  0  0  0
 21 37  1  0  0  0  0
 21 38  1  0  0  0  0
 22 39  1  0  0  0  0
 23 24  1  0  0  0  0
 23 25  1  0  0  0  0
 23 40  1  0  0  0  0
 24 29  1  1  0  0  0
 24 41  1  0  0  0  0
 25 26  1  0  0  0  0
 25 42  1  0  0  0  0
 26 27  1  0  0  0  0
 26 43  1  0  0  0  0
 27 44  1  0  0  0  0
 28 45  1  0  0  0  0
 28 46  1  0  0  0  0
 29 47  1  0  0  0  0
 29 48  1  0  0  0  0
 30 32  2  0  0  0  0
 30 50  1  0  0  0  0
 32 33  1  0  0  0  0
 32 34  1  0  0  0  0
 34 55  1  0  0  0  0
 34 56  1  0  0  0  0
 34 57  1  0  0  0  0
M  CHG  2  17   1  18  -1
M  END
> <PUBCHEM_COMPOUND_CID>
503715
> <PUBCHEM_COMPOUND_CANONICALIZED>
1
> <PUBCHEM_CACTVS_COMPLEXITY>
928
> <PUBCHEM_CACTVS_HBOND_ACCEPTOR>
14
> <PUBCHEM_CACTVS_HBOND_DONOR>
6
> <PUBCHEM_CACTVS_ROTATABLE_BOND>
8
> <PUBCHEM_CACTVS_SUBSKEYS>
AAADceB7vAIAAAAAAAAAAAAAAAAAASAAAAAkQAAAAAAAAAAAAAAAHgAYCCAADDzxgAcDCAPABxCKQgFWUICAAAAAAAAAAAEIAECTEAIAwQAPQAAPByIHAMHwcAYAAAAAAAAAAAAAAAAAAAAAAAAAAAAAAA==
> <PUBCHEM_IUPAC_OPENEYE_NAME>
[(2S,3S,5R)-3-azido-5-(5-methyl-2,4-dioxo-pyrimidin-1-yl)tetrahydrofuran-2-yl]methyl [(2R,3S,4S,5R)-3,4,5,6-tetrahydroxytetrahydropyran-2-yl]methyl hydrogen phosphate
> <PUBCHEM_IUPAC_CAS_NAME>
[(2S,3S,5R)-3-azido-5-(5-methyl-2,4-dioxo-1-pyrimidinyl)-2-oxolanyl]methyl [(2R,3S,4S,5R)-3,4,5,6-tetrahydroxy-2-oxanyl]methyl hydrogen phosphate
> <PUBCHEM_IUPAC_NAME_MARKUP>
[(2<I>S</I>,3<I>S</I>,5<I>R</I>)-3-azido-5-(5-methyl-2,4-dioxopyrimidin-1-yl)oxolan-2-yl]methyl [(2<I>R</I>,3<I>S</I>,4<I>S</I>,5<I>R</I>)-3,4,5,6-tetrahydroxyoxan-2-yl]methyl hydrogen phosphate
> <PUBCHEM_IUPAC_NAME>
[(2S,3S,5R)-3-azido-5-(5-methyl-2,4-dioxopyrimidin-1-yl)oxolan-2-yl]methyl [(2R,3S,4S,5R)-3,4,5,6-tetrahydroxyoxan-2-yl]methyl hydrogen phosphate
> <PUBCHEM_IUPAC_SYSTEMATIC_NAME>
[(2S,3S,5R)-3-azido-5-[5-methyl-2,4-bis(oxidanylidene)pyrimidin-1-yl]oxolan-2-yl]methyl [(2R,3S,4S,5R)-3,4,5,6-tetrakis(oxidanyl)oxan-2-yl]methyl hydrogen phosphate
> <PUBCHEM_IUPAC_TRADITIONAL_NAME>
[(2S,3S,5R)-3-azido-5-(2,4-diketo-5-methyl-pyrimidin-1-yl)tetrahydrofuran-2-yl]methyl [(2R,3S,4S,5R)-3,4,5,6-tetrahydroxytetrahydropyran-2-yl]methyl hydrogen phosphate
> <PUBCHEM_IUPAC_INCHI>
InChI=1S/C16H24N5O12P/c1-6-3-21(16(27)18-14(6)25)10-2-7(19-20-17)8(32-10)4-30-34(28,29)31-5-9-11(22)12(23)13(24)15(26)33-9/h3,7-13,15,22-24,26H,2,4-5H2,1H3,(H,28,29)(H,18,25,27)/t7-,8+,9+,10+,11+,12-,13+,15?/m0/s1
> <PUBCHEM_IUPAC_INCHIKEY>
KBZGJHJIQVDVES-KFQCIAAJSA-N
> <PUBCHEM_XLOGP3>
-3.2
> <PUBCHEM_EXACT_MASS>
509.11590822
> <PUBCHEM_MOLECULAR_FORMULA>
C16H24N5O12P
> <PUBCHEM_MOLECULAR_WEIGHT>
509.36
> <PUBCHEM_OPENEYE_CAN_SMILES>
CC1=CN(C(=O)NC1=O)C2CC(C(O2)COP(=O)(O)OCC3C(C(C(C(O3)O)O)O)O)N=[N+]=[N-]
> <PUBCHEM_OPENEYE_ISO_SMILES>
CC1=CN(C(=O)NC1=O)[C@H]2C[C@@H]([C@H](O2)COP(=O)(O)OC[C@@H]3[C@H]([C@@H]([C@H](C(O3)O)O)O)O)N=[N+]=[N-]
> <PUBCHEM_CACTVS_TPSA>
219
> <PUBCHEM_MONOISOTOPIC_WEIGHT>
509.11590822
> <PUBCHEM_TOTAL_CHARGE>
0
> <PUBCHEM_HEAVY_ATOM_COUNT>
34
> <PUBCHEM_ATOM_DEF_STEREO_COUNT>
7
> <PUBCHEM_ATOM_UDEF_STEREO_COUNT>
1
> <PUBCHEM_BOND_DEF_STEREO_COUNT>
0
> <PUBCHEM_BOND_UDEF_STEREO_COUNT>
0
> <PUBCHEM_ISOTOPIC_ATOM_COUNT>
0
> <PUBCHEM_COMPONENT_COUNT>
1
> <PUBCHEM_CACTVS_TAUTO_COUNT>
-1
> <PUBCHEM_COORDINATE_TYPE>
1
5
255
> <PUBCHEM_BONDANNOTATIONS>
22  14  5
14  30  8
14  31  8
20  15  6
16  31  8
16  33  8
19  28  5
24  29  5
30  32  8
32  33  8
23  5  6
25  7  5
26  8  6
27  9  3
$$$$
