503798
  -OEChem-10302200282D
 82 85  0     1  0  0  0  0  0999 V2000
    3.1534    2.0864    0.0000 O   0  0  0  0  0  0  0  0  0  0  0  0
   12.7470   -1.4524    0.0000 O   0  0  0  0  0  0  0  0  0  0  0  0
    6.4682   -1.2500    0.0000 O   0  0  0  0  0  0  0  0  0  0  0  0
    9.0662    1.2500    0.0000 O   0  0  0  0  0  0  0  0  0  0  0  0
    7.3342    1.2500    0.0000 O   0  0  0  0  0  0  0  0  0  0  0  0
    8.2002   -1.2500    0.0000 O   0  0  0  0  0  0  0  0  0  0  0  0
    2.2522    3.9705    0.0000 O   0  0  0  0  0  0  0  0  0  0  0  0
   14.8293   -1.2909    0.0000 O   0  0  0  0  0  0  0  0  0  0  0  0
    4.7361   -0.2500    0.0000 O   0  0  0  0  0  0  0  0  0  0  0  0
    9.9323   -1.2500    0.0000 O   0  0  0  0  0  0  0  0  0  0  0  0
    5.6021    1.2500    0.0000 N   0  0  0  0  0  0  0  0  0  0  0  0
   10.7983    0.2500    0.0000 N   0  0  0  0  0  0  0  0  0  0  0  0
    4.7361    1.7500    0.0000 C   0  0  3  0  0  0  0  0  0  0  0  0
   11.6643   -0.2500    0.0000 C   0  0  1  0  0  0  0  0  0  0  0  0
    4.6316    2.7445    0.0000 C   0  0  0  0  0  0  0  0  0  0  0  0
   12.5779    0.1567    0.0000 C   0  0  0  0  0  0  0  0  0  0  0  0
    3.6534    2.9524    0.0000 C   0  0  1  0  0  0  0  0  0  0  0  0
   13.2470   -0.5864    0.0000 C   0  0  1  0  0  0  0  0  0  0  0  0
    3.8226    1.3433    0.0000 C   0  0  0  0  0  0  0  0  0  0  0  0
   11.7688   -1.2445    0.0000 C   0  0  0  0  0  0  0  0  0  0  0  0
    7.3342    0.2500    0.0000 C   0  0  2  0  0  0  0  0  0  0  0  0
    8.2002   -0.2500    0.0000 C   0  0  2  0  0  0  0  0  0  0  0  0
    6.4682   -0.2500    0.0000 C   0  0  2  0  0  0  0  0  0  0  0  0
    9.0662    0.2500    0.0000 C   0  0  2  0  0  0  0  0  0  0  0  0
    5.6021    0.2500    0.0000 C   0  0  0  0  0  0  0  0  0  0  0  0
    9.9323   -0.2500    0.0000 C   0  0  0  0  0  0  0  0  0  0  0  0
    3.2467    3.8660    0.0000 C   0  0  0  0  0  0  0  0  0  0  0  0
   14.2415   -0.4819    0.0000 C   0  0  0  0  0  0  0  0  0  0  0  0
    5.6021   -1.7500    0.0000 C   0  0  0  0  0  0  0  0  0  0  0  0
    9.9323    1.7500    0.0000 C   0  0  0  0  0  0  0  0  0  0  0  0
    5.6021   -2.7500    0.0000 C   0  0  0  0  0  0  0  0  0  0  0  0
    9.9323    2.7500    0.0000 C   0  0  0  0  0  0  0  0  0  0  0  0
    4.7361   -3.2500    0.0000 C   0  0  0  0  0  0  0  0  0  0  0  0
    6.4682   -3.2500    0.0000 C   0  0  0  0  0  0  0  0  0  0  0  0
   10.7983    3.2500    0.0000 C   0  0  0  0  0  0  0  0  0  0  0  0
    9.0662    3.2500    0.0000 C   0  0  0  0  0  0  0  0  0  0  0  0
    4.7361   -4.2500    0.0000 C   0  0  0  0  0  0  0  0  0  0  0  0
    6.4682   -4.2500    0.0000 C   0  0  0  0  0  0  0  0  0  0  0  0
   10.7983    4.2500    0.0000 C   0  0  0  0  0  0  0  0  0  0  0  0
    9.0662    4.2500    0.0000 C   0  0  0  0  0  0  0  0  0  0  0  0
    5.6021   -4.7500    0.0000 C   0  0  0  0  0  0  0  0  0  0  0  0
    9.9323    4.7500    0.0000 C   0  0  0  0  0  0  0  0  0  0  0  0
    4.7037    1.1308    0.0000 H   0  0  0  0  0  0  0  0  0  0  0  0
   11.1443   -0.5877    0.0000 H   0  0  0  0  0  0  0  0  0  0  0  0
    5.2516    2.7445    0.0000 H   0  0  0  0  0  0  0  0  0  0  0  0
    4.6964    3.3611    0.0000 H   0  0  0  0  0  0  0  0  0  0  0  0
   13.0795    0.5212    0.0000 H   0  0  0  0  0  0  0  0  0  0  0  0
   12.2679    0.6937    0.0000 H   0  0  0  0  0  0  0  0  0  0  0  0
    3.0343    2.9849    0.0000 H   0  0  0  0  0  0  0  0  0  0  0  0
   13.5847   -1.1064    0.0000 H   0  0  0  0  0  0  0  0  0  0  0  0
    3.3210    0.9788    0.0000 H   0  0  0  0  0  0  0  0  0  0  0  0
    4.1326    0.8063    0.0000 H   0  0  0  0  0  0  0  0  0  0  0  0
   11.1488   -1.2445    0.0000 H   0  0  0  0  0  0  0  0  0  0  0  0
   11.7040   -1.8611    0.0000 H   0  0  0  0  0  0  0  0  0  0  0  0
    7.8711    0.5600    0.0000 H   0  0  0  0  0  0  0  0  0  0  0  0
    7.6633   -0.5600    0.0000 H   0  0  0  0  0  0  0  0  0  0  0  0
    7.0051   -0.5600    0.0000 H   0  0  0  0  0  0  0  0  0  0  0  0
    9.6032    0.5600    0.0000 H   0  0  0  0  0  0  0  0  0  0  0  0
    6.1391    1.5600    0.0000 H   0  0  0  0  0  0  0  0  0  0  0  0
   10.7983    0.8700    0.0000 H   0  0  0  0  0  0  0  0  0  0  0  0
    3.8483    4.0160    0.0000 H   0  0  0  0  0  0  0  0  0  0  0  0
    3.2034    4.4845    0.0000 H   0  0  0  0  0  0  0  0  0  0  0  0
   14.7988   -0.2101    0.0000 H   0  0  0  0  0  0  0  0  0  0  0  0
   14.0706    0.1141    0.0000 H   0  0  0  0  0  0  0  0  0  0  0  0
    7.8711    1.5600    0.0000 H   0  0  0  0  0  0  0  0  0  0  0  0
    8.7372   -1.5600    0.0000 H   0  0  0  0  0  0  0  0  0  0  0  0
    5.3901   -1.1674    0.0000 H   0  0  0  0  0  0  0  0  0  0  0  0
    4.9916   -1.8577    0.0000 H   0  0  0  0  0  0  0  0  0  0  0  0
   10.1443    1.1674    0.0000 H   0  0  0  0  0  0  0  0  0  0  0  0
   10.5428    1.8577    0.0000 H   0  0  0  0  0  0  0  0  0  0  0  0
    2.0000    4.5369    0.0000 H   0  0  0  0  0  0  0  0  0  0  0  0
   15.4459   -1.2261    0.0000 H   0  0  0  0  0  0  0  0  0  0  0  0
    4.1992   -2.9400    0.0000 H   0  0  0  0  0  0  0  0  0  0  0  0
    7.0051   -2.9400    0.0000 H   0  0  0  0  0  0  0  0  0  0  0  0
   11.3352    2.9400    0.0000 H   0  0  0  0  0  0  0  0  0  0  0  0
    8.5293    2.9400    0.0000 H   0  0  0  0  0  0  0  0  0  0  0  0
    4.1992   -4.5600    0.0000 H   0  0  0  0  0  0  0  0  0  0  0  0
    7.0051   -4.5600    0.0000 H   0  0  0  0  0  0  0  0  0  0  0  0
   11.3352    4.5600    0.0000 H   0  0  0  0  0  0  0  0  0  0  0  0
    8.5293    4.5600    0.0000 H   0  0  0  0  0  0  0  0  0  0  0  0
    5.6021   -5.3700    0.0000 H   0  0  0  0  0  0  0  0  0  0  0  0
    9.9323    5.3700    0.0000 H   0  0  0  0  0  0  0  0  0  0  0  0
  1 17  1  0  0  0  0
  1 19  1  0  0  0  0
  2 18  1  0  0  0  0
  2 20  1  0  0  0  0
 23  3  1  1  0  0  0
  3 29  1  0  0  0  0
 24  4  1  1  0  0  0
  4 30  1  0  0  0  0
 21  5  1  6  0  0  0
  5 65  1  0  0  0  0
 22  6  1  6  0  0  0
  6 66  1  0  0  0  0
  7 27  1  0  0  0  0
  7 71  1  0  0  0  0
  8 28  1  0  0  0  0
  8 72  1  0  0  0  0
  9 25  2  0  0  0  0
 10 26  2  0  0  0  0
 11 13  1  0  0  0  0
 11 25  1  0  0  0  0
 11 59  1  0  0  0  0
 14 12  1  1  0  0  0
 12 26  1  0  0  0  0
 12 60  1  0  0  0  0
 13 15  1  0  0  0  0
 13 19  1  0  0  0  0
 13 43  1  0  0  0  0
 14 16  1  0  0  0  0
 14 20  1  0  0  0  0
 14 44  1  0  0  0  0
 15 17  1  0  0  0  0
 15 45  1  0  0  0  0
 15 46  1  0  0  0  0
 16 18  1  0  0  0  0
 16 47  1  0  0  0  0
 16 48  1  0  0  0  0
 17 27  1  6  0  0  0
 17 49  1  0  0  0  0
 18 28  1  1  0  0  0
 18 50  1  0  0  0  0
 19 51  1  0  0  0  0
 19 52  1  0  0  0  0
 20 53  1  0  0  0  0
 20 54  1  0  0  0  0
 21 22  1  0  0  0  0
 21 23  1  0  0  0  0
 21 55  1  0  0  0  0
 22 24  1  0  0  0  0
 22 56  1  0  0  0  0
 23 25  1  0  0  0  0
 23 57  1  0  0  0  0
 24 26  1  0  0  0  0
 24 58  1  0  0  0  0
 27 61  1  0  0  0  0
 27 62  1  0  0  0  0
 28 63  1  0  0  0  0
 28 64  1  0  0  0  0
 29 31  1  0  0  0  0
 29 67  1  0  0  0  0
 29 68  1  0  0  0  0
 30 32  1  0  0  0  0
 30 69  1  0  0  0  0
 30 70  1  0  0  0  0
 31 33  2  0  0  0  0
 31 34  1  0  0  0  0
 32 35  2  0  0  0  0
 32 36  1  0  0  0  0
 33 37  1  0  0  0  0
 33 73  1  0  0  0  0
 34 38  2  0  0  0  0
 34 74  1  0  0  0  0
 35 39  1  0  0  0  0
 35 75  1  0  0  0  0
 36 40  2  0  0  0  0
 36 76  1  0  0  0  0
 37 41  2  0  0  0  0
 37 77  1  0  0  0  0
 38 41  1  0  0  0  0
 38 78  1  0  0  0  0
 39 42  2  0  0  0  0
 39 79  1  0  0  0  0
 40 42  1  0  0  0  0
 40 80  1  0  0  0  0
 41 81  1  0  0  0  0
 42 82  1  0  0  0  0
M  END
> <PUBCHEM_COMPOUND_CID>
503798
> <PUBCHEM_COMPOUND_CANONICALIZED>
1
> <PUBCHEM_CACTVS_COMPLEXITY>
756
> <PUBCHEM_CACTVS_HBOND_ACCEPTOR>
10
> <PUBCHEM_CACTVS_HBOND_DONOR>
6
> <PUBCHEM_CACTVS_ROTATABLE_BOND>
15
> <PUBCHEM_CACTVS_SUBSKEYS>
AAADcfB7PAAAAAAAAAAAAAAAAAAAASJAAAAwYAAAAAAAAAABQAAAHgAQCAAADDzhmAYwAILABgCIAiFSEAICAAAgAAAIiIFICIgLNjaAsRyHcAAn9gGbqAf6/CJOAAAAAAAAAAAAAAAAAAAAAAAAAAAAAA==
> <PUBCHEM_IUPAC_OPENEYE_NAME>
(2R,3R,4R,5R)-2,5-dibenzyloxy-3,4-dihydroxy-N-[(3S,5S)-5-(hydroxymethyl)tetrahydrofuran-3-yl]-N'-[(5S)-5-(hydroxymethyl)tetrahydrofuran-3-yl]hexanediamide
> <PUBCHEM_IUPAC_CAS_NAME>
(2R,3R,4R,5R)-3,4-dihydroxy-N-[(3S,5S)-5-(hydroxymethyl)-3-oxolanyl]-N'-[(5S)-5-(hydroxymethyl)-3-oxolanyl]-2,5-bis(phenylmethoxy)hexanediamide
> <PUBCHEM_IUPAC_NAME_MARKUP>
(2<I>R</I>,3<I>R</I>,4<I>R</I>,5<I>R</I>)-3,4-dihydroxy-<I>N</I>-[(3<I>S</I>,5<I>S</I>)-5-(hydroxymethyl)oxolan-3-yl]-<I>N</I>&apos;-[(5<I>S</I>)-5-(hydroxymethyl)oxolan-3-yl]-2,5-bis(phenylmethoxy)hexanediamide
> <PUBCHEM_IUPAC_NAME>
(2R,3R,4R,5R)-3,4-dihydroxy-N-[(3S,5S)-5-(hydroxymethyl)oxolan-3-yl]-N'-[(5S)-5-(hydroxymethyl)oxolan-3-yl]-2,5-bis(phenylmethoxy)hexanediamide
> <PUBCHEM_IUPAC_SYSTEMATIC_NAME>
(2R,3R,4R,5R)-N-[(3S,5S)-5-(hydroxymethyl)oxolan-3-yl]-N'-[(5S)-5-(hydroxymethyl)oxolan-3-yl]-3,4-bis(oxidanyl)-2,5-bis(phenylmethoxy)hexanediamide
> <PUBCHEM_IUPAC_TRADITIONAL_NAME>
(2R,3R,4R,5R)-2,5-dibenzoxy-3,4-dihydroxy-N-[(3S,5S)-5-methyloltetrahydrofuran-3-yl]-N'-[(5S)-5-methyloltetrahydrofuran-3-yl]adipamide
> <PUBCHEM_IUPAC_INCHI>
InChI=1S/C30H40N2O10/c33-13-23-11-21(17-39-23)31-29(37)27(41-15-19-7-3-1-4-8-19)25(35)26(36)28(42-16-20-9-5-2-6-10-20)30(38)32-22-12-24(14-34)40-18-22/h1-10,21-28,33-36H,11-18H2,(H,31,37)(H,32,38)/t21-,22?,23-,24-,25+,26+,27+,28+/m0/s1
> <PUBCHEM_IUPAC_INCHIKEY>
VNTJVUVJPTZEKO-DLYITBFFSA-N
> <PUBCHEM_XLOGP3_AA>
0.4
> <PUBCHEM_EXACT_MASS>
588.26829548
> <PUBCHEM_MOLECULAR_FORMULA>
C30H40N2O10
> <PUBCHEM_MOLECULAR_WEIGHT>
588.6
> <PUBCHEM_OPENEYE_CAN_SMILES>
C1C(COC1CO)NC(=O)C(C(C(C(C(=O)NC2CC(OC2)CO)OCC3=CC=CC=C3)O)O)OCC4=CC=CC=C4
> <PUBCHEM_OPENEYE_ISO_SMILES>
C1[C@@H](CO[C@@H]1CO)NC(=O)[C@@H]([C@@H]([C@H]([C@H](C(=O)NC2C[C@H](OC2)CO)OCC3=CC=CC=C3)O)O)OCC4=CC=CC=C4
> <PUBCHEM_CACTVS_TPSA>
176
> <PUBCHEM_MONOISOTOPIC_WEIGHT>
588.26829548
> <PUBCHEM_TOTAL_CHARGE>
0
> <PUBCHEM_HEAVY_ATOM_COUNT>
42
> <PUBCHEM_ATOM_DEF_STEREO_COUNT>
7
> <PUBCHEM_ATOM_UDEF_STEREO_COUNT>
1
> <PUBCHEM_BOND_DEF_STEREO_COUNT>
0
> <PUBCHEM_BOND_UDEF_STEREO_COUNT>
0
> <PUBCHEM_ISOTOPIC_ATOM_COUNT>
0
> <PUBCHEM_COMPONENT_COUNT>
1
> <PUBCHEM_CACTVS_TAUTO_COUNT>
-1
> <PUBCHEM_COORDINATE_TYPE>
1
5
255
> <PUBCHEM_BONDANNOTATIONS>
13  11  3
14  12  5
17  27  6
18  28  5
23  3  5
31  33  8
31  34  8
32  35  8
32  36  8
33  37  8
34  38  8
35  39  8
36  40  8
37  41  8
38  41  8
39  42  8
24  4  5
40  42  8
21  5  6
22  6  6
$$$$
