503730
  -OEChem-10302200282D
 94 97  0     1  0  0  0  0  0999 V2000
    8.0622    0.5600    0.0000 O   0  0  0  0  0  0  0  0  0  0  0  0
    4.5981    0.5600    0.0000 O   0  0  0  0  0  0  0  0  0  0  0  0
    8.9282   -2.9400    0.0000 O   0  0  0  0  0  0  0  0  0  0  0  0
    3.7320   -5.9400    0.0000 O   0  0  0  0  0  0  0  0  0  0  0  0
    6.3301    1.5600    0.0000 N   0  0  3  0  0  0  0  0  0  0  0  0
    6.3301    3.5600    0.0000 N   0  0  3  0  0  0  0  0  0  0  0  0
    3.7320    2.0600    0.0000 N   0  0  0  0  0  0  0  0  0  0  0  0
    7.1962   -2.9400    0.0000 N   0  0  0  0  0  0  0  0  0  0  0  0
    8.0622    6.5600    0.0000 N   0  0  0  0  0  0  0  0  0  0  0  0
    5.4641    2.0600    0.0000 C   0  0  1  0  0  0  0  0  0  0  0  0
    5.4641    3.0600    0.0000 C   0  0  0  0  0  0  0  0  0  0  0  0
    7.1962    2.0600    0.0000 C   0  0  0  0  0  0  0  0  0  0  0  0
    7.1962    3.0600    0.0000 C   0  0  0  0  0  0  0  0  0  0  0  0
    6.3301    0.5600    0.0000 C   0  0  0  0  0  0  0  0  0  0  0  0
    7.1962    0.0600    0.0000 C   0  0  2  0  0  0  0  0  0  0  0  0
    4.5981    1.5600    0.0000 C   0  0  0  0  0  0  0  0  0  0  0  0
    7.1962   -0.9400    0.0000 C   0  0  0  0  0  0  0  0  0  0  0  0
    6.3301    4.5600    0.0000 C   0  0  0  0  0  0  0  0  0  0  0  0
    8.0622   -1.4400    0.0000 C   0  0  1  0  0  0  0  0  0  0  0  0
    2.8660    1.5600    0.0000 C   0  0  0  0  0  0  0  0  0  0  0  0
    8.9282   -0.9400    0.0000 C   0  0  0  0  0  0  0  0  0  0  0  0
    7.1962    5.0600    0.0000 C   0  0  0  0  0  0  0  0  0  0  0  0
    8.0622   -2.4400    0.0000 C   0  0  0  0  0  0  0  0  0  0  0  0
    2.0000    1.0600    0.0000 C   0  0  0  0  0  0  0  0  0  0  0  0
    2.3660    2.4260    0.0000 C   0  0  0  0  0  0  0  0  0  0  0  0
    3.3660    0.6940    0.0000 C   0  0  0  0  0  0  0  0  0  0  0  0
    9.7942   -1.4400    0.0000 C   0  0  0  0  0  0  0  0  0  0  0  0
    8.0622    4.5600    0.0000 C   0  0  0  0  0  0  0  0  0  0  0  0
    7.1962    6.0600    0.0000 C   0  0  0  0  0  0  0  0  0  0  0  0
    7.1962   -3.9400    0.0000 C   0  0  0  0  0  0  0  0  0  0  0  0
    9.7942   -2.4400    0.0000 C   0  0  0  0  0  0  0  0  0  0  0  0
   10.6603   -0.9400    0.0000 C   0  0  0  0  0  0  0  0  0  0  0  0
    8.9282    5.0600    0.0000 C   0  0  0  0  0  0  0  0  0  0  0  0
    6.3301   -4.4400    0.0000 C   0  0  0  0  0  0  0  0  0  0  0  0
    8.9282    6.0600    0.0000 C   0  0  0  0  0  0  0  0  0  0  0  0
   10.6603   -2.9400    0.0000 C   0  0  0  0  0  0  0  0  0  0  0  0
   11.5263   -1.4400    0.0000 C   0  0  0  0  0  0  0  0  0  0  0  0
   11.5263   -2.4400    0.0000 C   0  0  0  0  0  0  0  0  0  0  0  0
    6.3301   -5.4400    0.0000 C   0  0  0  0  0  0  0  0  0  0  0  0
    5.4641   -3.9400    0.0000 C   0  0  0  0  0  0  0  0  0  0  0  0
    5.4641   -5.9400    0.0000 C   0  0  0  0  0  0  0  0  0  0  0  0
    4.5981   -4.4400    0.0000 C   0  0  0  0  0  0  0  0  0  0  0  0
    7.1962   -5.9400    0.0000 C   0  0  0  0  0  0  0  0  0  0  0  0
    5.4641   -2.9400    0.0000 C   0  0  0  0  0  0  0  0  0  0  0  0
    4.5981   -5.4400    0.0000 C   0  0  0  0  0  0  0  0  0  0  0  0
    5.4641    1.4400    0.0000 H   0  0  0  0  0  0  0  0  0  0  0  0
    5.2520    3.6426    0.0000 H   0  0  0  0  0  0  0  0  0  0  0  0
    4.8535    2.9523    0.0000 H   0  0  0  0  0  0  0  0  0  0  0  0
    7.4082    1.4774    0.0000 H   0  0  0  0  0  0  0  0  0  0  0  0
    7.8067    2.1677    0.0000 H   0  0  0  0  0  0  0  0  0  0  0  0
    7.8067    2.9523    0.0000 H   0  0  0  0  0  0  0  0  0  0  0  0
    7.4082    3.6426    0.0000 H   0  0  0  0  0  0  0  0  0  0  0  0
    5.7196    0.6677    0.0000 H   0  0  0  0  0  0  0  0  0  0  0  0
    6.1181   -0.0226    0.0000 H   0  0  0  0  0  0  0  0  0  0  0  0
    7.7331   -0.2500    0.0000 H   0  0  0  0  0  0  0  0  0  0  0  0
    6.5856   -0.8323    0.0000 H   0  0  0  0  0  0  0  0  0  0  0  0
    6.9841   -1.5226    0.0000 H   0  0  0  0  0  0  0  0  0  0  0  0
    6.1181    5.1426    0.0000 H   0  0  0  0  0  0  0  0  0  0  0  0
    5.7196    4.4523    0.0000 H   0  0  0  0  0  0  0  0  0  0  0  0
    8.0622   -0.8200    0.0000 H   0  0  0  0  0  0  0  0  0  0  0  0
    3.7320    2.6800    0.0000 H   0  0  0  0  0  0  0  0  0  0  0  0
    9.3267   -0.4651    0.0000 H   0  0  0  0  0  0  0  0  0  0  0  0
    8.5297   -0.4651    0.0000 H   0  0  0  0  0  0  0  0  0  0  0  0
    8.5991    0.2500    0.0000 H   0  0  0  0  0  0  0  0  0  0  0  0
    1.6900    1.5969    0.0000 H   0  0  0  0  0  0  0  0  0  0  0  0
    1.4631    0.7500    0.0000 H   0  0  0  0  0  0  0  0  0  0  0  0
    2.3100    0.5231    0.0000 H   0  0  0  0  0  0  0  0  0  0  0  0
    2.9030    2.7360    0.0000 H   0  0  0  0  0  0  0  0  0  0  0  0
    2.0560    2.9630    0.0000 H   0  0  0  0  0  0  0  0  0  0  0  0
    1.8291    2.1160    0.0000 H   0  0  0  0  0  0  0  0  0  0  0  0
    2.8291    0.3840    0.0000 H   0  0  0  0  0  0  0  0  0  0  0  0
    3.6760    0.1570    0.0000 H   0  0  0  0  0  0  0  0  0  0  0  0
    3.9030    1.0040    0.0000 H   0  0  0  0  0  0  0  0  0  0  0  0
    8.0622    3.9400    0.0000 H   0  0  0  0  0  0  0  0  0  0  0  0
    6.6592    6.3700    0.0000 H   0  0  0  0  0  0  0  0  0  0  0  0
    6.6592   -2.6300    0.0000 H   0  0  0  0  0  0  0  0  0  0  0  0
    7.4082   -4.5226    0.0000 H   0  0  0  0  0  0  0  0  0  0  0  0
    7.8067   -3.8323    0.0000 H   0  0  0  0  0  0  0  0  0  0  0  0
    9.2573   -2.7500    0.0000 H   0  0  0  0  0  0  0  0  0  0  0  0
   10.6603   -0.3200    0.0000 H   0  0  0  0  0  0  0  0  0  0  0  0
    9.4651    4.7500    0.0000 H   0  0  0  0  0  0  0  0  0  0  0  0
    9.4651    6.3700    0.0000 H   0  0  0  0  0  0  0  0  0  0  0  0
   10.6603   -3.5600    0.0000 H   0  0  0  0  0  0  0  0  0  0  0  0
   12.0632   -1.1300    0.0000 H   0  0  0  0  0  0  0  0  0  0  0  0
   12.0632   -2.7500    0.0000 H   0  0  0  0  0  0  0  0  0  0  0  0
    5.4641   -6.5600    0.0000 H   0  0  0  0  0  0  0  0  0  0  0  0
    4.0611   -4.1300    0.0000 H   0  0  0  0  0  0  0  0  0  0  0  0
    6.8862   -6.4769    0.0000 H   0  0  0  0  0  0  0  0  0  0  0  0
    7.7331   -6.2500    0.0000 H   0  0  0  0  0  0  0  0  0  0  0  0
    7.5062   -5.4031    0.0000 H   0  0  0  0  0  0  0  0  0  0  0  0
    6.0841   -2.9400    0.0000 H   0  0  0  0  0  0  0  0  0  0  0  0
    5.4641   -2.3200    0.0000 H   0  0  0  0  0  0  0  0  0  0  0  0
    4.8441   -2.9400    0.0000 H   0  0  0  0  0  0  0  0  0  0  0  0
    3.7320   -6.5600    0.0000 H   0  0  0  0  0  0  0  0  0  0  0  0
 15  1  1  1  0  0  0
  1 64  1  0  0  0  0
  2 16  2  0  0  0  0
  3 23  2  0  0  0  0
  4 45  1  0  0  0  0
  4 94  1  0  0  0  0
  5 10  1  0  0  0  0
  5 12  1  0  0  0  0
  5 14  1  0  0  0  0
  6 11  1  0  0  0  0
  6 13  1  0  0  0  0
  6 18  1  0  0  0  0
  7 16  1  0  0  0  0
  7 20  1  0  0  0  0
  7 61  1  0  0  0  0
  8 23  1  0  0  0  0
  8 30  1  0  0  0  0
  8 76  1  0  0  0  0
  9 29  1  0  0  0  0
  9 35  2  0  0  0  0
 10 11  1  0  0  0  0
 10 16  1  6  0  0  0
 10 46  1  0  0  0  0
 11 47  1  0  0  0  0
 11 48  1  0  0  0  0
 12 13  1  0  0  0  0
 12 49  1  0  0  0  0
 12 50  1  0  0  0  0
 13 51  1  0  0  0  0
 13 52  1  0  0  0  0
 14 15  1  0  0  0  0
 14 53  1  0  0  0  0
 14 54  1  0  0  0  0
 15 17  1  0  0  0  0
 15 55  1  0  0  0  0
 19 17  1  1  0  0  0
 17 56  1  0  0  0  0
 17 57  1  0  0  0  0
 18 22  1  0  0  0  0
 18 58  1  0  0  0  0
 18 59  1  0  0  0  0
 19 21  1  0  0  0  0
 19 23  1  0  0  0  0
 19 60  1  0  0  0  0
 20 24  1  0  0  0  0
 20 25  1  0  0  0  0
 20 26  1  0  0  0  0
 21 27  1  0  0  0  0
 21 62  1  0  0  0  0
 21 63  1  0  0  0  0
 22 28  1  0  0  0  0
 22 29  2  0  0  0  0
 24 65  1  0  0  0  0
 24 66  1  0  0  0  0
 24 67  1  0  0  0  0
 25 68  1  0  0  0  0
 25 69  1  0  0  0  0
 25 70  1  0  0  0  0
 26 71  1  0  0  0  0
 26 72  1  0  0  0  0
 26 73  1  0  0  0  0
 27 31  2  0  0  0  0
 27 32  1  0  0  0  0
 28 33  2  0  0  0  0
 28 74  1  0  0  0  0
 29 75  1  0  0  0  0
 30 34  1  0  0  0  0
 30 77  1  0  0  0  0
 30 78  1  0  0  0  0
 31 36  1  0  0  0  0
 31 79  1  0  0  0  0
 32 37  2  0  0  0  0
 32 80  1  0  0  0  0
 33 35  1  0  0  0  0
 33 81  1  0  0  0  0
 34 39  2  0  0  0  0
 34 40  1  0  0  0  0
 35 82  1  0  0  0  0
 36 38  2  0  0  0  0
 36 83  1  0  0  0  0
 37 38  1  0  0  0  0
 37 84  1  0  0  0  0
 38 85  1  0  0  0  0
 39 41  1  0  0  0  0
 39 43  1  0  0  0  0
 40 42  2  0  0  0  0
 40 44  1  0  0  0  0
 41 45  2  0  0  0  0
 41 86  1  0  0  0  0
 42 45  1  0  0  0  0
 42 87  1  0  0  0  0
 43 88  1  0  0  0  0
 43 89  1  0  0  0  0
 43 90  1  0  0  0  0
 44 91  1  0  0  0  0
 44 92  1  0  0  0  0
 44 93  1  0  0  0  0
M  END
> <PUBCHEM_COMPOUND_CID>
503730
> <PUBCHEM_COMPOUND_CANONICALIZED>
1
> <PUBCHEM_CACTVS_COMPLEXITY>
910
> <PUBCHEM_CACTVS_HBOND_ACCEPTOR>
7
> <PUBCHEM_CACTVS_HBOND_DONOR>
4
> <PUBCHEM_CACTVS_ROTATABLE_BOND>
13
> <PUBCHEM_CACTVS_SUBSKEYS>
AAADcfB/uAAAAAAAAAAAAAAAAAAAAAAAAAA8eIEAAAAAAAAB0AAAHgAQCAAADbzhmgY+hpPIEgCoAjF3VACCgCAxIiAI2KG+bJgKdvrC0bOUcAhk1hHY2Ae62fKOoAADAAAQAABAAAYAACAAAAAAAAAAAA==
> <PUBCHEM_IUPAC_OPENEYE_NAME>
(2S)-1-[(2S,4R)-4-benzyl-2-hydroxy-5-[(4-hydroxy-2,6-dimethyl-phenyl)methylamino]-5-oxo-pentyl]-N-tert-butyl-4-(3-pyridylmethyl)piperazine-2-carboxamide
> <PUBCHEM_IUPAC_CAS_NAME>
(2S)-N-tert-butyl-1-[(2S,4R)-2-hydroxy-5-[(4-hydroxy-2,6-dimethylphenyl)methylamino]-5-oxo-4-(phenylmethyl)pentyl]-4-(3-pyridinylmethyl)-2-piperazinecarboxamide
> <PUBCHEM_IUPAC_NAME_MARKUP>
(2<I>S</I>)-1-[(2<I>S</I>,4<I>R</I>)-4-benzyl-2-hydroxy-5-[(4-hydroxy-2,6-dimethylphenyl)methylamino]-5-oxopentyl]-<I>N</I>-<I>tert</I>-butyl-4-(pyridin-3-ylmethyl)piperazine-2-carboxamide
> <PUBCHEM_IUPAC_NAME>
(2S)-1-[(2S,4R)-4-benzyl-2-hydroxy-5-[(4-hydroxy-2,6-dimethylphenyl)methylamino]-5-oxopentyl]-N-tert-butyl-4-(pyridin-3-ylmethyl)piperazine-2-carboxamide
> <PUBCHEM_IUPAC_SYSTEMATIC_NAME>
(2S)-N-tert-butyl-1-[(2S,4R)-5-[(2,6-dimethyl-4-oxidanyl-phenyl)methylamino]-2-oxidanyl-5-oxidanylidene-4-(phenylmethyl)pentyl]-4-(pyridin-3-ylmethyl)piperazine-2-carboxamide
> <PUBCHEM_IUPAC_TRADITIONAL_NAME>
(2S)-1-[(2S,4R)-4-benzyl-2-hydroxy-5-[(4-hydroxy-2,6-dimethyl-benzyl)amino]-5-keto-pentyl]-N-tert-butyl-4-(3-pyridylmethyl)piperazine-2-carboxamide
> <PUBCHEM_IUPAC_INCHI>
InChI=1S/C36H49N5O4/c1-25-16-30(42)17-26(2)32(25)21-38-34(44)29(18-27-10-7-6-8-11-27)19-31(43)23-41-15-14-40(22-28-12-9-13-37-20-28)24-33(41)35(45)39-36(3,4)5/h6-13,16-17,20,29,31,33,42-43H,14-15,18-19,21-24H2,1-5H3,(H,38,44)(H,39,45)/t29-,31+,33+/m1/s1
> <PUBCHEM_IUPAC_INCHIKEY>
LLWFRFWFTATFAR-QBACOJCQSA-N
> <PUBCHEM_XLOGP3_AA>
3.7
> <PUBCHEM_EXACT_MASS>
615.37845506
> <PUBCHEM_MOLECULAR_FORMULA>
C36H49N5O4
> <PUBCHEM_MOLECULAR_WEIGHT>
615.8
> <PUBCHEM_OPENEYE_CAN_SMILES>
CC1=CC(=CC(=C1CNC(=O)C(CC2=CC=CC=C2)CC(CN3CCN(CC3C(=O)NC(C)(C)C)CC4=CN=CC=C4)O)C)O
> <PUBCHEM_OPENEYE_ISO_SMILES>
CC1=CC(=CC(=C1CNC(=O)[C@H](CC2=CC=CC=C2)C[C@@H](CN3CCN(C[C@H]3C(=O)NC(C)(C)C)CC4=CN=CC=C4)O)C)O
> <PUBCHEM_CACTVS_TPSA>
118
> <PUBCHEM_MONOISOTOPIC_WEIGHT>
615.37845506
> <PUBCHEM_TOTAL_CHARGE>
0
> <PUBCHEM_HEAVY_ATOM_COUNT>
45
> <PUBCHEM_ATOM_DEF_STEREO_COUNT>
3
> <PUBCHEM_ATOM_UDEF_STEREO_COUNT>
0
> <PUBCHEM_BOND_DEF_STEREO_COUNT>
0
> <PUBCHEM_BOND_UDEF_STEREO_COUNT>
0
> <PUBCHEM_ISOTOPIC_ATOM_COUNT>
0
> <PUBCHEM_COMPONENT_COUNT>
1
> <PUBCHEM_CACTVS_TAUTO_COUNT>
-1
> <PUBCHEM_COORDINATE_TYPE>
1
5
255
> <PUBCHEM_BONDANNOTATIONS>
15  1  5
10  16  6
19  17  5
22  28  8
22  29  8
27  31  8
27  32  8
28  33  8
31  36  8
32  37  8
33  35  8
34  39  8
34  40  8
36  38  8
37  38  8
39  41  8
40  42  8
41  45  8
42  45  8
9  29  8
9  35  8
$$$$
