503716
  -OEChem-10302200282D
106108  0     1  0  0  0  0  0999 V2000
    9.2928   -1.4921    0.0000 P   0  0  3  0  0  0  0  0  0  0  0  0
    6.6472    0.1011    0.0000 O   0  0  0  0  0  0  0  0  0  0  0  0
   11.8909   -2.9921    0.0000 O   0  0  0  0  0  0  0  0  0  0  0  0
    8.4268   -0.9921    0.0000 O   0  0  0  0  0  0  0  0  0  0  0  0
   10.1588   -1.9921    0.0000 O   0  0  0  0  0  0  0  0  0  0  0  0
   10.1588   -4.9921    0.0000 O   0  0  0  0  0  0  0  0  0  0  0  0
   11.8909   -5.9921    0.0000 O   0  0  0  0  0  0  0  0  0  0  0  0
   13.6229   -4.9921    0.0000 O   0  0  0  0  0  0  0  0  0  0  0  0
   13.6229   -2.9921    0.0000 O   0  0  0  0  0  0  0  0  0  0  0  0
    9.7928   -0.6261    0.0000 O   0  0  0  0  0  0  0  0  0  0  0  0
    8.7928   -2.3581    0.0000 O   0  0  0  0  0  0  0  0  0  0  0  0
    5.1646   -0.9828    0.0000 O   0  0  0  0  0  0  0  0  0  0  0  0
    2.0000    0.4262    0.0000 O   0  0  0  0  0  0  0  0  0  0  0  0
    4.9836    0.7398    0.0000 N   0  0  0  0  0  0  0  0  0  0  0  0
    8.1994    2.1715    0.0000 N   0  0  0  0  0  0  0  0  0  0  0  0
    3.5823   -0.2783    0.0000 N   0  0  0  0  0  0  0  0  0  0  0  0
    7.9915    3.1497    0.0000 N   0  3  0  0  0  0  0  0  0  0  0  0
    7.7836    4.1278    0.0000 N   0  5  0  0  0  0  0  0  0  0  0  0
    7.5608    0.5079    0.0000 C   0  0  1  0  0  0  0  0  0  0  0  0
    7.4562    1.5024    0.0000 C   0  0  2  0  0  0  0  0  0  0  0  0
    6.4781    1.7103    0.0000 C   0  0  0  0  0  0  0  0  0  0  0  0
    5.9781    0.8443    0.0000 C   0  0  1  0  0  0  0  0  0  0  0  0
   11.0249   -4.4921    0.0000 C   0  0  2  0  0  0  0  0  0  0  0  0
   11.0249   -3.4921    0.0000 C   0  0  1  0  0  0  0  0  0  0  0  0
   11.8909   -4.9921    0.0000 C   0  0  1  0  0  0  0  0  0  0  0  0
    8.4268    0.0079    0.0000 C   0  0  0  0  0  0  0  0  0  0  0  0
   12.7569   -4.4921    0.0000 C   0  0  2  0  0  0  0  0  0  0  0  0
   12.7569   -3.4921    0.0000 C   0  0  3  0  0  0  0  0  0  0  0  0
   10.1588   -2.9921    0.0000 C   0  0  0  0  0  0  0  0  0  0  0  0
    4.3958    1.5488    0.0000 C   0  0  0  0  0  0  0  0  0  0  0  0
    4.5768   -0.1738    0.0000 C   0  0  0  0  0  0  0  0  0  0  0  0
    3.4013    1.4442    0.0000 C   0  0  0  0  0  0  0  0  0  0  0  0
   14.2928    1.9720    0.0000 C   0  0  0  0  0  0  0  0  0  0  0  0
   15.2928    1.9720    0.0000 C   0  0  0  0  0  0  0  0  0  0  0  0
   13.7928    1.1060    0.0000 C   0  0  0  0  0  0  0  0  0  0  0  0
   12.7928    1.1060    0.0000 C   0  0  0  0  0  0  0  0  0  0  0  0
   15.7928    2.8380    0.0000 C   0  0  0  0  0  0  0  0  0  0  0  0
   12.2928    0.2399    0.0000 C   0  0  0  0  0  0  0  0  0  0  0  0
   16.7928    2.8380    0.0000 C   0  0  0  0  0  0  0  0  0  0  0  0
   11.2928    0.2399    0.0000 C   0  0  0  0  0  0  0  0  0  0  0  0
   10.7928   -0.6261    0.0000 C   0  0  0  0  0  0  0  0  0  0  0  0
   17.2928    3.7040    0.0000 C   0  0  0  0  0  0  0  0  0  0  0  0
   18.2928    3.7040    0.0000 C   0  0  0  0  0  0  0  0  0  0  0  0
    2.9945    0.5307    0.0000 C   0  0  0  0  0  0  0  0  0  0  0  0
   18.7928    4.5701    0.0000 C   0  0  0  0  0  0  0  0  0  0  0  0
   19.7928    4.5701    0.0000 C   0  0  0  0  0  0  0  0  0  0  0  0
    2.8135    2.2533    0.0000 C   0  0  0  0  0  0  0  0  0  0  0  0
   20.2928    5.4361    0.0000 C   0  0  0  0  0  0  0  0  0  0  0  0
   21.2928    5.4361    0.0000 C   0  0  0  0  0  0  0  0  0  0  0  0
   21.7928    6.3021    0.0000 C   0  0  0  0  0  0  0  0  0  0  0  0
    7.5283   -0.1113    0.0000 H   0  0  0  0  0  0  0  0  0  0  0  0
    8.0351    1.2802    0.0000 H   0  0  0  0  0  0  0  0  0  0  0  0
    6.6697    2.3000    0.0000 H   0  0  0  0  0  0  0  0  0  0  0  0
    5.9117    1.9625    0.0000 H   0  0  0  0  0  0  0  0  0  0  0  0
    5.7559    0.2655    0.0000 H   0  0  0  0  0  0  0  0  0  0  0  0
   10.4879   -4.1821    0.0000 H   0  0  0  0  0  0  0  0  0  0  0  0
   11.0249   -2.8721    0.0000 H   0  0  0  0  0  0  0  0  0  0  0  0
   11.3540   -5.3021    0.0000 H   0  0  0  0  0  0  0  0  0  0  0  0
    9.0374   -0.0998    0.0000 H   0  0  0  0  0  0  0  0  0  0  0  0
    8.6388    0.5905    0.0000 H   0  0  0  0  0  0  0  0  0  0  0  0
   12.7569   -5.1121    0.0000 H   0  0  0  0  0  0  0  0  0  0  0  0
   12.7569   -2.8721    0.0000 H   0  0  0  0  0  0  0  0  0  0  0  0
    9.5483   -2.8844    0.0000 H   0  0  0  0  0  0  0  0  0  0  0  0
    9.9468   -3.5747    0.0000 H   0  0  0  0  0  0  0  0  0  0  0  0
    4.6480    2.1152    0.0000 H   0  0  0  0  0  0  0  0  0  0  0  0
    9.6219   -4.6821    0.0000 H   0  0  0  0  0  0  0  0  0  0  0  0
   12.4278   -6.3021    0.0000 H   0  0  0  0  0  0  0  0  0  0  0  0
   14.1599   -4.6821    0.0000 H   0  0  0  0  0  0  0  0  0  0  0  0
   14.4005    2.5826    0.0000 H   0  0  0  0  0  0  0  0  0  0  0  0
   13.7102    2.1840    0.0000 H   0  0  0  0  0  0  0  0  0  0  0  0
   15.1852    1.3614    0.0000 H   0  0  0  0  0  0  0  0  0  0  0  0
   15.8754    1.7599    0.0000 H   0  0  0  0  0  0  0  0  0  0  0  0
   13.6852    0.4954    0.0000 H   0  0  0  0  0  0  0  0  0  0  0  0
   14.3754    0.8939    0.0000 H   0  0  0  0  0  0  0  0  0  0  0  0
   12.9005    1.7165    0.0000 H   0  0  0  0  0  0  0  0  0  0  0  0
   12.2102    1.3180    0.0000 H   0  0  0  0  0  0  0  0  0  0  0  0
   15.9005    3.4486    0.0000 H   0  0  0  0  0  0  0  0  0  0  0  0
   15.2102    3.0501    0.0000 H   0  0  0  0  0  0  0  0  0  0  0  0
   12.1852   -0.3706    0.0000 H   0  0  0  0  0  0  0  0  0  0  0  0
   12.8754    0.0279    0.0000 H   0  0  0  0  0  0  0  0  0  0  0  0
   16.6852    2.2274    0.0000 H   0  0  0  0  0  0  0  0  0  0  0  0
   17.3754    2.6260    0.0000 H   0  0  0  0  0  0  0  0  0  0  0  0
   11.4005    0.8505    0.0000 H   0  0  0  0  0  0  0  0  0  0  0  0
   10.7102    0.4520    0.0000 H   0  0  0  0  0  0  0  0  0  0  0  0
   13.6229   -2.3721    0.0000 H   0  0  0  0  0  0  0  0  0  0  0  0
   10.6852   -1.2367    0.0000 H   0  0  0  0  0  0  0  0  0  0  0  0
   11.3754   -0.8381    0.0000 H   0  0  0  0  0  0  0  0  0  0  0  0
   17.4005    4.3146    0.0000 H   0  0  0  0  0  0  0  0  0  0  0  0
   16.7102    3.9161    0.0000 H   0  0  0  0  0  0  0  0  0  0  0  0
    3.3301   -0.8447    0.0000 H   0  0  0  0  0  0  0  0  0  0  0  0
   18.1852    3.0935    0.0000 H   0  0  0  0  0  0  0  0  0  0  0  0
   18.8754    3.4920    0.0000 H   0  0  0  0  0  0  0  0  0  0  0  0
   18.9005    5.1806    0.0000 H   0  0  0  0  0  0  0  0  0  0  0  0
   18.2102    4.7821    0.0000 H   0  0  0  0  0  0  0  0  0  0  0  0
   19.6852    3.9595    0.0000 H   0  0  0  0  0  0  0  0  0  0  0  0
   20.3754    4.3580    0.0000 H   0  0  0  0  0  0  0  0  0  0  0  0
    3.3151    2.6177    0.0000 H   0  0  0  0  0  0  0  0  0  0  0  0
    2.4490    2.7549    0.0000 H   0  0  0  0  0  0  0  0  0  0  0  0
    2.3119    1.8888    0.0000 H   0  0  0  0  0  0  0  0  0  0  0  0
   20.4005    6.0467    0.0000 H   0  0  0  0  0  0  0  0  0  0  0  0
   19.7102    5.6481    0.0000 H   0  0  0  0  0  0  0  0  0  0  0  0
   21.1852    4.8255    0.0000 H   0  0  0  0  0  0  0  0  0  0  0  0
   21.8754    5.2240    0.0000 H   0  0  0  0  0  0  0  0  0  0  0  0
   22.3298    5.9921    0.0000 H   0  0  0  0  0  0  0  0  0  0  0  0
   22.1028    6.8390    0.0000 H   0  0  0  0  0  0  0  0  0  0  0  0
   21.2559    6.6121    0.0000 H   0  0  0  0  0  0  0  0  0  0  0  0
  1  4  1  0  0  0  0
  1  5  1  0  0  0  0
  1 10  1  0  0  0  0
  1 11  2  0  0  0  0
  2 19  1  0  0  0  0
  2 22  1  0  0  0  0
  3 24  1  0  0  0  0
  3 28  1  0  0  0  0
  4 26  1  0  0  0  0
  5 29  1  0  0  0  0
 23  6  1  6  0  0  0
  6 66  1  0  0  0  0
 25  7  1  1  0  0  0
  7 67  1  0  0  0  0
 27  8  1  6  0  0  0
  8 68  1  0  0  0  0
  9 28  1  0  0  0  0
  9 85  1  0  0  0  0
 10 41  1  0  0  0  0
 12 31  2  0  0  0  0
 13 44  2  0  0  0  0
 22 14  1  1  0  0  0
 14 30  1  0  0  0  0
 14 31  1  0  0  0  0
 15 17  2  0  0  0  0
 20 15  1  6  0  0  0
 16 31  1  0  0  0  0
 16 44  1  0  0  0  0
 16 90  1  0  0  0  0
 17 18  2  0  0  0  0
 19 20  1  0  0  0  0
 19 26  1  1  0  0  0
 19 51  1  0  0  0  0
 20 21  1  0  0  0  0
 20 52  1  0  0  0  0
 21 22  1  0  0  0  0
 21 53  1  0  0  0  0
 21 54  1  0  0  0  0
 22 55  1  0  0  0  0
 23 24  1  0  0  0  0
 23 25  1  0  0  0  0
 23 56  1  0  0  0  0
 24 29  1  1  0  0  0
 24 57  1  0  0  0  0
 25 27  1  0  0  0  0
 25 58  1  0  0  0  0
 26 59  1  0  0  0  0
 26 60  1  0  0  0  0
 27 28  1  0  0  0  0
 27 61  1  0  0  0  0
 28 62  1  0  0  0  0
 29 63  1  0  0  0  0
 29 64  1  0  0  0  0
 30 32  2  0  0  0  0
 30 65  1  0  0  0  0
 32 44  1  0  0  0  0
 32 47  1  0  0  0  0
 33 34  1  0  0  0  0
 33 35  1  0  0  0  0
 33 69  1  0  0  0  0
 33 70  1  0  0  0  0
 34 37  1  0  0  0  0
 34 71  1  0  0  0  0
 34 72  1  0  0  0  0
 35 36  1  0  0  0  0
 35 73  1  0  0  0  0
 35 74  1  0  0  0  0
 36 38  1  0  0  0  0
 36 75  1  0  0  0  0
 36 76  1  0  0  0  0
 37 39  1  0  0  0  0
 37 77  1  0  0  0  0
 37 78  1  0  0  0  0
 38 40  1  0  0  0  0
 38 79  1  0  0  0  0
 38 80  1  0  0  0  0
 39 42  1  0  0  0  0
 39 81  1  0  0  0  0
 39 82  1  0  0  0  0
 40 41  1  0  0  0  0
 40 83  1  0  0  0  0
 40 84  1  0  0  0  0
 41 86  1  0  0  0  0
 41 87  1  0  0  0  0
 42 43  1  0  0  0  0
 42 88  1  0  0  0  0
 42 89  1  0  0  0  0
 43 45  1  0  0  0  0
 43 91  1  0  0  0  0
 43 92  1  0  0  0  0
 45 46  1  0  0  0  0
 45 93  1  0  0  0  0
 45 94  1  0  0  0  0
 46 48  1  0  0  0  0
 46 95  1  0  0  0  0
 46 96  1  0  0  0  0
 47 97  1  0  0  0  0
 47 98  1  0  0  0  0
 47 99  1  0  0  0  0
 48 49  1  0  0  0  0
 48100  1  0  0  0  0
 48101  1  0  0  0  0
 49 50  1  0  0  0  0
 49102  1  0  0  0  0
 49103  1  0  0  0  0
 50104  1  0  0  0  0
 50105  1  0  0  0  0
 50106  1  0  0  0  0
M  CHG  2  17   1  18  -1
M  END
> <PUBCHEM_COMPOUND_CID>
503716
> <PUBCHEM_COMPOUND_CANONICALIZED>
1
> <PUBCHEM_CACTVS_COMPLEXITY>
1190
> <PUBCHEM_CACTVS_HBOND_ACCEPTOR>
14
> <PUBCHEM_CACTVS_HBOND_DONOR>
5
> <PUBCHEM_CACTVS_ROTATABLE_BOND>
24
> <PUBCHEM_CACTVS_SUBSKEYS>
AAADcfB/vAIAAAAAAAAAAAAAAAAAASAAAAAkQAAAAAAAAAAAAAAAHgAYCCAADDzxgAcDCAPABxCKQgFWUICAAAAAAAAAAAEIAECTEAIAwQAPQAAPByIHAMHw8KYAAAAAAAAAAAAAAAAAAAAAAAAAAAAAAA==
> <PUBCHEM_IUPAC_OPENEYE_NAME>
[(2S,3S,5R)-3-azido-5-(5-methyl-2,4-dioxo-pyrimidin-1-yl)tetrahydrofuran-2-yl]methyl hexadecyl [(2R,3S,4S,5R)-3,4,5,6-tetrahydroxytetrahydropyran-2-yl]methyl phosphate
> <PUBCHEM_IUPAC_CAS_NAME>
phosphoric acid [(2S,3S,5R)-3-azido-5-(5-methyl-2,4-dioxo-1-pyrimidinyl)-2-oxolanyl]methyl hexadecyl [(2R,3S,4S,5R)-3,4,5,6-tetrahydroxy-2-oxanyl]methyl ester
> <PUBCHEM_IUPAC_NAME_MARKUP>
[(2<I>S</I>,3<I>S</I>,5<I>R</I>)-3-azido-5-(5-methyl-2,4-dioxopyrimidin-1-yl)oxolan-2-yl]methyl hexadecyl [(2<I>R</I>,3<I>S</I>,4<I>S</I>,5<I>R</I>)-3,4,5,6-tetrahydroxyoxan-2-yl]methyl phosphate
> <PUBCHEM_IUPAC_NAME>
[(2S,3S,5R)-3-azido-5-(5-methyl-2,4-dioxopyrimidin-1-yl)oxolan-2-yl]methyl hexadecyl [(2R,3S,4S,5R)-3,4,5,6-tetrahydroxyoxan-2-yl]methyl phosphate
> <PUBCHEM_IUPAC_SYSTEMATIC_NAME>
[(2S,3S,5R)-3-azido-5-[5-methyl-2,4-bis(oxidanylidene)pyrimidin-1-yl]oxolan-2-yl]methyl hexadecyl [(2R,3S,4S,5R)-3,4,5,6-tetrakis(oxidanyl)oxan-2-yl]methyl phosphate
> <PUBCHEM_IUPAC_TRADITIONAL_NAME>
phosphoric acid [(2S,3S,5R)-3-azido-5-(2,4-diketo-5-methyl-pyrimidin-1-yl)tetrahydrofuran-2-yl]methyl cetyl [(2R,3S,4S,5R)-3,4,5,6-tetrahydroxytetrahydropyran-2-yl]methyl ester
> <PUBCHEM_IUPAC_INCHI>
InChI=1S/C32H56N5O12P/c1-3-4-5-6-7-8-9-10-11-12-13-14-15-16-17-45-50(44,47-21-25-27(38)28(39)29(40)31(42)49-25)46-20-24-23(35-36-33)18-26(48-24)37-19-22(2)30(41)34-32(37)43/h19,23-29,31,38-40,42H,3-18,20-21H2,1-2H3,(H,34,41,43)/t23-,24+,25+,26+,27+,28-,29+,31?,50?/m0/s1
> <PUBCHEM_IUPAC_INCHIKEY>
FRJDGOLIAMLJSO-ORGDEWOSSA-N
> <PUBCHEM_XLOGP3>
5.1
> <PUBCHEM_EXACT_MASS>
733.36630924
> <PUBCHEM_MOLECULAR_FORMULA>
C32H56N5O12P
> <PUBCHEM_MOLECULAR_WEIGHT>
733.8
> <PUBCHEM_OPENEYE_CAN_SMILES>
CCCCCCCCCCCCCCCCOP(=O)(OCC1C(CC(O1)N2C=C(C(=O)NC2=O)C)N=[N+]=[N-])OCC3C(C(C(C(O3)O)O)O)O
> <PUBCHEM_OPENEYE_ISO_SMILES>
CCCCCCCCCCCCCCCCOP(=O)(OC[C@@H]1[C@H](C[C@@H](O1)N2C=C(C(=O)NC2=O)C)N=[N+]=[N-])OC[C@@H]3[C@H]([C@@H]([C@H](C(O3)O)O)O)O
> <PUBCHEM_CACTVS_TPSA>
208
> <PUBCHEM_MONOISOTOPIC_WEIGHT>
733.36630924
> <PUBCHEM_TOTAL_CHARGE>
0
> <PUBCHEM_HEAVY_ATOM_COUNT>
50
> <PUBCHEM_ATOM_DEF_STEREO_COUNT>
7
> <PUBCHEM_ATOM_UDEF_STEREO_COUNT>
2
> <PUBCHEM_BOND_DEF_STEREO_COUNT>
0
> <PUBCHEM_BOND_UDEF_STEREO_COUNT>
0
> <PUBCHEM_ISOTOPIC_ATOM_COUNT>
0
> <PUBCHEM_COMPONENT_COUNT>
1
> <PUBCHEM_CACTVS_TAUTO_COUNT>
-1
> <PUBCHEM_COORDINATE_TYPE>
1
5
255
> <PUBCHEM_BONDANNOTATIONS>
1  10  3
22  14  5
14  30  8
14  31  8
20  15  6
16  31  8
16  44  8
19  26  5
24  29  5
30  32  8
32  44  8
23  6  6
25  7  5
27  8  6
28  9  3
$$$$
