503737
  -OEChem-10302200282D
 52 55  0     1  0  0  0  0  0999 V2000
    4.2690   -2.4276    0.0000 O   0  0  0  0  0  0  0  0  0  0  0  0
    6.0010   -2.4276    0.0000 O   0  0  0  0  0  0  0  0  0  0  0  0
    4.2690   -5.4276    0.0000 O   0  0  0  0  0  0  0  0  0  0  0  0
    2.5369   -4.4276    0.0000 O   0  0  0  0  0  0  0  0  0  0  0  0
    6.0010   -4.4276    0.0000 O   0  0  0  0  0  0  0  0  0  0  0  0
    2.5369   -1.4276    0.0000 O   0  0  0  0  0  0  0  0  0  0  0  0
    6.8671    2.0724    0.0000 O   0  0  0  0  0  0  0  0  0  0  0  0
    4.2690    3.5724    0.0000 O   0  0  0  0  0  0  0  0  0  0  0  0
    8.6530    5.1175    0.0000 O   0  0  0  0  0  0  0  0  0  0  0  0
    4.2690   -4.4276    0.0000 C   0  0  1  0  0  0  0  0  0  0  0  0
    3.4030   -3.9276    0.0000 C   0  0  1  0  0  0  0  0  0  0  0  0
    5.1350   -3.9276    0.0000 C   0  0  2  0  0  0  0  0  0  0  0  0
    3.4030   -2.9276    0.0000 C   0  0  1  0  0  0  0  0  0  0  0  0
    5.1350   -2.9276    0.0000 C   0  0  1  0  0  0  0  0  0  0  0  0
    2.5369   -2.4276    0.0000 C   0  0  0  0  0  0  0  0  0  0  0  0
    6.0010    1.5724    0.0000 C   0  0  2  0  0  0  0  0  0  0  0  0
    6.0010   -1.4276    0.0000 C   0  0  0  0  0  0  0  0  0  0  0  0
    6.0010    0.5724    0.0000 C   0  0  0  0  0  0  0  0  0  0  0  0
    5.1350    2.0724    0.0000 C   0  0  0  0  0  0  0  0  0  0  0  0
    6.8671   -0.9276    0.0000 C   0  0  0  0  0  0  0  0  0  0  0  0
    5.1350   -0.9276    0.0000 C   0  0  0  0  0  0  0  0  0  0  0  0
    6.8671    0.0725    0.0000 C   0  0  0  0  0  0  0  0  0  0  0  0
    5.1350    0.0725    0.0000 C   0  0  0  0  0  0  0  0  0  0  0  0
    5.1350    3.0724    0.0000 C   0  0  0  0  0  0  0  0  0  0  0  0
    6.0010    3.5724    0.0000 C   0  0  0  0  0  0  0  0  0  0  0  0
    6.8671    3.0724    0.0000 C   0  0  0  0  0  0  0  0  0  0  0  0
    5.9850    4.6140    0.0000 C   0  0  0  0  0  0  0  0  0  0  0  0
    7.7771    3.5793    0.0000 C   0  0  0  0  0  0  0  0  0  0  0  0
    7.7851    4.6209    0.0000 C   0  0  0  0  0  0  0  0  0  0  0  0
    6.8830    5.1417    0.0000 C   0  0  0  0  0  0  0  0  0  0  0  0
    4.8059   -4.7376    0.0000 H   0  0  0  0  0  0  0  0  0  0  0  0
    2.8660   -3.6176    0.0000 H   0  0  0  0  0  0  0  0  0  0  0  0
    5.6720   -3.6176    0.0000 H   0  0  0  0  0  0  0  0  0  0  0  0
    3.4030   -2.3076    0.0000 H   0  0  0  0  0  0  0  0  0  0  0  0
    5.1350   -2.3076    0.0000 H   0  0  0  0  0  0  0  0  0  0  0  0
    1.9264   -2.3199    0.0000 H   0  0  0  0  0  0  0  0  0  0  0  0
    2.3249   -3.0102    0.0000 H   0  0  0  0  0  0  0  0  0  0  0  0
    3.7320   -5.7376    0.0000 H   0  0  0  0  0  0  0  0  0  0  0  0
    2.0000   -4.1175    0.0000 H   0  0  0  0  0  0  0  0  0  0  0  0
    6.5380   -4.1175    0.0000 H   0  0  0  0  0  0  0  0  0  0  0  0
    6.5380    1.2624    0.0000 H   0  0  0  0  0  0  0  0  0  0  0  0
    4.5244    2.1801    0.0000 H   0  0  0  0  0  0  0  0  0  0  0  0
    4.9230    1.4898    0.0000 H   0  0  0  0  0  0  0  0  0  0  0  0
    7.4040   -1.2376    0.0000 H   0  0  0  0  0  0  0  0  0  0  0  0
    4.5981   -1.2376    0.0000 H   0  0  0  0  0  0  0  0  0  0  0  0
    2.0000   -1.1176    0.0000 H   0  0  0  0  0  0  0  0  0  0  0  0
    7.4040    0.3824    0.0000 H   0  0  0  0  0  0  0  0  0  0  0  0
    4.5981    0.3824    0.0000 H   0  0  0  0  0  0  0  0  0  0  0  0
    5.4445    4.9177    0.0000 H   0  0  0  0  0  0  0  0  0  0  0  0
    8.3104    3.2631    0.0000 H   0  0  0  0  0  0  0  0  0  0  0  0
    6.8806    5.7617    0.0000 H   0  0  0  0  0  0  0  0  0  0  0  0
    8.6554    5.7376    0.0000 H   0  0  0  0  0  0  0  0  0  0  0  0
  1 13  1  0  0  0  0
  1 14  1  0  0  0  0
 14  2  1  1  0  0  0
  2 17  1  0  0  0  0
 10  3  1  1  0  0  0
  3 38  1  0  0  0  0
 11  4  1  6  0  0  0
  4 39  1  0  0  0  0
 12  5  1  6  0  0  0
  5 40  1  0  0  0  0
  6 15  1  0  0  0  0
  6 46  1  0  0  0  0
  7 16  1  0  0  0  0
  7 26  1  0  0  0  0
  8 24  2  0  0  0  0
  9 29  1  0  0  0  0
  9 52  1  0  0  0  0
 10 11  1  0  0  0  0
 10 12  1  0  0  0  0
 10 31  1  0  0  0  0
 11 13  1  0  0  0  0
 11 32  1  0  0  0  0
 12 14  1  0  0  0  0
 12 33  1  0  0  0  0
 13 15  1  1  0  0  0
 13 34  1  0  0  0  0
 14 35  1  0  0  0  0
 15 36  1  0  0  0  0
 15 37  1  0  0  0  0
 16 18  1  6  0  0  0
 16 19  1  0  0  0  0
 16 41  1  0  0  0  0
 17 20  2  0  0  0  0
 17 21  1  0  0  0  0
 18 22  2  0  0  0  0
 18 23  1  0  0  0  0
 19 24  1  0  0  0  0
 19 42  1  0  0  0  0
 19 43  1  0  0  0  0
 20 22  1  0  0  0  0
 20 44  1  0  0  0  0
 21 23  2  0  0  0  0
 21 45  1  0  0  0  0
 22 47  1  0  0  0  0
 23 48  1  0  0  0  0
 24 25  1  0  0  0  0
 25 26  2  0  0  0  0
 25 27  1  0  0  0  0
 26 28  1  0  0  0  0
 27 30  2  0  0  0  0
 27 49  1  0  0  0  0
 28 29  2  0  0  0  0
 28 50  1  0  0  0  0
 29 30  1  0  0  0  0
 30 51  1  0  0  0  0
M  END
> <PUBCHEM_COMPOUND_CID>
503737
> <PUBCHEM_COMPOUND_CANONICALIZED>
1
> <PUBCHEM_CACTVS_COMPLEXITY>
593
> <PUBCHEM_CACTVS_HBOND_ACCEPTOR>
9
> <PUBCHEM_CACTVS_HBOND_DONOR>
5
> <PUBCHEM_CACTVS_ROTATABLE_BOND>
4
> <PUBCHEM_CACTVS_SUBSKEYS>
AAADceB4PAAAAAAAAAAAAAAAAAAAAAAAAAA0aIEAAAAAAACRQAAAGgAACAAADBSwmAMwDoAABgCIAqBSAAACCAAkIAAIiAEGCMgdNzaGNRqieWCl4BUPuYfI7OzOIAAACAAIAABAAAAQABAAAAAAAAAAAA==
> <PUBCHEM_IUPAC_OPENEYE_NAME>
(2S)-7-hydroxy-2-[4-[(2S,3R,4S,5S,6R)-3,4,5-trihydroxy-6-(hydroxymethyl)tetrahydropyran-2-yl]oxyphenyl]chroman-4-one
> <PUBCHEM_IUPAC_CAS_NAME>
(2S)-7-hydroxy-2-[4-[[(2S,3R,4S,5S,6R)-3,4,5-trihydroxy-6-(hydroxymethyl)-2-oxanyl]oxy]phenyl]-3,4-dihydro-2H-1-benzopyran-4-one
> <PUBCHEM_IUPAC_NAME_MARKUP>
(2<I>S</I>)-7-hydroxy-2-[4-[(2<I>S</I>,3<I>R</I>,4<I>S</I>,5<I>S</I>,6<I>R</I>)-3,4,5-trihydroxy-6-(hydroxymethyl)oxan-2-yl]oxyphenyl]-2,3-dihydrochromen-4-one
> <PUBCHEM_IUPAC_NAME>
(2S)-7-hydroxy-2-[4-[(2S,3R,4S,5S,6R)-3,4,5-trihydroxy-6-(hydroxymethyl)oxan-2-yl]oxyphenyl]-2,3-dihydrochromen-4-one
> <PUBCHEM_IUPAC_SYSTEMATIC_NAME>
(2S)-2-[4-[(2S,3R,4S,5S,6R)-6-(hydroxymethyl)-3,4,5-tris(oxidanyl)oxan-2-yl]oxyphenyl]-7-oxidanyl-2,3-dihydrochromen-4-one
> <PUBCHEM_IUPAC_TRADITIONAL_NAME>
(2S)-7-hydroxy-2-[4-[(2S,3R,4S,5S,6R)-3,4,5-trihydroxy-6-methylol-tetrahydropyran-2-yl]oxyphenyl]chroman-4-one
> <PUBCHEM_IUPAC_INCHI>
InChI=1S/C21H22O9/c22-9-17-18(25)19(26)20(27)21(30-17)28-12-4-1-10(2-5-12)15-8-14(24)13-6-3-11(23)7-16(13)29-15/h1-7,15,17-23,25-27H,8-9H2/t15-,17+,18+,19-,20+,21+/m0/s1
> <PUBCHEM_IUPAC_INCHIKEY>
DEMKZLAVQYISIA-ZRWXNEIDSA-N
> <PUBCHEM_XLOGP3_AA>
0.4
> <PUBCHEM_EXACT_MASS>
418.12638228
> <PUBCHEM_MOLECULAR_FORMULA>
C21H22O9
> <PUBCHEM_MOLECULAR_WEIGHT>
418.4
> <PUBCHEM_OPENEYE_CAN_SMILES>
C1C(OC2=C(C1=O)C=CC(=C2)O)C3=CC=C(C=C3)OC4C(C(C(C(O4)CO)O)O)O
> <PUBCHEM_OPENEYE_ISO_SMILES>
C1[C@H](OC2=C(C1=O)C=CC(=C2)O)C3=CC=C(C=C3)O[C@H]4[C@@H]([C@H]([C@@H]([C@H](O4)CO)O)O)O
> <PUBCHEM_CACTVS_TPSA>
146
> <PUBCHEM_MONOISOTOPIC_WEIGHT>
418.12638228
> <PUBCHEM_TOTAL_CHARGE>
0
> <PUBCHEM_HEAVY_ATOM_COUNT>
30
> <PUBCHEM_ATOM_DEF_STEREO_COUNT>
6
> <PUBCHEM_ATOM_UDEF_STEREO_COUNT>
0
> <PUBCHEM_BOND_DEF_STEREO_COUNT>
0
> <PUBCHEM_BOND_UDEF_STEREO_COUNT>
0
> <PUBCHEM_ISOTOPIC_ATOM_COUNT>
0
> <PUBCHEM_COMPONENT_COUNT>
1
> <PUBCHEM_CACTVS_TAUTO_COUNT>
9
> <PUBCHEM_COORDINATE_TYPE>
1
5
255
> <PUBCHEM_BONDANNOTATIONS>
13  15  5
16  18  6
17  20  8
17  21  8
18  22  8
18  23  8
14  2  5
20  22  8
21  23  8
25  26  8
25  27  8
26  28  8
27  30  8
28  29  8
29  30  8
10  3  5
11  4  6
12  5  6
$$$$
