503759
  -OEChem-10302200282D
 31 33  0     1  0  0  0  0  0999 V2000
    7.8356   -0.9529    0.0000 Cl  0  0  0  0  0  0  0  0  0  0  0  0
    2.0000   -0.4355    0.0000 Cl  0  0  0  0  0  0  0  0  0  0  0  0
    2.7202    2.9529    0.0000 Cl  0  0  0  0  0  0  0  0  0  0  0  0
    6.9126    0.6349    0.0000 S   0  0  0  0  0  0  0  0  0  0  0  0
    4.2376   -1.4529    0.0000 F   0  0  0  0  0  0  0  0  0  0  0  0
    5.0158    2.3950    0.0000 O   0  0  0  0  0  0  0  0  0  0  0  0
    5.2946    0.6349    0.0000 N   0  0  0  0  0  0  0  0  0  0  0  0
    6.1036    0.0471    0.0000 C   0  0  3  0  0  0  0  0  0  0  0  0
    6.1036   -0.9529    0.0000 C   0  0  0  0  0  0  0  0  0  0  0  0
    6.6036    1.5860    0.0000 C   0  0  0  0  0  0  0  0  0  0  0  0
    5.6036    1.5860    0.0000 C   0  0  0  0  0  0  0  0  0  0  0  0
    4.3164    0.8429    0.0000 C   0  0  0  0  0  0  0  0  0  0  0  0
    6.9696   -1.4529    0.0000 C   0  0  0  0  0  0  0  0  0  0  0  0
    5.2376   -1.4529    0.0000 C   0  0  0  0  0  0  0  0  0  0  0  0
    4.0074    1.7939    0.0000 C   0  0  0  0  0  0  0  0  0  0  0  0
    3.6473    0.0997    0.0000 C   0  0  0  0  0  0  0  0  0  0  0  0
    6.9696   -2.4529    0.0000 C   0  0  0  0  0  0  0  0  0  0  0  0
    5.2376   -2.4529    0.0000 C   0  0  0  0  0  0  0  0  0  0  0  0
    2.6691    0.3076    0.0000 C   0  0  0  0  0  0  0  0  0  0  0  0
    3.0292    2.0018    0.0000 C   0  0  0  0  0  0  0  0  0  0  0  0
    6.1036   -2.9529    0.0000 C   0  0  0  0  0  0  0  0  0  0  0  0
    2.3601    1.2587    0.0000 C   0  0  0  0  0  0  0  0  0  0  0  0
    5.5512   -0.2343    0.0000 H   0  0  0  0  0  0  0  0  0  0  0  0
    7.2100    1.7149    0.0000 H   0  0  0  0  0  0  0  0  0  0  0  0
    6.5388    2.2026    0.0000 H   0  0  0  0  0  0  0  0  0  0  0  0
    4.4222    2.2546    0.0000 H   0  0  0  0  0  0  0  0  0  0  0  0
    3.8389   -0.4900    0.0000 H   0  0  0  0  0  0  0  0  0  0  0  0
    7.5065   -2.7629    0.0000 H   0  0  0  0  0  0  0  0  0  0  0  0
    4.7006   -2.7629    0.0000 H   0  0  0  0  0  0  0  0  0  0  0  0
    6.1036   -3.5729    0.0000 H   0  0  0  0  0  0  0  0  0  0  0  0
    1.7537    1.3876    0.0000 H   0  0  0  0  0  0  0  0  0  0  0  0
  1 13  1  0  0  0  0
  2 19  1  0  0  0  0
  3 20  1  0  0  0  0
  4  8  1  0  0  0  0
  4 10  1  0  0  0  0
  5 14  1  0  0  0  0
  6 11  2  0  0  0  0
  7  8  1  0  0  0  0
  7 11  1  0  0  0  0
  7 12  1  0  0  0  0
  8  9  1  0  0  0  0
  8 23  1  0  0  0  0
  9 13  1  0  0  0  0
  9 14  2  0  0  0  0
 10 11  1  0  0  0  0
 10 24  1  0  0  0  0
 10 25  1  0  0  0  0
 12 15  2  0  0  0  0
 12 16  1  0  0  0  0
 13 17  2  0  0  0  0
 14 18  1  0  0  0  0
 15 20  1  0  0  0  0
 15 26  1  0  0  0  0
 16 19  2  0  0  0  0
 16 27  1  0  0  0  0
 17 21  1  0  0  0  0
 17 28  1  0  0  0  0
 18 21  2  0  0  0  0
 18 29  1  0  0  0  0
 19 22  1  0  0  0  0
 20 22  2  0  0  0  0
 21 30  1  0  0  0  0
 22 31  1  0  0  0  0
M  END
> <PUBCHEM_COMPOUND_CID>
503759
> <PUBCHEM_COMPOUND_CANONICALIZED>
1
> <PUBCHEM_CACTVS_COMPLEXITY>
420
> <PUBCHEM_CACTVS_HBOND_ACCEPTOR>
3
> <PUBCHEM_CACTVS_HBOND_DONOR>
0
> <PUBCHEM_CACTVS_ROTATABLE_BOND>
2
> <PUBCHEM_CACTVS_SUBSKEYS>
AAADccByIQBGAAAAAAAAAAAAAAAAAWAAAAAwYAAAAAAAAAABQAAAHwYAAAAADArF2CywwIMAAAiIAiVSUACCAABhBxAIiAAIZogIICLhk5GEIAhghgDoyAcQgAAOAAAAAAKBAAAAAAAABQIAAAAAAAAAAA==
> <PUBCHEM_IUPAC_OPENEYE_NAME>
2-(2-chloro-6-fluoro-phenyl)-3-(3,5-dichlorophenyl)thiazolidin-4-one
> <PUBCHEM_IUPAC_CAS_NAME>
2-(2-chloro-6-fluorophenyl)-3-(3,5-dichlorophenyl)-4-thiazolidinone
> <PUBCHEM_IUPAC_NAME_MARKUP>
2-(2-chloro-6-fluorophenyl)-3-(3,5-dichlorophenyl)-1,3-thiazolidin-4-one
> <PUBCHEM_IUPAC_NAME>
2-(2-chloro-6-fluorophenyl)-3-(3,5-dichlorophenyl)-1,3-thiazolidin-4-one
> <PUBCHEM_IUPAC_SYSTEMATIC_NAME>
3-[3,5-bis(chloranyl)phenyl]-2-(2-chloranyl-6-fluoranyl-phenyl)-1,3-thiazolidin-4-one
> <PUBCHEM_IUPAC_TRADITIONAL_NAME>
2-(2-chloro-6-fluoro-phenyl)-3-(3,5-dichlorophenyl)thiazolidin-4-one
> <PUBCHEM_IUPAC_INCHI>
InChI=1S/C15H9Cl3FNOS/c16-8-4-9(17)6-10(5-8)20-13(21)7-22-15(20)14-11(18)2-1-3-12(14)19/h1-6,15H,7H2
> <PUBCHEM_IUPAC_INCHIKEY>
XDJGIHRALBWMMS-UHFFFAOYSA-N
> <PUBCHEM_XLOGP3_AA>
5.3
> <PUBCHEM_EXACT_MASS>
374.945446
> <PUBCHEM_MOLECULAR_FORMULA>
C15H9Cl3FNOS
> <PUBCHEM_MOLECULAR_WEIGHT>
376.7
> <PUBCHEM_OPENEYE_CAN_SMILES>
C1C(=O)N(C(S1)C2=C(C=CC=C2Cl)F)C3=CC(=CC(=C3)Cl)Cl
> <PUBCHEM_OPENEYE_ISO_SMILES>
C1C(=O)N(C(S1)C2=C(C=CC=C2Cl)F)C3=CC(=CC(=C3)Cl)Cl
> <PUBCHEM_CACTVS_TPSA>
45.6
> <PUBCHEM_MONOISOTOPIC_WEIGHT>
374.945446
> <PUBCHEM_TOTAL_CHARGE>
0
> <PUBCHEM_HEAVY_ATOM_COUNT>
22
> <PUBCHEM_ATOM_DEF_STEREO_COUNT>
0
> <PUBCHEM_ATOM_UDEF_STEREO_COUNT>
1
> <PUBCHEM_BOND_DEF_STEREO_COUNT>
0
> <PUBCHEM_BOND_UDEF_STEREO_COUNT>
0
> <PUBCHEM_ISOTOPIC_ATOM_COUNT>
0
> <PUBCHEM_COMPONENT_COUNT>
1
> <PUBCHEM_CACTVS_TAUTO_COUNT>
-1
> <PUBCHEM_COORDINATE_TYPE>
1
5
255
> <PUBCHEM_BONDANNOTATIONS>
12  15  8
12  16  8
13  17  8
14  18  8
15  20  8
16  19  8
17  21  8
18  21  8
19  22  8
20  22  8
8  9  3
9  13  8
9  14  8
$$$$
