503799
  -OEChem-10302200282D
 96 99  0     1  0  0  0  0  0999 V2000
   14.3028   -2.0285    0.0000 O   0  0  0  0  0  0  0  0  0  0  0  0
    4.7092    1.5103    0.0000 O   0  0  0  0  0  0  0  0  0  0  0  0
   10.6221    0.6739    0.0000 O   0  0  0  0  0  0  0  0  0  0  0  0
    8.0240   -1.8261    0.0000 O   0  0  0  0  0  0  0  0  0  0  0  0
    9.7560   -1.8261    0.0000 O   0  0  0  0  0  0  0  0  0  0  0  0
    8.8900    0.6739    0.0000 O   0  0  0  0  0  0  0  0  0  0  0  0
   16.3851   -1.8670    0.0000 O   0  0  0  0  0  0  0  0  0  0  0  0
    3.8080    3.3944    0.0000 O   0  0  0  0  0  0  0  0  0  0  0  0
   11.4881   -1.8261    0.0000 O   0  0  0  0  0  0  0  0  0  0  0  0
    6.2919   -0.8261    0.0000 O   0  0  0  0  0  0  0  0  0  0  0  0
   12.3541   -0.3261    0.0000 N   0  0  0  0  0  0  0  0  0  0  0  0
    7.1580    0.6739    0.0000 N   0  0  0  0  0  0  0  0  0  0  0  0
   13.2201   -0.8261    0.0000 C   0  0  3  0  0  0  0  0  0  0  0  0
    6.2919    1.1739    0.0000 C   0  0  1  0  0  0  0  0  0  0  0  0
   14.1337   -0.4193    0.0000 C   0  0  0  0  0  0  0  0  0  0  0  0
    6.1874    2.1685    0.0000 C   0  0  0  0  0  0  0  0  0  0  0  0
   14.8028   -1.1625    0.0000 C   0  0  1  0  0  0  0  0  0  0  0  0
    5.2092    2.3764    0.0000 C   0  0  1  0  0  0  0  0  0  0  0  0
   13.3247   -1.8206    0.0000 C   0  0  0  0  0  0  0  0  0  0  0  0
    5.3784    0.7672    0.0000 C   0  0  0  0  0  0  0  0  0  0  0  0
    9.7560   -0.8261    0.0000 C   0  0  2  0  0  0  0  0  0  0  0  0
    8.8900   -0.3261    0.0000 C   0  0  2  0  0  0  0  0  0  0  0  0
   10.6221   -0.3261    0.0000 C   0  0  2  0  0  0  0  0  0  0  0  0
    8.0240   -0.8261    0.0000 C   0  0  2  0  0  0  0  0  0  0  0  0
   15.7973   -1.0579    0.0000 C   0  0  0  0  0  0  0  0  0  0  0  0
    4.8025    3.2899    0.0000 C   0  0  0  0  0  0  0  0  0  0  0  0
   11.4881   -0.8261    0.0000 C   0  0  0  0  0  0  0  0  0  0  0  0
    7.1580   -0.3261    0.0000 C   0  0  0  0  0  0  0  0  0  0  0  0
   11.4881    1.1739    0.0000 C   0  0  0  0  0  0  0  0  0  0  0  0
    7.1580   -2.3261    0.0000 C   0  0  0  0  0  0  0  0  0  0  0  0
   17.3796   -1.7624    0.0000 C   0  0  0  0  0  0  0  0  0  0  0  0
    3.4013    4.3080    0.0000 C   0  0  0  0  0  0  0  0  0  0  0  0
   11.4881    2.1739    0.0000 C   0  0  0  0  0  0  0  0  0  0  0  0
    7.1580   -3.3261    0.0000 C   0  0  0  0  0  0  0  0  0  0  0  0
   17.9674   -2.5714    0.0000 C   0  0  0  0  0  0  0  0  0  0  0  0
    2.4067    4.4125    0.0000 C   0  0  0  0  0  0  0  0  0  0  0  0
   12.3541    2.6739    0.0000 C   0  0  0  0  0  0  0  0  0  0  0  0
   10.6221    2.6739    0.0000 C   0  0  0  0  0  0  0  0  0  0  0  0
    8.0240   -3.8261    0.0000 C   0  0  0  0  0  0  0  0  0  0  0  0
    6.2919   -3.8261    0.0000 C   0  0  0  0  0  0  0  0  0  0  0  0
   12.3541    3.6739    0.0000 C   0  0  0  0  0  0  0  0  0  0  0  0
   10.6221    3.6739    0.0000 C   0  0  0  0  0  0  0  0  0  0  0  0
    8.0240   -4.8261    0.0000 C   0  0  0  0  0  0  0  0  0  0  0  0
    6.2919   -4.8261    0.0000 C   0  0  0  0  0  0  0  0  0  0  0  0
   18.9619   -2.4669    0.0000 C   0  0  0  0  0  0  0  0  0  0  0  0
    2.0000    5.3261    0.0000 C   0  0  0  0  0  0  0  0  0  0  0  0
   11.4881    4.1739    0.0000 C   0  0  0  0  0  0  0  0  0  0  0  0
    7.1580   -5.3261    0.0000 C   0  0  0  0  0  0  0  0  0  0  0  0
   12.7002   -1.1637    0.0000 H   0  0  0  0  0  0  0  0  0  0  0  0
    6.2595    0.5548    0.0000 H   0  0  0  0  0  0  0  0  0  0  0  0
   14.6353   -0.0549    0.0000 H   0  0  0  0  0  0  0  0  0  0  0  0
   13.8237    0.1176    0.0000 H   0  0  0  0  0  0  0  0  0  0  0  0
    6.8074    2.1685    0.0000 H   0  0  0  0  0  0  0  0  0  0  0  0
    6.2522    2.7851    0.0000 H   0  0  0  0  0  0  0  0  0  0  0  0
   15.1405   -1.6824    0.0000 H   0  0  0  0  0  0  0  0  0  0  0  0
    4.5901    2.4088    0.0000 H   0  0  0  0  0  0  0  0  0  0  0  0
   12.7047   -1.8206    0.0000 H   0  0  0  0  0  0  0  0  0  0  0  0
   13.2599   -2.4372    0.0000 H   0  0  0  0  0  0  0  0  0  0  0  0
    4.8768    0.4028    0.0000 H   0  0  0  0  0  0  0  0  0  0  0  0
    5.6884    0.2303    0.0000 H   0  0  0  0  0  0  0  0  0  0  0  0
    9.2191   -1.1361    0.0000 H   0  0  0  0  0  0  0  0  0  0  0  0
    9.4269   -0.0161    0.0000 H   0  0  0  0  0  0  0  0  0  0  0  0
   12.3541    0.2939    0.0000 H   0  0  0  0  0  0  0  0  0  0  0  0
    7.6949    0.9839    0.0000 H   0  0  0  0  0  0  0  0  0  0  0  0
   11.1590   -0.0161    0.0000 H   0  0  0  0  0  0  0  0  0  0  0  0
    7.4870   -1.1361    0.0000 H   0  0  0  0  0  0  0  0  0  0  0  0
   16.3546   -0.7862    0.0000 H   0  0  0  0  0  0  0  0  0  0  0  0
   15.6264   -0.4620    0.0000 H   0  0  0  0  0  0  0  0  0  0  0  0
    5.4041    3.4399    0.0000 H   0  0  0  0  0  0  0  0  0  0  0  0
    4.7593    3.9084    0.0000 H   0  0  0  0  0  0  0  0  0  0  0  0
   10.2930   -2.1361    0.0000 H   0  0  0  0  0  0  0  0  0  0  0  0
    9.4269    0.9839    0.0000 H   0  0  0  0  0  0  0  0  0  0  0  0
   11.7001    0.5913    0.0000 H   0  0  0  0  0  0  0  0  0  0  0  0
   12.0987    1.2816    0.0000 H   0  0  0  0  0  0  0  0  0  0  0  0
    6.9459   -1.7434    0.0000 H   0  0  0  0  0  0  0  0  0  0  0  0
    6.5474   -2.4337    0.0000 H   0  0  0  0  0  0  0  0  0  0  0  0
   17.9369   -1.4906    0.0000 H   0  0  0  0  0  0  0  0  0  0  0  0
   17.2087   -1.1664    0.0000 H   0  0  0  0  0  0  0  0  0  0  0  0
    4.0028    4.4580    0.0000 H   0  0  0  0  0  0  0  0  0  0  0  0
    3.3580    4.9265    0.0000 H   0  0  0  0  0  0  0  0  0  0  0  0
   17.7152   -3.1378    0.0000 H   0  0  0  0  0  0  0  0  0  0  0  0
    2.0423    3.9109    0.0000 H   0  0  0  0  0  0  0  0  0  0  0  0
   12.8910    2.3639    0.0000 H   0  0  0  0  0  0  0  0  0  0  0  0
   10.0851    2.3639    0.0000 H   0  0  0  0  0  0  0  0  0  0  0  0
    8.5609   -3.5161    0.0000 H   0  0  0  0  0  0  0  0  0  0  0  0
    5.7550   -3.5161    0.0000 H   0  0  0  0  0  0  0  0  0  0  0  0
   12.8910    3.9839    0.0000 H   0  0  0  0  0  0  0  0  0  0  0  0
   10.0851    3.9839    0.0000 H   0  0  0  0  0  0  0  0  0  0  0  0
    8.5609   -5.1361    0.0000 H   0  0  0  0  0  0  0  0  0  0  0  0
    5.7550   -5.1361    0.0000 H   0  0  0  0  0  0  0  0  0  0  0  0
   19.3264   -2.9685    0.0000 H   0  0  0  0  0  0  0  0  0  0  0  0
   19.2141   -1.9005    0.0000 H   0  0  0  0  0  0  0  0  0  0  0  0
    2.3644    5.8276    0.0000 H   0  0  0  0  0  0  0  0  0  0  0  0
    1.3834    5.3909    0.0000 H   0  0  0  0  0  0  0  0  0  0  0  0
   11.4881    4.7939    0.0000 H   0  0  0  0  0  0  0  0  0  0  0  0
    7.1580   -5.9461    0.0000 H   0  0  0  0  0  0  0  0  0  0  0  0
  1 17  1  0  0  0  0
  1 19  1  0  0  0  0
  2 18  1  0  0  0  0
  2 20  1  0  0  0  0
 23  3  1  1  0  0  0
  3 29  1  0  0  0  0
 24  4  1  1  0  0  0
  4 30  1  0  0  0  0
 21  5  1  6  0  0  0
  5 71  1  0  0  0  0
 22  6  1  6  0  0  0
  6 72  1  0  0  0  0
  7 25  1  0  0  0  0
  7 31  1  0  0  0  0
  8 26  1  0  0  0  0
  8 32  1  0  0  0  0
  9 27  2  0  0  0  0
 10 28  2  0  0  0  0
 11 13  1  0  0  0  0
 11 27  1  0  0  0  0
 11 63  1  0  0  0  0
 14 12  1  6  0  0  0
 12 28  1  0  0  0  0
 12 64  1  0  0  0  0
 13 15  1  0  0  0  0
 13 19  1  0  0  0  0
 13 49  1  0  0  0  0
 14 16  1  0  0  0  0
 14 20  1  0  0  0  0
 14 50  1  0  0  0  0
 15 17  1  0  0  0  0
 15 51  1  0  0  0  0
 15 52  1  0  0  0  0
 16 18  1  0  0  0  0
 16 53  1  0  0  0  0
 16 54  1  0  0  0  0
 17 25  1  1  0  0  0
 17 55  1  0  0  0  0
 18 26  1  6  0  0  0
 18 56  1  0  0  0  0
 19 57  1  0  0  0  0
 19 58  1  0  0  0  0
 20 59  1  0  0  0  0
 20 60  1  0  0  0  0
 21 22  1  0  0  0  0
 21 23  1  0  0  0  0
 21 61  1  0  0  0  0
 22 24  1  0  0  0  0
 22 62  1  0  0  0  0
 23 27  1  0  0  0  0
 23 65  1  0  0  0  0
 24 28  1  0  0  0  0
 24 66  1  0  0  0  0
 25 67  1  0  0  0  0
 25 68  1  0  0  0  0
 26 69  1  0  0  0  0
 26 70  1  0  0  0  0
 29 33  1  0  0  0  0
 29 73  1  0  0  0  0
 29 74  1  0  0  0  0
 30 34  1  0  0  0  0
 30 75  1  0  0  0  0
 30 76  1  0  0  0  0
 31 35  1  0  0  0  0
 31 77  1  0  0  0  0
 31 78  1  0  0  0  0
 32 36  1  0  0  0  0
 32 79  1  0  0  0  0
 32 80  1  0  0  0  0
 33 37  2  0  0  0  0
 33 38  1  0  0  0  0
 34 39  2  0  0  0  0
 34 40  1  0  0  0  0
 35 45  2  0  0  0  0
 35 81  1  0  0  0  0
 36 46  2  0  0  0  0
 36 82  1  0  0  0  0
 37 41  1  0  0  0  0
 37 83  1  0  0  0  0
 38 42  2  0  0  0  0
 38 84  1  0  0  0  0
 39 43  1  0  0  0  0
 39 85  1  0  0  0  0
 40 44  2  0  0  0  0
 40 86  1  0  0  0  0
 41 47  2  0  0  0  0
 41 87  1  0  0  0  0
 42 47  1  0  0  0  0
 42 88  1  0  0  0  0
 43 48  2  0  0  0  0
 43 89  1  0  0  0  0
 44 48  1  0  0  0  0
 44 90  1  0  0  0  0
 45 91  1  0  0  0  0
 45 92  1  0  0  0  0
 46 93  1  0  0  0  0
 46 94  1  0  0  0  0
 47 95  1  0  0  0  0
 48 96  1  0  0  0  0
M  END
> <PUBCHEM_COMPOUND_CID>
503799
> <PUBCHEM_COMPOUND_CANONICALIZED>
1
> <PUBCHEM_CACTVS_COMPLEXITY>
896
> <PUBCHEM_CACTVS_HBOND_ACCEPTOR>
10
> <PUBCHEM_CACTVS_HBOND_DONOR>
4
> <PUBCHEM_CACTVS_ROTATABLE_BOND>
21
> <PUBCHEM_CACTVS_SUBSKEYS>
AAADcfB/PAAAAAAAAAAAAAAAAAAAASJAAAAwYAAAAAAAAAABQAAAHgAQCAAADDzhmAYwAILABgCIAiFSEAICAAAgAAAIiIFICIgLNjaAsRyHcAAn9gGbqAf6/CpOAAAAAAAAAAAAAAAAAAAAAAAAAAAAAA==
> <PUBCHEM_IUPAC_OPENEYE_NAME>
(2R,3R,4R,5R)-N-[(3S,5S)-5-(allyloxymethyl)tetrahydrofuran-3-yl]-N'-[(5S)-5-(allyloxymethyl)tetrahydrofuran-3-yl]-2,5-dibenzyloxy-3,4-dihydroxy-hexanediamide
> <PUBCHEM_IUPAC_CAS_NAME>
(2R,3R,4R,5R)-3,4-dihydroxy-2,5-bis(phenylmethoxy)-N-[(3S,5S)-5-(prop-2-enoxymethyl)-3-oxolanyl]-N'-[(5S)-5-(prop-2-enoxymethyl)-3-oxolanyl]hexanediamide
> <PUBCHEM_IUPAC_NAME_MARKUP>
(2<I>R</I>,3<I>R</I>,4<I>R</I>,5<I>R</I>)-3,4-dihydroxy-2,5-bis(phenylmethoxy)-<I>N</I>-[(3<I>S</I>,5<I>S</I>)-5-(prop-2-enoxymethyl)oxolan-3-yl]-<I>N</I>&apos;-[(5<I>S</I>)-5-(prop-2-enoxymethyl)oxolan-3-yl]hexanediamide
> <PUBCHEM_IUPAC_NAME>
(2R,3R,4R,5R)-3,4-dihydroxy-2,5-bis(phenylmethoxy)-N-[(3S,5S)-5-(prop-2-enoxymethyl)oxolan-3-yl]-N'-[(5S)-5-(prop-2-enoxymethyl)oxolan-3-yl]hexanediamide
> <PUBCHEM_IUPAC_SYSTEMATIC_NAME>
(2R,3R,4R,5R)-3,4-bis(oxidanyl)-2,5-bis(phenylmethoxy)-N-[(3S,5S)-5-(prop-2-enoxymethyl)oxolan-3-yl]-N'-[(5S)-5-(prop-2-enoxymethyl)oxolan-3-yl]hexanediamide
> <PUBCHEM_IUPAC_TRADITIONAL_NAME>
(2R,3R,4R,5R)-N-[(3S,5S)-5-(allyloxymethyl)tetrahydrofuran-3-yl]-N'-[(5S)-5-(allyloxymethyl)tetrahydrofuran-3-yl]-2,5-dibenzoxy-3,4-dihydroxy-adipamide
> <PUBCHEM_IUPAC_INCHI>
InChI=1S/C36H48N2O10/c1-3-15-43-23-29-17-27(21-45-29)37-35(41)33(47-19-25-11-7-5-8-12-25)31(39)32(40)34(48-20-26-13-9-6-10-14-26)36(42)38-28-18-30(46-22-28)24-44-16-4-2/h3-14,27-34,39-40H,1-2,15-24H2,(H,37,41)(H,38,42)/t27-,28?,29-,30-,31+,32+,33+,34+/m0/s1
> <PUBCHEM_IUPAC_INCHIKEY>
XKFFOYGHNKSLLI-YEWWNNNASA-N
> <PUBCHEM_XLOGP3_AA>
2.8
> <PUBCHEM_EXACT_MASS>
668.33089573
> <PUBCHEM_MOLECULAR_FORMULA>
C36H48N2O10
> <PUBCHEM_MOLECULAR_WEIGHT>
668.8
> <PUBCHEM_OPENEYE_CAN_SMILES>
C=CCOCC1CC(CO1)NC(=O)C(C(C(C(C(=O)NC2CC(OC2)COCC=C)OCC3=CC=CC=C3)O)O)OCC4=CC=CC=C4
> <PUBCHEM_OPENEYE_ISO_SMILES>
C=CCOC[C@@H]1C[C@@H](CO1)NC(=O)[C@@H]([C@@H]([C@H]([C@H](C(=O)NC2C[C@H](OC2)COCC=C)OCC3=CC=CC=C3)O)O)OCC4=CC=CC=C4
> <PUBCHEM_CACTVS_TPSA>
154
> <PUBCHEM_MONOISOTOPIC_WEIGHT>
668.33089573
> <PUBCHEM_TOTAL_CHARGE>
0
> <PUBCHEM_HEAVY_ATOM_COUNT>
48
> <PUBCHEM_ATOM_DEF_STEREO_COUNT>
7
> <PUBCHEM_ATOM_UDEF_STEREO_COUNT>
1
> <PUBCHEM_BOND_DEF_STEREO_COUNT>
0
> <PUBCHEM_BOND_UDEF_STEREO_COUNT>
0
> <PUBCHEM_ISOTOPIC_ATOM_COUNT>
0
> <PUBCHEM_COMPONENT_COUNT>
1
> <PUBCHEM_CACTVS_TAUTO_COUNT>
-1
> <PUBCHEM_COORDINATE_TYPE>
1
5
255
> <PUBCHEM_BONDANNOTATIONS>
13  11  3
14  12  6
17  25  5
18  26  6
23  3  5
33  37  8
33  38  8
34  39  8
34  40  8
37  41  8
38  42  8
39  43  8
24  4  5
40  44  8
41  47  8
42  47  8
43  48  8
44  48  8
21  5  6
22  6  6
$$$$
