503719
  -OEChem-10302200282D
 65 67  0     1  0  0  0  0  0999 V2000
    7.7331   -0.2733    0.0000 P   0  0  3  0  0  0  0  0  0  0  0  0
    9.5697    2.7212    0.0000 O   0  0  0  0  0  0  0  0  0  0  0  0
    4.2690   -3.2733    0.0000 O   0  0  0  0  0  0  0  0  0  0  0  0
    6.0010   -3.2733    0.0000 O   0  0  0  0  0  0  0  0  0  0  0  0
    4.2690   -6.2733    0.0000 O   0  0  0  0  0  0  0  0  0  0  0  0
    2.5369   -5.2733    0.0000 O   0  0  0  0  0  0  0  0  0  0  0  0
    6.0010   -5.2733    0.0000 O   0  0  0  0  0  0  0  0  0  0  0  0
    8.5991    0.2267    0.0000 O   0  0  0  0  0  0  0  0  0  0  0  0
    2.5369   -2.2733    0.0000 O   0  0  0  0  0  0  0  0  0  0  0  0
    6.8671   -0.7733    0.0000 O   0  0  0  0  0  0  0  0  0  0  0  0
   12.5369    3.1382    0.0000 O   0  0  0  0  0  0  0  0  0  0  0  0
    7.2331    0.5927    0.0000 O   0  0  0  0  0  0  0  0  0  0  0  0
    8.2331   -1.1393    0.0000 O   0  0  0  0  0  0  0  0  0  0  0  0
   12.1748    6.5833    0.0000 O   0  0  0  0  0  0  0  0  0  0  0  0
   10.9546    3.8427    0.0000 N   0  0  0  0  0  0  0  0  0  0  0  0
   10.5866    0.3418    0.0000 N   0  0  0  0  0  0  0  0  0  0  0  0
   12.3558    4.8608    0.0000 N   0  0  0  0  0  0  0  0  0  0  0  0
   11.5377    0.0328    0.0000 N   0  3  0  0  0  0  0  0  0  0  0  0
   12.4887   -0.2762    0.0000 N   0  5  0  0  0  0  0  0  0  0  0  0
   10.3787    1.3200    0.0000 C   0  0  2  0  0  0  0  0  0  0  0  0
    9.4651    1.7267    0.0000 C   0  0  1  0  0  0  0  0  0  0  0  0
   11.0478    2.0631    0.0000 C   0  0  0  0  0  0  0  0  0  0  0  0
   10.5478    2.9291    0.0000 C   0  0  1  0  0  0  0  0  0  0  0  0
    4.2690   -5.2733    0.0000 C   0  0  1  0  0  0  0  0  0  0  0  0
    3.4030   -4.7733    0.0000 C   0  0  1  0  0  0  0  0  0  0  0  0
    5.1350   -4.7733    0.0000 C   0  0  1  0  0  0  0  0  0  0  0  0
    3.4030   -3.7733    0.0000 C   0  0  1  0  0  0  0  0  0  0  0  0
    5.1350   -3.7733    0.0000 C   0  0  2  0  0  0  0  0  0  0  0  0
    8.5991    1.2267    0.0000 C   0  0  0  0  0  0  0  0  0  0  0  0
    2.5369   -3.2733    0.0000 C   0  0  0  0  0  0  0  0  0  0  0  0
   10.3668    4.6517    0.0000 C   0  0  0  0  0  0  0  0  0  0  0  0
   11.9491    3.9472    0.0000 C   0  0  0  0  0  0  0  0  0  0  0  0
    6.0010   -2.2733    0.0000 C   0  0  0  0  0  0  0  0  0  0  0  0
   10.7735    5.5652    0.0000 C   0  0  0  0  0  0  0  0  0  0  0  0
    6.8671   -1.7733    0.0000 C   0  0  0  0  0  0  0  0  0  0  0  0
   11.7680    5.6698    0.0000 C   0  0  0  0  0  0  0  0  0  0  0  0
   10.1857    6.3742    0.0000 C   0  0  0  0  0  0  0  0  0  0  0  0
    9.8968    0.9298    0.0000 H   0  0  0  0  0  0  0  0  0  0  0  0
    8.9452    2.0644    0.0000 H   0  0  0  0  0  0  0  0  0  0  0  0
   11.4627    1.6024    0.0000 H   0  0  0  0  0  0  0  0  0  0  0  0
   11.5494    2.4275    0.0000 H   0  0  0  0  0  0  0  0  0  0  0  0
   11.1670    2.9616    0.0000 H   0  0  0  0  0  0  0  0  0  0  0  0
    3.7320   -5.5833    0.0000 H   0  0  0  0  0  0  0  0  0  0  0  0
    3.4030   -5.3933    0.0000 H   0  0  0  0  0  0  0  0  0  0  0  0
    5.1350   -5.3933    0.0000 H   0  0  0  0  0  0  0  0  0  0  0  0
    3.4030   -3.1533    0.0000 H   0  0  0  0  0  0  0  0  0  0  0  0
    5.1350   -3.1533    0.0000 H   0  0  0  0  0  0  0  0  0  0  0  0
    8.3871    1.8093    0.0000 H   0  0  0  0  0  0  0  0  0  0  0  0
    7.9885    1.1190    0.0000 H   0  0  0  0  0  0  0  0  0  0  0  0
    1.9264   -3.1656    0.0000 H   0  0  0  0  0  0  0  0  0  0  0  0
    2.3249   -3.8559    0.0000 H   0  0  0  0  0  0  0  0  0  0  0  0
    9.7502    4.5869    0.0000 H   0  0  0  0  0  0  0  0  0  0  0  0
    3.7320   -6.5833    0.0000 H   0  0  0  0  0  0  0  0  0  0  0  0
    2.0000   -4.9633    0.0000 H   0  0  0  0  0  0  0  0  0  0  0  0
    6.5380   -4.9633    0.0000 H   0  0  0  0  0  0  0  0  0  0  0  0
    5.7890   -1.6907    0.0000 H   0  0  0  0  0  0  0  0  0  0  0  0
    5.3905   -2.3810    0.0000 H   0  0  0  0  0  0  0  0  0  0  0  0
    7.0791   -2.3559    0.0000 H   0  0  0  0  0  0  0  0  0  0  0  0
    7.4776   -1.6656    0.0000 H   0  0  0  0  0  0  0  0  0  0  0  0
   12.9724    4.9256    0.0000 H   0  0  0  0  0  0  0  0  0  0  0  0
    2.0000   -1.9633    0.0000 H   0  0  0  0  0  0  0  0  0  0  0  0
   10.6873    6.7387    0.0000 H   0  0  0  0  0  0  0  0  0  0  0  0
    9.8213    6.8758    0.0000 H   0  0  0  0  0  0  0  0  0  0  0  0
    9.6841    6.0098    0.0000 H   0  0  0  0  0  0  0  0  0  0  0  0
    6.6131    0.5927    0.0000 H   0  0  0  0  0  0  0  0  0  0  0  0
  1  8  1  0  0  0  0
  1 10  1  0  0  0  0
  1 12  1  0  0  0  0
  1 13  2  0  0  0  0
  2 21  1  0  0  0  0
  2 23  1  0  0  0  0
  3 27  1  0  0  0  0
  3 28  1  0  0  0  0
 28  4  1  6  0  0  0
  4 33  1  0  0  0  0
 24  5  1  1  0  0  0
  5 53  1  0  0  0  0
 25  6  1  6  0  0  0
  6 54  1  0  0  0  0
 26  7  1  1  0  0  0
  7 55  1  0  0  0  0
  8 29  1  0  0  0  0
  9 30  1  0  0  0  0
  9 61  1  0  0  0  0
 10 35  1  0  0  0  0
 11 32  2  0  0  0  0
 12 65  1  0  0  0  0
 14 36  2  0  0  0  0
 23 15  1  1  0  0  0
 15 31  1  0  0  0  0
 15 32  1  0  0  0  0
 16 18  2  0  0  0  0
 20 16  1  6  0  0  0
 17 32  1  0  0  0  0
 17 36  1  0  0  0  0
 17 60  1  0  0  0  0
 18 19  2  0  0  0  0
 20 21  1  0  0  0  0
 20 22  1  0  0  0  0
 20 38  1  0  0  0  0
 21 29  1  1  0  0  0
 21 39  1  0  0  0  0
 22 23  1  0  0  0  0
 22 40  1  0  0  0  0
 22 41  1  0  0  0  0
 23 42  1  0  0  0  0
 24 25  1  0  0  0  0
 24 26  1  0  0  0  0
 24 43  1  0  0  0  0
 25 27  1  0  0  0  0
 25 44  1  0  0  0  0
 26 28  1  0  0  0  0
 26 45  1  0  0  0  0
 27 30  1  1  0  0  0
 27 46  1  0  0  0  0
 28 47  1  0  0  0  0
 29 48  1  0  0  0  0
 29 49  1  0  0  0  0
 30 50  1  0  0  0  0
 30 51  1  0  0  0  0
 31 34  2  0  0  0  0
 31 52  1  0  0  0  0
 33 35  1  0  0  0  0
 33 56  1  0  0  0  0
 33 57  1  0  0  0  0
 34 36  1  0  0  0  0
 34 37  1  0  0  0  0
 35 58  1  0  0  0  0
 35 59  1  0  0  0  0
 37 62  1  0  0  0  0
 37 63  1  0  0  0  0
 37 64  1  0  0  0  0
M  CHG  2  18   1  19  -1
M  END
> <PUBCHEM_COMPOUND_CID>
503719
> <PUBCHEM_COMPOUND_CANONICALIZED>
1
> <PUBCHEM_CACTVS_COMPLEXITY>
978
> <PUBCHEM_CACTVS_HBOND_ACCEPTOR>
15
> <PUBCHEM_CACTVS_HBOND_DONOR>
6
> <PUBCHEM_CACTVS_ROTATABLE_BOND>
11
> <PUBCHEM_CACTVS_SUBSKEYS>
AAADceB7vAIAAAAAAAAAAAAAAAAAASAAAAAkQAAAAAAAAAAAAAAAHgAYCCAADDzxgAcDCAPABxCKQgFWUICAAAAAAAAAAAEIAECTEAIAwQAvQAAPByIHAMHwcA4AAAAAAAAAAAAAAAAAAAAAAAAAAAAAAA==
> <PUBCHEM_IUPAC_OPENEYE_NAME>
[(2S,3S,5R)-3-azido-5-(5-methyl-2,4-dioxo-pyrimidin-1-yl)tetrahydrofuran-2-yl]methyl 2-[(2S,3S,4S,5S,6R)-3,4,5-trihydroxy-6-(hydroxymethyl)tetrahydropyran-2-yl]oxyethyl hydrogen phosphate
> <PUBCHEM_IUPAC_CAS_NAME>
[(2S,3S,5R)-3-azido-5-(5-methyl-2,4-dioxo-1-pyrimidinyl)-2-oxolanyl]methyl 2-[[(2S,3S,4S,5S,6R)-3,4,5-trihydroxy-6-(hydroxymethyl)-2-oxanyl]oxy]ethyl hydrogen phosphate
> <PUBCHEM_IUPAC_NAME_MARKUP>
[(2<I>S</I>,3<I>S</I>,5<I>R</I>)-3-azido-5-(5-methyl-2,4-dioxopyrimidin-1-yl)oxolan-2-yl]methyl 2-[(2<I>S</I>,3<I>S</I>,4<I>S</I>,5<I>S</I>,6<I>R</I>)-3,4,5-trihydroxy-6-(hydroxymethyl)oxan-2-yl]oxyethyl hydrogen phosphate
> <PUBCHEM_IUPAC_NAME>
[(2S,3S,5R)-3-azido-5-(5-methyl-2,4-dioxopyrimidin-1-yl)oxolan-2-yl]methyl 2-[(2S,3S,4S,5S,6R)-3,4,5-trihydroxy-6-(hydroxymethyl)oxan-2-yl]oxyethyl hydrogen phosphate
> <PUBCHEM_IUPAC_SYSTEMATIC_NAME>
[(2S,3S,5R)-3-azido-5-[5-methyl-2,4-bis(oxidanylidene)pyrimidin-1-yl]oxolan-2-yl]methyl 2-[(2S,3S,4S,5S,6R)-6-(hydroxymethyl)-3,4,5-tris(oxidanyl)oxan-2-yl]oxyethyl hydrogen phosphate
> <PUBCHEM_IUPAC_TRADITIONAL_NAME>
[(2S,3S,5R)-3-azido-5-(2,4-diketo-5-methyl-pyrimidin-1-yl)tetrahydrofuran-2-yl]methyl 2-[(2S,3S,4S,5S,6R)-3,4,5-trihydroxy-6-methylol-tetrahydropyran-2-yl]oxyethyl hydrogen phosphate
> <PUBCHEM_IUPAC_INCHI>
InChI=1S/C18H28N5O13P/c1-8-5-23(18(29)20-16(8)28)12-4-9(21-22-19)11(35-12)7-34-37(30,31)33-3-2-32-17-15(27)14(26)13(25)10(6-24)36-17/h5,9-15,17,24-27H,2-4,6-7H2,1H3,(H,30,31)(H,20,28,29)/t9-,10+,11+,12+,13+,14-,15-,17-/m0/s1
> <PUBCHEM_IUPAC_INCHIKEY>
WSZXSXJERHNLJF-XDNHNXTRSA-N
> <PUBCHEM_XLOGP3>
-2.8
> <PUBCHEM_EXACT_MASS>
553.14212296
> <PUBCHEM_MOLECULAR_FORMULA>
C18H28N5O13P
> <PUBCHEM_MOLECULAR_WEIGHT>
553.4
> <PUBCHEM_OPENEYE_CAN_SMILES>
CC1=CN(C(=O)NC1=O)C2CC(C(O2)COP(=O)(O)OCCOC3C(C(C(C(O3)CO)O)O)O)N=[N+]=[N-]
> <PUBCHEM_OPENEYE_ISO_SMILES>
CC1=CN(C(=O)NC1=O)[C@H]2C[C@@H]([C@H](O2)COP(=O)(O)OCCO[C@@H]3[C@H]([C@H]([C@@H]([C@H](O3)CO)O)O)O)N=[N+]=[N-]
> <PUBCHEM_CACTVS_TPSA>
228
> <PUBCHEM_MONOISOTOPIC_WEIGHT>
553.14212296
> <PUBCHEM_TOTAL_CHARGE>
0
> <PUBCHEM_HEAVY_ATOM_COUNT>
37
> <PUBCHEM_ATOM_DEF_STEREO_COUNT>
8
> <PUBCHEM_ATOM_UDEF_STEREO_COUNT>
0
> <PUBCHEM_BOND_DEF_STEREO_COUNT>
0
> <PUBCHEM_BOND_UDEF_STEREO_COUNT>
0
> <PUBCHEM_ISOTOPIC_ATOM_COUNT>
0
> <PUBCHEM_COMPONENT_COUNT>
1
> <PUBCHEM_CACTVS_TAUTO_COUNT>
-1
> <PUBCHEM_COORDINATE_TYPE>
1
5
255
> <PUBCHEM_BONDANNOTATIONS>
23  15  5
15  31  8
15  32  8
20  16  6
17  32  8
17  36  8
21  29  5
27  30  5
31  34  8
34  36  8
28  4  6
24  5  5
25  6  6
26  7  5
$$$$
