503789
  -OEChem-10302200282D
 83 87  0     1  0  0  0  0  0999 V2000
   10.0788   -1.2493    0.0000 S   0  0  0  0  0  0  0  0  0  0  0  0
   12.7629    1.2870    0.0000 F   0  0  0  0  0  0  0  0  0  0  0  0
   11.6924    4.5815    0.0000 F   0  0  0  0  0  0  0  0  0  0  0  0
    7.2641   -1.0468    0.0000 O   0  0  0  0  0  0  0  0  0  0  0  0
    8.1301    1.4532    0.0000 O   0  0  0  0  0  0  0  0  0  0  0  0
    9.3745    2.0072    0.0000 O   0  0  0  0  0  0  0  0  0  0  0  0
    4.6660   -4.5468    0.0000 O   0  0  0  0  0  0  0  0  0  0  0  0
    6.3981   -2.5468    0.0000 O   0  0  0  0  0  0  0  0  0  0  0  0
    6.3981   -1.5468    0.0000 O   0  0  0  0  0  0  0  0  0  0  0  0
    8.9962   -0.0468    0.0000 N   0  0  0  0  0  0  0  0  0  0  0  0
   11.0687    1.6471    0.0000 N   0  0  0  0  0  0  0  0  0  0  0  0
    4.6660   -1.5468    0.0000 N   0  0  0  0  0  0  0  0  0  0  0  0
   10.5788   -0.3832    0.0000 C   0  0  0  0  0  0  0  0  0  0  0  0
    9.9097    0.3599    0.0000 C   0  0  1  0  0  0  0  0  0  0  0  0
    9.1007   -1.0414    0.0000 C   0  0  0  0  0  0  0  0  0  0  0  0
   11.4449   -0.8832    0.0000 C   0  0  0  0  0  0  0  0  0  0  0  0
   11.3220    0.2859    0.0000 C   0  0  0  0  0  0  0  0  0  0  0  0
    8.1301    0.4532    0.0000 C   0  0  0  0  0  0  0  0  0  0  0  0
    7.2641   -0.0468    0.0000 C   0  0  2  0  0  0  0  0  0  0  0  0
   10.1176    1.3380    0.0000 C   0  0  0  0  0  0  0  0  0  0  0  0
    6.3981    0.4532    0.0000 C   0  0  0  0  0  0  0  0  0  0  0  0
    5.5321   -0.0468    0.0000 C   0  0  1  0  0  0  0  0  0  0  0  0
    4.6660    0.4532    0.0000 C   0  0  0  0  0  0  0  0  0  0  0  0
    4.6660   -2.5468    0.0000 C   0  0  2  0  0  0  0  0  0  0  0  0
    5.5321   -1.0468    0.0000 C   0  0  0  0  0  0  0  0  0  0  0  0
    5.5321   -3.0468    0.0000 C   0  0  1  0  0  0  0  0  0  0  0  0
    3.8000   -3.0468    0.0000 C   0  0  0  0  0  0  0  0  0  0  0  0
    4.6660    1.4532    0.0000 C   0  0  0  0  0  0  0  0  0  0  0  0
    5.5321   -4.0468    0.0000 C   0  0  0  0  0  0  0  0  0  0  0  0
   11.2766    2.6252    0.0000 C   0  0  0  0  0  0  0  0  0  0  0  0
    3.8000   -4.0468    0.0000 C   0  0  0  0  0  0  0  0  0  0  0  0
    2.9061   -2.5122    0.0000 C   0  0  0  0  0  0  0  0  0  0  0  0
   12.2276    2.9342    0.0000 C   0  0  0  0  0  0  0  0  0  0  0  0
    3.8000    1.9532    0.0000 C   0  0  0  0  0  0  0  0  0  0  0  0
    5.5321    1.9532    0.0000 C   0  0  0  0  0  0  0  0  0  0  0  0
    2.9061   -4.5815    0.0000 C   0  0  0  0  0  0  0  0  0  0  0  0
    2.0000   -3.0260    0.0000 C   0  0  0  0  0  0  0  0  0  0  0  0
    2.0000   -4.0677    0.0000 C   0  0  0  0  0  0  0  0  0  0  0  0
    3.8000    2.9532    0.0000 C   0  0  0  0  0  0  0  0  0  0  0  0
    5.5321    2.9532    0.0000 C   0  0  0  0  0  0  0  0  0  0  0  0
   12.9708    2.2651    0.0000 C   0  0  0  0  0  0  0  0  0  0  0  0
   12.4356    3.9124    0.0000 C   0  0  0  0  0  0  0  0  0  0  0  0
    4.6660    3.4532    0.0000 C   0  0  0  0  0  0  0  0  0  0  0  0
   13.9218    2.5741    0.0000 C   0  0  0  0  0  0  0  0  0  0  0  0
   13.3866    4.2214    0.0000 C   0  0  0  0  0  0  0  0  0  0  0  0
   14.1298    3.5523    0.0000 C   0  0  0  0  0  0  0  0  0  0  0  0
    9.4279    0.7501    0.0000 H   0  0  0  0  0  0  0  0  0  0  0  0
    8.4807   -1.0414    0.0000 H   0  0  0  0  0  0  0  0  0  0  0  0
    9.0359   -1.6580    0.0000 H   0  0  0  0  0  0  0  0  0  0  0  0
   11.1349   -1.4202    0.0000 H   0  0  0  0  0  0  0  0  0  0  0  0
   11.9818   -1.1932    0.0000 H   0  0  0  0  0  0  0  0  0  0  0  0
   11.7549   -0.3463    0.0000 H   0  0  0  0  0  0  0  0  0  0  0  0
   11.7368   -0.1749    0.0000 H   0  0  0  0  0  0  0  0  0  0  0  0
   11.7827    0.7007    0.0000 H   0  0  0  0  0  0  0  0  0  0  0  0
   10.9071    0.7466    0.0000 H   0  0  0  0  0  0  0  0  0  0  0  0
    7.8010   -0.3568    0.0000 H   0  0  0  0  0  0  0  0  0  0  0  0
    6.7966    0.9281    0.0000 H   0  0  0  0  0  0  0  0  0  0  0  0
    5.9996    0.9281    0.0000 H   0  0  0  0  0  0  0  0  0  0  0  0
    5.5321    0.5732    0.0000 H   0  0  0  0  0  0  0  0  0  0  0  0
    4.0555    0.5608    0.0000 H   0  0  0  0  0  0  0  0  0  0  0  0
    4.4540   -0.1295    0.0000 H   0  0  0  0  0  0  0  0  0  0  0  0
    4.1291   -2.2368    0.0000 H   0  0  0  0  0  0  0  0  0  0  0  0
   11.5294    1.2322    0.0000 H   0  0  0  0  0  0  0  0  0  0  0  0
    5.5321   -2.4268    0.0000 H   0  0  0  0  0  0  0  0  0  0  0  0
    4.1291   -1.2368    0.0000 H   0  0  0  0  0  0  0  0  0  0  0  0
    5.7441   -4.6294    0.0000 H   0  0  0  0  0  0  0  0  0  0  0  0
    6.1426   -3.9392    0.0000 H   0  0  0  0  0  0  0  0  0  0  0  0
    7.8010   -1.3568    0.0000 H   0  0  0  0  0  0  0  0  0  0  0  0
   11.1903    3.2392    0.0000 H   0  0  0  0  0  0  0  0  0  0  0  0
   10.6570    2.6468    0.0000 H   0  0  0  0  0  0  0  0  0  0  0  0
    2.9132   -1.8922    0.0000 H   0  0  0  0  0  0  0  0  0  0  0  0
    3.2631    1.6432    0.0000 H   0  0  0  0  0  0  0  0  0  0  0  0
    6.0690    1.6432    0.0000 H   0  0  0  0  0  0  0  0  0  0  0  0
    6.9350   -2.8568    0.0000 H   0  0  0  0  0  0  0  0  0  0  0  0
    2.9132   -5.2015    0.0000 H   0  0  0  0  0  0  0  0  0  0  0  0
    1.4643   -2.7140    0.0000 H   0  0  0  0  0  0  0  0  0  0  0  0
    1.4643   -4.3797    0.0000 H   0  0  0  0  0  0  0  0  0  0  0  0
    3.2631    3.2632    0.0000 H   0  0  0  0  0  0  0  0  0  0  0  0
    6.0690    3.2632    0.0000 H   0  0  0  0  0  0  0  0  0  0  0  0
    4.6660    4.0732    0.0000 H   0  0  0  0  0  0  0  0  0  0  0  0
   14.3826    2.1592    0.0000 H   0  0  0  0  0  0  0  0  0  0  0  0
   13.5155    4.8278    0.0000 H   0  0  0  0  0  0  0  0  0  0  0  0
   14.7194    3.7438    0.0000 H   0  0  0  0  0  0  0  0  0  0  0  0
  1 13  1  0  0  0  0
  1 15  1  0  0  0  0
  2 41  1  0  0  0  0
  3 42  1  0  0  0  0
 19  4  1  1  0  0  0
  4 68  1  0  0  0  0
  5 18  2  0  0  0  0
  6 20  2  0  0  0  0
  7 29  1  0  0  0  0
  7 31  1  0  0  0  0
 26  8  1  6  0  0  0
  8 74  1  0  0  0  0
  9 25  2  0  0  0  0
 10 14  1  0  0  0  0
 10 15  1  0  0  0  0
 10 18  1  0  0  0  0
 11 20  1  0  0  0  0
 11 30  1  0  0  0  0
 11 63  1  0  0  0  0
 24 12  1  6  0  0  0
 12 25  1  0  0  0  0
 12 65  1  0  0  0  0
 13 14  1  0  0  0  0
 13 16  1  0  0  0  0
 13 17  1  0  0  0  0
 14 20  1  6  0  0  0
 14 47  1  0  0  0  0
 15 48  1  0  0  0  0
 15 49  1  0  0  0  0
 16 50  1  0  0  0  0
 16 51  1  0  0  0  0
 16 52  1  0  0  0  0
 17 53  1  0  0  0  0
 17 54  1  0  0  0  0
 17 55  1  0  0  0  0
 18 19  1  0  0  0  0
 19 21  1  0  0  0  0
 19 56  1  0  0  0  0
 22 21  1  6  0  0  0
 21 57  1  0  0  0  0
 21 58  1  0  0  0  0
 22 23  1  0  0  0  0
 22 25  1  0  0  0  0
 22 59  1  0  0  0  0
 23 28  1  0  0  0  0
 23 60  1  0  0  0  0
 23 61  1  0  0  0  0
 24 26  1  0  0  0  0
 24 27  1  0  0  0  0
 24 62  1  0  0  0  0
 26 29  1  0  0  0  0
 26 64  1  0  0  0  0
 27 31  1  0  0  0  0
 27 32  2  0  0  0  0
 28 34  2  0  0  0  0
 28 35  1  0  0  0  0
 29 66  1  0  0  0  0
 29 67  1  0  0  0  0
 30 33  1  0  0  0  0
 30 69  1  0  0  0  0
 30 70  1  0  0  0  0
 31 36  2  0  0  0  0
 32 37  1  0  0  0  0
 32 71  1  0  0  0  0
 33 41  2  0  0  0  0
 33 42  1  0  0  0  0
 34 39  1  0  0  0  0
 34 72  1  0  0  0  0
 35 40  2  0  0  0  0
 35 73  1  0  0  0  0
 36 38  1  0  0  0  0
 36 75  1  0  0  0  0
 37 38  2  0  0  0  0
 37 76  1  0  0  0  0
 38 77  1  0  0  0  0
 39 43  2  0  0  0  0
 39 78  1  0  0  0  0
 40 43  1  0  0  0  0
 40 79  1  0  0  0  0
 41 44  1  0  0  0  0
 42 45  2  0  0  0  0
 43 80  1  0  0  0  0
 44 46  2  0  0  0  0
 44 81  1  0  0  0  0
 45 46  1  0  0  0  0
 45 82  1  0  0  0  0
 46 83  1  0  0  0  0
M  END
> <PUBCHEM_COMPOUND_CID>
503789
> <PUBCHEM_COMPOUND_CANONICALIZED>
1
> <PUBCHEM_CACTVS_COMPLEXITY>
1050
> <PUBCHEM_CACTVS_HBOND_ACCEPTOR>
9
> <PUBCHEM_CACTVS_HBOND_DONOR>
4
> <PUBCHEM_CACTVS_ROTATABLE_BOND>
10
> <PUBCHEM_CACTVS_SUBSKEYS>
AAADcfB/OYBAAAAAAAAAAAAAAAAAAWAAAAA0YMEAAAAAAACRUAAAHwQQCAAADTzh2A6yBoPABgiIAiFSEAKCCABgIBAIiIHODIgPdjKksTuWeCjm1hGbqAf6y/COAAAAAAAIAAAAAAAAABAAAAAAAAAAAA==
> <PUBCHEM_IUPAC_OPENEYE_NAME>
(4R)-3-[(2S,4R)-4-benzyl-2-hydroxy-5-[[(3S,4S)-3-hydroxychroman-4-yl]amino]-5-oxo-pentanoyl]-N-[(2,6-difluorophenyl)methyl]-5,5-dimethyl-thiazolidine-4-carboxamide
> <PUBCHEM_IUPAC_CAS_NAME>
(4R)-N-[(2,6-difluorophenyl)methyl]-3-[(2S,4R)-2-hydroxy-5-[[(3S,4S)-3-hydroxy-3,4-dihydro-2H-1-benzopyran-4-yl]amino]-1,5-dioxo-4-(phenylmethyl)pentyl]-5,5-dimethyl-4-thiazolidinecarboxamide
> <PUBCHEM_IUPAC_NAME_MARKUP>
(4<I>R</I>)-3-[(2<I>S</I>,4<I>R</I>)-4-benzyl-2-hydroxy-5-[[(3<I>S</I>,4<I>S</I>)-3-hydroxy-3,4-dihydro-2<I>H</I>-chromen-4-yl]amino]-5-oxopentanoyl]-<I>N</I>-[(2,6-difluorophenyl)methyl]-5,5-dimethyl-1,3-thiazolidine-4-carboxamide
> <PUBCHEM_IUPAC_NAME>
(4R)-3-[(2S,4R)-4-benzyl-2-hydroxy-5-[[(3S,4S)-3-hydroxy-3,4-dihydro-2H-chromen-4-yl]amino]-5-oxopentanoyl]-N-[(2,6-difluorophenyl)methyl]-5,5-dimethyl-1,3-thiazolidine-4-carboxamide
> <PUBCHEM_IUPAC_SYSTEMATIC_NAME>
(4R)-N-[[2,6-bis(fluoranyl)phenyl]methyl]-5,5-dimethyl-3-[(2S,4R)-2-oxidanyl-5-[[(3S,4S)-3-oxidanyl-3,4-dihydro-2H-chromen-4-yl]amino]-5-oxidanylidene-4-(phenylmethyl)pentanoyl]-1,3-thiazolidine-4-carboxamide
> <PUBCHEM_IUPAC_TRADITIONAL_NAME>
(4R)-3-[(2S,4R)-4-benzyl-2-hydroxy-5-[[(3S,4S)-3-hydroxychroman-4-yl]amino]-5-keto-pentanoyl]-N-(2,6-difluorobenzyl)-5,5-dimethyl-thiazolidine-4-carboxamide
> <PUBCHEM_IUPAC_INCHI>
InChI=1S/C34H37F2N3O6S/c1-34(2)30(32(43)37-17-23-24(35)12-8-13-25(23)36)39(19-46-34)33(44)26(40)16-21(15-20-9-4-3-5-10-20)31(42)38-29-22-11-6-7-14-28(22)45-18-27(29)41/h3-14,21,26-27,29-30,40-41H,15-19H2,1-2H3,(H,37,43)(H,38,42)/t21-,26+,27-,29+,30-/m1/s1
> <PUBCHEM_IUPAC_INCHIKEY>
WTLQAIXBBCWLQT-JXCVSLFXSA-N
> <PUBCHEM_XLOGP3_AA>
3.6
> <PUBCHEM_EXACT_MASS>
653.23711341
> <PUBCHEM_MOLECULAR_FORMULA>
C34H37F2N3O6S
> <PUBCHEM_MOLECULAR_WEIGHT>
653.7
> <PUBCHEM_OPENEYE_CAN_SMILES>
CC1(C(N(CS1)C(=O)C(CC(CC2=CC=CC=C2)C(=O)NC3C(COC4=CC=CC=C34)O)O)C(=O)NCC5=C(C=CC=C5F)F)C
> <PUBCHEM_OPENEYE_ISO_SMILES>
CC1([C@H](N(CS1)C(=O)[C@H](C[C@@H](CC2=CC=CC=C2)C(=O)N[C@@H]3[C@@H](COC4=CC=CC=C34)O)O)C(=O)NCC5=C(C=CC=C5F)F)C
> <PUBCHEM_CACTVS_TPSA>
154
> <PUBCHEM_MONOISOTOPIC_WEIGHT>
653.23711341
> <PUBCHEM_TOTAL_CHARGE>
0
> <PUBCHEM_HEAVY_ATOM_COUNT>
46
> <PUBCHEM_ATOM_DEF_STEREO_COUNT>
5
> <PUBCHEM_ATOM_UDEF_STEREO_COUNT>
0
> <PUBCHEM_BOND_DEF_STEREO_COUNT>
0
> <PUBCHEM_BOND_UDEF_STEREO_COUNT>
0
> <PUBCHEM_ISOTOPIC_ATOM_COUNT>
0
> <PUBCHEM_COMPONENT_COUNT>
1
> <PUBCHEM_CACTVS_TAUTO_COUNT>
-1
> <PUBCHEM_COORDINATE_TYPE>
1
5
255
> <PUBCHEM_BONDANNOTATIONS>
24  12  6
14  20  6
22  21  6
27  31  8
27  32  8
28  34  8
28  35  8
31  36  8
32  37  8
33  41  8
33  42  8
34  39  8
35  40  8
36  38  8
37  38  8
39  43  8
19  4  5
40  43  8
41  44  8
42  45  8
44  46  8
45  46  8
26  8  6
$$$$
