503792
  -OEChem-10302200282D
 85 89  0     1  0  0  0  0  0999 V2000
   10.0788   -1.3057    0.0000 S   0  0  0  0  0  0  0  0  0  0  0  0
    7.2641   -1.1032    0.0000 O   0  0  0  0  0  0  0  0  0  0  0  0
    8.1301    1.3968    0.0000 O   0  0  0  0  0  0  0  0  0  0  0  0
    9.3745    1.9508    0.0000 O   0  0  0  0  0  0  0  0  0  0  0  0
    4.6660   -4.6032    0.0000 O   0  0  0  0  0  0  0  0  0  0  0  0
    6.3981   -2.6032    0.0000 O   0  0  0  0  0  0  0  0  0  0  0  0
    6.3981   -1.6032    0.0000 O   0  0  0  0  0  0  0  0  0  0  0  0
   13.5367    3.8289    0.0000 O   0  0  0  0  0  0  0  0  0  0  0  0
    8.9962   -0.1032    0.0000 N   0  0  0  0  0  0  0  0  0  0  0  0
   11.0687    1.5907    0.0000 N   0  0  0  0  0  0  0  0  0  0  0  0
    4.6660   -1.6032    0.0000 N   0  0  0  0  0  0  0  0  0  0  0  0
   13.8457    2.8778    0.0000 N   0  0  0  0  0  0  0  0  0  0  0  0
   10.5788   -0.4396    0.0000 C   0  0  0  0  0  0  0  0  0  0  0  0
    9.9097    0.3035    0.0000 C   0  0  1  0  0  0  0  0  0  0  0  0
    9.1007   -1.0978    0.0000 C   0  0  0  0  0  0  0  0  0  0  0  0
   11.4449   -0.9396    0.0000 C   0  0  0  0  0  0  0  0  0  0  0  0
   11.3220    0.2295    0.0000 C   0  0  0  0  0  0  0  0  0  0  0  0
    8.1301    0.3968    0.0000 C   0  0  0  0  0  0  0  0  0  0  0  0
    7.2641   -0.1032    0.0000 C   0  0  2  0  0  0  0  0  0  0  0  0
   10.1176    1.2816    0.0000 C   0  0  0  0  0  0  0  0  0  0  0  0
    6.3981    0.3968    0.0000 C   0  0  0  0  0  0  0  0  0  0  0  0
    5.5321   -0.1032    0.0000 C   0  0  2  0  0  0  0  0  0  0  0  0
    4.6660    0.3968    0.0000 C   0  0  0  0  0  0  0  0  0  0  0  0
    4.6660   -2.6032    0.0000 C   0  0  2  0  0  0  0  0  0  0  0  0
    5.5321   -1.1032    0.0000 C   0  0  0  0  0  0  0  0  0  0  0  0
    5.5321   -3.1032    0.0000 C   0  0  1  0  0  0  0  0  0  0  0  0
    3.8000   -3.1032    0.0000 C   0  0  0  0  0  0  0  0  0  0  0  0
   11.2766    2.5688    0.0000 C   0  0  0  0  0  0  0  0  0  0  0  0
    4.6660    1.3968    0.0000 C   0  0  0  0  0  0  0  0  0  0  0  0
    5.5321   -4.1032    0.0000 C   0  0  0  0  0  0  0  0  0  0  0  0
    3.8000   -4.1032    0.0000 C   0  0  0  0  0  0  0  0  0  0  0  0
   12.2276    2.8778    0.0000 C   0  0  0  0  0  0  0  0  0  0  0  0
    2.9061   -2.5686    0.0000 C   0  0  0  0  0  0  0  0  0  0  0  0
    3.8000    1.8968    0.0000 C   0  0  0  0  0  0  0  0  0  0  0  0
    5.5321    1.8968    0.0000 C   0  0  0  0  0  0  0  0  0  0  0  0
    2.9061   -4.6379    0.0000 C   0  0  0  0  0  0  0  0  0  0  0  0
    2.0000   -3.0824    0.0000 C   0  0  0  0  0  0  0  0  0  0  0  0
   12.5367    3.8289    0.0000 C   0  0  0  0  0  0  0  0  0  0  0  0
   13.0367    2.2900    0.0000 C   0  0  0  0  0  0  0  0  0  0  0  0
    2.0000   -4.1241    0.0000 C   0  0  0  0  0  0  0  0  0  0  0  0
    3.8000    2.8968    0.0000 C   0  0  0  0  0  0  0  0  0  0  0  0
    5.5321    2.8968    0.0000 C   0  0  0  0  0  0  0  0  0  0  0  0
    4.6660    3.3968    0.0000 C   0  0  0  0  0  0  0  0  0  0  0  0
   11.9489    4.6379    0.0000 C   0  0  0  0  0  0  0  0  0  0  0  0
   13.0367    1.2900    0.0000 C   0  0  0  0  0  0  0  0  0  0  0  0
    9.4279    0.6937    0.0000 H   0  0  0  0  0  0  0  0  0  0  0  0
    8.4807   -1.0978    0.0000 H   0  0  0  0  0  0  0  0  0  0  0  0
    9.0359   -1.7144    0.0000 H   0  0  0  0  0  0  0  0  0  0  0  0
   11.1349   -1.4766    0.0000 H   0  0  0  0  0  0  0  0  0  0  0  0
   11.9818   -1.2496    0.0000 H   0  0  0  0  0  0  0  0  0  0  0  0
   11.7549   -0.4027    0.0000 H   0  0  0  0  0  0  0  0  0  0  0  0
   11.7368   -0.2313    0.0000 H   0  0  0  0  0  0  0  0  0  0  0  0
   11.7827    0.6443    0.0000 H   0  0  0  0  0  0  0  0  0  0  0  0
   10.9071    0.6902    0.0000 H   0  0  0  0  0  0  0  0  0  0  0  0
    7.8010   -0.4132    0.0000 H   0  0  0  0  0  0  0  0  0  0  0  0
    6.7966    0.8717    0.0000 H   0  0  0  0  0  0  0  0  0  0  0  0
    5.9996    0.8717    0.0000 H   0  0  0  0  0  0  0  0  0  0  0  0
    5.5321    0.5168    0.0000 H   0  0  0  0  0  0  0  0  0  0  0  0
    4.0555    0.5044    0.0000 H   0  0  0  0  0  0  0  0  0  0  0  0
    4.4540   -0.1858    0.0000 H   0  0  0  0  0  0  0  0  0  0  0  0
    4.1291   -2.2932    0.0000 H   0  0  0  0  0  0  0  0  0  0  0  0
   11.5294    1.1758    0.0000 H   0  0  0  0  0  0  0  0  0  0  0  0
    5.5321   -2.4832    0.0000 H   0  0  0  0  0  0  0  0  0  0  0  0
    4.1291   -1.2932    0.0000 H   0  0  0  0  0  0  0  0  0  0  0  0
   11.1903    3.1828    0.0000 H   0  0  0  0  0  0  0  0  0  0  0  0
   10.6570    2.5904    0.0000 H   0  0  0  0  0  0  0  0  0  0  0  0
    7.8010   -1.4132    0.0000 H   0  0  0  0  0  0  0  0  0  0  0  0
    5.7441   -4.6858    0.0000 H   0  0  0  0  0  0  0  0  0  0  0  0
    6.1426   -3.9956    0.0000 H   0  0  0  0  0  0  0  0  0  0  0  0
    2.9132   -1.9486    0.0000 H   0  0  0  0  0  0  0  0  0  0  0  0
    3.2631    1.5868    0.0000 H   0  0  0  0  0  0  0  0  0  0  0  0
    6.0690    1.5868    0.0000 H   0  0  0  0  0  0  0  0  0  0  0  0
    6.9350   -2.9132    0.0000 H   0  0  0  0  0  0  0  0  0  0  0  0
    2.9132   -5.2579    0.0000 H   0  0  0  0  0  0  0  0  0  0  0  0
    1.4643   -2.7704    0.0000 H   0  0  0  0  0  0  0  0  0  0  0  0
    1.4643   -4.4361    0.0000 H   0  0  0  0  0  0  0  0  0  0  0  0
    3.2631    3.2068    0.0000 H   0  0  0  0  0  0  0  0  0  0  0  0
    6.0690    3.2068    0.0000 H   0  0  0  0  0  0  0  0  0  0  0  0
    4.6660    4.0168    0.0000 H   0  0  0  0  0  0  0  0  0  0  0  0
   12.4505    5.0023    0.0000 H   0  0  0  0  0  0  0  0  0  0  0  0
   11.5844    5.1395    0.0000 H   0  0  0  0  0  0  0  0  0  0  0  0
   11.4473    4.2735    0.0000 H   0  0  0  0  0  0  0  0  0  0  0  0
   12.4167    1.2900    0.0000 H   0  0  0  0  0  0  0  0  0  0  0  0
   13.0367    0.6700    0.0000 H   0  0  0  0  0  0  0  0  0  0  0  0
   13.6567    1.2900    0.0000 H   0  0  0  0  0  0  0  0  0  0  0  0
  1 13  1  0  0  0  0
  1 15  1  0  0  0  0
 19  2  1  1  0  0  0
  2 67  1  0  0  0  0
  3 18  2  0  0  0  0
  4 20  2  0  0  0  0
  5 30  1  0  0  0  0
  5 31  1  0  0  0  0
 26  6  1  6  0  0  0
  6 73  1  0  0  0  0
  7 25  2  0  0  0  0
  8 12  1  0  0  0  0
  8 38  1  0  0  0  0
  9 14  1  0  0  0  0
  9 15  1  0  0  0  0
  9 18  1  0  0  0  0
 10 20  1  0  0  0  0
 10 28  1  0  0  0  0
 10 62  1  0  0  0  0
 24 11  1  6  0  0  0
 11 25  1  0  0  0  0
 11 64  1  0  0  0  0
 12 39  2  0  0  0  0
 13 14  1  0  0  0  0
 13 16  1  0  0  0  0
 13 17  1  0  0  0  0
 14 20  1  6  0  0  0
 14 46  1  0  0  0  0
 15 47  1  0  0  0  0
 15 48  1  0  0  0  0
 16 49  1  0  0  0  0
 16 50  1  0  0  0  0
 16 51  1  0  0  0  0
 17 52  1  0  0  0  0
 17 53  1  0  0  0  0
 17 54  1  0  0  0  0
 18 19  1  0  0  0  0
 19 21  1  0  0  0  0
 19 55  1  0  0  0  0
 22 21  1  1  0  0  0
 21 56  1  0  0  0  0
 21 57  1  0  0  0  0
 22 23  1  0  0  0  0
 22 25  1  0  0  0  0
 22 58  1  0  0  0  0
 23 29  1  0  0  0  0
 23 59  1  0  0  0  0
 23 60  1  0  0  0  0
 24 26  1  0  0  0  0
 24 27  1  0  0  0  0
 24 61  1  0  0  0  0
 26 30  1  0  0  0  0
 26 63  1  0  0  0  0
 27 31  1  0  0  0  0
 27 33  2  0  0  0  0
 28 32  1  0  0  0  0
 28 65  1  0  0  0  0
 28 66  1  0  0  0  0
 29 34  2  0  0  0  0
 29 35  1  0  0  0  0
 30 68  1  0  0  0  0
 30 69  1  0  0  0  0
 31 36  2  0  0  0  0
 32 38  2  0  0  0  0
 32 39  1  0  0  0  0
 33 37  1  0  0  0  0
 33 70  1  0  0  0  0
 34 41  1  0  0  0  0
 34 71  1  0  0  0  0
 35 42  2  0  0  0  0
 35 72  1  0  0  0  0
 36 40  1  0  0  0  0
 36 74  1  0  0  0  0
 37 40  2  0  0  0  0
 37 75  1  0  0  0  0
 38 44  1  0  0  0  0
 39 45  1  0  0  0  0
 40 76  1  0  0  0  0
 41 43  2  0  0  0  0
 41 77  1  0  0  0  0
 42 43  1  0  0  0  0
 42 78  1  0  0  0  0
 43 79  1  0  0  0  0
 44 80  1  0  0  0  0
 44 81  1  0  0  0  0
 44 82  1  0  0  0  0
 45 83  1  0  0  0  0
 45 84  1  0  0  0  0
 45 85  1  0  0  0  0
M  END
> <PUBCHEM_COMPOUND_CID>
503792
> <PUBCHEM_COMPOUND_CANONICALIZED>
1
> <PUBCHEM_CACTVS_COMPLEXITY>
1040
> <PUBCHEM_CACTVS_HBOND_ACCEPTOR>
9
> <PUBCHEM_CACTVS_HBOND_DONOR>
4
> <PUBCHEM_CACTVS_ROTATABLE_BOND>
10
> <PUBCHEM_CACTVS_SUBSKEYS>
AAADcfB/uABAAAAAAAAAAAAAAAAAAWLAAAA0YIAAAAAAAACR0AAAHgQUCAAADTzh3gayhpPQBgipA6VyUgKCCABkIBAomKH+TNoPdjqk8buWeajm1hmb6Uf6y/COAAAAAAAIAAAAAAAAABAAAAAAAAAAAA==
> <PUBCHEM_IUPAC_OPENEYE_NAME>
(4R)-3-[(2S,4S)-4-benzyl-2-hydroxy-5-[[(3S,4S)-3-hydroxychroman-4-yl]amino]-5-oxo-pentanoyl]-N-[(3,5-dimethylisoxazol-4-yl)methyl]-5,5-dimethyl-thiazolidine-4-carboxamide
> <PUBCHEM_IUPAC_CAS_NAME>
(4R)-N-[(3,5-dimethyl-4-isoxazolyl)methyl]-3-[(2S,4S)-2-hydroxy-5-[[(3S,4S)-3-hydroxy-3,4-dihydro-2H-1-benzopyran-4-yl]amino]-1,5-dioxo-4-(phenylmethyl)pentyl]-5,5-dimethyl-4-thiazolidinecarboxamide
> <PUBCHEM_IUPAC_NAME_MARKUP>
(4<I>R</I>)-3-[(2<I>S</I>,4<I>S</I>)-4-benzyl-2-hydroxy-5-[[(3<I>S</I>,4<I>S</I>)-3-hydroxy-3,4-dihydro-2<I>H</I>-chromen-4-yl]amino]-5-oxopentanoyl]-<I>N</I>-[(3,5-dimethyl-1,2-oxazol-4-yl)methyl]-5,5-dimethyl-1,3-thiazolidine-4-carboxamide
> <PUBCHEM_IUPAC_NAME>
(4R)-3-[(2S,4S)-4-benzyl-2-hydroxy-5-[[(3S,4S)-3-hydroxy-3,4-dihydro-2H-chromen-4-yl]amino]-5-oxopentanoyl]-N-[(3,5-dimethyl-1,2-oxazol-4-yl)methyl]-5,5-dimethyl-1,3-thiazolidine-4-carboxamide
> <PUBCHEM_IUPAC_SYSTEMATIC_NAME>
(4R)-N-[(3,5-dimethyl-1,2-oxazol-4-yl)methyl]-5,5-dimethyl-3-[(2S,4S)-2-oxidanyl-5-[[(3S,4S)-3-oxidanyl-3,4-dihydro-2H-chromen-4-yl]amino]-5-oxidanylidene-4-(phenylmethyl)pentanoyl]-1,3-thiazolidine-4-carboxamide
> <PUBCHEM_IUPAC_TRADITIONAL_NAME>
(4R)-3-[(2S,4S)-4-benzyl-2-hydroxy-5-[[(3S,4S)-3-hydroxychroman-4-yl]amino]-5-keto-pentanoyl]-N-[(3,5-dimethylisoxazol-4-yl)methyl]-5,5-dimethyl-thiazolidine-4-carboxamide
> <PUBCHEM_IUPAC_INCHI>
InChI=1S/C33H40N4O7S/c1-19-24(20(2)44-36-19)16-34-31(41)29-33(3,4)45-18-37(29)32(42)25(38)15-22(14-21-10-6-5-7-11-21)30(40)35-28-23-12-8-9-13-27(23)43-17-26(28)39/h5-13,22,25-26,28-29,38-39H,14-18H2,1-4H3,(H,34,41)(H,35,40)/t22-,25-,26+,28-,29+/m0/s1
> <PUBCHEM_IUPAC_INCHIKEY>
OIGRVBGGQVHPRF-POPAHSKHSA-N
> <PUBCHEM_XLOGP3_AA>
2.6
> <PUBCHEM_EXACT_MASS>
636.26177080
> <PUBCHEM_MOLECULAR_FORMULA>
C33H40N4O7S
> <PUBCHEM_MOLECULAR_WEIGHT>
636.8
> <PUBCHEM_OPENEYE_CAN_SMILES>
CC1=C(C(=NO1)C)CNC(=O)C2C(SCN2C(=O)C(CC(CC3=CC=CC=C3)C(=O)NC4C(COC5=CC=CC=C45)O)O)(C)C
> <PUBCHEM_OPENEYE_ISO_SMILES>
CC1=C(C(=NO1)C)CNC(=O)[C@@H]2C(SCN2C(=O)[C@H](C[C@H](CC3=CC=CC=C3)C(=O)N[C@@H]4[C@@H](COC5=CC=CC=C45)O)O)(C)C
> <PUBCHEM_CACTVS_TPSA>
180
> <PUBCHEM_MONOISOTOPIC_WEIGHT>
636.26177080
> <PUBCHEM_TOTAL_CHARGE>
0
> <PUBCHEM_HEAVY_ATOM_COUNT>
45
> <PUBCHEM_ATOM_DEF_STEREO_COUNT>
5
> <PUBCHEM_ATOM_UDEF_STEREO_COUNT>
0
> <PUBCHEM_BOND_DEF_STEREO_COUNT>
0
> <PUBCHEM_BOND_UDEF_STEREO_COUNT>
0
> <PUBCHEM_ISOTOPIC_ATOM_COUNT>
0
> <PUBCHEM_COMPONENT_COUNT>
1
> <PUBCHEM_CACTVS_TAUTO_COUNT>
-1
> <PUBCHEM_COORDINATE_TYPE>
1
5
255
> <PUBCHEM_BONDANNOTATIONS>
24  11  6
12  39  8
14  20  6
19  2  5
22  21  5
27  31  8
27  33  8
29  34  8
29  35  8
31  36  8
32  38  8
32  39  8
33  37  8
34  41  8
35  42  8
36  40  8
37  40  8
41  43  8
42  43  8
26  6  6
8  12  8
8  38  8
$$$$
