503734
  -OEChem-10302200282D
 68 72  0     1  0  0  0  0  0999 V2000
    6.0010   -0.3450    0.0000 O   0  0  0  0  0  0  0  0  0  0  0  0
    4.2690   -0.3450    0.0000 O   0  0  0  0  0  0  0  0  0  0  0  0
    6.8671    2.1550    0.0000 O   0  0  0  0  0  0  0  0  0  0  0  0
    6.0010   -2.3450    0.0000 O   0  0  0  0  0  0  0  0  0  0  0  0
    4.2690   -3.3450    0.0000 O   0  0  0  0  0  0  0  0  0  0  0  0
    2.5369   -2.3450    0.0000 O   0  0  0  0  0  0  0  0  0  0  0  0
    4.2690    2.6550    0.0000 O   0  0  0  0  0  0  0  0  0  0  0  0
    4.2690    0.6550    0.0000 O   0  0  0  0  0  0  0  0  0  0  0  0
    8.5991    2.1550    0.0000 O   0  0  0  0  0  0  0  0  0  0  0  0
    6.8671   -0.8450    0.0000 O   0  0  0  0  0  0  0  0  0  0  0  0
   10.3591   -0.8797    0.0000 O   0  0  0  0  0  0  0  0  0  0  0  0
   10.3475    2.1896    0.0000 O   0  0  0  0  0  0  0  0  0  0  0  0
   14.7215   -2.3792    0.0000 O   0  0  0  0  0  0  0  0  0  0  0  0
    5.1350   -0.8450    0.0000 C   0  0  2  0  0  0  0  0  0  0  0  0
    5.1350   -1.8450    0.0000 C   0  0  1  0  0  0  0  0  0  0  0  0
    6.0010    0.6550    0.0000 C   0  0  2  0  0  0  0  0  0  0  0  0
    4.2690   -2.3450    0.0000 C   0  0  1  0  0  0  0  0  0  0  0  0
    3.4030   -1.8450    0.0000 C   0  0  2  0  0  0  0  0  0  0  0  0
    6.8671    1.1550    0.0000 C   0  0  1  0  0  0  0  0  0  0  0  0
    3.4030   -0.8450    0.0000 C   0  0  2  0  0  0  0  0  0  0  0  0
    6.0010    2.6550    0.0000 C   0  0  2  0  0  0  0  0  0  0  0  0
    5.1350    2.1550    0.0000 C   0  0  1  0  0  0  0  0  0  0  0  0
    5.1350    1.1550    0.0000 C   0  0  0  0  0  0  0  0  0  0  0  0
    7.7331    0.6550    0.0000 C   0  0  0  0  0  0  0  0  0  0  0  0
    2.5369   -0.3450    0.0000 C   0  0  0  0  0  0  0  0  0  0  0  0
    6.0010    3.6550    0.0000 C   0  0  0  0  0  0  0  0  0  0  0  0
    8.5991    1.1550    0.0000 C   0  0  0  0  0  0  0  0  0  0  0  0
    7.7331   -0.3450    0.0000 C   0  0  0  0  0  0  0  0  0  0  0  0
    9.4651    0.6550    0.0000 C   0  0  0  0  0  0  0  0  0  0  0  0
    8.5991   -0.8450    0.0000 C   0  0  0  0  0  0  0  0  0  0  0  0
    9.4651   -0.3450    0.0000 C   0  0  0  0  0  0  0  0  0  0  0  0
   10.3591    1.1897    0.0000 C   0  0  0  0  0  0  0  0  0  0  0  0
   11.2651    0.6758    0.0000 C   0  0  0  0  0  0  0  0  0  0  0  0
   11.2651   -0.3658    0.0000 C   0  0  0  0  0  0  0  0  0  0  0  0
   12.1292   -0.8692    0.0000 C   0  0  0  0  0  0  0  0  0  0  0  0
   12.1254   -1.8691    0.0000 C   0  0  0  0  0  0  0  0  0  0  0  0
   12.9972   -0.3725    0.0000 C   0  0  0  0  0  0  0  0  0  0  0  0
   12.9895   -2.3725    0.0000 C   0  0  0  0  0  0  0  0  0  0  0  0
   13.8613   -0.8758    0.0000 C   0  0  0  0  0  0  0  0  0  0  0  0
   13.8574   -1.8758    0.0000 C   0  0  0  0  0  0  0  0  0  0  0  0
    5.1350   -0.2250    0.0000 H   0  0  0  0  0  0  0  0  0  0  0  0
    5.1350   -2.4650    0.0000 H   0  0  0  0  0  0  0  0  0  0  0  0
    6.5380    0.3450    0.0000 H   0  0  0  0  0  0  0  0  0  0  0  0
    3.7320   -2.6550    0.0000 H   0  0  0  0  0  0  0  0  0  0  0  0
    3.4030   -2.4650    0.0000 H   0  0  0  0  0  0  0  0  0  0  0  0
    7.6032    1.5800    0.0000 H   0  0  0  0  0  0  0  0  0  0  0  0
    3.4030   -0.2250    0.0000 H   0  0  0  0  0  0  0  0  0  0  0  0
    6.5380    2.9650    0.0000 H   0  0  0  0  0  0  0  0  0  0  0  0
    5.1350    2.7750    0.0000 H   0  0  0  0  0  0  0  0  0  0  0  0
    2.8469    0.1919    0.0000 H   0  0  0  0  0  0  0  0  0  0  0  0
    2.0000   -0.0350    0.0000 H   0  0  0  0  0  0  0  0  0  0  0  0
    2.2269   -0.8819    0.0000 H   0  0  0  0  0  0  0  0  0  0  0  0
    6.6210    3.6550    0.0000 H   0  0  0  0  0  0  0  0  0  0  0  0
    6.0010    4.2750    0.0000 H   0  0  0  0  0  0  0  0  0  0  0  0
    5.3810    3.6550    0.0000 H   0  0  0  0  0  0  0  0  0  0  0  0
    6.0010   -2.9650    0.0000 H   0  0  0  0  0  0  0  0  0  0  0  0
    3.7320   -3.6550    0.0000 H   0  0  0  0  0  0  0  0  0  0  0  0
    2.0000   -2.0350    0.0000 H   0  0  0  0  0  0  0  0  0  0  0  0
    4.2690    3.2750    0.0000 H   0  0  0  0  0  0  0  0  0  0  0  0
    8.5991   -1.4650    0.0000 H   0  0  0  0  0  0  0  0  0  0  0  0
    9.1360    2.4650    0.0000 H   0  0  0  0  0  0  0  0  0  0  0  0
    6.8671   -1.4650    0.0000 H   0  0  0  0  0  0  0  0  0  0  0  0
   11.8009    0.9879    0.0000 H   0  0  0  0  0  0  0  0  0  0  0  0
   11.5873   -2.1771    0.0000 H   0  0  0  0  0  0  0  0  0  0  0  0
   12.9996    0.2475    0.0000 H   0  0  0  0  0  0  0  0  0  0  0  0
   12.9871   -2.9925    0.0000 H   0  0  0  0  0  0  0  0  0  0  0  0
   14.3994   -0.5679    0.0000 H   0  0  0  0  0  0  0  0  0  0  0  0
   15.2596   -2.0712    0.0000 H   0  0  0  0  0  0  0  0  0  0  0  0
 14  1  1  1  0  0  0
 16  1  1  1  0  0  0
  2 14  1  0  0  0  0
  2 20  1  0  0  0  0
  3 19  1  0  0  0  0
  3 21  1  0  0  0  0
 15  4  1  6  0  0  0
  4 56  1  0  0  0  0
 17  5  1  6  0  0  0
  5 57  1  0  0  0  0
 18  6  1  1  0  0  0
  6 58  1  0  0  0  0
 22  7  1  1  0  0  0
  7 59  1  0  0  0  0
  8 23  2  0  0  0  0
  9 27  1  0  0  0  0
  9 61  1  0  0  0  0
 10 28  1  0  0  0  0
 10 62  1  0  0  0  0
 11 31  1  0  0  0  0
 11 34  1  0  0  0  0
 12 32  2  0  0  0  0
 13 40  1  0  0  0  0
 13 68  1  0  0  0  0
 14 15  1  0  0  0  0
 14 41  1  0  0  0  0
 15 17  1  0  0  0  0
 15 42  1  0  0  0  0
 16 19  1  0  0  0  0
 16 23  1  0  0  0  0
 16 43  1  0  0  0  0
 17 18  1  0  0  0  0
 17 44  1  0  0  0  0
 18 20  1  0  0  0  0
 18 45  1  0  0  0  0
 19 24  1  0  0  0  0
 19 46  1  1  0  0  0
 20 25  1  6  0  0  0
 20 47  1  0  0  0  0
 21 22  1  0  0  0  0
 21 26  1  6  0  0  0
 21 48  1  0  0  0  0
 22 23  1  0  0  0  0
 22 49  1  0  0  0  0
 24 27  2  0  0  0  0
 24 28  1  0  0  0  0
 25 50  1  0  0  0  0
 25 51  1  0  0  0  0
 25 52  1  0  0  0  0
 26 53  1  0  0  0  0
 26 54  1  0  0  0  0
 26 55  1  0  0  0  0
 27 29  1  0  0  0  0
 28 30  2  0  0  0  0
 29 31  2  0  0  0  0
 29 32  1  0  0  0  0
 30 31  1  0  0  0  0
 30 60  1  0  0  0  0
 32 33  1  0  0  0  0
 33 34  2  0  0  0  0
 33 63  1  0  0  0  0
 34 35  1  0  0  0  0
 35 36  2  0  0  0  0
 35 37  1  0  0  0  0
 36 38  1  0  0  0  0
 36 64  1  0  0  0  0
 37 39  2  0  0  0  0
 37 65  1  0  0  0  0
 38 40  2  0  0  0  0
 38 66  1  0  0  0  0
 39 40  1  0  0  0  0
 39 67  1  0  0  0  0
M  END
> <PUBCHEM_COMPOUND_CID>
503734
> <PUBCHEM_COMPOUND_CANONICALIZED>
1
> <PUBCHEM_CACTVS_COMPLEXITY>
980
> <PUBCHEM_CACTVS_HBOND_ACCEPTOR>
13
> <PUBCHEM_CACTVS_HBOND_DONOR>
7
> <PUBCHEM_CACTVS_ROTATABLE_BOND>
4
> <PUBCHEM_CACTVS_SUBSKEYS>
AAADceB4PAAAAAAAAAAAAAAAAAAAAAAAAAA0aIECAAAAAACBQAAAGgAACAAADBSwmAMyDoAABgCIAqBSAAICCAAkIAAIiAFGCMgdNzaGNR6ieWCl4BUPuQfI7PzOIAACCAAIAABAAAQQABAAAAAAAAAAAA==
> <PUBCHEM_IUPAC_OPENEYE_NAME>
5,7-dihydroxy-6-[(2R,3R,5S,6S)-5-hydroxy-6-methyl-4-oxo-3-[(2S,3R,4R,5R,6S)-3,4,5-trihydroxy-6-methyl-tetrahydropyran-2-yl]oxy-tetrahydropyran-2-yl]-2-(4-hydroxyphenyl)chromen-4-one
> <PUBCHEM_IUPAC_CAS_NAME>
5,7-dihydroxy-6-[(2R,3R,5S,6S)-5-hydroxy-6-methyl-4-oxo-3-[[(2S,3R,4R,5R,6S)-3,4,5-trihydroxy-6-methyl-2-oxanyl]oxy]-2-oxanyl]-2-(4-hydroxyphenyl)-1-benzopyran-4-one
> <PUBCHEM_IUPAC_NAME_MARKUP>
5,7-dihydroxy-6-[(2<I>R</I>,3<I>R</I>,5<I>S</I>,6<I>S</I>)-5-hydroxy-6-methyl-4-oxo-3-[(2<I>S</I>,3<I>R</I>,4<I>R</I>,5<I>R</I>,6<I>S</I>)-3,4,5-trihydroxy-6-methyloxan-2-yl]oxyoxan-2-yl]-2-(4-hydroxyphenyl)chromen-4-one
> <PUBCHEM_IUPAC_NAME>
5,7-dihydroxy-6-[(2R,3R,5S,6S)-5-hydroxy-6-methyl-4-oxo-3-[(2S,3R,4R,5R,6S)-3,4,5-trihydroxy-6-methyloxan-2-yl]oxyoxan-2-yl]-2-(4-hydroxyphenyl)chromen-4-one
> <PUBCHEM_IUPAC_SYSTEMATIC_NAME>
2-(4-hydroxyphenyl)-6-[(2R,3R,5S,6S)-6-methyl-3-[(2S,3R,4R,5R,6S)-6-methyl-3,4,5-tris(oxidanyl)oxan-2-yl]oxy-5-oxidanyl-4-oxidanylidene-oxan-2-yl]-5,7-bis(oxidanyl)chromen-4-one
> <PUBCHEM_IUPAC_TRADITIONAL_NAME>
5,7-dihydroxy-6-[(2R,3R,5S,6S)-5-hydroxy-4-keto-6-methyl-3-[(2S,3R,4R,5R,6S)-3,4,5-trihydroxy-6-methyl-tetrahydropyran-2-yl]oxy-tetrahydropyran-2-yl]-2-(4-hydroxyphenyl)chromone
> <PUBCHEM_IUPAC_INCHI>
InChI=1S/C27H28O13/c1-9-20(32)23(35)26(40-27-24(36)22(34)19(31)10(2)38-27)25(37-9)18-14(30)8-16-17(21(18)33)13(29)7-15(39-16)11-3-5-12(28)6-4-11/h3-10,19-20,22,24-28,30-34,36H,1-2H3/t9-,10-,19-,20-,22+,24+,25+,26-,27-/m0/s1
> <PUBCHEM_IUPAC_INCHIKEY>
KCQFNIYRJNSNLG-MTJGCPMUSA-N
> <PUBCHEM_XLOGP3_AA>
0
> <PUBCHEM_EXACT_MASS>
560.15299094
> <PUBCHEM_MOLECULAR_FORMULA>
C27H28O13
> <PUBCHEM_MOLECULAR_WEIGHT>
560.5
> <PUBCHEM_OPENEYE_CAN_SMILES>
CC1C(C(C(C(O1)OC2C(OC(C(C2=O)O)C)C3=C(C4=C(C=C3O)OC(=CC4=O)C5=CC=C(C=C5)O)O)O)O)O
> <PUBCHEM_OPENEYE_ISO_SMILES>
C[C@H]1[C@@H]([C@H]([C@H]([C@@H](O1)O[C@@H]2[C@H](O[C@H]([C@@H](C2=O)O)C)C3=C(C4=C(C=C3O)OC(=CC4=O)C5=CC=C(C=C5)O)O)O)O)O
> <PUBCHEM_CACTVS_TPSA>
213
> <PUBCHEM_MONOISOTOPIC_WEIGHT>
560.15299094
> <PUBCHEM_TOTAL_CHARGE>
0
> <PUBCHEM_HEAVY_ATOM_COUNT>
40
> <PUBCHEM_ATOM_DEF_STEREO_COUNT>
9
> <PUBCHEM_ATOM_UDEF_STEREO_COUNT>
0
> <PUBCHEM_BOND_DEF_STEREO_COUNT>
0
> <PUBCHEM_BOND_UDEF_STEREO_COUNT>
0
> <PUBCHEM_ISOTOPIC_ATOM_COUNT>
0
> <PUBCHEM_COMPONENT_COUNT>
1
> <PUBCHEM_CACTVS_TAUTO_COUNT>
-1
> <PUBCHEM_COORDINATE_TYPE>
1
5
255
> <PUBCHEM_BONDANNOTATIONS>
14  1  5
16  1  5
11  31  8
11  34  8
19  46  5
20  25  6
21  26  6
24  27  8
24  28  8
27  29  8
28  30  8
29  31  8
29  32  8
30  31  8
32  33  8
33  34  8
35  36  8
35  37  8
36  38  8
37  39  8
38  40  8
39  40  8
15  4  6
17  5  6
18  6  5
22  7  5
$$$$
