503733
  -OEChem-10302200282D
 74 78  0     1  0  0  0  0  0999 V2000
    6.8671   -0.8952    0.0000 O   0  0  0  0  0  0  0  0  0  0  0  0
    4.2690   -3.3952    0.0000 O   0  0  0  0  0  0  0  0  0  0  0  0
    6.0010   -3.3952    0.0000 O   0  0  0  0  0  0  0  0  0  0  0  0
    7.7331   -3.3952    0.0000 O   0  0  0  0  0  0  0  0  0  0  0  0
    7.7331    0.6048    0.0000 O   0  0  0  0  0  0  0  0  0  0  0  0
    9.4651   -2.3952    0.0000 O   0  0  0  0  0  0  0  0  0  0  0  0
    9.4651   -0.3952    0.0000 O   0  0  0  0  0  0  0  0  0  0  0  0
    6.0010   -5.3952    0.0000 O   0  0  0  0  0  0  0  0  0  0  0  0
    4.2690   -6.3952    0.0000 O   0  0  0  0  0  0  0  0  0  0  0  0
    2.5369   -5.3952    0.0000 O   0  0  0  0  0  0  0  0  0  0  0  0
    2.5369   -2.3952    0.0000 O   0  0  0  0  0  0  0  0  0  0  0  0
    4.1934    0.6321    0.0000 O   0  0  0  0  0  0  0  0  0  0  0  0
    8.5950    2.1264    0.0000 O   0  0  0  0  0  0  0  0  0  0  0  0
    6.8822    5.1879    0.0000 O   0  0  0  0  0  0  0  0  0  0  0  0
    9.5164    3.6127    0.0000 O   0  0  0  0  0  0  0  0  0  0  0  0
    6.8671   -1.8952    0.0000 C   0  0  1  0  0  0  0  0  0  0  0  0
    7.7331   -2.3952    0.0000 C   0  0  2  0  0  0  0  0  0  0  0  0
    8.5991   -1.8952    0.0000 C   0  0  1  0  0  0  0  0  0  0  0  0
    8.5991   -0.8952    0.0000 C   0  0  2  0  0  0  0  0  0  0  0  0
    5.1350   -4.8952    0.0000 C   0  0  1  0  0  0  0  0  0  0  0  0
    5.1350   -3.8952    0.0000 C   0  0  1  0  0  0  0  0  0  0  0  0
    4.2690   -5.3952    0.0000 C   0  0  2  0  0  0  0  0  0  0  0  0
    3.4030   -4.8952    0.0000 C   0  0  1  0  0  0  0  0  0  0  0  0
    3.4030   -3.8952    0.0000 C   0  0  1  0  0  0  0  0  0  0  0  0
    7.7331   -0.3952    0.0000 C   0  0  1  0  0  0  0  0  0  0  0  0
    6.0010   -2.3952    0.0000 C   0  0  0  0  0  0  0  0  0  0  0  0
    2.5369   -3.3952    0.0000 C   0  0  0  0  0  0  0  0  0  0  0  0
    6.8671    1.1048    0.0000 C   0  0  0  0  0  0  0  0  0  0  0  0
    6.8630    2.1464    0.0000 C   0  0  0  0  0  0  0  0  0  0  0  0
    5.9630    0.5875    0.0000 C   0  0  0  0  0  0  0  0  0  0  0  0
    6.0029    2.6564    0.0000 C   0  0  0  0  0  0  0  0  0  0  0  0
    7.7348    2.6364    0.0000 C   0  0  0  0  0  0  0  0  0  0  0  0
    5.0670    1.1187    0.0000 C   0  0  0  0  0  0  0  0  0  0  0  0
    5.0871    2.1601    0.0000 C   0  0  0  0  0  0  0  0  0  0  0  0
    7.7464    3.6363    0.0000 C   0  0  0  0  0  0  0  0  0  0  0  0
    6.0144    3.6563    0.0000 C   0  0  0  0  0  0  0  0  0  0  0  0
    6.8862    4.1463    0.0000 C   0  0  0  0  0  0  0  0  0  0  0  0
    8.6622    4.1326    0.0000 C   0  0  0  0  0  0  0  0  0  0  0  0
    8.6822    5.1740    0.0000 C   0  0  0  0  0  0  0  0  0  0  0  0
    7.7862    5.7052    0.0000 C   0  0  0  0  0  0  0  0  0  0  0  0
    3.3351    1.1454    0.0000 C   0  0  0  0  0  0  0  0  0  0  0  0
    7.7940    6.7052    0.0000 C   0  0  0  0  0  0  0  0  0  0  0  0
    6.3301   -1.5852    0.0000 H   0  0  0  0  0  0  0  0  0  0  0  0
    8.2700   -2.7052    0.0000 H   0  0  0  0  0  0  0  0  0  0  0  0
    9.1360   -1.5852    0.0000 H   0  0  0  0  0  0  0  0  0  0  0  0
    8.5991   -0.2752    0.0000 H   0  0  0  0  0  0  0  0  0  0  0  0
    5.1350   -5.5152    0.0000 H   0  0  0  0  0  0  0  0  0  0  0  0
    5.1350   -3.2752    0.0000 H   0  0  0  0  0  0  0  0  0  0  0  0
    3.7320   -5.7052    0.0000 H   0  0  0  0  0  0  0  0  0  0  0  0
    3.4030   -5.5152    0.0000 H   0  0  0  0  0  0  0  0  0  0  0  0
    3.4030   -3.2752    0.0000 H   0  0  0  0  0  0  0  0  0  0  0  0
    7.1962   -0.0852    0.0000 H   0  0  0  0  0  0  0  0  0  0  0  0
    5.7890   -1.8126    0.0000 H   0  0  0  0  0  0  0  0  0  0  0  0
    5.3905   -2.5029    0.0000 H   0  0  0  0  0  0  0  0  0  0  0  0
    1.9264   -3.2876    0.0000 H   0  0  0  0  0  0  0  0  0  0  0  0
    2.3249   -3.9778    0.0000 H   0  0  0  0  0  0  0  0  0  0  0  0
    8.2700   -3.7052    0.0000 H   0  0  0  0  0  0  0  0  0  0  0  0
   10.0021   -2.0852    0.0000 H   0  0  0  0  0  0  0  0  0  0  0  0
   10.0021   -0.7052    0.0000 H   0  0  0  0  0  0  0  0  0  0  0  0
    6.5380   -5.0852    0.0000 H   0  0  0  0  0  0  0  0  0  0  0  0
    3.7320   -6.7052    0.0000 H   0  0  0  0  0  0  0  0  0  0  0  0
    2.0000   -5.0852    0.0000 H   0  0  0  0  0  0  0  0  0  0  0  0
    2.0000   -2.0852    0.0000 H   0  0  0  0  0  0  0  0  0  0  0  0
    5.9582   -0.0325    0.0000 H   0  0  0  0  0  0  0  0  0  0  0  0
    4.5574    2.4824    0.0000 H   0  0  0  0  0  0  0  0  0  0  0  0
    5.4811    3.9725    0.0000 H   0  0  0  0  0  0  0  0  0  0  0  0
    9.1355    2.4302    0.0000 H   0  0  0  0  0  0  0  0  0  0  0  0
    9.2239    5.4757    0.0000 H   0  0  0  0  0  0  0  0  0  0  0  0
    3.6534    1.6775    0.0000 H   0  0  0  0  0  0  0  0  0  0  0  0
    2.8030    1.4636    0.0000 H   0  0  0  0  0  0  0  0  0  0  0  0
    3.0169    0.6133    0.0000 H   0  0  0  0  0  0  0  0  0  0  0  0
    8.4139    6.7004    0.0000 H   0  0  0  0  0  0  0  0  0  0  0  0
    7.7987    7.3252    0.0000 H   0  0  0  0  0  0  0  0  0  0  0  0
    7.1740    6.7100    0.0000 H   0  0  0  0  0  0  0  0  0  0  0  0
  1 16  1  0  0  0  0
  1 25  1  0  0  0  0
  2 21  1  0  0  0  0
  2 24  1  0  0  0  0
 21  3  1  1  0  0  0
  3 26  1  0  0  0  0
 17  4  1  6  0  0  0
  4 57  1  0  0  0  0
 25  5  1  1  0  0  0
  5 28  1  0  0  0  0
 18  6  1  1  0  0  0
  6 58  1  0  0  0  0
 19  7  1  6  0  0  0
  7 59  1  0  0  0  0
 20  8  1  6  0  0  0
  8 60  1  0  0  0  0
 22  9  1  1  0  0  0
  9 61  1  0  0  0  0
 23 10  1  6  0  0  0
 10 62  1  0  0  0  0
 11 27  1  0  0  0  0
 11 63  1  0  0  0  0
 12 33  1  0  0  0  0
 12 41  1  0  0  0  0
 13 32  1  0  0  0  0
 13 67  1  0  0  0  0
 14 37  1  0  0  0  0
 14 40  1  0  0  0  0
 15 38  2  0  0  0  0
 16 17  1  0  0  0  0
 16 26  1  1  0  0  0
 16 43  1  0  0  0  0
 17 18  1  0  0  0  0
 17 44  1  0  0  0  0
 18 19  1  0  0  0  0
 18 45  1  0  0  0  0
 19 25  1  0  0  0  0
 19 46  1  0  0  0  0
 20 21  1  0  0  0  0
 20 22  1  0  0  0  0
 20 47  1  0  0  0  0
 21 48  1  0  0  0  0
 22 23  1  0  0  0  0
 22 49  1  0  0  0  0
 23 24  1  0  0  0  0
 23 50  1  0  0  0  0
 24 27  1  1  0  0  0
 24 51  1  0  0  0  0
 25 52  1  0  0  0  0
 26 53  1  0  0  0  0
 26 54  1  0  0  0  0
 27 55  1  0  0  0  0
 27 56  1  0  0  0  0
 28 29  2  0  0  0  0
 28 30  1  0  0  0  0
 29 31  1  0  0  0  0
 29 32  1  0  0  0  0
 30 33  2  0  0  0  0
 30 64  1  0  0  0  0
 31 34  2  0  0  0  0
 31 36  1  0  0  0  0
 32 35  2  0  0  0  0
 33 34  1  0  0  0  0
 34 65  1  0  0  0  0
 35 37  1  0  0  0  0
 35 38  1  0  0  0  0
 36 37  2  0  0  0  0
 36 66  1  0  0  0  0
 38 39  1  0  0  0  0
 39 40  2  0  0  0  0
 39 68  1  0  0  0  0
 40 42  1  0  0  0  0
 41 69  1  0  0  0  0
 41 70  1  0  0  0  0
 41 71  1  0  0  0  0
 42 72  1  0  0  0  0
 42 73  1  0  0  0  0
 42 74  1  0  0  0  0
M  END
> <PUBCHEM_COMPOUND_CID>
503733
> <PUBCHEM_COMPOUND_CANONICALIZED>
1
> <PUBCHEM_CACTVS_COMPLEXITY>
979
> <PUBCHEM_CACTVS_HBOND_ACCEPTOR>
15
> <PUBCHEM_CACTVS_HBOND_DONOR>
8
> <PUBCHEM_CACTVS_ROTATABLE_BOND>
7
> <PUBCHEM_CACTVS_SUBSKEYS>
AAADcfB4PAAAAAAAAAAAAAAAAAAAAAAAAAA0aIECAAAAAADBUAAAGgAACAAADBSwmAMyDsAABgCIAqBSAAACCAAkIAAAiAEGCMgdNzaGNRqieWCl4BUPuQfI7PzO4AADCAAYAADAAAYQADAAAAAAAAAAAA==
> <PUBCHEM_IUPAC_OPENEYE_NAME>
5-hydroxy-8-methoxy-2-methyl-6-[(2S,3R,4S,5S,6R)-3,4,5-trihydroxy-6-[[(2R,3R,4S,5S,6R)-3,4,5-trihydroxy-6-(hydroxymethyl)tetrahydropyran-2-yl]oxymethyl]tetrahydropyran-2-yl]oxy-benzo[g]chromen-4-one
> <PUBCHEM_IUPAC_CAS_NAME>
5-hydroxy-8-methoxy-2-methyl-6-[[(2S,3R,4S,5S,6R)-3,4,5-trihydroxy-6-[[(2R,3R,4S,5S,6R)-3,4,5-trihydroxy-6-(hydroxymethyl)-2-oxanyl]oxymethyl]-2-oxanyl]oxy]-4-benzo[g][1]benzopyranone
> <PUBCHEM_IUPAC_NAME_MARKUP>
5-hydroxy-8-methoxy-2-methyl-6-[(2<I>S</I>,3<I>R</I>,4<I>S</I>,5<I>S</I>,6<I>R</I>)-3,4,5-trihydroxy-6-[[(2<I>R</I>,3<I>R</I>,4<I>S</I>,5<I>S</I>,6<I>R</I>)-3,4,5-trihydroxy-6-(hydroxymethyl)oxan-2-yl]oxymethyl]oxan-2-yl]oxybenzo[g]chromen-4-one
> <PUBCHEM_IUPAC_NAME>
5-hydroxy-8-methoxy-2-methyl-6-[(2S,3R,4S,5S,6R)-3,4,5-trihydroxy-6-[[(2R,3R,4S,5S,6R)-3,4,5-trihydroxy-6-(hydroxymethyl)oxan-2-yl]oxymethyl]oxan-2-yl]oxybenzo[g]chromen-4-one
> <PUBCHEM_IUPAC_SYSTEMATIC_NAME>
6-[(2S,3R,4S,5S,6R)-6-[[(2R,3R,4S,5S,6R)-6-(hydroxymethyl)-3,4,5-tris(oxidanyl)oxan-2-yl]oxymethyl]-3,4,5-tris(oxidanyl)oxan-2-yl]oxy-8-methoxy-2-methyl-5-oxidanyl-benzo[g]chromen-4-one
> <PUBCHEM_IUPAC_TRADITIONAL_NAME>
5-hydroxy-8-methoxy-2-methyl-6-[(2S,3R,4S,5S,6R)-3,4,5-trihydroxy-6-[[(2R,3R,4S,5S,6R)-3,4,5-trihydroxy-6-methylol-tetrahydropyran-2-yl]oxymethyl]tetrahydropyran-2-yl]oxy-benzo[g]chromen-4-one
> <PUBCHEM_IUPAC_INCHI>
InChI=1S/C27H32O15/c1-9-3-12(29)18-13(39-9)5-10-4-11(37-2)6-14(17(10)21(18)32)40-27-25(36)23(34)20(31)16(42-27)8-38-26-24(35)22(33)19(30)15(7-28)41-26/h3-6,15-16,19-20,22-28,30-36H,7-8H2,1-2H3/t15-,16-,19-,20-,22+,23+,24-,25-,26-,27-/m1/s1
> <PUBCHEM_IUPAC_INCHIKEY>
JIBJMBHKGBDCPN-IJTBWITGSA-N
> <PUBCHEM_XLOGP3_AA>
-1
> <PUBCHEM_EXACT_MASS>
596.17412031
> <PUBCHEM_MOLECULAR_FORMULA>
C27H32O15
> <PUBCHEM_MOLECULAR_WEIGHT>
596.5
> <PUBCHEM_OPENEYE_CAN_SMILES>
CC1=CC(=O)C2=C(C3=C(C=C(C=C3C=C2O1)OC)OC4C(C(C(C(O4)COC5C(C(C(C(O5)CO)O)O)O)O)O)O)O
> <PUBCHEM_OPENEYE_ISO_SMILES>
CC1=CC(=O)C2=C(C3=C(C=C(C=C3C=C2O1)OC)O[C@H]4[C@@H]([C@H]([C@@H]([C@H](O4)CO[C@H]5[C@@H]([C@H]([C@@H]([C@H](O5)CO)O)O)O)O)O)O)O
> <PUBCHEM_CACTVS_TPSA>
234
> <PUBCHEM_MONOISOTOPIC_WEIGHT>
596.17412031
> <PUBCHEM_TOTAL_CHARGE>
0
> <PUBCHEM_HEAVY_ATOM_COUNT>
42
> <PUBCHEM_ATOM_DEF_STEREO_COUNT>
10
> <PUBCHEM_ATOM_UDEF_STEREO_COUNT>
0
> <PUBCHEM_BOND_DEF_STEREO_COUNT>
0
> <PUBCHEM_BOND_UDEF_STEREO_COUNT>
0
> <PUBCHEM_ISOTOPIC_ATOM_COUNT>
0
> <PUBCHEM_COMPONENT_COUNT>
1
> <PUBCHEM_CACTVS_TAUTO_COUNT>
-1
> <PUBCHEM_COORDINATE_TYPE>
1
5
255
> <PUBCHEM_BONDANNOTATIONS>
23  10  6
14  37  8
14  40  8
16  26  5
24  27  5
28  29  8
28  30  8
29  31  8
29  32  8
21  3  5
30  33  8
31  34  8
31  36  8
32  35  8
33  34  8
35  37  8
35  38  8
36  37  8
38  39  8
39  40  8
17  4  6
25  5  5
18  6  5
19  7  6
20  8  6
22  9  5
$$$$
