503747
  -OEChem-10302200282D
 34 36  0     1  0  0  0  0  0999 V2000
    7.4755   -0.9529    0.0000 Cl  0  0  0  0  0  0  0  0  0  0  0  0
    6.5525    0.6349    0.0000 S   0  0  0  0  0  0  0  0  0  0  0  0
    3.8774   -1.4529    0.0000 F   0  0  0  0  0  0  0  0  0  0  0  0
    4.6557    2.3950    0.0000 O   0  0  0  0  0  0  0  0  0  0  0  0
    4.9344    0.6349    0.0000 N   0  0  0  0  0  0  0  0  0  0  0  0
    5.7434    0.0471    0.0000 C   0  0  3  0  0  0  0  0  0  0  0  0
    5.7434   -0.9529    0.0000 C   0  0  0  0  0  0  0  0  0  0  0  0
    6.2434    1.5860    0.0000 C   0  0  0  0  0  0  0  0  0  0  0  0
    5.2434    1.5860    0.0000 C   0  0  0  0  0  0  0  0  0  0  0  0
    3.9563    0.8429    0.0000 C   0  0  0  0  0  0  0  0  0  0  0  0
    3.6473    1.7939    0.0000 C   0  0  0  0  0  0  0  0  0  0  0  0
    6.6095   -1.4529    0.0000 C   0  0  0  0  0  0  0  0  0  0  0  0
    4.8774   -1.4529    0.0000 C   0  0  0  0  0  0  0  0  0  0  0  0
    3.2872    0.0997    0.0000 C   0  0  0  0  0  0  0  0  0  0  0  0
    2.6691    2.0018    0.0000 C   0  0  0  0  0  0  0  0  0  0  0  0
    2.3090    0.3076    0.0000 C   0  0  0  0  0  0  0  0  0  0  0  0
    2.0000    1.2587    0.0000 C   0  0  0  0  0  0  0  0  0  0  0  0
    6.6095   -2.4529    0.0000 C   0  0  0  0  0  0  0  0  0  0  0  0
    4.8774   -2.4529    0.0000 C   0  0  0  0  0  0  0  0  0  0  0  0
    5.7434   -2.9529    0.0000 C   0  0  0  0  0  0  0  0  0  0  0  0
    2.3601    2.9529    0.0000 C   0  0  0  0  0  0  0  0  0  0  0  0
    5.1910   -0.2343    0.0000 H   0  0  0  0  0  0  0  0  0  0  0  0
    6.8499    1.7149    0.0000 H   0  0  0  0  0  0  0  0  0  0  0  0
    6.1786    2.2026    0.0000 H   0  0  0  0  0  0  0  0  0  0  0  0
    4.0621    2.2546    0.0000 H   0  0  0  0  0  0  0  0  0  0  0  0
    3.4788   -0.4900    0.0000 H   0  0  0  0  0  0  0  0  0  0  0  0
    1.8941   -0.1531    0.0000 H   0  0  0  0  0  0  0  0  0  0  0  0
    1.3936    1.3876    0.0000 H   0  0  0  0  0  0  0  0  0  0  0  0
    7.1464   -2.7629    0.0000 H   0  0  0  0  0  0  0  0  0  0  0  0
    4.3405   -2.7629    0.0000 H   0  0  0  0  0  0  0  0  0  0  0  0
    5.7434   -3.5729    0.0000 H   0  0  0  0  0  0  0  0  0  0  0  0
    2.9498    3.1444    0.0000 H   0  0  0  0  0  0  0  0  0  0  0  0
    2.1685    3.5425    0.0000 H   0  0  0  0  0  0  0  0  0  0  0  0
    1.7704    2.7613    0.0000 H   0  0  0  0  0  0  0  0  0  0  0  0
  1 12  1  0  0  0  0
  2  6  1  0  0  0  0
  2  8  1  0  0  0  0
  3 13  1  0  0  0  0
  4  9  2  0  0  0  0
  5  6  1  0  0  0  0
  5  9  1  0  0  0  0
  5 10  1  0  0  0  0
  6  7  1  0  0  0  0
  6 22  1  0  0  0  0
  7 12  1  0  0  0  0
  7 13  2  0  0  0  0
  8  9  1  0  0  0  0
  8 23  1  0  0  0  0
  8 24  1  0  0  0  0
 10 11  1  0  0  0  0
 10 14  2  0  0  0  0
 11 15  2  0  0  0  0
 11 25  1  0  0  0  0
 12 18  2  0  0  0  0
 13 19  1  0  0  0  0
 14 16  1  0  0  0  0
 14 26  1  0  0  0  0
 15 17  1  0  0  0  0
 15 21  1  0  0  0  0
 16 17  2  0  0  0  0
 16 27  1  0  0  0  0
 17 28  1  0  0  0  0
 18 20  1  0  0  0  0
 18 29  1  0  0  0  0
 19 20  2  0  0  0  0
 19 30  1  0  0  0  0
 20 31  1  0  0  0  0
 21 32  1  0  0  0  0
 21 33  1  0  0  0  0
 21 34  1  0  0  0  0
M  END
> <PUBCHEM_COMPOUND_CID>
503747
> <PUBCHEM_COMPOUND_CANONICALIZED>
1
> <PUBCHEM_CACTVS_COMPLEXITY>
397
> <PUBCHEM_CACTVS_HBOND_ACCEPTOR>
3
> <PUBCHEM_CACTVS_HBOND_DONOR>
0
> <PUBCHEM_CACTVS_ROTATABLE_BOND>
2
> <PUBCHEM_CACTVS_SUBSKEYS>
AAADccB6IQBEAAAAAAAAAAAAAAAAAWAAAAAwYAAAAAAAAAABQAAAHwYAAAAADArF2CyywIMAAAiIAiVSUACCAABhBxAIiAAIZogIICLhk5GEIAhghgDoyAcQgAAOAAAAQAABAAAAAACAAAIAAAAAAAAAAA==
> <PUBCHEM_IUPAC_OPENEYE_NAME>
2-(2-chloro-6-fluoro-phenyl)-3-(m-tolyl)thiazolidin-4-one
> <PUBCHEM_IUPAC_CAS_NAME>
2-(2-chloro-6-fluorophenyl)-3-(3-methylphenyl)-4-thiazolidinone
> <PUBCHEM_IUPAC_NAME_MARKUP>
2-(2-chloro-6-fluorophenyl)-3-(3-methylphenyl)-1,3-thiazolidin-4-one
> <PUBCHEM_IUPAC_NAME>
2-(2-chloro-6-fluorophenyl)-3-(3-methylphenyl)-1,3-thiazolidin-4-one
> <PUBCHEM_IUPAC_SYSTEMATIC_NAME>
2-(2-chloranyl-6-fluoranyl-phenyl)-3-(3-methylphenyl)-1,3-thiazolidin-4-one
> <PUBCHEM_IUPAC_TRADITIONAL_NAME>
2-(2-chloro-6-fluoro-phenyl)-3-(m-tolyl)thiazolidin-4-one
> <PUBCHEM_IUPAC_INCHI>
InChI=1S/C16H13ClFNOS/c1-10-4-2-5-11(8-10)19-14(20)9-21-16(19)15-12(17)6-3-7-13(15)18/h2-8,16H,9H2,1H3
> <PUBCHEM_IUPAC_INCHIKEY>
DNWNVHSTBYFLKI-UHFFFAOYSA-N
> <PUBCHEM_XLOGP3_AA>
4.5
> <PUBCHEM_EXACT_MASS>
321.0390411
> <PUBCHEM_MOLECULAR_FORMULA>
C16H13ClFNOS
> <PUBCHEM_MOLECULAR_WEIGHT>
321.8
> <PUBCHEM_OPENEYE_CAN_SMILES>
CC1=CC(=CC=C1)N2C(SCC2=O)C3=C(C=CC=C3Cl)F
> <PUBCHEM_OPENEYE_ISO_SMILES>
CC1=CC(=CC=C1)N2C(SCC2=O)C3=C(C=CC=C3Cl)F
> <PUBCHEM_CACTVS_TPSA>
45.6
> <PUBCHEM_MONOISOTOPIC_WEIGHT>
321.0390411
> <PUBCHEM_TOTAL_CHARGE>
0
> <PUBCHEM_HEAVY_ATOM_COUNT>
21
> <PUBCHEM_ATOM_DEF_STEREO_COUNT>
0
> <PUBCHEM_ATOM_UDEF_STEREO_COUNT>
1
> <PUBCHEM_BOND_DEF_STEREO_COUNT>
0
> <PUBCHEM_BOND_UDEF_STEREO_COUNT>
0
> <PUBCHEM_ISOTOPIC_ATOM_COUNT>
0
> <PUBCHEM_COMPONENT_COUNT>
1
> <PUBCHEM_CACTVS_TAUTO_COUNT>
-1
> <PUBCHEM_COORDINATE_TYPE>
1
5
255
> <PUBCHEM_BONDANNOTATIONS>
10  11  8
10  14  8
11  15  8
12  18  8
13  19  8
14  16  8
15  17  8
16  17  8
18  20  8
19  20  8
6  7  3
7  12  8
7  13  8
$$$$
