503783
  -OEChem-10302200282D
 87 91  0     1  0  0  0  0  0999 V2000
   10.0788   -1.0692    0.0000 S   0  0  0  0  0  0  0  0  0  0  0  0
    7.2641   -0.8668    0.0000 O   0  0  0  0  0  0  0  0  0  0  0  0
    9.3745    2.1872    0.0000 O   0  0  0  0  0  0  0  0  0  0  0  0
    4.6660   -4.3668    0.0000 O   0  0  0  0  0  0  0  0  0  0  0  0
    6.3981   -1.3668    0.0000 O   0  0  0  0  0  0  0  0  0  0  0  0
    6.3981   -2.3668    0.0000 O   0  0  0  0  0  0  0  0  0  0  0  0
    8.9962    0.1332    0.0000 N   0  0  3  0  0  0  0  0  0  0  0  0
   11.0687    1.8271    0.0000 N   0  0  0  0  0  0  0  0  0  0  0  0
    4.6660   -1.3668    0.0000 N   0  0  0  0  0  0  0  0  0  0  0  0
   10.5788   -0.2032    0.0000 C   0  0  0  0  0  0  0  0  0  0  0  0
    9.9097    0.5400    0.0000 C   0  0  1  0  0  0  0  0  0  0  0  0
    8.1301    0.6332    0.0000 C   0  0  0  0  0  0  0  0  0  0  0  0
    9.1007   -0.8613    0.0000 C   0  0  0  0  0  0  0  0  0  0  0  0
    7.2641    0.1332    0.0000 C   0  0  2  0  0  0  0  0  0  0  0  0
   11.4449   -0.7032    0.0000 C   0  0  0  0  0  0  0  0  0  0  0  0
   11.3220    0.4659    0.0000 C   0  0  0  0  0  0  0  0  0  0  0  0
    6.3981    0.6332    0.0000 C   0  0  0  0  0  0  0  0  0  0  0  0
   10.1176    1.5181    0.0000 C   0  0  0  0  0  0  0  0  0  0  0  0
    5.5321    0.1332    0.0000 C   0  0  1  0  0  0  0  0  0  0  0  0
    4.6660    0.6332    0.0000 C   0  0  0  0  0  0  0  0  0  0  0  0
    5.5321   -0.8668    0.0000 C   0  0  0  0  0  0  0  0  0  0  0  0
    4.6660   -2.3668    0.0000 C   0  0  2  0  0  0  0  0  0  0  0  0
    5.5321   -2.8668    0.0000 C   0  0  1  0  0  0  0  0  0  0  0  0
   11.2766    2.8053    0.0000 C   0  0  0  0  0  0  0  0  0  0  0  0
    4.6660    1.6332    0.0000 C   0  0  0  0  0  0  0  0  0  0  0  0
    3.8000   -2.8668    0.0000 C   0  0  0  0  0  0  0  0  0  0  0  0
    5.5321   -3.8668    0.0000 C   0  0  0  0  0  0  0  0  0  0  0  0
    3.8000   -3.8668    0.0000 C   0  0  0  0  0  0  0  0  0  0  0  0
   12.2276    3.1143    0.0000 C   0  0  0  0  0  0  0  0  0  0  0  0
    5.5321    2.1332    0.0000 C   0  0  0  0  0  0  0  0  0  0  0  0
    3.8000    2.1332    0.0000 C   0  0  0  0  0  0  0  0  0  0  0  0
    2.9061   -2.3321    0.0000 C   0  0  0  0  0  0  0  0  0  0  0  0
    2.9061   -4.4014    0.0000 C   0  0  0  0  0  0  0  0  0  0  0  0
   12.9708    2.4452    0.0000 C   0  0  0  0  0  0  0  0  0  0  0  0
    2.0000   -2.8460    0.0000 C   0  0  0  0  0  0  0  0  0  0  0  0
   12.4356    4.0924    0.0000 C   0  0  0  0  0  0  0  0  0  0  0  0
    5.5321    3.1332    0.0000 C   0  0  0  0  0  0  0  0  0  0  0  0
    3.8000    3.1332    0.0000 C   0  0  0  0  0  0  0  0  0  0  0  0
    2.0000   -3.8876    0.0000 C   0  0  0  0  0  0  0  0  0  0  0  0
    4.6660    3.6332    0.0000 C   0  0  0  0  0  0  0  0  0  0  0  0
   13.9218    2.7542    0.0000 C   0  0  0  0  0  0  0  0  0  0  0  0
   12.7629    1.4670    0.0000 C   0  0  0  0  0  0  0  0  0  0  0  0
   13.3866    4.4014    0.0000 C   0  0  0  0  0  0  0  0  0  0  0  0
   14.1298    3.7323    0.0000 C   0  0  0  0  0  0  0  0  0  0  0  0
    9.4279    0.9301    0.0000 H   0  0  0  0  0  0  0  0  0  0  0  0
    8.5287    1.1082    0.0000 H   0  0  0  0  0  0  0  0  0  0  0  0
    7.7316    1.1082    0.0000 H   0  0  0  0  0  0  0  0  0  0  0  0
    8.4807   -0.8613    0.0000 H   0  0  0  0  0  0  0  0  0  0  0  0
    9.0359   -1.4779    0.0000 H   0  0  0  0  0  0  0  0  0  0  0  0
    7.8010   -0.1768    0.0000 H   0  0  0  0  0  0  0  0  0  0  0  0
   11.1349   -1.2401    0.0000 H   0  0  0  0  0  0  0  0  0  0  0  0
   11.9818   -1.0132    0.0000 H   0  0  0  0  0  0  0  0  0  0  0  0
   11.7549   -0.1663    0.0000 H   0  0  0  0  0  0  0  0  0  0  0  0
   11.7368    0.0052    0.0000 H   0  0  0  0  0  0  0  0  0  0  0  0
   11.7827    0.8808    0.0000 H   0  0  0  0  0  0  0  0  0  0  0  0
   10.9071    0.9267    0.0000 H   0  0  0  0  0  0  0  0  0  0  0  0
    6.7966    1.1082    0.0000 H   0  0  0  0  0  0  0  0  0  0  0  0
    5.9996    1.1082    0.0000 H   0  0  0  0  0  0  0  0  0  0  0  0
    5.5321    0.7532    0.0000 H   0  0  0  0  0  0  0  0  0  0  0  0
    4.0555    0.7409    0.0000 H   0  0  0  0  0  0  0  0  0  0  0  0
    4.4540    0.0506    0.0000 H   0  0  0  0  0  0  0  0  0  0  0  0
   11.5294    1.4123    0.0000 H   0  0  0  0  0  0  0  0  0  0  0  0
    4.1291   -2.0568    0.0000 H   0  0  0  0  0  0  0  0  0  0  0  0
    7.8010   -1.1768    0.0000 H   0  0  0  0  0  0  0  0  0  0  0  0
    4.1291   -1.0568    0.0000 H   0  0  0  0  0  0  0  0  0  0  0  0
    5.5321   -2.2468    0.0000 H   0  0  0  0  0  0  0  0  0  0  0  0
   11.1903    3.4192    0.0000 H   0  0  0  0  0  0  0  0  0  0  0  0
   10.6570    2.8269    0.0000 H   0  0  0  0  0  0  0  0  0  0  0  0
    5.7441   -4.4494    0.0000 H   0  0  0  0  0  0  0  0  0  0  0  0
    6.1426   -3.7591    0.0000 H   0  0  0  0  0  0  0  0  0  0  0  0
    6.0690    1.8232    0.0000 H   0  0  0  0  0  0  0  0  0  0  0  0
    3.2631    1.8232    0.0000 H   0  0  0  0  0  0  0  0  0  0  0  0
    2.9132   -1.7122    0.0000 H   0  0  0  0  0  0  0  0  0  0  0  0
    6.9350   -2.6768    0.0000 H   0  0  0  0  0  0  0  0  0  0  0  0
    2.9132   -5.0214    0.0000 H   0  0  0  0  0  0  0  0  0  0  0  0
    1.4643   -2.5339    0.0000 H   0  0  0  0  0  0  0  0  0  0  0  0
    6.0690    3.4432    0.0000 H   0  0  0  0  0  0  0  0  0  0  0  0
    3.2631    3.4432    0.0000 H   0  0  0  0  0  0  0  0  0  0  0  0
   11.9748    4.5073    0.0000 H   0  0  0  0  0  0  0  0  0  0  0  0
    1.4643   -4.1997    0.0000 H   0  0  0  0  0  0  0  0  0  0  0  0
    4.6660    4.2532    0.0000 H   0  0  0  0  0  0  0  0  0  0  0  0
   14.3826    2.3393    0.0000 H   0  0  0  0  0  0  0  0  0  0  0  0
   12.1564    1.5959    0.0000 H   0  0  0  0  0  0  0  0  0  0  0  0
   12.6340    0.8606    0.0000 H   0  0  0  0  0  0  0  0  0  0  0  0
   13.3693    1.3381    0.0000 H   0  0  0  0  0  0  0  0  0  0  0  0
   13.5155    5.0079    0.0000 H   0  0  0  0  0  0  0  0  0  0  0  0
   14.7194    3.9239    0.0000 H   0  0  0  0  0  0  0  0  0  0  0  0
  1 10  1  0  0  0  0
  1 13  1  0  0  0  0
 14  2  1  1  0  0  0
  2 64  1  0  0  0  0
  3 18  2  0  0  0  0
  4 27  1  0  0  0  0
  4 28  1  0  0  0  0
  5 21  2  0  0  0  0
 23  6  1  6  0  0  0
  6 74  1  0  0  0  0
  7 11  1  0  0  0  0
  7 12  1  0  0  0  0
  7 13  1  0  0  0  0
  8 18  1  0  0  0  0
  8 24  1  0  0  0  0
  8 62  1  0  0  0  0
  9 21  1  0  0  0  0
 22  9  1  6  0  0  0
  9 65  1  0  0  0  0
 10 11  1  0  0  0  0
 10 15  1  0  0  0  0
 10 16  1  0  0  0  0
 11 18  1  6  0  0  0
 11 45  1  0  0  0  0
 12 14  1  0  0  0  0
 12 46  1  0  0  0  0
 12 47  1  0  0  0  0
 13 48  1  0  0  0  0
 13 49  1  0  0  0  0
 14 17  1  0  0  0  0
 14 50  1  0  0  0  0
 15 51  1  0  0  0  0
 15 52  1  0  0  0  0
 15 53  1  0  0  0  0
 16 54  1  0  0  0  0
 16 55  1  0  0  0  0
 16 56  1  0  0  0  0
 19 17  1  6  0  0  0
 17 57  1  0  0  0  0
 17 58  1  0  0  0  0
 19 20  1  0  0  0  0
 19 21  1  0  0  0  0
 19 59  1  0  0  0  0
 20 25  1  0  0  0  0
 20 60  1  0  0  0  0
 20 61  1  0  0  0  0
 22 23  1  0  0  0  0
 22 26  1  0  0  0  0
 22 63  1  0  0  0  0
 23 27  1  0  0  0  0
 23 66  1  0  0  0  0
 24 29  1  0  0  0  0
 24 67  1  0  0  0  0
 24 68  1  0  0  0  0
 25 30  2  0  0  0  0
 25 31  1  0  0  0  0
 26 28  1  0  0  0  0
 26 32  2  0  0  0  0
 27 69  1  0  0  0  0
 27 70  1  0  0  0  0
 28 33  2  0  0  0  0
 29 34  1  0  0  0  0
 29 36  2  0  0  0  0
 30 37  1  0  0  0  0
 30 71  1  0  0  0  0
 31 38  2  0  0  0  0
 31 72  1  0  0  0  0
 32 35  1  0  0  0  0
 32 73  1  0  0  0  0
 33 39  1  0  0  0  0
 33 75  1  0  0  0  0
 34 41  2  0  0  0  0
 34 42  1  0  0  0  0
 35 39  2  0  0  0  0
 35 76  1  0  0  0  0
 36 43  1  0  0  0  0
 36 79  1  0  0  0  0
 37 40  2  0  0  0  0
 37 77  1  0  0  0  0
 38 40  1  0  0  0  0
 38 78  1  0  0  0  0
 39 80  1  0  0  0  0
 40 81  1  0  0  0  0
 41 44  1  0  0  0  0
 41 82  1  0  0  0  0
 42 83  1  0  0  0  0
 42 84  1  0  0  0  0
 42 85  1  0  0  0  0
 43 44  2  0  0  0  0
 43 86  1  0  0  0  0
 44 87  1  0  0  0  0
M  END
> <PUBCHEM_COMPOUND_CID>
503783
> <PUBCHEM_COMPOUND_CANONICALIZED>
1
> <PUBCHEM_CACTVS_COMPLEXITY>
945
> <PUBCHEM_CACTVS_HBOND_ACCEPTOR>
7
> <PUBCHEM_CACTVS_HBOND_DONOR>
4
> <PUBCHEM_CACTVS_ROTATABLE_BOND>
11
> <PUBCHEM_CACTVS_SUBSKEYS>
AAADcfB/OABAAAAAAAAAAAAAAAAAAWAAAAA0YMEAAAAAAACRUAAAHgQQCAAADTzh2AayBoPABgiIAiFSEACCCABgIBAIiIGODIgPdjKksTuWeCjm1hGbqAf6yfCOgAAAAAAYAAAAAAAAADAAAAAAAAAAAA==
> <PUBCHEM_IUPAC_OPENEYE_NAME>
(4R)-3-[(2S,4R)-4-benzyl-2-hydroxy-5-[[(3S,4S)-3-hydroxychroman-4-yl]amino]-5-oxo-pentyl]-5,5-dimethyl-N-(o-tolylmethyl)thiazolidine-4-carboxamide
> <PUBCHEM_IUPAC_CAS_NAME>
(4R)-3-[(2S,4R)-2-hydroxy-5-[[(3S,4S)-3-hydroxy-3,4-dihydro-2H-1-benzopyran-4-yl]amino]-5-oxo-4-(phenylmethyl)pentyl]-5,5-dimethyl-N-[(2-methylphenyl)methyl]-4-thiazolidinecarboxamide
> <PUBCHEM_IUPAC_NAME_MARKUP>
(4<I>R</I>)-3-[(2<I>S</I>,4<I>R</I>)-4-benzyl-2-hydroxy-5-[[(3<I>S</I>,4<I>S</I>)-3-hydroxy-3,4-dihydro-2<I>H</I>-chromen-4-yl]amino]-5-oxopentyl]-5,5-dimethyl-<I>N</I>-[(2-methylphenyl)methyl]-1,3-thiazolidine-4-carboxamide
> <PUBCHEM_IUPAC_NAME>
(4R)-3-[(2S,4R)-4-benzyl-2-hydroxy-5-[[(3S,4S)-3-hydroxy-3,4-dihydro-2H-chromen-4-yl]amino]-5-oxopentyl]-5,5-dimethyl-N-[(2-methylphenyl)methyl]-1,3-thiazolidine-4-carboxamide
> <PUBCHEM_IUPAC_SYSTEMATIC_NAME>
(4R)-5,5-dimethyl-N-[(2-methylphenyl)methyl]-3-[(2S,4R)-2-oxidanyl-5-[[(3S,4S)-3-oxidanyl-3,4-dihydro-2H-chromen-4-yl]amino]-5-oxidanylidene-4-(phenylmethyl)pentyl]-1,3-thiazolidine-4-carboxamide
> <PUBCHEM_IUPAC_TRADITIONAL_NAME>
(4R)-3-[(2S,4R)-4-benzyl-2-hydroxy-5-[[(3S,4S)-3-hydroxychroman-4-yl]amino]-5-keto-pentyl]-5,5-dimethyl-N-(2-methylbenzyl)thiazolidine-4-carboxamide
> <PUBCHEM_IUPAC_INCHI>
InChI=1S/C35H43N3O5S/c1-23-11-7-8-14-25(23)19-36-34(42)32-35(2,3)44-22-38(32)20-27(39)18-26(17-24-12-5-4-6-13-24)33(41)37-31-28-15-9-10-16-30(28)43-21-29(31)40/h4-16,26-27,29,31-32,39-40H,17-22H2,1-3H3,(H,36,42)(H,37,41)/t26-,27+,29-,31+,32-/m1/s1
> <PUBCHEM_IUPAC_INCHIKEY>
VILUTCCMDDBKAG-DLOTVTLYSA-N
> <PUBCHEM_XLOGP3_AA>
4.3
> <PUBCHEM_EXACT_MASS>
617.29234265
> <PUBCHEM_MOLECULAR_FORMULA>
C35H43N3O5S
> <PUBCHEM_MOLECULAR_WEIGHT>
617.8
> <PUBCHEM_OPENEYE_CAN_SMILES>
CC1=CC=CC=C1CNC(=O)C2C(SCN2CC(CC(CC3=CC=CC=C3)C(=O)NC4C(COC5=CC=CC=C45)O)O)(C)C
> <PUBCHEM_OPENEYE_ISO_SMILES>
CC1=CC=CC=C1CNC(=O)[C@@H]2C(SCN2C[C@H](C[C@@H](CC3=CC=CC=C3)C(=O)N[C@@H]4[C@@H](COC5=CC=CC=C45)O)O)(C)C
> <PUBCHEM_CACTVS_TPSA>
136
> <PUBCHEM_MONOISOTOPIC_WEIGHT>
617.29234265
> <PUBCHEM_TOTAL_CHARGE>
0
> <PUBCHEM_HEAVY_ATOM_COUNT>
44
> <PUBCHEM_ATOM_DEF_STEREO_COUNT>
5
> <PUBCHEM_ATOM_UDEF_STEREO_COUNT>
0
> <PUBCHEM_BOND_DEF_STEREO_COUNT>
0
> <PUBCHEM_BOND_UDEF_STEREO_COUNT>
0
> <PUBCHEM_ISOTOPIC_ATOM_COUNT>
0
> <PUBCHEM_COMPONENT_COUNT>
1
> <PUBCHEM_CACTVS_TAUTO_COUNT>
-1
> <PUBCHEM_COORDINATE_TYPE>
1
5
255
> <PUBCHEM_BONDANNOTATIONS>
11  18  6
19  17  6
14  2  5
25  30  8
25  31  8
26  28  8
26  32  8
28  33  8
29  34  8
29  36  8
30  37  8
31  38  8
32  35  8
33  39  8
34  41  8
35  39  8
36  43  8
37  40  8
38  40  8
41  44  8
43  44  8
23  6  6
22  9  6
$$$$
