503710
  -OEChem-10302200282D
 86 90  0     1  0  0  0  0  0999 V2000
   10.0788   -1.0692    0.0000 S   0  0  0  0  0  0  0  0  0  0  0  0
    7.2641   -0.8668    0.0000 O   0  0  0  0  0  0  0  0  0  0  0  0
    8.1301    1.6332    0.0000 O   0  0  0  0  0  0  0  0  0  0  0  0
    9.3745    2.1872    0.0000 O   0  0  0  0  0  0  0  0  0  0  0  0
    4.6660   -4.3668    0.0000 O   0  0  0  0  0  0  0  0  0  0  0  0
    6.3981   -2.3668    0.0000 O   0  0  0  0  0  0  0  0  0  0  0  0
    6.3981   -1.3668    0.0000 O   0  0  0  0  0  0  0  0  0  0  0  0
    8.9962    0.1332    0.0000 N   0  0  0  0  0  0  0  0  0  0  0  0
   11.0687    1.8271    0.0000 N   0  0  0  0  0  0  0  0  0  0  0  0
    4.6660   -1.3668    0.0000 N   0  0  0  0  0  0  0  0  0  0  0  0
   10.5788   -0.2032    0.0000 C   0  0  0  0  0  0  0  0  0  0  0  0
    9.9097    0.5400    0.0000 C   0  0  1  0  0  0  0  0  0  0  0  0
    9.1007   -0.8613    0.0000 C   0  0  0  0  0  0  0  0  0  0  0  0
   11.4449   -0.7032    0.0000 C   0  0  0  0  0  0  0  0  0  0  0  0
   11.3220    0.4659    0.0000 C   0  0  0  0  0  0  0  0  0  0  0  0
    8.1301    0.6332    0.0000 C   0  0  0  0  0  0  0  0  0  0  0  0
    7.2641    0.1332    0.0000 C   0  0  2  0  0  0  0  0  0  0  0  0
   10.1176    1.5181    0.0000 C   0  0  0  0  0  0  0  0  0  0  0  0
    6.3981    0.6332    0.0000 C   0  0  0  0  0  0  0  0  0  0  0  0
    5.5321    0.1332    0.0000 C   0  0  1  0  0  0  0  0  0  0  0  0
    4.6660    0.6332    0.0000 C   0  0  0  0  0  0  0  0  0  0  0  0
    4.6660   -2.3668    0.0000 C   0  0  2  0  0  0  0  0  0  0  0  0
    5.5321   -0.8668    0.0000 C   0  0  0  0  0  0  0  0  0  0  0  0
    5.5321   -2.8668    0.0000 C   0  0  1  0  0  0  0  0  0  0  0  0
    3.8000   -2.8668    0.0000 C   0  0  0  0  0  0  0  0  0  0  0  0
   11.2766    2.8053    0.0000 C   0  0  0  0  0  0  0  0  0  0  0  0
    4.6660    1.6332    0.0000 C   0  0  0  0  0  0  0  0  0  0  0  0
    5.5321   -3.8668    0.0000 C   0  0  0  0  0  0  0  0  0  0  0  0
    3.8000   -3.8668    0.0000 C   0  0  0  0  0  0  0  0  0  0  0  0
    2.9061   -2.3321    0.0000 C   0  0  0  0  0  0  0  0  0  0  0  0
   12.2276    3.1143    0.0000 C   0  0  0  0  0  0  0  0  0  0  0  0
    5.5321    2.1332    0.0000 C   0  0  0  0  0  0  0  0  0  0  0  0
    3.8000    2.1332    0.0000 C   0  0  0  0  0  0  0  0  0  0  0  0
    2.9061   -4.4014    0.0000 C   0  0  0  0  0  0  0  0  0  0  0  0
    2.0000   -2.8460    0.0000 C   0  0  0  0  0  0  0  0  0  0  0  0
   12.9708    2.4452    0.0000 C   0  0  0  0  0  0  0  0  0  0  0  0
    2.0000   -3.8876    0.0000 C   0  0  0  0  0  0  0  0  0  0  0  0
   12.4356    4.0924    0.0000 C   0  0  0  0  0  0  0  0  0  0  0  0
    5.5321    3.1332    0.0000 C   0  0  0  0  0  0  0  0  0  0  0  0
    3.8000    3.1332    0.0000 C   0  0  0  0  0  0  0  0  0  0  0  0
    4.6660    3.6332    0.0000 C   0  0  0  0  0  0  0  0  0  0  0  0
   13.9218    2.7542    0.0000 C   0  0  0  0  0  0  0  0  0  0  0  0
   12.7629    1.4670    0.0000 C   0  0  0  0  0  0  0  0  0  0  0  0
   13.3866    4.4014    0.0000 C   0  0  0  0  0  0  0  0  0  0  0  0
   14.1298    3.7323    0.0000 C   0  0  0  0  0  0  0  0  0  0  0  0
    9.4279    0.9301    0.0000 H   0  0  0  0  0  0  0  0  0  0  0  0
    8.4807   -0.8613    0.0000 H   0  0  0  0  0  0  0  0  0  0  0  0
    9.0359   -1.4779    0.0000 H   0  0  0  0  0  0  0  0  0  0  0  0
   11.1349   -1.2401    0.0000 H   0  0  0  0  0  0  0  0  0  0  0  0
   11.9818   -1.0132    0.0000 H   0  0  0  0  0  0  0  0  0  0  0  0
   11.7549   -0.1663    0.0000 H   0  0  0  0  0  0  0  0  0  0  0  0
   11.7368    0.0052    0.0000 H   0  0  0  0  0  0  0  0  0  0  0  0
   11.7827    0.8808    0.0000 H   0  0  0  0  0  0  0  0  0  0  0  0
   10.9071    0.9267    0.0000 H   0  0  0  0  0  0  0  0  0  0  0  0
    7.8010   -0.1768    0.0000 H   0  0  0  0  0  0  0  0  0  0  0  0
    6.7966    1.1082    0.0000 H   0  0  0  0  0  0  0  0  0  0  0  0
    5.9996    1.1082    0.0000 H   0  0  0  0  0  0  0  0  0  0  0  0
    5.5321    0.7532    0.0000 H   0  0  0  0  0  0  0  0  0  0  0  0
    4.0555    0.7409    0.0000 H   0  0  0  0  0  0  0  0  0  0  0  0
    4.4540    0.0506    0.0000 H   0  0  0  0  0  0  0  0  0  0  0  0
    4.1291   -2.0568    0.0000 H   0  0  0  0  0  0  0  0  0  0  0  0
   11.5294    1.4123    0.0000 H   0  0  0  0  0  0  0  0  0  0  0  0
    5.5321   -2.2468    0.0000 H   0  0  0  0  0  0  0  0  0  0  0  0
    4.1291   -1.0568    0.0000 H   0  0  0  0  0  0  0  0  0  0  0  0
   11.1903    3.4192    0.0000 H   0  0  0  0  0  0  0  0  0  0  0  0
   10.6570    2.8269    0.0000 H   0  0  0  0  0  0  0  0  0  0  0  0
    7.8010   -1.1768    0.0000 H   0  0  0  0  0  0  0  0  0  0  0  0
    5.7441   -4.4494    0.0000 H   0  0  0  0  0  0  0  0  0  0  0  0
    6.1426   -3.7591    0.0000 H   0  0  0  0  0  0  0  0  0  0  0  0
    2.9132   -1.7122    0.0000 H   0  0  0  0  0  0  0  0  0  0  0  0
    6.0690    1.8232    0.0000 H   0  0  0  0  0  0  0  0  0  0  0  0
    3.2631    1.8232    0.0000 H   0  0  0  0  0  0  0  0  0  0  0  0
    6.9350   -2.6768    0.0000 H   0  0  0  0  0  0  0  0  0  0  0  0
    2.9132   -5.0214    0.0000 H   0  0  0  0  0  0  0  0  0  0  0  0
    1.4643   -2.5339    0.0000 H   0  0  0  0  0  0  0  0  0  0  0  0
    1.4643   -4.1997    0.0000 H   0  0  0  0  0  0  0  0  0  0  0  0
   11.9748    4.5073    0.0000 H   0  0  0  0  0  0  0  0  0  0  0  0
    6.0690    3.4432    0.0000 H   0  0  0  0  0  0  0  0  0  0  0  0
    3.2631    3.4432    0.0000 H   0  0  0  0  0  0  0  0  0  0  0  0
    4.6660    4.2532    0.0000 H   0  0  0  0  0  0  0  0  0  0  0  0
   14.3826    2.3393    0.0000 H   0  0  0  0  0  0  0  0  0  0  0  0
   12.1564    1.5959    0.0000 H   0  0  0  0  0  0  0  0  0  0  0  0
   12.6340    0.8606    0.0000 H   0  0  0  0  0  0  0  0  0  0  0  0
   13.3693    1.3381    0.0000 H   0  0  0  0  0  0  0  0  0  0  0  0
   13.5155    5.0079    0.0000 H   0  0  0  0  0  0  0  0  0  0  0  0
   14.7194    3.9239    0.0000 H   0  0  0  0  0  0  0  0  0  0  0  0
  1 11  1  0  0  0  0
  1 13  1  0  0  0  0
 17  2  1  1  0  0  0
  2 67  1  0  0  0  0
  3 16  2  0  0  0  0
  4 18  2  0  0  0  0
  5 28  1  0  0  0  0
  5 29  1  0  0  0  0
 24  6  1  6  0  0  0
  6 73  1  0  0  0  0
  7 23  2  0  0  0  0
  8 12  1  0  0  0  0
  8 13  1  0  0  0  0
  8 16  1  0  0  0  0
  9 18  1  0  0  0  0
  9 26  1  0  0  0  0
  9 62  1  0  0  0  0
 22 10  1  6  0  0  0
 10 23  1  0  0  0  0
 10 64  1  0  0  0  0
 11 12  1  0  0  0  0
 11 14  1  0  0  0  0
 11 15  1  0  0  0  0
 12 18  1  6  0  0  0
 12 46  1  0  0  0  0
 13 47  1  0  0  0  0
 13 48  1  0  0  0  0
 14 49  1  0  0  0  0
 14 50  1  0  0  0  0
 14 51  1  0  0  0  0
 15 52  1  0  0  0  0
 15 53  1  0  0  0  0
 15 54  1  0  0  0  0
 16 17  1  0  0  0  0
 17 19  1  0  0  0  0
 17 55  1  0  0  0  0
 20 19  1  6  0  0  0
 19 56  1  0  0  0  0
 19 57  1  0  0  0  0
 20 21  1  0  0  0  0
 20 23  1  0  0  0  0
 20 58  1  0  0  0  0
 21 27  1  0  0  0  0
 21 59  1  0  0  0  0
 21 60  1  0  0  0  0
 22 24  1  0  0  0  0
 22 25  1  0  0  0  0
 22 61  1  0  0  0  0
 24 28  1  0  0  0  0
 24 63  1  0  0  0  0
 25 29  1  0  0  0  0
 25 30  2  0  0  0  0
 26 31  1  0  0  0  0
 26 65  1  0  0  0  0
 26 66  1  0  0  0  0
 27 32  2  0  0  0  0
 27 33  1  0  0  0  0
 28 68  1  0  0  0  0
 28 69  1  0  0  0  0
 29 34  2  0  0  0  0
 30 35  1  0  0  0  0
 30 70  1  0  0  0  0
 31 36  1  0  0  0  0
 31 38  2  0  0  0  0
 32 39  1  0  0  0  0
 32 71  1  0  0  0  0
 33 40  2  0  0  0  0
 33 72  1  0  0  0  0
 34 37  1  0  0  0  0
 34 74  1  0  0  0  0
 35 37  2  0  0  0  0
 35 75  1  0  0  0  0
 36 42  2  0  0  0  0
 36 43  1  0  0  0  0
 37 76  1  0  0  0  0
 38 44  1  0  0  0  0
 38 77  1  0  0  0  0
 39 41  2  0  0  0  0
 39 78  1  0  0  0  0
 40 41  1  0  0  0  0
 40 79  1  0  0  0  0
 41 80  1  0  0  0  0
 42 45  1  0  0  0  0
 42 81  1  0  0  0  0
 43 82  1  0  0  0  0
 43 83  1  0  0  0  0
 43 84  1  0  0  0  0
 44 45  2  0  0  0  0
 44 85  1  0  0  0  0
 45 86  1  0  0  0  0
M  END
> <PUBCHEM_COMPOUND_CID>
503710
> <PUBCHEM_COMPOUND_CANONICALIZED>
1
> <PUBCHEM_CACTVS_COMPLEXITY>
1020
> <PUBCHEM_CACTVS_HBOND_ACCEPTOR>
7
> <PUBCHEM_CACTVS_HBOND_DONOR>
4
> <PUBCHEM_CACTVS_ROTATABLE_BOND>
10
> <PUBCHEM_CACTVS_SUBSKEYS>
AAADcfB/OABAAAAAAAAAAAAAAAAAAWAAAAA0YMEAAAAAAACRUAAAHgQQCAAADTzh2AayBoPABgiIAiFSEAKCCABgIBAIiIHODIgPdjKksTuWeCjm1hGbqAf6y/COgAAAAAAYAAAAAAAAADAAAAAAAAAAAA==
> <PUBCHEM_IUPAC_OPENEYE_NAME>
(4R)-3-[(2S,4R)-4-benzyl-2-hydroxy-5-[[(3S,4S)-3-hydroxychroman-4-yl]amino]-5-oxo-pentanoyl]-5,5-dimethyl-N-(o-tolylmethyl)thiazolidine-4-carboxamide
> <PUBCHEM_IUPAC_CAS_NAME>
(4R)-3-[(2S,4R)-2-hydroxy-5-[[(3S,4S)-3-hydroxy-3,4-dihydro-2H-1-benzopyran-4-yl]amino]-1,5-dioxo-4-(phenylmethyl)pentyl]-5,5-dimethyl-N-[(2-methylphenyl)methyl]-4-thiazolidinecarboxamide
> <PUBCHEM_IUPAC_NAME_MARKUP>
(4<I>R</I>)-3-[(2<I>S</I>,4<I>R</I>)-4-benzyl-2-hydroxy-5-[[(3<I>S</I>,4<I>S</I>)-3-hydroxy-3,4-dihydro-2<I>H</I>-chromen-4-yl]amino]-5-oxopentanoyl]-5,5-dimethyl-<I>N</I>-[(2-methylphenyl)methyl]-1,3-thiazolidine-4-carboxamide
> <PUBCHEM_IUPAC_NAME>
(4R)-3-[(2S,4R)-4-benzyl-2-hydroxy-5-[[(3S,4S)-3-hydroxy-3,4-dihydro-2H-chromen-4-yl]amino]-5-oxopentanoyl]-5,5-dimethyl-N-[(2-methylphenyl)methyl]-1,3-thiazolidine-4-carboxamide
> <PUBCHEM_IUPAC_SYSTEMATIC_NAME>
(4R)-5,5-dimethyl-N-[(2-methylphenyl)methyl]-3-[(2S,4R)-2-oxidanyl-5-[[(3S,4S)-3-oxidanyl-3,4-dihydro-2H-chromen-4-yl]amino]-5-oxidanylidene-4-(phenylmethyl)pentanoyl]-1,3-thiazolidine-4-carboxamide
> <PUBCHEM_IUPAC_TRADITIONAL_NAME>
(4R)-3-[(2S,4R)-4-benzyl-2-hydroxy-5-[[(3S,4S)-3-hydroxychroman-4-yl]amino]-5-keto-pentanoyl]-5,5-dimethyl-N-(2-methylbenzyl)thiazolidine-4-carboxamide
> <PUBCHEM_IUPAC_INCHI>
InChI=1S/C35H41N3O6S/c1-22-11-7-8-14-24(22)19-36-33(42)31-35(2,3)45-21-38(31)34(43)27(39)18-25(17-23-12-5-4-6-13-23)32(41)37-30-26-15-9-10-16-29(26)44-20-28(30)40/h4-16,25,27-28,30-31,39-40H,17-21H2,1-3H3,(H,36,42)(H,37,41)/t25-,27+,28-,30+,31-/m1/s1
> <PUBCHEM_IUPAC_INCHIKEY>
DVMNWHOQQSLWLE-KEHXXDLJSA-N
> <PUBCHEM_XLOGP3_AA>
3.7
> <PUBCHEM_EXACT_MASS>
631.27160721
> <PUBCHEM_MOLECULAR_FORMULA>
C35H41N3O6S
> <PUBCHEM_MOLECULAR_WEIGHT>
631.8
> <PUBCHEM_OPENEYE_CAN_SMILES>
CC1=CC=CC=C1CNC(=O)C2C(SCN2C(=O)C(CC(CC3=CC=CC=C3)C(=O)NC4C(COC5=CC=CC=C45)O)O)(C)C
> <PUBCHEM_OPENEYE_ISO_SMILES>
CC1=CC=CC=C1CNC(=O)[C@@H]2C(SCN2C(=O)[C@H](C[C@@H](CC3=CC=CC=C3)C(=O)N[C@@H]4[C@@H](COC5=CC=CC=C45)O)O)(C)C
> <PUBCHEM_CACTVS_TPSA>
154
> <PUBCHEM_MONOISOTOPIC_WEIGHT>
631.27160721
> <PUBCHEM_TOTAL_CHARGE>
0
> <PUBCHEM_HEAVY_ATOM_COUNT>
45
> <PUBCHEM_ATOM_DEF_STEREO_COUNT>
5
> <PUBCHEM_ATOM_UDEF_STEREO_COUNT>
0
> <PUBCHEM_BOND_DEF_STEREO_COUNT>
0
> <PUBCHEM_BOND_UDEF_STEREO_COUNT>
0
> <PUBCHEM_ISOTOPIC_ATOM_COUNT>
0
> <PUBCHEM_COMPONENT_COUNT>
1
> <PUBCHEM_CACTVS_TAUTO_COUNT>
-1
> <PUBCHEM_COORDINATE_TYPE>
1
5
255
> <PUBCHEM_BONDANNOTATIONS>
22  10  6
12  18  6
20  19  6
17  2  5
25  29  8
25  30  8
27  32  8
27  33  8
29  34  8
30  35  8
31  36  8
31  38  8
32  39  8
33  40  8
34  37  8
35  37  8
36  42  8
38  44  8
39  41  8
40  41  8
42  45  8
44  45  8
24  6  6
$$$$
