503722
  -OEChem-10302200282D
 92 95  0     1  0  0  0  0  0999 V2000
    6.3301   -4.2906    0.0000 S   0  0  0  0  0  0  0  0  0  0  0  0
    7.1391   -5.8784    0.0000 S   0  0  0  0  0  0  0  0  0  0  0  0
    8.0622   -0.2906    0.0000 O   0  0  0  0  0  0  0  0  0  0  0  0
    4.5981   -0.2906    0.0000 O   0  0  0  0  0  0  0  0  0  0  0  0
    7.3301   -4.2906    0.0000 O   0  0  0  0  0  0  0  0  0  0  0  0
    5.3301   -4.2906    0.0000 O   0  0  0  0  0  0  0  0  0  0  0  0
    8.9282    3.2094    0.0000 O   0  0  0  0  0  0  0  0  0  0  0  0
    3.7320    6.2094    0.0000 O   0  0  0  0  0  0  0  0  0  0  0  0
    6.3301   -1.2906    0.0000 N   0  0  3  0  0  0  0  0  0  0  0  0
    6.3301   -3.2906    0.0000 N   0  0  3  0  0  0  0  0  0  0  0  0
    3.7320   -1.7906    0.0000 N   0  0  0  0  0  0  0  0  0  0  0  0
    7.1962    3.2094    0.0000 N   0  0  0  0  0  0  0  0  0  0  0  0
    5.4641   -1.7906    0.0000 C   0  0  1  0  0  0  0  0  0  0  0  0
    5.4641   -2.7906    0.0000 C   0  0  0  0  0  0  0  0  0  0  0  0
    7.1962   -1.7906    0.0000 C   0  0  0  0  0  0  0  0  0  0  0  0
    7.1962   -2.7906    0.0000 C   0  0  0  0  0  0  0  0  0  0  0  0
    6.3301   -0.2906    0.0000 C   0  0  0  0  0  0  0  0  0  0  0  0
    7.1962    0.2094    0.0000 C   0  0  2  0  0  0  0  0  0  0  0  0
    4.5981   -1.2906    0.0000 C   0  0  0  0  0  0  0  0  0  0  0  0
    7.1962    1.2094    0.0000 C   0  0  0  0  0  0  0  0  0  0  0  0
    8.0622    1.7094    0.0000 C   0  0  1  0  0  0  0  0  0  0  0  0
    2.8660   -1.2906    0.0000 C   0  0  0  0  0  0  0  0  0  0  0  0
    8.9282    1.2094    0.0000 C   0  0  0  0  0  0  0  0  0  0  0  0
    6.3301   -5.2906    0.0000 C   0  0  0  0  0  0  0  0  0  0  0  0
    8.0622    2.7094    0.0000 C   0  0  0  0  0  0  0  0  0  0  0  0
    2.0000   -0.7906    0.0000 C   0  0  0  0  0  0  0  0  0  0  0  0
    2.3660   -2.1566    0.0000 C   0  0  0  0  0  0  0  0  0  0  0  0
    3.3660   -0.4246    0.0000 C   0  0  0  0  0  0  0  0  0  0  0  0
    9.7942    1.7094    0.0000 C   0  0  0  0  0  0  0  0  0  0  0  0
    5.5211   -5.8784    0.0000 C   0  0  0  0  0  0  0  0  0  0  0  0
    7.1962    4.2094    0.0000 C   0  0  0  0  0  0  0  0  0  0  0  0
    5.8301   -6.8294    0.0000 C   0  0  0  0  0  0  0  0  0  0  0  0
    9.7942    2.7094    0.0000 C   0  0  0  0  0  0  0  0  0  0  0  0
   10.6603    1.2094    0.0000 C   0  0  0  0  0  0  0  0  0  0  0  0
    6.8301   -6.8294    0.0000 C   0  0  0  0  0  0  0  0  0  0  0  0
    6.3301    4.7094    0.0000 C   0  0  0  0  0  0  0  0  0  0  0  0
   10.6603    3.2094    0.0000 C   0  0  0  0  0  0  0  0  0  0  0  0
   11.5263    1.7094    0.0000 C   0  0  0  0  0  0  0  0  0  0  0  0
   11.5263    2.7094    0.0000 C   0  0  0  0  0  0  0  0  0  0  0  0
    5.4641    4.2094    0.0000 C   0  0  0  0  0  0  0  0  0  0  0  0
    6.3301    5.7094    0.0000 C   0  0  0  0  0  0  0  0  0  0  0  0
    4.5981    4.7094    0.0000 C   0  0  0  0  0  0  0  0  0  0  0  0
    5.4641    6.2094    0.0000 C   0  0  0  0  0  0  0  0  0  0  0  0
    5.4641    3.2094    0.0000 C   0  0  0  0  0  0  0  0  0  0  0  0
    7.1962    6.2094    0.0000 C   0  0  0  0  0  0  0  0  0  0  0  0
    4.5981    5.7094    0.0000 C   0  0  0  0  0  0  0  0  0  0  0  0
    5.4641   -1.1706    0.0000 H   0  0  0  0  0  0  0  0  0  0  0  0
    4.8535   -2.6829    0.0000 H   0  0  0  0  0  0  0  0  0  0  0  0
    5.2520   -3.3732    0.0000 H   0  0  0  0  0  0  0  0  0  0  0  0
    7.8067   -1.8982    0.0000 H   0  0  0  0  0  0  0  0  0  0  0  0
    7.4082   -1.2080    0.0000 H   0  0  0  0  0  0  0  0  0  0  0  0
    7.4082   -3.3732    0.0000 H   0  0  0  0  0  0  0  0  0  0  0  0
    7.8067   -2.6829    0.0000 H   0  0  0  0  0  0  0  0  0  0  0  0
    6.1181    0.2920    0.0000 H   0  0  0  0  0  0  0  0  0  0  0  0
    5.7196   -0.3982    0.0000 H   0  0  0  0  0  0  0  0  0  0  0  0
    7.7331    0.5194    0.0000 H   0  0  0  0  0  0  0  0  0  0  0  0
    6.9841    1.7920    0.0000 H   0  0  0  0  0  0  0  0  0  0  0  0
    6.5856    1.1018    0.0000 H   0  0  0  0  0  0  0  0  0  0  0  0
    8.0622    1.0894    0.0000 H   0  0  0  0  0  0  0  0  0  0  0  0
    3.7320   -2.4106    0.0000 H   0  0  0  0  0  0  0  0  0  0  0  0
    8.5297    0.7345    0.0000 H   0  0  0  0  0  0  0  0  0  0  0  0
    9.3267    0.7345    0.0000 H   0  0  0  0  0  0  0  0  0  0  0  0
    8.5991    0.0194    0.0000 H   0  0  0  0  0  0  0  0  0  0  0  0
    2.3100   -0.2536    0.0000 H   0  0  0  0  0  0  0  0  0  0  0  0
    1.4631   -0.4806    0.0000 H   0  0  0  0  0  0  0  0  0  0  0  0
    1.6900   -1.3275    0.0000 H   0  0  0  0  0  0  0  0  0  0  0  0
    1.8291   -1.8466    0.0000 H   0  0  0  0  0  0  0  0  0  0  0  0
    2.0560   -2.6935    0.0000 H   0  0  0  0  0  0  0  0  0  0  0  0
    2.9030   -2.4666    0.0000 H   0  0  0  0  0  0  0  0  0  0  0  0
    3.9030   -0.7346    0.0000 H   0  0  0  0  0  0  0  0  0  0  0  0
    3.6760    0.1124    0.0000 H   0  0  0  0  0  0  0  0  0  0  0  0
    2.8291   -0.1146    0.0000 H   0  0  0  0  0  0  0  0  0  0  0  0
    4.9315   -5.6868    0.0000 H   0  0  0  0  0  0  0  0  0  0  0  0
    6.6592    2.8994    0.0000 H   0  0  0  0  0  0  0  0  0  0  0  0
    7.8067    4.1018    0.0000 H   0  0  0  0  0  0  0  0  0  0  0  0
    7.4082    4.7920    0.0000 H   0  0  0  0  0  0  0  0  0  0  0  0
    5.4657   -7.3310    0.0000 H   0  0  0  0  0  0  0  0  0  0  0  0
    9.2573    3.0194    0.0000 H   0  0  0  0  0  0  0  0  0  0  0  0
   10.6603    0.5894    0.0000 H   0  0  0  0  0  0  0  0  0  0  0  0
    7.1946   -7.3310    0.0000 H   0  0  0  0  0  0  0  0  0  0  0  0
   10.6603    3.8294    0.0000 H   0  0  0  0  0  0  0  0  0  0  0  0
   12.0632    1.3994    0.0000 H   0  0  0  0  0  0  0  0  0  0  0  0
   12.0632    3.0194    0.0000 H   0  0  0  0  0  0  0  0  0  0  0  0
    4.0611    4.3994    0.0000 H   0  0  0  0  0  0  0  0  0  0  0  0
    5.4641    6.8294    0.0000 H   0  0  0  0  0  0  0  0  0  0  0  0
    4.8441    3.2094    0.0000 H   0  0  0  0  0  0  0  0  0  0  0  0
    5.4641    2.5894    0.0000 H   0  0  0  0  0  0  0  0  0  0  0  0
    6.0841    3.2094    0.0000 H   0  0  0  0  0  0  0  0  0  0  0  0
    7.5062    5.6725    0.0000 H   0  0  0  0  0  0  0  0  0  0  0  0
    7.7331    6.5194    0.0000 H   0  0  0  0  0  0  0  0  0  0  0  0
    6.8862    6.7464    0.0000 H   0  0  0  0  0  0  0  0  0  0  0  0
    3.7320    6.8294    0.0000 H   0  0  0  0  0  0  0  0  0  0  0  0
  1  5  2  0  0  0  0
  1  6  2  0  0  0  0
  1 10  1  0  0  0  0
  1 24  1  0  0  0  0
  2 24  1  0  0  0  0
  2 35  1  0  0  0  0
 18  3  1  6  0  0  0
  3 63  1  0  0  0  0
  4 19  2  0  0  0  0
  7 25  2  0  0  0  0
  8 46  1  0  0  0  0
  8 92  1  0  0  0  0
  9 13  1  0  0  0  0
  9 15  1  0  0  0  0
  9 17  1  0  0  0  0
 10 14  1  0  0  0  0
 10 16  1  0  0  0  0
 11 19  1  0  0  0  0
 11 22  1  0  0  0  0
 11 60  1  0  0  0  0
 12 25  1  0  0  0  0
 12 31  1  0  0  0  0
 12 74  1  0  0  0  0
 13 14  1  0  0  0  0
 13 19  1  1  0  0  0
 13 47  1  0  0  0  0
 14 48  1  0  0  0  0
 14 49  1  0  0  0  0
 15 16  1  0  0  0  0
 15 50  1  0  0  0  0
 15 51  1  0  0  0  0
 16 52  1  0  0  0  0
 16 53  1  0  0  0  0
 17 18  1  0  0  0  0
 17 54  1  0  0  0  0
 17 55  1  0  0  0  0
 18 20  1  0  0  0  0
 18 56  1  0  0  0  0
 21 20  1  6  0  0  0
 20 57  1  0  0  0  0
 20 58  1  0  0  0  0
 21 23  1  0  0  0  0
 21 25  1  0  0  0  0
 21 59  1  0  0  0  0
 22 26  1  0  0  0  0
 22 27  1  0  0  0  0
 22 28  1  0  0  0  0
 23 29  1  0  0  0  0
 23 61  1  0  0  0  0
 23 62  1  0  0  0  0
 24 30  2  0  0  0  0
 26 64  1  0  0  0  0
 26 65  1  0  0  0  0
 26 66  1  0  0  0  0
 27 67  1  0  0  0  0
 27 68  1  0  0  0  0
 27 69  1  0  0  0  0
 28 70  1  0  0  0  0
 28 71  1  0  0  0  0
 28 72  1  0  0  0  0
 29 33  2  0  0  0  0
 29 34  1  0  0  0  0
 30 32  1  0  0  0  0
 30 73  1  0  0  0  0
 31 36  1  0  0  0  0
 31 75  1  0  0  0  0
 31 76  1  0  0  0  0
 32 35  2  0  0  0  0
 32 77  1  0  0  0  0
 33 37  1  0  0  0  0
 33 78  1  0  0  0  0
 34 38  2  0  0  0  0
 34 79  1  0  0  0  0
 35 80  1  0  0  0  0
 36 40  2  0  0  0  0
 36 41  1  0  0  0  0
 37 39  2  0  0  0  0
 37 81  1  0  0  0  0
 38 39  1  0  0  0  0
 38 82  1  0  0  0  0
 39 83  1  0  0  0  0
 40 42  1  0  0  0  0
 40 44  1  0  0  0  0
 41 43  2  0  0  0  0
 41 45  1  0  0  0  0
 42 46  2  0  0  0  0
 42 84  1  0  0  0  0
 43 46  1  0  0  0  0
 43 85  1  0  0  0  0
 44 86  1  0  0  0  0
 44 87  1  0  0  0  0
 44 88  1  0  0  0  0
 45 89  1  0  0  0  0
 45 90  1  0  0  0  0
 45 91  1  0  0  0  0
M  END
> <PUBCHEM_COMPOUND_CID>
503722
> <PUBCHEM_COMPOUND_CANONICALIZED>
1
> <PUBCHEM_CACTVS_COMPLEXITY>
1090
> <PUBCHEM_CACTVS_HBOND_ACCEPTOR>
9
> <PUBCHEM_CACTVS_HBOND_DONOR>
4
> <PUBCHEM_CACTVS_ROTATABLE_BOND>
13
> <PUBCHEM_CACTVS_SUBSKEYS>
AAADcfB/uABgAAAAAAAAAAAAAAAAASAAAAA8YIAAAAAAAAAB0AAAHgQQSAAADbzl2AayB4PAAgqMAiFSEHDDAZAgKBBIiJmODIgKdjqi0TOUcAhk1hG4mAe62fKOoAADAAAQAABAAAYAACAAAAAAAAAAAA==
> <PUBCHEM_IUPAC_OPENEYE_NAME>
(2S)-1-[(2S,4R)-4-benzyl-2-hydroxy-5-[(4-hydroxy-2,6-dimethyl-phenyl)methylamino]-5-oxo-pentyl]-N-tert-butyl-4-(2-thienylsulfonyl)piperazine-2-carboxamide
> <PUBCHEM_IUPAC_CAS_NAME>
(2S)-N-tert-butyl-1-[(2S,4R)-2-hydroxy-5-[(4-hydroxy-2,6-dimethylphenyl)methylamino]-5-oxo-4-(phenylmethyl)pentyl]-4-thiophen-2-ylsulfonyl-2-piperazinecarboxamide
> <PUBCHEM_IUPAC_NAME_MARKUP>
(2<I>S</I>)-1-[(2<I>S</I>,4<I>R</I>)-4-benzyl-2-hydroxy-5-[(4-hydroxy-2,6-dimethylphenyl)methylamino]-5-oxopentyl]-<I>N</I>-<I>tert</I>-butyl-4-thiophen-2-ylsulfonylpiperazine-2-carboxamide
> <PUBCHEM_IUPAC_NAME>
(2S)-1-[(2S,4R)-4-benzyl-2-hydroxy-5-[(4-hydroxy-2,6-dimethylphenyl)methylamino]-5-oxopentyl]-N-tert-butyl-4-thiophen-2-ylsulfonylpiperazine-2-carboxamide
> <PUBCHEM_IUPAC_SYSTEMATIC_NAME>
(2S)-N-tert-butyl-1-[(2S,4R)-5-[(2,6-dimethyl-4-oxidanyl-phenyl)methylamino]-2-oxidanyl-5-oxidanylidene-4-(phenylmethyl)pentyl]-4-thiophen-2-ylsulfonyl-piperazine-2-carboxamide
> <PUBCHEM_IUPAC_TRADITIONAL_NAME>
(2S)-1-[(2S,4R)-4-benzyl-2-hydroxy-5-[(4-hydroxy-2,6-dimethyl-benzyl)amino]-5-keto-pentyl]-N-tert-butyl-4-(2-thienylsulfonyl)piperazine-2-carboxamide
> <PUBCHEM_IUPAC_INCHI>
InChI=1S/C34H46N4O6S2/c1-23-16-27(39)17-24(2)29(23)20-35-32(41)26(18-25-10-7-6-8-11-25)19-28(40)21-37-13-14-38(46(43,44)31-12-9-15-45-31)22-30(37)33(42)36-34(3,4)5/h6-12,15-17,26,28,30,39-40H,13-14,18-22H2,1-5H3,(H,35,41)(H,36,42)/t26-,28+,30+/m1/s1
> <PUBCHEM_IUPAC_INCHIKEY>
QFHSEPSATCMBAS-BOACMQGQSA-N
> <PUBCHEM_XLOGP3_AA>
4.1
> <PUBCHEM_EXACT_MASS>
670.28587755
> <PUBCHEM_MOLECULAR_FORMULA>
C34H46N4O6S2
> <PUBCHEM_MOLECULAR_WEIGHT>
670.9
> <PUBCHEM_OPENEYE_CAN_SMILES>
CC1=CC(=CC(=C1CNC(=O)C(CC2=CC=CC=C2)CC(CN3CCN(CC3C(=O)NC(C)(C)C)S(=O)(=O)C4=CC=CS4)O)C)O
> <PUBCHEM_OPENEYE_ISO_SMILES>
CC1=CC(=CC(=C1CNC(=O)[C@H](CC2=CC=CC=C2)C[C@@H](CN3CCN(C[C@H]3C(=O)NC(C)(C)C)S(=O)(=O)C4=CC=CS4)O)C)O
> <PUBCHEM_CACTVS_TPSA>
176
> <PUBCHEM_MONOISOTOPIC_WEIGHT>
670.28587755
> <PUBCHEM_TOTAL_CHARGE>
0
> <PUBCHEM_HEAVY_ATOM_COUNT>
46
> <PUBCHEM_ATOM_DEF_STEREO_COUNT>
3
> <PUBCHEM_ATOM_UDEF_STEREO_COUNT>
0
> <PUBCHEM_BOND_DEF_STEREO_COUNT>
0
> <PUBCHEM_BOND_UDEF_STEREO_COUNT>
0
> <PUBCHEM_ISOTOPIC_ATOM_COUNT>
0
> <PUBCHEM_COMPONENT_COUNT>
1
> <PUBCHEM_CACTVS_TAUTO_COUNT>
-1
> <PUBCHEM_COORDINATE_TYPE>
1
5
255
> <PUBCHEM_BONDANNOTATIONS>
13  19  5
2  24  8
2  35  8
21  20  6
24  30  8
29  33  8
29  34  8
18  3  6
30  32  8
32  35  8
33  37  8
34  38  8
36  40  8
36  41  8
37  39  8
38  39  8
40  42  8
41  43  8
42  46  8
43  46  8
$$$$
