503807
  -OEChem-10302200282D
 91 95  0     1  0  0  0  0  0999 V2000
   10.1484    3.0744    0.0000 O   0  0  0  0  0  0  0  0  0  0  0  0
    6.2619   -4.9259    0.0000 O   0  0  0  0  0  0  0  0  0  0  0  0
    5.6103   -1.2696    0.0000 O   0  0  0  0  0  0  0  0  0  0  0  0
    9.2136   -1.3952    0.0000 O   0  0  0  0  0  0  0  0  0  0  0  0
    7.9244   -2.5520    0.0000 O   0  0  0  0  0  0  0  0  0  0  0  0
   11.8062    4.3448    0.0000 O   0  0  0  0  0  0  0  0  0  0  0  0
    6.8994   -0.1128    0.0000 O   0  0  0  0  0  0  0  0  0  0  0  0
    6.6353   -3.7087    0.0000 O   0  0  0  0  0  0  0  0  0  0  0  0
    8.1886    1.0439    0.0000 O   0  0  0  0  0  0  0  0  0  0  0  0
    4.9889   -3.1706    0.0000 N   0  0  0  0  0  0  0  0  0  0  0  0
    9.8349    0.5058    0.0000 N   0  0  0  0  0  0  0  0  0  0  0  0
    4.6783   -4.1211    0.0000 C   0  0  2  0  0  0  0  0  0  0  0  0
    5.2619   -4.9259    0.0000 C   0  0  1  0  0  0  0  0  0  0  0  0
   10.1456    1.4563    0.0000 C   0  0  3  0  0  0  0  0  0  0  0  0
   11.0972    1.7637    0.0000 C   0  0  0  0  0  0  0  0  0  0  0  0
    4.6783   -5.7306    0.0000 C   0  0  0  0  0  0  0  0  0  0  0  0
   11.0989    2.7637    0.0000 C   0  0  1  0  0  0  0  0  0  0  0  0
    3.7320   -4.4259    0.0000 C   0  0  0  0  0  0  0  0  0  0  0  0
    3.7320   -5.4259    0.0000 C   0  0  0  0  0  0  0  0  0  0  0  0
    9.5592    2.2664    0.0000 C   0  0  0  0  0  0  0  0  0  0  0  0
    7.2566   -1.8077    0.0000 C   0  0  2  0  0  0  0  0  0  0  0  0
    7.5673   -0.8571    0.0000 C   0  0  2  0  0  0  0  0  0  0  0  0
    6.2781   -2.0139    0.0000 C   0  0  2  0  0  0  0  0  0  0  0  0
    8.5458   -0.6509    0.0000 C   0  0  2  0  0  0  0  0  0  0  0  0
   11.9090    3.3501    0.0000 C   0  0  0  0  0  0  0  0  0  0  0  0
    5.9674   -2.9644    0.0000 C   0  0  0  0  0  0  0  0  0  0  0  0
    8.8564    0.2996    0.0000 C   0  0  0  0  0  0  0  0  0  0  0  0
    2.8660   -3.9259    0.0000 C   0  0  0  0  0  0  0  0  0  0  0  0
    2.8660   -5.9259    0.0000 C   0  0  0  0  0  0  0  0  0  0  0  0
    2.0000   -4.4259    0.0000 C   0  0  0  0  0  0  0  0  0  0  0  0
    2.0000   -5.4259    0.0000 C   0  0  0  0  0  0  0  0  0  0  0  0
    5.9209   -0.3191    0.0000 C   0  0  0  0  0  0  0  0  0  0  0  0
   10.1921   -1.1890    0.0000 C   0  0  0  0  0  0  0  0  0  0  0  0
   12.6162    4.9312    0.0000 C   0  0  0  0  0  0  0  0  0  0  0  0
    5.2531    0.4252    0.0000 C   0  0  0  0  0  0  0  0  0  0  0  0
   10.8600   -1.9333    0.0000 C   0  0  0  0  0  0  0  0  0  0  0  0
   12.5134    5.9259    0.0000 C   0  0  0  0  0  0  0  0  0  0  0  0
    4.2746    0.2190    0.0000 C   0  0  0  0  0  0  0  0  0  0  0  0
    5.5637    1.3758    0.0000 C   0  0  0  0  0  0  0  0  0  0  0  0
   10.5493   -2.8838    0.0000 C   0  0  0  0  0  0  0  0  0  0  0  0
   11.8385   -1.7271    0.0000 C   0  0  0  0  0  0  0  0  0  0  0  0
    3.6067    0.9633    0.0000 C   0  0  0  0  0  0  0  0  0  0  0  0
    4.8959    2.1201    0.0000 C   0  0  0  0  0  0  0  0  0  0  0  0
   11.2171   -3.6281    0.0000 C   0  0  0  0  0  0  0  0  0  0  0  0
   12.5063   -2.4714    0.0000 C   0  0  0  0  0  0  0  0  0  0  0  0
    3.9174    1.9138    0.0000 C   0  0  0  0  0  0  0  0  0  0  0  0
   12.1957   -3.4219    0.0000 C   0  0  0  0  0  0  0  0  0  0  0  0
    5.2908   -4.0249    0.0000 H   0  0  0  0  0  0  0  0  0  0  0  0
    5.5436   -5.4782    0.0000 H   0  0  0  0  0  0  0  0  0  0  0  0
   10.5833    1.0172    0.0000 H   0  0  0  0  0  0  0  0  0  0  0  0
   11.2251    1.1570    0.0000 H   0  0  0  0  0  0  0  0  0  0  0  0
   11.7139    1.8274    0.0000 H   0  0  0  0  0  0  0  0  0  0  0  0
    4.4272   -6.2975    0.0000 H   0  0  0  0  0  0  0  0  0  0  0  0
    5.2156   -6.0398    0.0000 H   0  0  0  0  0  0  0  0  0  0  0  0
   11.0030    3.3762    0.0000 H   0  0  0  0  0  0  0  0  0  0  0  0
    9.0992    2.6820    0.0000 H   0  0  0  0  0  0  0  0  0  0  0  0
    9.0978    1.8523    0.0000 H   0  0  0  0  0  0  0  0  0  0  0  0
    4.5749   -2.7092    0.0000 H   0  0  0  0  0  0  0  0  0  0  0  0
    7.0640   -2.3970    0.0000 H   0  0  0  0  0  0  0  0  0  0  0  0
    6.9606   -0.9850    0.0000 H   0  0  0  0  0  0  0  0  0  0  0  0
    5.6714   -2.1417    0.0000 H   0  0  0  0  0  0  0  0  0  0  0  0
    8.3532   -1.2402    0.0000 H   0  0  0  0  0  0  0  0  0  0  0  0
   10.2490    0.0443    0.0000 H   0  0  0  0  0  0  0  0  0  0  0  0
   12.1798    2.7924    0.0000 H   0  0  0  0  0  0  0  0  0  0  0  0
   12.5052    3.5200    0.0000 H   0  0  0  0  0  0  0  0  0  0  0  0
    2.8660   -3.3059    0.0000 H   0  0  0  0  0  0  0  0  0  0  0  0
    2.8660   -6.5459    0.0000 H   0  0  0  0  0  0  0  0  0  0  0  0
    6.5719   -5.4628    0.0000 H   0  0  0  0  0  0  0  0  0  0  0  0
    1.4631   -4.1159    0.0000 H   0  0  0  0  0  0  0  0  0  0  0  0
    1.4631   -5.7359    0.0000 H   0  0  0  0  0  0  0  0  0  0  0  0
    8.5311   -2.4241    0.0000 H   0  0  0  0  0  0  0  0  0  0  0  0
    7.0920    0.4765    0.0000 H   0  0  0  0  0  0  0  0  0  0  0  0
    6.4678   -0.6111    0.0000 H   0  0  0  0  0  0  0  0  0  0  0  0
    6.3035    0.1688    0.0000 H   0  0  0  0  0  0  0  0  0  0  0  0
   10.7185   -0.8614    0.0000 H   0  0  0  0  0  0  0  0  0  0  0  0
    9.9609   -0.6138    0.0000 H   0  0  0  0  0  0  0  0  0  0  0  0
   12.8870    4.3734    0.0000 H   0  0  0  0  0  0  0  0  0  0  0  0
   13.2125    5.1010    0.0000 H   0  0  0  0  0  0  0  0  0  0  0  0
   13.1301    5.9896    0.0000 H   0  0  0  0  0  0  0  0  0  0  0  0
   12.4496    6.5426    0.0000 H   0  0  0  0  0  0  0  0  0  0  0  0
   11.8967    5.8621    0.0000 H   0  0  0  0  0  0  0  0  0  0  0  0
    4.0820   -0.3703    0.0000 H   0  0  0  0  0  0  0  0  0  0  0  0
    6.1704    1.5036    0.0000 H   0  0  0  0  0  0  0  0  0  0  0  0
    9.9426   -3.0117    0.0000 H   0  0  0  0  0  0  0  0  0  0  0  0
   12.0311   -1.1378    0.0000 H   0  0  0  0  0  0  0  0  0  0  0  0
    3.0000    0.8355    0.0000 H   0  0  0  0  0  0  0  0  0  0  0  0
    5.0885    2.7094    0.0000 H   0  0  0  0  0  0  0  0  0  0  0  0
   11.0245   -4.2175    0.0000 H   0  0  0  0  0  0  0  0  0  0  0  0
   13.1130   -2.3435    0.0000 H   0  0  0  0  0  0  0  0  0  0  0  0
    3.5033    2.3753    0.0000 H   0  0  0  0  0  0  0  0  0  0  0  0
   12.6097   -3.8834    0.0000 H   0  0  0  0  0  0  0  0  0  0  0  0
  1 17  1  0  0  0  0
  1 20  1  0  0  0  0
 13  2  1  6  0  0  0
  2 68  1  0  0  0  0
 23  3  1  6  0  0  0
  3 32  1  0  0  0  0
 24  4  1  6  0  0  0
  4 33  1  0  0  0  0
 21  5  1  1  0  0  0
  5 71  1  0  0  0  0
  6 25  1  0  0  0  0
  6 34  1  0  0  0  0
 22  7  1  1  0  0  0
  7 72  1  0  0  0  0
  8 26  2  0  0  0  0
  9 27  2  0  0  0  0
 12 10  1  6  0  0  0
 10 26  1  0  0  0  0
 10 58  1  0  0  0  0
 11 14  1  0  0  0  0
 11 27  1  0  0  0  0
 11 63  1  0  0  0  0
 12 13  1  0  0  0  0
 12 18  1  0  0  0  0
 12 48  1  0  0  0  0
 13 16  1  0  0  0  0
 13 49  1  0  0  0  0
 14 15  1  0  0  0  0
 14 20  1  0  0  0  0
 14 50  1  0  0  0  0
 15 17  1  0  0  0  0
 15 51  1  0  0  0  0
 15 52  1  0  0  0  0
 16 19  1  0  0  0  0
 16 53  1  0  0  0  0
 16 54  1  0  0  0  0
 17 25  1  6  0  0  0
 17 55  1  0  0  0  0
 18 19  1  0  0  0  0
 18 28  2  0  0  0  0
 19 29  2  0  0  0  0
 20 56  1  0  0  0  0
 20 57  1  0  0  0  0
 21 22  1  0  0  0  0
 21 23  1  0  0  0  0
 21 59  1  0  0  0  0
 22 24  1  0  0  0  0
 22 60  1  0  0  0  0
 23 26  1  0  0  0  0
 23 61  1  0  0  0  0
 24 27  1  0  0  0  0
 24 62  1  0  0  0  0
 25 64  1  0  0  0  0
 25 65  1  0  0  0  0
 28 30  1  0  0  0  0
 28 66  1  0  0  0  0
 29 31  1  0  0  0  0
 29 67  1  0  0  0  0
 30 31  2  0  0  0  0
 30 69  1  0  0  0  0
 31 70  1  0  0  0  0
 32 35  1  0  0  0  0
 32 73  1  0  0  0  0
 32 74  1  0  0  0  0
 33 36  1  0  0  0  0
 33 75  1  0  0  0  0
 33 76  1  0  0  0  0
 34 37  1  0  0  0  0
 34 77  1  0  0  0  0
 34 78  1  0  0  0  0
 35 38  2  0  0  0  0
 35 39  1  0  0  0  0
 36 40  2  0  0  0  0
 36 41  1  0  0  0  0
 37 79  1  0  0  0  0
 37 80  1  0  0  0  0
 37 81  1  0  0  0  0
 38 42  1  0  0  0  0
 38 82  1  0  0  0  0
 39 43  2  0  0  0  0
 39 83  1  0  0  0  0
 40 44  1  0  0  0  0
 40 84  1  0  0  0  0
 41 45  2  0  0  0  0
 41 85  1  0  0  0  0
 42 46  2  0  0  0  0
 42 86  1  0  0  0  0
 43 46  1  0  0  0  0
 43 87  1  0  0  0  0
 44 47  2  0  0  0  0
 44 88  1  0  0  0  0
 45 47  1  0  0  0  0
 45 89  1  0  0  0  0
 46 90  1  0  0  0  0
 47 91  1  0  0  0  0
M  END
> <PUBCHEM_COMPOUND_CID>
503807
> <PUBCHEM_COMPOUND_CANONICALIZED>
1
> <PUBCHEM_CACTVS_COMPLEXITY>
959
> <PUBCHEM_CACTVS_HBOND_ACCEPTOR>
9
> <PUBCHEM_CACTVS_HBOND_DONOR>
5
> <PUBCHEM_CACTVS_ROTATABLE_BOND>
16
> <PUBCHEM_CACTVS_SUBSKEYS>
AAADcfB/PAAAAAAAAAAAAAAAAAAAAaIAAAAwYMAAAAAAAGABUAAAHgAQCAAADDzhmAYyAILABgCIAiFSEAKCAAAgAAAIiIFIDIgLNjaAsR2HcAhn9gGbqAf6/KpOgAAAAAAQAAAAAAAAACAAAKAACQgAAA==
> <PUBCHEM_IUPAC_OPENEYE_NAME>
(2R,3R,4R,5R)-2,5-dibenzyloxy-N-[(5S)-5-(ethoxymethyl)tetrahydrofuran-3-yl]-3,4-dihydroxy-N'-[(1S,2R)-2-hydroxyindan-1-yl]hexanediamide
> <PUBCHEM_IUPAC_CAS_NAME>
(2R,3R,4R,5R)-N-[(5S)-5-(ethoxymethyl)-3-oxolanyl]-3,4-dihydroxy-N'-[(1S,2R)-2-hydroxy-2,3-dihydro-1H-inden-1-yl]-2,5-bis(phenylmethoxy)hexanediamide
> <PUBCHEM_IUPAC_NAME_MARKUP>
(2<I>R</I>,3<I>R</I>,4<I>R</I>,5<I>R</I>)-<I>N</I>-[(5<I>S</I>)-5-(ethoxymethyl)oxolan-3-yl]-3,4-dihydroxy-<I>N</I>&apos;-[(1<I>S</I>,2<I>R</I>)-2-hydroxy-2,3-dihydro-1<I>H</I>-inden-1-yl]-2,5-bis(phenylmethoxy)hexanediamide
> <PUBCHEM_IUPAC_NAME>
(2R,3R,4R,5R)-N-[(5S)-5-(ethoxymethyl)oxolan-3-yl]-3,4-dihydroxy-N'-[(1S,2R)-2-hydroxy-2,3-dihydro-1H-inden-1-yl]-2,5-bis(phenylmethoxy)hexanediamide
> <PUBCHEM_IUPAC_SYSTEMATIC_NAME>
(2R,3R,4R,5R)-N-[(5S)-5-(ethoxymethyl)oxolan-3-yl]-3,4-bis(oxidanyl)-N'-[(1S,2R)-2-oxidanyl-2,3-dihydro-1H-inden-1-yl]-2,5-bis(phenylmethoxy)hexanediamide
> <PUBCHEM_IUPAC_TRADITIONAL_NAME>
(2R,3R,4R,5R)-2,5-dibenzoxy-N-[(5S)-5-(ethoxymethyl)tetrahydrofuran-3-yl]-3,4-dihydroxy-N'-[(1S,2R)-2-hydroxyindan-1-yl]adipamide
> <PUBCHEM_IUPAC_INCHI>
InChI=1S/C36H44N2O9/c1-2-44-22-27-18-26(21-45-27)37-35(42)33(46-19-23-11-5-3-6-12-23)31(40)32(41)34(47-20-24-13-7-4-8-14-24)36(43)38-30-28-16-10-9-15-25(28)17-29(30)39/h3-16,26-27,29-34,39-41H,2,17-22H2,1H3,(H,37,42)(H,38,43)/t26?,27-,29+,30-,31+,32+,33+,34+/m0/s1
> <PUBCHEM_IUPAC_INCHIKEY>
VQZTZJYOPMWEGZ-WBRFVCDQSA-N
> <PUBCHEM_XLOGP3_AA>
2.8
> <PUBCHEM_EXACT_MASS>
648.30468099
> <PUBCHEM_MOLECULAR_FORMULA>
C36H44N2O9
> <PUBCHEM_MOLECULAR_WEIGHT>
648.7
> <PUBCHEM_OPENEYE_CAN_SMILES>
CCOCC1CC(CO1)NC(=O)C(C(C(C(C(=O)NC2C(CC3=CC=CC=C23)O)OCC4=CC=CC=C4)O)O)OCC5=CC=CC=C5
> <PUBCHEM_OPENEYE_ISO_SMILES>
CCOC[C@@H]1CC(CO1)NC(=O)[C@@H]([C@@H]([C@H]([C@H](C(=O)N[C@@H]2[C@@H](CC3=CC=CC=C23)O)OCC4=CC=CC=C4)O)O)OCC5=CC=CC=C5
> <PUBCHEM_CACTVS_TPSA>
156
> <PUBCHEM_MONOISOTOPIC_WEIGHT>
648.30468099
> <PUBCHEM_TOTAL_CHARGE>
0
> <PUBCHEM_HEAVY_ATOM_COUNT>
47
> <PUBCHEM_ATOM_DEF_STEREO_COUNT>
7
> <PUBCHEM_ATOM_UDEF_STEREO_COUNT>
1
> <PUBCHEM_BOND_DEF_STEREO_COUNT>
0
> <PUBCHEM_BOND_UDEF_STEREO_COUNT>
0
> <PUBCHEM_ISOTOPIC_ATOM_COUNT>
0
> <PUBCHEM_COMPONENT_COUNT>
1
> <PUBCHEM_CACTVS_TAUTO_COUNT>
-1
> <PUBCHEM_COORDINATE_TYPE>
1
5
255
> <PUBCHEM_BONDANNOTATIONS>
12  10  6
14  11  3
17  25  6
18  19  8
18  28  8
19  29  8
13  2  6
28  30  8
29  31  8
23  3  6
30  31  8
35  38  8
35  39  8
36  40  8
36  41  8
38  42  8
39  43  8
24  4  6
40  44  8
41  45  8
42  46  8
43  46  8
44  47  8
45  47  8
21  5  5
22  7  5
$$$$
