503801
  -OEChem-10302200282D
 94 97  0     1  0  0  0  0  0999 V2000
   13.8961   -1.5717    0.0000 O   0  0  0  0  0  0  0  0  0  0  0  0
    4.3025    1.9671    0.0000 O   0  0  0  0  0  0  0  0  0  0  0  0
   10.2153    1.1307    0.0000 O   0  0  0  0  0  0  0  0  0  0  0  0
    7.6172   -1.3693    0.0000 O   0  0  0  0  0  0  0  0  0  0  0  0
   15.9784   -1.4102    0.0000 O   0  0  0  0  0  0  0  0  0  0  0  0
    3.4013    3.8512    0.0000 O   0  0  0  0  0  0  0  0  0  0  0  0
    9.3493   -1.3693    0.0000 O   0  0  0  0  0  0  0  0  0  0  0  0
    8.4833    1.1307    0.0000 O   0  0  0  0  0  0  0  0  0  0  0  0
   11.0813   -1.3693    0.0000 O   0  0  0  0  0  0  0  0  0  0  0  0
    5.8852   -0.3693    0.0000 O   0  0  0  0  0  0  0  0  0  0  0  0
   11.9474    0.1307    0.0000 N   0  0  0  0  0  0  0  0  0  0  0  0
    6.7512    1.1307    0.0000 N   0  0  0  0  0  0  0  0  0  0  0  0
   12.8134   -0.3693    0.0000 C   0  0  3  0  0  0  0  0  0  0  0  0
    5.8852    1.6307    0.0000 C   0  0  1  0  0  0  0  0  0  0  0  0
   13.7269    0.0374    0.0000 C   0  0  0  0  0  0  0  0  0  0  0  0
    5.7807    2.6252    0.0000 C   0  0  0  0  0  0  0  0  0  0  0  0
   14.3961   -0.7057    0.0000 C   0  0  1  0  0  0  0  0  0  0  0  0
    4.8025    2.8331    0.0000 C   0  0  1  0  0  0  0  0  0  0  0  0
   12.9179   -1.3638    0.0000 C   0  0  0  0  0  0  0  0  0  0  0  0
    4.9716    1.2240    0.0000 C   0  0  0  0  0  0  0  0  0  0  0  0
    9.3493   -0.3693    0.0000 C   0  0  2  0  0  0  0  0  0  0  0  0
    8.4833    0.1307    0.0000 C   0  0  2  0  0  0  0  0  0  0  0  0
   10.2153    0.1307    0.0000 C   0  0  2  0  0  0  0  0  0  0  0  0
    7.6172   -0.3693    0.0000 C   0  0  2  0  0  0  0  0  0  0  0  0
   15.3906   -0.6012    0.0000 C   0  0  0  0  0  0  0  0  0  0  0  0
    4.3958    3.7467    0.0000 C   0  0  0  0  0  0  0  0  0  0  0  0
   11.0813   -0.3693    0.0000 C   0  0  0  0  0  0  0  0  0  0  0  0
    6.7512    0.1307    0.0000 C   0  0  0  0  0  0  0  0  0  0  0  0
   11.0813    1.6307    0.0000 C   0  0  0  0  0  0  0  0  0  0  0  0
    6.7512   -1.8693    0.0000 C   0  0  0  0  0  0  0  0  0  0  0  0
   16.9729   -1.3057    0.0000 C   0  0  0  0  0  0  0  0  0  0  0  0
    2.9945    4.7648    0.0000 C   0  0  0  0  0  0  0  0  0  0  0  0
   11.0813    2.6307    0.0000 C   0  0  0  0  0  0  0  0  0  0  0  0
    6.7512   -2.8693    0.0000 C   0  0  0  0  0  0  0  0  0  0  0  0
   17.5607   -2.1147    0.0000 C   0  0  0  0  0  0  0  0  0  0  0  0
    2.0000    4.8693    0.0000 C   0  0  0  0  0  0  0  0  0  0  0  0
   10.2153    3.1307    0.0000 C   0  0  0  0  0  0  0  0  0  0  0  0
   11.9474    3.1307    0.0000 C   0  0  0  0  0  0  0  0  0  0  0  0
    7.6172   -3.3693    0.0000 C   0  0  0  0  0  0  0  0  0  0  0  0
    5.8852   -3.3693    0.0000 C   0  0  0  0  0  0  0  0  0  0  0  0
   10.2153    4.1307    0.0000 C   0  0  0  0  0  0  0  0  0  0  0  0
   11.9474    4.1307    0.0000 C   0  0  0  0  0  0  0  0  0  0  0  0
    7.6172   -4.3693    0.0000 C   0  0  0  0  0  0  0  0  0  0  0  0
    5.8852   -4.3693    0.0000 C   0  0  0  0  0  0  0  0  0  0  0  0
   11.0813    4.6307    0.0000 C   0  0  0  0  0  0  0  0  0  0  0  0
    6.7512   -4.8693    0.0000 C   0  0  0  0  0  0  0  0  0  0  0  0
   12.8458    0.2499    0.0000 H   0  0  0  0  0  0  0  0  0  0  0  0
    6.4052    1.9684    0.0000 H   0  0  0  0  0  0  0  0  0  0  0  0
   14.2285    0.4019    0.0000 H   0  0  0  0  0  0  0  0  0  0  0  0
   13.4169    0.5744    0.0000 H   0  0  0  0  0  0  0  0  0  0  0  0
    6.4007    2.6252    0.0000 H   0  0  0  0  0  0  0  0  0  0  0  0
    5.8455    3.2418    0.0000 H   0  0  0  0  0  0  0  0  0  0  0  0
   14.7337   -1.2257    0.0000 H   0  0  0  0  0  0  0  0  0  0  0  0
    4.1834    2.8656    0.0000 H   0  0  0  0  0  0  0  0  0  0  0  0
   12.2979   -1.3638    0.0000 H   0  0  0  0  0  0  0  0  0  0  0  0
   12.8531   -1.9804    0.0000 H   0  0  0  0  0  0  0  0  0  0  0  0
    4.4701    0.8595    0.0000 H   0  0  0  0  0  0  0  0  0  0  0  0
    5.2816    0.6870    0.0000 H   0  0  0  0  0  0  0  0  0  0  0  0
    8.8124   -0.6793    0.0000 H   0  0  0  0  0  0  0  0  0  0  0  0
    9.0202    0.4407    0.0000 H   0  0  0  0  0  0  0  0  0  0  0  0
   11.9474    0.7507    0.0000 H   0  0  0  0  0  0  0  0  0  0  0  0
    7.2882    1.4407    0.0000 H   0  0  0  0  0  0  0  0  0  0  0  0
   10.7523    0.4407    0.0000 H   0  0  0  0  0  0  0  0  0  0  0  0
    7.0803   -0.6793    0.0000 H   0  0  0  0  0  0  0  0  0  0  0  0
   15.9478   -0.3294    0.0000 H   0  0  0  0  0  0  0  0  0  0  0  0
   15.2197   -0.0052    0.0000 H   0  0  0  0  0  0  0  0  0  0  0  0
    4.9974    3.8967    0.0000 H   0  0  0  0  0  0  0  0  0  0  0  0
    4.3525    4.3652    0.0000 H   0  0  0  0  0  0  0  0  0  0  0  0
    9.8862   -1.6793    0.0000 H   0  0  0  0  0  0  0  0  0  0  0  0
    9.0202    1.4407    0.0000 H   0  0  0  0  0  0  0  0  0  0  0  0
   11.2934    1.0481    0.0000 H   0  0  0  0  0  0  0  0  0  0  0  0
   11.6919    1.7384    0.0000 H   0  0  0  0  0  0  0  0  0  0  0  0
    6.5392   -1.2867    0.0000 H   0  0  0  0  0  0  0  0  0  0  0  0
    6.1406   -1.9770    0.0000 H   0  0  0  0  0  0  0  0  0  0  0  0
   17.5302   -1.0339    0.0000 H   0  0  0  0  0  0  0  0  0  0  0  0
   16.8020   -0.7097    0.0000 H   0  0  0  0  0  0  0  0  0  0  0  0
    3.5961    4.9148    0.0000 H   0  0  0  0  0  0  0  0  0  0  0  0
    2.9513    5.3832    0.0000 H   0  0  0  0  0  0  0  0  0  0  0  0
   17.0591   -2.4791    0.0000 H   0  0  0  0  0  0  0  0  0  0  0  0
   17.9251   -2.6163    0.0000 H   0  0  0  0  0  0  0  0  0  0  0  0
   18.0623   -1.7502    0.0000 H   0  0  0  0  0  0  0  0  0  0  0  0
    2.0648    5.4859    0.0000 H   0  0  0  0  0  0  0  0  0  0  0  0
    1.3834    4.9341    0.0000 H   0  0  0  0  0  0  0  0  0  0  0  0
    1.9352    4.2527    0.0000 H   0  0  0  0  0  0  0  0  0  0  0  0
    9.6784    2.8207    0.0000 H   0  0  0  0  0  0  0  0  0  0  0  0
   12.4843    2.8207    0.0000 H   0  0  0  0  0  0  0  0  0  0  0  0
    8.1542   -3.0593    0.0000 H   0  0  0  0  0  0  0  0  0  0  0  0
    5.3483   -3.0593    0.0000 H   0  0  0  0  0  0  0  0  0  0  0  0
    9.6784    4.4407    0.0000 H   0  0  0  0  0  0  0  0  0  0  0  0
   12.4843    4.4407    0.0000 H   0  0  0  0  0  0  0  0  0  0  0  0
    8.1542   -4.6793    0.0000 H   0  0  0  0  0  0  0  0  0  0  0  0
    5.3483   -4.6793    0.0000 H   0  0  0  0  0  0  0  0  0  0  0  0
   11.0813    5.2507    0.0000 H   0  0  0  0  0  0  0  0  0  0  0  0
    6.7512   -5.4893    0.0000 H   0  0  0  0  0  0  0  0  0  0  0  0
  1 17  1  0  0  0  0
  1 19  1  0  0  0  0
  2 18  1  0  0  0  0
  2 20  1  0  0  0  0
 23  3  1  1  0  0  0
  3 29  1  0  0  0  0
 24  4  1  1  0  0  0
  4 30  1  0  0  0  0
  5 25  1  0  0  0  0
  5 31  1  0  0  0  0
  6 26  1  0  0  0  0
  6 32  1  0  0  0  0
 21  7  1  6  0  0  0
  7 69  1  0  0  0  0
 22  8  1  6  0  0  0
  8 70  1  0  0  0  0
  9 27  2  0  0  0  0
 10 28  2  0  0  0  0
 11 13  1  0  0  0  0
 11 27  1  0  0  0  0
 11 61  1  0  0  0  0
 14 12  1  6  0  0  0
 12 28  1  0  0  0  0
 12 62  1  0  0  0  0
 13 15  1  0  0  0  0
 13 19  1  0  0  0  0
 13 47  1  0  0  0  0
 14 16  1  0  0  0  0
 14 20  1  0  0  0  0
 14 48  1  0  0  0  0
 15 17  1  0  0  0  0
 15 49  1  0  0  0  0
 15 50  1  0  0  0  0
 16 18  1  0  0  0  0
 16 51  1  0  0  0  0
 16 52  1  0  0  0  0
 17 25  1  1  0  0  0
 17 53  1  0  0  0  0
 18 26  1  6  0  0  0
 18 54  1  0  0  0  0
 19 55  1  0  0  0  0
 19 56  1  0  0  0  0
 20 57  1  0  0  0  0
 20 58  1  0  0  0  0
 21 22  1  0  0  0  0
 21 23  1  0  0  0  0
 21 59  1  0  0  0  0
 22 24  1  0  0  0  0
 22 60  1  0  0  0  0
 23 27  1  0  0  0  0
 23 63  1  0  0  0  0
 24 28  1  0  0  0  0
 24 64  1  0  0  0  0
 25 65  1  0  0  0  0
 25 66  1  0  0  0  0
 26 67  1  0  0  0  0
 26 68  1  0  0  0  0
 29 33  1  0  0  0  0
 29 71  1  0  0  0  0
 29 72  1  0  0  0  0
 30 34  1  0  0  0  0
 30 73  1  0  0  0  0
 30 74  1  0  0  0  0
 31 35  1  0  0  0  0
 31 75  1  0  0  0  0
 31 76  1  0  0  0  0
 32 36  1  0  0  0  0
 32 77  1  0  0  0  0
 32 78  1  0  0  0  0
 33 37  2  0  0  0  0
 33 38  1  0  0  0  0
 34 39  2  0  0  0  0
 34 40  1  0  0  0  0
 35 79  1  0  0  0  0
 35 80  1  0  0  0  0
 35 81  1  0  0  0  0
 36 82  1  0  0  0  0
 36 83  1  0  0  0  0
 36 84  1  0  0  0  0
 37 41  1  0  0  0  0
 37 85  1  0  0  0  0
 38 42  2  0  0  0  0
 38 86  1  0  0  0  0
 39 43  1  0  0  0  0
 39 87  1  0  0  0  0
 40 44  2  0  0  0  0
 40 88  1  0  0  0  0
 41 45  2  0  0  0  0
 41 89  1  0  0  0  0
 42 45  1  0  0  0  0
 42 90  1  0  0  0  0
 43 46  2  0  0  0  0
 43 91  1  0  0  0  0
 44 46  1  0  0  0  0
 44 92  1  0  0  0  0
 45 93  1  0  0  0  0
 46 94  1  0  0  0  0
M  END
> <PUBCHEM_COMPOUND_CID>
503801
> <PUBCHEM_COMPOUND_CANONICALIZED>
1
> <PUBCHEM_CACTVS_COMPLEXITY>
814
> <PUBCHEM_CACTVS_HBOND_ACCEPTOR>
10
> <PUBCHEM_CACTVS_HBOND_DONOR>
4
> <PUBCHEM_CACTVS_ROTATABLE_BOND>
19
> <PUBCHEM_CACTVS_SUBSKEYS>
AAADcfB/PAAAAAAAAAAAAAAAAAAAASJAAAAwYAAAAAAAAAABQAAAHgAQCAAADDzhmAYyAILABgCIAiFSEAICAAAgAAAIiIFICIgLNjaAsRyHcAAn9gGbqAf6/CpOAAAAAAAAAAAAAAAAAAAAAAAAAAAAAA==
> <PUBCHEM_IUPAC_OPENEYE_NAME>
(2R,3R,4R,5R)-2,5-dibenzyloxy-N-[(3S,5S)-5-(ethoxymethyl)tetrahydrofuran-3-yl]-N'-[(5S)-5-(ethoxymethyl)tetrahydrofuran-3-yl]-3,4-dihydroxy-hexanediamide
> <PUBCHEM_IUPAC_CAS_NAME>
(2R,3R,4R,5R)-N-[(3S,5S)-5-(ethoxymethyl)-3-oxolanyl]-N'-[(5S)-5-(ethoxymethyl)-3-oxolanyl]-3,4-dihydroxy-2,5-bis(phenylmethoxy)hexanediamide
> <PUBCHEM_IUPAC_NAME_MARKUP>
(2<I>R</I>,3<I>R</I>,4<I>R</I>,5<I>R</I>)-<I>N</I>-[(3<I>S</I>,5<I>S</I>)-5-(ethoxymethyl)oxolan-3-yl]-<I>N</I>&apos;-[(5<I>S</I>)-5-(ethoxymethyl)oxolan-3-yl]-3,4-dihydroxy-2,5-bis(phenylmethoxy)hexanediamide
> <PUBCHEM_IUPAC_NAME>
(2R,3R,4R,5R)-N-[(3S,5S)-5-(ethoxymethyl)oxolan-3-yl]-N'-[(5S)-5-(ethoxymethyl)oxolan-3-yl]-3,4-dihydroxy-2,5-bis(phenylmethoxy)hexanediamide
> <PUBCHEM_IUPAC_SYSTEMATIC_NAME>
(2R,3R,4R,5R)-N-[(3S,5S)-5-(ethoxymethyl)oxolan-3-yl]-N'-[(5S)-5-(ethoxymethyl)oxolan-3-yl]-3,4-bis(oxidanyl)-2,5-bis(phenylmethoxy)hexanediamide
> <PUBCHEM_IUPAC_TRADITIONAL_NAME>
(2R,3R,4R,5R)-2,5-dibenzoxy-N-[(3S,5S)-5-(ethoxymethyl)tetrahydrofuran-3-yl]-N'-[(5S)-5-(ethoxymethyl)tetrahydrofuran-3-yl]-3,4-dihydroxy-adipamide
> <PUBCHEM_IUPAC_INCHI>
InChI=1S/C34H48N2O10/c1-3-41-21-27-15-25(19-43-27)35-33(39)31(45-17-23-11-7-5-8-12-23)29(37)30(38)32(46-18-24-13-9-6-10-14-24)34(40)36-26-16-28(44-20-26)22-42-4-2/h5-14,25-32,37-38H,3-4,15-22H2,1-2H3,(H,35,39)(H,36,40)/t25-,26?,27-,28-,29+,30+,31+,32+/m0/s1
> <PUBCHEM_IUPAC_INCHIKEY>
KMCWZHPLLICHPE-OLMABHHBSA-N
> <PUBCHEM_XLOGP3_AA>
2.2
> <PUBCHEM_EXACT_MASS>
644.33089573
> <PUBCHEM_MOLECULAR_FORMULA>
C34H48N2O10
> <PUBCHEM_MOLECULAR_WEIGHT>
644.8
> <PUBCHEM_OPENEYE_CAN_SMILES>
CCOCC1CC(CO1)NC(=O)C(C(C(C(C(=O)NC2CC(OC2)COCC)OCC3=CC=CC=C3)O)O)OCC4=CC=CC=C4
> <PUBCHEM_OPENEYE_ISO_SMILES>
CCOC[C@@H]1C[C@@H](CO1)NC(=O)[C@@H]([C@@H]([C@H]([C@H](C(=O)NC2C[C@H](OC2)COCC)OCC3=CC=CC=C3)O)O)OCC4=CC=CC=C4
> <PUBCHEM_CACTVS_TPSA>
154
> <PUBCHEM_MONOISOTOPIC_WEIGHT>
644.33089573
> <PUBCHEM_TOTAL_CHARGE>
0
> <PUBCHEM_HEAVY_ATOM_COUNT>
46
> <PUBCHEM_ATOM_DEF_STEREO_COUNT>
7
> <PUBCHEM_ATOM_UDEF_STEREO_COUNT>
1
> <PUBCHEM_BOND_DEF_STEREO_COUNT>
0
> <PUBCHEM_BOND_UDEF_STEREO_COUNT>
0
> <PUBCHEM_ISOTOPIC_ATOM_COUNT>
0
> <PUBCHEM_COMPONENT_COUNT>
1
> <PUBCHEM_CACTVS_TAUTO_COUNT>
-1
> <PUBCHEM_COORDINATE_TYPE>
1
5
255
> <PUBCHEM_BONDANNOTATIONS>
13  11  3
14  12  6
17  25  5
18  26  6
23  3  5
33  37  8
33  38  8
34  39  8
34  40  8
37  41  8
38  42  8
39  43  8
24  4  5
40  44  8
41  45  8
42  45  8
43  46  8
44  46  8
21  7  6
22  8  6
$$$$
