503874
  -OEChem-10302200282D
 80 83  0     1  0  0  0  0  0999 V2000
    5.4641    3.5600    0.0000 S   0  0  0  0  0  0  0  0  0  0  0  0
    9.7942   -0.9400    0.0000 P   0  0  3  0  0  0  0  0  0  0  0  0
   12.4398   -2.5333    0.0000 O   0  0  0  0  0  0  0  0  0  0  0  0
   10.6603   -1.4400    0.0000 O   0  0  0  0  0  0  0  0  0  0  0  0
   14.2845   -4.8945    0.0000 O   0  0  0  0  0  0  0  0  0  0  0  0
    8.9282   -0.4400    0.0000 O   0  0  0  0  0  0  0  0  0  0  0  0
    9.2942   -1.8060    0.0000 O   0  0  0  0  0  0  0  0  0  0  0  0
   10.2942   -0.0740    0.0000 O   0  0  0  0  0  0  0  0  0  0  0  0
   17.0870   -2.8583    0.0000 O   0  0  0  0  0  0  0  0  0  0  0  0
    8.0622    2.0600    0.0000 O   0  0  0  0  0  0  0  0  0  0  0  0
    8.9282    3.5600    0.0000 O   0  0  0  0  0  0  0  0  0  0  0  0
    7.1962    6.5600    0.0000 O   0  0  0  0  0  0  0  0  0  0  0  0
   14.1035   -3.1719    0.0000 N   0  0  0  0  0  0  0  0  0  0  0  0
   10.8877   -4.6037    0.0000 N   0  0  0  0  0  0  0  0  0  0  0  0
   15.6858   -3.8764    0.0000 N   0  0  0  0  0  0  0  0  0  0  0  0
   11.0956   -5.5818    0.0000 N   0  3  0  0  0  0  0  0  0  0  0  0
   11.3035   -6.5600    0.0000 N   0  5  0  0  0  0  0  0  0  0  0  0
    7.1962    3.5600    0.0000 N   0  0  0  0  0  0  0  0  0  0  0  0
    8.0622    5.0600    0.0000 N   0  0  0  0  0  0  0  0  0  0  0  0
   11.6308   -3.9346    0.0000 C   0  0  2  0  0  0  0  0  0  0  0  0
   11.5263   -2.9400    0.0000 C   0  0  1  0  0  0  0  0  0  0  0  0
   12.6090   -4.1425    0.0000 C   0  0  0  0  0  0  0  0  0  0  0  0
   13.1090   -3.2764    0.0000 C   0  0  1  0  0  0  0  0  0  0  0  0
   10.6603   -2.4400    0.0000 C   0  0  0  0  0  0  0  0  0  0  0  0
   14.5102   -2.2584    0.0000 C   0  0  0  0  0  0  0  0  0  0  0  0
   14.6913   -3.9809    0.0000 C   0  0  0  0  0  0  0  0  0  0  0  0
   15.5047   -2.1538    0.0000 C   0  0  0  0  0  0  0  0  0  0  0  0
   16.0925   -2.9628    0.0000 C   0  0  0  0  0  0  0  0  0  0  0  0
   15.9115   -1.2403    0.0000 C   0  0  0  0  0  0  0  0  0  0  0  0
    8.9282    0.5600    0.0000 C   0  0  0  0  0  0  0  0  0  0  0  0
    8.0622    1.0600    0.0000 C   0  0  0  0  0  0  0  0  0  0  0  0
    7.1962    2.5600    0.0000 C   0  0  0  0  0  0  0  0  0  0  0  0
    6.3301    4.0600    0.0000 C   0  0  0  0  0  0  0  0  0  0  0  0
    6.3301    5.0600    0.0000 C   0  0  0  0  0  0  0  0  0  0  0  0
    5.4641    5.5600    0.0000 C   0  0  0  0  0  0  0  0  0  0  0  0
    8.0622    4.0600    0.0000 C   0  0  0  0  0  0  0  0  0  0  0  0
    7.1962    5.5600    0.0000 C   0  0  0  0  0  0  0  0  0  0  0  0
    4.5981    4.0600    0.0000 C   0  0  0  0  0  0  0  0  0  0  0  0
    5.4641    6.5600    0.0000 C   0  0  0  0  0  0  0  0  0  0  0  0
    3.7320    3.5600    0.0000 C   0  0  0  0  0  0  0  0  0  0  0  0
    4.5981    5.0600    0.0000 C   0  0  0  0  0  0  0  0  0  0  0  0
    2.8660    4.0600    0.0000 C   0  0  0  0  0  0  0  0  0  0  0  0
    3.7320    5.5600    0.0000 C   0  0  0  0  0  0  0  0  0  0  0  0
    2.8660    5.0600    0.0000 C   0  0  0  0  0  0  0  0  0  0  0  0
    2.0000    3.5600    0.0000 C   0  0  0  0  0  0  0  0  0  0  0  0
    3.7320    6.5600    0.0000 C   0  0  0  0  0  0  0  0  0  0  0  0
   11.7913   -4.5334    0.0000 H   0  0  0  0  0  0  0  0  0  0  0  0
   11.5587   -2.3209    0.0000 H   0  0  0  0  0  0  0  0  0  0  0  0
   12.4174   -4.7321    0.0000 H   0  0  0  0  0  0  0  0  0  0  0  0
   13.1754   -4.3946    0.0000 H   0  0  0  0  0  0  0  0  0  0  0  0
   13.4466   -3.7964    0.0000 H   0  0  0  0  0  0  0  0  0  0  0  0
   10.0497   -2.3324    0.0000 H   0  0  0  0  0  0  0  0  0  0  0  0
   10.4482   -3.0226    0.0000 H   0  0  0  0  0  0  0  0  0  0  0  0
   14.1458   -1.7568    0.0000 H   0  0  0  0  0  0  0  0  0  0  0  0
   16.0502   -4.3780    0.0000 H   0  0  0  0  0  0  0  0  0  0  0  0
   16.4779   -1.4925    0.0000 H   0  0  0  0  0  0  0  0  0  0  0  0
   16.1636   -0.6739    0.0000 H   0  0  0  0  0  0  0  0  0  0  0  0
   15.3451   -0.9881    0.0000 H   0  0  0  0  0  0  0  0  0  0  0  0
    8.6742   -1.8060    0.0000 H   0  0  0  0  0  0  0  0  0  0  0  0
    9.5388    0.4523    0.0000 H   0  0  0  0  0  0  0  0  0  0  0  0
    9.1403    1.1426    0.0000 H   0  0  0  0  0  0  0  0  0  0  0  0
    7.4516    1.1676    0.0000 H   0  0  0  0  0  0  0  0  0  0  0  0
    7.8501    0.4774    0.0000 H   0  0  0  0  0  0  0  0  0  0  0  0
    6.5856    2.6676    0.0000 H   0  0  0  0  0  0  0  0  0  0  0  0
    6.9841    1.9774    0.0000 H   0  0  0  0  0  0  0  0  0  0  0  0
    4.8535    5.6676    0.0000 H   0  0  0  0  0  0  0  0  0  0  0  0
    5.2520    4.9774    0.0000 H   0  0  0  0  0  0  0  0  0  0  0  0
    8.5991    5.3700    0.0000 H   0  0  0  0  0  0  0  0  0  0  0  0
    6.0841    6.5600    0.0000 H   0  0  0  0  0  0  0  0  0  0  0  0
    5.4641    7.1800    0.0000 H   0  0  0  0  0  0  0  0  0  0  0  0
    4.8441    6.5600    0.0000 H   0  0  0  0  0  0  0  0  0  0  0  0
    3.7320    2.9400    0.0000 H   0  0  0  0  0  0  0  0  0  0  0  0
    5.1350    5.3700    0.0000 H   0  0  0  0  0  0  0  0  0  0  0  0
    2.3291    5.3700    0.0000 H   0  0  0  0  0  0  0  0  0  0  0  0
    1.6900    4.0969    0.0000 H   0  0  0  0  0  0  0  0  0  0  0  0
    1.4631    3.2500    0.0000 H   0  0  0  0  0  0  0  0  0  0  0  0
    2.3100    3.0230    0.0000 H   0  0  0  0  0  0  0  0  0  0  0  0
    4.3520    6.5600    0.0000 H   0  0  0  0  0  0  0  0  0  0  0  0
    3.7320    7.1800    0.0000 H   0  0  0  0  0  0  0  0  0  0  0  0
    3.1120    6.5600    0.0000 H   0  0  0  0  0  0  0  0  0  0  0  0
  1 33  1  0  0  0  0
  1 38  1  0  0  0  0
  2  4  1  0  0  0  0
  2  6  1  0  0  0  0
  2  7  1  0  0  0  0
  2  8  2  0  0  0  0
  3 21  1  0  0  0  0
  3 23  1  0  0  0  0
  4 24  1  0  0  0  0
  5 26  2  0  0  0  0
  6 30  1  0  0  0  0
  7 59  1  0  0  0  0
  9 28  2  0  0  0  0
 10 31  1  0  0  0  0
 10 32  1  0  0  0  0
 11 36  2  0  0  0  0
 12 37  2  0  0  0  0
 23 13  1  1  0  0  0
 13 25  1  0  0  0  0
 13 26  1  0  0  0  0
 14 16  2  0  0  0  0
 20 14  1  6  0  0  0
 15 26  1  0  0  0  0
 15 28  1  0  0  0  0
 15 55  1  0  0  0  0
 16 17  2  0  0  0  0
 18 32  1  0  0  0  0
 18 33  1  0  0  0  0
 18 36  1  0  0  0  0
 19 36  1  0  0  0  0
 19 37  1  0  0  0  0
 19 68  1  0  0  0  0
 20 21  1  0  0  0  0
 20 22  1  0  0  0  0
 20 47  1  0  0  0  0
 21 24  1  1  0  0  0
 21 48  1  0  0  0  0
 22 23  1  0  0  0  0
 22 49  1  0  0  0  0
 22 50  1  0  0  0  0
 23 51  1  0  0  0  0
 24 52  1  0  0  0  0
 24 53  1  0  0  0  0
 25 27  2  0  0  0  0
 25 54  1  0  0  0  0
 27 28  1  0  0  0  0
 27 29  1  0  0  0  0
 29 56  1  0  0  0  0
 29 57  1  0  0  0  0
 29 58  1  0  0  0  0
 30 31  1  0  0  0  0
 30 60  1  0  0  0  0
 30 61  1  0  0  0  0
 31 62  1  0  0  0  0
 31 63  1  0  0  0  0
 32 64  1  0  0  0  0
 32 65  1  0  0  0  0
 33 34  2  0  0  0  0
 34 35  1  0  0  0  0
 34 37  1  0  0  0  0
 35 39  1  0  0  0  0
 35 66  1  0  0  0  0
 35 67  1  0  0  0  0
 38 40  2  0  0  0  0
 38 41  1  0  0  0  0
 39 69  1  0  0  0  0
 39 70  1  0  0  0  0
 39 71  1  0  0  0  0
 40 42  1  0  0  0  0
 40 72  1  0  0  0  0
 41 43  2  0  0  0  0
 41 73  1  0  0  0  0
 42 44  2  0  0  0  0
 42 45  1  0  0  0  0
 43 44  1  0  0  0  0
 43 46  1  0  0  0  0
 44 74  1  0  0  0  0
 45 75  1  0  0  0  0
 45 76  1  0  0  0  0
 45 77  1  0  0  0  0
 46 78  1  0  0  0  0
 46 79  1  0  0  0  0
 46 80  1  0  0  0  0
M  CHG  2  16   1  17  -1
M  END
> <PUBCHEM_COMPOUND_CID>
503874
> <PUBCHEM_COMPOUND_CANONICALIZED>
1
> <PUBCHEM_CACTVS_COMPLEXITY>
1360
> <PUBCHEM_CACTVS_HBOND_ACCEPTOR>
13
> <PUBCHEM_CACTVS_HBOND_DONOR>
3
> <PUBCHEM_CACTVS_ROTATABLE_BOND>
14
> <PUBCHEM_CACTVS_SUBSKEYS>
AAADcfB7vAJAAAAAAAAAAAAAAAAAASAAAAAwQIAAAAAAAAABAAAAHgQYCCAADDzh2AYzAYPABRiKQiFWUICCAABgCBAAiBkIAMiLIDKg0RCPIAAuhyIKiMewsEIOAAACgAAAAAAAAAUAAAAAAAAAAAAAAA==
> <PUBCHEM_IUPAC_OPENEYE_NAME>
[(2S,3S,5R)-3-azido-5-(5-methyl-2,4-dioxo-pyrimidin-1-yl)tetrahydrofuran-2-yl]methyl 2-[[6-(3,5-dimethylphenyl)sulfanyl-5-ethyl-2,4-dioxo-pyrimidin-1-yl]methoxy]ethyl hydrogen phosphate
> <PUBCHEM_IUPAC_CAS_NAME>
[(2S,3S,5R)-3-azido-5-(5-methyl-2,4-dioxo-1-pyrimidinyl)-2-oxolanyl]methyl 2-[[6-[(3,5-dimethylphenyl)thio]-5-ethyl-2,4-dioxo-1-pyrimidinyl]methoxy]ethyl hydrogen phosphate
> <PUBCHEM_IUPAC_NAME_MARKUP>
[(2<I>S</I>,3<I>S</I>,5<I>R</I>)-3-azido-5-(5-methyl-2,4-dioxopyrimidin-1-yl)oxolan-2-yl]methyl 2-[[6-(3,5-dimethylphenyl)sulfanyl-5-ethyl-2,4-dioxopyrimidin-1-yl]methoxy]ethyl hydrogen phosphate
> <PUBCHEM_IUPAC_NAME>
[(2S,3S,5R)-3-azido-5-(5-methyl-2,4-dioxopyrimidin-1-yl)oxolan-2-yl]methyl 2-[[6-(3,5-dimethylphenyl)sulfanyl-5-ethyl-2,4-dioxopyrimidin-1-yl]methoxy]ethyl hydrogen phosphate
> <PUBCHEM_IUPAC_SYSTEMATIC_NAME>
[(2S,3S,5R)-3-azido-5-[5-methyl-2,4-bis(oxidanylidene)pyrimidin-1-yl]oxolan-2-yl]methyl 2-[[6-(3,5-dimethylphenyl)sulfanyl-5-ethyl-2,4-bis(oxidanylidene)pyrimidin-1-yl]methoxy]ethyl hydrogen phosphate
> <PUBCHEM_IUPAC_TRADITIONAL_NAME>
[(2S,3S,5R)-3-azido-5-(2,4-diketo-5-methyl-pyrimidin-1-yl)tetrahydrofuran-2-yl]methyl 2-[[6-[(3,5-dimethylphenyl)thio]-5-ethyl-2,4-diketo-pyrimidin-1-yl]methoxy]ethyl hydrogen phosphate
> <PUBCHEM_IUPAC_INCHI>
InChI=1S/C27H34N7O10PS/c1-5-19-24(36)30-27(38)34(25(19)46-18-9-15(2)8-16(3)10-18)14-41-6-7-42-45(39,40)43-13-21-20(31-32-28)11-22(44-21)33-12-17(4)23(35)29-26(33)37/h8-10,12,20-22H,5-7,11,13-14H2,1-4H3,(H,39,40)(H,29,35,37)(H,30,36,38)/t20-,21+,22+/m0/s1
> <PUBCHEM_IUPAC_INCHIKEY>
HNSAZAPZMFUXBC-BHDDXSALSA-N
> <PUBCHEM_XLOGP3_AA>
2.2
> <PUBCHEM_EXACT_MASS>
679.18254848
> <PUBCHEM_MOLECULAR_FORMULA>
C27H34N7O10PS
> <PUBCHEM_MOLECULAR_WEIGHT>
679.6
> <PUBCHEM_OPENEYE_CAN_SMILES>
CCC1=C(N(C(=O)NC1=O)COCCOP(=O)(O)OCC2C(CC(O2)N3C=C(C(=O)NC3=O)C)N=[N+]=[N-])SC4=CC(=CC(=C4)C)C
> <PUBCHEM_OPENEYE_ISO_SMILES>
CCC1=C(N(C(=O)NC1=O)COCCOP(=O)(O)OC[C@@H]2[C@H](C[C@@H](O2)N3C=C(C(=O)NC3=O)C)N=[N+]=[N-])SC4=CC(=CC(=C4)C)C
> <PUBCHEM_CACTVS_TPSA>
213
> <PUBCHEM_MONOISOTOPIC_WEIGHT>
679.18254848
> <PUBCHEM_TOTAL_CHARGE>
0
> <PUBCHEM_HEAVY_ATOM_COUNT>
46
> <PUBCHEM_ATOM_DEF_STEREO_COUNT>
3
> <PUBCHEM_ATOM_UDEF_STEREO_COUNT>
0
> <PUBCHEM_BOND_DEF_STEREO_COUNT>
0
> <PUBCHEM_BOND_UDEF_STEREO_COUNT>
0
> <PUBCHEM_ISOTOPIC_ATOM_COUNT>
0
> <PUBCHEM_COMPONENT_COUNT>
1
> <PUBCHEM_CACTVS_TAUTO_COUNT>
-1
> <PUBCHEM_COORDINATE_TYPE>
1
5
255
> <PUBCHEM_BONDANNOTATIONS>
23  13  5
13  25  8
13  26  8
20  14  6
15  26  8
15  28  8
18  33  8
18  36  8
19  36  8
19  37  8
21  24  5
25  27  8
27  28  8
33  34  8
34  37  8
38  40  8
38  41  8
40  42  8
41  43  8
42  44  8
43  44  8
$$$$
