503809
  -OEChem-10302200282D
 94 98  0     1  0  0  0  0  0999 V2000
   11.0989    2.8669    0.0000 O   0  0  0  0  0  0  0  0  0  0  0  0
    8.8633    4.3387    0.0000 O   0  0  0  0  0  0  0  0  0  0  0  0
    6.2619   -4.8227    0.0000 O   0  0  0  0  0  0  0  0  0  0  0  0
    9.2136   -1.2921    0.0000 O   0  0  0  0  0  0  0  0  0  0  0  0
    5.6103   -1.1664    0.0000 O   0  0  0  0  0  0  0  0  0  0  0  0
    6.8994   -0.0097    0.0000 O   0  0  0  0  0  0  0  0  0  0  0  0
    7.9244   -2.4488    0.0000 O   0  0  0  0  0  0  0  0  0  0  0  0
    8.1886    1.1471    0.0000 O   0  0  0  0  0  0  0  0  0  0  0  0
    6.6353   -3.6055    0.0000 O   0  0  0  0  0  0  0  0  0  0  0  0
    9.8349    0.6090    0.0000 N   0  0  0  0  0  0  0  0  0  0  0  0
    4.9889   -3.0674    0.0000 N   0  0  0  0  0  0  0  0  0  0  0  0
   10.1484    3.1775    0.0000 C   0  0  1  0  0  0  0  0  0  0  0  0
    9.5592    2.3695    0.0000 C   0  0  0  0  0  0  0  0  0  0  0  0
   10.1456    1.5595    0.0000 C   0  0  3  0  0  0  0  0  0  0  0  0
    9.8410    4.1291    0.0000 C   0  0  3  0  0  0  0  0  0  0  0  0
   11.0972    1.8669    0.0000 C   0  0  0  0  0  0  0  0  0  0  0  0
   10.5115    4.8711    0.0000 C   0  0  0  0  0  0  0  0  0  0  0  0
    4.6783   -4.0180    0.0000 C   0  0  2  0  0  0  0  0  0  0  0  0
    5.2619   -4.8227    0.0000 C   0  0  1  0  0  0  0  0  0  0  0  0
    4.6783   -5.6274    0.0000 C   0  0  0  0  0  0  0  0  0  0  0  0
    3.7320   -4.3227    0.0000 C   0  0  0  0  0  0  0  0  0  0  0  0
    8.5458   -0.5478    0.0000 C   0  0  2  0  0  0  0  0  0  0  0  0
    3.7320   -5.3227    0.0000 C   0  0  0  0  0  0  0  0  0  0  0  0
    7.5673   -0.7540    0.0000 C   0  0  1  0  0  0  0  0  0  0  0  0
    8.8564    0.4028    0.0000 C   0  0  0  0  0  0  0  0  0  0  0  0
    7.2566   -1.7045    0.0000 C   0  0  2  0  0  0  0  0  0  0  0  0
   10.2041    5.8227    0.0000 C   0  0  0  0  0  0  0  0  0  0  0  0
   11.4892    4.6615    0.0000 C   0  0  0  0  0  0  0  0  0  0  0  0
    6.2781   -1.9107    0.0000 C   0  0  2  0  0  0  0  0  0  0  0  0
    5.9674   -2.8612    0.0000 C   0  0  0  0  0  0  0  0  0  0  0  0
    2.8660   -3.8227    0.0000 C   0  0  0  0  0  0  0  0  0  0  0  0
    2.8660   -5.8227    0.0000 C   0  0  0  0  0  0  0  0  0  0  0  0
    2.0000   -4.3227    0.0000 C   0  0  0  0  0  0  0  0  0  0  0  0
    2.0000   -5.3227    0.0000 C   0  0  0  0  0  0  0  0  0  0  0  0
   10.1921   -1.0858    0.0000 C   0  0  0  0  0  0  0  0  0  0  0  0
    5.9209   -0.2159    0.0000 C   0  0  0  0  0  0  0  0  0  0  0  0
   10.8600   -1.8301    0.0000 C   0  0  0  0  0  0  0  0  0  0  0  0
    5.2531    0.5284    0.0000 C   0  0  0  0  0  0  0  0  0  0  0  0
   11.8385   -1.6239    0.0000 C   0  0  0  0  0  0  0  0  0  0  0  0
   10.5493   -2.7807    0.0000 C   0  0  0  0  0  0  0  0  0  0  0  0
    4.2746    0.3222    0.0000 C   0  0  0  0  0  0  0  0  0  0  0  0
    5.5637    1.4789    0.0000 C   0  0  0  0  0  0  0  0  0  0  0  0
   12.5063   -2.3682    0.0000 C   0  0  0  0  0  0  0  0  0  0  0  0
   11.2171   -3.5250    0.0000 C   0  0  0  0  0  0  0  0  0  0  0  0
    3.6067    1.0665    0.0000 C   0  0  0  0  0  0  0  0  0  0  0  0
    4.8959    2.2232    0.0000 C   0  0  0  0  0  0  0  0  0  0  0  0
   12.1957   -3.3187    0.0000 C   0  0  0  0  0  0  0  0  0  0  0  0
    3.9174    2.0170    0.0000 C   0  0  0  0  0  0  0  0  0  0  0  0
   10.5876    3.6152    0.0000 H   0  0  0  0  0  0  0  0  0  0  0  0
    9.0992    2.7852    0.0000 H   0  0  0  0  0  0  0  0  0  0  0  0
    9.0978    1.9555    0.0000 H   0  0  0  0  0  0  0  0  0  0  0  0
   10.5833    1.1203    0.0000 H   0  0  0  0  0  0  0  0  0  0  0  0
    9.6505    4.7191    0.0000 H   0  0  0  0  0  0  0  0  0  0  0  0
   11.2251    1.2602    0.0000 H   0  0  0  0  0  0  0  0  0  0  0  0
   11.7139    1.9306    0.0000 H   0  0  0  0  0  0  0  0  0  0  0  0
   10.9271    5.3311    0.0000 H   0  0  0  0  0  0  0  0  0  0  0  0
   10.2490    0.1475    0.0000 H   0  0  0  0  0  0  0  0  0  0  0  0
    5.2908   -3.9218    0.0000 H   0  0  0  0  0  0  0  0  0  0  0  0
    5.5436   -5.3750    0.0000 H   0  0  0  0  0  0  0  0  0  0  0  0
    4.4272   -6.1943    0.0000 H   0  0  0  0  0  0  0  0  0  0  0  0
    5.2156   -5.9367    0.0000 H   0  0  0  0  0  0  0  0  0  0  0  0
    8.3532   -1.1371    0.0000 H   0  0  0  0  0  0  0  0  0  0  0  0
    6.9606   -0.8818    0.0000 H   0  0  0  0  0  0  0  0  0  0  0  0
    7.0640   -2.2938    0.0000 H   0  0  0  0  0  0  0  0  0  0  0  0
   10.7941    6.0133    0.0000 H   0  0  0  0  0  0  0  0  0  0  0  0
   10.0135    6.4127    0.0000 H   0  0  0  0  0  0  0  0  0  0  0  0
    9.6141    5.6321    0.0000 H   0  0  0  0  0  0  0  0  0  0  0  0
   11.3593    4.0553    0.0000 H   0  0  0  0  0  0  0  0  0  0  0  0
   12.0955    4.5316    0.0000 H   0  0  0  0  0  0  0  0  0  0  0  0
   11.6192    5.2677    0.0000 H   0  0  0  0  0  0  0  0  0  0  0  0
    5.6714   -2.0386    0.0000 H   0  0  0  0  0  0  0  0  0  0  0  0
    4.5749   -2.6060    0.0000 H   0  0  0  0  0  0  0  0  0  0  0  0
    8.6727    4.9287    0.0000 H   0  0  0  0  0  0  0  0  0  0  0  0
    2.8660   -3.2027    0.0000 H   0  0  0  0  0  0  0  0  0  0  0  0
    2.8660   -6.4427    0.0000 H   0  0  0  0  0  0  0  0  0  0  0  0
    6.5719   -5.3596    0.0000 H   0  0  0  0  0  0  0  0  0  0  0  0
    1.4631   -4.0127    0.0000 H   0  0  0  0  0  0  0  0  0  0  0  0
    1.4631   -5.6327    0.0000 H   0  0  0  0  0  0  0  0  0  0  0  0
    7.0920    0.5797    0.0000 H   0  0  0  0  0  0  0  0  0  0  0  0
    8.5311   -2.3209    0.0000 H   0  0  0  0  0  0  0  0  0  0  0  0
   10.7185   -0.7582    0.0000 H   0  0  0  0  0  0  0  0  0  0  0  0
    9.9609   -0.5106    0.0000 H   0  0  0  0  0  0  0  0  0  0  0  0
    6.4678   -0.5079    0.0000 H   0  0  0  0  0  0  0  0  0  0  0  0
    6.3035    0.2720    0.0000 H   0  0  0  0  0  0  0  0  0  0  0  0
   12.0311   -1.0346    0.0000 H   0  0  0  0  0  0  0  0  0  0  0  0
    9.9426   -2.9085    0.0000 H   0  0  0  0  0  0  0  0  0  0  0  0
    4.0820   -0.2671    0.0000 H   0  0  0  0  0  0  0  0  0  0  0  0
    6.1704    1.6068    0.0000 H   0  0  0  0  0  0  0  0  0  0  0  0
   13.1130   -2.2404    0.0000 H   0  0  0  0  0  0  0  0  0  0  0  0
   11.0245   -4.1143    0.0000 H   0  0  0  0  0  0  0  0  0  0  0  0
    3.0000    0.9386    0.0000 H   0  0  0  0  0  0  0  0  0  0  0  0
    5.0885    2.8126    0.0000 H   0  0  0  0  0  0  0  0  0  0  0  0
   12.6097   -3.7802    0.0000 H   0  0  0  0  0  0  0  0  0  0  0  0
    3.5033    2.4785    0.0000 H   0  0  0  0  0  0  0  0  0  0  0  0
  1 12  1  0  0  0  0
  1 16  1  0  0  0  0
  2 15  1  0  0  0  0
  2 73  1  0  0  0  0
 19  3  1  6  0  0  0
  3 76  1  0  0  0  0
 22  4  1  6  0  0  0
  4 35  1  0  0  0  0
 29  5  1  6  0  0  0
  5 36  1  0  0  0  0
 24  6  1  1  0  0  0
  6 79  1  0  0  0  0
 26  7  1  1  0  0  0
  7 80  1  0  0  0  0
  8 25  2  0  0  0  0
  9 30  2  0  0  0  0
 10 14  1  0  0  0  0
 10 25  1  0  0  0  0
 10 57  1  0  0  0  0
 18 11  1  6  0  0  0
 11 30  1  0  0  0  0
 11 72  1  0  0  0  0
 12 13  1  0  0  0  0
 12 15  1  1  0  0  0
 12 49  1  0  0  0  0
 13 14  1  0  0  0  0
 13 50  1  0  0  0  0
 13 51  1  0  0  0  0
 14 16  1  0  0  0  0
 14 52  1  0  0  0  0
 15 17  1  0  0  0  0
 15 53  1  0  0  0  0
 16 54  1  0  0  0  0
 16 55  1  0  0  0  0
 17 27  1  0  0  0  0
 17 28  1  0  0  0  0
 17 56  1  0  0  0  0
 18 19  1  0  0  0  0
 18 21  1  0  0  0  0
 18 58  1  0  0  0  0
 19 20  1  0  0  0  0
 19 59  1  0  0  0  0
 20 23  1  0  0  0  0
 20 60  1  0  0  0  0
 20 61  1  0  0  0  0
 21 23  1  0  0  0  0
 21 31  2  0  0  0  0
 22 24  1  0  0  0  0
 22 25  1  0  0  0  0
 22 62  1  0  0  0  0
 23 32  2  0  0  0  0
 24 26  1  0  0  0  0
 24 63  1  0  0  0  0
 26 29  1  0  0  0  0
 26 64  1  0  0  0  0
 27 65  1  0  0  0  0
 27 66  1  0  0  0  0
 27 67  1  0  0  0  0
 28 68  1  0  0  0  0
 28 69  1  0  0  0  0
 28 70  1  0  0  0  0
 29 30  1  0  0  0  0
 29 71  1  0  0  0  0
 31 33  1  0  0  0  0
 31 74  1  0  0  0  0
 32 34  1  0  0  0  0
 32 75  1  0  0  0  0
 33 34  2  0  0  0  0
 33 77  1  0  0  0  0
 34 78  1  0  0  0  0
 35 37  1  0  0  0  0
 35 81  1  0  0  0  0
 35 82  1  0  0  0  0
 36 38  1  0  0  0  0
 36 83  1  0  0  0  0
 36 84  1  0  0  0  0
 37 39  2  0  0  0  0
 37 40  1  0  0  0  0
 38 41  2  0  0  0  0
 38 42  1  0  0  0  0
 39 43  1  0  0  0  0
 39 85  1  0  0  0  0
 40 44  2  0  0  0  0
 40 86  1  0  0  0  0
 41 45  1  0  0  0  0
 41 87  1  0  0  0  0
 42 46  2  0  0  0  0
 42 88  1  0  0  0  0
 43 47  2  0  0  0  0
 43 89  1  0  0  0  0
 44 47  1  0  0  0  0
 44 90  1  0  0  0  0
 45 48  2  0  0  0  0
 45 91  1  0  0  0  0
 46 48  1  0  0  0  0
 46 92  1  0  0  0  0
 47 93  1  0  0  0  0
 48 94  1  0  0  0  0
M  END
> <PUBCHEM_COMPOUND_CID>
503809
> <PUBCHEM_COMPOUND_CANONICALIZED>
1
> <PUBCHEM_CACTVS_COMPLEXITY>
1000
> <PUBCHEM_CACTVS_HBOND_ACCEPTOR>
9
> <PUBCHEM_CACTVS_HBOND_DONOR>
6
> <PUBCHEM_CACTVS_ROTATABLE_BOND>
15
> <PUBCHEM_CACTVS_SUBSKEYS>
AAADcfB/PAAAAAAAAAAAAAAAAAAAAaIAAAAwYMAAAAAAAGABUAAAHgAQCAAADTzhmAYyAILABgCIAiFSEAKCAAAgAAAIiIFIDIgLNjaAsR2HcAhn9gGbqAf6/OZOgAAAAAAQAAAAAAAAACAAAKAACQgAAA==
> <PUBCHEM_IUPAC_OPENEYE_NAME>
(2R,3R,4R,5R)-2,5-dibenzyloxy-3,4-dihydroxy-N-[(1S,2R)-2-hydroxyindan-1-yl]-N'-[(5S)-5-(1-hydroxy-2-methyl-propyl)tetrahydrofuran-3-yl]hexanediamide
> <PUBCHEM_IUPAC_CAS_NAME>
(2R,3R,4R,5R)-3,4-dihydroxy-N-[(1S,2R)-2-hydroxy-2,3-dihydro-1H-inden-1-yl]-N'-[(5S)-5-(1-hydroxy-2-methylpropyl)-3-oxolanyl]-2,5-bis(phenylmethoxy)hexanediamide
> <PUBCHEM_IUPAC_NAME_MARKUP>
(2<I>R</I>,3<I>R</I>,4<I>R</I>,5<I>R</I>)-3,4-dihydroxy-<I>N</I>-[(1<I>S</I>,2<I>R</I>)-2-hydroxy-2,3-dihydro-1<I>H</I>-inden-1-yl]-<I>N</I>&apos;-[(5<I>S</I>)-5-(1-hydroxy-2-methylpropyl)oxolan-3-yl]-2,5-bis(phenylmethoxy)hexanediamide
> <PUBCHEM_IUPAC_NAME>
(2R,3R,4R,5R)-3,4-dihydroxy-N-[(1S,2R)-2-hydroxy-2,3-dihydro-1H-inden-1-yl]-N'-[(5S)-5-(1-hydroxy-2-methylpropyl)oxolan-3-yl]-2,5-bis(phenylmethoxy)hexanediamide
> <PUBCHEM_IUPAC_SYSTEMATIC_NAME>
(2R,3R,4R,5R)-N-[(5S)-5-(2-methyl-1-oxidanyl-propyl)oxolan-3-yl]-3,4-bis(oxidanyl)-N'-[(1S,2R)-2-oxidanyl-2,3-dihydro-1H-inden-1-yl]-2,5-bis(phenylmethoxy)hexanediamide
> <PUBCHEM_IUPAC_TRADITIONAL_NAME>
(2R,3R,4R,5R)-2,5-dibenzoxy-3,4-dihydroxy-N-[(1S,2R)-2-hydroxyindan-1-yl]-N'-[(5S)-5-(1-hydroxy-2-methyl-propyl)tetrahydrofuran-3-yl]adipamide
> <PUBCHEM_IUPAC_INCHI>
InChI=1S/C37H46N2O9/c1-22(2)31(41)29-18-26(21-46-29)38-36(44)34(47-19-23-11-5-3-6-12-23)32(42)33(43)35(48-20-24-13-7-4-8-14-24)37(45)39-30-27-16-10-9-15-25(27)17-28(30)40/h3-16,22,26,28-35,40-43H,17-21H2,1-2H3,(H,38,44)(H,39,45)/t26?,28-,29+,30+,31?,32-,33-,34-,35-/m1/s1
> <PUBCHEM_IUPAC_INCHIKEY>
BPMMSVNKRWBVFG-QTTSTLAXSA-N
> <PUBCHEM_XLOGP3_AA>
3.3
> <PUBCHEM_EXACT_MASS>
662.32033105
> <PUBCHEM_MOLECULAR_FORMULA>
C37H46N2O9
> <PUBCHEM_MOLECULAR_WEIGHT>
662.8
> <PUBCHEM_OPENEYE_CAN_SMILES>
CC(C)C(C1CC(CO1)NC(=O)C(C(C(C(C(=O)NC2C(CC3=CC=CC=C23)O)OCC4=CC=CC=C4)O)O)OCC5=CC=CC=C5)O
> <PUBCHEM_OPENEYE_ISO_SMILES>
CC(C)C([C@@H]1CC(CO1)NC(=O)[C@@H]([C@@H]([C@H]([C@H](C(=O)N[C@@H]2[C@@H](CC3=CC=CC=C23)O)OCC4=CC=CC=C4)O)O)OCC5=CC=CC=C5)O
> <PUBCHEM_CACTVS_TPSA>
167
> <PUBCHEM_MONOISOTOPIC_WEIGHT>
662.32033105
> <PUBCHEM_TOTAL_CHARGE>
0
> <PUBCHEM_HEAVY_ATOM_COUNT>
48
> <PUBCHEM_ATOM_DEF_STEREO_COUNT>
7
> <PUBCHEM_ATOM_UDEF_STEREO_COUNT>
2
> <PUBCHEM_BOND_DEF_STEREO_COUNT>
0
> <PUBCHEM_BOND_UDEF_STEREO_COUNT>
0
> <PUBCHEM_ISOTOPIC_ATOM_COUNT>
0
> <PUBCHEM_COMPONENT_COUNT>
1
> <PUBCHEM_CACTVS_TAUTO_COUNT>
-1
> <PUBCHEM_COORDINATE_TYPE>
1
5
255
> <PUBCHEM_BONDANNOTATIONS>
14  10  3
18  11  6
12  15  5
15  2  3
21  23  8
21  31  8
23  32  8
19  3  6
31  33  8
32  34  8
33  34  8
37  39  8
37  40  8
38  41  8
38  42  8
39  43  8
22  4  6
40  44  8
41  45  8
42  46  8
43  47  8
44  47  8
45  48  8
46  48  8
29  5  6
24  6  5
26  7  5
$$$$
