503816
  -OEChem-10302200282D
140145  0     1  0  0  0  0  0999 V2000
    4.2336   -2.4909    0.0000 O   0  0  0  0  0  0  0  0  0  0  0  0
    3.6311   -0.7485    0.0000 O   0  0  0  0  0  0  0  0  0  0  0  0
    4.4316   -0.2833    0.0000 O   0  0  0  0  0  0  0  0  0  0  0  0
    2.9847    1.2252    0.0000 O   0  0  0  0  0  0  0  0  0  0  0  0
    7.0048   -6.2042    0.0000 O   0  0  0  0  0  0  0  0  0  0  0  0
    8.5330    2.1668    0.0000 O   0  0  0  0  0  0  0  0  0  0  0  0
    3.4316   -3.7474    0.0000 O   0  0  0  0  0  0  0  0  0  0  0  0
    4.4265    4.8232    0.0000 O   0  0  0  0  0  0  0  0  0  0  0  0
    4.3403   -7.2807    0.0000 O   0  0  0  0  0  0  0  0  0  0  0  0
    6.3367    6.9194    0.0000 O   0  0  0  0  0  0  0  0  0  0  0  0
    3.6031   -6.6052    0.0000 O   0  0  0  0  0  0  0  0  0  0  0  0
    7.4204    5.5682    0.0000 O   0  0  0  0  0  0  0  0  0  0  0  0
    5.9316   -1.1493    0.0000 N   0  0  0  0  0  0  0  0  0  0  0  0
    4.3709    0.6012    0.0000 N   0  0  0  0  0  0  0  0  0  0  0  0
    4.9316   -2.8814    0.0000 N   0  0  0  0  0  0  0  0  0  0  0  0
    4.2795    3.3099    0.0000 N   0  0  0  0  0  0  0  0  0  0  0  0
    5.2323   -5.5672    0.0000 N   0  0  0  0  0  0  0  0  0  0  0  0
    5.7084    5.3054    0.0000 N   0  0  0  0  0  0  0  0  0  0  0  0
    4.9840   -1.8299    0.0000 C   0  0  1  0  0  0  0  0  0  0  0  0
    4.6197   -0.8986    0.0000 C   0  0  1  0  0  0  0  0  0  0  0  0
    5.9316   -2.1493    0.0000 C   0  0  2  0  0  0  0  0  0  0  0  0
    5.0989   -0.0209    0.0000 C   0  0  2  0  0  0  0  0  0  0  0  0
    7.0048   -2.2042    0.0000 C   0  0  0  0  0  0  0  0  0  0  0  0
    6.0160   -0.2970    0.0000 C   0  0  0  0  0  0  0  0  0  0  0  0
    4.4316   -2.0154    0.0000 C   0  0  2  0  0  0  0  0  0  0  0  0
    3.9234    2.4211    0.0000 C   0  0  2  0  0  0  0  0  0  0  0  0
    4.9316   -1.1493    0.0000 C   0  0  0  0  0  0  0  0  0  0  0  0
    3.9558    1.4641    0.0000 C   0  0  0  0  0  0  0  0  0  0  0  0
    7.0048   -3.2042    0.0000 C   0  0  0  0  0  0  0  0  0  0  0  0
    6.9664   -0.1799    0.0000 C   0  0  0  0  0  0  0  0  0  0  0  0
    3.4316   -2.0154    0.0000 C   0  0  0  0  0  0  0  0  0  0  0  0
    2.9385    2.5939    0.0000 C   0  0  0  0  0  0  0  0  0  0  0  0
    6.1387   -3.7042    0.0000 C   0  0  0  0  0  0  0  0  0  0  0  0
    7.8708   -3.7042    0.0000 C   0  0  0  0  0  0  0  0  0  0  0  0
    6.7179    0.7888    0.0000 C   0  0  0  0  0  0  0  0  0  0  0  0
    7.9294   -0.4489    0.0000 C   0  0  0  0  0  0  0  0  0  0  0  0
    2.7888   -1.2493    0.0000 C   0  0  0  0  0  0  0  0  0  0  0  0
    2.9316   -2.8814    0.0000 C   0  0  0  0  0  0  0  0  0  0  0  0
    2.5957    3.5334    0.0000 C   0  0  0  0  0  0  0  0  0  0  0  0
    2.2964    1.8274    0.0000 C   0  0  0  0  0  0  0  0  0  0  0  0
    4.9316   -4.6134    0.0000 C   0  0  2  0  0  0  0  0  0  0  0  0
    5.8601    4.3170    0.0000 C   0  0  2  0  0  0  0  0  0  0  0  0
    4.4316   -3.7474    0.0000 C   0  0  0  0  0  0  0  0  0  0  0  0
    4.9638    3.9798    0.0000 C   0  0  0  0  0  0  0  0  0  0  0  0
    4.6728   -5.5794    0.0000 C   0  0  0  0  0  0  0  0  0  0  0  0
    6.8163    4.2642    0.0000 C   0  0  0  0  0  0  0  0  0  0  0  0
    6.1387   -4.7042    0.0000 C   0  0  0  0  0  0  0  0  0  0  0  0
    7.8708   -4.7042    0.0000 C   0  0  0  0  0  0  0  0  0  0  0  0
    7.4325    1.4883    0.0000 C   0  0  0  0  0  0  0  0  0  0  0  0
    8.6441    0.2505    0.0000 C   0  0  0  0  0  0  0  0  0  0  0  0
    7.0048   -5.2042    0.0000 C   0  0  0  0  0  0  0  0  0  0  0  0
    8.3956    1.2191    0.0000 C   0  0  0  0  0  0  0  0  0  0  0  0
    5.1728   -6.4454    0.0000 C   0  0  0  0  0  0  0  0  0  0  0  0
    7.6701    3.8306    0.0000 C   0  0  0  0  0  0  0  0  0  0  0  0
    6.1387   -6.7042    0.0000 C   0  0  0  0  0  0  0  0  0  0  0  0
    8.2766    3.0895    0.0000 C   0  0  0  0  0  0  0  0  0  0  0  0
    4.5568   -6.3044    0.0000 C   0  0  0  0  0  0  0  0  0  0  0  0
    6.4885    5.9310    0.0000 C   0  0  0  0  0  0  0  0  0  0  0  0
    3.3866   -7.5814    0.0000 C   0  0  0  0  0  0  0  0  0  0  0  0
    7.1168    7.5451    0.0000 C   0  0  0  0  0  0  0  0  0  0  0  0
    3.1702   -8.5577    0.0000 C   0  0  0  0  0  0  0  0  0  0  0  0
    6.9651    8.5335    0.0000 C   0  0  0  0  0  0  0  0  0  0  0  0
    3.9074   -9.2333    0.0000 C   0  0  0  0  0  0  0  0  0  0  0  0
    2.2165   -8.8585    0.0000 C   0  0  0  0  0  0  0  0  0  0  0  0
    6.0332    8.8963    0.0000 C   0  0  0  0  0  0  0  0  0  0  0  0
    7.7452    9.1591    0.0000 C   0  0  0  0  0  0  0  0  0  0  0  0
    3.6910  -10.2096    0.0000 C   0  0  0  0  0  0  0  0  0  0  0  0
    2.0000   -9.8347    0.0000 C   0  0  0  0  0  0  0  0  0  0  0  0
    5.8814    9.8847    0.0000 C   0  0  0  0  0  0  0  0  0  0  0  0
    7.5934   10.1476    0.0000 C   0  0  0  0  0  0  0  0  0  0  0  0
    2.7373  -10.5103    0.0000 C   0  0  0  0  0  0  0  0  0  0  0  0
    6.6615   10.5103    0.0000 C   0  0  0  0  0  0  0  0  0  0  0  0
    5.1063   -2.4377    0.0000 H   0  0  0  0  0  0  0  0  0  0  0  0
    4.2326   -1.3829    0.0000 H   0  0  0  0  0  0  0  0  0  0  0  0
    5.4358   -1.4589    0.0000 H   0  0  0  0  0  0  0  0  0  0  0  0
    4.2630   -0.1747    0.0000 H   0  0  0  0  0  0  0  0  0  0  0  0
    7.6247   -2.2148    0.0000 H   0  0  0  0  0  0  0  0  0  0  0  0
    7.0259   -1.5846    0.0000 H   0  0  0  0  0  0  0  0  0  0  0  0
    5.6272   -0.7800    0.0000 H   0  0  0  0  0  0  0  0  0  0  0  0
    6.0686    0.3208    0.0000 H   0  0  0  0  0  0  0  0  0  0  0  0
    6.5305   -0.9889    0.0000 H   0  0  0  0  0  0  0  0  0  0  0  0
    3.8798    0.2230    0.0000 H   0  0  0  0  0  0  0  0  0  0  0  0
    4.1216   -2.5523    0.0000 H   0  0  0  0  0  0  0  0  0  0  0  0
    3.6218    2.9628    0.0000 H   0  0  0  0  0  0  0  0  0  0  0  0
    3.6937   -1.4535    0.0000 H   0  0  0  0  0  0  0  0  0  0  0  0
    3.3367    3.0692    0.0000 H   0  0  0  0  0  0  0  0  0  0  0  0
    4.3559   -3.0987    0.0000 H   0  0  0  0  0  0  0  0  0  0  0  0
    3.4052   -0.1711    0.0000 H   0  0  0  0  0  0  0  0  0  0  0  0
    5.5516   -2.8814    0.0000 H   0  0  0  0  0  0  0  0  0  0  0  0
    3.7639    3.6542    0.0000 H   0  0  0  0  0  0  0  0  0  0  0  0
    5.6018   -3.3942    0.0000 H   0  0  0  0  0  0  0  0  0  0  0  0
    8.4077   -3.3942    0.0000 H   0  0  0  0  0  0  0  0  0  0  0  0
    6.1207    0.9556    0.0000 H   0  0  0  0  0  0  0  0  0  0  0  0
    8.0835   -1.0495    0.0000 H   0  0  0  0  0  0  0  0  0  0  0  0
    3.2638   -0.8508    0.0000 H   0  0  0  0  0  0  0  0  0  0  0  0
    2.3903   -0.7744    0.0000 H   0  0  0  0  0  0  0  0  0  0  0  0
    2.3139   -1.6478    0.0000 H   0  0  0  0  0  0  0  0  0  0  0  0
    2.3947   -2.5714    0.0000 H   0  0  0  0  0  0  0  0  0  0  0  0
    2.6216   -3.4183    0.0000 H   0  0  0  0  0  0  0  0  0  0  0  0
    3.4686   -3.1914    0.0000 H   0  0  0  0  0  0  0  0  0  0  0  0
    3.1782    3.7459    0.0000 H   0  0  0  0  0  0  0  0  0  0  0  0
    2.3832    4.1158    0.0000 H   0  0  0  0  0  0  0  0  0  0  0  0
    2.0133    3.3208    0.0000 H   0  0  0  0  0  0  0  0  0  0  0  0
    1.8211    2.2255    0.0000 H   0  0  0  0  0  0  0  0  0  0  0  0
    1.8982    1.3521    0.0000 H   0  0  0  0  0  0  0  0  0  0  0  0
    2.7716    1.4292    0.0000 H   0  0  0  0  0  0  0  0  0  0  0  0
    5.4991   -4.3637    0.0000 H   0  0  0  0  0  0  0  0  0  0  0  0
    6.2767    4.7762    0.0000 H   0  0  0  0  0  0  0  0  0  0  0  0
    4.1359   -5.2694    0.0000 H   0  0  0  0  0  0  0  0  0  0  0  0
    4.2344   -6.0178    0.0000 H   0  0  0  0  0  0  0  0  0  0  0  0
    7.2843    4.6710    0.0000 H   0  0  0  0  0  0  0  0  0  0  0  0
    6.6554    3.6655    0.0000 H   0  0  0  0  0  0  0  0  0  0  0  0
    5.6018   -5.0142    0.0000 H   0  0  0  0  0  0  0  0  0  0  0  0
    8.4077   -5.0142    0.0000 H   0  0  0  0  0  0  0  0  0  0  0  0
    7.2784    2.0888    0.0000 H   0  0  0  0  0  0  0  0  0  0  0  0
    9.2412    0.0836    0.0000 H   0  0  0  0  0  0  0  0  0  0  0  0
    4.5739   -6.6059    0.0000 H   0  0  0  0  0  0  0  0  0  0  0  0
    5.1728   -7.0654    0.0000 H   0  0  0  0  0  0  0  0  0  0  0  0
    8.2623    4.0141    0.0000 H   0  0  0  0  0  0  0  0  0  0  0  0
    7.2815    3.3475    0.0000 H   0  0  0  0  0  0  0  0  0  0  0  0
    5.8287   -7.2412    0.0000 H   0  0  0  0  0  0  0  0  0  0  0  0
    6.5772   -7.1426    0.0000 H   0  0  0  0  0  0  0  0  0  0  0  0
    8.8926    3.0188    0.0000 H   0  0  0  0  0  0  0  0  0  0  0  0
    7.7262    2.8040    0.0000 H   0  0  0  0  0  0  0  0  0  0  0  0
    5.8052   -5.8044    0.0000 H   0  0  0  0  0  0  0  0  0  0  0  0
    5.1306    5.5303    0.0000 H   0  0  0  0  0  0  0  0  0  0  0  0
    3.3057   -6.9667    0.0000 H   0  0  0  0  0  0  0  0  0  0  0  0
    2.7672   -7.5544    0.0000 H   0  0  0  0  0  0  0  0  0  0  0  0
    7.4148    7.0014    0.0000 H   0  0  0  0  0  0  0  0  0  0  0  0
    7.7040    7.7442    0.0000 H   0  0  0  0  0  0  0  0  0  0  0  0
    4.4987   -9.0469    0.0000 H   0  0  0  0  0  0  0  0  0  0  0  0
    1.7594   -8.4396    0.0000 H   0  0  0  0  0  0  0  0  0  0  0  0
    5.5495    8.5084    0.0000 H   0  0  0  0  0  0  0  0  0  0  0  0
    8.3230    8.9342    0.0000 H   0  0  0  0  0  0  0  0  0  0  0  0
    4.1481  -10.6285    0.0000 H   0  0  0  0  0  0  0  0  0  0  0  0
    1.4087  -10.0211    0.0000 H   0  0  0  0  0  0  0  0  0  0  0  0
    5.3036   10.1096    0.0000 H   0  0  0  0  0  0  0  0  0  0  0  0
    8.0771   10.5355    0.0000 H   0  0  0  0  0  0  0  0  0  0  0  0
    2.6031  -11.1156    0.0000 H   0  0  0  0  0  0  0  0  0  0  0  0
    6.5674   11.1231    0.0000 H   0  0  0  0  0  0  0  0  0  0  0  0
 19  1  1  1  0  0  0
  1 87  1  0  0  0  0
 20  2  1  6  0  0  0
  2 88  1  0  0  0  0
  3 27  2  0  0  0  0
  4 28  2  0  0  0  0
  5 51  1  0  0  0  0
  5 55  1  0  0  0  0
  6 52  1  0  0  0  0
  6 56  1  0  0  0  0
  7 43  2  0  0  0  0
  8 44  2  0  0  0  0
  9 57  1  0  0  0  0
  9 59  1  0  0  0  0
 10 58  1  0  0  0  0
 10 60  1  0  0  0  0
 11 57  2  0  0  0  0
 12 58  2  0  0  0  0
 13 21  1  0  0  0  0
 13 27  1  0  0  0  0
 13 81  1  0  0  0  0
 14 22  1  0  0  0  0
 14 28  1  0  0  0  0
 14 82  1  0  0  0  0
 15 25  1  0  0  0  0
 15 43  1  0  0  0  0
 15 89  1  0  0  0  0
 16 26  1  0  0  0  0
 16 44  1  0  0  0  0
 16 90  1  0  0  0  0
 41 17  1  1  0  0  0
 17 57  1  0  0  0  0
 17125  1  0  0  0  0
 42 18  1  1  0  0  0
 18 58  1  0  0  0  0
 18126  1  0  0  0  0
 19 20  1  0  0  0  0
 19 21  1  0  0  0  0
 19 73  1  0  0  0  0
 20 22  1  0  0  0  0
 20 74  1  0  0  0  0
 21 23  1  0  0  0  0
 21 75  1  6  0  0  0
 22 24  1  0  0  0  0
 22 76  1  6  0  0  0
 23 29  1  0  0  0  0
 23 77  1  0  0  0  0
 23 78  1  0  0  0  0
 24 30  1  0  0  0  0
 24 79  1  0  0  0  0
 24 80  1  0  0  0  0
 25 27  1  0  0  0  0
 25 31  1  1  0  0  0
 25 83  1  0  0  0  0
 26 28  1  0  0  0  0
 26 32  1  6  0  0  0
 26 84  1  0  0  0  0
 29 33  2  0  0  0  0
 29 34  1  0  0  0  0
 30 35  2  0  0  0  0
 30 36  1  0  0  0  0
 31 37  1  0  0  0  0
 31 38  1  0  0  0  0
 31 85  1  0  0  0  0
 32 39  1  0  0  0  0
 32 40  1  0  0  0  0
 32 86  1  0  0  0  0
 33 47  1  0  0  0  0
 33 91  1  0  0  0  0
 34 48  2  0  0  0  0
 34 92  1  0  0  0  0
 35 49  1  0  0  0  0
 35 93  1  0  0  0  0
 36 50  2  0  0  0  0
 36 94  1  0  0  0  0
 37 95  1  0  0  0  0
 37 96  1  0  0  0  0
 37 97  1  0  0  0  0
 38 98  1  0  0  0  0
 38 99  1  0  0  0  0
 38100  1  0  0  0  0
 39101  1  0  0  0  0
 39102  1  0  0  0  0
 39103  1  0  0  0  0
 40104  1  0  0  0  0
 40105  1  0  0  0  0
 40106  1  0  0  0  0
 41 43  1  0  0  0  0
 41 45  1  0  0  0  0
 41107  1  0  0  0  0
 42 44  1  0  0  0  0
 42 46  1  0  0  0  0
 42108  1  0  0  0  0
 45 53  1  0  0  0  0
 45109  1  0  0  0  0
 45110  1  0  0  0  0
 46 54  1  0  0  0  0
 46111  1  0  0  0  0
 46112  1  0  0  0  0
 47 51  2  0  0  0  0
 47113  1  0  0  0  0
 48 51  1  0  0  0  0
 48114  1  0  0  0  0
 49 52  2  0  0  0  0
 49115  1  0  0  0  0
 50 52  1  0  0  0  0
 50116  1  0  0  0  0
 53 55  1  0  0  0  0
 53117  1  0  0  0  0
 53118  1  0  0  0  0
 54 56  1  0  0  0  0
 54119  1  0  0  0  0
 54120  1  0  0  0  0
 55121  1  0  0  0  0
 55122  1  0  0  0  0
 56123  1  0  0  0  0
 56124  1  0  0  0  0
 59 61  1  0  0  0  0
 59127  1  0  0  0  0
 59128  1  0  0  0  0
 60 62  1  0  0  0  0
 60129  1  0  0  0  0
 60130  1  0  0  0  0
 61 63  2  0  0  0  0
 61 64  1  0  0  0  0
 62 65  2  0  0  0  0
 62 66  1  0  0  0  0
 63 67  1  0  0  0  0
 63131  1  0  0  0  0
 64 68  2  0  0  0  0
 64132  1  0  0  0  0
 65 69  1  0  0  0  0
 65133  1  0  0  0  0
 66 70  2  0  0  0  0
 66134  1  0  0  0  0
 67 71  2  0  0  0  0
 67135  1  0  0  0  0
 68 71  1  0  0  0  0
 68136  1  0  0  0  0
 69 72  2  0  0  0  0
 69137  1  0  0  0  0
 70 72  1  0  0  0  0
 70138  1  0  0  0  0
 71139  1  0  0  0  0
 72140  1  0  0  0  0
M  END
> <PUBCHEM_COMPOUND_CID>
503816
> <PUBCHEM_COMPOUND_CANONICALIZED>
1
> <PUBCHEM_CACTVS_COMPLEXITY>
1590
> <PUBCHEM_CACTVS_HBOND_ACCEPTOR>
12
> <PUBCHEM_CACTVS_HBOND_DONOR>
8
> <PUBCHEM_CACTVS_ROTATABLE_BOND>
13
> <PUBCHEM_CACTVS_SUBSKEYS>
AAADcfB/vAAAAAAAAAAAAAAAAAAAAAAAAAAwYMGAAAAAAAABVAAAHgAQCAAADTzhmAYyDoLABgCIAiFSGAACCAAgIAAIiIGOCIkPdjKEsTueeCCm1hGZqAe41PIOIAAAAAAAAABAAAAAAAAAAAAAAAAAAA==
> <PUBCHEM_IUPAC_OPENEYE_NAME>
benzyl N-[(6S,9S,12S)-12-[(1R,2R)-2-[(6S,9S,12S)-6-(benzyloxycarbonylamino)-9-isopropyl-7,10-dioxo-2-oxa-8,11-diazabicyclo[12.2.2]octadeca-1(16),14,17-trien-12-yl]-1,2-dihydroxy-ethyl]-9-isopropyl-7,10-dioxo-2-oxa-8,11-diazabicyclo[12.2.2]octadeca-1(16),14,17-trien-6-yl]carbamate
> <PUBCHEM_IUPAC_CAS_NAME>
N-[(6S,9S,12S)-12-[(1R,2R)-2-[(6S,9S,12S)-7,10-dioxo-6-(phenylmethoxycarbonylamino)-9-propan-2-yl-2-oxa-8,11-diazabicyclo[12.2.2]octadeca-1(16),14,17-trien-12-yl]-1,2-dihydroxyethyl]-7,10-dioxo-9-propan-2-yl-2-oxa-8,11-diazabicyclo[12.2.2]octadeca-1(16),14,17-trien-6-yl]carbamic acid (phenylmethyl) ester
> <PUBCHEM_IUPAC_NAME_MARKUP>
benzyl <I>N</I>-[(6<I>S</I>,9<I>S</I>,12<I>S</I>)-12-[(1<I>R</I>,2<I>R</I>)-2-[(6<I>S</I>,9<I>S</I>,12<I>S</I>)-7,10-dioxo-6-(phenylmethoxycarbonylamino)-9-propan-2-yl-2-oxa-8,11-diazabicyclo[12.2.2]octadeca-1(16),14,17-trien-12-yl]-1,2-dihydroxyethyl]-7,10-dioxo-9-propan-2-yl-2-oxa-8,11-diazabicyclo[12.2.2]octadeca-1(16),14,17-trien-6-yl]carbamate
> <PUBCHEM_IUPAC_NAME>
benzyl N-[(6S,9S,12S)-12-[(1R,2R)-2-[(6S,9S,12S)-7,10-dioxo-6-(phenylmethoxycarbonylamino)-9-propan-2-yl-2-oxa-8,11-diazabicyclo[12.2.2]octadeca-1(16),14,17-trien-12-yl]-1,2-dihydroxyethyl]-7,10-dioxo-9-propan-2-yl-2-oxa-8,11-diazabicyclo[12.2.2]octadeca-1(16),14,17-trien-6-yl]carbamate
> <PUBCHEM_IUPAC_SYSTEMATIC_NAME>
(phenylmethyl) N-[(6S,9S,12S)-12-[(1R,2R)-2-[(6S,9S,12S)-7,10-bis(oxidanylidene)-6-(phenylmethoxycarbonylamino)-9-propan-2-yl-2-oxa-8,11-diazabicyclo[12.2.2]octadeca-1(16),14,17-trien-12-yl]-1,2-bis(oxidanyl)ethyl]-7,10-bis(oxidanylidene)-9-propan-2-yl-2-oxa-8,11-diazabicyclo[12.2.2]octadeca-1(16),14,17-trien-6-yl]carbamate
> <PUBCHEM_IUPAC_TRADITIONAL_NAME>
N-[(6S,9S,12S)-12-[(1R,2R)-2-[(6S,9S,12S)-6-(benzyloxycarbonylamino)-9-isopropyl-7,10-diketo-2-oxa-8,11-diazabicyclo[12.2.2]octadeca-1(16),14,17-trien-12-yl]-1,2-dihydroxy-ethyl]-9-isopropyl-7,10-diketo-2-oxa-8,11-diazabicyclo[12.2.2]octadeca-1(16),14,17-trien-6-yl]carbamic acid benzyl ester
> <PUBCHEM_IUPAC_INCHI>
InChI=1S/C54H68N6O12/c1-33(2)45-51(65)55-43(29-35-19-23-39(24-20-35)69-27-11-17-41(49(63)59-45)57-53(67)71-31-37-13-7-5-8-14-37)47(61)48(62)44-30-36-21-25-40(26-22-36)70-28-12-18-42(50(64)60-46(34(3)4)52(66)56-44)58-54(68)72-32-38-15-9-6-10-16-38/h5-10,13-16,19-26,33-34,41-48,61-62H,11-12,17-18,27-32H2,1-4H3,(H,55,65)(H,56,66)(H,57,67)(H,58,68)(H,59,63)(H,60,64)/t41-,42-,43-,44-,45-,46-,47+,48+/m0/s1
> <PUBCHEM_IUPAC_INCHIKEY>
SBSLUOISTYMBRU-PEJOYMIESA-N
> <PUBCHEM_XLOGP3_AA>
6.6
> <PUBCHEM_EXACT_MASS>
992.48952163
> <PUBCHEM_MOLECULAR_FORMULA>
C54H68N6O12
> <PUBCHEM_MOLECULAR_WEIGHT>
993.1
> <PUBCHEM_OPENEYE_CAN_SMILES>
CC(C)C1C(=O)NC(CC2=CC=C(C=C2)OCCCC(C(=O)N1)NC(=O)OCC3=CC=CC=C3)C(C(C4CC5=CC=C(C=C5)OCCCC(C(=O)NC(C(=O)N4)C(C)C)NC(=O)OCC6=CC=CC=C6)O)O
> <PUBCHEM_OPENEYE_ISO_SMILES>
CC(C)[C@H]1C(=O)N[C@@H](CC2=CC=C(C=C2)OCCC[C@@H](C(=O)N1)NC(=O)OCC3=CC=CC=C3)[C@H]([C@@H]([C@@H]4CC5=CC=C(C=C5)OCCC[C@@H](C(=O)N[C@H](C(=O)N4)C(C)C)NC(=O)OCC6=CC=CC=C6)O)O
> <PUBCHEM_CACTVS_TPSA>
252
> <PUBCHEM_MONOISOTOPIC_WEIGHT>
992.48952163
> <PUBCHEM_TOTAL_CHARGE>
0
> <PUBCHEM_HEAVY_ATOM_COUNT>
72
> <PUBCHEM_ATOM_DEF_STEREO_COUNT>
8
> <PUBCHEM_ATOM_UDEF_STEREO_COUNT>
0
> <PUBCHEM_BOND_DEF_STEREO_COUNT>
0
> <PUBCHEM_BOND_UDEF_STEREO_COUNT>
0
> <PUBCHEM_ISOTOPIC_ATOM_COUNT>
0
> <PUBCHEM_COMPONENT_COUNT>
1
> <PUBCHEM_CACTVS_TAUTO_COUNT>
-1
> <PUBCHEM_COORDINATE_TYPE>
1
5
255
> <PUBCHEM_BONDANNOTATIONS>
19  1  5
41  17  5
42  18  5
20  2  6
21  75  6
22  76  6
25  31  5
26  32  6
29  33  8
29  34  8
30  35  8
30  36  8
33  47  8
34  48  8
35  49  8
36  50  8
47  51  8
48  51  8
49  52  8
50  52  8
61  63  8
61  64  8
62  65  8
62  66  8
63  67  8
64  68  8
65  69  8
66  70  8
67  71  8
68  71  8
69  72  8
70  72  8
$$$$
