503817
  -OEChem-10302200282D
113116  0     1  0  0  0  0  0999 V2000
    2.0000   -6.4354    0.0000 F   0  0  0  0  0  0  0  0  0  0  0  0
    7.1962   -0.4354    0.0000 O   0  0  0  0  0  0  0  0  0  0  0  0
    7.1962   -1.4353    0.0000 O   0  0  0  0  0  0  0  0  0  0  0  0
    8.9282    1.5647    0.0000 O   0  0  0  0  0  0  0  0  0  0  0  0
    6.0937    2.0858    0.0000 O   0  0  0  0  0  0  0  0  0  0  0  0
    8.0622   -4.9354    0.0000 O   0  0  0  0  0  0  0  0  0  0  0  0
    4.3772    5.0288    0.0000 O   0  0  0  0  0  0  0  0  0  0  0  0
    8.0398    6.9483    0.0000 O   0  0  0  0  0  0  0  0  0  0  0  0
    8.0622   -5.9354    0.0000 O   0  0  0  0  0  0  0  0  0  0  0  0
    8.9282   -1.4353    0.0000 N   0  0  0  0  0  0  0  0  0  0  0  0
    7.1962   -3.4354    0.0000 N   0  0  0  0  0  0  0  0  0  0  0  0
    7.1961    1.5647    0.0000 N   0  0  0  0  0  0  0  0  0  0  0  0
    5.3784    3.0517    0.0000 N   0  0  0  0  0  0  0  0  0  0  0  0
    4.8913    6.1046    0.0000 N   0  0  0  0  0  0  0  0  0  0  0  0
    6.3301   -5.9354    0.0000 N   0  0  0  0  0  0  0  0  0  0  0  0
    8.9282   -0.4353    0.0000 C   0  0  2  0  0  0  0  0  0  0  0  0
    8.0622   -2.9354    0.0000 C   0  0  1  0  0  0  0  0  0  0  0  0
    8.9282   -3.4354    0.0000 C   0  0  0  0  0  0  0  0  0  0  0  0
    8.0622    0.0647    0.0000 C   0  0  2  0  0  0  0  0  0  0  0  0
    9.7942    0.0647    0.0000 C   0  0  0  0  0  0  0  0  0  0  0  0
    8.0622   -1.9354    0.0000 C   0  0  0  0  0  0  0  0  0  0  0  0
    7.1961    2.5646    0.0000 C   0  0  1  0  0  0  0  0  0  0  0  0
    4.8913    3.8954    0.0000 C   0  0  1  0  0  0  0  0  0  0  0  0
    3.8989    3.7724    0.0000 C   0  0  0  0  0  0  0  0  0  0  0  0
    8.0622    1.0647    0.0000 C   0  0  0  0  0  0  0  0  0  0  0  0
    8.0398    3.0517    0.0000 C   0  0  0  0  0  0  0  0  0  0  0  0
    8.9282   -4.4354    0.0000 C   0  0  0  0  0  0  0  0  0  0  0  0
    9.7942   -2.9354    0.0000 C   0  0  0  0  0  0  0  0  0  0  0  0
    6.3525    3.0517    0.0000 C   0  0  0  0  0  0  0  0  0  0  0  0
   10.6602   -0.4353    0.0000 C   0  0  0  0  0  0  0  0  0  0  0  0
    6.3301   -4.9354    0.0000 C   0  0  2  0  0  0  0  0  0  0  0  0
    7.1962   -4.4354    0.0000 C   0  0  0  0  0  0  0  0  0  0  0  0
    5.3771    5.0433    0.0000 C   0  0  0  0  0  0  0  0  0  0  0  0
    8.0398    4.0259    0.0000 C   0  0  0  0  0  0  0  0  0  0  0  0
    3.5092    2.8515    0.0000 C   0  0  0  0  0  0  0  0  0  0  0  0
    3.2962    4.5704    0.0000 C   0  0  0  0  0  0  0  0  0  0  0  0
    5.4641   -4.4354    0.0000 C   0  0  0  0  0  0  0  0  0  0  0  0
   11.5263    0.0647    0.0000 C   0  0  0  0  0  0  0  0  0  0  0  0
   10.6602   -1.4353    0.0000 C   0  0  0  0  0  0  0  0  0  0  0  0
    5.3784    6.9483    0.0000 C   0  0  0  0  0  0  0  0  0  0  0  0
    7.1961    4.5129    0.0000 C   0  0  0  0  0  0  0  0  0  0  0  0
    8.8834    4.5129    0.0000 C   0  0  0  0  0  0  0  0  0  0  0  0
    6.3525    6.9483    0.0000 C   0  0  0  0  0  0  0  0  0  0  0  0
    4.5981   -4.9354    0.0000 C   0  0  0  0  0  0  0  0  0  0  0  0
   12.3923   -0.4353    0.0000 C   0  0  0  0  0  0  0  0  0  0  0  0
   11.5263   -1.9354    0.0000 C   0  0  0  0  0  0  0  0  0  0  0  0
    7.1961    7.4354    0.0000 C   0  0  0  0  0  0  0  0  0  0  0  0
    8.0398    5.9741    0.0000 C   0  0  0  0  0  0  0  0  0  0  0  0
    7.1961    5.4871    0.0000 C   0  0  0  0  0  0  0  0  0  0  0  0
    8.8834    5.4871    0.0000 C   0  0  0  0  0  0  0  0  0  0  0  0
   12.3923   -1.4353    0.0000 C   0  0  0  0  0  0  0  0  0  0  0  0
    7.1962   -6.4354    0.0000 C   0  0  0  0  0  0  0  0  0  0  0  0
    4.5981   -5.9354    0.0000 C   0  0  0  0  0  0  0  0  0  0  0  0
    3.7320   -4.4354    0.0000 C   0  0  0  0  0  0  0  0  0  0  0  0
    3.7320   -6.4354    0.0000 C   0  0  0  0  0  0  0  0  0  0  0  0
    2.8660   -4.9354    0.0000 C   0  0  0  0  0  0  0  0  0  0  0  0
    7.1962   -7.4354    0.0000 C   0  0  0  0  0  0  0  0  0  0  0  0
    2.8660   -5.9354    0.0000 C   0  0  0  0  0  0  0  0  0  0  0  0
    9.4651   -0.7453    0.0000 H   0  0  0  0  0  0  0  0  0  0  0  0
    7.5252   -2.6254    0.0000 H   0  0  0  0  0  0  0  0  0  0  0  0
    9.4651   -3.7454    0.0000 H   0  0  0  0  0  0  0  0  0  0  0  0
    7.5252    0.3746    0.0000 H   0  0  0  0  0  0  0  0  0  0  0  0
   10.1927    0.5396    0.0000 H   0  0  0  0  0  0  0  0  0  0  0  0
    9.3957    0.5396    0.0000 H   0  0  0  0  0  0  0  0  0  0  0  0
    9.4651   -1.7454    0.0000 H   0  0  0  0  0  0  0  0  0  0  0  0
    6.6592    2.2546    0.0000 H   0  0  0  0  0  0  0  0  0  0  0  0
    4.6150    3.3403    0.0000 H   0  0  0  0  0  0  0  0  0  0  0  0
    3.2836    3.6962    0.0000 H   0  0  0  0  0  0  0  0  0  0  0  0
    6.6592   -3.1254    0.0000 H   0  0  0  0  0  0  0  0  0  0  0  0
    8.2518    2.4691    0.0000 H   0  0  0  0  0  0  0  0  0  0  0  0
    8.6504    3.1594    0.0000 H   0  0  0  0  0  0  0  0  0  0  0  0
    6.6592    1.2546    0.0000 H   0  0  0  0  0  0  0  0  0  0  0  0
    8.3082   -4.4354    0.0000 H   0  0  0  0  0  0  0  0  0  0  0  0
    8.9282   -5.0554    0.0000 H   0  0  0  0  0  0  0  0  0  0  0  0
    9.5482   -4.4354    0.0000 H   0  0  0  0  0  0  0  0  0  0  0  0
   10.1042   -3.4723    0.0000 H   0  0  0  0  0  0  0  0  0  0  0  0
   10.3312   -2.6254    0.0000 H   0  0  0  0  0  0  0  0  0  0  0  0
    9.4842   -2.3984    0.0000 H   0  0  0  0  0  0  0  0  0  0  0  0
    5.0684    2.5148    0.0000 H   0  0  0  0  0  0  0  0  0  0  0  0
    6.8671   -5.2454    0.0000 H   0  0  0  0  0  0  0  0  0  0  0  0
    2.9382    3.0931    0.0000 H   0  0  0  0  0  0  0  0  0  0  0  0
    3.2675    2.2805    0.0000 H   0  0  0  0  0  0  0  0  0  0  0  0
    4.0801    2.6098    0.0000 H   0  0  0  0  0  0  0  0  0  0  0  0
    3.7910    4.9441    0.0000 H   0  0  0  0  0  0  0  0  0  0  0  0
    2.9226    5.0652    0.0000 H   0  0  0  0  0  0  0  0  0  0  0  0
    2.8015    4.1968    0.0000 H   0  0  0  0  0  0  0  0  0  0  0  0
    6.6592   -0.1254    0.0000 H   0  0  0  0  0  0  0  0  0  0  0  0
    5.8626   -3.9604    0.0000 H   0  0  0  0  0  0  0  0  0  0  0  0
    5.0656   -3.9604    0.0000 H   0  0  0  0  0  0  0  0  0  0  0  0
   11.5263    0.6847    0.0000 H   0  0  0  0  0  0  0  0  0  0  0  0
   10.1233   -1.7454    0.0000 H   0  0  0  0  0  0  0  0  0  0  0  0
    4.2741    6.1630    0.0000 H   0  0  0  0  0  0  0  0  0  0  0  0
    5.4860    7.5589    0.0000 H   0  0  0  0  0  0  0  0  0  0  0  0
    4.7958    7.1603    0.0000 H   0  0  0  0  0  0  0  0  0  0  0  0
    5.7932   -6.2454    0.0000 H   0  0  0  0  0  0  0  0  0  0  0  0
    6.6592    4.2029    0.0000 H   0  0  0  0  0  0  0  0  0  0  0  0
    9.4203    4.2029    0.0000 H   0  0  0  0  0  0  0  0  0  0  0  0
    6.1405    6.3657    0.0000 H   0  0  0  0  0  0  0  0  0  0  0  0
    6.1920    7.5472    0.0000 H   0  0  0  0  0  0  0  0  0  0  0  0
   12.9292   -0.1253    0.0000 H   0  0  0  0  0  0  0  0  0  0  0  0
   11.5263   -2.5553    0.0000 H   0  0  0  0  0  0  0  0  0  0  0  0
    7.5947    7.9103    0.0000 H   0  0  0  0  0  0  0  0  0  0  0  0
    6.7976    7.9103    0.0000 H   0  0  0  0  0  0  0  0  0  0  0  0
    6.6592    5.7971    0.0000 H   0  0  0  0  0  0  0  0  0  0  0  0
    9.4203    5.7971    0.0000 H   0  0  0  0  0  0  0  0  0  0  0  0
   12.9292   -1.7453    0.0000 H   0  0  0  0  0  0  0  0  0  0  0  0
    5.1350   -6.2454    0.0000 H   0  0  0  0  0  0  0  0  0  0  0  0
    3.7320   -3.8154    0.0000 H   0  0  0  0  0  0  0  0  0  0  0  0
    3.7320   -7.0554    0.0000 H   0  0  0  0  0  0  0  0  0  0  0  0
    2.3291   -4.6254    0.0000 H   0  0  0  0  0  0  0  0  0  0  0  0
    6.5762   -7.4354    0.0000 H   0  0  0  0  0  0  0  0  0  0  0  0
    7.1962   -8.0554    0.0000 H   0  0  0  0  0  0  0  0  0  0  0  0
    7.8162   -7.4354    0.0000 H   0  0  0  0  0  0  0  0  0  0  0  0
  1 58  1  0  0  0  0
 19  2  1  1  0  0  0
  2 87  1  0  0  0  0
  3 21  2  0  0  0  0
  4 25  2  0  0  0  0
  5 29  2  0  0  0  0
  6 32  2  0  0  0  0
  7 33  2  0  0  0  0
  8 47  1  0  0  0  0
  8 48  1  0  0  0  0
  9 52  2  0  0  0  0
 16 10  1  6  0  0  0
 10 21  1  0  0  0  0
 10 65  1  0  0  0  0
 17 11  1  6  0  0  0
 11 32  1  0  0  0  0
 11 69  1  0  0  0  0
 22 12  1  6  0  0  0
 12 25  1  0  0  0  0
 12 72  1  0  0  0  0
 13 23  1  0  0  0  0
 13 29  1  0  0  0  0
 13 79  1  0  0  0  0
 14 33  1  0  0  0  0
 14 40  1  0  0  0  0
 14 92  1  0  0  0  0
 31 15  1  1  0  0  0
 15 52  1  0  0  0  0
 15 95  1  0  0  0  0
 16 19  1  0  0  0  0
 16 20  1  0  0  0  0
 16 59  1  0  0  0  0
 17 18  1  0  0  0  0
 17 21  1  0  0  0  0
 17 60  1  0  0  0  0
 18 27  1  0  0  0  0
 18 28  1  0  0  0  0
 18 61  1  0  0  0  0
 19 25  1  0  0  0  0
 19 62  1  0  0  0  0
 20 30  1  0  0  0  0
 20 63  1  0  0  0  0
 20 64  1  0  0  0  0
 22 26  1  0  0  0  0
 22 29  1  0  0  0  0
 22 66  1  0  0  0  0
 23 24  1  1  0  0  0
 23 33  1  0  0  0  0
 23 67  1  0  0  0  0
 24 35  1  0  0  0  0
 24 36  1  0  0  0  0
 24 68  1  0  0  0  0
 26 34  1  0  0  0  0
 26 70  1  0  0  0  0
 26 71  1  0  0  0  0
 27 73  1  0  0  0  0
 27 74  1  0  0  0  0
 27 75  1  0  0  0  0
 28 76  1  0  0  0  0
 28 77  1  0  0  0  0
 28 78  1  0  0  0  0
 30 38  2  0  0  0  0
 30 39  1  0  0  0  0
 31 32  1  0  0  0  0
 31 37  1  0  0  0  0
 31 80  1  0  0  0  0
 34 41  2  0  0  0  0
 34 42  1  0  0  0  0
 35 81  1  0  0  0  0
 35 82  1  0  0  0  0
 35 83  1  0  0  0  0
 36 84  1  0  0  0  0
 36 85  1  0  0  0  0
 36 86  1  0  0  0  0
 37 44  1  0  0  0  0
 37 88  1  0  0  0  0
 37 89  1  0  0  0  0
 38 45  1  0  0  0  0
 38 90  1  0  0  0  0
 39 46  2  0  0  0  0
 39 91  1  0  0  0  0
 40 43  1  0  0  0  0
 40 93  1  0  0  0  0
 40 94  1  0  0  0  0
 41 49  1  0  0  0  0
 41 96  1  0  0  0  0
 42 50  2  0  0  0  0
 42 97  1  0  0  0  0
 43 47  1  0  0  0  0
 43 98  1  0  0  0  0
 43 99  1  0  0  0  0
 44 53  2  0  0  0  0
 44 54  1  0  0  0  0
 45 51  2  0  0  0  0
 45100  1  0  0  0  0
 46 51  1  0  0  0  0
 46101  1  0  0  0  0
 47102  1  0  0  0  0
 47103  1  0  0  0  0
 48 49  2  0  0  0  0
 48 50  1  0  0  0  0
 49104  1  0  0  0  0
 50105  1  0  0  0  0
 51106  1  0  0  0  0
 52 57  1  0  0  0  0
 53 55  1  0  0  0  0
 53107  1  0  0  0  0
 54 56  2  0  0  0  0
 54108  1  0  0  0  0
 55 58  2  0  0  0  0
 55109  1  0  0  0  0
 56 58  1  0  0  0  0
 56110  1  0  0  0  0
 57111  1  0  0  0  0
 57112  1  0  0  0  0
 57113  1  0  0  0  0
M  END
> <PUBCHEM_COMPOUND_CID>
503817
> <PUBCHEM_COMPOUND_CANONICALIZED>
1
> <PUBCHEM_CACTVS_COMPLEXITY>
1360
> <PUBCHEM_CACTVS_HBOND_ACCEPTOR>
9
> <PUBCHEM_CACTVS_HBOND_DONOR>
7
> <PUBCHEM_CACTVS_ROTATABLE_BOND>
14
> <PUBCHEM_CACTVS_SUBSKEYS>
AAADcfB/vQAAAAAAAAAAAAAAAAAAAAAAAAAwYMAAAAAAAAABUAAAHwAQCAAADTzhmA4yBoLABgCIAiFSEAICCAAgIAAIiIHOCIgOdjqE8TuWeCCm1hGYqAeYyKCOIAAAAAAAAABAAAAAAAAAAAAAAAAAAA==
> <PUBCHEM_IUPAC_OPENEYE_NAME>
(2S)-2-[[(2S)-2-acetamido-3-(4-fluorophenyl)propanoyl]amino]-N-[(1S,2R)-1-benzyl-2-hydroxy-3-[[(8S,11S)-8-isopropyl-7,10-dioxo-2-oxa-6,9-diazabicyclo[11.2.2]heptadeca-1(15),13,16-trien-11-yl]amino]-3-oxo-propyl]-3-methyl-butanamide
> <PUBCHEM_IUPAC_CAS_NAME>
(2S)-2-[[(2S)-2-acetamido-3-(4-fluorophenyl)-1-oxopropyl]amino]-N-[(2S,3R)-4-[[(8S,11S)-7,10-dioxo-8-propan-2-yl-2-oxa-6,9-diazabicyclo[11.2.2]heptadeca-1(15),13,16-trien-11-yl]amino]-3-hydroxy-4-oxo-1-phenylbutan-2-yl]-3-methylbutanamide
> <PUBCHEM_IUPAC_NAME_MARKUP>
(2<I>S</I>)-2-[[(2<I>S</I>)-2-acetamido-3-(4-fluorophenyl)propanoyl]amino]-<I>N</I>-[(2<I>S</I>,3<I>R</I>)-4-[[(8<I>S</I>,11<I>S</I>)-7,10-dioxo-8-propan-2-yl-2-oxa-6,9-diazabicyclo[11.2.2]heptadeca-1(15),13,16-trien-11-yl]amino]-3-hydroxy-4-oxo-1-phenylbutan-2-yl]-3-methylbutanamide
> <PUBCHEM_IUPAC_NAME>
(2S)-2-[[(2S)-2-acetamido-3-(4-fluorophenyl)propanoyl]amino]-N-[(2S,3R)-4-[[(8S,11S)-7,10-dioxo-8-propan-2-yl-2-oxa-6,9-diazabicyclo[11.2.2]heptadeca-1(15),13,16-trien-11-yl]amino]-3-hydroxy-4-oxo-1-phenylbutan-2-yl]-3-methylbutanamide
> <PUBCHEM_IUPAC_SYSTEMATIC_NAME>
(2S)-2-[[(2S)-2-acetamido-3-(4-fluorophenyl)propanoyl]amino]-N-[(2S,3R)-4-[[(8S,11S)-7,10-bis(oxidanylidene)-8-propan-2-yl-2-oxa-6,9-diazabicyclo[11.2.2]heptadeca-1(15),13,16-trien-11-yl]amino]-3-oxidanyl-4-oxidanylidene-1-phenyl-butan-2-yl]-3-methyl-butanamide
> <PUBCHEM_IUPAC_TRADITIONAL_NAME>
(2S)-2-[[(2S)-2-acetamido-3-(4-fluorophenyl)propanoyl]amino]-N-[(1S,2R)-1-benzyl-2-hydroxy-3-[[(8S,11S)-8-isopropyl-7,10-diketo-2-oxa-6,9-diazabicyclo[11.2.2]heptadeca-1(15),13,16-trien-11-yl]amino]-3-keto-propyl]-3-methyl-butyramide
> <PUBCHEM_IUPAC_INCHI>
InChI=1S/C43H55FN6O8/c1-25(2)36-41(55)45-20-9-21-58-32-18-14-30(15-19-32)24-35(40(54)49-36)48-43(57)38(52)33(22-28-10-7-6-8-11-28)47-42(56)37(26(3)4)50-39(53)34(46-27(5)51)23-29-12-16-31(44)17-13-29/h6-8,10-19,25-26,33-38,52H,9,20-24H2,1-5H3,(H,45,55)(H,46,51)(H,47,56)(H,48,57)(H,49,54)(H,50,53)/t33-,34-,35-,36-,37-,38+/m0/s1
> <PUBCHEM_IUPAC_INCHIKEY>
JIPBSVRSUHAWGG-RHIIWVEJSA-N
> <PUBCHEM_XLOGP3_AA>
4.6
> <PUBCHEM_EXACT_MASS>
802.40654090
> <PUBCHEM_MOLECULAR_FORMULA>
C43H55FN6O8
> <PUBCHEM_MOLECULAR_WEIGHT>
802.9
> <PUBCHEM_OPENEYE_CAN_SMILES>
CC(C)C1C(=O)NCCCOC2=CC=C(CC(C(=O)N1)NC(=O)C(C(CC3=CC=CC=C3)NC(=O)C(C(C)C)NC(=O)C(CC4=CC=C(C=C4)F)NC(=O)C)O)C=C2
> <PUBCHEM_OPENEYE_ISO_SMILES>
CC(C)[C@H]1C(=O)NCCCOC2=CC=C(C[C@@H](C(=O)N1)NC(=O)[C@@H]([C@H](CC3=CC=CC=C3)NC(=O)[C@H](C(C)C)NC(=O)[C@H](CC4=CC=C(C=C4)F)NC(=O)C)O)C=C2
> <PUBCHEM_CACTVS_TPSA>
204
> <PUBCHEM_MONOISOTOPIC_WEIGHT>
802.40654090
> <PUBCHEM_TOTAL_CHARGE>
0
> <PUBCHEM_HEAVY_ATOM_COUNT>
58
> <PUBCHEM_ATOM_DEF_STEREO_COUNT>
6
> <PUBCHEM_ATOM_UDEF_STEREO_COUNT>
0
> <PUBCHEM_BOND_DEF_STEREO_COUNT>
0
> <PUBCHEM_BOND_UDEF_STEREO_COUNT>
0
> <PUBCHEM_ISOTOPIC_ATOM_COUNT>
0
> <PUBCHEM_COMPONENT_COUNT>
1
> <PUBCHEM_CACTVS_TAUTO_COUNT>
-1
> <PUBCHEM_COORDINATE_TYPE>
1
5
255
> <PUBCHEM_BONDANNOTATIONS>
16  10  6
17  11  6
22  12  6
31  15  5
19  2  5
23  24  5
30  38  8
30  39  8
34  41  8
34  42  8
38  45  8
39  46  8
41  49  8
42  50  8
44  53  8
44  54  8
45  51  8
46  51  8
48  49  8
48  50  8
53  55  8
54  56  8
55  58  8
56  58  8
$$$$
