503805
  -OEChem-10302200282D
 92 96  0     1  0  0  0  0  0999 V2000
   10.1484    2.7812    0.0000 O   0  0  0  0  0  0  0  0  0  0  0  0
    6.2619   -5.2191    0.0000 O   0  0  0  0  0  0  0  0  0  0  0  0
    5.6103   -1.5628    0.0000 O   0  0  0  0  0  0  0  0  0  0  0  0
    9.2136   -1.6884    0.0000 O   0  0  0  0  0  0  0  0  0  0  0  0
    7.9244   -2.8452    0.0000 O   0  0  0  0  0  0  0  0  0  0  0  0
    6.8994   -0.4060    0.0000 O   0  0  0  0  0  0  0  0  0  0  0  0
   11.8062    4.0516    0.0000 O   0  0  0  0  0  0  0  0  0  0  0  0
    6.6353   -4.0019    0.0000 O   0  0  0  0  0  0  0  0  0  0  0  0
    8.1886    0.7507    0.0000 O   0  0  0  0  0  0  0  0  0  0  0  0
    4.9889   -3.4638    0.0000 N   0  0  0  0  0  0  0  0  0  0  0  0
    9.8349    0.2126    0.0000 N   0  0  0  0  0  0  0  0  0  0  0  0
    4.6783   -4.4143    0.0000 C   0  0  2  0  0  0  0  0  0  0  0  0
    5.2619   -5.2191    0.0000 C   0  0  1  0  0  0  0  0  0  0  0  0
   10.1456    1.1631    0.0000 C   0  0  3  0  0  0  0  0  0  0  0  0
   11.0972    1.4705    0.0000 C   0  0  0  0  0  0  0  0  0  0  0  0
    4.6783   -6.0238    0.0000 C   0  0  0  0  0  0  0  0  0  0  0  0
    3.7320   -4.7191    0.0000 C   0  0  0  0  0  0  0  0  0  0  0  0
   11.0989    2.4705    0.0000 C   0  0  1  0  0  0  0  0  0  0  0  0
    3.7320   -5.7191    0.0000 C   0  0  0  0  0  0  0  0  0  0  0  0
    9.5592    1.9732    0.0000 C   0  0  0  0  0  0  0  0  0  0  0  0
    7.2566   -2.1009    0.0000 C   0  0  2  0  0  0  0  0  0  0  0  0
    7.5673   -1.1503    0.0000 C   0  0  2  0  0  0  0  0  0  0  0  0
    6.2781   -2.3071    0.0000 C   0  0  2  0  0  0  0  0  0  0  0  0
    8.5458   -0.9441    0.0000 C   0  0  2  0  0  0  0  0  0  0  0  0
   11.9090    3.0569    0.0000 C   0  0  0  0  0  0  0  0  0  0  0  0
    5.9674   -3.2576    0.0000 C   0  0  0  0  0  0  0  0  0  0  0  0
    8.8564    0.0064    0.0000 C   0  0  0  0  0  0  0  0  0  0  0  0
    2.8660   -4.2191    0.0000 C   0  0  0  0  0  0  0  0  0  0  0  0
    2.8660   -6.2191    0.0000 C   0  0  0  0  0  0  0  0  0  0  0  0
    2.0000   -4.7191    0.0000 C   0  0  0  0  0  0  0  0  0  0  0  0
    2.0000   -5.7191    0.0000 C   0  0  0  0  0  0  0  0  0  0  0  0
    5.9209   -0.6123    0.0000 C   0  0  0  0  0  0  0  0  0  0  0  0
   10.1921   -1.4822    0.0000 C   0  0  0  0  0  0  0  0  0  0  0  0
   12.6162    4.6380    0.0000 C   0  0  0  0  0  0  0  0  0  0  0  0
    5.2531    0.1320    0.0000 C   0  0  0  0  0  0  0  0  0  0  0  0
   10.8600   -2.2265    0.0000 C   0  0  0  0  0  0  0  0  0  0  0  0
   12.5134    5.6327    0.0000 C   0  0  0  0  0  0  0  0  0  0  0  0
    4.2746   -0.0742    0.0000 C   0  0  0  0  0  0  0  0  0  0  0  0
    5.5637    1.0826    0.0000 C   0  0  0  0  0  0  0  0  0  0  0  0
   11.8385   -2.0203    0.0000 C   0  0  0  0  0  0  0  0  0  0  0  0
   10.5493   -3.1770    0.0000 C   0  0  0  0  0  0  0  0  0  0  0  0
    3.6067    0.6701    0.0000 C   0  0  0  0  0  0  0  0  0  0  0  0
    4.8959    1.8269    0.0000 C   0  0  0  0  0  0  0  0  0  0  0  0
   12.5063   -2.7646    0.0000 C   0  0  0  0  0  0  0  0  0  0  0  0
   11.2171   -3.9213    0.0000 C   0  0  0  0  0  0  0  0  0  0  0  0
   13.3234    6.2191    0.0000 C   0  0  0  0  0  0  0  0  0  0  0  0
    3.9174    1.6206    0.0000 C   0  0  0  0  0  0  0  0  0  0  0  0
   12.1957   -3.7151    0.0000 C   0  0  0  0  0  0  0  0  0  0  0  0
    5.2908   -4.3181    0.0000 H   0  0  0  0  0  0  0  0  0  0  0  0
    5.5436   -5.7714    0.0000 H   0  0  0  0  0  0  0  0  0  0  0  0
   10.5833    0.7240    0.0000 H   0  0  0  0  0  0  0  0  0  0  0  0
   11.2251    0.8638    0.0000 H   0  0  0  0  0  0  0  0  0  0  0  0
   11.7139    1.5342    0.0000 H   0  0  0  0  0  0  0  0  0  0  0  0
    4.4272   -6.5907    0.0000 H   0  0  0  0  0  0  0  0  0  0  0  0
    5.2156   -6.3330    0.0000 H   0  0  0  0  0  0  0  0  0  0  0  0
   11.0030    3.0830    0.0000 H   0  0  0  0  0  0  0  0  0  0  0  0
    9.0992    2.3888    0.0000 H   0  0  0  0  0  0  0  0  0  0  0  0
    9.0978    1.5591    0.0000 H   0  0  0  0  0  0  0  0  0  0  0  0
    4.5749   -3.0024    0.0000 H   0  0  0  0  0  0  0  0  0  0  0  0
    7.0640   -2.6902    0.0000 H   0  0  0  0  0  0  0  0  0  0  0  0
    6.9606   -1.2782    0.0000 H   0  0  0  0  0  0  0  0  0  0  0  0
    5.6714   -2.4349    0.0000 H   0  0  0  0  0  0  0  0  0  0  0  0
    8.3532   -1.5334    0.0000 H   0  0  0  0  0  0  0  0  0  0  0  0
   10.2490   -0.2488    0.0000 H   0  0  0  0  0  0  0  0  0  0  0  0
   12.1798    2.4992    0.0000 H   0  0  0  0  0  0  0  0  0  0  0  0
   12.5052    3.2268    0.0000 H   0  0  0  0  0  0  0  0  0  0  0  0
    2.8660   -3.5991    0.0000 H   0  0  0  0  0  0  0  0  0  0  0  0
    2.8660   -6.8391    0.0000 H   0  0  0  0  0  0  0  0  0  0  0  0
    6.5719   -5.7560    0.0000 H   0  0  0  0  0  0  0  0  0  0  0  0
    1.4631   -4.4091    0.0000 H   0  0  0  0  0  0  0  0  0  0  0  0
    1.4631   -6.0291    0.0000 H   0  0  0  0  0  0  0  0  0  0  0  0
    8.5311   -2.7173    0.0000 H   0  0  0  0  0  0  0  0  0  0  0  0
    7.0920    0.1833    0.0000 H   0  0  0  0  0  0  0  0  0  0  0  0
    6.4678   -0.9043    0.0000 H   0  0  0  0  0  0  0  0  0  0  0  0
    6.3035   -0.1243    0.0000 H   0  0  0  0  0  0  0  0  0  0  0  0
   10.7185   -1.1546    0.0000 H   0  0  0  0  0  0  0  0  0  0  0  0
    9.9609   -0.9069    0.0000 H   0  0  0  0  0  0  0  0  0  0  0  0
   12.8870    4.0803    0.0000 H   0  0  0  0  0  0  0  0  0  0  0  0
   13.2125    4.8078    0.0000 H   0  0  0  0  0  0  0  0  0  0  0  0
   11.9474    5.8858    0.0000 H   0  0  0  0  0  0  0  0  0  0  0  0
    4.0820   -0.6635    0.0000 H   0  0  0  0  0  0  0  0  0  0  0  0
    6.1704    1.2104    0.0000 H   0  0  0  0  0  0  0  0  0  0  0  0
   12.0311   -1.4310    0.0000 H   0  0  0  0  0  0  0  0  0  0  0  0
    9.9426   -3.3049    0.0000 H   0  0  0  0  0  0  0  0  0  0  0  0
    3.0000    0.5423    0.0000 H   0  0  0  0  0  0  0  0  0  0  0  0
    5.0885    2.4162    0.0000 H   0  0  0  0  0  0  0  0  0  0  0  0
   13.1130   -2.6367    0.0000 H   0  0  0  0  0  0  0  0  0  0  0  0
   11.0245   -4.5106    0.0000 H   0  0  0  0  0  0  0  0  0  0  0  0
   13.8894    5.9659    0.0000 H   0  0  0  0  0  0  0  0  0  0  0  0
   13.2597    6.8358    0.0000 H   0  0  0  0  0  0  0  0  0  0  0  0
    3.5033    2.0821    0.0000 H   0  0  0  0  0  0  0  0  0  0  0  0
   12.6097   -4.1766    0.0000 H   0  0  0  0  0  0  0  0  0  0  0  0
  1 18  1  0  0  0  0
  1 20  1  0  0  0  0
 13  2  1  6  0  0  0
  2 69  1  0  0  0  0
 23  3  1  6  0  0  0
  3 32  1  0  0  0  0
 24  4  1  6  0  0  0
  4 33  1  0  0  0  0
 21  5  1  1  0  0  0
  5 72  1  0  0  0  0
 22  6  1  1  0  0  0
  6 73  1  0  0  0  0
  7 25  1  0  0  0  0
  7 34  1  0  0  0  0
  8 26  2  0  0  0  0
  9 27  2  0  0  0  0
 12 10  1  6  0  0  0
 10 26  1  0  0  0  0
 10 59  1  0  0  0  0
 11 14  1  0  0  0  0
 11 27  1  0  0  0  0
 11 64  1  0  0  0  0
 12 13  1  0  0  0  0
 12 17  1  0  0  0  0
 12 49  1  0  0  0  0
 13 16  1  0  0  0  0
 13 50  1  0  0  0  0
 14 15  1  0  0  0  0
 14 20  1  0  0  0  0
 14 51  1  0  0  0  0
 15 18  1  0  0  0  0
 15 52  1  0  0  0  0
 15 53  1  0  0  0  0
 16 19  1  0  0  0  0
 16 54  1  0  0  0  0
 16 55  1  0  0  0  0
 17 19  1  0  0  0  0
 17 28  2  0  0  0  0
 18 25  1  6  0  0  0
 18 56  1  0  0  0  0
 19 29  2  0  0  0  0
 20 57  1  0  0  0  0
 20 58  1  0  0  0  0
 21 22  1  0  0  0  0
 21 23  1  0  0  0  0
 21 60  1  0  0  0  0
 22 24  1  0  0  0  0
 22 61  1  0  0  0  0
 23 26  1  0  0  0  0
 23 62  1  0  0  0  0
 24 27  1  0  0  0  0
 24 63  1  0  0  0  0
 25 65  1  0  0  0  0
 25 66  1  0  0  0  0
 28 30  1  0  0  0  0
 28 67  1  0  0  0  0
 29 31  1  0  0  0  0
 29 68  1  0  0  0  0
 30 31  2  0  0  0  0
 30 70  1  0  0  0  0
 31 71  1  0  0  0  0
 32 35  1  0  0  0  0
 32 74  1  0  0  0  0
 32 75  1  0  0  0  0
 33 36  1  0  0  0  0
 33 76  1  0  0  0  0
 33 77  1  0  0  0  0
 34 37  1  0  0  0  0
 34 78  1  0  0  0  0
 34 79  1  0  0  0  0
 35 38  2  0  0  0  0
 35 39  1  0  0  0  0
 36 40  2  0  0  0  0
 36 41  1  0  0  0  0
 37 46  2  0  0  0  0
 37 80  1  0  0  0  0
 38 42  1  0  0  0  0
 38 81  1  0  0  0  0
 39 43  2  0  0  0  0
 39 82  1  0  0  0  0
 40 44  1  0  0  0  0
 40 83  1  0  0  0  0
 41 45  2  0  0  0  0
 41 84  1  0  0  0  0
 42 47  2  0  0  0  0
 42 85  1  0  0  0  0
 43 47  1  0  0  0  0
 43 86  1  0  0  0  0
 44 48  2  0  0  0  0
 44 87  1  0  0  0  0
 45 48  1  0  0  0  0
 45 88  1  0  0  0  0
 46 89  1  0  0  0  0
 46 90  1  0  0  0  0
 47 91  1  0  0  0  0
 48 92  1  0  0  0  0
M  END
> <PUBCHEM_COMPOUND_CID>
503805
> <PUBCHEM_COMPOUND_CANONICALIZED>
1
> <PUBCHEM_CACTVS_COMPLEXITY>
1000
> <PUBCHEM_CACTVS_HBOND_ACCEPTOR>
9
> <PUBCHEM_CACTVS_HBOND_DONOR>
5
> <PUBCHEM_CACTVS_ROTATABLE_BOND>
17
> <PUBCHEM_CACTVS_SUBSKEYS>
AAADcfB/PAAAAAAAAAAAAAAAAAAAAaIAAAAwYMAAAAAAAGABUAAAHgAQCAAADDzhmAYwAILABgCIAiFSEAKCAAAgAAAIiIFIDIgLNjaAsR2HcAhn9gGbqAf6/KpOgAAAAAAQAAAAAAAAACAAAKAACQgAAA==
> <PUBCHEM_IUPAC_OPENEYE_NAME>
(2R,3R,4R,5R)-N-[(5S)-5-(allyloxymethyl)tetrahydrofuran-3-yl]-2,5-dibenzyloxy-3,4-dihydroxy-N'-[(1S,2R)-2-hydroxyindan-1-yl]hexanediamide
> <PUBCHEM_IUPAC_CAS_NAME>
(2R,3R,4R,5R)-3,4-dihydroxy-N-[(1S,2R)-2-hydroxy-2,3-dihydro-1H-inden-1-yl]-2,5-bis(phenylmethoxy)-N'-[(5S)-5-(prop-2-enoxymethyl)-3-oxolanyl]hexanediamide
> <PUBCHEM_IUPAC_NAME_MARKUP>
(2<I>R</I>,3<I>R</I>,4<I>R</I>,5<I>R</I>)-3,4-dihydroxy-<I>N</I>-[(1<I>S</I>,2<I>R</I>)-2-hydroxy-2,3-dihydro-1<I>H</I>-inden-1-yl]-2,5-bis(phenylmethoxy)-<I>N</I>&apos;-[(5<I>S</I>)-5-(prop-2-enoxymethyl)oxolan-3-yl]hexanediamide
> <PUBCHEM_IUPAC_NAME>
(2R,3R,4R,5R)-3,4-dihydroxy-N-[(1S,2R)-2-hydroxy-2,3-dihydro-1H-inden-1-yl]-2,5-bis(phenylmethoxy)-N'-[(5S)-5-(prop-2-enoxymethyl)oxolan-3-yl]hexanediamide
> <PUBCHEM_IUPAC_SYSTEMATIC_NAME>
(2R,3R,4R,5R)-3,4-bis(oxidanyl)-N-[(1S,2R)-2-oxidanyl-2,3-dihydro-1H-inden-1-yl]-2,5-bis(phenylmethoxy)-N'-[(5S)-5-(prop-2-enoxymethyl)oxolan-3-yl]hexanediamide
> <PUBCHEM_IUPAC_TRADITIONAL_NAME>
(2R,3R,4R,5R)-N-[(5S)-5-(allyloxymethyl)tetrahydrofuran-3-yl]-2,5-dibenzoxy-3,4-dihydroxy-N'-[(1S,2R)-2-hydroxyindan-1-yl]adipamide
> <PUBCHEM_IUPAC_INCHI>
InChI=1S/C37H44N2O9/c1-2-17-45-23-28-19-27(22-46-28)38-36(43)34(47-20-24-11-5-3-6-12-24)32(41)33(42)35(48-21-25-13-7-4-8-14-25)37(44)39-31-29-16-10-9-15-26(29)18-30(31)40/h2-16,27-28,30-35,40-42H,1,17-23H2,(H,38,43)(H,39,44)/t27?,28-,30+,31-,32+,33+,34+,35+/m0/s1
> <PUBCHEM_IUPAC_INCHIKEY>
SLMILWXBSVGQNP-XRANDLKASA-N
> <PUBCHEM_XLOGP3_AA>
3.1
> <PUBCHEM_EXACT_MASS>
660.30468099
> <PUBCHEM_MOLECULAR_FORMULA>
C37H44N2O9
> <PUBCHEM_MOLECULAR_WEIGHT>
660.8
> <PUBCHEM_OPENEYE_CAN_SMILES>
C=CCOCC1CC(CO1)NC(=O)C(C(C(C(C(=O)NC2C(CC3=CC=CC=C23)O)OCC4=CC=CC=C4)O)O)OCC5=CC=CC=C5
> <PUBCHEM_OPENEYE_ISO_SMILES>
C=CCOC[C@@H]1CC(CO1)NC(=O)[C@@H]([C@@H]([C@H]([C@H](C(=O)N[C@@H]2[C@@H](CC3=CC=CC=C23)O)OCC4=CC=CC=C4)O)O)OCC5=CC=CC=C5
> <PUBCHEM_CACTVS_TPSA>
156
> <PUBCHEM_MONOISOTOPIC_WEIGHT>
660.30468099
> <PUBCHEM_TOTAL_CHARGE>
0
> <PUBCHEM_HEAVY_ATOM_COUNT>
48
> <PUBCHEM_ATOM_DEF_STEREO_COUNT>
7
> <PUBCHEM_ATOM_UDEF_STEREO_COUNT>
1
> <PUBCHEM_BOND_DEF_STEREO_COUNT>
0
> <PUBCHEM_BOND_UDEF_STEREO_COUNT>
0
> <PUBCHEM_ISOTOPIC_ATOM_COUNT>
0
> <PUBCHEM_COMPONENT_COUNT>
1
> <PUBCHEM_CACTVS_TAUTO_COUNT>
-1
> <PUBCHEM_COORDINATE_TYPE>
1
5
255
> <PUBCHEM_BONDANNOTATIONS>
12  10  6
14  11  3
17  19  8
17  28  8
18  25  6
19  29  8
13  2  6
28  30  8
29  31  8
23  3  6
30  31  8
35  38  8
35  39  8
36  40  8
36  41  8
38  42  8
39  43  8
24  4  6
40  44  8
41  45  8
42  47  8
43  47  8
44  48  8
45  48  8
21  5  5
22  6  5
$$$$
