503808
  -OEChem-10302200282D
 88 92  0     1  0  0  0  0  0999 V2000
   10.1484    3.6831    0.0000 O   0  0  0  0  0  0  0  0  0  0  0  0
    6.2619   -4.3171    0.0000 O   0  0  0  0  0  0  0  0  0  0  0  0
   11.8062    4.9536    0.0000 O   0  0  0  0  0  0  0  0  0  0  0  0
    9.2136   -0.7865    0.0000 O   0  0  0  0  0  0  0  0  0  0  0  0
    5.6103   -0.6608    0.0000 O   0  0  0  0  0  0  0  0  0  0  0  0
    6.8994    0.4959    0.0000 O   0  0  0  0  0  0  0  0  0  0  0  0
    7.9244   -1.9432    0.0000 O   0  0  0  0  0  0  0  0  0  0  0  0
    8.1886    1.6527    0.0000 O   0  0  0  0  0  0  0  0  0  0  0  0
    6.6353   -3.0999    0.0000 O   0  0  0  0  0  0  0  0  0  0  0  0
    9.8349    1.1146    0.0000 N   0  0  0  0  0  0  0  0  0  0  0  0
    4.9889   -2.5619    0.0000 N   0  0  0  0  0  0  0  0  0  0  0  0
   10.1456    2.0651    0.0000 C   0  0  3  0  0  0  0  0  0  0  0  0
   11.0972    2.3725    0.0000 C   0  0  0  0  0  0  0  0  0  0  0  0
   11.0989    3.3725    0.0000 C   0  0  1  0  0  0  0  0  0  0  0  0
    4.6783   -3.5124    0.0000 C   0  0  2  0  0  0  0  0  0  0  0  0
    5.2619   -4.3171    0.0000 C   0  0  1  0  0  0  0  0  0  0  0  0
    9.5592    2.8751    0.0000 C   0  0  0  0  0  0  0  0  0  0  0  0
    4.6783   -5.1218    0.0000 C   0  0  0  0  0  0  0  0  0  0  0  0
    3.7320   -3.8171    0.0000 C   0  0  0  0  0  0  0  0  0  0  0  0
   11.9090    3.9588    0.0000 C   0  0  3  0  0  0  0  0  0  0  0  0
    3.7320   -4.8171    0.0000 C   0  0  0  0  0  0  0  0  0  0  0  0
    7.5673   -0.2484    0.0000 C   0  0  2  0  0  0  0  0  0  0  0  0
    7.2566   -1.1989    0.0000 C   0  0  2  0  0  0  0  0  0  0  0  0
    8.5458   -0.0422    0.0000 C   0  0  2  0  0  0  0  0  0  0  0  0
    6.2781   -1.4051    0.0000 C   0  0  2  0  0  0  0  0  0  0  0  0
    8.8564    0.9084    0.0000 C   0  0  0  0  0  0  0  0  0  0  0  0
    5.9674   -2.3556    0.0000 C   0  0  0  0  0  0  0  0  0  0  0  0
    2.8660   -3.3171    0.0000 C   0  0  0  0  0  0  0  0  0  0  0  0
   12.8218    3.5505    0.0000 C   0  0  0  0  0  0  0  0  0  0  0  0
    2.8660   -5.3171    0.0000 C   0  0  0  0  0  0  0  0  0  0  0  0
    2.0000   -3.8171    0.0000 C   0  0  0  0  0  0  0  0  0  0  0  0
    2.0000   -4.8171    0.0000 C   0  0  0  0  0  0  0  0  0  0  0  0
   10.1921   -0.5802    0.0000 C   0  0  0  0  0  0  0  0  0  0  0  0
    5.9209    0.2897    0.0000 C   0  0  0  0  0  0  0  0  0  0  0  0
   10.8600   -1.3245    0.0000 C   0  0  0  0  0  0  0  0  0  0  0  0
    5.2531    1.0340    0.0000 C   0  0  0  0  0  0  0  0  0  0  0  0
   10.5493   -2.2751    0.0000 C   0  0  0  0  0  0  0  0  0  0  0  0
   11.8385   -1.1183    0.0000 C   0  0  0  0  0  0  0  0  0  0  0  0
    4.2746    0.8278    0.0000 C   0  0  0  0  0  0  0  0  0  0  0  0
    5.5637    1.9845    0.0000 C   0  0  0  0  0  0  0  0  0  0  0  0
   11.2171   -3.0194    0.0000 C   0  0  0  0  0  0  0  0  0  0  0  0
   12.5063   -1.8626    0.0000 C   0  0  0  0  0  0  0  0  0  0  0  0
    3.6067    1.5721    0.0000 C   0  0  0  0  0  0  0  0  0  0  0  0
    4.8959    2.7288    0.0000 C   0  0  0  0  0  0  0  0  0  0  0  0
   12.1957   -2.8131    0.0000 C   0  0  0  0  0  0  0  0  0  0  0  0
    3.9174    2.5226    0.0000 C   0  0  0  0  0  0  0  0  0  0  0  0
   10.5833    1.6259    0.0000 H   0  0  0  0  0  0  0  0  0  0  0  0
   11.2251    1.7658    0.0000 H   0  0  0  0  0  0  0  0  0  0  0  0
   11.7139    2.4362    0.0000 H   0  0  0  0  0  0  0  0  0  0  0  0
   11.0030    3.9850    0.0000 H   0  0  0  0  0  0  0  0  0  0  0  0
    5.2908   -3.4162    0.0000 H   0  0  0  0  0  0  0  0  0  0  0  0
    5.5436   -4.8694    0.0000 H   0  0  0  0  0  0  0  0  0  0  0  0
    9.0992    3.2908    0.0000 H   0  0  0  0  0  0  0  0  0  0  0  0
    9.0978    2.4611    0.0000 H   0  0  0  0  0  0  0  0  0  0  0  0
    4.4272   -5.6888    0.0000 H   0  0  0  0  0  0  0  0  0  0  0  0
    5.2156   -5.4311    0.0000 H   0  0  0  0  0  0  0  0  0  0  0  0
   12.4112    4.3224    0.0000 H   0  0  0  0  0  0  0  0  0  0  0  0
   10.2490    0.6531    0.0000 H   0  0  0  0  0  0  0  0  0  0  0  0
    6.9606   -0.3762    0.0000 H   0  0  0  0  0  0  0  0  0  0  0  0
    7.0640   -1.7882    0.0000 H   0  0  0  0  0  0  0  0  0  0  0  0
    8.3532   -0.6315    0.0000 H   0  0  0  0  0  0  0  0  0  0  0  0
    4.5749   -2.1004    0.0000 H   0  0  0  0  0  0  0  0  0  0  0  0
    5.6714   -1.5330    0.0000 H   0  0  0  0  0  0  0  0  0  0  0  0
    2.8660   -2.6971    0.0000 H   0  0  0  0  0  0  0  0  0  0  0  0
   12.5686    2.9846    0.0000 H   0  0  0  0  0  0  0  0  0  0  0  0
   13.3878    3.2974    0.0000 H   0  0  0  0  0  0  0  0  0  0  0  0
   13.0750    4.1165    0.0000 H   0  0  0  0  0  0  0  0  0  0  0  0
    2.8660   -5.9371    0.0000 H   0  0  0  0  0  0  0  0  0  0  0  0
    6.5719   -4.8540    0.0000 H   0  0  0  0  0  0  0  0  0  0  0  0
    1.4631   -3.5071    0.0000 H   0  0  0  0  0  0  0  0  0  0  0  0
    1.4631   -5.1271    0.0000 H   0  0  0  0  0  0  0  0  0  0  0  0
   12.3084    5.3171    0.0000 H   0  0  0  0  0  0  0  0  0  0  0  0
    7.0920    1.0852    0.0000 H   0  0  0  0  0  0  0  0  0  0  0  0
    8.5311   -1.8154    0.0000 H   0  0  0  0  0  0  0  0  0  0  0  0
   10.7185   -0.2526    0.0000 H   0  0  0  0  0  0  0  0  0  0  0  0
    9.9609   -0.0050    0.0000 H   0  0  0  0  0  0  0  0  0  0  0  0
    6.4678   -0.0023    0.0000 H   0  0  0  0  0  0  0  0  0  0  0  0
    6.3035    0.7776    0.0000 H   0  0  0  0  0  0  0  0  0  0  0  0
    9.9426   -2.4029    0.0000 H   0  0  0  0  0  0  0  0  0  0  0  0
   12.0311   -0.5290    0.0000 H   0  0  0  0  0  0  0  0  0  0  0  0
    4.0820    0.2385    0.0000 H   0  0  0  0  0  0  0  0  0  0  0  0
    6.1704    2.1124    0.0000 H   0  0  0  0  0  0  0  0  0  0  0  0
   11.0245   -3.6087    0.0000 H   0  0  0  0  0  0  0  0  0  0  0  0
   13.1130   -1.7348    0.0000 H   0  0  0  0  0  0  0  0  0  0  0  0
    3.0000    1.4442    0.0000 H   0  0  0  0  0  0  0  0  0  0  0  0
    5.0885    3.3182    0.0000 H   0  0  0  0  0  0  0  0  0  0  0  0
   12.6097   -3.2746    0.0000 H   0  0  0  0  0  0  0  0  0  0  0  0
    3.5033    2.9841    0.0000 H   0  0  0  0  0  0  0  0  0  0  0  0
  1 14  1  0  0  0  0
  1 17  1  0  0  0  0
 16  2  1  6  0  0  0
  2 69  1  0  0  0  0
  3 20  1  0  0  0  0
  3 72  1  0  0  0  0
 24  4  1  6  0  0  0
  4 33  1  0  0  0  0
 25  5  1  6  0  0  0
  5 34  1  0  0  0  0
 22  6  1  1  0  0  0
  6 73  1  0  0  0  0
 23  7  1  1  0  0  0
  7 74  1  0  0  0  0
  8 26  2  0  0  0  0
  9 27  2  0  0  0  0
 10 12  1  0  0  0  0
 10 26  1  0  0  0  0
 10 58  1  0  0  0  0
 15 11  1  6  0  0  0
 11 27  1  0  0  0  0
 11 62  1  0  0  0  0
 12 13  1  0  0  0  0
 12 17  1  0  0  0  0
 12 47  1  0  0  0  0
 13 14  1  0  0  0  0
 13 48  1  0  0  0  0
 13 49  1  0  0  0  0
 14 20  1  6  0  0  0
 14 50  1  0  0  0  0
 15 16  1  0  0  0  0
 15 19  1  0  0  0  0
 15 51  1  0  0  0  0
 16 18  1  0  0  0  0
 16 52  1  0  0  0  0
 17 53  1  0  0  0  0
 17 54  1  0  0  0  0
 18 21  1  0  0  0  0
 18 55  1  0  0  0  0
 18 56  1  0  0  0  0
 19 21  1  0  0  0  0
 19 28  2  0  0  0  0
 20 29  1  0  0  0  0
 20 57  1  0  0  0  0
 21 30  2  0  0  0  0
 22 23  1  0  0  0  0
 22 24  1  0  0  0  0
 22 59  1  0  0  0  0
 23 25  1  0  0  0  0
 23 60  1  0  0  0  0
 24 26  1  0  0  0  0
 24 61  1  0  0  0  0
 25 27  1  0  0  0  0
 25 63  1  0  0  0  0
 28 31  1  0  0  0  0
 28 64  1  0  0  0  0
 29 65  1  0  0  0  0
 29 66  1  0  0  0  0
 29 67  1  0  0  0  0
 30 32  1  0  0  0  0
 30 68  1  0  0  0  0
 31 32  2  0  0  0  0
 31 70  1  0  0  0  0
 32 71  1  0  0  0  0
 33 35  1  0  0  0  0
 33 75  1  0  0  0  0
 33 76  1  0  0  0  0
 34 36  1  0  0  0  0
 34 77  1  0  0  0  0
 34 78  1  0  0  0  0
 35 37  2  0  0  0  0
 35 38  1  0  0  0  0
 36 39  2  0  0  0  0
 36 40  1  0  0  0  0
 37 41  1  0  0  0  0
 37 79  1  0  0  0  0
 38 42  2  0  0  0  0
 38 80  1  0  0  0  0
 39 43  1  0  0  0  0
 39 81  1  0  0  0  0
 40 44  2  0  0  0  0
 40 82  1  0  0  0  0
 41 45  2  0  0  0  0
 41 83  1  0  0  0  0
 42 45  1  0  0  0  0
 42 84  1  0  0  0  0
 43 46  2  0  0  0  0
 43 85  1  0  0  0  0
 44 46  1  0  0  0  0
 44 86  1  0  0  0  0
 45 87  1  0  0  0  0
 46 88  1  0  0  0  0
M  END
> <PUBCHEM_COMPOUND_CID>
503808
> <PUBCHEM_COMPOUND_CANONICALIZED>
1
> <PUBCHEM_CACTVS_COMPLEXITY>
958
> <PUBCHEM_CACTVS_HBOND_ACCEPTOR>
9
> <PUBCHEM_CACTVS_HBOND_DONOR>
6
> <PUBCHEM_CACTVS_ROTATABLE_BOND>
14
> <PUBCHEM_CACTVS_SUBSKEYS>
AAADcfB/PAAAAAAAAAAAAAAAAAAAAaIAAAAwYMAAAAAAAGABUAAAHgAQCAAADDzhmAYyAILABgCIAiFSEAKCAAAgAAAIiIFIDIgLNjaAsR2HcAhn9gGbqAf6/KZOgAAAAAAQAAAAAAAAACAAAKAACQgAAA==
> <PUBCHEM_IUPAC_OPENEYE_NAME>
(2R,3R,4R,5R)-2,5-dibenzyloxy-3,4-dihydroxy-N-[(5S)-5-(1-hydroxyethyl)tetrahydrofuran-3-yl]-N'-[(1S,2R)-2-hydroxyindan-1-yl]hexanediamide
> <PUBCHEM_IUPAC_CAS_NAME>
(2R,3R,4R,5R)-3,4-dihydroxy-N-[(1S,2R)-2-hydroxy-2,3-dihydro-1H-inden-1-yl]-N'-[(5S)-5-(1-hydroxyethyl)-3-oxolanyl]-2,5-bis(phenylmethoxy)hexanediamide
> <PUBCHEM_IUPAC_NAME_MARKUP>
(2<I>R</I>,3<I>R</I>,4<I>R</I>,5<I>R</I>)-3,4-dihydroxy-<I>N</I>-[(1<I>S</I>,2<I>R</I>)-2-hydroxy-2,3-dihydro-1<I>H</I>-inden-1-yl]-<I>N</I>&apos;-[(5<I>S</I>)-5-(1-hydroxyethyl)oxolan-3-yl]-2,5-bis(phenylmethoxy)hexanediamide
> <PUBCHEM_IUPAC_NAME>
(2R,3R,4R,5R)-3,4-dihydroxy-N-[(1S,2R)-2-hydroxy-2,3-dihydro-1H-inden-1-yl]-N'-[(5S)-5-(1-hydroxyethyl)oxolan-3-yl]-2,5-bis(phenylmethoxy)hexanediamide
> <PUBCHEM_IUPAC_SYSTEMATIC_NAME>
(2R,3R,4R,5R)-N-[(5S)-5-(1-hydroxyethyl)oxolan-3-yl]-3,4-bis(oxidanyl)-N'-[(1S,2R)-2-oxidanyl-2,3-dihydro-1H-inden-1-yl]-2,5-bis(phenylmethoxy)hexanediamide
> <PUBCHEM_IUPAC_TRADITIONAL_NAME>
(2R,3R,4R,5R)-2,5-dibenzoxy-3,4-dihydroxy-N-[(5S)-5-(1-hydroxyethyl)tetrahydrofuran-3-yl]-N'-[(1S,2R)-2-hydroxyindan-1-yl]adipamide
> <PUBCHEM_IUPAC_INCHI>
InChI=1S/C35H42N2O9/c1-21(38)28-17-25(20-44-28)36-34(42)32(45-18-22-10-4-2-5-11-22)30(40)31(41)33(46-19-23-12-6-3-7-13-23)35(43)37-29-26-15-9-8-14-24(26)16-27(29)39/h2-15,21,25,27-33,38-41H,16-20H2,1H3,(H,36,42)(H,37,43)/t21?,25?,27-,28+,29+,30-,31-,32-,33-/m1/s1
> <PUBCHEM_IUPAC_INCHIKEY>
CWXDOPVDQZADFF-KUUMMENKSA-N
> <PUBCHEM_XLOGP3_AA>
2.4
> <PUBCHEM_EXACT_MASS>
634.28903092
> <PUBCHEM_MOLECULAR_FORMULA>
C35H42N2O9
> <PUBCHEM_MOLECULAR_WEIGHT>
634.7
> <PUBCHEM_OPENEYE_CAN_SMILES>
CC(C1CC(CO1)NC(=O)C(C(C(C(C(=O)NC2C(CC3=CC=CC=C23)O)OCC4=CC=CC=C4)O)O)OCC5=CC=CC=C5)O
> <PUBCHEM_OPENEYE_ISO_SMILES>
CC([C@@H]1CC(CO1)NC(=O)[C@@H]([C@@H]([C@H]([C@H](C(=O)N[C@@H]2[C@@H](CC3=CC=CC=C23)O)OCC4=CC=CC=C4)O)O)OCC5=CC=CC=C5)O
> <PUBCHEM_CACTVS_TPSA>
167
> <PUBCHEM_MONOISOTOPIC_WEIGHT>
634.28903092
> <PUBCHEM_TOTAL_CHARGE>
0
> <PUBCHEM_HEAVY_ATOM_COUNT>
46
> <PUBCHEM_ATOM_DEF_STEREO_COUNT>
7
> <PUBCHEM_ATOM_UDEF_STEREO_COUNT>
2
> <PUBCHEM_BOND_DEF_STEREO_COUNT>
0
> <PUBCHEM_BOND_UDEF_STEREO_COUNT>
0
> <PUBCHEM_ISOTOPIC_ATOM_COUNT>
0
> <PUBCHEM_COMPONENT_COUNT>
1
> <PUBCHEM_CACTVS_TAUTO_COUNT>
-1
> <PUBCHEM_COORDINATE_TYPE>
1
5
255
> <PUBCHEM_BONDANNOTATIONS>
12  10  3
15  11  6
14  20  6
19  21  8
19  28  8
16  2  6
21  30  8
28  31  8
20  3  3
30  32  8
31  32  8
35  37  8
35  38  8
36  39  8
36  40  8
37  41  8
38  42  8
39  43  8
24  4  6
40  44  8
41  45  8
42  45  8
43  46  8
44  46  8
25  5  6
22  6  5
23  7  5
$$$$
