503806
  -OEChem-10302200282D
 88 92  0     1  0  0  0  0  0999 V2000
   10.1484    3.5717    0.0000 O   0  0  0  0  0  0  0  0  0  0  0  0
    6.2619   -4.4285    0.0000 O   0  0  0  0  0  0  0  0  0  0  0  0
    5.6103   -0.7722    0.0000 O   0  0  0  0  0  0  0  0  0  0  0  0
    9.2136   -0.8979    0.0000 O   0  0  0  0  0  0  0  0  0  0  0  0
    7.9244   -2.0546    0.0000 O   0  0  0  0  0  0  0  0  0  0  0  0
    6.8994    0.3845    0.0000 O   0  0  0  0  0  0  0  0  0  0  0  0
   11.8062    4.8421    0.0000 O   0  0  0  0  0  0  0  0  0  0  0  0
    6.6353   -3.2114    0.0000 O   0  0  0  0  0  0  0  0  0  0  0  0
    8.1886    1.5412    0.0000 O   0  0  0  0  0  0  0  0  0  0  0  0
    4.9889   -2.6733    0.0000 N   0  0  0  0  0  0  0  0  0  0  0  0
    9.8349    1.0032    0.0000 N   0  0  0  0  0  0  0  0  0  0  0  0
    4.6783   -3.6238    0.0000 C   0  0  2  0  0  0  0  0  0  0  0  0
    5.2619   -4.4285    0.0000 C   0  0  1  0  0  0  0  0  0  0  0  0
   10.1456    1.9537    0.0000 C   0  0  3  0  0  0  0  0  0  0  0  0
    4.6783   -5.2333    0.0000 C   0  0  0  0  0  0  0  0  0  0  0  0
   11.0972    2.2611    0.0000 C   0  0  0  0  0  0  0  0  0  0  0  0
    3.7320   -3.9285    0.0000 C   0  0  0  0  0  0  0  0  0  0  0  0
   11.0989    3.2610    0.0000 C   0  0  1  0  0  0  0  0  0  0  0  0
    3.7320   -4.9285    0.0000 C   0  0  0  0  0  0  0  0  0  0  0  0
    9.5592    2.7637    0.0000 C   0  0  0  0  0  0  0  0  0  0  0  0
    7.2566   -1.3103    0.0000 C   0  0  2  0  0  0  0  0  0  0  0  0
    7.5673   -0.3598    0.0000 C   0  0  2  0  0  0  0  0  0  0  0  0
    6.2781   -1.5165    0.0000 C   0  0  2  0  0  0  0  0  0  0  0  0
    8.5458   -0.1536    0.0000 C   0  0  2  0  0  0  0  0  0  0  0  0
    5.9674   -2.4670    0.0000 C   0  0  0  0  0  0  0  0  0  0  0  0
   11.9090    3.8474    0.0000 C   0  0  0  0  0  0  0  0  0  0  0  0
    8.8564    0.7969    0.0000 C   0  0  0  0  0  0  0  0  0  0  0  0
    2.8660   -3.4285    0.0000 C   0  0  0  0  0  0  0  0  0  0  0  0
    2.8660   -5.4285    0.0000 C   0  0  0  0  0  0  0  0  0  0  0  0
    2.0000   -3.9285    0.0000 C   0  0  0  0  0  0  0  0  0  0  0  0
    2.0000   -4.9285    0.0000 C   0  0  0  0  0  0  0  0  0  0  0  0
    5.9209    0.1783    0.0000 C   0  0  0  0  0  0  0  0  0  0  0  0
   10.1921   -0.6917    0.0000 C   0  0  0  0  0  0  0  0  0  0  0  0
   12.6162    5.4285    0.0000 C   0  0  0  0  0  0  0  0  0  0  0  0
    5.2531    0.9226    0.0000 C   0  0  0  0  0  0  0  0  0  0  0  0
   10.8600   -1.4360    0.0000 C   0  0  0  0  0  0  0  0  0  0  0  0
    4.2746    0.7164    0.0000 C   0  0  0  0  0  0  0  0  0  0  0  0
    5.5637    1.8731    0.0000 C   0  0  0  0  0  0  0  0  0  0  0  0
   10.5493   -2.3865    0.0000 C   0  0  0  0  0  0  0  0  0  0  0  0
   11.8385   -1.2297    0.0000 C   0  0  0  0  0  0  0  0  0  0  0  0
    3.6067    1.4607    0.0000 C   0  0  0  0  0  0  0  0  0  0  0  0
    4.8959    2.6174    0.0000 C   0  0  0  0  0  0  0  0  0  0  0  0
   11.2171   -3.1308    0.0000 C   0  0  0  0  0  0  0  0  0  0  0  0
   12.5063   -1.9740    0.0000 C   0  0  0  0  0  0  0  0  0  0  0  0
    3.9174    2.4112    0.0000 C   0  0  0  0  0  0  0  0  0  0  0  0
   12.1957   -2.9246    0.0000 C   0  0  0  0  0  0  0  0  0  0  0  0
    5.2908   -3.5276    0.0000 H   0  0  0  0  0  0  0  0  0  0  0  0
    5.5436   -4.9808    0.0000 H   0  0  0  0  0  0  0  0  0  0  0  0
   10.5833    1.5145    0.0000 H   0  0  0  0  0  0  0  0  0  0  0  0
   11.2251    1.6544    0.0000 H   0  0  0  0  0  0  0  0  0  0  0  0
   11.7139    2.3248    0.0000 H   0  0  0  0  0  0  0  0  0  0  0  0
    4.4272   -5.8002    0.0000 H   0  0  0  0  0  0  0  0  0  0  0  0
    5.2156   -5.5425    0.0000 H   0  0  0  0  0  0  0  0  0  0  0  0
   11.0030    3.8736    0.0000 H   0  0  0  0  0  0  0  0  0  0  0  0
    9.0992    3.1794    0.0000 H   0  0  0  0  0  0  0  0  0  0  0  0
    9.0978    2.3496    0.0000 H   0  0  0  0  0  0  0  0  0  0  0  0
    4.5749   -2.2118    0.0000 H   0  0  0  0  0  0  0  0  0  0  0  0
    7.0640   -1.8996    0.0000 H   0  0  0  0  0  0  0  0  0  0  0  0
    6.9606   -0.4876    0.0000 H   0  0  0  0  0  0  0  0  0  0  0  0
    5.6714   -1.6444    0.0000 H   0  0  0  0  0  0  0  0  0  0  0  0
    8.3532   -0.7429    0.0000 H   0  0  0  0  0  0  0  0  0  0  0  0
   10.2490    0.5417    0.0000 H   0  0  0  0  0  0  0  0  0  0  0  0
   12.1798    3.2897    0.0000 H   0  0  0  0  0  0  0  0  0  0  0  0
   12.5052    4.0173    0.0000 H   0  0  0  0  0  0  0  0  0  0  0  0
    2.8660   -2.8085    0.0000 H   0  0  0  0  0  0  0  0  0  0  0  0
    2.8660   -6.0485    0.0000 H   0  0  0  0  0  0  0  0  0  0  0  0
    6.5719   -4.9655    0.0000 H   0  0  0  0  0  0  0  0  0  0  0  0
    1.4631   -3.6185    0.0000 H   0  0  0  0  0  0  0  0  0  0  0  0
    1.4631   -5.2385    0.0000 H   0  0  0  0  0  0  0  0  0  0  0  0
    8.5311   -1.9268    0.0000 H   0  0  0  0  0  0  0  0  0  0  0  0
    7.0920    0.9738    0.0000 H   0  0  0  0  0  0  0  0  0  0  0  0
    6.4678   -0.1137    0.0000 H   0  0  0  0  0  0  0  0  0  0  0  0
    6.3035    0.6662    0.0000 H   0  0  0  0  0  0  0  0  0  0  0  0
   10.7185   -0.3640    0.0000 H   0  0  0  0  0  0  0  0  0  0  0  0
    9.9609   -0.1164    0.0000 H   0  0  0  0  0  0  0  0  0  0  0  0
   12.9797    4.9263    0.0000 H   0  0  0  0  0  0  0  0  0  0  0  0
   13.1184    5.7921    0.0000 H   0  0  0  0  0  0  0  0  0  0  0  0
   12.2526    5.9307    0.0000 H   0  0  0  0  0  0  0  0  0  0  0  0
    4.0820    0.1270    0.0000 H   0  0  0  0  0  0  0  0  0  0  0  0
    6.1704    2.0010    0.0000 H   0  0  0  0  0  0  0  0  0  0  0  0
    9.9426   -2.5143    0.0000 H   0  0  0  0  0  0  0  0  0  0  0  0
   12.0311   -0.6404    0.0000 H   0  0  0  0  0  0  0  0  0  0  0  0
    3.0000    1.3328    0.0000 H   0  0  0  0  0  0  0  0  0  0  0  0
    5.0885    3.2067    0.0000 H   0  0  0  0  0  0  0  0  0  0  0  0
   11.0245   -3.7201    0.0000 H   0  0  0  0  0  0  0  0  0  0  0  0
   13.1130   -1.8462    0.0000 H   0  0  0  0  0  0  0  0  0  0  0  0
    3.5033    2.8727    0.0000 H   0  0  0  0  0  0  0  0  0  0  0  0
   12.6097   -3.3860    0.0000 H   0  0  0  0  0  0  0  0  0  0  0  0
  1 18  1  0  0  0  0
  1 20  1  0  0  0  0
 13  2  1  6  0  0  0
  2 67  1  0  0  0  0
 23  3  1  6  0  0  0
  3 32  1  0  0  0  0
 24  4  1  6  0  0  0
  4 33  1  0  0  0  0
 21  5  1  1  0  0  0
  5 70  1  0  0  0  0
 22  6  1  1  0  0  0
  6 71  1  0  0  0  0
  7 26  1  0  0  0  0
  7 34  1  0  0  0  0
  8 25  2  0  0  0  0
  9 27  2  0  0  0  0
 12 10  1  6  0  0  0
 10 25  1  0  0  0  0
 10 57  1  0  0  0  0
 11 14  1  0  0  0  0
 11 27  1  0  0  0  0
 11 62  1  0  0  0  0
 12 13  1  0  0  0  0
 12 17  1  0  0  0  0
 12 47  1  0  0  0  0
 13 15  1  0  0  0  0
 13 48  1  0  0  0  0
 14 16  1  0  0  0  0
 14 20  1  0  0  0  0
 14 49  1  0  0  0  0
 15 19  1  0  0  0  0
 15 52  1  0  0  0  0
 15 53  1  0  0  0  0
 16 18  1  0  0  0  0
 16 50  1  0  0  0  0
 16 51  1  0  0  0  0
 17 19  1  0  0  0  0
 17 28  2  0  0  0  0
 18 26  1  6  0  0  0
 18 54  1  0  0  0  0
 19 29  2  0  0  0  0
 20 55  1  0  0  0  0
 20 56  1  0  0  0  0
 21 22  1  0  0  0  0
 21 23  1  0  0  0  0
 21 58  1  0  0  0  0
 22 24  1  0  0  0  0
 22 59  1  0  0  0  0
 23 25  1  0  0  0  0
 23 60  1  0  0  0  0
 24 27  1  0  0  0  0
 24 61  1  0  0  0  0
 26 63  1  0  0  0  0
 26 64  1  0  0  0  0
 28 30  1  0  0  0  0
 28 65  1  0  0  0  0
 29 31  1  0  0  0  0
 29 66  1  0  0  0  0
 30 31  2  0  0  0  0
 30 68  1  0  0  0  0
 31 69  1  0  0  0  0
 32 35  1  0  0  0  0
 32 72  1  0  0  0  0
 32 73  1  0  0  0  0
 33 36  1  0  0  0  0
 33 74  1  0  0  0  0
 33 75  1  0  0  0  0
 34 76  1  0  0  0  0
 34 77  1  0  0  0  0
 34 78  1  0  0  0  0
 35 37  2  0  0  0  0
 35 38  1  0  0  0  0
 36 39  2  0  0  0  0
 36 40  1  0  0  0  0
 37 41  1  0  0  0  0
 37 79  1  0  0  0  0
 38 42  2  0  0  0  0
 38 80  1  0  0  0  0
 39 43  1  0  0  0  0
 39 81  1  0  0  0  0
 40 44  2  0  0  0  0
 40 82  1  0  0  0  0
 41 45  2  0  0  0  0
 41 83  1  0  0  0  0
 42 45  1  0  0  0  0
 42 84  1  0  0  0  0
 43 46  2  0  0  0  0
 43 85  1  0  0  0  0
 44 46  1  0  0  0  0
 44 86  1  0  0  0  0
 45 87  1  0  0  0  0
 46 88  1  0  0  0  0
M  END
> <PUBCHEM_COMPOUND_CID>
503806
> <PUBCHEM_COMPOUND_CANONICALIZED>
1
> <PUBCHEM_CACTVS_COMPLEXITY>
943
> <PUBCHEM_CACTVS_HBOND_ACCEPTOR>
9
> <PUBCHEM_CACTVS_HBOND_DONOR>
5
> <PUBCHEM_CACTVS_ROTATABLE_BOND>
15
> <PUBCHEM_CACTVS_SUBSKEYS>
AAADcfB/PAAAAAAAAAAAAAAAAAAAAaIAAAAwYMAAAAAAAGABUAAAHgAQCAAADDzhmAYyAILABgCIAiFSEAKCAAAgAAAIiIFIDIgLNjaAsR2HcAhn9gGbqAf6/KpOgAAAAAAQAAAAAAAAACAAAKAACQgAAA==
> <PUBCHEM_IUPAC_OPENEYE_NAME>
(2R,3R,4R,5R)-2,5-dibenzyloxy-3,4-dihydroxy-N-[(1S,2R)-2-hydroxyindan-1-yl]-N'-[(5S)-5-(methoxymethyl)tetrahydrofuran-3-yl]hexanediamide
> <PUBCHEM_IUPAC_CAS_NAME>
(2R,3R,4R,5R)-3,4-dihydroxy-N-[(1S,2R)-2-hydroxy-2,3-dihydro-1H-inden-1-yl]-N'-[(5S)-5-(methoxymethyl)-3-oxolanyl]-2,5-bis(phenylmethoxy)hexanediamide
> <PUBCHEM_IUPAC_NAME_MARKUP>
(2<I>R</I>,3<I>R</I>,4<I>R</I>,5<I>R</I>)-3,4-dihydroxy-<I>N</I>-[(1<I>S</I>,2<I>R</I>)-2-hydroxy-2,3-dihydro-1<I>H</I>-inden-1-yl]-<I>N</I>&apos;-[(5<I>S</I>)-5-(methoxymethyl)oxolan-3-yl]-2,5-bis(phenylmethoxy)hexanediamide
> <PUBCHEM_IUPAC_NAME>
(2R,3R,4R,5R)-3,4-dihydroxy-N-[(1S,2R)-2-hydroxy-2,3-dihydro-1H-inden-1-yl]-N'-[(5S)-5-(methoxymethyl)oxolan-3-yl]-2,5-bis(phenylmethoxy)hexanediamide
> <PUBCHEM_IUPAC_SYSTEMATIC_NAME>
(2R,3R,4R,5R)-N-[(5S)-5-(methoxymethyl)oxolan-3-yl]-3,4-bis(oxidanyl)-N'-[(1S,2R)-2-oxidanyl-2,3-dihydro-1H-inden-1-yl]-2,5-bis(phenylmethoxy)hexanediamide
> <PUBCHEM_IUPAC_TRADITIONAL_NAME>
(2R,3R,4R,5R)-2,5-dibenzoxy-3,4-dihydroxy-N-[(1S,2R)-2-hydroxyindan-1-yl]-N'-[(5S)-5-(methoxymethyl)tetrahydrofuran-3-yl]adipamide
> <PUBCHEM_IUPAC_INCHI>
InChI=1S/C35H42N2O9/c1-43-21-26-17-25(20-44-26)36-34(41)32(45-18-22-10-4-2-5-11-22)30(39)31(40)33(46-19-23-12-6-3-7-13-23)35(42)37-29-27-15-9-8-14-24(27)16-28(29)38/h2-15,25-26,28-33,38-40H,16-21H2,1H3,(H,36,41)(H,37,42)/t25?,26-,28+,29-,30+,31+,32+,33+/m0/s1
> <PUBCHEM_IUPAC_INCHIKEY>
YHLIMXJNBLCCSZ-DKIORXOWSA-N
> <PUBCHEM_XLOGP3_AA>
2.5
> <PUBCHEM_EXACT_MASS>
634.28903092
> <PUBCHEM_MOLECULAR_FORMULA>
C35H42N2O9
> <PUBCHEM_MOLECULAR_WEIGHT>
634.7
> <PUBCHEM_OPENEYE_CAN_SMILES>
COCC1CC(CO1)NC(=O)C(C(C(C(C(=O)NC2C(CC3=CC=CC=C23)O)OCC4=CC=CC=C4)O)O)OCC5=CC=CC=C5
> <PUBCHEM_OPENEYE_ISO_SMILES>
COC[C@@H]1CC(CO1)NC(=O)[C@@H]([C@@H]([C@H]([C@H](C(=O)N[C@@H]2[C@@H](CC3=CC=CC=C23)O)OCC4=CC=CC=C4)O)O)OCC5=CC=CC=C5
> <PUBCHEM_CACTVS_TPSA>
156
> <PUBCHEM_MONOISOTOPIC_WEIGHT>
634.28903092
> <PUBCHEM_TOTAL_CHARGE>
0
> <PUBCHEM_HEAVY_ATOM_COUNT>
46
> <PUBCHEM_ATOM_DEF_STEREO_COUNT>
7
> <PUBCHEM_ATOM_UDEF_STEREO_COUNT>
1
> <PUBCHEM_BOND_DEF_STEREO_COUNT>
0
> <PUBCHEM_BOND_UDEF_STEREO_COUNT>
0
> <PUBCHEM_ISOTOPIC_ATOM_COUNT>
0
> <PUBCHEM_COMPONENT_COUNT>
1
> <PUBCHEM_CACTVS_TAUTO_COUNT>
-1
> <PUBCHEM_COORDINATE_TYPE>
1
5
255
> <PUBCHEM_BONDANNOTATIONS>
12  10  6
14  11  3
17  19  8
17  28  8
18  26  6
19  29  8
13  2  6
28  30  8
29  31  8
23  3  6
30  31  8
35  37  8
35  38  8
36  39  8
36  40  8
37  41  8
38  42  8
39  43  8
24  4  6
40  44  8
41  45  8
42  45  8
43  46  8
44  46  8
21  5  5
22  6  5
$$$$
