503802
  -OEChem-10302200282D
 88 91  0     1  0  0  0  0  0999 V2000
   12.7470   -1.4524    0.0000 O   0  0  0  0  0  0  0  0  0  0  0  0
    3.1534    2.0864    0.0000 O   0  0  0  0  0  0  0  0  0  0  0  0
    9.0662    1.2500    0.0000 O   0  0  0  0  0  0  0  0  0  0  0  0
    6.4682   -1.2500    0.0000 O   0  0  0  0  0  0  0  0  0  0  0  0
   14.8293   -1.2909    0.0000 O   0  0  0  0  0  0  0  0  0  0  0  0
    2.2522    3.9705    0.0000 O   0  0  0  0  0  0  0  0  0  0  0  0
    8.2002   -1.2500    0.0000 O   0  0  0  0  0  0  0  0  0  0  0  0
    7.3342    1.2500    0.0000 O   0  0  0  0  0  0  0  0  0  0  0  0
    9.9323   -1.2500    0.0000 O   0  0  0  0  0  0  0  0  0  0  0  0
    4.7361   -0.2500    0.0000 O   0  0  0  0  0  0  0  0  0  0  0  0
   10.7983    0.2500    0.0000 N   0  0  0  0  0  0  0  0  0  0  0  0
    5.6021    1.2500    0.0000 N   0  0  0  0  0  0  0  0  0  0  0  0
   11.6643   -0.2500    0.0000 C   0  0  1  0  0  0  0  0  0  0  0  0
    4.7361    1.7500    0.0000 C   0  0  3  0  0  0  0  0  0  0  0  0
   12.5779    0.1567    0.0000 C   0  0  0  0  0  0  0  0  0  0  0  0
    4.6316    2.7445    0.0000 C   0  0  0  0  0  0  0  0  0  0  0  0
   13.2470   -0.5864    0.0000 C   0  0  1  0  0  0  0  0  0  0  0  0
    3.6534    2.9524    0.0000 C   0  0  1  0  0  0  0  0  0  0  0  0
   11.7688   -1.2445    0.0000 C   0  0  0  0  0  0  0  0  0  0  0  0
    3.8226    1.3433    0.0000 C   0  0  0  0  0  0  0  0  0  0  0  0
   14.2415   -0.4819    0.0000 C   0  0  3  0  0  0  0  0  0  0  0  0
    3.2467    3.8660    0.0000 C   0  0  3  0  0  0  0  0  0  0  0  0
    8.2002   -0.2500    0.0000 C   0  0  2  0  0  0  0  0  0  0  0  0
    7.3342    0.2500    0.0000 C   0  0  2  0  0  0  0  0  0  0  0  0
    9.0662    0.2500    0.0000 C   0  0  2  0  0  0  0  0  0  0  0  0
    6.4682   -0.2500    0.0000 C   0  0  2  0  0  0  0  0  0  0  0  0
    9.9323   -0.2500    0.0000 C   0  0  0  0  0  0  0  0  0  0  0  0
    5.6021    0.2500    0.0000 C   0  0  0  0  0  0  0  0  0  0  0  0
   14.6482    0.4317    0.0000 C   0  0  0  0  0  0  0  0  0  0  0  0
    3.8345    4.6750    0.0000 C   0  0  0  0  0  0  0  0  0  0  0  0
    9.9323    1.7500    0.0000 C   0  0  0  0  0  0  0  0  0  0  0  0
    5.6021   -1.7500    0.0000 C   0  0  0  0  0  0  0  0  0  0  0  0
    9.9323    2.7500    0.0000 C   0  0  0  0  0  0  0  0  0  0  0  0
    5.6021   -2.7500    0.0000 C   0  0  0  0  0  0  0  0  0  0  0  0
   10.7983    3.2500    0.0000 C   0  0  0  0  0  0  0  0  0  0  0  0
    9.0662    3.2500    0.0000 C   0  0  0  0  0  0  0  0  0  0  0  0
    6.4682   -3.2500    0.0000 C   0  0  0  0  0  0  0  0  0  0  0  0
    4.7361   -3.2500    0.0000 C   0  0  0  0  0  0  0  0  0  0  0  0
   10.7983    4.2500    0.0000 C   0  0  0  0  0  0  0  0  0  0  0  0
    9.0662    4.2500    0.0000 C   0  0  0  0  0  0  0  0  0  0  0  0
    6.4682   -4.2500    0.0000 C   0  0  0  0  0  0  0  0  0  0  0  0
    4.7361   -4.2500    0.0000 C   0  0  0  0  0  0  0  0  0  0  0  0
    9.9323    4.7500    0.0000 C   0  0  0  0  0  0  0  0  0  0  0  0
    5.6021   -4.7500    0.0000 C   0  0  0  0  0  0  0  0  0  0  0  0
   11.1443   -0.5877    0.0000 H   0  0  0  0  0  0  0  0  0  0  0  0
    4.7037    1.1308    0.0000 H   0  0  0  0  0  0  0  0  0  0  0  0
   13.0795    0.5212    0.0000 H   0  0  0  0  0  0  0  0  0  0  0  0
   12.2679    0.6937    0.0000 H   0  0  0  0  0  0  0  0  0  0  0  0
    5.2516    2.7445    0.0000 H   0  0  0  0  0  0  0  0  0  0  0  0
    4.6964    3.3611    0.0000 H   0  0  0  0  0  0  0  0  0  0  0  0
   13.5847   -1.1064    0.0000 H   0  0  0  0  0  0  0  0  0  0  0  0
    4.0436    3.4343    0.0000 H   0  0  0  0  0  0  0  0  0  0  0  0
   11.1488   -1.2445    0.0000 H   0  0  0  0  0  0  0  0  0  0  0  0
   11.7040   -1.8611    0.0000 H   0  0  0  0  0  0  0  0  0  0  0  0
    3.3210    0.9788    0.0000 H   0  0  0  0  0  0  0  0  0  0  0  0
    4.1326    0.8063    0.0000 H   0  0  0  0  0  0  0  0  0  0  0  0
   13.9893   -1.0483    0.0000 H   0  0  0  0  0  0  0  0  0  0  0  0
    2.8823    3.3644    0.0000 H   0  0  0  0  0  0  0  0  0  0  0  0
   10.7983    0.8700    0.0000 H   0  0  0  0  0  0  0  0  0  0  0  0
    6.1391    1.5600    0.0000 H   0  0  0  0  0  0  0  0  0  0  0  0
    7.6633   -0.5600    0.0000 H   0  0  0  0  0  0  0  0  0  0  0  0
    7.8711    0.5600    0.0000 H   0  0  0  0  0  0  0  0  0  0  0  0
    9.6032    0.5600    0.0000 H   0  0  0  0  0  0  0  0  0  0  0  0
    7.0051   -0.5600    0.0000 H   0  0  0  0  0  0  0  0  0  0  0  0
   15.2146    0.1795    0.0000 H   0  0  0  0  0  0  0  0  0  0  0  0
   14.9004    0.9981    0.0000 H   0  0  0  0  0  0  0  0  0  0  0  0
   14.0819    0.6838    0.0000 H   0  0  0  0  0  0  0  0  0  0  0  0
    4.3361    4.3106    0.0000 H   0  0  0  0  0  0  0  0  0  0  0  0
    4.1989    5.1766    0.0000 H   0  0  0  0  0  0  0  0  0  0  0  0
    3.3329    5.0394    0.0000 H   0  0  0  0  0  0  0  0  0  0  0  0
   15.4459   -1.2261    0.0000 H   0  0  0  0  0  0  0  0  0  0  0  0
    2.0000    4.5369    0.0000 H   0  0  0  0  0  0  0  0  0  0  0  0
    8.7372   -1.5600    0.0000 H   0  0  0  0  0  0  0  0  0  0  0  0
    7.8711    1.5600    0.0000 H   0  0  0  0  0  0  0  0  0  0  0  0
   10.1443    1.1674    0.0000 H   0  0  0  0  0  0  0  0  0  0  0  0
   10.5428    1.8577    0.0000 H   0  0  0  0  0  0  0  0  0  0  0  0
    5.3901   -1.1674    0.0000 H   0  0  0  0  0  0  0  0  0  0  0  0
    4.9916   -1.8577    0.0000 H   0  0  0  0  0  0  0  0  0  0  0  0
   11.3352    2.9400    0.0000 H   0  0  0  0  0  0  0  0  0  0  0  0
    8.5293    2.9400    0.0000 H   0  0  0  0  0  0  0  0  0  0  0  0
    7.0051   -2.9400    0.0000 H   0  0  0  0  0  0  0  0  0  0  0  0
    4.1992   -2.9400    0.0000 H   0  0  0  0  0  0  0  0  0  0  0  0
   11.3352    4.5600    0.0000 H   0  0  0  0  0  0  0  0  0  0  0  0
    8.5293    4.5600    0.0000 H   0  0  0  0  0  0  0  0  0  0  0  0
    7.0051   -4.5600    0.0000 H   0  0  0  0  0  0  0  0  0  0  0  0
    4.1992   -4.5600    0.0000 H   0  0  0  0  0  0  0  0  0  0  0  0
    9.9323    5.3700    0.0000 H   0  0  0  0  0  0  0  0  0  0  0  0
    5.6021   -5.3700    0.0000 H   0  0  0  0  0  0  0  0  0  0  0  0
  1 17  1  0  0  0  0
  1 19  1  0  0  0  0
  2 18  1  0  0  0  0
  2 20  1  0  0  0  0
 25  3  1  1  0  0  0
  3 31  1  0  0  0  0
 26  4  1  1  0  0  0
  4 32  1  0  0  0  0
  5 21  1  0  0  0  0
  5 71  1  0  0  0  0
  6 22  1  0  0  0  0
  6 72  1  0  0  0  0
 23  7  1  6  0  0  0
  7 73  1  0  0  0  0
 24  8  1  6  0  0  0
  8 74  1  0  0  0  0
  9 27  2  0  0  0  0
 10 28  2  0  0  0  0
 13 11  1  1  0  0  0
 11 27  1  0  0  0  0
 11 59  1  0  0  0  0
 12 14  1  0  0  0  0
 12 28  1  0  0  0  0
 12 60  1  0  0  0  0
 13 15  1  0  0  0  0
 13 19  1  0  0  0  0
 13 45  1  0  0  0  0
 14 16  1  0  0  0  0
 14 20  1  0  0  0  0
 14 46  1  0  0  0  0
 15 17  1  0  0  0  0
 15 47  1  0  0  0  0
 15 48  1  0  0  0  0
 16 18  1  0  0  0  0
 16 49  1  0  0  0  0
 16 50  1  0  0  0  0
 17 21  1  1  0  0  0
 17 51  1  0  0  0  0
 18 22  1  6  0  0  0
 18 52  1  0  0  0  0
 19 53  1  0  0  0  0
 19 54  1  0  0  0  0
 20 55  1  0  0  0  0
 20 56  1  0  0  0  0
 21 29  1  0  0  0  0
 21 57  1  0  0  0  0
 22 30  1  0  0  0  0
 22 58  1  0  0  0  0
 23 24  1  0  0  0  0
 23 25  1  0  0  0  0
 23 61  1  0  0  0  0
 24 26  1  0  0  0  0
 24 62  1  0  0  0  0
 25 27  1  0  0  0  0
 25 63  1  0  0  0  0
 26 28  1  0  0  0  0
 26 64  1  0  0  0  0
 29 65  1  0  0  0  0
 29 66  1  0  0  0  0
 29 67  1  0  0  0  0
 30 68  1  0  0  0  0
 30 69  1  0  0  0  0
 30 70  1  0  0  0  0
 31 33  1  0  0  0  0
 31 75  1  0  0  0  0
 31 76  1  0  0  0  0
 32 34  1  0  0  0  0
 32 77  1  0  0  0  0
 32 78  1  0  0  0  0
 33 35  2  0  0  0  0
 33 36  1  0  0  0  0
 34 37  2  0  0  0  0
 34 38  1  0  0  0  0
 35 39  1  0  0  0  0
 35 79  1  0  0  0  0
 36 40  2  0  0  0  0
 36 80  1  0  0  0  0
 37 41  1  0  0  0  0
 37 81  1  0  0  0  0
 38 42  2  0  0  0  0
 38 82  1  0  0  0  0
 39 43  2  0  0  0  0
 39 83  1  0  0  0  0
 40 43  1  0  0  0  0
 40 84  1  0  0  0  0
 41 44  2  0  0  0  0
 41 85  1  0  0  0  0
 42 44  1  0  0  0  0
 42 86  1  0  0  0  0
 43 87  1  0  0  0  0
 44 88  1  0  0  0  0
M  END
> <PUBCHEM_COMPOUND_CID>
503802
> <PUBCHEM_COMPOUND_CANONICALIZED>
1
> <PUBCHEM_CACTVS_COMPLEXITY>
813
> <PUBCHEM_CACTVS_HBOND_ACCEPTOR>
10
> <PUBCHEM_CACTVS_HBOND_DONOR>
6
> <PUBCHEM_CACTVS_ROTATABLE_BOND>
15
> <PUBCHEM_CACTVS_SUBSKEYS>
AAADcfB/PAAAAAAAAAAAAAAAAAAAASJAAAAwYAAAAAAAAAABQAAAHgAQCAAADDzhmAYyAILABgCIAiFSEAICAAAgAAAIiIFICIgLNjaAsRyHcAAn9gGbqAf6/CZOAAAAAAAAAAAAAAAAAAAAAAAAAAAAAA==
> <PUBCHEM_IUPAC_OPENEYE_NAME>
(2R,3R,4R,5R)-2,5-dibenzyloxy-3,4-dihydroxy-N-[(3S,5S)-5-(1-hydroxyethyl)tetrahydrofuran-3-yl]-N'-[(5S)-5-(1-hydroxyethyl)tetrahydrofuran-3-yl]hexanediamide
> <PUBCHEM_IUPAC_CAS_NAME>
(2R,3R,4R,5R)-3,4-dihydroxy-N-[(3S,5S)-5-(1-hydroxyethyl)-3-oxolanyl]-N'-[(5S)-5-(1-hydroxyethyl)-3-oxolanyl]-2,5-bis(phenylmethoxy)hexanediamide
> <PUBCHEM_IUPAC_NAME_MARKUP>
(2<I>R</I>,3<I>R</I>,4<I>R</I>,5<I>R</I>)-3,4-dihydroxy-<I>N</I>-[(3<I>S</I>,5<I>S</I>)-5-(1-hydroxyethyl)oxolan-3-yl]-<I>N</I>&apos;-[(5<I>S</I>)-5-(1-hydroxyethyl)oxolan-3-yl]-2,5-bis(phenylmethoxy)hexanediamide
> <PUBCHEM_IUPAC_NAME>
(2R,3R,4R,5R)-3,4-dihydroxy-N-[(3S,5S)-5-(1-hydroxyethyl)oxolan-3-yl]-N'-[(5S)-5-(1-hydroxyethyl)oxolan-3-yl]-2,5-bis(phenylmethoxy)hexanediamide
> <PUBCHEM_IUPAC_SYSTEMATIC_NAME>
(2R,3R,4R,5R)-N-[(3S,5S)-5-(1-hydroxyethyl)oxolan-3-yl]-N'-[(5S)-5-(1-hydroxyethyl)oxolan-3-yl]-3,4-bis(oxidanyl)-2,5-bis(phenylmethoxy)hexanediamide
> <PUBCHEM_IUPAC_TRADITIONAL_NAME>
(2R,3R,4R,5R)-2,5-dibenzoxy-3,4-dihydroxy-N-[(3S,5S)-5-(1-hydroxyethyl)tetrahydrofuran-3-yl]-N'-[(5S)-5-(1-hydroxyethyl)tetrahydrofuran-3-yl]adipamide
> <PUBCHEM_IUPAC_INCHI>
InChI=1S/C32H44N2O10/c1-19(35)25-13-23(17-41-25)33-31(39)29(43-15-21-9-5-3-6-10-21)27(37)28(38)30(44-16-22-11-7-4-8-12-22)32(40)34-24-14-26(20(2)36)42-18-24/h3-12,19-20,23-30,35-38H,13-18H2,1-2H3,(H,33,39)(H,34,40)/t19?,20?,23-,24?,25-,26-,27+,28+,29+,30+/m0/s1
> <PUBCHEM_IUPAC_INCHIKEY>
AZJOISCPLJVXFA-UWCGTTMESA-N
> <PUBCHEM_XLOGP3_AA>
1.3
> <PUBCHEM_EXACT_MASS>
616.29959560
> <PUBCHEM_MOLECULAR_FORMULA>
C32H44N2O10
> <PUBCHEM_MOLECULAR_WEIGHT>
616.7
> <PUBCHEM_OPENEYE_CAN_SMILES>
CC(C1CC(CO1)NC(=O)C(C(C(C(C(=O)NC2CC(OC2)C(C)O)OCC3=CC=CC=C3)O)O)OCC4=CC=CC=C4)O
> <PUBCHEM_OPENEYE_ISO_SMILES>
CC([C@@H]1C[C@@H](CO1)NC(=O)[C@@H]([C@@H]([C@H]([C@H](C(=O)NC2C[C@H](OC2)C(C)O)OCC3=CC=CC=C3)O)O)OCC4=CC=CC=C4)O
> <PUBCHEM_CACTVS_TPSA>
176
> <PUBCHEM_MONOISOTOPIC_WEIGHT>
616.29959560
> <PUBCHEM_TOTAL_CHARGE>
0
> <PUBCHEM_HEAVY_ATOM_COUNT>
44
> <PUBCHEM_ATOM_DEF_STEREO_COUNT>
7
> <PUBCHEM_ATOM_UDEF_STEREO_COUNT>
3
> <PUBCHEM_BOND_DEF_STEREO_COUNT>
0
> <PUBCHEM_BOND_UDEF_STEREO_COUNT>
0
> <PUBCHEM_ISOTOPIC_ATOM_COUNT>
0
> <PUBCHEM_COMPONENT_COUNT>
1
> <PUBCHEM_CACTVS_TAUTO_COUNT>
-1
> <PUBCHEM_COORDINATE_TYPE>
1
5
255
> <PUBCHEM_BONDANNOTATIONS>
13  11  5
14  12  3
17  21  5
18  22  6
25  3  5
33  35  8
33  36  8
34  37  8
34  38  8
35  39  8
36  40  8
37  41  8
38  42  8
39  43  8
26  4  5
40  43  8
41  44  8
42  44  8
21  5  3
22  6  3
23  7  6
24  8  6
$$$$
