503803
  -OEChem-10302200282D
100103  0     1  0  0  0  0  0999 V2000
    5.0768    2.9524    0.0000 O   0  0  0  0  0  0  0  0  0  0  0  0
   14.6704   -0.5864    0.0000 O   0  0  0  0  0  0  0  0  0  0  0  0
    3.1756    1.0683    0.0000 O   0  0  0  0  0  0  0  0  0  0  0  0
   13.9893   -3.1750    0.0000 O   0  0  0  0  0  0  0  0  0  0  0  0
    7.8916   -1.2500    0.0000 O   0  0  0  0  0  0  0  0  0  0  0  0
   10.4896    1.2500    0.0000 O   0  0  0  0  0  0  0  0  0  0  0  0
    8.7576    1.2500    0.0000 O   0  0  0  0  0  0  0  0  0  0  0  0
    9.6236   -1.2500    0.0000 O   0  0  0  0  0  0  0  0  0  0  0  0
    6.1595   -0.2500    0.0000 O   0  0  0  0  0  0  0  0  0  0  0  0
   11.3557   -1.2500    0.0000 O   0  0  0  0  0  0  0  0  0  0  0  0
    7.0255    1.2500    0.0000 N   0  0  0  0  0  0  0  0  0  0  0  0
   12.2217    0.2500    0.0000 N   0  0  0  0  0  0  0  0  0  0  0  0
    4.5768    2.0864    0.0000 C   0  0  1  0  0  0  0  0  0  0  0  0
   14.1704   -1.4524    0.0000 C   0  0  1  0  0  0  0  0  0  0  0  0
    5.2460    1.3433    0.0000 C   0  0  0  0  0  0  0  0  0  0  0  0
   13.1922   -1.2445    0.0000 C   0  0  0  0  0  0  0  0  0  0  0  0
    6.1595    1.7500    0.0000 C   0  0  1  0  0  0  0  0  0  0  0  0
   13.0877   -0.2500    0.0000 C   0  0  3  0  0  0  0  0  0  0  0  0
    3.5823    1.9819    0.0000 C   0  0  3  0  0  0  0  0  0  0  0  0
   14.5771   -2.3660    0.0000 C   0  0  3  0  0  0  0  0  0  0  0  0
    6.0550    2.7445    0.0000 C   0  0  0  0  0  0  0  0  0  0  0  0
   14.0013    0.1567    0.0000 C   0  0  0  0  0  0  0  0  0  0  0  0
    2.9945    2.7909    0.0000 C   0  0  0  0  0  0  0  0  0  0  0  0
   15.5716   -2.4705    0.0000 C   0  0  0  0  0  0  0  0  0  0  0  0
    8.7576    0.2500    0.0000 C   0  0  2  0  0  0  0  0  0  0  0  0
    9.6236   -0.2500    0.0000 C   0  0  2  0  0  0  0  0  0  0  0  0
    7.8916   -0.2500    0.0000 C   0  0  2  0  0  0  0  0  0  0  0  0
   10.4896    0.2500    0.0000 C   0  0  2  0  0  0  0  0  0  0  0  0
    7.0255    0.2500    0.0000 C   0  0  0  0  0  0  0  0  0  0  0  0
   11.3557   -0.2500    0.0000 C   0  0  0  0  0  0  0  0  0  0  0  0
    2.0000    2.6864    0.0000 C   0  0  0  0  0  0  0  0  0  0  0  0
    3.4013    3.7044    0.0000 C   0  0  0  0  0  0  0  0  0  0  0  0
   15.9784   -3.3840    0.0000 C   0  0  0  0  0  0  0  0  0  0  0  0
   16.1594   -1.6615    0.0000 C   0  0  0  0  0  0  0  0  0  0  0  0
    7.0255   -1.7500    0.0000 C   0  0  0  0  0  0  0  0  0  0  0  0
   11.3557    1.7500    0.0000 C   0  0  0  0  0  0  0  0  0  0  0  0
    7.0255   -2.7500    0.0000 C   0  0  0  0  0  0  0  0  0  0  0  0
   11.3557    2.7500    0.0000 C   0  0  0  0  0  0  0  0  0  0  0  0
    7.8916   -3.2500    0.0000 C   0  0  0  0  0  0  0  0  0  0  0  0
    6.1595   -3.2500    0.0000 C   0  0  0  0  0  0  0  0  0  0  0  0
   12.2217    3.2500    0.0000 C   0  0  0  0  0  0  0  0  0  0  0  0
   10.4896    3.2500    0.0000 C   0  0  0  0  0  0  0  0  0  0  0  0
    7.8916   -4.2500    0.0000 C   0  0  0  0  0  0  0  0  0  0  0  0
    6.1595   -4.2500    0.0000 C   0  0  0  0  0  0  0  0  0  0  0  0
   12.2217    4.2500    0.0000 C   0  0  0  0  0  0  0  0  0  0  0  0
   10.4896    4.2500    0.0000 C   0  0  0  0  0  0  0  0  0  0  0  0
    7.0255   -4.7500    0.0000 C   0  0  0  0  0  0  0  0  0  0  0  0
   11.3557    4.7500    0.0000 C   0  0  0  0  0  0  0  0  0  0  0  0
    4.2392    2.6064    0.0000 H   0  0  0  0  0  0  0  0  0  0  0  0
   14.7895   -1.4849    0.0000 H   0  0  0  0  0  0  0  0  0  0  0  0
    4.7444    0.9788    0.0000 H   0  0  0  0  0  0  0  0  0  0  0  0
    5.5560    0.8063    0.0000 H   0  0  0  0  0  0  0  0  0  0  0  0
   12.5722   -1.2445    0.0000 H   0  0  0  0  0  0  0  0  0  0  0  0
   13.1274   -1.8611    0.0000 H   0  0  0  0  0  0  0  0  0  0  0  0
    6.6795    2.0877    0.0000 H   0  0  0  0  0  0  0  0  0  0  0  0
   13.1202    0.3692    0.0000 H   0  0  0  0  0  0  0  0  0  0  0  0
    2.9657    1.9171    0.0000 H   0  0  0  0  0  0  0  0  0  0  0  0
   13.9605   -2.3012    0.0000 H   0  0  0  0  0  0  0  0  0  0  0  0
    6.6750    2.7445    0.0000 H   0  0  0  0  0  0  0  0  0  0  0  0
    6.1198    3.3611    0.0000 H   0  0  0  0  0  0  0  0  0  0  0  0
   14.5028    0.5212    0.0000 H   0  0  0  0  0  0  0  0  0  0  0  0
   13.6913    0.6937    0.0000 H   0  0  0  0  0  0  0  0  0  0  0  0
    3.6111    2.8557    0.0000 H   0  0  0  0  0  0  0  0  0  0  0  0
   16.1882   -2.5353    0.0000 H   0  0  0  0  0  0  0  0  0  0  0  0
    7.5625    1.5600    0.0000 H   0  0  0  0  0  0  0  0  0  0  0  0
   12.2217    0.8700    0.0000 H   0  0  0  0  0  0  0  0  0  0  0  0
    9.2945    0.5600    0.0000 H   0  0  0  0  0  0  0  0  0  0  0  0
   10.1605   -0.5600    0.0000 H   0  0  0  0  0  0  0  0  0  0  0  0
    7.3546   -0.5600    0.0000 H   0  0  0  0  0  0  0  0  0  0  0  0
    9.9527    0.5600    0.0000 H   0  0  0  0  0  0  0  0  0  0  0  0
    1.9352    3.3030    0.0000 H   0  0  0  0  0  0  0  0  0  0  0  0
    1.3834    2.6216    0.0000 H   0  0  0  0  0  0  0  0  0  0  0  0
    2.0648    2.0698    0.0000 H   0  0  0  0  0  0  0  0  0  0  0  0
    3.9677    3.4523    0.0000 H   0  0  0  0  0  0  0  0  0  0  0  0
    3.6534    4.2708    0.0000 H   0  0  0  0  0  0  0  0  0  0  0  0
    2.8349    3.9566    0.0000 H   0  0  0  0  0  0  0  0  0  0  0  0
   15.4120   -3.6362    0.0000 H   0  0  0  0  0  0  0  0  0  0  0  0
   16.2306   -3.9504    0.0000 H   0  0  0  0  0  0  0  0  0  0  0  0
   16.5448   -3.1319    0.0000 H   0  0  0  0  0  0  0  0  0  0  0  0
   16.6610   -2.0259    0.0000 H   0  0  0  0  0  0  0  0  0  0  0  0
   16.5239   -1.1599    0.0000 H   0  0  0  0  0  0  0  0  0  0  0  0
   15.6578   -1.2971    0.0000 H   0  0  0  0  0  0  0  0  0  0  0  0
    2.5590    1.0035    0.0000 H   0  0  0  0  0  0  0  0  0  0  0  0
   14.2415   -3.7414    0.0000 H   0  0  0  0  0  0  0  0  0  0  0  0
    9.2945    1.5600    0.0000 H   0  0  0  0  0  0  0  0  0  0  0  0
   10.1605   -1.5600    0.0000 H   0  0  0  0  0  0  0  0  0  0  0  0
    6.8135   -1.1674    0.0000 H   0  0  0  0  0  0  0  0  0  0  0  0
    6.4150   -1.8577    0.0000 H   0  0  0  0  0  0  0  0  0  0  0  0
   11.5677    1.1674    0.0000 H   0  0  0  0  0  0  0  0  0  0  0  0
   11.9662    1.8577    0.0000 H   0  0  0  0  0  0  0  0  0  0  0  0
    8.4285   -2.9400    0.0000 H   0  0  0  0  0  0  0  0  0  0  0  0
    5.6226   -2.9400    0.0000 H   0  0  0  0  0  0  0  0  0  0  0  0
   12.7586    2.9400    0.0000 H   0  0  0  0  0  0  0  0  0  0  0  0
    9.9527    2.9400    0.0000 H   0  0  0  0  0  0  0  0  0  0  0  0
    8.4285   -4.5600    0.0000 H   0  0  0  0  0  0  0  0  0  0  0  0
    5.6226   -4.5600    0.0000 H   0  0  0  0  0  0  0  0  0  0  0  0
   12.7586    4.5600    0.0000 H   0  0  0  0  0  0  0  0  0  0  0  0
    9.9527    4.5600    0.0000 H   0  0  0  0  0  0  0  0  0  0  0  0
    7.0255   -5.3700    0.0000 H   0  0  0  0  0  0  0  0  0  0  0  0
   11.3557    5.3700    0.0000 H   0  0  0  0  0  0  0  0  0  0  0  0
  1 13  1  0  0  0  0
  1 21  1  0  0  0  0
  2 14  1  0  0  0  0
  2 22  1  0  0  0  0
  3 19  1  0  0  0  0
  3 83  1  0  0  0  0
  4 20  1  0  0  0  0
  4 84  1  0  0  0  0
 27  5  1  1  0  0  0
  5 35  1  0  0  0  0
 28  6  1  1  0  0  0
  6 36  1  0  0  0  0
 25  7  1  6  0  0  0
  7 85  1  0  0  0  0
 26  8  1  6  0  0  0
  8 86  1  0  0  0  0
  9 29  2  0  0  0  0
 10 30  2  0  0  0  0
 17 11  1  1  0  0  0
 11 29  1  0  0  0  0
 11 65  1  0  0  0  0
 12 18  1  0  0  0  0
 12 30  1  0  0  0  0
 12 66  1  0  0  0  0
 13 15  1  0  0  0  0
 13 19  1  1  0  0  0
 13 49  1  0  0  0  0
 14 16  1  0  0  0  0
 14 20  1  6  0  0  0
 14 50  1  0  0  0  0
 15 17  1  0  0  0  0
 15 51  1  0  0  0  0
 15 52  1  0  0  0  0
 16 18  1  0  0  0  0
 16 53  1  0  0  0  0
 16 54  1  0  0  0  0
 17 21  1  0  0  0  0
 17 55  1  0  0  0  0
 18 22  1  0  0  0  0
 18 56  1  0  0  0  0
 19 23  1  0  0  0  0
 19 57  1  0  0  0  0
 20 24  1  0  0  0  0
 20 58  1  0  0  0  0
 21 59  1  0  0  0  0
 21 60  1  0  0  0  0
 22 61  1  0  0  0  0
 22 62  1  0  0  0  0
 23 31  1  0  0  0  0
 23 32  1  0  0  0  0
 23 63  1  0  0  0  0
 24 33  1  0  0  0  0
 24 34  1  0  0  0  0
 24 64  1  0  0  0  0
 25 26  1  0  0  0  0
 25 27  1  0  0  0  0
 25 67  1  0  0  0  0
 26 28  1  0  0  0  0
 26 68  1  0  0  0  0
 27 29  1  0  0  0  0
 27 69  1  0  0  0  0
 28 30  1  0  0  0  0
 28 70  1  0  0  0  0
 31 71  1  0  0  0  0
 31 72  1  0  0  0  0
 31 73  1  0  0  0  0
 32 74  1  0  0  0  0
 32 75  1  0  0  0  0
 32 76  1  0  0  0  0
 33 77  1  0  0  0  0
 33 78  1  0  0  0  0
 33 79  1  0  0  0  0
 34 80  1  0  0  0  0
 34 81  1  0  0  0  0
 34 82  1  0  0  0  0
 35 37  1  0  0  0  0
 35 87  1  0  0  0  0
 35 88  1  0  0  0  0
 36 38  1  0  0  0  0
 36 89  1  0  0  0  0
 36 90  1  0  0  0  0
 37 39  2  0  0  0  0
 37 40  1  0  0  0  0
 38 41  2  0  0  0  0
 38 42  1  0  0  0  0
 39 43  1  0  0  0  0
 39 91  1  0  0  0  0
 40 44  2  0  0  0  0
 40 92  1  0  0  0  0
 41 45  1  0  0  0  0
 41 93  1  0  0  0  0
 42 46  2  0  0  0  0
 42 94  1  0  0  0  0
 43 47  2  0  0  0  0
 43 95  1  0  0  0  0
 44 47  1  0  0  0  0
 44 96  1  0  0  0  0
 45 48  2  0  0  0  0
 45 97  1  0  0  0  0
 46 48  1  0  0  0  0
 46 98  1  0  0  0  0
 47 99  1  0  0  0  0
 48100  1  0  0  0  0
M  END
> <PUBCHEM_COMPOUND_CID>
503803
> <PUBCHEM_COMPOUND_CANONICALIZED>
1
> <PUBCHEM_CACTVS_COMPLEXITY>
896
> <PUBCHEM_CACTVS_HBOND_ACCEPTOR>
10
> <PUBCHEM_CACTVS_HBOND_DONOR>
6
> <PUBCHEM_CACTVS_ROTATABLE_BOND>
17
> <PUBCHEM_CACTVS_SUBSKEYS>
AAADcfB/PAAAAAAAAAAAAAAAAAAAASJAAAAwYAAAAAAAAAABQAAAHgAQCAAADTzhmAYyAILABgCIAiFSEAICAAAgAAAIiIFICIgLNjaAsRyHcAAn9gGbqAf6/GZOAAAAAAAAAAAAAAAAAAAAAAAAAAAAAA==
> <PUBCHEM_IUPAC_OPENEYE_NAME>
(2R,3R,4R,5R)-2,5-dibenzyloxy-3,4-dihydroxy-N-[(3S,5S)-5-(1-hydroxy-2-methyl-propyl)tetrahydrofuran-3-yl]-N'-[(5S)-5-(1-hydroxy-2-methyl-propyl)tetrahydrofuran-3-yl]hexanediamide
> <PUBCHEM_IUPAC_CAS_NAME>
(2R,3R,4R,5R)-3,4-dihydroxy-N-[(3S,5S)-5-(1-hydroxy-2-methylpropyl)-3-oxolanyl]-N'-[(5S)-5-(1-hydroxy-2-methylpropyl)-3-oxolanyl]-2,5-bis(phenylmethoxy)hexanediamide
> <PUBCHEM_IUPAC_NAME_MARKUP>
(2<I>R</I>,3<I>R</I>,4<I>R</I>,5<I>R</I>)-3,4-dihydroxy-<I>N</I>-[(3<I>S</I>,5<I>S</I>)-5-(1-hydroxy-2-methylpropyl)oxolan-3-yl]-<I>N</I>&apos;-[(5<I>S</I>)-5-(1-hydroxy-2-methylpropyl)oxolan-3-yl]-2,5-bis(phenylmethoxy)hexanediamide
> <PUBCHEM_IUPAC_NAME>
(2R,3R,4R,5R)-3,4-dihydroxy-N-[(3S,5S)-5-(1-hydroxy-2-methylpropyl)oxolan-3-yl]-N'-[(5S)-5-(1-hydroxy-2-methylpropyl)oxolan-3-yl]-2,5-bis(phenylmethoxy)hexanediamide
> <PUBCHEM_IUPAC_SYSTEMATIC_NAME>
(2R,3R,4R,5R)-N-[(3S,5S)-5-(2-methyl-1-oxidanyl-propyl)oxolan-3-yl]-N'-[(5S)-5-(2-methyl-1-oxidanyl-propyl)oxolan-3-yl]-3,4-bis(oxidanyl)-2,5-bis(phenylmethoxy)hexanediamide
> <PUBCHEM_IUPAC_TRADITIONAL_NAME>
(2R,3R,4R,5R)-2,5-dibenzoxy-3,4-dihydroxy-N-[(3S,5S)-5-(1-hydroxy-2-methyl-propyl)tetrahydrofuran-3-yl]-N'-[(5S)-5-(1-hydroxy-2-methyl-propyl)tetrahydrofuran-3-yl]adipamide
> <PUBCHEM_IUPAC_INCHI>
InChI=1S/C36H52N2O10/c1-21(2)29(39)27-15-25(19-45-27)37-35(43)33(47-17-23-11-7-5-8-12-23)31(41)32(42)34(48-18-24-13-9-6-10-14-24)36(44)38-26-16-28(46-20-26)30(40)22(3)4/h5-14,21-22,25-34,39-42H,15-20H2,1-4H3,(H,37,43)(H,38,44)/t25-,26?,27-,28-,29?,30?,31+,32+,33+,34+/m0/s1
> <PUBCHEM_IUPAC_INCHIKEY>
UALNQJIMWURDJX-AJFOMKBOSA-N
> <PUBCHEM_XLOGP3_AA>
3.2
> <PUBCHEM_EXACT_MASS>
672.36219586
> <PUBCHEM_MOLECULAR_FORMULA>
C36H52N2O10
> <PUBCHEM_MOLECULAR_WEIGHT>
672.8
> <PUBCHEM_OPENEYE_CAN_SMILES>
CC(C)C(C1CC(CO1)NC(=O)C(C(C(C(C(=O)NC2CC(OC2)C(C(C)C)O)OCC3=CC=CC=C3)O)O)OCC4=CC=CC=C4)O
> <PUBCHEM_OPENEYE_ISO_SMILES>
CC(C)C([C@@H]1C[C@@H](CO1)NC(=O)[C@@H]([C@@H]([C@H]([C@H](C(=O)NC2C[C@H](OC2)C(C(C)C)O)OCC3=CC=CC=C3)O)O)OCC4=CC=CC=C4)O
> <PUBCHEM_CACTVS_TPSA>
176
> <PUBCHEM_MONOISOTOPIC_WEIGHT>
672.36219586
> <PUBCHEM_TOTAL_CHARGE>
0
> <PUBCHEM_HEAVY_ATOM_COUNT>
48
> <PUBCHEM_ATOM_DEF_STEREO_COUNT>
7
> <PUBCHEM_ATOM_UDEF_STEREO_COUNT>
3
> <PUBCHEM_BOND_DEF_STEREO_COUNT>
0
> <PUBCHEM_BOND_UDEF_STEREO_COUNT>
0
> <PUBCHEM_ISOTOPIC_ATOM_COUNT>
0
> <PUBCHEM_COMPONENT_COUNT>
1
> <PUBCHEM_CACTVS_TAUTO_COUNT>
-1
> <PUBCHEM_COORDINATE_TYPE>
1
5
255
> <PUBCHEM_BONDANNOTATIONS>
17  11  5
18  12  3
13  19  5
14  20  6
19  3  3
37  39  8
37  40  8
38  41  8
38  42  8
39  43  8
20  4  3
40  44  8
41  45  8
42  46  8
43  47  8
44  47  8
45  48  8
46  48  8
27  5  5
28  6  5
25  7  6
26  8  6
$$$$
