503812
  -OEChem-10302200282D
 28 30  0     1  0  0  0  0  0999 V2000
    7.1279   -1.6329    0.0000 Cl  0  0  0  0  0  0  0  0  0  0  0  0
    2.0000   -0.6329    0.0000 Cl  0  0  0  0  0  0  0  0  0  0  0  0
    2.0000   -2.6329    0.0000 Cl  0  0  0  0  0  0  0  0  0  0  0  0
    5.2686    0.9324    0.0000 O   0  0  0  0  0  0  0  0  0  0  0  0
    7.6146   -0.1594    0.0000 O   0  0  0  0  0  0  0  0  0  0  0  0
    7.6183    2.0162    0.0000 O   0  0  0  0  0  0  0  0  0  0  0  0
    4.5981   -1.1329    0.0000 N   0  0  0  0  0  0  0  0  0  0  0  0
    5.5443   -2.4376    0.0000 N   0  0  0  0  0  0  0  0  0  0  0  0
    5.8550    0.1224    0.0000 C   0  0  1  0  0  0  0  0  0  0  0  0
    6.8066    0.4298    0.0000 C   0  0  1  0  0  0  0  0  0  0  0  0
    6.8083    1.4298    0.0000 C   0  0  1  0  0  0  0  0  0  0  0  0
    5.8578    1.7404    0.0000 C   0  0  0  0  0  0  0  0  0  0  0  0
    5.5443   -0.8281    0.0000 C   0  0  0  0  0  0  0  0  0  0  0  0
    6.1279   -1.6329    0.0000 C   0  0  0  0  0  0  0  0  0  0  0  0
    4.5981   -2.1329    0.0000 C   0  0  0  0  0  0  0  0  0  0  0  0
    3.7320   -0.6329    0.0000 C   0  0  0  0  0  0  0  0  0  0  0  0
    3.7320   -2.6329    0.0000 C   0  0  0  0  0  0  0  0  0  0  0  0
    2.8660   -1.1329    0.0000 C   0  0  0  0  0  0  0  0  0  0  0  0
    2.8660   -2.1329    0.0000 C   0  0  0  0  0  0  0  0  0  0  0  0
    6.4550   -0.4797    0.0000 H   0  0  0  0  0  0  0  0  0  0  0  0
    7.3595    0.7103    0.0000 H   0  0  0  0  0  0  0  0  0  0  0  0
    6.7124    2.0423    0.0000 H   0  0  0  0  0  0  0  0  0  0  0  0
    6.1109    2.3064    0.0000 H   0  0  0  0  0  0  0  0  0  0  0  0
    5.3214    2.0513    0.0000 H   0  0  0  0  0  0  0  0  0  0  0  0
    8.1814    0.0918    0.0000 H   0  0  0  0  0  0  0  0  0  0  0  0
    7.5546    2.6329    0.0000 H   0  0  0  0  0  0  0  0  0  0  0  0
    3.7320   -0.0129    0.0000 H   0  0  0  0  0  0  0  0  0  0  0  0
    3.7320   -3.2529    0.0000 H   0  0  0  0  0  0  0  0  0  0  0  0
  1 14  1  0  0  0  0
  2 18  1  0  0  0  0
  3 19  1  0  0  0  0
  4  9  1  0  0  0  0
  4 12  1  0  0  0  0
 10  5  1  1  0  0  0
  5 25  1  0  0  0  0
 11  6  1  1  0  0  0
  6 26  1  0  0  0  0
  7 13  1  0  0  0  0
  7 15  1  0  0  0  0
  7 16  1  0  0  0  0
  8 14  1  0  0  0  0
  8 15  2  0  0  0  0
  9 10  1  0  0  0  0
  9 13  1  0  0  0  0
  9 20  1  6  0  0  0
 10 11  1  0  0  0  0
 10 21  1  0  0  0  0
 11 12  1  0  0  0  0
 11 22  1  0  0  0  0
 12 23  1  0  0  0  0
 12 24  1  0  0  0  0
 13 14  2  0  0  0  0
 15 17  1  0  0  0  0
 16 18  2  0  0  0  0
 16 27  1  0  0  0  0
 17 19  2  0  0  0  0
 17 28  1  0  0  0  0
 18 19  1  0  0  0  0
M  END
> <PUBCHEM_COMPOUND_CID>
503812
> <PUBCHEM_COMPOUND_CANONICALIZED>
1
> <PUBCHEM_CACTVS_COMPLEXITY>
351
> <PUBCHEM_CACTVS_HBOND_ACCEPTOR>
4
> <PUBCHEM_CACTVS_HBOND_DONOR>
2
> <PUBCHEM_CACTVS_ROTATABLE_BOND>
1
> <PUBCHEM_CACTVS_SUBSKEYS>
AAADccBzMAAGAAAAAAAAAAAAAAAAAWJAAAAsAAAAAAAAAFgB4AAAHgIACAAACB7hlyY9sJ8MHgCgATZnZASCgC0xF6AB2mA4fpiLfGLBupnXYAhvwAPb6CewUAMAAAAAAAAAAAAAAAAAAAAAAAAAAAAAAA==
> <PUBCHEM_IUPAC_OPENEYE_NAME>
(2R,3R,4R)-2-(2,6,7-trichloroimidazo[1,2-a]pyridin-3-yl)tetrahydrofuran-3,4-diol
> <PUBCHEM_IUPAC_CAS_NAME>
(2R,3R,4R)-2-(2,6,7-trichloro-3-imidazo[1,2-a]pyridinyl)oxolane-3,4-diol
> <PUBCHEM_IUPAC_NAME_MARKUP>
(2<I>R</I>,3<I>R</I>,4<I>R</I>)-2-(2,6,7-trichloroimidazo[1,2-a]pyridin-3-yl)oxolane-3,4-diol
> <PUBCHEM_IUPAC_NAME>
(2R,3R,4R)-2-(2,6,7-trichloroimidazo[1,2-a]pyridin-3-yl)oxolane-3,4-diol
> <PUBCHEM_IUPAC_SYSTEMATIC_NAME>
(2R,3R,4R)-2-[2,6,7-tris(chloranyl)imidazo[1,2-a]pyridin-3-yl]oxolane-3,4-diol
> <PUBCHEM_IUPAC_TRADITIONAL_NAME>
(2R,3R,4R)-2-(2,6,7-trichloroimidazo[1,2-a]pyridin-3-yl)tetrahydrofuran-3,4-diol
> <PUBCHEM_IUPAC_INCHI>
InChI=1S/C11H9Cl3N2O3/c12-4-1-7-15-11(14)8(16(7)2-5(4)13)10-9(18)6(17)3-19-10/h1-2,6,9-10,17-18H,3H2/t6-,9-,10-/m1/s1
> <PUBCHEM_IUPAC_INCHIKEY>
FYCOLVKEQYLWQY-BDODKLCJSA-N
> <PUBCHEM_XLOGP3_AA>
2.2
> <PUBCHEM_EXACT_MASS>
321.967875
> <PUBCHEM_MOLECULAR_FORMULA>
C11H9Cl3N2O3
> <PUBCHEM_MOLECULAR_WEIGHT>
323.6
> <PUBCHEM_OPENEYE_CAN_SMILES>
C1C(C(C(O1)C2=C(N=C3N2C=C(C(=C3)Cl)Cl)Cl)O)O
> <PUBCHEM_OPENEYE_ISO_SMILES>
C1[C@H]([C@H]([C@H](O1)C2=C(N=C3N2C=C(C(=C3)Cl)Cl)Cl)O)O
> <PUBCHEM_CACTVS_TPSA>
67
> <PUBCHEM_MONOISOTOPIC_WEIGHT>
321.967875
> <PUBCHEM_TOTAL_CHARGE>
0
> <PUBCHEM_HEAVY_ATOM_COUNT>
19
> <PUBCHEM_ATOM_DEF_STEREO_COUNT>
3
> <PUBCHEM_ATOM_UDEF_STEREO_COUNT>
0
> <PUBCHEM_BOND_DEF_STEREO_COUNT>
0
> <PUBCHEM_BOND_UDEF_STEREO_COUNT>
0
> <PUBCHEM_ISOTOPIC_ATOM_COUNT>
0
> <PUBCHEM_COMPONENT_COUNT>
1
> <PUBCHEM_CACTVS_TAUTO_COUNT>
-1
> <PUBCHEM_COORDINATE_TYPE>
1
5
255
> <PUBCHEM_BONDANNOTATIONS>
13  14  8
15  17  8
16  18  8
17  19  8
18  19  8
10  5  5
11  6  5
7  13  8
7  15  8
7  16  8
8  14  8
8  15  8
9  20  6
$$$$
