503877
  -OEChem-10302200282D
 78 80  0     1  0  0  0  0  0999 V2000
    4.0010    4.3100    0.0000 S   0  0  0  0  0  0  0  0  0  0  0  0
    5.1619   12.2861    0.0000 O   0  0  0  0  0  0  0  0  0  0  0  0
    6.4352   10.6305    0.0000 O   0  0  0  0  0  0  0  0  0  0  0  0
    6.0850   13.8738    0.0000 O   0  0  0  0  0  0  0  0  0  0  0  0
    4.3529   16.8738    0.0000 O   0  0  0  0  0  0  0  0  0  0  0  0
    6.5991    2.8100    0.0000 O   0  0  0  0  0  0  0  0  0  0  0  0
    5.7331    7.3100    0.0000 O   0  0  0  0  0  0  0  0  0  0  0  0
    7.4651    4.3100    0.0000 O   0  0  0  0  0  0  0  0  0  0  0  0
    7.4651    0.3100    0.0000 O   0  0  0  0  0  0  0  0  0  0  0  0
    4.3529   13.8738    0.0000 N   0  0  0  0  0  0  0  0  0  0  0  0
    3.2651   10.5260    0.0000 N   0  0  0  0  0  0  0  0  0  0  0  0
    5.2189   15.3738    0.0000 N   0  0  0  0  0  0  0  0  0  0  0  0
    2.2706   10.6305    0.0000 N   0  3  0  0  0  0  0  0  0  0  0  0
    1.2761   10.7350    0.0000 N   0  5  0  0  0  0  0  0  0  0  0  0
    5.7331    4.3100    0.0000 N   0  0  0  0  0  0  0  0  0  0  0  0
    6.5991    5.8100    0.0000 N   0  0  0  0  0  0  0  0  0  0  0  0
    3.8529   11.3350    0.0000 C   0  0  1  0  0  0  0  0  0  0  0  0
    3.5439   12.2861    0.0000 C   0  0  0  0  0  0  0  0  0  0  0  0
    4.8529   11.3350    0.0000 C   0  0  1  0  0  0  0  0  0  0  0  0
    4.3529   12.8738    0.0000 C   0  0  1  0  0  0  0  0  0  0  0  0
    5.4407   10.5260    0.0000 C   0  0  0  0  0  0  0  0  0  0  0  0
    3.4869   14.3738    0.0000 C   0  0  0  0  0  0  0  0  0  0  0  0
    5.2189   14.3738    0.0000 C   0  0  0  0  0  0  0  0  0  0  0  0
    3.4869   15.3738    0.0000 C   0  0  0  0  0  0  0  0  0  0  0  0
    4.3529   15.8738    0.0000 C   0  0  0  0  0  0  0  0  0  0  0  0
    2.6209   15.8738    0.0000 C   0  0  0  0  0  0  0  0  0  0  0  0
    4.8671    5.8100    0.0000 C   0  0  0  0  0  0  0  0  0  0  0  0
    4.8671    4.8100    0.0000 C   0  0  0  0  0  0  0  0  0  0  0  0
    4.0010    6.3100    0.0000 C   0  0  0  0  0  0  0  0  0  0  0  0
    5.7331    3.3100    0.0000 C   0  0  0  0  0  0  0  0  0  0  0  0
    5.7331    6.3100    0.0000 C   0  0  0  0  0  0  0  0  0  0  0  0
    6.5991    4.8100    0.0000 C   0  0  0  0  0  0  0  0  0  0  0  0
    3.1350    4.8100    0.0000 C   0  0  0  0  0  0  0  0  0  0  0  0
    4.0010    7.3100    0.0000 C   0  0  0  0  0  0  0  0  0  0  0  0
    2.2690    4.3100    0.0000 C   0  0  0  0  0  0  0  0  0  0  0  0
    3.1350    5.8100    0.0000 C   0  0  0  0  0  0  0  0  0  0  0  0
    1.4030    4.8100    0.0000 C   0  0  0  0  0  0  0  0  0  0  0  0
    2.2690    6.3100    0.0000 C   0  0  0  0  0  0  0  0  0  0  0  0
    1.4030    5.8100    0.0000 C   0  0  0  0  0  0  0  0  0  0  0  0
    6.5991    1.8100    0.0000 C   0  0  0  0  0  0  0  0  0  0  0  0
    0.5369    4.3100    0.0000 C   0  0  0  0  0  0  0  0  0  0  0  0
    2.2690    7.3100    0.0000 C   0  0  0  0  0  0  0  0  0  0  0  0
    7.4651    1.3100    0.0000 C   0  0  0  0  0  0  0  0  0  0  0  0
    4.1344   10.7826    0.0000 H   0  0  0  0  0  0  0  0  0  0  0  0
    3.2339   12.8230    0.0000 H   0  0  0  0  0  0  0  0  0  0  0  0
    2.9775   12.0339    0.0000 H   0  0  0  0  0  0  0  0  0  0  0  0
    5.4653   11.4320    0.0000 H   0  0  0  0  0  0  0  0  0  0  0  0
    4.9053   13.1553    0.0000 H   0  0  0  0  0  0  0  0  0  0  0  0
    4.8834   10.2542    0.0000 H   0  0  0  0  0  0  0  0  0  0  0  0
    5.6116    9.9300    0.0000 H   0  0  0  0  0  0  0  0  0  0  0  0
    2.9500   14.0638    0.0000 H   0  0  0  0  0  0  0  0  0  0  0  0
    6.7996   10.1289    0.0000 H   0  0  0  0  0  0  0  0  0  0  0  0
    5.7559   15.6838    0.0000 H   0  0  0  0  0  0  0  0  0  0  0  0
    2.9309   16.4108    0.0000 H   0  0  0  0  0  0  0  0  0  0  0  0
    2.0839   16.1838    0.0000 H   0  0  0  0  0  0  0  0  0  0  0  0
    2.3109   15.3369    0.0000 H   0  0  0  0  0  0  0  0  0  0  0  0
    3.3905    6.4177    0.0000 H   0  0  0  0  0  0  0  0  0  0  0  0
    3.7890    5.7274    0.0000 H   0  0  0  0  0  0  0  0  0  0  0  0
    5.1225    3.4177    0.0000 H   0  0  0  0  0  0  0  0  0  0  0  0
    5.5210    2.7274    0.0000 H   0  0  0  0  0  0  0  0  0  0  0  0
    7.1360    6.1200    0.0000 H   0  0  0  0  0  0  0  0  0  0  0  0
    4.6210    7.3100    0.0000 H   0  0  0  0  0  0  0  0  0  0  0  0
    4.0010    7.9300    0.0000 H   0  0  0  0  0  0  0  0  0  0  0  0
    3.3810    7.3100    0.0000 H   0  0  0  0  0  0  0  0  0  0  0  0
    2.2690    3.6900    0.0000 H   0  0  0  0  0  0  0  0  0  0  0  0
    3.6720    6.1200    0.0000 H   0  0  0  0  0  0  0  0  0  0  0  0
    0.8660    6.1200    0.0000 H   0  0  0  0  0  0  0  0  0  0  0  0
    5.9885    1.9177    0.0000 H   0  0  0  0  0  0  0  0  0  0  0  0
    6.3871    1.2274    0.0000 H   0  0  0  0  0  0  0  0  0  0  0  0
    0.2269    4.8469    0.0000 H   0  0  0  0  0  0  0  0  0  0  0  0
    0.0000    4.0000    0.0000 H   0  0  0  0  0  0  0  0  0  0  0  0
    0.8469    3.7731    0.0000 H   0  0  0  0  0  0  0  0  0  0  0  0
    2.8890    7.3100    0.0000 H   0  0  0  0  0  0  0  0  0  0  0  0
    2.2690    7.9300    0.0000 H   0  0  0  0  0  0  0  0  0  0  0  0
    1.6490    7.3100    0.0000 H   0  0  0  0  0  0  0  0  0  0  0  0
    8.0757    1.2023    0.0000 H   0  0  0  0  0  0  0  0  0  0  0  0
    7.6772    1.8926    0.0000 H   0  0  0  0  0  0  0  0  0  0  0  0
    8.0021    0.0000    0.0000 H   0  0  0  0  0  0  0  0  0  0  0  0
  1 28  1  0  0  0  0
  1 33  1  0  0  0  0
  2 19  1  0  0  0  0
  2 20  1  0  0  0  0
  3 21  1  0  0  0  0
  3 52  1  0  0  0  0
  4 23  2  0  0  0  0
  5 25  2  0  0  0  0
  6 30  1  0  0  0  0
  6 40  1  0  0  0  0
  7 31  2  0  0  0  0
  8 32  2  0  0  0  0
  9 43  1  0  0  0  0
  9 78  1  0  0  0  0
 20 10  1  6  0  0  0
 10 22  1  0  0  0  0
 10 23  1  0  0  0  0
 11 13  2  0  0  0  0
 17 11  1  1  0  0  0
 12 23  1  0  0  0  0
 12 25  1  0  0  0  0
 12 53  1  0  0  0  0
 13 14  2  0  0  0  0
 15 28  1  0  0  0  0
 15 30  1  0  0  0  0
 15 32  1  0  0  0  0
 16 31  1  0  0  0  0
 16 32  1  0  0  0  0
 16 61  1  0  0  0  0
 17 18  1  0  0  0  0
 17 19  1  0  0  0  0
 17 44  1  0  0  0  0
 18 20  1  0  0  0  0
 18 45  1  0  0  0  0
 18 46  1  0  0  0  0
 19 21  1  6  0  0  0
 19 47  1  0  0  0  0
 20 48  1  0  0  0  0
 21 49  1  0  0  0  0
 21 50  1  0  0  0  0
 22 24  2  0  0  0  0
 22 51  1  0  0  0  0
 24 25  1  0  0  0  0
 24 26  1  0  0  0  0
 26 54  1  0  0  0  0
 26 55  1  0  0  0  0
 26 56  1  0  0  0  0
 27 28  2  0  0  0  0
 27 29  1  0  0  0  0
 27 31  1  0  0  0  0
 29 34  1  0  0  0  0
 29 57  1  0  0  0  0
 29 58  1  0  0  0  0
 30 59  1  0  0  0  0
 30 60  1  0  0  0  0
 33 35  2  0  0  0  0
 33 36  1  0  0  0  0
 34 62  1  0  0  0  0
 34 63  1  0  0  0  0
 34 64  1  0  0  0  0
 35 37  1  0  0  0  0
 35 65  1  0  0  0  0
 36 38  2  0  0  0  0
 36 66  1  0  0  0  0
 37 39  2  0  0  0  0
 37 41  1  0  0  0  0
 38 39  1  0  0  0  0
 38 42  1  0  0  0  0
 39 67  1  0  0  0  0
 40 43  1  0  0  0  0
 40 68  1  0  0  0  0
 40 69  1  0  0  0  0
 41 70  1  0  0  0  0
 41 71  1  0  0  0  0
 41 72  1  0  0  0  0
 42 73  1  0  0  0  0
 42 74  1  0  0  0  0
 42 75  1  0  0  0  0
 43 76  1  0  0  0  0
 43 77  1  0  0  0  0
M  CHG  2  13   1  14  -1
M  END
> <PUBCHEM_COMPOUND_CID>
503877
> <PUBCHEM_COMPOUND_CANONICALIZED>
1
> <PUBCHEM_CACTVS_COMPLEXITY>
983
> <PUBCHEM_CACTVS_HBOND_ACCEPTOR>
11
> <PUBCHEM_CACTVS_HBOND_DONOR>
4
> <PUBCHEM_CACTVS_ROTATABLE_BOND>
10
> <PUBCHEM_CACTVS_SUBSKEYS>
AAADcfB7vABAAAAAAAAAAAAAAAAAASAAAAAwQIAAAAAAAAABAAAAHgQYCAAADDzh2AYzAYPABgiKAiFWUACCAABgCBAAiBkIAMiLMDKg0RCPYAAuhyILiMewsEIOAAACgAAAAAAAAAUAAAAAAAAAAAAAAA==
> <PUBCHEM_IUPAC_OPENEYE_NAME>
1-[(2R,4S,5S)-4-azido-5-(hydroxymethyl)tetrahydrofuran-2-yl]-5-methyl-pyrimidine-2,4-dione;6-(3,5-dimethylphenyl)sulfanyl-5-ethyl-1-(2-hydroxyethoxymethyl)pyrimidine-2,4-dione
> <PUBCHEM_IUPAC_CAS_NAME>
1-[(2R,4S,5S)-4-azido-5-(hydroxymethyl)-2-oxolanyl]-5-methylpyrimidine-2,4-dione;6-[(3,5-dimethylphenyl)thio]-5-ethyl-1-(2-hydroxyethoxymethyl)pyrimidine-2,4-dione
> <PUBCHEM_IUPAC_NAME_MARKUP>
1-[(2<I>R</I>,4<I>S</I>,5<I>S</I>)-4-azido-5-(hydroxymethyl)oxolan-2-yl]-5-methylpyrimidine-2,4-dione;6-(3,5-dimethylphenyl)sulfanyl-5-ethyl-1-(2-hydroxyethoxymethyl)pyrimidine-2,4-dione
> <PUBCHEM_IUPAC_NAME>
1-[(2R,4S,5S)-4-azido-5-(hydroxymethyl)oxolan-2-yl]-5-methylpyrimidine-2,4-dione;6-(3,5-dimethylphenyl)sulfanyl-5-ethyl-1-(2-hydroxyethoxymethyl)pyrimidine-2,4-dione
> <PUBCHEM_IUPAC_SYSTEMATIC_NAME>
1-[(2R,4S,5S)-4-azido-5-(hydroxymethyl)oxolan-2-yl]-5-methyl-pyrimidine-2,4-dione;6-(3,5-dimethylphenyl)sulfanyl-5-ethyl-1-(2-hydroxyethyloxymethyl)pyrimidine-2,4-dione
> <PUBCHEM_IUPAC_TRADITIONAL_NAME>
1-[(2R,4S,5S)-4-azido-5-methylol-tetrahydrofuran-2-yl]-5-methyl-pyrimidine-2,4-quinone;6-[(3,5-dimethylphenyl)thio]-5-ethyl-1-(2-hydroxyethoxymethyl)pyrimidine-2,4-quinone
> <PUBCHEM_IUPAC_INCHI>
InChI=1S/C17H22N2O4S.C10H13N5O4/c1-4-14-15(21)18-17(22)19(10-23-6-5-20)16(14)24-13-8-11(2)7-12(3)9-13;1-5-3-15(10(18)12-9(5)17)8-2-6(13-14-11)7(4-16)19-8/h7-9,20H,4-6,10H2,1-3H3,(H,18,21,22);3,6-8,16H,2,4H2,1H3,(H,12,17,18)/t;6-,7+,8+/m.0/s1
> <PUBCHEM_IUPAC_INCHIKEY>
YZTYBBXDHQUQJX-XKPASDJRSA-N
> <PUBCHEM_EXACT_MASS>
617.22678227
> <PUBCHEM_MOLECULAR_FORMULA>
C27H35N7O8S
> <PUBCHEM_MOLECULAR_WEIGHT>
617.7
> <PUBCHEM_OPENEYE_CAN_SMILES>
CCC1=C(N(C(=O)NC1=O)COCCO)SC2=CC(=CC(=C2)C)C.CC1=CN(C(=O)NC1=O)C2CC(C(O2)CO)N=[N+]=[N-]
> <PUBCHEM_OPENEYE_ISO_SMILES>
CCC1=C(N(C(=O)NC1=O)COCCO)SC2=CC(=CC(=C2)C)C.CC1=CN(C(=O)NC1=O)[C@H]2C[C@@H]([C@H](O2)CO)N=[N+]=[N-]
> <PUBCHEM_CACTVS_TPSA>
197
> <PUBCHEM_MONOISOTOPIC_WEIGHT>
617.22678227
> <PUBCHEM_TOTAL_CHARGE>
0
> <PUBCHEM_HEAVY_ATOM_COUNT>
43
> <PUBCHEM_ATOM_DEF_STEREO_COUNT>
3
> <PUBCHEM_ATOM_UDEF_STEREO_COUNT>
0
> <PUBCHEM_BOND_DEF_STEREO_COUNT>
0
> <PUBCHEM_BOND_UDEF_STEREO_COUNT>
0
> <PUBCHEM_ISOTOPIC_ATOM_COUNT>
0
> <PUBCHEM_COMPONENT_COUNT>
2
> <PUBCHEM_CACTVS_TAUTO_COUNT>
-1
> <PUBCHEM_COORDINATE_TYPE>
1
5
255
> <PUBCHEM_BONDANNOTATIONS>
20  10  6
10  22  8
10  23  8
17  11  5
12  23  8
12  25  8
15  28  8
15  32  8
16  31  8
16  32  8
19  21  6
22  24  8
24  25  8
27  28  8
27  31  8
33  35  8
33  36  8
35  37  8
36  38  8
37  39  8
38  39  8
$$$$
