503819
  -OEChem-10302200282D
103105  0     1  0  0  0  0  0999 V2000
    5.8999   -0.4353    0.0000 O   0  0  0  0  0  0  0  0  0  0  0  0
    5.8999   -1.4353    0.0000 O   0  0  0  0  0  0  0  0  0  0  0  0
    7.6320    1.5647    0.0000 O   0  0  0  0  0  0  0  0  0  0  0  0
    4.7975    2.0858    0.0000 O   0  0  0  0  0  0  0  0  0  0  0  0
    3.0810    5.0288    0.0000 O   0  0  0  0  0  0  0  0  0  0  0  0
    6.7436    6.9483    0.0000 O   0  0  0  0  0  0  0  0  0  0  0  0
    6.7660   -4.9354    0.0000 O   0  0  0  0  0  0  0  0  0  0  0  0
    3.3019   -5.9354    0.0000 O   0  0  0  0  0  0  0  0  0  0  0  0
    7.6320   -1.4353    0.0000 N   0  0  0  0  0  0  0  0  0  0  0  0
    5.8999    1.5647    0.0000 N   0  0  0  0  0  0  0  0  0  0  0  0
    4.0822    3.0517    0.0000 N   0  0  0  0  0  0  0  0  0  0  0  0
    5.8999   -3.4354    0.0000 N   0  0  0  0  0  0  0  0  0  0  0  0
    3.5951    6.1046    0.0000 N   0  0  0  0  0  0  0  0  0  0  0  0
    5.0339   -5.9354    0.0000 N   0  0  0  0  0  0  0  0  0  0  0  0
    7.6320   -0.4353    0.0000 C   0  0  2  0  0  0  0  0  0  0  0  0
    6.7660    0.0647    0.0000 C   0  0  2  0  0  0  0  0  0  0  0  0
    6.7660   -2.9354    0.0000 C   0  0  1  0  0  0  0  0  0  0  0  0
    7.6320   -3.4354    0.0000 C   0  0  0  0  0  0  0  0  0  0  0  0
    8.4980    0.0647    0.0000 C   0  0  0  0  0  0  0  0  0  0  0  0
    5.8999    2.5646    0.0000 C   0  0  1  0  0  0  0  0  0  0  0  0
    3.5951    3.8954    0.0000 C   0  0  1  0  0  0  0  0  0  0  0  0
    6.7660   -1.9354    0.0000 C   0  0  0  0  0  0  0  0  0  0  0  0
    2.6027    3.7724    0.0000 C   0  0  0  0  0  0  0  0  0  0  0  0
    6.7660    1.0647    0.0000 C   0  0  0  0  0  0  0  0  0  0  0  0
    6.7436    3.0517    0.0000 C   0  0  0  0  0  0  0  0  0  0  0  0
    5.0563    3.0517    0.0000 C   0  0  0  0  0  0  0  0  0  0  0  0
    9.3640   -0.4353    0.0000 C   0  0  0  0  0  0  0  0  0  0  0  0
    7.6320   -4.4354    0.0000 C   0  0  0  0  0  0  0  0  0  0  0  0
    8.4980   -2.9354    0.0000 C   0  0  0  0  0  0  0  0  0  0  0  0
    4.0809    5.0433    0.0000 C   0  0  0  0  0  0  0  0  0  0  0  0
    2.2129    2.8515    0.0000 C   0  0  0  0  0  0  0  0  0  0  0  0
    2.0000    4.5704    0.0000 C   0  0  0  0  0  0  0  0  0  0  0  0
    6.7436    4.0259    0.0000 C   0  0  0  0  0  0  0  0  0  0  0  0
    5.8999   -4.4354    0.0000 C   0  0  0  0  0  0  0  0  0  0  0  0
    5.0339   -4.9354    0.0000 C   0  0  2  0  0  0  0  0  0  0  0  0
   10.2301    0.0647    0.0000 C   0  0  0  0  0  0  0  0  0  0  0  0
    9.3640   -1.4353    0.0000 C   0  0  0  0  0  0  0  0  0  0  0  0
    4.0822    6.9483    0.0000 C   0  0  0  0  0  0  0  0  0  0  0  0
    7.5872    4.5129    0.0000 C   0  0  0  0  0  0  0  0  0  0  0  0
    5.8999    4.5129    0.0000 C   0  0  0  0  0  0  0  0  0  0  0  0
    5.0563    6.9483    0.0000 C   0  0  0  0  0  0  0  0  0  0  0  0
    5.8999    7.4354    0.0000 C   0  0  0  0  0  0  0  0  0  0  0  0
   11.0961   -0.4353    0.0000 C   0  0  0  0  0  0  0  0  0  0  0  0
   10.2301   -1.9353    0.0000 C   0  0  0  0  0  0  0  0  0  0  0  0
    6.7436    5.9741    0.0000 C   0  0  0  0  0  0  0  0  0  0  0  0
    7.5872    5.4871    0.0000 C   0  0  0  0  0  0  0  0  0  0  0  0
    5.8999    5.4871    0.0000 C   0  0  0  0  0  0  0  0  0  0  0  0
    4.1679   -4.4354    0.0000 C   0  0  0  0  0  0  0  0  0  0  0  0
   11.0961   -1.4353    0.0000 C   0  0  0  0  0  0  0  0  0  0  0  0
    4.1679   -6.4354    0.0000 C   0  0  0  0  0  0  0  0  0  0  0  0
    4.1679   -7.4354    0.0000 C   0  0  0  0  0  0  0  0  0  0  0  0
    8.1689   -0.7453    0.0000 H   0  0  0  0  0  0  0  0  0  0  0  0
    6.7660   -0.5553    0.0000 H   0  0  0  0  0  0  0  0  0  0  0  0
    6.2290   -2.6254    0.0000 H   0  0  0  0  0  0  0  0  0  0  0  0
    8.1689   -3.7454    0.0000 H   0  0  0  0  0  0  0  0  0  0  0  0
    8.8965    0.5396    0.0000 H   0  0  0  0  0  0  0  0  0  0  0  0
    8.0995    0.5396    0.0000 H   0  0  0  0  0  0  0  0  0  0  0  0
    5.3630    2.2546    0.0000 H   0  0  0  0  0  0  0  0  0  0  0  0
    8.1689   -1.7454    0.0000 H   0  0  0  0  0  0  0  0  0  0  0  0
    3.3187    3.3403    0.0000 H   0  0  0  0  0  0  0  0  0  0  0  0
    1.9874    3.6962    0.0000 H   0  0  0  0  0  0  0  0  0  0  0  0
    6.9556    2.4691    0.0000 H   0  0  0  0  0  0  0  0  0  0  0  0
    7.3541    3.1594    0.0000 H   0  0  0  0  0  0  0  0  0  0  0  0
    5.3630    1.2546    0.0000 H   0  0  0  0  0  0  0  0  0  0  0  0
    3.7722    2.5148    0.0000 H   0  0  0  0  0  0  0  0  0  0  0  0
    5.3630   -3.1254    0.0000 H   0  0  0  0  0  0  0  0  0  0  0  0
    7.0120   -4.4354    0.0000 H   0  0  0  0  0  0  0  0  0  0  0  0
    7.6320   -5.0554    0.0000 H   0  0  0  0  0  0  0  0  0  0  0  0
    8.2520   -4.4354    0.0000 H   0  0  0  0  0  0  0  0  0  0  0  0
    8.8080   -3.4723    0.0000 H   0  0  0  0  0  0  0  0  0  0  0  0
    9.0349   -2.6254    0.0000 H   0  0  0  0  0  0  0  0  0  0  0  0
    8.1880   -2.3984    0.0000 H   0  0  0  0  0  0  0  0  0  0  0  0
    1.6420    3.0931    0.0000 H   0  0  0  0  0  0  0  0  0  0  0  0
    1.9713    2.2805    0.0000 H   0  0  0  0  0  0  0  0  0  0  0  0
    2.7839    2.6098    0.0000 H   0  0  0  0  0  0  0  0  0  0  0  0
    2.4947    4.9441    0.0000 H   0  0  0  0  0  0  0  0  0  0  0  0
    1.6263    5.0652    0.0000 H   0  0  0  0  0  0  0  0  0  0  0  0
    1.5052    4.1968    0.0000 H   0  0  0  0  0  0  0  0  0  0  0  0
    5.3630   -0.1254    0.0000 H   0  0  0  0  0  0  0  0  0  0  0  0
    2.9778    6.1630    0.0000 H   0  0  0  0  0  0  0  0  0  0  0  0
    4.4970   -5.2454    0.0000 H   0  0  0  0  0  0  0  0  0  0  0  0
   10.2301    0.6847    0.0000 H   0  0  0  0  0  0  0  0  0  0  0  0
    8.8271   -1.7454    0.0000 H   0  0  0  0  0  0  0  0  0  0  0  0
    4.1898    7.5589    0.0000 H   0  0  0  0  0  0  0  0  0  0  0  0
    3.4996    7.1603    0.0000 H   0  0  0  0  0  0  0  0  0  0  0  0
    8.1241    4.2029    0.0000 H   0  0  0  0  0  0  0  0  0  0  0  0
    5.3630    4.2029    0.0000 H   0  0  0  0  0  0  0  0  0  0  0  0
    4.8442    6.3657    0.0000 H   0  0  0  0  0  0  0  0  0  0  0  0
    4.8958    7.5472    0.0000 H   0  0  0  0  0  0  0  0  0  0  0  0
    6.2985    7.9103    0.0000 H   0  0  0  0  0  0  0  0  0  0  0  0
    5.5014    7.9103    0.0000 H   0  0  0  0  0  0  0  0  0  0  0  0
   11.6330   -0.1253    0.0000 H   0  0  0  0  0  0  0  0  0  0  0  0
   10.2301   -2.5553    0.0000 H   0  0  0  0  0  0  0  0  0  0  0  0
    8.1241    5.7971    0.0000 H   0  0  0  0  0  0  0  0  0  0  0  0
    5.3630    5.7971    0.0000 H   0  0  0  0  0  0  0  0  0  0  0  0
    4.4779   -3.8984    0.0000 H   0  0  0  0  0  0  0  0  0  0  0  0
    3.6310   -4.1254    0.0000 H   0  0  0  0  0  0  0  0  0  0  0  0
    3.8579   -4.9723    0.0000 H   0  0  0  0  0  0  0  0  0  0  0  0
    5.5708   -6.2454    0.0000 H   0  0  0  0  0  0  0  0  0  0  0  0
   11.6330   -1.7453    0.0000 H   0  0  0  0  0  0  0  0  0  0  0  0
    3.5479   -7.4354    0.0000 H   0  0  0  0  0  0  0  0  0  0  0  0
    4.1679   -8.0554    0.0000 H   0  0  0  0  0  0  0  0  0  0  0  0
    4.7879   -7.4354    0.0000 H   0  0  0  0  0  0  0  0  0  0  0  0
 16  1  1  1  0  0  0
  1 79  1  0  0  0  0
  2 22  2  0  0  0  0
  3 24  2  0  0  0  0
  4 26  2  0  0  0  0
  5 30  2  0  0  0  0
  6 42  1  0  0  0  0
  6 45  1  0  0  0  0
  7 34  2  0  0  0  0
  8 50  2  0  0  0  0
 15  9  1  6  0  0  0
  9 22  1  0  0  0  0
  9 59  1  0  0  0  0
 20 10  1  6  0  0  0
 10 24  1  0  0  0  0
 10 64  1  0  0  0  0
 11 21  1  0  0  0  0
 11 26  1  0  0  0  0
 11 65  1  0  0  0  0
 17 12  1  6  0  0  0
 12 34  1  0  0  0  0
 12 66  1  0  0  0  0
 13 30  1  0  0  0  0
 13 38  1  0  0  0  0
 13 80  1  0  0  0  0
 35 14  1  1  0  0  0
 14 50  1  0  0  0  0
 14 99  1  0  0  0  0
 15 16  1  0  0  0  0
 15 19  1  0  0  0  0
 15 52  1  0  0  0  0
 16 24  1  0  0  0  0
 16 53  1  0  0  0  0
 17 18  1  0  0  0  0
 17 22  1  0  0  0  0
 17 54  1  0  0  0  0
 18 28  1  0  0  0  0
 18 29  1  0  0  0  0
 18 55  1  0  0  0  0
 19 27  1  0  0  0  0
 19 56  1  0  0  0  0
 19 57  1  0  0  0  0
 20 25  1  0  0  0  0
 20 26  1  0  0  0  0
 20 58  1  0  0  0  0
 21 23  1  1  0  0  0
 21 30  1  0  0  0  0
 21 60  1  0  0  0  0
 23 31  1  0  0  0  0
 23 32  1  0  0  0  0
 23 61  1  0  0  0  0
 25 33  1  0  0  0  0
 25 62  1  0  0  0  0
 25 63  1  0  0  0  0
 27 36  2  0  0  0  0
 27 37  1  0  0  0  0
 28 67  1  0  0  0  0
 28 68  1  0  0  0  0
 28 69  1  0  0  0  0
 29 70  1  0  0  0  0
 29 71  1  0  0  0  0
 29 72  1  0  0  0  0
 31 73  1  0  0  0  0
 31 74  1  0  0  0  0
 31 75  1  0  0  0  0
 32 76  1  0  0  0  0
 32 77  1  0  0  0  0
 32 78  1  0  0  0  0
 33 39  2  0  0  0  0
 33 40  1  0  0  0  0
 34 35  1  0  0  0  0
 35 48  1  0  0  0  0
 35 81  1  0  0  0  0
 36 43  1  0  0  0  0
 36 82  1  0  0  0  0
 37 44  2  0  0  0  0
 37 83  1  0  0  0  0
 38 41  1  0  0  0  0
 38 84  1  0  0  0  0
 38 85  1  0  0  0  0
 39 46  1  0  0  0  0
 39 86  1  0  0  0  0
 40 47  2  0  0  0  0
 40 87  1  0  0  0  0
 41 42  1  0  0  0  0
 41 88  1  0  0  0  0
 41 89  1  0  0  0  0
 42 90  1  0  0  0  0
 42 91  1  0  0  0  0
 43 49  2  0  0  0  0
 43 92  1  0  0  0  0
 44 49  1  0  0  0  0
 44 93  1  0  0  0  0
 45 46  2  0  0  0  0
 45 47  1  0  0  0  0
 46 94  1  0  0  0  0
 47 95  1  0  0  0  0
 48 96  1  0  0  0  0
 48 97  1  0  0  0  0
 48 98  1  0  0  0  0
 49100  1  0  0  0  0
 50 51  1  0  0  0  0
 51101  1  0  0  0  0
 51102  1  0  0  0  0
 51103  1  0  0  0  0
M  END
> <PUBCHEM_COMPOUND_CID>
503819
> <PUBCHEM_COMPOUND_CANONICALIZED>
1
> <PUBCHEM_CACTVS_COMPLEXITY>
1180
> <PUBCHEM_CACTVS_HBOND_ACCEPTOR>
8
> <PUBCHEM_CACTVS_HBOND_DONOR>
7
> <PUBCHEM_CACTVS_ROTATABLE_BOND>
12
> <PUBCHEM_CACTVS_SUBSKEYS>
AAADcfB/vAAAAAAAAAAAAAAAAAAAAAAAAAAwYAAAAAAAAAABQAAAHgAQCAAADTzhmAYyBoLABgCIAiFSEAICCAAgIAAIiIHOCIgOdjqE8TuWeCCm1hGYqAeYyKCOIAAAAAAAAABAAAAAAAAAAAAAAAAAAA==
> <PUBCHEM_IUPAC_OPENEYE_NAME>
(2S)-2-[[(2S)-2-acetamidopropanoyl]amino]-N-[(1S,2R)-1-benzyl-2-hydroxy-3-[[(8S,11S)-8-isopropyl-7,10-dioxo-2-oxa-6,9-diazabicyclo[11.2.2]heptadeca-1(15),13,16-trien-11-yl]amino]-3-oxo-propyl]-3-methyl-butanamide
> <PUBCHEM_IUPAC_CAS_NAME>
(2S)-2-[[(2S)-2-acetamido-1-oxopropyl]amino]-N-[(2S,3R)-4-[[(8S,11S)-7,10-dioxo-8-propan-2-yl-2-oxa-6,9-diazabicyclo[11.2.2]heptadeca-1(15),13,16-trien-11-yl]amino]-3-hydroxy-4-oxo-1-phenylbutan-2-yl]-3-methylbutanamide
> <PUBCHEM_IUPAC_NAME_MARKUP>
(2<I>S</I>)-2-[[(2<I>S</I>)-2-acetamidopropanoyl]amino]-<I>N</I>-[(2<I>S</I>,3<I>R</I>)-4-[[(8<I>S</I>,11<I>S</I>)-7,10-dioxo-8-propan-2-yl-2-oxa-6,9-diazabicyclo[11.2.2]heptadeca-1(15),13,16-trien-11-yl]amino]-3-hydroxy-4-oxo-1-phenylbutan-2-yl]-3-methylbutanamide
> <PUBCHEM_IUPAC_NAME>
(2S)-2-[[(2S)-2-acetamidopropanoyl]amino]-N-[(2S,3R)-4-[[(8S,11S)-7,10-dioxo-8-propan-2-yl-2-oxa-6,9-diazabicyclo[11.2.2]heptadeca-1(15),13,16-trien-11-yl]amino]-3-hydroxy-4-oxo-1-phenylbutan-2-yl]-3-methylbutanamide
> <PUBCHEM_IUPAC_SYSTEMATIC_NAME>
(2S)-2-[[(2S)-2-acetamidopropanoyl]amino]-N-[(2S,3R)-4-[[(8S,11S)-7,10-bis(oxidanylidene)-8-propan-2-yl-2-oxa-6,9-diazabicyclo[11.2.2]heptadeca-1(15),13,16-trien-11-yl]amino]-3-oxidanyl-4-oxidanylidene-1-phenyl-butan-2-yl]-3-methyl-butanamide
> <PUBCHEM_IUPAC_TRADITIONAL_NAME>
(2S)-2-[[(2S)-2-acetamidopropanoyl]amino]-N-[(1S,2R)-1-benzyl-2-hydroxy-3-[[(8S,11S)-8-isopropyl-7,10-diketo-2-oxa-6,9-diazabicyclo[11.2.2]heptadeca-1(15),13,16-trien-11-yl]amino]-3-keto-propyl]-3-methyl-butyramide
> <PUBCHEM_IUPAC_INCHI>
InChI=1S/C37H52N6O8/c1-21(2)30-35(48)38-17-10-18-51-27-15-13-26(14-16-27)20-29(34(47)43-30)41-37(50)32(45)28(19-25-11-8-7-9-12-25)40-36(49)31(22(3)4)42-33(46)23(5)39-24(6)44/h7-9,11-16,21-23,28-32,45H,10,17-20H2,1-6H3,(H,38,48)(H,39,44)(H,40,49)(H,41,50)(H,42,46)(H,43,47)/t23-,28-,29-,30-,31-,32+/m0/s1
> <PUBCHEM_IUPAC_INCHIKEY>
GISDYAFZNKXPOD-TYOPREAOSA-N
> <PUBCHEM_XLOGP3_AA>
2.9
> <PUBCHEM_EXACT_MASS>
708.38466264
> <PUBCHEM_MOLECULAR_FORMULA>
C37H52N6O8
> <PUBCHEM_MOLECULAR_WEIGHT>
708.8
> <PUBCHEM_OPENEYE_CAN_SMILES>
CC(C)C1C(=O)NCCCOC2=CC=C(CC(C(=O)N1)NC(=O)C(C(CC3=CC=CC=C3)NC(=O)C(C(C)C)NC(=O)C(C)NC(=O)C)O)C=C2
> <PUBCHEM_OPENEYE_ISO_SMILES>
C[C@@H](C(=O)N[C@@H](C(C)C)C(=O)N[C@@H](CC1=CC=CC=C1)[C@H](C(=O)N[C@H]2CC3=CC=C(C=C3)OCCCNC(=O)[C@@H](NC2=O)C(C)C)O)NC(=O)C
> <PUBCHEM_CACTVS_TPSA>
204
> <PUBCHEM_MONOISOTOPIC_WEIGHT>
708.38466264
> <PUBCHEM_TOTAL_CHARGE>
0
> <PUBCHEM_HEAVY_ATOM_COUNT>
51
> <PUBCHEM_ATOM_DEF_STEREO_COUNT>
6
> <PUBCHEM_ATOM_UDEF_STEREO_COUNT>
0
> <PUBCHEM_BOND_DEF_STEREO_COUNT>
0
> <PUBCHEM_BOND_UDEF_STEREO_COUNT>
0
> <PUBCHEM_ISOTOPIC_ATOM_COUNT>
0
> <PUBCHEM_COMPONENT_COUNT>
1
> <PUBCHEM_CACTVS_TAUTO_COUNT>
-1
> <PUBCHEM_COORDINATE_TYPE>
1
5
255
> <PUBCHEM_BONDANNOTATIONS>
16  1  5
20  10  6
17  12  6
35  14  5
21  23  5
27  36  8
27  37  8
33  39  8
33  40  8
36  43  8
37  44  8
39  46  8
40  47  8
43  49  8
44  49  8
45  46  8
45  47  8
15  9  6
$$$$
