503804
  -OEChem-10302200282D
 85 89  0     1  0  0  0  0  0999 V2000
   10.1484    3.6831    0.0000 O   0  0  0  0  0  0  0  0  0  0  0  0
    6.2619   -4.3171    0.0000 O   0  0  0  0  0  0  0  0  0  0  0  0
    5.6103   -0.6608    0.0000 O   0  0  0  0  0  0  0  0  0  0  0  0
    9.2136   -0.7865    0.0000 O   0  0  0  0  0  0  0  0  0  0  0  0
    7.9244   -1.9432    0.0000 O   0  0  0  0  0  0  0  0  0  0  0  0
    6.8994    0.4959    0.0000 O   0  0  0  0  0  0  0  0  0  0  0  0
   11.8062    4.9536    0.0000 O   0  0  0  0  0  0  0  0  0  0  0  0
    6.6353   -3.0999    0.0000 O   0  0  0  0  0  0  0  0  0  0  0  0
    8.1886    1.6527    0.0000 O   0  0  0  0  0  0  0  0  0  0  0  0
    4.9889   -2.5619    0.0000 N   0  0  0  0  0  0  0  0  0  0  0  0
    9.8349    1.1146    0.0000 N   0  0  0  0  0  0  0  0  0  0  0  0
    4.6783   -3.5124    0.0000 C   0  0  2  0  0  0  0  0  0  0  0  0
    5.2619   -4.3171    0.0000 C   0  0  1  0  0  0  0  0  0  0  0  0
   10.1456    2.0651    0.0000 C   0  0  3  0  0  0  0  0  0  0  0  0
    4.6783   -5.1218    0.0000 C   0  0  0  0  0  0  0  0  0  0  0  0
    3.7320   -3.8171    0.0000 C   0  0  0  0  0  0  0  0  0  0  0  0
   11.0972    2.3725    0.0000 C   0  0  0  0  0  0  0  0  0  0  0  0
    3.7320   -4.8171    0.0000 C   0  0  0  0  0  0  0  0  0  0  0  0
   11.0989    3.3725    0.0000 C   0  0  1  0  0  0  0  0  0  0  0  0
    9.5592    2.8751    0.0000 C   0  0  0  0  0  0  0  0  0  0  0  0
    7.2566   -1.1989    0.0000 C   0  0  2  0  0  0  0  0  0  0  0  0
    7.5673   -0.2484    0.0000 C   0  0  2  0  0  0  0  0  0  0  0  0
    6.2781   -1.4051    0.0000 C   0  0  2  0  0  0  0  0  0  0  0  0
    8.5458   -0.0422    0.0000 C   0  0  2  0  0  0  0  0  0  0  0  0
    5.9674   -2.3556    0.0000 C   0  0  0  0  0  0  0  0  0  0  0  0
    2.8660   -3.3171    0.0000 C   0  0  0  0  0  0  0  0  0  0  0  0
    8.8564    0.9084    0.0000 C   0  0  0  0  0  0  0  0  0  0  0  0
    2.8660   -5.3171    0.0000 C   0  0  0  0  0  0  0  0  0  0  0  0
   11.9090    3.9588    0.0000 C   0  0  0  0  0  0  0  0  0  0  0  0
    2.0000   -3.8171    0.0000 C   0  0  0  0  0  0  0  0  0  0  0  0
    2.0000   -4.8171    0.0000 C   0  0  0  0  0  0  0  0  0  0  0  0
    5.9209    0.2897    0.0000 C   0  0  0  0  0  0  0  0  0  0  0  0
   10.1921   -0.5802    0.0000 C   0  0  0  0  0  0  0  0  0  0  0  0
    5.2531    1.0340    0.0000 C   0  0  0  0  0  0  0  0  0  0  0  0
   10.8600   -1.3245    0.0000 C   0  0  0  0  0  0  0  0  0  0  0  0
    4.2746    0.8278    0.0000 C   0  0  0  0  0  0  0  0  0  0  0  0
    5.5637    1.9845    0.0000 C   0  0  0  0  0  0  0  0  0  0  0  0
   11.8385   -1.1183    0.0000 C   0  0  0  0  0  0  0  0  0  0  0  0
   10.5493   -2.2751    0.0000 C   0  0  0  0  0  0  0  0  0  0  0  0
    3.6067    1.5721    0.0000 C   0  0  0  0  0  0  0  0  0  0  0  0
    4.8959    2.7288    0.0000 C   0  0  0  0  0  0  0  0  0  0  0  0
   12.5063   -1.8626    0.0000 C   0  0  0  0  0  0  0  0  0  0  0  0
   11.2171   -3.0194    0.0000 C   0  0  0  0  0  0  0  0  0  0  0  0
    3.9174    2.5226    0.0000 C   0  0  0  0  0  0  0  0  0  0  0  0
   12.1957   -2.8131    0.0000 C   0  0  0  0  0  0  0  0  0  0  0  0
    5.2908   -3.4162    0.0000 H   0  0  0  0  0  0  0  0  0  0  0  0
    5.5436   -4.8694    0.0000 H   0  0  0  0  0  0  0  0  0  0  0  0
   10.5833    1.6259    0.0000 H   0  0  0  0  0  0  0  0  0  0  0  0
    4.4272   -5.6888    0.0000 H   0  0  0  0  0  0  0  0  0  0  0  0
    5.2156   -5.4311    0.0000 H   0  0  0  0  0  0  0  0  0  0  0  0
   11.2251    1.7658    0.0000 H   0  0  0  0  0  0  0  0  0  0  0  0
   11.7139    2.4362    0.0000 H   0  0  0  0  0  0  0  0  0  0  0  0
   11.0030    3.9850    0.0000 H   0  0  0  0  0  0  0  0  0  0  0  0
    9.0992    3.2908    0.0000 H   0  0  0  0  0  0  0  0  0  0  0  0
    9.0978    2.4611    0.0000 H   0  0  0  0  0  0  0  0  0  0  0  0
    4.5749   -2.1004    0.0000 H   0  0  0  0  0  0  0  0  0  0  0  0
    7.0640   -1.7882    0.0000 H   0  0  0  0  0  0  0  0  0  0  0  0
    6.9606   -0.3762    0.0000 H   0  0  0  0  0  0  0  0  0  0  0  0
    5.6714   -1.5330    0.0000 H   0  0  0  0  0  0  0  0  0  0  0  0
    8.3532   -0.6315    0.0000 H   0  0  0  0  0  0  0  0  0  0  0  0
   10.2490    0.6531    0.0000 H   0  0  0  0  0  0  0  0  0  0  0  0
    2.8660   -2.6971    0.0000 H   0  0  0  0  0  0  0  0  0  0  0  0
   12.1798    3.4011    0.0000 H   0  0  0  0  0  0  0  0  0  0  0  0
   12.5052    4.1287    0.0000 H   0  0  0  0  0  0  0  0  0  0  0  0
    2.8660   -5.9371    0.0000 H   0  0  0  0  0  0  0  0  0  0  0  0
    6.5719   -4.8540    0.0000 H   0  0  0  0  0  0  0  0  0  0  0  0
    1.4631   -3.5071    0.0000 H   0  0  0  0  0  0  0  0  0  0  0  0
    1.4631   -5.1271    0.0000 H   0  0  0  0  0  0  0  0  0  0  0  0
    8.5311   -1.8154    0.0000 H   0  0  0  0  0  0  0  0  0  0  0  0
    7.0920    1.0852    0.0000 H   0  0  0  0  0  0  0  0  0  0  0  0
    6.4678   -0.0023    0.0000 H   0  0  0  0  0  0  0  0  0  0  0  0
    6.3035    0.7776    0.0000 H   0  0  0  0  0  0  0  0  0  0  0  0
   10.7185   -0.2526    0.0000 H   0  0  0  0  0  0  0  0  0  0  0  0
    9.9609   -0.0050    0.0000 H   0  0  0  0  0  0  0  0  0  0  0  0
   12.3084    5.3171    0.0000 H   0  0  0  0  0  0  0  0  0  0  0  0
    4.0820    0.2385    0.0000 H   0  0  0  0  0  0  0  0  0  0  0  0
    6.1704    2.1124    0.0000 H   0  0  0  0  0  0  0  0  0  0  0  0
   12.0311   -0.5290    0.0000 H   0  0  0  0  0  0  0  0  0  0  0  0
    9.9426   -2.4029    0.0000 H   0  0  0  0  0  0  0  0  0  0  0  0
    3.0000    1.4442    0.0000 H   0  0  0  0  0  0  0  0  0  0  0  0
    5.0885    3.3182    0.0000 H   0  0  0  0  0  0  0  0  0  0  0  0
   13.1130   -1.7348    0.0000 H   0  0  0  0  0  0  0  0  0  0  0  0
   11.0245   -3.6087    0.0000 H   0  0  0  0  0  0  0  0  0  0  0  0
    3.5033    2.9841    0.0000 H   0  0  0  0  0  0  0  0  0  0  0  0
   12.6097   -3.2746    0.0000 H   0  0  0  0  0  0  0  0  0  0  0  0
  1 19  1  0  0  0  0
  1 20  1  0  0  0  0
 13  2  1  6  0  0  0
  2 66  1  0  0  0  0
 23  3  1  6  0  0  0
  3 32  1  0  0  0  0
 24  4  1  6  0  0  0
  4 33  1  0  0  0  0
 21  5  1  1  0  0  0
  5 69  1  0  0  0  0
 22  6  1  1  0  0  0
  6 70  1  0  0  0  0
  7 29  1  0  0  0  0
  7 75  1  0  0  0  0
  8 25  2  0  0  0  0
  9 27  2  0  0  0  0
 12 10  1  6  0  0  0
 10 25  1  0  0  0  0
 10 56  1  0  0  0  0
 11 14  1  0  0  0  0
 11 27  1  0  0  0  0
 11 61  1  0  0  0  0
 12 13  1  0  0  0  0
 12 16  1  0  0  0  0
 12 46  1  0  0  0  0
 13 15  1  0  0  0  0
 13 47  1  0  0  0  0
 14 17  1  0  0  0  0
 14 20  1  0  0  0  0
 14 48  1  0  0  0  0
 15 18  1  0  0  0  0
 15 49  1  0  0  0  0
 15 50  1  0  0  0  0
 16 18  1  0  0  0  0
 16 26  2  0  0  0  0
 17 19  1  0  0  0  0
 17 51  1  0  0  0  0
 17 52  1  0  0  0  0
 18 28  2  0  0  0  0
 19 29  1  6  0  0  0
 19 53  1  0  0  0  0
 20 54  1  0  0  0  0
 20 55  1  0  0  0  0
 21 22  1  0  0  0  0
 21 23  1  0  0  0  0
 21 57  1  0  0  0  0
 22 24  1  0  0  0  0
 22 58  1  0  0  0  0
 23 25  1  0  0  0  0
 23 59  1  0  0  0  0
 24 27  1  0  0  0  0
 24 60  1  0  0  0  0
 26 30  1  0  0  0  0
 26 62  1  0  0  0  0
 28 31  1  0  0  0  0
 28 65  1  0  0  0  0
 29 63  1  0  0  0  0
 29 64  1  0  0  0  0
 30 31  2  0  0  0  0
 30 67  1  0  0  0  0
 31 68  1  0  0  0  0
 32 34  1  0  0  0  0
 32 71  1  0  0  0  0
 32 72  1  0  0  0  0
 33 35  1  0  0  0  0
 33 73  1  0  0  0  0
 33 74  1  0  0  0  0
 34 36  2  0  0  0  0
 34 37  1  0  0  0  0
 35 38  2  0  0  0  0
 35 39  1  0  0  0  0
 36 40  1  0  0  0  0
 36 76  1  0  0  0  0
 37 41  2  0  0  0  0
 37 77  1  0  0  0  0
 38 42  1  0  0  0  0
 38 78  1  0  0  0  0
 39 43  2  0  0  0  0
 39 79  1  0  0  0  0
 40 44  2  0  0  0  0
 40 80  1  0  0  0  0
 41 44  1  0  0  0  0
 41 81  1  0  0  0  0
 42 45  2  0  0  0  0
 42 82  1  0  0  0  0
 43 45  1  0  0  0  0
 43 83  1  0  0  0  0
 44 84  1  0  0  0  0
 45 85  1  0  0  0  0
M  END
> <PUBCHEM_COMPOUND_CID>
503804
> <PUBCHEM_COMPOUND_CANONICALIZED>
1
> <PUBCHEM_CACTVS_COMPLEXITY>
927
> <PUBCHEM_CACTVS_HBOND_ACCEPTOR>
9
> <PUBCHEM_CACTVS_HBOND_DONOR>
6
> <PUBCHEM_CACTVS_ROTATABLE_BOND>
14
> <PUBCHEM_CACTVS_SUBSKEYS>
AAADcfB/PAAAAAAAAAAAAAAAAAAAAaIAAAAwYMAAAAAAAGABUAAAHgAQCAAADDzhmAYwAILABgCIAiFSEAKCAAAgAAAIiIFIDIgLNjaAsR2HcAhn9gGbqAf6/KJOgAAAAAAQAAAAAAAAACAAAKAACQgAAA==
> <PUBCHEM_IUPAC_OPENEYE_NAME>
(2R,3R,4R,5R)-2,5-dibenzyloxy-3,4-dihydroxy-N-[(1S,2R)-2-hydroxyindan-1-yl]-N'-[(5S)-5-(hydroxymethyl)tetrahydrofuran-3-yl]hexanediamide
> <PUBCHEM_IUPAC_CAS_NAME>
(2R,3R,4R,5R)-3,4-dihydroxy-N-[(1S,2R)-2-hydroxy-2,3-dihydro-1H-inden-1-yl]-N'-[(5S)-5-(hydroxymethyl)-3-oxolanyl]-2,5-bis(phenylmethoxy)hexanediamide
> <PUBCHEM_IUPAC_NAME_MARKUP>
(2<I>R</I>,3<I>R</I>,4<I>R</I>,5<I>R</I>)-3,4-dihydroxy-<I>N</I>-[(1<I>S</I>,2<I>R</I>)-2-hydroxy-2,3-dihydro-1<I>H</I>-inden-1-yl]-<I>N</I>&apos;-[(5<I>S</I>)-5-(hydroxymethyl)oxolan-3-yl]-2,5-bis(phenylmethoxy)hexanediamide
> <PUBCHEM_IUPAC_NAME>
(2R,3R,4R,5R)-3,4-dihydroxy-N-[(1S,2R)-2-hydroxy-2,3-dihydro-1H-inden-1-yl]-N'-[(5S)-5-(hydroxymethyl)oxolan-3-yl]-2,5-bis(phenylmethoxy)hexanediamide
> <PUBCHEM_IUPAC_SYSTEMATIC_NAME>
(2R,3R,4R,5R)-N-[(5S)-5-(hydroxymethyl)oxolan-3-yl]-3,4-bis(oxidanyl)-N'-[(1S,2R)-2-oxidanyl-2,3-dihydro-1H-inden-1-yl]-2,5-bis(phenylmethoxy)hexanediamide
> <PUBCHEM_IUPAC_TRADITIONAL_NAME>
(2R,3R,4R,5R)-2,5-dibenzoxy-3,4-dihydroxy-N-[(1S,2R)-2-hydroxyindan-1-yl]-N'-[(5S)-5-methyloltetrahydrofuran-3-yl]adipamide
> <PUBCHEM_IUPAC_INCHI>
InChI=1S/C34H40N2O9/c37-17-25-16-24(20-43-25)35-33(41)31(44-18-21-9-3-1-4-10-21)29(39)30(40)32(45-19-22-11-5-2-6-12-22)34(42)36-28-26-14-8-7-13-23(26)15-27(28)38/h1-14,24-25,27-32,37-40H,15-20H2,(H,35,41)(H,36,42)/t24?,25-,27+,28-,29+,30+,31+,32+/m0/s1
> <PUBCHEM_IUPAC_INCHIKEY>
HLBCBFBFJWGTFR-DPQTUZRCSA-N
> <PUBCHEM_XLOGP3_AA>
1.9
> <PUBCHEM_EXACT_MASS>
620.27338086
> <PUBCHEM_MOLECULAR_FORMULA>
C34H40N2O9
> <PUBCHEM_MOLECULAR_WEIGHT>
620.7
> <PUBCHEM_OPENEYE_CAN_SMILES>
C1C(COC1CO)NC(=O)C(C(C(C(C(=O)NC2C(CC3=CC=CC=C23)O)OCC4=CC=CC=C4)O)O)OCC5=CC=CC=C5
> <PUBCHEM_OPENEYE_ISO_SMILES>
C1[C@H](OCC1NC(=O)[C@@H]([C@@H]([C@H]([C@H](C(=O)N[C@@H]2[C@@H](CC3=CC=CC=C23)O)OCC4=CC=CC=C4)O)O)OCC5=CC=CC=C5)CO
> <PUBCHEM_CACTVS_TPSA>
167
> <PUBCHEM_MONOISOTOPIC_WEIGHT>
620.27338086
> <PUBCHEM_TOTAL_CHARGE>
0
> <PUBCHEM_HEAVY_ATOM_COUNT>
45
> <PUBCHEM_ATOM_DEF_STEREO_COUNT>
7
> <PUBCHEM_ATOM_UDEF_STEREO_COUNT>
1
> <PUBCHEM_BOND_DEF_STEREO_COUNT>
0
> <PUBCHEM_BOND_UDEF_STEREO_COUNT>
0
> <PUBCHEM_ISOTOPIC_ATOM_COUNT>
0
> <PUBCHEM_COMPONENT_COUNT>
1
> <PUBCHEM_CACTVS_TAUTO_COUNT>
-1
> <PUBCHEM_COORDINATE_TYPE>
1
5
255
> <PUBCHEM_BONDANNOTATIONS>
12  10  6
14  11  3
16  18  8
16  26  8
18  28  8
19  29  6
13  2  6
26  30  8
28  31  8
23  3  6
30  31  8
34  36  8
34  37  8
35  38  8
35  39  8
36  40  8
37  41  8
38  42  8
39  43  8
24  4  6
40  44  8
41  44  8
42  45  8
43  45  8
21  5  5
22  6  5
$$$$
