503800
  -OEChem-10302200282D
 88 91  0     1  0  0  0  0  0999 V2000
   12.9016   -1.5195    0.0000 O   0  0  0  0  0  0  0  0  0  0  0  0
    3.3080    2.0194    0.0000 O   0  0  0  0  0  0  0  0  0  0  0  0
    9.2208    1.1830    0.0000 O   0  0  0  0  0  0  0  0  0  0  0  0
    6.6227   -1.3170    0.0000 O   0  0  0  0  0  0  0  0  0  0  0  0
    8.3548   -1.3170    0.0000 O   0  0  0  0  0  0  0  0  0  0  0  0
    7.4888    1.1830    0.0000 O   0  0  0  0  0  0  0  0  0  0  0  0
   14.9839   -1.3579    0.0000 O   0  0  0  0  0  0  0  0  0  0  0  0
    2.4067    3.9035    0.0000 O   0  0  0  0  0  0  0  0  0  0  0  0
   10.0868   -1.3170    0.0000 O   0  0  0  0  0  0  0  0  0  0  0  0
    4.8907   -0.3170    0.0000 O   0  0  0  0  0  0  0  0  0  0  0  0
   10.9528    0.1830    0.0000 N   0  0  0  0  0  0  0  0  0  0  0  0
    5.7567    1.1830    0.0000 N   0  0  0  0  0  0  0  0  0  0  0  0
   11.8189   -0.3170    0.0000 C   0  0  3  0  0  0  0  0  0  0  0  0
    4.8907    1.6830    0.0000 C   0  0  1  0  0  0  0  0  0  0  0  0
   12.7324    0.0897    0.0000 C   0  0  0  0  0  0  0  0  0  0  0  0
    4.7861    2.6775    0.0000 C   0  0  0  0  0  0  0  0  0  0  0  0
   13.4016   -0.6534    0.0000 C   0  0  1  0  0  0  0  0  0  0  0  0
    3.8080    2.8854    0.0000 C   0  0  1  0  0  0  0  0  0  0  0  0
   11.9234   -1.3116    0.0000 C   0  0  0  0  0  0  0  0  0  0  0  0
    3.9771    1.2762    0.0000 C   0  0  0  0  0  0  0  0  0  0  0  0
    8.3548   -0.3170    0.0000 C   0  0  2  0  0  0  0  0  0  0  0  0
    7.4888    0.1830    0.0000 C   0  0  2  0  0  0  0  0  0  0  0  0
    9.2208    0.1830    0.0000 C   0  0  2  0  0  0  0  0  0  0  0  0
    6.6227   -0.3170    0.0000 C   0  0  2  0  0  0  0  0  0  0  0  0
   14.3961   -0.5489    0.0000 C   0  0  0  0  0  0  0  0  0  0  0  0
    3.4013    3.7990    0.0000 C   0  0  0  0  0  0  0  0  0  0  0  0
   10.0868   -0.3170    0.0000 C   0  0  0  0  0  0  0  0  0  0  0  0
    5.7567    0.1830    0.0000 C   0  0  0  0  0  0  0  0  0  0  0  0
   10.0868    1.6830    0.0000 C   0  0  0  0  0  0  0  0  0  0  0  0
    5.7567   -1.8170    0.0000 C   0  0  0  0  0  0  0  0  0  0  0  0
   15.9784   -1.2534    0.0000 C   0  0  0  0  0  0  0  0  0  0  0  0
    2.0000    4.8170    0.0000 C   0  0  0  0  0  0  0  0  0  0  0  0
   10.0868    2.6830    0.0000 C   0  0  0  0  0  0  0  0  0  0  0  0
    5.7567   -2.8170    0.0000 C   0  0  0  0  0  0  0  0  0  0  0  0
    9.2208    3.1830    0.0000 C   0  0  0  0  0  0  0  0  0  0  0  0
   10.9528    3.1830    0.0000 C   0  0  0  0  0  0  0  0  0  0  0  0
    6.6227   -3.3170    0.0000 C   0  0  0  0  0  0  0  0  0  0  0  0
    4.8907   -3.3170    0.0000 C   0  0  0  0  0  0  0  0  0  0  0  0
    9.2208    4.1830    0.0000 C   0  0  0  0  0  0  0  0  0  0  0  0
   10.9528    4.1830    0.0000 C   0  0  0  0  0  0  0  0  0  0  0  0
    6.6227   -4.3170    0.0000 C   0  0  0  0  0  0  0  0  0  0  0  0
    4.8907   -4.3170    0.0000 C   0  0  0  0  0  0  0  0  0  0  0  0
   10.0868    4.6830    0.0000 C   0  0  0  0  0  0  0  0  0  0  0  0
    5.7567   -4.8170    0.0000 C   0  0  0  0  0  0  0  0  0  0  0  0
   11.2989   -0.6547    0.0000 H   0  0  0  0  0  0  0  0  0  0  0  0
    4.8582    1.0638    0.0000 H   0  0  0  0  0  0  0  0  0  0  0  0
   13.2340    0.4541    0.0000 H   0  0  0  0  0  0  0  0  0  0  0  0
   12.4224    0.6266    0.0000 H   0  0  0  0  0  0  0  0  0  0  0  0
    5.4061    2.6775    0.0000 H   0  0  0  0  0  0  0  0  0  0  0  0
    4.8510    3.2941    0.0000 H   0  0  0  0  0  0  0  0  0  0  0  0
   13.7392   -1.1734    0.0000 H   0  0  0  0  0  0  0  0  0  0  0  0
    3.1888    2.9179    0.0000 H   0  0  0  0  0  0  0  0  0  0  0  0
   11.3034   -1.3116    0.0000 H   0  0  0  0  0  0  0  0  0  0  0  0
   11.8586   -1.9282    0.0000 H   0  0  0  0  0  0  0  0  0  0  0  0
    3.4755    0.9118    0.0000 H   0  0  0  0  0  0  0  0  0  0  0  0
    4.2871    0.7393    0.0000 H   0  0  0  0  0  0  0  0  0  0  0  0
    7.8178   -0.6270    0.0000 H   0  0  0  0  0  0  0  0  0  0  0  0
    8.0257    0.4930    0.0000 H   0  0  0  0  0  0  0  0  0  0  0  0
    9.7577    0.4930    0.0000 H   0  0  0  0  0  0  0  0  0  0  0  0
    7.1597   -0.6270    0.0000 H   0  0  0  0  0  0  0  0  0  0  0  0
   10.9528    0.8030    0.0000 H   0  0  0  0  0  0  0  0  0  0  0  0
    6.2936    1.4930    0.0000 H   0  0  0  0  0  0  0  0  0  0  0  0
   14.9533   -0.2771    0.0000 H   0  0  0  0  0  0  0  0  0  0  0  0
   14.2252    0.0471    0.0000 H   0  0  0  0  0  0  0  0  0  0  0  0
    4.0028    3.9489    0.0000 H   0  0  0  0  0  0  0  0  0  0  0  0
    3.3580    4.4174    0.0000 H   0  0  0  0  0  0  0  0  0  0  0  0
    8.8917   -1.6270    0.0000 H   0  0  0  0  0  0  0  0  0  0  0  0
    8.0257    1.4930    0.0000 H   0  0  0  0  0  0  0  0  0  0  0  0
   10.2989    1.1004    0.0000 H   0  0  0  0  0  0  0  0  0  0  0  0
   10.6974    1.7906    0.0000 H   0  0  0  0  0  0  0  0  0  0  0  0
    5.5446   -1.2344    0.0000 H   0  0  0  0  0  0  0  0  0  0  0  0
    5.1461   -1.9247    0.0000 H   0  0  0  0  0  0  0  0  0  0  0  0
   16.0432   -1.8700    0.0000 H   0  0  0  0  0  0  0  0  0  0  0  0
   16.5950   -1.1886    0.0000 H   0  0  0  0  0  0  0  0  0  0  0  0
   15.9136   -0.6368    0.0000 H   0  0  0  0  0  0  0  0  0  0  0  0
    2.5664    5.0692    0.0000 H   0  0  0  0  0  0  0  0  0  0  0  0
    1.7478    5.3834    0.0000 H   0  0  0  0  0  0  0  0  0  0  0  0
    1.4336    4.5648    0.0000 H   0  0  0  0  0  0  0  0  0  0  0  0
    8.6839    2.8730    0.0000 H   0  0  0  0  0  0  0  0  0  0  0  0
   11.4898    2.8730    0.0000 H   0  0  0  0  0  0  0  0  0  0  0  0
    7.1597   -3.0070    0.0000 H   0  0  0  0  0  0  0  0  0  0  0  0
    4.3537   -3.0070    0.0000 H   0  0  0  0  0  0  0  0  0  0  0  0
    8.6839    4.4930    0.0000 H   0  0  0  0  0  0  0  0  0  0  0  0
   11.4898    4.4930    0.0000 H   0  0  0  0  0  0  0  0  0  0  0  0
    7.1597   -4.6270    0.0000 H   0  0  0  0  0  0  0  0  0  0  0  0
    4.3537   -4.6270    0.0000 H   0  0  0  0  0  0  0  0  0  0  0  0
   10.0868    5.3030    0.0000 H   0  0  0  0  0  0  0  0  0  0  0  0
    5.7567   -5.4370    0.0000 H   0  0  0  0  0  0  0  0  0  0  0  0
  1 17  1  0  0  0  0
  1 19  1  0  0  0  0
  2 18  1  0  0  0  0
  2 20  1  0  0  0  0
 23  3  1  1  0  0  0
  3 29  1  0  0  0  0
 24  4  1  1  0  0  0
  4 30  1  0  0  0  0
 21  5  1  6  0  0  0
  5 67  1  0  0  0  0
 22  6  1  6  0  0  0
  6 68  1  0  0  0  0
  7 25  1  0  0  0  0
  7 31  1  0  0  0  0
  8 26  1  0  0  0  0
  8 32  1  0  0  0  0
  9 27  2  0  0  0  0
 10 28  2  0  0  0  0
 11 13  1  0  0  0  0
 11 27  1  0  0  0  0
 11 61  1  0  0  0  0
 14 12  1  6  0  0  0
 12 28  1  0  0  0  0
 12 62  1  0  0  0  0
 13 15  1  0  0  0  0
 13 19  1  0  0  0  0
 13 45  1  0  0  0  0
 14 16  1  0  0  0  0
 14 20  1  0  0  0  0
 14 46  1  0  0  0  0
 15 17  1  0  0  0  0
 15 47  1  0  0  0  0
 15 48  1  0  0  0  0
 16 18  1  0  0  0  0
 16 49  1  0  0  0  0
 16 50  1  0  0  0  0
 17 25  1  1  0  0  0
 17 51  1  0  0  0  0
 18 26  1  6  0  0  0
 18 52  1  0  0  0  0
 19 53  1  0  0  0  0
 19 54  1  0  0  0  0
 20 55  1  0  0  0  0
 20 56  1  0  0  0  0
 21 22  1  0  0  0  0
 21 23  1  0  0  0  0
 21 57  1  0  0  0  0
 22 24  1  0  0  0  0
 22 58  1  0  0  0  0
 23 27  1  0  0  0  0
 23 59  1  0  0  0  0
 24 28  1  0  0  0  0
 24 60  1  0  0  0  0
 25 63  1  0  0  0  0
 25 64  1  0  0  0  0
 26 65  1  0  0  0  0
 26 66  1  0  0  0  0
 29 33  1  0  0  0  0
 29 69  1  0  0  0  0
 29 70  1  0  0  0  0
 30 34  1  0  0  0  0
 30 71  1  0  0  0  0
 30 72  1  0  0  0  0
 31 73  1  0  0  0  0
 31 74  1  0  0  0  0
 31 75  1  0  0  0  0
 32 76  1  0  0  0  0
 32 77  1  0  0  0  0
 32 78  1  0  0  0  0
 33 35  2  0  0  0  0
 33 36  1  0  0  0  0
 34 37  2  0  0  0  0
 34 38  1  0  0  0  0
 35 39  1  0  0  0  0
 35 79  1  0  0  0  0
 36 40  2  0  0  0  0
 36 80  1  0  0  0  0
 37 41  1  0  0  0  0
 37 81  1  0  0  0  0
 38 42  2  0  0  0  0
 38 82  1  0  0  0  0
 39 43  2  0  0  0  0
 39 83  1  0  0  0  0
 40 43  1  0  0  0  0
 40 84  1  0  0  0  0
 41 44  2  0  0  0  0
 41 85  1  0  0  0  0
 42 44  1  0  0  0  0
 42 86  1  0  0  0  0
 43 87  1  0  0  0  0
 44 88  1  0  0  0  0
M  END
> <PUBCHEM_COMPOUND_CID>
503800
> <PUBCHEM_COMPOUND_CANONICALIZED>
1
> <PUBCHEM_CACTVS_COMPLEXITY>
785
> <PUBCHEM_CACTVS_HBOND_ACCEPTOR>
10
> <PUBCHEM_CACTVS_HBOND_DONOR>
4
> <PUBCHEM_CACTVS_ROTATABLE_BOND>
17
> <PUBCHEM_CACTVS_SUBSKEYS>
AAADcfB/PAAAAAAAAAAAAAAAAAAAASJAAAAwYAAAAAAAAAABQAAAHgAQCAAADDzhmAYyAILABgCIAiFSEAICAAAgAAAIiIFICIgLNjaAsRyHcAAn9gGbqAf6/CpOAAAAAAAAAAAAAAAAAAAAAAAAAAAAAA==
> <PUBCHEM_IUPAC_OPENEYE_NAME>
(2R,3R,4R,5R)-2,5-dibenzyloxy-3,4-dihydroxy-N-[(3S,5S)-5-(methoxymethyl)tetrahydrofuran-3-yl]-N'-[(5S)-5-(methoxymethyl)tetrahydrofuran-3-yl]hexanediamide
> <PUBCHEM_IUPAC_CAS_NAME>
(2R,3R,4R,5R)-3,4-dihydroxy-N-[(3S,5S)-5-(methoxymethyl)-3-oxolanyl]-N'-[(5S)-5-(methoxymethyl)-3-oxolanyl]-2,5-bis(phenylmethoxy)hexanediamide
> <PUBCHEM_IUPAC_NAME_MARKUP>
(2<I>R</I>,3<I>R</I>,4<I>R</I>,5<I>R</I>)-3,4-dihydroxy-<I>N</I>-[(3<I>S</I>,5<I>S</I>)-5-(methoxymethyl)oxolan-3-yl]-<I>N</I>&apos;-[(5<I>S</I>)-5-(methoxymethyl)oxolan-3-yl]-2,5-bis(phenylmethoxy)hexanediamide
> <PUBCHEM_IUPAC_NAME>
(2R,3R,4R,5R)-3,4-dihydroxy-N-[(3S,5S)-5-(methoxymethyl)oxolan-3-yl]-N'-[(5S)-5-(methoxymethyl)oxolan-3-yl]-2,5-bis(phenylmethoxy)hexanediamide
> <PUBCHEM_IUPAC_SYSTEMATIC_NAME>
(2R,3R,4R,5R)-N-[(3S,5S)-5-(methoxymethyl)oxolan-3-yl]-N'-[(5S)-5-(methoxymethyl)oxolan-3-yl]-3,4-bis(oxidanyl)-2,5-bis(phenylmethoxy)hexanediamide
> <PUBCHEM_IUPAC_TRADITIONAL_NAME>
(2R,3R,4R,5R)-2,5-dibenzoxy-3,4-dihydroxy-N-[(3S,5S)-5-(methoxymethyl)tetrahydrofuran-3-yl]-N'-[(5S)-5-(methoxymethyl)tetrahydrofuran-3-yl]adipamide
> <PUBCHEM_IUPAC_INCHI>
InChI=1S/C32H44N2O10/c1-39-19-25-13-23(17-41-25)33-31(37)29(43-15-21-9-5-3-6-10-21)27(35)28(36)30(44-16-22-11-7-4-8-12-22)32(38)34-24-14-26(20-40-2)42-18-24/h3-12,23-30,35-36H,13-20H2,1-2H3,(H,33,37)(H,34,38)/t23-,24?,25-,26-,27+,28+,29+,30+/m0/s1
> <PUBCHEM_IUPAC_INCHIKEY>
RWMTVNAIVWRATA-WKQZZYIBSA-N
> <PUBCHEM_XLOGP3_AA>
1.5
> <PUBCHEM_EXACT_MASS>
616.29959560
> <PUBCHEM_MOLECULAR_FORMULA>
C32H44N2O10
> <PUBCHEM_MOLECULAR_WEIGHT>
616.7
> <PUBCHEM_OPENEYE_CAN_SMILES>
COCC1CC(CO1)NC(=O)C(C(C(C(C(=O)NC2CC(OC2)COC)OCC3=CC=CC=C3)O)O)OCC4=CC=CC=C4
> <PUBCHEM_OPENEYE_ISO_SMILES>
COC[C@@H]1C[C@@H](CO1)NC(=O)[C@@H]([C@@H]([C@H]([C@H](C(=O)NC2C[C@H](OC2)COC)OCC3=CC=CC=C3)O)O)OCC4=CC=CC=C4
> <PUBCHEM_CACTVS_TPSA>
154
> <PUBCHEM_MONOISOTOPIC_WEIGHT>
616.29959560
> <PUBCHEM_TOTAL_CHARGE>
0
> <PUBCHEM_HEAVY_ATOM_COUNT>
44
> <PUBCHEM_ATOM_DEF_STEREO_COUNT>
7
> <PUBCHEM_ATOM_UDEF_STEREO_COUNT>
1
> <PUBCHEM_BOND_DEF_STEREO_COUNT>
0
> <PUBCHEM_BOND_UDEF_STEREO_COUNT>
0
> <PUBCHEM_ISOTOPIC_ATOM_COUNT>
0
> <PUBCHEM_COMPONENT_COUNT>
1
> <PUBCHEM_CACTVS_TAUTO_COUNT>
-1
> <PUBCHEM_COORDINATE_TYPE>
1
5
255
> <PUBCHEM_BONDANNOTATIONS>
13  11  3
14  12  6
17  25  5
18  26  6
23  3  5
33  35  8
33  36  8
34  37  8
34  38  8
35  39  8
36  40  8
37  41  8
38  42  8
39  43  8
24  4  5
40  43  8
41  44  8
42  44  8
21  5  6
22  6  6
$$$$
