503952
  -OEChem-10302200282D
 47 50  0     1  0  0  0  0  0999 V2000
    5.5321    1.3566    0.0000 Cl  0  0  0  0  0  0  0  0  0  0  0  0
    5.5321   -1.6434    0.0000 P   0  0  3  0  0  0  0  0  0  0  0  0
    8.6198    0.0317    0.0000 O   0  0  0  0  0  0  0  0  0  0  0  0
    6.5321   -1.6434    0.0000 O   0  0  0  0  0  0  0  0  0  0  0  0
    5.5321   -0.6433    0.0000 O   0  0  0  0  0  0  0  0  0  0  0  0
    4.6660   -2.1434    0.0000 O   0  0  0  0  0  0  0  0  0  0  0  0
    6.0321   -2.5094    0.0000 O   0  0  0  0  0  0  0  0  0  0  0  0
    9.3618    1.7117    0.0000 O   0  0  0  0  0  0  0  0  0  0  0  0
   12.8070    2.0738    0.0000 O   0  0  0  0  0  0  0  0  0  0  0  0
   10.3799    0.3105    0.0000 N   0  0  0  0  0  0  0  0  0  0  0  0
   11.0844    1.8928    0.0000 N   0  0  0  0  0  0  0  0  0  0  0  0
    8.0321   -0.7773    0.0000 C   0  0  2  0  0  0  0  0  0  0  0  0
    9.5709   -0.2773    0.0000 C   0  0  1  0  0  0  0  0  0  0  0  0
    7.0321   -0.7773    0.0000 C   0  0  0  0  0  0  0  0  0  0  0  0
    8.6198   -1.5863    0.0000 C   0  0  0  0  0  0  0  0  0  0  0  0
    9.5709   -1.2773    0.0000 C   0  0  0  0  0  0  0  0  0  0  0  0
    4.6660   -0.1433    0.0000 C   0  0  3  0  0  0  0  0  0  0  0  0
    3.8000   -0.6433    0.0000 C   0  0  0  0  0  0  0  0  0  0  0  0
    3.8000   -1.6434    0.0000 C   0  0  0  0  0  0  0  0  0  0  0  0
   11.2935   -0.0963    0.0000 C   0  0  0  0  0  0  0  0  0  0  0  0
    4.6660    0.8567    0.0000 C   0  0  0  0  0  0  0  0  0  0  0  0
   10.2754    1.3050    0.0000 C   0  0  0  0  0  0  0  0  0  0  0  0
    2.9061   -0.1087    0.0000 C   0  0  0  0  0  0  0  0  0  0  0  0
   12.1025    0.4915    0.0000 C   0  0  0  0  0  0  0  0  0  0  0  0
    2.9061   -2.1780    0.0000 C   0  0  0  0  0  0  0  0  0  0  0  0
   11.9980    1.4860    0.0000 C   0  0  0  0  0  0  0  0  0  0  0  0
    2.0000   -0.6225    0.0000 C   0  0  0  0  0  0  0  0  0  0  0  0
    2.0000   -1.6642    0.0000 C   0  0  0  0  0  0  0  0  0  0  0  0
   13.0160    0.0848    0.0000 C   0  0  0  0  0  0  0  0  0  0  0  0
    7.7506   -0.2249    0.0000 H   0  0  0  0  0  0  0  0  0  0  0  0
    9.4739    0.3350    0.0000 H   0  0  0  0  0  0  0  0  0  0  0  0
    7.1397   -0.1667    0.0000 H   0  0  0  0  0  0  0  0  0  0  0  0
    6.4494   -0.5653    0.0000 H   0  0  0  0  0  0  0  0  0  0  0  0
    8.4282   -2.1760    0.0000 H   0  0  0  0  0  0  0  0  0  0  0  0
   10.0725   -1.6418    0.0000 H   0  0  0  0  0  0  0  0  0  0  0  0
    5.2030    0.1667    0.0000 H   0  0  0  0  0  0  0  0  0  0  0  0
   11.3583   -0.7129    0.0000 H   0  0  0  0  0  0  0  0  0  0  0  0
    4.4540    1.4393    0.0000 H   0  0  0  0  0  0  0  0  0  0  0  0
    4.0555    0.7490    0.0000 H   0  0  0  0  0  0  0  0  0  0  0  0
    2.9132    0.5113    0.0000 H   0  0  0  0  0  0  0  0  0  0  0  0
    2.9132   -2.7980    0.0000 H   0  0  0  0  0  0  0  0  0  0  0  0
   11.0196    2.5094    0.0000 H   0  0  0  0  0  0  0  0  0  0  0  0
    1.4643   -0.3105    0.0000 H   0  0  0  0  0  0  0  0  0  0  0  0
    1.4643   -1.9762    0.0000 H   0  0  0  0  0  0  0  0  0  0  0  0
   12.7639   -0.4816    0.0000 H   0  0  0  0  0  0  0  0  0  0  0  0
   13.5824   -0.1674    0.0000 H   0  0  0  0  0  0  0  0  0  0  0  0
   13.2682    0.6512    0.0000 H   0  0  0  0  0  0  0  0  0  0  0  0
  1 21  1  0  0  0  0
  2  4  1  0  0  0  0
  2  5  1  0  0  0  0
  2  6  1  0  0  0  0
  2  7  2  0  0  0  0
  3 12  1  0  0  0  0
  3 13  1  0  0  0  0
  4 14  1  0  0  0  0
  5 17  1  0  0  0  0
  6 19  1  0  0  0  0
  8 22  2  0  0  0  0
  9 26  2  0  0  0  0
 13 10  1  1  0  0  0
 10 20  1  0  0  0  0
 10 22  1  0  0  0  0
 11 22  1  0  0  0  0
 11 26  1  0  0  0  0
 11 42  1  0  0  0  0
 12 14  1  1  0  0  0
 12 15  1  0  0  0  0
 12 30  1  0  0  0  0
 13 16  1  0  0  0  0
 13 31  1  0  0  0  0
 14 32  1  0  0  0  0
 14 33  1  0  0  0  0
 15 16  2  0  0  0  0
 15 34  1  0  0  0  0
 16 35  1  0  0  0  0
 17 18  1  0  0  0  0
 17 21  1  0  0  0  0
 17 36  1  0  0  0  0
 18 19  1  0  0  0  0
 18 23  2  0  0  0  0
 19 25  2  0  0  0  0
 20 24  2  0  0  0  0
 20 37  1  0  0  0  0
 21 38  1  0  0  0  0
 21 39  1  0  0  0  0
 23 27  1  0  0  0  0
 23 40  1  0  0  0  0
 24 26  1  0  0  0  0
 24 29  1  0  0  0  0
 25 28  1  0  0  0  0
 25 41  1  0  0  0  0
 27 28  2  0  0  0  0
 27 43  1  0  0  0  0
 28 44  1  0  0  0  0
 29 45  1  0  0  0  0
 29 46  1  0  0  0  0
 29 47  1  0  0  0  0
M  END
> <PUBCHEM_COMPOUND_CID>
503952
> <PUBCHEM_COMPOUND_CANONICALIZED>
1
> <PUBCHEM_CACTVS_COMPLEXITY>
788
> <PUBCHEM_CACTVS_HBOND_ACCEPTOR>
7
> <PUBCHEM_CACTVS_HBOND_DONOR>
1
> <PUBCHEM_CACTVS_ROTATABLE_BOND>
5
> <PUBCHEM_CACTVS_SUBSKEYS>
AAADceB7OAIEAAAAAAAAAAAAAAAAAQAAAAA0QIAAAAAAAACRAAAAHgIQACAADBfhmEYzBoPABRCIQiFWUICCAAAgIAAIiAEOC8iJJyKBMRKOMAAtxzMKqMeAwKAOAAAAAAAIAAAAAAAAABAAAAAAAAAAAA==
> <PUBCHEM_IUPAC_OPENEYE_NAME>
1-[(2R,5S)-5-[[4-(chloromethyl)-2-oxo-4H-1,3,2lambda5-benzodioxaphosphinin-2-yl]oxymethyl]-2,5-dihydrofuran-2-yl]-5-methyl-pyrimidine-2,4-dione
> <PUBCHEM_IUPAC_CAS_NAME>
1-[(2R,5S)-5-[[4-(chloromethyl)-2-oxo-4H-1,3,2lambda5-benzodioxaphosphorin-2-yl]oxymethyl]-2,5-dihydrofuran-2-yl]-5-methylpyrimidine-2,4-dione
> <PUBCHEM_IUPAC_NAME_MARKUP>
1-[(2<I>R</I>,5<I>S</I>)-5-[[4-(chloromethyl)-2-oxo-4<I>H</I>-1,3,2&lambda;<SUP>5</SUP>-benzodioxaphosphinin-2-yl]oxymethyl]-2,5-dihydrofuran-2-yl]-5-methylpyrimidine-2,4-dione
> <PUBCHEM_IUPAC_NAME>
1-[(2R,5S)-5-[[4-(chloromethyl)-2-oxo-4H-1,3,2lambda5-benzodioxaphosphinin-2-yl]oxymethyl]-2,5-dihydrofuran-2-yl]-5-methylpyrimidine-2,4-dione
> <PUBCHEM_IUPAC_SYSTEMATIC_NAME>
1-[(2R,5S)-5-[[4-(chloromethyl)-2-oxidanylidene-4H-1,3,2lambda5-benzodioxaphosphinin-2-yl]oxymethyl]-2,5-dihydrofuran-2-yl]-5-methyl-pyrimidine-2,4-dione
> <PUBCHEM_IUPAC_TRADITIONAL_NAME>
1-[(2R,5S)-5-[[4-(chloromethyl)-2-keto-4H-1,3,2lambda5-benzodioxaphosphorin-2-yl]oxymethyl]-2,5-dihydrofuran-2-yl]-5-methyl-pyrimidine-2,4-quinone
> <PUBCHEM_IUPAC_INCHI>
InChI=1S/C18H18ClN2O7P/c1-11-9-21(18(23)20-17(11)22)16-7-6-12(26-16)10-25-29(24)27-14-5-3-2-4-13(14)15(8-19)28-29/h2-7,9,12,15-16H,8,10H2,1H3,(H,20,22,23)/t12-,15?,16+,29?/m0/s1
> <PUBCHEM_IUPAC_INCHIKEY>
PFRCISHNAUSKDT-LIWDBIBPSA-N
> <PUBCHEM_XLOGP3_AA>
1.1
> <PUBCHEM_EXACT_MASS>
440.0540156
> <PUBCHEM_MOLECULAR_FORMULA>
C18H18ClN2O7P
> <PUBCHEM_MOLECULAR_WEIGHT>
440.8
> <PUBCHEM_OPENEYE_CAN_SMILES>
CC1=CN(C(=O)NC1=O)C2C=CC(O2)COP3(=O)OC(C4=CC=CC=C4O3)CCl
> <PUBCHEM_OPENEYE_ISO_SMILES>
CC1=CN(C(=O)NC1=O)[C@H]2C=C[C@H](O2)COP3(=O)OC(C4=CC=CC=C4O3)CCl
> <PUBCHEM_CACTVS_TPSA>
103
> <PUBCHEM_MONOISOTOPIC_WEIGHT>
440.0540156
> <PUBCHEM_TOTAL_CHARGE>
0
> <PUBCHEM_HEAVY_ATOM_COUNT>
29
> <PUBCHEM_ATOM_DEF_STEREO_COUNT>
2
> <PUBCHEM_ATOM_UDEF_STEREO_COUNT>
2
> <PUBCHEM_BOND_DEF_STEREO_COUNT>
0
> <PUBCHEM_BOND_UDEF_STEREO_COUNT>
0
> <PUBCHEM_ISOTOPIC_ATOM_COUNT>
0
> <PUBCHEM_COMPONENT_COUNT>
1
> <PUBCHEM_CACTVS_TAUTO_COUNT>
-1
> <PUBCHEM_COORDINATE_TYPE>
1
5
255
> <PUBCHEM_BONDANNOTATIONS>
13  10  5
10  20  8
10  22  8
11  22  8
11  26  8
12  14  5
17  21  3
18  19  8
18  23  8
19  25  8
2  4  3
20  24  8
23  27  8
24  26  8
25  28  8
27  28  8
$$$$
