503948
  -OEChem-10302200282D
 67 70  0     1  0  0  0  0  0999 V2000
    4.2711   -1.0413    0.0000 N   0  0  0  0  0  0  0  0  0  0  0  0
    3.5463    1.0495    0.0000 N   0  0  0  0  0  0  0  0  0  0  0  0
    6.2029   -1.5589    0.0000 N   0  0  0  0  0  0  0  0  0  0  0  0
    4.9605    2.4637    0.0000 N   0  0  0  0  0  0  0  0  0  0  0  0
    6.3266    0.0977    0.0000 N   0  0  0  0  0  0  0  0  0  0  0  0
    4.5299   -2.0072    0.0000 C   0  0  1  0  0  0  0  0  0  0  0  0
    3.2875    2.0154    0.0000 C   0  0  1  0  0  0  0  0  0  0  0  0
    5.4958   -2.2660    0.0000 C   0  0  1  0  0  0  0  0  0  0  0  0
    3.9946    2.7226    0.0000 C   0  0  1  0  0  0  0  0  0  0  0  0
    3.7821   -2.7323    0.0000 C   0  0  0  0  0  0  0  0  0  0  0  0
    2.2773    2.2695    0.0000 C   0  0  0  0  0  0  0  0  0  0  0  0
    5.7809   -3.2679    0.0000 C   0  0  0  0  0  0  0  0  0  0  0  0
    3.7406    3.7327    0.0000 C   0  0  0  0  0  0  0  0  0  0  0  0
    4.0439   -3.7405    0.0000 C   0  0  0  0  0  0  0  0  0  0  0  0
    2.0000    3.2735    0.0000 C   0  0  0  0  0  0  0  0  0  0  0  0
    5.0501   -4.0101    0.0000 C   0  0  0  0  0  0  0  0  0  0  0  0
    2.7365    4.0101    0.0000 C   0  0  0  0  0  0  0  0  0  0  0  0
    3.3052   -0.7824    0.0000 C   0  0  0  0  0  0  0  0  0  0  0  0
    3.0463    0.1835    0.0000 C   0  0  0  0  0  0  0  0  0  0  0  0
    7.1926   -1.4023    0.0000 C   0  0  2  0  0  0  0  0  0  0  0  0
    5.4605    1.5977    0.0000 C   0  0  2  0  0  0  0  0  0  0  0  0
    7.1926   -0.4023    0.0000 C   0  0  0  0  0  0  0  0  0  0  0  0
    6.3266    1.0977    0.0000 C   0  0  0  0  0  0  0  0  0  0  0  0
    7.9537   -2.0509    0.0000 C   0  0  0  0  0  0  0  0  0  0  0  0
    5.2017    0.6318    0.0000 C   0  0  0  0  0  0  0  0  0  0  0  0
    8.0586    0.0977    0.0000 C   0  0  0  0  0  0  0  0  0  0  0  0
    7.1926    1.5977    0.0000 C   0  0  0  0  0  0  0  0  0  0  0  0
    8.0586    1.0977    0.0000 C   0  0  0  0  0  0  0  0  0  0  0  0
    3.7089   -1.7872    0.0000 H   0  0  0  0  0  0  0  0  0  0  0  0
    2.6865    1.4144    0.0000 H   0  0  0  0  0  0  0  0  0  0  0  0
    6.3169   -2.4860    0.0000 H   0  0  0  0  0  0  0  0  0  0  0  0
    4.5957    3.3236    0.0000 H   0  0  0  0  0  0  0  0  0  0  0  0
    3.4330   -2.2199    0.0000 H   0  0  0  0  0  0  0  0  0  0  0  0
    3.2175   -2.9885    0.0000 H   0  0  0  0  0  0  0  0  0  0  0  0
    1.6603    2.2091    0.0000 H   0  0  0  0  0  0  0  0  0  0  0  0
    2.2312    1.6512    0.0000 H   0  0  0  0  0  0  0  0  0  0  0  0
    6.1417   -3.7721    0.0000 H   0  0  0  0  0  0  0  0  0  0  0  0
    6.3394   -2.9986    0.0000 H   0  0  0  0  0  0  0  0  0  0  0  0
    4.3589    3.7788    0.0000 H   0  0  0  0  0  0  0  0  0  0  0  0
    3.8010    4.3498    0.0000 H   0  0  0  0  0  0  0  0  0  0  0  0
    3.4260   -3.7913    0.0000 H   0  0  0  0  0  0  0  0  0  0  0  0
    3.9883   -4.3580    0.0000 H   0  0  0  0  0  0  0  0  0  0  0  0
    1.6431    3.7805    0.0000 H   0  0  0  0  0  0  0  0  0  0  0  0
    1.4394    3.0086    0.0000 H   0  0  0  0  0  0  0  0  0  0  0  0
    4.7895   -4.5726    0.0000 H   0  0  0  0  0  0  0  0  0  0  0  0
    5.5598   -4.3631    0.0000 H   0  0  0  0  0  0  0  0  0  0  0  0
    3.0014    4.5706    0.0000 H   0  0  0  0  0  0  0  0  0  0  0  0
    2.2296    4.3670    0.0000 H   0  0  0  0  0  0  0  0  0  0  0  0
    4.7095   -0.6028    0.0000 H   0  0  0  0  0  0  0  0  0  0  0  0
    4.0382    0.6721    0.0000 H   0  0  0  0  0  0  0  0  0  0  0  0
    5.9198   -1.0073    0.0000 H   0  0  0  0  0  0  0  0  0  0  0  0
    5.3380    2.9556    0.0000 H   0  0  0  0  0  0  0  0  0  0  0  0
    2.6875   -0.8365    0.0000 H   0  0  0  0  0  0  0  0  0  0  0  0
    3.2511   -1.4001    0.0000 H   0  0  0  0  0  0  0  0  0  0  0  0
    2.6079    0.6219    0.0000 H   0  0  0  0  0  0  0  0  0  0  0  0
    2.5094   -0.1265    0.0000 H   0  0  0  0  0  0  0  0  0  0  0  0
    7.0246   -1.9991    0.0000 H   0  0  0  0  0  0  0  0  0  0  0  0
    4.8459    1.5168    0.0000 H   0  0  0  0  0  0  0  0  0  0  0  0
    7.5516   -2.5228    0.0000 H   0  0  0  0  0  0  0  0  0  0  0  0
    8.4256   -2.4531    0.0000 H   0  0  0  0  0  0  0  0  0  0  0  0
    8.3559   -1.5790    0.0000 H   0  0  0  0  0  0  0  0  0  0  0  0
    4.6029    0.7922    0.0000 H   0  0  0  0  0  0  0  0  0  0  0  0
    5.0413    0.0329    0.0000 H   0  0  0  0  0  0  0  0  0  0  0  0
    5.8006    0.4713    0.0000 H   0  0  0  0  0  0  0  0  0  0  0  0
    8.5956   -0.2123    0.0000 H   0  0  0  0  0  0  0  0  0  0  0  0
    7.1926    2.2177    0.0000 H   0  0  0  0  0  0  0  0  0  0  0  0
    8.5956    1.4077    0.0000 H   0  0  0  0  0  0  0  0  0  0  0  0
  1  6  1  0  0  0  0
  1 18  1  0  0  0  0
  1 49  1  0  0  0  0
  2  7  1  0  0  0  0
  2 19  1  0  0  0  0
  2 50  1  0  0  0  0
  3  8  1  0  0  0  0
  3 20  1  0  0  0  0
  3 51  1  0  0  0  0
  4  9  1  0  0  0  0
  4 21  1  0  0  0  0
  4 52  1  0  0  0  0
  5 22  2  0  0  0  0
  5 23  1  0  0  0  0
  6  8  1  0  0  0  0
  6 10  1  0  0  0  0
  6 29  1  6  0  0  0
  7  9  1  0  0  0  0
  7 11  1  0  0  0  0
  7 30  1  1  0  0  0
  8 12  1  0  0  0  0
  8 31  1  1  0  0  0
  9 13  1  0  0  0  0
  9 32  1  6  0  0  0
 10 14  1  0  0  0  0
 10 33  1  0  0  0  0
 10 34  1  0  0  0  0
 11 15  1  0  0  0  0
 11 35  1  0  0  0  0
 11 36  1  0  0  0  0
 12 16  1  0  0  0  0
 12 37  1  0  0  0  0
 12 38  1  0  0  0  0
 13 17  1  0  0  0  0
 13 39  1  0  0  0  0
 13 40  1  0  0  0  0
 14 16  1  0  0  0  0
 14 41  1  0  0  0  0
 14 42  1  0  0  0  0
 15 17  1  0  0  0  0
 15 43  1  0  0  0  0
 15 44  1  0  0  0  0
 16 45  1  0  0  0  0
 16 46  1  0  0  0  0
 17 47  1  0  0  0  0
 17 48  1  0  0  0  0
 18 19  1  0  0  0  0
 18 53  1  0  0  0  0
 18 54  1  0  0  0  0
 19 55  1  0  0  0  0
 19 56  1  0  0  0  0
 20 22  1  0  0  0  0
 20 24  1  6  0  0  0
 20 57  1  0  0  0  0
 21 23  1  0  0  0  0
 21 25  1  6  0  0  0
 21 58  1  0  0  0  0
 22 26  1  0  0  0  0
 23 27  2  0  0  0  0
 24 59  1  0  0  0  0
 24 60  1  0  0  0  0
 24 61  1  0  0  0  0
 25 62  1  0  0  0  0
 25 63  1  0  0  0  0
 25 64  1  0  0  0  0
 26 28  2  0  0  0  0
 26 65  1  0  0  0  0
 27 28  1  0  0  0  0
 27 66  1  0  0  0  0
 28 67  1  0  0  0  0
M  END
> <PUBCHEM_COMPOUND_CID>
503948
> <PUBCHEM_COMPOUND_CANONICALIZED>
1
> <PUBCHEM_CACTVS_COMPLEXITY>
432
> <PUBCHEM_CACTVS_HBOND_ACCEPTOR>
5
> <PUBCHEM_CACTVS_HBOND_DONOR>
4
> <PUBCHEM_CACTVS_ROTATABLE_BOND>
0
> <PUBCHEM_CACTVS_SUBSKEYS>
AAADcfB7gAAAAAAAAAAAAAAAAAAAAAAAAAA8YIAAAAAAAAABgAAAHAAQAAAACCjBFgQygJLIEACgASRiRACCgCAhAiAImKA4ZJgIYOLAkZGUIAhgkADIyAcQgIAAAAAAAAAAAAAAAAAAAAAAQAAAAAAAAA==
> <PUBCHEM_IUPAC_OPENEYE_NAME>
(2S,4R,9R,14R,19R,21S)-2,21-dimethyl-3,10,13,20,26-pentazatetracyclo[20.3.1.04,9.014,19]hexacosa-1(26),22,24-triene
> <PUBCHEM_IUPAC_CAS_NAME>
(2S,4R,9R,14R,19R,21S)-2,21-dimethyl-3,10,13,20,26-pentazatetracyclo[20.3.1.04,9.014,19]hexacosa-1(26),22,24-triene
> <PUBCHEM_IUPAC_NAME_MARKUP>
(2<I>S</I>,4<I>R</I>,9<I>R</I>,14<I>R</I>,19<I>R</I>,21<I>S</I>)-2,21-dimethyl-3,10,13,20,26-pentazatetracyclo[20.3.1.0<SUP>4,9</SUP>.0<SUP>14,19</SUP>]hexacosa-1(26),22,24-triene
> <PUBCHEM_IUPAC_NAME>
(2S,4R,9R,14R,19R,21S)-2,21-dimethyl-3,10,13,20,26-pentazatetracyclo[20.3.1.04,9.014,19]hexacosa-1(26),22,24-triene
> <PUBCHEM_IUPAC_SYSTEMATIC_NAME>
(2S,4R,9R,14R,19R,21S)-2,21-dimethyl-3,10,13,20,26-pentazatetracyclo[20.3.1.04,9.014,19]hexacosa-1(26),22,24-triene
> <PUBCHEM_IUPAC_TRADITIONAL_NAME>
(2S,4R,9R,14R,19R,21S)-2,21-dimethyl-3,10,13,20,26-pentazatetracyclo[20.3.1.04,9.014,19]hexacosa-1(26),22,24-triene
> <PUBCHEM_IUPAC_INCHI>
InChI=1S/C23H39N5/c1-16-18-12-7-13-19(28-18)17(2)27-23-11-6-4-9-21(23)25-15-14-24-20-8-3-5-10-22(20)26-16/h7,12-13,16-17,20-27H,3-6,8-11,14-15H2,1-2H3/t16-,17-,20+,21+,22+,23+/m0/s1
> <PUBCHEM_IUPAC_INCHIKEY>
KTPFAQJXCSBAHF-RRJVNCKPSA-N
> <PUBCHEM_XLOGP3_AA>
2
> <PUBCHEM_EXACT_MASS>
385.32054627
> <PUBCHEM_MOLECULAR_FORMULA>
C23H39N5
> <PUBCHEM_MOLECULAR_WEIGHT>
385.6
> <PUBCHEM_OPENEYE_CAN_SMILES>
CC1C2=NC(=CC=C2)C(NC3CCCCC3NCCNC4CCCCC4N1)C
> <PUBCHEM_OPENEYE_ISO_SMILES>
C[C@H]1C2=NC(=CC=C2)[C@@H](N[C@@H]3CCCC[C@H]3NCCN[C@@H]4CCCC[C@H]4N1)C
> <PUBCHEM_CACTVS_TPSA>
61
> <PUBCHEM_MONOISOTOPIC_WEIGHT>
385.32054627
> <PUBCHEM_TOTAL_CHARGE>
0
> <PUBCHEM_HEAVY_ATOM_COUNT>
28
> <PUBCHEM_ATOM_DEF_STEREO_COUNT>
6
> <PUBCHEM_ATOM_UDEF_STEREO_COUNT>
0
> <PUBCHEM_BOND_DEF_STEREO_COUNT>
0
> <PUBCHEM_BOND_UDEF_STEREO_COUNT>
0
> <PUBCHEM_ISOTOPIC_ATOM_COUNT>
0
> <PUBCHEM_COMPONENT_COUNT>
1
> <PUBCHEM_CACTVS_TAUTO_COUNT>
-1
> <PUBCHEM_COORDINATE_TYPE>
1
5
255
> <PUBCHEM_BONDANNOTATIONS>
20  24  6
21  25  6
22  26  8
23  27  8
26  28  8
27  28  8
5  22  8
5  23  8
6  29  6
7  30  5
8  31  5
9  32  6
$$$$
