503960
  -OEChem-10302200282D
 85 87  0     1  0  0  0  0  0999 V2000
    9.1559    1.3829    0.0000 S   0  0  0  0  0  0  0  0  0  0  0  0
    7.7469   -1.7817    0.0000 P   0  0  3  0  0  0  0  0  0  0  0  0
    5.8858    0.6828    0.0000 O   0  0  0  0  0  0  0  0  0  0  0  0
    7.1591   -0.9727    0.0000 O   0  0  0  0  0  0  0  0  0  0  0  0
    6.8089    2.2706    0.0000 O   0  0  0  0  0  0  0  0  0  0  0  0
    8.5559   -1.1940    0.0000 O   0  0  0  0  0  0  0  0  0  0  0  0
    8.3347   -2.5908    0.0000 O   0  0  0  0  0  0  0  0  0  0  0  0
    6.9379   -2.3695    0.0000 O   0  0  0  0  0  0  0  0  0  0  0  0
    5.0768    5.2706    0.0000 O   0  0  0  0  0  0  0  0  0  0  0  0
   10.8785    1.5639    0.0000 O   0  0  0  0  0  0  0  0  0  0  0  0
   11.4993   -3.9997    0.0000 O   0  0  0  0  0  0  0  0  0  0  0  0
   13.7141   -1.1546    0.0000 O   0  0  0  0  0  0  0  0  0  0  0  0
    5.0768    2.2706    0.0000 N   0  0  0  0  0  0  0  0  0  0  0  0
    3.9890   -1.0772    0.0000 N   0  0  0  0  0  0  0  0  0  0  0  0
    5.9428    3.7706    0.0000 N   0  0  0  0  0  0  0  0  0  0  0  0
    2.9945   -0.9727    0.0000 N   0  3  0  0  0  0  0  0  0  0  0  0
    2.0000   -0.8682    0.0000 N   0  5  0  0  0  0  0  0  0  0  0  0
   13.8951   -2.8771    0.0000 N   0  0  0  0  0  0  0  0  0  0  0  0
   13.0816   -4.7042    0.0000 N   0  0  0  0  0  0  0  0  0  0  0  0
    4.5768   -0.2682    0.0000 C   0  0  2  0  0  0  0  0  0  0  0  0
    5.5768   -0.2682    0.0000 C   0  0  1  0  0  0  0  0  0  0  0  0
    4.2678    0.6828    0.0000 C   0  0  0  0  0  0  0  0  0  0  0  0
    5.0768    1.2706    0.0000 C   0  0  1  0  0  0  0  0  0  0  0  0
    6.1646   -1.0772    0.0000 C   0  0  0  0  0  0  0  0  0  0  0  0
    4.2108    2.7706    0.0000 C   0  0  0  0  0  0  0  0  0  0  0  0
    5.9428    2.7706    0.0000 C   0  0  0  0  0  0  0  0  0  0  0  0
    4.2108    3.7706    0.0000 C   0  0  0  0  0  0  0  0  0  0  0  0
    5.0768    4.2706    0.0000 C   0  0  0  0  0  0  0  0  0  0  0  0
    3.3448    4.2706    0.0000 C   0  0  0  0  0  0  0  0  0  0  0  0
    8.4514   -0.1994    0.0000 C   0  0  0  0  0  0  0  0  0  0  0  0
    9.3292   -2.4862    0.0000 C   0  0  0  0  0  0  0  0  0  0  0  0
    9.8604    2.9652    0.0000 C   0  0  0  0  0  0  0  0  0  0  0  0
    9.2604    0.3884    0.0000 C   0  0  0  0  0  0  0  0  0  0  0  0
   11.3183   -2.2772    0.0000 C   0  0  0  0  0  0  0  0  0  0  0  0
    9.9170   -3.2952    0.0000 C   0  0  0  0  0  0  0  0  0  0  0  0
    9.7360   -1.5727    0.0000 C   0  0  0  0  0  0  0  0  0  0  0  0
   12.3128   -2.1726    0.0000 C   0  0  0  0  0  0  0  0  0  0  0  0
    9.9649    1.9707    0.0000 C   0  0  0  0  0  0  0  0  0  0  0  0
   12.9006   -2.9816    0.0000 C   0  0  1  0  0  0  0  0  0  0  0  0
    9.7559    3.9597    0.0000 C   0  0  0  0  0  0  0  0  0  0  0  0
   10.8549    3.0697    0.0000 C   0  0  0  0  0  0  0  0  0  0  0  0
    8.8659    2.8607    0.0000 C   0  0  0  0  0  0  0  0  0  0  0  0
   10.9115   -3.1907    0.0000 C   0  0  0  0  0  0  0  0  0  0  0  0
   10.7305   -1.4682    0.0000 C   0  0  0  0  0  0  0  0  0  0  0  0
   12.4938   -3.8952    0.0000 C   0  0  0  0  0  0  0  0  0  0  0  0
   14.3018   -1.9636    0.0000 C   0  0  0  0  0  0  0  0  0  0  0  0
   15.2964   -1.8590    0.0000 C   0  0  0  0  0  0  0  0  0  0  0  0
    3.9645   -0.1712    0.0000 H   0  0  0  0  0  0  0  0  0  0  0  0
    6.1892   -0.1712    0.0000 H   0  0  0  0  0  0  0  0  0  0  0  0
    3.9578    1.2198    0.0000 H   0  0  0  0  0  0  0  0  0  0  0  0
    3.7014    0.4307    0.0000 H   0  0  0  0  0  0  0  0  0  0  0  0
    4.5244    1.5521    0.0000 H   0  0  0  0  0  0  0  0  0  0  0  0
    5.6074   -1.3490    0.0000 H   0  0  0  0  0  0  0  0  0  0  0  0
    6.3355   -1.6732    0.0000 H   0  0  0  0  0  0  0  0  0  0  0  0
    3.6739    2.4606    0.0000 H   0  0  0  0  0  0  0  0  0  0  0  0
    6.4798    4.0806    0.0000 H   0  0  0  0  0  0  0  0  0  0  0  0
    3.6548    4.8076    0.0000 H   0  0  0  0  0  0  0  0  0  0  0  0
    2.8078    4.5806    0.0000 H   0  0  0  0  0  0  0  0  0  0  0  0
    3.0348    3.7337    0.0000 H   0  0  0  0  0  0  0  0  0  0  0  0
    8.1796    0.3578    0.0000 H   0  0  0  0  0  0  0  0  0  0  0  0
    7.8554   -0.3703    0.0000 H   0  0  0  0  0  0  0  0  0  0  0  0
    9.5322   -0.1689    0.0000 H   0  0  0  0  0  0  0  0  0  0  0  0
    9.8564    0.5593    0.0000 H   0  0  0  0  0  0  0  0  0  0  0  0
   12.8700   -1.9008    0.0000 H   0  0  0  0  0  0  0  0  0  0  0  0
   12.1419   -1.5767    0.0000 H   0  0  0  0  0  0  0  0  0  0  0  0
    9.6648   -3.8616    0.0000 H   0  0  0  0  0  0  0  0  0  0  0  0
    9.3715   -1.0711    0.0000 H   0  0  0  0  0  0  0  0  0  0  0  0
   13.2650   -3.4832    0.0000 H   0  0  0  0  0  0  0  0  0  0  0  0
   10.3725    4.0245    0.0000 H   0  0  0  0  0  0  0  0  0  0  0  0
    9.6910    4.5763    0.0000 H   0  0  0  0  0  0  0  0  0  0  0  0
    9.1392    3.8949    0.0000 H   0  0  0  0  0  0  0  0  0  0  0  0
   10.9197    2.4531    0.0000 H   0  0  0  0  0  0  0  0  0  0  0  0
   11.4715    3.1345    0.0000 H   0  0  0  0  0  0  0  0  0  0  0  0
   10.7901    3.6863    0.0000 H   0  0  0  0  0  0  0  0  0  0  0  0
    8.8011    3.4773    0.0000 H   0  0  0  0  0  0  0  0  0  0  0  0
    8.2493    2.7958    0.0000 H   0  0  0  0  0  0  0  0  0  0  0  0
    8.9307    2.2441    0.0000 H   0  0  0  0  0  0  0  0  0  0  0  0
   11.2760   -3.6923    0.0000 H   0  0  0  0  0  0  0  0  0  0  0  0
   10.9827   -0.9018    0.0000 H   0  0  0  0  0  0  0  0  0  0  0  0
   14.2595   -3.3787    0.0000 H   0  0  0  0  0  0  0  0  0  0  0  0
   12.8295   -5.2706    0.0000 H   0  0  0  0  0  0  0  0  0  0  0  0
   13.6982   -4.6394    0.0000 H   0  0  0  0  0  0  0  0  0  0  0  0
   15.3612   -2.4756    0.0000 H   0  0  0  0  0  0  0  0  0  0  0  0
   15.9130   -1.7942    0.0000 H   0  0  0  0  0  0  0  0  0  0  0  0
   15.2316   -1.2424    0.0000 H   0  0  0  0  0  0  0  0  0  0  0  0
  1 33  1  0  0  0  0
  1 38  1  0  0  0  0
  2  4  1  0  0  0  0
  2  6  1  0  0  0  0
  2  7  1  0  0  0  0
  2  8  2  0  0  0  0
  3 21  1  0  0  0  0
  3 23  1  0  0  0  0
  4 24  1  0  0  0  0
  5 26  2  0  0  0  0
  6 30  1  0  0  0  0
  7 31  1  0  0  0  0
  9 28  2  0  0  0  0
 10 38  2  0  0  0  0
 11 45  2  0  0  0  0
 12 46  2  0  0  0  0
 23 13  1  6  0  0  0
 13 25  1  0  0  0  0
 13 26  1  0  0  0  0
 14 16  2  0  0  0  0
 20 14  1  1  0  0  0
 15 26  1  0  0  0  0
 15 28  1  0  0  0  0
 15 56  1  0  0  0  0
 16 17  2  0  0  0  0
 39 18  1  6  0  0  0
 18 46  1  0  0  0  0
 18 80  1  0  0  0  0
 19 45  1  0  0  0  0
 19 81  1  0  0  0  0
 19 82  1  0  0  0  0
 20 21  1  0  0  0  0
 20 22  1  0  0  0  0
 20 48  1  0  0  0  0
 21 24  1  6  0  0  0
 21 49  1  0  0  0  0
 22 23  1  0  0  0  0
 22 50  1  0  0  0  0
 22 51  1  0  0  0  0
 23 52  1  0  0  0  0
 24 53  1  0  0  0  0
 24 54  1  0  0  0  0
 25 27  2  0  0  0  0
 25 55  1  0  0  0  0
 27 28  1  0  0  0  0
 27 29  1  0  0  0  0
 29 57  1  0  0  0  0
 29 58  1  0  0  0  0
 29 59  1  0  0  0  0
 30 33  1  0  0  0  0
 30 60  1  0  0  0  0
 30 61  1  0  0  0  0
 31 35  2  0  0  0  0
 31 36  1  0  0  0  0
 32 38  1  0  0  0  0
 32 40  1  0  0  0  0
 32 41  1  0  0  0  0
 32 42  1  0  0  0  0
 33 62  1  0  0  0  0
 33 63  1  0  0  0  0
 34 37  1  0  0  0  0
 34 43  2  0  0  0  0
 34 44  1  0  0  0  0
 35 43  1  0  0  0  0
 35 66  1  0  0  0  0
 36 44  2  0  0  0  0
 36 67  1  0  0  0  0
 37 39  1  0  0  0  0
 37 64  1  0  0  0  0
 37 65  1  0  0  0  0
 39 45  1  0  0  0  0
 39 68  1  0  0  0  0
 40 69  1  0  0  0  0
 40 70  1  0  0  0  0
 40 71  1  0  0  0  0
 41 72  1  0  0  0  0
 41 73  1  0  0  0  0
 41 74  1  0  0  0  0
 42 75  1  0  0  0  0
 42 76  1  0  0  0  0
 42 77  1  0  0  0  0
 43 78  1  0  0  0  0
 44 79  1  0  0  0  0
 46 47  1  0  0  0  0
 47 83  1  0  0  0  0
 47 84  1  0  0  0  0
 47 85  1  0  0  0  0
M  CHG  2  16   1  17  -1
M  END
> <PUBCHEM_COMPOUND_CID>
503960
> <PUBCHEM_COMPOUND_CANONICALIZED>
1
> <PUBCHEM_CACTVS_COMPLEXITY>
1330
> <PUBCHEM_CACTVS_HBOND_ACCEPTOR>
13
> <PUBCHEM_CACTVS_HBOND_DONOR>
3
> <PUBCHEM_CACTVS_ROTATABLE_BOND>
17
> <PUBCHEM_CACTVS_SUBSKEYS>
AAADcfB7vAJAAAAAAAAAAAAAAAAAASAAAAAwQAAAAAAAAAABAAAAHgQYACAADjzl2AazBoPABRiKQiFWUICCAAAgIBAIiIGOCMiLZjKg0TOfMAAu1zOqiMe4+KKOIAAAAAAAAABAAAAAAAAAAAAAAAAAAA==
> <PUBCHEM_IUPAC_OPENEYE_NAME>
S-[2-[[4-[(2S)-2-acetamido-3-amino-3-oxo-propyl]phenoxy]-[[(2S,3S,5R)-3-azido-5-(5-methyl-2,4-dioxo-pyrimidin-1-yl)tetrahydrofuran-2-yl]methoxy]phosphoryl]oxyethyl] 2,2-dimethylpropanethioate
> <PUBCHEM_IUPAC_CAS_NAME>
2,2-dimethylpropanethioic acid S-[2-[[4-[(2S)-2-acetamido-3-amino-3-oxopropyl]phenoxy]-[[(2S,3S,5R)-3-azido-5-(5-methyl-2,4-dioxo-1-pyrimidinyl)-2-oxolanyl]methoxy]phosphoryl]oxyethyl] ester
> <PUBCHEM_IUPAC_NAME_MARKUP>
<I>S</I>-[2-[[4-[(2<I>S</I>)-2-acetamido-3-amino-3-oxopropyl]phenoxy]-[[(2<I>S</I>,3<I>S</I>,5<I>R</I>)-3-azido-5-(5-methyl-2,4-dioxopyrimidin-1-yl)oxolan-2-yl]methoxy]phosphoryl]oxyethyl] 2,2-dimethylpropanethioate
> <PUBCHEM_IUPAC_NAME>
S-[2-[[4-[(2S)-2-acetamido-3-amino-3-oxopropyl]phenoxy]-[[(2S,3S,5R)-3-azido-5-(5-methyl-2,4-dioxopyrimidin-1-yl)oxolan-2-yl]methoxy]phosphoryl]oxyethyl] 2,2-dimethylpropanethioate
> <PUBCHEM_IUPAC_SYSTEMATIC_NAME>
S-[2-[[4-[(2S)-2-acetamido-3-azanyl-3-oxidanylidene-propyl]phenoxy]-[[(2S,3S,5R)-3-azido-5-[5-methyl-2,4-bis(oxidanylidene)pyrimidin-1-yl]oxolan-2-yl]methoxy]phosphoryl]oxyethyl] 2,2-dimethylpropanethioate
> <PUBCHEM_IUPAC_TRADITIONAL_NAME>
2,2-dimethylpropanethioic acid S-[2-[[4-[(2S)-2-acetamido-3-amino-3-keto-propyl]phenoxy]-[[(2S,3S,5R)-3-azido-5-(2,4-diketo-5-methyl-pyrimidin-1-yl)tetrahydrofuran-2-yl]methoxy]phosphoryl]oxyethyl] ester
> <PUBCHEM_IUPAC_INCHI>
InChI=1S/C28H38N7O10PS/c1-16-14-35(27(40)32-25(16)38)23-13-20(33-34-30)22(44-23)15-43-46(41,42-10-11-47-26(39)28(3,4)5)45-19-8-6-18(7-9-19)12-21(24(29)37)31-17(2)36/h6-9,14,20-23H,10-13,15H2,1-5H3,(H2,29,37)(H,31,36)(H,32,38,40)/t20-,21-,22+,23+,46?/m0/s1
> <PUBCHEM_IUPAC_INCHIKEY>
SAMSDFACVOAABP-KEIMMZRCSA-N
> <PUBCHEM_XLOGP3_AA>
2.2
> <PUBCHEM_EXACT_MASS>
695.21384861
> <PUBCHEM_MOLECULAR_FORMULA>
C28H38N7O10PS
> <PUBCHEM_MOLECULAR_WEIGHT>
695.7
> <PUBCHEM_OPENEYE_CAN_SMILES>
CC1=CN(C(=O)NC1=O)C2CC(C(O2)COP(=O)(OCCSC(=O)C(C)(C)C)OC3=CC=C(C=C3)CC(C(=O)N)NC(=O)C)N=[N+]=[N-]
> <PUBCHEM_OPENEYE_ISO_SMILES>
CC1=CN(C(=O)NC1=O)[C@H]2C[C@@H]([C@H](O2)COP(=O)(OCCSC(=O)C(C)(C)C)OC3=CC=C(C=C3)C[C@@H](C(=O)N)NC(=O)C)N=[N+]=[N-]
> <PUBCHEM_CACTVS_TPSA>
232
> <PUBCHEM_MONOISOTOPIC_WEIGHT>
695.21384861
> <PUBCHEM_TOTAL_CHARGE>
0
> <PUBCHEM_HEAVY_ATOM_COUNT>
47
> <PUBCHEM_ATOM_DEF_STEREO_COUNT>
4
> <PUBCHEM_ATOM_UDEF_STEREO_COUNT>
1
> <PUBCHEM_BOND_DEF_STEREO_COUNT>
0
> <PUBCHEM_BOND_UDEF_STEREO_COUNT>
0
> <PUBCHEM_ISOTOPIC_ATOM_COUNT>
0
> <PUBCHEM_COMPONENT_COUNT>
1
> <PUBCHEM_CACTVS_TAUTO_COUNT>
-1
> <PUBCHEM_COORDINATE_TYPE>
1
5
255
> <PUBCHEM_BONDANNOTATIONS>
23  13  6
13  25  8
13  26  8
20  14  5
15  26  8
15  28  8
39  18  6
2  6  3
21  24  6
25  27  8
27  28  8
31  35  8
31  36  8
34  43  8
34  44  8
35  43  8
36  44  8
$$$$
