503979
  -OEChem-10302200282D
 51 52  0     1  0  0  0  0  0999 V2000
    6.9152    3.6144    0.0000 O   0  0  0  0  0  0  0  0  0  0  0  0
    5.1831    4.6144    0.0000 O   0  0  0  0  0  0  0  0  0  0  0  0
    3.4511    3.6144    0.0000 O   0  0  0  0  0  0  0  0  0  0  0  0
    2.6420   -2.9734    0.0000 O   0  0  0  0  0  0  0  0  0  0  0  0
    3.9511   -3.9244    0.0000 O   0  0  0  0  0  0  0  0  0  0  0  0
    7.7812    2.1144    0.0000 O   0  0  0  0  0  0  0  0  0  0  0  0
    5.1831    1.6144    0.0000 N   0  0  3  0  0  0  0  0  0  0  0  0
    6.0491    2.1144    0.0000 C   0  0  1  0  0  0  0  0  0  0  0  0
    6.0491    3.1144    0.0000 C   0  0  2  0  0  0  0  0  0  0  0  0
    5.1831    3.6144    0.0000 C   0  0  1  0  0  0  0  0  0  0  0  0
    4.3171    2.1144    0.0000 C   0  0  0  0  0  0  0  0  0  0  0  0
    4.3171    3.1144    0.0000 C   0  0  2  0  0  0  0  0  0  0  0  0
    5.1831    0.6144    0.0000 C   0  0  0  0  0  0  0  0  0  0  0  0
    4.3171    0.1144    0.0000 C   0  0  0  0  0  0  0  0  0  0  0  0
    6.9152    1.6144    0.0000 C   0  0  0  0  0  0  0  0  0  0  0  0
    4.3171   -0.8856    0.0000 C   0  0  0  0  0  0  0  0  0  0  0  0
    3.4511   -1.3856    0.0000 C   0  0  0  0  0  0  0  0  0  0  0  0
    3.4511   -2.3856    0.0000 C   0  0  3  0  0  0  0  0  0  0  0  0
    4.2601   -2.9734    0.0000 C   0  0  0  0  0  0  0  0  0  0  0  0
    2.9511   -3.9244    0.0000 C   0  0  0  0  0  0  0  0  0  0  0  0
    2.9511   -4.9244    0.0000 C   0  0  0  0  0  0  0  0  0  0  0  0
    2.0000   -4.2334    0.0000 C   0  0  0  0  0  0  0  0  0  0  0  0
    6.0491    1.4944    0.0000 H   0  0  0  0  0  0  0  0  0  0  0  0
    6.0491    3.7344    0.0000 H   0  0  0  0  0  0  0  0  0  0  0  0
    4.6462    3.9244    0.0000 H   0  0  0  0  0  0  0  0  0  0  0  0
    3.7065    2.2221    0.0000 H   0  0  0  0  0  0  0  0  0  0  0  0
    4.1050    1.5318    0.0000 H   0  0  0  0  0  0  0  0  0  0  0  0
    4.3171    3.7344    0.0000 H   0  0  0  0  0  0  0  0  0  0  0  0
    5.3952    0.0318    0.0000 H   0  0  0  0  0  0  0  0  0  0  0  0
    5.7937    0.7221    0.0000 H   0  0  0  0  0  0  0  0  0  0  0  0
    4.1050    0.6970    0.0000 H   0  0  0  0  0  0  0  0  0  0  0  0
    3.7065    0.0068    0.0000 H   0  0  0  0  0  0  0  0  0  0  0  0
    6.5166    1.1395    0.0000 H   0  0  0  0  0  0  0  0  0  0  0  0
    7.3137    1.1395    0.0000 H   0  0  0  0  0  0  0  0  0  0  0  0
    4.5291   -1.4682    0.0000 H   0  0  0  0  0  0  0  0  0  0  0  0
    4.9277   -0.7779    0.0000 H   0  0  0  0  0  0  0  0  0  0  0  0
    3.2390   -0.8030    0.0000 H   0  0  0  0  0  0  0  0  0  0  0  0
    2.8405   -1.4932    0.0000 H   0  0  0  0  0  0  0  0  0  0  0  0
    2.8986   -2.1041    0.0000 H   0  0  0  0  0  0  0  0  0  0  0  0
    4.8265   -3.2255    0.0000 H   0  0  0  0  0  0  0  0  0  0  0  0
    4.5701   -2.4364    0.0000 H   0  0  0  0  0  0  0  0  0  0  0  0
    6.9152    4.2344    0.0000 H   0  0  0  0  0  0  0  0  0  0  0  0
    4.6462    4.9244    0.0000 H   0  0  0  0  0  0  0  0  0  0  0  0
    2.9141    3.3044    0.0000 H   0  0  0  0  0  0  0  0  0  0  0  0
    8.3181    1.8044    0.0000 H   0  0  0  0  0  0  0  0  0  0  0  0
    2.3311   -4.9244    0.0000 H   0  0  0  0  0  0  0  0  0  0  0  0
    2.9511   -5.5444    0.0000 H   0  0  0  0  0  0  0  0  0  0  0  0
    3.5711   -4.9244    0.0000 H   0  0  0  0  0  0  0  0  0  0  0  0
    1.8084   -3.6438    0.0000 H   0  0  0  0  0  0  0  0  0  0  0  0
    1.4103   -4.4250    0.0000 H   0  0  0  0  0  0  0  0  0  0  0  0
    2.1916   -4.8231    0.0000 H   0  0  0  0  0  0  0  0  0  0  0  0
  9  1  1  6  0  0  0
  1 42  1  0  0  0  0
 10  2  1  1  0  0  0
  2 43  1  0  0  0  0
 12  3  1  6  0  0  0
  3 44  1  0  0  0  0
  4 18  1  0  0  0  0
  4 20  1  0  0  0  0
  5 19  1  0  0  0  0
  5 20  1  0  0  0  0
  6 15  1  0  0  0  0
  6 45  1  0  0  0  0
  7  8  1  0  0  0  0
  7 11  1  0  0  0  0
  7 13  1  0  0  0  0
  8  9  1  0  0  0  0
  8 15  1  1  0  0  0
  8 23  1  0  0  0  0
  9 10  1  0  0  0  0
  9 24  1  0  0  0  0
 10 12  1  0  0  0  0
 10 25  1  0  0  0  0
 11 12  1  0  0  0  0
 11 26  1  0  0  0  0
 11 27  1  0  0  0  0
 12 28  1  0  0  0  0
 13 14  1  0  0  0  0
 13 29  1  0  0  0  0
 13 30  1  0  0  0  0
 14 16  1  0  0  0  0
 14 31  1  0  0  0  0
 14 32  1  0  0  0  0
 15 33  1  0  0  0  0
 15 34  1  0  0  0  0
 16 17  1  0  0  0  0
 16 35  1  0  0  0  0
 16 36  1  0  0  0  0
 17 18  1  0  0  0  0
 17 37  1  0  0  0  0
 17 38  1  0  0  0  0
 18 19  1  0  0  0  0
 18 39  1  0  0  0  0
 19 40  1  0  0  0  0
 19 41  1  0  0  0  0
 20 21  1  0  0  0  0
 20 22  1  0  0  0  0
 21 46  1  0  0  0  0
 21 47  1  0  0  0  0
 21 48  1  0  0  0  0
 22 49  1  0  0  0  0
 22 50  1  0  0  0  0
 22 51  1  0  0  0  0
M  END
> <PUBCHEM_COMPOUND_CID>
503979
> <PUBCHEM_COMPOUND_CANONICALIZED>
1
> <PUBCHEM_CACTVS_COMPLEXITY>
353
> <PUBCHEM_CACTVS_HBOND_ACCEPTOR>
7
> <PUBCHEM_CACTVS_HBOND_DONOR>
4
> <PUBCHEM_CACTVS_ROTATABLE_BOND>
6
> <PUBCHEM_CACTVS_SUBSKEYS>
AAADceByOAAAAAAAAAAAAAAAAAAAASAAAAAsAAAAAAAAAAAAAAAAHgAACAAACDzhgAYCCAMABgAAAAAAAAAAAAAAAAAAAAAIAAATEAIAgAAmQAAHAACXAAHwcAYAAAAAAAAAAAAAAAAAAAAAAAAAAAAAAA==
> <PUBCHEM_IUPAC_OPENEYE_NAME>
(2R,3R,4R,5S)-1-[4-(2,2-dimethyl-1,3-dioxolan-4-yl)butyl]-2-(hydroxymethyl)piperidine-3,4,5-triol
> <PUBCHEM_IUPAC_CAS_NAME>
(2R,3R,4R,5S)-1-[4-(2,2-dimethyl-1,3-dioxolan-4-yl)butyl]-2-(hydroxymethyl)piperidine-3,4,5-triol
> <PUBCHEM_IUPAC_NAME_MARKUP>
(2<I>R</I>,3<I>R</I>,4<I>R</I>,5<I>S</I>)-1-[4-(2,2-dimethyl-1,3-dioxolan-4-yl)butyl]-2-(hydroxymethyl)piperidine-3,4,5-triol
> <PUBCHEM_IUPAC_NAME>
(2R,3R,4R,5S)-1-[4-(2,2-dimethyl-1,3-dioxolan-4-yl)butyl]-2-(hydroxymethyl)piperidine-3,4,5-triol
> <PUBCHEM_IUPAC_SYSTEMATIC_NAME>
(2R,3R,4R,5S)-1-[4-(2,2-dimethyl-1,3-dioxolan-4-yl)butyl]-2-(hydroxymethyl)piperidine-3,4,5-triol
> <PUBCHEM_IUPAC_TRADITIONAL_NAME>
(2R,3R,4R,5S)-1-[4-(2,2-dimethyl-1,3-dioxolan-4-yl)butyl]-2-methylol-piperidine-3,4,5-triol
> <PUBCHEM_IUPAC_INCHI>
InChI=1S/C15H29NO6/c1-15(2)21-9-10(22-15)5-3-4-6-16-7-12(18)14(20)13(19)11(16)8-17/h10-14,17-20H,3-9H2,1-2H3/t10?,11-,12+,13-,14-/m1/s1
> <PUBCHEM_IUPAC_INCHIKEY>
VFKPSVYKJYSCHM-ZLMOABSSSA-N
> <PUBCHEM_XLOGP3_AA>
-0.6
> <PUBCHEM_EXACT_MASS>
319.19948764
> <PUBCHEM_MOLECULAR_FORMULA>
C15H29NO6
> <PUBCHEM_MOLECULAR_WEIGHT>
319.39
> <PUBCHEM_OPENEYE_CAN_SMILES>
CC1(OCC(O1)CCCCN2CC(C(C(C2CO)O)O)O)C
> <PUBCHEM_OPENEYE_ISO_SMILES>
CC1(OCC(O1)CCCCN2C[C@@H]([C@H]([C@@H]([C@H]2CO)O)O)O)C
> <PUBCHEM_CACTVS_TPSA>
103
> <PUBCHEM_MONOISOTOPIC_WEIGHT>
319.19948764
> <PUBCHEM_TOTAL_CHARGE>
0
> <PUBCHEM_HEAVY_ATOM_COUNT>
22
> <PUBCHEM_ATOM_DEF_STEREO_COUNT>
4
> <PUBCHEM_ATOM_UDEF_STEREO_COUNT>
1
> <PUBCHEM_BOND_DEF_STEREO_COUNT>
0
> <PUBCHEM_BOND_UDEF_STEREO_COUNT>
0
> <PUBCHEM_ISOTOPIC_ATOM_COUNT>
0
> <PUBCHEM_COMPONENT_COUNT>
1
> <PUBCHEM_CACTVS_TAUTO_COUNT>
-1
> <PUBCHEM_COORDINATE_TYPE>
1
5
255
> <PUBCHEM_BONDANNOTATIONS>
9  1  6
18  17  3
10  2  5
12  3  6
8  15  5
$$$$
