503957
  -OEChem-10302200282D
125127  0     1  0  0  0  0  0999 V2000
    9.1559    2.3655    0.0000 S   0  0  0  0  0  0  0  0  0  0  0  0
    7.7469   -0.7991    0.0000 P   0  0  3  0  0  0  0  0  0  0  0  0
    5.8858    1.6654    0.0000 O   0  0  0  0  0  0  0  0  0  0  0  0
    7.1591    0.0099    0.0000 O   0  0  0  0  0  0  0  0  0  0  0  0
    6.8089    3.2532    0.0000 O   0  0  0  0  0  0  0  0  0  0  0  0
    8.5559   -0.2114    0.0000 O   0  0  0  0  0  0  0  0  0  0  0  0
    8.3347   -1.6082    0.0000 O   0  0  0  0  0  0  0  0  0  0  0  0
    6.9379   -1.3869    0.0000 O   0  0  0  0  0  0  0  0  0  0  0  0
    5.0768    6.2532    0.0000 O   0  0  0  0  0  0  0  0  0  0  0  0
   12.6749   -4.6352    0.0000 O   0  0  0  0  0  0  0  0  0  0  0  0
   15.7031    0.0371    0.0000 O   0  0  0  0  0  0  0  0  0  0  0  0
   14.1208    0.7416    0.0000 O   0  0  0  0  0  0  0  0  0  0  0  0
   14.4829   -2.7036    0.0000 O   0  0  0  0  0  0  0  0  0  0  0  0
   10.8785    2.5465    0.0000 O   0  0  0  0  0  0  0  0  0  0  0  0
   14.0761   -3.6171    0.0000 O   0  0  0  0  0  0  0  0  0  0  0  0
   15.8841   -1.6855    0.0000 O   0  0  0  0  0  0  0  0  0  0  0  0
   12.7195   -0.2765    0.0000 O   0  0  0  0  0  0  0  0  0  0  0  0
    5.0768    3.2532    0.0000 N   0  0  0  0  0  0  0  0  0  0  0  0
    3.9890   -0.0947    0.0000 N   0  0  0  0  0  0  0  0  0  0  0  0
    5.9428    4.7532    0.0000 N   0  0  0  0  0  0  0  0  0  0  0  0
    2.9945    0.0099    0.0000 N   0  3  0  0  0  0  0  0  0  0  0  0
    2.0000    0.1144    0.0000 N   0  5  0  0  0  0  0  0  0  0  0  0
   12.4938   -2.9126    0.0000 N   0  0  0  0  0  0  0  0  0  0  0  0
   14.3018   -0.9810    0.0000 N   0  0  0  0  0  0  0  0  0  0  0  0
    4.5768    0.7144    0.0000 C   0  0  2  0  0  0  0  0  0  0  0  0
    5.5768    0.7144    0.0000 C   0  0  1  0  0  0  0  0  0  0  0  0
    4.2678    1.6654    0.0000 C   0  0  0  0  0  0  0  0  0  0  0  0
    5.0768    2.2532    0.0000 C   0  0  1  0  0  0  0  0  0  0  0  0
    6.1646   -0.0947    0.0000 C   0  0  0  0  0  0  0  0  0  0  0  0
    4.2108    3.7532    0.0000 C   0  0  0  0  0  0  0  0  0  0  0  0
    5.9428    3.7532    0.0000 C   0  0  0  0  0  0  0  0  0  0  0  0
    4.2108    4.7532    0.0000 C   0  0  0  0  0  0  0  0  0  0  0  0
    5.0768    5.2532    0.0000 C   0  0  0  0  0  0  0  0  0  0  0  0
    3.3448    5.2532    0.0000 C   0  0  0  0  0  0  0  0  0  0  0  0
    8.4514    0.7832    0.0000 C   0  0  0  0  0  0  0  0  0  0  0  0
    9.3292   -1.5036    0.0000 C   0  0  0  0  0  0  0  0  0  0  0  0
    9.2604    1.3709    0.0000 C   0  0  0  0  0  0  0  0  0  0  0  0
    9.9170   -2.3126    0.0000 C   0  0  0  0  0  0  0  0  0  0  0  0
    9.7360   -0.5901    0.0000 C   0  0  0  0  0  0  0  0  0  0  0  0
   11.3183   -1.2946    0.0000 C   0  0  0  0  0  0  0  0  0  0  0  0
   12.3128   -1.1900    0.0000 C   0  0  0  0  0  0  0  0  0  0  0  0
   12.9006   -1.9991    0.0000 C   0  0  1  0  0  0  0  0  0  0  0  0
   10.9115   -2.2081    0.0000 C   0  0  0  0  0  0  0  0  0  0  0  0
   10.7305   -0.4856    0.0000 C   0  0  0  0  0  0  0  0  0  0  0  0
    9.8604    3.9478    0.0000 C   0  0  0  0  0  0  0  0  0  0  0  0
   13.8951   -1.8945    0.0000 C   0  0  0  0  0  0  0  0  0  0  0  0
    9.9649    2.9533    0.0000 C   0  0  0  0  0  0  0  0  0  0  0  0
    9.7559    4.9423    0.0000 C   0  0  0  0  0  0  0  0  0  0  0  0
   10.8549    4.0523    0.0000 C   0  0  0  0  0  0  0  0  0  0  0  0
    8.8659    3.8432    0.0000 C   0  0  0  0  0  0  0  0  0  0  0  0
   13.2627   -5.4442    0.0000 C   0  0  0  0  0  0  0  0  0  0  0  0
   16.6976    0.1416    0.0000 C   0  0  0  0  0  0  0  0  0  0  0  0
   13.5330    1.5506    0.0000 C   0  0  0  0  0  0  0  0  0  0  0  0
   13.0816   -3.7216    0.0000 C   0  0  0  0  0  0  0  0  0  0  0  0
   15.2964   -0.8765    0.0000 C   0  0  0  0  0  0  0  0  0  0  0  0
   13.7141   -0.1720    0.0000 C   0  0  0  0  0  0  0  0  0  0  0  0
   13.8505   -6.2532    0.0000 C   0  0  0  0  0  0  0  0  0  0  0  0
   12.4537   -6.0320    0.0000 C   0  0  0  0  0  0  0  0  0  0  0  0
   14.0717   -4.8564    0.0000 C   0  0  0  0  0  0  0  0  0  0  0  0
   17.6921    0.2461    0.0000 C   0  0  0  0  0  0  0  0  0  0  0  0
   16.5931    1.1361    0.0000 C   0  0  0  0  0  0  0  0  0  0  0  0
   16.8021   -0.8529    0.0000 C   0  0  0  0  0  0  0  0  0  0  0  0
   14.3420    2.1384    0.0000 C   0  0  0  0  0  0  0  0  0  0  0  0
   12.9452    2.3596    0.0000 C   0  0  0  0  0  0  0  0  0  0  0  0
   12.7240    0.9628    0.0000 C   0  0  0  0  0  0  0  0  0  0  0  0
    3.9645    0.8114    0.0000 H   0  0  0  0  0  0  0  0  0  0  0  0
    6.1892    0.8114    0.0000 H   0  0  0  0  0  0  0  0  0  0  0  0
    3.9578    2.2024    0.0000 H   0  0  0  0  0  0  0  0  0  0  0  0
    3.7014    1.4132    0.0000 H   0  0  0  0  0  0  0  0  0  0  0  0
    4.5244    2.5347    0.0000 H   0  0  0  0  0  0  0  0  0  0  0  0
    5.6074   -0.3664    0.0000 H   0  0  0  0  0  0  0  0  0  0  0  0
    6.3355   -0.6906    0.0000 H   0  0  0  0  0  0  0  0  0  0  0  0
    3.6739    3.4432    0.0000 H   0  0  0  0  0  0  0  0  0  0  0  0
    6.4798    5.0632    0.0000 H   0  0  0  0  0  0  0  0  0  0  0  0
    3.6548    5.7901    0.0000 H   0  0  0  0  0  0  0  0  0  0  0  0
    2.8078    5.5632    0.0000 H   0  0  0  0  0  0  0  0  0  0  0  0
    3.0348    4.7163    0.0000 H   0  0  0  0  0  0  0  0  0  0  0  0
    8.1796    1.3404    0.0000 H   0  0  0  0  0  0  0  0  0  0  0  0
    7.8554    0.6123    0.0000 H   0  0  0  0  0  0  0  0  0  0  0  0
    9.5322    0.8137    0.0000 H   0  0  0  0  0  0  0  0  0  0  0  0
    9.8564    1.5418    0.0000 H   0  0  0  0  0  0  0  0  0  0  0  0
    9.6648   -2.8790    0.0000 H   0  0  0  0  0  0  0  0  0  0  0  0
    9.3715   -0.0885    0.0000 H   0  0  0  0  0  0  0  0  0  0  0  0
   12.8700   -0.9183    0.0000 H   0  0  0  0  0  0  0  0  0  0  0  0
   12.1419   -0.5941    0.0000 H   0  0  0  0  0  0  0  0  0  0  0  0
   12.2840   -2.0639    0.0000 H   0  0  0  0  0  0  0  0  0  0  0  0
   11.2760   -2.7097    0.0000 H   0  0  0  0  0  0  0  0  0  0  0  0
   10.9827    0.0808    0.0000 H   0  0  0  0  0  0  0  0  0  0  0  0
   11.8772   -2.9774    0.0000 H   0  0  0  0  0  0  0  0  0  0  0  0
   10.3725    5.0071    0.0000 H   0  0  0  0  0  0  0  0  0  0  0  0
    9.6910    5.5589    0.0000 H   0  0  0  0  0  0  0  0  0  0  0  0
    9.1392    4.8775    0.0000 H   0  0  0  0  0  0  0  0  0  0  0  0
   10.9197    3.4357    0.0000 H   0  0  0  0  0  0  0  0  0  0  0  0
   11.4715    4.1171    0.0000 H   0  0  0  0  0  0  0  0  0  0  0  0
   10.7901    4.6689    0.0000 H   0  0  0  0  0  0  0  0  0  0  0  0
    8.8011    4.4598    0.0000 H   0  0  0  0  0  0  0  0  0  0  0  0
    8.2493    3.7784    0.0000 H   0  0  0  0  0  0  0  0  0  0  0  0
    8.9307    3.2266    0.0000 H   0  0  0  0  0  0  0  0  0  0  0  0
   13.3489   -6.6176    0.0000 H   0  0  0  0  0  0  0  0  0  0  0  0
   14.2149   -6.7548    0.0000 H   0  0  0  0  0  0  0  0  0  0  0  0
   14.3521   -5.8888    0.0000 H   0  0  0  0  0  0  0  0  0  0  0  0
   12.0892   -5.5304    0.0000 H   0  0  0  0  0  0  0  0  0  0  0  0
   11.9521   -6.3964    0.0000 H   0  0  0  0  0  0  0  0  0  0  0  0
   12.8181   -6.5336    0.0000 H   0  0  0  0  0  0  0  0  0  0  0  0
   14.4361   -5.3580    0.0000 H   0  0  0  0  0  0  0  0  0  0  0  0
   14.5733   -4.4920    0.0000 H   0  0  0  0  0  0  0  0  0  0  0  0
   13.7073   -4.3548    0.0000 H   0  0  0  0  0  0  0  0  0  0  0  0
   17.7569   -0.3705    0.0000 H   0  0  0  0  0  0  0  0  0  0  0  0
   18.3087    0.3110    0.0000 H   0  0  0  0  0  0  0  0  0  0  0  0
   17.6273    0.8627    0.0000 H   0  0  0  0  0  0  0  0  0  0  0  0
   17.2097    1.2009    0.0000 H   0  0  0  0  0  0  0  0  0  0  0  0
   16.5283    1.7527    0.0000 H   0  0  0  0  0  0  0  0  0  0  0  0
   15.9765    1.0713    0.0000 H   0  0  0  0  0  0  0  0  0  0  0  0
   16.1855   -0.9177    0.0000 H   0  0  0  0  0  0  0  0  0  0  0  0
   16.8670   -1.4695    0.0000 H   0  0  0  0  0  0  0  0  0  0  0  0
   17.4188   -0.7881    0.0000 H   0  0  0  0  0  0  0  0  0  0  0  0
   14.7064    1.6368    0.0000 H   0  0  0  0  0  0  0  0  0  0  0  0
   14.8436    2.5028    0.0000 H   0  0  0  0  0  0  0  0  0  0  0  0
   13.9776    2.6400    0.0000 H   0  0  0  0  0  0  0  0  0  0  0  0
   13.4468    2.7240    0.0000 H   0  0  0  0  0  0  0  0  0  0  0  0
   12.5808    2.8612    0.0000 H   0  0  0  0  0  0  0  0  0  0  0  0
   12.4436    1.9952    0.0000 H   0  0  0  0  0  0  0  0  0  0  0  0
   12.3596    1.4644    0.0000 H   0  0  0  0  0  0  0  0  0  0  0  0
   12.2224    0.5984    0.0000 H   0  0  0  0  0  0  0  0  0  0  0  0
   13.0884    0.4612    0.0000 H   0  0  0  0  0  0  0  0  0  0  0  0
  1 37  1  0  0  0  0
  1 47  1  0  0  0  0
  2  4  1  0  0  0  0
  2  6  1  0  0  0  0
  2  7  1  0  0  0  0
  2  8  2  0  0  0  0
  3 26  1  0  0  0  0
  3 28  1  0  0  0  0
  4 29  1  0  0  0  0
  5 31  2  0  0  0  0
  6 35  1  0  0  0  0
  7 36  1  0  0  0  0
  9 33  2  0  0  0  0
 10 51  1  0  0  0  0
 10 54  1  0  0  0  0
 11 52  1  0  0  0  0
 11 55  1  0  0  0  0
 12 53  1  0  0  0  0
 12 56  1  0  0  0  0
 13 46  2  0  0  0  0
 14 47  2  0  0  0  0
 15 54  2  0  0  0  0
 16 55  2  0  0  0  0
 17 56  2  0  0  0  0
 28 18  1  6  0  0  0
 18 30  1  0  0  0  0
 18 31  1  0  0  0  0
 19 21  2  0  0  0  0
 25 19  1  1  0  0  0
 20 31  1  0  0  0  0
 20 33  1  0  0  0  0
 20 74  1  0  0  0  0
 21 22  2  0  0  0  0
 42 23  1  1  0  0  0
 23 54  1  0  0  0  0
 23 89  1  0  0  0  0
 24 46  1  0  0  0  0
 24 55  1  0  0  0  0
 24 56  1  0  0  0  0
 25 26  1  0  0  0  0
 25 27  1  0  0  0  0
 25 66  1  0  0  0  0
 26 29  1  6  0  0  0
 26 67  1  0  0  0  0
 27 28  1  0  0  0  0
 27 68  1  0  0  0  0
 27 69  1  0  0  0  0
 28 70  1  0  0  0  0
 29 71  1  0  0  0  0
 29 72  1  0  0  0  0
 30 32  2  0  0  0  0
 30 73  1  0  0  0  0
 32 33  1  0  0  0  0
 32 34  1  0  0  0  0
 34 75  1  0  0  0  0
 34 76  1  0  0  0  0
 34 77  1  0  0  0  0
 35 37  1  0  0  0  0
 35 78  1  0  0  0  0
 35 79  1  0  0  0  0
 36 38  2  0  0  0  0
 36 39  1  0  0  0  0
 37 80  1  0  0  0  0
 37 81  1  0  0  0  0
 38 43  1  0  0  0  0
 38 82  1  0  0  0  0
 39 44  2  0  0  0  0
 39 83  1  0  0  0  0
 40 41  1  0  0  0  0
 40 43  2  0  0  0  0
 40 44  1  0  0  0  0
 41 42  1  0  0  0  0
 41 84  1  0  0  0  0
 41 85  1  0  0  0  0
 42 46  1  0  0  0  0
 42 86  1  0  0  0  0
 43 87  1  0  0  0  0
 44 88  1  0  0  0  0
 45 47  1  0  0  0  0
 45 48  1  0  0  0  0
 45 49  1  0  0  0  0
 45 50  1  0  0  0  0
 48 90  1  0  0  0  0
 48 91  1  0  0  0  0
 48 92  1  0  0  0  0
 49 93  1  0  0  0  0
 49 94  1  0  0  0  0
 49 95  1  0  0  0  0
 50 96  1  0  0  0  0
 50 97  1  0  0  0  0
 50 98  1  0  0  0  0
 51 57  1  0  0  0  0
 51 58  1  0  0  0  0
 51 59  1  0  0  0  0
 52 60  1  0  0  0  0
 52 61  1  0  0  0  0
 52 62  1  0  0  0  0
 53 63  1  0  0  0  0
 53 64  1  0  0  0  0
 53 65  1  0  0  0  0
 57 99  1  0  0  0  0
 57100  1  0  0  0  0
 57101  1  0  0  0  0
 58102  1  0  0  0  0
 58103  1  0  0  0  0
 58104  1  0  0  0  0
 59105  1  0  0  0  0
 59106  1  0  0  0  0
 59107  1  0  0  0  0
 60108  1  0  0  0  0
 60109  1  0  0  0  0
 60110  1  0  0  0  0
 61111  1  0  0  0  0
 61112  1  0  0  0  0
 61113  1  0  0  0  0
 62114  1  0  0  0  0
 62115  1  0  0  0  0
 62116  1  0  0  0  0
 63117  1  0  0  0  0
 63118  1  0  0  0  0
 63119  1  0  0  0  0
 64120  1  0  0  0  0
 64121  1  0  0  0  0
 64122  1  0  0  0  0
 65123  1  0  0  0  0
 65124  1  0  0  0  0
 65125  1  0  0  0  0
M  CHG  2  21   1  22  -1
M  END
> <PUBCHEM_COMPOUND_CID>
503957
> <PUBCHEM_COMPOUND_CANONICALIZED>
1
> <PUBCHEM_CACTVS_COMPLEXITY>
1880
> <PUBCHEM_CACTVS_HBOND_ACCEPTOR>
18
> <PUBCHEM_CACTVS_HBOND_DONOR>
2
> <PUBCHEM_CACTVS_ROTATABLE_BOND>
23
> <PUBCHEM_CACTVS_SUBSKEYS>
AAADcfB/vAJAAAAAAAAAAAAAAAAAASAAAAAwQAAAAAAAAAABAAAAHgQYACAADnzl2AazDoPABRiKQiFWWICCAAAgIBAIiIGOCMmLZjKg0TOfMAAu1zMqiMe4+KKOIAAAAAAAAABAAAAAAAAAAAAAAAAAAA==
> <PUBCHEM_IUPAC_OPENEYE_NAME>
S-[2-[[(2S,3S,5R)-3-azido-5-(5-methyl-2,4-dioxo-pyrimidin-1-yl)tetrahydrofuran-2-yl]methoxy-[4-[(2S)-3-[bis(tert-butoxycarbonyl)amino]-2-(tert-butoxycarbonylamino)-3-oxo-propyl]phenoxy]phosphoryl]oxyethyl] 2,2-dimethylpropanethioate
> <PUBCHEM_IUPAC_CAS_NAME>
2,2-dimethylpropanethioic acid S-[2-[[(2S,3S,5R)-3-azido-5-(5-methyl-2,4-dioxo-1-pyrimidinyl)-2-oxolanyl]methoxy-[4-[(2S)-3-[bis[(2-methylpropan-2-yl)oxy-oxomethyl]amino]-2-[[(2-methylpropan-2-yl)oxy-oxomethyl]amino]-3-oxopropyl]phenoxy]phosphoryl]oxyethyl] ester
> <PUBCHEM_IUPAC_NAME_MARKUP>
<I>S</I>-[2-[[(2<I>S</I>,3<I>S</I>,5<I>R</I>)-3-azido-5-(5-methyl-2,4-dioxopyrimidin-1-yl)oxolan-2-yl]methoxy-[4-[(2<I>S</I>)-3-[bis[(2-methylpropan-2-yl)oxycarbonyl]amino]-2-[(2-methylpropan-2-yl)oxycarbonylamino]-3-oxopropyl]phenoxy]phosphoryl]oxyethyl] 2,2-dimethylpropanethioate
> <PUBCHEM_IUPAC_NAME>
S-[2-[[(2S,3S,5R)-3-azido-5-(5-methyl-2,4-dioxopyrimidin-1-yl)oxolan-2-yl]methoxy-[4-[(2S)-3-[bis[(2-methylpropan-2-yl)oxycarbonyl]amino]-2-[(2-methylpropan-2-yl)oxycarbonylamino]-3-oxopropyl]phenoxy]phosphoryl]oxyethyl] 2,2-dimethylpropanethioate
> <PUBCHEM_IUPAC_SYSTEMATIC_NAME>
S-[2-[[(2S,3S,5R)-3-azido-5-[5-methyl-2,4-bis(oxidanylidene)pyrimidin-1-yl]oxolan-2-yl]methoxy-[4-[(2S)-3-[bis[(2-methylpropan-2-yl)oxycarbonyl]amino]-2-[(2-methylpropan-2-yl)oxycarbonylamino]-3-oxidanylidene-propyl]phenoxy]phosphoryl]oxyethyl] 2,2-dimethylpropanethioate
> <PUBCHEM_IUPAC_TRADITIONAL_NAME>
2,2-dimethylpropanethioic acid S-[2-[[(2S,3S,5R)-3-azido-5-(2,4-diketo-5-methyl-pyrimidin-1-yl)tetrahydrofuran-2-yl]methoxy-[4-[(2S)-3-[bis(tert-butoxycarbonyl)amino]-2-(tert-butoxycarbonylamino)-3-keto-propyl]phenoxy]phosphoryl]oxyethyl] ester
> <PUBCHEM_IUPAC_INCHI>
InChI=1S/C41H60N7O15PS/c1-24-22-47(34(52)44-31(24)49)30-21-27(45-46-42)29(59-30)23-58-64(56,57-18-19-65-33(51)38(2,3)4)63-26-16-14-25(15-17-26)20-28(43-35(53)60-39(5,6)7)32(50)48(36(54)61-40(8,9)10)37(55)62-41(11,12)13/h14-17,22,27-30H,18-21,23H2,1-13H3,(H,43,53)(H,44,49,52)/t27-,28-,29+,30+,64?/m0/s1
> <PUBCHEM_IUPAC_INCHIKEY>
LVUPWALRQRZADM-VLVPLJRCSA-N
> <PUBCHEM_XLOGP3_AA>
6.5
> <PUBCHEM_EXACT_MASS>
953.36057240
> <PUBCHEM_MOLECULAR_FORMULA>
C41H60N7O15PS
> <PUBCHEM_MOLECULAR_WEIGHT>
954.0
> <PUBCHEM_OPENEYE_CAN_SMILES>
CC1=CN(C(=O)NC1=O)C2CC(C(O2)COP(=O)(OCCSC(=O)C(C)(C)C)OC3=CC=C(C=C3)CC(C(=O)N(C(=O)OC(C)(C)C)C(=O)OC(C)(C)C)NC(=O)OC(C)(C)C)N=[N+]=[N-]
> <PUBCHEM_OPENEYE_ISO_SMILES>
CC1=CN(C(=O)NC1=O)[C@H]2C[C@@H]([C@H](O2)COP(=O)(OCCSC(=O)C(C)(C)C)OC3=CC=C(C=C3)C[C@@H](C(=O)N(C(=O)OC(C)(C)C)C(=O)OC(C)(C)C)NC(=O)OC(C)(C)C)N=[N+]=[N-]
> <PUBCHEM_CACTVS_TPSA>
271
> <PUBCHEM_MONOISOTOPIC_WEIGHT>
953.36057240
> <PUBCHEM_TOTAL_CHARGE>
0
> <PUBCHEM_HEAVY_ATOM_COUNT>
65
> <PUBCHEM_ATOM_DEF_STEREO_COUNT>
4
> <PUBCHEM_ATOM_UDEF_STEREO_COUNT>
1
> <PUBCHEM_BOND_DEF_STEREO_COUNT>
0
> <PUBCHEM_BOND_UDEF_STEREO_COUNT>
0
> <PUBCHEM_ISOTOPIC_ATOM_COUNT>
0
> <PUBCHEM_COMPONENT_COUNT>
1
> <PUBCHEM_CACTVS_TAUTO_COUNT>
-1
> <PUBCHEM_COORDINATE_TYPE>
1
5
255
> <PUBCHEM_BONDANNOTATIONS>
28  18  6
18  30  8
18  31  8
25  19  5
2  6  3
20  31  8
20  33  8
42  23  5
26  29  6
30  32  8
32  33  8
36  38  8
36  39  8
38  43  8
39  44  8
40  43  8
40  44  8
$$$$
