503947
  -OEChem-10302200282D
 70 70  0     1  0  0  0  0  0999 V2000
   10.0491    4.3183    0.0000 Mn  0  2  0  0  0  0  0  0  0  0  0  0
   10.9152    4.8183    0.0000 Cl  0  5  0  0  0  0  0  0  0  0  0  0
    9.1831    4.8183    0.0000 Cl  0  5  0  0  0  0  0  0  0  0  0  0
    2.8316    3.5314    0.0000 N   0  0  0  0  0  0  0  0  0  0  0  0
    2.1069    5.6222    0.0000 N   0  0  0  0  0  0  0  0  0  0  0  0
    4.7635    3.0138    0.0000 N   0  0  0  0  0  0  0  0  0  0  0  0
    3.5211    7.0364    0.0000 N   0  0  0  0  0  0  0  0  0  0  0  0
    4.8871    4.6704    0.0000 N   0  0  0  0  0  0  0  0  0  0  0  0
    3.0905    2.5655    0.0000 C   0  0  1  0  0  0  0  0  0  0  0  0
    1.8481    6.5881    0.0000 C   0  0  1  0  0  0  0  0  0  0  0  0
    4.0564    2.3066    0.0000 C   0  0  1  0  0  0  0  0  0  0  0  0
    2.5552    7.2952    0.0000 C   0  0  1  0  0  0  0  0  0  0  0  0
    2.3426    1.8404    0.0000 C   0  0  0  0  0  0  0  0  0  0  0  0
    0.8379    6.8421    0.0000 C   0  0  0  0  0  0  0  0  0  0  0  0
    4.3415    1.3048    0.0000 C   0  0  0  0  0  0  0  0  0  0  0  0
    2.3011    8.3054    0.0000 C   0  0  0  0  0  0  0  0  0  0  0  0
    2.6045    0.8322    0.0000 C   0  0  0  0  0  0  0  0  0  0  0  0
    0.5606    7.8462    0.0000 C   0  0  0  0  0  0  0  0  0  0  0  0
    3.6106    0.5626    0.0000 C   0  0  0  0  0  0  0  0  0  0  0  0
    1.2971    8.5827    0.0000 C   0  0  0  0  0  0  0  0  0  0  0  0
    1.8657    3.7902    0.0000 C   0  0  0  0  0  0  0  0  0  0  0  0
    1.6069    4.7561    0.0000 C   0  0  0  0  0  0  0  0  0  0  0  0
    5.7532    3.1704    0.0000 C   0  0  2  0  0  0  0  0  0  0  0  0
    4.0211    6.1704    0.0000 C   0  0  2  0  0  0  0  0  0  0  0  0
    5.7532    4.1704    0.0000 C   0  0  0  0  0  0  0  0  0  0  0  0
    4.8871    5.6704    0.0000 C   0  0  0  0  0  0  0  0  0  0  0  0
    6.5143    2.5217    0.0000 C   0  0  0  0  0  0  0  0  0  0  0  0
    3.7623    5.2044    0.0000 C   0  0  0  0  0  0  0  0  0  0  0  0
    6.6192    4.6704    0.0000 C   0  0  0  0  0  0  0  0  0  0  0  0
    5.7532    6.1704    0.0000 C   0  0  0  0  0  0  0  0  0  0  0  0
    6.6192    5.6704    0.0000 C   0  0  0  0  0  0  0  0  0  0  0  0
    2.2694    2.7855    0.0000 H   0  0  0  0  0  0  0  0  0  0  0  0
    1.2470    5.9870    0.0000 H   0  0  0  0  0  0  0  0  0  0  0  0
    4.8774    2.0866    0.0000 H   0  0  0  0  0  0  0  0  0  0  0  0
    3.1562    7.8962    0.0000 H   0  0  0  0  0  0  0  0  0  0  0  0
    1.9936    2.3528    0.0000 H   0  0  0  0  0  0  0  0  0  0  0  0
    1.7781    1.5841    0.0000 H   0  0  0  0  0  0  0  0  0  0  0  0
    0.2208    6.7818    0.0000 H   0  0  0  0  0  0  0  0  0  0  0  0
    0.7918    6.2238    0.0000 H   0  0  0  0  0  0  0  0  0  0  0  0
    4.7023    0.8006    0.0000 H   0  0  0  0  0  0  0  0  0  0  0  0
    4.9000    1.5740    0.0000 H   0  0  0  0  0  0  0  0  0  0  0  0
    2.9194    8.3515    0.0000 H   0  0  0  0  0  0  0  0  0  0  0  0
    2.3615    8.9224    0.0000 H   0  0  0  0  0  0  0  0  0  0  0  0
    1.9866    0.7813    0.0000 H   0  0  0  0  0  0  0  0  0  0  0  0
    2.5488    0.2147    0.0000 H   0  0  0  0  0  0  0  0  0  0  0  0
    0.2036    8.3531    0.0000 H   0  0  0  0  0  0  0  0  0  0  0  0
    0.0000    7.5813    0.0000 H   0  0  0  0  0  0  0  0  0  0  0  0
    3.3500    0.0000    0.0000 H   0  0  0  0  0  0  0  0  0  0  0  0
    4.1203    0.2096    0.0000 H   0  0  0  0  0  0  0  0  0  0  0  0
    1.5620    9.1433    0.0000 H   0  0  0  0  0  0  0  0  0  0  0  0
    0.7901    8.9396    0.0000 H   0  0  0  0  0  0  0  0  0  0  0  0
    3.2700    3.9698    0.0000 H   0  0  0  0  0  0  0  0  0  0  0  0
    2.5988    5.2447    0.0000 H   0  0  0  0  0  0  0  0  0  0  0  0
    4.4804    3.5653    0.0000 H   0  0  0  0  0  0  0  0  0  0  0  0
    3.8985    7.5282    0.0000 H   0  0  0  0  0  0  0  0  0  0  0  0
    1.2481    3.7362    0.0000 H   0  0  0  0  0  0  0  0  0  0  0  0
    1.8117    3.1726    0.0000 H   0  0  0  0  0  0  0  0  0  0  0  0
    1.1685    5.1945    0.0000 H   0  0  0  0  0  0  0  0  0  0  0  0
    1.0700    4.4461    0.0000 H   0  0  0  0  0  0  0  0  0  0  0  0
    5.5851    2.5736    0.0000 H   0  0  0  0  0  0  0  0  0  0  0  0
    3.4064    6.0894    0.0000 H   0  0  0  0  0  0  0  0  0  0  0  0
    6.1121    2.0498    0.0000 H   0  0  0  0  0  0  0  0  0  0  0  0
    6.9862    2.1196    0.0000 H   0  0  0  0  0  0  0  0  0  0  0  0
    6.9164    2.9936    0.0000 H   0  0  0  0  0  0  0  0  0  0  0  0
    3.1634    5.3649    0.0000 H   0  0  0  0  0  0  0  0  0  0  0  0
    3.6018    4.6056    0.0000 H   0  0  0  0  0  0  0  0  0  0  0  0
    4.3612    5.0440    0.0000 H   0  0  0  0  0  0  0  0  0  0  0  0
    7.1561    4.3604    0.0000 H   0  0  0  0  0  0  0  0  0  0  0  0
    5.7532    6.7904    0.0000 H   0  0  0  0  0  0  0  0  0  0  0  0
    7.1561    5.9803    0.0000 H   0  0  0  0  0  0  0  0  0  0  0  0
  4  9  1  0  0  0  0
  4 21  1  0  0  0  0
  4 52  1  0  0  0  0
  5 10  1  0  0  0  0
  5 22  1  0  0  0  0
  5 53  1  0  0  0  0
  6 11  1  0  0  0  0
  6 23  1  0  0  0  0
  6 54  1  0  0  0  0
  7 12  1  0  0  0  0
  7 24  1  0  0  0  0
  7 55  1  0  0  0  0
  8 25  2  0  0  0  0
  8 26  1  0  0  0  0
  9 11  1  0  0  0  0
  9 13  1  0  0  0  0
  9 32  1  6  0  0  0
 10 12  1  0  0  0  0
 10 14  1  0  0  0  0
 10 33  1  1  0  0  0
 11 15  1  0  0  0  0
 11 34  1  1  0  0  0
 12 16  1  0  0  0  0
 12 35  1  6  0  0  0
 13 17  1  0  0  0  0
 13 36  1  0  0  0  0
 13 37  1  0  0  0  0
 14 18  1  0  0  0  0
 14 38  1  0  0  0  0
 14 39  1  0  0  0  0
 15 19  1  0  0  0  0
 15 40  1  0  0  0  0
 15 41  1  0  0  0  0
 16 20  1  0  0  0  0
 16 42  1  0  0  0  0
 16 43  1  0  0  0  0
 17 19  1  0  0  0  0
 17 44  1  0  0  0  0
 17 45  1  0  0  0  0
 18 20  1  0  0  0  0
 18 46  1  0  0  0  0
 18 47  1  0  0  0  0
 19 48  1  0  0  0  0
 19 49  1  0  0  0  0
 20 50  1  0  0  0  0
 20 51  1  0  0  0  0
 21 22  1  0  0  0  0
 21 56  1  0  0  0  0
 21 57  1  0  0  0  0
 22 58  1  0  0  0  0
 22 59  1  0  0  0  0
 23 25  1  0  0  0  0
 23 27  1  6  0  0  0
 23 60  1  0  0  0  0
 24 26  1  0  0  0  0
 24 28  1  6  0  0  0
 24 61  1  0  0  0  0
 25 29  1  0  0  0  0
 26 30  2  0  0  0  0
 27 62  1  0  0  0  0
 27 63  1  0  0  0  0
 27 64  1  0  0  0  0
 28 65  1  0  0  0  0
 28 66  1  0  0  0  0
 28 67  1  0  0  0  0
 29 31  2  0  0  0  0
 29 68  1  0  0  0  0
 30 31  1  0  0  0  0
 30 69  1  0  0  0  0
 31 70  1  0  0  0  0
M  CHG  3   1   2   2  -1   3  -1
M  END
> <PUBCHEM_COMPOUND_CID>
503947
> <PUBCHEM_COMPOUND_CANONICALIZED>
1
> <PUBCHEM_CACTVS_COMPLEXITY>
432
> <PUBCHEM_CACTVS_HBOND_ACCEPTOR>
7
> <PUBCHEM_CACTVS_HBOND_DONOR>
4
> <PUBCHEM_CACTVS_ROTATABLE_BOND>
0
> <PUBCHEM_CACTVS_SUBSKEYS>
AAADcfB7gAAGAABAAAAAAAAAAAAAAAAAAAA8YIAAAAAAAAABgAAAHAAQAAAACCjBFgQygJLIEACgASRiRACCgCAhAiAImKA4ZJgIYOLAkZGUIAhgkADIyAcQgIAAAAAAAAAAAAAAAAAAAAAAQAAAAAAAAA==
> <PUBCHEM_IUPAC_OPENEYE_NAME>
manganous;(2S,4R,9R,14R,19R,21S)-2,21-dimethyl-3,10,13,20,26-pentazatetracyclo[20.3.1.04,9.014,19]hexacosa-1(26),22,24-triene;dichloride
> <PUBCHEM_IUPAC_CAS_NAME>
(2S,4R,9R,14R,19R,21S)-2,21-dimethyl-3,10,13,20,26-pentazatetracyclo[20.3.1.04,9.014,19]hexacosa-1(26),22,24-triene;manganese(2+);dichloride
> <PUBCHEM_IUPAC_NAME_MARKUP>
(2<I>S</I>,4<I>R</I>,9<I>R</I>,14<I>R</I>,19<I>R</I>,21<I>S</I>)-2,21-dimethyl-3,10,13,20,26-pentazatetracyclo[20.3.1.0<SUP>4,9</SUP>.0<SUP>14,19</SUP>]hexacosa-1(26),22,24-triene;manganese(2+);dichloride
> <PUBCHEM_IUPAC_NAME>
(2S,4R,9R,14R,19R,21S)-2,21-dimethyl-3,10,13,20,26-pentazatetracyclo[20.3.1.04,9.014,19]hexacosa-1(26),22,24-triene;manganese(2+);dichloride
> <PUBCHEM_IUPAC_SYSTEMATIC_NAME>
(2S,4R,9R,14R,19R,21S)-2,21-dimethyl-3,10,13,20,26-pentazatetracyclo[20.3.1.04,9.014,19]hexacosa-1(26),22,24-triene;manganese(2+);dichloride
> <PUBCHEM_IUPAC_TRADITIONAL_NAME>
manganous;(2S,4R,9R,14R,19R,21S)-2,21-dimethyl-3,10,13,20,26-pentazatetracyclo[20.3.1.04,9.014,19]hexacosa-1(26),22,24-triene;dichloride
> <PUBCHEM_IUPAC_INCHI>
InChI=1S/C23H39N5.2ClH.Mn/c1-16-18-12-7-13-19(28-18)17(2)27-23-11-6-4-9-21(23)25-15-14-24-20-8-3-5-10-22(20)26-16;;;/h7,12-13,16-17,20-27H,3-6,8-11,14-15H2,1-2H3;2*1H;/q;;;+2/p-2/t16-,17-,20+,21+,22+,23+;;;/m0.../s1
> <PUBCHEM_IUPAC_INCHIKEY>
SGKGFJLYKFOYDK-XBUZOHRTSA-L
> <PUBCHEM_EXACT_MASS>
510.196295
> <PUBCHEM_MOLECULAR_FORMULA>
C23H39Cl2MnN5
> <PUBCHEM_MOLECULAR_WEIGHT>
511.4
> <PUBCHEM_OPENEYE_CAN_SMILES>
CC1C2=NC(=CC=C2)C(NC3CCCCC3NCCNC4CCCCC4N1)C.[Cl-].[Cl-].[Mn+2]
> <PUBCHEM_OPENEYE_ISO_SMILES>
C[C@H]1C2=NC(=CC=C2)[C@@H](N[C@@H]3CCCC[C@H]3NCCN[C@@H]4CCCC[C@H]4N1)C.[Cl-].[Cl-].[Mn+2]
> <PUBCHEM_CACTVS_TPSA>
61
> <PUBCHEM_MONOISOTOPIC_WEIGHT>
510.196295
> <PUBCHEM_TOTAL_CHARGE>
0
> <PUBCHEM_HEAVY_ATOM_COUNT>
31
> <PUBCHEM_ATOM_DEF_STEREO_COUNT>
6
> <PUBCHEM_ATOM_UDEF_STEREO_COUNT>
0
> <PUBCHEM_BOND_DEF_STEREO_COUNT>
0
> <PUBCHEM_BOND_UDEF_STEREO_COUNT>
0
> <PUBCHEM_ISOTOPIC_ATOM_COUNT>
0
> <PUBCHEM_COMPONENT_COUNT>
4
> <PUBCHEM_CACTVS_TAUTO_COUNT>
-1
> <PUBCHEM_COORDINATE_TYPE>
1
5
255
> <PUBCHEM_BONDANNOTATIONS>
10  33  5
11  34  5
12  35  6
23  27  6
24  28  6
25  29  8
26  30  8
29  31  8
30  31  8
8  25  8
8  26  8
9  32  6
$$$$
