503997
  -OEChem-10302200282D
 42 45  0     1  0  0  0  0  0999 V2000
    2.9380   -1.5352    0.0000 Cl  0  0  0  0  0  0  0  0  0  0  0  0
    6.6381   -1.2346    0.0000 O   0  0  0  0  0  0  0  0  0  0  0  0
    5.4791    0.0526    0.0000 N   0  0  0  0  0  0  0  0  0  0  0  0
    5.1701    1.0036    0.0000 N   0  0  0  0  0  0  0  0  0  0  0  0
    8.1244    0.1037    0.0000 N   0  0  0  0  0  0  0  0  0  0  0  0
    3.9890    2.7262    0.0000 N   0  0  0  0  0  0  0  0  0  0  0  0
    9.7424    0.1037    0.0000 N   0  0  0  0  0  0  0  0  0  0  0  0
    4.6701   -0.5352    0.0000 C   0  0  3  0  0  0  0  0  0  0  0  0
    3.8611    0.0526    0.0000 C   0  0  0  0  0  0  0  0  0  0  0  0
    4.1701    1.0036    0.0000 C   0  0  0  0  0  0  0  0  0  0  0  0
    4.6701   -1.5352    0.0000 C   0  0  0  0  0  0  0  0  0  0  0  0
    6.4302   -0.2564    0.0000 C   0  0  0  0  0  0  0  0  0  0  0  0
    3.5823    1.8126    0.0000 C   0  0  0  0  0  0  0  0  0  0  0  0
    7.1733    0.4127    0.0000 C   0  0  0  0  0  0  0  0  0  0  0  0
    3.8041   -2.0352    0.0000 C   0  0  0  0  0  0  0  0  0  0  0  0
    5.5361   -2.0352    0.0000 C   0  0  0  0  0  0  0  0  0  0  0  0
    3.8041   -3.0352    0.0000 C   0  0  0  0  0  0  0  0  0  0  0  0
    5.5361   -3.0352    0.0000 C   0  0  0  0  0  0  0  0  0  0  0  0
    2.5878    1.7081    0.0000 C   0  0  0  0  0  0  0  0  0  0  0  0
    4.6701   -3.5352    0.0000 C   0  0  0  0  0  0  0  0  0  0  0  0
    8.4334   -0.8474    0.0000 C   0  0  0  0  0  0  0  0  0  0  0  0
    8.9334    0.6915    0.0000 C   0  0  0  0  0  0  0  0  0  0  0  0
    2.0000    2.5171    0.0000 C   0  0  0  0  0  0  0  0  0  0  0  0
    3.4013    3.5352    0.0000 C   0  0  0  0  0  0  0  0  0  0  0  0
    2.4067    3.4307    0.0000 C   0  0  0  0  0  0  0  0  0  0  0  0
    9.4334   -0.8474    0.0000 C   0  0  0  0  0  0  0  0  0  0  0  0
    5.2225   -0.8167    0.0000 H   0  0  0  0  0  0  0  0  0  0  0  0
    3.2947    0.3048    0.0000 H   0  0  0  0  0  0  0  0  0  0  0  0
    3.5511   -0.4844    0.0000 H   0  0  0  0  0  0  0  0  0  0  0  0
    7.4644    0.9601    0.0000 H   0  0  0  0  0  0  0  0  0  0  0  0
    6.6847    0.7944    0.0000 H   0  0  0  0  0  0  0  0  0  0  0  0
    6.0730   -1.7252    0.0000 H   0  0  0  0  0  0  0  0  0  0  0  0
    3.2671   -3.3452    0.0000 H   0  0  0  0  0  0  0  0  0  0  0  0
    6.0730   -3.3452    0.0000 H   0  0  0  0  0  0  0  0  0  0  0  0
    2.3356    1.1417    0.0000 H   0  0  0  0  0  0  0  0  0  0  0  0
    4.6701   -4.1552    0.0000 H   0  0  0  0  0  0  0  0  0  0  0  0
    8.0690   -1.3490    0.0000 H   0  0  0  0  0  0  0  0  0  0  0  0
    8.9334    1.3115    0.0000 H   0  0  0  0  0  0  0  0  0  0  0  0
    1.3834    2.4523    0.0000 H   0  0  0  0  0  0  0  0  0  0  0  0
    3.6534    4.1016    0.0000 H   0  0  0  0  0  0  0  0  0  0  0  0
    2.0423    3.9323    0.0000 H   0  0  0  0  0  0  0  0  0  0  0  0
    9.7978   -1.3490    0.0000 H   0  0  0  0  0  0  0  0  0  0  0  0
  1 15  1  0  0  0  0
  2 12  2  0  0  0  0
  3  4  1  0  0  0  0
  3  8  1  0  0  0  0
  3 12  1  0  0  0  0
  4 10  2  0  0  0  0
  5 14  1  0  0  0  0
  5 21  1  0  0  0  0
  5 22  1  0  0  0  0
  6 13  1  0  0  0  0
  6 24  2  0  0  0  0
  7 22  2  0  0  0  0
  7 26  1  0  0  0  0
  8  9  1  0  0  0  0
  8 11  1  0  0  0  0
  8 27  1  0  0  0  0
  9 10  1  0  0  0  0
  9 28  1  0  0  0  0
  9 29  1  0  0  0  0
 10 13  1  0  0  0  0
 11 15  1  0  0  0  0
 11 16  2  0  0  0  0
 12 14  1  0  0  0  0
 13 19  2  0  0  0  0
 14 30  1  0  0  0  0
 14 31  1  0  0  0  0
 15 17  2  0  0  0  0
 16 18  1  0  0  0  0
 16 32  1  0  0  0  0
 17 20  1  0  0  0  0
 17 33  1  0  0  0  0
 18 20  2  0  0  0  0
 18 34  1  0  0  0  0
 19 23  1  0  0  0  0
 19 35  1  0  0  0  0
 20 36  1  0  0  0  0
 21 26  2  0  0  0  0
 21 37  1  0  0  0  0
 22 38  1  0  0  0  0
 23 25  2  0  0  0  0
 23 39  1  0  0  0  0
 24 25  1  0  0  0  0
 24 40  1  0  0  0  0
 25 41  1  0  0  0  0
 26 42  1  0  0  0  0
M  END
> <PUBCHEM_COMPOUND_CID>
503997
> <PUBCHEM_COMPOUND_CANONICALIZED>
1
> <PUBCHEM_CACTVS_COMPLEXITY>
542
> <PUBCHEM_CACTVS_HBOND_ACCEPTOR>
4
> <PUBCHEM_CACTVS_HBOND_DONOR>
0
> <PUBCHEM_CACTVS_ROTATABLE_BOND>
4
> <PUBCHEM_CACTVS_SUBSKEYS>
AAADceB7oAAEAAAAAAAAAAAAAAAAAWIAAAA8QAAAAAAAAAAB8AAAHgIIAAAADCrBniQ9kJcMEACoAzV3dACSgC0xF6Ab2CC4dpiIaOLBm7GUIAhojgLIyCcQgMAOAAAAAAABAAAAAAAAAAIAAAAAAAAAAA==
> <PUBCHEM_IUPAC_OPENEYE_NAME>
1-[3-(2-chlorophenyl)-5-(2-pyridyl)-3,4-dihydropyrazol-2-yl]-2-imidazol-1-yl-ethanone
> <PUBCHEM_IUPAC_CAS_NAME>
1-[3-(2-chlorophenyl)-5-(2-pyridinyl)-3,4-dihydropyrazol-2-yl]-2-(1-imidazolyl)ethanone
> <PUBCHEM_IUPAC_NAME_MARKUP>
1-[3-(2-chlorophenyl)-5-pyridin-2-yl-3,4-dihydropyrazol-2-yl]-2-imidazol-1-ylethanone
> <PUBCHEM_IUPAC_NAME>
1-[3-(2-chlorophenyl)-5-pyridin-2-yl-3,4-dihydropyrazol-2-yl]-2-imidazol-1-ylethanone
> <PUBCHEM_IUPAC_SYSTEMATIC_NAME>
1-[3-(2-chlorophenyl)-5-pyridin-2-yl-3,4-dihydropyrazol-2-yl]-2-imidazol-1-yl-ethanone
> <PUBCHEM_IUPAC_TRADITIONAL_NAME>
1-[5-(2-chlorophenyl)-3-(2-pyridyl)-2-pyrazolin-1-yl]-2-imidazol-1-yl-ethanone
> <PUBCHEM_IUPAC_INCHI>
InChI=1S/C19H16ClN5O/c20-15-6-2-1-5-14(15)18-11-17(16-7-3-4-8-22-16)23-25(18)19(26)12-24-10-9-21-13-24/h1-10,13,18H,11-12H2
> <PUBCHEM_IUPAC_INCHIKEY>
NLSBMVCTJATIBD-UHFFFAOYSA-N
> <PUBCHEM_XLOGP3_AA>
2.5
> <PUBCHEM_EXACT_MASS>
365.1043378
> <PUBCHEM_MOLECULAR_FORMULA>
C19H16ClN5O
> <PUBCHEM_MOLECULAR_WEIGHT>
365.8
> <PUBCHEM_OPENEYE_CAN_SMILES>
C1C(N(N=C1C2=CC=CC=N2)C(=O)CN3C=CN=C3)C4=CC=CC=C4Cl
> <PUBCHEM_OPENEYE_ISO_SMILES>
C1C(N(N=C1C2=CC=CC=N2)C(=O)CN3C=CN=C3)C4=CC=CC=C4Cl
> <PUBCHEM_CACTVS_TPSA>
63.4
> <PUBCHEM_MONOISOTOPIC_WEIGHT>
365.1043378
> <PUBCHEM_TOTAL_CHARGE>
0
> <PUBCHEM_HEAVY_ATOM_COUNT>
26
> <PUBCHEM_ATOM_DEF_STEREO_COUNT>
0
> <PUBCHEM_ATOM_UDEF_STEREO_COUNT>
1
> <PUBCHEM_BOND_DEF_STEREO_COUNT>
0
> <PUBCHEM_BOND_UDEF_STEREO_COUNT>
0
> <PUBCHEM_ISOTOPIC_ATOM_COUNT>
0
> <PUBCHEM_COMPONENT_COUNT>
1
> <PUBCHEM_CACTVS_TAUTO_COUNT>
-1
> <PUBCHEM_COORDINATE_TYPE>
1
5
255
> <PUBCHEM_BONDANNOTATIONS>
11  15  8
11  16  8
13  19  8
15  17  8
16  18  8
17  20  8
18  20  8
19  23  8
21  26  8
23  25  8
24  25  8
5  21  8
5  22  8
6  13  8
6  24  8
7  22  8
7  26  8
8  11  3
$$$$
