503971
  -OEChem-10302200282D
 78 83  0     1  0  0  0  0  0999 V2000
    3.7702   -0.4031    0.0000 O   0  0  0  0  0  0  0  0  0  0  0  0
   10.7985    0.5969    0.0000 O   0  0  0  0  0  0  0  0  0  0  0  0
    5.5301   -3.4377    0.0000 O   0  0  0  0  0  0  0  0  0  0  0  0
    3.7817   -3.4723    0.0000 O   0  0  0  0  0  0  0  0  0  0  0  0
    9.0385    3.6315    0.0000 O   0  0  0  0  0  0  0  0  0  0  0  0
    9.0602   -0.4136    0.0000 O   0  0  0  0  0  0  0  0  0  0  0  0
    7.2785   -3.4723    0.0000 O   0  0  0  0  0  0  0  0  0  0  0  0
    5.5084    0.6074    0.0000 O   0  0  0  0  0  0  0  0  0  0  0  0
   10.7869    3.6661    0.0000 O   0  0  0  0  0  0  0  0  0  0  0  0
    7.2901    3.6661    0.0000 O   0  0  0  0  0  0  0  0  0  0  0  0
    2.8641   -1.9586    0.0000 C   0  0  3  0  0  0  0  0  0  0  0  0
    2.8641   -0.9169    0.0000 C   0  0  3  0  0  0  0  0  0  0  0  0
   11.7045    2.1523    0.0000 C   0  0  3  0  0  0  0  0  0  0  0  0
   11.7045    1.1107    0.0000 C   0  0  3  0  0  0  0  0  0  0  0  0
    6.3961   -0.9377    0.0000 C   0  0  0  0  0  0  0  0  0  0  0  0
    4.6641   -1.9377    0.0000 C   0  0  0  0  0  0  0  0  0  0  0  0
    7.2901   -0.4031    0.0000 C   0  0  0  0  0  0  0  0  0  0  0  0
    8.1725    1.1315    0.0000 C   0  0  0  0  0  0  0  0  0  0  0  0
    7.2785    0.5969    0.0000 C   0  0  0  0  0  0  0  0  0  0  0  0
    4.6641   -0.9377    0.0000 C   0  0  0  0  0  0  0  0  0  0  0  0
    6.3961   -1.9377    0.0000 C   0  0  0  0  0  0  0  0  0  0  0  0
    9.9045    2.1315    0.0000 C   0  0  0  0  0  0  0  0  0  0  0  0
    3.7702   -2.4724    0.0000 C   0  0  0  0  0  0  0  0  0  0  0  0
    9.9045    1.1315    0.0000 C   0  0  0  0  0  0  0  0  0  0  0  0
    5.5301   -2.4377    0.0000 C   0  0  0  0  0  0  0  0  0  0  0  0
    8.1725    2.1315    0.0000 C   0  0  0  0  0  0  0  0  0  0  0  0
   10.7985    2.6662    0.0000 C   0  0  0  0  0  0  0  0  0  0  0  0
    5.5301   -0.4377    0.0000 C   0  0  0  0  0  0  0  0  0  0  0  0
    9.0385    0.6315    0.0000 C   0  0  0  0  0  0  0  0  0  0  0  0
    9.0385    2.6315    0.0000 C   0  0  0  0  0  0  0  0  0  0  0  0
    2.0000   -2.4619    0.0000 C   0  0  0  0  0  0  0  0  0  0  0  0
    8.1962   -0.9169    0.0000 C   0  0  0  0  0  0  0  0  0  0  0  0
    2.0000   -0.4136    0.0000 C   0  0  0  0  0  0  0  0  0  0  0  0
   12.5686    2.6557    0.0000 C   0  0  0  0  0  0  0  0  0  0  0  0
    7.2901   -2.4724    0.0000 C   0  0  0  0  0  0  0  0  0  0  0  0
    6.3725    1.1107    0.0000 C   0  0  0  0  0  0  0  0  0  0  0  0
   12.5686    0.6074    0.0000 C   0  0  0  0  0  0  0  0  0  0  0  0
    7.2785    2.6662    0.0000 C   0  0  0  0  0  0  0  0  0  0  0  0
    8.1962   -1.9586    0.0000 C   0  0  0  0  0  0  0  0  0  0  0  0
    6.3725    2.1523    0.0000 C   0  0  0  0  0  0  0  0  0  0  0  0
    4.6641   -3.9377    0.0000 C   0  0  0  0  0  0  0  0  0  0  0  0
    9.9282   -0.9102    0.0000 C   0  0  0  0  0  0  0  0  0  0  0  0
    8.1387   -3.9823    0.0000 C   0  0  0  0  0  0  0  0  0  0  0  0
    4.6404    1.1040    0.0000 C   0  0  0  0  0  0  0  0  0  0  0  0
    2.3266   -1.6496    0.0000 H   0  0  0  0  0  0  0  0  0  0  0  0
    2.8677   -0.2969    0.0000 H   0  0  0  0  0  0  0  0  0  0  0  0
   11.7009    2.7723    0.0000 H   0  0  0  0  0  0  0  0  0  0  0  0
   11.7009    0.4907    0.0000 H   0  0  0  0  0  0  0  0  0  0  0  0
    5.5301    0.1823    0.0000 H   0  0  0  0  0  0  0  0  0  0  0  0
    9.0385    0.0115    0.0000 H   0  0  0  0  0  0  0  0  0  0  0  0
    1.6879   -1.9261    0.0000 H   0  0  0  0  0  0  0  0  0  0  0  0
    1.4643   -2.7740    0.0000 H   0  0  0  0  0  0  0  0  0  0  0  0
    2.3121   -2.9976    0.0000 H   0  0  0  0  0  0  0  0  0  0  0  0
    2.3121    0.1222    0.0000 H   0  0  0  0  0  0  0  0  0  0  0  0
    1.4643   -0.1015    0.0000 H   0  0  0  0  0  0  0  0  0  0  0  0
    1.6879   -0.9493    0.0000 H   0  0  0  0  0  0  0  0  0  0  0  0
   12.8807    2.1199    0.0000 H   0  0  0  0  0  0  0  0  0  0  0  0
   13.1044    2.9677    0.0000 H   0  0  0  0  0  0  0  0  0  0  0  0
   12.2566    3.1914    0.0000 H   0  0  0  0  0  0  0  0  0  0  0  0
   12.2566    0.0716    0.0000 H   0  0  0  0  0  0  0  0  0  0  0  0
   13.1044    0.2953    0.0000 H   0  0  0  0  0  0  0  0  0  0  0  0
   12.8807    1.1431    0.0000 H   0  0  0  0  0  0  0  0  0  0  0  0
    8.7319   -2.2706    0.0000 H   0  0  0  0  0  0  0  0  0  0  0  0
    5.8367    2.4644    0.0000 H   0  0  0  0  0  0  0  0  0  0  0  0
    9.5754    3.9415    0.0000 H   0  0  0  0  0  0  0  0  0  0  0  0
    6.7568    3.9823    0.0000 H   0  0  0  0  0  0  0  0  0  0  0  0
    4.3541   -3.4008    0.0000 H   0  0  0  0  0  0  0  0  0  0  0  0
    4.1272   -4.2477    0.0000 H   0  0  0  0  0  0  0  0  0  0  0  0
    4.9741   -4.4747    0.0000 H   0  0  0  0  0  0  0  0  0  0  0  0
    9.6203   -1.4484    0.0000 H   0  0  0  0  0  0  0  0  0  0  0  0
   10.4663   -1.2182    0.0000 H   0  0  0  0  0  0  0  0  0  0  0  0
   10.2361   -0.3721    0.0000 H   0  0  0  0  0  0  0  0  0  0  0  0
    7.8225   -4.5156    0.0000 H   0  0  0  0  0  0  0  0  0  0  0  0
    8.6720   -4.2985    0.0000 H   0  0  0  0  0  0  0  0  0  0  0  0
    8.4549   -3.4490    0.0000 H   0  0  0  0  0  0  0  0  0  0  0  0
    4.9483    1.6422    0.0000 H   0  0  0  0  0  0  0  0  0  0  0  0
    4.1023    1.4120    0.0000 H   0  0  0  0  0  0  0  0  0  0  0  0
    4.3325    0.5659    0.0000 H   0  0  0  0  0  0  0  0  0  0  0  0
  1 12  1  0  0  0  0
  1 20  1  0  0  0  0
  2 14  1  0  0  0  0
  2 24  1  0  0  0  0
  3 25  1  0  0  0  0
  3 41  1  0  0  0  0
  4 23  2  0  0  0  0
  5 30  1  0  0  0  0
  5 65  1  0  0  0  0
  6 32  1  0  0  0  0
  6 42  1  0  0  0  0
  7 35  1  0  0  0  0
  7 43  1  0  0  0  0
  8 36  1  0  0  0  0
  8 44  1  0  0  0  0
  9 27  2  0  0  0  0
 10 38  1  0  0  0  0
 10 66  1  0  0  0  0
 11 12  1  0  0  0  0
 11 23  1  0  0  0  0
 11 31  1  0  0  0  0
 11 45  1  0  0  0  0
 12 33  1  0  0  0  0
 12 46  1  0  0  0  0
 13 14  1  0  0  0  0
 13 27  1  0  0  0  0
 13 34  1  0  0  0  0
 13 47  1  0  0  0  0
 14 37  1  0  0  0  0
 14 48  1  0  0  0  0
 15 17  1  0  0  0  0
 15 21  1  0  0  0  0
 15 28  2  0  0  0  0
 16 20  2  0  0  0  0
 16 23  1  0  0  0  0
 16 25  1  0  0  0  0
 17 19  1  0  0  0  0
 17 32  2  0  0  0  0
 18 19  1  0  0  0  0
 18 26  1  0  0  0  0
 18 29  2  0  0  0  0
 19 36  2  0  0  0  0
 20 28  1  0  0  0  0
 21 25  2  0  0  0  0
 21 35  1  0  0  0  0
 22 24  2  0  0  0  0
 22 27  1  0  0  0  0
 22 30  1  0  0  0  0
 24 29  1  0  0  0  0
 26 30  2  0  0  0  0
 26 38  1  0  0  0  0
 28 49  1  0  0  0  0
 29 50  1  0  0  0  0
 31 51  1  0  0  0  0
 31 52  1  0  0  0  0
 31 53  1  0  0  0  0
 32 39  1  0  0  0  0
 33 54  1  0  0  0  0
 33 55  1  0  0  0  0
 33 56  1  0  0  0  0
 34 57  1  0  0  0  0
 34 58  1  0  0  0  0
 34 59  1  0  0  0  0
 35 39  2  0  0  0  0
 36 40  1  0  0  0  0
 37 60  1  0  0  0  0
 37 61  1  0  0  0  0
 37 62  1  0  0  0  0
 38 40  2  0  0  0  0
 39 63  1  0  0  0  0
 40 64  1  0  0  0  0
 41 67  1  0  0  0  0
 41 68  1  0  0  0  0
 41 69  1  0  0  0  0
 42 70  1  0  0  0  0
 42 71  1  0  0  0  0
 42 72  1  0  0  0  0
 43 73  1  0  0  0  0
 43 74  1  0  0  0  0
 43 75  1  0  0  0  0
 44 76  1  0  0  0  0
 44 77  1  0  0  0  0
 44 78  1  0  0  0  0
M  END
> <PUBCHEM_COMPOUND_CID>
503971
> <PUBCHEM_COMPOUND_CANONICALIZED>
1
> <PUBCHEM_CACTVS_COMPLEXITY>
1070
> <PUBCHEM_CACTVS_HBOND_ACCEPTOR>
10
> <PUBCHEM_CACTVS_HBOND_DONOR>
2
> <PUBCHEM_CACTVS_ROTATABLE_BOND>
5
> <PUBCHEM_CACTVS_SUBSKEYS>
AAADcfB8PAAAAAAAAAAAAAAAAAAAAAAAAAA0aMGCAAAAAADRVAAAGgAACAAADRSgmAIyBsAABgCIAqBSAAACCAAkIAAAiAEGCMgMJzaGNBqCeWCl4BUIuQfI7PzO4AADCAAYAADAAAYQADAAAAAAAAAAAA==
> <PUBCHEM_IUPAC_OPENEYE_NAME>
5,6-dihydroxy-8-methoxy-2,3-dimethyl-9-(5,6,8-trimethoxy-2,3-dimethyl-4-oxo-2,3-dihydrobenzo[g]chromen-9-yl)-2,3-dihydrobenzo[g]chromen-4-one
> <PUBCHEM_IUPAC_CAS_NAME>
5,6-dihydroxy-8-methoxy-2,3-dimethyl-9-(5,6,8-trimethoxy-2,3-dimethyl-4-oxo-2,3-dihydrobenzo[g][1]benzopyran-9-yl)-2,3-dihydrobenzo[g][1]benzopyran-4-one
> <PUBCHEM_IUPAC_NAME_MARKUP>
5,6-dihydroxy-8-methoxy-2,3-dimethyl-9-(5,6,8-trimethoxy-2,3-dimethyl-4-oxo-2,3-dihydrobenzo[g]chromen-9-yl)-2,3-dihydrobenzo[g]chromen-4-one
> <PUBCHEM_IUPAC_NAME>
5,6-dihydroxy-8-methoxy-2,3-dimethyl-9-(5,6,8-trimethoxy-2,3-dimethyl-4-oxo-2,3-dihydrobenzo[g]chromen-9-yl)-2,3-dihydrobenzo[g]chromen-4-one
> <PUBCHEM_IUPAC_SYSTEMATIC_NAME>
8-methoxy-2,3-dimethyl-5,6-bis(oxidanyl)-9-(5,6,8-trimethoxy-2,3-dimethyl-4-oxidanylidene-2,3-dihydrobenzo[g]chromen-9-yl)-2,3-dihydrobenzo[g]chromen-4-one
> <PUBCHEM_IUPAC_TRADITIONAL_NAME>
5,6-dihydroxy-9-(4-keto-5,6,8-trimethoxy-2,3-dimethyl-2,3-dihydrobenzo[g]chromen-9-yl)-8-methoxy-2,3-dimethyl-2,3-dihydrobenzo[g]chromen-4-one
> <PUBCHEM_IUPAC_INCHI>
InChI=1S/C34H34O10/c1-13-15(3)43-23-9-17-25(33(38)29(23)31(13)36)19(35)11-20(39-5)26(17)27-18-10-24-30(32(37)14(2)16(4)44-24)34(42-8)28(18)22(41-7)12-21(27)40-6/h9-16,35,38H,1-8H3
> <PUBCHEM_IUPAC_INCHIKEY>
OGLPFNHXTUEWNW-UHFFFAOYSA-N
> <PUBCHEM_XLOGP3_AA>
6.7
> <PUBCHEM_EXACT_MASS>
602.21519728
> <PUBCHEM_MOLECULAR_FORMULA>
C34H34O10
> <PUBCHEM_MOLECULAR_WEIGHT>
602.6
> <PUBCHEM_OPENEYE_CAN_SMILES>
CC1C(OC2=C(C1=O)C(=C3C(=C2)C(=C(C=C3O)OC)C4=C(C=C(C5=C(C6=C(C=C54)OC(C(C6=O)C)C)OC)OC)OC)O)C
> <PUBCHEM_OPENEYE_ISO_SMILES>
CC1C(OC2=C(C1=O)C(=C3C(=C2)C(=C(C=C3O)OC)C4=C(C=C(C5=C(C6=C(C=C54)OC(C(C6=O)C)C)OC)OC)OC)O)C
> <PUBCHEM_CACTVS_TPSA>
130
> <PUBCHEM_MONOISOTOPIC_WEIGHT>
602.21519728
> <PUBCHEM_TOTAL_CHARGE>
0
> <PUBCHEM_HEAVY_ATOM_COUNT>
44
> <PUBCHEM_ATOM_DEF_STEREO_COUNT>
0
> <PUBCHEM_ATOM_UDEF_STEREO_COUNT>
4
> <PUBCHEM_BOND_DEF_STEREO_COUNT>
0
> <PUBCHEM_BOND_UDEF_STEREO_COUNT>
0
> <PUBCHEM_ISOTOPIC_ATOM_COUNT>
0
> <PUBCHEM_COMPONENT_COUNT>
1
> <PUBCHEM_CACTVS_TAUTO_COUNT>
-1
> <PUBCHEM_COORDINATE_TYPE>
1
5
255
> <PUBCHEM_BONDANNOTATIONS>
11  31  3
12  33  3
13  34  3
14  37  3
15  17  8
15  21  8
15  28  8
16  20  8
16  25  8
17  32  8
18  19  8
18  26  8
18  29  8
19  36  8
20  28  8
21  25  8
21  35  8
22  24  8
22  30  8
24  29  8
26  30  8
26  38  8
32  39  8
35  39  8
36  40  8
38  40  8
$$$$
