503994
  -OEChem-10302200282D
 47 51  0     1  0  0  0  0  0999 V2000
    4.3319   -1.5670    0.0000 O   0  0  0  0  0  0  0  0  0  0  0  0
    6.0640   -1.5670    0.0000 O   0  0  0  0  0  0  0  0  0  0  0  0
    6.0640   -0.5671    0.0000 O   0  0  0  0  0  0  0  0  0  0  0  0
    5.1979   -2.0670    0.0000 C   0  0  0  0  0  0  0  0  0  0  0  0
    5.1979   -0.0671    0.0000 C   0  0  1  0  0  0  0  0  0  0  0  0
    4.3319   -0.5671    0.0000 C   0  0  2  0  0  0  0  0  0  0  0  0
    6.0069   -2.6548    0.0000 C   0  0  0  0  0  0  0  0  0  0  0  0
    4.3889   -2.6548    0.0000 C   0  0  0  0  0  0  0  0  0  0  0  0
    4.9887    0.9048    0.0000 C   0  0  0  0  0  0  0  0  0  0  0  0
    5.6979   -3.6059    0.0000 C   0  0  0  0  0  0  0  0  0  0  0  0
    4.6979   -3.6059    0.0000 C   0  0  0  0  0  0  0  0  0  0  0  0
    3.5949    0.1000    0.0000 C   0  0  0  0  0  0  0  0  0  0  0  0
    4.0000    1.0078    0.0000 C   0  0  0  0  0  0  0  0  0  0  0  0
    6.0640    0.4329    0.0000 C   0  0  0  0  0  0  0  0  0  0  0  0
    3.5000    1.8738    0.0000 C   0  0  0  0  0  0  0  0  0  0  0  0
    6.9300   -0.0671    0.0000 C   0  0  0  0  0  0  0  0  0  0  0  0
    6.0640    1.4330    0.0000 C   0  0  0  0  0  0  0  0  0  0  0  0
    4.0000    2.7399    0.0000 C   0  0  0  0  0  0  0  0  0  0  0  0
    2.5000    1.8738    0.0000 C   0  0  0  0  0  0  0  0  0  0  0  0
    7.7960    0.4329    0.0000 C   0  0  0  0  0  0  0  0  0  0  0  0
    6.9300    1.9330    0.0000 C   0  0  0  0  0  0  0  0  0  0  0  0
    7.7960    1.4330    0.0000 C   0  0  0  0  0  0  0  0  0  0  0  0
    3.5000    3.6059    0.0000 C   0  0  0  0  0  0  0  0  0  0  0  0
    2.0000    2.7399    0.0000 C   0  0  0  0  0  0  0  0  0  0  0  0
    2.5000    3.6059    0.0000 C   0  0  0  0  0  0  0  0  0  0  0  0
    3.5549   -0.9118    0.0000 H   0  0  0  0  0  0  0  0  0  0  0  0
    6.5733   -2.9070    0.0000 H   0  0  0  0  0  0  0  0  0  0  0  0
    6.3169   -2.1179    0.0000 H   0  0  0  0  0  0  0  0  0  0  0  0
    4.0789   -2.1179    0.0000 H   0  0  0  0  0  0  0  0  0  0  0  0
    3.8225   -2.9070    0.0000 H   0  0  0  0  0  0  0  0  0  0  0  0
    5.6052    0.9708    0.0000 H   0  0  0  0  0  0  0  0  0  0  0  0
    4.9878    1.5248    0.0000 H   0  0  0  0  0  0  0  0  0  0  0  0
    5.6331   -4.2225    0.0000 H   0  0  0  0  0  0  0  0  0  0  0  0
    6.3044   -3.7348    0.0000 H   0  0  0  0  0  0  0  0  0  0  0  0
    4.0915   -3.7348    0.0000 H   0  0  0  0  0  0  0  0  0  0  0  0
    4.7627   -4.2225    0.0000 H   0  0  0  0  0  0  0  0  0  0  0  0
    2.9882   -0.0278    0.0000 H   0  0  0  0  0  0  0  0  0  0  0  0
    6.9300   -0.6871    0.0000 H   0  0  0  0  0  0  0  0  0  0  0  0
    5.5270    1.7430    0.0000 H   0  0  0  0  0  0  0  0  0  0  0  0
    4.6200    2.7399    0.0000 H   0  0  0  0  0  0  0  0  0  0  0  0
    2.1900    1.3369    0.0000 H   0  0  0  0  0  0  0  0  0  0  0  0
    8.3329    0.1229    0.0000 H   0  0  0  0  0  0  0  0  0  0  0  0
    6.9300    2.5530    0.0000 H   0  0  0  0  0  0  0  0  0  0  0  0
    8.3329    1.7430    0.0000 H   0  0  0  0  0  0  0  0  0  0  0  0
    3.8100    4.1428    0.0000 H   0  0  0  0  0  0  0  0  0  0  0  0
    1.3800    2.7399    0.0000 H   0  0  0  0  0  0  0  0  0  0  0  0
    2.1900    4.1428    0.0000 H   0  0  0  0  0  0  0  0  0  0  0  0
  1  4  1  0  0  0  0
  1  6  1  0  0  0  0
  2  3  1  0  0  0  0
  2  4  1  0  0  0  0
  3  5  1  0  0  0  0
  4  7  1  0  0  0  0
  4  8  1  0  0  0  0
  5  6  1  0  0  0  0
  5  9  1  0  0  0  0
  5 14  1  6  0  0  0
  6 12  1  0  0  0  0
  6 26  1  6  0  0  0
  7 10  1  0  0  0  0
  7 27  1  0  0  0  0
  7 28  1  0  0  0  0
  8 11  1  0  0  0  0
  8 29  1  0  0  0  0
  8 30  1  0  0  0  0
  9 13  1  0  0  0  0
  9 31  1  0  0  0  0
  9 32  1  0  0  0  0
 10 11  1  0  0  0  0
 10 33  1  0  0  0  0
 10 34  1  0  0  0  0
 11 35  1  0  0  0  0
 11 36  1  0  0  0  0
 12 13  2  0  0  0  0
 12 37  1  0  0  0  0
 13 15  1  0  0  0  0
 14 16  2  0  0  0  0
 14 17  1  0  0  0  0
 15 18  2  0  0  0  0
 15 19  1  0  0  0  0
 16 20  1  0  0  0  0
 16 38  1  0  0  0  0
 17 21  2  0  0  0  0
 17 39  1  0  0  0  0
 18 23  1  0  0  0  0
 18 40  1  0  0  0  0
 19 24  2  0  0  0  0
 19 41  1  0  0  0  0
 20 22  2  0  0  0  0
 20 42  1  0  0  0  0
 21 22  1  0  0  0  0
 21 43  1  0  0  0  0
 22 44  1  0  0  0  0
 23 25  2  0  0  0  0
 23 45  1  0  0  0  0
 24 25  1  0  0  0  0
 24 46  1  0  0  0  0
 25 47  1  0  0  0  0
M  END
> <PUBCHEM_COMPOUND_CID>
503994
> <PUBCHEM_COMPOUND_CANONICALIZED>
1
> <PUBCHEM_CACTVS_COMPLEXITY>
509
> <PUBCHEM_CACTVS_HBOND_ACCEPTOR>
3
> <PUBCHEM_CACTVS_HBOND_DONOR>
0
> <PUBCHEM_CACTVS_ROTATABLE_BOND>
2
> <PUBCHEM_CACTVS_SUBSKEYS>
AAADceB4MAAAAAAAAAAAAAAAAAAAAYIAAAA0YIAAAAAAAEABQAAAGgAABAAADFSgmAIwCIAABACAAiBCAAACAAAgAAAIiAAACIgZJiKAMRCCMAAkwAEOqAeAwPAOgAAAAAAAAAAAAAAAAAAAAAAAAAAAAA==
> <PUBCHEM_IUPAC_OPENEYE_NAME>
(4aS,7aS)-6,7a-diphenylspiro[4a,7-dihydrocyclopenta[e][1,2,4]trioxine-3,1'-cyclopentane]
> <PUBCHEM_IUPAC_CAS_NAME>
(4aS,7aS)-6,7a-diphenylspiro[4a,7-dihydrocyclopenta[e][1,2,4]trioxin-3,1'-cyclopentane]
> <PUBCHEM_IUPAC_NAME_MARKUP>
(4<I>a</I><I>S</I>,7<I>a</I><I>S</I>)-6,7<I>a</I>-diphenylspiro[4<I>a</I>,7-dihydrocyclopenta[e][1,2,4]trioxine-3,1&apos;-cyclopentane]
> <PUBCHEM_IUPAC_NAME>
(4aS,7aS)-6,7a-diphenylspiro[4a,7-dihydrocyclopenta[e][1,2,4]trioxine-3,1'-cyclopentane]
> <PUBCHEM_IUPAC_SYSTEMATIC_NAME>
(4aS,7aS)-6,7a-diphenylspiro[4a,7-dihydrocyclopenta[e][1,2,4]trioxine-3,1'-cyclopentane]
> <PUBCHEM_IUPAC_TRADITIONAL_NAME>
(4aS,7aS)-6,7a-diphenylspiro[4a,7-dihydrocyclopenta[e][1,2,4]trioxin-3,1'-cyclopentane]
> <PUBCHEM_IUPAC_INCHI>
InChI=1S/C22H22O3/c1-3-9-17(10-4-1)18-15-20-22(16-18,19-11-5-2-6-12-19)25-24-21(23-20)13-7-8-14-21/h1-6,9-12,15,20H,7-8,13-14,16H2/t20-,22-/m0/s1
> <PUBCHEM_IUPAC_INCHIKEY>
IIBNWGMRDCFPEU-UNMCSNQZSA-N
> <PUBCHEM_XLOGP3_AA>
4.2
> <PUBCHEM_EXACT_MASS>
334.15689456
> <PUBCHEM_MOLECULAR_FORMULA>
C22H22O3
> <PUBCHEM_MOLECULAR_WEIGHT>
334.4
> <PUBCHEM_OPENEYE_CAN_SMILES>
C1CCC2(C1)OC3C=C(CC3(OO2)C4=CC=CC=C4)C5=CC=CC=C5
> <PUBCHEM_OPENEYE_ISO_SMILES>
C1CCC2(C1)O[C@H]3C=C(C[C@]3(OO2)C4=CC=CC=C4)C5=CC=CC=C5
> <PUBCHEM_CACTVS_TPSA>
27.7
> <PUBCHEM_MONOISOTOPIC_WEIGHT>
334.15689456
> <PUBCHEM_TOTAL_CHARGE>
0
> <PUBCHEM_HEAVY_ATOM_COUNT>
25
> <PUBCHEM_ATOM_DEF_STEREO_COUNT>
2
> <PUBCHEM_ATOM_UDEF_STEREO_COUNT>
0
> <PUBCHEM_BOND_DEF_STEREO_COUNT>
0
> <PUBCHEM_BOND_UDEF_STEREO_COUNT>
0
> <PUBCHEM_ISOTOPIC_ATOM_COUNT>
0
> <PUBCHEM_COMPONENT_COUNT>
1
> <PUBCHEM_CACTVS_TAUTO_COUNT>
1
> <PUBCHEM_COORDINATE_TYPE>
1
5
255
> <PUBCHEM_BONDANNOTATIONS>
14  16  8
14  17  8
15  18  8
15  19  8
16  20  8
17  21  8
18  23  8
19  24  8
20  22  8
21  22  8
23  25  8
24  25  8
5  14  6
6  26  6
$$$$
