503951
  -OEChem-10302200282D
 47 50  0     1  0  0  0  0  0999 V2000
    5.5321    1.1677    0.0000 Cl  0  0  0  0  0  0  0  0  0  0  0  0
    3.8000    1.1677    0.0000 Cl  0  0  0  0  0  0  0  0  0  0  0  0
    5.5321   -1.8323    0.0000 P   0  0  3  0  0  0  0  0  0  0  0  0
    8.6198   -0.1573    0.0000 O   0  0  0  0  0  0  0  0  0  0  0  0
    6.5321   -1.8323    0.0000 O   0  0  0  0  0  0  0  0  0  0  0  0
    5.5321   -0.8323    0.0000 O   0  0  0  0  0  0  0  0  0  0  0  0
    4.6660   -2.3323    0.0000 O   0  0  0  0  0  0  0  0  0  0  0  0
    6.0321   -2.6983    0.0000 O   0  0  0  0  0  0  0  0  0  0  0  0
   11.3980   -1.2798    0.0000 O   0  0  0  0  0  0  0  0  0  0  0  0
   12.8070    1.8849    0.0000 O   0  0  0  0  0  0  0  0  0  0  0  0
   10.3799    0.1215    0.0000 N   0  0  0  0  0  0  0  0  0  0  0  0
   12.1025    0.3026    0.0000 N   0  0  0  0  0  0  0  0  0  0  0  0
    8.0321   -0.9663    0.0000 C   0  0  2  0  0  0  0  0  0  0  0  0
    9.5709   -0.4663    0.0000 C   0  0  1  0  0  0  0  0  0  0  0  0
    7.0321   -0.9663    0.0000 C   0  0  0  0  0  0  0  0  0  0  0  0
    8.6198   -1.7753    0.0000 C   0  0  0  0  0  0  0  0  0  0  0  0
    9.5709   -1.4663    0.0000 C   0  0  0  0  0  0  0  0  0  0  0  0
    4.6660   -0.3323    0.0000 C   0  0  3  0  0  0  0  0  0  0  0  0
    3.8000   -0.8323    0.0000 C   0  0  0  0  0  0  0  0  0  0  0  0
    3.8000   -1.8323    0.0000 C   0  0  0  0  0  0  0  0  0  0  0  0
   10.2754    1.1160    0.0000 C   0  0  0  0  0  0  0  0  0  0  0  0
    4.6660    0.6677    0.0000 C   0  0  0  0  0  0  0  0  0  0  0  0
   11.2935   -0.2852    0.0000 C   0  0  0  0  0  0  0  0  0  0  0  0
    2.9061   -0.2976    0.0000 C   0  0  0  0  0  0  0  0  0  0  0  0
   11.0844    1.7038    0.0000 C   0  0  0  0  0  0  0  0  0  0  0  0
    2.9061   -2.3670    0.0000 C   0  0  0  0  0  0  0  0  0  0  0  0
   11.9980    1.2971    0.0000 C   0  0  0  0  0  0  0  0  0  0  0  0
    2.0000   -0.8115    0.0000 C   0  0  0  0  0  0  0  0  0  0  0  0
    2.0000   -1.8531    0.0000 C   0  0  0  0  0  0  0  0  0  0  0  0
   10.9799    2.6983    0.0000 C   0  0  0  0  0  0  0  0  0  0  0  0
    7.7506   -0.4139    0.0000 H   0  0  0  0  0  0  0  0  0  0  0  0
    9.4739    0.1461    0.0000 H   0  0  0  0  0  0  0  0  0  0  0  0
    7.1397   -0.3557    0.0000 H   0  0  0  0  0  0  0  0  0  0  0  0
    6.4494   -0.7542    0.0000 H   0  0  0  0  0  0  0  0  0  0  0  0
    8.4282   -2.3650    0.0000 H   0  0  0  0  0  0  0  0  0  0  0  0
   10.0725   -1.8307    0.0000 H   0  0  0  0  0  0  0  0  0  0  0  0
    5.2030   -0.0223    0.0000 H   0  0  0  0  0  0  0  0  0  0  0  0
    9.7090    1.3682    0.0000 H   0  0  0  0  0  0  0  0  0  0  0  0
    5.2030    0.3577    0.0000 H   0  0  0  0  0  0  0  0  0  0  0  0
    2.9132    0.3223    0.0000 H   0  0  0  0  0  0  0  0  0  0  0  0
    2.9132   -2.9869    0.0000 H   0  0  0  0  0  0  0  0  0  0  0  0
   12.6689    0.0504    0.0000 H   0  0  0  0  0  0  0  0  0  0  0  0
    1.4643   -0.4994    0.0000 H   0  0  0  0  0  0  0  0  0  0  0  0
    1.4643   -2.1652    0.0000 H   0  0  0  0  0  0  0  0  0  0  0  0
   11.5965    2.7631    0.0000 H   0  0  0  0  0  0  0  0  0  0  0  0
   10.9151    3.3149    0.0000 H   0  0  0  0  0  0  0  0  0  0  0  0
   10.3633    2.6335    0.0000 H   0  0  0  0  0  0  0  0  0  0  0  0
  1 22  1  0  0  0  0
  2 22  1  0  0  0  0
  3  5  1  0  0  0  0
  3  6  1  0  0  0  0
  3  7  1  0  0  0  0
  3  8  2  0  0  0  0
  4 13  1  0  0  0  0
  4 14  1  0  0  0  0
  5 15  1  0  0  0  0
  6 18  1  0  0  0  0
  7 20  1  0  0  0  0
  9 23  2  0  0  0  0
 10 27  2  0  0  0  0
 14 11  1  1  0  0  0
 11 21  1  0  0  0  0
 11 23  1  0  0  0  0
 12 23  1  0  0  0  0
 12 27  1  0  0  0  0
 12 42  1  0  0  0  0
 13 15  1  1  0  0  0
 13 16  1  0  0  0  0
 13 31  1  0  0  0  0
 14 17  1  0  0  0  0
 14 32  1  0  0  0  0
 15 33  1  0  0  0  0
 15 34  1  0  0  0  0
 16 17  2  0  0  0  0
 16 35  1  0  0  0  0
 17 36  1  0  0  0  0
 18 19  1  0  0  0  0
 18 22  1  0  0  0  0
 18 37  1  0  0  0  0
 19 20  1  0  0  0  0
 19 24  2  0  0  0  0
 20 26  2  0  0  0  0
 21 25  2  0  0  0  0
 21 38  1  0  0  0  0
 22 39  1  0  0  0  0
 24 28  1  0  0  0  0
 24 40  1  0  0  0  0
 25 27  1  0  0  0  0
 25 30  1  0  0  0  0
 26 29  1  0  0  0  0
 26 41  1  0  0  0  0
 28 29  2  0  0  0  0
 28 43  1  0  0  0  0
 29 44  1  0  0  0  0
 30 45  1  0  0  0  0
 30 46  1  0  0  0  0
 30 47  1  0  0  0  0
M  END
> <PUBCHEM_COMPOUND_CID>
503951
> <PUBCHEM_COMPOUND_CANONICALIZED>
1
> <PUBCHEM_CACTVS_COMPLEXITY>
820
> <PUBCHEM_CACTVS_HBOND_ACCEPTOR>
7
> <PUBCHEM_CACTVS_HBOND_DONOR>
1
> <PUBCHEM_CACTVS_ROTATABLE_BOND>
5
> <PUBCHEM_CACTVS_SUBSKEYS>
AAADceB7OAIGAAAAAAAAAAAAAAAAAQAAAAA0QIAAAAAAAACRAAAAHgIQACAADBfhmMYzBoPABRCIQiFWUICCAAAgIAAIiAEOC8iJJyKBMRKOMAAtxzMKqMeAwKAOAAAAAAAIAAAAAAAAABAAAAAAAAAAAA==
> <PUBCHEM_IUPAC_OPENEYE_NAME>
1-[(2R,5S)-5-[[4-(dichloromethyl)-2-oxo-4H-1,3,2lambda5-benzodioxaphosphinin-2-yl]oxymethyl]-2,5-dihydrofuran-2-yl]-5-methyl-pyrimidine-2,4-dione
> <PUBCHEM_IUPAC_CAS_NAME>
1-[(2R,5S)-5-[[4-(dichloromethyl)-2-oxo-4H-1,3,2lambda5-benzodioxaphosphorin-2-yl]oxymethyl]-2,5-dihydrofuran-2-yl]-5-methylpyrimidine-2,4-dione
> <PUBCHEM_IUPAC_NAME_MARKUP>
1-[(2<I>R</I>,5<I>S</I>)-5-[[4-(dichloromethyl)-2-oxo-4<I>H</I>-1,3,2&lambda;<SUP>5</SUP>-benzodioxaphosphinin-2-yl]oxymethyl]-2,5-dihydrofuran-2-yl]-5-methylpyrimidine-2,4-dione
> <PUBCHEM_IUPAC_NAME>
1-[(2R,5S)-5-[[4-(dichloromethyl)-2-oxo-4H-1,3,2lambda5-benzodioxaphosphinin-2-yl]oxymethyl]-2,5-dihydrofuran-2-yl]-5-methylpyrimidine-2,4-dione
> <PUBCHEM_IUPAC_SYSTEMATIC_NAME>
1-[(2R,5S)-5-[[4-[bis(chloranyl)methyl]-2-oxidanylidene-4H-1,3,2lambda5-benzodioxaphosphinin-2-yl]oxymethyl]-2,5-dihydrofuran-2-yl]-5-methyl-pyrimidine-2,4-dione
> <PUBCHEM_IUPAC_TRADITIONAL_NAME>
1-[(2R,5S)-5-[[4-(dichloromethyl)-2-keto-4H-1,3,2lambda5-benzodioxaphosphorin-2-yl]oxymethyl]-2,5-dihydrofuran-2-yl]-5-methyl-pyrimidine-2,4-quinone
> <PUBCHEM_IUPAC_INCHI>
InChI=1S/C18H17Cl2N2O7P/c1-10-8-22(18(24)21-17(10)23)14-7-6-11(27-14)9-26-30(25)28-13-5-3-2-4-12(13)15(29-30)16(19)20/h2-8,11,14-16H,9H2,1H3,(H,21,23,24)/t11-,14+,15?,30?/m0/s1
> <PUBCHEM_IUPAC_INCHIKEY>
ZCEIGMROYJJQEA-PUFDXKOTSA-N
> <PUBCHEM_XLOGP3_AA>
1.9
> <PUBCHEM_EXACT_MASS>
474.0150433
> <PUBCHEM_MOLECULAR_FORMULA>
C18H17Cl2N2O7P
> <PUBCHEM_MOLECULAR_WEIGHT>
475.2
> <PUBCHEM_OPENEYE_CAN_SMILES>
CC1=CN(C(=O)NC1=O)C2C=CC(O2)COP3(=O)OC(C4=CC=CC=C4O3)C(Cl)Cl
> <PUBCHEM_OPENEYE_ISO_SMILES>
CC1=CN(C(=O)NC1=O)[C@H]2C=C[C@H](O2)COP3(=O)OC(C4=CC=CC=C4O3)C(Cl)Cl
> <PUBCHEM_CACTVS_TPSA>
103
> <PUBCHEM_MONOISOTOPIC_WEIGHT>
474.0150433
> <PUBCHEM_TOTAL_CHARGE>
0
> <PUBCHEM_HEAVY_ATOM_COUNT>
30
> <PUBCHEM_ATOM_DEF_STEREO_COUNT>
2
> <PUBCHEM_ATOM_UDEF_STEREO_COUNT>
2
> <PUBCHEM_BOND_DEF_STEREO_COUNT>
0
> <PUBCHEM_BOND_UDEF_STEREO_COUNT>
0
> <PUBCHEM_ISOTOPIC_ATOM_COUNT>
0
> <PUBCHEM_COMPONENT_COUNT>
1
> <PUBCHEM_CACTVS_TAUTO_COUNT>
-1
> <PUBCHEM_COORDINATE_TYPE>
1
5
255
> <PUBCHEM_BONDANNOTATIONS>
14  11  5
11  21  8
11  23  8
12  23  8
12  27  8
13  15  5
18  22  3
19  20  8
19  24  8
20  26  8
21  25  8
24  28  8
25  27  8
26  29  8
28  29  8
3  5  3
$$$$
