503972
  -OEChem-10302200282D
 78 83  0     1  0  0  0  0  0999 V2000
    3.7702   -0.4777    0.0000 O   0  0  0  0  0  0  0  0  0  0  0  0
   10.7985    0.5223    0.0000 O   0  0  0  0  0  0  0  0  0  0  0  0
    5.5301   -3.5123    0.0000 O   0  0  0  0  0  0  0  0  0  0  0  0
    9.0385    3.5569    0.0000 O   0  0  0  0  0  0  0  0  0  0  0  0
    3.7817   -3.5469    0.0000 O   0  0  0  0  0  0  0  0  0  0  0  0
   10.7869    3.5915    0.0000 O   0  0  0  0  0  0  0  0  0  0  0  0
    5.5084    0.5328    0.0000 O   0  0  0  0  0  0  0  0  0  0  0  0
    7.2785   -3.5469    0.0000 O   0  0  0  0  0  0  0  0  0  0  0  0
    9.0602   -0.4882    0.0000 O   0  0  0  0  0  0  0  0  0  0  0  0
    7.2901    3.5915    0.0000 O   0  0  0  0  0  0  0  0  0  0  0  0
    2.8641   -2.0332    0.0000 C   0  0  3  0  0  0  0  0  0  0  0  0
   11.7045    2.0777    0.0000 C   0  0  3  0  0  0  0  0  0  0  0  0
    2.8641   -0.9915    0.0000 C   0  0  3  0  0  0  0  0  0  0  0  0
   11.7045    1.0361    0.0000 C   0  0  3  0  0  0  0  0  0  0  0  0
    4.6641   -2.0123    0.0000 C   0  0  0  0  0  0  0  0  0  0  0  0
    6.3961   -1.0123    0.0000 C   0  0  0  0  0  0  0  0  0  0  0  0
    8.1725    1.0569    0.0000 C   0  0  0  0  0  0  0  0  0  0  0  0
    9.9045    2.0569    0.0000 C   0  0  0  0  0  0  0  0  0  0  0  0
    7.2785    0.5223    0.0000 C   0  0  0  0  0  0  0  0  0  0  0  0
    7.2901   -0.4777    0.0000 C   0  0  0  0  0  0  0  0  0  0  0  0
    4.6641   -1.0123    0.0000 C   0  0  0  0  0  0  0  0  0  0  0  0
    9.9045    1.0569    0.0000 C   0  0  0  0  0  0  0  0  0  0  0  0
    6.3961   -2.0123    0.0000 C   0  0  0  0  0  0  0  0  0  0  0  0
    3.7702   -2.5470    0.0000 C   0  0  0  0  0  0  0  0  0  0  0  0
    8.1725    2.0569    0.0000 C   0  0  0  0  0  0  0  0  0  0  0  0
   10.7985    2.5916    0.0000 C   0  0  0  0  0  0  0  0  0  0  0  0
    5.5301   -2.5123    0.0000 C   0  0  0  0  0  0  0  0  0  0  0  0
    9.0385    2.5569    0.0000 C   0  0  0  0  0  0  0  0  0  0  0  0
    5.5301   -0.5123    0.0000 C   0  0  0  0  0  0  0  0  0  0  0  0
    9.0385    0.5569    0.0000 C   0  0  0  0  0  0  0  0  0  0  0  0
    2.0000   -2.5365    0.0000 C   0  0  0  0  0  0  0  0  0  0  0  0
   12.5686    2.5811    0.0000 C   0  0  0  0  0  0  0  0  0  0  0  0
    6.3725    1.0361    0.0000 C   0  0  0  0  0  0  0  0  0  0  0  0
    2.0000   -0.4882    0.0000 C   0  0  0  0  0  0  0  0  0  0  0  0
   12.5686    0.5328    0.0000 C   0  0  0  0  0  0  0  0  0  0  0  0
    8.1962   -0.9915    0.0000 C   0  0  0  0  0  0  0  0  0  0  0  0
    7.2901   -2.5470    0.0000 C   0  0  0  0  0  0  0  0  0  0  0  0
    7.2785    2.5916    0.0000 C   0  0  0  0  0  0  0  0  0  0  0  0
    8.1962   -2.0332    0.0000 C   0  0  0  0  0  0  0  0  0  0  0  0
    6.3725    2.0777    0.0000 C   0  0  0  0  0  0  0  0  0  0  0  0
    4.6641   -4.0123    0.0000 C   0  0  0  0  0  0  0  0  0  0  0  0
    9.9045    4.0569    0.0000 C   0  0  0  0  0  0  0  0  0  0  0  0
    4.6404    1.0294    0.0000 C   0  0  0  0  0  0  0  0  0  0  0  0
    8.1387   -4.0569    0.0000 C   0  0  0  0  0  0  0  0  0  0  0  0
    2.3266   -1.7242    0.0000 H   0  0  0  0  0  0  0  0  0  0  0  0
   11.7009    2.6977    0.0000 H   0  0  0  0  0  0  0  0  0  0  0  0
    2.8677   -0.3715    0.0000 H   0  0  0  0  0  0  0  0  0  0  0  0
   11.7009    0.4161    0.0000 H   0  0  0  0  0  0  0  0  0  0  0  0
    5.5301    0.1077    0.0000 H   0  0  0  0  0  0  0  0  0  0  0  0
    9.0385   -0.0631    0.0000 H   0  0  0  0  0  0  0  0  0  0  0  0
    1.6879   -2.0008    0.0000 H   0  0  0  0  0  0  0  0  0  0  0  0
    1.4643   -2.8486    0.0000 H   0  0  0  0  0  0  0  0  0  0  0  0
    2.3121   -3.0722    0.0000 H   0  0  0  0  0  0  0  0  0  0  0  0
   12.8807    2.0453    0.0000 H   0  0  0  0  0  0  0  0  0  0  0  0
   13.1044    2.8931    0.0000 H   0  0  0  0  0  0  0  0  0  0  0  0
   12.2566    3.1168    0.0000 H   0  0  0  0  0  0  0  0  0  0  0  0
    2.3121    0.0475    0.0000 H   0  0  0  0  0  0  0  0  0  0  0  0
    1.4643   -0.1761    0.0000 H   0  0  0  0  0  0  0  0  0  0  0  0
    1.6879   -1.0239    0.0000 H   0  0  0  0  0  0  0  0  0  0  0  0
   12.2566   -0.0030    0.0000 H   0  0  0  0  0  0  0  0  0  0  0  0
   13.1044    0.2207    0.0000 H   0  0  0  0  0  0  0  0  0  0  0  0
   12.8807    1.0685    0.0000 H   0  0  0  0  0  0  0  0  0  0  0  0
    8.7319   -2.3452    0.0000 H   0  0  0  0  0  0  0  0  0  0  0  0
    5.8367    2.3898    0.0000 H   0  0  0  0  0  0  0  0  0  0  0  0
    9.5984   -0.7961    0.0000 H   0  0  0  0  0  0  0  0  0  0  0  0
    6.7568    3.9077    0.0000 H   0  0  0  0  0  0  0  0  0  0  0  0
    4.3541   -3.4754    0.0000 H   0  0  0  0  0  0  0  0  0  0  0  0
    4.1272   -4.3223    0.0000 H   0  0  0  0  0  0  0  0  0  0  0  0
    4.9741   -4.5493    0.0000 H   0  0  0  0  0  0  0  0  0  0  0  0
   10.2145    3.5200    0.0000 H   0  0  0  0  0  0  0  0  0  0  0  0
   10.4415    4.3669    0.0000 H   0  0  0  0  0  0  0  0  0  0  0  0
    9.5945    4.5938    0.0000 H   0  0  0  0  0  0  0  0  0  0  0  0
    4.9483    1.5676    0.0000 H   0  0  0  0  0  0  0  0  0  0  0  0
    4.1023    1.3374    0.0000 H   0  0  0  0  0  0  0  0  0  0  0  0
    4.3325    0.4913    0.0000 H   0  0  0  0  0  0  0  0  0  0  0  0
    7.8225   -4.5902    0.0000 H   0  0  0  0  0  0  0  0  0  0  0  0
    8.6720   -4.3731    0.0000 H   0  0  0  0  0  0  0  0  0  0  0  0
    8.4549   -3.5236    0.0000 H   0  0  0  0  0  0  0  0  0  0  0  0
  1 13  1  0  0  0  0
  1 21  1  0  0  0  0
  2 14  1  0  0  0  0
  2 22  1  0  0  0  0
  3 27  1  0  0  0  0
  3 41  1  0  0  0  0
  4 28  1  0  0  0  0
  4 42  1  0  0  0  0
  5 24  2  0  0  0  0
  6 26  2  0  0  0  0
  7 33  1  0  0  0  0
  7 43  1  0  0  0  0
  8 37  1  0  0  0  0
  8 44  1  0  0  0  0
  9 36  1  0  0  0  0
  9 65  1  0  0  0  0
 10 38  1  0  0  0  0
 10 66  1  0  0  0  0
 11 13  1  0  0  0  0
 11 24  1  0  0  0  0
 11 31  1  0  0  0  0
 11 45  1  0  0  0  0
 12 14  1  0  0  0  0
 12 26  1  0  0  0  0
 12 32  1  0  0  0  0
 12 46  1  0  0  0  0
 13 34  1  0  0  0  0
 13 47  1  0  0  0  0
 14 35  1  0  0  0  0
 14 48  1  0  0  0  0
 15 21  2  0  0  0  0
 15 24  1  0  0  0  0
 15 27  1  0  0  0  0
 16 20  1  0  0  0  0
 16 23  1  0  0  0  0
 16 29  2  0  0  0  0
 17 19  1  0  0  0  0
 17 25  1  0  0  0  0
 17 30  2  0  0  0  0
 18 22  2  0  0  0  0
 18 26  1  0  0  0  0
 18 28  1  0  0  0  0
 19 20  1  0  0  0  0
 19 33  2  0  0  0  0
 20 36  2  0  0  0  0
 21 29  1  0  0  0  0
 22 30  1  0  0  0  0
 23 27  2  0  0  0  0
 23 37  1  0  0  0  0
 25 28  2  0  0  0  0
 25 38  1  0  0  0  0
 29 49  1  0  0  0  0
 30 50  1  0  0  0  0
 31 51  1  0  0  0  0
 31 52  1  0  0  0  0
 31 53  1  0  0  0  0
 32 54  1  0  0  0  0
 32 55  1  0  0  0  0
 32 56  1  0  0  0  0
 33 40  1  0  0  0  0
 34 57  1  0  0  0  0
 34 58  1  0  0  0  0
 34 59  1  0  0  0  0
 35 60  1  0  0  0  0
 35 61  1  0  0  0  0
 35 62  1  0  0  0  0
 36 39  1  0  0  0  0
 37 39  2  0  0  0  0
 38 40  2  0  0  0  0
 39 63  1  0  0  0  0
 40 64  1  0  0  0  0
 41 67  1  0  0  0  0
 41 68  1  0  0  0  0
 41 69  1  0  0  0  0
 42 70  1  0  0  0  0
 42 71  1  0  0  0  0
 42 72  1  0  0  0  0
 43 73  1  0  0  0  0
 43 74  1  0  0  0  0
 43 75  1  0  0  0  0
 44 76  1  0  0  0  0
 44 77  1  0  0  0  0
 44 78  1  0  0  0  0
M  END
> <PUBCHEM_COMPOUND_CID>
503972
> <PUBCHEM_COMPOUND_CANONICALIZED>
1
> <PUBCHEM_CACTVS_COMPLEXITY>
1070
> <PUBCHEM_CACTVS_HBOND_ACCEPTOR>
10
> <PUBCHEM_CACTVS_HBOND_DONOR>
2
> <PUBCHEM_CACTVS_ROTATABLE_BOND>
5
> <PUBCHEM_CACTVS_SUBSKEYS>
AAADcfB8PAAAAAAAAAAAAAAAAAAAAAAAAAA0aMGCAAAAAADRVAAAGgAACAAADRSgmAIyBsAABgCIAqBSAAACCAAkIAAAiAEGCMgMJzaGNBqCeWCl4BUIuQfI7PzO4AADCAAYAADAAAYQADAAAAAAAAAAAA==
> <PUBCHEM_IUPAC_OPENEYE_NAME>
6-hydroxy-9-(8-hydroxy-5,6-dimethoxy-2,3-dimethyl-4-oxo-2,3-dihydrobenzo[g]chromen-9-yl)-5,8-dimethoxy-2,3-dimethyl-2,3-dihydrobenzo[g]chromen-4-one
> <PUBCHEM_IUPAC_CAS_NAME>
6-hydroxy-9-(8-hydroxy-5,6-dimethoxy-2,3-dimethyl-4-oxo-2,3-dihydrobenzo[g][1]benzopyran-9-yl)-5,8-dimethoxy-2,3-dimethyl-2,3-dihydrobenzo[g][1]benzopyran-4-one
> <PUBCHEM_IUPAC_NAME_MARKUP>
6-hydroxy-9-(8-hydroxy-5,6-dimethoxy-2,3-dimethyl-4-oxo-2,3-dihydrobenzo[g]chromen-9-yl)-5,8-dimethoxy-2,3-dimethyl-2,3-dihydrobenzo[g]chromen-4-one
> <PUBCHEM_IUPAC_NAME>
6-hydroxy-9-(8-hydroxy-5,6-dimethoxy-2,3-dimethyl-4-oxo-2,3-dihydrobenzo[g]chromen-9-yl)-5,8-dimethoxy-2,3-dimethyl-2,3-dihydrobenzo[g]chromen-4-one
> <PUBCHEM_IUPAC_SYSTEMATIC_NAME>
9-(5,6-dimethoxy-2,3-dimethyl-8-oxidanyl-4-oxidanylidene-2,3-dihydrobenzo[g]chromen-9-yl)-5,8-dimethoxy-2,3-dimethyl-6-oxidanyl-2,3-dihydrobenzo[g]chromen-4-one
> <PUBCHEM_IUPAC_TRADITIONAL_NAME>
6-hydroxy-9-(8-hydroxy-4-keto-5,6-dimethoxy-2,3-dimethyl-2,3-dihydrobenzo[g]chromen-9-yl)-5,8-dimethoxy-2,3-dimethyl-2,3-dihydrobenzo[g]chromen-4-one
> <PUBCHEM_IUPAC_INCHI>
InChI=1S/C34H34O10/c1-13-15(3)44-24-10-18-26(33(41-7)29(24)31(13)37)20(36)12-21(39-5)27(18)25-17-9-23-30(32(38)14(2)16(4)43-23)34(42-8)28(17)22(40-6)11-19(25)35/h9-16,35-36H,1-8H3
> <PUBCHEM_IUPAC_INCHIKEY>
DGRGXHLQLYWLCR-UHFFFAOYSA-N
> <PUBCHEM_XLOGP3_AA>
6.1
> <PUBCHEM_EXACT_MASS>
602.21519728
> <PUBCHEM_MOLECULAR_FORMULA>
C34H34O10
> <PUBCHEM_MOLECULAR_WEIGHT>
602.6
> <PUBCHEM_OPENEYE_CAN_SMILES>
CC1C(OC2=C(C1=O)C(=C3C(=C2)C(=C(C=C3O)OC)C4=C(C=C(C5=C(C6=C(C=C54)OC(C(C6=O)C)C)OC)OC)O)OC)C
> <PUBCHEM_OPENEYE_ISO_SMILES>
CC1C(OC2=C(C1=O)C(=C3C(=C2)C(=C(C=C3O)OC)C4=C(C=C(C5=C(C6=C(C=C54)OC(C(C6=O)C)C)OC)OC)O)OC)C
> <PUBCHEM_CACTVS_TPSA>
130
> <PUBCHEM_MONOISOTOPIC_WEIGHT>
602.21519728
> <PUBCHEM_TOTAL_CHARGE>
0
> <PUBCHEM_HEAVY_ATOM_COUNT>
44
> <PUBCHEM_ATOM_DEF_STEREO_COUNT>
0
> <PUBCHEM_ATOM_UDEF_STEREO_COUNT>
4
> <PUBCHEM_BOND_DEF_STEREO_COUNT>
0
> <PUBCHEM_BOND_UDEF_STEREO_COUNT>
0
> <PUBCHEM_ISOTOPIC_ATOM_COUNT>
0
> <PUBCHEM_COMPONENT_COUNT>
1
> <PUBCHEM_CACTVS_TAUTO_COUNT>
-1
> <PUBCHEM_COORDINATE_TYPE>
1
5
255
> <PUBCHEM_BONDANNOTATIONS>
11  31  3
12  32  3
13  34  3
14  35  3
15  21  8
15  27  8
16  20  8
16  23  8
16  29  8
17  19  8
17  25  8
17  30  8
18  22  8
18  28  8
19  33  8
20  36  8
21  29  8
22  30  8
23  27  8
23  37  8
25  28  8
25  38  8
33  40  8
36  39  8
37  39  8
38  40  8
$$$$
