503949
  -OEChem-10302200282D
 44 47  0     1  0  0  0  0  0999 V2000
    2.9176    2.4776    0.0000 Cl  0  0  0  0  0  0  0  0  0  0  0  0
    5.5321   -0.0570    0.0000 P   0  0  3  0  0  0  0  0  0  0  0  0
    8.6198    0.0000    0.0000 O   0  0  0  0  0  0  0  0  0  0  0  0
    6.5321   -0.0570    0.0000 O   0  0  0  0  0  0  0  0  0  0  0  0
    5.5321    0.9430    0.0000 O   0  0  0  0  0  0  0  0  0  0  0  0
    4.6660   -0.5570    0.0000 O   0  0  0  0  0  0  0  0  0  0  0  0
    6.0321   -0.9230    0.0000 O   0  0  0  0  0  0  0  0  0  0  0  0
    9.3618   -1.6800    0.0000 O   0  0  0  0  0  0  0  0  0  0  0  0
   12.8070   -2.0421    0.0000 O   0  0  0  0  0  0  0  0  0  0  0  0
   10.3799   -0.2787    0.0000 N   0  0  0  0  0  0  0  0  0  0  0  0
   11.0844   -1.8610    0.0000 N   0  0  0  0  0  0  0  0  0  0  0  0
    8.0321    0.8091    0.0000 C   0  0  2  0  0  0  0  0  0  0  0  0
    9.5709    0.3091    0.0000 C   0  0  1  0  0  0  0  0  0  0  0  0
    7.0321    0.8091    0.0000 C   0  0  0  0  0  0  0  0  0  0  0  0
    8.6198    1.6181    0.0000 C   0  0  0  0  0  0  0  0  0  0  0  0
    9.5709    1.3091    0.0000 C   0  0  0  0  0  0  0  0  0  0  0  0
   11.2935    0.1280    0.0000 C   0  0  0  0  0  0  0  0  0  0  0  0
   10.2754   -1.2732    0.0000 C   0  0  0  0  0  0  0  0  0  0  0  0
    3.8000    0.9430    0.0000 C   0  0  0  0  0  0  0  0  0  0  0  0
    4.6660    1.4430    0.0000 C   0  0  0  0  0  0  0  0  0  0  0  0
   12.1025   -0.4598    0.0000 C   0  0  0  0  0  0  0  0  0  0  0  0
    3.8000   -0.0570    0.0000 C   0  0  0  0  0  0  0  0  0  0  0  0
   11.9980   -1.4543    0.0000 C   0  0  0  0  0  0  0  0  0  0  0  0
    2.9061    1.4777    0.0000 C   0  0  0  0  0  0  0  0  0  0  0  0
    2.9061   -0.5916    0.0000 C   0  0  0  0  0  0  0  0  0  0  0  0
   13.0160   -0.0530    0.0000 C   0  0  0  0  0  0  0  0  0  0  0  0
    2.0000    0.9639    0.0000 C   0  0  0  0  0  0  0  0  0  0  0  0
    2.0000   -0.0778    0.0000 C   0  0  0  0  0  0  0  0  0  0  0  0
    7.7506    0.2566    0.0000 H   0  0  0  0  0  0  0  0  0  0  0  0
    9.4739   -0.3033    0.0000 H   0  0  0  0  0  0  0  0  0  0  0  0
    7.1397    1.4196    0.0000 H   0  0  0  0  0  0  0  0  0  0  0  0
    6.4494    1.0211    0.0000 H   0  0  0  0  0  0  0  0  0  0  0  0
    8.4282    2.2077    0.0000 H   0  0  0  0  0  0  0  0  0  0  0  0
   10.0725    1.6735    0.0000 H   0  0  0  0  0  0  0  0  0  0  0  0
   11.3583    0.7446    0.0000 H   0  0  0  0  0  0  0  0  0  0  0  0
    5.0646    1.9180    0.0000 H   0  0  0  0  0  0  0  0  0  0  0  0
    4.2675    1.9180    0.0000 H   0  0  0  0  0  0  0  0  0  0  0  0
   11.0196   -2.4776    0.0000 H   0  0  0  0  0  0  0  0  0  0  0  0
    2.9132   -1.2116    0.0000 H   0  0  0  0  0  0  0  0  0  0  0  0
   13.2682   -0.6194    0.0000 H   0  0  0  0  0  0  0  0  0  0  0  0
   13.5824    0.1991    0.0000 H   0  0  0  0  0  0  0  0  0  0  0  0
   12.7639    0.5134    0.0000 H   0  0  0  0  0  0  0  0  0  0  0  0
    1.4643    1.2759    0.0000 H   0  0  0  0  0  0  0  0  0  0  0  0
    1.4643   -0.3898    0.0000 H   0  0  0  0  0  0  0  0  0  0  0  0
  1 24  1  0  0  0  0
  2  4  1  0  0  0  0
  2  5  1  0  0  0  0
  2  6  1  0  0  0  0
  2  7  2  0  0  0  0
  3 12  1  0  0  0  0
  3 13  1  0  0  0  0
  4 14  1  0  0  0  0
  5 20  1  0  0  0  0
  6 22  1  0  0  0  0
  8 18  2  0  0  0  0
  9 23  2  0  0  0  0
 13 10  1  6  0  0  0
 10 17  1  0  0  0  0
 10 18  1  0  0  0  0
 11 18  1  0  0  0  0
 11 23  1  0  0  0  0
 11 38  1  0  0  0  0
 12 14  1  6  0  0  0
 12 15  1  0  0  0  0
 12 29  1  0  0  0  0
 13 16  1  0  0  0  0
 13 30  1  0  0  0  0
 14 31  1  0  0  0  0
 14 32  1  0  0  0  0
 15 16  2  0  0  0  0
 15 33  1  0  0  0  0
 16 34  1  0  0  0  0
 17 21  2  0  0  0  0
 17 35  1  0  0  0  0
 19 20  1  0  0  0  0
 19 22  2  0  0  0  0
 19 24  1  0  0  0  0
 20 36  1  0  0  0  0
 20 37  1  0  0  0  0
 21 23  1  0  0  0  0
 21 26  1  0  0  0  0
 22 25  1  0  0  0  0
 24 27  2  0  0  0  0
 25 28  2  0  0  0  0
 25 39  1  0  0  0  0
 26 40  1  0  0  0  0
 26 41  1  0  0  0  0
 26 42  1  0  0  0  0
 27 28  1  0  0  0  0
 27 43  1  0  0  0  0
 28 44  1  0  0  0  0
M  END
> <PUBCHEM_COMPOUND_CID>
503949
> <PUBCHEM_COMPOUND_CANONICALIZED>
1
> <PUBCHEM_CACTVS_COMPLEXITY>
773
> <PUBCHEM_CACTVS_HBOND_ACCEPTOR>
7
> <PUBCHEM_CACTVS_HBOND_DONOR>
1
> <PUBCHEM_CACTVS_ROTATABLE_BOND>
4
> <PUBCHEM_CACTVS_SUBSKEYS>
AAADceB7OAIEAAAAAAAAAAAAAAAAAQAAAAA0QIAAAAAAAACRAAAAHgIQACAADBbhmCYzBoPABRCIQiFWUICCAAAgJQAIiAEOCsiJJyKBMxKOMAAtxzMKqMeAwCAOAAAAAQAJAAAAAAACABIAAAAAAAAAAA==
> <PUBCHEM_IUPAC_OPENEYE_NAME>
1-[(2R,5S)-5-[(5-chloro-2-oxo-4H-1,3,2lambda5-benzodioxaphosphinin-2-yl)oxymethyl]-2,5-dihydrofuran-2-yl]-5-methyl-pyrimidine-2,4-dione
> <PUBCHEM_IUPAC_CAS_NAME>
1-[(2R,5S)-5-[(5-chloro-2-oxo-4H-1,3,2lambda5-benzodioxaphosphorin-2-yl)oxymethyl]-2,5-dihydrofuran-2-yl]-5-methylpyrimidine-2,4-dione
> <PUBCHEM_IUPAC_NAME_MARKUP>
1-[(2<I>R</I>,5<I>S</I>)-5-[(5-chloro-2-oxo-4<I>H</I>-1,3,2&lambda;<SUP>5</SUP>-benzodioxaphosphinin-2-yl)oxymethyl]-2,5-dihydrofuran-2-yl]-5-methylpyrimidine-2,4-dione
> <PUBCHEM_IUPAC_NAME>
1-[(2R,5S)-5-[(5-chloro-2-oxo-4H-1,3,2lambda5-benzodioxaphosphinin-2-yl)oxymethyl]-2,5-dihydrofuran-2-yl]-5-methylpyrimidine-2,4-dione
> <PUBCHEM_IUPAC_SYSTEMATIC_NAME>
1-[(2R,5S)-5-[(5-chloranyl-2-oxidanylidene-4H-1,3,2lambda5-benzodioxaphosphinin-2-yl)oxymethyl]-2,5-dihydrofuran-2-yl]-5-methyl-pyrimidine-2,4-dione
> <PUBCHEM_IUPAC_TRADITIONAL_NAME>
1-[(2R,5S)-5-[(5-chloro-2-keto-4H-1,3,2lambda5-benzodioxaphosphorin-2-yl)oxymethyl]-2,5-dihydrofuran-2-yl]-5-methyl-pyrimidine-2,4-quinone
> <PUBCHEM_IUPAC_INCHI>
InChI=1S/C17H16ClN2O7P/c1-10-7-20(17(22)19-16(10)21)15-6-5-11(26-15)8-24-28(23)25-9-12-13(18)3-2-4-14(12)27-28/h2-7,11,15H,8-9H2,1H3,(H,19,21,22)/t11-,15+,28?/m0/s1
> <PUBCHEM_IUPAC_INCHIKEY>
IMUOYDBGQMLQRT-BODWVHGXSA-N
> <PUBCHEM_XLOGP3_AA>
1.1
> <PUBCHEM_EXACT_MASS>
426.0383655
> <PUBCHEM_MOLECULAR_FORMULA>
C17H16ClN2O7P
> <PUBCHEM_MOLECULAR_WEIGHT>
426.7
> <PUBCHEM_OPENEYE_CAN_SMILES>
CC1=CN(C(=O)NC1=O)C2C=CC(O2)COP3(=O)OCC4=C(O3)C=CC=C4Cl
> <PUBCHEM_OPENEYE_ISO_SMILES>
CC1=CN(C(=O)NC1=O)[C@H]2C=C[C@H](O2)COP3(=O)OCC4=C(O3)C=CC=C4Cl
> <PUBCHEM_CACTVS_TPSA>
103
> <PUBCHEM_MONOISOTOPIC_WEIGHT>
426.0383655
> <PUBCHEM_TOTAL_CHARGE>
0
> <PUBCHEM_HEAVY_ATOM_COUNT>
28
> <PUBCHEM_ATOM_DEF_STEREO_COUNT>
2
> <PUBCHEM_ATOM_UDEF_STEREO_COUNT>
1
> <PUBCHEM_BOND_DEF_STEREO_COUNT>
0
> <PUBCHEM_BOND_UDEF_STEREO_COUNT>
0
> <PUBCHEM_ISOTOPIC_ATOM_COUNT>
0
> <PUBCHEM_COMPONENT_COUNT>
1
> <PUBCHEM_CACTVS_TAUTO_COUNT>
-1
> <PUBCHEM_COORDINATE_TYPE>
1
5
255
> <PUBCHEM_BONDANNOTATIONS>
13  10  6
10  17  8
10  18  8
11  18  8
11  23  8
12  14  6
17  21  8
19  22  8
19  24  8
2  4  3
21  23  8
22  25  8
24  27  8
25  28  8
27  28  8
$$$$
