503982
  -OEChem-10302200282D
 55 55  0     1  0  0  0  0  0999 V2000
    8.0622    4.5950    0.0000 O   0  0  0  0  0  0  0  0  0  0  0  0
    6.3301    5.5950    0.0000 O   0  0  0  0  0  0  0  0  0  0  0  0
    4.5981    4.5950    0.0000 O   0  0  0  0  0  0  0  0  0  0  0  0
    8.9282    3.0950    0.0000 O   0  0  0  0  0  0  0  0  0  0  0  0
    2.0000   -4.9050    0.0000 O   0  0  0  0  0  0  0  0  0  0  0  0
    6.3301    2.5950    0.0000 N   0  0  3  0  0  0  0  0  0  0  0  0
    7.1962    3.0950    0.0000 C   0  0  1  0  0  0  0  0  0  0  0  0
    7.1962    4.0950    0.0000 C   0  0  2  0  0  0  0  0  0  0  0  0
    6.3301    4.5950    0.0000 C   0  0  1  0  0  0  0  0  0  0  0  0
    5.4641    4.0950    0.0000 C   0  0  2  0  0  0  0  0  0  0  0  0
    5.4641    3.0950    0.0000 C   0  0  0  0  0  0  0  0  0  0  0  0
    6.3301    1.5950    0.0000 C   0  0  0  0  0  0  0  0  0  0  0  0
    8.0622    2.5950    0.0000 C   0  0  0  0  0  0  0  0  0  0  0  0
    5.4641    1.0950    0.0000 C   0  0  0  0  0  0  0  0  0  0  0  0
    5.4641    0.0950    0.0000 C   0  0  0  0  0  0  0  0  0  0  0  0
    4.5981   -0.4050    0.0000 C   0  0  0  0  0  0  0  0  0  0  0  0
    4.5981   -1.4050    0.0000 C   0  0  0  0  0  0  0  0  0  0  0  0
    3.7320   -1.9050    0.0000 C   0  0  0  0  0  0  0  0  0  0  0  0
    3.7320   -2.9050    0.0000 C   0  0  0  0  0  0  0  0  0  0  0  0
    2.8660   -3.4050    0.0000 C   0  0  0  0  0  0  0  0  0  0  0  0
    2.8660   -4.4050    0.0000 C   0  0  0  0  0  0  0  0  0  0  0  0
    2.0000   -5.9050    0.0000 C   0  0  0  0  0  0  0  0  0  0  0  0
    7.1962    2.4750    0.0000 H   0  0  0  0  0  0  0  0  0  0  0  0
    7.7331    3.7850    0.0000 H   0  0  0  0  0  0  0  0  0  0  0  0
    6.8671    4.9050    0.0000 H   0  0  0  0  0  0  0  0  0  0  0  0
    4.8535    3.2027    0.0000 H   0  0  0  0  0  0  0  0  0  0  0  0
    5.2520    2.5124    0.0000 H   0  0  0  0  0  0  0  0  0  0  0  0
    5.4641    4.7150    0.0000 H   0  0  0  0  0  0  0  0  0  0  0  0
    6.5422    1.0124    0.0000 H   0  0  0  0  0  0  0  0  0  0  0  0
    6.9407    1.7027    0.0000 H   0  0  0  0  0  0  0  0  0  0  0  0
    7.6636    2.1200    0.0000 H   0  0  0  0  0  0  0  0  0  0  0  0
    8.4607    2.1200    0.0000 H   0  0  0  0  0  0  0  0  0  0  0  0
    5.2520    1.6776    0.0000 H   0  0  0  0  0  0  0  0  0  0  0  0
    4.8535    0.9873    0.0000 H   0  0  0  0  0  0  0  0  0  0  0  0
    5.6762   -0.4876    0.0000 H   0  0  0  0  0  0  0  0  0  0  0  0
    6.0747    0.2027    0.0000 H   0  0  0  0  0  0  0  0  0  0  0  0
    8.0622    5.2150    0.0000 H   0  0  0  0  0  0  0  0  0  0  0  0
    4.3860    0.1776    0.0000 H   0  0  0  0  0  0  0  0  0  0  0  0
    3.9875   -0.5127    0.0000 H   0  0  0  0  0  0  0  0  0  0  0  0
    5.7932    5.9050    0.0000 H   0  0  0  0  0  0  0  0  0  0  0  0
    4.0611    4.2850    0.0000 H   0  0  0  0  0  0  0  0  0  0  0  0
    4.8101   -1.9876    0.0000 H   0  0  0  0  0  0  0  0  0  0  0  0
    5.2087   -1.2973    0.0000 H   0  0  0  0  0  0  0  0  0  0  0  0
    3.5200   -1.3224    0.0000 H   0  0  0  0  0  0  0  0  0  0  0  0
    3.1215   -2.0127    0.0000 H   0  0  0  0  0  0  0  0  0  0  0  0
    9.4651    2.7850    0.0000 H   0  0  0  0  0  0  0  0  0  0  0  0
    3.9441   -3.4876    0.0000 H   0  0  0  0  0  0  0  0  0  0  0  0
    4.3426   -2.7973    0.0000 H   0  0  0  0  0  0  0  0  0  0  0  0
    2.6540   -2.8224    0.0000 H   0  0  0  0  0  0  0  0  0  0  0  0
    2.2554   -3.5127    0.0000 H   0  0  0  0  0  0  0  0  0  0  0  0
    3.0781   -4.9876    0.0000 H   0  0  0  0  0  0  0  0  0  0  0  0
    3.4766   -4.2973    0.0000 H   0  0  0  0  0  0  0  0  0  0  0  0
    1.3800   -5.9050    0.0000 H   0  0  0  0  0  0  0  0  0  0  0  0
    2.0000   -6.5250    0.0000 H   0  0  0  0  0  0  0  0  0  0  0  0
    2.6200   -5.9050    0.0000 H   0  0  0  0  0  0  0  0  0  0  0  0
  8  1  1  6  0  0  0
  1 37  1  0  0  0  0
  9  2  1  1  0  0  0
  2 40  1  0  0  0  0
 10  3  1  6  0  0  0
  3 41  1  0  0  0  0
  4 13  1  0  0  0  0
  4 46  1  0  0  0  0
  5 21  1  0  0  0  0
  5 22  1  0  0  0  0
  6  7  1  0  0  0  0
  6 11  1  0  0  0  0
  6 12  1  0  0  0  0
  7  8  1  0  0  0  0
  7 13  1  1  0  0  0
  7 23  1  0  0  0  0
  8  9  1  0  0  0  0
  8 24  1  0  0  0  0
  9 10  1  0  0  0  0
  9 25  1  0  0  0  0
 10 11  1  0  0  0  0
 10 28  1  0  0  0  0
 11 26  1  0  0  0  0
 11 27  1  0  0  0  0
 12 14  1  0  0  0  0
 12 29  1  0  0  0  0
 12 30  1  0  0  0  0
 13 31  1  0  0  0  0
 13 32  1  0  0  0  0
 14 15  1  0  0  0  0
 14 33  1  0  0  0  0
 14 34  1  0  0  0  0
 15 16  1  0  0  0  0
 15 35  1  0  0  0  0
 15 36  1  0  0  0  0
 16 17  1  0  0  0  0
 16 38  1  0  0  0  0
 16 39  1  0  0  0  0
 17 18  1  0  0  0  0
 17 42  1  0  0  0  0
 17 43  1  0  0  0  0
 18 19  1  0  0  0  0
 18 44  1  0  0  0  0
 18 45  1  0  0  0  0
 19 20  1  0  0  0  0
 19 47  1  0  0  0  0
 19 48  1  0  0  0  0
 20 21  1  0  0  0  0
 20 49  1  0  0  0  0
 20 50  1  0  0  0  0
 21 51  1  0  0  0  0
 21 52  1  0  0  0  0
 22 53  1  0  0  0  0
 22 54  1  0  0  0  0
 22 55  1  0  0  0  0
M  END
> <PUBCHEM_COMPOUND_CID>
503982
> <PUBCHEM_COMPOUND_CANONICALIZED>
1
> <PUBCHEM_CACTVS_COMPLEXITY>
279
> <PUBCHEM_CACTVS_HBOND_ACCEPTOR>
6
> <PUBCHEM_CACTVS_HBOND_DONOR>
4
> <PUBCHEM_CACTVS_ROTATABLE_BOND>
11
> <PUBCHEM_CACTVS_SUBSKEYS>
AAADcfB6OAAAAAAAAAAAAAAAAAAAAAAAAAAsAAAAAAAAAAAAAAAAHgAACAAACDzhgAYCAAMABgAAAAAAAAAAAAAAAAAAAAAIAAADEAIAgAAEQAAHAACRAAHw4KQAAAAAAAAAAAAAAAAAAAAAAAAAAAAAAA==
> <PUBCHEM_IUPAC_OPENEYE_NAME>
(2R,3R,4R,5S)-2-(hydroxymethyl)-1-(9-methoxynonyl)piperidine-3,4,5-triol
> <PUBCHEM_IUPAC_CAS_NAME>
(2R,3R,4R,5S)-2-(hydroxymethyl)-1-(9-methoxynonyl)piperidine-3,4,5-triol
> <PUBCHEM_IUPAC_NAME_MARKUP>
(2<I>R</I>,3<I>R</I>,4<I>R</I>,5<I>S</I>)-2-(hydroxymethyl)-1-(9-methoxynonyl)piperidine-3,4,5-triol
> <PUBCHEM_IUPAC_NAME>
(2R,3R,4R,5S)-2-(hydroxymethyl)-1-(9-methoxynonyl)piperidine-3,4,5-triol
> <PUBCHEM_IUPAC_SYSTEMATIC_NAME>
(2R,3R,4R,5S)-2-(hydroxymethyl)-1-(9-methoxynonyl)piperidine-3,4,5-triol
> <PUBCHEM_IUPAC_TRADITIONAL_NAME>
(2R,3R,4R,5S)-1-(9-methoxynonyl)-2-methylol-piperidine-3,4,5-triol
> <PUBCHEM_IUPAC_INCHI>
InChI=1S/C16H33NO5/c1-22-10-8-6-4-2-3-5-7-9-17-11-14(19)16(21)15(20)13(17)12-18/h13-16,18-21H,2-12H2,1H3/t13-,14+,15-,16-/m1/s1
> <PUBCHEM_IUPAC_INCHIKEY>
TYTARGBBJQKLAJ-QKPAOTATSA-N
> <PUBCHEM_XLOGP3_AA>
1
> <PUBCHEM_EXACT_MASS>
319.23587315
> <PUBCHEM_MOLECULAR_FORMULA>
C16H33NO5
> <PUBCHEM_MOLECULAR_WEIGHT>
319.44
> <PUBCHEM_OPENEYE_CAN_SMILES>
COCCCCCCCCCN1CC(C(C(C1CO)O)O)O
> <PUBCHEM_OPENEYE_ISO_SMILES>
COCCCCCCCCCN1C[C@@H]([C@H]([C@@H]([C@H]1CO)O)O)O
> <PUBCHEM_CACTVS_TPSA>
93.4
> <PUBCHEM_MONOISOTOPIC_WEIGHT>
319.23587315
> <PUBCHEM_TOTAL_CHARGE>
0
> <PUBCHEM_HEAVY_ATOM_COUNT>
22
> <PUBCHEM_ATOM_DEF_STEREO_COUNT>
4
> <PUBCHEM_ATOM_UDEF_STEREO_COUNT>
0
> <PUBCHEM_BOND_DEF_STEREO_COUNT>
0
> <PUBCHEM_BOND_UDEF_STEREO_COUNT>
0
> <PUBCHEM_ISOTOPIC_ATOM_COUNT>
0
> <PUBCHEM_COMPONENT_COUNT>
1
> <PUBCHEM_CACTVS_TAUTO_COUNT>
1
> <PUBCHEM_COORDINATE_TYPE>
1
5
255
> <PUBCHEM_BONDANNOTATIONS>
8  1  6
9  2  5
10  3  6
7  13  5
$$$$
