503974
  -OEChem-10302200282D
 57 57  0     1  0  0  0  0  0999 V2000
    7.1962    3.8450    0.0000 O   0  0  0  0  0  0  0  0  0  0  0  0
    5.4641    4.8450    0.0000 O   0  0  0  0  0  0  0  0  0  0  0  0
    3.7320    3.8450    0.0000 O   0  0  0  0  0  0  0  0  0  0  0  0
    8.0622    2.3450    0.0000 O   0  0  0  0  0  0  0  0  0  0  0  0
    5.4641    1.8450    0.0000 N   0  0  3  0  0  0  0  0  0  0  0  0
    6.3301    2.3450    0.0000 C   0  0  1  0  0  0  0  0  0  0  0  0
    6.3301    3.3450    0.0000 C   0  0  2  0  0  0  0  0  0  0  0  0
    5.4641    3.8450    0.0000 C   0  0  1  0  0  0  0  0  0  0  0  0
    4.5981    2.3450    0.0000 C   0  0  0  0  0  0  0  0  0  0  0  0
    4.5981    3.3450    0.0000 C   0  0  2  0  0  0  0  0  0  0  0  0
    5.4641    0.8450    0.0000 C   0  0  0  0  0  0  0  0  0  0  0  0
    4.5981    0.3450    0.0000 C   0  0  0  0  0  0  0  0  0  0  0  0
    4.5981   -0.6550    0.0000 C   0  0  2  0  0  0  0  0  0  0  0  0
    7.1962    1.8450    0.0000 C   0  0  0  0  0  0  0  0  0  0  0  0
    3.7320   -1.1550    0.0000 C   0  0  0  0  0  0  0  0  0  0  0  0
    3.7320   -2.1550    0.0000 C   0  0  0  0  0  0  0  0  0  0  0  0
    5.4641   -1.1550    0.0000 C   0  0  0  0  0  0  0  0  0  0  0  0
    2.8660   -2.6550    0.0000 C   0  0  0  0  0  0  0  0  0  0  0  0
    2.8660   -3.6550    0.0000 C   0  0  3  0  0  0  0  0  0  0  0  0
    2.0000   -4.1550    0.0000 C   0  0  0  0  0  0  0  0  0  0  0  0
    3.7320   -4.1550    0.0000 C   0  0  0  0  0  0  0  0  0  0  0  0
    2.0000   -5.1550    0.0000 C   0  0  0  0  0  0  0  0  0  0  0  0
    6.3301    1.7250    0.0000 H   0  0  0  0  0  0  0  0  0  0  0  0
    6.8671    3.0350    0.0000 H   0  0  0  0  0  0  0  0  0  0  0  0
    6.0010    4.1550    0.0000 H   0  0  0  0  0  0  0  0  0  0  0  0
    3.9875    2.4527    0.0000 H   0  0  0  0  0  0  0  0  0  0  0  0
    4.3860    1.7624    0.0000 H   0  0  0  0  0  0  0  0  0  0  0  0
    4.5981    3.9650    0.0000 H   0  0  0  0  0  0  0  0  0  0  0  0
    5.6762    0.2624    0.0000 H   0  0  0  0  0  0  0  0  0  0  0  0
    6.0747    0.9527    0.0000 H   0  0  0  0  0  0  0  0  0  0  0  0
    4.3860    0.9276    0.0000 H   0  0  0  0  0  0  0  0  0  0  0  0
    3.9875    0.2373    0.0000 H   0  0  0  0  0  0  0  0  0  0  0  0
    4.5981   -1.2750    0.0000 H   0  0  0  0  0  0  0  0  0  0  0  0
    6.7976    1.3700    0.0000 H   0  0  0  0  0  0  0  0  0  0  0  0
    7.5947    1.3700    0.0000 H   0  0  0  0  0  0  0  0  0  0  0  0
    3.5200   -0.5724    0.0000 H   0  0  0  0  0  0  0  0  0  0  0  0
    3.1215   -1.2627    0.0000 H   0  0  0  0  0  0  0  0  0  0  0  0
    3.9441   -2.7376    0.0000 H   0  0  0  0  0  0  0  0  0  0  0  0
    4.3426   -2.0473    0.0000 H   0  0  0  0  0  0  0  0  0  0  0  0
    5.1541   -1.6919    0.0000 H   0  0  0  0  0  0  0  0  0  0  0  0
    6.0010   -1.4650    0.0000 H   0  0  0  0  0  0  0  0  0  0  0  0
    5.7741   -0.6181    0.0000 H   0  0  0  0  0  0  0  0  0  0  0  0
    2.6540   -2.0724    0.0000 H   0  0  0  0  0  0  0  0  0  0  0  0
    2.2554   -2.7627    0.0000 H   0  0  0  0  0  0  0  0  0  0  0  0
    7.1962    4.4650    0.0000 H   0  0  0  0  0  0  0  0  0  0  0  0
    4.9272    5.1550    0.0000 H   0  0  0  0  0  0  0  0  0  0  0  0
    3.1951    3.5350    0.0000 H   0  0  0  0  0  0  0  0  0  0  0  0
    3.4030   -3.3450    0.0000 H   0  0  0  0  0  0  0  0  0  0  0  0
    8.5991    2.0350    0.0000 H   0  0  0  0  0  0  0  0  0  0  0  0
    1.7880   -3.5724    0.0000 H   0  0  0  0  0  0  0  0  0  0  0  0
    1.3894   -4.2627    0.0000 H   0  0  0  0  0  0  0  0  0  0  0  0
    3.4220   -4.6919    0.0000 H   0  0  0  0  0  0  0  0  0  0  0  0
    4.2690   -4.4650    0.0000 H   0  0  0  0  0  0  0  0  0  0  0  0
    4.0420   -3.6181    0.0000 H   0  0  0  0  0  0  0  0  0  0  0  0
    1.3800   -5.1550    0.0000 H   0  0  0  0  0  0  0  0  0  0  0  0
    2.0000   -5.7750    0.0000 H   0  0  0  0  0  0  0  0  0  0  0  0
    2.6200   -5.1550    0.0000 H   0  0  0  0  0  0  0  0  0  0  0  0
  7  1  1  6  0  0  0
  1 45  1  0  0  0  0
  8  2  1  1  0  0  0
  2 46  1  0  0  0  0
 10  3  1  6  0  0  0
  3 47  1  0  0  0  0
  4 14  1  0  0  0  0
  4 49  1  0  0  0  0
  5  6  1  0  0  0  0
  5  9  1  0  0  0  0
  5 11  1  0  0  0  0
  6  7  1  0  0  0  0
  6 14  1  1  0  0  0
  6 23  1  0  0  0  0
  7  8  1  0  0  0  0
  7 24  1  0  0  0  0
  8 10  1  0  0  0  0
  8 25  1  0  0  0  0
  9 10  1  0  0  0  0
  9 26  1  0  0  0  0
  9 27  1  0  0  0  0
 10 28  1  0  0  0  0
 11 12  1  0  0  0  0
 11 29  1  0  0  0  0
 11 30  1  0  0  0  0
 12 13  1  0  0  0  0
 12 31  1  0  0  0  0
 12 32  1  0  0  0  0
 13 15  1  0  0  0  0
 13 17  1  1  0  0  0
 13 33  1  0  0  0  0
 14 34  1  0  0  0  0
 14 35  1  0  0  0  0
 15 16  1  0  0  0  0
 15 36  1  0  0  0  0
 15 37  1  0  0  0  0
 16 18  1  0  0  0  0
 16 38  1  0  0  0  0
 16 39  1  0  0  0  0
 17 40  1  0  0  0  0
 17 41  1  0  0  0  0
 17 42  1  0  0  0  0
 18 19  1  0  0  0  0
 18 43  1  0  0  0  0
 18 44  1  0  0  0  0
 19 20  1  0  0  0  0
 19 21  1  0  0  0  0
 19 48  1  0  0  0  0
 20 22  1  0  0  0  0
 20 50  1  0  0  0  0
 20 51  1  0  0  0  0
 21 52  1  0  0  0  0
 21 53  1  0  0  0  0
 21 54  1  0  0  0  0
 22 55  1  0  0  0  0
 22 56  1  0  0  0  0
 22 57  1  0  0  0  0
M  END
> <PUBCHEM_COMPOUND_CID>
503974
> <PUBCHEM_COMPOUND_CANONICALIZED>
1
> <PUBCHEM_CACTVS_COMPLEXITY>
302
> <PUBCHEM_CACTVS_HBOND_ACCEPTOR>
5
> <PUBCHEM_CACTVS_HBOND_DONOR>
4
> <PUBCHEM_CACTVS_ROTATABLE_BOND>
9
> <PUBCHEM_CACTVS_SUBSKEYS>
AAADcfB6OAAAAAAAAAAAAAAAAAAAAAAAAAAsAAAAAAAAAAAAAAAAHgAACAAADTzhgAYCAAMAAgAAAAAAAAAAAAAAAAAAAAAIAAADEAIAgAAEQAAHAACRAAHw4MQOAAAAAAAAAAAAAAAAAAAAAAAAAAAAAA==
> <PUBCHEM_IUPAC_OPENEYE_NAME>
(2R,3R,4R,5S)-1-[(3S)-3,7-dimethylnonyl]-2-(hydroxymethyl)piperidine-3,4,5-triol
> <PUBCHEM_IUPAC_CAS_NAME>
(2R,3R,4R,5S)-1-[(3S)-3,7-dimethylnonyl]-2-(hydroxymethyl)piperidine-3,4,5-triol
> <PUBCHEM_IUPAC_NAME_MARKUP>
(2<I>R</I>,3<I>R</I>,4<I>R</I>,5<I>S</I>)-1-[(3<I>S</I>)-3,7-dimethylnonyl]-2-(hydroxymethyl)piperidine-3,4,5-triol
> <PUBCHEM_IUPAC_NAME>
(2R,3R,4R,5S)-1-[(3S)-3,7-dimethylnonyl]-2-(hydroxymethyl)piperidine-3,4,5-triol
> <PUBCHEM_IUPAC_SYSTEMATIC_NAME>
(2R,3R,4R,5S)-1-[(3S)-3,7-dimethylnonyl]-2-(hydroxymethyl)piperidine-3,4,5-triol
> <PUBCHEM_IUPAC_TRADITIONAL_NAME>
(2R,3R,4R,5S)-1-[(3S)-3,7-dimethylnonyl]-2-methylol-piperidine-3,4,5-triol
> <PUBCHEM_IUPAC_INCHI>
InChI=1S/C17H35NO4/c1-4-12(2)6-5-7-13(3)8-9-18-10-15(20)17(22)16(21)14(18)11-19/h12-17,19-22H,4-11H2,1-3H3/t12?,13-,14+,15-,16+,17+/m0/s1
> <PUBCHEM_IUPAC_INCHIKEY>
ODFYIBHFSMOLST-QLTRYCAESA-N
> <PUBCHEM_XLOGP3_AA>
2.8
> <PUBCHEM_EXACT_MASS>
317.25660860
> <PUBCHEM_MOLECULAR_FORMULA>
C17H35NO4
> <PUBCHEM_MOLECULAR_WEIGHT>
317.5
> <PUBCHEM_OPENEYE_CAN_SMILES>
CCC(C)CCCC(C)CCN1CC(C(C(C1CO)O)O)O
> <PUBCHEM_OPENEYE_ISO_SMILES>
CCC(C)CCC[C@H](C)CCN1C[C@@H]([C@H]([C@@H]([C@H]1CO)O)O)O
> <PUBCHEM_CACTVS_TPSA>
84.2
> <PUBCHEM_MONOISOTOPIC_WEIGHT>
317.25660860
> <PUBCHEM_TOTAL_CHARGE>
0
> <PUBCHEM_HEAVY_ATOM_COUNT>
22
> <PUBCHEM_ATOM_DEF_STEREO_COUNT>
5
> <PUBCHEM_ATOM_UDEF_STEREO_COUNT>
1
> <PUBCHEM_BOND_DEF_STEREO_COUNT>
0
> <PUBCHEM_BOND_UDEF_STEREO_COUNT>
0
> <PUBCHEM_ISOTOPIC_ATOM_COUNT>
0
> <PUBCHEM_COMPONENT_COUNT>
1
> <PUBCHEM_CACTVS_TAUTO_COUNT>
-1
> <PUBCHEM_COORDINATE_TYPE>
1
5
255
> <PUBCHEM_BONDANNOTATIONS>
7  1  6
13  17  5
19  21  3
8  2  5
10  3  6
6  14  5
$$$$
