503958
  -OEChem-10302200282D
130132  0     1  0  0  0  0  0999 V2000
    9.1559    2.6665    0.0000 S   0  0  0  0  0  0  0  0  0  0  0  0
    7.7469   -0.4982    0.0000 P   0  0  3  0  0  0  0  0  0  0  0  0
    5.8858    1.9664    0.0000 O   0  0  0  0  0  0  0  0  0  0  0  0
    7.1591    0.3109    0.0000 O   0  0  0  0  0  0  0  0  0  0  0  0
    6.8089    3.5542    0.0000 O   0  0  0  0  0  0  0  0  0  0  0  0
    8.5559    0.0896    0.0000 O   0  0  0  0  0  0  0  0  0  0  0  0
    8.3347   -1.3072    0.0000 O   0  0  0  0  0  0  0  0  0  0  0  0
    6.9379   -1.0860    0.0000 O   0  0  0  0  0  0  0  0  0  0  0  0
    5.0768    6.5542    0.0000 O   0  0  0  0  0  0  0  0  0  0  0  0
   15.2964   -0.5755    0.0000 O   0  0  0  0  0  0  0  0  0  0  0  0
   11.4555   -5.0451    0.0000 O   0  0  0  0  0  0  0  0  0  0  0  0
   13.1834   -5.1659    0.0000 O   0  0  0  0  0  0  0  0  0  0  0  0
   11.4993   -2.7162    0.0000 O   0  0  0  0  0  0  0  0  0  0  0  0
   13.7141    0.1290    0.0000 O   0  0  0  0  0  0  0  0  0  0  0  0
   10.8785    2.8475    0.0000 O   0  0  0  0  0  0  0  0  0  0  0  0
   15.1410   -2.7967    0.0000 O   0  0  0  0  0  0  0  0  0  0  0  0
   10.6963   -3.4884    0.0000 O   0  0  0  0  0  0  0  0  0  0  0  0
   14.1519   -3.7300    0.0000 O   0  0  0  0  0  0  0  0  0  0  0  0
    5.0768    3.5542    0.0000 N   0  0  0  0  0  0  0  0  0  0  0  0
    3.9890    0.2063    0.0000 N   0  0  0  0  0  0  0  0  0  0  0  0
    5.9428    5.0542    0.0000 N   0  0  0  0  0  0  0  0  0  0  0  0
    2.9945    0.3109    0.0000 N   0  3  0  0  0  0  0  0  0  0  0  0
    2.0000    0.4154    0.0000 N   0  5  0  0  0  0  0  0  0  0  0  0
   13.8951   -1.5936    0.0000 N   0  0  0  0  0  0  0  0  0  0  0  0
   12.4241   -3.6092    0.0000 N   0  0  0  0  0  0  0  0  0  0  0  0
    4.5768    1.0153    0.0000 C   0  0  2  0  0  0  0  0  0  0  0  0
    5.5768    1.0153    0.0000 C   0  0  1  0  0  0  0  0  0  0  0  0
    4.2678    1.9664    0.0000 C   0  0  0  0  0  0  0  0  0  0  0  0
    5.0768    2.5542    0.0000 C   0  0  1  0  0  0  0  0  0  0  0  0
    6.1646    0.2063    0.0000 C   0  0  0  0  0  0  0  0  0  0  0  0
    4.2108    4.0542    0.0000 C   0  0  0  0  0  0  0  0  0  0  0  0
    5.9428    4.0542    0.0000 C   0  0  0  0  0  0  0  0  0  0  0  0
    4.2108    5.0542    0.0000 C   0  0  0  0  0  0  0  0  0  0  0  0
    5.0768    5.5542    0.0000 C   0  0  0  0  0  0  0  0  0  0  0  0
    3.3448    5.5542    0.0000 C   0  0  0  0  0  0  0  0  0  0  0  0
    8.4514    1.0841    0.0000 C   0  0  0  0  0  0  0  0  0  0  0  0
    9.3292   -1.2026    0.0000 C   0  0  0  0  0  0  0  0  0  0  0  0
   12.9006   -1.6981    0.0000 C   0  0  1  0  0  0  0  0  0  0  0  0
   12.3128   -0.8891    0.0000 C   0  0  0  0  0  0  0  0  0  0  0  0
   11.3183   -0.9936    0.0000 C   0  0  0  0  0  0  0  0  0  0  0  0
    9.2604    1.6719    0.0000 C   0  0  0  0  0  0  0  0  0  0  0  0
    9.9170   -2.0117    0.0000 C   0  0  0  0  0  0  0  0  0  0  0  0
    9.7360   -0.2891    0.0000 C   0  0  0  0  0  0  0  0  0  0  0  0
   10.9115   -1.9071    0.0000 C   0  0  0  0  0  0  0  0  0  0  0  0
   10.7305   -0.1846    0.0000 C   0  0  0  0  0  0  0  0  0  0  0  0
   12.4938   -2.6116    0.0000 C   0  0  0  0  0  0  0  0  0  0  0  0
    9.8604    4.2488    0.0000 C   0  0  0  0  0  0  0  0  0  0  0  0
   15.7031    0.3381    0.0000 C   0  0  0  0  0  0  0  0  0  0  0  0
   14.3018   -0.6800    0.0000 C   0  0  0  0  0  0  0  0  0  0  0  0
    9.9649    3.2542    0.0000 C   0  0  0  0  0  0  0  0  0  0  0  0
   14.8654   -1.8355    0.0000 C   0  0  0  0  0  0  0  0  0  0  0  0
   10.5567   -5.4835    0.0000 C   0  0  0  0  0  0  0  0  0  0  0  0
   14.0124   -5.7251    0.0000 C   0  0  0  0  0  0  0  0  0  0  0  0
    9.7559    5.2433    0.0000 C   0  0  0  0  0  0  0  0  0  0  0  0
   10.8549    4.3533    0.0000 C   0  0  0  0  0  0  0  0  0  0  0  0
    8.8659    4.1442    0.0000 C   0  0  0  0  0  0  0  0  0  0  0  0
   11.5253   -4.0476    0.0000 C   0  0  0  0  0  0  0  0  0  0  0  0
   13.2531   -4.1684    0.0000 C   0  0  0  0  0  0  0  0  0  0  0  0
   16.1098    1.2516    0.0000 C   0  0  0  0  0  0  0  0  0  0  0  0
   16.6166   -0.0687    0.0000 C   0  0  0  0  0  0  0  0  0  0  0  0
   14.7896    0.7448    0.0000 C   0  0  0  0  0  0  0  0  0  0  0  0
   15.5601   -1.1161    0.0000 C   0  0  0  0  0  0  0  0  0  0  0  0
    9.6580   -5.9219    0.0000 C   0  0  0  0  0  0  0  0  0  0  0  0
   10.1184   -4.5848    0.0000 C   0  0  0  0  0  0  0  0  0  0  0  0
   10.9951   -6.3823    0.0000 C   0  0  0  0  0  0  0  0  0  0  0  0
   13.4532   -6.5542    0.0000 C   0  0  0  0  0  0  0  0  0  0  0  0
   14.8414   -6.2843    0.0000 C   0  0  0  0  0  0  0  0  0  0  0  0
   14.5716   -4.8961    0.0000 C   0  0  0  0  0  0  0  0  0  0  0  0
    3.9645    1.1123    0.0000 H   0  0  0  0  0  0  0  0  0  0  0  0
    6.1892    1.1123    0.0000 H   0  0  0  0  0  0  0  0  0  0  0  0
    3.9578    2.5033    0.0000 H   0  0  0  0  0  0  0  0  0  0  0  0
    3.7014    1.7142    0.0000 H   0  0  0  0  0  0  0  0  0  0  0  0
    4.5244    2.8357    0.0000 H   0  0  0  0  0  0  0  0  0  0  0  0
    5.6074   -0.0655    0.0000 H   0  0  0  0  0  0  0  0  0  0  0  0
    6.3355   -0.3897    0.0000 H   0  0  0  0  0  0  0  0  0  0  0  0
    3.6739    3.7442    0.0000 H   0  0  0  0  0  0  0  0  0  0  0  0
    6.4798    5.3642    0.0000 H   0  0  0  0  0  0  0  0  0  0  0  0
    3.6548    6.0911    0.0000 H   0  0  0  0  0  0  0  0  0  0  0  0
    2.8078    5.8642    0.0000 H   0  0  0  0  0  0  0  0  0  0  0  0
    3.0348    5.0172    0.0000 H   0  0  0  0  0  0  0  0  0  0  0  0
    8.1796    1.6414    0.0000 H   0  0  0  0  0  0  0  0  0  0  0  0
    7.8554    0.9132    0.0000 H   0  0  0  0  0  0  0  0  0  0  0  0
   13.1528   -1.1317    0.0000 H   0  0  0  0  0  0  0  0  0  0  0  0
   12.8700   -0.6173    0.0000 H   0  0  0  0  0  0  0  0  0  0  0  0
   12.1419   -0.2931    0.0000 H   0  0  0  0  0  0  0  0  0  0  0  0
    9.5322    1.1147    0.0000 H   0  0  0  0  0  0  0  0  0  0  0  0
    9.8564    1.8428    0.0000 H   0  0  0  0  0  0  0  0  0  0  0  0
    9.6648   -2.5781    0.0000 H   0  0  0  0  0  0  0  0  0  0  0  0
    9.3715    0.2125    0.0000 H   0  0  0  0  0  0  0  0  0  0  0  0
   11.2760   -2.4087    0.0000 H   0  0  0  0  0  0  0  0  0  0  0  0
   10.9827    0.3818    0.0000 H   0  0  0  0  0  0  0  0  0  0  0  0
   10.3725    5.3081    0.0000 H   0  0  0  0  0  0  0  0  0  0  0  0
    9.6910    5.8599    0.0000 H   0  0  0  0  0  0  0  0  0  0  0  0
    9.1392    5.1785    0.0000 H   0  0  0  0  0  0  0  0  0  0  0  0
   10.9197    3.7367    0.0000 H   0  0  0  0  0  0  0  0  0  0  0  0
   11.4715    4.4181    0.0000 H   0  0  0  0  0  0  0  0  0  0  0  0
   10.7901    4.9699    0.0000 H   0  0  0  0  0  0  0  0  0  0  0  0
    8.8011    4.7608    0.0000 H   0  0  0  0  0  0  0  0  0  0  0  0
    8.2493    4.0794    0.0000 H   0  0  0  0  0  0  0  0  0  0  0  0
    8.9307    3.5276    0.0000 H   0  0  0  0  0  0  0  0  0  0  0  0
   16.6762    0.9994    0.0000 H   0  0  0  0  0  0  0  0  0  0  0  0
   16.3620    1.8180    0.0000 H   0  0  0  0  0  0  0  0  0  0  0  0
   15.5434    1.5038    0.0000 H   0  0  0  0  0  0  0  0  0  0  0  0
   16.3645   -0.6351    0.0000 H   0  0  0  0  0  0  0  0  0  0  0  0
   17.1830   -0.3209    0.0000 H   0  0  0  0  0  0  0  0  0  0  0  0
   16.8688    0.4977    0.0000 H   0  0  0  0  0  0  0  0  0  0  0  0
   15.0417    1.3112    0.0000 H   0  0  0  0  0  0  0  0  0  0  0  0
   14.2232    0.9970    0.0000 H   0  0  0  0  0  0  0  0  0  0  0  0
   14.5374    0.1784    0.0000 H   0  0  0  0  0  0  0  0  0  0  0  0
   16.0060   -1.5468    0.0000 H   0  0  0  0  0  0  0  0  0  0  0  0
   15.9907   -0.6701    0.0000 H   0  0  0  0  0  0  0  0  0  0  0  0
   15.1141   -0.6855    0.0000 H   0  0  0  0  0  0  0  0  0  0  0  0
    9.3862   -5.3647    0.0000 H   0  0  0  0  0  0  0  0  0  0  0  0
    9.1008   -6.1938    0.0000 H   0  0  0  0  0  0  0  0  0  0  0  0
    9.9299   -6.4792    0.0000 H   0  0  0  0  0  0  0  0  0  0  0  0
   10.6757   -4.3130    0.0000 H   0  0  0  0  0  0  0  0  0  0  0  0
    9.8466   -4.0275    0.0000 H   0  0  0  0  0  0  0  0  0  0  0  0
    9.5612   -4.8566    0.0000 H   0  0  0  0  0  0  0  0  0  0  0  0
   10.4379   -6.6541    0.0000 H   0  0  0  0  0  0  0  0  0  0  0  0
   11.2669   -6.9396    0.0000 H   0  0  0  0  0  0  0  0  0  0  0  0
   11.5524   -6.1105    0.0000 H   0  0  0  0  0  0  0  0  0  0  0  0
   12.9392   -6.2075    0.0000 H   0  0  0  0  0  0  0  0  0  0  0  0
   13.1065   -7.0682    0.0000 H   0  0  0  0  0  0  0  0  0  0  0  0
   13.9672   -6.9009    0.0000 H   0  0  0  0  0  0  0  0  0  0  0  0
   14.4947   -6.7983    0.0000 H   0  0  0  0  0  0  0  0  0  0  0  0
   15.3554   -6.6310    0.0000 H   0  0  0  0  0  0  0  0  0  0  0  0
   15.1881   -5.7703    0.0000 H   0  0  0  0  0  0  0  0  0  0  0  0
   15.0856   -5.2428    0.0000 H   0  0  0  0  0  0  0  0  0  0  0  0
   14.9183   -4.3821    0.0000 H   0  0  0  0  0  0  0  0  0  0  0  0
   14.0576   -4.5494    0.0000 H   0  0  0  0  0  0  0  0  0  0  0  0
  1 41  1  0  0  0  0
  1 50  1  0  0  0  0
  2  4  1  0  0  0  0
  2  6  1  0  0  0  0
  2  7  1  0  0  0  0
  2  8  2  0  0  0  0
  3 27  1  0  0  0  0
  3 29  1  0  0  0  0
  4 30  1  0  0  0  0
  5 32  2  0  0  0  0
  6 36  1  0  0  0  0
  7 37  1  0  0  0  0
  9 34  2  0  0  0  0
 10 48  1  0  0  0  0
 10 49  1  0  0  0  0
 11 52  1  0  0  0  0
 11 57  1  0  0  0  0
 12 53  1  0  0  0  0
 12 58  1  0  0  0  0
 13 46  2  0  0  0  0
 14 49  2  0  0  0  0
 15 50  2  0  0  0  0
 16 51  2  0  0  0  0
 17 57  2  0  0  0  0
 18 58  2  0  0  0  0
 29 19  1  6  0  0  0
 19 31  1  0  0  0  0
 19 32  1  0  0  0  0
 20 22  2  0  0  0  0
 26 20  1  1  0  0  0
 21 32  1  0  0  0  0
 21 34  1  0  0  0  0
 21 77  1  0  0  0  0
 22 23  2  0  0  0  0
 38 24  1  6  0  0  0
 24 49  1  0  0  0  0
 24 51  1  0  0  0  0
 25 46  1  0  0  0  0
 25 57  1  0  0  0  0
 25 58  1  0  0  0  0
 26 27  1  0  0  0  0
 26 28  1  0  0  0  0
 26 69  1  0  0  0  0
 27 30  1  6  0  0  0
 27 70  1  0  0  0  0
 28 29  1  0  0  0  0
 28 71  1  0  0  0  0
 28 72  1  0  0  0  0
 29 73  1  0  0  0  0
 30 74  1  0  0  0  0
 30 75  1  0  0  0  0
 31 33  2  0  0  0  0
 31 76  1  0  0  0  0
 33 34  1  0  0  0  0
 33 35  1  0  0  0  0
 35 78  1  0  0  0  0
 35 79  1  0  0  0  0
 35 80  1  0  0  0  0
 36 41  1  0  0  0  0
 36 81  1  0  0  0  0
 36 82  1  0  0  0  0
 37 42  2  0  0  0  0
 37 43  1  0  0  0  0
 38 39  1  0  0  0  0
 38 46  1  0  0  0  0
 38 83  1  0  0  0  0
 39 40  1  0  0  0  0
 39 84  1  0  0  0  0
 39 85  1  0  0  0  0
 40 44  2  0  0  0  0
 40 45  1  0  0  0  0
 41 86  1  0  0  0  0
 41 87  1  0  0  0  0
 42 44  1  0  0  0  0
 42 88  1  0  0  0  0
 43 45  2  0  0  0  0
 43 89  1  0  0  0  0
 44 90  1  0  0  0  0
 45 91  1  0  0  0  0
 47 50  1  0  0  0  0
 47 54  1  0  0  0  0
 47 55  1  0  0  0  0
 47 56  1  0  0  0  0
 48 59  1  0  0  0  0
 48 60  1  0  0  0  0
 48 61  1  0  0  0  0
 51 62  1  0  0  0  0
 52 63  1  0  0  0  0
 52 64  1  0  0  0  0
 52 65  1  0  0  0  0
 53 66  1  0  0  0  0
 53 67  1  0  0  0  0
 53 68  1  0  0  0  0
 54 92  1  0  0  0  0
 54 93  1  0  0  0  0
 54 94  1  0  0  0  0
 55 95  1  0  0  0  0
 55 96  1  0  0  0  0
 55 97  1  0  0  0  0
 56 98  1  0  0  0  0
 56 99  1  0  0  0  0
 56100  1  0  0  0  0
 59101  1  0  0  0  0
 59102  1  0  0  0  0
 59103  1  0  0  0  0
 60104  1  0  0  0  0
 60105  1  0  0  0  0
 60106  1  0  0  0  0
 61107  1  0  0  0  0
 61108  1  0  0  0  0
 61109  1  0  0  0  0
 62110  1  0  0  0  0
 62111  1  0  0  0  0
 62112  1  0  0  0  0
 63113  1  0  0  0  0
 63114  1  0  0  0  0
 63115  1  0  0  0  0
 64116  1  0  0  0  0
 64117  1  0  0  0  0
 64118  1  0  0  0  0
 65119  1  0  0  0  0
 65120  1  0  0  0  0
 65121  1  0  0  0  0
 66122  1  0  0  0  0
 66123  1  0  0  0  0
 66124  1  0  0  0  0
 67125  1  0  0  0  0
 67126  1  0  0  0  0
 67127  1  0  0  0  0
 68128  1  0  0  0  0
 68129  1  0  0  0  0
 68130  1  0  0  0  0
M  CHG  2  22   1  23  -1
M  END
> <PUBCHEM_COMPOUND_CID>
503958
> <PUBCHEM_COMPOUND_CANONICALIZED>
1
> <PUBCHEM_CACTVS_COMPLEXITY>
2020
> <PUBCHEM_CACTVS_HBOND_ACCEPTOR>
19
> <PUBCHEM_CACTVS_HBOND_DONOR>
1
> <PUBCHEM_CACTVS_ROTATABLE_BOND>
23
> <PUBCHEM_CACTVS_SUBSKEYS>
AAADcfB/vgJAAAAAAAAAAAAAAAAAASAAAAAwQAAAAAAAAAABAAAAHgQYACAADnzl2AazDoPABRiKQiFWWICCAAAgIBAIiAGOCMiLZjKg0TOfMAAuxzOqiMe4+KKOIAAAAAAAAABAAAAAAAAAAAAAAAAAAA==
> <PUBCHEM_IUPAC_OPENEYE_NAME>
S-[2-[[4-[(2S)-2-[acetyl(tert-butoxycarbonyl)amino]-3-[bis(tert-butoxycarbonyl)amino]-3-oxo-propyl]phenoxy]-[[(2S,3S,5R)-3-azido-5-(5-methyl-2,4-dioxo-pyrimidin-1-yl)tetrahydrofuran-2-yl]methoxy]phosphoryl]oxyethyl] 2,2-dimethylpropanethioate
> <PUBCHEM_IUPAC_CAS_NAME>
2,2-dimethylpropanethioic acid S-[2-[[4-[(2S)-2-[acetyl-[(2-methylpropan-2-yl)oxy-oxomethyl]amino]-3-[bis[(2-methylpropan-2-yl)oxy-oxomethyl]amino]-3-oxopropyl]phenoxy]-[[(2S,3S,5R)-3-azido-5-(5-methyl-2,4-dioxo-1-pyrimidinyl)-2-oxolanyl]methoxy]phosphoryl]oxyethyl] ester
> <PUBCHEM_IUPAC_NAME_MARKUP>
<I>S</I>-[2-[[4-[(2<I>S</I>)-2-[acetyl-[(2-methylpropan-2-yl)oxycarbonyl]amino]-3-[bis[(2-methylpropan-2-yl)oxycarbonyl]amino]-3-oxopropyl]phenoxy]-[[(2<I>S</I>,3<I>S</I>,5<I>R</I>)-3-azido-5-(5-methyl-2,4-dioxopyrimidin-1-yl)oxolan-2-yl]methoxy]phosphoryl]oxyethyl] 2,2-dimethylpropanethioate
> <PUBCHEM_IUPAC_NAME>
S-[2-[[4-[(2S)-2-[acetyl-[(2-methylpropan-2-yl)oxycarbonyl]amino]-3-[bis[(2-methylpropan-2-yl)oxycarbonyl]amino]-3-oxopropyl]phenoxy]-[[(2S,3S,5R)-3-azido-5-(5-methyl-2,4-dioxopyrimidin-1-yl)oxolan-2-yl]methoxy]phosphoryl]oxyethyl] 2,2-dimethylpropanethioate
> <PUBCHEM_IUPAC_SYSTEMATIC_NAME>
S-[2-[[(2S,3S,5R)-3-azido-5-[5-methyl-2,4-bis(oxidanylidene)pyrimidin-1-yl]oxolan-2-yl]methoxy-[4-[(2S)-3-[bis[(2-methylpropan-2-yl)oxycarbonyl]amino]-2-[ethanoyl-[(2-methylpropan-2-yl)oxycarbonyl]amino]-3-oxidanylidene-propyl]phenoxy]phosphoryl]oxyethyl] 2,2-dimethylpropanethioate
> <PUBCHEM_IUPAC_TRADITIONAL_NAME>
2,2-dimethylpropanethioic acid S-[2-[[4-[(2S)-2-[acetyl(tert-butoxycarbonyl)amino]-3-[bis(tert-butoxycarbonyl)amino]-3-keto-propyl]phenoxy]-[[(2S,3S,5R)-3-azido-5-(2,4-diketo-5-methyl-pyrimidin-1-yl)tetrahydrofuran-2-yl]methoxy]phosphoryl]oxyethyl] ester
> <PUBCHEM_IUPAC_INCHI>
InChI=1S/C43H62N7O16PS/c1-25-23-48(36(55)45-33(25)52)32-22-29(46-47-44)31(62-32)24-61-67(59,60-19-20-68-35(54)40(3,4)5)66-28-17-15-27(16-18-28)21-30(49(26(2)51)37(56)63-41(6,7)8)34(53)50(38(57)64-42(9,10)11)39(58)65-43(12,13)14/h15-18,23,29-32H,19-22,24H2,1-14H3,(H,45,52,55)/t29-,30-,31+,32+,67?/m0/s1
> <PUBCHEM_IUPAC_INCHIKEY>
LINBQXQAQWEBLL-DPDVNABXSA-N
> <PUBCHEM_XLOGP3_AA>
6.5
> <PUBCHEM_EXACT_MASS>
995.37113709
> <PUBCHEM_MOLECULAR_FORMULA>
C43H62N7O16PS
> <PUBCHEM_MOLECULAR_WEIGHT>
996.0
> <PUBCHEM_OPENEYE_CAN_SMILES>
CC1=CN(C(=O)NC1=O)C2CC(C(O2)COP(=O)(OCCSC(=O)C(C)(C)C)OC3=CC=C(C=C3)CC(C(=O)N(C(=O)OC(C)(C)C)C(=O)OC(C)(C)C)N(C(=O)C)C(=O)OC(C)(C)C)N=[N+]=[N-]
> <PUBCHEM_OPENEYE_ISO_SMILES>
CC1=CN(C(=O)NC1=O)[C@H]2C[C@@H]([C@H](O2)COP(=O)(OCCSC(=O)C(C)(C)C)OC3=CC=C(C=C3)C[C@@H](C(=O)N(C(=O)OC(C)(C)C)C(=O)OC(C)(C)C)N(C(=O)C)C(=O)OC(C)(C)C)N=[N+]=[N-]
> <PUBCHEM_CACTVS_TPSA>
280
> <PUBCHEM_MONOISOTOPIC_WEIGHT>
995.37113709
> <PUBCHEM_TOTAL_CHARGE>
0
> <PUBCHEM_HEAVY_ATOM_COUNT>
68
> <PUBCHEM_ATOM_DEF_STEREO_COUNT>
4
> <PUBCHEM_ATOM_UDEF_STEREO_COUNT>
1
> <PUBCHEM_BOND_DEF_STEREO_COUNT>
0
> <PUBCHEM_BOND_UDEF_STEREO_COUNT>
0
> <PUBCHEM_ISOTOPIC_ATOM_COUNT>
0
> <PUBCHEM_COMPONENT_COUNT>
1
> <PUBCHEM_CACTVS_TAUTO_COUNT>
-1
> <PUBCHEM_COORDINATE_TYPE>
1
5
255
> <PUBCHEM_BONDANNOTATIONS>
29  19  6
19  31  8
19  32  8
2  6  3
26  20  5
21  32  8
21  34  8
38  24  6
27  30  6
31  33  8
33  34  8
37  42  8
37  43  8
40  44  8
40  45  8
42  44  8
43  45  8
$$$$
