503955
  -OEChem-10302200282D
 95 97  0     1  0  0  0  0  0999 V2000
    9.1559    1.3829    0.0000 S   0  0  0  0  0  0  0  0  0  0  0  0
    7.7469   -1.7817    0.0000 P   0  0  3  0  0  0  0  0  0  0  0  0
    5.8858    0.6828    0.0000 O   0  0  0  0  0  0  0  0  0  0  0  0
    7.1591   -0.9727    0.0000 O   0  0  0  0  0  0  0  0  0  0  0  0
    6.8089    2.2706    0.0000 O   0  0  0  0  0  0  0  0  0  0  0  0
    8.5559   -1.1940    0.0000 O   0  0  0  0  0  0  0  0  0  0  0  0
    8.3347   -2.5908    0.0000 O   0  0  0  0  0  0  0  0  0  0  0  0
    6.9379   -2.3695    0.0000 O   0  0  0  0  0  0  0  0  0  0  0  0
    5.0768    5.2706    0.0000 O   0  0  0  0  0  0  0  0  0  0  0  0
   15.4774   -3.5816    0.0000 O   0  0  0  0  0  0  0  0  0  0  0  0
   13.0816   -4.7042    0.0000 O   0  0  0  0  0  0  0  0  0  0  0  0
   10.8785    1.5639    0.0000 O   0  0  0  0  0  0  0  0  0  0  0  0
   14.0761   -4.5997    0.0000 O   0  0  0  0  0  0  0  0  0  0  0  0
    5.0768    2.2706    0.0000 N   0  0  0  0  0  0  0  0  0  0  0  0
    3.9890   -1.0772    0.0000 N   0  0  0  0  0  0  0  0  0  0  0  0
    5.9428    3.7706    0.0000 N   0  0  0  0  0  0  0  0  0  0  0  0
    2.9945   -0.9727    0.0000 N   0  3  0  0  0  0  0  0  0  0  0  0
    2.0000   -0.8682    0.0000 N   0  5  0  0  0  0  0  0  0  0  0  0
   13.8951   -2.8771    0.0000 N   0  0  0  0  0  0  0  0  0  0  0  0
    4.5768   -0.2682    0.0000 C   0  0  2  0  0  0  0  0  0  0  0  0
    5.5768   -0.2682    0.0000 C   0  0  1  0  0  0  0  0  0  0  0  0
    4.2678    0.6828    0.0000 C   0  0  0  0  0  0  0  0  0  0  0  0
    5.0768    1.2706    0.0000 C   0  0  1  0  0  0  0  0  0  0  0  0
    6.1646   -1.0772    0.0000 C   0  0  0  0  0  0  0  0  0  0  0  0
    4.2108    2.7706    0.0000 C   0  0  0  0  0  0  0  0  0  0  0  0
    5.9428    2.7706    0.0000 C   0  0  0  0  0  0  0  0  0  0  0  0
    4.2108    3.7706    0.0000 C   0  0  0  0  0  0  0  0  0  0  0  0
    5.0768    4.2706    0.0000 C   0  0  0  0  0  0  0  0  0  0  0  0
    3.3448    4.2706    0.0000 C   0  0  0  0  0  0  0  0  0  0  0  0
    8.4514   -0.1994    0.0000 C   0  0  0  0  0  0  0  0  0  0  0  0
    9.3292   -2.4862    0.0000 C   0  0  0  0  0  0  0  0  0  0  0  0
   12.9006   -2.9816    0.0000 C   0  0  1  0  0  0  0  0  0  0  0  0
   12.3128   -2.1726    0.0000 C   0  0  0  0  0  0  0  0  0  0  0  0
   11.3183   -2.2772    0.0000 C   0  0  0  0  0  0  0  0  0  0  0  0
    9.2604    0.3884    0.0000 C   0  0  0  0  0  0  0  0  0  0  0  0
    9.8604    2.9652    0.0000 C   0  0  0  0  0  0  0  0  0  0  0  0
    9.9170   -3.2952    0.0000 C   0  0  0  0  0  0  0  0  0  0  0  0
    9.7360   -1.5727    0.0000 C   0  0  0  0  0  0  0  0  0  0  0  0
   10.9115   -3.1907    0.0000 C   0  0  0  0  0  0  0  0  0  0  0  0
   10.7305   -1.4682    0.0000 C   0  0  0  0  0  0  0  0  0  0  0  0
   12.4938   -3.8952    0.0000 C   0  0  0  0  0  0  0  0  0  0  0  0
   16.0652   -4.3906    0.0000 C   0  0  0  0  0  0  0  0  0  0  0  0
    9.9649    1.9707    0.0000 C   0  0  0  0  0  0  0  0  0  0  0  0
    9.7559    3.9597    0.0000 C   0  0  0  0  0  0  0  0  0  0  0  0
   10.8549    3.0697    0.0000 C   0  0  0  0  0  0  0  0  0  0  0  0
    8.8659    2.8607    0.0000 C   0  0  0  0  0  0  0  0  0  0  0  0
   14.4829   -3.6861    0.0000 C   0  0  0  0  0  0  0  0  0  0  0  0
   16.6530   -5.1996    0.0000 C   0  0  0  0  0  0  0  0  0  0  0  0
   16.8742   -3.8028    0.0000 C   0  0  0  0  0  0  0  0  0  0  0  0
   15.2562   -4.9784    0.0000 C   0  0  0  0  0  0  0  0  0  0  0  0
    3.9645   -0.1712    0.0000 H   0  0  0  0  0  0  0  0  0  0  0  0
    6.1892   -0.1712    0.0000 H   0  0  0  0  0  0  0  0  0  0  0  0
    3.9578    1.2198    0.0000 H   0  0  0  0  0  0  0  0  0  0  0  0
    3.7014    0.4307    0.0000 H   0  0  0  0  0  0  0  0  0  0  0  0
    4.5244    1.5521    0.0000 H   0  0  0  0  0  0  0  0  0  0  0  0
    5.6074   -1.3490    0.0000 H   0  0  0  0  0  0  0  0  0  0  0  0
    6.3355   -1.6732    0.0000 H   0  0  0  0  0  0  0  0  0  0  0  0
    3.6739    2.4606    0.0000 H   0  0  0  0  0  0  0  0  0  0  0  0
    6.4798    4.0806    0.0000 H   0  0  0  0  0  0  0  0  0  0  0  0
    3.6548    4.8076    0.0000 H   0  0  0  0  0  0  0  0  0  0  0  0
    2.8078    4.5806    0.0000 H   0  0  0  0  0  0  0  0  0  0  0  0
    3.0348    3.7337    0.0000 H   0  0  0  0  0  0  0  0  0  0  0  0
    8.1796    0.3578    0.0000 H   0  0  0  0  0  0  0  0  0  0  0  0
    7.8554   -0.3703    0.0000 H   0  0  0  0  0  0  0  0  0  0  0  0
   13.2650   -3.4832    0.0000 H   0  0  0  0  0  0  0  0  0  0  0  0
   12.8700   -1.9008    0.0000 H   0  0  0  0  0  0  0  0  0  0  0  0
   12.1419   -1.5767    0.0000 H   0  0  0  0  0  0  0  0  0  0  0  0
    9.5322   -0.1689    0.0000 H   0  0  0  0  0  0  0  0  0  0  0  0
    9.8564    0.5593    0.0000 H   0  0  0  0  0  0  0  0  0  0  0  0
    9.6648   -3.8616    0.0000 H   0  0  0  0  0  0  0  0  0  0  0  0
    9.3715   -1.0711    0.0000 H   0  0  0  0  0  0  0  0  0  0  0  0
   11.2760   -3.6923    0.0000 H   0  0  0  0  0  0  0  0  0  0  0  0
   10.9827   -0.9018    0.0000 H   0  0  0  0  0  0  0  0  0  0  0  0
   11.9798   -3.5485    0.0000 H   0  0  0  0  0  0  0  0  0  0  0  0
   12.0632   -4.3412    0.0000 H   0  0  0  0  0  0  0  0  0  0  0  0
   14.1473   -2.3107    0.0000 H   0  0  0  0  0  0  0  0  0  0  0  0
   10.3725    4.0245    0.0000 H   0  0  0  0  0  0  0  0  0  0  0  0
    9.6910    4.5763    0.0000 H   0  0  0  0  0  0  0  0  0  0  0  0
    9.1392    3.8949    0.0000 H   0  0  0  0  0  0  0  0  0  0  0  0
   10.9197    2.4531    0.0000 H   0  0  0  0  0  0  0  0  0  0  0  0
   11.4715    3.1345    0.0000 H   0  0  0  0  0  0  0  0  0  0  0  0
   10.7901    3.6863    0.0000 H   0  0  0  0  0  0  0  0  0  0  0  0
    8.8011    3.4773    0.0000 H   0  0  0  0  0  0  0  0  0  0  0  0
    8.2493    2.7958    0.0000 H   0  0  0  0  0  0  0  0  0  0  0  0
    8.9307    2.2441    0.0000 H   0  0  0  0  0  0  0  0  0  0  0  0
   16.1514   -5.5641    0.0000 H   0  0  0  0  0  0  0  0  0  0  0  0
   17.0174   -5.7012    0.0000 H   0  0  0  0  0  0  0  0  0  0  0  0
   17.1546   -4.8352    0.0000 H   0  0  0  0  0  0  0  0  0  0  0  0
   17.2386   -4.3044    0.0000 H   0  0  0  0  0  0  0  0  0  0  0  0
   17.3758   -3.4384    0.0000 H   0  0  0  0  0  0  0  0  0  0  0  0
   16.5098   -3.3012    0.0000 H   0  0  0  0  0  0  0  0  0  0  0  0
   14.8918   -4.4768    0.0000 H   0  0  0  0  0  0  0  0  0  0  0  0
   14.7546   -5.3428    0.0000 H   0  0  0  0  0  0  0  0  0  0  0  0
   15.6206   -5.4800    0.0000 H   0  0  0  0  0  0  0  0  0  0  0  0
   12.8295   -5.2706    0.0000 H   0  0  0  0  0  0  0  0  0  0  0  0
  1 35  1  0  0  0  0
  1 43  1  0  0  0  0
  2  4  1  0  0  0  0
  2  6  1  0  0  0  0
  2  7  1  0  0  0  0
  2  8  2  0  0  0  0
  3 21  1  0  0  0  0
  3 23  1  0  0  0  0
  4 24  1  0  0  0  0
  5 26  2  0  0  0  0
  6 30  1  0  0  0  0
  7 31  1  0  0  0  0
  9 28  2  0  0  0  0
 10 42  1  0  0  0  0
 10 47  1  0  0  0  0
 11 41  1  0  0  0  0
 11 95  1  0  0  0  0
 12 43  2  0  0  0  0
 13 47  2  0  0  0  0
 23 14  1  6  0  0  0
 14 25  1  0  0  0  0
 14 26  1  0  0  0  0
 15 17  2  0  0  0  0
 20 15  1  1  0  0  0
 16 26  1  0  0  0  0
 16 28  1  0  0  0  0
 16 59  1  0  0  0  0
 17 18  2  0  0  0  0
 32 19  1  6  0  0  0
 19 47  1  0  0  0  0
 19 76  1  0  0  0  0
 20 21  1  0  0  0  0
 20 22  1  0  0  0  0
 20 51  1  0  0  0  0
 21 24  1  6  0  0  0
 21 52  1  0  0  0  0
 22 23  1  0  0  0  0
 22 53  1  0  0  0  0
 22 54  1  0  0  0  0
 23 55  1  0  0  0  0
 24 56  1  0  0  0  0
 24 57  1  0  0  0  0
 25 27  2  0  0  0  0
 25 58  1  0  0  0  0
 27 28  1  0  0  0  0
 27 29  1  0  0  0  0
 29 60  1  0  0  0  0
 29 61  1  0  0  0  0
 29 62  1  0  0  0  0
 30 35  1  0  0  0  0
 30 63  1  0  0  0  0
 30 64  1  0  0  0  0
 31 37  2  0  0  0  0
 31 38  1  0  0  0  0
 32 33  1  0  0  0  0
 32 41  1  0  0  0  0
 32 65  1  0  0  0  0
 33 34  1  0  0  0  0
 33 66  1  0  0  0  0
 33 67  1  0  0  0  0
 34 39  2  0  0  0  0
 34 40  1  0  0  0  0
 35 68  1  0  0  0  0
 35 69  1  0  0  0  0
 36 43  1  0  0  0  0
 36 44  1  0  0  0  0
 36 45  1  0  0  0  0
 36 46  1  0  0  0  0
 37 39  1  0  0  0  0
 37 70  1  0  0  0  0
 38 40  2  0  0  0  0
 38 71  1  0  0  0  0
 39 72  1  0  0  0  0
 40 73  1  0  0  0  0
 41 74  1  0  0  0  0
 41 75  1  0  0  0  0
 42 48  1  0  0  0  0
 42 49  1  0  0  0  0
 42 50  1  0  0  0  0
 44 77  1  0  0  0  0
 44 78  1  0  0  0  0
 44 79  1  0  0  0  0
 45 80  1  0  0  0  0
 45 81  1  0  0  0  0
 45 82  1  0  0  0  0
 46 83  1  0  0  0  0
 46 84  1  0  0  0  0
 46 85  1  0  0  0  0
 48 86  1  0  0  0  0
 48 87  1  0  0  0  0
 48 88  1  0  0  0  0
 49 89  1  0  0  0  0
 49 90  1  0  0  0  0
 49 91  1  0  0  0  0
 50 92  1  0  0  0  0
 50 93  1  0  0  0  0
 50 94  1  0  0  0  0
M  CHG  2  17   1  18  -1
M  END
> <PUBCHEM_COMPOUND_CID>
503955
> <PUBCHEM_COMPOUND_CANONICALIZED>
1
> <PUBCHEM_CACTVS_COMPLEXITY>
1360
> <PUBCHEM_CACTVS_HBOND_ACCEPTOR>
14
> <PUBCHEM_CACTVS_HBOND_DONOR>
3
> <PUBCHEM_CACTVS_ROTATABLE_BOND>
19
> <PUBCHEM_CACTVS_SUBSKEYS>
AAADcfB7vAJAAAAAAAAAAAAAAAAAASAAAAAwQAAAAAAAAAABAAAAHgQYCCAADnzl2AazDoPABxiKQiFWWICCAAAgIBAIiIEOCMmLNiKg0ROPcAAu1zM6iMew8KIOIAAAAAAAAABAAAAAAAAAAAAAAAAAAA==
> <PUBCHEM_IUPAC_OPENEYE_NAME>
S-[2-[[(2S,3S,5R)-3-azido-5-(5-methyl-2,4-dioxo-pyrimidin-1-yl)tetrahydrofuran-2-yl]methoxy-[4-[(2S)-2-(tert-butoxycarbonylamino)-3-hydroxy-propyl]phenoxy]phosphoryl]oxyethyl] 2,2-dimethylpropanethioate
> <PUBCHEM_IUPAC_CAS_NAME>
2,2-dimethylpropanethioic acid S-[2-[[(2S,3S,5R)-3-azido-5-(5-methyl-2,4-dioxo-1-pyrimidinyl)-2-oxolanyl]methoxy-[4-[(2S)-3-hydroxy-2-[[(2-methylpropan-2-yl)oxy-oxomethyl]amino]propyl]phenoxy]phosphoryl]oxyethyl] ester
> <PUBCHEM_IUPAC_NAME_MARKUP>
<I>S</I>-[2-[[(2<I>S</I>,3<I>S</I>,5<I>R</I>)-3-azido-5-(5-methyl-2,4-dioxopyrimidin-1-yl)oxolan-2-yl]methoxy-[4-[(2<I>S</I>)-3-hydroxy-2-[(2-methylpropan-2-yl)oxycarbonylamino]propyl]phenoxy]phosphoryl]oxyethyl] 2,2-dimethylpropanethioate
> <PUBCHEM_IUPAC_NAME>
S-[2-[[(2S,3S,5R)-3-azido-5-(5-methyl-2,4-dioxopyrimidin-1-yl)oxolan-2-yl]methoxy-[4-[(2S)-3-hydroxy-2-[(2-methylpropan-2-yl)oxycarbonylamino]propyl]phenoxy]phosphoryl]oxyethyl] 2,2-dimethylpropanethioate
> <PUBCHEM_IUPAC_SYSTEMATIC_NAME>
S-[2-[[(2S,3S,5R)-3-azido-5-[5-methyl-2,4-bis(oxidanylidene)pyrimidin-1-yl]oxolan-2-yl]methoxy-[4-[(2S)-2-[(2-methylpropan-2-yl)oxycarbonylamino]-3-oxidanyl-propyl]phenoxy]phosphoryl]oxyethyl] 2,2-dimethylpropanethioate
> <PUBCHEM_IUPAC_TRADITIONAL_NAME>
2,2-dimethylpropanethioic acid S-[2-[[(2S,3S,5R)-3-azido-5-(2,4-diketo-5-methyl-pyrimidin-1-yl)tetrahydrofuran-2-yl]methoxy-[4-[(2S)-2-(tert-butoxycarbonylamino)-3-hydroxy-propyl]phenoxy]phosphoryl]oxyethyl] ester
> <PUBCHEM_IUPAC_INCHI>
InChI=1S/C31H45N6O11PS/c1-19-16-37(28(41)34-26(19)39)25-15-23(35-36-32)24(46-25)18-45-49(43,44-12-13-50-27(40)30(2,3)4)48-22-10-8-20(9-11-22)14-21(17-38)33-29(42)47-31(5,6)7/h8-11,16,21,23-25,38H,12-15,17-18H2,1-7H3,(H,33,42)(H,34,39,41)/t21-,23-,24+,25+,49?/m0/s1
> <PUBCHEM_IUPAC_INCHIKEY>
XFXLWIBJTQPZTH-AGYUDNNESA-N
> <PUBCHEM_XLOGP3_AA>
4
> <PUBCHEM_EXACT_MASS>
740.26046444
> <PUBCHEM_MOLECULAR_FORMULA>
C31H45N6O11PS
> <PUBCHEM_MOLECULAR_WEIGHT>
740.8
> <PUBCHEM_OPENEYE_CAN_SMILES>
CC1=CN(C(=O)NC1=O)C2CC(C(O2)COP(=O)(OCCSC(=O)C(C)(C)C)OC3=CC=C(C=C3)CC(CO)NC(=O)OC(C)(C)C)N=[N+]=[N-]
> <PUBCHEM_OPENEYE_ISO_SMILES>
CC1=CN(C(=O)NC1=O)[C@H]2C[C@@H]([C@H](O2)COP(=O)(OCCSC(=O)C(C)(C)C)OC3=CC=C(C=C3)C[C@@H](CO)NC(=O)OC(C)(C)C)N=[N+]=[N-]
> <PUBCHEM_CACTVS_TPSA>
219
> <PUBCHEM_MONOISOTOPIC_WEIGHT>
740.26046444
> <PUBCHEM_TOTAL_CHARGE>
0
> <PUBCHEM_HEAVY_ATOM_COUNT>
50
> <PUBCHEM_ATOM_DEF_STEREO_COUNT>
4
> <PUBCHEM_ATOM_UDEF_STEREO_COUNT>
1
> <PUBCHEM_BOND_DEF_STEREO_COUNT>
0
> <PUBCHEM_BOND_UDEF_STEREO_COUNT>
0
> <PUBCHEM_ISOTOPIC_ATOM_COUNT>
0
> <PUBCHEM_COMPONENT_COUNT>
1
> <PUBCHEM_CACTVS_TAUTO_COUNT>
-1
> <PUBCHEM_COORDINATE_TYPE>
1
5
255
> <PUBCHEM_BONDANNOTATIONS>
23  14  6
14  25  8
14  26  8
20  15  5
16  26  8
16  28  8
32  19  6
2  6  3
21  24  6
25  27  8
27  28  8
31  37  8
31  38  8
34  39  8
34  40  8
37  39  8
38  40  8
$$$$
