504020
  -OEChem-10302200282D
 26 27  0     1  0  0  0  0  0999 V2000
    2.8660   -3.5588    0.0000 F   0  0  0  0  0  0  0  0  0  0  0  0
    4.6456    0.5345    0.0000 O   0  0  0  0  0  0  0  0  0  0  0  0
    3.0934    2.6049    0.0000 O   0  0  0  0  0  0  0  0  0  0  0  0
    3.7320    0.9412    0.0000 N   0  0  0  0  0  0  0  0  0  0  0  0
    5.2215    3.0572    0.0000 N   0  0  0  0  0  0  0  0  0  0  0  0
    4.8147    2.1436    0.0000 C   0  0  3  0  0  0  0  0  0  0  0  0
    5.3147    1.2776    0.0000 C   0  0  0  0  0  0  0  0  0  0  0  0
    3.8366    1.9357    0.0000 C   0  0  0  0  0  0  0  0  0  0  0  0
    2.8660    0.4412    0.0000 C   0  0  0  0  0  0  0  0  0  0  0  0
    2.8660   -0.5588    0.0000 C   0  0  0  0  0  0  0  0  0  0  0  0
    2.0000   -1.0588    0.0000 C   0  0  0  0  0  0  0  0  0  0  0  0
    3.7320   -1.0588    0.0000 C   0  0  0  0  0  0  0  0  0  0  0  0
    2.0000   -2.0588    0.0000 C   0  0  0  0  0  0  0  0  0  0  0  0
    3.7320   -2.0588    0.0000 C   0  0  0  0  0  0  0  0  0  0  0  0
    2.8660   -2.5588    0.0000 C   0  0  0  0  0  0  0  0  0  0  0  0
    4.4246    2.6255    0.0000 H   0  0  0  0  0  0  0  0  0  0  0  0
    5.7296    0.8169    0.0000 H   0  0  0  0  0  0  0  0  0  0  0  0
    5.8163    1.6420    0.0000 H   0  0  0  0  0  0  0  0  0  0  0  0
    2.6540    1.0238    0.0000 H   0  0  0  0  0  0  0  0  0  0  0  0
    2.2554    0.3336    0.0000 H   0  0  0  0  0  0  0  0  0  0  0  0
    5.8381    3.1220    0.0000 H   0  0  0  0  0  0  0  0  0  0  0  0
    4.8570    3.5588    0.0000 H   0  0  0  0  0  0  0  0  0  0  0  0
    1.4631   -0.7488    0.0000 H   0  0  0  0  0  0  0  0  0  0  0  0
    4.2690   -0.7488    0.0000 H   0  0  0  0  0  0  0  0  0  0  0  0
    1.4631   -2.3688    0.0000 H   0  0  0  0  0  0  0  0  0  0  0  0
    4.2690   -2.3688    0.0000 H   0  0  0  0  0  0  0  0  0  0  0  0
  1 15  1  0  0  0  0
  2  4  1  0  0  0  0
  2  7  1  0  0  0  0
  3  8  2  0  0  0  0
  4  8  1  0  0  0  0
  4  9  1  0  0  0  0
  5  6  1  0  0  0  0
  5 21  1  0  0  0  0
  5 22  1  0  0  0  0
  6  7  1  0  0  0  0
  6  8  1  0  0  0  0
  6 16  1  0  0  0  0
  7 17  1  0  0  0  0
  7 18  1  0  0  0  0
  9 10  1  0  0  0  0
  9 19  1  0  0  0  0
  9 20  1  0  0  0  0
 10 11  2  0  0  0  0
 10 12  1  0  0  0  0
 11 13  1  0  0  0  0
 11 23  1  0  0  0  0
 12 14  2  0  0  0  0
 12 24  1  0  0  0  0
 13 15  2  0  0  0  0
 13 25  1  0  0  0  0
 14 15  1  0  0  0  0
 14 26  1  0  0  0  0
M  END
> <PUBCHEM_COMPOUND_CID>
504020
> <PUBCHEM_COMPOUND_CANONICALIZED>
1
> <PUBCHEM_CACTVS_COMPLEXITY>
242
> <PUBCHEM_CACTVS_HBOND_ACCEPTOR>
4
> <PUBCHEM_CACTVS_HBOND_DONOR>
1
> <PUBCHEM_CACTVS_ROTATABLE_BOND>
2
> <PUBCHEM_CACTVS_SUBSKEYS>
AAADccBzMQAAAAAAAAAAAAAAAAAAAWAAAAAwAAAAAAAAAAABAAAAHwAUAAAADCjhmA4wAIJQAACIAiFSEACCAAAgAAAoiIGIBIgKYCaAkRGUIAhitgCIiAcQgAAOAAAAAAAAAAAAAAAAAAAAAAAAAAAAAA==
> <PUBCHEM_IUPAC_OPENEYE_NAME>
4-amino-2-[(4-fluorophenyl)methyl]isoxazolidin-3-one
> <PUBCHEM_IUPAC_CAS_NAME>
4-amino-2-[(4-fluorophenyl)methyl]-3-isoxazolidinone
> <PUBCHEM_IUPAC_NAME_MARKUP>
4-amino-2-[(4-fluorophenyl)methyl]-1,2-oxazolidin-3-one
> <PUBCHEM_IUPAC_NAME>
4-amino-2-[(4-fluorophenyl)methyl]-1,2-oxazolidin-3-one
> <PUBCHEM_IUPAC_SYSTEMATIC_NAME>
4-azanyl-2-[(4-fluorophenyl)methyl]-1,2-oxazolidin-3-one
> <PUBCHEM_IUPAC_TRADITIONAL_NAME>
4-amino-2-(4-fluorobenzyl)isoxazolidin-3-one
> <PUBCHEM_IUPAC_INCHI>
InChI=1S/C10H11FN2O2/c11-8-3-1-7(2-4-8)5-13-10(14)9(12)6-15-13/h1-4,9H,5-6,12H2
> <PUBCHEM_IUPAC_INCHIKEY>
PGXHBINJZDOSIH-UHFFFAOYSA-N
> <PUBCHEM_XLOGP3_AA>
0.3
> <PUBCHEM_EXACT_MASS>
210.08045576
> <PUBCHEM_MOLECULAR_FORMULA>
C10H11FN2O2
> <PUBCHEM_MOLECULAR_WEIGHT>
210.20
> <PUBCHEM_OPENEYE_CAN_SMILES>
C1C(C(=O)N(O1)CC2=CC=C(C=C2)F)N
> <PUBCHEM_OPENEYE_ISO_SMILES>
C1C(C(=O)N(O1)CC2=CC=C(C=C2)F)N
> <PUBCHEM_CACTVS_TPSA>
55.6
> <PUBCHEM_MONOISOTOPIC_WEIGHT>
210.08045576
> <PUBCHEM_TOTAL_CHARGE>
0
> <PUBCHEM_HEAVY_ATOM_COUNT>
15
> <PUBCHEM_ATOM_DEF_STEREO_COUNT>
0
> <PUBCHEM_ATOM_UDEF_STEREO_COUNT>
1
> <PUBCHEM_BOND_DEF_STEREO_COUNT>
0
> <PUBCHEM_BOND_UDEF_STEREO_COUNT>
0
> <PUBCHEM_ISOTOPIC_ATOM_COUNT>
0
> <PUBCHEM_COMPONENT_COUNT>
1
> <PUBCHEM_CACTVS_TAUTO_COUNT>
-1
> <PUBCHEM_COORDINATE_TYPE>
1
5
255
> <PUBCHEM_BONDANNOTATIONS>
10  11  8
10  12  8
11  13  8
12  14  8
13  15  8
14  15  8
6  5  3
$$$$
