504006
  -OEChem-10302200282D
 19 19  0     1  0  0  0  0  0999 V2000
    4.6261   -2.7071    0.0000 F   0  0  0  0  0  0  0  0  0  0  0  0
    4.5691    0.3807    0.0000 O   0  0  0  0  0  0  0  0  0  0  0  0
    2.0000    0.0716    0.0000 O   0  0  0  0  0  0  0  0  0  0  0  0
    3.7601   -0.2071    0.0000 N   0  0  0  0  0  0  0  0  0  0  0  0
    2.6723    2.1407    0.0000 N   0  0  0  0  0  0  0  0  0  0  0  0
    3.2601    1.3317    0.0000 C   0  0  3  0  0  0  0  0  0  0  0  0
    4.2601    1.3317    0.0000 C   0  0  0  0  0  0  0  0  0  0  0  0
    2.9511    0.3807    0.0000 C   0  0  0  0  0  0  0  0  0  0  0  0
    3.7601   -1.2071    0.0000 C   0  0  0  0  0  0  0  0  0  0  0  0
    4.6261   -1.7071    0.0000 C   0  0  0  0  0  0  0  0  0  0  0  0
    2.6477    1.2347    0.0000 H   0  0  0  0  0  0  0  0  0  0  0  0
    4.8665    1.4606    0.0000 H   0  0  0  0  0  0  0  0  0  0  0  0
    4.1953    1.9483    0.0000 H   0  0  0  0  0  0  0  0  0  0  0  0
    3.1495   -1.0995    0.0000 H   0  0  0  0  0  0  0  0  0  0  0  0
    3.5480   -1.7897    0.0000 H   0  0  0  0  0  0  0  0  0  0  0  0
    2.9245    2.7071    0.0000 H   0  0  0  0  0  0  0  0  0  0  0  0
    2.0557    2.0759    0.0000 H   0  0  0  0  0  0  0  0  0  0  0  0
    5.2367   -1.8148    0.0000 H   0  0  0  0  0  0  0  0  0  0  0  0
    4.8382   -1.1245    0.0000 H   0  0  0  0  0  0  0  0  0  0  0  0
  1 10  1  0  0  0  0
  2  4  1  0  0  0  0
  2  7  1  0  0  0  0
  3  8  2  0  0  0  0
  4  8  1  0  0  0  0
  4  9  1  0  0  0  0
  5  6  1  0  0  0  0
  5 16  1  0  0  0  0
  5 17  1  0  0  0  0
  6  7  1  0  0  0  0
  6  8  1  0  0  0  0
  6 11  1  0  0  0  0
  7 12  1  0  0  0  0
  7 13  1  0  0  0  0
  9 10  1  0  0  0  0
  9 14  1  0  0  0  0
  9 15  1  0  0  0  0
 10 18  1  0  0  0  0
 10 19  1  0  0  0  0
M  END
> <PUBCHEM_COMPOUND_CID>
504006
> <PUBCHEM_COMPOUND_CANONICALIZED>
1
> <PUBCHEM_CACTVS_COMPLEXITY>
142
> <PUBCHEM_CACTVS_HBOND_ACCEPTOR>
4
> <PUBCHEM_CACTVS_HBOND_DONOR>
1
> <PUBCHEM_CACTVS_ROTATABLE_BOND>
2
> <PUBCHEM_CACTVS_SUBSKEYS>
AAADccBjMQAAAAAAAAAAAAAAAAAAAWAAAAAAAAAAAAAAAAAAAAAAHwAUAAAACCjhgAYAAAJQAAAIAAEQEAAAAAAAAAAgAIGIAAACQAQAAAAUAAACNgCAAAAAAAAAAAAAAAAAAAAAAAAAAAAAAAAAAAAAAA==
> <PUBCHEM_IUPAC_OPENEYE_NAME>
4-amino-2-(2-fluoroethyl)isoxazolidin-3-one
> <PUBCHEM_IUPAC_CAS_NAME>
4-amino-2-(2-fluoroethyl)-3-isoxazolidinone
> <PUBCHEM_IUPAC_NAME_MARKUP>
4-amino-2-(2-fluoroethyl)-1,2-oxazolidin-3-one
> <PUBCHEM_IUPAC_NAME>
4-amino-2-(2-fluoroethyl)-1,2-oxazolidin-3-one
> <PUBCHEM_IUPAC_SYSTEMATIC_NAME>
4-azanyl-2-(2-fluoranylethyl)-1,2-oxazolidin-3-one
> <PUBCHEM_IUPAC_TRADITIONAL_NAME>
4-amino-2-(2-fluoroethyl)isoxazolidin-3-one
> <PUBCHEM_IUPAC_INCHI>
InChI=1S/C5H9FN2O2/c6-1-2-8-5(9)4(7)3-10-8/h4H,1-3,7H2
> <PUBCHEM_IUPAC_INCHIKEY>
HTXIFJVGTAMDQK-UHFFFAOYSA-N
> <PUBCHEM_XLOGP3_AA>
-1
> <PUBCHEM_EXACT_MASS>
148.06480570
> <PUBCHEM_MOLECULAR_FORMULA>
C5H9FN2O2
> <PUBCHEM_MOLECULAR_WEIGHT>
148.14
> <PUBCHEM_OPENEYE_CAN_SMILES>
C1C(C(=O)N(O1)CCF)N
> <PUBCHEM_OPENEYE_ISO_SMILES>
C1C(C(=O)N(O1)CCF)N
> <PUBCHEM_CACTVS_TPSA>
55.6
> <PUBCHEM_MONOISOTOPIC_WEIGHT>
148.06480570
> <PUBCHEM_TOTAL_CHARGE>
0
> <PUBCHEM_HEAVY_ATOM_COUNT>
10
> <PUBCHEM_ATOM_DEF_STEREO_COUNT>
0
> <PUBCHEM_ATOM_UDEF_STEREO_COUNT>
1
> <PUBCHEM_BOND_DEF_STEREO_COUNT>
0
> <PUBCHEM_BOND_UDEF_STEREO_COUNT>
0
> <PUBCHEM_ISOTOPIC_ATOM_COUNT>
0
> <PUBCHEM_COMPONENT_COUNT>
1
> <PUBCHEM_CACTVS_TAUTO_COUNT>
-1
> <PUBCHEM_COORDINATE_TYPE>
1
5
255
> <PUBCHEM_BONDANNOTATIONS>
6  5  3
$$$$
