504010
  -OEChem-10302200282D
 33 34  0     1  0  0  0  0  0999 V2000
    3.7891    2.1307    0.0000 O   0  0  0  0  0  0  0  0  0  0  0  0
    3.7320   -0.9571    0.0000 O   0  0  0  0  0  0  0  0  0  0  0  0
    6.3582    1.8216    0.0000 O   0  0  0  0  0  0  0  0  0  0  0  0
    4.5981    1.5429    0.0000 N   0  0  0  0  0  0  0  0  0  0  0  0
    5.6859    3.8907    0.0000 N   0  0  0  0  0  0  0  0  0  0  0  0
    5.0981    3.0817    0.0000 C   0  0  3  0  0  0  0  0  0  0  0  0
    4.0981    3.0817    0.0000 C   0  0  0  0  0  0  0  0  0  0  0  0
    4.5981    0.5429    0.0000 C   0  0  0  0  0  0  0  0  0  0  0  0
    5.4071    2.1307    0.0000 C   0  0  0  0  0  0  0  0  0  0  0  0
    3.7320    0.0429    0.0000 C   0  0  0  0  0  0  0  0  0  0  0  0
    2.8660   -1.4571    0.0000 C   0  0  0  0  0  0  0  0  0  0  0  0
    2.8660   -2.4571    0.0000 C   0  0  0  0  0  0  0  0  0  0  0  0
    2.0000   -2.9571    0.0000 C   0  0  0  0  0  0  0  0  0  0  0  0
    3.7320   -2.9571    0.0000 C   0  0  0  0  0  0  0  0  0  0  0  0
    2.0000   -3.9571    0.0000 C   0  0  0  0  0  0  0  0  0  0  0  0
    3.7320   -3.9571    0.0000 C   0  0  0  0  0  0  0  0  0  0  0  0
    2.8660   -4.4571    0.0000 C   0  0  0  0  0  0  0  0  0  0  0  0
    5.7104    2.9847    0.0000 H   0  0  0  0  0  0  0  0  0  0  0  0
    4.1629    3.6983    0.0000 H   0  0  0  0  0  0  0  0  0  0  0  0
    3.4916    3.2106    0.0000 H   0  0  0  0  0  0  0  0  0  0  0  0
    4.8101   -0.0397    0.0000 H   0  0  0  0  0  0  0  0  0  0  0  0
    5.2087    0.6505    0.0000 H   0  0  0  0  0  0  0  0  0  0  0  0
    3.5200    0.6255    0.0000 H   0  0  0  0  0  0  0  0  0  0  0  0
    3.1215   -0.0648    0.0000 H   0  0  0  0  0  0  0  0  0  0  0  0
    5.4337    4.4571    0.0000 H   0  0  0  0  0  0  0  0  0  0  0  0
    6.3025    3.8259    0.0000 H   0  0  0  0  0  0  0  0  0  0  0  0
    2.6540   -0.8745    0.0000 H   0  0  0  0  0  0  0  0  0  0  0  0
    2.2554   -1.5648    0.0000 H   0  0  0  0  0  0  0  0  0  0  0  0
    1.4631   -2.6471    0.0000 H   0  0  0  0  0  0  0  0  0  0  0  0
    4.2690   -2.6471    0.0000 H   0  0  0  0  0  0  0  0  0  0  0  0
    1.4631   -4.2671    0.0000 H   0  0  0  0  0  0  0  0  0  0  0  0
    4.2690   -4.2671    0.0000 H   0  0  0  0  0  0  0  0  0  0  0  0
    2.8660   -5.0771    0.0000 H   0  0  0  0  0  0  0  0  0  0  0  0
  1  4  1  0  0  0  0
  1  7  1  0  0  0  0
  2 10  1  0  0  0  0
  2 11  1  0  0  0  0
  3  9  2  0  0  0  0
  4  8  1  0  0  0  0
  4  9  1  0  0  0  0
  5  6  1  0  0  0  0
  5 25  1  0  0  0  0
  5 26  1  0  0  0  0
  6  7  1  0  0  0  0
  6  9  1  0  0  0  0
  6 18  1  0  0  0  0
  7 19  1  0  0  0  0
  7 20  1  0  0  0  0
  8 10  1  0  0  0  0
  8 21  1  0  0  0  0
  8 22  1  0  0  0  0
 10 23  1  0  0  0  0
 10 24  1  0  0  0  0
 11 12  1  0  0  0  0
 11 27  1  0  0  0  0
 11 28  1  0  0  0  0
 12 13  2  0  0  0  0
 12 14  1  0  0  0  0
 13 15  1  0  0  0  0
 13 29  1  0  0  0  0
 14 16  2  0  0  0  0
 14 30  1  0  0  0  0
 15 17  2  0  0  0  0
 15 31  1  0  0  0  0
 16 17  1  0  0  0  0
 16 32  1  0  0  0  0
 17 33  1  0  0  0  0
M  END
> <PUBCHEM_COMPOUND_CID>
504010
> <PUBCHEM_COMPOUND_CANONICALIZED>
1
> <PUBCHEM_CACTVS_COMPLEXITY>
254
> <PUBCHEM_CACTVS_HBOND_ACCEPTOR>
4
> <PUBCHEM_CACTVS_HBOND_DONOR>
1
> <PUBCHEM_CACTVS_ROTATABLE_BOND>
5
> <PUBCHEM_CACTVS_SUBSKEYS>
AAADceBzMAAAAAAAAAAAAAAAAAAAAWAAAAAwAAAAAAAAAAABAAAAHgAUAAAADCjhmAYwAIJQBACIAiFSEAACAAAgAAAoiIGICIgKZiaAMRiXMAAm9gGYqAeAwCAOAAAAAAAAAAAAAAAAAAAAAAAAAAAAAA==
> <PUBCHEM_IUPAC_OPENEYE_NAME>
4-amino-2-(2-benzyloxyethyl)isoxazolidin-3-one
> <PUBCHEM_IUPAC_CAS_NAME>
4-amino-2-(2-phenylmethoxyethyl)-3-isoxazolidinone
> <PUBCHEM_IUPAC_NAME_MARKUP>
4-amino-2-(2-phenylmethoxyethyl)-1,2-oxazolidin-3-one
> <PUBCHEM_IUPAC_NAME>
4-amino-2-(2-phenylmethoxyethyl)-1,2-oxazolidin-3-one
> <PUBCHEM_IUPAC_SYSTEMATIC_NAME>
4-azanyl-2-(2-phenylmethoxyethyl)-1,2-oxazolidin-3-one
> <PUBCHEM_IUPAC_TRADITIONAL_NAME>
4-amino-2-(2-benzoxyethyl)isoxazolidin-3-one
> <PUBCHEM_IUPAC_INCHI>
InChI=1S/C12H16N2O3/c13-11-9-17-14(12(11)15)6-7-16-8-10-4-2-1-3-5-10/h1-5,11H,6-9,13H2
> <PUBCHEM_IUPAC_INCHIKEY>
GUKJRJSJTWMWPB-UHFFFAOYSA-N
> <PUBCHEM_XLOGP3_AA>
0
> <PUBCHEM_EXACT_MASS>
236.11609238
> <PUBCHEM_MOLECULAR_FORMULA>
C12H16N2O3
> <PUBCHEM_MOLECULAR_WEIGHT>
236.27
> <PUBCHEM_OPENEYE_CAN_SMILES>
C1C(C(=O)N(O1)CCOCC2=CC=CC=C2)N
> <PUBCHEM_OPENEYE_ISO_SMILES>
C1C(C(=O)N(O1)CCOCC2=CC=CC=C2)N
> <PUBCHEM_CACTVS_TPSA>
64.8
> <PUBCHEM_MONOISOTOPIC_WEIGHT>
236.11609238
> <PUBCHEM_TOTAL_CHARGE>
0
> <PUBCHEM_HEAVY_ATOM_COUNT>
17
> <PUBCHEM_ATOM_DEF_STEREO_COUNT>
0
> <PUBCHEM_ATOM_UDEF_STEREO_COUNT>
1
> <PUBCHEM_BOND_DEF_STEREO_COUNT>
0
> <PUBCHEM_BOND_UDEF_STEREO_COUNT>
0
> <PUBCHEM_ISOTOPIC_ATOM_COUNT>
0
> <PUBCHEM_COMPONENT_COUNT>
1
> <PUBCHEM_CACTVS_TAUTO_COUNT>
-1
> <PUBCHEM_COORDINATE_TYPE>
1
5
255
> <PUBCHEM_BONDANNOTATIONS>
12  13  8
12  14  8
13  15  8
14  16  8
15  17  8
16  17  8
6  5  3
$$$$
