504045
  -OEChem-10302200282D
 33 33  0     1  0  0  0  0  0999 V2000
    3.7320   -0.1550    0.0000 S   0  0  0  0  0  0  0  0  0  0  0  0
    4.5981    3.3450    0.0000 O   0  0  0  0  0  0  0  0  0  0  0  0
    5.4641    1.8450    0.0000 O   0  0  0  0  0  0  0  0  0  0  0  0
    2.8660    2.3450    0.0000 N   0  0  0  0  0  0  0  0  0  0  0  0
    3.7320    0.8450    0.0000 C   0  0  0  0  0  0  0  0  0  0  0  0
    3.7320    1.8450    0.0000 C   0  0  2  0  0  0  0  0  0  0  0  0
    4.7320    0.8450    0.0000 C   0  0  0  0  0  0  0  0  0  0  0  0
    2.7320    0.8450    0.0000 C   0  0  0  0  0  0  0  0  0  0  0  0
    2.8660   -0.6550    0.0000 C   0  0  0  0  0  0  0  0  0  0  0  0
    4.5981    2.3450    0.0000 C   0  0  0  0  0  0  0  0  0  0  0  0
    2.8660   -1.6550    0.0000 C   0  0  0  0  0  0  0  0  0  0  0  0
    3.7320   -2.1550    0.0000 C   0  0  0  0  0  0  0  0  0  0  0  0
    2.0000   -2.1550    0.0000 C   0  0  0  0  0  0  0  0  0  0  0  0
    3.7320   -3.1550    0.0000 C   0  0  0  0  0  0  0  0  0  0  0  0
    2.0000   -3.1550    0.0000 C   0  0  0  0  0  0  0  0  0  0  0  0
    2.8660   -3.6550    0.0000 C   0  0  0  0  0  0  0  0  0  0  0  0
    3.7320    2.4650    0.0000 H   0  0  0  0  0  0  0  0  0  0  0  0
    4.7320    0.2250    0.0000 H   0  0  0  0  0  0  0  0  0  0  0  0
    5.3520    0.8450    0.0000 H   0  0  0  0  0  0  0  0  0  0  0  0
    4.7320    1.4650    0.0000 H   0  0  0  0  0  0  0  0  0  0  0  0
    2.7320    1.4650    0.0000 H   0  0  0  0  0  0  0  0  0  0  0  0
    2.1120    0.8450    0.0000 H   0  0  0  0  0  0  0  0  0  0  0  0
    2.7320    0.2250    0.0000 H   0  0  0  0  0  0  0  0  0  0  0  0
    2.6540   -0.0724    0.0000 H   0  0  0  0  0  0  0  0  0  0  0  0
    2.2554   -0.7627    0.0000 H   0  0  0  0  0  0  0  0  0  0  0  0
    2.8660    2.9650    0.0000 H   0  0  0  0  0  0  0  0  0  0  0  0
    2.3291    2.0350    0.0000 H   0  0  0  0  0  0  0  0  0  0  0  0
    4.2690   -1.8450    0.0000 H   0  0  0  0  0  0  0  0  0  0  0  0
    1.4631   -1.8450    0.0000 H   0  0  0  0  0  0  0  0  0  0  0  0
    5.1350    3.6550    0.0000 H   0  0  0  0  0  0  0  0  0  0  0  0
    4.2690   -3.4650    0.0000 H   0  0  0  0  0  0  0  0  0  0  0  0
    1.4631   -3.4650    0.0000 H   0  0  0  0  0  0  0  0  0  0  0  0
    2.8660   -4.2750    0.0000 H   0  0  0  0  0  0  0  0  0  0  0  0
  1  5  1  0  0  0  0
  1  9  1  0  0  0  0
  2 10  1  0  0  0  0
  2 30  1  0  0  0  0
  3 10  2  0  0  0  0
  6  4  1  1  0  0  0
  4 26  1  0  0  0  0
  4 27  1  0  0  0  0
  5  6  1  0  0  0  0
  5  7  1  0  0  0  0
  5  8  1  0  0  0  0
  6 10  1  0  0  0  0
  6 17  1  0  0  0  0
  7 18  1  0  0  0  0
  7 19  1  0  0  0  0
  7 20  1  0  0  0  0
  8 21  1  0  0  0  0
  8 22  1  0  0  0  0
  8 23  1  0  0  0  0
  9 11  1  0  0  0  0
  9 24  1  0  0  0  0
  9 25  1  0  0  0  0
 11 12  2  0  0  0  0
 11 13  1  0  0  0  0
 12 14  1  0  0  0  0
 12 28  1  0  0  0  0
 13 15  2  0  0  0  0
 13 29  1  0  0  0  0
 14 16  2  0  0  0  0
 14 31  1  0  0  0  0
 15 16  1  0  0  0  0
 15 32  1  0  0  0  0
 16 33  1  0  0  0  0
M  END
> <PUBCHEM_COMPOUND_CID>
504045
> <PUBCHEM_COMPOUND_CANONICALIZED>
1
> <PUBCHEM_CACTVS_COMPLEXITY>
237
> <PUBCHEM_CACTVS_HBOND_ACCEPTOR>
4
> <PUBCHEM_CACTVS_HBOND_DONOR>
2
> <PUBCHEM_CACTVS_ROTATABLE_BOND>
5
> <PUBCHEM_CACTVS_SUBSKEYS>
AAADceByMABAAAAAAAAAAAAAAAAAAAAAAAAwAAAAAAAAAAABAAAAHgQQCAAADCjF2ASyCIBAAgiIAiDSCAACAAAgABAIiIGAAIgKIDKgERCAYAAkgAAoiAcAgAAOAAAAAAAAAAAAAAAAAAAAAAAAAAAAAA==
> <PUBCHEM_IUPAC_OPENEYE_NAME>
(2S)-2-amino-3-benzylsulfanyl-3-methyl-butanoic acid
> <PUBCHEM_IUPAC_CAS_NAME>
(2S)-2-amino-3-methyl-3-(phenylmethylthio)butanoic acid
> <PUBCHEM_IUPAC_NAME_MARKUP>
(2<I>S</I>)-2-amino-3-benzylsulfanyl-3-methylbutanoic acid
> <PUBCHEM_IUPAC_NAME>
(2S)-2-amino-3-benzylsulfanyl-3-methylbutanoic acid
> <PUBCHEM_IUPAC_SYSTEMATIC_NAME>
(2S)-2-azanyl-3-methyl-3-(phenylmethylsulfanyl)butanoic acid
> <PUBCHEM_IUPAC_TRADITIONAL_NAME>
(2S)-2-amino-3-(benzylthio)-3-methyl-butyric acid
> <PUBCHEM_IUPAC_INCHI>
InChI=1S/C12H17NO2S/c1-12(2,10(13)11(14)15)16-8-9-6-4-3-5-7-9/h3-7,10H,8,13H2,1-2H3,(H,14,15)/t10-/m0/s1
> <PUBCHEM_IUPAC_INCHIKEY>
YPZAXRYHYTVHPA-JTQLQIEISA-N
> <PUBCHEM_XLOGP3_AA>
-0.6
> <PUBCHEM_EXACT_MASS>
239.09799996
> <PUBCHEM_MOLECULAR_FORMULA>
C12H17NO2S
> <PUBCHEM_MOLECULAR_WEIGHT>
239.34
> <PUBCHEM_OPENEYE_CAN_SMILES>
CC(C)(C(C(=O)O)N)SCC1=CC=CC=C1
> <PUBCHEM_OPENEYE_ISO_SMILES>
CC(C)([C@H](C(=O)O)N)SCC1=CC=CC=C1
> <PUBCHEM_CACTVS_TPSA>
88.6
> <PUBCHEM_MONOISOTOPIC_WEIGHT>
239.09799996
> <PUBCHEM_TOTAL_CHARGE>
0
> <PUBCHEM_HEAVY_ATOM_COUNT>
16
> <PUBCHEM_ATOM_DEF_STEREO_COUNT>
1
> <PUBCHEM_ATOM_UDEF_STEREO_COUNT>
0
> <PUBCHEM_BOND_DEF_STEREO_COUNT>
0
> <PUBCHEM_BOND_UDEF_STEREO_COUNT>
0
> <PUBCHEM_ISOTOPIC_ATOM_COUNT>
0
> <PUBCHEM_COMPONENT_COUNT>
1
> <PUBCHEM_CACTVS_TAUTO_COUNT>
1
> <PUBCHEM_COORDINATE_TYPE>
1
5
255
> <PUBCHEM_BONDANNOTATIONS>
11  12  8
11  13  8
12  14  8
13  15  8
14  16  8
15  16  8
6  4  5
$$$$
