504096
  -OEChem-10302200282D
 98104  0     1  0  0  0  0  0999 V2000
    3.9235   -6.2717    0.0000 F   0  0  0  0  0  0  0  0  0  0  0  0
    2.6878   -6.9595    0.0000 F   0  0  0  0  0  0  0  0  0  0  0  0
    2.0000   -5.7238    0.0000 F   0  0  0  0  0  0  0  0  0  0  0  0
    9.6397    3.1904    0.0000 O   0  0  0  0  0  0  0  0  0  0  0  0
    8.3054    4.0904    0.0000 O   0  0  0  0  0  0  0  0  0  0  0  0
    6.9686    0.6695    0.0000 O   0  0  0  0  0  0  0  0  0  0  0  0
    6.2714   -0.7019    0.0000 O   0  0  0  0  0  0  0  0  0  0  0  0
   10.7614   -3.0266    0.0000 O   0  0  0  0  0  0  0  0  0  0  0  0
   15.0919   -1.5278    0.0000 O   0  5  0  0  0  0  0  0  0  0  0  0
   13.4837   -0.8845    0.0000 O   0  0  0  0  0  0  0  0  0  0  0  0
    8.5254    1.4288    0.0000 N   0  0  0  0  0  0  0  0  0  0  0  0
    7.9371   -1.1764    0.0000 N   0  0  0  0  0  0  0  0  0  0  0  0
   10.5144   -1.3123    0.0000 N   0  0  0  0  0  0  0  0  0  0  0  0
    8.3591   -2.8563    0.0000 N   0  0  0  0  0  0  0  0  0  0  0  0
    5.7234   -2.6253    0.0000 N   0  0  0  0  0  0  0  0  0  0  0  0
   12.1226   -1.9556    0.0000 N   0  0  0  0  0  0  0  0  0  0  0  0
   14.1021   -1.6704    0.0000 N   0  3  0  0  0  0  0  0  0  0  0  0
   11.1372    5.0109    0.0000 C   0  0  3  0  0  0  0  0  0  0  0  0
   12.5362    5.0198    0.0000 C   0  0  0  0  0  0  0  0  0  0  0  0
   11.3961    5.9769    0.0000 C   0  0  3  0  0  0  0  0  0  0  0  0
   10.6594    6.9595    0.0000 C   0  0  0  0  0  0  0  0  0  0  0  0
    9.9162    4.1453    0.0000 C   0  0  3  0  0  0  0  0  0  0  0  0
    9.0872    4.7045    0.0000 C   0  0  2  0  0  0  0  0  0  0  0  0
    9.3628    5.6657    0.0000 C   0  0  0  0  0  0  0  0  0  0  0  0
   13.4022    5.5198    0.0000 C   0  0  0  0  0  0  0  0  0  0  0  0
   13.0362    4.1537    0.0000 C   0  0  0  0  0  0  0  0  0  0  0  0
    8.2581    5.2637    0.0000 C   0  0  0  0  0  0  0  0  0  0  0  0
    8.0870    2.3276    0.0000 C   0  0  1  0  0  0  0  0  0  0  0  0
    7.0895    2.3973    0.0000 C   0  0  0  0  0  0  0  0  0  0  0  0
    6.5303    1.5683    0.0000 C   0  0  0  0  0  0  0  0  0  0  0  0
    7.9662    0.5997    0.0000 C   0  0  0  0  0  0  0  0  0  0  0  0
    8.4046   -0.2991    0.0000 C   0  0  2  0  0  0  0  0  0  0  0  0
    9.3837   -0.4708    0.0000 C   0  0  0  0  0  0  0  0  0  0  0  0
    9.5246   -1.4549    0.0000 C   0  0  2  0  0  0  0  0  0  0  0  0
    8.6330   -1.8945    0.0000 C   0  0  0  0  0  0  0  0  0  0  0  0
    9.9661   -2.3522    0.0000 C   0  0  0  0  0  0  0  0  0  0  0  0
    6.9673   -1.4200    0.0000 C   0  0  0  0  0  0  0  0  0  0  0  0
    6.6933   -2.3817    0.0000 C   0  0  0  0  0  0  0  0  0  0  0  0
    7.3892   -3.0999    0.0000 C   0  0  0  0  0  0  0  0  0  0  0  0
   11.1328   -2.0982    0.0000 C   0  0  0  0  0  0  0  0  0  0  0  0
    5.4494   -3.5871    0.0000 C   0  0  0  0  0  0  0  0  0  0  0  0
   12.7409   -2.7414    0.0000 C   0  0  0  0  0  0  0  0  0  0  0  0
    4.4796   -3.8307    0.0000 C   0  0  0  0  0  0  0  0  0  0  0  0
   13.7307   -2.5988    0.0000 C   0  0  0  0  0  0  0  0  0  0  0  0
   12.3696   -3.6699    0.0000 C   0  0  0  0  0  0  0  0  0  0  0  0
    4.2056   -4.7924    0.0000 C   0  0  0  0  0  0  0  0  0  0  0  0
    3.7837   -3.1125    0.0000 C   0  0  0  0  0  0  0  0  0  0  0  0
   14.3491   -3.3847    0.0000 C   0  0  0  0  0  0  0  0  0  0  0  0
   12.9879   -4.4558    0.0000 C   0  0  0  0  0  0  0  0  0  0  0  0
    3.2357   -5.0360    0.0000 C   0  0  0  0  0  0  0  0  0  0  0  0
    2.8138   -3.3561    0.0000 C   0  0  0  0  0  0  0  0  0  0  0  0
   13.9777   -4.3132    0.0000 C   0  0  0  0  0  0  0  0  0  0  0  0
    2.5398   -4.3179    0.0000 C   0  0  0  0  0  0  0  0  0  0  0  0
    2.9617   -5.9977    0.0000 C   0  0  0  0  0  0  0  0  0  0  0  0
    8.6462    3.1566    0.0000 B   0  0  0  0  0  0  0  0  0  0  0  0
   11.3273    4.4208    0.0000 H   0  0  0  0  0  0  0  0  0  0  0  0
   11.8464    6.4030    0.0000 H   0  0  0  0  0  0  0  0  0  0  0  0
   10.9772    7.4918    0.0000 H   0  0  0  0  0  0  0  0  0  0  0  0
   10.0463    7.0514    0.0000 H   0  0  0  0  0  0  0  0  0  0  0  0
   10.4216    3.7861    0.0000 H   0  0  0  0  0  0  0  0  0  0  0  0
    9.3578    6.2857    0.0000 H   0  0  0  0  0  0  0  0  0  0  0  0
    8.7485    5.7495    0.0000 H   0  0  0  0  0  0  0  0  0  0  0  0
   13.7122    4.9828    0.0000 H   0  0  0  0  0  0  0  0  0  0  0  0
   13.9391    5.8298    0.0000 H   0  0  0  0  0  0  0  0  0  0  0  0
   13.0922    6.0567    0.0000 H   0  0  0  0  0  0  0  0  0  0  0  0
   12.4992    3.8437    0.0000 H   0  0  0  0  0  0  0  0  0  0  0  0
   13.3462    3.6168    0.0000 H   0  0  0  0  0  0  0  0  0  0  0  0
   13.5731    4.4637    0.0000 H   0  0  0  0  0  0  0  0  0  0  0  0
    8.6048    5.7777    0.0000 H   0  0  0  0  0  0  0  0  0  0  0  0
    7.7441    5.6104    0.0000 H   0  0  0  0  0  0  0  0  0  0  0  0
    7.9114    4.7497    0.0000 H   0  0  0  0  0  0  0  0  0  0  0  0
    7.7403    1.8136    0.0000 H   0  0  0  0  0  0  0  0  0  0  0  0
    7.2395    2.9989    0.0000 H   0  0  0  0  0  0  0  0  0  0  0  0
    6.5231    2.6495    0.0000 H   0  0  0  0  0  0  0  0  0  0  0  0
    9.1439    1.3855    0.0000 H   0  0  0  0  0  0  0  0  0  0  0  0
    6.0163    1.9150    0.0000 H   0  0  0  0  0  0  0  0  0  0  0  0
    6.1836    1.0543    0.0000 H   0  0  0  0  0  0  0  0  0  0  0  0
    7.0443    1.2216    0.0000 H   0  0  0  0  0  0  0  0  0  0  0  0
    7.7847   -0.2880    0.0000 H   0  0  0  0  0  0  0  0  0  0  0  0
   10.0033   -0.4480    0.0000 H   0  0  0  0  0  0  0  0  0  0  0  0
    9.4261    0.1477    0.0000 H   0  0  0  0  0  0  0  0  0  0  0  0
    9.4098   -2.6259    0.0000 H   0  0  0  0  0  0  0  0  0  0  0  0
   10.2398   -2.9085    0.0000 H   0  0  0  0  0  0  0  0  0  0  0  0
   10.5224   -2.0784    0.0000 H   0  0  0  0  0  0  0  0  0  0  0  0
   10.7447   -0.7366    0.0000 H   0  0  0  0  0  0  0  0  0  0  0  0
    7.2193   -3.6961    0.0000 H   0  0  0  0  0  0  0  0  0  0  0  0
    5.2920   -2.1801    0.0000 H   0  0  0  0  0  0  0  0  0  0  0  0
   12.3528   -1.3799    0.0000 H   0  0  0  0  0  0  0  0  0  0  0  0
    5.4938   -4.2055    0.0000 H   0  0  0  0  0  0  0  0  0  0  0  0
    6.0662   -3.6508    0.0000 H   0  0  0  0  0  0  0  0  0  0  0  0
   11.7559   -3.7583    0.0000 H   0  0  0  0  0  0  0  0  0  0  0  0
    4.6370   -5.2376    0.0000 H   0  0  0  0  0  0  0  0  0  0  0  0
    3.9535   -2.5162    0.0000 H   0  0  0  0  0  0  0  0  0  0  0  0
   14.9628   -3.2963    0.0000 H   0  0  0  0  0  0  0  0  0  0  0  0
   12.7577   -5.0315    0.0000 H   0  0  0  0  0  0  0  0  0  0  0  0
    2.3823   -2.9109    0.0000 H   0  0  0  0  0  0  0  0  0  0  0  0
   14.3611   -4.8004    0.0000 H   0  0  0  0  0  0  0  0  0  0  0  0
    1.9385   -4.4689    0.0000 H   0  0  0  0  0  0  0  0  0  0  0  0
  1 54  1  0  0  0  0
  2 54  1  0  0  0  0
  3 54  1  0  0  0  0
  4 22  1  0  0  0  0
  4 55  1  0  0  0  0
  5 23  1  0  0  0  0
  5 55  1  0  0  0  0
  6 31  2  0  0  0  0
  7 37  2  0  0  0  0
  8 40  2  0  0  0  0
  9 17  1  0  0  0  0
 10 17  2  0  0  0  0
 28 11  1  1  0  0  0
 11 31  1  0  0  0  0
 11 75  1  0  0  0  0
 12 32  1  0  0  0  0
 12 35  1  0  0  0  0
 12 37  1  0  0  0  0
 34 13  1  1  0  0  0
 13 40  1  0  0  0  0
 13 85  1  0  0  0  0
 14 35  2  0  0  0  0
 14 39  1  0  0  0  0
 15 38  1  0  0  0  0
 15 41  1  0  0  0  0
 15 87  1  0  0  0  0
 16 40  1  0  0  0  0
 16 42  1  0  0  0  0
 16 88  1  0  0  0  0
 17 44  1  0  0  0  0
 18 19  1  0  0  0  0
 18 21  1  0  0  0  0
 18 22  1  0  0  0  0
 18 56  1  0  0  0  0
 19 20  1  0  0  0  0
 19 25  1  0  0  0  0
 19 26  1  0  0  0  0
 20 21  1  0  0  0  0
 20 24  1  0  0  0  0
 20 57  1  0  0  0  0
 21 58  1  0  0  0  0
 21 59  1  0  0  0  0
 22 23  1  0  0  0  0
 22 60  1  0  0  0  0
 23 24  1  0  0  0  0
 23 27  1  6  0  0  0
 24 61  1  0  0  0  0
 24 62  1  0  0  0  0
 25 63  1  0  0  0  0
 25 64  1  0  0  0  0
 25 65  1  0  0  0  0
 26 66  1  0  0  0  0
 26 67  1  0  0  0  0
 26 68  1  0  0  0  0
 27 69  1  0  0  0  0
 27 70  1  0  0  0  0
 27 71  1  0  0  0  0
 28 29  1  0  0  0  0
 28 55  1  0  0  0  0
 28 72  1  0  0  0  0
 29 30  1  0  0  0  0
 29 73  1  0  0  0  0
 29 74  1  0  0  0  0
 30 76  1  0  0  0  0
 30 77  1  0  0  0  0
 30 78  1  0  0  0  0
 32 31  1  6  0  0  0
 32 33  1  0  0  0  0
 32 79  1  0  0  0  0
 33 34  1  0  0  0  0
 33 80  1  0  0  0  0
 33 81  1  0  0  0  0
 34 35  1  0  0  0  0
 34 36  1  0  0  0  0
 36 82  1  0  0  0  0
 36 83  1  0  0  0  0
 36 84  1  0  0  0  0
 37 38  1  0  0  0  0
 38 39  2  0  0  0  0
 39 86  1  0  0  0  0
 41 43  1  0  0  0  0
 41 89  1  0  0  0  0
 41 90  1  0  0  0  0
 42 44  1  0  0  0  0
 42 45  2  0  0  0  0
 43 46  2  0  0  0  0
 43 47  1  0  0  0  0
 44 48  2  0  0  0  0
 45 49  1  0  0  0  0
 45 91  1  0  0  0  0
 46 50  1  0  0  0  0
 46 92  1  0  0  0  0
 47 51  2  0  0  0  0
 47 93  1  0  0  0  0
 48 52  1  0  0  0  0
 48 94  1  0  0  0  0
 49 52  2  0  0  0  0
 49 95  1  0  0  0  0
 50 53  2  0  0  0  0
 50 54  1  0  0  0  0
 51 53  1  0  0  0  0
 51 96  1  0  0  0  0
 52 97  1  0  0  0  0
 53 98  1  0  0  0  0
M  CHG  2   9  -1  17   1
M  END
> <PUBCHEM_COMPOUND_CID>
504096
> <PUBCHEM_COMPOUND_CANONICALIZED>
1
> <PUBCHEM_CACTVS_COMPLEXITY>
1630
> <PUBCHEM_CACTVS_HBOND_ACCEPTOR>
12
> <PUBCHEM_CACTVS_HBOND_DONOR>
4
> <PUBCHEM_CACTVS_ROTATABLE_BOND>
9
> <PUBCHEM_CACTVS_SUBSKEYS>
AAADcfJ/uYAAAAAAAAAAAAAAAABgAWJAAAAwYMGCAAAAAEgBQAAoHwAUAAAAD/zhmBYzwIPQQACpAid2dwCCAAEhAgApiIGodMqJYDLA2bGUIAhsloLIyOecwfAPgAACAAAAACDAAAYAADCAQAAAAAAAAA==
> <PUBCHEM_IUPAC_OPENEYE_NAME>
(6S,8R)-8-methyl-8-[(2-nitrophenyl)carbamoylamino]-4-oxo-3-[[3-(trifluoromethyl)phenyl]methylamino]-N-[(1R)-1-[(6S)-6,9,9-trimethyl-3,5-dioxa-4-boratricyclo[6.1.1.02,6]decan-4-yl]propyl]-6,7-dihydropyrrolo[1,2-a]pyrimidine-6-carboxamide
> <PUBCHEM_IUPAC_CAS_NAME>
(6S,8R)-8-methyl-8-[[(2-nitroanilino)-oxomethyl]amino]-4-oxo-3-[[3-(trifluoromethyl)phenyl]methylamino]-N-[(1R)-1-[(6S)-6,9,9-trimethyl-3,5-dioxa-4-boratricyclo[6.1.1.02,6]decan-4-yl]propyl]-6,7-dihydropyrrolo[1,2-a]pyrimidine-6-carboxamide
> <PUBCHEM_IUPAC_NAME_MARKUP>
(6<I>S</I>,8<I>R</I>)-8-methyl-8-[(2-nitrophenyl)carbamoylamino]-4-oxo-3-[[3-(trifluoromethyl)phenyl]methylamino]-<I>N</I>-[(1<I>R</I>)-1-[(6<I>S</I>)-6,9,9-trimethyl-3,5-dioxa-4-boratricyclo[6.1.1.0<SUP>2,6</SUP>]decan-4-yl]propyl]-6,7-dihydropyrrolo[1,2-a]pyrimidine-6-carboxamide
> <PUBCHEM_IUPAC_NAME>
(6S,8R)-8-methyl-8-[(2-nitrophenyl)carbamoylamino]-4-oxo-3-[[3-(trifluoromethyl)phenyl]methylamino]-N-[(1R)-1-[(6S)-6,9,9-trimethyl-3,5-dioxa-4-boratricyclo[6.1.1.02,6]decan-4-yl]propyl]-6,7-dihydropyrrolo[1,2-a]pyrimidine-6-carboxamide
> <PUBCHEM_IUPAC_SYSTEMATIC_NAME>
(6S,8R)-8-methyl-8-[(2-nitrophenyl)carbamoylamino]-4-oxidanylidene-3-[[3-(trifluoromethyl)phenyl]methylamino]-N-[(1R)-1-[(6S)-6,9,9-trimethyl-3,5-dioxa-4-boratricyclo[6.1.1.02,6]decan-4-yl]propyl]-6,7-dihydropyrrolo[1,2-a]pyrimidine-6-carboxamide
> <PUBCHEM_IUPAC_TRADITIONAL_NAME>
(6S,8R)-4-keto-8-methyl-8-[(2-nitrophenyl)carbamoylamino]-3-[[3-(trifluoromethyl)benzyl]amino]-N-[(1R)-1-[(6S)-6,9,9-trimethyl-3,5-dioxa-4-boratricyclo[6.1.1.02,6]decan-4-yl]propyl]-6,7-dihydropyrrolo[1,2-a]pyrimidine-6-carboxamide
> <PUBCHEM_IUPAC_INCHI>
InChI=1S/C37H43BF3N7O7/c1-6-28(38-54-29-23-15-22(34(23,2)3)16-36(29,5)55-38)45-30(49)27-17-35(4,46-33(51)44-24-12-7-8-13-26(24)48(52)53)32-43-19-25(31(50)47(27)32)42-18-20-10-9-11-21(14-20)37(39,40)41/h7-14,19,22-23,27-29,42H,6,15-18H2,1-5H3,(H,45,49)(H2,44,46,51)/t22?,23?,27-,28-,29?,35+,36-/m0/s1
> <PUBCHEM_IUPAC_INCHIKEY>
YWCHJVLZZQLKRD-GZWSCSFWSA-N
> <PUBCHEM_EXACT_MASS>
765.3269114
> <PUBCHEM_MOLECULAR_FORMULA>
C37H43BF3N7O7
> <PUBCHEM_MOLECULAR_WEIGHT>
765.6
> <PUBCHEM_OPENEYE_CAN_SMILES>
B1(OC2C3CC(C3(C)C)CC2(O1)C)C(CC)NC(=O)C4CC(C5=NC=C(C(=O)N45)NCC6=CC(=CC=C6)C(F)(F)F)(C)NC(=O)NC7=CC=CC=C7[N+](=O)[O-]
> <PUBCHEM_OPENEYE_ISO_SMILES>
B1(OC2C3CC(C3(C)C)C[C@@]2(O1)C)[C@H](CC)NC(=O)[C@@H]4C[C@@](C5=NC=C(C(=O)N45)NCC6=CC(=CC=C6)C(F)(F)F)(C)NC(=O)NC7=CC=CC=C7[N+](=O)[O-]
> <PUBCHEM_CACTVS_TPSA>
179
> <PUBCHEM_MONOISOTOPIC_WEIGHT>
765.3269114
> <PUBCHEM_TOTAL_CHARGE>
0
> <PUBCHEM_HEAVY_ATOM_COUNT>
55
> <PUBCHEM_ATOM_DEF_STEREO_COUNT>
4
> <PUBCHEM_ATOM_UDEF_STEREO_COUNT>
3
> <PUBCHEM_BOND_DEF_STEREO_COUNT>
0
> <PUBCHEM_BOND_UDEF_STEREO_COUNT>
0
> <PUBCHEM_ISOTOPIC_ATOM_COUNT>
0
> <PUBCHEM_COMPONENT_COUNT>
1
> <PUBCHEM_CACTVS_TAUTO_COUNT>
-1
> <PUBCHEM_COORDINATE_TYPE>
1
5
255
> <PUBCHEM_BONDANNOTATIONS>
28  11  5
12  35  8
12  37  8
34  13  5
14  35  8
14  39  8
18  21  3
20  21  3
23  27  6
32  31  6
37  38  8
38  39  8
22  4  3
42  44  8
42  45  8
43  46  8
43  47  8
44  48  8
45  49  8
46  50  8
47  51  8
48  52  8
49  52  8
50  53  8
51  53  8
$$$$
