504044
  -OEChem-10302200282D
 45 45  0     1  0  0  0  0  0999 V2000
    7.1962    3.4400    0.0000 S   0  0  0  0  0  0  0  0  0  0  0  0
    3.7320    2.4400    0.0000 O   0  0  0  0  0  0  0  0  0  0  0  0
    3.7320    1.4400    0.0000 O   0  0  0  0  0  0  0  0  0  0  0  0
    4.5981   -2.0600    0.0000 O   0  0  0  0  0  0  0  0  0  0  0  0
    5.4641    1.4400    0.0000 N   0  0  0  0  0  0  0  0  0  0  0  0
    4.5981    3.9400    0.0000 N   0  0  0  0  0  0  0  0  0  0  0  0
    3.7320   -0.5600    0.0000 N   0  0  0  0  0  0  0  0  0  0  0  0
    3.7320    4.4400    0.0000 N   0  0  0  0  0  0  0  0  0  0  0  0
    6.3301    2.9400    0.0000 C   0  0  0  0  0  0  0  0  0  0  0  0
    5.4641    2.4400    0.0000 C   0  0  1  0  0  0  0  0  0  0  0  0
    5.8301    3.8060    0.0000 C   0  0  0  0  0  0  0  0  0  0  0  0
    6.8301    2.0740    0.0000 C   0  0  0  0  0  0  0  0  0  0  0  0
    4.5981    2.9400    0.0000 C   0  0  0  0  0  0  0  0  0  0  0  0
    4.5981    0.9400    0.0000 C   0  0  0  0  0  0  0  0  0  0  0  0
    4.5981   -0.0600    0.0000 C   0  0  0  0  0  0  0  0  0  0  0  0
    2.8660   -2.0600    0.0000 C   0  0  0  0  0  0  0  0  0  0  0  0
    3.7320   -1.5600    0.0000 C   0  0  0  0  0  0  0  0  0  0  0  0
    2.8660   -3.0600    0.0000 C   0  0  0  0  0  0  0  0  0  0  0  0
    3.7320   -3.5600    0.0000 C   0  0  0  0  0  0  0  0  0  0  0  0
    2.0000   -3.5600    0.0000 C   0  0  0  0  0  0  0  0  0  0  0  0
    3.7320   -4.5600    0.0000 C   0  0  0  0  0  0  0  0  0  0  0  0
    2.0000   -4.5600    0.0000 C   0  0  0  0  0  0  0  0  0  0  0  0
    2.8660   -5.0600    0.0000 C   0  0  0  0  0  0  0  0  0  0  0  0
    6.0010    2.1300    0.0000 H   0  0  0  0  0  0  0  0  0  0  0  0
    6.3671    4.1160    0.0000 H   0  0  0  0  0  0  0  0  0  0  0  0
    5.5201    4.3430    0.0000 H   0  0  0  0  0  0  0  0  0  0  0  0
    5.2932    3.4960    0.0000 H   0  0  0  0  0  0  0  0  0  0  0  0
    6.2932    1.7640    0.0000 H   0  0  0  0  0  0  0  0  0  0  0  0
    7.1401    1.5370    0.0000 H   0  0  0  0  0  0  0  0  0  0  0  0
    7.3671    2.3840    0.0000 H   0  0  0  0  0  0  0  0  0  0  0  0
    6.0010    1.1300    0.0000 H   0  0  0  0  0  0  0  0  0  0  0  0
    7.7331    3.1300    0.0000 H   0  0  0  0  0  0  0  0  0  0  0  0
    4.8101   -0.6426    0.0000 H   0  0  0  0  0  0  0  0  0  0  0  0
    5.2087    0.0477    0.0000 H   0  0  0  0  0  0  0  0  0  0  0  0
    5.1350    4.2500    0.0000 H   0  0  0  0  0  0  0  0  0  0  0  0
    3.1951   -0.2500    0.0000 H   0  0  0  0  0  0  0  0  0  0  0  0
    2.6540   -1.4774    0.0000 H   0  0  0  0  0  0  0  0  0  0  0  0
    2.2554   -2.1677    0.0000 H   0  0  0  0  0  0  0  0  0  0  0  0
    3.7320    5.0600    0.0000 H   0  0  0  0  0  0  0  0  0  0  0  0
    3.1951    4.1300    0.0000 H   0  0  0  0  0  0  0  0  0  0  0  0
    4.2690   -3.2500    0.0000 H   0  0  0  0  0  0  0  0  0  0  0  0
    1.4631   -3.2500    0.0000 H   0  0  0  0  0  0  0  0  0  0  0  0
    4.2690   -4.8700    0.0000 H   0  0  0  0  0  0  0  0  0  0  0  0
    1.4631   -4.8700    0.0000 H   0  0  0  0  0  0  0  0  0  0  0  0
    2.8660   -5.6800    0.0000 H   0  0  0  0  0  0  0  0  0  0  0  0
  1  9  1  0  0  0  0
  1 32  1  0  0  0  0
  2 13  2  0  0  0  0
  3 14  2  0  0  0  0
  4 17  2  0  0  0  0
 10  5  1  6  0  0  0
  5 14  1  0  0  0  0
  5 31  1  0  0  0  0
  6  8  1  0  0  0  0
  6 13  1  0  0  0  0
  6 35  1  0  0  0  0
  7 15  1  0  0  0  0
  7 17  1  0  0  0  0
  7 36  1  0  0  0  0
  8 39  1  0  0  0  0
  8 40  1  0  0  0  0
  9 10  1  0  0  0  0
  9 11  1  0  0  0  0
  9 12  1  0  0  0  0
 10 13  1  0  0  0  0
 10 24  1  0  0  0  0
 11 25  1  0  0  0  0
 11 26  1  0  0  0  0
 11 27  1  0  0  0  0
 12 28  1  0  0  0  0
 12 29  1  0  0  0  0
 12 30  1  0  0  0  0
 14 15  1  0  0  0  0
 15 33  1  0  0  0  0
 15 34  1  0  0  0  0
 16 17  1  0  0  0  0
 16 18  1  0  0  0  0
 16 37  1  0  0  0  0
 16 38  1  0  0  0  0
 18 19  2  0  0  0  0
 18 20  1  0  0  0  0
 19 21  1  0  0  0  0
 19 41  1  0  0  0  0
 20 22  2  0  0  0  0
 20 42  1  0  0  0  0
 21 23  2  0  0  0  0
 21 43  1  0  0  0  0
 22 23  1  0  0  0  0
 22 44  1  0  0  0  0
 23 45  1  0  0  0  0
M  END
> <PUBCHEM_COMPOUND_CID>
504044
> <PUBCHEM_COMPOUND_CANONICALIZED>
1
> <PUBCHEM_CACTVS_COMPLEXITY>
436
> <PUBCHEM_CACTVS_HBOND_ACCEPTOR>
5
> <PUBCHEM_CACTVS_HBOND_DONOR>
5
> <PUBCHEM_CACTVS_ROTATABLE_BOND>
7
> <PUBCHEM_CACTVS_SUBSKEYS>
AAADceBzsABAAAAAAAAAAAAAAAAAAAAAAAAwAAAAAAAAAAABAAAAHgQYAAAADCjB2AQyAILiAASIAiFSEAACAAAgAAIaqIGIAIgIYDKAlTGUIAAglgCIiAcYiICOAAAAAAAAAAAAAAAAAAAAAAAAAAAAAA==
> <PUBCHEM_IUPAC_OPENEYE_NAME>
N-[2-[[(1R)-1-(hydrazinecarbonyl)-2-methyl-2-sulfanyl-propyl]amino]-2-oxo-ethyl]-2-phenyl-acetamide
> <PUBCHEM_IUPAC_CAS_NAME>
N-[2-[[(2R)-1-hydrazinyl-3-mercapto-3-methyl-1-oxobutan-2-yl]amino]-2-oxoethyl]-2-phenylacetamide
> <PUBCHEM_IUPAC_NAME_MARKUP>
<I>N</I>-[2-[[(2<I>R</I>)-1-hydrazinyl-3-methyl-1-oxo-3-sulfanylbutan-2-yl]amino]-2-oxoethyl]-2-phenylacetamide
> <PUBCHEM_IUPAC_NAME>
N-[2-[[(2R)-1-hydrazinyl-3-methyl-1-oxo-3-sulfanylbutan-2-yl]amino]-2-oxoethyl]-2-phenylacetamide
> <PUBCHEM_IUPAC_SYSTEMATIC_NAME>
N-[2-[[(2R)-1-diazanyl-3-methyl-1-oxidanylidene-3-sulfanyl-butan-2-yl]amino]-2-oxidanylidene-ethyl]-2-phenyl-ethanamide
> <PUBCHEM_IUPAC_TRADITIONAL_NAME>
N-[2-[[(1R)-1-carbazoyl-2-mercapto-2-methyl-propyl]amino]-2-keto-ethyl]-2-phenyl-acetamide
> <PUBCHEM_IUPAC_INCHI>
InChI=1S/C15H22N4O3S/c1-15(2,23)13(14(22)19-16)18-12(21)9-17-11(20)8-10-6-4-3-5-7-10/h3-7,13,23H,8-9,16H2,1-2H3,(H,17,20)(H,18,21)(H,19,22)/t13-/m1/s1
> <PUBCHEM_IUPAC_INCHIKEY>
KZRFDQFJAPYGOA-CYBMUJFWSA-N
> <PUBCHEM_XLOGP3_AA>
0
> <PUBCHEM_EXACT_MASS>
338.14126175
> <PUBCHEM_MOLECULAR_FORMULA>
C15H22N4O3S
> <PUBCHEM_MOLECULAR_WEIGHT>
338.4
> <PUBCHEM_OPENEYE_CAN_SMILES>
CC(C)(C(C(=O)NN)NC(=O)CNC(=O)CC1=CC=CC=C1)S
> <PUBCHEM_OPENEYE_ISO_SMILES>
CC(C)([C@@H](C(=O)NN)NC(=O)CNC(=O)CC1=CC=CC=C1)S
> <PUBCHEM_CACTVS_TPSA>
114
> <PUBCHEM_MONOISOTOPIC_WEIGHT>
338.14126175
> <PUBCHEM_TOTAL_CHARGE>
0
> <PUBCHEM_HEAVY_ATOM_COUNT>
23
> <PUBCHEM_ATOM_DEF_STEREO_COUNT>
1
> <PUBCHEM_ATOM_UDEF_STEREO_COUNT>
0
> <PUBCHEM_BOND_DEF_STEREO_COUNT>
0
> <PUBCHEM_BOND_UDEF_STEREO_COUNT>
0
> <PUBCHEM_ISOTOPIC_ATOM_COUNT>
0
> <PUBCHEM_COMPONENT_COUNT>
1
> <PUBCHEM_CACTVS_TAUTO_COUNT>
-1
> <PUBCHEM_COORDINATE_TYPE>
1
5
255
> <PUBCHEM_BONDANNOTATIONS>
18  19  8
18  20  8
19  21  8
20  22  8
21  23  8
22  23  8
10  5  6
$$$$
