504086
  -OEChem-10302200282D
 60 63  0     1  0  0  0  0  0999 V2000
    4.5981    1.2500    0.0000 O   0  0  0  0  0  0  0  0  0  0  0  0
    4.5981   -1.7500    0.0000 N   0  0  3  0  0  0  0  0  0  0  0  0
    3.7320   -1.2500    0.0000 C   0  0  1  0  0  0  0  0  0  0  0  0
    3.7320   -0.2500    0.0000 C   0  0  0  0  0  0  0  0  0  0  0  0
    4.5981    0.2500    0.0000 C   0  0  2  0  0  0  0  0  0  0  0  0
    2.8660   -1.7500    0.0000 C   0  0  0  0  0  0  0  0  0  0  0  0
    5.4641   -0.2500    0.0000 C   0  0  0  0  0  0  0  0  0  0  0  0
    5.4641   -1.2500    0.0000 C   0  0  0  0  0  0  0  0  0  0  0  0
    4.5981   -2.7500    0.0000 C   0  0  0  0  0  0  0  0  0  0  0  0
    2.0000   -1.2500    0.0000 C   0  0  0  0  0  0  0  0  0  0  0  0
    2.8660   -2.7500    0.0000 C   0  0  0  0  0  0  0  0  0  0  0  0
    5.4641    1.7500    0.0000 C   0  0  0  0  0  0  0  0  0  0  0  0
    3.7320   -3.2500    0.0000 C   0  0  0  0  0  0  0  0  0  0  0  0
    5.4641   -3.2500    0.0000 C   0  0  0  0  0  0  0  0  0  0  0  0
    5.4641    2.7500    0.0000 C   0  0  0  0  0  0  0  0  0  0  0  0
    6.3301    1.2500    0.0000 C   0  0  0  0  0  0  0  0  0  0  0  0
    3.7320   -4.2500    0.0000 C   0  0  0  0  0  0  0  0  0  0  0  0
    5.4641   -4.2500    0.0000 C   0  0  0  0  0  0  0  0  0  0  0  0
    4.5981   -4.7500    0.0000 C   0  0  0  0  0  0  0  0  0  0  0  0
    4.5981    3.2500    0.0000 C   0  0  0  0  0  0  0  0  0  0  0  0
    7.1962    1.7500    0.0000 C   0  0  0  0  0  0  0  0  0  0  0  0
    6.3301    3.2500    0.0000 C   0  0  0  0  0  0  0  0  0  0  0  0
    6.3301    0.2500    0.0000 C   0  0  0  0  0  0  0  0  0  0  0  0
    4.5981    4.2500    0.0000 C   0  0  0  0  0  0  0  0  0  0  0  0
    8.0622    1.2500    0.0000 C   0  0  0  0  0  0  0  0  0  0  0  0
    6.3301    4.2500    0.0000 C   0  0  0  0  0  0  0  0  0  0  0  0
    7.1962   -0.2500    0.0000 C   0  0  0  0  0  0  0  0  0  0  0  0
    5.4641    4.7500    0.0000 C   0  0  0  0  0  0  0  0  0  0  0  0
    8.0622    0.2500    0.0000 C   0  0  0  0  0  0  0  0  0  0  0  0
    3.7320   -1.8700    0.0000 H   0  0  0  0  0  0  0  0  0  0  0  0
    3.5200    0.3326    0.0000 H   0  0  0  0  0  0  0  0  0  0  0  0
    3.1215   -0.3577    0.0000 H   0  0  0  0  0  0  0  0  0  0  0  0
    5.1350    0.5600    0.0000 H   0  0  0  0  0  0  0  0  0  0  0  0
    2.8660   -1.1300    0.0000 H   0  0  0  0  0  0  0  0  0  0  0  0
    6.0747   -0.3577    0.0000 H   0  0  0  0  0  0  0  0  0  0  0  0
    5.6762    0.3326    0.0000 H   0  0  0  0  0  0  0  0  0  0  0  0
    5.6762   -1.8326    0.0000 H   0  0  0  0  0  0  0  0  0  0  0  0
    6.0747   -1.1423    0.0000 H   0  0  0  0  0  0  0  0  0  0  0  0
    2.3100   -0.7131    0.0000 H   0  0  0  0  0  0  0  0  0  0  0  0
    1.4631   -0.9400    0.0000 H   0  0  0  0  0  0  0  0  0  0  0  0
    1.6900   -1.7869    0.0000 H   0  0  0  0  0  0  0  0  0  0  0  0
    2.2460   -2.7500    0.0000 H   0  0  0  0  0  0  0  0  0  0  0  0
    2.8660   -3.3700    0.0000 H   0  0  0  0  0  0  0  0  0  0  0  0
    3.4860   -2.7500    0.0000 H   0  0  0  0  0  0  0  0  0  0  0  0
    5.4641    1.1300    0.0000 H   0  0  0  0  0  0  0  0  0  0  0  0
    3.1951   -2.9400    0.0000 H   0  0  0  0  0  0  0  0  0  0  0  0
    6.0010   -2.9400    0.0000 H   0  0  0  0  0  0  0  0  0  0  0  0
    3.1951   -4.5600    0.0000 H   0  0  0  0  0  0  0  0  0  0  0  0
    6.0010   -4.5600    0.0000 H   0  0  0  0  0  0  0  0  0  0  0  0
    4.5981   -5.3700    0.0000 H   0  0  0  0  0  0  0  0  0  0  0  0
    4.0611    2.9400    0.0000 H   0  0  0  0  0  0  0  0  0  0  0  0
    7.1962    2.3700    0.0000 H   0  0  0  0  0  0  0  0  0  0  0  0
    6.8671    2.9400    0.0000 H   0  0  0  0  0  0  0  0  0  0  0  0
    5.7932   -0.0600    0.0000 H   0  0  0  0  0  0  0  0  0  0  0  0
    4.0611    4.5600    0.0000 H   0  0  0  0  0  0  0  0  0  0  0  0
    8.5991    1.5600    0.0000 H   0  0  0  0  0  0  0  0  0  0  0  0
    6.8671    4.5600    0.0000 H   0  0  0  0  0  0  0  0  0  0  0  0
    7.1962   -0.8700    0.0000 H   0  0  0  0  0  0  0  0  0  0  0  0
    5.4641    5.3700    0.0000 H   0  0  0  0  0  0  0  0  0  0  0  0
    8.5991   -0.0600    0.0000 H   0  0  0  0  0  0  0  0  0  0  0  0
  5  1  1  1  0  0  0
  1 12  1  0  0  0  0
  2  3  1  0  0  0  0
  2  8  1  0  0  0  0
  2  9  1  0  0  0  0
  3  4  1  0  0  0  0
  3  6  1  6  0  0  0
  3 30  1  0  0  0  0
  4  5  1  0  0  0  0
  4 31  1  0  0  0  0
  4 32  1  0  0  0  0
  5  7  1  0  0  0  0
  5 33  1  0  0  0  0
  6 10  1  0  0  0  0
  6 11  1  0  0  0  0
  6 34  1  0  0  0  0
  7  8  1  0  0  0  0
  7 35  1  0  0  0  0
  7 36  1  0  0  0  0
  8 37  1  0  0  0  0
  8 38  1  0  0  0  0
  9 13  2  0  0  0  0
  9 14  1  0  0  0  0
 10 39  1  0  0  0  0
 10 40  1  0  0  0  0
 10 41  1  0  0  0  0
 11 42  1  0  0  0  0
 11 43  1  0  0  0  0
 11 44  1  0  0  0  0
 12 15  1  0  0  0  0
 12 16  1  0  0  0  0
 12 45  1  0  0  0  0
 13 17  1  0  0  0  0
 13 46  1  0  0  0  0
 14 18  2  0  0  0  0
 14 47  1  0  0  0  0
 15 20  2  0  0  0  0
 15 22  1  0  0  0  0
 16 21  2  0  0  0  0
 16 23  1  0  0  0  0
 17 19  2  0  0  0  0
 17 48  1  0  0  0  0
 18 19  1  0  0  0  0
 18 49  1  0  0  0  0
 19 50  1  0  0  0  0
 20 24  1  0  0  0  0
 20 51  1  0  0  0  0
 21 25  1  0  0  0  0
 21 52  1  0  0  0  0
 22 26  2  0  0  0  0
 22 53  1  0  0  0  0
 23 27  2  0  0  0  0
 23 54  1  0  0  0  0
 24 28  2  0  0  0  0
 24 55  1  0  0  0  0
 25 29  2  0  0  0  0
 25 56  1  0  0  0  0
 26 28  1  0  0  0  0
 26 57  1  0  0  0  0
 27 29  1  0  0  0  0
 27 58  1  0  0  0  0
 28 59  1  0  0  0  0
 29 60  1  0  0  0  0
M  END
> <PUBCHEM_COMPOUND_CID>
504086
> <PUBCHEM_COMPOUND_CANONICALIZED>
1
> <PUBCHEM_CACTVS_COMPLEXITY>
441
> <PUBCHEM_CACTVS_HBOND_ACCEPTOR>
2
> <PUBCHEM_CACTVS_HBOND_DONOR>
0
> <PUBCHEM_CACTVS_ROTATABLE_BOND>
6
> <PUBCHEM_CACTVS_SUBSKEYS>
AAADceB6IAAAAAAAAAAAAAAAAAAAAAAAAAA8YMEAAAAAAAABUAAAHgAAAAAADTzhmAYywIMABACAAiRCQACCAAAhAgAIiAAIbIgIJiLAsZmGMAhmwAHI6AeQwOAOAAAAAAAAAAAAAAAAAAAAAAAAAAAAAA==
> <PUBCHEM_IUPAC_OPENEYE_NAME>
(2S,4S)-4-benzhydryloxy-2-isopropyl-1-phenyl-piperidine
> <PUBCHEM_IUPAC_CAS_NAME>
(2S,4S)-4-(diphenylmethyl)oxy-1-phenyl-2-propan-2-ylpiperidine
> <PUBCHEM_IUPAC_NAME_MARKUP>
(2<I>S</I>,4<I>S</I>)-4-benzhydryloxy-1-phenyl-2-propan-2-ylpiperidine
> <PUBCHEM_IUPAC_NAME>
(2S,4S)-4-benzhydryloxy-1-phenyl-2-propan-2-ylpiperidine
> <PUBCHEM_IUPAC_SYSTEMATIC_NAME>
(2S,4S)-4-(diphenylmethyl)oxy-1-phenyl-2-propan-2-yl-piperidine
> <PUBCHEM_IUPAC_TRADITIONAL_NAME>
(2S,4S)-4-benzhydryloxy-2-isopropyl-1-phenyl-piperidine
> <PUBCHEM_IUPAC_INCHI>
InChI=1S/C27H31NO/c1-21(2)26-20-25(18-19-28(26)24-16-10-5-11-17-24)29-27(22-12-6-3-7-13-22)23-14-8-4-9-15-23/h3-17,21,25-27H,18-20H2,1-2H3/t25-,26-/m0/s1
> <PUBCHEM_IUPAC_INCHIKEY>
JJYFATIJRSJXEC-UIOOFZCWSA-N
> <PUBCHEM_XLOGP3_AA>
7
> <PUBCHEM_EXACT_MASS>
385.240564612
> <PUBCHEM_MOLECULAR_FORMULA>
C27H31NO
> <PUBCHEM_MOLECULAR_WEIGHT>
385.5
> <PUBCHEM_OPENEYE_CAN_SMILES>
CC(C)C1CC(CCN1C2=CC=CC=C2)OC(C3=CC=CC=C3)C4=CC=CC=C4
> <PUBCHEM_OPENEYE_ISO_SMILES>
CC(C)[C@@H]1C[C@H](CCN1C2=CC=CC=C2)OC(C3=CC=CC=C3)C4=CC=CC=C4
> <PUBCHEM_CACTVS_TPSA>
12.5
> <PUBCHEM_MONOISOTOPIC_WEIGHT>
385.240564612
> <PUBCHEM_TOTAL_CHARGE>
0
> <PUBCHEM_HEAVY_ATOM_COUNT>
29
> <PUBCHEM_ATOM_DEF_STEREO_COUNT>
2
> <PUBCHEM_ATOM_UDEF_STEREO_COUNT>
0
> <PUBCHEM_BOND_DEF_STEREO_COUNT>
0
> <PUBCHEM_BOND_UDEF_STEREO_COUNT>
0
> <PUBCHEM_ISOTOPIC_ATOM_COUNT>
0
> <PUBCHEM_COMPONENT_COUNT>
1
> <PUBCHEM_CACTVS_TAUTO_COUNT>
-1
> <PUBCHEM_COORDINATE_TYPE>
1
5
255
> <PUBCHEM_BONDANNOTATIONS>
5  1  5
13  17  8
14  18  8
15  20  8
15  22  8
16  21  8
16  23  8
17  19  8
18  19  8
20  24  8
21  25  8
22  26  8
23  27  8
24  28  8
25  29  8
26  28  8
27  29  8
3  6  6
9  13  8
9  14  8
$$$$
