504021
  -OEChem-10302200282D
 79 87  0     1  0  0  0  0  0999 V2000
    2.3572    4.1129    0.0000 S   0  0  0  0  0  0  0  0  0  0  0  0
   10.4602    2.3056    0.0000 O   0  0  0  0  0  0  0  0  0  0  0  0
   13.3524    0.2952    0.0000 O   0  0  0  0  0  0  0  0  0  0  0  0
    6.5643   -0.5604    0.0000 O   0  0  0  0  0  0  0  0  0  0  0  0
    5.0375   -0.3717    0.0000 O   0  0  0  0  0  0  0  0  0  0  0  0
    3.1365    0.2496    0.0000 O   0  0  0  0  0  0  0  0  0  0  0  0
   15.7221   -5.1398    0.0000 O   0  0  0  0  0  0  0  0  0  0  0  0
   17.2107   -3.8042    0.0000 O   0  0  0  0  0  0  0  0  0  0  0  0
    3.6464    5.2696    0.0000 O   0  0  0  0  0  0  0  0  0  0  0  0
   12.0632   -0.8615    0.0000 N   0  0  0  0  0  0  0  0  0  0  0  0
    6.5643    1.1716    0.0000 N   0  0  0  0  0  0  0  0  0  0  0  0
   14.6983   -1.2965    0.0000 N   0  0  0  0  0  0  0  0  0  0  0  0
    2.8158    2.3967    0.0000 N   0  0  0  0  0  0  0  0  0  0  0  0
   10.4602   -0.6944    0.0000 C   0  0  3  0  0  0  0  0  0  0  0  0
   10.6694   -1.6662    0.0000 C   0  0  3  0  0  0  0  0  0  0  0  0
    9.7227   -1.3616    0.0000 C   0  0  0  0  0  0  0  0  0  0  0  0
   11.6581   -1.7693    0.0000 C   0  0  0  0  0  0  0  0  0  0  0  0
   11.3262   -0.1944    0.0000 C   0  0  0  0  0  0  0  0  0  0  0  0
    9.5942   -0.1944    0.0000 C   0  0  0  0  0  0  0  0  0  0  0  0
    9.5942    0.8056    0.0000 C   0  0  0  0  0  0  0  0  0  0  0  0
   11.3262    0.8056    0.0000 C   0  0  0  0  0  0  0  0  0  0  0  0
    8.6479   -0.4992    0.0000 C   0  0  0  0  0  0  0  0  0  0  0  0
   10.4602    1.3056    0.0000 C   0  0  0  0  0  0  0  0  0  0  0  0
    8.6479    1.1103    0.0000 C   0  0  0  0  0  0  0  0  0  0  0  0
   13.0417   -0.6553    0.0000 C   0  0  0  0  0  0  0  0  0  0  0  0
    8.0643    0.3056    0.0000 C   0  0  0  0  0  0  0  0  0  0  0  0
   13.7096   -1.3996    0.0000 C   0  0  0  0  0  0  0  0  0  0  0  0
    7.0643    0.3056    0.0000 C   0  0  0  0  0  0  0  0  0  0  0  0
   13.5004   -2.3714    0.0000 C   0  0  0  0  0  0  0  0  0  0  0  0
    6.9694    2.0794    0.0000 C   0  0  0  0  0  0  0  0  0  0  0  0
   14.3591   -2.8722    0.0000 C   0  0  0  0  0  0  0  0  0  0  0  0
   15.1034   -2.2043    0.0000 C   0  0  0  0  0  0  0  0  0  0  0  0
    5.5756    1.2747    0.0000 C   0  0  0  0  0  0  0  0  0  0  0  0
    6.2324    2.7465    0.0000 C   0  0  0  0  0  0  0  0  0  0  0  0
    5.3694    2.2532    0.0000 C   0  0  0  0  0  0  0  0  0  0  0  0
    4.8313    0.6068    0.0000 C   0  0  0  0  0  0  0  0  0  0  0  0
   14.5653   -3.8507    0.0000 C   0  0  0  0  0  0  0  0  0  0  0  0
   16.0539   -2.5150    0.0000 C   0  0  0  0  0  0  0  0  0  0  0  0
    4.4189    2.5638    0.0000 C   0  0  0  0  0  0  0  0  0  0  0  0
    3.6746    1.8960    0.0000 C   0  0  0  0  0  0  0  0  0  0  0  0
    3.8808    0.9175    0.0000 C   0  0  0  0  0  0  0  0  0  0  0  0
   15.5158   -4.1613    0.0000 C   0  0  0  0  0  0  0  0  0  0  0  0
   16.2601   -3.4935    0.0000 C   0  0  0  0  0  0  0  0  0  0  0  0
    4.0138    3.4716    0.0000 C   0  0  0  0  0  0  0  0  0  0  0  0
    3.0250    3.3686    0.0000 C   0  0  0  0  0  0  0  0  0  0  0  0
    2.1860    0.5603    0.0000 C   0  0  0  0  0  0  0  0  0  0  0  0
   14.9778   -5.8077    0.0000 C   0  0  0  0  0  0  0  0  0  0  0  0
    2.6678    5.0634    0.0000 C   0  0  0  0  0  0  0  0  0  0  0  0
    2.0000    5.8077    0.0000 C   0  0  0  0  0  0  0  0  0  0  0  0
   10.5416   -2.2729    0.0000 H   0  0  0  0  0  0  0  0  0  0  0  0
    9.2331   -0.9811    0.0000 H   0  0  0  0  0  0  0  0  0  0  0  0
    9.4331   -1.9098    0.0000 H   0  0  0  0  0  0  0  0  0  0  0  0
   11.5294   -2.3758    0.0000 H   0  0  0  0  0  0  0  0  0  0  0  0
   12.2477   -1.9610    0.0000 H   0  0  0  0  0  0  0  0  0  0  0  0
   11.8631    1.1156    0.0000 H   0  0  0  0  0  0  0  0  0  0  0  0
    8.4553   -1.0885    0.0000 H   0  0  0  0  0  0  0  0  0  0  0  0
    8.8990    1.6772    0.0000 H   0  0  0  0  0  0  0  0  0  0  0  0
    8.1106    1.4195    0.0000 H   0  0  0  0  0  0  0  0  0  0  0  0
   12.9331   -2.6216    0.0000 H   0  0  0  0  0  0  0  0  0  0  0  0
   15.0083   -0.7596    0.0000 H   0  0  0  0  0  0  0  0  0  0  0  0
    7.5059    1.7686    0.0000 H   0  0  0  0  0  0  0  0  0  0  0  0
    7.3349    2.5802    0.0000 H   0  0  0  0  0  0  0  0  0  0  0  0
    6.6945    3.1599    0.0000 H   0  0  0  0  0  0  0  0  0  0  0  0
    5.8699    3.2494    0.0000 H   0  0  0  0  0  0  0  0  0  0  0  0
   14.1039   -4.2647    0.0000 H   0  0  0  0  0  0  0  0  0  0  0  0
   16.5154   -2.1009    0.0000 H   0  0  0  0  0  0  0  0  0  0  0  0
    4.3238    4.0085    0.0000 H   0  0  0  0  0  0  0  0  0  0  0  0
    2.2486    2.1465    0.0000 H   0  0  0  0  0  0  0  0  0  0  0  0
    4.5761   -0.7858    0.0000 H   0  0  0  0  0  0  0  0  0  0  0  0
   17.6721   -3.3901    0.0000 H   0  0  0  0  0  0  0  0  0  0  0  0
    2.3786    1.1496    0.0000 H   0  0  0  0  0  0  0  0  0  0  0  0
    1.5966    0.7529    0.0000 H   0  0  0  0  0  0  0  0  0  0  0  0
    1.9934   -0.0290    0.0000 H   0  0  0  0  0  0  0  0  0  0  0  0
   14.5637   -5.3462    0.0000 H   0  0  0  0  0  0  0  0  0  0  0  0
   14.5163   -6.2218    0.0000 H   0  0  0  0  0  0  0  0  0  0  0  0
   15.3918   -6.2692    0.0000 H   0  0  0  0  0  0  0  0  0  0  0  0
    2.4615    6.2218    0.0000 H   0  0  0  0  0  0  0  0  0  0  0  0
    1.5859    6.2692    0.0000 H   0  0  0  0  0  0  0  0  0  0  0  0
    1.5385    5.3936    0.0000 H   0  0  0  0  0  0  0  0  0  0  0  0
  1 45  1  0  0  0  0
  1 48  1  0  0  0  0
  2 23  2  0  0  0  0
  3 25  2  0  0  0  0
  4 28  2  0  0  0  0
  5 36  1  0  0  0  0
  5 69  1  0  0  0  0
  6 41  1  0  0  0  0
  6 46  1  0  0  0  0
  7 42  1  0  0  0  0
  7 47  1  0  0  0  0
  8 43  1  0  0  0  0
  8 70  1  0  0  0  0
  9 48  2  0  0  0  0
 10 17  1  0  0  0  0
 10 18  1  0  0  0  0
 10 25  1  0  0  0  0
 11 28  1  0  0  0  0
 11 30  1  0  0  0  0
 11 33  1  0  0  0  0
 12 27  1  0  0  0  0
 12 32  1  0  0  0  0
 12 60  1  0  0  0  0
 13 40  1  0  0  0  0
 13 45  1  0  0  0  0
 13 68  1  0  0  0  0
 14 15  1  0  0  0  0
 14 16  1  0  0  0  0
 14 18  1  0  0  0  0
 14 19  1  0  0  0  0
 15 16  1  0  0  0  0
 15 17  1  0  0  0  0
 15 50  1  0  0  0  0
 16 51  1  0  0  0  0
 16 52  1  0  0  0  0
 17 53  1  0  0  0  0
 17 54  1  0  0  0  0
 18 21  2  0  0  0  0
 19 20  2  0  0  0  0
 19 22  1  0  0  0  0
 20 23  1  0  0  0  0
 20 24  1  0  0  0  0
 21 23  1  0  0  0  0
 21 55  1  0  0  0  0
 22 26  2  0  0  0  0
 22 56  1  0  0  0  0
 24 26  1  0  0  0  0
 24 57  1  0  0  0  0
 24 58  1  0  0  0  0
 25 27  1  0  0  0  0
 26 28  1  0  0  0  0
 27 29  2  0  0  0  0
 29 31  1  0  0  0  0
 29 59  1  0  0  0  0
 30 34  1  0  0  0  0
 30 61  1  0  0  0  0
 30 62  1  0  0  0  0
 31 32  1  0  0  0  0
 31 37  2  0  0  0  0
 32 38  2  0  0  0  0
 33 35  1  0  0  0  0
 33 36  2  0  0  0  0
 34 35  1  0  0  0  0
 34 63  1  0  0  0  0
 34 64  1  0  0  0  0
 35 39  2  0  0  0  0
 36 41  1  0  0  0  0
 37 42  1  0  0  0  0
 37 65  1  0  0  0  0
 38 43  1  0  0  0  0
 38 66  1  0  0  0  0
 39 40  1  0  0  0  0
 39 44  1  0  0  0  0
 40 41  2  0  0  0  0
 42 43  2  0  0  0  0
 44 45  2  0  0  0  0
 44 67  1  0  0  0  0
 46 71  1  0  0  0  0
 46 72  1  0  0  0  0
 46 73  1  0  0  0  0
 47 74  1  0  0  0  0
 47 75  1  0  0  0  0
 47 76  1  0  0  0  0
 48 49  1  0  0  0  0
 49 77  1  0  0  0  0
 49 78  1  0  0  0  0
 49 79  1  0  0  0  0
M  END
> <PUBCHEM_COMPOUND_CID>
504021
> <PUBCHEM_COMPOUND_CANONICALIZED>
1
> <PUBCHEM_CACTVS_COMPLEXITY>
1610
> <PUBCHEM_CACTVS_HBOND_ACCEPTOR>
9
> <PUBCHEM_CACTVS_HBOND_DONOR>
4
> <PUBCHEM_CACTVS_ROTATABLE_BOND>
6
> <PUBCHEM_CACTVS_SUBSKEYS>
AAADceB/vABAAAAAAAAAAAAAGAAAAWLFixA8YIEAAAAAAFiB/gAAHgQQCAAADwzB3gYyx/PJlgioA6VyVASC2iBnajAAmTm/7NgPZvL2tbuVcStm1hn7+ce427O/oECBQgASUABAgQKEACSgAAAAAAAAAA==
> <PUBCHEM_IUPAC_OPENEYE_NAME>
S-[5-hydroxy-6-[10-(6-hydroxy-5-methoxy-1H-indole-2-carbonyl)-7-oxo-10-azatetracyclo[7.4.0.01,12.02,6]trideca-2(6),3,8-triene-4-carbonyl]-4-methoxy-7,8-dihydro-3H-pyrrolo[3,2-e]indol-2-yl] ethanethioate
> <PUBCHEM_IUPAC_CAS_NAME>
ethanethioic acid S-[5-hydroxy-6-[[10-[(6-hydroxy-5-methoxy-1H-indol-2-yl)-oxomethyl]-7-oxo-10-azatetracyclo[7.4.0.01,12.02,6]trideca-2(6),3,8-trien-4-yl]-oxomethyl]-4-methoxy-7,8-dihydro-3H-pyrrolo[3,2-e]indol-2-yl] ester
> <PUBCHEM_IUPAC_NAME_MARKUP>
<I>S</I>-[5-hydroxy-6-[10-(6-hydroxy-5-methoxy-1<I>H</I>-indole-2-carbonyl)-7-oxo-10-azatetracyclo[7.4.0.0<SUP>1,12</SUP>.0<SUP>2,6</SUP>]trideca-2(6),3,8-triene-4-carbonyl]-4-methoxy-7,8-dihydro-3<I>H</I>-pyrrolo[3,2-e]indol-2-yl] ethanethioate
> <PUBCHEM_IUPAC_NAME>
S-[5-hydroxy-6-[10-(6-hydroxy-5-methoxy-1H-indole-2-carbonyl)-7-oxo-10-azatetracyclo[7.4.0.01,12.02,6]trideca-2(6),3,8-triene-4-carbonyl]-4-methoxy-7,8-dihydro-3H-pyrrolo[3,2-e]indol-2-yl] ethanethioate
> <PUBCHEM_IUPAC_SYSTEMATIC_NAME>
S-[4-methoxy-6-[[10-[(5-methoxy-6-oxidanyl-1H-indol-2-yl)carbonyl]-7-oxidanylidene-10-azatetracyclo[7.4.0.01,12.02,6]trideca-2(6),3,8-trien-4-yl]carbonyl]-5-oxidanyl-7,8-dihydro-3H-pyrrolo[3,2-e]indol-2-yl] ethanethioate
> <PUBCHEM_IUPAC_TRADITIONAL_NAME>
ethanethioic acid S-[5-hydroxy-6-[10-(6-hydroxy-5-methoxy-1H-indole-2-carbonyl)-7-keto-10-azatetracyclo[7.4.0.01,12.02,6]trideca-2(6),3,8-triene-4-carbonyl]-4-methoxy-7,8-dihydro-3H-pyrrol[3,2-e]indol-2-yl] ester
> <PUBCHEM_IUPAC_INCHI>
InChI=1S/C36H30N4O8S/c1-15(41)49-29-10-20-19-4-5-39(31(19)32(44)33(48-3)30(20)38-29)34(45)17-6-21-22(7-17)36-13-18(36)14-40(28(36)12-25(21)42)35(46)24-8-16-9-27(47-2)26(43)11-23(16)37-24/h7-12,18,37-38,43-44H,4-6,13-14H2,1-3H3
> <PUBCHEM_IUPAC_INCHIKEY>
QSZHAMMVDIPHLJ-UHFFFAOYSA-N
> <PUBCHEM_XLOGP3_AA>
3.4
> <PUBCHEM_EXACT_MASS>
678.17843510
> <PUBCHEM_MOLECULAR_FORMULA>
C36H30N4O8S
> <PUBCHEM_MOLECULAR_WEIGHT>
678.7
> <PUBCHEM_OPENEYE_CAN_SMILES>
CC(=O)SC1=CC2=C3CCN(C3=C(C(=C2N1)OC)O)C(=O)C4=CC5=C(C4)C(=O)C=C6C57CC7CN6C(=O)C8=CC9=CC(=C(C=C9N8)O)OC
> <PUBCHEM_OPENEYE_ISO_SMILES>
CC(=O)SC1=CC2=C3CCN(C3=C(C(=C2N1)OC)O)C(=O)C4=CC5=C(C4)C(=O)C=C6C57CC7CN6C(=O)C8=CC9=CC(=C(C=C9N8)O)OC
> <PUBCHEM_CACTVS_TPSA>
191
> <PUBCHEM_MONOISOTOPIC_WEIGHT>
678.17843510
> <PUBCHEM_TOTAL_CHARGE>
0
> <PUBCHEM_HEAVY_ATOM_COUNT>
49
> <PUBCHEM_ATOM_DEF_STEREO_COUNT>
0
> <PUBCHEM_ATOM_UDEF_STEREO_COUNT>
2
> <PUBCHEM_BOND_DEF_STEREO_COUNT>
0
> <PUBCHEM_BOND_UDEF_STEREO_COUNT>
0
> <PUBCHEM_ISOTOPIC_ATOM_COUNT>
0
> <PUBCHEM_COMPONENT_COUNT>
1
> <PUBCHEM_CACTVS_TAUTO_COUNT>
-1
> <PUBCHEM_COORDINATE_TYPE>
1
5
255
> <PUBCHEM_BONDANNOTATIONS>
12  27  8
12  32  8
13  40  8
13  45  8
14  16  3
15  16  3
27  29  8
29  31  8
31  32  8
31  37  8
32  38  8
33  35  8
33  36  8
35  39  8
36  41  8
37  42  8
38  43  8
39  40  8
39  44  8
40  41  8
42  43  8
44  45  8
$$$$
