504093
  -OEChem-10302200282D
 94100  0     1  0  0  0  0  0999 V2000
    2.0000   -5.7238    0.0000 F   0  0  0  0  0  0  0  0  0  0  0  0
    2.6878   -6.9595    0.0000 F   0  0  0  0  0  0  0  0  0  0  0  0
    3.9235   -6.2717    0.0000 F   0  0  0  0  0  0  0  0  0  0  0  0
    9.6397    3.1904    0.0000 O   0  0  0  0  0  0  0  0  0  0  0  0
    8.3054    4.0904    0.0000 O   0  0  0  0  0  0  0  0  0  0  0  0
    6.9686    0.6695    0.0000 O   0  0  0  0  0  0  0  0  0  0  0  0
    6.2714   -0.7019    0.0000 O   0  0  0  0  0  0  0  0  0  0  0  0
   10.7614   -3.0266    0.0000 O   0  0  0  0  0  0  0  0  0  0  0  0
    8.5254    1.4288    0.0000 N   0  0  0  0  0  0  0  0  0  0  0  0
    7.9371   -1.1764    0.0000 N   0  0  0  0  0  0  0  0  0  0  0  0
   10.5144   -1.3123    0.0000 N   0  0  0  0  0  0  0  0  0  0  0  0
    8.3591   -2.8563    0.0000 N   0  0  0  0  0  0  0  0  0  0  0  0
    5.7234   -2.6253    0.0000 N   0  0  0  0  0  0  0  0  0  0  0  0
   11.1372    5.0109    0.0000 C   0  0  3  0  0  0  0  0  0  0  0  0
   12.5362    5.0198    0.0000 C   0  0  0  0  0  0  0  0  0  0  0  0
   11.3961    5.9769    0.0000 C   0  0  3  0  0  0  0  0  0  0  0  0
   10.6594    6.9595    0.0000 C   0  0  0  0  0  0  0  0  0  0  0  0
    9.9162    4.1453    0.0000 C   0  0  3  0  0  0  0  0  0  0  0  0
    9.0872    4.7045    0.0000 C   0  0  2  0  0  0  0  0  0  0  0  0
    9.3628    5.6657    0.0000 C   0  0  0  0  0  0  0  0  0  0  0  0
   13.4022    5.5198    0.0000 C   0  0  0  0  0  0  0  0  0  0  0  0
   13.0362    4.1537    0.0000 C   0  0  0  0  0  0  0  0  0  0  0  0
    8.2581    5.2637    0.0000 C   0  0  0  0  0  0  0  0  0  0  0  0
    8.0870    2.3276    0.0000 C   0  0  1  0  0  0  0  0  0  0  0  0
    7.0895    2.3973    0.0000 C   0  0  0  0  0  0  0  0  0  0  0  0
    6.5303    1.5683    0.0000 C   0  0  0  0  0  0  0  0  0  0  0  0
    7.9662    0.5997    0.0000 C   0  0  0  0  0  0  0  0  0  0  0  0
    8.4046   -0.2991    0.0000 C   0  0  3  0  0  0  0  0  0  0  0  0
    9.3837   -0.4708    0.0000 C   0  0  0  0  0  0  0  0  0  0  0  0
    9.5246   -1.4549    0.0000 C   0  0  2  0  0  0  0  0  0  0  0  0
    8.6330   -1.8945    0.0000 C   0  0  0  0  0  0  0  0  0  0  0  0
    9.9661   -2.3522    0.0000 C   0  0  0  0  0  0  0  0  0  0  0  0
    6.9673   -1.4200    0.0000 C   0  0  0  0  0  0  0  0  0  0  0  0
    6.6933   -2.3817    0.0000 C   0  0  0  0  0  0  0  0  0  0  0  0
    7.3892   -3.0999    0.0000 C   0  0  0  0  0  0  0  0  0  0  0  0
   11.1328   -2.0982    0.0000 C   0  0  0  0  0  0  0  0  0  0  0  0
   12.1226   -1.9556    0.0000 C   0  0  0  0  0  0  0  0  0  0  0  0
    5.4494   -3.5871    0.0000 C   0  0  0  0  0  0  0  0  0  0  0  0
   12.7409   -2.7414    0.0000 C   0  0  0  0  0  0  0  0  0  0  0  0
   12.4940   -1.0271    0.0000 C   0  0  0  0  0  0  0  0  0  0  0  0
    4.4796   -3.8307    0.0000 C   0  0  0  0  0  0  0  0  0  0  0  0
   13.7307   -2.5988    0.0000 C   0  0  0  0  0  0  0  0  0  0  0  0
   13.4837   -0.8845    0.0000 C   0  0  0  0  0  0  0  0  0  0  0  0
   14.1021   -1.6704    0.0000 C   0  0  0  0  0  0  0  0  0  0  0  0
    4.2056   -4.7924    0.0000 C   0  0  0  0  0  0  0  0  0  0  0  0
    3.7837   -3.1125    0.0000 C   0  0  0  0  0  0  0  0  0  0  0  0
    3.2357   -5.0360    0.0000 C   0  0  0  0  0  0  0  0  0  0  0  0
    2.8138   -3.3561    0.0000 C   0  0  0  0  0  0  0  0  0  0  0  0
    2.5398   -4.3179    0.0000 C   0  0  0  0  0  0  0  0  0  0  0  0
    2.9617   -5.9977    0.0000 C   0  0  0  0  0  0  0  0  0  0  0  0
    8.6462    3.1566    0.0000 B   0  0  0  0  0  0  0  0  0  0  0  0
   11.3273    4.4208    0.0000 H   0  0  0  0  0  0  0  0  0  0  0  0
   11.8464    6.4030    0.0000 H   0  0  0  0  0  0  0  0  0  0  0  0
   10.9772    7.4918    0.0000 H   0  0  0  0  0  0  0  0  0  0  0  0
   10.0463    7.0514    0.0000 H   0  0  0  0  0  0  0  0  0  0  0  0
   10.4216    3.7861    0.0000 H   0  0  0  0  0  0  0  0  0  0  0  0
    9.3578    6.2857    0.0000 H   0  0  0  0  0  0  0  0  0  0  0  0
    8.7485    5.7495    0.0000 H   0  0  0  0  0  0  0  0  0  0  0  0
   13.7122    4.9828    0.0000 H   0  0  0  0  0  0  0  0  0  0  0  0
   13.9391    5.8298    0.0000 H   0  0  0  0  0  0  0  0  0  0  0  0
   13.0922    6.0567    0.0000 H   0  0  0  0  0  0  0  0  0  0  0  0
   12.4992    3.8437    0.0000 H   0  0  0  0  0  0  0  0  0  0  0  0
   13.3462    3.6168    0.0000 H   0  0  0  0  0  0  0  0  0  0  0  0
   13.5731    4.4637    0.0000 H   0  0  0  0  0  0  0  0  0  0  0  0
    8.6048    5.7777    0.0000 H   0  0  0  0  0  0  0  0  0  0  0  0
    7.7441    5.6104    0.0000 H   0  0  0  0  0  0  0  0  0  0  0  0
    7.9114    4.7497    0.0000 H   0  0  0  0  0  0  0  0  0  0  0  0
    7.7403    1.8136    0.0000 H   0  0  0  0  0  0  0  0  0  0  0  0
    7.2395    2.9989    0.0000 H   0  0  0  0  0  0  0  0  0  0  0  0
    6.5231    2.6495    0.0000 H   0  0  0  0  0  0  0  0  0  0  0  0
    9.1439    1.3855    0.0000 H   0  0  0  0  0  0  0  0  0  0  0  0
    6.0163    1.9150    0.0000 H   0  0  0  0  0  0  0  0  0  0  0  0
    6.1836    1.0543    0.0000 H   0  0  0  0  0  0  0  0  0  0  0  0
    7.0443    1.2216    0.0000 H   0  0  0  0  0  0  0  0  0  0  0  0
    7.7847   -0.2880    0.0000 H   0  0  0  0  0  0  0  0  0  0  0  0
   10.0033   -0.4480    0.0000 H   0  0  0  0  0  0  0  0  0  0  0  0
    9.4261    0.1477    0.0000 H   0  0  0  0  0  0  0  0  0  0  0  0
    9.4098   -2.6259    0.0000 H   0  0  0  0  0  0  0  0  0  0  0  0
   10.2398   -2.9085    0.0000 H   0  0  0  0  0  0  0  0  0  0  0  0
   10.5224   -2.0784    0.0000 H   0  0  0  0  0  0  0  0  0  0  0  0
   10.7447   -0.7366    0.0000 H   0  0  0  0  0  0  0  0  0  0  0  0
    7.2193   -3.6961    0.0000 H   0  0  0  0  0  0  0  0  0  0  0  0
    5.2920   -2.1801    0.0000 H   0  0  0  0  0  0  0  0  0  0  0  0
    5.4938   -4.2055    0.0000 H   0  0  0  0  0  0  0  0  0  0  0  0
    6.0662   -3.6508    0.0000 H   0  0  0  0  0  0  0  0  0  0  0  0
   12.5107   -3.3171    0.0000 H   0  0  0  0  0  0  0  0  0  0  0  0
   12.1106   -0.5398    0.0000 H   0  0  0  0  0  0  0  0  0  0  0  0
   14.1141   -3.0861    0.0000 H   0  0  0  0  0  0  0  0  0  0  0  0
   13.7140   -0.3088    0.0000 H   0  0  0  0  0  0  0  0  0  0  0  0
   14.7158   -1.5820    0.0000 H   0  0  0  0  0  0  0  0  0  0  0  0
    4.6370   -5.2376    0.0000 H   0  0  0  0  0  0  0  0  0  0  0  0
    3.9535   -2.5162    0.0000 H   0  0  0  0  0  0  0  0  0  0  0  0
    2.3823   -2.9109    0.0000 H   0  0  0  0  0  0  0  0  0  0  0  0
    1.9385   -4.4689    0.0000 H   0  0  0  0  0  0  0  0  0  0  0  0
  1 50  1  0  0  0  0
  2 50  1  0  0  0  0
  3 50  1  0  0  0  0
  4 18  1  0  0  0  0
  4 51  1  0  0  0  0
  5 19  1  0  0  0  0
  5 51  1  0  0  0  0
  6 27  2  0  0  0  0
  7 33  2  0  0  0  0
  8 36  2  0  0  0  0
 24  9  1  1  0  0  0
  9 27  1  0  0  0  0
  9 71  1  0  0  0  0
 10 28  1  0  0  0  0
 10 31  1  0  0  0  0
 10 33  1  0  0  0  0
 30 11  1  1  0  0  0
 11 36  1  0  0  0  0
 11 81  1  0  0  0  0
 12 31  2  0  0  0  0
 12 35  1  0  0  0  0
 13 34  1  0  0  0  0
 13 38  1  0  0  0  0
 13 83  1  0  0  0  0
 14 15  1  0  0  0  0
 14 17  1  0  0  0  0
 14 18  1  0  0  0  0
 14 52  1  0  0  0  0
 15 16  1  0  0  0  0
 15 21  1  0  0  0  0
 15 22  1  0  0  0  0
 16 17  1  0  0  0  0
 16 20  1  0  0  0  0
 16 53  1  0  0  0  0
 17 54  1  0  0  0  0
 17 55  1  0  0  0  0
 18 19  1  0  0  0  0
 18 56  1  0  0  0  0
 19 20  1  0  0  0  0
 19 23  1  6  0  0  0
 20 57  1  0  0  0  0
 20 58  1  0  0  0  0
 21 59  1  0  0  0  0
 21 60  1  0  0  0  0
 21 61  1  0  0  0  0
 22 62  1  0  0  0  0
 22 63  1  0  0  0  0
 22 64  1  0  0  0  0
 23 65  1  0  0  0  0
 23 66  1  0  0  0  0
 23 67  1  0  0  0  0
 24 25  1  0  0  0  0
 24 51  1  0  0  0  0
 24 68  1  0  0  0  0
 25 26  1  0  0  0  0
 25 69  1  0  0  0  0
 25 70  1  0  0  0  0
 26 72  1  0  0  0  0
 26 73  1  0  0  0  0
 26 74  1  0  0  0  0
 27 28  1  0  0  0  0
 28 29  1  0  0  0  0
 28 75  1  0  0  0  0
 29 30  1  0  0  0  0
 29 76  1  0  0  0  0
 29 77  1  0  0  0  0
 30 31  1  0  0  0  0
 30 32  1  0  0  0  0
 32 78  1  0  0  0  0
 32 79  1  0  0  0  0
 32 80  1  0  0  0  0
 33 34  1  0  0  0  0
 34 35  2  0  0  0  0
 35 82  1  0  0  0  0
 36 37  1  0  0  0  0
 37 39  2  0  0  0  0
 37 40  1  0  0  0  0
 38 41  1  0  0  0  0
 38 84  1  0  0  0  0
 38 85  1  0  0  0  0
 39 42  1  0  0  0  0
 39 86  1  0  0  0  0
 40 43  2  0  0  0  0
 40 87  1  0  0  0  0
 41 45  2  0  0  0  0
 41 46  1  0  0  0  0
 42 44  2  0  0  0  0
 42 88  1  0  0  0  0
 43 44  1  0  0  0  0
 43 89  1  0  0  0  0
 44 90  1  0  0  0  0
 45 47  1  0  0  0  0
 45 91  1  0  0  0  0
 46 48  2  0  0  0  0
 46 92  1  0  0  0  0
 47 49  2  0  0  0  0
 47 50  1  0  0  0  0
 48 49  1  0  0  0  0
 48 93  1  0  0  0  0
 49 94  1  0  0  0  0
M  END
> <PUBCHEM_COMPOUND_CID>
504093
> <PUBCHEM_COMPOUND_CANONICALIZED>
1
> <PUBCHEM_CACTVS_COMPLEXITY>
1470
> <PUBCHEM_CACTVS_HBOND_ACCEPTOR>
10
> <PUBCHEM_CACTVS_HBOND_DONOR>
3
> <PUBCHEM_CACTVS_ROTATABLE_BOND>
9
> <PUBCHEM_CACTVS_SUBSKEYS>
AAADcfJ/uYAAAAAAAAAAAAAAAABgAWJAAAAwYMGCAAAAAEgBQAAoHwAQAAAAD/zhmBYzAIPAAACoAid2dACCAAEkAgAJiIGoBMgJYDKA3TGUIQhklgCIicecyfCPgAACAAAAAADAAAYAADCAAAAAAAAAAA==
> <PUBCHEM_IUPAC_OPENEYE_NAME>
(8R)-8-benzamido-8-methyl-4-oxo-3-[[3-(trifluoromethyl)phenyl]methylamino]-N-[(1R)-1-[(6S)-6,9,9-trimethyl-3,5-dioxa-4-boratricyclo[6.1.1.02,6]decan-4-yl]propyl]-6,7-dihydropyrrolo[1,2-a]pyrimidine-6-carboxamide
> <PUBCHEM_IUPAC_CAS_NAME>
(8R)-8-benzamido-8-methyl-4-oxo-3-[[3-(trifluoromethyl)phenyl]methylamino]-N-[(1R)-1-[(6S)-6,9,9-trimethyl-3,5-dioxa-4-boratricyclo[6.1.1.02,6]decan-4-yl]propyl]-6,7-dihydropyrrolo[1,2-a]pyrimidine-6-carboxamide
> <PUBCHEM_IUPAC_NAME_MARKUP>
(8<I>R</I>)-8-benzamido-8-methyl-4-oxo-3-[[3-(trifluoromethyl)phenyl]methylamino]-<I>N</I>-[(1<I>R</I>)-1-[(6<I>S</I>)-6,9,9-trimethyl-3,5-dioxa-4-boratricyclo[6.1.1.0<SUP>2,6</SUP>]decan-4-yl]propyl]-6,7-dihydropyrrolo[1,2-a]pyrimidine-6-carboxamide
> <PUBCHEM_IUPAC_NAME>
(8R)-8-benzamido-8-methyl-4-oxo-3-[[3-(trifluoromethyl)phenyl]methylamino]-N-[(1R)-1-[(6S)-6,9,9-trimethyl-3,5-dioxa-4-boratricyclo[6.1.1.02,6]decan-4-yl]propyl]-6,7-dihydropyrrolo[1,2-a]pyrimidine-6-carboxamide
> <PUBCHEM_IUPAC_SYSTEMATIC_NAME>
(8R)-8-benzamido-8-methyl-4-oxidanylidene-3-[[3-(trifluoromethyl)phenyl]methylamino]-N-[(1R)-1-[(6S)-6,9,9-trimethyl-3,5-dioxa-4-boratricyclo[6.1.1.02,6]decan-4-yl]propyl]-6,7-dihydropyrrolo[1,2-a]pyrimidine-6-carboxamide
> <PUBCHEM_IUPAC_TRADITIONAL_NAME>
(8R)-8-benzamido-4-keto-8-methyl-3-[[3-(trifluoromethyl)benzyl]amino]-N-[(1R)-1-[(6S)-6,9,9-trimethyl-3,5-dioxa-4-boratricyclo[6.1.1.02,6]decan-4-yl]propyl]-6,7-dihydropyrrolo[1,2-a]pyrimidine-6-carboxamide
> <PUBCHEM_IUPAC_INCHI>
InChI=1S/C37H43BF3N5O5/c1-6-28(38-50-29-25-16-24(34(25,2)3)17-36(29,5)51-38)44-31(48)27-18-35(4,45-30(47)22-12-8-7-9-13-22)33-43-20-26(32(49)46(27)33)42-19-21-11-10-14-23(15-21)37(39,40)41/h7-15,20,24-25,27-29,42H,6,16-19H2,1-5H3,(H,44,48)(H,45,47)/t24?,25?,27?,28-,29?,35+,36-/m0/s1
> <PUBCHEM_IUPAC_INCHIKEY>
WQWQMZMABKGGKY-DIUHEPEISA-N
> <PUBCHEM_EXACT_MASS>
705.3309341
> <PUBCHEM_MOLECULAR_FORMULA>
C37H43BF3N5O5
> <PUBCHEM_MOLECULAR_WEIGHT>
705.6
> <PUBCHEM_OPENEYE_CAN_SMILES>
B1(OC2C3CC(C3(C)C)CC2(O1)C)C(CC)NC(=O)C4CC(C5=NC=C(C(=O)N45)NCC6=CC(=CC=C6)C(F)(F)F)(C)NC(=O)C7=CC=CC=C7
> <PUBCHEM_OPENEYE_ISO_SMILES>
B1(OC2C3CC(C3(C)C)C[C@@]2(O1)C)[C@H](CC)NC(=O)C4C[C@@](C5=NC=C(C(=O)N45)NCC6=CC(=CC=C6)C(F)(F)F)(C)NC(=O)C7=CC=CC=C7
> <PUBCHEM_CACTVS_TPSA>
121
> <PUBCHEM_MONOISOTOPIC_WEIGHT>
705.3309341
> <PUBCHEM_TOTAL_CHARGE>
0
> <PUBCHEM_HEAVY_ATOM_COUNT>
51
> <PUBCHEM_ATOM_DEF_STEREO_COUNT>
3
> <PUBCHEM_ATOM_UDEF_STEREO_COUNT>
4
> <PUBCHEM_BOND_DEF_STEREO_COUNT>
0
> <PUBCHEM_BOND_UDEF_STEREO_COUNT>
0
> <PUBCHEM_ISOTOPIC_ATOM_COUNT>
0
> <PUBCHEM_COMPONENT_COUNT>
1
> <PUBCHEM_CACTVS_TAUTO_COUNT>
-1
> <PUBCHEM_COORDINATE_TYPE>
1
5
255
> <PUBCHEM_BONDANNOTATIONS>
10  31  8
10  33  8
30  11  5
12  31  8
12  35  8
14  17  3
16  17  3
19  23  6
28  27  3
33  34  8
34  35  8
37  39  8
37  40  8
39  42  8
18  4  3
40  43  8
41  45  8
41  46  8
42  44  8
43  44  8
45  47  8
46  48  8
47  49  8
48  49  8
24  9  5
$$$$
