504017
  -OEChem-10302200282D
 24 24  0     1  0  0  0  0  0999 V2000
    4.5691    1.1307    0.0000 O   0  0  0  0  0  0  0  0  0  0  0  0
    2.0000    0.8216    0.0000 O   0  0  0  0  0  0  0  0  0  0  0  0
    5.4921   -0.4571    0.0000 O   0  0  0  0  0  0  0  0  0  0  0  0
    5.4921   -2.4571    0.0000 O   0  0  0  0  0  0  0  0  0  0  0  0
    3.7601    0.5429    0.0000 N   0  0  0  0  0  0  0  0  0  0  0  0
    2.6723    2.8907    0.0000 N   0  0  0  0  0  0  0  0  0  0  0  0
    4.6261   -1.9571    0.0000 N   0  0  0  0  0  0  0  0  0  0  0  0
    3.2601    2.0817    0.0000 C   0  0  3  0  0  0  0  0  0  0  0  0
    4.2601    2.0817    0.0000 C   0  0  0  0  0  0  0  0  0  0  0  0
    2.9511    1.1307    0.0000 C   0  0  0  0  0  0  0  0  0  0  0  0
    3.7601   -0.4571    0.0000 C   0  0  0  0  0  0  0  0  0  0  0  0
    4.6261   -0.9571    0.0000 C   0  0  0  0  0  0  0  0  0  0  0  0
    5.4921   -3.4571    0.0000 C   0  0  0  0  0  0  0  0  0  0  0  0
    2.6477    1.9847    0.0000 H   0  0  0  0  0  0  0  0  0  0  0  0
    4.8665    2.2106    0.0000 H   0  0  0  0  0  0  0  0  0  0  0  0
    4.1953    2.6983    0.0000 H   0  0  0  0  0  0  0  0  0  0  0  0
    3.1495   -0.3495    0.0000 H   0  0  0  0  0  0  0  0  0  0  0  0
    3.5480   -1.0397    0.0000 H   0  0  0  0  0  0  0  0  0  0  0  0
    2.9245    3.4571    0.0000 H   0  0  0  0  0  0  0  0  0  0  0  0
    2.0557    2.8259    0.0000 H   0  0  0  0  0  0  0  0  0  0  0  0
    4.0892   -2.2671    0.0000 H   0  0  0  0  0  0  0  0  0  0  0  0
    4.8721   -3.4571    0.0000 H   0  0  0  0  0  0  0  0  0  0  0  0
    5.4921   -4.0771    0.0000 H   0  0  0  0  0  0  0  0  0  0  0  0
    6.1121   -3.4571    0.0000 H   0  0  0  0  0  0  0  0  0  0  0  0
  1  5  1  0  0  0  0
  1  9  1  0  0  0  0
  2 10  2  0  0  0  0
  3 12  2  0  0  0  0
  4  7  1  0  0  0  0
  4 13  1  0  0  0  0
  5 10  1  0  0  0  0
  5 11  1  0  0  0  0
  6  8  1  0  0  0  0
  6 19  1  0  0  0  0
  6 20  1  0  0  0  0
  7 12  1  0  0  0  0
  7 21  1  0  0  0  0
  8  9  1  0  0  0  0
  8 10  1  0  0  0  0
  8 14  1  0  0  0  0
  9 15  1  0  0  0  0
  9 16  1  0  0  0  0
 11 12  1  0  0  0  0
 11 17  1  0  0  0  0
 11 18  1  0  0  0  0
 13 22  1  0  0  0  0
 13 23  1  0  0  0  0
 13 24  1  0  0  0  0
M  END
> <PUBCHEM_COMPOUND_CID>
504017
> <PUBCHEM_COMPOUND_CANONICALIZED>
1
> <PUBCHEM_CACTVS_COMPLEXITY>
220
> <PUBCHEM_CACTVS_HBOND_ACCEPTOR>
5
> <PUBCHEM_CACTVS_HBOND_DONOR>
2
> <PUBCHEM_CACTVS_ROTATABLE_BOND>
3
> <PUBCHEM_CACTVS_SUBSKEYS>
AAADccBjOAAAAAAAAAAAAAAAAAAAAWAAAAAAAAAAAAAAAAAAAAAAHgAUAAAACCjhgAYCAAJQAAAIAAEQEAAAAAAAAAAgAIGIAAACQAQAACAUAAACNgCAAAAAAAAAAAAAAAAAAAAAAAAAAAAAAAAAAAAAAA==
> <PUBCHEM_IUPAC_OPENEYE_NAME>
2-(4-amino-3-oxo-isoxazolidin-2-yl)-N-methoxy-acetamide
> <PUBCHEM_IUPAC_CAS_NAME>
2-(4-amino-3-oxo-2-isoxazolidinyl)-N-methoxyacetamide
> <PUBCHEM_IUPAC_NAME_MARKUP>
2-(4-amino-3-oxo-1,2-oxazolidin-2-yl)-<I>N</I>-methoxyacetamide
> <PUBCHEM_IUPAC_NAME>
2-(4-amino-3-oxo-1,2-oxazolidin-2-yl)-N-methoxyacetamide
> <PUBCHEM_IUPAC_SYSTEMATIC_NAME>
2-(4-azanyl-3-oxidanylidene-1,2-oxazolidin-2-yl)-N-methoxy-ethanamide
> <PUBCHEM_IUPAC_TRADITIONAL_NAME>
2-(4-amino-3-keto-isoxazolidin-2-yl)-N-methoxy-acetamide
> <PUBCHEM_IUPAC_INCHI>
InChI=1S/C6H11N3O4/c1-12-8-5(10)2-9-6(11)4(7)3-13-9/h4H,2-3,7H2,1H3,(H,8,10)
> <PUBCHEM_IUPAC_INCHIKEY>
BAGBRQVLJVXXAC-UHFFFAOYSA-N
> <PUBCHEM_XLOGP3_AA>
-1.9
> <PUBCHEM_EXACT_MASS>
189.07495584
> <PUBCHEM_MOLECULAR_FORMULA>
C6H11N3O4
> <PUBCHEM_MOLECULAR_WEIGHT>
189.17
> <PUBCHEM_OPENEYE_CAN_SMILES>
CONC(=O)CN1C(=O)C(CO1)N
> <PUBCHEM_OPENEYE_ISO_SMILES>
CONC(=O)CN1C(=O)C(CO1)N
> <PUBCHEM_CACTVS_TPSA>
93.9
> <PUBCHEM_MONOISOTOPIC_WEIGHT>
189.07495584
> <PUBCHEM_TOTAL_CHARGE>
0
> <PUBCHEM_HEAVY_ATOM_COUNT>
13
> <PUBCHEM_ATOM_DEF_STEREO_COUNT>
0
> <PUBCHEM_ATOM_UDEF_STEREO_COUNT>
1
> <PUBCHEM_BOND_DEF_STEREO_COUNT>
0
> <PUBCHEM_BOND_UDEF_STEREO_COUNT>
0
> <PUBCHEM_ISOTOPIC_ATOM_COUNT>
0
> <PUBCHEM_COMPONENT_COUNT>
1
> <PUBCHEM_CACTVS_TAUTO_COUNT>
-1
> <PUBCHEM_COORDINATE_TYPE>
1
5
255
> <PUBCHEM_BONDANNOTATIONS>
8  6  3
$$$$
