504088
  -OEChem-10302200282D
 61 65  0     1  0  0  0  0  0999 V2000
    5.4641    1.2500    0.0000 O   0  0  0  0  0  0  0  0  0  0  0  0
    5.4641   -1.7500    0.0000 N   0  0  3  0  0  0  0  0  0  0  0  0
    4.5981   -1.2500    0.0000 C   0  0  2  0  0  0  0  0  0  0  0  0
    5.4641    0.2500    0.0000 C   0  0  2  0  0  0  0  0  0  0  0  0
    4.5981   -0.2500    0.0000 C   0  0  0  0  0  0  0  0  0  0  0  0
    6.3301   -0.2500    0.0000 C   0  0  0  0  0  0  0  0  0  0  0  0
    6.3301   -1.2500    0.0000 C   0  0  0  0  0  0  0  0  0  0  0  0
    3.7320   -1.7500    0.0000 C   0  0  0  0  0  0  0  0  0  0  0  0
    5.4641   -2.7500    0.0000 C   0  0  0  0  0  0  0  0  0  0  0  0
    6.3301    1.7500    0.0000 C   0  0  0  0  0  0  0  0  0  0  0  0
    2.8660   -1.2500    0.0000 C   0  0  0  0  0  0  0  0  0  0  0  0
    3.7320   -2.7500    0.0000 C   0  0  0  0  0  0  0  0  0  0  0  0
    4.5981   -3.2500    0.0000 C   0  0  0  0  0  0  0  0  0  0  0  0
    6.3301   -3.2500    0.0000 C   0  0  0  0  0  0  0  0  0  0  0  0
    6.3301    2.7500    0.0000 C   0  0  0  0  0  0  0  0  0  0  0  0
    7.1962    1.2500    0.0000 C   0  0  0  0  0  0  0  0  0  0  0  0
    2.0000   -1.7500    0.0000 C   0  0  0  0  0  0  0  0  0  0  0  0
    2.8660   -3.2500    0.0000 C   0  0  0  0  0  0  0  0  0  0  0  0
    4.5981   -4.2500    0.0000 C   0  0  0  0  0  0  0  0  0  0  0  0
    6.3301   -4.2500    0.0000 C   0  0  0  0  0  0  0  0  0  0  0  0
    2.0000   -2.7500    0.0000 C   0  0  0  0  0  0  0  0  0  0  0  0
    7.1962    3.2500    0.0000 C   0  0  0  0  0  0  0  0  0  0  0  0
    7.1962    0.2500    0.0000 C   0  0  0  0  0  0  0  0  0  0  0  0
    5.4641    3.2500    0.0000 C   0  0  0  0  0  0  0  0  0  0  0  0
    8.0622    1.7500    0.0000 C   0  0  0  0  0  0  0  0  0  0  0  0
    5.4641   -4.7500    0.0000 C   0  0  0  0  0  0  0  0  0  0  0  0
    7.1962    4.2500    0.0000 C   0  0  0  0  0  0  0  0  0  0  0  0
    8.0622   -0.2500    0.0000 C   0  0  0  0  0  0  0  0  0  0  0  0
    5.4641    4.2500    0.0000 C   0  0  0  0  0  0  0  0  0  0  0  0
    8.9282    1.2500    0.0000 C   0  0  0  0  0  0  0  0  0  0  0  0
    6.3301    4.7500    0.0000 C   0  0  0  0  0  0  0  0  0  0  0  0
    8.9282    0.2500    0.0000 C   0  0  0  0  0  0  0  0  0  0  0  0
    4.5981   -1.8700    0.0000 H   0  0  0  0  0  0  0  0  0  0  0  0
    6.0010    0.5600    0.0000 H   0  0  0  0  0  0  0  0  0  0  0  0
    4.3860    0.3326    0.0000 H   0  0  0  0  0  0  0  0  0  0  0  0
    3.9875   -0.3577    0.0000 H   0  0  0  0  0  0  0  0  0  0  0  0
    6.9407   -0.3577    0.0000 H   0  0  0  0  0  0  0  0  0  0  0  0
    6.5422    0.3326    0.0000 H   0  0  0  0  0  0  0  0  0  0  0  0
    6.5422   -1.8326    0.0000 H   0  0  0  0  0  0  0  0  0  0  0  0
    6.9407   -1.1423    0.0000 H   0  0  0  0  0  0  0  0  0  0  0  0
    5.7932    2.0600    0.0000 H   0  0  0  0  0  0  0  0  0  0  0  0
    2.8660   -0.6300    0.0000 H   0  0  0  0  0  0  0  0  0  0  0  0
    4.2690   -3.0600    0.0000 H   0  0  0  0  0  0  0  0  0  0  0  0
    4.0611   -2.9400    0.0000 H   0  0  0  0  0  0  0  0  0  0  0  0
    6.8671   -2.9400    0.0000 H   0  0  0  0  0  0  0  0  0  0  0  0
    1.4631   -1.4400    0.0000 H   0  0  0  0  0  0  0  0  0  0  0  0
    2.8660   -3.8700    0.0000 H   0  0  0  0  0  0  0  0  0  0  0  0
    4.0611   -4.5600    0.0000 H   0  0  0  0  0  0  0  0  0  0  0  0
    6.8671   -4.5600    0.0000 H   0  0  0  0  0  0  0  0  0  0  0  0
    1.4631   -3.0600    0.0000 H   0  0  0  0  0  0  0  0  0  0  0  0
    7.7331    2.9400    0.0000 H   0  0  0  0  0  0  0  0  0  0  0  0
    6.6592   -0.0600    0.0000 H   0  0  0  0  0  0  0  0  0  0  0  0
    4.9272    2.9400    0.0000 H   0  0  0  0  0  0  0  0  0  0  0  0
    8.0622    2.3700    0.0000 H   0  0  0  0  0  0  0  0  0  0  0  0
    5.4641   -5.3700    0.0000 H   0  0  0  0  0  0  0  0  0  0  0  0
    7.7331    4.5600    0.0000 H   0  0  0  0  0  0  0  0  0  0  0  0
    8.0622   -0.8700    0.0000 H   0  0  0  0  0  0  0  0  0  0  0  0
    4.9272    4.5600    0.0000 H   0  0  0  0  0  0  0  0  0  0  0  0
    9.4651    1.5600    0.0000 H   0  0  0  0  0  0  0  0  0  0  0  0
    6.3301    5.3700    0.0000 H   0  0  0  0  0  0  0  0  0  0  0  0
    9.4651   -0.0600    0.0000 H   0  0  0  0  0  0  0  0  0  0  0  0
  4  1  1  1  0  0  0
  1 10  1  0  0  0  0
  2  3  1  0  0  0  0
  2  7  1  0  0  0  0
  2  9  1  0  0  0  0
  3  5  1  0  0  0  0
  3  8  1  1  0  0  0
  3 33  1  0  0  0  0
  4  5  1  0  0  0  0
  4  6  1  0  0  0  0
  4 34  1  0  0  0  0
  5 35  1  0  0  0  0
  5 36  1  0  0  0  0
  6  7  1  0  0  0  0
  6 37  1  0  0  0  0
  6 38  1  0  0  0  0
  7 39  1  0  0  0  0
  7 40  1  0  0  0  0
  8 11  2  0  0  0  0
  8 12  1  0  0  0  0
  9 13  2  0  0  0  0
  9 14  1  0  0  0  0
 10 15  1  0  0  0  0
 10 16  1  0  0  0  0
 10 41  1  0  0  0  0
 11 17  1  0  0  0  0
 11 42  1  0  0  0  0
 12 18  2  0  0  0  0
 12 43  1  0  0  0  0
 13 19  1  0  0  0  0
 13 44  1  0  0  0  0
 14 20  2  0  0  0  0
 14 45  1  0  0  0  0
 15 22  2  0  0  0  0
 15 24  1  0  0  0  0
 16 23  2  0  0  0  0
 16 25  1  0  0  0  0
 17 21  2  0  0  0  0
 17 46  1  0  0  0  0
 18 21  1  0  0  0  0
 18 47  1  0  0  0  0
 19 26  2  0  0  0  0
 19 48  1  0  0  0  0
 20 26  1  0  0  0  0
 20 49  1  0  0  0  0
 21 50  1  0  0  0  0
 22 27  1  0  0  0  0
 22 51  1  0  0  0  0
 23 28  1  0  0  0  0
 23 52  1  0  0  0  0
 24 29  2  0  0  0  0
 24 53  1  0  0  0  0
 25 30  2  0  0  0  0
 25 54  1  0  0  0  0
 26 55  1  0  0  0  0
 27 31  2  0  0  0  0
 27 56  1  0  0  0  0
 28 32  2  0  0  0  0
 28 57  1  0  0  0  0
 29 31  1  0  0  0  0
 29 58  1  0  0  0  0
 30 32  1  0  0  0  0
 30 59  1  0  0  0  0
 31 60  1  0  0  0  0
 32 61  1  0  0  0  0
M  END
> <PUBCHEM_COMPOUND_CID>
504088
> <PUBCHEM_COMPOUND_CANONICALIZED>
1
> <PUBCHEM_CACTVS_COMPLEXITY>
507
> <PUBCHEM_CACTVS_HBOND_ACCEPTOR>
2
> <PUBCHEM_CACTVS_HBOND_DONOR>
0
> <PUBCHEM_CACTVS_ROTATABLE_BOND>
6
> <PUBCHEM_CACTVS_SUBSKEYS>
AAADceB6IAAAAAAAAAAAAAAAAAAAAAAAAAA8YMGCAAAAAAABVAAAHgAAAAAADDzhmAYwwIMABACAAiRCQACCAAAhAgAIiAAIbIgIJiLAsZmGMAhmwAHI6AeQwOAOAAAAAAAAAAAAAAAAAAAAAAAAAAAAAA==
> <PUBCHEM_IUPAC_OPENEYE_NAME>
(2R,4S)-4-benzhydryloxy-1,2-diphenyl-piperidine
> <PUBCHEM_IUPAC_CAS_NAME>
(2R,4S)-4-(diphenylmethyl)oxy-1,2-diphenylpiperidine
> <PUBCHEM_IUPAC_NAME_MARKUP>
(2<I>R</I>,4<I>S</I>)-4-benzhydryloxy-1,2-diphenylpiperidine
> <PUBCHEM_IUPAC_NAME>
(2R,4S)-4-benzhydryloxy-1,2-diphenylpiperidine
> <PUBCHEM_IUPAC_SYSTEMATIC_NAME>
(2R,4S)-4-(diphenylmethyl)oxy-1,2-diphenyl-piperidine
> <PUBCHEM_IUPAC_TRADITIONAL_NAME>
(2R,4S)-4-benzhydryloxy-1,2-diphenyl-piperidine
> <PUBCHEM_IUPAC_INCHI>
InChI=1S/C30H29NO/c1-5-13-24(14-6-1)29-23-28(21-22-31(29)27-19-11-4-12-20-27)32-30(25-15-7-2-8-16-25)26-17-9-3-10-18-26/h1-20,28-30H,21-23H2/t28-,29+/m0/s1
> <PUBCHEM_IUPAC_INCHIKEY>
ILDWELVCCUZQLD-URLMMPGGSA-N
> <PUBCHEM_XLOGP3_AA>
7.2
> <PUBCHEM_EXACT_MASS>
419.224914549
> <PUBCHEM_MOLECULAR_FORMULA>
C30H29NO
> <PUBCHEM_MOLECULAR_WEIGHT>
419.6
> <PUBCHEM_OPENEYE_CAN_SMILES>
C1CN(C(CC1OC(C2=CC=CC=C2)C3=CC=CC=C3)C4=CC=CC=C4)C5=CC=CC=C5
> <PUBCHEM_OPENEYE_ISO_SMILES>
C1CN([C@H](C[C@H]1OC(C2=CC=CC=C2)C3=CC=CC=C3)C4=CC=CC=C4)C5=CC=CC=C5
> <PUBCHEM_CACTVS_TPSA>
12.5
> <PUBCHEM_MONOISOTOPIC_WEIGHT>
419.224914549
> <PUBCHEM_TOTAL_CHARGE>
0
> <PUBCHEM_HEAVY_ATOM_COUNT>
32
> <PUBCHEM_ATOM_DEF_STEREO_COUNT>
2
> <PUBCHEM_ATOM_UDEF_STEREO_COUNT>
0
> <PUBCHEM_BOND_DEF_STEREO_COUNT>
0
> <PUBCHEM_BOND_UDEF_STEREO_COUNT>
0
> <PUBCHEM_ISOTOPIC_ATOM_COUNT>
0
> <PUBCHEM_COMPONENT_COUNT>
1
> <PUBCHEM_CACTVS_TAUTO_COUNT>
-1
> <PUBCHEM_COORDINATE_TYPE>
1
5
255
> <PUBCHEM_BONDANNOTATIONS>
4  1  5
11  17  8
12  18  8
13  19  8
14  20  8
15  22  8
15  24  8
16  23  8
16  25  8
17  21  8
18  21  8
19  26  8
20  26  8
22  27  8
23  28  8
24  29  8
25  30  8
27  31  8
28  32  8
29  31  8
3  8  5
30  32  8
8  11  8
8  12  8
9  13  8
9  14  8
$$$$
