504053
  -OEChem-10302200282D
 54 55  0     1  0  0  0  0  0999 V2000
    3.7320   -1.3965    0.0000 S   0  0  0  0  0  0  0  0  0  0  0  0
    5.4641   -0.3965    0.0000 O   0  0  0  0  0  0  0  0  0  0  0  0
    4.7320   -1.3965    0.0000 O   0  0  0  0  0  0  0  0  0  0  0  0
    2.7320   -1.3965    0.0000 O   0  0  0  0  0  0  0  0  0  0  0  0
    2.0000   -5.3965    0.0000 O   0  0  0  0  0  0  0  0  0  0  0  0
    3.7320   -0.3965    0.0000 N   0  0  0  0  0  0  0  0  0  0  0  0
    3.7320   -5.3965    0.0000 N   0  0  0  0  0  0  0  0  0  0  0  0
    5.0981    2.6424    0.0000 C   0  0  3  0  0  0  0  0  0  0  0  0
    5.4071    1.6913    0.0000 C   0  0  0  0  0  0  0  0  0  0  0  0
    4.5981    1.1035    0.0000 C   0  0  3  0  0  0  0  0  0  0  0  0
    4.0981    2.6424    0.0000 C   0  0  0  0  0  0  0  0  0  0  0  0
    3.7891    1.6913    0.0000 C   0  0  0  0  0  0  0  0  0  0  0  0
    5.6859    3.4514    0.0000 C   0  0  0  0  0  0  0  0  0  0  0  0
    5.2791    4.3649    0.0000 C   0  0  0  0  0  0  0  0  0  0  0  0
    4.5981    0.1035    0.0000 C   0  0  0  0  0  0  0  0  0  0  0  0
    5.8669    5.1739    0.0000 C   0  0  0  0  0  0  0  0  0  0  0  0
    5.4602    6.0875    0.0000 C   0  0  0  0  0  0  0  0  0  0  0  0
    6.0480    6.8965    0.0000 C   0  0  0  0  0  0  0  0  0  0  0  0
    3.7320   -2.3965    0.0000 C   0  0  0  0  0  0  0  0  0  0  0  0
    2.8660   -2.8965    0.0000 C   0  0  0  0  0  0  0  0  0  0  0  0
    4.5981   -2.8965    0.0000 C   0  0  0  0  0  0  0  0  0  0  0  0
    2.8660   -3.8965    0.0000 C   0  0  0  0  0  0  0  0  0  0  0  0
    4.5981   -3.8965    0.0000 C   0  0  0  0  0  0  0  0  0  0  0  0
    3.7320   -4.3965    0.0000 C   0  0  0  0  0  0  0  0  0  0  0  0
    2.8660   -5.8965    0.0000 C   0  0  0  0  0  0  0  0  0  0  0  0
    2.8660   -6.8965    0.0000 C   0  0  0  0  0  0  0  0  0  0  0  0
    5.7104    2.5454    0.0000 H   0  0  0  0  0  0  0  0  0  0  0  0
    5.7171    1.1544    0.0000 H   0  0  0  0  0  0  0  0  0  0  0  0
    5.9735    1.9435    0.0000 H   0  0  0  0  0  0  0  0  0  0  0  0
    5.1505    0.8220    0.0000 H   0  0  0  0  0  0  0  0  0  0  0  0
    4.1629    3.2590    0.0000 H   0  0  0  0  0  0  0  0  0  0  0  0
    3.4916    2.7713    0.0000 H   0  0  0  0  0  0  0  0  0  0  0  0
    3.2227    1.9435    0.0000 H   0  0  0  0  0  0  0  0  0  0  0  0
    3.4791    1.1544    0.0000 H   0  0  0  0  0  0  0  0  0  0  0  0
    6.1166    3.0054    0.0000 H   0  0  0  0  0  0  0  0  0  0  0  0
    6.1999    3.7981    0.0000 H   0  0  0  0  0  0  0  0  0  0  0  0
    4.8484    4.8109    0.0000 H   0  0  0  0  0  0  0  0  0  0  0  0
    4.7651    4.0182    0.0000 H   0  0  0  0  0  0  0  0  0  0  0  0
    6.2976    4.7279    0.0000 H   0  0  0  0  0  0  0  0  0  0  0  0
    6.3809    5.5206    0.0000 H   0  0  0  0  0  0  0  0  0  0  0  0
    3.1951   -0.0865    0.0000 H   0  0  0  0  0  0  0  0  0  0  0  0
    5.0295    6.5335    0.0000 H   0  0  0  0  0  0  0  0  0  0  0  0
    4.9462    5.7408    0.0000 H   0  0  0  0  0  0  0  0  0  0  0  0
    6.5496    6.5321    0.0000 H   0  0  0  0  0  0  0  0  0  0  0  0
    6.4124    7.3981    0.0000 H   0  0  0  0  0  0  0  0  0  0  0  0
    5.5464    7.2609    0.0000 H   0  0  0  0  0  0  0  0  0  0  0  0
    2.3291   -2.5865    0.0000 H   0  0  0  0  0  0  0  0  0  0  0  0
    5.1350   -2.5865    0.0000 H   0  0  0  0  0  0  0  0  0  0  0  0
    2.3291   -4.2065    0.0000 H   0  0  0  0  0  0  0  0  0  0  0  0
    5.1350   -4.2065    0.0000 H   0  0  0  0  0  0  0  0  0  0  0  0
    4.2690   -5.7065    0.0000 H   0  0  0  0  0  0  0  0  0  0  0  0
    2.2460   -6.8965    0.0000 H   0  0  0  0  0  0  0  0  0  0  0  0
    2.8660   -7.5165    0.0000 H   0  0  0  0  0  0  0  0  0  0  0  0
    3.4860   -6.8965    0.0000 H   0  0  0  0  0  0  0  0  0  0  0  0
  1  3  2  0  0  0  0
  1  4  2  0  0  0  0
  1  6  1  0  0  0  0
  1 19  1  0  0  0  0
  2 15  2  0  0  0  0
  5 25  2  0  0  0  0
  6 15  1  0  0  0  0
  6 41  1  0  0  0  0
  7 24  1  0  0  0  0
  7 25  1  0  0  0  0
  7 51  1  0  0  0  0
  8  9  1  0  0  0  0
  8 11  1  0  0  0  0
  8 13  1  0  0  0  0
  8 27  1  0  0  0  0
  9 10  1  0  0  0  0
  9 28  1  0  0  0  0
  9 29  1  0  0  0  0
 10 12  1  0  0  0  0
 10 15  1  0  0  0  0
 10 30  1  0  0  0  0
 11 12  1  0  0  0  0
 11 31  1  0  0  0  0
 11 32  1  0  0  0  0
 12 33  1  0  0  0  0
 12 34  1  0  0  0  0
 13 14  1  0  0  0  0
 13 35  1  0  0  0  0
 13 36  1  0  0  0  0
 14 16  1  0  0  0  0
 14 37  1  0  0  0  0
 14 38  1  0  0  0  0
 16 17  1  0  0  0  0
 16 39  1  0  0  0  0
 16 40  1  0  0  0  0
 17 18  1  0  0  0  0
 17 42  1  0  0  0  0
 17 43  1  0  0  0  0
 18 44  1  0  0  0  0
 18 45  1  0  0  0  0
 18 46  1  0  0  0  0
 19 20  2  0  0  0  0
 19 21  1  0  0  0  0
 20 22  1  0  0  0  0
 20 47  1  0  0  0  0
 21 23  2  0  0  0  0
 21 48  1  0  0  0  0
 22 24  2  0  0  0  0
 22 49  1  0  0  0  0
 23 24  1  0  0  0  0
 23 50  1  0  0  0  0
 25 26  1  0  0  0  0
 26 52  1  0  0  0  0
 26 53  1  0  0  0  0
 26 54  1  0  0  0  0
M  END
> <PUBCHEM_COMPOUND_CID>
504053
> <PUBCHEM_COMPOUND_CANONICALIZED>
1
> <PUBCHEM_CACTVS_COMPLEXITY>
577
> <PUBCHEM_CACTVS_HBOND_ACCEPTOR>
4
> <PUBCHEM_CACTVS_HBOND_DONOR>
2
> <PUBCHEM_CACTVS_ROTATABLE_BOND>
8
> <PUBCHEM_CACTVS_SUBSKEYS>
AAADceB7OABAAAAAAAAAAAAAAAAAAYAAAAAwAAAAAAAAAAABAAAAHgQQQAAADQiB0AAywYLAAAKIACVSUHDCABAhAgAIiBkAZIgIIDLAkZGEIAhglADIyAcYiMCOAAQAAAAAAAAACAAAAAAAAQAAAAAAAA==
> <PUBCHEM_IUPAC_OPENEYE_NAME>
N-(4-acetamidophenyl)sulfonyl-3-pentyl-cyclopentanecarboxamide
> <PUBCHEM_IUPAC_CAS_NAME>
N-(4-acetamidophenyl)sulfonyl-3-pentyl-1-cyclopentanecarboxamide
> <PUBCHEM_IUPAC_NAME_MARKUP>
<I>N</I>-(4-acetamidophenyl)sulfonyl-3-pentylcyclopentane-1-carboxamide
> <PUBCHEM_IUPAC_NAME>
N-(4-acetamidophenyl)sulfonyl-3-pentylcyclopentane-1-carboxamide
> <PUBCHEM_IUPAC_SYSTEMATIC_NAME>
N-(4-acetamidophenyl)sulfonyl-3-pentyl-cyclopentane-1-carboxamide
> <PUBCHEM_IUPAC_TRADITIONAL_NAME>
N-(4-acetamidophenyl)sulfonyl-3-amyl-cyclopentanecarboxamide
> <PUBCHEM_IUPAC_INCHI>
InChI=1S/C19H28N2O4S/c1-3-4-5-6-15-7-8-16(13-15)19(23)21-26(24,25)18-11-9-17(10-12-18)20-14(2)22/h9-12,15-16H,3-8,13H2,1-2H3,(H,20,22)(H,21,23)
> <PUBCHEM_IUPAC_INCHIKEY>
NHWKYFIPMDVDEH-UHFFFAOYSA-N
> <PUBCHEM_XLOGP3_AA>
3.8
> <PUBCHEM_EXACT_MASS>
380.17697855
> <PUBCHEM_MOLECULAR_FORMULA>
C19H28N2O4S
> <PUBCHEM_MOLECULAR_WEIGHT>
380.5
> <PUBCHEM_OPENEYE_CAN_SMILES>
CCCCCC1CCC(C1)C(=O)NS(=O)(=O)C2=CC=C(C=C2)NC(=O)C
> <PUBCHEM_OPENEYE_ISO_SMILES>
CCCCCC1CCC(C1)C(=O)NS(=O)(=O)C2=CC=C(C=C2)NC(=O)C
> <PUBCHEM_CACTVS_TPSA>
101
> <PUBCHEM_MONOISOTOPIC_WEIGHT>
380.17697855
> <PUBCHEM_TOTAL_CHARGE>
0
> <PUBCHEM_HEAVY_ATOM_COUNT>
26
> <PUBCHEM_ATOM_DEF_STEREO_COUNT>
0
> <PUBCHEM_ATOM_UDEF_STEREO_COUNT>
2
> <PUBCHEM_BOND_DEF_STEREO_COUNT>
0
> <PUBCHEM_BOND_UDEF_STEREO_COUNT>
0
> <PUBCHEM_ISOTOPIC_ATOM_COUNT>
0
> <PUBCHEM_COMPONENT_COUNT>
1
> <PUBCHEM_CACTVS_TAUTO_COUNT>
-1
> <PUBCHEM_COORDINATE_TYPE>
1
5
255
> <PUBCHEM_BONDANNOTATIONS>
10  15  3
19  20  8
19  21  8
20  22  8
21  23  8
22  24  8
23  24  8
8  13  3
$$$$
