504005
  -OEChem-10302200282D
 19 19  0     1  0  0  0  0  0999 V2000
    4.5691   -0.1193    0.0000 O   0  0  0  0  0  0  0  0  0  0  0  0
    2.0000   -0.4284    0.0000 O   0  0  0  0  0  0  0  0  0  0  0  0
    3.7601   -0.7071    0.0000 N   0  0  0  0  0  0  0  0  0  0  0  0
    2.6723    1.6407    0.0000 N   0  0  0  0  0  0  0  0  0  0  0  0
    3.2601    0.8317    0.0000 C   0  0  3  0  0  0  0  0  0  0  0  0
    4.2601    0.8317    0.0000 C   0  0  0  0  0  0  0  0  0  0  0  0
    2.9511   -0.1193    0.0000 C   0  0  0  0  0  0  0  0  0  0  0  0
    3.7601   -1.7071    0.0000 C   0  0  0  0  0  0  0  0  0  0  0  0
    4.6261   -2.2071    0.0000 C   0  0  0  0  0  0  0  0  0  0  0  0
    2.6477    0.7347    0.0000 H   0  0  0  0  0  0  0  0  0  0  0  0
    4.8665    0.9606    0.0000 H   0  0  0  0  0  0  0  0  0  0  0  0
    4.1953    1.4483    0.0000 H   0  0  0  0  0  0  0  0  0  0  0  0
    3.1495   -1.5995    0.0000 H   0  0  0  0  0  0  0  0  0  0  0  0
    3.5480   -2.2897    0.0000 H   0  0  0  0  0  0  0  0  0  0  0  0
    2.9245    2.2071    0.0000 H   0  0  0  0  0  0  0  0  0  0  0  0
    2.0557    1.5759    0.0000 H   0  0  0  0  0  0  0  0  0  0  0  0
    4.3161   -2.7441    0.0000 H   0  0  0  0  0  0  0  0  0  0  0  0
    5.1630   -2.5171    0.0000 H   0  0  0  0  0  0  0  0  0  0  0  0
    4.9361   -1.6702    0.0000 H   0  0  0  0  0  0  0  0  0  0  0  0
  1  3  1  0  0  0  0
  1  6  1  0  0  0  0
  2  7  2  0  0  0  0
  3  7  1  0  0  0  0
  3  8  1  0  0  0  0
  4  5  1  0  0  0  0
  4 15  1  0  0  0  0
  4 16  1  0  0  0  0
  5  6  1  0  0  0  0
  5  7  1  0  0  0  0
  5 10  1  0  0  0  0
  6 11  1  0  0  0  0
  6 12  1  0  0  0  0
  8  9  1  0  0  0  0
  8 13  1  0  0  0  0
  8 14  1  0  0  0  0
  9 17  1  0  0  0  0
  9 18  1  0  0  0  0
  9 19  1  0  0  0  0
M  END
> <PUBCHEM_COMPOUND_CID>
504005
> <PUBCHEM_COMPOUND_CANONICALIZED>
1
> <PUBCHEM_CACTVS_COMPLEXITY>
126
> <PUBCHEM_CACTVS_HBOND_ACCEPTOR>
3
> <PUBCHEM_CACTVS_HBOND_DONOR>
1
> <PUBCHEM_CACTVS_ROTATABLE_BOND>
1
> <PUBCHEM_CACTVS_SUBSKEYS>
AAADccBjMAAAAAAAAAAAAAAAAAAAAWAAAAAAAAAAAAAAAAAAAAAAHgAUAAAACCjhgAYCAAJQAAAIAAEQEAAAAAAAAAAgAIGIAAACQAQAAAAUAAACNgCAAAAAAAAAAAAAAAAAAAAAAAAAAAAAAAAAAAAAAA==
> <PUBCHEM_IUPAC_OPENEYE_NAME>
4-amino-2-ethyl-isoxazolidin-3-one
> <PUBCHEM_IUPAC_CAS_NAME>
4-amino-2-ethyl-3-isoxazolidinone
> <PUBCHEM_IUPAC_NAME_MARKUP>
4-amino-2-ethyl-1,2-oxazolidin-3-one
> <PUBCHEM_IUPAC_NAME>
4-amino-2-ethyl-1,2-oxazolidin-3-one
> <PUBCHEM_IUPAC_SYSTEMATIC_NAME>
4-azanyl-2-ethyl-1,2-oxazolidin-3-one
> <PUBCHEM_IUPAC_TRADITIONAL_NAME>
4-amino-2-ethyl-isoxazolidin-3-one
> <PUBCHEM_IUPAC_INCHI>
InChI=1S/C5H10N2O2/c1-2-7-5(8)4(6)3-9-7/h4H,2-3,6H2,1H3
> <PUBCHEM_IUPAC_INCHIKEY>
BCYJOUHCNAGXGJ-UHFFFAOYSA-N
> <PUBCHEM_XLOGP3_AA>
-1
> <PUBCHEM_EXACT_MASS>
130.074227566
> <PUBCHEM_MOLECULAR_FORMULA>
C5H10N2O2
> <PUBCHEM_MOLECULAR_WEIGHT>
130.15
> <PUBCHEM_OPENEYE_CAN_SMILES>
CCN1C(=O)C(CO1)N
> <PUBCHEM_OPENEYE_ISO_SMILES>
CCN1C(=O)C(CO1)N
> <PUBCHEM_CACTVS_TPSA>
55.6
> <PUBCHEM_MONOISOTOPIC_WEIGHT>
130.074227566
> <PUBCHEM_TOTAL_CHARGE>
0
> <PUBCHEM_HEAVY_ATOM_COUNT>
9
> <PUBCHEM_ATOM_DEF_STEREO_COUNT>
0
> <PUBCHEM_ATOM_UDEF_STEREO_COUNT>
1
> <PUBCHEM_BOND_DEF_STEREO_COUNT>
0
> <PUBCHEM_BOND_UDEF_STEREO_COUNT>
0
> <PUBCHEM_ISOTOPIC_ATOM_COUNT>
0
> <PUBCHEM_COMPONENT_COUNT>
1
> <PUBCHEM_CACTVS_TAUTO_COUNT>
-1
> <PUBCHEM_COORDINATE_TYPE>
1
5
255
> <PUBCHEM_BONDANNOTATIONS>
5  4  3
$$$$
