504004
  -OEChem-10302200282D
 16 16  0     1  0  0  0  0  0999 V2000
    4.5691   -0.3693    0.0000 O   0  0  0  0  0  0  0  0  0  0  0  0
    2.0000   -0.6784    0.0000 O   0  0  0  0  0  0  0  0  0  0  0  0
    3.7601   -0.9571    0.0000 N   0  0  0  0  0  0  0  0  0  0  0  0
    2.6723    1.3907    0.0000 N   0  0  0  0  0  0  0  0  0  0  0  0
    3.2601    0.5817    0.0000 C   0  0  3  0  0  0  0  0  0  0  0  0
    4.2601    0.5817    0.0000 C   0  0  0  0  0  0  0  0  0  0  0  0
    2.9511   -0.3693    0.0000 C   0  0  0  0  0  0  0  0  0  0  0  0
    3.7601   -1.9571    0.0000 C   0  0  0  0  0  0  0  0  0  0  0  0
    2.6477    0.4847    0.0000 H   0  0  0  0  0  0  0  0  0  0  0  0
    4.8665    0.7106    0.0000 H   0  0  0  0  0  0  0  0  0  0  0  0
    4.1953    1.1983    0.0000 H   0  0  0  0  0  0  0  0  0  0  0  0
    2.9245    1.9571    0.0000 H   0  0  0  0  0  0  0  0  0  0  0  0
    2.0557    1.3259    0.0000 H   0  0  0  0  0  0  0  0  0  0  0  0
    3.1401   -1.9571    0.0000 H   0  0  0  0  0  0  0  0  0  0  0  0
    3.7601   -2.5771    0.0000 H   0  0  0  0  0  0  0  0  0  0  0  0
    4.3801   -1.9571    0.0000 H   0  0  0  0  0  0  0  0  0  0  0  0
  1  3  1  0  0  0  0
  1  6  1  0  0  0  0
  2  7  2  0  0  0  0
  3  7  1  0  0  0  0
  3  8  1  0  0  0  0
  4  5  1  0  0  0  0
  4 12  1  0  0  0  0
  4 13  1  0  0  0  0
  5  6  1  0  0  0  0
  5  7  1  0  0  0  0
  5  9  1  0  0  0  0
  6 10  1  0  0  0  0
  6 11  1  0  0  0  0
  8 14  1  0  0  0  0
  8 15  1  0  0  0  0
  8 16  1  0  0  0  0
M  END
> <PUBCHEM_COMPOUND_CID>
504004
> <PUBCHEM_COMPOUND_CANONICALIZED>
1
> <PUBCHEM_CACTVS_COMPLEXITY>
115
> <PUBCHEM_CACTVS_HBOND_ACCEPTOR>
3
> <PUBCHEM_CACTVS_HBOND_DONOR>
1
> <PUBCHEM_CACTVS_ROTATABLE_BOND>
0
> <PUBCHEM_CACTVS_SUBSKEYS>
AAADccBjMAAAAAAAAAAAAAAAAAAAAWAAAAAAAAAAAAAAAAAAAAAAHgAUAAAACCjhgAYCAAJQAAAIAAEQEAAAAAAAAAAgAIGIAAACQAQAAAAUAAACMgAAAAAAAAAAAAAAAAAAAAAAAAAAAAAAAAAAAAAAAA==
> <PUBCHEM_IUPAC_OPENEYE_NAME>
4-amino-2-methyl-isoxazolidin-3-one
> <PUBCHEM_IUPAC_CAS_NAME>
4-amino-2-methyl-3-isoxazolidinone
> <PUBCHEM_IUPAC_NAME_MARKUP>
4-amino-2-methyl-1,2-oxazolidin-3-one
> <PUBCHEM_IUPAC_NAME>
4-amino-2-methyl-1,2-oxazolidin-3-one
> <PUBCHEM_IUPAC_SYSTEMATIC_NAME>
4-azanyl-2-methyl-1,2-oxazolidin-3-one
> <PUBCHEM_IUPAC_TRADITIONAL_NAME>
4-amino-2-methyl-isoxazolidin-3-one
> <PUBCHEM_IUPAC_INCHI>
InChI=1S/C4H8N2O2/c1-6-4(7)3(5)2-8-6/h3H,2,5H2,1H3
> <PUBCHEM_IUPAC_INCHIKEY>
SKBRWWAAKYUZEW-UHFFFAOYSA-N
> <PUBCHEM_XLOGP3_AA>
-1.3
> <PUBCHEM_EXACT_MASS>
116.058577502
> <PUBCHEM_MOLECULAR_FORMULA>
C4H8N2O2
> <PUBCHEM_MOLECULAR_WEIGHT>
116.12
> <PUBCHEM_OPENEYE_CAN_SMILES>
CN1C(=O)C(CO1)N
> <PUBCHEM_OPENEYE_ISO_SMILES>
CN1C(=O)C(CO1)N
> <PUBCHEM_CACTVS_TPSA>
55.6
> <PUBCHEM_MONOISOTOPIC_WEIGHT>
116.058577502
> <PUBCHEM_TOTAL_CHARGE>
0
> <PUBCHEM_HEAVY_ATOM_COUNT>
8
> <PUBCHEM_ATOM_DEF_STEREO_COUNT>
0
> <PUBCHEM_ATOM_UDEF_STEREO_COUNT>
1
> <PUBCHEM_BOND_DEF_STEREO_COUNT>
0
> <PUBCHEM_BOND_UDEF_STEREO_COUNT>
0
> <PUBCHEM_ISOTOPIC_ATOM_COUNT>
0
> <PUBCHEM_COMPONENT_COUNT>
1
> <PUBCHEM_CACTVS_TAUTO_COUNT>
-1
> <PUBCHEM_COORDINATE_TYPE>
1
5
255
> <PUBCHEM_BONDANNOTATIONS>
5  4  3
$$$$
