504061
  -OEChem-10302200282D
 35 36  0     1  0  0  0  0  0999 V2000
    3.7320    0.6550    0.0000 S   0  0  0  0  0  0  0  0  0  0  0  0
    4.7320    0.6550    0.0000 O   0  0  0  0  0  0  0  0  0  0  0  0
    2.7320    0.6550    0.0000 O   0  0  0  0  0  0  0  0  0  0  0  0
    2.0000    3.6550    0.0000 O   0  5  0  0  0  0  0  0  0  0  0  0
    3.7320    3.6550    0.0000 O   0  0  0  0  0  0  0  0  0  0  0  0
    2.8660    3.1550    0.0000 N   0  3  0  0  0  0  0  0  0  0  0  0
    3.7320   -3.3450    0.0000 N   0  0  0  0  0  0  0  0  0  0  0  0
    3.7320    1.6550    0.0000 C   0  0  3  0  0  0  0  0  0  0  0  0
    2.8660    2.1550    0.0000 C   0  0  0  0  0  0  0  0  0  0  0  0
    4.5981    2.1550    0.0000 C   0  0  0  0  0  0  0  0  0  0  0  0
    3.7320   -0.3450    0.0000 C   0  0  0  0  0  0  0  0  0  0  0  0
    5.4641    1.6550    0.0000 C   0  0  0  0  0  0  0  0  0  0  0  0
    4.5981    3.1550    0.0000 C   0  0  0  0  0  0  0  0  0  0  0  0
    4.5981   -0.8450    0.0000 C   0  0  0  0  0  0  0  0  0  0  0  0
    2.8660   -0.8450    0.0000 C   0  0  0  0  0  0  0  0  0  0  0  0
    6.3301    2.1550    0.0000 C   0  0  0  0  0  0  0  0  0  0  0  0
    5.4641    3.6550    0.0000 C   0  0  0  0  0  0  0  0  0  0  0  0
    4.5981   -1.8450    0.0000 C   0  0  0  0  0  0  0  0  0  0  0  0
    2.8660   -1.8450    0.0000 C   0  0  0  0  0  0  0  0  0  0  0  0
    3.7320   -2.3450    0.0000 C   0  0  0  0  0  0  0  0  0  0  0  0
    6.3301    3.1550    0.0000 C   0  0  0  0  0  0  0  0  0  0  0  0
    3.1951    1.3450    0.0000 H   0  0  0  0  0  0  0  0  0  0  0  0
    2.2554    2.2627    0.0000 H   0  0  0  0  0  0  0  0  0  0  0  0
    2.6540    1.5724    0.0000 H   0  0  0  0  0  0  0  0  0  0  0  0
    5.4641    1.0350    0.0000 H   0  0  0  0  0  0  0  0  0  0  0  0
    4.0611    3.4650    0.0000 H   0  0  0  0  0  0  0  0  0  0  0  0
    5.1350   -0.5350    0.0000 H   0  0  0  0  0  0  0  0  0  0  0  0
    2.3291   -0.5350    0.0000 H   0  0  0  0  0  0  0  0  0  0  0  0
    6.8671    1.8450    0.0000 H   0  0  0  0  0  0  0  0  0  0  0  0
    5.4641    4.2750    0.0000 H   0  0  0  0  0  0  0  0  0  0  0  0
    5.1350   -2.1550    0.0000 H   0  0  0  0  0  0  0  0  0  0  0  0
    2.3291   -2.1550    0.0000 H   0  0  0  0  0  0  0  0  0  0  0  0
    6.8671    3.4650    0.0000 H   0  0  0  0  0  0  0  0  0  0  0  0
    3.1951   -3.6550    0.0000 H   0  0  0  0  0  0  0  0  0  0  0  0
    4.2690   -3.6550    0.0000 H   0  0  0  0  0  0  0  0  0  0  0  0
  1  2  2  0  0  0  0
  1  3  2  0  0  0  0
  1  8  1  0  0  0  0
  1 11  1  0  0  0  0
  4  6  1  0  0  0  0
  5  6  2  0  0  0  0
  6  9  1  0  0  0  0
  7 20  1  0  0  0  0
  7 34  1  0  0  0  0
  7 35  1  0  0  0  0
  8  9  1  0  0  0  0
  8 10  1  0  0  0  0
  8 22  1  0  0  0  0
  9 23  1  0  0  0  0
  9 24  1  0  0  0  0
 10 12  2  0  0  0  0
 10 13  1  0  0  0  0
 11 14  2  0  0  0  0
 11 15  1  0  0  0  0
 12 16  1  0  0  0  0
 12 25  1  0  0  0  0
 13 17  2  0  0  0  0
 13 26  1  0  0  0  0
 14 18  1  0  0  0  0
 14 27  1  0  0  0  0
 15 19  2  0  0  0  0
 15 28  1  0  0  0  0
 16 21  2  0  0  0  0
 16 29  1  0  0  0  0
 17 21  1  0  0  0  0
 17 30  1  0  0  0  0
 18 20  2  0  0  0  0
 18 31  1  0  0  0  0
 19 20  1  0  0  0  0
 19 32  1  0  0  0  0
 21 33  1  0  0  0  0
M  CHG  2   4  -1   6   1
M  END
> <PUBCHEM_COMPOUND_CID>
504061
> <PUBCHEM_COMPOUND_CANONICALIZED>
1
> <PUBCHEM_CACTVS_COMPLEXITY>
441
> <PUBCHEM_CACTVS_HBOND_ACCEPTOR>
5
> <PUBCHEM_CACTVS_HBOND_DONOR>
1
> <PUBCHEM_CACTVS_ROTATABLE_BOND>
4
> <PUBCHEM_CACTVS_SUBSKEYS>
AAADccBzOABAAAAAAAAAAAAAAAAAAAAAAAAwYAAAAAAAAAABQAAAHAQUAAAADAjFWASwwYBQQAqBAiRCQ3DCAAAgChAoiBgAZIgIICKgkZGAIABgkAAoyAcQgIAOAAQAAAAAAAAACAAAAAAAAAAAAAAAAA==
> <PUBCHEM_IUPAC_OPENEYE_NAME>
4-(2-nitro-1-phenyl-ethyl)sulfonylaniline
> <PUBCHEM_IUPAC_CAS_NAME>
4-(2-nitro-1-phenylethyl)sulfonylaniline
> <PUBCHEM_IUPAC_NAME_MARKUP>
4-(2-nitro-1-phenylethyl)sulfonylaniline
> <PUBCHEM_IUPAC_NAME>
4-(2-nitro-1-phenylethyl)sulfonylaniline
> <PUBCHEM_IUPAC_SYSTEMATIC_NAME>
4-(2-nitro-1-phenyl-ethyl)sulfonylaniline
> <PUBCHEM_IUPAC_TRADITIONAL_NAME>
[4-(2-nitro-1-phenyl-ethyl)sulfonylphenyl]amine
> <PUBCHEM_IUPAC_INCHI>
InChI=1S/C14H14N2O4S/c15-12-6-8-13(9-7-12)21(19,20)14(10-16(17)18)11-4-2-1-3-5-11/h1-9,14H,10,15H2
> <PUBCHEM_IUPAC_INCHIKEY>
IDQKCJOGAVMSOT-UHFFFAOYSA-N
> <PUBCHEM_XLOGP3_AA>
1.8
> <PUBCHEM_EXACT_MASS>
306.06742811
> <PUBCHEM_MOLECULAR_FORMULA>
C14H14N2O4S
> <PUBCHEM_MOLECULAR_WEIGHT>
306.34
> <PUBCHEM_OPENEYE_CAN_SMILES>
C1=CC=C(C=C1)C(C[N+](=O)[O-])S(=O)(=O)C2=CC=C(C=C2)N
> <PUBCHEM_OPENEYE_ISO_SMILES>
C1=CC=C(C=C1)C(C[N+](=O)[O-])S(=O)(=O)C2=CC=C(C=C2)N
> <PUBCHEM_CACTVS_TPSA>
114
> <PUBCHEM_MONOISOTOPIC_WEIGHT>
306.06742811
> <PUBCHEM_TOTAL_CHARGE>
0
> <PUBCHEM_HEAVY_ATOM_COUNT>
21
> <PUBCHEM_ATOM_DEF_STEREO_COUNT>
0
> <PUBCHEM_ATOM_UDEF_STEREO_COUNT>
1
> <PUBCHEM_BOND_DEF_STEREO_COUNT>
0
> <PUBCHEM_BOND_UDEF_STEREO_COUNT>
0
> <PUBCHEM_ISOTOPIC_ATOM_COUNT>
0
> <PUBCHEM_COMPONENT_COUNT>
1
> <PUBCHEM_CACTVS_TAUTO_COUNT>
-1
> <PUBCHEM_COORDINATE_TYPE>
1
5
255
> <PUBCHEM_BONDANNOTATIONS>
10  12  8
10  13  8
11  14  8
11  15  8
12  16  8
13  17  8
14  18  8
15  19  8
16  21  8
17  21  8
18  20  8
19  20  8
8  9  3
$$$$
