504012
  -OEChem-10302200282D
 23 23  0     1  0  0  0  0  0999 V2000
    4.5691    0.9407    0.0000 O   0  0  0  0  0  0  0  0  0  0  0  0
    2.0000    0.6316    0.0000 O   0  0  0  0  0  0  0  0  0  0  0  0
    5.4921   -2.6471    0.0000 O   0  0  0  0  0  0  0  0  0  0  0  0
    3.7601    0.3529    0.0000 N   0  0  0  0  0  0  0  0  0  0  0  0
    2.6723    2.7007    0.0000 N   0  0  0  0  0  0  0  0  0  0  0  0
    3.2601    1.8917    0.0000 C   0  0  3  0  0  0  0  0  0  0  0  0
    4.2601    1.8917    0.0000 C   0  0  0  0  0  0  0  0  0  0  0  0
    3.7601   -0.6471    0.0000 C   0  0  0  0  0  0  0  0  0  0  0  0
    2.9511    0.9407    0.0000 C   0  0  0  0  0  0  0  0  0  0  0  0
    4.6261   -1.1471    0.0000 C   0  0  0  0  0  0  0  0  0  0  0  0
    4.6261   -2.1471    0.0000 C   0  0  0  0  0  0  0  0  0  0  0  0
    2.6477    1.7947    0.0000 H   0  0  0  0  0  0  0  0  0  0  0  0
    3.1495   -0.5395    0.0000 H   0  0  0  0  0  0  0  0  0  0  0  0
    3.5480   -1.2297    0.0000 H   0  0  0  0  0  0  0  0  0  0  0  0
    4.8665    2.0206    0.0000 H   0  0  0  0  0  0  0  0  0  0  0  0
    4.1953    2.5083    0.0000 H   0  0  0  0  0  0  0  0  0  0  0  0
    5.2367   -1.2548    0.0000 H   0  0  0  0  0  0  0  0  0  0  0  0
    4.8382   -0.5645    0.0000 H   0  0  0  0  0  0  0  0  0  0  0  0
    4.0155   -2.0395    0.0000 H   0  0  0  0  0  0  0  0  0  0  0  0
    4.4140   -2.7297    0.0000 H   0  0  0  0  0  0  0  0  0  0  0  0
    2.9245    3.2671    0.0000 H   0  0  0  0  0  0  0  0  0  0  0  0
    2.0557    2.6359    0.0000 H   0  0  0  0  0  0  0  0  0  0  0  0
    5.4921   -3.2671    0.0000 H   0  0  0  0  0  0  0  0  0  0  0  0
  1  4  1  0  0  0  0
  1  7  1  0  0  0  0
  2  9  2  0  0  0  0
  3 11  1  0  0  0  0
  3 23  1  0  0  0  0
  4  8  1  0  0  0  0
  4  9  1  0  0  0  0
  5  6  1  0  0  0  0
  5 21  1  0  0  0  0
  5 22  1  0  0  0  0
  6  7  1  0  0  0  0
  6  9  1  0  0  0  0
  6 12  1  0  0  0  0
  7 15  1  0  0  0  0
  7 16  1  0  0  0  0
  8 10  1  0  0  0  0
  8 13  1  0  0  0  0
  8 14  1  0  0  0  0
 10 11  1  0  0  0  0
 10 17  1  0  0  0  0
 10 18  1  0  0  0  0
 11 19  1  0  0  0  0
 11 20  1  0  0  0  0
M  END
> <PUBCHEM_COMPOUND_CID>
504012
> <PUBCHEM_COMPOUND_CANONICALIZED>
1
> <PUBCHEM_CACTVS_COMPLEXITY>
151
> <PUBCHEM_CACTVS_HBOND_ACCEPTOR>
4
> <PUBCHEM_CACTVS_HBOND_DONOR>
2
> <PUBCHEM_CACTVS_ROTATABLE_BOND>
3
> <PUBCHEM_CACTVS_SUBSKEYS>
AAADccBjMAAAAAAAAAAAAAAAAAAAAWAAAAAAAAAAAAAAAAAAAAAAHgAUCAAACCjhgAYAAAJQAgAIAAEQEAAAAAAAAAAgAIGIAAACUAQAAAAUQAACNgCAAAAAAAAAAAAAAAAAAAAAAAAAAAAAAAAAAAAAAA==
> <PUBCHEM_IUPAC_OPENEYE_NAME>
4-amino-2-(3-hydroxypropyl)isoxazolidin-3-one
> <PUBCHEM_IUPAC_CAS_NAME>
4-amino-2-(3-hydroxypropyl)-3-isoxazolidinone
> <PUBCHEM_IUPAC_NAME_MARKUP>
4-amino-2-(3-hydroxypropyl)-1,2-oxazolidin-3-one
> <PUBCHEM_IUPAC_NAME>
4-amino-2-(3-hydroxypropyl)-1,2-oxazolidin-3-one
> <PUBCHEM_IUPAC_SYSTEMATIC_NAME>
4-azanyl-2-(3-oxidanylpropyl)-1,2-oxazolidin-3-one
> <PUBCHEM_IUPAC_TRADITIONAL_NAME>
4-amino-2-(3-hydroxypropyl)isoxazolidin-3-one
> <PUBCHEM_IUPAC_INCHI>
InChI=1S/C6H12N2O3/c7-5-4-11-8(6(5)10)2-1-3-9/h5,9H,1-4,7H2
> <PUBCHEM_IUPAC_INCHIKEY>
VXTDCDOBDYYLAW-UHFFFAOYSA-N
> <PUBCHEM_XLOGP3_AA>
-1.7
> <PUBCHEM_EXACT_MASS>
160.08479225
> <PUBCHEM_MOLECULAR_FORMULA>
C6H12N2O3
> <PUBCHEM_MOLECULAR_WEIGHT>
160.17
> <PUBCHEM_OPENEYE_CAN_SMILES>
C1C(C(=O)N(O1)CCCO)N
> <PUBCHEM_OPENEYE_ISO_SMILES>
C1C(C(=O)N(O1)CCCO)N
> <PUBCHEM_CACTVS_TPSA>
75.8
> <PUBCHEM_MONOISOTOPIC_WEIGHT>
160.08479225
> <PUBCHEM_TOTAL_CHARGE>
0
> <PUBCHEM_HEAVY_ATOM_COUNT>
11
> <PUBCHEM_ATOM_DEF_STEREO_COUNT>
0
> <PUBCHEM_ATOM_UDEF_STEREO_COUNT>
1
> <PUBCHEM_BOND_DEF_STEREO_COUNT>
0
> <PUBCHEM_BOND_UDEF_STEREO_COUNT>
0
> <PUBCHEM_ISOTOPIC_ATOM_COUNT>
0
> <PUBCHEM_COMPONENT_COUNT>
1
> <PUBCHEM_CACTVS_TAUTO_COUNT>
-1
> <PUBCHEM_COORDINATE_TYPE>
1
5
255
> <PUBCHEM_BONDANNOTATIONS>
6  5  3
$$$$
