504011
  -OEChem-10302200282D
 20 20  0     1  0  0  0  0  0999 V2000
    4.5691    0.5357    0.0000 O   0  0  0  0  0  0  0  0  0  0  0  0
    2.0000    0.2266    0.0000 O   0  0  0  0  0  0  0  0  0  0  0  0
    4.6261   -2.5521    0.0000 O   0  0  0  0  0  0  0  0  0  0  0  0
    3.7601   -0.0521    0.0000 N   0  0  0  0  0  0  0  0  0  0  0  0
    2.6723    2.2957    0.0000 N   0  0  0  0  0  0  0  0  0  0  0  0
    3.2601    1.4867    0.0000 C   0  0  3  0  0  0  0  0  0  0  0  0
    4.2601    1.4867    0.0000 C   0  0  0  0  0  0  0  0  0  0  0  0
    2.9511    0.5357    0.0000 C   0  0  0  0  0  0  0  0  0  0  0  0
    3.7601   -1.0521    0.0000 C   0  0  0  0  0  0  0  0  0  0  0  0
    4.6261   -1.5521    0.0000 C   0  0  0  0  0  0  0  0  0  0  0  0
    2.6477    1.3897    0.0000 H   0  0  0  0  0  0  0  0  0  0  0  0
    4.8665    1.6156    0.0000 H   0  0  0  0  0  0  0  0  0  0  0  0
    4.1953    2.1033    0.0000 H   0  0  0  0  0  0  0  0  0  0  0  0
    3.1495   -0.9445    0.0000 H   0  0  0  0  0  0  0  0  0  0  0  0
    3.5480   -1.6347    0.0000 H   0  0  0  0  0  0  0  0  0  0  0  0
    5.2367   -1.6598    0.0000 H   0  0  0  0  0  0  0  0  0  0  0  0
    4.8382   -0.9695    0.0000 H   0  0  0  0  0  0  0  0  0  0  0  0
    2.9245    2.8621    0.0000 H   0  0  0  0  0  0  0  0  0  0  0  0
    2.0557    2.2309    0.0000 H   0  0  0  0  0  0  0  0  0  0  0  0
    5.1630   -2.8621    0.0000 H   0  0  0  0  0  0  0  0  0  0  0  0
  1  4  1  0  0  0  0
  1  7  1  0  0  0  0
  2  8  2  0  0  0  0
  3 10  1  0  0  0  0
  3 20  1  0  0  0  0
  4  8  1  0  0  0  0
  4  9  1  0  0  0  0
  5  6  1  0  0  0  0
  5 18  1  0  0  0  0
  5 19  1  0  0  0  0
  6  7  1  0  0  0  0
  6  8  1  0  0  0  0
  6 11  1  0  0  0  0
  7 12  1  0  0  0  0
  7 13  1  0  0  0  0
  9 10  1  0  0  0  0
  9 14  1  0  0  0  0
  9 15  1  0  0  0  0
 10 16  1  0  0  0  0
 10 17  1  0  0  0  0
M  END
> <PUBCHEM_COMPOUND_CID>
504011
> <PUBCHEM_COMPOUND_CANONICALIZED>
1
> <PUBCHEM_CACTVS_COMPLEXITY>
139
> <PUBCHEM_CACTVS_HBOND_ACCEPTOR>
4
> <PUBCHEM_CACTVS_HBOND_DONOR>
2
> <PUBCHEM_CACTVS_ROTATABLE_BOND>
2
> <PUBCHEM_CACTVS_SUBSKEYS>
AAADccBjMAAAAAAAAAAAAAAAAAAAAWAAAAAAAAAAAAAAAAAAAAAAHgAUCAAACCjhgAYAAAJQAgAIAAEQEAAAAAAAAAAgAIGIAAACUAQAAAAUAAACNgCQAAAAAAAAAAAAAAAAAAAAAAAAAAAAAAAAAAAAAA==
> <PUBCHEM_IUPAC_OPENEYE_NAME>
4-amino-2-(2-hydroxyethyl)isoxazolidin-3-one
> <PUBCHEM_IUPAC_CAS_NAME>
4-amino-2-(2-hydroxyethyl)-3-isoxazolidinone
> <PUBCHEM_IUPAC_NAME_MARKUP>
4-amino-2-(2-hydroxyethyl)-1,2-oxazolidin-3-one
> <PUBCHEM_IUPAC_NAME>
4-amino-2-(2-hydroxyethyl)-1,2-oxazolidin-3-one
> <PUBCHEM_IUPAC_SYSTEMATIC_NAME>
4-azanyl-2-(2-hydroxyethyl)-1,2-oxazolidin-3-one
> <PUBCHEM_IUPAC_TRADITIONAL_NAME>
4-amino-2-(2-hydroxyethyl)isoxazolidin-3-one
> <PUBCHEM_IUPAC_INCHI>
InChI=1S/C5H10N2O3/c6-4-3-10-7(1-2-8)5(4)9/h4,8H,1-3,6H2
> <PUBCHEM_IUPAC_INCHIKEY>
HUAHJKSSACMWTL-UHFFFAOYSA-N
> <PUBCHEM_XLOGP3_AA>
-2
> <PUBCHEM_EXACT_MASS>
146.06914219
> <PUBCHEM_MOLECULAR_FORMULA>
C5H10N2O3
> <PUBCHEM_MOLECULAR_WEIGHT>
146.14
> <PUBCHEM_OPENEYE_CAN_SMILES>
C1C(C(=O)N(O1)CCO)N
> <PUBCHEM_OPENEYE_ISO_SMILES>
C1C(C(=O)N(O1)CCO)N
> <PUBCHEM_CACTVS_TPSA>
75.8
> <PUBCHEM_MONOISOTOPIC_WEIGHT>
146.06914219
> <PUBCHEM_TOTAL_CHARGE>
0
> <PUBCHEM_HEAVY_ATOM_COUNT>
10
> <PUBCHEM_ATOM_DEF_STEREO_COUNT>
0
> <PUBCHEM_ATOM_UDEF_STEREO_COUNT>
1
> <PUBCHEM_BOND_DEF_STEREO_COUNT>
0
> <PUBCHEM_BOND_UDEF_STEREO_COUNT>
0
> <PUBCHEM_ISOTOPIC_ATOM_COUNT>
0
> <PUBCHEM_COMPONENT_COUNT>
1
> <PUBCHEM_CACTVS_TAUTO_COUNT>
-1
> <PUBCHEM_COORDINATE_TYPE>
1
5
255
> <PUBCHEM_BONDANNOTATIONS>
6  5  3
$$$$
