504081
  -OEChem-10302200282D
124126  0     1  0  0  0  0  0999 V2000
   10.6603    6.5600    0.0000 F   0  0  0  0  0  0  0  0  0  0  0  0
   12.3923    6.5600    0.0000 F   0  0  0  0  0  0  0  0  0  0  0  0
   12.3923    3.5600    0.0000 O   0  0  0  0  0  0  0  0  0  0  0  0
   11.5263    0.0600    0.0000 O   0  0  0  0  0  0  0  0  0  0  0  0
    8.0622   -0.9400    0.0000 O   0  0  0  0  0  0  0  0  0  0  0  0
    9.7942    6.0600    0.0000 O   0  0  0  0  0  0  0  0  0  0  0  0
    8.9282    4.5600    0.0000 O   0  0  0  0  0  0  0  0  0  0  0  0
    8.0622    3.0600    0.0000 O   0  0  0  0  0  0  0  0  0  0  0  0
    7.1962   -1.4400    0.0000 O   0  0  0  0  0  0  0  0  0  0  0  0
    7.1962    1.5600    0.0000 O   0  0  0  0  0  0  0  0  0  0  0  0
    4.5981   -3.9400    0.0000 O   0  0  0  0  0  0  0  0  0  0  0  0
    4.5981   -5.9400    0.0000 O   0  0  0  0  0  0  0  0  0  0  0  0
    6.3301   -5.9400    0.0000 O   0  0  0  0  0  0  0  0  0  0  0  0
    2.0000   -1.4400    0.0000 O   0  0  0  0  0  0  0  0  0  0  0  0
    3.7320   -4.4400    0.0000 O   0  0  0  0  0  0  0  0  0  0  0  0
   10.6603    1.5600    0.0000 N   0  0  0  0  0  0  0  0  0  0  0  0
   10.6603    3.5600    0.0000 N   0  0  0  0  0  0  0  0  0  0  0  0
    9.7942   -0.9400    0.0000 N   0  0  0  0  0  0  0  0  0  0  0  0
    8.0622   -2.9400    0.0000 N   0  0  0  0  0  0  0  0  0  0  0  0
    5.4641   -2.4400    0.0000 N   0  0  0  0  0  0  0  0  0  0  0  0
    2.8660   -2.9400    0.0000 N   0  0  0  0  0  0  0  0  0  0  0  0
   13.2583    2.0600    0.0000 C   0  0  0  0  0  0  0  0  0  0  0  0
   13.2583    3.0600    0.0000 C   0  0  0  0  0  0  0  0  0  0  0  0
   14.1244    1.5600    0.0000 C   0  0  0  0  0  0  0  0  0  0  0  0
   12.3923    1.5600    0.0000 C   0  0  0  0  0  0  0  0  0  0  0  0
   14.1244    3.5600    0.0000 C   0  0  0  0  0  0  0  0  0  0  0  0
   14.9904    2.0600    0.0000 C   0  0  0  0  0  0  0  0  0  0  0  0
   14.9904    3.0600    0.0000 C   0  0  0  0  0  0  0  0  0  0  0  0
   11.5263    2.0600    0.0000 C   0  0  3  0  0  0  0  0  0  0  0  0
   11.5263    3.0600    0.0000 C   0  0  0  0  0  0  0  0  0  0  0  0
   10.6603    0.5600    0.0000 C   0  0  0  0  0  0  0  0  0  0  0  0
    9.7942    0.0600    0.0000 C   0  0  2  0  0  0  0  0  0  0  0  0
   10.6603    4.5600    0.0000 C   0  0  1  0  0  0  0  0  0  0  0  0
    8.9282    0.5600    0.0000 C   0  0  0  0  0  0  0  0  0  0  0  0
    8.9282   -2.4400    0.0000 C   0  0  3  0  0  0  0  0  0  0  0  0
   11.5263    5.0600    0.0000 C   0  0  0  0  0  0  0  0  0  0  0  0
    9.7942   -2.9400    0.0000 C   0  0  0  0  0  0  0  0  0  0  0  0
    8.9282   -1.4400    0.0000 C   0  0  0  0  0  0  0  0  0  0  0  0
    8.9282    1.5600    0.0000 C   0  0  0  0  0  0  0  0  0  0  0  0
    9.7942    5.0600    0.0000 C   0  0  0  0  0  0  0  0  0  0  0  0
   11.5263    6.0600    0.0000 C   0  0  0  0  0  0  0  0  0  0  0  0
    9.7942   -3.9400    0.0000 C   0  0  0  0  0  0  0  0  0  0  0  0
   10.7942   -2.9400    0.0000 C   0  0  0  0  0  0  0  0  0  0  0  0
    7.1962   -2.4400    0.0000 C   0  0  0  0  0  0  0  0  0  0  0  0
    6.3301   -2.9400    0.0000 C   0  0  2  0  0  0  0  0  0  0  0  0
    8.0622    2.0600    0.0000 C   0  0  0  0  0  0  0  0  0  0  0  0
    6.3301   -3.9400    0.0000 C   0  0  0  0  0  0  0  0  0  0  0  0
   10.6603   -4.4400    0.0000 C   0  0  0  0  0  0  0  0  0  0  0  0
   11.2942   -2.0740    0.0000 C   0  0  0  0  0  0  0  0  0  0  0  0
    8.9282   -4.4400    0.0000 C   0  0  0  0  0  0  0  0  0  0  0  0
   11.2942   -3.8060    0.0000 C   0  0  0  0  0  0  0  0  0  0  0  0
    5.4641   -4.4400    0.0000 C   0  0  0  0  0  0  0  0  0  0  0  0
   10.6603   -5.4400    0.0000 C   0  0  0  0  0  0  0  0  0  0  0  0
   12.2942   -2.0740    0.0000 C   0  0  0  0  0  0  0  0  0  0  0  0
    8.9282   -5.4400    0.0000 C   0  0  0  0  0  0  0  0  0  0  0  0
   12.2942   -3.8060    0.0000 C   0  0  0  0  0  0  0  0  0  0  0  0
    4.5981   -2.9400    0.0000 C   0  0  0  0  0  0  0  0  0  0  0  0
    9.7942   -5.9400    0.0000 C   0  0  0  0  0  0  0  0  0  0  0  0
   12.7942   -2.9400    0.0000 C   0  0  0  0  0  0  0  0  0  0  0  0
    3.7320   -2.4400    0.0000 C   0  0  3  0  0  0  0  0  0  0  0  0
    3.7320   -1.4400    0.0000 C   0  0  0  0  0  0  0  0  0  0  0  0
    5.4641   -5.4400    0.0000 C   0  0  0  0  0  0  0  0  0  0  0  0
    2.8660   -0.9400    0.0000 C   0  0  0  0  0  0  0  0  0  0  0  0
    2.8660   -3.9400    0.0000 C   0  0  0  0  0  0  0  0  0  0  0  0
    2.8660    0.0600    0.0000 C   0  0  0  0  0  0  0  0  0  0  0  0
    2.0000   -4.4400    0.0000 C   0  0  0  0  0  0  0  0  0  0  0  0
   13.2583    1.4400    0.0000 H   0  0  0  0  0  0  0  0  0  0  0  0
   13.0463    3.6426    0.0000 H   0  0  0  0  0  0  0  0  0  0  0  0
   12.6477    2.9523    0.0000 H   0  0  0  0  0  0  0  0  0  0  0  0
   13.7258    1.0850    0.0000 H   0  0  0  0  0  0  0  0  0  0  0  0
   14.5229    1.0850    0.0000 H   0  0  0  0  0  0  0  0  0  0  0  0
   11.9938    1.0850    0.0000 H   0  0  0  0  0  0  0  0  0  0  0  0
   12.7908    1.0850    0.0000 H   0  0  0  0  0  0  0  0  0  0  0  0
   14.5229    4.0350    0.0000 H   0  0  0  0  0  0  0  0  0  0  0  0
   13.7258    4.0350    0.0000 H   0  0  0  0  0  0  0  0  0  0  0  0
   15.2024    1.4774    0.0000 H   0  0  0  0  0  0  0  0  0  0  0  0
   15.6010    2.1677    0.0000 H   0  0  0  0  0  0  0  0  0  0  0  0
   15.6010    2.9523    0.0000 H   0  0  0  0  0  0  0  0  0  0  0  0
   15.2024    3.6426    0.0000 H   0  0  0  0  0  0  0  0  0  0  0  0
   10.9893    2.3700    0.0000 H   0  0  0  0  0  0  0  0  0  0  0  0
   10.1233    1.8700    0.0000 H   0  0  0  0  0  0  0  0  0  0  0  0
    9.2573   -0.2500    0.0000 H   0  0  0  0  0  0  0  0  0  0  0  0
   10.1233    3.2500    0.0000 H   0  0  0  0  0  0  0  0  0  0  0  0
   11.1972    4.2500    0.0000 H   0  0  0  0  0  0  0  0  0  0  0  0
    8.3176    0.6677    0.0000 H   0  0  0  0  0  0  0  0  0  0  0  0
    8.7162   -0.0226    0.0000 H   0  0  0  0  0  0  0  0  0  0  0  0
   10.3312   -1.2500    0.0000 H   0  0  0  0  0  0  0  0  0  0  0  0
    8.9282   -3.0600    0.0000 H   0  0  0  0  0  0  0  0  0  0  0  0
   11.7383    4.4774    0.0000 H   0  0  0  0  0  0  0  0  0  0  0  0
   12.1369    5.1677    0.0000 H   0  0  0  0  0  0  0  0  0  0  0  0
    9.9547   -2.3411    0.0000 H   0  0  0  0  0  0  0  0  0  0  0  0
    9.5388    1.4523    0.0000 H   0  0  0  0  0  0  0  0  0  0  0  0
    9.1403    2.1426    0.0000 H   0  0  0  0  0  0  0  0  0  0  0  0
    8.0622   -3.5600    0.0000 H   0  0  0  0  0  0  0  0  0  0  0  0
   12.0632    5.7500    0.0000 H   0  0  0  0  0  0  0  0  0  0  0  0
    5.7932   -3.2500    0.0000 H   0  0  0  0  0  0  0  0  0  0  0  0
    6.5422   -4.5226    0.0000 H   0  0  0  0  0  0  0  0  0  0  0  0
    6.9407   -3.8323    0.0000 H   0  0  0  0  0  0  0  0  0  0  0  0
   11.1972   -4.1300    0.0000 H   0  0  0  0  0  0  0  0  0  0  0  0
   10.9842   -1.5370    0.0000 H   0  0  0  0  0  0  0  0  0  0  0  0
    8.3913   -4.1300    0.0000 H   0  0  0  0  0  0  0  0  0  0  0  0
   10.9842   -4.3430    0.0000 H   0  0  0  0  0  0  0  0  0  0  0  0
    9.2573    6.3700    0.0000 H   0  0  0  0  0  0  0  0  0  0  0  0
    5.4641   -1.8200    0.0000 H   0  0  0  0  0  0  0  0  0  0  0  0
    5.2520   -3.8574    0.0000 H   0  0  0  0  0  0  0  0  0  0  0  0
    4.8535   -4.5477    0.0000 H   0  0  0  0  0  0  0  0  0  0  0  0
   11.1972   -5.7500    0.0000 H   0  0  0  0  0  0  0  0  0  0  0  0
   12.6042   -1.5370    0.0000 H   0  0  0  0  0  0  0  0  0  0  0  0
    8.3913   -5.7500    0.0000 H   0  0  0  0  0  0  0  0  0  0  0  0
   12.6042   -4.3430    0.0000 H   0  0  0  0  0  0  0  0  0  0  0  0
    9.7942   -6.5600    0.0000 H   0  0  0  0  0  0  0  0  0  0  0  0
   13.4142   -2.9400    0.0000 H   0  0  0  0  0  0  0  0  0  0  0  0
    3.7320   -3.0600    0.0000 H   0  0  0  0  0  0  0  0  0  0  0  0
    7.5252    3.3700    0.0000 H   0  0  0  0  0  0  0  0  0  0  0  0
    4.3426   -1.5477    0.0000 H   0  0  0  0  0  0  0  0  0  0  0  0
    3.9441   -0.8574    0.0000 H   0  0  0  0  0  0  0  0  0  0  0  0
    2.3291   -2.6300    0.0000 H   0  0  0  0  0  0  0  0  0  0  0  0
    4.5981   -6.5600    0.0000 H   0  0  0  0  0  0  0  0  0  0  0  0
    3.4860    0.0600    0.0000 H   0  0  0  0  0  0  0  0  0  0  0  0
    2.8660    0.6800    0.0000 H   0  0  0  0  0  0  0  0  0  0  0  0
    2.2460    0.0600    0.0000 H   0  0  0  0  0  0  0  0  0  0  0  0
    1.6900   -3.9031    0.0000 H   0  0  0  0  0  0  0  0  0  0  0  0
    1.4631   -4.7500    0.0000 H   0  0  0  0  0  0  0  0  0  0  0  0
    2.3100   -4.9769    0.0000 H   0  0  0  0  0  0  0  0  0  0  0  0
  1 41  1  0  0  0  0
  2 41  1  0  0  0  0
  3 30  2  0  0  0  0
  4 31  2  0  0  0  0
  5 38  2  0  0  0  0
  6 40  1  0  0  0  0
  6103  1  0  0  0  0
  7 40  2  0  0  0  0
  8 46  1  0  0  0  0
  8114  1  0  0  0  0
  9 44  2  0  0  0  0
 10 46  2  0  0  0  0
 11 57  2  0  0  0  0
 12 62  1  0  0  0  0
 12118  1  0  0  0  0
 13 62  2  0  0  0  0
 14 63  2  0  0  0  0
 15 64  2  0  0  0  0
 16 29  1  0  0  0  0
 16 31  1  0  0  0  0
 16 81  1  0  0  0  0
 17 30  1  0  0  0  0
 33 17  1  6  0  0  0
 17 83  1  0  0  0  0
 32 18  1  1  0  0  0
 18 38  1  0  0  0  0
 18 87  1  0  0  0  0
 19 35  1  0  0  0  0
 19 44  1  0  0  0  0
 19 94  1  0  0  0  0
 45 20  1  6  0  0  0
 20 57  1  0  0  0  0
 20104  1  0  0  0  0
 21 60  1  0  0  0  0
 21 64  1  0  0  0  0
 21117  1  0  0  0  0
 22 23  1  0  0  0  0
 22 24  1  0  0  0  0
 22 25  1  0  0  0  0
 22 67  1  0  0  0  0
 23 26  1  0  0  0  0
 23 68  1  0  0  0  0
 23 69  1  0  0  0  0
 24 27  1  0  0  0  0
 24 70  1  0  0  0  0
 24 71  1  0  0  0  0
 25 29  1  0  0  0  0
 25 72  1  0  0  0  0
 25 73  1  0  0  0  0
 26 28  1  0  0  0  0
 26 74  1  0  0  0  0
 26 75  1  0  0  0  0
 27 28  1  0  0  0  0
 27 76  1  0  0  0  0
 27 77  1  0  0  0  0
 28 78  1  0  0  0  0
 28 79  1  0  0  0  0
 29 30  1  0  0  0  0
 29 80  1  0  0  0  0
 31 32  1  0  0  0  0
 32 34  1  0  0  0  0
 32 82  1  0  0  0  0
 33 36  1  0  0  0  0
 33 40  1  0  0  0  0
 33 84  1  0  0  0  0
 34 39  1  0  0  0  0
 34 85  1  0  0  0  0
 34 86  1  0  0  0  0
 35 37  1  0  0  0  0
 35 38  1  0  0  0  0
 35 88  1  0  0  0  0
 36 41  1  0  0  0  0
 36 89  1  0  0  0  0
 36 90  1  0  0  0  0
 37 42  1  0  0  0  0
 37 43  1  0  0  0  0
 37 91  1  0  0  0  0
 39 46  1  0  0  0  0
 39 92  1  0  0  0  0
 39 93  1  0  0  0  0
 41 95  1  0  0  0  0
 42 48  2  0  0  0  0
 42 50  1  0  0  0  0
 43 49  2  0  0  0  0
 43 51  1  0  0  0  0
 44 45  1  0  0  0  0
 45 47  1  0  0  0  0
 45 96  1  0  0  0  0
 47 52  1  0  0  0  0
 47 97  1  0  0  0  0
 47 98  1  0  0  0  0
 48 53  1  0  0  0  0
 48 99  1  0  0  0  0
 49 54  1  0  0  0  0
 49100  1  0  0  0  0
 50 55  2  0  0  0  0
 50101  1  0  0  0  0
 51 56  2  0  0  0  0
 51102  1  0  0  0  0
 52 62  1  0  0  0  0
 52105  1  0  0  0  0
 52106  1  0  0  0  0
 53 58  2  0  0  0  0
 53107  1  0  0  0  0
 54 59  2  0  0  0  0
 54108  1  0  0  0  0
 55 58  1  0  0  0  0
 55109  1  0  0  0  0
 56 59  1  0  0  0  0
 56110  1  0  0  0  0
 57 60  1  0  0  0  0
 58111  1  0  0  0  0
 59112  1  0  0  0  0
 60 61  1  0  0  0  0
 60113  1  0  0  0  0
 61 63  1  0  0  0  0
 61115  1  0  0  0  0
 61116  1  0  0  0  0
 63 65  1  0  0  0  0
 64 66  1  0  0  0  0
 65119  1  0  0  0  0
 65120  1  0  0  0  0
 65121  1  0  0  0  0
 66122  1  0  0  0  0
 66123  1  0  0  0  0
 66124  1  0  0  0  0
M  END
> <PUBCHEM_COMPOUND_CID>
504081
> <PUBCHEM_COMPOUND_CANONICALIZED>
1
> <PUBCHEM_CACTVS_COMPLEXITY>
1680
> <PUBCHEM_CACTVS_HBOND_ACCEPTOR>
15
> <PUBCHEM_CACTVS_HBOND_DONOR>
9
> <PUBCHEM_CACTVS_ROTATABLE_BOND>
27
> <PUBCHEM_CACTVS_SUBSKEYS>
AAADcfB/vYAAAAAAAAAAAAAAAAAAAAAAAAAwYMAAAAAAAAABQAAAHwAQCAAADSzBmBQyCILAAgCIAqHSGAACAAAgAAAIiIGIAIgKYDqAkTGUYAAklgCYiAe9n8KOgAAAAAAAAAAAAAAAAAAAAAAAAAAAAA==
> <PUBCHEM_IUPAC_OPENEYE_NAME>
(4S)-4-[(2-acetamido-4-oxo-pentanoyl)amino]-5-[[1-benzhydryl-2-[[(1S)-3-carboxy-1-[[2-[[(1S)-1-carboxy-3,3-difluoro-propyl]amino]-1-(cyclohexylmethyl)-2-oxo-ethyl]carbamoyl]propyl]amino]-2-oxo-ethyl]amino]-5-oxo-pentanoic acid
> <PUBCHEM_IUPAC_CAS_NAME>
(4S)-4-[(2-acetamido-1,4-dioxopentyl)amino]-5-[[1-[[(2S)-4-carboxy-1-[[1-[[(1S)-1-carboxy-3,3-difluoropropyl]amino]-3-cyclohexyl-1-oxopropan-2-yl]amino]-1-oxobutan-2-yl]amino]-1-oxo-3,3-diphenylpropan-2-yl]amino]-5-oxopentanoic acid
> <PUBCHEM_IUPAC_NAME_MARKUP>
(4<I>S</I>)-4-[(2-acetamido-4-oxopentanoyl)amino]-5-[[1-[[(2<I>S</I>)-4-carboxy-1-[[1-[[(1<I>S</I>)-1-carboxy-3,3-difluoropropyl]amino]-3-cyclohexyl-1-oxopropan-2-yl]amino]-1-oxobutan-2-yl]amino]-1-oxo-3,3-diphenylpropan-2-yl]amino]-5-oxopentanoic acid
> <PUBCHEM_IUPAC_NAME>
(4S)-4-[(2-acetamido-4-oxopentanoyl)amino]-5-[[1-[[(2S)-4-carboxy-1-[[1-[[(1S)-1-carboxy-3,3-difluoropropyl]amino]-3-cyclohexyl-1-oxopropan-2-yl]amino]-1-oxobutan-2-yl]amino]-1-oxo-3,3-diphenylpropan-2-yl]amino]-5-oxopentanoic acid
> <PUBCHEM_IUPAC_SYSTEMATIC_NAME>
(4S)-4-[(2-acetamido-4-oxidanylidene-pentanoyl)amino]-5-[[1-[[(2S)-1-[[1-[[(2S)-4,4-bis(fluoranyl)-1-oxidanyl-1-oxidanylidene-butan-2-yl]amino]-3-cyclohexyl-1-oxidanylidene-propan-2-yl]amino]-5-oxidanyl-1,5-bis(oxidanylidene)pentan-2-yl]amino]-1-oxidanylidene-3,3-diphenyl-propan-2-yl]amino]-5-oxidanylidene-pentanoic acid
> <PUBCHEM_IUPAC_TRADITIONAL_NAME>
(4S)-4-[(2-acetamido-4-keto-pentanoyl)amino]-5-[[1-benzhydryl-2-[[(1S)-3-carboxy-1-[[2-[[(1S)-1-carboxy-3,3-difluoro-propyl]amino]-1-(cyclohexylmethyl)-2-keto-ethyl]carbamoyl]propyl]amino]-2-keto-ethyl]amino]-5-keto-valeric acid
> <PUBCHEM_IUPAC_INCHI>
InChI=1S/C45H58F2N6O13/c1-25(54)22-32(48-26(2)55)42(62)49-31(19-21-37(58)59)41(61)53-39(38(28-14-8-4-9-15-28)29-16-10-5-11-17-29)44(64)50-30(18-20-36(56)57)40(60)51-33(23-27-12-6-3-7-13-27)43(63)52-34(45(65)66)24-35(46)47/h4-5,8-11,14-17,27,30-35,38-39H,3,6-7,12-13,18-24H2,1-2H3,(H,48,55)(H,49,62)(H,50,64)(H,51,60)(H,52,63)(H,53,61)(H,56,57)(H,58,59)(H,65,66)/t30-,31-,32?,33?,34-,39?/m0/s1
> <PUBCHEM_IUPAC_INCHIKEY>
QUFAVBVSVKEJPH-IZAFFZGYSA-N
> <PUBCHEM_XLOGP3_AA>
3.2
> <PUBCHEM_EXACT_MASS>
928.40299225
> <PUBCHEM_MOLECULAR_FORMULA>
C45H58F2N6O13
> <PUBCHEM_MOLECULAR_WEIGHT>
929.0
> <PUBCHEM_OPENEYE_CAN_SMILES>
CC(=O)CC(C(=O)NC(CCC(=O)O)C(=O)NC(C(C1=CC=CC=C1)C2=CC=CC=C2)C(=O)NC(CCC(=O)O)C(=O)NC(CC3CCCCC3)C(=O)NC(CC(F)F)C(=O)O)NC(=O)C
> <PUBCHEM_OPENEYE_ISO_SMILES>
CC(=O)CC(C(=O)N[C@@H](CCC(=O)O)C(=O)NC(C(C1=CC=CC=C1)C2=CC=CC=C2)C(=O)N[C@@H](CCC(=O)O)C(=O)NC(CC3CCCCC3)C(=O)N[C@@H](CC(F)F)C(=O)O)NC(=O)C
> <PUBCHEM_CACTVS_TPSA>
304
> <PUBCHEM_MONOISOTOPIC_WEIGHT>
928.40299225
> <PUBCHEM_TOTAL_CHARGE>
0
> <PUBCHEM_HEAVY_ATOM_COUNT>
66
> <PUBCHEM_ATOM_DEF_STEREO_COUNT>
3
> <PUBCHEM_ATOM_UDEF_STEREO_COUNT>
3
> <PUBCHEM_BOND_DEF_STEREO_COUNT>
0
> <PUBCHEM_BOND_UDEF_STEREO_COUNT>
0
> <PUBCHEM_ISOTOPIC_ATOM_COUNT>
0
> <PUBCHEM_COMPONENT_COUNT>
1
> <PUBCHEM_CACTVS_TAUTO_COUNT>
-1
> <PUBCHEM_COORDINATE_TYPE>
1
5
255
> <PUBCHEM_BONDANNOTATIONS>
33  17  6
32  18  5
45  20  6
29  25  3
35  37  3
42  48  8
42  50  8
43  49  8
43  51  8
48  53  8
49  54  8
50  55  8
51  56  8
53  58  8
54  59  8
55  58  8
56  59  8
60  61  3
$$$$
