504034
  -OEChem-10302200282D
 71 73  0     1  0  0  0  0  0999 V2000
    4.6783   -2.5764    0.0000 N   0  0  0  0  0  0  0  0  0  0  0  0
    4.6783   -4.1858    0.0000 N   0  3  0  0  0  0  0  0  0  0  0  0
    2.8660   -4.3811    0.0000 N   0  0  0  0  0  0  0  0  0  0  0  0
    2.0000   -2.8811    0.0000 N   0  0  0  0  0  0  0  0  0  0  0  0
    2.8660   -1.3811    0.0000 N   0  0  0  0  0  0  0  0  0  0  0  0
   11.4348    4.1578    0.0000 C   0  0  0  0  0  0  0  0  0  0  0  0
   11.1241    3.2073    0.0000 C   0  0  2  0  0  0  0  0  0  0  0  0
   12.4133    4.3641    0.0000 C   0  0  0  0  0  0  0  0  0  0  0  0
   13.0811    3.6198    0.0000 C   0  0  0  0  0  0  0  0  0  0  0  0
   11.7920    2.4630    0.0000 C   0  0  0  0  0  0  0  0  0  0  0  0
   10.1456    3.0011    0.0000 C   0  0  0  0  0  0  0  0  0  0  0  0
   12.7705    2.6692    0.0000 C   0  0  0  0  0  0  0  0  0  0  0  0
   11.2286    5.1364    0.0000 C   0  0  0  0  0  0  0  0  0  0  0  0
   10.4843    4.4685    0.0000 C   0  0  0  0  0  0  0  0  0  0  0  0
    9.8349    2.0506    0.0000 C   0  0  0  0  0  0  0  0  0  0  0  0
   11.4813    1.5125    0.0000 C   0  0  0  0  0  0  0  0  0  0  0  0
    8.8564    1.8444    0.0000 C   0  0  0  0  0  0  0  0  0  0  0  0
    8.5458    0.8938    0.0000 C   0  0  0  0  0  0  0  0  0  0  0  0
    8.1886    2.5887    0.0000 C   0  0  0  0  0  0  0  0  0  0  0  0
    7.5673    0.6876    0.0000 C   0  0  0  0  0  0  0  0  0  0  0  0
    7.2566   -0.2629    0.0000 C   0  0  0  0  0  0  0  0  0  0  0  0
    6.2781   -0.4691    0.0000 C   0  0  0  0  0  0  0  0  0  0  0  0
    5.9674   -1.4196    0.0000 C   0  0  0  0  0  0  0  0  0  0  0  0
    4.9889   -1.6258    0.0000 C   0  0  0  0  0  0  0  0  0  0  0  0
    5.6103    0.2752    0.0000 C   0  0  0  0  0  0  0  0  0  0  0  0
    3.7320   -2.8811    0.0000 C   0  0  0  0  0  0  0  0  0  0  0  0
    5.2619   -3.3811    0.0000 C   0  0  0  0  0  0  0  0  0  0  0  0
    3.7320   -3.8811    0.0000 C   0  0  0  0  0  0  0  0  0  0  0  0
    2.8660   -2.3811    0.0000 C   0  0  0  0  0  0  0  0  0  0  0  0
    4.9889   -5.1364    0.0000 C   0  0  0  0  0  0  0  0  0  0  0  0
    2.0000   -3.8811    0.0000 C   0  0  0  0  0  0  0  0  0  0  0  0
   10.7100    3.6688    0.0000 H   0  0  0  0  0  0  0  0  0  0  0  0
   12.9396    4.6917    0.0000 H   0  0  0  0  0  0  0  0  0  0  0  0
   12.1820    4.9393    0.0000 H   0  0  0  0  0  0  0  0  0  0  0  0
   13.6280    3.3278    0.0000 H   0  0  0  0  0  0  0  0  0  0  0  0
   13.4637    4.1077    0.0000 H   0  0  0  0  0  0  0  0  0  0  0  0
   10.1250    3.6208    0.0000 H   0  0  0  0  0  0  0  0  0  0  0  0
    9.5318    3.0885    0.0000 H   0  0  0  0  0  0  0  0  0  0  0  0
   12.7910    2.0496    0.0000 H   0  0  0  0  0  0  0  0  0  0  0  0
   13.3843    2.5819    0.0000 H   0  0  0  0  0  0  0  0  0  0  0  0
   11.8352    5.2642    0.0000 H   0  0  0  0  0  0  0  0  0  0  0  0
   11.1007    5.7430    0.0000 H   0  0  0  0  0  0  0  0  0  0  0  0
   10.6219    5.0085    0.0000 H   0  0  0  0  0  0  0  0  0  0  0  0
   10.6769    5.0578    0.0000 H   0  0  0  0  0  0  0  0  0  0  0  0
    9.8949    4.6611    0.0000 H   0  0  0  0  0  0  0  0  0  0  0  0
   10.2916    3.8792    0.0000 H   0  0  0  0  0  0  0  0  0  0  0  0
    9.8555    1.4309    0.0000 H   0  0  0  0  0  0  0  0  0  0  0  0
   10.4488    1.9632    0.0000 H   0  0  0  0  0  0  0  0  0  0  0  0
   10.8746    1.3846    0.0000 H   0  0  0  0  0  0  0  0  0  0  0  0
   11.8954    1.0510    0.0000 H   0  0  0  0  0  0  0  0  0  0  0  0
    8.9598    0.4324    0.0000 H   0  0  0  0  0  0  0  0  0  0  0  0
    8.6501    3.0027    0.0000 H   0  0  0  0  0  0  0  0  0  0  0  0
    7.7745    3.0501    0.0000 H   0  0  0  0  0  0  0  0  0  0  0  0
    7.7271    2.1746    0.0000 H   0  0  0  0  0  0  0  0  0  0  0  0
    7.5467    1.3073    0.0000 H   0  0  0  0  0  0  0  0  0  0  0  0
    6.9534    0.7750    0.0000 H   0  0  0  0  0  0  0  0  0  0  0  0
    7.2772   -0.8825    0.0000 H   0  0  0  0  0  0  0  0  0  0  0  0
    7.8704   -0.3502    0.0000 H   0  0  0  0  0  0  0  0  0  0  0  0
    6.3815   -1.8811    0.0000 H   0  0  0  0  0  0  0  0  0  0  0  0
    4.9684   -1.0062    0.0000 H   0  0  0  0  0  0  0  0  0  0  0  0
    4.3751   -1.5385    0.0000 H   0  0  0  0  0  0  0  0  0  0  0  0
    6.0717    0.6893    0.0000 H   0  0  0  0  0  0  0  0  0  0  0  0
    5.1962    0.7367    0.0000 H   0  0  0  0  0  0  0  0  0  0  0  0
    5.1488   -0.1389    0.0000 H   0  0  0  0  0  0  0  0  0  0  0  0
    5.8819   -3.3811    0.0000 H   0  0  0  0  0  0  0  0  0  0  0  0
    4.3996   -5.3290    0.0000 H   0  0  0  0  0  0  0  0  0  0  0  0
    5.1815   -5.7257    0.0000 H   0  0  0  0  0  0  0  0  0  0  0  0
    5.5783   -4.9437    0.0000 H   0  0  0  0  0  0  0  0  0  0  0  0
    1.4631   -4.1911    0.0000 H   0  0  0  0  0  0  0  0  0  0  0  0
    2.3291   -1.0711    0.0000 H   0  0  0  0  0  0  0  0  0  0  0  0
    3.4030   -1.0711    0.0000 H   0  0  0  0  0  0  0  0  0  0  0  0
  1 24  1  0  0  0  0
  1 26  1  0  0  0  0
  1 27  1  0  0  0  0
  2 27  2  0  0  0  0
  2 28  1  0  0  0  0
  2 30  1  0  0  0  0
  3 28  2  0  0  0  0
  3 31  1  0  0  0  0
  4 29  1  0  0  0  0
  4 31  2  0  0  0  0
  5 29  1  0  0  0  0
  5 70  1  0  0  0  0
  5 71  1  0  0  0  0
  6  7  1  0  0  0  0
  6  8  1  0  0  0  0
  6 13  1  0  0  0  0
  6 14  1  0  0  0  0
  7 10  1  0  0  0  0
  7 11  1  6  0  0  0
  7 32  1  0  0  0  0
  8  9  1  0  0  0  0
  8 33  1  0  0  0  0
  8 34  1  0  0  0  0
  9 12  1  0  0  0  0
  9 35  1  0  0  0  0
  9 36  1  0  0  0  0
 10 12  1  0  0  0  0
 10 16  2  0  0  0  0
 11 15  1  0  0  0  0
 11 37  1  0  0  0  0
 11 38  1  0  0  0  0
 12 39  1  0  0  0  0
 12 40  1  0  0  0  0
 13 41  1  0  0  0  0
 13 42  1  0  0  0  0
 13 43  1  0  0  0  0
 14 44  1  0  0  0  0
 14 45  1  0  0  0  0
 14 46  1  0  0  0  0
 15 17  1  0  0  0  0
 15 47  1  0  0  0  0
 15 48  1  0  0  0  0
 16 49  1  0  0  0  0
 16 50  1  0  0  0  0
 17 18  2  3  0  0  0
 17 19  1  0  0  0  0
 18 20  1  0  0  0  0
 18 51  1  0  0  0  0
 19 52  1  0  0  0  0
 19 53  1  0  0  0  0
 19 54  1  0  0  0  0
 20 21  1  0  0  0  0
 20 55  1  0  0  0  0
 20 56  1  0  0  0  0
 21 22  1  0  0  0  0
 21 57  1  0  0  0  0
 21 58  1  0  0  0  0
 22 23  2  3  0  0  0
 22 25  1  0  0  0  0
 23 24  1  0  0  0  0
 23 59  1  0  0  0  0
 24 60  1  0  0  0  0
 24 61  1  0  0  0  0
 25 62  1  0  0  0  0
 25 63  1  0  0  0  0
 25 64  1  0  0  0  0
 26 28  1  0  0  0  0
 26 29  2  0  0  0  0
 27 65  1  0  0  0  0
 30 66  1  0  0  0  0
 30 67  1  0  0  0  0
 30 68  1  0  0  0  0
 31 69  1  0  0  0  0
M  CHG  1   2   1
M  END
> <PUBCHEM_COMPOUND_CID>
504034
> <PUBCHEM_COMPOUND_CANONICALIZED>
1
> <PUBCHEM_CACTVS_COMPLEXITY>
679
> <PUBCHEM_CACTVS_HBOND_ACCEPTOR>
3
> <PUBCHEM_CACTVS_HBOND_DONOR>
1
> <PUBCHEM_CACTVS_ROTATABLE_BOND>
8
> <PUBCHEM_CACTVS_SUBSKEYS>
AAADcfB7gAAAAAAAAAAAAAAAAAAAAWAAAAA8QAAAAAAAAFgB+AAAHAAQAAAADwjBFwQH8L9MEACgAyZjZACAgC0xEKABWCAoVBiASAJASUAUBAgIgALIACMAgMAPgAAAAAAAAAAAAAAAACAAAAAAAAAAAA==
> <PUBCHEM_IUPAC_OPENEYE_NAME>
7-[9-[(1R)-2,2-dimethyl-6-methylene-cyclohexyl]-3,7-dimethyl-nona-2,6-dienyl]-9-methyl-purin-9-ium-6-amine
> <PUBCHEM_IUPAC_CAS_NAME>
7-[9-[(1R)-2,2-dimethyl-6-methylenecyclohexyl]-3,7-dimethylnona-2,6-dienyl]-9-methyl-6-purin-9-iumamine
> <PUBCHEM_IUPAC_NAME_MARKUP>
7-[9-[(1<I>R</I>)-2,2-dimethyl-6-methylidenecyclohexyl]-3,7-dimethylnona-2,6-dienyl]-9-methylpurin-9-ium-6-amine
> <PUBCHEM_IUPAC_NAME>
7-[9-[(1R)-2,2-dimethyl-6-methylidenecyclohexyl]-3,7-dimethylnona-2,6-dienyl]-9-methylpurin-9-ium-6-amine
> <PUBCHEM_IUPAC_SYSTEMATIC_NAME>
7-[9-[(1R)-2,2-dimethyl-6-methylidene-cyclohexyl]-3,7-dimethyl-nona-2,6-dienyl]-9-methyl-purin-9-ium-6-amine
> <PUBCHEM_IUPAC_TRADITIONAL_NAME>
[7-[9-[(1R)-2,2-dimethyl-6-methylene-cyclohexyl]-3,7-dimethyl-nona-2,6-dienyl]-9-methyl-purin-9-ium-6-yl]amine
> <PUBCHEM_IUPAC_INCHI>
InChI=1S/C26H40N5/c1-19(12-13-22-21(3)11-8-15-26(22,4)5)9-7-10-20(2)14-16-31-18-30(6)25-23(31)24(27)28-17-29-25/h9,14,17-18,22H,3,7-8,10-13,15-16H2,1-2,4-6H3,(H2,27,28,29)/q+1/t22-/m0/s1
> <PUBCHEM_IUPAC_INCHIKEY>
PPCBHTAMQFLZHZ-QFIPXVFZSA-N
> <PUBCHEM_XLOGP3_AA>
6.6
> <PUBCHEM_EXACT_MASS>
422.32837130
> <PUBCHEM_MOLECULAR_FORMULA>
C26H40N5+
> <PUBCHEM_MOLECULAR_WEIGHT>
422.6
> <PUBCHEM_OPENEYE_CAN_SMILES>
CC(=CCCC(=CCN1C=[N+](C2=NC=NC(=C21)N)C)C)CCC3C(=C)CCCC3(C)C
> <PUBCHEM_OPENEYE_ISO_SMILES>
CC(=CCCC(=CCN1C=[N+](C2=NC=NC(=C21)N)C)C)CC[C@H]3C(=C)CCCC3(C)C
> <PUBCHEM_CACTVS_TPSA>
60.6
> <PUBCHEM_MONOISOTOPIC_WEIGHT>
422.32837130
> <PUBCHEM_TOTAL_CHARGE>
1
> <PUBCHEM_HEAVY_ATOM_COUNT>
31
> <PUBCHEM_ATOM_DEF_STEREO_COUNT>
1
> <PUBCHEM_ATOM_UDEF_STEREO_COUNT>
0
> <PUBCHEM_BOND_DEF_STEREO_COUNT>
0
> <PUBCHEM_BOND_UDEF_STEREO_COUNT>
2
> <PUBCHEM_ISOTOPIC_ATOM_COUNT>
0
> <PUBCHEM_COMPONENT_COUNT>
1
> <PUBCHEM_CACTVS_TAUTO_COUNT>
-1
> <PUBCHEM_COORDINATE_TYPE>
1
5
255
> <PUBCHEM_BONDANNOTATIONS>
1  26  8
1  27  8
17  18  1
2  27  8
2  28  8
22  23  1
26  28  8
26  29  8
3  28  8
3  31  8
4  29  8
4  31  8
7  11  6
$$$$
