504142
  -OEChem-10302200282D
 48 49  0     1  0  0  0  0  0999 V2000
    4.5981   -1.0761    0.0000 S   0  0  0  0  0  0  0  0  0  0  0  0
    8.1097    0.0172    0.0000 S   0  0  0  0  0  0  0  0  0  0  0  0
    3.7320   -2.5761    0.0000 S   0  0  0  0  0  0  0  0  0  0  0  0
    7.1962   -1.5761    0.0000 O   0  0  0  0  0  0  0  0  0  0  0  0
   10.0868    3.5580    0.0000 O   0  0  0  0  0  0  0  0  0  0  0  0
   10.2679    1.8354    0.0000 O   0  0  0  0  0  0  0  0  0  0  0  0
    6.3301   -0.0761    0.0000 N   0  0  0  0  0  0  0  0  0  0  0  0
    2.8660   -1.0761    0.0000 N   0  0  0  0  0  0  0  0  0  0  0  0
    7.3007    1.4185    0.0000 N   0  0  0  0  0  0  0  0  0  0  0  0
    5.4641   -1.5761    0.0000 C   0  0  3  0  0  0  0  0  0  0  0  0
    5.4641   -2.5761    0.0000 C   0  0  0  0  0  0  0  0  0  0  0  0
    6.3301   -1.0761    0.0000 C   0  0  0  0  0  0  0  0  0  0  0  0
    6.3301   -3.0761    0.0000 C   0  0  0  0  0  0  0  0  0  0  0  0
    4.5981   -3.0761    0.0000 C   0  0  0  0  0  0  0  0  0  0  0  0
    7.1962    0.4239    0.0000 C   0  0  0  0  0  0  0  0  0  0  0  0
    8.2788    1.6264    0.0000 C   0  0  0  0  0  0  0  0  0  0  0  0
    6.3301   -4.0761    0.0000 C   0  0  0  0  0  0  0  0  0  0  0  0
    4.5981   -4.0761    0.0000 C   0  0  0  0  0  0  0  0  0  0  0  0
    8.6856    2.5399    0.0000 C   0  0  0  0  0  0  0  0  0  0  0  0
    3.7320   -1.5761    0.0000 C   0  0  0  0  0  0  0  0  0  0  0  0
    5.4641   -4.5761    0.0000 C   0  0  0  0  0  0  0  0  0  0  0  0
    8.7788    0.7603    0.0000 C   0  0  0  0  0  0  0  0  0  0  0  0
    9.6801    2.6444    0.0000 C   0  0  0  0  0  0  0  0  0  0  0  0
    2.8660   -0.0761    0.0000 C   0  0  0  0  0  0  0  0  0  0  0  0
    2.0000   -1.5761    0.0000 C   0  0  0  0  0  0  0  0  0  0  0  0
   11.0813    3.6625    0.0000 C   0  0  0  0  0  0  0  0  0  0  0  0
   11.4881    4.5761    0.0000 C   0  0  0  0  0  0  0  0  0  0  0  0
    5.4641   -0.9561    0.0000 H   0  0  0  0  0  0  0  0  0  0  0  0
    6.8671   -2.7661    0.0000 H   0  0  0  0  0  0  0  0  0  0  0  0
    4.0611   -2.7661    0.0000 H   0  0  0  0  0  0  0  0  0  0  0  0
    5.7932    0.2339    0.0000 H   0  0  0  0  0  0  0  0  0  0  0  0
    6.8671   -4.3861    0.0000 H   0  0  0  0  0  0  0  0  0  0  0  0
    4.0611   -4.3861    0.0000 H   0  0  0  0  0  0  0  0  0  0  0  0
    8.7288    3.1584    0.0000 H   0  0  0  0  0  0  0  0  0  0  0  0
    8.0840    2.6899    0.0000 H   0  0  0  0  0  0  0  0  0  0  0  0
    5.4641   -5.1961    0.0000 H   0  0  0  0  0  0  0  0  0  0  0  0
    9.3954    0.6955    0.0000 H   0  0  0  0  0  0  0  0  0  0  0  0
    3.4860   -0.0761    0.0000 H   0  0  0  0  0  0  0  0  0  0  0  0
    2.8660    0.5439    0.0000 H   0  0  0  0  0  0  0  0  0  0  0  0
    2.2460   -0.0761    0.0000 H   0  0  0  0  0  0  0  0  0  0  0  0
    1.6900   -1.0391    0.0000 H   0  0  0  0  0  0  0  0  0  0  0  0
    1.4631   -1.8861    0.0000 H   0  0  0  0  0  0  0  0  0  0  0  0
    2.3100   -2.1130    0.0000 H   0  0  0  0  0  0  0  0  0  0  0  0
   11.0381    3.0440    0.0000 H   0  0  0  0  0  0  0  0  0  0  0  0
   11.6829    3.5125    0.0000 H   0  0  0  0  0  0  0  0  0  0  0  0
   12.0545    4.3239    0.0000 H   0  0  0  0  0  0  0  0  0  0  0  0
   11.7403    5.1425    0.0000 H   0  0  0  0  0  0  0  0  0  0  0  0
   10.9217    4.8282    0.0000 H   0  0  0  0  0  0  0  0  0  0  0  0
  1 10  1  0  0  0  0
  1 20  1  0  0  0  0
  2 15  1  0  0  0  0
  2 22  1  0  0  0  0
  3 20  2  0  0  0  0
  4 12  2  0  0  0  0
  5 23  1  0  0  0  0
  5 26  1  0  0  0  0
  6 23  2  0  0  0  0
  7 12  1  0  0  0  0
  7 15  1  0  0  0  0
  7 31  1  0  0  0  0
  8 20  1  0  0  0  0
  8 24  1  0  0  0  0
  8 25  1  0  0  0  0
  9 15  2  0  0  0  0
  9 16  1  0  0  0  0
 10 11  1  0  0  0  0
 10 12  1  0  0  0  0
 10 28  1  0  0  0  0
 11 13  2  0  0  0  0
 11 14  1  0  0  0  0
 13 17  1  0  0  0  0
 13 29  1  0  0  0  0
 14 18  2  0  0  0  0
 14 30  1  0  0  0  0
 16 19  1  0  0  0  0
 16 22  2  0  0  0  0
 17 21  2  0  0  0  0
 17 32  1  0  0  0  0
 18 21  1  0  0  0  0
 18 33  1  0  0  0  0
 19 23  1  0  0  0  0
 19 34  1  0  0  0  0
 19 35  1  0  0  0  0
 21 36  1  0  0  0  0
 22 37  1  0  0  0  0
 24 38  1  0  0  0  0
 24 39  1  0  0  0  0
 24 40  1  0  0  0  0
 25 41  1  0  0  0  0
 25 42  1  0  0  0  0
 25 43  1  0  0  0  0
 26 27  1  0  0  0  0
 26 44  1  0  0  0  0
 26 45  1  0  0  0  0
 27 46  1  0  0  0  0
 27 47  1  0  0  0  0
 27 48  1  0  0  0  0
M  END
> <PUBCHEM_COMPOUND_CID>
504142
> <PUBCHEM_COMPOUND_CANONICALIZED>
1
> <PUBCHEM_CACTVS_COMPLEXITY>
527
> <PUBCHEM_CACTVS_HBOND_ACCEPTOR>
7
> <PUBCHEM_CACTVS_HBOND_DONOR>
1
> <PUBCHEM_CACTVS_ROTATABLE_BOND>
9
> <PUBCHEM_CACTVS_SUBSKEYS>
AAADceB7MABgAAAAAAAAAAAAAAAAAWAAAAAwAAAAAAAAAAABwAAAHgQQAAAADAil3gazmZPIFAisAyXyfAAC8KlhCjkJiBU4IIiIIDqgnRGGIAAu0QMIiCcYiICOAAAAAAAAAAAAAAAAAAAAAAAAAAAAAA==
> <PUBCHEM_IUPAC_OPENEYE_NAME>
ethyl 2-[2-[[2-(dimethylcarbamothioylsulfanyl)-2-phenyl-acetyl]amino]thiazol-4-yl]acetate
> <PUBCHEM_IUPAC_CAS_NAME>
2-[2-[[2-[[dimethylamino(sulfanylidene)methyl]thio]-1-oxo-2-phenylethyl]amino]-4-thiazolyl]acetic acid ethyl ester
> <PUBCHEM_IUPAC_NAME_MARKUP>
ethyl 2-[2-[[2-(dimethylcarbamothioylsulfanyl)-2-phenylacetyl]amino]-1,3-thiazol-4-yl]acetate
> <PUBCHEM_IUPAC_NAME>
ethyl 2-[2-[[2-(dimethylcarbamothioylsulfanyl)-2-phenylacetyl]amino]-1,3-thiazol-4-yl]acetate
> <PUBCHEM_IUPAC_SYSTEMATIC_NAME>
ethyl 2-[2-[[2-(dimethylcarbamothioylsulfanyl)-2-phenyl-ethanoyl]amino]-1,3-thiazol-4-yl]ethanoate
> <PUBCHEM_IUPAC_TRADITIONAL_NAME>
2-[2-[[2-(dimethylthiocarbamoylthio)-2-phenyl-acetyl]amino]thiazol-4-yl]acetic acid ethyl ester
> <PUBCHEM_IUPAC_INCHI>
InChI=1S/C18H21N3O3S3/c1-4-24-14(22)10-13-11-26-17(19-13)20-16(23)15(27-18(25)21(2)3)12-8-6-5-7-9-12/h5-9,11,15H,4,10H2,1-3H3,(H,19,20,23)
> <PUBCHEM_IUPAC_INCHIKEY>
TVXIPUKALRZDCZ-UHFFFAOYSA-N
> <PUBCHEM_XLOGP3_AA>
3.4
> <PUBCHEM_EXACT_MASS>
423.07450506
> <PUBCHEM_MOLECULAR_FORMULA>
C18H21N3O3S3
> <PUBCHEM_MOLECULAR_WEIGHT>
423.6
> <PUBCHEM_OPENEYE_CAN_SMILES>
CCOC(=O)CC1=CSC(=N1)NC(=O)C(C2=CC=CC=C2)SC(=S)N(C)C
> <PUBCHEM_OPENEYE_ISO_SMILES>
CCOC(=O)CC1=CSC(=N1)NC(=O)C(C2=CC=CC=C2)SC(=S)N(C)C
> <PUBCHEM_CACTVS_TPSA>
157
> <PUBCHEM_MONOISOTOPIC_WEIGHT>
423.07450506
> <PUBCHEM_TOTAL_CHARGE>
0
> <PUBCHEM_HEAVY_ATOM_COUNT>
27
> <PUBCHEM_ATOM_DEF_STEREO_COUNT>
0
> <PUBCHEM_ATOM_UDEF_STEREO_COUNT>
1
> <PUBCHEM_BOND_DEF_STEREO_COUNT>
0
> <PUBCHEM_BOND_UDEF_STEREO_COUNT>
0
> <PUBCHEM_ISOTOPIC_ATOM_COUNT>
0
> <PUBCHEM_COMPONENT_COUNT>
1
> <PUBCHEM_CACTVS_TAUTO_COUNT>
-1
> <PUBCHEM_COORDINATE_TYPE>
1
5
255
> <PUBCHEM_BONDANNOTATIONS>
10  12  3
11  13  8
11  14  8
13  17  8
14  18  8
16  22  8
17  21  8
18  21  8
2  15  8
2  22  8
9  15  8
9  16  8
$$$$
