504108
  -OEChem-10302200282D
105111  0     1  0  0  0  0  0999 V2000
    2.0000   -5.7238    0.0000 F   0  0  0  0  0  0  0  0  0  0  0  0
    2.6878   -6.9595    0.0000 F   0  0  0  0  0  0  0  0  0  0  0  0
    3.9235   -6.2717    0.0000 F   0  0  0  0  0  0  0  0  0  0  0  0
    9.6397    3.1904    0.0000 O   0  0  0  0  0  0  0  0  0  0  0  0
    8.3054    4.0904    0.0000 O   0  0  0  0  0  0  0  0  0  0  0  0
    6.9686    0.6695    0.0000 O   0  0  0  0  0  0  0  0  0  0  0  0
    6.2714   -0.7019    0.0000 O   0  0  0  0  0  0  0  0  0  0  0  0
   10.7614   -3.0266    0.0000 O   0  0  0  0  0  0  0  0  0  0  0  0
   15.5859   -4.9565    0.0000 O   0  0  0  0  0  0  0  0  0  0  0  0
   14.2247   -6.0275    0.0000 O   0  0  0  0  0  0  0  0  0  0  0  0
    8.5254    1.4288    0.0000 N   0  0  0  0  0  0  0  0  0  0  0  0
    7.9371   -1.1764    0.0000 N   0  0  0  0  0  0  0  0  0  0  0  0
   10.5144   -1.3123    0.0000 N   0  0  0  0  0  0  0  0  0  0  0  0
    8.3591   -2.8563    0.0000 N   0  0  0  0  0  0  0  0  0  0  0  0
    5.7234   -2.6253    0.0000 N   0  0  0  0  0  0  0  0  0  0  0  0
   12.1226   -1.9556    0.0000 N   0  0  0  0  0  0  0  0  0  0  0  0
   11.1372    5.0109    0.0000 C   0  0  3  0  0  0  0  0  0  0  0  0
   12.5362    5.0198    0.0000 C   0  0  0  0  0  0  0  0  0  0  0  0
   11.3961    5.9769    0.0000 C   0  0  3  0  0  0  0  0  0  0  0  0
   10.6594    6.9595    0.0000 C   0  0  0  0  0  0  0  0  0  0  0  0
    9.9162    4.1453    0.0000 C   0  0  3  0  0  0  0  0  0  0  0  0
    9.0872    4.7045    0.0000 C   0  0  2  0  0  0  0  0  0  0  0  0
    9.3628    5.6657    0.0000 C   0  0  0  0  0  0  0  0  0  0  0  0
   13.4022    5.5198    0.0000 C   0  0  0  0  0  0  0  0  0  0  0  0
   13.0362    4.1537    0.0000 C   0  0  0  0  0  0  0  0  0  0  0  0
    8.2581    5.2637    0.0000 C   0  0  0  0  0  0  0  0  0  0  0  0
    8.0870    2.3276    0.0000 C   0  0  1  0  0  0  0  0  0  0  0  0
    7.0895    2.3973    0.0000 C   0  0  0  0  0  0  0  0  0  0  0  0
    6.5303    1.5683    0.0000 C   0  0  0  0  0  0  0  0  0  0  0  0
    7.9662    0.5997    0.0000 C   0  0  0  0  0  0  0  0  0  0  0  0
    8.4046   -0.2991    0.0000 C   0  0  2  0  0  0  0  0  0  0  0  0
    9.3837   -0.4708    0.0000 C   0  0  0  0  0  0  0  0  0  0  0  0
    9.5246   -1.4549    0.0000 C   0  0  2  0  0  0  0  0  0  0  0  0
    8.6330   -1.8945    0.0000 C   0  0  0  0  0  0  0  0  0  0  0  0
    9.9661   -2.3522    0.0000 C   0  0  0  0  0  0  0  0  0  0  0  0
    6.9673   -1.4200    0.0000 C   0  0  0  0  0  0  0  0  0  0  0  0
    6.6933   -2.3817    0.0000 C   0  0  0  0  0  0  0  0  0  0  0  0
    7.3892   -3.0999    0.0000 C   0  0  0  0  0  0  0  0  0  0  0  0
   11.1328   -2.0982    0.0000 C   0  0  0  0  0  0  0  0  0  0  0  0
    5.4494   -3.5871    0.0000 C   0  0  0  0  0  0  0  0  0  0  0  0
   12.7409   -2.7414    0.0000 C   0  0  0  0  0  0  0  0  0  0  0  0
    4.4796   -3.8307    0.0000 C   0  0  0  0  0  0  0  0  0  0  0  0
   12.3696   -3.6699    0.0000 C   0  0  0  0  0  0  0  0  0  0  0  0
   13.7307   -2.5988    0.0000 C   0  0  0  0  0  0  0  0  0  0  0  0
    4.2056   -4.7924    0.0000 C   0  0  0  0  0  0  0  0  0  0  0  0
    3.7837   -3.1125    0.0000 C   0  0  0  0  0  0  0  0  0  0  0  0
   12.9879   -4.4558    0.0000 C   0  0  0  0  0  0  0  0  0  0  0  0
   14.3491   -3.3847    0.0000 C   0  0  0  0  0  0  0  0  0  0  0  0
    3.2357   -5.0360    0.0000 C   0  0  0  0  0  0  0  0  0  0  0  0
    2.8138   -3.3561    0.0000 C   0  0  0  0  0  0  0  0  0  0  0  0
   13.9777   -4.3132    0.0000 C   0  0  0  0  0  0  0  0  0  0  0  0
    2.5398   -4.3179    0.0000 C   0  0  0  0  0  0  0  0  0  0  0  0
    2.9617   -5.9977    0.0000 C   0  0  0  0  0  0  0  0  0  0  0  0
   14.5961   -5.0991    0.0000 C   0  0  0  0  0  0  0  0  0  0  0  0
   16.2043   -5.7423    0.0000 C   0  0  0  0  0  0  0  0  0  0  0  0
   17.1940   -5.5997    0.0000 C   0  0  0  0  0  0  0  0  0  0  0  0
    8.6462    3.1566    0.0000 B   0  0  0  0  0  0  0  0  0  0  0  0
   11.3273    4.4208    0.0000 H   0  0  0  0  0  0  0  0  0  0  0  0
   11.8464    6.4030    0.0000 H   0  0  0  0  0  0  0  0  0  0  0  0
   10.9772    7.4918    0.0000 H   0  0  0  0  0  0  0  0  0  0  0  0
   10.0463    7.0514    0.0000 H   0  0  0  0  0  0  0  0  0  0  0  0
   10.4216    3.7861    0.0000 H   0  0  0  0  0  0  0  0  0  0  0  0
    9.3578    6.2857    0.0000 H   0  0  0  0  0  0  0  0  0  0  0  0
    8.7485    5.7495    0.0000 H   0  0  0  0  0  0  0  0  0  0  0  0
   13.7122    4.9828    0.0000 H   0  0  0  0  0  0  0  0  0  0  0  0
   13.9391    5.8298    0.0000 H   0  0  0  0  0  0  0  0  0  0  0  0
   13.0922    6.0567    0.0000 H   0  0  0  0  0  0  0  0  0  0  0  0
   12.4992    3.8437    0.0000 H   0  0  0  0  0  0  0  0  0  0  0  0
   13.3462    3.6168    0.0000 H   0  0  0  0  0  0  0  0  0  0  0  0
   13.5731    4.4637    0.0000 H   0  0  0  0  0  0  0  0  0  0  0  0
    8.6048    5.7777    0.0000 H   0  0  0  0  0  0  0  0  0  0  0  0
    7.7441    5.6104    0.0000 H   0  0  0  0  0  0  0  0  0  0  0  0
    7.9114    4.7497    0.0000 H   0  0  0  0  0  0  0  0  0  0  0  0
    7.7403    1.8136    0.0000 H   0  0  0  0  0  0  0  0  0  0  0  0
    7.2395    2.9989    0.0000 H   0  0  0  0  0  0  0  0  0  0  0  0
    6.5231    2.6495    0.0000 H   0  0  0  0  0  0  0  0  0  0  0  0
    9.1439    1.3855    0.0000 H   0  0  0  0  0  0  0  0  0  0  0  0
    6.0163    1.9150    0.0000 H   0  0  0  0  0  0  0  0  0  0  0  0
    6.1836    1.0543    0.0000 H   0  0  0  0  0  0  0  0  0  0  0  0
    7.0443    1.2216    0.0000 H   0  0  0  0  0  0  0  0  0  0  0  0
    7.7847   -0.2880    0.0000 H   0  0  0  0  0  0  0  0  0  0  0  0
   10.0033   -0.4480    0.0000 H   0  0  0  0  0  0  0  0  0  0  0  0
    9.4261    0.1477    0.0000 H   0  0  0  0  0  0  0  0  0  0  0  0
    9.4098   -2.6259    0.0000 H   0  0  0  0  0  0  0  0  0  0  0  0
   10.2398   -2.9085    0.0000 H   0  0  0  0  0  0  0  0  0  0  0  0
   10.5224   -2.0784    0.0000 H   0  0  0  0  0  0  0  0  0  0  0  0
   10.7447   -0.7366    0.0000 H   0  0  0  0  0  0  0  0  0  0  0  0
    7.2193   -3.6961    0.0000 H   0  0  0  0  0  0  0  0  0  0  0  0
    5.2920   -2.1801    0.0000 H   0  0  0  0  0  0  0  0  0  0  0  0
   12.3528   -1.3799    0.0000 H   0  0  0  0  0  0  0  0  0  0  0  0
    5.4938   -4.2055    0.0000 H   0  0  0  0  0  0  0  0  0  0  0  0
    6.0662   -3.6508    0.0000 H   0  0  0  0  0  0  0  0  0  0  0  0
   11.7559   -3.7583    0.0000 H   0  0  0  0  0  0  0  0  0  0  0  0
   13.9610   -2.0232    0.0000 H   0  0  0  0  0  0  0  0  0  0  0  0
    4.6370   -5.2376    0.0000 H   0  0  0  0  0  0  0  0  0  0  0  0
    3.9535   -2.5162    0.0000 H   0  0  0  0  0  0  0  0  0  0  0  0
   12.7577   -5.0315    0.0000 H   0  0  0  0  0  0  0  0  0  0  0  0
   14.9628   -3.2963    0.0000 H   0  0  0  0  0  0  0  0  0  0  0  0
    2.3823   -2.9109    0.0000 H   0  0  0  0  0  0  0  0  0  0  0  0
    1.9385   -4.4689    0.0000 H   0  0  0  0  0  0  0  0  0  0  0  0
   15.6579   -6.0353    0.0000 H   0  0  0  0  0  0  0  0  0  0  0  0
   16.3979   -6.3313    0.0000 H   0  0  0  0  0  0  0  0  0  0  0  0
   17.2825   -6.2134    0.0000 H   0  0  0  0  0  0  0  0  0  0  0  0
   17.8077   -5.5113    0.0000 H   0  0  0  0  0  0  0  0  0  0  0  0
   17.1056   -4.9861    0.0000 H   0  0  0  0  0  0  0  0  0  0  0  0
  1 53  1  0  0  0  0
  2 53  1  0  0  0  0
  3 53  1  0  0  0  0
  4 21  1  0  0  0  0
  4 57  1  0  0  0  0
  5 22  1  0  0  0  0
  5 57  1  0  0  0  0
  6 30  2  0  0  0  0
  7 36  2  0  0  0  0
  8 39  2  0  0  0  0
  9 54  1  0  0  0  0
  9 55  1  0  0  0  0
 10 54  2  0  0  0  0
 27 11  1  1  0  0  0
 11 30  1  0  0  0  0
 11 77  1  0  0  0  0
 12 31  1  0  0  0  0
 12 34  1  0  0  0  0
 12 36  1  0  0  0  0
 33 13  1  1  0  0  0
 13 39  1  0  0  0  0
 13 87  1  0  0  0  0
 14 34  2  0  0  0  0
 14 38  1  0  0  0  0
 15 37  1  0  0  0  0
 15 40  1  0  0  0  0
 15 89  1  0  0  0  0
 16 39  1  0  0  0  0
 16 41  1  0  0  0  0
 16 90  1  0  0  0  0
 17 18  1  0  0  0  0
 17 20  1  0  0  0  0
 17 21  1  0  0  0  0
 17 58  1  0  0  0  0
 18 19  1  0  0  0  0
 18 24  1  0  0  0  0
 18 25  1  0  0  0  0
 19 20  1  0  0  0  0
 19 23  1  0  0  0  0
 19 59  1  0  0  0  0
 20 60  1  0  0  0  0
 20 61  1  0  0  0  0
 21 22  1  0  0  0  0
 21 62  1  0  0  0  0
 22 23  1  0  0  0  0
 22 26  1  6  0  0  0
 23 63  1  0  0  0  0
 23 64  1  0  0  0  0
 24 65  1  0  0  0  0
 24 66  1  0  0  0  0
 24 67  1  0  0  0  0
 25 68  1  0  0  0  0
 25 69  1  0  0  0  0
 25 70  1  0  0  0  0
 26 71  1  0  0  0  0
 26 72  1  0  0  0  0
 26 73  1  0  0  0  0
 27 28  1  0  0  0  0
 27 57  1  0  0  0  0
 27 74  1  0  0  0  0
 28 29  1  0  0  0  0
 28 75  1  0  0  0  0
 28 76  1  0  0  0  0
 29 78  1  0  0  0  0
 29 79  1  0  0  0  0
 29 80  1  0  0  0  0
 31 30  1  6  0  0  0
 31 32  1  0  0  0  0
 31 81  1  0  0  0  0
 32 33  1  0  0  0  0
 32 82  1  0  0  0  0
 32 83  1  0  0  0  0
 33 34  1  0  0  0  0
 33 35  1  0  0  0  0
 35 84  1  0  0  0  0
 35 85  1  0  0  0  0
 35 86  1  0  0  0  0
 36 37  1  0  0  0  0
 37 38  2  0  0  0  0
 38 88  1  0  0  0  0
 40 42  1  0  0  0  0
 40 91  1  0  0  0  0
 40 92  1  0  0  0  0
 41 43  2  0  0  0  0
 41 44  1  0  0  0  0
 42 45  2  0  0  0  0
 42 46  1  0  0  0  0
 43 47  1  0  0  0  0
 43 93  1  0  0  0  0
 44 48  2  0  0  0  0
 44 94  1  0  0  0  0
 45 49  1  0  0  0  0
 45 95  1  0  0  0  0
 46 50  2  0  0  0  0
 46 96  1  0  0  0  0
 47 51  2  0  0  0  0
 47 97  1  0  0  0  0
 48 51  1  0  0  0  0
 48 98  1  0  0  0  0
 49 52  2  0  0  0  0
 49 53  1  0  0  0  0
 50 52  1  0  0  0  0
 50 99  1  0  0  0  0
 51 54  1  0  0  0  0
 52100  1  0  0  0  0
 55 56  1  0  0  0  0
 55101  1  0  0  0  0
 55102  1  0  0  0  0
 56103  1  0  0  0  0
 56104  1  0  0  0  0
 56105  1  0  0  0  0
M  END
> <PUBCHEM_COMPOUND_CID>
504108
> <PUBCHEM_COMPOUND_CANONICALIZED>
1
> <PUBCHEM_CACTVS_COMPLEXITY>
1650
> <PUBCHEM_CACTVS_HBOND_ACCEPTOR>
12
> <PUBCHEM_CACTVS_HBOND_DONOR>
4
> <PUBCHEM_CACTVS_ROTATABLE_BOND>
12
> <PUBCHEM_CACTVS_SUBSKEYS>
AAADcfJ/uYAAAAAAAAAAAAAAAABgAWJAAAAwYMGCAAAAAEgBQAAoHwAQAAAAD/zhmBYzyIPABACoAif2fACCAAElAgAJiIGobMiJZjLA/bmWMQhs1gPI6eec2fOfiAACAAAAAADQAAYAADCAAAAAAAAAAA==
> <PUBCHEM_IUPAC_OPENEYE_NAME>
ethyl 4-[[(6S,8R)-8-methyl-4-oxo-3-[[3-(trifluoromethyl)phenyl]methylamino]-6-[[(1R)-1-[(6S)-6,9,9-trimethyl-3,5-dioxa-4-boratricyclo[6.1.1.02,6]decan-4-yl]propyl]carbamoyl]-6,7-dihydropyrrolo[1,2-a]pyrimidin-8-yl]carbamoylamino]benzoate
> <PUBCHEM_IUPAC_CAS_NAME>
4-[[[[(6S,8R)-8-methyl-4-oxo-6-[oxo-[[(1R)-1-[(6S)-6,9,9-trimethyl-3,5-dioxa-4-boratricyclo[6.1.1.02,6]decan-4-yl]propyl]amino]methyl]-3-[[3-(trifluoromethyl)phenyl]methylamino]-6,7-dihydropyrrolo[1,2-a]pyrimidin-8-yl]amino]-oxomethyl]amino]benzoic acid ethyl ester
> <PUBCHEM_IUPAC_NAME_MARKUP>
ethyl 4-[[(6<I>S</I>,8<I>R</I>)-8-methyl-4-oxo-3-[[3-(trifluoromethyl)phenyl]methylamino]-6-[[(1<I>R</I>)-1-[(6<I>S</I>)-6,9,9-trimethyl-3,5-dioxa-4-boratricyclo[6.1.1.0<SUP>2,6</SUP>]decan-4-yl]propyl]carbamoyl]-6,7-dihydropyrrolo[1,2-a]pyrimidin-8-yl]carbamoylamino]benzoate
> <PUBCHEM_IUPAC_NAME>
ethyl 4-[[(6S,8R)-8-methyl-4-oxo-3-[[3-(trifluoromethyl)phenyl]methylamino]-6-[[(1R)-1-[(6S)-6,9,9-trimethyl-3,5-dioxa-4-boratricyclo[6.1.1.02,6]decan-4-yl]propyl]carbamoyl]-6,7-dihydropyrrolo[1,2-a]pyrimidin-8-yl]carbamoylamino]benzoate
> <PUBCHEM_IUPAC_SYSTEMATIC_NAME>
ethyl 4-[[(6S,8R)-8-methyl-4-oxidanylidene-3-[[3-(trifluoromethyl)phenyl]methylamino]-6-[[(1R)-1-[(6S)-6,9,9-trimethyl-3,5-dioxa-4-boratricyclo[6.1.1.02,6]decan-4-yl]propyl]carbamoyl]-6,7-dihydropyrrolo[1,2-a]pyrimidin-8-yl]carbamoylamino]benzoate
> <PUBCHEM_IUPAC_TRADITIONAL_NAME>
4-[[(6S,8R)-4-keto-8-methyl-3-[[3-(trifluoromethyl)benzyl]amino]-6-[[(1R)-1-[(6S)-6,9,9-trimethyl-3,5-dioxa-4-boratricyclo[6.1.1.02,6]decan-4-yl]propyl]carbamoyl]-6,7-dihydropyrrolo[1,2-a]pyrimidin-8-yl]carbamoylamino]benzoic acid ethyl ester
> <PUBCHEM_IUPAC_INCHI>
InChI=1S/C40H48BF3N6O7/c1-7-30(41-56-31-27-17-25(37(27,3)4)18-39(31,6)57-41)48-32(51)29-19-38(5,49-36(54)47-26-14-12-23(13-15-26)34(53)55-8-2)35-46-21-28(33(52)50(29)35)45-20-22-10-9-11-24(16-22)40(42,43)44/h9-16,21,25,27,29-31,45H,7-8,17-20H2,1-6H3,(H,48,51)(H2,47,49,54)/t25?,27?,29-,30-,31?,38+,39-/m0/s1
> <PUBCHEM_IUPAC_INCHIKEY>
HBBHABDTVWCOFY-QKQHLIOXSA-N
> <PUBCHEM_EXACT_MASS>
792.3629625
> <PUBCHEM_MOLECULAR_FORMULA>
C40H48BF3N6O7
> <PUBCHEM_MOLECULAR_WEIGHT>
792.7
> <PUBCHEM_OPENEYE_CAN_SMILES>
B1(OC2C3CC(C3(C)C)CC2(O1)C)C(CC)NC(=O)C4CC(C5=NC=C(C(=O)N45)NCC6=CC(=CC=C6)C(F)(F)F)(C)NC(=O)NC7=CC=C(C=C7)C(=O)OCC
> <PUBCHEM_OPENEYE_ISO_SMILES>
B1(OC2C3CC(C3(C)C)C[C@@]2(O1)C)[C@H](CC)NC(=O)[C@@H]4C[C@@](C5=NC=C(C(=O)N45)NCC6=CC(=CC=C6)C(F)(F)F)(C)NC(=O)NC7=CC=C(C=C7)C(=O)OCC
> <PUBCHEM_CACTVS_TPSA>
160
> <PUBCHEM_MONOISOTOPIC_WEIGHT>
792.3629625
> <PUBCHEM_TOTAL_CHARGE>
0
> <PUBCHEM_HEAVY_ATOM_COUNT>
57
> <PUBCHEM_ATOM_DEF_STEREO_COUNT>
4
> <PUBCHEM_ATOM_UDEF_STEREO_COUNT>
3
> <PUBCHEM_BOND_DEF_STEREO_COUNT>
0
> <PUBCHEM_BOND_UDEF_STEREO_COUNT>
0
> <PUBCHEM_ISOTOPIC_ATOM_COUNT>
0
> <PUBCHEM_COMPONENT_COUNT>
1
> <PUBCHEM_CACTVS_TAUTO_COUNT>
-1
> <PUBCHEM_COORDINATE_TYPE>
1
5
255
> <PUBCHEM_BONDANNOTATIONS>
27  11  5
12  34  8
12  36  8
33  13  5
14  34  8
14  38  8
17  20  3
19  20  3
22  26  6
31  30  6
36  37  8
37  38  8
21  4  3
41  43  8
41  44  8
42  45  8
42  46  8
43  47  8
44  48  8
45  49  8
46  50  8
47  51  8
48  51  8
49  52  8
50  52  8
$$$$
