504151
  -OEChem-10302200282D
 57 59  0     1  0  0  0  0  0999 V2000
    4.5981    1.3261    0.0000 S   0  0  0  0  0  0  0  0  0  0  0  0
    6.3301    1.3261    0.0000 S   0  0  0  0  0  0  0  0  0  0  0  0
    7.2437   -1.2672    0.0000 S   0  0  0  0  0  0  0  0  0  0  0  0
    6.3301    0.3261    0.0000 O   0  0  0  0  0  0  0  0  0  0  0  0
    9.2208   -4.8080    0.0000 O   0  0  0  0  0  0  0  0  0  0  0  0
    9.4018   -3.0854    0.0000 O   0  0  0  0  0  0  0  0  0  0  0  0
    5.4641    4.8261    0.0000 N   0  0  0  0  0  0  0  0  0  0  0  0
    5.4641    2.8261    0.0000 N   0  0  0  0  0  0  0  0  0  0  0  0
    5.4641   -1.1739    0.0000 N   0  0  0  0  0  0  0  0  0  0  0  0
    6.4347   -2.6685    0.0000 N   0  0  0  0  0  0  0  0  0  0  0  0
    6.3301    4.3261    0.0000 C   0  0  0  0  0  0  0  0  0  0  0  0
    4.5981    4.3261    0.0000 C   0  0  0  0  0  0  0  0  0  0  0  0
    6.3301    3.3261    0.0000 C   0  0  0  0  0  0  0  0  0  0  0  0
    4.5981    3.3261    0.0000 C   0  0  0  0  0  0  0  0  0  0  0  0
    5.4641    5.8261    0.0000 C   0  0  0  0  0  0  0  0  0  0  0  0
    5.4641    1.8261    0.0000 C   0  0  0  0  0  0  0  0  0  0  0  0
    4.5981    0.3261    0.0000 C   0  0  3  0  0  0  0  0  0  0  0  0
    3.7320   -0.1739    0.0000 C   0  0  0  0  0  0  0  0  0  0  0  0
    5.4641   -0.1739    0.0000 C   0  0  0  0  0  0  0  0  0  0  0  0
    3.7320   -1.1739    0.0000 C   0  0  0  0  0  0  0  0  0  0  0  0
    2.8660    0.3261    0.0000 C   0  0  0  0  0  0  0  0  0  0  0  0
    2.8660   -1.6739    0.0000 C   0  0  0  0  0  0  0  0  0  0  0  0
    2.0000   -0.1739    0.0000 C   0  0  0  0  0  0  0  0  0  0  0  0
    6.3301   -1.6739    0.0000 C   0  0  0  0  0  0  0  0  0  0  0  0
    2.0000   -1.1739    0.0000 C   0  0  0  0  0  0  0  0  0  0  0  0
    7.4128   -2.8764    0.0000 C   0  0  0  0  0  0  0  0  0  0  0  0
    7.8195   -3.7899    0.0000 C   0  0  0  0  0  0  0  0  0  0  0  0
    7.9128   -2.0103    0.0000 C   0  0  0  0  0  0  0  0  0  0  0  0
    8.8141   -3.8944    0.0000 C   0  0  0  0  0  0  0  0  0  0  0  0
   10.2153   -4.9125    0.0000 C   0  0  0  0  0  0  0  0  0  0  0  0
   10.6221   -5.8261    0.0000 C   0  0  0  0  0  0  0  0  0  0  0  0
    6.9407    4.2184    0.0000 H   0  0  0  0  0  0  0  0  0  0  0  0
    6.5422    4.9087    0.0000 H   0  0  0  0  0  0  0  0  0  0  0  0
    4.3860    4.9087    0.0000 H   0  0  0  0  0  0  0  0  0  0  0  0
    3.9875    4.2184    0.0000 H   0  0  0  0  0  0  0  0  0  0  0  0
    6.5422    2.7434    0.0000 H   0  0  0  0  0  0  0  0  0  0  0  0
    6.9407    3.4337    0.0000 H   0  0  0  0  0  0  0  0  0  0  0  0
    3.9875    3.4337    0.0000 H   0  0  0  0  0  0  0  0  0  0  0  0
    4.3860    2.7434    0.0000 H   0  0  0  0  0  0  0  0  0  0  0  0
    6.0841    5.8261    0.0000 H   0  0  0  0  0  0  0  0  0  0  0  0
    5.4641    6.4461    0.0000 H   0  0  0  0  0  0  0  0  0  0  0  0
    4.8441    5.8261    0.0000 H   0  0  0  0  0  0  0  0  0  0  0  0
    5.1350    0.6361    0.0000 H   0  0  0  0  0  0  0  0  0  0  0  0
    4.2690   -1.4839    0.0000 H   0  0  0  0  0  0  0  0  0  0  0  0
    2.8660    0.9461    0.0000 H   0  0  0  0  0  0  0  0  0  0  0  0
    4.9272   -1.4839    0.0000 H   0  0  0  0  0  0  0  0  0  0  0  0
    2.8660   -2.2939    0.0000 H   0  0  0  0  0  0  0  0  0  0  0  0
    1.4631    0.1361    0.0000 H   0  0  0  0  0  0  0  0  0  0  0  0
    1.4631   -1.4839    0.0000 H   0  0  0  0  0  0  0  0  0  0  0  0
    7.2180   -3.9399    0.0000 H   0  0  0  0  0  0  0  0  0  0  0  0
    7.8628   -4.4084    0.0000 H   0  0  0  0  0  0  0  0  0  0  0  0
    8.5294   -1.9455    0.0000 H   0  0  0  0  0  0  0  0  0  0  0  0
   10.8169   -4.7625    0.0000 H   0  0  0  0  0  0  0  0  0  0  0  0
   10.1721   -4.2940    0.0000 H   0  0  0  0  0  0  0  0  0  0  0  0
   10.0557   -6.0782    0.0000 H   0  0  0  0  0  0  0  0  0  0  0  0
   10.8742   -6.3925    0.0000 H   0  0  0  0  0  0  0  0  0  0  0  0
   11.1885   -5.5739    0.0000 H   0  0  0  0  0  0  0  0  0  0  0  0
  1 16  1  0  0  0  0
  1 17  1  0  0  0  0
  2 16  2  0  0  0  0
  3 24  1  0  0  0  0
  3 28  1  0  0  0  0
  4 19  2  0  0  0  0
  5 29  1  0  0  0  0
  5 30  1  0  0  0  0
  6 29  2  0  0  0  0
  7 11  1  0  0  0  0
  7 12  1  0  0  0  0
  7 15  1  0  0  0  0
  8 13  1  0  0  0  0
  8 14  1  0  0  0  0
  8 16  1  0  0  0  0
  9 19  1  0  0  0  0
  9 24  1  0  0  0  0
  9 46  1  0  0  0  0
 10 24  2  0  0  0  0
 10 26  1  0  0  0  0
 11 13  1  0  0  0  0
 11 32  1  0  0  0  0
 11 33  1  0  0  0  0
 12 14  1  0  0  0  0
 12 34  1  0  0  0  0
 12 35  1  0  0  0  0
 13 36  1  0  0  0  0
 13 37  1  0  0  0  0
 14 38  1  0  0  0  0
 14 39  1  0  0  0  0
 15 40  1  0  0  0  0
 15 41  1  0  0  0  0
 15 42  1  0  0  0  0
 17 18  1  0  0  0  0
 17 19  1  0  0  0  0
 17 43  1  0  0  0  0
 18 20  2  0  0  0  0
 18 21  1  0  0  0  0
 20 22  1  0  0  0  0
 20 44  1  0  0  0  0
 21 23  2  0  0  0  0
 21 45  1  0  0  0  0
 22 25  2  0  0  0  0
 22 47  1  0  0  0  0
 23 25  1  0  0  0  0
 23 48  1  0  0  0  0
 25 49  1  0  0  0  0
 26 27  1  0  0  0  0
 26 28  2  0  0  0  0
 27 29  1  0  0  0  0
 27 50  1  0  0  0  0
 27 51  1  0  0  0  0
 28 52  1  0  0  0  0
 30 31  1  0  0  0  0
 30 53  1  0  0  0  0
 30 54  1  0  0  0  0
 31 55  1  0  0  0  0
 31 56  1  0  0  0  0
 31 57  1  0  0  0  0
M  END
> <PUBCHEM_COMPOUND_CID>
504151
> <PUBCHEM_COMPOUND_CANONICALIZED>
1
> <PUBCHEM_CACTVS_COMPLEXITY>
625
> <PUBCHEM_CACTVS_HBOND_ACCEPTOR>
8
> <PUBCHEM_CACTVS_HBOND_DONOR>
1
> <PUBCHEM_CACTVS_ROTATABLE_BOND>
9
> <PUBCHEM_CACTVS_SUBSKEYS>
AAADceB7sABgAAAAAAAAAAAAAAAAAWAAAAA8QAAAAAAAAAABwAAAHgQQAAAADAjl3gazmZPIFAisAyXyfAAC8KlhCjkJiBU4IIiIYDqgnRGWIAAu0QOIiCcYiICOAAAAAAAAAAAAAAAAAAAAAAAAAAAAAA==
> <PUBCHEM_IUPAC_OPENEYE_NAME>
ethyl 2-[2-[[2-(4-methylpiperazine-1-carbothioyl)sulfanyl-2-phenyl-acetyl]amino]thiazol-4-yl]acetate
> <PUBCHEM_IUPAC_CAS_NAME>
2-[2-[[2-[[(4-methyl-1-piperazinyl)-sulfanylidenemethyl]thio]-1-oxo-2-phenylethyl]amino]-4-thiazolyl]acetic acid ethyl ester
> <PUBCHEM_IUPAC_NAME_MARKUP>
ethyl 2-[2-[[2-(4-methylpiperazine-1-carbothioyl)sulfanyl-2-phenylacetyl]amino]-1,3-thiazol-4-yl]acetate
> <PUBCHEM_IUPAC_NAME>
ethyl 2-[2-[[2-(4-methylpiperazine-1-carbothioyl)sulfanyl-2-phenylacetyl]amino]-1,3-thiazol-4-yl]acetate
> <PUBCHEM_IUPAC_SYSTEMATIC_NAME>
ethyl 2-[2-[[2-(4-methylpiperazin-1-yl)carbothioylsulfanyl-2-phenyl-ethanoyl]amino]-1,3-thiazol-4-yl]ethanoate
> <PUBCHEM_IUPAC_TRADITIONAL_NAME>
2-[2-[[2-[(4-methylpiperazine-1-carbothioyl)thio]-2-phenyl-acetyl]amino]thiazol-4-yl]acetic acid ethyl ester
> <PUBCHEM_IUPAC_INCHI>
InChI=1S/C21H26N4O3S3/c1-3-28-17(26)13-16-14-30-20(22-16)23-19(27)18(15-7-5-4-6-8-15)31-21(29)25-11-9-24(2)10-12-25/h4-8,14,18H,3,9-13H2,1-2H3,(H,22,23,27)
> <PUBCHEM_IUPAC_INCHIKEY>
YIMKDDMGGNWQBY-UHFFFAOYSA-N
> <PUBCHEM_XLOGP3_AA>
3.2
> <PUBCHEM_EXACT_MASS>
478.11670422
> <PUBCHEM_MOLECULAR_FORMULA>
C21H26N4O3S3
> <PUBCHEM_MOLECULAR_WEIGHT>
478.7
> <PUBCHEM_OPENEYE_CAN_SMILES>
CCOC(=O)CC1=CSC(=N1)NC(=O)C(C2=CC=CC=C2)SC(=S)N3CCN(CC3)C
> <PUBCHEM_OPENEYE_ISO_SMILES>
CCOC(=O)CC1=CSC(=N1)NC(=O)C(C2=CC=CC=C2)SC(=S)N3CCN(CC3)C
> <PUBCHEM_CACTVS_TPSA>
160
> <PUBCHEM_MONOISOTOPIC_WEIGHT>
478.11670422
> <PUBCHEM_TOTAL_CHARGE>
0
> <PUBCHEM_HEAVY_ATOM_COUNT>
31
> <PUBCHEM_ATOM_DEF_STEREO_COUNT>
0
> <PUBCHEM_ATOM_UDEF_STEREO_COUNT>
1
> <PUBCHEM_BOND_DEF_STEREO_COUNT>
0
> <PUBCHEM_BOND_UDEF_STEREO_COUNT>
0
> <PUBCHEM_ISOTOPIC_ATOM_COUNT>
0
> <PUBCHEM_COMPONENT_COUNT>
1
> <PUBCHEM_CACTVS_TAUTO_COUNT>
-1
> <PUBCHEM_COORDINATE_TYPE>
1
5
255
> <PUBCHEM_BONDANNOTATIONS>
10  24  8
10  26  8
17  19  3
18  20  8
18  21  8
20  22  8
21  23  8
22  25  8
23  25  8
26  28  8
3  24  8
3  28  8
$$$$
