504116
  -OEChem-10302200282D
102109  0     1  0  0  0  0  0999 V2000
    3.9235   -6.2717    0.0000 F   0  0  0  0  0  0  0  0  0  0  0  0
    2.6878   -6.9595    0.0000 F   0  0  0  0  0  0  0  0  0  0  0  0
    2.0000   -5.7238    0.0000 F   0  0  0  0  0  0  0  0  0  0  0  0
    9.6397    3.1904    0.0000 O   0  0  0  0  0  0  0  0  0  0  0  0
    8.3054    4.0904    0.0000 O   0  0  0  0  0  0  0  0  0  0  0  0
    6.9686    0.6695    0.0000 O   0  0  0  0  0  0  0  0  0  0  0  0
    6.2714   -0.7019    0.0000 O   0  0  0  0  0  0  0  0  0  0  0  0
   10.7614   -3.0266    0.0000 O   0  0  0  0  0  0  0  0  0  0  0  0
    8.5254    1.4288    0.0000 N   0  0  0  0  0  0  0  0  0  0  0  0
    7.9371   -1.1764    0.0000 N   0  0  0  0  0  0  0  0  0  0  0  0
   10.5144   -1.3123    0.0000 N   0  0  0  0  0  0  0  0  0  0  0  0
    8.3591   -2.8563    0.0000 N   0  0  0  0  0  0  0  0  0  0  0  0
    5.7234   -2.6253    0.0000 N   0  0  0  0  0  0  0  0  0  0  0  0
   12.1226   -1.9556    0.0000 N   0  0  0  0  0  0  0  0  0  0  0  0
   11.1372    5.0109    0.0000 C   0  0  3  0  0  0  0  0  0  0  0  0
   12.5362    5.0198    0.0000 C   0  0  0  0  0  0  0  0  0  0  0  0
   11.3961    5.9769    0.0000 C   0  0  3  0  0  0  0  0  0  0  0  0
   10.6594    6.9595    0.0000 C   0  0  0  0  0  0  0  0  0  0  0  0
    9.9162    4.1453    0.0000 C   0  0  3  0  0  0  0  0  0  0  0  0
    9.0872    4.7045    0.0000 C   0  0  2  0  0  0  0  0  0  0  0  0
    9.3628    5.6657    0.0000 C   0  0  0  0  0  0  0  0  0  0  0  0
   13.4022    5.5198    0.0000 C   0  0  0  0  0  0  0  0  0  0  0  0
   13.0362    4.1537    0.0000 C   0  0  0  0  0  0  0  0  0  0  0  0
    8.2581    5.2637    0.0000 C   0  0  0  0  0  0  0  0  0  0  0  0
    8.0870    2.3276    0.0000 C   0  0  1  0  0  0  0  0  0  0  0  0
    7.0895    2.3973    0.0000 C   0  0  0  0  0  0  0  0  0  0  0  0
    6.5303    1.5683    0.0000 C   0  0  0  0  0  0  0  0  0  0  0  0
    7.9662    0.5997    0.0000 C   0  0  0  0  0  0  0  0  0  0  0  0
    8.4046   -0.2991    0.0000 C   0  0  2  0  0  0  0  0  0  0  0  0
    9.3837   -0.4708    0.0000 C   0  0  0  0  0  0  0  0  0  0  0  0
    9.5246   -1.4549    0.0000 C   0  0  2  0  0  0  0  0  0  0  0  0
    8.6330   -1.8945    0.0000 C   0  0  0  0  0  0  0  0  0  0  0  0
    9.9661   -2.3522    0.0000 C   0  0  0  0  0  0  0  0  0  0  0  0
    6.9673   -1.4200    0.0000 C   0  0  0  0  0  0  0  0  0  0  0  0
    6.6933   -2.3817    0.0000 C   0  0  0  0  0  0  0  0  0  0  0  0
    7.3892   -3.0999    0.0000 C   0  0  0  0  0  0  0  0  0  0  0  0
   11.1328   -2.0982    0.0000 C   0  0  0  0  0  0  0  0  0  0  0  0
    5.4494   -3.5871    0.0000 C   0  0  0  0  0  0  0  0  0  0  0  0
   12.7409   -2.7414    0.0000 C   0  0  0  0  0  0  0  0  0  0  0  0
    4.4796   -3.8307    0.0000 C   0  0  0  0  0  0  0  0  0  0  0  0
   13.7307   -2.5988    0.0000 C   0  0  0  0  0  0  0  0  0  0  0  0
   12.3696   -3.6699    0.0000 C   0  0  0  0  0  0  0  0  0  0  0  0
    4.2056   -4.7924    0.0000 C   0  0  0  0  0  0  0  0  0  0  0  0
    3.7837   -3.1125    0.0000 C   0  0  0  0  0  0  0  0  0  0  0  0
   14.3491   -3.3847    0.0000 C   0  0  0  0  0  0  0  0  0  0  0  0
   12.9879   -4.4558    0.0000 C   0  0  0  0  0  0  0  0  0  0  0  0
   14.1026   -1.6259    0.0000 C   0  0  0  0  0  0  0  0  0  0  0  0
   13.9777   -4.3132    0.0000 C   0  0  0  0  0  0  0  0  0  0  0  0
    3.2357   -5.0360    0.0000 C   0  0  0  0  0  0  0  0  0  0  0  0
    2.8138   -3.3561    0.0000 C   0  0  0  0  0  0  0  0  0  0  0  0
   15.3823   -3.2521    0.0000 C   0  0  0  0  0  0  0  0  0  0  0  0
    2.5398   -4.3179    0.0000 C   0  0  0  0  0  0  0  0  0  0  0  0
   15.1324   -1.4694    0.0000 C   0  0  0  0  0  0  0  0  0  0  0  0
   15.7766   -2.2880    0.0000 C   0  0  0  0  0  0  0  0  0  0  0  0
    2.9617   -5.9977    0.0000 C   0  0  0  0  0  0  0  0  0  0  0  0
    8.6462    3.1566    0.0000 B   0  0  0  0  0  0  0  0  0  0  0  0
   11.3273    4.4208    0.0000 H   0  0  0  0  0  0  0  0  0  0  0  0
   11.8464    6.4030    0.0000 H   0  0  0  0  0  0  0  0  0  0  0  0
   10.9772    7.4918    0.0000 H   0  0  0  0  0  0  0  0  0  0  0  0
   10.0463    7.0514    0.0000 H   0  0  0  0  0  0  0  0  0  0  0  0
   10.4216    3.7861    0.0000 H   0  0  0  0  0  0  0  0  0  0  0  0
    9.3578    6.2857    0.0000 H   0  0  0  0  0  0  0  0  0  0  0  0
    8.7485    5.7495    0.0000 H   0  0  0  0  0  0  0  0  0  0  0  0
   13.7122    4.9828    0.0000 H   0  0  0  0  0  0  0  0  0  0  0  0
   13.9391    5.8298    0.0000 H   0  0  0  0  0  0  0  0  0  0  0  0
   13.0922    6.0567    0.0000 H   0  0  0  0  0  0  0  0  0  0  0  0
   12.4992    3.8437    0.0000 H   0  0  0  0  0  0  0  0  0  0  0  0
   13.3462    3.6168    0.0000 H   0  0  0  0  0  0  0  0  0  0  0  0
   13.5731    4.4637    0.0000 H   0  0  0  0  0  0  0  0  0  0  0  0
    8.6048    5.7777    0.0000 H   0  0  0  0  0  0  0  0  0  0  0  0
    7.7441    5.6104    0.0000 H   0  0  0  0  0  0  0  0  0  0  0  0
    7.9114    4.7497    0.0000 H   0  0  0  0  0  0  0  0  0  0  0  0
    7.7403    1.8136    0.0000 H   0  0  0  0  0  0  0  0  0  0  0  0
    7.2395    2.9989    0.0000 H   0  0  0  0  0  0  0  0  0  0  0  0
    6.5231    2.6495    0.0000 H   0  0  0  0  0  0  0  0  0  0  0  0
    9.1439    1.3855    0.0000 H   0  0  0  0  0  0  0  0  0  0  0  0
    6.0163    1.9150    0.0000 H   0  0  0  0  0  0  0  0  0  0  0  0
    6.1836    1.0543    0.0000 H   0  0  0  0  0  0  0  0  0  0  0  0
    7.0443    1.2216    0.0000 H   0  0  0  0  0  0  0  0  0  0  0  0
    7.7847   -0.2880    0.0000 H   0  0  0  0  0  0  0  0  0  0  0  0
   10.0033   -0.4480    0.0000 H   0  0  0  0  0  0  0  0  0  0  0  0
    9.4261    0.1477    0.0000 H   0  0  0  0  0  0  0  0  0  0  0  0
    9.4098   -2.6259    0.0000 H   0  0  0  0  0  0  0  0  0  0  0  0
   10.2398   -2.9085    0.0000 H   0  0  0  0  0  0  0  0  0  0  0  0
   10.5224   -2.0784    0.0000 H   0  0  0  0  0  0  0  0  0  0  0  0
   10.7447   -0.7366    0.0000 H   0  0  0  0  0  0  0  0  0  0  0  0
    7.2193   -3.6961    0.0000 H   0  0  0  0  0  0  0  0  0  0  0  0
    5.2920   -2.1801    0.0000 H   0  0  0  0  0  0  0  0  0  0  0  0
   12.3528   -1.3799    0.0000 H   0  0  0  0  0  0  0  0  0  0  0  0
    5.4938   -4.2055    0.0000 H   0  0  0  0  0  0  0  0  0  0  0  0
    6.0662   -3.6508    0.0000 H   0  0  0  0  0  0  0  0  0  0  0  0
   11.7559   -3.7583    0.0000 H   0  0  0  0  0  0  0  0  0  0  0  0
    4.6370   -5.2376    0.0000 H   0  0  0  0  0  0  0  0  0  0  0  0
    3.9535   -2.5162    0.0000 H   0  0  0  0  0  0  0  0  0  0  0  0
   12.7577   -5.0315    0.0000 H   0  0  0  0  0  0  0  0  0  0  0  0
   13.7136   -1.1431    0.0000 H   0  0  0  0  0  0  0  0  0  0  0  0
   14.3611   -4.8004    0.0000 H   0  0  0  0  0  0  0  0  0  0  0  0
    2.3823   -2.9109    0.0000 H   0  0  0  0  0  0  0  0  0  0  0  0
   15.7600   -3.7437    0.0000 H   0  0  0  0  0  0  0  0  0  0  0  0
    1.9385   -4.4689    0.0000 H   0  0  0  0  0  0  0  0  0  0  0  0
   15.3605   -0.8928    0.0000 H   0  0  0  0  0  0  0  0  0  0  0  0
   16.3906   -2.2019    0.0000 H   0  0  0  0  0  0  0  0  0  0  0  0
  1 55  1  0  0  0  0
  2 55  1  0  0  0  0
  3 55  1  0  0  0  0
  4 19  1  0  0  0  0
  4 56  1  0  0  0  0
  5 20  1  0  0  0  0
  5 56  1  0  0  0  0
  6 28  2  0  0  0  0
  7 34  2  0  0  0  0
  8 37  2  0  0  0  0
 25  9  1  1  0  0  0
  9 28  1  0  0  0  0
  9 76  1  0  0  0  0
 10 29  1  0  0  0  0
 10 32  1  0  0  0  0
 10 34  1  0  0  0  0
 31 11  1  1  0  0  0
 11 37  1  0  0  0  0
 11 86  1  0  0  0  0
 12 32  2  0  0  0  0
 12 36  1  0  0  0  0
 13 35  1  0  0  0  0
 13 38  1  0  0  0  0
 13 88  1  0  0  0  0
 14 37  1  0  0  0  0
 14 39  1  0  0  0  0
 14 89  1  0  0  0  0
 15 16  1  0  0  0  0
 15 18  1  0  0  0  0
 15 19  1  0  0  0  0
 15 57  1  0  0  0  0
 16 17  1  0  0  0  0
 16 22  1  0  0  0  0
 16 23  1  0  0  0  0
 17 18  1  0  0  0  0
 17 21  1  0  0  0  0
 17 58  1  0  0  0  0
 18 59  1  0  0  0  0
 18 60  1  0  0  0  0
 19 20  1  0  0  0  0
 19 61  1  0  0  0  0
 20 21  1  0  0  0  0
 20 24  1  6  0  0  0
 21 62  1  0  0  0  0
 21 63  1  0  0  0  0
 22 64  1  0  0  0  0
 22 65  1  0  0  0  0
 22 66  1  0  0  0  0
 23 67  1  0  0  0  0
 23 68  1  0  0  0  0
 23 69  1  0  0  0  0
 24 70  1  0  0  0  0
 24 71  1  0  0  0  0
 24 72  1  0  0  0  0
 25 26  1  0  0  0  0
 25 56  1  0  0  0  0
 25 73  1  0  0  0  0
 26 27  1  0  0  0  0
 26 74  1  0  0  0  0
 26 75  1  0  0  0  0
 27 77  1  0  0  0  0
 27 78  1  0  0  0  0
 27 79  1  0  0  0  0
 29 28  1  6  0  0  0
 29 30  1  0  0  0  0
 29 80  1  0  0  0  0
 30 31  1  0  0  0  0
 30 81  1  0  0  0  0
 30 82  1  0  0  0  0
 31 32  1  0  0  0  0
 31 33  1  0  0  0  0
 33 83  1  0  0  0  0
 33 84  1  0  0  0  0
 33 85  1  0  0  0  0
 34 35  1  0  0  0  0
 35 36  2  0  0  0  0
 36 87  1  0  0  0  0
 38 40  1  0  0  0  0
 38 90  1  0  0  0  0
 38 91  1  0  0  0  0
 39 41  1  0  0  0  0
 39 42  2  0  0  0  0
 40 43  2  0  0  0  0
 40 44  1  0  0  0  0
 41 45  1  0  0  0  0
 41 47  2  0  0  0  0
 42 46  1  0  0  0  0
 42 92  1  0  0  0  0
 43 49  1  0  0  0  0
 43 93  1  0  0  0  0
 44 50  2  0  0  0  0
 44 94  1  0  0  0  0
 45 48  1  0  0  0  0
 45 51  2  0  0  0  0
 46 48  2  0  0  0  0
 46 95  1  0  0  0  0
 47 53  1  0  0  0  0
 47 96  1  0  0  0  0
 48 97  1  0  0  0  0
 49 52  2  0  0  0  0
 49 55  1  0  0  0  0
 50 52  1  0  0  0  0
 50 98  1  0  0  0  0
 51 54  1  0  0  0  0
 51 99  1  0  0  0  0
 52100  1  0  0  0  0
 53 54  2  0  0  0  0
 53101  1  0  0  0  0
 54102  1  0  0  0  0
M  END
> <PUBCHEM_COMPOUND_CID>
504116
> <PUBCHEM_COMPOUND_CANONICALIZED>
1
> <PUBCHEM_CACTVS_COMPLEXITY>
1630
> <PUBCHEM_CACTVS_HBOND_ACCEPTOR>
10
> <PUBCHEM_CACTVS_HBOND_DONOR>
4
> <PUBCHEM_CACTVS_ROTATABLE_BOND>
9
> <PUBCHEM_CACTVS_SUBSKEYS>
AAADcfJ/uYAAAAAAAAAAAAAAAABgAWJAAAAwYMGDAAAAAEjBVAAoHwAQAAAAD/zhmBYzwMPAAACoAid2dACCAAEhAgAJiIGoZMiJYDLA2bGUIAhslgLIyOecwfAPgAACQAASAADAAAaAADSAAAAAAAAAAA==
> <PUBCHEM_IUPAC_OPENEYE_NAME>
(6S,8R)-8-methyl-8-(1-naphthylcarbamoylamino)-4-oxo-3-[[3-(trifluoromethyl)phenyl]methylamino]-N-[(1R)-1-[(6S)-6,9,9-trimethyl-3,5-dioxa-4-boratricyclo[6.1.1.02,6]decan-4-yl]propyl]-6,7-dihydropyrrolo[1,2-a]pyrimidine-6-carboxamide
> <PUBCHEM_IUPAC_CAS_NAME>
(6S,8R)-8-methyl-8-[[(1-naphthalenylamino)-oxomethyl]amino]-4-oxo-3-[[3-(trifluoromethyl)phenyl]methylamino]-N-[(1R)-1-[(6S)-6,9,9-trimethyl-3,5-dioxa-4-boratricyclo[6.1.1.02,6]decan-4-yl]propyl]-6,7-dihydropyrrolo[1,2-a]pyrimidine-6-carboxamide
> <PUBCHEM_IUPAC_NAME_MARKUP>
(6<I>S</I>,8<I>R</I>)-8-methyl-8-(naphthalen-1-ylcarbamoylamino)-4-oxo-3-[[3-(trifluoromethyl)phenyl]methylamino]-<I>N</I>-[(1<I>R</I>)-1-[(6<I>S</I>)-6,9,9-trimethyl-3,5-dioxa-4-boratricyclo[6.1.1.0<SUP>2,6</SUP>]decan-4-yl]propyl]-6,7-dihydropyrrolo[1,2-a]pyrimidine-6-carboxamide
> <PUBCHEM_IUPAC_NAME>
(6S,8R)-8-methyl-8-(naphthalen-1-ylcarbamoylamino)-4-oxo-3-[[3-(trifluoromethyl)phenyl]methylamino]-N-[(1R)-1-[(6S)-6,9,9-trimethyl-3,5-dioxa-4-boratricyclo[6.1.1.02,6]decan-4-yl]propyl]-6,7-dihydropyrrolo[1,2-a]pyrimidine-6-carboxamide
> <PUBCHEM_IUPAC_SYSTEMATIC_NAME>
(6S,8R)-8-methyl-8-(naphthalen-1-ylcarbamoylamino)-4-oxidanylidene-3-[[3-(trifluoromethyl)phenyl]methylamino]-N-[(1R)-1-[(6S)-6,9,9-trimethyl-3,5-dioxa-4-boratricyclo[6.1.1.02,6]decan-4-yl]propyl]-6,7-dihydropyrrolo[1,2-a]pyrimidine-6-carboxamide
> <PUBCHEM_IUPAC_TRADITIONAL_NAME>
(6S,8R)-4-keto-8-methyl-8-(1-naphthylcarbamoylamino)-3-[[3-(trifluoromethyl)benzyl]amino]-N-[(1R)-1-[(6S)-6,9,9-trimethyl-3,5-dioxa-4-boratricyclo[6.1.1.02,6]decan-4-yl]propyl]-6,7-dihydropyrrolo[1,2-a]pyrimidine-6-carboxamide
> <PUBCHEM_IUPAC_INCHI>
InChI=1S/C41H46BF3N6O5/c1-6-32(42-55-33-28-18-26(38(28,2)3)19-40(33,5)56-42)49-34(52)31-20-39(4,50-37(54)48-29-16-10-13-24-12-7-8-15-27(24)29)36-47-22-30(35(53)51(31)36)46-21-23-11-9-14-25(17-23)41(43,44)45/h7-17,22,26,28,31-33,46H,6,18-21H2,1-5H3,(H,49,52)(H2,48,50,54)/t26?,28?,31-,32-,33?,39+,40-/m0/s1
> <PUBCHEM_IUPAC_INCHIKEY>
ZZNODCOQBQCYOO-MQIKNHNJSA-N
> <PUBCHEM_EXACT_MASS>
770.3574832
> <PUBCHEM_MOLECULAR_FORMULA>
C41H46BF3N6O5
> <PUBCHEM_MOLECULAR_WEIGHT>
770.6
> <PUBCHEM_OPENEYE_CAN_SMILES>
B1(OC2C3CC(C3(C)C)CC2(O1)C)C(CC)NC(=O)C4CC(C5=NC=C(C(=O)N45)NCC6=CC(=CC=C6)C(F)(F)F)(C)NC(=O)NC7=CC=CC8=CC=CC=C87
> <PUBCHEM_OPENEYE_ISO_SMILES>
B1(OC2C3CC(C3(C)C)C[C@@]2(O1)C)[C@H](CC)NC(=O)[C@@H]4C[C@@](C5=NC=C(C(=O)N45)NCC6=CC(=CC=C6)C(F)(F)F)(C)NC(=O)NC7=CC=CC8=CC=CC=C87
> <PUBCHEM_CACTVS_TPSA>
133
> <PUBCHEM_MONOISOTOPIC_WEIGHT>
770.3574832
> <PUBCHEM_TOTAL_CHARGE>
0
> <PUBCHEM_HEAVY_ATOM_COUNT>
56
> <PUBCHEM_ATOM_DEF_STEREO_COUNT>
4
> <PUBCHEM_ATOM_UDEF_STEREO_COUNT>
3
> <PUBCHEM_BOND_DEF_STEREO_COUNT>
0
> <PUBCHEM_BOND_UDEF_STEREO_COUNT>
0
> <PUBCHEM_ISOTOPIC_ATOM_COUNT>
0
> <PUBCHEM_COMPONENT_COUNT>
1
> <PUBCHEM_CACTVS_TAUTO_COUNT>
-1
> <PUBCHEM_COORDINATE_TYPE>
1
5
255
> <PUBCHEM_BONDANNOTATIONS>
10  32  8
10  34  8
31  11  5
12  32  8
12  36  8
15  18  3
17  18  3
20  24  6
29  28  6
34  35  8
35  36  8
39  41  8
39  42  8
19  4  3
40  43  8
40  44  8
41  45  8
41  47  8
42  46  8
43  49  8
44  50  8
45  48  8
45  51  8
46  48  8
47  53  8
49  52  8
50  52  8
51  54  8
53  54  8
25  9  5
$$$$
