504184
  -OEChem-10302200282D
100102  0     1  0  0  0  0  0999 V2000
    8.1962    3.2500    0.0000 O   0  0  0  0  0  0  0  0  0  0  0  0
   10.7942    0.7500    0.0000 O   0  0  0  0  0  0  0  0  0  0  0  0
    4.7320    3.2500    0.0000 O   0  0  0  0  0  0  0  0  0  0  0  0
    5.5981    0.7500    0.0000 O   0  0  0  0  0  0  0  0  0  0  0  0
    9.9282   -2.7500    0.0000 O   0  0  0  0  0  0  0  0  0  0  0  0
   13.3923   -3.7500    0.0000 O   0  0  0  0  0  0  0  0  0  0  0  0
    9.0622    0.7500    0.0000 N   0  0  0  0  0  0  0  0  0  0  0  0
    3.8660    1.7500    0.0000 N   0  0  0  0  0  0  0  0  0  0  0  0
    7.3301    1.7500    0.0000 N   0  0  0  0  0  0  0  0  0  0  0  0
   10.7942   -1.2500    0.0000 N   0  0  0  0  0  0  0  0  0  0  0  0
   12.5263   -2.2500    0.0000 N   0  0  0  0  0  0  0  0  0  0  0  0
   15.1244   -2.7500    0.0000 N   0  0  0  0  0  0  0  0  0  0  0  0
   15.1244   -0.7500    0.0000 N   0  0  0  0  0  0  0  0  0  0  0  0
    9.9282    3.2500    0.0000 C   0  0  0  0  0  0  0  0  0  0  0  0
    9.0622    3.7500    0.0000 C   0  0  0  0  0  0  0  0  0  0  0  0
   10.7942    3.7500    0.0000 C   0  0  0  0  0  0  0  0  0  0  0  0
    9.9282    2.2500    0.0000 C   0  0  0  0  0  0  0  0  0  0  0  0
    9.0622    4.7500    0.0000 C   0  0  0  0  0  0  0  0  0  0  0  0
   10.7942    4.7500    0.0000 C   0  0  0  0  0  0  0  0  0  0  0  0
    9.9282    5.2500    0.0000 C   0  0  0  0  0  0  0  0  0  0  0  0
    3.0000    2.2500    0.0000 C   0  0  0  0  0  0  0  0  0  0  0  0
    9.0622    1.7500    0.0000 C   0  0  1  0  0  0  0  0  0  0  0  0
    2.0000    2.2500    0.0000 C   0  0  0  0  0  0  0  0  0  0  0  0
    2.5000    3.1160    0.0000 C   0  0  0  0  0  0  0  0  0  0  0  0
    8.1962    2.2500    0.0000 C   0  0  0  0  0  0  0  0  0  0  0  0
    9.9282   -0.7500    0.0000 C   0  0  2  0  0  0  0  0  0  0  0  0
    9.9282    0.2500    0.0000 C   0  0  0  0  0  0  0  0  0  0  0  0
    6.4641    2.2500    0.0000 C   0  0  2  0  0  0  0  0  0  0  0  0
    9.0622   -1.2500    0.0000 C   0  0  2  0  0  0  0  0  0  0  0  0
    4.7320    2.2500    0.0000 C   0  0  0  0  0  0  0  0  0  0  0  0
    5.5981    1.7500    0.0000 C   0  0  0  0  0  0  0  0  0  0  0  0
    8.1962   -0.7500    0.0000 C   0  0  0  0  0  0  0  0  0  0  0  0
    6.4641    3.2500    0.0000 C   0  0  0  0  0  0  0  0  0  0  0  0
    9.0622   -2.2500    0.0000 C   0  0  0  0  0  0  0  0  0  0  0  0
   11.6603   -2.7500    0.0000 C   0  0  2  0  0  0  0  0  0  0  0  0
   10.7942   -2.2500    0.0000 C   0  0  0  0  0  0  0  0  0  0  0  0
   11.6603   -3.7500    0.0000 C   0  0  0  0  0  0  0  0  0  0  0  0
    7.3301   -1.2500    0.0000 C   0  0  0  0  0  0  0  0  0  0  0  0
    5.5981    3.7500    0.0000 C   0  0  0  0  0  0  0  0  0  0  0  0
   10.7942   -4.2500    0.0000 C   0  0  0  0  0  0  0  0  0  0  0  0
   10.7942   -5.2500    0.0000 C   0  0  0  0  0  0  0  0  0  0  0  0
    9.9282   -3.7500    0.0000 C   0  0  0  0  0  0  0  0  0  0  0  0
   13.3923   -2.7500    0.0000 C   0  0  0  0  0  0  0  0  0  0  0  0
   14.2583   -2.2500    0.0000 C   0  0  0  0  0  0  0  0  0  0  0  0
   14.2583   -1.2500    0.0000 C   0  0  0  0  0  0  0  0  0  0  0  0
   15.9904   -2.2500    0.0000 C   0  0  0  0  0  0  0  0  0  0  0  0
   15.9904   -1.2500    0.0000 C   0  0  0  0  0  0  0  0  0  0  0  0
   10.4651    2.9400    0.0000 H   0  0  0  0  0  0  0  0  0  0  0  0
    8.4516    3.8577    0.0000 H   0  0  0  0  0  0  0  0  0  0  0  0
    8.8501    3.1674    0.0000 H   0  0  0  0  0  0  0  0  0  0  0  0
   11.0063    3.1674    0.0000 H   0  0  0  0  0  0  0  0  0  0  0  0
   11.4048    3.8577    0.0000 H   0  0  0  0  0  0  0  0  0  0  0  0
   10.1403    1.6674    0.0000 H   0  0  0  0  0  0  0  0  0  0  0  0
   10.5388    2.3577    0.0000 H   0  0  0  0  0  0  0  0  0  0  0  0
    8.8501    5.3326    0.0000 H   0  0  0  0  0  0  0  0  0  0  0  0
    8.4516    4.6423    0.0000 H   0  0  0  0  0  0  0  0  0  0  0  0
   11.4048    4.6423    0.0000 H   0  0  0  0  0  0  0  0  0  0  0  0
   11.0063    5.3326    0.0000 H   0  0  0  0  0  0  0  0  0  0  0  0
   10.3267    5.7250    0.0000 H   0  0  0  0  0  0  0  0  0  0  0  0
    9.5297    5.7250    0.0000 H   0  0  0  0  0  0  0  0  0  0  0  0
    2.8395    1.6511    0.0000 H   0  0  0  0  0  0  0  0  0  0  0  0
    8.5252    1.4400    0.0000 H   0  0  0  0  0  0  0  0  0  0  0  0
    1.4174    2.4620    0.0000 H   0  0  0  0  0  0  0  0  0  0  0  0
    1.8923    1.6394    0.0000 H   0  0  0  0  0  0  0  0  0  0  0  0
    2.9750    3.5146    0.0000 H   0  0  0  0  0  0  0  0  0  0  0  0
    2.0250    3.5146    0.0000 H   0  0  0  0  0  0  0  0  0  0  0  0
    8.5252    0.4400    0.0000 H   0  0  0  0  0  0  0  0  0  0  0  0
    3.8660    1.1300    0.0000 H   0  0  0  0  0  0  0  0  0  0  0  0
   10.4651   -0.4400    0.0000 H   0  0  0  0  0  0  0  0  0  0  0  0
    6.4641    1.6300    0.0000 H   0  0  0  0  0  0  0  0  0  0  0  0
    8.5252   -1.5600    0.0000 H   0  0  0  0  0  0  0  0  0  0  0  0
    7.3301    1.1300    0.0000 H   0  0  0  0  0  0  0  0  0  0  0  0
    8.5947   -0.2751    0.0000 H   0  0  0  0  0  0  0  0  0  0  0  0
    7.7976   -0.2751    0.0000 H   0  0  0  0  0  0  0  0  0  0  0  0
    7.0747    3.1423    0.0000 H   0  0  0  0  0  0  0  0  0  0  0  0
    6.6762    3.8326    0.0000 H   0  0  0  0  0  0  0  0  0  0  0  0
   11.3312   -0.9400    0.0000 H   0  0  0  0  0  0  0  0  0  0  0  0
    8.4422   -2.2500    0.0000 H   0  0  0  0  0  0  0  0  0  0  0  0
    9.0622   -2.8700    0.0000 H   0  0  0  0  0  0  0  0  0  0  0  0
    9.6822   -2.2500    0.0000 H   0  0  0  0  0  0  0  0  0  0  0  0
   12.1972   -3.0600    0.0000 H   0  0  0  0  0  0  0  0  0  0  0  0
   11.8723   -4.3326    0.0000 H   0  0  0  0  0  0  0  0  0  0  0  0
   12.2708   -3.6423    0.0000 H   0  0  0  0  0  0  0  0  0  0  0  0
    7.0201   -0.7131    0.0000 H   0  0  0  0  0  0  0  0  0  0  0  0
    6.7932   -1.5600    0.0000 H   0  0  0  0  0  0  0  0  0  0  0  0
    7.6401   -1.7869    0.0000 H   0  0  0  0  0  0  0  0  0  0  0  0
    5.9081    4.2869    0.0000 H   0  0  0  0  0  0  0  0  0  0  0  0
    5.0611    4.0600    0.0000 H   0  0  0  0  0  0  0  0  0  0  0  0
    5.2881    3.2131    0.0000 H   0  0  0  0  0  0  0  0  0  0  0  0
   10.2573   -4.5600    0.0000 H   0  0  0  0  0  0  0  0  0  0  0  0
   12.5263   -1.6300    0.0000 H   0  0  0  0  0  0  0  0  0  0  0  0
   10.1742   -5.2500    0.0000 H   0  0  0  0  0  0  0  0  0  0  0  0
   10.7942   -5.8700    0.0000 H   0  0  0  0  0  0  0  0  0  0  0  0
   11.4142   -5.2500    0.0000 H   0  0  0  0  0  0  0  0  0  0  0  0
   10.2382   -3.2131    0.0000 H   0  0  0  0  0  0  0  0  0  0  0  0
    9.3913   -3.4400    0.0000 H   0  0  0  0  0  0  0  0  0  0  0  0
    9.6182   -4.2869    0.0000 H   0  0  0  0  0  0  0  0  0  0  0  0
   13.7214   -0.9400    0.0000 H   0  0  0  0  0  0  0  0  0  0  0  0
   16.5273   -2.5600    0.0000 H   0  0  0  0  0  0  0  0  0  0  0  0
   16.5273   -0.9400    0.0000 H   0  0  0  0  0  0  0  0  0  0  0  0
  1 25  2  0  0  0  0
  2 27  2  0  0  0  0
  3 30  2  0  0  0  0
  4 31  2  0  0  0  0
  5 36  2  0  0  0  0
  6 43  2  0  0  0  0
 22  7  1  6  0  0  0
  7 27  1  0  0  0  0
  7 67  1  0  0  0  0
  8 21  1  0  0  0  0
  8 30  1  0  0  0  0
  8 68  1  0  0  0  0
  9 25  1  0  0  0  0
 28  9  1  6  0  0  0
  9 72  1  0  0  0  0
 26 10  1  1  0  0  0
 10 36  1  0  0  0  0
 10 77  1  0  0  0  0
 35 11  1  1  0  0  0
 11 43  1  0  0  0  0
 11 91  1  0  0  0  0
 12 44  2  0  0  0  0
 12 46  1  0  0  0  0
 13 45  2  0  0  0  0
 13 47  1  0  0  0  0
 14 15  1  0  0  0  0
 14 16  1  0  0  0  0
 14 17  1  0  0  0  0
 14 48  1  0  0  0  0
 15 18  1  0  0  0  0
 15 49  1  0  0  0  0
 15 50  1  0  0  0  0
 16 19  1  0  0  0  0
 16 51  1  0  0  0  0
 16 52  1  0  0  0  0
 17 22  1  0  0  0  0
 17 53  1  0  0  0  0
 17 54  1  0  0  0  0
 18 20  1  0  0  0  0
 18 55  1  0  0  0  0
 18 56  1  0  0  0  0
 19 20  1  0  0  0  0
 19 57  1  0  0  0  0
 19 58  1  0  0  0  0
 20 59  1  0  0  0  0
 20 60  1  0  0  0  0
 21 23  1  0  0  0  0
 21 24  1  0  0  0  0
 21 61  1  0  0  0  0
 22 25  1  0  0  0  0
 22 62  1  0  0  0  0
 23 24  1  0  0  0  0
 23 63  1  0  0  0  0
 23 64  1  0  0  0  0
 24 65  1  0  0  0  0
 24 66  1  0  0  0  0
 26 27  1  0  0  0  0
 26 29  1  0  0  0  0
 26 69  1  0  0  0  0
 28 31  1  0  0  0  0
 28 33  1  0  0  0  0
 28 70  1  0  0  0  0
 29 32  1  0  0  0  0
 29 34  1  1  0  0  0
 29 71  1  0  0  0  0
 30 31  1  0  0  0  0
 32 38  1  0  0  0  0
 32 73  1  0  0  0  0
 32 74  1  0  0  0  0
 33 39  1  0  0  0  0
 33 75  1  0  0  0  0
 33 76  1  0  0  0  0
 34 78  1  0  0  0  0
 34 79  1  0  0  0  0
 34 80  1  0  0  0  0
 35 36  1  0  0  0  0
 35 37  1  0  0  0  0
 35 81  1  0  0  0  0
 37 40  1  0  0  0  0
 37 82  1  0  0  0  0
 37 83  1  0  0  0  0
 38 84  1  0  0  0  0
 38 85  1  0  0  0  0
 38 86  1  0  0  0  0
 39 87  1  0  0  0  0
 39 88  1  0  0  0  0
 39 89  1  0  0  0  0
 40 41  1  0  0  0  0
 40 42  1  0  0  0  0
 40 90  1  0  0  0  0
 41 92  1  0  0  0  0
 41 93  1  0  0  0  0
 41 94  1  0  0  0  0
 42 95  1  0  0  0  0
 42 96  1  0  0  0  0
 42 97  1  0  0  0  0
 43 44  1  0  0  0  0
 44 45  1  0  0  0  0
 45 98  1  0  0  0  0
 46 47  2  0  0  0  0
 46 99  1  0  0  0  0
 47100  1  0  0  0  0
M  END
> <PUBCHEM_COMPOUND_CID>
504184
> <PUBCHEM_COMPOUND_CANONICALIZED>
1
> <PUBCHEM_CACTVS_COMPLEXITY>
1090
> <PUBCHEM_CACTVS_HBOND_ACCEPTOR>
8
> <PUBCHEM_CACTVS_HBOND_DONOR>
5
> <PUBCHEM_CACTVS_ROTATABLE_BOND>
18
> <PUBCHEM_CACTVS_SUBSKEYS>
AAADcfB/uAAAAAAAAAAAAAAAGAAAAAAAAAA8QAAAAAAAAAABgAAAHgAQAAAADSzBlgQugBLIEACoAZV3VACAgCQXEiAIUIG4dEAAQFpAwCAUAIgAFgDAAMEYiICOAAAAAAAAAAAAAAAAAAAAAAAAAAAAAA==
> <PUBCHEM_IUPAC_OPENEYE_NAME>
N-[(1S)-1-[[(1S,2S)-1-[[(1S)-1-(cyclohexylmethyl)-2-[[(1S)-3-(cyclopropylamino)-1-ethyl-2,3-dioxo-propyl]amino]-2-oxo-ethyl]carbamoyl]-2-methyl-butyl]carbamoyl]-3-methyl-butyl]pyrazine-2-carboxamide
> <PUBCHEM_IUPAC_CAS_NAME>
N-[(2S)-1-[[(2S,3S)-1-[[(2S)-3-cyclohexyl-1-[[(3S)-1-(cyclopropylamino)-1,2-dioxopentan-3-yl]amino]-1-oxopropan-2-yl]amino]-3-methyl-1-oxopentan-2-yl]amino]-4-methyl-1-oxopentan-2-yl]-2-pyrazinecarboxamide
> <PUBCHEM_IUPAC_NAME_MARKUP>
<I>N</I>-[(2<I>S</I>)-1-[[(2<I>S</I>,3<I>S</I>)-1-[[(2<I>S</I>)-3-cyclohexyl-1-[[(3<I>S</I>)-1-(cyclopropylamino)-1,2-dioxopentan-3-yl]amino]-1-oxopropan-2-yl]amino]-3-methyl-1-oxopentan-2-yl]amino]-4-methyl-1-oxopentan-2-yl]pyrazine-2-carboxamide
> <PUBCHEM_IUPAC_NAME>
N-[(2S)-1-[[(2S,3S)-1-[[(2S)-3-cyclohexyl-1-[[(3S)-1-(cyclopropylamino)-1,2-dioxopentan-3-yl]amino]-1-oxopropan-2-yl]amino]-3-methyl-1-oxopentan-2-yl]amino]-4-methyl-1-oxopentan-2-yl]pyrazine-2-carboxamide
> <PUBCHEM_IUPAC_SYSTEMATIC_NAME>
N-[(2S)-1-[[(2S,3S)-1-[[(2S)-3-cyclohexyl-1-[[(3S)-1-(cyclopropylamino)-1,2-bis(oxidanylidene)pentan-3-yl]amino]-1-oxidanylidene-propan-2-yl]amino]-3-methyl-1-oxidanylidene-pentan-2-yl]amino]-4-methyl-1-oxidanylidene-pentan-2-yl]pyrazine-2-carboxamide
> <PUBCHEM_IUPAC_TRADITIONAL_NAME>
N-[(1S)-1-[[(1S,2S)-1-[[(1S)-1-(cyclohexylmethyl)-2-[[(1S)-3-(cyclopropylamino)-1-ethyl-2,3-diketo-propyl]amino]-2-keto-ethyl]carbamoyl]-2-methyl-butyl]carbamoyl]-3-methyl-butyl]pyrazinamide
> <PUBCHEM_IUPAC_INCHI>
InChI=1S/C34H53N7O6/c1-6-21(5)28(41-31(44)25(17-20(3)4)39-32(45)27-19-35-15-16-36-27)33(46)40-26(18-22-11-9-8-10-12-22)30(43)38-24(7-2)29(42)34(47)37-23-13-14-23/h15-16,19-26,28H,6-14,17-18H2,1-5H3,(H,37,47)(H,38,43)(H,39,45)(H,40,46)(H,41,44)/t21-,24-,25-,26-,28-/m0/s1
> <PUBCHEM_IUPAC_INCHIKEY>
GMPCTWAWIRXJDC-PKQHSRECSA-N
> <PUBCHEM_XLOGP3_AA>
4.7
> <PUBCHEM_EXACT_MASS>
655.40573244
> <PUBCHEM_MOLECULAR_FORMULA>
C34H53N7O6
> <PUBCHEM_MOLECULAR_WEIGHT>
655.8
> <PUBCHEM_OPENEYE_CAN_SMILES>
CCC(C)C(C(=O)NC(CC1CCCCC1)C(=O)NC(CC)C(=O)C(=O)NC2CC2)NC(=O)C(CC(C)C)NC(=O)C3=NC=CN=C3
> <PUBCHEM_OPENEYE_ISO_SMILES>
CC[C@H](C)[C@@H](C(=O)N[C@@H](CC1CCCCC1)C(=O)N[C@@H](CC)C(=O)C(=O)NC2CC2)NC(=O)[C@H](CC(C)C)NC(=O)C3=NC=CN=C3
> <PUBCHEM_CACTVS_TPSA>
188
> <PUBCHEM_MONOISOTOPIC_WEIGHT>
655.40573244
> <PUBCHEM_TOTAL_CHARGE>
0
> <PUBCHEM_HEAVY_ATOM_COUNT>
47
> <PUBCHEM_ATOM_DEF_STEREO_COUNT>
5
> <PUBCHEM_ATOM_UDEF_STEREO_COUNT>
0
> <PUBCHEM_BOND_DEF_STEREO_COUNT>
0
> <PUBCHEM_BOND_UDEF_STEREO_COUNT>
0
> <PUBCHEM_ISOTOPIC_ATOM_COUNT>
0
> <PUBCHEM_COMPONENT_COUNT>
1
> <PUBCHEM_CACTVS_TAUTO_COUNT>
-1
> <PUBCHEM_COORDINATE_TYPE>
1
5
255
> <PUBCHEM_BONDANNOTATIONS>
26  10  5
35  11  5
12  44  8
12  46  8
13  45  8
13  47  8
29  34  5
44  45  8
46  47  8
22  7  6
28  9  6
$$$$
