504179
  -OEChem-10302200282D
 41 40  0     1  0  0  0  0  0999 V2000
    2.5369    0.1900    0.0000 O   0  0  0  0  0  0  0  0  0  0  0  0
   11.1972    0.1900    0.0000 O   0  0  0  0  0  0  0  0  0  0  0  0
    5.1350    0.6900    0.0000 N   0  0  0  0  0  0  0  0  0  0  0  0
    7.7331    0.1900    0.0000 N   0  0  0  0  0  0  0  0  0  0  0  0
    4.2690    0.1900    0.0000 C   0  0  3  0  0  0  0  0  0  0  0  0
    6.0010    0.1900    0.0000 C   0  0  0  0  0  0  0  0  0  0  0  0
    4.2690   -0.8100    0.0000 C   0  0  0  0  0  0  0  0  0  0  0  0
    6.8671    0.6900    0.0000 C   0  0  0  0  0  0  0  0  0  0  0  0
    3.4030    0.6900    0.0000 C   0  0  0  0  0  0  0  0  0  0  0  0
    8.5991    0.6900    0.0000 C   0  0  0  0  0  0  0  0  0  0  0  0
    9.4651    0.1900    0.0000 C   0  0  0  0  0  0  0  0  0  0  0  0
    3.4030   -1.3100    0.0000 C   0  0  0  0  0  0  0  0  0  0  0  0
   10.3312    0.6900    0.0000 C   0  0  0  0  0  0  0  0  0  0  0  0
   12.0632    0.6900    0.0000 C   0  0  0  0  0  0  0  0  0  0  0  0
   12.9292    0.1900    0.0000 C   0  0  0  0  0  0  0  0  0  0  0  0
    4.2690    0.8100    0.0000 H   0  0  0  0  0  0  0  0  0  0  0  0
    5.6025   -0.2849    0.0000 H   0  0  0  0  0  0  0  0  0  0  0  0
    6.3996   -0.2849    0.0000 H   0  0  0  0  0  0  0  0  0  0  0  0
    4.4810   -1.3926    0.0000 H   0  0  0  0  0  0  0  0  0  0  0  0
    4.8796   -0.7023    0.0000 H   0  0  0  0  0  0  0  0  0  0  0  0
    5.1350    1.3100    0.0000 H   0  0  0  0  0  0  0  0  0  0  0  0
    7.2656    1.1650    0.0000 H   0  0  0  0  0  0  0  0  0  0  0  0
    6.4685    1.1650    0.0000 H   0  0  0  0  0  0  0  0  0  0  0  0
    3.8015    1.1650    0.0000 H   0  0  0  0  0  0  0  0  0  0  0  0
    3.0044    1.1650    0.0000 H   0  0  0  0  0  0  0  0  0  0  0  0
    8.9976    1.1650    0.0000 H   0  0  0  0  0  0  0  0  0  0  0  0
    8.2006    1.1650    0.0000 H   0  0  0  0  0  0  0  0  0  0  0  0
    7.7331   -0.4300    0.0000 H   0  0  0  0  0  0  0  0  0  0  0  0
    9.0666   -0.2849    0.0000 H   0  0  0  0  0  0  0  0  0  0  0  0
    9.8637   -0.2849    0.0000 H   0  0  0  0  0  0  0  0  0  0  0  0
    3.0930   -0.7731    0.0000 H   0  0  0  0  0  0  0  0  0  0  0  0
    2.8660   -1.6200    0.0000 H   0  0  0  0  0  0  0  0  0  0  0  0
    3.7130   -1.8469    0.0000 H   0  0  0  0  0  0  0  0  0  0  0  0
   10.7297    1.1650    0.0000 H   0  0  0  0  0  0  0  0  0  0  0  0
    9.9326    1.1650    0.0000 H   0  0  0  0  0  0  0  0  0  0  0  0
    2.0000    0.5000    0.0000 H   0  0  0  0  0  0  0  0  0  0  0  0
   12.4617    1.1650    0.0000 H   0  0  0  0  0  0  0  0  0  0  0  0
   11.6647    1.1650    0.0000 H   0  0  0  0  0  0  0  0  0  0  0  0
   12.6192   -0.3469    0.0000 H   0  0  0  0  0  0  0  0  0  0  0  0
   13.4662   -0.1200    0.0000 H   0  0  0  0  0  0  0  0  0  0  0  0
   13.2392    0.7269    0.0000 H   0  0  0  0  0  0  0  0  0  0  0  0
  1  9  1  0  0  0  0
  1 36  1  0  0  0  0
  2 13  1  0  0  0  0
  2 14  1  0  0  0  0
  3  5  1  0  0  0  0
  3  6  1  0  0  0  0
  3 21  1  0  0  0  0
  4  8  1  0  0  0  0
  4 10  1  0  0  0  0
  4 28  1  0  0  0  0
  5  7  1  0  0  0  0
  5  9  1  0  0  0  0
  5 16  1  0  0  0  0
  6  8  1  0  0  0  0
  6 17  1  0  0  0  0
  6 18  1  0  0  0  0
  7 12  1  0  0  0  0
  7 19  1  0  0  0  0
  7 20  1  0  0  0  0
  8 22  1  0  0  0  0
  8 23  1  0  0  0  0
  9 24  1  0  0  0  0
  9 25  1  0  0  0  0
 10 11  1  0  0  0  0
 10 26  1  0  0  0  0
 10 27  1  0  0  0  0
 11 13  1  0  0  0  0
 11 29  1  0  0  0  0
 11 30  1  0  0  0  0
 12 31  1  0  0  0  0
 12 32  1  0  0  0  0
 12 33  1  0  0  0  0
 13 34  1  0  0  0  0
 13 35  1  0  0  0  0
 14 15  1  0  0  0  0
 14 37  1  0  0  0  0
 14 38  1  0  0  0  0
 15 39  1  0  0  0  0
 15 40  1  0  0  0  0
 15 41  1  0  0  0  0
M  END
> <PUBCHEM_COMPOUND_CID>
504179
> <PUBCHEM_COMPOUND_CANONICALIZED>
1
> <PUBCHEM_CACTVS_COMPLEXITY>
123
> <PUBCHEM_CACTVS_HBOND_ACCEPTOR>
4
> <PUBCHEM_CACTVS_HBOND_DONOR>
3
> <PUBCHEM_CACTVS_ROTATABLE_BOND>
11
> <PUBCHEM_CACTVS_SUBSKEYS>
AAADceBzMAAAAAAAAAAAAAAAAAAAAAAAAAAAAAAAAAAAAAAAAAAAHgAQCAAACCjhgAYCAALABgAAAAAAAAAAAAAAAAAAAIAIAAACUAAAAAAWQAAGEACQAAAAAAAAAAAAAAAAAAAAAAAAAAAAAAAAAAAAAA==
> <PUBCHEM_IUPAC_OPENEYE_NAME>
2-[2-(3-ethoxypropylamino)ethylamino]butan-1-ol
> <PUBCHEM_IUPAC_CAS_NAME>
2-[2-(3-ethoxypropylamino)ethylamino]-1-butanol
> <PUBCHEM_IUPAC_NAME_MARKUP>
2-[2-(3-ethoxypropylamino)ethylamino]butan-1-ol
> <PUBCHEM_IUPAC_NAME>
2-[2-(3-ethoxypropylamino)ethylamino]butan-1-ol
> <PUBCHEM_IUPAC_SYSTEMATIC_NAME>
2-[2-(3-ethoxypropylamino)ethylamino]butan-1-ol
> <PUBCHEM_IUPAC_TRADITIONAL_NAME>
2-[2-(3-ethoxypropylamino)ethylamino]butan-1-ol
> <PUBCHEM_IUPAC_INCHI>
InChI=1S/C11H26N2O2/c1-3-11(10-14)13-8-7-12-6-5-9-15-4-2/h11-14H,3-10H2,1-2H3
> <PUBCHEM_IUPAC_INCHIKEY>
PNNBREOYWAGGMD-UHFFFAOYSA-N
> <PUBCHEM_XLOGP3_AA>
0.2
> <PUBCHEM_EXACT_MASS>
218.199428076
> <PUBCHEM_MOLECULAR_FORMULA>
C11H26N2O2
> <PUBCHEM_MOLECULAR_WEIGHT>
218.34
> <PUBCHEM_OPENEYE_CAN_SMILES>
CCC(CO)NCCNCCCOCC
> <PUBCHEM_OPENEYE_ISO_SMILES>
CCC(CO)NCCNCCCOCC
> <PUBCHEM_CACTVS_TPSA>
53.5
> <PUBCHEM_MONOISOTOPIC_WEIGHT>
218.199428076
> <PUBCHEM_TOTAL_CHARGE>
0
> <PUBCHEM_HEAVY_ATOM_COUNT>
15
> <PUBCHEM_ATOM_DEF_STEREO_COUNT>
0
> <PUBCHEM_ATOM_UDEF_STEREO_COUNT>
1
> <PUBCHEM_BOND_DEF_STEREO_COUNT>
0
> <PUBCHEM_BOND_UDEF_STEREO_COUNT>
0
> <PUBCHEM_ISOTOPIC_ATOM_COUNT>
0
> <PUBCHEM_COMPONENT_COUNT>
1
> <PUBCHEM_CACTVS_TAUTO_COUNT>
-1
> <PUBCHEM_COORDINATE_TYPE>
1
5
255
> <PUBCHEM_BONDANNOTATIONS>
5  7  3
$$$$
