504189
  -OEChem-10302200282D
100101  0     1  0  0  0  0  0999 V2000
    9.4651    3.2500    0.0000 O   0  0  0  0  0  0  0  0  0  0  0  0
   12.0632    0.7500    0.0000 O   0  0  0  0  0  0  0  0  0  0  0  0
   11.1972   -2.7500    0.0000 O   0  0  0  0  0  0  0  0  0  0  0  0
    6.8671    0.7500    0.0000 O   0  0  0  0  0  0  0  0  0  0  0  0
    6.0010    3.2500    0.0000 O   0  0  0  0  0  0  0  0  0  0  0  0
   14.6613   -3.7500    0.0000 O   0  0  0  0  0  0  0  0  0  0  0  0
    3.4030    0.7500    0.0000 O   0  0  0  0  0  0  0  0  0  0  0  0
   10.3312    0.7500    0.0000 N   0  0  0  0  0  0  0  0  0  0  0  0
    8.5991    1.7500    0.0000 N   0  0  0  0  0  0  0  0  0  0  0  0
   12.0632   -1.2500    0.0000 N   0  0  0  0  0  0  0  0  0  0  0  0
   13.7953   -2.2500    0.0000 N   0  0  0  0  0  0  0  0  0  0  0  0
    5.1350    1.7500    0.0000 N   0  0  0  0  0  0  0  0  0  0  0  0
   16.3933   -2.7500    0.0000 N   0  0  0  0  0  0  0  0  0  0  0  0
   16.3933   -0.7500    0.0000 N   0  0  0  0  0  0  0  0  0  0  0  0
    2.5369    2.2500    0.0000 N   0  0  0  0  0  0  0  0  0  0  0  0
   11.1972    3.2500    0.0000 C   0  0  0  0  0  0  0  0  0  0  0  0
   10.3312    3.7500    0.0000 C   0  0  0  0  0  0  0  0  0  0  0  0
   12.0632    3.7500    0.0000 C   0  0  0  0  0  0  0  0  0  0  0  0
   11.1972    2.2500    0.0000 C   0  0  0  0  0  0  0  0  0  0  0  0
   10.3312    4.7500    0.0000 C   0  0  0  0  0  0  0  0  0  0  0  0
   12.0632    4.7500    0.0000 C   0  0  0  0  0  0  0  0  0  0  0  0
   11.1972    5.2500    0.0000 C   0  0  0  0  0  0  0  0  0  0  0  0
   10.3312    1.7500    0.0000 C   0  0  1  0  0  0  0  0  0  0  0  0
    9.4651    2.2500    0.0000 C   0  0  0  0  0  0  0  0  0  0  0  0
   11.1972   -0.7500    0.0000 C   0  0  2  0  0  0  0  0  0  0  0  0
   11.1972    0.2500    0.0000 C   0  0  0  0  0  0  0  0  0  0  0  0
   10.3312   -1.2500    0.0000 C   0  0  2  0  0  0  0  0  0  0  0  0
    9.4651   -0.7500    0.0000 C   0  0  0  0  0  0  0  0  0  0  0  0
    7.7331    2.2500    0.0000 C   0  0  1  0  0  0  0  0  0  0  0  0
   10.3312   -2.2500    0.0000 C   0  0  0  0  0  0  0  0  0  0  0  0
   12.9292   -2.7500    0.0000 C   0  0  2  0  0  0  0  0  0  0  0  0
   12.0632   -2.2500    0.0000 C   0  0  0  0  0  0  0  0  0  0  0  0
    7.7331    3.2500    0.0000 C   0  0  0  0  0  0  0  0  0  0  0  0
   12.9292   -3.7500    0.0000 C   0  0  0  0  0  0  0  0  0  0  0  0
    8.5991   -1.2500    0.0000 C   0  0  0  0  0  0  0  0  0  0  0  0
   12.0632   -4.2500    0.0000 C   0  0  0  0  0  0  0  0  0  0  0  0
    6.8671    1.7500    0.0000 C   0  0  0  0  0  0  0  0  0  0  0  0
    6.8671    3.7500    0.0000 C   0  0  0  0  0  0  0  0  0  0  0  0
   12.0632   -5.2500    0.0000 C   0  0  0  0  0  0  0  0  0  0  0  0
   11.1972   -3.7500    0.0000 C   0  0  0  0  0  0  0  0  0  0  0  0
    6.0010    2.2500    0.0000 C   0  0  0  0  0  0  0  0  0  0  0  0
   14.6613   -2.7500    0.0000 C   0  0  0  0  0  0  0  0  0  0  0  0
   15.5273   -2.2500    0.0000 C   0  0  0  0  0  0  0  0  0  0  0  0
    4.2690    2.2500    0.0000 C   0  0  0  0  0  0  0  0  0  0  0  0
   15.5273   -1.2500    0.0000 C   0  0  0  0  0  0  0  0  0  0  0  0
    3.4030    1.7500    0.0000 C   0  0  0  0  0  0  0  0  0  0  0  0
   17.2594   -2.2500    0.0000 C   0  0  0  0  0  0  0  0  0  0  0  0
   17.2594   -1.2500    0.0000 C   0  0  0  0  0  0  0  0  0  0  0  0
   10.6603    2.9400    0.0000 H   0  0  0  0  0  0  0  0  0  0  0  0
    9.7206    3.8577    0.0000 H   0  0  0  0  0  0  0  0  0  0  0  0
   10.1191    3.1674    0.0000 H   0  0  0  0  0  0  0  0  0  0  0  0
   12.2753    3.1674    0.0000 H   0  0  0  0  0  0  0  0  0  0  0  0
   12.6738    3.8577    0.0000 H   0  0  0  0  0  0  0  0  0  0  0  0
   11.4092    1.6674    0.0000 H   0  0  0  0  0  0  0  0  0  0  0  0
   11.8078    2.3577    0.0000 H   0  0  0  0  0  0  0  0  0  0  0  0
   10.1191    5.3326    0.0000 H   0  0  0  0  0  0  0  0  0  0  0  0
    9.7206    4.6423    0.0000 H   0  0  0  0  0  0  0  0  0  0  0  0
   12.6738    4.6423    0.0000 H   0  0  0  0  0  0  0  0  0  0  0  0
   12.2753    5.3326    0.0000 H   0  0  0  0  0  0  0  0  0  0  0  0
   11.5957    5.7250    0.0000 H   0  0  0  0  0  0  0  0  0  0  0  0
   10.7987    5.7250    0.0000 H   0  0  0  0  0  0  0  0  0  0  0  0
   10.8681    1.4400    0.0000 H   0  0  0  0  0  0  0  0  0  0  0  0
    9.7942    0.4400    0.0000 H   0  0  0  0  0  0  0  0  0  0  0  0
   11.7341   -0.4400    0.0000 H   0  0  0  0  0  0  0  0  0  0  0  0
   10.8681   -1.5600    0.0000 H   0  0  0  0  0  0  0  0  0  0  0  0
    8.5991    1.1300    0.0000 H   0  0  0  0  0  0  0  0  0  0  0  0
    9.8637   -0.2751    0.0000 H   0  0  0  0  0  0  0  0  0  0  0  0
    9.0666   -0.2751    0.0000 H   0  0  0  0  0  0  0  0  0  0  0  0
   12.6002   -0.9400    0.0000 H   0  0  0  0  0  0  0  0  0  0  0  0
    7.7331    1.6300    0.0000 H   0  0  0  0  0  0  0  0  0  0  0  0
    9.7112   -2.2500    0.0000 H   0  0  0  0  0  0  0  0  0  0  0  0
   10.3312   -2.8700    0.0000 H   0  0  0  0  0  0  0  0  0  0  0  0
   10.9512   -2.2500    0.0000 H   0  0  0  0  0  0  0  0  0  0  0  0
   12.9292   -2.1300    0.0000 H   0  0  0  0  0  0  0  0  0  0  0  0
    8.3437    3.1423    0.0000 H   0  0  0  0  0  0  0  0  0  0  0  0
    7.9451    3.8326    0.0000 H   0  0  0  0  0  0  0  0  0  0  0  0
   13.1413   -4.3326    0.0000 H   0  0  0  0  0  0  0  0  0  0  0  0
   13.5398   -3.6423    0.0000 H   0  0  0  0  0  0  0  0  0  0  0  0
    8.2891   -0.7131    0.0000 H   0  0  0  0  0  0  0  0  0  0  0  0
    8.0622   -1.5600    0.0000 H   0  0  0  0  0  0  0  0  0  0  0  0
    8.9091   -1.7869    0.0000 H   0  0  0  0  0  0  0  0  0  0  0  0
   12.6002   -4.5600    0.0000 H   0  0  0  0  0  0  0  0  0  0  0  0
   13.7953   -1.6300    0.0000 H   0  0  0  0  0  0  0  0  0  0  0  0
    7.1771    4.2869    0.0000 H   0  0  0  0  0  0  0  0  0  0  0  0
    6.3301    4.0600    0.0000 H   0  0  0  0  0  0  0  0  0  0  0  0
    6.5571    3.2131    0.0000 H   0  0  0  0  0  0  0  0  0  0  0  0
   11.4432   -5.2500    0.0000 H   0  0  0  0  0  0  0  0  0  0  0  0
   12.0632   -5.8700    0.0000 H   0  0  0  0  0  0  0  0  0  0  0  0
   12.6832   -5.2500    0.0000 H   0  0  0  0  0  0  0  0  0  0  0  0
   11.5072   -3.2131    0.0000 H   0  0  0  0  0  0  0  0  0  0  0  0
   10.6603   -3.4400    0.0000 H   0  0  0  0  0  0  0  0  0  0  0  0
   10.8872   -4.2869    0.0000 H   0  0  0  0  0  0  0  0  0  0  0  0
    5.1350    1.1300    0.0000 H   0  0  0  0  0  0  0  0  0  0  0  0
    4.6675    2.7250    0.0000 H   0  0  0  0  0  0  0  0  0  0  0  0
    3.8705    2.7250    0.0000 H   0  0  0  0  0  0  0  0  0  0  0  0
   14.9904   -0.9400    0.0000 H   0  0  0  0  0  0  0  0  0  0  0  0
   17.7963   -2.5600    0.0000 H   0  0  0  0  0  0  0  0  0  0  0  0
   17.7963   -0.9400    0.0000 H   0  0  0  0  0  0  0  0  0  0  0  0
    2.0000    1.9400    0.0000 H   0  0  0  0  0  0  0  0  0  0  0  0
    2.5369    2.8700    0.0000 H   0  0  0  0  0  0  0  0  0  0  0  0
  1 24  2  0  0  0  0
  2 26  2  0  0  0  0
  3 32  2  0  0  0  0
  4 37  2  0  0  0  0
  5 41  2  0  0  0  0
  6 42  2  0  0  0  0
  7 46  2  0  0  0  0
 23  8  1  6  0  0  0
  8 26  1  0  0  0  0
  8 63  1  0  0  0  0
  9 24  1  0  0  0  0
 29  9  1  6  0  0  0
  9 66  1  0  0  0  0
 25 10  1  1  0  0  0
 10 32  1  0  0  0  0
 10 69  1  0  0  0  0
 31 11  1  1  0  0  0
 11 42  1  0  0  0  0
 11 83  1  0  0  0  0
 12 41  1  0  0  0  0
 12 44  1  0  0  0  0
 12 93  1  0  0  0  0
 13 43  2  0  0  0  0
 13 47  1  0  0  0  0
 14 45  2  0  0  0  0
 14 48  1  0  0  0  0
 15 46  1  0  0  0  0
 15 99  1  0  0  0  0
 15100  1  0  0  0  0
 16 17  1  0  0  0  0
 16 18  1  0  0  0  0
 16 19  1  0  0  0  0
 16 49  1  0  0  0  0
 17 20  1  0  0  0  0
 17 50  1  0  0  0  0
 17 51  1  0  0  0  0
 18 21  1  0  0  0  0
 18 52  1  0  0  0  0
 18 53  1  0  0  0  0
 19 23  1  0  0  0  0
 19 54  1  0  0  0  0
 19 55  1  0  0  0  0
 20 22  1  0  0  0  0
 20 56  1  0  0  0  0
 20 57  1  0  0  0  0
 21 22  1  0  0  0  0
 21 58  1  0  0  0  0
 21 59  1  0  0  0  0
 22 60  1  0  0  0  0
 22 61  1  0  0  0  0
 23 24  1  0  0  0  0
 23 62  1  0  0  0  0
 25 26  1  0  0  0  0
 25 27  1  0  0  0  0
 25 64  1  0  0  0  0
 27 28  1  0  0  0  0
 27 30  1  1  0  0  0
 27 65  1  0  0  0  0
 28 35  1  0  0  0  0
 28 67  1  0  0  0  0
 28 68  1  0  0  0  0
 29 33  1  0  0  0  0
 29 37  1  0  0  0  0
 29 70  1  0  0  0  0
 30 71  1  0  0  0  0
 30 72  1  0  0  0  0
 30 73  1  0  0  0  0
 31 32  1  0  0  0  0
 31 34  1  0  0  0  0
 31 74  1  0  0  0  0
 33 38  1  0  0  0  0
 33 75  1  0  0  0  0
 33 76  1  0  0  0  0
 34 36  1  0  0  0  0
 34 77  1  0  0  0  0
 34 78  1  0  0  0  0
 35 79  1  0  0  0  0
 35 80  1  0  0  0  0
 35 81  1  0  0  0  0
 36 39  1  0  0  0  0
 36 40  1  0  0  0  0
 36 82  1  0  0  0  0
 37 41  1  0  0  0  0
 38 84  1  0  0  0  0
 38 85  1  0  0  0  0
 38 86  1  0  0  0  0
 39 87  1  0  0  0  0
 39 88  1  0  0  0  0
 39 89  1  0  0  0  0
 40 90  1  0  0  0  0
 40 91  1  0  0  0  0
 40 92  1  0  0  0  0
 42 43  1  0  0  0  0
 43 45  1  0  0  0  0
 44 46  1  0  0  0  0
 44 94  1  0  0  0  0
 44 95  1  0  0  0  0
 45 96  1  0  0  0  0
 47 48  2  0  0  0  0
 47 97  1  0  0  0  0
 48 98  1  0  0  0  0
M  END
> <PUBCHEM_COMPOUND_CID>
504189
> <PUBCHEM_COMPOUND_CANONICALIZED>
1
> <PUBCHEM_CACTVS_COMPLEXITY>
1130
> <PUBCHEM_CACTVS_HBOND_ACCEPTOR>
9
> <PUBCHEM_CACTVS_HBOND_DONOR>
6
> <PUBCHEM_CACTVS_ROTATABLE_BOND>
19
> <PUBCHEM_CACTVS_SUBSKEYS>
AAADcfB/+AAAAAAAAAAAAAAAAAAAAAAAAAA8QAAAAAAAAAABgAAAHgAQAAAADSzBlgQugBLIEACoAZV3VACAgCQXEiAIUIG4dEAAQFpAwCAUAIgAFgDAAMEYiICOAAAAAAAAAAAAAAAAAAAAAAAAAAAAAA==
> <PUBCHEM_IUPAC_OPENEYE_NAME>
N-[(1S)-1-[[(1S,2S)-1-[[(1S)-2-[[(1S)-3-[(2-amino-2-oxo-ethyl)amino]-1-ethyl-2,3-dioxo-propyl]amino]-1-(cyclohexylmethyl)-2-oxo-ethyl]carbamoyl]-2-methyl-butyl]carbamoyl]-3-methyl-butyl]pyrazine-2-carboxamide
> <PUBCHEM_IUPAC_CAS_NAME>
N-[(2S)-1-[[(2S,3S)-1-[[(2S)-1-[[(3S)-1-[(2-amino-2-oxoethyl)amino]-1,2-dioxopentan-3-yl]amino]-3-cyclohexyl-1-oxopropan-2-yl]amino]-3-methyl-1-oxopentan-2-yl]amino]-4-methyl-1-oxopentan-2-yl]-2-pyrazinecarboxamide
> <PUBCHEM_IUPAC_NAME_MARKUP>
<I>N</I>-[(2<I>S</I>)-1-[[(2<I>S</I>,3<I>S</I>)-1-[[(2<I>S</I>)-1-[[(3<I>S</I>)-1-[(2-amino-2-oxoethyl)amino]-1,2-dioxopentan-3-yl]amino]-3-cyclohexyl-1-oxopropan-2-yl]amino]-3-methyl-1-oxopentan-2-yl]amino]-4-methyl-1-oxopentan-2-yl]pyrazine-2-carboxamide
> <PUBCHEM_IUPAC_NAME>
N-[(2S)-1-[[(2S,3S)-1-[[(2S)-1-[[(3S)-1-[(2-amino-2-oxoethyl)amino]-1,2-dioxopentan-3-yl]amino]-3-cyclohexyl-1-oxopropan-2-yl]amino]-3-methyl-1-oxopentan-2-yl]amino]-4-methyl-1-oxopentan-2-yl]pyrazine-2-carboxamide
> <PUBCHEM_IUPAC_SYSTEMATIC_NAME>
N-[(2S)-1-[[(2S,3S)-1-[[(2S)-1-[[(3S)-1-[(2-azanyl-2-oxidanylidene-ethyl)amino]-1,2-bis(oxidanylidene)pentan-3-yl]amino]-3-cyclohexyl-1-oxidanylidene-propan-2-yl]amino]-3-methyl-1-oxidanylidene-pentan-2-yl]amino]-4-methyl-1-oxidanylidene-pentan-2-yl]pyrazine-2-carboxamide
> <PUBCHEM_IUPAC_TRADITIONAL_NAME>
N-[(1S)-1-[[(1S,2S)-1-[[(1S)-2-[[(1S)-3-[(2-amino-2-keto-ethyl)amino]-1-ethyl-2,3-diketo-propyl]amino]-1-(cyclohexylmethyl)-2-keto-ethyl]carbamoyl]-2-methyl-butyl]carbamoyl]-3-methyl-butyl]pyrazinamide
> <PUBCHEM_IUPAC_INCHI>
InChI=1S/C33H52N8O7/c1-6-20(5)27(41-30(45)23(15-19(3)4)39-31(46)25-17-35-13-14-36-25)32(47)40-24(16-21-11-9-8-10-12-21)29(44)38-22(7-2)28(43)33(48)37-18-26(34)42/h13-14,17,19-24,27H,6-12,15-16,18H2,1-5H3,(H2,34,42)(H,37,48)(H,38,44)(H,39,46)(H,40,47)(H,41,45)/t20-,22-,23-,24-,27-/m0/s1
> <PUBCHEM_IUPAC_INCHIKEY>
KQALCRPMBIPVPP-DHXJALRNSA-N
> <PUBCHEM_XLOGP3_AA>
3.1
> <PUBCHEM_EXACT_MASS>
672.39589603
> <PUBCHEM_MOLECULAR_FORMULA>
C33H52N8O7
> <PUBCHEM_MOLECULAR_WEIGHT>
672.8
> <PUBCHEM_OPENEYE_CAN_SMILES>
CCC(C)C(C(=O)NC(CC1CCCCC1)C(=O)NC(CC)C(=O)C(=O)NCC(=O)N)NC(=O)C(CC(C)C)NC(=O)C2=NC=CN=C2
> <PUBCHEM_OPENEYE_ISO_SMILES>
CC[C@H](C)[C@@H](C(=O)N[C@@H](CC1CCCCC1)C(=O)N[C@@H](CC)C(=O)C(=O)NCC(=O)N)NC(=O)[C@H](CC(C)C)NC(=O)C2=NC=CN=C2
> <PUBCHEM_CACTVS_TPSA>
231
> <PUBCHEM_MONOISOTOPIC_WEIGHT>
672.39589603
> <PUBCHEM_TOTAL_CHARGE>
0
> <PUBCHEM_HEAVY_ATOM_COUNT>
48
> <PUBCHEM_ATOM_DEF_STEREO_COUNT>
5
> <PUBCHEM_ATOM_UDEF_STEREO_COUNT>
0
> <PUBCHEM_BOND_DEF_STEREO_COUNT>
0
> <PUBCHEM_BOND_UDEF_STEREO_COUNT>
0
> <PUBCHEM_ISOTOPIC_ATOM_COUNT>
0
> <PUBCHEM_COMPONENT_COUNT>
1
> <PUBCHEM_CACTVS_TAUTO_COUNT>
-1
> <PUBCHEM_COORDINATE_TYPE>
1
5
255
> <PUBCHEM_BONDANNOTATIONS>
25  10  5
31  11  5
13  43  8
13  47  8
14  45  8
14  48  8
27  30  5
43  45  8
47  48  8
23  8  6
29  9  6
$$$$
