504183
  -OEChem-10302200282D
 98 99  0     1  0  0  0  0  0999 V2000
    9.4651    3.2500    0.0000 O   0  0  0  0  0  0  0  0  0  0  0  0
   12.0632    0.7500    0.0000 O   0  0  0  0  0  0  0  0  0  0  0  0
   11.1972   -2.7500    0.0000 O   0  0  0  0  0  0  0  0  0  0  0  0
    6.8671    0.7500    0.0000 O   0  0  0  0  0  0  0  0  0  0  0  0
    6.0010    3.2500    0.0000 O   0  0  0  0  0  0  0  0  0  0  0  0
   14.6613   -3.7500    0.0000 O   0  0  0  0  0  0  0  0  0  0  0  0
   10.3312    0.7500    0.0000 N   0  0  0  0  0  0  0  0  0  0  0  0
    8.5991    1.7500    0.0000 N   0  0  0  0  0  0  0  0  0  0  0  0
   12.0632   -1.2500    0.0000 N   0  0  0  0  0  0  0  0  0  0  0  0
   13.7953   -2.2500    0.0000 N   0  0  0  0  0  0  0  0  0  0  0  0
    5.1350    1.7500    0.0000 N   0  0  0  0  0  0  0  0  0  0  0  0
   16.3933   -2.7500    0.0000 N   0  0  0  0  0  0  0  0  0  0  0  0
   16.3933   -0.7500    0.0000 N   0  0  0  0  0  0  0  0  0  0  0  0
   11.1972    3.2500    0.0000 C   0  0  0  0  0  0  0  0  0  0  0  0
   10.3312    3.7500    0.0000 C   0  0  0  0  0  0  0  0  0  0  0  0
   12.0632    3.7500    0.0000 C   0  0  0  0  0  0  0  0  0  0  0  0
   11.1972    2.2500    0.0000 C   0  0  0  0  0  0  0  0  0  0  0  0
   10.3312    4.7500    0.0000 C   0  0  0  0  0  0  0  0  0  0  0  0
   12.0632    4.7500    0.0000 C   0  0  0  0  0  0  0  0  0  0  0  0
   11.1972    5.2500    0.0000 C   0  0  0  0  0  0  0  0  0  0  0  0
   10.3312    1.7500    0.0000 C   0  0  1  0  0  0  0  0  0  0  0  0
    9.4651    2.2500    0.0000 C   0  0  0  0  0  0  0  0  0  0  0  0
   11.1972   -0.7500    0.0000 C   0  0  2  0  0  0  0  0  0  0  0  0
   11.1972    0.2500    0.0000 C   0  0  0  0  0  0  0  0  0  0  0  0
   10.3312   -1.2500    0.0000 C   0  0  2  0  0  0  0  0  0  0  0  0
    9.4651   -0.7500    0.0000 C   0  0  0  0  0  0  0  0  0  0  0  0
    7.7331    2.2500    0.0000 C   0  0  1  0  0  0  0  0  0  0  0  0
   10.3312   -2.2500    0.0000 C   0  0  0  0  0  0  0  0  0  0  0  0
   12.9292   -2.7500    0.0000 C   0  0  2  0  0  0  0  0  0  0  0  0
   12.0632   -2.2500    0.0000 C   0  0  0  0  0  0  0  0  0  0  0  0
    7.7331    3.2500    0.0000 C   0  0  0  0  0  0  0  0  0  0  0  0
   12.9292   -3.7500    0.0000 C   0  0  0  0  0  0  0  0  0  0  0  0
    8.5991   -1.2500    0.0000 C   0  0  0  0  0  0  0  0  0  0  0  0
   12.0632   -4.2500    0.0000 C   0  0  0  0  0  0  0  0  0  0  0  0
    6.8671    1.7500    0.0000 C   0  0  0  0  0  0  0  0  0  0  0  0
    6.8671    3.7500    0.0000 C   0  0  0  0  0  0  0  0  0  0  0  0
   12.0632   -5.2500    0.0000 C   0  0  0  0  0  0  0  0  0  0  0  0
   11.1972   -3.7500    0.0000 C   0  0  0  0  0  0  0  0  0  0  0  0
    6.0010    2.2500    0.0000 C   0  0  0  0  0  0  0  0  0  0  0  0
   14.6613   -2.7500    0.0000 C   0  0  0  0  0  0  0  0  0  0  0  0
   15.5273   -2.2500    0.0000 C   0  0  0  0  0  0  0  0  0  0  0  0
    4.2690    2.2500    0.0000 C   0  0  0  0  0  0  0  0  0  0  0  0
   15.5273   -1.2500    0.0000 C   0  0  0  0  0  0  0  0  0  0  0  0
   17.2594   -2.2500    0.0000 C   0  0  0  0  0  0  0  0  0  0  0  0
    3.4030    1.7500    0.0000 C   0  0  0  0  0  0  0  0  0  0  0  0
   17.2594   -1.2500    0.0000 C   0  0  0  0  0  0  0  0  0  0  0  0
    2.5369    1.2500    0.0000 C   0  0  0  0  0  0  0  0  0  0  0  0
   10.6603    2.9400    0.0000 H   0  0  0  0  0  0  0  0  0  0  0  0
    9.7206    3.8577    0.0000 H   0  0  0  0  0  0  0  0  0  0  0  0
   10.1191    3.1674    0.0000 H   0  0  0  0  0  0  0  0  0  0  0  0
   12.2753    3.1674    0.0000 H   0  0  0  0  0  0  0  0  0  0  0  0
   12.6738    3.8577    0.0000 H   0  0  0  0  0  0  0  0  0  0  0  0
   11.4092    1.6674    0.0000 H   0  0  0  0  0  0  0  0  0  0  0  0
   11.8078    2.3577    0.0000 H   0  0  0  0  0  0  0  0  0  0  0  0
   10.1191    5.3326    0.0000 H   0  0  0  0  0  0  0  0  0  0  0  0
    9.7206    4.6423    0.0000 H   0  0  0  0  0  0  0  0  0  0  0  0
   12.6738    4.6423    0.0000 H   0  0  0  0  0  0  0  0  0  0  0  0
   12.2753    5.3326    0.0000 H   0  0  0  0  0  0  0  0  0  0  0  0
   11.5957    5.7250    0.0000 H   0  0  0  0  0  0  0  0  0  0  0  0
   10.7987    5.7250    0.0000 H   0  0  0  0  0  0  0  0  0  0  0  0
   10.8681    1.4400    0.0000 H   0  0  0  0  0  0  0  0  0  0  0  0
    9.7942    0.4400    0.0000 H   0  0  0  0  0  0  0  0  0  0  0  0
   11.7341   -0.4400    0.0000 H   0  0  0  0  0  0  0  0  0  0  0  0
   10.8681   -1.5600    0.0000 H   0  0  0  0  0  0  0  0  0  0  0  0
    8.5991    1.1300    0.0000 H   0  0  0  0  0  0  0  0  0  0  0  0
    9.8637   -0.2751    0.0000 H   0  0  0  0  0  0  0  0  0  0  0  0
    9.0666   -0.2751    0.0000 H   0  0  0  0  0  0  0  0  0  0  0  0
   12.6002   -0.9400    0.0000 H   0  0  0  0  0  0  0  0  0  0  0  0
    7.7331    1.6300    0.0000 H   0  0  0  0  0  0  0  0  0  0  0  0
    9.7112   -2.2500    0.0000 H   0  0  0  0  0  0  0  0  0  0  0  0
   10.3312   -2.8700    0.0000 H   0  0  0  0  0  0  0  0  0  0  0  0
   10.9512   -2.2500    0.0000 H   0  0  0  0  0  0  0  0  0  0  0  0
   12.9292   -2.1300    0.0000 H   0  0  0  0  0  0  0  0  0  0  0  0
   13.1413   -4.3326    0.0000 H   0  0  0  0  0  0  0  0  0  0  0  0
   13.5398   -3.6423    0.0000 H   0  0  0  0  0  0  0  0  0  0  0  0
    8.3437    3.1423    0.0000 H   0  0  0  0  0  0  0  0  0  0  0  0
    7.9451    3.8326    0.0000 H   0  0  0  0  0  0  0  0  0  0  0  0
    8.2891   -0.7131    0.0000 H   0  0  0  0  0  0  0  0  0  0  0  0
    8.0622   -1.5600    0.0000 H   0  0  0  0  0  0  0  0  0  0  0  0
    8.9091   -1.7869    0.0000 H   0  0  0  0  0  0  0  0  0  0  0  0
   12.6002   -4.5600    0.0000 H   0  0  0  0  0  0  0  0  0  0  0  0
   13.7953   -1.6300    0.0000 H   0  0  0  0  0  0  0  0  0  0  0  0
    7.1771    4.2869    0.0000 H   0  0  0  0  0  0  0  0  0  0  0  0
    6.3301    4.0600    0.0000 H   0  0  0  0  0  0  0  0  0  0  0  0
    6.5571    3.2131    0.0000 H   0  0  0  0  0  0  0  0  0  0  0  0
   11.4432   -5.2500    0.0000 H   0  0  0  0  0  0  0  0  0  0  0  0
   12.0632   -5.8700    0.0000 H   0  0  0  0  0  0  0  0  0  0  0  0
   12.6832   -5.2500    0.0000 H   0  0  0  0  0  0  0  0  0  0  0  0
   11.5072   -3.2131    0.0000 H   0  0  0  0  0  0  0  0  0  0  0  0
   10.6603   -3.4400    0.0000 H   0  0  0  0  0  0  0  0  0  0  0  0
   10.8872   -4.2869    0.0000 H   0  0  0  0  0  0  0  0  0  0  0  0
    5.1350    1.1300    0.0000 H   0  0  0  0  0  0  0  0  0  0  0  0
    4.6675    2.7250    0.0000 H   0  0  0  0  0  0  0  0  0  0  0  0
    3.8705    2.7250    0.0000 H   0  0  0  0  0  0  0  0  0  0  0  0
   14.9904   -0.9400    0.0000 H   0  0  0  0  0  0  0  0  0  0  0  0
   17.7963   -2.5600    0.0000 H   0  0  0  0  0  0  0  0  0  0  0  0
   17.7963   -0.9400    0.0000 H   0  0  0  0  0  0  0  0  0  0  0  0
    2.0000    0.9400    0.0000 H   0  0  0  0  0  0  0  0  0  0  0  0
  1 22  2  0  0  0  0
  2 24  2  0  0  0  0
  3 30  2  0  0  0  0
  4 35  2  0  0  0  0
  5 39  2  0  0  0  0
  6 40  2  0  0  0  0
 21  7  1  6  0  0  0
  7 24  1  0  0  0  0
  7 62  1  0  0  0  0
  8 22  1  0  0  0  0
 27  8  1  6  0  0  0
  8 65  1  0  0  0  0
 23  9  1  1  0  0  0
  9 30  1  0  0  0  0
  9 68  1  0  0  0  0
 29 10  1  1  0  0  0
 10 40  1  0  0  0  0
 10 82  1  0  0  0  0
 11 39  1  0  0  0  0
 11 42  1  0  0  0  0
 11 92  1  0  0  0  0
 12 41  2  0  0  0  0
 12 44  1  0  0  0  0
 13 43  2  0  0  0  0
 13 46  1  0  0  0  0
 14 15  1  0  0  0  0
 14 16  1  0  0  0  0
 14 17  1  0  0  0  0
 14 48  1  0  0  0  0
 15 18  1  0  0  0  0
 15 49  1  0  0  0  0
 15 50  1  0  0  0  0
 16 19  1  0  0  0  0
 16 51  1  0  0  0  0
 16 52  1  0  0  0  0
 17 21  1  0  0  0  0
 17 53  1  0  0  0  0
 17 54  1  0  0  0  0
 18 20  1  0  0  0  0
 18 55  1  0  0  0  0
 18 56  1  0  0  0  0
 19 20  1  0  0  0  0
 19 57  1  0  0  0  0
 19 58  1  0  0  0  0
 20 59  1  0  0  0  0
 20 60  1  0  0  0  0
 21 22  1  0  0  0  0
 21 61  1  0  0  0  0
 23 24  1  0  0  0  0
 23 25  1  0  0  0  0
 23 63  1  0  0  0  0
 25 26  1  0  0  0  0
 25 28  1  1  0  0  0
 25 64  1  0  0  0  0
 26 33  1  0  0  0  0
 26 66  1  0  0  0  0
 26 67  1  0  0  0  0
 27 31  1  0  0  0  0
 27 35  1  0  0  0  0
 27 69  1  0  0  0  0
 28 70  1  0  0  0  0
 28 71  1  0  0  0  0
 28 72  1  0  0  0  0
 29 30  1  0  0  0  0
 29 32  1  0  0  0  0
 29 73  1  0  0  0  0
 31 36  1  0  0  0  0
 31 76  1  0  0  0  0
 31 77  1  0  0  0  0
 32 34  1  0  0  0  0
 32 74  1  0  0  0  0
 32 75  1  0  0  0  0
 33 78  1  0  0  0  0
 33 79  1  0  0  0  0
 33 80  1  0  0  0  0
 34 37  1  0  0  0  0
 34 38  1  0  0  0  0
 34 81  1  0  0  0  0
 35 39  1  0  0  0  0
 36 83  1  0  0  0  0
 36 84  1  0  0  0  0
 36 85  1  0  0  0  0
 37 86  1  0  0  0  0
 37 87  1  0  0  0  0
 37 88  1  0  0  0  0
 38 89  1  0  0  0  0
 38 90  1  0  0  0  0
 38 91  1  0  0  0  0
 40 41  1  0  0  0  0
 41 43  1  0  0  0  0
 42 45  1  0  0  0  0
 42 93  1  0  0  0  0
 42 94  1  0  0  0  0
 43 95  1  0  0  0  0
 44 46  2  0  0  0  0
 44 96  1  0  0  0  0
 45 47  3  0  0  0  0
 46 97  1  0  0  0  0
 47 98  1  0  0  0  0
M  END
> <PUBCHEM_COMPOUND_CID>
504183
> <PUBCHEM_COMPOUND_CANONICALIZED>
1
> <PUBCHEM_CACTVS_COMPLEXITY>
1130
> <PUBCHEM_CACTVS_HBOND_ACCEPTOR>
8
> <PUBCHEM_CACTVS_HBOND_DONOR>
5
> <PUBCHEM_CACTVS_ROTATABLE_BOND>
18
> <PUBCHEM_CACTVS_SUBSKEYS>
AAADcfB/uAAAAAAAAAAAAAAAAAAAAAAAAAA8QAAAAAAAAAABgAAAHgAQAAAADSzBlgQugBLIEADoGZV3VACAgCQXEiAIUIG4dEAAQFpAwCAUAIgAFgDAAMEYiICOAAAAAAAAAAAAAAAAAAAAAAAAAAAAAA==
> <PUBCHEM_IUPAC_OPENEYE_NAME>
N-[(1S)-1-[[(1S,2S)-1-[[(1S)-1-(cyclohexylmethyl)-2-[[(1S)-1-ethyl-2,3-dioxo-3-(prop-2-ynylamino)propyl]amino]-2-oxo-ethyl]carbamoyl]-2-methyl-butyl]carbamoyl]-3-methyl-butyl]pyrazine-2-carboxamide
> <PUBCHEM_IUPAC_CAS_NAME>
N-[(2S)-1-[[(2S,3S)-1-[[(2S)-3-cyclohexyl-1-[[(3S)-1,2-dioxo-1-(prop-2-ynylamino)pentan-3-yl]amino]-1-oxopropan-2-yl]amino]-3-methyl-1-oxopentan-2-yl]amino]-4-methyl-1-oxopentan-2-yl]-2-pyrazinecarboxamide
> <PUBCHEM_IUPAC_NAME_MARKUP>
<I>N</I>-[(2<I>S</I>)-1-[[(2<I>S</I>,3<I>S</I>)-1-[[(2<I>S</I>)-3-cyclohexyl-1-[[(3<I>S</I>)-1,2-dioxo-1-(prop-2-ynylamino)pentan-3-yl]amino]-1-oxopropan-2-yl]amino]-3-methyl-1-oxopentan-2-yl]amino]-4-methyl-1-oxopentan-2-yl]pyrazine-2-carboxamide
> <PUBCHEM_IUPAC_NAME>
N-[(2S)-1-[[(2S,3S)-1-[[(2S)-3-cyclohexyl-1-[[(3S)-1,2-dioxo-1-(prop-2-ynylamino)pentan-3-yl]amino]-1-oxopropan-2-yl]amino]-3-methyl-1-oxopentan-2-yl]amino]-4-methyl-1-oxopentan-2-yl]pyrazine-2-carboxamide
> <PUBCHEM_IUPAC_SYSTEMATIC_NAME>
N-[(2S)-1-[[(2S,3S)-1-[[(2S)-1-[[(3S)-1,2-bis(oxidanylidene)-1-(prop-2-ynylamino)pentan-3-yl]amino]-3-cyclohexyl-1-oxidanylidene-propan-2-yl]amino]-3-methyl-1-oxidanylidene-pentan-2-yl]amino]-4-methyl-1-oxidanylidene-pentan-2-yl]pyrazine-2-carboxamide
> <PUBCHEM_IUPAC_TRADITIONAL_NAME>
N-[(1S)-1-[[(1S,2S)-1-[[(1S)-1-(cyclohexylmethyl)-2-[[(1S)-1-ethyl-2,3-diketo-3-(propargylamino)propyl]amino]-2-keto-ethyl]carbamoyl]-2-methyl-butyl]carbamoyl]-3-methyl-butyl]pyrazinamide
> <PUBCHEM_IUPAC_INCHI>
InChI=1S/C34H51N7O6/c1-7-15-37-34(47)29(42)24(9-3)38-30(43)26(19-23-13-11-10-12-14-23)40-33(46)28(22(6)8-2)41-31(44)25(18-21(4)5)39-32(45)27-20-35-16-17-36-27/h1,16-17,20-26,28H,8-15,18-19H2,2-6H3,(H,37,47)(H,38,43)(H,39,45)(H,40,46)(H,41,44)/t22-,24-,25-,26-,28-/m0/s1
> <PUBCHEM_IUPAC_INCHIKEY>
LFQIKGPKOCKYBC-FVCDFAAQSA-N
> <PUBCHEM_XLOGP3_AA>
4.3
> <PUBCHEM_EXACT_MASS>
653.39008237
> <PUBCHEM_MOLECULAR_FORMULA>
C34H51N7O6
> <PUBCHEM_MOLECULAR_WEIGHT>
653.8
> <PUBCHEM_OPENEYE_CAN_SMILES>
CCC(C)C(C(=O)NC(CC1CCCCC1)C(=O)NC(CC)C(=O)C(=O)NCC#C)NC(=O)C(CC(C)C)NC(=O)C2=NC=CN=C2
> <PUBCHEM_OPENEYE_ISO_SMILES>
CC[C@H](C)[C@@H](C(=O)N[C@@H](CC1CCCCC1)C(=O)N[C@@H](CC)C(=O)C(=O)NCC#C)NC(=O)[C@H](CC(C)C)NC(=O)C2=NC=CN=C2
> <PUBCHEM_CACTVS_TPSA>
188
> <PUBCHEM_MONOISOTOPIC_WEIGHT>
653.39008237
> <PUBCHEM_TOTAL_CHARGE>
0
> <PUBCHEM_HEAVY_ATOM_COUNT>
47
> <PUBCHEM_ATOM_DEF_STEREO_COUNT>
5
> <PUBCHEM_ATOM_UDEF_STEREO_COUNT>
0
> <PUBCHEM_BOND_DEF_STEREO_COUNT>
0
> <PUBCHEM_BOND_UDEF_STEREO_COUNT>
0
> <PUBCHEM_ISOTOPIC_ATOM_COUNT>
0
> <PUBCHEM_COMPONENT_COUNT>
1
> <PUBCHEM_CACTVS_TAUTO_COUNT>
-1
> <PUBCHEM_COORDINATE_TYPE>
1
5
255
> <PUBCHEM_BONDANNOTATIONS>
29  10  5
12  41  8
12  44  8
13  43  8
13  46  8
25  28  5
41  43  8
44  46  8
21  7  6
27  8  6
23  9  5
$$$$
