504143
  -OEChem-10302200282D
 54 55  0     1  0  0  0  0  0999 V2000
    5.4641   -1.0761    0.0000 S   0  0  0  0  0  0  0  0  0  0  0  0
    8.9757    0.0172    0.0000 S   0  0  0  0  0  0  0  0  0  0  0  0
    4.5981   -2.5761    0.0000 S   0  0  0  0  0  0  0  0  0  0  0  0
    8.0622   -1.5761    0.0000 O   0  0  0  0  0  0  0  0  0  0  0  0
   10.9528    3.5580    0.0000 O   0  0  0  0  0  0  0  0  0  0  0  0
   11.1339    1.8354    0.0000 O   0  0  0  0  0  0  0  0  0  0  0  0
    3.7320   -1.0761    0.0000 N   0  0  0  0  0  0  0  0  0  0  0  0
    7.1962   -0.0761    0.0000 N   0  0  0  0  0  0  0  0  0  0  0  0
    8.1667    1.4185    0.0000 N   0  0  0  0  0  0  0  0  0  0  0  0
    6.3301   -1.5761    0.0000 C   0  0  3  0  0  0  0  0  0  0  0  0
    6.3301   -2.5761    0.0000 C   0  0  0  0  0  0  0  0  0  0  0  0
    3.7320   -0.0761    0.0000 C   0  0  0  0  0  0  0  0  0  0  0  0
    2.8660   -1.5761    0.0000 C   0  0  0  0  0  0  0  0  0  0  0  0
    4.5981   -1.5761    0.0000 C   0  0  0  0  0  0  0  0  0  0  0  0
    7.1962   -1.0761    0.0000 C   0  0  0  0  0  0  0  0  0  0  0  0
    7.1962   -3.0761    0.0000 C   0  0  0  0  0  0  0  0  0  0  0  0
    5.4641   -3.0761    0.0000 C   0  0  0  0  0  0  0  0  0  0  0  0
    2.8660    0.4239    0.0000 C   0  0  0  0  0  0  0  0  0  0  0  0
    2.0000   -1.0761    0.0000 C   0  0  0  0  0  0  0  0  0  0  0  0
    8.0622    0.4239    0.0000 C   0  0  0  0  0  0  0  0  0  0  0  0
    7.1962   -4.0761    0.0000 C   0  0  0  0  0  0  0  0  0  0  0  0
    5.4641   -4.0761    0.0000 C   0  0  0  0  0  0  0  0  0  0  0  0
    6.3301   -4.5761    0.0000 C   0  0  0  0  0  0  0  0  0  0  0  0
    9.1448    1.6264    0.0000 C   0  0  0  0  0  0  0  0  0  0  0  0
    9.5516    2.5399    0.0000 C   0  0  0  0  0  0  0  0  0  0  0  0
    9.6448    0.7603    0.0000 C   0  0  0  0  0  0  0  0  0  0  0  0
   10.5461    2.6444    0.0000 C   0  0  0  0  0  0  0  0  0  0  0  0
   11.9474    3.6625    0.0000 C   0  0  0  0  0  0  0  0  0  0  0  0
   12.3541    4.5761    0.0000 C   0  0  0  0  0  0  0  0  0  0  0  0
    6.3301   -0.9561    0.0000 H   0  0  0  0  0  0  0  0  0  0  0  0
    4.3426   -0.1837    0.0000 H   0  0  0  0  0  0  0  0  0  0  0  0
    3.9441    0.5065    0.0000 H   0  0  0  0  0  0  0  0  0  0  0  0
    2.4675   -2.0510    0.0000 H   0  0  0  0  0  0  0  0  0  0  0  0
    3.2646   -2.0510    0.0000 H   0  0  0  0  0  0  0  0  0  0  0  0
    7.7331   -2.7661    0.0000 H   0  0  0  0  0  0  0  0  0  0  0  0
    4.9272   -2.7661    0.0000 H   0  0  0  0  0  0  0  0  0  0  0  0
    3.1760    0.9609    0.0000 H   0  0  0  0  0  0  0  0  0  0  0  0
    2.3291    0.7339    0.0000 H   0  0  0  0  0  0  0  0  0  0  0  0
    2.5560   -0.1130    0.0000 H   0  0  0  0  0  0  0  0  0  0  0  0
    2.3100   -0.5391    0.0000 H   0  0  0  0  0  0  0  0  0  0  0  0
    1.4631   -0.7661    0.0000 H   0  0  0  0  0  0  0  0  0  0  0  0
    1.6900   -1.6130    0.0000 H   0  0  0  0  0  0  0  0  0  0  0  0
    6.6592    0.2339    0.0000 H   0  0  0  0  0  0  0  0  0  0  0  0
    7.7331   -4.3861    0.0000 H   0  0  0  0  0  0  0  0  0  0  0  0
    4.9272   -4.3861    0.0000 H   0  0  0  0  0  0  0  0  0  0  0  0
    6.3301   -5.1961    0.0000 H   0  0  0  0  0  0  0  0  0  0  0  0
    9.5948    3.1584    0.0000 H   0  0  0  0  0  0  0  0  0  0  0  0
    8.9500    2.6899    0.0000 H   0  0  0  0  0  0  0  0  0  0  0  0
   10.2615    0.6955    0.0000 H   0  0  0  0  0  0  0  0  0  0  0  0
   11.9041    3.0440    0.0000 H   0  0  0  0  0  0  0  0  0  0  0  0
   12.5490    3.5125    0.0000 H   0  0  0  0  0  0  0  0  0  0  0  0
   12.9205    4.3239    0.0000 H   0  0  0  0  0  0  0  0  0  0  0  0
   12.6063    5.1425    0.0000 H   0  0  0  0  0  0  0  0  0  0  0  0
   11.7877    4.8282    0.0000 H   0  0  0  0  0  0  0  0  0  0  0  0
  1 10  1  0  0  0  0
  1 14  1  0  0  0  0
  2 20  1  0  0  0  0
  2 26  1  0  0  0  0
  3 14  2  0  0  0  0
  4 15  2  0  0  0  0
  5 27  1  0  0  0  0
  5 28  1  0  0  0  0
  6 27  2  0  0  0  0
  7 12  1  0  0  0  0
  7 13  1  0  0  0  0
  7 14  1  0  0  0  0
  8 15  1  0  0  0  0
  8 20  1  0  0  0  0
  8 43  1  0  0  0  0
  9 20  2  0  0  0  0
  9 24  1  0  0  0  0
 10 11  1  0  0  0  0
 10 15  1  0  0  0  0
 10 30  1  0  0  0  0
 11 16  2  0  0  0  0
 11 17  1  0  0  0  0
 12 18  1  0  0  0  0
 12 31  1  0  0  0  0
 12 32  1  0  0  0  0
 13 19  1  0  0  0  0
 13 33  1  0  0  0  0
 13 34  1  0  0  0  0
 16 21  1  0  0  0  0
 16 35  1  0  0  0  0
 17 22  2  0  0  0  0
 17 36  1  0  0  0  0
 18 37  1  0  0  0  0
 18 38  1  0  0  0  0
 18 39  1  0  0  0  0
 19 40  1  0  0  0  0
 19 41  1  0  0  0  0
 19 42  1  0  0  0  0
 21 23  2  0  0  0  0
 21 44  1  0  0  0  0
 22 23  1  0  0  0  0
 22 45  1  0  0  0  0
 23 46  1  0  0  0  0
 24 25  1  0  0  0  0
 24 26  2  0  0  0  0
 25 27  1  0  0  0  0
 25 47  1  0  0  0  0
 25 48  1  0  0  0  0
 26 49  1  0  0  0  0
 28 29  1  0  0  0  0
 28 50  1  0  0  0  0
 28 51  1  0  0  0  0
 29 52  1  0  0  0  0
 29 53  1  0  0  0  0
 29 54  1  0  0  0  0
M  END
> <PUBCHEM_COMPOUND_CID>
504143
> <PUBCHEM_COMPOUND_CANONICALIZED>
1
> <PUBCHEM_CACTVS_COMPLEXITY>
554
> <PUBCHEM_CACTVS_HBOND_ACCEPTOR>
7
> <PUBCHEM_CACTVS_HBOND_DONOR>
1
> <PUBCHEM_CACTVS_ROTATABLE_BOND>
11
> <PUBCHEM_CACTVS_SUBSKEYS>
AAADceB7MABgAAAAAAAAAAAAAAAAAWAAAAAwAAAAAAAAAAABwAAAHgQQAAAADAjl3gazmZPIFAisAyXyfAAC8KlhCjkJiBU4IIiIIDqgnRGGIAAu0QOIiCcYiICOAAAAAAAAAAAAAAAAAAAAAAAAAAAAAA==
> <PUBCHEM_IUPAC_OPENEYE_NAME>
ethyl 2-[2-[[2-(diethylcarbamothioylsulfanyl)-2-phenyl-acetyl]amino]thiazol-4-yl]acetate
> <PUBCHEM_IUPAC_CAS_NAME>
2-[2-[[2-[[diethylamino(sulfanylidene)methyl]thio]-1-oxo-2-phenylethyl]amino]-4-thiazolyl]acetic acid ethyl ester
> <PUBCHEM_IUPAC_NAME_MARKUP>
ethyl 2-[2-[[2-(diethylcarbamothioylsulfanyl)-2-phenylacetyl]amino]-1,3-thiazol-4-yl]acetate
> <PUBCHEM_IUPAC_NAME>
ethyl 2-[2-[[2-(diethylcarbamothioylsulfanyl)-2-phenylacetyl]amino]-1,3-thiazol-4-yl]acetate
> <PUBCHEM_IUPAC_SYSTEMATIC_NAME>
ethyl 2-[2-[[2-(diethylcarbamothioylsulfanyl)-2-phenyl-ethanoyl]amino]-1,3-thiazol-4-yl]ethanoate
> <PUBCHEM_IUPAC_TRADITIONAL_NAME>
2-[2-[[2-(diethylthiocarbamoylthio)-2-phenyl-acetyl]amino]thiazol-4-yl]acetic acid ethyl ester
> <PUBCHEM_IUPAC_INCHI>
InChI=1S/C20H25N3O3S3/c1-4-23(5-2)20(27)29-17(14-10-8-7-9-11-14)18(25)22-19-21-15(13-28-19)12-16(24)26-6-3/h7-11,13,17H,4-6,12H2,1-3H3,(H,21,22,25)
> <PUBCHEM_IUPAC_INCHIKEY>
KJZCYXKHSVRYTA-UHFFFAOYSA-N
> <PUBCHEM_XLOGP3_AA>
4.2
> <PUBCHEM_EXACT_MASS>
451.10580519
> <PUBCHEM_MOLECULAR_FORMULA>
C20H25N3O3S3
> <PUBCHEM_MOLECULAR_WEIGHT>
451.6
> <PUBCHEM_OPENEYE_CAN_SMILES>
CCN(CC)C(=S)SC(C1=CC=CC=C1)C(=O)NC2=NC(=CS2)CC(=O)OCC
> <PUBCHEM_OPENEYE_ISO_SMILES>
CCN(CC)C(=S)SC(C1=CC=CC=C1)C(=O)NC2=NC(=CS2)CC(=O)OCC
> <PUBCHEM_CACTVS_TPSA>
157
> <PUBCHEM_MONOISOTOPIC_WEIGHT>
451.10580519
> <PUBCHEM_TOTAL_CHARGE>
0
> <PUBCHEM_HEAVY_ATOM_COUNT>
29
> <PUBCHEM_ATOM_DEF_STEREO_COUNT>
0
> <PUBCHEM_ATOM_UDEF_STEREO_COUNT>
1
> <PUBCHEM_BOND_DEF_STEREO_COUNT>
0
> <PUBCHEM_BOND_UDEF_STEREO_COUNT>
0
> <PUBCHEM_ISOTOPIC_ATOM_COUNT>
0
> <PUBCHEM_COMPONENT_COUNT>
1
> <PUBCHEM_CACTVS_TAUTO_COUNT>
-1
> <PUBCHEM_COORDINATE_TYPE>
1
5
255
> <PUBCHEM_BONDANNOTATIONS>
10  15  3
11  16  8
11  17  8
16  21  8
17  22  8
2  20  8
2  26  8
21  23  8
22  23  8
24  26  8
9  20  8
9  24  8
$$$$
