504141
  -OEChem-10302200282D
 47 47  0     1  0  0  0  0  0999 V2000
   11.3459   -0.1801    0.0000 S   0  0  0  0  0  0  0  0  0  0  0  0
    7.6485    0.0508    0.0000 S   0  0  0  0  0  0  0  0  0  0  0  0
   12.5049   -1.4672    0.0000 S   0  0  0  0  0  0  0  0  0  0  0  0
    9.4438    0.4380    0.0000 O   0  0  0  0  0  0  0  0  0  0  0  0
    3.6942   -0.8492    0.0000 O   0  0  0  0  0  0  0  0  0  0  0  0
    4.8532    0.4380    0.0000 O   0  0  0  0  0  0  0  0  0  0  0  0
   13.0401    0.1801    0.0000 N   0  0  0  0  0  0  0  0  0  0  0  0
    8.9086   -1.2093    0.0000 N   0  0  0  0  0  0  0  0  0  0  0  0
    7.1485   -1.4881    0.0000 N   0  0  0  0  0  0  0  0  0  0  0  0
   13.9912   -0.1290    0.0000 C   0  0  0  0  0  0  0  0  0  0  0  0
   12.8322    1.1582    0.0000 C   0  0  0  0  0  0  0  0  0  0  0  0
   10.6028   -0.8492    0.0000 C   0  0  3  0  0  0  0  0  0  0  0  0
   12.2970   -0.4891    0.0000 C   0  0  0  0  0  0  0  0  0  0  0  0
   14.7343    0.5402    0.0000 C   0  0  0  0  0  0  0  0  0  0  0  0
   13.5753    1.8273    0.0000 C   0  0  0  0  0  0  0  0  0  0  0  0
    9.6517   -0.5402    0.0000 C   0  0  0  0  0  0  0  0  0  0  0  0
   10.8107   -1.8273    0.0000 C   0  0  0  0  0  0  0  0  0  0  0  0
    7.9575   -0.9003    0.0000 C   0  0  0  0  0  0  0  0  0  0  0  0
    6.3395   -0.9003    0.0000 C   0  0  0  0  0  0  0  0  0  0  0  0
    5.3884   -1.2093    0.0000 C   0  0  0  0  0  0  0  0  0  0  0  0
    6.6485    0.0508    0.0000 C   0  0  0  0  0  0  0  0  0  0  0  0
    4.6453   -0.5402    0.0000 C   0  0  0  0  0  0  0  0  0  0  0  0
    2.9511   -0.1801    0.0000 C   0  0  0  0  0  0  0  0  0  0  0  0
    2.0000   -0.4891    0.0000 C   0  0  0  0  0  0  0  0  0  0  0  0
   13.7001   -0.6764    0.0000 H   0  0  0  0  0  0  0  0  0  0  0  0
   14.4797   -0.5107    0.0000 H   0  0  0  0  0  0  0  0  0  0  0  0
   12.5036    1.6840    0.0000 H   0  0  0  0  0  0  0  0  0  0  0  0
   12.2573    0.9259    0.0000 H   0  0  0  0  0  0  0  0  0  0  0  0
   11.1924   -1.0408    0.0000 H   0  0  0  0  0  0  0  0  0  0  0  0
   15.1492    0.0794    0.0000 H   0  0  0  0  0  0  0  0  0  0  0  0
   15.1950    0.9550    0.0000 H   0  0  0  0  0  0  0  0  0  0  0  0
   14.3194    1.0009    0.0000 H   0  0  0  0  0  0  0  0  0  0  0  0
   13.9902    1.3666    0.0000 H   0  0  0  0  0  0  0  0  0  0  0  0
   14.0361    2.2422    0.0000 H   0  0  0  0  0  0  0  0  0  0  0  0
   13.1605    2.2881    0.0000 H   0  0  0  0  0  0  0  0  0  0  0  0
   10.2042   -1.9562    0.0000 H   0  0  0  0  0  0  0  0  0  0  0  0
   10.9396   -2.4338    0.0000 H   0  0  0  0  0  0  0  0  0  0  0  0
   11.4171   -1.6984    0.0000 H   0  0  0  0  0  0  0  0  0  0  0  0
    9.0374   -1.8158    0.0000 H   0  0  0  0  0  0  0  0  0  0  0  0
    4.8998   -1.5910    0.0000 H   0  0  0  0  0  0  0  0  0  0  0  0
    5.6795   -1.7567    0.0000 H   0  0  0  0  0  0  0  0  0  0  0  0
    6.2840    0.5524    0.0000 H   0  0  0  0  0  0  0  0  0  0  0  0
    3.4396    0.2017    0.0000 H   0  0  0  0  0  0  0  0  0  0  0  0
    2.6600    0.3674    0.0000 H   0  0  0  0  0  0  0  0  0  0  0  0
    1.8084    0.1006    0.0000 H   0  0  0  0  0  0  0  0  0  0  0  0
    1.4103   -0.6807    0.0000 H   0  0  0  0  0  0  0  0  0  0  0  0
    2.1916   -1.0787    0.0000 H   0  0  0  0  0  0  0  0  0  0  0  0
  1 12  1  0  0  0  0
  1 13  1  0  0  0  0
  2 18  1  0  0  0  0
  2 21  1  0  0  0  0
  3 13  2  0  0  0  0
  4 16  2  0  0  0  0
  5 22  1  0  0  0  0
  5 23  1  0  0  0  0
  6 22  2  0  0  0  0
  7 10  1  0  0  0  0
  7 11  1  0  0  0  0
  7 13  1  0  0  0  0
  8 16  1  0  0  0  0
  8 18  1  0  0  0  0
  8 39  1  0  0  0  0
  9 18  2  0  0  0  0
  9 19  1  0  0  0  0
 10 14  1  0  0  0  0
 10 25  1  0  0  0  0
 10 26  1  0  0  0  0
 11 15  1  0  0  0  0
 11 27  1  0  0  0  0
 11 28  1  0  0  0  0
 12 16  1  0  0  0  0
 12 17  1  0  0  0  0
 12 29  1  0  0  0  0
 14 30  1  0  0  0  0
 14 31  1  0  0  0  0
 14 32  1  0  0  0  0
 15 33  1  0  0  0  0
 15 34  1  0  0  0  0
 15 35  1  0  0  0  0
 17 36  1  0  0  0  0
 17 37  1  0  0  0  0
 17 38  1  0  0  0  0
 19 20  1  0  0  0  0
 19 21  2  0  0  0  0
 20 22  1  0  0  0  0
 20 40  1  0  0  0  0
 20 41  1  0  0  0  0
 21 42  1  0  0  0  0
 23 24  1  0  0  0  0
 23 43  1  0  0  0  0
 23 44  1  0  0  0  0
 24 45  1  0  0  0  0
 24 46  1  0  0  0  0
 24 47  1  0  0  0  0
M  END
> <PUBCHEM_COMPOUND_CID>
504141
> <PUBCHEM_COMPOUND_CANONICALIZED>
1
> <PUBCHEM_CACTVS_COMPLEXITY>
447
> <PUBCHEM_CACTVS_HBOND_ACCEPTOR>
7
> <PUBCHEM_CACTVS_HBOND_DONOR>
1
> <PUBCHEM_CACTVS_ROTATABLE_BOND>
10
> <PUBCHEM_CACTVS_SUBSKEYS>
AAADceBzMABgAAAAAAAAAAAAAAAAAWAAAAAAAAAAAAAAAAABgAAAHgQQAAAACAjl1gajmRPIFAisAQXyfAAA8KlhCjkBABU4IAiAIBggDQAGAAAOUQOAACAAAAAAAAAAAAAAAAAAAAAAAAAAAAAAAAAAAA==
> <PUBCHEM_IUPAC_OPENEYE_NAME>
ethyl 2-[2-[2-(diethylcarbamothioylsulfanyl)propanoylamino]thiazol-4-yl]acetate
> <PUBCHEM_IUPAC_CAS_NAME>
2-[2-[[2-[[diethylamino(sulfanylidene)methyl]thio]-1-oxopropyl]amino]-4-thiazolyl]acetic acid ethyl ester
> <PUBCHEM_IUPAC_NAME_MARKUP>
ethyl 2-[2-[2-(diethylcarbamothioylsulfanyl)propanoylamino]-1,3-thiazol-4-yl]acetate
> <PUBCHEM_IUPAC_NAME>
ethyl 2-[2-[2-(diethylcarbamothioylsulfanyl)propanoylamino]-1,3-thiazol-4-yl]acetate
> <PUBCHEM_IUPAC_SYSTEMATIC_NAME>
ethyl 2-[2-[2-(diethylcarbamothioylsulfanyl)propanoylamino]-1,3-thiazol-4-yl]ethanoate
> <PUBCHEM_IUPAC_TRADITIONAL_NAME>
2-[2-[2-(diethylthiocarbamoylthio)propanoylamino]thiazol-4-yl]acetic acid ethyl ester
> <PUBCHEM_IUPAC_INCHI>
InChI=1S/C15H23N3O3S3/c1-5-18(6-2)15(22)24-10(4)13(20)17-14-16-11(9-23-14)8-12(19)21-7-3/h9-10H,5-8H2,1-4H3,(H,16,17,20)
> <PUBCHEM_IUPAC_INCHIKEY>
IYQVDXLKWLTQMC-UHFFFAOYSA-N
> <PUBCHEM_XLOGP3_AA>
2.9
> <PUBCHEM_EXACT_MASS>
389.09015512
> <PUBCHEM_MOLECULAR_FORMULA>
C15H23N3O3S3
> <PUBCHEM_MOLECULAR_WEIGHT>
389.6
> <PUBCHEM_OPENEYE_CAN_SMILES>
CCN(CC)C(=S)SC(C)C(=O)NC1=NC(=CS1)CC(=O)OCC
> <PUBCHEM_OPENEYE_ISO_SMILES>
CCN(CC)C(=S)SC(C)C(=O)NC1=NC(=CS1)CC(=O)OCC
> <PUBCHEM_CACTVS_TPSA>
157
> <PUBCHEM_MONOISOTOPIC_WEIGHT>
389.09015512
> <PUBCHEM_TOTAL_CHARGE>
0
> <PUBCHEM_HEAVY_ATOM_COUNT>
24
> <PUBCHEM_ATOM_DEF_STEREO_COUNT>
0
> <PUBCHEM_ATOM_UDEF_STEREO_COUNT>
1
> <PUBCHEM_BOND_DEF_STEREO_COUNT>
0
> <PUBCHEM_BOND_UDEF_STEREO_COUNT>
0
> <PUBCHEM_ISOTOPIC_ATOM_COUNT>
0
> <PUBCHEM_COMPONENT_COUNT>
1
> <PUBCHEM_CACTVS_TAUTO_COUNT>
-1
> <PUBCHEM_COORDINATE_TYPE>
1
5
255
> <PUBCHEM_BONDANNOTATIONS>
12  17  3
19  21  8
2  18  8
2  21  8
9  18  8
9  19  8
$$$$
