504163
  -OEChem-10302200282D
 46 46  0     1  0  0  0  0  0999 V2000
    2.2690   12.5500    0.0000 N   0  0  0  0  0  0  0  0  0  0  0  0
    2.2690    5.1200    0.0000 N   0  0  0  0  0  0  0  0  0  0  0  0
    2.2690   11.5500    0.0000 C   0  0  3  0  0  0  0  0  0  0  0  0
    2.2690    4.1200    0.0000 C   0  0  3  0  0  0  0  0  0  0  0  0
    1.4030   11.0500    0.0000 C   0  0  0  0  0  0  0  0  0  0  0  0
    1.4030    3.6200    0.0000 C   0  0  0  0  0  0  0  0  0  0  0  0
    1.4030   10.0500    0.0000 C   0  0  0  0  0  0  0  0  0  0  0  0
    1.4030    2.6200    0.0000 C   0  0  0  0  0  0  0  0  0  0  0  0
    3.1350   11.0500    0.0000 C   0  0  0  0  0  0  0  0  0  0  0  0
    3.1350    3.6200    0.0000 C   0  0  0  0  0  0  0  0  0  0  0  0
    0.5369    9.5500    0.0000 C   0  0  0  0  0  0  0  0  0  0  0  0
    0.5369    2.1200    0.0000 C   0  0  0  0  0  0  0  0  0  0  0  0
    2.2690    9.5500    0.0000 C   0  0  0  0  0  0  0  0  0  0  0  0
    2.2690    2.1200    0.0000 C   0  0  0  0  0  0  0  0  0  0  0  0
    0.5369    8.5500    0.0000 C   0  0  0  0  0  0  0  0  0  0  0  0
    0.5369    1.1200    0.0000 C   0  0  0  0  0  0  0  0  0  0  0  0
    2.2690    8.5500    0.0000 C   0  0  0  0  0  0  0  0  0  0  0  0
    2.2690    1.1200    0.0000 C   0  0  0  0  0  0  0  0  0  0  0  0
    1.4030    8.0500    0.0000 C   0  0  0  0  0  0  0  0  0  0  0  0
    1.4030    0.6200    0.0000 C   0  0  0  0  0  0  0  0  0  0  0  0
    1.7320   11.8600    0.0000 H   0  0  0  0  0  0  0  0  0  0  0  0
    2.8059    4.4300    0.0000 H   0  0  0  0  0  0  0  0  0  0  0  0
    1.1909   11.6326    0.0000 H   0  0  0  0  0  0  0  0  0  0  0  0
    0.7924   10.9423    0.0000 H   0  0  0  0  0  0  0  0  0  0  0  0
    1.1909    4.2026    0.0000 H   0  0  0  0  0  0  0  0  0  0  0  0
    0.7924    3.5123    0.0000 H   0  0  0  0  0  0  0  0  0  0  0  0
    2.8250   10.5131    0.0000 H   0  0  0  0  0  0  0  0  0  0  0  0
    3.6720   10.7400    0.0000 H   0  0  0  0  0  0  0  0  0  0  0  0
    3.4450   11.5869    0.0000 H   0  0  0  0  0  0  0  0  0  0  0  0
    2.8250    3.0831    0.0000 H   0  0  0  0  0  0  0  0  0  0  0  0
    3.6720    3.3100    0.0000 H   0  0  0  0  0  0  0  0  0  0  0  0
    3.4450    4.1569    0.0000 H   0  0  0  0  0  0  0  0  0  0  0  0
    0.0000    9.8600    0.0000 H   0  0  0  0  0  0  0  0  0  0  0  0
    0.0000    2.4300    0.0000 H   0  0  0  0  0  0  0  0  0  0  0  0
    2.8059    9.8600    0.0000 H   0  0  0  0  0  0  0  0  0  0  0  0
    2.8059    2.4300    0.0000 H   0  0  0  0  0  0  0  0  0  0  0  0
    2.8059   12.8600    0.0000 H   0  0  0  0  0  0  0  0  0  0  0  0
    1.7320   12.8600    0.0000 H   0  0  0  0  0  0  0  0  0  0  0  0
    2.8059    5.4300    0.0000 H   0  0  0  0  0  0  0  0  0  0  0  0
    1.7320    5.4300    0.0000 H   0  0  0  0  0  0  0  0  0  0  0  0
    0.0000    8.2400    0.0000 H   0  0  0  0  0  0  0  0  0  0  0  0
    0.0000    0.8100    0.0000 H   0  0  0  0  0  0  0  0  0  0  0  0
    2.8059    8.2400    0.0000 H   0  0  0  0  0  0  0  0  0  0  0  0
    2.8059    0.8100    0.0000 H   0  0  0  0  0  0  0  0  0  0  0  0
    1.4030    7.4300    0.0000 H   0  0  0  0  0  0  0  0  0  0  0  0
    1.4030    0.0000    0.0000 H   0  0  0  0  0  0  0  0  0  0  0  0
  1  3  1  0  0  0  0
  1 37  1  0  0  0  0
  1 38  1  0  0  0  0
  2  4  1  0  0  0  0
  2 39  1  0  0  0  0
  2 40  1  0  0  0  0
  3  5  1  0  0  0  0
  3  9  1  0  0  0  0
  3 21  1  0  0  0  0
  4  6  1  0  0  0  0
  4 10  1  0  0  0  0
  4 22  1  0  0  0  0
  5  7  1  0  0  0  0
  5 23  1  0  0  0  0
  5 24  1  0  0  0  0
  6  8  1  0  0  0  0
  6 25  1  0  0  0  0
  6 26  1  0  0  0  0
  7 11  2  0  0  0  0
  7 13  1  0  0  0  0
  8 12  2  0  0  0  0
  8 14  1  0  0  0  0
  9 27  1  0  0  0  0
  9 28  1  0  0  0  0
  9 29  1  0  0  0  0
 10 30  1  0  0  0  0
 10 31  1  0  0  0  0
 10 32  1  0  0  0  0
 11 15  1  0  0  0  0
 11 33  1  0  0  0  0
 12 16  1  0  0  0  0
 12 34  1  0  0  0  0
 13 17  2  0  0  0  0
 13 35  1  0  0  0  0
 14 18  2  0  0  0  0
 14 36  1  0  0  0  0
 15 19  2  0  0  0  0
 15 41  1  0  0  0  0
 16 20  2  0  0  0  0
 16 42  1  0  0  0  0
 17 19  1  0  0  0  0
 17 43  1  0  0  0  0
 18 20  1  0  0  0  0
 18 44  1  0  0  0  0
 19 45  1  0  0  0  0
 20 46  1  0  0  0  0
M  END
> <PUBCHEM_COMPOUND_CID>
504163
> <PUBCHEM_COMPOUND_CANONICALIZED>
1
> <PUBCHEM_CACTVS_COMPLEXITY>
84.7
> <PUBCHEM_CACTVS_HBOND_ACCEPTOR>
2
> <PUBCHEM_CACTVS_HBOND_DONOR>
2
> <PUBCHEM_CACTVS_ROTATABLE_BOND>
4
> <PUBCHEM_CACTVS_SUBSKEYS>
AAADceB7AAAAAAAAAAAAAAAAAAAAAAAAAAAwYAAAAAAAAAABQAAAHAAQAAAADCjBGAQyAIBAAACAAiBCAAACAAAgAAAIiIAAAIgIICKAkRGAIAAgkAAIiAcQgIAOAAAAAAAAAAAAAAAAAAAAAAAAAAAAAA==
> <PUBCHEM_IUPAC_OPENEYE_NAME>
1-phenylpropan-2-amine
> <PUBCHEM_IUPAC_CAS_NAME>
1-phenyl-2-propanamine
> <PUBCHEM_IUPAC_NAME_MARKUP>
1-phenylpropan-2-amine
> <PUBCHEM_IUPAC_NAME>
1-phenylpropan-2-amine
> <PUBCHEM_IUPAC_SYSTEMATIC_NAME>
1-phenylpropan-2-amine
> <PUBCHEM_IUPAC_TRADITIONAL_NAME>
(1-methyl-2-phenyl-ethyl)amine
> <PUBCHEM_IUPAC_INCHI>
InChI=1S/2C9H13N/c2*1-8(10)7-9-5-3-2-4-6-9/h2*2-6,8H,7,10H2,1H3
> <PUBCHEM_IUPAC_INCHIKEY>
PFOGAAASMPKKSJ-UHFFFAOYSA-N
> <PUBCHEM_EXACT_MASS>
270.209598838
> <PUBCHEM_MOLECULAR_FORMULA>
C18H26N2
> <PUBCHEM_MOLECULAR_WEIGHT>
270.4
> <PUBCHEM_OPENEYE_CAN_SMILES>
CC(CC1=CC=CC=C1)N.CC(CC1=CC=CC=C1)N
> <PUBCHEM_OPENEYE_ISO_SMILES>
CC(CC1=CC=CC=C1)N.CC(CC1=CC=CC=C1)N
> <PUBCHEM_CACTVS_TPSA>
52
> <PUBCHEM_MONOISOTOPIC_WEIGHT>
270.209598838
> <PUBCHEM_TOTAL_CHARGE>
0
> <PUBCHEM_HEAVY_ATOM_COUNT>
20
> <PUBCHEM_ATOM_DEF_STEREO_COUNT>
0
> <PUBCHEM_ATOM_UDEF_STEREO_COUNT>
2
> <PUBCHEM_BOND_DEF_STEREO_COUNT>
0
> <PUBCHEM_BOND_UDEF_STEREO_COUNT>
0
> <PUBCHEM_ISOTOPIC_ATOM_COUNT>
0
> <PUBCHEM_COMPONENT_COUNT>
2
> <PUBCHEM_CACTVS_TAUTO_COUNT>
-1
> <PUBCHEM_COORDINATE_TYPE>
1
5
255
> <PUBCHEM_BONDANNOTATIONS>
3  1  3
11  15  8
12  16  8
13  17  8
14  18  8
15  19  8
16  20  8
17  19  8
18  20  8
4  2  3
7  11  8
7  13  8
8  12  8
8  14  8
$$$$
