504186
  -OEChem-10302200282D
103105  0     1  0  0  0  0  0999 V2000
    7.9128    3.2500    0.0000 O   0  0  0  0  0  0  0  0  0  0  0  0
   10.5109    0.7500    0.0000 O   0  0  0  0  0  0  0  0  0  0  0  0
    5.3147    0.7500    0.0000 O   0  0  0  0  0  0  0  0  0  0  0  0
    9.6448   -2.7500    0.0000 O   0  0  0  0  0  0  0  0  0  0  0  0
    4.4487    3.2500    0.0000 O   0  0  0  0  0  0  0  0  0  0  0  0
   13.1090   -3.7500    0.0000 O   0  0  0  0  0  0  0  0  0  0  0  0
    8.7788    0.7500    0.0000 N   0  0  0  0  0  0  0  0  0  0  0  0
    7.0468    1.7500    0.0000 N   0  0  0  0  0  0  0  0  0  0  0  0
   10.5109   -1.2500    0.0000 N   0  0  0  0  0  0  0  0  0  0  0  0
    3.5827    1.7500    0.0000 N   0  0  0  0  0  0  0  0  0  0  0  0
   12.2429   -2.2500    0.0000 N   0  0  0  0  0  0  0  0  0  0  0  0
   14.8410   -2.7500    0.0000 N   0  0  0  0  0  0  0  0  0  0  0  0
   14.8410   -0.7500    0.0000 N   0  0  0  0  0  0  0  0  0  0  0  0
    9.6448    3.2500    0.0000 C   0  0  0  0  0  0  0  0  0  0  0  0
    8.7788    3.7500    0.0000 C   0  0  0  0  0  0  0  0  0  0  0  0
   10.5109    3.7500    0.0000 C   0  0  0  0  0  0  0  0  0  0  0  0
    9.6448    2.2500    0.0000 C   0  0  0  0  0  0  0  0  0  0  0  0
    8.7788    4.7500    0.0000 C   0  0  0  0  0  0  0  0  0  0  0  0
   10.5109    4.7500    0.0000 C   0  0  0  0  0  0  0  0  0  0  0  0
    9.6448    5.2500    0.0000 C   0  0  0  0  0  0  0  0  0  0  0  0
    8.7788    1.7500    0.0000 C   0  0  1  0  0  0  0  0  0  0  0  0
    7.9128    2.2500    0.0000 C   0  0  0  0  0  0  0  0  0  0  0  0
    9.6448   -0.7500    0.0000 C   0  0  2  0  0  0  0  0  0  0  0  0
    9.6448    0.2500    0.0000 C   0  0  0  0  0  0  0  0  0  0  0  0
    8.7788   -1.2500    0.0000 C   0  0  2  0  0  0  0  0  0  0  0  0
    6.1808    2.2500    0.0000 C   0  0  1  0  0  0  0  0  0  0  0  0
    7.9128   -0.7500    0.0000 C   0  0  0  0  0  0  0  0  0  0  0  0
    8.7788   -2.2500    0.0000 C   0  0  0  0  0  0  0  0  0  0  0  0
    6.1808    3.2500    0.0000 C   0  0  0  0  0  0  0  0  0  0  0  0
    5.3147    1.7500    0.0000 C   0  0  0  0  0  0  0  0  0  0  0  0
    3.4782    0.7555    0.0000 C   0  0  0  0  0  0  0  0  0  0  0  0
    2.6691    2.1567    0.0000 C   0  0  0  0  0  0  0  0  0  0  0  0
    2.5000    0.5476    0.0000 C   0  0  0  0  0  0  0  0  0  0  0  0
    2.0000    1.4136    0.0000 C   0  0  0  0  0  0  0  0  0  0  0  0
   11.3769   -2.7500    0.0000 C   0  0  2  0  0  0  0  0  0  0  0  0
   10.5109   -2.2500    0.0000 C   0  0  0  0  0  0  0  0  0  0  0  0
    4.4487    2.2500    0.0000 C   0  0  0  0  0  0  0  0  0  0  0  0
   11.3769   -3.7500    0.0000 C   0  0  0  0  0  0  0  0  0  0  0  0
    7.0468   -1.2500    0.0000 C   0  0  0  0  0  0  0  0  0  0  0  0
   10.5109   -4.2500    0.0000 C   0  0  0  0  0  0  0  0  0  0  0  0
    5.3147    3.7500    0.0000 C   0  0  0  0  0  0  0  0  0  0  0  0
   10.5109   -5.2500    0.0000 C   0  0  0  0  0  0  0  0  0  0  0  0
    9.6448   -3.7500    0.0000 C   0  0  0  0  0  0  0  0  0  0  0  0
   13.1090   -2.7500    0.0000 C   0  0  0  0  0  0  0  0  0  0  0  0
   13.9750   -2.2500    0.0000 C   0  0  0  0  0  0  0  0  0  0  0  0
   13.9750   -1.2500    0.0000 C   0  0  0  0  0  0  0  0  0  0  0  0
   15.7070   -2.2500    0.0000 C   0  0  0  0  0  0  0  0  0  0  0  0
   15.7070   -1.2500    0.0000 C   0  0  0  0  0  0  0  0  0  0  0  0
    9.1079    2.9400    0.0000 H   0  0  0  0  0  0  0  0  0  0  0  0
    8.1682    3.8577    0.0000 H   0  0  0  0  0  0  0  0  0  0  0  0
    8.5668    3.1674    0.0000 H   0  0  0  0  0  0  0  0  0  0  0  0
   10.7229    3.1674    0.0000 H   0  0  0  0  0  0  0  0  0  0  0  0
   11.1215    3.8577    0.0000 H   0  0  0  0  0  0  0  0  0  0  0  0
    9.8569    1.6674    0.0000 H   0  0  0  0  0  0  0  0  0  0  0  0
   10.2554    2.3577    0.0000 H   0  0  0  0  0  0  0  0  0  0  0  0
    8.5668    5.3326    0.0000 H   0  0  0  0  0  0  0  0  0  0  0  0
    8.1682    4.6423    0.0000 H   0  0  0  0  0  0  0  0  0  0  0  0
   11.1215    4.6423    0.0000 H   0  0  0  0  0  0  0  0  0  0  0  0
   10.7229    5.3326    0.0000 H   0  0  0  0  0  0  0  0  0  0  0  0
   10.0434    5.7250    0.0000 H   0  0  0  0  0  0  0  0  0  0  0  0
    9.2463    5.7250    0.0000 H   0  0  0  0  0  0  0  0  0  0  0  0
    9.3158    1.4400    0.0000 H   0  0  0  0  0  0  0  0  0  0  0  0
    8.2419    0.4400    0.0000 H   0  0  0  0  0  0  0  0  0  0  0  0
   10.1818   -0.4400    0.0000 H   0  0  0  0  0  0  0  0  0  0  0  0
    9.3158   -1.5600    0.0000 H   0  0  0  0  0  0  0  0  0  0  0  0
    7.0468    1.1300    0.0000 H   0  0  0  0  0  0  0  0  0  0  0  0
    6.1808    1.6300    0.0000 H   0  0  0  0  0  0  0  0  0  0  0  0
    8.3113   -0.2751    0.0000 H   0  0  0  0  0  0  0  0  0  0  0  0
    7.5143   -0.2751    0.0000 H   0  0  0  0  0  0  0  0  0  0  0  0
   11.0478   -0.9400    0.0000 H   0  0  0  0  0  0  0  0  0  0  0  0
    8.1588   -2.2500    0.0000 H   0  0  0  0  0  0  0  0  0  0  0  0
    8.7788   -2.8700    0.0000 H   0  0  0  0  0  0  0  0  0  0  0  0
    9.3988   -2.2500    0.0000 H   0  0  0  0  0  0  0  0  0  0  0  0
    6.7913    3.1423    0.0000 H   0  0  0  0  0  0  0  0  0  0  0  0
    6.3928    3.8326    0.0000 H   0  0  0  0  0  0  0  0  0  0  0  0
    3.5430    0.1389    0.0000 H   0  0  0  0  0  0  0  0  0  0  0  0
    4.0982    0.7555    0.0000 H   0  0  0  0  0  0  0  0  0  0  0  0
    2.9791    2.6937    0.0000 H   0  0  0  0  0  0  0  0  0  0  0  0
    2.1675    2.5212    0.0000 H   0  0  0  0  0  0  0  0  0  0  0  0
    1.9336    0.2954    0.0000 H   0  0  0  0  0  0  0  0  0  0  0  0
    2.6916   -0.0421    0.0000 H   0  0  0  0  0  0  0  0  0  0  0  0
    1.5851    1.8743    0.0000 H   0  0  0  0  0  0  0  0  0  0  0  0
    1.4984    1.0492    0.0000 H   0  0  0  0  0  0  0  0  0  0  0  0
   11.3769   -2.1300    0.0000 H   0  0  0  0  0  0  0  0  0  0  0  0
   11.5890   -4.3326    0.0000 H   0  0  0  0  0  0  0  0  0  0  0  0
   11.9875   -3.6423    0.0000 H   0  0  0  0  0  0  0  0  0  0  0  0
    6.7368   -0.7131    0.0000 H   0  0  0  0  0  0  0  0  0  0  0  0
    6.5098   -1.5600    0.0000 H   0  0  0  0  0  0  0  0  0  0  0  0
    7.3568   -1.7869    0.0000 H   0  0  0  0  0  0  0  0  0  0  0  0
   11.0478   -4.5600    0.0000 H   0  0  0  0  0  0  0  0  0  0  0  0
    5.6247    4.2869    0.0000 H   0  0  0  0  0  0  0  0  0  0  0  0
    4.7778    4.0600    0.0000 H   0  0  0  0  0  0  0  0  0  0  0  0
    5.0047    3.2131    0.0000 H   0  0  0  0  0  0  0  0  0  0  0  0
   12.2429   -1.6300    0.0000 H   0  0  0  0  0  0  0  0  0  0  0  0
    9.8909   -5.2500    0.0000 H   0  0  0  0  0  0  0  0  0  0  0  0
   10.5109   -5.8700    0.0000 H   0  0  0  0  0  0  0  0  0  0  0  0
   11.1309   -5.2500    0.0000 H   0  0  0  0  0  0  0  0  0  0  0  0
    9.9548   -3.2131    0.0000 H   0  0  0  0  0  0  0  0  0  0  0  0
    9.1079   -3.4400    0.0000 H   0  0  0  0  0  0  0  0  0  0  0  0
    9.3348   -4.2869    0.0000 H   0  0  0  0  0  0  0  0  0  0  0  0
   13.4380   -0.9400    0.0000 H   0  0  0  0  0  0  0  0  0  0  0  0
   16.2440   -2.5600    0.0000 H   0  0  0  0  0  0  0  0  0  0  0  0
   16.2440   -0.9400    0.0000 H   0  0  0  0  0  0  0  0  0  0  0  0
  1 22  2  0  0  0  0
  2 24  2  0  0  0  0
  3 30  2  0  0  0  0
  4 36  2  0  0  0  0
  5 37  2  0  0  0  0
  6 44  2  0  0  0  0
 21  7  1  6  0  0  0
  7 24  1  0  0  0  0
  7 63  1  0  0  0  0
  8 22  1  0  0  0  0
 26  8  1  6  0  0  0
  8 66  1  0  0  0  0
 23  9  1  1  0  0  0
  9 36  1  0  0  0  0
  9 70  1  0  0  0  0
 10 31  1  0  0  0  0
 10 32  1  0  0  0  0
 10 37  1  0  0  0  0
 35 11  1  1  0  0  0
 11 44  1  0  0  0  0
 11 94  1  0  0  0  0
 12 45  2  0  0  0  0
 12 47  1  0  0  0  0
 13 46  2  0  0  0  0
 13 48  1  0  0  0  0
 14 15  1  0  0  0  0
 14 16  1  0  0  0  0
 14 17  1  0  0  0  0
 14 49  1  0  0  0  0
 15 18  1  0  0  0  0
 15 50  1  0  0  0  0
 15 51  1  0  0  0  0
 16 19  1  0  0  0  0
 16 52  1  0  0  0  0
 16 53  1  0  0  0  0
 17 21  1  0  0  0  0
 17 54  1  0  0  0  0
 17 55  1  0  0  0  0
 18 20  1  0  0  0  0
 18 56  1  0  0  0  0
 18 57  1  0  0  0  0
 19 20  1  0  0  0  0
 19 58  1  0  0  0  0
 19 59  1  0  0  0  0
 20 60  1  0  0  0  0
 20 61  1  0  0  0  0
 21 22  1  0  0  0  0
 21 62  1  0  0  0  0
 23 24  1  0  0  0  0
 23 25  1  0  0  0  0
 23 64  1  0  0  0  0
 25 27  1  0  0  0  0
 25 28  1  1  0  0  0
 25 65  1  0  0  0  0
 26 29  1  0  0  0  0
 26 30  1  0  0  0  0
 26 67  1  0  0  0  0
 27 39  1  0  0  0  0
 27 68  1  0  0  0  0
 27 69  1  0  0  0  0
 28 71  1  0  0  0  0
 28 72  1  0  0  0  0
 28 73  1  0  0  0  0
 29 41  1  0  0  0  0
 29 74  1  0  0  0  0
 29 75  1  0  0  0  0
 30 37  1  0  0  0  0
 31 33  1  0  0  0  0
 31 76  1  0  0  0  0
 31 77  1  0  0  0  0
 32 34  1  0  0  0  0
 32 78  1  0  0  0  0
 32 79  1  0  0  0  0
 33 34  1  0  0  0  0
 33 80  1  0  0  0  0
 33 81  1  0  0  0  0
 34 82  1  0  0  0  0
 34 83  1  0  0  0  0
 35 36  1  0  0  0  0
 35 38  1  0  0  0  0
 35 84  1  0  0  0  0
 38 40  1  0  0  0  0
 38 85  1  0  0  0  0
 38 86  1  0  0  0  0
 39 87  1  0  0  0  0
 39 88  1  0  0  0  0
 39 89  1  0  0  0  0
 40 42  1  0  0  0  0
 40 43  1  0  0  0  0
 40 90  1  0  0  0  0
 41 91  1  0  0  0  0
 41 92  1  0  0  0  0
 41 93  1  0  0  0  0
 42 95  1  0  0  0  0
 42 96  1  0  0  0  0
 42 97  1  0  0  0  0
 43 98  1  0  0  0  0
 43 99  1  0  0  0  0
 43100  1  0  0  0  0
 44 45  1  0  0  0  0
 45 46  1  0  0  0  0
 46101  1  0  0  0  0
 47 48  2  0  0  0  0
 47102  1  0  0  0  0
 48103  1  0  0  0  0
M  END
> <PUBCHEM_COMPOUND_CID>
504186
> <PUBCHEM_COMPOUND_CANONICALIZED>
1
> <PUBCHEM_CACTVS_COMPLEXITY>
1110
> <PUBCHEM_CACTVS_HBOND_ACCEPTOR>
8
> <PUBCHEM_CACTVS_HBOND_DONOR>
4
> <PUBCHEM_CACTVS_ROTATABLE_BOND>
17
> <PUBCHEM_CACTVS_SUBSKEYS>
AAADcfB/uAAAAAAAAAAAAAAAAAAAAWAAAAA8QAAAAAAAAAABgAAAHgAQAAAADSzBlgQugBPIEACoAZV3VACAgCQXEiAIUIG4dEAAQFpAwCAUAIgAFgDAAMEYiICOAAAAAAAAAAAAAAAAAAAAAAAAAAAAAA==
> <PUBCHEM_IUPAC_OPENEYE_NAME>
N-[(1S)-1-[[(1S,2S)-1-[[(1S)-1-(cyclohexylmethyl)-2-[[(1S)-1-ethyl-2,3-dioxo-3-pyrrolidin-1-yl-propyl]amino]-2-oxo-ethyl]carbamoyl]-2-methyl-butyl]carbamoyl]-3-methyl-butyl]pyrazine-2-carboxamide
> <PUBCHEM_IUPAC_CAS_NAME>
N-[(2S)-1-[[(2S,3S)-1-[[(2S)-3-cyclohexyl-1-[[(3S)-1,2-dioxo-1-(1-pyrrolidinyl)pentan-3-yl]amino]-1-oxopropan-2-yl]amino]-3-methyl-1-oxopentan-2-yl]amino]-4-methyl-1-oxopentan-2-yl]-2-pyrazinecarboxamide
> <PUBCHEM_IUPAC_NAME_MARKUP>
<I>N</I>-[(2<I>S</I>)-1-[[(2<I>S</I>,3<I>S</I>)-1-[[(2<I>S</I>)-3-cyclohexyl-1-[[(3<I>S</I>)-1,2-dioxo-1-pyrrolidin-1-ylpentan-3-yl]amino]-1-oxopropan-2-yl]amino]-3-methyl-1-oxopentan-2-yl]amino]-4-methyl-1-oxopentan-2-yl]pyrazine-2-carboxamide
> <PUBCHEM_IUPAC_NAME>
N-[(2S)-1-[[(2S,3S)-1-[[(2S)-3-cyclohexyl-1-[[(3S)-1,2-dioxo-1-pyrrolidin-1-ylpentan-3-yl]amino]-1-oxopropan-2-yl]amino]-3-methyl-1-oxopentan-2-yl]amino]-4-methyl-1-oxopentan-2-yl]pyrazine-2-carboxamide
> <PUBCHEM_IUPAC_SYSTEMATIC_NAME>
N-[(2S)-1-[[(2S,3S)-1-[[(2S)-1-[[(3S)-1,2-bis(oxidanylidene)-1-pyrrolidin-1-yl-pentan-3-yl]amino]-3-cyclohexyl-1-oxidanylidene-propan-2-yl]amino]-3-methyl-1-oxidanylidene-pentan-2-yl]amino]-4-methyl-1-oxidanylidene-pentan-2-yl]pyrazine-2-carboxamide
> <PUBCHEM_IUPAC_TRADITIONAL_NAME>
N-[(1S)-1-[[(1S,2S)-1-[[(1S)-1-(cyclohexylmethyl)-2-[[(1S)-1-ethyl-2,3-diketo-3-pyrrolidino-propyl]amino]-2-keto-ethyl]carbamoyl]-2-methyl-butyl]carbamoyl]-3-methyl-butyl]pyrazinamide
> <PUBCHEM_IUPAC_INCHI>
InChI=1S/C35H55N7O6/c1-6-23(5)29(41-32(45)26(19-22(3)4)39-33(46)28-21-36-15-16-37-28)34(47)40-27(20-24-13-9-8-10-14-24)31(44)38-25(7-2)30(43)35(48)42-17-11-12-18-42/h15-16,21-27,29H,6-14,17-20H2,1-5H3,(H,38,44)(H,39,46)(H,40,47)(H,41,45)/t23-,25-,26-,27-,29-/m0/s1
> <PUBCHEM_IUPAC_INCHIKEY>
HOLSFSYHRMARDA-YZXAOCOMSA-N
> <PUBCHEM_XLOGP3_AA>
4.8
> <PUBCHEM_EXACT_MASS>
669.42138250
> <PUBCHEM_MOLECULAR_FORMULA>
C35H55N7O6
> <PUBCHEM_MOLECULAR_WEIGHT>
669.9
> <PUBCHEM_OPENEYE_CAN_SMILES>
CCC(C)C(C(=O)NC(CC1CCCCC1)C(=O)NC(CC)C(=O)C(=O)N2CCCC2)NC(=O)C(CC(C)C)NC(=O)C3=NC=CN=C3
> <PUBCHEM_OPENEYE_ISO_SMILES>
CC[C@H](C)[C@@H](C(=O)N[C@@H](CC1CCCCC1)C(=O)N[C@@H](CC)C(=O)C(=O)N2CCCC2)NC(=O)[C@H](CC(C)C)NC(=O)C3=NC=CN=C3
> <PUBCHEM_CACTVS_TPSA>
180
> <PUBCHEM_MONOISOTOPIC_WEIGHT>
669.42138250
> <PUBCHEM_TOTAL_CHARGE>
0
> <PUBCHEM_HEAVY_ATOM_COUNT>
48
> <PUBCHEM_ATOM_DEF_STEREO_COUNT>
5
> <PUBCHEM_ATOM_UDEF_STEREO_COUNT>
0
> <PUBCHEM_BOND_DEF_STEREO_COUNT>
0
> <PUBCHEM_BOND_UDEF_STEREO_COUNT>
0
> <PUBCHEM_ISOTOPIC_ATOM_COUNT>
0
> <PUBCHEM_COMPONENT_COUNT>
1
> <PUBCHEM_CACTVS_TAUTO_COUNT>
-1
> <PUBCHEM_COORDINATE_TYPE>
1
5
255
> <PUBCHEM_BONDANNOTATIONS>
35  11  5
12  45  8
12  47  8
13  46  8
13  48  8
25  28  5
45  46  8
47  48  8
21  7  6
26  8  6
23  9  5
$$$$
