504146
  -OEChem-10302200282D
 53 55  0     1  0  0  0  0  0999 V2000
    5.4641    0.0228    0.0000 S   0  0  0  0  0  0  0  0  0  0  0  0
    4.5981   -1.4772    0.0000 S   0  0  0  0  0  0  0  0  0  0  0  0
    8.1667    2.5173    0.0000 S   0  0  0  0  0  0  0  0  0  0  0  0
    2.0000    1.0228    0.0000 O   0  0  0  0  0  0  0  0  0  0  0  0
    8.0622   -0.4772    0.0000 O   0  0  0  0  0  0  0  0  0  0  0  0
   12.2217    2.4592    0.0000 O   0  0  0  0  0  0  0  0  0  0  0  0
   10.8204    3.4772    0.0000 O   0  0  0  0  0  0  0  0  0  0  0  0
    3.7320    0.0228    0.0000 N   0  0  0  0  0  0  0  0  0  0  0  0
    7.1962    1.0228    0.0000 N   0  0  0  0  0  0  0  0  0  0  0  0
    8.9757    1.1160    0.0000 N   0  0  0  0  0  0  0  0  0  0  0  0
    3.7320    1.0228    0.0000 C   0  0  0  0  0  0  0  0  0  0  0  0
    2.8660   -0.4772    0.0000 C   0  0  0  0  0  0  0  0  0  0  0  0
    2.8660    1.5228    0.0000 C   0  0  0  0  0  0  0  0  0  0  0  0
    2.0000    0.0228    0.0000 C   0  0  0  0  0  0  0  0  0  0  0  0
    4.5981   -0.4772    0.0000 C   0  0  0  0  0  0  0  0  0  0  0  0
    6.3301   -0.4772    0.0000 C   0  0  3  0  0  0  0  0  0  0  0  0
    6.3301   -1.4772    0.0000 C   0  0  0  0  0  0  0  0  0  0  0  0
    7.1962    0.0228    0.0000 C   0  0  0  0  0  0  0  0  0  0  0  0
    7.1962   -1.9772    0.0000 C   0  0  0  0  0  0  0  0  0  0  0  0
    5.4641   -1.9772    0.0000 C   0  0  0  0  0  0  0  0  0  0  0  0
    7.1962   -2.9772    0.0000 C   0  0  0  0  0  0  0  0  0  0  0  0
    5.4641   -2.9772    0.0000 C   0  0  0  0  0  0  0  0  0  0  0  0
    8.0622    1.5228    0.0000 C   0  0  0  0  0  0  0  0  0  0  0  0
    6.3301   -3.4772    0.0000 C   0  0  0  0  0  0  0  0  0  0  0  0
    9.6448    1.8592    0.0000 C   0  0  0  0  0  0  0  0  0  0  0  0
   10.6394    1.7547    0.0000 C   0  0  0  0  0  0  0  0  0  0  0  0
    9.1448    2.7252    0.0000 C   0  0  0  0  0  0  0  0  0  0  0  0
   11.2272    2.5637    0.0000 C   0  0  0  0  0  0  0  0  0  0  0  0
   12.8095    3.2682    0.0000 C   0  0  0  0  0  0  0  0  0  0  0  0
   13.8040    3.1636    0.0000 C   0  0  0  0  0  0  0  0  0  0  0  0
    4.3426    0.9151    0.0000 H   0  0  0  0  0  0  0  0  0  0  0  0
    3.9441    1.6054    0.0000 H   0  0  0  0  0  0  0  0  0  0  0  0
    2.4675   -0.9522    0.0000 H   0  0  0  0  0  0  0  0  0  0  0  0
    3.2646   -0.9522    0.0000 H   0  0  0  0  0  0  0  0  0  0  0  0
    3.2646    1.9977    0.0000 H   0  0  0  0  0  0  0  0  0  0  0  0
    2.4675    1.9977    0.0000 H   0  0  0  0  0  0  0  0  0  0  0  0
    1.3894    0.1304    0.0000 H   0  0  0  0  0  0  0  0  0  0  0  0
    1.7880   -0.5598    0.0000 H   0  0  0  0  0  0  0  0  0  0  0  0
    6.3301    0.1428    0.0000 H   0  0  0  0  0  0  0  0  0  0  0  0
    7.7331   -1.6672    0.0000 H   0  0  0  0  0  0  0  0  0  0  0  0
    4.9272   -1.6672    0.0000 H   0  0  0  0  0  0  0  0  0  0  0  0
    6.6592    1.3328    0.0000 H   0  0  0  0  0  0  0  0  0  0  0  0
    7.7331   -3.2872    0.0000 H   0  0  0  0  0  0  0  0  0  0  0  0
    4.9272   -3.2872    0.0000 H   0  0  0  0  0  0  0  0  0  0  0  0
    6.3301   -4.0972    0.0000 H   0  0  0  0  0  0  0  0  0  0  0  0
   10.4685    1.1587    0.0000 H   0  0  0  0  0  0  0  0  0  0  0  0
   11.1966    1.4829    0.0000 H   0  0  0  0  0  0  0  0  0  0  0  0
    9.3970    3.2916    0.0000 H   0  0  0  0  0  0  0  0  0  0  0  0
   12.9804    3.8642    0.0000 H   0  0  0  0  0  0  0  0  0  0  0  0
   12.2522    3.5400    0.0000 H   0  0  0  0  0  0  0  0  0  0  0  0
   13.7392    2.5470    0.0000 H   0  0  0  0  0  0  0  0  0  0  0  0
   14.4206    3.0988    0.0000 H   0  0  0  0  0  0  0  0  0  0  0  0
   13.8688    3.7802    0.0000 H   0  0  0  0  0  0  0  0  0  0  0  0
  1 15  1  0  0  0  0
  1 16  1  0  0  0  0
  2 15  2  0  0  0  0
  3 23  1  0  0  0  0
  3 27  1  0  0  0  0
  4 13  1  0  0  0  0
  4 14  1  0  0  0  0
  5 18  2  0  0  0  0
  6 28  1  0  0  0  0
  6 29  1  0  0  0  0
  7 28  2  0  0  0  0
  8 11  1  0  0  0  0
  8 12  1  0  0  0  0
  8 15  1  0  0  0  0
  9 18  1  0  0  0  0
  9 23  1  0  0  0  0
  9 42  1  0  0  0  0
 10 23  2  0  0  0  0
 10 25  1  0  0  0  0
 11 13  1  0  0  0  0
 11 31  1  0  0  0  0
 11 32  1  0  0  0  0
 12 14  1  0  0  0  0
 12 33  1  0  0  0  0
 12 34  1  0  0  0  0
 13 35  1  0  0  0  0
 13 36  1  0  0  0  0
 14 37  1  0  0  0  0
 14 38  1  0  0  0  0
 16 17  1  0  0  0  0
 16 18  1  0  0  0  0
 16 39  1  0  0  0  0
 17 19  2  0  0  0  0
 17 20  1  0  0  0  0
 19 21  1  0  0  0  0
 19 40  1  0  0  0  0
 20 22  2  0  0  0  0
 20 41  1  0  0  0  0
 21 24  2  0  0  0  0
 21 43  1  0  0  0  0
 22 24  1  0  0  0  0
 22 44  1  0  0  0  0
 24 45  1  0  0  0  0
 25 26  1  0  0  0  0
 25 27  2  0  0  0  0
 26 28  1  0  0  0  0
 26 46  1  0  0  0  0
 26 47  1  0  0  0  0
 27 48  1  0  0  0  0
 29 30  1  0  0  0  0
 29 49  1  0  0  0  0
 29 50  1  0  0  0  0
 30 51  1  0  0  0  0
 30 52  1  0  0  0  0
 30 53  1  0  0  0  0
M  END
> <PUBCHEM_COMPOUND_CID>
504146
> <PUBCHEM_COMPOUND_CANONICALIZED>
1
> <PUBCHEM_CACTVS_COMPLEXITY>
598
> <PUBCHEM_CACTVS_HBOND_ACCEPTOR>
8
> <PUBCHEM_CACTVS_HBOND_DONOR>
1
> <PUBCHEM_CACTVS_ROTATABLE_BOND>
9
> <PUBCHEM_CACTVS_SUBSKEYS>
AAADceB7OABgAAAAAAAAAAAAAAAAAWAAAAA8QAAAAAAAAAABwAAAHgQQAAAADAjl3gazmZPIFAisAyXyfAAC8KlhCjkJiBU4IIiKIDqgnRGHIAAu0QOYiCcYiICOAAAAAAAAAAAAAAAAAAAAAAAAAAAAAA==
> <PUBCHEM_IUPAC_OPENEYE_NAME>
ethyl 2-[2-[[2-(morpholine-4-carbothioylsulfanyl)-2-phenyl-acetyl]amino]thiazol-4-yl]acetate
> <PUBCHEM_IUPAC_CAS_NAME>
2-[2-[[2-[[4-morpholinyl(sulfanylidene)methyl]thio]-1-oxo-2-phenylethyl]amino]-4-thiazolyl]acetic acid ethyl ester
> <PUBCHEM_IUPAC_NAME_MARKUP>
ethyl 2-[2-[[2-(morpholine-4-carbothioylsulfanyl)-2-phenylacetyl]amino]-1,3-thiazol-4-yl]acetate
> <PUBCHEM_IUPAC_NAME>
ethyl 2-[2-[[2-(morpholine-4-carbothioylsulfanyl)-2-phenylacetyl]amino]-1,3-thiazol-4-yl]acetate
> <PUBCHEM_IUPAC_SYSTEMATIC_NAME>
ethyl 2-[2-[(2-morpholin-4-ylcarbothioylsulfanyl-2-phenyl-ethanoyl)amino]-1,3-thiazol-4-yl]ethanoate
> <PUBCHEM_IUPAC_TRADITIONAL_NAME>
2-[2-[[2-(morpholine-4-carbothioylthio)-2-phenyl-acetyl]amino]thiazol-4-yl]acetic acid ethyl ester
> <PUBCHEM_IUPAC_INCHI>
InChI=1S/C20H23N3O4S3/c1-2-27-16(24)12-15-13-29-19(21-15)22-18(25)17(14-6-4-3-5-7-14)30-20(28)23-8-10-26-11-9-23/h3-7,13,17H,2,8-12H2,1H3,(H,21,22,25)
> <PUBCHEM_IUPAC_INCHIKEY>
PSWMKIZPPRICJS-UHFFFAOYSA-N
> <PUBCHEM_XLOGP3_AA>
3
> <PUBCHEM_EXACT_MASS>
465.08506974
> <PUBCHEM_MOLECULAR_FORMULA>
C20H23N3O4S3
> <PUBCHEM_MOLECULAR_WEIGHT>
465.6
> <PUBCHEM_OPENEYE_CAN_SMILES>
CCOC(=O)CC1=CSC(=N1)NC(=O)C(C2=CC=CC=C2)SC(=S)N3CCOCC3
> <PUBCHEM_OPENEYE_ISO_SMILES>
CCOC(=O)CC1=CSC(=N1)NC(=O)C(C2=CC=CC=C2)SC(=S)N3CCOCC3
> <PUBCHEM_CACTVS_TPSA>
166
> <PUBCHEM_MONOISOTOPIC_WEIGHT>
465.08506974
> <PUBCHEM_TOTAL_CHARGE>
0
> <PUBCHEM_HEAVY_ATOM_COUNT>
30
> <PUBCHEM_ATOM_DEF_STEREO_COUNT>
0
> <PUBCHEM_ATOM_UDEF_STEREO_COUNT>
1
> <PUBCHEM_BOND_DEF_STEREO_COUNT>
0
> <PUBCHEM_BOND_UDEF_STEREO_COUNT>
0
> <PUBCHEM_ISOTOPIC_ATOM_COUNT>
0
> <PUBCHEM_COMPONENT_COUNT>
1
> <PUBCHEM_CACTVS_TAUTO_COUNT>
-1
> <PUBCHEM_COORDINATE_TYPE>
1
5
255
> <PUBCHEM_BONDANNOTATIONS>
10  23  8
10  25  8
16  18  3
17  19  8
17  20  8
19  21  8
20  22  8
21  24  8
22  24  8
25  27  8
3  23  8
3  27  8
$$$$
