504191
  -OEChem-10302200282D
102103  0     1  0  0  0  0  0999 V2000
   10.3312    3.2500    0.0000 O   0  0  0  0  0  0  0  0  0  0  0  0
   12.9292    0.7500    0.0000 O   0  0  0  0  0  0  0  0  0  0  0  0
   12.0632   -2.7500    0.0000 O   0  0  0  0  0  0  0  0  0  0  0  0
    7.7331    0.7500    0.0000 O   0  0  0  0  0  0  0  0  0  0  0  0
    6.8671    3.2500    0.0000 O   0  0  0  0  0  0  0  0  0  0  0  0
   15.5273   -3.7500    0.0000 O   0  0  0  0  0  0  0  0  0  0  0  0
    2.5369    1.7500    0.0000 O   0  0  0  0  0  0  0  0  0  0  0  0
    3.4030    3.2500    0.0000 O   0  0  0  0  0  0  0  0  0  0  0  0
   11.1972    0.7500    0.0000 N   0  0  0  0  0  0  0  0  0  0  0  0
    9.4651    1.7500    0.0000 N   0  0  0  0  0  0  0  0  0  0  0  0
   12.9292   -1.2500    0.0000 N   0  0  0  0  0  0  0  0  0  0  0  0
   14.6613   -2.2500    0.0000 N   0  0  0  0  0  0  0  0  0  0  0  0
    6.0010    1.7500    0.0000 N   0  0  0  0  0  0  0  0  0  0  0  0
   17.2594   -2.7500    0.0000 N   0  0  0  0  0  0  0  0  0  0  0  0
   17.2594   -0.7500    0.0000 N   0  0  0  0  0  0  0  0  0  0  0  0
   12.0632    3.2500    0.0000 C   0  0  0  0  0  0  0  0  0  0  0  0
   11.1972    3.7500    0.0000 C   0  0  0  0  0  0  0  0  0  0  0  0
   12.9292    3.7500    0.0000 C   0  0  0  0  0  0  0  0  0  0  0  0
   12.0632    2.2500    0.0000 C   0  0  0  0  0  0  0  0  0  0  0  0
   11.1972    4.7500    0.0000 C   0  0  0  0  0  0  0  0  0  0  0  0
   12.9292    4.7500    0.0000 C   0  0  0  0  0  0  0  0  0  0  0  0
   12.0632    5.2500    0.0000 C   0  0  0  0  0  0  0  0  0  0  0  0
   11.1972    1.7500    0.0000 C   0  0  1  0  0  0  0  0  0  0  0  0
   10.3312    2.2500    0.0000 C   0  0  0  0  0  0  0  0  0  0  0  0
   12.0632   -0.7500    0.0000 C   0  0  2  0  0  0  0  0  0  0  0  0
   12.0632    0.2500    0.0000 C   0  0  0  0  0  0  0  0  0  0  0  0
   11.1972   -1.2500    0.0000 C   0  0  2  0  0  0  0  0  0  0  0  0
   10.3312   -0.7500    0.0000 C   0  0  0  0  0  0  0  0  0  0  0  0
    8.5991    2.2500    0.0000 C   0  0  1  0  0  0  0  0  0  0  0  0
   11.1972   -2.2500    0.0000 C   0  0  0  0  0  0  0  0  0  0  0  0
   13.7953   -2.7500    0.0000 C   0  0  2  0  0  0  0  0  0  0  0  0
   12.9292   -2.2500    0.0000 C   0  0  0  0  0  0  0  0  0  0  0  0
    8.5991    3.2500    0.0000 C   0  0  0  0  0  0  0  0  0  0  0  0
   13.7953   -3.7500    0.0000 C   0  0  0  0  0  0  0  0  0  0  0  0
    9.4651   -1.2500    0.0000 C   0  0  0  0  0  0  0  0  0  0  0  0
   12.9292   -4.2500    0.0000 C   0  0  0  0  0  0  0  0  0  0  0  0
    7.7331    1.7500    0.0000 C   0  0  0  0  0  0  0  0  0  0  0  0
    7.7331    3.7500    0.0000 C   0  0  0  0  0  0  0  0  0  0  0  0
   12.9292   -5.2500    0.0000 C   0  0  0  0  0  0  0  0  0  0  0  0
   12.0632   -3.7500    0.0000 C   0  0  0  0  0  0  0  0  0  0  0  0
    6.8671    2.2500    0.0000 C   0  0  0  0  0  0  0  0  0  0  0  0
   15.5273   -2.7500    0.0000 C   0  0  0  0  0  0  0  0  0  0  0  0
   16.3933   -2.2500    0.0000 C   0  0  0  0  0  0  0  0  0  0  0  0
    5.1350    2.2500    0.0000 C   0  0  0  0  0  0  0  0  0  0  0  0
    4.2690    1.7500    0.0000 C   0  0  0  0  0  0  0  0  0  0  0  0
   16.3933   -1.2500    0.0000 C   0  0  0  0  0  0  0  0  0  0  0  0
   18.1254   -2.2500    0.0000 C   0  0  0  0  0  0  0  0  0  0  0  0
    3.4030    2.2500    0.0000 C   0  0  0  0  0  0  0  0  0  0  0  0
   18.1254   -1.2500    0.0000 C   0  0  0  0  0  0  0  0  0  0  0  0
   12.6002    2.9400    0.0000 H   0  0  0  0  0  0  0  0  0  0  0  0
   10.5866    3.8577    0.0000 H   0  0  0  0  0  0  0  0  0  0  0  0
   10.9851    3.1674    0.0000 H   0  0  0  0  0  0  0  0  0  0  0  0
   13.1413    3.1674    0.0000 H   0  0  0  0  0  0  0  0  0  0  0  0
   13.5398    3.8577    0.0000 H   0  0  0  0  0  0  0  0  0  0  0  0
   12.2753    1.6674    0.0000 H   0  0  0  0  0  0  0  0  0  0  0  0
   12.6738    2.3577    0.0000 H   0  0  0  0  0  0  0  0  0  0  0  0
   10.9851    5.3326    0.0000 H   0  0  0  0  0  0  0  0  0  0  0  0
   10.5866    4.6423    0.0000 H   0  0  0  0  0  0  0  0  0  0  0  0
   13.5398    4.6423    0.0000 H   0  0  0  0  0  0  0  0  0  0  0  0
   13.1413    5.3326    0.0000 H   0  0  0  0  0  0  0  0  0  0  0  0
   12.4617    5.7250    0.0000 H   0  0  0  0  0  0  0  0  0  0  0  0
   11.6647    5.7250    0.0000 H   0  0  0  0  0  0  0  0  0  0  0  0
   10.6603    1.4400    0.0000 H   0  0  0  0  0  0  0  0  0  0  0  0
   10.6603    0.4400    0.0000 H   0  0  0  0  0  0  0  0  0  0  0  0
   12.6002   -0.4400    0.0000 H   0  0  0  0  0  0  0  0  0  0  0  0
   10.6603   -1.5600    0.0000 H   0  0  0  0  0  0  0  0  0  0  0  0
    9.4651    1.1300    0.0000 H   0  0  0  0  0  0  0  0  0  0  0  0
   10.7297   -0.2751    0.0000 H   0  0  0  0  0  0  0  0  0  0  0  0
    9.9326   -0.2751    0.0000 H   0  0  0  0  0  0  0  0  0  0  0  0
   13.4662   -0.9400    0.0000 H   0  0  0  0  0  0  0  0  0  0  0  0
    8.5991    1.6300    0.0000 H   0  0  0  0  0  0  0  0  0  0  0  0
   10.5772   -2.2500    0.0000 H   0  0  0  0  0  0  0  0  0  0  0  0
   11.1972   -2.8700    0.0000 H   0  0  0  0  0  0  0  0  0  0  0  0
   11.8172   -2.2500    0.0000 H   0  0  0  0  0  0  0  0  0  0  0  0
   14.3322   -3.0600    0.0000 H   0  0  0  0  0  0  0  0  0  0  0  0
    9.2097    3.1423    0.0000 H   0  0  0  0  0  0  0  0  0  0  0  0
    8.8112    3.8326    0.0000 H   0  0  0  0  0  0  0  0  0  0  0  0
   14.0073   -4.3326    0.0000 H   0  0  0  0  0  0  0  0  0  0  0  0
   14.4058   -3.6423    0.0000 H   0  0  0  0  0  0  0  0  0  0  0  0
    9.1551   -0.7131    0.0000 H   0  0  0  0  0  0  0  0  0  0  0  0
    8.9282   -1.5600    0.0000 H   0  0  0  0  0  0  0  0  0  0  0  0
    9.7751   -1.7869    0.0000 H   0  0  0  0  0  0  0  0  0  0  0  0
   12.3923   -4.5600    0.0000 H   0  0  0  0  0  0  0  0  0  0  0  0
   14.6613   -1.6300    0.0000 H   0  0  0  0  0  0  0  0  0  0  0  0
    8.0431    4.2869    0.0000 H   0  0  0  0  0  0  0  0  0  0  0  0
    7.1962    4.0600    0.0000 H   0  0  0  0  0  0  0  0  0  0  0  0
    7.4231    3.2131    0.0000 H   0  0  0  0  0  0  0  0  0  0  0  0
   12.3092   -5.2500    0.0000 H   0  0  0  0  0  0  0  0  0  0  0  0
   12.9292   -5.8700    0.0000 H   0  0  0  0  0  0  0  0  0  0  0  0
   13.5492   -5.2500    0.0000 H   0  0  0  0  0  0  0  0  0  0  0  0
   12.3732   -3.2131    0.0000 H   0  0  0  0  0  0  0  0  0  0  0  0
   11.5263   -3.4400    0.0000 H   0  0  0  0  0  0  0  0  0  0  0  0
   11.7532   -4.2869    0.0000 H   0  0  0  0  0  0  0  0  0  0  0  0
    6.0010    1.1300    0.0000 H   0  0  0  0  0  0  0  0  0  0  0  0
    5.5335    2.7250    0.0000 H   0  0  0  0  0  0  0  0  0  0  0  0
    4.7365    2.7250    0.0000 H   0  0  0  0  0  0  0  0  0  0  0  0
    3.8705    1.2750    0.0000 H   0  0  0  0  0  0  0  0  0  0  0  0
    4.6675    1.2750    0.0000 H   0  0  0  0  0  0  0  0  0  0  0  0
   15.8564   -0.9400    0.0000 H   0  0  0  0  0  0  0  0  0  0  0  0
   18.6623   -2.5600    0.0000 H   0  0  0  0  0  0  0  0  0  0  0  0
   18.6623   -0.9400    0.0000 H   0  0  0  0  0  0  0  0  0  0  0  0
    2.0000    2.0600    0.0000 H   0  0  0  0  0  0  0  0  0  0  0  0
  1 24  2  0  0  0  0
  2 26  2  0  0  0  0
  3 32  2  0  0  0  0
  4 37  2  0  0  0  0
  5 41  2  0  0  0  0
  6 42  2  0  0  0  0
  7 48  1  0  0  0  0
  7102  1  0  0  0  0
  8 48  2  0  0  0  0
 23  9  1  6  0  0  0
  9 26  1  0  0  0  0
  9 64  1  0  0  0  0
 10 24  1  0  0  0  0
 29 10  1  6  0  0  0
 10 67  1  0  0  0  0
 25 11  1  1  0  0  0
 11 32  1  0  0  0  0
 11 70  1  0  0  0  0
 31 12  1  1  0  0  0
 12 42  1  0  0  0  0
 12 84  1  0  0  0  0
 13 41  1  0  0  0  0
 13 44  1  0  0  0  0
 13 94  1  0  0  0  0
 14 43  2  0  0  0  0
 14 47  1  0  0  0  0
 15 46  2  0  0  0  0
 15 49  1  0  0  0  0
 16 17  1  0  0  0  0
 16 18  1  0  0  0  0
 16 19  1  0  0  0  0
 16 50  1  0  0  0  0
 17 20  1  0  0  0  0
 17 51  1  0  0  0  0
 17 52  1  0  0  0  0
 18 21  1  0  0  0  0
 18 53  1  0  0  0  0
 18 54  1  0  0  0  0
 19 23  1  0  0  0  0
 19 55  1  0  0  0  0
 19 56  1  0  0  0  0
 20 22  1  0  0  0  0
 20 57  1  0  0  0  0
 20 58  1  0  0  0  0
 21 22  1  0  0  0  0
 21 59  1  0  0  0  0
 21 60  1  0  0  0  0
 22 61  1  0  0  0  0
 22 62  1  0  0  0  0
 23 24  1  0  0  0  0
 23 63  1  0  0  0  0
 25 26  1  0  0  0  0
 25 27  1  0  0  0  0
 25 65  1  0  0  0  0
 27 28  1  0  0  0  0
 27 30  1  1  0  0  0
 27 66  1  0  0  0  0
 28 35  1  0  0  0  0
 28 68  1  0  0  0  0
 28 69  1  0  0  0  0
 29 33  1  0  0  0  0
 29 37  1  0  0  0  0
 29 71  1  0  0  0  0
 30 72  1  0  0  0  0
 30 73  1  0  0  0  0
 30 74  1  0  0  0  0
 31 32  1  0  0  0  0
 31 34  1  0  0  0  0
 31 75  1  0  0  0  0
 33 38  1  0  0  0  0
 33 76  1  0  0  0  0
 33 77  1  0  0  0  0
 34 36  1  0  0  0  0
 34 78  1  0  0  0  0
 34 79  1  0  0  0  0
 35 80  1  0  0  0  0
 35 81  1  0  0  0  0
 35 82  1  0  0  0  0
 36 39  1  0  0  0  0
 36 40  1  0  0  0  0
 36 83  1  0  0  0  0
 37 41  1  0  0  0  0
 38 85  1  0  0  0  0
 38 86  1  0  0  0  0
 38 87  1  0  0  0  0
 39 88  1  0  0  0  0
 39 89  1  0  0  0  0
 39 90  1  0  0  0  0
 40 91  1  0  0  0  0
 40 92  1  0  0  0  0
 40 93  1  0  0  0  0
 42 43  1  0  0  0  0
 43 46  1  0  0  0  0
 44 45  1  0  0  0  0
 44 95  1  0  0  0  0
 44 96  1  0  0  0  0
 45 48  1  0  0  0  0
 45 97  1  0  0  0  0
 45 98  1  0  0  0  0
 46 99  1  0  0  0  0
 47 49  2  0  0  0  0
 47100  1  0  0  0  0
 49101  1  0  0  0  0
M  END
> <PUBCHEM_COMPOUND_CID>
504191
> <PUBCHEM_COMPOUND_CANONICALIZED>
1
> <PUBCHEM_CACTVS_COMPLEXITY>
1140
> <PUBCHEM_CACTVS_HBOND_ACCEPTOR>
10
> <PUBCHEM_CACTVS_HBOND_DONOR>
6
> <PUBCHEM_CACTVS_ROTATABLE_BOND>
20
> <PUBCHEM_CACTVS_SUBSKEYS>
AAADcfB/vAAAAAAAAAAAAAAAAAAAAAAAAAA8QAAAAAAAAAABgAAAHgAQCAAADSzBlgQuiBLIEgCoAZX3XACAgCQXEiAIUIG4dEAAQFpAwCAUQIgCFgDAAMEYiICOAAAAAAAAAAAAAAAAAAAAAAAAAAAAAA==
> <PUBCHEM_IUPAC_OPENEYE_NAME>
3-[[(3S)-3-[[(2S)-3-cyclohexyl-2-[[(2S,3S)-3-methyl-2-[[(2S)-4-methyl-2-(pyrazine-2-carbonylamino)pentanoyl]amino]pentanoyl]amino]propanoyl]amino]-2-oxo-pentanoyl]amino]propanoic acid
> <PUBCHEM_IUPAC_CAS_NAME>
3-[[(3S)-3-[[(2S)-3-cyclohexyl-2-[[(2S,3S)-3-methyl-2-[[(2S)-4-methyl-1-oxo-2-[[oxo(2-pyrazinyl)methyl]amino]pentyl]amino]-1-oxopentyl]amino]-1-oxopropyl]amino]-1,2-dioxopentyl]amino]propanoic acid
> <PUBCHEM_IUPAC_NAME_MARKUP>
3-[[(3<I>S</I>)-3-[[(2<I>S</I>)-3-cyclohexyl-2-[[(2<I>S</I>,3<I>S</I>)-3-methyl-2-[[(2<I>S</I>)-4-methyl-2-(pyrazine-2-carbonylamino)pentanoyl]amino]pentanoyl]amino]propanoyl]amino]-2-oxopentanoyl]amino]propanoic acid
> <PUBCHEM_IUPAC_NAME>
3-[[(3S)-3-[[(2S)-3-cyclohexyl-2-[[(2S,3S)-3-methyl-2-[[(2S)-4-methyl-2-(pyrazine-2-carbonylamino)pentanoyl]amino]pentanoyl]amino]propanoyl]amino]-2-oxopentanoyl]amino]propanoic acid
> <PUBCHEM_IUPAC_SYSTEMATIC_NAME>
3-[[(3S)-3-[[(2S)-3-cyclohexyl-2-[[(2S,3S)-3-methyl-2-[[(2S)-4-methyl-2-(pyrazin-2-ylcarbonylamino)pentanoyl]amino]pentanoyl]amino]propanoyl]amino]-2-oxidanylidene-pentanoyl]amino]propanoic acid
> <PUBCHEM_IUPAC_TRADITIONAL_NAME>
3-[[(3S)-3-[[(2S)-3-cyclohexyl-2-[[(2S,3S)-3-methyl-2-[[(2S)-4-methyl-2-(pyrazinoylamino)pentanoyl]amino]pentanoyl]amino]propanoyl]amino]-2-keto-pentanoyl]amino]propionic acid
> <PUBCHEM_IUPAC_INCHI>
InChI=1S/C34H53N7O8/c1-6-21(5)28(41-31(46)24(17-20(3)4)39-32(47)26-19-35-15-16-36-26)33(48)40-25(18-22-11-9-8-10-12-22)30(45)38-23(7-2)29(44)34(49)37-14-13-27(42)43/h15-16,19-25,28H,6-14,17-18H2,1-5H3,(H,37,49)(H,38,45)(H,39,47)(H,40,48)(H,41,46)(H,42,43)/t21-,23-,24-,25-,28-/m0/s1
> <PUBCHEM_IUPAC_INCHIKEY>
KNUPSKTYHADVRA-FTVGXNHISA-N
> <PUBCHEM_XLOGP3_AA>
3.7
> <PUBCHEM_EXACT_MASS>
687.39556167
> <PUBCHEM_MOLECULAR_FORMULA>
C34H53N7O8
> <PUBCHEM_MOLECULAR_WEIGHT>
687.8
> <PUBCHEM_OPENEYE_CAN_SMILES>
CCC(C)C(C(=O)NC(CC1CCCCC1)C(=O)NC(CC)C(=O)C(=O)NCCC(=O)O)NC(=O)C(CC(C)C)NC(=O)C2=NC=CN=C2
> <PUBCHEM_OPENEYE_ISO_SMILES>
CC[C@H](C)[C@@H](C(=O)N[C@@H](CC1CCCCC1)C(=O)N[C@@H](CC)C(=O)C(=O)NCCC(=O)O)NC(=O)[C@H](CC(C)C)NC(=O)C2=NC=CN=C2
> <PUBCHEM_CACTVS_TPSA>
226
> <PUBCHEM_MONOISOTOPIC_WEIGHT>
687.39556167
> <PUBCHEM_TOTAL_CHARGE>
0
> <PUBCHEM_HEAVY_ATOM_COUNT>
49
> <PUBCHEM_ATOM_DEF_STEREO_COUNT>
5
> <PUBCHEM_ATOM_UDEF_STEREO_COUNT>
0
> <PUBCHEM_BOND_DEF_STEREO_COUNT>
0
> <PUBCHEM_BOND_UDEF_STEREO_COUNT>
0
> <PUBCHEM_ISOTOPIC_ATOM_COUNT>
0
> <PUBCHEM_COMPONENT_COUNT>
1
> <PUBCHEM_CACTVS_TAUTO_COUNT>
-1
> <PUBCHEM_COORDINATE_TYPE>
1
5
255
> <PUBCHEM_BONDANNOTATIONS>
29  10  6
25  11  5
31  12  5
14  43  8
14  47  8
15  46  8
15  49  8
27  30  5
43  46  8
47  49  8
23  9  6
$$$$
