504135
  -OEChem-10302200282D
 48 49  0     1  0  0  0  0  0999 V2000
    4.5981    1.8261    0.0000 S   0  0  0  0  0  0  0  0  0  0  0  0
    2.8660    1.8261    0.0000 S   0  0  0  0  0  0  0  0  0  0  0  0
    7.2437   -0.7672    0.0000 S   0  0  0  0  0  0  0  0  0  0  0  0
    6.3301    0.8261    0.0000 O   0  0  0  0  0  0  0  0  0  0  0  0
    9.2208   -4.3080    0.0000 O   0  0  0  0  0  0  0  0  0  0  0  0
    9.4018   -2.5854    0.0000 O   0  0  0  0  0  0  0  0  0  0  0  0
    3.7320    3.3261    0.0000 N   0  0  0  0  0  0  0  0  0  0  0  0
    5.4641   -0.6739    0.0000 N   0  0  0  0  0  0  0  0  0  0  0  0
    6.4347   -2.1685    0.0000 N   0  0  0  0  0  0  0  0  0  0  0  0
    2.8660    3.8261    0.0000 C   0  0  3  0  0  0  0  0  0  0  0  0
    2.8660    4.8261    0.0000 C   0  0  0  0  0  0  0  0  0  0  0  0
    3.7320    5.3261    0.0000 C   0  0  0  0  0  0  0  0  0  0  0  0
    4.5981    4.8261    0.0000 C   0  0  0  0  0  0  0  0  0  0  0  0
    4.5981    3.8261    0.0000 C   0  0  0  0  0  0  0  0  0  0  0  0
    2.0000    3.3261    0.0000 C   0  0  0  0  0  0  0  0  0  0  0  0
    3.7320    2.3261    0.0000 C   0  0  0  0  0  0  0  0  0  0  0  0
    4.5981    0.8261    0.0000 C   0  0  0  0  0  0  0  0  0  0  0  0
    5.4641    0.3261    0.0000 C   0  0  0  0  0  0  0  0  0  0  0  0
    6.3301   -1.1739    0.0000 C   0  0  0  0  0  0  0  0  0  0  0  0
    7.4128   -2.3764    0.0000 C   0  0  0  0  0  0  0  0  0  0  0  0
    7.8195   -3.2899    0.0000 C   0  0  0  0  0  0  0  0  0  0  0  0
    7.9128   -1.5103    0.0000 C   0  0  0  0  0  0  0  0  0  0  0  0
    8.8141   -3.3944    0.0000 C   0  0  0  0  0  0  0  0  0  0  0  0
   10.2153   -4.4125    0.0000 C   0  0  0  0  0  0  0  0  0  0  0  0
   10.6221   -5.3261    0.0000 C   0  0  0  0  0  0  0  0  0  0  0  0
    2.8660    3.2061    0.0000 H   0  0  0  0  0  0  0  0  0  0  0  0
    2.6540    5.4087    0.0000 H   0  0  0  0  0  0  0  0  0  0  0  0
    2.2554    4.7184    0.0000 H   0  0  0  0  0  0  0  0  0  0  0  0
    4.1306    5.8010    0.0000 H   0  0  0  0  0  0  0  0  0  0  0  0
    3.3335    5.8010    0.0000 H   0  0  0  0  0  0  0  0  0  0  0  0
    5.2087    4.7184    0.0000 H   0  0  0  0  0  0  0  0  0  0  0  0
    4.8101    5.4087    0.0000 H   0  0  0  0  0  0  0  0  0  0  0  0
    4.8101    3.2434    0.0000 H   0  0  0  0  0  0  0  0  0  0  0  0
    5.2087    3.9337    0.0000 H   0  0  0  0  0  0  0  0  0  0  0  0
    1.6900    3.8630    0.0000 H   0  0  0  0  0  0  0  0  0  0  0  0
    1.4631    3.0161    0.0000 H   0  0  0  0  0  0  0  0  0  0  0  0
    2.3100    2.7891    0.0000 H   0  0  0  0  0  0  0  0  0  0  0  0
    3.9875    0.9337    0.0000 H   0  0  0  0  0  0  0  0  0  0  0  0
    4.3860    0.2435    0.0000 H   0  0  0  0  0  0  0  0  0  0  0  0
    4.9272   -0.9839    0.0000 H   0  0  0  0  0  0  0  0  0  0  0  0
    7.2180   -3.4399    0.0000 H   0  0  0  0  0  0  0  0  0  0  0  0
    7.8628   -3.9084    0.0000 H   0  0  0  0  0  0  0  0  0  0  0  0
    8.5294   -1.4455    0.0000 H   0  0  0  0  0  0  0  0  0  0  0  0
   10.8169   -4.2625    0.0000 H   0  0  0  0  0  0  0  0  0  0  0  0
   10.1721   -3.7940    0.0000 H   0  0  0  0  0  0  0  0  0  0  0  0
   10.0557   -5.5782    0.0000 H   0  0  0  0  0  0  0  0  0  0  0  0
   10.8742   -5.8925    0.0000 H   0  0  0  0  0  0  0  0  0  0  0  0
   11.1885   -5.0739    0.0000 H   0  0  0  0  0  0  0  0  0  0  0  0
  1 16  1  0  0  0  0
  1 17  1  0  0  0  0
  2 16  2  0  0  0  0
  3 19  1  0  0  0  0
  3 22  1  0  0  0  0
  4 18  2  0  0  0  0
  5 23  1  0  0  0  0
  5 24  1  0  0  0  0
  6 23  2  0  0  0  0
  7 10  1  0  0  0  0
  7 14  1  0  0  0  0
  7 16  1  0  0  0  0
  8 18  1  0  0  0  0
  8 19  1  0  0  0  0
  8 40  1  0  0  0  0
  9 19  2  0  0  0  0
  9 20  1  0  0  0  0
 10 11  1  0  0  0  0
 10 15  1  0  0  0  0
 10 26  1  0  0  0  0
 11 12  1  0  0  0  0
 11 27  1  0  0  0  0
 11 28  1  0  0  0  0
 12 13  1  0  0  0  0
 12 29  1  0  0  0  0
 12 30  1  0  0  0  0
 13 14  1  0  0  0  0
 13 31  1  0  0  0  0
 13 32  1  0  0  0  0
 14 33  1  0  0  0  0
 14 34  1  0  0  0  0
 15 35  1  0  0  0  0
 15 36  1  0  0  0  0
 15 37  1  0  0  0  0
 17 18  1  0  0  0  0
 17 38  1  0  0  0  0
 17 39  1  0  0  0  0
 20 21  1  0  0  0  0
 20 22  2  0  0  0  0
 21 23  1  0  0  0  0
 21 41  1  0  0  0  0
 21 42  1  0  0  0  0
 22 43  1  0  0  0  0
 24 25  1  0  0  0  0
 24 44  1  0  0  0  0
 24 45  1  0  0  0  0
 25 46  1  0  0  0  0
 25 47  1  0  0  0  0
 25 48  1  0  0  0  0
M  END
> <PUBCHEM_COMPOUND_CID>
504135
> <PUBCHEM_COMPOUND_CANONICALIZED>
1
> <PUBCHEM_CACTVS_COMPLEXITY>
493
> <PUBCHEM_CACTVS_HBOND_ACCEPTOR>
7
> <PUBCHEM_CACTVS_HBOND_DONOR>
1
> <PUBCHEM_CACTVS_ROTATABLE_BOND>
8
> <PUBCHEM_CACTVS_SUBSKEYS>
AAADceB7MABgAAAAAAAAAAAAAAAAAWAAAAAsAAAAAAAAAAABgAAAHgQQAAAACCjl1gajmRPIFAisAQXyfAAA8KlhCjkBABU4IAiAIBogjQAGAAAOUQOAACEQAAAAAAAAAAAAAAAAAAAAAAAAAAAAAAAAAA==
> <PUBCHEM_IUPAC_OPENEYE_NAME>
ethyl 2-[2-[[2-(2-methylpiperidine-1-carbothioyl)sulfanylacetyl]amino]thiazol-4-yl]acetate
> <PUBCHEM_IUPAC_CAS_NAME>
2-[2-[[2-[[(2-methyl-1-piperidinyl)-sulfanylidenemethyl]thio]-1-oxoethyl]amino]-4-thiazolyl]acetic acid ethyl ester
> <PUBCHEM_IUPAC_NAME_MARKUP>
ethyl 2-[2-[[2-(2-methylpiperidine-1-carbothioyl)sulfanylacetyl]amino]-1,3-thiazol-4-yl]acetate
> <PUBCHEM_IUPAC_NAME>
ethyl 2-[2-[[2-(2-methylpiperidine-1-carbothioyl)sulfanylacetyl]amino]-1,3-thiazol-4-yl]acetate
> <PUBCHEM_IUPAC_SYSTEMATIC_NAME>
ethyl 2-[2-[2-(2-methylpiperidin-1-yl)carbothioylsulfanylethanoylamino]-1,3-thiazol-4-yl]ethanoate
> <PUBCHEM_IUPAC_TRADITIONAL_NAME>
2-[2-[[2-[(2-methylpiperidine-1-carbothioyl)thio]acetyl]amino]thiazol-4-yl]acetic acid ethyl ester
> <PUBCHEM_IUPAC_INCHI>
InChI=1S/C16H23N3O3S3/c1-3-22-14(21)8-12-9-24-15(17-12)18-13(20)10-25-16(23)19-7-5-4-6-11(19)2/h9,11H,3-8,10H2,1-2H3,(H,17,18,20)
> <PUBCHEM_IUPAC_INCHIKEY>
OJRHIRFORNXFND-UHFFFAOYSA-N
> <PUBCHEM_XLOGP3_AA>
3
> <PUBCHEM_EXACT_MASS>
401.09015512
> <PUBCHEM_MOLECULAR_FORMULA>
C16H23N3O3S3
> <PUBCHEM_MOLECULAR_WEIGHT>
401.6
> <PUBCHEM_OPENEYE_CAN_SMILES>
CCOC(=O)CC1=CSC(=N1)NC(=O)CSC(=S)N2CCCCC2C
> <PUBCHEM_OPENEYE_ISO_SMILES>
CCOC(=O)CC1=CSC(=N1)NC(=O)CSC(=S)N2CCCCC2C
> <PUBCHEM_CACTVS_TPSA>
157
> <PUBCHEM_MONOISOTOPIC_WEIGHT>
401.09015512
> <PUBCHEM_TOTAL_CHARGE>
0
> <PUBCHEM_HEAVY_ATOM_COUNT>
25
> <PUBCHEM_ATOM_DEF_STEREO_COUNT>
0
> <PUBCHEM_ATOM_UDEF_STEREO_COUNT>
1
> <PUBCHEM_BOND_DEF_STEREO_COUNT>
0
> <PUBCHEM_BOND_UDEF_STEREO_COUNT>
0
> <PUBCHEM_ISOTOPIC_ATOM_COUNT>
0
> <PUBCHEM_COMPONENT_COUNT>
1
> <PUBCHEM_CACTVS_TAUTO_COUNT>
-1
> <PUBCHEM_COORDINATE_TYPE>
1
5
255
> <PUBCHEM_BONDANNOTATIONS>
10  15  3
20  22  8
3  19  8
3  22  8
9  19  8
9  20  8
$$$$
