504101
  -OEChem-10302200282D
107114  0     1  0  0  0  0  0999 V2000
    2.0000   -5.7238    0.0000 F   0  0  0  0  0  0  0  0  0  0  0  0
    2.6878   -6.9595    0.0000 F   0  0  0  0  0  0  0  0  0  0  0  0
    3.9235   -6.2717    0.0000 F   0  0  0  0  0  0  0  0  0  0  0  0
    9.6397    3.1904    0.0000 O   0  0  0  0  0  0  0  0  0  0  0  0
    8.3054    4.0904    0.0000 O   0  0  0  0  0  0  0  0  0  0  0  0
    6.9686    0.6695    0.0000 O   0  0  0  0  0  0  0  0  0  0  0  0
    6.2714   -0.7019    0.0000 O   0  0  0  0  0  0  0  0  0  0  0  0
   10.7614   -3.0266    0.0000 O   0  0  0  0  0  0  0  0  0  0  0  0
   11.3798   -3.8125    0.0000 O   0  0  0  0  0  0  0  0  0  0  0  0
    8.5254    1.4288    0.0000 N   0  0  0  0  0  0  0  0  0  0  0  0
    7.9371   -1.1764    0.0000 N   0  0  0  0  0  0  0  0  0  0  0  0
   10.5144   -1.3123    0.0000 N   0  0  0  0  0  0  0  0  0  0  0  0
    8.3591   -2.8563    0.0000 N   0  0  0  0  0  0  0  0  0  0  0  0
    5.7234   -2.6253    0.0000 N   0  0  0  0  0  0  0  0  0  0  0  0
   12.1226   -1.9556    0.0000 N   0  0  0  0  0  0  0  0  0  0  0  0
   11.1372    5.0109    0.0000 C   0  0  3  0  0  0  0  0  0  0  0  0
   12.5362    5.0198    0.0000 C   0  0  0  0  0  0  0  0  0  0  0  0
   11.3961    5.9769    0.0000 C   0  0  3  0  0  0  0  0  0  0  0  0
   10.6594    6.9595    0.0000 C   0  0  0  0  0  0  0  0  0  0  0  0
    9.9162    4.1453    0.0000 C   0  0  3  0  0  0  0  0  0  0  0  0
    9.0872    4.7045    0.0000 C   0  0  2  0  0  0  0  0  0  0  0  0
    9.3628    5.6657    0.0000 C   0  0  0  0  0  0  0  0  0  0  0  0
   13.4022    5.5198    0.0000 C   0  0  0  0  0  0  0  0  0  0  0  0
   13.0362    4.1537    0.0000 C   0  0  0  0  0  0  0  0  0  0  0  0
    8.2581    5.2637    0.0000 C   0  0  0  0  0  0  0  0  0  0  0  0
    8.0870    2.3276    0.0000 C   0  0  1  0  0  0  0  0  0  0  0  0
    7.0895    2.3973    0.0000 C   0  0  0  0  0  0  0  0  0  0  0  0
    6.5303    1.5683    0.0000 C   0  0  0  0  0  0  0  0  0  0  0  0
    7.9662    0.5997    0.0000 C   0  0  0  0  0  0  0  0  0  0  0  0
    8.4046   -0.2991    0.0000 C   0  0  2  0  0  0  0  0  0  0  0  0
    9.3837   -0.4708    0.0000 C   0  0  0  0  0  0  0  0  0  0  0  0
    9.5246   -1.4549    0.0000 C   0  0  2  0  0  0  0  0  0  0  0  0
    8.6330   -1.8945    0.0000 C   0  0  0  0  0  0  0  0  0  0  0  0
    9.9661   -2.3522    0.0000 C   0  0  0  0  0  0  0  0  0  0  0  0
    6.9673   -1.4200    0.0000 C   0  0  0  0  0  0  0  0  0  0  0  0
    6.6933   -2.3817    0.0000 C   0  0  0  0  0  0  0  0  0  0  0  0
    7.3892   -3.0999    0.0000 C   0  0  0  0  0  0  0  0  0  0  0  0
   11.1328   -2.0982    0.0000 C   0  0  0  0  0  0  0  0  0  0  0  0
    5.4494   -3.5871    0.0000 C   0  0  0  0  0  0  0  0  0  0  0  0
   12.7409   -2.7414    0.0000 C   0  0  0  0  0  0  0  0  0  0  0  0
    4.4796   -3.8307    0.0000 C   0  0  0  0  0  0  0  0  0  0  0  0
   12.3696   -3.6699    0.0000 C   0  0  0  0  0  0  0  0  0  0  0  0
   13.7307   -2.5988    0.0000 C   0  0  0  0  0  0  0  0  0  0  0  0
    4.2056   -4.7924    0.0000 C   0  0  0  0  0  0  0  0  0  0  0  0
    3.7837   -3.1125    0.0000 C   0  0  0  0  0  0  0  0  0  0  0  0
   12.9879   -4.4558    0.0000 C   0  0  0  0  0  0  0  0  0  0  0  0
   14.3491   -3.3847    0.0000 C   0  0  0  0  0  0  0  0  0  0  0  0
    3.2357   -5.0360    0.0000 C   0  0  0  0  0  0  0  0  0  0  0  0
    2.8138   -3.3561    0.0000 C   0  0  0  0  0  0  0  0  0  0  0  0
   13.9777   -4.3132    0.0000 C   0  0  0  0  0  0  0  0  0  0  0  0
    2.5398   -4.3179    0.0000 C   0  0  0  0  0  0  0  0  0  0  0  0
    2.9617   -5.9977    0.0000 C   0  0  0  0  0  0  0  0  0  0  0  0
   11.0084   -4.7410    0.0000 C   0  0  0  0  0  0  0  0  0  0  0  0
   11.6268   -5.5269    0.0000 C   0  0  0  0  0  0  0  0  0  0  0  0
   10.0186   -4.8836    0.0000 C   0  0  0  0  0  0  0  0  0  0  0  0
   11.2554   -6.4553    0.0000 C   0  0  0  0  0  0  0  0  0  0  0  0
    9.6472   -5.8121    0.0000 C   0  0  0  0  0  0  0  0  0  0  0  0
   10.2656   -6.5979    0.0000 C   0  0  0  0  0  0  0  0  0  0  0  0
    8.6462    3.1566    0.0000 B   0  0  0  0  0  0  0  0  0  0  0  0
   11.3273    4.4208    0.0000 H   0  0  0  0  0  0  0  0  0  0  0  0
   11.8464    6.4030    0.0000 H   0  0  0  0  0  0  0  0  0  0  0  0
   10.9772    7.4918    0.0000 H   0  0  0  0  0  0  0  0  0  0  0  0
   10.0463    7.0514    0.0000 H   0  0  0  0  0  0  0  0  0  0  0  0
   10.4216    3.7861    0.0000 H   0  0  0  0  0  0  0  0  0  0  0  0
    9.3578    6.2857    0.0000 H   0  0  0  0  0  0  0  0  0  0  0  0
    8.7485    5.7495    0.0000 H   0  0  0  0  0  0  0  0  0  0  0  0
   13.7122    4.9828    0.0000 H   0  0  0  0  0  0  0  0  0  0  0  0
   13.9391    5.8298    0.0000 H   0  0  0  0  0  0  0  0  0  0  0  0
   13.0922    6.0567    0.0000 H   0  0  0  0  0  0  0  0  0  0  0  0
   12.4992    3.8437    0.0000 H   0  0  0  0  0  0  0  0  0  0  0  0
   13.3462    3.6168    0.0000 H   0  0  0  0  0  0  0  0  0  0  0  0
   13.5731    4.4637    0.0000 H   0  0  0  0  0  0  0  0  0  0  0  0
    8.6048    5.7777    0.0000 H   0  0  0  0  0  0  0  0  0  0  0  0
    7.7441    5.6104    0.0000 H   0  0  0  0  0  0  0  0  0  0  0  0
    7.9114    4.7497    0.0000 H   0  0  0  0  0  0  0  0  0  0  0  0
    7.7403    1.8136    0.0000 H   0  0  0  0  0  0  0  0  0  0  0  0
    7.2395    2.9989    0.0000 H   0  0  0  0  0  0  0  0  0  0  0  0
    6.5231    2.6495    0.0000 H   0  0  0  0  0  0  0  0  0  0  0  0
    9.1439    1.3855    0.0000 H   0  0  0  0  0  0  0  0  0  0  0  0
    6.0163    1.9150    0.0000 H   0  0  0  0  0  0  0  0  0  0  0  0
    6.1836    1.0543    0.0000 H   0  0  0  0  0  0  0  0  0  0  0  0
    7.0443    1.2216    0.0000 H   0  0  0  0  0  0  0  0  0  0  0  0
    7.7847   -0.2880    0.0000 H   0  0  0  0  0  0  0  0  0  0  0  0
   10.0033   -0.4480    0.0000 H   0  0  0  0  0  0  0  0  0  0  0  0
    9.4261    0.1477    0.0000 H   0  0  0  0  0  0  0  0  0  0  0  0
    9.4098   -2.6259    0.0000 H   0  0  0  0  0  0  0  0  0  0  0  0
   10.2398   -2.9085    0.0000 H   0  0  0  0  0  0  0  0  0  0  0  0
   10.5224   -2.0784    0.0000 H   0  0  0  0  0  0  0  0  0  0  0  0
   10.7447   -0.7366    0.0000 H   0  0  0  0  0  0  0  0  0  0  0  0
    7.2193   -3.6961    0.0000 H   0  0  0  0  0  0  0  0  0  0  0  0
    5.2920   -2.1801    0.0000 H   0  0  0  0  0  0  0  0  0  0  0  0
   12.3528   -1.3799    0.0000 H   0  0  0  0  0  0  0  0  0  0  0  0
    5.4938   -4.2055    0.0000 H   0  0  0  0  0  0  0  0  0  0  0  0
    6.0662   -3.6508    0.0000 H   0  0  0  0  0  0  0  0  0  0  0  0
   13.9610   -2.0232    0.0000 H   0  0  0  0  0  0  0  0  0  0  0  0
    4.6370   -5.2376    0.0000 H   0  0  0  0  0  0  0  0  0  0  0  0
    3.9535   -2.5162    0.0000 H   0  0  0  0  0  0  0  0  0  0  0  0
   12.7577   -5.0315    0.0000 H   0  0  0  0  0  0  0  0  0  0  0  0
   14.9628   -3.2963    0.0000 H   0  0  0  0  0  0  0  0  0  0  0  0
    2.3823   -2.9109    0.0000 H   0  0  0  0  0  0  0  0  0  0  0  0
   14.3611   -4.8004    0.0000 H   0  0  0  0  0  0  0  0  0  0  0  0
    1.9385   -4.4689    0.0000 H   0  0  0  0  0  0  0  0  0  0  0  0
   12.2404   -5.4384    0.0000 H   0  0  0  0  0  0  0  0  0  0  0  0
    9.6352   -4.3964    0.0000 H   0  0  0  0  0  0  0  0  0  0  0  0
   11.6388   -6.9426    0.0000 H   0  0  0  0  0  0  0  0  0  0  0  0
    9.0335   -5.9005    0.0000 H   0  0  0  0  0  0  0  0  0  0  0  0
   10.0353   -7.1736    0.0000 H   0  0  0  0  0  0  0  0  0  0  0  0
  1 52  1  0  0  0  0
  2 52  1  0  0  0  0
  3 52  1  0  0  0  0
  4 20  1  0  0  0  0
  4 59  1  0  0  0  0
  5 21  1  0  0  0  0
  5 59  1  0  0  0  0
  6 29  2  0  0  0  0
  7 35  2  0  0  0  0
  8 38  2  0  0  0  0
  9 42  1  0  0  0  0
  9 53  1  0  0  0  0
 26 10  1  1  0  0  0
 10 29  1  0  0  0  0
 10 79  1  0  0  0  0
 11 30  1  0  0  0  0
 11 33  1  0  0  0  0
 11 35  1  0  0  0  0
 32 12  1  1  0  0  0
 12 38  1  0  0  0  0
 12 89  1  0  0  0  0
 13 33  2  0  0  0  0
 13 37  1  0  0  0  0
 14 36  1  0  0  0  0
 14 39  1  0  0  0  0
 14 91  1  0  0  0  0
 15 38  1  0  0  0  0
 15 40  1  0  0  0  0
 15 92  1  0  0  0  0
 16 17  1  0  0  0  0
 16 19  1  0  0  0  0
 16 20  1  0  0  0  0
 16 60  1  0  0  0  0
 17 18  1  0  0  0  0
 17 23  1  0  0  0  0
 17 24  1  0  0  0  0
 18 19  1  0  0  0  0
 18 22  1  0  0  0  0
 18 61  1  0  0  0  0
 19 62  1  0  0  0  0
 19 63  1  0  0  0  0
 20 21  1  0  0  0  0
 20 64  1  0  0  0  0
 21 22  1  0  0  0  0
 21 25  1  6  0  0  0
 22 65  1  0  0  0  0
 22 66  1  0  0  0  0
 23 67  1  0  0  0  0
 23 68  1  0  0  0  0
 23 69  1  0  0  0  0
 24 70  1  0  0  0  0
 24 71  1  0  0  0  0
 24 72  1  0  0  0  0
 25 73  1  0  0  0  0
 25 74  1  0  0  0  0
 25 75  1  0  0  0  0
 26 27  1  0  0  0  0
 26 59  1  0  0  0  0
 26 76  1  0  0  0  0
 27 28  1  0  0  0  0
 27 77  1  0  0  0  0
 27 78  1  0  0  0  0
 28 80  1  0  0  0  0
 28 81  1  0  0  0  0
 28 82  1  0  0  0  0
 30 29  1  6  0  0  0
 30 31  1  0  0  0  0
 30 83  1  0  0  0  0
 31 32  1  0  0  0  0
 31 84  1  0  0  0  0
 31 85  1  0  0  0  0
 32 33  1  0  0  0  0
 32 34  1  0  0  0  0
 34 86  1  0  0  0  0
 34 87  1  0  0  0  0
 34 88  1  0  0  0  0
 35 36  1  0  0  0  0
 36 37  2  0  0  0  0
 37 90  1  0  0  0  0
 39 41  1  0  0  0  0
 39 93  1  0  0  0  0
 39 94  1  0  0  0  0
 40 42  1  0  0  0  0
 40 43  2  0  0  0  0
 41 44  2  0  0  0  0
 41 45  1  0  0  0  0
 42 46  2  0  0  0  0
 43 47  1  0  0  0  0
 43 95  1  0  0  0  0
 44 48  1  0  0  0  0
 44 96  1  0  0  0  0
 45 49  2  0  0  0  0
 45 97  1  0  0  0  0
 46 50  1  0  0  0  0
 46 98  1  0  0  0  0
 47 50  2  0  0  0  0
 47 99  1  0  0  0  0
 48 51  2  0  0  0  0
 48 52  1  0  0  0  0
 49 51  1  0  0  0  0
 49100  1  0  0  0  0
 50101  1  0  0  0  0
 51102  1  0  0  0  0
 53 54  2  0  0  0  0
 53 55  1  0  0  0  0
 54 56  1  0  0  0  0
 54103  1  0  0  0  0
 55 57  2  0  0  0  0
 55104  1  0  0  0  0
 56 58  2  0  0  0  0
 56105  1  0  0  0  0
 57 58  1  0  0  0  0
 57106  1  0  0  0  0
 58107  1  0  0  0  0
M  END
> <PUBCHEM_COMPOUND_CID>
504101
> <PUBCHEM_COMPOUND_CANONICALIZED>
1
> <PUBCHEM_CACTVS_COMPLEXITY>
1680
> <PUBCHEM_CACTVS_HBOND_ACCEPTOR>
11
> <PUBCHEM_CACTVS_HBOND_DONOR>
4
> <PUBCHEM_CACTVS_ROTATABLE_BOND>
11
> <PUBCHEM_CACTVS_SUBSKEYS>
AAADcfJ/uYAAAAAAAAAAAAAAAABgAWJAAAAwYMGDAAAAAEgBUAAoHwAQAAAAD/zhmBYzxoPABACoAid2dACCCAEhIgAJiIGvbMiPZjLE+buXOCjs1hPY6OecwfAPgAACAAAAEADAAAYAADCgAAAAAAAAAA==
> <PUBCHEM_IUPAC_OPENEYE_NAME>
(6S,8R)-8-methyl-4-oxo-8-[(2-phenoxyphenyl)carbamoylamino]-3-[[3-(trifluoromethyl)phenyl]methylamino]-N-[(1R)-1-[(6S)-6,9,9-trimethyl-3,5-dioxa-4-boratricyclo[6.1.1.02,6]decan-4-yl]propyl]-6,7-dihydropyrrolo[1,2-a]pyrimidine-6-carboxamide
> <PUBCHEM_IUPAC_CAS_NAME>
(6S,8R)-8-methyl-4-oxo-8-[[oxo-(2-phenoxyanilino)methyl]amino]-3-[[3-(trifluoromethyl)phenyl]methylamino]-N-[(1R)-1-[(6S)-6,9,9-trimethyl-3,5-dioxa-4-boratricyclo[6.1.1.02,6]decan-4-yl]propyl]-6,7-dihydropyrrolo[1,2-a]pyrimidine-6-carboxamide
> <PUBCHEM_IUPAC_NAME_MARKUP>
(6<I>S</I>,8<I>R</I>)-8-methyl-4-oxo-8-[(2-phenoxyphenyl)carbamoylamino]-3-[[3-(trifluoromethyl)phenyl]methylamino]-<I>N</I>-[(1<I>R</I>)-1-[(6<I>S</I>)-6,9,9-trimethyl-3,5-dioxa-4-boratricyclo[6.1.1.0<SUP>2,6</SUP>]decan-4-yl]propyl]-6,7-dihydropyrrolo[1,2-a]pyrimidine-6-carboxamide
> <PUBCHEM_IUPAC_NAME>
(6S,8R)-8-methyl-4-oxo-8-[(2-phenoxyphenyl)carbamoylamino]-3-[[3-(trifluoromethyl)phenyl]methylamino]-N-[(1R)-1-[(6S)-6,9,9-trimethyl-3,5-dioxa-4-boratricyclo[6.1.1.02,6]decan-4-yl]propyl]-6,7-dihydropyrrolo[1,2-a]pyrimidine-6-carboxamide
> <PUBCHEM_IUPAC_SYSTEMATIC_NAME>
(6S,8R)-8-methyl-4-oxidanylidene-8-[(2-phenoxyphenyl)carbamoylamino]-3-[[3-(trifluoromethyl)phenyl]methylamino]-N-[(1R)-1-[(6S)-6,9,9-trimethyl-3,5-dioxa-4-boratricyclo[6.1.1.02,6]decan-4-yl]propyl]-6,7-dihydropyrrolo[1,2-a]pyrimidine-6-carboxamide
> <PUBCHEM_IUPAC_TRADITIONAL_NAME>
(6S,8R)-4-keto-8-methyl-8-[(2-phenoxyphenyl)carbamoylamino]-3-[[3-(trifluoromethyl)benzyl]amino]-N-[(1R)-1-[(6S)-6,9,9-trimethyl-3,5-dioxa-4-boratricyclo[6.1.1.02,6]decan-4-yl]propyl]-6,7-dihydropyrrolo[1,2-a]pyrimidine-6-carboxamide
> <PUBCHEM_IUPAC_INCHI>
InChI=1S/C43H48BF3N6O6/c1-6-34(44-58-35-29-20-27(40(29,2)3)21-42(35,5)59-44)51-36(54)32-22-41(4,52-39(56)50-30-17-10-11-18-33(30)57-28-15-8-7-9-16-28)38-49-24-31(37(55)53(32)38)48-23-25-13-12-14-26(19-25)43(45,46)47/h7-19,24,27,29,32,34-35,48H,6,20-23H2,1-5H3,(H,51,54)(H2,50,52,56)/t27?,29?,32-,34-,35?,41+,42-/m0/s1
> <PUBCHEM_IUPAC_INCHIKEY>
KTDYPXGSFDLKKK-ZJVPROEESA-N
> <PUBCHEM_EXACT_MASS>
812.3680479
> <PUBCHEM_MOLECULAR_FORMULA>
C43H48BF3N6O6
> <PUBCHEM_MOLECULAR_WEIGHT>
812.7
> <PUBCHEM_OPENEYE_CAN_SMILES>
B1(OC2C3CC(C3(C)C)CC2(O1)C)C(CC)NC(=O)C4CC(C5=NC=C(C(=O)N45)NCC6=CC(=CC=C6)C(F)(F)F)(C)NC(=O)NC7=CC=CC=C7OC8=CC=CC=C8
> <PUBCHEM_OPENEYE_ISO_SMILES>
B1(OC2C3CC(C3(C)C)C[C@@]2(O1)C)[C@H](CC)NC(=O)[C@@H]4C[C@@](C5=NC=C(C(=O)N45)NCC6=CC(=CC=C6)C(F)(F)F)(C)NC(=O)NC7=CC=CC=C7OC8=CC=CC=C8
> <PUBCHEM_CACTVS_TPSA>
143
> <PUBCHEM_MONOISOTOPIC_WEIGHT>
812.3680479
> <PUBCHEM_TOTAL_CHARGE>
0
> <PUBCHEM_HEAVY_ATOM_COUNT>
59
> <PUBCHEM_ATOM_DEF_STEREO_COUNT>
4
> <PUBCHEM_ATOM_UDEF_STEREO_COUNT>
3
> <PUBCHEM_BOND_DEF_STEREO_COUNT>
0
> <PUBCHEM_BOND_UDEF_STEREO_COUNT>
0
> <PUBCHEM_ISOTOPIC_ATOM_COUNT>
0
> <PUBCHEM_COMPONENT_COUNT>
1
> <PUBCHEM_CACTVS_TAUTO_COUNT>
-1
> <PUBCHEM_COORDINATE_TYPE>
1
5
255
> <PUBCHEM_BONDANNOTATIONS>
26  10  5
11  33  8
11  35  8
32  12  5
13  33  8
13  37  8
16  19  3
18  19  3
21  25  6
30  29  6
35  36  8
36  37  8
20  4  3
40  42  8
40  43  8
41  44  8
41  45  8
42  46  8
43  47  8
44  48  8
45  49  8
46  50  8
47  50  8
48  51  8
49  51  8
53  54  8
53  55  8
54  56  8
55  57  8
56  58  8
57  58  8
$$$$
