504197
  -OEChem-10302200282D
105106  0     1  0  0  0  0  0999 V2000
    9.4651    3.2500    0.0000 O   0  0  0  0  0  0  0  0  0  0  0  0
   12.0632    0.7500    0.0000 O   0  0  0  0  0  0  0  0  0  0  0  0
   11.1972   -2.7500    0.0000 O   0  0  0  0  0  0  0  0  0  0  0  0
    6.8671    0.7500    0.0000 O   0  0  0  0  0  0  0  0  0  0  0  0
    6.0010    3.2500    0.0000 O   0  0  0  0  0  0  0  0  0  0  0  0
   14.6613   -3.7500    0.0000 O   0  0  0  0  0  0  0  0  0  0  0  0
    2.5369    2.2500    0.0000 O   0  0  0  0  0  0  0  0  0  0  0  0
    3.4030    0.7500    0.0000 O   0  0  0  0  0  0  0  0  0  0  0  0
    3.4030    4.7500    0.0000 O   0  0  0  0  0  0  0  0  0  0  0  0
    2.5369    3.2500    0.0000 O   0  0  0  0  0  0  0  0  0  0  0  0
   10.3312    0.7500    0.0000 N   0  0  0  0  0  0  0  0  0  0  0  0
    8.5991    1.7500    0.0000 N   0  0  0  0  0  0  0  0  0  0  0  0
   12.0632   -1.2500    0.0000 N   0  0  0  0  0  0  0  0  0  0  0  0
   13.7953   -2.2500    0.0000 N   0  0  0  0  0  0  0  0  0  0  0  0
    5.1350    1.7500    0.0000 N   0  0  0  0  0  0  0  0  0  0  0  0
   16.3933   -2.7500    0.0000 N   0  0  0  0  0  0  0  0  0  0  0  0
   16.3933   -0.7500    0.0000 N   0  0  0  0  0  0  0  0  0  0  0  0
   11.1972    3.2500    0.0000 C   0  0  0  0  0  0  0  0  0  0  0  0
   10.3312    3.7500    0.0000 C   0  0  0  0  0  0  0  0  0  0  0  0
   12.0632    3.7500    0.0000 C   0  0  0  0  0  0  0  0  0  0  0  0
   11.1972    2.2500    0.0000 C   0  0  0  0  0  0  0  0  0  0  0  0
   10.3312    4.7500    0.0000 C   0  0  0  0  0  0  0  0  0  0  0  0
   12.0632    4.7500    0.0000 C   0  0  0  0  0  0  0  0  0  0  0  0
   11.1972    5.2500    0.0000 C   0  0  0  0  0  0  0  0  0  0  0  0
   10.3312    1.7500    0.0000 C   0  0  1  0  0  0  0  0  0  0  0  0
    9.4651    2.2500    0.0000 C   0  0  0  0  0  0  0  0  0  0  0  0
   11.1972   -0.7500    0.0000 C   0  0  2  0  0  0  0  0  0  0  0  0
   11.1972    0.2500    0.0000 C   0  0  0  0  0  0  0  0  0  0  0  0
   10.3312   -1.2500    0.0000 C   0  0  2  0  0  0  0  0  0  0  0  0
    9.4651   -0.7500    0.0000 C   0  0  0  0  0  0  0  0  0  0  0  0
    7.7331    2.2500    0.0000 C   0  0  1  0  0  0  0  0  0  0  0  0
   10.3312   -2.2500    0.0000 C   0  0  0  0  0  0  0  0  0  0  0  0
   12.9292   -2.7500    0.0000 C   0  0  2  0  0  0  0  0  0  0  0  0
   12.0632   -2.2500    0.0000 C   0  0  0  0  0  0  0  0  0  0  0  0
    7.7331    3.2500    0.0000 C   0  0  0  0  0  0  0  0  0  0  0  0
   12.9292   -3.7500    0.0000 C   0  0  0  0  0  0  0  0  0  0  0  0
    8.5991   -1.2500    0.0000 C   0  0  0  0  0  0  0  0  0  0  0  0
    6.8671    1.7500    0.0000 C   0  0  0  0  0  0  0  0  0  0  0  0
   12.0632   -4.2500    0.0000 C   0  0  0  0  0  0  0  0  0  0  0  0
    6.8671    3.7500    0.0000 C   0  0  0  0  0  0  0  0  0  0  0  0
   12.0632   -5.2500    0.0000 C   0  0  0  0  0  0  0  0  0  0  0  0
   11.1972   -3.7500    0.0000 C   0  0  0  0  0  0  0  0  0  0  0  0
    6.0010    2.2500    0.0000 C   0  0  0  0  0  0  0  0  0  0  0  0
   14.6613   -2.7500    0.0000 C   0  0  0  0  0  0  0  0  0  0  0  0
    4.2690    2.2500    0.0000 C   0  0  1  0  0  0  0  0  0  0  0  0
   15.5273   -2.2500    0.0000 C   0  0  0  0  0  0  0  0  0  0  0  0
    4.2690    3.2500    0.0000 C   0  0  0  0  0  0  0  0  0  0  0  0
    3.4030    1.7500    0.0000 C   0  0  0  0  0  0  0  0  0  0  0  0
   15.5273   -1.2500    0.0000 C   0  0  0  0  0  0  0  0  0  0  0  0
    3.4030    3.7500    0.0000 C   0  0  0  0  0  0  0  0  0  0  0  0
   17.2594   -2.2500    0.0000 C   0  0  0  0  0  0  0  0  0  0  0  0
   17.2594   -1.2500    0.0000 C   0  0  0  0  0  0  0  0  0  0  0  0
   10.6603    2.9400    0.0000 H   0  0  0  0  0  0  0  0  0  0  0  0
    9.7206    3.8577    0.0000 H   0  0  0  0  0  0  0  0  0  0  0  0
   10.1191    3.1674    0.0000 H   0  0  0  0  0  0  0  0  0  0  0  0
   12.2753    3.1674    0.0000 H   0  0  0  0  0  0  0  0  0  0  0  0
   12.6738    3.8577    0.0000 H   0  0  0  0  0  0  0  0  0  0  0  0
   11.4092    1.6674    0.0000 H   0  0  0  0  0  0  0  0  0  0  0  0
   11.8078    2.3577    0.0000 H   0  0  0  0  0  0  0  0  0  0  0  0
   10.1191    5.3326    0.0000 H   0  0  0  0  0  0  0  0  0  0  0  0
    9.7206    4.6423    0.0000 H   0  0  0  0  0  0  0  0  0  0  0  0
   12.6738    4.6423    0.0000 H   0  0  0  0  0  0  0  0  0  0  0  0
   12.2753    5.3326    0.0000 H   0  0  0  0  0  0  0  0  0  0  0  0
   11.5957    5.7250    0.0000 H   0  0  0  0  0  0  0  0  0  0  0  0
   10.7987    5.7250    0.0000 H   0  0  0  0  0  0  0  0  0  0  0  0
   10.8681    1.4400    0.0000 H   0  0  0  0  0  0  0  0  0  0  0  0
    9.7942    0.4400    0.0000 H   0  0  0  0  0  0  0  0  0  0  0  0
   11.7341   -0.4400    0.0000 H   0  0  0  0  0  0  0  0  0  0  0  0
   10.8681   -1.5600    0.0000 H   0  0  0  0  0  0  0  0  0  0  0  0
    8.5991    1.1300    0.0000 H   0  0  0  0  0  0  0  0  0  0  0  0
    9.8637   -0.2751    0.0000 H   0  0  0  0  0  0  0  0  0  0  0  0
    9.0666   -0.2751    0.0000 H   0  0  0  0  0  0  0  0  0  0  0  0
    7.7331    1.6300    0.0000 H   0  0  0  0  0  0  0  0  0  0  0  0
   12.6002   -0.9400    0.0000 H   0  0  0  0  0  0  0  0  0  0  0  0
    9.7112   -2.2500    0.0000 H   0  0  0  0  0  0  0  0  0  0  0  0
   10.3312   -2.8700    0.0000 H   0  0  0  0  0  0  0  0  0  0  0  0
   10.9512   -2.2500    0.0000 H   0  0  0  0  0  0  0  0  0  0  0  0
   12.9292   -2.1300    0.0000 H   0  0  0  0  0  0  0  0  0  0  0  0
    8.3437    3.1423    0.0000 H   0  0  0  0  0  0  0  0  0  0  0  0
    7.9451    3.8326    0.0000 H   0  0  0  0  0  0  0  0  0  0  0  0
   13.1413   -4.3326    0.0000 H   0  0  0  0  0  0  0  0  0  0  0  0
   13.5398   -3.6423    0.0000 H   0  0  0  0  0  0  0  0  0  0  0  0
    8.2891   -0.7131    0.0000 H   0  0  0  0  0  0  0  0  0  0  0  0
    8.0622   -1.5600    0.0000 H   0  0  0  0  0  0  0  0  0  0  0  0
    8.9091   -1.7869    0.0000 H   0  0  0  0  0  0  0  0  0  0  0  0
   12.6002   -4.5600    0.0000 H   0  0  0  0  0  0  0  0  0  0  0  0
    7.1771    4.2869    0.0000 H   0  0  0  0  0  0  0  0  0  0  0  0
    6.3301    4.0600    0.0000 H   0  0  0  0  0  0  0  0  0  0  0  0
    6.5571    3.2131    0.0000 H   0  0  0  0  0  0  0  0  0  0  0  0
   13.7953   -1.6300    0.0000 H   0  0  0  0  0  0  0  0  0  0  0  0
   11.4432   -5.2500    0.0000 H   0  0  0  0  0  0  0  0  0  0  0  0
   12.0632   -5.8700    0.0000 H   0  0  0  0  0  0  0  0  0  0  0  0
   12.6832   -5.2500    0.0000 H   0  0  0  0  0  0  0  0  0  0  0  0
   11.5072   -3.2131    0.0000 H   0  0  0  0  0  0  0  0  0  0  0  0
   10.6603   -3.4400    0.0000 H   0  0  0  0  0  0  0  0  0  0  0  0
   10.8872   -4.2869    0.0000 H   0  0  0  0  0  0  0  0  0  0  0  0
    5.1350    1.1300    0.0000 H   0  0  0  0  0  0  0  0  0  0  0  0
    4.2690    1.6300    0.0000 H   0  0  0  0  0  0  0  0  0  0  0  0
    4.8796    3.1423    0.0000 H   0  0  0  0  0  0  0  0  0  0  0  0
    4.4810    3.8326    0.0000 H   0  0  0  0  0  0  0  0  0  0  0  0
   14.9904   -0.9400    0.0000 H   0  0  0  0  0  0  0  0  0  0  0  0
   17.7963   -2.5600    0.0000 H   0  0  0  0  0  0  0  0  0  0  0  0
   17.7963   -0.9400    0.0000 H   0  0  0  0  0  0  0  0  0  0  0  0
    2.0000    1.9400    0.0000 H   0  0  0  0  0  0  0  0  0  0  0  0
    2.8660    5.0600    0.0000 H   0  0  0  0  0  0  0  0  0  0  0  0
  1 26  2  0  0  0  0
  2 28  2  0  0  0  0
  3 34  2  0  0  0  0
  4 38  2  0  0  0  0
  5 43  2  0  0  0  0
  6 44  2  0  0  0  0
  7 48  1  0  0  0  0
  7104  1  0  0  0  0
  8 48  2  0  0  0  0
  9 50  1  0  0  0  0
  9105  1  0  0  0  0
 10 50  2  0  0  0  0
 25 11  1  6  0  0  0
 11 28  1  0  0  0  0
 11 67  1  0  0  0  0
 12 26  1  0  0  0  0
 31 12  1  6  0  0  0
 12 70  1  0  0  0  0
 27 13  1  1  0  0  0
 13 34  1  0  0  0  0
 13 74  1  0  0  0  0
 33 14  1  1  0  0  0
 14 44  1  0  0  0  0
 14 90  1  0  0  0  0
 15 43  1  0  0  0  0
 45 15  1  6  0  0  0
 15 97  1  0  0  0  0
 16 46  2  0  0  0  0
 16 51  1  0  0  0  0
 17 49  2  0  0  0  0
 17 52  1  0  0  0  0
 18 19  1  0  0  0  0
 18 20  1  0  0  0  0
 18 21  1  0  0  0  0
 18 53  1  0  0  0  0
 19 22  1  0  0  0  0
 19 54  1  0  0  0  0
 19 55  1  0  0  0  0
 20 23  1  0  0  0  0
 20 56  1  0  0  0  0
 20 57  1  0  0  0  0
 21 25  1  0  0  0  0
 21 58  1  0  0  0  0
 21 59  1  0  0  0  0
 22 24  1  0  0  0  0
 22 60  1  0  0  0  0
 22 61  1  0  0  0  0
 23 24  1  0  0  0  0
 23 62  1  0  0  0  0
 23 63  1  0  0  0  0
 24 64  1  0  0  0  0
 24 65  1  0  0  0  0
 25 26  1  0  0  0  0
 25 66  1  0  0  0  0
 27 28  1  0  0  0  0
 27 29  1  0  0  0  0
 27 68  1  0  0  0  0
 29 30  1  0  0  0  0
 29 32  1  1  0  0  0
 29 69  1  0  0  0  0
 30 37  1  0  0  0  0
 30 71  1  0  0  0  0
 30 72  1  0  0  0  0
 31 35  1  0  0  0  0
 31 38  1  0  0  0  0
 31 73  1  0  0  0  0
 32 75  1  0  0  0  0
 32 76  1  0  0  0  0
 32 77  1  0  0  0  0
 33 34  1  0  0  0  0
 33 36  1  0  0  0  0
 33 78  1  0  0  0  0
 35 40  1  0  0  0  0
 35 79  1  0  0  0  0
 35 80  1  0  0  0  0
 36 39  1  0  0  0  0
 36 81  1  0  0  0  0
 36 82  1  0  0  0  0
 37 83  1  0  0  0  0
 37 84  1  0  0  0  0
 37 85  1  0  0  0  0
 38 43  1  0  0  0  0
 39 41  1  0  0  0  0
 39 42  1  0  0  0  0
 39 86  1  0  0  0  0
 40 87  1  0  0  0  0
 40 88  1  0  0  0  0
 40 89  1  0  0  0  0
 41 91  1  0  0  0  0
 41 92  1  0  0  0  0
 41 93  1  0  0  0  0
 42 94  1  0  0  0  0
 42 95  1  0  0  0  0
 42 96  1  0  0  0  0
 44 46  1  0  0  0  0
 45 47  1  0  0  0  0
 45 48  1  0  0  0  0
 45 98  1  0  0  0  0
 46 49  1  0  0  0  0
 47 50  1  0  0  0  0
 47 99  1  0  0  0  0
 47100  1  0  0  0  0
 49101  1  0  0  0  0
 51 52  2  0  0  0  0
 51102  1  0  0  0  0
 52103  1  0  0  0  0
M  END
> <PUBCHEM_COMPOUND_CID>
504197
> <PUBCHEM_COMPOUND_CANONICALIZED>
1
> <PUBCHEM_CACTVS_COMPLEXITY>
1270
> <PUBCHEM_CACTVS_HBOND_ACCEPTOR>
12
> <PUBCHEM_CACTVS_HBOND_DONOR>
7
> <PUBCHEM_CACTVS_ROTATABLE_BOND>
21
> <PUBCHEM_CACTVS_SUBSKEYS>
AAADcfB/vAAAAAAAAAAAAAAAAAAAAAAAAAA8QAAAAAAAAAABgAAAHgAQCAAADSzBlgQuiBLIEgCoAZX3XACAgCQXEiAIUIG4dEACQFpAwCAUQIgGFgDQAMFbiICOAAAAAAAAAAAAAAAAAAAAAAAAAAAAAA==
> <PUBCHEM_IUPAC_OPENEYE_NAME>
(2S)-2-[[(3S)-3-[[(2S)-3-cyclohexyl-2-[[(2S,3S)-3-methyl-2-[[(2S)-4-methyl-2-(pyrazine-2-carbonylamino)pentanoyl]amino]pentanoyl]amino]propanoyl]amino]-2-oxo-pentanoyl]amino]butanedioic acid
> <PUBCHEM_IUPAC_CAS_NAME>
(2S)-2-[[(3S)-3-[[(2S)-3-cyclohexyl-2-[[(2S,3S)-3-methyl-2-[[(2S)-4-methyl-1-oxo-2-[[oxo(2-pyrazinyl)methyl]amino]pentyl]amino]-1-oxopentyl]amino]-1-oxopropyl]amino]-1,2-dioxopentyl]amino]butanedioic acid
> <PUBCHEM_IUPAC_NAME_MARKUP>
(2<I>S</I>)-2-[[(3<I>S</I>)-3-[[(2<I>S</I>)-3-cyclohexyl-2-[[(2<I>S</I>,3<I>S</I>)-3-methyl-2-[[(2<I>S</I>)-4-methyl-2-(pyrazine-2-carbonylamino)pentanoyl]amino]pentanoyl]amino]propanoyl]amino]-2-oxopentanoyl]amino]butanedioic acid
> <PUBCHEM_IUPAC_NAME>
(2S)-2-[[(3S)-3-[[(2S)-3-cyclohexyl-2-[[(2S,3S)-3-methyl-2-[[(2S)-4-methyl-2-(pyrazine-2-carbonylamino)pentanoyl]amino]pentanoyl]amino]propanoyl]amino]-2-oxopentanoyl]amino]butanedioic acid
> <PUBCHEM_IUPAC_SYSTEMATIC_NAME>
(2S)-2-[[(3S)-3-[[(2S)-3-cyclohexyl-2-[[(2S,3S)-3-methyl-2-[[(2S)-4-methyl-2-(pyrazin-2-ylcarbonylamino)pentanoyl]amino]pentanoyl]amino]propanoyl]amino]-2-oxidanylidene-pentanoyl]amino]butanedioic acid
> <PUBCHEM_IUPAC_TRADITIONAL_NAME>
(2S)-2-[[(3S)-3-[[(2S)-3-cyclohexyl-2-[[(2S,3S)-3-methyl-2-[[(2S)-4-methyl-2-(pyrazinoylamino)pentanoyl]amino]pentanoyl]amino]propanoyl]amino]-2-keto-pentanoyl]amino]succinic acid
> <PUBCHEM_IUPAC_INCHI>
InChI=1S/C35H53N7O10/c1-6-20(5)28(42-31(47)23(15-19(3)4)39-32(48)26-18-36-13-14-37-26)33(49)40-24(16-21-11-9-8-10-12-21)30(46)38-22(7-2)29(45)34(50)41-25(35(51)52)17-27(43)44/h13-14,18-25,28H,6-12,15-17H2,1-5H3,(H,38,46)(H,39,48)(H,40,49)(H,41,50)(H,42,47)(H,43,44)(H,51,52)/t20-,22-,23-,24-,25-,28-/m0/s1
> <PUBCHEM_IUPAC_INCHIKEY>
DDPGEJCVECKYJW-YWSWAUPDSA-N
> <PUBCHEM_XLOGP3_AA>
3.3
> <PUBCHEM_EXACT_MASS>
731.38539091
> <PUBCHEM_MOLECULAR_FORMULA>
C35H53N7O10
> <PUBCHEM_MOLECULAR_WEIGHT>
731.8
> <PUBCHEM_OPENEYE_CAN_SMILES>
CCC(C)C(C(=O)NC(CC1CCCCC1)C(=O)NC(CC)C(=O)C(=O)NC(CC(=O)O)C(=O)O)NC(=O)C(CC(C)C)NC(=O)C2=NC=CN=C2
> <PUBCHEM_OPENEYE_ISO_SMILES>
CC[C@H](C)[C@@H](C(=O)N[C@@H](CC1CCCCC1)C(=O)N[C@@H](CC)C(=O)C(=O)N[C@@H](CC(=O)O)C(=O)O)NC(=O)[C@H](CC(C)C)NC(=O)C2=NC=CN=C2
> <PUBCHEM_CACTVS_TPSA>
263
> <PUBCHEM_MONOISOTOPIC_WEIGHT>
731.38539091
> <PUBCHEM_TOTAL_CHARGE>
0
> <PUBCHEM_HEAVY_ATOM_COUNT>
52
> <PUBCHEM_ATOM_DEF_STEREO_COUNT>
6
> <PUBCHEM_ATOM_UDEF_STEREO_COUNT>
0
> <PUBCHEM_BOND_DEF_STEREO_COUNT>
0
> <PUBCHEM_BOND_UDEF_STEREO_COUNT>
0
> <PUBCHEM_ISOTOPIC_ATOM_COUNT>
0
> <PUBCHEM_COMPONENT_COUNT>
1
> <PUBCHEM_CACTVS_TAUTO_COUNT>
-1
> <PUBCHEM_COORDINATE_TYPE>
1
5
255
> <PUBCHEM_BONDANNOTATIONS>
25  11  6
31  12  6
27  13  5
33  14  5
45  15  6
16  46  8
16  51  8
17  49  8
17  52  8
29  32  5
46  49  8
51  52  8
$$$$
