504171
  -OEChem-10302200282D
 90 93  0     1  0  0  0  0  0999 V2000
    6.3981   -0.5070    0.0000 O   0  0  0  0  0  0  0  0  0  0  0  0
    9.9737    4.8496    0.0000 O   0  0  0  0  0  0  0  0  0  0  0  0
    9.7480    2.2135    0.0000 O   0  0  0  0  0  0  0  0  0  0  0  0
   10.1548    3.1271    0.0000 O   0  0  0  0  0  0  0  0  0  0  0  0
   10.4291    1.0339    0.0000 O   0  0  0  0  0  0  0  0  0  0  0  0
   12.6438   -1.8112    0.0000 O   0  0  0  0  0  0  0  0  0  0  0  0
   11.0615   -2.5157    0.0000 O   0  0  0  0  0  0  0  0  0  0  0  0
    2.8680   -3.5311    0.0000 O   0  0  0  0  0  0  0  0  0  0  0  0
    8.1657    2.9180    0.0000 N   0  0  0  0  0  0  0  0  0  0  0  0
   11.2426   -0.7932    0.0000 N   0  0  0  0  0  0  0  0  0  0  0  0
    6.3981   -3.5070    0.0000 N   0  0  0  0  0  0  0  0  0  0  0  0
    8.5725    3.8316    0.0000 C   0  0  3  0  0  0  0  0  0  0  0  0
    7.6589    4.2383    0.0000 C   0  0  1  0  0  0  0  0  0  0  0  0
    8.4679    4.8261    0.0000 C   0  0  0  0  0  0  0  0  0  0  0  0
    8.3468    1.1954    0.0000 C   0  0  1  0  0  0  0  0  0  0  0  0
    8.8468    0.3294    0.0000 C   0  0  3  0  0  0  0  0  0  0  0  0
    7.3686    0.9875    0.0000 C   0  0  0  0  0  0  0  0  0  0  0  0
    8.1776   -0.4137    0.0000 C   0  0  0  0  0  0  0  0  0  0  0  0
    7.2641   -0.0070    0.0000 C   0  0  2  0  0  0  0  0  0  0  0  0
    8.7535    2.1090    0.0000 C   0  0  0  0  0  0  0  0  0  0  0  0
    9.5670    3.9361    0.0000 C   0  0  0  0  0  0  0  0  0  0  0  0
    6.6644    4.1338    0.0000 C   0  0  0  0  0  0  0  0  0  0  0  0
    9.8413    0.2249    0.0000 C   0  0  0  0  0  0  0  0  0  0  0  0
   10.2480   -0.6886    0.0000 C   0  0  2  0  0  0  0  0  0  0  0  0
    6.0766    4.9428    0.0000 C   0  0  0  0  0  0  0  0  0  0  0  0
    9.6602   -1.4977    0.0000 C   0  0  0  0  0  0  0  0  0  0  0  0
    6.3981   -1.5070    0.0000 C   0  0  0  0  0  0  0  0  0  0  0  0
   10.0670   -2.4112    0.0000 C   0  0  0  0  0  0  0  0  0  0  0  0
    9.4792   -3.2202    0.0000 C   0  0  0  0  0  0  0  0  0  0  0  0
    5.5320   -2.0070    0.0000 C   0  0  0  0  0  0  0  0  0  0  0  0
    7.2641   -2.0070    0.0000 C   0  0  0  0  0  0  0  0  0  0  0  0
   11.6493   -1.7067    0.0000 C   0  0  0  0  0  0  0  0  0  0  0  0
    9.8859   -4.1338    0.0000 C   0  0  0  0  0  0  0  0  0  0  0  0
    5.5320   -3.0070    0.0000 C   0  0  0  0  0  0  0  0  0  0  0  0
    4.6381   -1.4723    0.0000 C   0  0  0  0  0  0  0  0  0  0  0  0
    7.2641   -3.0070    0.0000 C   0  0  0  0  0  0  0  0  0  0  0  0
   13.0505   -2.7248    0.0000 C   0  0  0  0  0  0  0  0  0  0  0  0
    9.2982   -4.9428    0.0000 C   0  0  0  0  0  0  0  0  0  0  0  0
    4.6381   -3.5416    0.0000 C   0  0  0  0  0  0  0  0  0  0  0  0
    3.7320   -1.9862    0.0000 C   0  0  0  0  0  0  0  0  0  0  0  0
    3.7320   -3.0278    0.0000 C   0  0  0  0  0  0  0  0  0  0  0  0
   13.4573   -3.6383    0.0000 C   0  0  0  0  0  0  0  0  0  0  0  0
   13.9641   -2.3181    0.0000 C   0  0  0  0  0  0  0  0  0  0  0  0
   12.1370   -3.1315    0.0000 C   0  0  0  0  0  0  0  0  0  0  0  0
    2.0000   -3.0345    0.0000 C   0  0  0  0  0  0  0  0  0  0  0  0
    7.5619    3.6259    0.0000 H   0  0  0  0  0  0  0  0  0  0  0  0
    9.0639    4.9970    0.0000 H   0  0  0  0  0  0  0  0  0  0  0  0
    8.1961    5.3833    0.0000 H   0  0  0  0  0  0  0  0  0  0  0  0
    8.9659    1.2279    0.0000 H   0  0  0  0  0  0  0  0  0  0  0  0
    9.0690   -0.2494    0.0000 H   0  0  0  0  0  0  0  0  0  0  0  0
    7.5491    2.8532    0.0000 H   0  0  0  0  0  0  0  0  0  0  0  0
    7.3038    1.6042    0.0000 H   0  0  0  0  0  0  0  0  0  0  0  0
    6.7486    0.9875    0.0000 H   0  0  0  0  0  0  0  0  0  0  0  0
    7.8676   -0.9507    0.0000 H   0  0  0  0  0  0  0  0  0  0  0  0
    8.6792   -0.7781    0.0000 H   0  0  0  0  0  0  0  0  0  0  0  0
    6.7441    0.3307    0.0000 H   0  0  0  0  0  0  0  0  0  0  0  0
    6.4122    3.5674    0.0000 H   0  0  0  0  0  0  0  0  0  0  0  0
   10.6125   -0.1871    0.0000 H   0  0  0  0  0  0  0  0  0  0  0  0
    6.3288    5.5092    0.0000 H   0  0  0  0  0  0  0  0  0  0  0  0
    5.4600    4.8780    0.0000 H   0  0  0  0  0  0  0  0  0  0  0  0
   10.5903    4.9144    0.0000 H   0  0  0  0  0  0  0  0  0  0  0  0
    9.2296   -1.0517    0.0000 H   0  0  0  0  0  0  0  0  0  0  0  0
    9.1462   -1.8444    0.0000 H   0  0  0  0  0  0  0  0  0  0  0  0
   11.6070   -0.2916    0.0000 H   0  0  0  0  0  0  0  0  0  0  0  0
   10.4977   -2.8572    0.0000 H   0  0  0  0  0  0  0  0  0  0  0  0
   10.5810   -2.0645    0.0000 H   0  0  0  0  0  0  0  0  0  0  0  0
    9.0485   -2.7742    0.0000 H   0  0  0  0  0  0  0  0  0  0  0  0
    8.9652   -3.5669    0.0000 H   0  0  0  0  0  0  0  0  0  0  0  0
    7.8010   -1.6970    0.0000 H   0  0  0  0  0  0  0  0  0  0  0  0
   10.3166   -4.5798    0.0000 H   0  0  0  0  0  0  0  0  0  0  0  0
   10.3999   -3.7871    0.0000 H   0  0  0  0  0  0  0  0  0  0  0  0
    4.6453   -0.8524    0.0000 H   0  0  0  0  0  0  0  0  0  0  0  0
    7.8010   -3.3170    0.0000 H   0  0  0  0  0  0  0  0  0  0  0  0
    8.7966   -4.5784    0.0000 H   0  0  0  0  0  0  0  0  0  0  0  0
    8.9337   -5.4444    0.0000 H   0  0  0  0  0  0  0  0  0  0  0  0
    9.7997   -5.3072    0.0000 H   0  0  0  0  0  0  0  0  0  0  0  0
    4.6453   -4.1616    0.0000 H   0  0  0  0  0  0  0  0  0  0  0  0
    3.1963   -1.6741    0.0000 H   0  0  0  0  0  0  0  0  0  0  0  0
   12.8909   -3.8905    0.0000 H   0  0  0  0  0  0  0  0  0  0  0  0
   13.7095   -4.2047    0.0000 H   0  0  0  0  0  0  0  0  0  0  0  0
   14.0237   -3.3862    0.0000 H   0  0  0  0  0  0  0  0  0  0  0  0
   14.2163   -2.8844    0.0000 H   0  0  0  0  0  0  0  0  0  0  0  0
   14.5305   -2.0659    0.0000 H   0  0  0  0  0  0  0  0  0  0  0  0
   13.7119   -1.7517    0.0000 H   0  0  0  0  0  0  0  0  0  0  0  0
   11.8848   -2.5651    0.0000 H   0  0  0  0  0  0  0  0  0  0  0  0
   11.5706   -3.3837    0.0000 H   0  0  0  0  0  0  0  0  0  0  0  0
   12.3892   -3.6979    0.0000 H   0  0  0  0  0  0  0  0  0  0  0  0
    2.3079   -2.4963    0.0000 H   0  0  0  0  0  0  0  0  0  0  0  0
    1.4619   -2.7265    0.0000 H   0  0  0  0  0  0  0  0  0  0  0  0
    1.6921   -3.5726    0.0000 H   0  0  0  0  0  0  0  0  0  0  0  0
 19  1  1  6  0  0  0
  1 27  1  0  0  0  0
  2 21  1  0  0  0  0
  2 61  1  0  0  0  0
  3 20  2  0  0  0  0
  4 21  2  0  0  0  0
  5 23  2  0  0  0  0
  6 32  1  0  0  0  0
  6 37  1  0  0  0  0
  7 32  2  0  0  0  0
  8 41  1  0  0  0  0
  8 45  1  0  0  0  0
  9 12  1  0  0  0  0
  9 20  1  0  0  0  0
  9 51  1  0  0  0  0
 24 10  1  1  0  0  0
 10 32  1  0  0  0  0
 10 64  1  0  0  0  0
 11 34  2  0  0  0  0
 11 36  1  0  0  0  0
 12 13  1  0  0  0  0
 12 14  1  0  0  0  0
 12 21  1  0  0  0  0
 13 14  1  0  0  0  0
 13 22  1  6  0  0  0
 13 46  1  0  0  0  0
 14 47  1  0  0  0  0
 14 48  1  0  0  0  0
 15 16  1  0  0  0  0
 15 17  1  0  0  0  0
 15 20  1  1  0  0  0
 15 49  1  0  0  0  0
 16 18  1  0  0  0  0
 16 23  1  0  0  0  0
 16 50  1  0  0  0  0
 17 19  1  0  0  0  0
 17 52  1  0  0  0  0
 17 53  1  0  0  0  0
 18 19  1  0  0  0  0
 18 54  1  0  0  0  0
 18 55  1  0  0  0  0
 19 56  1  0  0  0  0
 22 25  2  0  0  0  0
 22 57  1  0  0  0  0
 23 24  1  0  0  0  0
 24 26  1  0  0  0  0
 24 58  1  0  0  0  0
 25 59  1  0  0  0  0
 25 60  1  0  0  0  0
 26 28  1  0  0  0  0
 26 62  1  0  0  0  0
 26 63  1  0  0  0  0
 27 30  2  0  0  0  0
 27 31  1  0  0  0  0
 28 29  1  0  0  0  0
 28 65  1  0  0  0  0
 28 66  1  0  0  0  0
 29 33  1  0  0  0  0
 29 67  1  0  0  0  0
 29 68  1  0  0  0  0
 30 34  1  0  0  0  0
 30 35  1  0  0  0  0
 31 36  2  0  0  0  0
 31 69  1  0  0  0  0
 33 38  1  0  0  0  0
 33 70  1  0  0  0  0
 33 71  1  0  0  0  0
 34 39  1  0  0  0  0
 35 40  2  0  0  0  0
 35 72  1  0  0  0  0
 36 73  1  0  0  0  0
 37 42  1  0  0  0  0
 37 43  1  0  0  0  0
 37 44  1  0  0  0  0
 38 74  1  0  0  0  0
 38 75  1  0  0  0  0
 38 76  1  0  0  0  0
 39 41  2  0  0  0  0
 39 77  1  0  0  0  0
 40 41  1  0  0  0  0
 40 78  1  0  0  0  0
 42 79  1  0  0  0  0
 42 80  1  0  0  0  0
 42 81  1  0  0  0  0
 43 82  1  0  0  0  0
 43 83  1  0  0  0  0
 43 84  1  0  0  0  0
 44 85  1  0  0  0  0
 44 86  1  0  0  0  0
 44 87  1  0  0  0  0
 45 88  1  0  0  0  0
 45 89  1  0  0  0  0
 45 90  1  0  0  0  0
M  END
> <PUBCHEM_COMPOUND_CID>
504171
> <PUBCHEM_COMPOUND_CANONICALIZED>
1
> <PUBCHEM_CACTVS_COMPLEXITY>
1090
> <PUBCHEM_CACTVS_HBOND_ACCEPTOR>
9
> <PUBCHEM_CACTVS_HBOND_DONOR>
3
> <PUBCHEM_CACTVS_ROTATABLE_BOND>
16
> <PUBCHEM_CACTVS_SUBSKEYS>
AAADcfB/PAAAAAAAAAAAAAAAGAAAAYAAAAA8QAAAAAAAAACx8AAAHgAQCAAADfzhngY+zvLIFgCoA7X3XACCiCAxIiAI2KG+bJkOJvLEsbuOeCjm1hnY6Ae//e/eoAAAAgACAABAAAAEAAQAAIAACAAAAA==
> <PUBCHEM_IUPAC_OPENEYE_NAME>
(2S)-1-[[(1R,4S)-2-[(2S)-2-(tert-butoxycarbonylamino)heptanoyl]-4-[(7-methoxy-4-quinolyl)oxy]cyclopentanecarbonyl]amino]-2-vinyl-cyclopropanecarboxylic acid
> <PUBCHEM_IUPAC_CAS_NAME>
(2S)-2-ethenyl-1-[[[(1R,4S)-4-[(7-methoxy-4-quinolinyl)oxy]-2-[(2S)-2-[[(2-methylpropan-2-yl)oxy-oxomethyl]amino]-1-oxoheptyl]cyclopentyl]-oxomethyl]amino]-1-cyclopropanecarboxylic acid
> <PUBCHEM_IUPAC_NAME_MARKUP>
(2<I>S</I>)-2-ethenyl-1-[[(1<I>R</I>,4<I>S</I>)-4-(7-methoxyquinolin-4-yl)oxy-2-[(2<I>S</I>)-2-[(2-methylpropan-2-yl)oxycarbonylamino]heptanoyl]cyclopentanecarbonyl]amino]cyclopropane-1-carboxylic acid
> <PUBCHEM_IUPAC_NAME>
(2S)-2-ethenyl-1-[[(1R,4S)-4-(7-methoxyquinolin-4-yl)oxy-2-[(2S)-2-[(2-methylpropan-2-yl)oxycarbonylamino]heptanoyl]cyclopentanecarbonyl]amino]cyclopropane-1-carboxylic acid
> <PUBCHEM_IUPAC_SYSTEMATIC_NAME>
(2S)-2-ethenyl-1-[[(1R,4S)-4-(7-methoxyquinolin-4-yl)oxy-2-[(2S)-2-[(2-methylpropan-2-yl)oxycarbonylamino]heptanoyl]cyclopentyl]carbonylamino]cyclopropane-1-carboxylic acid
> <PUBCHEM_IUPAC_TRADITIONAL_NAME>
(2S)-1-[[(1R,4S)-2-[(2S)-2-(tert-butoxycarbonylamino)heptanoyl]-4-[(7-methoxy-4-quinolyl)oxy]cyclopentanecarbonyl]amino]-2-vinyl-cyclopropanecarboxylic acid
> <PUBCHEM_IUPAC_INCHI>
InChI=1S/C34H45N3O8/c1-7-9-10-11-26(36-32(42)45-33(3,4)5)29(38)24-16-22(17-25(24)30(39)37-34(31(40)41)19-20(34)8-2)44-28-14-15-35-27-18-21(43-6)12-13-23(27)28/h8,12-15,18,20,22,24-26H,2,7,9-11,16-17,19H2,1,3-6H3,(H,36,42)(H,37,39)(H,40,41)/t20-,22+,24?,25-,26+,34?/m1/s1
> <PUBCHEM_IUPAC_INCHIKEY>
WEZAFHCDQMTORS-KHIRJVDJSA-N
> <PUBCHEM_XLOGP3_AA>
5.2
> <PUBCHEM_EXACT_MASS>
623.32066540
> <PUBCHEM_MOLECULAR_FORMULA>
C34H45N3O8
> <PUBCHEM_MOLECULAR_WEIGHT>
623.7
> <PUBCHEM_OPENEYE_CAN_SMILES>
CCCCCC(C(=O)C1CC(CC1C(=O)NC2(CC2C=C)C(=O)O)OC3=C4C=CC(=CC4=NC=C3)OC)NC(=O)OC(C)(C)C
> <PUBCHEM_OPENEYE_ISO_SMILES>
CCCCC[C@@H](C(=O)C1C[C@@H](C[C@H]1C(=O)NC2(C[C@H]2C=C)C(=O)O)OC3=C4C=CC(=CC4=NC=C3)OC)NC(=O)OC(C)(C)C
> <PUBCHEM_CACTVS_TPSA>
153
> <PUBCHEM_MONOISOTOPIC_WEIGHT>
623.32066540
> <PUBCHEM_TOTAL_CHARGE>
0
> <PUBCHEM_HEAVY_ATOM_COUNT>
45
> <PUBCHEM_ATOM_DEF_STEREO_COUNT>
4
> <PUBCHEM_ATOM_UDEF_STEREO_COUNT>
2
> <PUBCHEM_BOND_DEF_STEREO_COUNT>
0
> <PUBCHEM_BOND_UDEF_STEREO_COUNT>
0
> <PUBCHEM_ISOTOPIC_ATOM_COUNT>
0
> <PUBCHEM_COMPONENT_COUNT>
1
> <PUBCHEM_CACTVS_TAUTO_COUNT>
-1
> <PUBCHEM_COORDINATE_TYPE>
1
5
255
> <PUBCHEM_BONDANNOTATIONS>
19  1  6
24  10  5
11  34  8
11  36  8
12  21  3
13  22  6
15  20  5
16  23  3
27  30  8
27  31  8
30  34  8
30  35  8
31  36  8
34  39  8
35  40  8
39  41  8
40  41  8
$$$$
