504144
  -OEChem-10302200282D
 61 63  0     1  0  0  0  0  0999 V2000
    6.3301   -1.0761    0.0000 S   0  0  0  0  0  0  0  0  0  0  0  0
    5.4641   -2.5761    0.0000 S   0  0  0  0  0  0  0  0  0  0  0  0
    9.8418    0.0172    0.0000 S   0  0  0  0  0  0  0  0  0  0  0  0
    8.9282   -1.5761    0.0000 O   0  0  0  0  0  0  0  0  0  0  0  0
   11.8189    3.5580    0.0000 O   0  0  0  0  0  0  0  0  0  0  0  0
   11.9999    1.8354    0.0000 O   0  0  0  0  0  0  0  0  0  0  0  0
    4.5981   -1.0761    0.0000 N   0  0  0  0  0  0  0  0  0  0  0  0
    8.0622   -0.0761    0.0000 N   0  0  0  0  0  0  0  0  0  0  0  0
    9.0327    1.4185    0.0000 N   0  0  0  0  0  0  0  0  0  0  0  0
    4.5981   -0.0761    0.0000 C   0  0  0  0  0  0  0  0  0  0  0  0
    7.1962   -1.5761    0.0000 C   0  0  3  0  0  0  0  0  0  0  0  0
    3.7320   -1.5761    0.0000 C   0  0  0  0  0  0  0  0  0  0  0  0
    3.7320    0.4239    0.0000 C   0  0  0  0  0  0  0  0  0  0  0  0
    7.1962   -2.5761    0.0000 C   0  0  0  0  0  0  0  0  0  0  0  0
    5.4641   -1.5761    0.0000 C   0  0  0  0  0  0  0  0  0  0  0  0
    8.0622   -1.0761    0.0000 C   0  0  0  0  0  0  0  0  0  0  0  0
    3.7320   -2.5761    0.0000 C   0  0  0  0  0  0  0  0  0  0  0  0
    3.7320    1.4239    0.0000 C   0  0  0  0  0  0  0  0  0  0  0  0
    2.8660   -0.0761    0.0000 C   0  0  0  0  0  0  0  0  0  0  0  0
    8.0622   -3.0761    0.0000 C   0  0  0  0  0  0  0  0  0  0  0  0
    6.3301   -3.0761    0.0000 C   0  0  0  0  0  0  0  0  0  0  0  0
    2.8660    1.9239    0.0000 C   0  0  0  0  0  0  0  0  0  0  0  0
    2.0000    0.4239    0.0000 C   0  0  0  0  0  0  0  0  0  0  0  0
    8.0622   -4.0761    0.0000 C   0  0  0  0  0  0  0  0  0  0  0  0
    6.3301   -4.0761    0.0000 C   0  0  0  0  0  0  0  0  0  0  0  0
    8.9282    0.4239    0.0000 C   0  0  0  0  0  0  0  0  0  0  0  0
    2.0000    1.4239    0.0000 C   0  0  0  0  0  0  0  0  0  0  0  0
    7.1962   -4.5761    0.0000 C   0  0  0  0  0  0  0  0  0  0  0  0
   10.0109    1.6264    0.0000 C   0  0  0  0  0  0  0  0  0  0  0  0
   10.4176    2.5399    0.0000 C   0  0  0  0  0  0  0  0  0  0  0  0
   10.5109    0.7603    0.0000 C   0  0  0  0  0  0  0  0  0  0  0  0
   11.4121    2.6444    0.0000 C   0  0  0  0  0  0  0  0  0  0  0  0
   12.8134    3.6625    0.0000 C   0  0  0  0  0  0  0  0  0  0  0  0
   13.2201    4.5761    0.0000 C   0  0  0  0  0  0  0  0  0  0  0  0
    5.2087   -0.1837    0.0000 H   0  0  0  0  0  0  0  0  0  0  0  0
    4.8101    0.5065    0.0000 H   0  0  0  0  0  0  0  0  0  0  0  0
    7.1962   -0.9561    0.0000 H   0  0  0  0  0  0  0  0  0  0  0  0
    3.5200   -0.9935    0.0000 H   0  0  0  0  0  0  0  0  0  0  0  0
    3.1215   -1.6837    0.0000 H   0  0  0  0  0  0  0  0  0  0  0  0
    3.1120   -2.5761    0.0000 H   0  0  0  0  0  0  0  0  0  0  0  0
    3.7320   -3.1961    0.0000 H   0  0  0  0  0  0  0  0  0  0  0  0
    4.3520   -2.5761    0.0000 H   0  0  0  0  0  0  0  0  0  0  0  0
    4.2690    1.7339    0.0000 H   0  0  0  0  0  0  0  0  0  0  0  0
    2.8660   -0.6961    0.0000 H   0  0  0  0  0  0  0  0  0  0  0  0
    8.5991   -2.7661    0.0000 H   0  0  0  0  0  0  0  0  0  0  0  0
    5.7932   -2.7661    0.0000 H   0  0  0  0  0  0  0  0  0  0  0  0
    7.5252    0.2339    0.0000 H   0  0  0  0  0  0  0  0  0  0  0  0
    2.8660    2.5439    0.0000 H   0  0  0  0  0  0  0  0  0  0  0  0
    1.4631    0.1139    0.0000 H   0  0  0  0  0  0  0  0  0  0  0  0
    8.5991   -4.3861    0.0000 H   0  0  0  0  0  0  0  0  0  0  0  0
    5.7932   -4.3861    0.0000 H   0  0  0  0  0  0  0  0  0  0  0  0
    1.4631    1.7339    0.0000 H   0  0  0  0  0  0  0  0  0  0  0  0
    7.1962   -5.1961    0.0000 H   0  0  0  0  0  0  0  0  0  0  0  0
   10.4609    3.1584    0.0000 H   0  0  0  0  0  0  0  0  0  0  0  0
    9.8160    2.6899    0.0000 H   0  0  0  0  0  0  0  0  0  0  0  0
   11.1275    0.6955    0.0000 H   0  0  0  0  0  0  0  0  0  0  0  0
   12.7701    3.0440    0.0000 H   0  0  0  0  0  0  0  0  0  0  0  0
   13.4150    3.5125    0.0000 H   0  0  0  0  0  0  0  0  0  0  0  0
   13.7865    4.3239    0.0000 H   0  0  0  0  0  0  0  0  0  0  0  0
   13.4723    5.1425    0.0000 H   0  0  0  0  0  0  0  0  0  0  0  0
   12.6537    4.8282    0.0000 H   0  0  0  0  0  0  0  0  0  0  0  0
  1 11  1  0  0  0  0
  1 15  1  0  0  0  0
  2 15  2  0  0  0  0
  3 26  1  0  0  0  0
  3 31  1  0  0  0  0
  4 16  2  0  0  0  0
  5 32  1  0  0  0  0
  5 33  1  0  0  0  0
  6 32  2  0  0  0  0
  7 10  1  0  0  0  0
  7 12  1  0  0  0  0
  7 15  1  0  0  0  0
  8 16  1  0  0  0  0
  8 26  1  0  0  0  0
  8 47  1  0  0  0  0
  9 26  2  0  0  0  0
  9 29  1  0  0  0  0
 10 13  1  0  0  0  0
 10 35  1  0  0  0  0
 10 36  1  0  0  0  0
 11 14  1  0  0  0  0
 11 16  1  0  0  0  0
 11 37  1  0  0  0  0
 12 17  1  0  0  0  0
 12 38  1  0  0  0  0
 12 39  1  0  0  0  0
 13 18  2  0  0  0  0
 13 19  1  0  0  0  0
 14 20  2  0  0  0  0
 14 21  1  0  0  0  0
 17 40  1  0  0  0  0
 17 41  1  0  0  0  0
 17 42  1  0  0  0  0
 18 22  1  0  0  0  0
 18 43  1  0  0  0  0
 19 23  2  0  0  0  0
 19 44  1  0  0  0  0
 20 24  1  0  0  0  0
 20 45  1  0  0  0  0
 21 25  2  0  0  0  0
 21 46  1  0  0  0  0
 22 27  2  0  0  0  0
 22 48  1  0  0  0  0
 23 27  1  0  0  0  0
 23 49  1  0  0  0  0
 24 28  2  0  0  0  0
 24 50  1  0  0  0  0
 25 28  1  0  0  0  0
 25 51  1  0  0  0  0
 27 52  1  0  0  0  0
 28 53  1  0  0  0  0
 29 30  1  0  0  0  0
 29 31  2  0  0  0  0
 30 32  1  0  0  0  0
 30 54  1  0  0  0  0
 30 55  1  0  0  0  0
 31 56  1  0  0  0  0
 33 34  1  0  0  0  0
 33 57  1  0  0  0  0
 33 58  1  0  0  0  0
 34 59  1  0  0  0  0
 34 60  1  0  0  0  0
 34 61  1  0  0  0  0
M  END
> <PUBCHEM_COMPOUND_CID>
504144
> <PUBCHEM_COMPOUND_CANONICALIZED>
1
> <PUBCHEM_CACTVS_COMPLEXITY>
669
> <PUBCHEM_CACTVS_HBOND_ACCEPTOR>
7
> <PUBCHEM_CACTVS_HBOND_DONOR>
1
> <PUBCHEM_CACTVS_ROTATABLE_BOND>
12
> <PUBCHEM_CACTVS_SUBSKEYS>
AAADceB7MABgAAAAAAAAAAAAAAAAAWAAAAAwYAAAAAAAAAAB0AAAHgQQAAAADAjl3gazmZPIFAisAyXyfACC8KlhCjkJiBU4JIiIIDqgnRGGIAhu0QOIiCcYiICOAAAAAAAAAAAAAAAAAAAAAAAAAAAAAA==
> <PUBCHEM_IUPAC_OPENEYE_NAME>
ethyl 2-[2-[[2-[benzyl(ethyl)carbamothioyl]sulfanyl-2-phenyl-acetyl]amino]thiazol-4-yl]acetate
> <PUBCHEM_IUPAC_CAS_NAME>
2-[2-[[2-[[[ethyl-(phenylmethyl)amino]-sulfanylidenemethyl]thio]-1-oxo-2-phenylethyl]amino]-4-thiazolyl]acetic acid ethyl ester
> <PUBCHEM_IUPAC_NAME_MARKUP>
ethyl 2-[2-[[2-[benzyl(ethyl)carbamothioyl]sulfanyl-2-phenylacetyl]amino]-1,3-thiazol-4-yl]acetate
> <PUBCHEM_IUPAC_NAME>
ethyl 2-[2-[[2-[benzyl(ethyl)carbamothioyl]sulfanyl-2-phenylacetyl]amino]-1,3-thiazol-4-yl]acetate
> <PUBCHEM_IUPAC_SYSTEMATIC_NAME>
ethyl 2-[2-[[2-[ethyl-(phenylmethyl)carbamothioyl]sulfanyl-2-phenyl-ethanoyl]amino]-1,3-thiazol-4-yl]ethanoate
> <PUBCHEM_IUPAC_TRADITIONAL_NAME>
2-[2-[[2-[[benzyl(ethyl)thiocarbamoyl]thio]-2-phenyl-acetyl]amino]thiazol-4-yl]acetic acid ethyl ester
> <PUBCHEM_IUPAC_INCHI>
InChI=1S/C25H27N3O3S3/c1-3-28(16-18-11-7-5-8-12-18)25(32)34-22(19-13-9-6-10-14-19)23(30)27-24-26-20(17-33-24)15-21(29)31-4-2/h5-14,17,22H,3-4,15-16H2,1-2H3,(H,26,27,30)
> <PUBCHEM_IUPAC_INCHIKEY>
QLWDXSVIMHLCJW-UHFFFAOYSA-N
> <PUBCHEM_XLOGP3_AA>
5.3
> <PUBCHEM_EXACT_MASS>
513.12145525
> <PUBCHEM_MOLECULAR_FORMULA>
C25H27N3O3S3
> <PUBCHEM_MOLECULAR_WEIGHT>
513.7
> <PUBCHEM_OPENEYE_CAN_SMILES>
CCN(CC1=CC=CC=C1)C(=S)SC(C2=CC=CC=C2)C(=O)NC3=NC(=CS3)CC(=O)OCC
> <PUBCHEM_OPENEYE_ISO_SMILES>
CCN(CC1=CC=CC=C1)C(=S)SC(C2=CC=CC=C2)C(=O)NC3=NC(=CS3)CC(=O)OCC
> <PUBCHEM_CACTVS_TPSA>
157
> <PUBCHEM_MONOISOTOPIC_WEIGHT>
513.12145525
> <PUBCHEM_TOTAL_CHARGE>
0
> <PUBCHEM_HEAVY_ATOM_COUNT>
34
> <PUBCHEM_ATOM_DEF_STEREO_COUNT>
0
> <PUBCHEM_ATOM_UDEF_STEREO_COUNT>
1
> <PUBCHEM_BOND_DEF_STEREO_COUNT>
0
> <PUBCHEM_BOND_UDEF_STEREO_COUNT>
0
> <PUBCHEM_ISOTOPIC_ATOM_COUNT>
0
> <PUBCHEM_COMPONENT_COUNT>
1
> <PUBCHEM_CACTVS_TAUTO_COUNT>
-1
> <PUBCHEM_COORDINATE_TYPE>
1
5
255
> <PUBCHEM_BONDANNOTATIONS>
11  16  3
13  18  8
13  19  8
14  20  8
14  21  8
18  22  8
19  23  8
20  24  8
21  25  8
22  27  8
23  27  8
24  28  8
25  28  8
29  31  8
3  26  8
3  31  8
9  26  8
9  29  8
$$$$
