504176
  -OEChem-10302200282D
 41 41  0     1  0  0  0  0  0999 V2000
    5.4641    3.5950    0.0000 O   0  0  0  0  0  0  0  0  0  0  0  0
    2.8660   -0.9050    0.0000 N   0  0  0  0  0  0  0  0  0  0  0  0
    4.5981    1.0950    0.0000 N   0  0  0  0  0  0  0  0  0  0  0  0
    2.8660   -1.9050    0.0000 C   0  0  0  0  0  0  0  0  0  0  0  0
    2.0000   -2.4050    0.0000 C   0  0  0  0  0  0  0  0  0  0  0  0
    3.7320   -2.4050    0.0000 C   0  0  0  0  0  0  0  0  0  0  0  0
    2.0000   -3.4050    0.0000 C   0  0  0  0  0  0  0  0  0  0  0  0
    3.7320   -3.4050    0.0000 C   0  0  0  0  0  0  0  0  0  0  0  0
    2.8660   -3.9050    0.0000 C   0  0  0  0  0  0  0  0  0  0  0  0
    3.7320   -0.4050    0.0000 C   0  0  0  0  0  0  0  0  0  0  0  0
    3.7320    0.5950    0.0000 C   0  0  0  0  0  0  0  0  0  0  0  0
    4.5981    2.0950    0.0000 C   0  0  3  0  0  0  0  0  0  0  0  0
    3.7320    2.5950    0.0000 C   0  0  0  0  0  0  0  0  0  0  0  0
    5.4641    2.5950    0.0000 C   0  0  0  0  0  0  0  0  0  0  0  0
    3.7320    3.5950    0.0000 C   0  0  0  0  0  0  0  0  0  0  0  0
    3.4030   -1.5950    0.0000 H   0  0  0  0  0  0  0  0  0  0  0  0
    1.7880   -1.8224    0.0000 H   0  0  0  0  0  0  0  0  0  0  0  0
    1.3894   -2.5127    0.0000 H   0  0  0  0  0  0  0  0  0  0  0  0
    4.3426   -2.5127    0.0000 H   0  0  0  0  0  0  0  0  0  0  0  0
    3.9441   -1.8224    0.0000 H   0  0  0  0  0  0  0  0  0  0  0  0
    1.3894   -3.2973    0.0000 H   0  0  0  0  0  0  0  0  0  0  0  0
    1.7880   -3.9876    0.0000 H   0  0  0  0  0  0  0  0  0  0  0  0
    3.9441   -3.9876    0.0000 H   0  0  0  0  0  0  0  0  0  0  0  0
    4.3426   -3.2973    0.0000 H   0  0  0  0  0  0  0  0  0  0  0  0
    2.4675   -4.3800    0.0000 H   0  0  0  0  0  0  0  0  0  0  0  0
    3.2646   -4.3800    0.0000 H   0  0  0  0  0  0  0  0  0  0  0  0
    2.3291   -0.5950    0.0000 H   0  0  0  0  0  0  0  0  0  0  0  0
    3.9441   -0.9876    0.0000 H   0  0  0  0  0  0  0  0  0  0  0  0
    4.3426   -0.2973    0.0000 H   0  0  0  0  0  0  0  0  0  0  0  0
    3.5200    1.1776    0.0000 H   0  0  0  0  0  0  0  0  0  0  0  0
    3.1215    0.4873    0.0000 H   0  0  0  0  0  0  0  0  0  0  0  0
    5.1350    1.7850    0.0000 H   0  0  0  0  0  0  0  0  0  0  0  0
    5.1350    0.7850    0.0000 H   0  0  0  0  0  0  0  0  0  0  0  0
    3.1215    2.7027    0.0000 H   0  0  0  0  0  0  0  0  0  0  0  0
    3.5200    2.0124    0.0000 H   0  0  0  0  0  0  0  0  0  0  0  0
    5.6762    2.0124    0.0000 H   0  0  0  0  0  0  0  0  0  0  0  0
    6.0747    2.7027    0.0000 H   0  0  0  0  0  0  0  0  0  0  0  0
    4.3520    3.5950    0.0000 H   0  0  0  0  0  0  0  0  0  0  0  0
    3.7320    4.2150    0.0000 H   0  0  0  0  0  0  0  0  0  0  0  0
    3.1120    3.5950    0.0000 H   0  0  0  0  0  0  0  0  0  0  0  0
    6.0010    3.9050    0.0000 H   0  0  0  0  0  0  0  0  0  0  0  0
  1 14  1  0  0  0  0
  1 41  1  0  0  0  0
  2  4  1  0  0  0  0
  2 10  1  0  0  0  0
  2 27  1  0  0  0  0
  3 11  1  0  0  0  0
  3 12  1  0  0  0  0
  3 33  1  0  0  0  0
  4  5  1  0  0  0  0
  4  6  1  0  0  0  0
  4 16  1  0  0  0  0
  5  7  1  0  0  0  0
  5 17  1  0  0  0  0
  5 18  1  0  0  0  0
  6  8  1  0  0  0  0
  6 19  1  0  0  0  0
  6 20  1  0  0  0  0
  7  9  1  0  0  0  0
  7 21  1  0  0  0  0
  7 22  1  0  0  0  0
  8  9  1  0  0  0  0
  8 23  1  0  0  0  0
  8 24  1  0  0  0  0
  9 25  1  0  0  0  0
  9 26  1  0  0  0  0
 10 11  1  0  0  0  0
 10 28  1  0  0  0  0
 10 29  1  0  0  0  0
 11 30  1  0  0  0  0
 11 31  1  0  0  0  0
 12 13  1  0  0  0  0
 12 14  1  0  0  0  0
 12 32  1  0  0  0  0
 13 15  1  0  0  0  0
 13 34  1  0  0  0  0
 13 35  1  0  0  0  0
 14 36  1  0  0  0  0
 14 37  1  0  0  0  0
 15 38  1  0  0  0  0
 15 39  1  0  0  0  0
 15 40  1  0  0  0  0
M  END
> <PUBCHEM_COMPOUND_CID>
504176
> <PUBCHEM_COMPOUND_CANONICALIZED>
1
> <PUBCHEM_CACTVS_COMPLEXITY>
147
> <PUBCHEM_CACTVS_HBOND_ACCEPTOR>
3
> <PUBCHEM_CACTVS_HBOND_DONOR>
3
> <PUBCHEM_CACTVS_ROTATABLE_BOND>
7
> <PUBCHEM_CACTVS_SUBSKEYS>
AAADceBzIAAAAAAAAAAAAAAAAAAAAAAAAAAwAAAAAAAAAAAAAAAAHgAQCAAACCjhgAYCAALAAgAAAAAAAAAAAAAAAAAAAIAIAAACUAIAgAAUQAAEEACQAAEQAAAAAAAAAAAAAAAAAAAAAAAAAAAAAAAAAA==
> <PUBCHEM_IUPAC_OPENEYE_NAME>
2-[2-(cyclohexylamino)ethylamino]butan-1-ol
> <PUBCHEM_IUPAC_CAS_NAME>
2-[2-(cyclohexylamino)ethylamino]-1-butanol
> <PUBCHEM_IUPAC_NAME_MARKUP>
2-[2-(cyclohexylamino)ethylamino]butan-1-ol
> <PUBCHEM_IUPAC_NAME>
2-[2-(cyclohexylamino)ethylamino]butan-1-ol
> <PUBCHEM_IUPAC_SYSTEMATIC_NAME>
2-[2-(cyclohexylamino)ethylamino]butan-1-ol
> <PUBCHEM_IUPAC_TRADITIONAL_NAME>
2-[2-(cyclohexylamino)ethylamino]butan-1-ol
> <PUBCHEM_IUPAC_INCHI>
InChI=1S/C12H26N2O/c1-2-11(10-15)13-8-9-14-12-6-4-3-5-7-12/h11-15H,2-10H2,1H3
> <PUBCHEM_IUPAC_INCHIKEY>
LFPUNVOUHKLCAH-UHFFFAOYSA-N
> <PUBCHEM_XLOGP3_AA>
1.5
> <PUBCHEM_EXACT_MASS>
214.204513457
> <PUBCHEM_MOLECULAR_FORMULA>
C12H26N2O
> <PUBCHEM_MOLECULAR_WEIGHT>
214.35
> <PUBCHEM_OPENEYE_CAN_SMILES>
CCC(CO)NCCNC1CCCCC1
> <PUBCHEM_OPENEYE_ISO_SMILES>
CCC(CO)NCCNC1CCCCC1
> <PUBCHEM_CACTVS_TPSA>
44.3
> <PUBCHEM_MONOISOTOPIC_WEIGHT>
214.204513457
> <PUBCHEM_TOTAL_CHARGE>
0
> <PUBCHEM_HEAVY_ATOM_COUNT>
15
> <PUBCHEM_ATOM_DEF_STEREO_COUNT>
0
> <PUBCHEM_ATOM_UDEF_STEREO_COUNT>
1
> <PUBCHEM_BOND_DEF_STEREO_COUNT>
0
> <PUBCHEM_BOND_UDEF_STEREO_COUNT>
0
> <PUBCHEM_ISOTOPIC_ATOM_COUNT>
0
> <PUBCHEM_COMPONENT_COUNT>
1
> <PUBCHEM_CACTVS_TAUTO_COUNT>
-1
> <PUBCHEM_COORDINATE_TYPE>
1
5
255
> <PUBCHEM_BONDANNOTATIONS>
12  13  3
$$$$
