504198
  -OEChem-10302200282D
113114  0     1  0  0  0  0  0999 V2000
    9.4651    2.5950    0.0000 O   0  0  0  0  0  0  0  0  0  0  0  0
   12.0632    0.0950    0.0000 O   0  0  0  0  0  0  0  0  0  0  0  0
   11.1972   -3.4050    0.0000 O   0  0  0  0  0  0  0  0  0  0  0  0
    6.8671    0.0950    0.0000 O   0  0  0  0  0  0  0  0  0  0  0  0
    6.0010    2.5950    0.0000 O   0  0  0  0  0  0  0  0  0  0  0  0
   14.6613   -4.4050    0.0000 O   0  0  0  0  0  0  0  0  0  0  0  0
    2.5369    1.5950    0.0000 O   0  0  0  0  0  0  0  0  0  0  0  0
    3.4030    0.0950    0.0000 O   0  0  0  0  0  0  0  0  0  0  0  0
   10.3312    0.0950    0.0000 N   0  0  0  0  0  0  0  0  0  0  0  0
    8.5991    1.0950    0.0000 N   0  0  0  0  0  0  0  0  0  0  0  0
   12.0632   -1.9050    0.0000 N   0  0  0  0  0  0  0  0  0  0  0  0
   13.7953   -2.9050    0.0000 N   0  0  0  0  0  0  0  0  0  0  0  0
    5.1350    1.0950    0.0000 N   0  0  0  0  0  0  0  0  0  0  0  0
   16.3933   -3.4050    0.0000 N   0  0  0  0  0  0  0  0  0  0  0  0
    2.5369    5.5950    0.0000 N   0  0  0  0  0  0  0  0  0  0  0  0
   16.3933   -1.4050    0.0000 N   0  0  0  0  0  0  0  0  0  0  0  0
   11.1972    2.5950    0.0000 C   0  0  0  0  0  0  0  0  0  0  0  0
   10.3312    3.0950    0.0000 C   0  0  0  0  0  0  0  0  0  0  0  0
   12.0632    3.0950    0.0000 C   0  0  0  0  0  0  0  0  0  0  0  0
   11.1972    1.5950    0.0000 C   0  0  0  0  0  0  0  0  0  0  0  0
   10.3312    4.0950    0.0000 C   0  0  0  0  0  0  0  0  0  0  0  0
   12.0632    4.0950    0.0000 C   0  0  0  0  0  0  0  0  0  0  0  0
   11.1972    4.5950    0.0000 C   0  0  0  0  0  0  0  0  0  0  0  0
   10.3312    1.0950    0.0000 C   0  0  1  0  0  0  0  0  0  0  0  0
    9.4651    1.5950    0.0000 C   0  0  0  0  0  0  0  0  0  0  0  0
   11.1972   -1.4050    0.0000 C   0  0  2  0  0  0  0  0  0  0  0  0
   11.1972   -0.4050    0.0000 C   0  0  0  0  0  0  0  0  0  0  0  0
   10.3312   -1.9050    0.0000 C   0  0  2  0  0  0  0  0  0  0  0  0
    7.7331    1.5950    0.0000 C   0  0  1  0  0  0  0  0  0  0  0  0
    9.4651   -1.4050    0.0000 C   0  0  0  0  0  0  0  0  0  0  0  0
   10.3312   -2.9050    0.0000 C   0  0  0  0  0  0  0  0  0  0  0  0
    7.7331    2.5950    0.0000 C   0  0  0  0  0  0  0  0  0  0  0  0
   12.0632   -2.9050    0.0000 C   0  0  0  0  0  0  0  0  0  0  0  0
   12.9292   -3.4050    0.0000 C   0  0  2  0  0  0  0  0  0  0  0  0
    8.5991   -1.9050    0.0000 C   0  0  0  0  0  0  0  0  0  0  0  0
   12.9292   -4.4050    0.0000 C   0  0  0  0  0  0  0  0  0  0  0  0
    6.8671    1.0950    0.0000 C   0  0  0  0  0  0  0  0  0  0  0  0
   12.0632   -4.9050    0.0000 C   0  0  0  0  0  0  0  0  0  0  0  0
    6.8671    3.0950    0.0000 C   0  0  0  0  0  0  0  0  0  0  0  0
    6.0010    1.5950    0.0000 C   0  0  0  0  0  0  0  0  0  0  0  0
   12.0632   -5.9050    0.0000 C   0  0  0  0  0  0  0  0  0  0  0  0
   11.1972   -4.4050    0.0000 C   0  0  0  0  0  0  0  0  0  0  0  0
    4.2690    1.5950    0.0000 C   0  0  1  0  0  0  0  0  0  0  0  0
   14.6613   -3.4050    0.0000 C   0  0  0  0  0  0  0  0  0  0  0  0
    4.2690    2.5950    0.0000 C   0  0  0  0  0  0  0  0  0  0  0  0
    3.4030    3.0950    0.0000 C   0  0  0  0  0  0  0  0  0  0  0  0
   15.5273   -2.9050    0.0000 C   0  0  0  0  0  0  0  0  0  0  0  0
    3.4030    4.0950    0.0000 C   0  0  0  0  0  0  0  0  0  0  0  0
    3.4030    1.0950    0.0000 C   0  0  0  0  0  0  0  0  0  0  0  0
    2.5369    4.5950    0.0000 C   0  0  0  0  0  0  0  0  0  0  0  0
   15.5273   -1.9050    0.0000 C   0  0  0  0  0  0  0  0  0  0  0  0
   17.2594   -2.9050    0.0000 C   0  0  0  0  0  0  0  0  0  0  0  0
   17.2594   -1.9050    0.0000 C   0  0  0  0  0  0  0  0  0  0  0  0
   10.6603    2.2850    0.0000 H   0  0  0  0  0  0  0  0  0  0  0  0
    9.7206    3.2027    0.0000 H   0  0  0  0  0  0  0  0  0  0  0  0
   10.1191    2.5124    0.0000 H   0  0  0  0  0  0  0  0  0  0  0  0
   12.2753    2.5124    0.0000 H   0  0  0  0  0  0  0  0  0  0  0  0
   12.6738    3.2027    0.0000 H   0  0  0  0  0  0  0  0  0  0  0  0
   11.4092    1.0124    0.0000 H   0  0  0  0  0  0  0  0  0  0  0  0
   11.8078    1.7027    0.0000 H   0  0  0  0  0  0  0  0  0  0  0  0
   10.1191    4.6776    0.0000 H   0  0  0  0  0  0  0  0  0  0  0  0
    9.7206    3.9873    0.0000 H   0  0  0  0  0  0  0  0  0  0  0  0
   12.6738    3.9873    0.0000 H   0  0  0  0  0  0  0  0  0  0  0  0
   12.2753    4.6776    0.0000 H   0  0  0  0  0  0  0  0  0  0  0  0
   11.5957    5.0700    0.0000 H   0  0  0  0  0  0  0  0  0  0  0  0
   10.7987    5.0700    0.0000 H   0  0  0  0  0  0  0  0  0  0  0  0
   10.8681    0.7850    0.0000 H   0  0  0  0  0  0  0  0  0  0  0  0
    9.7942   -0.2150    0.0000 H   0  0  0  0  0  0  0  0  0  0  0  0
   11.7341   -1.0950    0.0000 H   0  0  0  0  0  0  0  0  0  0  0  0
   10.8681   -2.2150    0.0000 H   0  0  0  0  0  0  0  0  0  0  0  0
    8.5991    0.4750    0.0000 H   0  0  0  0  0  0  0  0  0  0  0  0
    7.7331    0.9750    0.0000 H   0  0  0  0  0  0  0  0  0  0  0  0
    9.8637   -0.9301    0.0000 H   0  0  0  0  0  0  0  0  0  0  0  0
    9.0666   -0.9301    0.0000 H   0  0  0  0  0  0  0  0  0  0  0  0
   12.6002   -1.5950    0.0000 H   0  0  0  0  0  0  0  0  0  0  0  0
    9.7112   -2.9050    0.0000 H   0  0  0  0  0  0  0  0  0  0  0  0
   10.3312   -3.5250    0.0000 H   0  0  0  0  0  0  0  0  0  0  0  0
   10.9512   -2.9050    0.0000 H   0  0  0  0  0  0  0  0  0  0  0  0
    8.3437    2.4873    0.0000 H   0  0  0  0  0  0  0  0  0  0  0  0
    7.9451    3.1776    0.0000 H   0  0  0  0  0  0  0  0  0  0  0  0
   12.9292   -2.7850    0.0000 H   0  0  0  0  0  0  0  0  0  0  0  0
    8.2891   -1.3681    0.0000 H   0  0  0  0  0  0  0  0  0  0  0  0
    8.0622   -2.2150    0.0000 H   0  0  0  0  0  0  0  0  0  0  0  0
    8.9091   -2.4419    0.0000 H   0  0  0  0  0  0  0  0  0  0  0  0
   13.1413   -4.9876    0.0000 H   0  0  0  0  0  0  0  0  0  0  0  0
   13.5398   -4.2973    0.0000 H   0  0  0  0  0  0  0  0  0  0  0  0
   12.6002   -5.2150    0.0000 H   0  0  0  0  0  0  0  0  0  0  0  0
    7.1771    3.6319    0.0000 H   0  0  0  0  0  0  0  0  0  0  0  0
    6.3301    3.4050    0.0000 H   0  0  0  0  0  0  0  0  0  0  0  0
    6.5571    2.5581    0.0000 H   0  0  0  0  0  0  0  0  0  0  0  0
   13.7953   -2.2850    0.0000 H   0  0  0  0  0  0  0  0  0  0  0  0
   11.4432   -5.9050    0.0000 H   0  0  0  0  0  0  0  0  0  0  0  0
   12.0632   -6.5250    0.0000 H   0  0  0  0  0  0  0  0  0  0  0  0
   12.6832   -5.9050    0.0000 H   0  0  0  0  0  0  0  0  0  0  0  0
   11.5072   -3.8681    0.0000 H   0  0  0  0  0  0  0  0  0  0  0  0
   10.6603   -4.0950    0.0000 H   0  0  0  0  0  0  0  0  0  0  0  0
   10.8872   -4.9419    0.0000 H   0  0  0  0  0  0  0  0  0  0  0  0
    5.1350    0.4750    0.0000 H   0  0  0  0  0  0  0  0  0  0  0  0
    4.2690    0.9750    0.0000 H   0  0  0  0  0  0  0  0  0  0  0  0
    4.8796    2.4873    0.0000 H   0  0  0  0  0  0  0  0  0  0  0  0
    4.4810    3.1776    0.0000 H   0  0  0  0  0  0  0  0  0  0  0  0
    2.7924    3.2027    0.0000 H   0  0  0  0  0  0  0  0  0  0  0  0
    3.1909    2.5124    0.0000 H   0  0  0  0  0  0  0  0  0  0  0  0
    4.0135    3.9873    0.0000 H   0  0  0  0  0  0  0  0  0  0  0  0
    3.6150    4.6776    0.0000 H   0  0  0  0  0  0  0  0  0  0  0  0
    1.9264    4.7027    0.0000 H   0  0  0  0  0  0  0  0  0  0  0  0
    2.3249    4.0124    0.0000 H   0  0  0  0  0  0  0  0  0  0  0  0
   14.9904   -1.5950    0.0000 H   0  0  0  0  0  0  0  0  0  0  0  0
    2.0000    1.2850    0.0000 H   0  0  0  0  0  0  0  0  0  0  0  0
    2.0000    5.9050    0.0000 H   0  0  0  0  0  0  0  0  0  0  0  0
    3.0739    5.9050    0.0000 H   0  0  0  0  0  0  0  0  0  0  0  0
   17.7963   -3.2150    0.0000 H   0  0  0  0  0  0  0  0  0  0  0  0
   17.7963   -1.5950    0.0000 H   0  0  0  0  0  0  0  0  0  0  0  0
  1 25  2  0  0  0  0
  2 27  2  0  0  0  0
  3 33  2  0  0  0  0
  4 37  2  0  0  0  0
  5 40  2  0  0  0  0
  6 44  2  0  0  0  0
  7 49  1  0  0  0  0
  7109  1  0  0  0  0
  8 49  2  0  0  0  0
 24  9  1  6  0  0  0
  9 27  1  0  0  0  0
  9 68  1  0  0  0  0
 10 25  1  0  0  0  0
 29 10  1  6  0  0  0
 10 71  1  0  0  0  0
 26 11  1  1  0  0  0
 11 33  1  0  0  0  0
 11 75  1  0  0  0  0
 34 12  1  1  0  0  0
 12 44  1  0  0  0  0
 12 91  1  0  0  0  0
 13 40  1  0  0  0  0
 43 13  1  6  0  0  0
 13 98  1  0  0  0  0
 14 47  2  0  0  0  0
 14 52  1  0  0  0  0
 15 50  1  0  0  0  0
 15110  1  0  0  0  0
 15111  1  0  0  0  0
 16 51  2  0  0  0  0
 16 53  1  0  0  0  0
 17 18  1  0  0  0  0
 17 19  1  0  0  0  0
 17 20  1  0  0  0  0
 17 54  1  0  0  0  0
 18 21  1  0  0  0  0
 18 55  1  0  0  0  0
 18 56  1  0  0  0  0
 19 22  1  0  0  0  0
 19 57  1  0  0  0  0
 19 58  1  0  0  0  0
 20 24  1  0  0  0  0
 20 59  1  0  0  0  0
 20 60  1  0  0  0  0
 21 23  1  0  0  0  0
 21 61  1  0  0  0  0
 21 62  1  0  0  0  0
 22 23  1  0  0  0  0
 22 63  1  0  0  0  0
 22 64  1  0  0  0  0
 23 65  1  0  0  0  0
 23 66  1  0  0  0  0
 24 25  1  0  0  0  0
 24 67  1  0  0  0  0
 26 27  1  0  0  0  0
 26 28  1  0  0  0  0
 26 69  1  0  0  0  0
 28 30  1  0  0  0  0
 28 31  1  1  0  0  0
 28 70  1  0  0  0  0
 29 32  1  0  0  0  0
 29 37  1  0  0  0  0
 29 72  1  0  0  0  0
 30 35  1  0  0  0  0
 30 73  1  0  0  0  0
 30 74  1  0  0  0  0
 31 76  1  0  0  0  0
 31 77  1  0  0  0  0
 31 78  1  0  0  0  0
 32 39  1  0  0  0  0
 32 79  1  0  0  0  0
 32 80  1  0  0  0  0
 33 34  1  0  0  0  0
 34 36  1  0  0  0  0
 34 81  1  0  0  0  0
 35 82  1  0  0  0  0
 35 83  1  0  0  0  0
 35 84  1  0  0  0  0
 36 38  1  0  0  0  0
 36 85  1  0  0  0  0
 36 86  1  0  0  0  0
 37 40  1  0  0  0  0
 38 41  1  0  0  0  0
 38 42  1  0  0  0  0
 38 87  1  0  0  0  0
 39 88  1  0  0  0  0
 39 89  1  0  0  0  0
 39 90  1  0  0  0  0
 41 92  1  0  0  0  0
 41 93  1  0  0  0  0
 41 94  1  0  0  0  0
 42 95  1  0  0  0  0
 42 96  1  0  0  0  0
 42 97  1  0  0  0  0
 43 45  1  0  0  0  0
 43 49  1  0  0  0  0
 43 99  1  0  0  0  0
 44 47  1  0  0  0  0
 45 46  1  0  0  0  0
 45100  1  0  0  0  0
 45101  1  0  0  0  0
 46 48  1  0  0  0  0
 46102  1  0  0  0  0
 46103  1  0  0  0  0
 47 51  1  0  0  0  0
 48 50  1  0  0  0  0
 48104  1  0  0  0  0
 48105  1  0  0  0  0
 50106  1  0  0  0  0
 50107  1  0  0  0  0
 51108  1  0  0  0  0
 52 53  2  0  0  0  0
 52112  1  0  0  0  0
 53113  1  0  0  0  0
M  END
> <PUBCHEM_COMPOUND_CID>
504198
> <PUBCHEM_COMPOUND_CANONICALIZED>
1
> <PUBCHEM_CACTVS_COMPLEXITY>
1230
> <PUBCHEM_CACTVS_HBOND_ACCEPTOR>
11
> <PUBCHEM_CACTVS_HBOND_DONOR>
7
> <PUBCHEM_CACTVS_ROTATABLE_BOND>
23
> <PUBCHEM_CACTVS_SUBSKEYS>
AAADcfB//AAAAAAAAAAAAAAAAAAAAAAAAAA8QAAAAAAAAAABgAAAHgAQCAAADSzBlgQuiBLIEgCoAZX3XACAgCQXEiAIUIG4dEACQFpAwCAUQIgEFgDQAMGYyICOAAAAAAAAAAAAAAAAAAAAAAAAAAAAAA==
> <PUBCHEM_IUPAC_OPENEYE_NAME>
(2S)-6-amino-2-[[(3S)-3-[[(2S)-3-cyclohexyl-2-[[(2S,3S)-3-methyl-2-[[(2S)-4-methyl-2-(pyrazine-2-carbonylamino)pentanoyl]amino]pentanoyl]amino]propanoyl]amino]-2-oxo-pentanoyl]amino]hexanoic acid
> <PUBCHEM_IUPAC_CAS_NAME>
(2S)-6-amino-2-[[(3S)-3-[[(2S)-3-cyclohexyl-2-[[(2S,3S)-3-methyl-2-[[(2S)-4-methyl-1-oxo-2-[[oxo(2-pyrazinyl)methyl]amino]pentyl]amino]-1-oxopentyl]amino]-1-oxopropyl]amino]-1,2-dioxopentyl]amino]hexanoic acid
> <PUBCHEM_IUPAC_NAME_MARKUP>
(2<I>S</I>)-6-amino-2-[[(3<I>S</I>)-3-[[(2<I>S</I>)-3-cyclohexyl-2-[[(2<I>S</I>,3<I>S</I>)-3-methyl-2-[[(2<I>S</I>)-4-methyl-2-(pyrazine-2-carbonylamino)pentanoyl]amino]pentanoyl]amino]propanoyl]amino]-2-oxopentanoyl]amino]hexanoic acid
> <PUBCHEM_IUPAC_NAME>
(2S)-6-amino-2-[[(3S)-3-[[(2S)-3-cyclohexyl-2-[[(2S,3S)-3-methyl-2-[[(2S)-4-methyl-2-(pyrazine-2-carbonylamino)pentanoyl]amino]pentanoyl]amino]propanoyl]amino]-2-oxopentanoyl]amino]hexanoic acid
> <PUBCHEM_IUPAC_SYSTEMATIC_NAME>
(2S)-6-azanyl-2-[[(3S)-3-[[(2S)-3-cyclohexyl-2-[[(2S,3S)-3-methyl-2-[[(2S)-4-methyl-2-(pyrazin-2-ylcarbonylamino)pentanoyl]amino]pentanoyl]amino]propanoyl]amino]-2-oxidanylidene-pentanoyl]amino]hexanoic acid
> <PUBCHEM_IUPAC_TRADITIONAL_NAME>
(2S)-6-amino-2-[[(3S)-3-[[(2S)-3-cyclohexyl-2-[[(2S,3S)-3-methyl-2-[[(2S)-4-methyl-2-(pyrazinoylamino)pentanoyl]amino]pentanoyl]amino]propanoyl]amino]-2-keto-pentanoyl]amino]hexanoic acid
> <PUBCHEM_IUPAC_INCHI>
InChI=1S/C37H60N8O8/c1-6-23(5)30(45-33(48)27(19-22(3)4)43-34(49)29-21-39-17-18-40-29)35(50)44-28(20-24-13-9-8-10-14-24)32(47)41-25(7-2)31(46)36(51)42-26(37(52)53)15-11-12-16-38/h17-18,21-28,30H,6-16,19-20,38H2,1-5H3,(H,41,47)(H,42,51)(H,43,49)(H,44,50)(H,45,48)(H,52,53)/t23-,25-,26-,27-,28-,30-/m0/s1
> <PUBCHEM_IUPAC_INCHIKEY>
PFHINVNYVSTJQP-VAZFOVGVSA-N
> <PUBCHEM_XLOGP3_AA>
1.6
> <PUBCHEM_EXACT_MASS>
744.45341090
> <PUBCHEM_MOLECULAR_FORMULA>
C37H60N8O8
> <PUBCHEM_MOLECULAR_WEIGHT>
744.9
> <PUBCHEM_OPENEYE_CAN_SMILES>
CCC(C)C(C(=O)NC(CC1CCCCC1)C(=O)NC(CC)C(=O)C(=O)NC(CCCCN)C(=O)O)NC(=O)C(CC(C)C)NC(=O)C2=NC=CN=C2
> <PUBCHEM_OPENEYE_ISO_SMILES>
CC[C@H](C)[C@@H](C(=O)N[C@@H](CC1CCCCC1)C(=O)N[C@@H](CC)C(=O)C(=O)N[C@@H](CCCCN)C(=O)O)NC(=O)[C@H](CC(C)C)NC(=O)C2=NC=CN=C2
> <PUBCHEM_CACTVS_TPSA>
252
> <PUBCHEM_MONOISOTOPIC_WEIGHT>
744.45341090
> <PUBCHEM_TOTAL_CHARGE>
0
> <PUBCHEM_HEAVY_ATOM_COUNT>
53
> <PUBCHEM_ATOM_DEF_STEREO_COUNT>
6
> <PUBCHEM_ATOM_UDEF_STEREO_COUNT>
0
> <PUBCHEM_BOND_DEF_STEREO_COUNT>
0
> <PUBCHEM_BOND_UDEF_STEREO_COUNT>
0
> <PUBCHEM_ISOTOPIC_ATOM_COUNT>
0
> <PUBCHEM_COMPONENT_COUNT>
1
> <PUBCHEM_CACTVS_TAUTO_COUNT>
-1
> <PUBCHEM_COORDINATE_TYPE>
1
5
255
> <PUBCHEM_BONDANNOTATIONS>
29  10  6
26  11  5
34  12  5
43  13  6
14  47  8
14  52  8
16  51  8
16  53  8
28  31  5
47  51  8
52  53  8
24  9  6
$$$$
