504199
  -OEChem-10302200282D
 38 40  0     1  0  0  0  0  0999 V2000
    9.9673    1.5481    0.0000 O   0  0  0  0  0  0  0  0  0  0  0  0
    6.0812    1.2401    0.0000 N   0  0  0  0  0  0  0  0  0  0  0  0
    6.0812   -0.3694    0.0000 N   0  0  0  0  0  0  0  0  0  0  0  0
    4.2690   -1.5647    0.0000 N   0  0  0  0  0  0  0  0  0  0  0  0
    4.2690    1.4353    0.0000 N   0  0  0  0  0  0  0  0  0  0  0  0
    3.4030   -0.0647    0.0000 N   0  0  0  0  0  0  0  0  0  0  0  0
    2.5369    1.4353    0.0000 N   0  0  0  0  0  0  0  0  0  0  0  0
    8.3209    2.0862    0.0000 C   0  0  1  0  0  0  0  0  0  0  0  0
    8.1147    3.0647    0.0000 C   0  0  0  0  0  0  0  0  0  0  0  0
    7.3704    2.3968    0.0000 C   0  0  0  0  0  0  0  0  0  0  0  0
    8.9888    1.3418    0.0000 C   0  0  0  0  0  0  0  0  0  0  0  0
    6.3919    2.1906    0.0000 C   0  0  0  0  0  0  0  0  0  0  0  0
    5.1350    0.9353    0.0000 C   0  0  0  0  0  0  0  0  0  0  0  0
    5.1350   -0.0647    0.0000 C   0  0  0  0  0  0  0  0  0  0  0  0
    6.6648    0.4353    0.0000 C   0  0  0  0  0  0  0  0  0  0  0  0
    4.2690   -0.5647    0.0000 C   0  0  0  0  0  0  0  0  0  0  0  0
    3.4030   -2.0647    0.0000 C   0  0  0  0  0  0  0  0  0  0  0  0
    3.4030    0.9353    0.0000 C   0  0  0  0  0  0  0  0  0  0  0  0
    3.4030   -3.0647    0.0000 C   0  0  0  0  0  0  0  0  0  0  0  0
    2.5369   -1.5647    0.0000 C   0  0  0  0  0  0  0  0  0  0  0  0
    7.9823    1.5668    0.0000 H   0  0  0  0  0  0  0  0  0  0  0  0
    8.6900    3.2959    0.0000 H   0  0  0  0  0  0  0  0  0  0  0  0
    7.7871    3.5910    0.0000 H   0  0  0  0  0  0  0  0  0  0  0  0
    8.4624    1.0142    0.0000 H   0  0  0  0  0  0  0  0  0  0  0  0
    9.2200    0.7666    0.0000 H   0  0  0  0  0  0  0  0  0  0  0  0
    5.9778    2.6521    0.0000 H   0  0  0  0  0  0  0  0  0  0  0  0
   10.3813    1.0866    0.0000 H   0  0  0  0  0  0  0  0  0  0  0  0
    7.2848    0.4353    0.0000 H   0  0  0  0  0  0  0  0  0  0  0  0
    3.4030   -1.4447    0.0000 H   0  0  0  0  0  0  0  0  0  0  0  0
    4.8059   -1.8747    0.0000 H   0  0  0  0  0  0  0  0  0  0  0  0
    2.7830   -3.0647    0.0000 H   0  0  0  0  0  0  0  0  0  0  0  0
    3.4030   -3.6847    0.0000 H   0  0  0  0  0  0  0  0  0  0  0  0
    4.0230   -3.0647    0.0000 H   0  0  0  0  0  0  0  0  0  0  0  0
    2.8469   -1.0277    0.0000 H   0  0  0  0  0  0  0  0  0  0  0  0
    2.0000   -1.2547    0.0000 H   0  0  0  0  0  0  0  0  0  0  0  0
    2.2269   -2.1016    0.0000 H   0  0  0  0  0  0  0  0  0  0  0  0
    2.0000    1.1253    0.0000 H   0  0  0  0  0  0  0  0  0  0  0  0
    2.5369    2.0553    0.0000 H   0  0  0  0  0  0  0  0  0  0  0  0
  1 11  1  0  0  0  0
  1 27  1  0  0  0  0
  2 12  1  0  0  0  0
  2 13  1  0  0  0  0
  2 15  1  0  0  0  0
  3 14  1  0  0  0  0
  3 15  2  0  0  0  0
  4 16  1  0  0  0  0
  4 17  1  0  0  0  0
  4 30  1  0  0  0  0
  5 13  2  0  0  0  0
  5 18  1  0  0  0  0
  6 16  1  0  0  0  0
  6 18  2  0  0  0  0
  7 18  1  0  0  0  0
  7 37  1  0  0  0  0
  7 38  1  0  0  0  0
  8  9  1  0  0  0  0
  8 10  1  0  0  0  0
  8 11  1  6  0  0  0
  8 21  1  0  0  0  0
  9 10  1  0  0  0  0
  9 22  1  0  0  0  0
  9 23  1  0  0  0  0
 10 12  2  3  0  0  0
 11 24  1  0  0  0  0
 11 25  1  0  0  0  0
 12 26  1  0  0  0  0
 13 14  1  0  0  0  0
 14 16  2  0  0  0  0
 15 28  1  0  0  0  0
 17 19  1  0  0  0  0
 17 20  1  0  0  0  0
 17 29  1  0  0  0  0
 19 31  1  0  0  0  0
 19 32  1  0  0  0  0
 19 33  1  0  0  0  0
 20 34  1  0  0  0  0
 20 35  1  0  0  0  0
 20 36  1  0  0  0  0
M  END
> <PUBCHEM_COMPOUND_CID>
504199
> <PUBCHEM_COMPOUND_CANONICALIZED>
1
> <PUBCHEM_CACTVS_COMPLEXITY>
387
> <PUBCHEM_CACTVS_HBOND_ACCEPTOR>
6
> <PUBCHEM_CACTVS_HBOND_DONOR>
3
> <PUBCHEM_CACTVS_ROTATABLE_BOND>
4
> <PUBCHEM_CACTVS_SUBSKEYS>
AAADceBzoAAAAAAAAAAAAAAAGAAAAWAAAAAsAAAAAAAAAFgB+AAAHgAQCAAADSjhlwYH8L/MEgCgAwZnZACAgC0xEKABUKAoVBiAWABASUAURAgM0ALAACAAAAAAAAAAAAAAAAAAAAAAAAAAAAAAAAAAAA==
> <PUBCHEM_IUPAC_OPENEYE_NAME>
[(1S)-2-[[2-amino-6-(isopropylamino)purin-9-yl]methylene]cyclopropyl]methanol
> <PUBCHEM_IUPAC_CAS_NAME>
[(1S)-2-[[2-amino-6-(propan-2-ylamino)-9-purinyl]methylidene]cyclopropyl]methanol
> <PUBCHEM_IUPAC_NAME_MARKUP>
[(1<I>S</I>)-2-[[2-amino-6-(propan-2-ylamino)purin-9-yl]methylidene]cyclopropyl]methanol
> <PUBCHEM_IUPAC_NAME>
[(1S)-2-[[2-amino-6-(propan-2-ylamino)purin-9-yl]methylidene]cyclopropyl]methanol
> <PUBCHEM_IUPAC_SYSTEMATIC_NAME>
[(1S)-2-[[2-azanyl-6-(propan-2-ylamino)purin-9-yl]methylidene]cyclopropyl]methanol
> <PUBCHEM_IUPAC_TRADITIONAL_NAME>
[(1S)-2-[[2-amino-6-(isopropylamino)purin-9-yl]methylene]cyclopropyl]methanol
> <PUBCHEM_IUPAC_INCHI>
InChI=1S/C13H18N6O/c1-7(2)16-11-10-12(18-13(14)17-11)19(6-15-10)4-8-3-9(8)5-20/h4,6-7,9,20H,3,5H2,1-2H3,(H3,14,16,17,18)/t9-/m1/s1
> <PUBCHEM_IUPAC_INCHIKEY>
PTTPGJWLNOBIOI-SECBINFHSA-N
> <PUBCHEM_XLOGP3_AA>
0.3
> <PUBCHEM_EXACT_MASS>
274.15420922
> <PUBCHEM_MOLECULAR_FORMULA>
C13H18N6O
> <PUBCHEM_MOLECULAR_WEIGHT>
274.32
> <PUBCHEM_OPENEYE_CAN_SMILES>
CC(C)NC1=C2C(=NC(=N1)N)N(C=N2)C=C3CC3CO
> <PUBCHEM_OPENEYE_ISO_SMILES>
CC(C)NC1=C2C(=NC(=N1)N)N(C=N2)C=C3C[C@@H]3CO
> <PUBCHEM_CACTVS_TPSA>
102
> <PUBCHEM_MONOISOTOPIC_WEIGHT>
274.15420922
> <PUBCHEM_TOTAL_CHARGE>
0
> <PUBCHEM_HEAVY_ATOM_COUNT>
20
> <PUBCHEM_ATOM_DEF_STEREO_COUNT>
1
> <PUBCHEM_ATOM_UDEF_STEREO_COUNT>
0
> <PUBCHEM_BOND_DEF_STEREO_COUNT>
0
> <PUBCHEM_BOND_UDEF_STEREO_COUNT>
1
> <PUBCHEM_ISOTOPIC_ATOM_COUNT>
0
> <PUBCHEM_COMPONENT_COUNT>
1
> <PUBCHEM_CACTVS_TAUTO_COUNT>
-1
> <PUBCHEM_COORDINATE_TYPE>
1
5
255
> <PUBCHEM_BONDANNOTATIONS>
10  12  1
13  14  8
14  16  8
2  13  8
2  15  8
3  14  8
3  15  8
5  13  8
5  18  8
6  16  8
6  18  8
8  11  6
$$$$
