504150
  -OEChem-10302200282D
 68 71  0     1  0  0  0  0  0999 V2000
    4.5981   -0.7728    0.0000 S   0  0  0  0  0  0  0  0  0  0  0  0
    6.3301   -0.7728    0.0000 S   0  0  0  0  0  0  0  0  0  0  0  0
    6.4347   -4.7673    0.0000 S   0  0  0  0  0  0  0  0  0  0  0  0
    6.3301   -1.7728    0.0000 O   0  0  0  0  0  0  0  0  0  0  0  0
   10.4896   -4.7092    0.0000 O   0  0  0  0  0  0  0  0  0  0  0  0
    9.0884   -5.7272    0.0000 O   0  0  0  0  0  0  0  0  0  0  0  0
    5.4641    0.7272    0.0000 N   0  0  0  0  0  0  0  0  0  0  0  0
    5.4641   -3.2728    0.0000 N   0  0  0  0  0  0  0  0  0  0  0  0
    7.2437   -3.3660    0.0000 N   0  0  0  0  0  0  0  0  0  0  0  0
    5.4641    2.7272    0.0000 C   0  0  0  0  0  0  0  0  0  0  0  0
    4.5981    2.2272    0.0000 C   0  0  0  0  0  0  0  0  0  0  0  0
    6.3301    2.2272    0.0000 C   0  0  0  0  0  0  0  0  0  0  0  0
    4.5981    1.2272    0.0000 C   0  0  0  0  0  0  0  0  0  0  0  0
    6.3301    1.2272    0.0000 C   0  0  0  0  0  0  0  0  0  0  0  0
    5.4641    3.7272    0.0000 C   0  0  0  0  0  0  0  0  0  0  0  0
    6.3301    4.2272    0.0000 C   0  0  0  0  0  0  0  0  0  0  0  0
    5.4641   -0.2728    0.0000 C   0  0  0  0  0  0  0  0  0  0  0  0
    6.3301    5.2272    0.0000 C   0  0  0  0  0  0  0  0  0  0  0  0
    7.1962    3.7272    0.0000 C   0  0  0  0  0  0  0  0  0  0  0  0
    4.5981   -1.7728    0.0000 C   0  0  3  0  0  0  0  0  0  0  0  0
    7.1962    5.7272    0.0000 C   0  0  0  0  0  0  0  0  0  0  0  0
    8.0622    4.2272    0.0000 C   0  0  0  0  0  0  0  0  0  0  0  0
    8.0622    5.2272    0.0000 C   0  0  0  0  0  0  0  0  0  0  0  0
    3.7320   -2.2728    0.0000 C   0  0  0  0  0  0  0  0  0  0  0  0
    5.4641   -2.2728    0.0000 C   0  0  0  0  0  0  0  0  0  0  0  0
    3.7320   -3.2728    0.0000 C   0  0  0  0  0  0  0  0  0  0  0  0
    2.8660   -1.7728    0.0000 C   0  0  0  0  0  0  0  0  0  0  0  0
    2.8660   -3.7728    0.0000 C   0  0  0  0  0  0  0  0  0  0  0  0
    2.0000   -2.2728    0.0000 C   0  0  0  0  0  0  0  0  0  0  0  0
    2.0000   -3.2728    0.0000 C   0  0  0  0  0  0  0  0  0  0  0  0
    6.3301   -3.7728    0.0000 C   0  0  0  0  0  0  0  0  0  0  0  0
    7.9128   -4.1092    0.0000 C   0  0  0  0  0  0  0  0  0  0  0  0
    7.4128   -4.9752    0.0000 C   0  0  0  0  0  0  0  0  0  0  0  0
    8.9073   -4.0047    0.0000 C   0  0  0  0  0  0  0  0  0  0  0  0
    9.4951   -4.8137    0.0000 C   0  0  0  0  0  0  0  0  0  0  0  0
   11.0774   -5.5182    0.0000 C   0  0  0  0  0  0  0  0  0  0  0  0
   12.0719   -5.4136    0.0000 C   0  0  0  0  0  0  0  0  0  0  0  0
    6.0010    3.0372    0.0000 H   0  0  0  0  0  0  0  0  0  0  0  0
    4.3860    2.8098    0.0000 H   0  0  0  0  0  0  0  0  0  0  0  0
    3.9875    2.1196    0.0000 H   0  0  0  0  0  0  0  0  0  0  0  0
    6.9407    2.1196    0.0000 H   0  0  0  0  0  0  0  0  0  0  0  0
    6.5422    2.8098    0.0000 H   0  0  0  0  0  0  0  0  0  0  0  0
    3.9875    1.3349    0.0000 H   0  0  0  0  0  0  0  0  0  0  0  0
    4.3860    0.6446    0.0000 H   0  0  0  0  0  0  0  0  0  0  0  0
    6.5422    0.6446    0.0000 H   0  0  0  0  0  0  0  0  0  0  0  0
    6.9407    1.3349    0.0000 H   0  0  0  0  0  0  0  0  0  0  0  0
    5.2520    4.3098    0.0000 H   0  0  0  0  0  0  0  0  0  0  0  0
    4.8535    3.6196    0.0000 H   0  0  0  0  0  0  0  0  0  0  0  0
    5.7932    5.5372    0.0000 H   0  0  0  0  0  0  0  0  0  0  0  0
    7.1962    3.1072    0.0000 H   0  0  0  0  0  0  0  0  0  0  0  0
    5.1350   -1.4628    0.0000 H   0  0  0  0  0  0  0  0  0  0  0  0
    7.1962    6.3472    0.0000 H   0  0  0  0  0  0  0  0  0  0  0  0
    8.5991    3.9172    0.0000 H   0  0  0  0  0  0  0  0  0  0  0  0
    8.5991    5.5372    0.0000 H   0  0  0  0  0  0  0  0  0  0  0  0
    4.2690   -3.5828    0.0000 H   0  0  0  0  0  0  0  0  0  0  0  0
    2.8660   -1.1528    0.0000 H   0  0  0  0  0  0  0  0  0  0  0  0
    4.9272   -3.5828    0.0000 H   0  0  0  0  0  0  0  0  0  0  0  0
    2.8660   -4.3928    0.0000 H   0  0  0  0  0  0  0  0  0  0  0  0
    1.4631   -1.9628    0.0000 H   0  0  0  0  0  0  0  0  0  0  0  0
    1.4631   -3.5828    0.0000 H   0  0  0  0  0  0  0  0  0  0  0  0
    7.6650   -5.5416    0.0000 H   0  0  0  0  0  0  0  0  0  0  0  0
    9.4646   -3.7329    0.0000 H   0  0  0  0  0  0  0  0  0  0  0  0
    8.7364   -3.4087    0.0000 H   0  0  0  0  0  0  0  0  0  0  0  0
   10.5202   -5.7900    0.0000 H   0  0  0  0  0  0  0  0  0  0  0  0
   11.2483   -6.1142    0.0000 H   0  0  0  0  0  0  0  0  0  0  0  0
   12.1367   -6.0302    0.0000 H   0  0  0  0  0  0  0  0  0  0  0  0
   12.6885   -5.3488    0.0000 H   0  0  0  0  0  0  0  0  0  0  0  0
   12.0071   -4.7970    0.0000 H   0  0  0  0  0  0  0  0  0  0  0  0
  1 17  1  0  0  0  0
  1 20  1  0  0  0  0
  2 17  2  0  0  0  0
  3 31  1  0  0  0  0
  3 33  1  0  0  0  0
  4 25  2  0  0  0  0
  5 35  1  0  0  0  0
  5 36  1  0  0  0  0
  6 35  2  0  0  0  0
  7 13  1  0  0  0  0
  7 14  1  0  0  0  0
  7 17  1  0  0  0  0
  8 25  1  0  0  0  0
  8 31  1  0  0  0  0
  8 57  1  0  0  0  0
  9 31  2  0  0  0  0
  9 32  1  0  0  0  0
 10 11  1  0  0  0  0
 10 12  1  0  0  0  0
 10 15  1  0  0  0  0
 10 38  1  0  0  0  0
 11 13  1  0  0  0  0
 11 39  1  0  0  0  0
 11 40  1  0  0  0  0
 12 14  1  0  0  0  0
 12 41  1  0  0  0  0
 12 42  1  0  0  0  0
 13 43  1  0  0  0  0
 13 44  1  0  0  0  0
 14 45  1  0  0  0  0
 14 46  1  0  0  0  0
 15 16  1  0  0  0  0
 15 47  1  0  0  0  0
 15 48  1  0  0  0  0
 16 18  2  0  0  0  0
 16 19  1  0  0  0  0
 18 21  1  0  0  0  0
 18 49  1  0  0  0  0
 19 22  2  0  0  0  0
 19 50  1  0  0  0  0
 20 24  1  0  0  0  0
 20 25  1  0  0  0  0
 20 51  1  0  0  0  0
 21 23  2  0  0  0  0
 21 52  1  0  0  0  0
 22 23  1  0  0  0  0
 22 53  1  0  0  0  0
 23 54  1  0  0  0  0
 24 26  2  0  0  0  0
 24 27  1  0  0  0  0
 26 28  1  0  0  0  0
 26 55  1  0  0  0  0
 27 29  2  0  0  0  0
 27 56  1  0  0  0  0
 28 30  2  0  0  0  0
 28 58  1  0  0  0  0
 29 30  1  0  0  0  0
 29 59  1  0  0  0  0
 30 60  1  0  0  0  0
 32 33  2  0  0  0  0
 32 34  1  0  0  0  0
 33 61  1  0  0  0  0
 34 35  1  0  0  0  0
 34 62  1  0  0  0  0
 34 63  1  0  0  0  0
 36 37  1  0  0  0  0
 36 64  1  0  0  0  0
 36 65  1  0  0  0  0
 37 66  1  0  0  0  0
 37 67  1  0  0  0  0
 37 68  1  0  0  0  0
M  END
> <PUBCHEM_COMPOUND_CID>
504150
> <PUBCHEM_COMPOUND_CANONICALIZED>
1
> <PUBCHEM_CACTVS_COMPLEXITY>
750
> <PUBCHEM_CACTVS_HBOND_ACCEPTOR>
7
> <PUBCHEM_CACTVS_HBOND_DONOR>
1
> <PUBCHEM_CACTVS_ROTATABLE_BOND>
11
> <PUBCHEM_CACTVS_SUBSKEYS>
AAADceB7MABgAAAAAAAAAAAAAAAAAWAAAAA8YIAAAAAAAAAB0AAAHgQQAAAADQjl3gazmZPIFAisAyXyfAAC8KlhCjkJiBU4IIiIIDqgnRGGIAAu0QOIiCcYiMCOAAAAAAAAAAAAAAAAAAAAAAAAAAAAAA==
> <PUBCHEM_IUPAC_OPENEYE_NAME>
ethyl 2-[2-[[2-(4-benzylpiperidine-1-carbothioyl)sulfanyl-2-phenyl-acetyl]amino]thiazol-4-yl]acetate
> <PUBCHEM_IUPAC_CAS_NAME>
2-[2-[[1-oxo-2-phenyl-2-[[[4-(phenylmethyl)-1-piperidinyl]-sulfanylidenemethyl]thio]ethyl]amino]-4-thiazolyl]acetic acid ethyl ester
> <PUBCHEM_IUPAC_NAME_MARKUP>
ethyl 2-[2-[[2-(4-benzylpiperidine-1-carbothioyl)sulfanyl-2-phenylacetyl]amino]-1,3-thiazol-4-yl]acetate
> <PUBCHEM_IUPAC_NAME>
ethyl 2-[2-[[2-(4-benzylpiperidine-1-carbothioyl)sulfanyl-2-phenylacetyl]amino]-1,3-thiazol-4-yl]acetate
> <PUBCHEM_IUPAC_SYSTEMATIC_NAME>
ethyl 2-[2-[[2-phenyl-2-[4-(phenylmethyl)piperidin-1-yl]carbothioylsulfanyl-ethanoyl]amino]-1,3-thiazol-4-yl]ethanoate
> <PUBCHEM_IUPAC_TRADITIONAL_NAME>
2-[2-[[2-[(4-benzylpiperidine-1-carbothioyl)thio]-2-phenyl-acetyl]amino]thiazol-4-yl]acetic acid ethyl ester
> <PUBCHEM_IUPAC_INCHI>
InChI=1S/C28H31N3O3S3/c1-2-34-24(32)18-23-19-36-27(29-23)30-26(33)25(22-11-7-4-8-12-22)37-28(35)31-15-13-21(14-16-31)17-20-9-5-3-6-10-20/h3-12,19,21,25H,2,13-18H2,1H3,(H,29,30,33)
> <PUBCHEM_IUPAC_INCHIKEY>
HEFUNAAFYVVUMY-UHFFFAOYSA-N
> <PUBCHEM_XLOGP3_AA>
6.1
> <PUBCHEM_EXACT_MASS>
553.15275538
> <PUBCHEM_MOLECULAR_FORMULA>
C28H31N3O3S3
> <PUBCHEM_MOLECULAR_WEIGHT>
553.8
> <PUBCHEM_OPENEYE_CAN_SMILES>
CCOC(=O)CC1=CSC(=N1)NC(=O)C(C2=CC=CC=C2)SC(=S)N3CCC(CC3)CC4=CC=CC=C4
> <PUBCHEM_OPENEYE_ISO_SMILES>
CCOC(=O)CC1=CSC(=N1)NC(=O)C(C2=CC=CC=C2)SC(=S)N3CCC(CC3)CC4=CC=CC=C4
> <PUBCHEM_CACTVS_TPSA>
157
> <PUBCHEM_MONOISOTOPIC_WEIGHT>
553.15275538
> <PUBCHEM_TOTAL_CHARGE>
0
> <PUBCHEM_HEAVY_ATOM_COUNT>
37
> <PUBCHEM_ATOM_DEF_STEREO_COUNT>
0
> <PUBCHEM_ATOM_UDEF_STEREO_COUNT>
1
> <PUBCHEM_BOND_DEF_STEREO_COUNT>
0
> <PUBCHEM_BOND_UDEF_STEREO_COUNT>
0
> <PUBCHEM_ISOTOPIC_ATOM_COUNT>
0
> <PUBCHEM_COMPONENT_COUNT>
1
> <PUBCHEM_CACTVS_TAUTO_COUNT>
-1
> <PUBCHEM_COORDINATE_TYPE>
1
5
255
> <PUBCHEM_BONDANNOTATIONS>
16  18  8
16  19  8
18  21  8
19  22  8
20  25  3
21  23  8
22  23  8
24  26  8
24  27  8
26  28  8
27  29  8
28  30  8
29  30  8
3  31  8
3  33  8
32  33  8
9  31  8
9  32  8
$$$$
