504185
  -OEChem-10302200282D
106108  0     1  0  0  0  0  0999 V2000
    9.7942    3.2500    0.0000 O   0  0  0  0  0  0  0  0  0  0  0  0
   12.3923    0.7500    0.0000 O   0  0  0  0  0  0  0  0  0  0  0  0
   11.5263   -2.7500    0.0000 O   0  0  0  0  0  0  0  0  0  0  0  0
    7.1962    0.7500    0.0000 O   0  0  0  0  0  0  0  0  0  0  0  0
    6.3301    3.2500    0.0000 O   0  0  0  0  0  0  0  0  0  0  0  0
   14.9904   -3.7500    0.0000 O   0  0  0  0  0  0  0  0  0  0  0  0
   10.6603    0.7500    0.0000 N   0  0  0  0  0  0  0  0  0  0  0  0
    8.9282    1.7500    0.0000 N   0  0  0  0  0  0  0  0  0  0  0  0
   12.3923   -1.2500    0.0000 N   0  0  0  0  0  0  0  0  0  0  0  0
   14.1244   -2.2500    0.0000 N   0  0  0  0  0  0  0  0  0  0  0  0
    5.4641    1.7500    0.0000 N   0  0  0  0  0  0  0  0  0  0  0  0
   16.7224   -2.7500    0.0000 N   0  0  0  0  0  0  0  0  0  0  0  0
   16.7224   -0.7500    0.0000 N   0  0  0  0  0  0  0  0  0  0  0  0
   11.5263    3.2500    0.0000 C   0  0  0  0  0  0  0  0  0  0  0  0
   10.6603    3.7500    0.0000 C   0  0  0  0  0  0  0  0  0  0  0  0
   12.3923    3.7500    0.0000 C   0  0  0  0  0  0  0  0  0  0  0  0
   11.5263    2.2500    0.0000 C   0  0  0  0  0  0  0  0  0  0  0  0
   10.6603    4.7500    0.0000 C   0  0  0  0  0  0  0  0  0  0  0  0
   12.3923    4.7500    0.0000 C   0  0  0  0  0  0  0  0  0  0  0  0
   11.5263    5.2500    0.0000 C   0  0  0  0  0  0  0  0  0  0  0  0
   10.6603    1.7500    0.0000 C   0  0  1  0  0  0  0  0  0  0  0  0
    9.7942    2.2500    0.0000 C   0  0  0  0  0  0  0  0  0  0  0  0
   11.5263   -0.7500    0.0000 C   0  0  2  0  0  0  0  0  0  0  0  0
   11.5263    0.2500    0.0000 C   0  0  0  0  0  0  0  0  0  0  0  0
   10.6603   -1.2500    0.0000 C   0  0  2  0  0  0  0  0  0  0  0  0
    9.7942   -0.7500    0.0000 C   0  0  0  0  0  0  0  0  0  0  0  0
    8.0622    2.2500    0.0000 C   0  0  1  0  0  0  0  0  0  0  0  0
   10.6603   -2.2500    0.0000 C   0  0  0  0  0  0  0  0  0  0  0  0
   13.2583   -2.7500    0.0000 C   0  0  2  0  0  0  0  0  0  0  0  0
   12.3923   -2.2500    0.0000 C   0  0  0  0  0  0  0  0  0  0  0  0
    8.0622    3.2500    0.0000 C   0  0  0  0  0  0  0  0  0  0  0  0
   13.2583   -3.7500    0.0000 C   0  0  0  0  0  0  0  0  0  0  0  0
    8.9282   -1.2500    0.0000 C   0  0  0  0  0  0  0  0  0  0  0  0
    7.1962    1.7500    0.0000 C   0  0  0  0  0  0  0  0  0  0  0  0
   12.3923   -4.2500    0.0000 C   0  0  0  0  0  0  0  0  0  0  0  0
    7.1962    3.7500    0.0000 C   0  0  0  0  0  0  0  0  0  0  0  0
   12.3923   -5.2500    0.0000 C   0  0  0  0  0  0  0  0  0  0  0  0
   11.5263   -3.7500    0.0000 C   0  0  0  0  0  0  0  0  0  0  0  0
    6.3301    2.2500    0.0000 C   0  0  0  0  0  0  0  0  0  0  0  0
   14.9904   -2.7500    0.0000 C   0  0  0  0  0  0  0  0  0  0  0  0
   15.8564   -2.2500    0.0000 C   0  0  0  0  0  0  0  0  0  0  0  0
    4.5981    2.2500    0.0000 C   0  0  0  0  0  0  0  0  0  0  0  0
    3.7320    1.7500    0.0000 C   0  0  0  0  0  0  0  0  0  0  0  0
   15.8564   -1.2500    0.0000 C   0  0  0  0  0  0  0  0  0  0  0  0
    2.8660    2.2500    0.0000 C   0  0  0  0  0  0  0  0  0  0  0  0
    3.7320    0.7500    0.0000 C   0  0  0  0  0  0  0  0  0  0  0  0
   17.5885   -2.2500    0.0000 C   0  0  0  0  0  0  0  0  0  0  0  0
   17.5885   -1.2500    0.0000 C   0  0  0  0  0  0  0  0  0  0  0  0
    2.0000    1.7500    0.0000 C   0  0  0  0  0  0  0  0  0  0  0  0
    2.8660    0.2500    0.0000 C   0  0  0  0  0  0  0  0  0  0  0  0
    2.0000    0.7500    0.0000 C   0  0  0  0  0  0  0  0  0  0  0  0
   12.0632    2.9400    0.0000 H   0  0  0  0  0  0  0  0  0  0  0  0
   10.0497    3.8577    0.0000 H   0  0  0  0  0  0  0  0  0  0  0  0
   10.4482    3.1674    0.0000 H   0  0  0  0  0  0  0  0  0  0  0  0
   12.6044    3.1674    0.0000 H   0  0  0  0  0  0  0  0  0  0  0  0
   13.0029    3.8577    0.0000 H   0  0  0  0  0  0  0  0  0  0  0  0
   11.7383    1.6674    0.0000 H   0  0  0  0  0  0  0  0  0  0  0  0
   12.1369    2.3577    0.0000 H   0  0  0  0  0  0  0  0  0  0  0  0
   10.4482    5.3326    0.0000 H   0  0  0  0  0  0  0  0  0  0  0  0
   10.0497    4.6423    0.0000 H   0  0  0  0  0  0  0  0  0  0  0  0
   13.0029    4.6423    0.0000 H   0  0  0  0  0  0  0  0  0  0  0  0
   12.6044    5.3326    0.0000 H   0  0  0  0  0  0  0  0  0  0  0  0
   11.9248    5.7250    0.0000 H   0  0  0  0  0  0  0  0  0  0  0  0
   11.1278    5.7250    0.0000 H   0  0  0  0  0  0  0  0  0  0  0  0
   11.1972    1.4400    0.0000 H   0  0  0  0  0  0  0  0  0  0  0  0
   10.1233    0.4400    0.0000 H   0  0  0  0  0  0  0  0  0  0  0  0
   12.0632   -0.4400    0.0000 H   0  0  0  0  0  0  0  0  0  0  0  0
   11.1972   -1.5600    0.0000 H   0  0  0  0  0  0  0  0  0  0  0  0
    8.9282    1.1300    0.0000 H   0  0  0  0  0  0  0  0  0  0  0  0
   10.1928   -0.2751    0.0000 H   0  0  0  0  0  0  0  0  0  0  0  0
    9.3957   -0.2751    0.0000 H   0  0  0  0  0  0  0  0  0  0  0  0
    8.0622    1.6300    0.0000 H   0  0  0  0  0  0  0  0  0  0  0  0
   12.9292   -0.9400    0.0000 H   0  0  0  0  0  0  0  0  0  0  0  0
   10.0403   -2.2500    0.0000 H   0  0  0  0  0  0  0  0  0  0  0  0
   10.6603   -2.8700    0.0000 H   0  0  0  0  0  0  0  0  0  0  0  0
   11.2803   -2.2500    0.0000 H   0  0  0  0  0  0  0  0  0  0  0  0
   13.7953   -3.0600    0.0000 H   0  0  0  0  0  0  0  0  0  0  0  0
    8.6728    3.1423    0.0000 H   0  0  0  0  0  0  0  0  0  0  0  0
    8.2742    3.8326    0.0000 H   0  0  0  0  0  0  0  0  0  0  0  0
   13.4704   -4.3326    0.0000 H   0  0  0  0  0  0  0  0  0  0  0  0
   13.8689   -3.6423    0.0000 H   0  0  0  0  0  0  0  0  0  0  0  0
    8.6182   -0.7131    0.0000 H   0  0  0  0  0  0  0  0  0  0  0  0
    8.3913   -1.5600    0.0000 H   0  0  0  0  0  0  0  0  0  0  0  0
    9.2382   -1.7869    0.0000 H   0  0  0  0  0  0  0  0  0  0  0  0
   11.8554   -4.5600    0.0000 H   0  0  0  0  0  0  0  0  0  0  0  0
    7.5062    4.2869    0.0000 H   0  0  0  0  0  0  0  0  0  0  0  0
    6.6592    4.0600    0.0000 H   0  0  0  0  0  0  0  0  0  0  0  0
    6.8862    3.2131    0.0000 H   0  0  0  0  0  0  0  0  0  0  0  0
   14.1244   -1.6300    0.0000 H   0  0  0  0  0  0  0  0  0  0  0  0
   11.7723   -5.2500    0.0000 H   0  0  0  0  0  0  0  0  0  0  0  0
   12.3923   -5.8700    0.0000 H   0  0  0  0  0  0  0  0  0  0  0  0
   13.0123   -5.2500    0.0000 H   0  0  0  0  0  0  0  0  0  0  0  0
   11.8363   -3.2131    0.0000 H   0  0  0  0  0  0  0  0  0  0  0  0
   10.9893   -3.4400    0.0000 H   0  0  0  0  0  0  0  0  0  0  0  0
   11.2163   -4.2869    0.0000 H   0  0  0  0  0  0  0  0  0  0  0  0
    5.4641    1.1300    0.0000 H   0  0  0  0  0  0  0  0  0  0  0  0
    4.9966    2.7250    0.0000 H   0  0  0  0  0  0  0  0  0  0  0  0
    4.1996    2.7250    0.0000 H   0  0  0  0  0  0  0  0  0  0  0  0
   15.3195   -0.9400    0.0000 H   0  0  0  0  0  0  0  0  0  0  0  0
    2.8660    2.8700    0.0000 H   0  0  0  0  0  0  0  0  0  0  0  0
    4.2690    0.4400    0.0000 H   0  0  0  0  0  0  0  0  0  0  0  0
   18.1254   -2.5600    0.0000 H   0  0  0  0  0  0  0  0  0  0  0  0
   18.1254   -0.9400    0.0000 H   0  0  0  0  0  0  0  0  0  0  0  0
    1.4631    2.0600    0.0000 H   0  0  0  0  0  0  0  0  0  0  0  0
    2.8660   -0.3700    0.0000 H   0  0  0  0  0  0  0  0  0  0  0  0
    1.4631    0.4400    0.0000 H   0  0  0  0  0  0  0  0  0  0  0  0
  1 22  2  0  0  0  0
  2 24  2  0  0  0  0
  3 30  2  0  0  0  0
  4 34  2  0  0  0  0
  5 39  2  0  0  0  0
  6 40  2  0  0  0  0
 21  7  1  6  0  0  0
  7 24  1  0  0  0  0
  7 66  1  0  0  0  0
  8 22  1  0  0  0  0
 27  8  1  6  0  0  0
  8 69  1  0  0  0  0
 23  9  1  1  0  0  0
  9 30  1  0  0  0  0
  9 73  1  0  0  0  0
 29 10  1  1  0  0  0
 10 40  1  0  0  0  0
 10 89  1  0  0  0  0
 11 39  1  0  0  0  0
 11 42  1  0  0  0  0
 11 96  1  0  0  0  0
 12 41  2  0  0  0  0
 12 47  1  0  0  0  0
 13 44  2  0  0  0  0
 13 48  1  0  0  0  0
 14 15  1  0  0  0  0
 14 16  1  0  0  0  0
 14 17  1  0  0  0  0
 14 52  1  0  0  0  0
 15 18  1  0  0  0  0
 15 53  1  0  0  0  0
 15 54  1  0  0  0  0
 16 19  1  0  0  0  0
 16 55  1  0  0  0  0
 16 56  1  0  0  0  0
 17 21  1  0  0  0  0
 17 57  1  0  0  0  0
 17 58  1  0  0  0  0
 18 20  1  0  0  0  0
 18 59  1  0  0  0  0
 18 60  1  0  0  0  0
 19 20  1  0  0  0  0
 19 61  1  0  0  0  0
 19 62  1  0  0  0  0
 20 63  1  0  0  0  0
 20 64  1  0  0  0  0
 21 22  1  0  0  0  0
 21 65  1  0  0  0  0
 23 24  1  0  0  0  0
 23 25  1  0  0  0  0
 23 67  1  0  0  0  0
 25 26  1  0  0  0  0
 25 28  1  1  0  0  0
 25 68  1  0  0  0  0
 26 33  1  0  0  0  0
 26 70  1  0  0  0  0
 26 71  1  0  0  0  0
 27 31  1  0  0  0  0
 27 34  1  0  0  0  0
 27 72  1  0  0  0  0
 28 74  1  0  0  0  0
 28 75  1  0  0  0  0
 28 76  1  0  0  0  0
 29 30  1  0  0  0  0
 29 32  1  0  0  0  0
 29 77  1  0  0  0  0
 31 36  1  0  0  0  0
 31 78  1  0  0  0  0
 31 79  1  0  0  0  0
 32 35  1  0  0  0  0
 32 80  1  0  0  0  0
 32 81  1  0  0  0  0
 33 82  1  0  0  0  0
 33 83  1  0  0  0  0
 33 84  1  0  0  0  0
 34 39  1  0  0  0  0
 35 37  1  0  0  0  0
 35 38  1  0  0  0  0
 35 85  1  0  0  0  0
 36 86  1  0  0  0  0
 36 87  1  0  0  0  0
 36 88  1  0  0  0  0
 37 90  1  0  0  0  0
 37 91  1  0  0  0  0
 37 92  1  0  0  0  0
 38 93  1  0  0  0  0
 38 94  1  0  0  0  0
 38 95  1  0  0  0  0
 40 41  1  0  0  0  0
 41 44  1  0  0  0  0
 42 43  1  0  0  0  0
 42 97  1  0  0  0  0
 42 98  1  0  0  0  0
 43 45  2  0  0  0  0
 43 46  1  0  0  0  0
 44 99  1  0  0  0  0
 45 49  1  0  0  0  0
 45100  1  0  0  0  0
 46 50  2  0  0  0  0
 46101  1  0  0  0  0
 47 48  2  0  0  0  0
 47102  1  0  0  0  0
 48103  1  0  0  0  0
 49 51  2  0  0  0  0
 49104  1  0  0  0  0
 50 51  1  0  0  0  0
 50105  1  0  0  0  0
 51106  1  0  0  0  0
M  END
> <PUBCHEM_COMPOUND_CID>
504185
> <PUBCHEM_COMPOUND_CANONICALIZED>
1
> <PUBCHEM_CACTVS_COMPLEXITY>
1150
> <PUBCHEM_CACTVS_HBOND_ACCEPTOR>
8
> <PUBCHEM_CACTVS_HBOND_DONOR>
5
> <PUBCHEM_CACTVS_ROTATABLE_BOND>
19
> <PUBCHEM_CACTVS_SUBSKEYS>
AAADcfB/uAAAAAAAAAAAAAAAAAAAAAAAAAA8YIAAAAAAAAABwAAAHgAQAAAADSzBngQ+gJLIEACoA7V3VACCgCQ3EiAI2IG4dMgIYHrA0TGUIIhglgDIiMcYiICOAAAAAAAAAAAAAAAAAAAAAAAAAAAAAA==
> <PUBCHEM_IUPAC_OPENEYE_NAME>
N-[(1S)-1-[[(1S,2S)-1-[[(1S)-2-[[(1S)-3-(benzylamino)-1-ethyl-2,3-dioxo-propyl]amino]-1-(cyclohexylmethyl)-2-oxo-ethyl]carbamoyl]-2-methyl-butyl]carbamoyl]-3-methyl-butyl]pyrazine-2-carboxamide
> <PUBCHEM_IUPAC_CAS_NAME>
N-[(2S)-1-[[(2S,3S)-1-[[(2S)-3-cyclohexyl-1-[[(3S)-1,2-dioxo-1-[(phenylmethyl)amino]pentan-3-yl]amino]-1-oxopropan-2-yl]amino]-3-methyl-1-oxopentan-2-yl]amino]-4-methyl-1-oxopentan-2-yl]-2-pyrazinecarboxamide
> <PUBCHEM_IUPAC_NAME_MARKUP>
<I>N</I>-[(2<I>S</I>)-1-[[(2<I>S</I>,3<I>S</I>)-1-[[(2<I>S</I>)-1-[[(3<I>S</I>)-1-(benzylamino)-1,2-dioxopentan-3-yl]amino]-3-cyclohexyl-1-oxopropan-2-yl]amino]-3-methyl-1-oxopentan-2-yl]amino]-4-methyl-1-oxopentan-2-yl]pyrazine-2-carboxamide
> <PUBCHEM_IUPAC_NAME>
N-[(2S)-1-[[(2S,3S)-1-[[(2S)-1-[[(3S)-1-(benzylamino)-1,2-dioxopentan-3-yl]amino]-3-cyclohexyl-1-oxopropan-2-yl]amino]-3-methyl-1-oxopentan-2-yl]amino]-4-methyl-1-oxopentan-2-yl]pyrazine-2-carboxamide
> <PUBCHEM_IUPAC_SYSTEMATIC_NAME>
N-[(2S)-1-[[(2S,3S)-1-[[(2S)-1-[[(3S)-1,2-bis(oxidanylidene)-1-[(phenylmethyl)amino]pentan-3-yl]amino]-3-cyclohexyl-1-oxidanylidene-propan-2-yl]amino]-3-methyl-1-oxidanylidene-pentan-2-yl]amino]-4-methyl-1-oxidanylidene-pentan-2-yl]pyrazine-2-carboxamide
> <PUBCHEM_IUPAC_TRADITIONAL_NAME>
N-[(1S)-1-[[(1S,2S)-1-[[(1S)-2-[[(1S)-3-(benzylamino)-1-ethyl-2,3-diketo-propyl]amino]-1-(cyclohexylmethyl)-2-keto-ethyl]carbamoyl]-2-methyl-butyl]carbamoyl]-3-methyl-butyl]pyrazinamide
> <PUBCHEM_IUPAC_INCHI>
InChI=1S/C38H55N7O6/c1-6-25(5)32(45-35(48)29(20-24(3)4)43-36(49)31-23-39-18-19-40-31)37(50)44-30(21-26-14-10-8-11-15-26)34(47)42-28(7-2)33(46)38(51)41-22-27-16-12-9-13-17-27/h9,12-13,16-19,23-26,28-30,32H,6-8,10-11,14-15,20-22H2,1-5H3,(H,41,51)(H,42,47)(H,43,49)(H,44,50)(H,45,48)/t25-,28-,29-,30-,32-/m0/s1
> <PUBCHEM_IUPAC_INCHIKEY>
LPBCOZYJBRHXCB-HNXJGGLFSA-N
> <PUBCHEM_XLOGP3_AA>
5.7
> <PUBCHEM_EXACT_MASS>
705.42138250
> <PUBCHEM_MOLECULAR_FORMULA>
C38H55N7O6
> <PUBCHEM_MOLECULAR_WEIGHT>
705.9
> <PUBCHEM_OPENEYE_CAN_SMILES>
CCC(C)C(C(=O)NC(CC1CCCCC1)C(=O)NC(CC)C(=O)C(=O)NCC2=CC=CC=C2)NC(=O)C(CC(C)C)NC(=O)C3=NC=CN=C3
> <PUBCHEM_OPENEYE_ISO_SMILES>
CC[C@H](C)[C@@H](C(=O)N[C@@H](CC1CCCCC1)C(=O)N[C@@H](CC)C(=O)C(=O)NCC2=CC=CC=C2)NC(=O)[C@H](CC(C)C)NC(=O)C3=NC=CN=C3
> <PUBCHEM_CACTVS_TPSA>
188
> <PUBCHEM_MONOISOTOPIC_WEIGHT>
705.42138250
> <PUBCHEM_TOTAL_CHARGE>
0
> <PUBCHEM_HEAVY_ATOM_COUNT>
51
> <PUBCHEM_ATOM_DEF_STEREO_COUNT>
5
> <PUBCHEM_ATOM_UDEF_STEREO_COUNT>
0
> <PUBCHEM_BOND_DEF_STEREO_COUNT>
0
> <PUBCHEM_BOND_UDEF_STEREO_COUNT>
0
> <PUBCHEM_ISOTOPIC_ATOM_COUNT>
0
> <PUBCHEM_COMPONENT_COUNT>
1
> <PUBCHEM_CACTVS_TAUTO_COUNT>
-1
> <PUBCHEM_COORDINATE_TYPE>
1
5
255
> <PUBCHEM_BONDANNOTATIONS>
29  10  5
12  41  8
12  47  8
13  44  8
13  48  8
25  28  5
41  44  8
43  45  8
43  46  8
45  49  8
46  50  8
47  48  8
49  51  8
50  51  8
21  7  6
27  8  6
23  9  5
$$$$
