504175
  -OEChem-10302200282D
 38 38  0     1  0  0  0  0  0999 V2000
    5.4071    3.3644    0.0000 O   0  0  0  0  0  0  0  0  0  0  0  0
    2.8090   -1.1356    0.0000 N   0  0  0  0  0  0  0  0  0  0  0  0
    4.5411    0.8644    0.0000 N   0  0  0  0  0  0  0  0  0  0  0  0
    2.8090   -2.1356    0.0000 C   0  0  0  0  0  0  0  0  0  0  0  0
    2.0000   -2.7234    0.0000 C   0  0  0  0  0  0  0  0  0  0  0  0
    3.6180   -2.7234    0.0000 C   0  0  0  0  0  0  0  0  0  0  0  0
    2.3090   -3.6744    0.0000 C   0  0  0  0  0  0  0  0  0  0  0  0
    3.3090   -3.6744    0.0000 C   0  0  0  0  0  0  0  0  0  0  0  0
    3.6750   -0.6356    0.0000 C   0  0  0  0  0  0  0  0  0  0  0  0
    3.6750    0.3644    0.0000 C   0  0  0  0  0  0  0  0  0  0  0  0
    4.5411    1.8644    0.0000 C   0  0  3  0  0  0  0  0  0  0  0  0
    3.6750    2.3644    0.0000 C   0  0  0  0  0  0  0  0  0  0  0  0
    5.4071    2.3644    0.0000 C   0  0  0  0  0  0  0  0  0  0  0  0
    3.6750    3.3644    0.0000 C   0  0  0  0  0  0  0  0  0  0  0  0
    3.3614   -1.8541    0.0000 H   0  0  0  0  0  0  0  0  0  0  0  0
    1.6900   -2.1864    0.0000 H   0  0  0  0  0  0  0  0  0  0  0  0
    1.4336   -2.9755    0.0000 H   0  0  0  0  0  0  0  0  0  0  0  0
    4.1844   -2.9755    0.0000 H   0  0  0  0  0  0  0  0  0  0  0  0
    3.9280   -2.1864    0.0000 H   0  0  0  0  0  0  0  0  0  0  0  0
    1.7026   -3.8033    0.0000 H   0  0  0  0  0  0  0  0  0  0  0  0
    2.3738   -4.2910    0.0000 H   0  0  0  0  0  0  0  0  0  0  0  0
    3.2442   -4.2910    0.0000 H   0  0  0  0  0  0  0  0  0  0  0  0
    3.9155   -3.8033    0.0000 H   0  0  0  0  0  0  0  0  0  0  0  0
    2.2721   -0.8256    0.0000 H   0  0  0  0  0  0  0  0  0  0  0  0
    3.8871   -1.2182    0.0000 H   0  0  0  0  0  0  0  0  0  0  0  0
    4.2856   -0.5279    0.0000 H   0  0  0  0  0  0  0  0  0  0  0  0
    3.4630    0.9470    0.0000 H   0  0  0  0  0  0  0  0  0  0  0  0
    3.0645    0.2568    0.0000 H   0  0  0  0  0  0  0  0  0  0  0  0
    4.0041    1.5544    0.0000 H   0  0  0  0  0  0  0  0  0  0  0  0
    5.0780    0.5544    0.0000 H   0  0  0  0  0  0  0  0  0  0  0  0
    3.0645    2.4721    0.0000 H   0  0  0  0  0  0  0  0  0  0  0  0
    3.4630    1.7818    0.0000 H   0  0  0  0  0  0  0  0  0  0  0  0
    5.6192    1.7818    0.0000 H   0  0  0  0  0  0  0  0  0  0  0  0
    6.0177    2.4721    0.0000 H   0  0  0  0  0  0  0  0  0  0  0  0
    4.2950    3.3644    0.0000 H   0  0  0  0  0  0  0  0  0  0  0  0
    3.6750    3.9844    0.0000 H   0  0  0  0  0  0  0  0  0  0  0  0
    3.0550    3.3644    0.0000 H   0  0  0  0  0  0  0  0  0  0  0  0
    5.9440    3.6744    0.0000 H   0  0  0  0  0  0  0  0  0  0  0  0
  1 13  1  0  0  0  0
  1 38  1  0  0  0  0
  2  4  1  0  0  0  0
  2  9  1  0  0  0  0
  2 24  1  0  0  0  0
  3 10  1  0  0  0  0
  3 11  1  0  0  0  0
  3 30  1  0  0  0  0
  4  5  1  0  0  0  0
  4  6  1  0  0  0  0
  4 15  1  0  0  0  0
  5  7  1  0  0  0  0
  5 16  1  0  0  0  0
  5 17  1  0  0  0  0
  6  8  1  0  0  0  0
  6 18  1  0  0  0  0
  6 19  1  0  0  0  0
  7  8  1  0  0  0  0
  7 20  1  0  0  0  0
  7 21  1  0  0  0  0
  8 22  1  0  0  0  0
  8 23  1  0  0  0  0
  9 10  1  0  0  0  0
  9 25  1  0  0  0  0
  9 26  1  0  0  0  0
 10 27  1  0  0  0  0
 10 28  1  0  0  0  0
 11 12  1  0  0  0  0
 11 13  1  0  0  0  0
 11 29  1  0  0  0  0
 12 14  1  0  0  0  0
 12 31  1  0  0  0  0
 12 32  1  0  0  0  0
 13 33  1  0  0  0  0
 13 34  1  0  0  0  0
 14 35  1  0  0  0  0
 14 36  1  0  0  0  0
 14 37  1  0  0  0  0
M  END
> <PUBCHEM_COMPOUND_CID>
504175
> <PUBCHEM_COMPOUND_CANONICALIZED>
1
> <PUBCHEM_CACTVS_COMPLEXITY>
135
> <PUBCHEM_CACTVS_HBOND_ACCEPTOR>
3
> <PUBCHEM_CACTVS_HBOND_DONOR>
3
> <PUBCHEM_CACTVS_ROTATABLE_BOND>
7
> <PUBCHEM_CACTVS_SUBSKEYS>
AAADceBzIAAAAAAAAAAAAAAAAAAAAYAAAAAAAAAAAAAAAAAAAAAAHgAQCAAACCjhgAYCAALAAgAAAAAAAAAAAAAAAAAAAIAIAAACUAIAgAAUQAAEEACQAAAQAAAAAAAAAAAAAAAAAAAAAAAAAAAAAAAAAA==
> <PUBCHEM_IUPAC_OPENEYE_NAME>
2-[2-(cyclopentylamino)ethylamino]butan-1-ol
> <PUBCHEM_IUPAC_CAS_NAME>
2-[2-(cyclopentylamino)ethylamino]-1-butanol
> <PUBCHEM_IUPAC_NAME_MARKUP>
2-[2-(cyclopentylamino)ethylamino]butan-1-ol
> <PUBCHEM_IUPAC_NAME>
2-[2-(cyclopentylamino)ethylamino]butan-1-ol
> <PUBCHEM_IUPAC_SYSTEMATIC_NAME>
2-[2-(cyclopentylamino)ethylamino]butan-1-ol
> <PUBCHEM_IUPAC_TRADITIONAL_NAME>
2-[2-(cyclopentylamino)ethylamino]butan-1-ol
> <PUBCHEM_IUPAC_INCHI>
InChI=1S/C11H24N2O/c1-2-10(9-14)12-7-8-13-11-5-3-4-6-11/h10-14H,2-9H2,1H3
> <PUBCHEM_IUPAC_INCHIKEY>
KBOBLBIMQBMICU-UHFFFAOYSA-N
> <PUBCHEM_XLOGP3_AA>
0.9
> <PUBCHEM_EXACT_MASS>
200.188863393
> <PUBCHEM_MOLECULAR_FORMULA>
C11H24N2O
> <PUBCHEM_MOLECULAR_WEIGHT>
200.32
> <PUBCHEM_OPENEYE_CAN_SMILES>
CCC(CO)NCCNC1CCCC1
> <PUBCHEM_OPENEYE_ISO_SMILES>
CCC(CO)NCCNC1CCCC1
> <PUBCHEM_CACTVS_TPSA>
44.3
> <PUBCHEM_MONOISOTOPIC_WEIGHT>
200.188863393
> <PUBCHEM_TOTAL_CHARGE>
0
> <PUBCHEM_HEAVY_ATOM_COUNT>
14
> <PUBCHEM_ATOM_DEF_STEREO_COUNT>
0
> <PUBCHEM_ATOM_UDEF_STEREO_COUNT>
1
> <PUBCHEM_BOND_DEF_STEREO_COUNT>
0
> <PUBCHEM_BOND_UDEF_STEREO_COUNT>
0
> <PUBCHEM_ISOTOPIC_ATOM_COUNT>
0
> <PUBCHEM_COMPONENT_COUNT>
1
> <PUBCHEM_CACTVS_TAUTO_COUNT>
-1
> <PUBCHEM_COORDINATE_TYPE>
1
5
255
> <PUBCHEM_BONDANNOTATIONS>
11  12  3
$$$$
