504138
  -OEChem-10302200282D
 51 52  0     1  0  0  0  0  0999 V2000
    8.0240    1.8261    0.0000 S   0  0  0  0  0  0  0  0  0  0  0  0
    9.7560    1.8261    0.0000 S   0  0  0  0  0  0  0  0  0  0  0  0
    5.3784   -0.7672    0.0000 S   0  0  0  0  0  0  0  0  0  0  0  0
    6.2919    0.8261    0.0000 O   0  0  0  0  0  0  0  0  0  0  0  0
    3.4013   -4.3080    0.0000 O   0  0  0  0  0  0  0  0  0  0  0  0
    3.2202   -2.5854    0.0000 O   0  0  0  0  0  0  0  0  0  0  0  0
    8.8900    3.3261    0.0000 N   0  0  0  0  0  0  0  0  0  0  0  0
    7.1580   -0.6739    0.0000 N   0  0  0  0  0  0  0  0  0  0  0  0
    6.1874   -2.1685    0.0000 N   0  0  0  0  0  0  0  0  0  0  0  0
    8.0240    3.8261    0.0000 C   0  0  3  0  0  0  0  0  0  0  0  0
    9.7560    3.8261    0.0000 C   0  0  3  0  0  0  0  0  0  0  0  0
    8.0240    4.8261    0.0000 C   0  0  0  0  0  0  0  0  0  0  0  0
    9.7560    4.8261    0.0000 C   0  0  0  0  0  0  0  0  0  0  0  0
    8.8900    5.3261    0.0000 C   0  0  0  0  0  0  0  0  0  0  0  0
    7.1580    3.3261    0.0000 C   0  0  0  0  0  0  0  0  0  0  0  0
   10.6221    3.3261    0.0000 C   0  0  0  0  0  0  0  0  0  0  0  0
    8.8900    2.3261    0.0000 C   0  0  0  0  0  0  0  0  0  0  0  0
    8.0240    0.8261    0.0000 C   0  0  0  0  0  0  0  0  0  0  0  0
    7.1580    0.3261    0.0000 C   0  0  0  0  0  0  0  0  0  0  0  0
    6.2919   -1.1739    0.0000 C   0  0  0  0  0  0  0  0  0  0  0  0
    5.2092   -2.3764    0.0000 C   0  0  0  0  0  0  0  0  0  0  0  0
    4.8025   -3.2899    0.0000 C   0  0  0  0  0  0  0  0  0  0  0  0
    4.7092   -1.5103    0.0000 C   0  0  0  0  0  0  0  0  0  0  0  0
    3.8080   -3.3944    0.0000 C   0  0  0  0  0  0  0  0  0  0  0  0
    2.4067   -4.4125    0.0000 C   0  0  0  0  0  0  0  0  0  0  0  0
    2.0000   -5.3261    0.0000 C   0  0  0  0  0  0  0  0  0  0  0  0
    8.0240    3.2061    0.0000 H   0  0  0  0  0  0  0  0  0  0  0  0
    9.7560    3.2061    0.0000 H   0  0  0  0  0  0  0  0  0  0  0  0
    7.8119    5.4087    0.0000 H   0  0  0  0  0  0  0  0  0  0  0  0
    7.4134    4.7184    0.0000 H   0  0  0  0  0  0  0  0  0  0  0  0
   10.3666    4.7184    0.0000 H   0  0  0  0  0  0  0  0  0  0  0  0
    9.9681    5.4087    0.0000 H   0  0  0  0  0  0  0  0  0  0  0  0
    9.2885    5.8010    0.0000 H   0  0  0  0  0  0  0  0  0  0  0  0
    8.4915    5.8010    0.0000 H   0  0  0  0  0  0  0  0  0  0  0  0
    6.8480    3.8630    0.0000 H   0  0  0  0  0  0  0  0  0  0  0  0
    6.6210    3.0161    0.0000 H   0  0  0  0  0  0  0  0  0  0  0  0
    7.4680    2.7891    0.0000 H   0  0  0  0  0  0  0  0  0  0  0  0
   10.3121    2.7891    0.0000 H   0  0  0  0  0  0  0  0  0  0  0  0
   11.1590    3.0161    0.0000 H   0  0  0  0  0  0  0  0  0  0  0  0
   10.9321    3.8630    0.0000 H   0  0  0  0  0  0  0  0  0  0  0  0
    8.2360    0.2435    0.0000 H   0  0  0  0  0  0  0  0  0  0  0  0
    8.6346    0.9337    0.0000 H   0  0  0  0  0  0  0  0  0  0  0  0
    7.6949   -0.9839    0.0000 H   0  0  0  0  0  0  0  0  0  0  0  0
    4.7593   -3.9084    0.0000 H   0  0  0  0  0  0  0  0  0  0  0  0
    5.4041   -3.4399    0.0000 H   0  0  0  0  0  0  0  0  0  0  0  0
    4.0926   -1.4455    0.0000 H   0  0  0  0  0  0  0  0  0  0  0  0
    2.4500   -3.7940    0.0000 H   0  0  0  0  0  0  0  0  0  0  0  0
    1.8052   -4.2625    0.0000 H   0  0  0  0  0  0  0  0  0  0  0  0
    1.4336   -5.0739    0.0000 H   0  0  0  0  0  0  0  0  0  0  0  0
    1.7478   -5.8925    0.0000 H   0  0  0  0  0  0  0  0  0  0  0  0
    2.5664   -5.5782    0.0000 H   0  0  0  0  0  0  0  0  0  0  0  0
  1 17  1  0  0  0  0
  1 18  1  0  0  0  0
  2 17  2  0  0  0  0
  3 20  1  0  0  0  0
  3 23  1  0  0  0  0
  4 19  2  0  0  0  0
  5 24  1  0  0  0  0
  5 25  1  0  0  0  0
  6 24  2  0  0  0  0
  7 10  1  0  0  0  0
  7 11  1  0  0  0  0
  7 17  1  0  0  0  0
  8 19  1  0  0  0  0
  8 20  1  0  0  0  0
  8 43  1  0  0  0  0
  9 20  2  0  0  0  0
  9 21  1  0  0  0  0
 10 12  1  0  0  0  0
 10 15  1  0  0  0  0
 10 27  1  0  0  0  0
 11 13  1  0  0  0  0
 11 16  1  0  0  0  0
 11 28  1  0  0  0  0
 12 14  1  0  0  0  0
 12 29  1  0  0  0  0
 12 30  1  0  0  0  0
 13 14  1  0  0  0  0
 13 31  1  0  0  0  0
 13 32  1  0  0  0  0
 14 33  1  0  0  0  0
 14 34  1  0  0  0  0
 15 35  1  0  0  0  0
 15 36  1  0  0  0  0
 15 37  1  0  0  0  0
 16 38  1  0  0  0  0
 16 39  1  0  0  0  0
 16 40  1  0  0  0  0
 18 19  1  0  0  0  0
 18 41  1  0  0  0  0
 18 42  1  0  0  0  0
 21 22  1  0  0  0  0
 21 23  2  0  0  0  0
 22 24  1  0  0  0  0
 22 44  1  0  0  0  0
 22 45  1  0  0  0  0
 23 46  1  0  0  0  0
 25 26  1  0  0  0  0
 25 47  1  0  0  0  0
 25 48  1  0  0  0  0
 26 49  1  0  0  0  0
 26 50  1  0  0  0  0
 26 51  1  0  0  0  0
M  END
> <PUBCHEM_COMPOUND_CID>
504138
> <PUBCHEM_COMPOUND_CANONICALIZED>
1
> <PUBCHEM_CACTVS_COMPLEXITY>
511
> <PUBCHEM_CACTVS_HBOND_ACCEPTOR>
7
> <PUBCHEM_CACTVS_HBOND_DONOR>
1
> <PUBCHEM_CACTVS_ROTATABLE_BOND>
8
> <PUBCHEM_CACTVS_SUBSKEYS>
AAADceB7MABgAAAAAAAAAAAAAAAAAWAAAAAsAAAAAAAAAAABgAAAHgQQAAAACCjl1gajmRPIFAisAQXyfAAA8KlhCjkBABU4IAiAIBogjQAGAAAOUQOAACEQgAAAAAAAAAAAAAAAAAAAAAAAAAAAAAAAAA==
> <PUBCHEM_IUPAC_OPENEYE_NAME>
ethyl 2-[2-[[2-(2,6-dimethylpiperidine-1-carbothioyl)sulfanylacetyl]amino]thiazol-4-yl]acetate
> <PUBCHEM_IUPAC_CAS_NAME>
2-[2-[[2-[[(2,6-dimethyl-1-piperidinyl)-sulfanylidenemethyl]thio]-1-oxoethyl]amino]-4-thiazolyl]acetic acid ethyl ester
> <PUBCHEM_IUPAC_NAME_MARKUP>
ethyl 2-[2-[[2-(2,6-dimethylpiperidine-1-carbothioyl)sulfanylacetyl]amino]-1,3-thiazol-4-yl]acetate
> <PUBCHEM_IUPAC_NAME>
ethyl 2-[2-[[2-(2,6-dimethylpiperidine-1-carbothioyl)sulfanylacetyl]amino]-1,3-thiazol-4-yl]acetate
> <PUBCHEM_IUPAC_SYSTEMATIC_NAME>
ethyl 2-[2-[2-(2,6-dimethylpiperidin-1-yl)carbothioylsulfanylethanoylamino]-1,3-thiazol-4-yl]ethanoate
> <PUBCHEM_IUPAC_TRADITIONAL_NAME>
2-[2-[[2-[(2,6-dimethylpiperidine-1-carbothioyl)thio]acetyl]amino]thiazol-4-yl]acetic acid ethyl ester
> <PUBCHEM_IUPAC_INCHI>
InChI=1S/C17H25N3O3S3/c1-4-23-15(22)8-13-9-25-16(18-13)19-14(21)10-26-17(24)20-11(2)6-5-7-12(20)3/h9,11-12H,4-8,10H2,1-3H3,(H,18,19,21)
> <PUBCHEM_IUPAC_INCHIKEY>
TUNCHUHGJCGLRF-UHFFFAOYSA-N
> <PUBCHEM_XLOGP3_AA>
3.4
> <PUBCHEM_EXACT_MASS>
415.10580519
> <PUBCHEM_MOLECULAR_FORMULA>
C17H25N3O3S3
> <PUBCHEM_MOLECULAR_WEIGHT>
415.6
> <PUBCHEM_OPENEYE_CAN_SMILES>
CCOC(=O)CC1=CSC(=N1)NC(=O)CSC(=S)N2C(CCCC2C)C
> <PUBCHEM_OPENEYE_ISO_SMILES>
CCOC(=O)CC1=CSC(=N1)NC(=O)CSC(=S)N2C(CCCC2C)C
> <PUBCHEM_CACTVS_TPSA>
157
> <PUBCHEM_MONOISOTOPIC_WEIGHT>
415.10580519
> <PUBCHEM_TOTAL_CHARGE>
0
> <PUBCHEM_HEAVY_ATOM_COUNT>
26
> <PUBCHEM_ATOM_DEF_STEREO_COUNT>
0
> <PUBCHEM_ATOM_UDEF_STEREO_COUNT>
2
> <PUBCHEM_BOND_DEF_STEREO_COUNT>
0
> <PUBCHEM_BOND_UDEF_STEREO_COUNT>
0
> <PUBCHEM_ISOTOPIC_ATOM_COUNT>
0
> <PUBCHEM_COMPONENT_COUNT>
1
> <PUBCHEM_CACTVS_TAUTO_COUNT>
-1
> <PUBCHEM_COORDINATE_TYPE>
1
5
255
> <PUBCHEM_BONDANNOTATIONS>
10  15  3
11  16  3
21  23  8
3  20  8
3  23  8
9  20  8
9  21  8
$$$$
