504104
  -OEChem-10302200282D
102108  0     1  0  0  0  0  0999 V2000
    3.9235   -6.2021    0.0000 F   0  0  0  0  0  0  0  0  0  0  0  0
    2.6878   -6.8899    0.0000 F   0  0  0  0  0  0  0  0  0  0  0  0
    2.0000   -5.6542    0.0000 F   0  0  0  0  0  0  0  0  0  0  0  0
    9.6397    3.2600    0.0000 O   0  0  0  0  0  0  0  0  0  0  0  0
    8.3054    4.1600    0.0000 O   0  0  0  0  0  0  0  0  0  0  0  0
    6.9686    0.7390    0.0000 O   0  0  0  0  0  0  0  0  0  0  0  0
    6.2714   -0.6323    0.0000 O   0  0  0  0  0  0  0  0  0  0  0  0
   10.7614   -2.9571    0.0000 O   0  0  0  0  0  0  0  0  0  0  0  0
   13.2349   -6.1006    0.0000 O   0  0  0  0  0  0  0  0  0  0  0  0
   11.6268   -5.4573    0.0000 O   0  0  0  0  0  0  0  0  0  0  0  0
    8.5254    1.4983    0.0000 N   0  0  0  0  0  0  0  0  0  0  0  0
    7.9371   -1.1068    0.0000 N   0  0  0  0  0  0  0  0  0  0  0  0
   10.5144   -1.2427    0.0000 N   0  0  0  0  0  0  0  0  0  0  0  0
    8.3591   -2.7867    0.0000 N   0  0  0  0  0  0  0  0  0  0  0  0
    5.7234   -2.5558    0.0000 N   0  0  0  0  0  0  0  0  0  0  0  0
   12.1226   -1.8860    0.0000 N   0  0  0  0  0  0  0  0  0  0  0  0
   11.1372    5.0805    0.0000 C   0  0  3  0  0  0  0  0  0  0  0  0
   12.5362    5.0893    0.0000 C   0  0  0  0  0  0  0  0  0  0  0  0
   11.3961    6.0464    0.0000 C   0  0  3  0  0  0  0  0  0  0  0  0
   10.6594    7.0290    0.0000 C   0  0  0  0  0  0  0  0  0  0  0  0
    9.9162    4.2148    0.0000 C   0  0  3  0  0  0  0  0  0  0  0  0
    9.0872    4.7740    0.0000 C   0  0  2  0  0  0  0  0  0  0  0  0
    9.3628    5.7353    0.0000 C   0  0  0  0  0  0  0  0  0  0  0  0
   13.4022    5.5893    0.0000 C   0  0  0  0  0  0  0  0  0  0  0  0
   13.0362    4.2233    0.0000 C   0  0  0  0  0  0  0  0  0  0  0  0
    8.2581    5.3332    0.0000 C   0  0  0  0  0  0  0  0  0  0  0  0
    8.0870    2.3971    0.0000 C   0  0  1  0  0  0  0  0  0  0  0  0
    7.0895    2.4669    0.0000 C   0  0  0  0  0  0  0  0  0  0  0  0
    6.5303    1.6378    0.0000 C   0  0  0  0  0  0  0  0  0  0  0  0
    7.9662    0.6693    0.0000 C   0  0  0  0  0  0  0  0  0  0  0  0
    8.4046   -0.2295    0.0000 C   0  0  2  0  0  0  0  0  0  0  0  0
    9.3837   -0.4013    0.0000 C   0  0  0  0  0  0  0  0  0  0  0  0
    9.5246   -1.3853    0.0000 C   0  0  2  0  0  0  0  0  0  0  0  0
    8.6330   -1.8250    0.0000 C   0  0  0  0  0  0  0  0  0  0  0  0
    9.9661   -2.2826    0.0000 C   0  0  0  0  0  0  0  0  0  0  0  0
    6.9673   -1.3504    0.0000 C   0  0  0  0  0  0  0  0  0  0  0  0
    6.6933   -2.3122    0.0000 C   0  0  0  0  0  0  0  0  0  0  0  0
    7.3892   -3.0303    0.0000 C   0  0  0  0  0  0  0  0  0  0  0  0
   11.1328   -2.0286    0.0000 C   0  0  0  0  0  0  0  0  0  0  0  0
    5.4494   -3.5175    0.0000 C   0  0  0  0  0  0  0  0  0  0  0  0
   12.7409   -2.6719    0.0000 C   0  0  0  0  0  0  0  0  0  0  0  0
    4.4796   -3.7611    0.0000 C   0  0  0  0  0  0  0  0  0  0  0  0
   12.3696   -3.6004    0.0000 C   0  0  0  0  0  0  0  0  0  0  0  0
   13.7307   -2.5293    0.0000 C   0  0  0  0  0  0  0  0  0  0  0  0
    4.2056   -4.7228    0.0000 C   0  0  0  0  0  0  0  0  0  0  0  0
    3.7837   -3.0430    0.0000 C   0  0  0  0  0  0  0  0  0  0  0  0
   12.9879   -4.3862    0.0000 C   0  0  0  0  0  0  0  0  0  0  0  0
   14.3491   -3.3152    0.0000 C   0  0  0  0  0  0  0  0  0  0  0  0
    3.2357   -4.9664    0.0000 C   0  0  0  0  0  0  0  0  0  0  0  0
    2.8138   -3.2866    0.0000 C   0  0  0  0  0  0  0  0  0  0  0  0
   13.9777   -4.2436    0.0000 C   0  0  0  0  0  0  0  0  0  0  0  0
    2.5398   -4.2483    0.0000 C   0  0  0  0  0  0  0  0  0  0  0  0
    2.9617   -5.9282    0.0000 C   0  0  0  0  0  0  0  0  0  0  0  0
   12.6165   -5.3147    0.0000 C   0  0  0  0  0  0  0  0  0  0  0  0
   12.8635   -7.0290    0.0000 C   0  0  0  0  0  0  0  0  0  0  0  0
    8.6462    3.2262    0.0000 B   0  0  0  0  0  0  0  0  0  0  0  0
   11.3273    4.4904    0.0000 H   0  0  0  0  0  0  0  0  0  0  0  0
   11.8464    6.4726    0.0000 H   0  0  0  0  0  0  0  0  0  0  0  0
   10.9772    7.5614    0.0000 H   0  0  0  0  0  0  0  0  0  0  0  0
   10.0463    7.1210    0.0000 H   0  0  0  0  0  0  0  0  0  0  0  0
   10.4216    3.8556    0.0000 H   0  0  0  0  0  0  0  0  0  0  0  0
    9.3578    6.3553    0.0000 H   0  0  0  0  0  0  0  0  0  0  0  0
    8.7485    5.8191    0.0000 H   0  0  0  0  0  0  0  0  0  0  0  0
   13.7122    5.0524    0.0000 H   0  0  0  0  0  0  0  0  0  0  0  0
   13.9391    5.8993    0.0000 H   0  0  0  0  0  0  0  0  0  0  0  0
   13.0922    6.1263    0.0000 H   0  0  0  0  0  0  0  0  0  0  0  0
   12.4992    3.9133    0.0000 H   0  0  0  0  0  0  0  0  0  0  0  0
   13.3462    3.6864    0.0000 H   0  0  0  0  0  0  0  0  0  0  0  0
   13.5731    4.5333    0.0000 H   0  0  0  0  0  0  0  0  0  0  0  0
    8.6048    5.8472    0.0000 H   0  0  0  0  0  0  0  0  0  0  0  0
    7.7441    5.6799    0.0000 H   0  0  0  0  0  0  0  0  0  0  0  0
    7.9114    4.8192    0.0000 H   0  0  0  0  0  0  0  0  0  0  0  0
    7.7403    1.8831    0.0000 H   0  0  0  0  0  0  0  0  0  0  0  0
    7.2395    3.0685    0.0000 H   0  0  0  0  0  0  0  0  0  0  0  0
    6.5231    2.7191    0.0000 H   0  0  0  0  0  0  0  0  0  0  0  0
    9.1439    1.4551    0.0000 H   0  0  0  0  0  0  0  0  0  0  0  0
    6.0163    1.9845    0.0000 H   0  0  0  0  0  0  0  0  0  0  0  0
    6.1836    1.1238    0.0000 H   0  0  0  0  0  0  0  0  0  0  0  0
    7.0443    1.2911    0.0000 H   0  0  0  0  0  0  0  0  0  0  0  0
    7.7847   -0.2184    0.0000 H   0  0  0  0  0  0  0  0  0  0  0  0
   10.0033   -0.3784    0.0000 H   0  0  0  0  0  0  0  0  0  0  0  0
    9.4261    0.2173    0.0000 H   0  0  0  0  0  0  0  0  0  0  0  0
    9.4098   -2.5563    0.0000 H   0  0  0  0  0  0  0  0  0  0  0  0
   10.2398   -2.8389    0.0000 H   0  0  0  0  0  0  0  0  0  0  0  0
   10.5224   -2.0089    0.0000 H   0  0  0  0  0  0  0  0  0  0  0  0
   10.7447   -0.6671    0.0000 H   0  0  0  0  0  0  0  0  0  0  0  0
    7.2193   -3.6266    0.0000 H   0  0  0  0  0  0  0  0  0  0  0  0
    5.2920   -2.1105    0.0000 H   0  0  0  0  0  0  0  0  0  0  0  0
   12.3528   -1.3103    0.0000 H   0  0  0  0  0  0  0  0  0  0  0  0
    5.4938   -4.1359    0.0000 H   0  0  0  0  0  0  0  0  0  0  0  0
    6.0662   -3.5812    0.0000 H   0  0  0  0  0  0  0  0  0  0  0  0
   11.7559   -3.6888    0.0000 H   0  0  0  0  0  0  0  0  0  0  0  0
   13.9610   -1.9536    0.0000 H   0  0  0  0  0  0  0  0  0  0  0  0
    4.6370   -5.1681    0.0000 H   0  0  0  0  0  0  0  0  0  0  0  0
    3.9535   -2.4467    0.0000 H   0  0  0  0  0  0  0  0  0  0  0  0
   14.9628   -3.2267    0.0000 H   0  0  0  0  0  0  0  0  0  0  0  0
    2.3823   -2.8413    0.0000 H   0  0  0  0  0  0  0  0  0  0  0  0
   14.3611   -4.7309    0.0000 H   0  0  0  0  0  0  0  0  0  0  0  0
    1.9385   -4.3993    0.0000 H   0  0  0  0  0  0  0  0  0  0  0  0
   12.2879   -6.7988    0.0000 H   0  0  0  0  0  0  0  0  0  0  0  0
   12.6333   -7.6047    0.0000 H   0  0  0  0  0  0  0  0  0  0  0  0
   13.4392   -7.2593    0.0000 H   0  0  0  0  0  0  0  0  0  0  0  0
  1 53  1  0  0  0  0
  2 53  1  0  0  0  0
  3 53  1  0  0  0  0
  4 21  1  0  0  0  0
  4 56  1  0  0  0  0
  5 22  1  0  0  0  0
  5 56  1  0  0  0  0
  6 30  2  0  0  0  0
  7 36  2  0  0  0  0
  8 39  2  0  0  0  0
  9 54  1  0  0  0  0
  9 55  1  0  0  0  0
 10 54  2  0  0  0  0
 27 11  1  1  0  0  0
 11 30  1  0  0  0  0
 11 76  1  0  0  0  0
 12 31  1  0  0  0  0
 12 34  1  0  0  0  0
 12 36  1  0  0  0  0
 33 13  1  1  0  0  0
 13 39  1  0  0  0  0
 13 86  1  0  0  0  0
 14 34  2  0  0  0  0
 14 38  1  0  0  0  0
 15 37  1  0  0  0  0
 15 40  1  0  0  0  0
 15 88  1  0  0  0  0
 16 39  1  0  0  0  0
 16 41  1  0  0  0  0
 16 89  1  0  0  0  0
 17 18  1  0  0  0  0
 17 20  1  0  0  0  0
 17 21  1  0  0  0  0
 17 57  1  0  0  0  0
 18 19  1  0  0  0  0
 18 24  1  0  0  0  0
 18 25  1  0  0  0  0
 19 20  1  0  0  0  0
 19 23  1  0  0  0  0
 19 58  1  0  0  0  0
 20 59  1  0  0  0  0
 20 60  1  0  0  0  0
 21 22  1  0  0  0  0
 21 61  1  0  0  0  0
 22 23  1  0  0  0  0
 22 26  1  6  0  0  0
 23 62  1  0  0  0  0
 23 63  1  0  0  0  0
 24 64  1  0  0  0  0
 24 65  1  0  0  0  0
 24 66  1  0  0  0  0
 25 67  1  0  0  0  0
 25 68  1  0  0  0  0
 25 69  1  0  0  0  0
 26 70  1  0  0  0  0
 26 71  1  0  0  0  0
 26 72  1  0  0  0  0
 27 28  1  0  0  0  0
 27 56  1  0  0  0  0
 27 73  1  0  0  0  0
 28 29  1  0  0  0  0
 28 74  1  0  0  0  0
 28 75  1  0  0  0  0
 29 77  1  0  0  0  0
 29 78  1  0  0  0  0
 29 79  1  0  0  0  0
 31 30  1  6  0  0  0
 31 32  1  0  0  0  0
 31 80  1  0  0  0  0
 32 33  1  0  0  0  0
 32 81  1  0  0  0  0
 32 82  1  0  0  0  0
 33 34  1  0  0  0  0
 33 35  1  0  0  0  0
 35 83  1  0  0  0  0
 35 84  1  0  0  0  0
 35 85  1  0  0  0  0
 36 37  1  0  0  0  0
 37 38  2  0  0  0  0
 38 87  1  0  0  0  0
 40 42  1  0  0  0  0
 40 90  1  0  0  0  0
 40 91  1  0  0  0  0
 41 43  1  0  0  0  0
 41 44  2  0  0  0  0
 42 45  2  0  0  0  0
 42 46  1  0  0  0  0
 43 47  2  0  0  0  0
 43 92  1  0  0  0  0
 44 48  1  0  0  0  0
 44 93  1  0  0  0  0
 45 49  1  0  0  0  0
 45 94  1  0  0  0  0
 46 50  2  0  0  0  0
 46 95  1  0  0  0  0
 47 51  1  0  0  0  0
 47 54  1  0  0  0  0
 48 51  2  0  0  0  0
 48 96  1  0  0  0  0
 49 52  2  0  0  0  0
 49 53  1  0  0  0  0
 50 52  1  0  0  0  0
 50 97  1  0  0  0  0
 51 98  1  0  0  0  0
 52 99  1  0  0  0  0
 55100  1  0  0  0  0
 55101  1  0  0  0  0
 55102  1  0  0  0  0
M  END
> <PUBCHEM_COMPOUND_CID>
504104
> <PUBCHEM_COMPOUND_CANONICALIZED>
1
> <PUBCHEM_CACTVS_COMPLEXITY>
1650
> <PUBCHEM_CACTVS_HBOND_ACCEPTOR>
12
> <PUBCHEM_CACTVS_HBOND_DONOR>
4
> <PUBCHEM_CACTVS_ROTATABLE_BOND>
11
> <PUBCHEM_CACTVS_SUBSKEYS>
AAADcfJ/uYAAAAAAAAAAAAAAAABgAWJAAAAwYMGCAAAAAEgBQAAoHwAQAAAAD/zhmBYzyIPABACoAif2fACCAAElAgAJiIGobMiJZjLA/bmUMQhs1gPI6ee8yfCPgAACQAAAAADAAAaAADCAAAAAAAAAAA==
> <PUBCHEM_IUPAC_OPENEYE_NAME>
methyl 3-[[(6S,8R)-8-methyl-4-oxo-3-[[3-(trifluoromethyl)phenyl]methylamino]-6-[[(1R)-1-[(6S)-6,9,9-trimethyl-3,5-dioxa-4-boratricyclo[6.1.1.02,6]decan-4-yl]propyl]carbamoyl]-6,7-dihydropyrrolo[1,2-a]pyrimidin-8-yl]carbamoylamino]benzoate
> <PUBCHEM_IUPAC_CAS_NAME>
3-[[[[(6S,8R)-8-methyl-4-oxo-6-[oxo-[[(1R)-1-[(6S)-6,9,9-trimethyl-3,5-dioxa-4-boratricyclo[6.1.1.02,6]decan-4-yl]propyl]amino]methyl]-3-[[3-(trifluoromethyl)phenyl]methylamino]-6,7-dihydropyrrolo[1,2-a]pyrimidin-8-yl]amino]-oxomethyl]amino]benzoic acid methyl ester
> <PUBCHEM_IUPAC_NAME_MARKUP>
methyl 3-[[(6<I>S</I>,8<I>R</I>)-8-methyl-4-oxo-3-[[3-(trifluoromethyl)phenyl]methylamino]-6-[[(1<I>R</I>)-1-[(6<I>S</I>)-6,9,9-trimethyl-3,5-dioxa-4-boratricyclo[6.1.1.0<SUP>2,6</SUP>]decan-4-yl]propyl]carbamoyl]-6,7-dihydropyrrolo[1,2-a]pyrimidin-8-yl]carbamoylamino]benzoate
> <PUBCHEM_IUPAC_NAME>
methyl 3-[[(6S,8R)-8-methyl-4-oxo-3-[[3-(trifluoromethyl)phenyl]methylamino]-6-[[(1R)-1-[(6S)-6,9,9-trimethyl-3,5-dioxa-4-boratricyclo[6.1.1.02,6]decan-4-yl]propyl]carbamoyl]-6,7-dihydropyrrolo[1,2-a]pyrimidin-8-yl]carbamoylamino]benzoate
> <PUBCHEM_IUPAC_SYSTEMATIC_NAME>
methyl 3-[[(6S,8R)-8-methyl-4-oxidanylidene-3-[[3-(trifluoromethyl)phenyl]methylamino]-6-[[(1R)-1-[(6S)-6,9,9-trimethyl-3,5-dioxa-4-boratricyclo[6.1.1.02,6]decan-4-yl]propyl]carbamoyl]-6,7-dihydropyrrolo[1,2-a]pyrimidin-8-yl]carbamoylamino]benzoate
> <PUBCHEM_IUPAC_TRADITIONAL_NAME>
3-[[(6S,8R)-4-keto-8-methyl-3-[[3-(trifluoromethyl)benzyl]amino]-6-[[(1R)-1-[(6S)-6,9,9-trimethyl-3,5-dioxa-4-boratricyclo[6.1.1.02,6]decan-4-yl]propyl]carbamoyl]-6,7-dihydropyrrolo[1,2-a]pyrimidin-8-yl]carbamoylamino]benzoic acid methyl ester
> <PUBCHEM_IUPAC_INCHI>
InChI=1S/C39H46BF3N6O7/c1-7-29(40-55-30-26-16-24(36(26,2)3)17-38(30,5)56-40)47-31(50)28-18-37(4,48-35(53)46-25-13-9-11-22(15-25)33(52)54-6)34-45-20-27(32(51)49(28)34)44-19-21-10-8-12-23(14-21)39(41,42)43/h8-15,20,24,26,28-30,44H,7,16-19H2,1-6H3,(H,47,50)(H2,46,48,53)/t24?,26?,28-,29-,30?,37+,38-/m0/s1
> <PUBCHEM_IUPAC_INCHIKEY>
QITCPPKBAVNIRZ-ISMAWZHCSA-N
> <PUBCHEM_EXACT_MASS>
778.3473125
> <PUBCHEM_MOLECULAR_FORMULA>
C39H46BF3N6O7
> <PUBCHEM_MOLECULAR_WEIGHT>
778.6
> <PUBCHEM_OPENEYE_CAN_SMILES>
B1(OC2C3CC(C3(C)C)CC2(O1)C)C(CC)NC(=O)C4CC(C5=NC=C(C(=O)N45)NCC6=CC(=CC=C6)C(F)(F)F)(C)NC(=O)NC7=CC=CC(=C7)C(=O)OC
> <PUBCHEM_OPENEYE_ISO_SMILES>
B1(OC2C3CC(C3(C)C)C[C@@]2(O1)C)[C@H](CC)NC(=O)[C@@H]4C[C@@](C5=NC=C(C(=O)N45)NCC6=CC(=CC=C6)C(F)(F)F)(C)NC(=O)NC7=CC=CC(=C7)C(=O)OC
> <PUBCHEM_CACTVS_TPSA>
160
> <PUBCHEM_MONOISOTOPIC_WEIGHT>
778.3473125
> <PUBCHEM_TOTAL_CHARGE>
0
> <PUBCHEM_HEAVY_ATOM_COUNT>
56
> <PUBCHEM_ATOM_DEF_STEREO_COUNT>
4
> <PUBCHEM_ATOM_UDEF_STEREO_COUNT>
3
> <PUBCHEM_BOND_DEF_STEREO_COUNT>
0
> <PUBCHEM_BOND_UDEF_STEREO_COUNT>
0
> <PUBCHEM_ISOTOPIC_ATOM_COUNT>
0
> <PUBCHEM_COMPONENT_COUNT>
1
> <PUBCHEM_CACTVS_TAUTO_COUNT>
-1
> <PUBCHEM_COORDINATE_TYPE>
1
5
255
> <PUBCHEM_BONDANNOTATIONS>
27  11  5
12  34  8
12  36  8
33  13  5
14  34  8
14  38  8
17  20  3
19  20  3
22  26  6
31  30  6
36  37  8
37  38  8
21  4  3
41  43  8
41  44  8
42  45  8
42  46  8
43  47  8
44  48  8
45  49  8
46  50  8
47  51  8
48  51  8
49  52  8
50  52  8
$$$$
