504164
  -OEChem-10302200282D
 51 53  0     1  0  0  0  0  0999 V2000
    6.4504    1.6098    0.0000 P   0  0  3  0  0  0  0  0  0  0  0  0
    6.8134    3.3034    0.0000 P   0  0  3  0  0  0  0  0  0  0  0  0
    7.1765    4.9970    0.0000 P   0  0  0  0  0  0  0  0  0  0  0  0
    5.8055   -1.8433    0.0000 O   0  0  0  0  0  0  0  0  0  0  0  0
    8.1515   -2.9352    0.0000 O   0  0  0  0  0  0  0  0  0  0  0  0
    8.1552   -0.7596    0.0000 O   0  0  0  0  0  0  0  0  0  0  0  0
    6.7577    0.6582    0.0000 O   0  0  0  0  0  0  0  0  0  0  0  0
    4.2690   -6.4086    0.0000 O   0  0  0  0  0  0  0  0  0  0  0  0
    6.1430    2.5614    0.0000 O   0  0  0  0  0  0  0  0  0  0  0  0
    7.4020    1.9172    0.0000 O   0  5  0  0  0  0  0  0  0  0  0  0
    5.4988    1.3025    0.0000 O   0  0  0  0  0  0  0  0  0  0  0  0
    7.4838    4.0454    0.0000 O   0  0  0  0  0  0  0  0  0  0  0  0
    6.0714    3.9738    0.0000 O   0  0  0  0  0  0  0  0  0  0  0  0
    7.5554    2.6330    0.0000 O   0  0  0  0  0  0  0  0  0  0  0  0
    6.8691    5.9486    0.0000 O   0  0  0  0  0  0  0  0  0  0  0  0
    8.1280    5.3044    0.0000 O   0  0  0  0  0  0  0  0  0  0  0  0
    6.2249    4.6896    0.0000 O   0  0  0  0  0  0  0  0  0  0  0  0
    6.0812   -3.6039    0.0000 N   0  0  0  0  0  0  0  0  0  0  0  0
    6.0812   -5.2133    0.0000 N   0  3  0  0  0  0  0  0  0  0  0  0
    4.2690   -3.4086    0.0000 N   0  0  0  0  0  0  0  0  0  0  0  0
    3.4030   -4.9086    0.0000 N   0  0  0  0  0  0  0  0  0  0  0  0
    2.5369   -3.4086    0.0000 N   0  0  0  0  0  0  0  0  0  0  0  0
    6.3919   -2.6534    0.0000 C   0  0  1  0  0  0  0  0  0  0  0  0
    7.3435   -2.3460    0.0000 C   0  0  1  0  0  0  0  0  0  0  0  0
    7.3452   -1.3460    0.0000 C   0  0  1  0  0  0  0  0  0  0  0  0
    6.3947   -1.0353    0.0000 C   0  0  1  0  0  0  0  0  0  0  0  0
    5.1350   -4.9086    0.0000 C   0  0  3  0  0  0  0  0  0  0  0  0
    5.1350   -3.9086    0.0000 C   0  0  0  0  0  0  0  0  0  0  0  0
    6.0873   -0.0837    0.0000 C   0  0  0  0  0  0  0  0  0  0  0  0
    6.6648   -4.4086    0.0000 C   0  0  0  0  0  0  0  0  0  0  0  0
    4.2690   -5.4086    0.0000 C   0  0  0  0  0  0  0  0  0  0  0  0
    6.3919   -6.1639    0.0000 C   0  0  0  0  0  0  0  0  0  0  0  0
    3.4030   -3.9086    0.0000 C   0  0  0  0  0  0  0  0  0  0  0  0
    5.7794   -2.7493    0.0000 H   0  0  0  0  0  0  0  0  0  0  0  0
    7.2454   -2.9582    0.0000 H   0  0  0  0  0  0  0  0  0  0  0  0
    7.2493   -0.7335    0.0000 H   0  0  0  0  0  0  0  0  0  0  0  0
    5.7825   -0.9373    0.0000 H   0  0  0  0  0  0  0  0  0  0  0  0
    5.2006   -5.5251    0.0000 H   0  0  0  0  0  0  0  0  0  0  0  0
    5.7065    0.4055    0.0000 H   0  0  0  0  0  0  0  0  0  0  0  0
    5.5394   -0.3739    0.0000 H   0  0  0  0  0  0  0  0  0  0  0  0
    7.2848   -4.4086    0.0000 H   0  0  0  0  0  0  0  0  0  0  0  0
    8.7183   -2.6840    0.0000 H   0  0  0  0  0  0  0  0  0  0  0  0
    8.7212   -1.0128    0.0000 H   0  0  0  0  0  0  0  0  0  0  0  0
    5.8026   -6.3565    0.0000 H   0  0  0  0  0  0  0  0  0  0  0  0
    6.5845   -6.7532    0.0000 H   0  0  0  0  0  0  0  0  0  0  0  0
    6.9812   -5.9713    0.0000 H   0  0  0  0  0  0  0  0  0  0  0  0
    2.0000   -3.7186    0.0000 H   0  0  0  0  0  0  0  0  0  0  0  0
    2.5369   -2.7886    0.0000 H   0  0  0  0  0  0  0  0  0  0  0  0
    5.4814    3.7833    0.0000 H   0  0  0  0  0  0  0  0  0  0  0  0
    7.2847    6.4086    0.0000 H   0  0  0  0  0  0  0  0  0  0  0  0
    8.5881    4.8887    0.0000 H   0  0  0  0  0  0  0  0  0  0  0  0
  1  7  1  0  0  0  0
  1  9  1  0  0  0  0
  1 10  1  0  0  0  0
  1 11  2  0  0  0  0
  2  9  1  0  0  0  0
  2 12  1  0  0  0  0
  2 13  1  0  0  0  0
  2 14  2  0  0  0  0
  3 12  1  0  0  0  0
  3 15  1  0  0  0  0
  3 16  1  0  0  0  0
  3 17  2  0  0  0  0
  4 23  1  0  0  0  0
  4 26  1  0  0  0  0
 24  5  1  1  0  0  0
  5 42  1  0  0  0  0
 25  6  1  1  0  0  0
  6 43  1  0  0  0  0
  7 29  1  0  0  0  0
  8 31  2  0  0  0  0
 13 49  1  0  0  0  0
 15 50  1  0  0  0  0
 16 51  1  0  0  0  0
 23 18  1  6  0  0  0
 18 28  1  0  0  0  0
 18 30  1  0  0  0  0
 19 27  1  0  0  0  0
 19 30  2  0  0  0  0
 19 32  1  0  0  0  0
 20 28  2  0  0  0  0
 20 33  1  0  0  0  0
 21 31  1  0  0  0  0
 21 33  2  0  0  0  0
 22 33  1  0  0  0  0
 22 47  1  0  0  0  0
 22 48  1  0  0  0  0
 23 24  1  0  0  0  0
 23 34  1  0  0  0  0
 24 25  1  0  0  0  0
 24 35  1  0  0  0  0
 25 26  1  0  0  0  0
 25 36  1  0  0  0  0
 26 29  1  6  0  0  0
 26 37  1  0  0  0  0
 27 28  1  0  0  0  0
 27 31  1  0  0  0  0
 27 38  1  0  0  0  0
 29 39  1  0  0  0  0
 29 40  1  0  0  0  0
 30 41  1  0  0  0  0
 32 44  1  0  0  0  0
 32 45  1  0  0  0  0
 32 46  1  0  0  0  0
M  CHG  2  10  -1  19   1
M  END
> <PUBCHEM_COMPOUND_CID>
504164
> <PUBCHEM_COMPOUND_CANONICALIZED>
1
> <PUBCHEM_CACTVS_COMPLEXITY>
1060
> <PUBCHEM_CACTVS_HBOND_ACCEPTOR>
14
> <PUBCHEM_CACTVS_HBOND_DONOR>
6
> <PUBCHEM_CACTVS_ROTATABLE_BOND>
8
> <PUBCHEM_CACTVS_SUBSKEYS>
AAADceBzvAMAAAAAAAAAAAAAAAAAASIAAAAgAAAAAAAAAEAAAAAAHgAQCCAACDzhgAYDAANABxAoQAMxNIAAAAEAAAABAAG4AAADUAoAyCAeQAAHAACTAADwMAIAAAAAAAAAAAAAAAAAAAAAAAAAAAAAAA==
> <PUBCHEM_IUPAC_OPENEYE_NAME>
[(2R,3S,4R,5R)-5-(2-amino-7-methyl-6-oxo-5H-purin-7-ium-9-yl)-3,4-dihydroxy-tetrahydrofuran-2-yl]methyl [hydroxy(phosphonooxy)phosphoryl] phosphate
> <PUBCHEM_IUPAC_CAS_NAME>
[(2R,3S,4R,5R)-5-(2-amino-7-methyl-6-oxo-5H-purin-7-ium-9-yl)-3,4-dihydroxy-2-oxolanyl]methyl [hydroxy(phosphonooxy)phosphoryl] phosphate
> <PUBCHEM_IUPAC_NAME_MARKUP>
[(2<I>R</I>,3<I>S</I>,4<I>R</I>,5<I>R</I>)-5-(2-amino-7-methyl-6-oxo-5<I>H</I>-purin-7-ium-9-yl)-3,4-dihydroxyoxolan-2-yl]methyl [hydroxy(phosphonooxy)phosphoryl] phosphate
> <PUBCHEM_IUPAC_NAME>
[(2R,3S,4R,5R)-5-(2-amino-7-methyl-6-oxo-5H-purin-7-ium-9-yl)-3,4-dihydroxyoxolan-2-yl]methyl [hydroxy(phosphonooxy)phosphoryl] phosphate
> <PUBCHEM_IUPAC_SYSTEMATIC_NAME>
[(2R,3S,4R,5R)-5-(2-azanyl-7-methyl-6-oxidanylidene-5H-purin-7-ium-9-yl)-3,4-bis(oxidanyl)oxolan-2-yl]methyl [oxidanyl(phosphonooxy)phosphoryl] phosphate
> <PUBCHEM_IUPAC_TRADITIONAL_NAME>
[(2R,3S,4R,5R)-5-(2-amino-6-keto-7-methyl-5H-purin-7-ium-9-yl)-3,4-dihydroxy-tetrahydrofuran-2-yl]methyl [hydroxy(phosphonooxy)phosphoryl] phosphate
> <PUBCHEM_IUPAC_INCHI>
InChI=1S/C11H18N5O14P3/c1-15-3-16(8-5(15)9(19)14-11(12)13-8)10-7(18)6(17)4(28-10)2-27-32(23,24)30-33(25,26)29-31(20,21)22/h3-7,10,17-18H,2H2,1H3,(H5-,12,14,19,20,21,22,23,24,25,26)/t4-,5?,6-,7-,10-/m1/s1
> <PUBCHEM_IUPAC_INCHIKEY>
PQURAYJQMXQMDN-XXWJQXOGSA-N
> <PUBCHEM_XLOGP3_AA>
-7
> <PUBCHEM_EXACT_MASS>
537.00631126
> <PUBCHEM_MOLECULAR_FORMULA>
C11H18N5O14P3
> <PUBCHEM_MOLECULAR_WEIGHT>
537.21
> <PUBCHEM_OPENEYE_CAN_SMILES>
C[N+]1=CN(C2=NC(=NC(=O)C21)N)C3C(C(C(O3)COP(=O)([O-])OP(=O)(O)OP(=O)(O)O)O)O
> <PUBCHEM_OPENEYE_ISO_SMILES>
C[N+]1=CN(C2=NC(=NC(=O)C21)N)[C@H]3[C@@H]([C@@H]([C@H](O3)COP(=O)([O-])OP(=O)(O)OP(=O)(O)O)O)O
> <PUBCHEM_CACTVS_TPSA>
286
> <PUBCHEM_MONOISOTOPIC_WEIGHT>
537.00631126
> <PUBCHEM_TOTAL_CHARGE>
0
> <PUBCHEM_HEAVY_ATOM_COUNT>
33
> <PUBCHEM_ATOM_DEF_STEREO_COUNT>
4
> <PUBCHEM_ATOM_UDEF_STEREO_COUNT>
1
> <PUBCHEM_BOND_DEF_STEREO_COUNT>
0
> <PUBCHEM_BOND_UDEF_STEREO_COUNT>
0
> <PUBCHEM_ISOTOPIC_ATOM_COUNT>
0
> <PUBCHEM_COMPONENT_COUNT>
1
> <PUBCHEM_CACTVS_TAUTO_COUNT>
-1
> <PUBCHEM_COORDINATE_TYPE>
1
5
255
> <PUBCHEM_BONDANNOTATIONS>
23  18  6
26  29  6
27  31  3
24  5  5
25  6  5
$$$$
