504170
  -OEChem-10302200282D
 54 55  0     1  0  0  0  0  0999 V2000
    7.7687    0.5506    0.0000 O   0  0  0  0  0  0  0  0  0  0  0  0
   10.3668    3.0506    0.0000 O   0  0  0  0  0  0  0  0  0  0  0  0
   11.2328    1.5506    0.0000 O   0  0  0  0  0  0  0  0  0  0  0  0
    6.6668   -0.2500    0.0000 O   0  0  0  0  0  0  0  0  0  0  0  0
    3.4863   -1.9484    0.0000 O   0  0  0  0  0  0  0  0  0  0  0  0
    4.6453   -3.2355    0.0000 O   0  0  0  0  0  0  0  0  0  0  0  0
    9.5008    0.5506    0.0000 N   0  0  0  0  0  0  0  0  0  0  0  0
    5.1805   -1.5882    0.0000 N   0  0  0  0  0  0  0  0  0  0  0  0
    9.5008    1.5506    0.0000 C   0  0  0  0  0  0  0  0  0  0  0  0
    9.0008    2.4167    0.0000 C   0  0  0  0  0  0  0  0  0  0  0  0
    8.5008    1.5506    0.0000 C   0  0  0  0  0  0  0  0  0  0  0  0
    8.6348   -0.9494    0.0000 C   0  0  1  0  0  0  0  0  0  0  0  0
    7.8258   -1.5372    0.0000 C   0  0  3  0  0  0  0  0  0  0  0  0
    9.4438   -1.5372    0.0000 C   0  0  0  0  0  0  0  0  0  0  0  0
    8.1348   -2.4882    0.0000 C   0  0  0  0  0  0  0  0  0  0  0  0
    9.1348   -2.4882    0.0000 C   0  0  0  0  0  0  0  0  0  0  0  0
    8.6348    0.0506    0.0000 C   0  0  0  0  0  0  0  0  0  0  0  0
   10.3668    2.0506    0.0000 C   0  0  0  0  0  0  0  0  0  0  0  0
    6.8747   -1.2281    0.0000 C   0  0  0  0  0  0  0  0  0  0  0  0
    6.1316   -1.8973    0.0000 C   0  0  2  0  0  0  0  0  0  0  0  0
    6.3395   -2.8754    0.0000 C   0  0  0  0  0  0  0  0  0  0  0  0
    4.4374   -2.2574    0.0000 C   0  0  0  0  0  0  0  0  0  0  0  0
    2.7431   -2.6175    0.0000 C   0  0  0  0  0  0  0  0  0  0  0  0
    2.0000   -3.2866    0.0000 C   0  0  0  0  0  0  0  0  0  0  0  0
    2.0740   -1.8744    0.0000 C   0  0  0  0  0  0  0  0  0  0  0  0
    3.4123   -3.3606    0.0000 C   0  0  0  0  0  0  0  0  0  0  0  0
    9.4757    2.8152    0.0000 H   0  0  0  0  0  0  0  0  0  0  0  0
    8.5258    2.8152    0.0000 H   0  0  0  0  0  0  0  0  0  0  0  0
    7.9182    1.7627    0.0000 H   0  0  0  0  0  0  0  0  0  0  0  0
    8.3931    0.9401    0.0000 H   0  0  0  0  0  0  0  0  0  0  0  0
    8.0823   -0.6679    0.0000 H   0  0  0  0  0  0  0  0  0  0  0  0
    7.7288   -0.9248    0.0000 H   0  0  0  0  0  0  0  0  0  0  0  0
   10.0102   -1.7893    0.0000 H   0  0  0  0  0  0  0  0  0  0  0  0
    9.7538   -1.0002    0.0000 H   0  0  0  0  0  0  0  0  0  0  0  0
    7.5283   -2.6171    0.0000 H   0  0  0  0  0  0  0  0  0  0  0  0
    8.1996   -3.1048    0.0000 H   0  0  0  0  0  0  0  0  0  0  0  0
   10.0377    0.2406    0.0000 H   0  0  0  0  0  0  0  0  0  0  0  0
    9.0700   -3.1048    0.0000 H   0  0  0  0  0  0  0  0  0  0  0  0
    9.7412   -2.6171    0.0000 H   0  0  0  0  0  0  0  0  0  0  0  0
    5.6708   -2.3121    0.0000 H   0  0  0  0  0  0  0  0  0  0  0  0
   10.9038    3.3606    0.0000 H   0  0  0  0  0  0  0  0  0  0  0  0
    5.7330   -3.0043    0.0000 H   0  0  0  0  0  0  0  0  0  0  0  0
    6.4684   -3.4819    0.0000 H   0  0  0  0  0  0  0  0  0  0  0  0
    6.9459   -2.7465    0.0000 H   0  0  0  0  0  0  0  0  0  0  0  0
    5.0516   -0.9818    0.0000 H   0  0  0  0  0  0  0  0  0  0  0  0
    1.5851   -2.8259    0.0000 H   0  0  0  0  0  0  0  0  0  0  0  0
    1.5392   -3.7015    0.0000 H   0  0  0  0  0  0  0  0  0  0  0  0
    2.4149   -3.7474    0.0000 H   0  0  0  0  0  0  0  0  0  0  0  0
    2.5348   -1.4595    0.0000 H   0  0  0  0  0  0  0  0  0  0  0  0
    1.6592   -1.4136    0.0000 H   0  0  0  0  0  0  0  0  0  0  0  0
    1.6133   -2.2892    0.0000 H   0  0  0  0  0  0  0  0  0  0  0  0
    2.9515   -3.7755    0.0000 H   0  0  0  0  0  0  0  0  0  0  0  0
    3.8271   -3.8214    0.0000 H   0  0  0  0  0  0  0  0  0  0  0  0
    3.8730   -2.9458    0.0000 H   0  0  0  0  0  0  0  0  0  0  0  0
  1 17  2  0  0  0  0
  2 18  1  0  0  0  0
  2 41  1  0  0  0  0
  3 18  2  0  0  0  0
  4 19  2  0  0  0  0
  5 22  1  0  0  0  0
  5 23  1  0  0  0  0
  6 22  2  0  0  0  0
  7  9  1  0  0  0  0
  7 17  1  0  0  0  0
  7 37  1  0  0  0  0
 20  8  1  6  0  0  0
  8 22  1  0  0  0  0
  8 45  1  0  0  0  0
  9 10  1  0  0  0  0
  9 11  1  0  0  0  0
  9 18  1  0  0  0  0
 10 11  1  0  0  0  0
 10 27  1  0  0  0  0
 10 28  1  0  0  0  0
 11 29  1  0  0  0  0
 11 30  1  0  0  0  0
 12 13  1  0  0  0  0
 12 14  1  0  0  0  0
 12 17  1  6  0  0  0
 12 31  1  0  0  0  0
 13 15  1  0  0  0  0
 13 19  1  0  0  0  0
 13 32  1  0  0  0  0
 14 16  1  0  0  0  0
 14 33  1  0  0  0  0
 14 34  1  0  0  0  0
 15 16  1  0  0  0  0
 15 35  1  0  0  0  0
 15 36  1  0  0  0  0
 16 38  1  0  0  0  0
 16 39  1  0  0  0  0
 19 20  1  0  0  0  0
 20 21  1  0  0  0  0
 20 40  1  0  0  0  0
 21 42  1  0  0  0  0
 21 43  1  0  0  0  0
 21 44  1  0  0  0  0
 23 24  1  0  0  0  0
 23 25  1  0  0  0  0
 23 26  1  0  0  0  0
 24 46  1  0  0  0  0
 24 47  1  0  0  0  0
 24 48  1  0  0  0  0
 25 49  1  0  0  0  0
 25 50  1  0  0  0  0
 25 51  1  0  0  0  0
 26 52  1  0  0  0  0
 26 53  1  0  0  0  0
 26 54  1  0  0  0  0
M  END
> <PUBCHEM_COMPOUND_CID>
504170
> <PUBCHEM_COMPOUND_CANONICALIZED>
1
> <PUBCHEM_CACTVS_COMPLEXITY>
605
> <PUBCHEM_CACTVS_HBOND_ACCEPTOR>
6
> <PUBCHEM_CACTVS_HBOND_DONOR>
3
> <PUBCHEM_CACTVS_ROTATABLE_BOND>
8
> <PUBCHEM_CACTVS_SUBSKEYS>
AAADceB7OAAAAAAAAAAAAAAAGAAAAYAAAAAAAAAAAAAAAAAAAAAAHgAQCAAADezBgAQCCALABgAIAIGQGAAAAAAAAAAAAIGIAAECABIAgCAMQAAEFgCQAAEdiYCegAAAAAAAAAAAAAAAAAAAAAAACAAAAA==
> <PUBCHEM_IUPAC_OPENEYE_NAME>
1-[[(1R)-2-[(2S)-2-(tert-butoxycarbonylamino)propanoyl]cyclopentanecarbonyl]amino]cyclopropanecarboxylic acid
> <PUBCHEM_IUPAC_CAS_NAME>
1-[[[(1R)-2-[(2S)-2-[[(2-methylpropan-2-yl)oxy-oxomethyl]amino]-1-oxopropyl]cyclopentyl]-oxomethyl]amino]-1-cyclopropanecarboxylic acid
> <PUBCHEM_IUPAC_NAME_MARKUP>
1-[[(1<I>R</I>)-2-[(2<I>S</I>)-2-[(2-methylpropan-2-yl)oxycarbonylamino]propanoyl]cyclopentanecarbonyl]amino]cyclopropane-1-carboxylic acid
> <PUBCHEM_IUPAC_NAME>
1-[[(1R)-2-[(2S)-2-[(2-methylpropan-2-yl)oxycarbonylamino]propanoyl]cyclopentanecarbonyl]amino]cyclopropane-1-carboxylic acid
> <PUBCHEM_IUPAC_SYSTEMATIC_NAME>
1-[[(1R)-2-[(2S)-2-[(2-methylpropan-2-yl)oxycarbonylamino]propanoyl]cyclopentyl]carbonylamino]cyclopropane-1-carboxylic acid
> <PUBCHEM_IUPAC_TRADITIONAL_NAME>
1-[[(1R)-2-[(2S)-2-(tert-butoxycarbonylamino)propanoyl]cyclopentanecarbonyl]amino]cyclopropanecarboxylic acid
> <PUBCHEM_IUPAC_INCHI>
InChI=1S/C18H28N2O6/c1-10(19-16(25)26-17(2,3)4)13(21)11-6-5-7-12(11)14(22)20-18(8-9-18)15(23)24/h10-12H,5-9H2,1-4H3,(H,19,25)(H,20,22)(H,23,24)/t10-,11?,12+/m0/s1
> <PUBCHEM_IUPAC_INCHIKEY>
DBQMVEUGAVLRSY-ASKATJPDSA-N
> <PUBCHEM_XLOGP3_AA>
1.3
> <PUBCHEM_EXACT_MASS>
368.19473662
> <PUBCHEM_MOLECULAR_FORMULA>
C18H28N2O6
> <PUBCHEM_MOLECULAR_WEIGHT>
368.4
> <PUBCHEM_OPENEYE_CAN_SMILES>
CC(C(=O)C1CCCC1C(=O)NC2(CC2)C(=O)O)NC(=O)OC(C)(C)C
> <PUBCHEM_OPENEYE_ISO_SMILES>
C[C@@H](C(=O)C1CCC[C@H]1C(=O)NC2(CC2)C(=O)O)NC(=O)OC(C)(C)C
> <PUBCHEM_CACTVS_TPSA>
122
> <PUBCHEM_MONOISOTOPIC_WEIGHT>
368.19473662
> <PUBCHEM_TOTAL_CHARGE>
0
> <PUBCHEM_HEAVY_ATOM_COUNT>
26
> <PUBCHEM_ATOM_DEF_STEREO_COUNT>
2
> <PUBCHEM_ATOM_UDEF_STEREO_COUNT>
1
> <PUBCHEM_BOND_DEF_STEREO_COUNT>
0
> <PUBCHEM_BOND_UDEF_STEREO_COUNT>
0
> <PUBCHEM_ISOTOPIC_ATOM_COUNT>
0
> <PUBCHEM_COMPONENT_COUNT>
1
> <PUBCHEM_CACTVS_TAUTO_COUNT>
-1
> <PUBCHEM_COORDINATE_TYPE>
1
5
255
> <PUBCHEM_BONDANNOTATIONS>
12  17  6
13  19  3
20  8  6
$$$$
