504201
  -OEChem-10302200282D
 45 48  0     1  0  0  0  0  0999 V2000
    9.7330   -3.5984    0.0000 O   0  0  0  0  0  0  0  0  0  0  0  0
    4.5981    2.1877    0.0000 N   0  0  0  0  0  0  0  0  0  0  0  0
    6.4103   -0.6170    0.0000 N   0  0  0  0  0  0  0  0  0  0  0  0
    6.4103    0.9924    0.0000 N   0  0  0  0  0  0  0  0  0  0  0  0
    3.7320    0.6877    0.0000 N   0  0  0  0  0  0  0  0  0  0  0  0
    4.5981   -0.8123    0.0000 N   0  0  0  0  0  0  0  0  0  0  0  0
    2.8660   -0.8123    0.0000 N   0  0  0  0  0  0  0  0  0  0  0  0
    8.4438   -2.4416    0.0000 C   0  0  1  0  0  0  0  0  0  0  0  0
    8.6500   -1.4631    0.0000 C   0  0  0  0  0  0  0  0  0  0  0  0
    7.6995   -1.7738    0.0000 C   0  0  0  0  0  0  0  0  0  0  0  0
    3.7320    2.6877    0.0000 C   0  0  0  0  0  0  0  0  0  0  0  0
    3.7320    3.6877    0.0000 C   0  0  0  0  0  0  0  0  0  0  0  0
    2.8660    2.1877    0.0000 C   0  0  0  0  0  0  0  0  0  0  0  0
    2.8660    4.1877    0.0000 C   0  0  0  0  0  0  0  0  0  0  0  0
    2.0000    2.6877    0.0000 C   0  0  0  0  0  0  0  0  0  0  0  0
    2.0000    3.6877    0.0000 C   0  0  0  0  0  0  0  0  0  0  0  0
    8.7544   -3.3922    0.0000 C   0  0  0  0  0  0  0  0  0  0  0  0
    6.7210   -1.5676    0.0000 C   0  0  0  0  0  0  0  0  0  0  0  0
    4.5981    1.1877    0.0000 C   0  0  0  0  0  0  0  0  0  0  0  0
    5.4641    0.6877    0.0000 C   0  0  0  0  0  0  0  0  0  0  0  0
    5.4641   -0.3123    0.0000 C   0  0  0  0  0  0  0  0  0  0  0  0
    6.9939    0.1877    0.0000 C   0  0  0  0  0  0  0  0  0  0  0  0
    3.7320   -0.3123    0.0000 C   0  0  0  0  0  0  0  0  0  0  0  0
    9.0629   -2.4081    0.0000 H   0  0  0  0  0  0  0  0  0  0  0  0
    9.2697   -1.4837    0.0000 H   0  0  0  0  0  0  0  0  0  0  0  0
    8.5627   -0.8493    0.0000 H   0  0  0  0  0  0  0  0  0  0  0  0
    3.7320    2.0677    0.0000 H   0  0  0  0  0  0  0  0  0  0  0  0
    4.3426    3.5800    0.0000 H   0  0  0  0  0  0  0  0  0  0  0  0
    3.9441    4.2703    0.0000 H   0  0  0  0  0  0  0  0  0  0  0  0
    2.4675    1.7127    0.0000 H   0  0  0  0  0  0  0  0  0  0  0  0
    3.2646    1.7127    0.0000 H   0  0  0  0  0  0  0  0  0  0  0  0
    3.2646    4.6626    0.0000 H   0  0  0  0  0  0  0  0  0  0  0  0
    2.4675    4.6626    0.0000 H   0  0  0  0  0  0  0  0  0  0  0  0
    1.3894    2.7954    0.0000 H   0  0  0  0  0  0  0  0  0  0  0  0
    1.7880    2.1051    0.0000 H   0  0  0  0  0  0  0  0  0  0  0  0
    1.7880    4.2703    0.0000 H   0  0  0  0  0  0  0  0  0  0  0  0
    1.3894    3.5800    0.0000 H   0  0  0  0  0  0  0  0  0  0  0  0
    8.1406   -3.4795    0.0000 H   0  0  0  0  0  0  0  0  0  0  0  0
    8.7339   -4.0118    0.0000 H   0  0  0  0  0  0  0  0  0  0  0  0
    6.3069   -2.0290    0.0000 H   0  0  0  0  0  0  0  0  0  0  0  0
    5.1350    2.4977    0.0000 H   0  0  0  0  0  0  0  0  0  0  0  0
    7.6139    0.1877    0.0000 H   0  0  0  0  0  0  0  0  0  0  0  0
    9.9256   -4.1877    0.0000 H   0  0  0  0  0  0  0  0  0  0  0  0
    2.8660   -1.4323    0.0000 H   0  0  0  0  0  0  0  0  0  0  0  0
    2.3291   -0.5023    0.0000 H   0  0  0  0  0  0  0  0  0  0  0  0
  1 17  1  0  0  0  0
  1 43  1  0  0  0  0
  2 11  1  0  0  0  0
  2 19  1  0  0  0  0
  2 41  1  0  0  0  0
  3 18  1  0  0  0  0
  3 21  1  0  0  0  0
  3 22  1  0  0  0  0
  4 20  1  0  0  0  0
  4 22  2  0  0  0  0
  5 19  1  0  0  0  0
  5 23  2  0  0  0  0
  6 21  2  0  0  0  0
  6 23  1  0  0  0  0
  7 23  1  0  0  0  0
  7 44  1  0  0  0  0
  7 45  1  0  0  0  0
  8  9  1  0  0  0  0
  8 10  1  0  0  0  0
  8 17  1  6  0  0  0
  8 24  1  0  0  0  0
  9 10  1  0  0  0  0
  9 25  1  0  0  0  0
  9 26  1  0  0  0  0
 10 18  2  3  0  0  0
 11 12  1  0  0  0  0
 11 13  1  0  0  0  0
 11 27  1  0  0  0  0
 12 14  1  0  0  0  0
 12 28  1  0  0  0  0
 12 29  1  0  0  0  0
 13 15  1  0  0  0  0
 13 30  1  0  0  0  0
 13 31  1  0  0  0  0
 14 16  1  0  0  0  0
 14 32  1  0  0  0  0
 14 33  1  0  0  0  0
 15 16  1  0  0  0  0
 15 34  1  0  0  0  0
 15 35  1  0  0  0  0
 16 36  1  0  0  0  0
 16 37  1  0  0  0  0
 17 38  1  0  0  0  0
 17 39  1  0  0  0  0
 18 40  1  0  0  0  0
 19 20  2  0  0  0  0
 20 21  1  0  0  0  0
 22 42  1  0  0  0  0
M  END
> <PUBCHEM_COMPOUND_CID>
504201
> <PUBCHEM_COMPOUND_CANONICALIZED>
1
> <PUBCHEM_CACTVS_COMPLEXITY>
452
> <PUBCHEM_CACTVS_HBOND_ACCEPTOR>
6
> <PUBCHEM_CACTVS_HBOND_DONOR>
3
> <PUBCHEM_CACTVS_ROTATABLE_BOND>
4
> <PUBCHEM_CACTVS_SUBSKEYS>
AAADceB7oAAAAAAAAAAAAAAAGAAAAWAAAAA8QAAAAAAAAFgB+AAAHgAQCAAADSjhlwYF8L/MEgCgAwZnZACAgC0xEKABUKAoVBiAWAJAyUAURAgM0ALAACEQAAAAAAAAAAAAAAAAAAAAAAAAAAAAAAAAAA==
> <PUBCHEM_IUPAC_OPENEYE_NAME>
[(1S)-2-[[2-amino-6-(cyclohexylamino)purin-9-yl]methylene]cyclopropyl]methanol
> <PUBCHEM_IUPAC_CAS_NAME>
[(1S)-2-[[2-amino-6-(cyclohexylamino)-9-purinyl]methylidene]cyclopropyl]methanol
> <PUBCHEM_IUPAC_NAME_MARKUP>
[(1<I>S</I>)-2-[[2-amino-6-(cyclohexylamino)purin-9-yl]methylidene]cyclopropyl]methanol
> <PUBCHEM_IUPAC_NAME>
[(1S)-2-[[2-amino-6-(cyclohexylamino)purin-9-yl]methylidene]cyclopropyl]methanol
> <PUBCHEM_IUPAC_SYSTEMATIC_NAME>
[(1S)-2-[[2-azanyl-6-(cyclohexylamino)purin-9-yl]methylidene]cyclopropyl]methanol
> <PUBCHEM_IUPAC_TRADITIONAL_NAME>
[(1S)-2-[[2-amino-6-(cyclohexylamino)purin-9-yl]methylene]cyclopropyl]methanol
> <PUBCHEM_IUPAC_INCHI>
InChI=1S/C16H22N6O/c17-16-20-14(19-12-4-2-1-3-5-12)13-15(21-16)22(9-18-13)7-10-6-11(10)8-23/h7,9,11-12,23H,1-6,8H2,(H3,17,19,20,21)/t11-/m1/s1
> <PUBCHEM_IUPAC_INCHIKEY>
SHKXWVVBIGPVKK-LLVKDONJSA-N
> <PUBCHEM_XLOGP3_AA>
1.3
> <PUBCHEM_EXACT_MASS>
314.18550935
> <PUBCHEM_MOLECULAR_FORMULA>
C16H22N6O
> <PUBCHEM_MOLECULAR_WEIGHT>
314.39
> <PUBCHEM_OPENEYE_CAN_SMILES>
C1CCC(CC1)NC2=C3C(=NC(=N2)N)N(C=N3)C=C4CC4CO
> <PUBCHEM_OPENEYE_ISO_SMILES>
C1CCC(CC1)NC2=C3C(=NC(=N2)N)N(C=N3)C=C4C[C@@H]4CO
> <PUBCHEM_CACTVS_TPSA>
102
> <PUBCHEM_MONOISOTOPIC_WEIGHT>
314.18550935
> <PUBCHEM_TOTAL_CHARGE>
0
> <PUBCHEM_HEAVY_ATOM_COUNT>
23
> <PUBCHEM_ATOM_DEF_STEREO_COUNT>
1
> <PUBCHEM_ATOM_UDEF_STEREO_COUNT>
0
> <PUBCHEM_BOND_DEF_STEREO_COUNT>
0
> <PUBCHEM_BOND_UDEF_STEREO_COUNT>
1
> <PUBCHEM_ISOTOPIC_ATOM_COUNT>
0
> <PUBCHEM_COMPONENT_COUNT>
1
> <PUBCHEM_CACTVS_TAUTO_COUNT>
-1
> <PUBCHEM_COORDINATE_TYPE>
1
5
255
> <PUBCHEM_BONDANNOTATIONS>
10  18  1
19  20  8
20  21  8
3  21  8
3  22  8
4  20  8
4  22  8
5  19  8
5  23  8
6  21  8
6  23  8
8  17  6
$$$$
