504293
  -OEChem-10302200282D
 38 40  0     1  0  0  0  0  0999 V2000
    6.4736   -1.7058    0.0000 O   0  0  0  0  0  0  0  0  0  0  0  0
    6.1646    0.4208    0.0000 O   0  0  0  0  0  0  0  0  0  0  0  0
    5.1646   -2.6569    0.0000 O   0  0  0  0  0  0  0  0  0  0  0  0
    5.9781    2.2479    0.0000 O   0  0  0  0  0  0  0  0  0  0  0  0
    2.8135    3.6569    0.0000 O   0  0  0  0  0  0  0  0  0  0  0  0
    4.5768    1.2298    0.0000 N   0  0  0  0  0  0  0  0  0  0  0  0
    4.3958    2.9524    0.0000 N   0  0  0  0  0  0  0  0  0  0  0  0
    5.6646   -1.1180    0.0000 C   0  0  3  0  0  0  0  0  0  0  0  0
    4.8556   -0.5302    0.0000 C   0  0  0  0  0  0  0  0  0  0  0  0
    6.4736   -0.5302    0.0000 C   0  0  0  0  0  0  0  0  0  0  0  0
    5.1646    0.4208    0.0000 C   0  0  2  0  0  0  0  0  0  0  0  0
    4.8556   -1.7058    0.0000 C   0  0  0  0  0  0  0  0  0  0  0  0
    6.1646   -2.6569    0.0000 C   0  0  0  0  0  0  0  0  0  0  0  0
    6.1646   -3.6569    0.0000 C   0  0  0  0  0  0  0  0  0  0  0  0
    7.1157   -2.9659    0.0000 C   0  0  0  0  0  0  0  0  0  0  0  0
    3.5823    1.1253    0.0000 C   0  0  0  0  0  0  0  0  0  0  0  0
    4.9836    2.1434    0.0000 C   0  0  0  0  0  0  0  0  0  0  0  0
    2.9945    1.9343    0.0000 C   0  0  0  0  0  0  0  0  0  0  0  0
    3.4013    2.8479    0.0000 C   0  0  0  0  0  0  0  0  0  0  0  0
    2.0000    1.8298    0.0000 C   0  0  0  0  0  0  0  0  0  0  0  0
    4.2892   -0.2781    0.0000 H   0  0  0  0  0  0  0  0  0  0  0  0
    4.5456   -1.0672    0.0000 H   0  0  0  0  0  0  0  0  0  0  0  0
    6.7836   -1.0672    0.0000 H   0  0  0  0  0  0  0  0  0  0  0  0
    7.0400   -0.2781    0.0000 H   0  0  0  0  0  0  0  0  0  0  0  0
    4.5522    0.3238    0.0000 H   0  0  0  0  0  0  0  0  0  0  0  0
    4.5456   -1.1689    0.0000 H   0  0  0  0  0  0  0  0  0  0  0  0
    4.2892   -1.9580    0.0000 H   0  0  0  0  0  0  0  0  0  0  0  0
    5.5446   -3.6569    0.0000 H   0  0  0  0  0  0  0  0  0  0  0  0
    6.1646   -4.2769    0.0000 H   0  0  0  0  0  0  0  0  0  0  0  0
    6.7846   -3.6569    0.0000 H   0  0  0  0  0  0  0  0  0  0  0  0
    6.9241   -3.5556    0.0000 H   0  0  0  0  0  0  0  0  0  0  0  0
    7.7053   -3.1575    0.0000 H   0  0  0  0  0  0  0  0  0  0  0  0
    7.3073   -2.3762    0.0000 H   0  0  0  0  0  0  0  0  0  0  0  0
    3.3301    0.5589    0.0000 H   0  0  0  0  0  0  0  0  0  0  0  0
    4.6480    3.5188    0.0000 H   0  0  0  0  0  0  0  0  0  0  0  0
    1.9352    2.4464    0.0000 H   0  0  0  0  0  0  0  0  0  0  0  0
    1.3834    1.7650    0.0000 H   0  0  0  0  0  0  0  0  0  0  0  0
    2.0648    1.2132    0.0000 H   0  0  0  0  0  0  0  0  0  0  0  0
  1  8  1  0  0  0  0
  1 13  1  0  0  0  0
  2 10  1  0  0  0  0
  2 11  1  0  0  0  0
  3 12  1  0  0  0  0
  3 13  1  0  0  0  0
  4 17  2  0  0  0  0
  5 19  2  0  0  0  0
 11  6  1  1  0  0  0
  6 16  1  0  0  0  0
  6 17  1  0  0  0  0
  7 17  1  0  0  0  0
  7 19  1  0  0  0  0
  7 35  1  0  0  0  0
  8  9  1  0  0  0  0
  8 10  1  0  0  0  0
  8 12  1  0  0  0  0
  9 11  1  0  0  0  0
  9 21  1  0  0  0  0
  9 22  1  0  0  0  0
 10 23  1  0  0  0  0
 10 24  1  0  0  0  0
 11 25  1  0  0  0  0
 12 26  1  0  0  0  0
 12 27  1  0  0  0  0
 13 14  1  0  0  0  0
 13 15  1  0  0  0  0
 14 28  1  0  0  0  0
 14 29  1  0  0  0  0
 14 30  1  0  0  0  0
 15 31  1  0  0  0  0
 15 32  1  0  0  0  0
 15 33  1  0  0  0  0
 16 18  2  0  0  0  0
 16 34  1  0  0  0  0
 18 19  1  0  0  0  0
 18 20  1  0  0  0  0
 20 36  1  0  0  0  0
 20 37  1  0  0  0  0
 20 38  1  0  0  0  0
M  END
> <PUBCHEM_COMPOUND_CID>
504293
> <PUBCHEM_COMPOUND_CANONICALIZED>
1
> <PUBCHEM_CACTVS_COMPLEXITY>
501
> <PUBCHEM_CACTVS_HBOND_ACCEPTOR>
5
> <PUBCHEM_CACTVS_HBOND_DONOR>
1
> <PUBCHEM_CACTVS_ROTATABLE_BOND>
1
> <PUBCHEM_CACTVS_SUBSKEYS>
AAADceBzOAAAAAAAAAAAAAAAAAAAASJAAAAgAAAAAAAAAAAAAAAAHgAQAAAADEThgAYDCAPABACIAgFWUACAAAAAAAAAAAEIAECRAAAAgQAuAAAPByIGAMBgAAAIAAAAAAAAAAAAAAAAAAAAAAAAAAAAAA==
> <PUBCHEM_IUPAC_OPENEYE_NAME>
1-[(8S)-2,2-dimethyl-1,3,7-trioxaspiro[4.4]nonan-8-yl]-5-methyl-pyrimidine-2,4-dione
> <PUBCHEM_IUPAC_CAS_NAME>
1-[(8S)-2,2-dimethyl-1,3,7-trioxaspiro[4.4]nonan-8-yl]-5-methylpyrimidine-2,4-dione
> <PUBCHEM_IUPAC_NAME_MARKUP>
1-[(8<I>S</I>)-2,2-dimethyl-1,3,7-trioxaspiro[4.4]nonan-8-yl]-5-methylpyrimidine-2,4-dione
> <PUBCHEM_IUPAC_NAME>
1-[(8S)-2,2-dimethyl-1,3,7-trioxaspiro[4.4]nonan-8-yl]-5-methylpyrimidine-2,4-dione
> <PUBCHEM_IUPAC_SYSTEMATIC_NAME>
1-[(8S)-2,2-dimethyl-1,3,7-trioxaspiro[4.4]nonan-8-yl]-5-methyl-pyrimidine-2,4-dione
> <PUBCHEM_IUPAC_TRADITIONAL_NAME>
1-[(8S)-2,2-dimethyl-1,3,7-trioxaspiro[4.4]nonan-8-yl]-5-methyl-pyrimidine-2,4-quinone
> <PUBCHEM_IUPAC_INCHI>
InChI=1S/C13H18N2O5/c1-8-5-15(11(17)14-10(8)16)9-4-13(6-18-9)7-19-12(2,3)20-13/h5,9H,4,6-7H2,1-3H3,(H,14,16,17)/t9-,13?/m0/s1
> <PUBCHEM_IUPAC_INCHIKEY>
PBPNSKIZVJFGLU-LLTODGECSA-N
> <PUBCHEM_XLOGP3_AA>
-0.2
> <PUBCHEM_EXACT_MASS>
282.12157168
> <PUBCHEM_MOLECULAR_FORMULA>
C13H18N2O5
> <PUBCHEM_MOLECULAR_WEIGHT>
282.29
> <PUBCHEM_OPENEYE_CAN_SMILES>
CC1=CN(C(=O)NC1=O)C2CC3(CO2)COC(O3)(C)C
> <PUBCHEM_OPENEYE_ISO_SMILES>
CC1=CN(C(=O)NC1=O)[C@@H]2CC3(CO2)COC(O3)(C)C
> <PUBCHEM_CACTVS_TPSA>
77.1
> <PUBCHEM_MONOISOTOPIC_WEIGHT>
282.12157168
> <PUBCHEM_TOTAL_CHARGE>
0
> <PUBCHEM_HEAVY_ATOM_COUNT>
20
> <PUBCHEM_ATOM_DEF_STEREO_COUNT>
1
> <PUBCHEM_ATOM_UDEF_STEREO_COUNT>
1
> <PUBCHEM_BOND_DEF_STEREO_COUNT>
0
> <PUBCHEM_BOND_UDEF_STEREO_COUNT>
0
> <PUBCHEM_ISOTOPIC_ATOM_COUNT>
0
> <PUBCHEM_COMPONENT_COUNT>
1
> <PUBCHEM_CACTVS_TAUTO_COUNT>
-1
> <PUBCHEM_COORDINATE_TYPE>
1
5
255
> <PUBCHEM_BONDANNOTATIONS>
16  18  8
18  19  8
11  6  5
6  16  8
6  17  8
7  17  8
7  19  8
8  9  3
$$$$
