504263
  -OEChem-10302200282D
 63 65  0     1  0  0  0  0  0999 V2000
    3.7320    2.0000    0.0000 N   0  0  0  0  0  0  0  0  0  0  0  0
    4.5981   -0.5000    0.0000 N   0  0  0  0  0  0  0  0  0  0  0  0
    2.8660    3.5000    0.0000 C   0  0  0  0  0  0  0  0  0  0  0  0
    3.7320    4.0000    0.0000 C   0  0  0  0  0  0  0  0  0  0  0  0
    2.0000    4.0000    0.0000 C   0  0  0  0  0  0  0  0  0  0  0  0
    2.8660    2.5000    0.0000 C   0  0  2  0  0  0  0  0  0  0  0  0
    3.7320    5.0000    0.0000 C   0  0  0  0  0  0  0  0  0  0  0  0
    2.0000    5.0000    0.0000 C   0  0  0  0  0  0  0  0  0  0  0  0
    2.8660    5.5000    0.0000 C   0  0  0  0  0  0  0  0  0  0  0  0
    2.0000    2.0000    0.0000 C   0  0  0  0  0  0  0  0  0  0  0  0
    3.7320    1.0000    0.0000 C   0  0  0  0  0  0  0  0  0  0  0  0
    4.5981    0.5000    0.0000 C   0  0  0  0  0  0  0  0  0  0  0  0
    5.4641   -1.0000    0.0000 C   0  0  0  0  0  0  0  0  0  0  0  0
    5.4641   -2.0000    0.0000 C   0  0  0  0  0  0  0  0  0  0  0  0
    6.3301   -2.5000    0.0000 C   0  0  0  0  0  0  0  0  0  0  0  0
    6.3301   -3.5000    0.0000 C   0  0  0  0  0  0  0  0  0  0  0  0
    7.1962   -2.0000    0.0000 C   0  0  0  0  0  0  0  0  0  0  0  0
    7.1962   -4.0000    0.0000 C   0  0  0  0  0  0  0  0  0  0  0  0
    7.1962   -1.0000    0.0000 C   0  0  0  0  0  0  0  0  0  0  0  0
    5.4641   -4.0000    0.0000 C   0  0  0  0  0  0  0  0  0  0  0  0
    8.0622   -2.5000    0.0000 C   0  0  0  0  0  0  0  0  0  0  0  0
    7.1962   -5.0000    0.0000 C   0  0  0  0  0  0  0  0  0  0  0  0
    8.0622   -0.5000    0.0000 C   0  0  0  0  0  0  0  0  0  0  0  0
    5.4641   -5.0000    0.0000 C   0  0  0  0  0  0  0  0  0  0  0  0
    8.9282   -2.0000    0.0000 C   0  0  0  0  0  0  0  0  0  0  0  0
    6.3301   -5.5000    0.0000 C   0  0  0  0  0  0  0  0  0  0  0  0
    8.9282   -1.0000    0.0000 C   0  0  0  0  0  0  0  0  0  0  0  0
    3.4030    3.1900    0.0000 H   0  0  0  0  0  0  0  0  0  0  0  0
    3.9441    3.4174    0.0000 H   0  0  0  0  0  0  0  0  0  0  0  0
    4.3426    4.1077    0.0000 H   0  0  0  0  0  0  0  0  0  0  0  0
    1.3894    4.1077    0.0000 H   0  0  0  0  0  0  0  0  0  0  0  0
    1.7880    3.4174    0.0000 H   0  0  0  0  0  0  0  0  0  0  0  0
    2.8660    1.8800    0.0000 H   0  0  0  0  0  0  0  0  0  0  0  0
    4.3426    4.8923    0.0000 H   0  0  0  0  0  0  0  0  0  0  0  0
    3.9441    5.5826    0.0000 H   0  0  0  0  0  0  0  0  0  0  0  0
    1.7880    5.5826    0.0000 H   0  0  0  0  0  0  0  0  0  0  0  0
    1.3894    4.8923    0.0000 H   0  0  0  0  0  0  0  0  0  0  0  0
    3.2646    5.9750    0.0000 H   0  0  0  0  0  0  0  0  0  0  0  0
    2.4675    5.9750    0.0000 H   0  0  0  0  0  0  0  0  0  0  0  0
    4.2690    2.3100    0.0000 H   0  0  0  0  0  0  0  0  0  0  0  0
    1.6900    2.5369    0.0000 H   0  0  0  0  0  0  0  0  0  0  0  0
    1.4631    1.6900    0.0000 H   0  0  0  0  0  0  0  0  0  0  0  0
    2.3100    1.4631    0.0000 H   0  0  0  0  0  0  0  0  0  0  0  0
    3.1215    1.1077    0.0000 H   0  0  0  0  0  0  0  0  0  0  0  0
    3.5200    0.4174    0.0000 H   0  0  0  0  0  0  0  0  0  0  0  0
    5.2087    0.3923    0.0000 H   0  0  0  0  0  0  0  0  0  0  0  0
    4.8101    1.0826    0.0000 H   0  0  0  0  0  0  0  0  0  0  0  0
    4.0611   -0.8100    0.0000 H   0  0  0  0  0  0  0  0  0  0  0  0
    6.0747   -1.1077    0.0000 H   0  0  0  0  0  0  0  0  0  0  0  0
    5.6762   -0.4174    0.0000 H   0  0  0  0  0  0  0  0  0  0  0  0
    4.8535   -1.8923    0.0000 H   0  0  0  0  0  0  0  0  0  0  0  0
    5.2520   -2.5826    0.0000 H   0  0  0  0  0  0  0  0  0  0  0  0
    5.7932   -2.8100    0.0000 H   0  0  0  0  0  0  0  0  0  0  0  0
    7.7331   -3.6900    0.0000 H   0  0  0  0  0  0  0  0  0  0  0  0
    6.6592   -0.6900    0.0000 H   0  0  0  0  0  0  0  0  0  0  0  0
    4.9272   -3.6900    0.0000 H   0  0  0  0  0  0  0  0  0  0  0  0
    8.0622   -3.1200    0.0000 H   0  0  0  0  0  0  0  0  0  0  0  0
    7.7331   -5.3100    0.0000 H   0  0  0  0  0  0  0  0  0  0  0  0
    8.0622    0.1200    0.0000 H   0  0  0  0  0  0  0  0  0  0  0  0
    4.9272   -5.3100    0.0000 H   0  0  0  0  0  0  0  0  0  0  0  0
    9.4651   -2.3100    0.0000 H   0  0  0  0  0  0  0  0  0  0  0  0
    6.3301   -6.1200    0.0000 H   0  0  0  0  0  0  0  0  0  0  0  0
    9.4651   -0.6900    0.0000 H   0  0  0  0  0  0  0  0  0  0  0  0
  6  1  1  1  0  0  0
  1 11  1  0  0  0  0
  1 40  1  0  0  0  0
  2 12  1  0  0  0  0
  2 13  1  0  0  0  0
  2 48  1  0  0  0  0
  3  4  1  0  0  0  0
  3  5  1  0  0  0  0
  3  6  1  0  0  0  0
  3 28  1  0  0  0  0
  4  7  1  0  0  0  0
  4 29  1  0  0  0  0
  4 30  1  0  0  0  0
  5  8  1  0  0  0  0
  5 31  1  0  0  0  0
  5 32  1  0  0  0  0
  6 10  1  0  0  0  0
  6 33  1  0  0  0  0
  7  9  1  0  0  0  0
  7 34  1  0  0  0  0
  7 35  1  0  0  0  0
  8  9  1  0  0  0  0
  8 36  1  0  0  0  0
  8 37  1  0  0  0  0
  9 38  1  0  0  0  0
  9 39  1  0  0  0  0
 10 41  1  0  0  0  0
 10 42  1  0  0  0  0
 10 43  1  0  0  0  0
 11 12  1  0  0  0  0
 11 44  1  0  0  0  0
 11 45  1  0  0  0  0
 12 46  1  0  0  0  0
 12 47  1  0  0  0  0
 13 14  1  0  0  0  0
 13 49  1  0  0  0  0
 13 50  1  0  0  0  0
 14 15  1  0  0  0  0
 14 51  1  0  0  0  0
 14 52  1  0  0  0  0
 15 16  1  0  0  0  0
 15 17  1  0  0  0  0
 15 53  1  0  0  0  0
 16 18  2  0  0  0  0
 16 20  1  0  0  0  0
 17 19  2  0  0  0  0
 17 21  1  0  0  0  0
 18 22  1  0  0  0  0
 18 54  1  0  0  0  0
 19 23  1  0  0  0  0
 19 55  1  0  0  0  0
 20 24  2  0  0  0  0
 20 56  1  0  0  0  0
 21 25  2  0  0  0  0
 21 57  1  0  0  0  0
 22 26  2  0  0  0  0
 22 58  1  0  0  0  0
 23 27  2  0  0  0  0
 23 59  1  0  0  0  0
 24 26  1  0  0  0  0
 24 60  1  0  0  0  0
 25 27  1  0  0  0  0
 25 61  1  0  0  0  0
 26 62  1  0  0  0  0
 27 63  1  0  0  0  0
M  END
> <PUBCHEM_COMPOUND_CID>
504263
> <PUBCHEM_COMPOUND_CANONICALIZED>
1
> <PUBCHEM_CACTVS_COMPLEXITY>
347
> <PUBCHEM_CACTVS_HBOND_ACCEPTOR>
2
> <PUBCHEM_CACTVS_HBOND_DONOR>
2
> <PUBCHEM_CACTVS_ROTATABLE_BOND>
10
> <PUBCHEM_CACTVS_SUBSKEYS>
AAADcfB7AAAAAAAAAAAAAAAAAAAAAAAAAAAwYMAAAAAAAAABQAAAHAAQAAAADSjBGAQyAILAAACAAiBCAAACAAAgAAAIiIAIAIgIYCKAkRCUIAAgkACIiAcQgMAOgAAAAAAAAAAAAAAAAAAAAAAAAAAAAA==
> <PUBCHEM_IUPAC_OPENEYE_NAME>
N'-[(1S)-1-cyclohexylethyl]-N-(3,3-diphenylpropyl)ethane-1,2-diamine
> <PUBCHEM_IUPAC_CAS_NAME>
N'-[(1S)-1-cyclohexylethyl]-N-(3,3-diphenylpropyl)ethane-1,2-diamine
> <PUBCHEM_IUPAC_NAME_MARKUP>
<I>N</I>&apos;-[(1<I>S</I>)-1-cyclohexylethyl]-<I>N</I>-(3,3-diphenylpropyl)ethane-1,2-diamine
> <PUBCHEM_IUPAC_NAME>
N'-[(1S)-1-cyclohexylethyl]-N-(3,3-diphenylpropyl)ethane-1,2-diamine
> <PUBCHEM_IUPAC_SYSTEMATIC_NAME>
N'-[(1S)-1-cyclohexylethyl]-N-(3,3-diphenylpropyl)ethane-1,2-diamine
> <PUBCHEM_IUPAC_TRADITIONAL_NAME>
[(1S)-1-cyclohexylethyl]-[2-(3,3-diphenylpropylamino)ethyl]amine
> <PUBCHEM_IUPAC_INCHI>
InChI=1S/C25H36N2/c1-21(22-11-5-2-6-12-22)27-20-19-26-18-17-25(23-13-7-3-8-14-23)24-15-9-4-10-16-24/h3-4,7-10,13-16,21-22,25-27H,2,5-6,11-12,17-20H2,1H3/t21-/m0/s1
> <PUBCHEM_IUPAC_INCHIKEY>
WYNHNZBGRMECSG-NRFANRHFSA-N
> <PUBCHEM_XLOGP3_AA>
5.9
> <PUBCHEM_EXACT_MASS>
364.287849157
> <PUBCHEM_MOLECULAR_FORMULA>
C25H36N2
> <PUBCHEM_MOLECULAR_WEIGHT>
364.6
> <PUBCHEM_OPENEYE_CAN_SMILES>
CC(C1CCCCC1)NCCNCCC(C2=CC=CC=C2)C3=CC=CC=C3
> <PUBCHEM_OPENEYE_ISO_SMILES>
C[C@@H](C1CCCCC1)NCCNCCC(C2=CC=CC=C2)C3=CC=CC=C3
> <PUBCHEM_CACTVS_TPSA>
24.1
> <PUBCHEM_MONOISOTOPIC_WEIGHT>
364.287849157
> <PUBCHEM_TOTAL_CHARGE>
0
> <PUBCHEM_HEAVY_ATOM_COUNT>
27
> <PUBCHEM_ATOM_DEF_STEREO_COUNT>
1
> <PUBCHEM_ATOM_UDEF_STEREO_COUNT>
0
> <PUBCHEM_BOND_DEF_STEREO_COUNT>
0
> <PUBCHEM_BOND_UDEF_STEREO_COUNT>
0
> <PUBCHEM_ISOTOPIC_ATOM_COUNT>
0
> <PUBCHEM_COMPONENT_COUNT>
1
> <PUBCHEM_CACTVS_TAUTO_COUNT>
-1
> <PUBCHEM_COORDINATE_TYPE>
1
5
255
> <PUBCHEM_BONDANNOTATIONS>
6  1  5
16  18  8
16  20  8
17  19  8
17  21  8
18  22  8
19  23  8
20  24  8
21  25  8
22  26  8
23  27  8
24  26  8
25  27  8
$$$$
