504215
  -OEChem-10302200282D
 87 93  0     1  0  0  0  0  0999 V2000
    3.9234   -1.8443    0.0000 Cl  0  0  0  0  0  0  0  0  0  0  0  0
   11.3108    0.3321    0.0000 O   0  0  0  0  0  0  0  0  0  0  0  0
    9.9765    1.2321    0.0000 O   0  0  0  0  0  0  0  0  0  0  0  0
    8.6398   -2.1889    0.0000 O   0  0  0  0  0  0  0  0  0  0  0  0
    7.6295   -3.3491    0.0000 O   0  0  0  0  0  0  0  0  0  0  0  0
    8.7606   -0.4610    0.0000 N   0  0  0  0  0  0  0  0  0  0  0  0
    6.5655   -1.9824    0.0000 N   0  0  0  0  0  0  0  0  0  0  0  0
    4.9873   -3.2110    0.0000 N   0  0  0  0  0  0  0  0  0  0  0  0
    6.0513   -4.5777    0.0000 N   0  0  0  0  0  0  0  0  0  0  0  0
   12.8083    2.1526    0.0000 C   0  0  3  0  0  0  0  0  0  0  0  0
   14.2073    2.1614    0.0000 C   0  0  0  0  0  0  0  0  0  0  0  0
   13.0672    3.1185    0.0000 C   0  0  3  0  0  0  0  0  0  0  0  0
   11.5873    1.2869    0.0000 C   0  0  2  0  0  0  0  0  0  0  0  0
   12.3305    4.1011    0.0000 C   0  0  0  0  0  0  0  0  0  0  0  0
   11.0339    2.8074    0.0000 C   0  0  0  0  0  0  0  0  0  0  0  0
   10.7583    1.8461    0.0000 C   0  0  3  0  0  0  0  0  0  0  0  0
   15.0733    2.6614    0.0000 C   0  0  0  0  0  0  0  0  0  0  0  0
   14.7073    1.2954    0.0000 C   0  0  0  0  0  0  0  0  0  0  0  0
   12.4164    0.7277    0.0000 C   0  0  0  0  0  0  0  0  0  0  0  0
    9.7581   -0.5308    0.0000 C   0  0  1  0  0  0  0  0  0  0  0  0
   10.1965   -1.4296    0.0000 C   0  0  0  0  0  0  0  0  0  0  0  0
    8.2014   -1.2901    0.0000 C   0  0  0  0  0  0  0  0  0  0  0  0
    9.6373   -2.2586    0.0000 C   0  0  0  0  0  0  0  0  0  0  0  0
    7.2038   -1.2203    0.0000 C   0  0  2  0  0  0  0  0  0  0  0  0
    6.6778   -0.3768    0.0000 C   0  0  0  0  0  0  0  0  0  0  0  0
    5.7126   -0.6148    0.0000 C   0  0  2  0  0  0  0  0  0  0  0  0
    5.6390   -1.6062    0.0000 C   0  0  0  0  0  0  0  0  0  0  0  0
   10.0757   -3.1574    0.0000 C   0  0  0  0  0  0  0  0  0  0  0  0
    4.9488    0.0306    0.0000 C   0  0  0  0  0  0  0  0  0  0  0  0
    6.7030   -2.9729    0.0000 C   0  0  0  0  0  0  0  0  0  0  0  0
    5.1258    1.0148    0.0000 C   0  0  0  0  0  0  0  0  0  0  0  0
    4.8499   -2.2205    0.0000 C   0  0  0  0  0  0  0  0  0  0  0  0
    5.9139   -3.5872    0.0000 C   0  0  0  0  0  0  0  0  0  0  0  0
    4.3620    1.6602    0.0000 C   0  0  0  0  0  0  0  0  0  0  0  0
    4.5391    2.6444    0.0000 C   0  0  0  0  0  0  0  0  0  0  0  0
    3.7753    3.2899    0.0000 C   0  0  0  0  0  0  0  0  0  0  0  0
    5.4799    2.9832    0.0000 C   0  0  0  0  0  0  0  0  0  0  0  0
    3.9523    4.2741    0.0000 C   0  0  0  0  0  0  0  0  0  0  0  0
    5.6570    3.9674    0.0000 C   0  0  0  0  0  0  0  0  0  0  0  0
    2.8008    2.9219    0.0000 C   0  0  0  0  0  0  0  0  0  0  0  0
    4.8932    4.6128    0.0000 C   0  0  0  0  0  0  0  0  0  0  0  0
    3.1672    4.9586    0.0000 C   0  0  0  0  0  0  0  0  0  0  0  0
    2.0000    3.5881    0.0000 C   0  0  0  0  0  0  0  0  0  0  0  0
    2.1844    4.6133    0.0000 C   0  0  0  0  0  0  0  0  0  0  0  0
   10.3173    0.2982    0.0000 B   0  0  0  0  0  0  0  0  0  0  0  0
   12.9984    1.5624    0.0000 H   0  0  0  0  0  0  0  0  0  0  0  0
   13.5175    3.5447    0.0000 H   0  0  0  0  0  0  0  0  0  0  0  0
   12.6483    4.6335    0.0000 H   0  0  0  0  0  0  0  0  0  0  0  0
   11.7174    4.1931    0.0000 H   0  0  0  0  0  0  0  0  0  0  0  0
   11.0289    3.4274    0.0000 H   0  0  0  0  0  0  0  0  0  0  0  0
   10.4196    2.8912    0.0000 H   0  0  0  0  0  0  0  0  0  0  0  0
   10.2438    2.1922    0.0000 H   0  0  0  0  0  0  0  0  0  0  0  0
   15.3833    2.1245    0.0000 H   0  0  0  0  0  0  0  0  0  0  0  0
   15.6102    2.9714    0.0000 H   0  0  0  0  0  0  0  0  0  0  0  0
   14.7633    3.1983    0.0000 H   0  0  0  0  0  0  0  0  0  0  0  0
   14.1703    0.9854    0.0000 H   0  0  0  0  0  0  0  0  0  0  0  0
   15.0173    0.7584    0.0000 H   0  0  0  0  0  0  0  0  0  0  0  0
   15.2442    1.6054    0.0000 H   0  0  0  0  0  0  0  0  0  0  0  0
   12.0697    0.2137    0.0000 H   0  0  0  0  0  0  0  0  0  0  0  0
   12.9304    0.3810    0.0000 H   0  0  0  0  0  0  0  0  0  0  0  0
   12.7631    1.2417    0.0000 H   0  0  0  0  0  0  0  0  0  0  0  0
    9.4864    0.0264    0.0000 H   0  0  0  0  0  0  0  0  0  0  0  0
   10.6425   -1.8603    0.0000 H   0  0  0  0  0  0  0  0  0  0  0  0
   10.6981   -1.0652    0.0000 H   0  0  0  0  0  0  0  0  0  0  0  0
    8.4888    0.0962    0.0000 H   0  0  0  0  0  0  0  0  0  0  0  0
    9.0188   -2.2154    0.0000 H   0  0  0  0  0  0  0  0  0  0  0  0
    7.4463   -1.7909    0.0000 H   0  0  0  0  0  0  0  0  0  0  0  0
    7.2354   -0.1059    0.0000 H   0  0  0  0  0  0  0  0  0  0  0  0
    6.4669    0.2062    0.0000 H   0  0  0  0  0  0  0  0  0  0  0  0
    5.1409   -0.8549    0.0000 H   0  0  0  0  0  0  0  0  0  0  0  0
    9.7290   -3.6714    0.0000 H   0  0  0  0  0  0  0  0  0  0  0  0
   10.6942   -3.2007    0.0000 H   0  0  0  0  0  0  0  0  0  0  0  0
    4.3669    0.2447    0.0000 H   0  0  0  0  0  0  0  0  0  0  0  0
    4.6369   -0.5053    0.0000 H   0  0  0  0  0  0  0  0  0  0  0  0
    5.7077    0.8007    0.0000 H   0  0  0  0  0  0  0  0  0  0  0  0
    5.4377    1.5507    0.0000 H   0  0  0  0  0  0  0  0  0  0  0  0
    3.7801    1.8743    0.0000 H   0  0  0  0  0  0  0  0  0  0  0  0
    4.0502    1.1244    0.0000 H   0  0  0  0  0  0  0  0  0  0  0  0
    5.5621   -4.9586    0.0000 H   0  0  0  0  0  0  0  0  0  0  0  0
    6.6258   -4.8110    0.0000 H   0  0  0  0  0  0  0  0  0  0  0  0
    5.9535    2.5830    0.0000 H   0  0  0  0  0  0  0  0  0  0  0  0
    6.2403    4.1774    0.0000 H   0  0  0  0  0  0  0  0  0  0  0  0
    2.6981    2.3105    0.0000 H   0  0  0  0  0  0  0  0  0  0  0  0
    5.0030    5.2230    0.0000 H   0  0  0  0  0  0  0  0  0  0  0  0
    3.2840    5.5675    0.0000 H   0  0  0  0  0  0  0  0  0  0  0  0
    1.4175    3.3758    0.0000 H   0  0  0  0  0  0  0  0  0  0  0  0
    1.7124    5.0153    0.0000 H   0  0  0  0  0  0  0  0  0  0  0  0
  1 32  1  0  0  0  0
  2 13  1  0  0  0  0
  2 45  1  0  0  0  0
  3 16  1  0  0  0  0
  3 45  1  0  0  0  0
  4 22  2  0  0  0  0
  5 30  2  0  0  0  0
 20  6  1  6  0  0  0
  6 22  1  0  0  0  0
  6 65  1  0  0  0  0
  7 24  1  0  0  0  0
  7 27  1  0  0  0  0
  7 30  1  0  0  0  0
  8 32  1  0  0  0  0
  8 33  2  0  0  0  0
  9 33  1  0  0  0  0
  9 79  1  0  0  0  0
  9 80  1  0  0  0  0
 10 11  1  0  0  0  0
 10 13  1  0  0  0  0
 10 14  1  0  0  0  0
 10 46  1  0  0  0  0
 11 12  1  0  0  0  0
 11 17  1  0  0  0  0
 11 18  1  0  0  0  0
 12 14  1  0  0  0  0
 12 15  1  0  0  0  0
 12 47  1  0  0  0  0
 13 16  1  0  0  0  0
 13 19  1  6  0  0  0
 14 48  1  0  0  0  0
 14 49  1  0  0  0  0
 15 16  1  0  0  0  0
 15 50  1  0  0  0  0
 15 51  1  0  0  0  0
 16 52  1  0  0  0  0
 17 53  1  0  0  0  0
 17 54  1  0  0  0  0
 17 55  1  0  0  0  0
 18 56  1  0  0  0  0
 18 57  1  0  0  0  0
 18 58  1  0  0  0  0
 19 59  1  0  0  0  0
 19 60  1  0  0  0  0
 19 61  1  0  0  0  0
 20 21  1  0  0  0  0
 20 45  1  0  0  0  0
 20 62  1  0  0  0  0
 21 23  1  0  0  0  0
 21 63  1  0  0  0  0
 21 64  1  0  0  0  0
 24 22  1  1  0  0  0
 23 28  2  0  0  0  0
 23 66  1  0  0  0  0
 24 25  1  0  0  0  0
 24 67  1  0  0  0  0
 25 26  1  0  0  0  0
 25 68  1  0  0  0  0
 25 69  1  0  0  0  0
 26 27  1  0  0  0  0
 26 29  1  6  0  0  0
 26 70  1  0  0  0  0
 27 32  2  0  0  0  0
 28 71  1  0  0  0  0
 28 72  1  0  0  0  0
 29 31  1  0  0  0  0
 29 73  1  0  0  0  0
 29 74  1  0  0  0  0
 30 33  1  0  0  0  0
 31 34  1  0  0  0  0
 31 75  1  0  0  0  0
 31 76  1  0  0  0  0
 34 35  1  0  0  0  0
 34 77  1  0  0  0  0
 34 78  1  0  0  0  0
 35 36  1  0  0  0  0
 35 37  2  0  0  0  0
 36 38  1  0  0  0  0
 36 40  2  0  0  0  0
 37 39  1  0  0  0  0
 37 81  1  0  0  0  0
 38 41  1  0  0  0  0
 38 42  2  0  0  0  0
 39 41  2  0  0  0  0
 39 82  1  0  0  0  0
 40 43  1  0  0  0  0
 40 83  1  0  0  0  0
 41 84  1  0  0  0  0
 42 44  1  0  0  0  0
 42 85  1  0  0  0  0
 43 44  2  0  0  0  0
 43 86  1  0  0  0  0
 44 87  1  0  0  0  0
M  END
> <PUBCHEM_COMPOUND_CID>
504215
> <PUBCHEM_COMPOUND_CANONICALIZED>
1
> <PUBCHEM_CACTVS_COMPLEXITY>
1290
> <PUBCHEM_CACTVS_HBOND_ACCEPTOR>
5
> <PUBCHEM_CACTVS_HBOND_DONOR>
2
> <PUBCHEM_CACTVS_ROTATABLE_BOND>
9
> <PUBCHEM_CACTVS_SUBSKEYS>
AAADcfJ/uAAEAAAAAAAAAAAAAABgAWJAAAAwYMGCAAAAAEjBUAAoHgIQAAAAD37hmAYzAMPAAACoAidydAACAAEgAAAIiIGIAIgJYDKAkTCUIAAklgCIiAeYyfCPgAACAAAQAADAAAYAADCAAAAAAAAAAA==
> <PUBCHEM_IUPAC_OPENEYE_NAME>
(6S,8R)-3-amino-1-chloro-8-[3-(1-naphthyl)propyl]-4-oxo-N-[(1R)-1-[(2R)-2,9,9-trimethyl-3,5-dioxa-4-boratricyclo[6.1.1.02,6]decan-4-yl]but-3-enyl]-7,8-dihydro-6H-pyrrolo[1,2-a]pyrazine-6-carboxamide
> <PUBCHEM_IUPAC_CAS_NAME>
(6S,8R)-3-amino-1-chloro-8-[3-(1-naphthalenyl)propyl]-4-oxo-N-[(1R)-1-[(2R)-2,9,9-trimethyl-3,5-dioxa-4-boratricyclo[6.1.1.02,6]decan-4-yl]but-3-enyl]-7,8-dihydro-6H-pyrrolo[1,2-a]pyrazine-6-carboxamide
> <PUBCHEM_IUPAC_NAME_MARKUP>
(6<I>S</I>,8<I>R</I>)-3-amino-1-chloro-8-(3-naphthalen-1-ylpropyl)-4-oxo-<I>N</I>-[(1<I>R</I>)-1-[(2<I>R</I>)-2,9,9-trimethyl-3,5-dioxa-4-boratricyclo[6.1.1.0<SUP>2,6</SUP>]decan-4-yl]but-3-enyl]-7,8-dihydro-6<I>H</I>-pyrrolo[1,2-a]pyrazine-6-carboxamide
> <PUBCHEM_IUPAC_NAME>
(6S,8R)-3-amino-1-chloro-8-(3-naphthalen-1-ylpropyl)-4-oxo-N-[(1R)-1-[(2R)-2,9,9-trimethyl-3,5-dioxa-4-boratricyclo[6.1.1.02,6]decan-4-yl]but-3-enyl]-7,8-dihydro-6H-pyrrolo[1,2-a]pyrazine-6-carboxamide
> <PUBCHEM_IUPAC_SYSTEMATIC_NAME>
(6S,8R)-3-azanyl-1-chloranyl-8-(3-naphthalen-1-ylpropyl)-4-oxidanylidene-N-[(1R)-1-[(2R)-2,9,9-trimethyl-3,5-dioxa-4-boratricyclo[6.1.1.02,6]decan-4-yl]but-3-enyl]-7,8-dihydro-6H-pyrrolo[1,2-a]pyrazine-6-carboxamide
> <PUBCHEM_IUPAC_TRADITIONAL_NAME>
(6S,8R)-3-amino-1-chloro-4-keto-8-[3-(1-naphthyl)propyl]-N-[(1R)-1-[(2R)-2,9,9-trimethyl-3,5-dioxa-4-boratricyclo[6.1.1.02,6]decan-4-yl]but-3-enyl]-7,8-dihydro-6H-pyrrolo[1,2-a]pyrazine-6-carboxamide
> <PUBCHEM_IUPAC_INCHI>
InChI=1S/C35H42BClN4O4/c1-5-10-28(36-44-27-19-23-18-26(34(23,2)3)35(27,4)45-36)39-32(42)25-17-22(29-30(37)40-31(38)33(43)41(25)29)15-9-14-21-13-8-12-20-11-6-7-16-24(20)21/h5-8,11-13,16,22-23,25-28H,1,9-10,14-15,17-19H2,2-4H3,(H2,38,40)(H,39,42)/t22-,23?,25+,26?,27?,28+,35-/m1/s1
> <PUBCHEM_IUPAC_INCHIKEY>
VLLQDDAEHZTGOZ-CINLDOQWSA-N
> <PUBCHEM_EXACT_MASS>
628.2987637
> <PUBCHEM_MOLECULAR_FORMULA>
C35H42BClN4O4
> <PUBCHEM_MOLECULAR_WEIGHT>
629.0
> <PUBCHEM_OPENEYE_CAN_SMILES>
B1(OC2CC3CC(C3(C)C)C2(O1)C)C(CC=C)NC(=O)C4CC(C5=C(N=C(C(=O)N45)N)Cl)CCCC6=CC=CC7=CC=CC=C76
> <PUBCHEM_OPENEYE_ISO_SMILES>
B1(OC2CC3CC([C@]2(O1)C)C3(C)C)[C@H](CC=C)NC(=O)[C@@H]4C[C@H](C5=C(N=C(C(=O)N45)N)Cl)CCCC6=CC=CC7=CC=CC=C76
> <PUBCHEM_CACTVS_TPSA>
106
> <PUBCHEM_MONOISOTOPIC_WEIGHT>
628.2987637
> <PUBCHEM_TOTAL_CHARGE>
0
> <PUBCHEM_HEAVY_ATOM_COUNT>
45
> <PUBCHEM_ATOM_DEF_STEREO_COUNT>
4
> <PUBCHEM_ATOM_UDEF_STEREO_COUNT>
3
> <PUBCHEM_BOND_DEF_STEREO_COUNT>
0
> <PUBCHEM_BOND_UDEF_STEREO_COUNT>
0
> <PUBCHEM_ISOTOPIC_ATOM_COUNT>
0
> <PUBCHEM_COMPONENT_COUNT>
1
> <PUBCHEM_CACTVS_TAUTO_COUNT>
-1
> <PUBCHEM_COORDINATE_TYPE>
1
5
255
> <PUBCHEM_BONDANNOTATIONS>
10  14  3
12  14  3
13  19  6
16  15  3
24  22  5
26  29  6
27  32  8
30  33  8
35  36  8
35  37  8
36  38  8
36  40  8
37  39  8
38  41  8
38  42  8
39  41  8
40  43  8
42  44  8
43  44  8
20  6  6
7  27  8
7  30  8
8  32  8
8  33  8
$$$$
