504203
  -OEChem-10302200282D
 78 83  0     1  0  0  0  0  0999 V2000
    2.0000    0.5312    0.0000 Cl  0  0  0  0  0  0  0  0  0  0  0  0
    6.3934   -5.9262    0.0000 F   0  0  0  0  0  0  0  0  0  0  0  0
    5.0907   -6.4765    0.0000 F   0  0  0  0  0  0  0  0  0  0  0  0
    5.8431   -4.6235    0.0000 F   0  0  0  0  0  0  0  0  0  0  0  0
    9.3875    2.7075    0.0000 O   0  0  0  0  0  0  0  0  0  0  0  0
    8.0532    3.6075    0.0000 O   0  0  0  0  0  0  0  0  0  0  0  0
    6.7164    0.1865    0.0000 O   0  0  0  0  0  0  0  0  0  0  0  0
    5.7061   -0.9737    0.0000 O   0  0  0  0  0  0  0  0  0  0  0  0
    6.8372    1.9144    0.0000 N   0  0  0  0  0  0  0  0  0  0  0  0
    4.6421    0.3930    0.0000 N   0  0  0  0  0  0  0  0  0  0  0  0
    3.0640   -0.8356    0.0000 N   0  0  0  0  0  0  0  0  0  0  0  0
    4.1280   -2.2023    0.0000 N   0  0  0  0  0  0  0  0  0  0  0  0
   10.8850    4.5280    0.0000 C   0  0  3  0  0  0  0  0  0  0  0  0
   12.2839    4.5368    0.0000 C   0  0  0  0  0  0  0  0  0  0  0  0
   11.1438    5.4939    0.0000 C   0  0  3  0  0  0  0  0  0  0  0  0
    9.6640    3.6624    0.0000 C   0  0  2  0  0  0  0  0  0  0  0  0
   10.4072    6.4765    0.0000 C   0  0  0  0  0  0  0  0  0  0  0  0
    9.1106    5.1828    0.0000 C   0  0  0  0  0  0  0  0  0  0  0  0
    8.8349    4.2215    0.0000 C   0  0  3  0  0  0  0  0  0  0  0  0
   13.1500    5.0368    0.0000 C   0  0  0  0  0  0  0  0  0  0  0  0
   12.7839    3.6708    0.0000 C   0  0  0  0  0  0  0  0  0  0  0  0
   10.4930    3.1032    0.0000 C   0  0  0  0  0  0  0  0  0  0  0  0
    7.8348    1.8446    0.0000 C   0  0  1  0  0  0  0  0  0  0  0  0
    8.2732    0.9458    0.0000 C   0  0  0  0  0  0  0  0  0  0  0  0
    6.2780    1.0853    0.0000 C   0  0  0  0  0  0  0  0  0  0  0  0
    7.7140    0.1168    0.0000 C   0  0  0  0  0  0  0  0  0  0  0  0
    5.2805    1.1551    0.0000 C   0  0  2  0  0  0  0  0  0  0  0  0
    4.7544    1.9986    0.0000 C   0  0  0  0  0  0  0  0  0  0  0  0
    8.1523   -0.7820    0.0000 C   0  0  0  0  0  0  0  0  0  0  0  0
    3.7892    1.7606    0.0000 C   0  0  0  0  0  0  0  0  0  0  0  0
    3.7156    0.7692    0.0000 C   0  0  0  0  0  0  0  0  0  0  0  0
    4.7796   -0.5975    0.0000 C   0  0  0  0  0  0  0  0  0  0  0  0
    2.9265    0.1549    0.0000 C   0  0  0  0  0  0  0  0  0  0  0  0
    3.9905   -1.2118    0.0000 C   0  0  0  0  0  0  0  0  0  0  0  0
    3.3389   -2.8166    0.0000 C   0  0  0  0  0  0  0  0  0  0  0  0
    3.4764   -3.8071    0.0000 C   0  0  0  0  0  0  0  0  0  0  0  0
    4.4029   -4.1833    0.0000 C   0  0  0  0  0  0  0  0  0  0  0  0
    2.6873   -4.4214    0.0000 C   0  0  0  0  0  0  0  0  0  0  0  0
    4.5404   -5.1738    0.0000 C   0  0  0  0  0  0  0  0  0  0  0  0
    2.8248   -5.4119    0.0000 C   0  0  0  0  0  0  0  0  0  0  0  0
    3.7513   -5.7881    0.0000 C   0  0  0  0  0  0  0  0  0  0  0  0
    5.4669   -5.5500    0.0000 C   0  0  0  0  0  0  0  0  0  0  0  0
    8.3940    2.6737    0.0000 B   0  0  0  0  0  0  0  0  0  0  0  0
   11.0750    3.9378    0.0000 H   0  0  0  0  0  0  0  0  0  0  0  0
   11.5941    5.9201    0.0000 H   0  0  0  0  0  0  0  0  0  0  0  0
   10.7250    7.0089    0.0000 H   0  0  0  0  0  0  0  0  0  0  0  0
    9.7940    6.5685    0.0000 H   0  0  0  0  0  0  0  0  0  0  0  0
    9.1055    5.8028    0.0000 H   0  0  0  0  0  0  0  0  0  0  0  0
    8.4963    5.2666    0.0000 H   0  0  0  0  0  0  0  0  0  0  0  0
    8.3205    4.5676    0.0000 H   0  0  0  0  0  0  0  0  0  0  0  0
   13.4600    4.4999    0.0000 H   0  0  0  0  0  0  0  0  0  0  0  0
   13.6869    5.3468    0.0000 H   0  0  0  0  0  0  0  0  0  0  0  0
   12.8400    5.5738    0.0000 H   0  0  0  0  0  0  0  0  0  0  0  0
   12.2470    3.3608    0.0000 H   0  0  0  0  0  0  0  0  0  0  0  0
   13.0939    3.1339    0.0000 H   0  0  0  0  0  0  0  0  0  0  0  0
   13.3209    3.9808    0.0000 H   0  0  0  0  0  0  0  0  0  0  0  0
   10.1463    2.5892    0.0000 H   0  0  0  0  0  0  0  0  0  0  0  0
   11.0070    2.7564    0.0000 H   0  0  0  0  0  0  0  0  0  0  0  0
   10.8397    3.6172    0.0000 H   0  0  0  0  0  0  0  0  0  0  0  0
    7.5630    2.4019    0.0000 H   0  0  0  0  0  0  0  0  0  0  0  0
    8.7192    0.5151    0.0000 H   0  0  0  0  0  0  0  0  0  0  0  0
    8.7747    1.3102    0.0000 H   0  0  0  0  0  0  0  0  0  0  0  0
    6.5654    2.4716    0.0000 H   0  0  0  0  0  0  0  0  0  0  0  0
    7.0955    0.1600    0.0000 H   0  0  0  0  0  0  0  0  0  0  0  0
    5.5230    0.5845    0.0000 H   0  0  0  0  0  0  0  0  0  0  0  0
    5.3121    2.2696    0.0000 H   0  0  0  0  0  0  0  0  0  0  0  0
    4.5435    2.5816    0.0000 H   0  0  0  0  0  0  0  0  0  0  0  0
    7.8056   -1.2960    0.0000 H   0  0  0  0  0  0  0  0  0  0  0  0
    8.7708   -0.8253    0.0000 H   0  0  0  0  0  0  0  0  0  0  0  0
    3.7049    2.3748    0.0000 H   0  0  0  0  0  0  0  0  0  0  0  0
    3.1695    1.7413    0.0000 H   0  0  0  0  0  0  0  0  0  0  0  0
    4.7024   -2.4355    0.0000 H   0  0  0  0  0  0  0  0  0  0  0  0
    3.0488   -2.2686    0.0000 H   0  0  0  0  0  0  0  0  0  0  0  0
    2.7489   -3.0072    0.0000 H   0  0  0  0  0  0  0  0  0  0  0  0
    4.8921   -3.8024    0.0000 H   0  0  0  0  0  0  0  0  0  0  0  0
    2.1128   -4.1881    0.0000 H   0  0  0  0  0  0  0  0  0  0  0  0
    2.3355   -5.7928    0.0000 H   0  0  0  0  0  0  0  0  0  0  0  0
    3.8365   -6.4022    0.0000 H   0  0  0  0  0  0  0  0  0  0  0  0
  1 33  1  0  0  0  0
  2 42  1  0  0  0  0
  3 42  1  0  0  0  0
  4 42  1  0  0  0  0
  5 16  1  0  0  0  0
  5 43  1  0  0  0  0
  6 19  1  0  0  0  0
  6 43  1  0  0  0  0
  7 25  2  0  0  0  0
  8 32  2  0  0  0  0
 23  9  1  6  0  0  0
  9 25  1  0  0  0  0
  9 63  1  0  0  0  0
 10 27  1  0  0  0  0
 10 31  1  0  0  0  0
 10 32  1  0  0  0  0
 11 33  1  0  0  0  0
 11 34  2  0  0  0  0
 12 34  1  0  0  0  0
 12 35  1  0  0  0  0
 12 72  1  0  0  0  0
 13 14  1  0  0  0  0
 13 16  1  0  0  0  0
 13 17  1  0  0  0  0
 13 44  1  0  0  0  0
 14 15  1  0  0  0  0
 14 20  1  0  0  0  0
 14 21  1  0  0  0  0
 15 17  1  0  0  0  0
 15 18  1  0  0  0  0
 15 45  1  0  0  0  0
 16 19  1  0  0  0  0
 16 22  1  6  0  0  0
 17 46  1  0  0  0  0
 17 47  1  0  0  0  0
 18 19  1  0  0  0  0
 18 48  1  0  0  0  0
 18 49  1  0  0  0  0
 19 50  1  0  0  0  0
 20 51  1  0  0  0  0
 20 52  1  0  0  0  0
 20 53  1  0  0  0  0
 21 54  1  0  0  0  0
 21 55  1  0  0  0  0
 21 56  1  0  0  0  0
 22 57  1  0  0  0  0
 22 58  1  0  0  0  0
 22 59  1  0  0  0  0
 23 24  1  0  0  0  0
 23 43  1  0  0  0  0
 23 60  1  0  0  0  0
 24 26  1  0  0  0  0
 24 61  1  0  0  0  0
 24 62  1  0  0  0  0
 27 25  1  1  0  0  0
 26 29  2  0  0  0  0
 26 64  1  0  0  0  0
 27 28  1  0  0  0  0
 27 65  1  0  0  0  0
 28 30  1  0  0  0  0
 28 66  1  0  0  0  0
 28 67  1  0  0  0  0
 29 68  1  0  0  0  0
 29 69  1  0  0  0  0
 30 31  1  0  0  0  0
 30 70  1  0  0  0  0
 30 71  1  0  0  0  0
 31 33  2  0  0  0  0
 32 34  1  0  0  0  0
 35 36  1  0  0  0  0
 35 73  1  0  0  0  0
 35 74  1  0  0  0  0
 36 37  2  0  0  0  0
 36 38  1  0  0  0  0
 37 39  1  0  0  0  0
 37 75  1  0  0  0  0
 38 40  2  0  0  0  0
 38 76  1  0  0  0  0
 39 41  2  0  0  0  0
 39 42  1  0  0  0  0
 40 41  1  0  0  0  0
 40 77  1  0  0  0  0
 41 78  1  0  0  0  0
M  END
> <PUBCHEM_COMPOUND_CID>
504203
> <PUBCHEM_COMPOUND_CANONICALIZED>
1
> <PUBCHEM_CACTVS_COMPLEXITY>
1240
> <PUBCHEM_CACTVS_HBOND_ACCEPTOR>
8
> <PUBCHEM_CACTVS_HBOND_DONOR>
2
> <PUBCHEM_CACTVS_ROTATABLE_BOND>
8
> <PUBCHEM_CACTVS_SUBSKEYS>
AAADcfJ7uYAEAAAAAAAAAAAAAABgAWJAAAAwYMEAAAAAAEgBAAAoHwIQAAAAD37hmBYzAIPAAACoAidydACCAAEgAAAJiIGIBIgJYDKAmTGUIAhklgCIiAeYwfAPgAACAAAAAADAAAYAADCAAAAAAAAAAA==
> <PUBCHEM_IUPAC_OPENEYE_NAME>
(6S)-1-chloro-4-oxo-3-[[3-(trifluoromethyl)phenyl]methylamino]-N-[(1R)-1-[(2R)-2,9,9-trimethyl-3,5-dioxa-4-boratricyclo[6.1.1.02,6]decan-4-yl]but-3-enyl]-7,8-dihydro-6H-pyrrolo[1,2-a]pyrazine-6-carboxamide
> <PUBCHEM_IUPAC_CAS_NAME>
(6S)-1-chloro-4-oxo-3-[[3-(trifluoromethyl)phenyl]methylamino]-N-[(1R)-1-[(2R)-2,9,9-trimethyl-3,5-dioxa-4-boratricyclo[6.1.1.02,6]decan-4-yl]but-3-enyl]-7,8-dihydro-6H-pyrrolo[1,2-a]pyrazine-6-carboxamide
> <PUBCHEM_IUPAC_NAME_MARKUP>
(6<I>S</I>)-1-chloro-4-oxo-3-[[3-(trifluoromethyl)phenyl]methylamino]-<I>N</I>-[(1<I>R</I>)-1-[(2<I>R</I>)-2,9,9-trimethyl-3,5-dioxa-4-boratricyclo[6.1.1.0<SUP>2,6</SUP>]decan-4-yl]but-3-enyl]-7,8-dihydro-6<I>H</I>-pyrrolo[1,2-a]pyrazine-6-carboxamide
> <PUBCHEM_IUPAC_NAME>
(6S)-1-chloro-4-oxo-3-[[3-(trifluoromethyl)phenyl]methylamino]-N-[(1R)-1-[(2R)-2,9,9-trimethyl-3,5-dioxa-4-boratricyclo[6.1.1.02,6]decan-4-yl]but-3-enyl]-7,8-dihydro-6H-pyrrolo[1,2-a]pyrazine-6-carboxamide
> <PUBCHEM_IUPAC_SYSTEMATIC_NAME>
(6S)-1-chloranyl-4-oxidanylidene-3-[[3-(trifluoromethyl)phenyl]methylamino]-N-[(1R)-1-[(2R)-2,9,9-trimethyl-3,5-dioxa-4-boratricyclo[6.1.1.02,6]decan-4-yl]but-3-enyl]-7,8-dihydro-6H-pyrrolo[1,2-a]pyrazine-6-carboxamide
> <PUBCHEM_IUPAC_TRADITIONAL_NAME>
(6S)-1-chloro-4-keto-3-[[3-(trifluoromethyl)benzyl]amino]-N-[(1R)-1-[(2R)-2,9,9-trimethyl-3,5-dioxa-4-boratricyclo[6.1.1.02,6]decan-4-yl]but-3-enyl]-7,8-dihydro-6H-pyrrolo[1,2-a]pyrazine-6-carboxamide
> <PUBCHEM_IUPAC_INCHI>
InChI=1S/C30H35BClF3N4O4/c1-5-7-23(31-42-22-14-18-13-21(28(18,2)3)29(22,4)43-31)37-26(40)20-11-10-19-24(32)38-25(27(41)39(19)20)36-15-16-8-6-9-17(12-16)30(33,34)35/h5-6,8-9,12,18,20-23H,1,7,10-11,13-15H2,2-4H3,(H,36,38)(H,37,40)/t18?,20-,21?,22?,23-,29+/m0/s1
> <PUBCHEM_IUPAC_INCHIKEY>
NNFFVPJLWZKFGN-YMIVREHKSA-N
> <PUBCHEM_EXACT_MASS>
618.2391980
> <PUBCHEM_MOLECULAR_FORMULA>
C30H35BClF3N4O4
> <PUBCHEM_MOLECULAR_WEIGHT>
618.9
> <PUBCHEM_OPENEYE_CAN_SMILES>
B1(OC2CC3CC(C3(C)C)C2(O1)C)C(CC=C)NC(=O)C4CCC5=C(N=C(C(=O)N45)NCC6=CC(=CC=C6)C(F)(F)F)Cl
> <PUBCHEM_OPENEYE_ISO_SMILES>
B1(OC2CC3CC([C@]2(O1)C)C3(C)C)[C@H](CC=C)NC(=O)[C@@H]4CCC5=C(N=C(C(=O)N45)NCC6=CC(=CC=C6)C(F)(F)F)Cl
> <PUBCHEM_CACTVS_TPSA>
92.3
> <PUBCHEM_MONOISOTOPIC_WEIGHT>
618.2391980
> <PUBCHEM_TOTAL_CHARGE>
0
> <PUBCHEM_HEAVY_ATOM_COUNT>
43
> <PUBCHEM_ATOM_DEF_STEREO_COUNT>
3
> <PUBCHEM_ATOM_UDEF_STEREO_COUNT>
3
> <PUBCHEM_BOND_DEF_STEREO_COUNT>
0
> <PUBCHEM_BOND_UDEF_STEREO_COUNT>
0
> <PUBCHEM_ISOTOPIC_ATOM_COUNT>
0
> <PUBCHEM_COMPONENT_COUNT>
1
> <PUBCHEM_CACTVS_TAUTO_COUNT>
-1
> <PUBCHEM_COORDINATE_TYPE>
1
5
255
> <PUBCHEM_BONDANNOTATIONS>
10  31  8
10  32  8
11  33  8
11  34  8
13  17  3
15  17  3
16  22  6
19  18  3
27  25  5
31  33  8
32  34  8
36  37  8
36  38  8
37  39  8
38  40  8
39  41  8
40  41  8
23  9  6
$$$$
