504289
  -OEChem-10302200282D
 41 41  0     1  0  0  0  0  0999 V2000
    4.7200   -0.5319    0.0000 O   0  0  0  0  0  0  0  0  0  0  0  0
    6.0290   -1.4830    0.0000 O   0  0  0  0  0  0  0  0  0  0  0  0
    3.9467    0.7604    0.0000 O   0  0  0  0  0  0  0  0  0  0  0  0
    7.6991    1.5694    0.0000 O   0  0  0  0  0  0  0  0  0  0  0  0
    8.5126   -0.2577    0.0000 O   0  0  0  0  0  0  0  0  0  0  0  0
    2.3644    1.4649    0.0000 O   0  0  0  0  0  0  0  0  0  0  0  0
    9.2814    2.2739    0.0000 O   0  0  0  0  0  0  0  0  0  0  0  0
    3.7657    2.4830    0.0000 O   0  0  0  0  0  0  0  0  0  0  0  0
    9.1004    0.5513    0.0000 O   0  0  0  0  0  0  0  0  0  0  0  0
    9.9139   -1.2758    0.0000 O   0  0  0  0  0  0  0  0  0  0  0  0
    8.3316   -1.9802    0.0000 O   0  0  0  0  0  0  0  0  0  0  0  0
    5.5290    0.0559    0.0000 C   0  0  3  0  0  0  0  0  0  0  0  0
    6.1168    0.8649    0.0000 C   0  0  0  0  0  0  0  0  0  0  0  0
    6.3381   -0.5319    0.0000 C   0  0  0  0  0  0  0  0  0  0  0  0
    5.0290   -1.4830    0.0000 C   0  0  0  0  0  0  0  0  0  0  0  0
    4.9413    0.8649    0.0000 C   0  0  0  0  0  0  0  0  0  0  0  0
    7.1114    0.7604    0.0000 C   0  0  3  0  0  0  0  0  0  0  0  0
    5.0290   -2.4830    0.0000 C   0  0  0  0  0  0  0  0  0  0  0  0
    4.0780   -1.7920    0.0000 C   0  0  0  0  0  0  0  0  0  0  0  0
    7.5181   -0.1532    0.0000 C   0  0  0  0  0  0  0  0  0  0  0  0
    3.3590    1.5694    0.0000 C   0  0  0  0  0  0  0  0  0  0  0  0
    8.6937    1.4649    0.0000 C   0  0  0  0  0  0  0  0  0  0  0  0
    8.9193   -1.1712    0.0000 C   0  0  0  0  0  0  0  0  0  0  0  0
    6.2877    1.4609    0.0000 H   0  0  0  0  0  0  0  0  0  0  0  0
    5.5596    1.1367    0.0000 H   0  0  0  0  0  0  0  0  0  0  0  0
    6.9045   -0.7841    0.0000 H   0  0  0  0  0  0  0  0  0  0  0  0
    6.6481    0.0050    0.0000 H   0  0  0  0  0  0  0  0  0  0  0  0
    5.4985    1.1367    0.0000 H   0  0  0  0  0  0  0  0  0  0  0  0
    4.7704    1.4609    0.0000 H   0  0  0  0  0  0  0  0  0  0  0  0
    6.8592    1.3268    0.0000 H   0  0  0  0  0  0  0  0  0  0  0  0
    4.4090   -2.4830    0.0000 H   0  0  0  0  0  0  0  0  0  0  0  0
    5.0290   -3.1030    0.0000 H   0  0  0  0  0  0  0  0  0  0  0  0
    5.6490   -2.4830    0.0000 H   0  0  0  0  0  0  0  0  0  0  0  0
    3.8864   -1.2023    0.0000 H   0  0  0  0  0  0  0  0  0  0  0  0
    3.4883   -1.9836    0.0000 H   0  0  0  0  0  0  0  0  0  0  0  0
    4.2696   -2.3816    0.0000 H   0  0  0  0  0  0  0  0  0  0  0  0
    6.9165   -0.3032    0.0000 H   0  0  0  0  0  0  0  0  0  0  0  0
    7.5613   -0.7717    0.0000 H   0  0  0  0  0  0  0  0  0  0  0  0
    2.0000    1.9665    0.0000 H   0  0  0  0  0  0  0  0  0  0  0  0
    9.8980    2.2091    0.0000 H   0  0  0  0  0  0  0  0  0  0  0  0
   10.1660   -1.8422    0.0000 H   0  0  0  0  0  0  0  0  0  0  0  0
  1 12  1  0  0  0  0
  1 15  1  0  0  0  0
  2 14  1  0  0  0  0
  2 15  1  0  0  0  0
  3 16  1  0  0  0  0
  3 21  1  0  0  0  0
  4 17  1  0  0  0  0
  4 22  1  0  0  0  0
  5 20  1  0  0  0  0
  5 23  1  0  0  0  0
  6 21  1  0  0  0  0
  6 39  1  0  0  0  0
  7 22  1  0  0  0  0
  7 40  1  0  0  0  0
  8 21  2  0  0  0  0
  9 22  2  0  0  0  0
 10 23  1  0  0  0  0
 10 41  1  0  0  0  0
 11 23  2  0  0  0  0
 12 13  1  0  0  0  0
 12 14  1  0  0  0  0
 12 16  1  0  0  0  0
 13 17  1  0  0  0  0
 13 24  1  0  0  0  0
 13 25  1  0  0  0  0
 14 26  1  0  0  0  0
 14 27  1  0  0  0  0
 15 18  1  0  0  0  0
 15 19  1  0  0  0  0
 16 28  1  0  0  0  0
 16 29  1  0  0  0  0
 17 20  1  0  0  0  0
 17 30  1  0  0  0  0
 18 31  1  0  0  0  0
 18 32  1  0  0  0  0
 18 33  1  0  0  0  0
 19 34  1  0  0  0  0
 19 35  1  0  0  0  0
 19 36  1  0  0  0  0
 20 37  1  0  0  0  0
 20 38  1  0  0  0  0
M  END
> <PUBCHEM_COMPOUND_CID>
504289
> <PUBCHEM_COMPOUND_CANONICALIZED>
1
> <PUBCHEM_CACTVS_COMPLEXITY>
460
> <PUBCHEM_CACTVS_HBOND_ACCEPTOR>
11
> <PUBCHEM_CACTVS_HBOND_DONOR>
3
> <PUBCHEM_CACTVS_ROTATABLE_BOND>
10
> <PUBCHEM_CACTVS_SUBSKEYS>
AAADceBwPAAAAAAAAAAAAAAAAAAAASAAAAAAAAAAAAAAAAAAAAAAGgAACAAADFSggAICCAAABgAIAAAACAAAAAAAAAAAAAAAAAARAAIAAAAiAAAFAAAGAADAIAgMAAAAAAAAAAAAAAAAAAAAAAAAAAAAAA==
> <PUBCHEM_IUPAC_OPENEYE_NAME>
[2-carboxyoxy-3-[4-(carboxyoxymethyl)-2,2-dimethyl-1,3-dioxolan-4-yl]propyl] hydrogen carbonate
> <PUBCHEM_IUPAC_CAS_NAME>
carbonic acid [1-carboxyoxy-3-[4-(carboxyoxymethyl)-2,2-dimethyl-1,3-dioxolan-4-yl]propan-2-yl] ester
> <PUBCHEM_IUPAC_NAME_MARKUP>
[1-carboxyoxy-3-[4-(carboxyoxymethyl)-2,2-dimethyl-1,3-dioxolan-4-yl]propan-2-yl] hydrogen carbonate
> <PUBCHEM_IUPAC_NAME>
[1-carboxyoxy-3-[4-(carboxyoxymethyl)-2,2-dimethyl-1,3-dioxolan-4-yl]propan-2-yl] hydrogen carbonate
> <PUBCHEM_IUPAC_SYSTEMATIC_NAME>
[1-carboxyoxy-3-[4-(carboxyoxymethyl)-2,2-dimethyl-1,3-dioxolan-4-yl]propan-2-yl] hydrogen carbonate
> <PUBCHEM_IUPAC_TRADITIONAL_NAME>
carbonic acid [2-carboxyoxy-3-[4-(carboxyoxymethyl)-2,2-dimethyl-1,3-dioxolan-4-yl]propyl] ester
> <PUBCHEM_IUPAC_INCHI>
InChI=1S/C12H18O11/c1-11(2)21-6-12(23-11,5-20-9(15)16)3-7(22-10(17)18)4-19-8(13)14/h7H,3-6H2,1-2H3,(H,13,14)(H,15,16)(H,17,18)
> <PUBCHEM_IUPAC_INCHIKEY>
SVVFGEHAFUXBGP-UHFFFAOYSA-N
> <PUBCHEM_XLOGP3_AA>
0.6
> <PUBCHEM_EXACT_MASS>
338.08491139
> <PUBCHEM_MOLECULAR_FORMULA>
C12H18O11
> <PUBCHEM_MOLECULAR_WEIGHT>
338.26
> <PUBCHEM_OPENEYE_CAN_SMILES>
CC1(OCC(O1)(CC(COC(=O)O)OC(=O)O)COC(=O)O)C
> <PUBCHEM_OPENEYE_ISO_SMILES>
CC1(OCC(O1)(CC(COC(=O)O)OC(=O)O)COC(=O)O)C
> <PUBCHEM_CACTVS_TPSA>
158
> <PUBCHEM_MONOISOTOPIC_WEIGHT>
338.08491139
> <PUBCHEM_TOTAL_CHARGE>
0
> <PUBCHEM_HEAVY_ATOM_COUNT>
23
> <PUBCHEM_ATOM_DEF_STEREO_COUNT>
0
> <PUBCHEM_ATOM_UDEF_STEREO_COUNT>
2
> <PUBCHEM_BOND_DEF_STEREO_COUNT>
0
> <PUBCHEM_BOND_UDEF_STEREO_COUNT>
0
> <PUBCHEM_ISOTOPIC_ATOM_COUNT>
0
> <PUBCHEM_COMPONENT_COUNT>
1
> <PUBCHEM_CACTVS_TAUTO_COUNT>
-1
> <PUBCHEM_COORDINATE_TYPE>
1
5
255
> <PUBCHEM_BONDANNOTATIONS>
12  13  3
17  13  3
$$$$
