504239
  -OEChem-10302200282D
 33 34  0     1  0  0  0  0  0999 V2000
    2.0000   -4.0000    0.0000 Cl  0  0  0  0  0  0  0  0  0  0  0  0
    4.5981   -0.5000    0.0000 O   0  0  0  0  0  0  0  0  0  0  0  0
    3.7320    1.0000    0.0000 O   0  0  0  0  0  0  0  0  0  0  0  0
    5.4641    1.0000    0.0000 N   0  0  0  0  0  0  0  0  0  0  0  0
    3.7320   -1.0000    0.0000 C   0  0  3  0  0  0  0  0  0  0  0  0
    3.7320   -2.0000    0.0000 C   0  0  0  0  0  0  0  0  0  0  0  0
    2.8660   -0.5000    0.0000 C   0  0  0  0  0  0  0  0  0  0  0  0
    2.8660   -2.5000    0.0000 C   0  0  0  0  0  0  0  0  0  0  0  0
    4.5981   -2.5000    0.0000 C   0  0  0  0  0  0  0  0  0  0  0  0
    2.8660   -3.5000    0.0000 C   0  0  0  0  0  0  0  0  0  0  0  0
    4.5981   -3.5000    0.0000 C   0  0  0  0  0  0  0  0  0  0  0  0
    3.7320   -4.0000    0.0000 C   0  0  0  0  0  0  0  0  0  0  0  0
    4.5981    0.5000    0.0000 C   0  0  0  0  0  0  0  0  0  0  0  0
    5.4641    2.0000    0.0000 C   0  0  0  0  0  0  0  0  0  0  0  0
    4.5981    2.5000    0.0000 C   0  0  0  0  0  0  0  0  0  0  0  0
    6.3301    2.5000    0.0000 C   0  0  0  0  0  0  0  0  0  0  0  0
    4.5981    3.5000    0.0000 C   0  0  0  0  0  0  0  0  0  0  0  0
    6.3301    3.5000    0.0000 C   0  0  0  0  0  0  0  0  0  0  0  0
    5.4641    4.0000    0.0000 C   0  0  0  0  0  0  0  0  0  0  0  0
    3.7320   -0.3800    0.0000 H   0  0  0  0  0  0  0  0  0  0  0  0
    3.1760    0.0369    0.0000 H   0  0  0  0  0  0  0  0  0  0  0  0
    2.3291   -0.1900    0.0000 H   0  0  0  0  0  0  0  0  0  0  0  0
    2.5560   -1.0369    0.0000 H   0  0  0  0  0  0  0  0  0  0  0  0
    2.3291   -2.1900    0.0000 H   0  0  0  0  0  0  0  0  0  0  0  0
    5.1350   -2.1900    0.0000 H   0  0  0  0  0  0  0  0  0  0  0  0
    5.1350   -3.8100    0.0000 H   0  0  0  0  0  0  0  0  0  0  0  0
    3.7320   -4.6200    0.0000 H   0  0  0  0  0  0  0  0  0  0  0  0
    6.0010    0.6900    0.0000 H   0  0  0  0  0  0  0  0  0  0  0  0
    4.0611    2.1900    0.0000 H   0  0  0  0  0  0  0  0  0  0  0  0
    6.8671    2.1900    0.0000 H   0  0  0  0  0  0  0  0  0  0  0  0
    4.0611    3.8100    0.0000 H   0  0  0  0  0  0  0  0  0  0  0  0
    6.8671    3.8100    0.0000 H   0  0  0  0  0  0  0  0  0  0  0  0
    5.4641    4.6200    0.0000 H   0  0  0  0  0  0  0  0  0  0  0  0
  1 10  1  0  0  0  0
  2  5  1  0  0  0  0
  2 13  1  0  0  0  0
  3 13  2  0  0  0  0
  4 13  1  0  0  0  0
  4 14  1  0  0  0  0
  4 28  1  0  0  0  0
  5  6  1  0  0  0  0
  5  7  1  0  0  0  0
  5 20  1  0  0  0  0
  6  8  2  0  0  0  0
  6  9  1  0  0  0  0
  7 21  1  0  0  0  0
  7 22  1  0  0  0  0
  7 23  1  0  0  0  0
  8 10  1  0  0  0  0
  8 24  1  0  0  0  0
  9 11  2  0  0  0  0
  9 25  1  0  0  0  0
 10 12  2  0  0  0  0
 11 12  1  0  0  0  0
 11 26  1  0  0  0  0
 12 27  1  0  0  0  0
 14 15  2  0  0  0  0
 14 16  1  0  0  0  0
 15 17  1  0  0  0  0
 15 29  1  0  0  0  0
 16 18  2  0  0  0  0
 16 30  1  0  0  0  0
 17 19  2  0  0  0  0
 17 31  1  0  0  0  0
 18 19  1  0  0  0  0
 18 32  1  0  0  0  0
 19 33  1  0  0  0  0
M  END
> <PUBCHEM_COMPOUND_CID>
504239
> <PUBCHEM_COMPOUND_CANONICALIZED>
1
> <PUBCHEM_CACTVS_COMPLEXITY>
292
> <PUBCHEM_CACTVS_HBOND_ACCEPTOR>
2
> <PUBCHEM_CACTVS_HBOND_DONOR>
1
> <PUBCHEM_CACTVS_ROTATABLE_BOND>
4
> <PUBCHEM_CACTVS_SUBSKEYS>
AAADccByMAAEAAAAAAAAAAAAAAAAAAAAAAAwYAAAAAAAAAABQAAAHgIQAAAADB6hmCIyyILABACIAiRCWACCAAAhBwAIiAAAbokIJiLBs5mMMAhk1AFI6AeQwKAOAAAAIAAAAAAAAABAAAAAAAAAAAAAAA==
> <PUBCHEM_IUPAC_OPENEYE_NAME>
1-(3-chlorophenyl)ethyl N-phenylcarbamate
> <PUBCHEM_IUPAC_CAS_NAME>
N-phenylcarbamic acid 1-(3-chlorophenyl)ethyl ester
> <PUBCHEM_IUPAC_NAME_MARKUP>
1-(3-chlorophenyl)ethyl <I>N</I>-phenylcarbamate
> <PUBCHEM_IUPAC_NAME>
1-(3-chlorophenyl)ethyl N-phenylcarbamate
> <PUBCHEM_IUPAC_SYSTEMATIC_NAME>
1-(3-chlorophenyl)ethyl N-phenylcarbamate
> <PUBCHEM_IUPAC_TRADITIONAL_NAME>
N-phenylcarbamic acid 1-(3-chlorophenyl)ethyl ester
> <PUBCHEM_IUPAC_INCHI>
InChI=1S/C15H14ClNO2/c1-11(12-6-5-7-13(16)10-12)19-15(18)17-14-8-3-2-4-9-14/h2-11H,1H3,(H,17,18)
> <PUBCHEM_IUPAC_INCHIKEY>
HYSYRNIZESPHFB-UHFFFAOYSA-N
> <PUBCHEM_XLOGP3_AA>
4
> <PUBCHEM_EXACT_MASS>
275.0713064
> <PUBCHEM_MOLECULAR_FORMULA>
C15H14ClNO2
> <PUBCHEM_MOLECULAR_WEIGHT>
275.73
> <PUBCHEM_OPENEYE_CAN_SMILES>
CC(C1=CC(=CC=C1)Cl)OC(=O)NC2=CC=CC=C2
> <PUBCHEM_OPENEYE_ISO_SMILES>
CC(C1=CC(=CC=C1)Cl)OC(=O)NC2=CC=CC=C2
> <PUBCHEM_CACTVS_TPSA>
38.3
> <PUBCHEM_MONOISOTOPIC_WEIGHT>
275.0713064
> <PUBCHEM_TOTAL_CHARGE>
0
> <PUBCHEM_HEAVY_ATOM_COUNT>
19
> <PUBCHEM_ATOM_DEF_STEREO_COUNT>
0
> <PUBCHEM_ATOM_UDEF_STEREO_COUNT>
1
> <PUBCHEM_BOND_DEF_STEREO_COUNT>
0
> <PUBCHEM_BOND_UDEF_STEREO_COUNT>
0
> <PUBCHEM_ISOTOPIC_ATOM_COUNT>
0
> <PUBCHEM_COMPONENT_COUNT>
1
> <PUBCHEM_CACTVS_TAUTO_COUNT>
-1
> <PUBCHEM_COORDINATE_TYPE>
1
5
255
> <PUBCHEM_BONDANNOTATIONS>
10  12  8
11  12  8
14  15  8
14  16  8
15  17  8
16  18  8
17  19  8
18  19  8
5  7  3
6  8  8
6  9  8
8  10  8
9  11  8
$$$$
