504209
  -OEChem-10302200282D
101108  0     1  0  0  0  0  0999 V2000
    2.0000   -0.3862    0.0000 Cl  0  0  0  0  0  0  0  0  0  0  0  0
    6.3934   -6.8436    0.0000 F   0  0  0  0  0  0  0  0  0  0  0  0
    5.0907   -7.3939    0.0000 F   0  0  0  0  0  0  0  0  0  0  0  0
    5.8431   -5.5408    0.0000 F   0  0  0  0  0  0  0  0  0  0  0  0
    9.3875    1.7902    0.0000 O   0  0  0  0  0  0  0  0  0  0  0  0
    8.0532    2.6902    0.0000 O   0  0  0  0  0  0  0  0  0  0  0  0
    6.7164   -0.7308    0.0000 O   0  0  0  0  0  0  0  0  0  0  0  0
    5.7061   -1.8910    0.0000 O   0  0  0  0  0  0  0  0  0  0  0  0
    6.8372    0.9970    0.0000 N   0  0  0  0  0  0  0  0  0  0  0  0
    4.6421   -0.5243    0.0000 N   0  0  0  0  0  0  0  0  0  0  0  0
    3.0640   -1.7529    0.0000 N   0  0  0  0  0  0  0  0  0  0  0  0
    4.1280   -3.1196    0.0000 N   0  0  0  0  0  0  0  0  0  0  0  0
   10.8850    3.6107    0.0000 C   0  0  3  0  0  0  0  0  0  0  0  0
   12.2839    3.6195    0.0000 C   0  0  0  0  0  0  0  0  0  0  0  0
   11.1438    4.5766    0.0000 C   0  0  3  0  0  0  0  0  0  0  0  0
   10.4072    5.5592    0.0000 C   0  0  0  0  0  0  0  0  0  0  0  0
    9.6640    2.7450    0.0000 C   0  0  2  0  0  0  0  0  0  0  0  0
    9.1106    4.2655    0.0000 C   0  0  0  0  0  0  0  0  0  0  0  0
    8.8349    3.3042    0.0000 C   0  0  3  0  0  0  0  0  0  0  0  0
   13.1500    4.1195    0.0000 C   0  0  0  0  0  0  0  0  0  0  0  0
   12.7839    2.7535    0.0000 C   0  0  0  0  0  0  0  0  0  0  0  0
   10.4930    2.1858    0.0000 C   0  0  0  0  0  0  0  0  0  0  0  0
    7.8348    0.9273    0.0000 C   0  0  1  0  0  0  0  0  0  0  0  0
    8.2732    0.0285    0.0000 C   0  0  0  0  0  0  0  0  0  0  0  0
    6.2780    0.1680    0.0000 C   0  0  0  0  0  0  0  0  0  0  0  0
    7.7140   -0.8006    0.0000 C   0  0  0  0  0  0  0  0  0  0  0  0
    5.2805    0.2378    0.0000 C   0  0  2  0  0  0  0  0  0  0  0  0
    4.7544    1.0812    0.0000 C   0  0  0  0  0  0  0  0  0  0  0  0
    3.7892    0.8432    0.0000 C   0  0  2  0  0  0  0  0  0  0  0  0
    8.1523   -1.6994    0.0000 C   0  0  0  0  0  0  0  0  0  0  0  0
    3.7156   -0.1481    0.0000 C   0  0  0  0  0  0  0  0  0  0  0  0
    3.0254    1.4887    0.0000 C   0  0  0  0  0  0  0  0  0  0  0  0
    4.7796   -1.5148    0.0000 C   0  0  0  0  0  0  0  0  0  0  0  0
    2.9265   -0.7624    0.0000 C   0  0  0  0  0  0  0  0  0  0  0  0
    3.9905   -2.1291    0.0000 C   0  0  0  0  0  0  0  0  0  0  0  0
    3.2025    2.4729    0.0000 C   0  0  0  0  0  0  0  0  0  0  0  0
    4.1434    2.8117    0.0000 C   0  0  0  0  0  0  0  0  0  0  0  0
    2.4387    3.1183    0.0000 C   0  0  0  0  0  0  0  0  0  0  0  0
    3.3389   -3.7339    0.0000 C   0  0  0  0  0  0  0  0  0  0  0  0
    4.3204    3.7958    0.0000 C   0  0  0  0  0  0  0  0  0  0  0  0
    2.6157    4.1025    0.0000 C   0  0  0  0  0  0  0  0  0  0  0  0
    3.5566    4.4413    0.0000 C   0  0  0  0  0  0  0  0  0  0  0  0
    3.4764   -4.7244    0.0000 C   0  0  0  0  0  0  0  0  0  0  0  0
    3.7336    5.4255    0.0000 C   0  0  0  0  0  0  0  0  0  0  0  0
    4.4029   -5.1006    0.0000 C   0  0  0  0  0  0  0  0  0  0  0  0
    2.6873   -5.3387    0.0000 C   0  0  0  0  0  0  0  0  0  0  0  0
    2.9698    6.0709    0.0000 C   0  0  0  0  0  0  0  0  0  0  0  0
    4.6745    5.7642    0.0000 C   0  0  0  0  0  0  0  0  0  0  0  0
    4.5404   -6.0911    0.0000 C   0  0  0  0  0  0  0  0  0  0  0  0
    2.8248   -6.3292    0.0000 C   0  0  0  0  0  0  0  0  0  0  0  0
    3.7513   -6.7054    0.0000 C   0  0  0  0  0  0  0  0  0  0  0  0
    3.1469    7.0551    0.0000 C   0  0  0  0  0  0  0  0  0  0  0  0
    4.8516    6.7484    0.0000 C   0  0  0  0  0  0  0  0  0  0  0  0
    4.0878    7.3939    0.0000 C   0  0  0  0  0  0  0  0  0  0  0  0
    5.4669   -6.4674    0.0000 C   0  0  0  0  0  0  0  0  0  0  0  0
    8.3940    1.7563    0.0000 B   0  0  0  0  0  0  0  0  0  0  0  0
   11.0750    3.0205    0.0000 H   0  0  0  0  0  0  0  0  0  0  0  0
   11.5941    5.0028    0.0000 H   0  0  0  0  0  0  0  0  0  0  0  0
   10.7250    6.0916    0.0000 H   0  0  0  0  0  0  0  0  0  0  0  0
    9.7940    5.6512    0.0000 H   0  0  0  0  0  0  0  0  0  0  0  0
    9.1055    4.8854    0.0000 H   0  0  0  0  0  0  0  0  0  0  0  0
    8.4963    4.3492    0.0000 H   0  0  0  0  0  0  0  0  0  0  0  0
    8.3205    3.6502    0.0000 H   0  0  0  0  0  0  0  0  0  0  0  0
   13.4600    3.5826    0.0000 H   0  0  0  0  0  0  0  0  0  0  0  0
   13.6869    4.4295    0.0000 H   0  0  0  0  0  0  0  0  0  0  0  0
   12.8400    4.6564    0.0000 H   0  0  0  0  0  0  0  0  0  0  0  0
   12.2470    2.4435    0.0000 H   0  0  0  0  0  0  0  0  0  0  0  0
   13.0939    2.2165    0.0000 H   0  0  0  0  0  0  0  0  0  0  0  0
   13.3209    3.0635    0.0000 H   0  0  0  0  0  0  0  0  0  0  0  0
   10.1463    1.6718    0.0000 H   0  0  0  0  0  0  0  0  0  0  0  0
   11.0070    1.8391    0.0000 H   0  0  0  0  0  0  0  0  0  0  0  0
   10.8397    2.6998    0.0000 H   0  0  0  0  0  0  0  0  0  0  0  0
    7.5630    1.4845    0.0000 H   0  0  0  0  0  0  0  0  0  0  0  0
    8.7192   -0.4022    0.0000 H   0  0  0  0  0  0  0  0  0  0  0  0
    8.7747    0.3929    0.0000 H   0  0  0  0  0  0  0  0  0  0  0  0
    6.5654    1.5543    0.0000 H   0  0  0  0  0  0  0  0  0  0  0  0
    7.0955   -0.7573    0.0000 H   0  0  0  0  0  0  0  0  0  0  0  0
    5.5230   -0.3329    0.0000 H   0  0  0  0  0  0  0  0  0  0  0  0
    5.3121    1.3522    0.0000 H   0  0  0  0  0  0  0  0  0  0  0  0
    4.5435    1.6643    0.0000 H   0  0  0  0  0  0  0  0  0  0  0  0
    3.2176    0.6032    0.0000 H   0  0  0  0  0  0  0  0  0  0  0  0
    7.8056   -2.2134    0.0000 H   0  0  0  0  0  0  0  0  0  0  0  0
    8.7708   -1.7426    0.0000 H   0  0  0  0  0  0  0  0  0  0  0  0
    2.4436    1.7028    0.0000 H   0  0  0  0  0  0  0  0  0  0  0  0
    2.7136    0.9528    0.0000 H   0  0  0  0  0  0  0  0  0  0  0  0
    4.7024   -3.3529    0.0000 H   0  0  0  0  0  0  0  0  0  0  0  0
    4.6169    2.4115    0.0000 H   0  0  0  0  0  0  0  0  0  0  0  0
    1.8553    2.9083    0.0000 H   0  0  0  0  0  0  0  0  0  0  0  0
    3.0488   -3.1860    0.0000 H   0  0  0  0  0  0  0  0  0  0  0  0
    2.7489   -3.9245    0.0000 H   0  0  0  0  0  0  0  0  0  0  0  0
    4.9037    4.0059    0.0000 H   0  0  0  0  0  0  0  0  0  0  0  0
    2.1422    4.5027    0.0000 H   0  0  0  0  0  0  0  0  0  0  0  0
    4.8921   -4.7198    0.0000 H   0  0  0  0  0  0  0  0  0  0  0  0
    2.1128   -5.1055    0.0000 H   0  0  0  0  0  0  0  0  0  0  0  0
    2.3865    5.8609    0.0000 H   0  0  0  0  0  0  0  0  0  0  0  0
    5.1481    5.3641    0.0000 H   0  0  0  0  0  0  0  0  0  0  0  0
    2.3355   -6.7101    0.0000 H   0  0  0  0  0  0  0  0  0  0  0  0
    3.8365   -7.3196    0.0000 H   0  0  0  0  0  0  0  0  0  0  0  0
    2.6733    7.4553    0.0000 H   0  0  0  0  0  0  0  0  0  0  0  0
    5.4349    6.9585    0.0000 H   0  0  0  0  0  0  0  0  0  0  0  0
    4.1975    8.0041    0.0000 H   0  0  0  0  0  0  0  0  0  0  0  0
  1 34  1  0  0  0  0
  2 55  1  0  0  0  0
  3 55  1  0  0  0  0
  4 55  1  0  0  0  0
  5 17  1  0  0  0  0
  5 56  1  0  0  0  0
  6 19  1  0  0  0  0
  6 56  1  0  0  0  0
  7 25  2  0  0  0  0
  8 33  2  0  0  0  0
 23  9  1  6  0  0  0
  9 25  1  0  0  0  0
  9 76  1  0  0  0  0
 10 27  1  0  0  0  0
 10 31  1  0  0  0  0
 10 33  1  0  0  0  0
 11 34  1  0  0  0  0
 11 35  2  0  0  0  0
 12 35  1  0  0  0  0
 12 39  1  0  0  0  0
 12 86  1  0  0  0  0
 13 14  1  0  0  0  0
 13 16  1  0  0  0  0
 13 17  1  0  0  0  0
 13 57  1  0  0  0  0
 14 15  1  0  0  0  0
 14 20  1  0  0  0  0
 14 21  1  0  0  0  0
 15 16  1  0  0  0  0
 15 18  1  0  0  0  0
 15 58  1  0  0  0  0
 16 59  1  0  0  0  0
 16 60  1  0  0  0  0
 17 19  1  0  0  0  0
 17 22  1  6  0  0  0
 18 19  1  0  0  0  0
 18 61  1  0  0  0  0
 18 62  1  0  0  0  0
 19 63  1  0  0  0  0
 20 64  1  0  0  0  0
 20 65  1  0  0  0  0
 20 66  1  0  0  0  0
 21 67  1  0  0  0  0
 21 68  1  0  0  0  0
 21 69  1  0  0  0  0
 22 70  1  0  0  0  0
 22 71  1  0  0  0  0
 22 72  1  0  0  0  0
 23 24  1  0  0  0  0
 23 56  1  0  0  0  0
 23 73  1  0  0  0  0
 24 26  1  0  0  0  0
 24 74  1  0  0  0  0
 24 75  1  0  0  0  0
 27 25  1  1  0  0  0
 26 30  2  0  0  0  0
 26 77  1  0  0  0  0
 27 28  1  0  0  0  0
 27 78  1  0  0  0  0
 28 29  1  0  0  0  0
 28 79  1  0  0  0  0
 28 80  1  0  0  0  0
 29 31  1  0  0  0  0
 29 32  1  6  0  0  0
 29 81  1  0  0  0  0
 30 82  1  0  0  0  0
 30 83  1  0  0  0  0
 31 34  2  0  0  0  0
 32 36  1  0  0  0  0
 32 84  1  0  0  0  0
 32 85  1  0  0  0  0
 33 35  1  0  0  0  0
 36 37  2  0  0  0  0
 36 38  1  0  0  0  0
 37 40  1  0  0  0  0
 37 87  1  0  0  0  0
 38 41  2  0  0  0  0
 38 88  1  0  0  0  0
 39 43  1  0  0  0  0
 39 89  1  0  0  0  0
 39 90  1  0  0  0  0
 40 42  2  0  0  0  0
 40 91  1  0  0  0  0
 41 42  1  0  0  0  0
 41 92  1  0  0  0  0
 42 44  1  0  0  0  0
 43 45  2  0  0  0  0
 43 46  1  0  0  0  0
 44 47  2  0  0  0  0
 44 48  1  0  0  0  0
 45 49  1  0  0  0  0
 45 93  1  0  0  0  0
 46 50  2  0  0  0  0
 46 94  1  0  0  0  0
 47 52  1  0  0  0  0
 47 95  1  0  0  0  0
 48 53  2  0  0  0  0
 48 96  1  0  0  0  0
 49 51  2  0  0  0  0
 49 55  1  0  0  0  0
 50 51  1  0  0  0  0
 50 97  1  0  0  0  0
 51 98  1  0  0  0  0
 52 54  2  0  0  0  0
 52 99  1  0  0  0  0
 53 54  1  0  0  0  0
 53100  1  0  0  0  0
 54101  1  0  0  0  0
M  END
> <PUBCHEM_COMPOUND_CID>
504209
> <PUBCHEM_COMPOUND_CANONICALIZED>
1
> <PUBCHEM_CACTVS_COMPLEXITY>
1580
> <PUBCHEM_CACTVS_HBOND_ACCEPTOR>
8
> <PUBCHEM_CACTVS_HBOND_DONOR>
2
> <PUBCHEM_CACTVS_ROTATABLE_BOND>
11
> <PUBCHEM_CACTVS_SUBSKEYS>
AAADcfJ/uYAEAAAAAAAAAAAAAABgAWJAAAAwYMGDAAAAAEgBUAAoHwIQAAAAD37hmBYzAIPAAACoAidydACCAAEgAAAJiIGIBIgJYDKAmTGUIAhklgCIiAeYyfCPwAACAAAAAADAAAYAADCAAAAAAAAAAA==
> <PUBCHEM_IUPAC_OPENEYE_NAME>
(6S,8R)-1-chloro-4-oxo-8-[(4-phenylphenyl)methyl]-3-[[3-(trifluoromethyl)phenyl]methylamino]-N-[(1R)-1-[(2R)-2,9,9-trimethyl-3,5-dioxa-4-boratricyclo[6.1.1.02,6]decan-4-yl]but-3-enyl]-7,8-dihydro-6H-pyrrolo[1,2-a]pyrazine-6-carboxamide
> <PUBCHEM_IUPAC_CAS_NAME>
(6S,8R)-1-chloro-4-oxo-8-[(4-phenylphenyl)methyl]-3-[[3-(trifluoromethyl)phenyl]methylamino]-N-[(1R)-1-[(2R)-2,9,9-trimethyl-3,5-dioxa-4-boratricyclo[6.1.1.02,6]decan-4-yl]but-3-enyl]-7,8-dihydro-6H-pyrrolo[1,2-a]pyrazine-6-carboxamide
> <PUBCHEM_IUPAC_NAME_MARKUP>
(6<I>S</I>,8<I>R</I>)-1-chloro-4-oxo-8-[(4-phenylphenyl)methyl]-3-[[3-(trifluoromethyl)phenyl]methylamino]-<I>N</I>-[(1<I>R</I>)-1-[(2<I>R</I>)-2,9,9-trimethyl-3,5-dioxa-4-boratricyclo[6.1.1.0<SUP>2,6</SUP>]decan-4-yl]but-3-enyl]-7,8-dihydro-6<I>H</I>-pyrrolo[1,2-a]pyrazine-6-carboxamide
> <PUBCHEM_IUPAC_NAME>
(6S,8R)-1-chloro-4-oxo-8-[(4-phenylphenyl)methyl]-3-[[3-(trifluoromethyl)phenyl]methylamino]-N-[(1R)-1-[(2R)-2,9,9-trimethyl-3,5-dioxa-4-boratricyclo[6.1.1.02,6]decan-4-yl]but-3-enyl]-7,8-dihydro-6H-pyrrolo[1,2-a]pyrazine-6-carboxamide
> <PUBCHEM_IUPAC_SYSTEMATIC_NAME>
(6S,8R)-1-chloranyl-4-oxidanylidene-8-[(4-phenylphenyl)methyl]-3-[[3-(trifluoromethyl)phenyl]methylamino]-N-[(1R)-1-[(2R)-2,9,9-trimethyl-3,5-dioxa-4-boratricyclo[6.1.1.02,6]decan-4-yl]but-3-enyl]-7,8-dihydro-6H-pyrrolo[1,2-a]pyrazine-6-carboxamide
> <PUBCHEM_IUPAC_TRADITIONAL_NAME>
(6S,8R)-1-chloro-4-keto-8-(4-phenylbenzyl)-3-[[3-(trifluoromethyl)benzyl]amino]-N-[(1R)-1-[(2R)-2,9,9-trimethyl-3,5-dioxa-4-boratricyclo[6.1.1.02,6]decan-4-yl]but-3-enyl]-7,8-dihydro-6H-pyrrolo[1,2-a]pyrazine-6-carboxamide
> <PUBCHEM_IUPAC_INCHI>
InChI=1S/C43H45BClF3N4O4/c1-5-10-35(44-55-34-23-31-22-33(41(31,2)3)42(34,4)56-44)50-39(53)32-21-29(19-25-15-17-28(18-16-25)27-12-7-6-8-13-27)36-37(45)51-38(40(54)52(32)36)49-24-26-11-9-14-30(20-26)43(46,47)48/h5-9,11-18,20,29,31-35H,1,10,19,21-24H2,2-4H3,(H,49,51)(H,50,53)/t29-,31?,32+,33?,34?,35+,42-/m1/s1
> <PUBCHEM_IUPAC_INCHIKEY>
CVUHTTSYWFTKEW-DIDRVCTMSA-N
> <PUBCHEM_EXACT_MASS>
784.3174483
> <PUBCHEM_MOLECULAR_FORMULA>
C43H45BClF3N4O4
> <PUBCHEM_MOLECULAR_WEIGHT>
785.1
> <PUBCHEM_OPENEYE_CAN_SMILES>
B1(OC2CC3CC(C3(C)C)C2(O1)C)C(CC=C)NC(=O)C4CC(C5=C(N=C(C(=O)N45)NCC6=CC(=CC=C6)C(F)(F)F)Cl)CC7=CC=C(C=C7)C8=CC=CC=C8
> <PUBCHEM_OPENEYE_ISO_SMILES>
B1(OC2CC3CC([C@]2(O1)C)C3(C)C)[C@H](CC=C)NC(=O)[C@@H]4C[C@H](C5=C(N=C(C(=O)N45)NCC6=CC(=CC=C6)C(F)(F)F)Cl)CC7=CC=C(C=C7)C8=CC=CC=C8
> <PUBCHEM_CACTVS_TPSA>
92.3
> <PUBCHEM_MONOISOTOPIC_WEIGHT>
784.3174483
> <PUBCHEM_TOTAL_CHARGE>
0
> <PUBCHEM_HEAVY_ATOM_COUNT>
56
> <PUBCHEM_ATOM_DEF_STEREO_COUNT>
4
> <PUBCHEM_ATOM_UDEF_STEREO_COUNT>
3
> <PUBCHEM_BOND_DEF_STEREO_COUNT>
0
> <PUBCHEM_BOND_UDEF_STEREO_COUNT>
0
> <PUBCHEM_ISOTOPIC_ATOM_COUNT>
0
> <PUBCHEM_COMPONENT_COUNT>
1
> <PUBCHEM_CACTVS_TAUTO_COUNT>
-1
> <PUBCHEM_COORDINATE_TYPE>
1
5
255
> <PUBCHEM_BONDANNOTATIONS>
10  31  8
10  33  8
11  34  8
11  35  8
13  16  3
15  16  3
17  22  6
19  18  3
27  25  5
29  32  6
31  34  8
33  35  8
36  37  8
36  38  8
37  40  8
38  41  8
40  42  8
41  42  8
43  45  8
43  46  8
44  47  8
44  48  8
45  49  8
46  50  8
47  52  8
48  53  8
49  51  8
50  51  8
52  54  8
53  54  8
23  9  6
$$$$
