504277
  -OEChem-10302200282D
 67 70  0     1  0  0  0  0  0999 V2000
    9.5890   -0.5603    0.0000 N   0  0  0  0  0  0  0  0  0  0  0  0
    7.1172    0.3833    0.0000 N   0  0  0  0  0  0  0  0  0  0  0  0
   13.9777    0.0970    0.0000 C   0  0  0  0  0  0  0  0  0  0  0  0
   12.5787    0.0882    0.0000 C   0  0  1  0  0  0  0  0  0  0  0  0
   12.8376    1.0541    0.0000 C   0  0  2  0  0  0  0  0  0  0  0  0
   12.1010    2.0368    0.0000 C   0  0  0  0  0  0  0  0  0  0  0  0
   11.3577   -0.7775    0.0000 C   0  0  2  0  0  0  0  0  0  0  0  0
   10.8043    0.7430    0.0000 C   0  0  0  0  0  0  0  0  0  0  0  0
   10.5287   -0.2183    0.0000 C   0  0  1  0  0  0  0  0  0  0  0  0
   14.8437    0.5970    0.0000 C   0  0  0  0  0  0  0  0  0  0  0  0
   14.4777   -0.7690    0.0000 C   0  0  0  0  0  0  0  0  0  0  0  0
   11.3926   -1.7768    0.0000 C   0  0  0  0  0  0  0  0  0  0  0  0
    8.8230    0.0825    0.0000 C   0  0  0  0  0  0  0  0  0  0  0  0
    7.8833   -0.2595    0.0000 C   0  0  0  0  0  0  0  0  0  0  0  0
    6.1775    0.0413    0.0000 C   0  0  0  0  0  0  0  0  0  0  0  0
    5.4115    0.6840    0.0000 C   0  0  0  0  0  0  0  0  0  0  0  0
    4.4718    0.3420    0.0000 C   0  0  0  0  0  0  0  0  0  0  0  0
    3.7057    0.9848    0.0000 C   0  0  0  0  0  0  0  0  0  0  0  0
    4.2981   -0.6428    0.0000 C   0  0  0  0  0  0  0  0  0  0  0  0
    2.7660    0.6428    0.0000 C   0  0  0  0  0  0  0  0  0  0  0  0
    3.3584   -0.9848    0.0000 C   0  0  0  0  0  0  0  0  0  0  0  0
    3.8794    1.9696    0.0000 C   0  0  0  0  0  0  0  0  0  0  0  0
    5.0642   -1.2856    0.0000 C   0  0  0  0  0  0  0  0  0  0  0  0
    2.0000    1.2856    0.0000 C   0  0  0  0  0  0  0  0  0  0  0  0
    3.1848   -1.9696    0.0000 C   0  0  0  0  0  0  0  0  0  0  0  0
    3.1133    2.6124    0.0000 C   0  0  0  0  0  0  0  0  0  0  0  0
    4.8905   -2.2704    0.0000 C   0  0  0  0  0  0  0  0  0  0  0  0
    2.1736    2.2704    0.0000 C   0  0  0  0  0  0  0  0  0  0  0  0
    3.9508   -2.6124    0.0000 C   0  0  0  0  0  0  0  0  0  0  0  0
   12.3588   -0.7328    0.0000 H   0  0  0  0  0  0  0  0  0  0  0  0
   13.0576    1.8752    0.0000 H   0  0  0  0  0  0  0  0  0  0  0  0
   12.4188    2.5691    0.0000 H   0  0  0  0  0  0  0  0  0  0  0  0
   11.4878    2.1287    0.0000 H   0  0  0  0  0  0  0  0  0  0  0  0
   10.8155   -1.0780    0.0000 H   0  0  0  0  0  0  0  0  0  0  0  0
   10.7993    1.3630    0.0000 H   0  0  0  0  0  0  0  0  0  0  0  0
   10.1900    0.8268    0.0000 H   0  0  0  0  0  0  0  0  0  0  0  0
   10.4531   -0.8336    0.0000 H   0  0  0  0  0  0  0  0  0  0  0  0
   15.1537    0.0601    0.0000 H   0  0  0  0  0  0  0  0  0  0  0  0
   15.3806    0.9070    0.0000 H   0  0  0  0  0  0  0  0  0  0  0  0
   14.5337    1.1340    0.0000 H   0  0  0  0  0  0  0  0  0  0  0  0
   13.9407   -1.0790    0.0000 H   0  0  0  0  0  0  0  0  0  0  0  0
   14.7877   -1.3059    0.0000 H   0  0  0  0  0  0  0  0  0  0  0  0
   15.0146   -0.4590    0.0000 H   0  0  0  0  0  0  0  0  0  0  0  0
   10.7730   -1.7985    0.0000 H   0  0  0  0  0  0  0  0  0  0  0  0
   11.4143   -2.3965    0.0000 H   0  0  0  0  0  0  0  0  0  0  0  0
   12.0122   -1.7552    0.0000 H   0  0  0  0  0  0  0  0  0  0  0  0
    9.4813   -1.1709    0.0000 H   0  0  0  0  0  0  0  0  0  0  0  0
    9.2979    0.4810    0.0000 H   0  0  0  0  0  0  0  0  0  0  0  0
    8.5130    0.6194    0.0000 H   0  0  0  0  0  0  0  0  0  0  0  0
    7.4083   -0.6580    0.0000 H   0  0  0  0  0  0  0  0  0  0  0  0
    8.1933   -0.7965    0.0000 H   0  0  0  0  0  0  0  0  0  0  0  0
    7.2249    0.9939    0.0000 H   0  0  0  0  0  0  0  0  0  0  0  0
    5.7026   -0.3573    0.0000 H   0  0  0  0  0  0  0  0  0  0  0  0
    6.4875   -0.4957    0.0000 H   0  0  0  0  0  0  0  0  0  0  0  0
    5.8864    1.0826    0.0000 H   0  0  0  0  0  0  0  0  0  0  0  0
    5.1015    1.2210    0.0000 H   0  0  0  0  0  0  0  0  0  0  0  0
    4.9467   -0.0565    0.0000 H   0  0  0  0  0  0  0  0  0  0  0  0
    2.6584    0.0322    0.0000 H   0  0  0  0  0  0  0  0  0  0  0  0
    2.8835   -0.5863    0.0000 H   0  0  0  0  0  0  0  0  0  0  0  0
    4.4620    2.1817    0.0000 H   0  0  0  0  0  0  0  0  0  0  0  0
    5.6468   -1.0735    0.0000 H   0  0  0  0  0  0  0  0  0  0  0  0
    1.4174    1.0735    0.0000 H   0  0  0  0  0  0  0  0  0  0  0  0
    2.6022   -2.1817    0.0000 H   0  0  0  0  0  0  0  0  0  0  0  0
    3.2210    3.2230    0.0000 H   0  0  0  0  0  0  0  0  0  0  0  0
    5.3655   -2.6689    0.0000 H   0  0  0  0  0  0  0  0  0  0  0  0
    1.6987    2.6689    0.0000 H   0  0  0  0  0  0  0  0  0  0  0  0
    3.8432   -3.2230    0.0000 H   0  0  0  0  0  0  0  0  0  0  0  0
  9  1  1  6  0  0  0
  1 13  1  0  0  0  0
  1 47  1  0  0  0  0
  2 14  1  0  0  0  0
  2 15  1  0  0  0  0
  2 52  1  0  0  0  0
  3  4  1  0  0  0  0
  3  5  1  0  0  0  0
  3 10  1  0  0  0  0
  3 11  1  0  0  0  0
  4  6  1  0  0  0  0
  4  7  1  0  0  0  0
  4 30  1  1  0  0  0
  5  6  1  0  0  0  0
  5  8  1  0  0  0  0
  5 31  1  6  0  0  0
  6 32  1  0  0  0  0
  6 33  1  0  0  0  0
  7  9  1  0  0  0  0
  7 12  1  1  0  0  0
  7 34  1  0  0  0  0
  8  9  1  0  0  0  0
  8 35  1  0  0  0  0
  8 36  1  0  0  0  0
  9 37  1  0  0  0  0
 10 38  1  0  0  0  0
 10 39  1  0  0  0  0
 10 40  1  0  0  0  0
 11 41  1  0  0  0  0
 11 42  1  0  0  0  0
 11 43  1  0  0  0  0
 12 44  1  0  0  0  0
 12 45  1  0  0  0  0
 12 46  1  0  0  0  0
 13 14  1  0  0  0  0
 13 48  1  0  0  0  0
 13 49  1  0  0  0  0
 14 50  1  0  0  0  0
 14 51  1  0  0  0  0
 15 16  1  0  0  0  0
 15 53  1  0  0  0  0
 15 54  1  0  0  0  0
 16 17  1  0  0  0  0
 16 55  1  0  0  0  0
 16 56  1  0  0  0  0
 17 18  1  0  0  0  0
 17 19  1  0  0  0  0
 17 57  1  0  0  0  0
 18 20  2  0  0  0  0
 18 22  1  0  0  0  0
 19 21  2  0  0  0  0
 19 23  1  0  0  0  0
 20 24  1  0  0  0  0
 20 58  1  0  0  0  0
 21 25  1  0  0  0  0
 21 59  1  0  0  0  0
 22 26  2  0  0  0  0
 22 60  1  0  0  0  0
 23 27  2  0  0  0  0
 23 61  1  0  0  0  0
 24 28  2  0  0  0  0
 24 62  1  0  0  0  0
 25 29  2  0  0  0  0
 25 63  1  0  0  0  0
 26 28  1  0  0  0  0
 26 64  1  0  0  0  0
 27 29  1  0  0  0  0
 27 65  1  0  0  0  0
 28 66  1  0  0  0  0
 29 67  1  0  0  0  0
M  END
> <PUBCHEM_COMPOUND_CID>
504277
> <PUBCHEM_COMPOUND_CANONICALIZED>
1
> <PUBCHEM_CACTVS_COMPLEXITY>
471
> <PUBCHEM_CACTVS_HBOND_ACCEPTOR>
2
> <PUBCHEM_CACTVS_HBOND_DONOR>
2
> <PUBCHEM_CACTVS_ROTATABLE_BOND>
9
> <PUBCHEM_CACTVS_SUBSKEYS>
AAADcfB7AAAAAAAAAAAAAAAAAABgAAAAAAAwYMGAAAAAAAABQAAAHAAQAAAADyjBGAQyAILAAACAAiBCAAACAAAgAAAIiIAIAIgIYCKAkRCUIAAgkACIiAcQgMAPgAAAAAAAAACQAASAACQAAAAAAAAAAA==
> <PUBCHEM_IUPAC_OPENEYE_NAME>
N-(3,3-diphenylpropyl)-N'-[(1S,2R,3R,5R)-2,6,6-trimethylnorpinan-3-yl]ethane-1,2-diamine
> <PUBCHEM_IUPAC_CAS_NAME>
N-(3,3-diphenylpropyl)-N'-[(1S,2R,3R,5R)-2,6,6-trimethyl-3-bicyclo[3.1.1]heptanyl]ethane-1,2-diamine
> <PUBCHEM_IUPAC_NAME_MARKUP>
<I>N</I>-(3,3-diphenylpropyl)-<I>N</I>&apos;-[(1<I>S</I>,2<I>R</I>,3<I>R</I>,5<I>R</I>)-2,6,6-trimethyl-3-bicyclo[3.1.1]heptanyl]ethane-1,2-diamine
> <PUBCHEM_IUPAC_NAME>
N-(3,3-diphenylpropyl)-N'-[(1S,2R,3R,5R)-2,6,6-trimethyl-3-bicyclo[3.1.1]heptanyl]ethane-1,2-diamine
> <PUBCHEM_IUPAC_SYSTEMATIC_NAME>
N-(3,3-diphenylpropyl)-N'-[(1S,2R,3R,5R)-2,6,6-trimethyl-3-bicyclo[3.1.1]heptanyl]ethane-1,2-diamine
> <PUBCHEM_IUPAC_TRADITIONAL_NAME>
3,3-diphenylpropyl-[2-[[(1S,2R,3R,5R)-2,6,6-trimethylnorpinan-3-yl]amino]ethyl]amine
> <PUBCHEM_IUPAC_INCHI>
InChI=1S/C27H38N2/c1-20-25-18-23(27(25,2)3)19-26(20)29-17-16-28-15-14-24(21-10-6-4-7-11-21)22-12-8-5-9-13-22/h4-13,20,23-26,28-29H,14-19H2,1-3H3/t20-,23-,25+,26-/m1/s1
> <PUBCHEM_IUPAC_INCHIKEY>
WWPHRKCERSXAKX-AAVWJAMMSA-N
> <PUBCHEM_XLOGP3_AA>
6.1
> <PUBCHEM_EXACT_MASS>
390.303499221
> <PUBCHEM_MOLECULAR_FORMULA>
C27H38N2
> <PUBCHEM_MOLECULAR_WEIGHT>
390.6
> <PUBCHEM_OPENEYE_CAN_SMILES>
CC1C2CC(C2(C)C)CC1NCCNCCC(C3=CC=CC=C3)C4=CC=CC=C4
> <PUBCHEM_OPENEYE_ISO_SMILES>
C[C@@H]1[C@@H]2C[C@@H](C2(C)C)C[C@H]1NCCNCCC(C3=CC=CC=C3)C4=CC=CC=C4
> <PUBCHEM_CACTVS_TPSA>
24.1
> <PUBCHEM_MONOISOTOPIC_WEIGHT>
390.303499221
> <PUBCHEM_TOTAL_CHARGE>
0
> <PUBCHEM_HEAVY_ATOM_COUNT>
29
> <PUBCHEM_ATOM_DEF_STEREO_COUNT>
4
> <PUBCHEM_ATOM_UDEF_STEREO_COUNT>
0
> <PUBCHEM_BOND_DEF_STEREO_COUNT>
0
> <PUBCHEM_BOND_UDEF_STEREO_COUNT>
0
> <PUBCHEM_ISOTOPIC_ATOM_COUNT>
0
> <PUBCHEM_COMPONENT_COUNT>
1
> <PUBCHEM_CACTVS_TAUTO_COUNT>
-1
> <PUBCHEM_COORDINATE_TYPE>
1
5
255
> <PUBCHEM_BONDANNOTATIONS>
9  1  6
18  20  8
18  22  8
19  21  8
19  23  8
20  24  8
21  25  8
22  26  8
23  27  8
24  28  8
25  29  8
26  28  8
27  29  8
4  30  5
5  31  6
7  12  5
$$$$
