504264
  -OEChem-10302200282D
 64 67  0     1  0  0  0  0  0999 V2000
    8.9890    0.8457    0.0000 N   0  0  0  0  0  0  0  0  0  0  0  0
    6.4444    0.1211    0.0000 N   0  0  0  0  0  0  0  0  0  0  0  0
   11.6100    0.0754    0.0000 C   0  0  3  0  0  0  0  0  0  0  0  0
   11.1322    2.0239    0.0000 C   0  0  0  0  0  0  0  0  0  0  0  0
   11.8688    1.0413    0.0000 C   0  0  3  0  0  0  0  0  0  0  0  0
    9.8953    0.4230    0.0000 C   0  0  3  0  0  0  0  0  0  0  0  0
   10.2373   -0.5167    0.0000 C   0  0  0  0  0  0  0  0  0  0  0  0
   13.0090   -0.4335    0.0000 C   0  0  0  0  0  0  0  0  0  0  0  0
   13.2678    0.5325    0.0000 C   0  0  0  0  0  0  0  0  0  0  0  0
   11.3512   -0.8906    0.0000 C   0  0  0  0  0  0  0  0  0  0  0  0
   11.2368    3.0184    0.0000 C   0  0  0  0  0  0  0  0  0  0  0  0
   10.2187    2.4306    0.0000 C   0  0  0  0  0  0  0  0  0  0  0  0
    8.1698    0.2721    0.0000 C   0  0  0  0  0  0  0  0  0  0  0  0
    7.2635    0.6947    0.0000 C   0  0  0  0  0  0  0  0  0  0  0  0
    5.5381    0.5437    0.0000 C   0  0  0  0  0  0  0  0  0  0  0  0
    4.7189   -0.0298    0.0000 C   0  0  0  0  0  0  0  0  0  0  0  0
    3.8126    0.3928    0.0000 C   0  0  0  0  0  0  0  0  0  0  0  0
    4.8061   -1.0260    0.0000 C   0  0  0  0  0  0  0  0  0  0  0  0
    2.9935   -0.1808    0.0000 C   0  0  0  0  0  0  0  0  0  0  0  0
    5.7124   -1.4486    0.0000 C   0  0  0  0  0  0  0  0  0  0  0  0
    3.7255    1.3890    0.0000 C   0  0  0  0  0  0  0  0  0  0  0  0
    3.9869   -1.5996    0.0000 C   0  0  0  0  0  0  0  0  0  0  0  0
    2.0872    0.2418    0.0000 C   0  0  0  0  0  0  0  0  0  0  0  0
    5.7995   -2.4449    0.0000 C   0  0  0  0  0  0  0  0  0  0  0  0
    2.8192    1.8116    0.0000 C   0  0  0  0  0  0  0  0  0  0  0  0
    4.0741   -2.5958    0.0000 C   0  0  0  0  0  0  0  0  0  0  0  0
    2.0000    1.2380    0.0000 C   0  0  0  0  0  0  0  0  0  0  0  0
    4.9804   -3.0184    0.0000 C   0  0  0  0  0  0  0  0  0  0  0  0
   11.8548    0.4214    0.0000 H   0  0  0  0  0  0  0  0  0  0  0  0
    9.9364    1.0417    0.0000 H   0  0  0  0  0  0  0  0  0  0  0  0
    9.6589   -0.7400    0.0000 H   0  0  0  0  0  0  0  0  0  0  0  0
   10.4718   -1.0906    0.0000 H   0  0  0  0  0  0  0  0  0  0  0  0
   12.8140   -1.0220    0.0000 H   0  0  0  0  0  0  0  0  0  0  0  0
   13.6029   -0.6112    0.0000 H   0  0  0  0  0  0  0  0  0  0  0  0
   13.8618    0.3547    0.0000 H   0  0  0  0  0  0  0  0  0  0  0  0
   13.4627    1.1210    0.0000 H   0  0  0  0  0  0  0  0  0  0  0  0
   10.7523   -0.7301    0.0000 H   0  0  0  0  0  0  0  0  0  0  0  0
   11.1907   -1.4894    0.0000 H   0  0  0  0  0  0  0  0  0  0  0  0
   11.9501   -1.0510    0.0000 H   0  0  0  0  0  0  0  0  0  0  0  0
   11.8534    2.9536    0.0000 H   0  0  0  0  0  0  0  0  0  0  0  0
   11.3016    3.6350    0.0000 H   0  0  0  0  0  0  0  0  0  0  0  0
   10.6202    3.0832    0.0000 H   0  0  0  0  0  0  0  0  0  0  0  0
   10.4709    2.9970    0.0000 H   0  0  0  0  0  0  0  0  0  0  0  0
    9.6523    2.6828    0.0000 H   0  0  0  0  0  0  0  0  0  0  0  0
    9.9665    1.8642    0.0000 H   0  0  0  0  0  0  0  0  0  0  0  0
    8.9350    1.4633    0.0000 H   0  0  0  0  0  0  0  0  0  0  0  0
    7.8142   -0.2358    0.0000 H   0  0  0  0  0  0  0  0  0  0  0  0
    8.6082   -0.1663    0.0000 H   0  0  0  0  0  0  0  0  0  0  0  0
    7.6192    1.2026    0.0000 H   0  0  0  0  0  0  0  0  0  0  0  0
    6.8251    1.1331    0.0000 H   0  0  0  0  0  0  0  0  0  0  0  0
    6.4984   -0.4965    0.0000 H   0  0  0  0  0  0  0  0  0  0  0  0
    5.8937    1.0516    0.0000 H   0  0  0  0  0  0  0  0  0  0  0  0
    5.0997    0.9821    0.0000 H   0  0  0  0  0  0  0  0  0  0  0  0
    5.2808   -0.2919    0.0000 H   0  0  0  0  0  0  0  0  0  0  0  0
    3.0475   -0.7984    0.0000 H   0  0  0  0  0  0  0  0  0  0  0  0
    6.2203   -1.0930    0.0000 H   0  0  0  0  0  0  0  0  0  0  0  0
    4.2333    1.7446    0.0000 H   0  0  0  0  0  0  0  0  0  0  0  0
    3.4250   -1.3376    0.0000 H   0  0  0  0  0  0  0  0  0  0  0  0
    1.5793   -0.1138    0.0000 H   0  0  0  0  0  0  0  0  0  0  0  0
    6.3614   -2.7069    0.0000 H   0  0  0  0  0  0  0  0  0  0  0  0
    2.7651    2.4292    0.0000 H   0  0  0  0  0  0  0  0  0  0  0  0
    3.5662   -2.9514    0.0000 H   0  0  0  0  0  0  0  0  0  0  0  0
    1.4381    1.5000    0.0000 H   0  0  0  0  0  0  0  0  0  0  0  0
    5.0344   -3.6361    0.0000 H   0  0  0  0  0  0  0  0  0  0  0  0
  1  6  1  0  0  0  0
  1 13  1  0  0  0  0
  1 46  1  0  0  0  0
  2 14  1  0  0  0  0
  2 15  1  0  0  0  0
  2 51  1  0  0  0  0
  3  4  1  0  0  0  0
  3  7  1  0  0  0  0
  3  8  1  0  0  0  0
  3 10  1  0  0  0  0
  4  5  1  0  0  0  0
  4 11  1  0  0  0  0
  4 12  1  0  0  0  0
  5  6  1  0  0  0  0
  5  9  1  0  0  0  0
  5 29  1  0  0  0  0
  6  7  1  0  0  0  0
  6 30  1  0  0  0  0
  7 31  1  0  0  0  0
  7 32  1  0  0  0  0
  8  9  1  0  0  0  0
  8 33  1  0  0  0  0
  8 34  1  0  0  0  0
  9 35  1  0  0  0  0
  9 36  1  0  0  0  0
 10 37  1  0  0  0  0
 10 38  1  0  0  0  0
 10 39  1  0  0  0  0
 11 40  1  0  0  0  0
 11 41  1  0  0  0  0
 11 42  1  0  0  0  0
 12 43  1  0  0  0  0
 12 44  1  0  0  0  0
 12 45  1  0  0  0  0
 13 14  1  0  0  0  0
 13 47  1  0  0  0  0
 13 48  1  0  0  0  0
 14 49  1  0  0  0  0
 14 50  1  0  0  0  0
 15 16  1  0  0  0  0
 15 52  1  0  0  0  0
 15 53  1  0  0  0  0
 16 17  1  0  0  0  0
 16 18  1  0  0  0  0
 16 54  1  0  0  0  0
 17 19  2  0  0  0  0
 17 21  1  0  0  0  0
 18 20  2  0  0  0  0
 18 22  1  0  0  0  0
 19 23  1  0  0  0  0
 19 55  1  0  0  0  0
 20 24  1  0  0  0  0
 20 56  1  0  0  0  0
 21 25  2  0  0  0  0
 21 57  1  0  0  0  0
 22 26  2  0  0  0  0
 22 58  1  0  0  0  0
 23 27  2  0  0  0  0
 23 59  1  0  0  0  0
 24 28  2  0  0  0  0
 24 60  1  0  0  0  0
 25 27  1  0  0  0  0
 25 61  1  0  0  0  0
 26 28  1  0  0  0  0
 26 62  1  0  0  0  0
 27 63  1  0  0  0  0
 28 64  1  0  0  0  0
M  END
> <PUBCHEM_COMPOUND_CID>
504264
> <PUBCHEM_COMPOUND_CANONICALIZED>
1
> <PUBCHEM_CACTVS_COMPLEXITY>
471
> <PUBCHEM_CACTVS_HBOND_ACCEPTOR>
2
> <PUBCHEM_CACTVS_HBOND_DONOR>
2
> <PUBCHEM_CACTVS_ROTATABLE_BOND>
8
> <PUBCHEM_CACTVS_SUBSKEYS>
AAADcfB7AAAAAAAAAAAAAAAAAAAAAYMAAAAwYMAAAAAAAAABQAAAHAAQAAAADyjBGAQyAILAAACAAiBCAAACAAAgAAAIiIAIAIgIYCKAkRGUIAAgkACIiAcQgMAPgAAAAAAAAACAAACAAAQAASAACQAAAA==
> <PUBCHEM_IUPAC_OPENEYE_NAME>
N-(2,2-diphenylethyl)-N'-(4,7,7-trimethylnorbornan-2-yl)ethane-1,2-diamine
> <PUBCHEM_IUPAC_CAS_NAME>
N-(2,2-diphenylethyl)-N'-(4,7,7-trimethyl-2-bicyclo[2.2.1]heptanyl)ethane-1,2-diamine
> <PUBCHEM_IUPAC_NAME_MARKUP>
<I>N</I>-(2,2-diphenylethyl)-<I>N</I>&apos;-(4,7,7-trimethyl-2-bicyclo[2.2.1]heptanyl)ethane-1,2-diamine
> <PUBCHEM_IUPAC_NAME>
N-(2,2-diphenylethyl)-N'-(4,7,7-trimethyl-2-bicyclo[2.2.1]heptanyl)ethane-1,2-diamine
> <PUBCHEM_IUPAC_SYSTEMATIC_NAME>
N-(2,2-diphenylethyl)-N'-(4,7,7-trimethyl-2-bicyclo[2.2.1]heptanyl)ethane-1,2-diamine
> <PUBCHEM_IUPAC_TRADITIONAL_NAME>
3-bornyl-[2-(2,2-diphenylethylamino)ethyl]amine
> <PUBCHEM_IUPAC_INCHI>
InChI=1S/C26H36N2/c1-25(2)23-14-15-26(25,3)18-24(23)28-17-16-27-19-22(20-10-6-4-7-11-20)21-12-8-5-9-13-21/h4-13,22-24,27-28H,14-19H2,1-3H3
> <PUBCHEM_IUPAC_INCHIKEY>
LZWKXKGGOHISLQ-UHFFFAOYSA-N
> <PUBCHEM_XLOGP3_AA>
5.7
> <PUBCHEM_EXACT_MASS>
376.287849157
> <PUBCHEM_MOLECULAR_FORMULA>
C26H36N2
> <PUBCHEM_MOLECULAR_WEIGHT>
376.6
> <PUBCHEM_OPENEYE_CAN_SMILES>
CC1(C2CCC1(CC2NCCNCC(C3=CC=CC=C3)C4=CC=CC=C4)C)C
> <PUBCHEM_OPENEYE_ISO_SMILES>
CC1(C2CCC1(CC2NCCNCC(C3=CC=CC=C3)C4=CC=CC=C4)C)C
> <PUBCHEM_CACTVS_TPSA>
24.1
> <PUBCHEM_MONOISOTOPIC_WEIGHT>
376.287849157
> <PUBCHEM_TOTAL_CHARGE>
0
> <PUBCHEM_HEAVY_ATOM_COUNT>
28
> <PUBCHEM_ATOM_DEF_STEREO_COUNT>
0
> <PUBCHEM_ATOM_UDEF_STEREO_COUNT>
3
> <PUBCHEM_BOND_DEF_STEREO_COUNT>
0
> <PUBCHEM_BOND_UDEF_STEREO_COUNT>
0
> <PUBCHEM_ISOTOPIC_ATOM_COUNT>
0
> <PUBCHEM_COMPONENT_COUNT>
1
> <PUBCHEM_CACTVS_TAUTO_COUNT>
-1
> <PUBCHEM_COORDINATE_TYPE>
1
5
255
> <PUBCHEM_BONDANNOTATIONS>
6  1  3
17  19  8
17  21  8
18  20  8
18  22  8
19  23  8
20  24  8
21  25  8
22  26  8
23  27  8
24  28  8
25  27  8
26  28  8
3  10  3
5  9  3
$$$$
