504208
  -OEChem-10302200282D
 95101  0     1  0  0  0  0  0999 V2000
    2.7534    0.7005    0.0000 Cl  0  0  0  0  0  0  0  0  0  0  0  0
    2.0000   -6.4711    0.0000 F   0  0  0  0  0  0  0  0  0  0  0  0
    3.4034   -6.6459    0.0000 F   0  0  0  0  0  0  0  0  0  0  0  0
    2.1748   -5.0678    0.0000 F   0  0  0  0  0  0  0  0  0  0  0  0
   10.1409    2.8768    0.0000 O   0  0  0  0  0  0  0  0  0  0  0  0
    8.8066    3.7768    0.0000 O   0  0  0  0  0  0  0  0  0  0  0  0
    7.4698    0.3559    0.0000 O   0  0  0  0  0  0  0  0  0  0  0  0
    6.4595   -0.8043    0.0000 O   0  0  0  0  0  0  0  0  0  0  0  0
    6.0147    5.2213    0.0000 O   0  0  0  0  0  0  0  0  0  0  0  0
    7.5906    2.0837    0.0000 N   0  0  0  0  0  0  0  0  0  0  0  0
    5.3955    0.5624    0.0000 N   0  0  0  0  0  0  0  0  0  0  0  0
    3.8174   -0.6662    0.0000 N   0  0  0  0  0  0  0  0  0  0  0  0
    4.8814   -2.0329    0.0000 N   0  0  0  0  0  0  0  0  0  0  0  0
   11.6384    4.6974    0.0000 C   0  0  3  0  0  0  0  0  0  0  0  0
   13.0373    4.7062    0.0000 C   0  0  0  0  0  0  0  0  0  0  0  0
   11.8972    5.6633    0.0000 C   0  0  3  0  0  0  0  0  0  0  0  0
   11.1606    6.6459    0.0000 C   0  0  0  0  0  0  0  0  0  0  0  0
   10.4174    3.8317    0.0000 C   0  0  2  0  0  0  0  0  0  0  0  0
    9.8640    5.3522    0.0000 C   0  0  0  0  0  0  0  0  0  0  0  0
    9.5883    4.3909    0.0000 C   0  0  3  0  0  0  0  0  0  0  0  0
   13.9033    5.2062    0.0000 C   0  0  0  0  0  0  0  0  0  0  0  0
   13.5373    3.8402    0.0000 C   0  0  0  0  0  0  0  0  0  0  0  0
   11.2464    3.2725    0.0000 C   0  0  0  0  0  0  0  0  0  0  0  0
    8.5882    2.0140    0.0000 C   0  0  1  0  0  0  0  0  0  0  0  0
    9.0266    1.1152    0.0000 C   0  0  0  0  0  0  0  0  0  0  0  0
    7.0314    1.2547    0.0000 C   0  0  0  0  0  0  0  0  0  0  0  0
    8.4674    0.2861    0.0000 C   0  0  0  0  0  0  0  0  0  0  0  0
    6.0339    1.3244    0.0000 C   0  0  2  0  0  0  0  0  0  0  0  0
    5.5078    2.1679    0.0000 C   0  0  0  0  0  0  0  0  0  0  0  0
    4.5426    1.9300    0.0000 C   0  0  2  0  0  0  0  0  0  0  0  0
    8.9057   -0.6127    0.0000 C   0  0  0  0  0  0  0  0  0  0  0  0
    4.4690    0.9386    0.0000 C   0  0  0  0  0  0  0  0  0  0  0  0
    3.7788    2.5754    0.0000 C   0  0  0  0  0  0  0  0  0  0  0  0
    5.5330   -0.4281    0.0000 C   0  0  0  0  0  0  0  0  0  0  0  0
    3.6799    0.3243    0.0000 C   0  0  0  0  0  0  0  0  0  0  0  0
    4.7439   -1.0424    0.0000 C   0  0  0  0  0  0  0  0  0  0  0  0
    3.9559    3.5596    0.0000 C   0  0  0  0  0  0  0  0  0  0  0  0
    4.8968    3.8984    0.0000 C   0  0  0  0  0  0  0  0  0  0  0  0
    3.1921    4.2050    0.0000 C   0  0  0  0  0  0  0  0  0  0  0  0
    4.0923   -2.6472    0.0000 C   0  0  0  0  0  0  0  0  0  0  0  0
    5.0738    4.8826    0.0000 C   0  0  0  0  0  0  0  0  0  0  0  0
    3.3691    5.1892    0.0000 C   0  0  0  0  0  0  0  0  0  0  0  0
    4.3100    5.5280    0.0000 C   0  0  0  0  0  0  0  0  0  0  0  0
    4.2298   -3.6377    0.0000 C   0  0  0  0  0  0  0  0  0  0  0  0
    3.4407   -4.2520    0.0000 C   0  0  0  0  0  0  0  0  0  0  0  0
    5.1563   -4.0139    0.0000 C   0  0  0  0  0  0  0  0  0  0  0  0
    6.1917    6.2055    0.0000 C   0  0  0  0  0  0  0  0  0  0  0  0
    3.5782   -5.2425    0.0000 C   0  0  0  0  0  0  0  0  0  0  0  0
    5.2938   -5.0044    0.0000 C   0  0  0  0  0  0  0  0  0  0  0  0
    4.5047   -5.6187    0.0000 C   0  0  0  0  0  0  0  0  0  0  0  0
    2.7891   -5.8568    0.0000 C   0  0  0  0  0  0  0  0  0  0  0  0
    9.1474    2.8430    0.0000 B   0  0  0  0  0  0  0  0  0  0  0  0
   11.8284    4.1072    0.0000 H   0  0  0  0  0  0  0  0  0  0  0  0
   12.3475    6.0895    0.0000 H   0  0  0  0  0  0  0  0  0  0  0  0
   11.4784    7.1783    0.0000 H   0  0  0  0  0  0  0  0  0  0  0  0
   10.5474    6.7379    0.0000 H   0  0  0  0  0  0  0  0  0  0  0  0
    9.8589    5.9721    0.0000 H   0  0  0  0  0  0  0  0  0  0  0  0
    9.2497    5.4359    0.0000 H   0  0  0  0  0  0  0  0  0  0  0  0
    9.0739    4.7369    0.0000 H   0  0  0  0  0  0  0  0  0  0  0  0
   14.2134    4.6692    0.0000 H   0  0  0  0  0  0  0  0  0  0  0  0
   14.4403    5.5162    0.0000 H   0  0  0  0  0  0  0  0  0  0  0  0
   13.5933    5.7431    0.0000 H   0  0  0  0  0  0  0  0  0  0  0  0
   13.0004    3.5302    0.0000 H   0  0  0  0  0  0  0  0  0  0  0  0
   13.8473    3.3032    0.0000 H   0  0  0  0  0  0  0  0  0  0  0  0
   14.0743    4.1502    0.0000 H   0  0  0  0  0  0  0  0  0  0  0  0
   10.8997    2.7585    0.0000 H   0  0  0  0  0  0  0  0  0  0  0  0
   11.7604    2.9258    0.0000 H   0  0  0  0  0  0  0  0  0  0  0  0
   11.5931    3.7865    0.0000 H   0  0  0  0  0  0  0  0  0  0  0  0
    8.3164    2.5712    0.0000 H   0  0  0  0  0  0  0  0  0  0  0  0
    9.4725    0.6845    0.0000 H   0  0  0  0  0  0  0  0  0  0  0  0
    9.5281    1.4796    0.0000 H   0  0  0  0  0  0  0  0  0  0  0  0
    7.3188    2.6410    0.0000 H   0  0  0  0  0  0  0  0  0  0  0  0
    7.8489    0.3294    0.0000 H   0  0  0  0  0  0  0  0  0  0  0  0
    6.2764    0.7538    0.0000 H   0  0  0  0  0  0  0  0  0  0  0  0
    6.0654    2.4389    0.0000 H   0  0  0  0  0  0  0  0  0  0  0  0
    5.2969    2.7510    0.0000 H   0  0  0  0  0  0  0  0  0  0  0  0
    3.9710    1.6899    0.0000 H   0  0  0  0  0  0  0  0  0  0  0  0
    8.5590   -1.1266    0.0000 H   0  0  0  0  0  0  0  0  0  0  0  0
    9.5242   -0.6559    0.0000 H   0  0  0  0  0  0  0  0  0  0  0  0
    3.1970    2.7894    0.0000 H   0  0  0  0  0  0  0  0  0  0  0  0
    3.4670    2.0395    0.0000 H   0  0  0  0  0  0  0  0  0  0  0  0
    5.4558   -2.2662    0.0000 H   0  0  0  0  0  0  0  0  0  0  0  0
    5.3703    3.4982    0.0000 H   0  0  0  0  0  0  0  0  0  0  0  0
    2.6087    3.9950    0.0000 H   0  0  0  0  0  0  0  0  0  0  0  0
    3.8022   -2.0993    0.0000 H   0  0  0  0  0  0  0  0  0  0  0  0
    3.5023   -2.8378    0.0000 H   0  0  0  0  0  0  0  0  0  0  0  0
    2.8956    5.5894    0.0000 H   0  0  0  0  0  0  0  0  0  0  0  0
    4.4198    6.1382    0.0000 H   0  0  0  0  0  0  0  0  0  0  0  0
    2.8662   -4.0188    0.0000 H   0  0  0  0  0  0  0  0  0  0  0  0
    5.6455   -3.6331    0.0000 H   0  0  0  0  0  0  0  0  0  0  0  0
    6.8019    6.0957    0.0000 H   0  0  0  0  0  0  0  0  0  0  0  0
    6.3015    6.8157    0.0000 H   0  0  0  0  0  0  0  0  0  0  0  0
    5.5815    6.3153    0.0000 H   0  0  0  0  0  0  0  0  0  0  0  0
    5.8682   -5.2377    0.0000 H   0  0  0  0  0  0  0  0  0  0  0  0
    4.5899   -6.2329    0.0000 H   0  0  0  0  0  0  0  0  0  0  0  0
  1 35  1  0  0  0  0
  2 51  1  0  0  0  0
  3 51  1  0  0  0  0
  4 51  1  0  0  0  0
  5 18  1  0  0  0  0
  5 52  1  0  0  0  0
  6 20  1  0  0  0  0
  6 52  1  0  0  0  0
  7 26  2  0  0  0  0
  8 34  2  0  0  0  0
  9 41  1  0  0  0  0
  9 47  1  0  0  0  0
 24 10  1  6  0  0  0
 10 26  1  0  0  0  0
 10 72  1  0  0  0  0
 11 28  1  0  0  0  0
 11 32  1  0  0  0  0
 11 34  1  0  0  0  0
 12 35  1  0  0  0  0
 12 36  2  0  0  0  0
 13 36  1  0  0  0  0
 13 40  1  0  0  0  0
 13 82  1  0  0  0  0
 14 15  1  0  0  0  0
 14 17  1  0  0  0  0
 14 18  1  0  0  0  0
 14 53  1  0  0  0  0
 15 16  1  0  0  0  0
 15 21  1  0  0  0  0
 15 22  1  0  0  0  0
 16 17  1  0  0  0  0
 16 19  1  0  0  0  0
 16 54  1  0  0  0  0
 17 55  1  0  0  0  0
 17 56  1  0  0  0  0
 18 20  1  0  0  0  0
 18 23  1  6  0  0  0
 19 20  1  0  0  0  0
 19 57  1  0  0  0  0
 19 58  1  0  0  0  0
 20 59  1  0  0  0  0
 21 60  1  0  0  0  0
 21 61  1  0  0  0  0
 21 62  1  0  0  0  0
 22 63  1  0  0  0  0
 22 64  1  0  0  0  0
 22 65  1  0  0  0  0
 23 66  1  0  0  0  0
 23 67  1  0  0  0  0
 23 68  1  0  0  0  0
 24 25  1  0  0  0  0
 24 52  1  0  0  0  0
 24 69  1  0  0  0  0
 25 27  1  0  0  0  0
 25 70  1  0  0  0  0
 25 71  1  0  0  0  0
 28 26  1  1  0  0  0
 27 31  2  0  0  0  0
 27 73  1  0  0  0  0
 28 29  1  0  0  0  0
 28 74  1  0  0  0  0
 29 30  1  0  0  0  0
 29 75  1  0  0  0  0
 29 76  1  0  0  0  0
 30 32  1  0  0  0  0
 30 33  1  6  0  0  0
 30 77  1  0  0  0  0
 31 78  1  0  0  0  0
 31 79  1  0  0  0  0
 32 35  2  0  0  0  0
 33 37  1  0  0  0  0
 33 80  1  0  0  0  0
 33 81  1  0  0  0  0
 34 36  1  0  0  0  0
 37 38  2  0  0  0  0
 37 39  1  0  0  0  0
 38 41  1  0  0  0  0
 38 83  1  0  0  0  0
 39 42  2  0  0  0  0
 39 84  1  0  0  0  0
 40 44  1  0  0  0  0
 40 85  1  0  0  0  0
 40 86  1  0  0  0  0
 41 43  2  0  0  0  0
 42 43  1  0  0  0  0
 42 87  1  0  0  0  0
 43 88  1  0  0  0  0
 44 45  2  0  0  0  0
 44 46  1  0  0  0  0
 45 48  1  0  0  0  0
 45 89  1  0  0  0  0
 46 49  2  0  0  0  0
 46 90  1  0  0  0  0
 47 91  1  0  0  0  0
 47 92  1  0  0  0  0
 47 93  1  0  0  0  0
 48 50  2  0  0  0  0
 48 51  1  0  0  0  0
 49 50  1  0  0  0  0
 49 94  1  0  0  0  0
 50 95  1  0  0  0  0
M  END
> <PUBCHEM_COMPOUND_CID>
504208
> <PUBCHEM_COMPOUND_CANONICALIZED>
1
> <PUBCHEM_CACTVS_COMPLEXITY>
1480
> <PUBCHEM_CACTVS_HBOND_ACCEPTOR>
9
> <PUBCHEM_CACTVS_HBOND_DONOR>
2
> <PUBCHEM_CACTVS_ROTATABLE_BOND>
11
> <PUBCHEM_CACTVS_SUBSKEYS>
AAADcfJ/uYAEAAAAAAAAAAAAAABgAWJAAAAwYMGCAAAAAEgBQAAoHwIQAAAAD37hmBYzBoPABACoAidydACCCAEgIAAJiIGODIgNZjKEuTuUMChk1hGIqAeYyfCPgAADAAAAAADAAAYAADCAAAAAAAAAAA==
> <PUBCHEM_IUPAC_OPENEYE_NAME>
(6S,8R)-1-chloro-8-[(3-methoxyphenyl)methyl]-4-oxo-3-[[3-(trifluoromethyl)phenyl]methylamino]-N-[(1R)-1-[(2R)-2,9,9-trimethyl-3,5-dioxa-4-boratricyclo[6.1.1.02,6]decan-4-yl]but-3-enyl]-7,8-dihydro-6H-pyrrolo[1,2-a]pyrazine-6-carboxamide
> <PUBCHEM_IUPAC_CAS_NAME>
(6S,8R)-1-chloro-8-[(3-methoxyphenyl)methyl]-4-oxo-3-[[3-(trifluoromethyl)phenyl]methylamino]-N-[(1R)-1-[(2R)-2,9,9-trimethyl-3,5-dioxa-4-boratricyclo[6.1.1.02,6]decan-4-yl]but-3-enyl]-7,8-dihydro-6H-pyrrolo[1,2-a]pyrazine-6-carboxamide
> <PUBCHEM_IUPAC_NAME_MARKUP>
(6<I>S</I>,8<I>R</I>)-1-chloro-8-[(3-methoxyphenyl)methyl]-4-oxo-3-[[3-(trifluoromethyl)phenyl]methylamino]-<I>N</I>-[(1<I>R</I>)-1-[(2<I>R</I>)-2,9,9-trimethyl-3,5-dioxa-4-boratricyclo[6.1.1.0<SUP>2,6</SUP>]decan-4-yl]but-3-enyl]-7,8-dihydro-6<I>H</I>-pyrrolo[1,2-a]pyrazine-6-carboxamide
> <PUBCHEM_IUPAC_NAME>
(6S,8R)-1-chloro-8-[(3-methoxyphenyl)methyl]-4-oxo-3-[[3-(trifluoromethyl)phenyl]methylamino]-N-[(1R)-1-[(2R)-2,9,9-trimethyl-3,5-dioxa-4-boratricyclo[6.1.1.02,6]decan-4-yl]but-3-enyl]-7,8-dihydro-6H-pyrrolo[1,2-a]pyrazine-6-carboxamide
> <PUBCHEM_IUPAC_SYSTEMATIC_NAME>
(6S,8R)-1-chloranyl-8-[(3-methoxyphenyl)methyl]-4-oxidanylidene-3-[[3-(trifluoromethyl)phenyl]methylamino]-N-[(1R)-1-[(2R)-2,9,9-trimethyl-3,5-dioxa-4-boratricyclo[6.1.1.02,6]decan-4-yl]but-3-enyl]-7,8-dihydro-6H-pyrrolo[1,2-a]pyrazine-6-carboxamide
> <PUBCHEM_IUPAC_TRADITIONAL_NAME>
(6S,8R)-1-chloro-4-keto-8-m-anisyl-3-[[3-(trifluoromethyl)benzyl]amino]-N-[(1R)-1-[(2R)-2,9,9-trimethyl-3,5-dioxa-4-boratricyclo[6.1.1.02,6]decan-4-yl]but-3-enyl]-7,8-dihydro-6H-pyrrolo[1,2-a]pyrazine-6-carboxamide
> <PUBCHEM_IUPAC_INCHI>
InChI=1S/C38H43BClF3N4O5/c1-6-9-30(39-51-29-19-25-18-28(36(25,2)3)37(29,4)52-39)45-34(48)27-17-23(14-21-10-8-13-26(16-21)50-5)31-32(40)46-33(35(49)47(27)31)44-20-22-11-7-12-24(15-22)38(41,42)43/h6-8,10-13,15-16,23,25,27-30H,1,9,14,17-20H2,2-5H3,(H,44,46)(H,45,48)/t23-,25?,27+,28?,29?,30+,37-/m1/s1
> <PUBCHEM_IUPAC_INCHIKEY>
MGSYJQVHWCMPFI-DTDIWWSVSA-N
> <PUBCHEM_EXACT_MASS>
738.2967128
> <PUBCHEM_MOLECULAR_FORMULA>
C38H43BClF3N4O5
> <PUBCHEM_MOLECULAR_WEIGHT>
739.0
> <PUBCHEM_OPENEYE_CAN_SMILES>
B1(OC2CC3CC(C3(C)C)C2(O1)C)C(CC=C)NC(=O)C4CC(C5=C(N=C(C(=O)N45)NCC6=CC(=CC=C6)C(F)(F)F)Cl)CC7=CC(=CC=C7)OC
> <PUBCHEM_OPENEYE_ISO_SMILES>
B1(OC2CC3CC([C@]2(O1)C)C3(C)C)[C@H](CC=C)NC(=O)[C@@H]4C[C@H](C5=C(N=C(C(=O)N45)NCC6=CC(=CC=C6)C(F)(F)F)Cl)CC7=CC(=CC=C7)OC
> <PUBCHEM_CACTVS_TPSA>
102
> <PUBCHEM_MONOISOTOPIC_WEIGHT>
738.2967128
> <PUBCHEM_TOTAL_CHARGE>
0
> <PUBCHEM_HEAVY_ATOM_COUNT>
52
> <PUBCHEM_ATOM_DEF_STEREO_COUNT>
4
> <PUBCHEM_ATOM_UDEF_STEREO_COUNT>
3
> <PUBCHEM_BOND_DEF_STEREO_COUNT>
0
> <PUBCHEM_BOND_UDEF_STEREO_COUNT>
0
> <PUBCHEM_ISOTOPIC_ATOM_COUNT>
0
> <PUBCHEM_COMPONENT_COUNT>
1
> <PUBCHEM_CACTVS_TAUTO_COUNT>
-1
> <PUBCHEM_COORDINATE_TYPE>
1
5
255
> <PUBCHEM_BONDANNOTATIONS>
24  10  6
11  32  8
11  34  8
12  35  8
12  36  8
14  17  3
16  17  3
18  23  6
20  19  3
28  26  5
30  33  6
32  35  8
34  36  8
37  38  8
37  39  8
38  41  8
39  42  8
41  43  8
42  43  8
44  45  8
44  46  8
45  48  8
46  49  8
48  50  8
49  50  8
$$$$
