504200
  -OEChem-10302200282D
 42 45  0     1  0  0  0  0  0999 V2000
    9.9673    2.5481    0.0000 O   0  0  0  0  0  0  0  0  0  0  0  0
    6.0812    2.2401    0.0000 N   0  0  0  0  0  0  0  0  0  0  0  0
    6.0812    0.6306    0.0000 N   0  0  0  0  0  0  0  0  0  0  0  0
    4.2690    2.4353    0.0000 N   0  0  0  0  0  0  0  0  0  0  0  0
    4.2690   -0.5647    0.0000 N   0  0  0  0  0  0  0  0  0  0  0  0
    3.4030    0.9353    0.0000 N   0  0  0  0  0  0  0  0  0  0  0  0
    2.5369    2.4353    0.0000 N   0  0  0  0  0  0  0  0  0  0  0  0
    8.3209    3.0862    0.0000 C   0  0  1  0  0  0  0  0  0  0  0  0
    8.1147    4.0647    0.0000 C   0  0  0  0  0  0  0  0  0  0  0  0
    7.3704    3.3968    0.0000 C   0  0  0  0  0  0  0  0  0  0  0  0
    8.9888    2.3418    0.0000 C   0  0  0  0  0  0  0  0  0  0  0  0
    6.3919    3.1906    0.0000 C   0  0  0  0  0  0  0  0  0  0  0  0
    5.1350    1.9353    0.0000 C   0  0  0  0  0  0  0  0  0  0  0  0
    6.6648    1.4353    0.0000 C   0  0  0  0  0  0  0  0  0  0  0  0
    5.1350    0.9353    0.0000 C   0  0  0  0  0  0  0  0  0  0  0  0
    4.2690    0.4353    0.0000 C   0  0  0  0  0  0  0  0  0  0  0  0
    3.4030   -1.0647    0.0000 C   0  0  0  0  0  0  0  0  0  0  0  0
    3.4030    1.9353    0.0000 C   0  0  0  0  0  0  0  0  0  0  0  0
    3.4030   -2.0647    0.0000 C   0  0  0  0  0  0  0  0  0  0  0  0
    2.5369   -2.5647    0.0000 C   0  0  0  0  0  0  0  0  0  0  0  0
    4.2690   -2.5647    0.0000 C   0  0  0  0  0  0  0  0  0  0  0  0
    2.5369   -3.5647    0.0000 C   0  0  0  0  0  0  0  0  0  0  0  0
    4.2690   -3.5647    0.0000 C   0  0  0  0  0  0  0  0  0  0  0  0
    3.4030   -4.0647    0.0000 C   0  0  0  0  0  0  0  0  0  0  0  0
    7.9823    2.5668    0.0000 H   0  0  0  0  0  0  0  0  0  0  0  0
    8.6900    4.2959    0.0000 H   0  0  0  0  0  0  0  0  0  0  0  0
    7.7871    4.5910    0.0000 H   0  0  0  0  0  0  0  0  0  0  0  0
    8.4624    2.0142    0.0000 H   0  0  0  0  0  0  0  0  0  0  0  0
    9.2200    1.7666    0.0000 H   0  0  0  0  0  0  0  0  0  0  0  0
    5.9778    3.6521    0.0000 H   0  0  0  0  0  0  0  0  0  0  0  0
   10.3813    2.0866    0.0000 H   0  0  0  0  0  0  0  0  0  0  0  0
    7.2848    1.4353    0.0000 H   0  0  0  0  0  0  0  0  0  0  0  0
    4.8059   -0.8747    0.0000 H   0  0  0  0  0  0  0  0  0  0  0  0
    3.1909   -0.4820    0.0000 H   0  0  0  0  0  0  0  0  0  0  0  0
    2.7924   -1.1723    0.0000 H   0  0  0  0  0  0  0  0  0  0  0  0
    2.0000   -2.2547    0.0000 H   0  0  0  0  0  0  0  0  0  0  0  0
    4.8059   -2.2547    0.0000 H   0  0  0  0  0  0  0  0  0  0  0  0
    2.0000    2.1253    0.0000 H   0  0  0  0  0  0  0  0  0  0  0  0
    2.5369    3.0553    0.0000 H   0  0  0  0  0  0  0  0  0  0  0  0
    2.0000   -3.8747    0.0000 H   0  0  0  0  0  0  0  0  0  0  0  0
    4.8059   -3.8747    0.0000 H   0  0  0  0  0  0  0  0  0  0  0  0
    3.4030   -4.6847    0.0000 H   0  0  0  0  0  0  0  0  0  0  0  0
  1 11  1  0  0  0  0
  1 31  1  0  0  0  0
  2 12  1  0  0  0  0
  2 13  1  0  0  0  0
  2 14  1  0  0  0  0
  3 14  2  0  0  0  0
  3 15  1  0  0  0  0
  4 13  2  0  0  0  0
  4 18  1  0  0  0  0
  5 16  1  0  0  0  0
  5 17  1  0  0  0  0
  5 33  1  0  0  0  0
  6 16  1  0  0  0  0
  6 18  2  0  0  0  0
  7 18  1  0  0  0  0
  7 38  1  0  0  0  0
  7 39  1  0  0  0  0
  8  9  1  0  0  0  0
  8 10  1  0  0  0  0
  8 11  1  6  0  0  0
  8 25  1  0  0  0  0
  9 10  1  0  0  0  0
  9 26  1  0  0  0  0
  9 27  1  0  0  0  0
 10 12  2  3  0  0  0
 11 28  1  0  0  0  0
 11 29  1  0  0  0  0
 12 30  1  0  0  0  0
 13 15  1  0  0  0  0
 14 32  1  0  0  0  0
 15 16  2  0  0  0  0
 17 19  1  0  0  0  0
 17 34  1  0  0  0  0
 17 35  1  0  0  0  0
 19 20  2  0  0  0  0
 19 21  1  0  0  0  0
 20 22  1  0  0  0  0
 20 36  1  0  0  0  0
 21 23  2  0  0  0  0
 21 37  1  0  0  0  0
 22 24  2  0  0  0  0
 22 40  1  0  0  0  0
 23 24  1  0  0  0  0
 23 41  1  0  0  0  0
 24 42  1  0  0  0  0
M  END
> <PUBCHEM_COMPOUND_CID>
504200
> <PUBCHEM_COMPOUND_CANONICALIZED>
1
> <PUBCHEM_CACTVS_COMPLEXITY>
466
> <PUBCHEM_CACTVS_HBOND_ACCEPTOR>
6
> <PUBCHEM_CACTVS_HBOND_DONOR>
3
> <PUBCHEM_CACTVS_ROTATABLE_BOND>
5
> <PUBCHEM_CACTVS_SUBSKEYS>
AAADceB7oAAAAAAAAAAAAAAAGAAAAWAAAAA8QAAAAAAAAFgB/AAAHgAQCAAADQjhnwY18L/MEgCgAyZnZACCgC0xEKAJ2KAoVJiIeCLA2VGUZAhswALIiCcQgAAOAAAAAAAAAAAAAAAAAAAAAAAAAAAAAA==
> <PUBCHEM_IUPAC_OPENEYE_NAME>
[(1S)-2-[[2-amino-6-(benzylamino)purin-9-yl]methylene]cyclopropyl]methanol
> <PUBCHEM_IUPAC_CAS_NAME>
[(1S)-2-[[2-amino-6-[(phenylmethyl)amino]-9-purinyl]methylidene]cyclopropyl]methanol
> <PUBCHEM_IUPAC_NAME_MARKUP>
[(1<I>S</I>)-2-[[2-amino-6-(benzylamino)purin-9-yl]methylidene]cyclopropyl]methanol
> <PUBCHEM_IUPAC_NAME>
[(1S)-2-[[2-amino-6-(benzylamino)purin-9-yl]methylidene]cyclopropyl]methanol
> <PUBCHEM_IUPAC_SYSTEMATIC_NAME>
[(1S)-2-[[2-azanyl-6-[(phenylmethyl)amino]purin-9-yl]methylidene]cyclopropyl]methanol
> <PUBCHEM_IUPAC_TRADITIONAL_NAME>
[(1S)-2-[[2-amino-6-(benzylamino)purin-9-yl]methylene]cyclopropyl]methanol
> <PUBCHEM_IUPAC_INCHI>
InChI=1S/C17H18N6O/c18-17-21-15(19-7-11-4-2-1-3-5-11)14-16(22-17)23(10-20-14)8-12-6-13(12)9-24/h1-5,8,10,13,24H,6-7,9H2,(H3,18,19,21,22)/t13-/m1/s1
> <PUBCHEM_IUPAC_INCHIKEY>
UQLZCBRFHUCBJF-CYBMUJFWSA-N
> <PUBCHEM_XLOGP3_AA>
1
> <PUBCHEM_EXACT_MASS>
322.15420922
> <PUBCHEM_MOLECULAR_FORMULA>
C17H18N6O
> <PUBCHEM_MOLECULAR_WEIGHT>
322.4
> <PUBCHEM_OPENEYE_CAN_SMILES>
C1C(C1=CN2C=NC3=C(N=C(N=C32)N)NCC4=CC=CC=C4)CO
> <PUBCHEM_OPENEYE_ISO_SMILES>
C1[C@@H](C1=CN2C=NC3=C(N=C(N=C32)N)NCC4=CC=CC=C4)CO
> <PUBCHEM_CACTVS_TPSA>
102
> <PUBCHEM_MONOISOTOPIC_WEIGHT>
322.15420922
> <PUBCHEM_TOTAL_CHARGE>
0
> <PUBCHEM_HEAVY_ATOM_COUNT>
24
> <PUBCHEM_ATOM_DEF_STEREO_COUNT>
1
> <PUBCHEM_ATOM_UDEF_STEREO_COUNT>
0
> <PUBCHEM_BOND_DEF_STEREO_COUNT>
0
> <PUBCHEM_BOND_UDEF_STEREO_COUNT>
1
> <PUBCHEM_ISOTOPIC_ATOM_COUNT>
0
> <PUBCHEM_COMPONENT_COUNT>
1
> <PUBCHEM_CACTVS_TAUTO_COUNT>
-1
> <PUBCHEM_COORDINATE_TYPE>
1
5
255
> <PUBCHEM_BONDANNOTATIONS>
10  12  1
13  15  8
15  16  8
19  20  8
19  21  8
2  13  8
2  14  8
20  22  8
21  23  8
22  24  8
23  24  8
3  14  8
3  15  8
4  13  8
4  18  8
6  16  8
6  18  8
8  11  6
$$$$
