504262
  -OEChem-10302200282D
 58 61  0     1  0  0  0  0  0999 V2000
    9.2450    1.0391    0.0000 N   0  0  0  0  0  0  0  0  0  0  0  0
    6.8300   -0.0416    0.0000 N   0  0  0  0  0  0  0  0  0  0  0  0
   11.0403    2.5374    0.0000 C   0  0  3  0  0  0  0  0  0  0  0  0
   11.2992    3.5033    0.0000 C   0  0  3  0  0  0  0  0  0  0  0  0
    9.6676    1.9454    0.0000 C   0  0  3  0  0  0  0  0  0  0  0  0
   10.5626    4.4859    0.0000 C   0  0  0  0  0  0  0  0  0  0  0  0
    9.3256    2.8851    0.0000 C   0  0  0  0  0  0  0  0  0  0  0  0
   12.4393    2.0286    0.0000 C   0  0  0  0  0  0  0  0  0  0  0  0
   12.6981    2.9945    0.0000 C   0  0  0  0  0  0  0  0  0  0  0  0
    8.2488    0.9519    0.0000 C   0  0  0  0  0  0  0  0  0  0  0  0
    7.8262    0.0456    0.0000 C   0  0  0  0  0  0  0  0  0  0  0  0
    6.4074   -0.9479    0.0000 C   0  0  0  0  0  0  0  0  0  0  0  0
    5.4112   -1.0350    0.0000 C   0  0  0  0  0  0  0  0  0  0  0  0
    4.9886   -1.9413    0.0000 C   0  0  0  0  0  0  0  0  0  0  0  0
    3.9924   -2.0285    0.0000 C   0  0  0  0  0  0  0  0  0  0  0  0
    5.5622   -2.7605    0.0000 C   0  0  0  0  0  0  0  0  0  0  0  0
    3.5698   -2.9348    0.0000 C   0  0  0  0  0  0  0  0  0  0  0  0
    6.5584   -2.6733    0.0000 C   0  0  0  0  0  0  0  0  0  0  0  0
    3.4188   -1.2093    0.0000 C   0  0  0  0  0  0  0  0  0  0  0  0
    5.1395   -3.6668    0.0000 C   0  0  0  0  0  0  0  0  0  0  0  0
    2.5736   -3.0219    0.0000 C   0  0  0  0  0  0  0  0  0  0  0  0
    7.1319   -3.4925    0.0000 C   0  0  0  0  0  0  0  0  0  0  0  0
    2.4226   -1.2965    0.0000 C   0  0  0  0  0  0  0  0  0  0  0  0
    5.7131   -4.4859    0.0000 C   0  0  0  0  0  0  0  0  0  0  0  0
    2.0000   -2.2028    0.0000 C   0  0  0  0  0  0  0  0  0  0  0  0
    6.7093   -4.3988    0.0000 C   0  0  0  0  0  0  0  0  0  0  0  0
   11.0584    1.9177    0.0000 H   0  0  0  0  0  0  0  0  0  0  0  0
   11.2851    2.8835    0.0000 H   0  0  0  0  0  0  0  0  0  0  0  0
   10.0996    1.5006    0.0000 H   0  0  0  0  0  0  0  0  0  0  0  0
   10.8804    5.0183    0.0000 H   0  0  0  0  0  0  0  0  0  0  0  0
    9.9494    4.5779    0.0000 H   0  0  0  0  0  0  0  0  0  0  0  0
    9.1313    3.4738    0.0000 H   0  0  0  0  0  0  0  0  0  0  0  0
    8.7399    2.6819    0.0000 H   0  0  0  0  0  0  0  0  0  0  0  0
   12.2444    1.4400    0.0000 H   0  0  0  0  0  0  0  0  0  0  0  0
   13.0333    1.8508    0.0000 H   0  0  0  0  0  0  0  0  0  0  0  0
   13.2921    2.8167    0.0000 H   0  0  0  0  0  0  0  0  0  0  0  0
   12.8930    3.5831    0.0000 H   0  0  0  0  0  0  0  0  0  0  0  0
    9.6006    0.5312    0.0000 H   0  0  0  0  0  0  0  0  0  0  0  0
    8.3029    1.5696    0.0000 H   0  0  0  0  0  0  0  0  0  0  0  0
    7.6500    1.1124    0.0000 H   0  0  0  0  0  0  0  0  0  0  0  0
    7.7722   -0.5720    0.0000 H   0  0  0  0  0  0  0  0  0  0  0  0
    8.4251   -0.1149    0.0000 H   0  0  0  0  0  0  0  0  0  0  0  0
    6.4744    0.4663    0.0000 H   0  0  0  0  0  0  0  0  0  0  0  0
    6.3534   -1.5655    0.0000 H   0  0  0  0  0  0  0  0  0  0  0  0
    7.0063   -1.1083    0.0000 H   0  0  0  0  0  0  0  0  0  0  0  0
    5.4652   -0.4174    0.0000 H   0  0  0  0  0  0  0  0  0  0  0  0
    4.8123   -0.8745    0.0000 H   0  0  0  0  0  0  0  0  0  0  0  0
    4.6330   -1.4334    0.0000 H   0  0  0  0  0  0  0  0  0  0  0  0
    3.9254   -3.4427    0.0000 H   0  0  0  0  0  0  0  0  0  0  0  0
    6.8204   -2.1114    0.0000 H   0  0  0  0  0  0  0  0  0  0  0  0
    3.6808   -0.6474    0.0000 H   0  0  0  0  0  0  0  0  0  0  0  0
    4.5219   -3.7208    0.0000 H   0  0  0  0  0  0  0  0  0  0  0  0
    2.3116   -3.5838    0.0000 H   0  0  0  0  0  0  0  0  0  0  0  0
    7.7496   -3.4384    0.0000 H   0  0  0  0  0  0  0  0  0  0  0  0
    2.0670   -0.7886    0.0000 H   0  0  0  0  0  0  0  0  0  0  0  0
    5.4511   -5.0479    0.0000 H   0  0  0  0  0  0  0  0  0  0  0  0
    1.3824   -2.2568    0.0000 H   0  0  0  0  0  0  0  0  0  0  0  0
    7.0649   -4.9066    0.0000 H   0  0  0  0  0  0  0  0  0  0  0  0
  1  5  1  0  0  0  0
  1 10  1  0  0  0  0
  1 38  1  0  0  0  0
  2 11  1  0  0  0  0
  2 12  1  0  0  0  0
  2 43  1  0  0  0  0
  3  5  1  0  0  0  0
  3  6  1  0  0  0  0
  3  8  1  0  0  0  0
  3 27  1  0  0  0  0
  4  6  1  0  0  0  0
  4  7  1  0  0  0  0
  4  9  1  0  0  0  0
  4 28  1  0  0  0  0
  5  7  1  0  0  0  0
  5 29  1  0  0  0  0
  6 30  1  0  0  0  0
  6 31  1  0  0  0  0
  7 32  1  0  0  0  0
  7 33  1  0  0  0  0
  8  9  1  0  0  0  0
  8 34  1  0  0  0  0
  8 35  1  0  0  0  0
  9 36  1  0  0  0  0
  9 37  1  0  0  0  0
 10 11  1  0  0  0  0
 10 39  1  0  0  0  0
 10 40  1  0  0  0  0
 11 41  1  0  0  0  0
 11 42  1  0  0  0  0
 12 13  1  0  0  0  0
 12 44  1  0  0  0  0
 12 45  1  0  0  0  0
 13 14  1  0  0  0  0
 13 46  1  0  0  0  0
 13 47  1  0  0  0  0
 14 15  1  0  0  0  0
 14 16  1  0  0  0  0
 14 48  1  0  0  0  0
 15 17  2  0  0  0  0
 15 19  1  0  0  0  0
 16 18  2  0  0  0  0
 16 20  1  0  0  0  0
 17 21  1  0  0  0  0
 17 49  1  0  0  0  0
 18 22  1  0  0  0  0
 18 50  1  0  0  0  0
 19 23  2  0  0  0  0
 19 51  1  0  0  0  0
 20 24  2  0  0  0  0
 20 52  1  0  0  0  0
 21 25  2  0  0  0  0
 21 53  1  0  0  0  0
 22 26  2  0  0  0  0
 22 54  1  0  0  0  0
 23 25  1  0  0  0  0
 23 55  1  0  0  0  0
 24 26  1  0  0  0  0
 24 56  1  0  0  0  0
 25 57  1  0  0  0  0
 26 58  1  0  0  0  0
M  END
> <PUBCHEM_COMPOUND_CID>
504262
> <PUBCHEM_COMPOUND_CANONICALIZED>
1
> <PUBCHEM_CACTVS_COMPLEXITY>
379
> <PUBCHEM_CACTVS_HBOND_ACCEPTOR>
2
> <PUBCHEM_CACTVS_HBOND_DONOR>
2
> <PUBCHEM_CACTVS_ROTATABLE_BOND>
9
> <PUBCHEM_CACTVS_SUBSKEYS>
AAADcfB7AAAAAAAAAAAAAAAAAAAAAYMAAAAwYMAAAAAAAAABQAAAHAAQAAAADSjBGAQwAILAAACAAiBCAAACAAAgAAAIiIAIAIgIYCKAkRCUIAAgkACIiAcQgMAOgAAAAAAAAAAAAACAAAQAASAAAQAAAA==
> <PUBCHEM_IUPAC_OPENEYE_NAME>
N-(3,3-diphenylpropyl)-N'-norbornan-2-yl-ethane-1,2-diamine
> <PUBCHEM_IUPAC_CAS_NAME>
N'-(2-bicyclo[2.2.1]heptanyl)-N-(3,3-diphenylpropyl)ethane-1,2-diamine
> <PUBCHEM_IUPAC_NAME_MARKUP>
<I>N</I>&apos;-(2-bicyclo[2.2.1]heptanyl)-<I>N</I>-(3,3-diphenylpropyl)ethane-1,2-diamine
> <PUBCHEM_IUPAC_NAME>
N'-(2-bicyclo[2.2.1]heptanyl)-N-(3,3-diphenylpropyl)ethane-1,2-diamine
> <PUBCHEM_IUPAC_SYSTEMATIC_NAME>
N'-(2-bicyclo[2.2.1]heptanyl)-N-(3,3-diphenylpropyl)ethane-1,2-diamine
> <PUBCHEM_IUPAC_TRADITIONAL_NAME>
3,3-diphenylpropyl-[2-(2-norbornylamino)ethyl]amine
> <PUBCHEM_IUPAC_INCHI>
InChI=1S/C24H32N2/c1-3-7-20(8-4-1)23(21-9-5-2-6-10-21)13-14-25-15-16-26-24-18-19-11-12-22(24)17-19/h1-10,19,22-26H,11-18H2
> <PUBCHEM_IUPAC_INCHIKEY>
SOEYDSWDRIGNJR-UHFFFAOYSA-N
> <PUBCHEM_XLOGP3_AA>
4.9
> <PUBCHEM_EXACT_MASS>
348.256549029
> <PUBCHEM_MOLECULAR_FORMULA>
C24H32N2
> <PUBCHEM_MOLECULAR_WEIGHT>
348.5
> <PUBCHEM_OPENEYE_CAN_SMILES>
C1CC2CC1CC2NCCNCCC(C3=CC=CC=C3)C4=CC=CC=C4
> <PUBCHEM_OPENEYE_ISO_SMILES>
C1CC2CC1CC2NCCNCCC(C3=CC=CC=C3)C4=CC=CC=C4
> <PUBCHEM_CACTVS_TPSA>
24.1
> <PUBCHEM_MONOISOTOPIC_WEIGHT>
348.256549029
> <PUBCHEM_TOTAL_CHARGE>
0
> <PUBCHEM_HEAVY_ATOM_COUNT>
26
> <PUBCHEM_ATOM_DEF_STEREO_COUNT>
0
> <PUBCHEM_ATOM_UDEF_STEREO_COUNT>
3
> <PUBCHEM_BOND_DEF_STEREO_COUNT>
0
> <PUBCHEM_BOND_UDEF_STEREO_COUNT>
0
> <PUBCHEM_ISOTOPIC_ATOM_COUNT>
0
> <PUBCHEM_COMPONENT_COUNT>
1
> <PUBCHEM_CACTVS_TAUTO_COUNT>
-1
> <PUBCHEM_COORDINATE_TYPE>
1
5
255
> <PUBCHEM_BONDANNOTATIONS>
5  1  3
15  17  8
15  19  8
16  18  8
16  20  8
17  21  8
18  22  8
19  23  8
20  24  8
21  25  8
22  26  8
23  25  8
24  26  8
3  8  3
4  9  3
$$$$
