504291
  -OEChem-10302200282D
 31 32  0     1  0  0  0  0  0999 V2000
    2.6420    1.3536    0.0000 O   0  0  0  0  0  0  0  0  0  0  0  0
    3.9511    2.3046    0.0000 O   0  0  0  0  0  0  0  0  0  0  0  0
    2.9511   -0.7731    0.0000 O   0  0  0  0  0  0  0  0  0  0  0  0
    4.5388   -1.5821    0.0000 O   0  0  0  0  0  0  0  0  0  0  0  0
    3.1376   -2.6001    0.0000 O   0  0  0  0  0  0  0  0  0  0  0  0
    3.4511    0.7658    0.0000 C   0  0  3  0  0  0  0  0  0  0  0  0
    4.2601    0.1780    0.0000 C   0  0  0  0  0  0  0  0  0  0  0  0
    4.2601    1.3536    0.0000 C   0  0  0  0  0  0  0  0  0  0  0  0
    2.6420    0.1780    0.0000 C   0  0  0  0  0  0  0  0  0  0  0  0
    2.9511    2.3046    0.0000 C   0  0  0  0  0  0  0  0  0  0  0  0
    3.9511   -0.7731    0.0000 C   0  0  3  0  0  0  0  0  0  0  0  0
    2.9511    3.3046    0.0000 C   0  0  0  0  0  0  0  0  0  0  0  0
    2.0000    2.6136    0.0000 C   0  0  0  0  0  0  0  0  0  0  0  0
    4.1321   -2.4956    0.0000 C   0  0  0  0  0  0  0  0  0  0  0  0
    4.7199   -3.3046    0.0000 C   0  0  0  0  0  0  0  0  0  0  0  0
    4.8265   -0.0742    0.0000 H   0  0  0  0  0  0  0  0  0  0  0  0
    4.5701    0.7149    0.0000 H   0  0  0  0  0  0  0  0  0  0  0  0
    4.5701    0.8166    0.0000 H   0  0  0  0  0  0  0  0  0  0  0  0
    4.8265    1.6058    0.0000 H   0  0  0  0  0  0  0  0  0  0  0  0
    2.3320    0.7149    0.0000 H   0  0  0  0  0  0  0  0  0  0  0  0
    2.0756   -0.0742    0.0000 H   0  0  0  0  0  0  0  0  0  0  0  0
    3.6696   -1.3255    0.0000 H   0  0  0  0  0  0  0  0  0  0  0  0
    3.5711    3.3046    0.0000 H   0  0  0  0  0  0  0  0  0  0  0  0
    2.9511    3.9246    0.0000 H   0  0  0  0  0  0  0  0  0  0  0  0
    2.3311    3.3046    0.0000 H   0  0  0  0  0  0  0  0  0  0  0  0
    2.1916    3.2033    0.0000 H   0  0  0  0  0  0  0  0  0  0  0  0
    1.4103    2.8052    0.0000 H   0  0  0  0  0  0  0  0  0  0  0  0
    1.8084    2.0240    0.0000 H   0  0  0  0  0  0  0  0  0  0  0  0
    4.2183   -3.6691    0.0000 H   0  0  0  0  0  0  0  0  0  0  0  0
    5.0843   -3.8062    0.0000 H   0  0  0  0  0  0  0  0  0  0  0  0
    5.2215   -2.9402    0.0000 H   0  0  0  0  0  0  0  0  0  0  0  0
  1  6  1  0  0  0  0
  1 10  1  0  0  0  0
  2  8  1  0  0  0  0
  2 10  1  0  0  0  0
  3  9  1  0  0  0  0
  3 11  1  0  0  0  0
  4 11  1  0  0  0  0
  4 14  1  0  0  0  0
  5 14  2  0  0  0  0
  6  7  1  0  0  0  0
  6  8  1  0  0  0  0
  6  9  1  0  0  0  0
  7 11  1  0  0  0  0
  7 16  1  0  0  0  0
  7 17  1  0  0  0  0
  8 18  1  0  0  0  0
  8 19  1  0  0  0  0
  9 20  1  0  0  0  0
  9 21  1  0  0  0  0
 10 12  1  0  0  0  0
 10 13  1  0  0  0  0
 11 22  1  0  0  0  0
 12 23  1  0  0  0  0
 12 24  1  0  0  0  0
 12 25  1  0  0  0  0
 13 26  1  0  0  0  0
 13 27  1  0  0  0  0
 13 28  1  0  0  0  0
 14 15  1  0  0  0  0
 15 29  1  0  0  0  0
 15 30  1  0  0  0  0
 15 31  1  0  0  0  0
M  END
> <PUBCHEM_COMPOUND_CID>
504291
> <PUBCHEM_COMPOUND_CANONICALIZED>
1
> <PUBCHEM_CACTVS_COMPLEXITY>
275
> <PUBCHEM_CACTVS_HBOND_ACCEPTOR>
5
> <PUBCHEM_CACTVS_HBOND_DONOR>
0
> <PUBCHEM_CACTVS_ROTATABLE_BOND>
2
> <PUBCHEM_CACTVS_SUBSKEYS>
AAADceBwOAAAAAAAAAAAAAAAAAAAASJAAAAAAAAAAAAAAAAAAAAAGgAAAAAADESwgAMCCAAABAAIAACQCAAAAAAAAAAAAAAAAAARAAAAAAAiAAAFAAAGAABAAAAIAAAAAAAAAAAAAAAAAAAAAAAAAAAAAA==
> <PUBCHEM_IUPAC_OPENEYE_NAME>
(2,2-dimethyl-1,3,7-trioxaspiro[4.4]nonan-8-yl) acetate
> <PUBCHEM_IUPAC_CAS_NAME>
acetic acid (2,2-dimethyl-1,3,7-trioxaspiro[4.4]nonan-8-yl) ester
> <PUBCHEM_IUPAC_NAME_MARKUP>
(2,2-dimethyl-1,3,7-trioxaspiro[4.4]nonan-8-yl) acetate
> <PUBCHEM_IUPAC_NAME>
(2,2-dimethyl-1,3,7-trioxaspiro[4.4]nonan-8-yl) acetate
> <PUBCHEM_IUPAC_SYSTEMATIC_NAME>
(2,2-dimethyl-1,3,7-trioxaspiro[4.4]nonan-8-yl) ethanoate
> <PUBCHEM_IUPAC_TRADITIONAL_NAME>
acetic acid (2,2-dimethyl-1,3,7-trioxaspiro[4.4]nonan-8-yl) ester
> <PUBCHEM_IUPAC_INCHI>
InChI=1S/C10H16O5/c1-7(11)14-8-4-10(5-12-8)6-13-9(2,3)15-10/h8H,4-6H2,1-3H3
> <PUBCHEM_IUPAC_INCHIKEY>
ABURSRVNYJQLAY-UHFFFAOYSA-N
> <PUBCHEM_XLOGP3_AA>
0.3
> <PUBCHEM_EXACT_MASS>
216.09977361
> <PUBCHEM_MOLECULAR_FORMULA>
C10H16O5
> <PUBCHEM_MOLECULAR_WEIGHT>
216.23
> <PUBCHEM_OPENEYE_CAN_SMILES>
CC(=O)OC1CC2(CO1)COC(O2)(C)C
> <PUBCHEM_OPENEYE_ISO_SMILES>
CC(=O)OC1CC2(CO1)COC(O2)(C)C
> <PUBCHEM_CACTVS_TPSA>
54
> <PUBCHEM_MONOISOTOPIC_WEIGHT>
216.09977361
> <PUBCHEM_TOTAL_CHARGE>
0
> <PUBCHEM_HEAVY_ATOM_COUNT>
15
> <PUBCHEM_ATOM_DEF_STEREO_COUNT>
0
> <PUBCHEM_ATOM_UDEF_STEREO_COUNT>
2
> <PUBCHEM_BOND_DEF_STEREO_COUNT>
0
> <PUBCHEM_BOND_UDEF_STEREO_COUNT>
0
> <PUBCHEM_ISOTOPIC_ATOM_COUNT>
0
> <PUBCHEM_COMPONENT_COUNT>
1
> <PUBCHEM_CACTVS_TAUTO_COUNT>
-1
> <PUBCHEM_COORDINATE_TYPE>
1
5
255
> <PUBCHEM_BONDANNOTATIONS>
11  4  3
6  7  3
$$$$
