504282
  -OEChem-10302200282D
 67 70  0     1  0  0  0  0  0999 V2000
    6.4037    1.2644    0.0000 N   0  0  0  0  0  0  0  0  0  0  0  0
    7.1819   -1.2644    0.0000 N   0  0  0  0  0  0  0  0  0  0  0  0
    4.3695    3.6593    0.0000 C   0  0  1  0  0  0  0  0  0  0  0  0
    2.9706    3.6681    0.0000 C   0  0  0  0  0  0  0  0  0  0  0  0
    9.2161   -3.6593    0.0000 C   0  0  1  0  0  0  0  0  0  0  0  0
   10.6151   -3.6681    0.0000 C   0  0  0  0  0  0  0  0  0  0  0  0
    4.1107    4.6252    0.0000 C   0  0  2  0  0  0  0  0  0  0  0  0
    9.4749   -4.6252    0.0000 C   0  0  2  0  0  0  0  0  0  0  0  0
    4.8473    5.6079    0.0000 C   0  0  0  0  0  0  0  0  0  0  0  0
    8.7383   -5.6079    0.0000 C   0  0  0  0  0  0  0  0  0  0  0  0
    5.5906    2.7937    0.0000 C   0  0  1  0  0  0  0  0  0  0  0  0
    7.9951   -2.7937    0.0000 C   0  0  1  0  0  0  0  0  0  0  0  0
    6.1440    4.3141    0.0000 C   0  0  0  0  0  0  0  0  0  0  0  0
    7.4417   -4.3141    0.0000 C   0  0  0  0  0  0  0  0  0  0  0  0
    6.4196    3.3528    0.0000 C   0  0  0  0  0  0  0  0  0  0  0  0
    7.1660   -3.3528    0.0000 C   0  0  0  0  0  0  0  0  0  0  0  0
    2.1046    4.1681    0.0000 C   0  0  0  0  0  0  0  0  0  0  0  0
    2.4706    2.8021    0.0000 C   0  0  0  0  0  0  0  0  0  0  0  0
   11.4811   -4.1681    0.0000 C   0  0  0  0  0  0  0  0  0  0  0  0
   11.1151   -2.8021    0.0000 C   0  0  0  0  0  0  0  0  0  0  0  0
    5.5556    1.7943    0.0000 C   0  0  0  0  0  0  0  0  0  0  0  0
    8.0300   -1.7943    0.0000 C   0  0  0  0  0  0  0  0  0  0  0  0
    6.3688    0.2650    0.0000 C   0  0  3  0  0  0  0  0  0  0  0  0
    7.2168   -0.2650    0.0000 C   0  0  0  0  0  0  0  0  0  0  0  0
    5.4858   -0.2045    0.0000 C   0  0  0  0  0  0  0  0  0  0  0  0
    4.5895    2.8383    0.0000 H   0  0  0  0  0  0  0  0  0  0  0  0
    8.9961   -2.8383    0.0000 H   0  0  0  0  0  0  0  0  0  0  0  0
    3.8907    5.4463    0.0000 H   0  0  0  0  0  0  0  0  0  0  0  0
    9.6949   -5.4463    0.0000 H   0  0  0  0  0  0  0  0  0  0  0  0
    4.5295    6.1402    0.0000 H   0  0  0  0  0  0  0  0  0  0  0  0
    5.4605    5.6998    0.0000 H   0  0  0  0  0  0  0  0  0  0  0  0
    9.0561   -6.1402    0.0000 H   0  0  0  0  0  0  0  0  0  0  0  0
    8.1252   -5.6998    0.0000 H   0  0  0  0  0  0  0  0  0  0  0  0
    6.1328    2.4931    0.0000 H   0  0  0  0  0  0  0  0  0  0  0  0
    7.4528   -2.4931    0.0000 H   0  0  0  0  0  0  0  0  0  0  0  0
    6.1490    4.9341    0.0000 H   0  0  0  0  0  0  0  0  0  0  0  0
    6.7583    4.3979    0.0000 H   0  0  0  0  0  0  0  0  0  0  0  0
    7.4366   -4.9341    0.0000 H   0  0  0  0  0  0  0  0  0  0  0  0
    6.8274   -4.3979    0.0000 H   0  0  0  0  0  0  0  0  0  0  0  0
    6.9944    3.5851    0.0000 H   0  0  0  0  0  0  0  0  0  0  0  0
    6.7107    2.8054    0.0000 H   0  0  0  0  0  0  0  0  0  0  0  0
    6.5912   -3.5851    0.0000 H   0  0  0  0  0  0  0  0  0  0  0  0
    6.8750   -2.8054    0.0000 H   0  0  0  0  0  0  0  0  0  0  0  0
    1.7946    3.6312    0.0000 H   0  0  0  0  0  0  0  0  0  0  0  0
    1.5676    4.4781    0.0000 H   0  0  0  0  0  0  0  0  0  0  0  0
    2.4146    4.7051    0.0000 H   0  0  0  0  0  0  0  0  0  0  0  0
    3.0075    2.4921    0.0000 H   0  0  0  0  0  0  0  0  0  0  0  0
    2.1606    2.2652    0.0000 H   0  0  0  0  0  0  0  0  0  0  0  0
    1.9336    3.1121    0.0000 H   0  0  0  0  0  0  0  0  0  0  0  0
   11.7911   -3.6312    0.0000 H   0  0  0  0  0  0  0  0  0  0  0  0
   12.0180   -4.4781    0.0000 H   0  0  0  0  0  0  0  0  0  0  0  0
   11.1711   -4.7051    0.0000 H   0  0  0  0  0  0  0  0  0  0  0  0
   10.5781   -2.4921    0.0000 H   0  0  0  0  0  0  0  0  0  0  0  0
   11.4251   -2.2652    0.0000 H   0  0  0  0  0  0  0  0  0  0  0  0
   11.6520   -3.1121    0.0000 H   0  0  0  0  0  0  0  0  0  0  0  0
    5.3234    1.2194    0.0000 H   0  0  0  0  0  0  0  0  0  0  0  0
    4.9492    1.9232    0.0000 H   0  0  0  0  0  0  0  0  0  0  0  0
    8.2622   -1.2194    0.0000 H   0  0  0  0  0  0  0  0  0  0  0  0
    8.6364   -1.9232    0.0000 H   0  0  0  0  0  0  0  0  0  0  0  0
    6.9511    1.5554    0.0000 H   0  0  0  0  0  0  0  0  0  0  0  0
    6.6345   -1.5554    0.0000 H   0  0  0  0  0  0  0  0  0  0  0  0
    5.8430    0.5935    0.0000 H   0  0  0  0  0  0  0  0  0  0  0  0
    7.4491    0.3099    0.0000 H   0  0  0  0  0  0  0  0  0  0  0  0
    7.8233   -0.3939    0.0000 H   0  0  0  0  0  0  0  0  0  0  0  0
    5.7769   -0.7519    0.0000 H   0  0  0  0  0  0  0  0  0  0  0  0
    4.9384   -0.4956    0.0000 H   0  0  0  0  0  0  0  0  0  0  0  0
    5.1948    0.3429    0.0000 H   0  0  0  0  0  0  0  0  0  0  0  0
  1 21  1  0  0  0  0
  1 23  1  0  0  0  0
  1 60  1  0  0  0  0
  2 22  1  0  0  0  0
  2 24  1  0  0  0  0
  2 61  1  0  0  0  0
  3  4  1  0  0  0  0
  3  9  1  0  0  0  0
  3 11  1  0  0  0  0
  3 26  1  6  0  0  0
  4  7  1  0  0  0  0
  4 17  1  0  0  0  0
  4 18  1  0  0  0  0
  5  6  1  0  0  0  0
  5 10  1  0  0  0  0
  5 12  1  0  0  0  0
  5 27  1  6  0  0  0
  6  8  1  0  0  0  0
  6 19  1  0  0  0  0
  6 20  1  0  0  0  0
  7  9  1  0  0  0  0
  7 13  1  0  0  0  0
  7 28  1  1  0  0  0
  8 10  1  0  0  0  0
  8 14  1  0  0  0  0
  8 29  1  1  0  0  0
  9 30  1  0  0  0  0
  9 31  1  0  0  0  0
 10 32  1  0  0  0  0
 10 33  1  0  0  0  0
 11 15  1  0  0  0  0
 11 21  1  1  0  0  0
 11 34  1  0  0  0  0
 12 16  1  0  0  0  0
 12 22  1  1  0  0  0
 12 35  1  0  0  0  0
 13 15  1  0  0  0  0
 13 36  1  0  0  0  0
 13 37  1  0  0  0  0
 14 16  1  0  0  0  0
 14 38  1  0  0  0  0
 14 39  1  0  0  0  0
 15 40  1  0  0  0  0
 15 41  1  0  0  0  0
 16 42  1  0  0  0  0
 16 43  1  0  0  0  0
 17 44  1  0  0  0  0
 17 45  1  0  0  0  0
 17 46  1  0  0  0  0
 18 47  1  0  0  0  0
 18 48  1  0  0  0  0
 18 49  1  0  0  0  0
 19 50  1  0  0  0  0
 19 51  1  0  0  0  0
 19 52  1  0  0  0  0
 20 53  1  0  0  0  0
 20 54  1  0  0  0  0
 20 55  1  0  0  0  0
 21 56  1  0  0  0  0
 21 57  1  0  0  0  0
 22 58  1  0  0  0  0
 22 59  1  0  0  0  0
 23 24  1  0  0  0  0
 23 25  1  0  0  0  0
 23 62  1  0  0  0  0
 24 63  1  0  0  0  0
 24 64  1  0  0  0  0
 25 65  1  0  0  0  0
 25 66  1  0  0  0  0
 25 67  1  0  0  0  0
M  END
> <PUBCHEM_COMPOUND_CID>
504282
> <PUBCHEM_COMPOUND_CANONICALIZED>
1
> <PUBCHEM_CACTVS_COMPLEXITY>
483
> <PUBCHEM_CACTVS_HBOND_ACCEPTOR>
2
> <PUBCHEM_CACTVS_HBOND_DONOR>
2
> <PUBCHEM_CACTVS_ROTATABLE_BOND>
7
> <PUBCHEM_CACTVS_SUBSKEYS>
AAADcfB7AAAAAAAAAAAAAAAAAABgwAAAAAAwYMGAAAAAAAAAAAAAHAAQAAAADyjBAAQCAALAAAAAAAAAAAAAAAAAAAAAAIAIAAAAQAIAgAAUAAAAEACAAAEQgMAPgAAAAAAAAACAAAQAACAAAAAAAAAAAA==
> <PUBCHEM_IUPAC_OPENEYE_NAME>
N1,N2-bis[[(1S,2R,5S)-6,6-dimethylnorpinan-2-yl]methyl]propane-1,2-diamine
> <PUBCHEM_IUPAC_CAS_NAME>
N1,N2-bis[[(1S,2R,5S)-6,6-dimethyl-2-bicyclo[3.1.1]heptanyl]methyl]propane-1,2-diamine
> <PUBCHEM_IUPAC_NAME_MARKUP>
1-<I>N</I>,2-<I>N</I>-bis[[(1<I>S</I>,2<I>R</I>,5<I>S</I>)-6,6-dimethyl-2-bicyclo[3.1.1]heptanyl]methyl]propane-1,2-diamine
> <PUBCHEM_IUPAC_NAME>
1-N,2-N-bis[[(1S,2R,5S)-6,6-dimethyl-2-bicyclo[3.1.1]heptanyl]methyl]propane-1,2-diamine
> <PUBCHEM_IUPAC_SYSTEMATIC_NAME>
N1,N2-bis[[(1S,2R,5S)-6,6-dimethyl-2-bicyclo[3.1.1]heptanyl]methyl]propane-1,2-diamine
> <PUBCHEM_IUPAC_TRADITIONAL_NAME>
[(1S,2R,5S)-6,6-dimethylnorpinan-2-yl]methyl-[2-[[(1S,2R,5S)-6,6-dimethylnorpinan-2-yl]methylamino]-1-methyl-ethyl]amine
> <PUBCHEM_IUPAC_INCHI>
InChI=1S/C23H42N2/c1-15(25-14-17-7-9-19-11-21(17)23(19,4)5)12-24-13-16-6-8-18-10-20(16)22(18,2)3/h15-21,24-25H,6-14H2,1-5H3/t15?,16-,17-,18-,19-,20-,21-/m0/s1
> <PUBCHEM_IUPAC_INCHIKEY>
LSCSHZGNGODMOE-HXZOEFROSA-N
> <PUBCHEM_XLOGP3_AA>
5.7
> <PUBCHEM_EXACT_MASS>
346.334799348
> <PUBCHEM_MOLECULAR_FORMULA>
C23H42N2
> <PUBCHEM_MOLECULAR_WEIGHT>
346.6
> <PUBCHEM_OPENEYE_CAN_SMILES>
CC(CNCC1CCC2CC1C2(C)C)NCC3CCC4CC3C4(C)C
> <PUBCHEM_OPENEYE_ISO_SMILES>
CC(CNC[C@@H]1CC[C@H]2C[C@@H]1C2(C)C)NC[C@@H]3CC[C@H]4C[C@@H]3C4(C)C
> <PUBCHEM_CACTVS_TPSA>
24.1
> <PUBCHEM_MONOISOTOPIC_WEIGHT>
346.334799348
> <PUBCHEM_TOTAL_CHARGE>
0
> <PUBCHEM_HEAVY_ATOM_COUNT>
25
> <PUBCHEM_ATOM_DEF_STEREO_COUNT>
6
> <PUBCHEM_ATOM_UDEF_STEREO_COUNT>
1
> <PUBCHEM_BOND_DEF_STEREO_COUNT>
0
> <PUBCHEM_BOND_UDEF_STEREO_COUNT>
0
> <PUBCHEM_ISOTOPIC_ATOM_COUNT>
0
> <PUBCHEM_COMPONENT_COUNT>
1
> <PUBCHEM_CACTVS_TAUTO_COUNT>
-1
> <PUBCHEM_COORDINATE_TYPE>
1
5
255
> <PUBCHEM_BONDANNOTATIONS>
11  21  5
12  22  5
23  25  3
3  26  6
5  27  6
7  28  5
8  29  5
$$$$
