504290
  -OEChem-10302200282D
 26 27  0     1  0  0  0  0  0999 V2000
    2.6420    0.7755    0.0000 O   0  0  0  0  0  0  0  0  0  0  0  0
    3.9511    1.7266    0.0000 O   0  0  0  0  0  0  0  0  0  0  0  0
    2.9511   -1.3511    0.0000 O   0  0  0  0  0  0  0  0  0  0  0  0
    4.5388   -2.1601    0.0000 O   0  0  0  0  0  0  0  0  0  0  0  0
    3.4511    0.1877    0.0000 C   0  0  3  0  0  0  0  0  0  0  0  0
    4.2601   -0.4001    0.0000 C   0  0  0  0  0  0  0  0  0  0  0  0
    4.2601    0.7755    0.0000 C   0  0  0  0  0  0  0  0  0  0  0  0
    2.6420   -0.4001    0.0000 C   0  0  0  0  0  0  0  0  0  0  0  0
    2.9511    1.7266    0.0000 C   0  0  0  0  0  0  0  0  0  0  0  0
    3.9511   -1.3511    0.0000 C   0  0  3  0  0  0  0  0  0  0  0  0
    2.9511    2.7266    0.0000 C   0  0  0  0  0  0  0  0  0  0  0  0
    2.0000    2.0356    0.0000 C   0  0  0  0  0  0  0  0  0  0  0  0
    4.8265   -0.6523    0.0000 H   0  0  0  0  0  0  0  0  0  0  0  0
    4.5701    0.1369    0.0000 H   0  0  0  0  0  0  0  0  0  0  0  0
    4.5701    0.2386    0.0000 H   0  0  0  0  0  0  0  0  0  0  0  0
    4.8265    1.0277    0.0000 H   0  0  0  0  0  0  0  0  0  0  0  0
    2.3320    0.1369    0.0000 H   0  0  0  0  0  0  0  0  0  0  0  0
    2.0756   -0.6523    0.0000 H   0  0  0  0  0  0  0  0  0  0  0  0
    3.6696   -1.9036    0.0000 H   0  0  0  0  0  0  0  0  0  0  0  0
    3.5711    2.7266    0.0000 H   0  0  0  0  0  0  0  0  0  0  0  0
    2.9511    3.3466    0.0000 H   0  0  0  0  0  0  0  0  0  0  0  0
    2.3311    2.7266    0.0000 H   0  0  0  0  0  0  0  0  0  0  0  0
    2.1916    2.6252    0.0000 H   0  0  0  0  0  0  0  0  0  0  0  0
    1.4103    2.2272    0.0000 H   0  0  0  0  0  0  0  0  0  0  0  0
    1.8084    1.4459    0.0000 H   0  0  0  0  0  0  0  0  0  0  0  0
    4.2867   -2.7266    0.0000 H   0  0  0  0  0  0  0  0  0  0  0  0
  1  5  1  0  0  0  0
  1  9  1  0  0  0  0
  2  7  1  0  0  0  0
  2  9  1  0  0  0  0
  3  8  1  0  0  0  0
  3 10  1  0  0  0  0
  4 10  1  0  0  0  0
  4 26  1  0  0  0  0
  5  6  1  0  0  0  0
  5  7  1  0  0  0  0
  5  8  1  0  0  0  0
  6 10  1  0  0  0  0
  6 13  1  0  0  0  0
  6 14  1  0  0  0  0
  7 15  1  0  0  0  0
  7 16  1  0  0  0  0
  8 17  1  0  0  0  0
  8 18  1  0  0  0  0
  9 11  1  0  0  0  0
  9 12  1  0  0  0  0
 10 19  1  0  0  0  0
 11 20  1  0  0  0  0
 11 21  1  0  0  0  0
 11 22  1  0  0  0  0
 12 23  1  0  0  0  0
 12 24  1  0  0  0  0
 12 25  1  0  0  0  0
M  END
> <PUBCHEM_COMPOUND_CID>
504290
> <PUBCHEM_COMPOUND_CANONICALIZED>
1
> <PUBCHEM_CACTVS_COMPLEXITY>
192
> <PUBCHEM_CACTVS_HBOND_ACCEPTOR>
4
> <PUBCHEM_CACTVS_HBOND_DONOR>
1
> <PUBCHEM_CACTVS_ROTATABLE_BOND>
0
> <PUBCHEM_CACTVS_SUBSKEYS>
AAADccBwOAAAAAAAAAAAAAAAAAAAASJAAAAAAAAAAAAAAAAAAAAAGgAACAAADESwgAMCCAAABgAAAAAAAAAAAAAAAAAAAAAAAAAREAAAAAAiQAAFAAAGAABAAAAIAAAAAAAAAAAAAAAAAAAAAAAAAAAAAA==
> <PUBCHEM_IUPAC_OPENEYE_NAME>
2,2-dimethyl-1,3,7-trioxaspiro[4.4]nonan-8-ol
> <PUBCHEM_IUPAC_CAS_NAME>
2,2-dimethyl-1,3,7-trioxaspiro[4.4]nonan-8-ol
> <PUBCHEM_IUPAC_NAME_MARKUP>
2,2-dimethyl-1,3,7-trioxaspiro[4.4]nonan-8-ol
> <PUBCHEM_IUPAC_NAME>
2,2-dimethyl-1,3,7-trioxaspiro[4.4]nonan-8-ol
> <PUBCHEM_IUPAC_SYSTEMATIC_NAME>
2,2-dimethyl-1,3,7-trioxaspiro[4.4]nonan-8-ol
> <PUBCHEM_IUPAC_TRADITIONAL_NAME>
2,2-dimethyl-1,3,7-trioxaspiro[4.4]nonan-8-ol
> <PUBCHEM_IUPAC_INCHI>
InChI=1S/C8H14O4/c1-7(2)11-5-8(12-7)3-6(9)10-4-8/h6,9H,3-5H2,1-2H3
> <PUBCHEM_IUPAC_INCHIKEY>
IWVTYKMZAQTICD-UHFFFAOYSA-N
> <PUBCHEM_XLOGP3_AA>
-0.2
> <PUBCHEM_EXACT_MASS>
174.08920892
> <PUBCHEM_MOLECULAR_FORMULA>
C8H14O4
> <PUBCHEM_MOLECULAR_WEIGHT>
174.19
> <PUBCHEM_OPENEYE_CAN_SMILES>
CC1(OCC2(O1)CC(OC2)O)C
> <PUBCHEM_OPENEYE_ISO_SMILES>
CC1(OCC2(O1)CC(OC2)O)C
> <PUBCHEM_CACTVS_TPSA>
47.9
> <PUBCHEM_MONOISOTOPIC_WEIGHT>
174.08920892
> <PUBCHEM_TOTAL_CHARGE>
0
> <PUBCHEM_HEAVY_ATOM_COUNT>
12
> <PUBCHEM_ATOM_DEF_STEREO_COUNT>
0
> <PUBCHEM_ATOM_UDEF_STEREO_COUNT>
2
> <PUBCHEM_BOND_DEF_STEREO_COUNT>
0
> <PUBCHEM_BOND_UDEF_STEREO_COUNT>
0
> <PUBCHEM_ISOTOPIC_ATOM_COUNT>
0
> <PUBCHEM_COMPONENT_COUNT>
1
> <PUBCHEM_CACTVS_TAUTO_COUNT>
-1
> <PUBCHEM_COORDINATE_TYPE>
1
5
255
> <PUBCHEM_BONDANNOTATIONS>
10  4  3
5  6  3
$$$$
