504295
  -OEChem-10302200282D
 35 37  0     1  0  0  0  0  0999 V2000
    5.6602   -1.7058    0.0000 O   0  0  0  0  0  0  0  0  0  0  0  0
    5.3511    0.4208    0.0000 O   0  0  0  0  0  0  0  0  0  0  0  0
    4.3511   -2.6569    0.0000 O   0  0  0  0  0  0  0  0  0  0  0  0
    5.1646    2.2479    0.0000 O   0  0  0  0  0  0  0  0  0  0  0  0
    2.0000    3.6569    0.0000 O   0  0  0  0  0  0  0  0  0  0  0  0
    3.7634    1.2298    0.0000 N   0  0  0  0  0  0  0  0  0  0  0  0
    3.5823    2.9524    0.0000 N   0  0  0  0  0  0  0  0  0  0  0  0
    4.8511   -1.1180    0.0000 C   0  0  3  0  0  0  0  0  0  0  0  0
    4.0421   -0.5302    0.0000 C   0  0  0  0  0  0  0  0  0  0  0  0
    5.6602   -0.5302    0.0000 C   0  0  0  0  0  0  0  0  0  0  0  0
    4.3511    0.4208    0.0000 C   0  0  1  0  0  0  0  0  0  0  0  0
    4.0421   -1.7058    0.0000 C   0  0  0  0  0  0  0  0  0  0  0  0
    5.3511   -2.6569    0.0000 C   0  0  0  0  0  0  0  0  0  0  0  0
    5.3511   -3.6569    0.0000 C   0  0  0  0  0  0  0  0  0  0  0  0
    6.3022   -2.9659    0.0000 C   0  0  0  0  0  0  0  0  0  0  0  0
    4.1701    2.1434    0.0000 C   0  0  0  0  0  0  0  0  0  0  0  0
    2.7688    1.1253    0.0000 C   0  0  0  0  0  0  0  0  0  0  0  0
    2.1810    1.9343    0.0000 C   0  0  0  0  0  0  0  0  0  0  0  0
    2.5878    2.8479    0.0000 C   0  0  0  0  0  0  0  0  0  0  0  0
    3.4757   -0.2781    0.0000 H   0  0  0  0  0  0  0  0  0  0  0  0
    3.7321   -1.0672    0.0000 H   0  0  0  0  0  0  0  0  0  0  0  0
    5.9702   -1.0672    0.0000 H   0  0  0  0  0  0  0  0  0  0  0  0
    6.2266   -0.2781    0.0000 H   0  0  0  0  0  0  0  0  0  0  0  0
    4.6326    0.9732    0.0000 H   0  0  0  0  0  0  0  0  0  0  0  0
    3.7321   -1.1689    0.0000 H   0  0  0  0  0  0  0  0  0  0  0  0
    3.4757   -1.9580    0.0000 H   0  0  0  0  0  0  0  0  0  0  0  0
    4.7311   -3.6569    0.0000 H   0  0  0  0  0  0  0  0  0  0  0  0
    5.3511   -4.2769    0.0000 H   0  0  0  0  0  0  0  0  0  0  0  0
    5.9711   -3.6569    0.0000 H   0  0  0  0  0  0  0  0  0  0  0  0
    6.1106   -3.5556    0.0000 H   0  0  0  0  0  0  0  0  0  0  0  0
    6.8918   -3.1575    0.0000 H   0  0  0  0  0  0  0  0  0  0  0  0
    6.4938   -2.3762    0.0000 H   0  0  0  0  0  0  0  0  0  0  0  0
    2.5167    0.5589    0.0000 H   0  0  0  0  0  0  0  0  0  0  0  0
    3.8345    3.5188    0.0000 H   0  0  0  0  0  0  0  0  0  0  0  0
    1.5644    1.8695    0.0000 H   0  0  0  0  0  0  0  0  0  0  0  0
  1  8  1  0  0  0  0
  1 13  1  0  0  0  0
  2 10  1  0  0  0  0
  2 11  1  0  0  0  0
  3 12  1  0  0  0  0
  3 13  1  0  0  0  0
  4 16  2  0  0  0  0
  5 19  2  0  0  0  0
 11  6  1  6  0  0  0
  6 16  1  0  0  0  0
  6 17  1  0  0  0  0
  7 16  1  0  0  0  0
  7 19  1  0  0  0  0
  7 34  1  0  0  0  0
  8  9  1  0  0  0  0
  8 10  1  0  0  0  0
  8 12  1  0  0  0  0
  9 11  1  0  0  0  0
  9 20  1  0  0  0  0
  9 21  1  0  0  0  0
 10 22  1  0  0  0  0
 10 23  1  0  0  0  0
 11 24  1  0  0  0  0
 12 25  1  0  0  0  0
 12 26  1  0  0  0  0
 13 14  1  0  0  0  0
 13 15  1  0  0  0  0
 14 27  1  0  0  0  0
 14 28  1  0  0  0  0
 14 29  1  0  0  0  0
 15 30  1  0  0  0  0
 15 31  1  0  0  0  0
 15 32  1  0  0  0  0
 17 18  2  0  0  0  0
 17 33  1  0  0  0  0
 18 19  1  0  0  0  0
 18 35  1  0  0  0  0
M  END
> <PUBCHEM_COMPOUND_CID>
504295
> <PUBCHEM_COMPOUND_CANONICALIZED>
1
> <PUBCHEM_CACTVS_COMPLEXITY>
461
> <PUBCHEM_CACTVS_HBOND_ACCEPTOR>
5
> <PUBCHEM_CACTVS_HBOND_DONOR>
1
> <PUBCHEM_CACTVS_ROTATABLE_BOND>
1
> <PUBCHEM_CACTVS_SUBSKEYS>
AAADceBzOAAAAAAAAAAAAAAAAAAAASJAAAAgAAAAAAAAAAAAAAAAHgAQAAAADEThgAYDCAPABACIACFWUACAAAAAAgAIAAAIAECRAAAAgAAuAAAPFyIGAMBgAAAIAAAAAAAAAAAAAAAAAAAAAAAAAAAAAA==
> <PUBCHEM_IUPAC_OPENEYE_NAME>
1-[(8R)-2,2-dimethyl-1,3,7-trioxaspiro[4.4]nonan-8-yl]pyrimidine-2,4-dione
> <PUBCHEM_IUPAC_CAS_NAME>
1-[(8R)-2,2-dimethyl-1,3,7-trioxaspiro[4.4]nonan-8-yl]pyrimidine-2,4-dione
> <PUBCHEM_IUPAC_NAME_MARKUP>
1-[(8<I>R</I>)-2,2-dimethyl-1,3,7-trioxaspiro[4.4]nonan-8-yl]pyrimidine-2,4-dione
> <PUBCHEM_IUPAC_NAME>
1-[(8R)-2,2-dimethyl-1,3,7-trioxaspiro[4.4]nonan-8-yl]pyrimidine-2,4-dione
> <PUBCHEM_IUPAC_SYSTEMATIC_NAME>
1-[(8R)-2,2-dimethyl-1,3,7-trioxaspiro[4.4]nonan-8-yl]pyrimidine-2,4-dione
> <PUBCHEM_IUPAC_TRADITIONAL_NAME>
1-[(8R)-2,2-dimethyl-1,3,7-trioxaspiro[4.4]nonan-8-yl]pyrimidine-2,4-quinone
> <PUBCHEM_IUPAC_INCHI>
InChI=1S/C12H16N2O5/c1-11(2)18-7-12(19-11)5-9(17-6-12)14-4-3-8(15)13-10(14)16/h3-4,9H,5-7H2,1-2H3,(H,13,15,16)/t9-,12?/m1/s1
> <PUBCHEM_IUPAC_INCHIKEY>
IFLFCYKPRVRYCO-PKEIRNPWSA-N
> <PUBCHEM_XLOGP3_AA>
-0.6
> <PUBCHEM_EXACT_MASS>
268.10592162
> <PUBCHEM_MOLECULAR_FORMULA>
C12H16N2O5
> <PUBCHEM_MOLECULAR_WEIGHT>
268.27
> <PUBCHEM_OPENEYE_CAN_SMILES>
CC1(OCC2(O1)CC(OC2)N3C=CC(=O)NC3=O)C
> <PUBCHEM_OPENEYE_ISO_SMILES>
CC1(OCC2(O1)C[C@@H](OC2)N3C=CC(=O)NC3=O)C
> <PUBCHEM_CACTVS_TPSA>
77.1
> <PUBCHEM_MONOISOTOPIC_WEIGHT>
268.10592162
> <PUBCHEM_TOTAL_CHARGE>
0
> <PUBCHEM_HEAVY_ATOM_COUNT>
19
> <PUBCHEM_ATOM_DEF_STEREO_COUNT>
1
> <PUBCHEM_ATOM_UDEF_STEREO_COUNT>
1
> <PUBCHEM_BOND_DEF_STEREO_COUNT>
0
> <PUBCHEM_BOND_UDEF_STEREO_COUNT>
0
> <PUBCHEM_ISOTOPIC_ATOM_COUNT>
0
> <PUBCHEM_COMPONENT_COUNT>
1
> <PUBCHEM_CACTVS_TAUTO_COUNT>
-1
> <PUBCHEM_COORDINATE_TYPE>
1
5
255
> <PUBCHEM_BONDANNOTATIONS>
17  18  8
18  19  8
11  6  6
6  16  8
6  17  8
7  16  8
7  19  8
8  9  3
$$$$
