504224
  -OEChem-10302200282D
104111  0     1  0  0  0  0  0999 V2000
    3.9234    0.3725    0.0000 Cl  0  0  0  0  0  0  0  0  0  0  0  0
   11.3108    2.5488    0.0000 O   0  0  0  0  0  0  0  0  0  0  0  0
    9.9765    3.4488    0.0000 O   0  0  0  0  0  0  0  0  0  0  0  0
    8.6398    0.0279    0.0000 O   0  0  0  0  0  0  0  0  0  0  0  0
    7.6295   -1.1323    0.0000 O   0  0  0  0  0  0  0  0  0  0  0  0
    3.9590   -6.1848    0.0000 O   0  0  0  0  0  0  0  0  0  0  0  0
    8.7606    1.7557    0.0000 N   0  0  0  0  0  0  0  0  0  0  0  0
    6.5655    0.2344    0.0000 N   0  0  0  0  0  0  0  0  0  0  0  0
    4.9873   -0.9942    0.0000 N   0  0  0  0  0  0  0  0  0  0  0  0
    6.0513   -2.3609    0.0000 N   0  0  0  0  0  0  0  0  0  0  0  0
   12.8083    4.3694    0.0000 C   0  0  3  0  0  0  0  0  0  0  0  0
   14.2073    4.3782    0.0000 C   0  0  0  0  0  0  0  0  0  0  0  0
   13.0672    5.3353    0.0000 C   0  0  3  0  0  0  0  0  0  0  0  0
   12.3305    6.3179    0.0000 C   0  0  0  0  0  0  0  0  0  0  0  0
   11.5873    3.5037    0.0000 C   0  0  2  0  0  0  0  0  0  0  0  0
   11.0339    5.0242    0.0000 C   0  0  0  0  0  0  0  0  0  0  0  0
   10.7583    4.0629    0.0000 C   0  0  3  0  0  0  0  0  0  0  0  0
   15.0733    4.8782    0.0000 C   0  0  0  0  0  0  0  0  0  0  0  0
   14.7073    3.5122    0.0000 C   0  0  0  0  0  0  0  0  0  0  0  0
   12.4164    2.9445    0.0000 C   0  0  0  0  0  0  0  0  0  0  0  0
    9.7581    1.6860    0.0000 C   0  0  1  0  0  0  0  0  0  0  0  0
   10.1965    0.7872    0.0000 C   0  0  0  0  0  0  0  0  0  0  0  0
    8.2014    0.9267    0.0000 C   0  0  0  0  0  0  0  0  0  0  0  0
    9.6373   -0.0419    0.0000 C   0  0  0  0  0  0  0  0  0  0  0  0
    7.2038    0.9964    0.0000 C   0  0  2  0  0  0  0  0  0  0  0  0
    6.6778    1.8399    0.0000 C   0  0  0  0  0  0  0  0  0  0  0  0
    5.7126    1.6019    0.0000 C   0  0  2  0  0  0  0  0  0  0  0  0
   10.0757   -0.9407    0.0000 C   0  0  0  0  0  0  0  0  0  0  0  0
    5.6390    0.6106    0.0000 C   0  0  0  0  0  0  0  0  0  0  0  0
    4.9488    2.2474    0.0000 C   0  0  0  0  0  0  0  0  0  0  0  0
    6.7030   -0.7561    0.0000 C   0  0  0  0  0  0  0  0  0  0  0  0
    4.8499   -0.0037    0.0000 C   0  0  0  0  0  0  0  0  0  0  0  0
    5.1258    3.2316    0.0000 C   0  0  0  0  0  0  0  0  0  0  0  0
    5.9139   -1.3704    0.0000 C   0  0  0  0  0  0  0  0  0  0  0  0
    4.3620    3.8770    0.0000 C   0  0  0  0  0  0  0  0  0  0  0  0
    4.5391    4.8612    0.0000 C   0  0  0  0  0  0  0  0  0  0  0  0
    5.2623   -2.9752    0.0000 C   0  0  0  0  0  0  0  0  0  0  0  0
    3.7753    5.5066    0.0000 C   0  0  0  0  0  0  0  0  0  0  0  0
    5.4799    5.2000    0.0000 C   0  0  0  0  0  0  0  0  0  0  0  0
    5.3997   -3.9657    0.0000 C   0  0  0  0  0  0  0  0  0  0  0  0
    3.9523    6.4908    0.0000 C   0  0  0  0  0  0  0  0  0  0  0  0
    5.6570    6.1842    0.0000 C   0  0  0  0  0  0  0  0  0  0  0  0
    2.8008    5.1387    0.0000 C   0  0  0  0  0  0  0  0  0  0  0  0
    4.8932    6.8296    0.0000 C   0  0  0  0  0  0  0  0  0  0  0  0
    3.1672    7.1753    0.0000 C   0  0  0  0  0  0  0  0  0  0  0  0
    4.6106   -4.5800    0.0000 C   0  0  0  0  0  0  0  0  0  0  0  0
    6.3262   -4.3419    0.0000 C   0  0  0  0  0  0  0  0  0  0  0  0
    2.0000    5.8049    0.0000 C   0  0  0  0  0  0  0  0  0  0  0  0
    2.1844    6.8300    0.0000 C   0  0  0  0  0  0  0  0  0  0  0  0
    4.7481   -5.5705    0.0000 C   0  0  0  0  0  0  0  0  0  0  0  0
    6.4637   -5.3324    0.0000 C   0  0  0  0  0  0  0  0  0  0  0  0
    5.6746   -5.9468    0.0000 C   0  0  0  0  0  0  0  0  0  0  0  0
    4.0965   -7.1753    0.0000 C   0  0  0  0  0  0  0  0  0  0  0  0
   10.3173    2.5150    0.0000 B   0  0  0  0  0  0  0  0  0  0  0  0
   12.9984    3.7792    0.0000 H   0  0  0  0  0  0  0  0  0  0  0  0
   13.5175    5.7614    0.0000 H   0  0  0  0  0  0  0  0  0  0  0  0
   12.6483    6.8502    0.0000 H   0  0  0  0  0  0  0  0  0  0  0  0
   11.7174    6.4098    0.0000 H   0  0  0  0  0  0  0  0  0  0  0  0
   11.0289    5.6441    0.0000 H   0  0  0  0  0  0  0  0  0  0  0  0
   10.4196    5.1079    0.0000 H   0  0  0  0  0  0  0  0  0  0  0  0
   10.2438    4.4089    0.0000 H   0  0  0  0  0  0  0  0  0  0  0  0
   15.3833    4.3412    0.0000 H   0  0  0  0  0  0  0  0  0  0  0  0
   15.6102    5.1882    0.0000 H   0  0  0  0  0  0  0  0  0  0  0  0
   14.7633    5.4151    0.0000 H   0  0  0  0  0  0  0  0  0  0  0  0
   14.1703    3.2022    0.0000 H   0  0  0  0  0  0  0  0  0  0  0  0
   15.0173    2.9752    0.0000 H   0  0  0  0  0  0  0  0  0  0  0  0
   15.2442    3.8222    0.0000 H   0  0  0  0  0  0  0  0  0  0  0  0
   12.0697    2.4305    0.0000 H   0  0  0  0  0  0  0  0  0  0  0  0
   12.9304    2.5978    0.0000 H   0  0  0  0  0  0  0  0  0  0  0  0
   12.7631    3.4585    0.0000 H   0  0  0  0  0  0  0  0  0  0  0  0
    9.4864    2.2432    0.0000 H   0  0  0  0  0  0  0  0  0  0  0  0
   10.6425    0.3565    0.0000 H   0  0  0  0  0  0  0  0  0  0  0  0
   10.6981    1.1516    0.0000 H   0  0  0  0  0  0  0  0  0  0  0  0
    8.4888    2.3130    0.0000 H   0  0  0  0  0  0  0  0  0  0  0  0
    9.0188    0.0014    0.0000 H   0  0  0  0  0  0  0  0  0  0  0  0
    7.4463    0.4258    0.0000 H   0  0  0  0  0  0  0  0  0  0  0  0
    7.2354    2.1109    0.0000 H   0  0  0  0  0  0  0  0  0  0  0  0
    6.4669    2.4230    0.0000 H   0  0  0  0  0  0  0  0  0  0  0  0
    5.1409    1.3619    0.0000 H   0  0  0  0  0  0  0  0  0  0  0  0
    9.7290   -1.4547    0.0000 H   0  0  0  0  0  0  0  0  0  0  0  0
   10.6942   -0.9839    0.0000 H   0  0  0  0  0  0  0  0  0  0  0  0
    4.3669    2.4614    0.0000 H   0  0  0  0  0  0  0  0  0  0  0  0
    4.6369    1.7115    0.0000 H   0  0  0  0  0  0  0  0  0  0  0  0
    5.7077    3.0175    0.0000 H   0  0  0  0  0  0  0  0  0  0  0  0
    5.4377    3.7674    0.0000 H   0  0  0  0  0  0  0  0  0  0  0  0
    3.7801    4.0911    0.0000 H   0  0  0  0  0  0  0  0  0  0  0  0
    4.0502    3.3412    0.0000 H   0  0  0  0  0  0  0  0  0  0  0  0
    6.6258   -2.5942    0.0000 H   0  0  0  0  0  0  0  0  0  0  0  0
    4.9721   -2.4273    0.0000 H   0  0  0  0  0  0  0  0  0  0  0  0
    4.6723   -3.1658    0.0000 H   0  0  0  0  0  0  0  0  0  0  0  0
    5.9535    4.7998    0.0000 H   0  0  0  0  0  0  0  0  0  0  0  0
    6.2403    6.3942    0.0000 H   0  0  0  0  0  0  0  0  0  0  0  0
    2.6981    4.5273    0.0000 H   0  0  0  0  0  0  0  0  0  0  0  0
    5.0030    7.4398    0.0000 H   0  0  0  0  0  0  0  0  0  0  0  0
    3.2840    7.7842    0.0000 H   0  0  0  0  0  0  0  0  0  0  0  0
    4.0362   -4.3468    0.0000 H   0  0  0  0  0  0  0  0  0  0  0  0
    6.8155   -3.9611    0.0000 H   0  0  0  0  0  0  0  0  0  0  0  0
    1.4175    5.5926    0.0000 H   0  0  0  0  0  0  0  0  0  0  0  0
    1.7124    7.2320    0.0000 H   0  0  0  0  0  0  0  0  0  0  0  0
    7.0382   -5.5657    0.0000 H   0  0  0  0  0  0  0  0  0  0  0  0
    5.7599   -6.5609    0.0000 H   0  0  0  0  0  0  0  0  0  0  0  0
    3.4824   -7.2606    0.0000 H   0  0  0  0  0  0  0  0  0  0  0  0
    4.1817   -7.7895    0.0000 H   0  0  0  0  0  0  0  0  0  0  0  0
    4.7106   -7.0901    0.0000 H   0  0  0  0  0  0  0  0  0  0  0  0
  1 32  1  0  0  0  0
  2 15  1  0  0  0  0
  2 54  1  0  0  0  0
  3 17  1  0  0  0  0
  3 54  1  0  0  0  0
  4 23  2  0  0  0  0
  5 31  2  0  0  0  0
  6 50  1  0  0  0  0
  6 53  1  0  0  0  0
 21  7  1  6  0  0  0
  7 23  1  0  0  0  0
  7 74  1  0  0  0  0
  8 25  1  0  0  0  0
  8 29  1  0  0  0  0
  8 31  1  0  0  0  0
  9 32  1  0  0  0  0
  9 34  2  0  0  0  0
 10 34  1  0  0  0  0
 10 37  1  0  0  0  0
 10 88  1  0  0  0  0
 11 12  1  0  0  0  0
 11 14  1  0  0  0  0
 11 15  1  0  0  0  0
 11 55  1  0  0  0  0
 12 13  1  0  0  0  0
 12 18  1  0  0  0  0
 12 19  1  0  0  0  0
 13 14  1  0  0  0  0
 13 16  1  0  0  0  0
 13 56  1  0  0  0  0
 14 57  1  0  0  0  0
 14 58  1  0  0  0  0
 15 17  1  0  0  0  0
 15 20  1  6  0  0  0
 16 17  1  0  0  0  0
 16 59  1  0  0  0  0
 16 60  1  0  0  0  0
 17 61  1  0  0  0  0
 18 62  1  0  0  0  0
 18 63  1  0  0  0  0
 18 64  1  0  0  0  0
 19 65  1  0  0  0  0
 19 66  1  0  0  0  0
 19 67  1  0  0  0  0
 20 68  1  0  0  0  0
 20 69  1  0  0  0  0
 20 70  1  0  0  0  0
 21 22  1  0  0  0  0
 21 54  1  0  0  0  0
 21 71  1  0  0  0  0
 22 24  1  0  0  0  0
 22 72  1  0  0  0  0
 22 73  1  0  0  0  0
 25 23  1  1  0  0  0
 24 28  2  0  0  0  0
 24 75  1  0  0  0  0
 25 26  1  0  0  0  0
 25 76  1  0  0  0  0
 26 27  1  0  0  0  0
 26 77  1  0  0  0  0
 26 78  1  0  0  0  0
 27 29  1  0  0  0  0
 27 30  1  6  0  0  0
 27 79  1  0  0  0  0
 28 80  1  0  0  0  0
 28 81  1  0  0  0  0
 29 32  2  0  0  0  0
 30 33  1  0  0  0  0
 30 82  1  0  0  0  0
 30 83  1  0  0  0  0
 31 34  1  0  0  0  0
 33 35  1  0  0  0  0
 33 84  1  0  0  0  0
 33 85  1  0  0  0  0
 35 36  1  0  0  0  0
 35 86  1  0  0  0  0
 35 87  1  0  0  0  0
 36 38  1  0  0  0  0
 36 39  2  0  0  0  0
 37 40  1  0  0  0  0
 37 89  1  0  0  0  0
 37 90  1  0  0  0  0
 38 41  1  0  0  0  0
 38 43  2  0  0  0  0
 39 42  1  0  0  0  0
 39 91  1  0  0  0  0
 40 46  2  0  0  0  0
 40 47  1  0  0  0  0
 41 44  1  0  0  0  0
 41 45  2  0  0  0  0
 42 44  2  0  0  0  0
 42 92  1  0  0  0  0
 43 48  1  0  0  0  0
 43 93  1  0  0  0  0
 44 94  1  0  0  0  0
 45 49  1  0  0  0  0
 45 95  1  0  0  0  0
 46 50  1  0  0  0  0
 46 96  1  0  0  0  0
 47 51  2  0  0  0  0
 47 97  1  0  0  0  0
 48 49  2  0  0  0  0
 48 98  1  0  0  0  0
 49 99  1  0  0  0  0
 50 52  2  0  0  0  0
 51 52  1  0  0  0  0
 51100  1  0  0  0  0
 52101  1  0  0  0  0
 53102  1  0  0  0  0
 53103  1  0  0  0  0
 53104  1  0  0  0  0
M  END
> <PUBCHEM_COMPOUND_CID>
504224
> <PUBCHEM_COMPOUND_CANONICALIZED>
1
> <PUBCHEM_CACTVS_COMPLEXITY>
1510
> <PUBCHEM_CACTVS_HBOND_ACCEPTOR>
6
> <PUBCHEM_CACTVS_HBOND_DONOR>
2
> <PUBCHEM_CACTVS_ROTATABLE_BOND>
13
> <PUBCHEM_CACTVS_SUBSKEYS>
AAADcfJ/uAAEAAAAAAAAAAAAAABgAWJAAAAwYMGDAAAAAEjBVAAoHgIQAAAAD37hmAYzBsPABACoAidydACCCAEgIAAJiIGODIgNZjKEuTuUMChk1hGIqAe4yfCPgAADAAAQAADAAAYAADCAAAAAAAAAAA==
> <PUBCHEM_IUPAC_OPENEYE_NAME>
(6S,8R)-1-chloro-3-[(3-methoxyphenyl)methylamino]-8-[3-(1-naphthyl)propyl]-4-oxo-N-[(1R)-1-[(2R)-2,9,9-trimethyl-3,5-dioxa-4-boratricyclo[6.1.1.02,6]decan-4-yl]but-3-enyl]-7,8-dihydro-6H-pyrrolo[1,2-a]pyrazine-6-carboxamide
> <PUBCHEM_IUPAC_CAS_NAME>
(6S,8R)-1-chloro-3-[(3-methoxyphenyl)methylamino]-8-[3-(1-naphthalenyl)propyl]-4-oxo-N-[(1R)-1-[(2R)-2,9,9-trimethyl-3,5-dioxa-4-boratricyclo[6.1.1.02,6]decan-4-yl]but-3-enyl]-7,8-dihydro-6H-pyrrolo[1,2-a]pyrazine-6-carboxamide
> <PUBCHEM_IUPAC_NAME_MARKUP>
(6<I>S</I>,8<I>R</I>)-1-chloro-3-[(3-methoxyphenyl)methylamino]-8-(3-naphthalen-1-ylpropyl)-4-oxo-<I>N</I>-[(1<I>R</I>)-1-[(2<I>R</I>)-2,9,9-trimethyl-3,5-dioxa-4-boratricyclo[6.1.1.0<SUP>2,6</SUP>]decan-4-yl]but-3-enyl]-7,8-dihydro-6<I>H</I>-pyrrolo[1,2-a]pyrazine-6-carboxamide
> <PUBCHEM_IUPAC_NAME>
(6S,8R)-1-chloro-3-[(3-methoxyphenyl)methylamino]-8-(3-naphthalen-1-ylpropyl)-4-oxo-N-[(1R)-1-[(2R)-2,9,9-trimethyl-3,5-dioxa-4-boratricyclo[6.1.1.02,6]decan-4-yl]but-3-enyl]-7,8-dihydro-6H-pyrrolo[1,2-a]pyrazine-6-carboxamide
> <PUBCHEM_IUPAC_SYSTEMATIC_NAME>
(6S,8R)-1-chloranyl-3-[(3-methoxyphenyl)methylamino]-8-(3-naphthalen-1-ylpropyl)-4-oxidanylidene-N-[(1R)-1-[(2R)-2,9,9-trimethyl-3,5-dioxa-4-boratricyclo[6.1.1.02,6]decan-4-yl]but-3-enyl]-7,8-dihydro-6H-pyrrolo[1,2-a]pyrazine-6-carboxamide
> <PUBCHEM_IUPAC_TRADITIONAL_NAME>
(6S,8R)-1-chloro-4-keto-3-(m-anisylamino)-8-[3-(1-naphthyl)propyl]-N-[(1R)-1-[(2R)-2,9,9-trimethyl-3,5-dioxa-4-boratricyclo[6.1.1.02,6]decan-4-yl]but-3-enyl]-7,8-dihydro-6H-pyrrolo[1,2-a]pyrazine-6-carboxamide
> <PUBCHEM_IUPAC_INCHI>
InChI=1S/C43H50BClN4O5/c1-6-12-36(44-53-35-24-30-23-34(42(30,2)3)43(35,4)54-44)47-40(50)33-22-29(18-11-17-28-16-10-15-27-14-7-8-20-32(27)28)37-38(45)48-39(41(51)49(33)37)46-25-26-13-9-19-31(21-26)52-5/h6-10,13-16,19-21,29-30,33-36H,1,11-12,17-18,22-25H2,2-5H3,(H,46,48)(H,47,50)/t29-,30?,33+,34?,35?,36+,43-/m1/s1
> <PUBCHEM_IUPAC_INCHIKEY>
WVBPRLURAGXADI-ZJEWCNDUSA-N
> <PUBCHEM_EXACT_MASS>
748.3562786
> <PUBCHEM_MOLECULAR_FORMULA>
C43H50BClN4O5
> <PUBCHEM_MOLECULAR_WEIGHT>
749.1
> <PUBCHEM_OPENEYE_CAN_SMILES>
B1(OC2CC3CC(C3(C)C)C2(O1)C)C(CC=C)NC(=O)C4CC(C5=C(N=C(C(=O)N45)NCC6=CC(=CC=C6)OC)Cl)CCCC7=CC=CC8=CC=CC=C87
> <PUBCHEM_OPENEYE_ISO_SMILES>
B1(OC2CC3CC([C@]2(O1)C)C3(C)C)[C@H](CC=C)NC(=O)[C@@H]4C[C@H](C5=C(N=C(C(=O)N45)NCC6=CC(=CC=C6)OC)Cl)CCCC7=CC=CC8=CC=CC=C87
> <PUBCHEM_CACTVS_TPSA>
102
> <PUBCHEM_MONOISOTOPIC_WEIGHT>
748.3562786
> <PUBCHEM_TOTAL_CHARGE>
0
> <PUBCHEM_HEAVY_ATOM_COUNT>
54
> <PUBCHEM_ATOM_DEF_STEREO_COUNT>
4
> <PUBCHEM_ATOM_UDEF_STEREO_COUNT>
3
> <PUBCHEM_BOND_DEF_STEREO_COUNT>
0
> <PUBCHEM_BOND_UDEF_STEREO_COUNT>
0
> <PUBCHEM_ISOTOPIC_ATOM_COUNT>
0
> <PUBCHEM_COMPONENT_COUNT>
1
> <PUBCHEM_CACTVS_TAUTO_COUNT>
-1
> <PUBCHEM_COORDINATE_TYPE>
1
5
255
> <PUBCHEM_BONDANNOTATIONS>
11  14  3
13  14  3
15  20  6
17  16  3
25  23  5
27  30  6
29  32  8
31  34  8
36  38  8
36  39  8
38  41  8
38  43  8
39  42  8
40  46  8
40  47  8
41  44  8
41  45  8
42  44  8
43  48  8
45  49  8
46  50  8
47  51  8
48  49  8
50  52  8
51  52  8
21  7  6
8  29  8
8  31  8
9  32  8
9  34  8
$$$$
