504225
  -OEChem-10302200282D
 99106  0     1  0  0  0  0  0999 V2000
    3.9234   -0.2418    0.0000 Cl  0  0  0  0  0  0  0  0  0  0  0  0
   11.3108    1.9345    0.0000 O   0  0  0  0  0  0  0  0  0  0  0  0
    9.9765    2.8345    0.0000 O   0  0  0  0  0  0  0  0  0  0  0  0
    8.6398   -0.5864    0.0000 O   0  0  0  0  0  0  0  0  0  0  0  0
    7.6295   -1.7466    0.0000 O   0  0  0  0  0  0  0  0  0  0  0  0
    8.7606    1.1414    0.0000 N   0  0  0  0  0  0  0  0  0  0  0  0
    6.5655   -0.3799    0.0000 N   0  0  0  0  0  0  0  0  0  0  0  0
    4.9873   -1.6085    0.0000 N   0  0  0  0  0  0  0  0  0  0  0  0
    6.0513   -2.9752    0.0000 N   0  0  0  0  0  0  0  0  0  0  0  0
    6.3262   -4.9562    0.0000 N   0  0  0  0  0  0  0  0  0  0  0  0
   12.8083    3.7551    0.0000 C   0  0  3  0  0  0  0  0  0  0  0  0
   14.2073    3.7639    0.0000 C   0  0  0  0  0  0  0  0  0  0  0  0
   13.0672    4.7210    0.0000 C   0  0  3  0  0  0  0  0  0  0  0  0
   12.3305    5.7036    0.0000 C   0  0  0  0  0  0  0  0  0  0  0  0
   11.5873    2.8894    0.0000 C   0  0  2  0  0  0  0  0  0  0  0  0
   11.0339    4.4098    0.0000 C   0  0  0  0  0  0  0  0  0  0  0  0
   10.7583    3.4486    0.0000 C   0  0  3  0  0  0  0  0  0  0  0  0
   15.0733    4.2639    0.0000 C   0  0  0  0  0  0  0  0  0  0  0  0
   14.7073    2.8978    0.0000 C   0  0  0  0  0  0  0  0  0  0  0  0
   12.4164    2.3302    0.0000 C   0  0  0  0  0  0  0  0  0  0  0  0
    9.7581    1.0717    0.0000 C   0  0  1  0  0  0  0  0  0  0  0  0
   10.1965    0.1729    0.0000 C   0  0  0  0  0  0  0  0  0  0  0  0
    8.2014    0.3124    0.0000 C   0  0  0  0  0  0  0  0  0  0  0  0
    9.6373   -0.6562    0.0000 C   0  0  0  0  0  0  0  0  0  0  0  0
    7.2038    0.3821    0.0000 C   0  0  2  0  0  0  0  0  0  0  0  0
    6.6778    1.2256    0.0000 C   0  0  0  0  0  0  0  0  0  0  0  0
    5.7126    0.9876    0.0000 C   0  0  2  0  0  0  0  0  0  0  0  0
   10.0757   -1.5550    0.0000 C   0  0  0  0  0  0  0  0  0  0  0  0
    5.6390   -0.0037    0.0000 C   0  0  0  0  0  0  0  0  0  0  0  0
    4.9488    1.6331    0.0000 C   0  0  0  0  0  0  0  0  0  0  0  0
    6.7030   -1.3704    0.0000 C   0  0  0  0  0  0  0  0  0  0  0  0
    4.8499   -0.6180    0.0000 C   0  0  0  0  0  0  0  0  0  0  0  0
    5.1258    2.6173    0.0000 C   0  0  0  0  0  0  0  0  0  0  0  0
    5.9139   -1.9847    0.0000 C   0  0  0  0  0  0  0  0  0  0  0  0
    4.3620    3.2627    0.0000 C   0  0  0  0  0  0  0  0  0  0  0  0
    4.5391    4.2469    0.0000 C   0  0  0  0  0  0  0  0  0  0  0  0
    5.2623   -3.5895    0.0000 C   0  0  0  0  0  0  0  0  0  0  0  0
    3.7753    4.8924    0.0000 C   0  0  0  0  0  0  0  0  0  0  0  0
    5.4799    4.5857    0.0000 C   0  0  0  0  0  0  0  0  0  0  0  0
    3.9523    5.8766    0.0000 C   0  0  0  0  0  0  0  0  0  0  0  0
    5.3997   -4.5800    0.0000 C   0  0  0  0  0  0  0  0  0  0  0  0
    5.6570    5.5699    0.0000 C   0  0  0  0  0  0  0  0  0  0  0  0
    2.8008    4.5244    0.0000 C   0  0  0  0  0  0  0  0  0  0  0  0
    4.8932    6.2153    0.0000 C   0  0  0  0  0  0  0  0  0  0  0  0
    3.1672    6.5610    0.0000 C   0  0  0  0  0  0  0  0  0  0  0  0
    2.0000    5.1906    0.0000 C   0  0  0  0  0  0  0  0  0  0  0  0
    4.6106   -5.1943    0.0000 C   0  0  0  0  0  0  0  0  0  0  0  0
    2.1844    6.2157    0.0000 C   0  0  0  0  0  0  0  0  0  0  0  0
    4.7481   -6.1848    0.0000 C   0  0  0  0  0  0  0  0  0  0  0  0
    6.4637   -5.9468    0.0000 C   0  0  0  0  0  0  0  0  0  0  0  0
    5.6746   -6.5610    0.0000 C   0  0  0  0  0  0  0  0  0  0  0  0
   10.3173    1.9007    0.0000 B   0  0  0  0  0  0  0  0  0  0  0  0
   12.9984    3.1649    0.0000 H   0  0  0  0  0  0  0  0  0  0  0  0
   13.5175    5.1472    0.0000 H   0  0  0  0  0  0  0  0  0  0  0  0
   12.6483    6.2360    0.0000 H   0  0  0  0  0  0  0  0  0  0  0  0
   11.7174    5.7956    0.0000 H   0  0  0  0  0  0  0  0  0  0  0  0
   11.0289    5.0298    0.0000 H   0  0  0  0  0  0  0  0  0  0  0  0
   10.4196    4.4936    0.0000 H   0  0  0  0  0  0  0  0  0  0  0  0
   10.2438    3.7946    0.0000 H   0  0  0  0  0  0  0  0  0  0  0  0
   15.3833    3.7269    0.0000 H   0  0  0  0  0  0  0  0  0  0  0  0
   15.6102    4.5739    0.0000 H   0  0  0  0  0  0  0  0  0  0  0  0
   14.7633    4.8008    0.0000 H   0  0  0  0  0  0  0  0  0  0  0  0
   14.1703    2.5878    0.0000 H   0  0  0  0  0  0  0  0  0  0  0  0
   15.0173    2.3609    0.0000 H   0  0  0  0  0  0  0  0  0  0  0  0
   15.2442    3.2078    0.0000 H   0  0  0  0  0  0  0  0  0  0  0  0
   12.0697    1.8162    0.0000 H   0  0  0  0  0  0  0  0  0  0  0  0
   12.9304    1.9835    0.0000 H   0  0  0  0  0  0  0  0  0  0  0  0
   12.7631    2.8442    0.0000 H   0  0  0  0  0  0  0  0  0  0  0  0
    9.4864    1.6289    0.0000 H   0  0  0  0  0  0  0  0  0  0  0  0
   10.6425   -0.2578    0.0000 H   0  0  0  0  0  0  0  0  0  0  0  0
   10.6981    0.5373    0.0000 H   0  0  0  0  0  0  0  0  0  0  0  0
    8.4888    1.6987    0.0000 H   0  0  0  0  0  0  0  0  0  0  0  0
    9.0188   -0.6129    0.0000 H   0  0  0  0  0  0  0  0  0  0  0  0
    7.4463   -0.1885    0.0000 H   0  0  0  0  0  0  0  0  0  0  0  0
    7.2354    1.4966    0.0000 H   0  0  0  0  0  0  0  0  0  0  0  0
    6.4669    1.8087    0.0000 H   0  0  0  0  0  0  0  0  0  0  0  0
    5.1409    0.7476    0.0000 H   0  0  0  0  0  0  0  0  0  0  0  0
    9.7290   -2.0690    0.0000 H   0  0  0  0  0  0  0  0  0  0  0  0
   10.6942   -1.5982    0.0000 H   0  0  0  0  0  0  0  0  0  0  0  0
    4.3669    1.8472    0.0000 H   0  0  0  0  0  0  0  0  0  0  0  0
    4.6369    1.0972    0.0000 H   0  0  0  0  0  0  0  0  0  0  0  0
    5.7077    2.4032    0.0000 H   0  0  0  0  0  0  0  0  0  0  0  0
    5.4377    3.1531    0.0000 H   0  0  0  0  0  0  0  0  0  0  0  0
    3.7801    3.4768    0.0000 H   0  0  0  0  0  0  0  0  0  0  0  0
    4.0502    2.7269    0.0000 H   0  0  0  0  0  0  0  0  0  0  0  0
    6.6258   -3.2085    0.0000 H   0  0  0  0  0  0  0  0  0  0  0  0
    4.9721   -3.0416    0.0000 H   0  0  0  0  0  0  0  0  0  0  0  0
    4.6723   -3.7801    0.0000 H   0  0  0  0  0  0  0  0  0  0  0  0
    5.9535    4.1855    0.0000 H   0  0  0  0  0  0  0  0  0  0  0  0
    6.2403    5.7799    0.0000 H   0  0  0  0  0  0  0  0  0  0  0  0
    2.6981    3.9130    0.0000 H   0  0  0  0  0  0  0  0  0  0  0  0
    5.0030    6.8255    0.0000 H   0  0  0  0  0  0  0  0  0  0  0  0
    3.2840    7.1699    0.0000 H   0  0  0  0  0  0  0  0  0  0  0  0
    1.4175    4.9783    0.0000 H   0  0  0  0  0  0  0  0  0  0  0  0
    4.0362   -4.9611    0.0000 H   0  0  0  0  0  0  0  0  0  0  0  0
    1.7124    6.6177    0.0000 H   0  0  0  0  0  0  0  0  0  0  0  0
    4.2589   -6.5657    0.0000 H   0  0  0  0  0  0  0  0  0  0  0  0
    7.0382   -6.1800    0.0000 H   0  0  0  0  0  0  0  0  0  0  0  0
    5.7599   -7.1752    0.0000 H   0  0  0  0  0  0  0  0  0  0  0  0
  1 32  1  0  0  0  0
  2 15  1  0  0  0  0
  2 52  1  0  0  0  0
  3 17  1  0  0  0  0
  3 52  1  0  0  0  0
  4 23  2  0  0  0  0
  5 31  2  0  0  0  0
 21  6  1  6  0  0  0
  6 23  1  0  0  0  0
  6 72  1  0  0  0  0
  7 25  1  0  0  0  0
  7 29  1  0  0  0  0
  7 31  1  0  0  0  0
  8 32  1  0  0  0  0
  8 34  2  0  0  0  0
  9 34  1  0  0  0  0
  9 37  1  0  0  0  0
  9 86  1  0  0  0  0
 10 41  1  0  0  0  0
 10 50  2  0  0  0  0
 11 12  1  0  0  0  0
 11 14  1  0  0  0  0
 11 15  1  0  0  0  0
 11 53  1  0  0  0  0
 12 13  1  0  0  0  0
 12 18  1  0  0  0  0
 12 19  1  0  0  0  0
 13 14  1  0  0  0  0
 13 16  1  0  0  0  0
 13 54  1  0  0  0  0
 14 55  1  0  0  0  0
 14 56  1  0  0  0  0
 15 17  1  0  0  0  0
 15 20  1  6  0  0  0
 16 17  1  0  0  0  0
 16 57  1  0  0  0  0
 16 58  1  0  0  0  0
 17 59  1  0  0  0  0
 18 60  1  0  0  0  0
 18 61  1  0  0  0  0
 18 62  1  0  0  0  0
 19 63  1  0  0  0  0
 19 64  1  0  0  0  0
 19 65  1  0  0  0  0
 20 66  1  0  0  0  0
 20 67  1  0  0  0  0
 20 68  1  0  0  0  0
 21 22  1  0  0  0  0
 21 52  1  0  0  0  0
 21 69  1  0  0  0  0
 22 24  1  0  0  0  0
 22 70  1  0  0  0  0
 22 71  1  0  0  0  0
 25 23  1  1  0  0  0
 24 28  2  0  0  0  0
 24 73  1  0  0  0  0
 25 26  1  0  0  0  0
 25 74  1  0  0  0  0
 26 27  1  0  0  0  0
 26 75  1  0  0  0  0
 26 76  1  0  0  0  0
 27 29  1  0  0  0  0
 27 30  1  6  0  0  0
 27 77  1  0  0  0  0
 28 78  1  0  0  0  0
 28 79  1  0  0  0  0
 29 32  2  0  0  0  0
 30 33  1  0  0  0  0
 30 80  1  0  0  0  0
 30 81  1  0  0  0  0
 31 34  1  0  0  0  0
 33 35  1  0  0  0  0
 33 82  1  0  0  0  0
 33 83  1  0  0  0  0
 35 36  1  0  0  0  0
 35 84  1  0  0  0  0
 35 85  1  0  0  0  0
 36 38  1  0  0  0  0
 36 39  2  0  0  0  0
 37 41  1  0  0  0  0
 37 87  1  0  0  0  0
 37 88  1  0  0  0  0
 38 40  1  0  0  0  0
 38 43  2  0  0  0  0
 39 42  1  0  0  0  0
 39 89  1  0  0  0  0
 40 44  1  0  0  0  0
 40 45  2  0  0  0  0
 41 47  2  0  0  0  0
 42 44  2  0  0  0  0
 42 90  1  0  0  0  0
 43 46  1  0  0  0  0
 43 91  1  0  0  0  0
 44 92  1  0  0  0  0
 45 48  1  0  0  0  0
 45 93  1  0  0  0  0
 46 48  2  0  0  0  0
 46 94  1  0  0  0  0
 47 49  1  0  0  0  0
 47 95  1  0  0  0  0
 48 96  1  0  0  0  0
 49 51  2  0  0  0  0
 49 97  1  0  0  0  0
 50 51  1  0  0  0  0
 50 98  1  0  0  0  0
 51 99  1  0  0  0  0
M  END
> <PUBCHEM_COMPOUND_CID>
504225
> <PUBCHEM_COMPOUND_CANONICALIZED>
1
> <PUBCHEM_CACTVS_COMPLEXITY>
1460
> <PUBCHEM_CACTVS_HBOND_ACCEPTOR>
6
> <PUBCHEM_CACTVS_HBOND_DONOR>
2
> <PUBCHEM_CACTVS_ROTATABLE_BOND>
12
> <PUBCHEM_CACTVS_SUBSKEYS>
AAADcfJ/uAAEAAAAAAAAAAAAAABgAWJAAAA8YMGCAAAAAEjB1AAoHgIQAAAAD37hngY/gNPIEACoAzd3dACCgCExAiAJ2KG4ZJgJYPLAmbGUIAhklgDIyAeYyfCPgAACAAAQAADAAAYAADCAAAAAAAAAAA==
> <PUBCHEM_IUPAC_OPENEYE_NAME>
(6S,8R)-1-chloro-8-[3-(1-naphthyl)propyl]-4-oxo-3-(2-pyridylmethylamino)-N-[(1R)-1-[(2R)-2,9,9-trimethyl-3,5-dioxa-4-boratricyclo[6.1.1.02,6]decan-4-yl]but-3-enyl]-7,8-dihydro-6H-pyrrolo[1,2-a]pyrazine-6-carboxamide
> <PUBCHEM_IUPAC_CAS_NAME>
(6S,8R)-1-chloro-8-[3-(1-naphthalenyl)propyl]-4-oxo-3-(2-pyridinylmethylamino)-N-[(1R)-1-[(2R)-2,9,9-trimethyl-3,5-dioxa-4-boratricyclo[6.1.1.02,6]decan-4-yl]but-3-enyl]-7,8-dihydro-6H-pyrrolo[1,2-a]pyrazine-6-carboxamide
> <PUBCHEM_IUPAC_NAME_MARKUP>
(6<I>S</I>,8<I>R</I>)-1-chloro-8-(3-naphthalen-1-ylpropyl)-4-oxo-3-(pyridin-2-ylmethylamino)-<I>N</I>-[(1<I>R</I>)-1-[(2<I>R</I>)-2,9,9-trimethyl-3,5-dioxa-4-boratricyclo[6.1.1.0<SUP>2,6</SUP>]decan-4-yl]but-3-enyl]-7,8-dihydro-6<I>H</I>-pyrrolo[1,2-a]pyrazine-6-carboxamide
> <PUBCHEM_IUPAC_NAME>
(6S,8R)-1-chloro-8-(3-naphthalen-1-ylpropyl)-4-oxo-3-(pyridin-2-ylmethylamino)-N-[(1R)-1-[(2R)-2,9,9-trimethyl-3,5-dioxa-4-boratricyclo[6.1.1.02,6]decan-4-yl]but-3-enyl]-7,8-dihydro-6H-pyrrolo[1,2-a]pyrazine-6-carboxamide
> <PUBCHEM_IUPAC_SYSTEMATIC_NAME>
(6S,8R)-1-chloranyl-8-(3-naphthalen-1-ylpropyl)-4-oxidanylidene-3-(pyridin-2-ylmethylamino)-N-[(1R)-1-[(2R)-2,9,9-trimethyl-3,5-dioxa-4-boratricyclo[6.1.1.02,6]decan-4-yl]but-3-enyl]-7,8-dihydro-6H-pyrrolo[1,2-a]pyrazine-6-carboxamide
> <PUBCHEM_IUPAC_TRADITIONAL_NAME>
(6S,8R)-1-chloro-4-keto-8-[3-(1-naphthyl)propyl]-3-(2-pyridylmethylamino)-N-[(1R)-1-[(2R)-2,9,9-trimethyl-3,5-dioxa-4-boratricyclo[6.1.1.02,6]decan-4-yl]but-3-enyl]-7,8-dihydro-6H-pyrrolo[1,2-a]pyrazine-6-carboxamide
> <PUBCHEM_IUPAC_INCHI>
InChI=1S/C41H47BClN5O4/c1-5-12-34(42-51-33-23-28-22-32(40(28,2)3)41(33,4)52-42)46-38(49)31-21-27(17-11-16-26-15-10-14-25-13-6-7-19-30(25)26)35-36(43)47-37(39(50)48(31)35)45-24-29-18-8-9-20-44-29/h5-10,13-15,18-20,27-28,31-34H,1,11-12,16-17,21-24H2,2-4H3,(H,45,47)(H,46,49)/t27-,28?,31+,32?,33?,34+,41-/m1/s1
> <PUBCHEM_IUPAC_INCHIKEY>
XWHKMAVCUKEPIB-AVPVQDMFSA-N
> <PUBCHEM_EXACT_MASS>
719.3409629
> <PUBCHEM_MOLECULAR_FORMULA>
C41H47BClN5O4
> <PUBCHEM_MOLECULAR_WEIGHT>
720.1
> <PUBCHEM_OPENEYE_CAN_SMILES>
B1(OC2CC3CC(C3(C)C)C2(O1)C)C(CC=C)NC(=O)C4CC(C5=C(N=C(C(=O)N45)NCC6=CC=CC=N6)Cl)CCCC7=CC=CC8=CC=CC=C87
> <PUBCHEM_OPENEYE_ISO_SMILES>
B1(OC2CC3CC([C@]2(O1)C)C3(C)C)[C@H](CC=C)NC(=O)[C@@H]4C[C@H](C5=C(N=C(C(=O)N45)NCC6=CC=CC=N6)Cl)CCCC7=CC=CC8=CC=CC=C87
> <PUBCHEM_CACTVS_TPSA>
105
> <PUBCHEM_MONOISOTOPIC_WEIGHT>
719.3409629
> <PUBCHEM_TOTAL_CHARGE>
0
> <PUBCHEM_HEAVY_ATOM_COUNT>
52
> <PUBCHEM_ATOM_DEF_STEREO_COUNT>
4
> <PUBCHEM_ATOM_UDEF_STEREO_COUNT>
3
> <PUBCHEM_BOND_DEF_STEREO_COUNT>
0
> <PUBCHEM_BOND_UDEF_STEREO_COUNT>
0
> <PUBCHEM_ISOTOPIC_ATOM_COUNT>
0
> <PUBCHEM_COMPONENT_COUNT>
1
> <PUBCHEM_CACTVS_TAUTO_COUNT>
-1
> <PUBCHEM_COORDINATE_TYPE>
1
5
255
> <PUBCHEM_BONDANNOTATIONS>
10  41  8
10  50  8
11  14  3
13  14  3
15  20  6
17  16  3
25  23  5
27  30  6
29  32  8
31  34  8
36  38  8
36  39  8
38  40  8
38  43  8
39  42  8
40  44  8
40  45  8
41  47  8
42  44  8
43  46  8
45  48  8
46  48  8
47  49  8
49  51  8
50  51  8
21  6  6
7  29  8
7  31  8
8  32  8
8  34  8
$$$$
