504210
  -OEChem-10302200282D
 97103  0     1  0  0  0  0  0999 V2000
    2.1481    0.2753    0.0000 Cl  0  0  0  0  0  0  0  0  0  0  0  0
    6.5415   -6.1821    0.0000 F   0  0  0  0  0  0  0  0  0  0  0  0
    5.2388   -6.7324    0.0000 F   0  0  0  0  0  0  0  0  0  0  0  0
    5.9912   -4.8793    0.0000 F   0  0  0  0  0  0  0  0  0  0  0  0
    9.5356    2.4516    0.0000 O   0  0  0  0  0  0  0  0  0  0  0  0
    8.2013    3.3516    0.0000 O   0  0  0  0  0  0  0  0  0  0  0  0
    6.8645   -0.0693    0.0000 O   0  0  0  0  0  0  0  0  0  0  0  0
    5.8542   -1.2295    0.0000 O   0  0  0  0  0  0  0  0  0  0  0  0
    6.9853    1.6585    0.0000 N   0  0  0  0  0  0  0  0  0  0  0  0
    4.7902    0.1372    0.0000 N   0  0  0  0  0  0  0  0  0  0  0  0
    3.2121   -1.0914    0.0000 N   0  0  0  0  0  0  0  0  0  0  0  0
    4.2761   -2.4581    0.0000 N   0  0  0  0  0  0  0  0  0  0  0  0
   11.0331    4.2722    0.0000 C   0  0  3  0  0  0  0  0  0  0  0  0
   12.4320    4.2810    0.0000 C   0  0  0  0  0  0  0  0  0  0  0  0
   11.2919    5.2381    0.0000 C   0  0  3  0  0  0  0  0  0  0  0  0
    9.8121    3.4065    0.0000 C   0  0  2  0  0  0  0  0  0  0  0  0
   10.5553    6.2207    0.0000 C   0  0  0  0  0  0  0  0  0  0  0  0
    9.2587    4.9269    0.0000 C   0  0  0  0  0  0  0  0  0  0  0  0
    8.9830    3.9657    0.0000 C   0  0  3  0  0  0  0  0  0  0  0  0
   13.2980    4.7810    0.0000 C   0  0  0  0  0  0  0  0  0  0  0  0
   12.9320    3.4149    0.0000 C   0  0  0  0  0  0  0  0  0  0  0  0
   10.6411    2.8473    0.0000 C   0  0  0  0  0  0  0  0  0  0  0  0
    7.9829    1.5888    0.0000 C   0  0  1  0  0  0  0  0  0  0  0  0
    8.4212    0.6900    0.0000 C   0  0  0  0  0  0  0  0  0  0  0  0
    6.4261    0.8295    0.0000 C   0  0  0  0  0  0  0  0  0  0  0  0
    7.8621   -0.1391    0.0000 C   0  0  0  0  0  0  0  0  0  0  0  0
    5.4286    0.8992    0.0000 C   0  0  2  0  0  0  0  0  0  0  0  0
    4.9025    1.7427    0.0000 C   0  0  0  0  0  0  0  0  0  0  0  0
    3.9373    1.5047    0.0000 C   0  0  2  0  0  0  0  0  0  0  0  0
    8.3004   -1.0379    0.0000 C   0  0  0  0  0  0  0  0  0  0  0  0
    3.8637    0.5134    0.0000 C   0  0  0  0  0  0  0  0  0  0  0  0
    3.1735    2.1502    0.0000 C   0  0  0  0  0  0  0  0  0  0  0  0
    4.9277   -0.8533    0.0000 C   0  0  0  0  0  0  0  0  0  0  0  0
    3.0746   -0.1009    0.0000 C   0  0  0  0  0  0  0  0  0  0  0  0
    3.3506    3.1344    0.0000 C   0  0  0  0  0  0  0  0  0  0  0  0
    4.1386   -1.4676    0.0000 C   0  0  0  0  0  0  0  0  0  0  0  0
    2.5868    3.7798    0.0000 C   0  0  0  0  0  0  0  0  0  0  0  0
    2.7638    4.7640    0.0000 C   0  0  0  0  0  0  0  0  0  0  0  0
    3.4870   -3.0724    0.0000 C   0  0  0  0  0  0  0  0  0  0  0  0
    3.7047    5.1028    0.0000 C   0  0  0  0  0  0  0  0  0  0  0  0
    2.0000    5.4094    0.0000 C   0  0  0  0  0  0  0  0  0  0  0  0
    3.6245   -4.0629    0.0000 C   0  0  0  0  0  0  0  0  0  0  0  0
    3.8817    6.0870    0.0000 C   0  0  0  0  0  0  0  0  0  0  0  0
    2.1771    6.3936    0.0000 C   0  0  0  0  0  0  0  0  0  0  0  0
    3.1179    6.7324    0.0000 C   0  0  0  0  0  0  0  0  0  0  0  0
    4.5510   -4.4392    0.0000 C   0  0  0  0  0  0  0  0  0  0  0  0
    2.8354   -4.6772    0.0000 C   0  0  0  0  0  0  0  0  0  0  0  0
    4.6885   -5.4297    0.0000 C   0  0  0  0  0  0  0  0  0  0  0  0
    2.9729   -5.6678    0.0000 C   0  0  0  0  0  0  0  0  0  0  0  0
    3.8994   -6.0440    0.0000 C   0  0  0  0  0  0  0  0  0  0  0  0
    5.6150   -5.8059    0.0000 C   0  0  0  0  0  0  0  0  0  0  0  0
    8.5421    2.4178    0.0000 B   0  0  0  0  0  0  0  0  0  0  0  0
   11.2231    3.6820    0.0000 H   0  0  0  0  0  0  0  0  0  0  0  0
   11.7422    5.6642    0.0000 H   0  0  0  0  0  0  0  0  0  0  0  0
   10.8731    6.7530    0.0000 H   0  0  0  0  0  0  0  0  0  0  0  0
    9.9422    6.3126    0.0000 H   0  0  0  0  0  0  0  0  0  0  0  0
    9.2536    5.5469    0.0000 H   0  0  0  0  0  0  0  0  0  0  0  0
    8.6444    5.0107    0.0000 H   0  0  0  0  0  0  0  0  0  0  0  0
    8.4686    4.3117    0.0000 H   0  0  0  0  0  0  0  0  0  0  0  0
   13.6080    4.2440    0.0000 H   0  0  0  0  0  0  0  0  0  0  0  0
   13.8350    5.0910    0.0000 H   0  0  0  0  0  0  0  0  0  0  0  0
   12.9880    5.3179    0.0000 H   0  0  0  0  0  0  0  0  0  0  0  0
   12.3951    3.1049    0.0000 H   0  0  0  0  0  0  0  0  0  0  0  0
   13.2420    2.8780    0.0000 H   0  0  0  0  0  0  0  0  0  0  0  0
   13.4690    3.7249    0.0000 H   0  0  0  0  0  0  0  0  0  0  0  0
   10.2944    2.3333    0.0000 H   0  0  0  0  0  0  0  0  0  0  0  0
   11.1551    2.5006    0.0000 H   0  0  0  0  0  0  0  0  0  0  0  0
   10.9878    3.3613    0.0000 H   0  0  0  0  0  0  0  0  0  0  0  0
    7.7111    2.1460    0.0000 H   0  0  0  0  0  0  0  0  0  0  0  0
    8.8672    0.2593    0.0000 H   0  0  0  0  0  0  0  0  0  0  0  0
    8.9228    1.0544    0.0000 H   0  0  0  0  0  0  0  0  0  0  0  0
    6.7135    2.2158    0.0000 H   0  0  0  0  0  0  0  0  0  0  0  0
    7.2436   -0.0958    0.0000 H   0  0  0  0  0  0  0  0  0  0  0  0
    5.6711    0.3286    0.0000 H   0  0  0  0  0  0  0  0  0  0  0  0
    5.4601    2.0137    0.0000 H   0  0  0  0  0  0  0  0  0  0  0  0
    4.6916    2.3258    0.0000 H   0  0  0  0  0  0  0  0  0  0  0  0
    3.3657    1.2647    0.0000 H   0  0  0  0  0  0  0  0  0  0  0  0
    7.9537   -1.5519    0.0000 H   0  0  0  0  0  0  0  0  0  0  0  0
    8.9189   -1.0811    0.0000 H   0  0  0  0  0  0  0  0  0  0  0  0
    2.5916    2.3642    0.0000 H   0  0  0  0  0  0  0  0  0  0  0  0
    2.8617    1.6143    0.0000 H   0  0  0  0  0  0  0  0  0  0  0  0
    3.9324    2.9203    0.0000 H   0  0  0  0  0  0  0  0  0  0  0  0
    3.6624    3.6702    0.0000 H   0  0  0  0  0  0  0  0  0  0  0  0
    2.0049    3.9939    0.0000 H   0  0  0  0  0  0  0  0  0  0  0  0
    2.2749    3.2439    0.0000 H   0  0  0  0  0  0  0  0  0  0  0  0
    4.8505   -2.6914    0.0000 H   0  0  0  0  0  0  0  0  0  0  0  0
    3.1969   -2.5245    0.0000 H   0  0  0  0  0  0  0  0  0  0  0  0
    2.8970   -3.2630    0.0000 H   0  0  0  0  0  0  0  0  0  0  0  0
    4.1782    4.7026    0.0000 H   0  0  0  0  0  0  0  0  0  0  0  0
    1.4167    5.1994    0.0000 H   0  0  0  0  0  0  0  0  0  0  0  0
    4.4651    6.2970    0.0000 H   0  0  0  0  0  0  0  0  0  0  0  0
    1.7035    6.7938    0.0000 H   0  0  0  0  0  0  0  0  0  0  0  0
    3.2277    7.3426    0.0000 H   0  0  0  0  0  0  0  0  0  0  0  0
    5.0402   -4.0583    0.0000 H   0  0  0  0  0  0  0  0  0  0  0  0
    2.2609   -4.4440    0.0000 H   0  0  0  0  0  0  0  0  0  0  0  0
    2.4836   -6.0486    0.0000 H   0  0  0  0  0  0  0  0  0  0  0  0
    3.9846   -6.6581    0.0000 H   0  0  0  0  0  0  0  0  0  0  0  0
  1 34  1  0  0  0  0
  2 51  1  0  0  0  0
  3 51  1  0  0  0  0
  4 51  1  0  0  0  0
  5 16  1  0  0  0  0
  5 52  1  0  0  0  0
  6 19  1  0  0  0  0
  6 52  1  0  0  0  0
  7 25  2  0  0  0  0
  8 33  2  0  0  0  0
 23  9  1  6  0  0  0
  9 25  1  0  0  0  0
  9 72  1  0  0  0  0
 10 27  1  0  0  0  0
 10 31  1  0  0  0  0
 10 33  1  0  0  0  0
 11 34  1  0  0  0  0
 11 36  2  0  0  0  0
 12 36  1  0  0  0  0
 12 39  1  0  0  0  0
 12 86  1  0  0  0  0
 13 14  1  0  0  0  0
 13 16  1  0  0  0  0
 13 17  1  0  0  0  0
 13 53  1  0  0  0  0
 14 15  1  0  0  0  0
 14 20  1  0  0  0  0
 14 21  1  0  0  0  0
 15 17  1  0  0  0  0
 15 18  1  0  0  0  0
 15 54  1  0  0  0  0
 16 19  1  0  0  0  0
 16 22  1  6  0  0  0
 17 55  1  0  0  0  0
 17 56  1  0  0  0  0
 18 19  1  0  0  0  0
 18 57  1  0  0  0  0
 18 58  1  0  0  0  0
 19 59  1  0  0  0  0
 20 60  1  0  0  0  0
 20 61  1  0  0  0  0
 20 62  1  0  0  0  0
 21 63  1  0  0  0  0
 21 64  1  0  0  0  0
 21 65  1  0  0  0  0
 22 66  1  0  0  0  0
 22 67  1  0  0  0  0
 22 68  1  0  0  0  0
 23 24  1  0  0  0  0
 23 52  1  0  0  0  0
 23 69  1  0  0  0  0
 24 26  1  0  0  0  0
 24 70  1  0  0  0  0
 24 71  1  0  0  0  0
 27 25  1  1  0  0  0
 26 30  2  0  0  0  0
 26 73  1  0  0  0  0
 27 28  1  0  0  0  0
 27 74  1  0  0  0  0
 28 29  1  0  0  0  0
 28 75  1  0  0  0  0
 28 76  1  0  0  0  0
 29 31  1  0  0  0  0
 29 32  1  6  0  0  0
 29 77  1  0  0  0  0
 30 78  1  0  0  0  0
 30 79  1  0  0  0  0
 31 34  2  0  0  0  0
 32 35  1  0  0  0  0
 32 80  1  0  0  0  0
 32 81  1  0  0  0  0
 33 36  1  0  0  0  0
 35 37  1  0  0  0  0
 35 82  1  0  0  0  0
 35 83  1  0  0  0  0
 37 38  1  0  0  0  0
 37 84  1  0  0  0  0
 37 85  1  0  0  0  0
 38 40  2  0  0  0  0
 38 41  1  0  0  0  0
 39 42  1  0  0  0  0
 39 87  1  0  0  0  0
 39 88  1  0  0  0  0
 40 43  1  0  0  0  0
 40 89  1  0  0  0  0
 41 44  2  0  0  0  0
 41 90  1  0  0  0  0
 42 46  2  0  0  0  0
 42 47  1  0  0  0  0
 43 45  2  0  0  0  0
 43 91  1  0  0  0  0
 44 45  1  0  0  0  0
 44 92  1  0  0  0  0
 45 93  1  0  0  0  0
 46 48  1  0  0  0  0
 46 94  1  0  0  0  0
 47 49  2  0  0  0  0
 47 95  1  0  0  0  0
 48 50  2  0  0  0  0
 48 51  1  0  0  0  0
 49 50  1  0  0  0  0
 49 96  1  0  0  0  0
 50 97  1  0  0  0  0
M  END
> <PUBCHEM_COMPOUND_CID>
504210
> <PUBCHEM_COMPOUND_CANONICALIZED>
1
> <PUBCHEM_CACTVS_COMPLEXITY>
1450
> <PUBCHEM_CACTVS_HBOND_ACCEPTOR>
8
> <PUBCHEM_CACTVS_HBOND_DONOR>
2
> <PUBCHEM_CACTVS_ROTATABLE_BOND>
12
> <PUBCHEM_CACTVS_SUBSKEYS>
AAADcfJ/uYAEAAAAAAAAAAAAAABgAWJAAAAwYMGCAAAAAEgBQAAoHwIQAAAAD37hmBYzAIPAAACoAidydACCAAEgAAAJiIGIBIgJYDKAmTGUIAhklgCIiAeYyfCPgAACAAAAAADAAAYAADCAAAAAAAAAAA==
> <PUBCHEM_IUPAC_OPENEYE_NAME>
(6S,8R)-1-chloro-4-oxo-8-(3-phenylpropyl)-3-[[3-(trifluoromethyl)phenyl]methylamino]-N-[(1R)-1-[(2R)-2,9,9-trimethyl-3,5-dioxa-4-boratricyclo[6.1.1.02,6]decan-4-yl]but-3-enyl]-7,8-dihydro-6H-pyrrolo[1,2-a]pyrazine-6-carboxamide
> <PUBCHEM_IUPAC_CAS_NAME>
(6S,8R)-1-chloro-4-oxo-8-(3-phenylpropyl)-3-[[3-(trifluoromethyl)phenyl]methylamino]-N-[(1R)-1-[(2R)-2,9,9-trimethyl-3,5-dioxa-4-boratricyclo[6.1.1.02,6]decan-4-yl]but-3-enyl]-7,8-dihydro-6H-pyrrolo[1,2-a]pyrazine-6-carboxamide
> <PUBCHEM_IUPAC_NAME_MARKUP>
(6<I>S</I>,8<I>R</I>)-1-chloro-4-oxo-8-(3-phenylpropyl)-3-[[3-(trifluoromethyl)phenyl]methylamino]-<I>N</I>-[(1<I>R</I>)-1-[(2<I>R</I>)-2,9,9-trimethyl-3,5-dioxa-4-boratricyclo[6.1.1.0<SUP>2,6</SUP>]decan-4-yl]but-3-enyl]-7,8-dihydro-6<I>H</I>-pyrrolo[1,2-a]pyrazine-6-carboxamide
> <PUBCHEM_IUPAC_NAME>
(6S,8R)-1-chloro-4-oxo-8-(3-phenylpropyl)-3-[[3-(trifluoromethyl)phenyl]methylamino]-N-[(1R)-1-[(2R)-2,9,9-trimethyl-3,5-dioxa-4-boratricyclo[6.1.1.02,6]decan-4-yl]but-3-enyl]-7,8-dihydro-6H-pyrrolo[1,2-a]pyrazine-6-carboxamide
> <PUBCHEM_IUPAC_SYSTEMATIC_NAME>
(6S,8R)-1-chloranyl-4-oxidanylidene-8-(3-phenylpropyl)-3-[[3-(trifluoromethyl)phenyl]methylamino]-N-[(1R)-1-[(2R)-2,9,9-trimethyl-3,5-dioxa-4-boratricyclo[6.1.1.02,6]decan-4-yl]but-3-enyl]-7,8-dihydro-6H-pyrrolo[1,2-a]pyrazine-6-carboxamide
> <PUBCHEM_IUPAC_TRADITIONAL_NAME>
(6S,8R)-1-chloro-4-keto-8-(3-phenylpropyl)-3-[[3-(trifluoromethyl)benzyl]amino]-N-[(1R)-1-[(2R)-2,9,9-trimethyl-3,5-dioxa-4-boratricyclo[6.1.1.02,6]decan-4-yl]but-3-enyl]-7,8-dihydro-6H-pyrrolo[1,2-a]pyrazine-6-carboxamide
> <PUBCHEM_IUPAC_INCHI>
InChI=1S/C39H45BClF3N4O4/c1-5-11-31(40-51-30-21-27-20-29(37(27,2)3)38(30,4)52-40)46-35(49)28-19-25(16-9-14-23-12-7-6-8-13-23)32-33(41)47-34(36(50)48(28)32)45-22-24-15-10-17-26(18-24)39(42,43)44/h5-8,10,12-13,15,17-18,25,27-31H,1,9,11,14,16,19-22H2,2-4H3,(H,45,47)(H,46,49)/t25-,27?,28+,29?,30?,31+,38-/m1/s1
> <PUBCHEM_IUPAC_INCHIKEY>
HPUPFFLZTZWLJW-WTZVHNEXSA-N
> <PUBCHEM_EXACT_MASS>
736.3174483
> <PUBCHEM_MOLECULAR_FORMULA>
C39H45BClF3N4O4
> <PUBCHEM_MOLECULAR_WEIGHT>
737.1
> <PUBCHEM_OPENEYE_CAN_SMILES>
B1(OC2CC3CC(C3(C)C)C2(O1)C)C(CC=C)NC(=O)C4CC(C5=C(N=C(C(=O)N45)NCC6=CC(=CC=C6)C(F)(F)F)Cl)CCCC7=CC=CC=C7
> <PUBCHEM_OPENEYE_ISO_SMILES>
B1(OC2CC3CC([C@]2(O1)C)C3(C)C)[C@H](CC=C)NC(=O)[C@@H]4C[C@H](C5=C(N=C(C(=O)N45)NCC6=CC(=CC=C6)C(F)(F)F)Cl)CCCC7=CC=CC=C7
> <PUBCHEM_CACTVS_TPSA>
92.3
> <PUBCHEM_MONOISOTOPIC_WEIGHT>
736.3174483
> <PUBCHEM_TOTAL_CHARGE>
0
> <PUBCHEM_HEAVY_ATOM_COUNT>
52
> <PUBCHEM_ATOM_DEF_STEREO_COUNT>
4
> <PUBCHEM_ATOM_UDEF_STEREO_COUNT>
3
> <PUBCHEM_BOND_DEF_STEREO_COUNT>
0
> <PUBCHEM_BOND_UDEF_STEREO_COUNT>
0
> <PUBCHEM_ISOTOPIC_ATOM_COUNT>
0
> <PUBCHEM_COMPONENT_COUNT>
1
> <PUBCHEM_CACTVS_TAUTO_COUNT>
-1
> <PUBCHEM_COORDINATE_TYPE>
1
5
255
> <PUBCHEM_BONDANNOTATIONS>
10  31  8
10  33  8
11  34  8
11  36  8
13  17  3
15  17  3
16  22  6
19  18  3
27  25  5
29  32  6
31  34  8
33  36  8
38  40  8
38  41  8
40  43  8
41  44  8
42  46  8
42  47  8
43  45  8
44  45  8
46  48  8
47  49  8
48  50  8
49  50  8
23  9  6
$$$$
