504235
  -OEChem-10302200282D
 32 35  0     1  0  0  0  0  0999 V2000
    5.8899    1.2802    0.0000 O   0  0  0  0  0  0  0  0  0  0  0  0
    7.0905   -2.0186    0.0000 O   0  0  0  0  0  0  0  0  0  0  0  0
    2.4750   -1.8306    0.0000 O   0  0  0  0  0  0  0  0  0  0  0  0
    6.2337   -0.4625    0.0000 N   0  0  0  0  0  0  0  0  0  0  0  0
    7.5003    0.5305    0.0000 C   0  0  3  0  0  0  0  0  0  0  0  0
    7.8423   -0.4092    0.0000 C   0  0  3  0  0  0  0  0  0  0  0  0
    9.4738    1.1488    0.0000 C   0  0  3  0  0  0  0  0  0  0  0  0
    9.2150    0.1829    0.0000 C   0  0  3  0  0  0  0  0  0  0  0  0
    8.7372    2.1314    0.0000 C   0  0  0  0  0  0  0  0  0  0  0  0
   10.8728    0.6400    0.0000 C   0  0  0  0  0  0  0  0  0  0  0  0
   10.6139   -0.3260    0.0000 C   0  0  0  0  0  0  0  0  0  0  0  0
    6.5069    0.4933    0.0000 C   0  0  0  0  0  0  0  0  0  0  0  0
    7.0574   -1.0191    0.0000 C   0  0  0  0  0  0  0  0  0  0  0  0
    5.2940   -0.8046    0.0000 C   0  0  0  0  0  0  0  0  0  0  0  0
    5.1204   -1.7894    0.0000 C   0  0  0  0  0  0  0  0  0  0  0  0
    4.5280   -0.1618    0.0000 C   0  0  0  0  0  0  0  0  0  0  0  0
    4.1807   -2.1314    0.0000 C   0  0  0  0  0  0  0  0  0  0  0  0
    3.5883   -0.5038    0.0000 C   0  0  0  0  0  0  0  0  0  0  0  0
    3.4146   -1.4886    0.0000 C   0  0  0  0  0  0  0  0  0  0  0  0
    7.3950    1.1415    0.0000 H   0  0  0  0  0  0  0  0  0  0  0  0
    8.1578   -0.9429    0.0000 H   0  0  0  0  0  0  0  0  0  0  0  0
    9.8432    1.6468    0.0000 H   0  0  0  0  0  0  0  0  0  0  0  0
    9.6765    0.5969    0.0000 H   0  0  0  0  0  0  0  0  0  0  0  0
    9.0550    2.6638    0.0000 H   0  0  0  0  0  0  0  0  0  0  0  0
    8.1241    2.2234    0.0000 H   0  0  0  0  0  0  0  0  0  0  0  0
   11.4227    0.9263    0.0000 H   0  0  0  0  0  0  0  0  0  0  0  0
   10.9003   -0.8759    0.0000 H   0  0  0  0  0  0  0  0  0  0  0  0
    5.5953   -2.1879    0.0000 H   0  0  0  0  0  0  0  0  0  0  0  0
    4.6356    0.4488    0.0000 H   0  0  0  0  0  0  0  0  0  0  0  0
    4.0730   -2.7420    0.0000 H   0  0  0  0  0  0  0  0  0  0  0  0
    3.1133   -0.1053    0.0000 H   0  0  0  0  0  0  0  0  0  0  0  0
    2.0000   -1.4321    0.0000 H   0  0  0  0  0  0  0  0  0  0  0  0
  1 12  2  0  0  0  0
  2 13  2  0  0  0  0
  3 19  1  0  0  0  0
  3 32  1  0  0  0  0
  4 12  1  0  0  0  0
  4 13  1  0  0  0  0
  4 14  1  0  0  0  0
  5  6  1  0  0  0  0
  5  7  1  0  0  0  0
  5 12  1  0  0  0  0
  5 20  1  0  0  0  0
  6  8  1  0  0  0  0
  6 13  1  0  0  0  0
  6 21  1  0  0  0  0
  7  9  1  0  0  0  0
  7 10  1  0  0  0  0
  7 22  1  0  0  0  0
  8  9  1  0  0  0  0
  8 11  1  0  0  0  0
  8 23  1  0  0  0  0
  9 24  1  0  0  0  0
  9 25  1  0  0  0  0
 10 11  2  0  0  0  0
 10 26  1  0  0  0  0
 11 27  1  0  0  0  0
 14 15  2  0  0  0  0
 14 16  1  0  0  0  0
 15 17  1  0  0  0  0
 15 28  1  0  0  0  0
 16 18  2  0  0  0  0
 16 29  1  0  0  0  0
 17 19  2  0  0  0  0
 17 30  1  0  0  0  0
 18 19  1  0  0  0  0
 18 31  1  0  0  0  0
M  END
> <PUBCHEM_COMPOUND_CID>
504235
> <PUBCHEM_COMPOUND_CANONICALIZED>
1
> <PUBCHEM_CACTVS_COMPLEXITY>
434
> <PUBCHEM_CACTVS_HBOND_ACCEPTOR>
3
> <PUBCHEM_CACTVS_HBOND_DONOR>
1
> <PUBCHEM_CACTVS_ROTATABLE_BOND>
1
> <PUBCHEM_CACTVS_SUBSKEYS>
AAADccByMAAAAAAAAAAAAAAAAAAAAeIEAAAwQAAAAAAWAAABAAAAHgAACAAADQyBkAAwxoMAAgCIACVSUACCAAAhIgAIiAEGbIgIJjLCkZOEcAhkxDHI2Ae9yACOgEAAAAAAAAAAgAAAAAAAAQAACAAAAA==
> <PUBCHEM_IUPAC_OPENEYE_NAME>
4-(4-hydroxyphenyl)-4-azatricyclo[5.2.1.02,6]dec-8-ene-3,5-dione
> <PUBCHEM_IUPAC_CAS_NAME>
4-(4-hydroxyphenyl)-4-azatricyclo[5.2.1.02,6]dec-8-ene-3,5-dione
> <PUBCHEM_IUPAC_NAME_MARKUP>
4-(4-hydroxyphenyl)-4-azatricyclo[5.2.1.0<SUP>2,6</SUP>]dec-8-ene-3,5-dione
> <PUBCHEM_IUPAC_NAME>
4-(4-hydroxyphenyl)-4-azatricyclo[5.2.1.02,6]dec-8-ene-3,5-dione
> <PUBCHEM_IUPAC_SYSTEMATIC_NAME>
4-(4-hydroxyphenyl)-4-azatricyclo[5.2.1.02,6]dec-8-ene-3,5-dione
> <PUBCHEM_IUPAC_TRADITIONAL_NAME>
4-(4-hydroxyphenyl)-4-azatricyclo[5.2.1.02,6]dec-8-ene-3,5-quinone
> <PUBCHEM_IUPAC_INCHI>
InChI=1S/C15H13NO3/c17-11-5-3-10(4-6-11)16-14(18)12-8-1-2-9(7-8)13(12)15(16)19/h1-6,8-9,12-13,17H,7H2
> <PUBCHEM_IUPAC_INCHIKEY>
XOTYSWSIKRFMRI-UHFFFAOYSA-N
> <PUBCHEM_XLOGP3_AA>
1.5
> <PUBCHEM_EXACT_MASS>
255.08954328
> <PUBCHEM_MOLECULAR_FORMULA>
C15H13NO3
> <PUBCHEM_MOLECULAR_WEIGHT>
255.27
> <PUBCHEM_OPENEYE_CAN_SMILES>
C1C2C=CC1C3C2C(=O)N(C3=O)C4=CC=C(C=C4)O
> <PUBCHEM_OPENEYE_ISO_SMILES>
C1C2C=CC1C3C2C(=O)N(C3=O)C4=CC=C(C=C4)O
> <PUBCHEM_CACTVS_TPSA>
57.6
> <PUBCHEM_MONOISOTOPIC_WEIGHT>
255.08954328
> <PUBCHEM_TOTAL_CHARGE>
0
> <PUBCHEM_HEAVY_ATOM_COUNT>
19
> <PUBCHEM_ATOM_DEF_STEREO_COUNT>
0
> <PUBCHEM_ATOM_UDEF_STEREO_COUNT>
4
> <PUBCHEM_BOND_DEF_STEREO_COUNT>
0
> <PUBCHEM_BOND_UDEF_STEREO_COUNT>
0
> <PUBCHEM_ISOTOPIC_ATOM_COUNT>
0
> <PUBCHEM_COMPONENT_COUNT>
1
> <PUBCHEM_CACTVS_TAUTO_COUNT>
-1
> <PUBCHEM_COORDINATE_TYPE>
1
5
255
> <PUBCHEM_BONDANNOTATIONS>
14  15  8
14  16  8
15  17  8
16  18  8
17  19  8
18  19  8
5  12  3
6  13  3
7  9  3
8  9  3
$$$$
