504222
  -OEChem-10302200282D
100107  0     1  0  0  0  0  0999 V2000
    3.9234   -0.2418    0.0000 Cl  0  0  0  0  0  0  0  0  0  0  0  0
   11.3108    1.9345    0.0000 O   0  0  0  0  0  0  0  0  0  0  0  0
    9.9765    2.8345    0.0000 O   0  0  0  0  0  0  0  0  0  0  0  0
    8.6398   -0.5864    0.0000 O   0  0  0  0  0  0  0  0  0  0  0  0
    7.6295   -1.7466    0.0000 O   0  0  0  0  0  0  0  0  0  0  0  0
    8.7606    1.1414    0.0000 N   0  0  0  0  0  0  0  0  0  0  0  0
    6.5655   -0.3799    0.0000 N   0  0  0  0  0  0  0  0  0  0  0  0
    4.9873   -1.6085    0.0000 N   0  0  0  0  0  0  0  0  0  0  0  0
    6.0513   -2.9752    0.0000 N   0  0  0  0  0  0  0  0  0  0  0  0
   12.8083    3.7551    0.0000 C   0  0  3  0  0  0  0  0  0  0  0  0
   14.2073    3.7639    0.0000 C   0  0  0  0  0  0  0  0  0  0  0  0
   13.0672    4.7210    0.0000 C   0  0  3  0  0  0  0  0  0  0  0  0
   12.3305    5.7036    0.0000 C   0  0  0  0  0  0  0  0  0  0  0  0
   11.5873    2.8894    0.0000 C   0  0  2  0  0  0  0  0  0  0  0  0
   11.0339    4.4098    0.0000 C   0  0  0  0  0  0  0  0  0  0  0  0
   10.7583    3.4486    0.0000 C   0  0  3  0  0  0  0  0  0  0  0  0
   15.0733    4.2639    0.0000 C   0  0  0  0  0  0  0  0  0  0  0  0
   14.7073    2.8978    0.0000 C   0  0  0  0  0  0  0  0  0  0  0  0
   12.4164    2.3302    0.0000 C   0  0  0  0  0  0  0  0  0  0  0  0
    9.7581    1.0717    0.0000 C   0  0  1  0  0  0  0  0  0  0  0  0
   10.1965    0.1729    0.0000 C   0  0  0  0  0  0  0  0  0  0  0  0
    8.2014    0.3124    0.0000 C   0  0  0  0  0  0  0  0  0  0  0  0
    9.6373   -0.6562    0.0000 C   0  0  0  0  0  0  0  0  0  0  0  0
    7.2038    0.3821    0.0000 C   0  0  2  0  0  0  0  0  0  0  0  0
    6.6778    1.2256    0.0000 C   0  0  0  0  0  0  0  0  0  0  0  0
    5.7126    0.9876    0.0000 C   0  0  2  0  0  0  0  0  0  0  0  0
   10.0757   -1.5550    0.0000 C   0  0  0  0  0  0  0  0  0  0  0  0
    5.6390   -0.0037    0.0000 C   0  0  0  0  0  0  0  0  0  0  0  0
    4.9488    1.6331    0.0000 C   0  0  0  0  0  0  0  0  0  0  0  0
    6.7030   -1.3704    0.0000 C   0  0  0  0  0  0  0  0  0  0  0  0
    4.8499   -0.6180    0.0000 C   0  0  0  0  0  0  0  0  0  0  0  0
    5.1258    2.6173    0.0000 C   0  0  0  0  0  0  0  0  0  0  0  0
    5.9139   -1.9847    0.0000 C   0  0  0  0  0  0  0  0  0  0  0  0
    4.3620    3.2627    0.0000 C   0  0  0  0  0  0  0  0  0  0  0  0
    4.5391    4.2469    0.0000 C   0  0  0  0  0  0  0  0  0  0  0  0
    5.2623   -3.5895    0.0000 C   0  0  0  0  0  0  0  0  0  0  0  0
    3.7753    4.8924    0.0000 C   0  0  0  0  0  0  0  0  0  0  0  0
    5.4799    4.5857    0.0000 C   0  0  0  0  0  0  0  0  0  0  0  0
    3.9523    5.8766    0.0000 C   0  0  0  0  0  0  0  0  0  0  0  0
    5.3997   -4.5800    0.0000 C   0  0  0  0  0  0  0  0  0  0  0  0
    5.6570    5.5699    0.0000 C   0  0  0  0  0  0  0  0  0  0  0  0
    2.8008    4.5244    0.0000 C   0  0  0  0  0  0  0  0  0  0  0  0
    4.8932    6.2153    0.0000 C   0  0  0  0  0  0  0  0  0  0  0  0
    3.1672    6.5610    0.0000 C   0  0  0  0  0  0  0  0  0  0  0  0
    2.0000    5.1906    0.0000 C   0  0  0  0  0  0  0  0  0  0  0  0
    4.6106   -5.1943    0.0000 C   0  0  0  0  0  0  0  0  0  0  0  0
    6.3262   -4.9562    0.0000 C   0  0  0  0  0  0  0  0  0  0  0  0
    2.1844    6.2157    0.0000 C   0  0  0  0  0  0  0  0  0  0  0  0
    4.7481   -6.1848    0.0000 C   0  0  0  0  0  0  0  0  0  0  0  0
    6.4637   -5.9468    0.0000 C   0  0  0  0  0  0  0  0  0  0  0  0
    5.6746   -6.5610    0.0000 C   0  0  0  0  0  0  0  0  0  0  0  0
   10.3173    1.9007    0.0000 B   0  0  0  0  0  0  0  0  0  0  0  0
   12.9984    3.1649    0.0000 H   0  0  0  0  0  0  0  0  0  0  0  0
   13.5175    5.1472    0.0000 H   0  0  0  0  0  0  0  0  0  0  0  0
   12.6483    6.2360    0.0000 H   0  0  0  0  0  0  0  0  0  0  0  0
   11.7174    5.7956    0.0000 H   0  0  0  0  0  0  0  0  0  0  0  0
   11.0289    5.0298    0.0000 H   0  0  0  0  0  0  0  0  0  0  0  0
   10.4196    4.4936    0.0000 H   0  0  0  0  0  0  0  0  0  0  0  0
   10.2438    3.7946    0.0000 H   0  0  0  0  0  0  0  0  0  0  0  0
   15.3833    3.7269    0.0000 H   0  0  0  0  0  0  0  0  0  0  0  0
   15.6102    4.5739    0.0000 H   0  0  0  0  0  0  0  0  0  0  0  0
   14.7633    4.8008    0.0000 H   0  0  0  0  0  0  0  0  0  0  0  0
   14.1703    2.5878    0.0000 H   0  0  0  0  0  0  0  0  0  0  0  0
   15.0173    2.3609    0.0000 H   0  0  0  0  0  0  0  0  0  0  0  0
   15.2442    3.2078    0.0000 H   0  0  0  0  0  0  0  0  0  0  0  0
   12.0697    1.8162    0.0000 H   0  0  0  0  0  0  0  0  0  0  0  0
   12.9304    1.9835    0.0000 H   0  0  0  0  0  0  0  0  0  0  0  0
   12.7631    2.8442    0.0000 H   0  0  0  0  0  0  0  0  0  0  0  0
    9.4864    1.6289    0.0000 H   0  0  0  0  0  0  0  0  0  0  0  0
   10.6425   -0.2578    0.0000 H   0  0  0  0  0  0  0  0  0  0  0  0
   10.6981    0.5373    0.0000 H   0  0  0  0  0  0  0  0  0  0  0  0
    8.4888    1.6987    0.0000 H   0  0  0  0  0  0  0  0  0  0  0  0
    9.0188   -0.6129    0.0000 H   0  0  0  0  0  0  0  0  0  0  0  0
    7.4463   -0.1885    0.0000 H   0  0  0  0  0  0  0  0  0  0  0  0
    7.2354    1.4966    0.0000 H   0  0  0  0  0  0  0  0  0  0  0  0
    6.4669    1.8087    0.0000 H   0  0  0  0  0  0  0  0  0  0  0  0
    5.1409    0.7476    0.0000 H   0  0  0  0  0  0  0  0  0  0  0  0
    9.7290   -2.0690    0.0000 H   0  0  0  0  0  0  0  0  0  0  0  0
   10.6942   -1.5982    0.0000 H   0  0  0  0  0  0  0  0  0  0  0  0
    4.3669    1.8472    0.0000 H   0  0  0  0  0  0  0  0  0  0  0  0
    4.6369    1.0972    0.0000 H   0  0  0  0  0  0  0  0  0  0  0  0
    5.7077    2.4032    0.0000 H   0  0  0  0  0  0  0  0  0  0  0  0
    5.4377    3.1531    0.0000 H   0  0  0  0  0  0  0  0  0  0  0  0
    3.7801    3.4768    0.0000 H   0  0  0  0  0  0  0  0  0  0  0  0
    4.0502    2.7269    0.0000 H   0  0  0  0  0  0  0  0  0  0  0  0
    6.6258   -3.2085    0.0000 H   0  0  0  0  0  0  0  0  0  0  0  0
    4.9721   -3.0416    0.0000 H   0  0  0  0  0  0  0  0  0  0  0  0
    4.6723   -3.7801    0.0000 H   0  0  0  0  0  0  0  0  0  0  0  0
    5.9535    4.1855    0.0000 H   0  0  0  0  0  0  0  0  0  0  0  0
    6.2403    5.7799    0.0000 H   0  0  0  0  0  0  0  0  0  0  0  0
    2.6981    3.9130    0.0000 H   0  0  0  0  0  0  0  0  0  0  0  0
    5.0030    6.8255    0.0000 H   0  0  0  0  0  0  0  0  0  0  0  0
    3.2840    7.1699    0.0000 H   0  0  0  0  0  0  0  0  0  0  0  0
    1.4175    4.9783    0.0000 H   0  0  0  0  0  0  0  0  0  0  0  0
    4.0362   -4.9611    0.0000 H   0  0  0  0  0  0  0  0  0  0  0  0
    6.8155   -4.5754    0.0000 H   0  0  0  0  0  0  0  0  0  0  0  0
    1.7124    6.6177    0.0000 H   0  0  0  0  0  0  0  0  0  0  0  0
    4.2589   -6.5657    0.0000 H   0  0  0  0  0  0  0  0  0  0  0  0
    7.0382   -6.1800    0.0000 H   0  0  0  0  0  0  0  0  0  0  0  0
    5.7599   -7.1752    0.0000 H   0  0  0  0  0  0  0  0  0  0  0  0
  1 31  1  0  0  0  0
  2 14  1  0  0  0  0
  2 52  1  0  0  0  0
  3 16  1  0  0  0  0
  3 52  1  0  0  0  0
  4 22  2  0  0  0  0
  5 30  2  0  0  0  0
 20  6  1  6  0  0  0
  6 22  1  0  0  0  0
  6 72  1  0  0  0  0
  7 24  1  0  0  0  0
  7 28  1  0  0  0  0
  7 30  1  0  0  0  0
  8 31  1  0  0  0  0
  8 33  2  0  0  0  0
  9 33  1  0  0  0  0
  9 36  1  0  0  0  0
  9 86  1  0  0  0  0
 10 11  1  0  0  0  0
 10 13  1  0  0  0  0
 10 14  1  0  0  0  0
 10 53  1  0  0  0  0
 11 12  1  0  0  0  0
 11 17  1  0  0  0  0
 11 18  1  0  0  0  0
 12 13  1  0  0  0  0
 12 15  1  0  0  0  0
 12 54  1  0  0  0  0
 13 55  1  0  0  0  0
 13 56  1  0  0  0  0
 14 16  1  0  0  0  0
 14 19  1  6  0  0  0
 15 16  1  0  0  0  0
 15 57  1  0  0  0  0
 15 58  1  0  0  0  0
 16 59  1  0  0  0  0
 17 60  1  0  0  0  0
 17 61  1  0  0  0  0
 17 62  1  0  0  0  0
 18 63  1  0  0  0  0
 18 64  1  0  0  0  0
 18 65  1  0  0  0  0
 19 66  1  0  0  0  0
 19 67  1  0  0  0  0
 19 68  1  0  0  0  0
 20 21  1  0  0  0  0
 20 52  1  0  0  0  0
 20 69  1  0  0  0  0
 21 23  1  0  0  0  0
 21 70  1  0  0  0  0
 21 71  1  0  0  0  0
 24 22  1  1  0  0  0
 23 27  2  0  0  0  0
 23 73  1  0  0  0  0
 24 25  1  0  0  0  0
 24 74  1  0  0  0  0
 25 26  1  0  0  0  0
 25 75  1  0  0  0  0
 25 76  1  0  0  0  0
 26 28  1  0  0  0  0
 26 29  1  6  0  0  0
 26 77  1  0  0  0  0
 27 78  1  0  0  0  0
 27 79  1  0  0  0  0
 28 31  2  0  0  0  0
 29 32  1  0  0  0  0
 29 80  1  0  0  0  0
 29 81  1  0  0  0  0
 30 33  1  0  0  0  0
 32 34  1  0  0  0  0
 32 82  1  0  0  0  0
 32 83  1  0  0  0  0
 34 35  1  0  0  0  0
 34 84  1  0  0  0  0
 34 85  1  0  0  0  0
 35 37  1  0  0  0  0
 35 38  2  0  0  0  0
 36 40  1  0  0  0  0
 36 87  1  0  0  0  0
 36 88  1  0  0  0  0
 37 39  1  0  0  0  0
 37 42  2  0  0  0  0
 38 41  1  0  0  0  0
 38 89  1  0  0  0  0
 39 43  1  0  0  0  0
 39 44  2  0  0  0  0
 40 46  2  0  0  0  0
 40 47  1  0  0  0  0
 41 43  2  0  0  0  0
 41 90  1  0  0  0  0
 42 45  1  0  0  0  0
 42 91  1  0  0  0  0
 43 92  1  0  0  0  0
 44 48  1  0  0  0  0
 44 93  1  0  0  0  0
 45 48  2  0  0  0  0
 45 94  1  0  0  0  0
 46 49  1  0  0  0  0
 46 95  1  0  0  0  0
 47 50  2  0  0  0  0
 47 96  1  0  0  0  0
 48 97  1  0  0  0  0
 49 51  2  0  0  0  0
 49 98  1  0  0  0  0
 50 51  1  0  0  0  0
 50 99  1  0  0  0  0
 51100  1  0  0  0  0
M  END
> <PUBCHEM_COMPOUND_CID>
504222
> <PUBCHEM_COMPOUND_CANONICALIZED>
1
> <PUBCHEM_CACTVS_COMPLEXITY>
1450
> <PUBCHEM_CACTVS_HBOND_ACCEPTOR>
5
> <PUBCHEM_CACTVS_HBOND_DONOR>
2
> <PUBCHEM_CACTVS_ROTATABLE_BOND>
12
> <PUBCHEM_CACTVS_SUBSKEYS>
AAADcfJ/uAAEAAAAAAAAAAAAAABgAWJAAAAwYMGDAAAAAEjBVAAoHgIQAAAAD37hmAYzAMPAAACoAidydACCAAEgAAAJiIGIBIgJYDKAmTGUIAhklgCIiAeYyfCPgAACAAAQAADAAAYAADCAAAAAAAAAAA==
> <PUBCHEM_IUPAC_OPENEYE_NAME>
(6S,8R)-3-(benzylamino)-1-chloro-8-[3-(1-naphthyl)propyl]-4-oxo-N-[(1R)-1-[(2R)-2,9,9-trimethyl-3,5-dioxa-4-boratricyclo[6.1.1.02,6]decan-4-yl]but-3-enyl]-7,8-dihydro-6H-pyrrolo[1,2-a]pyrazine-6-carboxamide
> <PUBCHEM_IUPAC_CAS_NAME>
(6S,8R)-1-chloro-8-[3-(1-naphthalenyl)propyl]-4-oxo-3-[(phenylmethyl)amino]-N-[(1R)-1-[(2R)-2,9,9-trimethyl-3,5-dioxa-4-boratricyclo[6.1.1.02,6]decan-4-yl]but-3-enyl]-7,8-dihydro-6H-pyrrolo[1,2-a]pyrazine-6-carboxamide
> <PUBCHEM_IUPAC_NAME_MARKUP>
(6<I>S</I>,8<I>R</I>)-3-(benzylamino)-1-chloro-8-(3-naphthalen-1-ylpropyl)-4-oxo-<I>N</I>-[(1<I>R</I>)-1-[(2<I>R</I>)-2,9,9-trimethyl-3,5-dioxa-4-boratricyclo[6.1.1.0<SUP>2,6</SUP>]decan-4-yl]but-3-enyl]-7,8-dihydro-6<I>H</I>-pyrrolo[1,2-a]pyrazine-6-carboxamide
> <PUBCHEM_IUPAC_NAME>
(6S,8R)-3-(benzylamino)-1-chloro-8-(3-naphthalen-1-ylpropyl)-4-oxo-N-[(1R)-1-[(2R)-2,9,9-trimethyl-3,5-dioxa-4-boratricyclo[6.1.1.02,6]decan-4-yl]but-3-enyl]-7,8-dihydro-6H-pyrrolo[1,2-a]pyrazine-6-carboxamide
> <PUBCHEM_IUPAC_SYSTEMATIC_NAME>
(6S,8R)-1-chloranyl-8-(3-naphthalen-1-ylpropyl)-4-oxidanylidene-3-[(phenylmethyl)amino]-N-[(1R)-1-[(2R)-2,9,9-trimethyl-3,5-dioxa-4-boratricyclo[6.1.1.02,6]decan-4-yl]but-3-enyl]-7,8-dihydro-6H-pyrrolo[1,2-a]pyrazine-6-carboxamide
> <PUBCHEM_IUPAC_TRADITIONAL_NAME>
(6S,8R)-3-(benzylamino)-1-chloro-4-keto-8-[3-(1-naphthyl)propyl]-N-[(1R)-1-[(2R)-2,9,9-trimethyl-3,5-dioxa-4-boratricyclo[6.1.1.02,6]decan-4-yl]but-3-enyl]-7,8-dihydro-6H-pyrrolo[1,2-a]pyrazine-6-carboxamide
> <PUBCHEM_IUPAC_INCHI>
InChI=1S/C42H48BClN4O4/c1-5-13-35(43-51-34-24-30-23-33(41(30,2)3)42(34,4)52-43)46-39(49)32-22-29(20-12-19-28-18-11-17-27-16-9-10-21-31(27)28)36-37(44)47-38(40(50)48(32)36)45-25-26-14-7-6-8-15-26/h5-11,14-18,21,29-30,32-35H,1,12-13,19-20,22-25H2,2-4H3,(H,45,47)(H,46,49)/t29-,30?,32+,33?,34?,35+,42-/m1/s1
> <PUBCHEM_IUPAC_INCHIKEY>
VRFLZQNSRDLHKT-CSCMKSFWSA-N
> <PUBCHEM_EXACT_MASS>
718.3457139
> <PUBCHEM_MOLECULAR_FORMULA>
C42H48BClN4O4
> <PUBCHEM_MOLECULAR_WEIGHT>
719.1
> <PUBCHEM_OPENEYE_CAN_SMILES>
B1(OC2CC3CC(C3(C)C)C2(O1)C)C(CC=C)NC(=O)C4CC(C5=C(N=C(C(=O)N45)NCC6=CC=CC=C6)Cl)CCCC7=CC=CC8=CC=CC=C87
> <PUBCHEM_OPENEYE_ISO_SMILES>
B1(OC2CC3CC([C@]2(O1)C)C3(C)C)[C@H](CC=C)NC(=O)[C@@H]4C[C@H](C5=C(N=C(C(=O)N45)NCC6=CC=CC=C6)Cl)CCCC7=CC=CC8=CC=CC=C87
> <PUBCHEM_CACTVS_TPSA>
92.3
> <PUBCHEM_MONOISOTOPIC_WEIGHT>
718.3457139
> <PUBCHEM_TOTAL_CHARGE>
0
> <PUBCHEM_HEAVY_ATOM_COUNT>
52
> <PUBCHEM_ATOM_DEF_STEREO_COUNT>
4
> <PUBCHEM_ATOM_UDEF_STEREO_COUNT>
3
> <PUBCHEM_BOND_DEF_STEREO_COUNT>
0
> <PUBCHEM_BOND_UDEF_STEREO_COUNT>
0
> <PUBCHEM_ISOTOPIC_ATOM_COUNT>
0
> <PUBCHEM_COMPONENT_COUNT>
1
> <PUBCHEM_CACTVS_TAUTO_COUNT>
-1
> <PUBCHEM_COORDINATE_TYPE>
1
5
255
> <PUBCHEM_BONDANNOTATIONS>
10  13  3
12  13  3
14  19  6
16  15  3
24  22  5
26  29  6
28  31  8
30  33  8
35  37  8
35  38  8
37  39  8
37  42  8
38  41  8
39  43  8
39  44  8
40  46  8
40  47  8
41  43  8
42  45  8
44  48  8
45  48  8
46  49  8
47  50  8
49  51  8
50  51  8
20  6  6
7  28  8
7  30  8
8  31  8
8  33  8
$$$$
