504223
  -OEChem-10302200282D
102109  0     1  0  0  0  0  0999 V2000
    3.9234    0.3701    0.0000 Cl  0  0  0  0  0  0  0  0  0  0  0  0
   11.3108    2.5464    0.0000 O   0  0  0  0  0  0  0  0  0  0  0  0
    9.9765    3.4464    0.0000 O   0  0  0  0  0  0  0  0  0  0  0  0
    8.6398    0.0255    0.0000 O   0  0  0  0  0  0  0  0  0  0  0  0
    7.6295   -1.1348    0.0000 O   0  0  0  0  0  0  0  0  0  0  0  0
    3.9590   -6.1872    0.0000 O   0  0  0  0  0  0  0  0  0  0  0  0
    5.8121   -6.9397    0.0000 O   0  0  0  0  0  0  0  0  0  0  0  0
    8.7606    1.7533    0.0000 N   0  0  0  0  0  0  0  0  0  0  0  0
    6.5655    0.2320    0.0000 N   0  0  0  0  0  0  0  0  0  0  0  0
    4.9873   -0.9966    0.0000 N   0  0  0  0  0  0  0  0  0  0  0  0
    6.0513   -2.3634    0.0000 N   0  0  0  0  0  0  0  0  0  0  0  0
   12.8083    4.3669    0.0000 C   0  0  3  0  0  0  0  0  0  0  0  0
   14.2073    4.3758    0.0000 C   0  0  0  0  0  0  0  0  0  0  0  0
   13.0672    5.3329    0.0000 C   0  0  3  0  0  0  0  0  0  0  0  0
   12.3305    6.3155    0.0000 C   0  0  0  0  0  0  0  0  0  0  0  0
   11.5873    3.5013    0.0000 C   0  0  2  0  0  0  0  0  0  0  0  0
   11.0339    5.0217    0.0000 C   0  0  0  0  0  0  0  0  0  0  0  0
   10.7583    4.0605    0.0000 C   0  0  3  0  0  0  0  0  0  0  0  0
   15.0733    4.8758    0.0000 C   0  0  0  0  0  0  0  0  0  0  0  0
   14.7073    3.5097    0.0000 C   0  0  0  0  0  0  0  0  0  0  0  0
   12.4164    2.9421    0.0000 C   0  0  0  0  0  0  0  0  0  0  0  0
    9.7581    1.6836    0.0000 C   0  0  1  0  0  0  0  0  0  0  0  0
   10.1965    0.7848    0.0000 C   0  0  0  0  0  0  0  0  0  0  0  0
    8.2014    0.9243    0.0000 C   0  0  0  0  0  0  0  0  0  0  0  0
    9.6373   -0.0443    0.0000 C   0  0  0  0  0  0  0  0  0  0  0  0
    7.2038    0.9940    0.0000 C   0  0  2  0  0  0  0  0  0  0  0  0
    6.6778    1.8375    0.0000 C   0  0  0  0  0  0  0  0  0  0  0  0
    5.7126    1.5995    0.0000 C   0  0  2  0  0  0  0  0  0  0  0  0
   10.0757   -0.9431    0.0000 C   0  0  0  0  0  0  0  0  0  0  0  0
    5.6390    0.6082    0.0000 C   0  0  0  0  0  0  0  0  0  0  0  0
    4.9488    2.2450    0.0000 C   0  0  0  0  0  0  0  0  0  0  0  0
    6.7030   -0.7585    0.0000 C   0  0  0  0  0  0  0  0  0  0  0  0
    4.8499   -0.0061    0.0000 C   0  0  0  0  0  0  0  0  0  0  0  0
    5.1258    3.2292    0.0000 C   0  0  0  0  0  0  0  0  0  0  0  0
    5.9139   -1.3728    0.0000 C   0  0  0  0  0  0  0  0  0  0  0  0
    4.3620    3.8746    0.0000 C   0  0  0  0  0  0  0  0  0  0  0  0
    4.5391    4.8588    0.0000 C   0  0  0  0  0  0  0  0  0  0  0  0
    5.2623   -2.9776    0.0000 C   0  0  0  0  0  0  0  0  0  0  0  0
    3.7753    5.5042    0.0000 C   0  0  0  0  0  0  0  0  0  0  0  0
    5.4799    5.1976    0.0000 C   0  0  0  0  0  0  0  0  0  0  0  0
    5.3997   -3.9682    0.0000 C   0  0  0  0  0  0  0  0  0  0  0  0
    3.9523    6.4884    0.0000 C   0  0  0  0  0  0  0  0  0  0  0  0
    5.6570    6.1818    0.0000 C   0  0  0  0  0  0  0  0  0  0  0  0
    2.8008    5.1363    0.0000 C   0  0  0  0  0  0  0  0  0  0  0  0
    4.8932    6.8272    0.0000 C   0  0  0  0  0  0  0  0  0  0  0  0
    3.1672    7.1729    0.0000 C   0  0  0  0  0  0  0  0  0  0  0  0
    4.6106   -4.5824    0.0000 C   0  0  0  0  0  0  0  0  0  0  0  0
    6.3262   -4.3444    0.0000 C   0  0  0  0  0  0  0  0  0  0  0  0
    2.0000    5.8024    0.0000 C   0  0  0  0  0  0  0  0  0  0  0  0
    2.1844    6.8276    0.0000 C   0  0  0  0  0  0  0  0  0  0  0  0
    4.7481   -5.5730    0.0000 C   0  0  0  0  0  0  0  0  0  0  0  0
    6.4637   -5.3349    0.0000 C   0  0  0  0  0  0  0  0  0  0  0  0
    5.6746   -5.9492    0.0000 C   0  0  0  0  0  0  0  0  0  0  0  0
   10.3173    2.5126    0.0000 B   0  0  0  0  0  0  0  0  0  0  0  0
   12.9984    3.7768    0.0000 H   0  0  0  0  0  0  0  0  0  0  0  0
   13.5175    5.7590    0.0000 H   0  0  0  0  0  0  0  0  0  0  0  0
   12.6483    6.8478    0.0000 H   0  0  0  0  0  0  0  0  0  0  0  0
   11.7174    6.4074    0.0000 H   0  0  0  0  0  0  0  0  0  0  0  0
   11.0289    5.6417    0.0000 H   0  0  0  0  0  0  0  0  0  0  0  0
   10.4196    5.1055    0.0000 H   0  0  0  0  0  0  0  0  0  0  0  0
   10.2438    4.4065    0.0000 H   0  0  0  0  0  0  0  0  0  0  0  0
   15.3833    4.3388    0.0000 H   0  0  0  0  0  0  0  0  0  0  0  0
   15.6102    5.1858    0.0000 H   0  0  0  0  0  0  0  0  0  0  0  0
   14.7633    5.4127    0.0000 H   0  0  0  0  0  0  0  0  0  0  0  0
   14.1703    3.1997    0.0000 H   0  0  0  0  0  0  0  0  0  0  0  0
   15.0173    2.9728    0.0000 H   0  0  0  0  0  0  0  0  0  0  0  0
   15.2442    3.8197    0.0000 H   0  0  0  0  0  0  0  0  0  0  0  0
   12.0697    2.4281    0.0000 H   0  0  0  0  0  0  0  0  0  0  0  0
   12.9304    2.5954    0.0000 H   0  0  0  0  0  0  0  0  0  0  0  0
   12.7631    3.4561    0.0000 H   0  0  0  0  0  0  0  0  0  0  0  0
    9.4864    2.2408    0.0000 H   0  0  0  0  0  0  0  0  0  0  0  0
   10.6425    0.3541    0.0000 H   0  0  0  0  0  0  0  0  0  0  0  0
   10.6981    1.1492    0.0000 H   0  0  0  0  0  0  0  0  0  0  0  0
    8.4888    2.3106    0.0000 H   0  0  0  0  0  0  0  0  0  0  0  0
    9.0188   -0.0010    0.0000 H   0  0  0  0  0  0  0  0  0  0  0  0
    7.4463    0.4234    0.0000 H   0  0  0  0  0  0  0  0  0  0  0  0
    7.2354    2.1085    0.0000 H   0  0  0  0  0  0  0  0  0  0  0  0
    6.4669    2.4206    0.0000 H   0  0  0  0  0  0  0  0  0  0  0  0
    5.1409    1.3595    0.0000 H   0  0  0  0  0  0  0  0  0  0  0  0
    9.7290   -1.4571    0.0000 H   0  0  0  0  0  0  0  0  0  0  0  0
   10.6942   -0.9863    0.0000 H   0  0  0  0  0  0  0  0  0  0  0  0
    4.3669    2.4590    0.0000 H   0  0  0  0  0  0  0  0  0  0  0  0
    4.6369    1.7091    0.0000 H   0  0  0  0  0  0  0  0  0  0  0  0
    5.7077    3.0151    0.0000 H   0  0  0  0  0  0  0  0  0  0  0  0
    5.4377    3.7650    0.0000 H   0  0  0  0  0  0  0  0  0  0  0  0
    3.7801    4.0887    0.0000 H   0  0  0  0  0  0  0  0  0  0  0  0
    4.0502    3.3387    0.0000 H   0  0  0  0  0  0  0  0  0  0  0  0
    6.6258   -2.5966    0.0000 H   0  0  0  0  0  0  0  0  0  0  0  0
    4.9721   -2.4297    0.0000 H   0  0  0  0  0  0  0  0  0  0  0  0
    4.6723   -3.1682    0.0000 H   0  0  0  0  0  0  0  0  0  0  0  0
    5.9535    4.7974    0.0000 H   0  0  0  0  0  0  0  0  0  0  0  0
    6.2403    6.3918    0.0000 H   0  0  0  0  0  0  0  0  0  0  0  0
    2.6981    4.5249    0.0000 H   0  0  0  0  0  0  0  0  0  0  0  0
    5.0030    7.4374    0.0000 H   0  0  0  0  0  0  0  0  0  0  0  0
    3.2840    7.7818    0.0000 H   0  0  0  0  0  0  0  0  0  0  0  0
    4.0362   -4.3492    0.0000 H   0  0  0  0  0  0  0  0  0  0  0  0
    6.8155   -3.9635    0.0000 H   0  0  0  0  0  0  0  0  0  0  0  0
    1.4175    5.5902    0.0000 H   0  0  0  0  0  0  0  0  0  0  0  0
    1.7124    7.2296    0.0000 H   0  0  0  0  0  0  0  0  0  0  0  0
    7.0382   -5.5681    0.0000 H   0  0  0  0  0  0  0  0  0  0  0  0
    3.3846   -5.9540    0.0000 H   0  0  0  0  0  0  0  0  0  0  0  0
    6.3866   -7.1729    0.0000 H   0  0  0  0  0  0  0  0  0  0  0  0
  1 33  1  0  0  0  0
  2 16  1  0  0  0  0
  2 54  1  0  0  0  0
  3 18  1  0  0  0  0
  3 54  1  0  0  0  0
  4 24  2  0  0  0  0
  5 32  2  0  0  0  0
  6 51  1  0  0  0  0
  6101  1  0  0  0  0
  7 53  1  0  0  0  0
  7102  1  0  0  0  0
 22  8  1  6  0  0  0
  8 24  1  0  0  0  0
  8 74  1  0  0  0  0
  9 26  1  0  0  0  0
  9 30  1  0  0  0  0
  9 32  1  0  0  0  0
 10 33  1  0  0  0  0
 10 35  2  0  0  0  0
 11 35  1  0  0  0  0
 11 38  1  0  0  0  0
 11 88  1  0  0  0  0
 12 13  1  0  0  0  0
 12 15  1  0  0  0  0
 12 16  1  0  0  0  0
 12 55  1  0  0  0  0
 13 14  1  0  0  0  0
 13 19  1  0  0  0  0
 13 20  1  0  0  0  0
 14 15  1  0  0  0  0
 14 17  1  0  0  0  0
 14 56  1  0  0  0  0
 15 57  1  0  0  0  0
 15 58  1  0  0  0  0
 16 18  1  0  0  0  0
 16 21  1  6  0  0  0
 17 18  1  0  0  0  0
 17 59  1  0  0  0  0
 17 60  1  0  0  0  0
 18 61  1  0  0  0  0
 19 62  1  0  0  0  0
 19 63  1  0  0  0  0
 19 64  1  0  0  0  0
 20 65  1  0  0  0  0
 20 66  1  0  0  0  0
 20 67  1  0  0  0  0
 21 68  1  0  0  0  0
 21 69  1  0  0  0  0
 21 70  1  0  0  0  0
 22 23  1  0  0  0  0
 22 54  1  0  0  0  0
 22 71  1  0  0  0  0
 23 25  1  0  0  0  0
 23 72  1  0  0  0  0
 23 73  1  0  0  0  0
 26 24  1  1  0  0  0
 25 29  2  0  0  0  0
 25 75  1  0  0  0  0
 26 27  1  0  0  0  0
 26 76  1  0  0  0  0
 27 28  1  0  0  0  0
 27 77  1  0  0  0  0
 27 78  1  0  0  0  0
 28 30  1  0  0  0  0
 28 31  1  6  0  0  0
 28 79  1  0  0  0  0
 29 80  1  0  0  0  0
 29 81  1  0  0  0  0
 30 33  2  0  0  0  0
 31 34  1  0  0  0  0
 31 82  1  0  0  0  0
 31 83  1  0  0  0  0
 32 35  1  0  0  0  0
 34 36  1  0  0  0  0
 34 84  1  0  0  0  0
 34 85  1  0  0  0  0
 36 37  1  0  0  0  0
 36 86  1  0  0  0  0
 36 87  1  0  0  0  0
 37 39  1  0  0  0  0
 37 40  2  0  0  0  0
 38 41  1  0  0  0  0
 38 89  1  0  0  0  0
 38 90  1  0  0  0  0
 39 42  1  0  0  0  0
 39 44  2  0  0  0  0
 40 43  1  0  0  0  0
 40 91  1  0  0  0  0
 41 47  2  0  0  0  0
 41 48  1  0  0  0  0
 42 45  1  0  0  0  0
 42 46  2  0  0  0  0
 43 45  2  0  0  0  0
 43 92  1  0  0  0  0
 44 49  1  0  0  0  0
 44 93  1  0  0  0  0
 45 94  1  0  0  0  0
 46 50  1  0  0  0  0
 46 95  1  0  0  0  0
 47 51  1  0  0  0  0
 47 96  1  0  0  0  0
 48 52  2  0  0  0  0
 48 97  1  0  0  0  0
 49 50  2  0  0  0  0
 49 98  1  0  0  0  0
 50 99  1  0  0  0  0
 51 53  2  0  0  0  0
 52 53  1  0  0  0  0
 52100  1  0  0  0  0
M  END
> <PUBCHEM_COMPOUND_CID>
504223
> <PUBCHEM_COMPOUND_CANONICALIZED>
1
> <PUBCHEM_CACTVS_COMPLEXITY>
1520
> <PUBCHEM_CACTVS_HBOND_ACCEPTOR>
7
> <PUBCHEM_CACTVS_HBOND_DONOR>
4
> <PUBCHEM_CACTVS_ROTATABLE_BOND>
12
> <PUBCHEM_CACTVS_SUBSKEYS>
AAADcfJ/uAAEAAAAAAAAAAAAAABgAWJAAAAwYMGDAAAAAEjBVAAoHgIQCAAAD37hmAYzBsPAAgCoAidydACCAAEgIAAJiIGOjIgJZjKCmTOUcAlk1hGJmAe42fKPoAADAAAQQADAAAYAADCAAAAAAAAAAA==
> <PUBCHEM_IUPAC_OPENEYE_NAME>
(6S,8R)-1-chloro-3-[(3,4-dihydroxyphenyl)methylamino]-8-[3-(1-naphthyl)propyl]-4-oxo-N-[(1R)-1-[(2R)-2,9,9-trimethyl-3,5-dioxa-4-boratricyclo[6.1.1.02,6]decan-4-yl]but-3-enyl]-7,8-dihydro-6H-pyrrolo[1,2-a]pyrazine-6-carboxamide
> <PUBCHEM_IUPAC_CAS_NAME>
(6S,8R)-1-chloro-3-[(3,4-dihydroxyphenyl)methylamino]-8-[3-(1-naphthalenyl)propyl]-4-oxo-N-[(1R)-1-[(2R)-2,9,9-trimethyl-3,5-dioxa-4-boratricyclo[6.1.1.02,6]decan-4-yl]but-3-enyl]-7,8-dihydro-6H-pyrrolo[1,2-a]pyrazine-6-carboxamide
> <PUBCHEM_IUPAC_NAME_MARKUP>
(6<I>S</I>,8<I>R</I>)-1-chloro-3-[(3,4-dihydroxyphenyl)methylamino]-8-(3-naphthalen-1-ylpropyl)-4-oxo-<I>N</I>-[(1<I>R</I>)-1-[(2<I>R</I>)-2,9,9-trimethyl-3,5-dioxa-4-boratricyclo[6.1.1.0<SUP>2,6</SUP>]decan-4-yl]but-3-enyl]-7,8-dihydro-6<I>H</I>-pyrrolo[1,2-a]pyrazine-6-carboxamide
> <PUBCHEM_IUPAC_NAME>
(6S,8R)-1-chloro-3-[(3,4-dihydroxyphenyl)methylamino]-8-(3-naphthalen-1-ylpropyl)-4-oxo-N-[(1R)-1-[(2R)-2,9,9-trimethyl-3,5-dioxa-4-boratricyclo[6.1.1.02,6]decan-4-yl]but-3-enyl]-7,8-dihydro-6H-pyrrolo[1,2-a]pyrazine-6-carboxamide
> <PUBCHEM_IUPAC_SYSTEMATIC_NAME>
(6S,8R)-3-[[3,4-bis(oxidanyl)phenyl]methylamino]-1-chloranyl-8-(3-naphthalen-1-ylpropyl)-4-oxidanylidene-N-[(1R)-1-[(2R)-2,9,9-trimethyl-3,5-dioxa-4-boratricyclo[6.1.1.02,6]decan-4-yl]but-3-enyl]-7,8-dihydro-6H-pyrrolo[1,2-a]pyrazine-6-carboxamide
> <PUBCHEM_IUPAC_TRADITIONAL_NAME>
(6S,8R)-1-chloro-4-keto-8-[3-(1-naphthyl)propyl]-3-(protocatechuylamino)-N-[(1R)-1-[(2R)-2,9,9-trimethyl-3,5-dioxa-4-boratricyclo[6.1.1.02,6]decan-4-yl]but-3-enyl]-7,8-dihydro-6H-pyrrolo[1,2-a]pyrazine-6-carboxamide
> <PUBCHEM_IUPAC_INCHI>
InChI=1S/C42H48BClN4O6/c1-5-10-35(43-53-34-22-28-21-33(41(28,2)3)42(34,4)54-43)46-39(51)30-20-27(15-9-14-26-13-8-12-25-11-6-7-16-29(25)26)36-37(44)47-38(40(52)48(30)36)45-23-24-17-18-31(49)32(50)19-24/h5-8,11-13,16-19,27-28,30,33-35,49-50H,1,9-10,14-15,20-23H2,2-4H3,(H,45,47)(H,46,51)/t27-,28?,30+,33?,34?,35+,42-/m1/s1
> <PUBCHEM_IUPAC_INCHIKEY>
ZMBPDZFHEYWFTM-SBLVCVSYSA-N
> <PUBCHEM_EXACT_MASS>
750.3355431
> <PUBCHEM_MOLECULAR_FORMULA>
C42H48BClN4O6
> <PUBCHEM_MOLECULAR_WEIGHT>
751.1
> <PUBCHEM_OPENEYE_CAN_SMILES>
B1(OC2CC3CC(C3(C)C)C2(O1)C)C(CC=C)NC(=O)C4CC(C5=C(N=C(C(=O)N45)NCC6=CC(=C(C=C6)O)O)Cl)CCCC7=CC=CC8=CC=CC=C87
> <PUBCHEM_OPENEYE_ISO_SMILES>
B1(OC2CC3CC([C@]2(O1)C)C3(C)C)[C@H](CC=C)NC(=O)[C@@H]4C[C@H](C5=C(N=C(C(=O)N45)NCC6=CC(=C(C=C6)O)O)Cl)CCCC7=CC=CC8=CC=CC=C87
> <PUBCHEM_CACTVS_TPSA>
133
> <PUBCHEM_MONOISOTOPIC_WEIGHT>
750.3355431
> <PUBCHEM_TOTAL_CHARGE>
0
> <PUBCHEM_HEAVY_ATOM_COUNT>
54
> <PUBCHEM_ATOM_DEF_STEREO_COUNT>
4
> <PUBCHEM_ATOM_UDEF_STEREO_COUNT>
3
> <PUBCHEM_BOND_DEF_STEREO_COUNT>
0
> <PUBCHEM_BOND_UDEF_STEREO_COUNT>
0
> <PUBCHEM_ISOTOPIC_ATOM_COUNT>
0
> <PUBCHEM_COMPONENT_COUNT>
1
> <PUBCHEM_CACTVS_TAUTO_COUNT>
-1
> <PUBCHEM_COORDINATE_TYPE>
1
5
255
> <PUBCHEM_BONDANNOTATIONS>
10  33  8
10  35  8
12  15  3
14  15  3
16  21  6
18  17  3
26  24  5
28  31  6
30  33  8
32  35  8
37  39  8
37  40  8
39  42  8
39  44  8
40  43  8
41  47  8
41  48  8
42  45  8
42  46  8
43  45  8
44  49  8
46  50  8
47  51  8
48  52  8
49  50  8
51  53  8
52  53  8
22  8  6
9  30  8
9  32  8
$$$$
