504227
  -OEChem-10302200282D
102109  0     1  0  0  0  0  0999 V2000
    3.9234    0.3725    0.0000 Cl  0  0  0  0  0  0  0  0  0  0  0  0
   11.3108    2.5488    0.0000 O   0  0  0  0  0  0  0  0  0  0  0  0
    9.9765    3.4488    0.0000 O   0  0  0  0  0  0  0  0  0  0  0  0
    8.6398    0.0279    0.0000 O   0  0  0  0  0  0  0  0  0  0  0  0
    7.6295   -1.1323    0.0000 O   0  0  0  0  0  0  0  0  0  0  0  0
    4.0965   -7.1753    0.0000 O   0  5  0  0  0  0  0  0  0  0  0  0
    3.0325   -5.8086    0.0000 O   0  0  0  0  0  0  0  0  0  0  0  0
    8.7606    1.7557    0.0000 N   0  0  0  0  0  0  0  0  0  0  0  0
    6.5655    0.2344    0.0000 N   0  0  0  0  0  0  0  0  0  0  0  0
    4.9873   -0.9942    0.0000 N   0  0  0  0  0  0  0  0  0  0  0  0
    6.0513   -2.3609    0.0000 N   0  0  0  0  0  0  0  0  0  0  0  0
    3.9590   -6.1848    0.0000 N   0  3  0  0  0  0  0  0  0  0  0  0
   12.8083    4.3694    0.0000 C   0  0  3  0  0  0  0  0  0  0  0  0
   14.2073    4.3782    0.0000 C   0  0  0  0  0  0  0  0  0  0  0  0
   13.0672    5.3353    0.0000 C   0  0  3  0  0  0  0  0  0  0  0  0
   12.3305    6.3179    0.0000 C   0  0  0  0  0  0  0  0  0  0  0  0
   11.5873    3.5037    0.0000 C   0  0  2  0  0  0  0  0  0  0  0  0
   11.0339    5.0242    0.0000 C   0  0  0  0  0  0  0  0  0  0  0  0
   10.7583    4.0629    0.0000 C   0  0  3  0  0  0  0  0  0  0  0  0
   15.0733    4.8782    0.0000 C   0  0  0  0  0  0  0  0  0  0  0  0
   14.7073    3.5122    0.0000 C   0  0  0  0  0  0  0  0  0  0  0  0
   12.4164    2.9445    0.0000 C   0  0  0  0  0  0  0  0  0  0  0  0
    9.7581    1.6860    0.0000 C   0  0  1  0  0  0  0  0  0  0  0  0
   10.1965    0.7872    0.0000 C   0  0  0  0  0  0  0  0  0  0  0  0
    8.2014    0.9267    0.0000 C   0  0  0  0  0  0  0  0  0  0  0  0
    9.6373   -0.0419    0.0000 C   0  0  0  0  0  0  0  0  0  0  0  0
    7.2038    0.9964    0.0000 C   0  0  2  0  0  0  0  0  0  0  0  0
    6.6778    1.8399    0.0000 C   0  0  0  0  0  0  0  0  0  0  0  0
    5.7126    1.6019    0.0000 C   0  0  2  0  0  0  0  0  0  0  0  0
   10.0757   -0.9407    0.0000 C   0  0  0  0  0  0  0  0  0  0  0  0
    5.6390    0.6106    0.0000 C   0  0  0  0  0  0  0  0  0  0  0  0
    4.9488    2.2474    0.0000 C   0  0  0  0  0  0  0  0  0  0  0  0
    6.7030   -0.7561    0.0000 C   0  0  0  0  0  0  0  0  0  0  0  0
    4.8499   -0.0037    0.0000 C   0  0  0  0  0  0  0  0  0  0  0  0
    5.1258    3.2316    0.0000 C   0  0  0  0  0  0  0  0  0  0  0  0
    5.9139   -1.3704    0.0000 C   0  0  0  0  0  0  0  0  0  0  0  0
    4.3620    3.8770    0.0000 C   0  0  0  0  0  0  0  0  0  0  0  0
    4.5391    4.8612    0.0000 C   0  0  0  0  0  0  0  0  0  0  0  0
    5.2623   -2.9752    0.0000 C   0  0  0  0  0  0  0  0  0  0  0  0
    3.7753    5.5066    0.0000 C   0  0  0  0  0  0  0  0  0  0  0  0
    5.4799    5.2000    0.0000 C   0  0  0  0  0  0  0  0  0  0  0  0
    5.3997   -3.9657    0.0000 C   0  0  0  0  0  0  0  0  0  0  0  0
    3.9523    6.4908    0.0000 C   0  0  0  0  0  0  0  0  0  0  0  0
    5.6570    6.1842    0.0000 C   0  0  0  0  0  0  0  0  0  0  0  0
    2.8008    5.1387    0.0000 C   0  0  0  0  0  0  0  0  0  0  0  0
    4.8932    6.8296    0.0000 C   0  0  0  0  0  0  0  0  0  0  0  0
    3.1672    7.1753    0.0000 C   0  0  0  0  0  0  0  0  0  0  0  0
    4.6106   -4.5800    0.0000 C   0  0  0  0  0  0  0  0  0  0  0  0
    6.3262   -4.3419    0.0000 C   0  0  0  0  0  0  0  0  0  0  0  0
    2.0000    5.8049    0.0000 C   0  0  0  0  0  0  0  0  0  0  0  0
    2.1844    6.8300    0.0000 C   0  0  0  0  0  0  0  0  0  0  0  0
    4.7481   -5.5705    0.0000 C   0  0  0  0  0  0  0  0  0  0  0  0
    6.4637   -5.3324    0.0000 C   0  0  0  0  0  0  0  0  0  0  0  0
    5.6746   -5.9468    0.0000 C   0  0  0  0  0  0  0  0  0  0  0  0
   10.3173    2.5150    0.0000 B   0  0  0  0  0  0  0  0  0  0  0  0
   12.9984    3.7792    0.0000 H   0  0  0  0  0  0  0  0  0  0  0  0
   13.5175    5.7614    0.0000 H   0  0  0  0  0  0  0  0  0  0  0  0
   12.6483    6.8502    0.0000 H   0  0  0  0  0  0  0  0  0  0  0  0
   11.7174    6.4098    0.0000 H   0  0  0  0  0  0  0  0  0  0  0  0
   11.0289    5.6441    0.0000 H   0  0  0  0  0  0  0  0  0  0  0  0
   10.4196    5.1079    0.0000 H   0  0  0  0  0  0  0  0  0  0  0  0
   10.2438    4.4089    0.0000 H   0  0  0  0  0  0  0  0  0  0  0  0
   15.3833    4.3412    0.0000 H   0  0  0  0  0  0  0  0  0  0  0  0
   15.6102    5.1882    0.0000 H   0  0  0  0  0  0  0  0  0  0  0  0
   14.7633    5.4151    0.0000 H   0  0  0  0  0  0  0  0  0  0  0  0
   14.1703    3.2022    0.0000 H   0  0  0  0  0  0  0  0  0  0  0  0
   15.0173    2.9752    0.0000 H   0  0  0  0  0  0  0  0  0  0  0  0
   15.2442    3.8222    0.0000 H   0  0  0  0  0  0  0  0  0  0  0  0
   12.0697    2.4305    0.0000 H   0  0  0  0  0  0  0  0  0  0  0  0
   12.9304    2.5978    0.0000 H   0  0  0  0  0  0  0  0  0  0  0  0
   12.7631    3.4585    0.0000 H   0  0  0  0  0  0  0  0  0  0  0  0
    9.4864    2.2432    0.0000 H   0  0  0  0  0  0  0  0  0  0  0  0
   10.6425    0.3565    0.0000 H   0  0  0  0  0  0  0  0  0  0  0  0
   10.6981    1.1516    0.0000 H   0  0  0  0  0  0  0  0  0  0  0  0
    8.4888    2.3130    0.0000 H   0  0  0  0  0  0  0  0  0  0  0  0
    9.0188    0.0014    0.0000 H   0  0  0  0  0  0  0  0  0  0  0  0
    7.4463    0.4258    0.0000 H   0  0  0  0  0  0  0  0  0  0  0  0
    7.2354    2.1109    0.0000 H   0  0  0  0  0  0  0  0  0  0  0  0
    6.4669    2.4230    0.0000 H   0  0  0  0  0  0  0  0  0  0  0  0
    5.1409    1.3619    0.0000 H   0  0  0  0  0  0  0  0  0  0  0  0
    9.7290   -1.4547    0.0000 H   0  0  0  0  0  0  0  0  0  0  0  0
   10.6942   -0.9839    0.0000 H   0  0  0  0  0  0  0  0  0  0  0  0
    4.3669    2.4614    0.0000 H   0  0  0  0  0  0  0  0  0  0  0  0
    4.6369    1.7115    0.0000 H   0  0  0  0  0  0  0  0  0  0  0  0
    5.7077    3.0175    0.0000 H   0  0  0  0  0  0  0  0  0  0  0  0
    5.4377    3.7674    0.0000 H   0  0  0  0  0  0  0  0  0  0  0  0
    3.7801    4.0911    0.0000 H   0  0  0  0  0  0  0  0  0  0  0  0
    4.0502    3.3412    0.0000 H   0  0  0  0  0  0  0  0  0  0  0  0
    6.6258   -2.5942    0.0000 H   0  0  0  0  0  0  0  0  0  0  0  0
    4.9721   -2.4273    0.0000 H   0  0  0  0  0  0  0  0  0  0  0  0
    4.6723   -3.1658    0.0000 H   0  0  0  0  0  0  0  0  0  0  0  0
    5.9535    4.7998    0.0000 H   0  0  0  0  0  0  0  0  0  0  0  0
    6.2403    6.3942    0.0000 H   0  0  0  0  0  0  0  0  0  0  0  0
    2.6981    4.5273    0.0000 H   0  0  0  0  0  0  0  0  0  0  0  0
    5.0030    7.4398    0.0000 H   0  0  0  0  0  0  0  0  0  0  0  0
    3.2840    7.7842    0.0000 H   0  0  0  0  0  0  0  0  0  0  0  0
    4.0362   -4.3468    0.0000 H   0  0  0  0  0  0  0  0  0  0  0  0
    6.8155   -3.9611    0.0000 H   0  0  0  0  0  0  0  0  0  0  0  0
    1.4175    5.5926    0.0000 H   0  0  0  0  0  0  0  0  0  0  0  0
    1.7124    7.2320    0.0000 H   0  0  0  0  0  0  0  0  0  0  0  0
    7.0382   -5.5657    0.0000 H   0  0  0  0  0  0  0  0  0  0  0  0
    5.7599   -6.5609    0.0000 H   0  0  0  0  0  0  0  0  0  0  0  0
  1 34  1  0  0  0  0
  2 17  1  0  0  0  0
  2 55  1  0  0  0  0
  3 19  1  0  0  0  0
  3 55  1  0  0  0  0
  4 25  2  0  0  0  0
  5 33  2  0  0  0  0
  6 12  1  0  0  0  0
  7 12  2  0  0  0  0
 23  8  1  6  0  0  0
  8 25  1  0  0  0  0
  8 75  1  0  0  0  0
  9 27  1  0  0  0  0
  9 31  1  0  0  0  0
  9 33  1  0  0  0  0
 10 34  1  0  0  0  0
 10 36  2  0  0  0  0
 11 36  1  0  0  0  0
 11 39  1  0  0  0  0
 11 89  1  0  0  0  0
 12 52  1  0  0  0  0
 13 14  1  0  0  0  0
 13 16  1  0  0  0  0
 13 17  1  0  0  0  0
 13 56  1  0  0  0  0
 14 15  1  0  0  0  0
 14 20  1  0  0  0  0
 14 21  1  0  0  0  0
 15 16  1  0  0  0  0
 15 18  1  0  0  0  0
 15 57  1  0  0  0  0
 16 58  1  0  0  0  0
 16 59  1  0  0  0  0
 17 19  1  0  0  0  0
 17 22  1  6  0  0  0
 18 19  1  0  0  0  0
 18 60  1  0  0  0  0
 18 61  1  0  0  0  0
 19 62  1  0  0  0  0
 20 63  1  0  0  0  0
 20 64  1  0  0  0  0
 20 65  1  0  0  0  0
 21 66  1  0  0  0  0
 21 67  1  0  0  0  0
 21 68  1  0  0  0  0
 22 69  1  0  0  0  0
 22 70  1  0  0  0  0
 22 71  1  0  0  0  0
 23 24  1  0  0  0  0
 23 55  1  0  0  0  0
 23 72  1  0  0  0  0
 24 26  1  0  0  0  0
 24 73  1  0  0  0  0
 24 74  1  0  0  0  0
 27 25  1  1  0  0  0
 26 30  2  0  0  0  0
 26 76  1  0  0  0  0
 27 28  1  0  0  0  0
 27 77  1  0  0  0  0
 28 29  1  0  0  0  0
 28 78  1  0  0  0  0
 28 79  1  0  0  0  0
 29 31  1  0  0  0  0
 29 32  1  6  0  0  0
 29 80  1  0  0  0  0
 30 81  1  0  0  0  0
 30 82  1  0  0  0  0
 31 34  2  0  0  0  0
 32 35  1  0  0  0  0
 32 83  1  0  0  0  0
 32 84  1  0  0  0  0
 33 36  1  0  0  0  0
 35 37  1  0  0  0  0
 35 85  1  0  0  0  0
 35 86  1  0  0  0  0
 37 38  1  0  0  0  0
 37 87  1  0  0  0  0
 37 88  1  0  0  0  0
 38 40  1  0  0  0  0
 38 41  2  0  0  0  0
 39 42  1  0  0  0  0
 39 90  1  0  0  0  0
 39 91  1  0  0  0  0
 40 43  1  0  0  0  0
 40 45  2  0  0  0  0
 41 44  1  0  0  0  0
 41 92  1  0  0  0  0
 42 48  2  0  0  0  0
 42 49  1  0  0  0  0
 43 46  1  0  0  0  0
 43 47  2  0  0  0  0
 44 46  2  0  0  0  0
 44 93  1  0  0  0  0
 45 50  1  0  0  0  0
 45 94  1  0  0  0  0
 46 95  1  0  0  0  0
 47 51  1  0  0  0  0
 47 96  1  0  0  0  0
 48 52  1  0  0  0  0
 48 97  1  0  0  0  0
 49 53  2  0  0  0  0
 49 98  1  0  0  0  0
 50 51  2  0  0  0  0
 50 99  1  0  0  0  0
 51100  1  0  0  0  0
 52 54  2  0  0  0  0
 53 54  1  0  0  0  0
 53101  1  0  0  0  0
 54102  1  0  0  0  0
M  CHG  2   6  -1  12   1
M  END
> <PUBCHEM_COMPOUND_CID>
504227
> <PUBCHEM_COMPOUND_CANONICALIZED>
1
> <PUBCHEM_CACTVS_COMPLEXITY>
1580
> <PUBCHEM_CACTVS_HBOND_ACCEPTOR>
7
> <PUBCHEM_CACTVS_HBOND_DONOR>
2
> <PUBCHEM_CACTVS_ROTATABLE_BOND>
12
> <PUBCHEM_CACTVS_SUBSKEYS>
AAADcfJ/uAAEAAAAAAAAAAAAAABgAWJAAAAwYMGDAAAAAEjBVAAoHgIUAAAAD37hmAYzwMPQQACpAidydwCCAAEgAgApiIGIZIoJYDKAmbGUIAhklgCIyAeYyfCPgAACQAAQAADAAAaAADCAAAAAAAAAAA==
> <PUBCHEM_IUPAC_OPENEYE_NAME>
(6S,8R)-1-chloro-8-[3-(1-naphthyl)propyl]-3-[(3-nitrophenyl)methylamino]-4-oxo-N-[(1R)-1-[(2R)-2,9,9-trimethyl-3,5-dioxa-4-boratricyclo[6.1.1.02,6]decan-4-yl]but-3-enyl]-7,8-dihydro-6H-pyrrolo[1,2-a]pyrazine-6-carboxamide
> <PUBCHEM_IUPAC_CAS_NAME>
(6S,8R)-1-chloro-8-[3-(1-naphthalenyl)propyl]-3-[(3-nitrophenyl)methylamino]-4-oxo-N-[(1R)-1-[(2R)-2,9,9-trimethyl-3,5-dioxa-4-boratricyclo[6.1.1.02,6]decan-4-yl]but-3-enyl]-7,8-dihydro-6H-pyrrolo[1,2-a]pyrazine-6-carboxamide
> <PUBCHEM_IUPAC_NAME_MARKUP>
(6<I>S</I>,8<I>R</I>)-1-chloro-8-(3-naphthalen-1-ylpropyl)-3-[(3-nitrophenyl)methylamino]-4-oxo-<I>N</I>-[(1<I>R</I>)-1-[(2<I>R</I>)-2,9,9-trimethyl-3,5-dioxa-4-boratricyclo[6.1.1.0<SUP>2,6</SUP>]decan-4-yl]but-3-enyl]-7,8-dihydro-6<I>H</I>-pyrrolo[1,2-a]pyrazine-6-carboxamide
> <PUBCHEM_IUPAC_NAME>
(6S,8R)-1-chloro-8-(3-naphthalen-1-ylpropyl)-3-[(3-nitrophenyl)methylamino]-4-oxo-N-[(1R)-1-[(2R)-2,9,9-trimethyl-3,5-dioxa-4-boratricyclo[6.1.1.02,6]decan-4-yl]but-3-enyl]-7,8-dihydro-6H-pyrrolo[1,2-a]pyrazine-6-carboxamide
> <PUBCHEM_IUPAC_SYSTEMATIC_NAME>
(6S,8R)-1-chloranyl-8-(3-naphthalen-1-ylpropyl)-3-[(3-nitrophenyl)methylamino]-4-oxidanylidene-N-[(1R)-1-[(2R)-2,9,9-trimethyl-3,5-dioxa-4-boratricyclo[6.1.1.02,6]decan-4-yl]but-3-enyl]-7,8-dihydro-6H-pyrrolo[1,2-a]pyrazine-6-carboxamide
> <PUBCHEM_IUPAC_TRADITIONAL_NAME>
(6S,8R)-1-chloro-4-keto-8-[3-(1-naphthyl)propyl]-3-[(3-nitrobenzyl)amino]-N-[(1R)-1-[(2R)-2,9,9-trimethyl-3,5-dioxa-4-boratricyclo[6.1.1.02,6]decan-4-yl]but-3-enyl]-7,8-dihydro-6H-pyrrolo[1,2-a]pyrazine-6-carboxamide
> <PUBCHEM_IUPAC_INCHI>
InChI=1S/C42H47BClN5O6/c1-5-11-35(43-54-34-23-29-22-33(41(29,2)3)42(34,4)55-43)46-39(50)32-21-28(17-10-16-27-15-9-14-26-13-6-7-19-31(26)27)36-37(44)47-38(40(51)48(32)36)45-24-25-12-8-18-30(20-25)49(52)53/h5-9,12-15,18-20,28-29,32-35H,1,10-11,16-17,21-24H2,2-4H3,(H,45,47)(H,46,50)/t28-,29?,32+,33?,34?,35+,42-/m1/s1
> <PUBCHEM_IUPAC_INCHIKEY>
GHHJQNIZTDZSEL-GBISQRIMSA-N
> <PUBCHEM_EXACT_MASS>
763.3307921
> <PUBCHEM_MOLECULAR_FORMULA>
C42H47BClN5O6
> <PUBCHEM_MOLECULAR_WEIGHT>
764.1
> <PUBCHEM_OPENEYE_CAN_SMILES>
B1(OC2CC3CC(C3(C)C)C2(O1)C)C(CC=C)NC(=O)C4CC(C5=C(N=C(C(=O)N45)NCC6=CC(=CC=C6)[N+](=O)[O-])Cl)CCCC7=CC=CC8=CC=CC=C87
> <PUBCHEM_OPENEYE_ISO_SMILES>
B1(OC2CC3CC([C@]2(O1)C)C3(C)C)[C@H](CC=C)NC(=O)[C@@H]4C[C@H](C5=C(N=C(C(=O)N45)NCC6=CC(=CC=C6)[N+](=O)[O-])Cl)CCCC7=CC=CC8=CC=CC=C87
> <PUBCHEM_CACTVS_TPSA>
138
> <PUBCHEM_MONOISOTOPIC_WEIGHT>
763.3307921
> <PUBCHEM_TOTAL_CHARGE>
0
> <PUBCHEM_HEAVY_ATOM_COUNT>
55
> <PUBCHEM_ATOM_DEF_STEREO_COUNT>
4
> <PUBCHEM_ATOM_UDEF_STEREO_COUNT>
3
> <PUBCHEM_BOND_DEF_STEREO_COUNT>
0
> <PUBCHEM_BOND_UDEF_STEREO_COUNT>
0
> <PUBCHEM_ISOTOPIC_ATOM_COUNT>
0
> <PUBCHEM_COMPONENT_COUNT>
1
> <PUBCHEM_CACTVS_TAUTO_COUNT>
-1
> <PUBCHEM_COORDINATE_TYPE>
1
5
255
> <PUBCHEM_BONDANNOTATIONS>
10  34  8
10  36  8
13  16  3
15  16  3
17  22  6
19  18  3
27  25  5
29  32  6
31  34  8
33  36  8
38  40  8
38  41  8
40  43  8
40  45  8
41  44  8
42  48  8
42  49  8
43  46  8
43  47  8
44  46  8
45  50  8
47  51  8
48  52  8
49  53  8
50  51  8
52  54  8
53  54  8
23  8  6
9  31  8
9  33  8
$$$$
