504228
  -OEChem-10302200282D
103110  0     1  0  0  0  0  0999 V2000
    3.9234    0.1024    0.0000 Cl  0  0  0  0  0  0  0  0  0  0  0  0
    8.3168   -6.3549    0.0000 F   0  0  0  0  0  0  0  0  0  0  0  0
    7.0140   -6.9053    0.0000 F   0  0  0  0  0  0  0  0  0  0  0  0
    7.7665   -5.0522    0.0000 F   0  0  0  0  0  0  0  0  0  0  0  0
   11.3108    2.2788    0.0000 O   0  0  0  0  0  0  0  0  0  0  0  0
    9.9765    3.1788    0.0000 O   0  0  0  0  0  0  0  0  0  0  0  0
    8.6398   -0.2422    0.0000 O   0  0  0  0  0  0  0  0  0  0  0  0
    7.6295   -1.4024    0.0000 O   0  0  0  0  0  0  0  0  0  0  0  0
    8.7606    1.4856    0.0000 N   0  0  0  0  0  0  0  0  0  0  0  0
    6.5655   -0.0357    0.0000 N   0  0  0  0  0  0  0  0  0  0  0  0
    4.9873   -1.2643    0.0000 N   0  0  0  0  0  0  0  0  0  0  0  0
    6.0513   -2.6310    0.0000 N   0  0  0  0  0  0  0  0  0  0  0  0
   12.8083    4.0993    0.0000 C   0  0  3  0  0  0  0  0  0  0  0  0
   14.2073    4.1081    0.0000 C   0  0  0  0  0  0  0  0  0  0  0  0
   13.0672    5.0652    0.0000 C   0  0  3  0  0  0  0  0  0  0  0  0
   12.3305    6.0478    0.0000 C   0  0  0  0  0  0  0  0  0  0  0  0
   11.5873    3.2336    0.0000 C   0  0  2  0  0  0  0  0  0  0  0  0
   11.0339    4.7541    0.0000 C   0  0  0  0  0  0  0  0  0  0  0  0
   10.7583    3.7928    0.0000 C   0  0  3  0  0  0  0  0  0  0  0  0
   15.0733    4.6081    0.0000 C   0  0  0  0  0  0  0  0  0  0  0  0
   14.7073    3.2421    0.0000 C   0  0  0  0  0  0  0  0  0  0  0  0
   12.4164    2.6744    0.0000 C   0  0  0  0  0  0  0  0  0  0  0  0
    9.7581    1.4159    0.0000 C   0  0  1  0  0  0  0  0  0  0  0  0
   10.1965    0.5171    0.0000 C   0  0  0  0  0  0  0  0  0  0  0  0
    8.2014    0.6566    0.0000 C   0  0  0  0  0  0  0  0  0  0  0  0
    9.6373   -0.3119    0.0000 C   0  0  0  0  0  0  0  0  0  0  0  0
    7.2038    0.7264    0.0000 C   0  0  2  0  0  0  0  0  0  0  0  0
    6.6778    1.5698    0.0000 C   0  0  0  0  0  0  0  0  0  0  0  0
    5.7126    1.3319    0.0000 C   0  0  2  0  0  0  0  0  0  0  0  0
   10.0757   -1.2107    0.0000 C   0  0  0  0  0  0  0  0  0  0  0  0
    5.6390    0.3405    0.0000 C   0  0  0  0  0  0  0  0  0  0  0  0
    4.9488    1.9773    0.0000 C   0  0  0  0  0  0  0  0  0  0  0  0
    6.7030   -1.0262    0.0000 C   0  0  0  0  0  0  0  0  0  0  0  0
    4.8499   -0.2738    0.0000 C   0  0  0  0  0  0  0  0  0  0  0  0
    5.1258    2.9615    0.0000 C   0  0  0  0  0  0  0  0  0  0  0  0
    5.9139   -1.6405    0.0000 C   0  0  0  0  0  0  0  0  0  0  0  0
    4.3620    3.6069    0.0000 C   0  0  0  0  0  0  0  0  0  0  0  0
    4.5391    4.5911    0.0000 C   0  0  0  0  0  0  0  0  0  0  0  0
    5.2623   -3.2453    0.0000 C   0  0  0  0  0  0  0  0  0  0  0  0
    3.7753    5.2366    0.0000 C   0  0  0  0  0  0  0  0  0  0  0  0
    5.4799    4.9299    0.0000 C   0  0  0  0  0  0  0  0  0  0  0  0
    5.3997   -4.2358    0.0000 C   0  0  0  0  0  0  0  0  0  0  0  0
    3.9523    6.2208    0.0000 C   0  0  0  0  0  0  0  0  0  0  0  0
    5.6570    5.9141    0.0000 C   0  0  0  0  0  0  0  0  0  0  0  0
    2.8008    4.8686    0.0000 C   0  0  0  0  0  0  0  0  0  0  0  0
    4.8932    6.5595    0.0000 C   0  0  0  0  0  0  0  0  0  0  0  0
    3.1672    6.9053    0.0000 C   0  0  0  0  0  0  0  0  0  0  0  0
    6.3262   -4.6120    0.0000 C   0  0  0  0  0  0  0  0  0  0  0  0
    4.6106   -4.8501    0.0000 C   0  0  0  0  0  0  0  0  0  0  0  0
    2.0000    5.5348    0.0000 C   0  0  0  0  0  0  0  0  0  0  0  0
    2.1844    6.5600    0.0000 C   0  0  0  0  0  0  0  0  0  0  0  0
    6.4637   -5.6025    0.0000 C   0  0  0  0  0  0  0  0  0  0  0  0
    4.7481   -5.8406    0.0000 C   0  0  0  0  0  0  0  0  0  0  0  0
    5.6746   -6.2168    0.0000 C   0  0  0  0  0  0  0  0  0  0  0  0
    7.3902   -5.9787    0.0000 C   0  0  0  0  0  0  0  0  0  0  0  0
   10.3173    2.2449    0.0000 B   0  0  0  0  0  0  0  0  0  0  0  0
   12.9984    3.5091    0.0000 H   0  0  0  0  0  0  0  0  0  0  0  0
   13.5175    5.4914    0.0000 H   0  0  0  0  0  0  0  0  0  0  0  0
   12.6483    6.5802    0.0000 H   0  0  0  0  0  0  0  0  0  0  0  0
   11.7174    6.1398    0.0000 H   0  0  0  0  0  0  0  0  0  0  0  0
   11.0289    5.3741    0.0000 H   0  0  0  0  0  0  0  0  0  0  0  0
   10.4196    4.8379    0.0000 H   0  0  0  0  0  0  0  0  0  0  0  0
   10.2438    4.1388    0.0000 H   0  0  0  0  0  0  0  0  0  0  0  0
   15.3833    4.0712    0.0000 H   0  0  0  0  0  0  0  0  0  0  0  0
   15.6102    4.9181    0.0000 H   0  0  0  0  0  0  0  0  0  0  0  0
   14.7633    5.1450    0.0000 H   0  0  0  0  0  0  0  0  0  0  0  0
   14.1703    2.9321    0.0000 H   0  0  0  0  0  0  0  0  0  0  0  0
   15.0173    2.7051    0.0000 H   0  0  0  0  0  0  0  0  0  0  0  0
   15.2442    3.5521    0.0000 H   0  0  0  0  0  0  0  0  0  0  0  0
   12.0697    2.1604    0.0000 H   0  0  0  0  0  0  0  0  0  0  0  0
   12.9304    2.3277    0.0000 H   0  0  0  0  0  0  0  0  0  0  0  0
   12.7631    3.1884    0.0000 H   0  0  0  0  0  0  0  0  0  0  0  0
    9.4864    1.9732    0.0000 H   0  0  0  0  0  0  0  0  0  0  0  0
   10.6425    0.0864    0.0000 H   0  0  0  0  0  0  0  0  0  0  0  0
   10.6981    0.8815    0.0000 H   0  0  0  0  0  0  0  0  0  0  0  0
    8.4888    2.0429    0.0000 H   0  0  0  0  0  0  0  0  0  0  0  0
    9.0188   -0.2687    0.0000 H   0  0  0  0  0  0  0  0  0  0  0  0
    7.4463    0.1558    0.0000 H   0  0  0  0  0  0  0  0  0  0  0  0
    7.2354    1.8408    0.0000 H   0  0  0  0  0  0  0  0  0  0  0  0
    6.4669    2.1529    0.0000 H   0  0  0  0  0  0  0  0  0  0  0  0
    5.1409    1.0918    0.0000 H   0  0  0  0  0  0  0  0  0  0  0  0
    9.7290   -1.7247    0.0000 H   0  0  0  0  0  0  0  0  0  0  0  0
   10.6942   -1.2540    0.0000 H   0  0  0  0  0  0  0  0  0  0  0  0
    4.3669    2.1914    0.0000 H   0  0  0  0  0  0  0  0  0  0  0  0
    4.6369    1.4414    0.0000 H   0  0  0  0  0  0  0  0  0  0  0  0
    5.7077    2.7474    0.0000 H   0  0  0  0  0  0  0  0  0  0  0  0
    5.4377    3.4974    0.0000 H   0  0  0  0  0  0  0  0  0  0  0  0
    3.7801    3.8210    0.0000 H   0  0  0  0  0  0  0  0  0  0  0  0
    4.0502    3.0711    0.0000 H   0  0  0  0  0  0  0  0  0  0  0  0
    6.6258   -2.8643    0.0000 H   0  0  0  0  0  0  0  0  0  0  0  0
    4.9721   -2.6974    0.0000 H   0  0  0  0  0  0  0  0  0  0  0  0
    4.6723   -3.4359    0.0000 H   0  0  0  0  0  0  0  0  0  0  0  0
    5.9535    4.5297    0.0000 H   0  0  0  0  0  0  0  0  0  0  0  0
    6.2403    6.1241    0.0000 H   0  0  0  0  0  0  0  0  0  0  0  0
    2.6981    4.2572    0.0000 H   0  0  0  0  0  0  0  0  0  0  0  0
    5.0030    7.1698    0.0000 H   0  0  0  0  0  0  0  0  0  0  0  0
    3.2840    7.5142    0.0000 H   0  0  0  0  0  0  0  0  0  0  0  0
    6.8155   -4.2312    0.0000 H   0  0  0  0  0  0  0  0  0  0  0  0
    4.0362   -4.6168    0.0000 H   0  0  0  0  0  0  0  0  0  0  0  0
    1.4175    5.3225    0.0000 H   0  0  0  0  0  0  0  0  0  0  0  0
    1.7124    6.9620    0.0000 H   0  0  0  0  0  0  0  0  0  0  0  0
    4.2589   -6.2215    0.0000 H   0  0  0  0  0  0  0  0  0  0  0  0
    5.7599   -6.8309    0.0000 H   0  0  0  0  0  0  0  0  0  0  0  0
  1 34  1  0  0  0  0
  2 55  1  0  0  0  0
  3 55  1  0  0  0  0
  4 55  1  0  0  0  0
  5 17  1  0  0  0  0
  5 56  1  0  0  0  0
  6 19  1  0  0  0  0
  6 56  1  0  0  0  0
  7 25  2  0  0  0  0
  8 33  2  0  0  0  0
 23  9  1  6  0  0  0
  9 25  1  0  0  0  0
  9 76  1  0  0  0  0
 10 27  1  0  0  0  0
 10 31  1  0  0  0  0
 10 33  1  0  0  0  0
 11 34  1  0  0  0  0
 11 36  2  0  0  0  0
 12 36  1  0  0  0  0
 12 39  1  0  0  0  0
 12 90  1  0  0  0  0
 13 14  1  0  0  0  0
 13 16  1  0  0  0  0
 13 17  1  0  0  0  0
 13 57  1  0  0  0  0
 14 15  1  0  0  0  0
 14 20  1  0  0  0  0
 14 21  1  0  0  0  0
 15 16  1  0  0  0  0
 15 18  1  0  0  0  0
 15 58  1  0  0  0  0
 16 59  1  0  0  0  0
 16 60  1  0  0  0  0
 17 19  1  0  0  0  0
 17 22  1  6  0  0  0
 18 19  1  0  0  0  0
 18 61  1  0  0  0  0
 18 62  1  0  0  0  0
 19 63  1  0  0  0  0
 20 64  1  0  0  0  0
 20 65  1  0  0  0  0
 20 66  1  0  0  0  0
 21 67  1  0  0  0  0
 21 68  1  0  0  0  0
 21 69  1  0  0  0  0
 22 70  1  0  0  0  0
 22 71  1  0  0  0  0
 22 72  1  0  0  0  0
 23 24  1  0  0  0  0
 23 56  1  0  0  0  0
 23 73  1  0  0  0  0
 24 26  1  0  0  0  0
 24 74  1  0  0  0  0
 24 75  1  0  0  0  0
 27 25  1  1  0  0  0
 26 30  2  0  0  0  0
 26 77  1  0  0  0  0
 27 28  1  0  0  0  0
 27 78  1  0  0  0  0
 28 29  1  0  0  0  0
 28 79  1  0  0  0  0
 28 80  1  0  0  0  0
 29 31  1  0  0  0  0
 29 32  1  6  0  0  0
 29 81  1  0  0  0  0
 30 82  1  0  0  0  0
 30 83  1  0  0  0  0
 31 34  2  0  0  0  0
 32 35  1  0  0  0  0
 32 84  1  0  0  0  0
 32 85  1  0  0  0  0
 33 36  1  0  0  0  0
 35 37  1  0  0  0  0
 35 86  1  0  0  0  0
 35 87  1  0  0  0  0
 37 38  1  0  0  0  0
 37 88  1  0  0  0  0
 37 89  1  0  0  0  0
 38 40  1  0  0  0  0
 38 41  2  0  0  0  0
 39 42  1  0  0  0  0
 39 91  1  0  0  0  0
 39 92  1  0  0  0  0
 40 43  1  0  0  0  0
 40 45  2  0  0  0  0
 41 44  1  0  0  0  0
 41 93  1  0  0  0  0
 42 48  2  0  0  0  0
 42 49  1  0  0  0  0
 43 46  1  0  0  0  0
 43 47  2  0  0  0  0
 44 46  2  0  0  0  0
 44 94  1  0  0  0  0
 45 50  1  0  0  0  0
 45 95  1  0  0  0  0
 46 96  1  0  0  0  0
 47 51  1  0  0  0  0
 47 97  1  0  0  0  0
 48 52  1  0  0  0  0
 48 98  1  0  0  0  0
 49 53  2  0  0  0  0
 49 99  1  0  0  0  0
 50 51  2  0  0  0  0
 50100  1  0  0  0  0
 51101  1  0  0  0  0
 52 54  2  0  0  0  0
 52 55  1  0  0  0  0
 53 54  1  0  0  0  0
 53102  1  0  0  0  0
 54103  1  0  0  0  0
M  END
> <PUBCHEM_COMPOUND_CID>
504228
> <PUBCHEM_COMPOUND_CANONICALIZED>
1
> <PUBCHEM_CACTVS_COMPLEXITY>
1590
> <PUBCHEM_CACTVS_HBOND_ACCEPTOR>
8
> <PUBCHEM_CACTVS_HBOND_DONOR>
2
> <PUBCHEM_CACTVS_ROTATABLE_BOND>
12
> <PUBCHEM_CACTVS_SUBSKEYS>
AAADcfJ/uYAEAAAAAAAAAAAAAABgAWJAAAAwYMGDAAAAAEjBVAAoHwIQAAAAD37hmBYzAMPAAACoAidydACCAAEgAAAJiIGIBIgJYDKAmTGUIAhklgCIiAeYyfCPgAACAAAQAADAAAYAADCAAAAAAAAAAA==
> <PUBCHEM_IUPAC_OPENEYE_NAME>
(6S,8R)-1-chloro-8-[3-(1-naphthyl)propyl]-4-oxo-3-[[3-(trifluoromethyl)phenyl]methylamino]-N-[(1R)-1-[(2R)-2,9,9-trimethyl-3,5-dioxa-4-boratricyclo[6.1.1.02,6]decan-4-yl]but-3-enyl]-7,8-dihydro-6H-pyrrolo[1,2-a]pyrazine-6-carboxamide
> <PUBCHEM_IUPAC_CAS_NAME>
(6S,8R)-1-chloro-8-[3-(1-naphthalenyl)propyl]-4-oxo-3-[[3-(trifluoromethyl)phenyl]methylamino]-N-[(1R)-1-[(2R)-2,9,9-trimethyl-3,5-dioxa-4-boratricyclo[6.1.1.02,6]decan-4-yl]but-3-enyl]-7,8-dihydro-6H-pyrrolo[1,2-a]pyrazine-6-carboxamide
> <PUBCHEM_IUPAC_NAME_MARKUP>
(6<I>S</I>,8<I>R</I>)-1-chloro-8-(3-naphthalen-1-ylpropyl)-4-oxo-3-[[3-(trifluoromethyl)phenyl]methylamino]-<I>N</I>-[(1<I>R</I>)-1-[(2<I>R</I>)-2,9,9-trimethyl-3,5-dioxa-4-boratricyclo[6.1.1.0<SUP>2,6</SUP>]decan-4-yl]but-3-enyl]-7,8-dihydro-6<I>H</I>-pyrrolo[1,2-a]pyrazine-6-carboxamide
> <PUBCHEM_IUPAC_NAME>
(6S,8R)-1-chloro-8-(3-naphthalen-1-ylpropyl)-4-oxo-3-[[3-(trifluoromethyl)phenyl]methylamino]-N-[(1R)-1-[(2R)-2,9,9-trimethyl-3,5-dioxa-4-boratricyclo[6.1.1.02,6]decan-4-yl]but-3-enyl]-7,8-dihydro-6H-pyrrolo[1,2-a]pyrazine-6-carboxamide
> <PUBCHEM_IUPAC_SYSTEMATIC_NAME>
(6S,8R)-1-chloranyl-8-(3-naphthalen-1-ylpropyl)-4-oxidanylidene-3-[[3-(trifluoromethyl)phenyl]methylamino]-N-[(1R)-1-[(2R)-2,9,9-trimethyl-3,5-dioxa-4-boratricyclo[6.1.1.02,6]decan-4-yl]but-3-enyl]-7,8-dihydro-6H-pyrrolo[1,2-a]pyrazine-6-carboxamide
> <PUBCHEM_IUPAC_TRADITIONAL_NAME>
(6S,8R)-1-chloro-4-keto-8-[3-(1-naphthyl)propyl]-3-[[3-(trifluoromethyl)benzyl]amino]-N-[(1R)-1-[(2R)-2,9,9-trimethyl-3,5-dioxa-4-boratricyclo[6.1.1.02,6]decan-4-yl]but-3-enyl]-7,8-dihydro-6H-pyrrolo[1,2-a]pyrazine-6-carboxamide
> <PUBCHEM_IUPAC_INCHI>
InChI=1S/C43H47BClF3N4O4/c1-5-11-35(44-55-34-23-30-22-33(41(30,2)3)42(34,4)56-44)50-39(53)32-21-28(17-10-16-27-15-9-14-26-13-6-7-19-31(26)27)36-37(45)51-38(40(54)52(32)36)49-24-25-12-8-18-29(20-25)43(46,47)48/h5-9,12-15,18-20,28,30,32-35H,1,10-11,16-17,21-24H2,2-4H3,(H,49,51)(H,50,53)/t28-,30?,32+,33?,34?,35+,42-/m1/s1
> <PUBCHEM_IUPAC_INCHIKEY>
OALVVHKXSUWDOB-OPSSZQJISA-N
> <PUBCHEM_EXACT_MASS>
786.3330983
> <PUBCHEM_MOLECULAR_FORMULA>
C43H47BClF3N4O4
> <PUBCHEM_MOLECULAR_WEIGHT>
787.1
> <PUBCHEM_OPENEYE_CAN_SMILES>
B1(OC2CC3CC(C3(C)C)C2(O1)C)C(CC=C)NC(=O)C4CC(C5=C(N=C(C(=O)N45)NCC6=CC(=CC=C6)C(F)(F)F)Cl)CCCC7=CC=CC8=CC=CC=C87
> <PUBCHEM_OPENEYE_ISO_SMILES>
B1(OC2CC3CC([C@]2(O1)C)C3(C)C)[C@H](CC=C)NC(=O)[C@@H]4C[C@H](C5=C(N=C(C(=O)N45)NCC6=CC(=CC=C6)C(F)(F)F)Cl)CCCC7=CC=CC8=CC=CC=C87
> <PUBCHEM_CACTVS_TPSA>
92.3
> <PUBCHEM_MONOISOTOPIC_WEIGHT>
786.3330983
> <PUBCHEM_TOTAL_CHARGE>
0
> <PUBCHEM_HEAVY_ATOM_COUNT>
56
> <PUBCHEM_ATOM_DEF_STEREO_COUNT>
4
> <PUBCHEM_ATOM_UDEF_STEREO_COUNT>
3
> <PUBCHEM_BOND_DEF_STEREO_COUNT>
0
> <PUBCHEM_BOND_UDEF_STEREO_COUNT>
0
> <PUBCHEM_ISOTOPIC_ATOM_COUNT>
0
> <PUBCHEM_COMPONENT_COUNT>
1
> <PUBCHEM_CACTVS_TAUTO_COUNT>
-1
> <PUBCHEM_COORDINATE_TYPE>
1
5
255
> <PUBCHEM_BONDANNOTATIONS>
10  31  8
10  33  8
11  34  8
11  36  8
13  16  3
15  16  3
17  22  6
19  18  3
27  25  5
29  32  6
31  34  8
33  36  8
38  40  8
38  41  8
40  43  8
40  45  8
41  44  8
42  48  8
42  49  8
43  46  8
43  47  8
44  46  8
45  50  8
47  51  8
48  52  8
49  53  8
50  51  8
52  54  8
53  54  8
23  9  6
$$$$
