504226
  -OEChem-10302200282D
100107  0     1  0  0  0  0  0999 V2000
    3.9234   -0.1227    0.0000 Cl  0  0  0  0  0  0  0  0  0  0  0  0
    3.9590   -6.6801    0.0000 F   0  0  0  0  0  0  0  0  0  0  0  0
   11.3108    2.0536    0.0000 O   0  0  0  0  0  0  0  0  0  0  0  0
    9.9765    2.9536    0.0000 O   0  0  0  0  0  0  0  0  0  0  0  0
    8.6398   -0.4674    0.0000 O   0  0  0  0  0  0  0  0  0  0  0  0
    7.6295   -1.6276    0.0000 O   0  0  0  0  0  0  0  0  0  0  0  0
    8.7606    1.2605    0.0000 N   0  0  0  0  0  0  0  0  0  0  0  0
    6.5655   -0.2609    0.0000 N   0  0  0  0  0  0  0  0  0  0  0  0
    4.9873   -1.4895    0.0000 N   0  0  0  0  0  0  0  0  0  0  0  0
    6.0513   -2.8562    0.0000 N   0  0  0  0  0  0  0  0  0  0  0  0
   12.8083    3.8741    0.0000 C   0  0  3  0  0  0  0  0  0  0  0  0
   14.2073    3.8829    0.0000 C   0  0  0  0  0  0  0  0  0  0  0  0
   13.0672    4.8400    0.0000 C   0  0  3  0  0  0  0  0  0  0  0  0
   12.3305    5.8226    0.0000 C   0  0  0  0  0  0  0  0  0  0  0  0
   11.5873    3.0084    0.0000 C   0  0  2  0  0  0  0  0  0  0  0  0
   11.0339    4.5289    0.0000 C   0  0  0  0  0  0  0  0  0  0  0  0
   10.7583    3.5676    0.0000 C   0  0  3  0  0  0  0  0  0  0  0  0
   15.0733    4.3829    0.0000 C   0  0  0  0  0  0  0  0  0  0  0  0
   14.7073    3.0169    0.0000 C   0  0  0  0  0  0  0  0  0  0  0  0
   12.4164    2.4492    0.0000 C   0  0  0  0  0  0  0  0  0  0  0  0
    9.7581    1.1907    0.0000 C   0  0  1  0  0  0  0  0  0  0  0  0
   10.1965    0.2919    0.0000 C   0  0  0  0  0  0  0  0  0  0  0  0
    8.2014    0.4314    0.0000 C   0  0  0  0  0  0  0  0  0  0  0  0
    9.6373   -0.5371    0.0000 C   0  0  0  0  0  0  0  0  0  0  0  0
    7.2038    0.5012    0.0000 C   0  0  2  0  0  0  0  0  0  0  0  0
    6.6778    1.3447    0.0000 C   0  0  0  0  0  0  0  0  0  0  0  0
    5.7126    1.1067    0.0000 C   0  0  2  0  0  0  0  0  0  0  0  0
   10.0757   -1.4359    0.0000 C   0  0  0  0  0  0  0  0  0  0  0  0
    5.6390    0.1153    0.0000 C   0  0  0  0  0  0  0  0  0  0  0  0
    4.9488    1.7521    0.0000 C   0  0  0  0  0  0  0  0  0  0  0  0
    6.7030   -1.2514    0.0000 C   0  0  0  0  0  0  0  0  0  0  0  0
    4.8499   -0.4990    0.0000 C   0  0  0  0  0  0  0  0  0  0  0  0
    5.1258    2.7363    0.0000 C   0  0  0  0  0  0  0  0  0  0  0  0
    5.9139   -1.8657    0.0000 C   0  0  0  0  0  0  0  0  0  0  0  0
    4.3620    3.3818    0.0000 C   0  0  0  0  0  0  0  0  0  0  0  0
    4.5391    4.3660    0.0000 C   0  0  0  0  0  0  0  0  0  0  0  0
    5.2623   -3.4705    0.0000 C   0  0  0  0  0  0  0  0  0  0  0  0
    3.7753    5.0114    0.0000 C   0  0  0  0  0  0  0  0  0  0  0  0
    5.4799    4.7047    0.0000 C   0  0  0  0  0  0  0  0  0  0  0  0
    3.9523    5.9956    0.0000 C   0  0  0  0  0  0  0  0  0  0  0  0
    5.3997   -4.4610    0.0000 C   0  0  0  0  0  0  0  0  0  0  0  0
    5.6570    5.6889    0.0000 C   0  0  0  0  0  0  0  0  0  0  0  0
    2.8008    4.6435    0.0000 C   0  0  0  0  0  0  0  0  0  0  0  0
    4.8932    6.3344    0.0000 C   0  0  0  0  0  0  0  0  0  0  0  0
    3.1672    6.6801    0.0000 C   0  0  0  0  0  0  0  0  0  0  0  0
    2.0000    5.3096    0.0000 C   0  0  0  0  0  0  0  0  0  0  0  0
    4.6106   -5.0753    0.0000 C   0  0  0  0  0  0  0  0  0  0  0  0
    6.3262   -4.8372    0.0000 C   0  0  0  0  0  0  0  0  0  0  0  0
    2.1844    6.3348    0.0000 C   0  0  0  0  0  0  0  0  0  0  0  0
    4.7481   -6.0658    0.0000 C   0  0  0  0  0  0  0  0  0  0  0  0
    6.4637   -5.8277    0.0000 C   0  0  0  0  0  0  0  0  0  0  0  0
    5.6746   -6.4420    0.0000 C   0  0  0  0  0  0  0  0  0  0  0  0
   10.3173    2.0198    0.0000 B   0  0  0  0  0  0  0  0  0  0  0  0
   12.9984    3.2839    0.0000 H   0  0  0  0  0  0  0  0  0  0  0  0
   13.5175    5.2662    0.0000 H   0  0  0  0  0  0  0  0  0  0  0  0
   12.6483    6.3550    0.0000 H   0  0  0  0  0  0  0  0  0  0  0  0
   11.7174    5.9146    0.0000 H   0  0  0  0  0  0  0  0  0  0  0  0
   11.0289    5.1489    0.0000 H   0  0  0  0  0  0  0  0  0  0  0  0
   10.4196    4.6127    0.0000 H   0  0  0  0  0  0  0  0  0  0  0  0
   10.2438    3.9137    0.0000 H   0  0  0  0  0  0  0  0  0  0  0  0
   15.3833    3.8460    0.0000 H   0  0  0  0  0  0  0  0  0  0  0  0
   15.6102    4.6929    0.0000 H   0  0  0  0  0  0  0  0  0  0  0  0
   14.7633    4.9199    0.0000 H   0  0  0  0  0  0  0  0  0  0  0  0
   14.1703    2.7069    0.0000 H   0  0  0  0  0  0  0  0  0  0  0  0
   15.0173    2.4800    0.0000 H   0  0  0  0  0  0  0  0  0  0  0  0
   15.2442    3.3269    0.0000 H   0  0  0  0  0  0  0  0  0  0  0  0
   12.0697    1.9352    0.0000 H   0  0  0  0  0  0  0  0  0  0  0  0
   12.9304    2.1026    0.0000 H   0  0  0  0  0  0  0  0  0  0  0  0
   12.7631    2.9632    0.0000 H   0  0  0  0  0  0  0  0  0  0  0  0
    9.4864    1.7480    0.0000 H   0  0  0  0  0  0  0  0  0  0  0  0
   10.6425   -0.1388    0.0000 H   0  0  0  0  0  0  0  0  0  0  0  0
   10.6981    0.6563    0.0000 H   0  0  0  0  0  0  0  0  0  0  0  0
    8.4888    1.8177    0.0000 H   0  0  0  0  0  0  0  0  0  0  0  0
    9.0188   -0.4939    0.0000 H   0  0  0  0  0  0  0  0  0  0  0  0
    7.4463   -0.0694    0.0000 H   0  0  0  0  0  0  0  0  0  0  0  0
    7.2354    1.6157    0.0000 H   0  0  0  0  0  0  0  0  0  0  0  0
    6.4669    1.9277    0.0000 H   0  0  0  0  0  0  0  0  0  0  0  0
    5.1409    0.8667    0.0000 H   0  0  0  0  0  0  0  0  0  0  0  0
    9.7290   -1.9499    0.0000 H   0  0  0  0  0  0  0  0  0  0  0  0
   10.6942   -1.4792    0.0000 H   0  0  0  0  0  0  0  0  0  0  0  0
    4.3669    1.9662    0.0000 H   0  0  0  0  0  0  0  0  0  0  0  0
    4.6369    1.2163    0.0000 H   0  0  0  0  0  0  0  0  0  0  0  0
    5.7077    2.5223    0.0000 H   0  0  0  0  0  0  0  0  0  0  0  0
    5.4377    3.2722    0.0000 H   0  0  0  0  0  0  0  0  0  0  0  0
    3.7801    3.5958    0.0000 H   0  0  0  0  0  0  0  0  0  0  0  0
    4.0502    2.8459    0.0000 H   0  0  0  0  0  0  0  0  0  0  0  0
    6.6258   -3.0894    0.0000 H   0  0  0  0  0  0  0  0  0  0  0  0
    4.9721   -2.9226    0.0000 H   0  0  0  0  0  0  0  0  0  0  0  0
    4.6723   -3.6610    0.0000 H   0  0  0  0  0  0  0  0  0  0  0  0
    5.9535    4.3046    0.0000 H   0  0  0  0  0  0  0  0  0  0  0  0
    6.2403    5.8990    0.0000 H   0  0  0  0  0  0  0  0  0  0  0  0
    2.6981    4.0320    0.0000 H   0  0  0  0  0  0  0  0  0  0  0  0
    5.0030    6.9446    0.0000 H   0  0  0  0  0  0  0  0  0  0  0  0
    3.2840    7.2890    0.0000 H   0  0  0  0  0  0  0  0  0  0  0  0
    1.4175    5.0973    0.0000 H   0  0  0  0  0  0  0  0  0  0  0  0
    4.0362   -4.8420    0.0000 H   0  0  0  0  0  0  0  0  0  0  0  0
    6.8155   -4.4563    0.0000 H   0  0  0  0  0  0  0  0  0  0  0  0
    1.7124    6.7368    0.0000 H   0  0  0  0  0  0  0  0  0  0  0  0
    7.0382   -6.0610    0.0000 H   0  0  0  0  0  0  0  0  0  0  0  0
    5.7599   -7.0561    0.0000 H   0  0  0  0  0  0  0  0  0  0  0  0
  1 32  1  0  0  0  0
  2 50  1  0  0  0  0
  3 15  1  0  0  0  0
  3 53  1  0  0  0  0
  4 17  1  0  0  0  0
  4 53  1  0  0  0  0
  5 23  2  0  0  0  0
  6 31  2  0  0  0  0
 21  7  1  6  0  0  0
  7 23  1  0  0  0  0
  7 73  1  0  0  0  0
  8 25  1  0  0  0  0
  8 29  1  0  0  0  0
  8 31  1  0  0  0  0
  9 32  1  0  0  0  0
  9 34  2  0  0  0  0
 10 34  1  0  0  0  0
 10 37  1  0  0  0  0
 10 87  1  0  0  0  0
 11 12  1  0  0  0  0
 11 14  1  0  0  0  0
 11 15  1  0  0  0  0
 11 54  1  0  0  0  0
 12 13  1  0  0  0  0
 12 18  1  0  0  0  0
 12 19  1  0  0  0  0
 13 14  1  0  0  0  0
 13 16  1  0  0  0  0
 13 55  1  0  0  0  0
 14 56  1  0  0  0  0
 14 57  1  0  0  0  0
 15 17  1  0  0  0  0
 15 20  1  6  0  0  0
 16 17  1  0  0  0  0
 16 58  1  0  0  0  0
 16 59  1  0  0  0  0
 17 60  1  0  0  0  0
 18 61  1  0  0  0  0
 18 62  1  0  0  0  0
 18 63  1  0  0  0  0
 19 64  1  0  0  0  0
 19 65  1  0  0  0  0
 19 66  1  0  0  0  0
 20 67  1  0  0  0  0
 20 68  1  0  0  0  0
 20 69  1  0  0  0  0
 21 22  1  0  0  0  0
 21 53  1  0  0  0  0
 21 70  1  0  0  0  0
 22 24  1  0  0  0  0
 22 71  1  0  0  0  0
 22 72  1  0  0  0  0
 25 23  1  1  0  0  0
 24 28  2  0  0  0  0
 24 74  1  0  0  0  0
 25 26  1  0  0  0  0
 25 75  1  0  0  0  0
 26 27  1  0  0  0  0
 26 76  1  0  0  0  0
 26 77  1  0  0  0  0
 27 29  1  0  0  0  0
 27 30  1  6  0  0  0
 27 78  1  0  0  0  0
 28 79  1  0  0  0  0
 28 80  1  0  0  0  0
 29 32  2  0  0  0  0
 30 33  1  0  0  0  0
 30 81  1  0  0  0  0
 30 82  1  0  0  0  0
 31 34  1  0  0  0  0
 33 35  1  0  0  0  0
 33 83  1  0  0  0  0
 33 84  1  0  0  0  0
 35 36  1  0  0  0  0
 35 85  1  0  0  0  0
 35 86  1  0  0  0  0
 36 38  1  0  0  0  0
 36 39  2  0  0  0  0
 37 41  1  0  0  0  0
 37 88  1  0  0  0  0
 37 89  1  0  0  0  0
 38 40  1  0  0  0  0
 38 43  2  0  0  0  0
 39 42  1  0  0  0  0
 39 90  1  0  0  0  0
 40 44  1  0  0  0  0
 40 45  2  0  0  0  0
 41 47  2  0  0  0  0
 41 48  1  0  0  0  0
 42 44  2  0  0  0  0
 42 91  1  0  0  0  0
 43 46  1  0  0  0  0
 43 92  1  0  0  0  0
 44 93  1  0  0  0  0
 45 49  1  0  0  0  0
 45 94  1  0  0  0  0
 46 49  2  0  0  0  0
 46 95  1  0  0  0  0
 47 50  1  0  0  0  0
 47 96  1  0  0  0  0
 48 51  2  0  0  0  0
 48 97  1  0  0  0  0
 49 98  1  0  0  0  0
 50 52  2  0  0  0  0
 51 52  1  0  0  0  0
 51 99  1  0  0  0  0
 52100  1  0  0  0  0
M  END
> <PUBCHEM_COMPOUND_CID>
504226
> <PUBCHEM_COMPOUND_CANONICALIZED>
1
> <PUBCHEM_CACTVS_COMPLEXITY>
1490
> <PUBCHEM_CACTVS_HBOND_ACCEPTOR>
6
> <PUBCHEM_CACTVS_HBOND_DONOR>
2
> <PUBCHEM_CACTVS_ROTATABLE_BOND>
12
> <PUBCHEM_CACTVS_SUBSKEYS>
AAADcfJ/uQAEAAAAAAAAAAAAAABgAWJAAAAwYMGDAAAAAEjBVAAoHwIQAAAAD37hmA4zAMPAAACoAidydACCAAEgAAAJiIGIBIgJYDKAmTGUIAhklgCIiAeYyfCPgAACAAAQAADAAAYAADCAAAAAAAAAAA==
> <PUBCHEM_IUPAC_OPENEYE_NAME>
(6S,8R)-1-chloro-3-[(3-fluorophenyl)methylamino]-8-[3-(1-naphthyl)propyl]-4-oxo-N-[(1R)-1-[(2R)-2,9,9-trimethyl-3,5-dioxa-4-boratricyclo[6.1.1.02,6]decan-4-yl]but-3-enyl]-7,8-dihydro-6H-pyrrolo[1,2-a]pyrazine-6-carboxamide
> <PUBCHEM_IUPAC_CAS_NAME>
(6S,8R)-1-chloro-3-[(3-fluorophenyl)methylamino]-8-[3-(1-naphthalenyl)propyl]-4-oxo-N-[(1R)-1-[(2R)-2,9,9-trimethyl-3,5-dioxa-4-boratricyclo[6.1.1.02,6]decan-4-yl]but-3-enyl]-7,8-dihydro-6H-pyrrolo[1,2-a]pyrazine-6-carboxamide
> <PUBCHEM_IUPAC_NAME_MARKUP>
(6<I>S</I>,8<I>R</I>)-1-chloro-3-[(3-fluorophenyl)methylamino]-8-(3-naphthalen-1-ylpropyl)-4-oxo-<I>N</I>-[(1<I>R</I>)-1-[(2<I>R</I>)-2,9,9-trimethyl-3,5-dioxa-4-boratricyclo[6.1.1.0<SUP>2,6</SUP>]decan-4-yl]but-3-enyl]-7,8-dihydro-6<I>H</I>-pyrrolo[1,2-a]pyrazine-6-carboxamide
> <PUBCHEM_IUPAC_NAME>
(6S,8R)-1-chloro-3-[(3-fluorophenyl)methylamino]-8-(3-naphthalen-1-ylpropyl)-4-oxo-N-[(1R)-1-[(2R)-2,9,9-trimethyl-3,5-dioxa-4-boratricyclo[6.1.1.02,6]decan-4-yl]but-3-enyl]-7,8-dihydro-6H-pyrrolo[1,2-a]pyrazine-6-carboxamide
> <PUBCHEM_IUPAC_SYSTEMATIC_NAME>
(6S,8R)-1-chloranyl-3-[(3-fluorophenyl)methylamino]-8-(3-naphthalen-1-ylpropyl)-4-oxidanylidene-N-[(1R)-1-[(2R)-2,9,9-trimethyl-3,5-dioxa-4-boratricyclo[6.1.1.02,6]decan-4-yl]but-3-enyl]-7,8-dihydro-6H-pyrrolo[1,2-a]pyrazine-6-carboxamide
> <PUBCHEM_IUPAC_TRADITIONAL_NAME>
(6S,8R)-1-chloro-3-[(3-fluorobenzyl)amino]-4-keto-8-[3-(1-naphthyl)propyl]-N-[(1R)-1-[(2R)-2,9,9-trimethyl-3,5-dioxa-4-boratricyclo[6.1.1.02,6]decan-4-yl]but-3-enyl]-7,8-dihydro-6H-pyrrolo[1,2-a]pyrazine-6-carboxamide
> <PUBCHEM_IUPAC_INCHI>
InChI=1S/C42H47BClFN4O4/c1-5-11-35(43-52-34-23-29-22-33(41(29,2)3)42(34,4)53-43)47-39(50)32-21-28(17-10-16-27-15-9-14-26-13-6-7-19-31(26)27)36-37(44)48-38(40(51)49(32)36)46-24-25-12-8-18-30(45)20-25/h5-9,12-15,18-20,28-29,32-35H,1,10-11,16-17,21-24H2,2-4H3,(H,46,48)(H,47,50)/t28-,29?,32+,33?,34?,35+,42-/m1/s1
> <PUBCHEM_IUPAC_INCHIKEY>
DSTYEPHCDFGJLQ-GBISQRIMSA-N
> <PUBCHEM_EXACT_MASS>
736.3362920
> <PUBCHEM_MOLECULAR_FORMULA>
C42H47BClFN4O4
> <PUBCHEM_MOLECULAR_WEIGHT>
737.1
> <PUBCHEM_OPENEYE_CAN_SMILES>
B1(OC2CC3CC(C3(C)C)C2(O1)C)C(CC=C)NC(=O)C4CC(C5=C(N=C(C(=O)N45)NCC6=CC(=CC=C6)F)Cl)CCCC7=CC=CC8=CC=CC=C87
> <PUBCHEM_OPENEYE_ISO_SMILES>
B1(OC2CC3CC([C@]2(O1)C)C3(C)C)[C@H](CC=C)NC(=O)[C@@H]4C[C@H](C5=C(N=C(C(=O)N45)NCC6=CC(=CC=C6)F)Cl)CCCC7=CC=CC8=CC=CC=C87
> <PUBCHEM_CACTVS_TPSA>
92.3
> <PUBCHEM_MONOISOTOPIC_WEIGHT>
736.3362920
> <PUBCHEM_TOTAL_CHARGE>
0
> <PUBCHEM_HEAVY_ATOM_COUNT>
53
> <PUBCHEM_ATOM_DEF_STEREO_COUNT>
4
> <PUBCHEM_ATOM_UDEF_STEREO_COUNT>
3
> <PUBCHEM_BOND_DEF_STEREO_COUNT>
0
> <PUBCHEM_BOND_UDEF_STEREO_COUNT>
0
> <PUBCHEM_ISOTOPIC_ATOM_COUNT>
0
> <PUBCHEM_COMPONENT_COUNT>
1
> <PUBCHEM_CACTVS_TAUTO_COUNT>
-1
> <PUBCHEM_COORDINATE_TYPE>
1
5
255
> <PUBCHEM_BONDANNOTATIONS>
11  14  3
13  14  3
15  20  6
17  16  3
25  23  5
27  30  6
29  32  8
31  34  8
36  38  8
36  39  8
38  40  8
38  43  8
39  42  8
40  44  8
40  45  8
41  47  8
41  48  8
42  44  8
43  46  8
45  49  8
46  49  8
47  50  8
48  51  8
50  52  8
51  52  8
21  7  6
8  29  8
8  31  8
9  32  8
9  34  8
$$$$
