504389
  -OEChem-10302200282D
171172  0     1  0  0  0  0  0999 V2000
    9.6075    3.4969    0.0000 O   0  0  0  0  0  0  0  0  0  0  0  0
    9.4651    2.1423    0.0000 O   0  0  0  0  0  0  0  0  0  0  0  0
   11.1823    6.7404    0.0000 O   0  0  0  0  0  0  0  0  0  0  0  0
   10.3312   -1.3577    0.0000 O   0  0  0  0  0  0  0  0  0  0  0  0
    8.0018    8.4387    0.0000 O   0  0  0  0  0  0  0  0  0  0  0  0
    7.7331   -0.8577    0.0000 O   0  0  0  0  0  0  0  0  0  0  0  0
    9.5766   11.6822    0.0000 O   0  0  0  0  0  0  0  0  0  0  0  0
   11.4787   12.3002    0.0000 O   0  0  0  0  0  0  0  0  0  0  0  0
   12.0140   10.6530    0.0000 O   0  0  0  0  0  0  0  0  0  0  0  0
    8.5991   -4.3577    0.0000 O   0  0  0  0  0  0  0  0  0  0  0  0
    8.5991   -5.3577    0.0000 O   0  0  0  0  0  0  0  0  0  0  0  0
    5.1350   -5.3577    0.0000 O   0  0  0  0  0  0  0  0  0  0  0  0
    6.3961   13.3806    0.0000 O   0  0  0  0  0  0  0  0  0  0  0  0
    4.4940   12.7625    0.0000 O   0  0  0  0  0  0  0  0  0  0  0  0
    5.0292   11.1153    0.0000 O   0  0  0  0  0  0  0  0  0  0  0  0
    4.2690   -8.8577    0.0000 O   0  0  0  0  0  0  0  0  0  0  0  0
    6.8671  -11.3577    0.0000 O   0  0  0  0  0  0  0  0  0  0  0  0
    2.5369   -6.8577    0.0000 O   0  0  0  0  0  0  0  0  0  0  0  0
    3.4030   -8.3577    0.0000 O   0  0  0  0  0  0  0  0  0  0  0  0
    9.4651  -11.8577    0.0000 O   0  0  0  0  0  0  0  0  0  0  0  0
    5.1350  -14.3577    0.0000 O   0  0  0  0  0  0  0  0  0  0  0  0
    9.4651   -8.8577    0.0000 O   0  0  0  0  0  0  0  0  0  0  0  0
   11.3017    3.1368    0.0000 N   0  0  0  0  0  0  0  0  0  0  0  0
   10.0233    5.4532    0.0000 N   0  0  0  0  0  0  0  0  0  0  0  0
   10.3312    0.6423    0.0000 N   0  0  0  0  0  0  0  0  0  0  0  0
    9.6960    8.0786    0.0000 N   0  0  0  0  0  0  0  0  0  0  0  0
    8.4176   10.3950    0.0000 N   0  0  0  0  0  0  0  0  0  0  0  0
    8.5991   -2.3577    0.0000 N   0  0  0  0  0  0  0  0  0  0  0  0
    8.0903   13.0205    0.0000 N   0  0  0  0  0  0  0  0  0  0  0  0
    6.8671   -4.3577    0.0000 N   0  0  0  0  0  0  0  0  0  0  0  0
    6.0010   -6.8577    0.0000 N   0  0  0  0  0  0  0  0  0  0  0  0
    6.0010   -8.8577    0.0000 N   0  0  0  0  0  0  0  0  0  0  0  0
    7.7331   -9.8577    0.0000 N   0  0  0  0  0  0  0  0  0  0  0  0
   10.3312  -10.3577    0.0000 N   0  0  0  0  0  0  0  0  0  0  0  0
   11.1972    2.1423    0.0000 C   0  0  3  0  0  0  0  0  0  0  0  0
   12.1107    1.7355    0.0000 C   0  0  0  0  0  0  0  0  0  0  0  0
   12.7799    2.4787    0.0000 C   0  0  0  0  0  0  0  0  0  0  0  0
   12.2799    3.3447    0.0000 C   0  0  0  0  0  0  0  0  0  0  0  0
   10.7665    4.7841    0.0000 C   0  0  2  0  0  0  0  0  0  0  0  0
   10.5586    3.8059    0.0000 C   0  0  0  0  0  0  0  0  0  0  0  0
   10.3312    1.6423    0.0000 C   0  0  0  0  0  0  0  0  0  0  0  0
   11.7175    5.0931    0.0000 C   0  0  0  0  0  0  0  0  0  0  0  0
    9.4651    0.1423    0.0000 C   0  0  1  0  0  0  0  0  0  0  0  0
   11.9255    6.0712    0.0000 C   0  0  0  0  0  0  0  0  0  0  0  0
   12.4607    4.4239    0.0000 C   0  0  0  0  0  0  0  0  0  0  0  0
    9.4881    7.1005    0.0000 C   0  0  2  0  0  0  0  0  0  0  0  0
   10.2313    6.4313    0.0000 C   0  0  0  0  0  0  0  0  0  0  0  0
    8.5991    0.6423    0.0000 C   0  0  0  0  0  0  0  0  0  0  0  0
    8.5370    6.7915    0.0000 C   0  0  0  0  0  0  0  0  0  0  0  0
    9.4651   -0.8577    0.0000 C   0  0  0  0  0  0  0  0  0  0  0  0
    8.5991    1.6423    0.0000 C   0  0  0  0  0  0  0  0  0  0  0  0
    7.7939    7.4606    0.0000 C   0  0  0  0  0  0  0  0  0  0  0  0
    8.3291    5.8133    0.0000 C   0  0  0  0  0  0  0  0  0  0  0  0
    8.9529    8.7478    0.0000 C   0  0  0  0  0  0  0  0  0  0  0  0
    9.1608    9.7259    0.0000 C   0  0  2  0  0  0  0  0  0  0  0  0
    7.7331    2.1423    0.0000 C   0  0  0  0  0  0  0  0  0  0  0  0
    8.5991   -1.3577    0.0000 C   0  0  0  0  0  0  0  0  0  0  0  0
   10.1118   10.0349    0.0000 C   0  0  0  0  0  0  0  0  0  0  0  0
   10.3198   11.0131    0.0000 C   0  0  0  0  0  0  0  0  0  0  0  0
    8.6256   11.3732    0.0000 C   0  0  0  0  0  0  0  0  0  0  0  0
    7.7331   -2.8577    0.0000 C   0  0  0  0  0  0  0  0  0  0  0  0
    7.8824   12.0423    0.0000 C   0  0  2  0  0  0  0  0  0  0  0  0
    6.9314   11.7333    0.0000 C   0  0  0  0  0  0  0  0  0  0  0  0
   11.2708   11.3221    0.0000 C   0  0  0  0  0  0  0  0  0  0  0  0
    7.7331   -3.8577    0.0000 C   0  0  0  0  0  0  0  0  0  0  0  0
    6.1882   12.4024    0.0000 C   0  0  0  0  0  0  0  0  0  0  0  0
    6.8671   -5.3577    0.0000 C   0  0  1  0  0  0  0  0  0  0  0  0
    7.7331   -5.8577    0.0000 C   0  0  3  0  0  0  0  0  0  0  0  0
    7.3472   13.6896    0.0000 C   0  0  0  0  0  0  0  0  0  0  0  0
    6.0010   -5.8577    0.0000 C   0  0  0  0  0  0  0  0  0  0  0  0
    5.1350   -7.3577    0.0000 C   0  0  2  0  0  0  0  0  0  0  0  0
    5.2372   12.0934    0.0000 C   0  0  0  0  0  0  0  0  0  0  0  0
    7.7331   -6.8577    0.0000 C   0  0  0  0  0  0  0  0  0  0  0  0
    6.0010   -9.8577    0.0000 C   0  0  1  0  0  0  0  0  0  0  0  0
    7.5551   14.6677    0.0000 C   0  0  0  0  0  0  0  0  0  0  0  0
    5.1350   -8.3577    0.0000 C   0  0  0  0  0  0  0  0  0  0  0  0
    4.2690   -6.8577    0.0000 C   0  0  0  0  0  0  0  0  0  0  0  0
    5.1350  -10.3577    0.0000 C   0  0  0  0  0  0  0  0  0  0  0  0
    6.8671  -10.3577    0.0000 C   0  0  0  0  0  0  0  0  0  0  0  0
    5.1350  -11.3577    0.0000 C   0  0  0  0  0  0  0  0  0  0  0  0
    3.4030   -7.3577    0.0000 C   0  0  0  0  0  0  0  0  0  0  0  0
    8.5991  -10.3577    0.0000 C   0  0  1  0  0  0  0  0  0  0  0  0
    4.2690  -11.8577    0.0000 C   0  0  0  0  0  0  0  0  0  0  0  0
    6.0010  -11.8577    0.0000 C   0  0  0  0  0  0  0  0  0  0  0  0
    8.5991  -11.3577    0.0000 C   0  0  0  0  0  0  0  0  0  0  0  0
    4.2690  -12.8577    0.0000 C   0  0  0  0  0  0  0  0  0  0  0  0
    6.0010  -12.8577    0.0000 C   0  0  0  0  0  0  0  0  0  0  0  0
    9.4651   -9.8577    0.0000 C   0  0  0  0  0  0  0  0  0  0  0  0
    5.1350  -13.3577    0.0000 C   0  0  0  0  0  0  0  0  0  0  0  0
   10.6772    2.4799    0.0000 H   0  0  0  0  0  0  0  0  0  0  0  0
   11.8007    1.1986    0.0000 H   0  0  0  0  0  0  0  0  0  0  0  0
   12.6123    1.3711    0.0000 H   0  0  0  0  0  0  0  0  0  0  0  0
   13.1947    2.0179    0.0000 H   0  0  0  0  0  0  0  0  0  0  0  0
   13.2815    2.8431    0.0000 H   0  0  0  0  0  0  0  0  0  0  0  0
   12.8463    3.5969    0.0000 H   0  0  0  0  0  0  0  0  0  0  0  0
   12.0883    3.9344    0.0000 H   0  0  0  0  0  0  0  0  0  0  0  0
   10.1768    4.5925    0.0000 H   0  0  0  0  0  0  0  0  0  0  0  0
   12.3072    5.2847    0.0000 H   0  0  0  0  0  0  0  0  0  0  0  0
    9.4337    5.2616    0.0000 H   0  0  0  0  0  0  0  0  0  0  0  0
   10.8681    0.3323    0.0000 H   0  0  0  0  0  0  0  0  0  0  0  0
   10.0021   -0.1677    0.0000 H   0  0  0  0  0  0  0  0  0  0  0  0
   12.5319    5.9423    0.0000 H   0  0  0  0  0  0  0  0  0  0  0  0
   12.0544    6.6777    0.0000 H   0  0  0  0  0  0  0  0  0  0  0  0
   11.3190    6.2001    0.0000 H   0  0  0  0  0  0  0  0  0  0  0  0
   12.0458    3.9632    0.0000 H   0  0  0  0  0  0  0  0  0  0  0  0
   12.9214    4.0091    0.0000 H   0  0  0  0  0  0  0  0  0  0  0  0
   12.8755    4.8847    0.0000 H   0  0  0  0  0  0  0  0  0  0  0  0
    9.0274    7.5153    0.0000 H   0  0  0  0  0  0  0  0  0  0  0  0
    7.9885    0.7499    0.0000 H   0  0  0  0  0  0  0  0  0  0  0  0
    8.3871    0.0597    0.0000 H   0  0  0  0  0  0  0  0  0  0  0  0
    7.9474    6.5999    0.0000 H   0  0  0  0  0  0  0  0  0  0  0  0
    9.2097    1.5346    0.0000 H   0  0  0  0  0  0  0  0  0  0  0  0
    8.8112    2.2249    0.0000 H   0  0  0  0  0  0  0  0  0  0  0  0
   10.2857    8.2702    0.0000 H   0  0  0  0  0  0  0  0  0  0  0  0
    8.2088    7.9213    0.0000 H   0  0  0  0  0  0  0  0  0  0  0  0
    7.3332    7.8754    0.0000 H   0  0  0  0  0  0  0  0  0  0  0  0
    7.3790    6.9998    0.0000 H   0  0  0  0  0  0  0  0  0  0  0  0
    7.7227    5.9422    0.0000 H   0  0  0  0  0  0  0  0  0  0  0  0
    8.2002    5.2069    0.0000 H   0  0  0  0  0  0  0  0  0  0  0  0
    8.9356    5.6844    0.0000 H   0  0  0  0  0  0  0  0  0  0  0  0
    8.5711    9.5343    0.0000 H   0  0  0  0  0  0  0  0  0  0  0  0
    8.0431    2.6792    0.0000 H   0  0  0  0  0  0  0  0  0  0  0  0
    7.1962    2.4523    0.0000 H   0  0  0  0  0  0  0  0  0  0  0  0
    7.4231    1.6053    0.0000 H   0  0  0  0  0  0  0  0  0  0  0  0
   10.1981    9.4210    0.0000 H   0  0  0  0  0  0  0  0  0  0  0  0
   10.7315   10.0133    0.0000 H   0  0  0  0  0  0  0  0  0  0  0  0
    7.8280   10.2034    0.0000 H   0  0  0  0  0  0  0  0  0  0  0  0
    9.1360   -2.6677    0.0000 H   0  0  0  0  0  0  0  0  0  0  0  0
   10.2335   11.6270    0.0000 H   0  0  0  0  0  0  0  0  0  0  0  0
    9.7001   11.0347    0.0000 H   0  0  0  0  0  0  0  0  0  0  0  0
    7.5210   -2.2751    0.0000 H   0  0  0  0  0  0  0  0  0  0  0  0
    7.1225   -2.9654    0.0000 H   0  0  0  0  0  0  0  0  0  0  0  0
    7.4217   12.4572    0.0000 H   0  0  0  0  0  0  0  0  0  0  0  0
    6.4428   11.3516    0.0000 H   0  0  0  0  0  0  0  0  0  0  0  0
    7.2224   11.1859    0.0000 H   0  0  0  0  0  0  0  0  0  0  0  0
    8.6800   13.2120    0.0000 H   0  0  0  0  0  0  0  0  0  0  0  0
    6.6768   12.7841    0.0000 H   0  0  0  0  0  0  0  0  0  0  0  0
    5.8971   12.9499    0.0000 H   0  0  0  0  0  0  0  0  0  0  0  0
    6.3301   -5.0477    0.0000 H   0  0  0  0  0  0  0  0  0  0  0  0
    6.3301   -4.0477    0.0000 H   0  0  0  0  0  0  0  0  0  0  0  0
    7.7331   -5.2377    0.0000 H   0  0  0  0  0  0  0  0  0  0  0  0
   12.0684   12.4918    0.0000 H   0  0  0  0  0  0  0  0  0  0  0  0
    5.1350   -6.7377    0.0000 H   0  0  0  0  0  0  0  0  0  0  0  0
    6.5380   -7.1677    0.0000 H   0  0  0  0  0  0  0  0  0  0  0  0
    7.1131   -6.8577    0.0000 H   0  0  0  0  0  0  0  0  0  0  0  0
    7.7331   -7.4777    0.0000 H   0  0  0  0  0  0  0  0  0  0  0  0
    8.3531   -6.8577    0.0000 H   0  0  0  0  0  0  0  0  0  0  0  0
    6.5380   -9.5477    0.0000 H   0  0  0  0  0  0  0  0  0  0  0  0
    8.1615   14.5388    0.0000 H   0  0  0  0  0  0  0  0  0  0  0  0
    7.6840   15.2742    0.0000 H   0  0  0  0  0  0  0  0  0  0  0  0
    6.9486   14.7966    0.0000 H   0  0  0  0  0  0  0  0  0  0  0  0
    4.6675   -6.3828    0.0000 H   0  0  0  0  0  0  0  0  0  0  0  0
    3.8705   -6.3828    0.0000 H   0  0  0  0  0  0  0  0  0  0  0  0
    6.5380   -8.5477    0.0000 H   0  0  0  0  0  0  0  0  0  0  0  0
    4.9230   -9.7751    0.0000 H   0  0  0  0  0  0  0  0  0  0  0  0
    4.5244  -10.4654    0.0000 H   0  0  0  0  0  0  0  0  0  0  0  0
    9.1360   -5.6677    0.0000 H   0  0  0  0  0  0  0  0  0  0  0  0
    3.9044   12.5709    0.0000 H   0  0  0  0  0  0  0  0  0  0  0  0
    7.7331   -9.2377    0.0000 H   0  0  0  0  0  0  0  0  0  0  0  0
    8.5991   -9.7377    0.0000 H   0  0  0  0  0  0  0  0  0  0  0  0
    3.7320  -11.5477    0.0000 H   0  0  0  0  0  0  0  0  0  0  0  0
    6.5380  -11.5477    0.0000 H   0  0  0  0  0  0  0  0  0  0  0  0
    7.9885  -11.2501    0.0000 H   0  0  0  0  0  0  0  0  0  0  0  0
    8.3871  -11.9403    0.0000 H   0  0  0  0  0  0  0  0  0  0  0  0
    3.7320  -13.1677    0.0000 H   0  0  0  0  0  0  0  0  0  0  0  0
    6.5380  -13.1677    0.0000 H   0  0  0  0  0  0  0  0  0  0  0  0
    2.0000   -7.1677    0.0000 H   0  0  0  0  0  0  0  0  0  0  0  0
    9.4651  -12.4777    0.0000 H   0  0  0  0  0  0  0  0  0  0  0  0
   10.8681  -10.0477    0.0000 H   0  0  0  0  0  0  0  0  0  0  0  0
   10.3312  -10.9777    0.0000 H   0  0  0  0  0  0  0  0  0  0  0  0
    4.5981  -14.6677    0.0000 H   0  0  0  0  0  0  0  0  0  0  0  0
  1 40  2  0  0  0  0
  2 41  2  0  0  0  0
  3 47  2  0  0  0  0
  4 50  2  0  0  0  0
  5 54  2  0  0  0  0
  6 57  2  0  0  0  0
  7 60  2  0  0  0  0
  8 64  1  0  0  0  0
  8142  1  0  0  0  0
  9 64  2  0  0  0  0
 10 65  2  0  0  0  0
 11 68  1  0  0  0  0
 11157  1  0  0  0  0
 12 70  2  0  0  0  0
 13 69  2  0  0  0  0
 14 72  1  0  0  0  0
 14158  1  0  0  0  0
 15 72  2  0  0  0  0
 16 76  2  0  0  0  0
 17 79  2  0  0  0  0
 18 81  1  0  0  0  0
 18167  1  0  0  0  0
 19 81  2  0  0  0  0
 20 85  1  0  0  0  0
 20168  1  0  0  0  0
 21 89  1  0  0  0  0
 21171  1  0  0  0  0
 22 88  2  0  0  0  0
 23 35  1  0  0  0  0
 23 38  1  0  0  0  0
 23 40  1  0  0  0  0
 39 24  1  1  0  0  0
 24 47  1  0  0  0  0
 24 99  1  0  0  0  0
 25 41  1  0  0  0  0
 43 25  1  6  0  0  0
 25100  1  0  0  0  0
 46 26  1  6  0  0  0
 26 54  1  0  0  0  0
 26114  1  0  0  0  0
 55 27  1  1  0  0  0
 27 60  1  0  0  0  0
 27127  1  0  0  0  0
 28 57  1  0  0  0  0
 28 61  1  0  0  0  0
 28128  1  0  0  0  0
 62 29  1  6  0  0  0
 29 69  1  0  0  0  0
 29136  1  0  0  0  0
 30 65  1  0  0  0  0
 67 30  1  1  0  0  0
 30140  1  0  0  0  0
 31 70  1  0  0  0  0
 71 31  1  6  0  0  0
 31144  1  0  0  0  0
 74 32  1  6  0  0  0
 32 76  1  0  0  0  0
 32154  1  0  0  0  0
 33 79  1  0  0  0  0
 82 33  1  6  0  0  0
 33159  1  0  0  0  0
 34 88  1  0  0  0  0
 34169  1  0  0  0  0
 34170  1  0  0  0  0
 35 36  1  0  0  0  0
 35 41  1  0  0  0  0
 35 90  1  0  0  0  0
 36 37  1  0  0  0  0
 36 91  1  0  0  0  0
 36 92  1  0  0  0  0
 37 38  1  0  0  0  0
 37 93  1  0  0  0  0
 37 94  1  0  0  0  0
 38 95  1  0  0  0  0
 38 96  1  0  0  0  0
 39 40  1  0  0  0  0
 39 42  1  0  0  0  0
 39 97  1  0  0  0  0
 42 44  1  0  0  0  0
 42 45  1  0  0  0  0
 42 98  1  0  0  0  0
 43 48  1  0  0  0  0
 43 50  1  0  0  0  0
 43101  1  0  0  0  0
 44102  1  0  0  0  0
 44103  1  0  0  0  0
 44104  1  0  0  0  0
 45105  1  0  0  0  0
 45106  1  0  0  0  0
 45107  1  0  0  0  0
 46 47  1  0  0  0  0
 46 49  1  0  0  0  0
 46108  1  0  0  0  0
 48 51  1  0  0  0  0
 48109  1  0  0  0  0
 48110  1  0  0  0  0
 49 52  1  0  0  0  0
 49 53  1  0  0  0  0
 49111  1  0  0  0  0
 50 57  1  0  0  0  0
 51 56  1  0  0  0  0
 51112  1  0  0  0  0
 51113  1  0  0  0  0
 52115  1  0  0  0  0
 52116  1  0  0  0  0
 52117  1  0  0  0  0
 53118  1  0  0  0  0
 53119  1  0  0  0  0
 53120  1  0  0  0  0
 54 55  1  0  0  0  0
 55 58  1  0  0  0  0
 55121  1  0  0  0  0
 56122  1  0  0  0  0
 56123  1  0  0  0  0
 56124  1  0  0  0  0
 58 59  1  0  0  0  0
 58125  1  0  0  0  0
 58126  1  0  0  0  0
 59 64  1  0  0  0  0
 59129  1  0  0  0  0
 59130  1  0  0  0  0
 60 62  1  0  0  0  0
 61 65  1  0  0  0  0
 61131  1  0  0  0  0
 61132  1  0  0  0  0
 62 63  1  0  0  0  0
 62133  1  0  0  0  0
 63 66  1  0  0  0  0
 63134  1  0  0  0  0
 63135  1  0  0  0  0
 66 72  1  0  0  0  0
 66137  1  0  0  0  0
 66138  1  0  0  0  0
 67 68  1  0  0  0  0
 67 70  1  0  0  0  0
 67139  1  0  0  0  0
 68 73  1  0  0  0  0
 68141  1  0  0  0  0
 69 75  1  0  0  0  0
 71 76  1  0  0  0  0
 71 77  1  0  0  0  0
 71143  1  0  0  0  0
 73145  1  0  0  0  0
 73146  1  0  0  0  0
 73147  1  0  0  0  0
 74 78  1  0  0  0  0
 74 79  1  0  0  0  0
 74148  1  0  0  0  0
 75149  1  0  0  0  0
 75150  1  0  0  0  0
 75151  1  0  0  0  0
 77 81  1  0  0  0  0
 77152  1  0  0  0  0
 77153  1  0  0  0  0
 78 80  1  0  0  0  0
 78155  1  0  0  0  0
 78156  1  0  0  0  0
 80 83  2  0  0  0  0
 80 84  1  0  0  0  0
 82 85  1  0  0  0  0
 82 88  1  0  0  0  0
 82160  1  0  0  0  0
 83 86  1  0  0  0  0
 83161  1  0  0  0  0
 84 87  2  0  0  0  0
 84162  1  0  0  0  0
 85163  1  0  0  0  0
 85164  1  0  0  0  0
 86 89  2  0  0  0  0
 86165  1  0  0  0  0
 87 89  1  0  0  0  0
 87166  1  0  0  0  0
M  END
> <PUBCHEM_COMPOUND_CID>
504389
> <PUBCHEM_COMPOUND_CANONICALIZED>
1
> <PUBCHEM_CACTVS_COMPLEXITY>
2580
> <PUBCHEM_CACTVS_HBOND_ACCEPTOR>
22
> <PUBCHEM_CACTVS_HBOND_DONOR>
17
> <PUBCHEM_CACTVS_ROTATABLE_BOND>
38
> <PUBCHEM_CACTVS_SUBSKEYS>
AAADcfB//gAAAAAAAAAAAAAAAAAAAWAAAAAwAAAAAAAAAAABAAAAHgAQCAAADTzhmAYyDoPAAgCIAqHSGAACAAAgIAAIiIGOCIgKdj6C0TOUcAAm9hGYmAe/36KOIAAAAAAAAABAAAAAAAAAAAAAAAAAAA==
> <PUBCHEM_IUPAC_OPENEYE_NAME>
(4S)-4-acetamido-5-[[(1S)-1-[[(1S)-1-[[(1S)-1-[2-[[(1S)-1-[2-[[2-[[(1S)-1-[[(1S)-2-[[(1S)-2-[[(1S)-2-amino-1-(hydroxymethyl)-2-oxo-ethyl]amino]-1-[(4-hydroxyphenyl)methyl]-2-oxo-ethyl]amino]-1-(carboxymethyl)-2-oxo-ethyl]carbamoyl]-2-hydroxy-propyl]amino]-2-oxo-ethyl]amino]-2-oxo-acetyl]butyl]carbamoyl]pyrrolidine-1-carbonyl]-2-methyl-propyl]carbamoyl]-2-methyl-propyl]carbamoyl]-3-carboxy-propyl]amino]-5-oxo-pentanoic acid
> <PUBCHEM_IUPAC_CAS_NAME>
(4S)-4-acetamido-5-[[(2S)-1-[[(2S)-1-[[(2S)-1-[2-[[[(3S)-1-[[2-[[(2S)-1-[[(2S)-1-[[(2S)-1-[[(2S)-1-amino-3-hydroxy-1-oxopropan-2-yl]amino]-3-(4-hydroxyphenyl)-1-oxopropan-2-yl]amino]-3-carboxy-1-oxopropan-2-yl]amino]-3-hydroxy-1-oxobutan-2-yl]amino]-2-oxoethyl]amino]-1,2-dioxohexan-3-yl]amino]-oxomethyl]-1-pyrrolidinyl]-3-methyl-1-oxobutan-2-yl]amino]-3-methyl-1-oxobutan-2-yl]amino]-4-carboxy-1-oxobutan-2-yl]amino]-5-oxopentanoic acid
> <PUBCHEM_IUPAC_NAME_MARKUP>
(4<I>S</I>)-4-acetamido-5-[[(2<I>S</I>)-1-[[(2<I>S</I>)-1-[[(2<I>S</I>)-1-[2-[[(3<I>S</I>)-1-[[2-[[(2<I>S</I>)-1-[[(2<I>S</I>)-1-[[(2<I>S</I>)-1-[[(2<I>S</I>)-1-amino-3-hydroxy-1-oxopropan-2-yl]amino]-3-(4-hydroxyphenyl)-1-oxopropan-2-yl]amino]-3-carboxy-1-oxopropan-2-yl]amino]-3-hydroxy-1-oxobutan-2-yl]amino]-2-oxoethyl]amino]-1,2-dioxohexan-3-yl]carbamoyl]pyrrolidin-1-yl]-3-methyl-1-oxobutan-2-yl]amino]-3-methyl-1-oxobutan-2-yl]amino]-4-carboxy-1-oxobutan-2-yl]amino]-5-oxopentanoic acid
> <PUBCHEM_IUPAC_NAME>
(4S)-4-acetamido-5-[[(2S)-1-[[(2S)-1-[[(2S)-1-[2-[[(3S)-1-[[2-[[(2S)-1-[[(2S)-1-[[(2S)-1-[[(2S)-1-amino-3-hydroxy-1-oxopropan-2-yl]amino]-3-(4-hydroxyphenyl)-1-oxopropan-2-yl]amino]-3-carboxy-1-oxopropan-2-yl]amino]-3-hydroxy-1-oxobutan-2-yl]amino]-2-oxoethyl]amino]-1,2-dioxohexan-3-yl]carbamoyl]pyrrolidin-1-yl]-3-methyl-1-oxobutan-2-yl]amino]-3-methyl-1-oxobutan-2-yl]amino]-4-carboxy-1-oxobutan-2-yl]amino]-5-oxopentanoic acid
> <PUBCHEM_IUPAC_SYSTEMATIC_NAME>
(4S)-4-acetamido-5-[[(2S)-1-[[(2S)-1-[[(2S)-1-[2-[[(3S)-1-[[2-[[(2S)-1-[[(2S)-1-[[(2S)-1-[[(2S)-1-azanyl-3-oxidanyl-1-oxidanylidene-propan-2-yl]amino]-3-(4-hydroxyphenyl)-1-oxidanylidene-propan-2-yl]amino]-4-oxidanyl-1,4-bis(oxidanylidene)butan-2-yl]amino]-3-oxidanyl-1-oxidanylidene-butan-2-yl]amino]-2-oxidanylidene-ethyl]amino]-1,2-bis(oxidanylidene)hexan-3-yl]carbamoyl]pyrrolidin-1-yl]-3-methyl-1-oxidanylidene-butan-2-yl]amino]-3-methyl-1-oxidanylidene-butan-2-yl]amino]-5-oxidanyl-1,5-bis(oxidanylidene)pentan-2-yl]amino]-5-oxidanylidene-pentanoic acid
> <PUBCHEM_IUPAC_TRADITIONAL_NAME>
(4S)-4-acetamido-5-[[(1S)-1-[[(1S)-1-[[(1S)-1-[2-[[(1S)-1-[2-[[2-[[(1S)-1-[[(1S)-2-[[(1S)-2-[[(1S)-2-amino-2-keto-1-methylol-ethyl]amino]-1-(4-hydroxybenzyl)-2-keto-ethyl]amino]-1-(carboxymethyl)-2-keto-ethyl]carbamoyl]-2-hydroxy-propyl]amino]-2-keto-ethyl]amino]-2-keto-acetyl]butyl]carbamoyl]pyrrolidine-1-carbonyl]-2-methyl-propyl]carbamoyl]-2-methyl-propyl]carbamoyl]-3-carboxy-propyl]amino]-5-keto-valeric acid
> <PUBCHEM_IUPAC_INCHI>
InChI=1S/C55H82N12O22/c1-8-10-31(45(79)54(88)57-23-38(72)64-44(27(6)69)53(87)62-35(22-41(77)78)50(84)61-34(21-29-12-14-30(71)15-13-29)49(83)63-36(24-68)46(56)80)59-51(85)37-11-9-20-67(37)55(89)43(26(4)5)66-52(86)42(25(2)3)65-48(82)33(17-19-40(75)76)60-47(81)32(58-28(7)70)16-18-39(73)74/h12-15,25-27,31-37,42-44,68-69,71H,8-11,16-24H2,1-7H3,(H2,56,80)(H,57,88)(H,58,70)(H,59,85)(H,60,81)(H,61,84)(H,62,87)(H,63,83)(H,64,72)(H,65,82)(H,66,86)(H,73,74)(H,75,76)(H,77,78)/t27?,31-,32-,33-,34-,35-,36-,37?,42-,43-,44-/m0/s1
> <PUBCHEM_IUPAC_INCHIKEY>
ORFUAZKFXFZNHD-RJCHNMHXSA-N
> <PUBCHEM_XLOGP3_AA>
-3.4
> <PUBCHEM_EXACT_MASS>
1262.56666229
> <PUBCHEM_MOLECULAR_FORMULA>
C55H82N12O22
> <PUBCHEM_MOLECULAR_WEIGHT>
1263.3
> <PUBCHEM_OPENEYE_CAN_SMILES>
CCCC(C(=O)C(=O)NCC(=O)NC(C(C)O)C(=O)NC(CC(=O)O)C(=O)NC(CC1=CC=C(C=C1)O)C(=O)NC(CO)C(=O)N)NC(=O)C2CCCN2C(=O)C(C(C)C)NC(=O)C(C(C)C)NC(=O)C(CCC(=O)O)NC(=O)C(CCC(=O)O)NC(=O)C
> <PUBCHEM_OPENEYE_ISO_SMILES>
CCC[C@@H](C(=O)C(=O)NCC(=O)N[C@@H](C(C)O)C(=O)N[C@@H](CC(=O)O)C(=O)N[C@@H](CC1=CC=C(C=C1)O)C(=O)N[C@@H](CO)C(=O)N)NC(=O)C2CCCN2C(=O)[C@H](C(C)C)NC(=O)[C@H](C(C)C)NC(=O)[C@H](CCC(=O)O)NC(=O)[C@H](CCC(=O)O)NC(=O)C
> <PUBCHEM_CACTVS_TPSA>
544
> <PUBCHEM_MONOISOTOPIC_WEIGHT>
1262.56666229
> <PUBCHEM_TOTAL_CHARGE>
0
> <PUBCHEM_HEAVY_ATOM_COUNT>
89
> <PUBCHEM_ATOM_DEF_STEREO_COUNT>
9
> <PUBCHEM_ATOM_UDEF_STEREO_COUNT>
2
> <PUBCHEM_BOND_DEF_STEREO_COUNT>
0
> <PUBCHEM_BOND_UDEF_STEREO_COUNT>
0
> <PUBCHEM_ISOTOPIC_ATOM_COUNT>
0
> <PUBCHEM_COMPONENT_COUNT>
1
> <PUBCHEM_CACTVS_TAUTO_COUNT>
-1
> <PUBCHEM_COORDINATE_TYPE>
1
5
255
> <PUBCHEM_BONDANNOTATIONS>
68  11  3
39  24  5
43  25  6
46  26  6
55  27  5
62  29  6
67  30  5
71  31  6
74  32  6
82  33  6
35  41  3
80  83  8
80  84  8
83  86  8
84  87  8
86  89  8
87  89  8
$$$$
