504347
  -OEChem-10302200282D
 33 33  0     1  0  0  0  0  0999 V2000
    6.6775    1.0000    0.0000 S   0  0  0  0  0  0  0  0  0  0  0  0
    7.1775    1.8660    0.0000 O   0  0  0  0  0  0  0  0  0  0  0  0
    7.5435    0.5000    0.0000 O   0  0  0  0  0  0  0  0  0  0  0  0
    6.0347    1.7660    0.0000 O   0  0  0  0  0  0  0  0  0  0  0  0
    6.1775    0.1340    0.0000 C   0  0  3  0  0  0  0  0  0  0  0  0
    5.4115    0.7768    0.0000 C   0  0  0  0  0  0  0  0  0  0  0  0
    5.3115   -0.3660    0.0000 C   0  0  0  0  0  0  0  0  0  0  0  0
    4.4718    0.4347    0.0000 C   0  0  0  0  0  0  0  0  0  0  0  0
    7.0435   -0.3660    0.0000 C   0  0  0  0  0  0  0  0  0  0  0  0
    3.7057    1.0775    0.0000 C   0  0  0  0  0  0  0  0  0  0  0  0
    5.3115   -1.3660    0.0000 C   0  0  0  0  0  0  0  0  0  0  0  0
    7.0435   -1.3660    0.0000 C   0  0  0  0  0  0  0  0  0  0  0  0
    2.7660    0.7355    0.0000 C   0  0  0  0  0  0  0  0  0  0  0  0
    6.1775   -1.8660    0.0000 C   0  0  0  0  0  0  0  0  0  0  0  0
    2.0000    1.3783    0.0000 C   0  0  0  0  0  0  0  0  0  0  0  0
    5.8864    1.1753    0.0000 H   0  0  0  0  0  0  0  0  0  0  0  0
    5.1015    1.3137    0.0000 H   0  0  0  0  0  0  0  0  0  0  0  0
    5.0994    0.2166    0.0000 H   0  0  0  0  0  0  0  0  0  0  0  0
    4.7009   -0.4737    0.0000 H   0  0  0  0  0  0  0  0  0  0  0  0
    3.9968    0.0362    0.0000 H   0  0  0  0  0  0  0  0  0  0  0  0
    4.7818   -0.1022    0.0000 H   0  0  0  0  0  0  0  0  0  0  0  0
    7.5805   -0.0560    0.0000 H   0  0  0  0  0  0  0  0  0  0  0  0
    4.1807    1.4761    0.0000 H   0  0  0  0  0  0  0  0  0  0  0  0
    3.3957    1.6145    0.0000 H   0  0  0  0  0  0  0  0  0  0  0  0
    4.7746   -1.6760    0.0000 H   0  0  0  0  0  0  0  0  0  0  0  0
    7.5805   -1.6760    0.0000 H   0  0  0  0  0  0  0  0  0  0  0  0
    2.2911    0.3370    0.0000 H   0  0  0  0  0  0  0  0  0  0  0  0
    3.0760    0.1986    0.0000 H   0  0  0  0  0  0  0  0  0  0  0  0
    6.1775   -2.4860    0.0000 H   0  0  0  0  0  0  0  0  0  0  0  0
    7.7975    1.8660    0.0000 H   0  0  0  0  0  0  0  0  0  0  0  0
    2.3985    1.8532    0.0000 H   0  0  0  0  0  0  0  0  0  0  0  0
    1.5250    1.7768    0.0000 H   0  0  0  0  0  0  0  0  0  0  0  0
    1.6015    0.9034    0.0000 H   0  0  0  0  0  0  0  0  0  0  0  0
  1  2  1  0  0  0  0
  1  3  2  0  0  0  0
  1  4  2  0  0  0  0
  1  5  1  0  0  0  0
  2 30  1  0  0  0  0
  5  6  1  0  0  0  0
  5  7  1  0  0  0  0
  5  9  1  0  0  0  0
  6  8  1  0  0  0  0
  6 16  1  0  0  0  0
  6 17  1  0  0  0  0
  7 11  1  0  0  0  0
  7 18  1  0  0  0  0
  7 19  1  0  0  0  0
  8 10  1  0  0  0  0
  8 20  1  0  0  0  0
  8 21  1  0  0  0  0
  9 12  2  0  0  0  0
  9 22  1  0  0  0  0
 10 13  1  0  0  0  0
 10 23  1  0  0  0  0
 10 24  1  0  0  0  0
 11 14  2  0  0  0  0
 11 25  1  0  0  0  0
 12 14  1  0  0  0  0
 12 26  1  0  0  0  0
 13 15  1  0  0  0  0
 13 27  1  0  0  0  0
 13 28  1  0  0  0  0
 14 29  1  0  0  0  0
 15 31  1  0  0  0  0
 15 32  1  0  0  0  0
 15 33  1  0  0  0  0
M  END
> <PUBCHEM_COMPOUND_CID>
504347
> <PUBCHEM_COMPOUND_CANONICALIZED>
1
> <PUBCHEM_CACTVS_COMPLEXITY>
349
> <PUBCHEM_CACTVS_HBOND_ACCEPTOR>
3
> <PUBCHEM_CACTVS_HBOND_DONOR>
1
> <PUBCHEM_CACTVS_ROTATABLE_BOND>
5
> <PUBCHEM_CACTVS_SUBSKEYS>
AAADceBwMABAAAAAAAAAAAAAAAAAAAAAAAAgAAAAAAAAAAAAAAAAGAQACAAADACAQAACAAAAAIKAACBCAHBAAAAgAAAICAAAAAgIAAIAAQAAAAAAgAAIgAMAgMAOAAAAAAAAAAAAAAAAAAAAAAAAAAAAAA==
> <PUBCHEM_IUPAC_OPENEYE_NAME>
1-pentylcyclohexa-2,4-diene-1-sulfonic acid
> <PUBCHEM_IUPAC_CAS_NAME>
1-pentyl-1-cyclohexa-2,4-dienesulfonic acid
> <PUBCHEM_IUPAC_NAME_MARKUP>
1-pentylcyclohexa-2,4-diene-1-sulfonic acid
> <PUBCHEM_IUPAC_NAME>
1-pentylcyclohexa-2,4-diene-1-sulfonic acid
> <PUBCHEM_IUPAC_SYSTEMATIC_NAME>
1-pentylcyclohexa-2,4-diene-1-sulfonic acid
> <PUBCHEM_IUPAC_TRADITIONAL_NAME>
1-amylcyclohexa-2,4-diene-1-sulfonic acid
> <PUBCHEM_IUPAC_INCHI>
InChI=1S/C11H18O3S/c1-2-3-5-8-11(15(12,13)14)9-6-4-7-10-11/h4,6-7,9H,2-3,5,8,10H2,1H3,(H,12,13,14)
> <PUBCHEM_IUPAC_INCHIKEY>
LMAXYFWJMHKBEQ-UHFFFAOYSA-N
> <PUBCHEM_XLOGP3_AA>
2.8
> <PUBCHEM_EXACT_MASS>
230.09766561
> <PUBCHEM_MOLECULAR_FORMULA>
C11H18O3S
> <PUBCHEM_MOLECULAR_WEIGHT>
230.33
> <PUBCHEM_OPENEYE_CAN_SMILES>
CCCCCC1(CC=CC=C1)S(=O)(=O)O
> <PUBCHEM_OPENEYE_ISO_SMILES>
CCCCCC1(CC=CC=C1)S(=O)(=O)O
> <PUBCHEM_CACTVS_TPSA>
62.8
> <PUBCHEM_MONOISOTOPIC_WEIGHT>
230.09766561
> <PUBCHEM_TOTAL_CHARGE>
0
> <PUBCHEM_HEAVY_ATOM_COUNT>
15
> <PUBCHEM_ATOM_DEF_STEREO_COUNT>
0
> <PUBCHEM_ATOM_UDEF_STEREO_COUNT>
1
> <PUBCHEM_BOND_DEF_STEREO_COUNT>
0
> <PUBCHEM_BOND_UDEF_STEREO_COUNT>
0
> <PUBCHEM_ISOTOPIC_ATOM_COUNT>
0
> <PUBCHEM_COMPONENT_COUNT>
1
> <PUBCHEM_CACTVS_TAUTO_COUNT>
-1
> <PUBCHEM_COORDINATE_TYPE>
1
5
255
> <PUBCHEM_BONDANNOTATIONS>
5  6  3
$$$$
