504324
  -OEChem-10302200282D
 47 49  0     1  0  0  0  0  0999 V2000
    5.2426   -2.7200    0.0000 O   0  0  0  0  0  0  0  0  0  0  0  0
    2.9855    0.6341    0.0000 O   0  0  0  0  0  0  0  0  0  0  0  0
    3.7327   -1.8714    0.0000 O   0  0  0  0  0  0  0  0  0  0  0  0
    2.6912   -1.0729    0.0000 O   0  0  0  0  0  0  0  0  0  0  0  0
    9.6346    2.5917    0.0000 O   0  0  0  0  0  0  0  0  0  0  0  0
    5.2226   -0.9880    0.0000 C   0  0  2  0  0  0  0  0  0  0  0  0
    4.3165   -0.4742    0.0000 C   0  0  2  0  0  0  0  0  0  0  0  0
    4.3165    0.5674    0.0000 C   0  0  0  0  0  0  0  0  0  0  0  0
    6.1166   -0.4534    0.0000 C   0  0  0  0  0  0  0  0  0  0  0  0
    5.2226    1.0813    0.0000 C   0  0  0  0  0  0  0  0  0  0  0  0
    6.1166    0.5466    0.0000 C   0  0  0  0  0  0  0  0  0  0  0  0
    5.7326   -1.8482    0.0000 C   0  0  0  0  0  0  0  0  0  0  0  0
    4.7327   -1.8598    0.0000 C   0  0  0  0  0  0  0  0  0  0  0  0
    6.9826    1.0466    0.0000 C   0  0  0  0  0  0  0  0  0  0  0  0
    3.3311   -0.3043    0.0000 C   0  0  0  0  0  0  0  0  0  0  0  0
    6.9826   -0.9534    0.0000 C   0  0  0  0  0  0  0  0  0  0  0  0
    7.8486    0.5466    0.0000 C   0  0  0  0  0  0  0  0  0  0  0  0
    7.8486   -0.4534    0.0000 C   0  0  0  0  0  0  0  0  0  0  0  0
    6.9665    2.0881    0.0000 C   0  0  0  0  0  0  0  0  0  0  0  0
    8.7586    1.0535    0.0000 C   0  0  0  0  0  0  0  0  0  0  0  0
    7.8646    2.6159    0.0000 C   0  0  0  0  0  0  0  0  0  0  0  0
    8.7666    2.0951    0.0000 C   0  0  0  0  0  0  0  0  0  0  0  0
    4.7527   -3.5917    0.0000 C   0  0  0  0  0  0  0  0  0  0  0  0
    2.0000    0.8039    0.0000 C   0  0  0  0  0  0  0  0  0  0  0  0
    9.6384    3.5917    0.0000 C   0  0  0  0  0  0  0  0  0  0  0  0
    4.1078   -1.0580    0.0000 H   0  0  0  0  0  0  0  0  0  0  0  0
    4.1075    1.1511    0.0000 H   0  0  0  0  0  0  0  0  0  0  0  0
    3.7057    0.4613    0.0000 H   0  0  0  0  0  0  0  0  0  0  0  0
    5.6272    1.5511    0.0000 H   0  0  0  0  0  0  0  0  0  0  0  0
    4.8290    1.5603    0.0000 H   0  0  0  0  0  0  0  0  0  0  0  0
    5.1993   -2.1644    0.0000 H   0  0  0  0  0  0  0  0  0  0  0  0
    6.0488   -2.3815    0.0000 H   0  0  0  0  0  0  0  0  0  0  0  0
    6.2659   -1.5320    0.0000 H   0  0  0  0  0  0  0  0  0  0  0  0
    6.9826   -1.5734    0.0000 H   0  0  0  0  0  0  0  0  0  0  0  0
    8.3855   -0.7634    0.0000 H   0  0  0  0  0  0  0  0  0  0  0  0
    6.4260    2.3919    0.0000 H   0  0  0  0  0  0  0  0  0  0  0  0
    9.2919    0.7373    0.0000 H   0  0  0  0  0  0  0  0  0  0  0  0
    7.8622    3.2359    0.0000 H   0  0  0  0  0  0  0  0  0  0  0  0
    4.2122   -3.2880    0.0000 H   0  0  0  0  0  0  0  0  0  0  0  0
    4.4489   -4.1322    0.0000 H   0  0  0  0  0  0  0  0  0  0  0  0
    5.2932   -3.8955    0.0000 H   0  0  0  0  0  0  0  0  0  0  0  0
    2.1053    1.4149    0.0000 H   0  0  0  0  0  0  0  0  0  0  0  0
    1.3890    0.9092    0.0000 H   0  0  0  0  0  0  0  0  0  0  0  0
    1.8947    0.1930    0.0000 H   0  0  0  0  0  0  0  0  0  0  0  0
   10.2584    3.5893    0.0000 H   0  0  0  0  0  0  0  0  0  0  0  0
    9.6408    4.2117    0.0000 H   0  0  0  0  0  0  0  0  0  0  0  0
    9.0184    3.5941    0.0000 H   0  0  0  0  0  0  0  0  0  0  0  0
  1 13  1  0  0  0  0
  1 23  1  0  0  0  0
  2 15  1  0  0  0  0
  2 24  1  0  0  0  0
  3 13  2  0  0  0  0
  4 15  2  0  0  0  0
  5 22  1  0  0  0  0
  5 25  1  0  0  0  0
  6  7  1  0  0  0  0
  6  9  1  0  0  0  0
  6 12  1  6  0  0  0
  6 13  1  0  0  0  0
  7  8  1  0  0  0  0
  7 15  1  1  0  0  0
  7 26  1  0  0  0  0
  8 10  1  0  0  0  0
  8 27  1  0  0  0  0
  8 28  1  0  0  0  0
  9 11  2  0  0  0  0
  9 16  1  0  0  0  0
 10 11  1  0  0  0  0
 10 29  1  0  0  0  0
 10 30  1  0  0  0  0
 11 14  1  0  0  0  0
 12 31  1  0  0  0  0
 12 32  1  0  0  0  0
 12 33  1  0  0  0  0
 14 17  2  0  0  0  0
 14 19  1  0  0  0  0
 16 18  2  0  0  0  0
 16 34  1  0  0  0  0
 17 18  1  0  0  0  0
 17 20  1  0  0  0  0
 18 35  1  0  0  0  0
 19 21  2  0  0  0  0
 19 36  1  0  0  0  0
 20 22  2  0  0  0  0
 20 37  1  0  0  0  0
 21 22  1  0  0  0  0
 21 38  1  0  0  0  0
 23 39  1  0  0  0  0
 23 40  1  0  0  0  0
 23 41  1  0  0  0  0
 24 42  1  0  0  0  0
 24 43  1  0  0  0  0
 24 44  1  0  0  0  0
 25 45  1  0  0  0  0
 25 46  1  0  0  0  0
 25 47  1  0  0  0  0
M  END
> <PUBCHEM_COMPOUND_CID>
504324
> <PUBCHEM_COMPOUND_CANONICALIZED>
1
> <PUBCHEM_CACTVS_COMPLEXITY>
518
> <PUBCHEM_CACTVS_HBOND_ACCEPTOR>
5
> <PUBCHEM_CACTVS_HBOND_DONOR>
0
> <PUBCHEM_CACTVS_ROTATABLE_BOND>
5
> <PUBCHEM_CACTVS_SUBSKEYS>
AAADceB4OAAAAAAAAAAAAAAAAAAAAAAAAAAwYMAAAAAAAADBUAAAGgAAAAAADwSAmAIyDsAABACIAiDSCAACCAAgIAAIiAEGCIgMJjKENRqAMCAkwBEIqAfLyPCP4AADAAAQAADAAAYAACAAAAAAAAAAAA==
> <PUBCHEM_IUPAC_OPENEYE_NAME>
dimethyl (1S,2S)-7-methoxy-1-methyl-3,4-dihydro-2H-phenanthrene-1,2-dicarboxylate
> <PUBCHEM_IUPAC_CAS_NAME>
(1S,2S)-7-methoxy-1-methyl-3,4-dihydro-2H-phenanthrene-1,2-dicarboxylic acid dimethyl ester
> <PUBCHEM_IUPAC_NAME_MARKUP>
dimethyl (1<I>S</I>,2<I>S</I>)-7-methoxy-1-methyl-3,4-dihydro-2<I>H</I>-phenanthrene-1,2-dicarboxylate
> <PUBCHEM_IUPAC_NAME>
dimethyl (1S,2S)-7-methoxy-1-methyl-3,4-dihydro-2H-phenanthrene-1,2-dicarboxylate
> <PUBCHEM_IUPAC_SYSTEMATIC_NAME>
dimethyl (1S,2S)-7-methoxy-1-methyl-3,4-dihydro-2H-phenanthrene-1,2-dicarboxylate
> <PUBCHEM_IUPAC_TRADITIONAL_NAME>
(1S,2S)-7-methoxy-1-methyl-3,4-dihydro-2H-phenanthrene-1,2-dicarboxylic acid dimethyl ester
> <PUBCHEM_IUPAC_INCHI>
InChI=1S/C20H22O5/c1-20(19(22)25-4)16-9-5-12-11-13(23-2)6-7-14(12)15(16)8-10-17(20)18(21)24-3/h5-7,9,11,17H,8,10H2,1-4H3/t17-,20-/m1/s1
> <PUBCHEM_IUPAC_INCHIKEY>
HHUBZEBUZFXLSN-YLJYHZDGSA-N
> <PUBCHEM_XLOGP3_AA>
3.6
> <PUBCHEM_EXACT_MASS>
342.14672380
> <PUBCHEM_MOLECULAR_FORMULA>
C20H22O5
> <PUBCHEM_MOLECULAR_WEIGHT>
342.4
> <PUBCHEM_OPENEYE_CAN_SMILES>
CC1(C(CCC2=C1C=CC3=C2C=CC(=C3)OC)C(=O)OC)C(=O)OC
> <PUBCHEM_OPENEYE_ISO_SMILES>
C[C@@]1([C@H](CCC2=C1C=CC3=C2C=CC(=C3)OC)C(=O)OC)C(=O)OC
> <PUBCHEM_CACTVS_TPSA>
61.8
> <PUBCHEM_MONOISOTOPIC_WEIGHT>
342.14672380
> <PUBCHEM_TOTAL_CHARGE>
0
> <PUBCHEM_HEAVY_ATOM_COUNT>
25
> <PUBCHEM_ATOM_DEF_STEREO_COUNT>
2
> <PUBCHEM_ATOM_UDEF_STEREO_COUNT>
0
> <PUBCHEM_BOND_DEF_STEREO_COUNT>
0
> <PUBCHEM_BOND_UDEF_STEREO_COUNT>
0
> <PUBCHEM_ISOTOPIC_ATOM_COUNT>
0
> <PUBCHEM_COMPONENT_COUNT>
1
> <PUBCHEM_CACTVS_TAUTO_COUNT>
-1
> <PUBCHEM_COORDINATE_TYPE>
1
5
255
> <PUBCHEM_BONDANNOTATIONS>
11  14  8
14  17  8
14  19  8
16  18  8
17  18  8
17  20  8
19  21  8
20  22  8
21  22  8
6  12  6
7  15  5
9  11  8
9  16  8
$$$$
