504300
  -OEChem-10302200282D
 41 43  0     1  0  0  0  0  0999 V2000
    2.9230   -2.5084    0.0000 O   0  0  0  0  0  0  0  0  0  0  0  0
    5.1831   -3.7684    0.0000 O   0  0  0  0  0  0  0  0  0  0  0  0
    3.3660   -4.9594    0.0000 O   0  0  0  0  0  0  0  0  0  0  0  0
    5.4641   -0.9206    0.0000 O   0  0  0  0  0  0  0  0  0  0  0  0
    2.0000    2.0794    0.0000 O   0  0  0  0  0  0  0  0  0  0  0  0
    3.7320   -0.9206    0.0000 N   0  0  0  0  0  0  0  0  0  0  0  0
    4.5981    0.5794    0.0000 N   0  0  0  0  0  0  0  0  0  0  0  0
    3.7320    2.0794    0.0000 N   0  0  0  0  0  0  0  0  0  0  0  0
    4.2320   -3.4594    0.0000 C   0  0  3  0  0  0  0  0  0  0  0  0
    4.5411   -2.5084    0.0000 C   0  0  0  0  0  0  0  0  0  0  0  0
    3.7320   -1.9206    0.0000 C   0  0  2  0  0  0  0  0  0  0  0  0
    3.2320   -3.4594    0.0000 C   0  0  0  0  0  0  0  0  0  0  0  0
    4.2320   -4.4594    0.0000 C   0  0  0  0  0  0  0  0  0  0  0  0
    2.8660   -0.4206    0.0000 C   0  0  0  0  0  0  0  0  0  0  0  0
    4.5981   -0.4206    0.0000 C   0  0  0  0  0  0  0  0  0  0  0  0
    2.8660    0.5794    0.0000 C   0  0  0  0  0  0  0  0  0  0  0  0
    3.7320    1.0794    0.0000 C   0  0  0  0  0  0  0  0  0  0  0  0
    2.8660    2.5794    0.0000 C   0  0  0  0  0  0  0  0  0  0  0  0
    2.8660    3.5794    0.0000 C   0  0  0  0  0  0  0  0  0  0  0  0
    2.0000    4.0794    0.0000 C   0  0  0  0  0  0  0  0  0  0  0  0
    3.7320    4.0794    0.0000 C   0  0  0  0  0  0  0  0  0  0  0  0
    2.0000    5.0794    0.0000 C   0  0  0  0  0  0  0  0  0  0  0  0
    3.7320    5.0794    0.0000 C   0  0  0  0  0  0  0  0  0  0  0  0
    2.8660    5.5794    0.0000 C   0  0  0  0  0  0  0  0  0  0  0  0
    5.1075   -2.7605    0.0000 H   0  0  0  0  0  0  0  0  0  0  0  0
    4.8511   -1.9714    0.0000 H   0  0  0  0  0  0  0  0  0  0  0  0
    4.2845   -1.6391    0.0000 H   0  0  0  0  0  0  0  0  0  0  0  0
    2.6256   -3.5883    0.0000 H   0  0  0  0  0  0  0  0  0  0  0  0
    3.2969   -4.0760    0.0000 H   0  0  0  0  0  0  0  0  0  0  0  0
    4.4441   -5.0420    0.0000 H   0  0  0  0  0  0  0  0  0  0  0  0
    4.8426   -4.3518    0.0000 H   0  0  0  0  0  0  0  0  0  0  0  0
    5.3120   -4.3749    0.0000 H   0  0  0  0  0  0  0  0  0  0  0  0
    2.3291   -0.7306    0.0000 H   0  0  0  0  0  0  0  0  0  0  0  0
    3.3660   -5.5794    0.0000 H   0  0  0  0  0  0  0  0  0  0  0  0
    2.3291    0.8894    0.0000 H   0  0  0  0  0  0  0  0  0  0  0  0
    4.2690    2.3894    0.0000 H   0  0  0  0  0  0  0  0  0  0  0  0
    1.4631    3.7694    0.0000 H   0  0  0  0  0  0  0  0  0  0  0  0
    4.2690    3.7694    0.0000 H   0  0  0  0  0  0  0  0  0  0  0  0
    1.4631    5.3894    0.0000 H   0  0  0  0  0  0  0  0  0  0  0  0
    4.2690    5.3894    0.0000 H   0  0  0  0  0  0  0  0  0  0  0  0
    2.8660    6.1994    0.0000 H   0  0  0  0  0  0  0  0  0  0  0  0
  1 11  1  0  0  0  0
  1 12  1  0  0  0  0
  2  9  1  0  0  0  0
  2 32  1  0  0  0  0
  3 13  1  0  0  0  0
  3 34  1  0  0  0  0
  4 15  2  0  0  0  0
  5 18  2  0  0  0  0
 11  6  1  6  0  0  0
  6 14  1  0  0  0  0
  6 15  1  0  0  0  0
  7 15  1  0  0  0  0
  7 17  2  0  0  0  0
  8 17  1  0  0  0  0
  8 18  1  0  0  0  0
  8 36  1  0  0  0  0
  9 10  1  0  0  0  0
  9 12  1  0  0  0  0
  9 13  1  0  0  0  0
 10 11  1  0  0  0  0
 10 25  1  0  0  0  0
 10 26  1  0  0  0  0
 11 27  1  0  0  0  0
 12 28  1  0  0  0  0
 12 29  1  0  0  0  0
 13 30  1  0  0  0  0
 13 31  1  0  0  0  0
 14 16  2  0  0  0  0
 14 33  1  0  0  0  0
 16 17  1  0  0  0  0
 16 35  1  0  0  0  0
 18 19  1  0  0  0  0
 19 20  2  0  0  0  0
 19 21  1  0  0  0  0
 20 22  1  0  0  0  0
 20 37  1  0  0  0  0
 21 23  2  0  0  0  0
 21 38  1  0  0  0  0
 22 24  2  0  0  0  0
 22 39  1  0  0  0  0
 23 24  1  0  0  0  0
 23 40  1  0  0  0  0
 24 41  1  0  0  0  0
M  END
> <PUBCHEM_COMPOUND_CID>
504300
> <PUBCHEM_COMPOUND_CANONICALIZED>
1
> <PUBCHEM_CACTVS_COMPLEXITY>
570
> <PUBCHEM_CACTVS_HBOND_ACCEPTOR>
5
> <PUBCHEM_CACTVS_HBOND_DONOR>
3
> <PUBCHEM_CACTVS_ROTATABLE_BOND>
4
> <PUBCHEM_CACTVS_SUBSKEYS>
AAADceB7OAAAAAAAAAAAAAAAAAAAASAAAAAwQAAAAAAAAAABAAAAHgAQCAAADEThmAYxAIPABgCoAiN2dACCAAEkAgAJiAEYBNiJMDKAnRGOYQhnlgKLiYd4iACOAAAAAAAAAAAAAAAAAAAAAAAAAAAAAA==
> <PUBCHEM_IUPAC_OPENEYE_NAME>
N-[1-[(2S)-4-hydroxy-4-(hydroxymethyl)tetrahydrofuran-2-yl]-2-oxo-pyrimidin-4-yl]benzamide
> <PUBCHEM_IUPAC_CAS_NAME>
N-[1-[(2S)-4-hydroxy-4-(hydroxymethyl)-2-oxolanyl]-2-oxo-4-pyrimidinyl]benzamide
> <PUBCHEM_IUPAC_NAME_MARKUP>
<I>N</I>-[1-[(2<I>S</I>)-4-hydroxy-4-(hydroxymethyl)oxolan-2-yl]-2-oxopyrimidin-4-yl]benzamide
> <PUBCHEM_IUPAC_NAME>
N-[1-[(2S)-4-hydroxy-4-(hydroxymethyl)oxolan-2-yl]-2-oxopyrimidin-4-yl]benzamide
> <PUBCHEM_IUPAC_SYSTEMATIC_NAME>
N-[1-[(2S)-4-(hydroxymethyl)-4-oxidanyl-oxolan-2-yl]-2-oxidanylidene-pyrimidin-4-yl]benzamide
> <PUBCHEM_IUPAC_TRADITIONAL_NAME>
N-[1-[(2S)-4-hydroxy-4-methylol-tetrahydrofuran-2-yl]-2-keto-pyrimidin-4-yl]benzamide
> <PUBCHEM_IUPAC_INCHI>
InChI=1S/C16H17N3O5/c20-9-16(23)8-13(24-10-16)19-7-6-12(18-15(19)22)17-14(21)11-4-2-1-3-5-11/h1-7,13,20,23H,8-10H2,(H,17,18,21,22)/t13-,16?/m0/s1
> <PUBCHEM_IUPAC_INCHIKEY>
LMFSKTVIDJEZCH-KNVGNIICSA-N
> <PUBCHEM_XLOGP3_AA>
-0.6
> <PUBCHEM_EXACT_MASS>
331.11682065
> <PUBCHEM_MOLECULAR_FORMULA>
C16H17N3O5
> <PUBCHEM_MOLECULAR_WEIGHT>
331.32
> <PUBCHEM_OPENEYE_CAN_SMILES>
C1C(OCC1(CO)O)N2C=CC(=NC2=O)NC(=O)C3=CC=CC=C3
> <PUBCHEM_OPENEYE_ISO_SMILES>
C1[C@H](OCC1(CO)O)N2C=CC(=NC2=O)NC(=O)C3=CC=CC=C3
> <PUBCHEM_CACTVS_TPSA>
112
> <PUBCHEM_MONOISOTOPIC_WEIGHT>
331.11682065
> <PUBCHEM_TOTAL_CHARGE>
0
> <PUBCHEM_HEAVY_ATOM_COUNT>
24
> <PUBCHEM_ATOM_DEF_STEREO_COUNT>
1
> <PUBCHEM_ATOM_UDEF_STEREO_COUNT>
1
> <PUBCHEM_BOND_DEF_STEREO_COUNT>
0
> <PUBCHEM_BOND_UDEF_STEREO_COUNT>
0
> <PUBCHEM_ISOTOPIC_ATOM_COUNT>
0
> <PUBCHEM_COMPONENT_COUNT>
1
> <PUBCHEM_CACTVS_TAUTO_COUNT>
-1
> <PUBCHEM_COORDINATE_TYPE>
1
5
255
> <PUBCHEM_BONDANNOTATIONS>
14  16  8
16  17  8
19  20  8
19  21  8
9  2  3
20  22  8
21  23  8
22  24  8
23  24  8
11  6  6
6  14  8
6  15  8
7  15  8
7  17  8
$$$$
