504375
  -OEChem-10302200282D
164165  0     1  0  0  0  0  0999 V2000
    9.6075    3.4969    0.0000 O   0  0  0  0  0  0  0  0  0  0  0  0
    9.4651    2.1423    0.0000 O   0  0  0  0  0  0  0  0  0  0  0  0
   11.1823    6.7404    0.0000 O   0  0  0  0  0  0  0  0  0  0  0  0
   10.3312   -1.3577    0.0000 O   0  0  0  0  0  0  0  0  0  0  0  0
    8.0018    8.4387    0.0000 O   0  0  0  0  0  0  0  0  0  0  0  0
    7.7331   -0.8577    0.0000 O   0  0  0  0  0  0  0  0  0  0  0  0
    9.5766   11.6822    0.0000 O   0  0  0  0  0  0  0  0  0  0  0  0
   11.4787   12.3002    0.0000 O   0  0  0  0  0  0  0  0  0  0  0  0
   12.0140   10.6530    0.0000 O   0  0  0  0  0  0  0  0  0  0  0  0
    8.5991   -4.3577    0.0000 O   0  0  0  0  0  0  0  0  0  0  0  0
    6.3961   13.3806    0.0000 O   0  0  0  0  0  0  0  0  0  0  0  0
    4.4940   12.7625    0.0000 O   0  0  0  0  0  0  0  0  0  0  0  0
    5.0292   11.1153    0.0000 O   0  0  0  0  0  0  0  0  0  0  0  0
    5.1350   -5.3577    0.0000 O   0  0  0  0  0  0  0  0  0  0  0  0
    4.2690   -8.8577    0.0000 O   0  0  0  0  0  0  0  0  0  0  0  0
    6.8671  -11.3577    0.0000 O   0  0  0  0  0  0  0  0  0  0  0  0
    2.5369   -6.8577    0.0000 O   0  0  0  0  0  0  0  0  0  0  0  0
    9.4651  -11.8577    0.0000 O   0  0  0  0  0  0  0  0  0  0  0  0
    3.4030   -8.3577    0.0000 O   0  0  0  0  0  0  0  0  0  0  0  0
    5.1350  -14.3577    0.0000 O   0  0  0  0  0  0  0  0  0  0  0  0
    9.4651   -8.8577    0.0000 O   0  0  0  0  0  0  0  0  0  0  0  0
   11.3017    3.1368    0.0000 N   0  0  0  0  0  0  0  0  0  0  0  0
   10.0233    5.4532    0.0000 N   0  0  0  0  0  0  0  0  0  0  0  0
   10.3312    0.6423    0.0000 N   0  0  0  0  0  0  0  0  0  0  0  0
    9.6960    8.0786    0.0000 N   0  0  0  0  0  0  0  0  0  0  0  0
    8.4176   10.3950    0.0000 N   0  0  0  0  0  0  0  0  0  0  0  0
    8.5991   -2.3577    0.0000 N   0  0  0  0  0  0  0  0  0  0  0  0
    8.0903   13.0205    0.0000 N   0  0  0  0  0  0  0  0  0  0  0  0
    6.8671   -4.3577    0.0000 N   0  0  0  0  0  0  0  0  0  0  0  0
    6.0010   -6.8577    0.0000 N   0  0  0  0  0  0  0  0  0  0  0  0
    6.0010   -8.8577    0.0000 N   0  0  0  0  0  0  0  0  0  0  0  0
    7.7331   -9.8577    0.0000 N   0  0  0  0  0  0  0  0  0  0  0  0
   10.3312  -10.3577    0.0000 N   0  0  0  0  0  0  0  0  0  0  0  0
   11.1972    2.1423    0.0000 C   0  0  3  0  0  0  0  0  0  0  0  0
   12.1107    1.7355    0.0000 C   0  0  0  0  0  0  0  0  0  0  0  0
   12.7799    2.4787    0.0000 C   0  0  0  0  0  0  0  0  0  0  0  0
   12.2799    3.3447    0.0000 C   0  0  0  0  0  0  0  0  0  0  0  0
   10.7665    4.7841    0.0000 C   0  0  2  0  0  0  0  0  0  0  0  0
   10.5586    3.8059    0.0000 C   0  0  0  0  0  0  0  0  0  0  0  0
   10.3312    1.6423    0.0000 C   0  0  0  0  0  0  0  0  0  0  0  0
   11.7175    5.0931    0.0000 C   0  0  0  0  0  0  0  0  0  0  0  0
    9.4651    0.1423    0.0000 C   0  0  1  0  0  0  0  0  0  0  0  0
   11.9255    6.0712    0.0000 C   0  0  0  0  0  0  0  0  0  0  0  0
   12.4607    4.4239    0.0000 C   0  0  0  0  0  0  0  0  0  0  0  0
    9.4881    7.1005    0.0000 C   0  0  2  0  0  0  0  0  0  0  0  0
   10.2313    6.4313    0.0000 C   0  0  0  0  0  0  0  0  0  0  0  0
    8.5991    0.6423    0.0000 C   0  0  0  0  0  0  0  0  0  0  0  0
    8.5370    6.7915    0.0000 C   0  0  0  0  0  0  0  0  0  0  0  0
    9.4651   -0.8577    0.0000 C   0  0  0  0  0  0  0  0  0  0  0  0
    8.5991    1.6423    0.0000 C   0  0  0  0  0  0  0  0  0  0  0  0
    7.7939    7.4606    0.0000 C   0  0  0  0  0  0  0  0  0  0  0  0
    8.3291    5.8133    0.0000 C   0  0  0  0  0  0  0  0  0  0  0  0
    8.9529    8.7478    0.0000 C   0  0  0  0  0  0  0  0  0  0  0  0
    9.1608    9.7259    0.0000 C   0  0  2  0  0  0  0  0  0  0  0  0
    7.7331    2.1423    0.0000 C   0  0  0  0  0  0  0  0  0  0  0  0
    8.5991   -1.3577    0.0000 C   0  0  0  0  0  0  0  0  0  0  0  0
   10.1118   10.0349    0.0000 C   0  0  0  0  0  0  0  0  0  0  0  0
   10.3198   11.0131    0.0000 C   0  0  0  0  0  0  0  0  0  0  0  0
    8.6256   11.3732    0.0000 C   0  0  0  0  0  0  0  0  0  0  0  0
    7.8824   12.0423    0.0000 C   0  0  2  0  0  0  0  0  0  0  0  0
    7.7331   -2.8577    0.0000 C   0  0  0  0  0  0  0  0  0  0  0  0
    6.9314   11.7333    0.0000 C   0  0  0  0  0  0  0  0  0  0  0  0
   11.2708   11.3221    0.0000 C   0  0  0  0  0  0  0  0  0  0  0  0
    7.7331   -3.8577    0.0000 C   0  0  0  0  0  0  0  0  0  0  0  0
    6.1882   12.4024    0.0000 C   0  0  0  0  0  0  0  0  0  0  0  0
    7.3472   13.6896    0.0000 C   0  0  0  0  0  0  0  0  0  0  0  0
    5.2372   12.0934    0.0000 C   0  0  0  0  0  0  0  0  0  0  0  0
    6.8671   -5.3577    0.0000 C   0  0  0  0  0  0  0  0  0  0  0  0
    7.5551   14.6677    0.0000 C   0  0  0  0  0  0  0  0  0  0  0  0
    6.0010   -5.8577    0.0000 C   0  0  0  0  0  0  0  0  0  0  0  0
    5.1350   -7.3577    0.0000 C   0  0  2  0  0  0  0  0  0  0  0  0
    6.0010   -9.8577    0.0000 C   0  0  1  0  0  0  0  0  0  0  0  0
    5.1350  -10.3577    0.0000 C   0  0  0  0  0  0  0  0  0  0  0  0
    5.1350   -8.3577    0.0000 C   0  0  0  0  0  0  0  0  0  0  0  0
    4.2690   -6.8577    0.0000 C   0  0  0  0  0  0  0  0  0  0  0  0
    6.8671  -10.3577    0.0000 C   0  0  0  0  0  0  0  0  0  0  0  0
    5.1350  -11.3577    0.0000 C   0  0  0  0  0  0  0  0  0  0  0  0
    8.5991  -10.3577    0.0000 C   0  0  1  0  0  0  0  0  0  0  0  0
    6.0010  -11.8577    0.0000 C   0  0  0  0  0  0  0  0  0  0  0  0
    4.2690  -11.8577    0.0000 C   0  0  0  0  0  0  0  0  0  0  0  0
    3.4030   -7.3577    0.0000 C   0  0  0  0  0  0  0  0  0  0  0  0
    8.5991  -11.3577    0.0000 C   0  0  0  0  0  0  0  0  0  0  0  0
    6.0010  -12.8577    0.0000 C   0  0  0  0  0  0  0  0  0  0  0  0
    4.2690  -12.8577    0.0000 C   0  0  0  0  0  0  0  0  0  0  0  0
    9.4651   -9.8577    0.0000 C   0  0  0  0  0  0  0  0  0  0  0  0
    5.1350  -13.3577    0.0000 C   0  0  0  0  0  0  0  0  0  0  0  0
   10.6772    2.4799    0.0000 H   0  0  0  0  0  0  0  0  0  0  0  0
   11.8007    1.1986    0.0000 H   0  0  0  0  0  0  0  0  0  0  0  0
   12.6123    1.3711    0.0000 H   0  0  0  0  0  0  0  0  0  0  0  0
   13.1947    2.0179    0.0000 H   0  0  0  0  0  0  0  0  0  0  0  0
   13.2815    2.8431    0.0000 H   0  0  0  0  0  0  0  0  0  0  0  0
   12.8463    3.5969    0.0000 H   0  0  0  0  0  0  0  0  0  0  0  0
   12.0883    3.9344    0.0000 H   0  0  0  0  0  0  0  0  0  0  0  0
   10.1768    4.5925    0.0000 H   0  0  0  0  0  0  0  0  0  0  0  0
   12.3072    5.2847    0.0000 H   0  0  0  0  0  0  0  0  0  0  0  0
    9.4337    5.2616    0.0000 H   0  0  0  0  0  0  0  0  0  0  0  0
   10.8681    0.3323    0.0000 H   0  0  0  0  0  0  0  0  0  0  0  0
   10.0021   -0.1677    0.0000 H   0  0  0  0  0  0  0  0  0  0  0  0
   12.5319    5.9423    0.0000 H   0  0  0  0  0  0  0  0  0  0  0  0
   12.0544    6.6777    0.0000 H   0  0  0  0  0  0  0  0  0  0  0  0
   11.3190    6.2001    0.0000 H   0  0  0  0  0  0  0  0  0  0  0  0
   12.0458    3.9632    0.0000 H   0  0  0  0  0  0  0  0  0  0  0  0
   12.9214    4.0091    0.0000 H   0  0  0  0  0  0  0  0  0  0  0  0
   12.8755    4.8847    0.0000 H   0  0  0  0  0  0  0  0  0  0  0  0
    9.0274    7.5153    0.0000 H   0  0  0  0  0  0  0  0  0  0  0  0
    7.9885    0.7499    0.0000 H   0  0  0  0  0  0  0  0  0  0  0  0
    8.3871    0.0597    0.0000 H   0  0  0  0  0  0  0  0  0  0  0  0
    7.9474    6.5999    0.0000 H   0  0  0  0  0  0  0  0  0  0  0  0
    9.2097    1.5346    0.0000 H   0  0  0  0  0  0  0  0  0  0  0  0
    8.8112    2.2249    0.0000 H   0  0  0  0  0  0  0  0  0  0  0  0
   10.2857    8.2702    0.0000 H   0  0  0  0  0  0  0  0  0  0  0  0
    8.2088    7.9213    0.0000 H   0  0  0  0  0  0  0  0  0  0  0  0
    7.3332    7.8754    0.0000 H   0  0  0  0  0  0  0  0  0  0  0  0
    7.3790    6.9998    0.0000 H   0  0  0  0  0  0  0  0  0  0  0  0
    7.7227    5.9422    0.0000 H   0  0  0  0  0  0  0  0  0  0  0  0
    8.2002    5.2069    0.0000 H   0  0  0  0  0  0  0  0  0  0  0  0
    8.9356    5.6844    0.0000 H   0  0  0  0  0  0  0  0  0  0  0  0
    8.5711    9.5343    0.0000 H   0  0  0  0  0  0  0  0  0  0  0  0
    8.0431    2.6792    0.0000 H   0  0  0  0  0  0  0  0  0  0  0  0
    7.1962    2.4523    0.0000 H   0  0  0  0  0  0  0  0  0  0  0  0
    7.4231    1.6053    0.0000 H   0  0  0  0  0  0  0  0  0  0  0  0
   10.1981    9.4210    0.0000 H   0  0  0  0  0  0  0  0  0  0  0  0
   10.7315   10.0133    0.0000 H   0  0  0  0  0  0  0  0  0  0  0  0
    7.8280   10.2034    0.0000 H   0  0  0  0  0  0  0  0  0  0  0  0
    9.1360   -2.6677    0.0000 H   0  0  0  0  0  0  0  0  0  0  0  0
   10.2335   11.6270    0.0000 H   0  0  0  0  0  0  0  0  0  0  0  0
    9.7001   11.0347    0.0000 H   0  0  0  0  0  0  0  0  0  0  0  0
    7.4217   12.4572    0.0000 H   0  0  0  0  0  0  0  0  0  0  0  0
    7.5210   -2.2751    0.0000 H   0  0  0  0  0  0  0  0  0  0  0  0
    7.1225   -2.9654    0.0000 H   0  0  0  0  0  0  0  0  0  0  0  0
    6.4428   11.3516    0.0000 H   0  0  0  0  0  0  0  0  0  0  0  0
    7.2224   11.1859    0.0000 H   0  0  0  0  0  0  0  0  0  0  0  0
    8.6800   13.2120    0.0000 H   0  0  0  0  0  0  0  0  0  0  0  0
    6.6768   12.7841    0.0000 H   0  0  0  0  0  0  0  0  0  0  0  0
    5.8971   12.9499    0.0000 H   0  0  0  0  0  0  0  0  0  0  0  0
    6.3301   -4.0477    0.0000 H   0  0  0  0  0  0  0  0  0  0  0  0
   12.0684   12.4918    0.0000 H   0  0  0  0  0  0  0  0  0  0  0  0
    7.0791   -5.9403    0.0000 H   0  0  0  0  0  0  0  0  0  0  0  0
    7.4776   -5.2501    0.0000 H   0  0  0  0  0  0  0  0  0  0  0  0
    8.1615   14.5388    0.0000 H   0  0  0  0  0  0  0  0  0  0  0  0
    7.6840   15.2742    0.0000 H   0  0  0  0  0  0  0  0  0  0  0  0
    6.9486   14.7966    0.0000 H   0  0  0  0  0  0  0  0  0  0  0  0
    5.1350   -6.7377    0.0000 H   0  0  0  0  0  0  0  0  0  0  0  0
    6.5380   -9.5477    0.0000 H   0  0  0  0  0  0  0  0  0  0  0  0
    6.5380   -7.1677    0.0000 H   0  0  0  0  0  0  0  0  0  0  0  0
    4.9230   -9.7751    0.0000 H   0  0  0  0  0  0  0  0  0  0  0  0
    4.5244  -10.4654    0.0000 H   0  0  0  0  0  0  0  0  0  0  0  0
    6.5380   -8.5477    0.0000 H   0  0  0  0  0  0  0  0  0  0  0  0
    4.6675   -6.3828    0.0000 H   0  0  0  0  0  0  0  0  0  0  0  0
    3.8705   -6.3828    0.0000 H   0  0  0  0  0  0  0  0  0  0  0  0
    3.9044   12.5709    0.0000 H   0  0  0  0  0  0  0  0  0  0  0  0
    7.7331   -9.2377    0.0000 H   0  0  0  0  0  0  0  0  0  0  0  0
    8.5991   -9.7377    0.0000 H   0  0  0  0  0  0  0  0  0  0  0  0
    6.5380  -11.5477    0.0000 H   0  0  0  0  0  0  0  0  0  0  0  0
    3.7320  -11.5477    0.0000 H   0  0  0  0  0  0  0  0  0  0  0  0
    7.9885  -11.2501    0.0000 H   0  0  0  0  0  0  0  0  0  0  0  0
    8.3871  -11.9403    0.0000 H   0  0  0  0  0  0  0  0  0  0  0  0
    6.5380  -13.1677    0.0000 H   0  0  0  0  0  0  0  0  0  0  0  0
    3.7320  -13.1677    0.0000 H   0  0  0  0  0  0  0  0  0  0  0  0
    2.0000   -7.1677    0.0000 H   0  0  0  0  0  0  0  0  0  0  0  0
    9.4651  -12.4777    0.0000 H   0  0  0  0  0  0  0  0  0  0  0  0
   10.8681  -10.0477    0.0000 H   0  0  0  0  0  0  0  0  0  0  0  0
   10.3312  -10.9777    0.0000 H   0  0  0  0  0  0  0  0  0  0  0  0
    4.5981  -14.6677    0.0000 H   0  0  0  0  0  0  0  0  0  0  0  0
  1 39  2  0  0  0  0
  2 40  2  0  0  0  0
  3 46  2  0  0  0  0
  4 49  2  0  0  0  0
  5 53  2  0  0  0  0
  6 56  2  0  0  0  0
  7 59  2  0  0  0  0
  8 63  1  0  0  0  0
  8137  1  0  0  0  0
  9 63  2  0  0  0  0
 10 64  2  0  0  0  0
 11 66  2  0  0  0  0
 12 67  1  0  0  0  0
 12151  1  0  0  0  0
 13 67  2  0  0  0  0
 14 70  2  0  0  0  0
 15 74  2  0  0  0  0
 16 76  2  0  0  0  0
 17 81  1  0  0  0  0
 17160  1  0  0  0  0
 18 82  1  0  0  0  0
 18161  1  0  0  0  0
 19 81  2  0  0  0  0
 20 86  1  0  0  0  0
 20164  1  0  0  0  0
 21 85  2  0  0  0  0
 22 34  1  0  0  0  0
 22 37  1  0  0  0  0
 22 39  1  0  0  0  0
 38 23  1  1  0  0  0
 23 46  1  0  0  0  0
 23 96  1  0  0  0  0
 24 40  1  0  0  0  0
 42 24  1  6  0  0  0
 24 97  1  0  0  0  0
 45 25  1  6  0  0  0
 25 53  1  0  0  0  0
 25111  1  0  0  0  0
 54 26  1  1  0  0  0
 26 59  1  0  0  0  0
 26124  1  0  0  0  0
 27 56  1  0  0  0  0
 27 61  1  0  0  0  0
 27125  1  0  0  0  0
 60 28  1  6  0  0  0
 28 66  1  0  0  0  0
 28133  1  0  0  0  0
 29 64  1  0  0  0  0
 29 68  1  0  0  0  0
 29136  1  0  0  0  0
 30 70  1  0  0  0  0
 71 30  1  6  0  0  0
 30145  1  0  0  0  0
 72 31  1  6  0  0  0
 31 74  1  0  0  0  0
 31148  1  0  0  0  0
 32 76  1  0  0  0  0
 78 32  1  6  0  0  0
 32152  1  0  0  0  0
 33 85  1  0  0  0  0
 33162  1  0  0  0  0
 33163  1  0  0  0  0
 34 35  1  0  0  0  0
 34 40  1  0  0  0  0
 34 87  1  0  0  0  0
 35 36  1  0  0  0  0
 35 88  1  0  0  0  0
 35 89  1  0  0  0  0
 36 37  1  0  0  0  0
 36 90  1  0  0  0  0
 36 91  1  0  0  0  0
 37 92  1  0  0  0  0
 37 93  1  0  0  0  0
 38 39  1  0  0  0  0
 38 41  1  0  0  0  0
 38 94  1  0  0  0  0
 41 43  1  0  0  0  0
 41 44  1  0  0  0  0
 41 95  1  0  0  0  0
 42 47  1  0  0  0  0
 42 49  1  0  0  0  0
 42 98  1  0  0  0  0
 43 99  1  0  0  0  0
 43100  1  0  0  0  0
 43101  1  0  0  0  0
 44102  1  0  0  0  0
 44103  1  0  0  0  0
 44104  1  0  0  0  0
 45 46  1  0  0  0  0
 45 48  1  0  0  0  0
 45105  1  0  0  0  0
 47 50  1  0  0  0  0
 47106  1  0  0  0  0
 47107  1  0  0  0  0
 48 51  1  0  0  0  0
 48 52  1  0  0  0  0
 48108  1  0  0  0  0
 49 56  1  0  0  0  0
 50 55  1  0  0  0  0
 50109  1  0  0  0  0
 50110  1  0  0  0  0
 51112  1  0  0  0  0
 51113  1  0  0  0  0
 51114  1  0  0  0  0
 52115  1  0  0  0  0
 52116  1  0  0  0  0
 52117  1  0  0  0  0
 53 54  1  0  0  0  0
 54 57  1  0  0  0  0
 54118  1  0  0  0  0
 55119  1  0  0  0  0
 55120  1  0  0  0  0
 55121  1  0  0  0  0
 57 58  1  0  0  0  0
 57122  1  0  0  0  0
 57123  1  0  0  0  0
 58 63  1  0  0  0  0
 58126  1  0  0  0  0
 58127  1  0  0  0  0
 59 60  1  0  0  0  0
 60 62  1  0  0  0  0
 60128  1  0  0  0  0
 61 64  1  0  0  0  0
 61129  1  0  0  0  0
 61130  1  0  0  0  0
 62 65  1  0  0  0  0
 62131  1  0  0  0  0
 62132  1  0  0  0  0
 65 67  1  0  0  0  0
 65134  1  0  0  0  0
 65135  1  0  0  0  0
 66 69  1  0  0  0  0
 68 70  1  0  0  0  0
 68138  1  0  0  0  0
 68139  1  0  0  0  0
 69140  1  0  0  0  0
 69141  1  0  0  0  0
 69142  1  0  0  0  0
 71 74  1  0  0  0  0
 71 75  1  0  0  0  0
 71143  1  0  0  0  0
 72 73  1  0  0  0  0
 72 76  1  0  0  0  0
 72144  1  0  0  0  0
 73 77  1  0  0  0  0
 73146  1  0  0  0  0
 73147  1  0  0  0  0
 75 81  1  0  0  0  0
 75149  1  0  0  0  0
 75150  1  0  0  0  0
 77 79  2  0  0  0  0
 77 80  1  0  0  0  0
 78 82  1  0  0  0  0
 78 85  1  0  0  0  0
 78153  1  0  0  0  0
 79 83  1  0  0  0  0
 79154  1  0  0  0  0
 80 84  2  0  0  0  0
 80155  1  0  0  0  0
 82156  1  0  0  0  0
 82157  1  0  0  0  0
 83 86  2  0  0  0  0
 83158  1  0  0  0  0
 84 86  1  0  0  0  0
 84159  1  0  0  0  0
M  END
> <PUBCHEM_COMPOUND_CID>
504375
> <PUBCHEM_COMPOUND_CANONICALIZED>
1
> <PUBCHEM_CACTVS_COMPLEXITY>
2490
> <PUBCHEM_CACTVS_HBOND_ACCEPTOR>
21
> <PUBCHEM_CACTVS_HBOND_DONOR>
16
> <PUBCHEM_CACTVS_ROTATABLE_BOND>
37
> <PUBCHEM_CACTVS_SUBSKEYS>
AAADcfB//gAAAAAAAAAAAAAAAAAAAWAAAAAwAAAAAAAAAAABAAAAHgAQCAAADSzhmAYyDoPAAgCIAqHSGAACAAAgIAAIiIGOCIgKdj6C0TOUcAAm9hGYmAe/36KOIAAAAAAAAABAAAAAAAAAAAAAAAAAAA==
> <PUBCHEM_IUPAC_OPENEYE_NAME>
(4S)-4-acetamido-5-[[(1S)-1-[[(1S)-1-[[(1S)-1-[2-[[(1S)-1-[2-[[2-[[2-[[(1S)-2-[[(1S)-2-[[(1S)-2-amino-1-(hydroxymethyl)-2-oxo-ethyl]amino]-1-[(4-hydroxyphenyl)methyl]-2-oxo-ethyl]amino]-1-(carboxymethyl)-2-oxo-ethyl]amino]-2-oxo-ethyl]amino]-2-oxo-ethyl]amino]-2-oxo-acetyl]butyl]carbamoyl]pyrrolidine-1-carbonyl]-2-methyl-propyl]carbamoyl]-2-methyl-propyl]carbamoyl]-3-carboxy-propyl]amino]-5-oxo-pentanoic acid
> <PUBCHEM_IUPAC_CAS_NAME>
(4S)-4-acetamido-5-[[(2S)-1-[[(2S)-1-[[(2S)-1-[2-[[[(3S)-1-[[2-[[2-[[(2S)-1-[[(2S)-1-[[(2S)-1-amino-3-hydroxy-1-oxopropan-2-yl]amino]-3-(4-hydroxyphenyl)-1-oxopropan-2-yl]amino]-3-carboxy-1-oxopropan-2-yl]amino]-2-oxoethyl]amino]-2-oxoethyl]amino]-1,2-dioxohexan-3-yl]amino]-oxomethyl]-1-pyrrolidinyl]-3-methyl-1-oxobutan-2-yl]amino]-3-methyl-1-oxobutan-2-yl]amino]-4-carboxy-1-oxobutan-2-yl]amino]-5-oxopentanoic acid
> <PUBCHEM_IUPAC_NAME_MARKUP>
(4<I>S</I>)-4-acetamido-5-[[(2<I>S</I>)-1-[[(2<I>S</I>)-1-[[(2<I>S</I>)-1-[2-[[(3<I>S</I>)-1-[[2-[[2-[[(2<I>S</I>)-1-[[(2<I>S</I>)-1-[[(2<I>S</I>)-1-amino-3-hydroxy-1-oxopropan-2-yl]amino]-3-(4-hydroxyphenyl)-1-oxopropan-2-yl]amino]-3-carboxy-1-oxopropan-2-yl]amino]-2-oxoethyl]amino]-2-oxoethyl]amino]-1,2-dioxohexan-3-yl]carbamoyl]pyrrolidin-1-yl]-3-methyl-1-oxobutan-2-yl]amino]-3-methyl-1-oxobutan-2-yl]amino]-4-carboxy-1-oxobutan-2-yl]amino]-5-oxopentanoic acid
> <PUBCHEM_IUPAC_NAME>
(4S)-4-acetamido-5-[[(2S)-1-[[(2S)-1-[[(2S)-1-[2-[[(3S)-1-[[2-[[2-[[(2S)-1-[[(2S)-1-[[(2S)-1-amino-3-hydroxy-1-oxopropan-2-yl]amino]-3-(4-hydroxyphenyl)-1-oxopropan-2-yl]amino]-3-carboxy-1-oxopropan-2-yl]amino]-2-oxoethyl]amino]-2-oxoethyl]amino]-1,2-dioxohexan-3-yl]carbamoyl]pyrrolidin-1-yl]-3-methyl-1-oxobutan-2-yl]amino]-3-methyl-1-oxobutan-2-yl]amino]-4-carboxy-1-oxobutan-2-yl]amino]-5-oxopentanoic acid
> <PUBCHEM_IUPAC_SYSTEMATIC_NAME>
(4S)-4-acetamido-5-[[(2S)-1-[[(2S)-1-[[(2S)-1-[2-[[(3S)-1-[[2-[[2-[[(2S)-1-[[(2S)-1-[[(2S)-1-azanyl-3-oxidanyl-1-oxidanylidene-propan-2-yl]amino]-3-(4-hydroxyphenyl)-1-oxidanylidene-propan-2-yl]amino]-4-oxidanyl-1,4-bis(oxidanylidene)butan-2-yl]amino]-2-oxidanylidene-ethyl]amino]-2-oxidanylidene-ethyl]amino]-1,2-bis(oxidanylidene)hexan-3-yl]carbamoyl]pyrrolidin-1-yl]-3-methyl-1-oxidanylidene-butan-2-yl]amino]-3-methyl-1-oxidanylidene-butan-2-yl]amino]-5-oxidanyl-1,5-bis(oxidanylidene)pentan-2-yl]amino]-5-oxidanylidene-pentanoic acid
> <PUBCHEM_IUPAC_TRADITIONAL_NAME>
(4S)-4-acetamido-5-[[(1S)-1-[[(1S)-1-[[(1S)-1-[2-[[(1S)-1-[2-[[2-[[2-[[(1S)-2-[[(1S)-2-[[(1S)-2-amino-2-keto-1-methylol-ethyl]amino]-1-(4-hydroxybenzyl)-2-keto-ethyl]amino]-1-(carboxymethyl)-2-keto-ethyl]amino]-2-keto-ethyl]amino]-2-keto-ethyl]amino]-2-keto-acetyl]butyl]carbamoyl]pyrrolidine-1-carbonyl]-2-methyl-propyl]carbamoyl]-2-methyl-propyl]carbamoyl]-3-carboxy-propyl]amino]-5-keto-valeric acid
> <PUBCHEM_IUPAC_INCHI>
InChI=1S/C53H78N12O21/c1-7-9-30(44(77)52(85)56-22-37(69)55-23-38(70)58-34(21-41(75)76)49(82)61-33(20-28-11-13-29(68)14-12-28)48(81)62-35(24-66)45(54)78)59-50(83)36-10-8-19-65(36)53(86)43(26(4)5)64-51(84)42(25(2)3)63-47(80)32(16-18-40(73)74)60-46(79)31(57-27(6)67)15-17-39(71)72/h11-14,25-26,30-36,42-43,66,68H,7-10,15-24H2,1-6H3,(H2,54,78)(H,55,69)(H,56,85)(H,57,67)(H,58,70)(H,59,83)(H,60,79)(H,61,82)(H,62,81)(H,63,80)(H,64,84)(H,71,72)(H,73,74)(H,75,76)/t30-,31-,32-,33-,34-,35-,36?,42-,43-/m0/s1
> <PUBCHEM_IUPAC_INCHIKEY>
XGSMRZPRQGEJSZ-HGHGGDAHSA-N
> <PUBCHEM_XLOGP3_AA>
-3.2
> <PUBCHEM_EXACT_MASS>
1218.54044754
> <PUBCHEM_MOLECULAR_FORMULA>
C53H78N12O21
> <PUBCHEM_MOLECULAR_WEIGHT>
1219.3
> <PUBCHEM_OPENEYE_CAN_SMILES>
CCCC(C(=O)C(=O)NCC(=O)NCC(=O)NC(CC(=O)O)C(=O)NC(CC1=CC=C(C=C1)O)C(=O)NC(CO)C(=O)N)NC(=O)C2CCCN2C(=O)C(C(C)C)NC(=O)C(C(C)C)NC(=O)C(CCC(=O)O)NC(=O)C(CCC(=O)O)NC(=O)C
> <PUBCHEM_OPENEYE_ISO_SMILES>
CCC[C@@H](C(=O)C(=O)NCC(=O)NCC(=O)N[C@@H](CC(=O)O)C(=O)N[C@@H](CC1=CC=C(C=C1)O)C(=O)N[C@@H](CO)C(=O)N)NC(=O)C2CCCN2C(=O)[C@H](C(C)C)NC(=O)[C@H](C(C)C)NC(=O)[C@H](CCC(=O)O)NC(=O)[C@H](CCC(=O)O)NC(=O)C
> <PUBCHEM_CACTVS_TPSA>
524
> <PUBCHEM_MONOISOTOPIC_WEIGHT>
1218.54044754
> <PUBCHEM_TOTAL_CHARGE>
0
> <PUBCHEM_HEAVY_ATOM_COUNT>
86
> <PUBCHEM_ATOM_DEF_STEREO_COUNT>
8
> <PUBCHEM_ATOM_UDEF_STEREO_COUNT>
1
> <PUBCHEM_BOND_DEF_STEREO_COUNT>
0
> <PUBCHEM_BOND_UDEF_STEREO_COUNT>
0
> <PUBCHEM_ISOTOPIC_ATOM_COUNT>
0
> <PUBCHEM_COMPONENT_COUNT>
1
> <PUBCHEM_CACTVS_TAUTO_COUNT>
-1
> <PUBCHEM_COORDINATE_TYPE>
1
5
255
> <PUBCHEM_BONDANNOTATIONS>
38  23  5
42  24  6
45  25  6
54  26  5
60  28  6
71  30  6
72  31  6
78  32  6
34  40  3
77  79  8
77  80  8
79  83  8
80  84  8
83  86  8
84  86  8
$$$$
