504379
  -OEChem-10302200282D
178180  0     1  0  0  0  0  0999 V2000
    5.1724    2.7469    0.0000 O   0  0  0  0  0  0  0  0  0  0  0  0
    5.3147    1.3923    0.0000 O   0  0  0  0  0  0  0  0  0  0  0  0
    3.5976    5.9904    0.0000 O   0  0  0  0  0  0  0  0  0  0  0  0
    4.4487   -2.1077    0.0000 O   0  0  0  0  0  0  0  0  0  0  0  0
    6.7780    7.6887    0.0000 O   0  0  0  0  0  0  0  0  0  0  0  0
    7.0468   -1.6077    0.0000 O   0  0  0  0  0  0  0  0  0  0  0  0
    5.2033   10.9322    0.0000 O   0  0  0  0  0  0  0  0  0  0  0  0
    3.3011   11.5502    0.0000 O   0  0  0  0  0  0  0  0  0  0  0  0
    6.1808   -5.1077    0.0000 O   0  0  0  0  0  0  0  0  0  0  0  0
    2.7659    9.9030    0.0000 O   0  0  0  0  0  0  0  0  0  0  0  0
    8.7788   -7.6077    0.0000 O   0  0  0  0  0  0  0  0  0  0  0  0
    8.3837   12.6306    0.0000 O   0  0  0  0  0  0  0  0  0  0  0  0
   10.2859   12.0125    0.0000 O   0  0  0  0  0  0  0  0  0  0  0  0
    9.7506   10.3653    0.0000 O   0  0  0  0  0  0  0  0  0  0  0  0
    9.6448   -8.1077    0.0000 O   0  0  0  0  0  0  0  0  0  0  0  0
    5.3147   -7.6077    0.0000 O   0  0  0  0  0  0  0  0  0  0  0  0
   12.2429  -10.6077    0.0000 O   0  0  0  0  0  0  0  0  0  0  0  0
   14.8410  -11.1077    0.0000 O   0  0  0  0  0  0  0  0  0  0  0  0
   10.5109  -13.6077    0.0000 O   0  0  0  0  0  0  0  0  0  0  0  0
   14.8410   -8.1077    0.0000 O   0  0  0  0  0  0  0  0  0  0  0  0
    3.4782    2.3868    0.0000 N   0  0  0  0  0  0  0  0  0  0  0  0
    4.7565    4.7032    0.0000 N   0  0  0  0  0  0  0  0  0  0  0  0
    4.4487   -0.1077    0.0000 N   0  0  0  0  0  0  0  0  0  0  0  0
    5.0838    7.3286    0.0000 N   0  0  0  0  0  0  0  0  0  0  0  0
    6.3622    9.6450    0.0000 N   0  0  0  0  0  0  0  0  0  0  0  0
    6.1808   -3.1077    0.0000 N   0  0  0  0  0  0  0  0  0  0  0  0
    6.6896   12.2705    0.0000 N   0  0  0  0  0  0  0  0  0  0  0  0
    7.9128   -5.1077    0.0000 N   0  0  0  0  0  0  0  0  0  0  0  0
    9.6448   -6.1077    0.0000 N   0  0  0  0  0  0  0  0  0  0  0  0
   11.3769   -8.1077    0.0000 N   0  0  0  0  0  0  0  0  0  0  0  0
   12.1859   -4.5200    0.0000 N   0  0  0  0  0  0  0  0  0  0  0  0
   13.1090   -9.1077    0.0000 N   0  0  0  0  0  0  0  0  0  0  0  0
    4.4487   -6.1077    0.0000 N   0  0  0  0  0  0  0  0  0  0  0  0
   10.8769   -3.5689    0.0000 N   0  0  0  0  0  0  0  0  0  0  0  0
   15.7070   -9.6077    0.0000 N   0  0  0  0  0  0  0  0  0  0  0  0
    3.5827    1.3923    0.0000 C   0  0  3  0  0  0  0  0  0  0  0  0
    2.6691    0.9855    0.0000 C   0  0  0  0  0  0  0  0  0  0  0  0
    2.0000    1.7287    0.0000 C   0  0  0  0  0  0  0  0  0  0  0  0
    2.5000    2.5947    0.0000 C   0  0  0  0  0  0  0  0  0  0  0  0
    4.0134    4.0341    0.0000 C   0  0  2  0  0  0  0  0  0  0  0  0
    4.2213    3.0559    0.0000 C   0  0  0  0  0  0  0  0  0  0  0  0
    4.4487    0.8923    0.0000 C   0  0  0  0  0  0  0  0  0  0  0  0
    3.0623    4.3431    0.0000 C   0  0  0  0  0  0  0  0  0  0  0  0
    5.3147   -0.6077    0.0000 C   0  0  1  0  0  0  0  0  0  0  0  0
    2.8544    5.3212    0.0000 C   0  0  0  0  0  0  0  0  0  0  0  0
    2.3192    3.6740    0.0000 C   0  0  0  0  0  0  0  0  0  0  0  0
    5.2918    6.3505    0.0000 C   0  0  2  0  0  0  0  0  0  0  0  0
    4.5486    5.6813    0.0000 C   0  0  0  0  0  0  0  0  0  0  0  0
    6.1808   -0.1077    0.0000 C   0  0  0  0  0  0  0  0  0  0  0  0
    6.2428    6.0415    0.0000 C   0  0  0  0  0  0  0  0  0  0  0  0
    5.3147   -1.6077    0.0000 C   0  0  0  0  0  0  0  0  0  0  0  0
    6.1808    0.8923    0.0000 C   0  0  0  0  0  0  0  0  0  0  0  0
    6.9860    6.7106    0.0000 C   0  0  0  0  0  0  0  0  0  0  0  0
    6.4507    5.0633    0.0000 C   0  0  0  0  0  0  0  0  0  0  0  0
    5.8270    7.9978    0.0000 C   0  0  0  0  0  0  0  0  0  0  0  0
    5.6191    8.9759    0.0000 C   0  0  2  0  0  0  0  0  0  0  0  0
    7.0468    1.3923    0.0000 C   0  0  0  0  0  0  0  0  0  0  0  0
    6.1808   -2.1077    0.0000 C   0  0  0  0  0  0  0  0  0  0  0  0
    4.6680    9.2849    0.0000 C   0  0  0  0  0  0  0  0  0  0  0  0
    4.4601   10.2631    0.0000 C   0  0  0  0  0  0  0  0  0  0  0  0
    7.0468   -3.6077    0.0000 C   0  0  0  0  0  0  0  0  0  0  0  0
    6.1543   10.6232    0.0000 C   0  0  0  0  0  0  0  0  0  0  0  0
    6.8975   11.2923    0.0000 C   0  0  2  0  0  0  0  0  0  0  0  0
    7.8485   10.9833    0.0000 C   0  0  0  0  0  0  0  0  0  0  0  0
    7.0468   -4.6077    0.0000 C   0  0  0  0  0  0  0  0  0  0  0  0
    3.5091   10.5721    0.0000 C   0  0  0  0  0  0  0  0  0  0  0  0
    7.9128   -6.1077    0.0000 C   0  0  1  0  0  0  0  0  0  0  0  0
    8.5917   11.6524    0.0000 C   0  0  0  0  0  0  0  0  0  0  0  0
    7.0468   -6.6077    0.0000 C   0  0  0  0  0  0  0  0  0  0  0  0
    8.7788   -6.6077    0.0000 C   0  0  0  0  0  0  0  0  0  0  0  0
   10.5109   -6.6077    0.0000 C   0  0  2  0  0  0  0  0  0  0  0  0
    7.4327   12.9396    0.0000 C   0  0  0  0  0  0  0  0  0  0  0  0
    6.1808   -6.1077    0.0000 C   0  0  0  0  0  0  0  0  0  0  0  0
   11.3769   -6.1077    0.0000 C   0  0  0  0  0  0  0  0  0  0  0  0
    9.5427   11.3434    0.0000 C   0  0  0  0  0  0  0  0  0  0  0  0
   10.5109   -7.6077    0.0000 C   0  0  0  0  0  0  0  0  0  0  0  0
   11.3769   -9.1077    0.0000 C   0  0  1  0  0  0  0  0  0  0  0  0
   10.5109   -9.6077    0.0000 C   0  0  0  0  0  0  0  0  0  0  0  0
    7.2248   13.9177    0.0000 C   0  0  0  0  0  0  0  0  0  0  0  0
   11.3769   -5.1077    0.0000 C   0  0  0  0  0  0  0  0  0  0  0  0
    5.3147   -6.6077    0.0000 C   0  0  0  0  0  0  0  0  0  0  0  0
   12.2429   -9.6077    0.0000 C   0  0  0  0  0  0  0  0  0  0  0  0
   10.5109  -10.6077    0.0000 C   0  0  0  0  0  0  0  0  0  0  0  0
   10.5679   -4.5200    0.0000 C   0  0  0  0  0  0  0  0  0  0  0  0
   13.9750   -9.6077    0.0000 C   0  0  1  0  0  0  0  0  0  0  0  0
    9.6448  -11.1077    0.0000 C   0  0  0  0  0  0  0  0  0  0  0  0
   11.3769  -11.1077    0.0000 C   0  0  0  0  0  0  0  0  0  0  0  0
   11.8769   -3.5689    0.0000 C   0  0  0  0  0  0  0  0  0  0  0  0
   13.9750  -10.6077    0.0000 C   0  0  0  0  0  0  0  0  0  0  0  0
    9.6448  -12.1077    0.0000 C   0  0  0  0  0  0  0  0  0  0  0  0
   11.3769  -12.1077    0.0000 C   0  0  0  0  0  0  0  0  0  0  0  0
   14.8410   -9.1077    0.0000 C   0  0  0  0  0  0  0  0  0  0  0  0
   10.5109  -12.6077    0.0000 C   0  0  0  0  0  0  0  0  0  0  0  0
    4.1026    1.7299    0.0000 H   0  0  0  0  0  0  0  0  0  0  0  0
    2.1675    0.6211    0.0000 H   0  0  0  0  0  0  0  0  0  0  0  0
    2.9791    0.4486    0.0000 H   0  0  0  0  0  0  0  0  0  0  0  0
    1.4984    2.0931    0.0000 H   0  0  0  0  0  0  0  0  0  0  0  0
    1.5851    1.2679    0.0000 H   0  0  0  0  0  0  0  0  0  0  0  0
    2.6916    3.1843    0.0000 H   0  0  0  0  0  0  0  0  0  0  0  0
    1.9336    2.8469    0.0000 H   0  0  0  0  0  0  0  0  0  0  0  0
    4.6030    3.8425    0.0000 H   0  0  0  0  0  0  0  0  0  0  0  0
    3.5231    4.7579    0.0000 H   0  0  0  0  0  0  0  0  0  0  0  0
    5.3462    4.5116    0.0000 H   0  0  0  0  0  0  0  0  0  0  0  0
    3.9118   -0.4177    0.0000 H   0  0  0  0  0  0  0  0  0  0  0  0
    5.3147    0.0123    0.0000 H   0  0  0  0  0  0  0  0  0  0  0  0
    3.4609    5.4501    0.0000 H   0  0  0  0  0  0  0  0  0  0  0  0
    2.7255    5.9277    0.0000 H   0  0  0  0  0  0  0  0  0  0  0  0
    2.2480    5.1923    0.0000 H   0  0  0  0  0  0  0  0  0  0  0  0
    1.9043    4.1347    0.0000 H   0  0  0  0  0  0  0  0  0  0  0  0
    1.8584    3.2591    0.0000 H   0  0  0  0  0  0  0  0  0  0  0  0
    2.7340    3.2132    0.0000 H   0  0  0  0  0  0  0  0  0  0  0  0
    4.7021    6.5421    0.0000 H   0  0  0  0  0  0  0  0  0  0  0  0
    6.3928   -0.6903    0.0000 H   0  0  0  0  0  0  0  0  0  0  0  0
    6.7913   -0.0001    0.0000 H   0  0  0  0  0  0  0  0  0  0  0  0
    5.7821    5.6266    0.0000 H   0  0  0  0  0  0  0  0  0  0  0  0
    5.9687    1.4749    0.0000 H   0  0  0  0  0  0  0  0  0  0  0  0
    5.5702    0.7846    0.0000 H   0  0  0  0  0  0  0  0  0  0  0  0
    4.4942    7.5202    0.0000 H   0  0  0  0  0  0  0  0  0  0  0  0
    7.4008    6.2498    0.0000 H   0  0  0  0  0  0  0  0  0  0  0  0
    7.4467    7.1254    0.0000 H   0  0  0  0  0  0  0  0  0  0  0  0
    6.5711    7.1713    0.0000 H   0  0  0  0  0  0  0  0  0  0  0  0
    5.8443    4.9344    0.0000 H   0  0  0  0  0  0  0  0  0  0  0  0
    6.5796    4.4569    0.0000 H   0  0  0  0  0  0  0  0  0  0  0  0
    7.0572    5.1922    0.0000 H   0  0  0  0  0  0  0  0  0  0  0  0
    6.2087    8.7843    0.0000 H   0  0  0  0  0  0  0  0  0  0  0  0
    7.3568    0.8553    0.0000 H   0  0  0  0  0  0  0  0  0  0  0  0
    7.5837    1.7023    0.0000 H   0  0  0  0  0  0  0  0  0  0  0  0
    6.7368    1.9292    0.0000 H   0  0  0  0  0  0  0  0  0  0  0  0
    4.0484    9.2633    0.0000 H   0  0  0  0  0  0  0  0  0  0  0  0
    4.5817    8.6710    0.0000 H   0  0  0  0  0  0  0  0  0  0  0  0
    6.9519    9.4534    0.0000 H   0  0  0  0  0  0  0  0  0  0  0  0
    5.6438   -3.4177    0.0000 H   0  0  0  0  0  0  0  0  0  0  0  0
    5.0797   10.2847    0.0000 H   0  0  0  0  0  0  0  0  0  0  0  0
    4.5464   10.8770    0.0000 H   0  0  0  0  0  0  0  0  0  0  0  0
    7.6574   -3.7154    0.0000 H   0  0  0  0  0  0  0  0  0  0  0  0
    7.2588   -3.0251    0.0000 H   0  0  0  0  0  0  0  0  0  0  0  0
    7.3582   11.7072    0.0000 H   0  0  0  0  0  0  0  0  0  0  0  0
    7.5574   10.4359    0.0000 H   0  0  0  0  0  0  0  0  0  0  0  0
    8.3371   10.6016    0.0000 H   0  0  0  0  0  0  0  0  0  0  0  0
    8.4497   -5.7977    0.0000 H   0  0  0  0  0  0  0  0  0  0  0  0
    6.0999   12.4620    0.0000 H   0  0  0  0  0  0  0  0  0  0  0  0
    8.4497   -4.7977    0.0000 H   0  0  0  0  0  0  0  0  0  0  0  0
    8.8827   12.1999    0.0000 H   0  0  0  0  0  0  0  0  0  0  0  0
    8.1031   12.0341    0.0000 H   0  0  0  0  0  0  0  0  0  0  0  0
    6.6482   -7.0827    0.0000 H   0  0  0  0  0  0  0  0  0  0  0  0
    7.4453   -7.0827    0.0000 H   0  0  0  0  0  0  0  0  0  0  0  0
   10.5109   -5.9877    0.0000 H   0  0  0  0  0  0  0  0  0  0  0  0
    9.6448   -5.4877    0.0000 H   0  0  0  0  0  0  0  0  0  0  0  0
    6.5793   -5.6328    0.0000 H   0  0  0  0  0  0  0  0  0  0  0  0
    5.7822   -5.6328    0.0000 H   0  0  0  0  0  0  0  0  0  0  0  0
    2.7115   11.7418    0.0000 H   0  0  0  0  0  0  0  0  0  0  0  0
   11.5890   -6.6903    0.0000 H   0  0  0  0  0  0  0  0  0  0  0  0
   11.9875   -6.0001    0.0000 H   0  0  0  0  0  0  0  0  0  0  0  0
   10.8400   -8.7977    0.0000 H   0  0  0  0  0  0  0  0  0  0  0  0
   11.9138   -7.7977    0.0000 H   0  0  0  0  0  0  0  0  0  0  0  0
   10.2988   -9.0251    0.0000 H   0  0  0  0  0  0  0  0  0  0  0  0
    9.9003   -9.7154    0.0000 H   0  0  0  0  0  0  0  0  0  0  0  0
    7.8312   14.0466    0.0000 H   0  0  0  0  0  0  0  0  0  0  0  0
    7.0959   14.5242    0.0000 H   0  0  0  0  0  0  0  0  0  0  0  0
    6.6183   13.7888    0.0000 H   0  0  0  0  0  0  0  0  0  0  0  0
   12.7756   -4.7115    0.0000 H   0  0  0  0  0  0  0  0  0  0  0  0
   13.1090   -8.4877    0.0000 H   0  0  0  0  0  0  0  0  0  0  0  0
    9.9782   -4.7115    0.0000 H   0  0  0  0  0  0  0  0  0  0  0  0
   13.9750   -8.9877    0.0000 H   0  0  0  0  0  0  0  0  0  0  0  0
   10.8755   11.8209    0.0000 H   0  0  0  0  0  0  0  0  0  0  0  0
    9.1079  -10.7977    0.0000 H   0  0  0  0  0  0  0  0  0  0  0  0
   11.9138  -10.7977    0.0000 H   0  0  0  0  0  0  0  0  0  0  0  0
   12.2413   -3.0673    0.0000 H   0  0  0  0  0  0  0  0  0  0  0  0
    3.9118   -6.4177    0.0000 H   0  0  0  0  0  0  0  0  0  0  0  0
    4.4487   -5.4877    0.0000 H   0  0  0  0  0  0  0  0  0  0  0  0
   13.3644  -10.5001    0.0000 H   0  0  0  0  0  0  0  0  0  0  0  0
   13.7629  -11.1903    0.0000 H   0  0  0  0  0  0  0  0  0  0  0  0
    9.1079  -12.4177    0.0000 H   0  0  0  0  0  0  0  0  0  0  0  0
   11.9138  -12.4177    0.0000 H   0  0  0  0  0  0  0  0  0  0  0  0
   14.8410  -11.7277    0.0000 H   0  0  0  0  0  0  0  0  0  0  0  0
   16.2440   -9.2977    0.0000 H   0  0  0  0  0  0  0  0  0  0  0  0
   15.7070  -10.2277    0.0000 H   0  0  0  0  0  0  0  0  0  0  0  0
    9.9739  -13.9177    0.0000 H   0  0  0  0  0  0  0  0  0  0  0  0
  1 41  2  0  0  0  0
  2 42  2  0  0  0  0
  3 48  2  0  0  0  0
  4 51  2  0  0  0  0
  5 55  2  0  0  0  0
  6 58  2  0  0  0  0
  7 62  2  0  0  0  0
  8 66  1  0  0  0  0
  8151  1  0  0  0  0
  9 65  2  0  0  0  0
 10 66  2  0  0  0  0
 11 70  2  0  0  0  0
 12 72  2  0  0  0  0
 13 75  1  0  0  0  0
 13165  1  0  0  0  0
 14 75  2  0  0  0  0
 15 76  2  0  0  0  0
 16 81  2  0  0  0  0
 17 82  2  0  0  0  0
 18 89  1  0  0  0  0
 18175  1  0  0  0  0
 19 93  1  0  0  0  0
 19178  1  0  0  0  0
 20 92  2  0  0  0  0
 21 36  1  0  0  0  0
 21 39  1  0  0  0  0
 21 41  1  0  0  0  0
 40 22  1  6  0  0  0
 22 48  1  0  0  0  0
 22103  1  0  0  0  0
 23 42  1  0  0  0  0
 44 23  1  1  0  0  0
 23104  1  0  0  0  0
 47 24  1  1  0  0  0
 24 55  1  0  0  0  0
 24118  1  0  0  0  0
 56 25  1  6  0  0  0
 25 62  1  0  0  0  0
 25131  1  0  0  0  0
 26 58  1  0  0  0  0
 26 61  1  0  0  0  0
 26132  1  0  0  0  0
 63 27  1  1  0  0  0
 27 72  1  0  0  0  0
 27141  1  0  0  0  0
 28 65  1  0  0  0  0
 67 28  1  6  0  0  0
 28142  1  0  0  0  0
 29 70  1  0  0  0  0
 71 29  1  6  0  0  0
 29148  1  0  0  0  0
 30 76  1  0  0  0  0
 77 30  1  6  0  0  0
 30155  1  0  0  0  0
 31 80  1  0  0  0  0
 31 88  1  0  0  0  0
 31161  1  0  0  0  0
 32 82  1  0  0  0  0
 85 32  1  6  0  0  0
 32162  1  0  0  0  0
 33 81  1  0  0  0  0
 33169  1  0  0  0  0
 33170  1  0  0  0  0
 34 84  1  0  0  0  0
 34 88  2  0  0  0  0
 35 92  1  0  0  0  0
 35176  1  0  0  0  0
 35177  1  0  0  0  0
 36 37  1  0  0  0  0
 36 42  1  0  0  0  0
 36 94  1  0  0  0  0
 37 38  1  0  0  0  0
 37 95  1  0  0  0  0
 37 96  1  0  0  0  0
 38 39  1  0  0  0  0
 38 97  1  0  0  0  0
 38 98  1  0  0  0  0
 39 99  1  0  0  0  0
 39100  1  0  0  0  0
 40 41  1  0  0  0  0
 40 43  1  0  0  0  0
 40101  1  0  0  0  0
 43 45  1  0  0  0  0
 43 46  1  0  0  0  0
 43102  1  0  0  0  0
 44 49  1  0  0  0  0
 44 51  1  0  0  0  0
 44105  1  0  0  0  0
 45106  1  0  0  0  0
 45107  1  0  0  0  0
 45108  1  0  0  0  0
 46109  1  0  0  0  0
 46110  1  0  0  0  0
 46111  1  0  0  0  0
 47 48  1  0  0  0  0
 47 50  1  0  0  0  0
 47112  1  0  0  0  0
 49 52  1  0  0  0  0
 49113  1  0  0  0  0
 49114  1  0  0  0  0
 50 53  1  0  0  0  0
 50 54  1  0  0  0  0
 50115  1  0  0  0  0
 51 58  1  0  0  0  0
 52 57  1  0  0  0  0
 52116  1  0  0  0  0
 52117  1  0  0  0  0
 53119  1  0  0  0  0
 53120  1  0  0  0  0
 53121  1  0  0  0  0
 54122  1  0  0  0  0
 54123  1  0  0  0  0
 54124  1  0  0  0  0
 55 56  1  0  0  0  0
 56 59  1  0  0  0  0
 56125  1  0  0  0  0
 57126  1  0  0  0  0
 57127  1  0  0  0  0
 57128  1  0  0  0  0
 59 60  1  0  0  0  0
 59129  1  0  0  0  0
 59130  1  0  0  0  0
 60 66  1  0  0  0  0
 60133  1  0  0  0  0
 60134  1  0  0  0  0
 61 65  1  0  0  0  0
 61135  1  0  0  0  0
 61136  1  0  0  0  0
 62 63  1  0  0  0  0
 63 64  1  0  0  0  0
 63137  1  0  0  0  0
 64 68  1  0  0  0  0
 64138  1  0  0  0  0
 64139  1  0  0  0  0
 67 69  1  0  0  0  0
 67 70  1  0  0  0  0
 67140  1  0  0  0  0
 68 75  1  0  0  0  0
 68143  1  0  0  0  0
 68144  1  0  0  0  0
 69 73  1  0  0  0  0
 69145  1  0  0  0  0
 69146  1  0  0  0  0
 71 74  1  0  0  0  0
 71 76  1  0  0  0  0
 71147  1  0  0  0  0
 72 79  1  0  0  0  0
 73 81  1  0  0  0  0
 73149  1  0  0  0  0
 73150  1  0  0  0  0
 74 80  1  0  0  0  0
 74152  1  0  0  0  0
 74153  1  0  0  0  0
 77 78  1  0  0  0  0
 77 82  1  0  0  0  0
 77154  1  0  0  0  0
 78 83  1  0  0  0  0
 78156  1  0  0  0  0
 78157  1  0  0  0  0
 79158  1  0  0  0  0
 79159  1  0  0  0  0
 79160  1  0  0  0  0
 80 84  2  0  0  0  0
 83 86  2  0  0  0  0
 83 87  1  0  0  0  0
 84163  1  0  0  0  0
 85 89  1  0  0  0  0
 85 92  1  0  0  0  0
 85164  1  0  0  0  0
 86 90  1  0  0  0  0
 86166  1  0  0  0  0
 87 91  2  0  0  0  0
 87167  1  0  0  0  0
 88168  1  0  0  0  0
 89171  1  0  0  0  0
 89172  1  0  0  0  0
 90 93  2  0  0  0  0
 90173  1  0  0  0  0
 91 93  1  0  0  0  0
 91174  1  0  0  0  0
M  END
> <PUBCHEM_COMPOUND_CID>
504379
> <PUBCHEM_COMPOUND_CANONICALIZED>
1
> <PUBCHEM_CACTVS_COMPLEXITY>
2690
> <PUBCHEM_CACTVS_HBOND_ACCEPTOR>
21
> <PUBCHEM_CACTVS_HBOND_DONOR>
17
> <PUBCHEM_CACTVS_ROTATABLE_BOND>
40
> <PUBCHEM_CACTVS_SUBSKEYS>
AAADcfB//gAAAAAAAAAAAAAAAAAAAWLAAAAwAAAAAAAAAAABwAAAHgAQCAAADSzhngY/npfJkgCoA7X3fAACgC2xMqAJ2YG+eIiKfj7C2TOUcAAu9hPY2Ce836KOIAAAAAAAAABAAAAAAAAAAAAAAAAAAA==
> <PUBCHEM_IUPAC_OPENEYE_NAME>
(4S)-4-acetamido-5-[[(1S)-1-[[(1S)-1-[[(1S)-1-[2-[[(1S)-1-[2-[[2-[[(1S)-4-amino-1-[[(1R)-2-[[(1S)-2-[[(1S)-2-amino-1-(hydroxymethyl)-2-oxo-ethyl]amino]-1-[(4-hydroxyphenyl)methyl]-2-oxo-ethyl]amino]-1-(1H-imidazol-5-ylmethyl)-2-oxo-ethyl]carbamoyl]-4-oxo-butyl]amino]-2-oxo-ethyl]amino]-2-oxo-acetyl]butyl]carbamoyl]pyrrolidine-1-carbonyl]-2-methyl-propyl]carbamoyl]-2-methyl-propyl]carbamoyl]-3-carboxy-propyl]amino]-5-oxo-pentanoic acid
> <PUBCHEM_IUPAC_CAS_NAME>
(4S)-4-acetamido-5-[[(2S)-1-[[(2S)-1-[[(2S)-1-[2-[[[(3S)-1-[[2-[[(2S)-5-amino-1-[[(2R)-1-[[(2S)-1-[[(2S)-1-amino-3-hydroxy-1-oxopropan-2-yl]amino]-3-(4-hydroxyphenyl)-1-oxopropan-2-yl]amino]-3-(1H-imidazol-5-yl)-1-oxopropan-2-yl]amino]-1,5-dioxopentan-2-yl]amino]-2-oxoethyl]amino]-1,2-dioxohexan-3-yl]amino]-oxomethyl]-1-pyrrolidinyl]-3-methyl-1-oxobutan-2-yl]amino]-3-methyl-1-oxobutan-2-yl]amino]-4-carboxy-1-oxobutan-2-yl]amino]-5-oxopentanoic acid
> <PUBCHEM_IUPAC_NAME_MARKUP>
(4<I>S</I>)-4-acetamido-5-[[(2<I>S</I>)-1-[[(2<I>S</I>)-1-[[(2<I>S</I>)-1-[2-[[(3<I>S</I>)-1-[[2-[[(2<I>S</I>)-5-amino-1-[[(2<I>R</I>)-1-[[(2<I>S</I>)-1-[[(2<I>S</I>)-1-amino-3-hydroxy-1-oxopropan-2-yl]amino]-3-(4-hydroxyphenyl)-1-oxopropan-2-yl]amino]-3-(1<I>H</I>-imidazol-5-yl)-1-oxopropan-2-yl]amino]-1,5-dioxopentan-2-yl]amino]-2-oxoethyl]amino]-1,2-dioxohexan-3-yl]carbamoyl]pyrrolidin-1-yl]-3-methyl-1-oxobutan-2-yl]amino]-3-methyl-1-oxobutan-2-yl]amino]-4-carboxy-1-oxobutan-2-yl]amino]-5-oxopentanoic acid
> <PUBCHEM_IUPAC_NAME>
(4S)-4-acetamido-5-[[(2S)-1-[[(2S)-1-[[(2S)-1-[2-[[(3S)-1-[[2-[[(2S)-5-amino-1-[[(2R)-1-[[(2S)-1-[[(2S)-1-amino-3-hydroxy-1-oxopropan-2-yl]amino]-3-(4-hydroxyphenyl)-1-oxopropan-2-yl]amino]-3-(1H-imidazol-5-yl)-1-oxopropan-2-yl]amino]-1,5-dioxopentan-2-yl]amino]-2-oxoethyl]amino]-1,2-dioxohexan-3-yl]carbamoyl]pyrrolidin-1-yl]-3-methyl-1-oxobutan-2-yl]amino]-3-methyl-1-oxobutan-2-yl]amino]-4-carboxy-1-oxobutan-2-yl]amino]-5-oxopentanoic acid
> <PUBCHEM_IUPAC_SYSTEMATIC_NAME>
(4S)-4-acetamido-5-[[(2S)-1-[[(2S)-1-[[(2S)-1-[2-[[(3S)-1-[[2-[[(2S)-5-azanyl-1-[[(2R)-1-[[(2S)-1-[[(2S)-1-azanyl-3-oxidanyl-1-oxidanylidene-propan-2-yl]amino]-3-(4-hydroxyphenyl)-1-oxidanylidene-propan-2-yl]amino]-3-(1H-imidazol-5-yl)-1-oxidanylidene-propan-2-yl]amino]-1,5-bis(oxidanylidene)pentan-2-yl]amino]-2-oxidanylidene-ethyl]amino]-1,2-bis(oxidanylidene)hexan-3-yl]carbamoyl]pyrrolidin-1-yl]-3-methyl-1-oxidanylidene-butan-2-yl]amino]-3-methyl-1-oxidanylidene-butan-2-yl]amino]-5-oxidanyl-1,5-bis(oxidanylidene)pentan-2-yl]amino]-5-oxidanylidene-pentanoic acid
> <PUBCHEM_IUPAC_TRADITIONAL_NAME>
(4S)-4-acetamido-5-[[(1S)-1-[[(1S)-1-[[(1S)-1-[2-[[(1S)-1-[2-[[2-[[(1S)-4-amino-1-[[(1R)-2-[[(1S)-2-[[(1S)-2-amino-2-keto-1-methylol-ethyl]amino]-1-(4-hydroxybenzyl)-2-keto-ethyl]amino]-1-(1H-imidazol-5-ylmethyl)-2-keto-ethyl]carbamoyl]-4-keto-butyl]amino]-2-keto-ethyl]amino]-2-keto-acetyl]butyl]carbamoyl]pyrrolidine-1-carbonyl]-2-methyl-propyl]carbamoyl]-2-methyl-propyl]carbamoyl]-3-carboxy-propyl]amino]-5-keto-valeric acid
> <PUBCHEM_IUPAC_INCHI>
InChI=1S/C58H85N15O20/c1-7-9-34(66-55(90)41-10-8-21-73(41)58(93)47(29(4)5)72-56(91)46(28(2)3)71-52(87)37(17-20-45(81)82)67-50(85)35(64-30(6)75)16-19-44(79)80)48(83)57(92)62-25-43(78)65-36(15-18-42(59)77)51(86)69-39(23-32-24-61-27-63-32)54(89)68-38(22-31-11-13-33(76)14-12-31)53(88)70-40(26-74)49(60)84/h11-14,24,27-29,34-41,46-47,74,76H,7-10,15-23,25-26H2,1-6H3,(H2,59,77)(H2,60,84)(H,61,63)(H,62,92)(H,64,75)(H,65,78)(H,66,90)(H,67,85)(H,68,89)(H,69,86)(H,70,88)(H,71,87)(H,72,91)(H,79,80)(H,81,82)/t34-,35-,36-,37-,38-,39+,40-,41?,46-,47-/m0/s1
> <PUBCHEM_IUPAC_INCHIKEY>
PHSNXXFMJFZDKT-JAQUUHISSA-N
> <PUBCHEM_XLOGP3_AA>
-3.3
> <PUBCHEM_EXACT_MASS>
1311.60953016
> <PUBCHEM_MOLECULAR_FORMULA>
C58H85N15O20
> <PUBCHEM_MOLECULAR_WEIGHT>
1312.4
> <PUBCHEM_OPENEYE_CAN_SMILES>
CCCC(C(=O)C(=O)NCC(=O)NC(CCC(=O)N)C(=O)NC(CC1=CN=CN1)C(=O)NC(CC2=CC=C(C=C2)O)C(=O)NC(CO)C(=O)N)NC(=O)C3CCCN3C(=O)C(C(C)C)NC(=O)C(C(C)C)NC(=O)C(CCC(=O)O)NC(=O)C(CCC(=O)O)NC(=O)C
> <PUBCHEM_OPENEYE_ISO_SMILES>
CCC[C@@H](C(=O)C(=O)NCC(=O)N[C@@H](CCC(=O)N)C(=O)N[C@H](CC1=CN=CN1)C(=O)N[C@@H](CC2=CC=C(C=C2)O)C(=O)N[C@@H](CO)C(=O)N)NC(=O)C3CCCN3C(=O)[C@H](C(C)C)NC(=O)[C@H](C(C)C)NC(=O)[C@H](CCC(=O)O)NC(=O)[C@H](CCC(=O)O)NC(=O)C
> <PUBCHEM_CACTVS_TPSA>
558
> <PUBCHEM_MONOISOTOPIC_WEIGHT>
1311.60953016
> <PUBCHEM_TOTAL_CHARGE>
0
> <PUBCHEM_HEAVY_ATOM_COUNT>
93
> <PUBCHEM_ATOM_DEF_STEREO_COUNT>
9
> <PUBCHEM_ATOM_UDEF_STEREO_COUNT>
1
> <PUBCHEM_BOND_DEF_STEREO_COUNT>
0
> <PUBCHEM_BOND_UDEF_STEREO_COUNT>
0
> <PUBCHEM_ISOTOPIC_ATOM_COUNT>
0
> <PUBCHEM_COMPONENT_COUNT>
1
> <PUBCHEM_CACTVS_TAUTO_COUNT>
-1
> <PUBCHEM_COORDINATE_TYPE>
1
5
255
> <PUBCHEM_BONDANNOTATIONS>
40  22  6
44  23  5
47  24  5
56  25  6
63  27  5
67  28  6
71  29  6
77  30  6
31  80  8
31  88  8
85  32  6
34  84  8
34  88  8
36  42  3
80  84  8
83  86  8
83  87  8
86  90  8
87  91  8
90  93  8
91  93  8
$$$$
