504387
  -OEChem-10302200282D
169170  0     1  0  0  0  0  0999 V2000
    5.1724    3.4969    0.0000 O   0  0  0  0  0  0  0  0  0  0  0  0
    5.3147    2.1423    0.0000 O   0  0  0  0  0  0  0  0  0  0  0  0
    3.5976    6.7404    0.0000 O   0  0  0  0  0  0  0  0  0  0  0  0
    4.4487   -1.3577    0.0000 O   0  0  0  0  0  0  0  0  0  0  0  0
    6.7780    8.4387    0.0000 O   0  0  0  0  0  0  0  0  0  0  0  0
    7.0468   -0.8577    0.0000 O   0  0  0  0  0  0  0  0  0  0  0  0
    5.2033   11.6822    0.0000 O   0  0  0  0  0  0  0  0  0  0  0  0
    3.3011   12.3002    0.0000 O   0  0  0  0  0  0  0  0  0  0  0  0
    2.7659   10.6530    0.0000 O   0  0  0  0  0  0  0  0  0  0  0  0
    6.1808   -4.3577    0.0000 O   0  0  0  0  0  0  0  0  0  0  0  0
    6.1808   -5.3577    0.0000 O   0  0  0  0  0  0  0  0  0  0  0  0
    8.3837   13.3806    0.0000 O   0  0  0  0  0  0  0  0  0  0  0  0
   10.2859   12.7625    0.0000 O   0  0  0  0  0  0  0  0  0  0  0  0
    9.6448   -5.3577    0.0000 O   0  0  0  0  0  0  0  0  0  0  0  0
    9.7506   11.1153    0.0000 O   0  0  0  0  0  0  0  0  0  0  0  0
   10.5109   -5.8577    0.0000 O   0  0  0  0  0  0  0  0  0  0  0  0
    8.7788   -8.8577    0.0000 O   0  0  0  0  0  0  0  0  0  0  0  0
   11.3769  -11.3577    0.0000 O   0  0  0  0  0  0  0  0  0  0  0  0
   13.9750  -11.8577    0.0000 O   0  0  0  0  0  0  0  0  0  0  0  0
    9.6448  -14.3577    0.0000 O   0  0  0  0  0  0  0  0  0  0  0  0
   13.9750   -8.8577    0.0000 O   0  0  0  0  0  0  0  0  0  0  0  0
    3.4782    3.1368    0.0000 N   0  0  0  0  0  0  0  0  0  0  0  0
    4.7565    5.4532    0.0000 N   0  0  0  0  0  0  0  0  0  0  0  0
    4.4487    0.6423    0.0000 N   0  0  0  0  0  0  0  0  0  0  0  0
    5.0838    8.0786    0.0000 N   0  0  0  0  0  0  0  0  0  0  0  0
    6.3622   10.3950    0.0000 N   0  0  0  0  0  0  0  0  0  0  0  0
    6.1808   -2.3577    0.0000 N   0  0  0  0  0  0  0  0  0  0  0  0
    6.6896   13.0205    0.0000 N   0  0  0  0  0  0  0  0  0  0  0  0
    7.9128   -4.3577    0.0000 N   0  0  0  0  0  0  0  0  0  0  0  0
    8.7788   -6.8577    0.0000 N   0  0  0  0  0  0  0  0  0  0  0  0
   10.5109   -8.8577    0.0000 N   0  0  0  0  0  0  0  0  0  0  0  0
   12.2429   -9.8577    0.0000 N   0  0  0  0  0  0  0  0  0  0  0  0
   14.8410  -10.3577    0.0000 N   0  0  0  0  0  0  0  0  0  0  0  0
    3.5827    2.1423    0.0000 C   0  0  3  0  0  0  0  0  0  0  0  0
    2.6691    1.7355    0.0000 C   0  0  0  0  0  0  0  0  0  0  0  0
    2.0000    2.4787    0.0000 C   0  0  0  0  0  0  0  0  0  0  0  0
    2.5000    3.3447    0.0000 C   0  0  0  0  0  0  0  0  0  0  0  0
    4.0134    4.7841    0.0000 C   0  0  2  0  0  0  0  0  0  0  0  0
    4.2213    3.8059    0.0000 C   0  0  0  0  0  0  0  0  0  0  0  0
    4.4487    1.6423    0.0000 C   0  0  0  0  0  0  0  0  0  0  0  0
    3.0623    5.0931    0.0000 C   0  0  0  0  0  0  0  0  0  0  0  0
    5.3147    0.1423    0.0000 C   0  0  1  0  0  0  0  0  0  0  0  0
    2.8544    6.0712    0.0000 C   0  0  0  0  0  0  0  0  0  0  0  0
    2.3192    4.4239    0.0000 C   0  0  0  0  0  0  0  0  0  0  0  0
    5.2918    7.1005    0.0000 C   0  0  2  0  0  0  0  0  0  0  0  0
    4.5486    6.4313    0.0000 C   0  0  0  0  0  0  0  0  0  0  0  0
    6.1808    0.6423    0.0000 C   0  0  0  0  0  0  0  0  0  0  0  0
    6.2428    6.7915    0.0000 C   0  0  0  0  0  0  0  0  0  0  0  0
    5.3147   -0.8577    0.0000 C   0  0  0  0  0  0  0  0  0  0  0  0
    6.1808    1.6423    0.0000 C   0  0  0  0  0  0  0  0  0  0  0  0
    6.9860    7.4606    0.0000 C   0  0  0  0  0  0  0  0  0  0  0  0
    6.4507    5.8133    0.0000 C   0  0  0  0  0  0  0  0  0  0  0  0
    5.8270    8.7478    0.0000 C   0  0  0  0  0  0  0  0  0  0  0  0
    5.6191    9.7259    0.0000 C   0  0  2  0  0  0  0  0  0  0  0  0
    7.0468    2.1423    0.0000 C   0  0  0  0  0  0  0  0  0  0  0  0
    6.1808   -1.3577    0.0000 C   0  0  0  0  0  0  0  0  0  0  0  0
    4.6680   10.0349    0.0000 C   0  0  0  0  0  0  0  0  0  0  0  0
    4.4601   11.0131    0.0000 C   0  0  0  0  0  0  0  0  0  0  0  0
    6.1543   11.3732    0.0000 C   0  0  0  0  0  0  0  0  0  0  0  0
    7.0468   -2.8577    0.0000 C   0  0  0  0  0  0  0  0  0  0  0  0
    6.8975   12.0423    0.0000 C   0  0  2  0  0  0  0  0  0  0  0  0
    7.8485   11.7333    0.0000 C   0  0  0  0  0  0  0  0  0  0  0  0
    3.5091   11.3221    0.0000 C   0  0  0  0  0  0  0  0  0  0  0  0
    7.0468   -3.8577    0.0000 C   0  0  0  0  0  0  0  0  0  0  0  0
    8.5917   12.4024    0.0000 C   0  0  0  0  0  0  0  0  0  0  0  0
    7.9128   -5.3577    0.0000 C   0  0  1  0  0  0  0  0  0  0  0  0
    7.0468   -5.8577    0.0000 C   0  0  3  0  0  0  0  0  0  0  0  0
    7.4327   13.6896    0.0000 C   0  0  0  0  0  0  0  0  0  0  0  0
    8.7788   -5.8577    0.0000 C   0  0  0  0  0  0  0  0  0  0  0  0
    9.5427   12.0934    0.0000 C   0  0  0  0  0  0  0  0  0  0  0  0
    9.6448   -7.3577    0.0000 C   0  0  1  0  0  0  0  0  0  0  0  0
    7.0468   -6.8577    0.0000 C   0  0  0  0  0  0  0  0  0  0  0  0
    7.2248   14.6677    0.0000 C   0  0  0  0  0  0  0  0  0  0  0  0
   10.5109   -9.8577    0.0000 C   0  0  1  0  0  0  0  0  0  0  0  0
    9.6448   -8.3577    0.0000 C   0  0  0  0  0  0  0  0  0  0  0  0
    9.6448  -10.3577    0.0000 C   0  0  0  0  0  0  0  0  0  0  0  0
   10.5109   -6.8577    0.0000 C   0  0  0  0  0  0  0  0  0  0  0  0
   11.3769  -10.3577    0.0000 C   0  0  0  0  0  0  0  0  0  0  0  0
    9.6448  -11.3577    0.0000 C   0  0  0  0  0  0  0  0  0  0  0  0
   13.1090  -10.3577    0.0000 C   0  0  1  0  0  0  0  0  0  0  0  0
    8.7788  -11.8577    0.0000 C   0  0  0  0  0  0  0  0  0  0  0  0
   10.5109  -11.8577    0.0000 C   0  0  0  0  0  0  0  0  0  0  0  0
   13.1090  -11.3577    0.0000 C   0  0  0  0  0  0  0  0  0  0  0  0
    8.7788  -12.8577    0.0000 C   0  0  0  0  0  0  0  0  0  0  0  0
   10.5109  -12.8577    0.0000 C   0  0  0  0  0  0  0  0  0  0  0  0
   13.9750   -9.8577    0.0000 C   0  0  0  0  0  0  0  0  0  0  0  0
    9.6448  -13.3577    0.0000 C   0  0  0  0  0  0  0  0  0  0  0  0
    4.1026    2.4799    0.0000 H   0  0  0  0  0  0  0  0  0  0  0  0
    2.1675    1.3711    0.0000 H   0  0  0  0  0  0  0  0  0  0  0  0
    2.9791    1.1986    0.0000 H   0  0  0  0  0  0  0  0  0  0  0  0
    1.4984    2.8431    0.0000 H   0  0  0  0  0  0  0  0  0  0  0  0
    1.5851    2.0179    0.0000 H   0  0  0  0  0  0  0  0  0  0  0  0
    2.6916    3.9344    0.0000 H   0  0  0  0  0  0  0  0  0  0  0  0
    1.9336    3.5969    0.0000 H   0  0  0  0  0  0  0  0  0  0  0  0
    4.6030    4.5925    0.0000 H   0  0  0  0  0  0  0  0  0  0  0  0
    3.5231    5.5079    0.0000 H   0  0  0  0  0  0  0  0  0  0  0  0
    5.3462    5.2616    0.0000 H   0  0  0  0  0  0  0  0  0  0  0  0
    3.9118    0.3323    0.0000 H   0  0  0  0  0  0  0  0  0  0  0  0
    5.3147    0.7623    0.0000 H   0  0  0  0  0  0  0  0  0  0  0  0
    3.4609    6.2001    0.0000 H   0  0  0  0  0  0  0  0  0  0  0  0
    2.7255    6.6777    0.0000 H   0  0  0  0  0  0  0  0  0  0  0  0
    2.2480    5.9423    0.0000 H   0  0  0  0  0  0  0  0  0  0  0  0
    1.9043    4.8847    0.0000 H   0  0  0  0  0  0  0  0  0  0  0  0
    1.8584    4.0091    0.0000 H   0  0  0  0  0  0  0  0  0  0  0  0
    2.7340    3.9632    0.0000 H   0  0  0  0  0  0  0  0  0  0  0  0
    4.7021    7.2921    0.0000 H   0  0  0  0  0  0  0  0  0  0  0  0
    6.3928    0.0597    0.0000 H   0  0  0  0  0  0  0  0  0  0  0  0
    6.7913    0.7499    0.0000 H   0  0  0  0  0  0  0  0  0  0  0  0
    5.7821    6.3766    0.0000 H   0  0  0  0  0  0  0  0  0  0  0  0
    5.9687    2.2249    0.0000 H   0  0  0  0  0  0  0  0  0  0  0  0
    5.5702    1.5346    0.0000 H   0  0  0  0  0  0  0  0  0  0  0  0
    4.4942    8.2702    0.0000 H   0  0  0  0  0  0  0  0  0  0  0  0
    7.4008    6.9998    0.0000 H   0  0  0  0  0  0  0  0  0  0  0  0
    7.4467    7.8754    0.0000 H   0  0  0  0  0  0  0  0  0  0  0  0
    6.5711    7.9213    0.0000 H   0  0  0  0  0  0  0  0  0  0  0  0
    5.8443    5.6844    0.0000 H   0  0  0  0  0  0  0  0  0  0  0  0
    6.5796    5.2069    0.0000 H   0  0  0  0  0  0  0  0  0  0  0  0
    7.0572    5.9422    0.0000 H   0  0  0  0  0  0  0  0  0  0  0  0
    6.2087    9.5343    0.0000 H   0  0  0  0  0  0  0  0  0  0  0  0
    7.3568    1.6053    0.0000 H   0  0  0  0  0  0  0  0  0  0  0  0
    7.5837    2.4523    0.0000 H   0  0  0  0  0  0  0  0  0  0  0  0
    6.7368    2.6792    0.0000 H   0  0  0  0  0  0  0  0  0  0  0  0
    4.0484   10.0133    0.0000 H   0  0  0  0  0  0  0  0  0  0  0  0
    4.5817    9.4210    0.0000 H   0  0  0  0  0  0  0  0  0  0  0  0
    6.9519   10.2034    0.0000 H   0  0  0  0  0  0  0  0  0  0  0  0
    5.6438   -2.6677    0.0000 H   0  0  0  0  0  0  0  0  0  0  0  0
    5.0797   11.0347    0.0000 H   0  0  0  0  0  0  0  0  0  0  0  0
    4.5464   11.6270    0.0000 H   0  0  0  0  0  0  0  0  0  0  0  0
    7.6574   -2.9654    0.0000 H   0  0  0  0  0  0  0  0  0  0  0  0
    7.2588   -2.2751    0.0000 H   0  0  0  0  0  0  0  0  0  0  0  0
    7.3582   12.4572    0.0000 H   0  0  0  0  0  0  0  0  0  0  0  0
    7.5574   11.1859    0.0000 H   0  0  0  0  0  0  0  0  0  0  0  0
    8.3371   11.3516    0.0000 H   0  0  0  0  0  0  0  0  0  0  0  0
    6.0999   13.2120    0.0000 H   0  0  0  0  0  0  0  0  0  0  0  0
    8.8827   12.9499    0.0000 H   0  0  0  0  0  0  0  0  0  0  0  0
    8.1031   12.7841    0.0000 H   0  0  0  0  0  0  0  0  0  0  0  0
    8.4497   -5.0477    0.0000 H   0  0  0  0  0  0  0  0  0  0  0  0
    8.4497   -4.0477    0.0000 H   0  0  0  0  0  0  0  0  0  0  0  0
    7.0468   -5.2377    0.0000 H   0  0  0  0  0  0  0  0  0  0  0  0
    2.7115   12.4918    0.0000 H   0  0  0  0  0  0  0  0  0  0  0  0
    9.1079   -7.6677    0.0000 H   0  0  0  0  0  0  0  0  0  0  0  0
    8.2419   -7.1677    0.0000 H   0  0  0  0  0  0  0  0  0  0  0  0
    6.4268   -6.8577    0.0000 H   0  0  0  0  0  0  0  0  0  0  0  0
    7.0468   -7.4777    0.0000 H   0  0  0  0  0  0  0  0  0  0  0  0
    7.6668   -6.8577    0.0000 H   0  0  0  0  0  0  0  0  0  0  0  0
    7.8312   14.7966    0.0000 H   0  0  0  0  0  0  0  0  0  0  0  0
    7.0959   15.2742    0.0000 H   0  0  0  0  0  0  0  0  0  0  0  0
    6.6183   14.5388    0.0000 H   0  0  0  0  0  0  0  0  0  0  0  0
   11.0478   -9.5477    0.0000 H   0  0  0  0  0  0  0  0  0  0  0  0
    9.4328   -9.7751    0.0000 H   0  0  0  0  0  0  0  0  0  0  0  0
    9.0343  -10.4654    0.0000 H   0  0  0  0  0  0  0  0  0  0  0  0
   11.0478   -8.5477    0.0000 H   0  0  0  0  0  0  0  0  0  0  0  0
   10.7229   -7.4403    0.0000 H   0  0  0  0  0  0  0  0  0  0  0  0
   11.1215   -6.7501    0.0000 H   0  0  0  0  0  0  0  0  0  0  0  0
    5.6438   -5.6677    0.0000 H   0  0  0  0  0  0  0  0  0  0  0  0
   10.8755   12.5709    0.0000 H   0  0  0  0  0  0  0  0  0  0  0  0
   12.2429   -9.2377    0.0000 H   0  0  0  0  0  0  0  0  0  0  0  0
   12.5720  -10.6677    0.0000 H   0  0  0  0  0  0  0  0  0  0  0  0
    8.2419  -11.5477    0.0000 H   0  0  0  0  0  0  0  0  0  0  0  0
   11.0478  -11.5477    0.0000 H   0  0  0  0  0  0  0  0  0  0  0  0
   11.0478   -5.5477    0.0000 H   0  0  0  0  0  0  0  0  0  0  0  0
   12.4984  -11.2501    0.0000 H   0  0  0  0  0  0  0  0  0  0  0  0
   12.8969  -11.9403    0.0000 H   0  0  0  0  0  0  0  0  0  0  0  0
    8.2419  -13.1677    0.0000 H   0  0  0  0  0  0  0  0  0  0  0  0
   11.0478  -13.1677    0.0000 H   0  0  0  0  0  0  0  0  0  0  0  0
   13.9750  -12.4777    0.0000 H   0  0  0  0  0  0  0  0  0  0  0  0
   15.3779  -10.0477    0.0000 H   0  0  0  0  0  0  0  0  0  0  0  0
   14.8410  -10.9777    0.0000 H   0  0  0  0  0  0  0  0  0  0  0  0
    9.1079  -14.6677    0.0000 H   0  0  0  0  0  0  0  0  0  0  0  0
  1 39  2  0  0  0  0
  2 40  2  0  0  0  0
  3 46  2  0  0  0  0
  4 49  2  0  0  0  0
  5 53  2  0  0  0  0
  6 56  2  0  0  0  0
  7 59  2  0  0  0  0
  8 63  1  0  0  0  0
  8140  1  0  0  0  0
  9 63  2  0  0  0  0
 10 64  2  0  0  0  0
 11 67  1  0  0  0  0
 11155  1  0  0  0  0
 12 68  2  0  0  0  0
 13 70  1  0  0  0  0
 13156  1  0  0  0  0
 14 69  2  0  0  0  0
 15 70  2  0  0  0  0
 16 77  1  0  0  0  0
 16161  1  0  0  0  0
 17 75  2  0  0  0  0
 18 78  2  0  0  0  0
 19 83  1  0  0  0  0
 19166  1  0  0  0  0
 20 87  1  0  0  0  0
 20169  1  0  0  0  0
 21 86  2  0  0  0  0
 22 34  1  0  0  0  0
 22 37  1  0  0  0  0
 22 39  1  0  0  0  0
 38 23  1  6  0  0  0
 23 46  1  0  0  0  0
 23 97  1  0  0  0  0
 24 40  1  0  0  0  0
 42 24  1  1  0  0  0
 24 98  1  0  0  0  0
 45 25  1  1  0  0  0
 25 53  1  0  0  0  0
 25112  1  0  0  0  0
 54 26  1  6  0  0  0
 26 59  1  0  0  0  0
 26125  1  0  0  0  0
 27 56  1  0  0  0  0
 27 60  1  0  0  0  0
 27126  1  0  0  0  0
 61 28  1  1  0  0  0
 28 68  1  0  0  0  0
 28134  1  0  0  0  0
 29 64  1  0  0  0  0
 66 29  1  6  0  0  0
 29138  1  0  0  0  0
 30 69  1  0  0  0  0
 71 30  1  6  0  0  0
 30142  1  0  0  0  0
 74 31  1  6  0  0  0
 31 75  1  0  0  0  0
 31152  1  0  0  0  0
 32 78  1  0  0  0  0
 80 32  1  6  0  0  0
 32157  1  0  0  0  0
 33 86  1  0  0  0  0
 33167  1  0  0  0  0
 33168  1  0  0  0  0
 34 35  1  0  0  0  0
 34 40  1  0  0  0  0
 34 88  1  0  0  0  0
 35 36  1  0  0  0  0
 35 89  1  0  0  0  0
 35 90  1  0  0  0  0
 36 37  1  0  0  0  0
 36 91  1  0  0  0  0
 36 92  1  0  0  0  0
 37 93  1  0  0  0  0
 37 94  1  0  0  0  0
 38 39  1  0  0  0  0
 38 41  1  0  0  0  0
 38 95  1  0  0  0  0
 41 43  1  0  0  0  0
 41 44  1  0  0  0  0
 41 96  1  0  0  0  0
 42 47  1  0  0  0  0
 42 49  1  0  0  0  0
 42 99  1  0  0  0  0
 43100  1  0  0  0  0
 43101  1  0  0  0  0
 43102  1  0  0  0  0
 44103  1  0  0  0  0
 44104  1  0  0  0  0
 44105  1  0  0  0  0
 45 46  1  0  0  0  0
 45 48  1  0  0  0  0
 45106  1  0  0  0  0
 47 50  1  0  0  0  0
 47107  1  0  0  0  0
 47108  1  0  0  0  0
 48 51  1  0  0  0  0
 48 52  1  0  0  0  0
 48109  1  0  0  0  0
 49 56  1  0  0  0  0
 50 55  1  0  0  0  0
 50110  1  0  0  0  0
 50111  1  0  0  0  0
 51113  1  0  0  0  0
 51114  1  0  0  0  0
 51115  1  0  0  0  0
 52116  1  0  0  0  0
 52117  1  0  0  0  0
 52118  1  0  0  0  0
 53 54  1  0  0  0  0
 54 57  1  0  0  0  0
 54119  1  0  0  0  0
 55120  1  0  0  0  0
 55121  1  0  0  0  0
 55122  1  0  0  0  0
 57 58  1  0  0  0  0
 57123  1  0  0  0  0
 57124  1  0  0  0  0
 58 63  1  0  0  0  0
 58127  1  0  0  0  0
 58128  1  0  0  0  0
 59 61  1  0  0  0  0
 60 64  1  0  0  0  0
 60129  1  0  0  0  0
 60130  1  0  0  0  0
 61 62  1  0  0  0  0
 61131  1  0  0  0  0
 62 65  1  0  0  0  0
 62132  1  0  0  0  0
 62133  1  0  0  0  0
 65 70  1  0  0  0  0
 65135  1  0  0  0  0
 65136  1  0  0  0  0
 66 67  1  0  0  0  0
 66 69  1  0  0  0  0
 66137  1  0  0  0  0
 67 72  1  0  0  0  0
 67139  1  0  0  0  0
 68 73  1  0  0  0  0
 71 75  1  0  0  0  0
 71 77  1  0  0  0  0
 71141  1  0  0  0  0
 72143  1  0  0  0  0
 72144  1  0  0  0  0
 72145  1  0  0  0  0
 73146  1  0  0  0  0
 73147  1  0  0  0  0
 73148  1  0  0  0  0
 74 76  1  0  0  0  0
 74 78  1  0  0  0  0
 74149  1  0  0  0  0
 76 79  1  0  0  0  0
 76150  1  0  0  0  0
 76151  1  0  0  0  0
 77153  1  0  0  0  0
 77154  1  0  0  0  0
 79 81  2  0  0  0  0
 79 82  1  0  0  0  0
 80 83  1  0  0  0  0
 80 86  1  0  0  0  0
 80158  1  0  0  0  0
 81 84  1  0  0  0  0
 81159  1  0  0  0  0
 82 85  2  0  0  0  0
 82160  1  0  0  0  0
 83162  1  0  0  0  0
 83163  1  0  0  0  0
 84 87  2  0  0  0  0
 84164  1  0  0  0  0
 85 87  1  0  0  0  0
 85165  1  0  0  0  0
M  END
> <PUBCHEM_COMPOUND_CID>
504387
> <PUBCHEM_COMPOUND_CANONICALIZED>
1
> <PUBCHEM_CACTVS_COMPLEXITY>
2470
> <PUBCHEM_CACTVS_HBOND_ACCEPTOR>
21
> <PUBCHEM_CACTVS_HBOND_DONOR>
17
> <PUBCHEM_CACTVS_ROTATABLE_BOND>
37
> <PUBCHEM_CACTVS_SUBSKEYS>
AAADcfB//gAAAAAAAAAAAAAAAAAAAWAAAAAwAAAAAAAAAAABAAAAHgAQCAAADTzhmAYyDoPAAgCIAqHSGAACAAAgIAAIiIGOCIgKdj6C0TOUcAAm9hGYmAe836KOIAAAAAAAAABAAAAAAAAAAAAAAAAAAA==
> <PUBCHEM_IUPAC_OPENEYE_NAME>
(4S)-4-acetamido-5-[[(1S)-1-[[(1S)-1-[[(1S)-1-[2-[[(1S)-1-[2-[[2-[[(1S)-1-[[(1R)-2-[[(1S)-2-[[(1S)-2-amino-1-(hydroxymethyl)-2-oxo-ethyl]amino]-1-[(4-hydroxyphenyl)methyl]-2-oxo-ethyl]amino]-1-(hydroxymethyl)-2-oxo-ethyl]carbamoyl]-2-hydroxy-propyl]amino]-2-oxo-ethyl]amino]-2-oxo-acetyl]butyl]carbamoyl]pyrrolidine-1-carbonyl]-2-methyl-propyl]carbamoyl]-2-methyl-propyl]carbamoyl]-3-carboxy-propyl]amino]-5-oxo-pentanoic acid
> <PUBCHEM_IUPAC_CAS_NAME>
(4S)-4-acetamido-5-[[(2S)-1-[[(2S)-1-[[(2S)-1-[2-[[[(3S)-1-[[2-[[(2S)-1-[[(2R)-1-[[(2S)-1-[[(2S)-1-amino-3-hydroxy-1-oxopropan-2-yl]amino]-3-(4-hydroxyphenyl)-1-oxopropan-2-yl]amino]-3-hydroxy-1-oxopropan-2-yl]amino]-3-hydroxy-1-oxobutan-2-yl]amino]-2-oxoethyl]amino]-1,2-dioxohexan-3-yl]amino]-oxomethyl]-1-pyrrolidinyl]-3-methyl-1-oxobutan-2-yl]amino]-3-methyl-1-oxobutan-2-yl]amino]-4-carboxy-1-oxobutan-2-yl]amino]-5-oxopentanoic acid
> <PUBCHEM_IUPAC_NAME_MARKUP>
(4<I>S</I>)-4-acetamido-5-[[(2<I>S</I>)-1-[[(2<I>S</I>)-1-[[(2<I>S</I>)-1-[2-[[(3<I>S</I>)-1-[[2-[[(2<I>S</I>)-1-[[(2<I>R</I>)-1-[[(2<I>S</I>)-1-[[(2<I>S</I>)-1-amino-3-hydroxy-1-oxopropan-2-yl]amino]-3-(4-hydroxyphenyl)-1-oxopropan-2-yl]amino]-3-hydroxy-1-oxopropan-2-yl]amino]-3-hydroxy-1-oxobutan-2-yl]amino]-2-oxoethyl]amino]-1,2-dioxohexan-3-yl]carbamoyl]pyrrolidin-1-yl]-3-methyl-1-oxobutan-2-yl]amino]-3-methyl-1-oxobutan-2-yl]amino]-4-carboxy-1-oxobutan-2-yl]amino]-5-oxopentanoic acid
> <PUBCHEM_IUPAC_NAME>
(4S)-4-acetamido-5-[[(2S)-1-[[(2S)-1-[[(2S)-1-[2-[[(3S)-1-[[2-[[(2S)-1-[[(2R)-1-[[(2S)-1-[[(2S)-1-amino-3-hydroxy-1-oxopropan-2-yl]amino]-3-(4-hydroxyphenyl)-1-oxopropan-2-yl]amino]-3-hydroxy-1-oxopropan-2-yl]amino]-3-hydroxy-1-oxobutan-2-yl]amino]-2-oxoethyl]amino]-1,2-dioxohexan-3-yl]carbamoyl]pyrrolidin-1-yl]-3-methyl-1-oxobutan-2-yl]amino]-3-methyl-1-oxobutan-2-yl]amino]-4-carboxy-1-oxobutan-2-yl]amino]-5-oxopentanoic acid
> <PUBCHEM_IUPAC_SYSTEMATIC_NAME>
(4S)-4-acetamido-5-[[(2S)-1-[[(2S)-1-[[(2S)-1-[2-[[(3S)-1-[[2-[[(2S)-1-[[(2R)-1-[[(2S)-1-[[(2S)-1-azanyl-3-oxidanyl-1-oxidanylidene-propan-2-yl]amino]-3-(4-hydroxyphenyl)-1-oxidanylidene-propan-2-yl]amino]-3-oxidanyl-1-oxidanylidene-propan-2-yl]amino]-3-oxidanyl-1-oxidanylidene-butan-2-yl]amino]-2-oxidanylidene-ethyl]amino]-1,2-bis(oxidanylidene)hexan-3-yl]carbamoyl]pyrrolidin-1-yl]-3-methyl-1-oxidanylidene-butan-2-yl]amino]-3-methyl-1-oxidanylidene-butan-2-yl]amino]-5-oxidanyl-1,5-bis(oxidanylidene)pentan-2-yl]amino]-5-oxidanylidene-pentanoic acid
> <PUBCHEM_IUPAC_TRADITIONAL_NAME>
(4S)-4-acetamido-5-[[(1S)-1-[[(1S)-1-[[(1S)-1-[2-[[(1S)-1-[2-[[2-[[(1S)-1-[[(1R)-2-[[(1S)-2-[[(1S)-2-amino-2-keto-1-methylol-ethyl]amino]-1-(4-hydroxybenzyl)-2-keto-ethyl]amino]-2-keto-1-methylol-ethyl]carbamoyl]-2-hydroxy-propyl]amino]-2-keto-ethyl]amino]-2-keto-acetyl]butyl]carbamoyl]pyrrolidine-1-carbonyl]-2-methyl-propyl]carbamoyl]-2-methyl-propyl]carbamoyl]-3-carboxy-propyl]amino]-5-keto-valeric acid
> <PUBCHEM_IUPAC_INCHI>
InChI=1S/C54H82N12O21/c1-8-10-31(44(77)53(86)56-22-38(72)63-43(27(6)69)52(85)62-36(24-68)49(82)60-34(21-29-12-14-30(71)15-13-29)48(81)61-35(23-67)45(55)78)58-50(83)37-11-9-20-66(37)54(87)42(26(4)5)65-51(84)41(25(2)3)64-47(80)33(17-19-40(75)76)59-46(79)32(57-28(7)70)16-18-39(73)74/h12-15,25-27,31-37,41-43,67-69,71H,8-11,16-24H2,1-7H3,(H2,55,78)(H,56,86)(H,57,70)(H,58,83)(H,59,79)(H,60,82)(H,61,81)(H,62,85)(H,63,72)(H,64,80)(H,65,84)(H,73,74)(H,75,76)/t27?,31-,32-,33-,34-,35-,36+,37?,41-,42-,43-/m0/s1
> <PUBCHEM_IUPAC_INCHIKEY>
DFUPMPRLGBWIHS-HFNFTGHPSA-N
> <PUBCHEM_XLOGP3_AA>
-3.6
> <PUBCHEM_EXACT_MASS>
1234.57174767
> <PUBCHEM_MOLECULAR_FORMULA>
C54H82N12O21
> <PUBCHEM_MOLECULAR_WEIGHT>
1235.3
> <PUBCHEM_OPENEYE_CAN_SMILES>
CCCC(C(=O)C(=O)NCC(=O)NC(C(C)O)C(=O)NC(CO)C(=O)NC(CC1=CC=C(C=C1)O)C(=O)NC(CO)C(=O)N)NC(=O)C2CCCN2C(=O)C(C(C)C)NC(=O)C(C(C)C)NC(=O)C(CCC(=O)O)NC(=O)C(CCC(=O)O)NC(=O)C
> <PUBCHEM_OPENEYE_ISO_SMILES>
CCC[C@@H](C(=O)C(=O)NCC(=O)N[C@@H](C(C)O)C(=O)N[C@H](CO)C(=O)N[C@@H](CC1=CC=C(C=C1)O)C(=O)N[C@@H](CO)C(=O)N)NC(=O)C2CCCN2C(=O)[C@H](C(C)C)NC(=O)[C@H](C(C)C)NC(=O)[C@H](CCC(=O)O)NC(=O)[C@H](CCC(=O)O)NC(=O)C
> <PUBCHEM_CACTVS_TPSA>
527
> <PUBCHEM_MONOISOTOPIC_WEIGHT>
1234.57174767
> <PUBCHEM_TOTAL_CHARGE>
0
> <PUBCHEM_HEAVY_ATOM_COUNT>
87
> <PUBCHEM_ATOM_DEF_STEREO_COUNT>
9
> <PUBCHEM_ATOM_UDEF_STEREO_COUNT>
2
> <PUBCHEM_BOND_DEF_STEREO_COUNT>
0
> <PUBCHEM_BOND_UDEF_STEREO_COUNT>
0
> <PUBCHEM_ISOTOPIC_ATOM_COUNT>
0
> <PUBCHEM_COMPONENT_COUNT>
1
> <PUBCHEM_CACTVS_TAUTO_COUNT>
-1
> <PUBCHEM_COORDINATE_TYPE>
1
5
255
> <PUBCHEM_BONDANNOTATIONS>
67  11  3
38  23  6
42  24  5
45  25  5
54  26  6
61  28  5
66  29  6
71  30  6
74  31  6
80  32  6
34  40  3
79  81  8
79  82  8
81  84  8
82  85  8
84  87  8
85  87  8
$$$$
