504322
  -OEChem-10302200282D
 27 30  0     1  0  0  0  0  0999 V2000
    7.0602    2.0750    0.0000 O   0  0  0  0  0  0  0  0  0  0  0  0
    4.2129    1.2238    0.0000 O   0  0  0  0  0  0  0  0  0  0  0  0
    5.4136   -2.0750    0.0000 O   0  0  0  0  0  0  0  0  0  0  0  0
    4.5567   -0.5190    0.0000 N   0  0  0  0  0  0  0  0  0  0  0  0
    3.6170   -0.8610    0.0000 N   0  0  0  0  0  0  0  0  0  0  0  0
    2.0000   -0.9174    0.0000 N   0  0  0  0  0  0  0  0  0  0  0  0
    2.3420   -1.8571    0.0000 N   0  0  0  0  0  0  0  0  0  0  0  0
    5.8233    0.4741    0.0000 C   0  0  3  0  0  0  0  0  0  0  0  0
    6.1653   -0.4656    0.0000 C   0  0  3  0  0  0  0  0  0  0  0  0
    7.7968    1.0924    0.0000 C   0  0  3  0  0  0  0  0  0  0  0  0
    7.5380    0.1265    0.0000 C   0  0  3  0  0  0  0  0  0  0  0  0
    9.1958    0.5836    0.0000 C   0  0  0  0  0  0  0  0  0  0  0  0
    8.9370   -0.3824    0.0000 C   0  0  0  0  0  0  0  0  0  0  0  0
    4.8299    0.4369    0.0000 C   0  0  0  0  0  0  0  0  0  0  0  0
    5.3804   -1.0756    0.0000 C   0  0  0  0  0  0  0  0  0  0  0  0
    2.7880   -0.3018    0.0000 C   0  0  0  0  0  0  0  0  0  0  0  0
    3.3414   -1.8222    0.0000 C   0  0  0  0  0  0  0  0  0  0  0  0
    5.7181    1.0851    0.0000 H   0  0  0  0  0  0  0  0  0  0  0  0
    6.4808   -0.9993    0.0000 H   0  0  0  0  0  0  0  0  0  0  0  0
    8.1662    1.5904    0.0000 H   0  0  0  0  0  0  0  0  0  0  0  0
    7.9995    0.5405    0.0000 H   0  0  0  0  0  0  0  0  0  0  0  0
    9.7898    0.4058    0.0000 H   0  0  0  0  0  0  0  0  0  0  0  0
    9.3907    1.1721    0.0000 H   0  0  0  0  0  0  0  0  0  0  0  0
    8.7420   -0.9709    0.0000 H   0  0  0  0  0  0  0  0  0  0  0  0
    9.5309   -0.5601    0.0000 H   0  0  0  0  0  0  0  0  0  0  0  0
    2.7664    0.3178    0.0000 H   0  0  0  0  0  0  0  0  0  0  0  0
    3.7231   -2.3108    0.0000 H   0  0  0  0  0  0  0  0  0  0  0  0
  1 10  1  0  0  0  0
  1 11  1  0  0  0  0
  2 14  2  0  0  0  0
  3 15  2  0  0  0  0
  4  5  1  0  0  0  0
  4 14  1  0  0  0  0
  4 15  1  0  0  0  0
  5 16  1  0  0  0  0
  5 17  1  0  0  0  0
  6  7  1  0  0  0  0
  6 16  2  0  0  0  0
  7 17  2  0  0  0  0
  8  9  1  0  0  0  0
  8 10  1  0  0  0  0
  8 14  1  0  0  0  0
  8 18  1  0  0  0  0
  9 11  1  0  0  0  0
  9 15  1  0  0  0  0
  9 19  1  0  0  0  0
 10 12  1  0  0  0  0
 10 20  1  0  0  0  0
 11 13  1  0  0  0  0
 11 21  1  0  0  0  0
 12 13  1  0  0  0  0
 12 22  1  0  0  0  0
 12 23  1  0  0  0  0
 13 24  1  0  0  0  0
 13 25  1  0  0  0  0
 16 26  1  0  0  0  0
 17 27  1  0  0  0  0
M  END
> <PUBCHEM_COMPOUND_CID>
504322
> <PUBCHEM_COMPOUND_CANONICALIZED>
1
> <PUBCHEM_CACTVS_COMPLEXITY>
367
> <PUBCHEM_CACTVS_HBOND_ACCEPTOR>
5
> <PUBCHEM_CACTVS_HBOND_DONOR>
0
> <PUBCHEM_CACTVS_ROTATABLE_BOND>
1
> <PUBCHEM_CACTVS_SUBSKEYS>
AAADccBzsAAAAAAAAAAAAAAAAAAAAWLEiQAwAAAAAAAWAAABgAAAHgAIAAAADRShgAYFEAYIFAAqAAERNAAQAAsQgIAXQAEIAACACBYAgAAGAAAGJCCAAAG/yLCOgAAAAAAAAAAAAAIAADAAAAAAAAAAAA==
> <PUBCHEM_IUPAC_OPENEYE_NAME>
2-(1,2,4-triazol-4-yl)-3a,4,5,6,7,7a-hexahydro-4,7-epoxyisoindole-1,3-dione
> <PUBCHEM_IUPAC_CAS_NAME>
2-(1,2,4-triazol-4-yl)-3a,4,5,6,7,7a-hexahydro-4,7-epoxyisoindole-1,3-dione
> <PUBCHEM_IUPAC_NAME_MARKUP>
2-(1,2,4-triazol-4-yl)-3<I>a</I>,4,5,6,7,7<I>a</I>-hexahydro-4,7-epoxyisoindole-1,3-dione
> <PUBCHEM_IUPAC_NAME>
2-(1,2,4-triazol-4-yl)-3a,4,5,6,7,7a-hexahydro-4,7-epoxyisoindole-1,3-dione
> <PUBCHEM_IUPAC_SYSTEMATIC_NAME>
2-(1,2,4-triazol-4-yl)-3a,4,5,6,7,7a-hexahydro-4,7-epoxyisoindole-1,3-dione
> <PUBCHEM_IUPAC_TRADITIONAL_NAME>
2-(1,2,4-triazol-4-yl)-3a,4,5,6,7,7a-hexahydro-4,7-epoxyisoindole-1,3-quinone
> <PUBCHEM_IUPAC_INCHI>
InChI=1S/C10H10N4O3/c15-9-7-5-1-2-6(17-5)8(7)10(16)14(9)13-3-11-12-4-13/h3-8H,1-2H2
> <PUBCHEM_IUPAC_INCHIKEY>
DSBFESRESWGBRJ-UHFFFAOYSA-N
> <PUBCHEM_XLOGP3_AA>
-1
> <PUBCHEM_EXACT_MASS>
234.07529019
> <PUBCHEM_MOLECULAR_FORMULA>
C10H10N4O3
> <PUBCHEM_MOLECULAR_WEIGHT>
234.21
> <PUBCHEM_OPENEYE_CAN_SMILES>
C1CC2C3C(C1O2)C(=O)N(C3=O)N4C=NN=C4
> <PUBCHEM_OPENEYE_ISO_SMILES>
C1CC2C3C(C1O2)C(=O)N(C3=O)N4C=NN=C4
> <PUBCHEM_CACTVS_TPSA>
77.3
> <PUBCHEM_MONOISOTOPIC_WEIGHT>
234.07529019
> <PUBCHEM_TOTAL_CHARGE>
0
> <PUBCHEM_HEAVY_ATOM_COUNT>
17
> <PUBCHEM_ATOM_DEF_STEREO_COUNT>
0
> <PUBCHEM_ATOM_UDEF_STEREO_COUNT>
4
> <PUBCHEM_BOND_DEF_STEREO_COUNT>
0
> <PUBCHEM_BOND_UDEF_STEREO_COUNT>
0
> <PUBCHEM_ISOTOPIC_ATOM_COUNT>
0
> <PUBCHEM_COMPONENT_COUNT>
1
> <PUBCHEM_CACTVS_TAUTO_COUNT>
-1
> <PUBCHEM_COORDINATE_TYPE>
1
5
255
> <PUBCHEM_BONDANNOTATIONS>
10  12  3
11  13  3
5  16  8
5  17  8
6  16  8
6  7  8
7  17  8
8  14  3
9  15  3
$$$$
