504346
  -OEChem-10302200282D
 45 45  0     1  0  0  0  0  0999 V2000
    5.1525    3.4860    0.0000 S   0  0  0  0  0  0  0  0  0  0  0  0
    5.6525    4.3520    0.0000 O   0  0  0  0  0  0  0  0  0  0  0  0
    6.0185    2.9860    0.0000 O   0  0  0  0  0  0  0  0  0  0  0  0
    4.5097    4.2521    0.0000 O   0  0  0  0  0  0  0  0  0  0  0  0
    3.1362    6.9720    0.0000 N   0  3  0  0  0  0  0  0  0  0  0  0
    4.6525    2.6200    0.0000 C   0  0  3  0  0  0  0  0  0  0  0  0
    3.8864    3.2628    0.0000 C   0  0  0  0  0  0  0  0  0  0  0  0
    3.7864    2.1200    0.0000 C   0  0  0  0  0  0  0  0  0  0  0  0
    2.9467    2.9208    0.0000 C   0  0  0  0  0  0  0  0  0  0  0  0
    5.5185    2.1200    0.0000 C   0  0  0  0  0  0  0  0  0  0  0  0
    2.1807    3.5636    0.0000 C   0  0  0  0  0  0  0  0  0  0  0  0
    3.7864    1.1200    0.0000 C   0  0  0  0  0  0  0  0  0  0  0  0
    5.5185    1.1200    0.0000 C   0  0  0  0  0  0  0  0  0  0  0  0
    1.2410    3.2215    0.0000 C   0  0  0  0  0  0  0  0  0  0  0  0
    4.6525    0.6200    0.0000 C   0  0  0  0  0  0  0  0  0  0  0  0
    0.4749    3.8643    0.0000 C   0  0  0  0  0  0  0  0  0  0  0  0
    4.0023    7.4720    0.0000 C   0  0  0  0  0  0  0  0  0  0  0  0
    2.2702    7.4720    0.0000 C   0  0  0  0  0  0  0  0  0  0  0  0
    4.0023    8.4720    0.0000 C   0  0  0  0  0  0  0  0  0  0  0  0
    2.2702    8.4720    0.0000 C   0  0  0  0  0  0  0  0  0  0  0  0
    3.1362    8.9720    0.0000 C   0  0  0  0  0  0  0  0  0  0  0  0
    4.3614    3.6613    0.0000 H   0  0  0  0  0  0  0  0  0  0  0  0
    3.5764    3.7997    0.0000 H   0  0  0  0  0  0  0  0  0  0  0  0
    3.5744    2.7026    0.0000 H   0  0  0  0  0  0  0  0  0  0  0  0
    3.1759    2.0123    0.0000 H   0  0  0  0  0  0  0  0  0  0  0  0
    2.4718    2.5222    0.0000 H   0  0  0  0  0  0  0  0  0  0  0  0
    3.2567    2.3838    0.0000 H   0  0  0  0  0  0  0  0  0  0  0  0
    6.0554    2.4300    0.0000 H   0  0  0  0  0  0  0  0  0  0  0  0
    2.6556    3.9621    0.0000 H   0  0  0  0  0  0  0  0  0  0  0  0
    1.8707    4.1005    0.0000 H   0  0  0  0  0  0  0  0  0  0  0  0
    3.2495    0.8100    0.0000 H   0  0  0  0  0  0  0  0  0  0  0  0
    6.0554    0.8100    0.0000 H   0  0  0  0  0  0  0  0  0  0  0  0
    0.7660    2.8230    0.0000 H   0  0  0  0  0  0  0  0  0  0  0  0
    1.5510    2.6846    0.0000 H   0  0  0  0  0  0  0  0  0  0  0  0
    4.6525    0.0000    0.0000 H   0  0  0  0  0  0  0  0  0  0  0  0
    6.2725    4.3520    0.0000 H   0  0  0  0  0  0  0  0  0  0  0  0
    0.8735    4.3393    0.0000 H   0  0  0  0  0  0  0  0  0  0  0  0
    0.0000    4.2628    0.0000 H   0  0  0  0  0  0  0  0  0  0  0  0
    0.0764    3.3894    0.0000 H   0  0  0  0  0  0  0  0  0  0  0  0
    3.1362    6.3520    0.0000 H   0  0  0  0  0  0  0  0  0  0  0  0
    4.5392    7.1620    0.0000 H   0  0  0  0  0  0  0  0  0  0  0  0
    1.7333    7.1620    0.0000 H   0  0  0  0  0  0  0  0  0  0  0  0
    4.5392    8.7820    0.0000 H   0  0  0  0  0  0  0  0  0  0  0  0
    1.7333    8.7820    0.0000 H   0  0  0  0  0  0  0  0  0  0  0  0
    3.1362    9.5920    0.0000 H   0  0  0  0  0  0  0  0  0  0  0  0
  1  2  1  0  0  0  0
  1  3  2  0  0  0  0
  1  4  2  0  0  0  0
  1  6  1  0  0  0  0
  2 36  1  0  0  0  0
  5 17  2  0  0  0  0
  5 18  1  0  0  0  0
  5 40  1  0  0  0  0
  6  7  1  0  0  0  0
  6  8  1  0  0  0  0
  6 10  1  0  0  0  0
  7  9  1  0  0  0  0
  7 22  1  0  0  0  0
  7 23  1  0  0  0  0
  8 12  1  0  0  0  0
  8 24  1  0  0  0  0
  8 25  1  0  0  0  0
  9 11  1  0  0  0  0
  9 26  1  0  0  0  0
  9 27  1  0  0  0  0
 10 13  2  0  0  0  0
 10 28  1  0  0  0  0
 11 14  1  0  0  0  0
 11 29  1  0  0  0  0
 11 30  1  0  0  0  0
 12 15  2  0  0  0  0
 12 31  1  0  0  0  0
 13 15  1  0  0  0  0
 13 32  1  0  0  0  0
 14 16  1  0  0  0  0
 14 33  1  0  0  0  0
 14 34  1  0  0  0  0
 15 35  1  0  0  0  0
 16 37  1  0  0  0  0
 16 38  1  0  0  0  0
 16 39  1  0  0  0  0
 17 19  1  0  0  0  0
 17 41  1  0  0  0  0
 18 20  2  0  0  0  0
 18 42  1  0  0  0  0
 19 21  2  0  0  0  0
 19 43  1  0  0  0  0
 20 21  1  0  0  0  0
 20 44  1  0  0  0  0
 21 45  1  0  0  0  0
M  CHG  1   5   1
M  END
> <PUBCHEM_COMPOUND_CID>
504346
> <PUBCHEM_COMPOUND_CANONICALIZED>
1
> <PUBCHEM_CACTVS_COMPLEXITY>
379
> <PUBCHEM_CACTVS_HBOND_ACCEPTOR>
3
> <PUBCHEM_CACTVS_HBOND_DONOR>
2
> <PUBCHEM_CACTVS_ROTATABLE_BOND>
5
> <PUBCHEM_CACTVS_SUBSKEYS>
AAADceB6MABAAAAAAAAAAAAAAAAAAAAAAAAsQAAAAAAAAAABgAAAHAQQCAAADADBUgQ+gJLJkIKgADBnRHDCgCAxAiAI2aA4ZJgIIOLAkZGEIAhgkADIyAcQgMAOAAAAAAAAAAAAAAAAAAAAAAAAAAAAAA==
> <PUBCHEM_IUPAC_OPENEYE_NAME>
1-pentylcyclohexa-2,4-diene-1-sulfonic acid;pyridin-1-ium
> <PUBCHEM_IUPAC_CAS_NAME>
1-pentyl-1-cyclohexa-2,4-dienesulfonic acid;pyridin-1-ium
> <PUBCHEM_IUPAC_NAME_MARKUP>
1-pentylcyclohexa-2,4-diene-1-sulfonic acid;pyridin-1-ium
> <PUBCHEM_IUPAC_NAME>
1-pentylcyclohexa-2,4-diene-1-sulfonic acid;pyridin-1-ium
> <PUBCHEM_IUPAC_SYSTEMATIC_NAME>
1-pentylcyclohexa-2,4-diene-1-sulfonic acid;pyridin-1-ium
> <PUBCHEM_IUPAC_TRADITIONAL_NAME>
1-amylcyclohexa-2,4-diene-1-sulfonic acid;pyridin-1-ium
> <PUBCHEM_IUPAC_INCHI>
InChI=1S/C11H18O3S.C5H5N/c1-2-3-5-8-11(15(12,13)14)9-6-4-7-10-11;1-2-4-6-5-3-1/h4,6-7,9H,2-3,5,8,10H2,1H3,(H,12,13,14);1-5H/p+1
> <PUBCHEM_IUPAC_INCHIKEY>
HWTMJNQZDLSGNP-UHFFFAOYSA-O
> <PUBCHEM_EXACT_MASS>
310.14768980
> <PUBCHEM_MOLECULAR_FORMULA>
C16H24NO3S+
> <PUBCHEM_MOLECULAR_WEIGHT>
310.4
> <PUBCHEM_OPENEYE_CAN_SMILES>
CCCCCC1(CC=CC=C1)S(=O)(=O)O.C1=CC=[NH+]C=C1
> <PUBCHEM_OPENEYE_ISO_SMILES>
CCCCCC1(CC=CC=C1)S(=O)(=O)O.C1=CC=[NH+]C=C1
> <PUBCHEM_CACTVS_TPSA>
76.9
> <PUBCHEM_MONOISOTOPIC_WEIGHT>
310.14768980
> <PUBCHEM_TOTAL_CHARGE>
1
> <PUBCHEM_HEAVY_ATOM_COUNT>
21
> <PUBCHEM_ATOM_DEF_STEREO_COUNT>
0
> <PUBCHEM_ATOM_UDEF_STEREO_COUNT>
1
> <PUBCHEM_BOND_DEF_STEREO_COUNT>
0
> <PUBCHEM_BOND_UDEF_STEREO_COUNT>
0
> <PUBCHEM_ISOTOPIC_ATOM_COUNT>
0
> <PUBCHEM_COMPONENT_COUNT>
2
> <PUBCHEM_CACTVS_TAUTO_COUNT>
-1
> <PUBCHEM_COORDINATE_TYPE>
1
5
255
> <PUBCHEM_BONDANNOTATIONS>
17  19  8
18  20  8
19  21  8
20  21  8
5  17  8
5  18  8
6  7  3
$$$$
