504424
  -OEChem-10302200282D
 76 80  0     1  0  0  0  0  0999 V2000
   12.8134    0.9542    0.0000 F   0  0  0  0  0  0  0  0  0  0  0  0
   11.0813    3.9542    0.0000 F   0  0  0  0  0  0  0  0  0  0  0  0
    7.6172    1.9542    0.0000 F   0  0  0  0  0  0  0  0  0  0  0  0
   15.4104   -0.5903    0.0000 F   0  0  0  0  0  0  0  0  0  0  0  0
    4.3025   -1.3822    0.0000 O   0  0  0  0  0  0  0  0  0  0  0  0
    4.7637    0.3391    0.0000 O   0  0  0  0  0  0  0  0  0  0  0  0
   14.5618    4.9888    0.0000 O   0  0  0  0  0  0  0  0  0  0  0  0
   17.2115    3.4817    0.0000 O   0  0  0  0  0  0  0  0  0  0  0  0
   16.3397    4.9784    0.0000 O   0  0  0  0  0  0  0  0  0  0  0  0
    3.5823   -4.9888    0.0000 O   0  0  0  0  0  0  0  0  0  0  0  0
   11.0813    1.9542    0.0000 N   0  0  0  0  0  0  0  0  0  0  0  0
    9.3493    0.9542    0.0000 N   0  0  0  0  0  0  0  0  0  0  0  0
    5.8852   -1.0458    0.0000 N   0  0  0  0  0  0  0  0  0  0  0  0
   14.5734    1.9196    0.0000 N   0  0  0  0  0  0  0  0  0  0  0  0
    3.4013   -3.2663    0.0000 N   0  0  0  0  0  0  0  0  0  0  0  0
   10.2153    2.4542    0.0000 C   0  0  0  0  0  0  0  0  0  0  0  0
   11.0813    0.9542    0.0000 C   0  0  0  0  0  0  0  0  0  0  0  0
    9.3493    1.9542    0.0000 C   0  0  0  0  0  0  0  0  0  0  0  0
   10.2153    0.4542    0.0000 C   0  0  0  0  0  0  0  0  0  0  0  0
   11.9474    2.4542    0.0000 C   0  0  0  0  0  0  0  0  0  0  0  0
    8.4833    0.4542    0.0000 C   0  0  0  0  0  0  0  0  0  0  0  0
   12.8134    1.9542    0.0000 C   0  0  0  0  0  0  0  0  0  0  0  0
    4.8025   -2.2482    0.0000 C   0  0  2  0  0  0  0  0  0  0  0  0
    5.7807   -2.0403    0.0000 C   0  0  0  0  0  0  0  0  0  0  0  0
   13.6794    2.4542    0.0000 C   0  0  0  0  0  0  0  0  0  0  0  0
   11.9474    3.4542    0.0000 C   0  0  0  0  0  0  0  0  0  0  0  0
    6.7512   -0.5458    0.0000 C   0  0  0  0  0  0  0  0  0  0  0  0
    7.6172    0.9542    0.0000 C   0  0  0  0  0  0  0  0  0  0  0  0
    8.4833   -0.5458    0.0000 C   0  0  0  0  0  0  0  0  0  0  0  0
   13.6794    3.4542    0.0000 C   0  0  0  0  0  0  0  0  0  0  0  0
    6.7512    0.4542    0.0000 C   0  0  0  0  0  0  0  0  0  0  0  0
    7.6172   -1.0458    0.0000 C   0  0  0  0  0  0  0  0  0  0  0  0
   12.8134    3.9542    0.0000 C   0  0  0  0  0  0  0  0  0  0  0  0
    4.3958   -3.1617    0.0000 C   0  0  0  0  0  0  0  0  0  0  0  0
    4.9716   -0.6390    0.0000 C   0  0  0  0  0  0  0  0  0  0  0  0
   14.5734    3.9889    0.0000 C   0  0  0  0  0  0  0  0  0  0  0  0
   14.5618    0.9196    0.0000 C   0  0  0  0  0  0  0  0  0  0  0  0
   15.4794    2.4334    0.0000 C   0  0  0  0  0  0  0  0  0  0  0  0
   15.4794    3.4750    0.0000 C   0  0  0  0  0  0  0  0  0  0  0  0
   15.4220    0.4097    0.0000 C   0  0  0  0  0  0  0  0  0  0  0  0
   16.3435    3.9784    0.0000 C   0  0  0  0  0  0  0  0  0  0  0  0
    2.9945   -4.1798    0.0000 C   0  0  0  0  0  0  0  0  0  0  0  0
    2.0000   -4.2843    0.0000 C   0  0  0  0  0  0  0  0  0  0  0  0
   18.0756    3.9851    0.0000 C   0  0  0  0  0  0  0  0  0  0  0  0
   18.9435    3.4884    0.0000 C   0  0  0  0  0  0  0  0  0  0  0  0
   10.6138    2.9292    0.0000 H   0  0  0  0  0  0  0  0  0  0  0  0
    9.8168    2.9292    0.0000 H   0  0  0  0  0  0  0  0  0  0  0  0
   11.2934    0.3716    0.0000 H   0  0  0  0  0  0  0  0  0  0  0  0
   11.6919    1.0619    0.0000 H   0  0  0  0  0  0  0  0  0  0  0  0
    9.1372    2.5368    0.0000 H   0  0  0  0  0  0  0  0  0  0  0  0
    8.7387    1.8466    0.0000 H   0  0  0  0  0  0  0  0  0  0  0  0
    9.8168   -0.0207    0.0000 H   0  0  0  0  0  0  0  0  0  0  0  0
   10.6138   -0.0207    0.0000 H   0  0  0  0  0  0  0  0  0  0  0  0
    4.1834   -2.2806    0.0000 H   0  0  0  0  0  0  0  0  0  0  0  0
    5.8455   -2.6569    0.0000 H   0  0  0  0  0  0  0  0  0  0  0  0
    6.4007   -2.0403    0.0000 H   0  0  0  0  0  0  0  0  0  0  0  0
    9.0202   -0.8558    0.0000 H   0  0  0  0  0  0  0  0  0  0  0  0
    6.2143    0.7642    0.0000 H   0  0  0  0  0  0  0  0  0  0  0  0
    7.6172   -1.6658    0.0000 H   0  0  0  0  0  0  0  0  0  0  0  0
   12.8134    4.5742    0.0000 H   0  0  0  0  0  0  0  0  0  0  0  0
    4.3525   -3.7802    0.0000 H   0  0  0  0  0  0  0  0  0  0  0  0
    4.9974   -3.3117    0.0000 H   0  0  0  0  0  0  0  0  0  0  0  0
   13.9525    1.0344    0.0000 H   0  0  0  0  0  0  0  0  0  0  0  0
   14.3430    0.3395    0.0000 H   0  0  0  0  0  0  0  0  0  0  0  0
   16.0152    2.1214    0.0000 H   0  0  0  0  0  0  0  0  0  0  0  0
    3.0368   -2.7647    0.0000 H   0  0  0  0  0  0  0  0  0  0  0  0
   16.0313    0.2949    0.0000 H   0  0  0  0  0  0  0  0  0  0  0  0
   15.6408    0.9898    0.0000 H   0  0  0  0  0  0  0  0  0  0  0  0
    1.9352   -3.6677    0.0000 H   0  0  0  0  0  0  0  0  0  0  0  0
    1.3834   -4.3492    0.0000 H   0  0  0  0  0  0  0  0  0  0  0  0
    2.0648   -4.9010    0.0000 H   0  0  0  0  0  0  0  0  0  0  0  0
   18.4723    4.4615    0.0000 H   0  0  0  0  0  0  0  0  0  0  0  0
   17.6752    4.4585    0.0000 H   0  0  0  0  0  0  0  0  0  0  0  0
   18.6356    2.9503    0.0000 H   0  0  0  0  0  0  0  0  0  0  0  0
   19.4816    3.1805    0.0000 H   0  0  0  0  0  0  0  0  0  0  0  0
   19.2514    4.0265    0.0000 H   0  0  0  0  0  0  0  0  0  0  0  0
  1 22  1  0  0  0  0
  2 26  1  0  0  0  0
  3 28  1  0  0  0  0
  4 40  1  0  0  0  0
  5 23  1  0  0  0  0
  5 35  1  0  0  0  0
  6 35  2  0  0  0  0
  7 36  2  0  0  0  0
  8 41  1  0  0  0  0
  8 44  1  0  0  0  0
  9 41  2  0  0  0  0
 10 42  2  0  0  0  0
 11 16  1  0  0  0  0
 11 17  1  0  0  0  0
 11 20  1  0  0  0  0
 12 18  1  0  0  0  0
 12 19  1  0  0  0  0
 12 21  1  0  0  0  0
 13 24  1  0  0  0  0
 13 27  1  0  0  0  0
 13 35  1  0  0  0  0
 14 25  1  0  0  0  0
 14 37  1  0  0  0  0
 14 38  1  0  0  0  0
 15 34  1  0  0  0  0
 15 42  1  0  0  0  0
 15 66  1  0  0  0  0
 16 18  1  0  0  0  0
 16 46  1  0  0  0  0
 16 47  1  0  0  0  0
 17 19  1  0  0  0  0
 17 48  1  0  0  0  0
 17 49  1  0  0  0  0
 18 50  1  0  0  0  0
 18 51  1  0  0  0  0
 19 52  1  0  0  0  0
 19 53  1  0  0  0  0
 20 22  1  0  0  0  0
 20 26  2  0  0  0  0
 21 28  2  0  0  0  0
 21 29  1  0  0  0  0
 22 25  2  0  0  0  0
 23 24  1  0  0  0  0
 23 34  1  6  0  0  0
 23 54  1  0  0  0  0
 24 55  1  0  0  0  0
 24 56  1  0  0  0  0
 25 30  1  0  0  0  0
 26 33  1  0  0  0  0
 27 31  2  0  0  0  0
 27 32  1  0  0  0  0
 28 31  1  0  0  0  0
 29 32  2  0  0  0  0
 29 57  1  0  0  0  0
 30 33  2  0  0  0  0
 30 36  1  0  0  0  0
 31 58  1  0  0  0  0
 32 59  1  0  0  0  0
 33 60  1  0  0  0  0
 34 61  1  0  0  0  0
 34 62  1  0  0  0  0
 36 39  1  0  0  0  0
 37 40  1  0  0  0  0
 37 63  1  0  0  0  0
 37 64  1  0  0  0  0
 38 39  2  0  0  0  0
 38 65  1  0  0  0  0
 39 41  1  0  0  0  0
 40 67  1  0  0  0  0
 40 68  1  0  0  0  0
 42 43  1  0  0  0  0
 43 69  1  0  0  0  0
 43 70  1  0  0  0  0
 43 71  1  0  0  0  0
 44 45  1  0  0  0  0
 44 72  1  0  0  0  0
 44 73  1  0  0  0  0
 45 74  1  0  0  0  0
 45 75  1  0  0  0  0
 45 76  1  0  0  0  0
M  END
> <PUBCHEM_COMPOUND_CID>
504424
> <PUBCHEM_COMPOUND_CANONICALIZED>
1
> <PUBCHEM_CACTVS_COMPLEXITY>
1160
> <PUBCHEM_CACTVS_HBOND_ACCEPTOR>
13
> <PUBCHEM_CACTVS_HBOND_DONOR>
1
> <PUBCHEM_CACTVS_ROTATABLE_BOND>
10
> <PUBCHEM_CACTVS_SUBSKEYS>
AAADceB7ucAAAAAAAAAAAAAAAAAAAWAAAAA8YIEAAAAAAACBQAAAHwAQAAAADBzhmA4yyIPABACIAqXWWACCAAAlAgAIiIEIZMgKZD7I9dGfIYhktgDY6ceY2aOeCACAAAQCAAAQAQAACAQAAAAAAAAAAA==
> <PUBCHEM_IUPAC_OPENEYE_NAME>
ethyl 7-[4-[4-[(5S)-5-(acetamidomethyl)-2-oxo-oxazolidin-3-yl]-2-fluoro-phenyl]piperazin-1-yl]-6,8-difluoro-1-(2-fluoroethyl)-4-oxo-quinoline-3-carboxylate
> <PUBCHEM_IUPAC_CAS_NAME>
7-[4-[4-[(5S)-5-(acetamidomethyl)-2-oxo-3-oxazolidinyl]-2-fluorophenyl]-1-piperazinyl]-6,8-difluoro-1-(2-fluoroethyl)-4-oxo-3-quinolinecarboxylic acid ethyl ester
> <PUBCHEM_IUPAC_NAME_MARKUP>
ethyl 7-[4-[4-[(5<I>S</I>)-5-(acetamidomethyl)-2-oxo-1,3-oxazolidin-3-yl]-2-fluorophenyl]piperazin-1-yl]-6,8-difluoro-1-(2-fluoroethyl)-4-oxoquinoline-3-carboxylate
> <PUBCHEM_IUPAC_NAME>
ethyl 7-[4-[4-[(5S)-5-(acetamidomethyl)-2-oxo-1,3-oxazolidin-3-yl]-2-fluorophenyl]piperazin-1-yl]-6,8-difluoro-1-(2-fluoroethyl)-4-oxoquinoline-3-carboxylate
> <PUBCHEM_IUPAC_SYSTEMATIC_NAME>
ethyl 7-[4-[4-[(5S)-5-(acetamidomethyl)-2-oxidanylidene-1,3-oxazolidin-3-yl]-2-fluoranyl-phenyl]piperazin-1-yl]-6,8-bis(fluoranyl)-1-(2-fluoranylethyl)-4-oxidanylidene-quinoline-3-carboxylate
> <PUBCHEM_IUPAC_TRADITIONAL_NAME>
7-[4-[4-[(5S)-5-(acetamidomethyl)-2-keto-oxazolidin-3-yl]-2-fluoro-phenyl]piperazino]-6,8-difluoro-1-(2-fluoroethyl)-4-keto-quinoline-3-carboxylic acid ethyl ester
> <PUBCHEM_IUPAC_INCHI>
InChI=1S/C30H31F4N5O6/c1-3-44-29(42)21-16-38(7-6-31)26-20(28(21)41)13-23(33)27(25(26)34)37-10-8-36(9-11-37)24-5-4-18(12-22(24)32)39-15-19(45-30(39)43)14-35-17(2)40/h4-5,12-13,16,19H,3,6-11,14-15H2,1-2H3,(H,35,40)/t19-/m0/s1
> <PUBCHEM_IUPAC_INCHIKEY>
FRVCGFWYSPAWLA-IBGZPJMESA-N
> <PUBCHEM_XLOGP3_AA>
3.4
> <PUBCHEM_EXACT_MASS>
633.22104637
> <PUBCHEM_MOLECULAR_FORMULA>
C30H31F4N5O6
> <PUBCHEM_MOLECULAR_WEIGHT>
633.6
> <PUBCHEM_OPENEYE_CAN_SMILES>
CCOC(=O)C1=CN(C2=C(C(=C(C=C2C1=O)F)N3CCN(CC3)C4=C(C=C(C=C4)N5CC(OC5=O)CNC(=O)C)F)F)CCF
> <PUBCHEM_OPENEYE_ISO_SMILES>
CCOC(=O)C1=CN(C2=C(C(=C(C=C2C1=O)F)N3CCN(CC3)C4=C(C=C(C=C4)N5C[C@@H](OC5=O)CNC(=O)C)F)F)CCF
> <PUBCHEM_CACTVS_TPSA>
112
> <PUBCHEM_MONOISOTOPIC_WEIGHT>
633.22104637
> <PUBCHEM_TOTAL_CHARGE>
0
> <PUBCHEM_HEAVY_ATOM_COUNT>
45
> <PUBCHEM_ATOM_DEF_STEREO_COUNT>
1
> <PUBCHEM_ATOM_UDEF_STEREO_COUNT>
0
> <PUBCHEM_BOND_DEF_STEREO_COUNT>
0
> <PUBCHEM_BOND_UDEF_STEREO_COUNT>
0
> <PUBCHEM_ISOTOPIC_ATOM_COUNT>
0
> <PUBCHEM_COMPONENT_COUNT>
1
> <PUBCHEM_CACTVS_TAUTO_COUNT>
-1
> <PUBCHEM_COORDINATE_TYPE>
1
5
255
> <PUBCHEM_BONDANNOTATIONS>
14  25  8
14  38  8
20  22  8
20  26  8
21  28  8
21  29  8
22  25  8
23  34  6
25  30  8
26  33  8
27  31  8
27  32  8
28  31  8
29  32  8
30  33  8
30  36  8
36  39  8
38  39  8
$$$$
