504416
  -OEChem-10302200282D
 70 74  0     1  0  0  0  0  0999 V2000
    7.5932    1.9605    0.0000 F   0  0  0  0  0  0  0  0  0  0  0  0
   11.0572    4.0222    0.0000 F   0  0  0  0  0  0  0  0  0  0  0  0
    4.2913   -1.3886    0.0000 O   0  0  0  0  0  0  0  0  0  0  0  0
    4.7459    0.3344    0.0000 O   0  0  0  0  0  0  0  0  0  0  0  0
   14.5874    4.9980    0.0000 O   0  0  0  0  0  0  0  0  0  0  0  0
   17.1854    3.4980    0.0000 O   0  0  0  0  0  0  0  0  0  0  0  0
   16.3194    4.9980    0.0000 O   0  0  0  0  0  0  0  0  0  0  0  0
    3.5850   -4.9980    0.0000 O   0  0  0  0  0  0  0  0  0  0  0  0
   11.0572    1.9739    0.0000 N   0  0  0  0  0  0  0  0  0  0  0  0
    9.3290    0.9672    0.0000 N   0  0  0  0  0  0  0  0  0  0  0  0
    5.8727   -1.0461    0.0000 N   0  0  0  0  0  0  0  0  0  0  0  0
   14.5874    1.9980    0.0000 N   0  0  0  0  0  0  0  0  0  0  0  0
    3.3973   -3.2762    0.0000 N   0  0  0  0  0  0  0  0  0  0  0  0
   10.1893    2.4705    0.0000 C   0  0  0  0  0  0  0  0  0  0  0  0
   11.0611    0.9739    0.0000 C   0  0  0  0  0  0  0  0  0  0  0  0
    9.3252    1.9672    0.0000 C   0  0  0  0  0  0  0  0  0  0  0  0
   10.1970    0.4706    0.0000 C   0  0  0  0  0  0  0  0  0  0  0  0
   11.9213    2.4772    0.0000 C   0  0  0  0  0  0  0  0  0  0  0  0
    8.4650    0.4639    0.0000 C   0  0  0  0  0  0  0  0  0  0  0  0
    4.7946   -2.2527    0.0000 C   0  0  2  0  0  0  0  0  0  0  0  0
    5.7720   -2.0410    0.0000 C   0  0  0  0  0  0  0  0  0  0  0  0
   12.8274    1.9634    0.0000 C   0  0  0  0  0  0  0  0  0  0  0  0
    6.7368   -0.5428    0.0000 C   0  0  0  0  0  0  0  0  0  0  0  0
   13.7213    2.4980    0.0000 C   0  0  0  0  0  0  0  0  0  0  0  0
    7.5970    0.9605    0.0000 C   0  0  0  0  0  0  0  0  0  0  0  0
    8.4688   -0.5361    0.0000 C   0  0  0  0  0  0  0  0  0  0  0  0
   11.9213    3.5188    0.0000 C   0  0  0  0  0  0  0  0  0  0  0  0
   13.7213    3.4980    0.0000 C   0  0  0  0  0  0  0  0  0  0  0  0
    6.7329    0.4572    0.0000 C   0  0  0  0  0  0  0  0  0  0  0  0
    7.6047   -1.0394    0.0000 C   0  0  0  0  0  0  0  0  0  0  0  0
    4.3914   -3.1678    0.0000 C   0  0  0  0  0  0  0  0  0  0  0  0
   12.8274    4.0327    0.0000 C   0  0  0  0  0  0  0  0  0  0  0  0
    4.9576   -0.6429    0.0000 C   0  0  0  0  0  0  0  0  0  0  0  0
   14.5874    3.9980    0.0000 C   0  0  0  0  0  0  0  0  0  0  0  0
   14.5874    0.9980    0.0000 C   0  0  0  0  0  0  0  0  0  0  0  0
   15.4534    2.4980    0.0000 C   0  0  0  0  0  0  0  0  0  0  0  0
   15.4534    3.4980    0.0000 C   0  0  0  0  0  0  0  0  0  0  0  0
   15.4534    0.4980    0.0000 C   0  0  0  0  0  0  0  0  0  0  0  0
   16.3194    3.9980    0.0000 C   0  0  0  0  0  0  0  0  0  0  0  0
    2.9941   -4.1913    0.0000 C   0  0  0  0  0  0  0  0  0  0  0  0
    2.0000   -4.2996    0.0000 C   0  0  0  0  0  0  0  0  0  0  0  0
   10.5860    2.9470    0.0000 H   0  0  0  0  0  0  0  0  0  0  0  0
    9.7889    2.9440    0.0000 H   0  0  0  0  0  0  0  0  0  0  0  0
   11.2754    0.3921    0.0000 H   0  0  0  0  0  0  0  0  0  0  0  0
   11.6712    1.0839    0.0000 H   0  0  0  0  0  0  0  0  0  0  0  0
    9.1109    2.5490    0.0000 H   0  0  0  0  0  0  0  0  0  0  0  0
    8.7150    1.8572    0.0000 H   0  0  0  0  0  0  0  0  0  0  0  0
    9.8003   -0.0059    0.0000 H   0  0  0  0  0  0  0  0  0  0  0  0
   10.5974   -0.0028    0.0000 H   0  0  0  0  0  0  0  0  0  0  0  0
    4.1756   -2.2876    0.0000 H   0  0  0  0  0  0  0  0  0  0  0  0
    5.8392   -2.6574    0.0000 H   0  0  0  0  0  0  0  0  0  0  0  0
    6.3920   -2.0386    0.0000 H   0  0  0  0  0  0  0  0  0  0  0  0
   12.8346    1.3434    0.0000 H   0  0  0  0  0  0  0  0  0  0  0  0
    9.0069   -0.8440    0.0000 H   0  0  0  0  0  0  0  0  0  0  0  0
    6.1948    0.7651    0.0000 H   0  0  0  0  0  0  0  0  0  0  0  0
    7.6071   -1.6594    0.0000 H   0  0  0  0  0  0  0  0  0  0  0  0
    4.3506   -3.7865    0.0000 H   0  0  0  0  0  0  0  0  0  0  0  0
    4.9936   -3.3155    0.0000 H   0  0  0  0  0  0  0  0  0  0  0  0
   12.8346    4.6527    0.0000 H   0  0  0  0  0  0  0  0  0  0  0  0
   13.9768    1.1057    0.0000 H   0  0  0  0  0  0  0  0  0  0  0  0
   14.3753    0.4154    0.0000 H   0  0  0  0  0  0  0  0  0  0  0  0
   15.9903    2.1880    0.0000 H   0  0  0  0  0  0  0  0  0  0  0  0
    3.0310   -2.7760    0.0000 H   0  0  0  0  0  0  0  0  0  0  0  0
   15.1434   -0.0389    0.0000 H   0  0  0  0  0  0  0  0  0  0  0  0
   15.9903    0.1880    0.0000 H   0  0  0  0  0  0  0  0  0  0  0  0
   15.7634    1.0350    0.0000 H   0  0  0  0  0  0  0  0  0  0  0  0
    1.9328   -3.6833    0.0000 H   0  0  0  0  0  0  0  0  0  0  0  0
    1.3836   -4.3668    0.0000 H   0  0  0  0  0  0  0  0  0  0  0  0
    2.0672   -4.9160    0.0000 H   0  0  0  0  0  0  0  0  0  0  0  0
   17.7224    3.8080    0.0000 H   0  0  0  0  0  0  0  0  0  0  0  0
  1 25  1  0  0  0  0
  2 27  1  0  0  0  0
  3 20  1  0  0  0  0
  3 33  1  0  0  0  0
  4 33  2  0  0  0  0
  5 34  2  0  0  0  0
  6 39  1  0  0  0  0
  6 70  1  0  0  0  0
  7 39  2  0  0  0  0
  8 40  2  0  0  0  0
  9 14  1  0  0  0  0
  9 15  1  0  0  0  0
  9 18  1  0  0  0  0
 10 16  1  0  0  0  0
 10 17  1  0  0  0  0
 10 19  1  0  0  0  0
 11 21  1  0  0  0  0
 11 23  1  0  0  0  0
 11 33  1  0  0  0  0
 12 24  1  0  0  0  0
 12 35  1  0  0  0  0
 12 36  1  0  0  0  0
 13 31  1  0  0  0  0
 13 40  1  0  0  0  0
 13 63  1  0  0  0  0
 14 16  1  0  0  0  0
 14 42  1  0  0  0  0
 14 43  1  0  0  0  0
 15 17  1  0  0  0  0
 15 44  1  0  0  0  0
 15 45  1  0  0  0  0
 16 46  1  0  0  0  0
 16 47  1  0  0  0  0
 17 48  1  0  0  0  0
 17 49  1  0  0  0  0
 18 22  1  0  0  0  0
 18 27  2  0  0  0  0
 19 25  2  0  0  0  0
 19 26  1  0  0  0  0
 20 21  1  0  0  0  0
 20 31  1  6  0  0  0
 20 50  1  0  0  0  0
 21 51  1  0  0  0  0
 21 52  1  0  0  0  0
 22 24  2  0  0  0  0
 22 53  1  0  0  0  0
 23 29  2  0  0  0  0
 23 30  1  0  0  0  0
 24 28  1  0  0  0  0
 25 29  1  0  0  0  0
 26 30  2  0  0  0  0
 26 54  1  0  0  0  0
 27 32  1  0  0  0  0
 28 32  2  0  0  0  0
 28 34  1  0  0  0  0
 29 55  1  0  0  0  0
 30 56  1  0  0  0  0
 31 57  1  0  0  0  0
 31 58  1  0  0  0  0
 32 59  1  0  0  0  0
 34 37  1  0  0  0  0
 35 38  1  0  0  0  0
 35 60  1  0  0  0  0
 35 61  1  0  0  0  0
 36 37  2  0  0  0  0
 36 62  1  0  0  0  0
 37 39  1  0  0  0  0
 38 64  1  0  0  0  0
 38 65  1  0  0  0  0
 38 66  1  0  0  0  0
 40 41  1  0  0  0  0
 41 67  1  0  0  0  0
 41 68  1  0  0  0  0
 41 69  1  0  0  0  0
M  END
> <PUBCHEM_COMPOUND_CID>
504416
> <PUBCHEM_COMPOUND_CANONICALIZED>
1
> <PUBCHEM_CACTVS_COMPLEXITY>
1070
> <PUBCHEM_CACTVS_HBOND_ACCEPTOR>
11
> <PUBCHEM_CACTVS_HBOND_DONOR>
2
> <PUBCHEM_CACTVS_ROTATABLE_BOND>
7
> <PUBCHEM_CACTVS_SUBSKEYS>
AAADceB7uYAAAAAAAAAAAAAAAAAAAWAAAAA8YIEAAAAAAACBQAAAHwAQCAAADBzhmA4yyIPABgCIAqXWWACCAAAlAgAIiIEIZMgKZD7I1dGdYYhktgDY2ceY2aOeCACAAAQCAAAQAQAACAQAAAAAAAAAAA==
> <PUBCHEM_IUPAC_OPENEYE_NAME>
7-[4-[4-[(5S)-5-(acetamidomethyl)-2-oxo-oxazolidin-3-yl]-2-fluoro-phenyl]piperazin-1-yl]-1-ethyl-6-fluoro-4-oxo-quinoline-3-carboxylic acid
> <PUBCHEM_IUPAC_CAS_NAME>
7-[4-[4-[(5S)-5-(acetamidomethyl)-2-oxo-3-oxazolidinyl]-2-fluorophenyl]-1-piperazinyl]-1-ethyl-6-fluoro-4-oxo-3-quinolinecarboxylic acid
> <PUBCHEM_IUPAC_NAME_MARKUP>
7-[4-[4-[(5<I>S</I>)-5-(acetamidomethyl)-2-oxo-1,3-oxazolidin-3-yl]-2-fluorophenyl]piperazin-1-yl]-1-ethyl-6-fluoro-4-oxoquinoline-3-carboxylic acid
> <PUBCHEM_IUPAC_NAME>
7-[4-[4-[(5S)-5-(acetamidomethyl)-2-oxo-1,3-oxazolidin-3-yl]-2-fluorophenyl]piperazin-1-yl]-1-ethyl-6-fluoro-4-oxoquinoline-3-carboxylic acid
> <PUBCHEM_IUPAC_SYSTEMATIC_NAME>
7-[4-[4-[(5S)-5-(acetamidomethyl)-2-oxidanylidene-1,3-oxazolidin-3-yl]-2-fluoranyl-phenyl]piperazin-1-yl]-1-ethyl-6-fluoranyl-4-oxidanylidene-quinoline-3-carboxylic acid
> <PUBCHEM_IUPAC_TRADITIONAL_NAME>
7-[4-[4-[(5S)-5-(acetamidomethyl)-2-keto-oxazolidin-3-yl]-2-fluoro-phenyl]piperazino]-1-ethyl-6-fluoro-4-keto-quinoline-3-carboxylic acid
> <PUBCHEM_IUPAC_INCHI>
InChI=1S/C28H29F2N5O6/c1-3-32-15-20(27(38)39)26(37)19-11-22(30)25(12-24(19)32)34-8-6-33(7-9-34)23-5-4-17(10-21(23)29)35-14-18(41-28(35)40)13-31-16(2)36/h4-5,10-12,15,18H,3,6-9,13-14H2,1-2H3,(H,31,36)(H,38,39)/t18-/m0/s1
> <PUBCHEM_IUPAC_INCHIKEY>
UYCCIBVKAOYNFS-SFHVURJKSA-N
> <PUBCHEM_XLOGP3_AA>
3.2
> <PUBCHEM_EXACT_MASS>
569.20858999
> <PUBCHEM_MOLECULAR_FORMULA>
C28H29F2N5O6
> <PUBCHEM_MOLECULAR_WEIGHT>
569.6
> <PUBCHEM_OPENEYE_CAN_SMILES>
CCN1C=C(C(=O)C2=CC(=C(C=C21)N3CCN(CC3)C4=C(C=C(C=C4)N5CC(OC5=O)CNC(=O)C)F)F)C(=O)O
> <PUBCHEM_OPENEYE_ISO_SMILES>
CCN1C=C(C(=O)C2=CC(=C(C=C21)N3CCN(CC3)C4=C(C=C(C=C4)N5C[C@@H](OC5=O)CNC(=O)C)F)F)C(=O)O
> <PUBCHEM_CACTVS_TPSA>
123
> <PUBCHEM_MONOISOTOPIC_WEIGHT>
569.20858999
> <PUBCHEM_TOTAL_CHARGE>
0
> <PUBCHEM_HEAVY_ATOM_COUNT>
41
> <PUBCHEM_ATOM_DEF_STEREO_COUNT>
1
> <PUBCHEM_ATOM_UDEF_STEREO_COUNT>
0
> <PUBCHEM_BOND_DEF_STEREO_COUNT>
0
> <PUBCHEM_BOND_UDEF_STEREO_COUNT>
0
> <PUBCHEM_ISOTOPIC_ATOM_COUNT>
0
> <PUBCHEM_COMPONENT_COUNT>
1
> <PUBCHEM_CACTVS_TAUTO_COUNT>
-1
> <PUBCHEM_COORDINATE_TYPE>
1
5
255
> <PUBCHEM_BONDANNOTATIONS>
12  24  8
12  36  8
18  22  8
18  27  8
19  25  8
19  26  8
20  31  6
22  24  8
23  29  8
23  30  8
24  28  8
25  29  8
26  30  8
27  32  8
28  32  8
28  34  8
34  37  8
36  37  8
$$$$
