504419
  -OEChem-10302200282D
 72 77  0     1  0  0  0  0  0999 V2000
   13.6755    1.0538    0.0000 F   0  0  0  0  0  0  0  0  0  0  0  0
   10.2114    3.0538    0.0000 F   0  0  0  0  0  0  0  0  0  0  0  0
   11.9500   -1.9410    0.0000 O   0  0  0  0  0  0  0  0  0  0  0  0
    5.6646    4.2562    0.0000 O   0  0  0  0  0  0  0  0  0  0  0  0
   16.3117   -1.4430    0.0000 O   0  0  0  0  0  0  0  0  0  0  0  0
    7.3859    4.7175    0.0000 O   0  0  0  0  0  0  0  0  0  0  0  0
   16.3314   -4.4913    0.0000 O   0  0  0  0  0  0  0  0  0  0  0  0
   17.1916   -2.9880    0.0000 O   0  0  0  0  0  0  0  0  0  0  0  0
    2.1810    3.0766    0.0000 O   0  0  0  0  0  0  0  0  0  0  0  0
   11.9434    0.0538    0.0000 N   0  0  0  0  0  0  0  0  0  0  0  0
   10.2114    1.0538    0.0000 N   0  0  0  0  0  0  0  0  0  0  0  0
   13.6594   -2.9877    0.0000 N   0  0  0  0  0  0  0  0  0  0  0  0
    6.7473    3.0538    0.0000 N   0  0  0  0  0  0  0  0  0  0  0  0
    3.5823    4.0947    0.0000 N   0  0  0  0  0  0  0  0  0  0  0  0
   11.9434    1.0538    0.0000 C   0  0  0  0  0  0  0  0  0  0  0  0
   11.0774   -0.4462    0.0000 C   0  0  0  0  0  0  0  0  0  0  0  0
   11.0774    1.5538    0.0000 C   0  0  0  0  0  0  0  0  0  0  0  0
   10.2114    0.0538    0.0000 C   0  0  0  0  0  0  0  0  0  0  0  0
   12.8095   -0.4462    0.0000 C   0  0  0  0  0  0  0  0  0  0  0  0
   12.7823   -3.4504    0.0000 C   0  0  3  0  0  0  0  0  0  0  0  0
   13.6755   -1.9462    0.0000 C   0  0  0  0  0  0  0  0  0  0  0  0
   12.8095   -1.4462    0.0000 C   0  0  0  0  0  0  0  0  0  0  0  0
   11.9366   -2.9326    0.0000 C   0  0  0  0  0  0  0  0  0  0  0  0
   14.5415   -1.4462    0.0000 C   0  0  0  0  0  0  0  0  0  0  0  0
    9.3454    1.5538    0.0000 C   0  0  0  0  0  0  0  0  0  0  0  0
   13.6755    0.0538    0.0000 C   0  0  0  0  0  0  0  0  0  0  0  0
   14.5415   -0.4462    0.0000 C   0  0  0  0  0  0  0  0  0  0  0  0
   14.5575   -3.5154    0.0000 C   0  0  0  0  0  0  0  0  0  0  0  0
   12.7503   -4.4499    0.0000 C   0  0  0  0  0  0  0  0  0  0  0  0
   15.4515   -1.9530    0.0000 C   0  0  0  0  0  0  0  0  0  0  0  0
   15.4595   -2.9946    0.0000 C   0  0  0  0  0  0  0  0  0  0  0  0
    9.3454    2.5538    0.0000 C   0  0  0  0  0  0  0  0  0  0  0  0
    8.4793    1.0538    0.0000 C   0  0  0  0  0  0  0  0  0  0  0  0
    5.8338    2.6471    0.0000 C   0  0  0  0  0  0  0  0  0  0  0  0
    5.1646    3.3902    0.0000 C   0  0  2  0  0  0  0  0  0  0  0  0
    7.6133    2.5538    0.0000 C   0  0  0  0  0  0  0  0  0  0  0  0
    8.4793    3.0538    0.0000 C   0  0  0  0  0  0  0  0  0  0  0  0
    7.6133    1.5538    0.0000 C   0  0  0  0  0  0  0  0  0  0  0  0
    4.1701    3.2857    0.0000 C   0  0  0  0  0  0  0  0  0  0  0  0
    6.6428    4.0483    0.0000 C   0  0  0  0  0  0  0  0  0  0  0  0
   16.3275   -3.4913    0.0000 C   0  0  0  0  0  0  0  0  0  0  0  0
    2.5878    3.9902    0.0000 C   0  0  0  0  0  0  0  0  0  0  0  0
    2.0000    4.7992    0.0000 C   0  0  0  0  0  0  0  0  0  0  0  0
   12.5540    0.9462    0.0000 H   0  0  0  0  0  0  0  0  0  0  0  0
   12.1555    1.6364    0.0000 H   0  0  0  0  0  0  0  0  0  0  0  0
   10.6789   -0.9211    0.0000 H   0  0  0  0  0  0  0  0  0  0  0  0
   11.4759   -0.9211    0.0000 H   0  0  0  0  0  0  0  0  0  0  0  0
   11.4759    2.0288    0.0000 H   0  0  0  0  0  0  0  0  0  0  0  0
   10.6789    2.0288    0.0000 H   0  0  0  0  0  0  0  0  0  0  0  0
    9.6008    0.1615    0.0000 H   0  0  0  0  0  0  0  0  0  0  0  0
    9.9993   -0.5288    0.0000 H   0  0  0  0  0  0  0  0  0  0  0  0
   13.3081   -3.7791    0.0000 H   0  0  0  0  0  0  0  0  0  0  0  0
   11.3280   -2.8142    0.0000 H   0  0  0  0  0  0  0  0  0  0  0  0
   11.7119   -3.5104    0.0000 H   0  0  0  0  0  0  0  0  0  0  0  0
   15.0785   -0.1362    0.0000 H   0  0  0  0  0  0  0  0  0  0  0  0
   14.5551   -4.1354    0.0000 H   0  0  0  0  0  0  0  0  0  0  0  0
   12.1307   -4.4301    0.0000 H   0  0  0  0  0  0  0  0  0  0  0  0
   12.7305   -5.0696    0.0000 H   0  0  0  0  0  0  0  0  0  0  0  0
   13.3700   -4.4698    0.0000 H   0  0  0  0  0  0  0  0  0  0  0  0
    8.4793    0.4338    0.0000 H   0  0  0  0  0  0  0  0  0  0  0  0
    5.3322    2.2827    0.0000 H   0  0  0  0  0  0  0  0  0  0  0  0
    6.1437    2.1102    0.0000 H   0  0  0  0  0  0  0  0  0  0  0  0
    4.8269    3.9102    0.0000 H   0  0  0  0  0  0  0  0  0  0  0  0
    8.4793    3.6738    0.0000 H   0  0  0  0  0  0  0  0  0  0  0  0
    7.0764    1.2438    0.0000 H   0  0  0  0  0  0  0  0  0  0  0  0
    3.6128    3.0139    0.0000 H   0  0  0  0  0  0  0  0  0  0  0  0
    4.3410    2.6897    0.0000 H   0  0  0  0  0  0  0  0  0  0  0  0
    3.8345    4.6611    0.0000 H   0  0  0  0  0  0  0  0  0  0  0  0
   16.8695   -4.7992    0.0000 H   0  0  0  0  0  0  0  0  0  0  0  0
    2.5016    5.1636    0.0000 H   0  0  0  0  0  0  0  0  0  0  0  0
    1.6356    5.3008    0.0000 H   0  0  0  0  0  0  0  0  0  0  0  0
    1.4984    4.4348    0.0000 H   0  0  0  0  0  0  0  0  0  0  0  0
  1 26  1  0  0  0  0
  2 32  1  0  0  0  0
  3 22  1  0  0  0  0
  3 23  1  0  0  0  0
  4 35  1  0  0  0  0
  4 40  1  0  0  0  0
  5 30  2  0  0  0  0
  6 40  2  0  0  0  0
  7 41  1  0  0  0  0
  7 69  1  0  0  0  0
  8 41  2  0  0  0  0
  9 42  2  0  0  0  0
 10 15  1  0  0  0  0
 10 16  1  0  0  0  0
 10 19  1  0  0  0  0
 11 17  1  0  0  0  0
 11 18  1  0  0  0  0
 11 25  1  0  0  0  0
 12 20  1  0  0  0  0
 12 21  1  0  0  0  0
 12 28  1  0  0  0  0
 13 34  1  0  0  0  0
 13 36  1  0  0  0  0
 13 40  1  0  0  0  0
 14 39  1  0  0  0  0
 14 42  1  0  0  0  0
 14 68  1  0  0  0  0
 15 17  1  0  0  0  0
 15 44  1  0  0  0  0
 15 45  1  0  0  0  0
 16 18  1  0  0  0  0
 16 46  1  0  0  0  0
 16 47  1  0  0  0  0
 17 48  1  0  0  0  0
 17 49  1  0  0  0  0
 18 50  1  0  0  0  0
 18 51  1  0  0  0  0
 19 22  1  0  0  0  0
 19 26  2  0  0  0  0
 20 23  1  0  0  0  0
 20 29  1  0  0  0  0
 20 52  1  0  0  0  0
 21 22  2  0  0  0  0
 21 24  1  0  0  0  0
 23 53  1  0  0  0  0
 23 54  1  0  0  0  0
 24 27  2  0  0  0  0
 24 30  1  0  0  0  0
 25 32  2  0  0  0  0
 25 33  1  0  0  0  0
 26 27  1  0  0  0  0
 27 55  1  0  0  0  0
 28 31  2  0  0  0  0
 28 56  1  0  0  0  0
 29 57  1  0  0  0  0
 29 58  1  0  0  0  0
 29 59  1  0  0  0  0
 30 31  1  0  0  0  0
 31 41  1  0  0  0  0
 32 37  1  0  0  0  0
 33 38  2  0  0  0  0
 33 60  1  0  0  0  0
 34 35  1  0  0  0  0
 34 61  1  0  0  0  0
 34 62  1  0  0  0  0
 35 39  1  6  0  0  0
 35 63  1  0  0  0  0
 36 37  2  0  0  0  0
 36 38  1  0  0  0  0
 37 64  1  0  0  0  0
 38 65  1  0  0  0  0
 39 66  1  0  0  0  0
 39 67  1  0  0  0  0
 42 43  1  0  0  0  0
 43 70  1  0  0  0  0
 43 71  1  0  0  0  0
 43 72  1  0  0  0  0
M  END
> <PUBCHEM_COMPOUND_CID>
504419
> <PUBCHEM_COMPOUND_CANONICALIZED>
1
> <PUBCHEM_CACTVS_COMPLEXITY>
1170
> <PUBCHEM_CACTVS_HBOND_ACCEPTOR>
12
> <PUBCHEM_CACTVS_HBOND_DONOR>
2
> <PUBCHEM_CACTVS_ROTATABLE_BOND>
6
> <PUBCHEM_CACTVS_SUBSKEYS>
AAADceB7uYAAAAAAAAAAAAAAAAAAAWAAAAA8eIECAAAAAACxQAAAHwAQCAAADDzhmA4yzoPABgCIAqXWWACCCAAlIgAIiIENbMgOZj7M9dufeajk9hHY+cea2bOeCACBAAQCEAAQAQIACAQgAAAAAAAAAA==
> <PUBCHEM_IUPAC_OPENEYE_NAME>
6-[4-[4-[(5S)-5-(acetamidomethyl)-2-oxo-oxazolidin-3-yl]-2-fluoro-phenyl]piperazin-1-yl]-7-fluoro-2-methyl-10-oxo-4-oxa-1-azatricyclo[7.3.1.05,13]trideca-5(13),6,8,11-tetraene-11-carboxylic acid
> <PUBCHEM_IUPAC_CAS_NAME>
6-[4-[4-[(5S)-5-(acetamidomethyl)-2-oxo-3-oxazolidinyl]-2-fluorophenyl]-1-piperazinyl]-7-fluoro-2-methyl-10-oxo-4-oxa-1-azatricyclo[7.3.1.05,13]trideca-5(13),6,8,11-tetraene-11-carboxylic acid
> <PUBCHEM_IUPAC_NAME_MARKUP>
6-[4-[4-[(5<I>S</I>)-5-(acetamidomethyl)-2-oxo-1,3-oxazolidin-3-yl]-2-fluorophenyl]piperazin-1-yl]-7-fluoro-2-methyl-10-oxo-4-oxa-1-azatricyclo[7.3.1.0<SUP>5,13</SUP>]trideca-5(13),6,8,11-tetraene-11-carboxylic acid
> <PUBCHEM_IUPAC_NAME>
6-[4-[4-[(5S)-5-(acetamidomethyl)-2-oxo-1,3-oxazolidin-3-yl]-2-fluorophenyl]piperazin-1-yl]-7-fluoro-2-methyl-10-oxo-4-oxa-1-azatricyclo[7.3.1.05,13]trideca-5(13),6,8,11-tetraene-11-carboxylic acid
> <PUBCHEM_IUPAC_SYSTEMATIC_NAME>
6-[4-[4-[(5S)-5-(acetamidomethyl)-2-oxidanylidene-1,3-oxazolidin-3-yl]-2-fluoranyl-phenyl]piperazin-1-yl]-7-fluoranyl-2-methyl-10-oxidanylidene-4-oxa-1-azatricyclo[7.3.1.05,13]trideca-5(13),6,8,11-tetraene-11-carboxylic acid
> <PUBCHEM_IUPAC_TRADITIONAL_NAME>
6-[4-[4-[(5S)-5-(acetamidomethyl)-2-keto-oxazolidin-3-yl]-2-fluoro-phenyl]piperazino]-7-fluoro-10-keto-2-methyl-4-oxa-1-azatricyclo[7.3.1.05,13]trideca-5(13),6,8,11-tetraene-11-carboxylic acid
> <PUBCHEM_IUPAC_INCHI>
InChI=1S/C29H29F2N5O7/c1-15-14-42-27-24-19(26(38)20(28(39)40)13-35(15)24)10-22(31)25(27)34-7-5-33(6-8-34)23-4-3-17(9-21(23)30)36-12-18(43-29(36)41)11-32-16(2)37/h3-4,9-10,13,15,18H,5-8,11-12,14H2,1-2H3,(H,32,37)(H,39,40)/t15?,18-/m0/s1
> <PUBCHEM_IUPAC_INCHIKEY>
SKQNBBKLALGGCZ-PKHIMPSTSA-N
> <PUBCHEM_XLOGP3>
2.7
> <PUBCHEM_EXACT_MASS>
597.20350461
> <PUBCHEM_MOLECULAR_FORMULA>
C29H29F2N5O7
> <PUBCHEM_MOLECULAR_WEIGHT>
597.6
> <PUBCHEM_OPENEYE_CAN_SMILES>
CC1COC2=C3N1C=C(C(=O)C3=CC(=C2N4CCN(CC4)C5=C(C=C(C=C5)N6CC(OC6=O)CNC(=O)C)F)F)C(=O)O
> <PUBCHEM_OPENEYE_ISO_SMILES>
CC1COC2=C3N1C=C(C(=O)C3=CC(=C2N4CCN(CC4)C5=C(C=C(C=C5)N6C[C@@H](OC6=O)CNC(=O)C)F)F)C(=O)O
> <PUBCHEM_CACTVS_TPSA>
132
> <PUBCHEM_MONOISOTOPIC_WEIGHT>
597.20350461
> <PUBCHEM_TOTAL_CHARGE>
0
> <PUBCHEM_HEAVY_ATOM_COUNT>
43
> <PUBCHEM_ATOM_DEF_STEREO_COUNT>
1
> <PUBCHEM_ATOM_UDEF_STEREO_COUNT>
1
> <PUBCHEM_BOND_DEF_STEREO_COUNT>
0
> <PUBCHEM_BOND_UDEF_STEREO_COUNT>
0
> <PUBCHEM_ISOTOPIC_ATOM_COUNT>
0
> <PUBCHEM_COMPONENT_COUNT>
1
> <PUBCHEM_CACTVS_TAUTO_COUNT>
-1
> <PUBCHEM_COORDINATE_TYPE>
1
5
255
> <PUBCHEM_BONDANNOTATIONS>
12  21  8
12  28  8
19  22  8
19  26  8
20  29  3
21  22  8
21  24  8
24  27  8
24  30  8
25  32  8
25  33  8
26  27  8
28  31  8
30  31  8
32  37  8
33  38  8
35  39  6
36  37  8
36  38  8
$$$$
