504412
  -OEChem-10302200282D
107111  0     1  0  0  0  0  0999 V2000
    7.2641    1.4756    0.0000 O   0  0  0  0  0  0  0  0  0  0  0  0
   11.2951   -0.0653    0.0000 O   0  0  0  0  0  0  0  0  0  0  0  0
   10.6141   -1.2449    0.0000 O   0  0  0  0  0  0  0  0  0  0  0  0
    6.3981   -0.0244    0.0000 O   0  0  0  0  0  0  0  0  0  0  0  0
   11.9275    3.4844    0.0000 O   0  0  0  0  0  0  0  0  0  0  0  0
    7.8562   -3.5674    0.0000 O   0  0  0  0  0  0  0  0  0  0  0  0
   10.2520   -4.6900    0.0000 O   0  0  0  0  0  0  0  0  0  0  0  0
   15.4989    2.9890    0.0000 O   0  0  0  0  0  0  0  0  0  0  0  0
    9.7128    0.6392    0.0000 N   0  0  0  0  0  0  0  0  0  0  0  0
    9.0318   -1.9494    0.0000 N   0  0  0  0  0  0  0  0  0  0  0  0
   12.1086    1.7618    0.0000 N   0  0  0  0  0  0  0  0  0  0  0  0
    5.5321    1.4756    0.0000 N   0  0  0  0  0  0  0  0  0  0  0  0
    8.6697   -5.3945    0.0000 N   0  0  0  0  0  0  0  0  0  0  0  0
   13.9166    3.6934    0.0000 N   0  0  0  0  0  0  0  0  0  0  0  0
   16.3124    4.8160    0.0000 N   0  0  0  0  0  0  0  0  0  0  0  0
   15.1368    6.4341    0.0000 N   0  0  0  0  0  0  0  0  0  0  0  0
    9.2128   -0.2268    0.0000 C   0  0  3  0  0  0  0  0  0  0  0  0
    8.2347   -0.0189    0.0000 C   0  0  0  0  0  0  0  0  0  0  0  0
    8.1301    0.9756    0.0000 C   0  0  2  0  0  0  0  0  0  0  0  0
    9.0437    1.3824    0.0000 C   0  0  0  0  0  0  0  0  0  0  0  0
   10.7073    0.7438    0.0000 C   0  0  0  0  0  0  0  0  0  0  0  0
   11.1141    1.6573    0.0000 C   0  0  2  0  0  0  0  0  0  0  0  0
    9.6196   -1.1404    0.0000 C   0  0  0  0  0  0  0  0  0  0  0  0
   10.5263    2.4663    0.0000 C   0  0  0  0  0  0  0  0  0  0  0  0
    9.4385   -2.8629    0.0000 C   0  0  1  0  0  0  0  0  0  0  0  0
    6.3981    0.9756    0.0000 C   0  0  0  0  0  0  0  0  0  0  0  0
   10.9330    3.3799    0.0000 C   0  0  0  0  0  0  0  0  0  0  0  0
    9.5318    2.3618    0.0000 C   0  0  0  0  0  0  0  0  0  0  0  0
   10.4330   -2.9674    0.0000 C   0  0  0  0  0  0  0  0  0  0  0  0
   12.5153    2.6754    0.0000 C   0  0  0  0  0  0  0  0  0  0  0  0
    8.8507   -3.6719    0.0000 C   0  0  0  0  0  0  0  0  0  0  0  0
   13.5099    2.7799    0.0000 C   0  0  2  0  0  0  0  0  0  0  0  0
    5.5321    2.4756    0.0000 C   0  0  0  0  0  0  0  0  0  0  0  0
    7.6820   -5.5509    0.0000 C   0  0  0  0  0  0  0  0  0  0  0  0
    8.8261   -6.3822    0.0000 C   0  0  0  0  0  0  0  0  0  0  0  0
    4.6660    0.9756    0.0000 C   0  0  0  0  0  0  0  0  0  0  0  0
    7.8384   -6.5386    0.0000 C   0  0  0  0  0  0  0  0  0  0  0  0
    9.2574   -4.5855    0.0000 C   0  0  0  0  0  0  0  0  0  0  0  0
   10.8398   -3.8810    0.0000 C   0  0  0  0  0  0  0  0  0  0  0  0
    4.6660    2.9756    0.0000 C   0  0  0  0  0  0  0  0  0  0  0  0
   14.0976    1.9709    0.0000 C   0  0  0  0  0  0  0  0  0  0  0  0
    3.8000    1.4756    0.0000 C   0  0  0  0  0  0  0  0  0  0  0  0
    3.8000    2.4756    0.0000 C   0  0  0  0  0  0  0  0  0  0  0  0
   11.8343   -3.9855    0.0000 C   0  0  0  0  0  0  0  0  0  0  0  0
   15.0922    2.0754    0.0000 C   0  0  0  0  0  0  0  0  0  0  0  0
   13.6909    1.0573    0.0000 C   0  0  0  0  0  0  0  0  0  0  0  0
    2.9061    0.9410    0.0000 C   0  0  0  0  0  0  0  0  0  0  0  0
    2.9061    3.0103    0.0000 C   0  0  0  0  0  0  0  0  0  0  0  0
    2.0000    1.4548    0.0000 C   0  0  0  0  0  0  0  0  0  0  0  0
    2.0000    2.4964    0.0000 C   0  0  0  0  0  0  0  0  0  0  0  0
   14.9111    3.7980    0.0000 C   0  0  0  0  0  0  0  0  0  0  0  0
   15.3178    4.7115    0.0000 C   0  0  0  0  0  0  0  0  0  0  0  0
   14.7301    5.5205    0.0000 C   0  0  0  0  0  0  0  0  0  0  0  0
   16.7191    5.7296    0.0000 C   0  0  0  0  0  0  0  0  0  0  0  0
   16.1313    6.5386    0.0000 C   0  0  0  0  0  0  0  0  0  0  0  0
    9.8320   -0.2592    0.0000 H   0  0  0  0  0  0  0  0  0  0  0  0
    7.6147   -0.0189    0.0000 H   0  0  0  0  0  0  0  0  0  0  0  0
    8.1699   -0.6355    0.0000 H   0  0  0  0  0  0  0  0  0  0  0  0
    7.6102    0.6380    0.0000 H   0  0  0  0  0  0  0  0  0  0  0  0
    9.5453    1.7468    0.0000 H   0  0  0  0  0  0  0  0  0  0  0  0
    8.7337    1.9193    0.0000 H   0  0  0  0  0  0  0  0  0  0  0  0
   11.4785    1.1557    0.0000 H   0  0  0  0  0  0  0  0  0  0  0  0
   10.2741    1.8999    0.0000 H   0  0  0  0  0  0  0  0  0  0  0  0
    8.4152   -1.8846    0.0000 H   0  0  0  0  0  0  0  0  0  0  0  0
    9.8029   -2.3613    0.0000 H   0  0  0  0  0  0  0  0  0  0  0  0
   12.4730    1.2602    0.0000 H   0  0  0  0  0  0  0  0  0  0  0  0
   11.4994    3.1277    0.0000 H   0  0  0  0  0  0  0  0  0  0  0  0
   11.1852    3.9463    0.0000 H   0  0  0  0  0  0  0  0  0  0  0  0
   10.3666    3.6320    0.0000 H   0  0  0  0  0  0  0  0  0  0  0  0
    9.4670    2.9784    0.0000 H   0  0  0  0  0  0  0  0  0  0  0  0
    8.9152    2.2970    0.0000 H   0  0  0  0  0  0  0  0  0  0  0  0
    9.5966    1.7452    0.0000 H   0  0  0  0  0  0  0  0  0  0  0  0
   11.0346   -2.8174    0.0000 H   0  0  0  0  0  0  0  0  0  0  0  0
   10.3898   -2.3490    0.0000 H   0  0  0  0  0  0  0  0  0  0  0  0
   13.1454    3.2815    0.0000 H   0  0  0  0  0  0  0  0  0  0  0  0
    6.1426    2.3680    0.0000 H   0  0  0  0  0  0  0  0  0  0  0  0
    5.7441    3.0582    0.0000 H   0  0  0  0  0  0  0  0  0  0  0  0
    7.5850   -4.9386    0.0000 H   0  0  0  0  0  0  0  0  0  0  0  0
    7.0696   -5.6479    0.0000 H   0  0  0  0  0  0  0  0  0  0  0  0
    8.9231   -6.9945    0.0000 H   0  0  0  0  0  0  0  0  0  0  0  0
    9.4385   -6.2852    0.0000 H   0  0  0  0  0  0  0  0  0  0  0  0
    4.2675    0.5007    0.0000 H   0  0  0  0  0  0  0  0  0  0  0  0
    5.0646    0.5007    0.0000 H   0  0  0  0  0  0  0  0  0  0  0  0
    7.2260   -6.6356    0.0000 H   0  0  0  0  0  0  0  0  0  0  0  0
    7.9354   -7.1510    0.0000 H   0  0  0  0  0  0  0  0  0  0  0  0
   10.2382   -4.0310    0.0000 H   0  0  0  0  0  0  0  0  0  0  0  0
   10.8830   -4.4995    0.0000 H   0  0  0  0  0  0  0  0  0  0  0  0
    5.0646    3.4506    0.0000 H   0  0  0  0  0  0  0  0  0  0  0  0
    4.2675    3.4506    0.0000 H   0  0  0  0  0  0  0  0  0  0  0  0
   14.3498    2.5373    0.0000 H   0  0  0  0  0  0  0  0  0  0  0  0
   13.5522    4.1950    0.0000 H   0  0  0  0  0  0  0  0  0  0  0  0
   11.7695   -4.6021    0.0000 H   0  0  0  0  0  0  0  0  0  0  0  0
   12.4509   -4.0503    0.0000 H   0  0  0  0  0  0  0  0  0  0  0  0
   11.8991   -3.3689    0.0000 H   0  0  0  0  0  0  0  0  0  0  0  0
   15.1570    1.4588    0.0000 H   0  0  0  0  0  0  0  0  0  0  0  0
   15.7088    2.1402    0.0000 H   0  0  0  0  0  0  0  0  0  0  0  0
   15.0274    2.6920    0.0000 H   0  0  0  0  0  0  0  0  0  0  0  0
   13.1245    1.3095    0.0000 H   0  0  0  0  0  0  0  0  0  0  0  0
   13.4387    0.4909    0.0000 H   0  0  0  0  0  0  0  0  0  0  0  0
   14.2573    0.8052    0.0000 H   0  0  0  0  0  0  0  0  0  0  0  0
    2.9132    0.3210    0.0000 H   0  0  0  0  0  0  0  0  0  0  0  0
    2.9132    3.6302    0.0000 H   0  0  0  0  0  0  0  0  0  0  0  0
    1.4643    1.1428    0.0000 H   0  0  0  0  0  0  0  0  0  0  0  0
    1.4643    2.8085    0.0000 H   0  0  0  0  0  0  0  0  0  0  0  0
   14.1135    5.4557    0.0000 H   0  0  0  0  0  0  0  0  0  0  0  0
   17.3357    5.7944    0.0000 H   0  0  0  0  0  0  0  0  0  0  0  0
   16.3835    7.1050    0.0000 H   0  0  0  0  0  0  0  0  0  0  0  0
 19  1  1  1  0  0  0
  1 26  1  0  0  0  0
  2 21  2  0  0  0  0
  3 23  2  0  0  0  0
  4 26  2  0  0  0  0
  5 30  2  0  0  0  0
  6 31  2  0  0  0  0
  7 38  2  0  0  0  0
  8 51  2  0  0  0  0
  9 17  1  0  0  0  0
  9 20  1  0  0  0  0
  9 21  1  0  0  0  0
 10 23  1  0  0  0  0
 25 10  1  1  0  0  0
 10 64  1  0  0  0  0
 22 11  1  6  0  0  0
 11 30  1  0  0  0  0
 11 66  1  0  0  0  0
 12 26  1  0  0  0  0
 12 33  1  0  0  0  0
 12 36  1  0  0  0  0
 13 34  1  0  0  0  0
 13 35  1  0  0  0  0
 13 38  1  0  0  0  0
 32 14  1  1  0  0  0
 14 51  1  0  0  0  0
 14 91  1  0  0  0  0
 15 52  2  0  0  0  0
 15 54  1  0  0  0  0
 16 53  2  0  0  0  0
 16 55  1  0  0  0  0
 17 18  1  0  0  0  0
 17 23  1  0  0  0  0
 17 56  1  0  0  0  0
 18 19  1  0  0  0  0
 18 57  1  0  0  0  0
 18 58  1  0  0  0  0
 19 20  1  0  0  0  0
 19 59  1  0  0  0  0
 20 60  1  0  0  0  0
 20 61  1  0  0  0  0
 21 22  1  0  0  0  0
 22 24  1  0  0  0  0
 22 62  1  0  0  0  0
 24 27  1  0  0  0  0
 24 28  1  0  0  0  0
 24 63  1  0  0  0  0
 25 29  1  0  0  0  0
 25 31  1  0  0  0  0
 25 65  1  0  0  0  0
 27 67  1  0  0  0  0
 27 68  1  0  0  0  0
 27 69  1  0  0  0  0
 28 70  1  0  0  0  0
 28 71  1  0  0  0  0
 28 72  1  0  0  0  0
 29 39  1  0  0  0  0
 29 73  1  0  0  0  0
 29 74  1  0  0  0  0
 30 32  1  0  0  0  0
 31 38  1  0  0  0  0
 32 41  1  0  0  0  0
 32 75  1  0  0  0  0
 33 40  1  0  0  0  0
 33 76  1  0  0  0  0
 33 77  1  0  0  0  0
 34 37  1  0  0  0  0
 34 78  1  0  0  0  0
 34 79  1  0  0  0  0
 35 37  1  0  0  0  0
 35 80  1  0  0  0  0
 35 81  1  0  0  0  0
 36 42  1  0  0  0  0
 36 82  1  0  0  0  0
 36 83  1  0  0  0  0
 37 84  1  0  0  0  0
 37 85  1  0  0  0  0
 39 44  1  0  0  0  0
 39 86  1  0  0  0  0
 39 87  1  0  0  0  0
 40 43  1  0  0  0  0
 40 88  1  0  0  0  0
 40 89  1  0  0  0  0
 41 45  1  0  0  0  0
 41 46  1  0  0  0  0
 41 90  1  0  0  0  0
 42 43  1  0  0  0  0
 42 47  2  0  0  0  0
 43 48  2  0  0  0  0
 44 92  1  0  0  0  0
 44 93  1  0  0  0  0
 44 94  1  0  0  0  0
 45 95  1  0  0  0  0
 45 96  1  0  0  0  0
 45 97  1  0  0  0  0
 46 98  1  0  0  0  0
 46 99  1  0  0  0  0
 46100  1  0  0  0  0
 47 49  1  0  0  0  0
 47101  1  0  0  0  0
 48 50  1  0  0  0  0
 48102  1  0  0  0  0
 49 50  2  0  0  0  0
 49103  1  0  0  0  0
 50104  1  0  0  0  0
 51 52  1  0  0  0  0
 52 53  1  0  0  0  0
 53105  1  0  0  0  0
 54 55  2  0  0  0  0
 54106  1  0  0  0  0
 55107  1  0  0  0  0
M  END
> <PUBCHEM_COMPOUND_CID>
504412
> <PUBCHEM_COMPOUND_CANONICALIZED>
1
> <PUBCHEM_CACTVS_COMPLEXITY>
1420
> <PUBCHEM_CACTVS_HBOND_ACCEPTOR>
10
> <PUBCHEM_CACTVS_HBOND_DONOR>
3
> <PUBCHEM_CACTVS_ROTATABLE_BOND>
15
> <PUBCHEM_CACTVS_SUBSKEYS>
AAADcfB//AAAAAAAAAAAAAAAAABYAWAAAAA8WIAAAAAAAACxwAAAHgAQAAAADTzhngY+iJPIFACoA7V3XACCgCQ3EiAI2IG4dMgKYHrA0TGdIIhmlgDYiMc6iYAOgAAAAAAQAAAAAAAAACAAAAAAAAAAAA==
> <PUBCHEM_IUPAC_OPENEYE_NAME>
[(3R)-5-[[(1S)-1-[2-(azetidin-1-yl)-2-oxo-acetyl]butyl]carbamoyl]-1-[(2S)-3-methyl-2-[[(2S)-3-methyl-2-(pyrazine-2-carbonylamino)butanoyl]amino]butanoyl]pyrrolidin-3-yl] 3,4-dihydro-1H-isoquinoline-2-carboxylate
> <PUBCHEM_IUPAC_CAS_NAME>
3,4-dihydro-1H-isoquinoline-2-carboxylic acid [(3R)-5-[[[(3S)-1-(1-azetidinyl)-1,2-dioxohexan-3-yl]amino]-oxomethyl]-1-[(2S)-3-methyl-2-[[(2S)-3-methyl-1-oxo-2-[[oxo(2-pyrazinyl)methyl]amino]butyl]amino]-1-oxobutyl]-3-pyrrolidinyl] ester
> <PUBCHEM_IUPAC_NAME_MARKUP>
[(3<I>R</I>)-5-[[(3<I>S</I>)-1-(azetidin-1-yl)-1,2-dioxohexan-3-yl]carbamoyl]-1-[(2<I>S</I>)-3-methyl-2-[[(2<I>S</I>)-3-methyl-2-(pyrazine-2-carbonylamino)butanoyl]amino]butanoyl]pyrrolidin-3-yl] 3,4-dihydro-1<I>H</I>-isoquinoline-2-carboxylate
> <PUBCHEM_IUPAC_NAME>
[(3R)-5-[[(3S)-1-(azetidin-1-yl)-1,2-dioxohexan-3-yl]carbamoyl]-1-[(2S)-3-methyl-2-[[(2S)-3-methyl-2-(pyrazine-2-carbonylamino)butanoyl]amino]butanoyl]pyrrolidin-3-yl] 3,4-dihydro-1H-isoquinoline-2-carboxylate
> <PUBCHEM_IUPAC_SYSTEMATIC_NAME>
[(3R)-5-[[(3S)-1-(azetidin-1-yl)-1,2-bis(oxidanylidene)hexan-3-yl]carbamoyl]-1-[(2S)-3-methyl-2-[[(2S)-3-methyl-2-(pyrazin-2-ylcarbonylamino)butanoyl]amino]butanoyl]pyrrolidin-3-yl] 3,4-dihydro-1H-isoquinoline-2-carboxylate
> <PUBCHEM_IUPAC_TRADITIONAL_NAME>
3,4-dihydro-1H-isoquinoline-2-carboxylic acid [(3R)-5-[[(1S)-1-[2-(azetidin-1-yl)-2-keto-acetyl]butyl]carbamoyl]-1-[(2S)-3-methyl-2-[[(2S)-3-methyl-2-(pyrazinoylamino)butanoyl]amino]butanoyl]pyrrolidin-3-yl] ester
> <PUBCHEM_IUPAC_INCHI>
InChI=1S/C39H52N8O8/c1-6-10-28(33(48)38(53)45-16-9-17-45)42-35(50)30-19-27(55-39(54)46-18-13-25-11-7-8-12-26(25)21-46)22-47(30)37(52)32(24(4)5)44-36(51)31(23(2)3)43-34(49)29-20-40-14-15-41-29/h7-8,11-12,14-15,20,23-24,27-28,30-32H,6,9-10,13,16-19,21-22H2,1-5H3,(H,42,50)(H,43,49)(H,44,51)/t27-,28+,30?,31+,32+/m1/s1
> <PUBCHEM_IUPAC_INCHIKEY>
UGSJFBAADOVVGL-HOGGARKNSA-N
> <PUBCHEM_XLOGP3_AA>
2.8
> <PUBCHEM_EXACT_MASS>
760.39081065
> <PUBCHEM_MOLECULAR_FORMULA>
C39H52N8O8
> <PUBCHEM_MOLECULAR_WEIGHT>
760.9
> <PUBCHEM_OPENEYE_CAN_SMILES>
CCCC(C(=O)C(=O)N1CCC1)NC(=O)C2CC(CN2C(=O)C(C(C)C)NC(=O)C(C(C)C)NC(=O)C3=NC=CN=C3)OC(=O)N4CCC5=CC=CC=C5C4
> <PUBCHEM_OPENEYE_ISO_SMILES>
CCC[C@@H](C(=O)C(=O)N1CCC1)NC(=O)C2C[C@H](CN2C(=O)[C@H](C(C)C)NC(=O)[C@H](C(C)C)NC(=O)C3=NC=CN=C3)OC(=O)N4CCC5=CC=CC=C5C4
> <PUBCHEM_CACTVS_TPSA>
200
> <PUBCHEM_MONOISOTOPIC_WEIGHT>
760.39081065
> <PUBCHEM_TOTAL_CHARGE>
0
> <PUBCHEM_HEAVY_ATOM_COUNT>
55
> <PUBCHEM_ATOM_DEF_STEREO_COUNT>
4
> <PUBCHEM_ATOM_UDEF_STEREO_COUNT>
1
> <PUBCHEM_BOND_DEF_STEREO_COUNT>
0
> <PUBCHEM_BOND_UDEF_STEREO_COUNT>
0
> <PUBCHEM_ISOTOPIC_ATOM_COUNT>
0
> <PUBCHEM_COMPONENT_COUNT>
1
> <PUBCHEM_CACTVS_TAUTO_COUNT>
-1
> <PUBCHEM_COORDINATE_TYPE>
1
5
255
> <PUBCHEM_BONDANNOTATIONS>
19  1  5
25  10  5
22  11  6
32  14  5
15  52  8
15  54  8
16  53  8
16  55  8
17  23  3
42  43  8
42  47  8
43  48  8
47  49  8
48  50  8
49  50  8
52  53  8
54  55  8
$$$$
