504421
  -OEChem-10302200282D
 76 81  0     1  0  0  0  0  0999 V2000
   12.4546    4.1847    0.0000 F   0  0  0  0  0  0  0  0  0  0  0  0
    8.9905    2.1231    0.0000 F   0  0  0  0  0  0  0  0  0  0  0  0
   15.9847    5.1606    0.0000 O   0  0  0  0  0  0  0  0  0  0  0  0
    5.6886   -1.2261    0.0000 O   0  0  0  0  0  0  0  0  0  0  0  0
   18.5828    3.6606    0.0000 O   0  0  0  0  0  0  0  0  0  0  0  0
   17.7167    5.1606    0.0000 O   0  0  0  0  0  0  0  0  0  0  0  0
    6.1432    0.4970    0.0000 O   0  0  0  0  0  0  0  0  0  0  0  0
    4.9823   -4.8355    0.0000 O   0  0  0  0  0  0  0  0  0  0  0  0
   15.9847    2.1606    0.0000 N   0  0  0  0  0  0  0  0  0  0  0  0
   12.4546    2.1364    0.0000 N   0  0  0  0  0  0  0  0  0  0  0  0
   10.7264    1.1298    0.0000 N   0  0  0  0  0  0  0  0  0  0  0  0
    7.2700   -0.8836    0.0000 N   0  0  0  0  0  0  0  0  0  0  0  0
    4.7946   -3.1136    0.0000 N   0  0  0  0  0  0  0  0  0  0  0  0
    3.3973   -4.1371    0.0000 N   0  0  0  0  0  0  0  0  0  0  0  0
   15.9847    1.1606    0.0000 C   0  0  0  0  0  0  0  0  0  0  0  0
   15.4847    0.2946    0.0000 C   0  0  0  0  0  0  0  0  0  0  0  0
   16.4847    0.2946    0.0000 C   0  0  0  0  0  0  0  0  0  0  0  0
   15.1187    2.6606    0.0000 C   0  0  0  0  0  0  0  0  0  0  0  0
   16.8507    2.6606    0.0000 C   0  0  0  0  0  0  0  0  0  0  0  0
   15.1187    3.6606    0.0000 C   0  0  0  0  0  0  0  0  0  0  0  0
   14.2247    2.1259    0.0000 C   0  0  0  0  0  0  0  0  0  0  0  0
   13.3186    2.6398    0.0000 C   0  0  0  0  0  0  0  0  0  0  0  0
   16.8507    3.6606    0.0000 C   0  0  0  0  0  0  0  0  0  0  0  0
   11.5866    2.6331    0.0000 C   0  0  0  0  0  0  0  0  0  0  0  0
   12.4584    1.1364    0.0000 C   0  0  0  0  0  0  0  0  0  0  0  0
   15.9847    4.1606    0.0000 C   0  0  0  0  0  0  0  0  0  0  0  0
   10.7225    2.1298    0.0000 C   0  0  0  0  0  0  0  0  0  0  0  0
   11.5943    0.6331    0.0000 C   0  0  0  0  0  0  0  0  0  0  0  0
   14.2247    4.1952    0.0000 C   0  0  0  0  0  0  0  0  0  0  0  0
   13.3186    3.6814    0.0000 C   0  0  0  0  0  0  0  0  0  0  0  0
    9.8623    0.6264    0.0000 C   0  0  0  0  0  0  0  0  0  0  0  0
   17.7167    4.1606    0.0000 C   0  0  0  0  0  0  0  0  0  0  0  0
    8.9943    1.1231    0.0000 C   0  0  0  0  0  0  0  0  0  0  0  0
    9.8661   -0.3736    0.0000 C   0  0  0  0  0  0  0  0  0  0  0  0
    7.1693   -1.8785    0.0000 C   0  0  0  0  0  0  0  0  0  0  0  0
    6.1920   -2.0902    0.0000 C   0  0  2  0  0  0  0  0  0  0  0  0
    8.1341   -0.3802    0.0000 C   0  0  0  0  0  0  0  0  0  0  0  0
    8.1302    0.6197    0.0000 C   0  0  0  0  0  0  0  0  0  0  0  0
    9.0020   -0.8769    0.0000 C   0  0  0  0  0  0  0  0  0  0  0  0
    5.7888   -3.0053    0.0000 C   0  0  0  0  0  0  0  0  0  0  0  0
    6.3549   -0.4804    0.0000 C   0  0  0  0  0  0  0  0  0  0  0  0
    4.3914   -4.0287    0.0000 C   0  0  0  0  0  0  0  0  0  0  0  0
    2.9941   -5.0522    0.0000 C   0  0  0  0  0  0  0  0  0  0  0  0
    2.0000   -5.1606    0.0000 C   0  0  0  0  0  0  0  0  0  0  0  0
   15.3858    1.3210    0.0000 H   0  0  0  0  0  0  0  0  0  0  0  0
   14.9021    0.5066    0.0000 H   0  0  0  0  0  0  0  0  0  0  0  0
   15.3770   -0.3160    0.0000 H   0  0  0  0  0  0  0  0  0  0  0  0
   16.5923   -0.3160    0.0000 H   0  0  0  0  0  0  0  0  0  0  0  0
   17.0673    0.5066    0.0000 H   0  0  0  0  0  0  0  0  0  0  0  0
   17.3876    2.3506    0.0000 H   0  0  0  0  0  0  0  0  0  0  0  0
   14.2319    1.5060    0.0000 H   0  0  0  0  0  0  0  0  0  0  0  0
   11.9833    3.1096    0.0000 H   0  0  0  0  0  0  0  0  0  0  0  0
   11.1863    3.1065    0.0000 H   0  0  0  0  0  0  0  0  0  0  0  0
   12.6727    0.5546    0.0000 H   0  0  0  0  0  0  0  0  0  0  0  0
   13.0686    1.2464    0.0000 H   0  0  0  0  0  0  0  0  0  0  0  0
   10.5082    2.7115    0.0000 H   0  0  0  0  0  0  0  0  0  0  0  0
   10.1124    2.0197    0.0000 H   0  0  0  0  0  0  0  0  0  0  0  0
   11.1976    0.1566    0.0000 H   0  0  0  0  0  0  0  0  0  0  0  0
   11.9947    0.1597    0.0000 H   0  0  0  0  0  0  0  0  0  0  0  0
   14.2319    4.8152    0.0000 H   0  0  0  0  0  0  0  0  0  0  0  0
   10.4043   -0.6815    0.0000 H   0  0  0  0  0  0  0  0  0  0  0  0
    7.2365   -2.4948    0.0000 H   0  0  0  0  0  0  0  0  0  0  0  0
    7.7893   -1.8761    0.0000 H   0  0  0  0  0  0  0  0  0  0  0  0
    5.5729   -2.1250    0.0000 H   0  0  0  0  0  0  0  0  0  0  0  0
    7.5921    0.9277    0.0000 H   0  0  0  0  0  0  0  0  0  0  0  0
    9.0044   -1.4969    0.0000 H   0  0  0  0  0  0  0  0  0  0  0  0
    5.7479   -3.6239    0.0000 H   0  0  0  0  0  0  0  0  0  0  0  0
    6.3909   -3.1530    0.0000 H   0  0  0  0  0  0  0  0  0  0  0  0
   19.1197    3.9706    0.0000 H   0  0  0  0  0  0  0  0  0  0  0  0
    4.4283   -2.6135    0.0000 H   0  0  0  0  0  0  0  0  0  0  0  0
    3.0310   -3.6369    0.0000 H   0  0  0  0  0  0  0  0  0  0  0  0
    2.9532   -5.6709    0.0000 H   0  0  0  0  0  0  0  0  0  0  0  0
    3.5963   -5.1999    0.0000 H   0  0  0  0  0  0  0  0  0  0  0  0
    1.9328   -4.5442    0.0000 H   0  0  0  0  0  0  0  0  0  0  0  0
    1.3836   -5.2278    0.0000 H   0  0  0  0  0  0  0  0  0  0  0  0
    2.0672   -5.7769    0.0000 H   0  0  0  0  0  0  0  0  0  0  0  0
  1 30  1  0  0  0  0
  2 33  1  0  0  0  0
  3 26  2  0  0  0  0
  4 36  1  0  0  0  0
  4 41  1  0  0  0  0
  5 32  1  0  0  0  0
  5 69  1  0  0  0  0
  6 32  2  0  0  0  0
  7 41  2  0  0  0  0
  8 42  2  0  0  0  0
  9 15  1  0  0  0  0
  9 18  1  0  0  0  0
  9 19  1  0  0  0  0
 10 22  1  0  0  0  0
 10 24  1  0  0  0  0
 10 25  1  0  0  0  0
 11 27  1  0  0  0  0
 11 28  1  0  0  0  0
 11 31  1  0  0  0  0
 12 35  1  0  0  0  0
 12 37  1  0  0  0  0
 12 41  1  0  0  0  0
 13 40  1  0  0  0  0
 13 42  1  0  0  0  0
 13 70  1  0  0  0  0
 14 42  1  0  0  0  0
 14 43  1  0  0  0  0
 14 71  1  0  0  0  0
 15 16  1  0  0  0  0
 15 17  1  0  0  0  0
 15 45  1  0  0  0  0
 16 17  1  0  0  0  0
 16 46  1  0  0  0  0
 16 47  1  0  0  0  0
 17 48  1  0  0  0  0
 17 49  1  0  0  0  0
 18 20  1  0  0  0  0
 18 21  2  0  0  0  0
 19 23  2  0  0  0  0
 19 50  1  0  0  0  0
 20 26  1  0  0  0  0
 20 29  2  0  0  0  0
 21 22  1  0  0  0  0
 21 51  1  0  0  0  0
 22 30  2  0  0  0  0
 23 26  1  0  0  0  0
 23 32  1  0  0  0  0
 24 27  1  0  0  0  0
 24 52  1  0  0  0  0
 24 53  1  0  0  0  0
 25 28  1  0  0  0  0
 25 54  1  0  0  0  0
 25 55  1  0  0  0  0
 27 56  1  0  0  0  0
 27 57  1  0  0  0  0
 28 58  1  0  0  0  0
 28 59  1  0  0  0  0
 29 30  1  0  0  0  0
 29 60  1  0  0  0  0
 31 33  2  0  0  0  0
 31 34  1  0  0  0  0
 33 38  1  0  0  0  0
 34 39  2  0  0  0  0
 34 61  1  0  0  0  0
 35 36  1  0  0  0  0
 35 62  1  0  0  0  0
 35 63  1  0  0  0  0
 36 40  1  6  0  0  0
 36 64  1  0  0  0  0
 37 38  2  0  0  0  0
 37 39  1  0  0  0  0
 38 65  1  0  0  0  0
 39 66  1  0  0  0  0
 40 67  1  0  0  0  0
 40 68  1  0  0  0  0
 43 44  1  0  0  0  0
 43 72  1  0  0  0  0
 43 73  1  0  0  0  0
 44 74  1  0  0  0  0
 44 75  1  0  0  0  0
 44 76  1  0  0  0  0
M  END
> <PUBCHEM_COMPOUND_CID>
504421
> <PUBCHEM_COMPOUND_CANONICALIZED>
1
> <PUBCHEM_CACTVS_COMPLEXITY>
1160
> <PUBCHEM_CACTVS_HBOND_ACCEPTOR>
11
> <PUBCHEM_CACTVS_HBOND_DONOR>
3
> <PUBCHEM_CACTVS_ROTATABLE_BOND>
8
> <PUBCHEM_CACTVS_SUBSKEYS>
AAADcfB7uYAAAAAAAAAAAAAAGAAAAWAAAAA8YIEAAAAAAACBQAAAHwAQCAAADDzhmA4zyIPABgCIAqTWWACCAAAlAgAIiIEIZMiKZD7I1dGdYYhstgLY2ceY2aOeCACAAAQCAAAQAQAACAQAAAAAAAAAAA==
> <PUBCHEM_IUPAC_OPENEYE_NAME>
1-cyclopropyl-7-[4-[4-[(5S)-5-[(ethylcarbamoylamino)methyl]-2-oxo-oxazolidin-3-yl]-2-fluoro-phenyl]piperazin-1-yl]-6-fluoro-4-oxo-quinoline-3-carboxylic acid
> <PUBCHEM_IUPAC_CAS_NAME>
1-cyclopropyl-7-[4-[4-[(5S)-5-[(ethylcarbamoylamino)methyl]-2-oxo-3-oxazolidinyl]-2-fluorophenyl]-1-piperazinyl]-6-fluoro-4-oxo-3-quinolinecarboxylic acid
> <PUBCHEM_IUPAC_NAME_MARKUP>
1-cyclopropyl-7-[4-[4-[(5<I>S</I>)-5-[(ethylcarbamoylamino)methyl]-2-oxo-1,3-oxazolidin-3-yl]-2-fluorophenyl]piperazin-1-yl]-6-fluoro-4-oxoquinoline-3-carboxylic acid
> <PUBCHEM_IUPAC_NAME>
1-cyclopropyl-7-[4-[4-[(5S)-5-[(ethylcarbamoylamino)methyl]-2-oxo-1,3-oxazolidin-3-yl]-2-fluorophenyl]piperazin-1-yl]-6-fluoro-4-oxoquinoline-3-carboxylic acid
> <PUBCHEM_IUPAC_SYSTEMATIC_NAME>
1-cyclopropyl-7-[4-[4-[(5S)-5-[(ethylcarbamoylamino)methyl]-2-oxidanylidene-1,3-oxazolidin-3-yl]-2-fluoranyl-phenyl]piperazin-1-yl]-6-fluoranyl-4-oxidanylidene-quinoline-3-carboxylic acid
> <PUBCHEM_IUPAC_TRADITIONAL_NAME>
1-cyclopropyl-7-[4-[4-[(5S)-5-[(ethylcarbamoylamino)methyl]-2-keto-oxazolidin-3-yl]-2-fluoro-phenyl]piperazino]-6-fluoro-4-keto-quinoline-3-carboxylic acid
> <PUBCHEM_IUPAC_INCHI>
InChI=1S/C30H32F2N6O6/c1-2-33-29(42)34-14-19-15-38(30(43)44-19)18-5-6-24(22(31)11-18)35-7-9-36(10-8-35)26-13-25-20(12-23(26)32)27(39)21(28(40)41)16-37(25)17-3-4-17/h5-6,11-13,16-17,19H,2-4,7-10,14-15H2,1H3,(H,40,41)(H2,33,34,42)/t19-/m0/s1
> <PUBCHEM_IUPAC_INCHIKEY>
ZHGOUIAIZWJQQH-IBGZPJMESA-N
> <PUBCHEM_XLOGP3_AA>
3.6
> <PUBCHEM_EXACT_MASS>
610.23513909
> <PUBCHEM_MOLECULAR_FORMULA>
C30H32F2N6O6
> <PUBCHEM_MOLECULAR_WEIGHT>
610.6
> <PUBCHEM_OPENEYE_CAN_SMILES>
CCNC(=O)NCC1CN(C(=O)O1)C2=CC(=C(C=C2)N3CCN(CC3)C4=C(C=C5C(=C4)N(C=C(C5=O)C(=O)O)C6CC6)F)F
> <PUBCHEM_OPENEYE_ISO_SMILES>
CCNC(=O)NC[C@H]1CN(C(=O)O1)C2=CC(=C(C=C2)N3CCN(CC3)C4=C(C=C5C(=C4)N(C=C(C5=O)C(=O)O)C6CC6)F)F
> <PUBCHEM_CACTVS_TPSA>
135
> <PUBCHEM_MONOISOTOPIC_WEIGHT>
610.23513909
> <PUBCHEM_TOTAL_CHARGE>
0
> <PUBCHEM_HEAVY_ATOM_COUNT>
44
> <PUBCHEM_ATOM_DEF_STEREO_COUNT>
1
> <PUBCHEM_ATOM_UDEF_STEREO_COUNT>
0
> <PUBCHEM_BOND_DEF_STEREO_COUNT>
0
> <PUBCHEM_BOND_UDEF_STEREO_COUNT>
0
> <PUBCHEM_ISOTOPIC_ATOM_COUNT>
0
> <PUBCHEM_COMPONENT_COUNT>
1
> <PUBCHEM_CACTVS_TAUTO_COUNT>
-1
> <PUBCHEM_COORDINATE_TYPE>
1
5
255
> <PUBCHEM_BONDANNOTATIONS>
18  20  8
18  21  8
19  23  8
20  26  8
20  29  8
21  22  8
22  30  8
23  26  8
29  30  8
31  33  8
31  34  8
33  38  8
34  39  8
36  40  6
37  38  8
37  39  8
9  18  8
9  19  8
$$$$
