504406
  -OEChem-10302200282D
175176  0     1  0  0  0  0  0999 V2000
   13.9966    0.4050    0.0000 S   0  0  0  0  0  0  0  0  0  0  0  0
   11.0203    4.8510    0.0000 O   0  0  0  0  0  0  0  0  0  0  0  0
   12.2646    5.4050    0.0000 O   0  0  0  0  0  0  0  0  0  0  0  0
    7.4239    4.5931    0.0000 O   0  0  0  0  0  0  0  0  0  0  0  0
   13.1306    4.9050    0.0000 O   0  0  0  0  0  0  0  0  0  0  0  0
   15.7287    5.4050    0.0000 O   0  0  0  0  0  0  0  0  0  0  0  0
    7.5434    0.9895    0.0000 O   0  0  0  0  0  0  0  0  0  0  0  0
    3.9470    0.7316    0.0000 O   0  0  0  0  0  0  0  0  0  0  0  0
    2.4608    2.0698    0.0000 O   0  0  0  0  0  0  0  0  0  0  0  0
   14.8627    1.9050    0.0000 O   0  0  0  0  0  0  0  0  0  0  0  0
    3.6197    3.3570    0.0000 O   0  0  0  0  0  0  0  0  0  0  0  0
   18.3268    0.9050    0.0000 O   0  0  0  0  0  0  0  0  0  0  0  0
    4.0664   -2.8720    0.0000 O   0  0  0  0  0  0  0  0  0  0  0  0
    5.5527   -4.2103    0.0000 O   0  0  0  0  0  0  0  0  0  0  0  0
    6.7117   -2.9231    0.0000 O   0  0  0  0  0  0  0  0  0  0  0  0
   19.1928    0.4050    0.0000 O   0  0  0  0  0  0  0  0  0  0  0  0
   17.4607   -2.5950    0.0000 O   0  0  0  0  0  0  0  0  0  0  0  0
   20.0588   -5.0950    0.0000 O   0  0  0  0  0  0  0  0  0  0  0  0
   22.6569   -5.5950    0.0000 O   0  0  0  0  0  0  0  0  0  0  0  0
   18.3268   -8.0950    0.0000 O   0  0  0  0  0  0  0  0  0  0  0  0
   22.6569   -2.5950    0.0000 O   0  0  0  0  0  0  0  0  0  0  0  0
   10.4850    6.4983    0.0000 N   0  0  0  0  0  0  0  0  0  0  0  0
   13.1306    6.9050    0.0000 N   0  0  0  0  0  0  0  0  0  0  0  0
    9.1181    4.2330    0.0000 N   0  0  0  0  0  0  0  0  0  0  0  0
    7.0081    2.6368    0.0000 N   0  0  0  0  0  0  0  0  0  0  0  0
   14.8627    3.9050    0.0000 N   0  0  0  0  0  0  0  0  0  0  0  0
    5.6412    0.3715    0.0000 N   0  0  0  0  0  0  0  0  0  0  0  0
    3.5312   -1.2247    0.0000 N   0  0  0  0  0  0  0  0  0  0  0  0
   16.5947    1.9050    0.0000 N   0  0  0  0  0  0  0  0  0  0  0  0
   17.4607   -0.5950    0.0000 N   0  0  0  0  0  0  0  0  0  0  0  0
   19.1928   -2.5950    0.0000 N   0  0  0  0  0  0  0  0  0  0  0  0
   20.9249   -3.5950    0.0000 N   0  0  0  0  0  0  0  0  0  0  0  0
   23.5229   -4.0950    0.0000 N   0  0  0  0  0  0  0  0  0  0  0  0
   11.3986    6.9050    0.0000 C   0  0  3  0  0  0  0  0  0  0  0  0
   11.2940    7.8995    0.0000 C   0  0  0  0  0  0  0  0  0  0  0  0
   10.3159    8.1074    0.0000 C   0  0  0  0  0  0  0  0  0  0  0  0
    9.8159    7.2414    0.0000 C   0  0  0  0  0  0  0  0  0  0  0  0
    9.3261    5.2111    0.0000 C   0  0  2  0  0  0  0  0  0  0  0  0
   10.2771    5.5201    0.0000 C   0  0  0  0  0  0  0  0  0  0  0  0
   12.2646    6.4050    0.0000 C   0  0  0  0  0  0  0  0  0  0  0  0
    8.5829    5.8802    0.0000 C   0  0  0  0  0  0  0  0  0  0  0  0
   13.9966    6.4050    0.0000 C   0  0  1  0  0  0  0  0  0  0  0  0
    7.6319    5.5712    0.0000 C   0  0  0  0  0  0  0  0  0  0  0  0
    8.7908    6.8584    0.0000 C   0  0  0  0  0  0  0  0  0  0  0  0
   14.8627    6.9050    0.0000 C   0  0  0  0  0  0  0  0  0  0  0  0
    7.9592    2.9458    0.0000 C   0  0  2  0  0  0  0  0  0  0  0  0
    8.1671    3.9239    0.0000 C   0  0  0  0  0  0  0  0  0  0  0  0
   14.8627    7.9050    0.0000 C   0  0  0  0  0  0  0  0  0  0  0  0
    8.7023    2.2767    0.0000 C   0  0  0  0  0  0  0  0  0  0  0  0
   13.9966    5.4050    0.0000 C   0  0  0  0  0  0  0  0  0  0  0  0
   15.7287    8.4050    0.0000 C   0  0  0  0  0  0  0  0  0  0  0  0
   13.9966    8.4050    0.0000 C   0  0  0  0  0  0  0  0  0  0  0  0
    8.4944    1.2985    0.0000 C   0  0  0  0  0  0  0  0  0  0  0  0
    9.6534    2.5857    0.0000 C   0  0  0  0  0  0  0  0  0  0  0  0
   14.8627    4.9050    0.0000 C   0  0  0  0  0  0  0  0  0  0  0  0
    6.8002    1.6586    0.0000 C   0  0  0  0  0  0  0  0  0  0  0  0
    5.8492    1.3496    0.0000 C   0  0  2  0  0  0  0  0  0  0  0  0
    5.1060    2.0187    0.0000 C   0  0  0  0  0  0  0  0  0  0  0  0
    4.1550    1.7097    0.0000 C   0  0  0  0  0  0  0  0  0  0  0  0
   15.7287    3.4050    0.0000 C   0  0  0  0  0  0  0  0  0  0  0  0
    4.6902    0.0624    0.0000 C   0  0  0  0  0  0  0  0  0  0  0  0
    4.4823   -0.9157    0.0000 C   0  0  2  0  0  0  0  0  0  0  0  0
   15.7287    2.4050    0.0000 C   0  0  0  0  0  0  0  0  0  0  0  0
    5.2254   -1.5848    0.0000 C   0  0  0  0  0  0  0  0  0  0  0  0
    3.4118    2.3788    0.0000 C   0  0  0  0  0  0  0  0  0  0  0  0
   16.5947    0.9050    0.0000 C   0  0  1  0  0  0  0  0  0  0  0  0
    5.0175   -2.5630    0.0000 C   0  0  0  0  0  0  0  0  0  0  0  0
   15.7287    0.4050    0.0000 C   0  0  0  0  0  0  0  0  0  0  0  0
   17.4607    0.4050    0.0000 C   0  0  0  0  0  0  0  0  0  0  0  0
    3.3233   -2.2029    0.0000 C   0  0  0  0  0  0  0  0  0  0  0  0
    5.7606   -3.2321    0.0000 C   0  0  0  0  0  0  0  0  0  0  0  0
   14.8627    0.9050    0.0000 C   0  0  0  0  0  0  0  0  0  0  0  0
   18.3268   -1.0950    0.0000 C   0  0  2  0  0  0  0  0  0  0  0  0
    2.3723   -2.5119    0.0000 C   0  0  0  0  0  0  0  0  0  0  0  0
   19.1928   -3.5950    0.0000 C   0  0  1  0  0  0  0  0  0  0  0  0
   18.3268   -2.0950    0.0000 C   0  0  0  0  0  0  0  0  0  0  0  0
   19.1928   -0.5950    0.0000 C   0  0  0  0  0  0  0  0  0  0  0  0
   18.3268   -4.0950    0.0000 C   0  0  0  0  0  0  0  0  0  0  0  0
   20.0588   -4.0950    0.0000 C   0  0  0  0  0  0  0  0  0  0  0  0
   18.3268   -5.0950    0.0000 C   0  0  0  0  0  0  0  0  0  0  0  0
   21.7909   -4.0950    0.0000 C   0  0  1  0  0  0  0  0  0  0  0  0
   13.1306    0.9050    0.0000 C   0  0  0  0  0  0  0  0  0  0  0  0
   19.1928   -5.5950    0.0000 C   0  0  0  0  0  0  0  0  0  0  0  0
   17.4607   -5.5950    0.0000 C   0  0  0  0  0  0  0  0  0  0  0  0
   21.7909   -5.0950    0.0000 C   0  0  0  0  0  0  0  0  0  0  0  0
   19.1928   -6.5950    0.0000 C   0  0  0  0  0  0  0  0  0  0  0  0
   17.4607   -6.5950    0.0000 C   0  0  0  0  0  0  0  0  0  0  0  0
   22.6569   -3.5950    0.0000 C   0  0  0  0  0  0  0  0  0  0  0  0
   18.3268   -7.0950    0.0000 C   0  0  0  0  0  0  0  0  0  0  0  0
   11.3661    6.2858    0.0000 H   0  0  0  0  0  0  0  0  0  0  0  0
   11.9140    7.8995    0.0000 H   0  0  0  0  0  0  0  0  0  0  0  0
   11.3589    8.5161    0.0000 H   0  0  0  0  0  0  0  0  0  0  0  0
   10.5075    8.6971    0.0000 H   0  0  0  0  0  0  0  0  0  0  0  0
    9.7495    8.3596    0.0000 H   0  0  0  0  0  0  0  0  0  0  0  0
    9.3143    7.6058    0.0000 H   0  0  0  0  0  0  0  0  0  0  0  0
    9.4010    6.7807    0.0000 H   0  0  0  0  0  0  0  0  0  0  0  0
    9.7868    4.7962    0.0000 H   0  0  0  0  0  0  0  0  0  0  0  0
    9.1726    6.0718    0.0000 H   0  0  0  0  0  0  0  0  0  0  0  0
   13.1306    7.5250    0.0000 H   0  0  0  0  0  0  0  0  0  0  0  0
    9.5789    3.8181    0.0000 H   0  0  0  0  0  0  0  0  0  0  0  0
   13.4597    6.0950    0.0000 H   0  0  0  0  0  0  0  0  0  0  0  0
    7.4403    6.1609    0.0000 H   0  0  0  0  0  0  0  0  0  0  0  0
    7.0422    5.3796    0.0000 H   0  0  0  0  0  0  0  0  0  0  0  0
    7.8234    4.9816    0.0000 H   0  0  0  0  0  0  0  0  0  0  0  0
    9.3973    6.7295    0.0000 H   0  0  0  0  0  0  0  0  0  0  0  0
    8.9197    7.4648    0.0000 H   0  0  0  0  0  0  0  0  0  0  0  0
    8.1844    6.9873    0.0000 H   0  0  0  0  0  0  0  0  0  0  0  0
   15.0747    6.3224    0.0000 H   0  0  0  0  0  0  0  0  0  0  0  0
   15.4733    7.0127    0.0000 H   0  0  0  0  0  0  0  0  0  0  0  0
    7.8303    2.3393    0.0000 H   0  0  0  0  0  0  0  0  0  0  0  0
   14.8627    8.5250    0.0000 H   0  0  0  0  0  0  0  0  0  0  0  0
    8.8312    2.8831    0.0000 H   0  0  0  0  0  0  0  0  0  0  0  0
    6.5474    3.0516    0.0000 H   0  0  0  0  0  0  0  0  0  0  0  0
   16.0387    7.8681    0.0000 H   0  0  0  0  0  0  0  0  0  0  0  0
   16.2656    8.7150    0.0000 H   0  0  0  0  0  0  0  0  0  0  0  0
   15.4187    8.9419    0.0000 H   0  0  0  0  0  0  0  0  0  0  0  0
   14.3066    8.9419    0.0000 H   0  0  0  0  0  0  0  0  0  0  0  0
   13.4597    8.7150    0.0000 H   0  0  0  0  0  0  0  0  0  0  0  0
   13.6866    7.8681    0.0000 H   0  0  0  0  0  0  0  0  0  0  0  0
    7.8880    1.4274    0.0000 H   0  0  0  0  0  0  0  0  0  0  0  0
    8.3655    0.6921    0.0000 H   0  0  0  0  0  0  0  0  0  0  0  0
    9.1009    1.1696    0.0000 H   0  0  0  0  0  0  0  0  0  0  0  0
    9.8450    1.9960    0.0000 H   0  0  0  0  0  0  0  0  0  0  0  0
   10.2430    2.7773    0.0000 H   0  0  0  0  0  0  0  0  0  0  0  0
    9.4618    3.1753    0.0000 H   0  0  0  0  0  0  0  0  0  0  0  0
    6.3099    0.9347    0.0000 H   0  0  0  0  0  0  0  0  0  0  0  0
    5.5946    2.4005    0.0000 H   0  0  0  0  0  0  0  0  0  0  0  0
    4.8149    2.5662    0.0000 H   0  0  0  0  0  0  0  0  0  0  0  0
   14.3257    3.5950    0.0000 H   0  0  0  0  0  0  0  0  0  0  0  0
    6.1020   -0.0434    0.0000 H   0  0  0  0  0  0  0  0  0  0  0  0
    3.6664    1.3280    0.0000 H   0  0  0  0  0  0  0  0  0  0  0  0
    4.4460    1.1623    0.0000 H   0  0  0  0  0  0  0  0  0  0  0  0
   16.3393    3.2973    0.0000 H   0  0  0  0  0  0  0  0  0  0  0  0
   15.9408    3.9876    0.0000 H   0  0  0  0  0  0  0  0  0  0  0  0
    4.3534   -1.5222    0.0000 H   0  0  0  0  0  0  0  0  0  0  0  0
    5.8003   -1.8171    0.0000 H   0  0  0  0  0  0  0  0  0  0  0  0
    5.5540   -1.0590    0.0000 H   0  0  0  0  0  0  0  0  0  0  0  0
    3.0705   -0.8099    0.0000 H   0  0  0  0  0  0  0  0  0  0  0  0
   17.1317    2.2150    0.0000 H   0  0  0  0  0  0  0  0  0  0  0  0
   16.0578    1.2150    0.0000 H   0  0  0  0  0  0  0  0  0  0  0  0
    4.4427   -2.3307    0.0000 H   0  0  0  0  0  0  0  0  0  0  0  0
    4.6890   -3.0888    0.0000 H   0  0  0  0  0  0  0  0  0  0  0  0
   15.3302   -0.0699    0.0000 H   0  0  0  0  0  0  0  0  0  0  0  0
   16.1272   -0.0699    0.0000 H   0  0  0  0  0  0  0  0  0  0  0  0
    2.0000    2.4847    0.0000 H   0  0  0  0  0  0  0  0  0  0  0  0
   15.2612    1.3800    0.0000 H   0  0  0  0  0  0  0  0  0  0  0  0
   14.4641    1.3800    0.0000 H   0  0  0  0  0  0  0  0  0  0  0  0
   16.9238   -0.9050    0.0000 H   0  0  0  0  0  0  0  0  0  0  0  0
   17.7898   -1.4050    0.0000 H   0  0  0  0  0  0  0  0  0  0  0  0
    2.1807   -1.9222    0.0000 H   0  0  0  0  0  0  0  0  0  0  0  0
    1.7826   -2.7035    0.0000 H   0  0  0  0  0  0  0  0  0  0  0  0
    2.5638   -3.1015    0.0000 H   0  0  0  0  0  0  0  0  0  0  0  0
   18.6559   -3.2850    0.0000 H   0  0  0  0  0  0  0  0  0  0  0  0
   19.4049   -1.1776    0.0000 H   0  0  0  0  0  0  0  0  0  0  0  0
   19.8034   -0.4873    0.0000 H   0  0  0  0  0  0  0  0  0  0  0  0
   19.7297   -2.2850    0.0000 H   0  0  0  0  0  0  0  0  0  0  0  0
   18.1147   -3.5124    0.0000 H   0  0  0  0  0  0  0  0  0  0  0  0
   17.7162   -4.2027    0.0000 H   0  0  0  0  0  0  0  0  0  0  0  0
    6.0135   -4.6251    0.0000 H   0  0  0  0  0  0  0  0  0  0  0  0
   20.9249   -2.9750    0.0000 H   0  0  0  0  0  0  0  0  0  0  0  0
   21.7909   -3.4750    0.0000 H   0  0  0  0  0  0  0  0  0  0  0  0
   13.4406    1.4419    0.0000 H   0  0  0  0  0  0  0  0  0  0  0  0
   12.5937    1.2150    0.0000 H   0  0  0  0  0  0  0  0  0  0  0  0
   12.8206    0.3681    0.0000 H   0  0  0  0  0  0  0  0  0  0  0  0
   19.7297    0.7150    0.0000 H   0  0  0  0  0  0  0  0  0  0  0  0
   19.7297   -5.2850    0.0000 H   0  0  0  0  0  0  0  0  0  0  0  0
   16.9238   -5.2850    0.0000 H   0  0  0  0  0  0  0  0  0  0  0  0
   21.1803   -4.9873    0.0000 H   0  0  0  0  0  0  0  0  0  0  0  0
   21.5788   -5.6776    0.0000 H   0  0  0  0  0  0  0  0  0  0  0  0
   19.7297   -6.9050    0.0000 H   0  0  0  0  0  0  0  0  0  0  0  0
   16.9238   -6.9050    0.0000 H   0  0  0  0  0  0  0  0  0  0  0  0
   22.6569   -6.2150    0.0000 H   0  0  0  0  0  0  0  0  0  0  0  0
   24.0599   -3.7850    0.0000 H   0  0  0  0  0  0  0  0  0  0  0  0
   23.5229   -4.7150    0.0000 H   0  0  0  0  0  0  0  0  0  0  0  0
   17.7898   -8.4050    0.0000 H   0  0  0  0  0  0  0  0  0  0  0  0
  1 72  1  0  0  0  0
  1 82  1  0  0  0  0
  2 39  2  0  0  0  0
  3 40  2  0  0  0  0
  4 47  2  0  0  0  0
  5 50  2  0  0  0  0
  6 55  2  0  0  0  0
  7 56  2  0  0  0  0
  8 61  2  0  0  0  0
  9 65  1  0  0  0  0
  9145  1  0  0  0  0
 10 63  2  0  0  0  0
 11 65  2  0  0  0  0
 12 69  2  0  0  0  0
 13 70  2  0  0  0  0
 14 71  1  0  0  0  0
 14159  1  0  0  0  0
 15 71  2  0  0  0  0
 16 77  1  0  0  0  0
 16165  1  0  0  0  0
 17 76  2  0  0  0  0
 18 79  2  0  0  0  0
 19 85  1  0  0  0  0
 19172  1  0  0  0  0
 20 89  1  0  0  0  0
 20175  1  0  0  0  0
 21 88  2  0  0  0  0
 22 34  1  0  0  0  0
 22 37  1  0  0  0  0
 22 39  1  0  0  0  0
 23 40  1  0  0  0  0
 42 23  1  1  0  0  0
 23 99  1  0  0  0  0
 38 24  1  1  0  0  0
 24 47  1  0  0  0  0
 24100  1  0  0  0  0
 46 25  1  6  0  0  0
 25 56  1  0  0  0  0
 25113  1  0  0  0  0
 26 55  1  0  0  0  0
 26 60  1  0  0  0  0
 26129  1  0  0  0  0
 57 27  1  1  0  0  0
 27 61  1  0  0  0  0
 27130  1  0  0  0  0
 62 28  1  6  0  0  0
 28 70  1  0  0  0  0
 28138  1  0  0  0  0
 29 63  1  0  0  0  0
 66 29  1  6  0  0  0
 29139  1  0  0  0  0
 30 69  1  0  0  0  0
 73 30  1  1  0  0  0
 30148  1  0  0  0  0
 75 31  1  6  0  0  0
 31 76  1  0  0  0  0
 31156  1  0  0  0  0
 32 79  1  0  0  0  0
 81 32  1  6  0  0  0
 32160  1  0  0  0  0
 33 88  1  0  0  0  0
 33173  1  0  0  0  0
 33174  1  0  0  0  0
 34 35  1  0  0  0  0
 34 40  1  0  0  0  0
 34 90  1  0  0  0  0
 35 36  1  0  0  0  0
 35 91  1  0  0  0  0
 35 92  1  0  0  0  0
 36 37  1  0  0  0  0
 36 93  1  0  0  0  0
 36 94  1  0  0  0  0
 37 95  1  0  0  0  0
 37 96  1  0  0  0  0
 38 39  1  0  0  0  0
 38 41  1  0  0  0  0
 38 97  1  0  0  0  0
 41 43  1  0  0  0  0
 41 44  1  0  0  0  0
 41 98  1  0  0  0  0
 42 45  1  0  0  0  0
 42 50  1  0  0  0  0
 42101  1  0  0  0  0
 43102  1  0  0  0  0
 43103  1  0  0  0  0
 43104  1  0  0  0  0
 44105  1  0  0  0  0
 44106  1  0  0  0  0
 44107  1  0  0  0  0
 45 48  1  0  0  0  0
 45108  1  0  0  0  0
 45109  1  0  0  0  0
 46 47  1  0  0  0  0
 46 49  1  0  0  0  0
 46110  1  0  0  0  0
 48 51  1  0  0  0  0
 48 52  1  0  0  0  0
 48111  1  0  0  0  0
 49 53  1  0  0  0  0
 49 54  1  0  0  0  0
 49112  1  0  0  0  0
 50 55  1  0  0  0  0
 51114  1  0  0  0  0
 51115  1  0  0  0  0
 51116  1  0  0  0  0
 52117  1  0  0  0  0
 52118  1  0  0  0  0
 52119  1  0  0  0  0
 53120  1  0  0  0  0
 53121  1  0  0  0  0
 53122  1  0  0  0  0
 54123  1  0  0  0  0
 54124  1  0  0  0  0
 54125  1  0  0  0  0
 56 57  1  0  0  0  0
 57 58  1  0  0  0  0
 57126  1  0  0  0  0
 58 59  1  0  0  0  0
 58127  1  0  0  0  0
 58128  1  0  0  0  0
 59 65  1  0  0  0  0
 59131  1  0  0  0  0
 59132  1  0  0  0  0
 60 63  1  0  0  0  0
 60133  1  0  0  0  0
 60134  1  0  0  0  0
 61 62  1  0  0  0  0
 62 64  1  0  0  0  0
 62135  1  0  0  0  0
 64 67  1  0  0  0  0
 64136  1  0  0  0  0
 64137  1  0  0  0  0
 66 68  1  0  0  0  0
 66 69  1  0  0  0  0
 66140  1  0  0  0  0
 67 71  1  0  0  0  0
 67141  1  0  0  0  0
 67142  1  0  0  0  0
 68 72  1  0  0  0  0
 68143  1  0  0  0  0
 68144  1  0  0  0  0
 70 74  1  0  0  0  0
 72146  1  0  0  0  0
 72147  1  0  0  0  0
 73 76  1  0  0  0  0
 73 77  1  0  0  0  0
 73149  1  0  0  0  0
 74150  1  0  0  0  0
 74151  1  0  0  0  0
 74152  1  0  0  0  0
 75 78  1  0  0  0  0
 75 79  1  0  0  0  0
 75153  1  0  0  0  0
 77154  1  0  0  0  0
 77155  1  0  0  0  0
 78 80  1  0  0  0  0
 78157  1  0  0  0  0
 78158  1  0  0  0  0
 80 83  2  0  0  0  0
 80 84  1  0  0  0  0
 81 85  1  0  0  0  0
 81 88  1  0  0  0  0
 81161  1  0  0  0  0
 82162  1  0  0  0  0
 82163  1  0  0  0  0
 82164  1  0  0  0  0
 83 86  1  0  0  0  0
 83166  1  0  0  0  0
 84 87  2  0  0  0  0
 84167  1  0  0  0  0
 85168  1  0  0  0  0
 85169  1  0  0  0  0
 86 89  2  0  0  0  0
 86170  1  0  0  0  0
 87 89  1  0  0  0  0
 87171  1  0  0  0  0
M  END
> <PUBCHEM_COMPOUND_CID>
504406
> <PUBCHEM_COMPOUND_CANONICALIZED>
1
> <PUBCHEM_CACTVS_COMPLEXITY>
2510
> <PUBCHEM_CACTVS_HBOND_ACCEPTOR>
21
> <PUBCHEM_CACTVS_HBOND_DONOR>
16
> <PUBCHEM_CACTVS_ROTATABLE_BOND>
39
> <PUBCHEM_CACTVS_SUBSKEYS>
AAADcfB//gBAAAAAAAAAAAAAAAAAAWAAAAAwAAAAAAAAAAABAAAAHgQQCAAADSzl2AayDoPAAgiIAqHSGAACAAAgIBAIiIGOCIgKdj6i0TOUcAAm9hGYmAe836KOIAAAAAAAAABAAAAAAAAAAAAAAAAAAA==
> <PUBCHEM_IUPAC_OPENEYE_NAME>
(4S)-4-acetamido-5-[[(1S)-1-[[(1S)-1-[[(1S)-1-[2-[[(1S)-1-[2-[[2-[[(1S)-1-[[(1S)-2-[[(1S)-2-[[(1S)-2-amino-1-(hydroxymethyl)-2-oxo-ethyl]amino]-1-[(4-hydroxyphenyl)methyl]-2-oxo-ethyl]amino]-1-(hydroxymethyl)-2-oxo-ethyl]carbamoyl]-3-methylsulfanyl-propyl]amino]-2-oxo-ethyl]amino]-2-oxo-acetyl]-3-methyl-butyl]carbamoyl]pyrrolidine-1-carbonyl]-2-methyl-propyl]carbamoyl]-2-methyl-propyl]carbamoyl]-3-carboxy-propyl]amino]-5-oxo-pentanoic acid
> <PUBCHEM_IUPAC_CAS_NAME>
(4S)-4-acetamido-5-[[(2S)-1-[[(2S)-1-[[(2S)-1-[2-[[[(3S)-1-[[2-[[(2S)-1-[[(2S)-1-[[(2S)-1-[[(2S)-1-amino-3-hydroxy-1-oxopropan-2-yl]amino]-3-(4-hydroxyphenyl)-1-oxopropan-2-yl]amino]-3-hydroxy-1-oxopropan-2-yl]amino]-4-(methylthio)-1-oxobutan-2-yl]amino]-2-oxoethyl]amino]-5-methyl-1,2-dioxohexan-3-yl]amino]-oxomethyl]-1-pyrrolidinyl]-3-methyl-1-oxobutan-2-yl]amino]-3-methyl-1-oxobutan-2-yl]amino]-4-carboxy-1-oxobutan-2-yl]amino]-5-oxopentanoic acid
> <PUBCHEM_IUPAC_NAME_MARKUP>
(4<I>S</I>)-4-acetamido-5-[[(2<I>S</I>)-1-[[(2<I>S</I>)-1-[[(2<I>S</I>)-1-[2-[[(3<I>S</I>)-1-[[2-[[(2<I>S</I>)-1-[[(2<I>S</I>)-1-[[(2<I>S</I>)-1-[[(2<I>S</I>)-1-amino-3-hydroxy-1-oxopropan-2-yl]amino]-3-(4-hydroxyphenyl)-1-oxopropan-2-yl]amino]-3-hydroxy-1-oxopropan-2-yl]amino]-4-methylsulfanyl-1-oxobutan-2-yl]amino]-2-oxoethyl]amino]-5-methyl-1,2-dioxohexan-3-yl]carbamoyl]pyrrolidin-1-yl]-3-methyl-1-oxobutan-2-yl]amino]-3-methyl-1-oxobutan-2-yl]amino]-4-carboxy-1-oxobutan-2-yl]amino]-5-oxopentanoic acid
> <PUBCHEM_IUPAC_NAME>
(4S)-4-acetamido-5-[[(2S)-1-[[(2S)-1-[[(2S)-1-[2-[[(3S)-1-[[2-[[(2S)-1-[[(2S)-1-[[(2S)-1-[[(2S)-1-amino-3-hydroxy-1-oxopropan-2-yl]amino]-3-(4-hydroxyphenyl)-1-oxopropan-2-yl]amino]-3-hydroxy-1-oxopropan-2-yl]amino]-4-methylsulfanyl-1-oxobutan-2-yl]amino]-2-oxoethyl]amino]-5-methyl-1,2-dioxohexan-3-yl]carbamoyl]pyrrolidin-1-yl]-3-methyl-1-oxobutan-2-yl]amino]-3-methyl-1-oxobutan-2-yl]amino]-4-carboxy-1-oxobutan-2-yl]amino]-5-oxopentanoic acid
> <PUBCHEM_IUPAC_SYSTEMATIC_NAME>
(4S)-4-acetamido-5-[[(2S)-1-[[(2S)-1-[[(2S)-1-[2-[[(3S)-1-[[2-[[(2S)-1-[[(2S)-1-[[(2S)-1-[[(2S)-1-azanyl-3-oxidanyl-1-oxidanylidene-propan-2-yl]amino]-3-(4-hydroxyphenyl)-1-oxidanylidene-propan-2-yl]amino]-3-oxidanyl-1-oxidanylidene-propan-2-yl]amino]-4-methylsulfanyl-1-oxidanylidene-butan-2-yl]amino]-2-oxidanylidene-ethyl]amino]-5-methyl-1,2-bis(oxidanylidene)hexan-3-yl]carbamoyl]pyrrolidin-1-yl]-3-methyl-1-oxidanylidene-butan-2-yl]amino]-3-methyl-1-oxidanylidene-butan-2-yl]amino]-5-oxidanyl-1,5-bis(oxidanylidene)pentan-2-yl]amino]-5-oxidanylidene-pentanoic acid
> <PUBCHEM_IUPAC_TRADITIONAL_NAME>
(4S)-4-acetamido-5-[[(1S)-1-[[(1S)-1-[[(1S)-1-[2-[[(1S)-1-[2-[[2-[[(1S)-1-[[(1S)-2-[[(1S)-2-[[(1S)-2-amino-2-keto-1-methylol-ethyl]amino]-1-(4-hydroxybenzyl)-2-keto-ethyl]amino]-2-keto-1-methylol-ethyl]carbamoyl]-3-(methylthio)propyl]amino]-2-keto-ethyl]amino]-2-keto-acetyl]-3-methyl-butyl]carbamoyl]pyrrolidine-1-carbonyl]-2-methyl-propyl]carbamoyl]-2-methyl-propyl]carbamoyl]-3-carboxy-propyl]amino]-5-keto-valeric acid
> <PUBCHEM_IUPAC_INCHI>
InChI=1S/C56H86N12O20S/c1-27(2)22-36(46(78)55(87)58-24-41(73)60-35(19-21-89-8)49(81)65-39(26-70)52(84)63-37(23-31-11-13-32(72)14-12-31)51(83)64-38(25-69)47(57)79)62-53(85)40-10-9-20-68(40)56(88)45(29(5)6)67-54(86)44(28(3)4)66-50(82)34(16-18-43(76)77)61-48(80)33(59-30(7)71)15-17-42(74)75/h11-14,27-29,33-40,44-45,69-70,72H,9-10,15-26H2,1-8H3,(H2,57,79)(H,58,87)(H,59,71)(H,60,73)(H,61,80)(H,62,85)(H,63,84)(H,64,83)(H,65,81)(H,66,82)(H,67,86)(H,74,75)(H,76,77)/t33-,34-,35-,36-,37-,38-,39-,40?,44-,45-/m0/s1
> <PUBCHEM_IUPAC_INCHIKEY>
XNPHXTSEBTVSAX-JTPMHIPUSA-N
> <PUBCHEM_XLOGP3_AA>
-1.9
> <PUBCHEM_EXACT_MASS>
1278.58020435
> <PUBCHEM_MOLECULAR_FORMULA>
C56H86N12O20S
> <PUBCHEM_MOLECULAR_WEIGHT>
1279.4
> <PUBCHEM_OPENEYE_CAN_SMILES>
CC(C)CC(C(=O)C(=O)NCC(=O)NC(CCSC)C(=O)NC(CO)C(=O)NC(CC1=CC=C(C=C1)O)C(=O)NC(CO)C(=O)N)NC(=O)C2CCCN2C(=O)C(C(C)C)NC(=O)C(C(C)C)NC(=O)C(CCC(=O)O)NC(=O)C(CCC(=O)O)NC(=O)C
> <PUBCHEM_OPENEYE_ISO_SMILES>
CC(C)C[C@@H](C(=O)C(=O)NCC(=O)N[C@@H](CCSC)C(=O)N[C@@H](CO)C(=O)N[C@@H](CC1=CC=C(C=C1)O)C(=O)N[C@@H](CO)C(=O)N)NC(=O)C2CCCN2C(=O)[C@H](C(C)C)NC(=O)[C@H](C(C)C)NC(=O)[C@H](CCC(=O)O)NC(=O)[C@H](CCC(=O)O)NC(=O)C
> <PUBCHEM_CACTVS_TPSA>
532
> <PUBCHEM_MONOISOTOPIC_WEIGHT>
1278.58020435
> <PUBCHEM_TOTAL_CHARGE>
0
> <PUBCHEM_HEAVY_ATOM_COUNT>
89
> <PUBCHEM_ATOM_DEF_STEREO_COUNT>
9
> <PUBCHEM_ATOM_UDEF_STEREO_COUNT>
1
> <PUBCHEM_BOND_DEF_STEREO_COUNT>
0
> <PUBCHEM_BOND_UDEF_STEREO_COUNT>
0
> <PUBCHEM_ISOTOPIC_ATOM_COUNT>
0
> <PUBCHEM_COMPONENT_COUNT>
1
> <PUBCHEM_CACTVS_TAUTO_COUNT>
-1
> <PUBCHEM_COORDINATE_TYPE>
1
5
255
> <PUBCHEM_BONDANNOTATIONS>
42  23  5
38  24  5
46  25  6
57  27  5
62  28  6
66  29  6
73  30  5
75  31  6
81  32  6
34  40  3
80  83  8
80  84  8
83  86  8
84  87  8
86  89  8
87  89  8
$$$$
