504418
  -OEChem-10302200282D
 75 80  0     1  0  0  0  0  0999 V2000
   14.0661    0.7844    0.0000 F   0  0  0  0  0  0  0  0  0  0  0  0
   10.0312    3.7275    0.0000 F   0  0  0  0  0  0  0  0  0  0  0  0
   12.2901   -2.2224    0.0000 O   0  0  0  0  0  0  0  0  0  0  0  0
    5.2839    1.9821    0.0000 O   0  0  0  0  0  0  0  0  0  0  0  0
   16.6539   -1.7040    0.0000 O   0  0  0  0  0  0  0  0  0  0  0  0
   16.7004   -4.6846    0.0000 O   0  0  0  0  0  0  0  0  0  0  0  0
    6.4053    0.5972    0.0000 O   0  0  0  0  0  0  0  0  0  0  0  0
   17.5367   -3.1679    0.0000 O   0  0  0  0  0  0  0  0  0  0  0  0
    3.1590    4.9840    0.0000 O   0  0  0  0  0  0  0  0  0  0  0  0
   12.3341   -0.2156    0.0000 N   0  0  3  0  0  0  0  0  0  0  0  0
   10.8446    1.9004    0.0000 N   0  0  3  0  0  0  0  0  0  0  0  0
   14.0822   -3.2571    0.0000 N   0  0  0  0  0  0  0  0  0  0  0  0
    6.8666    2.3185    0.0000 N   0  0  0  0  0  0  0  0  0  0  0  0
    3.6942    3.3367    0.0000 N   0  0  0  0  0  0  0  0  0  0  0  0
   11.2514    0.9868    0.0000 C   0  0  3  0  0  0  0  0  0  0  0  0
   12.2295    0.7789    0.0000 C   0  0  0  0  0  0  0  0  0  0  0  0
   10.7514    0.1208    0.0000 C   0  0  0  0  0  0  0  0  0  0  0  0
   11.4205   -0.6223    0.0000 C   0  0  0  0  0  0  0  0  0  0  0  0
   13.2001   -0.7156    0.0000 C   0  0  0  0  0  0  0  0  0  0  0  0
   13.2001   -1.7156    0.0000 C   0  0  0  0  0  0  0  0  0  0  0  0
   14.0661   -2.2156    0.0000 C   0  0  0  0  0  0  0  0  0  0  0  0
   13.1841   -3.7848    0.0000 C   0  0  3  0  0  0  0  0  0  0  0  0
    9.8501    2.0049    0.0000 C   0  0  0  0  0  0  0  0  0  0  0  0
   14.0661   -0.2156    0.0000 C   0  0  0  0  0  0  0  0  0  0  0  0
   11.4324    2.7094    0.0000 C   0  0  0  0  0  0  0  0  0  0  0  0
   14.9321   -1.7156    0.0000 C   0  0  0  0  0  0  0  0  0  0  0  0
   12.2820   -3.2640    0.0000 C   0  0  0  0  0  0  0  0  0  0  0  0
   14.9321   -0.7156    0.0000 C   0  0  0  0  0  0  0  0  0  0  0  0
   14.9593   -3.7198    0.0000 C   0  0  0  0  0  0  0  0  0  0  0  0
   13.1880   -4.7848    0.0000 C   0  0  0  0  0  0  0  0  0  0  0  0
   15.7916   -2.2104    0.0000 C   0  0  0  0  0  0  0  0  0  0  0  0
    9.4434    2.9185    0.0000 C   0  0  0  0  0  0  0  0  0  0  0  0
    9.2623    1.1959    0.0000 C   0  0  0  0  0  0  0  0  0  0  0  0
   15.8050   -3.2020    0.0000 C   0  0  0  0  0  0  0  0  0  0  0  0
    7.8611    2.2140    0.0000 C   0  0  0  0  0  0  0  0  0  0  0  0
    8.4489    3.0230    0.0000 C   0  0  0  0  0  0  0  0  0  0  0  0
    8.2678    1.3004    0.0000 C   0  0  0  0  0  0  0  0  0  0  0  0
    6.3666    3.1845    0.0000 C   0  0  0  0  0  0  0  0  0  0  0  0
    5.3884    2.9766    0.0000 C   0  0  2  0  0  0  0  0  0  0  0  0
    6.1974    1.5754    0.0000 C   0  0  0  0  0  0  0  0  0  0  0  0
    4.6453    3.6457    0.0000 C   0  0  0  0  0  0  0  0  0  0  0  0
   16.6807   -3.6848    0.0000 C   0  0  0  0  0  0  0  0  0  0  0  0
    2.9511    4.0059    0.0000 C   0  0  0  0  0  0  0  0  0  0  0  0
    2.0000    3.6968    0.0000 C   0  0  0  0  0  0  0  0  0  0  0  0
   10.6322    1.0193    0.0000 H   0  0  0  0  0  0  0  0  0  0  0  0
   12.8495    0.7789    0.0000 H   0  0  0  0  0  0  0  0  0  0  0  0
   12.2943    1.3955    0.0000 H   0  0  0  0  0  0  0  0  0  0  0  0
   10.2498    0.4852    0.0000 H   0  0  0  0  0  0  0  0  0  0  0  0
   10.3365   -0.3399    0.0000 H   0  0  0  0  0  0  0  0  0  0  0  0
   10.9189   -0.9868    0.0000 H   0  0  0  0  0  0  0  0  0  0  0  0
   11.7305   -1.1593    0.0000 H   0  0  0  0  0  0  0  0  0  0  0  0
   13.7228   -4.0918    0.0000 H   0  0  0  0  0  0  0  0  0  0  0  0
   11.9340    2.3450    0.0000 H   0  0  0  0  0  0  0  0  0  0  0  0
   11.7969    3.2110    0.0000 H   0  0  0  0  0  0  0  0  0  0  0  0
   10.9308    3.0738    0.0000 H   0  0  0  0  0  0  0  0  0  0  0  0
   11.6720   -3.1532    0.0000 H   0  0  0  0  0  0  0  0  0  0  0  0
   12.0685   -3.8461    0.0000 H   0  0  0  0  0  0  0  0  0  0  0  0
   15.4691   -0.4056    0.0000 H   0  0  0  0  0  0  0  0  0  0  0  0
   14.9791   -4.3395    0.0000 H   0  0  0  0  0  0  0  0  0  0  0  0
   12.5680   -4.7872    0.0000 H   0  0  0  0  0  0  0  0  0  0  0  0
   13.1904   -5.4048    0.0000 H   0  0  0  0  0  0  0  0  0  0  0  0
   13.8080   -4.7825    0.0000 H   0  0  0  0  0  0  0  0  0  0  0  0
    9.5145    0.6295    0.0000 H   0  0  0  0  0  0  0  0  0  0  0  0
    8.1967    3.5894    0.0000 H   0  0  0  0  0  0  0  0  0  0  0  0
    7.9034    0.7988    0.0000 H   0  0  0  0  0  0  0  0  0  0  0  0
    6.9330    3.4367    0.0000 H   0  0  0  0  0  0  0  0  0  0  0  0
    6.1750    3.7742    0.0000 H   0  0  0  0  0  0  0  0  0  0  0  0
    4.8096    2.7544    0.0000 H   0  0  0  0  0  0  0  0  0  0  0  0
    5.1338    4.0274    0.0000 H   0  0  0  0  0  0  0  0  0  0  0  0
    4.3542    4.1932    0.0000 H   0  0  0  0  0  0  0  0  0  0  0  0
    3.5653    2.7303    0.0000 H   0  0  0  0  0  0  0  0  0  0  0  0
   17.2434   -4.9840    0.0000 H   0  0  0  0  0  0  0  0  0  0  0  0
    1.8084    4.2865    0.0000 H   0  0  0  0  0  0  0  0  0  0  0  0
    1.4103    3.5052    0.0000 H   0  0  0  0  0  0  0  0  0  0  0  0
    2.1916    3.1072    0.0000 H   0  0  0  0  0  0  0  0  0  0  0  0
  1 24  1  0  0  0  0
  2 32  1  0  0  0  0
  3 20  1  0  0  0  0
  3 27  1  0  0  0  0
  4 39  1  0  0  0  0
  4 40  1  0  0  0  0
  5 31  2  0  0  0  0
  6 42  1  0  0  0  0
  6 72  1  0  0  0  0
  7 40  2  0  0  0  0
  8 42  2  0  0  0  0
  9 43  2  0  0  0  0
 10 16  1  0  0  0  0
 10 18  1  0  0  0  0
 10 19  1  0  0  0  0
 11 15  1  0  0  0  0
 11 23  1  0  0  0  0
 11 25  1  0  0  0  0
 12 21  1  0  0  0  0
 12 22  1  0  0  0  0
 12 29  1  0  0  0  0
 13 35  1  0  0  0  0
 13 38  1  0  0  0  0
 13 40  1  0  0  0  0
 14 41  1  0  0  0  0
 14 43  1  0  0  0  0
 14 71  1  0  0  0  0
 15 16  1  0  0  0  0
 15 17  1  0  0  0  0
 15 45  1  0  0  0  0
 16 46  1  0  0  0  0
 16 47  1  0  0  0  0
 17 18  1  0  0  0  0
 17 48  1  0  0  0  0
 17 49  1  0  0  0  0
 18 50  1  0  0  0  0
 18 51  1  0  0  0  0
 19 20  1  0  0  0  0
 19 24  2  0  0  0  0
 20 21  2  0  0  0  0
 21 26  1  0  0  0  0
 22 27  1  0  0  0  0
 22 30  1  0  0  0  0
 22 52  1  0  0  0  0
 23 32  2  0  0  0  0
 23 33  1  0  0  0  0
 24 28  1  0  0  0  0
 25 53  1  0  0  0  0
 25 54  1  0  0  0  0
 25 55  1  0  0  0  0
 26 28  2  0  0  0  0
 26 31  1  0  0  0  0
 27 56  1  0  0  0  0
 27 57  1  0  0  0  0
 28 58  1  0  0  0  0
 29 34  2  0  0  0  0
 29 59  1  0  0  0  0
 30 60  1  0  0  0  0
 30 61  1  0  0  0  0
 30 62  1  0  0  0  0
 31 34  1  0  0  0  0
 32 36  1  0  0  0  0
 33 37  2  0  0  0  0
 33 63  1  0  0  0  0
 34 42  1  0  0  0  0
 35 36  2  0  0  0  0
 35 37  1  0  0  0  0
 36 64  1  0  0  0  0
 37 65  1  0  0  0  0
 38 39  1  0  0  0  0
 38 66  1  0  0  0  0
 38 67  1  0  0  0  0
 39 41  1  1  0  0  0
 39 68  1  0  0  0  0
 41 69  1  0  0  0  0
 41 70  1  0  0  0  0
 43 44  1  0  0  0  0
 44 73  1  0  0  0  0
 44 74  1  0  0  0  0
 44 75  1  0  0  0  0
M  END
> <PUBCHEM_COMPOUND_CID>
504418
> <PUBCHEM_COMPOUND_CANONICALIZED>
1
> <PUBCHEM_CACTVS_COMPLEXITY>
1210
> <PUBCHEM_CACTVS_HBOND_ACCEPTOR>
12
> <PUBCHEM_CACTVS_HBOND_DONOR>
2
> <PUBCHEM_CACTVS_ROTATABLE_BOND>
7
> <PUBCHEM_CACTVS_SUBSKEYS>
AAADceB7uYAAAAAAAAAAAAAAAAAAAWLAAAA8YIEAAAAAAACxQAAAHwAQCAAADDzhmA4yzoPABgCIAqXWWACCCAAlIgAIiIENbMgOZj7M9dufeajk9hHY+cea2bOeCACBAAQCEAAQAQIACAQgAAAAAAAAAA==
> <PUBCHEM_IUPAC_OPENEYE_NAME>
6-[3-[4-[(5S)-5-(acetamidomethyl)-2-oxo-oxazolidin-3-yl]-2-fluoro-N-methyl-anilino]pyrrolidin-1-yl]-7-fluoro-2-methyl-10-oxo-4-oxa-1-azatricyclo[7.3.1.05,13]trideca-5(13),6,8,11-tetraene-11-carboxylic acid
> <PUBCHEM_IUPAC_CAS_NAME>
6-[3-[4-[(5S)-5-(acetamidomethyl)-2-oxo-3-oxazolidinyl]-2-fluoro-N-methylanilino]-1-pyrrolidinyl]-7-fluoro-2-methyl-10-oxo-4-oxa-1-azatricyclo[7.3.1.05,13]trideca-5(13),6,8,11-tetraene-11-carboxylic acid
> <PUBCHEM_IUPAC_NAME_MARKUP>
6-[3-[4-[(5<I>S</I>)-5-(acetamidomethyl)-2-oxo-1,3-oxazolidin-3-yl]-2-fluoro-<I>N</I>-methylanilino]pyrrolidin-1-yl]-7-fluoro-2-methyl-10-oxo-4-oxa-1-azatricyclo[7.3.1.0<SUP>5,13</SUP>]trideca-5(13),6,8,11-tetraene-11-carboxylic acid
> <PUBCHEM_IUPAC_NAME>
6-[3-[4-[(5S)-5-(acetamidomethyl)-2-oxo-1,3-oxazolidin-3-yl]-2-fluoro-N-methylanilino]pyrrolidin-1-yl]-7-fluoro-2-methyl-10-oxo-4-oxa-1-azatricyclo[7.3.1.05,13]trideca-5(13),6,8,11-tetraene-11-carboxylic acid
> <PUBCHEM_IUPAC_SYSTEMATIC_NAME>
6-[3-[[4-[(5S)-5-(acetamidomethyl)-2-oxidanylidene-1,3-oxazolidin-3-yl]-2-fluoranyl-phenyl]-methyl-amino]pyrrolidin-1-yl]-7-fluoranyl-2-methyl-10-oxidanylidene-4-oxa-1-azatricyclo[7.3.1.05,13]trideca-5(13),6,8,11-tetraene-11-carboxylic acid
> <PUBCHEM_IUPAC_TRADITIONAL_NAME>
6-[3-[4-[(5S)-5-(acetamidomethyl)-2-keto-oxazolidin-3-yl]-2-fluoro-N-methyl-anilino]pyrrolidino]-7-fluoro-10-keto-2-methyl-4-oxa-1-azatricyclo[7.3.1.05,13]trideca-5(13),6,8,11-tetraene-11-carboxylic acid
> <PUBCHEM_IUPAC_INCHI>
InChI=1S/C30H31F2N5O7/c1-15-14-43-28-25-20(27(39)21(29(40)41)13-36(15)25)9-23(32)26(28)35-7-6-18(11-35)34(3)24-5-4-17(8-22(24)31)37-12-19(44-30(37)42)10-33-16(2)38/h4-5,8-9,13,15,18-19H,6-7,10-12,14H2,1-3H3,(H,33,38)(H,40,41)/t15?,18?,19-/m0/s1
> <PUBCHEM_IUPAC_INCHIKEY>
AQLMIPGGOYKZPA-PPSBMQLTSA-N
> <PUBCHEM_XLOGP3_AA>
3.4
> <PUBCHEM_EXACT_MASS>
611.21915467
> <PUBCHEM_MOLECULAR_FORMULA>
C30H31F2N5O7
> <PUBCHEM_MOLECULAR_WEIGHT>
611.6
> <PUBCHEM_OPENEYE_CAN_SMILES>
CC1COC2=C3N1C=C(C(=O)C3=CC(=C2N4CCC(C4)N(C)C5=C(C=C(C=C5)N6CC(OC6=O)CNC(=O)C)F)F)C(=O)O
> <PUBCHEM_OPENEYE_ISO_SMILES>
CC1COC2=C3N1C=C(C(=O)C3=CC(=C2N4CCC(C4)N(C)C5=C(C=C(C=C5)N6C[C@@H](OC6=O)CNC(=O)C)F)F)C(=O)O
> <PUBCHEM_CACTVS_TPSA>
132
> <PUBCHEM_MONOISOTOPIC_WEIGHT>
611.21915467
> <PUBCHEM_TOTAL_CHARGE>
0
> <PUBCHEM_HEAVY_ATOM_COUNT>
44
> <PUBCHEM_ATOM_DEF_STEREO_COUNT>
1
> <PUBCHEM_ATOM_UDEF_STEREO_COUNT>
2
> <PUBCHEM_BOND_DEF_STEREO_COUNT>
0
> <PUBCHEM_BOND_UDEF_STEREO_COUNT>
0
> <PUBCHEM_ISOTOPIC_ATOM_COUNT>
0
> <PUBCHEM_COMPONENT_COUNT>
1
> <PUBCHEM_CACTVS_TAUTO_COUNT>
-1
> <PUBCHEM_COORDINATE_TYPE>
1
5
255
> <PUBCHEM_BONDANNOTATIONS>
15  11  3
12  21  8
12  29  8
19  20  8
19  24  8
20  21  8
21  26  8
22  30  3
23  32  8
23  33  8
24  28  8
26  28  8
26  31  8
29  34  8
31  34  8
32  36  8
33  37  8
35  36  8
35  37  8
39  41  5
$$$$
