504427
  -OEChem-10302200282D
 70 74  0     1  0  0  0  0  0999 V2000
   12.8134    0.9542    0.0000 F   0  0  0  0  0  0  0  0  0  0  0  0
    7.6172    1.9542    0.0000 F   0  0  0  0  0  0  0  0  0  0  0  0
   11.0813    3.9542    0.0000 F   0  0  0  0  0  0  0  0  0  0  0  0
   15.4104   -0.5903    0.0000 F   0  0  0  0  0  0  0  0  0  0  0  0
    4.3025   -1.3822    0.0000 O   0  0  0  0  0  0  0  0  0  0  0  0
    4.7637    0.3391    0.0000 O   0  0  0  0  0  0  0  0  0  0  0  0
   14.5618    4.9888    0.0000 O   0  0  0  0  0  0  0  0  0  0  0  0
   17.2115    3.4817    0.0000 O   0  0  0  0  0  0  0  0  0  0  0  0
   16.3397    4.9784    0.0000 O   0  0  0  0  0  0  0  0  0  0  0  0
    3.5823   -4.9888    0.0000 O   0  0  0  0  0  0  0  0  0  0  0  0
   11.0813    1.9542    0.0000 N   0  0  0  0  0  0  0  0  0  0  0  0
    9.3493    0.9542    0.0000 N   0  0  0  0  0  0  0  0  0  0  0  0
    5.8852   -1.0458    0.0000 N   0  0  0  0  0  0  0  0  0  0  0  0
   14.5734    1.9196    0.0000 N   0  0  0  0  0  0  0  0  0  0  0  0
    3.4013   -3.2663    0.0000 N   0  0  0  0  0  0  0  0  0  0  0  0
   10.2153    2.4542    0.0000 C   0  0  0  0  0  0  0  0  0  0  0  0
   11.0813    0.9542    0.0000 C   0  0  0  0  0  0  0  0  0  0  0  0
    9.3493    1.9542    0.0000 C   0  0  0  0  0  0  0  0  0  0  0  0
   10.2153    0.4542    0.0000 C   0  0  0  0  0  0  0  0  0  0  0  0
   11.9474    2.4542    0.0000 C   0  0  0  0  0  0  0  0  0  0  0  0
    8.4833    0.4542    0.0000 C   0  0  0  0  0  0  0  0  0  0  0  0
    4.8025   -2.2482    0.0000 C   0  0  2  0  0  0  0  0  0  0  0  0
    5.7807   -2.0403    0.0000 C   0  0  0  0  0  0  0  0  0  0  0  0
   12.8134    1.9542    0.0000 C   0  0  0  0  0  0  0  0  0  0  0  0
   13.6794    2.4542    0.0000 C   0  0  0  0  0  0  0  0  0  0  0  0
    6.7512   -0.5458    0.0000 C   0  0  0  0  0  0  0  0  0  0  0  0
    7.6172    0.9542    0.0000 C   0  0  0  0  0  0  0  0  0  0  0  0
    8.4833   -0.5458    0.0000 C   0  0  0  0  0  0  0  0  0  0  0  0
   11.9474    3.4542    0.0000 C   0  0  0  0  0  0  0  0  0  0  0  0
   13.6794    3.4542    0.0000 C   0  0  0  0  0  0  0  0  0  0  0  0
    6.7512    0.4542    0.0000 C   0  0  0  0  0  0  0  0  0  0  0  0
    7.6172   -1.0458    0.0000 C   0  0  0  0  0  0  0  0  0  0  0  0
   12.8134    3.9542    0.0000 C   0  0  0  0  0  0  0  0  0  0  0  0
    4.3958   -3.1617    0.0000 C   0  0  0  0  0  0  0  0  0  0  0  0
    4.9716   -0.6390    0.0000 C   0  0  0  0  0  0  0  0  0  0  0  0
   14.5734    3.9889    0.0000 C   0  0  0  0  0  0  0  0  0  0  0  0
   14.5618    0.9196    0.0000 C   0  0  0  0  0  0  0  0  0  0  0  0
   15.4794    2.4334    0.0000 C   0  0  0  0  0  0  0  0  0  0  0  0
   15.4794    3.4750    0.0000 C   0  0  0  0  0  0  0  0  0  0  0  0
   15.4220    0.4097    0.0000 C   0  0  0  0  0  0  0  0  0  0  0  0
   16.3435    3.9784    0.0000 C   0  0  0  0  0  0  0  0  0  0  0  0
    2.9945   -4.1798    0.0000 C   0  0  0  0  0  0  0  0  0  0  0  0
    2.0000   -4.2843    0.0000 C   0  0  0  0  0  0  0  0  0  0  0  0
   10.6138    2.9292    0.0000 H   0  0  0  0  0  0  0  0  0  0  0  0
    9.8168    2.9292    0.0000 H   0  0  0  0  0  0  0  0  0  0  0  0
   11.2934    0.3716    0.0000 H   0  0  0  0  0  0  0  0  0  0  0  0
   11.6919    1.0619    0.0000 H   0  0  0  0  0  0  0  0  0  0  0  0
    9.1372    2.5368    0.0000 H   0  0  0  0  0  0  0  0  0  0  0  0
    8.7387    1.8466    0.0000 H   0  0  0  0  0  0  0  0  0  0  0  0
    9.8168   -0.0207    0.0000 H   0  0  0  0  0  0  0  0  0  0  0  0
   10.6138   -0.0207    0.0000 H   0  0  0  0  0  0  0  0  0  0  0  0
    4.1834   -2.2806    0.0000 H   0  0  0  0  0  0  0  0  0  0  0  0
    5.8455   -2.6569    0.0000 H   0  0  0  0  0  0  0  0  0  0  0  0
    6.4007   -2.0403    0.0000 H   0  0  0  0  0  0  0  0  0  0  0  0
    9.0202   -0.8558    0.0000 H   0  0  0  0  0  0  0  0  0  0  0  0
    6.2143    0.7642    0.0000 H   0  0  0  0  0  0  0  0  0  0  0  0
    7.6172   -1.6658    0.0000 H   0  0  0  0  0  0  0  0  0  0  0  0
   12.8134    4.5742    0.0000 H   0  0  0  0  0  0  0  0  0  0  0  0
    4.3525   -3.7802    0.0000 H   0  0  0  0  0  0  0  0  0  0  0  0
    4.9974   -3.3117    0.0000 H   0  0  0  0  0  0  0  0  0  0  0  0
   13.9525    1.0344    0.0000 H   0  0  0  0  0  0  0  0  0  0  0  0
   14.3430    0.3395    0.0000 H   0  0  0  0  0  0  0  0  0  0  0  0
   16.0152    2.1214    0.0000 H   0  0  0  0  0  0  0  0  0  0  0  0
    3.0368   -2.7647    0.0000 H   0  0  0  0  0  0  0  0  0  0  0  0
   16.0313    0.2949    0.0000 H   0  0  0  0  0  0  0  0  0  0  0  0
   15.6408    0.9898    0.0000 H   0  0  0  0  0  0  0  0  0  0  0  0
    1.9352   -3.6677    0.0000 H   0  0  0  0  0  0  0  0  0  0  0  0
    1.3834   -4.3492    0.0000 H   0  0  0  0  0  0  0  0  0  0  0  0
    2.0648   -4.9010    0.0000 H   0  0  0  0  0  0  0  0  0  0  0  0
   17.7472    3.7938    0.0000 H   0  0  0  0  0  0  0  0  0  0  0  0
  1 24  1  0  0  0  0
  2 27  1  0  0  0  0
  3 29  1  0  0  0  0
  4 40  1  0  0  0  0
  5 22  1  0  0  0  0
  5 35  1  0  0  0  0
  6 35  2  0  0  0  0
  7 36  2  0  0  0  0
  8 41  1  0  0  0  0
  8 70  1  0  0  0  0
  9 41  2  0  0  0  0
 10 42  2  0  0  0  0
 11 16  1  0  0  0  0
 11 17  1  0  0  0  0
 11 20  1  0  0  0  0
 12 18  1  0  0  0  0
 12 19  1  0  0  0  0
 12 21  1  0  0  0  0
 13 23  1  0  0  0  0
 13 26  1  0  0  0  0
 13 35  1  0  0  0  0
 14 25  1  0  0  0  0
 14 37  1  0  0  0  0
 14 38  1  0  0  0  0
 15 34  1  0  0  0  0
 15 42  1  0  0  0  0
 15 64  1  0  0  0  0
 16 18  1  0  0  0  0
 16 44  1  0  0  0  0
 16 45  1  0  0  0  0
 17 19  1  0  0  0  0
 17 46  1  0  0  0  0
 17 47  1  0  0  0  0
 18 48  1  0  0  0  0
 18 49  1  0  0  0  0
 19 50  1  0  0  0  0
 19 51  1  0  0  0  0
 20 24  1  0  0  0  0
 20 29  2  0  0  0  0
 21 27  2  0  0  0  0
 21 28  1  0  0  0  0
 22 23  1  0  0  0  0
 22 34  1  6  0  0  0
 22 52  1  0  0  0  0
 23 53  1  0  0  0  0
 23 54  1  0  0  0  0
 24 25  2  0  0  0  0
 25 30  1  0  0  0  0
 26 31  2  0  0  0  0
 26 32  1  0  0  0  0
 27 31  1  0  0  0  0
 28 32  2  0  0  0  0
 28 55  1  0  0  0  0
 29 33  1  0  0  0  0
 30 33  2  0  0  0  0
 30 36  1  0  0  0  0
 31 56  1  0  0  0  0
 32 57  1  0  0  0  0
 33 58  1  0  0  0  0
 34 59  1  0  0  0  0
 34 60  1  0  0  0  0
 36 39  1  0  0  0  0
 37 40  1  0  0  0  0
 37 61  1  0  0  0  0
 37 62  1  0  0  0  0
 38 39  2  0  0  0  0
 38 63  1  0  0  0  0
 39 41  1  0  0  0  0
 40 65  1  0  0  0  0
 40 66  1  0  0  0  0
 42 43  1  0  0  0  0
 43 67  1  0  0  0  0
 43 68  1  0  0  0  0
 43 69  1  0  0  0  0
M  END
> <PUBCHEM_COMPOUND_CID>
504427
> <PUBCHEM_COMPOUND_CANONICALIZED>
1
> <PUBCHEM_CACTVS_COMPLEXITY>
1120
> <PUBCHEM_CACTVS_HBOND_ACCEPTOR>
13
> <PUBCHEM_CACTVS_HBOND_DONOR>
2
> <PUBCHEM_CACTVS_ROTATABLE_BOND>
8
> <PUBCHEM_CACTVS_SUBSKEYS>
AAADceB7ucAAAAAAAAAAAAAAAAAAAWAAAAA8YIEAAAAAAACBQAAAHwAQCAAADBzhmA4yyIPABgCIAqXWWACCAAAlAgAIiIEIZMgKZD7I1dGdYYhktgDY2ceY2aOeCACAAAQCAAAQAQAACAQAAAAAAAAAAA==
> <PUBCHEM_IUPAC_OPENEYE_NAME>
7-[4-[4-[(5S)-5-(acetamidomethyl)-2-oxo-oxazolidin-3-yl]-2-fluoro-phenyl]piperazin-1-yl]-6,8-difluoro-1-(2-fluoroethyl)-4-oxo-quinoline-3-carboxylic acid
> <PUBCHEM_IUPAC_CAS_NAME>
7-[4-[4-[(5S)-5-(acetamidomethyl)-2-oxo-3-oxazolidinyl]-2-fluorophenyl]-1-piperazinyl]-6,8-difluoro-1-(2-fluoroethyl)-4-oxo-3-quinolinecarboxylic acid
> <PUBCHEM_IUPAC_NAME_MARKUP>
7-[4-[4-[(5<I>S</I>)-5-(acetamidomethyl)-2-oxo-1,3-oxazolidin-3-yl]-2-fluorophenyl]piperazin-1-yl]-6,8-difluoro-1-(2-fluoroethyl)-4-oxoquinoline-3-carboxylic acid
> <PUBCHEM_IUPAC_NAME>
7-[4-[4-[(5S)-5-(acetamidomethyl)-2-oxo-1,3-oxazolidin-3-yl]-2-fluorophenyl]piperazin-1-yl]-6,8-difluoro-1-(2-fluoroethyl)-4-oxoquinoline-3-carboxylic acid
> <PUBCHEM_IUPAC_SYSTEMATIC_NAME>
7-[4-[4-[(5S)-5-(acetamidomethyl)-2-oxidanylidene-1,3-oxazolidin-3-yl]-2-fluoranyl-phenyl]piperazin-1-yl]-6,8-bis(fluoranyl)-1-(2-fluoranylethyl)-4-oxidanylidene-quinoline-3-carboxylic acid
> <PUBCHEM_IUPAC_TRADITIONAL_NAME>
7-[4-[4-[(5S)-5-(acetamidomethyl)-2-keto-oxazolidin-3-yl]-2-fluoro-phenyl]piperazino]-6,8-difluoro-1-(2-fluoroethyl)-4-keto-quinoline-3-carboxylic acid
> <PUBCHEM_IUPAC_INCHI>
InChI=1S/C28H27F4N5O6/c1-15(38)33-12-17-13-37(28(42)43-17)16-2-3-22(20(30)10-16)34-6-8-35(9-7-34)25-21(31)11-18-24(23(25)32)36(5-4-29)14-19(26(18)39)27(40)41/h2-3,10-11,14,17H,4-9,12-13H2,1H3,(H,33,38)(H,40,41)/t17-/m0/s1
> <PUBCHEM_IUPAC_INCHIKEY>
APARFHVADSWERH-KRWDZBQOSA-N
> <PUBCHEM_XLOGP3_AA>
3.3
> <PUBCHEM_EXACT_MASS>
605.18974625
> <PUBCHEM_MOLECULAR_FORMULA>
C28H27F4N5O6
> <PUBCHEM_MOLECULAR_WEIGHT>
605.5
> <PUBCHEM_OPENEYE_CAN_SMILES>
CC(=O)NCC1CN(C(=O)O1)C2=CC(=C(C=C2)N3CCN(CC3)C4=C(C=C5C(=C4F)N(C=C(C5=O)C(=O)O)CCF)F)F
> <PUBCHEM_OPENEYE_ISO_SMILES>
CC(=O)NC[C@H]1CN(C(=O)O1)C2=CC(=C(C=C2)N3CCN(CC3)C4=C(C=C5C(=C4F)N(C=C(C5=O)C(=O)O)CCF)F)F
> <PUBCHEM_CACTVS_TPSA>
123
> <PUBCHEM_MONOISOTOPIC_WEIGHT>
605.18974625
> <PUBCHEM_TOTAL_CHARGE>
0
> <PUBCHEM_HEAVY_ATOM_COUNT>
43
> <PUBCHEM_ATOM_DEF_STEREO_COUNT>
1
> <PUBCHEM_ATOM_UDEF_STEREO_COUNT>
0
> <PUBCHEM_BOND_DEF_STEREO_COUNT>
0
> <PUBCHEM_BOND_UDEF_STEREO_COUNT>
0
> <PUBCHEM_ISOTOPIC_ATOM_COUNT>
0
> <PUBCHEM_COMPONENT_COUNT>
1
> <PUBCHEM_CACTVS_TAUTO_COUNT>
-1
> <PUBCHEM_COORDINATE_TYPE>
1
5
255
> <PUBCHEM_BONDANNOTATIONS>
14  25  8
14  38  8
20  24  8
20  29  8
21  27  8
21  28  8
22  34  6
24  25  8
25  30  8
26  31  8
26  32  8
27  31  8
28  32  8
29  33  8
30  33  8
30  36  8
36  39  8
38  39  8
$$$$
