504479
  -OEChem-10302200282D
 58 60  0     1  0  0  0  0  0999 V2000
    6.3981   -1.7830    0.0000 O   0  0  0  0  0  0  0  0  0  0  0  0
    3.7782    1.7485    0.0000 O   0  0  0  0  0  0  0  0  0  0  0  0
    5.5442    2.7863    0.0000 O   0  0  0  0  0  0  0  0  0  0  0  0
    7.3022   -0.2861    0.0000 O   0  0  0  0  0  0  0  0  0  0  0  0
    5.5321   -3.2830    0.0000 O   0  0  0  0  0  0  0  0  0  0  0  0
    3.8000   -0.2830    0.0000 C   0  0  3  0  0  0  0  0  0  0  0  0
    2.9061   -1.8176    0.0000 C   0  0  0  0  0  0  0  0  0  0  0  0
    3.8000   -1.2830    0.0000 C   0  0  0  0  0  0  0  0  0  0  0  0
    2.9061    0.2517    0.0000 C   0  0  0  0  0  0  0  0  0  0  0  0
    2.0000   -1.3038    0.0000 C   0  0  0  0  0  0  0  0  0  0  0  0
    2.0000   -0.2621    0.0000 C   0  0  0  0  0  0  0  0  0  0  0  0
    4.6660    0.2170    0.0000 C   0  0  0  0  0  0  0  0  0  0  0  0
    3.8000    0.7170    0.0000 C   0  0  0  0  0  0  0  0  0  0  0  0
    4.6660   -1.7830    0.0000 C   0  0  0  0  0  0  0  0  0  0  0  0
    5.5321   -0.2830    0.0000 C   0  0  0  0  0  0  0  0  0  0  0  0
    5.5321   -1.2830    0.0000 C   0  0  3  0  0  0  0  0  0  0  0  0
    2.4161   -2.6894    0.0000 C   0  0  0  0  0  0  0  0  0  0  0  0
    3.4160   -2.6778    0.0000 C   0  0  0  0  0  0  0  0  0  0  0  0
    4.6500    1.2586    0.0000 C   0  0  0  0  0  0  0  0  0  0  0  0
    6.4421    0.2239    0.0000 C   0  0  0  0  0  0  0  0  0  0  0  0
    6.4501    1.2655    0.0000 C   0  0  0  0  0  0  0  0  0  0  0  0
    5.5480    1.7863    0.0000 C   0  0  0  0  0  0  0  0  0  0  0  0
    7.3180    1.7622    0.0000 C   0  0  0  0  0  0  0  0  0  0  0  0
    6.3981   -2.7830    0.0000 C   0  0  0  0  0  0  0  0  0  0  0  0
    7.3219    2.7621    0.0000 C   0  0  0  0  0  0  0  0  0  0  0  0
    8.1821    1.2588    0.0000 C   0  0  0  0  0  0  0  0  0  0  0  0
    4.6762    3.2830    0.0000 C   0  0  0  0  0  0  0  0  0  0  0  0
    7.2641   -3.2830    0.0000 C   0  0  0  0  0  0  0  0  0  0  0  0
    3.3107    0.7215    0.0000 H   0  0  0  0  0  0  0  0  0  0  0  0
    2.5124    0.7307    0.0000 H   0  0  0  0  0  0  0  0  0  0  0  0
    1.3891   -1.1977    0.0000 H   0  0  0  0  0  0  0  0  0  0  0  0
    1.7909   -1.8875    0.0000 H   0  0  0  0  0  0  0  0  0  0  0  0
    1.7909    0.3216    0.0000 H   0  0  0  0  0  0  0  0  0  0  0  0
    1.3891   -0.3682    0.0000 H   0  0  0  0  0  0  0  0  0  0  0  0
    4.4200    0.7170    0.0000 H   0  0  0  0  0  0  0  0  0  0  0  0
    3.8000    1.3370    0.0000 H   0  0  0  0  0  0  0  0  0  0  0  0
    3.1800    0.7170    0.0000 H   0  0  0  0  0  0  0  0  0  0  0  0
    4.6660   -2.4030    0.0000 H   0  0  0  0  0  0  0  0  0  0  0  0
    5.5321   -1.9030    0.0000 H   0  0  0  0  0  0  0  0  0  0  0  0
    1.8756   -2.3856    0.0000 H   0  0  0  0  0  0  0  0  0  0  0  0
    2.1123   -3.2298    0.0000 H   0  0  0  0  0  0  0  0  0  0  0  0
    2.9566   -2.9931    0.0000 H   0  0  0  0  0  0  0  0  0  0  0  0
    2.8827   -2.9940    0.0000 H   0  0  0  0  0  0  0  0  0  0  0  0
    3.7322   -3.2111    0.0000 H   0  0  0  0  0  0  0  0  0  0  0  0
    3.9494   -2.3616    0.0000 H   0  0  0  0  0  0  0  0  0  0  0  0
    7.8562    2.0701    0.0000 H   0  0  0  0  0  0  0  0  0  0  0  0
    7.9419    2.7598    0.0000 H   0  0  0  0  0  0  0  0  0  0  0  0
    7.3243    3.3821    0.0000 H   0  0  0  0  0  0  0  0  0  0  0  0
    6.7019    2.7645    0.0000 H   0  0  0  0  0  0  0  0  0  0  0  0
    7.8701    0.7231    0.0000 H   0  0  0  0  0  0  0  0  0  0  0  0
    8.7179    0.9467    0.0000 H   0  0  0  0  0  0  0  0  0  0  0  0
    8.4942    1.7946    0.0000 H   0  0  0  0  0  0  0  0  0  0  0  0
    4.9841    3.8211    0.0000 H   0  0  0  0  0  0  0  0  0  0  0  0
    4.1381    3.5909    0.0000 H   0  0  0  0  0  0  0  0  0  0  0  0
    4.3683    2.7448    0.0000 H   0  0  0  0  0  0  0  0  0  0  0  0
    6.9541   -3.8199    0.0000 H   0  0  0  0  0  0  0  0  0  0  0  0
    7.8010   -3.5930    0.0000 H   0  0  0  0  0  0  0  0  0  0  0  0
    7.5741   -2.7460    0.0000 H   0  0  0  0  0  0  0  0  0  0  0  0
  1 16  1  0  0  0  0
  1 24  1  0  0  0  0
  2 19  2  0  0  0  0
  3 22  1  0  0  0  0
  3 27  1  0  0  0  0
  4 20  2  0  0  0  0
  5 24  2  0  0  0  0
  6  8  1  0  0  0  0
  6  9  1  0  0  0  0
  6 12  1  0  0  0  0
  6 13  1  0  0  0  0
  7  8  1  0  0  0  0
  7 10  1  0  0  0  0
  7 17  1  0  0  0  0
  7 18  1  0  0  0  0
  8 14  2  0  0  0  0
  9 11  1  0  0  0  0
  9 29  1  0  0  0  0
  9 30  1  0  0  0  0
 10 11  1  0  0  0  0
 10 31  1  0  0  0  0
 10 32  1  0  0  0  0
 11 33  1  0  0  0  0
 11 34  1  0  0  0  0
 12 15  2  0  0  0  0
 12 19  1  0  0  0  0
 13 35  1  0  0  0  0
 13 36  1  0  0  0  0
 13 37  1  0  0  0  0
 14 16  1  0  0  0  0
 14 38  1  0  0  0  0
 15 16  1  0  0  0  0
 15 20  1  0  0  0  0
 16 39  1  0  0  0  0
 17 40  1  0  0  0  0
 17 41  1  0  0  0  0
 17 42  1  0  0  0  0
 18 43  1  0  0  0  0
 18 44  1  0  0  0  0
 18 45  1  0  0  0  0
 19 22  1  0  0  0  0
 20 21  1  0  0  0  0
 21 22  2  0  0  0  0
 21 23  1  0  0  0  0
 23 25  1  0  0  0  0
 23 26  1  0  0  0  0
 23 46  1  0  0  0  0
 24 28  1  0  0  0  0
 25 47  1  0  0  0  0
 25 48  1  0  0  0  0
 25 49  1  0  0  0  0
 26 50  1  0  0  0  0
 26 51  1  0  0  0  0
 26 52  1  0  0  0  0
 27 53  1  0  0  0  0
 27 54  1  0  0  0  0
 27 55  1  0  0  0  0
 28 56  1  0  0  0  0
 28 57  1  0  0  0  0
 28 58  1  0  0  0  0
M  END
> <PUBCHEM_COMPOUND_CID>
504479
> <PUBCHEM_COMPOUND_CANONICALIZED>
1
> <PUBCHEM_CACTVS_COMPLEXITY>
852
> <PUBCHEM_CACTVS_HBOND_ACCEPTOR>
5
> <PUBCHEM_CACTVS_HBOND_DONOR>
0
> <PUBCHEM_CACTVS_ROTATABLE_BOND>
4
> <PUBCHEM_CACTVS_SUBSKEYS>
AAADceB4OAAAAAAAAAAAAAAAAAAAAAAAAAAwQIAAAAAAAACAAAAAGgAAAAAADxSggAICCAAABACIAqDSCAIACAAgIAAACAFAAEgABBYAIAQCEAAE4AAIIQOIyPCPAAAAAAAAAAAAAAQAAAAAAAAAAAAAAA==
> <PUBCHEM_IUPAC_OPENEYE_NAME>
(7-isopropyl-6-methoxy-1,1,4a-trimethyl-5,8-dioxo-2,3,4,9-tetrahydrophenanthren-9-yl) acetate
> <PUBCHEM_IUPAC_CAS_NAME>
acetic acid (6-methoxy-1,1,4a-trimethyl-5,8-dioxo-7-propan-2-yl-2,3,4,9-tetrahydrophenanthren-9-yl) ester
> <PUBCHEM_IUPAC_NAME_MARKUP>
(6-methoxy-1,1,4<I>a</I>-trimethyl-5,8-dioxo-7-propan-2-yl-2,3,4,9-tetrahydrophenanthren-9-yl) acetate
> <PUBCHEM_IUPAC_NAME>
(6-methoxy-1,1,4a-trimethyl-5,8-dioxo-7-propan-2-yl-2,3,4,9-tetrahydrophenanthren-9-yl) acetate
> <PUBCHEM_IUPAC_SYSTEMATIC_NAME>
[6-methoxy-1,1,4a-trimethyl-5,8-bis(oxidanylidene)-7-propan-2-yl-2,3,4,9-tetrahydrophenanthren-9-yl] ethanoate
> <PUBCHEM_IUPAC_TRADITIONAL_NAME>
acetic acid (7-isopropyl-5,8-diketo-6-methoxy-1,1,4a-trimethyl-2,3,4,9-tetrahydrophenanthren-9-yl) ester
> <PUBCHEM_IUPAC_INCHI>
InChI=1S/C23H30O5/c1-12(2)16-19(25)17-14(28-13(3)24)11-15-22(4,5)9-8-10-23(15,6)18(17)20(26)21(16)27-7/h11-12,14H,8-10H2,1-7H3
> <PUBCHEM_IUPAC_INCHIKEY>
KRHKKRFFQDNBIN-UHFFFAOYSA-N
> <PUBCHEM_XLOGP3_AA>
4.3
> <PUBCHEM_EXACT_MASS>
386.20932405
> <PUBCHEM_MOLECULAR_FORMULA>
C23H30O5
> <PUBCHEM_MOLECULAR_WEIGHT>
386.5
> <PUBCHEM_OPENEYE_CAN_SMILES>
CC(C)C1=C(C(=O)C2=C(C1=O)C(C=C3C2(CCCC3(C)C)C)OC(=O)C)OC
> <PUBCHEM_OPENEYE_ISO_SMILES>
CC(C)C1=C(C(=O)C2=C(C1=O)C(C=C3C2(CCCC3(C)C)C)OC(=O)C)OC
> <PUBCHEM_CACTVS_TPSA>
69.7
> <PUBCHEM_MONOISOTOPIC_WEIGHT>
386.20932405
> <PUBCHEM_TOTAL_CHARGE>
0
> <PUBCHEM_HEAVY_ATOM_COUNT>
28
> <PUBCHEM_ATOM_DEF_STEREO_COUNT>
0
> <PUBCHEM_ATOM_UDEF_STEREO_COUNT>
2
> <PUBCHEM_BOND_DEF_STEREO_COUNT>
0
> <PUBCHEM_BOND_UDEF_STEREO_COUNT>
0
> <PUBCHEM_ISOTOPIC_ATOM_COUNT>
0
> <PUBCHEM_COMPONENT_COUNT>
1
> <PUBCHEM_CACTVS_TAUTO_COUNT>
-1
> <PUBCHEM_COORDINATE_TYPE>
1
5
255
> <PUBCHEM_BONDANNOTATIONS>
16  1  3
6  13  3
$$$$
