504527
  -OEChem-10302200282D
104108  0     1  0  0  0  0  0999 V2000
    7.9915    5.1618    0.0000 S   0  0  0  0  0  0  0  0  0  0  0  0
    5.3934   -2.3382    0.0000 O   0  0  0  0  0  0  0  0  0  0  0  0
    7.1254    1.6618    0.0000 O   0  0  0  0  0  0  0  0  0  0  0  0
   10.5895    0.6618    0.0000 O   0  0  0  0  0  0  0  0  0  0  0  0
    7.9915    2.1618    0.0000 O   0  0  0  0  0  0  0  0  0  0  0  0
   11.4556    3.1618    0.0000 O   0  0  0  0  0  0  0  0  0  0  0  0
    4.5274   -0.8382    0.0000 O   0  0  0  0  0  0  0  0  0  0  0  0
    7.9915    0.1618    0.0000 N   0  0  0  0  0  0  0  0  0  0  0  0
    9.7235    2.1618    0.0000 N   0  0  0  0  0  0  0  0  0  0  0  0
    6.2594   -0.8382    0.0000 N   0  0  0  0  0  0  0  0  0  0  0  0
   10.5895    4.6618    0.0000 N   0  0  0  0  0  0  0  0  0  0  0  0
    4.5274   -3.8382    0.0000 C   0  0  0  0  0  0  0  0  0  0  0  0
    5.3364   -4.4260    0.0000 C   0  0  0  0  0  0  0  0  0  0  0  0
    3.7183   -4.4260    0.0000 C   0  0  0  0  0  0  0  0  0  0  0  0
    5.0274   -5.3770    0.0000 C   0  0  0  0  0  0  0  0  0  0  0  0
    4.0274   -5.3770    0.0000 C   0  0  0  0  0  0  0  0  0  0  0  0
    4.5274   -2.8382    0.0000 C   0  0  0  0  0  0  0  0  0  0  0  0
    8.8575    0.6618    0.0000 C   0  0  2  0  0  0  0  0  0  0  0  0
    6.3518   -4.1938    0.0000 C   0  0  0  0  0  0  0  0  0  0  0  0
    2.7029   -4.1938    0.0000 C   0  0  0  0  0  0  0  0  0  0  0  0
    6.2594    0.1618    0.0000 C   0  0  2  0  0  0  0  0  0  0  0  0
    5.7123   -6.1618    0.0000 C   0  0  0  0  0  0  0  0  0  0  0  0
    3.3424   -6.1618    0.0000 C   0  0  0  0  0  0  0  0  0  0  0  0
    9.7235    3.1618    0.0000 C   0  0  1  0  0  0  0  0  0  0  0  0
    7.1254    0.6618    0.0000 C   0  0  0  0  0  0  0  0  0  0  0  0
   11.4556    5.1618    0.0000 C   0  0  0  0  0  0  0  0  0  0  0  0
    7.9915   -0.8382    0.0000 C   0  0  0  0  0  0  0  0  0  0  0  0
    5.3934    0.6618    0.0000 C   0  0  0  0  0  0  0  0  0  0  0  0
    8.8575    1.6618    0.0000 C   0  0  0  0  0  0  0  0  0  0  0  0
    7.0547   -4.9624    0.0000 C   0  0  0  0  0  0  0  0  0  0  0  0
    2.0000   -4.9624    0.0000 C   0  0  0  0  0  0  0  0  0  0  0  0
    6.7328   -5.9531    0.0000 C   0  0  0  0  0  0  0  0  0  0  0  0
    2.3219   -5.9531    0.0000 C   0  0  0  0  0  0  0  0  0  0  0  0
    8.8575    3.6618    0.0000 C   0  0  0  0  0  0  0  0  0  0  0  0
    9.7235    0.1618    0.0000 C   0  0  0  0  0  0  0  0  0  0  0  0
   10.5895    3.6618    0.0000 C   0  0  0  0  0  0  0  0  0  0  0  0
    5.3934   -1.3382    0.0000 C   0  0  0  0  0  0  0  0  0  0  0  0
    8.8575   -1.3382    0.0000 C   0  0  0  0  0  0  0  0  0  0  0  0
    5.3934    1.6618    0.0000 C   0  0  0  0  0  0  0  0  0  0  0  0
   12.3216    5.6618    0.0000 C   0  0  0  0  0  0  0  0  0  0  0  0
   10.9556    6.0278    0.0000 C   0  0  0  0  0  0  0  0  0  0  0  0
   11.9556    4.2958    0.0000 C   0  0  0  0  0  0  0  0  0  0  0  0
    8.8575    4.6618    0.0000 C   0  0  0  0  0  0  0  0  0  0  0  0
    8.8575   -2.3382    0.0000 C   0  0  0  0  0  0  0  0  0  0  0  0
    9.7235   -0.8382    0.0000 C   0  0  0  0  0  0  0  0  0  0  0  0
    4.5274    2.1618    0.0000 C   0  0  0  0  0  0  0  0  0  0  0  0
    6.2594    2.1618    0.0000 C   0  0  0  0  0  0  0  0  0  0  0  0
    9.7235   -2.8382    0.0000 C   0  0  0  0  0  0  0  0  0  0  0  0
   10.5895   -1.3382    0.0000 C   0  0  0  0  0  0  0  0  0  0  0  0
    4.5274    3.1618    0.0000 C   0  0  0  0  0  0  0  0  0  0  0  0
    6.2594    3.1618    0.0000 C   0  0  0  0  0  0  0  0  0  0  0  0
   10.5895   -2.3382    0.0000 C   0  0  0  0  0  0  0  0  0  0  0  0
    5.3934    3.6618    0.0000 C   0  0  0  0  0  0  0  0  0  0  0  0
    7.9915    6.1618    0.0000 C   0  0  0  0  0  0  0  0  0  0  0  0
    5.0798   -3.5567    0.0000 H   0  0  0  0  0  0  0  0  0  0  0  0
    4.3153   -2.2556    0.0000 H   0  0  0  0  0  0  0  0  0  0  0  0
    3.9168   -2.9459    0.0000 H   0  0  0  0  0  0  0  0  0  0  0  0
    8.3206    0.9718    0.0000 H   0  0  0  0  0  0  0  0  0  0  0  0
    6.5365   -3.6019    0.0000 H   0  0  0  0  0  0  0  0  0  0  0  0
    2.5182   -3.6019    0.0000 H   0  0  0  0  0  0  0  0  0  0  0  0
    6.7964   -0.1482    0.0000 H   0  0  0  0  0  0  0  0  0  0  0  0
    5.5139   -6.7492    0.0000 H   0  0  0  0  0  0  0  0  0  0  0  0
    3.5408   -6.7492    0.0000 H   0  0  0  0  0  0  0  0  0  0  0  0
    9.1866    2.8518    0.0000 H   0  0  0  0  0  0  0  0  0  0  0  0
    7.3809   -0.7305    0.0000 H   0  0  0  0  0  0  0  0  0  0  0  0
    7.7794   -1.4208    0.0000 H   0  0  0  0  0  0  0  0  0  0  0  0
    4.7828    0.7695    0.0000 H   0  0  0  0  0  0  0  0  0  0  0  0
    5.1813    0.0792    0.0000 H   0  0  0  0  0  0  0  0  0  0  0  0
    7.6607   -4.8312    0.0000 H   0  0  0  0  0  0  0  0  0  0  0  0
    1.3940   -4.8312    0.0000 H   0  0  0  0  0  0  0  0  0  0  0  0
    7.1459   -6.4154    0.0000 H   0  0  0  0  0  0  0  0  0  0  0  0
    1.9088   -6.4154    0.0000 H   0  0  0  0  0  0  0  0  0  0  0  0
   10.2604    1.8518    0.0000 H   0  0  0  0  0  0  0  0  0  0  0  0
    8.2469    3.7694    0.0000 H   0  0  0  0  0  0  0  0  0  0  0  0
    8.6454    3.0792    0.0000 H   0  0  0  0  0  0  0  0  0  0  0  0
    9.3250   -0.3132    0.0000 H   0  0  0  0  0  0  0  0  0  0  0  0
   10.1220   -0.3132    0.0000 H   0  0  0  0  0  0  0  0  0  0  0  0
    6.7964   -1.1482    0.0000 H   0  0  0  0  0  0  0  0  0  0  0  0
   10.0526    4.9718    0.0000 H   0  0  0  0  0  0  0  0  0  0  0  0
   12.6316    5.1248    0.0000 H   0  0  0  0  0  0  0  0  0  0  0  0
   12.8585    5.9718    0.0000 H   0  0  0  0  0  0  0  0  0  0  0  0
   12.0116    6.1987    0.0000 H   0  0  0  0  0  0  0  0  0  0  0  0
   11.4925    6.3378    0.0000 H   0  0  0  0  0  0  0  0  0  0  0  0
   10.6456    6.5648    0.0000 H   0  0  0  0  0  0  0  0  0  0  0  0
   10.4186    5.7178    0.0000 H   0  0  0  0  0  0  0  0  0  0  0  0
   11.4186    3.9858    0.0000 H   0  0  0  0  0  0  0  0  0  0  0  0
   12.2656    3.7588    0.0000 H   0  0  0  0  0  0  0  0  0  0  0  0
   12.4925    4.6058    0.0000 H   0  0  0  0  0  0  0  0  0  0  0  0
    9.4681    4.5541    0.0000 H   0  0  0  0  0  0  0  0  0  0  0  0
    9.0695    5.2444    0.0000 H   0  0  0  0  0  0  0  0  0  0  0  0
    8.3206   -2.6482    0.0000 H   0  0  0  0  0  0  0  0  0  0  0  0
    9.7235   -0.2182    0.0000 H   0  0  0  0  0  0  0  0  0  0  0  0
    3.9904    1.8518    0.0000 H   0  0  0  0  0  0  0  0  0  0  0  0
    6.7964    1.8518    0.0000 H   0  0  0  0  0  0  0  0  0  0  0  0
   11.1265    0.3518    0.0000 H   0  0  0  0  0  0  0  0  0  0  0  0
    9.7235   -3.4582    0.0000 H   0  0  0  0  0  0  0  0  0  0  0  0
   11.1265   -1.0282    0.0000 H   0  0  0  0  0  0  0  0  0  0  0  0
    3.9904    3.4718    0.0000 H   0  0  0  0  0  0  0  0  0  0  0  0
    6.7964    3.4718    0.0000 H   0  0  0  0  0  0  0  0  0  0  0  0
   11.1265   -2.6482    0.0000 H   0  0  0  0  0  0  0  0  0  0  0  0
    5.3934    4.2818    0.0000 H   0  0  0  0  0  0  0  0  0  0  0  0
    8.6115    6.1618    0.0000 H   0  0  0  0  0  0  0  0  0  0  0  0
    7.9915    6.7818    0.0000 H   0  0  0  0  0  0  0  0  0  0  0  0
    7.3715    6.1618    0.0000 H   0  0  0  0  0  0  0  0  0  0  0  0
  1 43  1  0  0  0  0
  1 54  1  0  0  0  0
  2 17  1  0  0  0  0
  2 37  1  0  0  0  0
  3 25  2  0  0  0  0
  4 35  1  0  0  0  0
  4 95  1  0  0  0  0
  5 29  2  0  0  0  0
  6 36  2  0  0  0  0
  7 37  2  0  0  0  0
 18  8  1  6  0  0  0
  8 25  1  0  0  0  0
  8 27  1  0  0  0  0
 24  9  1  1  0  0  0
  9 29  1  0  0  0  0
  9 73  1  0  0  0  0
 21 10  1  1  0  0  0
 10 37  1  0  0  0  0
 10 78  1  0  0  0  0
 11 26  1  0  0  0  0
 11 36  1  0  0  0  0
 11 79  1  0  0  0  0
 12 13  1  0  0  0  0
 12 14  1  0  0  0  0
 12 17  1  0  0  0  0
 12 55  1  0  0  0  0
 13 15  1  0  0  0  0
 13 19  2  0  0  0  0
 14 16  1  0  0  0  0
 14 20  2  0  0  0  0
 15 16  1  0  0  0  0
 15 22  2  0  0  0  0
 16 23  2  0  0  0  0
 17 56  1  0  0  0  0
 17 57  1  0  0  0  0
 18 29  1  0  0  0  0
 18 35  1  0  0  0  0
 18 58  1  0  0  0  0
 19 30  1  0  0  0  0
 19 59  1  0  0  0  0
 20 31  1  0  0  0  0
 20 60  1  0  0  0  0
 21 25  1  0  0  0  0
 21 28  1  0  0  0  0
 21 61  1  0  0  0  0
 22 32  1  0  0  0  0
 22 62  1  0  0  0  0
 23 33  1  0  0  0  0
 23 63  1  0  0  0  0
 24 34  1  0  0  0  0
 24 36  1  0  0  0  0
 24 64  1  0  0  0  0
 26 40  1  0  0  0  0
 26 41  1  0  0  0  0
 26 42  1  0  0  0  0
 27 38  1  0  0  0  0
 27 65  1  0  0  0  0
 27 66  1  0  0  0  0
 28 39  1  0  0  0  0
 28 67  1  0  0  0  0
 28 68  1  0  0  0  0
 30 32  2  0  0  0  0
 30 69  1  0  0  0  0
 31 33  2  0  0  0  0
 31 70  1  0  0  0  0
 32 71  1  0  0  0  0
 33 72  1  0  0  0  0
 34 43  1  0  0  0  0
 34 74  1  0  0  0  0
 34 75  1  0  0  0  0
 35 76  1  0  0  0  0
 35 77  1  0  0  0  0
 38 44  2  0  0  0  0
 38 45  1  0  0  0  0
 39 46  2  0  0  0  0
 39 47  1  0  0  0  0
 40 80  1  0  0  0  0
 40 81  1  0  0  0  0
 40 82  1  0  0  0  0
 41 83  1  0  0  0  0
 41 84  1  0  0  0  0
 41 85  1  0  0  0  0
 42 86  1  0  0  0  0
 42 87  1  0  0  0  0
 42 88  1  0  0  0  0
 43 89  1  0  0  0  0
 43 90  1  0  0  0  0
 44 48  1  0  0  0  0
 44 91  1  0  0  0  0
 45 49  2  0  0  0  0
 45 92  1  0  0  0  0
 46 50  1  0  0  0  0
 46 93  1  0  0  0  0
 47 51  2  0  0  0  0
 47 94  1  0  0  0  0
 48 52  2  0  0  0  0
 48 96  1  0  0  0  0
 49 52  1  0  0  0  0
 49 97  1  0  0  0  0
 50 53  2  0  0  0  0
 50 98  1  0  0  0  0
 51 53  1  0  0  0  0
 51 99  1  0  0  0  0
 52100  1  0  0  0  0
 53101  1  0  0  0  0
 54102  1  0  0  0  0
 54103  1  0  0  0  0
 54104  1  0  0  0  0
M  END
> <PUBCHEM_COMPOUND_CID>
504527
> <PUBCHEM_COMPOUND_CANONICALIZED>
1
> <PUBCHEM_CACTVS_COMPLEXITY>
1190
> <PUBCHEM_CACTVS_HBOND_ACCEPTOR>
7
> <PUBCHEM_CACTVS_HBOND_DONOR>
4
> <PUBCHEM_CACTVS_ROTATABLE_BOND>
18
> <PUBCHEM_CACTVS_SUBSKEYS>
AAADcfB/uABAAAAAAAAAAAAAAAAAAYAAAAAwYMGAAAAAAGABVAAAHgQQCAAADajl2AayCIPABgiIAiFSGACCAAAgABAIiIGIBIkKcDagkTGcYAhm9gGYiAeYyPCOgAAAAAAQAAAAAAAAACAAAQAACAAAAA==
> <PUBCHEM_IUPAC_OPENEYE_NAME>
9H-fluoren-9-ylmethyl N-[(1S)-1-benzyl-2-[benzyl-[(1S)-2-[[(1S)-1-(tert-butylcarbamoyl)-3-methylsulfanyl-propyl]amino]-1-(hydroxymethyl)-2-oxo-ethyl]amino]-2-oxo-ethyl]carbamate
> <PUBCHEM_IUPAC_CAS_NAME>
N-[(2S)-1-[[(2S)-1-[[(2S)-1-(tert-butylamino)-4-(methylthio)-1-oxobutan-2-yl]amino]-3-hydroxy-1-oxopropan-2-yl]-(phenylmethyl)amino]-1-oxo-3-phenylpropan-2-yl]carbamic acid 9H-fluoren-9-ylmethyl ester
> <PUBCHEM_IUPAC_NAME_MARKUP>
9<I>H</I>-fluoren-9-ylmethyl <I>N</I>-[(2<I>S</I>)-1-[benzyl-[(2<I>S</I>)-1-[[(2<I>S</I>)-1-(<I>tert</I>-butylamino)-4-methylsulfanyl-1-oxobutan-2-yl]amino]-3-hydroxy-1-oxopropan-2-yl]amino]-1-oxo-3-phenylpropan-2-yl]carbamate
> <PUBCHEM_IUPAC_NAME>
9H-fluoren-9-ylmethyl N-[(2S)-1-[benzyl-[(2S)-1-[[(2S)-1-(tert-butylamino)-4-methylsulfanyl-1-oxobutan-2-yl]amino]-3-hydroxy-1-oxopropan-2-yl]amino]-1-oxo-3-phenylpropan-2-yl]carbamate
> <PUBCHEM_IUPAC_SYSTEMATIC_NAME>
9H-fluoren-9-ylmethyl N-[(2S)-1-[[(2S)-1-[[(2S)-1-(tert-butylamino)-4-methylsulfanyl-1-oxidanylidene-butan-2-yl]amino]-3-oxidanyl-1-oxidanylidene-propan-2-yl]-(phenylmethyl)amino]-1-oxidanylidene-3-phenyl-propan-2-yl]carbamate
> <PUBCHEM_IUPAC_TRADITIONAL_NAME>
N-[(1S)-1-benzyl-2-[benzyl-[(1S)-2-[[(1S)-1-(tert-butylcarbamoyl)-3-(methylthio)propyl]amino]-2-keto-1-methylol-ethyl]amino]-2-keto-ethyl]carbamic acid 9H-fluoren-9-ylmethyl ester
> <PUBCHEM_IUPAC_INCHI>
InChI=1S/C43H50N4O6S/c1-43(2,3)46-39(49)36(23-24-54-4)44-40(50)38(27-48)47(26-30-17-9-6-10-18-30)41(51)37(25-29-15-7-5-8-16-29)45-42(52)53-28-35-33-21-13-11-19-31(33)32-20-12-14-22-34(32)35/h5-22,35-38,48H,23-28H2,1-4H3,(H,44,50)(H,45,52)(H,46,49)/t36-,37-,38-/m0/s1
> <PUBCHEM_IUPAC_INCHIKEY>
PTPZHJLILQHPNZ-QXUSSCGESA-N
> <PUBCHEM_XLOGP3_AA>
6.1
> <PUBCHEM_EXACT_MASS>
750.34510650
> <PUBCHEM_MOLECULAR_FORMULA>
C43H50N4O6S
> <PUBCHEM_MOLECULAR_WEIGHT>
750.9
> <PUBCHEM_OPENEYE_CAN_SMILES>
CC(C)(C)NC(=O)C(CCSC)NC(=O)C(CO)N(CC1=CC=CC=C1)C(=O)C(CC2=CC=CC=C2)NC(=O)OCC3C4=CC=CC=C4C5=CC=CC=C35
> <PUBCHEM_OPENEYE_ISO_SMILES>
CC(C)(C)NC(=O)[C@H](CCSC)NC(=O)[C@H](CO)N(CC1=CC=CC=C1)C(=O)[C@H](CC2=CC=CC=C2)NC(=O)OCC3C4=CC=CC=C4C5=CC=CC=C35
> <PUBCHEM_CACTVS_TPSA>
162
> <PUBCHEM_MONOISOTOPIC_WEIGHT>
750.34510650
> <PUBCHEM_TOTAL_CHARGE>
0
> <PUBCHEM_HEAVY_ATOM_COUNT>
54
> <PUBCHEM_ATOM_DEF_STEREO_COUNT>
3
> <PUBCHEM_ATOM_UDEF_STEREO_COUNT>
0
> <PUBCHEM_BOND_DEF_STEREO_COUNT>
0
> <PUBCHEM_BOND_UDEF_STEREO_COUNT>
0
> <PUBCHEM_ISOTOPIC_ATOM_COUNT>
0
> <PUBCHEM_COMPONENT_COUNT>
1
> <PUBCHEM_CACTVS_TAUTO_COUNT>
-1
> <PUBCHEM_COORDINATE_TYPE>
1
5
255
> <PUBCHEM_BONDANNOTATIONS>
21  10  5
13  15  8
13  19  8
14  16  8
14  20  8
15  22  8
16  23  8
19  30  8
20  31  8
22  32  8
23  33  8
30  32  8
31  33  8
38  44  8
38  45  8
39  46  8
39  47  8
44  48  8
45  49  8
46  50  8
47  51  8
48  52  8
49  52  8
50  53  8
51  53  8
18  8  6
24  9  5
$$$$
