504578
  -OEChem-10302200282D
 88 91  0     1  0  0  0  0  0999 V2000
    8.2644    1.7277    0.0000 O   0  0  0  0  0  0  0  0  0  0  0  0
    7.0888    0.1096    0.0000 O   0  0  0  0  0  0  0  0  0  0  0  0
    5.5010   -0.6994    0.0000 O   0  0  0  0  0  0  0  0  0  0  0  0
    6.0010   -3.2382    0.0000 O   0  0  0  0  0  0  0  0  0  0  0  0
    5.0998    0.3187    0.0000 O   0  0  0  0  0  0  0  0  0  0  0  0
   10.6155    4.9637    0.0000 O   0  0  0  0  0  0  0  0  0  0  0  0
   11.4290    3.1366    0.0000 O   0  0  0  0  0  0  0  0  0  0  0  0
    4.2690   -3.2382    0.0000 O   0  0  0  0  0  0  0  0  0  0  0  0
    7.7611   -1.9594    0.0000 O   0  0  0  0  0  0  0  0  0  0  0  0
    4.2690   -6.2382    0.0000 O   0  0  0  0  0  0  0  0  0  0  0  0
    3.4978   -1.2903    0.0000 O   0  0  0  0  0  0  0  0  0  0  0  0
    2.5369   -5.2382    0.0000 O   0  0  0  0  0  0  0  0  0  0  0  0
   10.2534    1.5186    0.0000 N   0  0  0  0  0  0  0  0  0  0  0  0
    4.2863    2.1458    0.0000 N   0  0  0  0  0  0  0  0  0  0  0  0
    9.2143    5.9818    0.0000 N   0  0  0  0  0  0  0  0  0  0  0  0
    6.0010   -5.2382    0.0000 N   0  0  0  0  0  0  0  0  0  0  0  0
    2.5369   -2.2382    0.0000 N   0  0  0  0  0  0  0  0  0  0  0  0
    8.8522    2.5367    0.0000 C   0  0  2  0  0  0  0  0  0  0  0  0
    7.2699    1.8322    0.0000 C   0  0  1  0  0  0  0  0  0  0  0  0
    6.6821    1.0232    0.0000 C   0  0  1  0  0  0  0  0  0  0  0  0
    9.0332    4.2593    0.0000 C   0  0  1  0  0  0  0  0  0  0  0  0
    9.8467    2.4322    0.0000 C   0  0  1  0  0  0  0  0  0  0  0  0
    8.4454    3.4502    0.0000 C   0  0  0  0  0  0  0  0  0  0  0  0
    5.6876    1.1277    0.0000 C   0  0  2  0  0  0  0  0  0  0  0  0
   10.0277    4.1547    0.0000 C   0  0  2  0  0  0  0  0  0  0  0  0
   10.4345    3.2412    0.0000 C   0  0  2  0  0  0  0  0  0  0  0  0
    6.8631    2.7458    0.0000 C   0  0  0  0  0  0  0  0  0  0  0  0
    5.2808    2.0413    0.0000 C   0  0  1  0  0  0  0  0  0  0  0  0
    5.8686    2.8503    0.0000 C   0  0  0  0  0  0  0  0  0  0  0  0
    6.5010   -0.6994    0.0000 C   0  0  2  0  0  0  0  0  0  0  0  0
    6.0010   -2.2382    0.0000 C   0  0  1  0  0  0  0  0  0  0  0  0
    6.8100   -1.6504    0.0000 C   0  0  1  0  0  0  0  0  0  0  0  0
    8.6265    5.1728    0.0000 C   0  0  0  0  0  0  0  0  0  0  0  0
    5.1920   -1.6504    0.0000 C   0  0  1  0  0  0  0  0  0  0  0  0
    5.1350   -3.7382    0.0000 C   0  0  1  0  0  0  0  0  0  0  0  0
    5.1350   -4.7382    0.0000 C   0  0  1  0  0  0  0  0  0  0  0  0
    4.2690   -5.2382    0.0000 C   0  0  2  0  0  0  0  0  0  0  0  0
    4.2410   -1.9594    0.0000 C   0  0  0  0  0  0  0  0  0  0  0  0
    3.4030   -4.7382    0.0000 C   0  0  1  0  0  0  0  0  0  0  0  0
    3.4030   -3.7382    0.0000 C   0  0  2  0  0  0  0  0  0  0  0  0
    2.5369   -3.2382    0.0000 C   0  0  0  0  0  0  0  0  0  0  0  0
    9.1044    1.9703    0.0000 H   0  0  0  0  0  0  0  0  0  0  0  0
    7.6343    2.3338    0.0000 H   0  0  0  0  0  0  0  0  0  0  0  0
    6.3177    0.5216    0.0000 H   0  0  0  0  0  0  0  0  0  0  0  0
    8.4166    4.3241    0.0000 H   0  0  0  0  0  0  0  0  0  0  0  0
    9.4823    1.9306    0.0000 H   0  0  0  0  0  0  0  0  0  0  0  0
    8.0148    3.8962    0.0000 H   0  0  0  0  0  0  0  0  0  0  0  0
    7.9314    3.1035    0.0000 H   0  0  0  0  0  0  0  0  0  0  0  0
    5.0710    1.1925    0.0000 H   0  0  0  0  0  0  0  0  0  0  0  0
   10.6444    4.0899    0.0000 H   0  0  0  0  0  0  0  0  0  0  0  0
   10.6867    2.6748    0.0000 H   0  0  0  0  0  0  0  0  0  0  0  0
    7.4647    2.8957    0.0000 H   0  0  0  0  0  0  0  0  0  0  0  0
    6.8199    3.3642    0.0000 H   0  0  0  0  0  0  0  0  0  0  0  0
    5.0286    2.6077    0.0000 H   0  0  0  0  0  0  0  0  0  0  0  0
    6.0395    3.4463    0.0000 H   0  0  0  0  0  0  0  0  0  0  0  0
    5.3114    3.1221    0.0000 H   0  0  0  0  0  0  0  0  0  0  0  0
    7.1134   -0.7964    0.0000 H   0  0  0  0  0  0  0  0  0  0  0  0
    6.5535   -2.5197    0.0000 H   0  0  0  0  0  0  0  0  0  0  0  0
    6.9070   -2.2628    0.0000 H   0  0  0  0  0  0  0  0  0  0  0  0
    8.1958    5.6188    0.0000 H   0  0  0  0  0  0  0  0  0  0  0  0
    8.1125    4.8261    0.0000 H   0  0  0  0  0  0  0  0  0  0  0  0
    4.7536   -1.2120    0.0000 H   0  0  0  0  0  0  0  0  0  0  0  0
    9.8890    1.0170    0.0000 H   0  0  0  0  0  0  0  0  0  0  0  0
   10.8700    1.4538    0.0000 H   0  0  0  0  0  0  0  0  0  0  0  0
    5.1350   -3.1182    0.0000 H   0  0  0  0  0  0  0  0  0  0  0  0
    4.0341    2.7122    0.0000 H   0  0  0  0  0  0  0  0  0  0  0  0
    3.9219    1.6442    0.0000 H   0  0  0  0  0  0  0  0  0  0  0  0
    5.6720   -4.4282    0.0000 H   0  0  0  0  0  0  0  0  0  0  0  0
    4.4832    0.3835    0.0000 H   0  0  0  0  0  0  0  0  0  0  0  0
   10.3634    5.5301    0.0000 H   0  0  0  0  0  0  0  0  0  0  0  0
   11.7934    3.6382    0.0000 H   0  0  0  0  0  0  0  0  0  0  0  0
    4.8059   -5.5482    0.0000 H   0  0  0  0  0  0  0  0  0  0  0  0
    3.7524   -2.3412    0.0000 H   0  0  0  0  0  0  0  0  0  0  0  0
    4.5320   -2.5069    0.0000 H   0  0  0  0  0  0  0  0  0  0  0  0
    3.4030   -5.3582    0.0000 H   0  0  0  0  0  0  0  0  0  0  0  0
    3.4030   -3.1182    0.0000 H   0  0  0  0  0  0  0  0  0  0  0  0
    8.9621    6.5482    0.0000 H   0  0  0  0  0  0  0  0  0  0  0  0
    9.8309    5.9170    0.0000 H   0  0  0  0  0  0  0  0  0  0  0  0
    8.2219   -1.5446    0.0000 H   0  0  0  0  0  0  0  0  0  0  0  0
    1.9264   -3.1306    0.0000 H   0  0  0  0  0  0  0  0  0  0  0  0
    2.3249   -3.8208    0.0000 H   0  0  0  0  0  0  0  0  0  0  0  0
    6.0010   -5.8582    0.0000 H   0  0  0  0  0  0  0  0  0  0  0  0
    6.5380   -4.9282    0.0000 H   0  0  0  0  0  0  0  0  0  0  0  0
    3.7320   -6.5482    0.0000 H   0  0  0  0  0  0  0  0  0  0  0  0
    3.6267   -0.6839    0.0000 H   0  0  0  0  0  0  0  0  0  0  0  0
    2.0000   -4.9282    0.0000 H   0  0  0  0  0  0  0  0  0  0  0  0
    2.0000   -1.9282    0.0000 H   0  0  0  0  0  0  0  0  0  0  0  0
    3.0739   -1.9282    0.0000 H   0  0  0  0  0  0  0  0  0  0  0  0
 18  1  1  1  0  0  0
 19  1  1  1  0  0  0
 20  2  1  6  0  0  0
 30  2  1  1  0  0  0
  3 30  1  0  0  0  0
  3 34  1  0  0  0  0
 31  4  1  6  0  0  0
 35  4  1  6  0  0  0
 24  5  1  1  0  0  0
  5 69  1  0  0  0  0
 25  6  1  1  0  0  0
  6 70  1  0  0  0  0
 26  7  1  6  0  0  0
  7 71  1  0  0  0  0
  8 35  1  0  0  0  0
  8 40  1  0  0  0  0
 32  9  1  6  0  0  0
  9 79  1  0  0  0  0
 37 10  1  1  0  0  0
 10 84  1  0  0  0  0
 11 38  1  0  0  0  0
 11 85  1  0  0  0  0
 39 12  1  6  0  0  0
 12 86  1  0  0  0  0
 22 13  1  1  0  0  0
 13 63  1  0  0  0  0
 13 64  1  0  0  0  0
 28 14  1  6  0  0  0
 14 66  1  0  0  0  0
 14 67  1  0  0  0  0
 15 33  1  0  0  0  0
 15 77  1  0  0  0  0
 15 78  1  0  0  0  0
 36 16  1  6  0  0  0
 16 82  1  0  0  0  0
 16 83  1  0  0  0  0
 17 41  1  0  0  0  0
 17 87  1  0  0  0  0
 17 88  1  0  0  0  0
 18 22  1  0  0  0  0
 18 23  1  0  0  0  0
 18 42  1  0  0  0  0
 19 20  1  0  0  0  0
 19 27  1  0  0  0  0
 19 43  1  0  0  0  0
 20 24  1  0  0  0  0
 20 44  1  0  0  0  0
 21 23  1  0  0  0  0
 21 25  1  0  0  0  0
 21 33  1  6  0  0  0
 21 45  1  0  0  0  0
 22 26  1  0  0  0  0
 22 46  1  0  0  0  0
 23 47  1  0  0  0  0
 23 48  1  0  0  0  0
 24 28  1  0  0  0  0
 24 49  1  0  0  0  0
 25 26  1  0  0  0  0
 25 50  1  0  0  0  0
 26 51  1  0  0  0  0
 27 29  1  0  0  0  0
 27 52  1  0  0  0  0
 27 53  1  0  0  0  0
 28 29  1  0  0  0  0
 28 54  1  0  0  0  0
 29 55  1  0  0  0  0
 29 56  1  0  0  0  0
 30 32  1  0  0  0  0
 30 57  1  0  0  0  0
 31 32  1  0  0  0  0
 31 34  1  0  0  0  0
 31 58  1  0  0  0  0
 32 59  1  0  0  0  0
 33 60  1  0  0  0  0
 33 61  1  0  0  0  0
 34 38  1  1  0  0  0
 34 62  1  0  0  0  0
 35 36  1  0  0  0  0
 35 65  1  0  0  0  0
 36 37  1  0  0  0  0
 36 68  1  0  0  0  0
 37 39  1  0  0  0  0
 37 72  1  0  0  0  0
 38 73  1  0  0  0  0
 38 74  1  0  0  0  0
 39 40  1  0  0  0  0
 39 75  1  0  0  0  0
 40 41  1  6  0  0  0
 40 76  1  0  0  0  0
 41 80  1  0  0  0  0
 41 81  1  0  0  0  0
M  END
> <PUBCHEM_COMPOUND_CID>
504578
> <PUBCHEM_COMPOUND_CANONICALIZED>
1
> <PUBCHEM_CACTVS_COMPLEXITY>
838
> <PUBCHEM_CACTVS_HBOND_ACCEPTOR>
17
> <PUBCHEM_CACTVS_HBOND_DONOR>
12
> <PUBCHEM_CACTVS_ROTATABLE_BOND>
9
> <PUBCHEM_CACTVS_SUBSKEYS>
AAADcfB7vAAAAAAAAAAAAAAAAAAAASAAAAA0YIAAAAAAAAAAAAAAHgAQCAAADTzxgAcACABABgAAAAAAAAAAAAAAAAAAAIAAAAATEAIAgAAjQAAHEAAHAAHw8D0OAAAAAAAAAAASgAIUABCgAAAAAAAAAA==
> <PUBCHEM_IUPAC_OPENEYE_NAME>
(2S,3S,4R,5R,6R)-5-amino-6-[(2R,3S,4R,5S)-5-[(1R,2S,3R,6R)-3-amino-6-[(1S,2R,3R,4R,5R)-2-amino-5-(aminomethyl)-3,4-dihydroxy-cyclohexoxy]-2-hydroxy-cyclohexoxy]-4-hydroxy-2-(hydroxymethyl)tetrahydrofuran-3-yl]oxy-2-(aminomethyl)tetrahydropyran-3,4-diol
> <PUBCHEM_IUPAC_CAS_NAME>
(2S,3S,4R,5R,6R)-5-amino-6-[[(2R,3S,4R,5S)-5-[(1R,2S,3R,6R)-3-amino-6-[(1S,2R,3R,4R,5R)-2-amino-5-(aminomethyl)-3,4-dihydroxycyclohexyl]oxy-2-hydroxycyclohexyl]oxy-4-hydroxy-2-(hydroxymethyl)-3-oxolanyl]oxy]-2-(aminomethyl)oxane-3,4-diol
> <PUBCHEM_IUPAC_NAME_MARKUP>
(2<I>S</I>,3<I>S</I>,4<I>R</I>,5<I>R</I>,6<I>R</I>)-5-amino-6-[(2<I>R</I>,3<I>S</I>,4<I>R</I>,5<I>S</I>)-5-[(1<I>R</I>,2<I>S</I>,3<I>R</I>,6<I>R</I>)-3-amino-6-[(1<I>S</I>,2<I>R</I>,3<I>R</I>,4<I>R</I>,5<I>R</I>)-2-amino-5-(aminomethyl)-3,4-dihydroxycyclohexyl]oxy-2-hydroxycyclohexyl]oxy-4-hydroxy-2-(hydroxymethyl)oxolan-3-yl]oxy-2-(aminomethyl)oxane-3,4-diol
> <PUBCHEM_IUPAC_NAME>
(2S,3S,4R,5R,6R)-5-amino-6-[(2R,3S,4R,5S)-5-[(1R,2S,3R,6R)-3-amino-6-[(1S,2R,3R,4R,5R)-2-amino-5-(aminomethyl)-3,4-dihydroxycyclohexyl]oxy-2-hydroxycyclohexyl]oxy-4-hydroxy-2-(hydroxymethyl)oxolan-3-yl]oxy-2-(aminomethyl)oxane-3,4-diol
> <PUBCHEM_IUPAC_SYSTEMATIC_NAME>
(2S,3S,4R,5R,6R)-2-(aminomethyl)-6-[(2R,3S,4R,5S)-5-[(1R,2S,3R,6R)-6-[(1S,2R,3R,4R,5R)-5-(aminomethyl)-2-azanyl-3,4-bis(oxidanyl)cyclohexyl]oxy-3-azanyl-2-oxidanyl-cyclohexyl]oxy-2-(hydroxymethyl)-4-oxidanyl-oxolan-3-yl]oxy-5-azanyl-oxane-3,4-diol
> <PUBCHEM_IUPAC_TRADITIONAL_NAME>
(2S,3S,4R,5R,6R)-5-amino-6-[(2R,3S,4R,5S)-5-[(1R,2S,3R,6R)-3-amino-6-[(1S,2R,3R,4R,5R)-2-amino-5-(aminomethyl)-3,4-dihydroxy-cyclohexoxy]-2-hydroxy-cyclohexoxy]-4-hydroxy-2-methylol-tetrahydrofuran-3-yl]oxy-2-(aminomethyl)tetrahydropyran-3,4-diol
> <PUBCHEM_IUPAC_INCHI>
InChI=1S/C24H47N5O12/c25-4-7-3-10(13(28)18(34)15(7)31)37-9-2-1-8(27)16(32)21(9)41-24-20(36)22(12(6-30)39-24)40-23-14(29)19(35)17(33)11(5-26)38-23/h7-24,30-36H,1-6,25-29H2/t7-,8-,9-,10+,11+,12-,13+,14-,15-,16+,17-,18-,19-,20-,21+,22-,23-,24+/m1/s1
> <PUBCHEM_IUPAC_INCHIKEY>
PZRUMSPVTQZXBY-LLLNQCKJSA-N
> <PUBCHEM_XLOGP3_AA>
-7.2
> <PUBCHEM_EXACT_MASS>
597.32212195
> <PUBCHEM_MOLECULAR_FORMULA>
C24H47N5O12
> <PUBCHEM_MOLECULAR_WEIGHT>
597.7
> <PUBCHEM_OPENEYE_CAN_SMILES>
C1CC(C(C(C1N)O)OC2C(C(C(O2)CO)OC3C(C(C(C(O3)CN)O)O)N)O)OC4CC(C(C(C4N)O)O)CN
> <PUBCHEM_OPENEYE_ISO_SMILES>
C1C[C@H]([C@@H]([C@H]([C@@H]1N)O)O[C@H]2[C@@H]([C@@H]([C@H](O2)CO)O[C@@H]3[C@@H]([C@H]([C@@H]([C@@H](O3)CN)O)O)N)O)O[C@H]4C[C@@H]([C@H]([C@@H]([C@H]4N)O)O)CN
> <PUBCHEM_CACTVS_TPSA>
318
> <PUBCHEM_MONOISOTOPIC_WEIGHT>
597.32212195
> <PUBCHEM_TOTAL_CHARGE>
0
> <PUBCHEM_HEAVY_ATOM_COUNT>
41
> <PUBCHEM_ATOM_DEF_STEREO_COUNT>
18
> <PUBCHEM_ATOM_UDEF_STEREO_COUNT>
0
> <PUBCHEM_BOND_DEF_STEREO_COUNT>
0
> <PUBCHEM_BOND_UDEF_STEREO_COUNT>
0
> <PUBCHEM_ISOTOPIC_ATOM_COUNT>
0
> <PUBCHEM_COMPONENT_COUNT>
1
> <PUBCHEM_CACTVS_TAUTO_COUNT>
-1
> <PUBCHEM_COORDINATE_TYPE>
1
5
255
> <PUBCHEM_BONDANNOTATIONS>
18  1  5
19  1  5
37  10  5
39  12  6
22  13  5
28  14  6
36  16  6
20  2  6
30  2  5
21  33  6
34  38  5
31  4  6
35  4  6
40  41  6
24  5  5
25  6  5
26  7  6
32  9  6
$$$$
