504525
  -OEChem-10302200282D
 70 71  0     1  0  0  0  0  0999 V2000
    2.8660    1.0000    0.0000 S   0  0  0  0  0  0  0  0  0  0  0  0
    8.0622    1.0000    0.0000 O   0  0  0  0  0  0  0  0  0  0  0  0
    5.4641   -0.5000    0.0000 O   0  0  0  0  0  0  0  0  0  0  0  0
    6.3301    3.0000    0.0000 O   0  0  0  0  0  0  0  0  0  0  0  0
    7.1962   -1.5000    0.0000 N   0  0  0  0  0  0  0  0  0  0  0  0
    6.3301    1.0000    0.0000 N   0  0  0  0  0  0  0  0  0  0  0  0
    4.5981    3.0000    0.0000 N   0  0  0  0  0  0  0  0  0  0  0  0
    7.1962   -0.5000    0.0000 C   0  0  2  0  0  0  0  0  0  0  0  0
    5.4641    1.5000    0.0000 C   0  0  1  0  0  0  0  0  0  0  0  0
    4.5981    4.0000    0.0000 C   0  0  0  0  0  0  0  0  0  0  0  0
    6.3301    0.0000    0.0000 C   0  0  0  0  0  0  0  0  0  0  0  0
    4.5981    1.0000    0.0000 C   0  0  0  0  0  0  0  0  0  0  0  0
    8.0622   -2.0000    0.0000 C   0  0  0  0  0  0  0  0  0  0  0  0
    6.3301   -2.0000    0.0000 C   0  0  0  0  0  0  0  0  0  0  0  0
    5.4641    2.5000    0.0000 C   0  0  0  0  0  0  0  0  0  0  0  0
    8.0622    0.0000    0.0000 C   0  0  0  0  0  0  0  0  0  0  0  0
    4.5981    5.0000    0.0000 C   0  0  0  0  0  0  0  0  0  0  0  0
    3.5981    4.0000    0.0000 C   0  0  0  0  0  0  0  0  0  0  0  0
    5.5981    4.0000    0.0000 C   0  0  0  0  0  0  0  0  0  0  0  0
    3.7320    1.5000    0.0000 C   0  0  0  0  0  0  0  0  0  0  0  0
    8.9282   -1.5000    0.0000 C   0  0  0  0  0  0  0  0  0  0  0  0
    6.3301   -3.0000    0.0000 C   0  0  0  0  0  0  0  0  0  0  0  0
    9.7942   -2.0000    0.0000 C   0  0  0  0  0  0  0  0  0  0  0  0
    7.1962   -3.5000    0.0000 C   0  0  0  0  0  0  0  0  0  0  0  0
    8.9282   -0.5000    0.0000 C   0  0  0  0  0  0  0  0  0  0  0  0
    5.4641   -3.5000    0.0000 C   0  0  0  0  0  0  0  0  0  0  0  0
   10.6603   -1.5000    0.0000 C   0  0  0  0  0  0  0  0  0  0  0  0
    7.1962   -4.5000    0.0000 C   0  0  0  0  0  0  0  0  0  0  0  0
    9.7942    0.0000    0.0000 C   0  0  0  0  0  0  0  0  0  0  0  0
    5.4641   -4.5000    0.0000 C   0  0  0  0  0  0  0  0  0  0  0  0
   10.6603   -0.5000    0.0000 C   0  0  0  0  0  0  0  0  0  0  0  0
    6.3301   -5.0000    0.0000 C   0  0  0  0  0  0  0  0  0  0  0  0
    2.0000    1.5000    0.0000 C   0  0  0  0  0  0  0  0  0  0  0  0
    6.6592   -0.8100    0.0000 H   0  0  0  0  0  0  0  0  0  0  0  0
    5.4641    0.8800    0.0000 H   0  0  0  0  0  0  0  0  0  0  0  0
    4.1996    0.5251    0.0000 H   0  0  0  0  0  0  0  0  0  0  0  0
    4.9966    0.5251    0.0000 H   0  0  0  0  0  0  0  0  0  0  0  0
    7.6636   -2.4750    0.0000 H   0  0  0  0  0  0  0  0  0  0  0  0
    8.4607   -2.4750    0.0000 H   0  0  0  0  0  0  0  0  0  0  0  0
    6.1181   -1.4174    0.0000 H   0  0  0  0  0  0  0  0  0  0  0  0
    5.7196   -2.1077    0.0000 H   0  0  0  0  0  0  0  0  0  0  0  0
    6.8671    1.3100    0.0000 H   0  0  0  0  0  0  0  0  0  0  0  0
    4.0611    2.6900    0.0000 H   0  0  0  0  0  0  0  0  0  0  0  0
    8.2742   -0.5826    0.0000 H   0  0  0  0  0  0  0  0  0  0  0  0
    8.6728    0.1077    0.0000 H   0  0  0  0  0  0  0  0  0  0  0  0
    5.2181    5.0000    0.0000 H   0  0  0  0  0  0  0  0  0  0  0  0
    4.5981    5.6200    0.0000 H   0  0  0  0  0  0  0  0  0  0  0  0
    3.9781    5.0000    0.0000 H   0  0  0  0  0  0  0  0  0  0  0  0
    3.5981    4.6200    0.0000 H   0  0  0  0  0  0  0  0  0  0  0  0
    2.9781    4.0000    0.0000 H   0  0  0  0  0  0  0  0  0  0  0  0
    3.5981    3.3800    0.0000 H   0  0  0  0  0  0  0  0  0  0  0  0
    5.5981    3.3800    0.0000 H   0  0  0  0  0  0  0  0  0  0  0  0
    6.2181    4.0000    0.0000 H   0  0  0  0  0  0  0  0  0  0  0  0
    5.5981    4.6200    0.0000 H   0  0  0  0  0  0  0  0  0  0  0  0
    4.1306    1.9750    0.0000 H   0  0  0  0  0  0  0  0  0  0  0  0
    3.3335    1.9750    0.0000 H   0  0  0  0  0  0  0  0  0  0  0  0
    9.7942   -2.6200    0.0000 H   0  0  0  0  0  0  0  0  0  0  0  0
    7.7331   -3.1900    0.0000 H   0  0  0  0  0  0  0  0  0  0  0  0
    8.3913   -0.1900    0.0000 H   0  0  0  0  0  0  0  0  0  0  0  0
    4.9272   -3.1900    0.0000 H   0  0  0  0  0  0  0  0  0  0  0  0
    8.5991    1.3100    0.0000 H   0  0  0  0  0  0  0  0  0  0  0  0
   11.1972   -1.8100    0.0000 H   0  0  0  0  0  0  0  0  0  0  0  0
    7.7331   -4.8100    0.0000 H   0  0  0  0  0  0  0  0  0  0  0  0
    9.7942    0.6200    0.0000 H   0  0  0  0  0  0  0  0  0  0  0  0
    4.9272   -4.8100    0.0000 H   0  0  0  0  0  0  0  0  0  0  0  0
   11.1972   -0.1900    0.0000 H   0  0  0  0  0  0  0  0  0  0  0  0
    6.3301   -5.6200    0.0000 H   0  0  0  0  0  0  0  0  0  0  0  0
    2.3100    2.0369    0.0000 H   0  0  0  0  0  0  0  0  0  0  0  0
    1.4631    1.8100    0.0000 H   0  0  0  0  0  0  0  0  0  0  0  0
    1.6900    0.9631    0.0000 H   0  0  0  0  0  0  0  0  0  0  0  0
  1 20  1  0  0  0  0
  1 33  1  0  0  0  0
  2 16  1  0  0  0  0
  2 61  1  0  0  0  0
  3 11  2  0  0  0  0
  4 15  2  0  0  0  0
  8  5  1  6  0  0  0
  5 13  1  0  0  0  0
  5 14  1  0  0  0  0
  9  6  1  1  0  0  0
  6 11  1  0  0  0  0
  6 42  1  0  0  0  0
  7 10  1  0  0  0  0
  7 15  1  0  0  0  0
  7 43  1  0  0  0  0
  8 11  1  0  0  0  0
  8 16  1  0  0  0  0
  8 34  1  0  0  0  0
  9 12  1  0  0  0  0
  9 15  1  0  0  0  0
  9 35  1  0  0  0  0
 10 17  1  0  0  0  0
 10 18  1  0  0  0  0
 10 19  1  0  0  0  0
 12 20  1  0  0  0  0
 12 36  1  0  0  0  0
 12 37  1  0  0  0  0
 13 21  1  0  0  0  0
 13 38  1  0  0  0  0
 13 39  1  0  0  0  0
 14 22  1  0  0  0  0
 14 40  1  0  0  0  0
 14 41  1  0  0  0  0
 16 44  1  0  0  0  0
 16 45  1  0  0  0  0
 17 46  1  0  0  0  0
 17 47  1  0  0  0  0
 17 48  1  0  0  0  0
 18 49  1  0  0  0  0
 18 50  1  0  0  0  0
 18 51  1  0  0  0  0
 19 52  1  0  0  0  0
 19 53  1  0  0  0  0
 19 54  1  0  0  0  0
 20 55  1  0  0  0  0
 20 56  1  0  0  0  0
 21 23  2  0  0  0  0
 21 25  1  0  0  0  0
 22 24  2  0  0  0  0
 22 26  1  0  0  0  0
 23 27  1  0  0  0  0
 23 57  1  0  0  0  0
 24 28  1  0  0  0  0
 24 58  1  0  0  0  0
 25 29  2  0  0  0  0
 25 59  1  0  0  0  0
 26 30  2  0  0  0  0
 26 60  1  0  0  0  0
 27 31  2  0  0  0  0
 27 62  1  0  0  0  0
 28 32  2  0  0  0  0
 28 63  1  0  0  0  0
 29 31  1  0  0  0  0
 29 64  1  0  0  0  0
 30 32  1  0  0  0  0
 30 65  1  0  0  0  0
 31 66  1  0  0  0  0
 32 67  1  0  0  0  0
 33 68  1  0  0  0  0
 33 69  1  0  0  0  0
 33 70  1  0  0  0  0
M  END
> <PUBCHEM_COMPOUND_CID>
504525
> <PUBCHEM_COMPOUND_CANONICALIZED>
1
> <PUBCHEM_CACTVS_COMPLEXITY>
564
> <PUBCHEM_CACTVS_HBOND_ACCEPTOR>
5
> <PUBCHEM_CACTVS_HBOND_DONOR>
3
> <PUBCHEM_CACTVS_ROTATABLE_BOND>
13
> <PUBCHEM_CACTVS_SUBSKEYS>
AAADcfB7MABAAAAAAAAAAAAAAAAAAAAAAAAwYAAAAAAAAAABQAAAHgQQCAAADKjl2AayAIPAAgiIAiFSEACCAAAgABAIiIGIBIgKcDagkTGUYAhitgCYiAcQgAAOAAAAAAAAAAAAAAAAAAAAAAAAAAAAAA==
> <PUBCHEM_IUPAC_OPENEYE_NAME>
(2S)-N-tert-butyl-2-[[(2S)-2-(dibenzylamino)-3-hydroxy-propanoyl]amino]-4-methylsulfanyl-butanamide
> <PUBCHEM_IUPAC_CAS_NAME>
(2S)-2-[[(2S)-2-[bis(phenylmethyl)amino]-3-hydroxy-1-oxopropyl]amino]-N-tert-butyl-4-(methylthio)butanamide
> <PUBCHEM_IUPAC_NAME_MARKUP>
(2<I>S</I>)-<I>N</I>-<I>tert</I>-butyl-2-[[(2<I>S</I>)-2-(dibenzylamino)-3-hydroxypropanoyl]amino]-4-methylsulfanylbutanamide
> <PUBCHEM_IUPAC_NAME>
(2S)-N-tert-butyl-2-[[(2S)-2-(dibenzylamino)-3-hydroxypropanoyl]amino]-4-methylsulfanylbutanamide
> <PUBCHEM_IUPAC_SYSTEMATIC_NAME>
(2S)-2-[[(2S)-2-[bis(phenylmethyl)amino]-3-oxidanyl-propanoyl]amino]-N-tert-butyl-4-methylsulfanyl-butanamide
> <PUBCHEM_IUPAC_TRADITIONAL_NAME>
(2S)-N-tert-butyl-2-[[(2S)-2-(dibenzylamino)-3-hydroxy-propanoyl]amino]-4-(methylthio)butyramide
> <PUBCHEM_IUPAC_INCHI>
InChI=1S/C26H37N3O3S/c1-26(2,3)28-24(31)22(15-16-33-4)27-25(32)23(19-30)29(17-20-11-7-5-8-12-20)18-21-13-9-6-10-14-21/h5-14,22-23,30H,15-19H2,1-4H3,(H,27,32)(H,28,31)/t22-,23-/m0/s1
> <PUBCHEM_IUPAC_INCHIKEY>
TUZKZDUWZQZVSG-GOTSBHOMSA-N
> <PUBCHEM_XLOGP3_AA>
3.3
> <PUBCHEM_EXACT_MASS>
471.25556322
> <PUBCHEM_MOLECULAR_FORMULA>
C26H37N3O3S
> <PUBCHEM_MOLECULAR_WEIGHT>
471.7
> <PUBCHEM_OPENEYE_CAN_SMILES>
CC(C)(C)NC(=O)C(CCSC)NC(=O)C(CO)N(CC1=CC=CC=C1)CC2=CC=CC=C2
> <PUBCHEM_OPENEYE_ISO_SMILES>
CC(C)(C)NC(=O)[C@H](CCSC)NC(=O)[C@H](CO)N(CC1=CC=CC=C1)CC2=CC=CC=C2
> <PUBCHEM_CACTVS_TPSA>
107
> <PUBCHEM_MONOISOTOPIC_WEIGHT>
471.25556322
> <PUBCHEM_TOTAL_CHARGE>
0
> <PUBCHEM_HEAVY_ATOM_COUNT>
33
> <PUBCHEM_ATOM_DEF_STEREO_COUNT>
2
> <PUBCHEM_ATOM_UDEF_STEREO_COUNT>
0
> <PUBCHEM_BOND_DEF_STEREO_COUNT>
0
> <PUBCHEM_BOND_UDEF_STEREO_COUNT>
0
> <PUBCHEM_ISOTOPIC_ATOM_COUNT>
0
> <PUBCHEM_COMPONENT_COUNT>
1
> <PUBCHEM_CACTVS_TAUTO_COUNT>
-1
> <PUBCHEM_COORDINATE_TYPE>
1
5
255
> <PUBCHEM_BONDANNOTATIONS>
21  23  8
21  25  8
22  24  8
22  26  8
23  27  8
24  28  8
25  29  8
26  30  8
27  31  8
28  32  8
29  31  8
30  32  8
8  5  6
9  6  5
$$$$
