504506
  -OEChem-10302200282D
 43 44  0     1  0  0  0  0  0999 V2000
    8.0622   -0.6550    0.0000 S   0  0  0  0  0  0  0  0  0  0  0  0
    8.9282    0.8450    0.0000 O   0  0  0  0  0  0  0  0  0  0  0  0
   12.3923    1.8450    0.0000 O   0  0  0  0  0  0  0  0  0  0  0  0
    7.1962   -2.1550    0.0000 O   0  0  0  0  0  0  0  0  0  0  0  0
    2.0000   -2.1550    0.0000 O   0  5  0  0  0  0  0  0  0  0  0  0
    2.8660   -3.6550    0.0000 O   0  0  0  0  0  0  0  0  0  0  0  0
   10.6603    0.8450    0.0000 N   0  0  0  0  0  0  0  0  0  0  0  0
    6.3301   -0.6550    0.0000 N   0  0  0  0  0  0  0  0  0  0  0  0
   11.5263    3.3450    0.0000 N   0  0  0  0  0  0  0  0  0  0  0  0
    2.8660   -2.6550    0.0000 N   0  3  0  0  0  0  0  0  0  0  0  0
   10.6603    1.8450    0.0000 C   0  0  1  0  0  0  0  0  0  0  0  0
    9.7942   -0.6550    0.0000 C   0  0  0  0  0  0  0  0  0  0  0  0
    9.7942    0.3450    0.0000 C   0  0  0  0  0  0  0  0  0  0  0  0
    9.7942    2.3450    0.0000 C   0  0  0  0  0  0  0  0  0  0  0  0
    8.9282   -1.1550    0.0000 C   0  0  0  0  0  0  0  0  0  0  0  0
   11.5263    2.3450    0.0000 C   0  0  0  0  0  0  0  0  0  0  0  0
   10.6603   -1.1550    0.0000 C   0  0  0  0  0  0  0  0  0  0  0  0
    8.9282   -2.1550    0.0000 C   0  0  0  0  0  0  0  0  0  0  0  0
   10.6603   -2.1550    0.0000 C   0  0  0  0  0  0  0  0  0  0  0  0
    9.7942   -2.6550    0.0000 C   0  0  0  0  0  0  0  0  0  0  0  0
    5.4641   -1.1550    0.0000 C   0  0  0  0  0  0  0  0  0  0  0  0
    5.4641   -2.1550    0.0000 C   0  0  0  0  0  0  0  0  0  0  0  0
    4.5981   -0.6550    0.0000 C   0  0  0  0  0  0  0  0  0  0  0  0
    7.1962   -1.1550    0.0000 C   0  0  0  0  0  0  0  0  0  0  0  0
    3.7320   -2.1550    0.0000 C   0  0  0  0  0  0  0  0  0  0  0  0
    4.5981   -2.6550    0.0000 C   0  0  0  0  0  0  0  0  0  0  0  0
    3.7320   -1.1550    0.0000 C   0  0  0  0  0  0  0  0  0  0  0  0
   11.1972    1.5350    0.0000 H   0  0  0  0  0  0  0  0  0  0  0  0
   11.1972    0.5350    0.0000 H   0  0  0  0  0  0  0  0  0  0  0  0
   10.1042    2.8819    0.0000 H   0  0  0  0  0  0  0  0  0  0  0  0
    9.2573    2.6550    0.0000 H   0  0  0  0  0  0  0  0  0  0  0  0
    9.4842    1.8081    0.0000 H   0  0  0  0  0  0  0  0  0  0  0  0
   11.1972   -0.8450    0.0000 H   0  0  0  0  0  0  0  0  0  0  0  0
    8.3913   -2.4650    0.0000 H   0  0  0  0  0  0  0  0  0  0  0  0
   11.1972   -2.4650    0.0000 H   0  0  0  0  0  0  0  0  0  0  0  0
    9.7942   -3.2750    0.0000 H   0  0  0  0  0  0  0  0  0  0  0  0
    6.3301   -0.0350    0.0000 H   0  0  0  0  0  0  0  0  0  0  0  0
    6.0010   -2.4650    0.0000 H   0  0  0  0  0  0  0  0  0  0  0  0
    4.5981   -0.0350    0.0000 H   0  0  0  0  0  0  0  0  0  0  0  0
    4.5981   -3.2750    0.0000 H   0  0  0  0  0  0  0  0  0  0  0  0
    3.1951   -0.8450    0.0000 H   0  0  0  0  0  0  0  0  0  0  0  0
   12.0632    3.6550    0.0000 H   0  0  0  0  0  0  0  0  0  0  0  0
   10.9893    3.6550    0.0000 H   0  0  0  0  0  0  0  0  0  0  0  0
  1 15  1  0  0  0  0
  1 24  1  0  0  0  0
  2 13  2  0  0  0  0
  3 16  2  0  0  0  0
  4 24  2  0  0  0  0
  5 10  1  0  0  0  0
  6 10  2  0  0  0  0
 11  7  1  1  0  0  0
  7 13  1  0  0  0  0
  7 29  1  0  0  0  0
  8 21  1  0  0  0  0
  8 24  1  0  0  0  0
  8 37  1  0  0  0  0
  9 16  1  0  0  0  0
  9 42  1  0  0  0  0
  9 43  1  0  0  0  0
 10 25  1  0  0  0  0
 11 14  1  0  0  0  0
 11 16  1  0  0  0  0
 11 28  1  0  0  0  0
 12 13  1  0  0  0  0
 12 15  1  0  0  0  0
 12 17  2  0  0  0  0
 14 30  1  0  0  0  0
 14 31  1  0  0  0  0
 14 32  1  0  0  0  0
 15 18  2  0  0  0  0
 17 19  1  0  0  0  0
 17 33  1  0  0  0  0
 18 20  1  0  0  0  0
 18 34  1  0  0  0  0
 19 20  2  0  0  0  0
 19 35  1  0  0  0  0
 20 36  1  0  0  0  0
 21 22  2  0  0  0  0
 21 23  1  0  0  0  0
 22 26  1  0  0  0  0
 22 38  1  0  0  0  0
 23 27  2  0  0  0  0
 23 39  1  0  0  0  0
 25 26  2  0  0  0  0
 25 27  1  0  0  0  0
 26 40  1  0  0  0  0
 27 41  1  0  0  0  0
M  CHG  2   5  -1  10   1
M  END
> <PUBCHEM_COMPOUND_CID>
504506
> <PUBCHEM_COMPOUND_CANONICALIZED>
1
> <PUBCHEM_CACTVS_COMPLEXITY>
574
> <PUBCHEM_CACTVS_HBOND_ACCEPTOR>
6
> <PUBCHEM_CACTVS_HBOND_DONOR>
3
> <PUBCHEM_CACTVS_ROTATABLE_BOND>
6
> <PUBCHEM_CACTVS_SUBSKEYS>
AAADceB7uABAAAAAAAAAAAAAAAAAAAAAAAAwYAAAAAAAAAABQAAAHgQUAAAADCjB2AQywYLQQAiJAiVSUwCCAABlChAoiJmIZMoIYDLglbGUIQhglgDIyYcYiACOAACAAAAEAAAAAQAAAAgAAAAAAAAAAA==
> <PUBCHEM_IUPAC_OPENEYE_NAME>
S-[2-[[(1S)-2-amino-1-methyl-2-oxo-ethyl]carbamoyl]phenyl] N-(4-nitrophenyl)carbamothioate
> <PUBCHEM_IUPAC_CAS_NAME>
N-(4-nitrophenyl)carbamothioic acid S-[2-[[[(2S)-1-amino-1-oxopropan-2-yl]amino]-oxomethyl]phenyl] ester
> <PUBCHEM_IUPAC_NAME_MARKUP>
<I>S</I>-[2-[[(2<I>S</I>)-1-amino-1-oxopropan-2-yl]carbamoyl]phenyl] <I>N</I>-(4-nitrophenyl)carbamothioate
> <PUBCHEM_IUPAC_NAME>
S-[2-[[(2S)-1-amino-1-oxopropan-2-yl]carbamoyl]phenyl] N-(4-nitrophenyl)carbamothioate
> <PUBCHEM_IUPAC_SYSTEMATIC_NAME>
S-[2-[[(2S)-1-azanyl-1-oxidanylidene-propan-2-yl]carbamoyl]phenyl] N-(4-nitrophenyl)carbamothioate
> <PUBCHEM_IUPAC_TRADITIONAL_NAME>
N-(4-nitrophenyl)thiocarbamic acid S-[2-[[(1S)-2-amino-2-keto-1-methyl-ethyl]carbamoyl]phenyl] ester
> <PUBCHEM_IUPAC_INCHI>
InChI=1S/C17H16N4O5S/c1-10(15(18)22)19-16(23)13-4-2-3-5-14(13)27-17(24)20-11-6-8-12(9-7-11)21(25)26/h2-10H,1H3,(H2,18,22)(H,19,23)(H,20,24)/t10-/m0/s1
> <PUBCHEM_IUPAC_INCHIKEY>
APIJEBPPIGPXJG-JTQLQIEISA-N
> <PUBCHEM_XLOGP3_AA>
2.1
> <PUBCHEM_EXACT_MASS>
388.08414080
> <PUBCHEM_MOLECULAR_FORMULA>
C17H16N4O5S
> <PUBCHEM_MOLECULAR_WEIGHT>
388.4
> <PUBCHEM_OPENEYE_CAN_SMILES>
CC(C(=O)N)NC(=O)C1=CC=CC=C1SC(=O)NC2=CC=C(C=C2)[N+](=O)[O-]
> <PUBCHEM_OPENEYE_ISO_SMILES>
C[C@@H](C(=O)N)NC(=O)C1=CC=CC=C1SC(=O)NC2=CC=C(C=C2)[N+](=O)[O-]
> <PUBCHEM_CACTVS_TPSA>
172
> <PUBCHEM_MONOISOTOPIC_WEIGHT>
388.08414080
> <PUBCHEM_TOTAL_CHARGE>
0
> <PUBCHEM_HEAVY_ATOM_COUNT>
27
> <PUBCHEM_ATOM_DEF_STEREO_COUNT>
1
> <PUBCHEM_ATOM_UDEF_STEREO_COUNT>
0
> <PUBCHEM_BOND_DEF_STEREO_COUNT>
0
> <PUBCHEM_BOND_UDEF_STEREO_COUNT>
0
> <PUBCHEM_ISOTOPIC_ATOM_COUNT>
0
> <PUBCHEM_COMPONENT_COUNT>
1
> <PUBCHEM_CACTVS_TAUTO_COUNT>
-1
> <PUBCHEM_COORDINATE_TYPE>
1
5
255
> <PUBCHEM_BONDANNOTATIONS>
12  15  8
12  17  8
15  18  8
17  19  8
18  20  8
19  20  8
21  22  8
21  23  8
22  26  8
23  27  8
25  26  8
25  27  8
11  7  5
$$$$
