504508
  -OEChem-10302200282D
 36 36  0     1  0  0  0  0  0999 V2000
    2.0000   -1.6550    0.0000 Br  0  0  0  0  0  0  0  0  0  0  0  0
    6.3301   -1.1550    0.0000 S   0  0  0  0  0  0  0  0  0  0  0  0
    7.1962    0.3450    0.0000 O   0  0  0  0  0  0  0  0  0  0  0  0
   10.6603    1.3450    0.0000 O   0  0  0  0  0  0  0  0  0  0  0  0
    4.5981   -1.1550    0.0000 O   0  0  0  0  0  0  0  0  0  0  0  0
    5.4641   -2.6550    0.0000 O   0  0  0  0  0  0  0  0  0  0  0  0
    8.9282    0.3450    0.0000 N   0  0  0  0  0  0  0  0  0  0  0  0
    9.7942    2.8450    0.0000 N   0  0  0  0  0  0  0  0  0  0  0  0
    8.9282    1.3450    0.0000 C   0  0  1  0  0  0  0  0  0  0  0  0
    8.0622   -1.1550    0.0000 C   0  0  0  0  0  0  0  0  0  0  0  0
    8.0622   -0.1550    0.0000 C   0  0  0  0  0  0  0  0  0  0  0  0
    8.0622    1.8450    0.0000 C   0  0  0  0  0  0  0  0  0  0  0  0
    7.1962   -1.6550    0.0000 C   0  0  0  0  0  0  0  0  0  0  0  0
    9.7942    1.8450    0.0000 C   0  0  0  0  0  0  0  0  0  0  0  0
    8.9282   -1.6550    0.0000 C   0  0  0  0  0  0  0  0  0  0  0  0
    7.1962   -2.6550    0.0000 C   0  0  0  0  0  0  0  0  0  0  0  0
    8.9282   -2.6550    0.0000 C   0  0  0  0  0  0  0  0  0  0  0  0
    8.0622   -3.1550    0.0000 C   0  0  0  0  0  0  0  0  0  0  0  0
    5.4641   -1.6550    0.0000 C   0  0  0  0  0  0  0  0  0  0  0  0
    3.7320   -1.6550    0.0000 C   0  0  0  0  0  0  0  0  0  0  0  0
    2.8660   -1.1550    0.0000 C   0  0  0  0  0  0  0  0  0  0  0  0
    9.4651    1.0350    0.0000 H   0  0  0  0  0  0  0  0  0  0  0  0
    9.4651    0.0350    0.0000 H   0  0  0  0  0  0  0  0  0  0  0  0
    8.3722    2.3819    0.0000 H   0  0  0  0  0  0  0  0  0  0  0  0
    7.5252    2.1550    0.0000 H   0  0  0  0  0  0  0  0  0  0  0  0
    7.7522    1.3081    0.0000 H   0  0  0  0  0  0  0  0  0  0  0  0
    9.4651   -1.3450    0.0000 H   0  0  0  0  0  0  0  0  0  0  0  0
    6.6592   -2.9650    0.0000 H   0  0  0  0  0  0  0  0  0  0  0  0
    9.4651   -2.9650    0.0000 H   0  0  0  0  0  0  0  0  0  0  0  0
    8.0622   -3.7750    0.0000 H   0  0  0  0  0  0  0  0  0  0  0  0
   10.3312    3.1550    0.0000 H   0  0  0  0  0  0  0  0  0  0  0  0
    9.2573    3.1550    0.0000 H   0  0  0  0  0  0  0  0  0  0  0  0
    3.3335   -2.1300    0.0000 H   0  0  0  0  0  0  0  0  0  0  0  0
    4.1306   -2.1300    0.0000 H   0  0  0  0  0  0  0  0  0  0  0  0
    3.2646   -0.6801    0.0000 H   0  0  0  0  0  0  0  0  0  0  0  0
    2.4675   -0.6801    0.0000 H   0  0  0  0  0  0  0  0  0  0  0  0
  1 21  1  0  0  0  0
  2 13  1  0  0  0  0
  2 19  1  0  0  0  0
  3 11  2  0  0  0  0
  4 14  2  0  0  0  0
  5 19  1  0  0  0  0
  5 20  1  0  0  0  0
  6 19  2  0  0  0  0
  9  7  1  1  0  0  0
  7 11  1  0  0  0  0
  7 23  1  0  0  0  0
  8 14  1  0  0  0  0
  8 31  1  0  0  0  0
  8 32  1  0  0  0  0
  9 12  1  0  0  0  0
  9 14  1  0  0  0  0
  9 22  1  0  0  0  0
 10 11  1  0  0  0  0
 10 13  1  0  0  0  0
 10 15  2  0  0  0  0
 12 24  1  0  0  0  0
 12 25  1  0  0  0  0
 12 26  1  0  0  0  0
 13 16  2  0  0  0  0
 15 17  1  0  0  0  0
 15 27  1  0  0  0  0
 16 18  1  0  0  0  0
 16 28  1  0  0  0  0
 17 18  2  0  0  0  0
 17 29  1  0  0  0  0
 18 30  1  0  0  0  0
 20 21  1  0  0  0  0
 20 33  1  0  0  0  0
 20 34  1  0  0  0  0
 21 35  1  0  0  0  0
 21 36  1  0  0  0  0
M  END
> <PUBCHEM_COMPOUND_CID>
504508
> <PUBCHEM_COMPOUND_CANONICALIZED>
1
> <PUBCHEM_CACTVS_COMPLEXITY>
394
> <PUBCHEM_CACTVS_HBOND_ACCEPTOR>
5
> <PUBCHEM_CACTVS_HBOND_DONOR>
2
> <PUBCHEM_CACTVS_ROTATABLE_BOND>
8
> <PUBCHEM_CACTVS_SUBSKEYS>
AAADccBzOABAEAAAAAAAAAAAAAAAAAAAAAAwAAAAAAAAAAABAAAAHgRQAAABTCjh2AYyCYLABAiIAiFSGACCAAAkCBAIiJmIBMgIYDKglTGUIQhglgCIiYcYiACOAAAAAAAEAAAAAAAAAAgAAAAAAAAAAA==
> <PUBCHEM_IUPAC_OPENEYE_NAME>
2-bromoethyl [2-[[(1S)-2-amino-1-methyl-2-oxo-ethyl]carbamoyl]phenyl]sulfanylformate
> <PUBCHEM_IUPAC_CAS_NAME>
[[2-[[[(2S)-1-amino-1-oxopropan-2-yl]amino]-oxomethyl]phenyl]thio]formic acid 2-bromoethyl ester
> <PUBCHEM_IUPAC_NAME_MARKUP>
2-bromoethyl [2-[[(2<I>S</I>)-1-amino-1-oxopropan-2-yl]carbamoyl]phenyl]sulfanylformate
> <PUBCHEM_IUPAC_NAME>
2-bromoethyl [2-[[(2S)-1-amino-1-oxopropan-2-yl]carbamoyl]phenyl]sulfanylformate
> <PUBCHEM_IUPAC_SYSTEMATIC_NAME>
2-bromoethyl [2-[[(2S)-1-azanyl-1-oxidanylidene-propan-2-yl]carbamoyl]phenyl]sulfanylmethanoate
> <PUBCHEM_IUPAC_TRADITIONAL_NAME>
[[2-[[(1S)-2-amino-2-keto-1-methyl-ethyl]carbamoyl]phenyl]thio]formic acid 2-bromoethyl ester
> <PUBCHEM_IUPAC_INCHI>
InChI=1S/C13H15BrN2O4S/c1-8(11(15)17)16-12(18)9-4-2-3-5-10(9)21-13(19)20-7-6-14/h2-5,8H,6-7H2,1H3,(H2,15,17)(H,16,18)/t8-/m0/s1
> <PUBCHEM_IUPAC_INCHIKEY>
BIYLKFHAWPLKTL-QMMMGPOBSA-N
> <PUBCHEM_XLOGP3_AA>
2
> <PUBCHEM_EXACT_MASS>
373.99359
> <PUBCHEM_MOLECULAR_FORMULA>
C13H15BrN2O4S
> <PUBCHEM_MOLECULAR_WEIGHT>
375.24
> <PUBCHEM_OPENEYE_CAN_SMILES>
CC(C(=O)N)NC(=O)C1=CC=CC=C1SC(=O)OCCBr
> <PUBCHEM_OPENEYE_ISO_SMILES>
C[C@@H](C(=O)N)NC(=O)C1=CC=CC=C1SC(=O)OCCBr
> <PUBCHEM_CACTVS_TPSA>
124
> <PUBCHEM_MONOISOTOPIC_WEIGHT>
373.99359
> <PUBCHEM_TOTAL_CHARGE>
0
> <PUBCHEM_HEAVY_ATOM_COUNT>
21
> <PUBCHEM_ATOM_DEF_STEREO_COUNT>
1
> <PUBCHEM_ATOM_UDEF_STEREO_COUNT>
0
> <PUBCHEM_BOND_DEF_STEREO_COUNT>
0
> <PUBCHEM_BOND_UDEF_STEREO_COUNT>
0
> <PUBCHEM_ISOTOPIC_ATOM_COUNT>
0
> <PUBCHEM_COMPONENT_COUNT>
1
> <PUBCHEM_CACTVS_TAUTO_COUNT>
-1
> <PUBCHEM_COORDINATE_TYPE>
1
5
255
> <PUBCHEM_BONDANNOTATIONS>
10  13  8
10  15  8
13  16  8
15  17  8
16  18  8
17  18  8
9  7  5
$$$$
