504505
  -OEChem-10302200282D
 41 42  0     1  0  0  0  0  0999 V2000
    7.1962   -1.1550    0.0000 S   0  0  0  0  0  0  0  0  0  0  0  0
    2.0000   -3.1550    0.0000 F   0  0  0  0  0  0  0  0  0  0  0  0
    8.0622    0.3450    0.0000 O   0  0  0  0  0  0  0  0  0  0  0  0
   11.5263    1.3450    0.0000 O   0  0  0  0  0  0  0  0  0  0  0  0
    6.3301   -2.6550    0.0000 O   0  0  0  0  0  0  0  0  0  0  0  0
    9.7942    0.3450    0.0000 N   0  0  0  0  0  0  0  0  0  0  0  0
    5.4641   -1.1550    0.0000 N   0  0  0  0  0  0  0  0  0  0  0  0
   10.6603    2.8450    0.0000 N   0  0  0  0  0  0  0  0  0  0  0  0
    9.7942    1.3450    0.0000 C   0  0  2  0  0  0  0  0  0  0  0  0
    8.9282   -1.1550    0.0000 C   0  0  0  0  0  0  0  0  0  0  0  0
    8.9282   -0.1550    0.0000 C   0  0  0  0  0  0  0  0  0  0  0  0
    8.9282    1.8450    0.0000 C   0  0  0  0  0  0  0  0  0  0  0  0
    8.0622   -1.6550    0.0000 C   0  0  0  0  0  0  0  0  0  0  0  0
   10.6603    1.8450    0.0000 C   0  0  0  0  0  0  0  0  0  0  0  0
    9.7942   -1.6550    0.0000 C   0  0  0  0  0  0  0  0  0  0  0  0
    8.0622   -2.6550    0.0000 C   0  0  0  0  0  0  0  0  0  0  0  0
    9.7942   -2.6550    0.0000 C   0  0  0  0  0  0  0  0  0  0  0  0
    8.9282   -3.1550    0.0000 C   0  0  0  0  0  0  0  0  0  0  0  0
    4.5981   -1.6550    0.0000 C   0  0  0  0  0  0  0  0  0  0  0  0
    6.3301   -1.6550    0.0000 C   0  0  0  0  0  0  0  0  0  0  0  0
    4.5981   -2.6550    0.0000 C   0  0  0  0  0  0  0  0  0  0  0  0
    3.7320   -1.1550    0.0000 C   0  0  0  0  0  0  0  0  0  0  0  0
    3.7320   -3.1550    0.0000 C   0  0  0  0  0  0  0  0  0  0  0  0
    2.8660   -1.6550    0.0000 C   0  0  0  0  0  0  0  0  0  0  0  0
    2.8660   -2.6550    0.0000 C   0  0  0  0  0  0  0  0  0  0  0  0
    9.2573    1.0350    0.0000 H   0  0  0  0  0  0  0  0  0  0  0  0
   10.3312    0.0350    0.0000 H   0  0  0  0  0  0  0  0  0  0  0  0
    9.2382    2.3819    0.0000 H   0  0  0  0  0  0  0  0  0  0  0  0
    8.3913    2.1550    0.0000 H   0  0  0  0  0  0  0  0  0  0  0  0
    8.6182    1.3081    0.0000 H   0  0  0  0  0  0  0  0  0  0  0  0
   10.3312   -1.3450    0.0000 H   0  0  0  0  0  0  0  0  0  0  0  0
    7.5252   -2.9650    0.0000 H   0  0  0  0  0  0  0  0  0  0  0  0
   10.3312   -2.9650    0.0000 H   0  0  0  0  0  0  0  0  0  0  0  0
    8.9282   -3.7750    0.0000 H   0  0  0  0  0  0  0  0  0  0  0  0
    5.4641   -0.5350    0.0000 H   0  0  0  0  0  0  0  0  0  0  0  0
   11.1972    3.1550    0.0000 H   0  0  0  0  0  0  0  0  0  0  0  0
   10.1233    3.1550    0.0000 H   0  0  0  0  0  0  0  0  0  0  0  0
    5.1350   -2.9650    0.0000 H   0  0  0  0  0  0  0  0  0  0  0  0
    3.7320   -0.5350    0.0000 H   0  0  0  0  0  0  0  0  0  0  0  0
    3.7320   -3.7750    0.0000 H   0  0  0  0  0  0  0  0  0  0  0  0
    2.3291   -1.3450    0.0000 H   0  0  0  0  0  0  0  0  0  0  0  0
  1 13  1  0  0  0  0
  1 20  1  0  0  0  0
  2 25  1  0  0  0  0
  3 11  2  0  0  0  0
  4 14  2  0  0  0  0
  5 20  2  0  0  0  0
  9  6  1  6  0  0  0
  6 11  1  0  0  0  0
  6 27  1  0  0  0  0
  7 19  1  0  0  0  0
  7 20  1  0  0  0  0
  7 35  1  0  0  0  0
  8 14  1  0  0  0  0
  8 36  1  0  0  0  0
  8 37  1  0  0  0  0
  9 12  1  0  0  0  0
  9 14  1  0  0  0  0
  9 26  1  0  0  0  0
 10 11  1  0  0  0  0
 10 13  1  0  0  0  0
 10 15  2  0  0  0  0
 12 28  1  0  0  0  0
 12 29  1  0  0  0  0
 12 30  1  0  0  0  0
 13 16  2  0  0  0  0
 15 17  1  0  0  0  0
 15 31  1  0  0  0  0
 16 18  1  0  0  0  0
 16 32  1  0  0  0  0
 17 18  2  0  0  0  0
 17 33  1  0  0  0  0
 18 34  1  0  0  0  0
 19 21  2  0  0  0  0
 19 22  1  0  0  0  0
 21 23  1  0  0  0  0
 21 38  1  0  0  0  0
 22 24  2  0  0  0  0
 22 39  1  0  0  0  0
 23 25  2  0  0  0  0
 23 40  1  0  0  0  0
 24 25  1  0  0  0  0
 24 41  1  0  0  0  0
M  END
> <PUBCHEM_COMPOUND_CID>
504505
> <PUBCHEM_COMPOUND_CANONICALIZED>
1
> <PUBCHEM_CACTVS_COMPLEXITY>
498
> <PUBCHEM_CACTVS_HBOND_ACCEPTOR>
5
> <PUBCHEM_CACTVS_HBOND_DONOR>
3
> <PUBCHEM_CACTVS_ROTATABLE_BOND>
6
> <PUBCHEM_CACTVS_SUBSKEYS>
AAADceB7MQBAAAAAAAAAAAAAAAAAAAAAAAAwYAAAAAAAAAABQAAAHwQQAAAADCjB2AwywYLAAAiIAiVSUACCAABlChAIiJmIZMgIYDLglbGUIQhglgDIyYcYiACOAAAAAAAEAAAAAAAAAAgAAAAAAAAAAA==
> <PUBCHEM_IUPAC_OPENEYE_NAME>
S-[2-[[(1R)-2-amino-1-methyl-2-oxo-ethyl]carbamoyl]phenyl] N-(4-fluorophenyl)carbamothioate
> <PUBCHEM_IUPAC_CAS_NAME>
N-(4-fluorophenyl)carbamothioic acid S-[2-[[[(2R)-1-amino-1-oxopropan-2-yl]amino]-oxomethyl]phenyl] ester
> <PUBCHEM_IUPAC_NAME_MARKUP>
<I>S</I>-[2-[[(2<I>R</I>)-1-amino-1-oxopropan-2-yl]carbamoyl]phenyl] <I>N</I>-(4-fluorophenyl)carbamothioate
> <PUBCHEM_IUPAC_NAME>
S-[2-[[(2R)-1-amino-1-oxopropan-2-yl]carbamoyl]phenyl] N-(4-fluorophenyl)carbamothioate
> <PUBCHEM_IUPAC_SYSTEMATIC_NAME>
S-[2-[[(2R)-1-azanyl-1-oxidanylidene-propan-2-yl]carbamoyl]phenyl] N-(4-fluorophenyl)carbamothioate
> <PUBCHEM_IUPAC_TRADITIONAL_NAME>
N-(4-fluorophenyl)thiocarbamic acid S-[2-[[(1R)-2-amino-2-keto-1-methyl-ethyl]carbamoyl]phenyl] ester
> <PUBCHEM_IUPAC_INCHI>
InChI=1S/C17H16FN3O3S/c1-10(15(19)22)20-16(23)13-4-2-3-5-14(13)25-17(24)21-12-8-6-11(18)7-9-12/h2-10H,1H3,(H2,19,22)(H,20,23)(H,21,24)/t10-/m1/s1
> <PUBCHEM_IUPAC_INCHIKEY>
DGDPPIJAEPMLJG-SNVBAGLBSA-N
> <PUBCHEM_XLOGP3_AA>
2.3
> <PUBCHEM_EXACT_MASS>
361.08964072
> <PUBCHEM_MOLECULAR_FORMULA>
C17H16FN3O3S
> <PUBCHEM_MOLECULAR_WEIGHT>
361.4
> <PUBCHEM_OPENEYE_CAN_SMILES>
CC(C(=O)N)NC(=O)C1=CC=CC=C1SC(=O)NC2=CC=C(C=C2)F
> <PUBCHEM_OPENEYE_ISO_SMILES>
C[C@H](C(=O)N)NC(=O)C1=CC=CC=C1SC(=O)NC2=CC=C(C=C2)F
> <PUBCHEM_CACTVS_TPSA>
127
> <PUBCHEM_MONOISOTOPIC_WEIGHT>
361.08964072
> <PUBCHEM_TOTAL_CHARGE>
0
> <PUBCHEM_HEAVY_ATOM_COUNT>
25
> <PUBCHEM_ATOM_DEF_STEREO_COUNT>
1
> <PUBCHEM_ATOM_UDEF_STEREO_COUNT>
0
> <PUBCHEM_BOND_DEF_STEREO_COUNT>
0
> <PUBCHEM_BOND_UDEF_STEREO_COUNT>
0
> <PUBCHEM_ISOTOPIC_ATOM_COUNT>
0
> <PUBCHEM_COMPONENT_COUNT>
1
> <PUBCHEM_CACTVS_TAUTO_COUNT>
-1
> <PUBCHEM_COORDINATE_TYPE>
1
5
255
> <PUBCHEM_BONDANNOTATIONS>
10  13  8
10  15  8
13  16  8
15  17  8
16  18  8
17  18  8
19  21  8
19  22  8
21  23  8
22  24  8
23  25  8
24  25  8
9  6  6
$$$$
