504510
  -OEChem-10302200282D
 37 37  0     1  0  0  0  0  0999 V2000
    2.0000   -1.6550    0.0000 Br  0  0  0  0  0  0  0  0  0  0  0  0
    6.3301   -1.1550    0.0000 S   0  0  0  0  0  0  0  0  0  0  0  0
    7.1962    0.3450    0.0000 O   0  0  0  0  0  0  0  0  0  0  0  0
   10.6603    1.3450    0.0000 O   0  0  0  0  0  0  0  0  0  0  0  0
    5.4641   -2.6550    0.0000 O   0  0  0  0  0  0  0  0  0  0  0  0
    8.9282    0.3450    0.0000 N   0  0  0  0  0  0  0  0  0  0  0  0
    4.5981   -1.1550    0.0000 N   0  0  0  0  0  0  0  0  0  0  0  0
    9.7942    2.8450    0.0000 N   0  0  0  0  0  0  0  0  0  0  0  0
    8.9282    1.3450    0.0000 C   0  0  2  0  0  0  0  0  0  0  0  0
    8.0622   -1.1550    0.0000 C   0  0  0  0  0  0  0  0  0  0  0  0
    8.0622   -0.1550    0.0000 C   0  0  0  0  0  0  0  0  0  0  0  0
    8.0622    1.8450    0.0000 C   0  0  0  0  0  0  0  0  0  0  0  0
    7.1962   -1.6550    0.0000 C   0  0  0  0  0  0  0  0  0  0  0  0
    9.7942    1.8450    0.0000 C   0  0  0  0  0  0  0  0  0  0  0  0
    8.9282   -1.6550    0.0000 C   0  0  0  0  0  0  0  0  0  0  0  0
    7.1962   -2.6550    0.0000 C   0  0  0  0  0  0  0  0  0  0  0  0
    8.9282   -2.6550    0.0000 C   0  0  0  0  0  0  0  0  0  0  0  0
    8.0622   -3.1550    0.0000 C   0  0  0  0  0  0  0  0  0  0  0  0
    3.7320   -1.6550    0.0000 C   0  0  0  0  0  0  0  0  0  0  0  0
    5.4641   -1.6550    0.0000 C   0  0  0  0  0  0  0  0  0  0  0  0
    2.8660   -1.1550    0.0000 C   0  0  0  0  0  0  0  0  0  0  0  0
    9.4651    1.0350    0.0000 H   0  0  0  0  0  0  0  0  0  0  0  0
    9.4651    0.0350    0.0000 H   0  0  0  0  0  0  0  0  0  0  0  0
    8.3722    2.3819    0.0000 H   0  0  0  0  0  0  0  0  0  0  0  0
    7.5252    2.1550    0.0000 H   0  0  0  0  0  0  0  0  0  0  0  0
    7.7522    1.3081    0.0000 H   0  0  0  0  0  0  0  0  0  0  0  0
    9.4651   -1.3450    0.0000 H   0  0  0  0  0  0  0  0  0  0  0  0
    6.6592   -2.9650    0.0000 H   0  0  0  0  0  0  0  0  0  0  0  0
    9.4651   -2.9650    0.0000 H   0  0  0  0  0  0  0  0  0  0  0  0
    8.0622   -3.7750    0.0000 H   0  0  0  0  0  0  0  0  0  0  0  0
    3.3335   -2.1300    0.0000 H   0  0  0  0  0  0  0  0  0  0  0  0
    4.1306   -2.1300    0.0000 H   0  0  0  0  0  0  0  0  0  0  0  0
    4.5981   -0.5350    0.0000 H   0  0  0  0  0  0  0  0  0  0  0  0
   10.3312    3.1550    0.0000 H   0  0  0  0  0  0  0  0  0  0  0  0
    9.2573    3.1550    0.0000 H   0  0  0  0  0  0  0  0  0  0  0  0
    3.2646   -0.6801    0.0000 H   0  0  0  0  0  0  0  0  0  0  0  0
    2.4675   -0.6801    0.0000 H   0  0  0  0  0  0  0  0  0  0  0  0
  1 21  1  0  0  0  0
  2 13  1  0  0  0  0
  2 20  1  0  0  0  0
  3 11  2  0  0  0  0
  4 14  2  0  0  0  0
  5 20  2  0  0  0  0
  9  6  1  6  0  0  0
  6 11  1  0  0  0  0
  6 23  1  0  0  0  0
  7 19  1  0  0  0  0
  7 20  1  0  0  0  0
  7 33  1  0  0  0  0
  8 14  1  0  0  0  0
  8 34  1  0  0  0  0
  8 35  1  0  0  0  0
  9 12  1  0  0  0  0
  9 14  1  0  0  0  0
  9 22  1  0  0  0  0
 10 11  1  0  0  0  0
 10 13  1  0  0  0  0
 10 15  2  0  0  0  0
 12 24  1  0  0  0  0
 12 25  1  0  0  0  0
 12 26  1  0  0  0  0
 13 16  2  0  0  0  0
 15 17  1  0  0  0  0
 15 27  1  0  0  0  0
 16 18  1  0  0  0  0
 16 28  1  0  0  0  0
 17 18  2  0  0  0  0
 17 29  1  0  0  0  0
 18 30  1  0  0  0  0
 19 21  1  0  0  0  0
 19 31  1  0  0  0  0
 19 32  1  0  0  0  0
 21 36  1  0  0  0  0
 21 37  1  0  0  0  0
M  END
> <PUBCHEM_COMPOUND_CID>
504510
> <PUBCHEM_COMPOUND_CANONICALIZED>
1
> <PUBCHEM_CACTVS_COMPLEXITY>
395
> <PUBCHEM_CACTVS_HBOND_ACCEPTOR>
4
> <PUBCHEM_CACTVS_HBOND_DONOR>
3
> <PUBCHEM_CACTVS_ROTATABLE_BOND>
7
> <PUBCHEM_CACTVS_SUBSKEYS>
AAADceBzMABAEAAAAAAAAAAAAAAAAAAAAAAwAAAAAAAAAAABAAAAHgRQAAABTCjB2AQyAYLAAAiIAiFSEACCAABkCBAIiJmIBMgIYDKglTGUIQhglgCIiYcYiACOAAAAAAAEAAAAAAAAAAgAAAAAAAAAAA==
> <PUBCHEM_IUPAC_OPENEYE_NAME>
S-[2-[[(1R)-2-amino-1-methyl-2-oxo-ethyl]carbamoyl]phenyl] N-(2-bromoethyl)carbamothioate
> <PUBCHEM_IUPAC_CAS_NAME>
N-(2-bromoethyl)carbamothioic acid S-[2-[[[(2R)-1-amino-1-oxopropan-2-yl]amino]-oxomethyl]phenyl] ester
> <PUBCHEM_IUPAC_NAME_MARKUP>
<I>S</I>-[2-[[(2<I>R</I>)-1-amino-1-oxopropan-2-yl]carbamoyl]phenyl] <I>N</I>-(2-bromoethyl)carbamothioate
> <PUBCHEM_IUPAC_NAME>
S-[2-[[(2R)-1-amino-1-oxopropan-2-yl]carbamoyl]phenyl] N-(2-bromoethyl)carbamothioate
> <PUBCHEM_IUPAC_SYSTEMATIC_NAME>
S-[2-[[(2R)-1-azanyl-1-oxidanylidene-propan-2-yl]carbamoyl]phenyl] N-(2-bromoethyl)carbamothioate
> <PUBCHEM_IUPAC_TRADITIONAL_NAME>
N-(2-bromoethyl)thiocarbamic acid S-[2-[[(1R)-2-amino-2-keto-1-methyl-ethyl]carbamoyl]phenyl] ester
> <PUBCHEM_IUPAC_INCHI>
InChI=1S/C13H16BrN3O3S/c1-8(11(15)18)17-12(19)9-4-2-3-5-10(9)21-13(20)16-7-6-14/h2-5,8H,6-7H2,1H3,(H2,15,18)(H,16,20)(H,17,19)/t8-/m1/s1
> <PUBCHEM_IUPAC_INCHIKEY>
KYSQEIRJVKRBPT-MRVPVSSYSA-N
> <PUBCHEM_XLOGP3_AA>
1.4
> <PUBCHEM_EXACT_MASS>
373.00958
> <PUBCHEM_MOLECULAR_FORMULA>
C13H16BrN3O3S
> <PUBCHEM_MOLECULAR_WEIGHT>
374.26
> <PUBCHEM_OPENEYE_CAN_SMILES>
CC(C(=O)N)NC(=O)C1=CC=CC=C1SC(=O)NCCBr
> <PUBCHEM_OPENEYE_ISO_SMILES>
C[C@H](C(=O)N)NC(=O)C1=CC=CC=C1SC(=O)NCCBr
> <PUBCHEM_CACTVS_TPSA>
127
> <PUBCHEM_MONOISOTOPIC_WEIGHT>
373.00958
> <PUBCHEM_TOTAL_CHARGE>
0
> <PUBCHEM_HEAVY_ATOM_COUNT>
21
> <PUBCHEM_ATOM_DEF_STEREO_COUNT>
1
> <PUBCHEM_ATOM_UDEF_STEREO_COUNT>
0
> <PUBCHEM_BOND_DEF_STEREO_COUNT>
0
> <PUBCHEM_BOND_UDEF_STEREO_COUNT>
0
> <PUBCHEM_ISOTOPIC_ATOM_COUNT>
0
> <PUBCHEM_COMPONENT_COUNT>
1
> <PUBCHEM_CACTVS_TAUTO_COUNT>
-1
> <PUBCHEM_COORDINATE_TYPE>
1
5
255
> <PUBCHEM_BONDANNOTATIONS>
10  13  8
10  15  8
13  16  8
15  17  8
16  18  8
17  18  8
9  6  6
$$$$
