504500
  -OEChem-10302200282D
 45 47  0     1  0  0  0  0  0999 V2000
    2.0000   -1.4222    0.0000 O   0  0  0  0  0  0  0  0  0  0  0  0
    5.0424    0.9770    0.0000 N   0  0  3  0  0  0  0  0  0  0  0  0
    3.6414   -0.7798    0.0000 N   0  0  0  0  0  0  0  0  0  0  0  0
    3.4701   -2.3948    0.0000 N   0  0  0  0  0  0  0  0  0  0  0  0
    8.1047   -0.4646    0.0000 N   0  0  0  0  0  0  0  0  0  0  0  0
    4.0424    0.9770    0.0000 C   0  0  2  0  0  0  0  0  0  0  0  0
    5.4763    1.8780    0.0000 C   0  0  0  0  0  0  0  0  0  0  0  0
    3.4189    0.1952    0.0000 C   0  0  0  0  0  0  0  0  0  0  0  0
    5.6659    0.1952    0.0000 C   0  0  0  0  0  0  0  0  0  0  0  0
    6.4735    1.9527    0.0000 C   0  0  0  0  0  0  0  0  0  0  0  0
    4.5424   -1.2136    0.0000 C   0  0  0  0  0  0  0  0  0  0  0  0
    5.4434   -0.7798    0.0000 C   0  0  0  0  0  0  0  0  0  0  0  0
    3.6085    1.8780    0.0000 C   0  0  0  0  0  0  0  0  0  0  0  0
    4.4485   -2.2510    0.0000 C   0  0  0  0  0  0  0  0  0  0  0  0
    2.9944   -1.5277    0.0000 C   0  0  0  0  0  0  0  0  0  0  0  0
    6.3988    2.9499    0.0000 C   0  0  0  0  0  0  0  0  0  0  0  0
    6.5482    0.9555    0.0000 C   0  0  0  0  0  0  0  0  0  0  0  0
    6.3129   -1.3532    0.0000 C   0  0  0  0  0  0  0  0  0  0  0  0
    7.4707    2.0274    0.0000 C   0  0  0  0  0  0  0  0  0  0  0  0
    5.3046   -2.8444    0.0000 C   0  0  0  0  0  0  0  0  0  0  0  0
    6.2431   -2.3925    0.0000 C   0  0  0  0  0  0  0  0  0  0  0  0
    7.9046    2.9284    0.0000 C   0  0  0  0  0  0  0  0  0  0  0  0
    7.2088   -0.9089    0.0000 C   0  0  0  0  0  0  0  0  0  0  0  0
    4.3722    1.5020    0.0000 H   0  0  0  0  0  0  0  0  0  0  0  0
    5.5380    2.4949    0.0000 H   0  0  0  0  0  0  0  0  0  0  0  0
    4.8794    2.0459    0.0000 H   0  0  0  0  0  0  0  0  0  0  0  0
    3.0323    0.6799    0.0000 H   0  0  0  0  0  0  0  0  0  0  0  0
    2.8603   -0.0738    0.0000 H   0  0  0  0  0  0  0  0  0  0  0  0
    6.2245   -0.0738    0.0000 H   0  0  0  0  0  0  0  0  0  0  0  0
    6.0524    0.6799    0.0000 H   0  0  0  0  0  0  0  0  0  0  0  0
    4.1671    2.1470    0.0000 H   0  0  0  0  0  0  0  0  0  0  0  0
    3.3395    2.4366    0.0000 H   0  0  0  0  0  0  0  0  0  0  0  0
    3.0499    1.6090    0.0000 H   0  0  0  0  0  0  0  0  0  0  0  0
    7.0170    2.9962    0.0000 H   0  0  0  0  0  0  0  0  0  0  0  0
    6.3524    3.5682    0.0000 H   0  0  0  0  0  0  0  0  0  0  0  0
    5.7805    2.9036    0.0000 H   0  0  0  0  0  0  0  0  0  0  0  0
    5.9299    0.9092    0.0000 H   0  0  0  0  0  0  0  0  0  0  0  0
    6.5945    0.3372    0.0000 H   0  0  0  0  0  0  0  0  0  0  0  0
    7.1665    1.0018    0.0000 H   0  0  0  0  0  0  0  0  0  0  0  0
    3.1940   -2.9499    0.0000 H   0  0  0  0  0  0  0  0  0  0  0  0
    7.8199    1.5152    0.0000 H   0  0  0  0  0  0  0  0  0  0  0  0
    5.2559   -3.4625    0.0000 H   0  0  0  0  0  0  0  0  0  0  0  0
    6.7567   -2.7398    0.0000 H   0  0  0  0  0  0  0  0  0  0  0  0
    8.5228    2.9747    0.0000 H   0  0  0  0  0  0  0  0  0  0  0  0
    7.5553    3.4407    0.0000 H   0  0  0  0  0  0  0  0  0  0  0  0
  1 15  2  0  0  0  0
  2  6  1  0  0  0  0
  2  7  1  0  0  0  0
  2  9  1  0  0  0  0
  3  8  1  0  0  0  0
  3 11  1  0  0  0  0
  3 15  1  0  0  0  0
  4 14  1  0  0  0  0
  4 15  1  0  0  0  0
  4 40  1  0  0  0  0
  5 23  3  0  0  0  0
  6  8  1  0  0  0  0
  6 13  1  6  0  0  0
  6 24  1  0  0  0  0
  7 10  1  0  0  0  0
  7 25  1  0  0  0  0
  7 26  1  0  0  0  0
  8 27  1  0  0  0  0
  8 28  1  0  0  0  0
  9 12  1  0  0  0  0
  9 29  1  0  0  0  0
  9 30  1  0  0  0  0
 10 16  1  0  0  0  0
 10 17  1  0  0  0  0
 10 19  1  0  0  0  0
 11 12  1  0  0  0  0
 11 14  2  0  0  0  0
 12 18  2  0  0  0  0
 13 31  1  0  0  0  0
 13 32  1  0  0  0  0
 13 33  1  0  0  0  0
 14 20  1  0  0  0  0
 16 34  1  0  0  0  0
 16 35  1  0  0  0  0
 16 36  1  0  0  0  0
 17 37  1  0  0  0  0
 17 38  1  0  0  0  0
 17 39  1  0  0  0  0
 18 21  1  0  0  0  0
 18 23  1  0  0  0  0
 19 22  2  0  0  0  0
 19 41  1  0  0  0  0
 20 21  2  0  0  0  0
 20 42  1  0  0  0  0
 21 43  1  0  0  0  0
 22 44  1  0  0  0  0
 22 45  1  0  0  0  0
M  END
> <PUBCHEM_COMPOUND_CID>
504500
> <PUBCHEM_COMPOUND_CANONICALIZED>
1
> <PUBCHEM_CACTVS_COMPLEXITY>
549
> <PUBCHEM_CACTVS_HBOND_ACCEPTOR>
3
> <PUBCHEM_CACTVS_HBOND_DONOR>
1
> <PUBCHEM_CACTVS_ROTATABLE_BOND>
3
> <PUBCHEM_CACTVS_SUBSKEYS>
AAADceB7oAAAAAAAAAAAAAAAAAAAAWAAAAAwAAAABYAAAFixAAAAHgAQAAAADijBGAQzwIPAAACYBiRCUACiAAAhAgAIiAAIdIiI4CLA0JGUIAholgLIyC8QgIAOiAAAQAASACAQAACAACQAQAAAAAAAAA==
> <PUBCHEM_IUPAC_OPENEYE_NAME>
(11S)-10-(2,2-dimethylbut-3-enyl)-11-methyl-2-oxo-1,3,10-triazatricyclo[6.4.1.04,13]trideca-4(13),5,7-triene-7-carbonitrile
> <PUBCHEM_IUPAC_CAS_NAME>
(11S)-10-(2,2-dimethylbut-3-enyl)-11-methyl-2-oxo-1,3,10-triazatricyclo[6.4.1.04,13]trideca-4(13),5,7-triene-7-carbonitrile
> <PUBCHEM_IUPAC_NAME_MARKUP>
(11<I>S</I>)-10-(2,2-dimethylbut-3-enyl)-11-methyl-2-oxo-1,3,10-triazatricyclo[6.4.1.0<SUP>4,13</SUP>]trideca-4(13),5,7-triene-7-carbonitrile
> <PUBCHEM_IUPAC_NAME>
(11S)-10-(2,2-dimethylbut-3-enyl)-11-methyl-2-oxo-1,3,10-triazatricyclo[6.4.1.04,13]trideca-4(13),5,7-triene-7-carbonitrile
> <PUBCHEM_IUPAC_SYSTEMATIC_NAME>
(11S)-10-(2,2-dimethylbut-3-enyl)-11-methyl-2-oxidanylidene-1,3,10-triazatricyclo[6.4.1.04,13]trideca-4(13),5,7-triene-7-carbonitrile
> <PUBCHEM_IUPAC_TRADITIONAL_NAME>
(11S)-10-(2,2-dimethylbut-3-enyl)-2-keto-11-methyl-1,3,10-triazatricyclo[6.4.1.04,13]trideca-4(13),5,7-triene-7-carbonitrile
> <PUBCHEM_IUPAC_INCHI>
InChI=1S/C18H22N4O/c1-5-18(3,4)11-21-10-14-13(8-19)6-7-15-16(14)22(9-12(21)2)17(23)20-15/h5-7,12H,1,9-11H2,2-4H3,(H,20,23)/t12-/m0/s1
> <PUBCHEM_IUPAC_INCHIKEY>
NNJNWECVKFOXQX-LBPRGKRZSA-N
> <PUBCHEM_XLOGP3_AA>
2.5
> <PUBCHEM_EXACT_MASS>
310.17936134
> <PUBCHEM_MOLECULAR_FORMULA>
C18H22N4O
> <PUBCHEM_MOLECULAR_WEIGHT>
310.4
> <PUBCHEM_OPENEYE_CAN_SMILES>
CC1CN2C3=C(C=CC(=C3CN1CC(C)(C)C=C)C#N)NC2=O
> <PUBCHEM_OPENEYE_ISO_SMILES>
C[C@H]1CN2C3=C(C=CC(=C3CN1CC(C)(C)C=C)C#N)NC2=O
> <PUBCHEM_CACTVS_TPSA>
59.4
> <PUBCHEM_MONOISOTOPIC_WEIGHT>
310.17936134
> <PUBCHEM_TOTAL_CHARGE>
0
> <PUBCHEM_HEAVY_ATOM_COUNT>
23
> <PUBCHEM_ATOM_DEF_STEREO_COUNT>
1
> <PUBCHEM_ATOM_UDEF_STEREO_COUNT>
0
> <PUBCHEM_BOND_DEF_STEREO_COUNT>
0
> <PUBCHEM_BOND_UDEF_STEREO_COUNT>
0
> <PUBCHEM_ISOTOPIC_ATOM_COUNT>
0
> <PUBCHEM_COMPONENT_COUNT>
1
> <PUBCHEM_CACTVS_TAUTO_COUNT>
-1
> <PUBCHEM_COORDINATE_TYPE>
1
5
255
> <PUBCHEM_BONDANNOTATIONS>
11  12  8
11  14  8
12  18  8
14  20  8
18  21  8
20  21  8
3  11  8
3  15  8
4  14  8
4  15  8
6  13  6
$$$$
