504573
  -OEChem-10302200282D
 81 84  0     1  0  0  0  0  0999 V2000
    5.3307    0.3265    0.0000 O   0  0  0  0  0  0  0  0  0  0  0  0
    2.5357   -3.2258    0.0000 O   0  0  0  0  0  0  0  0  0  0  0  0
    7.9506   -3.2049    0.0000 O   0  0  0  0  0  0  0  0  0  0  0  0
    7.9288   -0.1735    0.0000 C   0  0  1  0  0  0  0  0  0  0  0  0
    7.9288   -1.1735    0.0000 C   0  0  1  0  0  0  0  0  0  0  0  0
    8.8750    0.1313    0.0000 C   0  0  2  0  0  0  0  0  0  0  0  0
    5.2868   -1.6803    0.0000 C   0  0  1  0  0  0  0  0  0  0  0  0
    8.8750   -1.4782    0.0000 C   0  0  0  0  0  0  0  0  0  0  0  0
    7.0628   -1.6735    0.0000 C   0  0  0  0  0  0  0  0  0  0  0  0
    5.2787   -2.7219    0.0000 C   0  0  2  0  0  0  0  0  0  0  0  0
    9.4586   -0.6735    0.0000 C   0  0  0  0  0  0  0  0  0  0  0  0
    6.1968   -1.1735    0.0000 C   0  0  0  0  0  0  0  0  0  0  0  0
    7.0628    0.3265    0.0000 C   0  0  0  0  0  0  0  0  0  0  0  0
    4.3433   -3.2716    0.0000 C   0  0  0  0  0  0  0  0  0  0  0  0
    9.1857    1.0818    0.0000 C   0  0  1  0  0  0  0  0  0  0  0  0
    7.9288    0.8265    0.0000 C   0  0  0  0  0  0  0  0  0  0  0  0
    4.3599   -1.1162    0.0000 C   0  0  0  0  0  0  0  0  0  0  0  0
    7.9288   -2.1735    0.0000 C   0  0  0  0  0  0  0  0  0  0  0  0
    6.1808   -3.2427    0.0000 C   0  0  0  0  0  0  0  0  0  0  0  0
    6.1968   -0.1735    0.0000 C   0  0  0  0  0  0  0  0  0  0  0  0
    7.0789   -2.7150    0.0000 C   0  0  0  0  0  0  0  0  0  0  0  0
    3.4037   -2.7291    0.0000 C   0  0  3  0  0  0  0  0  0  0  0  0
    3.4120   -1.6442    0.0000 C   0  0  0  0  0  0  0  0  0  0  0  0
    5.2945   -0.6803    0.0000 C   0  0  0  0  0  0  0  0  0  0  0  0
   10.1642    1.2880    0.0000 C   0  0  0  0  0  0  0  0  0  0  0  0
    3.8467   -4.1396    0.0000 C   0  0  0  0  0  0  0  0  0  0  0  0
    4.8466   -4.1357    0.0000 C   0  0  0  0  0  0  0  0  0  0  0  0
    8.5179    1.8261    0.0000 C   0  0  0  0  0  0  0  0  0  0  0  0
   10.4749    2.2385    0.0000 C   0  0  0  0  0  0  0  0  0  0  0  0
   11.4534    2.4448    0.0000 C   0  0  0  0  0  0  0  0  0  0  0  0
   11.7640    3.3953    0.0000 C   0  0  0  0  0  0  0  0  0  0  0  0
   12.7425    3.6015    0.0000 C   0  0  0  0  0  0  0  0  0  0  0  0
   11.0962    4.1396    0.0000 C   0  0  0  0  0  0  0  0  0  0  0  0
    9.7148    0.2632    0.0000 H   0  0  0  0  0  0  0  0  0  0  0  0
    8.6240   -2.0451    0.0000 H   0  0  0  0  0  0  0  0  0  0  0  0
    9.4124   -1.7874    0.0000 H   0  0  0  0  0  0  0  0  0  0  0  0
    5.2820   -3.5719    0.0000 H   0  0  0  0  0  0  0  0  0  0  0  0
    9.9195   -1.0882    0.0000 H   0  0  0  0  0  0  0  0  0  0  0  0
    9.9195   -0.2587    0.0000 H   0  0  0  0  0  0  0  0  0  0  0  0
    7.4613    0.8015    0.0000 H   0  0  0  0  0  0  0  0  0  0  0  0
    6.6643    0.8015    0.0000 H   0  0  0  0  0  0  0  0  0  0  0  0
    9.3783    1.6711    0.0000 H   0  0  0  0  0  0  0  0  0  0  0  0
    8.5488    0.8265    0.0000 H   0  0  0  0  0  0  0  0  0  0  0  0
    7.9288    1.4465    0.0000 H   0  0  0  0  0  0  0  0  0  0  0  0
    7.3088    0.8265    0.0000 H   0  0  0  0  0  0  0  0  0  0  0  0
    4.7681   -0.6496    0.0000 H   0  0  0  0  0  0  0  0  0  0  0  0
    3.9700   -0.6342    0.0000 H   0  0  0  0  0  0  0  0  0  0  0  0
    5.7835   -3.7187    0.0000 H   0  0  0  0  0  0  0  0  0  0  0  0
    6.5818   -3.7156    0.0000 H   0  0  0  0  0  0  0  0  0  0  0  0
    7.3088   -2.1735    0.0000 H   0  0  0  0  0  0  0  0  0  0  0  0
    7.9288   -2.7935    0.0000 H   0  0  0  0  0  0  0  0  0  0  0  0
    8.5488   -2.1735    0.0000 H   0  0  0  0  0  0  0  0  0  0  0  0
    3.4025   -3.3491    0.0000 H   0  0  0  0  0  0  0  0  0  0  0  0
    3.2075   -1.0589    0.0000 H   0  0  0  0  0  0  0  0  0  0  0  0
    2.8004   -1.7456    0.0000 H   0  0  0  0  0  0  0  0  0  0  0  0
    5.9145   -0.6851    0.0000 H   0  0  0  0  0  0  0  0  0  0  0  0
    5.2993   -0.0604    0.0000 H   0  0  0  0  0  0  0  0  0  0  0  0
    4.6745   -0.6756    0.0000 H   0  0  0  0  0  0  0  0  0  0  0  0
   10.1848    0.6684    0.0000 H   0  0  0  0  0  0  0  0  0  0  0  0
   10.7780    1.2007    0.0000 H   0  0  0  0  0  0  0  0  0  0  0  0
    3.3085   -3.8316    0.0000 H   0  0  0  0  0  0  0  0  0  0  0  0
    3.5387   -4.6777    0.0000 H   0  0  0  0  0  0  0  0  0  0  0  0
    4.3848   -4.4475    0.0000 H   0  0  0  0  0  0  0  0  0  0  0  0
    4.3109   -4.4478    0.0000 H   0  0  0  0  0  0  0  0  0  0  0  0
    5.1587   -4.6715    0.0000 H   0  0  0  0  0  0  0  0  0  0  0  0
    5.3824   -3.8236    0.0000 H   0  0  0  0  0  0  0  0  0  0  0  0
    8.9793    2.2402    0.0000 H   0  0  0  0  0  0  0  0  0  0  0  0
    8.1038    2.2876    0.0000 H   0  0  0  0  0  0  0  0  0  0  0  0
    8.0564    1.4120    0.0000 H   0  0  0  0  0  0  0  0  0  0  0  0
   10.4543    2.8582    0.0000 H   0  0  0  0  0  0  0  0  0  0  0  0
    9.8611    2.3259    0.0000 H   0  0  0  0  0  0  0  0  0  0  0  0
    2.0000   -2.9137    0.0000 H   0  0  0  0  0  0  0  0  0  0  0  0
   11.4739    1.8251    0.0000 H   0  0  0  0  0  0  0  0  0  0  0  0
   12.0672    2.3574    0.0000 H   0  0  0  0  0  0  0  0  0  0  0  0
   12.1781    2.9338    0.0000 H   0  0  0  0  0  0  0  0  0  0  0  0
   12.8704    2.9948    0.0000 H   0  0  0  0  0  0  0  0  0  0  0  0
   13.3492    3.7294    0.0000 H   0  0  0  0  0  0  0  0  0  0  0  0
   12.6147    4.2082    0.0000 H   0  0  0  0  0  0  0  0  0  0  0  0
   11.5577    4.5536    0.0000 H   0  0  0  0  0  0  0  0  0  0  0  0
   10.6821    4.6010    0.0000 H   0  0  0  0  0  0  0  0  0  0  0  0
   10.6347    3.7255    0.0000 H   0  0  0  0  0  0  0  0  0  0  0  0
  1 20  2  0  0  0  0
  2 22  1  0  0  0  0
  2 72  1  0  0  0  0
  3 21  2  0  0  0  0
  4  5  1  0  0  0  0
  4  6  1  0  0  0  0
  4 13  1  0  0  0  0
  4 16  1  1  0  0  0
  5  8  1  0  0  0  0
  5  9  1  0  0  0  0
  5 18  1  6  0  0  0
  6 11  1  0  0  0  0
  6 15  1  0  0  0  0
  6 34  1  6  0  0  0
  7 10  1  0  0  0  0
  7 12  1  0  0  0  0
  7 17  1  0  0  0  0
  7 24  1  1  0  0  0
  8 11  1  0  0  0  0
  8 35  1  0  0  0  0
  8 36  1  0  0  0  0
  9 12  2  0  0  0  0
  9 21  1  0  0  0  0
 10 14  1  0  0  0  0
 10 19  1  0  0  0  0
 10 37  1  6  0  0  0
 11 38  1  0  0  0  0
 11 39  1  0  0  0  0
 12 20  1  0  0  0  0
 13 20  1  0  0  0  0
 13 40  1  0  0  0  0
 13 41  1  0  0  0  0
 14 22  1  0  0  0  0
 14 26  1  0  0  0  0
 14 27  1  0  0  0  0
 15 25  1  0  0  0  0
 15 28  1  6  0  0  0
 15 42  1  0  0  0  0
 16 43  1  0  0  0  0
 16 44  1  0  0  0  0
 16 45  1  0  0  0  0
 17 23  1  0  0  0  0
 17 46  1  0  0  0  0
 17 47  1  0  0  0  0
 18 50  1  0  0  0  0
 18 51  1  0  0  0  0
 18 52  1  0  0  0  0
 19 21  1  0  0  0  0
 19 48  1  0  0  0  0
 19 49  1  0  0  0  0
 22 23  1  0  0  0  0
 22 53  1  0  0  0  0
 23 54  1  0  0  0  0
 23 55  1  0  0  0  0
 24 56  1  0  0  0  0
 24 57  1  0  0  0  0
 24 58  1  0  0  0  0
 25 29  1  0  0  0  0
 25 59  1  0  0  0  0
 25 60  1  0  0  0  0
 26 61  1  0  0  0  0
 26 62  1  0  0  0  0
 26 63  1  0  0  0  0
 27 64  1  0  0  0  0
 27 65  1  0  0  0  0
 27 66  1  0  0  0  0
 28 67  1  0  0  0  0
 28 68  1  0  0  0  0
 28 69  1  0  0  0  0
 29 30  1  0  0  0  0
 29 70  1  0  0  0  0
 29 71  1  0  0  0  0
 30 31  1  0  0  0  0
 30 73  1  0  0  0  0
 30 74  1  0  0  0  0
 31 32  1  0  0  0  0
 31 33  1  0  0  0  0
 31 75  1  0  0  0  0
 32 76  1  0  0  0  0
 32 77  1  0  0  0  0
 32 78  1  0  0  0  0
 33 79  1  0  0  0  0
 33 80  1  0  0  0  0
 33 81  1  0  0  0  0
M  END
> <PUBCHEM_COMPOUND_CID>
504573
> <PUBCHEM_COMPOUND_CANONICALIZED>
1
> <PUBCHEM_CACTVS_COMPLEXITY>
866
> <PUBCHEM_CACTVS_HBOND_ACCEPTOR>
3
> <PUBCHEM_CACTVS_HBOND_DONOR>
1
> <PUBCHEM_CACTVS_ROTATABLE_BOND>
5
> <PUBCHEM_CACTVS_SUBSKEYS>
AAADcfB4MAAAAAAAAAAAAAAAAAAAAYAAAAAwQIAAAAAAAEDAAAAAGgAACAAADxSggAICAAAAAgCIAoBQAAAAAAAgAAAACAEAAEgAEBIAAAAAQAAEgAAIAQOIzPDPgAAAAAAAAABAAAYAADAAAQAACAAAAA==
> <PUBCHEM_IUPAC_OPENEYE_NAME>
(5R,10S,13R,14R,17R)-17-[(1R)-1,5-dimethylhexyl]-3-hydroxy-4,4,10,13,14-pentamethyl-2,3,5,6,12,15,16,17-octahydro-1H-cyclopenta[a]phenanthrene-7,11-dione
> <PUBCHEM_IUPAC_CAS_NAME>
(5R,10S,13R,14R,17R)-3-hydroxy-4,4,10,13,14-pentamethyl-17-[(2R)-6-methylheptan-2-yl]-2,3,5,6,12,15,16,17-octahydro-1H-cyclopenta[a]phenanthrene-7,11-dione
> <PUBCHEM_IUPAC_NAME_MARKUP>
(5<I>R</I>,10<I>S</I>,13<I>R</I>,14<I>R</I>,17<I>R</I>)-3-hydroxy-4,4,10,13,14-pentamethyl-17-[(2<I>R</I>)-6-methylheptan-2-yl]-2,3,5,6,12,15,16,17-octahydro-1<I>H</I>-cyclopenta[a]phenanthrene-7,11-dione
> <PUBCHEM_IUPAC_NAME>
(5R,10S,13R,14R,17R)-3-hydroxy-4,4,10,13,14-pentamethyl-17-[(2R)-6-methylheptan-2-yl]-2,3,5,6,12,15,16,17-octahydro-1H-cyclopenta[a]phenanthrene-7,11-dione
> <PUBCHEM_IUPAC_SYSTEMATIC_NAME>
(5R,10S,13R,14R,17R)-4,4,10,13,14-pentamethyl-17-[(2R)-6-methylheptan-2-yl]-3-oxidanyl-2,3,5,6,12,15,16,17-octahydro-1H-cyclopenta[a]phenanthrene-7,11-dione
> <PUBCHEM_IUPAC_TRADITIONAL_NAME>
(5R,10S,13R,14R,17R)-17-[(1R)-1,5-dimethylhexyl]-3-hydroxy-4,4,10,13,14-pentamethyl-2,3,5,6,12,15,16,17-octahydro-1H-cyclopenta[a]phenanthrene-7,11-quinone
> <PUBCHEM_IUPAC_INCHI>
InChI=1S/C30H48O3/c1-18(2)10-9-11-19(3)20-12-15-29(7)26-21(31)16-23-27(4,5)24(33)13-14-28(23,6)25(26)22(32)17-30(20,29)8/h18-20,23-24,33H,9-17H2,1-8H3/t19-,20-,23+,24?,28+,29+,30-/m1/s1
> <PUBCHEM_IUPAC_INCHIKEY>
HWKUGNALHCOUQE-KVPQQOAYSA-N
> <PUBCHEM_XLOGP3_AA>
7.5
> <PUBCHEM_EXACT_MASS>
456.36034539
> <PUBCHEM_MOLECULAR_FORMULA>
C30H48O3
> <PUBCHEM_MOLECULAR_WEIGHT>
456.7
> <PUBCHEM_OPENEYE_CAN_SMILES>
CC(C)CCCC(C)C1CCC2(C1(CC(=O)C3=C2C(=O)CC4C3(CCC(C4(C)C)O)C)C)C
> <PUBCHEM_OPENEYE_ISO_SMILES>
C[C@H](CCCC(C)C)[C@H]1CC[C@@]2([C@@]1(CC(=O)C3=C2C(=O)C[C@@H]4[C@@]3(CCC(C4(C)C)O)C)C)C
> <PUBCHEM_CACTVS_TPSA>
54.4
> <PUBCHEM_MONOISOTOPIC_WEIGHT>
456.36034539
> <PUBCHEM_TOTAL_CHARGE>
0
> <PUBCHEM_HEAVY_ATOM_COUNT>
33
> <PUBCHEM_ATOM_DEF_STEREO_COUNT>
6
> <PUBCHEM_ATOM_UDEF_STEREO_COUNT>
1
> <PUBCHEM_BOND_DEF_STEREO_COUNT>
0
> <PUBCHEM_BOND_UDEF_STEREO_COUNT>
0
> <PUBCHEM_ISOTOPIC_ATOM_COUNT>
0
> <PUBCHEM_COMPONENT_COUNT>
1
> <PUBCHEM_CACTVS_TAUTO_COUNT>
-1
> <PUBCHEM_COORDINATE_TYPE>
1
5
255
> <PUBCHEM_BONDANNOTATIONS>
10  37  6
15  28  6
22  2  3
4  16  5
5  18  6
6  34  6
7  24  5
$$$$
