504529
  -OEChem-10302200282D
103106  0     1  0  0  0  0  0999 V2000
    7.9915    5.1618    0.0000 S   0  0  0  0  0  0  0  0  0  0  0  0
    5.3934   -2.3382    0.0000 O   0  0  0  0  0  0  0  0  0  0  0  0
    7.1254    1.6618    0.0000 O   0  0  0  0  0  0  0  0  0  0  0  0
   10.5895    0.6618    0.0000 O   0  0  0  0  0  0  0  0  0  0  0  0
    7.9915    2.1618    0.0000 O   0  0  0  0  0  0  0  0  0  0  0  0
    4.5274   -0.8382    0.0000 O   0  0  0  0  0  0  0  0  0  0  0  0
   11.4556    3.1618    0.0000 O   0  0  0  0  0  0  0  0  0  0  0  0
    7.9915    0.1618    0.0000 N   0  0  0  0  0  0  0  0  0  0  0  0
    6.2594   -0.8382    0.0000 N   0  0  0  0  0  0  0  0  0  0  0  0
    9.7235    2.1618    0.0000 N   0  0  0  0  0  0  0  0  0  0  0  0
   10.5895    4.6618    0.0000 N   0  0  0  0  0  0  0  0  0  0  0  0
    4.5274   -3.8382    0.0000 C   0  0  0  0  0  0  0  0  0  0  0  0
    5.3364   -4.4260    0.0000 C   0  0  0  0  0  0  0  0  0  0  0  0
    3.7183   -4.4260    0.0000 C   0  0  0  0  0  0  0  0  0  0  0  0
    6.2594    0.1618    0.0000 C   0  0  1  0  0  0  0  0  0  0  0  0
    5.3934    0.6618    0.0000 C   0  0  0  0  0  0  0  0  0  0  0  0
    5.0274   -5.3770    0.0000 C   0  0  0  0  0  0  0  0  0  0  0  0
    4.0274   -5.3770    0.0000 C   0  0  0  0  0  0  0  0  0  0  0  0
    4.5274   -2.8382    0.0000 C   0  0  0  0  0  0  0  0  0  0  0  0
    5.3934    1.6618    0.0000 C   0  0  0  0  0  0  0  0  0  0  0  0
    8.8575    0.6618    0.0000 C   0  0  2  0  0  0  0  0  0  0  0  0
    7.1254    0.6618    0.0000 C   0  0  0  0  0  0  0  0  0  0  0  0
    7.9915   -0.8382    0.0000 C   0  0  0  0  0  0  0  0  0  0  0  0
    6.3518   -4.1938    0.0000 C   0  0  0  0  0  0  0  0  0  0  0  0
    2.7029   -4.1938    0.0000 C   0  0  0  0  0  0  0  0  0  0  0  0
    9.7235    3.1618    0.0000 C   0  0  1  0  0  0  0  0  0  0  0  0
    5.7123   -6.1618    0.0000 C   0  0  0  0  0  0  0  0  0  0  0  0
    3.3424   -6.1618    0.0000 C   0  0  0  0  0  0  0  0  0  0  0  0
    8.8575    1.6618    0.0000 C   0  0  0  0  0  0  0  0  0  0  0  0
    4.5274    2.1618    0.0000 C   0  0  0  0  0  0  0  0  0  0  0  0
    6.2594    2.1618    0.0000 C   0  0  0  0  0  0  0  0  0  0  0  0
    9.7235    0.1618    0.0000 C   0  0  0  0  0  0  0  0  0  0  0  0
   11.4556    5.1618    0.0000 C   0  0  0  0  0  0  0  0  0  0  0  0
    5.3934   -1.3382    0.0000 C   0  0  0  0  0  0  0  0  0  0  0  0
    8.8575    3.6618    0.0000 C   0  0  0  0  0  0  0  0  0  0  0  0
    7.0547   -4.9624    0.0000 C   0  0  0  0  0  0  0  0  0  0  0  0
    2.0000   -4.9624    0.0000 C   0  0  0  0  0  0  0  0  0  0  0  0
    6.7328   -5.9531    0.0000 C   0  0  0  0  0  0  0  0  0  0  0  0
    2.3219   -5.9531    0.0000 C   0  0  0  0  0  0  0  0  0  0  0  0
   10.5895    3.6618    0.0000 C   0  0  0  0  0  0  0  0  0  0  0  0
    8.8575   -1.3382    0.0000 C   0  0  0  0  0  0  0  0  0  0  0  0
    8.8575    4.6618    0.0000 C   0  0  0  0  0  0  0  0  0  0  0  0
   12.3216    5.6618    0.0000 C   0  0  0  0  0  0  0  0  0  0  0  0
   10.9556    6.0278    0.0000 C   0  0  0  0  0  0  0  0  0  0  0  0
   11.9556    4.2958    0.0000 C   0  0  0  0  0  0  0  0  0  0  0  0
    9.7235   -0.8382    0.0000 C   0  0  0  0  0  0  0  0  0  0  0  0
    8.8575   -2.3382    0.0000 C   0  0  0  0  0  0  0  0  0  0  0  0
   10.5895   -1.3382    0.0000 C   0  0  0  0  0  0  0  0  0  0  0  0
    9.7235   -2.8382    0.0000 C   0  0  0  0  0  0  0  0  0  0  0  0
   10.5895   -2.3382    0.0000 C   0  0  0  0  0  0  0  0  0  0  0  0
    7.9915    6.1618    0.0000 C   0  0  0  0  0  0  0  0  0  0  0  0
    5.0798   -3.5567    0.0000 H   0  0  0  0  0  0  0  0  0  0  0  0
    6.7964   -0.1482    0.0000 H   0  0  0  0  0  0  0  0  0  0  0  0
    4.7828    0.7695    0.0000 H   0  0  0  0  0  0  0  0  0  0  0  0
    5.1813    0.0792    0.0000 H   0  0  0  0  0  0  0  0  0  0  0  0
    4.3153   -2.2556    0.0000 H   0  0  0  0  0  0  0  0  0  0  0  0
    3.9168   -2.9459    0.0000 H   0  0  0  0  0  0  0  0  0  0  0  0
    5.3934    2.2818    0.0000 H   0  0  0  0  0  0  0  0  0  0  0  0
    8.3206    0.9718    0.0000 H   0  0  0  0  0  0  0  0  0  0  0  0
    6.7964   -1.1482    0.0000 H   0  0  0  0  0  0  0  0  0  0  0  0
    7.3809   -0.7305    0.0000 H   0  0  0  0  0  0  0  0  0  0  0  0
    7.7794   -1.4208    0.0000 H   0  0  0  0  0  0  0  0  0  0  0  0
    6.5365   -3.6019    0.0000 H   0  0  0  0  0  0  0  0  0  0  0  0
    2.5182   -3.6019    0.0000 H   0  0  0  0  0  0  0  0  0  0  0  0
    9.1866    2.8518    0.0000 H   0  0  0  0  0  0  0  0  0  0  0  0
    5.5139   -6.7492    0.0000 H   0  0  0  0  0  0  0  0  0  0  0  0
    3.5408   -6.7492    0.0000 H   0  0  0  0  0  0  0  0  0  0  0  0
    9.3250   -0.3132    0.0000 H   0  0  0  0  0  0  0  0  0  0  0  0
   10.1220   -0.3132    0.0000 H   0  0  0  0  0  0  0  0  0  0  0  0
    4.8374    2.6987    0.0000 H   0  0  0  0  0  0  0  0  0  0  0  0
    3.9904    2.4718    0.0000 H   0  0  0  0  0  0  0  0  0  0  0  0
    4.2174    1.6248    0.0000 H   0  0  0  0  0  0  0  0  0  0  0  0
    6.5694    1.6248    0.0000 H   0  0  0  0  0  0  0  0  0  0  0  0
    6.7964    2.4718    0.0000 H   0  0  0  0  0  0  0  0  0  0  0  0
    5.9494    2.6987    0.0000 H   0  0  0  0  0  0  0  0  0  0  0  0
   10.2604    1.8518    0.0000 H   0  0  0  0  0  0  0  0  0  0  0  0
    8.2469    3.7694    0.0000 H   0  0  0  0  0  0  0  0  0  0  0  0
    8.6454    3.0792    0.0000 H   0  0  0  0  0  0  0  0  0  0  0  0
    7.6607   -4.8312    0.0000 H   0  0  0  0  0  0  0  0  0  0  0  0
    1.3940   -4.8312    0.0000 H   0  0  0  0  0  0  0  0  0  0  0  0
    7.1459   -6.4154    0.0000 H   0  0  0  0  0  0  0  0  0  0  0  0
    1.9088   -6.4154    0.0000 H   0  0  0  0  0  0  0  0  0  0  0  0
   10.0526    4.9718    0.0000 H   0  0  0  0  0  0  0  0  0  0  0  0
    9.4681    4.5541    0.0000 H   0  0  0  0  0  0  0  0  0  0  0  0
    9.0695    5.2444    0.0000 H   0  0  0  0  0  0  0  0  0  0  0  0
   12.6316    5.1248    0.0000 H   0  0  0  0  0  0  0  0  0  0  0  0
   12.8585    5.9718    0.0000 H   0  0  0  0  0  0  0  0  0  0  0  0
   12.0116    6.1987    0.0000 H   0  0  0  0  0  0  0  0  0  0  0  0
   11.4925    6.3378    0.0000 H   0  0  0  0  0  0  0  0  0  0  0  0
   10.6456    6.5648    0.0000 H   0  0  0  0  0  0  0  0  0  0  0  0
   10.4186    5.7178    0.0000 H   0  0  0  0  0  0  0  0  0  0  0  0
   11.4186    3.9858    0.0000 H   0  0  0  0  0  0  0  0  0  0  0  0
   12.2656    3.7588    0.0000 H   0  0  0  0  0  0  0  0  0  0  0  0
   12.4925    4.6058    0.0000 H   0  0  0  0  0  0  0  0  0  0  0  0
    9.7235   -0.2182    0.0000 H   0  0  0  0  0  0  0  0  0  0  0  0
    8.3206   -2.6482    0.0000 H   0  0  0  0  0  0  0  0  0  0  0  0
   11.1265    0.3518    0.0000 H   0  0  0  0  0  0  0  0  0  0  0  0
   11.1265   -1.0282    0.0000 H   0  0  0  0  0  0  0  0  0  0  0  0
    9.7235   -3.4582    0.0000 H   0  0  0  0  0  0  0  0  0  0  0  0
   11.1265   -2.6482    0.0000 H   0  0  0  0  0  0  0  0  0  0  0  0
    8.6115    6.1618    0.0000 H   0  0  0  0  0  0  0  0  0  0  0  0
    7.9915    6.7818    0.0000 H   0  0  0  0  0  0  0  0  0  0  0  0
    7.3715    6.1618    0.0000 H   0  0  0  0  0  0  0  0  0  0  0  0
  1 42  1  0  0  0  0
  1 51  1  0  0  0  0
  2 19  1  0  0  0  0
  2 34  1  0  0  0  0
  3 22  2  0  0  0  0
  4 32  1  0  0  0  0
  4 97  1  0  0  0  0
  5 29  2  0  0  0  0
  6 34  2  0  0  0  0
  7 40  2  0  0  0  0
 21  8  1  6  0  0  0
  8 22  1  0  0  0  0
  8 23  1  0  0  0  0
 15  9  1  1  0  0  0
  9 34  1  0  0  0  0
  9 60  1  0  0  0  0
 26 10  1  1  0  0  0
 10 29  1  0  0  0  0
 10 76  1  0  0  0  0
 11 33  1  0  0  0  0
 11 40  1  0  0  0  0
 11 83  1  0  0  0  0
 12 13  1  0  0  0  0
 12 14  1  0  0  0  0
 12 19  1  0  0  0  0
 12 52  1  0  0  0  0
 13 17  1  0  0  0  0
 13 24  2  0  0  0  0
 14 18  1  0  0  0  0
 14 25  2  0  0  0  0
 15 16  1  0  0  0  0
 15 22  1  0  0  0  0
 15 53  1  0  0  0  0
 16 20  1  0  0  0  0
 16 54  1  0  0  0  0
 16 55  1  0  0  0  0
 17 18  1  0  0  0  0
 17 27  2  0  0  0  0
 18 28  2  0  0  0  0
 19 56  1  0  0  0  0
 19 57  1  0  0  0  0
 20 30  1  0  0  0  0
 20 31  1  0  0  0  0
 20 58  1  0  0  0  0
 21 29  1  0  0  0  0
 21 32  1  0  0  0  0
 21 59  1  0  0  0  0
 23 41  1  0  0  0  0
 23 61  1  0  0  0  0
 23 62  1  0  0  0  0
 24 36  1  0  0  0  0
 24 63  1  0  0  0  0
 25 37  1  0  0  0  0
 25 64  1  0  0  0  0
 26 35  1  0  0  0  0
 26 40  1  0  0  0  0
 26 65  1  0  0  0  0
 27 38  1  0  0  0  0
 27 66  1  0  0  0  0
 28 39  1  0  0  0  0
 28 67  1  0  0  0  0
 30 70  1  0  0  0  0
 30 71  1  0  0  0  0
 30 72  1  0  0  0  0
 31 73  1  0  0  0  0
 31 74  1  0  0  0  0
 31 75  1  0  0  0  0
 32 68  1  0  0  0  0
 32 69  1  0  0  0  0
 33 43  1  0  0  0  0
 33 44  1  0  0  0  0
 33 45  1  0  0  0  0
 35 42  1  0  0  0  0
 35 77  1  0  0  0  0
 35 78  1  0  0  0  0
 36 38  2  0  0  0  0
 36 79  1  0  0  0  0
 37 39  2  0  0  0  0
 37 80  1  0  0  0  0
 38 81  1  0  0  0  0
 39 82  1  0  0  0  0
 41 46  2  0  0  0  0
 41 47  1  0  0  0  0
 42 84  1  0  0  0  0
 42 85  1  0  0  0  0
 43 86  1  0  0  0  0
 43 87  1  0  0  0  0
 43 88  1  0  0  0  0
 44 89  1  0  0  0  0
 44 90  1  0  0  0  0
 44 91  1  0  0  0  0
 45 92  1  0  0  0  0
 45 93  1  0  0  0  0
 45 94  1  0  0  0  0
 46 48  1  0  0  0  0
 46 95  1  0  0  0  0
 47 49  2  0  0  0  0
 47 96  1  0  0  0  0
 48 50  2  0  0  0  0
 48 98  1  0  0  0  0
 49 50  1  0  0  0  0
 49 99  1  0  0  0  0
 50100  1  0  0  0  0
 51101  1  0  0  0  0
 51102  1  0  0  0  0
 51103  1  0  0  0  0
M  END
> <PUBCHEM_COMPOUND_CID>
504529
> <PUBCHEM_COMPOUND_CANONICALIZED>
1
> <PUBCHEM_CACTVS_COMPLEXITY>
1120
> <PUBCHEM_CACTVS_HBOND_ACCEPTOR>
7
> <PUBCHEM_CACTVS_HBOND_DONOR>
4
> <PUBCHEM_CACTVS_ROTATABLE_BOND>
18
> <PUBCHEM_CACTVS_SUBSKEYS>
AAADcfB/uABAAAAAAAAAAAAAAAAAAYAAAAAwYMAAAAAAAGABUAAAHgQQCAAADajl2AayCIPABgiIAiFSGACCAAAgABAIiIGIBIkKcDagkTGcYAhm9gGYiAeYwPAOgAAAAAAQAAAAAAAAACAAAQAACAAAAA==
> <PUBCHEM_IUPAC_OPENEYE_NAME>
9H-fluoren-9-ylmethyl N-[(1S)-1-[benzyl-[(1S)-2-[[(1S)-1-(tert-butylcarbamoyl)-3-methylsulfanyl-propyl]amino]-1-(hydroxymethyl)-2-oxo-ethyl]carbamoyl]-3-methyl-butyl]carbamate
> <PUBCHEM_IUPAC_CAS_NAME>
N-[(2S)-1-[[(2S)-1-[[(2S)-1-(tert-butylamino)-4-(methylthio)-1-oxobutan-2-yl]amino]-3-hydroxy-1-oxopropan-2-yl]-(phenylmethyl)amino]-4-methyl-1-oxopentan-2-yl]carbamic acid 9H-fluoren-9-ylmethyl ester
> <PUBCHEM_IUPAC_NAME_MARKUP>
9<I>H</I>-fluoren-9-ylmethyl <I>N</I>-[(2<I>S</I>)-1-[benzyl-[(2<I>S</I>)-1-[[(2<I>S</I>)-1-(<I>tert</I>-butylamino)-4-methylsulfanyl-1-oxobutan-2-yl]amino]-3-hydroxy-1-oxopropan-2-yl]amino]-4-methyl-1-oxopentan-2-yl]carbamate
> <PUBCHEM_IUPAC_NAME>
9H-fluoren-9-ylmethyl N-[(2S)-1-[benzyl-[(2S)-1-[[(2S)-1-(tert-butylamino)-4-methylsulfanyl-1-oxobutan-2-yl]amino]-3-hydroxy-1-oxopropan-2-yl]amino]-4-methyl-1-oxopentan-2-yl]carbamate
> <PUBCHEM_IUPAC_SYSTEMATIC_NAME>
9H-fluoren-9-ylmethyl N-[(2S)-1-[[(2S)-1-[[(2S)-1-(tert-butylamino)-4-methylsulfanyl-1-oxidanylidene-butan-2-yl]amino]-3-oxidanyl-1-oxidanylidene-propan-2-yl]-(phenylmethyl)amino]-4-methyl-1-oxidanylidene-pentan-2-yl]carbamate
> <PUBCHEM_IUPAC_TRADITIONAL_NAME>
N-[(1S)-1-[benzyl-[(1S)-2-[[(1S)-1-(tert-butylcarbamoyl)-3-(methylthio)propyl]amino]-2-keto-1-methylol-ethyl]carbamoyl]-3-methyl-butyl]carbamic acid 9H-fluoren-9-ylmethyl ester
> <PUBCHEM_IUPAC_INCHI>
InChI=1S/C40H52N4O6S/c1-26(2)22-34(42-39(49)50-25-32-30-18-12-10-16-28(30)29-17-11-13-19-31(29)32)38(48)44(23-27-14-8-7-9-15-27)35(24-45)37(47)41-33(20-21-51-6)36(46)43-40(3,4)5/h7-19,26,32-35,45H,20-25H2,1-6H3,(H,41,47)(H,42,49)(H,43,46)/t33-,34-,35-/m0/s1
> <PUBCHEM_IUPAC_INCHIKEY>
MUDVQNRMFVOTDG-IMKBVMFZSA-N
> <PUBCHEM_XLOGP3_AA>
5.9
> <PUBCHEM_EXACT_MASS>
716.36075656
> <PUBCHEM_MOLECULAR_FORMULA>
C40H52N4O6S
> <PUBCHEM_MOLECULAR_WEIGHT>
716.9
> <PUBCHEM_OPENEYE_CAN_SMILES>
CC(C)CC(C(=O)N(CC1=CC=CC=C1)C(CO)C(=O)NC(CCSC)C(=O)NC(C)(C)C)NC(=O)OCC2C3=CC=CC=C3C4=CC=CC=C24
> <PUBCHEM_OPENEYE_ISO_SMILES>
CC(C)C[C@@H](C(=O)N(CC1=CC=CC=C1)[C@@H](CO)C(=O)N[C@@H](CCSC)C(=O)NC(C)(C)C)NC(=O)OCC2C3=CC=CC=C3C4=CC=CC=C24
> <PUBCHEM_CACTVS_TPSA>
162
> <PUBCHEM_MONOISOTOPIC_WEIGHT>
716.36075656
> <PUBCHEM_TOTAL_CHARGE>
0
> <PUBCHEM_HEAVY_ATOM_COUNT>
51
> <PUBCHEM_ATOM_DEF_STEREO_COUNT>
3
> <PUBCHEM_ATOM_UDEF_STEREO_COUNT>
0
> <PUBCHEM_BOND_DEF_STEREO_COUNT>
0
> <PUBCHEM_BOND_UDEF_STEREO_COUNT>
0
> <PUBCHEM_ISOTOPIC_ATOM_COUNT>
0
> <PUBCHEM_COMPONENT_COUNT>
1
> <PUBCHEM_CACTVS_TAUTO_COUNT>
-1
> <PUBCHEM_COORDINATE_TYPE>
1
5
255
> <PUBCHEM_BONDANNOTATIONS>
26  10  5
13  17  8
13  24  8
14  18  8
14  25  8
17  27  8
18  28  8
24  36  8
25  37  8
27  38  8
28  39  8
36  38  8
37  39  8
41  46  8
41  47  8
46  48  8
47  49  8
48  50  8
49  50  8
21  8  6
15  9  5
$$$$
