504511
  -OEChem-10302200282D
 37 37  0     1  0  0  0  0  0999 V2000
    5.4641   -1.1550    0.0000 S   0  0  0  0  0  0  0  0  0  0  0  0
    6.3301    0.3450    0.0000 O   0  0  0  0  0  0  0  0  0  0  0  0
    9.7942    1.3450    0.0000 O   0  0  0  0  0  0  0  0  0  0  0  0
    4.5981   -2.6550    0.0000 O   0  0  0  0  0  0  0  0  0  0  0  0
    8.0622    0.3450    0.0000 N   0  0  0  0  0  0  0  0  0  0  0  0
    3.7320   -1.1550    0.0000 N   0  0  0  0  0  0  0  0  0  0  0  0
    8.9282    2.8450    0.0000 N   0  0  0  0  0  0  0  0  0  0  0  0
    8.0622    1.3450    0.0000 C   0  0  2  0  0  0  0  0  0  0  0  0
    7.1962   -1.1550    0.0000 C   0  0  0  0  0  0  0  0  0  0  0  0
    7.1962   -0.1550    0.0000 C   0  0  0  0  0  0  0  0  0  0  0  0
    7.1962    1.8450    0.0000 C   0  0  0  0  0  0  0  0  0  0  0  0
    6.3301   -1.6550    0.0000 C   0  0  0  0  0  0  0  0  0  0  0  0
    8.9282    1.8450    0.0000 C   0  0  0  0  0  0  0  0  0  0  0  0
    8.0622   -1.6550    0.0000 C   0  0  0  0  0  0  0  0  0  0  0  0
    6.3301   -2.6550    0.0000 C   0  0  0  0  0  0  0  0  0  0  0  0
    8.0622   -2.6550    0.0000 C   0  0  0  0  0  0  0  0  0  0  0  0
    7.1962   -3.1550    0.0000 C   0  0  0  0  0  0  0  0  0  0  0  0
    2.8660   -1.6550    0.0000 C   0  0  0  0  0  0  0  0  0  0  0  0
    4.5981   -1.6550    0.0000 C   0  0  0  0  0  0  0  0  0  0  0  0
    2.0000   -1.1550    0.0000 C   0  0  0  0  0  0  0  0  0  0  0  0
    7.5252    1.0350    0.0000 H   0  0  0  0  0  0  0  0  0  0  0  0
    8.5991    0.0350    0.0000 H   0  0  0  0  0  0  0  0  0  0  0  0
    7.5062    2.3819    0.0000 H   0  0  0  0  0  0  0  0  0  0  0  0
    6.6592    2.1550    0.0000 H   0  0  0  0  0  0  0  0  0  0  0  0
    6.8862    1.3081    0.0000 H   0  0  0  0  0  0  0  0  0  0  0  0
    8.5991   -1.3450    0.0000 H   0  0  0  0  0  0  0  0  0  0  0  0
    5.7932   -2.9650    0.0000 H   0  0  0  0  0  0  0  0  0  0  0  0
    8.5991   -2.9650    0.0000 H   0  0  0  0  0  0  0  0  0  0  0  0
    7.1962   -3.7750    0.0000 H   0  0  0  0  0  0  0  0  0  0  0  0
    2.4675   -2.1300    0.0000 H   0  0  0  0  0  0  0  0  0  0  0  0
    3.2646   -2.1300    0.0000 H   0  0  0  0  0  0  0  0  0  0  0  0
    3.7320   -0.5350    0.0000 H   0  0  0  0  0  0  0  0  0  0  0  0
    9.4651    3.1550    0.0000 H   0  0  0  0  0  0  0  0  0  0  0  0
    8.3913    3.1550    0.0000 H   0  0  0  0  0  0  0  0  0  0  0  0
    2.3100   -0.6181    0.0000 H   0  0  0  0  0  0  0  0  0  0  0  0
    1.4631   -0.8450    0.0000 H   0  0  0  0  0  0  0  0  0  0  0  0
    1.6900   -1.6919    0.0000 H   0  0  0  0  0  0  0  0  0  0  0  0
  1 12  1  0  0  0  0
  1 19  1  0  0  0  0
  2 10  2  0  0  0  0
  3 13  2  0  0  0  0
  4 19  2  0  0  0  0
  8  5  1  6  0  0  0
  5 10  1  0  0  0  0
  5 22  1  0  0  0  0
  6 18  1  0  0  0  0
  6 19  1  0  0  0  0
  6 32  1  0  0  0  0
  7 13  1  0  0  0  0
  7 33  1  0  0  0  0
  7 34  1  0  0  0  0
  8 11  1  0  0  0  0
  8 13  1  0  0  0  0
  8 21  1  0  0  0  0
  9 10  1  0  0  0  0
  9 12  1  0  0  0  0
  9 14  2  0  0  0  0
 11 23  1  0  0  0  0
 11 24  1  0  0  0  0
 11 25  1  0  0  0  0
 12 15  2  0  0  0  0
 14 16  1  0  0  0  0
 14 26  1  0  0  0  0
 15 17  1  0  0  0  0
 15 27  1  0  0  0  0
 16 17  2  0  0  0  0
 16 28  1  0  0  0  0
 17 29  1  0  0  0  0
 18 20  1  0  0  0  0
 18 30  1  0  0  0  0
 18 31  1  0  0  0  0
 20 35  1  0  0  0  0
 20 36  1  0  0  0  0
 20 37  1  0  0  0  0
M  END
> <PUBCHEM_COMPOUND_CID>
504511
> <PUBCHEM_COMPOUND_CANONICALIZED>
1
> <PUBCHEM_CACTVS_COMPLEXITY>
376
> <PUBCHEM_CACTVS_HBOND_ACCEPTOR>
4
> <PUBCHEM_CACTVS_HBOND_DONOR>
3
> <PUBCHEM_CACTVS_ROTATABLE_BOND>
6
> <PUBCHEM_CACTVS_SUBSKEYS>
AAADceBzMABAAAAAAAAAAAAAAAAAAAAAAAAwAAAAAAAAAAABAAAAHgQQAAAADCjB2AQyAYLAAAiIAiFSEACCAABkCBAIiJmIBMgIYDKglTGUIQhglgCIiYcYiACOAAAAAAAEAAAAAAAAAAgAAAAAAAAAAA==
> <PUBCHEM_IUPAC_OPENEYE_NAME>
S-[2-[[(1R)-2-amino-1-methyl-2-oxo-ethyl]carbamoyl]phenyl] N-ethylcarbamothioate
> <PUBCHEM_IUPAC_CAS_NAME>
N-ethylcarbamothioic acid S-[2-[[[(2R)-1-amino-1-oxopropan-2-yl]amino]-oxomethyl]phenyl] ester
> <PUBCHEM_IUPAC_NAME_MARKUP>
<I>S</I>-[2-[[(2<I>R</I>)-1-amino-1-oxopropan-2-yl]carbamoyl]phenyl] <I>N</I>-ethylcarbamothioate
> <PUBCHEM_IUPAC_NAME>
S-[2-[[(2R)-1-amino-1-oxopropan-2-yl]carbamoyl]phenyl] N-ethylcarbamothioate
> <PUBCHEM_IUPAC_SYSTEMATIC_NAME>
S-[2-[[(2R)-1-azanyl-1-oxidanylidene-propan-2-yl]carbamoyl]phenyl] N-ethylcarbamothioate
> <PUBCHEM_IUPAC_TRADITIONAL_NAME>
N-ethylthiocarbamic acid S-[2-[[(1R)-2-amino-2-keto-1-methyl-ethyl]carbamoyl]phenyl] ester
> <PUBCHEM_IUPAC_INCHI>
InChI=1S/C13H17N3O3S/c1-3-15-13(19)20-10-7-5-4-6-9(10)12(18)16-8(2)11(14)17/h4-8H,3H2,1-2H3,(H2,14,17)(H,15,19)(H,16,18)/t8-/m1/s1
> <PUBCHEM_IUPAC_INCHIKEY>
AREBMNXGNSDSPF-MRVPVSSYSA-N
> <PUBCHEM_XLOGP3_AA>
1
> <PUBCHEM_EXACT_MASS>
295.09906259
> <PUBCHEM_MOLECULAR_FORMULA>
C13H17N3O3S
> <PUBCHEM_MOLECULAR_WEIGHT>
295.36
> <PUBCHEM_OPENEYE_CAN_SMILES>
CCNC(=O)SC1=CC=CC=C1C(=O)NC(C)C(=O)N
> <PUBCHEM_OPENEYE_ISO_SMILES>
CCNC(=O)SC1=CC=CC=C1C(=O)N[C@H](C)C(=O)N
> <PUBCHEM_CACTVS_TPSA>
127
> <PUBCHEM_MONOISOTOPIC_WEIGHT>
295.09906259
> <PUBCHEM_TOTAL_CHARGE>
0
> <PUBCHEM_HEAVY_ATOM_COUNT>
20
> <PUBCHEM_ATOM_DEF_STEREO_COUNT>
1
> <PUBCHEM_ATOM_UDEF_STEREO_COUNT>
0
> <PUBCHEM_BOND_DEF_STEREO_COUNT>
0
> <PUBCHEM_BOND_UDEF_STEREO_COUNT>
0
> <PUBCHEM_ISOTOPIC_ATOM_COUNT>
0
> <PUBCHEM_COMPONENT_COUNT>
1
> <PUBCHEM_CACTVS_TAUTO_COUNT>
-1
> <PUBCHEM_COORDINATE_TYPE>
1
5
255
> <PUBCHEM_BONDANNOTATIONS>
12  15  8
14  16  8
15  17  8
16  17  8
8  5  6
9  12  8
9  14  8
$$$$
