504594
  -OEChem-10302200282D
 57 59  0     1  0  0  0  0  0999 V2000
    7.2641    0.4050    0.0000 O   0  0  0  0  0  0  0  0  0  0  0  0
   11.5942    0.9050    0.0000 O   0  0  0  0  0  0  0  0  0  0  0  0
    8.9962    0.4050    0.0000 O   0  0  0  0  0  0  0  0  0  0  0  0
    6.3981    1.9050    0.0000 O   0  0  0  0  0  0  0  0  0  0  0  0
   11.5942   -2.0950    0.0000 O   0  0  0  0  0  0  0  0  0  0  0  0
    9.8622    0.9050    0.0000 O   0  0  0  0  0  0  0  0  0  0  0  0
   10.7282   -0.5950    0.0000 N   0  0  0  0  0  0  0  0  0  0  0  0
    8.1301   -1.0950    0.0000 N   0  0  0  0  0  0  0  0  0  0  0  0
    6.3981   -1.0950    0.0000 N   0  0  0  0  0  0  0  0  0  0  0  0
   10.7282   -3.5950    0.0000 N   0  0  0  0  0  0  0  0  0  0  0  0
    2.8680   -1.1192    0.0000 C   0  0  0  0  0  0  0  0  0  0  0  0
    3.7320   -0.6158    0.0000 C   0  0  0  0  0  0  0  0  0  0  0  0
    4.6381   -1.1297    0.0000 C   0  0  0  0  0  0  0  0  0  0  0  0
    9.8622   -1.0950    0.0000 C   0  0  1  0  0  0  0  0  0  0  0  0
    5.5320   -0.5950    0.0000 C   0  0  0  0  0  0  0  0  0  0  0  0
    2.0000   -0.6225    0.0000 C   0  0  0  0  0  0  0  0  0  0  0  0
    2.8718   -2.1191    0.0000 C   0  0  0  0  0  0  0  0  0  0  0  0
    5.5320    0.4050    0.0000 C   0  0  0  0  0  0  0  0  0  0  0  0
    3.7320    0.4258    0.0000 C   0  0  0  0  0  0  0  0  0  0  0  0
    4.6381    0.9397    0.0000 C   0  0  0  0  0  0  0  0  0  0  0  0
    9.8622   -2.0950    0.0000 C   0  0  0  0  0  0  0  0  0  0  0  0
    8.9962   -0.5950    0.0000 C   0  0  0  0  0  0  0  0  0  0  0  0
    7.2641   -0.5950    0.0000 C   0  0  0  0  0  0  0  0  0  0  0  0
    6.3981    0.9050    0.0000 C   0  0  0  0  0  0  0  0  0  0  0  0
   10.7282   -2.5950    0.0000 C   0  0  0  0  0  0  0  0  0  0  0  0
   10.7282    0.4050    0.0000 C   0  0  0  0  0  0  0  0  0  0  0  0
   11.5942    1.9050    0.0000 C   0  0  0  0  0  0  0  0  0  0  0  0
   12.4602    2.4050    0.0000 C   0  0  0  0  0  0  0  0  0  0  0  0
   13.3263    1.9050    0.0000 C   0  0  0  0  0  0  0  0  0  0  0  0
   12.4602    3.4050    0.0000 C   0  0  0  0  0  0  0  0  0  0  0  0
   14.1923    2.4050    0.0000 C   0  0  0  0  0  0  0  0  0  0  0  0
   13.3263    3.9050    0.0000 C   0  0  0  0  0  0  0  0  0  0  0  0
   14.1923    3.4050    0.0000 C   0  0  0  0  0  0  0  0  0  0  0  0
    2.3322   -1.4312    0.0000 H   0  0  0  0  0  0  0  0  0  0  0  0
   10.3991   -1.4050    0.0000 H   0  0  0  0  0  0  0  0  0  0  0  0
    4.6453   -1.7496    0.0000 H   0  0  0  0  0  0  0  0  0  0  0  0
    2.3079   -0.0844    0.0000 H   0  0  0  0  0  0  0  0  0  0  0  0
    1.4619   -0.3146    0.0000 H   0  0  0  0  0  0  0  0  0  0  0  0
    1.6921   -1.1606    0.0000 H   0  0  0  0  0  0  0  0  0  0  0  0
    2.2518   -2.1215    0.0000 H   0  0  0  0  0  0  0  0  0  0  0  0
    2.8742   -2.7391    0.0000 H   0  0  0  0  0  0  0  0  0  0  0  0
    3.4918   -2.1168    0.0000 H   0  0  0  0  0  0  0  0  0  0  0  0
    3.1963    0.7379    0.0000 H   0  0  0  0  0  0  0  0  0  0  0  0
    4.6453    1.5596    0.0000 H   0  0  0  0  0  0  0  0  0  0  0  0
    9.2516   -1.9873    0.0000 H   0  0  0  0  0  0  0  0  0  0  0  0
    9.6501   -2.6776    0.0000 H   0  0  0  0  0  0  0  0  0  0  0  0
   11.2651   -0.9050    0.0000 H   0  0  0  0  0  0  0  0  0  0  0  0
    8.1301   -1.7150    0.0000 H   0  0  0  0  0  0  0  0  0  0  0  0
   11.3822    2.4876    0.0000 H   0  0  0  0  0  0  0  0  0  0  0  0
   10.9836    1.7973    0.0000 H   0  0  0  0  0  0  0  0  0  0  0  0
   11.2651   -3.9050    0.0000 H   0  0  0  0  0  0  0  0  0  0  0  0
   10.1913   -3.9050    0.0000 H   0  0  0  0  0  0  0  0  0  0  0  0
   13.3263    1.2850    0.0000 H   0  0  0  0  0  0  0  0  0  0  0  0
   11.9233    3.7150    0.0000 H   0  0  0  0  0  0  0  0  0  0  0  0
   14.7292    2.0950    0.0000 H   0  0  0  0  0  0  0  0  0  0  0  0
   13.3263    4.5250    0.0000 H   0  0  0  0  0  0  0  0  0  0  0  0
   14.7292    3.7150    0.0000 H   0  0  0  0  0  0  0  0  0  0  0  0
  1 23  1  0  0  0  0
  1 24  1  0  0  0  0
  2 26  1  0  0  0  0
  2 27  1  0  0  0  0
  3 22  2  0  0  0  0
  4 24  2  0  0  0  0
  5 25  2  0  0  0  0
  6 26  2  0  0  0  0
 14  7  1  1  0  0  0
  7 26  1  0  0  0  0
  7 47  1  0  0  0  0
  8 22  1  0  0  0  0
  8 23  1  0  0  0  0
  8 48  1  0  0  0  0
  9 15  1  0  0  0  0
  9 23  2  0  0  0  0
 10 25  1  0  0  0  0
 10 51  1  0  0  0  0
 10 52  1  0  0  0  0
 11 12  1  0  0  0  0
 11 16  1  0  0  0  0
 11 17  1  0  0  0  0
 11 34  1  0  0  0  0
 12 13  2  0  0  0  0
 12 19  1  0  0  0  0
 13 15  1  0  0  0  0
 13 36  1  0  0  0  0
 14 21  1  0  0  0  0
 14 22  1  0  0  0  0
 14 35  1  0  0  0  0
 15 18  2  0  0  0  0
 16 37  1  0  0  0  0
 16 38  1  0  0  0  0
 16 39  1  0  0  0  0
 17 40  1  0  0  0  0
 17 41  1  0  0  0  0
 17 42  1  0  0  0  0
 18 20  1  0  0  0  0
 18 24  1  0  0  0  0
 19 20  2  0  0  0  0
 19 43  1  0  0  0  0
 20 44  1  0  0  0  0
 21 25  1  0  0  0  0
 21 45  1  0  0  0  0
 21 46  1  0  0  0  0
 27 28  1  0  0  0  0
 27 49  1  0  0  0  0
 27 50  1  0  0  0  0
 28 29  2  0  0  0  0
 28 30  1  0  0  0  0
 29 31  1  0  0  0  0
 29 53  1  0  0  0  0
 30 32  2  0  0  0  0
 30 54  1  0  0  0  0
 31 33  2  0  0  0  0
 31 55  1  0  0  0  0
 32 33  1  0  0  0  0
 32 56  1  0  0  0  0
 33 57  1  0  0  0  0
M  END
> <PUBCHEM_COMPOUND_CID>
504594
> <PUBCHEM_COMPOUND_CANONICALIZED>
1
> <PUBCHEM_CACTVS_COMPLEXITY>
777
> <PUBCHEM_CACTVS_HBOND_ACCEPTOR>
7
> <PUBCHEM_CACTVS_HBOND_DONOR>
3
> <PUBCHEM_CACTVS_ROTATABLE_BOND>
9
> <PUBCHEM_CACTVS_SUBSKEYS>
AAADceB7uAAAAAAAAAAAAAAAAAAAAAAAAAAwYIAAAAAAAACBQAAAHgAQAAAADSjhmAYzyILABACoAiXSfACCAAEkAgAJiIGIbMkIZjqA/bmcMYBm1gEI6cedyPCOwAAAQAACAACAAACAAAQAAAAAAAAAAA==
> <PUBCHEM_IUPAC_OPENEYE_NAME>
benzyl N-[(1S)-3-amino-1-[(7-isopropyl-4-oxo-3,1-benzoxazin-2-yl)carbamoyl]-3-oxo-propyl]carbamate
> <PUBCHEM_IUPAC_CAS_NAME>
N-[(2S)-4-amino-1,4-dioxo-1-[(4-oxo-7-propan-2-yl-3,1-benzoxazin-2-yl)amino]butan-2-yl]carbamic acid (phenylmethyl) ester
> <PUBCHEM_IUPAC_NAME_MARKUP>
benzyl <I>N</I>-[(2<I>S</I>)-4-amino-1,4-dioxo-1-[(4-oxo-7-propan-2-yl-3,1-benzoxazin-2-yl)amino]butan-2-yl]carbamate
> <PUBCHEM_IUPAC_NAME>
benzyl N-[(2S)-4-amino-1,4-dioxo-1-[(4-oxo-7-propan-2-yl-3,1-benzoxazin-2-yl)amino]butan-2-yl]carbamate
> <PUBCHEM_IUPAC_SYSTEMATIC_NAME>
(phenylmethyl) N-[(2S)-4-azanyl-1,4-bis(oxidanylidene)-1-[(4-oxidanylidene-7-propan-2-yl-3,1-benzoxazin-2-yl)amino]butan-2-yl]carbamate
> <PUBCHEM_IUPAC_TRADITIONAL_NAME>
N-[(1S)-3-amino-1-[(7-isopropyl-4-keto-3,1-benzoxazin-2-yl)carbamoyl]-3-keto-propyl]carbamic acid benzyl ester
> <PUBCHEM_IUPAC_INCHI>
InChI=1S/C23H24N4O6/c1-13(2)15-8-9-16-17(10-15)25-22(33-21(16)30)27-20(29)18(11-19(24)28)26-23(31)32-12-14-6-4-3-5-7-14/h3-10,13,18H,11-12H2,1-2H3,(H2,24,28)(H,26,31)(H,25,27,29)/t18-/m0/s1
> <PUBCHEM_IUPAC_INCHIKEY>
YBOXZMYOTNYLAD-SFHVURJKSA-N
> <PUBCHEM_XLOGP3_AA>
2.1
> <PUBCHEM_EXACT_MASS>
452.16958450
> <PUBCHEM_MOLECULAR_FORMULA>
C23H24N4O6
> <PUBCHEM_MOLECULAR_WEIGHT>
452.5
> <PUBCHEM_OPENEYE_CAN_SMILES>
CC(C)C1=CC2=C(C=C1)C(=O)OC(=N2)NC(=O)C(CC(=O)N)NC(=O)OCC3=CC=CC=C3
> <PUBCHEM_OPENEYE_ISO_SMILES>
CC(C)C1=CC2=C(C=C1)C(=O)OC(=N2)NC(=O)[C@H](CC(=O)N)NC(=O)OCC3=CC=CC=C3
> <PUBCHEM_CACTVS_TPSA>
149
> <PUBCHEM_MONOISOTOPIC_WEIGHT>
452.16958450
> <PUBCHEM_TOTAL_CHARGE>
0
> <PUBCHEM_HEAVY_ATOM_COUNT>
33
> <PUBCHEM_ATOM_DEF_STEREO_COUNT>
1
> <PUBCHEM_ATOM_UDEF_STEREO_COUNT>
0
> <PUBCHEM_BOND_DEF_STEREO_COUNT>
0
> <PUBCHEM_BOND_UDEF_STEREO_COUNT>
0
> <PUBCHEM_ISOTOPIC_ATOM_COUNT>
0
> <PUBCHEM_COMPONENT_COUNT>
1
> <PUBCHEM_CACTVS_TAUTO_COUNT>
-1
> <PUBCHEM_COORDINATE_TYPE>
1
5
255
> <PUBCHEM_BONDANNOTATIONS>
1  23  8
1  24  8
12  13  8
12  19  8
13  15  8
15  18  8
18  20  8
18  24  8
19  20  8
28  29  8
28  30  8
29  31  8
30  32  8
31  33  8
32  33  8
14  7  5
9  15  8
9  23  8
$$$$
