504597
  -OEChem-10302200282D
 34 36  0     1  0  0  0  0  0999 V2000
    9.0000    0.5121    0.0000 O   0  0  0  0  0  0  0  0  0  0  0  0
    8.1340    2.0121    0.0000 O   0  0  0  0  0  0  0  0  0  0  0  0
    8.1340   -0.9879    0.0000 N   0  0  0  0  0  0  0  0  0  0  0  0
    9.8660   -0.9879    0.0000 N   0  0  0  0  0  0  0  0  0  0  0  0
    4.6038   -1.0121    0.0000 C   0  0  1  0  0  0  0  0  0  0  0  0
    5.4679   -0.5087    0.0000 C   0  0  0  0  0  0  0  0  0  0  0  0
    3.7359   -0.5154    0.0000 C   0  0  0  0  0  0  0  0  0  0  0  0
    4.6077   -2.0121    0.0000 C   0  0  0  0  0  0  0  0  0  0  0  0
    6.3740   -1.0226    0.0000 C   0  0  0  0  0  0  0  0  0  0  0  0
    5.4679    0.5329    0.0000 C   0  0  0  0  0  0  0  0  0  0  0  0
    7.2679   -0.4879    0.0000 C   0  0  0  0  0  0  0  0  0  0  0  0
    7.2679    0.5121    0.0000 C   0  0  0  0  0  0  0  0  0  0  0  0
    6.3740    1.0467    0.0000 C   0  0  0  0  0  0  0  0  0  0  0  0
    2.8718   -1.0188    0.0000 C   0  0  0  0  0  0  0  0  0  0  0  0
    3.7320    0.4846    0.0000 C   0  0  0  0  0  0  0  0  0  0  0  0
    2.0038   -0.5221    0.0000 C   0  0  0  0  0  0  0  0  0  0  0  0
    2.8641    0.9812    0.0000 C   0  0  0  0  0  0  0  0  0  0  0  0
    8.1340    1.0121    0.0000 C   0  0  0  0  0  0  0  0  0  0  0  0
    2.0000    0.4779    0.0000 C   0  0  0  0  0  0  0  0  0  0  0  0
    9.0000   -0.4879    0.0000 C   0  0  0  0  0  0  0  0  0  0  0  0
    4.0681   -1.3242    0.0000 H   0  0  0  0  0  0  0  0  0  0  0  0
    3.9877   -2.0145    0.0000 H   0  0  0  0  0  0  0  0  0  0  0  0
    4.6101   -2.6321    0.0000 H   0  0  0  0  0  0  0  0  0  0  0  0
    5.2277   -2.0097    0.0000 H   0  0  0  0  0  0  0  0  0  0  0  0
    6.3812   -1.6426    0.0000 H   0  0  0  0  0  0  0  0  0  0  0  0
    4.9322    0.8450    0.0000 H   0  0  0  0  0  0  0  0  0  0  0  0
    6.3812    1.6667    0.0000 H   0  0  0  0  0  0  0  0  0  0  0  0
    2.8742   -1.6388    0.0000 H   0  0  0  0  0  0  0  0  0  0  0  0
    4.2678    0.7966    0.0000 H   0  0  0  0  0  0  0  0  0  0  0  0
    1.4681   -0.8342    0.0000 H   0  0  0  0  0  0  0  0  0  0  0  0
    2.8617    1.6012    0.0000 H   0  0  0  0  0  0  0  0  0  0  0  0
    1.4619    0.7858    0.0000 H   0  0  0  0  0  0  0  0  0  0  0  0
   10.4030   -0.6779    0.0000 H   0  0  0  0  0  0  0  0  0  0  0  0
    9.8660   -1.6079    0.0000 H   0  0  0  0  0  0  0  0  0  0  0  0
  1 18  1  0  0  0  0
  1 20  1  0  0  0  0
  2 18  2  0  0  0  0
  3 11  1  0  0  0  0
  3 20  2  0  0  0  0
  4 20  1  0  0  0  0
  4 33  1  0  0  0  0
  4 34  1  0  0  0  0
  5  6  1  0  0  0  0
  5  7  1  0  0  0  0
  5  8  1  6  0  0  0
  5 21  1  0  0  0  0
  6  9  2  0  0  0  0
  6 10  1  0  0  0  0
  7 14  2  0  0  0  0
  7 15  1  0  0  0  0
  8 22  1  0  0  0  0
  8 23  1  0  0  0  0
  8 24  1  0  0  0  0
  9 11  1  0  0  0  0
  9 25  1  0  0  0  0
 10 13  2  0  0  0  0
 10 26  1  0  0  0  0
 11 12  2  0  0  0  0
 12 13  1  0  0  0  0
 12 18  1  0  0  0  0
 13 27  1  0  0  0  0
 14 16  1  0  0  0  0
 14 28  1  0  0  0  0
 15 17  2  0  0  0  0
 15 29  1  0  0  0  0
 16 19  2  0  0  0  0
 16 30  1  0  0  0  0
 17 19  1  0  0  0  0
 17 31  1  0  0  0  0
 19 32  1  0  0  0  0
M  END
> <PUBCHEM_COMPOUND_CID>
504597
> <PUBCHEM_COMPOUND_CANONICALIZED>
1
> <PUBCHEM_CACTVS_COMPLEXITY>
401
> <PUBCHEM_CACTVS_HBOND_ACCEPTOR>
3
> <PUBCHEM_CACTVS_HBOND_DONOR>
1
> <PUBCHEM_CACTVS_ROTATABLE_BOND>
2
> <PUBCHEM_CACTVS_SUBSKEYS>
AAADccB7MAAAAAAAAAAAAAAAAAAAAAAAAAAwYIAAAAAAAACBQAAAHgAQAAAADQiBmAAzyIJABACoAiTSbACCAAEkAgAIiAEAbMkIJjqAtZmIMYBmwAEI6ceYyPCOwAAAQAACAACAAACAAAQAAAAAAAAAAA==
> <PUBCHEM_IUPAC_OPENEYE_NAME>
2-amino-7-[(1R)-1-phenylethyl]-3,1-benzoxazin-4-one
> <PUBCHEM_IUPAC_CAS_NAME>
2-amino-7-[(1R)-1-phenylethyl]-3,1-benzoxazin-4-one
> <PUBCHEM_IUPAC_NAME_MARKUP>
2-amino-7-[(1<I>R</I>)-1-phenylethyl]-3,1-benzoxazin-4-one
> <PUBCHEM_IUPAC_NAME>
2-amino-7-[(1R)-1-phenylethyl]-3,1-benzoxazin-4-one
> <PUBCHEM_IUPAC_SYSTEMATIC_NAME>
2-azanyl-7-[(1R)-1-phenylethyl]-3,1-benzoxazin-4-one
> <PUBCHEM_IUPAC_TRADITIONAL_NAME>
2-amino-7-[(1R)-1-phenylethyl]-3,1-benzoxazin-4-one
> <PUBCHEM_IUPAC_INCHI>
InChI=1S/C16H14N2O2/c1-10(11-5-3-2-4-6-11)12-7-8-13-14(9-12)18-16(17)20-15(13)19/h2-10H,1H3,(H2,17,18)/t10-/m1/s1
> <PUBCHEM_IUPAC_INCHIKEY>
RIPCMMOTWXSRJC-SNVBAGLBSA-N
> <PUBCHEM_XLOGP3_AA>
2.9
> <PUBCHEM_EXACT_MASS>
266.105527694
> <PUBCHEM_MOLECULAR_FORMULA>
C16H14N2O2
> <PUBCHEM_MOLECULAR_WEIGHT>
266.29
> <PUBCHEM_OPENEYE_CAN_SMILES>
CC(C1=CC=CC=C1)C2=CC3=C(C=C2)C(=O)OC(=N3)N
> <PUBCHEM_OPENEYE_ISO_SMILES>
C[C@H](C1=CC=CC=C1)C2=CC3=C(C=C2)C(=O)OC(=N3)N
> <PUBCHEM_CACTVS_TPSA>
64.7
> <PUBCHEM_MONOISOTOPIC_WEIGHT>
266.105527694
> <PUBCHEM_TOTAL_CHARGE>
0
> <PUBCHEM_HEAVY_ATOM_COUNT>
20
> <PUBCHEM_ATOM_DEF_STEREO_COUNT>
1
> <PUBCHEM_ATOM_UDEF_STEREO_COUNT>
0
> <PUBCHEM_BOND_DEF_STEREO_COUNT>
0
> <PUBCHEM_BOND_UDEF_STEREO_COUNT>
0
> <PUBCHEM_ISOTOPIC_ATOM_COUNT>
0
> <PUBCHEM_COMPONENT_COUNT>
1
> <PUBCHEM_CACTVS_TAUTO_COUNT>
-1
> <PUBCHEM_COORDINATE_TYPE>
1
5
255
> <PUBCHEM_BONDANNOTATIONS>
1  18  8
1  20  8
10  13  8
11  12  8
12  13  8
12  18  8
14  16  8
15  17  8
16  19  8
17  19  8
3  11  8
3  20  8
5  8  6
6  10  8
6  9  8
7  14  8
7  15  8
9  11  8
$$$$
