504629
  -OEChem-10302200282D
 56 59  0     1  0  0  0  0  0999 V2000
    4.6870    0.0835    0.0000 O   0  0  0  0  0  0  0  0  0  0  0  0
    4.1111    2.6062    0.0000 O   0  0  0  0  0  0  0  0  0  0  0  0
    2.6166   -0.1914    0.0000 O   0  0  0  0  0  0  0  0  0  0  0  0
    9.1448   -1.3145    0.0000 O   0  0  0  0  0  0  0  0  0  0  0  0
    5.6005   -1.5098    0.0000 O   0  0  0  0  0  0  0  0  0  0  0  0
   13.7284   -0.5097    0.0000 O   0  0  0  0  0  0  0  0  0  0  0  0
    6.4666   -0.0097    0.0000 N   0  0  0  0  0  0  0  0  0  0  0  0
    7.3326   -1.5098    0.0000 N   0  0  0  0  0  0  0  0  0  0  0  0
    4.5179    1.6927    0.0000 C   0  0  1  0  0  0  0  0  0  0  0  0
    5.6005    0.4903    0.0000 C   0  0  1  0  0  0  0  0  0  0  0  0
    5.4960    1.4848    0.0000 C   0  0  0  0  0  0  0  0  0  0  0  0
    4.0179    0.8267    0.0000 C   0  0  1  0  0  0  0  0  0  0  0  0
    3.0233    0.7221    0.0000 C   0  0  0  0  0  0  0  0  0  0  0  0
    7.3326    0.4903    0.0000 C   0  0  0  0  0  0  0  0  0  0  0  0
    6.4666   -1.0098    0.0000 C   0  0  0  0  0  0  0  0  0  0  0  0
    8.1986   -0.0097    0.0000 C   0  0  0  0  0  0  0  0  0  0  0  0
    8.1986   -1.0098    0.0000 C   0  0  0  0  0  0  0  0  0  0  0  0
    9.1448    0.2950    0.0000 C   0  0  0  0  0  0  0  0  0  0  0  0
    9.7284   -0.5097    0.0000 C   0  0  0  0  0  0  0  0  0  0  0  0
   10.7284   -0.5097    0.0000 C   0  0  0  0  0  0  0  0  0  0  0  0
   15.2284   -1.3758    0.0000 C   0  0  0  0  0  0  0  0  0  0  0  0
   15.7284   -2.2418    0.0000 C   0  0  0  0  0  0  0  0  0  0  0  0
   14.2284   -1.3758    0.0000 C   0  0  0  0  0  0  0  0  0  0  0  0
   11.2284   -1.3758    0.0000 C   0  0  0  0  0  0  0  0  0  0  0  0
   11.2284    0.3563    0.0000 C   0  0  0  0  0  0  0  0  0  0  0  0
   16.7284   -2.2418    0.0000 C   0  0  0  0  0  0  0  0  0  0  0  0
   12.7284   -0.5097    0.0000 C   0  0  0  0  0  0  0  0  0  0  0  0
   12.2284   -1.3758    0.0000 C   0  0  0  0  0  0  0  0  0  0  0  0
   12.2284    0.3563    0.0000 C   0  0  0  0  0  0  0  0  0  0  0  0
   17.2284   -3.1078    0.0000 C   0  0  0  0  0  0  0  0  0  0  0  0
    4.9080    2.1745    0.0000 H   0  0  0  0  0  0  0  0  0  0  0  0
    5.5681   -0.1289    0.0000 H   0  0  0  0  0  0  0  0  0  0  0  0
    6.1160    1.4848    0.0000 H   0  0  0  0  0  0  0  0  0  0  0  0
    5.5608    2.1014    0.0000 H   0  0  0  0  0  0  0  0  0  0  0  0
    3.7957    0.2478    0.0000 H   0  0  0  0  0  0  0  0  0  0  0  0
    3.0666    1.3406    0.0000 H   0  0  0  0  0  0  0  0  0  0  0  0
    2.4218    0.8721    0.0000 H   0  0  0  0  0  0  0  0  0  0  0  0
    4.4756    3.1078    0.0000 H   0  0  0  0  0  0  0  0  0  0  0  0
    7.3326    1.1102    0.0000 H   0  0  0  0  0  0  0  0  0  0  0  0
    2.0000   -0.2562    0.0000 H   0  0  0  0  0  0  0  0  0  0  0  0
    9.3374    0.8843    0.0000 H   0  0  0  0  0  0  0  0  0  0  0  0
   15.8111   -1.1637    0.0000 H   0  0  0  0  0  0  0  0  0  0  0  0
   15.1208   -0.7652    0.0000 H   0  0  0  0  0  0  0  0  0  0  0  0
   15.1458   -2.4538    0.0000 H   0  0  0  0  0  0  0  0  0  0  0  0
   15.8361   -2.8524    0.0000 H   0  0  0  0  0  0  0  0  0  0  0  0
   13.6458   -1.5878    0.0000 H   0  0  0  0  0  0  0  0  0  0  0  0
   14.3361   -1.9864    0.0000 H   0  0  0  0  0  0  0  0  0  0  0  0
   17.3111   -2.0297    0.0000 H   0  0  0  0  0  0  0  0  0  0  0  0
   16.6208   -1.6312    0.0000 H   0  0  0  0  0  0  0  0  0  0  0  0
   10.9184   -1.9127    0.0000 H   0  0  0  0  0  0  0  0  0  0  0  0
   10.9184    0.8932    0.0000 H   0  0  0  0  0  0  0  0  0  0  0  0
   12.5384   -1.9127    0.0000 H   0  0  0  0  0  0  0  0  0  0  0  0
   12.5384    0.8932    0.0000 H   0  0  0  0  0  0  0  0  0  0  0  0
   16.6915   -3.4178    0.0000 H   0  0  0  0  0  0  0  0  0  0  0  0
   17.5384   -3.6448    0.0000 H   0  0  0  0  0  0  0  0  0  0  0  0
   17.7654   -2.7978    0.0000 H   0  0  0  0  0  0  0  0  0  0  0  0
  1 10  1  0  0  0  0
  1 12  1  0  0  0  0
  9  2  1  1  0  0  0
  2 38  1  0  0  0  0
  3 13  1  0  0  0  0
  3 40  1  0  0  0  0
  4 17  1  0  0  0  0
  4 19  1  0  0  0  0
  5 15  2  0  0  0  0
  6 23  1  0  0  0  0
  6 27  1  0  0  0  0
 10  7  1  6  0  0  0
  7 14  1  0  0  0  0
  7 15  1  0  0  0  0
  8 15  1  0  0  0  0
  8 17  2  0  0  0  0
  9 11  1  0  0  0  0
  9 12  1  0  0  0  0
  9 31  1  0  0  0  0
 10 11  1  0  0  0  0
 10 32  1  0  0  0  0
 11 33  1  0  0  0  0
 11 34  1  0  0  0  0
 12 13  1  6  0  0  0
 12 35  1  0  0  0  0
 13 36  1  0  0  0  0
 13 37  1  0  0  0  0
 14 16  2  0  0  0  0
 14 39  1  0  0  0  0
 16 17  1  0  0  0  0
 16 18  1  0  0  0  0
 18 19  2  0  0  0  0
 18 41  1  0  0  0  0
 19 20  1  0  0  0  0
 20 24  2  0  0  0  0
 20 25  1  0  0  0  0
 21 22  1  0  0  0  0
 21 23  1  0  0  0  0
 21 42  1  0  0  0  0
 21 43  1  0  0  0  0
 22 26  1  0  0  0  0
 22 44  1  0  0  0  0
 22 45  1  0  0  0  0
 23 46  1  0  0  0  0
 23 47  1  0  0  0  0
 24 28  1  0  0  0  0
 24 50  1  0  0  0  0
 25 29  2  0  0  0  0
 25 51  1  0  0  0  0
 26 30  1  0  0  0  0
 26 48  1  0  0  0  0
 26 49  1  0  0  0  0
 27 28  2  0  0  0  0
 27 29  1  0  0  0  0
 28 52  1  0  0  0  0
 29 53  1  0  0  0  0
 30 54  1  0  0  0  0
 30 55  1  0  0  0  0
 30 56  1  0  0  0  0
M  END
> <PUBCHEM_COMPOUND_CID>
504629
> <PUBCHEM_COMPOUND_CANONICALIZED>
1
> <PUBCHEM_CACTVS_COMPLEXITY>
725
> <PUBCHEM_CACTVS_HBOND_ACCEPTOR>
6
> <PUBCHEM_CACTVS_HBOND_DONOR>
2
> <PUBCHEM_CACTVS_ROTATABLE_BOND>
8
> <PUBCHEM_CACTVS_SUBSKEYS>
AAADceB7OAAAAAAAAAAAAAAAAAAAASIAAAAwQAAAAAAAAEABAAAAHgAACAAADBThmAYzBoMABgCoAiBmVAACCAAgIAAIiAAuCJiNNiKEsRqOeCCnxhMLqAew8C4OIAAAAAAAAABAAAAAAAAAAAAAAAAAAA==
> <PUBCHEM_IUPAC_OPENEYE_NAME>
3-[(2R,4S,5R)-4-hydroxy-5-(hydroxymethyl)tetrahydrofuran-2-yl]-6-(4-pentoxyphenyl)furo[2,3-d]pyrimidin-2-one
> <PUBCHEM_IUPAC_CAS_NAME>
3-[(2R,4S,5R)-4-hydroxy-5-(hydroxymethyl)-2-oxolanyl]-6-(4-pentoxyphenyl)-2-furo[2,3-d]pyrimidinone
> <PUBCHEM_IUPAC_NAME_MARKUP>
3-[(2<I>R</I>,4<I>S</I>,5<I>R</I>)-4-hydroxy-5-(hydroxymethyl)oxolan-2-yl]-6-(4-pentoxyphenyl)furo[2,3-d]pyrimidin-2-one
> <PUBCHEM_IUPAC_NAME>
3-[(2R,4S,5R)-4-hydroxy-5-(hydroxymethyl)oxolan-2-yl]-6-(4-pentoxyphenyl)furo[2,3-d]pyrimidin-2-one
> <PUBCHEM_IUPAC_SYSTEMATIC_NAME>
3-[(2R,4S,5R)-5-(hydroxymethyl)-4-oxidanyl-oxolan-2-yl]-6-(4-pentoxyphenyl)furo[2,3-d]pyrimidin-2-one
> <PUBCHEM_IUPAC_TRADITIONAL_NAME>
6-(4-amoxyphenyl)-3-[(2R,4S,5R)-4-hydroxy-5-methylol-tetrahydrofuran-2-yl]furo[2,3-d]pyrimidin-2-one
> <PUBCHEM_IUPAC_INCHI>
InChI=1S/C22H26N2O6/c1-2-3-4-9-28-16-7-5-14(6-8-16)18-10-15-12-24(22(27)23-21(15)30-18)20-11-17(26)19(13-25)29-20/h5-8,10,12,17,19-20,25-26H,2-4,9,11,13H2,1H3/t17-,19+,20+/m0/s1
> <PUBCHEM_IUPAC_INCHIKEY>
ZDWRXZBBYONJHT-DFQSSKMNSA-N
> <PUBCHEM_XLOGP3_AA>
2.9
> <PUBCHEM_EXACT_MASS>
414.17908655
> <PUBCHEM_MOLECULAR_FORMULA>
C22H26N2O6
> <PUBCHEM_MOLECULAR_WEIGHT>
414.5
> <PUBCHEM_OPENEYE_CAN_SMILES>
CCCCCOC1=CC=C(C=C1)C2=CC3=CN(C(=O)N=C3O2)C4CC(C(O4)CO)O
> <PUBCHEM_OPENEYE_ISO_SMILES>
CCCCCOC1=CC=C(C=C1)C2=CC3=CN(C(=O)N=C3O2)[C@H]4C[C@@H]([C@H](O4)CO)O
> <PUBCHEM_CACTVS_TPSA>
101
> <PUBCHEM_MONOISOTOPIC_WEIGHT>
414.17908655
> <PUBCHEM_TOTAL_CHARGE>
0
> <PUBCHEM_HEAVY_ATOM_COUNT>
30
> <PUBCHEM_ATOM_DEF_STEREO_COUNT>
3
> <PUBCHEM_ATOM_UDEF_STEREO_COUNT>
0
> <PUBCHEM_BOND_DEF_STEREO_COUNT>
0
> <PUBCHEM_BOND_UDEF_STEREO_COUNT>
0
> <PUBCHEM_ISOTOPIC_ATOM_COUNT>
0
> <PUBCHEM_COMPONENT_COUNT>
1
> <PUBCHEM_CACTVS_TAUTO_COUNT>
-1
> <PUBCHEM_COORDINATE_TYPE>
1
5
255
> <PUBCHEM_BONDANNOTATIONS>
12  13  6
14  16  8
16  17  8
16  18  8
18  19  8
9  2  5
20  24  8
20  25  8
24  28  8
25  29  8
27  28  8
27  29  8
4  17  8
4  19  8
10  7  6
7  14  8
7  15  8
8  15  8
8  17  8
$$$$
