504614
  -OEChem-10302200282D
 44 46  0     1  0  0  0  0  0999 V2000
   11.6065   -2.1147    0.0000 S   0  0  0  0  0  0  0  0  0  0  0  0
    8.9282   -1.8100    0.0000 O   0  0  0  0  0  0  0  0  0  0  0  0
    5.4641   -0.8100    0.0000 O   0  0  0  0  0  0  0  0  0  0  0  0
    8.0622    2.6900    0.0000 O   0  0  0  0  0  0  0  0  0  0  0  0
    6.3301    0.6900    0.0000 O   0  0  0  0  0  0  0  0  0  0  0  0
    9.7942   -3.3100    0.0000 O   0  0  0  0  0  0  0  0  0  0  0  0
    7.1962   -0.8100    0.0000 N   0  0  0  0  0  0  0  0  0  0  0  0
    9.7942   -0.3100    0.0000 N   0  0  0  0  0  0  0  0  0  0  0  0
    6.3301    2.6900    0.0000 N   0  0  0  0  0  0  0  0  0  0  0  0
    8.0622   -0.3100    0.0000 C   0  0  1  0  0  0  0  0  0  0  0  0
    8.0622    0.6900    0.0000 C   0  0  0  0  0  0  0  0  0  0  0  0
    7.1962    1.1900    0.0000 C   0  0  0  0  0  0  0  0  0  0  0  0
    8.9282   -0.8100    0.0000 C   0  0  0  0  0  0  0  0  0  0  0  0
   10.6603   -0.8100    0.0000 C   0  0  0  0  0  0  0  0  0  0  0  0
    7.1962    2.1900    0.0000 C   0  0  0  0  0  0  0  0  0  0  0  0
   10.6603   -1.8100    0.0000 C   0  0  0  0  0  0  0  0  0  0  0  0
    6.3301   -0.3100    0.0000 C   0  0  0  0  0  0  0  0  0  0  0  0
    9.7942   -2.3100    0.0000 C   0  0  0  0  0  0  0  0  0  0  0  0
   11.6065   -0.5053    0.0000 C   0  0  0  0  0  0  0  0  0  0  0  0
    4.5981   -0.3100    0.0000 C   0  0  0  0  0  0  0  0  0  0  0  0
   12.1901   -1.3100    0.0000 C   0  0  0  0  0  0  0  0  0  0  0  0
    3.7320   -0.8100    0.0000 C   0  0  0  0  0  0  0  0  0  0  0  0
    3.7320   -1.8100    0.0000 C   0  0  0  0  0  0  0  0  0  0  0  0
    2.8660   -0.3100    0.0000 C   0  0  0  0  0  0  0  0  0  0  0  0
    2.8660   -2.3100    0.0000 C   0  0  0  0  0  0  0  0  0  0  0  0
    2.0000   -0.8100    0.0000 C   0  0  0  0  0  0  0  0  0  0  0  0
    2.0000   -1.8100    0.0000 C   0  0  0  0  0  0  0  0  0  0  0  0
    8.0622   -0.9300    0.0000 H   0  0  0  0  0  0  0  0  0  0  0  0
    8.6728    0.5823    0.0000 H   0  0  0  0  0  0  0  0  0  0  0  0
    8.2742    1.2726    0.0000 H   0  0  0  0  0  0  0  0  0  0  0  0
    6.5856    1.2977    0.0000 H   0  0  0  0  0  0  0  0  0  0  0  0
    6.9841    0.6074    0.0000 H   0  0  0  0  0  0  0  0  0  0  0  0
    7.1962   -1.4300    0.0000 H   0  0  0  0  0  0  0  0  0  0  0  0
   11.7991    0.0841    0.0000 H   0  0  0  0  0  0  0  0  0  0  0  0
    4.9966    0.1649    0.0000 H   0  0  0  0  0  0  0  0  0  0  0  0
    4.1996    0.1649    0.0000 H   0  0  0  0  0  0  0  0  0  0  0  0
   12.8101   -1.3100    0.0000 H   0  0  0  0  0  0  0  0  0  0  0  0
    6.3301    3.3100    0.0000 H   0  0  0  0  0  0  0  0  0  0  0  0
    5.7932    2.3800    0.0000 H   0  0  0  0  0  0  0  0  0  0  0  0
    4.2690   -2.1200    0.0000 H   0  0  0  0  0  0  0  0  0  0  0  0
    2.8660    0.3100    0.0000 H   0  0  0  0  0  0  0  0  0  0  0  0
    2.8660   -2.9300    0.0000 H   0  0  0  0  0  0  0  0  0  0  0  0
    1.4631   -0.5000    0.0000 H   0  0  0  0  0  0  0  0  0  0  0  0
    1.4631   -2.1200    0.0000 H   0  0  0  0  0  0  0  0  0  0  0  0
  1 16  1  0  0  0  0
  1 21  1  0  0  0  0
  2 13  1  0  0  0  0
  2 18  1  0  0  0  0
  3 17  1  0  0  0  0
  3 20  1  0  0  0  0
  4 15  2  0  0  0  0
  5 17  2  0  0  0  0
  6 18  2  0  0  0  0
 10  7  1  1  0  0  0
  7 17  1  0  0  0  0
  7 33  1  0  0  0  0
  8 13  2  0  0  0  0
  8 14  1  0  0  0  0
  9 15  1  0  0  0  0
  9 38  1  0  0  0  0
  9 39  1  0  0  0  0
 10 11  1  0  0  0  0
 10 13  1  0  0  0  0
 10 28  1  0  0  0  0
 11 12  1  0  0  0  0
 11 29  1  0  0  0  0
 11 30  1  0  0  0  0
 12 15  1  0  0  0  0
 12 31  1  0  0  0  0
 12 32  1  0  0  0  0
 14 16  2  0  0  0  0
 14 19  1  0  0  0  0
 16 18  1  0  0  0  0
 19 21  2  0  0  0  0
 19 34  1  0  0  0  0
 20 22  1  0  0  0  0
 20 35  1  0  0  0  0
 20 36  1  0  0  0  0
 21 37  1  0  0  0  0
 22 23  2  0  0  0  0
 22 24  1  0  0  0  0
 23 25  1  0  0  0  0
 23 40  1  0  0  0  0
 24 26  2  0  0  0  0
 24 41  1  0  0  0  0
 25 27  2  0  0  0  0
 25 42  1  0  0  0  0
 26 27  1  0  0  0  0
 26 43  1  0  0  0  0
 27 44  1  0  0  0  0
M  END
> <PUBCHEM_COMPOUND_CID>
504614
> <PUBCHEM_COMPOUND_CANONICALIZED>
1
> <PUBCHEM_CACTVS_COMPLEXITY>
606
> <PUBCHEM_CACTVS_HBOND_ACCEPTOR>
7
> <PUBCHEM_CACTVS_HBOND_DONOR>
2
> <PUBCHEM_CACTVS_ROTATABLE_BOND>
8
> <PUBCHEM_CACTVS_SUBSKEYS>
AAADceB7OABAAAAAAAAAAAAAAAAAASAAAAAwQAAAAAAAAEABwAAAHgQQAAAADCjl2AawyYLABAisAiXyXACDAIAkChBIiJ04bMkKJjqgtRiPMYQm1gE4qUec1CAOAAAAAAAAAAAAAAAAAAAAAAAAAAAAAA==
> <PUBCHEM_IUPAC_OPENEYE_NAME>
benzyl N-[(1S)-4-amino-4-oxo-1-(4-oxothieno[3,2-d][1,3]oxazin-2-yl)butyl]carbamate
> <PUBCHEM_IUPAC_CAS_NAME>
N-[(1S)-4-amino-4-oxo-1-(4-oxo-2-thieno[3,2-d][1,3]oxazinyl)butyl]carbamic acid (phenylmethyl) ester
> <PUBCHEM_IUPAC_NAME_MARKUP>
benzyl <I>N</I>-[(1<I>S</I>)-4-amino-4-oxo-1-(4-oxothieno[3,2-d][1,3]oxazin-2-yl)butyl]carbamate
> <PUBCHEM_IUPAC_NAME>
benzyl N-[(1S)-4-amino-4-oxo-1-(4-oxothieno[3,2-d][1,3]oxazin-2-yl)butyl]carbamate
> <PUBCHEM_IUPAC_SYSTEMATIC_NAME>
(phenylmethyl) N-[(1S)-4-azanyl-4-oxidanylidene-1-(4-oxidanylidenethieno[3,2-d][1,3]oxazin-2-yl)butyl]carbamate
> <PUBCHEM_IUPAC_TRADITIONAL_NAME>
N-[(1S)-4-amino-4-keto-1-(4-ketothieno[3,2-d][1,3]oxazin-2-yl)butyl]carbamic acid benzyl ester
> <PUBCHEM_IUPAC_INCHI>
InChI=1S/C18H17N3O5S/c19-14(22)7-6-13(16-20-12-8-9-27-15(12)17(23)26-16)21-18(24)25-10-11-4-2-1-3-5-11/h1-5,8-9,13H,6-7,10H2,(H2,19,22)(H,21,24)/t13-/m0/s1
> <PUBCHEM_IUPAC_INCHIKEY>
SDSLDSLPVWQZLW-ZDUSSCGKSA-N
> <PUBCHEM_XLOGP3_AA>
1.8
> <PUBCHEM_EXACT_MASS>
387.08889182
> <PUBCHEM_MOLECULAR_FORMULA>
C18H17N3O5S
> <PUBCHEM_MOLECULAR_WEIGHT>
387.4
> <PUBCHEM_OPENEYE_CAN_SMILES>
C1=CC=C(C=C1)COC(=O)NC(CCC(=O)N)C2=NC3=C(C(=O)O2)SC=C3
> <PUBCHEM_OPENEYE_ISO_SMILES>
C1=CC=C(C=C1)COC(=O)N[C@@H](CCC(=O)N)C2=NC3=C(C(=O)O2)SC=C3
> <PUBCHEM_CACTVS_TPSA>
148
> <PUBCHEM_MONOISOTOPIC_WEIGHT>
387.08889182
> <PUBCHEM_TOTAL_CHARGE>
0
> <PUBCHEM_HEAVY_ATOM_COUNT>
27
> <PUBCHEM_ATOM_DEF_STEREO_COUNT>
1
> <PUBCHEM_ATOM_UDEF_STEREO_COUNT>
0
> <PUBCHEM_BOND_DEF_STEREO_COUNT>
0
> <PUBCHEM_BOND_UDEF_STEREO_COUNT>
0
> <PUBCHEM_ISOTOPIC_ATOM_COUNT>
0
> <PUBCHEM_COMPONENT_COUNT>
1
> <PUBCHEM_CACTVS_TAUTO_COUNT>
-1
> <PUBCHEM_COORDINATE_TYPE>
1
5
255
> <PUBCHEM_BONDANNOTATIONS>
1  16  8
1  21  8
14  16  8
14  19  8
16  18  8
19  21  8
2  13  8
2  18  8
22  23  8
22  24  8
23  25  8
24  26  8
25  27  8
26  27  8
10  7  5
8  13  8
8  14  8
$$$$
