504620
  -OEChem-10302200282D
 35 37  0     1  0  0  0  0  0999 V2000
   10.7404   -1.0547    0.0000 S   0  0  0  0  0  0  0  0  0  0  0  0
    8.0622   -0.7500    0.0000 O   0  0  0  0  0  0  0  0  0  0  0  0
    5.4641    1.7500    0.0000 O   0  0  0  0  0  0  0  0  0  0  0  0
    8.9282   -2.2500    0.0000 O   0  0  0  0  0  0  0  0  0  0  0  0
    6.3301    0.2500    0.0000 N   0  0  0  0  0  0  0  0  0  0  0  0
    8.9282    0.7500    0.0000 N   0  0  0  0  0  0  0  0  0  0  0  0
    4.5981    0.2500    0.0000 N   0  0  0  0  0  0  0  0  0  0  0  0
    7.1962    0.7500    0.0000 C   0  0  2  0  0  0  0  0  0  0  0  0
    8.0622    0.2500    0.0000 C   0  0  0  0  0  0  0  0  0  0  0  0
    7.1962    1.7500    0.0000 C   0  0  0  0  0  0  0  0  0  0  0  0
    9.7942    0.2500    0.0000 C   0  0  0  0  0  0  0  0  0  0  0  0
    9.7942   -0.7500    0.0000 C   0  0  0  0  0  0  0  0  0  0  0  0
    5.4641    0.7500    0.0000 C   0  0  0  0  0  0  0  0  0  0  0  0
    8.9282   -1.2500    0.0000 C   0  0  0  0  0  0  0  0  0  0  0  0
   10.7404    0.5547    0.0000 C   0  0  0  0  0  0  0  0  0  0  0  0
    3.7320    0.7500    0.0000 C   0  0  0  0  0  0  0  0  0  0  0  0
   11.3241   -0.2500    0.0000 C   0  0  0  0  0  0  0  0  0  0  0  0
    2.8660    0.2500    0.0000 C   0  0  0  0  0  0  0  0  0  0  0  0
    3.7320    1.7500    0.0000 C   0  0  0  0  0  0  0  0  0  0  0  0
    2.0000    0.7500    0.0000 C   0  0  0  0  0  0  0  0  0  0  0  0
    2.8660    2.2500    0.0000 C   0  0  0  0  0  0  0  0  0  0  0  0
    2.0000    1.7500    0.0000 C   0  0  0  0  0  0  0  0  0  0  0  0
    6.6592    1.0600    0.0000 H   0  0  0  0  0  0  0  0  0  0  0  0
    7.8162    1.7500    0.0000 H   0  0  0  0  0  0  0  0  0  0  0  0
    7.1962    2.3700    0.0000 H   0  0  0  0  0  0  0  0  0  0  0  0
    6.5762    1.7500    0.0000 H   0  0  0  0  0  0  0  0  0  0  0  0
    6.3301   -0.3700    0.0000 H   0  0  0  0  0  0  0  0  0  0  0  0
   10.9331    1.1441    0.0000 H   0  0  0  0  0  0  0  0  0  0  0  0
    4.5981   -0.3700    0.0000 H   0  0  0  0  0  0  0  0  0  0  0  0
   11.9441   -0.2500    0.0000 H   0  0  0  0  0  0  0  0  0  0  0  0
    2.8660   -0.3700    0.0000 H   0  0  0  0  0  0  0  0  0  0  0  0
    4.2690    2.0600    0.0000 H   0  0  0  0  0  0  0  0  0  0  0  0
    1.4631    0.4400    0.0000 H   0  0  0  0  0  0  0  0  0  0  0  0
    2.8660    2.8700    0.0000 H   0  0  0  0  0  0  0  0  0  0  0  0
    1.4631    2.0600    0.0000 H   0  0  0  0  0  0  0  0  0  0  0  0
  1 12  1  0  0  0  0
  1 17  1  0  0  0  0
  2  9  1  0  0  0  0
  2 14  1  0  0  0  0
  3 13  2  0  0  0  0
  4 14  2  0  0  0  0
  8  5  1  1  0  0  0
  5 13  1  0  0  0  0
  5 27  1  0  0  0  0
  6  9  2  0  0  0  0
  6 11  1  0  0  0  0
  7 13  1  0  0  0  0
  7 16  1  0  0  0  0
  7 29  1  0  0  0  0
  8  9  1  0  0  0  0
  8 10  1  0  0  0  0
  8 23  1  0  0  0  0
 10 24  1  0  0  0  0
 10 25  1  0  0  0  0
 10 26  1  0  0  0  0
 11 12  2  0  0  0  0
 11 15  1  0  0  0  0
 12 14  1  0  0  0  0
 15 17  2  0  0  0  0
 15 28  1  0  0  0  0
 16 18  2  0  0  0  0
 16 19  1  0  0  0  0
 17 30  1  0  0  0  0
 18 20  1  0  0  0  0
 18 31  1  0  0  0  0
 19 21  2  0  0  0  0
 19 32  1  0  0  0  0
 20 22  2  0  0  0  0
 20 33  1  0  0  0  0
 21 22  1  0  0  0  0
 21 34  1  0  0  0  0
 22 35  1  0  0  0  0
M  END
> <PUBCHEM_COMPOUND_CID>
504620
> <PUBCHEM_COMPOUND_CANONICALIZED>
1
> <PUBCHEM_CACTVS_COMPLEXITY>
477
> <PUBCHEM_CACTVS_HBOND_ACCEPTOR>
5
> <PUBCHEM_CACTVS_HBOND_DONOR>
2
> <PUBCHEM_CACTVS_ROTATABLE_BOND>
3
> <PUBCHEM_CACTVS_SUBSKEYS>
AAADccBzMABAAAAAAAAAAAAAAAAAASAAAAAwQAAAAAAAAEABwAAAHgQQAAAACCjF0ASzyYLABAisACTyXACDAIAlChBIiJ04bMiKJjrgtZmHMYxu1gN46WeYAAAAAAAAAAAAAAAAAAAAAAAAAAAAAAAAAA==
> <PUBCHEM_IUPAC_OPENEYE_NAME>
1-[(1S)-1-(4-oxothieno[3,2-d][1,3]oxazin-2-yl)ethyl]-3-phenyl-urea
> <PUBCHEM_IUPAC_CAS_NAME>
1-[(1S)-1-(4-oxo-2-thieno[3,2-d][1,3]oxazinyl)ethyl]-3-phenylurea
> <PUBCHEM_IUPAC_NAME_MARKUP>
1-[(1<I>S</I>)-1-(4-oxothieno[3,2-d][1,3]oxazin-2-yl)ethyl]-3-phenylurea
> <PUBCHEM_IUPAC_NAME>
1-[(1S)-1-(4-oxothieno[3,2-d][1,3]oxazin-2-yl)ethyl]-3-phenylurea
> <PUBCHEM_IUPAC_SYSTEMATIC_NAME>
1-[(1S)-1-(4-oxidanylidenethieno[3,2-d][1,3]oxazin-2-yl)ethyl]-3-phenyl-urea
> <PUBCHEM_IUPAC_TRADITIONAL_NAME>
1-[(1S)-1-(4-ketothieno[3,2-d][1,3]oxazin-2-yl)ethyl]-3-phenyl-urea
> <PUBCHEM_IUPAC_INCHI>
InChI=1S/C15H13N3O3S/c1-9(16-15(20)17-10-5-3-2-4-6-10)13-18-11-7-8-22-12(11)14(19)21-13/h2-9H,1H3,(H2,16,17,20)/t9-/m0/s1
> <PUBCHEM_IUPAC_INCHIKEY>
SFQSVUVTZYBGNC-VIFPVBQESA-N
> <PUBCHEM_XLOGP3_AA>
2.4
> <PUBCHEM_EXACT_MASS>
315.06776246
> <PUBCHEM_MOLECULAR_FORMULA>
C15H13N3O3S
> <PUBCHEM_MOLECULAR_WEIGHT>
315.3
> <PUBCHEM_OPENEYE_CAN_SMILES>
CC(C1=NC2=C(C(=O)O1)SC=C2)NC(=O)NC3=CC=CC=C3
> <PUBCHEM_OPENEYE_ISO_SMILES>
C[C@@H](C1=NC2=C(C(=O)O1)SC=C2)NC(=O)NC3=CC=CC=C3
> <PUBCHEM_CACTVS_TPSA>
108
> <PUBCHEM_MONOISOTOPIC_WEIGHT>
315.06776246
> <PUBCHEM_TOTAL_CHARGE>
0
> <PUBCHEM_HEAVY_ATOM_COUNT>
22
> <PUBCHEM_ATOM_DEF_STEREO_COUNT>
1
> <PUBCHEM_ATOM_UDEF_STEREO_COUNT>
0
> <PUBCHEM_BOND_DEF_STEREO_COUNT>
0
> <PUBCHEM_BOND_UDEF_STEREO_COUNT>
0
> <PUBCHEM_ISOTOPIC_ATOM_COUNT>
0
> <PUBCHEM_COMPONENT_COUNT>
1
> <PUBCHEM_CACTVS_TAUTO_COUNT>
-1
> <PUBCHEM_COORDINATE_TYPE>
1
5
255
> <PUBCHEM_BONDANNOTATIONS>
1  12  8
1  17  8
11  12  8
11  15  8
12  14  8
15  17  8
16  18  8
16  19  8
18  20  8
19  21  8
2  14  8
2  9  8
20  22  8
21  22  8
8  5  5
6  11  8
6  9  8
$$$$
