504615
  -OEChem-10302200282D
 43 45  0     1  0  0  0  0  0999 V2000
   11.6065   -1.0547    0.0000 S   0  0  0  0  0  0  0  0  0  0  0  0
    8.9282   -0.7500    0.0000 O   0  0  0  0  0  0  0  0  0  0  0  0
    5.4641    0.2500    0.0000 O   0  0  0  0  0  0  0  0  0  0  0  0
    6.3301    1.7500    0.0000 O   0  0  0  0  0  0  0  0  0  0  0  0
    9.7942   -2.2500    0.0000 O   0  0  0  0  0  0  0  0  0  0  0  0
    7.1962    0.2500    0.0000 N   0  0  0  0  0  0  0  0  0  0  0  0
    9.7942    0.7500    0.0000 N   0  0  0  0  0  0  0  0  0  0  0  0
    8.0622    1.7500    0.0000 C   0  0  0  0  0  0  0  0  0  0  0  0
    8.0622    0.7500    0.0000 C   0  0  1  0  0  0  0  0  0  0  0  0
    7.1962    2.2500    0.0000 C   0  0  0  0  0  0  0  0  0  0  0  0
    8.9282    2.2500    0.0000 C   0  0  0  0  0  0  0  0  0  0  0  0
    8.9282    0.2500    0.0000 C   0  0  0  0  0  0  0  0  0  0  0  0
   10.6603    0.2500    0.0000 C   0  0  0  0  0  0  0  0  0  0  0  0
    6.3301    0.7500    0.0000 C   0  0  0  0  0  0  0  0  0  0  0  0
   10.6603   -0.7500    0.0000 C   0  0  0  0  0  0  0  0  0  0  0  0
    9.7942   -1.2500    0.0000 C   0  0  0  0  0  0  0  0  0  0  0  0
   11.6065    0.5547    0.0000 C   0  0  0  0  0  0  0  0  0  0  0  0
    4.5981    0.7500    0.0000 C   0  0  0  0  0  0  0  0  0  0  0  0
   12.1901   -0.2500    0.0000 C   0  0  0  0  0  0  0  0  0  0  0  0
    3.7320    0.2500    0.0000 C   0  0  0  0  0  0  0  0  0  0  0  0
    3.7320   -0.7500    0.0000 C   0  0  0  0  0  0  0  0  0  0  0  0
    2.8660    0.7500    0.0000 C   0  0  0  0  0  0  0  0  0  0  0  0
    2.8660   -1.2500    0.0000 C   0  0  0  0  0  0  0  0  0  0  0  0
    2.0000    0.2500    0.0000 C   0  0  0  0  0  0  0  0  0  0  0  0
    2.0000   -0.7500    0.0000 C   0  0  0  0  0  0  0  0  0  0  0  0
    8.0622    2.3700    0.0000 H   0  0  0  0  0  0  0  0  0  0  0  0
    8.0622    0.1300    0.0000 H   0  0  0  0  0  0  0  0  0  0  0  0
    7.5062    2.7869    0.0000 H   0  0  0  0  0  0  0  0  0  0  0  0
    6.6592    2.5600    0.0000 H   0  0  0  0  0  0  0  0  0  0  0  0
    6.8862    1.7131    0.0000 H   0  0  0  0  0  0  0  0  0  0  0  0
    9.2382    1.7131    0.0000 H   0  0  0  0  0  0  0  0  0  0  0  0
    9.4651    2.5600    0.0000 H   0  0  0  0  0  0  0  0  0  0  0  0
    8.6182    2.7869    0.0000 H   0  0  0  0  0  0  0  0  0  0  0  0
    7.1962   -0.3700    0.0000 H   0  0  0  0  0  0  0  0  0  0  0  0
   11.7991    1.1440    0.0000 H   0  0  0  0  0  0  0  0  0  0  0  0
    4.9966    1.2250    0.0000 H   0  0  0  0  0  0  0  0  0  0  0  0
    4.1996    1.2250    0.0000 H   0  0  0  0  0  0  0  0  0  0  0  0
   12.8101   -0.2500    0.0000 H   0  0  0  0  0  0  0  0  0  0  0  0
    4.2690   -1.0600    0.0000 H   0  0  0  0  0  0  0  0  0  0  0  0
    2.8660    1.3700    0.0000 H   0  0  0  0  0  0  0  0  0  0  0  0
    2.8660   -1.8700    0.0000 H   0  0  0  0  0  0  0  0  0  0  0  0
    1.4631    0.5600    0.0000 H   0  0  0  0  0  0  0  0  0  0  0  0
    1.4631   -1.0600    0.0000 H   0  0  0  0  0  0  0  0  0  0  0  0
  1 15  1  0  0  0  0
  1 19  1  0  0  0  0
  2 12  1  0  0  0  0
  2 16  1  0  0  0  0
  3 14  1  0  0  0  0
  3 18  1  0  0  0  0
  4 14  2  0  0  0  0
  5 16  2  0  0  0  0
  9  6  1  1  0  0  0
  6 14  1  0  0  0  0
  6 34  1  0  0  0  0
  7 12  2  0  0  0  0
  7 13  1  0  0  0  0
  8  9  1  0  0  0  0
  8 10  1  0  0  0  0
  8 11  1  0  0  0  0
  8 26  1  0  0  0  0
  9 12  1  0  0  0  0
  9 27  1  0  0  0  0
 10 28  1  0  0  0  0
 10 29  1  0  0  0  0
 10 30  1  0  0  0  0
 11 31  1  0  0  0  0
 11 32  1  0  0  0  0
 11 33  1  0  0  0  0
 13 15  2  0  0  0  0
 13 17  1  0  0  0  0
 15 16  1  0  0  0  0
 17 19  2  0  0  0  0
 17 35  1  0  0  0  0
 18 20  1  0  0  0  0
 18 36  1  0  0  0  0
 18 37  1  0  0  0  0
 19 38  1  0  0  0  0
 20 21  2  0  0  0  0
 20 22  1  0  0  0  0
 21 23  1  0  0  0  0
 21 39  1  0  0  0  0
 22 24  2  0  0  0  0
 22 40  1  0  0  0  0
 23 25  2  0  0  0  0
 23 41  1  0  0  0  0
 24 25  1  0  0  0  0
 24 42  1  0  0  0  0
 25 43  1  0  0  0  0
M  END
> <PUBCHEM_COMPOUND_CID>
504615
> <PUBCHEM_COMPOUND_CANONICALIZED>
1
> <PUBCHEM_CACTVS_COMPLEXITY>
531
> <PUBCHEM_CACTVS_HBOND_ACCEPTOR>
6
> <PUBCHEM_CACTVS_HBOND_DONOR>
1
> <PUBCHEM_CACTVS_ROTATABLE_BOND>
6
> <PUBCHEM_CACTVS_SUBSKEYS>
AAADceB7OABAAAAAAAAAAAAAAAAAASAAAAAwQAAAAAAAAEABwAAAHgQQAAAADSjl2AayyYLABAisAiTyXACDAIAkChBIiJ04bMkKJjqgNRiPMYQm1gE4qUeIwCAOAAAAAAAAAAAAAAAAAAAAAAAAAAAAAA==
> <PUBCHEM_IUPAC_OPENEYE_NAME>
benzyl N-[(1S)-2-methyl-1-(4-oxothieno[3,2-d][1,3]oxazin-2-yl)propyl]carbamate
> <PUBCHEM_IUPAC_CAS_NAME>
N-[(1S)-2-methyl-1-(4-oxo-2-thieno[3,2-d][1,3]oxazinyl)propyl]carbamic acid (phenylmethyl) ester
> <PUBCHEM_IUPAC_NAME_MARKUP>
benzyl <I>N</I>-[(1<I>S</I>)-2-methyl-1-(4-oxothieno[3,2-d][1,3]oxazin-2-yl)propyl]carbamate
> <PUBCHEM_IUPAC_NAME>
benzyl N-[(1S)-2-methyl-1-(4-oxothieno[3,2-d][1,3]oxazin-2-yl)propyl]carbamate
> <PUBCHEM_IUPAC_SYSTEMATIC_NAME>
(phenylmethyl) N-[(1S)-2-methyl-1-(4-oxidanylidenethieno[3,2-d][1,3]oxazin-2-yl)propyl]carbamate
> <PUBCHEM_IUPAC_TRADITIONAL_NAME>
N-[(1S)-1-(4-ketothieno[3,2-d][1,3]oxazin-2-yl)-2-methyl-propyl]carbamic acid benzyl ester
> <PUBCHEM_IUPAC_INCHI>
InChI=1S/C18H18N2O4S/c1-11(2)14(16-19-13-8-9-25-15(13)17(21)24-16)20-18(22)23-10-12-6-4-3-5-7-12/h3-9,11,14H,10H2,1-2H3,(H,20,22)/t14-/m0/s1
> <PUBCHEM_IUPAC_INCHIKEY>
FUQPSKOYLOJFMA-AWEZNQCLSA-N
> <PUBCHEM_XLOGP3_AA>
3.9
> <PUBCHEM_EXACT_MASS>
358.09872823
> <PUBCHEM_MOLECULAR_FORMULA>
C18H18N2O4S
> <PUBCHEM_MOLECULAR_WEIGHT>
358.4
> <PUBCHEM_OPENEYE_CAN_SMILES>
CC(C)C(C1=NC2=C(C(=O)O1)SC=C2)NC(=O)OCC3=CC=CC=C3
> <PUBCHEM_OPENEYE_ISO_SMILES>
CC(C)[C@@H](C1=NC2=C(C(=O)O1)SC=C2)NC(=O)OCC3=CC=CC=C3
> <PUBCHEM_CACTVS_TPSA>
105
> <PUBCHEM_MONOISOTOPIC_WEIGHT>
358.09872823
> <PUBCHEM_TOTAL_CHARGE>
0
> <PUBCHEM_HEAVY_ATOM_COUNT>
25
> <PUBCHEM_ATOM_DEF_STEREO_COUNT>
1
> <PUBCHEM_ATOM_UDEF_STEREO_COUNT>
0
> <PUBCHEM_BOND_DEF_STEREO_COUNT>
0
> <PUBCHEM_BOND_UDEF_STEREO_COUNT>
0
> <PUBCHEM_ISOTOPIC_ATOM_COUNT>
0
> <PUBCHEM_COMPONENT_COUNT>
1
> <PUBCHEM_CACTVS_TAUTO_COUNT>
-1
> <PUBCHEM_COORDINATE_TYPE>
1
5
255
> <PUBCHEM_BONDANNOTATIONS>
1  15  8
1  19  8
13  15  8
13  17  8
15  16  8
17  19  8
2  12  8
2  16  8
20  21  8
20  22  8
21  23  8
22  24  8
23  25  8
24  25  8
9  6  5
7  12  8
7  13  8
$$$$
