504618
  -OEChem-10302200282D
 35 37  0     1  0  0  0  0  0999 V2000
   10.7404   -1.5547    0.0000 S   0  0  0  0  0  0  0  0  0  0  0  0
    8.0622   -1.2500    0.0000 O   0  0  0  0  0  0  0  0  0  0  0  0
    8.9282   -2.7500    0.0000 O   0  0  0  0  0  0  0  0  0  0  0  0
    3.7320   -1.7500    0.0000 O   0  5  0  0  0  0  0  0  0  0  0  0
    5.4641   -1.7500    0.0000 O   0  0  0  0  0  0  0  0  0  0  0  0
    2.8660    2.7500    0.0000 O   0  5  0  0  0  0  0  0  0  0  0  0
    2.0000    1.2500    0.0000 O   0  0  0  0  0  0  0  0  0  0  0  0
    6.3301   -0.2500    0.0000 N   0  0  0  0  0  0  0  0  0  0  0  0
    8.9282    0.2500    0.0000 N   0  0  0  0  0  0  0  0  0  0  0  0
    4.5981   -1.2500    0.0000 N   0  3  0  0  0  0  0  0  0  0  0  0
    2.8660    1.7500    0.0000 N   0  3  0  0  0  0  0  0  0  0  0  0
    7.1962    0.2500    0.0000 C   0  0  2  0  0  0  0  0  0  0  0  0
    8.0622   -0.2500    0.0000 C   0  0  0  0  0  0  0  0  0  0  0  0
    5.4641    0.2500    0.0000 C   0  0  0  0  0  0  0  0  0  0  0  0
    7.1962    1.2500    0.0000 C   0  0  0  0  0  0  0  0  0  0  0  0
    4.5981   -0.2500    0.0000 C   0  0  0  0  0  0  0  0  0  0  0  0
    9.7942   -0.2500    0.0000 C   0  0  0  0  0  0  0  0  0  0  0  0
    5.4641    1.2500    0.0000 C   0  0  0  0  0  0  0  0  0  0  0  0
    9.7942   -1.2500    0.0000 C   0  0  0  0  0  0  0  0  0  0  0  0
    3.7320    0.2500    0.0000 C   0  0  0  0  0  0  0  0  0  0  0  0
    3.7320    1.2500    0.0000 C   0  0  0  0  0  0  0  0  0  0  0  0
    4.5981    1.7500    0.0000 C   0  0  0  0  0  0  0  0  0  0  0  0
    8.9282   -1.7500    0.0000 C   0  0  0  0  0  0  0  0  0  0  0  0
   10.7404    0.0547    0.0000 C   0  0  0  0  0  0  0  0  0  0  0  0
   11.3241   -0.7500    0.0000 C   0  0  0  0  0  0  0  0  0  0  0  0
    6.6592    0.5600    0.0000 H   0  0  0  0  0  0  0  0  0  0  0  0
    6.3301   -0.8700    0.0000 H   0  0  0  0  0  0  0  0  0  0  0  0
    7.8162    1.2500    0.0000 H   0  0  0  0  0  0  0  0  0  0  0  0
    7.1962    1.8700    0.0000 H   0  0  0  0  0  0  0  0  0  0  0  0
    6.5762    1.2500    0.0000 H   0  0  0  0  0  0  0  0  0  0  0  0
    6.0010    1.5600    0.0000 H   0  0  0  0  0  0  0  0  0  0  0  0
    3.1951   -0.0600    0.0000 H   0  0  0  0  0  0  0  0  0  0  0  0
    4.5981    2.3700    0.0000 H   0  0  0  0  0  0  0  0  0  0  0  0
   10.9331    0.6441    0.0000 H   0  0  0  0  0  0  0  0  0  0  0  0
   11.9441   -0.7500    0.0000 H   0  0  0  0  0  0  0  0  0  0  0  0
  1 19  1  0  0  0  0
  1 25  1  0  0  0  0
  2 13  1  0  0  0  0
  2 23  1  0  0  0  0
  3 23  2  0  0  0  0
  4 10  1  0  0  0  0
  5 10  2  0  0  0  0
  6 11  1  0  0  0  0
  7 11  2  0  0  0  0
 12  8  1  1  0  0  0
  8 14  1  0  0  0  0
  8 27  1  0  0  0  0
  9 13  2  0  0  0  0
  9 17  1  0  0  0  0
 10 16  1  0  0  0  0
 11 21  1  0  0  0  0
 12 13  1  0  0  0  0
 12 15  1  0  0  0  0
 12 26  1  0  0  0  0
 14 16  2  0  0  0  0
 14 18  1  0  0  0  0
 15 28  1  0  0  0  0
 15 29  1  0  0  0  0
 15 30  1  0  0  0  0
 16 20  1  0  0  0  0
 17 19  2  0  0  0  0
 17 24  1  0  0  0  0
 18 22  2  0  0  0  0
 18 31  1  0  0  0  0
 19 23  1  0  0  0  0
 20 21  2  0  0  0  0
 20 32  1  0  0  0  0
 21 22  1  0  0  0  0
 22 33  1  0  0  0  0
 24 25  2  0  0  0  0
 24 34  1  0  0  0  0
 25 35  1  0  0  0  0
M  CHG  4   4  -1   6  -1  10   1  11   1
M  END
> <PUBCHEM_COMPOUND_CID>
504618
> <PUBCHEM_COMPOUND_CANONICALIZED>
1
> <PUBCHEM_CACTVS_COMPLEXITY>
603
> <PUBCHEM_CACTVS_HBOND_ACCEPTOR>
9
> <PUBCHEM_CACTVS_HBOND_DONOR>
1
> <PUBCHEM_CACTVS_ROTATABLE_BOND>
3
> <PUBCHEM_CACTVS_SUBSKEYS>
AAADccBzuABAAAAAAAAAAAAAAAAAASAAAAAwQAAAAAAAAEABwAAAHgQUAAAACCjF0ASyyYLQRAitACTyTwCDAIAlChBoiJ04fMoKZjrg9dmXMYxm0IH46UeYAAAAAACAAAQAACAAAQAACAAAQAAAAAAAAA==
> <PUBCHEM_IUPAC_OPENEYE_NAME>
2-[(1S)-1-(2,4-dinitroanilino)ethyl]thieno[3,2-d][1,3]oxazin-4-one
> <PUBCHEM_IUPAC_CAS_NAME>
2-[(1S)-1-(2,4-dinitroanilino)ethyl]-4-thieno[3,2-d][1,3]oxazinone
> <PUBCHEM_IUPAC_NAME_MARKUP>
2-[(1<I>S</I>)-1-(2,4-dinitroanilino)ethyl]thieno[3,2-d][1,3]oxazin-4-one
> <PUBCHEM_IUPAC_NAME>
2-[(1S)-1-(2,4-dinitroanilino)ethyl]thieno[3,2-d][1,3]oxazin-4-one
> <PUBCHEM_IUPAC_SYSTEMATIC_NAME>
2-[(1S)-1-[(2,4-dinitrophenyl)amino]ethyl]thieno[3,2-d][1,3]oxazin-4-one
> <PUBCHEM_IUPAC_TRADITIONAL_NAME>
2-[(1S)-1-(2,4-dinitroanilino)ethyl]thieno[3,2-d][1,3]oxazin-4-one
> <PUBCHEM_IUPAC_INCHI>
InChI=1S/C14H10N4O6S/c1-7(13-16-10-4-5-25-12(10)14(19)24-13)15-9-3-2-8(17(20)21)6-11(9)18(22)23/h2-7,15H,1H3/t7-/m0/s1
> <PUBCHEM_IUPAC_INCHIKEY>
CWRJHVRNLUNMOW-ZETCQYMHSA-N
> <PUBCHEM_XLOGP3_AA>
3.6
> <PUBCHEM_EXACT_MASS>
362.03210523
> <PUBCHEM_MOLECULAR_FORMULA>
C14H10N4O6S
> <PUBCHEM_MOLECULAR_WEIGHT>
362.32
> <PUBCHEM_OPENEYE_CAN_SMILES>
CC(C1=NC2=C(C(=O)O1)SC=C2)NC3=C(C=C(C=C3)[N+](=O)[O-])[N+](=O)[O-]
> <PUBCHEM_OPENEYE_ISO_SMILES>
C[C@@H](C1=NC2=C(C(=O)O1)SC=C2)NC3=C(C=C(C=C3)[N+](=O)[O-])[N+](=O)[O-]
> <PUBCHEM_CACTVS_TPSA>
171
> <PUBCHEM_MONOISOTOPIC_WEIGHT>
362.03210523
> <PUBCHEM_TOTAL_CHARGE>
0
> <PUBCHEM_HEAVY_ATOM_COUNT>
25
> <PUBCHEM_ATOM_DEF_STEREO_COUNT>
1
> <PUBCHEM_ATOM_UDEF_STEREO_COUNT>
0
> <PUBCHEM_BOND_DEF_STEREO_COUNT>
0
> <PUBCHEM_BOND_UDEF_STEREO_COUNT>
0
> <PUBCHEM_ISOTOPIC_ATOM_COUNT>
0
> <PUBCHEM_COMPONENT_COUNT>
1
> <PUBCHEM_CACTVS_TAUTO_COUNT>
-1
> <PUBCHEM_COORDINATE_TYPE>
1
5
255
> <PUBCHEM_BONDANNOTATIONS>
1  19  8
1  25  8
14  16  8
14  18  8
16  20  8
17  19  8
17  24  8
18  22  8
19  23  8
2  13  8
2  23  8
20  21  8
21  22  8
24  25  8
12  8  5
9  13  8
9  17  8
$$$$
