504613
  -OEChem-10302200282D
 41 43  0     1  0  0  0  0  0999 V2000
   11.6065   -1.7097    0.0000 S   0  0  0  0  0  0  0  0  0  0  0  0
    8.9282   -1.4050    0.0000 O   0  0  0  0  0  0  0  0  0  0  0  0
    5.4641   -0.4050    0.0000 O   0  0  0  0  0  0  0  0  0  0  0  0
    9.7942    1.0950    0.0000 O   0  0  0  0  0  0  0  0  0  0  0  0
    6.3301    1.0950    0.0000 O   0  0  0  0  0  0  0  0  0  0  0  0
    9.7942   -2.9050    0.0000 O   0  0  0  0  0  0  0  0  0  0  0  0
    7.1962   -0.4050    0.0000 N   0  0  0  0  0  0  0  0  0  0  0  0
    9.7942    0.0950    0.0000 N   0  0  0  0  0  0  0  0  0  0  0  0
    8.9282    2.5950    0.0000 N   0  0  0  0  0  0  0  0  0  0  0  0
    8.0622    0.0950    0.0000 C   0  0  1  0  0  0  0  0  0  0  0  0
    8.0622    1.0950    0.0000 C   0  0  0  0  0  0  0  0  0  0  0  0
    8.9282   -0.4050    0.0000 C   0  0  0  0  0  0  0  0  0  0  0  0
   10.6603   -0.4050    0.0000 C   0  0  0  0  0  0  0  0  0  0  0  0
    8.9282    1.5950    0.0000 C   0  0  0  0  0  0  0  0  0  0  0  0
   10.6603   -1.4050    0.0000 C   0  0  0  0  0  0  0  0  0  0  0  0
    6.3301    0.0950    0.0000 C   0  0  0  0  0  0  0  0  0  0  0  0
    9.7942   -1.9050    0.0000 C   0  0  0  0  0  0  0  0  0  0  0  0
   11.6065   -0.1003    0.0000 C   0  0  0  0  0  0  0  0  0  0  0  0
    4.5981    0.0950    0.0000 C   0  0  0  0  0  0  0  0  0  0  0  0
    3.7320   -0.4050    0.0000 C   0  0  0  0  0  0  0  0  0  0  0  0
   12.1901   -0.9050    0.0000 C   0  0  0  0  0  0  0  0  0  0  0  0
    3.7320   -1.4050    0.0000 C   0  0  0  0  0  0  0  0  0  0  0  0
    2.8660    0.0950    0.0000 C   0  0  0  0  0  0  0  0  0  0  0  0
    2.8660   -1.9050    0.0000 C   0  0  0  0  0  0  0  0  0  0  0  0
    2.0000   -0.4050    0.0000 C   0  0  0  0  0  0  0  0  0  0  0  0
    2.0000   -1.4050    0.0000 C   0  0  0  0  0  0  0  0  0  0  0  0
    8.0622   -0.5250    0.0000 H   0  0  0  0  0  0  0  0  0  0  0  0
    7.8501    1.6776    0.0000 H   0  0  0  0  0  0  0  0  0  0  0  0
    7.4516    0.9873    0.0000 H   0  0  0  0  0  0  0  0  0  0  0  0
    7.1962   -1.0250    0.0000 H   0  0  0  0  0  0  0  0  0  0  0  0
   11.7991    0.4891    0.0000 H   0  0  0  0  0  0  0  0  0  0  0  0
    4.9966    0.5699    0.0000 H   0  0  0  0  0  0  0  0  0  0  0  0
    4.1996    0.5699    0.0000 H   0  0  0  0  0  0  0  0  0  0  0  0
   12.8101   -0.9050    0.0000 H   0  0  0  0  0  0  0  0  0  0  0  0
    9.4651    2.9050    0.0000 H   0  0  0  0  0  0  0  0  0  0  0  0
    8.3913    2.9050    0.0000 H   0  0  0  0  0  0  0  0  0  0  0  0
    4.2690   -1.7150    0.0000 H   0  0  0  0  0  0  0  0  0  0  0  0
    2.8660    0.7150    0.0000 H   0  0  0  0  0  0  0  0  0  0  0  0
    2.8660   -2.5250    0.0000 H   0  0  0  0  0  0  0  0  0  0  0  0
    1.4631   -0.0950    0.0000 H   0  0  0  0  0  0  0  0  0  0  0  0
    1.4631   -1.7150    0.0000 H   0  0  0  0  0  0  0  0  0  0  0  0
  1 15  1  0  0  0  0
  1 21  1  0  0  0  0
  2 12  1  0  0  0  0
  2 17  1  0  0  0  0
  3 16  1  0  0  0  0
  3 19  1  0  0  0  0
  4 14  2  0  0  0  0
  5 16  2  0  0  0  0
  6 17  2  0  0  0  0
 10  7  1  1  0  0  0
  7 16  1  0  0  0  0
  7 30  1  0  0  0  0
  8 12  2  0  0  0  0
  8 13  1  0  0  0  0
  9 14  1  0  0  0  0
  9 35  1  0  0  0  0
  9 36  1  0  0  0  0
 10 11  1  0  0  0  0
 10 12  1  0  0  0  0
 10 27  1  0  0  0  0
 11 14  1  0  0  0  0
 11 28  1  0  0  0  0
 11 29  1  0  0  0  0
 13 15  2  0  0  0  0
 13 18  1  0  0  0  0
 15 17  1  0  0  0  0
 18 21  2  0  0  0  0
 18 31  1  0  0  0  0
 19 20  1  0  0  0  0
 19 32  1  0  0  0  0
 19 33  1  0  0  0  0
 20 22  2  0  0  0  0
 20 23  1  0  0  0  0
 21 34  1  0  0  0  0
 22 24  1  0  0  0  0
 22 37  1  0  0  0  0
 23 25  2  0  0  0  0
 23 38  1  0  0  0  0
 24 26  2  0  0  0  0
 24 39  1  0  0  0  0
 25 26  1  0  0  0  0
 25 40  1  0  0  0  0
 26 41  1  0  0  0  0
M  END
> <PUBCHEM_COMPOUND_CID>
504613
> <PUBCHEM_COMPOUND_CANONICALIZED>
1
> <PUBCHEM_CACTVS_COMPLEXITY>
591
> <PUBCHEM_CACTVS_HBOND_ACCEPTOR>
7
> <PUBCHEM_CACTVS_HBOND_DONOR>
2
> <PUBCHEM_CACTVS_ROTATABLE_BOND>
7
> <PUBCHEM_CACTVS_SUBSKEYS>
AAADccB7OABAAAAAAAAAAAAAAAAAASAAAAAwQAAAAAAAAEABwAAAHgQQAAAADCjl2AawyYLABAisAiXyXACDAIAkChBIiJ04bMkKJjqg9RiPMYQm1gE4qUeqwCAOAAAAAAAAAAAAAAAAAAAAAAAAAAAAAA==
> <PUBCHEM_IUPAC_OPENEYE_NAME>
benzyl N-[(1S)-3-amino-3-oxo-1-(4-oxothieno[3,2-d][1,3]oxazin-2-yl)propyl]carbamate
> <PUBCHEM_IUPAC_CAS_NAME>
N-[(1S)-3-amino-3-oxo-1-(4-oxo-2-thieno[3,2-d][1,3]oxazinyl)propyl]carbamic acid (phenylmethyl) ester
> <PUBCHEM_IUPAC_NAME_MARKUP>
benzyl <I>N</I>-[(1<I>S</I>)-3-amino-3-oxo-1-(4-oxothieno[3,2-d][1,3]oxazin-2-yl)propyl]carbamate
> <PUBCHEM_IUPAC_NAME>
benzyl N-[(1S)-3-amino-3-oxo-1-(4-oxothieno[3,2-d][1,3]oxazin-2-yl)propyl]carbamate
> <PUBCHEM_IUPAC_SYSTEMATIC_NAME>
(phenylmethyl) N-[(1S)-3-azanyl-3-oxidanylidene-1-(4-oxidanylidenethieno[3,2-d][1,3]oxazin-2-yl)propyl]carbamate
> <PUBCHEM_IUPAC_TRADITIONAL_NAME>
N-[(1S)-3-amino-3-keto-1-(4-ketothieno[3,2-d][1,3]oxazin-2-yl)propyl]carbamic acid benzyl ester
> <PUBCHEM_IUPAC_INCHI>
InChI=1S/C17H15N3O5S/c18-13(21)8-12(15-19-11-6-7-26-14(11)16(22)25-15)20-17(23)24-9-10-4-2-1-3-5-10/h1-7,12H,8-9H2,(H2,18,21)(H,20,23)/t12-/m0/s1
> <PUBCHEM_IUPAC_INCHIKEY>
VCEZQMIASDINEN-LBPRGKRZSA-N
> <PUBCHEM_XLOGP3_AA>
1.4
> <PUBCHEM_EXACT_MASS>
373.07324176
> <PUBCHEM_MOLECULAR_FORMULA>
C17H15N3O5S
> <PUBCHEM_MOLECULAR_WEIGHT>
373.4
> <PUBCHEM_OPENEYE_CAN_SMILES>
C1=CC=C(C=C1)COC(=O)NC(CC(=O)N)C2=NC3=C(C(=O)O2)SC=C3
> <PUBCHEM_OPENEYE_ISO_SMILES>
C1=CC=C(C=C1)COC(=O)N[C@@H](CC(=O)N)C2=NC3=C(C(=O)O2)SC=C3
> <PUBCHEM_CACTVS_TPSA>
148
> <PUBCHEM_MONOISOTOPIC_WEIGHT>
373.07324176
> <PUBCHEM_TOTAL_CHARGE>
0
> <PUBCHEM_HEAVY_ATOM_COUNT>
26
> <PUBCHEM_ATOM_DEF_STEREO_COUNT>
1
> <PUBCHEM_ATOM_UDEF_STEREO_COUNT>
0
> <PUBCHEM_BOND_DEF_STEREO_COUNT>
0
> <PUBCHEM_BOND_UDEF_STEREO_COUNT>
0
> <PUBCHEM_ISOTOPIC_ATOM_COUNT>
0
> <PUBCHEM_COMPONENT_COUNT>
1
> <PUBCHEM_CACTVS_TAUTO_COUNT>
-1
> <PUBCHEM_COORDINATE_TYPE>
1
5
255
> <PUBCHEM_BONDANNOTATIONS>
1  15  8
1  21  8
13  15  8
13  18  8
15  17  8
18  21  8
2  12  8
2  17  8
20  22  8
20  23  8
22  24  8
23  25  8
24  26  8
25  26  8
10  7  5
8  12  8
8  13  8
$$$$
