504626
  -OEChem-10302200282D
 44 47  0     1  0  0  0  0  0999 V2000
    4.6870   -0.7155    0.0000 O   0  0  0  0  0  0  0  0  0  0  0  0
    4.1111    1.8072    0.0000 O   0  0  0  0  0  0  0  0  0  0  0  0
    2.6166   -0.9905    0.0000 O   0  0  0  0  0  0  0  0  0  0  0  0
    9.1448   -2.1135    0.0000 O   0  0  0  0  0  0  0  0  0  0  0  0
    5.6005   -2.3088    0.0000 O   0  0  0  0  0  0  0  0  0  0  0  0
   13.7284   -1.3088    0.0000 O   0  0  0  0  0  0  0  0  0  0  0  0
    6.4666   -0.8088    0.0000 N   0  0  0  0  0  0  0  0  0  0  0  0
    7.3326   -2.3088    0.0000 N   0  0  0  0  0  0  0  0  0  0  0  0
    4.5179    0.8936    0.0000 C   0  0  1  0  0  0  0  0  0  0  0  0
    5.6005   -0.3088    0.0000 C   0  0  1  0  0  0  0  0  0  0  0  0
    5.4960    0.6857    0.0000 C   0  0  0  0  0  0  0  0  0  0  0  0
    4.0179    0.0276    0.0000 C   0  0  1  0  0  0  0  0  0  0  0  0
    3.0233   -0.0769    0.0000 C   0  0  0  0  0  0  0  0  0  0  0  0
    7.3326   -0.3088    0.0000 C   0  0  0  0  0  0  0  0  0  0  0  0
    6.4666   -1.8088    0.0000 C   0  0  0  0  0  0  0  0  0  0  0  0
    8.1986   -0.8088    0.0000 C   0  0  0  0  0  0  0  0  0  0  0  0
    8.1986   -1.8088    0.0000 C   0  0  0  0  0  0  0  0  0  0  0  0
    9.1448   -0.5041    0.0000 C   0  0  0  0  0  0  0  0  0  0  0  0
    9.7284   -1.3088    0.0000 C   0  0  0  0  0  0  0  0  0  0  0  0
   10.7284   -1.3088    0.0000 C   0  0  0  0  0  0  0  0  0  0  0  0
   11.2284   -2.1748    0.0000 C   0  0  0  0  0  0  0  0  0  0  0  0
   11.2284   -0.4428    0.0000 C   0  0  0  0  0  0  0  0  0  0  0  0
   12.2284   -2.1748    0.0000 C   0  0  0  0  0  0  0  0  0  0  0  0
   12.2284   -0.4428    0.0000 C   0  0  0  0  0  0  0  0  0  0  0  0
   12.7284   -1.3088    0.0000 C   0  0  0  0  0  0  0  0  0  0  0  0
   14.2284   -2.1748    0.0000 C   0  0  0  0  0  0  0  0  0  0  0  0
    4.9080    1.3755    0.0000 H   0  0  0  0  0  0  0  0  0  0  0  0
    5.5681   -0.9279    0.0000 H   0  0  0  0  0  0  0  0  0  0  0  0
    6.1160    0.6857    0.0000 H   0  0  0  0  0  0  0  0  0  0  0  0
    5.5608    1.3023    0.0000 H   0  0  0  0  0  0  0  0  0  0  0  0
    3.7957   -0.5512    0.0000 H   0  0  0  0  0  0  0  0  0  0  0  0
    3.0666    0.5416    0.0000 H   0  0  0  0  0  0  0  0  0  0  0  0
    2.4218    0.0731    0.0000 H   0  0  0  0  0  0  0  0  0  0  0  0
    7.3326    0.3112    0.0000 H   0  0  0  0  0  0  0  0  0  0  0  0
    4.4756    2.3088    0.0000 H   0  0  0  0  0  0  0  0  0  0  0  0
    2.0000   -1.0553    0.0000 H   0  0  0  0  0  0  0  0  0  0  0  0
    9.3374    0.0853    0.0000 H   0  0  0  0  0  0  0  0  0  0  0  0
   10.9184   -2.7118    0.0000 H   0  0  0  0  0  0  0  0  0  0  0  0
   10.9184    0.0942    0.0000 H   0  0  0  0  0  0  0  0  0  0  0  0
   12.5384   -2.7118    0.0000 H   0  0  0  0  0  0  0  0  0  0  0  0
   12.5384    0.0942    0.0000 H   0  0  0  0  0  0  0  0  0  0  0  0
   13.6915   -2.4848    0.0000 H   0  0  0  0  0  0  0  0  0  0  0  0
   14.5384   -2.7118    0.0000 H   0  0  0  0  0  0  0  0  0  0  0  0
   14.7654   -1.8648    0.0000 H   0  0  0  0  0  0  0  0  0  0  0  0
  1 10  1  0  0  0  0
  1 12  1  0  0  0  0
  9  2  1  1  0  0  0
  2 35  1  0  0  0  0
  3 13  1  0  0  0  0
  3 36  1  0  0  0  0
  4 17  1  0  0  0  0
  4 19  1  0  0  0  0
  5 15  2  0  0  0  0
  6 25  1  0  0  0  0
  6 26  1  0  0  0  0
 10  7  1  6  0  0  0
  7 14  1  0  0  0  0
  7 15  1  0  0  0  0
  8 15  1  0  0  0  0
  8 17  2  0  0  0  0
  9 11  1  0  0  0  0
  9 12  1  0  0  0  0
  9 27  1  0  0  0  0
 10 11  1  0  0  0  0
 10 28  1  0  0  0  0
 11 29  1  0  0  0  0
 11 30  1  0  0  0  0
 12 13  1  6  0  0  0
 12 31  1  0  0  0  0
 13 32  1  0  0  0  0
 13 33  1  0  0  0  0
 14 16  2  0  0  0  0
 14 34  1  0  0  0  0
 16 17  1  0  0  0  0
 16 18  1  0  0  0  0
 18 19  2  0  0  0  0
 18 37  1  0  0  0  0
 19 20  1  0  0  0  0
 20 21  2  0  0  0  0
 20 22  1  0  0  0  0
 21 23  1  0  0  0  0
 21 38  1  0  0  0  0
 22 24  2  0  0  0  0
 22 39  1  0  0  0  0
 23 25  2  0  0  0  0
 23 40  1  0  0  0  0
 24 25  1  0  0  0  0
 24 41  1  0  0  0  0
 26 42  1  0  0  0  0
 26 43  1  0  0  0  0
 26 44  1  0  0  0  0
M  END
> <PUBCHEM_COMPOUND_CID>
504626
> <PUBCHEM_COMPOUND_CANONICALIZED>
1
> <PUBCHEM_CACTVS_COMPLEXITY>
665
> <PUBCHEM_CACTVS_HBOND_ACCEPTOR>
6
> <PUBCHEM_CACTVS_HBOND_DONOR>
2
> <PUBCHEM_CACTVS_ROTATABLE_BOND>
4
> <PUBCHEM_CACTVS_SUBSKEYS>
AAADceB7OAAAAAAAAAAAAAAAAAAAASIAAAAwQAAAAAAAAEABAAAAHgAACAAADBThmAYzBoMABgCoAiBmVAACCAAgIAAIiAAuCJiNNiKEsRqOcCAnxhMLqAew8C4OIAAAAAAAAABAAAAAAAAAAAAAAAAAAA==
> <PUBCHEM_IUPAC_OPENEYE_NAME>
3-[(2R,4S,5R)-4-hydroxy-5-(hydroxymethyl)tetrahydrofuran-2-yl]-6-(4-methoxyphenyl)furo[2,3-d]pyrimidin-2-one
> <PUBCHEM_IUPAC_CAS_NAME>
3-[(2R,4S,5R)-4-hydroxy-5-(hydroxymethyl)-2-oxolanyl]-6-(4-methoxyphenyl)-2-furo[2,3-d]pyrimidinone
> <PUBCHEM_IUPAC_NAME_MARKUP>
3-[(2<I>R</I>,4<I>S</I>,5<I>R</I>)-4-hydroxy-5-(hydroxymethyl)oxolan-2-yl]-6-(4-methoxyphenyl)furo[2,3-d]pyrimidin-2-one
> <PUBCHEM_IUPAC_NAME>
3-[(2R,4S,5R)-4-hydroxy-5-(hydroxymethyl)oxolan-2-yl]-6-(4-methoxyphenyl)furo[2,3-d]pyrimidin-2-one
> <PUBCHEM_IUPAC_SYSTEMATIC_NAME>
3-[(2R,4S,5R)-5-(hydroxymethyl)-4-oxidanyl-oxolan-2-yl]-6-(4-methoxyphenyl)furo[2,3-d]pyrimidin-2-one
> <PUBCHEM_IUPAC_TRADITIONAL_NAME>
3-[(2R,4S,5R)-4-hydroxy-5-methylol-tetrahydrofuran-2-yl]-6-(4-methoxyphenyl)furo[2,3-d]pyrimidin-2-one
> <PUBCHEM_IUPAC_INCHI>
InChI=1S/C18H18N2O6/c1-24-12-4-2-10(3-5-12)14-6-11-8-20(18(23)19-17(11)26-14)16-7-13(22)15(9-21)25-16/h2-6,8,13,15-16,21-22H,7,9H2,1H3/t13-,15+,16+/m0/s1
> <PUBCHEM_IUPAC_INCHIKEY>
ULCCSZONNMALEU-NUEKZKHPSA-N
> <PUBCHEM_XLOGP3_AA>
1.1
> <PUBCHEM_EXACT_MASS>
358.11648630
> <PUBCHEM_MOLECULAR_FORMULA>
C18H18N2O6
> <PUBCHEM_MOLECULAR_WEIGHT>
358.3
> <PUBCHEM_OPENEYE_CAN_SMILES>
COC1=CC=C(C=C1)C2=CC3=CN(C(=O)N=C3O2)C4CC(C(O4)CO)O
> <PUBCHEM_OPENEYE_ISO_SMILES>
COC1=CC=C(C=C1)C2=CC3=CN(C(=O)N=C3O2)[C@H]4C[C@@H]([C@H](O4)CO)O
> <PUBCHEM_CACTVS_TPSA>
101
> <PUBCHEM_MONOISOTOPIC_WEIGHT>
358.11648630
> <PUBCHEM_TOTAL_CHARGE>
0
> <PUBCHEM_HEAVY_ATOM_COUNT>
26
> <PUBCHEM_ATOM_DEF_STEREO_COUNT>
3
> <PUBCHEM_ATOM_UDEF_STEREO_COUNT>
0
> <PUBCHEM_BOND_DEF_STEREO_COUNT>
0
> <PUBCHEM_BOND_UDEF_STEREO_COUNT>
0
> <PUBCHEM_ISOTOPIC_ATOM_COUNT>
0
> <PUBCHEM_COMPONENT_COUNT>
1
> <PUBCHEM_CACTVS_TAUTO_COUNT>
-1
> <PUBCHEM_COORDINATE_TYPE>
1
5
255
> <PUBCHEM_BONDANNOTATIONS>
12  13  6
14  16  8
16  17  8
16  18  8
18  19  8
9  2  5
20  21  8
20  22  8
21  23  8
22  24  8
23  25  8
24  25  8
4  17  8
4  19  8
10  7  6
7  14  8
7  15  8
8  15  8
8  17  8
$$$$
