504694
  -OEChem-10302200282D
115117  0     1  0  0  0  0  0999 V2000
    8.6582    4.1387    0.0000 S   0  0  0  0  0  0  0  0  0  0  0  0
   14.1035    0.6995    0.0000 O   0  0  0  0  0  0  0  0  0  0  0  0
   10.6603   -3.0323    0.0000 O   0  0  0  0  0  0  0  0  0  0  0  0
    9.7942    0.4677    0.0000 O   0  0  0  0  0  0  0  0  0  0  0  0
    9.9366    1.8223    0.0000 O   0  0  0  0  0  0  0  0  0  0  0  0
    7.1962   -4.0323    0.0000 O   0  0  0  0  0  0  0  0  0  0  0  0
    9.8172    5.4259    0.0000 O   0  0  0  0  0  0  0  0  0  0  0  0
   11.5114    5.0658    0.0000 O   0  0  0  0  0  0  0  0  0  0  0  0
    4.5981   -1.5323    0.0000 O   0  0  0  0  0  0  0  0  0  0  0  0
    4.5981    0.4677    0.0000 O   0  0  0  0  0  0  0  0  0  0  0  0
    6.3301    0.4677    0.0000 O   0  0  0  0  0  0  0  0  0  0  0  0
    2.8660   -5.5323    0.0000 O   0  0  0  0  0  0  0  0  0  0  0  0
    2.0000   -4.0323    0.0000 O   0  0  0  0  0  0  0  0  0  0  0  0
    3.7320   -1.0323    0.0000 O   0  0  0  0  0  0  0  0  0  0  0  0
   11.5263    0.4677    0.0000 N   0  0  0  0  0  0  0  0  0  0  0  0
    8.0622   -2.5323    0.0000 N   0  0  0  0  0  0  0  0  0  0  0  0
    9.7942   -1.5323    0.0000 N   0  0  0  0  0  0  0  0  0  0  0  0
   11.0956    3.1095    0.0000 N   0  0  0  0  0  0  0  0  0  0  0  0
    5.4641   -3.0323    0.0000 N   0  0  0  0  0  0  0  0  0  0  0  0
    2.8660   -2.5323    0.0000 N   0  0  0  0  0  0  0  0  0  0  0  0
    8.9282   -4.0323    0.0000 C   0  0  0  0  0  0  0  0  0  0  0  0
    8.0622   -4.5323    0.0000 C   0  0  0  0  0  0  0  0  0  0  0  0
    9.7942   -4.5323    0.0000 C   0  0  0  0  0  0  0  0  0  0  0  0
    8.9282   -3.0323    0.0000 C   0  0  1  0  0  0  0  0  0  0  0  0
    8.0622   -5.5323    0.0000 C   0  0  0  0  0  0  0  0  0  0  0  0
    9.7942   -5.5323    0.0000 C   0  0  0  0  0  0  0  0  0  0  0  0
    8.9282   -6.0323    0.0000 C   0  0  0  0  0  0  0  0  0  0  0  0
   11.6308    1.4622    0.0000 C   0  0  1  0  0  0  0  0  0  0  0  0
   13.1090    0.8041    0.0000 C   0  0  2  0  0  0  0  0  0  0  0  0
   12.6090    1.6701    0.0000 C   0  0  0  0  0  0  0  0  0  0  0  0
   12.4398    0.0609    0.0000 C   0  0  0  0  0  0  0  0  0  0  0  0
   10.6603   -1.0323    0.0000 C   0  0  2  0  0  0  0  0  0  0  0  0
    9.7942   -2.5323    0.0000 C   0  0  0  0  0  0  0  0  0  0  0  0
   10.6603   -0.0323    0.0000 C   0  0  0  0  0  0  0  0  0  0  0  0
   11.5263   -1.5323    0.0000 C   0  0  0  0  0  0  0  0  0  0  0  0
   10.8877    2.1313    0.0000 C   0  0  0  0  0  0  0  0  0  0  0  0
    7.1962   -3.0323    0.0000 C   0  0  0  0  0  0  0  0  0  0  0  0
   12.3923   -1.0323    0.0000 C   0  0  0  0  0  0  0  0  0  0  0  0
   11.5263   -2.5323    0.0000 C   0  0  0  0  0  0  0  0  0  0  0  0
    6.3301   -2.5323    0.0000 C   0  0  2  0  0  0  0  0  0  0  0  0
   14.6913    1.5086    0.0000 C   0  0  0  0  0  0  0  0  0  0  0  0
    6.3301   -1.5323    0.0000 C   0  0  0  0  0  0  0  0  0  0  0  0
   10.3524    3.7786    0.0000 C   0  0  3  0  0  0  0  0  0  0  0  0
   15.6858    1.4040    0.0000 C   0  0  0  0  0  0  0  0  0  0  0  0
    5.4641   -1.0323    0.0000 C   0  0  0  0  0  0  0  0  0  0  0  0
    9.4014    3.4696    0.0000 C   0  0  0  0  0  0  0  0  0  0  0  0
   10.5603    4.7568    0.0000 C   0  0  0  0  0  0  0  0  0  0  0  0
    4.5981   -2.5323    0.0000 C   0  0  0  0  0  0  0  0  0  0  0  0
   16.0925    0.4905    0.0000 C   0  0  0  0  0  0  0  0  0  0  0  0
   16.2736    2.2131    0.0000 C   0  0  0  0  0  0  0  0  0  0  0  0
    3.7320   -3.0323    0.0000 C   0  0  2  0  0  0  0  0  0  0  0  0
    5.4641   -0.0323    0.0000 C   0  0  0  0  0  0  0  0  0  0  0  0
   17.0870    0.3860    0.0000 C   0  0  0  0  0  0  0  0  0  0  0  0
   17.2681    2.1085    0.0000 C   0  0  0  0  0  0  0  0  0  0  0  0
    3.7320   -4.0323    0.0000 C   0  0  0  0  0  0  0  0  0  0  0  0
   17.6748    1.1950    0.0000 C   0  0  0  0  0  0  0  0  0  0  0  0
    2.8660   -4.5323    0.0000 C   0  0  0  0  0  0  0  0  0  0  0  0
    2.8660   -1.5323    0.0000 C   0  0  0  0  0  0  0  0  0  0  0  0
    2.0000   -1.0323    0.0000 C   0  0  0  0  0  0  0  0  0  0  0  0
    9.4651   -3.7223    0.0000 H   0  0  0  0  0  0  0  0  0  0  0  0
    7.8501   -3.9497    0.0000 H   0  0  0  0  0  0  0  0  0  0  0  0
    7.4516   -4.6400    0.0000 H   0  0  0  0  0  0  0  0  0  0  0  0
   10.4048   -4.6400    0.0000 H   0  0  0  0  0  0  0  0  0  0  0  0
   10.0063   -3.9497    0.0000 H   0  0  0  0  0  0  0  0  0  0  0  0
    8.9282   -2.4123    0.0000 H   0  0  0  0  0  0  0  0  0  0  0  0
    7.4516   -5.4247    0.0000 H   0  0  0  0  0  0  0  0  0  0  0  0
    7.8501   -6.1149    0.0000 H   0  0  0  0  0  0  0  0  0  0  0  0
   10.0063   -6.1149    0.0000 H   0  0  0  0  0  0  0  0  0  0  0  0
   10.4048   -5.4247    0.0000 H   0  0  0  0  0  0  0  0  0  0  0  0
    8.5297   -6.5073    0.0000 H   0  0  0  0  0  0  0  0  0  0  0  0
    9.3267   -6.5073    0.0000 H   0  0  0  0  0  0  0  0  0  0  0  0
   11.0520    1.2400    0.0000 H   0  0  0  0  0  0  0  0  0  0  0  0
   13.4466    1.3240    0.0000 H   0  0  0  0  0  0  0  0  0  0  0  0
   13.1754    1.9223    0.0000 H   0  0  0  0  0  0  0  0  0  0  0  0
   12.4174    2.2598    0.0000 H   0  0  0  0  0  0  0  0  0  0  0  0
   12.1298   -0.4760    0.0000 H   0  0  0  0  0  0  0  0  0  0  0  0
   12.9414   -0.3035    0.0000 H   0  0  0  0  0  0  0  0  0  0  0  0
   10.6603   -1.6523    0.0000 H   0  0  0  0  0  0  0  0  0  0  0  0
    8.0622   -1.9123    0.0000 H   0  0  0  0  0  0  0  0  0  0  0  0
    9.2573   -1.2223    0.0000 H   0  0  0  0  0  0  0  0  0  0  0  0
   12.0632   -1.8423    0.0000 H   0  0  0  0  0  0  0  0  0  0  0  0
   12.7023   -1.5693    0.0000 H   0  0  0  0  0  0  0  0  0  0  0  0
   12.9292   -0.7223    0.0000 H   0  0  0  0  0  0  0  0  0  0  0  0
   12.0823   -0.4954    0.0000 H   0  0  0  0  0  0  0  0  0  0  0  0
   10.9063   -2.5323    0.0000 H   0  0  0  0  0  0  0  0  0  0  0  0
   11.5263   -3.1523    0.0000 H   0  0  0  0  0  0  0  0  0  0  0  0
   12.1463   -2.5323    0.0000 H   0  0  0  0  0  0  0  0  0  0  0  0
    5.7932   -2.2223    0.0000 H   0  0  0  0  0  0  0  0  0  0  0  0
   11.6852    3.3011    0.0000 H   0  0  0  0  0  0  0  0  0  0  0  0
   14.8622    2.1046    0.0000 H   0  0  0  0  0  0  0  0  0  0  0  0
   14.1340    1.7804    0.0000 H   0  0  0  0  0  0  0  0  0  0  0  0
   10.9421    3.9702    0.0000 H   0  0  0  0  0  0  0  0  0  0  0  0
    6.9407   -1.6400    0.0000 H   0  0  0  0  0  0  0  0  0  0  0  0
    6.5422   -0.9497    0.0000 H   0  0  0  0  0  0  0  0  0  0  0  0
    5.4641   -3.6523    0.0000 H   0  0  0  0  0  0  0  0  0  0  0  0
    4.8535   -0.9247    0.0000 H   0  0  0  0  0  0  0  0  0  0  0  0
    5.2520   -1.6149    0.0000 H   0  0  0  0  0  0  0  0  0  0  0  0
    8.9128    3.0879    0.0000 H   0  0  0  0  0  0  0  0  0  0  0  0
    9.6924    2.9222    0.0000 H   0  0  0  0  0  0  0  0  0  0  0  0
   15.7281   -0.0111    0.0000 H   0  0  0  0  0  0  0  0  0  0  0  0
   16.0214    2.7795    0.0000 H   0  0  0  0  0  0  0  0  0  0  0  0
    3.7320   -2.4123    0.0000 H   0  0  0  0  0  0  0  0  0  0  0  0
   17.3392   -0.1804    0.0000 H   0  0  0  0  0  0  0  0  0  0  0  0
   17.6325    2.6101    0.0000 H   0  0  0  0  0  0  0  0  0  0  0  0
    8.0686    3.9471    0.0000 H   0  0  0  0  0  0  0  0  0  0  0  0
    3.9441   -4.6149    0.0000 H   0  0  0  0  0  0  0  0  0  0  0  0
    4.3426   -3.9247    0.0000 H   0  0  0  0  0  0  0  0  0  0  0  0
   18.2914    1.1302    0.0000 H   0  0  0  0  0  0  0  0  0  0  0  0
    9.9461    6.0323    0.0000 H   0  0  0  0  0  0  0  0  0  0  0  0
    2.3291   -2.8423    0.0000 H   0  0  0  0  0  0  0  0  0  0  0  0
    4.5981    1.0877    0.0000 H   0  0  0  0  0  0  0  0  0  0  0  0
    2.3100   -0.4954    0.0000 H   0  0  0  0  0  0  0  0  0  0  0  0
    1.4631   -0.7223    0.0000 H   0  0  0  0  0  0  0  0  0  0  0  0
    1.6900   -1.5693    0.0000 H   0  0  0  0  0  0  0  0  0  0  0  0
    2.3291   -5.8423    0.0000 H   0  0  0  0  0  0  0  0  0  0  0  0
  1 46  1  0  0  0  0
  1105  1  0  0  0  0
 29  2  1  1  0  0  0
  2 41  1  0  0  0  0
  3 33  2  0  0  0  0
  4 34  2  0  0  0  0
  5 36  2  0  0  0  0
  6 37  2  0  0  0  0
  7 47  1  0  0  0  0
  7109  1  0  0  0  0
  8 47  2  0  0  0  0
  9 48  2  0  0  0  0
 10 52  1  0  0  0  0
 10111  1  0  0  0  0
 11 52  2  0  0  0  0
 12 57  1  0  0  0  0
 12115  1  0  0  0  0
 13 57  2  0  0  0  0
 14 58  2  0  0  0  0
 15 28  1  0  0  0  0
 15 31  1  0  0  0  0
 15 34  1  0  0  0  0
 24 16  1  6  0  0  0
 16 37  1  0  0  0  0
 16 79  1  0  0  0  0
 32 17  1  6  0  0  0
 17 33  1  0  0  0  0
 17 80  1  0  0  0  0
 18 36  1  0  0  0  0
 18 43  1  0  0  0  0
 18 89  1  0  0  0  0
 40 19  1  1  0  0  0
 19 48  1  0  0  0  0
 19 95  1  0  0  0  0
 51 20  1  6  0  0  0
 20 58  1  0  0  0  0
 20110  1  0  0  0  0
 21 22  1  0  0  0  0
 21 23  1  0  0  0  0
 21 24  1  0  0  0  0
 21 60  1  0  0  0  0
 22 25  1  0  0  0  0
 22 61  1  0  0  0  0
 22 62  1  0  0  0  0
 23 26  1  0  0  0  0
 23 63  1  0  0  0  0
 23 64  1  0  0  0  0
 24 33  1  0  0  0  0
 24 65  1  0  0  0  0
 25 27  1  0  0  0  0
 25 66  1  0  0  0  0
 25 67  1  0  0  0  0
 26 27  1  0  0  0  0
 26 68  1  0  0  0  0
 26 69  1  0  0  0  0
 27 70  1  0  0  0  0
 27 71  1  0  0  0  0
 28 30  1  0  0  0  0
 28 36  1  6  0  0  0
 28 72  1  0  0  0  0
 29 30  1  0  0  0  0
 29 31  1  0  0  0  0
 29 73  1  0  0  0  0
 30 74  1  0  0  0  0
 30 75  1  0  0  0  0
 31 76  1  0  0  0  0
 31 77  1  0  0  0  0
 32 34  1  0  0  0  0
 32 35  1  0  0  0  0
 32 78  1  0  0  0  0
 35 38  1  0  0  0  0
 35 39  1  0  0  0  0
 35 81  1  0  0  0  0
 37 40  1  0  0  0  0
 38 82  1  0  0  0  0
 38 83  1  0  0  0  0
 38 84  1  0  0  0  0
 39 85  1  0  0  0  0
 39 86  1  0  0  0  0
 39 87  1  0  0  0  0
 40 42  1  0  0  0  0
 40 88  1  0  0  0  0
 41 44  1  0  0  0  0
 41 90  1  0  0  0  0
 41 91  1  0  0  0  0
 42 45  1  0  0  0  0
 42 93  1  0  0  0  0
 42 94  1  0  0  0  0
 43 46  1  0  0  0  0
 43 47  1  0  0  0  0
 43 92  1  0  0  0  0
 44 49  2  0  0  0  0
 44 50  1  0  0  0  0
 45 52  1  0  0  0  0
 45 96  1  0  0  0  0
 45 97  1  0  0  0  0
 46 98  1  0  0  0  0
 46 99  1  0  0  0  0
 48 51  1  0  0  0  0
 49 53  1  0  0  0  0
 49100  1  0  0  0  0
 50 54  2  0  0  0  0
 50101  1  0  0  0  0
 51 55  1  0  0  0  0
 51102  1  0  0  0  0
 53 56  2  0  0  0  0
 53103  1  0  0  0  0
 54 56  1  0  0  0  0
 54104  1  0  0  0  0
 55 57  1  0  0  0  0
 55106  1  0  0  0  0
 55107  1  0  0  0  0
 56108  1  0  0  0  0
 58 59  1  0  0  0  0
 59112  1  0  0  0  0
 59113  1  0  0  0  0
 59114  1  0  0  0  0
M  END
> <PUBCHEM_COMPOUND_CID>
504694
> <PUBCHEM_COMPOUND_CANONICALIZED>
1
> <PUBCHEM_CACTVS_COMPLEXITY>
1520
> <PUBCHEM_CACTVS_HBOND_ACCEPTOR>
14
> <PUBCHEM_CACTVS_HBOND_DONOR>
9
> <PUBCHEM_CACTVS_ROTATABLE_BOND>
22
> <PUBCHEM_CACTVS_SUBSKEYS>
AAADcfB/vABAAAAAAAAAAAAAAAAAAWAAAAAwYAAAAAAAAAABAAAAHgQQCAAADTzl2AayCIPABgSIAiHSGAACAAAgAAAIiIGICIgKZjqAsTiXcAAm1gGYqAe/36KOAAAAAAAAAAAAAAAAAAAAAAAAAAAAAA==
> <PUBCHEM_IUPAC_OPENEYE_NAME>
(4S)-4-[[(2S)-2-acetamido-3-carboxy-propanoyl]amino]-5-[[(1S)-2-[[(1S)-1-[(2S,4R)-4-benzyloxy-2-[(1-carboxy-2-sulfanyl-ethyl)carbamoyl]pyrrolidine-1-carbonyl]-2-methyl-propyl]amino]-1-cyclohexyl-2-oxo-ethyl]amino]-5-oxo-pentanoic acid
> <PUBCHEM_IUPAC_CAS_NAME>
(4S)-4-[[(2S)-2-acetamido-3-carboxy-1-oxopropyl]amino]-5-[[(1S)-2-[[(2S)-1-[(2S,4R)-2-[[(1-carboxy-2-mercaptoethyl)amino]-oxomethyl]-4-phenylmethoxy-1-pyrrolidinyl]-3-methyl-1-oxobutan-2-yl]amino]-1-cyclohexyl-2-oxoethyl]amino]-5-oxopentanoic acid
> <PUBCHEM_IUPAC_NAME_MARKUP>
(4<I>S</I>)-4-[[(2<I>S</I>)-2-acetamido-3-carboxypropanoyl]amino]-5-[[(1<I>S</I>)-2-[[(2<I>S</I>)-1-[(2<I>S</I>,4<I>R</I>)-2-[(1-carboxy-2-sulfanylethyl)carbamoyl]-4-phenylmethoxypyrrolidin-1-yl]-3-methyl-1-oxobutan-2-yl]amino]-1-cyclohexyl-2-oxoethyl]amino]-5-oxopentanoic acid
> <PUBCHEM_IUPAC_NAME>
(4S)-4-[[(2S)-2-acetamido-3-carboxypropanoyl]amino]-5-[[(1S)-2-[[(2S)-1-[(2S,4R)-2-[(1-carboxy-2-sulfanylethyl)carbamoyl]-4-phenylmethoxypyrrolidin-1-yl]-3-methyl-1-oxobutan-2-yl]amino]-1-cyclohexyl-2-oxoethyl]amino]-5-oxopentanoic acid
> <PUBCHEM_IUPAC_SYSTEMATIC_NAME>
(4S)-4-[[(2S)-2-acetamido-4-oxidanyl-4-oxidanylidene-butanoyl]amino]-5-[[(1S)-1-cyclohexyl-2-[[(2S)-3-methyl-1-oxidanylidene-1-[(2S,4R)-2-[(1-oxidanyl-1-oxidanylidene-3-sulfanyl-propan-2-yl)carbamoyl]-4-phenylmethoxy-pyrrolidin-1-yl]butan-2-yl]amino]-2-oxidanylidene-ethyl]amino]-5-oxidanylidene-pentanoic acid
> <PUBCHEM_IUPAC_TRADITIONAL_NAME>
(4S)-4-[[(2S)-2-acetamido-3-carboxy-propanoyl]amino]-5-[[(1S)-2-[[(1S)-1-[(2S,4R)-4-benzoxy-2-[(1-carboxy-2-mercapto-ethyl)carbamoyl]pyrrolidine-1-carbonyl]-2-methyl-propyl]amino]-1-cyclohexyl-2-keto-ethyl]amino]-5-keto-valeric acid
> <PUBCHEM_IUPAC_INCHI>
InChI=1S/C39H56N6O13S/c1-21(2)32(38(55)45-18-25(58-19-23-10-6-4-7-11-23)16-29(45)36(53)42-28(20-59)39(56)57)43-37(54)33(24-12-8-5-9-13-24)44-34(51)26(14-15-30(47)48)41-35(52)27(17-31(49)50)40-22(3)46/h4,6-7,10-11,21,24-29,32-33,59H,5,8-9,12-20H2,1-3H3,(H,40,46)(H,41,52)(H,42,53)(H,43,54)(H,44,51)(H,47,48)(H,49,50)(H,56,57)/t25-,26+,27+,28?,29+,32+,33+/m1/s1
> <PUBCHEM_IUPAC_INCHIKEY>
ITLDFOUMOSAIRV-OMOOISHTSA-N
> <PUBCHEM_XLOGP3_AA>
1.1
> <PUBCHEM_EXACT_MASS>
848.36260704
> <PUBCHEM_MOLECULAR_FORMULA>
C39H56N6O13S
> <PUBCHEM_MOLECULAR_WEIGHT>
849.0
> <PUBCHEM_OPENEYE_CAN_SMILES>
CC(C)C(C(=O)N1CC(CC1C(=O)NC(CS)C(=O)O)OCC2=CC=CC=C2)NC(=O)C(C3CCCCC3)NC(=O)C(CCC(=O)O)NC(=O)C(CC(=O)O)NC(=O)C
> <PUBCHEM_OPENEYE_ISO_SMILES>
CC(C)[C@@H](C(=O)N1C[C@@H](C[C@H]1C(=O)NC(CS)C(=O)O)OCC2=CC=CC=C2)NC(=O)[C@H](C3CCCCC3)NC(=O)[C@H](CCC(=O)O)NC(=O)[C@H](CC(=O)O)NC(=O)C
> <PUBCHEM_CACTVS_TPSA>
288
> <PUBCHEM_MONOISOTOPIC_WEIGHT>
848.36260704
> <PUBCHEM_TOTAL_CHARGE>
0
> <PUBCHEM_HEAVY_ATOM_COUNT>
59
> <PUBCHEM_ATOM_DEF_STEREO_COUNT>
6
> <PUBCHEM_ATOM_UDEF_STEREO_COUNT>
1
> <PUBCHEM_BOND_DEF_STEREO_COUNT>
0
> <PUBCHEM_BOND_UDEF_STEREO_COUNT>
0
> <PUBCHEM_ISOTOPIC_ATOM_COUNT>
0
> <PUBCHEM_COMPONENT_COUNT>
1
> <PUBCHEM_CACTVS_TAUTO_COUNT>
-1
> <PUBCHEM_COORDINATE_TYPE>
1
5
255
> <PUBCHEM_BONDANNOTATIONS>
24  16  6
32  17  6
40  19  5
29  2  5
51  20  6
28  36  6
43  46  3
44  49  8
44  50  8
49  53  8
50  54  8
53  56  8
54  56  8
$$$$
