504689
  -OEChem-10302200282D
 49 51  0     1  0  0  0  0  0999 V2000
    2.0000   -1.5000    0.0000 Cl  0  0  0  0  0  0  0  0  0  0  0  0
    3.7320   -4.5000    0.0000 Cl  0  0  0  0  0  0  0  0  0  0  0  0
    3.7320    2.5000    0.0000 O   0  0  0  0  0  0  0  0  0  0  0  0
    2.8660    0.0000    0.0000 O   0  0  0  0  0  0  0  0  0  0  0  0
    2.8660    1.0000    0.0000 O   0  0  0  0  0  0  0  0  0  0  0  0
    4.5981    0.0000    0.0000 N   0  0  0  0  0  0  0  0  0  0  0  0
    9.7942    2.0000    0.0000 N   0  0  0  0  0  0  0  0  0  0  0  0
    4.5981    1.0000    0.0000 C   0  0  1  0  0  0  0  0  0  0  0  0
    5.4641    1.5000    0.0000 C   0  0  0  0  0  0  0  0  0  0  0  0
    5.4641   -0.5000    0.0000 C   0  0  0  0  0  0  0  0  0  0  0  0
    5.4641    2.5000    0.0000 C   0  0  0  0  0  0  0  0  0  0  0  0
    3.7320   -0.5000    0.0000 C   0  0  0  0  0  0  0  0  0  0  0  0
    6.3301    0.0000    0.0000 C   0  0  0  0  0  0  0  0  0  0  0  0
    3.7320    1.5000    0.0000 C   0  0  0  0  0  0  0  0  0  0  0  0
    3.7320   -1.5000    0.0000 C   0  0  0  0  0  0  0  0  0  0  0  0
    6.3301    3.0000    0.0000 C   0  0  0  0  0  0  0  0  0  0  0  0
    4.5981    3.0000    0.0000 C   0  0  0  0  0  0  0  0  0  0  0  0
    7.1962   -0.5000    0.0000 C   0  0  0  0  0  0  0  0  0  0  0  0
    6.3301    1.0000    0.0000 C   0  0  0  0  0  0  0  0  0  0  0  0
    6.3301    4.0000    0.0000 C   0  0  0  0  0  0  0  0  0  0  0  0
    4.5981    4.0000    0.0000 C   0  0  0  0  0  0  0  0  0  0  0  0
    2.8660   -2.0000    0.0000 C   0  0  0  0  0  0  0  0  0  0  0  0
    4.5981   -2.0000    0.0000 C   0  0  0  0  0  0  0  0  0  0  0  0
    8.0622   -0.0000    0.0000 C   0  0  0  0  0  0  0  0  0  0  0  0
    7.1962    1.5000    0.0000 C   0  0  0  0  0  0  0  0  0  0  0  0
    5.4641    4.5000    0.0000 C   0  0  0  0  0  0  0  0  0  0  0  0
    8.0622    1.0000    0.0000 C   0  0  0  0  0  0  0  0  0  0  0  0
    2.8660   -3.0000    0.0000 C   0  0  0  0  0  0  0  0  0  0  0  0
    4.5981   -3.0000    0.0000 C   0  0  0  0  0  0  0  0  0  0  0  0
    3.7320   -3.5000    0.0000 C   0  0  0  0  0  0  0  0  0  0  0  0
    8.9282    1.5000    0.0000 C   0  0  0  0  0  0  0  0  0  0  0  0
    5.1350    0.6900    0.0000 H   0  0  0  0  0  0  0  0  0  0  0  0
    5.6762    0.9174    0.0000 H   0  0  0  0  0  0  0  0  0  0  0  0
    6.0747    1.6077    0.0000 H   0  0  0  0  0  0  0  0  0  0  0  0
    5.0656   -0.9749    0.0000 H   0  0  0  0  0  0  0  0  0  0  0  0
    5.8626   -0.9749    0.0000 H   0  0  0  0  0  0  0  0  0  0  0  0
    6.8671    2.6900    0.0000 H   0  0  0  0  0  0  0  0  0  0  0  0
    4.0611    2.6900    0.0000 H   0  0  0  0  0  0  0  0  0  0  0  0
    7.1962   -1.1200    0.0000 H   0  0  0  0  0  0  0  0  0  0  0  0
    5.7932    1.3100    0.0000 H   0  0  0  0  0  0  0  0  0  0  0  0
    6.8671    4.3100    0.0000 H   0  0  0  0  0  0  0  0  0  0  0  0
    4.0611    4.3100    0.0000 H   0  0  0  0  0  0  0  0  0  0  0  0
    5.1350   -1.6900    0.0000 H   0  0  0  0  0  0  0  0  0  0  0  0
    8.5991   -0.3100    0.0000 H   0  0  0  0  0  0  0  0  0  0  0  0
    7.1962    2.1200    0.0000 H   0  0  0  0  0  0  0  0  0  0  0  0
    5.4641    5.1200    0.0000 H   0  0  0  0  0  0  0  0  0  0  0  0
    3.1951    2.8100    0.0000 H   0  0  0  0  0  0  0  0  0  0  0  0
    2.3291   -3.3100    0.0000 H   0  0  0  0  0  0  0  0  0  0  0  0
    5.1350   -3.3100    0.0000 H   0  0  0  0  0  0  0  0  0  0  0  0
  1 22  1  0  0  0  0
  2 30  1  0  0  0  0
  3 14  1  0  0  0  0
  3 47  1  0  0  0  0
  4 12  2  0  0  0  0
  5 14  2  0  0  0  0
  8  6  1  6  0  0  0
  6 10  1  0  0  0  0
  6 12  1  0  0  0  0
  7 31  3  0  0  0  0
  8  9  1  0  0  0  0
  8 14  1  0  0  0  0
  8 32  1  0  0  0  0
  9 11  1  0  0  0  0
  9 33  1  0  0  0  0
  9 34  1  0  0  0  0
 10 13  1  0  0  0  0
 10 35  1  0  0  0  0
 10 36  1  0  0  0  0
 11 16  2  0  0  0  0
 11 17  1  0  0  0  0
 12 15  1  0  0  0  0
 13 18  2  0  0  0  0
 13 19  1  0  0  0  0
 15 22  2  0  0  0  0
 15 23  1  0  0  0  0
 16 20  1  0  0  0  0
 16 37  1  0  0  0  0
 17 21  2  0  0  0  0
 17 38  1  0  0  0  0
 18 24  1  0  0  0  0
 18 39  1  0  0  0  0
 19 25  2  0  0  0  0
 19 40  1  0  0  0  0
 20 26  2  0  0  0  0
 20 41  1  0  0  0  0
 21 26  1  0  0  0  0
 21 42  1  0  0  0  0
 22 28  1  0  0  0  0
 23 29  2  0  0  0  0
 23 43  1  0  0  0  0
 24 27  2  0  0  0  0
 24 44  1  0  0  0  0
 25 27  1  0  0  0  0
 25 45  1  0  0  0  0
 26 46  1  0  0  0  0
 27 31  1  0  0  0  0
 28 30  2  0  0  0  0
 28 48  1  0  0  0  0
 29 30  1  0  0  0  0
 29 49  1  0  0  0  0
M  END
> <PUBCHEM_COMPOUND_CID>
504689
> <PUBCHEM_COMPOUND_CANONICALIZED>
1
> <PUBCHEM_CACTVS_COMPLEXITY>
665
> <PUBCHEM_CACTVS_HBOND_ACCEPTOR>
4
> <PUBCHEM_CACTVS_HBOND_DONOR>
1
> <PUBCHEM_CACTVS_ROTATABLE_BOND>
7
> <PUBCHEM_CACTVS_SUBSKEYS>
AAADceB7MAAGAAAAAAAAAAAAAAAAAAAAAAAwYMAAAAAAAAABUAAAHgIACAAADCrBmCQwCIMAAgCYBiHSGACiAAAkBQAIiAGIBsgKoDKBlzGEYQhkhgCYjY+YyKCORAAAAACBAACIAAAAAQIAAAAAAAAAAA==
> <PUBCHEM_IUPAC_OPENEYE_NAME>
(2S)-2-[(4-cyanophenyl)methyl-(2,4-dichlorobenzoyl)amino]-3-phenyl-propanoic acid
> <PUBCHEM_IUPAC_CAS_NAME>
(2S)-2-[(4-cyanophenyl)methyl-[(2,4-dichlorophenyl)-oxomethyl]amino]-3-phenylpropanoic acid
> <PUBCHEM_IUPAC_NAME_MARKUP>
(2<I>S</I>)-2-[(4-cyanophenyl)methyl-(2,4-dichlorobenzoyl)amino]-3-phenylpropanoic acid
> <PUBCHEM_IUPAC_NAME>
(2S)-2-[(4-cyanophenyl)methyl-(2,4-dichlorobenzoyl)amino]-3-phenylpropanoic acid
> <PUBCHEM_IUPAC_SYSTEMATIC_NAME>
(2S)-2-[(4-cyanophenyl)methyl-(2,4-dichlorophenyl)carbonyl-amino]-3-phenyl-propanoic acid
> <PUBCHEM_IUPAC_TRADITIONAL_NAME>
(2S)-2-[(4-cyanobenzyl)-(2,4-dichlorobenzoyl)amino]-3-phenyl-propionic acid
> <PUBCHEM_IUPAC_INCHI>
InChI=1S/C24H18Cl2N2O3/c25-19-10-11-20(21(26)13-19)23(29)28(15-18-8-6-17(14-27)7-9-18)22(24(30)31)12-16-4-2-1-3-5-16/h1-11,13,22H,12,15H2,(H,30,31)/t22-/m0/s1
> <PUBCHEM_IUPAC_INCHIKEY>
KTMNMQVRGVRWAC-QFIPXVFZSA-N
> <PUBCHEM_XLOGP3_AA>
5.4
> <PUBCHEM_EXACT_MASS>
452.0694478
> <PUBCHEM_MOLECULAR_FORMULA>
C24H18Cl2N2O3
> <PUBCHEM_MOLECULAR_WEIGHT>
453.3
> <PUBCHEM_OPENEYE_CAN_SMILES>
C1=CC=C(C=C1)CC(C(=O)O)N(CC2=CC=C(C=C2)C#N)C(=O)C3=C(C=C(C=C3)Cl)Cl
> <PUBCHEM_OPENEYE_ISO_SMILES>
C1=CC=C(C=C1)C[C@@H](C(=O)O)N(CC2=CC=C(C=C2)C#N)C(=O)C3=C(C=C(C=C3)Cl)Cl
> <PUBCHEM_CACTVS_TPSA>
81.4
> <PUBCHEM_MONOISOTOPIC_WEIGHT>
452.0694478
> <PUBCHEM_TOTAL_CHARGE>
0
> <PUBCHEM_HEAVY_ATOM_COUNT>
31
> <PUBCHEM_ATOM_DEF_STEREO_COUNT>
1
> <PUBCHEM_ATOM_UDEF_STEREO_COUNT>
0
> <PUBCHEM_BOND_DEF_STEREO_COUNT>
0
> <PUBCHEM_BOND_UDEF_STEREO_COUNT>
0
> <PUBCHEM_ISOTOPIC_ATOM_COUNT>
0
> <PUBCHEM_COMPONENT_COUNT>
1
> <PUBCHEM_CACTVS_TAUTO_COUNT>
-1
> <PUBCHEM_COORDINATE_TYPE>
1
5
255
> <PUBCHEM_BONDANNOTATIONS>
11  16  8
11  17  8
13  18  8
13  19  8
15  22  8
15  23  8
16  20  8
17  21  8
18  24  8
19  25  8
20  26  8
21  26  8
22  28  8
23  29  8
24  27  8
25  27  8
28  30  8
29  30  8
8  6  6
$$$$
