504631
  -OEChem-10302200282D
 62 65  0     1  0  0  0  0  0999 V2000
    4.6870    0.5165    0.0000 O   0  0  0  0  0  0  0  0  0  0  0  0
    4.1111    3.0392    0.0000 O   0  0  0  0  0  0  0  0  0  0  0  0
    2.6166    0.2416    0.0000 O   0  0  0  0  0  0  0  0  0  0  0  0
    9.1448   -0.8815    0.0000 O   0  0  0  0  0  0  0  0  0  0  0  0
    5.6005   -1.0767    0.0000 O   0  0  0  0  0  0  0  0  0  0  0  0
   13.7284   -0.0767    0.0000 O   0  0  0  0  0  0  0  0  0  0  0  0
    6.4666    0.4233    0.0000 N   0  0  0  0  0  0  0  0  0  0  0  0
    7.3326   -1.0767    0.0000 N   0  0  0  0  0  0  0  0  0  0  0  0
    4.5179    2.1257    0.0000 C   0  0  1  0  0  0  0  0  0  0  0  0
    5.4960    1.9178    0.0000 C   0  0  0  0  0  0  0  0  0  0  0  0
    5.6005    0.9233    0.0000 C   0  0  1  0  0  0  0  0  0  0  0  0
    4.0179    1.2597    0.0000 C   0  0  1  0  0  0  0  0  0  0  0  0
    3.0233    1.1551    0.0000 C   0  0  0  0  0  0  0  0  0  0  0  0
    7.3326    0.9233    0.0000 C   0  0  0  0  0  0  0  0  0  0  0  0
    6.4666   -0.5767    0.0000 C   0  0  0  0  0  0  0  0  0  0  0  0
    8.1986    0.4233    0.0000 C   0  0  0  0  0  0  0  0  0  0  0  0
    8.1986   -0.5767    0.0000 C   0  0  0  0  0  0  0  0  0  0  0  0
    9.1448    0.7280    0.0000 C   0  0  0  0  0  0  0  0  0  0  0  0
    9.7284   -0.0767    0.0000 C   0  0  0  0  0  0  0  0  0  0  0  0
   16.7284   -1.8088    0.0000 C   0  0  0  0  0  0  0  0  0  0  0  0
   15.7284   -1.8088    0.0000 C   0  0  0  0  0  0  0  0  0  0  0  0
   17.2284   -2.6748    0.0000 C   0  0  0  0  0  0  0  0  0  0  0  0
   15.2284   -0.9428    0.0000 C   0  0  0  0  0  0  0  0  0  0  0  0
   10.7284   -0.0767    0.0000 C   0  0  0  0  0  0  0  0  0  0  0  0
   18.2284   -2.6748    0.0000 C   0  0  0  0  0  0  0  0  0  0  0  0
   14.2284   -0.9428    0.0000 C   0  0  0  0  0  0  0  0  0  0  0  0
   11.2284   -0.9428    0.0000 C   0  0  0  0  0  0  0  0  0  0  0  0
   11.2284    0.7893    0.0000 C   0  0  0  0  0  0  0  0  0  0  0  0
   12.7284   -0.0767    0.0000 C   0  0  0  0  0  0  0  0  0  0  0  0
   18.7284   -3.5408    0.0000 C   0  0  0  0  0  0  0  0  0  0  0  0
   12.2284   -0.9428    0.0000 C   0  0  0  0  0  0  0  0  0  0  0  0
   12.2284    0.7893    0.0000 C   0  0  0  0  0  0  0  0  0  0  0  0
    4.9080    2.6075    0.0000 H   0  0  0  0  0  0  0  0  0  0  0  0
    5.5681    0.3041    0.0000 H   0  0  0  0  0  0  0  0  0  0  0  0
    6.1160    1.9178    0.0000 H   0  0  0  0  0  0  0  0  0  0  0  0
    5.5608    2.5344    0.0000 H   0  0  0  0  0  0  0  0  0  0  0  0
    3.7957    0.6809    0.0000 H   0  0  0  0  0  0  0  0  0  0  0  0
    3.0666    1.7736    0.0000 H   0  0  0  0  0  0  0  0  0  0  0  0
    2.4218    1.3051    0.0000 H   0  0  0  0  0  0  0  0  0  0  0  0
    4.4756    3.5408    0.0000 H   0  0  0  0  0  0  0  0  0  0  0  0
    7.3326    1.5433    0.0000 H   0  0  0  0  0  0  0  0  0  0  0  0
    2.0000    0.1768    0.0000 H   0  0  0  0  0  0  0  0  0  0  0  0
    9.3374    1.3173    0.0000 H   0  0  0  0  0  0  0  0  0  0  0  0
   17.3111   -1.5967    0.0000 H   0  0  0  0  0  0  0  0  0  0  0  0
   16.6208   -1.1982    0.0000 H   0  0  0  0  0  0  0  0  0  0  0  0
   15.1458   -2.0208    0.0000 H   0  0  0  0  0  0  0  0  0  0  0  0
   15.8361   -2.4194    0.0000 H   0  0  0  0  0  0  0  0  0  0  0  0
   16.6458   -2.8869    0.0000 H   0  0  0  0  0  0  0  0  0  0  0  0
   17.3361   -3.2854    0.0000 H   0  0  0  0  0  0  0  0  0  0  0  0
   15.8111   -0.7307    0.0000 H   0  0  0  0  0  0  0  0  0  0  0  0
   15.1208   -0.3322    0.0000 H   0  0  0  0  0  0  0  0  0  0  0  0
   18.8111   -2.4628    0.0000 H   0  0  0  0  0  0  0  0  0  0  0  0
   18.1208   -2.0642    0.0000 H   0  0  0  0  0  0  0  0  0  0  0  0
   13.6458   -1.1548    0.0000 H   0  0  0  0  0  0  0  0  0  0  0  0
   14.3361   -1.5533    0.0000 H   0  0  0  0  0  0  0  0  0  0  0  0
   10.9184   -1.4797    0.0000 H   0  0  0  0  0  0  0  0  0  0  0  0
   10.9184    1.3262    0.0000 H   0  0  0  0  0  0  0  0  0  0  0  0
   18.1915   -3.8508    0.0000 H   0  0  0  0  0  0  0  0  0  0  0  0
   19.0384   -4.0778    0.0000 H   0  0  0  0  0  0  0  0  0  0  0  0
   19.2654   -3.2308    0.0000 H   0  0  0  0  0  0  0  0  0  0  0  0
   12.5384   -1.4797    0.0000 H   0  0  0  0  0  0  0  0  0  0  0  0
   12.5384    1.3262    0.0000 H   0  0  0  0  0  0  0  0  0  0  0  0
  1 11  1  0  0  0  0
  1 12  1  0  0  0  0
  9  2  1  1  0  0  0
  2 40  1  0  0  0  0
  3 13  1  0  0  0  0
  3 42  1  0  0  0  0
  4 17  1  0  0  0  0
  4 19  1  0  0  0  0
  5 15  2  0  0  0  0
  6 26  1  0  0  0  0
  6 29  1  0  0  0  0
 11  7  1  6  0  0  0
  7 14  1  0  0  0  0
  7 15  1  0  0  0  0
  8 15  1  0  0  0  0
  8 17  2  0  0  0  0
  9 10  1  0  0  0  0
  9 12  1  0  0  0  0
  9 33  1  0  0  0  0
 10 11  1  0  0  0  0
 10 35  1  0  0  0  0
 10 36  1  0  0  0  0
 11 34  1  0  0  0  0
 12 13  1  6  0  0  0
 12 37  1  0  0  0  0
 13 38  1  0  0  0  0
 13 39  1  0  0  0  0
 14 16  2  0  0  0  0
 14 41  1  0  0  0  0
 16 17  1  0  0  0  0
 16 18  1  0  0  0  0
 18 19  2  0  0  0  0
 18 43  1  0  0  0  0
 19 24  1  0  0  0  0
 20 21  1  0  0  0  0
 20 22  1  0  0  0  0
 20 44  1  0  0  0  0
 20 45  1  0  0  0  0
 21 23  1  0  0  0  0
 21 46  1  0  0  0  0
 21 47  1  0  0  0  0
 22 25  1  0  0  0  0
 22 48  1  0  0  0  0
 22 49  1  0  0  0  0
 23 26  1  0  0  0  0
 23 50  1  0  0  0  0
 23 51  1  0  0  0  0
 24 27  2  0  0  0  0
 24 28  1  0  0  0  0
 25 30  1  0  0  0  0
 25 52  1  0  0  0  0
 25 53  1  0  0  0  0
 26 54  1  0  0  0  0
 26 55  1  0  0  0  0
 27 31  1  0  0  0  0
 27 56  1  0  0  0  0
 28 32  2  0  0  0  0
 28 57  1  0  0  0  0
 29 31  2  0  0  0  0
 29 32  1  0  0  0  0
 30 58  1  0  0  0  0
 30 59  1  0  0  0  0
 30 60  1  0  0  0  0
 31 61  1  0  0  0  0
 32 62  1  0  0  0  0
M  END
> <PUBCHEM_COMPOUND_CID>
504631
> <PUBCHEM_COMPOUND_CANONICALIZED>
1
> <PUBCHEM_CACTVS_COMPLEXITY>
756
> <PUBCHEM_CACTVS_HBOND_ACCEPTOR>
6
> <PUBCHEM_CACTVS_HBOND_DONOR>
2
> <PUBCHEM_CACTVS_ROTATABLE_BOND>
10
> <PUBCHEM_CACTVS_SUBSKEYS>
AAADceB7OAAAAAAAAAAAAAAAAAAAASIAAAAwQAAAAAAAAEABAAAAHgAACAAADBThmAYzBoMABgCoAiBmVAACCAAgIAAIiAAuCJiNNiKEsRqOeCCnxhMLqAew8C4OIAAAAAAAAABAAAAAAAAAAAAAAAAAAA==
> <PUBCHEM_IUPAC_OPENEYE_NAME>
6-(4-heptoxyphenyl)-3-[(2R,4S,5R)-4-hydroxy-5-(hydroxymethyl)tetrahydrofuran-2-yl]furo[2,3-d]pyrimidin-2-one
> <PUBCHEM_IUPAC_CAS_NAME>
6-(4-heptoxyphenyl)-3-[(2R,4S,5R)-4-hydroxy-5-(hydroxymethyl)-2-oxolanyl]-2-furo[2,3-d]pyrimidinone
> <PUBCHEM_IUPAC_NAME_MARKUP>
6-(4-heptoxyphenyl)-3-[(2<I>R</I>,4<I>S</I>,5<I>R</I>)-4-hydroxy-5-(hydroxymethyl)oxolan-2-yl]furo[2,3-d]pyrimidin-2-one
> <PUBCHEM_IUPAC_NAME>
6-(4-heptoxyphenyl)-3-[(2R,4S,5R)-4-hydroxy-5-(hydroxymethyl)oxolan-2-yl]furo[2,3-d]pyrimidin-2-one
> <PUBCHEM_IUPAC_SYSTEMATIC_NAME>
6-(4-heptoxyphenyl)-3-[(2R,4S,5R)-5-(hydroxymethyl)-4-oxidanyl-oxolan-2-yl]furo[2,3-d]pyrimidin-2-one
> <PUBCHEM_IUPAC_TRADITIONAL_NAME>
6-(4-heptoxyphenyl)-3-[(2R,4S,5R)-4-hydroxy-5-methylol-tetrahydrofuran-2-yl]furo[2,3-d]pyrimidin-2-one
> <PUBCHEM_IUPAC_INCHI>
InChI=1S/C24H30N2O6/c1-2-3-4-5-6-11-30-18-9-7-16(8-10-18)20-12-17-14-26(24(29)25-23(17)32-20)22-13-19(28)21(15-27)31-22/h7-10,12,14,19,21-22,27-28H,2-6,11,13,15H2,1H3/t19-,21+,22+/m0/s1
> <PUBCHEM_IUPAC_INCHIKEY>
CJPIYZMFUMUDOS-KSEOMHKRSA-N
> <PUBCHEM_XLOGP3_AA>
3.9
> <PUBCHEM_EXACT_MASS>
442.21038668
> <PUBCHEM_MOLECULAR_FORMULA>
C24H30N2O6
> <PUBCHEM_MOLECULAR_WEIGHT>
442.5
> <PUBCHEM_OPENEYE_CAN_SMILES>
CCCCCCCOC1=CC=C(C=C1)C2=CC3=CN(C(=O)N=C3O2)C4CC(C(O4)CO)O
> <PUBCHEM_OPENEYE_ISO_SMILES>
CCCCCCCOC1=CC=C(C=C1)C2=CC3=CN(C(=O)N=C3O2)[C@H]4C[C@@H]([C@H](O4)CO)O
> <PUBCHEM_CACTVS_TPSA>
101
> <PUBCHEM_MONOISOTOPIC_WEIGHT>
442.21038668
> <PUBCHEM_TOTAL_CHARGE>
0
> <PUBCHEM_HEAVY_ATOM_COUNT>
32
> <PUBCHEM_ATOM_DEF_STEREO_COUNT>
3
> <PUBCHEM_ATOM_UDEF_STEREO_COUNT>
0
> <PUBCHEM_BOND_DEF_STEREO_COUNT>
0
> <PUBCHEM_BOND_UDEF_STEREO_COUNT>
0
> <PUBCHEM_ISOTOPIC_ATOM_COUNT>
0
> <PUBCHEM_COMPONENT_COUNT>
1
> <PUBCHEM_CACTVS_TAUTO_COUNT>
-1
> <PUBCHEM_COORDINATE_TYPE>
1
5
255
> <PUBCHEM_BONDANNOTATIONS>
12  13  6
14  16  8
16  17  8
16  18  8
18  19  8
9  2  5
24  27  8
24  28  8
27  31  8
28  32  8
29  31  8
29  32  8
4  17  8
4  19  8
11  7  6
7  14  8
7  15  8
8  15  8
8  17  8
$$$$
