504619
  -OEChem-10302200282D
 37 39  0     1  0  0  0  0  0999 V2000
    5.4641    0.5000    0.0000 S   0  0  0  0  0  0  0  0  0  0  0  0
   10.7404   -1.3047    0.0000 S   0  0  0  0  0  0  0  0  0  0  0  0
    8.0622   -1.0000    0.0000 O   0  0  0  0  0  0  0  0  0  0  0  0
    4.9641   -0.3660    0.0000 O   0  0  0  0  0  0  0  0  0  0  0  0
    5.9641    1.3660    0.0000 O   0  0  0  0  0  0  0  0  0  0  0  0
    8.9282   -2.5000    0.0000 O   0  0  0  0  0  0  0  0  0  0  0  0
    6.3301   -0.0000    0.0000 N   0  0  0  0  0  0  0  0  0  0  0  0
    8.9282    0.5000    0.0000 N   0  0  0  0  0  0  0  0  0  0  0  0
    7.1962    0.5000    0.0000 C   0  0  2  0  0  0  0  0  0  0  0  0
    8.0622   -0.0000    0.0000 C   0  0  0  0  0  0  0  0  0  0  0  0
    4.5981    1.0000    0.0000 C   0  0  0  0  0  0  0  0  0  0  0  0
    7.1962    1.5000    0.0000 C   0  0  0  0  0  0  0  0  0  0  0  0
    4.5981    2.0000    0.0000 C   0  0  0  0  0  0  0  0  0  0  0  0
    3.7320    0.5000    0.0000 C   0  0  0  0  0  0  0  0  0  0  0  0
    9.7942   -0.0000    0.0000 C   0  0  0  0  0  0  0  0  0  0  0  0
    9.7942   -1.0000    0.0000 C   0  0  0  0  0  0  0  0  0  0  0  0
    2.8660    2.0000    0.0000 C   0  0  0  0  0  0  0  0  0  0  0  0
    3.7320    2.5000    0.0000 C   0  0  0  0  0  0  0  0  0  0  0  0
    2.8660    1.0000    0.0000 C   0  0  0  0  0  0  0  0  0  0  0  0
    8.9282   -1.5000    0.0000 C   0  0  0  0  0  0  0  0  0  0  0  0
   10.7404    0.3047    0.0000 C   0  0  0  0  0  0  0  0  0  0  0  0
    2.0000    2.5000    0.0000 C   0  0  0  0  0  0  0  0  0  0  0  0
   11.3241   -0.5000    0.0000 C   0  0  0  0  0  0  0  0  0  0  0  0
    6.6592    0.8100    0.0000 H   0  0  0  0  0  0  0  0  0  0  0  0
    6.3301   -0.6200    0.0000 H   0  0  0  0  0  0  0  0  0  0  0  0
    7.8162    1.5000    0.0000 H   0  0  0  0  0  0  0  0  0  0  0  0
    7.1962    2.1200    0.0000 H   0  0  0  0  0  0  0  0  0  0  0  0
    6.5762    1.5000    0.0000 H   0  0  0  0  0  0  0  0  0  0  0  0
    5.1350    2.3100    0.0000 H   0  0  0  0  0  0  0  0  0  0  0  0
    3.7320   -0.1200    0.0000 H   0  0  0  0  0  0  0  0  0  0  0  0
    3.7320    3.1200    0.0000 H   0  0  0  0  0  0  0  0  0  0  0  0
    2.3291    0.6900    0.0000 H   0  0  0  0  0  0  0  0  0  0  0  0
   10.9331    0.8941    0.0000 H   0  0  0  0  0  0  0  0  0  0  0  0
    2.3100    3.0369    0.0000 H   0  0  0  0  0  0  0  0  0  0  0  0
    1.4631    2.8100    0.0000 H   0  0  0  0  0  0  0  0  0  0  0  0
    1.6900    1.9631    0.0000 H   0  0  0  0  0  0  0  0  0  0  0  0
   11.9441   -0.5000    0.0000 H   0  0  0  0  0  0  0  0  0  0  0  0
  1  4  2  0  0  0  0
  1  5  2  0  0  0  0
  1  7  1  0  0  0  0
  1 11  1  0  0  0  0
  2 16  1  0  0  0  0
  2 23  1  0  0  0  0
  3 10  1  0  0  0  0
  3 20  1  0  0  0  0
  6 20  2  0  0  0  0
  9  7  1  1  0  0  0
  7 25  1  0  0  0  0
  8 10  2  0  0  0  0
  8 15  1  0  0  0  0
  9 10  1  0  0  0  0
  9 12  1  0  0  0  0
  9 24  1  0  0  0  0
 11 13  2  0  0  0  0
 11 14  1  0  0  0  0
 12 26  1  0  0  0  0
 12 27  1  0  0  0  0
 12 28  1  0  0  0  0
 13 18  1  0  0  0  0
 13 29  1  0  0  0  0
 14 19  2  0  0  0  0
 14 30  1  0  0  0  0
 15 16  2  0  0  0  0
 15 21  1  0  0  0  0
 16 20  1  0  0  0  0
 17 18  2  0  0  0  0
 17 19  1  0  0  0  0
 17 22  1  0  0  0  0
 18 31  1  0  0  0  0
 19 32  1  0  0  0  0
 21 23  2  0  0  0  0
 21 33  1  0  0  0  0
 22 34  1  0  0  0  0
 22 35  1  0  0  0  0
 22 36  1  0  0  0  0
 23 37  1  0  0  0  0
M  END
> <PUBCHEM_COMPOUND_CID>
504619
> <PUBCHEM_COMPOUND_CANONICALIZED>
1
> <PUBCHEM_CACTVS_COMPLEXITY>
591
> <PUBCHEM_CACTVS_HBOND_ACCEPTOR>
7
> <PUBCHEM_CACTVS_HBOND_DONOR>
1
> <PUBCHEM_CACTVS_ROTATABLE_BOND>
4
> <PUBCHEM_CACTVS_SUBSKEYS>
AAADccBzOABgAAAAAAAAAAAAAAAAASAAAAAwQAAAAAAAAEABwAAAHgQQQAAADCjF2ASyyYJABAqsAiTyTHDDAJAkChBIiJ0wbMgKJjqgNRiDMYQm0AEoqUeIgAAOEAAAAAAAAAAgAAAAAAAAAAAAAAAAAA==
> <PUBCHEM_IUPAC_OPENEYE_NAME>
4-methyl-N-[(1S)-1-(4-oxothieno[3,2-d][1,3]oxazin-2-yl)ethyl]benzenesulfonamide
> <PUBCHEM_IUPAC_CAS_NAME>
4-methyl-N-[(1S)-1-(4-oxo-2-thieno[3,2-d][1,3]oxazinyl)ethyl]benzenesulfonamide
> <PUBCHEM_IUPAC_NAME_MARKUP>
4-methyl-<I>N</I>-[(1<I>S</I>)-1-(4-oxothieno[3,2-d][1,3]oxazin-2-yl)ethyl]benzenesulfonamide
> <PUBCHEM_IUPAC_NAME>
4-methyl-N-[(1S)-1-(4-oxothieno[3,2-d][1,3]oxazin-2-yl)ethyl]benzenesulfonamide
> <PUBCHEM_IUPAC_SYSTEMATIC_NAME>
4-methyl-N-[(1S)-1-(4-oxidanylidenethieno[3,2-d][1,3]oxazin-2-yl)ethyl]benzenesulfonamide
> <PUBCHEM_IUPAC_TRADITIONAL_NAME>
N-[(1S)-1-(4-ketothieno[3,2-d][1,3]oxazin-2-yl)ethyl]-4-methyl-benzenesulfonamide
> <PUBCHEM_IUPAC_INCHI>
InChI=1S/C15H14N2O4S2/c1-9-3-5-11(6-4-9)23(19,20)17-10(2)14-16-12-7-8-22-13(12)15(18)21-14/h3-8,10,17H,1-2H3/t10-/m0/s1
> <PUBCHEM_IUPAC_INCHIKEY>
STCREHGGWMCNRS-JTQLQIEISA-N
> <PUBCHEM_XLOGP3_AA>
2.7
> <PUBCHEM_EXACT_MASS>
350.03949928
> <PUBCHEM_MOLECULAR_FORMULA>
C15H14N2O4S2
> <PUBCHEM_MOLECULAR_WEIGHT>
350.4
> <PUBCHEM_OPENEYE_CAN_SMILES>
CC1=CC=C(C=C1)S(=O)(=O)NC(C)C2=NC3=C(C(=O)O2)SC=C3
> <PUBCHEM_OPENEYE_ISO_SMILES>
CC1=CC=C(C=C1)S(=O)(=O)N[C@@H](C)C2=NC3=C(C(=O)O2)SC=C3
> <PUBCHEM_CACTVS_TPSA>
121
> <PUBCHEM_MONOISOTOPIC_WEIGHT>
350.03949928
> <PUBCHEM_TOTAL_CHARGE>
0
> <PUBCHEM_HEAVY_ATOM_COUNT>
23
> <PUBCHEM_ATOM_DEF_STEREO_COUNT>
1
> <PUBCHEM_ATOM_UDEF_STEREO_COUNT>
0
> <PUBCHEM_BOND_DEF_STEREO_COUNT>
0
> <PUBCHEM_BOND_UDEF_STEREO_COUNT>
0
> <PUBCHEM_ISOTOPIC_ATOM_COUNT>
0
> <PUBCHEM_COMPONENT_COUNT>
1
> <PUBCHEM_CACTVS_TAUTO_COUNT>
-1
> <PUBCHEM_COORDINATE_TYPE>
1
5
255
> <PUBCHEM_BONDANNOTATIONS>
11  13  8
11  14  8
13  18  8
14  19  8
15  16  8
15  21  8
16  20  8
17  18  8
17  19  8
2  16  8
2  23  8
21  23  8
3  10  8
3  20  8
9  7  5
8  10  8
8  15  8
$$$$
