504605
  -OEChem-10302200282D
 26 28  0     1  0  0  0  0  0999 V2000
    3.2601    1.7979    0.0000 O   0  0  0  0  0  0  0  0  0  0  0  0
    2.0000    0.5379    0.0000 O   0  0  0  0  0  0  0  0  0  0  0  0
    4.5691    0.8469    0.0000 N   0  0  0  0  0  0  0  0  0  0  0  0
    3.7601    0.2591    0.0000 C   0  0  3  0  0  0  0  0  0  0  0  0
    4.2601   -0.6069    0.0000 C   0  0  2  0  0  0  0  0  0  0  0  0
    3.2601   -0.6069    0.0000 C   0  0  0  0  0  0  0  0  0  0  0  0
    5.1261   -1.1069    0.0000 C   0  0  0  0  0  0  0  0  0  0  0  0
    2.9511    0.8469    0.0000 C   0  0  0  0  0  0  0  0  0  0  0  0
    4.2601    1.7979    0.0000 C   0  0  0  0  0  0  0  0  0  0  0  0
    5.1261   -2.1069    0.0000 C   0  0  0  0  0  0  0  0  0  0  0  0
    5.9921   -0.6069    0.0000 C   0  0  0  0  0  0  0  0  0  0  0  0
    4.8479    2.6069    0.0000 C   0  0  0  0  0  0  0  0  0  0  0  0
    5.9921   -2.6069    0.0000 C   0  0  0  0  0  0  0  0  0  0  0  0
    6.8582   -1.1069    0.0000 C   0  0  0  0  0  0  0  0  0  0  0  0
    6.8582   -2.1069    0.0000 C   0  0  0  0  0  0  0  0  0  0  0  0
    4.0996   -1.2058    0.0000 H   0  0  0  0  0  0  0  0  0  0  0  0
    2.6775   -0.3949    0.0000 H   0  0  0  0  0  0  0  0  0  0  0  0
    3.1524   -1.2175    0.0000 H   0  0  0  0  0  0  0  0  0  0  0  0
    4.5892   -2.4169    0.0000 H   0  0  0  0  0  0  0  0  0  0  0  0
    5.9921    0.0131    0.0000 H   0  0  0  0  0  0  0  0  0  0  0  0
    5.3494    2.2425    0.0000 H   0  0  0  0  0  0  0  0  0  0  0  0
    5.2123    3.1085    0.0000 H   0  0  0  0  0  0  0  0  0  0  0  0
    4.3463    2.9714    0.0000 H   0  0  0  0  0  0  0  0  0  0  0  0
    5.9921   -3.2269    0.0000 H   0  0  0  0  0  0  0  0  0  0  0  0
    7.3951   -0.7969    0.0000 H   0  0  0  0  0  0  0  0  0  0  0  0
    7.3951   -2.4169    0.0000 H   0  0  0  0  0  0  0  0  0  0  0  0
  1  8  1  0  0  0  0
  1  9  1  0  0  0  0
  2  8  2  0  0  0  0
  3  4  1  0  0  0  0
  3  9  2  0  0  0  0
  4  5  1  0  0  0  0
  4  6  1  0  0  0  0
  4  8  1  0  0  0  0
  5  6  1  0  0  0  0
  5  7  1  1  0  0  0
  5 16  1  0  0  0  0
  6 17  1  0  0  0  0
  6 18  1  0  0  0  0
  7 10  2  0  0  0  0
  7 11  1  0  0  0  0
  9 12  1  0  0  0  0
 10 13  1  0  0  0  0
 10 19  1  0  0  0  0
 11 14  2  0  0  0  0
 11 20  1  0  0  0  0
 12 21  1  0  0  0  0
 12 22  1  0  0  0  0
 12 23  1  0  0  0  0
 13 15  2  0  0  0  0
 13 24  1  0  0  0  0
 14 15  1  0  0  0  0
 14 25  1  0  0  0  0
 15 26  1  0  0  0  0
M  END
> <PUBCHEM_COMPOUND_CID>
504605
> <PUBCHEM_COMPOUND_CANONICALIZED>
1
> <PUBCHEM_CACTVS_COMPLEXITY>
331
> <PUBCHEM_CACTVS_HBOND_ACCEPTOR>
3
> <PUBCHEM_CACTVS_HBOND_DONOR>
0
> <PUBCHEM_CACTVS_ROTATABLE_BOND>
1
> <PUBCHEM_CACTVS_SUBSKEYS>
AAADccByMAAAAAAAAAAAAAAAGAAAAQAAAAAwAAAAAAAAAAABAAAAHgAAAAAADYiBmAAyCIIABACoAiDyDAACAAAgAAAIiAGQAIgKIDKAkRGDIAAkgAAIiAeYyPCOgAAAAAAAAAAAAAAAAAAAAAAAAAAAAA==
> <PUBCHEM_IUPAC_OPENEYE_NAME>
(2R)-5-methyl-2-phenyl-6-oxa-4-azaspiro[2.4]hept-4-en-7-one
> <PUBCHEM_IUPAC_CAS_NAME>
(2R)-5-methyl-2-phenyl-6-oxa-4-azaspiro[2.4]hept-4-en-7-one
> <PUBCHEM_IUPAC_NAME_MARKUP>
(2<I>R</I>)-5-methyl-2-phenyl-6-oxa-4-azaspiro[2.4]hept-4-en-7-one
> <PUBCHEM_IUPAC_NAME>
(2R)-5-methyl-2-phenyl-6-oxa-4-azaspiro[2.4]hept-4-en-7-one
> <PUBCHEM_IUPAC_SYSTEMATIC_NAME>
(2R)-5-methyl-2-phenyl-6-oxa-4-azaspiro[2.4]hept-4-en-7-one
> <PUBCHEM_IUPAC_TRADITIONAL_NAME>
(2R)-5-methyl-2-phenyl-6-oxa-4-azaspiro[2.4]hept-4-en-7-one
> <PUBCHEM_IUPAC_INCHI>
InChI=1S/C12H11NO2/c1-8-13-12(11(14)15-8)7-10(12)9-5-3-2-4-6-9/h2-6,10H,7H2,1H3/t10-,12?/m1/s1
> <PUBCHEM_IUPAC_INCHIKEY>
ZIURZJWQKNUVHY-RWANSRKNSA-N
> <PUBCHEM_XLOGP3_AA>
1.5
> <PUBCHEM_EXACT_MASS>
201.078978594
> <PUBCHEM_MOLECULAR_FORMULA>
C12H11NO2
> <PUBCHEM_MOLECULAR_WEIGHT>
201.22
> <PUBCHEM_OPENEYE_CAN_SMILES>
CC1=NC2(CC2C3=CC=CC=C3)C(=O)O1
> <PUBCHEM_OPENEYE_ISO_SMILES>
CC1=NC2(C[C@@H]2C3=CC=CC=C3)C(=O)O1
> <PUBCHEM_CACTVS_TPSA>
38.7
> <PUBCHEM_MONOISOTOPIC_WEIGHT>
201.078978594
> <PUBCHEM_TOTAL_CHARGE>
0
> <PUBCHEM_HEAVY_ATOM_COUNT>
15
> <PUBCHEM_ATOM_DEF_STEREO_COUNT>
1
> <PUBCHEM_ATOM_UDEF_STEREO_COUNT>
1
> <PUBCHEM_BOND_DEF_STEREO_COUNT>
0
> <PUBCHEM_BOND_UDEF_STEREO_COUNT>
0
> <PUBCHEM_ISOTOPIC_ATOM_COUNT>
0
> <PUBCHEM_COMPONENT_COUNT>
1
> <PUBCHEM_CACTVS_TAUTO_COUNT>
-1
> <PUBCHEM_COORDINATE_TYPE>
1
5
255
> <PUBCHEM_BONDANNOTATIONS>
10  13  8
11  14  8
13  15  8
14  15  8
4  6  3
5  7  5
7  10  8
7  11  8
$$$$
