504778
  -OEChem-10302200282D
 76 78  0     1  0  0  0  0  0999 V2000
    6.0010    0.5000    0.0000 O   0  0  0  0  0  0  0  0  0  0  0  0
    9.4651   -0.5000    0.0000 O   0  0  0  0  0  0  0  0  0  0  0  0
   12.0632    2.0000    0.0000 O   0  0  0  0  0  0  0  0  0  0  0  0
    4.2690    6.5000    0.0000 O   0  0  0  0  0  0  0  0  0  0  0  0
    2.5369    5.5000    0.0000 O   0  0  0  0  0  0  0  0  0  0  0  0
    7.7331   -5.5000    0.0000 O   0  0  0  0  0  0  0  0  0  0  0  0
    9.4651   -6.5000    0.0000 O   0  0  0  0  0  0  0  0  0  0  0  0
   15.5273   -2.0000    0.0000 O   0  0  0  0  0  0  0  0  0  0  0  0
   17.2594   -1.0000    0.0000 O   0  0  0  0  0  0  0  0  0  0  0  0
    7.7331   -0.5000    0.0000 N   0  0  0  0  0  0  0  0  0  0  0  0
    6.8671    2.0000    0.0000 N   0  0  0  0  0  0  0  0  0  0  0  0
   11.1972    0.5000    0.0000 N   0  0  0  0  0  0  0  0  0  0  0  0
    7.7331    0.5000    0.0000 C   0  0  1  0  0  0  0  0  0  0  0  0
    8.5991    1.0000    0.0000 C   0  0  0  0  0  0  0  0  0  0  0  0
    9.4651    0.5000    0.0000 C   0  0  0  0  0  0  0  0  0  0  0  0
   10.3312    1.0000    0.0000 C   0  0  0  0  0  0  0  0  0  0  0  0
    6.8671    1.0000    0.0000 C   0  0  0  0  0  0  0  0  0  0  0  0
    6.0010    2.5000    0.0000 C   0  0  0  0  0  0  0  0  0  0  0  0
    6.0010    3.5000    0.0000 C   0  0  0  0  0  0  0  0  0  0  0  0
    5.1350    4.0000    0.0000 C   0  0  0  0  0  0  0  0  0  0  0  0
    8.5991   -1.0000    0.0000 C   0  0  0  0  0  0  0  0  0  0  0  0
   12.0632    1.0000    0.0000 C   0  0  0  0  0  0  0  0  0  0  0  0
    5.1350    5.0000    0.0000 C   0  0  0  0  0  0  0  0  0  0  0  0
    4.2690    3.5000    0.0000 C   0  0  0  0  0  0  0  0  0  0  0  0
    8.5991   -2.0000    0.0000 C   0  0  0  0  0  0  0  0  0  0  0  0
    4.2690    5.5000    0.0000 C   0  0  0  0  0  0  0  0  0  0  0  0
    3.4030    4.0000    0.0000 C   0  0  0  0  0  0  0  0  0  0  0  0
    3.4030    5.0000    0.0000 C   0  0  0  0  0  0  0  0  0  0  0  0
   12.9292    0.5000    0.0000 C   0  0  0  0  0  0  0  0  0  0  0  0
    9.4651   -2.5000    0.0000 C   0  0  0  0  0  0  0  0  0  0  0  0
    9.4651   -3.5000    0.0000 C   0  0  0  0  0  0  0  0  0  0  0  0
   13.7953    1.0000    0.0000 C   0  0  0  0  0  0  0  0  0  0  0  0
   14.6613    0.5000    0.0000 C   0  0  0  0  0  0  0  0  0  0  0  0
    8.5991   -4.0000    0.0000 C   0  0  0  0  0  0  0  0  0  0  0  0
   10.3312   -4.0000    0.0000 C   0  0  0  0  0  0  0  0  0  0  0  0
    8.5991   -5.0000    0.0000 C   0  0  0  0  0  0  0  0  0  0  0  0
   10.3312   -5.0000    0.0000 C   0  0  0  0  0  0  0  0  0  0  0  0
   14.6613   -0.5000    0.0000 C   0  0  0  0  0  0  0  0  0  0  0  0
   15.5273    1.0000    0.0000 C   0  0  0  0  0  0  0  0  0  0  0  0
    9.4651   -5.5000    0.0000 C   0  0  0  0  0  0  0  0  0  0  0  0
   15.5273   -1.0000    0.0000 C   0  0  0  0  0  0  0  0  0  0  0  0
   16.3933    0.5000    0.0000 C   0  0  0  0  0  0  0  0  0  0  0  0
   16.3933   -0.5000    0.0000 C   0  0  0  0  0  0  0  0  0  0  0  0
    8.2700    0.1900    0.0000 H   0  0  0  0  0  0  0  0  0  0  0  0
    8.9976    1.4750    0.0000 H   0  0  0  0  0  0  0  0  0  0  0  0
    8.2006    1.4750    0.0000 H   0  0  0  0  0  0  0  0  0  0  0  0
    9.0666    0.0251    0.0000 H   0  0  0  0  0  0  0  0  0  0  0  0
    9.8637    0.0251    0.0000 H   0  0  0  0  0  0  0  0  0  0  0  0
   10.7297    1.4750    0.0000 H   0  0  0  0  0  0  0  0  0  0  0  0
    9.9326    1.4750    0.0000 H   0  0  0  0  0  0  0  0  0  0  0  0
    7.1962   -0.8100    0.0000 H   0  0  0  0  0  0  0  0  0  0  0  0
    5.3905    2.6077    0.0000 H   0  0  0  0  0  0  0  0  0  0  0  0
    5.7890    1.9174    0.0000 H   0  0  0  0  0  0  0  0  0  0  0  0
    7.4040    2.3100    0.0000 H   0  0  0  0  0  0  0  0  0  0  0  0
    6.6116    3.3923    0.0000 H   0  0  0  0  0  0  0  0  0  0  0  0
    6.2131    4.0826    0.0000 H   0  0  0  0  0  0  0  0  0  0  0  0
   11.1972   -0.1200    0.0000 H   0  0  0  0  0  0  0  0  0  0  0  0
    5.6720    5.3100    0.0000 H   0  0  0  0  0  0  0  0  0  0  0  0
    4.2690    2.8800    0.0000 H   0  0  0  0  0  0  0  0  0  0  0  0
    8.0622   -2.3100    0.0000 H   0  0  0  0  0  0  0  0  0  0  0  0
    2.8660    3.6900    0.0000 H   0  0  0  0  0  0  0  0  0  0  0  0
   12.9292   -0.1200    0.0000 H   0  0  0  0  0  0  0  0  0  0  0  0
   10.0021   -2.1900    0.0000 H   0  0  0  0  0  0  0  0  0  0  0  0
   13.7953    1.6200    0.0000 H   0  0  0  0  0  0  0  0  0  0  0  0
    8.0622   -3.6900    0.0000 H   0  0  0  0  0  0  0  0  0  0  0  0
   10.8681   -3.6900    0.0000 H   0  0  0  0  0  0  0  0  0  0  0  0
    4.8059    6.8100    0.0000 H   0  0  0  0  0  0  0  0  0  0  0  0
    2.0000    5.1900    0.0000 H   0  0  0  0  0  0  0  0  0  0  0  0
   10.8681   -5.3100    0.0000 H   0  0  0  0  0  0  0  0  0  0  0  0
   14.1244   -0.8100    0.0000 H   0  0  0  0  0  0  0  0  0  0  0  0
   15.5273    1.6200    0.0000 H   0  0  0  0  0  0  0  0  0  0  0  0
   16.9303    0.8100    0.0000 H   0  0  0  0  0  0  0  0  0  0  0  0
    7.7331   -6.1200    0.0000 H   0  0  0  0  0  0  0  0  0  0  0  0
   10.0021   -6.8100    0.0000 H   0  0  0  0  0  0  0  0  0  0  0  0
   16.0643   -2.3100    0.0000 H   0  0  0  0  0  0  0  0  0  0  0  0
   17.7963   -0.6900    0.0000 H   0  0  0  0  0  0  0  0  0  0  0  0
  1 17  2  0  0  0  0
  2 21  2  0  0  0  0
  3 22  2  0  0  0  0
  4 26  1  0  0  0  0
  4 67  1  0  0  0  0
  5 28  1  0  0  0  0
  5 68  1  0  0  0  0
  6 36  1  0  0  0  0
  6 73  1  0  0  0  0
  7 40  1  0  0  0  0
  7 74  1  0  0  0  0
  8 41  1  0  0  0  0
  8 75  1  0  0  0  0
  9 43  1  0  0  0  0
  9 76  1  0  0  0  0
 13 10  1  6  0  0  0
 10 21  1  0  0  0  0
 10 51  1  0  0  0  0
 11 17  1  0  0  0  0
 11 18  1  0  0  0  0
 11 54  1  0  0  0  0
 12 16  1  0  0  0  0
 12 22  1  0  0  0  0
 12 57  1  0  0  0  0
 13 14  1  0  0  0  0
 13 17  1  0  0  0  0
 13 44  1  0  0  0  0
 14 15  1  0  0  0  0
 14 45  1  0  0  0  0
 14 46  1  0  0  0  0
 15 16  1  0  0  0  0
 15 47  1  0  0  0  0
 15 48  1  0  0  0  0
 16 49  1  0  0  0  0
 16 50  1  0  0  0  0
 18 19  1  0  0  0  0
 18 52  1  0  0  0  0
 18 53  1  0  0  0  0
 19 20  1  0  0  0  0
 19 55  1  0  0  0  0
 19 56  1  0  0  0  0
 20 23  2  0  0  0  0
 20 24  1  0  0  0  0
 21 25  1  0  0  0  0
 22 29  1  0  0  0  0
 23 26  1  0  0  0  0
 23 58  1  0  0  0  0
 24 27  2  0  0  0  0
 24 59  1  0  0  0  0
 25 30  2  3  0  0  0
 25 60  1  0  0  0  0
 26 28  2  0  0  0  0
 27 28  1  0  0  0  0
 27 61  1  0  0  0  0
 29 32  2  3  0  0  0
 29 62  1  0  0  0  0
 30 31  1  0  0  0  0
 30 63  1  0  0  0  0
 31 34  2  0  0  0  0
 31 35  1  0  0  0  0
 32 33  1  0  0  0  0
 32 64  1  0  0  0  0
 33 38  2  0  0  0  0
 33 39  1  0  0  0  0
 34 36  1  0  0  0  0
 34 65  1  0  0  0  0
 35 37  2  0  0  0  0
 35 66  1  0  0  0  0
 36 40  2  0  0  0  0
 37 40  1  0  0  0  0
 37 69  1  0  0  0  0
 38 41  1  0  0  0  0
 38 70  1  0  0  0  0
 39 42  2  0  0  0  0
 39 71  1  0  0  0  0
 41 43  2  0  0  0  0
 42 43  1  0  0  0  0
 42 72  1  0  0  0  0
M  END
> <PUBCHEM_COMPOUND_CID>
504778
> <PUBCHEM_COMPOUND_CANONICALIZED>
1
> <PUBCHEM_CACTVS_COMPLEXITY>
961
> <PUBCHEM_CACTVS_HBOND_ACCEPTOR>
9
> <PUBCHEM_CACTVS_HBOND_DONOR>
9
> <PUBCHEM_CACTVS_ROTATABLE_BOND>
13
> <PUBCHEM_CACTVS_SUBSKEYS>
AAADcfB7PAAAAAAAAAAAAAAAAAAAAAAAAAAwYMAAAAAAAAABUAAAHgAQCAAADCzBmAQwBoLAAgCIAiFSEACCAAAgIAAIiIGOiMgJZjKCkTOUcAEk1hGJmYeY0bIOIAABAAAAQABAAAIAAACAAAAAAAAAAA==
> <PUBCHEM_IUPAC_OPENEYE_NAME>
(2S)-N-[2-(3,4-dihydroxyphenyl)ethyl]-2,5-bis[3-(3,4-dihydroxyphenyl)prop-2-enoylamino]pentanamide
> <PUBCHEM_IUPAC_CAS_NAME>
(2S)-N-[2-(3,4-dihydroxyphenyl)ethyl]-2,5-bis[[3-(3,4-dihydroxyphenyl)-1-oxoprop-2-enyl]amino]pentanamide
> <PUBCHEM_IUPAC_NAME_MARKUP>
(2<I>S</I>)-<I>N</I>-[2-(3,4-dihydroxyphenyl)ethyl]-2,5-bis[3-(3,4-dihydroxyphenyl)prop-2-enoylamino]pentanamide
> <PUBCHEM_IUPAC_NAME>
(2S)-N-[2-(3,4-dihydroxyphenyl)ethyl]-2,5-bis[3-(3,4-dihydroxyphenyl)prop-2-enoylamino]pentanamide
> <PUBCHEM_IUPAC_SYSTEMATIC_NAME>
(2S)-N-[2-[3,4-bis(oxidanyl)phenyl]ethyl]-2,5-bis[3-[3,4-bis(oxidanyl)phenyl]prop-2-enoylamino]pentanamide
> <PUBCHEM_IUPAC_TRADITIONAL_NAME>
(2S)-2,5-bis(caffeoylamino)-N-[2-(3,4-dihydroxyphenyl)ethyl]valeramide
> <PUBCHEM_IUPAC_INCHI>
InChI=1S/C31H33N3O9/c35-23-8-3-19(16-26(23)38)6-11-29(41)32-14-1-2-22(31(43)33-15-13-21-5-10-25(37)28(40)18-21)34-30(42)12-7-20-4-9-24(36)27(39)17-20/h3-12,16-18,22,35-40H,1-2,13-15H2,(H,32,41)(H,33,43)(H,34,42)/t22-/m0/s1
> <PUBCHEM_IUPAC_INCHIKEY>
BAARMTDDCNVEAC-QFIPXVFZSA-N
> <PUBCHEM_XLOGP3_AA>
2.9
> <PUBCHEM_EXACT_MASS>
591.22167964
> <PUBCHEM_MOLECULAR_FORMULA>
C31H33N3O9
> <PUBCHEM_MOLECULAR_WEIGHT>
591.6
> <PUBCHEM_OPENEYE_CAN_SMILES>
C1=CC(=C(C=C1CCNC(=O)C(CCCNC(=O)C=CC2=CC(=C(C=C2)O)O)NC(=O)C=CC3=CC(=C(C=C3)O)O)O)O
> <PUBCHEM_OPENEYE_ISO_SMILES>
C1=CC(=C(C=C1CCNC(=O)[C@H](CCCNC(=O)C=CC2=CC(=C(C=C2)O)O)NC(=O)C=CC3=CC(=C(C=C3)O)O)O)O
> <PUBCHEM_CACTVS_TPSA>
209
> <PUBCHEM_MONOISOTOPIC_WEIGHT>
591.22167964
> <PUBCHEM_TOTAL_CHARGE>
0
> <PUBCHEM_HEAVY_ATOM_COUNT>
43
> <PUBCHEM_ATOM_DEF_STEREO_COUNT>
1
> <PUBCHEM_ATOM_UDEF_STEREO_COUNT>
0
> <PUBCHEM_BOND_DEF_STEREO_COUNT>
0
> <PUBCHEM_BOND_UDEF_STEREO_COUNT>
2
> <PUBCHEM_ISOTOPIC_ATOM_COUNT>
0
> <PUBCHEM_COMPONENT_COUNT>
1
> <PUBCHEM_CACTVS_TAUTO_COUNT>
-1
> <PUBCHEM_COORDINATE_TYPE>
1
5
255
> <PUBCHEM_BONDANNOTATIONS>
13  10  6
20  23  8
20  24  8
23  26  8
24  27  8
25  30  1
26  28  8
27  28  8
29  32  1
31  34  8
31  35  8
33  38  8
33  39  8
34  36  8
35  37  8
36  40  8
37  40  8
38  41  8
39  42  8
41  43  8
42  43  8
$$$$
