504771
  -OEChem-10302200282D
 58 60  0     1  0  0  0  0  0999 V2000
    8.5991    1.6550    0.0000 O   0  0  0  0  0  0  0  0  0  0  0  0
   11.1972   -0.8450    0.0000 O   0  0  0  0  0  0  0  0  0  0  0  0
   10.3312    4.6550    0.0000 O   0  0  0  0  0  0  0  0  0  0  0  0
    4.2690    3.1550    0.0000 O   0  0  0  0  0  0  0  0  0  0  0  0
    2.5369    2.1550    0.0000 O   0  0  0  0  0  0  0  0  0  0  0  0
   10.3312   -4.3450    0.0000 O   0  0  0  0  0  0  0  0  0  0  0  0
   13.7953   -4.3450    0.0000 O   0  0  0  0  0  0  0  0  0  0  0  0
    9.4651   -0.8450    0.0000 N   0  0  0  0  0  0  0  0  0  0  0  0
    7.7331    0.1550    0.0000 N   0  0  0  0  0  0  0  0  0  0  0  0
   12.0632   -4.3450    0.0000 N   0  0  0  0  0  0  0  0  0  0  0  0
   12.9292   -2.8450    0.0000 N   0  0  0  0  0  0  0  0  0  0  0  0
    9.4651    0.1550    0.0000 C   0  0  1  0  0  0  0  0  0  0  0  0
   10.3312    0.6550    0.0000 C   0  0  0  0  0  0  0  0  0  0  0  0
    8.5991    0.6550    0.0000 C   0  0  0  0  0  0  0  0  0  0  0  0
   10.3312    1.6550    0.0000 C   0  0  0  0  0  0  0  0  0  0  0  0
    6.8671    0.6550    0.0000 C   0  0  0  0  0  0  0  0  0  0  0  0
    6.0010    0.1550    0.0000 C   0  0  0  0  0  0  0  0  0  0  0  0
   10.3312   -1.3450    0.0000 C   0  0  0  0  0  0  0  0  0  0  0  0
   10.3312   -2.3450    0.0000 C   0  0  0  0  0  0  0  0  0  0  0  0
    5.1350    0.6550    0.0000 C   0  0  0  0  0  0  0  0  0  0  0  0
    9.4651    2.1550    0.0000 C   0  0  0  0  0  0  0  0  0  0  0  0
   11.1972    2.1550    0.0000 C   0  0  0  0  0  0  0  0  0  0  0  0
   11.1972   -2.8450    0.0000 C   0  0  0  0  0  0  0  0  0  0  0  0
    9.4651    3.1550    0.0000 C   0  0  0  0  0  0  0  0  0  0  0  0
   11.1972    3.1550    0.0000 C   0  0  0  0  0  0  0  0  0  0  0  0
    5.1350    1.6550    0.0000 C   0  0  0  0  0  0  0  0  0  0  0  0
    4.2690    0.1550    0.0000 C   0  0  0  0  0  0  0  0  0  0  0  0
   10.3312    3.6550    0.0000 C   0  0  0  0  0  0  0  0  0  0  0  0
   11.1972   -3.8450    0.0000 C   0  0  0  0  0  0  0  0  0  0  0  0
   12.0632   -2.3450    0.0000 C   0  0  0  0  0  0  0  0  0  0  0  0
    4.2690    2.1550    0.0000 C   0  0  0  0  0  0  0  0  0  0  0  0
    3.4030    0.6550    0.0000 C   0  0  0  0  0  0  0  0  0  0  0  0
    3.4030    1.6550    0.0000 C   0  0  0  0  0  0  0  0  0  0  0  0
   12.9292   -3.8450    0.0000 C   0  0  0  0  0  0  0  0  0  0  0  0
   10.0021   -0.1550    0.0000 H   0  0  0  0  0  0  0  0  0  0  0  0
   10.5432    0.0724    0.0000 H   0  0  0  0  0  0  0  0  0  0  0  0
   10.9417    0.7627    0.0000 H   0  0  0  0  0  0  0  0  0  0  0  0
    8.9282   -1.1550    0.0000 H   0  0  0  0  0  0  0  0  0  0  0  0
    7.2656    1.1300    0.0000 H   0  0  0  0  0  0  0  0  0  0  0  0
    6.4685    1.1300    0.0000 H   0  0  0  0  0  0  0  0  0  0  0  0
    7.7331   -0.4650    0.0000 H   0  0  0  0  0  0  0  0  0  0  0  0
    5.6025   -0.3199    0.0000 H   0  0  0  0  0  0  0  0  0  0  0  0
    6.3996   -0.3199    0.0000 H   0  0  0  0  0  0  0  0  0  0  0  0
    9.7206   -2.2373    0.0000 H   0  0  0  0  0  0  0  0  0  0  0  0
   10.1191   -2.9276    0.0000 H   0  0  0  0  0  0  0  0  0  0  0  0
    8.9282    1.8450    0.0000 H   0  0  0  0  0  0  0  0  0  0  0  0
   11.7341    1.8450    0.0000 H   0  0  0  0  0  0  0  0  0  0  0  0
    8.9282    3.4650    0.0000 H   0  0  0  0  0  0  0  0  0  0  0  0
   11.7341    3.4650    0.0000 H   0  0  0  0  0  0  0  0  0  0  0  0
    5.6720    1.9650    0.0000 H   0  0  0  0  0  0  0  0  0  0  0  0
    4.2690   -0.4650    0.0000 H   0  0  0  0  0  0  0  0  0  0  0  0
   12.0632   -1.7250    0.0000 H   0  0  0  0  0  0  0  0  0  0  0  0
    2.8660    0.3450    0.0000 H   0  0  0  0  0  0  0  0  0  0  0  0
   12.0632   -4.9650    0.0000 H   0  0  0  0  0  0  0  0  0  0  0  0
   13.4662   -2.5350    0.0000 H   0  0  0  0  0  0  0  0  0  0  0  0
   10.8681    4.9650    0.0000 H   0  0  0  0  0  0  0  0  0  0  0  0
    3.7320    3.4650    0.0000 H   0  0  0  0  0  0  0  0  0  0  0  0
    2.0000    1.8450    0.0000 H   0  0  0  0  0  0  0  0  0  0  0  0
  1 14  2  0  0  0  0
  2 18  2  0  0  0  0
  3 28  1  0  0  0  0
  3 56  1  0  0  0  0
  4 31  1  0  0  0  0
  4 57  1  0  0  0  0
  5 33  1  0  0  0  0
  5 58  1  0  0  0  0
  6 29  2  0  0  0  0
  7 34  2  0  0  0  0
 12  8  1  6  0  0  0
  8 18  1  0  0  0  0
  8 38  1  0  0  0  0
  9 14  1  0  0  0  0
  9 16  1  0  0  0  0
  9 41  1  0  0  0  0
 10 29  1  0  0  0  0
 10 34  1  0  0  0  0
 10 54  1  0  0  0  0
 11 30  1  0  0  0  0
 11 34  1  0  0  0  0
 11 55  1  0  0  0  0
 12 13  1  0  0  0  0
 12 14  1  0  0  0  0
 12 35  1  0  0  0  0
 13 15  1  0  0  0  0
 13 36  1  0  0  0  0
 13 37  1  0  0  0  0
 15 21  2  0  0  0  0
 15 22  1  0  0  0  0
 16 17  1  0  0  0  0
 16 39  1  0  0  0  0
 16 40  1  0  0  0  0
 17 20  1  0  0  0  0
 17 42  1  0  0  0  0
 17 43  1  0  0  0  0
 18 19  1  0  0  0  0
 19 23  1  0  0  0  0
 19 44  1  0  0  0  0
 19 45  1  0  0  0  0
 20 26  2  0  0  0  0
 20 27  1  0  0  0  0
 21 24  1  0  0  0  0
 21 46  1  0  0  0  0
 22 25  2  0  0  0  0
 22 47  1  0  0  0  0
 23 29  1  0  0  0  0
 23 30  2  0  0  0  0
 24 28  2  0  0  0  0
 24 48  1  0  0  0  0
 25 28  1  0  0  0  0
 25 49  1  0  0  0  0
 26 31  1  0  0  0  0
 26 50  1  0  0  0  0
 27 32  2  0  0  0  0
 27 51  1  0  0  0  0
 30 52  1  0  0  0  0
 31 33  2  0  0  0  0
 32 33  1  0  0  0  0
 32 53  1  0  0  0  0
M  END
> <PUBCHEM_COMPOUND_CID>
504771
> <PUBCHEM_COMPOUND_CANONICALIZED>
1
> <PUBCHEM_CACTVS_COMPLEXITY>
794
> <PUBCHEM_CACTVS_HBOND_ACCEPTOR>
7
> <PUBCHEM_CACTVS_HBOND_DONOR>
7
> <PUBCHEM_CACTVS_ROTATABLE_BOND>
9
> <PUBCHEM_CACTVS_SUBSKEYS>
AAADceB7uAAAAAAAAAAAAAAAAAAAAAAAAAAwYIAAAAAAAAABQAAAHgAQCAAADCzBmAQxBoLAAgCIAiFWUACCAAAgIAAIiIGOiMiJZjKCkTOUcAEs1zOJmMed2LKOIAABAAAAQABAAAIAAACAAAAAAAAAAA==
> <PUBCHEM_IUPAC_OPENEYE_NAME>
(2S)-N-[2-(3,4-dihydroxyphenyl)ethyl]-2-[[2-(2,4-dioxo-1H-pyrimidin-5-yl)acetyl]amino]-3-(4-hydroxyphenyl)propanamide
> <PUBCHEM_IUPAC_CAS_NAME>
(2S)-N-[2-(3,4-dihydroxyphenyl)ethyl]-2-[[2-(2,4-dioxo-1H-pyrimidin-5-yl)-1-oxoethyl]amino]-3-(4-hydroxyphenyl)propanamide
> <PUBCHEM_IUPAC_NAME_MARKUP>
(2<I>S</I>)-<I>N</I>-[2-(3,4-dihydroxyphenyl)ethyl]-2-[[2-(2,4-dioxo-1<I>H</I>-pyrimidin-5-yl)acetyl]amino]-3-(4-hydroxyphenyl)propanamide
> <PUBCHEM_IUPAC_NAME>
(2S)-N-[2-(3,4-dihydroxyphenyl)ethyl]-2-[[2-(2,4-dioxo-1H-pyrimidin-5-yl)acetyl]amino]-3-(4-hydroxyphenyl)propanamide
> <PUBCHEM_IUPAC_SYSTEMATIC_NAME>
(2S)-2-[2-[2,4-bis(oxidanylidene)-1H-pyrimidin-5-yl]ethanoylamino]-N-[2-[3,4-bis(oxidanyl)phenyl]ethyl]-3-(4-hydroxyphenyl)propanamide
> <PUBCHEM_IUPAC_TRADITIONAL_NAME>
(2S)-N-[2-(3,4-dihydroxyphenyl)ethyl]-2-[[2-(2,4-diketo-1H-pyrimidin-5-yl)acetyl]amino]-3-(4-hydroxyphenyl)propionamide
> <PUBCHEM_IUPAC_INCHI>
InChI=1S/C23H24N4O7/c28-16-4-1-13(2-5-16)9-17(26-20(31)11-15-12-25-23(34)27-21(15)32)22(33)24-8-7-14-3-6-18(29)19(30)10-14/h1-6,10,12,17,28-30H,7-9,11H2,(H,24,33)(H,26,31)(H2,25,27,32,34)/t17-/m0/s1
> <PUBCHEM_IUPAC_INCHIKEY>
LEYGSZINPLQGMF-KRWDZBQOSA-N
> <PUBCHEM_XLOGP3_AA>
0.5
> <PUBCHEM_EXACT_MASS>
468.16449912
> <PUBCHEM_MOLECULAR_FORMULA>
C23H24N4O7
> <PUBCHEM_MOLECULAR_WEIGHT>
468.5
> <PUBCHEM_OPENEYE_CAN_SMILES>
C1=CC(=CC=C1CC(C(=O)NCCC2=CC(=C(C=C2)O)O)NC(=O)CC3=CNC(=O)NC3=O)O
> <PUBCHEM_OPENEYE_ISO_SMILES>
C1=CC(=CC=C1C[C@@H](C(=O)NCCC2=CC(=C(C=C2)O)O)NC(=O)CC3=CNC(=O)NC3=O)O
> <PUBCHEM_CACTVS_TPSA>
177
> <PUBCHEM_MONOISOTOPIC_WEIGHT>
468.16449912
> <PUBCHEM_TOTAL_CHARGE>
0
> <PUBCHEM_HEAVY_ATOM_COUNT>
34
> <PUBCHEM_ATOM_DEF_STEREO_COUNT>
1
> <PUBCHEM_ATOM_UDEF_STEREO_COUNT>
0
> <PUBCHEM_BOND_DEF_STEREO_COUNT>
0
> <PUBCHEM_BOND_UDEF_STEREO_COUNT>
0
> <PUBCHEM_ISOTOPIC_ATOM_COUNT>
0
> <PUBCHEM_COMPONENT_COUNT>
1
> <PUBCHEM_CACTVS_TAUTO_COUNT>
-1
> <PUBCHEM_COORDINATE_TYPE>
1
5
255
> <PUBCHEM_BONDANNOTATIONS>
10  29  8
10  34  8
11  30  8
11  34  8
15  21  8
15  22  8
20  26  8
20  27  8
21  24  8
22  25  8
23  29  8
23  30  8
24  28  8
25  28  8
26  31  8
27  32  8
31  33  8
32  33  8
12  8  6
$$$$
