504795
  -OEChem-10302200282D
 53 55  0     1  0  0  0  0  0999 V2000
    6.8671    0.5950    0.0000 O   0  0  0  0  0  0  0  0  0  0  0  0
    6.0010    2.0950    0.0000 O   0  0  0  0  0  0  0  0  0  0  0  0
    3.4030   -0.4050    0.0000 O   0  0  0  0  0  0  0  0  0  0  0  0
    6.0010    4.0950    0.0000 O   0  0  0  0  0  0  0  0  0  0  0  0
    4.2690    5.0950    0.0000 O   0  0  0  0  0  0  0  0  0  0  0  0
    2.5369   -3.9050    0.0000 O   0  0  0  0  0  0  0  0  0  0  0  0
    5.1350   -5.4050    0.0000 O   0  5  0  0  0  0  0  0  0  0  0  0
    3.4030   -5.4050    0.0000 O   0  0  0  0  0  0  0  0  0  0  0  0
    5.1350   -0.4050    0.0000 N   0  0  0  0  0  0  0  0  0  0  0  0
    4.2690   -4.9050    0.0000 N   0  3  0  0  0  0  0  0  0  0  0  0
    5.1350    0.5950    0.0000 C   0  0  1  0  0  0  0  0  0  0  0  0
    4.2690    1.0950    0.0000 C   0  0  0  0  0  0  0  0  0  0  0  0
    4.2690    2.0950    0.0000 C   0  0  0  0  0  0  0  0  0  0  0  0
    6.0010    1.0950    0.0000 C   0  0  0  0  0  0  0  0  0  0  0  0
    5.1350    2.5950    0.0000 C   0  0  0  0  0  0  0  0  0  0  0  0
    3.4030    2.5950    0.0000 C   0  0  0  0  0  0  0  0  0  0  0  0
    4.2690   -0.9050    0.0000 C   0  0  0  0  0  0  0  0  0  0  0  0
    4.2690   -1.9050    0.0000 C   0  0  0  0  0  0  0  0  0  0  0  0
    5.1350    3.5950    0.0000 C   0  0  0  0  0  0  0  0  0  0  0  0
    3.4030    3.5950    0.0000 C   0  0  0  0  0  0  0  0  0  0  0  0
    7.7331    1.0950    0.0000 C   0  0  0  0  0  0  0  0  0  0  0  0
    4.2690    4.0950    0.0000 C   0  0  0  0  0  0  0  0  0  0  0  0
    8.5991    0.5950    0.0000 C   0  0  0  0  0  0  0  0  0  0  0  0
    3.4030   -2.4050    0.0000 C   0  0  0  0  0  0  0  0  0  0  0  0
    5.1350   -2.4050    0.0000 C   0  0  0  0  0  0  0  0  0  0  0  0
    3.4030   -3.4050    0.0000 C   0  0  0  0  0  0  0  0  0  0  0  0
    5.1350   -3.4050    0.0000 C   0  0  0  0  0  0  0  0  0  0  0  0
    4.2690   -3.9050    0.0000 C   0  0  0  0  0  0  0  0  0  0  0  0
    9.4651    1.0950    0.0000 C   0  0  0  0  0  0  0  0  0  0  0  0
    8.5991   -0.4050    0.0000 C   0  0  0  0  0  0  0  0  0  0  0  0
   10.3312    0.5950    0.0000 C   0  0  0  0  0  0  0  0  0  0  0  0
    9.4651   -0.9050    0.0000 C   0  0  0  0  0  0  0  0  0  0  0  0
   10.3312   -0.4050    0.0000 C   0  0  0  0  0  0  0  0  0  0  0  0
    5.6720    0.2850    0.0000 H   0  0  0  0  0  0  0  0  0  0  0  0
    3.6584    1.2027    0.0000 H   0  0  0  0  0  0  0  0  0  0  0  0
    4.0569    0.5124    0.0000 H   0  0  0  0  0  0  0  0  0  0  0  0
    5.6720   -0.7150    0.0000 H   0  0  0  0  0  0  0  0  0  0  0  0
    5.6720    2.2850    0.0000 H   0  0  0  0  0  0  0  0  0  0  0  0
    2.8660    2.2850    0.0000 H   0  0  0  0  0  0  0  0  0  0  0  0
    2.8660    3.9050    0.0000 H   0  0  0  0  0  0  0  0  0  0  0  0
    8.1316    1.5700    0.0000 H   0  0  0  0  0  0  0  0  0  0  0  0
    7.3346    1.5700    0.0000 H   0  0  0  0  0  0  0  0  0  0  0  0
    2.8660   -2.0950    0.0000 H   0  0  0  0  0  0  0  0  0  0  0  0
    5.6720   -2.0950    0.0000 H   0  0  0  0  0  0  0  0  0  0  0  0
    5.6720   -3.7150    0.0000 H   0  0  0  0  0  0  0  0  0  0  0  0
    9.4651    1.7150    0.0000 H   0  0  0  0  0  0  0  0  0  0  0  0
    8.0622   -0.7150    0.0000 H   0  0  0  0  0  0  0  0  0  0  0  0
    6.0010    4.7150    0.0000 H   0  0  0  0  0  0  0  0  0  0  0  0
   10.8681    0.9050    0.0000 H   0  0  0  0  0  0  0  0  0  0  0  0
    9.4651   -1.5250    0.0000 H   0  0  0  0  0  0  0  0  0  0  0  0
    3.7320    5.4050    0.0000 H   0  0  0  0  0  0  0  0  0  0  0  0
   10.8681   -0.7150    0.0000 H   0  0  0  0  0  0  0  0  0  0  0  0
    2.0000   -3.5950    0.0000 H   0  0  0  0  0  0  0  0  0  0  0  0
  1 14  1  0  0  0  0
  1 21  1  0  0  0  0
  2 14  2  0  0  0  0
  3 17  2  0  0  0  0
  4 19  1  0  0  0  0
  4 48  1  0  0  0  0
  5 22  1  0  0  0  0
  5 51  1  0  0  0  0
  6 26  1  0  0  0  0
  6 53  1  0  0  0  0
  7 10  1  0  0  0  0
  8 10  2  0  0  0  0
 11  9  1  1  0  0  0
  9 17  1  0  0  0  0
  9 37  1  0  0  0  0
 10 28  1  0  0  0  0
 11 12  1  0  0  0  0
 11 14  1  0  0  0  0
 11 34  1  0  0  0  0
 12 13  1  0  0  0  0
 12 35  1  0  0  0  0
 12 36  1  0  0  0  0
 13 15  2  0  0  0  0
 13 16  1  0  0  0  0
 15 19  1  0  0  0  0
 15 38  1  0  0  0  0
 16 20  2  0  0  0  0
 16 39  1  0  0  0  0
 17 18  1  0  0  0  0
 18 24  2  0  0  0  0
 18 25  1  0  0  0  0
 19 22  2  0  0  0  0
 20 22  1  0  0  0  0
 20 40  1  0  0  0  0
 21 23  1  0  0  0  0
 21 41  1  0  0  0  0
 21 42  1  0  0  0  0
 23 29  2  0  0  0  0
 23 30  1  0  0  0  0
 24 26  1  0  0  0  0
 24 43  1  0  0  0  0
 25 27  2  0  0  0  0
 25 44  1  0  0  0  0
 26 28  2  0  0  0  0
 27 28  1  0  0  0  0
 27 45  1  0  0  0  0
 29 31  1  0  0  0  0
 29 46  1  0  0  0  0
 30 32  2  0  0  0  0
 30 47  1  0  0  0  0
 31 33  2  0  0  0  0
 31 49  1  0  0  0  0
 32 33  1  0  0  0  0
 32 50  1  0  0  0  0
 33 52  1  0  0  0  0
M  CHG  2   7  -1  10   1
M  END
> <PUBCHEM_COMPOUND_CID>
504795
> <PUBCHEM_COMPOUND_CANONICALIZED>
1
> <PUBCHEM_CACTVS_COMPLEXITY>
678
> <PUBCHEM_CACTVS_HBOND_ACCEPTOR>
8
> <PUBCHEM_CACTVS_HBOND_DONOR>
4
> <PUBCHEM_CACTVS_ROTATABLE_BOND>
8
> <PUBCHEM_CACTVS_SUBSKEYS>
AAADceB7PAAAAAAAAAAAAAAAAAAAAAAAAAAwYMAAAAAAAAABUAAAHgAUCAAADCzhmAYwzoLQRgCJAiXSWwCCAAAkIgAoiIGP7MoLJjKStbuHcQlk1lGZ+Ye62bOeKAABAAAAUABQAAIAAACgAAAAAAAAAA==
> <PUBCHEM_IUPAC_OPENEYE_NAME>
benzyl (2S)-3-(3,4-dihydroxyphenyl)-2-[(3-hydroxy-4-nitro-benzoyl)amino]propanoate
> <PUBCHEM_IUPAC_CAS_NAME>
(2S)-3-(3,4-dihydroxyphenyl)-2-[[(3-hydroxy-4-nitrophenyl)-oxomethyl]amino]propanoic acid (phenylmethyl) ester
> <PUBCHEM_IUPAC_NAME_MARKUP>
benzyl (2<I>S</I>)-3-(3,4-dihydroxyphenyl)-2-[(3-hydroxy-4-nitrobenzoyl)amino]propanoate
> <PUBCHEM_IUPAC_NAME>
benzyl (2S)-3-(3,4-dihydroxyphenyl)-2-[(3-hydroxy-4-nitrobenzoyl)amino]propanoate
> <PUBCHEM_IUPAC_SYSTEMATIC_NAME>
(phenylmethyl) (2S)-3-[3,4-bis(oxidanyl)phenyl]-2-[(4-nitro-3-oxidanyl-phenyl)carbonylamino]propanoate
> <PUBCHEM_IUPAC_TRADITIONAL_NAME>
(2S)-3-(3,4-dihydroxyphenyl)-2-[(3-hydroxy-4-nitro-benzoyl)amino]propionic acid benzyl ester
> <PUBCHEM_IUPAC_INCHI>
InChI=1S/C23H20N2O8/c26-19-9-6-15(11-21(19)28)10-17(23(30)33-13-14-4-2-1-3-5-14)24-22(29)16-7-8-18(25(31)32)20(27)12-16/h1-9,11-12,17,26-28H,10,13H2,(H,24,29)/t17-/m0/s1
> <PUBCHEM_IUPAC_INCHIKEY>
YIEAWEBWCBXAFV-KRWDZBQOSA-N
> <PUBCHEM_XLOGP3_AA>
3.9
> <PUBCHEM_EXACT_MASS>
452.12196560
> <PUBCHEM_MOLECULAR_FORMULA>
C23H20N2O8
> <PUBCHEM_MOLECULAR_WEIGHT>
452.4
> <PUBCHEM_OPENEYE_CAN_SMILES>
C1=CC=C(C=C1)COC(=O)C(CC2=CC(=C(C=C2)O)O)NC(=O)C3=CC(=C(C=C3)[N+](=O)[O-])O
> <PUBCHEM_OPENEYE_ISO_SMILES>
C1=CC=C(C=C1)COC(=O)[C@H](CC2=CC(=C(C=C2)O)O)NC(=O)C3=CC(=C(C=C3)[N+](=O)[O-])O
> <PUBCHEM_CACTVS_TPSA>
162
> <PUBCHEM_MONOISOTOPIC_WEIGHT>
452.12196560
> <PUBCHEM_TOTAL_CHARGE>
0
> <PUBCHEM_HEAVY_ATOM_COUNT>
33
> <PUBCHEM_ATOM_DEF_STEREO_COUNT>
1
> <PUBCHEM_ATOM_UDEF_STEREO_COUNT>
0
> <PUBCHEM_BOND_DEF_STEREO_COUNT>
0
> <PUBCHEM_BOND_UDEF_STEREO_COUNT>
0
> <PUBCHEM_ISOTOPIC_ATOM_COUNT>
0
> <PUBCHEM_COMPONENT_COUNT>
1
> <PUBCHEM_CACTVS_TAUTO_COUNT>
-1
> <PUBCHEM_COORDINATE_TYPE>
1
5
255
> <PUBCHEM_BONDANNOTATIONS>
13  15  8
13  16  8
15  19  8
16  20  8
18  24  8
18  25  8
19  22  8
20  22  8
23  29  8
23  30  8
24  26  8
25  27  8
26  28  8
27  28  8
29  31  8
30  32  8
31  33  8
32  33  8
11  9  5
$$$$
