504733
  -OEChem-10302200282D
 41 43  0     1  0  0  0  0  0999 V2000
    8.5386    0.6702    0.0000 O   0  0  0  0  0  0  0  0  0  0  0  0
    6.0006    1.1746    0.0000 O   0  0  0  0  0  0  0  0  0  0  0  0
    7.2824    2.9324    0.0000 O   0  0  0  0  0  0  0  0  0  0  0  0
   10.2632    1.8482    0.0000 O   0  0  0  0  0  0  0  0  0  0  0  0
    5.4641   -3.3924    0.0000 O   0  0  0  0  0  0  0  0  0  0  0  0
    2.8660   -1.8924    0.0000 O   0  0  0  0  0  0  0  0  0  0  0  0
    7.2764   -0.5877    0.0000 N   0  0  0  0  0  0  0  0  0  0  0  0
    5.4641   -0.3925    0.0000 N   0  0  0  0  0  0  0  0  0  0  0  0
    4.5981   -1.8924    0.0000 N   0  0  0  0  0  0  0  0  0  0  0  0
    7.2764   -2.1972    0.0000 N   0  0  0  0  0  0  0  0  0  0  0  0
    7.5870    0.3628    0.0000 C   0  0  1  0  0  0  0  0  0  0  0  0
    7.0006    1.1728    0.0000 C   0  0  1  0  0  0  0  0  0  0  0  0
    7.5898    1.9808    0.0000 C   0  0  1  0  0  0  0  0  0  0  0  0
    8.5403    1.6702    0.0000 C   0  0  1  0  0  0  0  0  0  0  0  0
    6.3301   -0.8925    0.0000 C   0  0  0  0  0  0  0  0  0  0  0  0
    9.3504    2.2566    0.0000 C   0  0  0  0  0  0  0  0  0  0  0  0
    4.5981   -0.8925    0.0000 C   0  0  3  0  0  0  0  0  0  0  0  0
    6.3301   -1.8924    0.0000 C   0  0  0  0  0  0  0  0  0  0  0  0
    7.8600   -1.3924    0.0000 C   0  0  0  0  0  0  0  0  0  0  0  0
    5.4641   -2.3925    0.0000 C   0  0  0  0  0  0  0  0  0  0  0  0
    3.7320   -0.3925    0.0000 C   0  0  0  0  0  0  0  0  0  0  0  0
    2.8660   -0.8925    0.0000 C   0  0  0  0  0  0  0  0  0  0  0  0
    2.0000   -0.3925    0.0000 C   0  0  0  0  0  0  0  0  0  0  0  0
    6.9745    0.2669    0.0000 H   0  0  0  0  0  0  0  0  0  0  0  0
    6.7201    1.7257    0.0000 H   0  0  0  0  0  0  0  0  0  0  0  0
    6.9776    2.0789    0.0000 H   0  0  0  0  0  0  0  0  0  0  0  0
    9.0923    1.3877    0.0000 H   0  0  0  0  0  0  0  0  0  0  0  0
    9.6980    2.7700    0.0000 H   0  0  0  0  0  0  0  0  0  0  0  0
    8.9051    2.6880    0.0000 H   0  0  0  0  0  0  0  0  0  0  0  0
    4.5981   -0.2725    0.0000 H   0  0  0  0  0  0  0  0  0  0  0  0
    5.4641    0.2275    0.0000 H   0  0  0  0  0  0  0  0  0  0  0  0
    8.4800   -1.3924    0.0000 H   0  0  0  0  0  0  0  0  0  0  0  0
    5.6916    1.7120    0.0000 H   0  0  0  0  0  0  0  0  0  0  0  0
    7.6981    3.3924    0.0000 H   0  0  0  0  0  0  0  0  0  0  0  0
    4.0611   -2.2024    0.0000 H   0  0  0  0  0  0  0  0  0  0  0  0
    4.1306    0.0825    0.0000 H   0  0  0  0  0  0  0  0  0  0  0  0
    3.3335    0.0825    0.0000 H   0  0  0  0  0  0  0  0  0  0  0  0
   10.7654    2.2118    0.0000 H   0  0  0  0  0  0  0  0  0  0  0  0
    2.3100    0.1445    0.0000 H   0  0  0  0  0  0  0  0  0  0  0  0
    1.4631   -0.0825    0.0000 H   0  0  0  0  0  0  0  0  0  0  0  0
    1.6900   -0.9294    0.0000 H   0  0  0  0  0  0  0  0  0  0  0  0
  1 11  1  0  0  0  0
  1 14  1  0  0  0  0
 12  2  1  6  0  0  0
  2 33  1  0  0  0  0
 13  3  1  6  0  0  0
  3 34  1  0  0  0  0
  4 16  1  0  0  0  0
  4 38  1  0  0  0  0
  5 20  2  0  0  0  0
  6 22  2  0  0  0  0
 11  7  1  1  0  0  0
  7 15  1  0  0  0  0
  7 19  1  0  0  0  0
  8 15  1  0  0  0  0
  8 17  1  0  0  0  0
  8 31  1  0  0  0  0
  9 17  1  0  0  0  0
  9 20  1  0  0  0  0
  9 35  1  0  0  0  0
 10 18  1  0  0  0  0
 10 19  2  0  0  0  0
 11 12  1  0  0  0  0
 11 24  1  0  0  0  0
 12 13  1  0  0  0  0
 12 25  1  0  0  0  0
 13 14  1  0  0  0  0
 13 26  1  0  0  0  0
 14 16  1  1  0  0  0
 14 27  1  0  0  0  0
 15 18  2  0  0  0  0
 16 28  1  0  0  0  0
 16 29  1  0  0  0  0
 17 21  1  0  0  0  0
 17 30  1  0  0  0  0
 18 20  1  0  0  0  0
 19 32  1  0  0  0  0
 21 22  1  0  0  0  0
 21 36  1  0  0  0  0
 21 37  1  0  0  0  0
 22 23  1  0  0  0  0
 23 39  1  0  0  0  0
 23 40  1  0  0  0  0
 23 41  1  0  0  0  0
M  END
> <PUBCHEM_COMPOUND_CID>
504733
> <PUBCHEM_COMPOUND_CANONICALIZED>
1
> <PUBCHEM_CACTVS_COMPLEXITY>
491
> <PUBCHEM_CACTVS_HBOND_ACCEPTOR>
8
> <PUBCHEM_CACTVS_HBOND_DONOR>
5
> <PUBCHEM_CACTVS_ROTATABLE_BOND>
4
> <PUBCHEM_CACTVS_SUBSKEYS>
AAADceBzuAAAAAAAAAAAAAAAAAAAAWJAAAAsAAAAAAAAAFgBgAAAHgAQCAAACBzhlgYHsBfMFgCoAYdxdACAgC0XEKABUIGoVECDWApAyCAeQIgPFwLTAGDwMAIAAAAAAAAAAAAAAAAAAAAAAAAAAAAAAA==
> <PUBCHEM_IUPAC_OPENEYE_NAME>
2-acetonyl-9-[(2R,3R,4S,5R)-3,4-dihydroxy-5-(hydroxymethyl)tetrahydrofuran-2-yl]-2,3-dihydro-1H-purin-6-one
> <PUBCHEM_IUPAC_CAS_NAME>
9-[(2R,3R,4S,5R)-3,4-dihydroxy-5-(hydroxymethyl)-2-oxolanyl]-2-(2-oxopropyl)-2,3-dihydro-1H-purin-6-one
> <PUBCHEM_IUPAC_NAME_MARKUP>
9-[(2<I>R</I>,3<I>R</I>,4<I>S</I>,5<I>R</I>)-3,4-dihydroxy-5-(hydroxymethyl)oxolan-2-yl]-2-(2-oxopropyl)-2,3-dihydro-1<I>H</I>-purin-6-one
> <PUBCHEM_IUPAC_NAME>
9-[(2R,3R,4S,5R)-3,4-dihydroxy-5-(hydroxymethyl)oxolan-2-yl]-2-(2-oxopropyl)-2,3-dihydro-1H-purin-6-one
> <PUBCHEM_IUPAC_SYSTEMATIC_NAME>
9-[(2R,3R,4S,5R)-5-(hydroxymethyl)-3,4-bis(oxidanyl)oxolan-2-yl]-2-(2-oxidanylidenepropyl)-2,3-dihydro-1H-purin-6-one
> <PUBCHEM_IUPAC_TRADITIONAL_NAME>
2-acetonyl-9-[(2R,3R,4S,5R)-3,4-dihydroxy-5-methylol-tetrahydrofuran-2-yl]-2,3-dihydro-1H-purin-6-one
> <PUBCHEM_IUPAC_INCHI>
InChI=1S/C13H18N4O6/c1-5(19)2-7-15-11-8(12(22)16-7)14-4-17(11)13-10(21)9(20)6(3-18)23-13/h4,6-7,9-10,13,15,18,20-21H,2-3H2,1H3,(H,16,22)/t6-,7?,9-,10-,13-/m1/s1
> <PUBCHEM_IUPAC_INCHIKEY>
RVFUJMUFTQOCMD-XSMYZTMCSA-N
> <PUBCHEM_XLOGP3>
-1.2
> <PUBCHEM_EXACT_MASS>
326.12263431
> <PUBCHEM_MOLECULAR_FORMULA>
C13H18N4O6
> <PUBCHEM_MOLECULAR_WEIGHT>
326.31
> <PUBCHEM_OPENEYE_CAN_SMILES>
CC(=O)CC1NC2=C(C(=O)N1)N=CN2C3C(C(C(O3)CO)O)O
> <PUBCHEM_OPENEYE_ISO_SMILES>
CC(=O)CC1NC2=C(C(=O)N1)N=CN2[C@H]3[C@@H]([C@@H]([C@H](O3)CO)O)O
> <PUBCHEM_CACTVS_TPSA>
146
> <PUBCHEM_MONOISOTOPIC_WEIGHT>
326.12263431
> <PUBCHEM_TOTAL_CHARGE>
0
> <PUBCHEM_HEAVY_ATOM_COUNT>
23
> <PUBCHEM_ATOM_DEF_STEREO_COUNT>
4
> <PUBCHEM_ATOM_UDEF_STEREO_COUNT>
1
> <PUBCHEM_BOND_DEF_STEREO_COUNT>
0
> <PUBCHEM_BOND_UDEF_STEREO_COUNT>
0
> <PUBCHEM_ISOTOPIC_ATOM_COUNT>
0
> <PUBCHEM_COMPONENT_COUNT>
1
> <PUBCHEM_CACTVS_TAUTO_COUNT>
-1
> <PUBCHEM_COORDINATE_TYPE>
1
5
255
> <PUBCHEM_BONDANNOTATIONS>
10  18  8
10  19  8
14  16  5
15  18  8
17  21  3
12  2  6
13  3  6
11  7  5
7  15  8
7  19  8
$$$$
