504745
  -OEChem-10302200282D
 32 34  0     1  0  0  0  0  0999 V2000
    5.1350   -3.8284    0.0000 Cl  0  0  0  0  0  0  0  0  0  0  0  0
    6.6715    0.7369    0.0000 O   0  0  0  0  0  0  0  0  0  0  0  0
    9.0175   -0.3550    0.0000 O   0  0  0  0  0  0  0  0  0  0  0  0
    9.0213    1.8206    0.0000 O   0  0  0  0  0  0  0  0  0  0  0  0
    7.6238    3.2384    0.0000 O   0  0  0  0  0  0  0  0  0  0  0  0
    6.9473   -1.0237    0.0000 N   0  0  0  0  0  0  0  0  0  0  0  0
    6.9473   -2.6332    0.0000 N   0  0  0  0  0  0  0  0  0  0  0  0
    5.1350   -0.8284    0.0000 N   0  0  0  0  0  0  0  0  0  0  0  0
    4.2690   -2.3284    0.0000 N   0  0  0  0  0  0  0  0  0  0  0  0
    8.2095    0.2342    0.0000 C   0  0  1  0  0  0  0  0  0  0  0  0
    7.2579   -0.0732    0.0000 C   0  0  1  0  0  0  0  0  0  0  0  0
    8.2112    1.2342    0.0000 C   0  0  1  0  0  0  0  0  0  0  0  0
    7.2607    1.5449    0.0000 C   0  0  1  0  0  0  0  0  0  0  0  0
    6.9534    2.4964    0.0000 C   0  0  0  0  0  0  0  0  0  0  0  0
    6.0010   -1.3284    0.0000 C   0  0  0  0  0  0  0  0  0  0  0  0
    7.5309   -1.8284    0.0000 C   0  0  0  0  0  0  0  0  0  0  0  0
    6.0010   -2.3284    0.0000 C   0  0  0  0  0  0  0  0  0  0  0  0
    5.1350   -2.8284    0.0000 C   0  0  0  0  0  0  0  0  0  0  0  0
    4.2690   -1.3284    0.0000 C   0  0  0  0  0  0  0  0  0  0  0  0
    3.4030   -0.8284    0.0000 C   0  0  0  0  0  0  0  0  0  0  0  0
    2.5369   -0.3284    0.0000 C   0  0  0  0  0  0  0  0  0  0  0  0
    8.1115   -0.3780    0.0000 H   0  0  0  0  0  0  0  0  0  0  0  0
    6.6454   -0.1691    0.0000 H   0  0  0  0  0  0  0  0  0  0  0  0
    8.7632    0.9518    0.0000 H   0  0  0  0  0  0  0  0  0  0  0  0
    6.6485    1.6429    0.0000 H   0  0  0  0  0  0  0  0  0  0  0  0
    6.5725    2.9857    0.0000 H   0  0  0  0  0  0  0  0  0  0  0  0
    6.4054    2.2063    0.0000 H   0  0  0  0  0  0  0  0  0  0  0  0
    9.5843   -0.1038    0.0000 H   0  0  0  0  0  0  0  0  0  0  0  0
    9.5872    1.5674    0.0000 H   0  0  0  0  0  0  0  0  0  0  0  0
    8.1509   -1.8284    0.0000 H   0  0  0  0  0  0  0  0  0  0  0  0
    7.4332    3.8284    0.0000 H   0  0  0  0  0  0  0  0  0  0  0  0
    2.0000   -0.0184    0.0000 H   0  0  0  0  0  0  0  0  0  0  0  0
  1 18  1  0  0  0  0
  2 11  1  0  0  0  0
  2 13  1  0  0  0  0
 10  3  1  1  0  0  0
  3 28  1  0  0  0  0
 12  4  1  1  0  0  0
  4 29  1  0  0  0  0
  5 14  1  0  0  0  0
  5 31  1  0  0  0  0
 11  6  1  6  0  0  0
  6 15  1  0  0  0  0
  6 16  1  0  0  0  0
  7 16  2  0  0  0  0
  7 17  1  0  0  0  0
  8 15  1  0  0  0  0
  8 19  2  0  0  0  0
  9 18  2  0  0  0  0
  9 19  1  0  0  0  0
 10 11  1  0  0  0  0
 10 12  1  0  0  0  0
 10 22  1  0  0  0  0
 11 23  1  0  0  0  0
 12 13  1  0  0  0  0
 12 24  1  0  0  0  0
 13 14  1  6  0  0  0
 13 25  1  0  0  0  0
 14 26  1  0  0  0  0
 14 27  1  0  0  0  0
 15 17  2  0  0  0  0
 16 30  1  0  0  0  0
 17 18  1  0  0  0  0
 19 20  1  0  0  0  0
 20 21  3  0  0  0  0
 21 32  1  0  0  0  0
M  END
> <PUBCHEM_COMPOUND_CID>
504745
> <PUBCHEM_COMPOUND_CANONICALIZED>
1
> <PUBCHEM_CACTVS_COMPLEXITY>
446
> <PUBCHEM_CACTVS_HBOND_ACCEPTOR>
7
> <PUBCHEM_CACTVS_HBOND_DONOR>
3
> <PUBCHEM_CACTVS_ROTATABLE_BOND>
3
> <PUBCHEM_CACTVS_SUBSKEYS>
AAADccBzuAAEAAAAAAAAAAAAAAAAAWJAAAAsAAAAAAAAAFgB+AAAHgIACAAACB7hlyYF8L8MFgDgGQZhZACAgC0RFKABUCAoVhCDWAJAyEBeRAgPAALTACDwMAIAAAAAAAAAAAAAAAAAAAAAAAAAAAAAAA==
> <PUBCHEM_IUPAC_OPENEYE_NAME>
(2R,3R,4S,5R)-2-(6-chloro-2-ethynyl-purin-9-yl)-5-(hydroxymethyl)tetrahydrofuran-3,4-diol
> <PUBCHEM_IUPAC_CAS_NAME>
(2R,3R,4S,5R)-2-(6-chloro-2-ethynyl-9-purinyl)-5-(hydroxymethyl)oxolane-3,4-diol
> <PUBCHEM_IUPAC_NAME_MARKUP>
(2<I>R</I>,3<I>R</I>,4<I>S</I>,5<I>R</I>)-2-(6-chloro-2-ethynylpurin-9-yl)-5-(hydroxymethyl)oxolane-3,4-diol
> <PUBCHEM_IUPAC_NAME>
(2R,3R,4S,5R)-2-(6-chloro-2-ethynylpurin-9-yl)-5-(hydroxymethyl)oxolane-3,4-diol
> <PUBCHEM_IUPAC_SYSTEMATIC_NAME>
(2R,3R,4S,5R)-2-(6-chloranyl-2-ethynyl-purin-9-yl)-5-(hydroxymethyl)oxolane-3,4-diol
> <PUBCHEM_IUPAC_TRADITIONAL_NAME>
(2R,3R,4S,5R)-2-(6-chloro-2-ethynyl-purin-9-yl)-5-methylol-tetrahydrofuran-3,4-diol
> <PUBCHEM_IUPAC_INCHI>
InChI=1S/C12H11ClN4O4/c1-2-6-15-10(13)7-11(16-6)17(4-14-7)12-9(20)8(19)5(3-18)21-12/h1,4-5,8-9,12,18-20H,3H2/t5-,8-,9-,12-/m1/s1
> <PUBCHEM_IUPAC_INCHIKEY>
JMKNJHOOPLHTFM-JJNLEZRASA-N
> <PUBCHEM_XLOGP3>
0.5
> <PUBCHEM_EXACT_MASS>
310.0468825
> <PUBCHEM_MOLECULAR_FORMULA>
C12H11ClN4O4
> <PUBCHEM_MOLECULAR_WEIGHT>
310.69
> <PUBCHEM_OPENEYE_CAN_SMILES>
C#CC1=NC2=C(C(=N1)Cl)N=CN2C3C(C(C(O3)CO)O)O
> <PUBCHEM_OPENEYE_ISO_SMILES>
C#CC1=NC2=C(C(=N1)Cl)N=CN2[C@H]3[C@@H]([C@@H]([C@H](O3)CO)O)O
> <PUBCHEM_CACTVS_TPSA>
114
> <PUBCHEM_MONOISOTOPIC_WEIGHT>
310.0468825
> <PUBCHEM_TOTAL_CHARGE>
0
> <PUBCHEM_HEAVY_ATOM_COUNT>
21
> <PUBCHEM_ATOM_DEF_STEREO_COUNT>
4
> <PUBCHEM_ATOM_UDEF_STEREO_COUNT>
0
> <PUBCHEM_BOND_DEF_STEREO_COUNT>
0
> <PUBCHEM_BOND_UDEF_STEREO_COUNT>
0
> <PUBCHEM_ISOTOPIC_ATOM_COUNT>
0
> <PUBCHEM_COMPONENT_COUNT>
1
> <PUBCHEM_CACTVS_TAUTO_COUNT>
-1
> <PUBCHEM_COORDINATE_TYPE>
1
5
255
> <PUBCHEM_BONDANNOTATIONS>
13  14  6
15  17  8
17  18  8
10  3  5
12  4  5
11  6  6
6  15  8
6  16  8
7  16  8
7  17  8
8  15  8
8  19  8
9  18  8
9  19  8
$$$$
