504759
  -OEChem-10302200282D
 60 60  0     1  0  0  0  0  0999 V2000
    8.0622    1.0000    0.0000 S   0  0  0  0  0  0  0  0  0  0  0  0
    4.5981    3.0000    0.0000 O   0  0  0  0  0  0  0  0  0  0  0  0
    5.4641   -0.5000    0.0000 O   0  0  0  0  0  0  0  0  0  0  0  0
    2.0000    1.5000    0.0000 O   0  0  0  0  0  0  0  0  0  0  0  0
    6.3301    3.0000    0.0000 N   0  0  0  0  0  0  0  0  0  0  0  0
    4.5981    1.0000    0.0000 N   0  0  0  0  0  0  0  0  0  0  0  0
    3.7320   -1.5000    0.0000 N   0  0  0  0  0  0  0  0  0  0  0  0
    5.4641    1.5000    0.0000 C   0  0  1  0  0  0  0  0  0  0  0  0
    6.3301    4.0000    0.0000 C   0  0  0  0  0  0  0  0  0  0  0  0
    3.7320   -0.5000    0.0000 C   0  0  2  0  0  0  0  0  0  0  0  0
    6.3301    1.0000    0.0000 C   0  0  0  0  0  0  0  0  0  0  0  0
    5.4641    2.5000    0.0000 C   0  0  0  0  0  0  0  0  0  0  0  0
    4.5981    0.0000    0.0000 C   0  0  0  0  0  0  0  0  0  0  0  0
    2.8660    0.0000    0.0000 C   0  0  0  0  0  0  0  0  0  0  0  0
    6.3301    5.0000    0.0000 C   0  0  0  0  0  0  0  0  0  0  0  0
    7.3301    4.0000    0.0000 C   0  0  0  0  0  0  0  0  0  0  0  0
    5.3301    4.0000    0.0000 C   0  0  0  0  0  0  0  0  0  0  0  0
    7.1962    1.5000    0.0000 C   0  0  0  0  0  0  0  0  0  0  0  0
    2.8660   -2.0000    0.0000 C   0  0  0  0  0  0  0  0  0  0  0  0
    2.8660    1.0000    0.0000 C   0  0  0  0  0  0  0  0  0  0  0  0
    2.8660   -3.0000    0.0000 C   0  0  0  0  0  0  0  0  0  0  0  0
    3.7320   -3.5000    0.0000 C   0  0  0  0  0  0  0  0  0  0  0  0
    2.0000   -3.5000    0.0000 C   0  0  0  0  0  0  0  0  0  0  0  0
    8.9282    1.5000    0.0000 C   0  0  0  0  0  0  0  0  0  0  0  0
    3.7320   -4.5000    0.0000 C   0  0  0  0  0  0  0  0  0  0  0  0
    2.0000   -4.5000    0.0000 C   0  0  0  0  0  0  0  0  0  0  0  0
    2.8660   -5.0000    0.0000 C   0  0  0  0  0  0  0  0  0  0  0  0
    5.4641    0.8800    0.0000 H   0  0  0  0  0  0  0  0  0  0  0  0
    4.2690   -0.8100    0.0000 H   0  0  0  0  0  0  0  0  0  0  0  0
    5.9316    0.5251    0.0000 H   0  0  0  0  0  0  0  0  0  0  0  0
    6.7287    0.5251    0.0000 H   0  0  0  0  0  0  0  0  0  0  0  0
    6.8671    2.6900    0.0000 H   0  0  0  0  0  0  0  0  0  0  0  0
    4.0611    1.3100    0.0000 H   0  0  0  0  0  0  0  0  0  0  0  0
    2.2554    0.1077    0.0000 H   0  0  0  0  0  0  0  0  0  0  0  0
    2.6540   -0.5826    0.0000 H   0  0  0  0  0  0  0  0  0  0  0  0
    6.9501    5.0000    0.0000 H   0  0  0  0  0  0  0  0  0  0  0  0
    6.3301    5.6200    0.0000 H   0  0  0  0  0  0  0  0  0  0  0  0
    5.7101    5.0000    0.0000 H   0  0  0  0  0  0  0  0  0  0  0  0
    7.3301    3.3800    0.0000 H   0  0  0  0  0  0  0  0  0  0  0  0
    7.9501    4.0000    0.0000 H   0  0  0  0  0  0  0  0  0  0  0  0
    7.3301    4.6200    0.0000 H   0  0  0  0  0  0  0  0  0  0  0  0
    5.3301    4.6200    0.0000 H   0  0  0  0  0  0  0  0  0  0  0  0
    4.7101    4.0000    0.0000 H   0  0  0  0  0  0  0  0  0  0  0  0
    5.3301    3.3800    0.0000 H   0  0  0  0  0  0  0  0  0  0  0  0
    4.2690   -1.8100    0.0000 H   0  0  0  0  0  0  0  0  0  0  0  0
    7.5947    1.9750    0.0000 H   0  0  0  0  0  0  0  0  0  0  0  0
    6.7976    1.9750    0.0000 H   0  0  0  0  0  0  0  0  0  0  0  0
    2.6540   -1.4174    0.0000 H   0  0  0  0  0  0  0  0  0  0  0  0
    2.2554   -2.1077    0.0000 H   0  0  0  0  0  0  0  0  0  0  0  0
    3.4766    0.8923    0.0000 H   0  0  0  0  0  0  0  0  0  0  0  0
    3.0781    1.5826    0.0000 H   0  0  0  0  0  0  0  0  0  0  0  0
    4.2690   -3.1900    0.0000 H   0  0  0  0  0  0  0  0  0  0  0  0
    1.4631   -3.1900    0.0000 H   0  0  0  0  0  0  0  0  0  0  0  0
    2.0000    2.1200    0.0000 H   0  0  0  0  0  0  0  0  0  0  0  0
    9.2382    0.9631    0.0000 H   0  0  0  0  0  0  0  0  0  0  0  0
    9.4651    1.8100    0.0000 H   0  0  0  0  0  0  0  0  0  0  0  0
    8.6182    2.0369    0.0000 H   0  0  0  0  0  0  0  0  0  0  0  0
    4.2690   -4.8100    0.0000 H   0  0  0  0  0  0  0  0  0  0  0  0
    1.4631   -4.8100    0.0000 H   0  0  0  0  0  0  0  0  0  0  0  0
    2.8660   -5.6200    0.0000 H   0  0  0  0  0  0  0  0  0  0  0  0
  1 18  1  0  0  0  0
  1 24  1  0  0  0  0
  2 12  2  0  0  0  0
  3 13  2  0  0  0  0
  4 20  1  0  0  0  0
  4 54  1  0  0  0  0
  5  9  1  0  0  0  0
  5 12  1  0  0  0  0
  5 32  1  0  0  0  0
  8  6  1  6  0  0  0
  6 13  1  0  0  0  0
  6 33  1  0  0  0  0
 10  7  1  1  0  0  0
  7 19  1  0  0  0  0
  7 45  1  0  0  0  0
  8 11  1  0  0  0  0
  8 12  1  0  0  0  0
  8 28  1  0  0  0  0
  9 15  1  0  0  0  0
  9 16  1  0  0  0  0
  9 17  1  0  0  0  0
 10 13  1  0  0  0  0
 10 14  1  0  0  0  0
 10 29  1  0  0  0  0
 11 18  1  0  0  0  0
 11 30  1  0  0  0  0
 11 31  1  0  0  0  0
 14 20  1  0  0  0  0
 14 34  1  0  0  0  0
 14 35  1  0  0  0  0
 15 36  1  0  0  0  0
 15 37  1  0  0  0  0
 15 38  1  0  0  0  0
 16 39  1  0  0  0  0
 16 40  1  0  0  0  0
 16 41  1  0  0  0  0
 17 42  1  0  0  0  0
 17 43  1  0  0  0  0
 17 44  1  0  0  0  0
 18 46  1  0  0  0  0
 18 47  1  0  0  0  0
 19 21  1  0  0  0  0
 19 48  1  0  0  0  0
 19 49  1  0  0  0  0
 20 50  1  0  0  0  0
 20 51  1  0  0  0  0
 21 22  2  0  0  0  0
 21 23  1  0  0  0  0
 22 25  1  0  0  0  0
 22 52  1  0  0  0  0
 23 26  2  0  0  0  0
 23 53  1  0  0  0  0
 24 55  1  0  0  0  0
 24 56  1  0  0  0  0
 24 57  1  0  0  0  0
 25 27  2  0  0  0  0
 25 58  1  0  0  0  0
 26 27  1  0  0  0  0
 26 59  1  0  0  0  0
 27 60  1  0  0  0  0
M  END
> <PUBCHEM_COMPOUND_CID>
504759
> <PUBCHEM_COMPOUND_CANONICALIZED>
1
> <PUBCHEM_CACTVS_COMPLEXITY>
448
> <PUBCHEM_CACTVS_HBOND_ACCEPTOR>
5
> <PUBCHEM_CACTVS_HBOND_DONOR>
4
> <PUBCHEM_CACTVS_ROTATABLE_BOND>
12
> <PUBCHEM_CACTVS_SUBSKEYS>
AAADcfB7MABAAAAAAAAAAAAAAAAAAAAAAAAwAAAAAAAAAAABAAAAHgQQCAAADKjl2AayAILAAgiIAiFSEACCAAAgABAIiIGIBIgIcDKgkTGUYAhmlgCIiAcygAAOAAAAAAAAAAAAAAAAAAAAAAAAAAAAAA==
> <PUBCHEM_IUPAC_OPENEYE_NAME>
(2S)-2-(benzylamino)-N-[(1S)-1-(tert-butylcarbamoyl)-3-methylsulfanyl-propyl]-4-hydroxy-butanamide
> <PUBCHEM_IUPAC_CAS_NAME>
(2S)-N-[(2S)-1-(tert-butylamino)-4-(methylthio)-1-oxobutan-2-yl]-4-hydroxy-2-[(phenylmethyl)amino]butanamide
> <PUBCHEM_IUPAC_NAME_MARKUP>
(2<I>S</I>)-2-(benzylamino)-<I>N</I>-[(2<I>S</I>)-1-(<I>tert</I>-butylamino)-4-methylsulfanyl-1-oxobutan-2-yl]-4-hydroxybutanamide
> <PUBCHEM_IUPAC_NAME>
(2S)-2-(benzylamino)-N-[(2S)-1-(tert-butylamino)-4-methylsulfanyl-1-oxobutan-2-yl]-4-hydroxybutanamide
> <PUBCHEM_IUPAC_SYSTEMATIC_NAME>
(2S)-N-[(2S)-1-(tert-butylamino)-4-methylsulfanyl-1-oxidanylidene-butan-2-yl]-4-oxidanyl-2-[(phenylmethyl)amino]butanamide
> <PUBCHEM_IUPAC_TRADITIONAL_NAME>
(2S)-2-(benzylamino)-N-[(1S)-1-(tert-butylcarbamoyl)-3-(methylthio)propyl]-4-hydroxy-butyramide
> <PUBCHEM_IUPAC_INCHI>
InChI=1S/C20H33N3O3S/c1-20(2,3)23-19(26)17(11-13-27-4)22-18(25)16(10-12-24)21-14-15-8-6-5-7-9-15/h5-9,16-17,21,24H,10-14H2,1-4H3,(H,22,25)(H,23,26)/t16-,17-/m0/s1
> <PUBCHEM_IUPAC_INCHIKEY>
BXYAPSSBEVXYHP-IRXDYDNUSA-N
> <PUBCHEM_XLOGP3_AA>
1.7
> <PUBCHEM_EXACT_MASS>
395.22426310
> <PUBCHEM_MOLECULAR_FORMULA>
C20H33N3O3S
> <PUBCHEM_MOLECULAR_WEIGHT>
395.6
> <PUBCHEM_OPENEYE_CAN_SMILES>
CC(C)(C)NC(=O)C(CCSC)NC(=O)C(CCO)NCC1=CC=CC=C1
> <PUBCHEM_OPENEYE_ISO_SMILES>
CC(C)(C)NC(=O)[C@H](CCSC)NC(=O)[C@H](CCO)NCC1=CC=CC=C1
> <PUBCHEM_CACTVS_TPSA>
116
> <PUBCHEM_MONOISOTOPIC_WEIGHT>
395.22426310
> <PUBCHEM_TOTAL_CHARGE>
0
> <PUBCHEM_HEAVY_ATOM_COUNT>
27
> <PUBCHEM_ATOM_DEF_STEREO_COUNT>
2
> <PUBCHEM_ATOM_UDEF_STEREO_COUNT>
0
> <PUBCHEM_BOND_DEF_STEREO_COUNT>
0
> <PUBCHEM_BOND_UDEF_STEREO_COUNT>
0
> <PUBCHEM_ISOTOPIC_ATOM_COUNT>
0
> <PUBCHEM_COMPONENT_COUNT>
1
> <PUBCHEM_CACTVS_TAUTO_COUNT>
-1
> <PUBCHEM_COORDINATE_TYPE>
1
5
255
> <PUBCHEM_BONDANNOTATIONS>
21  22  8
21  23  8
22  25  8
23  26  8
25  27  8
26  27  8
8  6  6
10  7  5
$$$$
