504742
  -OEChem-10302200282D
 49 51  0     1  0  0  0  0  0999 V2000
    4.5981   -4.1140    0.0000 Cl  0  0  0  0  0  0  0  0  0  0  0  0
    6.1346    0.4513    0.0000 O   0  0  0  0  0  0  0  0  0  0  0  0
    8.4806   -0.6406    0.0000 O   0  0  0  0  0  0  0  0  0  0  0  0
    8.4843    1.5350    0.0000 O   0  0  0  0  0  0  0  0  0  0  0  0
    5.4386    2.4205    0.0000 O   0  0  0  0  0  0  0  0  0  0  0  0
    9.5011    0.7589    0.0000 O   0  0  0  0  0  0  0  0  0  0  0  0
    7.4687    2.9380    0.0000 O   0  0  0  0  0  0  0  0  0  0  0  0
    5.8017    4.1140    0.0000 O   0  0  0  0  0  0  0  0  0  0  0  0
    6.4103   -1.3093    0.0000 N   0  0  0  0  0  0  0  0  0  0  0  0
    6.4103   -2.9188    0.0000 N   0  0  0  0  0  0  0  0  0  0  0  0
    4.5981   -1.1140    0.0000 N   0  0  0  0  0  0  0  0  0  0  0  0
    3.7320   -2.6140    0.0000 N   0  0  0  0  0  0  0  0  0  0  0  0
    7.6726   -0.0514    0.0000 C   0  0  2  0  0  0  0  0  0  0  0  0
    7.6743    0.9486    0.0000 C   0  0  1  0  0  0  0  0  0  0  0  0
    6.7210   -0.3588    0.0000 C   0  0  1  0  0  0  0  0  0  0  0  0
    6.7238    1.2593    0.0000 C   0  0  1  0  0  0  0  0  0  0  0  0
    6.4164    2.2109    0.0000 C   0  0  0  0  0  0  0  0  0  0  0  0
    5.4641   -1.6140    0.0000 C   0  0  0  0  0  0  0  0  0  0  0  0
    6.9939   -2.1140    0.0000 C   0  0  0  0  0  0  0  0  0  0  0  0
    5.4641   -2.6140    0.0000 C   0  0  0  0  0  0  0  0  0  0  0  0
    9.3948   -0.2354    0.0000 C   0  0  0  0  0  0  0  0  0  0  0  0
    8.3815    2.5297    0.0000 C   0  0  0  0  0  0  0  0  0  0  0  0
    4.5981   -3.1140    0.0000 C   0  0  0  0  0  0  0  0  0  0  0  0
   10.2028   -0.8246    0.0000 C   0  0  0  0  0  0  0  0  0  0  0  0
    5.1313    3.3720    0.0000 C   0  0  0  0  0  0  0  0  0  0  0  0
    9.1916    3.1161    0.0000 C   0  0  0  0  0  0  0  0  0  0  0  0
    3.7320   -1.6140    0.0000 C   0  0  0  0  0  0  0  0  0  0  0  0
    4.1535    3.5816    0.0000 C   0  0  0  0  0  0  0  0  0  0  0  0
    2.8660   -1.1140    0.0000 C   0  0  0  0  0  0  0  0  0  0  0  0
    2.0000   -1.6140    0.0000 C   0  0  0  0  0  0  0  0  0  0  0  0
    8.2255    0.2291    0.0000 H   0  0  0  0  0  0  0  0  0  0  0  0
    8.2262    0.6662    0.0000 H   0  0  0  0  0  0  0  0  0  0  0  0
    6.1085   -0.4547    0.0000 H   0  0  0  0  0  0  0  0  0  0  0  0
    6.1116    1.3573    0.0000 H   0  0  0  0  0  0  0  0  0  0  0  0
    7.0305    2.2961    0.0000 H   0  0  0  0  0  0  0  0  0  0  0  0
    6.4391    2.8304    0.0000 H   0  0  0  0  0  0  0  0  0  0  0  0
    7.6139   -2.1140    0.0000 H   0  0  0  0  0  0  0  0  0  0  0  0
    9.8375   -1.3256    0.0000 H   0  0  0  0  0  0  0  0  0  0  0  0
   10.7038   -1.1899    0.0000 H   0  0  0  0  0  0  0  0  0  0  0  0
   10.5681   -0.3237    0.0000 H   0  0  0  0  0  0  0  0  0  0  0  0
    9.5551    2.6138    0.0000 H   0  0  0  0  0  0  0  0  0  0  0  0
    9.6938    3.4796    0.0000 H   0  0  0  0  0  0  0  0  0  0  0  0
    8.8280    3.6183    0.0000 H   0  0  0  0  0  0  0  0  0  0  0  0
    4.2834    4.1879    0.0000 H   0  0  0  0  0  0  0  0  0  0  0  0
    3.5472    3.7116    0.0000 H   0  0  0  0  0  0  0  0  0  0  0  0
    4.0235    2.9754    0.0000 H   0  0  0  0  0  0  0  0  0  0  0  0
    2.8660   -0.4940    0.0000 H   0  0  0  0  0  0  0  0  0  0  0  0
    1.4631   -1.3040    0.0000 H   0  0  0  0  0  0  0  0  0  0  0  0
    2.0000   -2.2340    0.0000 H   0  0  0  0  0  0  0  0  0  0  0  0
  1 23  1  0  0  0  0
  2 15  1  0  0  0  0
  2 16  1  0  0  0  0
 13  3  1  1  0  0  0
  3 21  1  0  0  0  0
 14  4  1  1  0  0  0
  4 22  1  0  0  0  0
  5 17  1  0  0  0  0
  5 25  1  0  0  0  0
  6 21  2  0  0  0  0
  7 22  2  0  0  0  0
  8 25  2  0  0  0  0
 15  9  1  6  0  0  0
  9 18  1  0  0  0  0
  9 19  1  0  0  0  0
 10 19  2  0  0  0  0
 10 20  1  0  0  0  0
 11 18  1  0  0  0  0
 11 27  2  0  0  0  0
 12 23  2  0  0  0  0
 12 27  1  0  0  0  0
 13 14  1  0  0  0  0
 13 15  1  0  0  0  0
 13 31  1  0  0  0  0
 14 16  1  0  0  0  0
 14 32  1  0  0  0  0
 15 33  1  0  0  0  0
 16 17  1  6  0  0  0
 16 34  1  0  0  0  0
 17 35  1  0  0  0  0
 17 36  1  0  0  0  0
 18 20  2  0  0  0  0
 19 37  1  0  0  0  0
 20 23  1  0  0  0  0
 21 24  1  0  0  0  0
 22 26  1  0  0  0  0
 24 38  1  0  0  0  0
 24 39  1  0  0  0  0
 24 40  1  0  0  0  0
 25 28  1  0  0  0  0
 26 41  1  0  0  0  0
 26 42  1  0  0  0  0
 26 43  1  0  0  0  0
 27 29  1  0  0  0  0
 28 44  1  0  0  0  0
 28 45  1  0  0  0  0
 28 46  1  0  0  0  0
 29 30  2  0  0  0  0
 29 47  1  0  0  0  0
 30 48  1  0  0  0  0
 30 49  1  0  0  0  0
M  END
> <PUBCHEM_COMPOUND_CID>
504742
> <PUBCHEM_COMPOUND_CANONICALIZED>
1
> <PUBCHEM_CACTVS_COMPLEXITY>
695
> <PUBCHEM_CACTVS_HBOND_ACCEPTOR>
10
> <PUBCHEM_CACTVS_HBOND_DONOR>
0
> <PUBCHEM_CACTVS_ROTATABLE_BOND>
9
> <PUBCHEM_CACTVS_SUBSKEYS>
AAADceB7uAAEAAAAAAAAAAAAAAAAAWJAAAAsAAAAAAAAAFgB+AAAHgIAAAAACB7hlyYH+L8MFACoASbzbACAgC0RFKAJUCA4VhCDSAJAyEBfBAgPAALSACDwMAoAAAAAAAAAAAAAAAAAAAAAAAAAAAAAAA==
> <PUBCHEM_IUPAC_OPENEYE_NAME>
[(2R,3R,4R,5R)-3,4-diacetoxy-5-(6-chloro-2-vinyl-purin-9-yl)tetrahydrofuran-2-yl]methyl acetate
> <PUBCHEM_IUPAC_CAS_NAME>
acetic acid [(2R,3R,4R,5R)-3,4-diacetyloxy-5-(6-chloro-2-ethenyl-9-purinyl)-2-oxolanyl]methyl ester
> <PUBCHEM_IUPAC_NAME_MARKUP>
[(2<I>R</I>,3<I>R</I>,4<I>R</I>,5<I>R</I>)-3,4-diacetyloxy-5-(6-chloro-2-ethenylpurin-9-yl)oxolan-2-yl]methyl acetate
> <PUBCHEM_IUPAC_NAME>
[(2R,3R,4R,5R)-3,4-diacetyloxy-5-(6-chloro-2-ethenylpurin-9-yl)oxolan-2-yl]methyl acetate
> <PUBCHEM_IUPAC_SYSTEMATIC_NAME>
[(2R,3R,4R,5R)-3,4-diacetyloxy-5-(6-chloranyl-2-ethenyl-purin-9-yl)oxolan-2-yl]methyl ethanoate
> <PUBCHEM_IUPAC_TRADITIONAL_NAME>
acetic acid [(2R,3R,4R,5R)-3,4-diacetoxy-5-(6-chloro-2-vinyl-purin-9-yl)tetrahydrofuran-2-yl]methyl ester
> <PUBCHEM_IUPAC_INCHI>
InChI=1S/C18H19ClN4O7/c1-5-12-21-16(19)13-17(22-12)23(7-20-13)18-15(29-10(4)26)14(28-9(3)25)11(30-18)6-27-8(2)24/h5,7,11,14-15,18H,1,6H2,2-4H3/t11-,14-,15-,18-/m1/s1
> <PUBCHEM_IUPAC_INCHIKEY>
KUXPZEZZXYUWIJ-XKLVTHTNSA-N
> <PUBCHEM_XLOGP3_AA>
1.4
> <PUBCHEM_EXACT_MASS>
438.0942267
> <PUBCHEM_MOLECULAR_FORMULA>
C18H19ClN4O7
> <PUBCHEM_MOLECULAR_WEIGHT>
438.8
> <PUBCHEM_OPENEYE_CAN_SMILES>
CC(=O)OCC1C(C(C(O1)N2C=NC3=C2N=C(N=C3Cl)C=C)OC(=O)C)OC(=O)C
> <PUBCHEM_OPENEYE_ISO_SMILES>
CC(=O)OC[C@@H]1[C@H]([C@H]([C@@H](O1)N2C=NC3=C2N=C(N=C3Cl)C=C)OC(=O)C)OC(=O)C
> <PUBCHEM_CACTVS_TPSA>
132
> <PUBCHEM_MONOISOTOPIC_WEIGHT>
438.0942267
> <PUBCHEM_TOTAL_CHARGE>
0
> <PUBCHEM_HEAVY_ATOM_COUNT>
30
> <PUBCHEM_ATOM_DEF_STEREO_COUNT>
4
> <PUBCHEM_ATOM_UDEF_STEREO_COUNT>
0
> <PUBCHEM_BOND_DEF_STEREO_COUNT>
0
> <PUBCHEM_BOND_UDEF_STEREO_COUNT>
0
> <PUBCHEM_ISOTOPIC_ATOM_COUNT>
0
> <PUBCHEM_COMPONENT_COUNT>
1
> <PUBCHEM_CACTVS_TAUTO_COUNT>
-1
> <PUBCHEM_COORDINATE_TYPE>
1
5
255
> <PUBCHEM_BONDANNOTATIONS>
10  19  8
10  20  8
11  18  8
11  27  8
12  23  8
12  27  8
16  17  6
18  20  8
20  23  8
13  3  5
14  4  5
15  9  6
9  18  8
9  19  8
$$$$
