504748
  -OEChem-10302200282D
 52 55  0     1  0  0  0  0  0999 V2000
    4.7320   -4.1140    0.0000 Cl  0  0  0  0  0  0  0  0  0  0  0  0
    6.2686    0.4513    0.0000 O   0  0  0  0  0  0  0  0  0  0  0  0
    8.6146   -0.6406    0.0000 O   0  0  0  0  0  0  0  0  0  0  0  0
    8.6183    1.5350    0.0000 O   0  0  0  0  0  0  0  0  0  0  0  0
    5.5726    2.4205    0.0000 O   0  0  0  0  0  0  0  0  0  0  0  0
    9.6350    0.7589    0.0000 O   0  0  0  0  0  0  0  0  0  0  0  0
    7.6027    2.9380    0.0000 O   0  0  0  0  0  0  0  0  0  0  0  0
    5.9356    4.1140    0.0000 O   0  0  0  0  0  0  0  0  0  0  0  0
    6.5443   -1.3093    0.0000 N   0  0  0  0  0  0  0  0  0  0  0  0
    4.7320   -1.1140    0.0000 N   0  0  0  0  0  0  0  0  0  0  0  0
    3.8660   -2.6140    0.0000 N   0  0  0  0  0  0  0  0  0  0  0  0
    6.5443   -2.9188    0.0000 N   0  0  0  0  0  0  0  0  0  0  0  0
    3.0000   -1.1140    0.0000 C   0  0  0  0  0  0  0  0  0  0  0  0
    2.5000   -0.2480    0.0000 C   0  0  0  0  0  0  0  0  0  0  0  0
    2.0000   -1.1140    0.0000 C   0  0  0  0  0  0  0  0  0  0  0  0
    7.8066   -0.0514    0.0000 C   0  0  1  0  0  0  0  0  0  0  0  0
    6.8550   -0.3588    0.0000 C   0  0  1  0  0  0  0  0  0  0  0  0
    7.8083    0.9486    0.0000 C   0  0  1  0  0  0  0  0  0  0  0  0
    6.8578    1.2593    0.0000 C   0  0  1  0  0  0  0  0  0  0  0  0
    3.8660   -1.6140    0.0000 C   0  0  0  0  0  0  0  0  0  0  0  0
    6.5504    2.2109    0.0000 C   0  0  0  0  0  0  0  0  0  0  0  0
    5.5981   -1.6140    0.0000 C   0  0  0  0  0  0  0  0  0  0  0  0
    5.5981   -2.6140    0.0000 C   0  0  0  0  0  0  0  0  0  0  0  0
    7.1279   -2.1140    0.0000 C   0  0  0  0  0  0  0  0  0  0  0  0
    4.7320   -3.1140    0.0000 C   0  0  0  0  0  0  0  0  0  0  0  0
    9.5288   -0.2354    0.0000 C   0  0  0  0  0  0  0  0  0  0  0  0
    8.5155    2.5297    0.0000 C   0  0  0  0  0  0  0  0  0  0  0  0
   10.3368   -0.8246    0.0000 C   0  0  0  0  0  0  0  0  0  0  0  0
    5.2652    3.3720    0.0000 C   0  0  0  0  0  0  0  0  0  0  0  0
    9.3255    3.1161    0.0000 C   0  0  0  0  0  0  0  0  0  0  0  0
    4.2874    3.5816    0.0000 C   0  0  0  0  0  0  0  0  0  0  0  0
    2.8395   -1.7129    0.0000 H   0  0  0  0  0  0  0  0  0  0  0  0
    2.9750    0.1505    0.0000 H   0  0  0  0  0  0  0  0  0  0  0  0
    2.0250    0.1505    0.0000 H   0  0  0  0  0  0  0  0  0  0  0  0
    1.4174   -0.9020    0.0000 H   0  0  0  0  0  0  0  0  0  0  0  0
    1.8923   -1.7246    0.0000 H   0  0  0  0  0  0  0  0  0  0  0  0
    8.3595    0.2291    0.0000 H   0  0  0  0  0  0  0  0  0  0  0  0
    7.2926   -0.7979    0.0000 H   0  0  0  0  0  0  0  0  0  0  0  0
    7.7124    1.5611    0.0000 H   0  0  0  0  0  0  0  0  0  0  0  0
    6.2456    1.3573    0.0000 H   0  0  0  0  0  0  0  0  0  0  0  0
    7.1645    2.2961    0.0000 H   0  0  0  0  0  0  0  0  0  0  0  0
    6.5731    2.8304    0.0000 H   0  0  0  0  0  0  0  0  0  0  0  0
    7.7479   -2.1140    0.0000 H   0  0  0  0  0  0  0  0  0  0  0  0
    9.9715   -1.3256    0.0000 H   0  0  0  0  0  0  0  0  0  0  0  0
   10.8378   -1.1899    0.0000 H   0  0  0  0  0  0  0  0  0  0  0  0
   10.7021   -0.3237    0.0000 H   0  0  0  0  0  0  0  0  0  0  0  0
    9.6891    2.6138    0.0000 H   0  0  0  0  0  0  0  0  0  0  0  0
    9.8278    3.4796    0.0000 H   0  0  0  0  0  0  0  0  0  0  0  0
    8.9620    3.6183    0.0000 H   0  0  0  0  0  0  0  0  0  0  0  0
    4.4174    4.1879    0.0000 H   0  0  0  0  0  0  0  0  0  0  0  0
    3.6812    3.7116    0.0000 H   0  0  0  0  0  0  0  0  0  0  0  0
    4.1575    2.9754    0.0000 H   0  0  0  0  0  0  0  0  0  0  0  0
  1 25  1  0  0  0  0
  2 17  1  0  0  0  0
  2 19  1  0  0  0  0
 16  3  1  1  0  0  0
  3 26  1  0  0  0  0
 18  4  1  1  0  0  0
  4 27  1  0  0  0  0
  5 21  1  0  0  0  0
  5 29  1  0  0  0  0
  6 26  2  0  0  0  0
  7 27  2  0  0  0  0
  8 29  2  0  0  0  0
 17  9  1  6  0  0  0
  9 22  1  0  0  0  0
  9 24  1  0  0  0  0
 10 20  2  0  0  0  0
 10 22  1  0  0  0  0
 11 20  1  0  0  0  0
 11 25  2  0  0  0  0
 12 23  1  0  0  0  0
 12 24  2  0  0  0  0
 13 14  1  0  0  0  0
 13 15  1  0  0  0  0
 13 20  1  0  0  0  0
 13 32  1  0  0  0  0
 14 15  1  0  0  0  0
 14 33  1  0  0  0  0
 14 34  1  0  0  0  0
 15 35  1  0  0  0  0
 15 36  1  0  0  0  0
 16 17  1  0  0  0  0
 16 18  1  0  0  0  0
 16 37  1  0  0  0  0
 17 38  1  0  0  0  0
 18 19  1  0  0  0  0
 18 39  1  0  0  0  0
 19 21  1  6  0  0  0
 19 40  1  0  0  0  0
 21 41  1  0  0  0  0
 21 42  1  0  0  0  0
 22 23  2  0  0  0  0
 23 25  1  0  0  0  0
 24 43  1  0  0  0  0
 26 28  1  0  0  0  0
 27 30  1  0  0  0  0
 28 44  1  0  0  0  0
 28 45  1  0  0  0  0
 28 46  1  0  0  0  0
 29 31  1  0  0  0  0
 30 47  1  0  0  0  0
 30 48  1  0  0  0  0
 30 49  1  0  0  0  0
 31 50  1  0  0  0  0
 31 51  1  0  0  0  0
 31 52  1  0  0  0  0
M  END
> <PUBCHEM_COMPOUND_CID>
504748
> <PUBCHEM_COMPOUND_CANONICALIZED>
1
> <PUBCHEM_CACTVS_COMPLEXITY>
723
> <PUBCHEM_CACTVS_HBOND_ACCEPTOR>
10
> <PUBCHEM_CACTVS_HBOND_DONOR>
0
> <PUBCHEM_CACTVS_ROTATABLE_BOND>
9
> <PUBCHEM_CACTVS_SUBSKEYS>
AAADceB7uAAEAAAAAAAAAAAAGAAAAWJAAAAsAAAAAAAAAFgB+AAAHgIAAAAADR7hlyYH+L8MFACoAQbxbACAgC0RFKABUCA4VhCDSAJAyEBfBAgPAALSACDwMAoAAAAAAAAAAAAAAAAAAAAAAAAAAAAAAA==
> <PUBCHEM_IUPAC_OPENEYE_NAME>
[(2R,3R,4R,5R)-3,4-diacetoxy-5-(6-chloro-2-cyclopropyl-purin-9-yl)tetrahydrofuran-2-yl]methyl acetate
> <PUBCHEM_IUPAC_CAS_NAME>
acetic acid [(2R,3R,4R,5R)-3,4-diacetyloxy-5-(6-chloro-2-cyclopropyl-9-purinyl)-2-oxolanyl]methyl ester
> <PUBCHEM_IUPAC_NAME_MARKUP>
[(2<I>R</I>,3<I>R</I>,4<I>R</I>,5<I>R</I>)-3,4-diacetyloxy-5-(6-chloro-2-cyclopropylpurin-9-yl)oxolan-2-yl]methyl acetate
> <PUBCHEM_IUPAC_NAME>
[(2R,3R,4R,5R)-3,4-diacetyloxy-5-(6-chloro-2-cyclopropylpurin-9-yl)oxolan-2-yl]methyl acetate
> <PUBCHEM_IUPAC_SYSTEMATIC_NAME>
[(2R,3R,4R,5R)-3,4-diacetyloxy-5-(6-chloranyl-2-cyclopropyl-purin-9-yl)oxolan-2-yl]methyl ethanoate
> <PUBCHEM_IUPAC_TRADITIONAL_NAME>
acetic acid [(2R,3R,4R,5R)-3,4-diacetoxy-5-(6-chloro-2-cyclopropyl-purin-9-yl)tetrahydrofuran-2-yl]methyl ester
> <PUBCHEM_IUPAC_INCHI>
InChI=1S/C19H21ClN4O7/c1-8(25)28-6-12-14(29-9(2)26)15(30-10(3)27)19(31-12)24-7-21-13-16(20)22-17(11-4-5-11)23-18(13)24/h7,11-12,14-15,19H,4-6H2,1-3H3/t12-,14-,15-,19-/m1/s1
> <PUBCHEM_IUPAC_INCHIKEY>
AIEDQVYZNFCWIA-QEPJRFBGSA-N
> <PUBCHEM_XLOGP3_AA>
1.2
> <PUBCHEM_EXACT_MASS>
452.1098767
> <PUBCHEM_MOLECULAR_FORMULA>
C19H21ClN4O7
> <PUBCHEM_MOLECULAR_WEIGHT>
452.8
> <PUBCHEM_OPENEYE_CAN_SMILES>
CC(=O)OCC1C(C(C(O1)N2C=NC3=C2N=C(N=C3Cl)C4CC4)OC(=O)C)OC(=O)C
> <PUBCHEM_OPENEYE_ISO_SMILES>
CC(=O)OC[C@@H]1[C@H]([C@H]([C@@H](O1)N2C=NC3=C2N=C(N=C3Cl)C4CC4)OC(=O)C)OC(=O)C
> <PUBCHEM_CACTVS_TPSA>
132
> <PUBCHEM_MONOISOTOPIC_WEIGHT>
452.1098767
> <PUBCHEM_TOTAL_CHARGE>
0
> <PUBCHEM_HEAVY_ATOM_COUNT>
31
> <PUBCHEM_ATOM_DEF_STEREO_COUNT>
4
> <PUBCHEM_ATOM_UDEF_STEREO_COUNT>
0
> <PUBCHEM_BOND_DEF_STEREO_COUNT>
0
> <PUBCHEM_BOND_UDEF_STEREO_COUNT>
0
> <PUBCHEM_ISOTOPIC_ATOM_COUNT>
0
> <PUBCHEM_COMPONENT_COUNT>
1
> <PUBCHEM_CACTVS_TAUTO_COUNT>
-1
> <PUBCHEM_COORDINATE_TYPE>
1
5
255
> <PUBCHEM_BONDANNOTATIONS>
10  20  8
10  22  8
11  20  8
11  25  8
12  23  8
12  24  8
19  21  6
22  23  8
23  25  8
16  3  5
18  4  5
17  9  6
9  22  8
9  24  8
$$$$
