504787
  -OEChem-10302200282D
 96103  0     1  0  0  0  0  0999 V2000
    5.3934   -2.4932    0.0000 O   0  0  0  0  0  0  0  0  0  0  0  0
    4.5274    0.0068    0.0000 O   0  0  0  0  0  0  0  0  0  0  0  0
    4.5274   -0.9932    0.0000 O   0  0  0  0  0  0  0  0  0  0  0  0
    6.2594    5.0068    0.0000 O   0  0  0  0  0  0  0  0  0  0  0  0
    4.5274    6.0068    0.0000 O   0  0  0  0  0  0  0  0  0  0  0  0
    8.6200    1.4773    0.0000 N   0  0  0  0  0  0  0  0  0  0  0  0
    6.2594   -0.9932    0.0000 N   0  0  0  0  0  0  0  0  0  0  0  0
    7.9618    2.9555    0.0000 N   0  0  0  0  0  0  0  0  0  0  0  0
    5.3934    1.5068    0.0000 N   0  0  0  0  0  0  0  0  0  0  0  0
    9.5710    1.1683    0.0000 C   0  0  0  0  0  0  0  0  0  0  0  0
    4.5274   -3.9932    0.0000 C   0  0  0  0  0  0  0  0  0  0  0  0
    7.6254    1.3728    0.0000 C   0  0  0  0  0  0  0  0  0  0  0  0
   10.5221    0.8593    0.0000 C   0  0  0  0  0  0  0  0  0  0  0  0
   10.0405    2.0513    0.0000 C   0  0  0  0  0  0  0  0  0  0  0  0
    9.2620    0.2173    0.0000 C   0  0  0  0  0  0  0  0  0  0  0  0
    5.3364   -4.5810    0.0000 C   0  0  0  0  0  0  0  0  0  0  0  0
    3.7183   -4.5810    0.0000 C   0  0  0  0  0  0  0  0  0  0  0  0
    7.1254    0.5068    0.0000 C   0  0  0  0  0  0  0  0  0  0  0  0
    5.0274   -5.5320    0.0000 C   0  0  0  0  0  0  0  0  0  0  0  0
    4.0274   -5.5320    0.0000 C   0  0  0  0  0  0  0  0  0  0  0  0
    6.2594    0.0068    0.0000 C   0  0  1  0  0  0  0  0  0  0  0  0
    4.5274   -2.9932    0.0000 C   0  0  0  0  0  0  0  0  0  0  0  0
    8.8279    2.4555    0.0000 C   0  0  0  0  0  0  0  0  0  0  0  0
    7.2187    2.2864    0.0000 C   0  0  0  0  0  0  0  0  0  0  0  0
   10.7300   -0.1188    0.0000 C   0  0  0  0  0  0  0  0  0  0  0  0
   11.0399    2.0862    0.0000 C   0  0  0  0  0  0  0  0  0  0  0  0
    9.9311   -0.5259    0.0000 C   0  0  0  0  0  0  0  0  0  0  0  0
   11.2652    1.5284    0.0000 C   0  0  0  0  0  0  0  0  0  0  0  0
    9.5106    2.8993    0.0000 C   0  0  0  0  0  0  0  0  0  0  0  0
    8.2839    0.0093    0.0000 C   0  0  0  0  0  0  0  0  0  0  0  0
    6.3518   -4.3488    0.0000 C   0  0  0  0  0  0  0  0  0  0  0  0
    2.7029   -4.3488    0.0000 C   0  0  0  0  0  0  0  0  0  0  0  0
    5.7123   -6.3168    0.0000 C   0  0  0  0  0  0  0  0  0  0  0  0
    3.3424   -6.3168    0.0000 C   0  0  0  0  0  0  0  0  0  0  0  0
    5.3934    0.5068    0.0000 C   0  0  0  0  0  0  0  0  0  0  0  0
    7.0547   -5.1174    0.0000 C   0  0  0  0  0  0  0  0  0  0  0  0
    2.0000   -5.1174    0.0000 C   0  0  0  0  0  0  0  0  0  0  0  0
    6.7328   -6.1081    0.0000 C   0  0  0  0  0  0  0  0  0  0  0  0
    2.3219   -6.1081    0.0000 C   0  0  0  0  0  0  0  0  0  0  0  0
    5.3934   -1.4932    0.0000 C   0  0  0  0  0  0  0  0  0  0  0  0
   11.6810   -0.4279    0.0000 C   0  0  0  0  0  0  0  0  0  0  0  0
   11.5093    2.9691    0.0000 C   0  0  0  0  0  0  0  0  0  0  0  0
    9.6221   -1.4769    0.0000 C   0  0  0  0  0  0  0  0  0  0  0  0
   12.2163    1.2194    0.0000 C   0  0  0  0  0  0  0  0  0  0  0  0
    9.9800    3.7823    0.0000 C   0  0  0  0  0  0  0  0  0  0  0  0
    7.9749   -0.9417    0.0000 C   0  0  0  0  0  0  0  0  0  0  0  0
   12.4242    0.2413    0.0000 C   0  0  0  0  0  0  0  0  0  0  0  0
   10.9794    3.8172    0.0000 C   0  0  0  0  0  0  0  0  0  0  0  0
    8.6440   -1.6848    0.0000 C   0  0  0  0  0  0  0  0  0  0  0  0
    4.5274    2.0068    0.0000 C   0  0  0  0  0  0  0  0  0  0  0  0
    4.5274    3.0068    0.0000 C   0  0  0  0  0  0  0  0  0  0  0  0
    5.3934    3.5068    0.0000 C   0  0  0  0  0  0  0  0  0  0  0  0
    3.6613    3.5068    0.0000 C   0  0  0  0  0  0  0  0  0  0  0  0
    5.3934    4.5068    0.0000 C   0  0  0  0  0  0  0  0  0  0  0  0
    3.6613    4.5068    0.0000 C   0  0  0  0  0  0  0  0  0  0  0  0
    4.5274    5.0068    0.0000 C   0  0  0  0  0  0  0  0  0  0  0  0
    5.0798   -3.7117    0.0000 H   0  0  0  0  0  0  0  0  0  0  0  0
    7.2331   -0.1038    0.0000 H   0  0  0  0  0  0  0  0  0  0  0  0
    6.6870    0.9452    0.0000 H   0  0  0  0  0  0  0  0  0  0  0  0
    6.7964   -0.3032    0.0000 H   0  0  0  0  0  0  0  0  0  0  0  0
    4.3153   -2.4106    0.0000 H   0  0  0  0  0  0  0  0  0  0  0  0
    3.9168   -3.1009    0.0000 H   0  0  0  0  0  0  0  0  0  0  0  0
    9.3943    2.7077    0.0000 H   0  0  0  0  0  0  0  0  0  0  0  0
    6.6122    2.4153    0.0000 H   0  0  0  0  0  0  0  0  0  0  0  0
   10.2692   -0.5337    0.0000 H   0  0  0  0  0  0  0  0  0  0  0  0
   11.3684    1.5604    0.0000 H   0  0  0  0  0  0  0  0  0  0  0  0
   10.5376   -0.3970    0.0000 H   0  0  0  0  0  0  0  0  0  0  0  0
   11.1363    2.1349    0.0000 H   0  0  0  0  0  0  0  0  0  0  0  0
    8.8909    2.8777    0.0000 H   0  0  0  0  0  0  0  0  0  0  0  0
    7.8691    0.4701    0.0000 H   0  0  0  0  0  0  0  0  0  0  0  0
    6.5365   -3.7569    0.0000 H   0  0  0  0  0  0  0  0  0  0  0  0
    2.5182   -3.7569    0.0000 H   0  0  0  0  0  0  0  0  0  0  0  0
    5.5139   -6.9042    0.0000 H   0  0  0  0  0  0  0  0  0  0  0  0
    3.5408   -6.9042    0.0000 H   0  0  0  0  0  0  0  0  0  0  0  0
    6.7964   -1.3032    0.0000 H   0  0  0  0  0  0  0  0  0  0  0  0
    7.6607   -4.9862    0.0000 H   0  0  0  0  0  0  0  0  0  0  0  0
    1.3940   -4.9862    0.0000 H   0  0  0  0  0  0  0  0  0  0  0  0
    7.1459   -6.5704    0.0000 H   0  0  0  0  0  0  0  0  0  0  0  0
    1.9088   -6.5704    0.0000 H   0  0  0  0  0  0  0  0  0  0  0  0
   11.8099   -1.0343    0.0000 H   0  0  0  0  0  0  0  0  0  0  0  0
   12.1290    2.9908    0.0000 H   0  0  0  0  0  0  0  0  0  0  0  0
   10.0370   -1.9377    0.0000 H   0  0  0  0  0  0  0  0  0  0  0  0
   12.6770    1.6343    0.0000 H   0  0  0  0  0  0  0  0  0  0  0  0
    9.6515    4.3081    0.0000 H   0  0  0  0  0  0  0  0  0  0  0  0
    7.3684   -1.0706    0.0000 H   0  0  0  0  0  0  0  0  0  0  0  0
   13.0138    0.0497    0.0000 H   0  0  0  0  0  0  0  0  0  0  0  0
   11.2705    4.3646    0.0000 H   0  0  0  0  0  0  0  0  0  0  0  0
    8.4524   -2.2745    0.0000 H   0  0  0  0  0  0  0  0  0  0  0  0
    5.9303    1.8168    0.0000 H   0  0  0  0  0  0  0  0  0  0  0  0
    3.9168    2.1144    0.0000 H   0  0  0  0  0  0  0  0  0  0  0  0
    4.3153    1.4242    0.0000 H   0  0  0  0  0  0  0  0  0  0  0  0
    5.9303    3.1968    0.0000 H   0  0  0  0  0  0  0  0  0  0  0  0
    3.1244    3.1968    0.0000 H   0  0  0  0  0  0  0  0  0  0  0  0
    3.1244    4.8168    0.0000 H   0  0  0  0  0  0  0  0  0  0  0  0
    6.2594    5.6268    0.0000 H   0  0  0  0  0  0  0  0  0  0  0  0
    3.9904    6.3168    0.0000 H   0  0  0  0  0  0  0  0  0  0  0  0
  1 22  1  0  0  0  0
  1 40  1  0  0  0  0
  2 35  2  0  0  0  0
  3 40  2  0  0  0  0
  4 54  1  0  0  0  0
  4 95  1  0  0  0  0
  5 56  1  0  0  0  0
  5 96  1  0  0  0  0
  6 10  1  0  0  0  0
  6 12  1  0  0  0  0
  6 23  1  0  0  0  0
 21  7  1  6  0  0  0
  7 40  1  0  0  0  0
  7 75  1  0  0  0  0
  8 23  2  0  0  0  0
  8 24  1  0  0  0  0
  9 35  1  0  0  0  0
  9 50  1  0  0  0  0
  9 89  1  0  0  0  0
 10 13  1  0  0  0  0
 10 14  1  0  0  0  0
 10 15  1  0  0  0  0
 11 16  1  0  0  0  0
 11 17  1  0  0  0  0
 11 22  1  0  0  0  0
 11 57  1  0  0  0  0
 12 18  1  0  0  0  0
 12 24  2  0  0  0  0
 13 25  2  0  0  0  0
 13 28  1  0  0  0  0
 14 26  2  0  0  0  0
 14 29  1  0  0  0  0
 15 27  2  0  0  0  0
 15 30  1  0  0  0  0
 16 19  1  0  0  0  0
 16 31  2  0  0  0  0
 17 20  1  0  0  0  0
 17 32  2  0  0  0  0
 18 21  1  0  0  0  0
 18 58  1  0  0  0  0
 18 59  1  0  0  0  0
 19 20  1  0  0  0  0
 19 33  2  0  0  0  0
 20 34  2  0  0  0  0
 21 35  1  0  0  0  0
 21 60  1  0  0  0  0
 22 61  1  0  0  0  0
 22 62  1  0  0  0  0
 23 63  1  0  0  0  0
 24 64  1  0  0  0  0
 25 41  1  0  0  0  0
 25 65  1  0  0  0  0
 26 42  1  0  0  0  0
 26 66  1  0  0  0  0
 27 43  1  0  0  0  0
 27 67  1  0  0  0  0
 28 44  2  0  0  0  0
 28 68  1  0  0  0  0
 29 45  2  0  0  0  0
 29 69  1  0  0  0  0
 30 46  2  0  0  0  0
 30 70  1  0  0  0  0
 31 36  1  0  0  0  0
 31 71  1  0  0  0  0
 32 37  1  0  0  0  0
 32 72  1  0  0  0  0
 33 38  1  0  0  0  0
 33 73  1  0  0  0  0
 34 39  1  0  0  0  0
 34 74  1  0  0  0  0
 36 38  2  0  0  0  0
 36 76  1  0  0  0  0
 37 39  2  0  0  0  0
 37 77  1  0  0  0  0
 38 78  1  0  0  0  0
 39 79  1  0  0  0  0
 41 47  2  0  0  0  0
 41 80  1  0  0  0  0
 42 48  2  0  0  0  0
 42 81  1  0  0  0  0
 43 49  2  0  0  0  0
 43 82  1  0  0  0  0
 44 47  1  0  0  0  0
 44 83  1  0  0  0  0
 45 48  1  0  0  0  0
 45 84  1  0  0  0  0
 46 49  1  0  0  0  0
 46 85  1  0  0  0  0
 47 86  1  0  0  0  0
 48 87  1  0  0  0  0
 49 88  1  0  0  0  0
 50 51  1  0  0  0  0
 50 90  1  0  0  0  0
 50 91  1  0  0  0  0
 51 52  2  0  0  0  0
 51 53  1  0  0  0  0
 52 54  1  0  0  0  0
 52 92  1  0  0  0  0
 53 55  2  0  0  0  0
 53 93  1  0  0  0  0
 54 56  2  0  0  0  0
 55 56  1  0  0  0  0
 55 94  1  0  0  0  0
M  END
> <PUBCHEM_COMPOUND_CID>
504787
> <PUBCHEM_COMPOUND_CANONICALIZED>
1
> <PUBCHEM_CACTVS_COMPLEXITY>
1200
> <PUBCHEM_CACTVS_HBOND_ACCEPTOR>
6
> <PUBCHEM_CACTVS_HBOND_DONOR>
4
> <PUBCHEM_CACTVS_ROTATABLE_BOND>
13
> <PUBCHEM_CACTVS_SUBSKEYS>
AAADcfB/uAAAAAAAAAAAAAAAAAAAAeIAAAAwYMGDAAAAAGAB1AAAHgAQCAAADazhngY9npfMFgCoAzV3fACCgC0xMqAJ2IG+/ImJbjLC2TOccAls1hPJ2Ce80fIOoAABAAAQQABAAAIAACCAAQAACAAAAA==
> <PUBCHEM_IUPAC_OPENEYE_NAME>
9H-fluoren-9-ylmethyl N-[(1S)-2-[(3,4-dihydroxyphenyl)methylamino]-2-oxo-1-[(3-tritylimidazol-4-yl)methyl]ethyl]carbamate
> <PUBCHEM_IUPAC_CAS_NAME>
N-[(2S)-1-[(3,4-dihydroxyphenyl)methylamino]-1-oxo-3-[3-(triphenylmethyl)-4-imidazolyl]propan-2-yl]carbamic acid 9H-fluoren-9-ylmethyl ester
> <PUBCHEM_IUPAC_NAME_MARKUP>
9<I>H</I>-fluoren-9-ylmethyl <I>N</I>-[(2<I>S</I>)-1-[(3,4-dihydroxyphenyl)methylamino]-1-oxo-3-(3-tritylimidazol-4-yl)propan-2-yl]carbamate
> <PUBCHEM_IUPAC_NAME>
9H-fluoren-9-ylmethyl N-[(2S)-1-[(3,4-dihydroxyphenyl)methylamino]-1-oxo-3-(3-tritylimidazol-4-yl)propan-2-yl]carbamate
> <PUBCHEM_IUPAC_SYSTEMATIC_NAME>
9H-fluoren-9-ylmethyl N-[(2S)-1-[[3,4-bis(oxidanyl)phenyl]methylamino]-1-oxidanylidene-3-[3-(triphenylmethyl)imidazol-4-yl]propan-2-yl]carbamate
> <PUBCHEM_IUPAC_TRADITIONAL_NAME>
N-[(1S)-2-keto-2-(protocatechuylamino)-1-[(3-tritylimidazol-4-yl)methyl]ethyl]carbamic acid 9H-fluoren-9-ylmethyl ester
> <PUBCHEM_IUPAC_INCHI>
InChI=1S/C47H40N4O5/c52-43-25-24-32(26-44(43)53)28-49-45(54)42(50-46(55)56-30-41-39-22-12-10-20-37(39)38-21-11-13-23-40(38)41)27-36-29-48-31-51(36)47(33-14-4-1-5-15-33,34-16-6-2-7-17-34)35-18-8-3-9-19-35/h1-26,29,31,41-42,52-53H,27-28,30H2,(H,49,54)(H,50,55)/t42-/m0/s1
> <PUBCHEM_IUPAC_INCHIKEY>
HAOXXUWNELKPOM-WBCKFURZSA-N
> <PUBCHEM_XLOGP3_AA>
8.1
> <PUBCHEM_EXACT_MASS>
740.29987039
> <PUBCHEM_MOLECULAR_FORMULA>
C47H40N4O5
> <PUBCHEM_MOLECULAR_WEIGHT>
740.8
> <PUBCHEM_OPENEYE_CAN_SMILES>
C1=CC=C(C=C1)C(C2=CC=CC=C2)(C3=CC=CC=C3)N4C=NC=C4CC(C(=O)NCC5=CC(=C(C=C5)O)O)NC(=O)OCC6C7=CC=CC=C7C8=CC=CC=C68
> <PUBCHEM_OPENEYE_ISO_SMILES>
C1=CC=C(C=C1)C(C2=CC=CC=C2)(C3=CC=CC=C3)N4C=NC=C4C[C@@H](C(=O)NCC5=CC(=C(C=C5)O)O)NC(=O)OCC6C7=CC=CC=C7C8=CC=CC=C68
> <PUBCHEM_CACTVS_TPSA>
126
> <PUBCHEM_MONOISOTOPIC_WEIGHT>
740.29987039
> <PUBCHEM_TOTAL_CHARGE>
0
> <PUBCHEM_HEAVY_ATOM_COUNT>
56
> <PUBCHEM_ATOM_DEF_STEREO_COUNT>
1
> <PUBCHEM_ATOM_UDEF_STEREO_COUNT>
0
> <PUBCHEM_BOND_DEF_STEREO_COUNT>
0
> <PUBCHEM_BOND_UDEF_STEREO_COUNT>
0
> <PUBCHEM_ISOTOPIC_ATOM_COUNT>
0
> <PUBCHEM_COMPONENT_COUNT>
1
> <PUBCHEM_CACTVS_TAUTO_COUNT>
-1
> <PUBCHEM_COORDINATE_TYPE>
1
5
255
> <PUBCHEM_BONDANNOTATIONS>
12  24  8
13  25  8
13  28  8
14  26  8
14  29  8
15  27  8
15  30  8
16  19  8
16  31  8
17  20  8
17  32  8
19  33  8
20  34  8
25  41  8
26  42  8
27  43  8
28  44  8
29  45  8
30  46  8
31  36  8
32  37  8
33  38  8
34  39  8
36  38  8
37  39  8
41  47  8
42  48  8
43  49  8
44  47  8
45  48  8
46  49  8
51  52  8
51  53  8
52  54  8
53  55  8
54  56  8
55  56  8
6  12  8
6  23  8
21  7  6
8  23  8
8  24  8
$$$$
