504788
  -OEChem-10302200282D
 64 67  0     1  0  0  0  0  0999 V2000
    5.9423    1.0569    0.0000 O   0  0  0  0  0  0  0  0  0  0  0  0
    7.5171   -2.1866    0.0000 O   0  0  0  0  0  0  0  0  0  0  0  0
    2.0000   -2.6782    0.0000 O   0  5  0  0  0  0  0  0  0  0  0  0
    2.8660   -1.1782    0.0000 O   0  0  0  0  0  0  0  0  0  0  0  0
   10.8170    3.1154    0.0000 O   0  0  0  0  0  0  0  0  0  0  0  0
   11.6487   -0.7972    0.0000 O   0  0  0  0  0  0  0  0  0  0  0  0
   10.4012    5.0717    0.0000 O   0  0  0  0  0  0  0  0  0  0  0  0
   12.0645   -2.7535    0.0000 O   0  0  0  0  0  0  0  0  0  0  0  0
    5.4641   -5.6781    0.0000 O   0  5  0  0  0  0  0  0  0  0  0  0
    3.7320   -5.6781    0.0000 O   0  0  0  0  0  0  0  0  0  0  0  0
    4.5981   -1.1782    0.0000 N   0  0  0  0  0  0  0  0  0  0  0  0
    8.0524   -0.5393    0.0000 N   0  0  0  0  0  0  0  0  0  0  0  0
    7.6365    1.4170    0.0000 N   0  0  0  0  0  0  0  0  0  0  0  0
    4.0981    0.3607    0.0000 N   0  0  0  0  0  0  0  0  0  0  0  0
    2.8660   -2.1782    0.0000 N   0  3  0  0  0  0  0  0  0  0  0  0
    4.5981   -5.1781    0.0000 N   0  3  0  0  0  0  0  0  0  0  0  0
    7.1013   -0.2302    0.0000 C   0  0  1  0  0  0  0  0  0  0  0  0
    6.3582   -0.8994    0.0000 C   0  0  0  0  0  0  0  0  0  0  0  0
    5.4071   -0.5904    0.0000 C   0  0  0  0  0  0  0  0  0  0  0  0
    6.8934    0.7479    0.0000 C   0  0  0  0  0  0  0  0  0  0  0  0
    4.5981   -2.1782    0.0000 C   0  0  0  0  0  0  0  0  0  0  0  0
    5.0981    0.3607    0.0000 C   0  0  0  0  0  0  0  0  0  0  0  0
    3.7891   -0.5904    0.0000 C   0  0  0  0  0  0  0  0  0  0  0  0
    7.4286    2.3952    0.0000 C   0  0  0  0  0  0  0  0  0  0  0  0
    3.7320   -2.6782    0.0000 C   0  0  0  0  0  0  0  0  0  0  0  0
    8.2603   -1.5174    0.0000 C   0  0  0  0  0  0  0  0  0  0  0  0
    5.4641   -2.6782    0.0000 C   0  0  0  0  0  0  0  0  0  0  0  0
    8.1718    3.0643    0.0000 C   0  0  0  0  0  0  0  0  0  0  0  0
    9.2113   -1.8264    0.0000 C   0  0  0  0  0  0  0  0  0  0  0  0
    3.7320   -3.6782    0.0000 C   0  0  0  0  0  0  0  0  0  0  0  0
    5.4641   -3.6782    0.0000 C   0  0  0  0  0  0  0  0  0  0  0  0
    4.5981   -4.1781    0.0000 C   0  0  0  0  0  0  0  0  0  0  0  0
    9.1228    2.7553    0.0000 C   0  0  0  0  0  0  0  0  0  0  0  0
    7.9638    4.0424    0.0000 C   0  0  0  0  0  0  0  0  0  0  0  0
    9.9545   -1.1573    0.0000 C   0  0  0  0  0  0  0  0  0  0  0  0
    9.4192   -2.8046    0.0000 C   0  0  0  0  0  0  0  0  0  0  0  0
    9.8660    3.4244    0.0000 C   0  0  0  0  0  0  0  0  0  0  0  0
    8.7070    4.7116    0.0000 C   0  0  0  0  0  0  0  0  0  0  0  0
   10.9055   -1.4663    0.0000 C   0  0  0  0  0  0  0  0  0  0  0  0
    9.6580    4.4026    0.0000 C   0  0  0  0  0  0  0  0  0  0  0  0
   10.3703   -3.1136    0.0000 C   0  0  0  0  0  0  0  0  0  0  0  0
   11.1134   -2.4445    0.0000 C   0  0  0  0  0  0  0  0  0  0  0  0
    7.2302   -0.8367    0.0000 H   0  0  0  0  0  0  0  0  0  0  0  0
    6.0671   -1.4468    0.0000 H   0  0  0  0  0  0  0  0  0  0  0  0
    6.8467   -1.2811    0.0000 H   0  0  0  0  0  0  0  0  0  0  0  0
    8.5131   -0.1244    0.0000 H   0  0  0  0  0  0  0  0  0  0  0  0
    5.4625    0.8623    0.0000 H   0  0  0  0  0  0  0  0  0  0  0  0
    3.1994   -0.7820    0.0000 H   0  0  0  0  0  0  0  0  0  0  0  0
    8.2262    1.2254    0.0000 H   0  0  0  0  0  0  0  0  0  0  0  0
    7.1001    2.9210    0.0000 H   0  0  0  0  0  0  0  0  0  0  0  0
    6.8538    2.1629    0.0000 H   0  0  0  0  0  0  0  0  0  0  0  0
    6.0010   -2.3682    0.0000 H   0  0  0  0  0  0  0  0  0  0  0  0
    3.1951   -3.9882    0.0000 H   0  0  0  0  0  0  0  0  0  0  0  0
    6.0010   -3.9882    0.0000 H   0  0  0  0  0  0  0  0  0  0  0  0
    9.2517    2.1488    0.0000 H   0  0  0  0  0  0  0  0  0  0  0  0
    7.3742    4.2340    0.0000 H   0  0  0  0  0  0  0  0  0  0  0  0
    9.8256   -0.5508    0.0000 H   0  0  0  0  0  0  0  0  0  0  0  0
    8.9585   -3.2194    0.0000 H   0  0  0  0  0  0  0  0  0  0  0  0
    8.5781    5.3180    0.0000 H   0  0  0  0  0  0  0  0  0  0  0  0
   10.4992   -3.7200    0.0000 H   0  0  0  0  0  0  0  0  0  0  0  0
   11.2778    3.5303    0.0000 H   0  0  0  0  0  0  0  0  0  0  0  0
   12.2383   -0.9888    0.0000 H   0  0  0  0  0  0  0  0  0  0  0  0
   10.2723    5.6781    0.0000 H   0  0  0  0  0  0  0  0  0  0  0  0
   12.1934   -3.3599    0.0000 H   0  0  0  0  0  0  0  0  0  0  0  0
  1 20  2  0  0  0  0
  2 26  2  0  0  0  0
  3 15  1  0  0  0  0
  4 15  2  0  0  0  0
  5 37  1  0  0  0  0
  5 61  1  0  0  0  0
  6 39  1  0  0  0  0
  6 62  1  0  0  0  0
  7 40  1  0  0  0  0
  7 63  1  0  0  0  0
  8 42  1  0  0  0  0
  8 64  1  0  0  0  0
  9 16  1  0  0  0  0
 10 16  2  0  0  0  0
 11 19  1  0  0  0  0
 11 21  1  0  0  0  0
 11 23  1  0  0  0  0
 17 12  1  1  0  0  0
 12 26  1  0  0  0  0
 12 46  1  0  0  0  0
 13 20  1  0  0  0  0
 13 24  1  0  0  0  0
 13 49  1  0  0  0  0
 14 22  1  0  0  0  0
 14 23  2  0  0  0  0
 15 25  1  0  0  0  0
 16 32  1  0  0  0  0
 17 18  1  0  0  0  0
 17 20  1  0  0  0  0
 17 43  1  0  0  0  0
 18 19  1  0  0  0  0
 18 44  1  0  0  0  0
 18 45  1  0  0  0  0
 19 22  2  0  0  0  0
 21 25  2  0  0  0  0
 21 27  1  0  0  0  0
 22 47  1  0  0  0  0
 23 48  1  0  0  0  0
 24 28  1  0  0  0  0
 24 50  1  0  0  0  0
 24 51  1  0  0  0  0
 25 30  1  0  0  0  0
 26 29  1  0  0  0  0
 27 31  2  0  0  0  0
 27 52  1  0  0  0  0
 28 33  2  0  0  0  0
 28 34  1  0  0  0  0
 29 35  2  0  0  0  0
 29 36  1  0  0  0  0
 30 32  2  0  0  0  0
 30 53  1  0  0  0  0
 31 32  1  0  0  0  0
 31 54  1  0  0  0  0
 33 37  1  0  0  0  0
 33 55  1  0  0  0  0
 34 38  2  0  0  0  0
 34 56  1  0  0  0  0
 35 39  1  0  0  0  0
 35 57  1  0  0  0  0
 36 41  2  0  0  0  0
 36 58  1  0  0  0  0
 37 40  2  0  0  0  0
 38 40  1  0  0  0  0
 38 59  1  0  0  0  0
 39 42  2  0  0  0  0
 41 42  1  0  0  0  0
 41 60  1  0  0  0  0
M  CHG  4   3  -1   9  -1  15   1  16   1
M  END
> <PUBCHEM_COMPOUND_CID>
504788
> <PUBCHEM_COMPOUND_CANONICALIZED>
1
> <PUBCHEM_CACTVS_COMPLEXITY>
978
> <PUBCHEM_CACTVS_HBOND_ACCEPTOR>
11
> <PUBCHEM_CACTVS_HBOND_DONOR>
6
> <PUBCHEM_CACTVS_ROTATABLE_BOND>
8
> <PUBCHEM_CACTVS_SUBSKEYS>
AAADceB7vAAAAAAAAAAAAAAAAAAAAWAAAAAwYMAAAAAAAAAB1AAAHgAUCAAADCzBngQ91pfcUgCpAzV3dwCCgC01MqAp2IG+/MqJbnLC3fOUcQls1pPJ2ae+3RLOIACBAAQAQCBAAQIACACAQAAAAAAAAA==
> <PUBCHEM_IUPAC_OPENEYE_NAME>
N-[(1S)-2-[(3,4-dihydroxyphenyl)methylamino]-1-[[3-(2,4-dinitrophenyl)imidazol-4-yl]methyl]-2-oxo-ethyl]-3,4-dihydroxy-benzamide
> <PUBCHEM_IUPAC_CAS_NAME>
N-[(2S)-1-[(3,4-dihydroxyphenyl)methylamino]-3-[3-(2,4-dinitrophenyl)-4-imidazolyl]-1-oxopropan-2-yl]-3,4-dihydroxybenzamide
> <PUBCHEM_IUPAC_NAME_MARKUP>
<I>N</I>-[(2<I>S</I>)-1-[(3,4-dihydroxyphenyl)methylamino]-3-[3-(2,4-dinitrophenyl)imidazol-4-yl]-1-oxopropan-2-yl]-3,4-dihydroxybenzamide
> <PUBCHEM_IUPAC_NAME>
N-[(2S)-1-[(3,4-dihydroxyphenyl)methylamino]-3-[3-(2,4-dinitrophenyl)imidazol-4-yl]-1-oxopropan-2-yl]-3,4-dihydroxybenzamide
> <PUBCHEM_IUPAC_SYSTEMATIC_NAME>
N-[(2S)-1-[[3,4-bis(oxidanyl)phenyl]methylamino]-3-[3-(2,4-dinitrophenyl)imidazol-4-yl]-1-oxidanylidene-propan-2-yl]-3,4-bis(oxidanyl)benzamide
> <PUBCHEM_IUPAC_TRADITIONAL_NAME>
N-[(1S)-1-[[3-(2,4-dinitrophenyl)imidazol-4-yl]methyl]-2-keto-2-(protocatechuylamino)ethyl]-3,4-dihydroxy-benzamide
> <PUBCHEM_IUPAC_INCHI>
InChI=1S/C26H22N6O10/c33-21-5-1-14(7-23(21)35)11-28-26(38)18(29-25(37)15-2-6-22(34)24(36)8-15)9-17-12-27-13-30(17)19-4-3-16(31(39)40)10-20(19)32(41)42/h1-8,10,12-13,18,33-36H,9,11H2,(H,28,38)(H,29,37)/t18-/m0/s1
> <PUBCHEM_IUPAC_INCHIKEY>
HRNLLBPZFJRLBD-SFHVURJKSA-N
> <PUBCHEM_XLOGP3_AA>
2.1
> <PUBCHEM_EXACT_MASS>
578.13974092
> <PUBCHEM_MOLECULAR_FORMULA>
C26H22N6O10
> <PUBCHEM_MOLECULAR_WEIGHT>
578.5
> <PUBCHEM_OPENEYE_CAN_SMILES>
C1=CC(=C(C=C1CNC(=O)C(CC2=CN=CN2C3=C(C=C(C=C3)[N+](=O)[O-])[N+](=O)[O-])NC(=O)C4=CC(=C(C=C4)O)O)O)O
> <PUBCHEM_OPENEYE_ISO_SMILES>
C1=CC(=C(C=C1CNC(=O)[C@H](CC2=CN=CN2C3=C(C=C(C=C3)[N+](=O)[O-])[N+](=O)[O-])NC(=O)C4=CC(=C(C=C4)O)O)O)O
> <PUBCHEM_CACTVS_TPSA>
249
> <PUBCHEM_MONOISOTOPIC_WEIGHT>
578.13974092
> <PUBCHEM_TOTAL_CHARGE>
0
> <PUBCHEM_HEAVY_ATOM_COUNT>
42
> <PUBCHEM_ATOM_DEF_STEREO_COUNT>
1
> <PUBCHEM_ATOM_UDEF_STEREO_COUNT>
0
> <PUBCHEM_BOND_DEF_STEREO_COUNT>
0
> <PUBCHEM_BOND_UDEF_STEREO_COUNT>
0
> <PUBCHEM_ISOTOPIC_ATOM_COUNT>
0
> <PUBCHEM_COMPONENT_COUNT>
1
> <PUBCHEM_CACTVS_TAUTO_COUNT>
-1
> <PUBCHEM_COORDINATE_TYPE>
1
5
255
> <PUBCHEM_BONDANNOTATIONS>
11  19  8
11  23  8
17  12  5
14  22  8
14  23  8
19  22  8
21  25  8
21  27  8
25  30  8
27  31  8
28  33  8
28  34  8
29  35  8
29  36  8
30  32  8
31  32  8
33  37  8
34  38  8
35  39  8
36  41  8
37  40  8
38  40  8
39  42  8
41  42  8
$$$$
