504794
  -OEChem-10302200282D
 67 71  0     1  0  0  0  0  0999 V2000
    4.2690    1.7581    0.0000 O   0  0  0  0  0  0  0  0  0  0  0  0
    3.4030    0.2581    0.0000 O   0  0  0  0  0  0  0  0  0  0  0  0
    3.4030   -0.7419    0.0000 O   0  0  0  0  0  0  0  0  0  0  0  0
    2.5369   -4.2419    0.0000 O   0  0  0  0  0  0  0  0  0  0  0  0
    4.2690   -5.2419    0.0000 O   0  0  0  0  0  0  0  0  0  0  0  0
    6.8100    2.3458    0.0000 N   0  0  0  0  0  0  0  0  0  0  0  0
    5.5010    3.2969    0.0000 N   0  0  0  0  0  0  0  0  0  0  0  0
    5.1350   -0.7419    0.0000 N   0  0  0  0  0  0  0  0  0  0  0  0
    7.7882    2.5538    0.0000 C   0  0  0  0  0  0  0  0  0  0  0  0
    7.7533    3.5532    0.0000 C   0  0  0  0  0  0  0  0  0  0  0  0
    8.7663    2.7617    0.0000 C   0  0  0  0  0  0  0  0  0  0  0  0
    7.9961    1.5756    0.0000 C   0  0  0  0  0  0  0  0  0  0  0  0
    6.0010    1.7581    0.0000 C   0  0  0  0  0  0  0  0  0  0  0  0
    6.0010    0.7581    0.0000 C   0  0  0  0  0  0  0  0  0  0  0  0
    6.5010    3.2969    0.0000 C   0  0  0  0  0  0  0  0  0  0  0  0
    5.1350    0.2581    0.0000 C   0  0  1  0  0  0  0  0  0  0  0  0
    5.1920    2.3458    0.0000 C   0  0  0  0  0  0  0  0  0  0  0  0
    8.6014    4.0831    0.0000 C   0  0  0  0  0  0  0  0  0  0  0  0
    9.4355    2.0185    0.0000 C   0  0  0  0  0  0  0  0  0  0  0  0
    7.2530    0.9065    0.0000 C   0  0  0  0  0  0  0  0  0  0  0  0
    6.8704    4.0226    0.0000 C   0  0  0  0  0  0  0  0  0  0  0  0
    9.0754    3.7127    0.0000 C   0  0  0  0  0  0  0  0  0  0  0  0
    8.9472    1.2666    0.0000 C   0  0  0  0  0  0  0  0  0  0  0  0
    8.5664    5.0825    0.0000 C   0  0  0  0  0  0  0  0  0  0  0  0
   10.4136    2.2264    0.0000 C   0  0  0  0  0  0  0  0  0  0  0  0
    7.4610   -0.0716    0.0000 C   0  0  0  0  0  0  0  0  0  0  0  0
    6.8355    5.0220    0.0000 C   0  0  0  0  0  0  0  0  0  0  0  0
   10.0535    3.9206    0.0000 C   0  0  0  0  0  0  0  0  0  0  0  0
    9.1551    0.2884    0.0000 C   0  0  0  0  0  0  0  0  0  0  0  0
    4.2690    0.7581    0.0000 C   0  0  0  0  0  0  0  0  0  0  0  0
    7.6835    5.5519    0.0000 C   0  0  0  0  0  0  0  0  0  0  0  0
   10.7226    3.1775    0.0000 C   0  0  0  0  0  0  0  0  0  0  0  0
    8.4119   -0.3807    0.0000 C   0  0  0  0  0  0  0  0  0  0  0  0
    4.2690   -1.2419    0.0000 C   0  0  0  0  0  0  0  0  0  0  0  0
    4.2690   -2.2419    0.0000 C   0  0  0  0  0  0  0  0  0  0  0  0
    3.4030   -2.7419    0.0000 C   0  0  0  0  0  0  0  0  0  0  0  0
    5.1350   -2.7419    0.0000 C   0  0  0  0  0  0  0  0  0  0  0  0
    3.4030   -3.7419    0.0000 C   0  0  0  0  0  0  0  0  0  0  0  0
    5.1350   -3.7419    0.0000 C   0  0  0  0  0  0  0  0  0  0  0  0
    4.2690   -4.2419    0.0000 C   0  0  0  0  0  0  0  0  0  0  0  0
    6.2131    0.1755    0.0000 H   0  0  0  0  0  0  0  0  0  0  0  0
    6.6116    0.8657    0.0000 H   0  0  0  0  0  0  0  0  0  0  0  0
    6.8655    3.7985    0.0000 H   0  0  0  0  0  0  0  0  0  0  0  0
    5.6720   -0.0519    0.0000 H   0  0  0  0  0  0  0  0  0  0  0  0
    4.6024    2.1543    0.0000 H   0  0  0  0  0  0  0  0  0  0  0  0
    9.1488    3.7920    0.0000 H   0  0  0  0  0  0  0  0  0  0  0  0
    9.2439    1.4289    0.0000 H   0  0  0  0  0  0  0  0  0  0  0  0
    6.6634    1.0981    0.0000 H   0  0  0  0  0  0  0  0  0  0  0  0
    6.3446    3.6941    0.0000 H   0  0  0  0  0  0  0  0  0  0  0  0
    8.6605    4.1735    0.0000 H   0  0  0  0  0  0  0  0  0  0  0  0
    9.4079    1.6815    0.0000 H   0  0  0  0  0  0  0  0  0  0  0  0
    9.0922    5.4110    0.0000 H   0  0  0  0  0  0  0  0  0  0  0  0
   10.8285    1.7657    0.0000 H   0  0  0  0  0  0  0  0  0  0  0  0
    7.0002   -0.4865    0.0000 H   0  0  0  0  0  0  0  0  0  0  0  0
    6.2880    5.3131    0.0000 H   0  0  0  0  0  0  0  0  0  0  0  0
   10.2451    4.5103    0.0000 H   0  0  0  0  0  0  0  0  0  0  0  0
    9.7447    0.0969    0.0000 H   0  0  0  0  0  0  0  0  0  0  0  0
    5.6720   -1.0519    0.0000 H   0  0  0  0  0  0  0  0  0  0  0  0
    7.6619    6.1716    0.0000 H   0  0  0  0  0  0  0  0  0  0  0  0
   11.3291    3.3064    0.0000 H   0  0  0  0  0  0  0  0  0  0  0  0
    8.5408   -0.9871    0.0000 H   0  0  0  0  0  0  0  0  0  0  0  0
    3.7320    2.0681    0.0000 H   0  0  0  0  0  0  0  0  0  0  0  0
    2.8660   -2.4319    0.0000 H   0  0  0  0  0  0  0  0  0  0  0  0
    5.6720   -2.4319    0.0000 H   0  0  0  0  0  0  0  0  0  0  0  0
    5.6720   -4.0519    0.0000 H   0  0  0  0  0  0  0  0  0  0  0  0
    2.0000   -3.9319    0.0000 H   0  0  0  0  0  0  0  0  0  0  0  0
    4.8059   -5.5519    0.0000 H   0  0  0  0  0  0  0  0  0  0  0  0
  1 30  1  0  0  0  0
  1 62  1  0  0  0  0
  2 30  2  0  0  0  0
  3 34  2  0  0  0  0
  4 38  1  0  0  0  0
  4 66  1  0  0  0  0
  5 40  1  0  0  0  0
  5 67  1  0  0  0  0
  6  9  1  0  0  0  0
  6 13  1  0  0  0  0
  6 15  1  0  0  0  0
  7 15  2  0  0  0  0
  7 17  1  0  0  0  0
 16  8  1  6  0  0  0
  8 34  1  0  0  0  0
  8 58  1  0  0  0  0
  9 10  1  0  0  0  0
  9 11  1  0  0  0  0
  9 12  1  0  0  0  0
 10 18  2  0  0  0  0
 10 21  1  0  0  0  0
 11 19  2  0  0  0  0
 11 22  1  0  0  0  0
 12 20  2  0  0  0  0
 12 23  1  0  0  0  0
 13 14  1  0  0  0  0
 13 17  2  0  0  0  0
 14 16  1  0  0  0  0
 14 41  1  0  0  0  0
 14 42  1  0  0  0  0
 15 43  1  0  0  0  0
 16 30  1  0  0  0  0
 16 44  1  0  0  0  0
 17 45  1  0  0  0  0
 18 24  1  0  0  0  0
 18 46  1  0  0  0  0
 19 25  1  0  0  0  0
 19 47  1  0  0  0  0
 20 26  1  0  0  0  0
 20 48  1  0  0  0  0
 21 27  2  0  0  0  0
 21 49  1  0  0  0  0
 22 28  2  0  0  0  0
 22 50  1  0  0  0  0
 23 29  2  0  0  0  0
 23 51  1  0  0  0  0
 24 31  2  0  0  0  0
 24 52  1  0  0  0  0
 25 32  2  0  0  0  0
 25 53  1  0  0  0  0
 26 33  2  0  0  0  0
 26 54  1  0  0  0  0
 27 31  1  0  0  0  0
 27 55  1  0  0  0  0
 28 32  1  0  0  0  0
 28 56  1  0  0  0  0
 29 33  1  0  0  0  0
 29 57  1  0  0  0  0
 31 59  1  0  0  0  0
 32 60  1  0  0  0  0
 33 61  1  0  0  0  0
 34 35  1  0  0  0  0
 35 36  2  0  0  0  0
 35 37  1  0  0  0  0
 36 38  1  0  0  0  0
 36 63  1  0  0  0  0
 37 39  2  0  0  0  0
 37 64  1  0  0  0  0
 38 40  2  0  0  0  0
 39 40  1  0  0  0  0
 39 65  1  0  0  0  0
M  END
> <PUBCHEM_COMPOUND_CID>
504794
> <PUBCHEM_COMPOUND_CANONICALIZED>
1
> <PUBCHEM_CACTVS_COMPLEXITY>
791
> <PUBCHEM_CACTVS_HBOND_ACCEPTOR>
6
> <PUBCHEM_CACTVS_HBOND_DONOR>
4
> <PUBCHEM_CACTVS_ROTATABLE_BOND>
9
> <PUBCHEM_CACTVS_SUBSKEYS>
AAADceB/OAAAAAAAAAAAAAAAAAAAAWAAAAAwYMGAAAAAAAAB1AAAHgAQCAAADKzBngQ9npfMEgCoAzX3fACCgC01MqAJ2IG+/MiLbjLC3TOUcQls1hPZ2ae+3dLOoAABAAAAQABAAAIAAACAAAAAAAAAAA==
> <PUBCHEM_IUPAC_OPENEYE_NAME>
(2S)-2-[(3,4-dihydroxybenzoyl)amino]-3-(3-tritylimidazol-4-yl)propanoic acid
> <PUBCHEM_IUPAC_CAS_NAME>
(2S)-2-[[(3,4-dihydroxyphenyl)-oxomethyl]amino]-3-[3-(triphenylmethyl)-4-imidazolyl]propanoic acid
> <PUBCHEM_IUPAC_NAME_MARKUP>
(2<I>S</I>)-2-[(3,4-dihydroxybenzoyl)amino]-3-(3-tritylimidazol-4-yl)propanoic acid
> <PUBCHEM_IUPAC_NAME>
(2S)-2-[(3,4-dihydroxybenzoyl)amino]-3-(3-tritylimidazol-4-yl)propanoic acid
> <PUBCHEM_IUPAC_SYSTEMATIC_NAME>
(2S)-2-[[3,4-bis(oxidanyl)phenyl]carbonylamino]-3-[3-(triphenylmethyl)imidazol-4-yl]propanoic acid
> <PUBCHEM_IUPAC_TRADITIONAL_NAME>
(2S)-2-(protocatechuoylamino)-3-(3-tritylimidazol-4-yl)propionic acid
> <PUBCHEM_IUPAC_INCHI>
InChI=1S/C32H27N3O5/c36-28-17-16-22(18-29(28)37)30(38)34-27(31(39)40)19-26-20-33-21-35(26)32(23-10-4-1-5-11-23,24-12-6-2-7-13-24)25-14-8-3-9-15-25/h1-18,20-21,27,36-37H,19H2,(H,34,38)(H,39,40)/t27-/m0/s1
> <PUBCHEM_IUPAC_INCHIKEY>
VUJARAREAYGEJX-MHZLTWQESA-N
> <PUBCHEM_XLOGP3_AA>
5
> <PUBCHEM_EXACT_MASS>
533.19507097
> <PUBCHEM_MOLECULAR_FORMULA>
C32H27N3O5
> <PUBCHEM_MOLECULAR_WEIGHT>
533.6
> <PUBCHEM_OPENEYE_CAN_SMILES>
C1=CC=C(C=C1)C(C2=CC=CC=C2)(C3=CC=CC=C3)N4C=NC=C4CC(C(=O)O)NC(=O)C5=CC(=C(C=C5)O)O
> <PUBCHEM_OPENEYE_ISO_SMILES>
C1=CC=C(C=C1)C(C2=CC=CC=C2)(C3=CC=CC=C3)N4C=NC=C4C[C@@H](C(=O)O)NC(=O)C5=CC(=C(C=C5)O)O
> <PUBCHEM_CACTVS_TPSA>
125
> <PUBCHEM_MONOISOTOPIC_WEIGHT>
533.19507097
> <PUBCHEM_TOTAL_CHARGE>
0
> <PUBCHEM_HEAVY_ATOM_COUNT>
40
> <PUBCHEM_ATOM_DEF_STEREO_COUNT>
1
> <PUBCHEM_ATOM_UDEF_STEREO_COUNT>
0
> <PUBCHEM_BOND_DEF_STEREO_COUNT>
0
> <PUBCHEM_BOND_UDEF_STEREO_COUNT>
0
> <PUBCHEM_ISOTOPIC_ATOM_COUNT>
0
> <PUBCHEM_COMPONENT_COUNT>
1
> <PUBCHEM_CACTVS_TAUTO_COUNT>
-1
> <PUBCHEM_COORDINATE_TYPE>
1
5
255
> <PUBCHEM_BONDANNOTATIONS>
10  18  8
10  21  8
11  19  8
11  22  8
12  20  8
12  23  8
13  17  8
18  24  8
19  25  8
20  26  8
21  27  8
22  28  8
23  29  8
24  31  8
25  32  8
26  33  8
27  31  8
28  32  8
29  33  8
35  36  8
35  37  8
36  38  8
37  39  8
38  40  8
39  40  8
6  13  8
6  15  8
7  15  8
7  17  8
16  8  6
$$$$
