504706
  -OEChem-10302200282D
 37 36  0     1  0  0  0  0  0999 V2000
    9.7942   -0.1550    0.0000 P   0  0  0  0  0  0  0  0  0  0  0  0
    5.4641   -1.6550    0.0000 O   0  0  0  0  0  0  0  0  0  0  0  0
    6.3301    0.8450    0.0000 O   0  0  0  0  0  0  0  0  0  0  0  0
    7.1962   -1.6550    0.0000 O   0  0  0  0  0  0  0  0  0  0  0  0
    8.9282   -0.6550    0.0000 O   0  0  0  0  0  0  0  0  0  0  0  0
    3.7320    1.3450    0.0000 O   0  0  0  0  0  0  0  0  0  0  0  0
    2.8660    0.8450    0.0000 O   0  0  0  0  0  0  0  0  0  0  0  0
   10.6603    0.3450    0.0000 O   0  0  0  0  0  0  0  0  0  0  0  0
   10.2942   -1.0210    0.0000 O   0  0  0  0  0  0  0  0  0  0  0  0
    9.2942    0.7110    0.0000 O   0  0  0  0  0  0  0  0  0  0  0  0
    3.7320   -0.6550    0.0000 N   0  0  0  0  0  0  0  0  0  0  0  0
    5.4641   -0.6550    0.0000 C   0  0  1  0  0  0  0  0  0  0  0  0
    6.3301   -0.1550    0.0000 C   0  0  1  0  0  0  0  0  0  0  0  0
    4.5981   -0.1550    0.0000 C   0  0  2  0  0  0  0  0  0  0  0  0
    7.1962   -0.6550    0.0000 C   0  0  1  0  0  0  0  0  0  0  0  0
    4.5981    0.8450    0.0000 C   0  0  0  0  0  0  0  0  0  0  0  0
    8.0622   -0.1550    0.0000 C   0  0  0  0  0  0  0  0  0  0  0  0
    2.8660   -0.1550    0.0000 C   0  0  0  0  0  0  0  0  0  0  0  0
    2.0000   -0.6550    0.0000 C   0  0  0  0  0  0  0  0  0  0  0  0
    6.0010   -0.9650    0.0000 H   0  0  0  0  0  0  0  0  0  0  0  0
    6.8671    0.1550    0.0000 H   0  0  0  0  0  0  0  0  0  0  0  0
    4.5981   -0.7750    0.0000 H   0  0  0  0  0  0  0  0  0  0  0  0
    6.6592   -0.9650    0.0000 H   0  0  0  0  0  0  0  0  0  0  0  0
    5.2087    0.7373    0.0000 H   0  0  0  0  0  0  0  0  0  0  0  0
    4.8101    1.4276    0.0000 H   0  0  0  0  0  0  0  0  0  0  0  0
    8.4607    0.3199    0.0000 H   0  0  0  0  0  0  0  0  0  0  0  0
    7.6636    0.3199    0.0000 H   0  0  0  0  0  0  0  0  0  0  0  0
    3.7320   -1.2750    0.0000 H   0  0  0  0  0  0  0  0  0  0  0  0
    4.9272   -1.9650    0.0000 H   0  0  0  0  0  0  0  0  0  0  0  0
    6.8671    1.1550    0.0000 H   0  0  0  0  0  0  0  0  0  0  0  0
    7.7331   -1.9650    0.0000 H   0  0  0  0  0  0  0  0  0  0  0  0
    3.7320    1.9650    0.0000 H   0  0  0  0  0  0  0  0  0  0  0  0
    1.6900   -0.1181    0.0000 H   0  0  0  0  0  0  0  0  0  0  0  0
    1.4631   -0.9650    0.0000 H   0  0  0  0  0  0  0  0  0  0  0  0
    2.3100   -1.1919    0.0000 H   0  0  0  0  0  0  0  0  0  0  0  0
   11.1972    0.0350    0.0000 H   0  0  0  0  0  0  0  0  0  0  0  0
    9.9842   -1.5580    0.0000 H   0  0  0  0  0  0  0  0  0  0  0  0
  1  5  1  0  0  0  0
  1  8  1  0  0  0  0
  1  9  1  0  0  0  0
  1 10  2  0  0  0  0
 12  2  1  6  0  0  0
  2 29  1  0  0  0  0
 13  3  1  6  0  0  0
  3 30  1  0  0  0  0
 15  4  1  1  0  0  0
  4 31  1  0  0  0  0
  5 17  1  0  0  0  0
  6 16  1  0  0  0  0
  6 32  1  0  0  0  0
  7 18  2  0  0  0  0
  8 36  1  0  0  0  0
  9 37  1  0  0  0  0
 14 11  1  1  0  0  0
 11 18  1  0  0  0  0
 11 28  1  0  0  0  0
 12 13  1  0  0  0  0
 12 14  1  0  0  0  0
 12 20  1  0  0  0  0
 13 15  1  0  0  0  0
 13 21  1  0  0  0  0
 14 16  1  0  0  0  0
 14 22  1  0  0  0  0
 15 17  1  0  0  0  0
 15 23  1  0  0  0  0
 16 24  1  0  0  0  0
 16 25  1  0  0  0  0
 17 26  1  0  0  0  0
 17 27  1  0  0  0  0
 18 19  1  0  0  0  0
 19 33  1  0  0  0  0
 19 34  1  0  0  0  0
 19 35  1  0  0  0  0
M  END
> <PUBCHEM_COMPOUND_CID>
504706
> <PUBCHEM_COMPOUND_CANONICALIZED>
1
> <PUBCHEM_CACTVS_COMPLEXITY>
332
> <PUBCHEM_CACTVS_HBOND_ACCEPTOR>
9
> <PUBCHEM_CACTVS_HBOND_DONOR>
7
> <PUBCHEM_CACTVS_ROTATABLE_BOND>
8
> <PUBCHEM_CACTVS_SUBSKEYS>
AAADceByPAIAAAAAAAAAAAAAAAAAAAAAAAAAAAAAAAAAAAAAAAAAHgAQCCAACDzhgAYCAALAAxAIQAEQEIAAAAAAAAAAAIAIAAADEAIAgAAEQAAHFgCRAAHwcAcAAAAAAAAAAAAAAAAAAAAAAAAAAAAAAA==
> <PUBCHEM_IUPAC_OPENEYE_NAME>
[(2R,3S,4R,5S)-5-acetamido-2,3,4,6-tetrahydroxy-hexyl] dihydrogen phosphate
> <PUBCHEM_IUPAC_CAS_NAME>
[(2R,3S,4R,5S)-5-acetamido-2,3,4,6-tetrahydroxyhexyl] dihydrogen phosphate
> <PUBCHEM_IUPAC_NAME_MARKUP>
[(2<I>R</I>,3<I>S</I>,4<I>R</I>,5<I>S</I>)-5-acetamido-2,3,4,6-tetrahydroxyhexyl] dihydrogen phosphate
> <PUBCHEM_IUPAC_NAME>
[(2R,3S,4R,5S)-5-acetamido-2,3,4,6-tetrahydroxyhexyl] dihydrogen phosphate
> <PUBCHEM_IUPAC_SYSTEMATIC_NAME>
[(2R,3S,4R,5S)-5-acetamido-2,3,4,6-tetrakis(oxidanyl)hexyl] dihydrogen phosphate
> <PUBCHEM_IUPAC_TRADITIONAL_NAME>
[(2R,3S,4R,5S)-5-acetamido-2,3,4,6-tetrahydroxy-hexyl] dihydrogen phosphate
> <PUBCHEM_IUPAC_INCHI>
InChI=1S/C8H18NO9P/c1-4(11)9-5(2-10)7(13)8(14)6(12)3-18-19(15,16)17/h5-8,10,12-14H,2-3H2,1H3,(H,9,11)(H2,15,16,17)/t5-,6+,7+,8+/m0/s1
> <PUBCHEM_IUPAC_INCHIKEY>
WHHOIWRDVIBHSP-LXGUWJNJSA-N
> <PUBCHEM_XLOGP3_AA>
-4.7
> <PUBCHEM_EXACT_MASS>
303.07191815
> <PUBCHEM_MOLECULAR_FORMULA>
C8H18NO9P
> <PUBCHEM_MOLECULAR_WEIGHT>
303.20
> <PUBCHEM_OPENEYE_CAN_SMILES>
CC(=O)NC(CO)C(C(C(COP(=O)(O)O)O)O)O
> <PUBCHEM_OPENEYE_ISO_SMILES>
CC(=O)N[C@@H](CO)[C@H]([C@@H]([C@@H](COP(=O)(O)O)O)O)O
> <PUBCHEM_CACTVS_TPSA>
177
> <PUBCHEM_MONOISOTOPIC_WEIGHT>
303.07191815
> <PUBCHEM_TOTAL_CHARGE>
0
> <PUBCHEM_HEAVY_ATOM_COUNT>
19
> <PUBCHEM_ATOM_DEF_STEREO_COUNT>
4
> <PUBCHEM_ATOM_UDEF_STEREO_COUNT>
0
> <PUBCHEM_BOND_DEF_STEREO_COUNT>
0
> <PUBCHEM_BOND_UDEF_STEREO_COUNT>
0
> <PUBCHEM_ISOTOPIC_ATOM_COUNT>
0
> <PUBCHEM_COMPONENT_COUNT>
1
> <PUBCHEM_CACTVS_TAUTO_COUNT>
-1
> <PUBCHEM_COORDINATE_TYPE>
1
5
255
> <PUBCHEM_BONDANNOTATIONS>
14  11  5
12  2  6
13  3  6
15  4  5
$$$$
