504774
  -OEChem-10302200282D
 87 91  0     1  0  0  0  0  0999 V2000
    9.4651   -0.5000    0.0000 O   0  0  0  0  0  0  0  0  0  0  0  0
    6.0010    0.5000    0.0000 O   0  0  0  0  0  0  0  0  0  0  0  0
    6.0010   -0.5000    0.0000 O   0  0  0  0  0  0  0  0  0  0  0  0
    4.2690    6.5000    0.0000 O   0  0  0  0  0  0  0  0  0  0  0  0
    2.5369    5.5000    0.0000 O   0  0  0  0  0  0  0  0  0  0  0  0
    7.7331   -5.5000    0.0000 O   0  0  0  0  0  0  0  0  0  0  0  0
    6.0010   -6.5000    0.0000 O   0  0  0  0  0  0  0  0  0  0  0  0
   10.3312    1.0000    0.0000 N   0  0  0  0  0  0  0  0  0  0  0  0
    7.7331   -0.5000    0.0000 N   0  0  0  0  0  0  0  0  0  0  0  0
    6.8671    2.0000    0.0000 N   0  0  0  0  0  0  0  0  0  0  0  0
   11.3160    1.1736    0.0000 C   0  0  0  0  0  0  0  0  0  0  0  0
   12.3008    1.3473    0.0000 C   0  0  0  0  0  0  0  0  0  0  0  0
   11.1423    2.1585    0.0000 C   0  0  0  0  0  0  0  0  0  0  0  0
   11.4896    0.1888    0.0000 C   0  0  0  0  0  0  0  0  0  0  0  0
    9.4651    0.5000    0.0000 C   0  0  0  0  0  0  0  0  0  0  0  0
    8.5991    1.0000    0.0000 C   0  0  0  0  0  0  0  0  0  0  0  0
    7.7331    0.5000    0.0000 C   0  0  1  0  0  0  0  0  0  0  0  0
   12.6428    2.2870    0.0000 C   0  0  0  0  0  0  0  0  0  0  0  0
   10.2026    2.5005    0.0000 C   0  0  0  0  0  0  0  0  0  0  0  0
   12.4293   -0.1532    0.0000 C   0  0  0  0  0  0  0  0  0  0  0  0
   12.9436    0.5813    0.0000 C   0  0  0  0  0  0  0  0  0  0  0  0
   11.9084    2.8012    0.0000 C   0  0  0  0  0  0  0  0  0  0  0  0
   10.7236   -0.4539    0.0000 C   0  0  0  0  0  0  0  0  0  0  0  0
    6.8671    1.0000    0.0000 C   0  0  0  0  0  0  0  0  0  0  0  0
   13.6276    2.4606    0.0000 C   0  0  0  0  0  0  0  0  0  0  0  0
   10.0290    3.4853    0.0000 C   0  0  0  0  0  0  0  0  0  0  0  0
   12.6030   -1.1380    0.0000 C   0  0  0  0  0  0  0  0  0  0  0  0
   13.9284    0.7549    0.0000 C   0  0  0  0  0  0  0  0  0  0  0  0
   11.7347    3.7860    0.0000 C   0  0  0  0  0  0  0  0  0  0  0  0
   10.8973   -1.4388    0.0000 C   0  0  0  0  0  0  0  0  0  0  0  0
   14.2704    1.6946    0.0000 C   0  0  0  0  0  0  0  0  0  0  0  0
   10.7950    4.1281    0.0000 C   0  0  0  0  0  0  0  0  0  0  0  0
   11.8370   -1.7807    0.0000 C   0  0  0  0  0  0  0  0  0  0  0  0
    6.0010    2.5000    0.0000 C   0  0  0  0  0  0  0  0  0  0  0  0
    6.0010    3.5000    0.0000 C   0  0  0  0  0  0  0  0  0  0  0  0
    6.8671   -1.0000    0.0000 C   0  0  0  0  0  0  0  0  0  0  0  0
    5.1350    4.0000    0.0000 C   0  0  0  0  0  0  0  0  0  0  0  0
    6.8671   -2.0000    0.0000 C   0  0  0  0  0  0  0  0  0  0  0  0
    5.1350    5.0000    0.0000 C   0  0  0  0  0  0  0  0  0  0  0  0
    4.2690    3.5000    0.0000 C   0  0  0  0  0  0  0  0  0  0  0  0
    4.2690    5.5000    0.0000 C   0  0  0  0  0  0  0  0  0  0  0  0
    3.4030    4.0000    0.0000 C   0  0  0  0  0  0  0  0  0  0  0  0
    6.0010   -2.5000    0.0000 C   0  0  0  0  0  0  0  0  0  0  0  0
    3.4030    5.0000    0.0000 C   0  0  0  0  0  0  0  0  0  0  0  0
    6.0010   -3.5000    0.0000 C   0  0  0  0  0  0  0  0  0  0  0  0
    6.8671   -4.0000    0.0000 C   0  0  0  0  0  0  0  0  0  0  0  0
    5.1350   -4.0000    0.0000 C   0  0  0  0  0  0  0  0  0  0  0  0
    6.8671   -5.0000    0.0000 C   0  0  0  0  0  0  0  0  0  0  0  0
    5.1350   -5.0000    0.0000 C   0  0  0  0  0  0  0  0  0  0  0  0
    6.0010   -5.5000    0.0000 C   0  0  0  0  0  0  0  0  0  0  0  0
   10.3312    1.6200    0.0000 H   0  0  0  0  0  0  0  0  0  0  0  0
    8.9976    1.4750    0.0000 H   0  0  0  0  0  0  0  0  0  0  0  0
    8.2006    1.4750    0.0000 H   0  0  0  0  0  0  0  0  0  0  0  0
    8.2700    0.1900    0.0000 H   0  0  0  0  0  0  0  0  0  0  0  0
   12.2443    2.7619    0.0000 H   0  0  0  0  0  0  0  0  0  0  0  0
    9.7277    2.1020    0.0000 H   0  0  0  0  0  0  0  0  0  0  0  0
   12.9043    0.2453    0.0000 H   0  0  0  0  0  0  0  0  0  0  0  0
   12.7315   -0.0014    0.0000 H   0  0  0  0  0  0  0  0  0  0  0  0
   12.4910    2.5892    0.0000 H   0  0  0  0  0  0  0  0  0  0  0  0
   10.1410   -0.2419    0.0000 H   0  0  0  0  0  0  0  0  0  0  0  0
   13.8397    3.0432    0.0000 H   0  0  0  0  0  0  0  0  0  0  0  0
    9.4464    3.6973    0.0000 H   0  0  0  0  0  0  0  0  0  0  0  0
   13.1856   -1.3500    0.0000 H   0  0  0  0  0  0  0  0  0  0  0  0
   14.3269    0.2800    0.0000 H   0  0  0  0  0  0  0  0  0  0  0  0
   12.2097    4.1846    0.0000 H   0  0  0  0  0  0  0  0  0  0  0  0
   10.4223   -1.8373    0.0000 H   0  0  0  0  0  0  0  0  0  0  0  0
    8.2700   -0.8100    0.0000 H   0  0  0  0  0  0  0  0  0  0  0  0
   14.8810    1.8022    0.0000 H   0  0  0  0  0  0  0  0  0  0  0  0
   10.6874    4.7386    0.0000 H   0  0  0  0  0  0  0  0  0  0  0  0
   11.9447   -2.3913    0.0000 H   0  0  0  0  0  0  0  0  0  0  0  0
    7.4040    2.3100    0.0000 H   0  0  0  0  0  0  0  0  0  0  0  0
    5.3905    2.6077    0.0000 H   0  0  0  0  0  0  0  0  0  0  0  0
    5.7890    1.9174    0.0000 H   0  0  0  0  0  0  0  0  0  0  0  0
    6.6116    3.3923    0.0000 H   0  0  0  0  0  0  0  0  0  0  0  0
    6.2131    4.0826    0.0000 H   0  0  0  0  0  0  0  0  0  0  0  0
    7.4040   -2.3100    0.0000 H   0  0  0  0  0  0  0  0  0  0  0  0
    5.6720    5.3100    0.0000 H   0  0  0  0  0  0  0  0  0  0  0  0
    4.2690    2.8800    0.0000 H   0  0  0  0  0  0  0  0  0  0  0  0
    2.8660    3.6900    0.0000 H   0  0  0  0  0  0  0  0  0  0  0  0
    5.4641   -2.1900    0.0000 H   0  0  0  0  0  0  0  0  0  0  0  0
    7.4040   -3.6900    0.0000 H   0  0  0  0  0  0  0  0  0  0  0  0
    4.5981   -3.6900    0.0000 H   0  0  0  0  0  0  0  0  0  0  0  0
    4.8059    6.8100    0.0000 H   0  0  0  0  0  0  0  0  0  0  0  0
    2.0000    5.1900    0.0000 H   0  0  0  0  0  0  0  0  0  0  0  0
    4.5981   -5.3100    0.0000 H   0  0  0  0  0  0  0  0  0  0  0  0
    7.7331   -6.1200    0.0000 H   0  0  0  0  0  0  0  0  0  0  0  0
    5.4641   -6.8100    0.0000 H   0  0  0  0  0  0  0  0  0  0  0  0
  1 15  2  0  0  0  0
  2 24  2  0  0  0  0
  3 36  2  0  0  0  0
  4 41  1  0  0  0  0
  4 83  1  0  0  0  0
  5 44  1  0  0  0  0
  5 84  1  0  0  0  0
  6 48  1  0  0  0  0
  6 86  1  0  0  0  0
  7 50  1  0  0  0  0
  7 87  1  0  0  0  0
  8 11  1  0  0  0  0
  8 15  1  0  0  0  0
  8 51  1  0  0  0  0
 17  9  1  6  0  0  0
  9 36  1  0  0  0  0
  9 67  1  0  0  0  0
 10 24  1  0  0  0  0
 10 34  1  0  0  0  0
 10 71  1  0  0  0  0
 11 12  1  0  0  0  0
 11 13  1  0  0  0  0
 11 14  1  0  0  0  0
 12 18  2  0  0  0  0
 12 21  1  0  0  0  0
 13 19  2  0  0  0  0
 13 22  1  0  0  0  0
 14 20  2  0  0  0  0
 14 23  1  0  0  0  0
 15 16  1  0  0  0  0
 16 17  1  0  0  0  0
 16 52  1  0  0  0  0
 16 53  1  0  0  0  0
 17 24  1  0  0  0  0
 17 54  1  0  0  0  0
 18 25  1  0  0  0  0
 18 55  1  0  0  0  0
 19 26  1  0  0  0  0
 19 56  1  0  0  0  0
 20 27  1  0  0  0  0
 20 57  1  0  0  0  0
 21 28  2  0  0  0  0
 21 58  1  0  0  0  0
 22 29  2  0  0  0  0
 22 59  1  0  0  0  0
 23 30  2  0  0  0  0
 23 60  1  0  0  0  0
 25 31  2  0  0  0  0
 25 61  1  0  0  0  0
 26 32  2  0  0  0  0
 26 62  1  0  0  0  0
 27 33  2  0  0  0  0
 27 63  1  0  0  0  0
 28 31  1  0  0  0  0
 28 64  1  0  0  0  0
 29 32  1  0  0  0  0
 29 65  1  0  0  0  0
 30 33  1  0  0  0  0
 30 66  1  0  0  0  0
 31 68  1  0  0  0  0
 32 69  1  0  0  0  0
 33 70  1  0  0  0  0
 34 35  1  0  0  0  0
 34 72  1  0  0  0  0
 34 73  1  0  0  0  0
 35 37  1  0  0  0  0
 35 74  1  0  0  0  0
 35 75  1  0  0  0  0
 36 38  1  0  0  0  0
 37 39  2  0  0  0  0
 37 40  1  0  0  0  0
 38 43  2  3  0  0  0
 38 76  1  0  0  0  0
 39 41  1  0  0  0  0
 39 77  1  0  0  0  0
 40 42  2  0  0  0  0
 40 78  1  0  0  0  0
 41 44  2  0  0  0  0
 42 44  1  0  0  0  0
 42 79  1  0  0  0  0
 43 45  1  0  0  0  0
 43 80  1  0  0  0  0
 45 46  2  0  0  0  0
 45 47  1  0  0  0  0
 46 48  1  0  0  0  0
 46 81  1  0  0  0  0
 47 49  2  0  0  0  0
 47 82  1  0  0  0  0
 48 50  2  0  0  0  0
 49 50  1  0  0  0  0
 49 85  1  0  0  0  0
M  END
> <PUBCHEM_COMPOUND_CID>
504774
> <PUBCHEM_COMPOUND_CANONICALIZED>
1
> <PUBCHEM_CACTVS_COMPLEXITY>
1070
> <PUBCHEM_CACTVS_HBOND_ACCEPTOR>
7
> <PUBCHEM_CACTVS_HBOND_DONOR>
7
> <PUBCHEM_CACTVS_ROTATABLE_BOND>
13
> <PUBCHEM_CACTVS_SUBSKEYS>
AAADcfB/OAAAAAAAAAAAAAAAAAAAAAAAAAAwYMGDAAAAAAABVAAAHgAQCAAADKzBmAQwBoLAAgCIAiFSEACCAAAgIAAIiIGOjMgJZjqC0TOUcAlk1hGJmYeV0PIOoAABAAAAQABAAAIAAACAAAAAAAAAAA==
> <PUBCHEM_IUPAC_OPENEYE_NAME>
(2S)-N-[2-(3,4-dihydroxyphenyl)ethyl]-2-[3-(3,4-dihydroxyphenyl)prop-2-enoylamino]-N'-trityl-butanediamide
> <PUBCHEM_IUPAC_CAS_NAME>
(2S)-N-[2-(3,4-dihydroxyphenyl)ethyl]-2-[[3-(3,4-dihydroxyphenyl)-1-oxoprop-2-enyl]amino]-N'-(triphenylmethyl)butanediamide
> <PUBCHEM_IUPAC_NAME_MARKUP>
(2<I>S</I>)-<I>N</I>-[2-(3,4-dihydroxyphenyl)ethyl]-2-[3-(3,4-dihydroxyphenyl)prop-2-enoylamino]-<I>N</I>&apos;-tritylbutanediamide
> <PUBCHEM_IUPAC_NAME>
(2S)-N-[2-(3,4-dihydroxyphenyl)ethyl]-2-[3-(3,4-dihydroxyphenyl)prop-2-enoylamino]-N'-tritylbutanediamide
> <PUBCHEM_IUPAC_SYSTEMATIC_NAME>
(2S)-N-[2-[3,4-bis(oxidanyl)phenyl]ethyl]-2-[3-[3,4-bis(oxidanyl)phenyl]prop-2-enoylamino]-N'-(triphenylmethyl)butanediamide
> <PUBCHEM_IUPAC_TRADITIONAL_NAME>
(2S)-2-(caffeoylamino)-N-[2-(3,4-dihydroxyphenyl)ethyl]-N'-trityl-succinamide
> <PUBCHEM_IUPAC_INCHI>
InChI=1S/C40H37N3O7/c44-33-19-16-27(24-35(33)46)18-21-37(48)42-32(39(50)41-23-22-28-17-20-34(45)36(47)25-28)26-38(49)43-40(29-10-4-1-5-11-29,30-12-6-2-7-13-30)31-14-8-3-9-15-31/h1-21,24-25,32,44-47H,22-23,26H2,(H,41,50)(H,42,48)(H,43,49)/t32-/m0/s1
> <PUBCHEM_IUPAC_INCHIKEY>
YMODCZZEDMASEK-YTTGMZPUSA-N
> <PUBCHEM_XLOGP3_AA>
5.5
> <PUBCHEM_EXACT_MASS>
671.26315053
> <PUBCHEM_MOLECULAR_FORMULA>
C40H37N3O7
> <PUBCHEM_MOLECULAR_WEIGHT>
671.7
> <PUBCHEM_OPENEYE_CAN_SMILES>
C1=CC=C(C=C1)C(C2=CC=CC=C2)(C3=CC=CC=C3)NC(=O)CC(C(=O)NCCC4=CC(=C(C=C4)O)O)NC(=O)C=CC5=CC(=C(C=C5)O)O
> <PUBCHEM_OPENEYE_ISO_SMILES>
C1=CC=C(C=C1)C(C2=CC=CC=C2)(C3=CC=CC=C3)NC(=O)C[C@@H](C(=O)NCCC4=CC(=C(C=C4)O)O)NC(=O)C=CC5=CC(=C(C=C5)O)O
> <PUBCHEM_CACTVS_TPSA>
168
> <PUBCHEM_MONOISOTOPIC_WEIGHT>
671.26315053
> <PUBCHEM_TOTAL_CHARGE>
0
> <PUBCHEM_HEAVY_ATOM_COUNT>
50
> <PUBCHEM_ATOM_DEF_STEREO_COUNT>
1
> <PUBCHEM_ATOM_UDEF_STEREO_COUNT>
0
> <PUBCHEM_BOND_DEF_STEREO_COUNT>
0
> <PUBCHEM_BOND_UDEF_STEREO_COUNT>
1
> <PUBCHEM_ISOTOPIC_ATOM_COUNT>
0
> <PUBCHEM_COMPONENT_COUNT>
1
> <PUBCHEM_CACTVS_TAUTO_COUNT>
-1
> <PUBCHEM_COORDINATE_TYPE>
1
5
255
> <PUBCHEM_BONDANNOTATIONS>
12  18  8
12  21  8
13  19  8
13  22  8
14  20  8
14  23  8
18  25  8
19  26  8
20  27  8
21  28  8
22  29  8
23  30  8
25  31  8
26  32  8
27  33  8
28  31  8
29  32  8
30  33  8
37  39  8
37  40  8
38  43  1
39  41  8
40  42  8
41  44  8
42  44  8
45  46  8
45  47  8
46  48  8
47  49  8
48  50  8
49  50  8
17  9  6
$$$$
