504730
  -OEChem-10302200282D
 74 78  0     1  0  0  0  0  0999 V2000
    6.5422   -1.9860    0.0000 O   0  0  0  0  0  0  0  0  0  0  0  0
    5.5972   -1.5245    0.0000 O   0  0  0  0  0  0  0  0  0  0  0  0
    6.3243    1.0822    0.0000 O   0  0  0  0  0  0  0  0  0  0  0  0
    9.0602    3.3061    0.0000 O   0  0  0  0  0  0  0  0  0  0  0  0
    5.8027   -3.5523    0.0000 O   0  0  0  0  0  0  0  0  0  0  0  0
    7.4262    4.1702    0.0000 O   0  0  0  0  0  0  0  0  0  0  0  0
    7.5289   -3.4095    0.0000 O   0  0  0  0  0  0  0  0  0  0  0  0
   10.9049    1.1127    0.0000 O   0  0  0  0  0  0  0  0  0  0  0  0
    4.6270   -0.0897    0.0000 O   0  0  0  0  0  0  0  0  0  0  0  0
    2.8993   -0.2124    0.0000 N   0  0  0  0  0  0  0  0  0  0  0  0
    8.2201   -0.8229    0.0000 C   0  0  1  0  0  0  0  0  0  0  0  0
    7.3640   -1.4163    0.0000 C   0  0  1  0  0  0  0  0  0  0  0  0
    8.3063   -1.8615    0.0000 C   0  0  0  0  0  0  0  0  0  0  0  0
    8.1263    0.2145    0.0000 C   0  0  1  0  0  0  0  0  0  0  0  0
    6.4256   -0.9644    0.0000 C   0  0  1  0  0  0  0  0  0  0  0  0
    7.2253    0.6483    0.0000 C   0  0  1  0  0  0  0  0  0  0  0  0
    6.3557    0.0749    0.0000 C   0  0  2  0  0  0  0  0  0  0  0  0
    9.3029   -1.7790    0.0000 C   0  0  0  0  0  0  0  0  0  0  0  0
    7.8794   -2.7657    0.0000 C   0  0  0  0  0  0  0  0  0  0  0  0
    7.0028    1.6233    0.0000 C   0  0  1  0  0  0  0  0  0  0  0  0
    9.0272    0.6483    0.0000 C   0  0  0  0  0  0  0  0  0  0  0  0
    7.6263    2.4051    0.0000 C   0  0  2  0  0  0  0  0  0  0  0  0
    5.3577    0.0117    0.0000 C   0  0  0  0  0  0  0  0  0  0  0  0
    9.2498    1.6233    0.0000 C   0  0  0  0  0  0  0  0  0  0  0  0
    8.6263    2.4051    0.0000 C   0  0  1  0  0  0  0  0  0  0  0  0
    6.0730    1.9750    0.0000 C   0  0  0  0  0  0  0  0  0  0  0  0
    7.0765    3.2333    0.0000 C   0  0  0  0  0  0  0  0  0  0  0  0
    6.6246   -2.9826    0.0000 C   0  0  0  0  0  0  0  0  0  0  0  0
    6.1185    2.9680    0.0000 C   0  0  0  0  0  0  0  0  0  0  0  0
    4.6979   -1.0872    0.0000 C   0  0  0  0  0  0  0  0  0  0  0  0
   10.2247    1.8458    0.0000 C   0  0  0  0  0  0  0  0  0  0  0  0
    5.3366    3.5915    0.0000 C   0  0  0  0  0  0  0  0  0  0  0  0
    3.8695   -1.6473    0.0000 C   0  0  0  0  0  0  0  0  0  0  0  0
    2.9702   -1.2099    0.0000 C   0  0  0  0  0  0  0  0  0  0  0  0
    3.9404   -2.6448    0.0000 C   0  0  0  0  0  0  0  0  0  0  0  0
    2.1418   -1.7701    0.0000 C   0  0  0  0  0  0  0  0  0  0  0  0
    3.1120   -3.2049    0.0000 C   0  0  0  0  0  0  0  0  0  0  0  0
    2.2127   -2.7676    0.0000 C   0  0  0  0  0  0  0  0  0  0  0  0
    2.0000    0.2249    0.0000 C   0  0  0  0  0  0  0  0  0  0  0  0
    9.0670   -0.7495    0.0000 H   0  0  0  0  0  0  0  0  0  0  0  0
    8.8657   -0.2048    0.0000 H   0  0  0  0  0  0  0  0  0  0  0  0
    5.8685   -0.6921    0.0000 H   0  0  0  0  0  0  0  0  0  0  0  0
    6.1589    0.6628    0.0000 H   0  0  0  0  0  0  0  0  0  0  0  0
    9.3540   -2.3969    0.0000 H   0  0  0  0  0  0  0  0  0  0  0  0
    9.9208   -1.7279    0.0000 H   0  0  0  0  0  0  0  0  0  0  0  0
    9.2518   -1.1611    0.0000 H   0  0  0  0  0  0  0  0  0  0  0  0
    7.3187   -2.5011    0.0000 H   0  0  0  0  0  0  0  0  0  0  0  0
    7.6147   -3.3264    0.0000 H   0  0  0  0  0  0  0  0  0  0  0  0
    8.4400   -3.0304    0.0000 H   0  0  0  0  0  0  0  0  0  0  0  0
    7.8315    1.4341    0.0000 H   0  0  0  0  0  0  0  0  0  0  0  0
    9.5120    0.2618    0.0000 H   0  0  0  0  0  0  0  0  0  0  0  0
    8.0281    3.1541    0.0000 H   0  0  0  0  0  0  0  0  0  0  0  0
    5.3186    0.6305    0.0000 H   0  0  0  0  0  0  0  0  0  0  0  0
    4.7390   -0.0275    0.0000 H   0  0  0  0  0  0  0  0  0  0  0  0
    5.3969   -0.6070    0.0000 H   0  0  0  0  0  0  0  0  0  0  0  0
    5.7061    1.0359    0.0000 H   0  0  0  0  0  0  0  0  0  0  0  0
    9.2424    2.4745    0.0000 H   0  0  0  0  0  0  0  0  0  0  0  0
    5.5550    1.6343    0.0000 H   0  0  0  0  0  0  0  0  0  0  0  0
   10.7455    2.1822    0.0000 H   0  0  0  0  0  0  0  0  0  0  0  0
    9.9839    2.4171    0.0000 H   0  0  0  0  0  0  0  0  0  0  0  0
    9.6784    3.3524    0.0000 H   0  0  0  0  0  0  0  0  0  0  0  0
    5.7232    4.0762    0.0000 H   0  0  0  0  0  0  0  0  0  0  0  0
    4.8519    3.9781    0.0000 H   0  0  0  0  0  0  0  0  0  0  0  0
    4.9501    3.1068    0.0000 H   0  0  0  0  0  0  0  0  0  0  0  0
    5.8538   -4.1702    0.0000 H   0  0  0  0  0  0  0  0  0  0  0  0
   11.5093    1.2507    0.0000 H   0  0  0  0  0  0  0  0  0  0  0  0
    4.4979   -2.9159    0.0000 H   0  0  0  0  0  0  0  0  0  0  0  0
    1.5842   -1.4989    0.0000 H   0  0  0  0  0  0  0  0  0  0  0  0
    3.1559   -3.8233    0.0000 H   0  0  0  0  0  0  0  0  0  0  0  0
    3.4129    0.1348    0.0000 H   0  0  0  0  0  0  0  0  0  0  0  0
    1.6990   -3.1148    0.0000 H   0  0  0  0  0  0  0  0  0  0  0  0
    2.2712    0.7825    0.0000 H   0  0  0  0  0  0  0  0  0  0  0  0
    1.4424    0.4961    0.0000 H   0  0  0  0  0  0  0  0  0  0  0  0
    1.7288   -0.3327    0.0000 H   0  0  0  0  0  0  0  0  0  0  0  0
 12  1  1  1  0  0  0
  1 28  1  0  0  0  0
 15  2  1  6  0  0  0
  2 30  1  0  0  0  0
 16  3  1  1  0  0  0
  3 56  1  0  0  0  0
 25  4  1  6  0  0  0
  4 61  1  0  0  0  0
  5 28  1  0  0  0  0
  5 65  1  0  0  0  0
  6 27  2  0  0  0  0
  7 28  2  0  0  0  0
  8 31  1  0  0  0  0
  8 66  1  0  0  0  0
  9 30  2  0  0  0  0
 10 34  1  0  0  0  0
 10 39  1  0  0  0  0
 10 70  1  0  0  0  0
 11 12  1  0  0  0  0
 11 13  1  0  0  0  0
 11 14  1  0  0  0  0
 11 40  1  1  0  0  0
 12 13  1  0  0  0  0
 12 15  1  0  0  0  0
 13 18  1  0  0  0  0
 13 19  1  0  0  0  0
 14 16  1  0  0  0  0
 14 21  1  0  0  0  0
 14 41  1  6  0  0  0
 15 17  1  0  0  0  0
 15 42  1  0  0  0  0
 16 17  1  0  0  0  0
 16 20  1  0  0  0  0
 17 23  1  1  0  0  0
 17 43  1  0  0  0  0
 18 44  1  0  0  0  0
 18 45  1  0  0  0  0
 18 46  1  0  0  0  0
 19 47  1  0  0  0  0
 19 48  1  0  0  0  0
 19 49  1  0  0  0  0
 20 22  1  0  0  0  0
 20 26  1  0  0  0  0
 20 50  1  1  0  0  0
 21 24  2  0  0  0  0
 21 51  1  0  0  0  0
 22 25  1  0  0  0  0
 22 27  1  0  0  0  0
 22 52  1  6  0  0  0
 23 53  1  0  0  0  0
 23 54  1  0  0  0  0
 23 55  1  0  0  0  0
 24 25  1  0  0  0  0
 24 31  1  0  0  0  0
 25 57  1  0  0  0  0
 26 29  2  0  0  0  0
 26 58  1  0  0  0  0
 27 29  1  0  0  0  0
 29 32  1  0  0  0  0
 30 33  1  0  0  0  0
 31 59  1  0  0  0  0
 31 60  1  0  0  0  0
 32 62  1  0  0  0  0
 32 63  1  0  0  0  0
 32 64  1  0  0  0  0
 33 34  1  0  0  0  0
 33 35  2  0  0  0  0
 34 36  2  0  0  0  0
 35 37  1  0  0  0  0
 35 67  1  0  0  0  0
 36 38  1  0  0  0  0
 36 68  1  0  0  0  0
 37 38  2  0  0  0  0
 37 69  1  0  0  0  0
 38 71  1  0  0  0  0
 39 72  1  0  0  0  0
 39 73  1  0  0  0  0
 39 74  1  0  0  0  0
M  END
> <PUBCHEM_COMPOUND_CID>
504730
> <PUBCHEM_COMPOUND_CANONICALIZED>
1
> <PUBCHEM_CACTVS_COMPLEXITY>
1130
> <PUBCHEM_CACTVS_HBOND_ACCEPTOR>
10
> <PUBCHEM_CACTVS_HBOND_DONOR>
5
> <PUBCHEM_CACTVS_ROTATABLE_BOND>
7
> <PUBCHEM_CACTVS_SUBSKEYS>
AAADcfB6PAAAAAAAAAAAAAAAGAAAAQAAAAAwYAAABggAAACBAAAAHgAQCAAAD1yhmAYyyILABgCIAqTSSACCAAAlAgAIiIEIbMgZNj7AtZmGcYhn8AFO+cfa7PyPgAAAAAACAADCAAYQADSAAAAAAAAAAA==
> <PUBCHEM_IUPAC_OPENEYE_NAME>
[(1R,2R,6R,7S,10S,11R,13S,14R,15R)-13-carboxyoxy-1,7-dihydroxy-8-(hydroxymethyl)-4,12,12,15-tetramethyl-5-oxo-14-tetracyclo[8.5.0.02,6.011,13]pentadeca-3,8-dienyl] 2-(methylamino)benzoate
> <PUBCHEM_IUPAC_CAS_NAME>
2-(methylamino)benzoic acid [(1R,2R,6R,7S,10S,11R,13S,14R,15R)-13-carboxyoxy-1,7-dihydroxy-8-(hydroxymethyl)-4,12,12,15-tetramethyl-5-oxo-14-tetracyclo[8.5.0.02,6.011,13]pentadeca-3,8-dienyl] ester
> <PUBCHEM_IUPAC_NAME_MARKUP>
[(1<I>R</I>,2<I>R</I>,6<I>R</I>,7<I>S</I>,10<I>S</I>,11<I>R</I>,13<I>S</I>,14<I>R</I>,15<I>R</I>)-13-carboxyoxy-1,7-dihydroxy-8-(hydroxymethyl)-4,12,12,15-tetramethyl-5-oxo-14-tetracyclo[8.5.0.0<SUP>2,6</SUP>.0<SUP>11,13</SUP>]pentadeca-3,8-dienyl] 2-(methylamino)benzoate
> <PUBCHEM_IUPAC_NAME>
[(1R,2R,6R,7S,10S,11R,13S,14R,15R)-13-carboxyoxy-1,7-dihydroxy-8-(hydroxymethyl)-4,12,12,15-tetramethyl-5-oxo-14-tetracyclo[8.5.0.02,6.011,13]pentadeca-3,8-dienyl] 2-(methylamino)benzoate
> <PUBCHEM_IUPAC_SYSTEMATIC_NAME>
[(1R,2R,6R,7S,10S,11R,13S,14R,15R)-13-carboxyoxy-8-(hydroxymethyl)-4,12,12,15-tetramethyl-1,7-bis(oxidanyl)-5-oxidanylidene-14-tetracyclo[8.5.0.02,6.011,13]pentadeca-3,8-dienyl] 2-(methylamino)benzoate
> <PUBCHEM_IUPAC_TRADITIONAL_NAME>
2-(methylamino)benzoic acid [(1R,2R,6R,7S,10S,11R,13S,14R,15R)-13-carboxyoxy-1,7-dihydroxy-5-keto-4,12,12,15-tetramethyl-8-methylol-14-tetracyclo[8.5.0.02,6.011,13]pentadeca-3,8-dienyl] ester
> <PUBCHEM_IUPAC_INCHI>
InChI=1S/C29H35NO9/c1-13-10-17-20(21(13)32)22(33)15(12-31)11-18-23-27(3,4)29(23,39-26(35)36)24(14(2)28(17,18)37)38-25(34)16-8-6-7-9-19(16)30-5/h6-11,14,17-18,20,22-24,30-31,33,37H,12H2,1-5H3,(H,35,36)/t14-,17-,18+,20+,22-,23-,24-,28+,29-/m1/s1
> <PUBCHEM_IUPAC_INCHIKEY>
VHACCOFSDJZXLL-RNCDMDIPSA-N
> <PUBCHEM_XLOGP3_AA>
2.8
> <PUBCHEM_EXACT_MASS>
541.23118169
> <PUBCHEM_MOLECULAR_FORMULA>
C29H35NO9
> <PUBCHEM_MOLECULAR_WEIGHT>
541.6
> <PUBCHEM_OPENEYE_CAN_SMILES>
CC1C(C2(C(C2(C)C)C3C1(C4C=C(C(=O)C4C(C(=C3)CO)O)C)O)OC(=O)O)OC(=O)C5=CC=CC=C5NC
> <PUBCHEM_OPENEYE_ISO_SMILES>
C[C@@H]1[C@H]([C@@]2([C@@H](C2(C)C)[C@H]3[C@]1([C@@H]4C=C(C(=O)[C@H]4[C@@H](C(=C3)CO)O)C)O)OC(=O)O)OC(=O)C5=CC=CC=C5NC
> <PUBCHEM_CACTVS_TPSA>
163
> <PUBCHEM_MONOISOTOPIC_WEIGHT>
541.23118169
> <PUBCHEM_TOTAL_CHARGE>
0
> <PUBCHEM_HEAVY_ATOM_COUNT>
39
> <PUBCHEM_ATOM_DEF_STEREO_COUNT>
9
> <PUBCHEM_ATOM_UDEF_STEREO_COUNT>
0
> <PUBCHEM_BOND_DEF_STEREO_COUNT>
0
> <PUBCHEM_BOND_UDEF_STEREO_COUNT>
0
> <PUBCHEM_ISOTOPIC_ATOM_COUNT>
0
> <PUBCHEM_COMPONENT_COUNT>
1
> <PUBCHEM_CACTVS_TAUTO_COUNT>
-1
> <PUBCHEM_COORDINATE_TYPE>
1
5
255
> <PUBCHEM_BONDANNOTATIONS>
12  1  5
11  40  5
14  41  6
17  23  5
15  2  6
20  50  5
22  52  6
16  3  5
33  34  8
33  35  8
34  36  8
35  37  8
36  38  8
37  38  8
25  4  6
$$$$
