504760
  -OEChem-10302200282D
 90 93  0     1  0  0  0  0  0999 V2000
    6.0010   -0.5173    0.0000 S   0  0  0  0  0  0  0  0  0  0  0  0
    8.5991    1.9827    0.0000 S   0  0  0  0  0  0  0  0  0  0  0  0
   12.0632    1.9827    0.0000 S   0  0  3  0  0  0  0  0  0  0  0  0
    8.5991   -2.0173    0.0000 O   0  0  0  0  0  0  0  0  0  0  0  0
    5.5010   -1.3834    0.0000 O   0  0  0  0  0  0  0  0  0  0  0  0
    6.5010    0.3487    0.0000 O   0  0  0  0  0  0  0  0  0  0  0  0
    8.0991    2.8487    0.0000 O   0  0  0  0  0  0  0  0  0  0  0  0
    9.0991    1.1166    0.0000 O   0  0  0  0  0  0  0  0  0  0  0  0
   12.0632    0.9827    0.0000 O   0  0  0  0  0  0  0  0  0  0  0  0
    6.8671   -1.0173    0.0000 N   0  0  3  0  0  0  0  0  0  0  0  0
    9.4651    2.4827    0.0000 N   0  0  0  0  0  0  0  0  0  0  0  0
    2.5369    1.4827    0.0000 N   0  0  0  0  0  0  0  0  0  0  0  0
    9.4651   -0.5173    0.0000 C   0  0  2  0  0  0  0  0  0  0  0  0
    8.5991   -1.0173    0.0000 C   0  0  1  0  0  0  0  0  0  0  0  0
    7.7331   -0.5173    0.0000 C   0  0  0  0  0  0  0  0  0  0  0  0
    6.8671   -2.0173    0.0000 C   0  0  0  0  0  0  0  0  0  0  0  0
   10.3312   -1.0173    0.0000 C   0  0  0  0  0  0  0  0  0  0  0  0
    6.0010   -2.5173    0.0000 C   0  0  0  0  0  0  0  0  0  0  0  0
    9.4651    0.4827    0.0000 C   0  0  0  0  0  0  0  0  0  0  0  0
   10.3312   -2.0173    0.0000 C   0  0  0  0  0  0  0  0  0  0  0  0
   10.3312    1.9827    0.0000 C   0  0  1  0  0  0  0  0  0  0  0  0
   10.3312    0.9827    0.0000 C   0  0  0  0  0  0  0  0  0  0  0  0
    6.0010   -3.5173    0.0000 C   0  0  0  0  0  0  0  0  0  0  0  0
    5.1350   -2.0173    0.0000 C   0  0  0  0  0  0  0  0  0  0  0  0
    5.1350   -0.0173    0.0000 C   0  0  0  0  0  0  0  0  0  0  0  0
   11.1972    2.4827    0.0000 C   0  0  0  0  0  0  0  0  0  0  0  0
   11.1972   -2.5173    0.0000 C   0  0  0  0  0  0  0  0  0  0  0  0
    9.4651   -2.5173    0.0000 C   0  0  0  0  0  0  0  0  0  0  0  0
    5.1350    0.9827    0.0000 C   0  0  0  0  0  0  0  0  0  0  0  0
    4.2690   -0.5173    0.0000 C   0  0  0  0  0  0  0  0  0  0  0  0
   11.1972   -3.5173    0.0000 C   0  0  0  0  0  0  0  0  0  0  0  0
    9.4651   -3.5173    0.0000 C   0  0  0  0  0  0  0  0  0  0  0  0
    4.2690    1.4827    0.0000 C   0  0  0  0  0  0  0  0  0  0  0  0
    3.4030   -0.0173    0.0000 C   0  0  0  0  0  0  0  0  0  0  0  0
   10.3312   -4.0173    0.0000 C   0  0  0  0  0  0  0  0  0  0  0  0
    3.4030    0.9827    0.0000 C   0  0  0  0  0  0  0  0  0  0  0  0
   12.9292    2.4827    0.0000 C   0  0  0  0  0  0  0  0  0  0  0  0
    7.7331    1.4827    0.0000 C   0  0  0  0  0  0  0  0  0  0  0  0
   13.7953    1.9827    0.0000 C   0  0  0  0  0  0  0  0  0  0  0  0
   12.9292    3.4827    0.0000 C   0  0  0  0  0  0  0  0  0  0  0  0
   14.6613    2.4827    0.0000 C   0  0  0  0  0  0  0  0  0  0  0  0
   14.6613    3.4827    0.0000 C   0  0  0  0  0  0  0  0  0  0  0  0
   13.7953    3.9827    0.0000 C   0  0  0  0  0  0  0  0  0  0  0  0
   15.5552    1.9480    0.0000 C   0  0  0  0  0  0  0  0  0  0  0  0
   15.5552    4.0173    0.0000 C   0  0  0  0  0  0  0  0  0  0  0  0
   16.4613    2.4618    0.0000 C   0  0  0  0  0  0  0  0  0  0  0  0
   16.4613    3.5035    0.0000 C   0  0  0  0  0  0  0  0  0  0  0  0
   10.0021   -0.2073    0.0000 H   0  0  0  0  0  0  0  0  0  0  0  0
    8.0622   -1.3273    0.0000 H   0  0  0  0  0  0  0  0  0  0  0  0
    8.1316   -0.0424    0.0000 H   0  0  0  0  0  0  0  0  0  0  0  0
    7.3346   -0.0424    0.0000 H   0  0  0  0  0  0  0  0  0  0  0  0
    7.0791   -2.5999    0.0000 H   0  0  0  0  0  0  0  0  0  0  0  0
    7.4776   -1.9097    0.0000 H   0  0  0  0  0  0  0  0  0  0  0  0
   10.9417   -1.1250    0.0000 H   0  0  0  0  0  0  0  0  0  0  0  0
   10.5432   -0.4347    0.0000 H   0  0  0  0  0  0  0  0  0  0  0  0
    6.5380   -2.8273    0.0000 H   0  0  0  0  0  0  0  0  0  0  0  0
    8.9282    0.7927    0.0000 H   0  0  0  0  0  0  0  0  0  0  0  0
    9.7942    1.6727    0.0000 H   0  0  0  0  0  0  0  0  0  0  0  0
   10.8681    0.6727    0.0000 H   0  0  0  0  0  0  0  0  0  0  0  0
    8.0622   -2.3273    0.0000 H   0  0  0  0  0  0  0  0  0  0  0  0
    5.3810   -3.5173    0.0000 H   0  0  0  0  0  0  0  0  0  0  0  0
    6.0010   -4.1373    0.0000 H   0  0  0  0  0  0  0  0  0  0  0  0
    6.6210   -3.5173    0.0000 H   0  0  0  0  0  0  0  0  0  0  0  0
    5.4450   -1.4804    0.0000 H   0  0  0  0  0  0  0  0  0  0  0  0
    4.5981   -1.7073    0.0000 H   0  0  0  0  0  0  0  0  0  0  0  0
    4.8250   -2.5543    0.0000 H   0  0  0  0  0  0  0  0  0  0  0  0
   11.5957    2.9576    0.0000 H   0  0  0  0  0  0  0  0  0  0  0  0
   10.7987    2.9576    0.0000 H   0  0  0  0  0  0  0  0  0  0  0  0
    9.4651    3.1027    0.0000 H   0  0  0  0  0  0  0  0  0  0  0  0
   11.7341   -2.2073    0.0000 H   0  0  0  0  0  0  0  0  0  0  0  0
    8.9282   -2.2073    0.0000 H   0  0  0  0  0  0  0  0  0  0  0  0
    5.6720    1.2927    0.0000 H   0  0  0  0  0  0  0  0  0  0  0  0
    4.2690   -1.1373    0.0000 H   0  0  0  0  0  0  0  0  0  0  0  0
   11.7341   -3.8273    0.0000 H   0  0  0  0  0  0  0  0  0  0  0  0
    8.9282   -3.8273    0.0000 H   0  0  0  0  0  0  0  0  0  0  0  0
    4.2690    2.1027    0.0000 H   0  0  0  0  0  0  0  0  0  0  0  0
    2.8660   -0.3273    0.0000 H   0  0  0  0  0  0  0  0  0  0  0  0
   10.3312   -4.6373    0.0000 H   0  0  0  0  0  0  0  0  0  0  0  0
    7.4231    2.0196    0.0000 H   0  0  0  0  0  0  0  0  0  0  0  0
    7.1962    1.1727    0.0000 H   0  0  0  0  0  0  0  0  0  0  0  0
    8.0431    0.9457    0.0000 H   0  0  0  0  0  0  0  0  0  0  0  0
   13.7953    1.3627    0.0000 H   0  0  0  0  0  0  0  0  0  0  0  0
   12.3923    3.7927    0.0000 H   0  0  0  0  0  0  0  0  0  0  0  0
   13.7953    4.6027    0.0000 H   0  0  0  0  0  0  0  0  0  0  0  0
    2.0000    1.1727    0.0000 H   0  0  0  0  0  0  0  0  0  0  0  0
    2.5369    2.1027    0.0000 H   0  0  0  0  0  0  0  0  0  0  0  0
   15.5481    1.3280    0.0000 H   0  0  0  0  0  0  0  0  0  0  0  0
   15.5481    4.6373    0.0000 H   0  0  0  0  0  0  0  0  0  0  0  0
   16.9970    2.1498    0.0000 H   0  0  0  0  0  0  0  0  0  0  0  0
   16.9970    3.8156    0.0000 H   0  0  0  0  0  0  0  0  0  0  0  0
  1  5  2  0  0  0  0
  1  6  2  0  0  0  0
  1 10  1  0  0  0  0
  1 25  1  0  0  0  0
  2  7  2  0  0  0  0
  2  8  2  0  0  0  0
  2 11  1  0  0  0  0
  2 38  1  0  0  0  0
  3  9  2  0  0  0  0
  3 26  1  0  0  0  0
  3 37  1  0  0  0  0
 14  4  1  6  0  0  0
  4 60  1  0  0  0  0
 10 15  1  0  0  0  0
 10 16  1  0  0  0  0
 21 11  1  6  0  0  0
 11 69  1  0  0  0  0
 12 36  1  0  0  0  0
 12 85  1  0  0  0  0
 12 86  1  0  0  0  0
 13 14  1  0  0  0  0
 13 17  1  0  0  0  0
 13 19  1  1  0  0  0
 13 48  1  0  0  0  0
 14 15  1  0  0  0  0
 14 49  1  0  0  0  0
 15 50  1  0  0  0  0
 15 51  1  0  0  0  0
 16 18  1  0  0  0  0
 16 52  1  0  0  0  0
 16 53  1  0  0  0  0
 17 20  1  0  0  0  0
 17 54  1  0  0  0  0
 17 55  1  0  0  0  0
 18 23  1  0  0  0  0
 18 24  1  0  0  0  0
 18 56  1  0  0  0  0
 19 22  2  3  0  0  0
 19 57  1  0  0  0  0
 20 27  2  0  0  0  0
 20 28  1  0  0  0  0
 21 22  1  0  0  0  0
 21 26  1  0  0  0  0
 21 58  1  0  0  0  0
 22 59  1  0  0  0  0
 23 61  1  0  0  0  0
 23 62  1  0  0  0  0
 23 63  1  0  0  0  0
 24 64  1  0  0  0  0
 24 65  1  0  0  0  0
 24 66  1  0  0  0  0
 25 29  2  0  0  0  0
 25 30  1  0  0  0  0
 26 67  1  0  0  0  0
 26 68  1  0  0  0  0
 27 31  1  0  0  0  0
 27 70  1  0  0  0  0
 28 32  2  0  0  0  0
 28 71  1  0  0  0  0
 29 33  1  0  0  0  0
 29 72  1  0  0  0  0
 30 34  2  0  0  0  0
 30 73  1  0  0  0  0
 31 35  2  0  0  0  0
 31 74  1  0  0  0  0
 32 35  1  0  0  0  0
 32 75  1  0  0  0  0
 33 36  2  0  0  0  0
 33 76  1  0  0  0  0
 34 36  1  0  0  0  0
 34 77  1  0  0  0  0
 35 78  1  0  0  0  0
 37 39  2  0  0  0  0
 37 40  1  0  0  0  0
 38 79  1  0  0  0  0
 38 80  1  0  0  0  0
 38 81  1  0  0  0  0
 39 41  1  0  0  0  0
 39 82  1  0  0  0  0
 40 43  2  0  0  0  0
 40 83  1  0  0  0  0
 41 42  1  0  0  0  0
 41 44  2  0  0  0  0
 42 43  1  0  0  0  0
 42 45  2  0  0  0  0
 43 84  1  0  0  0  0
 44 46  1  0  0  0  0
 44 87  1  0  0  0  0
 45 47  1  0  0  0  0
 45 88  1  0  0  0  0
 46 47  2  0  0  0  0
 46 89  1  0  0  0  0
 47 90  1  0  0  0  0
M  END
> <PUBCHEM_COMPOUND_CID>
504760
> <PUBCHEM_COMPOUND_CANONICALIZED>
1
> <PUBCHEM_CACTVS_COMPLEXITY>
1220
> <PUBCHEM_CACTVS_HBOND_ACCEPTOR>
10
> <PUBCHEM_CACTVS_HBOND_DONOR>
3
> <PUBCHEM_CACTVS_ROTATABLE_BOND>
16
> <PUBCHEM_CACTVS_SUBSKEYS>
AAADcfB/OABgAAAAAAAAAAAAAAAAAAAAAAAwYMGAAAAAAADBVAAAHgQQSAAADTzl2AaywcJAAgqAAiRCQHDCABAgChAIiJgIZIgKMCKgkZGEYABk0AC4yAeQwOAOkAQAgAAQAAAgCAEAACAAAAAAAAAAAA==
> <PUBCHEM_IUPAC_OPENEYE_NAME>
4-amino-N-[(2S,3R,6S)-3-benzyl-2-hydroxy-6-(methanesulfonamido)-7-(2-naphthylsulfinyl)hept-4-enyl]-N-isobutyl-benzenesulfonamide
> <PUBCHEM_IUPAC_CAS_NAME>
4-amino-N-[(2S,3R,6S)-2-hydroxy-6-(methanesulfonamido)-7-(2-naphthalenylsulfinyl)-3-(phenylmethyl)hept-4-enyl]-N-(2-methylpropyl)benzenesulfonamide
> <PUBCHEM_IUPAC_NAME_MARKUP>
4-amino-<I>N</I>-[(2<I>S</I>,3<I>R</I>,6<I>S</I>)-3-benzyl-2-hydroxy-6-(methanesulfonamido)-7-naphthalen-2-ylsulfinylhept-4-enyl]-<I>N</I>-(2-methylpropyl)benzenesulfonamide
> <PUBCHEM_IUPAC_NAME>
4-amino-N-[(2S,3R,6S)-3-benzyl-2-hydroxy-6-(methanesulfonamido)-7-naphthalen-2-ylsulfinylhept-4-enyl]-N-(2-methylpropyl)benzenesulfonamide
> <PUBCHEM_IUPAC_SYSTEMATIC_NAME>
4-azanyl-N-(2-methylpropyl)-N-[(2S,3R,6S)-6-(methylsulfonylamino)-7-naphthalen-2-ylsulfinyl-2-oxidanyl-3-(phenylmethyl)hept-4-enyl]benzenesulfonamide
> <PUBCHEM_IUPAC_TRADITIONAL_NAME>
4-amino-N-[(2S,3R,6S)-3-benzyl-2-hydroxy-6-(methanesulfonamido)-7-(2-naphthylsulfinyl)hept-4-enyl]-N-isobutyl-benzenesulfonamide
> <PUBCHEM_IUPAC_INCHI>
InChI=1S/C35H43N3O6S3/c1-26(2)23-38(47(43,44)34-19-15-31(36)16-20-34)24-35(39)30(21-27-9-5-4-6-10-27)13-17-32(37-46(3,41)42)25-45(40)33-18-14-28-11-7-8-12-29(28)22-33/h4-20,22,26,30,32,35,37,39H,21,23-25,36H2,1-3H3/t30-,32-,35+,45?/m0/s1
> <PUBCHEM_IUPAC_INCHIKEY>
WGAXKIBBLQOPDQ-QTWOPFRJSA-N
> <PUBCHEM_XLOGP3_AA>
4.8
> <PUBCHEM_EXACT_MASS>
697.23139962
> <PUBCHEM_MOLECULAR_FORMULA>
C35H43N3O6S3
> <PUBCHEM_MOLECULAR_WEIGHT>
697.9
> <PUBCHEM_OPENEYE_CAN_SMILES>
CC(C)CN(CC(C(CC1=CC=CC=C1)C=CC(CS(=O)C2=CC3=CC=CC=C3C=C2)NS(=O)(=O)C)O)S(=O)(=O)C4=CC=C(C=C4)N
> <PUBCHEM_OPENEYE_ISO_SMILES>
CC(C)CN(C[C@H]([C@H](CC1=CC=CC=C1)C=C[C@@H](CS(=O)C2=CC3=CC=CC=C3C=C2)NS(=O)(=O)C)O)S(=O)(=O)C4=CC=C(C=C4)N
> <PUBCHEM_CACTVS_TPSA>
183
> <PUBCHEM_MONOISOTOPIC_WEIGHT>
697.23139962
> <PUBCHEM_TOTAL_CHARGE>
0
> <PUBCHEM_HEAVY_ATOM_COUNT>
47
> <PUBCHEM_ATOM_DEF_STEREO_COUNT>
3
> <PUBCHEM_ATOM_UDEF_STEREO_COUNT>
1
> <PUBCHEM_BOND_DEF_STEREO_COUNT>
0
> <PUBCHEM_BOND_UDEF_STEREO_COUNT>
1
> <PUBCHEM_ISOTOPIC_ATOM_COUNT>
0
> <PUBCHEM_COMPONENT_COUNT>
1
> <PUBCHEM_CACTVS_TAUTO_COUNT>
-1
> <PUBCHEM_COORDINATE_TYPE>
1
5
255
> <PUBCHEM_BONDANNOTATIONS>
21  11  6
13  19  5
19  22  1
20  27  8
20  28  8
25  29  8
25  30  8
27  31  8
28  32  8
29  33  8
3  26  3
30  34  8
31  35  8
32  35  8
33  36  8
34  36  8
37  39  8
37  40  8
39  41  8
14  4  6
40  43  8
41  42  8
41  44  8
42  43  8
42  45  8
44  46  8
45  47  8
46  47  8
$$$$
