504747
  -OEChem-10302200282D
 36 38  0     1  0  0  0  0  0999 V2000
    6.8671   -3.8284    0.0000 Cl  0  0  0  0  0  0  0  0  0  0  0  0
    8.4036    0.7369    0.0000 O   0  0  0  0  0  0  0  0  0  0  0  0
   10.7496   -0.3550    0.0000 O   0  0  0  0  0  0  0  0  0  0  0  0
   10.7533    1.8206    0.0000 O   0  0  0  0  0  0  0  0  0  0  0  0
    9.3558    3.2384    0.0000 O   0  0  0  0  0  0  0  0  0  0  0  0
    2.5369   -0.3284    0.0000 O   0  0  0  0  0  0  0  0  0  0  0  0
    8.6793   -1.0237    0.0000 N   0  0  0  0  0  0  0  0  0  0  0  0
    8.6793   -2.6332    0.0000 N   0  0  0  0  0  0  0  0  0  0  0  0
    6.8671   -0.8284    0.0000 N   0  0  0  0  0  0  0  0  0  0  0  0
    6.0010   -2.3284    0.0000 N   0  0  0  0  0  0  0  0  0  0  0  0
    9.9416    0.2342    0.0000 C   0  0  1  0  0  0  0  0  0  0  0  0
    8.9900   -0.0732    0.0000 C   0  0  1  0  0  0  0  0  0  0  0  0
    9.9433    1.2342    0.0000 C   0  0  1  0  0  0  0  0  0  0  0  0
    8.9928    1.5449    0.0000 C   0  0  1  0  0  0  0  0  0  0  0  0
    8.6854    2.4964    0.0000 C   0  0  0  0  0  0  0  0  0  0  0  0
    7.7331   -1.3284    0.0000 C   0  0  0  0  0  0  0  0  0  0  0  0
    9.2629   -1.8284    0.0000 C   0  0  0  0  0  0  0  0  0  0  0  0
    7.7331   -2.3284    0.0000 C   0  0  0  0  0  0  0  0  0  0  0  0
    6.8671   -2.8284    0.0000 C   0  0  0  0  0  0  0  0  0  0  0  0
    6.0010   -1.3284    0.0000 C   0  0  0  0  0  0  0  0  0  0  0  0
    5.1350   -0.8284    0.0000 C   0  0  0  0  0  0  0  0  0  0  0  0
    4.2690   -0.3284    0.0000 C   0  0  0  0  0  0  0  0  0  0  0  0
    3.4030    0.1716    0.0000 C   0  0  0  0  0  0  0  0  0  0  0  0
    9.8435   -0.3780    0.0000 H   0  0  0  0  0  0  0  0  0  0  0  0
    9.4276   -0.5123    0.0000 H   0  0  0  0  0  0  0  0  0  0  0  0
   10.4952    0.9518    0.0000 H   0  0  0  0  0  0  0  0  0  0  0  0
    8.3806    1.6429    0.0000 H   0  0  0  0  0  0  0  0  0  0  0  0
    8.3045    2.9857    0.0000 H   0  0  0  0  0  0  0  0  0  0  0  0
    8.1375    2.2063    0.0000 H   0  0  0  0  0  0  0  0  0  0  0  0
   11.3164   -0.1038    0.0000 H   0  0  0  0  0  0  0  0  0  0  0  0
   11.3193    1.5674    0.0000 H   0  0  0  0  0  0  0  0  0  0  0  0
    9.8829   -1.8284    0.0000 H   0  0  0  0  0  0  0  0  0  0  0  0
    9.1652    3.8284    0.0000 H   0  0  0  0  0  0  0  0  0  0  0  0
    3.8015    0.6465    0.0000 H   0  0  0  0  0  0  0  0  0  0  0  0
    3.0044    0.6465    0.0000 H   0  0  0  0  0  0  0  0  0  0  0  0
    2.0000   -0.0184    0.0000 H   0  0  0  0  0  0  0  0  0  0  0  0
  1 19  1  0  0  0  0
  2 12  1  0  0  0  0
  2 14  1  0  0  0  0
 11  3  1  1  0  0  0
  3 30  1  0  0  0  0
 13  4  1  1  0  0  0
  4 31  1  0  0  0  0
  5 15  1  0  0  0  0
  5 33  1  0  0  0  0
  6 23  1  0  0  0  0
  6 36  1  0  0  0  0
 12  7  1  6  0  0  0
  7 16  1  0  0  0  0
  7 17  1  0  0  0  0
  8 17  2  0  0  0  0
  8 18  1  0  0  0  0
  9 16  1  0  0  0  0
  9 20  2  0  0  0  0
 10 19  2  0  0  0  0
 10 20  1  0  0  0  0
 11 12  1  0  0  0  0
 11 13  1  0  0  0  0
 11 24  1  0  0  0  0
 12 25  1  0  0  0  0
 13 14  1  0  0  0  0
 13 26  1  0  0  0  0
 14 15  1  6  0  0  0
 14 27  1  0  0  0  0
 15 28  1  0  0  0  0
 15 29  1  0  0  0  0
 16 18  2  0  0  0  0
 17 32  1  0  0  0  0
 18 19  1  0  0  0  0
 20 21  1  0  0  0  0
 21 22  3  0  0  0  0
 22 23  1  0  0  0  0
 23 34  1  0  0  0  0
 23 35  1  0  0  0  0
M  END
> <PUBCHEM_COMPOUND_CID>
504747
> <PUBCHEM_COMPOUND_CANONICALIZED>
1
> <PUBCHEM_CACTVS_COMPLEXITY>
499
> <PUBCHEM_CACTVS_HBOND_ACCEPTOR>
8
> <PUBCHEM_CACTVS_HBOND_DONOR>
4
> <PUBCHEM_CACTVS_ROTATABLE_BOND>
3
> <PUBCHEM_CACTVS_SUBSKEYS>
AAADccBzuAAEAAAAAAAAAAAAAAAAAWJAAAAsAAAAAAAAAFgB+AAAHgIACAAACB7hlyYF8L8MFgDgEQZhZACAgC0RFKABUCAoVhCDWAJAyEBeRAgPAALTACDwMAIAAAAAAAAAAAAAAAAAAAAAAAAAAAAAAA==
> <PUBCHEM_IUPAC_OPENEYE_NAME>
(2R,3R,4S,5R)-2-[6-chloro-2-(3-hydroxyprop-1-ynyl)purin-9-yl]-5-(hydroxymethyl)tetrahydrofuran-3,4-diol
> <PUBCHEM_IUPAC_CAS_NAME>
(2R,3R,4S,5R)-2-[6-chloro-2-(3-hydroxyprop-1-ynyl)-9-purinyl]-5-(hydroxymethyl)oxolane-3,4-diol
> <PUBCHEM_IUPAC_NAME_MARKUP>
(2<I>R</I>,3<I>R</I>,4<I>S</I>,5<I>R</I>)-2-[6-chloro-2-(3-hydroxyprop-1-ynyl)purin-9-yl]-5-(hydroxymethyl)oxolane-3,4-diol
> <PUBCHEM_IUPAC_NAME>
(2R,3R,4S,5R)-2-[6-chloro-2-(3-hydroxyprop-1-ynyl)purin-9-yl]-5-(hydroxymethyl)oxolane-3,4-diol
> <PUBCHEM_IUPAC_SYSTEMATIC_NAME>
(2R,3R,4S,5R)-2-[6-chloranyl-2-(3-oxidanylprop-1-ynyl)purin-9-yl]-5-(hydroxymethyl)oxolane-3,4-diol
> <PUBCHEM_IUPAC_TRADITIONAL_NAME>
(2R,3R,4S,5R)-2-[6-chloro-2-(3-hydroxyprop-1-ynyl)purin-9-yl]-5-methylol-tetrahydrofuran-3,4-diol
> <PUBCHEM_IUPAC_INCHI>
InChI=1S/C13H13ClN4O5/c14-11-8-12(17-7(16-11)2-1-3-19)18(5-15-8)13-10(22)9(21)6(4-20)23-13/h5-6,9-10,13,19-22H,3-4H2/t6-,9-,10-,13-/m1/s1
> <PUBCHEM_IUPAC_INCHIKEY>
XYJDXNYNOKEHTF-ZRFIDHNTSA-N
> <PUBCHEM_XLOGP3>
-0.2
> <PUBCHEM_EXACT_MASS>
340.0574472
> <PUBCHEM_MOLECULAR_FORMULA>
C13H13ClN4O5
> <PUBCHEM_MOLECULAR_WEIGHT>
340.72
> <PUBCHEM_OPENEYE_CAN_SMILES>
C1=NC2=C(N1C3C(C(C(O3)CO)O)O)N=C(N=C2Cl)C#CCO
> <PUBCHEM_OPENEYE_ISO_SMILES>
C1=NC2=C(N1[C@H]3[C@@H]([C@@H]([C@H](O3)CO)O)O)N=C(N=C2Cl)C#CCO
> <PUBCHEM_CACTVS_TPSA>
134
> <PUBCHEM_MONOISOTOPIC_WEIGHT>
340.0574472
> <PUBCHEM_TOTAL_CHARGE>
0
> <PUBCHEM_HEAVY_ATOM_COUNT>
23
> <PUBCHEM_ATOM_DEF_STEREO_COUNT>
4
> <PUBCHEM_ATOM_UDEF_STEREO_COUNT>
0
> <PUBCHEM_BOND_DEF_STEREO_COUNT>
0
> <PUBCHEM_BOND_UDEF_STEREO_COUNT>
0
> <PUBCHEM_ISOTOPIC_ATOM_COUNT>
0
> <PUBCHEM_COMPONENT_COUNT>
1
> <PUBCHEM_CACTVS_TAUTO_COUNT>
-1
> <PUBCHEM_COORDINATE_TYPE>
1
5
255
> <PUBCHEM_BONDANNOTATIONS>
10  19  8
10  20  8
14  15  6
16  18  8
18  19  8
11  3  5
13  4  5
12  7  6
7  16  8
7  17  8
8  17  8
8  18  8
9  16  8
9  20  8
$$$$
