504782
  -OEChem-10302200282D
 59 61  0     1  0  0  0  0  0999 V2000
    6.3301    2.0000    0.0000 O   0  0  0  0  0  0  0  0  0  0  0  0
    3.7320   -0.5000    0.0000 O   0  0  0  0  0  0  0  0  0  0  0  0
    6.3301    4.0000    0.0000 O   0  0  0  0  0  0  0  0  0  0  0  0
    4.5981    5.0000    0.0000 O   0  0  0  0  0  0  0  0  0  0  0  0
   12.3923    0.5000    0.0000 O   0  0  0  0  0  0  0  0  0  0  0  0
   12.3923    2.5000    0.0000 O   0  0  0  0  0  0  0  0  0  0  0  0
    4.5981   -5.0000    0.0000 O   0  0  0  0  0  0  0  0  0  0  0  0
    2.0000   -3.5000    0.0000 O   0  5  0  0  0  0  0  0  0  0  0  0
    2.8660   -5.0000    0.0000 O   0  0  0  0  0  0  0  0  0  0  0  0
    5.4641   -0.5000    0.0000 N   0  0  0  0  0  0  0  0  0  0  0  0
    7.1962    0.5000    0.0000 N   0  0  0  0  0  0  0  0  0  0  0  0
    2.8660   -4.0000    0.0000 N   0  3  0  0  0  0  0  0  0  0  0  0
    5.4641    0.5000    0.0000 C   0  0  1  0  0  0  0  0  0  0  0  0
    4.5981    1.0000    0.0000 C   0  0  0  0  0  0  0  0  0  0  0  0
    6.3301    1.0000    0.0000 C   0  0  0  0  0  0  0  0  0  0  0  0
    4.5981    2.0000    0.0000 C   0  0  0  0  0  0  0  0  0  0  0  0
    8.0622    1.0000    0.0000 C   0  0  0  0  0  0  0  0  0  0  0  0
    8.9282    0.5000    0.0000 C   0  0  0  0  0  0  0  0  0  0  0  0
    5.4641    2.5000    0.0000 C   0  0  0  0  0  0  0  0  0  0  0  0
    9.7942    1.0000    0.0000 C   0  0  0  0  0  0  0  0  0  0  0  0
    3.7320    2.5000    0.0000 C   0  0  0  0  0  0  0  0  0  0  0  0
    4.5981   -1.0000    0.0000 C   0  0  0  0  0  0  0  0  0  0  0  0
    4.5981   -2.0000    0.0000 C   0  0  0  0  0  0  0  0  0  0  0  0
    5.4641    3.5000    0.0000 C   0  0  0  0  0  0  0  0  0  0  0  0
    3.7320    3.5000    0.0000 C   0  0  0  0  0  0  0  0  0  0  0  0
    4.5981    4.0000    0.0000 C   0  0  0  0  0  0  0  0  0  0  0  0
   10.6603    0.5000    0.0000 C   0  0  0  0  0  0  0  0  0  0  0  0
    9.7942    2.0000    0.0000 C   0  0  0  0  0  0  0  0  0  0  0  0
    3.7320   -2.5000    0.0000 C   0  0  0  0  0  0  0  0  0  0  0  0
    5.4641   -2.5000    0.0000 C   0  0  0  0  0  0  0  0  0  0  0  0
   11.5263    1.0000    0.0000 C   0  0  0  0  0  0  0  0  0  0  0  0
   10.6603    2.5000    0.0000 C   0  0  0  0  0  0  0  0  0  0  0  0
   11.5263    2.0000    0.0000 C   0  0  0  0  0  0  0  0  0  0  0  0
    3.7320   -3.5000    0.0000 C   0  0  0  0  0  0  0  0  0  0  0  0
    5.4641   -3.5000    0.0000 C   0  0  0  0  0  0  0  0  0  0  0  0
    4.5981   -4.0000    0.0000 C   0  0  0  0  0  0  0  0  0  0  0  0
    6.0010    0.1900    0.0000 H   0  0  0  0  0  0  0  0  0  0  0  0
    3.9875    1.1077    0.0000 H   0  0  0  0  0  0  0  0  0  0  0  0
    4.3860    0.4174    0.0000 H   0  0  0  0  0  0  0  0  0  0  0  0
    6.0010   -0.8100    0.0000 H   0  0  0  0  0  0  0  0  0  0  0  0
    8.4607    1.4750    0.0000 H   0  0  0  0  0  0  0  0  0  0  0  0
    7.6636    1.4750    0.0000 H   0  0  0  0  0  0  0  0  0  0  0  0
    7.1962   -0.1200    0.0000 H   0  0  0  0  0  0  0  0  0  0  0  0
    8.5297    0.0251    0.0000 H   0  0  0  0  0  0  0  0  0  0  0  0
    9.3267    0.0251    0.0000 H   0  0  0  0  0  0  0  0  0  0  0  0
    6.0010    2.1900    0.0000 H   0  0  0  0  0  0  0  0  0  0  0  0
    3.1951    2.1900    0.0000 H   0  0  0  0  0  0  0  0  0  0  0  0
    3.1951    3.8100    0.0000 H   0  0  0  0  0  0  0  0  0  0  0  0
   10.6603   -0.1200    0.0000 H   0  0  0  0  0  0  0  0  0  0  0  0
    9.2573    2.3100    0.0000 H   0  0  0  0  0  0  0  0  0  0  0  0
    3.1951   -2.1900    0.0000 H   0  0  0  0  0  0  0  0  0  0  0  0
    6.0010   -2.1900    0.0000 H   0  0  0  0  0  0  0  0  0  0  0  0
   10.6603    3.1200    0.0000 H   0  0  0  0  0  0  0  0  0  0  0  0
    6.0010   -3.8100    0.0000 H   0  0  0  0  0  0  0  0  0  0  0  0
    6.3301    4.6200    0.0000 H   0  0  0  0  0  0  0  0  0  0  0  0
    4.0611    5.3100    0.0000 H   0  0  0  0  0  0  0  0  0  0  0  0
   12.3923   -0.1200    0.0000 H   0  0  0  0  0  0  0  0  0  0  0  0
   12.3923    3.1200    0.0000 H   0  0  0  0  0  0  0  0  0  0  0  0
    5.1350   -5.3100    0.0000 H   0  0  0  0  0  0  0  0  0  0  0  0
  1 15  2  0  0  0  0
  2 22  2  0  0  0  0
  3 24  1  0  0  0  0
  3 55  1  0  0  0  0
  4 26  1  0  0  0  0
  4 56  1  0  0  0  0
  5 31  1  0  0  0  0
  5 57  1  0  0  0  0
  6 33  1  0  0  0  0
  6 58  1  0  0  0  0
  7 36  1  0  0  0  0
  7 59  1  0  0  0  0
  8 12  1  0  0  0  0
  9 12  2  0  0  0  0
 13 10  1  1  0  0  0
 10 22  1  0  0  0  0
 10 40  1  0  0  0  0
 11 15  1  0  0  0  0
 11 17  1  0  0  0  0
 11 43  1  0  0  0  0
 12 34  1  0  0  0  0
 13 14  1  0  0  0  0
 13 15  1  0  0  0  0
 13 37  1  0  0  0  0
 14 16  1  0  0  0  0
 14 38  1  0  0  0  0
 14 39  1  0  0  0  0
 16 19  2  0  0  0  0
 16 21  1  0  0  0  0
 17 18  1  0  0  0  0
 17 41  1  0  0  0  0
 17 42  1  0  0  0  0
 18 20  1  0  0  0  0
 18 44  1  0  0  0  0
 18 45  1  0  0  0  0
 19 24  1  0  0  0  0
 19 46  1  0  0  0  0
 20 27  2  0  0  0  0
 20 28  1  0  0  0  0
 21 25  2  0  0  0  0
 21 47  1  0  0  0  0
 22 23  1  0  0  0  0
 23 29  2  0  0  0  0
 23 30  1  0  0  0  0
 24 26  2  0  0  0  0
 25 26  1  0  0  0  0
 25 48  1  0  0  0  0
 27 31  1  0  0  0  0
 27 49  1  0  0  0  0
 28 32  2  0  0  0  0
 28 50  1  0  0  0  0
 29 34  1  0  0  0  0
 29 51  1  0  0  0  0
 30 35  2  0  0  0  0
 30 52  1  0  0  0  0
 31 33  2  0  0  0  0
 32 33  1  0  0  0  0
 32 53  1  0  0  0  0
 34 36  2  0  0  0  0
 35 36  1  0  0  0  0
 35 54  1  0  0  0  0
M  CHG  2   8  -1  12   1
M  END
> <PUBCHEM_COMPOUND_CID>
504782
> <PUBCHEM_COMPOUND_CANONICALIZED>
1
> <PUBCHEM_CACTVS_COMPLEXITY>
764
> <PUBCHEM_CACTVS_HBOND_ACCEPTOR>
9
> <PUBCHEM_CACTVS_HBOND_DONOR>
7
> <PUBCHEM_CACTVS_ROTATABLE_BOND>
8
> <PUBCHEM_CACTVS_SUBSKEYS>
AAADceB7PAAAAAAAAAAAAAAAAAAAAAAAAAAwYMAAAAAAAAABUAAAHgAUCAAADCzBmAQwxoLQQgCJAiVSUwCCAAAkIgAoiIGP7MoLZjKSlbOUcQlk1lGJ2Yec3LPOIAABQAAAUABAAAKAAACgAAAAAAAAAA==
> <PUBCHEM_IUPAC_OPENEYE_NAME>
N-[(1S)-2-[2-(3,4-dihydroxyphenyl)ethylamino]-1-[(3,4-dihydroxyphenyl)methyl]-2-oxo-ethyl]-4-hydroxy-3-nitro-benzamide
> <PUBCHEM_IUPAC_CAS_NAME>
N-[(2S)-3-(3,4-dihydroxyphenyl)-1-[2-(3,4-dihydroxyphenyl)ethylamino]-1-oxopropan-2-yl]-4-hydroxy-3-nitrobenzamide
> <PUBCHEM_IUPAC_NAME_MARKUP>
<I>N</I>-[(2<I>S</I>)-3-(3,4-dihydroxyphenyl)-1-[2-(3,4-dihydroxyphenyl)ethylamino]-1-oxopropan-2-yl]-4-hydroxy-3-nitrobenzamide
> <PUBCHEM_IUPAC_NAME>
N-[(2S)-3-(3,4-dihydroxyphenyl)-1-[2-(3,4-dihydroxyphenyl)ethylamino]-1-oxopropan-2-yl]-4-hydroxy-3-nitrobenzamide
> <PUBCHEM_IUPAC_SYSTEMATIC_NAME>
N-[(2S)-3-[3,4-bis(oxidanyl)phenyl]-1-[2-[3,4-bis(oxidanyl)phenyl]ethylamino]-1-oxidanylidene-propan-2-yl]-3-nitro-4-oxidanyl-benzamide
> <PUBCHEM_IUPAC_TRADITIONAL_NAME>
N-[(1S)-2-[2-(3,4-dihydroxyphenyl)ethylamino]-2-keto-1-protocatechuyl-ethyl]-4-hydroxy-3-nitro-benzamide
> <PUBCHEM_IUPAC_INCHI>
InChI=1S/C24H23N3O9/c28-18-6-3-15(12-17(18)27(35)36)23(33)26-16(9-14-2-5-20(30)22(32)11-14)24(34)25-8-7-13-1-4-19(29)21(31)10-13/h1-6,10-12,16,28-32H,7-9H2,(H,25,34)(H,26,33)/t16-/m0/s1
> <PUBCHEM_IUPAC_INCHIKEY>
QEIYUKWGWFTUOV-INIZCTEOSA-N
> <PUBCHEM_XLOGP3_AA>
3.1
> <PUBCHEM_EXACT_MASS>
497.14342932
> <PUBCHEM_MOLECULAR_FORMULA>
C24H23N3O9
> <PUBCHEM_MOLECULAR_WEIGHT>
497.5
> <PUBCHEM_OPENEYE_CAN_SMILES>
C1=CC(=C(C=C1CCNC(=O)C(CC2=CC(=C(C=C2)O)O)NC(=O)C3=CC(=C(C=C3)O)[N+](=O)[O-])O)O
> <PUBCHEM_OPENEYE_ISO_SMILES>
C1=CC(=C(C=C1CCNC(=O)[C@H](CC2=CC(=C(C=C2)O)O)NC(=O)C3=CC(=C(C=C3)O)[N+](=O)[O-])O)O
> <PUBCHEM_CACTVS_TPSA>
205
> <PUBCHEM_MONOISOTOPIC_WEIGHT>
497.14342932
> <PUBCHEM_TOTAL_CHARGE>
0
> <PUBCHEM_HEAVY_ATOM_COUNT>
36
> <PUBCHEM_ATOM_DEF_STEREO_COUNT>
1
> <PUBCHEM_ATOM_UDEF_STEREO_COUNT>
0
> <PUBCHEM_BOND_DEF_STEREO_COUNT>
0
> <PUBCHEM_BOND_UDEF_STEREO_COUNT>
0
> <PUBCHEM_ISOTOPIC_ATOM_COUNT>
0
> <PUBCHEM_COMPONENT_COUNT>
1
> <PUBCHEM_CACTVS_TAUTO_COUNT>
-1
> <PUBCHEM_COORDINATE_TYPE>
1
5
255
> <PUBCHEM_BONDANNOTATIONS>
13  10  5
16  19  8
16  21  8
19  24  8
20  27  8
20  28  8
21  25  8
23  29  8
23  30  8
24  26  8
25  26  8
27  31  8
28  32  8
29  34  8
30  35  8
31  33  8
32  33  8
34  36  8
35  36  8
$$$$
