504789
  -OEChem-10302200282D
 65 67  0     1  0  0  0  0  0999 V2000
    9.2113   -1.8264    0.0000 O   0  0  0  0  0  0  0  0  0  0  0  0
    5.9423    1.0569    0.0000 O   0  0  0  0  0  0  0  0  0  0  0  0
    7.5171   -2.1866    0.0000 O   0  0  0  0  0  0  0  0  0  0  0  0
    2.0000   -2.6782    0.0000 O   0  5  0  0  0  0  0  0  0  0  0  0
    2.8660   -1.1782    0.0000 O   0  0  0  0  0  0  0  0  0  0  0  0
   10.8170    3.1154    0.0000 O   0  0  0  0  0  0  0  0  0  0  0  0
   10.4012    5.0717    0.0000 O   0  0  0  0  0  0  0  0  0  0  0  0
    5.4641   -5.6781    0.0000 O   0  5  0  0  0  0  0  0  0  0  0  0
    3.7320   -5.6781    0.0000 O   0  0  0  0  0  0  0  0  0  0  0  0
    4.5981   -1.1782    0.0000 N   0  0  0  0  0  0  0  0  0  0  0  0
    8.0524   -0.5393    0.0000 N   0  0  0  0  0  0  0  0  0  0  0  0
    7.6365    1.4170    0.0000 N   0  0  0  0  0  0  0  0  0  0  0  0
    4.0981    0.3607    0.0000 N   0  0  0  0  0  0  0  0  0  0  0  0
    2.8660   -2.1782    0.0000 N   0  3  0  0  0  0  0  0  0  0  0  0
    4.5981   -5.1781    0.0000 N   0  3  0  0  0  0  0  0  0  0  0  0
    7.1013   -0.2302    0.0000 C   0  0  1  0  0  0  0  0  0  0  0  0
    6.3582   -0.8994    0.0000 C   0  0  0  0  0  0  0  0  0  0  0  0
    5.4071   -0.5904    0.0000 C   0  0  0  0  0  0  0  0  0  0  0  0
    9.4192   -2.8046    0.0000 C   0  0  0  0  0  0  0  0  0  0  0  0
    6.8934    0.7479    0.0000 C   0  0  0  0  0  0  0  0  0  0  0  0
    4.5981   -2.1782    0.0000 C   0  0  0  0  0  0  0  0  0  0  0  0
    5.0981    0.3607    0.0000 C   0  0  0  0  0  0  0  0  0  0  0  0
    3.7891   -0.5904    0.0000 C   0  0  0  0  0  0  0  0  0  0  0  0
    8.2603   -1.5174    0.0000 C   0  0  0  0  0  0  0  0  0  0  0  0
   10.3974   -2.5967    0.0000 C   0  0  0  0  0  0  0  0  0  0  0  0
    9.6271   -3.7827    0.0000 C   0  0  0  0  0  0  0  0  0  0  0  0
    8.4411   -3.0125    0.0000 C   0  0  0  0  0  0  0  0  0  0  0  0
    7.4286    2.3952    0.0000 C   0  0  0  0  0  0  0  0  0  0  0  0
    3.7320   -2.6782    0.0000 C   0  0  0  0  0  0  0  0  0  0  0  0
    5.4641   -2.6782    0.0000 C   0  0  0  0  0  0  0  0  0  0  0  0
    8.1718    3.0643    0.0000 C   0  0  0  0  0  0  0  0  0  0  0  0
    3.7320   -3.6782    0.0000 C   0  0  0  0  0  0  0  0  0  0  0  0
    5.4641   -3.6782    0.0000 C   0  0  0  0  0  0  0  0  0  0  0  0
    4.5981   -4.1781    0.0000 C   0  0  0  0  0  0  0  0  0  0  0  0
    9.1228    2.7553    0.0000 C   0  0  0  0  0  0  0  0  0  0  0  0
    7.9638    4.0424    0.0000 C   0  0  0  0  0  0  0  0  0  0  0  0
    9.8660    3.4244    0.0000 C   0  0  0  0  0  0  0  0  0  0  0  0
    8.7070    4.7116    0.0000 C   0  0  0  0  0  0  0  0  0  0  0  0
    9.6580    4.4026    0.0000 C   0  0  0  0  0  0  0  0  0  0  0  0
    7.2302   -0.8367    0.0000 H   0  0  0  0  0  0  0  0  0  0  0  0
    6.0671   -1.4468    0.0000 H   0  0  0  0  0  0  0  0  0  0  0  0
    6.8467   -1.2811    0.0000 H   0  0  0  0  0  0  0  0  0  0  0  0
    8.5131   -0.1244    0.0000 H   0  0  0  0  0  0  0  0  0  0  0  0
    5.4625    0.8623    0.0000 H   0  0  0  0  0  0  0  0  0  0  0  0
    3.1994   -0.7820    0.0000 H   0  0  0  0  0  0  0  0  0  0  0  0
    8.2262    1.2254    0.0000 H   0  0  0  0  0  0  0  0  0  0  0  0
   10.5263   -3.2031    0.0000 H   0  0  0  0  0  0  0  0  0  0  0  0
   11.0038   -2.4678    0.0000 H   0  0  0  0  0  0  0  0  0  0  0  0
   10.2685   -1.9902    0.0000 H   0  0  0  0  0  0  0  0  0  0  0  0
    9.0207   -3.9116    0.0000 H   0  0  0  0  0  0  0  0  0  0  0  0
    9.7560   -4.3892    0.0000 H   0  0  0  0  0  0  0  0  0  0  0  0
   10.2336   -3.6538    0.0000 H   0  0  0  0  0  0  0  0  0  0  0  0
    8.3122   -2.4060    0.0000 H   0  0  0  0  0  0  0  0  0  0  0  0
    7.8346   -3.1414    0.0000 H   0  0  0  0  0  0  0  0  0  0  0  0
    8.5700   -3.6189    0.0000 H   0  0  0  0  0  0  0  0  0  0  0  0
    7.1001    2.9210    0.0000 H   0  0  0  0  0  0  0  0  0  0  0  0
    6.8538    2.1629    0.0000 H   0  0  0  0  0  0  0  0  0  0  0  0
    6.0010   -2.3682    0.0000 H   0  0  0  0  0  0  0  0  0  0  0  0
    3.1951   -3.9882    0.0000 H   0  0  0  0  0  0  0  0  0  0  0  0
    6.0010   -3.9882    0.0000 H   0  0  0  0  0  0  0  0  0  0  0  0
    9.2517    2.1488    0.0000 H   0  0  0  0  0  0  0  0  0  0  0  0
    7.3742    4.2340    0.0000 H   0  0  0  0  0  0  0  0  0  0  0  0
    8.5781    5.3180    0.0000 H   0  0  0  0  0  0  0  0  0  0  0  0
   11.2778    3.5303    0.0000 H   0  0  0  0  0  0  0  0  0  0  0  0
   10.2723    5.6781    0.0000 H   0  0  0  0  0  0  0  0  0  0  0  0
  1 19  1  0  0  0  0
  1 24  1  0  0  0  0
  2 20  2  0  0  0  0
  3 24  2  0  0  0  0
  4 14  1  0  0  0  0
  5 14  2  0  0  0  0
  6 37  1  0  0  0  0
  6 64  1  0  0  0  0
  7 39  1  0  0  0  0
  7 65  1  0  0  0  0
  8 15  1  0  0  0  0
  9 15  2  0  0  0  0
 10 18  1  0  0  0  0
 10 21  1  0  0  0  0
 10 23  1  0  0  0  0
 16 11  1  1  0  0  0
 11 24  1  0  0  0  0
 11 43  1  0  0  0  0
 12 20  1  0  0  0  0
 12 28  1  0  0  0  0
 12 46  1  0  0  0  0
 13 22  1  0  0  0  0
 13 23  2  0  0  0  0
 14 29  1  0  0  0  0
 15 34  1  0  0  0  0
 16 17  1  0  0  0  0
 16 20  1  0  0  0  0
 16 40  1  0  0  0  0
 17 18  1  0  0  0  0
 17 41  1  0  0  0  0
 17 42  1  0  0  0  0
 18 22  2  0  0  0  0
 19 25  1  0  0  0  0
 19 26  1  0  0  0  0
 19 27  1  0  0  0  0
 21 29  2  0  0  0  0
 21 30  1  0  0  0  0
 22 44  1  0  0  0  0
 23 45  1  0  0  0  0
 25 47  1  0  0  0  0
 25 48  1  0  0  0  0
 25 49  1  0  0  0  0
 26 50  1  0  0  0  0
 26 51  1  0  0  0  0
 26 52  1  0  0  0  0
 27 53  1  0  0  0  0
 27 54  1  0  0  0  0
 27 55  1  0  0  0  0
 28 31  1  0  0  0  0
 28 56  1  0  0  0  0
 28 57  1  0  0  0  0
 29 32  1  0  0  0  0
 30 33  2  0  0  0  0
 30 58  1  0  0  0  0
 31 35  2  0  0  0  0
 31 36  1  0  0  0  0
 32 34  2  0  0  0  0
 32 59  1  0  0  0  0
 33 34  1  0  0  0  0
 33 60  1  0  0  0  0
 35 37  1  0  0  0  0
 35 61  1  0  0  0  0
 36 38  2  0  0  0  0
 36 62  1  0  0  0  0
 37 39  2  0  0  0  0
 38 39  1  0  0  0  0
 38 63  1  0  0  0  0
M  CHG  4   4  -1   8  -1  14   1  15   1
M  END
> <PUBCHEM_COMPOUND_CID>
504789
> <PUBCHEM_COMPOUND_CANONICALIZED>
1
> <PUBCHEM_CACTVS_COMPLEXITY>
889
> <PUBCHEM_CACTVS_HBOND_ACCEPTOR>
10
> <PUBCHEM_CACTVS_HBOND_DONOR>
4
> <PUBCHEM_CACTVS_ROTATABLE_BOND>
9
> <PUBCHEM_CACTVS_SUBSKEYS>
AAADceB7vAAAAAAAAAAAAAAAAAAAAWAAAAAwYAAAAAAAAAAB0AAAHgAUCAAADGzBngQ/3pfcVgCpAzV3fwCCgC0xMqAp2IG+/IuJbnLC2fOccAls1pPJ2Ce80RIOIACBAAQAQCBAAQIACACAQAAAAAAAAA==
> <PUBCHEM_IUPAC_OPENEYE_NAME>
tert-butyl N-[(1S)-2-[(3,4-dihydroxyphenyl)methylamino]-1-[[3-(2,4-dinitrophenyl)imidazol-4-yl]methyl]-2-oxo-ethyl]carbamate
> <PUBCHEM_IUPAC_CAS_NAME>
N-[(2S)-1-[(3,4-dihydroxyphenyl)methylamino]-3-[3-(2,4-dinitrophenyl)-4-imidazolyl]-1-oxopropan-2-yl]carbamic acid tert-butyl ester
> <PUBCHEM_IUPAC_NAME_MARKUP>
<I>tert</I>-butyl <I>N</I>-[(2<I>S</I>)-1-[(3,4-dihydroxyphenyl)methylamino]-3-[3-(2,4-dinitrophenyl)imidazol-4-yl]-1-oxopropan-2-yl]carbamate
> <PUBCHEM_IUPAC_NAME>
tert-butyl N-[(2S)-1-[(3,4-dihydroxyphenyl)methylamino]-3-[3-(2,4-dinitrophenyl)imidazol-4-yl]-1-oxopropan-2-yl]carbamate
> <PUBCHEM_IUPAC_SYSTEMATIC_NAME>
tert-butyl N-[(2S)-1-[[3,4-bis(oxidanyl)phenyl]methylamino]-3-[3-(2,4-dinitrophenyl)imidazol-4-yl]-1-oxidanylidene-propan-2-yl]carbamate
> <PUBCHEM_IUPAC_TRADITIONAL_NAME>
N-[(1S)-1-[[3-(2,4-dinitrophenyl)imidazol-4-yl]methyl]-2-keto-2-(protocatechuylamino)ethyl]carbamic acid tert-butyl ester
> <PUBCHEM_IUPAC_INCHI>
InChI=1S/C24H26N6O9/c1-24(2,3)39-23(34)27-17(22(33)26-11-14-4-7-20(31)21(32)8-14)9-16-12-25-13-28(16)18-6-5-15(29(35)36)10-19(18)30(37)38/h4-8,10,12-13,17,31-32H,9,11H2,1-3H3,(H,26,33)(H,27,34)/t17-/m0/s1
> <PUBCHEM_IUPAC_INCHIKEY>
AEXGVRKLXCSWMQ-KRWDZBQOSA-N
> <PUBCHEM_XLOGP3_AA>
2.5
> <PUBCHEM_EXACT_MASS>
542.17612643
> <PUBCHEM_MOLECULAR_FORMULA>
C24H26N6O9
> <PUBCHEM_MOLECULAR_WEIGHT>
542.5
> <PUBCHEM_OPENEYE_CAN_SMILES>
CC(C)(C)OC(=O)NC(CC1=CN=CN1C2=C(C=C(C=C2)[N+](=O)[O-])[N+](=O)[O-])C(=O)NCC3=CC(=C(C=C3)O)O
> <PUBCHEM_OPENEYE_ISO_SMILES>
CC(C)(C)OC(=O)N[C@@H](CC1=CN=CN1C2=C(C=C(C=C2)[N+](=O)[O-])[N+](=O)[O-])C(=O)NCC3=CC(=C(C=C3)O)O
> <PUBCHEM_CACTVS_TPSA>
217
> <PUBCHEM_MONOISOTOPIC_WEIGHT>
542.17612643
> <PUBCHEM_TOTAL_CHARGE>
0
> <PUBCHEM_HEAVY_ATOM_COUNT>
39
> <PUBCHEM_ATOM_DEF_STEREO_COUNT>
1
> <PUBCHEM_ATOM_UDEF_STEREO_COUNT>
0
> <PUBCHEM_BOND_DEF_STEREO_COUNT>
0
> <PUBCHEM_BOND_UDEF_STEREO_COUNT>
0
> <PUBCHEM_ISOTOPIC_ATOM_COUNT>
0
> <PUBCHEM_COMPONENT_COUNT>
1
> <PUBCHEM_CACTVS_TAUTO_COUNT>
-1
> <PUBCHEM_COORDINATE_TYPE>
1
5
255
> <PUBCHEM_BONDANNOTATIONS>
10  18  8
10  23  8
16  11  5
13  22  8
13  23  8
18  22  8
21  29  8
21  30  8
29  32  8
30  33  8
31  35  8
31  36  8
32  34  8
33  34  8
35  37  8
36  38  8
37  39  8
38  39  8
$$$$
