504790
  -OEChem-10302200282D
 83 88  0     1  0  0  0  0  0999 V2000
    7.8100    2.4998    0.0000 O   0  0  0  0  0  0  0  0  0  0  0  0
    6.9440   -0.0002    0.0000 O   0  0  0  0  0  0  0  0  0  0  0  0
    6.0779   -3.5002    0.0000 O   0  0  0  0  0  0  0  0  0  0  0  0
    3.3100    0.6338    0.0000 O   0  0  0  0  0  0  0  0  0  0  0  0
    7.8100   -4.5002    0.0000 O   0  0  0  0  0  0  0  0  0  0  0  0
    2.3100    2.3659    0.0000 O   0  0  0  0  0  0  0  0  0  0  0  0
   11.0366    2.4704    0.0000 N   0  0  0  0  0  0  0  0  0  0  0  0
   10.3784    3.9485    0.0000 N   0  0  0  0  0  0  0  0  0  0  0  0
    8.6760   -0.0002    0.0000 N   0  0  0  0  0  0  0  0  0  0  0  0
    6.8100    1.4998    0.0000 N   0  0  0  0  0  0  0  0  0  0  0  0
   11.9876    2.1614    0.0000 C   0  0  0  0  0  0  0  0  0  0  0  0
   12.9387    1.8523    0.0000 C   0  0  0  0  0  0  0  0  0  0  0  0
   12.4571    3.0443    0.0000 C   0  0  0  0  0  0  0  0  0  0  0  0
   11.6786    1.2103    0.0000 C   0  0  0  0  0  0  0  0  0  0  0  0
   10.0420    2.3658    0.0000 C   0  0  0  0  0  0  0  0  0  0  0  0
    9.5420    1.4998    0.0000 C   0  0  0  0  0  0  0  0  0  0  0  0
    8.6760    0.9998    0.0000 C   0  0  1  0  0  0  0  0  0  0  0  0
   11.2445    3.4485    0.0000 C   0  0  0  0  0  0  0  0  0  0  0  0
    9.6353    3.2794    0.0000 C   0  0  0  0  0  0  0  0  0  0  0  0
   13.1466    0.8742    0.0000 C   0  0  0  0  0  0  0  0  0  0  0  0
   13.4565    3.0792    0.0000 C   0  0  0  0  0  0  0  0  0  0  0  0
   10.7005    1.0024    0.0000 C   0  0  0  0  0  0  0  0  0  0  0  0
   13.6818    2.5215    0.0000 C   0  0  0  0  0  0  0  0  0  0  0  0
   11.9272    3.8923    0.0000 C   0  0  0  0  0  0  0  0  0  0  0  0
   12.3477    0.4671    0.0000 C   0  0  0  0  0  0  0  0  0  0  0  0
    7.8100    1.4998    0.0000 C   0  0  0  0  0  0  0  0  0  0  0  0
   14.0976    0.5652    0.0000 C   0  0  0  0  0  0  0  0  0  0  0  0
   13.9259    3.9621    0.0000 C   0  0  0  0  0  0  0  0  0  0  0  0
   10.3915    0.0513    0.0000 C   0  0  0  0  0  0  0  0  0  0  0  0
   14.6329    2.2124    0.0000 C   0  0  0  0  0  0  0  0  0  0  0  0
   12.3966    4.7753    0.0000 C   0  0  0  0  0  0  0  0  0  0  0  0
   12.0387   -0.4839    0.0000 C   0  0  0  0  0  0  0  0  0  0  0  0
   14.8408    1.2343    0.0000 C   0  0  0  0  0  0  0  0  0  0  0  0
   13.3960    4.8102    0.0000 C   0  0  0  0  0  0  0  0  0  0  0  0
   11.0606   -0.6918    0.0000 C   0  0  0  0  0  0  0  0  0  0  0  0
    7.8100   -0.5002    0.0000 C   0  0  0  0  0  0  0  0  0  0  0  0
    6.3100    2.3659    0.0000 C   0  0  0  0  0  0  0  0  0  0  0  0
    7.8100   -1.5002    0.0000 C   0  0  0  0  0  0  0  0  0  0  0  0
    5.3100    2.3659    0.0000 C   0  0  0  0  0  0  0  0  0  0  0  0
    6.9440   -2.0002    0.0000 C   0  0  0  0  0  0  0  0  0  0  0  0
    8.6760   -2.0002    0.0000 C   0  0  0  0  0  0  0  0  0  0  0  0
    4.8100    1.4998    0.0000 C   0  0  0  0  0  0  0  0  0  0  0  0
    4.8100    3.2320    0.0000 C   0  0  0  0  0  0  0  0  0  0  0  0
    6.9440   -3.0002    0.0000 C   0  0  0  0  0  0  0  0  0  0  0  0
    8.6760   -3.0002    0.0000 C   0  0  0  0  0  0  0  0  0  0  0  0
    3.8100    1.4998    0.0000 C   0  0  0  0  0  0  0  0  0  0  0  0
    3.8100    3.2319    0.0000 C   0  0  0  0  0  0  0  0  0  0  0  0
    7.8100   -3.5002    0.0000 C   0  0  0  0  0  0  0  0  0  0  0  0
    3.3100    2.3659    0.0000 C   0  0  0  0  0  0  0  0  0  0  0  0
    9.6497    0.8892    0.0000 H   0  0  0  0  0  0  0  0  0  0  0  0
    9.1036    1.9382    0.0000 H   0  0  0  0  0  0  0  0  0  0  0  0
    8.1391    0.6898    0.0000 H   0  0  0  0  0  0  0  0  0  0  0  0
   11.8109    3.7007    0.0000 H   0  0  0  0  0  0  0  0  0  0  0  0
    9.0288    3.4083    0.0000 H   0  0  0  0  0  0  0  0  0  0  0  0
   12.6858    0.4593    0.0000 H   0  0  0  0  0  0  0  0  0  0  0  0
   13.7850    2.5534    0.0000 H   0  0  0  0  0  0  0  0  0  0  0  0
   10.2857    1.4631    0.0000 H   0  0  0  0  0  0  0  0  0  0  0  0
   13.5529    3.1279    0.0000 H   0  0  0  0  0  0  0  0  0  0  0  0
   11.3075    3.8707    0.0000 H   0  0  0  0  0  0  0  0  0  0  0  0
   12.9542    0.5961    0.0000 H   0  0  0  0  0  0  0  0  0  0  0  0
    9.2129   -0.3102    0.0000 H   0  0  0  0  0  0  0  0  0  0  0  0
   14.2265   -0.0413    0.0000 H   0  0  0  0  0  0  0  0  0  0  0  0
   14.5456    3.9838    0.0000 H   0  0  0  0  0  0  0  0  0  0  0  0
    9.7850   -0.0776    0.0000 H   0  0  0  0  0  0  0  0  0  0  0  0
   15.0936    2.6273    0.0000 H   0  0  0  0  0  0  0  0  0  0  0  0
   12.0681    5.3011    0.0000 H   0  0  0  0  0  0  0  0  0  0  0  0
   12.4536   -0.9447    0.0000 H   0  0  0  0  0  0  0  0  0  0  0  0
   15.4304    1.0427    0.0000 H   0  0  0  0  0  0  0  0  0  0  0  0
   13.6871    5.3576    0.0000 H   0  0  0  0  0  0  0  0  0  0  0  0
   10.8690   -1.2815    0.0000 H   0  0  0  0  0  0  0  0  0  0  0  0
    6.5000    0.9629    0.0000 H   0  0  0  0  0  0  0  0  0  0  0  0
    6.8926    2.5780    0.0000 H   0  0  0  0  0  0  0  0  0  0  0  0
    6.2024    2.9765    0.0000 H   0  0  0  0  0  0  0  0  0  0  0  0
    6.4070   -1.6902    0.0000 H   0  0  0  0  0  0  0  0  0  0  0  0
    9.2129   -1.6902    0.0000 H   0  0  0  0  0  0  0  0  0  0  0  0
    5.1200    0.9629    0.0000 H   0  0  0  0  0  0  0  0  0  0  0  0
    5.1200    3.7689    0.0000 H   0  0  0  0  0  0  0  0  0  0  0  0
    9.2129   -3.3102    0.0000 H   0  0  0  0  0  0  0  0  0  0  0  0
    3.5000    3.7689    0.0000 H   0  0  0  0  0  0  0  0  0  0  0  0
    5.5410   -3.1902    0.0000 H   0  0  0  0  0  0  0  0  0  0  0  0
    2.6900    0.6338    0.0000 H   0  0  0  0  0  0  0  0  0  0  0  0
    8.3469   -4.8102    0.0000 H   0  0  0  0  0  0  0  0  0  0  0  0
    2.0000    2.9028    0.0000 H   0  0  0  0  0  0  0  0  0  0  0  0
  1 26  2  0  0  0  0
  2 36  2  0  0  0  0
  3 44  1  0  0  0  0
  3 80  1  0  0  0  0
  4 46  1  0  0  0  0
  4 81  1  0  0  0  0
  5 48  1  0  0  0  0
  5 82  1  0  0  0  0
  6 49  1  0  0  0  0
  6 83  1  0  0  0  0
  7 11  1  0  0  0  0
  7 15  1  0  0  0  0
  7 18  1  0  0  0  0
  8 18  2  0  0  0  0
  8 19  1  0  0  0  0
 17  9  1  6  0  0  0
  9 36  1  0  0  0  0
  9 61  1  0  0  0  0
 10 26  1  0  0  0  0
 10 37  1  0  0  0  0
 10 71  1  0  0  0  0
 11 12  1  0  0  0  0
 11 13  1  0  0  0  0
 11 14  1  0  0  0  0
 12 20  2  0  0  0  0
 12 23  1  0  0  0  0
 13 21  2  0  0  0  0
 13 24  1  0  0  0  0
 14 22  2  0  0  0  0
 14 25  1  0  0  0  0
 15 16  1  0  0  0  0
 15 19  2  0  0  0  0
 16 17  1  0  0  0  0
 16 50  1  0  0  0  0
 16 51  1  0  0  0  0
 17 26  1  0  0  0  0
 17 52  1  0  0  0  0
 18 53  1  0  0  0  0
 19 54  1  0  0  0  0
 20 27  1  0  0  0  0
 20 55  1  0  0  0  0
 21 28  1  0  0  0  0
 21 56  1  0  0  0  0
 22 29  1  0  0  0  0
 22 57  1  0  0  0  0
 23 30  2  0  0  0  0
 23 58  1  0  0  0  0
 24 31  2  0  0  0  0
 24 59  1  0  0  0  0
 25 32  2  0  0  0  0
 25 60  1  0  0  0  0
 27 33  2  0  0  0  0
 27 62  1  0  0  0  0
 28 34  2  0  0  0  0
 28 63  1  0  0  0  0
 29 35  2  0  0  0  0
 29 64  1  0  0  0  0
 30 33  1  0  0  0  0
 30 65  1  0  0  0  0
 31 34  1  0  0  0  0
 31 66  1  0  0  0  0
 32 35  1  0  0  0  0
 32 67  1  0  0  0  0
 33 68  1  0  0  0  0
 34 69  1  0  0  0  0
 35 70  1  0  0  0  0
 36 38  1  0  0  0  0
 37 39  1  0  0  0  0
 37 72  1  0  0  0  0
 37 73  1  0  0  0  0
 38 40  2  0  0  0  0
 38 41  1  0  0  0  0
 39 42  2  0  0  0  0
 39 43  1  0  0  0  0
 40 44  1  0  0  0  0
 40 74  1  0  0  0  0
 41 45  2  0  0  0  0
 41 75  1  0  0  0  0
 42 46  1  0  0  0  0
 42 76  1  0  0  0  0
 43 47  2  0  0  0  0
 43 77  1  0  0  0  0
 44 48  2  0  0  0  0
 45 48  1  0  0  0  0
 45 78  1  0  0  0  0
 46 49  2  0  0  0  0
 47 49  1  0  0  0  0
 47 79  1  0  0  0  0
M  END
> <PUBCHEM_COMPOUND_CID>
504790
> <PUBCHEM_COMPOUND_CANONICALIZED>
1
> <PUBCHEM_CACTVS_COMPLEXITY>
1010
> <PUBCHEM_CACTVS_HBOND_ACCEPTOR>
7
> <PUBCHEM_CACTVS_HBOND_DONOR>
6
> <PUBCHEM_CACTVS_ROTATABLE_BOND>
11
> <PUBCHEM_CACTVS_SUBSKEYS>
AAADcfB/uAAAAAAAAAAAAAAAAAAAAWAAAAAwYMGDAAAAAAAB1AAAHgAQCAAADKzBngQ9lpfMEgCoAzV3dACCgC01MqAJ2IG+/MiJbjLC3TOUcQls1hPJ2ae+3dLOoAABAAAAQABAAAIAAACAAAAAAAAAAA==
> <PUBCHEM_IUPAC_OPENEYE_NAME>
N-[(1S)-2-[(3,4-dihydroxyphenyl)methylamino]-2-oxo-1-[(3-tritylimidazol-4-yl)methyl]ethyl]-3,4-dihydroxy-benzamide
> <PUBCHEM_IUPAC_CAS_NAME>
N-[(2S)-1-[(3,4-dihydroxyphenyl)methylamino]-1-oxo-3-[3-(triphenylmethyl)-4-imidazolyl]propan-2-yl]-3,4-dihydroxybenzamide
> <PUBCHEM_IUPAC_NAME_MARKUP>
<I>N</I>-[(2<I>S</I>)-1-[(3,4-dihydroxyphenyl)methylamino]-1-oxo-3-(3-tritylimidazol-4-yl)propan-2-yl]-3,4-dihydroxybenzamide
> <PUBCHEM_IUPAC_NAME>
N-[(2S)-1-[(3,4-dihydroxyphenyl)methylamino]-1-oxo-3-(3-tritylimidazol-4-yl)propan-2-yl]-3,4-dihydroxybenzamide
> <PUBCHEM_IUPAC_SYSTEMATIC_NAME>
N-[(2S)-1-[[3,4-bis(oxidanyl)phenyl]methylamino]-1-oxidanylidene-3-[3-(triphenylmethyl)imidazol-4-yl]propan-2-yl]-3,4-bis(oxidanyl)benzamide
> <PUBCHEM_IUPAC_TRADITIONAL_NAME>
3,4-dihydroxy-N-[(1S)-2-keto-2-(protocatechuylamino)-1-[(3-tritylimidazol-4-yl)methyl]ethyl]benzamide
> <PUBCHEM_IUPAC_INCHI>
InChI=1S/C39H34N4O6/c44-33-18-16-26(20-35(33)46)23-41-38(49)32(42-37(48)27-17-19-34(45)36(47)21-27)22-31-24-40-25-43(31)39(28-10-4-1-5-11-28,29-12-6-2-7-13-29)30-14-8-3-9-15-30/h1-21,24-25,32,44-47H,22-23H2,(H,41,49)(H,42,48)/t32-/m0/s1
> <PUBCHEM_IUPAC_INCHIKEY>
WFDWXVODXWCGLG-YTTGMZPUSA-N
> <PUBCHEM_XLOGP3_AA>
5.5
> <PUBCHEM_EXACT_MASS>
654.24783482
> <PUBCHEM_MOLECULAR_FORMULA>
C39H34N4O6
> <PUBCHEM_MOLECULAR_WEIGHT>
654.7
> <PUBCHEM_OPENEYE_CAN_SMILES>
C1=CC=C(C=C1)C(C2=CC=CC=C2)(C3=CC=CC=C3)N4C=NC=C4CC(C(=O)NCC5=CC(=C(C=C5)O)O)NC(=O)C6=CC(=C(C=C6)O)O
> <PUBCHEM_OPENEYE_ISO_SMILES>
C1=CC=C(C=C1)C(C2=CC=CC=C2)(C3=CC=CC=C3)N4C=NC=C4C[C@@H](C(=O)NCC5=CC(=C(C=C5)O)O)NC(=O)C6=CC(=C(C=C6)O)O
> <PUBCHEM_CACTVS_TPSA>
157
> <PUBCHEM_MONOISOTOPIC_WEIGHT>
654.24783482
> <PUBCHEM_TOTAL_CHARGE>
0
> <PUBCHEM_HEAVY_ATOM_COUNT>
49
> <PUBCHEM_ATOM_DEF_STEREO_COUNT>
1
> <PUBCHEM_ATOM_UDEF_STEREO_COUNT>
0
> <PUBCHEM_BOND_DEF_STEREO_COUNT>
0
> <PUBCHEM_BOND_UDEF_STEREO_COUNT>
0
> <PUBCHEM_ISOTOPIC_ATOM_COUNT>
0
> <PUBCHEM_COMPONENT_COUNT>
1
> <PUBCHEM_CACTVS_TAUTO_COUNT>
-1
> <PUBCHEM_COORDINATE_TYPE>
1
5
255
> <PUBCHEM_BONDANNOTATIONS>
12  20  8
12  23  8
13  21  8
13  24  8
14  22  8
14  25  8
15  19  8
20  27  8
21  28  8
22  29  8
23  30  8
24  31  8
25  32  8
27  33  8
28  34  8
29  35  8
30  33  8
31  34  8
32  35  8
38  40  8
38  41  8
39  42  8
39  43  8
40  44  8
41  45  8
42  46  8
43  47  8
44  48  8
45  48  8
46  49  8
47  49  8
7  15  8
7  18  8
8  18  8
8  19  8
17  9  6
$$$$
