504711
  -OEChem-10302200282D
 38 37  0     1  0  0  0  0  0999 V2000
    3.7320    0.1550    0.0000 P   0  0  0  0  0  0  0  0  0  0  0  0
    8.0622    1.6550    0.0000 O   0  0  0  0  0  0  0  0  0  0  0  0
    7.1962   -0.8450    0.0000 O   0  0  0  0  0  0  0  0  0  0  0  0
    6.3301    1.6550    0.0000 O   0  0  0  0  0  0  0  0  0  0  0  0
    4.5981    0.6550    0.0000 O   0  0  0  0  0  0  0  0  0  0  0  0
    9.7942   -1.3450    0.0000 O   0  0  0  0  0  0  0  0  0  0  0  0
    2.8660   -0.3450    0.0000 O   0  0  0  0  0  0  0  0  0  0  0  0
    3.2320    1.0210    0.0000 O   0  0  0  0  0  0  0  0  0  0  0  0
    4.2320   -0.7110    0.0000 O   0  0  0  0  0  0  0  0  0  0  0  0
    9.7942    0.6550    0.0000 N   0  0  0  0  0  0  0  0  0  0  0  0
    8.0622    0.6550    0.0000 C   0  0  1  0  0  0  0  0  0  0  0  0
    7.1962    0.1550    0.0000 C   0  0  1  0  0  0  0  0  0  0  0  0
    8.9282    0.1550    0.0000 C   0  0  2  0  0  0  0  0  0  0  0  0
    6.3301    0.6550    0.0000 C   0  0  1  0  0  0  0  0  0  0  0  0
    5.4641    0.1550    0.0000 C   0  0  0  0  0  0  0  0  0  0  0  0
    8.9282   -0.8450    0.0000 C   0  0  0  0  0  0  0  0  0  0  0  0
    2.0000    0.1550    0.0000 C   0  0  0  0  0  0  0  0  0  0  0  0
    3.7320    1.8870    0.0000 C   0  0  0  0  0  0  0  0  0  0  0  0
    7.5252    0.9650    0.0000 H   0  0  0  0  0  0  0  0  0  0  0  0
    6.6592   -0.1550    0.0000 H   0  0  0  0  0  0  0  0  0  0  0  0
    9.4651   -0.1550    0.0000 H   0  0  0  0  0  0  0  0  0  0  0  0
    6.8671    0.9650    0.0000 H   0  0  0  0  0  0  0  0  0  0  0  0
    5.0656   -0.3199    0.0000 H   0  0  0  0  0  0  0  0  0  0  0  0
    5.8626   -0.3199    0.0000 H   0  0  0  0  0  0  0  0  0  0  0  0
    8.3176   -0.7373    0.0000 H   0  0  0  0  0  0  0  0  0  0  0  0
    8.7162   -1.4276    0.0000 H   0  0  0  0  0  0  0  0  0  0  0  0
   10.3312    0.3450    0.0000 H   0  0  0  0  0  0  0  0  0  0  0  0
    9.7942    1.2750    0.0000 H   0  0  0  0  0  0  0  0  0  0  0  0
    7.7331   -1.1550    0.0000 H   0  0  0  0  0  0  0  0  0  0  0  0
    8.5991    1.9650    0.0000 H   0  0  0  0  0  0  0  0  0  0  0  0
    6.8671    1.9650    0.0000 H   0  0  0  0  0  0  0  0  0  0  0  0
    9.7942   -1.9650    0.0000 H   0  0  0  0  0  0  0  0  0  0  0  0
    2.3100    0.6919    0.0000 H   0  0  0  0  0  0  0  0  0  0  0  0
    1.4631    0.4650    0.0000 H   0  0  0  0  0  0  0  0  0  0  0  0
    1.6900   -0.3819    0.0000 H   0  0  0  0  0  0  0  0  0  0  0  0
    4.2690    1.5770    0.0000 H   0  0  0  0  0  0  0  0  0  0  0  0
    4.0420    2.4240    0.0000 H   0  0  0  0  0  0  0  0  0  0  0  0
    3.1951    2.1970    0.0000 H   0  0  0  0  0  0  0  0  0  0  0  0
  1  5  1  0  0  0  0
  1  7  1  0  0  0  0
  1  8  1  0  0  0  0
  1  9  2  0  0  0  0
 11  2  1  6  0  0  0
  2 30  1  0  0  0  0
 12  3  1  6  0  0  0
  3 29  1  0  0  0  0
 14  4  1  1  0  0  0
  4 31  1  0  0  0  0
  5 15  1  0  0  0  0
  6 16  1  0  0  0  0
  6 32  1  0  0  0  0
  7 17  1  0  0  0  0
  8 18  1  0  0  0  0
 13 10  1  1  0  0  0
 10 27  1  0  0  0  0
 10 28  1  0  0  0  0
 11 12  1  0  0  0  0
 11 13  1  0  0  0  0
 11 19  1  0  0  0  0
 12 14  1  0  0  0  0
 12 20  1  0  0  0  0
 13 16  1  0  0  0  0
 13 21  1  0  0  0  0
 14 15  1  0  0  0  0
 14 22  1  0  0  0  0
 15 23  1  0  0  0  0
 15 24  1  0  0  0  0
 16 25  1  0  0  0  0
 16 26  1  0  0  0  0
 17 33  1  0  0  0  0
 17 34  1  0  0  0  0
 17 35  1  0  0  0  0
 18 36  1  0  0  0  0
 18 37  1  0  0  0  0
 18 38  1  0  0  0  0
M  END
> <PUBCHEM_COMPOUND_CID>
504711
> <PUBCHEM_COMPOUND_CANONICALIZED>
1
> <PUBCHEM_CACTVS_COMPLEXITY>
270
> <PUBCHEM_CACTVS_HBOND_ACCEPTOR>
9
> <PUBCHEM_CACTVS_HBOND_DONOR>
5
> <PUBCHEM_CACTVS_ROTATABLE_BOND>
9
> <PUBCHEM_CACTVS_SUBSKEYS>
AAADceByPAIAAAAAAAAAAAAAAAAAAAAAAAAAAAAAAAAAAAAAAAAAHgAQCCAACDzhgAYCAABAAxAAQAAAAIAAAAAAAAAAAIAAAAADEAIAgAAAQAAHEAABAAHwcAUAAAAAAAAAAAAAAAAAAAAAAAAAAAAAAA==
> <PUBCHEM_IUPAC_OPENEYE_NAME>
[(2R,3S,4R,5S)-5-amino-2,3,4,6-tetrahydroxy-hexyl] dimethyl phosphate
> <PUBCHEM_IUPAC_CAS_NAME>
phosphoric acid [(2R,3S,4R,5S)-5-amino-2,3,4,6-tetrahydroxyhexyl] dimethyl ester
> <PUBCHEM_IUPAC_NAME_MARKUP>
[(2<I>R</I>,3<I>S</I>,4<I>R</I>,5<I>S</I>)-5-amino-2,3,4,6-tetrahydroxyhexyl] dimethyl phosphate
> <PUBCHEM_IUPAC_NAME>
[(2R,3S,4R,5S)-5-amino-2,3,4,6-tetrahydroxyhexyl] dimethyl phosphate
> <PUBCHEM_IUPAC_SYSTEMATIC_NAME>
[(2R,3S,4R,5S)-5-azanyl-2,3,4,6-tetrakis(oxidanyl)hexyl] dimethyl phosphate
> <PUBCHEM_IUPAC_TRADITIONAL_NAME>
phosphoric acid [(2R,3S,4R,5S)-5-amino-2,3,4,6-tetrahydroxy-hexyl] dimethyl ester
> <PUBCHEM_IUPAC_INCHI>
InChI=1S/C8H20NO8P/c1-15-18(14,16-2)17-4-6(11)8(13)7(12)5(9)3-10/h5-8,10-13H,3-4,9H2,1-2H3/t5-,6+,7+,8+/m0/s1
> <PUBCHEM_IUPAC_INCHIKEY>
SAMOTEBVESGLLC-LXGUWJNJSA-N
> <PUBCHEM_XLOGP3_AA>
-3.9
> <PUBCHEM_EXACT_MASS>
289.09265359
> <PUBCHEM_MOLECULAR_FORMULA>
C8H20NO8P
> <PUBCHEM_MOLECULAR_WEIGHT>
289.22
> <PUBCHEM_OPENEYE_CAN_SMILES>
COP(=O)(OC)OCC(C(C(C(CO)N)O)O)O
> <PUBCHEM_OPENEYE_ISO_SMILES>
COP(=O)(OC)OC[C@H]([C@H]([C@@H]([C@H](CO)N)O)O)O
> <PUBCHEM_CACTVS_TPSA>
152
> <PUBCHEM_MONOISOTOPIC_WEIGHT>
289.09265359
> <PUBCHEM_TOTAL_CHARGE>
0
> <PUBCHEM_HEAVY_ATOM_COUNT>
18
> <PUBCHEM_ATOM_DEF_STEREO_COUNT>
4
> <PUBCHEM_ATOM_UDEF_STEREO_COUNT>
0
> <PUBCHEM_BOND_DEF_STEREO_COUNT>
0
> <PUBCHEM_BOND_UDEF_STEREO_COUNT>
0
> <PUBCHEM_ISOTOPIC_ATOM_COUNT>
0
> <PUBCHEM_COMPONENT_COUNT>
1
> <PUBCHEM_CACTVS_TAUTO_COUNT>
-1
> <PUBCHEM_COORDINATE_TYPE>
1
5
255
> <PUBCHEM_BONDANNOTATIONS>
13  10  5
11  2  6
12  3  6
14  4  5
$$$$
