504799
  -OEChem-10302200282D
 61 63  0     1  0  0  0  0  0999 V2000
    4.5981    1.5950    0.0000 O   0  0  0  0  0  0  0  0  0  0  0  0
    7.1962    0.0950    0.0000 O   0  0  0  0  0  0  0  0  0  0  0  0
    3.7320   -0.9050    0.0000 O   0  0  0  0  0  0  0  0  0  0  0  0
   10.6603    3.0950    0.0000 O   0  0  0  0  0  0  0  0  0  0  0  0
   10.6603    5.0950    0.0000 O   0  0  0  0  0  0  0  0  0  0  0  0
    4.5981   -5.4050    0.0000 O   0  0  0  0  0  0  0  0  0  0  0  0
    2.0000   -3.9050    0.0000 O   0  5  0  0  0  0  0  0  0  0  0  0
    2.8660   -5.4050    0.0000 O   0  0  0  0  0  0  0  0  0  0  0  0
    6.3301    1.5950    0.0000 N   0  0  0  0  0  0  0  0  0  0  0  0
    5.4641   -0.9050    0.0000 N   0  0  0  0  0  0  0  0  0  0  0  0
    2.8660   -4.4050    0.0000 N   0  3  0  0  0  0  0  0  0  0  0  0
    5.4641    0.0950    0.0000 C   0  0  1  0  0  0  0  0  0  0  0  0
    4.5981    0.5950    0.0000 C   0  0  0  0  0  0  0  0  0  0  0  0
    7.1962    2.0950    0.0000 C   0  0  0  0  0  0  0  0  0  0  0  0
    6.3301    0.5950    0.0000 C   0  0  0  0  0  0  0  0  0  0  0  0
    7.1962    3.0950    0.0000 C   0  0  0  0  0  0  0  0  0  0  0  0
    8.0622    3.5950    0.0000 C   0  0  0  0  0  0  0  0  0  0  0  0
    4.5981   -1.4050    0.0000 C   0  0  0  0  0  0  0  0  0  0  0  0
    3.7320    2.0950    0.0000 C   0  0  0  0  0  0  0  0  0  0  0  0
    4.5981   -2.4050    0.0000 C   0  0  0  0  0  0  0  0  0  0  0  0
    8.9282    3.0950    0.0000 C   0  0  0  0  0  0  0  0  0  0  0  0
    8.0622    4.5950    0.0000 C   0  0  0  0  0  0  0  0  0  0  0  0
    3.7320    3.0950    0.0000 C   0  0  0  0  0  0  0  0  0  0  0  0
    9.7942    3.5950    0.0000 C   0  0  0  0  0  0  0  0  0  0  0  0
    8.9282    5.0950    0.0000 C   0  0  0  0  0  0  0  0  0  0  0  0
    3.7320   -2.9050    0.0000 C   0  0  0  0  0  0  0  0  0  0  0  0
    9.7942    4.5950    0.0000 C   0  0  0  0  0  0  0  0  0  0  0  0
    5.4641   -2.9050    0.0000 C   0  0  0  0  0  0  0  0  0  0  0  0
    3.7320   -3.9050    0.0000 C   0  0  0  0  0  0  0  0  0  0  0  0
    2.8660    3.5950    0.0000 C   0  0  0  0  0  0  0  0  0  0  0  0
    4.5981    3.5950    0.0000 C   0  0  0  0  0  0  0  0  0  0  0  0
    5.4641   -3.9050    0.0000 C   0  0  0  0  0  0  0  0  0  0  0  0
    4.5981   -4.4050    0.0000 C   0  0  0  0  0  0  0  0  0  0  0  0
    2.8660    4.5950    0.0000 C   0  0  0  0  0  0  0  0  0  0  0  0
    4.5981    4.5950    0.0000 C   0  0  0  0  0  0  0  0  0  0  0  0
    3.7320    5.0950    0.0000 C   0  0  0  0  0  0  0  0  0  0  0  0
    6.0010   -0.2150    0.0000 H   0  0  0  0  0  0  0  0  0  0  0  0
    3.9875    0.7027    0.0000 H   0  0  0  0  0  0  0  0  0  0  0  0
    4.3860    0.0124    0.0000 H   0  0  0  0  0  0  0  0  0  0  0  0
    7.4082    1.5124    0.0000 H   0  0  0  0  0  0  0  0  0  0  0  0
    7.8067    2.2027    0.0000 H   0  0  0  0  0  0  0  0  0  0  0  0
    6.9841    3.6776    0.0000 H   0  0  0  0  0  0  0  0  0  0  0  0
    6.5856    2.9873    0.0000 H   0  0  0  0  0  0  0  0  0  0  0  0
    5.7932    1.9050    0.0000 H   0  0  0  0  0  0  0  0  0  0  0  0
    6.0010   -1.2150    0.0000 H   0  0  0  0  0  0  0  0  0  0  0  0
    3.1215    2.2027    0.0000 H   0  0  0  0  0  0  0  0  0  0  0  0
    3.5200    1.5124    0.0000 H   0  0  0  0  0  0  0  0  0  0  0  0
    8.9282    2.4750    0.0000 H   0  0  0  0  0  0  0  0  0  0  0  0
    7.5252    4.9050    0.0000 H   0  0  0  0  0  0  0  0  0  0  0  0
    8.9282    5.7150    0.0000 H   0  0  0  0  0  0  0  0  0  0  0  0
    3.1951   -2.5950    0.0000 H   0  0  0  0  0  0  0  0  0  0  0  0
    6.0010   -2.5950    0.0000 H   0  0  0  0  0  0  0  0  0  0  0  0
    2.3291    3.2850    0.0000 H   0  0  0  0  0  0  0  0  0  0  0  0
    5.1350    3.2850    0.0000 H   0  0  0  0  0  0  0  0  0  0  0  0
    6.0010   -4.2150    0.0000 H   0  0  0  0  0  0  0  0  0  0  0  0
    2.3291    4.9050    0.0000 H   0  0  0  0  0  0  0  0  0  0  0  0
    5.1350    4.9050    0.0000 H   0  0  0  0  0  0  0  0  0  0  0  0
    3.7320    5.7150    0.0000 H   0  0  0  0  0  0  0  0  0  0  0  0
   11.1972    3.4050    0.0000 H   0  0  0  0  0  0  0  0  0  0  0  0
   10.6603    5.7150    0.0000 H   0  0  0  0  0  0  0  0  0  0  0  0
    5.1350   -5.7150    0.0000 H   0  0  0  0  0  0  0  0  0  0  0  0
  1 13  1  0  0  0  0
  1 19  1  0  0  0  0
  2 15  2  0  0  0  0
  3 18  2  0  0  0  0
  4 24  1  0  0  0  0
  4 59  1  0  0  0  0
  5 27  1  0  0  0  0
  5 60  1  0  0  0  0
  6 33  1  0  0  0  0
  6 61  1  0  0  0  0
  7 11  1  0  0  0  0
  8 11  2  0  0  0  0
  9 14  1  0  0  0  0
  9 15  1  0  0  0  0
  9 44  1  0  0  0  0
 12 10  1  1  0  0  0
 10 18  1  0  0  0  0
 10 45  1  0  0  0  0
 11 29  1  0  0  0  0
 12 13  1  0  0  0  0
 12 15  1  0  0  0  0
 12 37  1  0  0  0  0
 13 38  1  0  0  0  0
 13 39  1  0  0  0  0
 14 16  1  0  0  0  0
 14 40  1  0  0  0  0
 14 41  1  0  0  0  0
 16 17  1  0  0  0  0
 16 42  1  0  0  0  0
 16 43  1  0  0  0  0
 17 21  2  0  0  0  0
 17 22  1  0  0  0  0
 18 20  1  0  0  0  0
 19 23  1  0  0  0  0
 19 46  1  0  0  0  0
 19 47  1  0  0  0  0
 20 26  2  0  0  0  0
 20 28  1  0  0  0  0
 21 24  1  0  0  0  0
 21 48  1  0  0  0  0
 22 25  2  0  0  0  0
 22 49  1  0  0  0  0
 23 30  2  0  0  0  0
 23 31  1  0  0  0  0
 24 27  2  0  0  0  0
 25 27  1  0  0  0  0
 25 50  1  0  0  0  0
 26 29  1  0  0  0  0
 26 51  1  0  0  0  0
 28 32  2  0  0  0  0
 28 52  1  0  0  0  0
 29 33  2  0  0  0  0
 30 34  1  0  0  0  0
 30 53  1  0  0  0  0
 31 35  2  0  0  0  0
 31 54  1  0  0  0  0
 32 33  1  0  0  0  0
 32 55  1  0  0  0  0
 34 36  2  0  0  0  0
 34 56  1  0  0  0  0
 35 36  1  0  0  0  0
 35 57  1  0  0  0  0
 36 58  1  0  0  0  0
M  CHG  2   7  -1  11   1
M  END
> <PUBCHEM_COMPOUND_CID>
504799
> <PUBCHEM_COMPOUND_CANONICALIZED>
1
> <PUBCHEM_CACTVS_COMPLEXITY>
727
> <PUBCHEM_CACTVS_HBOND_ACCEPTOR>
8
> <PUBCHEM_CACTVS_HBOND_DONOR>
5
> <PUBCHEM_CACTVS_ROTATABLE_BOND>
10
> <PUBCHEM_CACTVS_SUBSKEYS>
AAADceB7PAAAAAAAAAAAAAAAAAAAAAAAAAAwYMAAAAAAAAABUAAAHgAUCAAADCzhmAYwxoLQRgCJAiVSUwCCAAAkIgAoiIGP7MoLZjaStbuXcQlm9lGZ+Yec3LLOIAABQAAAUABAAAKAAACgAAAAAAAAAA==
> <PUBCHEM_IUPAC_OPENEYE_NAME>
N-[(1S)-1-(benzyloxymethyl)-2-[2-(3,4-dihydroxyphenyl)ethylamino]-2-oxo-ethyl]-4-hydroxy-3-nitro-benzamide
> <PUBCHEM_IUPAC_CAS_NAME>
N-[(2S)-1-[2-(3,4-dihydroxyphenyl)ethylamino]-1-oxo-3-phenylmethoxypropan-2-yl]-4-hydroxy-3-nitrobenzamide
> <PUBCHEM_IUPAC_NAME_MARKUP>
<I>N</I>-[(2<I>S</I>)-1-[2-(3,4-dihydroxyphenyl)ethylamino]-1-oxo-3-phenylmethoxypropan-2-yl]-4-hydroxy-3-nitrobenzamide
> <PUBCHEM_IUPAC_NAME>
N-[(2S)-1-[2-(3,4-dihydroxyphenyl)ethylamino]-1-oxo-3-phenylmethoxypropan-2-yl]-4-hydroxy-3-nitrobenzamide
> <PUBCHEM_IUPAC_SYSTEMATIC_NAME>
N-[(2S)-1-[2-[3,4-bis(oxidanyl)phenyl]ethylamino]-1-oxidanylidene-3-phenylmethoxy-propan-2-yl]-3-nitro-4-oxidanyl-benzamide
> <PUBCHEM_IUPAC_TRADITIONAL_NAME>
N-[(1S)-1-(benzoxymethyl)-2-[2-(3,4-dihydroxyphenyl)ethylamino]-2-keto-ethyl]-4-hydroxy-3-nitro-benzamide
> <PUBCHEM_IUPAC_INCHI>
InChI=1S/C25H25N3O8/c29-21-9-7-18(13-20(21)28(34)35)24(32)27-19(15-36-14-17-4-2-1-3-5-17)25(33)26-11-10-16-6-8-22(30)23(31)12-16/h1-9,12-13,19,29-31H,10-11,14-15H2,(H,26,33)(H,27,32)/t19-/m0/s1
> <PUBCHEM_IUPAC_INCHIKEY>
OOCBXXWXPWRBBE-IBGZPJMESA-N
> <PUBCHEM_XLOGP3_AA>
3.2
> <PUBCHEM_EXACT_MASS>
495.16416476
> <PUBCHEM_MOLECULAR_FORMULA>
C25H25N3O8
> <PUBCHEM_MOLECULAR_WEIGHT>
495.5
> <PUBCHEM_OPENEYE_CAN_SMILES>
C1=CC=C(C=C1)COCC(C(=O)NCCC2=CC(=C(C=C2)O)O)NC(=O)C3=CC(=C(C=C3)O)[N+](=O)[O-]
> <PUBCHEM_OPENEYE_ISO_SMILES>
C1=CC=C(C=C1)COC[C@@H](C(=O)NCCC2=CC(=C(C=C2)O)O)NC(=O)C3=CC(=C(C=C3)O)[N+](=O)[O-]
> <PUBCHEM_CACTVS_TPSA>
174
> <PUBCHEM_MONOISOTOPIC_WEIGHT>
495.16416476
> <PUBCHEM_TOTAL_CHARGE>
0
> <PUBCHEM_HEAVY_ATOM_COUNT>
36
> <PUBCHEM_ATOM_DEF_STEREO_COUNT>
1
> <PUBCHEM_ATOM_UDEF_STEREO_COUNT>
0
> <PUBCHEM_BOND_DEF_STEREO_COUNT>
0
> <PUBCHEM_BOND_UDEF_STEREO_COUNT>
0
> <PUBCHEM_ISOTOPIC_ATOM_COUNT>
0
> <PUBCHEM_COMPONENT_COUNT>
1
> <PUBCHEM_CACTVS_TAUTO_COUNT>
-1
> <PUBCHEM_COORDINATE_TYPE>
1
5
255
> <PUBCHEM_BONDANNOTATIONS>
12  10  5
17  21  8
17  22  8
20  26  8
20  28  8
21  24  8
22  25  8
23  30  8
23  31  8
24  27  8
25  27  8
26  29  8
28  32  8
29  33  8
30  34  8
31  35  8
32  33  8
34  36  8
35  36  8
$$$$
