504709
  -OEChem-10302200282D
 46 45  0     1  0  0  0  0  0999 V2000
    3.4030   -0.1550    0.0000 P   0  0  0  0  0  0  0  0  0  0  0  0
    7.7331   -1.6550    0.0000 O   0  0  0  0  0  0  0  0  0  0  0  0
    6.8671    0.8450    0.0000 O   0  0  0  0  0  0  0  0  0  0  0  0
    6.0010   -1.6550    0.0000 O   0  0  0  0  0  0  0  0  0  0  0  0
    9.4651    1.3450    0.0000 O   0  0  0  0  0  0  0  0  0  0  0  0
    4.2690   -0.6550    0.0000 O   0  0  0  0  0  0  0  0  0  0  0  0
   10.3312    0.8450    0.0000 O   0  0  0  0  0  0  0  0  0  0  0  0
    2.5369    0.3450    0.0000 O   0  0  0  0  0  0  0  0  0  0  0  0
    2.9030   -1.0210    0.0000 O   0  0  0  0  0  0  0  0  0  0  0  0
    3.9030    0.7110    0.0000 O   0  0  0  0  0  0  0  0  0  0  0  0
    9.4651   -0.6550    0.0000 N   0  0  0  0  0  0  0  0  0  0  0  0
    7.7331   -0.6550    0.0000 C   0  0  2  0  0  0  0  0  0  0  0  0
    8.5991   -0.1550    0.0000 C   0  0  2  0  0  0  0  0  0  0  0  0
    6.8671   -0.1550    0.0000 C   0  0  1  0  0  0  0  0  0  0  0  0
    6.0010   -0.6550    0.0000 C   0  0  1  0  0  0  0  0  0  0  0  0
    8.5991    0.8450    0.0000 C   0  0  0  0  0  0  0  0  0  0  0  0
    5.1350   -0.1550    0.0000 C   0  0  0  0  0  0  0  0  0  0  0  0
   10.3312   -0.1550    0.0000 C   0  0  0  0  0  0  0  0  0  0  0  0
   11.1972   -0.6550    0.0000 C   0  0  0  0  0  0  0  0  0  0  0  0
   12.0632   -0.1550    0.0000 C   0  0  0  0  0  0  0  0  0  0  0  0
   12.9292   -0.6550    0.0000 C   0  0  0  0  0  0  0  0  0  0  0  0
   13.7953   -0.1550    0.0000 C   0  0  0  0  0  0  0  0  0  0  0  0
    8.2700   -0.9650    0.0000 H   0  0  0  0  0  0  0  0  0  0  0  0
    9.1360    0.1550    0.0000 H   0  0  0  0  0  0  0  0  0  0  0  0
    6.3301    0.1550    0.0000 H   0  0  0  0  0  0  0  0  0  0  0  0
    6.5380   -0.9650    0.0000 H   0  0  0  0  0  0  0  0  0  0  0  0
    8.3871    1.4276    0.0000 H   0  0  0  0  0  0  0  0  0  0  0  0
    7.9885    0.7373    0.0000 H   0  0  0  0  0  0  0  0  0  0  0  0
    9.4651   -1.2750    0.0000 H   0  0  0  0  0  0  0  0  0  0  0  0
    5.5335    0.3199    0.0000 H   0  0  0  0  0  0  0  0  0  0  0  0
    4.7365    0.3199    0.0000 H   0  0  0  0  0  0  0  0  0  0  0  0
    7.1962   -1.9650    0.0000 H   0  0  0  0  0  0  0  0  0  0  0  0
   10.7987   -1.1300    0.0000 H   0  0  0  0  0  0  0  0  0  0  0  0
   11.5957   -1.1300    0.0000 H   0  0  0  0  0  0  0  0  0  0  0  0
    6.3301    1.1550    0.0000 H   0  0  0  0  0  0  0  0  0  0  0  0
   12.4617    0.3199    0.0000 H   0  0  0  0  0  0  0  0  0  0  0  0
   11.6647    0.3199    0.0000 H   0  0  0  0  0  0  0  0  0  0  0  0
    5.4641   -1.9650    0.0000 H   0  0  0  0  0  0  0  0  0  0  0  0
   12.5307   -1.1300    0.0000 H   0  0  0  0  0  0  0  0  0  0  0  0
   13.3278   -1.1300    0.0000 H   0  0  0  0  0  0  0  0  0  0  0  0
    9.4651    1.9650    0.0000 H   0  0  0  0  0  0  0  0  0  0  0  0
   14.1053   -0.6919    0.0000 H   0  0  0  0  0  0  0  0  0  0  0  0
   14.3322    0.1550    0.0000 H   0  0  0  0  0  0  0  0  0  0  0  0
   13.4853    0.3819    0.0000 H   0  0  0  0  0  0  0  0  0  0  0  0
    2.0000    0.0350    0.0000 H   0  0  0  0  0  0  0  0  0  0  0  0
    3.2130   -1.5580    0.0000 H   0  0  0  0  0  0  0  0  0  0  0  0
  1  6  1  0  0  0  0
  1  8  1  0  0  0  0
  1  9  1  0  0  0  0
  1 10  2  0  0  0  0
 12  2  1  1  0  0  0
  2 32  1  0  0  0  0
 14  3  1  1  0  0  0
  3 35  1  0  0  0  0
 15  4  1  6  0  0  0
  4 38  1  0  0  0  0
  5 16  1  0  0  0  0
  5 41  1  0  0  0  0
  6 17  1  0  0  0  0
  7 18  2  0  0  0  0
  8 45  1  0  0  0  0
  9 46  1  0  0  0  0
 13 11  1  6  0  0  0
 11 18  1  0  0  0  0
 11 29  1  0  0  0  0
 12 13  1  0  0  0  0
 12 14  1  0  0  0  0
 12 23  1  0  0  0  0
 13 16  1  0  0  0  0
 13 24  1  0  0  0  0
 14 15  1  0  0  0  0
 14 25  1  0  0  0  0
 15 17  1  0  0  0  0
 15 26  1  0  0  0  0
 16 27  1  0  0  0  0
 16 28  1  0  0  0  0
 17 30  1  0  0  0  0
 17 31  1  0  0  0  0
 18 19  1  0  0  0  0
 19 20  1  0  0  0  0
 19 33  1  0  0  0  0
 19 34  1  0  0  0  0
 20 21  1  0  0  0  0
 20 36  1  0  0  0  0
 20 37  1  0  0  0  0
 21 22  1  0  0  0  0
 21 39  1  0  0  0  0
 21 40  1  0  0  0  0
 22 42  1  0  0  0  0
 22 43  1  0  0  0  0
 22 44  1  0  0  0  0
M  END
> <PUBCHEM_COMPOUND_CID>
504709
> <PUBCHEM_COMPOUND_CANONICALIZED>
1
> <PUBCHEM_CACTVS_COMPLEXITY>
375
> <PUBCHEM_CACTVS_HBOND_ACCEPTOR>
9
> <PUBCHEM_CACTVS_HBOND_DONOR>
7
> <PUBCHEM_CACTVS_ROTATABLE_BOND>
11
> <PUBCHEM_CACTVS_SUBSKEYS>
AAADceByPAIAAAAAAAAAAAAAAAAAAAAAAAAAAAAAAAAAAAAAAAAAHgAQCCAACDzhgAYCAALAAxAIQAEQEIAAAAAAAAAAAIEIAAADEBIAgAAEQAAHFgCRAAH4cAcAAAAAAAAAAAAAAAAAAAAAAAAAAAAAAA==
> <PUBCHEM_IUPAC_OPENEYE_NAME>
[(2R,3S,4R,5S)-2,3,4,6-tetrahydroxy-5-(pentanoylamino)hexyl] dihydrogen phosphate
> <PUBCHEM_IUPAC_CAS_NAME>
[(2R,3S,4R,5S)-2,3,4,6-tetrahydroxy-5-(1-oxopentylamino)hexyl] dihydrogen phosphate
> <PUBCHEM_IUPAC_NAME_MARKUP>
[(2<I>R</I>,3<I>S</I>,4<I>R</I>,5<I>S</I>)-2,3,4,6-tetrahydroxy-5-(pentanoylamino)hexyl] dihydrogen phosphate
> <PUBCHEM_IUPAC_NAME>
[(2R,3S,4R,5S)-2,3,4,6-tetrahydroxy-5-(pentanoylamino)hexyl] dihydrogen phosphate
> <PUBCHEM_IUPAC_SYSTEMATIC_NAME>
[(2R,3S,4R,5S)-2,3,4,6-tetrakis(oxidanyl)-5-(pentanoylamino)hexyl] dihydrogen phosphate
> <PUBCHEM_IUPAC_TRADITIONAL_NAME>
[(2R,3S,4R,5S)-2,3,4,6-tetrahydroxy-5-(valerylamino)hexyl] dihydrogen phosphate
> <PUBCHEM_IUPAC_INCHI>
InChI=1S/C11H24NO9P/c1-2-3-4-9(15)12-7(5-13)10(16)11(17)8(14)6-21-22(18,19)20/h7-8,10-11,13-14,16-17H,2-6H2,1H3,(H,12,15)(H2,18,19,20)/t7-,8+,10+,11+/m0/s1
> <PUBCHEM_IUPAC_INCHIKEY>
LDWLZNNKZUCFGF-SCVMZPAESA-N
> <PUBCHEM_XLOGP3_AA>
-3.3
> <PUBCHEM_EXACT_MASS>
345.11886834
> <PUBCHEM_MOLECULAR_FORMULA>
C11H24NO9P
> <PUBCHEM_MOLECULAR_WEIGHT>
345.28
> <PUBCHEM_OPENEYE_CAN_SMILES>
CCCCC(=O)NC(CO)C(C(C(COP(=O)(O)O)O)O)O
> <PUBCHEM_OPENEYE_ISO_SMILES>
CCCCC(=O)N[C@@H](CO)[C@H]([C@@H]([C@@H](COP(=O)(O)O)O)O)O
> <PUBCHEM_CACTVS_TPSA>
177
> <PUBCHEM_MONOISOTOPIC_WEIGHT>
345.11886834
> <PUBCHEM_TOTAL_CHARGE>
0
> <PUBCHEM_HEAVY_ATOM_COUNT>
22
> <PUBCHEM_ATOM_DEF_STEREO_COUNT>
4
> <PUBCHEM_ATOM_UDEF_STEREO_COUNT>
0
> <PUBCHEM_BOND_DEF_STEREO_COUNT>
0
> <PUBCHEM_BOND_UDEF_STEREO_COUNT>
0
> <PUBCHEM_ISOTOPIC_ATOM_COUNT>
0
> <PUBCHEM_COMPONENT_COUNT>
1
> <PUBCHEM_CACTVS_TAUTO_COUNT>
-1
> <PUBCHEM_COORDINATE_TYPE>
1
5
255
> <PUBCHEM_BONDANNOTATIONS>
13  11  6
12  2  5
14  3  5
15  4  6
$$$$
