504724
  -OEChem-10302200282D
 72 76  0     1  0  0  0  0  0999 V2000
    6.5422   -1.9860    0.0000 O   0  0  0  0  0  0  0  0  0  0  0  0
    5.5972   -1.5245    0.0000 O   0  0  0  0  0  0  0  0  0  0  0  0
    6.3243    1.0822    0.0000 O   0  0  0  0  0  0  0  0  0  0  0  0
    5.8027   -3.5523    0.0000 O   0  0  0  0  0  0  0  0  0  0  0  0
    7.4262    4.1702    0.0000 O   0  0  0  0  0  0  0  0  0  0  0  0
    7.5289   -3.4095    0.0000 O   0  0  0  0  0  0  0  0  0  0  0  0
    4.6270   -0.0897    0.0000 O   0  0  0  0  0  0  0  0  0  0  0  0
    2.8993   -0.2124    0.0000 N   0  0  0  0  0  0  0  0  0  0  0  0
    8.2201   -0.8229    0.0000 C   0  0  1  0  0  0  0  0  0  0  0  0
    7.3640   -1.4163    0.0000 C   0  0  1  0  0  0  0  0  0  0  0  0
    8.3063   -1.8615    0.0000 C   0  0  0  0  0  0  0  0  0  0  0  0
    8.1263    0.2145    0.0000 C   0  0  1  0  0  0  0  0  0  0  0  0
    6.4256   -0.9644    0.0000 C   0  0  1  0  0  0  0  0  0  0  0  0
    7.2253    0.6483    0.0000 C   0  0  1  0  0  0  0  0  0  0  0  0
    6.3557    0.0749    0.0000 C   0  0  2  0  0  0  0  0  0  0  0  0
    9.3029   -1.7790    0.0000 C   0  0  0  0  0  0  0  0  0  0  0  0
    7.8794   -2.7657    0.0000 C   0  0  0  0  0  0  0  0  0  0  0  0
    7.0028    1.6233    0.0000 C   0  0  1  0  0  0  0  0  0  0  0  0
    9.0272    0.6483    0.0000 C   0  0  0  0  0  0  0  0  0  0  0  0
    7.6263    2.4051    0.0000 C   0  0  2  0  0  0  0  0  0  0  0  0
    5.3577    0.0117    0.0000 C   0  0  0  0  0  0  0  0  0  0  0  0
    9.2498    1.6233    0.0000 C   0  0  0  0  0  0  0  0  0  0  0  0
    8.6263    2.4051    0.0000 C   0  0  0  0  0  0  0  0  0  0  0  0
    6.0730    1.9750    0.0000 C   0  0  0  0  0  0  0  0  0  0  0  0
    7.0765    3.2333    0.0000 C   0  0  0  0  0  0  0  0  0  0  0  0
    6.6246   -2.9826    0.0000 C   0  0  0  0  0  0  0  0  0  0  0  0
    6.1185    2.9680    0.0000 C   0  0  0  0  0  0  0  0  0  0  0  0
    4.6979   -1.0872    0.0000 C   0  0  0  0  0  0  0  0  0  0  0  0
   10.2247    1.8458    0.0000 C   0  0  0  0  0  0  0  0  0  0  0  0
    5.3366    3.5915    0.0000 C   0  0  0  0  0  0  0  0  0  0  0  0
    3.8695   -1.6473    0.0000 C   0  0  0  0  0  0  0  0  0  0  0  0
    2.9702   -1.2099    0.0000 C   0  0  0  0  0  0  0  0  0  0  0  0
    3.9404   -2.6448    0.0000 C   0  0  0  0  0  0  0  0  0  0  0  0
    2.1418   -1.7701    0.0000 C   0  0  0  0  0  0  0  0  0  0  0  0
    3.1120   -3.2049    0.0000 C   0  0  0  0  0  0  0  0  0  0  0  0
    2.2127   -2.7676    0.0000 C   0  0  0  0  0  0  0  0  0  0  0  0
    2.0000    0.2249    0.0000 C   0  0  0  0  0  0  0  0  0  0  0  0
    9.0670   -0.7495    0.0000 H   0  0  0  0  0  0  0  0  0  0  0  0
    8.8657   -0.2048    0.0000 H   0  0  0  0  0  0  0  0  0  0  0  0
    5.8685   -0.6921    0.0000 H   0  0  0  0  0  0  0  0  0  0  0  0
    6.1589    0.6628    0.0000 H   0  0  0  0  0  0  0  0  0  0  0  0
    9.3540   -2.3969    0.0000 H   0  0  0  0  0  0  0  0  0  0  0  0
    9.9208   -1.7279    0.0000 H   0  0  0  0  0  0  0  0  0  0  0  0
    9.2518   -1.1611    0.0000 H   0  0  0  0  0  0  0  0  0  0  0  0
    7.3187   -2.5011    0.0000 H   0  0  0  0  0  0  0  0  0  0  0  0
    7.6147   -3.3264    0.0000 H   0  0  0  0  0  0  0  0  0  0  0  0
    8.4400   -3.0304    0.0000 H   0  0  0  0  0  0  0  0  0  0  0  0
    7.8315    1.4341    0.0000 H   0  0  0  0  0  0  0  0  0  0  0  0
    9.5120    0.2618    0.0000 H   0  0  0  0  0  0  0  0  0  0  0  0
    8.0281    3.1541    0.0000 H   0  0  0  0  0  0  0  0  0  0  0  0
    5.3186    0.6305    0.0000 H   0  0  0  0  0  0  0  0  0  0  0  0
    4.7390   -0.0275    0.0000 H   0  0  0  0  0  0  0  0  0  0  0  0
    5.3969   -0.6070    0.0000 H   0  0  0  0  0  0  0  0  0  0  0  0
    5.7061    1.0359    0.0000 H   0  0  0  0  0  0  0  0  0  0  0  0
    9.1849    2.6741    0.0000 H   0  0  0  0  0  0  0  0  0  0  0  0
    8.4883    3.0096    0.0000 H   0  0  0  0  0  0  0  0  0  0  0  0
    5.5550    1.6343    0.0000 H   0  0  0  0  0  0  0  0  0  0  0  0
   10.3627    1.2413    0.0000 H   0  0  0  0  0  0  0  0  0  0  0  0
   10.8292    1.9838    0.0000 H   0  0  0  0  0  0  0  0  0  0  0  0
   10.0867    2.4502    0.0000 H   0  0  0  0  0  0  0  0  0  0  0  0
    5.7232    4.0762    0.0000 H   0  0  0  0  0  0  0  0  0  0  0  0
    4.8519    3.9781    0.0000 H   0  0  0  0  0  0  0  0  0  0  0  0
    4.9501    3.1068    0.0000 H   0  0  0  0  0  0  0  0  0  0  0  0
    5.8538   -4.1702    0.0000 H   0  0  0  0  0  0  0  0  0  0  0  0
    4.4979   -2.9159    0.0000 H   0  0  0  0  0  0  0  0  0  0  0  0
    1.5842   -1.4989    0.0000 H   0  0  0  0  0  0  0  0  0  0  0  0
    3.1559   -3.8233    0.0000 H   0  0  0  0  0  0  0  0  0  0  0  0
    3.4129    0.1348    0.0000 H   0  0  0  0  0  0  0  0  0  0  0  0
    1.6990   -3.1148    0.0000 H   0  0  0  0  0  0  0  0  0  0  0  0
    2.2712    0.7825    0.0000 H   0  0  0  0  0  0  0  0  0  0  0  0
    1.4424    0.4961    0.0000 H   0  0  0  0  0  0  0  0  0  0  0  0
    1.7288   -0.3327    0.0000 H   0  0  0  0  0  0  0  0  0  0  0  0
 10  1  1  1  0  0  0
  1 26  1  0  0  0  0
 13  2  1  6  0  0  0
  2 28  1  0  0  0  0
 14  3  1  1  0  0  0
  3 54  1  0  0  0  0
  4 26  1  0  0  0  0
  4 64  1  0  0  0  0
  5 25  2  0  0  0  0
  6 26  2  0  0  0  0
  7 28  2  0  0  0  0
  8 32  1  0  0  0  0
  8 37  1  0  0  0  0
  8 68  1  0  0  0  0
  9 10  1  0  0  0  0
  9 11  1  0  0  0  0
  9 12  1  0  0  0  0
  9 38  1  1  0  0  0
 10 11  1  0  0  0  0
 10 13  1  0  0  0  0
 11 16  1  0  0  0  0
 11 17  1  0  0  0  0
 12 14  1  0  0  0  0
 12 19  1  0  0  0  0
 12 39  1  6  0  0  0
 13 15  1  0  0  0  0
 13 40  1  0  0  0  0
 14 15  1  0  0  0  0
 14 18  1  0  0  0  0
 15 21  1  1  0  0  0
 15 41  1  0  0  0  0
 16 42  1  0  0  0  0
 16 43  1  0  0  0  0
 16 44  1  0  0  0  0
 17 45  1  0  0  0  0
 17 46  1  0  0  0  0
 17 47  1  0  0  0  0
 18 20  1  0  0  0  0
 18 24  1  0  0  0  0
 18 48  1  1  0  0  0
 19 22  2  0  0  0  0
 19 49  1  0  0  0  0
 20 23  1  0  0  0  0
 20 25  1  0  0  0  0
 20 50  1  6  0  0  0
 21 51  1  0  0  0  0
 21 52  1  0  0  0  0
 21 53  1  0  0  0  0
 22 23  1  0  0  0  0
 22 29  1  0  0  0  0
 23 55  1  0  0  0  0
 23 56  1  0  0  0  0
 24 27  2  0  0  0  0
 24 57  1  0  0  0  0
 25 27  1  0  0  0  0
 27 30  1  0  0  0  0
 28 31  1  0  0  0  0
 29 58  1  0  0  0  0
 29 59  1  0  0  0  0
 29 60  1  0  0  0  0
 30 61  1  0  0  0  0
 30 62  1  0  0  0  0
 30 63  1  0  0  0  0
 31 32  1  0  0  0  0
 31 33  2  0  0  0  0
 32 34  2  0  0  0  0
 33 35  1  0  0  0  0
 33 65  1  0  0  0  0
 34 36  1  0  0  0  0
 34 66  1  0  0  0  0
 35 36  2  0  0  0  0
 35 67  1  0  0  0  0
 36 69  1  0  0  0  0
 37 70  1  0  0  0  0
 37 71  1  0  0  0  0
 37 72  1  0  0  0  0
M  END
> <PUBCHEM_COMPOUND_CID>
504724
> <PUBCHEM_COMPOUND_CANONICALIZED>
1
> <PUBCHEM_CACTVS_COMPLEXITY>
1080
> <PUBCHEM_CACTVS_HBOND_ACCEPTOR>
8
> <PUBCHEM_CACTVS_HBOND_DONOR>
3
> <PUBCHEM_CACTVS_ROTATABLE_BOND>
6
> <PUBCHEM_CACTVS_SUBSKEYS>
AAADcfB6OAAAAAAAAAAAAAAAGAAAAQAAAAAwYAAABggAAACBAAAAHgAQCAAAD1yhmAYyyILABgCIAqTSSACCAAAlAgAIiIEIbMgZJjrAtZmGcYhn0AFO6cfa6PyPgAAAAAACAADCAAYQADSAAAAAAAAAAA==
> <PUBCHEM_IUPAC_OPENEYE_NAME>
[(1R,2R,6S,10S,11R,13S,14R,15R)-13-carboxyoxy-1-hydroxy-4,8,12,12,15-pentamethyl-5-oxo-14-tetracyclo[8.5.0.02,6.011,13]pentadeca-3,8-dienyl] 2-(methylamino)benzoate
> <PUBCHEM_IUPAC_CAS_NAME>
2-(methylamino)benzoic acid [(1R,2R,6S,10S,11R,13S,14R,15R)-13-carboxyoxy-1-hydroxy-4,8,12,12,15-pentamethyl-5-oxo-14-tetracyclo[8.5.0.02,6.011,13]pentadeca-3,8-dienyl] ester
> <PUBCHEM_IUPAC_NAME_MARKUP>
[(1<I>R</I>,2<I>R</I>,6<I>S</I>,10<I>S</I>,11<I>R</I>,13<I>S</I>,14<I>R</I>,15<I>R</I>)-13-carboxyoxy-1-hydroxy-4,8,12,12,15-pentamethyl-5-oxo-14-tetracyclo[8.5.0.0<SUP>2,6</SUP>.0<SUP>11,13</SUP>]pentadeca-3,8-dienyl] 2-(methylamino)benzoate
> <PUBCHEM_IUPAC_NAME>
[(1R,2R,6S,10S,11R,13S,14R,15R)-13-carboxyoxy-1-hydroxy-4,8,12,12,15-pentamethyl-5-oxo-14-tetracyclo[8.5.0.02,6.011,13]pentadeca-3,8-dienyl] 2-(methylamino)benzoate
> <PUBCHEM_IUPAC_SYSTEMATIC_NAME>
[(1R,2R,6S,10S,11R,13S,14R,15R)-13-carboxyoxy-4,8,12,12,15-pentamethyl-1-oxidanyl-5-oxidanylidene-14-tetracyclo[8.5.0.02,6.011,13]pentadeca-3,8-dienyl] 2-(methylamino)benzoate
> <PUBCHEM_IUPAC_TRADITIONAL_NAME>
2-(methylamino)benzoic acid [(1R,2R,6S,10S,11R,13S,14R,15R)-13-carboxyoxy-1-hydroxy-5-keto-4,8,12,12,15-pentamethyl-14-tetracyclo[8.5.0.02,6.011,13]pentadeca-3,8-dienyl] ester
> <PUBCHEM_IUPAC_INCHI>
InChI=1S/C29H35NO7/c1-14-11-18-19(13-15(2)22(18)31)28(35)16(3)24(36-25(32)17-9-7-8-10-21(17)30-6)29(37-26(33)34)23(20(28)12-14)27(29,4)5/h7-10,12-13,16,18-20,23-24,30,35H,11H2,1-6H3,(H,33,34)/t16-,18+,19-,20+,23-,24-,28+,29-/m1/s1
> <PUBCHEM_IUPAC_INCHIKEY>
CHQJHBRWOPFNCX-NMALPIGSSA-N
> <PUBCHEM_XLOGP3_AA>
4.6
> <PUBCHEM_EXACT_MASS>
509.24135246
> <PUBCHEM_MOLECULAR_FORMULA>
C29H35NO7
> <PUBCHEM_MOLECULAR_WEIGHT>
509.6
> <PUBCHEM_OPENEYE_CAN_SMILES>
CC1C(C2(C(C2(C)C)C3C1(C4C=C(C(=O)C4CC(=C3)C)C)O)OC(=O)O)OC(=O)C5=CC=CC=C5NC
> <PUBCHEM_OPENEYE_ISO_SMILES>
C[C@@H]1[C@H]([C@@]2([C@@H](C2(C)C)[C@H]3[C@]1([C@@H]4C=C(C(=O)[C@H]4CC(=C3)C)C)O)OC(=O)O)OC(=O)C5=CC=CC=C5NC
> <PUBCHEM_CACTVS_TPSA>
122
> <PUBCHEM_MONOISOTOPIC_WEIGHT>
509.24135246
> <PUBCHEM_TOTAL_CHARGE>
0
> <PUBCHEM_HEAVY_ATOM_COUNT>
37
> <PUBCHEM_ATOM_DEF_STEREO_COUNT>
8
> <PUBCHEM_ATOM_UDEF_STEREO_COUNT>
0
> <PUBCHEM_BOND_DEF_STEREO_COUNT>
0
> <PUBCHEM_BOND_UDEF_STEREO_COUNT>
0
> <PUBCHEM_ISOTOPIC_ATOM_COUNT>
0
> <PUBCHEM_COMPONENT_COUNT>
1
> <PUBCHEM_CACTVS_TAUTO_COUNT>
-1
> <PUBCHEM_COORDINATE_TYPE>
1
5
255
> <PUBCHEM_BONDANNOTATIONS>
10  1  5
12  39  6
15  21  5
18  48  5
13  2  6
20  50  6
14  3  5
31  32  8
31  33  8
32  34  8
33  35  8
34  36  8
35  36  8
9  38  5
$$$$
