504765
  -OEChem-10302200282D
104108  0     1  0  0  0  0  0999 V2000
    9.7942    2.6618    0.0000 S   0  0  0  0  0  0  0  0  0  0  0  0
    4.5981   -3.3382    0.0000 O   0  0  0  0  0  0  0  0  0  0  0  0
    7.1962    0.1618    0.0000 O   0  0  0  0  0  0  0  0  0  0  0  0
    7.1962    1.1618    0.0000 O   0  0  0  0  0  0  0  0  0  0  0  0
    3.7320    3.1618    0.0000 O   0  0  0  0  0  0  0  0  0  0  0  0
    6.3301    4.6618    0.0000 O   0  0  0  0  0  0  0  0  0  0  0  0
    6.3301   -3.3382    0.0000 O   0  0  0  0  0  0  0  0  0  0  0  0
    5.4641    0.1618    0.0000 N   0  0  0  0  0  0  0  0  0  0  0  0
    6.3301    2.6618    0.0000 N   0  0  0  0  0  0  0  0  0  0  0  0
    5.4641   -1.8382    0.0000 N   0  0  0  0  0  0  0  0  0  0  0  0
    8.0622    4.6618    0.0000 N   0  0  0  0  0  0  0  0  0  0  0  0
    5.4641    1.1618    0.0000 C   0  0  1  0  0  0  0  0  0  0  0  0
    6.3301   -1.3382    0.0000 C   0  0  2  0  0  0  0  0  0  0  0  0
    4.5981    1.6618    0.0000 C   0  0  0  0  0  0  0  0  0  0  0  0
    7.1962    3.1618    0.0000 C   0  0  1  0  0  0  0  0  0  0  0  0
    6.3301   -0.3382    0.0000 C   0  0  0  0  0  0  0  0  0  0  0  0
    6.3301    1.6618    0.0000 C   0  0  0  0  0  0  0  0  0  0  0  0
    4.5981   -0.3382    0.0000 C   0  0  0  0  0  0  0  0  0  0  0  0
    4.5981   -4.3382    0.0000 C   0  0  0  0  0  0  0  0  0  0  0  0
    5.4071   -4.9260    0.0000 C   0  0  0  0  0  0  0  0  0  0  0  0
    3.7891   -4.9260    0.0000 C   0  0  0  0  0  0  0  0  0  0  0  0
    7.1962   -1.8382    0.0000 C   0  0  0  0  0  0  0  0  0  0  0  0
    8.0622    5.6618    0.0000 C   0  0  0  0  0  0  0  0  0  0  0  0
    5.0981   -5.8770    0.0000 C   0  0  0  0  0  0  0  0  0  0  0  0
    4.0981   -5.8770    0.0000 C   0  0  0  0  0  0  0  0  0  0  0  0
    8.0622    2.6618    0.0000 C   0  0  0  0  0  0  0  0  0  0  0  0
    7.1962    4.1618    0.0000 C   0  0  0  0  0  0  0  0  0  0  0  0
    4.5981    2.6618    0.0000 C   0  0  0  0  0  0  0  0  0  0  0  0
    3.7320    0.1618    0.0000 C   0  0  0  0  0  0  0  0  0  0  0  0
    8.0622   -1.3382    0.0000 C   0  0  0  0  0  0  0  0  0  0  0  0
    5.4641   -2.8382    0.0000 C   0  0  0  0  0  0  0  0  0  0  0  0
    6.4225   -4.6938    0.0000 C   0  0  0  0  0  0  0  0  0  0  0  0
    2.7736   -4.6938    0.0000 C   0  0  0  0  0  0  0  0  0  0  0  0
    8.9282    3.1618    0.0000 C   0  0  0  0  0  0  0  0  0  0  0  0
    8.0622    6.6618    0.0000 C   0  0  0  0  0  0  0  0  0  0  0  0
    9.0622    5.6618    0.0000 C   0  0  0  0  0  0  0  0  0  0  0  0
    7.0622    5.6618    0.0000 C   0  0  0  0  0  0  0  0  0  0  0  0
    5.7830   -6.6618    0.0000 C   0  0  0  0  0  0  0  0  0  0  0  0
    3.4131   -6.6618    0.0000 C   0  0  0  0  0  0  0  0  0  0  0  0
    7.1254   -5.4624    0.0000 C   0  0  0  0  0  0  0  0  0  0  0  0
    2.0707   -5.4624    0.0000 C   0  0  0  0  0  0  0  0  0  0  0  0
    2.8660   -0.3382    0.0000 C   0  0  0  0  0  0  0  0  0  0  0  0
    3.7320    1.1618    0.0000 C   0  0  0  0  0  0  0  0  0  0  0  0
    6.8036   -6.4531    0.0000 C   0  0  0  0  0  0  0  0  0  0  0  0
    2.3926   -6.4531    0.0000 C   0  0  0  0  0  0  0  0  0  0  0  0
    8.0622   -0.3382    0.0000 C   0  0  0  0  0  0  0  0  0  0  0  0
    8.9282   -1.8382    0.0000 C   0  0  0  0  0  0  0  0  0  0  0  0
    2.0000    0.1618    0.0000 C   0  0  0  0  0  0  0  0  0  0  0  0
    2.8660    1.6618    0.0000 C   0  0  0  0  0  0  0  0  0  0  0  0
    8.9282    0.1618    0.0000 C   0  0  0  0  0  0  0  0  0  0  0  0
    9.7942   -1.3382    0.0000 C   0  0  0  0  0  0  0  0  0  0  0  0
    2.0000    1.1618    0.0000 C   0  0  0  0  0  0  0  0  0  0  0  0
    9.7942   -0.3382    0.0000 C   0  0  0  0  0  0  0  0  0  0  0  0
   10.6603    3.1618    0.0000 C   0  0  0  0  0  0  0  0  0  0  0  0
    6.0010    0.8518    0.0000 H   0  0  0  0  0  0  0  0  0  0  0  0
    5.7932   -1.0282    0.0000 H   0  0  0  0  0  0  0  0  0  0  0  0
    3.9875    1.7694    0.0000 H   0  0  0  0  0  0  0  0  0  0  0  0
    4.3860    1.0792    0.0000 H   0  0  0  0  0  0  0  0  0  0  0  0
    6.6592    3.4718    0.0000 H   0  0  0  0  0  0  0  0  0  0  0  0
    4.1996   -0.8132    0.0000 H   0  0  0  0  0  0  0  0  0  0  0  0
    4.9966   -0.8132    0.0000 H   0  0  0  0  0  0  0  0  0  0  0  0
    5.1505   -4.0567    0.0000 H   0  0  0  0  0  0  0  0  0  0  0  0
    5.7932    2.9718    0.0000 H   0  0  0  0  0  0  0  0  0  0  0  0
    6.7976   -2.3132    0.0000 H   0  0  0  0  0  0  0  0  0  0  0  0
    7.5947   -2.3132    0.0000 H   0  0  0  0  0  0  0  0  0  0  0  0
    7.6636    2.1868    0.0000 H   0  0  0  0  0  0  0  0  0  0  0  0
    8.4607    2.1868    0.0000 H   0  0  0  0  0  0  0  0  0  0  0  0
    5.2087    2.5541    0.0000 H   0  0  0  0  0  0  0  0  0  0  0  0
    4.8101    3.2444    0.0000 H   0  0  0  0  0  0  0  0  0  0  0  0
    4.9272   -1.5282    0.0000 H   0  0  0  0  0  0  0  0  0  0  0  0
    8.5991    4.3518    0.0000 H   0  0  0  0  0  0  0  0  0  0  0  0
    9.3267    3.6367    0.0000 H   0  0  0  0  0  0  0  0  0  0  0  0
    8.5297    3.6367    0.0000 H   0  0  0  0  0  0  0  0  0  0  0  0
    6.6073   -4.1019    0.0000 H   0  0  0  0  0  0  0  0  0  0  0  0
    2.5889   -4.1019    0.0000 H   0  0  0  0  0  0  0  0  0  0  0  0
    8.6822    6.6618    0.0000 H   0  0  0  0  0  0  0  0  0  0  0  0
    8.0622    7.2818    0.0000 H   0  0  0  0  0  0  0  0  0  0  0  0
    7.4422    6.6618    0.0000 H   0  0  0  0  0  0  0  0  0  0  0  0
    9.0622    5.0418    0.0000 H   0  0  0  0  0  0  0  0  0  0  0  0
    9.6822    5.6618    0.0000 H   0  0  0  0  0  0  0  0  0  0  0  0
    9.0622    6.2818    0.0000 H   0  0  0  0  0  0  0  0  0  0  0  0
    7.0622    6.2818    0.0000 H   0  0  0  0  0  0  0  0  0  0  0  0
    6.4422    5.6618    0.0000 H   0  0  0  0  0  0  0  0  0  0  0  0
    7.0622    5.0418    0.0000 H   0  0  0  0  0  0  0  0  0  0  0  0
    5.5846   -7.2492    0.0000 H   0  0  0  0  0  0  0  0  0  0  0  0
    3.6115   -7.2492    0.0000 H   0  0  0  0  0  0  0  0  0  0  0  0
    7.7314   -5.3312    0.0000 H   0  0  0  0  0  0  0  0  0  0  0  0
    1.4648   -5.3312    0.0000 H   0  0  0  0  0  0  0  0  0  0  0  0
    2.8660   -0.9582    0.0000 H   0  0  0  0  0  0  0  0  0  0  0  0
    4.2690    1.4718    0.0000 H   0  0  0  0  0  0  0  0  0  0  0  0
    7.2166   -6.9154    0.0000 H   0  0  0  0  0  0  0  0  0  0  0  0
    1.9795   -6.9154    0.0000 H   0  0  0  0  0  0  0  0  0  0  0  0
    7.5252   -0.0282    0.0000 H   0  0  0  0  0  0  0  0  0  0  0  0
    8.9282   -2.4582    0.0000 H   0  0  0  0  0  0  0  0  0  0  0  0
    3.7320    3.7818    0.0000 H   0  0  0  0  0  0  0  0  0  0  0  0
    1.4631   -0.1482    0.0000 H   0  0  0  0  0  0  0  0  0  0  0  0
    2.8660    2.2818    0.0000 H   0  0  0  0  0  0  0  0  0  0  0  0
    8.9282    0.7818    0.0000 H   0  0  0  0  0  0  0  0  0  0  0  0
   10.3312   -1.6482    0.0000 H   0  0  0  0  0  0  0  0  0  0  0  0
    1.4631    1.4718    0.0000 H   0  0  0  0  0  0  0  0  0  0  0  0
   10.3312   -0.0282    0.0000 H   0  0  0  0  0  0  0  0  0  0  0  0
   10.9703    2.6248    0.0000 H   0  0  0  0  0  0  0  0  0  0  0  0
   11.1972    3.4718    0.0000 H   0  0  0  0  0  0  0  0  0  0  0  0
   10.3503    3.6987    0.0000 H   0  0  0  0  0  0  0  0  0  0  0  0
  1 34  1  0  0  0  0
  1 54  1  0  0  0  0
  2 19  1  0  0  0  0
  2 31  1  0  0  0  0
  3 16  2  0  0  0  0
  4 17  2  0  0  0  0
  5 28  1  0  0  0  0
  5 95  1  0  0  0  0
  6 27  2  0  0  0  0
  7 31  2  0  0  0  0
 12  8  1  1  0  0  0
  8 16  1  0  0  0  0
  8 18  1  0  0  0  0
 15  9  1  6  0  0  0
  9 17  1  0  0  0  0
  9 63  1  0  0  0  0
 13 10  1  6  0  0  0
 10 31  1  0  0  0  0
 10 70  1  0  0  0  0
 11 23  1  0  0  0  0
 11 27  1  0  0  0  0
 11 71  1  0  0  0  0
 12 14  1  0  0  0  0
 12 17  1  0  0  0  0
 12 55  1  0  0  0  0
 13 16  1  0  0  0  0
 13 22  1  0  0  0  0
 13 56  1  0  0  0  0
 14 28  1  0  0  0  0
 14 57  1  0  0  0  0
 14 58  1  0  0  0  0
 15 26  1  0  0  0  0
 15 27  1  0  0  0  0
 15 59  1  0  0  0  0
 18 29  1  0  0  0  0
 18 60  1  0  0  0  0
 18 61  1  0  0  0  0
 19 20  1  0  0  0  0
 19 21  1  0  0  0  0
 19 62  1  0  0  0  0
 20 24  1  0  0  0  0
 20 32  2  0  0  0  0
 21 25  1  0  0  0  0
 21 33  2  0  0  0  0
 22 30  1  0  0  0  0
 22 64  1  0  0  0  0
 22 65  1  0  0  0  0
 23 35  1  0  0  0  0
 23 36  1  0  0  0  0
 23 37  1  0  0  0  0
 24 25  1  0  0  0  0
 24 38  2  0  0  0  0
 25 39  2  0  0  0  0
 26 34  1  0  0  0  0
 26 66  1  0  0  0  0
 26 67  1  0  0  0  0
 28 68  1  0  0  0  0
 28 69  1  0  0  0  0
 29 42  2  0  0  0  0
 29 43  1  0  0  0  0
 30 46  2  0  0  0  0
 30 47  1  0  0  0  0
 32 40  1  0  0  0  0
 32 74  1  0  0  0  0
 33 41  1  0  0  0  0
 33 75  1  0  0  0  0
 34 72  1  0  0  0  0
 34 73  1  0  0  0  0
 35 76  1  0  0  0  0
 35 77  1  0  0  0  0
 35 78  1  0  0  0  0
 36 79  1  0  0  0  0
 36 80  1  0  0  0  0
 36 81  1  0  0  0  0
 37 82  1  0  0  0  0
 37 83  1  0  0  0  0
 37 84  1  0  0  0  0
 38 44  1  0  0  0  0
 38 85  1  0  0  0  0
 39 45  1  0  0  0  0
 39 86  1  0  0  0  0
 40 44  2  0  0  0  0
 40 87  1  0  0  0  0
 41 45  2  0  0  0  0
 41 88  1  0  0  0  0
 42 48  1  0  0  0  0
 42 89  1  0  0  0  0
 43 49  2  0  0  0  0
 43 90  1  0  0  0  0
 44 91  1  0  0  0  0
 45 92  1  0  0  0  0
 46 50  1  0  0  0  0
 46 93  1  0  0  0  0
 47 51  2  0  0  0  0
 47 94  1  0  0  0  0
 48 52  2  0  0  0  0
 48 96  1  0  0  0  0
 49 52  1  0  0  0  0
 49 97  1  0  0  0  0
 50 53  2  0  0  0  0
 50 98  1  0  0  0  0
 51 53  1  0  0  0  0
 51 99  1  0  0  0  0
 52100  1  0  0  0  0
 53101  1  0  0  0  0
 54102  1  0  0  0  0
 54103  1  0  0  0  0
 54104  1  0  0  0  0
M  END
> <PUBCHEM_COMPOUND_CID>
504765
> <PUBCHEM_COMPOUND_CANONICALIZED>
1
> <PUBCHEM_CACTVS_COMPLEXITY>
1190
> <PUBCHEM_CACTVS_HBOND_ACCEPTOR>
7
> <PUBCHEM_CACTVS_HBOND_DONOR>
4
> <PUBCHEM_CACTVS_ROTATABLE_BOND>
18
> <PUBCHEM_CACTVS_SUBSKEYS>
AAADcfB/uABAAAAAAAAAAAAAAAAAAYAAAAAwYMGAAAAAAGABVAAAHgQQCAAADLzl2AayCIPABgiIAiFSGACCAAAgABAIiIGIDIkIdjKgsTmccAhm1gGIqAe6yOCOgAAAAAAQAAAAAAAAACAAAYAADAAAAA==
> <PUBCHEM_IUPAC_OPENEYE_NAME>
9H-fluoren-9-yl N-[(1S)-1-benzyl-2-[benzyl-[(1S)-1-[[(1S)-1-(tert-butylcarbamoyl)-3-methylsulfanyl-propyl]carbamoyl]-3-hydroxy-propyl]amino]-2-oxo-ethyl]carbamate
> <PUBCHEM_IUPAC_CAS_NAME>
N-[(2S)-1-[[(2S)-1-[[(2S)-1-(tert-butylamino)-4-(methylthio)-1-oxobutan-2-yl]amino]-4-hydroxy-1-oxobutan-2-yl]-(phenylmethyl)amino]-1-oxo-3-phenylpropan-2-yl]carbamic acid 9H-fluoren-9-yl ester
> <PUBCHEM_IUPAC_NAME_MARKUP>
9<I>H</I>-fluoren-9-yl <I>N</I>-[(2<I>S</I>)-1-[benzyl-[(2<I>S</I>)-1-[[(2<I>S</I>)-1-(<I>tert</I>-butylamino)-4-methylsulfanyl-1-oxobutan-2-yl]amino]-4-hydroxy-1-oxobutan-2-yl]amino]-1-oxo-3-phenylpropan-2-yl]carbamate
> <PUBCHEM_IUPAC_NAME>
9H-fluoren-9-yl N-[(2S)-1-[benzyl-[(2S)-1-[[(2S)-1-(tert-butylamino)-4-methylsulfanyl-1-oxobutan-2-yl]amino]-4-hydroxy-1-oxobutan-2-yl]amino]-1-oxo-3-phenylpropan-2-yl]carbamate
> <PUBCHEM_IUPAC_SYSTEMATIC_NAME>
9H-fluoren-9-yl N-[(2S)-1-[[(2S)-1-[[(2S)-1-(tert-butylamino)-4-methylsulfanyl-1-oxidanylidene-butan-2-yl]amino]-4-oxidanyl-1-oxidanylidene-butan-2-yl]-(phenylmethyl)amino]-1-oxidanylidene-3-phenyl-propan-2-yl]carbamate
> <PUBCHEM_IUPAC_TRADITIONAL_NAME>
N-[(1S)-1-benzyl-2-[benzyl-[(1S)-1-[[(1S)-1-(tert-butylcarbamoyl)-3-(methylthio)propyl]carbamoyl]-3-hydroxy-propyl]amino]-2-keto-ethyl]carbamic acid 9H-fluoren-9-yl ester
> <PUBCHEM_IUPAC_INCHI>
InChI=1S/C43H50N4O6S/c1-43(2,3)46-39(49)35(24-26-54-4)44-40(50)37(23-25-48)47(28-30-17-9-6-10-18-30)41(51)36(27-29-15-7-5-8-16-29)45-42(52)53-38-33-21-13-11-19-31(33)32-20-12-14-22-34(32)38/h5-22,35-38,48H,23-28H2,1-4H3,(H,44,50)(H,45,52)(H,46,49)/t35-,36-,37-/m0/s1
> <PUBCHEM_IUPAC_INCHIKEY>
QNIZXQGOOWMXDJ-FSEITFBQSA-N
> <PUBCHEM_XLOGP3_AA>
6.3
> <PUBCHEM_EXACT_MASS>
750.34510650
> <PUBCHEM_MOLECULAR_FORMULA>
C43H50N4O6S
> <PUBCHEM_MOLECULAR_WEIGHT>
750.9
> <PUBCHEM_OPENEYE_CAN_SMILES>
CC(C)(C)NC(=O)C(CCSC)NC(=O)C(CCO)N(CC1=CC=CC=C1)C(=O)C(CC2=CC=CC=C2)NC(=O)OC3C4=CC=CC=C4C5=CC=CC=C35
> <PUBCHEM_OPENEYE_ISO_SMILES>
CC(C)(C)NC(=O)[C@H](CCSC)NC(=O)[C@H](CCO)N(CC1=CC=CC=C1)C(=O)[C@H](CC2=CC=CC=C2)NC(=O)OC3C4=CC=CC=C4C5=CC=CC=C35
> <PUBCHEM_CACTVS_TPSA>
162
> <PUBCHEM_MONOISOTOPIC_WEIGHT>
750.34510650
> <PUBCHEM_TOTAL_CHARGE>
0
> <PUBCHEM_HEAVY_ATOM_COUNT>
54
> <PUBCHEM_ATOM_DEF_STEREO_COUNT>
3
> <PUBCHEM_ATOM_UDEF_STEREO_COUNT>
0
> <PUBCHEM_BOND_DEF_STEREO_COUNT>
0
> <PUBCHEM_BOND_UDEF_STEREO_COUNT>
0
> <PUBCHEM_ISOTOPIC_ATOM_COUNT>
0
> <PUBCHEM_COMPONENT_COUNT>
1
> <PUBCHEM_CACTVS_TAUTO_COUNT>
-1
> <PUBCHEM_COORDINATE_TYPE>
1
5
255
> <PUBCHEM_BONDANNOTATIONS>
13  10  6
20  24  8
20  32  8
21  25  8
21  33  8
24  38  8
25  39  8
29  42  8
29  43  8
30  46  8
30  47  8
32  40  8
33  41  8
38  44  8
39  45  8
40  44  8
41  45  8
42  48  8
43  49  8
46  50  8
47  51  8
48  52  8
49  52  8
50  53  8
51  53  8
12  8  5
15  9  6
$$$$
