504714
  -OEChem-10302200282D
 49 48  0     1  0  0  0  0  0999 V2000
    4.5981   -0.2390    0.0000 P   0  0  0  0  0  0  0  0  0  0  0  0
    8.9282    1.2610    0.0000 O   0  0  0  0  0  0  0  0  0  0  0  0
    8.0622   -1.2390    0.0000 O   0  0  0  0  0  0  0  0  0  0  0  0
    7.1962    1.2610    0.0000 O   0  0  0  0  0  0  0  0  0  0  0  0
    5.4641    0.2610    0.0000 O   0  0  0  0  0  0  0  0  0  0  0  0
   10.6603   -1.7390    0.0000 O   0  0  0  0  0  0  0  0  0  0  0  0
    3.7320   -0.7390    0.0000 O   0  0  0  0  0  0  0  0  0  0  0  0
    4.0981    0.6270    0.0000 O   0  0  0  0  0  0  0  0  0  0  0  0
   11.5263   -1.2390    0.0000 O   0  0  0  0  0  0  0  0  0  0  0  0
    5.0981   -1.1051    0.0000 O   0  0  0  0  0  0  0  0  0  0  0  0
   10.6603    0.2610    0.0000 N   0  0  0  0  0  0  0  0  0  0  0  0
    8.9282    0.2610    0.0000 C   0  0  1  0  0  0  0  0  0  0  0  0
    8.0622   -0.2390    0.0000 C   0  0  1  0  0  0  0  0  0  0  0  0
    9.7942   -0.2390    0.0000 C   0  0  2  0  0  0  0  0  0  0  0  0
    7.1962    0.2610    0.0000 C   0  0  1  0  0  0  0  0  0  0  0  0
    9.7942   -1.2390    0.0000 C   0  0  0  0  0  0  0  0  0  0  0  0
    6.3301   -0.2390    0.0000 C   0  0  0  0  0  0  0  0  0  0  0  0
   11.5263   -0.2390    0.0000 C   0  0  0  0  0  0  0  0  0  0  0  0
   12.3923    0.2610    0.0000 C   0  0  0  0  0  0  0  0  0  0  0  0
    2.8660   -0.2390    0.0000 C   0  0  0  0  0  0  0  0  0  0  0  0
    4.5981    1.4930    0.0000 C   0  0  0  0  0  0  0  0  0  0  0  0
    2.0000   -0.7390    0.0000 C   0  0  0  0  0  0  0  0  0  0  0  0
    4.0981    2.3590    0.0000 C   0  0  0  0  0  0  0  0  0  0  0  0
    9.4651    0.5710    0.0000 H   0  0  0  0  0  0  0  0  0  0  0  0
    7.5252   -0.5490    0.0000 H   0  0  0  0  0  0  0  0  0  0  0  0
   10.3312   -0.5490    0.0000 H   0  0  0  0  0  0  0  0  0  0  0  0
    6.6592    0.5710    0.0000 H   0  0  0  0  0  0  0  0  0  0  0  0
    9.1836   -1.1314    0.0000 H   0  0  0  0  0  0  0  0  0  0  0  0
    9.5822   -1.8216    0.0000 H   0  0  0  0  0  0  0  0  0  0  0  0
    5.9316   -0.7140    0.0000 H   0  0  0  0  0  0  0  0  0  0  0  0
    6.7287   -0.7140    0.0000 H   0  0  0  0  0  0  0  0  0  0  0  0
   10.6603    0.8810    0.0000 H   0  0  0  0  0  0  0  0  0  0  0  0
    9.4651    1.5710    0.0000 H   0  0  0  0  0  0  0  0  0  0  0  0
    8.5991   -1.5490    0.0000 H   0  0  0  0  0  0  0  0  0  0  0  0
    7.7331    1.5710    0.0000 H   0  0  0  0  0  0  0  0  0  0  0  0
   10.6603   -2.3590    0.0000 H   0  0  0  0  0  0  0  0  0  0  0  0
   12.7023   -0.2760    0.0000 H   0  0  0  0  0  0  0  0  0  0  0  0
   12.9292    0.5710    0.0000 H   0  0  0  0  0  0  0  0  0  0  0  0
   12.0823    0.7979    0.0000 H   0  0  0  0  0  0  0  0  0  0  0  0
    3.2646    0.2359    0.0000 H   0  0  0  0  0  0  0  0  0  0  0  0
    2.4675    0.2359    0.0000 H   0  0  0  0  0  0  0  0  0  0  0  0
    5.0730    1.0945    0.0000 H   0  0  0  0  0  0  0  0  0  0  0  0
    5.0730    1.8915    0.0000 H   0  0  0  0  0  0  0  0  0  0  0  0
    1.6900   -0.2021    0.0000 H   0  0  0  0  0  0  0  0  0  0  0  0
    1.4631   -1.0490    0.0000 H   0  0  0  0  0  0  0  0  0  0  0  0
    2.3100   -1.2760    0.0000 H   0  0  0  0  0  0  0  0  0  0  0  0
    4.6350    2.6690    0.0000 H   0  0  0  0  0  0  0  0  0  0  0  0
    3.7881    2.8960    0.0000 H   0  0  0  0  0  0  0  0  0  0  0  0
    3.5611    2.0490    0.0000 H   0  0  0  0  0  0  0  0  0  0  0  0
  1  5  1  0  0  0  0
  1  7  1  0  0  0  0
  1  8  1  0  0  0  0
  1 10  2  0  0  0  0
 12  2  1  6  0  0  0
  2 33  1  0  0  0  0
 13  3  1  6  0  0  0
  3 34  1  0  0  0  0
 15  4  1  1  0  0  0
  4 35  1  0  0  0  0
  5 17  1  0  0  0  0
  6 16  1  0  0  0  0
  6 36  1  0  0  0  0
  7 20  1  0  0  0  0
  8 21  1  0  0  0  0
  9 18  2  0  0  0  0
 14 11  1  1  0  0  0
 11 18  1  0  0  0  0
 11 32  1  0  0  0  0
 12 13  1  0  0  0  0
 12 14  1  0  0  0  0
 12 24  1  0  0  0  0
 13 15  1  0  0  0  0
 13 25  1  0  0  0  0
 14 16  1  0  0  0  0
 14 26  1  0  0  0  0
 15 17  1  0  0  0  0
 15 27  1  0  0  0  0
 16 28  1  0  0  0  0
 16 29  1  0  0  0  0
 17 30  1  0  0  0  0
 17 31  1  0  0  0  0
 18 19  1  0  0  0  0
 19 37  1  0  0  0  0
 19 38  1  0  0  0  0
 19 39  1  0  0  0  0
 20 22  1  0  0  0  0
 20 40  1  0  0  0  0
 20 41  1  0  0  0  0
 21 23  1  0  0  0  0
 21 42  1  0  0  0  0
 21 43  1  0  0  0  0
 22 44  1  0  0  0  0
 22 45  1  0  0  0  0
 22 46  1  0  0  0  0
 23 47  1  0  0  0  0
 23 48  1  0  0  0  0
 23 49  1  0  0  0  0
M  END
> <PUBCHEM_COMPOUND_CID>
504714
> <PUBCHEM_COMPOUND_CANONICALIZED>
1
> <PUBCHEM_CACTVS_COMPLEXITY>
385
> <PUBCHEM_CACTVS_HBOND_ACCEPTOR>
9
> <PUBCHEM_CACTVS_HBOND_DONOR>
5
> <PUBCHEM_CACTVS_ROTATABLE_BOND>
12
> <PUBCHEM_CACTVS_SUBSKEYS>
AAADceByPAIAAAAAAAAAAAAAAAAAAAAAAAAAAAAAAAAAAAAAAAAAHgAQCCAACDzhgAYCAALAAxAIQAEQEIAAAAAAAAAAAIAIAAADEAIAgAAEQAAHFgCRAAHwcAcAAAAAAAAAAAAAAAAAAAAAAAAAAAAAAA==
> <PUBCHEM_IUPAC_OPENEYE_NAME>
[(2R,3S,4R,5S)-5-acetamido-2,3,4,6-tetrahydroxy-hexyl] diethyl phosphate
> <PUBCHEM_IUPAC_CAS_NAME>
phosphoric acid [(2R,3S,4R,5S)-5-acetamido-2,3,4,6-tetrahydroxyhexyl] diethyl ester
> <PUBCHEM_IUPAC_NAME_MARKUP>
[(2<I>R</I>,3<I>S</I>,4<I>R</I>,5<I>S</I>)-5-acetamido-2,3,4,6-tetrahydroxyhexyl] diethyl phosphate
> <PUBCHEM_IUPAC_NAME>
[(2R,3S,4R,5S)-5-acetamido-2,3,4,6-tetrahydroxyhexyl] diethyl phosphate
> <PUBCHEM_IUPAC_SYSTEMATIC_NAME>
[(2R,3S,4R,5S)-5-acetamido-2,3,4,6-tetrakis(oxidanyl)hexyl] diethyl phosphate
> <PUBCHEM_IUPAC_TRADITIONAL_NAME>
phosphoric acid [(2R,3S,4R,5S)-5-acetamido-2,3,4,6-tetrahydroxy-hexyl] diethyl ester
> <PUBCHEM_IUPAC_INCHI>
InChI=1S/C12H26NO9P/c1-4-20-23(19,21-5-2)22-7-10(16)12(18)11(17)9(6-14)13-8(3)15/h9-12,14,16-18H,4-7H2,1-3H3,(H,13,15)/t9-,10+,11+,12+/m0/s1
> <PUBCHEM_IUPAC_INCHIKEY>
XUOLFRDQUIYYQU-IRCOFANPSA-N
> <PUBCHEM_XLOGP3_AA>
-2.9
> <PUBCHEM_EXACT_MASS>
359.13451840
> <PUBCHEM_MOLECULAR_FORMULA>
C12H26NO9P
> <PUBCHEM_MOLECULAR_WEIGHT>
359.31
> <PUBCHEM_OPENEYE_CAN_SMILES>
CCOP(=O)(OCC)OCC(C(C(C(CO)NC(=O)C)O)O)O
> <PUBCHEM_OPENEYE_ISO_SMILES>
CCOP(=O)(OCC)OC[C@H]([C@H]([C@@H]([C@H](CO)NC(=O)C)O)O)O
> <PUBCHEM_CACTVS_TPSA>
155
> <PUBCHEM_MONOISOTOPIC_WEIGHT>
359.13451840
> <PUBCHEM_TOTAL_CHARGE>
0
> <PUBCHEM_HEAVY_ATOM_COUNT>
23
> <PUBCHEM_ATOM_DEF_STEREO_COUNT>
4
> <PUBCHEM_ATOM_UDEF_STEREO_COUNT>
0
> <PUBCHEM_BOND_DEF_STEREO_COUNT>
0
> <PUBCHEM_BOND_UDEF_STEREO_COUNT>
0
> <PUBCHEM_ISOTOPIC_ATOM_COUNT>
0
> <PUBCHEM_COMPONENT_COUNT>
1
> <PUBCHEM_CACTVS_TAUTO_COUNT>
-1
> <PUBCHEM_COORDINATE_TYPE>
1
5
255
> <PUBCHEM_BONDANNOTATIONS>
14  11  5
12  2  6
13  3  6
15  4  5
$$$$
