504743
  -OEChem-10302200282D
 47 49  0     1  0  0  0  0  0999 V2000
    4.5981   -4.1140    0.0000 Cl  0  0  0  0  0  0  0  0  0  0  0  0
    6.1346    0.4513    0.0000 O   0  0  0  0  0  0  0  0  0  0  0  0
    8.4806   -0.6406    0.0000 O   0  0  0  0  0  0  0  0  0  0  0  0
    8.4843    1.5350    0.0000 O   0  0  0  0  0  0  0  0  0  0  0  0
    5.4386    2.4205    0.0000 O   0  0  0  0  0  0  0  0  0  0  0  0
    9.5011    0.7589    0.0000 O   0  0  0  0  0  0  0  0  0  0  0  0
    7.4687    2.9380    0.0000 O   0  0  0  0  0  0  0  0  0  0  0  0
    5.8017    4.1140    0.0000 O   0  0  0  0  0  0  0  0  0  0  0  0
    2.0000   -1.6140    0.0000 O   0  0  0  0  0  0  0  0  0  0  0  0
    6.4103   -1.3093    0.0000 N   0  0  0  0  0  0  0  0  0  0  0  0
    6.4103   -2.9188    0.0000 N   0  0  0  0  0  0  0  0  0  0  0  0
    4.5981   -1.1140    0.0000 N   0  0  0  0  0  0  0  0  0  0  0  0
    3.7320   -2.6140    0.0000 N   0  0  0  0  0  0  0  0  0  0  0  0
    7.6726   -0.0514    0.0000 C   0  0  2  0  0  0  0  0  0  0  0  0
    7.6743    0.9486    0.0000 C   0  0  1  0  0  0  0  0  0  0  0  0
    6.7210   -0.3588    0.0000 C   0  0  1  0  0  0  0  0  0  0  0  0
    6.7238    1.2593    0.0000 C   0  0  1  0  0  0  0  0  0  0  0  0
    6.4164    2.2109    0.0000 C   0  0  0  0  0  0  0  0  0  0  0  0
    5.4641   -1.6140    0.0000 C   0  0  0  0  0  0  0  0  0  0  0  0
    6.9939   -2.1140    0.0000 C   0  0  0  0  0  0  0  0  0  0  0  0
    5.4641   -2.6140    0.0000 C   0  0  0  0  0  0  0  0  0  0  0  0
    9.3948   -0.2354    0.0000 C   0  0  0  0  0  0  0  0  0  0  0  0
    8.3815    2.5297    0.0000 C   0  0  0  0  0  0  0  0  0  0  0  0
    4.5981   -3.1140    0.0000 C   0  0  0  0  0  0  0  0  0  0  0  0
   10.2028   -0.8246    0.0000 C   0  0  0  0  0  0  0  0  0  0  0  0
    5.1313    3.3720    0.0000 C   0  0  0  0  0  0  0  0  0  0  0  0
    9.1916    3.1161    0.0000 C   0  0  0  0  0  0  0  0  0  0  0  0
    3.7320   -1.6140    0.0000 C   0  0  0  0  0  0  0  0  0  0  0  0
    4.1535    3.5816    0.0000 C   0  0  0  0  0  0  0  0  0  0  0  0
    2.8660   -1.1140    0.0000 C   0  0  0  0  0  0  0  0  0  0  0  0
    8.2255    0.2291    0.0000 H   0  0  0  0  0  0  0  0  0  0  0  0
    8.2262    0.6662    0.0000 H   0  0  0  0  0  0  0  0  0  0  0  0
    6.1085   -0.4547    0.0000 H   0  0  0  0  0  0  0  0  0  0  0  0
    6.1116    1.3573    0.0000 H   0  0  0  0  0  0  0  0  0  0  0  0
    7.0305    2.2961    0.0000 H   0  0  0  0  0  0  0  0  0  0  0  0
    6.4391    2.8304    0.0000 H   0  0  0  0  0  0  0  0  0  0  0  0
    7.6139   -2.1140    0.0000 H   0  0  0  0  0  0  0  0  0  0  0  0
    9.8375   -1.3256    0.0000 H   0  0  0  0  0  0  0  0  0  0  0  0
   10.7038   -1.1899    0.0000 H   0  0  0  0  0  0  0  0  0  0  0  0
   10.5681   -0.3237    0.0000 H   0  0  0  0  0  0  0  0  0  0  0  0
    9.5551    2.6138    0.0000 H   0  0  0  0  0  0  0  0  0  0  0  0
    9.6938    3.4796    0.0000 H   0  0  0  0  0  0  0  0  0  0  0  0
    8.8280    3.6183    0.0000 H   0  0  0  0  0  0  0  0  0  0  0  0
    4.2834    4.1879    0.0000 H   0  0  0  0  0  0  0  0  0  0  0  0
    3.5472    3.7116    0.0000 H   0  0  0  0  0  0  0  0  0  0  0  0
    4.0235    2.9754    0.0000 H   0  0  0  0  0  0  0  0  0  0  0  0
    2.8660   -0.4940    0.0000 H   0  0  0  0  0  0  0  0  0  0  0  0
  1 24  1  0  0  0  0
  2 16  1  0  0  0  0
  2 17  1  0  0  0  0
 14  3  1  1  0  0  0
  3 22  1  0  0  0  0
 15  4  1  1  0  0  0
  4 23  1  0  0  0  0
  5 18  1  0  0  0  0
  5 26  1  0  0  0  0
  6 22  2  0  0  0  0
  7 23  2  0  0  0  0
  8 26  2  0  0  0  0
  9 30  2  0  0  0  0
 16 10  1  6  0  0  0
 10 19  1  0  0  0  0
 10 20  1  0  0  0  0
 11 20  2  0  0  0  0
 11 21  1  0  0  0  0
 12 19  1  0  0  0  0
 12 28  2  0  0  0  0
 13 24  2  0  0  0  0
 13 28  1  0  0  0  0
 14 15  1  0  0  0  0
 14 16  1  0  0  0  0
 14 31  1  0  0  0  0
 15 17  1  0  0  0  0
 15 32  1  0  0  0  0
 16 33  1  0  0  0  0
 17 18  1  6  0  0  0
 17 34  1  0  0  0  0
 18 35  1  0  0  0  0
 18 36  1  0  0  0  0
 19 21  2  0  0  0  0
 20 37  1  0  0  0  0
 21 24  1  0  0  0  0
 22 25  1  0  0  0  0
 23 27  1  0  0  0  0
 25 38  1  0  0  0  0
 25 39  1  0  0  0  0
 25 40  1  0  0  0  0
 26 29  1  0  0  0  0
 27 41  1  0  0  0  0
 27 42  1  0  0  0  0
 27 43  1  0  0  0  0
 28 30  1  0  0  0  0
 29 44  1  0  0  0  0
 29 45  1  0  0  0  0
 29 46  1  0  0  0  0
 30 47  1  0  0  0  0
M  END
> <PUBCHEM_COMPOUND_CID>
504743
> <PUBCHEM_COMPOUND_CANONICALIZED>
1
> <PUBCHEM_CACTVS_COMPLEXITY>
697
> <PUBCHEM_CACTVS_HBOND_ACCEPTOR>
11
> <PUBCHEM_CACTVS_HBOND_DONOR>
0
> <PUBCHEM_CACTVS_ROTATABLE_BOND>
9
> <PUBCHEM_CACTVS_SUBSKEYS>
AAADceB7vAAEAAAAAAAAAAAAAAAAAWJAAAAsAAAAAAAAAFgB+AAAHgIAAAAACB7hlyYH+L8MFACoAQ7x7ACAgC0TFKABUCC4VhCDSAJAyGBfBAgPAALSACDwMAoAAAAAAAAAAAAAAAAAAAAAAAAAAAAAAA==
> <PUBCHEM_IUPAC_OPENEYE_NAME>
[(2R,3R,4R,5R)-3,4-diacetoxy-5-(6-chloro-2-formyl-purin-9-yl)tetrahydrofuran-2-yl]methyl acetate
> <PUBCHEM_IUPAC_CAS_NAME>
acetic acid [(2R,3R,4R,5R)-3,4-diacetyloxy-5-(6-chloro-2-formyl-9-purinyl)-2-oxolanyl]methyl ester
> <PUBCHEM_IUPAC_NAME_MARKUP>
[(2<I>R</I>,3<I>R</I>,4<I>R</I>,5<I>R</I>)-3,4-diacetyloxy-5-(6-chloro-2-formylpurin-9-yl)oxolan-2-yl]methyl acetate
> <PUBCHEM_IUPAC_NAME>
[(2R,3R,4R,5R)-3,4-diacetyloxy-5-(6-chloro-2-formylpurin-9-yl)oxolan-2-yl]methyl acetate
> <PUBCHEM_IUPAC_SYSTEMATIC_NAME>
[(2R,3R,4R,5R)-3,4-diacetyloxy-5-(6-chloranyl-2-methanoyl-purin-9-yl)oxolan-2-yl]methyl ethanoate
> <PUBCHEM_IUPAC_TRADITIONAL_NAME>
acetic acid [(2R,3R,4R,5R)-3,4-diacetoxy-5-(6-chloro-2-formyl-purin-9-yl)tetrahydrofuran-2-yl]methyl ester
> <PUBCHEM_IUPAC_INCHI>
InChI=1S/C17H17ClN4O8/c1-7(24)27-5-10-13(28-8(2)25)14(29-9(3)26)17(30-10)22-6-19-12-15(18)20-11(4-23)21-16(12)22/h4,6,10,13-14,17H,5H2,1-3H3/t10-,13-,14-,17-/m1/s1
> <PUBCHEM_IUPAC_INCHIKEY>
UBCRHODHXCMQLJ-IWCJZZDYSA-N
> <PUBCHEM_XLOGP3_AA>
0.4
> <PUBCHEM_EXACT_MASS>
440.0734912
> <PUBCHEM_MOLECULAR_FORMULA>
C17H17ClN4O8
> <PUBCHEM_MOLECULAR_WEIGHT>
440.8
> <PUBCHEM_OPENEYE_CAN_SMILES>
CC(=O)OCC1C(C(C(O1)N2C=NC3=C2N=C(N=C3Cl)C=O)OC(=O)C)OC(=O)C
> <PUBCHEM_OPENEYE_ISO_SMILES>
CC(=O)OC[C@@H]1[C@H]([C@H]([C@@H](O1)N2C=NC3=C2N=C(N=C3Cl)C=O)OC(=O)C)OC(=O)C
> <PUBCHEM_CACTVS_TPSA>
149
> <PUBCHEM_MONOISOTOPIC_WEIGHT>
440.0734912
> <PUBCHEM_TOTAL_CHARGE>
0
> <PUBCHEM_HEAVY_ATOM_COUNT>
30
> <PUBCHEM_ATOM_DEF_STEREO_COUNT>
4
> <PUBCHEM_ATOM_UDEF_STEREO_COUNT>
0
> <PUBCHEM_BOND_DEF_STEREO_COUNT>
0
> <PUBCHEM_BOND_UDEF_STEREO_COUNT>
0
> <PUBCHEM_ISOTOPIC_ATOM_COUNT>
0
> <PUBCHEM_COMPONENT_COUNT>
1
> <PUBCHEM_CACTVS_TAUTO_COUNT>
-1
> <PUBCHEM_COORDINATE_TYPE>
1
5
255
> <PUBCHEM_BONDANNOTATIONS>
16  10  6
10  19  8
10  20  8
11  20  8
11  21  8
12  19  8
12  28  8
13  24  8
13  28  8
17  18  6
19  21  8
21  24  8
14  3  5
15  4  5
$$$$
