504726
  -OEChem-10302200282D
 73 77  0     1  0  0  0  0  0999 V2000
    6.5422   -1.9860    0.0000 O   0  0  0  0  0  0  0  0  0  0  0  0
    5.5972   -1.5245    0.0000 O   0  0  0  0  0  0  0  0  0  0  0  0
    6.3243    1.0822    0.0000 O   0  0  0  0  0  0  0  0  0  0  0  0
    5.8027   -3.5523    0.0000 O   0  0  0  0  0  0  0  0  0  0  0  0
    7.4262    4.1702    0.0000 O   0  0  0  0  0  0  0  0  0  0  0  0
    7.5289   -3.4095    0.0000 O   0  0  0  0  0  0  0  0  0  0  0  0
   10.5195    2.8014    0.0000 O   0  0  0  0  0  0  0  0  0  0  0  0
    4.6270   -0.0897    0.0000 O   0  0  0  0  0  0  0  0  0  0  0  0
    2.8993   -0.2124    0.0000 N   0  0  0  0  0  0  0  0  0  0  0  0
    8.2201   -0.8229    0.0000 C   0  0  1  0  0  0  0  0  0  0  0  0
    7.3640   -1.4163    0.0000 C   0  0  1  0  0  0  0  0  0  0  0  0
    8.3063   -1.8615    0.0000 C   0  0  0  0  0  0  0  0  0  0  0  0
    8.1263    0.2145    0.0000 C   0  0  1  0  0  0  0  0  0  0  0  0
    6.4256   -0.9644    0.0000 C   0  0  1  0  0  0  0  0  0  0  0  0
    7.2253    0.6483    0.0000 C   0  0  1  0  0  0  0  0  0  0  0  0
    6.3557    0.0749    0.0000 C   0  0  2  0  0  0  0  0  0  0  0  0
    9.3029   -1.7790    0.0000 C   0  0  0  0  0  0  0  0  0  0  0  0
    7.8794   -2.7657    0.0000 C   0  0  0  0  0  0  0  0  0  0  0  0
    7.0028    1.6233    0.0000 C   0  0  1  0  0  0  0  0  0  0  0  0
    9.0272    0.6483    0.0000 C   0  0  0  0  0  0  0  0  0  0  0  0
    7.6263    2.4051    0.0000 C   0  0  2  0  0  0  0  0  0  0  0  0
    5.3577    0.0117    0.0000 C   0  0  0  0  0  0  0  0  0  0  0  0
    9.2498    1.6233    0.0000 C   0  0  0  0  0  0  0  0  0  0  0  0
    8.6263    2.4051    0.0000 C   0  0  0  0  0  0  0  0  0  0  0  0
    6.0730    1.9750    0.0000 C   0  0  0  0  0  0  0  0  0  0  0  0
    7.0765    3.2333    0.0000 C   0  0  0  0  0  0  0  0  0  0  0  0
    6.6246   -2.9826    0.0000 C   0  0  0  0  0  0  0  0  0  0  0  0
    6.1185    2.9680    0.0000 C   0  0  0  0  0  0  0  0  0  0  0  0
    4.6979   -1.0872    0.0000 C   0  0  0  0  0  0  0  0  0  0  0  0
   10.2247    1.8458    0.0000 C   0  0  0  0  0  0  0  0  0  0  0  0
    5.3366    3.5915    0.0000 C   0  0  0  0  0  0  0  0  0  0  0  0
    3.8695   -1.6473    0.0000 C   0  0  0  0  0  0  0  0  0  0  0  0
    2.9702   -1.2099    0.0000 C   0  0  0  0  0  0  0  0  0  0  0  0
    3.9404   -2.6448    0.0000 C   0  0  0  0  0  0  0  0  0  0  0  0
    2.1418   -1.7701    0.0000 C   0  0  0  0  0  0  0  0  0  0  0  0
    3.1120   -3.2049    0.0000 C   0  0  0  0  0  0  0  0  0  0  0  0
    2.2127   -2.7676    0.0000 C   0  0  0  0  0  0  0  0  0  0  0  0
    2.0000    0.2249    0.0000 C   0  0  0  0  0  0  0  0  0  0  0  0
    9.0670   -0.7495    0.0000 H   0  0  0  0  0  0  0  0  0  0  0  0
    8.8657   -0.2048    0.0000 H   0  0  0  0  0  0  0  0  0  0  0  0
    5.8685   -0.6921    0.0000 H   0  0  0  0  0  0  0  0  0  0  0  0
    6.1589    0.6628    0.0000 H   0  0  0  0  0  0  0  0  0  0  0  0
    9.3540   -2.3969    0.0000 H   0  0  0  0  0  0  0  0  0  0  0  0
    9.9208   -1.7279    0.0000 H   0  0  0  0  0  0  0  0  0  0  0  0
    9.2518   -1.1611    0.0000 H   0  0  0  0  0  0  0  0  0  0  0  0
    7.3187   -2.5011    0.0000 H   0  0  0  0  0  0  0  0  0  0  0  0
    7.6147   -3.3264    0.0000 H   0  0  0  0  0  0  0  0  0  0  0  0
    8.4400   -3.0304    0.0000 H   0  0  0  0  0  0  0  0  0  0  0  0
    7.8315    1.4341    0.0000 H   0  0  0  0  0  0  0  0  0  0  0  0
    9.5120    0.2618    0.0000 H   0  0  0  0  0  0  0  0  0  0  0  0
    8.0281    3.1541    0.0000 H   0  0  0  0  0  0  0  0  0  0  0  0
    5.3186    0.6305    0.0000 H   0  0  0  0  0  0  0  0  0  0  0  0
    4.7390   -0.0275    0.0000 H   0  0  0  0  0  0  0  0  0  0  0  0
    5.3969   -0.6070    0.0000 H   0  0  0  0  0  0  0  0  0  0  0  0
    5.7061    1.0359    0.0000 H   0  0  0  0  0  0  0  0  0  0  0  0
    9.1849    2.6741    0.0000 H   0  0  0  0  0  0  0  0  0  0  0  0
    8.4883    3.0096    0.0000 H   0  0  0  0  0  0  0  0  0  0  0  0
    5.5550    1.6343    0.0000 H   0  0  0  0  0  0  0  0  0  0  0  0
   10.2556    1.2266    0.0000 H   0  0  0  0  0  0  0  0  0  0  0  0
   10.8399    1.7687    0.0000 H   0  0  0  0  0  0  0  0  0  0  0  0
    5.7232    4.0762    0.0000 H   0  0  0  0  0  0  0  0  0  0  0  0
    4.8519    3.9781    0.0000 H   0  0  0  0  0  0  0  0  0  0  0  0
    4.9501    3.1068    0.0000 H   0  0  0  0  0  0  0  0  0  0  0  0
    5.8538   -4.1702    0.0000 H   0  0  0  0  0  0  0  0  0  0  0  0
   11.1239    2.9393    0.0000 H   0  0  0  0  0  0  0  0  0  0  0  0
    4.4979   -2.9159    0.0000 H   0  0  0  0  0  0  0  0  0  0  0  0
    1.5842   -1.4989    0.0000 H   0  0  0  0  0  0  0  0  0  0  0  0
    3.1559   -3.8233    0.0000 H   0  0  0  0  0  0  0  0  0  0  0  0
    3.4129    0.1348    0.0000 H   0  0  0  0  0  0  0  0  0  0  0  0
    1.6990   -3.1148    0.0000 H   0  0  0  0  0  0  0  0  0  0  0  0
    2.2712    0.7825    0.0000 H   0  0  0  0  0  0  0  0  0  0  0  0
    1.4424    0.4961    0.0000 H   0  0  0  0  0  0  0  0  0  0  0  0
    1.7288   -0.3327    0.0000 H   0  0  0  0  0  0  0  0  0  0  0  0
 11  1  1  1  0  0  0
  1 27  1  0  0  0  0
 14  2  1  6  0  0  0
  2 29  1  0  0  0  0
 15  3  1  1  0  0  0
  3 55  1  0  0  0  0
  4 27  1  0  0  0  0
  4 64  1  0  0  0  0
  5 26  2  0  0  0  0
  6 27  2  0  0  0  0
  7 30  1  0  0  0  0
  7 65  1  0  0  0  0
  8 29  2  0  0  0  0
  9 33  1  0  0  0  0
  9 38  1  0  0  0  0
  9 69  1  0  0  0  0
 10 11  1  0  0  0  0
 10 12  1  0  0  0  0
 10 13  1  0  0  0  0
 10 39  1  1  0  0  0
 11 12  1  0  0  0  0
 11 14  1  0  0  0  0
 12 17  1  0  0  0  0
 12 18  1  0  0  0  0
 13 15  1  0  0  0  0
 13 20  1  0  0  0  0
 13 40  1  6  0  0  0
 14 16  1  0  0  0  0
 14 41  1  0  0  0  0
 15 16  1  0  0  0  0
 15 19  1  0  0  0  0
 16 22  1  1  0  0  0
 16 42  1  0  0  0  0
 17 43  1  0  0  0  0
 17 44  1  0  0  0  0
 17 45  1  0  0  0  0
 18 46  1  0  0  0  0
 18 47  1  0  0  0  0
 18 48  1  0  0  0  0
 19 21  1  0  0  0  0
 19 25  1  0  0  0  0
 19 49  1  1  0  0  0
 20 23  2  0  0  0  0
 20 50  1  0  0  0  0
 21 24  1  0  0  0  0
 21 26  1  0  0  0  0
 21 51  1  6  0  0  0
 22 52  1  0  0  0  0
 22 53  1  0  0  0  0
 22 54  1  0  0  0  0
 23 24  1  0  0  0  0
 23 30  1  0  0  0  0
 24 56  1  0  0  0  0
 24 57  1  0  0  0  0
 25 28  2  0  0  0  0
 25 58  1  0  0  0  0
 26 28  1  0  0  0  0
 28 31  1  0  0  0  0
 29 32  1  0  0  0  0
 30 59  1  0  0  0  0
 30 60  1  0  0  0  0
 31 61  1  0  0  0  0
 31 62  1  0  0  0  0
 31 63  1  0  0  0  0
 32 33  1  0  0  0  0
 32 34  2  0  0  0  0
 33 35  2  0  0  0  0
 34 36  1  0  0  0  0
 34 66  1  0  0  0  0
 35 37  1  0  0  0  0
 35 67  1  0  0  0  0
 36 37  2  0  0  0  0
 36 68  1  0  0  0  0
 37 70  1  0  0  0  0
 38 71  1  0  0  0  0
 38 72  1  0  0  0  0
 38 73  1  0  0  0  0
M  END
> <PUBCHEM_COMPOUND_CID>
504726
> <PUBCHEM_COMPOUND_CANONICALIZED>
1
> <PUBCHEM_CACTVS_COMPLEXITY>
1100
> <PUBCHEM_CACTVS_HBOND_ACCEPTOR>
9
> <PUBCHEM_CACTVS_HBOND_DONOR>
4
> <PUBCHEM_CACTVS_ROTATABLE_BOND>
7
> <PUBCHEM_CACTVS_SUBSKEYS>
AAADcfB6PAAAAAAAAAAAAAAAGAAAAQAAAAAwYAAABggAAACBAAAAHgAQCAAAD1yhmAYyyILABgCIAqTSSACCAAAlAgAIiIEIbMgZNjrAtZmGcYhn0AFO+cfa7PyPgAAAAAACAADCAAYQADSAAAAAAAAAAA==
> <PUBCHEM_IUPAC_OPENEYE_NAME>
[(1R,2R,6S,10S,11R,13S,14R,15R)-13-carboxyoxy-1-hydroxy-8-(hydroxymethyl)-4,12,12,15-tetramethyl-5-oxo-14-tetracyclo[8.5.0.02,6.011,13]pentadeca-3,8-dienyl] 2-(methylamino)benzoate
> <PUBCHEM_IUPAC_CAS_NAME>
2-(methylamino)benzoic acid [(1R,2R,6S,10S,11R,13S,14R,15R)-13-carboxyoxy-1-hydroxy-8-(hydroxymethyl)-4,12,12,15-tetramethyl-5-oxo-14-tetracyclo[8.5.0.02,6.011,13]pentadeca-3,8-dienyl] ester
> <PUBCHEM_IUPAC_NAME_MARKUP>
[(1<I>R</I>,2<I>R</I>,6<I>S</I>,10<I>S</I>,11<I>R</I>,13<I>S</I>,14<I>R</I>,15<I>R</I>)-13-carboxyoxy-1-hydroxy-8-(hydroxymethyl)-4,12,12,15-tetramethyl-5-oxo-14-tetracyclo[8.5.0.0<SUP>2,6</SUP>.0<SUP>11,13</SUP>]pentadeca-3,8-dienyl] 2-(methylamino)benzoate
> <PUBCHEM_IUPAC_NAME>
[(1R,2R,6S,10S,11R,13S,14R,15R)-13-carboxyoxy-1-hydroxy-8-(hydroxymethyl)-4,12,12,15-tetramethyl-5-oxo-14-tetracyclo[8.5.0.02,6.011,13]pentadeca-3,8-dienyl] 2-(methylamino)benzoate
> <PUBCHEM_IUPAC_SYSTEMATIC_NAME>
[(1R,2R,6S,10S,11R,13S,14R,15R)-13-carboxyoxy-8-(hydroxymethyl)-4,12,12,15-tetramethyl-1-oxidanyl-5-oxidanylidene-14-tetracyclo[8.5.0.02,6.011,13]pentadeca-3,8-dienyl] 2-(methylamino)benzoate
> <PUBCHEM_IUPAC_TRADITIONAL_NAME>
2-(methylamino)benzoic acid [(1R,2R,6S,10S,11R,13S,14R,15R)-13-carboxyoxy-1-hydroxy-5-keto-4,12,12,15-tetramethyl-8-methylol-14-tetracyclo[8.5.0.02,6.011,13]pentadeca-3,8-dienyl] ester
> <PUBCHEM_IUPAC_INCHI>
InChI=1S/C29H35NO8/c1-14-10-19-18(22(14)32)11-16(13-31)12-20-23-27(3,4)29(23,38-26(34)35)24(15(2)28(19,20)36)37-25(33)17-8-6-7-9-21(17)30-5/h6-10,12,15,18-20,23-24,30-31,36H,11,13H2,1-5H3,(H,34,35)/t15-,18+,19-,20+,23-,24-,28+,29-/m1/s1
> <PUBCHEM_IUPAC_INCHIKEY>
NMHNZQQDENEUKB-NMPNPDGGSA-N
> <PUBCHEM_XLOGP3_AA>
3.3
> <PUBCHEM_EXACT_MASS>
525.23626707
> <PUBCHEM_MOLECULAR_FORMULA>
C29H35NO8
> <PUBCHEM_MOLECULAR_WEIGHT>
525.6
> <PUBCHEM_OPENEYE_CAN_SMILES>
CC1C(C2(C(C2(C)C)C3C1(C4C=C(C(=O)C4CC(=C3)CO)C)O)OC(=O)O)OC(=O)C5=CC=CC=C5NC
> <PUBCHEM_OPENEYE_ISO_SMILES>
C[C@@H]1[C@H]([C@@]2([C@@H](C2(C)C)[C@H]3[C@]1([C@@H]4C=C(C(=O)[C@H]4CC(=C3)CO)C)O)OC(=O)O)OC(=O)C5=CC=CC=C5NC
> <PUBCHEM_CACTVS_TPSA>
142
> <PUBCHEM_MONOISOTOPIC_WEIGHT>
525.23626707
> <PUBCHEM_TOTAL_CHARGE>
0
> <PUBCHEM_HEAVY_ATOM_COUNT>
38
> <PUBCHEM_ATOM_DEF_STEREO_COUNT>
8
> <PUBCHEM_ATOM_UDEF_STEREO_COUNT>
0
> <PUBCHEM_BOND_DEF_STEREO_COUNT>
0
> <PUBCHEM_BOND_UDEF_STEREO_COUNT>
0
> <PUBCHEM_ISOTOPIC_ATOM_COUNT>
0
> <PUBCHEM_COMPONENT_COUNT>
1
> <PUBCHEM_CACTVS_TAUTO_COUNT>
-1
> <PUBCHEM_COORDINATE_TYPE>
1
5
255
> <PUBCHEM_BONDANNOTATIONS>
11  1  5
10  39  5
13  40  6
16  22  5
19  49  5
14  2  6
21  51  6
15  3  5
32  33  8
32  34  8
33  35  8
34  36  8
35  37  8
36  37  8
$$$$
