504766
  -OEChem-10302200282D
 95 96  0     1  0  0  0  0  0999 V2000
    2.8660    1.7500    0.0000 S   0  0  0  0  0  0  0  0  0  0  0  0
    8.0622   -2.2500    0.0000 O   0  0  0  0  0  0  0  0  0  0  0  0
    5.4641    0.2500    0.0000 O   0  0  0  0  0  0  0  0  0  0  0  0
    8.9282    2.2500    0.0000 O   0  0  0  0  0  0  0  0  0  0  0  0
    6.3301    3.7500    0.0000 O   0  0  0  0  0  0  0  0  0  0  0  0
   10.6603   -2.7500    0.0000 O   0  0  0  0  0  0  0  0  0  0  0  0
    8.9282   -2.7500    0.0000 O   0  0  0  0  0  0  0  0  0  0  0  0
    7.1962   -0.7500    0.0000 N   0  0  0  0  0  0  0  0  0  0  0  0
    6.3301    1.7500    0.0000 N   0  0  0  0  0  0  0  0  0  0  0  0
    9.7942   -1.2500    0.0000 N   0  0  0  0  0  0  0  0  0  0  0  0
    4.5981    3.7500    0.0000 N   0  0  0  0  0  0  0  0  0  0  0  0
    7.1962    0.2500    0.0000 C   0  0  1  0  0  0  0  0  0  0  0  0
    8.9282   -0.7500    0.0000 C   0  0  1  0  0  0  0  0  0  0  0  0
    8.9282    0.2500    0.0000 C   0  0  0  0  0  0  0  0  0  0  0  0
    9.7942    0.7500    0.0000 C   0  0  0  0  0  0  0  0  0  0  0  0
    8.0622   -1.2500    0.0000 C   0  0  0  0  0  0  0  0  0  0  0  0
    8.0622    0.7500    0.0000 C   0  0  0  0  0  0  0  0  0  0  0  0
    6.3301   -1.2500    0.0000 C   0  0  0  0  0  0  0  0  0  0  0  0
    6.3301    0.7500    0.0000 C   0  0  0  0  0  0  0  0  0  0  0  0
    5.4641    2.2500    0.0000 C   0  0  1  0  0  0  0  0  0  0  0  0
    4.5981    4.7500    0.0000 C   0  0  0  0  0  0  0  0  0  0  0  0
    4.5981    1.7500    0.0000 C   0  0  0  0  0  0  0  0  0  0  0  0
   10.6603    0.2500    0.0000 C   0  0  0  0  0  0  0  0  0  0  0  0
    9.7942    1.7500    0.0000 C   0  0  0  0  0  0  0  0  0  0  0  0
    8.0622    1.7500    0.0000 C   0  0  0  0  0  0  0  0  0  0  0  0
    5.4641    3.2500    0.0000 C   0  0  0  0  0  0  0  0  0  0  0  0
    6.3301   -2.2500    0.0000 C   0  0  0  0  0  0  0  0  0  0  0  0
    3.7320    2.2500    0.0000 C   0  0  0  0  0  0  0  0  0  0  0  0
    4.5981    5.7500    0.0000 C   0  0  0  0  0  0  0  0  0  0  0  0
    3.5981    4.7500    0.0000 C   0  0  0  0  0  0  0  0  0  0  0  0
    5.5981    4.7500    0.0000 C   0  0  0  0  0  0  0  0  0  0  0  0
    9.7942   -2.2500    0.0000 C   0  0  0  0  0  0  0  0  0  0  0  0
    7.1962   -2.7500    0.0000 C   0  0  0  0  0  0  0  0  0  0  0  0
    5.4641   -2.7500    0.0000 C   0  0  0  0  0  0  0  0  0  0  0  0
    7.1962   -3.7500    0.0000 C   0  0  0  0  0  0  0  0  0  0  0  0
    5.4641   -3.7500    0.0000 C   0  0  0  0  0  0  0  0  0  0  0  0
    6.3301   -4.2500    0.0000 C   0  0  0  0  0  0  0  0  0  0  0  0
   10.6603   -3.7500    0.0000 C   0  0  0  0  0  0  0  0  0  0  0  0
    2.0000    2.2500    0.0000 C   0  0  0  0  0  0  0  0  0  0  0  0
   11.5263   -4.2500    0.0000 C   0  0  0  0  0  0  0  0  0  0  0  0
   11.5263   -5.2500    0.0000 C   0  0  0  0  0  0  0  0  0  0  0  0
   12.3923   -3.7500    0.0000 C   0  0  0  0  0  0  0  0  0  0  0  0
   12.3923   -5.7500    0.0000 C   0  0  0  0  0  0  0  0  0  0  0  0
   13.2583   -4.2500    0.0000 C   0  0  0  0  0  0  0  0  0  0  0  0
   13.2583   -5.2500    0.0000 C   0  0  0  0  0  0  0  0  0  0  0  0
    6.6592   -0.0600    0.0000 H   0  0  0  0  0  0  0  0  0  0  0  0
    9.4651   -0.4400    0.0000 H   0  0  0  0  0  0  0  0  0  0  0  0
    8.7162    0.8326    0.0000 H   0  0  0  0  0  0  0  0  0  0  0  0
    8.3176    0.1423    0.0000 H   0  0  0  0  0  0  0  0  0  0  0  0
    9.2573    1.0600    0.0000 H   0  0  0  0  0  0  0  0  0  0  0  0
    8.2742    0.1674    0.0000 H   0  0  0  0  0  0  0  0  0  0  0  0
    8.6728    0.8577    0.0000 H   0  0  0  0  0  0  0  0  0  0  0  0
    6.1181   -0.6674    0.0000 H   0  0  0  0  0  0  0  0  0  0  0  0
    5.7196   -1.3577    0.0000 H   0  0  0  0  0  0  0  0  0  0  0  0
    5.4641    1.6300    0.0000 H   0  0  0  0  0  0  0  0  0  0  0  0
    6.8671    2.0600    0.0000 H   0  0  0  0  0  0  0  0  0  0  0  0
    4.1996    1.2750    0.0000 H   0  0  0  0  0  0  0  0  0  0  0  0
    4.9966    1.2750    0.0000 H   0  0  0  0  0  0  0  0  0  0  0  0
   10.3312   -0.9400    0.0000 H   0  0  0  0  0  0  0  0  0  0  0  0
   10.3503   -0.2869    0.0000 H   0  0  0  0  0  0  0  0  0  0  0  0
   11.1972   -0.0600    0.0000 H   0  0  0  0  0  0  0  0  0  0  0  0
   10.9703    0.7869    0.0000 H   0  0  0  0  0  0  0  0  0  0  0  0
   10.4142    1.7500    0.0000 H   0  0  0  0  0  0  0  0  0  0  0  0
    9.7942    2.3700    0.0000 H   0  0  0  0  0  0  0  0  0  0  0  0
    9.1742    1.7500    0.0000 H   0  0  0  0  0  0  0  0  0  0  0  0
    7.8501    2.3326    0.0000 H   0  0  0  0  0  0  0  0  0  0  0  0
    7.4516    1.6423    0.0000 H   0  0  0  0  0  0  0  0  0  0  0  0
    4.0611    3.4400    0.0000 H   0  0  0  0  0  0  0  0  0  0  0  0
    4.1306    2.7250    0.0000 H   0  0  0  0  0  0  0  0  0  0  0  0
    3.3335    2.7250    0.0000 H   0  0  0  0  0  0  0  0  0  0  0  0
    5.2181    5.7500    0.0000 H   0  0  0  0  0  0  0  0  0  0  0  0
    4.5981    6.3700    0.0000 H   0  0  0  0  0  0  0  0  0  0  0  0
    3.9781    5.7500    0.0000 H   0  0  0  0  0  0  0  0  0  0  0  0
    3.5981    5.3700    0.0000 H   0  0  0  0  0  0  0  0  0  0  0  0
    2.9781    4.7500    0.0000 H   0  0  0  0  0  0  0  0  0  0  0  0
    3.5981    4.1300    0.0000 H   0  0  0  0  0  0  0  0  0  0  0  0
    5.5981    4.1300    0.0000 H   0  0  0  0  0  0  0  0  0  0  0  0
    6.2181    4.7500    0.0000 H   0  0  0  0  0  0  0  0  0  0  0  0
    5.5981    5.3700    0.0000 H   0  0  0  0  0  0  0  0  0  0  0  0
    7.7331   -2.4400    0.0000 H   0  0  0  0  0  0  0  0  0  0  0  0
    4.9272   -2.4400    0.0000 H   0  0  0  0  0  0  0  0  0  0  0  0
    8.9282    2.8700    0.0000 H   0  0  0  0  0  0  0  0  0  0  0  0
    7.7331   -4.0600    0.0000 H   0  0  0  0  0  0  0  0  0  0  0  0
    4.9272   -4.0600    0.0000 H   0  0  0  0  0  0  0  0  0  0  0  0
    6.3301   -4.8700    0.0000 H   0  0  0  0  0  0  0  0  0  0  0  0
   10.0497   -3.6423    0.0000 H   0  0  0  0  0  0  0  0  0  0  0  0
   10.4482   -4.3326    0.0000 H   0  0  0  0  0  0  0  0  0  0  0  0
    2.3100    2.7869    0.0000 H   0  0  0  0  0  0  0  0  0  0  0  0
    1.4631    2.5600    0.0000 H   0  0  0  0  0  0  0  0  0  0  0  0
    1.6900    1.7131    0.0000 H   0  0  0  0  0  0  0  0  0  0  0  0
   10.9893   -5.5600    0.0000 H   0  0  0  0  0  0  0  0  0  0  0  0
   12.3923   -3.1300    0.0000 H   0  0  0  0  0  0  0  0  0  0  0  0
   12.3923   -6.3700    0.0000 H   0  0  0  0  0  0  0  0  0  0  0  0
   13.7953   -3.9400    0.0000 H   0  0  0  0  0  0  0  0  0  0  0  0
   13.7953   -5.5600    0.0000 H   0  0  0  0  0  0  0  0  0  0  0  0
  1 28  1  0  0  0  0
  1 39  1  0  0  0  0
  2 16  2  0  0  0  0
  3 19  2  0  0  0  0
  4 25  1  0  0  0  0
  4 82  1  0  0  0  0
  5 26  2  0  0  0  0
  6 32  1  0  0  0  0
  6 38  1  0  0  0  0
  7 32  2  0  0  0  0
 12  8  1  6  0  0  0
  8 16  1  0  0  0  0
  8 18  1  0  0  0  0
  9 19  1  0  0  0  0
 20  9  1  1  0  0  0
  9 56  1  0  0  0  0
 13 10  1  6  0  0  0
 10 32  1  0  0  0  0
 10 59  1  0  0  0  0
 11 21  1  0  0  0  0
 11 26  1  0  0  0  0
 11 68  1  0  0  0  0
 12 17  1  0  0  0  0
 12 19  1  0  0  0  0
 12 46  1  0  0  0  0
 13 14  1  0  0  0  0
 13 16  1  0  0  0  0
 13 47  1  0  0  0  0
 14 15  1  0  0  0  0
 14 48  1  0  0  0  0
 14 49  1  0  0  0  0
 15 23  1  0  0  0  0
 15 24  1  0  0  0  0
 15 50  1  0  0  0  0
 17 25  1  0  0  0  0
 17 51  1  0  0  0  0
 17 52  1  0  0  0  0
 18 27  1  0  0  0  0
 18 53  1  0  0  0  0
 18 54  1  0  0  0  0
 20 22  1  0  0  0  0
 20 26  1  0  0  0  0
 20 55  1  0  0  0  0
 21 29  1  0  0  0  0
 21 30  1  0  0  0  0
 21 31  1  0  0  0  0
 22 28  1  0  0  0  0
 22 57  1  0  0  0  0
 22 58  1  0  0  0  0
 23 60  1  0  0  0  0
 23 61  1  0  0  0  0
 23 62  1  0  0  0  0
 24 63  1  0  0  0  0
 24 64  1  0  0  0  0
 24 65  1  0  0  0  0
 25 66  1  0  0  0  0
 25 67  1  0  0  0  0
 27 33  2  0  0  0  0
 27 34  1  0  0  0  0
 28 69  1  0  0  0  0
 28 70  1  0  0  0  0
 29 71  1  0  0  0  0
 29 72  1  0  0  0  0
 29 73  1  0  0  0  0
 30 74  1  0  0  0  0
 30 75  1  0  0  0  0
 30 76  1  0  0  0  0
 31 77  1  0  0  0  0
 31 78  1  0  0  0  0
 31 79  1  0  0  0  0
 33 35  1  0  0  0  0
 33 80  1  0  0  0  0
 34 36  2  0  0  0  0
 34 81  1  0  0  0  0
 35 37  2  0  0  0  0
 35 83  1  0  0  0  0
 36 37  1  0  0  0  0
 36 84  1  0  0  0  0
 37 85  1  0  0  0  0
 38 40  1  0  0  0  0
 38 86  1  0  0  0  0
 38 87  1  0  0  0  0
 39 88  1  0  0  0  0
 39 89  1  0  0  0  0
 39 90  1  0  0  0  0
 40 41  2  0  0  0  0
 40 42  1  0  0  0  0
 41 43  1  0  0  0  0
 41 91  1  0  0  0  0
 42 44  2  0  0  0  0
 42 92  1  0  0  0  0
 43 45  2  0  0  0  0
 43 93  1  0  0  0  0
 44 45  1  0  0  0  0
 44 94  1  0  0  0  0
 45 95  1  0  0  0  0
M  END
> <PUBCHEM_COMPOUND_CID>
504766
> <PUBCHEM_COMPOUND_CANONICALIZED>
1
> <PUBCHEM_CACTVS_COMPLEXITY>
915
> <PUBCHEM_CACTVS_HBOND_ACCEPTOR>
7
> <PUBCHEM_CACTVS_HBOND_DONOR>
4
> <PUBCHEM_CACTVS_ROTATABLE_BOND>
19
> <PUBCHEM_CACTVS_SUBSKEYS>
AAADcfB/uABAAAAAAAAAAAAAAAAAAAAAAAAwYAAAAAAAAAABQAAAHgQQCAAADajl2AayCIPABgiIAiFSGACCAAAgABAIiIGIDIkIdjKgsTmccAhm1gGIqAe6wCAOAAAAAAAAAAAAAAAAAAAAAAAAAAAAAA==
> <PUBCHEM_IUPAC_OPENEYE_NAME>
benzyl N-[(1S)-1-[benzyl-[(1S)-1-[[(1S)-1-(tert-butylcarbamoyl)-3-methylsulfanyl-propyl]carbamoyl]-3-hydroxy-propyl]carbamoyl]-3-methyl-butyl]carbamate
> <PUBCHEM_IUPAC_CAS_NAME>
N-[(2S)-1-[[(2S)-1-[[(2S)-1-(tert-butylamino)-4-(methylthio)-1-oxobutan-2-yl]amino]-4-hydroxy-1-oxobutan-2-yl]-(phenylmethyl)amino]-4-methyl-1-oxopentan-2-yl]carbamic acid (phenylmethyl) ester
> <PUBCHEM_IUPAC_NAME_MARKUP>
benzyl <I>N</I>-[(2<I>S</I>)-1-[benzyl-[(2<I>S</I>)-1-[[(2<I>S</I>)-1-(<I>tert</I>-butylamino)-4-methylsulfanyl-1-oxobutan-2-yl]amino]-4-hydroxy-1-oxobutan-2-yl]amino]-4-methyl-1-oxopentan-2-yl]carbamate
> <PUBCHEM_IUPAC_NAME>
benzyl N-[(2S)-1-[benzyl-[(2S)-1-[[(2S)-1-(tert-butylamino)-4-methylsulfanyl-1-oxobutan-2-yl]amino]-4-hydroxy-1-oxobutan-2-yl]amino]-4-methyl-1-oxopentan-2-yl]carbamate
> <PUBCHEM_IUPAC_SYSTEMATIC_NAME>
(phenylmethyl) N-[(2S)-1-[[(2S)-1-[[(2S)-1-(tert-butylamino)-4-methylsulfanyl-1-oxidanylidene-butan-2-yl]amino]-4-oxidanyl-1-oxidanylidene-butan-2-yl]-(phenylmethyl)amino]-4-methyl-1-oxidanylidene-pentan-2-yl]carbamate
> <PUBCHEM_IUPAC_TRADITIONAL_NAME>
N-[(1S)-1-[benzyl-[(1S)-1-[[(1S)-1-(tert-butylcarbamoyl)-3-(methylthio)propyl]carbamoyl]-3-hydroxy-propyl]carbamoyl]-3-methyl-butyl]carbamic acid benzyl ester
> <PUBCHEM_IUPAC_INCHI>
InChI=1S/C34H50N4O6S/c1-24(2)21-28(36-33(43)44-23-26-15-11-8-12-16-26)32(42)38(22-25-13-9-7-10-14-25)29(17-19-39)31(41)35-27(18-20-45-6)30(40)37-34(3,4)5/h7-16,24,27-29,39H,17-23H2,1-6H3,(H,35,41)(H,36,43)(H,37,40)/t27-,28-,29-/m0/s1
> <PUBCHEM_IUPAC_INCHIKEY>
GREHLHZGAAZPMH-AWCRTANDSA-N
> <PUBCHEM_XLOGP3_AA>
4.6
> <PUBCHEM_EXACT_MASS>
642.34510650
> <PUBCHEM_MOLECULAR_FORMULA>
C34H50N4O6S
> <PUBCHEM_MOLECULAR_WEIGHT>
642.9
> <PUBCHEM_OPENEYE_CAN_SMILES>
CC(C)CC(C(=O)N(CC1=CC=CC=C1)C(CCO)C(=O)NC(CCSC)C(=O)NC(C)(C)C)NC(=O)OCC2=CC=CC=C2
> <PUBCHEM_OPENEYE_ISO_SMILES>
CC(C)C[C@@H](C(=O)N(CC1=CC=CC=C1)[C@@H](CCO)C(=O)N[C@@H](CCSC)C(=O)NC(C)(C)C)NC(=O)OCC2=CC=CC=C2
> <PUBCHEM_CACTVS_TPSA>
162
> <PUBCHEM_MONOISOTOPIC_WEIGHT>
642.34510650
> <PUBCHEM_TOTAL_CHARGE>
0
> <PUBCHEM_HEAVY_ATOM_COUNT>
45
> <PUBCHEM_ATOM_DEF_STEREO_COUNT>
3
> <PUBCHEM_ATOM_UDEF_STEREO_COUNT>
0
> <PUBCHEM_BOND_DEF_STEREO_COUNT>
0
> <PUBCHEM_BOND_UDEF_STEREO_COUNT>
0
> <PUBCHEM_ISOTOPIC_ATOM_COUNT>
0
> <PUBCHEM_COMPONENT_COUNT>
1
> <PUBCHEM_CACTVS_TAUTO_COUNT>
-1
> <PUBCHEM_COORDINATE_TYPE>
1
5
255
> <PUBCHEM_BONDANNOTATIONS>
13  10  6
27  33  8
27  34  8
33  35  8
34  36  8
35  37  8
36  37  8
40  41  8
40  42  8
41  43  8
42  44  8
43  45  8
44  45  8
12  8  6
20  9  5
$$$$
