504764
  -OEChem-10302200282D
 96 98  0     1  0  0  0  0  0999 V2000
    2.9848    1.6595    0.0000 S   0  0  0  0  0  0  0  0  0  0  0  0
    7.5668    1.7310    0.0000 O   0  0  0  0  0  0  0  0  0  0  0  0
    7.1473   -1.3011    0.0000 O   0  0  0  0  0  0  0  0  0  0  0  0
    3.3268    0.7198    0.0000 O   0  0  0  0  0  0  0  0  0  0  0  0
    5.5560    4.7237    0.0000 O   0  0  0  0  0  0  0  0  0  0  0  0
    9.0756   -2.5992    0.0000 O   0  0  0  0  0  0  0  0  0  0  0  0
    7.4480   -2.0068    0.0000 O   0  0  0  0  0  0  0  0  0  0  0  0
    6.2812    0.1989    0.0000 N   0  0  0  0  0  0  0  0  0  0  0  0
    6.2400    2.8443    0.0000 N   0  0  0  0  0  0  0  0  0  0  0  0
    3.9284    4.1313    0.0000 N   0  0  0  0  0  0  0  0  0  0  0  0
    8.7749   -0.8935    0.0000 N   0  0  0  0  0  0  0  0  0  0  0  0
    5.9392    1.1386    0.0000 C   0  0  1  0  0  0  0  0  0  0  0  0
    4.9544    1.3122    0.0000 C   0  0  0  0  0  0  0  0  0  0  0  0
    5.2552    3.0180    0.0000 C   0  0  1  0  0  0  0  0  0  0  0  0
    6.5820    1.9046    0.0000 C   0  0  0  0  0  0  0  0  0  0  0  0
    8.1321   -0.1274    0.0000 C   0  0  2  0  0  0  0  0  0  0  0  0
    5.4152   -0.3011    0.0000 C   0  0  0  0  0  0  0  0  0  0  0  0
    7.1473   -0.3011    0.0000 C   0  0  0  0  0  0  0  0  0  0  0  0
    3.5863    5.0710    0.0000 C   0  0  0  0  0  0  0  0  0  0  0  0
    4.6124    2.2519    0.0000 C   0  0  0  0  0  0  0  0  0  0  0  0
    4.9132    3.9577    0.0000 C   0  0  0  0  0  0  0  0  0  0  0  0
    8.4741    0.8122    0.0000 C   0  0  0  0  0  0  0  0  0  0  0  0
    4.3116    0.5462    0.0000 C   0  0  0  0  0  0  0  0  0  0  0  0
    5.4152   -1.3011    0.0000 C   0  0  0  0  0  0  0  0  0  0  0  0
    3.6276    2.4256    0.0000 C   0  0  0  0  0  0  0  0  0  0  0  0
    3.2443    6.0107    0.0000 C   0  0  0  0  0  0  0  0  0  0  0  0
    2.6466    4.7290    0.0000 C   0  0  0  0  0  0  0  0  0  0  0  0
    4.5260    5.4130    0.0000 C   0  0  0  0  0  0  0  0  0  0  0  0
    9.4589    0.9859    0.0000 C   0  0  0  0  0  0  0  0  0  0  0  0
    6.2812   -1.8011    0.0000 C   0  0  0  0  0  0  0  0  0  0  0  0
    4.5492   -1.8011    0.0000 C   0  0  0  0  0  0  0  0  0  0  0  0
   10.1017    0.2198    0.0000 C   0  0  0  0  0  0  0  0  0  0  0  0
    9.8009    1.9256    0.0000 C   0  0  0  0  0  0  0  0  0  0  0  0
    8.4328   -1.8332    0.0000 C   0  0  0  0  0  0  0  0  0  0  0  0
    6.2812   -2.8011    0.0000 C   0  0  0  0  0  0  0  0  0  0  0  0
    4.5492   -2.8011    0.0000 C   0  0  0  0  0  0  0  0  0  0  0  0
    5.4152   -3.3011    0.0000 C   0  0  0  0  0  0  0  0  0  0  0  0
   11.0865    0.3935    0.0000 C   0  0  0  0  0  0  0  0  0  0  0  0
   10.7857    2.0992    0.0000 C   0  0  0  0  0  0  0  0  0  0  0  0
   11.4285    1.3332    0.0000 C   0  0  0  0  0  0  0  0  0  0  0  0
    2.0000    1.8332    0.0000 C   0  0  0  0  0  0  0  0  0  0  0  0
    8.7336   -3.5389    0.0000 C   0  0  0  0  0  0  0  0  0  0  0  0
    9.3764   -4.3050    0.0000 C   0  0  0  0  0  0  0  0  0  0  0  0
    9.0344   -5.2447    0.0000 C   0  0  0  0  0  0  0  0  0  0  0  0
   10.3612   -4.1313    0.0000 C   0  0  0  0  0  0  0  0  0  0  0  0
    9.6772   -6.0107    0.0000 C   0  0  0  0  0  0  0  0  0  0  0  0
   11.0040   -4.8974    0.0000 C   0  0  0  0  0  0  0  0  0  0  0  0
   10.6620   -5.8371    0.0000 C   0  0  0  0  0  0  0  0  0  0  0  0
    5.5407    0.6636    0.0000 H   0  0  0  0  0  0  0  0  0  0  0  0
    5.1665    1.8948    0.0000 H   0  0  0  0  0  0  0  0  0  0  0  0
    4.4175    1.6222    0.0000 H   0  0  0  0  0  0  0  0  0  0  0  0
    5.4672    2.4354    0.0000 H   0  0  0  0  0  0  0  0  0  0  0  0
    7.9200   -0.7101    0.0000 H   0  0  0  0  0  0  0  0  0  0  0  0
    5.2032    0.2815    0.0000 H   0  0  0  0  0  0  0  0  0  0  0  0
    4.8046   -0.4088    0.0000 H   0  0  0  0  0  0  0  0  0  0  0  0
    6.6385    3.3193    0.0000 H   0  0  0  0  0  0  0  0  0  0  0  0
    4.4004    1.6693    0.0000 H   0  0  0  0  0  0  0  0  0  0  0  0
    5.1493    1.9419    0.0000 H   0  0  0  0  0  0  0  0  0  0  0  0
    8.4741    1.4322    0.0000 H   0  0  0  0  0  0  0  0  0  0  0  0
    7.8635    0.9199    0.0000 H   0  0  0  0  0  0  0  0  0  0  0  0
    4.0996   -0.0364    0.0000 H   0  0  0  0  0  0  0  0  0  0  0  0
    4.8486    0.2362    0.0000 H   0  0  0  0  0  0  0  0  0  0  0  0
    3.5298    3.6564    0.0000 H   0  0  0  0  0  0  0  0  0  0  0  0
    3.8396    3.0082    0.0000 H   0  0  0  0  0  0  0  0  0  0  0  0
    3.0907    2.7356    0.0000 H   0  0  0  0  0  0  0  0  0  0  0  0
    3.8269    6.2228    0.0000 H   0  0  0  0  0  0  0  0  0  0  0  0
    3.0323    6.5933    0.0000 H   0  0  0  0  0  0  0  0  0  0  0  0
    2.6617    5.7986    0.0000 H   0  0  0  0  0  0  0  0  0  0  0  0
    2.4346    5.3116    0.0000 H   0  0  0  0  0  0  0  0  0  0  0  0
    2.0640    4.5169    0.0000 H   0  0  0  0  0  0  0  0  0  0  0  0
    2.8587    4.1464    0.0000 H   0  0  0  0  0  0  0  0  0  0  0  0
    4.7381    4.8304    0.0000 H   0  0  0  0  0  0  0  0  0  0  0  0
    5.1086    5.6251    0.0000 H   0  0  0  0  0  0  0  0  0  0  0  0
    4.3140    5.9956    0.0000 H   0  0  0  0  0  0  0  0  0  0  0  0
    9.3854   -0.7858    0.0000 H   0  0  0  0  0  0  0  0  0  0  0  0
    6.8182   -1.4911    0.0000 H   0  0  0  0  0  0  0  0  0  0  0  0
    4.0123   -1.4911    0.0000 H   0  0  0  0  0  0  0  0  0  0  0  0
    9.8896   -0.3628    0.0000 H   0  0  0  0  0  0  0  0  0  0  0  0
    9.4024    2.4005    0.0000 H   0  0  0  0  0  0  0  0  0  0  0  0
    2.9283    0.2449    0.0000 H   0  0  0  0  0  0  0  0  0  0  0  0
    6.8182   -3.1111    0.0000 H   0  0  0  0  0  0  0  0  0  0  0  0
    4.0123   -3.1111    0.0000 H   0  0  0  0  0  0  0  0  0  0  0  0
    5.4152   -3.9211    0.0000 H   0  0  0  0  0  0  0  0  0  0  0  0
   11.4850   -0.0815    0.0000 H   0  0  0  0  0  0  0  0  0  0  0  0
   10.9978    2.6818    0.0000 H   0  0  0  0  0  0  0  0  0  0  0  0
   12.0391    1.4408    0.0000 H   0  0  0  0  0  0  0  0  0  0  0  0
    2.1077    2.4438    0.0000 H   0  0  0  0  0  0  0  0  0  0  0  0
    1.3894    1.9408    0.0000 H   0  0  0  0  0  0  0  0  0  0  0  0
    1.8923    1.2226    0.0000 H   0  0  0  0  0  0  0  0  0  0  0  0
    8.1967   -3.2289    0.0000 H   0  0  0  0  0  0  0  0  0  0  0  0
    8.3351   -4.0139    0.0000 H   0  0  0  0  0  0  0  0  0  0  0  0
    8.4238   -5.3523    0.0000 H   0  0  0  0  0  0  0  0  0  0  0  0
   10.5733   -3.5487    0.0000 H   0  0  0  0  0  0  0  0  0  0  0  0
    9.4651   -6.5933    0.0000 H   0  0  0  0  0  0  0  0  0  0  0  0
   11.6146   -4.7897    0.0000 H   0  0  0  0  0  0  0  0  0  0  0  0
   11.0605   -6.3120    0.0000 H   0  0  0  0  0  0  0  0  0  0  0  0
  1 25  1  0  0  0  0
  1 41  1  0  0  0  0
  2 15  2  0  0  0  0
  3 18  2  0  0  0  0
  4 23  1  0  0  0  0
  4 80  1  0  0  0  0
  5 21  2  0  0  0  0
  6 34  1  0  0  0  0
  6 42  1  0  0  0  0
  7 34  2  0  0  0  0
 12  8  1  1  0  0  0
  8 17  1  0  0  0  0
  8 18  1  0  0  0  0
 14  9  1  1  0  0  0
  9 15  1  0  0  0  0
  9 56  1  0  0  0  0
 10 19  1  0  0  0  0
 10 21  1  0  0  0  0
 10 63  1  0  0  0  0
 16 11  1  6  0  0  0
 11 34  1  0  0  0  0
 11 75  1  0  0  0  0
 12 13  1  0  0  0  0
 12 15  1  0  0  0  0
 12 49  1  0  0  0  0
 13 23  1  0  0  0  0
 13 50  1  0  0  0  0
 13 51  1  0  0  0  0
 14 20  1  0  0  0  0
 14 21  1  0  0  0  0
 14 52  1  0  0  0  0
 16 18  1  0  0  0  0
 16 22  1  0  0  0  0
 16 53  1  0  0  0  0
 17 24  1  0  0  0  0
 17 54  1  0  0  0  0
 17 55  1  0  0  0  0
 19 26  1  0  0  0  0
 19 27  1  0  0  0  0
 19 28  1  0  0  0  0
 20 25  1  0  0  0  0
 20 57  1  0  0  0  0
 20 58  1  0  0  0  0
 22 29  1  0  0  0  0
 22 59  1  0  0  0  0
 22 60  1  0  0  0  0
 23 61  1  0  0  0  0
 23 62  1  0  0  0  0
 24 30  2  0  0  0  0
 24 31  1  0  0  0  0
 25 64  1  0  0  0  0
 25 65  1  0  0  0  0
 26 66  1  0  0  0  0
 26 67  1  0  0  0  0
 26 68  1  0  0  0  0
 27 69  1  0  0  0  0
 27 70  1  0  0  0  0
 27 71  1  0  0  0  0
 28 72  1  0  0  0  0
 28 73  1  0  0  0  0
 28 74  1  0  0  0  0
 29 32  2  0  0  0  0
 29 33  1  0  0  0  0
 30 35  1  0  0  0  0
 30 76  1  0  0  0  0
 31 36  2  0  0  0  0
 31 77  1  0  0  0  0
 32 38  1  0  0  0  0
 32 78  1  0  0  0  0
 33 39  2  0  0  0  0
 33 79  1  0  0  0  0
 35 37  2  0  0  0  0
 35 81  1  0  0  0  0
 36 37  1  0  0  0  0
 36 82  1  0  0  0  0
 37 83  1  0  0  0  0
 38 40  2  0  0  0  0
 38 84  1  0  0  0  0
 39 40  1  0  0  0  0
 39 85  1  0  0  0  0
 40 86  1  0  0  0  0
 41 87  1  0  0  0  0
 41 88  1  0  0  0  0
 41 89  1  0  0  0  0
 42 43  1  0  0  0  0
 42 90  1  0  0  0  0
 42 91  1  0  0  0  0
 43 44  2  0  0  0  0
 43 45  1  0  0  0  0
 44 46  1  0  0  0  0
 44 92  1  0  0  0  0
 45 47  2  0  0  0  0
 45 93  1  0  0  0  0
 46 48  2  0  0  0  0
 46 94  1  0  0  0  0
 47 48  1  0  0  0  0
 47 95  1  0  0  0  0
 48 96  1  0  0  0  0
M  END
> <PUBCHEM_COMPOUND_CID>
504764
> <PUBCHEM_COMPOUND_CANONICALIZED>
1
> <PUBCHEM_CACTVS_COMPLEXITY>
989
> <PUBCHEM_CACTVS_HBOND_ACCEPTOR>
7
> <PUBCHEM_CACTVS_HBOND_DONOR>
4
> <PUBCHEM_CACTVS_ROTATABLE_BOND>
19
> <PUBCHEM_CACTVS_SUBSKEYS>
AAADcfB/uABAAAAAAAAAAAAAAAAAAAAAAAAwYMAAAAAAAAABUAAAHgQQCAAADKjl2AayCIPABgiIAiFSGACCAAAgABAIiIGIDIkIdjKgsTmccAhm1gGIqAe6yKCOAAAAAAAAAAAAAAAAAAAAAAAAAAAAAA==
> <PUBCHEM_IUPAC_OPENEYE_NAME>
benzyl N-[(1S)-1-benzyl-2-[benzyl-[(1S)-1-[[(1S)-1-(tert-butylcarbamoyl)-3-methylsulfanyl-propyl]carbamoyl]-3-hydroxy-propyl]amino]-2-oxo-ethyl]carbamate
> <PUBCHEM_IUPAC_CAS_NAME>
N-[(2S)-1-[[(2S)-1-[[(2S)-1-(tert-butylamino)-4-(methylthio)-1-oxobutan-2-yl]amino]-4-hydroxy-1-oxobutan-2-yl]-(phenylmethyl)amino]-1-oxo-3-phenylpropan-2-yl]carbamic acid (phenylmethyl) ester
> <PUBCHEM_IUPAC_NAME_MARKUP>
benzyl <I>N</I>-[(2<I>S</I>)-1-[benzyl-[(2<I>S</I>)-1-[[(2<I>S</I>)-1-(<I>tert</I>-butylamino)-4-methylsulfanyl-1-oxobutan-2-yl]amino]-4-hydroxy-1-oxobutan-2-yl]amino]-1-oxo-3-phenylpropan-2-yl]carbamate
> <PUBCHEM_IUPAC_NAME>
benzyl N-[(2S)-1-[benzyl-[(2S)-1-[[(2S)-1-(tert-butylamino)-4-methylsulfanyl-1-oxobutan-2-yl]amino]-4-hydroxy-1-oxobutan-2-yl]amino]-1-oxo-3-phenylpropan-2-yl]carbamate
> <PUBCHEM_IUPAC_SYSTEMATIC_NAME>
(phenylmethyl) N-[(2S)-1-[[(2S)-1-[[(2S)-1-(tert-butylamino)-4-methylsulfanyl-1-oxidanylidene-butan-2-yl]amino]-4-oxidanyl-1-oxidanylidene-butan-2-yl]-(phenylmethyl)amino]-1-oxidanylidene-3-phenyl-propan-2-yl]carbamate
> <PUBCHEM_IUPAC_TRADITIONAL_NAME>
N-[(1S)-1-benzyl-2-[benzyl-[(1S)-1-[[(1S)-1-(tert-butylcarbamoyl)-3-(methylthio)propyl]carbamoyl]-3-hydroxy-propyl]amino]-2-keto-ethyl]carbamic acid benzyl ester
> <PUBCHEM_IUPAC_INCHI>
InChI=1S/C37H48N4O6S/c1-37(2,3)40-33(43)30(21-23-48-4)38-34(44)32(20-22-42)41(25-28-16-10-6-11-17-28)35(45)31(24-27-14-8-5-9-15-27)39-36(46)47-26-29-18-12-7-13-19-29/h5-19,30-32,42H,20-26H2,1-4H3,(H,38,44)(H,39,46)(H,40,43)/t30-,31-,32-/m0/s1
> <PUBCHEM_IUPAC_INCHIKEY>
MLXNMFRVMAIEBM-CPCREDONSA-N
> <PUBCHEM_XLOGP3_AA>
4.9
> <PUBCHEM_EXACT_MASS>
676.32945644
> <PUBCHEM_MOLECULAR_FORMULA>
C37H48N4O6S
> <PUBCHEM_MOLECULAR_WEIGHT>
676.9
> <PUBCHEM_OPENEYE_CAN_SMILES>
CC(C)(C)NC(=O)C(CCSC)NC(=O)C(CCO)N(CC1=CC=CC=C1)C(=O)C(CC2=CC=CC=C2)NC(=O)OCC3=CC=CC=C3
> <PUBCHEM_OPENEYE_ISO_SMILES>
CC(C)(C)NC(=O)[C@H](CCSC)NC(=O)[C@H](CCO)N(CC1=CC=CC=C1)C(=O)[C@H](CC2=CC=CC=C2)NC(=O)OCC3=CC=CC=C3
> <PUBCHEM_CACTVS_TPSA>
162
> <PUBCHEM_MONOISOTOPIC_WEIGHT>
676.32945644
> <PUBCHEM_TOTAL_CHARGE>
0
> <PUBCHEM_HEAVY_ATOM_COUNT>
48
> <PUBCHEM_ATOM_DEF_STEREO_COUNT>
3
> <PUBCHEM_ATOM_UDEF_STEREO_COUNT>
0
> <PUBCHEM_BOND_DEF_STEREO_COUNT>
0
> <PUBCHEM_BOND_UDEF_STEREO_COUNT>
0
> <PUBCHEM_ISOTOPIC_ATOM_COUNT>
0
> <PUBCHEM_COMPONENT_COUNT>
1
> <PUBCHEM_CACTVS_TAUTO_COUNT>
-1
> <PUBCHEM_COORDINATE_TYPE>
1
5
255
> <PUBCHEM_BONDANNOTATIONS>
16  11  6
24  30  8
24  31  8
29  32  8
29  33  8
30  35  8
31  36  8
32  38  8
33  39  8
35  37  8
36  37  8
38  40  8
39  40  8
43  44  8
43  45  8
44  46  8
45  47  8
46  48  8
47  48  8
12  8  5
14  9  5
$$$$
