504740
  -OEChem-10302200282D
 33 35  0     1  0  0  0  0  0999 V2000
    2.0000   -0.8284    0.0000 I   0  0  0  0  0  0  0  0  0  0  0  0
    5.2686    0.7369    0.0000 O   0  0  0  0  0  0  0  0  0  0  0  0
    7.6146   -0.3550    0.0000 O   0  0  0  0  0  0  0  0  0  0  0  0
    7.6183    1.8206    0.0000 O   0  0  0  0  0  0  0  0  0  0  0  0
    6.2208    3.2384    0.0000 O   0  0  0  0  0  0  0  0  0  0  0  0
    3.7320   -3.8284    0.0000 O   0  0  0  0  0  0  0  0  0  0  0  0
    5.5443   -1.0237    0.0000 N   0  0  0  0  0  0  0  0  0  0  0  0
    3.7320   -0.8284    0.0000 N   0  0  0  0  0  0  0  0  0  0  0  0
    5.5443   -2.6332    0.0000 N   0  0  0  0  0  0  0  0  0  0  0  0
    2.8660   -2.3284    0.0000 N   0  0  0  0  0  0  0  0  0  0  0  0
    5.8550   -0.0732    0.0000 C   0  0  1  0  0  0  0  0  0  0  0  0
    6.8066    0.2342    0.0000 C   0  0  1  0  0  0  0  0  0  0  0  0
    6.8083    1.2342    0.0000 C   0  0  1  0  0  0  0  0  0  0  0  0
    5.8578    1.5449    0.0000 C   0  0  1  0  0  0  0  0  0  0  0  0
    5.5504    2.4964    0.0000 C   0  0  0  0  0  0  0  0  0  0  0  0
    4.5981   -1.3284    0.0000 C   0  0  0  0  0  0  0  0  0  0  0  0
    6.1279   -1.8284    0.0000 C   0  0  0  0  0  0  0  0  0  0  0  0
    4.5981   -2.3284    0.0000 C   0  0  0  0  0  0  0  0  0  0  0  0
    2.8660   -1.3284    0.0000 C   0  0  3  0  0  0  0  0  0  0  0  0
    3.7320   -2.8284    0.0000 C   0  0  0  0  0  0  0  0  0  0  0  0
    6.2926   -0.5123    0.0000 H   0  0  0  0  0  0  0  0  0  0  0  0
    7.3595    0.5147    0.0000 H   0  0  0  0  0  0  0  0  0  0  0  0
    6.7124    1.8467    0.0000 H   0  0  0  0  0  0  0  0  0  0  0  0
    5.2456    1.6429    0.0000 H   0  0  0  0  0  0  0  0  0  0  0  0
    5.1695    2.9857    0.0000 H   0  0  0  0  0  0  0  0  0  0  0  0
    5.0025    2.2063    0.0000 H   0  0  0  0  0  0  0  0  0  0  0  0
    6.7479   -1.8284    0.0000 H   0  0  0  0  0  0  0  0  0  0  0  0
    8.1814   -0.1038    0.0000 H   0  0  0  0  0  0  0  0  0  0  0  0
    8.1843    1.5674    0.0000 H   0  0  0  0  0  0  0  0  0  0  0  0
    3.7320   -0.2084    0.0000 H   0  0  0  0  0  0  0  0  0  0  0  0
    2.8660   -0.7084    0.0000 H   0  0  0  0  0  0  0  0  0  0  0  0
    2.3291   -2.6384    0.0000 H   0  0  0  0  0  0  0  0  0  0  0  0
    6.0302    3.8284    0.0000 H   0  0  0  0  0  0  0  0  0  0  0  0
  1 19  1  0  0  0  0
  2 11  1  0  0  0  0
  2 14  1  0  0  0  0
 12  3  1  1  0  0  0
  3 28  1  0  0  0  0
 13  4  1  1  0  0  0
  4 29  1  0  0  0  0
  5 15  1  0  0  0  0
  5 33  1  0  0  0  0
  6 20  2  0  0  0  0
 11  7  1  6  0  0  0
  7 16  1  0  0  0  0
  7 17  1  0  0  0  0
  8 16  1  0  0  0  0
  8 19  1  0  0  0  0
  8 30  1  0  0  0  0
  9 17  2  0  0  0  0
  9 18  1  0  0  0  0
 10 19  1  0  0  0  0
 10 20  1  0  0  0  0
 10 32  1  0  0  0  0
 11 12  1  0  0  0  0
 11 21  1  0  0  0  0
 12 13  1  0  0  0  0
 12 22  1  0  0  0  0
 13 14  1  0  0  0  0
 13 23  1  0  0  0  0
 14 15  1  6  0  0  0
 14 24  1  0  0  0  0
 15 25  1  0  0  0  0
 15 26  1  0  0  0  0
 16 18  2  0  0  0  0
 17 27  1  0  0  0  0
 18 20  1  0  0  0  0
 19 31  1  0  0  0  0
M  END
> <PUBCHEM_COMPOUND_CID>
504740
> <PUBCHEM_COMPOUND_CANONICALIZED>
1
> <PUBCHEM_CACTVS_COMPLEXITY>
402
> <PUBCHEM_CACTVS_HBOND_ACCEPTOR>
7
> <PUBCHEM_CACTVS_HBOND_DONOR>
5
> <PUBCHEM_CACTVS_ROTATABLE_BOND>
2
> <PUBCHEM_CACTVS_SUBSKEYS>
AAADccBzuAAAAgAAAAAAAAAAAAAAAWJAAAAsAAAAAAAAAFgBgAAAHgAwCAAACBzhlgYFsBfMFgCoAQdxdACAgC0XEKABUIGoVECDWApAyCAeQIgPAwLTAGDwMAIAAAAAAAAAAAAAAAAAAAAAAAAAAAAAAA==
> <PUBCHEM_IUPAC_OPENEYE_NAME>
9-[(2R,3R,4S,5R)-3,4-dihydroxy-5-(hydroxymethyl)tetrahydrofuran-2-yl]-2-iodo-2,3-dihydro-1H-purin-6-one
> <PUBCHEM_IUPAC_CAS_NAME>
9-[(2R,3R,4S,5R)-3,4-dihydroxy-5-(hydroxymethyl)-2-oxolanyl]-2-iodo-2,3-dihydro-1H-purin-6-one
> <PUBCHEM_IUPAC_NAME_MARKUP>
9-[(2<I>R</I>,3<I>R</I>,4<I>S</I>,5<I>R</I>)-3,4-dihydroxy-5-(hydroxymethyl)oxolan-2-yl]-2-iodo-2,3-dihydro-1<I>H</I>-purin-6-one
> <PUBCHEM_IUPAC_NAME>
9-[(2R,3R,4S,5R)-3,4-dihydroxy-5-(hydroxymethyl)oxolan-2-yl]-2-iodo-2,3-dihydro-1H-purin-6-one
> <PUBCHEM_IUPAC_SYSTEMATIC_NAME>
9-[(2R,3R,4S,5R)-5-(hydroxymethyl)-3,4-bis(oxidanyl)oxolan-2-yl]-2-iodanyl-2,3-dihydro-1H-purin-6-one
> <PUBCHEM_IUPAC_TRADITIONAL_NAME>
9-[(2R,3R,4S,5R)-3,4-dihydroxy-5-methylol-tetrahydrofuran-2-yl]-2-iodo-2,3-dihydro-1H-purin-6-one
> <PUBCHEM_IUPAC_INCHI>
InChI=1S/C10H13IN4O5/c11-10-13-7-4(8(19)14-10)12-2-15(7)9-6(18)5(17)3(1-16)20-9/h2-3,5-6,9-10,13,16-18H,1H2,(H,14,19)/t3-,5-,6-,9-,10?/m1/s1
> <PUBCHEM_IUPAC_INCHIKEY>
DLJYDXHEWDCECD-RVISBKTGSA-N
> <PUBCHEM_XLOGP3>
-0.1
> <PUBCHEM_EXACT_MASS>
395.99307
> <PUBCHEM_MOLECULAR_FORMULA>
C10H13IN4O5
> <PUBCHEM_MOLECULAR_WEIGHT>
396.14
> <PUBCHEM_OPENEYE_CAN_SMILES>
C1=NC2=C(N1C3C(C(C(O3)CO)O)O)NC(NC2=O)I
> <PUBCHEM_OPENEYE_ISO_SMILES>
C1=NC2=C(N1[C@H]3[C@@H]([C@@H]([C@H](O3)CO)O)O)NC(NC2=O)I
> <PUBCHEM_CACTVS_TPSA>
129
> <PUBCHEM_MONOISOTOPIC_WEIGHT>
395.99307
> <PUBCHEM_TOTAL_CHARGE>
0
> <PUBCHEM_HEAVY_ATOM_COUNT>
20
> <PUBCHEM_ATOM_DEF_STEREO_COUNT>
4
> <PUBCHEM_ATOM_UDEF_STEREO_COUNT>
1
> <PUBCHEM_BOND_DEF_STEREO_COUNT>
0
> <PUBCHEM_BOND_UDEF_STEREO_COUNT>
0
> <PUBCHEM_ISOTOPIC_ATOM_COUNT>
0
> <PUBCHEM_COMPONENT_COUNT>
1
> <PUBCHEM_CACTVS_TAUTO_COUNT>
-1
> <PUBCHEM_COORDINATE_TYPE>
1
5
255
> <PUBCHEM_BONDANNOTATIONS>
19  1  3
14  15  6
16  18  8
12  3  5
13  4  5
11  7  6
7  16  8
7  17  8
9  17  8
9  18  8
$$$$
