504818
  -OEChem-10302200282D
 47 48  0     1  0  0  0  0  0999 V2000
    4.2690    1.5950    0.0000 O   0  0  0  0  0  0  0  0  0  0  0  0
    6.8671    0.0950    0.0000 O   0  0  0  0  0  0  0  0  0  0  0  0
    3.4030   -0.9050    0.0000 O   0  0  0  0  0  0  0  0  0  0  0  0
   10.3312    3.0950    0.0000 O   0  0  0  0  0  0  0  0  0  0  0  0
   10.3312    5.0950    0.0000 O   0  0  0  0  0  0  0  0  0  0  0  0
    2.5369   -4.4050    0.0000 O   0  0  0  0  0  0  0  0  0  0  0  0
    4.2690   -5.4050    0.0000 O   0  0  0  0  0  0  0  0  0  0  0  0
    6.0010    1.5950    0.0000 N   0  0  0  0  0  0  0  0  0  0  0  0
    5.1350   -0.9050    0.0000 N   0  0  0  0  0  0  0  0  0  0  0  0
    5.1350    0.0950    0.0000 C   0  0  2  0  0  0  0  0  0  0  0  0
    6.8671    2.0950    0.0000 C   0  0  0  0  0  0  0  0  0  0  0  0
    6.8671    3.0950    0.0000 C   0  0  0  0  0  0  0  0  0  0  0  0
    6.0010    0.5950    0.0000 C   0  0  0  0  0  0  0  0  0  0  0  0
    7.7331    3.5950    0.0000 C   0  0  0  0  0  0  0  0  0  0  0  0
    4.2690    0.5950    0.0000 C   0  0  0  0  0  0  0  0  0  0  0  0
    8.5991    3.0950    0.0000 C   0  0  0  0  0  0  0  0  0  0  0  0
    7.7331    4.5950    0.0000 C   0  0  0  0  0  0  0  0  0  0  0  0
    4.2690   -1.4050    0.0000 C   0  0  0  0  0  0  0  0  0  0  0  0
    4.2690   -2.4050    0.0000 C   0  0  0  0  0  0  0  0  0  0  0  0
    9.4651    3.5950    0.0000 C   0  0  0  0  0  0  0  0  0  0  0  0
    8.5991    5.0950    0.0000 C   0  0  0  0  0  0  0  0  0  0  0  0
    9.4651    4.5950    0.0000 C   0  0  0  0  0  0  0  0  0  0  0  0
    3.4030   -2.9050    0.0000 C   0  0  0  0  0  0  0  0  0  0  0  0
    5.1350   -2.9050    0.0000 C   0  0  0  0  0  0  0  0  0  0  0  0
    3.4030   -3.9050    0.0000 C   0  0  0  0  0  0  0  0  0  0  0  0
    5.1350   -3.9050    0.0000 C   0  0  0  0  0  0  0  0  0  0  0  0
    4.2690   -4.4050    0.0000 C   0  0  0  0  0  0  0  0  0  0  0  0
    5.6720   -0.2150    0.0000 H   0  0  0  0  0  0  0  0  0  0  0  0
    7.0791    1.5124    0.0000 H   0  0  0  0  0  0  0  0  0  0  0  0
    7.4776    2.2027    0.0000 H   0  0  0  0  0  0  0  0  0  0  0  0
    6.6550    3.6776    0.0000 H   0  0  0  0  0  0  0  0  0  0  0  0
    6.2565    2.9873    0.0000 H   0  0  0  0  0  0  0  0  0  0  0  0
    5.4641    1.9050    0.0000 H   0  0  0  0  0  0  0  0  0  0  0  0
    3.6584    0.7027    0.0000 H   0  0  0  0  0  0  0  0  0  0  0  0
    4.0569    0.0124    0.0000 H   0  0  0  0  0  0  0  0  0  0  0  0
    5.6720   -1.2150    0.0000 H   0  0  0  0  0  0  0  0  0  0  0  0
    8.5991    2.4750    0.0000 H   0  0  0  0  0  0  0  0  0  0  0  0
    7.1962    4.9050    0.0000 H   0  0  0  0  0  0  0  0  0  0  0  0
    8.5991    5.7150    0.0000 H   0  0  0  0  0  0  0  0  0  0  0  0
    2.8660   -2.5950    0.0000 H   0  0  0  0  0  0  0  0  0  0  0  0
    5.6720   -2.5950    0.0000 H   0  0  0  0  0  0  0  0  0  0  0  0
    3.7320    1.9050    0.0000 H   0  0  0  0  0  0  0  0  0  0  0  0
    5.6720   -4.2150    0.0000 H   0  0  0  0  0  0  0  0  0  0  0  0
   10.8681    3.4050    0.0000 H   0  0  0  0  0  0  0  0  0  0  0  0
   10.3312    5.7150    0.0000 H   0  0  0  0  0  0  0  0  0  0  0  0
    2.0000   -4.0950    0.0000 H   0  0  0  0  0  0  0  0  0  0  0  0
    4.8059   -5.7150    0.0000 H   0  0  0  0  0  0  0  0  0  0  0  0
  1 15  1  0  0  0  0
  1 42  1  0  0  0  0
  2 13  2  0  0  0  0
  3 18  2  0  0  0  0
  4 20  1  0  0  0  0
  4 44  1  0  0  0  0
  5 22  1  0  0  0  0
  5 45  1  0  0  0  0
  6 25  1  0  0  0  0
  6 46  1  0  0  0  0
  7 27  1  0  0  0  0
  7 47  1  0  0  0  0
  8 11  1  0  0  0  0
  8 13  1  0  0  0  0
  8 33  1  0  0  0  0
 10  9  1  1  0  0  0
  9 18  1  0  0  0  0
  9 36  1  0  0  0  0
 10 13  1  0  0  0  0
 10 15  1  0  0  0  0
 10 28  1  0  0  0  0
 11 12  1  0  0  0  0
 11 29  1  0  0  0  0
 11 30  1  0  0  0  0
 12 14  1  0  0  0  0
 12 31  1  0  0  0  0
 12 32  1  0  0  0  0
 14 16  2  0  0  0  0
 14 17  1  0  0  0  0
 15 34  1  0  0  0  0
 15 35  1  0  0  0  0
 16 20  1  0  0  0  0
 16 37  1  0  0  0  0
 17 21  2  0  0  0  0
 17 38  1  0  0  0  0
 18 19  1  0  0  0  0
 19 23  2  0  0  0  0
 19 24  1  0  0  0  0
 20 22  2  0  0  0  0
 21 22  1  0  0  0  0
 21 39  1  0  0  0  0
 23 25  1  0  0  0  0
 23 40  1  0  0  0  0
 24 26  2  0  0  0  0
 24 41  1  0  0  0  0
 25 27  2  0  0  0  0
 26 27  1  0  0  0  0
 26 43  1  0  0  0  0
M  END
> <PUBCHEM_COMPOUND_CID>
504818
> <PUBCHEM_COMPOUND_CANONICALIZED>
1
> <PUBCHEM_CACTVS_COMPLEXITY>
504
> <PUBCHEM_CACTVS_HBOND_ACCEPTOR>
7
> <PUBCHEM_CACTVS_HBOND_DONOR>
7
> <PUBCHEM_CACTVS_ROTATABLE_BOND>
7
> <PUBCHEM_CACTVS_SUBSKEYS>
AAADceB7OAAAAAAAAAAAAAAAAAAAAAAAAAAwYAAAAAAAAAABQAAAHgAQCAAADCzhmAYwBoLAAgCIAiFSEACCAAAkIAAIiIGOjMgLdjaClTOUcQlm9hGZmYe63LLOIAABAAAAQABAAAIAAACAAAAAAAAAAA==
> <PUBCHEM_IUPAC_OPENEYE_NAME>
N-[(1S)-2-[2-(3,4-dihydroxyphenyl)ethylamino]-1-(hydroxymethyl)-2-oxo-ethyl]-3,4-dihydroxy-benzamide
> <PUBCHEM_IUPAC_CAS_NAME>
N-[(2S)-1-[2-(3,4-dihydroxyphenyl)ethylamino]-3-hydroxy-1-oxopropan-2-yl]-3,4-dihydroxybenzamide
> <PUBCHEM_IUPAC_NAME_MARKUP>
<I>N</I>-[(2<I>S</I>)-1-[2-(3,4-dihydroxyphenyl)ethylamino]-3-hydroxy-1-oxopropan-2-yl]-3,4-dihydroxybenzamide
> <PUBCHEM_IUPAC_NAME>
N-[(2S)-1-[2-(3,4-dihydroxyphenyl)ethylamino]-3-hydroxy-1-oxopropan-2-yl]-3,4-dihydroxybenzamide
> <PUBCHEM_IUPAC_SYSTEMATIC_NAME>
N-[(2S)-1-[2-[3,4-bis(oxidanyl)phenyl]ethylamino]-3-oxidanyl-1-oxidanylidene-propan-2-yl]-3,4-bis(oxidanyl)benzamide
> <PUBCHEM_IUPAC_TRADITIONAL_NAME>
N-[(1S)-2-[2-(3,4-dihydroxyphenyl)ethylamino]-2-keto-1-methylol-ethyl]-3,4-dihydroxy-benzamide
> <PUBCHEM_IUPAC_INCHI>
InChI=1S/C18H20N2O7/c21-9-12(20-17(26)11-2-4-14(23)16(25)8-11)18(27)19-6-5-10-1-3-13(22)15(24)7-10/h1-4,7-8,12,21-25H,5-6,9H2,(H,19,27)(H,20,26)/t12-/m0/s1
> <PUBCHEM_IUPAC_INCHIKEY>
ZUNJKYNMUIWKMR-LBPRGKRZSA-N
> <PUBCHEM_XLOGP3_AA>
0.4
> <PUBCHEM_EXACT_MASS>
376.12705098
> <PUBCHEM_MOLECULAR_FORMULA>
C18H20N2O7
> <PUBCHEM_MOLECULAR_WEIGHT>
376.4
> <PUBCHEM_OPENEYE_CAN_SMILES>
C1=CC(=C(C=C1CCNC(=O)C(CO)NC(=O)C2=CC(=C(C=C2)O)O)O)O
> <PUBCHEM_OPENEYE_ISO_SMILES>
C1=CC(=C(C=C1CCNC(=O)[C@H](CO)NC(=O)C2=CC(=C(C=C2)O)O)O)O
> <PUBCHEM_CACTVS_TPSA>
159
> <PUBCHEM_MONOISOTOPIC_WEIGHT>
376.12705098
> <PUBCHEM_TOTAL_CHARGE>
0
> <PUBCHEM_HEAVY_ATOM_COUNT>
27
> <PUBCHEM_ATOM_DEF_STEREO_COUNT>
1
> <PUBCHEM_ATOM_UDEF_STEREO_COUNT>
0
> <PUBCHEM_BOND_DEF_STEREO_COUNT>
0
> <PUBCHEM_BOND_UDEF_STEREO_COUNT>
0
> <PUBCHEM_ISOTOPIC_ATOM_COUNT>
0
> <PUBCHEM_COMPONENT_COUNT>
1
> <PUBCHEM_CACTVS_TAUTO_COUNT>
-1
> <PUBCHEM_COORDINATE_TYPE>
1
5
255
> <PUBCHEM_BONDANNOTATIONS>
14  16  8
14  17  8
16  20  8
17  21  8
19  23  8
19  24  8
20  22  8
21  22  8
23  25  8
24  26  8
25  27  8
26  27  8
10  9  5
$$$$
