504848
  -OEChem-10302200282D
 86 90  0     1  0  0  0  0  0999 V2000
    4.4718    0.8651    0.0000 O   0  0  0  0  0  0  0  0  0  0  0  0
    7.7126   -1.8689    0.0000 O   0  0  0  0  0  0  0  0  0  0  0  0
    6.8466    1.6311    0.0000 O   0  0  0  0  0  0  0  0  0  0  0  0
    4.2486   -2.8689    0.0000 O   0  0  0  0  0  0  0  0  0  0  0  0
    7.7126   -4.8689    0.0000 O   0  0  0  0  0  0  0  0  0  0  0  0
   11.1768    1.1311    0.0000 O   0  0  0  0  0  0  0  0  0  0  0  0
   11.1768    3.1311    0.0000 O   0  0  0  0  0  0  0  0  0  0  0  0
    5.1146    2.6311    0.0000 N   0  0  0  0  0  0  0  0  0  0  0  0
    7.7126    0.1311    0.0000 N   0  0  0  0  0  0  0  0  0  0  0  0
    5.9806   -1.8689    0.0000 N   0  0  0  0  0  0  0  0  0  0  0  0
    4.4718    3.3971    0.0000 C   0  0  0  0  0  0  0  0  0  0  0  0
    3.8290    4.1632    0.0000 C   0  0  0  0  0  0  0  0  0  0  0  0
    5.2378    4.0399    0.0000 C   0  0  0  0  0  0  0  0  0  0  0  0
    3.7058    2.7544    0.0000 C   0  0  0  0  0  0  0  0  0  0  0  0
    5.9806    1.1311    0.0000 C   0  0  0  0  0  0  0  0  0  0  0  0
    5.9806    0.1311    0.0000 C   0  0  0  0  0  0  0  0  0  0  0  0
    5.1146    1.6311    0.0000 C   0  0  0  0  0  0  0  0  0  0  0  0
    6.8466   -0.3689    0.0000 C   0  0  1  0  0  0  0  0  0  0  0  0
    4.1710    5.1029    0.0000 C   0  0  0  0  0  0  0  0  0  0  0  0
    6.1775    3.6979    0.0000 C   0  0  0  0  0  0  0  0  0  0  0  0
    3.8794    1.7695    0.0000 C   0  0  0  0  0  0  0  0  0  0  0  0
    2.8442    3.9895    0.0000 C   0  0  0  0  0  0  0  0  0  0  0  0
    5.0642    5.0247    0.0000 C   0  0  0  0  0  0  0  0  0  0  0  0
    2.7661    3.0964    0.0000 C   0  0  0  0  0  0  0  0  0  0  0  0
    6.8466   -1.3689    0.0000 C   0  0  0  0  0  0  0  0  0  0  0  0
    3.5282    5.8689    0.0000 C   0  0  0  0  0  0  0  0  0  0  0  0
    6.9436    4.3407    0.0000 C   0  0  0  0  0  0  0  0  0  0  0  0
    3.1134    1.1267    0.0000 C   0  0  0  0  0  0  0  0  0  0  0  0
    2.2014    4.7556    0.0000 C   0  0  0  0  0  0  0  0  0  0  0  0
    5.8302    5.6675    0.0000 C   0  0  0  0  0  0  0  0  0  0  0  0
    2.0000    2.4536    0.0000 C   0  0  0  0  0  0  0  0  0  0  0  0
    2.5434    5.6953    0.0000 C   0  0  0  0  0  0  0  0  0  0  0  0
    6.7699    5.3255    0.0000 C   0  0  0  0  0  0  0  0  0  0  0  0
    2.1736    1.4688    0.0000 C   0  0  0  0  0  0  0  0  0  0  0  0
    7.7126    1.1311    0.0000 C   0  0  0  0  0  0  0  0  0  0  0  0
    5.9806   -2.8689    0.0000 C   0  0  0  0  0  0  0  0  0  0  0  0
    8.5787    1.6311    0.0000 C   0  0  0  0  0  0  0  0  0  0  0  0
    5.1146   -3.3689    0.0000 C   0  0  0  0  0  0  0  0  0  0  0  0
    6.8466   -3.3689    0.0000 C   0  0  0  0  0  0  0  0  0  0  0  0
    9.4447    1.1311    0.0000 C   0  0  0  0  0  0  0  0  0  0  0  0
    8.5787    2.6311    0.0000 C   0  0  0  0  0  0  0  0  0  0  0  0
    6.8466   -4.3689    0.0000 C   0  0  0  0  0  0  0  0  0  0  0  0
    5.1146   -4.3689    0.0000 C   0  0  0  0  0  0  0  0  0  0  0  0
   10.3107    1.6311    0.0000 C   0  0  0  0  0  0  0  0  0  0  0  0
    5.9806   -4.8689    0.0000 C   0  0  0  0  0  0  0  0  0  0  0  0
    9.4447    3.1311    0.0000 C   0  0  0  0  0  0  0  0  0  0  0  0
   10.3107    2.6311    0.0000 C   0  0  0  0  0  0  0  0  0  0  0  0
    3.3825   -3.3689    0.0000 C   0  0  0  0  0  0  0  0  0  0  0  0
    7.7126   -5.8689    0.0000 C   0  0  0  0  0  0  0  0  0  0  0  0
    5.6515    2.9411    0.0000 H   0  0  0  0  0  0  0  0  0  0  0  0
    6.5912    1.0234    0.0000 H   0  0  0  0  0  0  0  0  0  0  0  0
    6.1927    1.7137    0.0000 H   0  0  0  0  0  0  0  0  0  0  0  0
    5.3700    0.2387    0.0000 H   0  0  0  0  0  0  0  0  0  0  0  0
    5.7686   -0.4515    0.0000 H   0  0  0  0  0  0  0  0  0  0  0  0
    6.8466    0.2511    0.0000 H   0  0  0  0  0  0  0  0  0  0  0  0
    4.7816    5.2105    0.0000 H   0  0  0  0  0  0  0  0  0  0  0  0
    6.2852    3.0873    0.0000 H   0  0  0  0  0  0  0  0  0  0  0  0
    4.4620    1.5575    0.0000 H   0  0  0  0  0  0  0  0  0  0  0  0
    2.6321    3.4069    0.0000 H   0  0  0  0  0  0  0  0  0  0  0  0
    4.4816    5.2368    0.0000 H   0  0  0  0  0  0  0  0  0  0  0  0
    2.6584    3.7070    0.0000 H   0  0  0  0  0  0  0  0  0  0  0  0
    8.2496   -0.1789    0.0000 H   0  0  0  0  0  0  0  0  0  0  0  0
    3.7403    6.4515    0.0000 H   0  0  0  0  0  0  0  0  0  0  0  0
    7.5262    4.1286    0.0000 H   0  0  0  0  0  0  0  0  0  0  0  0
    3.2210    0.5161    0.0000 H   0  0  0  0  0  0  0  0  0  0  0  0
    1.5908    4.6479    0.0000 H   0  0  0  0  0  0  0  0  0  0  0  0
    5.7226    6.2781    0.0000 H   0  0  0  0  0  0  0  0  0  0  0  0
    1.4174    2.6657    0.0000 H   0  0  0  0  0  0  0  0  0  0  0  0
    2.1449    6.1702    0.0000 H   0  0  0  0  0  0  0  0  0  0  0  0
    7.2449    5.7240    0.0000 H   0  0  0  0  0  0  0  0  0  0  0  0
    1.6987    1.0703    0.0000 H   0  0  0  0  0  0  0  0  0  0  0  0
    5.4437   -1.5589    0.0000 H   0  0  0  0  0  0  0  0  0  0  0  0
    7.3836   -3.0589    0.0000 H   0  0  0  0  0  0  0  0  0  0  0  0
    9.4447    0.5111    0.0000 H   0  0  0  0  0  0  0  0  0  0  0  0
    8.0417    2.9411    0.0000 H   0  0  0  0  0  0  0  0  0  0  0  0
    4.5776   -4.6789    0.0000 H   0  0  0  0  0  0  0  0  0  0  0  0
    5.9806   -5.4889    0.0000 H   0  0  0  0  0  0  0  0  0  0  0  0
    9.4447    3.7511    0.0000 H   0  0  0  0  0  0  0  0  0  0  0  0
    3.0725   -2.8320    0.0000 H   0  0  0  0  0  0  0  0  0  0  0  0
    2.8456   -3.6789    0.0000 H   0  0  0  0  0  0  0  0  0  0  0  0
    3.6925   -3.9058    0.0000 H   0  0  0  0  0  0  0  0  0  0  0  0
   11.7137    1.4411    0.0000 H   0  0  0  0  0  0  0  0  0  0  0  0
   11.1768    3.7511    0.0000 H   0  0  0  0  0  0  0  0  0  0  0  0
    7.0926   -5.8689    0.0000 H   0  0  0  0  0  0  0  0  0  0  0  0
    7.7126   -6.4889    0.0000 H   0  0  0  0  0  0  0  0  0  0  0  0
    8.3326   -5.8689    0.0000 H   0  0  0  0  0  0  0  0  0  0  0  0
  1 17  2  0  0  0  0
  2 25  2  0  0  0  0
  3 35  2  0  0  0  0
  4 38  1  0  0  0  0
  4 48  1  0  0  0  0
  5 42  1  0  0  0  0
  5 49  1  0  0  0  0
  6 44  1  0  0  0  0
  6 82  1  0  0  0  0
  7 47  1  0  0  0  0
  7 83  1  0  0  0  0
  8 11  1  0  0  0  0
  8 17  1  0  0  0  0
  8 50  1  0  0  0  0
 18  9  1  6  0  0  0
  9 35  1  0  0  0  0
  9 62  1  0  0  0  0
 10 25  1  0  0  0  0
 10 36  1  0  0  0  0
 10 72  1  0  0  0  0
 11 12  1  0  0  0  0
 11 13  1  0  0  0  0
 11 14  1  0  0  0  0
 12 19  2  0  0  0  0
 12 22  1  0  0  0  0
 13 20  2  0  0  0  0
 13 23  1  0  0  0  0
 14 21  2  0  0  0  0
 14 24  1  0  0  0  0
 15 16  1  0  0  0  0
 15 17  1  0  0  0  0
 15 51  1  0  0  0  0
 15 52  1  0  0  0  0
 16 18  1  0  0  0  0
 16 53  1  0  0  0  0
 16 54  1  0  0  0  0
 18 25  1  0  0  0  0
 18 55  1  0  0  0  0
 19 26  1  0  0  0  0
 19 56  1  0  0  0  0
 20 27  1  0  0  0  0
 20 57  1  0  0  0  0
 21 28  1  0  0  0  0
 21 58  1  0  0  0  0
 22 29  2  0  0  0  0
 22 59  1  0  0  0  0
 23 30  2  0  0  0  0
 23 60  1  0  0  0  0
 24 31  2  0  0  0  0
 24 61  1  0  0  0  0
 26 32  2  0  0  0  0
 26 63  1  0  0  0  0
 27 33  2  0  0  0  0
 27 64  1  0  0  0  0
 28 34  2  0  0  0  0
 28 65  1  0  0  0  0
 29 32  1  0  0  0  0
 29 66  1  0  0  0  0
 30 33  1  0  0  0  0
 30 67  1  0  0  0  0
 31 34  1  0  0  0  0
 31 68  1  0  0  0  0
 32 69  1  0  0  0  0
 33 70  1  0  0  0  0
 34 71  1  0  0  0  0
 35 37  1  0  0  0  0
 36 38  2  0  0  0  0
 36 39  1  0  0  0  0
 37 40  2  0  0  0  0
 37 41  1  0  0  0  0
 38 43  1  0  0  0  0
 39 42  2  0  0  0  0
 39 73  1  0  0  0  0
 40 44  1  0  0  0  0
 40 74  1  0  0  0  0
 41 46  2  0  0  0  0
 41 75  1  0  0  0  0
 42 45  1  0  0  0  0
 43 45  2  0  0  0  0
 43 76  1  0  0  0  0
 44 47  2  0  0  0  0
 45 77  1  0  0  0  0
 46 47  1  0  0  0  0
 46 78  1  0  0  0  0
 48 79  1  0  0  0  0
 48 80  1  0  0  0  0
 48 81  1  0  0  0  0
 49 84  1  0  0  0  0
 49 85  1  0  0  0  0
 49 86  1  0  0  0  0
M  END
> <PUBCHEM_COMPOUND_CID>
504848
> <PUBCHEM_COMPOUND_CANONICALIZED>
1
> <PUBCHEM_CACTVS_COMPLEXITY>
1010
> <PUBCHEM_CACTVS_HBOND_ACCEPTOR>
7
> <PUBCHEM_CACTVS_HBOND_DONOR>
5
> <PUBCHEM_CACTVS_ROTATABLE_BOND>
13
> <PUBCHEM_CACTVS_SUBSKEYS>
AAADcfB/OAAAAAAAAAAAAAAAAAAAAAAAAAAwYMGDAAAAAAABVAAAHgAQCAAADKzBmAYyxoLABgCIAiVSUACCCAAlIgAIiIGP7MgPZjLGtbuVcSlm1hnZ+Yf+39POoQABAgAAUABCAAIEAACgAAAAAAAAAA==
> <PUBCHEM_IUPAC_OPENEYE_NAME>
(2S)-2-[(3,4-dihydroxybenzoyl)amino]-N-(2,5-dimethoxyphenyl)-N'-trityl-pentanediamide
> <PUBCHEM_IUPAC_CAS_NAME>
(2S)-2-[[(3,4-dihydroxyphenyl)-oxomethyl]amino]-N-(2,5-dimethoxyphenyl)-N'-(triphenylmethyl)pentanediamide
> <PUBCHEM_IUPAC_NAME_MARKUP>
(2<I>S</I>)-2-[(3,4-dihydroxybenzoyl)amino]-<I>N</I>-(2,5-dimethoxyphenyl)-<I>N</I>&apos;-tritylpentanediamide
> <PUBCHEM_IUPAC_NAME>
(2S)-2-[(3,4-dihydroxybenzoyl)amino]-N-(2,5-dimethoxyphenyl)-N'-tritylpentanediamide
> <PUBCHEM_IUPAC_SYSTEMATIC_NAME>
(2S)-2-[[3,4-bis(oxidanyl)phenyl]carbonylamino]-N-(2,5-dimethoxyphenyl)-N'-(triphenylmethyl)pentanediamide
> <PUBCHEM_IUPAC_TRADITIONAL_NAME>
(2S)-N-(2,5-dimethoxyphenyl)-2-(protocatechuoylamino)-N'-trityl-glutaramide
> <PUBCHEM_IUPAC_INCHI>
InChI=1S/C39H37N3O7/c1-48-30-19-22-35(49-2)32(25-30)41-38(47)31(40-37(46)26-18-21-33(43)34(44)24-26)20-23-36(45)42-39(27-12-6-3-7-13-27,28-14-8-4-9-15-28)29-16-10-5-11-17-29/h3-19,21-22,24-25,31,43-44H,20,23H2,1-2H3,(H,40,46)(H,41,47)(H,42,45)/t31-/m0/s1
> <PUBCHEM_IUPAC_INCHIKEY>
HKXKUWBSTIIHIU-HKBQPEDESA-N
> <PUBCHEM_XLOGP3_AA>
5.6
> <PUBCHEM_EXACT_MASS>
659.26315053
> <PUBCHEM_MOLECULAR_FORMULA>
C39H37N3O7
> <PUBCHEM_MOLECULAR_WEIGHT>
659.7
> <PUBCHEM_OPENEYE_CAN_SMILES>
COC1=CC(=C(C=C1)OC)NC(=O)C(CCC(=O)NC(C2=CC=CC=C2)(C3=CC=CC=C3)C4=CC=CC=C4)NC(=O)C5=CC(=C(C=C5)O)O
> <PUBCHEM_OPENEYE_ISO_SMILES>
COC1=CC(=C(C=C1)OC)NC(=O)[C@H](CCC(=O)NC(C2=CC=CC=C2)(C3=CC=CC=C3)C4=CC=CC=C4)NC(=O)C5=CC(=C(C=C5)O)O
> <PUBCHEM_CACTVS_TPSA>
146
> <PUBCHEM_MONOISOTOPIC_WEIGHT>
659.26315053
> <PUBCHEM_TOTAL_CHARGE>
0
> <PUBCHEM_HEAVY_ATOM_COUNT>
49
> <PUBCHEM_ATOM_DEF_STEREO_COUNT>
1
> <PUBCHEM_ATOM_UDEF_STEREO_COUNT>
0
> <PUBCHEM_BOND_DEF_STEREO_COUNT>
0
> <PUBCHEM_BOND_UDEF_STEREO_COUNT>
0
> <PUBCHEM_ISOTOPIC_ATOM_COUNT>
0
> <PUBCHEM_COMPONENT_COUNT>
1
> <PUBCHEM_CACTVS_TAUTO_COUNT>
-1
> <PUBCHEM_COORDINATE_TYPE>
1
5
255
> <PUBCHEM_BONDANNOTATIONS>
12  19  8
12  22  8
13  20  8
13  23  8
14  21  8
14  24  8
19  26  8
20  27  8
21  28  8
22  29  8
23  30  8
24  31  8
26  32  8
27  33  8
28  34  8
29  32  8
30  33  8
31  34  8
36  38  8
36  39  8
37  40  8
37  41  8
38  43  8
39  42  8
40  44  8
41  46  8
42  45  8
43  45  8
44  47  8
46  47  8
18  9  6
$$$$
