504836
  -OEChem-10302200282D
 91 97  0     1  0  0  0  0  0999 V2000
    9.8622    0.3289    0.0000 O   0  0  0  0  0  0  0  0  0  0  0  0
    6.3981   -0.6711    0.0000 O   0  0  0  0  0  0  0  0  0  0  0  0
    4.6660    3.3289    0.0000 O   0  0  0  0  0  0  0  0  0  0  0  0
    2.9176   -0.7057    0.0000 O   0  0  0  0  0  0  0  0  0  0  0  0
   11.5942    5.3289    0.0000 O   0  0  0  0  0  0  0  0  0  0  0  0
    9.8622    6.3289    0.0000 O   0  0  0  0  0  0  0  0  0  0  0  0
    9.1007   -2.1656    0.0000 N   0  0  0  0  0  0  0  0  0  0  0  0
   10.5788   -1.5075    0.0000 N   0  0  0  0  0  0  0  0  0  0  0  0
    7.2641    0.8289    0.0000 N   0  0  0  0  0  0  0  0  0  0  0  0
    8.9962    1.8289    0.0000 N   0  0  0  0  0  0  0  0  0  0  0  0
    4.6660    0.3289    0.0000 N   0  0  0  0  0  0  0  0  0  0  0  0
    8.0485   -3.7858    0.0000 C   0  0  0  0  0  0  0  0  0  0  0  0
    8.3575   -2.8347    0.0000 C   0  0  0  0  0  0  0  0  0  0  0  0
    7.7395   -4.7368    0.0000 C   0  0  0  0  0  0  0  0  0  0  0  0
    8.9996   -4.0948    0.0000 C   0  0  0  0  0  0  0  0  0  0  0  0
    7.0975   -3.4768    0.0000 C   0  0  0  0  0  0  0  0  0  0  0  0
    8.9962   -1.1711    0.0000 C   0  0  0  0  0  0  0  0  0  0  0  0
    8.1301   -0.6711    0.0000 C   0  0  0  0  0  0  0  0  0  0  0  0
    6.7614   -4.9448    0.0000 C   0  0  0  0  0  0  0  0  0  0  0  0
    9.2075   -5.0729    0.0000 C   0  0  0  0  0  0  0  0  0  0  0  0
    6.8896   -2.4985    0.0000 C   0  0  0  0  0  0  0  0  0  0  0  0
    8.4086   -5.4800    0.0000 C   0  0  0  0  0  0  0  0  0  0  0  0
    9.7427   -3.4257    0.0000 C   0  0  0  0  0  0  0  0  0  0  0  0
    6.3544   -4.1459    0.0000 C   0  0  0  0  0  0  0  0  0  0  0  0
    8.1301    0.3289    0.0000 C   0  0  1  0  0  0  0  0  0  0  0  0
   10.0788   -2.3735    0.0000 C   0  0  0  0  0  0  0  0  0  0  0  0
    9.9097   -0.7643    0.0000 C   0  0  0  0  0  0  0  0  0  0  0  0
    6.4524   -5.8958    0.0000 C   0  0  0  0  0  0  0  0  0  0  0  0
   10.1586   -5.3820    0.0000 C   0  0  0  0  0  0  0  0  0  0  0  0
    5.9385   -2.1895    0.0000 C   0  0  0  0  0  0  0  0  0  0  0  0
    8.0996   -6.4310    0.0000 C   0  0  0  0  0  0  0  0  0  0  0  0
   10.6938   -3.7347    0.0000 C   0  0  0  0  0  0  0  0  0  0  0  0
    5.4033   -3.8369    0.0000 C   0  0  0  0  0  0  0  0  0  0  0  0
    8.9962    0.8289    0.0000 C   0  0  0  0  0  0  0  0  0  0  0  0
    7.1215   -6.6389    0.0000 C   0  0  0  0  0  0  0  0  0  0  0  0
   10.9017   -4.7128    0.0000 C   0  0  0  0  0  0  0  0  0  0  0  0
    5.1954   -2.8587    0.0000 C   0  0  0  0  0  0  0  0  0  0  0  0
    6.3981    0.3289    0.0000 C   0  0  0  0  0  0  0  0  0  0  0  0
    9.8622    2.3289    0.0000 C   0  0  0  0  0  0  0  0  0  0  0  0
    5.5321    0.8289    0.0000 C   0  0  0  0  0  0  0  0  0  0  0  0
    9.8622    3.3289    0.0000 C   0  0  0  0  0  0  0  0  0  0  0  0
    5.5321    1.8289    0.0000 C   0  0  0  0  0  0  0  0  0  0  0  0
    3.8000    0.8289    0.0000 C   0  0  0  0  0  0  0  0  0  0  0  0
    3.8000    1.8289    0.0000 C   0  0  0  0  0  0  0  0  0  0  0  0
    4.6660    2.3289    0.0000 C   0  0  0  0  0  0  0  0  0  0  0  0
   10.7282    3.8289    0.0000 C   0  0  0  0  0  0  0  0  0  0  0  0
    8.9962    3.8289    0.0000 C   0  0  0  0  0  0  0  0  0  0  0  0
    2.9061    0.2943    0.0000 C   0  0  0  0  0  0  0  0  0  0  0  0
    2.9061    2.3636    0.0000 C   0  0  0  0  0  0  0  0  0  0  0  0
   10.7282    4.8289    0.0000 C   0  0  0  0  0  0  0  0  0  0  0  0
    8.9962    4.8289    0.0000 C   0  0  0  0  0  0  0  0  0  0  0  0
    2.0000    0.8081    0.0000 C   0  0  0  0  0  0  0  0  0  0  0  0
    2.0000    1.8498    0.0000 C   0  0  0  0  0  0  0  0  0  0  0  0
    9.8622    5.3289    0.0000 C   0  0  0  0  0  0  0  0  0  0  0  0
    8.1253   -2.2599    0.0000 H   0  0  0  0  0  0  0  0  0  0  0  0
    8.8775   -3.1724    0.0000 H   0  0  0  0  0  0  0  0  0  0  0  0
    7.5196   -0.5634    0.0000 H   0  0  0  0  0  0  0  0  0  0  0  0
    7.9181   -1.2537    0.0000 H   0  0  0  0  0  0  0  0  0  0  0  0
    6.3466   -4.4841    0.0000 H   0  0  0  0  0  0  0  0  0  0  0  0
    8.7468   -5.4878    0.0000 H   0  0  0  0  0  0  0  0  0  0  0  0
    7.3503   -2.0837    0.0000 H   0  0  0  0  0  0  0  0  0  0  0  0
    9.0151   -5.3511    0.0000 H   0  0  0  0  0  0  0  0  0  0  0  0
    9.6138   -2.8192    0.0000 H   0  0  0  0  0  0  0  0  0  0  0  0
    6.4832   -4.7524    0.0000 H   0  0  0  0  0  0  0  0  0  0  0  0
    7.5932    0.0189    0.0000 H   0  0  0  0  0  0  0  0  0  0  0  0
   10.3310   -2.9399    0.0000 H   0  0  0  0  0  0  0  0  0  0  0  0
   10.0386   -0.1579    0.0000 H   0  0  0  0  0  0  0  0  0  0  0  0
    5.8460   -6.0248    0.0000 H   0  0  0  0  0  0  0  0  0  0  0  0
   10.2875   -5.9884    0.0000 H   0  0  0  0  0  0  0  0  0  0  0  0
    5.8096   -1.5831    0.0000 H   0  0  0  0  0  0  0  0  0  0  0  0
    8.5145   -6.8918    0.0000 H   0  0  0  0  0  0  0  0  0  0  0  0
   11.1545   -3.3198    0.0000 H   0  0  0  0  0  0  0  0  0  0  0  0
    4.9425   -4.2517    0.0000 H   0  0  0  0  0  0  0  0  0  0  0  0
    7.2641    1.4489    0.0000 H   0  0  0  0  0  0  0  0  0  0  0  0
    6.9299   -7.2286    0.0000 H   0  0  0  0  0  0  0  0  0  0  0  0
   11.4914   -4.9044    0.0000 H   0  0  0  0  0  0  0  0  0  0  0  0
    4.6057   -2.6671    0.0000 H   0  0  0  0  0  0  0  0  0  0  0  0
    8.4592    2.1389    0.0000 H   0  0  0  0  0  0  0  0  0  0  0  0
   10.0742    1.7463    0.0000 H   0  0  0  0  0  0  0  0  0  0  0  0
   10.4728    2.4366    0.0000 H   0  0  0  0  0  0  0  0  0  0  0  0
    4.6660   -0.2911    0.0000 H   0  0  0  0  0  0  0  0  0  0  0  0
    6.0690    2.1389    0.0000 H   0  0  0  0  0  0  0  0  0  0  0  0
   11.2651    3.5189    0.0000 H   0  0  0  0  0  0  0  0  0  0  0  0
    8.4592    3.5189    0.0000 H   0  0  0  0  0  0  0  0  0  0  0  0
    2.9132    2.9836    0.0000 H   0  0  0  0  0  0  0  0  0  0  0  0
    1.4643    0.4961    0.0000 H   0  0  0  0  0  0  0  0  0  0  0  0
    8.4592    5.1389    0.0000 H   0  0  0  0  0  0  0  0  0  0  0  0
    1.4643    2.1618    0.0000 H   0  0  0  0  0  0  0  0  0  0  0  0
    2.3843   -1.0218    0.0000 H   0  0  0  0  0  0  0  0  0  0  0  0
   11.5942    5.9489    0.0000 H   0  0  0  0  0  0  0  0  0  0  0  0
    9.3252    6.6389    0.0000 H   0  0  0  0  0  0  0  0  0  0  0  0
  1 34  2  0  0  0  0
  2 38  2  0  0  0  0
  3 45  2  0  0  0  0
  4 48  1  0  0  0  0
  4 89  1  0  0  0  0
  5 50  1  0  0  0  0
  5 90  1  0  0  0  0
  6 54  1  0  0  0  0
  6 91  1  0  0  0  0
  7 13  1  0  0  0  0
  7 17  1  0  0  0  0
  7 26  1  0  0  0  0
  8 26  2  0  0  0  0
  8 27  1  0  0  0  0
 25  9  1  6  0  0  0
  9 38  1  0  0  0  0
  9 74  1  0  0  0  0
 10 34  1  0  0  0  0
 10 39  1  0  0  0  0
 10 78  1  0  0  0  0
 11 40  1  0  0  0  0
 11 43  1  0  0  0  0
 11 81  1  0  0  0  0
 12 13  1  0  0  0  0
 12 14  1  0  0  0  0
 12 15  1  0  0  0  0
 12 16  1  0  0  0  0
 13 55  1  0  0  0  0
 13 56  1  0  0  0  0
 14 19  2  0  0  0  0
 14 22  1  0  0  0  0
 15 20  2  0  0  0  0
 15 23  1  0  0  0  0
 16 21  2  0  0  0  0
 16 24  1  0  0  0  0
 17 18  1  0  0  0  0
 17 27  2  0  0  0  0
 18 25  1  0  0  0  0
 18 57  1  0  0  0  0
 18 58  1  0  0  0  0
 19 28  1  0  0  0  0
 19 59  1  0  0  0  0
 20 29  1  0  0  0  0
 20 60  1  0  0  0  0
 21 30  1  0  0  0  0
 21 61  1  0  0  0  0
 22 31  2  0  0  0  0
 22 62  1  0  0  0  0
 23 32  2  0  0  0  0
 23 63  1  0  0  0  0
 24 33  2  0  0  0  0
 24 64  1  0  0  0  0
 25 34  1  0  0  0  0
 25 65  1  0  0  0  0
 26 66  1  0  0  0  0
 27 67  1  0  0  0  0
 28 35  2  0  0  0  0
 28 68  1  0  0  0  0
 29 36  2  0  0  0  0
 29 69  1  0  0  0  0
 30 37  2  0  0  0  0
 30 70  1  0  0  0  0
 31 35  1  0  0  0  0
 31 71  1  0  0  0  0
 32 36  1  0  0  0  0
 32 72  1  0  0  0  0
 33 37  1  0  0  0  0
 33 73  1  0  0  0  0
 35 75  1  0  0  0  0
 36 76  1  0  0  0  0
 37 77  1  0  0  0  0
 38 40  1  0  0  0  0
 39 41  1  0  0  0  0
 39 79  1  0  0  0  0
 39 80  1  0  0  0  0
 40 42  2  0  0  0  0
 41 46  2  0  0  0  0
 41 47  1  0  0  0  0
 42 45  1  0  0  0  0
 42 82  1  0  0  0  0
 43 44  2  0  0  0  0
 43 48  1  0  0  0  0
 44 45  1  0  0  0  0
 44 49  1  0  0  0  0
 46 50  1  0  0  0  0
 46 83  1  0  0  0  0
 47 51  2  0  0  0  0
 47 84  1  0  0  0  0
 48 52  2  0  0  0  0
 49 53  2  0  0  0  0
 49 85  1  0  0  0  0
 50 54  2  0  0  0  0
 51 54  1  0  0  0  0
 51 87  1  0  0  0  0
 52 53  1  0  0  0  0
 52 86  1  0  0  0  0
 53 88  1  0  0  0  0
M  END
> <PUBCHEM_COMPOUND_CID>
504836
> <PUBCHEM_COMPOUND_CANONICALIZED>
1
> <PUBCHEM_CACTVS_COMPLEXITY>
1260
> <PUBCHEM_CACTVS_HBOND_ACCEPTOR>
8
> <PUBCHEM_CACTVS_HBOND_DONOR>
6
> <PUBCHEM_CACTVS_ROTATABLE_BOND>
12
> <PUBCHEM_CACTVS_SUBSKEYS>
AAADcfB/uAAAAAAAAAAAAAAAAAAAAWAAAAAwYMGDAAAAAACB1AAAHgAQCAAADizBngQ91pfMEgCoA7V3dACCgC01MqAJ2IG//MiLbjrS3bOUcYls1hPZ2ee+2fKPoAABAAACUABAAAIAAASgAAAAAAAAAA==
> <PUBCHEM_IUPAC_OPENEYE_NAME>
N-[(1S)-2-[(3,4-dihydroxyphenyl)methylamino]-2-oxo-1-[[3-(2,2,2-triphenylethyl)imidazol-4-yl]methyl]ethyl]-8-hydroxy-4-oxo-1H-quinoline-2-carboxamide
> <PUBCHEM_IUPAC_CAS_NAME>
N-[(2S)-1-[(3,4-dihydroxyphenyl)methylamino]-1-oxo-3-[3-(2,2,2-triphenylethyl)-4-imidazolyl]propan-2-yl]-8-hydroxy-4-oxo-1H-quinoline-2-carboxamide
> <PUBCHEM_IUPAC_NAME_MARKUP>
<I>N</I>-[(2<I>S</I>)-1-[(3,4-dihydroxyphenyl)methylamino]-1-oxo-3-[3-(2,2,2-triphenylethyl)imidazol-4-yl]propan-2-yl]-8-hydroxy-4-oxo-1<I>H</I>-quinoline-2-carboxamide
> <PUBCHEM_IUPAC_NAME>
N-[(2S)-1-[(3,4-dihydroxyphenyl)methylamino]-1-oxo-3-[3-(2,2,2-triphenylethyl)imidazol-4-yl]propan-2-yl]-8-hydroxy-4-oxo-1H-quinoline-2-carboxamide
> <PUBCHEM_IUPAC_SYSTEMATIC_NAME>
N-[(2S)-1-[[3,4-bis(oxidanyl)phenyl]methylamino]-1-oxidanylidene-3-[3-(2,2,2-triphenylethyl)imidazol-4-yl]propan-2-yl]-8-oxidanyl-4-oxidanylidene-1H-quinoline-2-carboxamide
> <PUBCHEM_IUPAC_TRADITIONAL_NAME>
8-hydroxy-4-keto-N-[(1S)-2-keto-2-(protocatechuylamino)-1-[[3-(2,2,2-triphenylethyl)imidazol-4-yl]methyl]ethyl]-1H-quinoline-2-carboxamide
> <PUBCHEM_IUPAC_INCHI>
InChI=1S/C43H37N5O6/c49-36-20-19-28(21-39(36)52)24-45-41(53)34(47-42(54)35-23-38(51)33-17-10-18-37(50)40(33)46-35)22-32-25-44-27-48(32)26-43(29-11-4-1-5-12-29,30-13-6-2-7-14-30)31-15-8-3-9-16-31/h1-21,23,25,27,34,49-50,52H,22,24,26H2,(H,45,53)(H,46,51)(H,47,54)/t34-/m0/s1
> <PUBCHEM_IUPAC_INCHIKEY>
QOAJNVIHBYHRJG-UMSFTDKQSA-N
> <PUBCHEM_XLOGP3_AA>
5.9
> <PUBCHEM_EXACT_MASS>
719.27438392
> <PUBCHEM_MOLECULAR_FORMULA>
C43H37N5O6
> <PUBCHEM_MOLECULAR_WEIGHT>
719.8
> <PUBCHEM_OPENEYE_CAN_SMILES>
C1=CC=C(C=C1)C(CN2C=NC=C2CC(C(=O)NCC3=CC(=C(C=C3)O)O)NC(=O)C4=CC(=O)C5=C(N4)C(=CC=C5)O)(C6=CC=CC=C6)C7=CC=CC=C7
> <PUBCHEM_OPENEYE_ISO_SMILES>
C1=CC=C(C=C1)C(CN2C=NC=C2C[C@@H](C(=O)NCC3=CC(=C(C=C3)O)O)NC(=O)C4=CC(=O)C5=C(N4)C(=CC=C5)O)(C6=CC=CC=C6)C7=CC=CC=C7
> <PUBCHEM_CACTVS_TPSA>
166
> <PUBCHEM_MONOISOTOPIC_WEIGHT>
719.27438392
> <PUBCHEM_TOTAL_CHARGE>
0
> <PUBCHEM_HEAVY_ATOM_COUNT>
54
> <PUBCHEM_ATOM_DEF_STEREO_COUNT>
1
> <PUBCHEM_ATOM_UDEF_STEREO_COUNT>
0
> <PUBCHEM_BOND_DEF_STEREO_COUNT>
0
> <PUBCHEM_BOND_UDEF_STEREO_COUNT>
0
> <PUBCHEM_ISOTOPIC_ATOM_COUNT>
0
> <PUBCHEM_COMPONENT_COUNT>
1
> <PUBCHEM_CACTVS_TAUTO_COUNT>
-1
> <PUBCHEM_COORDINATE_TYPE>
1
5
255
> <PUBCHEM_BONDANNOTATIONS>
11  40  8
11  43  8
14  19  8
14  22  8
15  20  8
15  23  8
16  21  8
16  24  8
17  27  8
19  28  8
20  29  8
21  30  8
22  31  8
23  32  8
24  33  8
28  35  8
29  36  8
30  37  8
31  35  8
32  36  8
33  37  8
40  42  8
41  46  8
41  47  8
42  45  8
43  44  8
43  48  8
44  45  8
44  49  8
46  50  8
47  51  8
48  52  8
49  53  8
50  54  8
51  54  8
52  53  8
7  17  8
7  26  8
8  26  8
8  27  8
25  9  6
$$$$
