504865
  -OEChem-10302200282D
 72 74  0     1  0  0  0  0  0999 V2000
    8.1222    4.7036    0.0000 S   0  0  0  0  0  0  0  0  0  0  0  0
    7.5983   -7.0200    0.0000 F   0  0  0  0  0  0  0  0  0  0  0  0
    3.9021    1.5112    0.0000 O   0  0  0  0  0  0  0  0  0  0  0  0
    8.4495    2.0781    0.0000 O   0  0  0  0  0  0  0  0  0  0  0  0
    4.4374   -0.1361    0.0000 O   0  0  0  0  0  0  0  0  0  0  0  0
    6.8747   -1.1653    0.0000 O   0  0  0  0  0  0  0  0  0  0  0  0
    8.0337    0.1218    0.0000 N   0  0  0  0  0  0  0  0  0  0  0  0
    6.7553    2.4382    0.0000 N   0  0  0  0  0  0  0  0  0  0  0  0
    8.4644   -2.5200    0.0000 N   0  0  0  0  0  0  0  0  0  0  0  0
    7.2905    0.7910    0.0000 C   0  0  1  0  0  0  0  0  0  0  0  0
    6.3395    0.4819    0.0000 C   0  0  0  0  0  0  0  0  0  0  0  0
    5.5963    1.1511    0.0000 C   0  0  0  0  0  0  0  0  0  0  0  0
    7.4984    1.7691    0.0000 C   0  0  0  0  0  0  0  0  0  0  0  0
    2.9511    1.2022    0.0000 C   0  0  0  0  0  0  0  0  0  0  0  0
    6.9632    3.4164    0.0000 C   0  0  0  0  0  0  0  0  0  0  0  0
    4.6453    0.8421    0.0000 C   0  0  0  0  0  0  0  0  0  0  0  0
    8.5689   -1.5254    0.0000 C   0  0  0  0  0  0  0  0  0  0  0  0
    7.8258   -0.8563    0.0000 C   0  0  0  0  0  0  0  0  0  0  0  0
    6.2200    4.0855    0.0000 C   0  0  0  0  0  0  0  0  0  0  0  0
    2.0000    0.8932    0.0000 C   0  0  0  0  0  0  0  0  0  0  0  0
    2.6420    2.1532    0.0000 C   0  0  0  0  0  0  0  0  0  0  0  0
    3.2601    0.2511    0.0000 C   0  0  0  0  0  0  0  0  0  0  0  0
    7.5983   -3.0200    0.0000 C   0  0  0  0  0  0  0  0  0  0  0  0
    6.4280    5.0637    0.0000 C   0  0  0  0  0  0  0  0  0  0  0  0
    9.5470   -1.3175    0.0000 C   0  0  0  0  0  0  0  0  0  0  0  0
    9.3779   -2.9267    0.0000 C   0  0  0  0  0  0  0  0  0  0  0  0
   10.0470   -2.1836    0.0000 C   0  0  0  0  0  0  0  0  0  0  0  0
    7.5983   -4.0200    0.0000 C   0  0  0  0  0  0  0  0  0  0  0  0
    7.3790    5.3727    0.0000 C   0  0  0  0  0  0  0  0  0  0  0  0
    5.6848    5.7328    0.0000 C   0  0  0  0  0  0  0  0  0  0  0  0
    7.5869    6.3508    0.0000 C   0  0  0  0  0  0  0  0  0  0  0  0
    5.8927    6.7110    0.0000 C   0  0  0  0  0  0  0  0  0  0  0  0
    6.8438    7.0200    0.0000 C   0  0  0  0  0  0  0  0  0  0  0  0
    8.4644   -4.5200    0.0000 C   0  0  0  0  0  0  0  0  0  0  0  0
    6.7323   -4.5200    0.0000 C   0  0  0  0  0  0  0  0  0  0  0  0
    8.4644   -5.5200    0.0000 C   0  0  0  0  0  0  0  0  0  0  0  0
    6.7323   -5.5200    0.0000 C   0  0  0  0  0  0  0  0  0  0  0  0
    7.5983   -6.0200    0.0000 C   0  0  0  0  0  0  0  0  0  0  0  0
    7.1616    0.1845    0.0000 H   0  0  0  0  0  0  0  0  0  0  0  0
    5.8509    0.1002    0.0000 H   0  0  0  0  0  0  0  0  0  0  0  0
    6.6305   -0.0655    0.0000 H   0  0  0  0  0  0  0  0  0  0  0  0
    6.0849    1.5328    0.0000 H   0  0  0  0  0  0  0  0  0  0  0  0
    5.3052    1.6985    0.0000 H   0  0  0  0  0  0  0  0  0  0  0  0
    8.6233    0.3134    0.0000 H   0  0  0  0  0  0  0  0  0  0  0  0
    7.5380    3.1841    0.0000 H   0  0  0  0  0  0  0  0  0  0  0  0
    7.2917    3.9422    0.0000 H   0  0  0  0  0  0  0  0  0  0  0  0
    6.1656    2.2466    0.0000 H   0  0  0  0  0  0  0  0  0  0  0  0
    5.6452    4.3178    0.0000 H   0  0  0  0  0  0  0  0  0  0  0  0
    5.8915    3.5597    0.0000 H   0  0  0  0  0  0  0  0  0  0  0  0
    1.8084    1.4828    0.0000 H   0  0  0  0  0  0  0  0  0  0  0  0
    1.4103    0.7016    0.0000 H   0  0  0  0  0  0  0  0  0  0  0  0
    2.1916    0.3035    0.0000 H   0  0  0  0  0  0  0  0  0  0  0  0
    3.2317    2.3448    0.0000 H   0  0  0  0  0  0  0  0  0  0  0  0
    2.4504    2.7429    0.0000 H   0  0  0  0  0  0  0  0  0  0  0  0
    2.0524    1.9616    0.0000 H   0  0  0  0  0  0  0  0  0  0  0  0
    2.6704    0.0595    0.0000 H   0  0  0  0  0  0  0  0  0  0  0  0
    3.4517   -0.3385    0.0000 H   0  0  0  0  0  0  0  0  0  0  0  0
    3.8497    0.4427    0.0000 H   0  0  0  0  0  0  0  0  0  0  0  0
    7.3863   -2.4374    0.0000 H   0  0  0  0  0  0  0  0  0  0  0  0
    6.9878   -3.1276    0.0000 H   0  0  0  0  0  0  0  0  0  0  0  0
    9.7992   -0.7511    0.0000 H   0  0  0  0  0  0  0  0  0  0  0  0
    9.5068   -3.5332    0.0000 H   0  0  0  0  0  0  0  0  0  0  0  0
   10.6636   -2.2484    0.0000 H   0  0  0  0  0  0  0  0  0  0  0  0
    5.0952    5.5412    0.0000 H   0  0  0  0  0  0  0  0  0  0  0  0
    8.1618    6.1186    0.0000 H   0  0  0  0  0  0  0  0  0  0  0  0
    7.9155    6.8766    0.0000 H   0  0  0  0  0  0  0  0  0  0  0  0
    5.4320    7.1258    0.0000 H   0  0  0  0  0  0  0  0  0  0  0  0
    6.9727    7.6264    0.0000 H   0  0  0  0  0  0  0  0  0  0  0  0
    9.0013   -4.2100    0.0000 H   0  0  0  0  0  0  0  0  0  0  0  0
    6.1954   -4.2100    0.0000 H   0  0  0  0  0  0  0  0  0  0  0  0
    9.0013   -5.8300    0.0000 H   0  0  0  0  0  0  0  0  0  0  0  0
    6.1954   -5.8300    0.0000 H   0  0  0  0  0  0  0  0  0  0  0  0
  1 29  2  0  0  0  0
  2 38  1  0  0  0  0
  3 14  1  0  0  0  0
  3 16  1  0  0  0  0
  4 13  2  0  0  0  0
  5 16  2  0  0  0  0
  6 18  2  0  0  0  0
 10  7  1  1  0  0  0
  7 18  1  0  0  0  0
  7 44  1  0  0  0  0
  8 13  1  0  0  0  0
  8 15  1  0  0  0  0
  8 47  1  0  0  0  0
  9 17  1  0  0  0  0
  9 23  1  0  0  0  0
  9 26  1  0  0  0  0
 10 11  1  0  0  0  0
 10 13  1  0  0  0  0
 10 39  1  0  0  0  0
 11 12  1  0  0  0  0
 11 40  1  0  0  0  0
 11 41  1  0  0  0  0
 12 16  1  0  0  0  0
 12 42  1  0  0  0  0
 12 43  1  0  0  0  0
 14 20  1  0  0  0  0
 14 21  1  0  0  0  0
 14 22  1  0  0  0  0
 15 19  1  0  0  0  0
 15 45  1  0  0  0  0
 15 46  1  0  0  0  0
 17 18  1  0  0  0  0
 17 25  2  0  0  0  0
 19 24  1  0  0  0  0
 19 48  1  0  0  0  0
 19 49  1  0  0  0  0
 20 50  1  0  0  0  0
 20 51  1  0  0  0  0
 20 52  1  0  0  0  0
 21 53  1  0  0  0  0
 21 54  1  0  0  0  0
 21 55  1  0  0  0  0
 22 56  1  0  0  0  0
 22 57  1  0  0  0  0
 22 58  1  0  0  0  0
 23 28  1  0  0  0  0
 23 59  1  0  0  0  0
 23 60  1  0  0  0  0
 24 29  1  0  0  0  0
 24 30  2  0  0  0  0
 25 27  1  0  0  0  0
 25 61  1  0  0  0  0
 26 27  2  0  0  0  0
 26 62  1  0  0  0  0
 27 63  1  0  0  0  0
 28 34  2  0  0  0  0
 28 35  1  0  0  0  0
 29 31  1  0  0  0  0
 30 32  1  0  0  0  0
 30 64  1  0  0  0  0
 31 33  1  0  0  0  0
 31 65  1  0  0  0  0
 31 66  1  0  0  0  0
 32 33  2  0  0  0  0
 32 67  1  0  0  0  0
 33 68  1  0  0  0  0
 34 36  1  0  0  0  0
 34 69  1  0  0  0  0
 35 37  2  0  0  0  0
 35 70  1  0  0  0  0
 36 38  2  0  0  0  0
 36 71  1  0  0  0  0
 37 38  1  0  0  0  0
 37 72  1  0  0  0  0
M  END
> <PUBCHEM_COMPOUND_CID>
504865
> <PUBCHEM_COMPOUND_CANONICALIZED>
1
> <PUBCHEM_CACTVS_COMPLEXITY>
921
> <PUBCHEM_CACTVS_HBOND_ACCEPTOR>
6
> <PUBCHEM_CACTVS_HBOND_DONOR>
2
> <PUBCHEM_CACTVS_ROTATABLE_BOND>
13
> <PUBCHEM_CACTVS_SUBSKEYS>
AAADcfB7OQBAAAAAAAAAAAAAAAAAAWAAAAAwQAAAAAAAAAABwAAAHwQQAAAADGzB3gw+iJPMFACsAzX3XACCgCA3AiAI2KG4ZNgIYPLAlbGWIQhklgDIyYe8lwIOAAAAAAAAAAAAAAAAAAAAAAAAAAAAAA==
> <PUBCHEM_IUPAC_OPENEYE_NAME>
tert-butyl (4S)-4-[[1-[(4-fluorophenyl)methyl]pyrrole-2-carbonyl]amino]-5-oxo-5-[2-(6-thioxocyclohexa-1,3-dien-1-yl)ethylamino]pentanoate
> <PUBCHEM_IUPAC_CAS_NAME>
(4S)-4-[[[1-[(4-fluorophenyl)methyl]-2-pyrrolyl]-oxomethyl]amino]-5-oxo-5-[2-(6-sulfanylidene-1-cyclohexa-1,3-dienyl)ethylamino]pentanoic acid tert-butyl ester
> <PUBCHEM_IUPAC_NAME_MARKUP>
<I>tert</I>-butyl (4<I>S</I>)-4-[[1-[(4-fluorophenyl)methyl]pyrrole-2-carbonyl]amino]-5-oxo-5-[2-(6-sulfanylidenecyclohexa-1,3-dien-1-yl)ethylamino]pentanoate
> <PUBCHEM_IUPAC_NAME>
tert-butyl (4S)-4-[[1-[(4-fluorophenyl)methyl]pyrrole-2-carbonyl]amino]-5-oxo-5-[2-(6-sulfanylidenecyclohexa-1,3-dien-1-yl)ethylamino]pentanoate
> <PUBCHEM_IUPAC_SYSTEMATIC_NAME>
tert-butyl (4S)-4-[[1-[(4-fluorophenyl)methyl]pyrrol-2-yl]carbonylamino]-5-oxidanylidene-5-[2-(6-sulfanylidenecyclohexa-1,3-dien-1-yl)ethylamino]pentanoate
> <PUBCHEM_IUPAC_TRADITIONAL_NAME>
(4S)-4-[[1-(4-fluorobenzyl)pyrrole-2-carbonyl]amino]-5-keto-5-[2-(6-thioxocyclohexa-1,3-dien-1-yl)ethylamino]valeric acid tert-butyl ester
> <PUBCHEM_IUPAC_INCHI>
InChI=1S/C29H34FN3O4S/c1-29(2,3)37-26(34)15-14-23(27(35)31-17-16-21-7-4-5-9-25(21)38)32-28(36)24-8-6-18-33(24)19-20-10-12-22(30)13-11-20/h4-8,10-13,18,23H,9,14-17,19H2,1-3H3,(H,31,35)(H,32,36)/t23-/m0/s1
> <PUBCHEM_IUPAC_INCHIKEY>
WVLADVKOVCCMJJ-QHCPKHFHSA-N
> <PUBCHEM_XLOGP3_AA>
4.2
> <PUBCHEM_EXACT_MASS>
539.22540591
> <PUBCHEM_MOLECULAR_FORMULA>
C29H34FN3O4S
> <PUBCHEM_MOLECULAR_WEIGHT>
539.7
> <PUBCHEM_OPENEYE_CAN_SMILES>
CC(C)(C)OC(=O)CCC(C(=O)NCCC1=CC=CCC1=S)NC(=O)C2=CC=CN2CC3=CC=C(C=C3)F
> <PUBCHEM_OPENEYE_ISO_SMILES>
CC(C)(C)OC(=O)CC[C@@H](C(=O)NCCC1=CC=CCC1=S)NC(=O)C2=CC=CN2CC3=CC=C(C=C3)F
> <PUBCHEM_CACTVS_TPSA>
122
> <PUBCHEM_MONOISOTOPIC_WEIGHT>
539.22540591
> <PUBCHEM_TOTAL_CHARGE>
0
> <PUBCHEM_HEAVY_ATOM_COUNT>
38
> <PUBCHEM_ATOM_DEF_STEREO_COUNT>
1
> <PUBCHEM_ATOM_UDEF_STEREO_COUNT>
0
> <PUBCHEM_BOND_DEF_STEREO_COUNT>
0
> <PUBCHEM_BOND_UDEF_STEREO_COUNT>
0
> <PUBCHEM_ISOTOPIC_ATOM_COUNT>
0
> <PUBCHEM_COMPONENT_COUNT>
1
> <PUBCHEM_CACTVS_TAUTO_COUNT>
-1
> <PUBCHEM_COORDINATE_TYPE>
1
5
255
> <PUBCHEM_BONDANNOTATIONS>
17  25  8
25  27  8
26  27  8
28  34  8
28  35  8
34  36  8
35  37  8
36  38  8
37  38  8
10  7  5
9  17  8
9  26  8
$$$$
