504857
  -OEChem-10302200282D
 68 70  0     1  0  0  0  0  0999 V2000
   13.3318   -5.8826    0.0000 F   0  0  0  0  0  0  0  0  0  0  0  0
    9.4651   -0.4274    0.0000 O   0  0  0  0  0  0  0  0  0  0  0  0
    6.0010   -0.4274    0.0000 O   0  0  0  0  0  0  0  0  0  0  0  0
    9.4651   -1.4273    0.0000 O   0  0  0  0  0  0  0  0  0  0  0  0
    4.2690    5.5726    0.0000 O   0  0  0  0  0  0  0  0  0  0  0  0
    2.5369    4.5726    0.0000 O   0  0  0  0  0  0  0  0  0  0  0  0
    7.7331   -1.4273    0.0000 N   0  0  0  0  0  0  0  0  0  0  0  0
    9.4081   -3.5151    0.0000 N   0  0  0  0  0  0  0  0  0  0  0  0
    6.8671    1.0727    0.0000 N   0  0  0  0  0  0  0  0  0  0  0  0
   10.3312    0.0726    0.0000 C   0  0  0  0  0  0  0  0  0  0  0  0
    7.7331   -0.4274    0.0000 C   0  0  1  0  0  0  0  0  0  0  0  0
    8.5991    0.0726    0.0000 C   0  0  0  0  0  0  0  0  0  0  0  0
   11.1972    0.5726    0.0000 C   0  0  0  0  0  0  0  0  0  0  0  0
   10.8312   -0.7934    0.0000 C   0  0  0  0  0  0  0  0  0  0  0  0
    9.8312    0.9387    0.0000 C   0  0  0  0  0  0  0  0  0  0  0  0
    6.8671    0.0726    0.0000 C   0  0  0  0  0  0  0  0  0  0  0  0
    8.5991   -2.9274    0.0000 C   0  0  0  0  0  0  0  0  0  0  0  0
    8.5991   -1.9274    0.0000 C   0  0  0  0  0  0  0  0  0  0  0  0
    6.0010    1.5727    0.0000 C   0  0  0  0  0  0  0  0  0  0  0  0
   10.3592   -3.2061    0.0000 C   0  0  0  0  0  0  0  0  0  0  0  0
    6.0010    2.5726    0.0000 C   0  0  0  0  0  0  0  0  0  0  0  0
    7.7901   -3.5151    0.0000 C   0  0  0  0  0  0  0  0  0  0  0  0
    9.0991   -4.4662    0.0000 C   0  0  0  0  0  0  0  0  0  0  0  0
    5.1350    3.0726    0.0000 C   0  0  0  0  0  0  0  0  0  0  0  0
   11.1023   -3.8752    0.0000 C   0  0  0  0  0  0  0  0  0  0  0  0
    8.0991   -4.4662    0.0000 C   0  0  0  0  0  0  0  0  0  0  0  0
    5.1350    4.0726    0.0000 C   0  0  0  0  0  0  0  0  0  0  0  0
    4.2690    2.5726    0.0000 C   0  0  0  0  0  0  0  0  0  0  0  0
   12.0534   -3.5662    0.0000 C   0  0  0  0  0  0  0  0  0  0  0  0
   10.8944   -4.8534    0.0000 C   0  0  0  0  0  0  0  0  0  0  0  0
    4.2690    4.5726    0.0000 C   0  0  0  0  0  0  0  0  0  0  0  0
    3.4030    3.0726    0.0000 C   0  0  0  0  0  0  0  0  0  0  0  0
    3.4030    4.0726    0.0000 C   0  0  0  0  0  0  0  0  0  0  0  0
   12.7965   -4.2354    0.0000 C   0  0  0  0  0  0  0  0  0  0  0  0
   11.6376   -5.5225    0.0000 C   0  0  0  0  0  0  0  0  0  0  0  0
   12.5886   -5.2135    0.0000 C   0  0  0  0  0  0  0  0  0  0  0  0
    8.2700   -0.7374    0.0000 H   0  0  0  0  0  0  0  0  0  0  0  0
    8.9976    0.5476    0.0000 H   0  0  0  0  0  0  0  0  0  0  0  0
    8.2006    0.5476    0.0000 H   0  0  0  0  0  0  0  0  0  0  0  0
   11.5072    0.0357    0.0000 H   0  0  0  0  0  0  0  0  0  0  0  0
   11.7341    0.8826    0.0000 H   0  0  0  0  0  0  0  0  0  0  0  0
   10.8872    1.1096    0.0000 H   0  0  0  0  0  0  0  0  0  0  0  0
   10.2942   -1.1034    0.0000 H   0  0  0  0  0  0  0  0  0  0  0  0
   11.1412   -1.3303    0.0000 H   0  0  0  0  0  0  0  0  0  0  0  0
   11.3681   -0.4834    0.0000 H   0  0  0  0  0  0  0  0  0  0  0  0
   10.3681    1.2487    0.0000 H   0  0  0  0  0  0  0  0  0  0  0  0
    9.5212    1.4756    0.0000 H   0  0  0  0  0  0  0  0  0  0  0  0
    9.2942    0.6287    0.0000 H   0  0  0  0  0  0  0  0  0  0  0  0
    7.1962   -1.7374    0.0000 H   0  0  0  0  0  0  0  0  0  0  0  0
    5.3905    1.6803    0.0000 H   0  0  0  0  0  0  0  0  0  0  0  0
    5.7890    0.9900    0.0000 H   0  0  0  0  0  0  0  0  0  0  0  0
    7.4040    1.3826    0.0000 H   0  0  0  0  0  0  0  0  0  0  0  0
   10.8478   -2.8244    0.0000 H   0  0  0  0  0  0  0  0  0  0  0  0
   10.0681   -2.6587    0.0000 H   0  0  0  0  0  0  0  0  0  0  0  0
    6.6116    2.4650    0.0000 H   0  0  0  0  0  0  0  0  0  0  0  0
    6.2131    3.1552    0.0000 H   0  0  0  0  0  0  0  0  0  0  0  0
    7.2004   -3.3236    0.0000 H   0  0  0  0  0  0  0  0  0  0  0  0
    9.4635   -4.9678    0.0000 H   0  0  0  0  0  0  0  0  0  0  0  0
    7.7347   -4.9678    0.0000 H   0  0  0  0  0  0  0  0  0  0  0  0
    5.6720    4.3826    0.0000 H   0  0  0  0  0  0  0  0  0  0  0  0
    4.2690    1.9526    0.0000 H   0  0  0  0  0  0  0  0  0  0  0  0
   12.1823   -2.9598    0.0000 H   0  0  0  0  0  0  0  0  0  0  0  0
   10.3048   -5.0450    0.0000 H   0  0  0  0  0  0  0  0  0  0  0  0
    2.8660    2.7626    0.0000 H   0  0  0  0  0  0  0  0  0  0  0  0
   13.3862   -4.0438    0.0000 H   0  0  0  0  0  0  0  0  0  0  0  0
   11.5087   -6.1290    0.0000 H   0  0  0  0  0  0  0  0  0  0  0  0
    4.8059    5.8826    0.0000 H   0  0  0  0  0  0  0  0  0  0  0  0
    2.0000    4.2626    0.0000 H   0  0  0  0  0  0  0  0  0  0  0  0
  1 36  1  0  0  0  0
  2 10  1  0  0  0  0
  2 12  1  0  0  0  0
  3 16  2  0  0  0  0
  4 18  2  0  0  0  0
  5 31  1  0  0  0  0
  5 67  1  0  0  0  0
  6 33  1  0  0  0  0
  6 68  1  0  0  0  0
 11  7  1  6  0  0  0
  7 18  1  0  0  0  0
  7 49  1  0  0  0  0
  8 17  1  0  0  0  0
  8 20  1  0  0  0  0
  8 23  1  0  0  0  0
  9 16  1  0  0  0  0
  9 19  1  0  0  0  0
  9 52  1  0  0  0  0
 10 13  1  0  0  0  0
 10 14  1  0  0  0  0
 10 15  1  0  0  0  0
 11 12  1  0  0  0  0
 11 16  1  0  0  0  0
 11 37  1  0  0  0  0
 12 38  1  0  0  0  0
 12 39  1  0  0  0  0
 13 40  1  0  0  0  0
 13 41  1  0  0  0  0
 13 42  1  0  0  0  0
 14 43  1  0  0  0  0
 14 44  1  0  0  0  0
 14 45  1  0  0  0  0
 15 46  1  0  0  0  0
 15 47  1  0  0  0  0
 15 48  1  0  0  0  0
 17 18  1  0  0  0  0
 17 22  2  0  0  0  0
 19 21  1  0  0  0  0
 19 50  1  0  0  0  0
 19 51  1  0  0  0  0
 20 25  1  0  0  0  0
 20 53  1  0  0  0  0
 20 54  1  0  0  0  0
 21 24  1  0  0  0  0
 21 55  1  0  0  0  0
 21 56  1  0  0  0  0
 22 26  1  0  0  0  0
 22 57  1  0  0  0  0
 23 26  2  0  0  0  0
 23 58  1  0  0  0  0
 24 27  2  0  0  0  0
 24 28  1  0  0  0  0
 25 29  2  0  0  0  0
 25 30  1  0  0  0  0
 26 59  1  0  0  0  0
 27 31  1  0  0  0  0
 27 60  1  0  0  0  0
 28 32  2  0  0  0  0
 28 61  1  0  0  0  0
 29 34  1  0  0  0  0
 29 62  1  0  0  0  0
 30 35  2  0  0  0  0
 30 63  1  0  0  0  0
 31 33  2  0  0  0  0
 32 33  1  0  0  0  0
 32 64  1  0  0  0  0
 34 36  2  0  0  0  0
 34 65  1  0  0  0  0
 35 36  1  0  0  0  0
 35 66  1  0  0  0  0
M  END
> <PUBCHEM_COMPOUND_CID>
504857
> <PUBCHEM_COMPOUND_CANONICALIZED>
1
> <PUBCHEM_CACTVS_COMPLEXITY>
710
> <PUBCHEM_CACTVS_HBOND_ACCEPTOR>
6
> <PUBCHEM_CACTVS_HBOND_DONOR>
4
> <PUBCHEM_CACTVS_ROTATABLE_BOND>
11
> <PUBCHEM_CACTVS_SUBSKEYS>
AAADcfB7OQAAAAAAAAAAAAAAAAAAAWAAAAAwYAAAAAAAAAAB0AAAHwAQCAAADGzhng4+hpPMFgCoAzV3VACCgCA3IiAI2KG+7NgLZvbClbOXcQlm9hHZ2YeY0bIOIAABAAAAQABAAAIAAACAAAAAAAAAAA==
> <PUBCHEM_IUPAC_OPENEYE_NAME>
N-[(1S)-1-(tert-butoxymethyl)-2-[2-(3,4-dihydroxyphenyl)ethylamino]-2-oxo-ethyl]-1-[(4-fluorophenyl)methyl]pyrrole-2-carboxamide
> <PUBCHEM_IUPAC_CAS_NAME>
N-[(2S)-1-[2-(3,4-dihydroxyphenyl)ethylamino]-3-[(2-methylpropan-2-yl)oxy]-1-oxopropan-2-yl]-1-[(4-fluorophenyl)methyl]-2-pyrrolecarboxamide
> <PUBCHEM_IUPAC_NAME_MARKUP>
<I>N</I>-[(2<I>S</I>)-1-[2-(3,4-dihydroxyphenyl)ethylamino]-3-[(2-methylpropan-2-yl)oxy]-1-oxopropan-2-yl]-1-[(4-fluorophenyl)methyl]pyrrole-2-carboxamide
> <PUBCHEM_IUPAC_NAME>
N-[(2S)-1-[2-(3,4-dihydroxyphenyl)ethylamino]-3-[(2-methylpropan-2-yl)oxy]-1-oxopropan-2-yl]-1-[(4-fluorophenyl)methyl]pyrrole-2-carboxamide
> <PUBCHEM_IUPAC_SYSTEMATIC_NAME>
N-[(2S)-1-[2-[3,4-bis(oxidanyl)phenyl]ethylamino]-3-[(2-methylpropan-2-yl)oxy]-1-oxidanylidene-propan-2-yl]-1-[(4-fluorophenyl)methyl]pyrrole-2-carboxamide
> <PUBCHEM_IUPAC_TRADITIONAL_NAME>
N-[(1S)-1-(tert-butoxymethyl)-2-[2-(3,4-dihydroxyphenyl)ethylamino]-2-keto-ethyl]-1-(4-fluorobenzyl)pyrrole-2-carboxamide
> <PUBCHEM_IUPAC_INCHI>
InChI=1S/C27H32FN3O5/c1-27(2,3)36-17-21(25(34)29-13-12-18-8-11-23(32)24(33)15-18)30-26(35)22-5-4-14-31(22)16-19-6-9-20(28)10-7-19/h4-11,14-15,21,32-33H,12-13,16-17H2,1-3H3,(H,29,34)(H,30,35)/t21-/m0/s1
> <PUBCHEM_IUPAC_INCHIKEY>
IFJVRFGYMGYTET-NRFANRHFSA-N
> <PUBCHEM_XLOGP3_AA>
3.4
> <PUBCHEM_EXACT_MASS>
497.23259929
> <PUBCHEM_MOLECULAR_FORMULA>
C27H32FN3O5
> <PUBCHEM_MOLECULAR_WEIGHT>
497.6
> <PUBCHEM_OPENEYE_CAN_SMILES>
CC(C)(C)OCC(C(=O)NCCC1=CC(=C(C=C1)O)O)NC(=O)C2=CC=CN2CC3=CC=C(C=C3)F
> <PUBCHEM_OPENEYE_ISO_SMILES>
CC(C)(C)OC[C@@H](C(=O)NCCC1=CC(=C(C=C1)O)O)NC(=O)C2=CC=CN2CC3=CC=C(C=C3)F
> <PUBCHEM_CACTVS_TPSA>
113
> <PUBCHEM_MONOISOTOPIC_WEIGHT>
497.23259929
> <PUBCHEM_TOTAL_CHARGE>
0
> <PUBCHEM_HEAVY_ATOM_COUNT>
36
> <PUBCHEM_ATOM_DEF_STEREO_COUNT>
1
> <PUBCHEM_ATOM_UDEF_STEREO_COUNT>
0
> <PUBCHEM_BOND_DEF_STEREO_COUNT>
0
> <PUBCHEM_BOND_UDEF_STEREO_COUNT>
0
> <PUBCHEM_ISOTOPIC_ATOM_COUNT>
0
> <PUBCHEM_COMPONENT_COUNT>
1
> <PUBCHEM_CACTVS_TAUTO_COUNT>
-1
> <PUBCHEM_COORDINATE_TYPE>
1
5
255
> <PUBCHEM_BONDANNOTATIONS>
17  22  8
22  26  8
23  26  8
24  27  8
24  28  8
25  29  8
25  30  8
27  31  8
28  32  8
29  34  8
30  35  8
31  33  8
32  33  8
34  36  8
35  36  8
11  7  6
8  17  8
8  23  8
$$$$
