504839
  -OEChem-10302200282D
 58 60  0     1  0  0  0  0  0999 V2000
    8.5991   -1.6550    0.0000 O   0  0  0  0  0  0  0  0  0  0  0  0
   12.0632   -1.6550    0.0000 O   0  0  0  0  0  0  0  0  0  0  0  0
    7.7331    1.8450    0.0000 O   0  0  0  0  0  0  0  0  0  0  0  0
    5.1350   -2.6550    0.0000 O   0  0  0  0  0  0  0  0  0  0  0  0
    4.2690   -4.1550    0.0000 O   0  0  0  0  0  0  0  0  0  0  0  0
    4.2690    5.8450    0.0000 O   0  0  0  0  0  0  0  0  0  0  0  0
    2.5369    4.8450    0.0000 O   0  0  0  0  0  0  0  0  0  0  0  0
    6.8671    0.3450    0.0000 N   0  0  0  0  0  0  0  0  0  0  0  0
    6.8671   -1.6550    0.0000 N   0  0  0  0  0  0  0  0  0  0  0  0
    6.8671   -2.6550    0.0000 N   0  0  0  0  0  0  0  0  0  0  0  0
    7.7331   -0.1550    0.0000 C   0  0  1  0  0  0  0  0  0  0  0  0
    8.5991    0.3450    0.0000 C   0  0  0  0  0  0  0  0  0  0  0  0
    9.4651   -0.1550    0.0000 C   0  0  0  0  0  0  0  0  0  0  0  0
    7.7331   -1.1550    0.0000 C   0  0  0  0  0  0  0  0  0  0  0  0
   10.3312    0.3450    0.0000 C   0  0  0  0  0  0  0  0  0  0  0  0
    9.4651   -1.1550    0.0000 C   0  0  0  0  0  0  0  0  0  0  0  0
    6.8671    1.3450    0.0000 C   0  0  0  0  0  0  0  0  0  0  0  0
   11.1972   -0.1550    0.0000 C   0  0  0  0  0  0  0  0  0  0  0  0
   10.3312   -1.6550    0.0000 C   0  0  0  0  0  0  0  0  0  0  0  0
   11.1972   -1.1550    0.0000 C   0  0  0  0  0  0  0  0  0  0  0  0
    6.0010    1.8450    0.0000 C   0  0  0  0  0  0  0  0  0  0  0  0
    6.0010    2.8450    0.0000 C   0  0  0  0  0  0  0  0  0  0  0  0
    6.0010   -3.1550    0.0000 C   0  0  0  0  0  0  0  0  0  0  0  0
    5.1350    3.3450    0.0000 C   0  0  0  0  0  0  0  0  0  0  0  0
    6.0010   -4.1550    0.0000 C   0  0  0  0  0  0  0  0  0  0  0  0
    5.1350    4.3450    0.0000 C   0  0  0  0  0  0  0  0  0  0  0  0
    4.2690    2.8450    0.0000 C   0  0  0  0  0  0  0  0  0  0  0  0
    5.1350   -4.6550    0.0000 C   0  0  0  0  0  0  0  0  0  0  0  0
    6.8671   -4.6550    0.0000 C   0  0  0  0  0  0  0  0  0  0  0  0
    4.2690    4.8450    0.0000 C   0  0  0  0  0  0  0  0  0  0  0  0
    3.4030    3.3450    0.0000 C   0  0  0  0  0  0  0  0  0  0  0  0
    3.4030    4.3450    0.0000 C   0  0  0  0  0  0  0  0  0  0  0  0
    5.1350   -5.6550    0.0000 C   0  0  0  0  0  0  0  0  0  0  0  0
    6.8671   -5.6550    0.0000 C   0  0  0  0  0  0  0  0  0  0  0  0
    6.0010   -6.1550    0.0000 C   0  0  0  0  0  0  0  0  0  0  0  0
    7.7331    0.4650    0.0000 H   0  0  0  0  0  0  0  0  0  0  0  0
    8.9976    0.8199    0.0000 H   0  0  0  0  0  0  0  0  0  0  0  0
    8.2006    0.8199    0.0000 H   0  0  0  0  0  0  0  0  0  0  0  0
    6.3301    0.0350    0.0000 H   0  0  0  0  0  0  0  0  0  0  0  0
   10.3312    0.9650    0.0000 H   0  0  0  0  0  0  0  0  0  0  0  0
    8.9282   -1.4650    0.0000 H   0  0  0  0  0  0  0  0  0  0  0  0
    6.3301   -1.3450    0.0000 H   0  0  0  0  0  0  0  0  0  0  0  0
   11.7341    0.1550    0.0000 H   0  0  0  0  0  0  0  0  0  0  0  0
   10.3312   -2.2750    0.0000 H   0  0  0  0  0  0  0  0  0  0  0  0
    5.4641    1.5350    0.0000 H   0  0  0  0  0  0  0  0  0  0  0  0
    7.4040   -2.9650    0.0000 H   0  0  0  0  0  0  0  0  0  0  0  0
    6.5380    3.1550    0.0000 H   0  0  0  0  0  0  0  0  0  0  0  0
    5.6720    4.6550    0.0000 H   0  0  0  0  0  0  0  0  0  0  0  0
    4.2690    2.2250    0.0000 H   0  0  0  0  0  0  0  0  0  0  0  0
   12.6002   -1.3450    0.0000 H   0  0  0  0  0  0  0  0  0  0  0  0
    7.4040   -4.3450    0.0000 H   0  0  0  0  0  0  0  0  0  0  0  0
    2.8660    3.0350    0.0000 H   0  0  0  0  0  0  0  0  0  0  0  0
    4.5981   -5.9650    0.0000 H   0  0  0  0  0  0  0  0  0  0  0  0
    7.4040   -5.9650    0.0000 H   0  0  0  0  0  0  0  0  0  0  0  0
    6.0010   -6.7750    0.0000 H   0  0  0  0  0  0  0  0  0  0  0  0
    3.7320   -4.4650    0.0000 H   0  0  0  0  0  0  0  0  0  0  0  0
    4.8059    6.1550    0.0000 H   0  0  0  0  0  0  0  0  0  0  0  0
    2.0000    4.5350    0.0000 H   0  0  0  0  0  0  0  0  0  0  0  0
  1 14  2  0  0  0  0
  2 20  1  0  0  0  0
  2 50  1  0  0  0  0
  3 17  2  0  0  0  0
  4 23  2  0  0  0  0
  5 28  1  0  0  0  0
  5 56  1  0  0  0  0
  6 30  1  0  0  0  0
  6 57  1  0  0  0  0
  7 32  1  0  0  0  0
  7 58  1  0  0  0  0
 11  8  1  1  0  0  0
  8 17  1  0  0  0  0
  8 39  1  0  0  0  0
  9 10  1  0  0  0  0
  9 14  1  0  0  0  0
  9 42  1  0  0  0  0
 10 23  1  0  0  0  0
 10 46  1  0  0  0  0
 11 12  1  0  0  0  0
 11 14  1  0  0  0  0
 11 36  1  0  0  0  0
 12 13  1  0  0  0  0
 12 37  1  0  0  0  0
 12 38  1  0  0  0  0
 13 15  2  0  0  0  0
 13 16  1  0  0  0  0
 15 18  1  0  0  0  0
 15 40  1  0  0  0  0
 16 19  2  0  0  0  0
 16 41  1  0  0  0  0
 17 21  1  0  0  0  0
 18 20  2  0  0  0  0
 18 43  1  0  0  0  0
 19 20  1  0  0  0  0
 19 44  1  0  0  0  0
 21 22  2  3  0  0  0
 21 45  1  0  0  0  0
 22 24  1  0  0  0  0
 22 47  1  0  0  0  0
 23 25  1  0  0  0  0
 24 26  2  0  0  0  0
 24 27  1  0  0  0  0
 25 28  1  0  0  0  0
 25 29  2  0  0  0  0
 26 30  1  0  0  0  0
 26 48  1  0  0  0  0
 27 31  2  0  0  0  0
 27 49  1  0  0  0  0
 28 33  2  0  0  0  0
 29 34  1  0  0  0  0
 29 51  1  0  0  0  0
 30 32  2  0  0  0  0
 31 32  1  0  0  0  0
 31 52  1  0  0  0  0
 33 35  1  0  0  0  0
 33 53  1  0  0  0  0
 34 35  2  0  0  0  0
 34 54  1  0  0  0  0
 35 55  1  0  0  0  0
M  END
> <PUBCHEM_COMPOUND_CID>
504839
> <PUBCHEM_COMPOUND_CANONICALIZED>
1
> <PUBCHEM_CACTVS_COMPLEXITY>
753
> <PUBCHEM_CACTVS_HBOND_ACCEPTOR>
7
> <PUBCHEM_CACTVS_HBOND_DONOR>
7
> <PUBCHEM_CACTVS_ROTATABLE_BOND>
7
> <PUBCHEM_CACTVS_SUBSKEYS>
AAADceB7OAAAAAAAAAAAAAAAAAAAAAAAAAAwYMAAAAAAAAABUAAAHgAYCAAADCzBmAQwBoLiAgCIAiFSEACCAAAkIAIaqIGOjMgJZjaClTOUcUFm9hGJmYeYyLCOIAABAAAIQABAAAIAABCAAAAAAAAAAA==
> <PUBCHEM_IUPAC_OPENEYE_NAME>
3-(3,4-dihydroxyphenyl)-N-[(1S)-2-[2-(2-hydroxybenzoyl)hydrazino]-1-[(4-hydroxyphenyl)methyl]-2-oxo-ethyl]prop-2-enamide
> <PUBCHEM_IUPAC_CAS_NAME>
3-(3,4-dihydroxyphenyl)-N-[(2S)-3-(4-hydroxyphenyl)-1-[[(2-hydroxyphenyl)-oxomethyl]hydrazo]-1-oxopropan-2-yl]-2-propenamide
> <PUBCHEM_IUPAC_NAME_MARKUP>
3-(3,4-dihydroxyphenyl)-<I>N</I>-[(2<I>S</I>)-1-[2-(2-hydroxybenzoyl)hydrazinyl]-3-(4-hydroxyphenyl)-1-oxopropan-2-yl]prop-2-enamide
> <PUBCHEM_IUPAC_NAME>
3-(3,4-dihydroxyphenyl)-N-[(2S)-1-[2-(2-hydroxybenzoyl)hydrazinyl]-3-(4-hydroxyphenyl)-1-oxopropan-2-yl]prop-2-enamide
> <PUBCHEM_IUPAC_SYSTEMATIC_NAME>
3-[3,4-bis(oxidanyl)phenyl]-N-[(2S)-3-(4-hydroxyphenyl)-1-[2-(2-hydroxyphenyl)carbonylhydrazinyl]-1-oxidanylidene-propan-2-yl]prop-2-enamide
> <PUBCHEM_IUPAC_TRADITIONAL_NAME>
3-(3,4-dihydroxyphenyl)-N-[(1S)-1-(4-hydroxybenzyl)-2-keto-2-(N'-salicyloylhydrazino)ethyl]acrylamide
> <PUBCHEM_IUPAC_INCHI>
InChI=1S/C25H23N3O7/c29-17-9-5-15(6-10-17)13-19(25(35)28-27-24(34)18-3-1-2-4-20(18)30)26-23(33)12-8-16-7-11-21(31)22(32)14-16/h1-12,14,19,29-32H,13H2,(H,26,33)(H,27,34)(H,28,35)/t19-/m0/s1
> <PUBCHEM_IUPAC_INCHIKEY>
MTTATJTXRRDNBW-IBGZPJMESA-N
> <PUBCHEM_XLOGP3_AA>
3.3
> <PUBCHEM_EXACT_MASS>
477.15360008
> <PUBCHEM_MOLECULAR_FORMULA>
C25H23N3O7
> <PUBCHEM_MOLECULAR_WEIGHT>
477.5
> <PUBCHEM_OPENEYE_CAN_SMILES>
C1=CC=C(C(=C1)C(=O)NNC(=O)C(CC2=CC=C(C=C2)O)NC(=O)C=CC3=CC(=C(C=C3)O)O)O
> <PUBCHEM_OPENEYE_ISO_SMILES>
C1=CC=C(C(=C1)C(=O)NNC(=O)[C@H](CC2=CC=C(C=C2)O)NC(=O)C=CC3=CC(=C(C=C3)O)O)O
> <PUBCHEM_CACTVS_TPSA>
168
> <PUBCHEM_MONOISOTOPIC_WEIGHT>
477.15360008
> <PUBCHEM_TOTAL_CHARGE>
0
> <PUBCHEM_HEAVY_ATOM_COUNT>
35
> <PUBCHEM_ATOM_DEF_STEREO_COUNT>
1
> <PUBCHEM_ATOM_UDEF_STEREO_COUNT>
0
> <PUBCHEM_BOND_DEF_STEREO_COUNT>
0
> <PUBCHEM_BOND_UDEF_STEREO_COUNT>
1
> <PUBCHEM_ISOTOPIC_ATOM_COUNT>
0
> <PUBCHEM_COMPONENT_COUNT>
1
> <PUBCHEM_CACTVS_TAUTO_COUNT>
-1
> <PUBCHEM_COORDINATE_TYPE>
1
5
255
> <PUBCHEM_BONDANNOTATIONS>
13  15  8
13  16  8
15  18  8
16  19  8
18  20  8
19  20  8
21  22  1
24  26  8
24  27  8
25  28  8
25  29  8
26  30  8
27  31  8
28  33  8
29  34  8
30  32  8
31  32  8
33  35  8
34  35  8
11  8  5
$$$$
