504867
  -OEChem-10302200282D
 60 62  0     1  0  0  0  0  0999 V2000
    6.8097    4.7036    0.0000 S   0  0  0  0  0  0  0  0  0  0  0  0
    6.2859   -7.0200    0.0000 F   0  0  0  0  0  0  0  0  0  0  0  0
    7.1370    2.0781    0.0000 O   0  0  0  0  0  0  0  0  0  0  0  0
    5.5622   -1.1653    0.0000 O   0  0  0  0  0  0  0  0  0  0  0  0
    2.5896    1.5112    0.0000 O   0  0  0  0  0  0  0  0  0  0  0  0
    3.1249   -0.1361    0.0000 O   0  0  0  0  0  0  0  0  0  0  0  0
    6.7212    0.1218    0.0000 N   0  0  0  0  0  0  0  0  0  0  0  0
    7.1519   -2.5200    0.0000 N   0  0  0  0  0  0  0  0  0  0  0  0
    5.4428    2.4382    0.0000 N   0  0  0  0  0  0  0  0  0  0  0  0
    5.9781    0.7910    0.0000 C   0  0  1  0  0  0  0  0  0  0  0  0
    5.0270    0.4819    0.0000 C   0  0  0  0  0  0  0  0  0  0  0  0
    6.1860    1.7691    0.0000 C   0  0  0  0  0  0  0  0  0  0  0  0
    4.2839    1.1511    0.0000 C   0  0  0  0  0  0  0  0  0  0  0  0
    5.6507    3.4164    0.0000 C   0  0  0  0  0  0  0  0  0  0  0  0
    7.2564   -1.5254    0.0000 C   0  0  0  0  0  0  0  0  0  0  0  0
    4.9076    4.0855    0.0000 C   0  0  0  0  0  0  0  0  0  0  0  0
    6.5133   -0.8563    0.0000 C   0  0  0  0  0  0  0  0  0  0  0  0
    6.2859   -3.0200    0.0000 C   0  0  0  0  0  0  0  0  0  0  0  0
    5.1155    5.0637    0.0000 C   0  0  0  0  0  0  0  0  0  0  0  0
    8.2346   -1.3175    0.0000 C   0  0  0  0  0  0  0  0  0  0  0  0
    8.0654   -2.9267    0.0000 C   0  0  0  0  0  0  0  0  0  0  0  0
    6.2859   -4.0200    0.0000 C   0  0  0  0  0  0  0  0  0  0  0  0
    8.7346   -2.1836    0.0000 C   0  0  0  0  0  0  0  0  0  0  0  0
    6.0666    5.3727    0.0000 C   0  0  0  0  0  0  0  0  0  0  0  0
    3.3328    0.8421    0.0000 C   0  0  0  0  0  0  0  0  0  0  0  0
    6.2745    6.3508    0.0000 C   0  0  0  0  0  0  0  0  0  0  0  0
    4.3724    5.7328    0.0000 C   0  0  0  0  0  0  0  0  0  0  0  0
    5.5313    7.0200    0.0000 C   0  0  0  0  0  0  0  0  0  0  0  0
    4.5803    6.7110    0.0000 C   0  0  0  0  0  0  0  0  0  0  0  0
    5.4199   -4.5200    0.0000 C   0  0  0  0  0  0  0  0  0  0  0  0
    7.1519   -4.5200    0.0000 C   0  0  0  0  0  0  0  0  0  0  0  0
    5.4199   -5.5200    0.0000 C   0  0  0  0  0  0  0  0  0  0  0  0
    7.1519   -5.5200    0.0000 C   0  0  0  0  0  0  0  0  0  0  0  0
    6.2859   -6.0200    0.0000 C   0  0  0  0  0  0  0  0  0  0  0  0
    6.5677    0.9826    0.0000 H   0  0  0  0  0  0  0  0  0  0  0  0
    4.5384    0.1002    0.0000 H   0  0  0  0  0  0  0  0  0  0  0  0
    5.3181   -0.0655    0.0000 H   0  0  0  0  0  0  0  0  0  0  0  0
    7.3109    0.3134    0.0000 H   0  0  0  0  0  0  0  0  0  0  0  0
    4.7724    1.5328    0.0000 H   0  0  0  0  0  0  0  0  0  0  0  0
    3.9928    1.6985    0.0000 H   0  0  0  0  0  0  0  0  0  0  0  0
    6.2256    3.1841    0.0000 H   0  0  0  0  0  0  0  0  0  0  0  0
    5.9793    3.9422    0.0000 H   0  0  0  0  0  0  0  0  0  0  0  0
    4.3327    4.3178    0.0000 H   0  0  0  0  0  0  0  0  0  0  0  0
    4.5790    3.5597    0.0000 H   0  0  0  0  0  0  0  0  0  0  0  0
    4.8532    2.2466    0.0000 H   0  0  0  0  0  0  0  0  0  0  0  0
    6.0738   -2.4374    0.0000 H   0  0  0  0  0  0  0  0  0  0  0  0
    5.6753   -3.1276    0.0000 H   0  0  0  0  0  0  0  0  0  0  0  0
    8.4868   -0.7511    0.0000 H   0  0  0  0  0  0  0  0  0  0  0  0
    8.1944   -3.5332    0.0000 H   0  0  0  0  0  0  0  0  0  0  0  0
    9.3512   -2.2484    0.0000 H   0  0  0  0  0  0  0  0  0  0  0  0
    6.8493    6.1186    0.0000 H   0  0  0  0  0  0  0  0  0  0  0  0
    6.6030    6.8766    0.0000 H   0  0  0  0  0  0  0  0  0  0  0  0
    3.7827    5.5412    0.0000 H   0  0  0  0  0  0  0  0  0  0  0  0
    5.6602    7.6264    0.0000 H   0  0  0  0  0  0  0  0  0  0  0  0
    4.1195    7.1258    0.0000 H   0  0  0  0  0  0  0  0  0  0  0  0
    4.8829   -4.2100    0.0000 H   0  0  0  0  0  0  0  0  0  0  0  0
    7.6888   -4.2100    0.0000 H   0  0  0  0  0  0  0  0  0  0  0  0
    4.8829   -5.8300    0.0000 H   0  0  0  0  0  0  0  0  0  0  0  0
    7.6888   -5.8300    0.0000 H   0  0  0  0  0  0  0  0  0  0  0  0
    2.0000    1.3196    0.0000 H   0  0  0  0  0  0  0  0  0  0  0  0
  1 24  2  0  0  0  0
  2 34  1  0  0  0  0
  3 12  2  0  0  0  0
  4 17  2  0  0  0  0
  5 25  1  0  0  0  0
  5 60  1  0  0  0  0
  6 25  2  0  0  0  0
 10  7  1  1  0  0  0
  7 17  1  0  0  0  0
  7 38  1  0  0  0  0
  8 15  1  0  0  0  0
  8 18  1  0  0  0  0
  8 21  1  0  0  0  0
  9 12  1  0  0  0  0
  9 14  1  0  0  0  0
  9 45  1  0  0  0  0
 10 11  1  0  0  0  0
 10 12  1  0  0  0  0
 10 35  1  0  0  0  0
 11 13  1  0  0  0  0
 11 36  1  0  0  0  0
 11 37  1  0  0  0  0
 13 25  1  0  0  0  0
 13 39  1  0  0  0  0
 13 40  1  0  0  0  0
 14 16  1  0  0  0  0
 14 41  1  0  0  0  0
 14 42  1  0  0  0  0
 15 17  1  0  0  0  0
 15 20  2  0  0  0  0
 16 19  1  0  0  0  0
 16 43  1  0  0  0  0
 16 44  1  0  0  0  0
 18 22  1  0  0  0  0
 18 46  1  0  0  0  0
 18 47  1  0  0  0  0
 19 24  1  0  0  0  0
 19 27  2  0  0  0  0
 20 23  1  0  0  0  0
 20 48  1  0  0  0  0
 21 23  2  0  0  0  0
 21 49  1  0  0  0  0
 22 30  2  0  0  0  0
 22 31  1  0  0  0  0
 23 50  1  0  0  0  0
 24 26  1  0  0  0  0
 26 28  1  0  0  0  0
 26 51  1  0  0  0  0
 26 52  1  0  0  0  0
 27 29  1  0  0  0  0
 27 53  1  0  0  0  0
 28 29  2  0  0  0  0
 28 54  1  0  0  0  0
 29 55  1  0  0  0  0
 30 32  1  0  0  0  0
 30 56  1  0  0  0  0
 31 33  2  0  0  0  0
 31 57  1  0  0  0  0
 32 34  2  0  0  0  0
 32 58  1  0  0  0  0
 33 34  1  0  0  0  0
 33 59  1  0  0  0  0
M  END
> <PUBCHEM_COMPOUND_CID>
504867
> <PUBCHEM_COMPOUND_CANONICALIZED>
1
> <PUBCHEM_CACTVS_COMPLEXITY>
823
> <PUBCHEM_CACTVS_HBOND_ACCEPTOR>
6
> <PUBCHEM_CACTVS_HBOND_DONOR>
3
> <PUBCHEM_CACTVS_ROTATABLE_BOND>
11
> <PUBCHEM_CACTVS_SUBSKEYS>
AAADceB7OQBAAAAAAAAAAAAAAAAAAWAAAAAwQAAAAAAAAAABwAAAHwQQCAAADCjB3gw8iJPMEgCsAzX3XACCgCA3AiAI2KG4ZNgIYPLAlbGUYQhklgDIyYe8lwIOAAAAAAAAAAAAAAAAAAAAAAAAAAAAAA==
> <PUBCHEM_IUPAC_OPENEYE_NAME>
(4S)-4-[[1-[(4-fluorophenyl)methyl]pyrrole-2-carbonyl]amino]-5-oxo-5-[2-(6-thioxocyclohexa-1,3-dien-1-yl)ethylamino]pentanoic acid
> <PUBCHEM_IUPAC_CAS_NAME>
(4S)-4-[[[1-[(4-fluorophenyl)methyl]-2-pyrrolyl]-oxomethyl]amino]-5-oxo-5-[2-(6-sulfanylidene-1-cyclohexa-1,3-dienyl)ethylamino]pentanoic acid
> <PUBCHEM_IUPAC_NAME_MARKUP>
(4<I>S</I>)-4-[[1-[(4-fluorophenyl)methyl]pyrrole-2-carbonyl]amino]-5-oxo-5-[2-(6-sulfanylidenecyclohexa-1,3-dien-1-yl)ethylamino]pentanoic acid
> <PUBCHEM_IUPAC_NAME>
(4S)-4-[[1-[(4-fluorophenyl)methyl]pyrrole-2-carbonyl]amino]-5-oxo-5-[2-(6-sulfanylidenecyclohexa-1,3-dien-1-yl)ethylamino]pentanoic acid
> <PUBCHEM_IUPAC_SYSTEMATIC_NAME>
(4S)-4-[[1-[(4-fluorophenyl)methyl]pyrrol-2-yl]carbonylamino]-5-oxidanylidene-5-[2-(6-sulfanylidenecyclohexa-1,3-dien-1-yl)ethylamino]pentanoic acid
> <PUBCHEM_IUPAC_TRADITIONAL_NAME>
(4S)-4-[[1-(4-fluorobenzyl)pyrrole-2-carbonyl]amino]-5-keto-5-[2-(6-thioxocyclohexa-1,3-dien-1-yl)ethylamino]valeric acid
> <PUBCHEM_IUPAC_INCHI>
InChI=1S/C25H26FN3O4S/c26-19-9-7-17(8-10-19)16-29-15-3-5-21(29)25(33)28-20(11-12-23(30)31)24(32)27-14-13-18-4-1-2-6-22(18)34/h1-5,7-10,15,20H,6,11-14,16H2,(H,27,32)(H,28,33)(H,30,31)/t20-/m0/s1
> <PUBCHEM_IUPAC_INCHIKEY>
BEFPRZAAWZBIHY-FQEVSTJZSA-N
> <PUBCHEM_XLOGP3_AA>
2.9
> <PUBCHEM_EXACT_MASS>
483.16280565
> <PUBCHEM_MOLECULAR_FORMULA>
C25H26FN3O4S
> <PUBCHEM_MOLECULAR_WEIGHT>
483.6
> <PUBCHEM_OPENEYE_CAN_SMILES>
C1C=CC=C(C1=S)CCNC(=O)C(CCC(=O)O)NC(=O)C2=CC=CN2CC3=CC=C(C=C3)F
> <PUBCHEM_OPENEYE_ISO_SMILES>
C1C=CC=C(C1=S)CCNC(=O)[C@H](CCC(=O)O)NC(=O)C2=CC=CN2CC3=CC=C(C=C3)F
> <PUBCHEM_CACTVS_TPSA>
133
> <PUBCHEM_MONOISOTOPIC_WEIGHT>
483.16280565
> <PUBCHEM_TOTAL_CHARGE>
0
> <PUBCHEM_HEAVY_ATOM_COUNT>
34
> <PUBCHEM_ATOM_DEF_STEREO_COUNT>
1
> <PUBCHEM_ATOM_UDEF_STEREO_COUNT>
0
> <PUBCHEM_BOND_DEF_STEREO_COUNT>
0
> <PUBCHEM_BOND_UDEF_STEREO_COUNT>
0
> <PUBCHEM_ISOTOPIC_ATOM_COUNT>
0
> <PUBCHEM_COMPONENT_COUNT>
1
> <PUBCHEM_CACTVS_TAUTO_COUNT>
-1
> <PUBCHEM_COORDINATE_TYPE>
1
5
255
> <PUBCHEM_BONDANNOTATIONS>
15  20  8
20  23  8
21  23  8
22  30  8
22  31  8
30  32  8
31  33  8
32  34  8
33  34  8
10  7  5
8  15  8
8  21  8
$$$$
