504870
  -OEChem-10302200282D
 56 58  0     1  0  0  0  0  0999 V2000
   13.3263   -0.6900    0.0000 S   0  0  0  0  0  0  0  0  0  0  0  0
    8.9962    1.8100    0.0000 O   0  0  0  0  0  0  0  0  0  0  0  0
    6.3981   -0.6900    0.0000 O   0  0  0  0  0  0  0  0  0  0  0  0
    9.8622   -2.6900    0.0000 O   0  0  0  0  0  0  0  0  0  0  0  0
    2.9176   -0.7246    0.0000 O   0  0  0  0  0  0  0  0  0  0  0  0
    8.1301   -2.6900    0.0000 O   0  0  0  0  0  0  0  0  0  0  0  0
    4.6660    3.3100    0.0000 O   0  0  0  0  0  0  0  0  0  0  0  0
    7.2641    0.8100    0.0000 N   0  0  0  0  0  0  0  0  0  0  0  0
    9.8622    0.3100    0.0000 N   0  0  0  0  0  0  0  0  0  0  0  0
    4.6660    0.3100    0.0000 N   0  0  0  0  0  0  0  0  0  0  0  0
    8.1301    0.3100    0.0000 C   0  0  1  0  0  0  0  0  0  0  0  0
    8.1301   -0.6900    0.0000 C   0  0  0  0  0  0  0  0  0  0  0  0
    8.9962    0.8100    0.0000 C   0  0  0  0  0  0  0  0  0  0  0  0
   10.7282    0.8100    0.0000 C   0  0  0  0  0  0  0  0  0  0  0  0
    8.9962   -1.1900    0.0000 C   0  0  0  0  0  0  0  0  0  0  0  0
   11.5942    0.3100    0.0000 C   0  0  0  0  0  0  0  0  0  0  0  0
   12.4603    0.8100    0.0000 C   0  0  0  0  0  0  0  0  0  0  0  0
    6.3981    0.3100    0.0000 C   0  0  0  0  0  0  0  0  0  0  0  0
    5.5321    0.8100    0.0000 C   0  0  0  0  0  0  0  0  0  0  0  0
    3.8000    0.8100    0.0000 C   0  0  0  0  0  0  0  0  0  0  0  0
    3.8000    1.8100    0.0000 C   0  0  0  0  0  0  0  0  0  0  0  0
   13.3263    0.3100    0.0000 C   0  0  0  0  0  0  0  0  0  0  0  0
    5.5321    1.8100    0.0000 C   0  0  0  0  0  0  0  0  0  0  0  0
   14.1923    0.8100    0.0000 C   0  0  0  0  0  0  0  0  0  0  0  0
   12.4603    1.8100    0.0000 C   0  0  0  0  0  0  0  0  0  0  0  0
    8.9962   -2.1900    0.0000 C   0  0  0  0  0  0  0  0  0  0  0  0
    4.6660    2.3100    0.0000 C   0  0  0  0  0  0  0  0  0  0  0  0
    2.9061    0.2753    0.0000 C   0  0  0  0  0  0  0  0  0  0  0  0
   14.1923    1.8100    0.0000 C   0  0  0  0  0  0  0  0  0  0  0  0
   13.3263    2.3100    0.0000 C   0  0  0  0  0  0  0  0  0  0  0  0
    2.9061    2.3447    0.0000 C   0  0  0  0  0  0  0  0  0  0  0  0
    2.0000    0.7892    0.0000 C   0  0  0  0  0  0  0  0  0  0  0  0
    2.0000    1.8308    0.0000 C   0  0  0  0  0  0  0  0  0  0  0  0
    7.5932    0.0000    0.0000 H   0  0  0  0  0  0  0  0  0  0  0  0
    7.5196   -0.5823    0.0000 H   0  0  0  0  0  0  0  0  0  0  0  0
    7.9181   -1.2726    0.0000 H   0  0  0  0  0  0  0  0  0  0  0  0
    7.2641    1.4300    0.0000 H   0  0  0  0  0  0  0  0  0  0  0  0
   11.1267    1.2850    0.0000 H   0  0  0  0  0  0  0  0  0  0  0  0
   10.3297    1.2850    0.0000 H   0  0  0  0  0  0  0  0  0  0  0  0
    9.6067   -1.2977    0.0000 H   0  0  0  0  0  0  0  0  0  0  0  0
    9.2082   -0.6074    0.0000 H   0  0  0  0  0  0  0  0  0  0  0  0
   11.1957   -0.1649    0.0000 H   0  0  0  0  0  0  0  0  0  0  0  0
   11.9928   -0.1649    0.0000 H   0  0  0  0  0  0  0  0  0  0  0  0
    9.8622   -0.3100    0.0000 H   0  0  0  0  0  0  0  0  0  0  0  0
    4.6660   -0.3100    0.0000 H   0  0  0  0  0  0  0  0  0  0  0  0
    6.0690    2.1200    0.0000 H   0  0  0  0  0  0  0  0  0  0  0  0
   14.4044    0.2274    0.0000 H   0  0  0  0  0  0  0  0  0  0  0  0
   14.8029    0.9177    0.0000 H   0  0  0  0  0  0  0  0  0  0  0  0
   11.9233    2.1200    0.0000 H   0  0  0  0  0  0  0  0  0  0  0  0
   14.7292    2.1200    0.0000 H   0  0  0  0  0  0  0  0  0  0  0  0
   13.3263    2.9300    0.0000 H   0  0  0  0  0  0  0  0  0  0  0  0
    2.9132    2.9646    0.0000 H   0  0  0  0  0  0  0  0  0  0  0  0
    1.4643    0.4771    0.0000 H   0  0  0  0  0  0  0  0  0  0  0  0
    1.4643    2.1429    0.0000 H   0  0  0  0  0  0  0  0  0  0  0  0
    9.8622   -3.3100    0.0000 H   0  0  0  0  0  0  0  0  0  0  0  0
    2.3843   -1.0408    0.0000 H   0  0  0  0  0  0  0  0  0  0  0  0
  1 22  2  0  0  0  0
  2 13  2  0  0  0  0
  3 18  2  0  0  0  0
  4 26  1  0  0  0  0
  4 55  1  0  0  0  0
  5 28  1  0  0  0  0
  5 56  1  0  0  0  0
  6 26  2  0  0  0  0
  7 27  2  0  0  0  0
 11  8  1  6  0  0  0
  8 18  1  0  0  0  0
  8 37  1  0  0  0  0
  9 13  1  0  0  0  0
  9 14  1  0  0  0  0
  9 44  1  0  0  0  0
 10 19  1  0  0  0  0
 10 20  1  0  0  0  0
 10 45  1  0  0  0  0
 11 12  1  0  0  0  0
 11 13  1  0  0  0  0
 11 34  1  0  0  0  0
 12 15  1  0  0  0  0
 12 35  1  0  0  0  0
 12 36  1  0  0  0  0
 14 16  1  0  0  0  0
 14 38  1  0  0  0  0
 14 39  1  0  0  0  0
 15 26  1  0  0  0  0
 15 40  1  0  0  0  0
 15 41  1  0  0  0  0
 16 17  1  0  0  0  0
 16 42  1  0  0  0  0
 16 43  1  0  0  0  0
 17 22  1  0  0  0  0
 17 25  2  0  0  0  0
 18 19  1  0  0  0  0
 19 23  2  0  0  0  0
 20 21  2  0  0  0  0
 20 28  1  0  0  0  0
 21 27  1  0  0  0  0
 21 31  1  0  0  0  0
 22 24  1  0  0  0  0
 23 27  1  0  0  0  0
 23 46  1  0  0  0  0
 24 29  1  0  0  0  0
 24 47  1  0  0  0  0
 24 48  1  0  0  0  0
 25 30  1  0  0  0  0
 25 49  1  0  0  0  0
 28 32  2  0  0  0  0
 29 30  2  0  0  0  0
 29 50  1  0  0  0  0
 30 51  1  0  0  0  0
 31 33  2  0  0  0  0
 31 52  1  0  0  0  0
 32 33  1  0  0  0  0
 32 53  1  0  0  0  0
 33 54  1  0  0  0  0
M  END
> <PUBCHEM_COMPOUND_CID>
504870
> <PUBCHEM_COMPOUND_CANONICALIZED>
1
> <PUBCHEM_CACTVS_COMPLEXITY>
925
> <PUBCHEM_CACTVS_HBOND_ACCEPTOR>
8
> <PUBCHEM_CACTVS_HBOND_DONOR>
5
> <PUBCHEM_CACTVS_ROTATABLE_BOND>
9
> <PUBCHEM_CACTVS_SUBSKEYS>
AAADceB7OABAAAAAAAAAAAAAAAAAAAAAAAAwQIAAAAAAAACBAAAAHgQQCAAADCzB2AQwzoLAAgCMAqXSWACCAAAlIgAIiIGPTMgKZjrSlbOUcYhk1hHY2ce+37KOAAABAAACEAAAAAIAAAQgAAAAAAAAAA==
> <PUBCHEM_IUPAC_OPENEYE_NAME>
(4S)-4-[(8-hydroxy-4-oxo-1H-quinoline-2-carbonyl)amino]-5-oxo-5-[2-(6-thioxocyclohexa-1,3-dien-1-yl)ethylamino]pentanoic acid
> <PUBCHEM_IUPAC_CAS_NAME>
(4S)-4-[[(8-hydroxy-4-oxo-1H-quinolin-2-yl)-oxomethyl]amino]-5-oxo-5-[2-(6-sulfanylidene-1-cyclohexa-1,3-dienyl)ethylamino]pentanoic acid
> <PUBCHEM_IUPAC_NAME_MARKUP>
(4<I>S</I>)-4-[(8-hydroxy-4-oxo-1<I>H</I>-quinoline-2-carbonyl)amino]-5-oxo-5-[2-(6-sulfanylidenecyclohexa-1,3-dien-1-yl)ethylamino]pentanoic acid
> <PUBCHEM_IUPAC_NAME>
(4S)-4-[(8-hydroxy-4-oxo-1H-quinoline-2-carbonyl)amino]-5-oxo-5-[2-(6-sulfanylidenecyclohexa-1,3-dien-1-yl)ethylamino]pentanoic acid
> <PUBCHEM_IUPAC_SYSTEMATIC_NAME>
(4S)-5-oxidanylidene-4-[(8-oxidanyl-4-oxidanylidene-1H-quinolin-2-yl)carbonylamino]-5-[2-(6-sulfanylidenecyclohexa-1,3-dien-1-yl)ethylamino]pentanoic acid
> <PUBCHEM_IUPAC_TRADITIONAL_NAME>
(4S)-4-[(8-hydroxy-4-keto-1H-quinoline-2-carbonyl)amino]-5-keto-5-[2-(6-thioxocyclohexa-1,3-dien-1-yl)ethylamino]valeric acid
> <PUBCHEM_IUPAC_INCHI>
InChI=1S/C23H23N3O6S/c27-17-6-3-5-14-18(28)12-16(25-21(14)17)23(32)26-15(8-9-20(29)30)22(31)24-11-10-13-4-1-2-7-19(13)33/h1-6,12,15,27H,7-11H2,(H,24,31)(H,25,28)(H,26,32)(H,29,30)/t15-/m0/s1
> <PUBCHEM_IUPAC_INCHIKEY>
KHULDIPQQGXBCB-HNNXBMFYSA-N
> <PUBCHEM_XLOGP3_AA>
1.6
> <PUBCHEM_EXACT_MASS>
469.13075664
> <PUBCHEM_MOLECULAR_FORMULA>
C23H23N3O6S
> <PUBCHEM_MOLECULAR_WEIGHT>
469.5
> <PUBCHEM_OPENEYE_CAN_SMILES>
C1C=CC=C(C1=S)CCNC(=O)C(CCC(=O)O)NC(=O)C2=CC(=O)C3=C(N2)C(=CC=C3)O
> <PUBCHEM_OPENEYE_ISO_SMILES>
C1C=CC=C(C1=S)CCNC(=O)[C@H](CCC(=O)O)NC(=O)C2=CC(=O)C3=C(N2)C(=CC=C3)O
> <PUBCHEM_CACTVS_TPSA>
177
> <PUBCHEM_MONOISOTOPIC_WEIGHT>
469.13075664
> <PUBCHEM_TOTAL_CHARGE>
0
> <PUBCHEM_HEAVY_ATOM_COUNT>
33
> <PUBCHEM_ATOM_DEF_STEREO_COUNT>
1
> <PUBCHEM_ATOM_UDEF_STEREO_COUNT>
0
> <PUBCHEM_BOND_DEF_STEREO_COUNT>
0
> <PUBCHEM_BOND_UDEF_STEREO_COUNT>
0
> <PUBCHEM_ISOTOPIC_ATOM_COUNT>
0
> <PUBCHEM_COMPONENT_COUNT>
1
> <PUBCHEM_CACTVS_TAUTO_COUNT>
-1
> <PUBCHEM_COORDINATE_TYPE>
1
5
255
> <PUBCHEM_BONDANNOTATIONS>
10  19  8
10  20  8
19  23  8
20  21  8
20  28  8
21  27  8
21  31  8
23  27  8
28  32  8
31  33  8
32  33  8
11  8  6
$$$$
