504850
  -OEChem-10302200282D
 91 96  0     1  0  0  0  0  0999 V2000
    8.0114   -1.0442    0.0000 O   0  0  0  0  0  0  0  0  0  0  0  0
    8.9962    3.1294    0.0000 O   0  0  0  0  0  0  0  0  0  0  0  0
    6.3981    0.6294    0.0000 O   0  0  0  0  0  0  0  0  0  0  0  0
   11.5942    0.6294    0.0000 O   0  0  0  0  0  0  0  0  0  0  0  0
    4.6660    4.6294    0.0000 O   0  0  0  0  0  0  0  0  0  0  0  0
    2.9176    0.5948    0.0000 O   0  0  0  0  0  0  0  0  0  0  0  0
   11.5942    4.6294    0.0000 O   0  0  0  0  0  0  0  0  0  0  0  0
    9.8622   -1.3706    0.0000 N   0  0  0  0  0  0  0  0  0  0  0  0
    7.2641    2.1294    0.0000 N   0  0  0  0  0  0  0  0  0  0  0  0
    9.8622    1.6294    0.0000 N   0  0  0  0  0  0  0  0  0  0  0  0
    4.6660    1.6294    0.0000 N   0  0  0  0  0  0  0  0  0  0  0  0
   10.2043   -2.3103    0.0000 C   0  0  0  0  0  0  0  0  0  0  0  0
   10.5463   -3.2500    0.0000 C   0  0  0  0  0  0  0  0  0  0  0  0
   11.1439   -1.9683    0.0000 C   0  0  0  0  0  0  0  0  0  0  0  0
    9.2645   -2.6523    0.0000 C   0  0  0  0  0  0  0  0  0  0  0  0
    8.9962    0.1294    0.0000 C   0  0  0  0  0  0  0  0  0  0  0  0
    8.1301    0.6294    0.0000 C   0  0  0  0  0  0  0  0  0  0  0  0
    8.9962   -0.8706    0.0000 C   0  0  0  0  0  0  0  0  0  0  0  0
    8.1301    1.6294    0.0000 C   0  0  1  0  0  0  0  0  0  0  0  0
    9.9035   -4.0161    0.0000 C   0  0  0  0  0  0  0  0  0  0  0  0
   11.9099   -2.6111    0.0000 C   0  0  0  0  0  0  0  0  0  0  0  0
    8.4984   -2.0095    0.0000 C   0  0  0  0  0  0  0  0  0  0  0  0
   11.5310   -3.4237    0.0000 C   0  0  0  0  0  0  0  0  0  0  0  0
   11.3175   -0.9835    0.0000 C   0  0  0  0  0  0  0  0  0  0  0  0
    9.0909   -3.6372    0.0000 C   0  0  0  0  0  0  0  0  0  0  0  0
    8.9962    2.1294    0.0000 C   0  0  0  0  0  0  0  0  0  0  0  0
   10.2455   -4.9558    0.0000 C   0  0  0  0  0  0  0  0  0  0  0  0
   12.8496   -2.2691    0.0000 C   0  0  0  0  0  0  0  0  0  0  0  0
    7.5587   -2.3515    0.0000 C   0  0  0  0  0  0  0  0  0  0  0  0
   11.8731   -4.3634    0.0000 C   0  0  0  0  0  0  0  0  0  0  0  0
   12.2572   -0.6415    0.0000 C   0  0  0  0  0  0  0  0  0  0  0  0
    8.1512   -3.9792    0.0000 C   0  0  0  0  0  0  0  0  0  0  0  0
   11.2304   -5.1294    0.0000 C   0  0  0  0  0  0  0  0  0  0  0  0
   13.0233   -1.2843    0.0000 C   0  0  0  0  0  0  0  0  0  0  0  0
    7.3851   -3.3363    0.0000 C   0  0  0  0  0  0  0  0  0  0  0  0
    6.3981    1.6294    0.0000 C   0  0  0  0  0  0  0  0  0  0  0  0
    5.5321    2.1294    0.0000 C   0  0  0  0  0  0  0  0  0  0  0  0
   10.7282    2.1294    0.0000 C   0  0  0  0  0  0  0  0  0  0  0  0
    3.8000    2.1294    0.0000 C   0  0  0  0  0  0  0  0  0  0  0  0
    5.5321    3.1294    0.0000 C   0  0  0  0  0  0  0  0  0  0  0  0
    3.8000    3.1294    0.0000 C   0  0  0  0  0  0  0  0  0  0  0  0
    4.6660    3.6294    0.0000 C   0  0  0  0  0  0  0  0  0  0  0  0
   11.5942    1.6294    0.0000 C   0  0  0  0  0  0  0  0  0  0  0  0
   10.7282    3.1294    0.0000 C   0  0  0  0  0  0  0  0  0  0  0  0
    2.9061    1.5947    0.0000 C   0  0  0  0  0  0  0  0  0  0  0  0
    2.9061    3.6640    0.0000 C   0  0  0  0  0  0  0  0  0  0  0  0
   11.5942    3.6294    0.0000 C   0  0  0  0  0  0  0  0  0  0  0  0
   12.4603    2.1294    0.0000 C   0  0  0  0  0  0  0  0  0  0  0  0
    2.0000    2.1086    0.0000 C   0  0  0  0  0  0  0  0  0  0  0  0
    2.0000    3.1502    0.0000 C   0  0  0  0  0  0  0  0  0  0  0  0
   12.4603    3.1294    0.0000 C   0  0  0  0  0  0  0  0  0  0  0  0
   12.4603    0.1294    0.0000 C   0  0  0  0  0  0  0  0  0  0  0  0
   12.4603    5.1294    0.0000 C   0  0  0  0  0  0  0  0  0  0  0  0
   10.3991   -1.0606    0.0000 H   0  0  0  0  0  0  0  0  0  0  0  0
    9.6067    0.0217    0.0000 H   0  0  0  0  0  0  0  0  0  0  0  0
    9.2082    0.7120    0.0000 H   0  0  0  0  0  0  0  0  0  0  0  0
    7.5196    0.7370    0.0000 H   0  0  0  0  0  0  0  0  0  0  0  0
    7.9181    0.0468    0.0000 H   0  0  0  0  0  0  0  0  0  0  0  0
    8.1301    2.2494    0.0000 H   0  0  0  0  0  0  0  0  0  0  0  0
    9.2929   -3.9084    0.0000 H   0  0  0  0  0  0  0  0  0  0  0  0
   11.8023   -3.2217    0.0000 H   0  0  0  0  0  0  0  0  0  0  0  0
    8.6061   -1.3989    0.0000 H   0  0  0  0  0  0  0  0  0  0  0  0
   11.9296   -2.9487    0.0000 H   0  0  0  0  0  0  0  0  0  0  0  0
   10.8426   -0.5850    0.0000 H   0  0  0  0  0  0  0  0  0  0  0  0
    9.5658   -4.0357    0.0000 H   0  0  0  0  0  0  0  0  0  0  0  0
    7.2641    2.7494    0.0000 H   0  0  0  0  0  0  0  0  0  0  0  0
    9.8470   -5.4307    0.0000 H   0  0  0  0  0  0  0  0  0  0  0  0
   13.3246   -2.6676    0.0000 H   0  0  0  0  0  0  0  0  0  0  0  0
    7.0838   -1.9530    0.0000 H   0  0  0  0  0  0  0  0  0  0  0  0
   12.4836   -4.4710    0.0000 H   0  0  0  0  0  0  0  0  0  0  0  0
   12.3649   -0.0309    0.0000 H   0  0  0  0  0  0  0  0  0  0  0  0
    8.0435   -4.5897    0.0000 H   0  0  0  0  0  0  0  0  0  0  0  0
   11.4424   -5.7120    0.0000 H   0  0  0  0  0  0  0  0  0  0  0  0
   13.6059   -1.0722    0.0000 H   0  0  0  0  0  0  0  0  0  0  0  0
    6.8025   -3.5484    0.0000 H   0  0  0  0  0  0  0  0  0  0  0  0
    9.8622    1.0094    0.0000 H   0  0  0  0  0  0  0  0  0  0  0  0
    4.6660    1.0094    0.0000 H   0  0  0  0  0  0  0  0  0  0  0  0
    6.0690    3.4394    0.0000 H   0  0  0  0  0  0  0  0  0  0  0  0
   10.1913    3.4394    0.0000 H   0  0  0  0  0  0  0  0  0  0  0  0
    2.9132    4.2840    0.0000 H   0  0  0  0  0  0  0  0  0  0  0  0
   12.9972    1.8194    0.0000 H   0  0  0  0  0  0  0  0  0  0  0  0
    1.4643    1.7965    0.0000 H   0  0  0  0  0  0  0  0  0  0  0  0
    1.4643    3.4622    0.0000 H   0  0  0  0  0  0  0  0  0  0  0  0
   12.9972    3.4394    0.0000 H   0  0  0  0  0  0  0  0  0  0  0  0
    2.3843    0.2786    0.0000 H   0  0  0  0  0  0  0  0  0  0  0  0
   12.1503   -0.4076    0.0000 H   0  0  0  0  0  0  0  0  0  0  0  0
   12.9972   -0.1806    0.0000 H   0  0  0  0  0  0  0  0  0  0  0  0
   12.7703    0.6663    0.0000 H   0  0  0  0  0  0  0  0  0  0  0  0
   12.7703    4.5924    0.0000 H   0  0  0  0  0  0  0  0  0  0  0  0
   12.9972    5.4394    0.0000 H   0  0  0  0  0  0  0  0  0  0  0  0
   12.1503    5.6663    0.0000 H   0  0  0  0  0  0  0  0  0  0  0  0
  1 18  2  0  0  0  0
  2 26  2  0  0  0  0
  3 36  2  0  0  0  0
  4 43  1  0  0  0  0
  4 52  1  0  0  0  0
  5 42  2  0  0  0  0
  6 45  1  0  0  0  0
  6 85  1  0  0  0  0
  7 47  1  0  0  0  0
  7 53  1  0  0  0  0
  8 12  1  0  0  0  0
  8 18  1  0  0  0  0
  8 54  1  0  0  0  0
 19  9  1  6  0  0  0
  9 36  1  0  0  0  0
  9 66  1  0  0  0  0
 10 26  1  0  0  0  0
 10 38  1  0  0  0  0
 10 76  1  0  0  0  0
 11 37  1  0  0  0  0
 11 39  1  0  0  0  0
 11 77  1  0  0  0  0
 12 13  1  0  0  0  0
 12 14  1  0  0  0  0
 12 15  1  0  0  0  0
 13 20  2  0  0  0  0
 13 23  1  0  0  0  0
 14 21  2  0  0  0  0
 14 24  1  0  0  0  0
 15 22  2  0  0  0  0
 15 25  1  0  0  0  0
 16 17  1  0  0  0  0
 16 18  1  0  0  0  0
 16 55  1  0  0  0  0
 16 56  1  0  0  0  0
 17 19  1  0  0  0  0
 17 57  1  0  0  0  0
 17 58  1  0  0  0  0
 19 26  1  0  0  0  0
 19 59  1  0  0  0  0
 20 27  1  0  0  0  0
 20 60  1  0  0  0  0
 21 28  1  0  0  0  0
 21 61  1  0  0  0  0
 22 29  1  0  0  0  0
 22 62  1  0  0  0  0
 23 30  2  0  0  0  0
 23 63  1  0  0  0  0
 24 31  2  0  0  0  0
 24 64  1  0  0  0  0
 25 32  2  0  0  0  0
 25 65  1  0  0  0  0
 27 33  2  0  0  0  0
 27 67  1  0  0  0  0
 28 34  2  0  0  0  0
 28 68  1  0  0  0  0
 29 35  2  0  0  0  0
 29 69  1  0  0  0  0
 30 33  1  0  0  0  0
 30 70  1  0  0  0  0
 31 34  1  0  0  0  0
 31 71  1  0  0  0  0
 32 35  1  0  0  0  0
 32 72  1  0  0  0  0
 33 73  1  0  0  0  0
 34 74  1  0  0  0  0
 35 75  1  0  0  0  0
 36 37  1  0  0  0  0
 37 40  2  0  0  0  0
 38 43  2  0  0  0  0
 38 44  1  0  0  0  0
 39 41  2  0  0  0  0
 39 45  1  0  0  0  0
 40 42  1  0  0  0  0
 40 78  1  0  0  0  0
 41 42  1  0  0  0  0
 41 46  1  0  0  0  0
 43 48  1  0  0  0  0
 44 47  2  0  0  0  0
 44 79  1  0  0  0  0
 45 49  2  0  0  0  0
 46 50  2  0  0  0  0
 46 80  1  0  0  0  0
 47 51  1  0  0  0  0
 48 51  2  0  0  0  0
 48 81  1  0  0  0  0
 49 50  1  0  0  0  0
 49 82  1  0  0  0  0
 50 83  1  0  0  0  0
 51 84  1  0  0  0  0
 52 86  1  0  0  0  0
 52 87  1  0  0  0  0
 52 88  1  0  0  0  0
 53 89  1  0  0  0  0
 53 90  1  0  0  0  0
 53 91  1  0  0  0  0
M  END
> <PUBCHEM_COMPOUND_CID>
504850
> <PUBCHEM_COMPOUND_CANONICALIZED>
1
> <PUBCHEM_CACTVS_COMPLEXITY>
1240
> <PUBCHEM_CACTVS_HBOND_ACCEPTOR>
8
> <PUBCHEM_CACTVS_HBOND_DONOR>
5
> <PUBCHEM_CACTVS_ROTATABLE_BOND>
13
> <PUBCHEM_CACTVS_SUBSKEYS>
AAADcfB/uAAAAAAAAAAAAAAAAAAAAAAAAAAwYMGDAAAAAACBVAAAHgAQCAAADKzBmAYyxoLABgCIAqVSUACCCAAlIgAIiIGPbMgOZjrWtbuVcahm1hnY+cfe2/OOgQABAgACEAACAAIEAAQgAAAAAAAAAA==
> <PUBCHEM_IUPAC_OPENEYE_NAME>
(2S)-N-(2,5-dimethoxyphenyl)-2-[(8-hydroxy-4-oxo-1H-quinoline-2-carbonyl)amino]-N'-trityl-pentanediamide
> <PUBCHEM_IUPAC_CAS_NAME>
(2S)-N-(2,5-dimethoxyphenyl)-2-[[(8-hydroxy-4-oxo-1H-quinolin-2-yl)-oxomethyl]amino]-N'-(triphenylmethyl)pentanediamide
> <PUBCHEM_IUPAC_NAME_MARKUP>
(2<I>S</I>)-<I>N</I>-(2,5-dimethoxyphenyl)-2-[(8-hydroxy-4-oxo-1<I>H</I>-quinoline-2-carbonyl)amino]-<I>N</I>&apos;-tritylpentanediamide
> <PUBCHEM_IUPAC_NAME>
(2S)-N-(2,5-dimethoxyphenyl)-2-[(8-hydroxy-4-oxo-1H-quinoline-2-carbonyl)amino]-N'-tritylpentanediamide
> <PUBCHEM_IUPAC_SYSTEMATIC_NAME>
(2S)-N-(2,5-dimethoxyphenyl)-2-[(8-oxidanyl-4-oxidanylidene-1H-quinolin-2-yl)carbonylamino]-N'-(triphenylmethyl)pentanediamide
> <PUBCHEM_IUPAC_TRADITIONAL_NAME>
(2S)-N-(2,5-dimethoxyphenyl)-2-[(8-hydroxy-4-keto-1H-quinoline-2-carbonyl)amino]-N'-trityl-glutaramide
> <PUBCHEM_IUPAC_INCHI>
InChI=1S/C42H38N4O7/c1-52-30-21-23-37(53-2)33(25-30)45-40(50)32(44-41(51)34-26-36(48)31-19-12-20-35(47)39(31)43-34)22-24-38(49)46-42(27-13-6-3-7-14-27,28-15-8-4-9-16-28)29-17-10-5-11-18-29/h3-21,23,25-26,32,47H,22,24H2,1-2H3,(H,43,48)(H,44,51)(H,45,50)(H,46,49)/t32-/m0/s1
> <PUBCHEM_IUPAC_INCHIKEY>
UYFJOVBKHRXFRW-YTTGMZPUSA-N
> <PUBCHEM_XLOGP3_AA>
5.8
> <PUBCHEM_EXACT_MASS>
710.27404956
> <PUBCHEM_MOLECULAR_FORMULA>
C42H38N4O7
> <PUBCHEM_MOLECULAR_WEIGHT>
710.8
> <PUBCHEM_OPENEYE_CAN_SMILES>
COC1=CC(=C(C=C1)OC)NC(=O)C(CCC(=O)NC(C2=CC=CC=C2)(C3=CC=CC=C3)C4=CC=CC=C4)NC(=O)C5=CC(=O)C6=C(N5)C(=CC=C6)O
> <PUBCHEM_OPENEYE_ISO_SMILES>
COC1=CC(=C(C=C1)OC)NC(=O)[C@H](CCC(=O)NC(C2=CC=CC=C2)(C3=CC=CC=C3)C4=CC=CC=C4)NC(=O)C5=CC(=O)C6=C(N5)C(=CC=C6)O
> <PUBCHEM_CACTVS_TPSA>
155
> <PUBCHEM_MONOISOTOPIC_WEIGHT>
710.27404956
> <PUBCHEM_TOTAL_CHARGE>
0
> <PUBCHEM_HEAVY_ATOM_COUNT>
53
> <PUBCHEM_ATOM_DEF_STEREO_COUNT>
1
> <PUBCHEM_ATOM_UDEF_STEREO_COUNT>
0
> <PUBCHEM_BOND_DEF_STEREO_COUNT>
0
> <PUBCHEM_BOND_UDEF_STEREO_COUNT>
0
> <PUBCHEM_ISOTOPIC_ATOM_COUNT>
0
> <PUBCHEM_COMPONENT_COUNT>
1
> <PUBCHEM_CACTVS_TAUTO_COUNT>
-1
> <PUBCHEM_COORDINATE_TYPE>
1
5
255
> <PUBCHEM_BONDANNOTATIONS>
11  37  8
11  39  8
13  20  8
13  23  8
14  21  8
14  24  8
15  22  8
15  25  8
20  27  8
21  28  8
22  29  8
23  30  8
24  31  8
25  32  8
27  33  8
28  34  8
29  35  8
30  33  8
31  34  8
32  35  8
37  40  8
38  43  8
38  44  8
39  41  8
39  45  8
40  42  8
41  42  8
41  46  8
43  48  8
44  47  8
45  49  8
46  50  8
47  51  8
48  51  8
49  50  8
19  9  6
$$$$
