504868
  -OEChem-10302200282D
 66 69  0     1  0  0  0  0  0999 V2000
   12.7619    2.3662    0.0000 S   0  0  0  0  0  0  0  0  0  0  0  0
    2.3176   -4.9643    0.0000 F   0  0  0  0  0  0  0  0  0  0  0  0
    6.7619   -1.0979    0.0000 O   0  0  0  0  0  0  0  0  0  0  0  0
    7.7619    2.3662    0.0000 O   0  0  0  0  0  0  0  0  0  0  0  0
   10.7619   -1.0979    0.0000 O   0  0  0  0  0  0  0  0  0  0  0  0
    9.2619   -1.9639    0.0000 O   0  0  0  0  0  0  0  0  0  0  0  0
    4.6783   -1.0366    0.0000 N   0  0  0  0  0  0  0  0  0  0  0  0
    6.7619    0.6342    0.0000 N   0  0  0  0  0  0  0  0  0  0  0  0
    9.2619    1.5002    0.0000 N   0  0  0  0  0  0  0  0  0  0  0  0
    7.7619    0.6342    0.0000 C   0  0  1  0  0  0  0  0  0  0  0  0
    5.2619   -0.2318    0.0000 C   0  0  0  0  0  0  0  0  0  0  0  0
    3.7320   -0.7318    0.0000 C   0  0  0  0  0  0  0  0  0  0  0  0
    3.7320    0.2682    0.0000 C   0  0  0  0  0  0  0  0  0  0  0  0
    8.2619   -0.2318    0.0000 C   0  0  0  0  0  0  0  0  0  0  0  0
    4.9889   -1.9871    0.0000 C   0  0  0  0  0  0  0  0  0  0  0  0
    4.6783    0.5729    0.0000 C   0  0  0  0  0  0  0  0  0  0  0  0
    6.2619   -0.2318    0.0000 C   0  0  0  0  0  0  0  0  0  0  0  0
    8.2619    1.5002    0.0000 C   0  0  0  0  0  0  0  0  0  0  0  0
    9.2619   -0.2318    0.0000 C   0  0  0  0  0  0  0  0  0  0  0  0
    2.8660   -1.2318    0.0000 C   0  0  0  0  0  0  0  0  0  0  0  0
    4.3211   -2.7314    0.0000 C   0  0  0  0  0  0  0  0  0  0  0  0
    2.8660    0.7682    0.0000 C   0  0  0  0  0  0  0  0  0  0  0  0
    9.7619    2.3662    0.0000 C   0  0  0  0  0  0  0  0  0  0  0  0
   10.7619    2.3662    0.0000 C   0  0  0  0  0  0  0  0  0  0  0  0
    2.0000   -0.7318    0.0000 C   0  0  0  0  0  0  0  0  0  0  0  0
    2.0000    0.2682    0.0000 C   0  0  0  0  0  0  0  0  0  0  0  0
   11.2619    3.2322    0.0000 C   0  0  0  0  0  0  0  0  0  0  0  0
    4.6318   -3.6819    0.0000 C   0  0  0  0  0  0  0  0  0  0  0  0
    3.3426   -2.5252    0.0000 C   0  0  0  0  0  0  0  0  0  0  0  0
    9.7619   -1.0979    0.0000 C   0  0  0  0  0  0  0  0  0  0  0  0
   12.2619    3.2322    0.0000 C   0  0  0  0  0  0  0  0  0  0  0  0
   12.7619    4.0983    0.0000 C   0  0  0  0  0  0  0  0  0  0  0  0
   10.7619    4.0983    0.0000 C   0  0  0  0  0  0  0  0  0  0  0  0
    3.9639   -4.4262    0.0000 C   0  0  0  0  0  0  0  0  0  0  0  0
    2.6747   -3.2695    0.0000 C   0  0  0  0  0  0  0  0  0  0  0  0
    2.9854   -4.2200    0.0000 C   0  0  0  0  0  0  0  0  0  0  0  0
   12.2619    4.9643    0.0000 C   0  0  0  0  0  0  0  0  0  0  0  0
   11.2619    4.9643    0.0000 C   0  0  0  0  0  0  0  0  0  0  0  0
    7.4519    0.0972    0.0000 H   0  0  0  0  0  0  0  0  0  0  0  0
    7.6793   -0.4439    0.0000 H   0  0  0  0  0  0  0  0  0  0  0  0
    8.3695   -0.8424    0.0000 H   0  0  0  0  0  0  0  0  0  0  0  0
    5.3715   -2.4750    0.0000 H   0  0  0  0  0  0  0  0  0  0  0  0
    5.5359   -1.6951    0.0000 H   0  0  0  0  0  0  0  0  0  0  0  0
    4.8709    1.1622    0.0000 H   0  0  0  0  0  0  0  0  0  0  0  0
    6.4519    1.1711    0.0000 H   0  0  0  0  0  0  0  0  0  0  0  0
    9.8445   -0.0198    0.0000 H   0  0  0  0  0  0  0  0  0  0  0  0
    9.1542    0.3787    0.0000 H   0  0  0  0  0  0  0  0  0  0  0  0
    2.8660   -1.8518    0.0000 H   0  0  0  0  0  0  0  0  0  0  0  0
    2.8660    1.3882    0.0000 H   0  0  0  0  0  0  0  0  0  0  0  0
    9.8695    2.9768    0.0000 H   0  0  0  0  0  0  0  0  0  0  0  0
    9.1793    2.5783    0.0000 H   0  0  0  0  0  0  0  0  0  0  0  0
    9.5719    0.9633    0.0000 H   0  0  0  0  0  0  0  0  0  0  0  0
   10.6542    1.7556    0.0000 H   0  0  0  0  0  0  0  0  0  0  0  0
   11.3445    2.1542    0.0000 H   0  0  0  0  0  0  0  0  0  0  0  0
    1.4631   -1.0418    0.0000 H   0  0  0  0  0  0  0  0  0  0  0  0
    1.4631    0.5782    0.0000 H   0  0  0  0  0  0  0  0  0  0  0  0
    5.2384   -3.8098    0.0000 H   0  0  0  0  0  0  0  0  0  0  0  0
    3.1500   -1.9359    0.0000 H   0  0  0  0  0  0  0  0  0  0  0  0
   13.2368    3.6998    0.0000 H   0  0  0  0  0  0  0  0  0  0  0  0
   13.2368    4.4968    0.0000 H   0  0  0  0  0  0  0  0  0  0  0  0
   10.1419    4.0983    0.0000 H   0  0  0  0  0  0  0  0  0  0  0  0
    4.1565   -5.0156    0.0000 H   0  0  0  0  0  0  0  0  0  0  0  0
    2.0681   -3.1416    0.0000 H   0  0  0  0  0  0  0  0  0  0  0  0
   12.5719    5.5012    0.0000 H   0  0  0  0  0  0  0  0  0  0  0  0
   10.9519    5.5012    0.0000 H   0  0  0  0  0  0  0  0  0  0  0  0
   11.0719   -1.6348    0.0000 H   0  0  0  0  0  0  0  0  0  0  0  0
  1 31  2  0  0  0  0
  2 36  1  0  0  0  0
  3 17  2  0  0  0  0
  4 18  2  0  0  0  0
  5 30  1  0  0  0  0
  5 66  1  0  0  0  0
  6 30  2  0  0  0  0
  7 11  1  0  0  0  0
  7 12  1  0  0  0  0
  7 15  1  0  0  0  0
 10  8  1  6  0  0  0
  8 17  1  0  0  0  0
  8 45  1  0  0  0  0
  9 18  1  0  0  0  0
  9 23  1  0  0  0  0
  9 52  1  0  0  0  0
 10 14  1  0  0  0  0
 10 18  1  0  0  0  0
 10 39  1  0  0  0  0
 11 16  2  0  0  0  0
 11 17  1  0  0  0  0
 12 13  1  0  0  0  0
 12 20  2  0  0  0  0
 13 16  1  0  0  0  0
 13 22  2  0  0  0  0
 14 19  1  0  0  0  0
 14 40  1  0  0  0  0
 14 41  1  0  0  0  0
 15 21  1  0  0  0  0
 15 42  1  0  0  0  0
 15 43  1  0  0  0  0
 16 44  1  0  0  0  0
 19 30  1  0  0  0  0
 19 46  1  0  0  0  0
 19 47  1  0  0  0  0
 20 25  1  0  0  0  0
 20 48  1  0  0  0  0
 21 28  2  0  0  0  0
 21 29  1  0  0  0  0
 22 26  1  0  0  0  0
 22 49  1  0  0  0  0
 23 24  1  0  0  0  0
 23 50  1  0  0  0  0
 23 51  1  0  0  0  0
 24 27  1  0  0  0  0
 24 53  1  0  0  0  0
 24 54  1  0  0  0  0
 25 26  2  0  0  0  0
 25 55  1  0  0  0  0
 26 56  1  0  0  0  0
 27 31  1  0  0  0  0
 27 33  2  0  0  0  0
 28 34  1  0  0  0  0
 28 57  1  0  0  0  0
 29 35  2  0  0  0  0
 29 58  1  0  0  0  0
 31 32  1  0  0  0  0
 32 37  1  0  0  0  0
 32 59  1  0  0  0  0
 32 60  1  0  0  0  0
 33 38  1  0  0  0  0
 33 61  1  0  0  0  0
 34 36  2  0  0  0  0
 34 62  1  0  0  0  0
 35 36  1  0  0  0  0
 35 63  1  0  0  0  0
 37 38  2  0  0  0  0
 37 64  1  0  0  0  0
 38 65  1  0  0  0  0
M  END
> <PUBCHEM_COMPOUND_CID>
504868
> <PUBCHEM_COMPOUND_CANONICALIZED>
1
> <PUBCHEM_CACTVS_COMPLEXITY>
946
> <PUBCHEM_CACTVS_HBOND_ACCEPTOR>
6
> <PUBCHEM_CACTVS_HBOND_DONOR>
3
> <PUBCHEM_CACTVS_ROTATABLE_BOND>
11
> <PUBCHEM_CACTVS_SUBSKEYS>
AAADceB7OQBAAAAAAAAAAAAAAAAAAWAAAAAwYIAAAAAAAFgB9AAAHwQQCAAADCjB3gwwyPPMEgCsAyXyXACCgCAnAiAI2KG4ZNgIYPLAlbGUYQhklgDIyYe8n4KeAAAAAAACAAAAAAAAAAQAAAAAAAAAAA==
> <PUBCHEM_IUPAC_OPENEYE_NAME>
(4S)-4-[[1-[(4-fluorophenyl)methyl]indole-2-carbonyl]amino]-5-oxo-5-[2-(6-thioxocyclohexa-1,3-dien-1-yl)ethylamino]pentanoic acid
> <PUBCHEM_IUPAC_CAS_NAME>
(4S)-4-[[[1-[(4-fluorophenyl)methyl]-2-indolyl]-oxomethyl]amino]-5-oxo-5-[2-(6-sulfanylidene-1-cyclohexa-1,3-dienyl)ethylamino]pentanoic acid
> <PUBCHEM_IUPAC_NAME_MARKUP>
(4<I>S</I>)-4-[[1-[(4-fluorophenyl)methyl]indole-2-carbonyl]amino]-5-oxo-5-[2-(6-sulfanylidenecyclohexa-1,3-dien-1-yl)ethylamino]pentanoic acid
> <PUBCHEM_IUPAC_NAME>
(4S)-4-[[1-[(4-fluorophenyl)methyl]indole-2-carbonyl]amino]-5-oxo-5-[2-(6-sulfanylidenecyclohexa-1,3-dien-1-yl)ethylamino]pentanoic acid
> <PUBCHEM_IUPAC_SYSTEMATIC_NAME>
(4S)-4-[[1-[(4-fluorophenyl)methyl]indol-2-yl]carbonylamino]-5-oxidanylidene-5-[2-(6-sulfanylidenecyclohexa-1,3-dien-1-yl)ethylamino]pentanoic acid
> <PUBCHEM_IUPAC_TRADITIONAL_NAME>
(4S)-4-[[1-(4-fluorobenzyl)indole-2-carbonyl]amino]-5-keto-5-[2-(6-thioxocyclohexa-1,3-dien-1-yl)ethylamino]valeric acid
> <PUBCHEM_IUPAC_INCHI>
InChI=1S/C29H28FN3O4S/c30-22-11-9-19(10-12-22)18-33-24-7-3-1-6-21(24)17-25(33)29(37)32-23(13-14-27(34)35)28(36)31-16-15-20-5-2-4-8-26(20)38/h1-7,9-12,17,23H,8,13-16,18H2,(H,31,36)(H,32,37)(H,34,35)/t23-/m0/s1
> <PUBCHEM_IUPAC_INCHIKEY>
DYZFESXKTPIRDX-QHCPKHFHSA-N
> <PUBCHEM_XLOGP3_AA>
4.2
> <PUBCHEM_EXACT_MASS>
533.17845572
> <PUBCHEM_MOLECULAR_FORMULA>
C29H28FN3O4S
> <PUBCHEM_MOLECULAR_WEIGHT>
533.6
> <PUBCHEM_OPENEYE_CAN_SMILES>
C1C=CC=C(C1=S)CCNC(=O)C(CCC(=O)O)NC(=O)C2=CC3=CC=CC=C3N2CC4=CC=C(C=C4)F
> <PUBCHEM_OPENEYE_ISO_SMILES>
C1C=CC=C(C1=S)CCNC(=O)[C@H](CCC(=O)O)NC(=O)C2=CC3=CC=CC=C3N2CC4=CC=C(C=C4)F
> <PUBCHEM_CACTVS_TPSA>
133
> <PUBCHEM_MONOISOTOPIC_WEIGHT>
533.17845572
> <PUBCHEM_TOTAL_CHARGE>
0
> <PUBCHEM_HEAVY_ATOM_COUNT>
38
> <PUBCHEM_ATOM_DEF_STEREO_COUNT>
1
> <PUBCHEM_ATOM_UDEF_STEREO_COUNT>
0
> <PUBCHEM_BOND_DEF_STEREO_COUNT>
0
> <PUBCHEM_BOND_UDEF_STEREO_COUNT>
0
> <PUBCHEM_ISOTOPIC_ATOM_COUNT>
0
> <PUBCHEM_COMPONENT_COUNT>
1
> <PUBCHEM_CACTVS_TAUTO_COUNT>
-1
> <PUBCHEM_COORDINATE_TYPE>
1
5
255
> <PUBCHEM_BONDANNOTATIONS>
11  16  8
12  13  8
12  20  8
13  16  8
13  22  8
20  25  8
21  28  8
21  29  8
22  26  8
25  26  8
28  34  8
29  35  8
34  36  8
35  36  8
7  11  8
7  12  8
10  8  6
$$$$
