504840
  -OEChem-10302200282D
 61 64  0     1  0  0  0  0  0999 V2000
    7.2566    0.4998    0.0000 O   0  0  0  0  0  0  0  0  0  0  0  0
    7.9244   -0.2445    0.0000 O   0  0  0  0  0  0  0  0  0  0  0  0
    4.2746    2.5265    0.0000 O   0  0  0  0  0  0  0  0  0  0  0  0
    3.9174    4.2213    0.0000 O   0  0  0  0  0  0  0  0  0  0  0  0
    9.9745   -5.1228    0.0000 O   0  0  0  0  0  0  0  0  0  0  0  0
   11.9315   -4.7103    0.0000 O   0  0  0  0  0  0  0  0  0  0  0  0
    4.6783   -3.4232    0.0000 N   0  0  0  0  0  0  0  0  0  0  0  0
    6.6353   -1.4013    0.0000 N   0  0  0  0  0  0  0  0  0  0  0  0
    5.6103    1.0379    0.0000 N   0  0  0  0  0  0  0  0  0  0  0  0
    5.9209    1.9884    0.0000 N   0  0  0  0  0  0  0  0  0  0  0  0
    4.9889   -0.8632    0.0000 C   0  0  0  0  0  0  0  0  0  0  0  0
    4.6783   -1.8137    0.0000 C   0  0  0  0  0  0  0  0  0  0  0  0
    5.9674   -0.6570    0.0000 C   0  0  1  0  0  0  0  0  0  0  0  0
    3.7320   -2.1184    0.0000 C   0  0  0  0  0  0  0  0  0  0  0  0
    3.7320   -3.1184    0.0000 C   0  0  0  0  0  0  0  0  0  0  0  0
    5.2619   -2.6184    0.0000 C   0  0  0  0  0  0  0  0  0  0  0  0
    6.2781    0.2936    0.0000 C   0  0  0  0  0  0  0  0  0  0  0  0
    2.8660   -1.6184    0.0000 C   0  0  0  0  0  0  0  0  0  0  0  0
    2.8660   -3.6184    0.0000 C   0  0  0  0  0  0  0  0  0  0  0  0
    2.0000   -2.1184    0.0000 C   0  0  0  0  0  0  0  0  0  0  0  0
    2.0000   -3.1184    0.0000 C   0  0  0  0  0  0  0  0  0  0  0  0
    7.6138   -1.1950    0.0000 C   0  0  0  0  0  0  0  0  0  0  0  0
    8.2816   -1.9394    0.0000 C   0  0  0  0  0  0  0  0  0  0  0  0
    9.2601   -1.7331    0.0000 C   0  0  0  0  0  0  0  0  0  0  0  0
    5.2531    2.7327    0.0000 C   0  0  0  0  0  0  0  0  0  0  0  0
    9.9280   -2.4774    0.0000 C   0  0  0  0  0  0  0  0  0  0  0  0
    5.5637    3.6832    0.0000 C   0  0  0  0  0  0  0  0  0  0  0  0
    9.6173   -3.4280    0.0000 C   0  0  0  0  0  0  0  0  0  0  0  0
   10.9065   -2.2712    0.0000 C   0  0  0  0  0  0  0  0  0  0  0  0
    4.8959    4.4275    0.0000 C   0  0  0  0  0  0  0  0  0  0  0  0
    6.5422    3.8894    0.0000 C   0  0  0  0  0  0  0  0  0  0  0  0
   10.2852   -4.1722    0.0000 C   0  0  0  0  0  0  0  0  0  0  0  0
   11.5743   -3.0155    0.0000 C   0  0  0  0  0  0  0  0  0  0  0  0
   11.2637   -3.9660    0.0000 C   0  0  0  0  0  0  0  0  0  0  0  0
    5.2066    5.3780    0.0000 C   0  0  0  0  0  0  0  0  0  0  0  0
    6.8529    4.8399    0.0000 C   0  0  0  0  0  0  0  0  0  0  0  0
    6.1851    5.5842    0.0000 C   0  0  0  0  0  0  0  0  0  0  0  0
    4.9684   -0.2435    0.0000 H   0  0  0  0  0  0  0  0  0  0  0  0
    4.3751   -0.7758    0.0000 H   0  0  0  0  0  0  0  0  0  0  0  0
    5.7748   -1.2463    0.0000 H   0  0  0  0  0  0  0  0  0  0  0  0
    5.8819   -2.6184    0.0000 H   0  0  0  0  0  0  0  0  0  0  0  0
    4.8709   -4.0125    0.0000 H   0  0  0  0  0  0  0  0  0  0  0  0
    6.4427   -1.9906    0.0000 H   0  0  0  0  0  0  0  0  0  0  0  0
    2.8660   -0.9984    0.0000 H   0  0  0  0  0  0  0  0  0  0  0  0
    2.8660   -4.2384    0.0000 H   0  0  0  0  0  0  0  0  0  0  0  0
    1.4631   -1.8084    0.0000 H   0  0  0  0  0  0  0  0  0  0  0  0
    1.4631   -3.4284    0.0000 H   0  0  0  0  0  0  0  0  0  0  0  0
    5.0036    0.9100    0.0000 H   0  0  0  0  0  0  0  0  0  0  0  0
    8.0890   -2.5287    0.0000 H   0  0  0  0  0  0  0  0  0  0  0  0
    6.5276    2.1162    0.0000 H   0  0  0  0  0  0  0  0  0  0  0  0
    9.4528   -1.1438    0.0000 H   0  0  0  0  0  0  0  0  0  0  0  0
    9.0106   -3.5558    0.0000 H   0  0  0  0  0  0  0  0  0  0  0  0
   11.0991   -1.6819    0.0000 H   0  0  0  0  0  0  0  0  0  0  0  0
    6.9563    3.4280    0.0000 H   0  0  0  0  0  0  0  0  0  0  0  0
   12.1810   -2.8877    0.0000 H   0  0  0  0  0  0  0  0  0  0  0  0
    4.7925    5.8395    0.0000 H   0  0  0  0  0  0  0  0  0  0  0  0
    7.4596    4.9678    0.0000 H   0  0  0  0  0  0  0  0  0  0  0  0
    6.3777    6.1736    0.0000 H   0  0  0  0  0  0  0  0  0  0  0  0
    3.5033    4.6828    0.0000 H   0  0  0  0  0  0  0  0  0  0  0  0
   10.3886   -5.5842    0.0000 H   0  0  0  0  0  0  0  0  0  0  0  0
   12.5382   -4.5825    0.0000 H   0  0  0  0  0  0  0  0  0  0  0  0
  1 17  2  0  0  0  0
  2 22  2  0  0  0  0
  3 25  2  0  0  0  0
  4 30  1  0  0  0  0
  4 59  1  0  0  0  0
  5 32  1  0  0  0  0
  5 60  1  0  0  0  0
  6 34  1  0  0  0  0
  6 61  1  0  0  0  0
  7 15  1  0  0  0  0
  7 16  1  0  0  0  0
  7 42  1  0  0  0  0
 13  8  1  1  0  0  0
  8 22  1  0  0  0  0
  8 43  1  0  0  0  0
  9 10  1  0  0  0  0
  9 17  1  0  0  0  0
  9 48  1  0  0  0  0
 10 25  1  0  0  0  0
 10 50  1  0  0  0  0
 11 12  1  0  0  0  0
 11 13  1  0  0  0  0
 11 38  1  0  0  0  0
 11 39  1  0  0  0  0
 12 14  1  0  0  0  0
 12 16  2  0  0  0  0
 13 17  1  0  0  0  0
 13 40  1  0  0  0  0
 14 15  1  0  0  0  0
 14 18  2  0  0  0  0
 15 19  2  0  0  0  0
 16 41  1  0  0  0  0
 18 20  1  0  0  0  0
 18 44  1  0  0  0  0
 19 21  1  0  0  0  0
 19 45  1  0  0  0  0
 20 21  2  0  0  0  0
 20 46  1  0  0  0  0
 21 47  1  0  0  0  0
 22 23  1  0  0  0  0
 23 24  2  3  0  0  0
 23 49  1  0  0  0  0
 24 26  1  0  0  0  0
 24 51  1  0  0  0  0
 25 27  1  0  0  0  0
 26 28  2  0  0  0  0
 26 29  1  0  0  0  0
 27 30  1  0  0  0  0
 27 31  2  0  0  0  0
 28 32  1  0  0  0  0
 28 52  1  0  0  0  0
 29 33  2  0  0  0  0
 29 53  1  0  0  0  0
 30 35  2  0  0  0  0
 31 36  1  0  0  0  0
 31 54  1  0  0  0  0
 32 34  2  0  0  0  0
 33 34  1  0  0  0  0
 33 55  1  0  0  0  0
 35 37  1  0  0  0  0
 35 56  1  0  0  0  0
 36 37  2  0  0  0  0
 36 57  1  0  0  0  0
 37 58  1  0  0  0  0
M  END
> <PUBCHEM_COMPOUND_CID>
504840
> <PUBCHEM_COMPOUND_CANONICALIZED>
1
> <PUBCHEM_CACTVS_COMPLEXITY>
838
> <PUBCHEM_CACTVS_HBOND_ACCEPTOR>
6
> <PUBCHEM_CACTVS_HBOND_DONOR>
7
> <PUBCHEM_CACTVS_ROTATABLE_BOND>
7
> <PUBCHEM_CACTVS_SUBSKEYS>
AAADceB7uAAAAAAAAAAAAAAAAAAAAWAAAAAwYMAAAAAAAFgB9AAAHgAYCAAADCzBngQ8xvLrkgCoAzV3VACCgCA1IiIa+aG+7NgJZvbClbOUcUlm9hHJ2YeYyfCOoAABAAAKQABAAAIAABSAAAAAAAAAAA==
> <PUBCHEM_IUPAC_OPENEYE_NAME>
3-(3,4-dihydroxyphenyl)-N-[(1S)-2-[2-(2-hydroxybenzoyl)hydrazino]-1-(1H-indol-3-ylmethyl)-2-oxo-ethyl]prop-2-enamide
> <PUBCHEM_IUPAC_CAS_NAME>
3-(3,4-dihydroxyphenyl)-N-[(2S)-1-[[(2-hydroxyphenyl)-oxomethyl]hydrazo]-3-(1H-indol-3-yl)-1-oxopropan-2-yl]-2-propenamide
> <PUBCHEM_IUPAC_NAME_MARKUP>
3-(3,4-dihydroxyphenyl)-<I>N</I>-[(2<I>S</I>)-1-[2-(2-hydroxybenzoyl)hydrazinyl]-3-(1<I>H</I>-indol-3-yl)-1-oxopropan-2-yl]prop-2-enamide
> <PUBCHEM_IUPAC_NAME>
3-(3,4-dihydroxyphenyl)-N-[(2S)-1-[2-(2-hydroxybenzoyl)hydrazinyl]-3-(1H-indol-3-yl)-1-oxopropan-2-yl]prop-2-enamide
> <PUBCHEM_IUPAC_SYSTEMATIC_NAME>
3-[3,4-bis(oxidanyl)phenyl]-N-[(2S)-1-[2-(2-hydroxyphenyl)carbonylhydrazinyl]-3-(1H-indol-3-yl)-1-oxidanylidene-propan-2-yl]prop-2-enamide
> <PUBCHEM_IUPAC_TRADITIONAL_NAME>
3-(3,4-dihydroxyphenyl)-N-[(1S)-1-(1H-indol-3-ylmethyl)-2-keto-2-(N'-salicyloylhydrazino)ethyl]acrylamide
> <PUBCHEM_IUPAC_INCHI>
InChI=1S/C27H24N4O6/c32-22-8-4-2-6-19(22)26(36)30-31-27(37)21(14-17-15-28-20-7-3-1-5-18(17)20)29-25(35)12-10-16-9-11-23(33)24(34)13-16/h1-13,15,21,28,32-34H,14H2,(H,29,35)(H,30,36)(H,31,37)/t21-/m0/s1
> <PUBCHEM_IUPAC_INCHIKEY>
QBPIBIWWFHLZEO-NRFANRHFSA-N
> <PUBCHEM_XLOGP3_AA>
3.7
> <PUBCHEM_EXACT_MASS>
500.16958450
> <PUBCHEM_MOLECULAR_FORMULA>
C27H24N4O6
> <PUBCHEM_MOLECULAR_WEIGHT>
500.5
> <PUBCHEM_OPENEYE_CAN_SMILES>
C1=CC=C2C(=C1)C(=CN2)CC(C(=O)NNC(=O)C3=CC=CC=C3O)NC(=O)C=CC4=CC(=C(C=C4)O)O
> <PUBCHEM_OPENEYE_ISO_SMILES>
C1=CC=C2C(=C1)C(=CN2)C[C@@H](C(=O)NNC(=O)C3=CC=CC=C3O)NC(=O)C=CC4=CC(=C(C=C4)O)O
> <PUBCHEM_CACTVS_TPSA>
164
> <PUBCHEM_MONOISOTOPIC_WEIGHT>
500.16958450
> <PUBCHEM_TOTAL_CHARGE>
0
> <PUBCHEM_HEAVY_ATOM_COUNT>
37
> <PUBCHEM_ATOM_DEF_STEREO_COUNT>
1
> <PUBCHEM_ATOM_UDEF_STEREO_COUNT>
0
> <PUBCHEM_BOND_DEF_STEREO_COUNT>
0
> <PUBCHEM_BOND_UDEF_STEREO_COUNT>
1
> <PUBCHEM_ISOTOPIC_ATOM_COUNT>
0
> <PUBCHEM_COMPONENT_COUNT>
1
> <PUBCHEM_CACTVS_TAUTO_COUNT>
-1
> <PUBCHEM_COORDINATE_TYPE>
1
5
255
> <PUBCHEM_BONDANNOTATIONS>
12  14  8
12  16  8
14  15  8
14  18  8
15  19  8
18  20  8
19  21  8
20  21  8
23  24  1
26  28  8
26  29  8
27  30  8
27  31  8
28  32  8
29  33  8
30  35  8
31  36  8
32  34  8
33  34  8
35  37  8
36  37  8
7  15  8
7  16  8
13  8  5
$$$$
