504893
  -OEChem-10302200282D
 42 44  0     1  0  0  0  0  0999 V2000
    4.6783    1.5618    0.0000 O   0  0  0  0  0  0  0  0  0  0  0  0
    5.2619    0.6345    0.0000 O   0  0  0  0  0  0  0  0  0  0  0  0
    5.2619   -1.0976    0.0000 O   0  0  0  0  0  0  0  0  0  0  0  0
    6.2619   -2.8296    0.0000 O   0  0  0  0  0  0  0  0  0  0  0  0
    7.7619   -1.9636    0.0000 O   0  0  0  0  0  0  0  0  0  0  0  0
    6.7619    1.5005    0.0000 N   0  0  0  0  0  0  0  0  0  0  0  0
    5.2619    2.3665    0.0000 C   0  0  3  0  0  0  0  0  0  0  0  0
    4.6783    3.1713    0.0000 C   0  0  0  0  0  0  0  0  0  0  0  0
    6.2619    2.3665    0.0000 C   0  0  0  0  0  0  0  0  0  0  0  0
    3.7320    2.8665    0.0000 C   0  0  0  0  0  0  0  0  0  0  0  0
    3.7320    1.8665    0.0000 C   0  0  0  0  0  0  0  0  0  0  0  0
    2.8660    3.3665    0.0000 C   0  0  0  0  0  0  0  0  0  0  0  0
    7.7619    1.5005    0.0000 C   0  0  0  0  0  0  0  0  0  0  0  0
    2.8660    1.3665    0.0000 C   0  0  0  0  0  0  0  0  0  0  0  0
    6.2619    0.6345    0.0000 C   0  0  0  0  0  0  0  0  0  0  0  0
    2.0000    2.8665    0.0000 C   0  0  0  0  0  0  0  0  0  0  0  0
    2.0000    1.8665    0.0000 C   0  0  0  0  0  0  0  0  0  0  0  0
    6.7619   -0.2315    0.0000 C   0  0  0  0  0  0  0  0  0  0  0  0
    8.2619    2.3665    0.0000 C   0  0  0  0  0  0  0  0  0  0  0  0
    8.2619    0.6345    0.0000 C   0  0  0  0  0  0  0  0  0  0  0  0
    9.2619    2.3665    0.0000 C   0  0  0  0  0  0  0  0  0  0  0  0
    9.2619    0.6345    0.0000 C   0  0  0  0  0  0  0  0  0  0  0  0
    6.2619   -1.0976    0.0000 C   0  0  0  0  0  0  0  0  0  0  0  0
    9.7619    1.5005    0.0000 C   0  0  0  0  0  0  0  0  0  0  0  0
    6.7619   -1.9636    0.0000 C   0  0  0  0  0  0  0  0  0  0  0  0
    5.5436    1.8142    0.0000 H   0  0  0  0  0  0  0  0  0  0  0  0
    5.2156    3.4805    0.0000 H   0  0  0  0  0  0  0  0  0  0  0  0
    4.4272    3.7382    0.0000 H   0  0  0  0  0  0  0  0  0  0  0  0
    6.8445    2.5786    0.0000 H   0  0  0  0  0  0  0  0  0  0  0  0
    6.1542    2.9771    0.0000 H   0  0  0  0  0  0  0  0  0  0  0  0
    2.8660    3.9865    0.0000 H   0  0  0  0  0  0  0  0  0  0  0  0
    2.8660    0.7465    0.0000 H   0  0  0  0  0  0  0  0  0  0  0  0
    1.4631    3.1765    0.0000 H   0  0  0  0  0  0  0  0  0  0  0  0
    1.4631    1.5565    0.0000 H   0  0  0  0  0  0  0  0  0  0  0  0
    7.2368   -0.6301    0.0000 H   0  0  0  0  0  0  0  0  0  0  0  0
    7.2368    0.1670    0.0000 H   0  0  0  0  0  0  0  0  0  0  0  0
    7.9519    2.9035    0.0000 H   0  0  0  0  0  0  0  0  0  0  0  0
    7.9519    0.0976    0.0000 H   0  0  0  0  0  0  0  0  0  0  0  0
    9.5719    2.9035    0.0000 H   0  0  0  0  0  0  0  0  0  0  0  0
    9.5719    0.0976    0.0000 H   0  0  0  0  0  0  0  0  0  0  0  0
   10.3819    1.5005    0.0000 H   0  0  0  0  0  0  0  0  0  0  0  0
    6.5719   -3.3665    0.0000 H   0  0  0  0  0  0  0  0  0  0  0  0
  1  7  1  0  0  0  0
  1 11  1  0  0  0  0
  2 15  2  0  0  0  0
  3 23  2  0  0  0  0
  4 25  1  0  0  0  0
  4 42  1  0  0  0  0
  5 25  2  0  0  0  0
  6  9  1  0  0  0  0
  6 13  1  0  0  0  0
  6 15  1  0  0  0  0
  7  8  1  0  0  0  0
  7  9  1  0  0  0  0
  7 26  1  0  0  0  0
  8 10  1  0  0  0  0
  8 27  1  0  0  0  0
  8 28  1  0  0  0  0
  9 29  1  0  0  0  0
  9 30  1  0  0  0  0
 10 11  1  0  0  0  0
 10 12  2  0  0  0  0
 11 14  2  0  0  0  0
 12 16  1  0  0  0  0
 12 31  1  0  0  0  0
 13 19  2  0  0  0  0
 13 20  1  0  0  0  0
 14 17  1  0  0  0  0
 14 32  1  0  0  0  0
 15 18  1  0  0  0  0
 16 17  2  0  0  0  0
 16 33  1  0  0  0  0
 17 34  1  0  0  0  0
 18 23  1  0  0  0  0
 18 35  1  0  0  0  0
 18 36  1  0  0  0  0
 19 21  1  0  0  0  0
 19 37  1  0  0  0  0
 20 22  2  0  0  0  0
 20 38  1  0  0  0  0
 21 24  2  0  0  0  0
 21 39  1  0  0  0  0
 22 24  1  0  0  0  0
 22 40  1  0  0  0  0
 23 25  1  0  0  0  0
 24 41  1  0  0  0  0
M  END
> <PUBCHEM_COMPOUND_CID>
504893
> <PUBCHEM_COMPOUND_CANONICALIZED>
1
> <PUBCHEM_CACTVS_COMPLEXITY>
514
> <PUBCHEM_CACTVS_HBOND_ACCEPTOR>
5
> <PUBCHEM_CACTVS_HBOND_DONOR>
1
> <PUBCHEM_CACTVS_ROTATABLE_BOND>
6
> <PUBCHEM_CACTVS_SUBSKEYS>
AAADceB6OAAAAAAAAAAAAAAAAAAAASAAAAAwYAAAAAAAAEgBQAAAHgAACAAADBzhmAYwzoMABgCIAqXSWAKCCAAhIgAIiAFObIgOJjrMsZuHeCjkxhHY6Ae30KIOAAAAAAAIAAAAAAAAABAAAAAAAAAAAA==
> <PUBCHEM_IUPAC_OPENEYE_NAME>
4-[N-(2,3-dihydrobenzofuran-2-ylmethyl)anilino]-2,4-dioxo-butanoic acid
> <PUBCHEM_IUPAC_CAS_NAME>
4-[N-(2,3-dihydrobenzofuran-2-ylmethyl)anilino]-2,4-dioxobutanoic acid
> <PUBCHEM_IUPAC_NAME_MARKUP>
4-[<I>N</I>-(2,3-dihydro-1-benzofuran-2-ylmethyl)anilino]-2,4-dioxobutanoic acid
> <PUBCHEM_IUPAC_NAME>
4-[N-(2,3-dihydro-1-benzofuran-2-ylmethyl)anilino]-2,4-dioxobutanoic acid
> <PUBCHEM_IUPAC_SYSTEMATIC_NAME>
4-[2,3-dihydro-1-benzofuran-2-ylmethyl(phenyl)amino]-2,4-bis(oxidanylidene)butanoic acid
> <PUBCHEM_IUPAC_TRADITIONAL_NAME>
4-[N-(coumaran-2-ylmethyl)anilino]-2,4-diketo-butyric acid
> <PUBCHEM_IUPAC_INCHI>
InChI=1S/C19H17NO5/c21-16(19(23)24)11-18(22)20(14-7-2-1-3-8-14)12-15-10-13-6-4-5-9-17(13)25-15/h1-9,15H,10-12H2,(H,23,24)
> <PUBCHEM_IUPAC_INCHIKEY>
MYAXUIOMEAUXKO-UHFFFAOYSA-N
> <PUBCHEM_XLOGP3_AA>
2.6
> <PUBCHEM_EXACT_MASS>
339.11067264
> <PUBCHEM_MOLECULAR_FORMULA>
C19H17NO5
> <PUBCHEM_MOLECULAR_WEIGHT>
339.3
> <PUBCHEM_OPENEYE_CAN_SMILES>
C1C(OC2=CC=CC=C21)CN(C3=CC=CC=C3)C(=O)CC(=O)C(=O)O
> <PUBCHEM_OPENEYE_ISO_SMILES>
C1C(OC2=CC=CC=C21)CN(C3=CC=CC=C3)C(=O)CC(=O)C(=O)O
> <PUBCHEM_CACTVS_TPSA>
83.9
> <PUBCHEM_MONOISOTOPIC_WEIGHT>
339.11067264
> <PUBCHEM_TOTAL_CHARGE>
0
> <PUBCHEM_HEAVY_ATOM_COUNT>
25
> <PUBCHEM_ATOM_DEF_STEREO_COUNT>
0
> <PUBCHEM_ATOM_UDEF_STEREO_COUNT>
1
> <PUBCHEM_BOND_DEF_STEREO_COUNT>
0
> <PUBCHEM_BOND_UDEF_STEREO_COUNT>
0
> <PUBCHEM_ISOTOPIC_ATOM_COUNT>
0
> <PUBCHEM_COMPONENT_COUNT>
1
> <PUBCHEM_CACTVS_TAUTO_COUNT>
-1
> <PUBCHEM_COORDINATE_TYPE>
1
5
255
> <PUBCHEM_BONDANNOTATIONS>
10  11  8
10  12  8
11  14  8
12  16  8
13  19  8
13  20  8
14  17  8
16  17  8
19  21  8
20  22  8
21  24  8
22  24  8
7  9  3
$$$$
