504876
  -OEChem-10302200282D
 85 90  0     1  0  0  0  0  0999 V2000
    2.0000   -0.0408    0.0000 F   0  0  0  0  0  0  0  0  0  0  0  0
    9.8619   -2.5496    0.0000 O   0  0  0  0  0  0  0  0  0  0  0  0
    8.6279    1.5573    0.0000 O   0  0  0  0  0  0  0  0  0  0  0  0
    7.6279   -1.9068    0.0000 O   0  0  0  0  0  0  0  0  0  0  0  0
   12.1279    4.1554    0.0000 O   0  0  0  0  0  0  0  0  0  0  0  0
   13.1279    2.4233    0.0000 O   0  0  0  0  0  0  0  0  0  0  0  0
   11.6279   -1.9068    0.0000 N   0  0  0  0  0  0  0  0  0  0  0  0
    7.6279   -0.1748    0.0000 N   0  0  0  0  0  0  0  0  0  0  0  0
   10.1279    0.6913    0.0000 N   0  0  0  0  0  0  0  0  0  0  0  0
    5.5443   -1.8455    0.0000 N   0  0  0  0  0  0  0  0  0  0  0  0
   12.3939   -2.5496    0.0000 C   0  0  0  0  0  0  0  0  0  0  0  0
   13.1600   -3.1924    0.0000 C   0  0  0  0  0  0  0  0  0  0  0  0
   13.0367   -1.7836    0.0000 C   0  0  0  0  0  0  0  0  0  0  0  0
   11.7512   -3.3156    0.0000 C   0  0  0  0  0  0  0  0  0  0  0  0
   10.1279   -1.0408    0.0000 C   0  0  0  0  0  0  0  0  0  0  0  0
    9.1279   -1.0408    0.0000 C   0  0  0  0  0  0  0  0  0  0  0  0
   10.6279   -1.9068    0.0000 C   0  0  0  0  0  0  0  0  0  0  0  0
    8.6279   -0.1748    0.0000 C   0  0  1  0  0  0  0  0  0  0  0  0
   14.0997   -2.8504    0.0000 C   0  0  0  0  0  0  0  0  0  0  0  0
   14.0215   -1.9572    0.0000 C   0  0  0  0  0  0  0  0  0  0  0  0
   12.0933   -4.2553    0.0000 C   0  0  0  0  0  0  0  0  0  0  0  0
   12.9863   -4.1772    0.0000 C   0  0  0  0  0  0  0  0  0  0  0  0
   12.6947   -0.8439    0.0000 C   0  0  0  0  0  0  0  0  0  0  0  0
   10.7663   -3.1420    0.0000 C   0  0  0  0  0  0  0  0  0  0  0  0
    9.1279    0.6913    0.0000 C   0  0  0  0  0  0  0  0  0  0  0  0
   14.8657   -3.4932    0.0000 C   0  0  0  0  0  0  0  0  0  0  0  0
   14.6643   -1.1912    0.0000 C   0  0  0  0  0  0  0  0  0  0  0  0
   11.4504   -5.0214    0.0000 C   0  0  0  0  0  0  0  0  0  0  0  0
   13.7524   -4.8200    0.0000 C   0  0  0  0  0  0  0  0  0  0  0  0
   13.3375   -0.0778    0.0000 C   0  0  0  0  0  0  0  0  0  0  0  0
   10.1235   -3.9080    0.0000 C   0  0  0  0  0  0  0  0  0  0  0  0
   14.6921   -4.4780    0.0000 C   0  0  0  0  0  0  0  0  0  0  0  0
   14.3223   -0.2515    0.0000 C   0  0  0  0  0  0  0  0  0  0  0  0
   10.4656   -4.8477    0.0000 C   0  0  0  0  0  0  0  0  0  0  0  0
    7.1279   -1.0408    0.0000 C   0  0  0  0  0  0  0  0  0  0  0  0
    6.1279   -1.0408    0.0000 C   0  0  0  0  0  0  0  0  0  0  0  0
    4.5981   -1.5408    0.0000 C   0  0  0  0  0  0  0  0  0  0  0  0
    4.5981   -0.5408    0.0000 C   0  0  0  0  0  0  0  0  0  0  0  0
    5.5443   -0.2361    0.0000 C   0  0  0  0  0  0  0  0  0  0  0  0
   10.6279    1.5573    0.0000 C   0  0  0  0  0  0  0  0  0  0  0  0
    3.7320   -2.0408    0.0000 C   0  0  0  0  0  0  0  0  0  0  0  0
    3.7320   -0.0408    0.0000 C   0  0  0  0  0  0  0  0  0  0  0  0
   11.6279    1.5573    0.0000 C   0  0  0  0  0  0  0  0  0  0  0  0
   10.1279    2.4233    0.0000 C   0  0  0  0  0  0  0  0  0  0  0  0
    2.8660   -0.5408    0.0000 C   0  0  0  0  0  0  0  0  0  0  0  0
    2.8660   -1.5408    0.0000 C   0  0  0  0  0  0  0  0  0  0  0  0
   12.1279    2.4233    0.0000 C   0  0  0  0  0  0  0  0  0  0  0  0
   10.6279    3.2893    0.0000 C   0  0  0  0  0  0  0  0  0  0  0  0
   11.6279    3.2893    0.0000 C   0  0  0  0  0  0  0  0  0  0  0  0
   11.6279    5.0214    0.0000 C   0  0  0  0  0  0  0  0  0  0  0  0
   11.9379   -1.3699    0.0000 H   0  0  0  0  0  0  0  0  0  0  0  0
   10.7105   -0.8287    0.0000 H   0  0  0  0  0  0  0  0  0  0  0  0
   10.0202   -0.4302    0.0000 H   0  0  0  0  0  0  0  0  0  0  0  0
    8.5453   -1.2528    0.0000 H   0  0  0  0  0  0  0  0  0  0  0  0
    9.2356   -1.6514    0.0000 H   0  0  0  0  0  0  0  0  0  0  0  0
    8.3179    0.3622    0.0000 H   0  0  0  0  0  0  0  0  0  0  0  0
   14.2073   -2.2398    0.0000 H   0  0  0  0  0  0  0  0  0  0  0  0
   14.2336   -2.5398    0.0000 H   0  0  0  0  0  0  0  0  0  0  0  0
   12.7038   -4.3630    0.0000 H   0  0  0  0  0  0  0  0  0  0  0  0
   12.4037   -4.3892    0.0000 H   0  0  0  0  0  0  0  0  0  0  0  0
   12.0841   -0.7362    0.0000 H   0  0  0  0  0  0  0  0  0  0  0  0
   10.5543   -2.5594    0.0000 H   0  0  0  0  0  0  0  0  0  0  0  0
    7.3179    0.3622    0.0000 H   0  0  0  0  0  0  0  0  0  0  0  0
   15.4483   -3.2811    0.0000 H   0  0  0  0  0  0  0  0  0  0  0  0
   15.2749   -1.2988    0.0000 H   0  0  0  0  0  0  0  0  0  0  0  0
   11.6625   -5.6040    0.0000 H   0  0  0  0  0  0  0  0  0  0  0  0
   13.6447   -5.4306    0.0000 H   0  0  0  0  0  0  0  0  0  0  0  0
   13.1255    0.5048    0.0000 H   0  0  0  0  0  0  0  0  0  0  0  0
    9.5130   -3.8004    0.0000 H   0  0  0  0  0  0  0  0  0  0  0  0
   15.1670   -4.8765    0.0000 H   0  0  0  0  0  0  0  0  0  0  0  0
   14.7208    0.2235    0.0000 H   0  0  0  0  0  0  0  0  0  0  0  0
   10.0671   -5.3227    0.0000 H   0  0  0  0  0  0  0  0  0  0  0  0
   10.4379    0.1543    0.0000 H   0  0  0  0  0  0  0  0  0  0  0  0
    5.7369   -2.4348    0.0000 H   0  0  0  0  0  0  0  0  0  0  0  0
    5.7369    0.3533    0.0000 H   0  0  0  0  0  0  0  0  0  0  0  0
    3.7320   -2.6608    0.0000 H   0  0  0  0  0  0  0  0  0  0  0  0
    3.7320    0.5792    0.0000 H   0  0  0  0  0  0  0  0  0  0  0  0
   11.9379    1.0204    0.0000 H   0  0  0  0  0  0  0  0  0  0  0  0
    9.5079    2.4233    0.0000 H   0  0  0  0  0  0  0  0  0  0  0  0
    2.3291   -1.8508    0.0000 H   0  0  0  0  0  0  0  0  0  0  0  0
   10.3179    3.8263    0.0000 H   0  0  0  0  0  0  0  0  0  0  0  0
   13.4379    2.9602    0.0000 H   0  0  0  0  0  0  0  0  0  0  0  0
   12.1648    5.3314    0.0000 H   0  0  0  0  0  0  0  0  0  0  0  0
   11.3179    5.5583    0.0000 H   0  0  0  0  0  0  0  0  0  0  0  0
   11.0910    4.7114    0.0000 H   0  0  0  0  0  0  0  0  0  0  0  0
  1 45  1  0  0  0  0
  2 17  2  0  0  0  0
  3 25  2  0  0  0  0
  4 35  2  0  0  0  0
  5 49  1  0  0  0  0
  5 50  1  0  0  0  0
  6 47  1  0  0  0  0
  6 82  1  0  0  0  0
  7 11  1  0  0  0  0
  7 17  1  0  0  0  0
  7 51  1  0  0  0  0
 18  8  1  6  0  0  0
  8 35  1  0  0  0  0
  8 63  1  0  0  0  0
  9 25  1  0  0  0  0
  9 40  1  0  0  0  0
  9 73  1  0  0  0  0
 10 36  1  0  0  0  0
 10 37  1  0  0  0  0
 10 74  1  0  0  0  0
 11 12  1  0  0  0  0
 11 13  1  0  0  0  0
 11 14  1  0  0  0  0
 12 19  2  0  0  0  0
 12 22  1  0  0  0  0
 13 20  2  0  0  0  0
 13 23  1  0  0  0  0
 14 21  2  0  0  0  0
 14 24  1  0  0  0  0
 15 16  1  0  0  0  0
 15 17  1  0  0  0  0
 15 52  1  0  0  0  0
 15 53  1  0  0  0  0
 16 18  1  0  0  0  0
 16 54  1  0  0  0  0
 16 55  1  0  0  0  0
 18 25  1  0  0  0  0
 18 56  1  0  0  0  0
 19 26  1  0  0  0  0
 19 57  1  0  0  0  0
 20 27  1  0  0  0  0
 20 58  1  0  0  0  0
 21 28  1  0  0  0  0
 21 59  1  0  0  0  0
 22 29  2  0  0  0  0
 22 60  1  0  0  0  0
 23 30  2  0  0  0  0
 23 61  1  0  0  0  0
 24 31  2  0  0  0  0
 24 62  1  0  0  0  0
 26 32  2  0  0  0  0
 26 64  1  0  0  0  0
 27 33  2  0  0  0  0
 27 65  1  0  0  0  0
 28 34  2  0  0  0  0
 28 66  1  0  0  0  0
 29 32  1  0  0  0  0
 29 67  1  0  0  0  0
 30 33  1  0  0  0  0
 30 68  1  0  0  0  0
 31 34  1  0  0  0  0
 31 69  1  0  0  0  0
 32 70  1  0  0  0  0
 33 71  1  0  0  0  0
 34 72  1  0  0  0  0
 35 36  1  0  0  0  0
 36 39  2  0  0  0  0
 37 38  2  0  0  0  0
 37 41  1  0  0  0  0
 38 39  1  0  0  0  0
 38 42  1  0  0  0  0
 39 75  1  0  0  0  0
 40 43  2  0  0  0  0
 40 44  1  0  0  0  0
 41 46  2  0  0  0  0
 41 76  1  0  0  0  0
 42 45  2  0  0  0  0
 42 77  1  0  0  0  0
 43 47  1  0  0  0  0
 43 78  1  0  0  0  0
 44 48  2  0  0  0  0
 44 79  1  0  0  0  0
 45 46  1  0  0  0  0
 46 80  1  0  0  0  0
 47 49  2  0  0  0  0
 48 49  1  0  0  0  0
 48 81  1  0  0  0  0
 50 83  1  0  0  0  0
 50 84  1  0  0  0  0
 50 85  1  0  0  0  0
M  END
> <PUBCHEM_COMPOUND_CID>
504876
> <PUBCHEM_COMPOUND_CANONICALIZED>
1
> <PUBCHEM_CACTVS_COMPLEXITY>
1080
> <PUBCHEM_CACTVS_HBOND_ACCEPTOR>
6
> <PUBCHEM_CACTVS_HBOND_DONOR>
5
> <PUBCHEM_CACTVS_ROTATABLE_BOND>
12
> <PUBCHEM_CACTVS_SUBSKEYS>
AAADcfB/uQAAAAAAAAAAAAAAAAAAAWAAAAAwYMGDAAAAAFgB9AAAHwAQCAAADKzBng4yxvLJlgCoAyVyVACCiCAnIiAImaG+7NgNZvLGtbuUcStm1hnL+Ye828OegEAAAgACQAAAgAAEAASAAAAAAAAAAA==
> <PUBCHEM_IUPAC_OPENEYE_NAME>
(2S)-2-[(5-fluoro-1H-indole-2-carbonyl)amino]-N-(3-hydroxy-4-methoxy-phenyl)-N'-trityl-pentanediamide
> <PUBCHEM_IUPAC_CAS_NAME>
(2S)-2-[[(5-fluoro-1H-indol-2-yl)-oxomethyl]amino]-N-(3-hydroxy-4-methoxyphenyl)-N'-(triphenylmethyl)pentanediamide
> <PUBCHEM_IUPAC_NAME_MARKUP>
(2<I>S</I>)-2-[(5-fluoro-1<I>H</I>-indole-2-carbonyl)amino]-<I>N</I>-(3-hydroxy-4-methoxyphenyl)-<I>N</I>&apos;-tritylpentanediamide
> <PUBCHEM_IUPAC_NAME>
(2S)-2-[(5-fluoro-1H-indole-2-carbonyl)amino]-N-(3-hydroxy-4-methoxyphenyl)-N'-tritylpentanediamide
> <PUBCHEM_IUPAC_SYSTEMATIC_NAME>
(2S)-2-[(5-fluoranyl-1H-indol-2-yl)carbonylamino]-N-(4-methoxy-3-oxidanyl-phenyl)-N'-(triphenylmethyl)pentanediamide
> <PUBCHEM_IUPAC_TRADITIONAL_NAME>
(2S)-2-[(5-fluoro-1H-indole-2-carbonyl)amino]-N-(3-hydroxy-4-methoxy-phenyl)-N'-trityl-glutaramide
> <PUBCHEM_IUPAC_INCHI>
InChI=1S/C40H35FN4O5/c1-50-36-21-18-31(25-35(36)46)42-38(48)33(44-39(49)34-24-26-23-30(41)17-19-32(26)43-34)20-22-37(47)45-40(27-11-5-2-6-12-27,28-13-7-3-8-14-28)29-15-9-4-10-16-29/h2-19,21,23-25,33,43,46H,20,22H2,1H3,(H,42,48)(H,44,49)(H,45,47)/t33-/m0/s1
> <PUBCHEM_IUPAC_INCHIKEY>
UCKMOKFSYNSXMH-XIFFEERXSA-N
> <PUBCHEM_XLOGP3_AA>
6.6
> <PUBCHEM_EXACT_MASS>
670.25914839
> <PUBCHEM_MOLECULAR_FORMULA>
C40H35FN4O5
> <PUBCHEM_MOLECULAR_WEIGHT>
670.7
> <PUBCHEM_OPENEYE_CAN_SMILES>
COC1=C(C=C(C=C1)NC(=O)C(CCC(=O)NC(C2=CC=CC=C2)(C3=CC=CC=C3)C4=CC=CC=C4)NC(=O)C5=CC6=C(N5)C=CC(=C6)F)O
> <PUBCHEM_OPENEYE_ISO_SMILES>
COC1=C(C=C(C=C1)NC(=O)[C@H](CCC(=O)NC(C2=CC=CC=C2)(C3=CC=CC=C3)C4=CC=CC=C4)NC(=O)C5=CC6=C(N5)C=CC(=C6)F)O
> <PUBCHEM_CACTVS_TPSA>
133
> <PUBCHEM_MONOISOTOPIC_WEIGHT>
670.25914839
> <PUBCHEM_TOTAL_CHARGE>
0
> <PUBCHEM_HEAVY_ATOM_COUNT>
50
> <PUBCHEM_ATOM_DEF_STEREO_COUNT>
1
> <PUBCHEM_ATOM_UDEF_STEREO_COUNT>
0
> <PUBCHEM_BOND_DEF_STEREO_COUNT>
0
> <PUBCHEM_BOND_UDEF_STEREO_COUNT>
0
> <PUBCHEM_ISOTOPIC_ATOM_COUNT>
0
> <PUBCHEM_COMPONENT_COUNT>
1
> <PUBCHEM_CACTVS_TAUTO_COUNT>
-1
> <PUBCHEM_COORDINATE_TYPE>
1
5
255
> <PUBCHEM_BONDANNOTATIONS>
10  36  8
10  37  8
12  19  8
12  22  8
13  20  8
13  23  8
14  21  8
14  24  8
19  26  8
20  27  8
21  28  8
22  29  8
23  30  8
24  31  8
26  32  8
27  33  8
28  34  8
29  32  8
30  33  8
31  34  8
36  39  8
37  38  8
37  41  8
38  39  8
38  42  8
40  43  8
40  44  8
41  46  8
42  45  8
43  47  8
44  48  8
45  46  8
47  49  8
48  49  8
18  8  6
$$$$
