504838
  -OEChem-10302200282D
 59 62  0     1  0  0  0  0  0999 V2000
    9.8622   -1.0000    0.0000 O   0  0  0  0  0  0  0  0  0  0  0  0
    6.3981   -2.0000    0.0000 O   0  0  0  0  0  0  0  0  0  0  0  0
    2.9176   -2.0346    0.0000 O   0  0  0  0  0  0  0  0  0  0  0  0
    4.6660    2.0000    0.0000 O   0  0  0  0  0  0  0  0  0  0  0  0
   11.5942   -4.0000    0.0000 O   0  0  0  0  0  0  0  0  0  0  0  0
    8.9962    2.5000    0.0000 O   0  0  0  0  0  0  0  0  0  0  0  0
    9.8622    4.0000    0.0000 O   0  0  0  0  0  0  0  0  0  0  0  0
    7.2641   -0.5000    0.0000 N   0  0  0  0  0  0  0  0  0  0  0  0
    4.6660   -1.0000    0.0000 N   0  0  0  0  0  0  0  0  0  0  0  0
    8.9962    0.5000    0.0000 N   0  0  0  0  0  0  0  0  0  0  0  0
    9.8622    1.0000    0.0000 N   0  0  0  0  0  0  0  0  0  0  0  0
    8.1301   -1.0000    0.0000 C   0  0  1  0  0  0  0  0  0  0  0  0
    8.1301   -2.0000    0.0000 C   0  0  0  0  0  0  0  0  0  0  0  0
    8.9962   -2.5000    0.0000 C   0  0  0  0  0  0  0  0  0  0  0  0
    8.9962   -0.5000    0.0000 C   0  0  0  0  0  0  0  0  0  0  0  0
    5.5321   -0.5000    0.0000 C   0  0  0  0  0  0  0  0  0  0  0  0
    6.3981   -1.0000    0.0000 C   0  0  0  0  0  0  0  0  0  0  0  0
    3.8000   -0.5000    0.0000 C   0  0  0  0  0  0  0  0  0  0  0  0
    3.8000    0.5000    0.0000 C   0  0  0  0  0  0  0  0  0  0  0  0
    9.8622   -2.0000    0.0000 C   0  0  0  0  0  0  0  0  0  0  0  0
    8.9962   -3.5000    0.0000 C   0  0  0  0  0  0  0  0  0  0  0  0
    5.5321    0.5000    0.0000 C   0  0  0  0  0  0  0  0  0  0  0  0
    4.6660    1.0000    0.0000 C   0  0  0  0  0  0  0  0  0  0  0  0
    2.9061   -1.0347    0.0000 C   0  0  0  0  0  0  0  0  0  0  0  0
   10.7282   -2.5000    0.0000 C   0  0  0  0  0  0  0  0  0  0  0  0
    9.8622   -4.0000    0.0000 C   0  0  0  0  0  0  0  0  0  0  0  0
    2.9061    1.0347    0.0000 C   0  0  0  0  0  0  0  0  0  0  0  0
   10.7282   -3.5000    0.0000 C   0  0  0  0  0  0  0  0  0  0  0  0
    2.0000   -0.5208    0.0000 C   0  0  0  0  0  0  0  0  0  0  0  0
    2.0000    0.5208    0.0000 C   0  0  0  0  0  0  0  0  0  0  0  0
    9.8622    2.0000    0.0000 C   0  0  0  0  0  0  0  0  0  0  0  0
   10.7282    2.5000    0.0000 C   0  0  0  0  0  0  0  0  0  0  0  0
   10.7282    3.5000    0.0000 C   0  0  0  0  0  0  0  0  0  0  0  0
   11.5942    2.0000    0.0000 C   0  0  0  0  0  0  0  0  0  0  0  0
   11.5942    4.0000    0.0000 C   0  0  0  0  0  0  0  0  0  0  0  0
   12.4603    2.5000    0.0000 C   0  0  0  0  0  0  0  0  0  0  0  0
   12.4603    3.5000    0.0000 C   0  0  0  0  0  0  0  0  0  0  0  0
    7.5932   -1.3100    0.0000 H   0  0  0  0  0  0  0  0  0  0  0  0
    7.5196   -1.8923    0.0000 H   0  0  0  0  0  0  0  0  0  0  0  0
    7.9181   -2.5826    0.0000 H   0  0  0  0  0  0  0  0  0  0  0  0
    7.2641    0.1200    0.0000 H   0  0  0  0  0  0  0  0  0  0  0  0
    4.6660   -1.6200    0.0000 H   0  0  0  0  0  0  0  0  0  0  0  0
    9.8622   -1.3800    0.0000 H   0  0  0  0  0  0  0  0  0  0  0  0
    8.4592   -3.8100    0.0000 H   0  0  0  0  0  0  0  0  0  0  0  0
    6.0690    0.8100    0.0000 H   0  0  0  0  0  0  0  0  0  0  0  0
    8.4592    0.8100    0.0000 H   0  0  0  0  0  0  0  0  0  0  0  0
   11.2651   -2.1900    0.0000 H   0  0  0  0  0  0  0  0  0  0  0  0
    9.8622   -4.6200    0.0000 H   0  0  0  0  0  0  0  0  0  0  0  0
    2.9132    1.6546    0.0000 H   0  0  0  0  0  0  0  0  0  0  0  0
    1.4643   -0.8329    0.0000 H   0  0  0  0  0  0  0  0  0  0  0  0
    1.4643    0.8329    0.0000 H   0  0  0  0  0  0  0  0  0  0  0  0
   10.3991    0.6900    0.0000 H   0  0  0  0  0  0  0  0  0  0  0  0
    2.3843   -2.3508    0.0000 H   0  0  0  0  0  0  0  0  0  0  0  0
   11.5942   -4.6200    0.0000 H   0  0  0  0  0  0  0  0  0  0  0  0
   11.5942    1.3800    0.0000 H   0  0  0  0  0  0  0  0  0  0  0  0
   11.5942    4.6200    0.0000 H   0  0  0  0  0  0  0  0  0  0  0  0
   12.9972    2.1900    0.0000 H   0  0  0  0  0  0  0  0  0  0  0  0
   12.9972    3.8100    0.0000 H   0  0  0  0  0  0  0  0  0  0  0  0
    9.8622    4.6200    0.0000 H   0  0  0  0  0  0  0  0  0  0  0  0
  1 15  2  0  0  0  0
  2 17  2  0  0  0  0
  3 24  1  0  0  0  0
  3 53  1  0  0  0  0
  4 23  2  0  0  0  0
  5 28  1  0  0  0  0
  5 54  1  0  0  0  0
  6 31  2  0  0  0  0
  7 33  1  0  0  0  0
  7 59  1  0  0  0  0
 12  8  1  6  0  0  0
  8 17  1  0  0  0  0
  8 41  1  0  0  0  0
  9 16  1  0  0  0  0
  9 18  1  0  0  0  0
  9 42  1  0  0  0  0
 10 11  1  0  0  0  0
 10 15  1  0  0  0  0
 10 46  1  0  0  0  0
 11 31  1  0  0  0  0
 11 52  1  0  0  0  0
 12 13  1  0  0  0  0
 12 15  1  0  0  0  0
 12 38  1  0  0  0  0
 13 14  1  0  0  0  0
 13 39  1  0  0  0  0
 13 40  1  0  0  0  0
 14 20  2  0  0  0  0
 14 21  1  0  0  0  0
 16 17  1  0  0  0  0
 16 22  2  0  0  0  0
 18 19  2  0  0  0  0
 18 24  1  0  0  0  0
 19 23  1  0  0  0  0
 19 27  1  0  0  0  0
 20 25  1  0  0  0  0
 20 43  1  0  0  0  0
 21 26  2  0  0  0  0
 21 44  1  0  0  0  0
 22 23  1  0  0  0  0
 22 45  1  0  0  0  0
 24 29  2  0  0  0  0
 25 28  2  0  0  0  0
 25 47  1  0  0  0  0
 26 28  1  0  0  0  0
 26 48  1  0  0  0  0
 27 30  2  0  0  0  0
 27 49  1  0  0  0  0
 29 30  1  0  0  0  0
 29 50  1  0  0  0  0
 30 51  1  0  0  0  0
 31 32  1  0  0  0  0
 32 33  1  0  0  0  0
 32 34  2  0  0  0  0
 33 35  2  0  0  0  0
 34 36  1  0  0  0  0
 34 55  1  0  0  0  0
 35 37  1  0  0  0  0
 35 56  1  0  0  0  0
 36 37  2  0  0  0  0
 36 57  1  0  0  0  0
 37 58  1  0  0  0  0
M  END
> <PUBCHEM_COMPOUND_CID>
504838
> <PUBCHEM_COMPOUND_CANONICALIZED>
1
> <PUBCHEM_CACTVS_COMPLEXITY>
901
> <PUBCHEM_CACTVS_HBOND_ACCEPTOR>
8
> <PUBCHEM_CACTVS_HBOND_DONOR>
7
> <PUBCHEM_CACTVS_ROTATABLE_BOND>
6
> <PUBCHEM_CACTVS_SUBSKEYS>
AAADceB7uAAAAAAAAAAAAAAAAAAAAAAAAAAwYMEAAAAAAACBUAAAHgAYCAAADCzBmAQwxoLiAgCIAqVSUACCAAAlIgIaqIGPTMgKZj7SlbOUcchm9hHY2ceayLCOIAABAAAKEABAAAIAABQgAAAAAAAAAA==
> <PUBCHEM_IUPAC_OPENEYE_NAME>
8-hydroxy-N-[(1S)-2-[2-(2-hydroxybenzoyl)hydrazino]-1-[(4-hydroxyphenyl)methyl]-2-oxo-ethyl]-4-oxo-1H-quinoline-2-carboxamide
> <PUBCHEM_IUPAC_CAS_NAME>
8-hydroxy-N-[(2S)-3-(4-hydroxyphenyl)-1-[[(2-hydroxyphenyl)-oxomethyl]hydrazo]-1-oxopropan-2-yl]-4-oxo-1H-quinoline-2-carboxamide
> <PUBCHEM_IUPAC_NAME_MARKUP>
8-hydroxy-<I>N</I>-[(2<I>S</I>)-1-[2-(2-hydroxybenzoyl)hydrazinyl]-3-(4-hydroxyphenyl)-1-oxopropan-2-yl]-4-oxo-1<I>H</I>-quinoline-2-carboxamide
> <PUBCHEM_IUPAC_NAME>
8-hydroxy-N-[(2S)-1-[2-(2-hydroxybenzoyl)hydrazinyl]-3-(4-hydroxyphenyl)-1-oxopropan-2-yl]-4-oxo-1H-quinoline-2-carboxamide
> <PUBCHEM_IUPAC_SYSTEMATIC_NAME>
N-[(2S)-3-(4-hydroxyphenyl)-1-[2-(2-hydroxyphenyl)carbonylhydrazinyl]-1-oxidanylidene-propan-2-yl]-8-oxidanyl-4-oxidanylidene-1H-quinoline-2-carboxamide
> <PUBCHEM_IUPAC_TRADITIONAL_NAME>
8-hydroxy-N-[(1S)-1-(4-hydroxybenzyl)-2-keto-2-(N'-salicyloylhydrazino)ethyl]-4-keto-1H-quinoline-2-carboxamide
> <PUBCHEM_IUPAC_INCHI>
InChI=1S/C26H22N4O7/c31-15-10-8-14(9-11-15)12-18(26(37)30-29-24(35)17-4-1-2-6-20(17)32)28-25(36)19-13-22(34)16-5-3-7-21(33)23(16)27-19/h1-11,13,18,31-33H,12H2,(H,27,34)(H,28,36)(H,29,35)(H,30,37)/t18-/m0/s1
> <PUBCHEM_IUPAC_INCHIKEY>
BUTKDTNLCJLLIW-SFHVURJKSA-N
> <PUBCHEM_XLOGP3_AA>
3
> <PUBCHEM_EXACT_MASS>
502.14884905
> <PUBCHEM_MOLECULAR_FORMULA>
C26H22N4O7
> <PUBCHEM_MOLECULAR_WEIGHT>
502.5
> <PUBCHEM_OPENEYE_CAN_SMILES>
C1=CC=C(C(=C1)C(=O)NNC(=O)C(CC2=CC=C(C=C2)O)NC(=O)C3=CC(=O)C4=C(N3)C(=CC=C4)O)O
> <PUBCHEM_OPENEYE_ISO_SMILES>
C1=CC=C(C(=C1)C(=O)NNC(=O)[C@H](CC2=CC=C(C=C2)O)NC(=O)C3=CC(=O)C4=C(N3)C(=CC=C4)O)O
> <PUBCHEM_CACTVS_TPSA>
177
> <PUBCHEM_MONOISOTOPIC_WEIGHT>
502.14884905
> <PUBCHEM_TOTAL_CHARGE>
0
> <PUBCHEM_HEAVY_ATOM_COUNT>
37
> <PUBCHEM_ATOM_DEF_STEREO_COUNT>
1
> <PUBCHEM_ATOM_UDEF_STEREO_COUNT>
0
> <PUBCHEM_BOND_DEF_STEREO_COUNT>
0
> <PUBCHEM_BOND_UDEF_STEREO_COUNT>
0
> <PUBCHEM_ISOTOPIC_ATOM_COUNT>
0
> <PUBCHEM_COMPONENT_COUNT>
1
> <PUBCHEM_CACTVS_TAUTO_COUNT>
-1
> <PUBCHEM_COORDINATE_TYPE>
1
5
255
> <PUBCHEM_BONDANNOTATIONS>
14  20  8
14  21  8
16  22  8
18  19  8
18  24  8
19  23  8
19  27  8
20  25  8
21  26  8
22  23  8
24  29  8
25  28  8
26  28  8
27  30  8
29  30  8
32  33  8
32  34  8
33  35  8
34  36  8
35  37  8
36  37  8
12  8  6
9  16  8
9  18  8
$$$$
