504854
  -OEChem-10302200282D
 74 77  0     1  0  0  0  0  0999 V2000
    2.3176   -4.0983    0.0000 F   0  0  0  0  0  0  0  0  0  0  0  0
    6.7619   -0.2318    0.0000 O   0  0  0  0  0  0  0  0  0  0  0  0
   10.7619   -0.2318    0.0000 O   0  0  0  0  0  0  0  0  0  0  0  0
    7.7619    3.2322    0.0000 O   0  0  0  0  0  0  0  0  0  0  0  0
    9.2619   -1.0979    0.0000 O   0  0  0  0  0  0  0  0  0  0  0  0
    4.6783   -0.1706    0.0000 N   0  0  0  0  0  0  0  0  0  0  0  0
    6.7619    1.5002    0.0000 N   0  0  0  0  0  0  0  0  0  0  0  0
    9.2619    2.3662    0.0000 N   0  0  0  0  0  0  0  0  0  0  0  0
    7.7619    1.5002    0.0000 C   0  0  1  0  0  0  0  0  0  0  0  0
    5.2619    0.6342    0.0000 C   0  0  0  0  0  0  0  0  0  0  0  0
    3.7320    0.1342    0.0000 C   0  0  0  0  0  0  0  0  0  0  0  0
    8.2619    0.6342    0.0000 C   0  0  0  0  0  0  0  0  0  0  0  0
    3.7320    1.1342    0.0000 C   0  0  0  0  0  0  0  0  0  0  0  0
    4.9889   -1.1211    0.0000 C   0  0  0  0  0  0  0  0  0  0  0  0
    4.6783    1.4389    0.0000 C   0  0  0  0  0  0  0  0  0  0  0  0
    6.2619    0.6342    0.0000 C   0  0  0  0  0  0  0  0  0  0  0  0
    9.2619    0.6342    0.0000 C   0  0  0  0  0  0  0  0  0  0  0  0
    8.2619    2.3662    0.0000 C   0  0  0  0  0  0  0  0  0  0  0  0
    2.8660   -0.3658    0.0000 C   0  0  0  0  0  0  0  0  0  0  0  0
    4.3211   -1.8654    0.0000 C   0  0  0  0  0  0  0  0  0  0  0  0
    2.8660    1.6342    0.0000 C   0  0  0  0  0  0  0  0  0  0  0  0
    2.0000    0.1342    0.0000 C   0  0  0  0  0  0  0  0  0  0  0  0
    2.0000    1.1342    0.0000 C   0  0  0  0  0  0  0  0  0  0  0  0
    9.7619   -0.2318    0.0000 C   0  0  0  0  0  0  0  0  0  0  0  0
    9.7619    3.2322    0.0000 C   0  0  0  0  0  0  0  0  0  0  0  0
    3.3426   -1.6592    0.0000 C   0  0  0  0  0  0  0  0  0  0  0  0
    4.6318   -2.8159    0.0000 C   0  0  0  0  0  0  0  0  0  0  0  0
   11.2619   -1.0979    0.0000 C   0  0  0  0  0  0  0  0  0  0  0  0
   10.7619    3.2322    0.0000 C   0  0  0  0  0  0  0  0  0  0  0  0
   12.2619   -1.0979    0.0000 C   0  0  0  0  0  0  0  0  0  0  0  0
    2.6747   -2.4035    0.0000 C   0  0  0  0  0  0  0  0  0  0  0  0
    3.9639   -3.5602    0.0000 C   0  0  0  0  0  0  0  0  0  0  0  0
    2.9854   -3.3540    0.0000 C   0  0  0  0  0  0  0  0  0  0  0  0
   12.7619   -1.9639    0.0000 C   0  0  0  0  0  0  0  0  0  0  0  0
   11.2619    4.0983    0.0000 C   0  0  0  0  0  0  0  0  0  0  0  0
   11.2619    2.3662    0.0000 C   0  0  0  0  0  0  0  0  0  0  0  0
   13.7619   -1.9639    0.0000 C   0  0  0  0  0  0  0  0  0  0  0  0
   12.2619    4.0983    0.0000 C   0  0  0  0  0  0  0  0  0  0  0  0
   12.2619    2.3662    0.0000 C   0  0  0  0  0  0  0  0  0  0  0  0
   12.7619    3.2322    0.0000 C   0  0  0  0  0  0  0  0  0  0  0  0
    7.4519    2.0371    0.0000 H   0  0  0  0  0  0  0  0  0  0  0  0
    7.6793    0.4221    0.0000 H   0  0  0  0  0  0  0  0  0  0  0  0
    8.3695    0.0236    0.0000 H   0  0  0  0  0  0  0  0  0  0  0  0
    5.3715   -1.6090    0.0000 H   0  0  0  0  0  0  0  0  0  0  0  0
    5.5359   -0.8291    0.0000 H   0  0  0  0  0  0  0  0  0  0  0  0
    4.8709    2.0282    0.0000 H   0  0  0  0  0  0  0  0  0  0  0  0
    6.4519    2.0371    0.0000 H   0  0  0  0  0  0  0  0  0  0  0  0
    9.8445    0.8462    0.0000 H   0  0  0  0  0  0  0  0  0  0  0  0
    9.1542    1.2448    0.0000 H   0  0  0  0  0  0  0  0  0  0  0  0
    2.8660   -0.9858    0.0000 H   0  0  0  0  0  0  0  0  0  0  0  0
    2.8660    2.2542    0.0000 H   0  0  0  0  0  0  0  0  0  0  0  0
    1.4631   -0.1758    0.0000 H   0  0  0  0  0  0  0  0  0  0  0  0
    1.4631    1.4442    0.0000 H   0  0  0  0  0  0  0  0  0  0  0  0
    9.5719    1.8293    0.0000 H   0  0  0  0  0  0  0  0  0  0  0  0
    9.8695    3.8428    0.0000 H   0  0  0  0  0  0  0  0  0  0  0  0
    9.1793    3.4443    0.0000 H   0  0  0  0  0  0  0  0  0  0  0  0
    3.1500   -1.0698    0.0000 H   0  0  0  0  0  0  0  0  0  0  0  0
    5.2384   -2.9438    0.0000 H   0  0  0  0  0  0  0  0  0  0  0  0
   10.6793   -1.3099    0.0000 H   0  0  0  0  0  0  0  0  0  0  0  0
   11.3695   -1.7084    0.0000 H   0  0  0  0  0  0  0  0  0  0  0  0
   12.8445   -0.8858    0.0000 H   0  0  0  0  0  0  0  0  0  0  0  0
   12.1542   -0.4873    0.0000 H   0  0  0  0  0  0  0  0  0  0  0  0
    2.0681   -2.2756    0.0000 H   0  0  0  0  0  0  0  0  0  0  0  0
    4.1565   -4.1495    0.0000 H   0  0  0  0  0  0  0  0  0  0  0  0
   12.1793   -2.1760    0.0000 H   0  0  0  0  0  0  0  0  0  0  0  0
   12.8695   -2.5745    0.0000 H   0  0  0  0  0  0  0  0  0  0  0  0
   10.9519    4.6352    0.0000 H   0  0  0  0  0  0  0  0  0  0  0  0
   10.9519    1.8293    0.0000 H   0  0  0  0  0  0  0  0  0  0  0  0
   13.7619   -2.5839    0.0000 H   0  0  0  0  0  0  0  0  0  0  0  0
   14.3819   -1.9639    0.0000 H   0  0  0  0  0  0  0  0  0  0  0  0
   13.7619   -1.3439    0.0000 H   0  0  0  0  0  0  0  0  0  0  0  0
   12.5719    4.6352    0.0000 H   0  0  0  0  0  0  0  0  0  0  0  0
   12.5719    1.8293    0.0000 H   0  0  0  0  0  0  0  0  0  0  0  0
   13.3819    3.2322    0.0000 H   0  0  0  0  0  0  0  0  0  0  0  0
  1 33  1  0  0  0  0
  2 16  2  0  0  0  0
  3 24  1  0  0  0  0
  3 28  1  0  0  0  0
  4 18  2  0  0  0  0
  5 24  2  0  0  0  0
  6 10  1  0  0  0  0
  6 11  1  0  0  0  0
  6 14  1  0  0  0  0
  9  7  1  6  0  0  0
  7 16  1  0  0  0  0
  7 47  1  0  0  0  0
  8 18  1  0  0  0  0
  8 25  1  0  0  0  0
  8 54  1  0  0  0  0
  9 12  1  0  0  0  0
  9 18  1  0  0  0  0
  9 41  1  0  0  0  0
 10 15  2  0  0  0  0
 10 16  1  0  0  0  0
 11 13  1  0  0  0  0
 11 19  2  0  0  0  0
 12 17  1  0  0  0  0
 12 42  1  0  0  0  0
 12 43  1  0  0  0  0
 13 15  1  0  0  0  0
 13 21  2  0  0  0  0
 14 20  1  0  0  0  0
 14 44  1  0  0  0  0
 14 45  1  0  0  0  0
 15 46  1  0  0  0  0
 17 24  1  0  0  0  0
 17 48  1  0  0  0  0
 17 49  1  0  0  0  0
 19 22  1  0  0  0  0
 19 50  1  0  0  0  0
 20 26  2  0  0  0  0
 20 27  1  0  0  0  0
 21 23  1  0  0  0  0
 21 51  1  0  0  0  0
 22 23  2  0  0  0  0
 22 52  1  0  0  0  0
 23 53  1  0  0  0  0
 25 29  1  0  0  0  0
 25 55  1  0  0  0  0
 25 56  1  0  0  0  0
 26 31  1  0  0  0  0
 26 57  1  0  0  0  0
 27 32  2  0  0  0  0
 27 58  1  0  0  0  0
 28 30  1  0  0  0  0
 28 59  1  0  0  0  0
 28 60  1  0  0  0  0
 29 35  2  0  0  0  0
 29 36  1  0  0  0  0
 30 34  1  0  0  0  0
 30 61  1  0  0  0  0
 30 62  1  0  0  0  0
 31 33  2  0  0  0  0
 31 63  1  0  0  0  0
 32 33  1  0  0  0  0
 32 64  1  0  0  0  0
 34 37  1  0  0  0  0
 34 65  1  0  0  0  0
 34 66  1  0  0  0  0
 35 38  1  0  0  0  0
 35 67  1  0  0  0  0
 36 39  2  0  0  0  0
 36 68  1  0  0  0  0
 37 69  1  0  0  0  0
 37 70  1  0  0  0  0
 37 71  1  0  0  0  0
 38 40  2  0  0  0  0
 38 72  1  0  0  0  0
 39 40  1  0  0  0  0
 39 73  1  0  0  0  0
 40 74  1  0  0  0  0
M  END
> <PUBCHEM_COMPOUND_CID>
504854
> <PUBCHEM_COMPOUND_CANONICALIZED>
1
> <PUBCHEM_CACTVS_COMPLEXITY>
812
> <PUBCHEM_CACTVS_HBOND_ACCEPTOR>
5
> <PUBCHEM_CACTVS_HBOND_DONOR>
2
> <PUBCHEM_CACTVS_ROTATABLE_BOND>
14
> <PUBCHEM_CACTVS_SUBSKEYS>
AAADcfB/OQAAAAAAAAAAAAAAAAAAAWAAAAAwYMAAAAAAAFgB9AAAHwAQAAAADCjhng4yyPPMFACoAyXyXACCgCAnAiAI2KG4ZNgIYPLAlbGWIQhklgDIyYe8n4KeAAAAAAACAAAAAAAAAAQAAAAAAAAAAA==
> <PUBCHEM_IUPAC_OPENEYE_NAME>
butyl (4S)-5-(benzylamino)-4-[[1-[(4-fluorophenyl)methyl]indole-2-carbonyl]amino]-5-oxo-pentanoate
> <PUBCHEM_IUPAC_CAS_NAME>
(4S)-4-[[[1-[(4-fluorophenyl)methyl]-2-indolyl]-oxomethyl]amino]-5-oxo-5-[(phenylmethyl)amino]pentanoic acid butyl ester
> <PUBCHEM_IUPAC_NAME_MARKUP>
butyl (4<I>S</I>)-5-(benzylamino)-4-[[1-[(4-fluorophenyl)methyl]indole-2-carbonyl]amino]-5-oxopentanoate
> <PUBCHEM_IUPAC_NAME>
butyl (4S)-5-(benzylamino)-4-[[1-[(4-fluorophenyl)methyl]indole-2-carbonyl]amino]-5-oxopentanoate
> <PUBCHEM_IUPAC_SYSTEMATIC_NAME>
butyl (4S)-4-[[1-[(4-fluorophenyl)methyl]indol-2-yl]carbonylamino]-5-oxidanylidene-5-[(phenylmethyl)amino]pentanoate
> <PUBCHEM_IUPAC_TRADITIONAL_NAME>
(4S)-5-(benzylamino)-4-[[1-(4-fluorobenzyl)indole-2-carbonyl]amino]-5-keto-valeric acid butyl ester
> <PUBCHEM_IUPAC_INCHI>
InChI=1S/C32H34FN3O4/c1-2-3-19-40-30(37)18-17-27(31(38)34-21-23-9-5-4-6-10-23)35-32(39)29-20-25-11-7-8-12-28(25)36(29)22-24-13-15-26(33)16-14-24/h4-16,20,27H,2-3,17-19,21-22H2,1H3,(H,34,38)(H,35,39)/t27-/m0/s1
> <PUBCHEM_IUPAC_INCHIKEY>
WOERHOXBJYFQEK-MHZLTWQESA-N
> <PUBCHEM_XLOGP3_AA>
5.6
> <PUBCHEM_EXACT_MASS>
543.25333474
> <PUBCHEM_MOLECULAR_FORMULA>
C32H34FN3O4
> <PUBCHEM_MOLECULAR_WEIGHT>
543.6
> <PUBCHEM_OPENEYE_CAN_SMILES>
CCCCOC(=O)CCC(C(=O)NCC1=CC=CC=C1)NC(=O)C2=CC3=CC=CC=C3N2CC4=CC=C(C=C4)F
> <PUBCHEM_OPENEYE_ISO_SMILES>
CCCCOC(=O)CC[C@@H](C(=O)NCC1=CC=CC=C1)NC(=O)C2=CC3=CC=CC=C3N2CC4=CC=C(C=C4)F
> <PUBCHEM_CACTVS_TPSA>
89.4
> <PUBCHEM_MONOISOTOPIC_WEIGHT>
543.25333474
> <PUBCHEM_TOTAL_CHARGE>
0
> <PUBCHEM_HEAVY_ATOM_COUNT>
40
> <PUBCHEM_ATOM_DEF_STEREO_COUNT>
1
> <PUBCHEM_ATOM_UDEF_STEREO_COUNT>
0
> <PUBCHEM_BOND_DEF_STEREO_COUNT>
0
> <PUBCHEM_BOND_UDEF_STEREO_COUNT>
0
> <PUBCHEM_ISOTOPIC_ATOM_COUNT>
0
> <PUBCHEM_COMPONENT_COUNT>
1
> <PUBCHEM_CACTVS_TAUTO_COUNT>
-1
> <PUBCHEM_COORDINATE_TYPE>
1
5
255
> <PUBCHEM_BONDANNOTATIONS>
10  15  8
11  13  8
11  19  8
13  15  8
13  21  8
19  22  8
20  26  8
20  27  8
21  23  8
22  23  8
26  31  8
27  32  8
29  35  8
29  36  8
31  33  8
32  33  8
35  38  8
36  39  8
38  40  8
39  40  8
6  10  8
6  11  8
9  7  6
$$$$
