504849
  -OEChem-10302200282D
 88 93  0     1  0  0  0  0  0999 V2000
    8.7619   -1.7321    0.0000 O   0  0  0  0  0  0  0  0  0  0  0  0
    7.7619    1.7320    0.0000 O   0  0  0  0  0  0  0  0  0  0  0  0
    6.7619   -1.7320    0.0000 O   0  0  0  0  0  0  0  0  0  0  0  0
   11.2619    0.8660    0.0000 O   0  0  0  0  0  0  0  0  0  0  0  0
    9.2619    4.3301    0.0000 O   0  0  0  0  0  0  0  0  0  0  0  0
   10.7619   -1.7320    0.0000 N   0  0  0  0  0  0  0  0  0  0  0  0
    6.7619    0.0000    0.0000 N   0  0  0  0  0  0  0  0  0  0  0  0
    9.2619    0.8660    0.0000 N   0  0  0  0  0  0  0  0  0  0  0  0
    4.6783   -1.6708    0.0000 N   0  0  0  0  0  0  0  0  0  0  0  0
   11.2619   -2.5981    0.0000 C   0  0  0  0  0  0  0  0  0  0  0  0
   11.7619   -3.4641    0.0000 C   0  0  0  0  0  0  0  0  0  0  0  0
   12.1279   -2.0981    0.0000 C   0  0  0  0  0  0  0  0  0  0  0  0
   10.3959   -3.0981    0.0000 C   0  0  0  0  0  0  0  0  0  0  0  0
    9.2619   -0.8660    0.0000 C   0  0  0  0  0  0  0  0  0  0  0  0
    8.2619   -0.8660    0.0000 C   0  0  0  0  0  0  0  0  0  0  0  0
    9.7619   -1.7320    0.0000 C   0  0  0  0  0  0  0  0  0  0  0  0
    7.7619    0.0000    0.0000 C   0  0  1  0  0  0  0  0  0  0  0  0
   12.7619   -3.4641    0.0000 C   0  0  0  0  0  0  0  0  0  0  0  0
   12.9939   -2.5981    0.0000 C   0  0  0  0  0  0  0  0  0  0  0  0
   10.3959   -4.0981    0.0000 C   0  0  0  0  0  0  0  0  0  0  0  0
   11.2619   -4.3301    0.0000 C   0  0  0  0  0  0  0  0  0  0  0  0
   12.1279   -1.0981    0.0000 C   0  0  0  0  0  0  0  0  0  0  0  0
    9.5298   -2.5981    0.0000 C   0  0  0  0  0  0  0  0  0  0  0  0
    8.2619    0.8660    0.0000 C   0  0  0  0  0  0  0  0  0  0  0  0
   13.2619   -4.3301    0.0000 C   0  0  0  0  0  0  0  0  0  0  0  0
   13.8600   -2.0981    0.0000 C   0  0  0  0  0  0  0  0  0  0  0  0
    9.5298   -4.5981    0.0000 C   0  0  0  0  0  0  0  0  0  0  0  0
   11.7619   -5.1962    0.0000 C   0  0  0  0  0  0  0  0  0  0  0  0
   12.9939   -0.5981    0.0000 C   0  0  0  0  0  0  0  0  0  0  0  0
    8.6638   -3.0981    0.0000 C   0  0  0  0  0  0  0  0  0  0  0  0
   12.7619   -5.1962    0.0000 C   0  0  0  0  0  0  0  0  0  0  0  0
   13.8600   -1.0981    0.0000 C   0  0  0  0  0  0  0  0  0  0  0  0
    8.6638   -4.0981    0.0000 C   0  0  0  0  0  0  0  0  0  0  0  0
    6.2619   -0.8660    0.0000 C   0  0  0  0  0  0  0  0  0  0  0  0
    5.2619   -0.8660    0.0000 C   0  0  0  0  0  0  0  0  0  0  0  0
    3.7320   -1.3660    0.0000 C   0  0  0  0  0  0  0  0  0  0  0  0
    3.7320   -0.3660    0.0000 C   0  0  0  0  0  0  0  0  0  0  0  0
    4.6783   -0.0613    0.0000 C   0  0  0  0  0  0  0  0  0  0  0  0
    9.7619    1.7320    0.0000 C   0  0  0  0  0  0  0  0  0  0  0  0
    2.8660   -1.8660    0.0000 C   0  0  0  0  0  0  0  0  0  0  0  0
    2.8660    0.1340    0.0000 C   0  0  0  0  0  0  0  0  0  0  0  0
   10.7619    1.7320    0.0000 C   0  0  0  0  0  0  0  0  0  0  0  0
    9.2619    2.5981    0.0000 C   0  0  0  0  0  0  0  0  0  0  0  0
    2.0000   -1.3660    0.0000 C   0  0  0  0  0  0  0  0  0  0  0  0
    2.0000   -0.3660    0.0000 C   0  0  0  0  0  0  0  0  0  0  0  0
    9.7619    3.4641    0.0000 C   0  0  0  0  0  0  0  0  0  0  0  0
   11.2619    2.5981    0.0000 C   0  0  0  0  0  0  0  0  0  0  0  0
   10.7619    3.4641    0.0000 C   0  0  0  0  0  0  0  0  0  0  0  0
   12.2619    0.8660    0.0000 C   0  0  0  0  0  0  0  0  0  0  0  0
    9.7619    5.1962    0.0000 C   0  0  0  0  0  0  0  0  0  0  0  0
   11.0719   -1.1951    0.0000 H   0  0  0  0  0  0  0  0  0  0  0  0
    9.8445   -0.6540    0.0000 H   0  0  0  0  0  0  0  0  0  0  0  0
    9.1542   -0.2554    0.0000 H   0  0  0  0  0  0  0  0  0  0  0  0
    7.6793   -1.0781    0.0000 H   0  0  0  0  0  0  0  0  0  0  0  0
    8.3695   -1.4766    0.0000 H   0  0  0  0  0  0  0  0  0  0  0  0
    7.4519    0.5369    0.0000 H   0  0  0  0  0  0  0  0  0  0  0  0
   13.0719   -2.9272    0.0000 H   0  0  0  0  0  0  0  0  0  0  0  0
   12.9939   -3.2181    0.0000 H   0  0  0  0  0  0  0  0  0  0  0  0
   10.9328   -4.4081    0.0000 H   0  0  0  0  0  0  0  0  0  0  0  0
   10.6419   -4.3301    0.0000 H   0  0  0  0  0  0  0  0  0  0  0  0
   11.5910   -0.7881    0.0000 H   0  0  0  0  0  0  0  0  0  0  0  0
    9.5298   -1.9781    0.0000 H   0  0  0  0  0  0  0  0  0  0  0  0
    6.4519    0.5369    0.0000 H   0  0  0  0  0  0  0  0  0  0  0  0
   13.8819   -4.3301    0.0000 H   0  0  0  0  0  0  0  0  0  0  0  0
   14.3969   -2.4081    0.0000 H   0  0  0  0  0  0  0  0  0  0  0  0
    9.5298   -5.2181    0.0000 H   0  0  0  0  0  0  0  0  0  0  0  0
   11.4519   -5.7331    0.0000 H   0  0  0  0  0  0  0  0  0  0  0  0
   12.9939    0.0219    0.0000 H   0  0  0  0  0  0  0  0  0  0  0  0
    8.1269   -2.7881    0.0000 H   0  0  0  0  0  0  0  0  0  0  0  0
   13.0719   -5.7331    0.0000 H   0  0  0  0  0  0  0  0  0  0  0  0
   14.3969   -0.7881    0.0000 H   0  0  0  0  0  0  0  0  0  0  0  0
    8.1269   -4.4081    0.0000 H   0  0  0  0  0  0  0  0  0  0  0  0
    9.5719    0.3291    0.0000 H   0  0  0  0  0  0  0  0  0  0  0  0
    4.8709   -2.2601    0.0000 H   0  0  0  0  0  0  0  0  0  0  0  0
    4.8709    0.5280    0.0000 H   0  0  0  0  0  0  0  0  0  0  0  0
    2.8660   -2.4860    0.0000 H   0  0  0  0  0  0  0  0  0  0  0  0
    2.8660    0.7540    0.0000 H   0  0  0  0  0  0  0  0  0  0  0  0
    8.6419    2.5981    0.0000 H   0  0  0  0  0  0  0  0  0  0  0  0
    1.4631   -1.6760    0.0000 H   0  0  0  0  0  0  0  0  0  0  0  0
    1.4631   -0.0560    0.0000 H   0  0  0  0  0  0  0  0  0  0  0  0
   11.8819    2.5981    0.0000 H   0  0  0  0  0  0  0  0  0  0  0  0
   11.0719    4.0010    0.0000 H   0  0  0  0  0  0  0  0  0  0  0  0
   12.2619    0.2460    0.0000 H   0  0  0  0  0  0  0  0  0  0  0  0
   12.8819    0.8660    0.0000 H   0  0  0  0  0  0  0  0  0  0  0  0
   12.2619    1.4860    0.0000 H   0  0  0  0  0  0  0  0  0  0  0  0
   10.2988    4.8862    0.0000 H   0  0  0  0  0  0  0  0  0  0  0  0
   10.0719    5.7331    0.0000 H   0  0  0  0  0  0  0  0  0  0  0  0
    9.2249    5.5062    0.0000 H   0  0  0  0  0  0  0  0  0  0  0  0
  1 16  2  0  0  0  0
  2 24  2  0  0  0  0
  3 34  2  0  0  0  0
  4 42  1  0  0  0  0
  4 49  1  0  0  0  0
  5 46  1  0  0  0  0
  5 50  1  0  0  0  0
  6 10  1  0  0  0  0
  6 16  1  0  0  0  0
  6 51  1  0  0  0  0
 17  7  1  6  0  0  0
  7 34  1  0  0  0  0
  7 63  1  0  0  0  0
  8 24  1  0  0  0  0
  8 39  1  0  0  0  0
  8 73  1  0  0  0  0
  9 35  1  0  0  0  0
  9 36  1  0  0  0  0
  9 74  1  0  0  0  0
 10 11  1  0  0  0  0
 10 12  1  0  0  0  0
 10 13  1  0  0  0  0
 11 18  2  0  0  0  0
 11 21  1  0  0  0  0
 12 19  2  0  0  0  0
 12 22  1  0  0  0  0
 13 20  2  0  0  0  0
 13 23  1  0  0  0  0
 14 15  1  0  0  0  0
 14 16  1  0  0  0  0
 14 52  1  0  0  0  0
 14 53  1  0  0  0  0
 15 17  1  0  0  0  0
 15 54  1  0  0  0  0
 15 55  1  0  0  0  0
 17 24  1  0  0  0  0
 17 56  1  0  0  0  0
 18 25  1  0  0  0  0
 18 57  1  0  0  0  0
 19 26  1  0  0  0  0
 19 58  1  0  0  0  0
 20 27  1  0  0  0  0
 20 59  1  0  0  0  0
 21 28  2  0  0  0  0
 21 60  1  0  0  0  0
 22 29  2  0  0  0  0
 22 61  1  0  0  0  0
 23 30  2  0  0  0  0
 23 62  1  0  0  0  0
 25 31  2  0  0  0  0
 25 64  1  0  0  0  0
 26 32  2  0  0  0  0
 26 65  1  0  0  0  0
 27 33  2  0  0  0  0
 27 66  1  0  0  0  0
 28 31  1  0  0  0  0
 28 67  1  0  0  0  0
 29 32  1  0  0  0  0
 29 68  1  0  0  0  0
 30 33  1  0  0  0  0
 30 69  1  0  0  0  0
 31 70  1  0  0  0  0
 32 71  1  0  0  0  0
 33 72  1  0  0  0  0
 34 35  1  0  0  0  0
 35 38  2  0  0  0  0
 36 37  1  0  0  0  0
 36 40  2  0  0  0  0
 37 38  1  0  0  0  0
 37 41  2  0  0  0  0
 38 75  1  0  0  0  0
 39 42  2  0  0  0  0
 39 43  1  0  0  0  0
 40 44  1  0  0  0  0
 40 76  1  0  0  0  0
 41 45  1  0  0  0  0
 41 77  1  0  0  0  0
 42 47  1  0  0  0  0
 43 46  2  0  0  0  0
 43 78  1  0  0  0  0
 44 45  2  0  0  0  0
 44 79  1  0  0  0  0
 45 80  1  0  0  0  0
 46 48  1  0  0  0  0
 47 48  2  0  0  0  0
 47 81  1  0  0  0  0
 48 82  1  0  0  0  0
 49 83  1  0  0  0  0
 49 84  1  0  0  0  0
 49 85  1  0  0  0  0
 50 86  1  0  0  0  0
 50 87  1  0  0  0  0
 50 88  1  0  0  0  0
M  END
> <PUBCHEM_COMPOUND_CID>
504849
> <PUBCHEM_COMPOUND_CANONICALIZED>
1
> <PUBCHEM_CACTVS_COMPLEXITY>
1060
> <PUBCHEM_CACTVS_HBOND_ACCEPTOR>
5
> <PUBCHEM_CACTVS_HBOND_DONOR>
4
> <PUBCHEM_CACTVS_ROTATABLE_BOND>
13
> <PUBCHEM_CACTVS_SUBSKEYS>
AAADcfB/uAAAAAAAAAAAAAAAAAAAAWAAAAAwYMGDAAAAAFgB9AAAHgAQAAAADKzBngYyxvLJlACoAyVyVACCiCAnIiAImaG/bNgOZvLEtbuVMShm1hnY6Yfc28OegQAAAgACEAACAAAEAAQgAAAAAAAAAA==
> <PUBCHEM_IUPAC_OPENEYE_NAME>
(2S)-N-(2,5-dimethoxyphenyl)-2-(1H-indole-2-carbonylamino)-N'-trityl-pentanediamide
> <PUBCHEM_IUPAC_CAS_NAME>
(2S)-N-(2,5-dimethoxyphenyl)-2-[[1H-indol-2-yl(oxo)methyl]amino]-N'-(triphenylmethyl)pentanediamide
> <PUBCHEM_IUPAC_NAME_MARKUP>
(2<I>S</I>)-<I>N</I>-(2,5-dimethoxyphenyl)-2-(1<I>H</I>-indole-2-carbonylamino)-<I>N</I>&apos;-tritylpentanediamide
> <PUBCHEM_IUPAC_NAME>
(2S)-N-(2,5-dimethoxyphenyl)-2-(1H-indole-2-carbonylamino)-N'-tritylpentanediamide
> <PUBCHEM_IUPAC_SYSTEMATIC_NAME>
(2S)-N-(2,5-dimethoxyphenyl)-2-(1H-indol-2-ylcarbonylamino)-N'-(triphenylmethyl)pentanediamide
> <PUBCHEM_IUPAC_TRADITIONAL_NAME>
(2S)-N-(2,5-dimethoxyphenyl)-2-(1H-indole-2-carbonylamino)-N'-trityl-glutaramide
> <PUBCHEM_IUPAC_INCHI>
InChI=1S/C41H38N4O5/c1-49-32-22-24-37(50-2)35(27-32)44-39(47)34(43-40(48)36-26-28-14-12-13-21-33(28)42-36)23-25-38(46)45-41(29-15-6-3-7-16-29,30-17-8-4-9-18-30)31-19-10-5-11-20-31/h3-22,24,26-27,34,42H,23,25H2,1-2H3,(H,43,48)(H,44,47)(H,45,46)/t34-/m0/s1
> <PUBCHEM_IUPAC_INCHIKEY>
ZBZPHZUZOCATTG-UMSFTDKQSA-N
> <PUBCHEM_XLOGP3_AA>
6.8
> <PUBCHEM_EXACT_MASS>
666.28422033
> <PUBCHEM_MOLECULAR_FORMULA>
C41H38N4O5
> <PUBCHEM_MOLECULAR_WEIGHT>
666.8
> <PUBCHEM_OPENEYE_CAN_SMILES>
COC1=CC(=C(C=C1)OC)NC(=O)C(CCC(=O)NC(C2=CC=CC=C2)(C3=CC=CC=C3)C4=CC=CC=C4)NC(=O)C5=CC6=CC=CC=C6N5
> <PUBCHEM_OPENEYE_ISO_SMILES>
COC1=CC(=C(C=C1)OC)NC(=O)[C@H](CCC(=O)NC(C2=CC=CC=C2)(C3=CC=CC=C3)C4=CC=CC=C4)NC(=O)C5=CC6=CC=CC=C6N5
> <PUBCHEM_CACTVS_TPSA>
122
> <PUBCHEM_MONOISOTOPIC_WEIGHT>
666.28422033
> <PUBCHEM_TOTAL_CHARGE>
0
> <PUBCHEM_HEAVY_ATOM_COUNT>
50
> <PUBCHEM_ATOM_DEF_STEREO_COUNT>
1
> <PUBCHEM_ATOM_UDEF_STEREO_COUNT>
0
> <PUBCHEM_BOND_DEF_STEREO_COUNT>
0
> <PUBCHEM_BOND_UDEF_STEREO_COUNT>
0
> <PUBCHEM_ISOTOPIC_ATOM_COUNT>
0
> <PUBCHEM_COMPONENT_COUNT>
1
> <PUBCHEM_CACTVS_TAUTO_COUNT>
-1
> <PUBCHEM_COORDINATE_TYPE>
1
5
255
> <PUBCHEM_BONDANNOTATIONS>
11  18  8
11  21  8
12  19  8
12  22  8
13  20  8
13  23  8
18  25  8
19  26  8
20  27  8
21  28  8
22  29  8
23  30  8
25  31  8
26  32  8
27  33  8
28  31  8
29  32  8
30  33  8
35  38  8
36  37  8
36  40  8
37  38  8
37  41  8
39  42  8
39  43  8
40  44  8
41  45  8
42  47  8
43  46  8
44  45  8
46  48  8
47  48  8
17  7  6
9  35  8
9  36  8
$$$$
