504874
  -OEChem-10302200282D
109115  0     1  0  0  0  0  0999 V2000
    2.0000   -4.1189    0.0000 F   0  0  0  0  0  0  0  0  0  0  0  0
    8.9282   -8.1189    0.0000 F   0  0  0  0  0  0  0  0  0  0  0  0
    6.5533    3.1151    0.0000 O   0  0  0  0  0  0  0  0  0  0  0  0
   10.6603    1.8811    0.0000 O   0  0  0  0  0  0  0  0  0  0  0  0
    7.1962    0.8811    0.0000 O   0  0  0  0  0  0  0  0  0  0  0  0
    6.3301   -2.6189    0.0000 O   0  0  0  0  0  0  0  0  0  0  0  0
    8.0622   -3.6189    0.0000 O   0  0  0  0  0  0  0  0  0  0  0  0
   13.2583    5.3811    0.0000 O   0  0  0  0  0  0  0  0  0  0  0  0
   13.2583    3.3811    0.0000 O   0  0  0  0  0  0  0  0  0  0  0  0
    7.1962    4.8811    0.0000 N   0  0  0  0  0  0  0  0  0  0  0  0
    8.9282    0.8811    0.0000 N   0  0  0  0  0  0  0  0  0  0  0  0
    9.7942    3.3811    0.0000 N   0  0  0  0  0  0  0  0  0  0  0  0
    6.5534    5.6471    0.0000 C   0  0  0  0  0  0  0  0  0  0  0  0
    5.9106    6.4132    0.0000 C   0  0  0  0  0  0  0  0  0  0  0  0
    7.3194    6.2899    0.0000 C   0  0  0  0  0  0  0  0  0  0  0  0
    5.7873    5.0044    0.0000 C   0  0  0  0  0  0  0  0  0  0  0  0
    8.0622    3.3811    0.0000 C   0  0  0  0  0  0  0  0  0  0  0  0
    7.1962    3.8811    0.0000 C   0  0  0  0  0  0  0  0  0  0  0  0
    8.0622    2.3811    0.0000 C   0  0  0  0  0  0  0  0  0  0  0  0
    8.9282    1.8811    0.0000 C   0  0  1  0  0  0  0  0  0  0  0  0
    6.2526    7.3529    0.0000 C   0  0  0  0  0  0  0  0  0  0  0  0
    8.2591    5.9479    0.0000 C   0  0  0  0  0  0  0  0  0  0  0  0
    4.8476    5.3464    0.0000 C   0  0  0  0  0  0  0  0  0  0  0  0
    4.9258    6.2395    0.0000 C   0  0  0  0  0  0  0  0  0  0  0  0
    7.1458    7.2747    0.0000 C   0  0  0  0  0  0  0  0  0  0  0  0
    5.9610    4.0195    0.0000 C   0  0  0  0  0  0  0  0  0  0  0  0
    5.6098    8.1189    0.0000 C   0  0  0  0  0  0  0  0  0  0  0  0
    9.0252    6.5907    0.0000 C   0  0  0  0  0  0  0  0  0  0  0  0
    4.0816    4.7036    0.0000 C   0  0  0  0  0  0  0  0  0  0  0  0
    4.2830    7.0056    0.0000 C   0  0  0  0  0  0  0  0  0  0  0  0
    7.9118    7.9175    0.0000 C   0  0  0  0  0  0  0  0  0  0  0  0
    5.1949    3.3767    0.0000 C   0  0  0  0  0  0  0  0  0  0  0  0
    9.7942    2.3811    0.0000 C   0  0  0  0  0  0  0  0  0  0  0  0
    4.6250    7.9453    0.0000 C   0  0  0  0  0  0  0  0  0  0  0  0
    8.8515    7.5755    0.0000 C   0  0  0  0  0  0  0  0  0  0  0  0
    4.2552    3.7188    0.0000 C   0  0  0  0  0  0  0  0  0  0  0  0
    8.0622    0.3811    0.0000 C   0  0  0  0  0  0  0  0  0  0  0  0
    8.0622   -0.6189    0.0000 C   0  0  0  0  0  0  0  0  0  0  0  0
   10.6603    3.8811    0.0000 C   0  0  0  0  0  0  0  0  0  0  0  0
    7.1962   -1.1189    0.0000 C   0  0  0  0  0  0  0  0  0  0  0  0
    8.9282   -1.1189    0.0000 C   0  0  0  0  0  0  0  0  0  0  0  0
   11.5263    3.3811    0.0000 C   0  0  0  0  0  0  0  0  0  0  0  0
   10.6603    4.8811    0.0000 C   0  0  0  0  0  0  0  0  0  0  0  0
    7.1962   -2.1189    0.0000 C   0  0  0  0  0  0  0  0  0  0  0  0
    8.0622   -2.6189    0.0000 C   0  0  0  0  0  0  0  0  0  0  0  0
    8.9282   -2.1189    0.0000 C   0  0  0  0  0  0  0  0  0  0  0  0
   12.3923    3.8811    0.0000 C   0  0  0  0  0  0  0  0  0  0  0  0
   11.5263    5.3811    0.0000 C   0  0  0  0  0  0  0  0  0  0  0  0
   12.3923    4.8811    0.0000 C   0  0  0  0  0  0  0  0  0  0  0  0
    5.4641   -2.1189    0.0000 C   0  0  0  0  0  0  0  0  0  0  0  0
    8.9282   -4.1189    0.0000 C   0  0  0  0  0  0  0  0  0  0  0  0
    4.5981   -2.6189    0.0000 C   0  0  0  0  0  0  0  0  0  0  0  0
    8.9282   -5.1189    0.0000 C   0  0  0  0  0  0  0  0  0  0  0  0
    3.7320   -2.1189    0.0000 C   0  0  0  0  0  0  0  0  0  0  0  0
    4.5981   -3.6189    0.0000 C   0  0  0  0  0  0  0  0  0  0  0  0
    9.7942   -5.6189    0.0000 C   0  0  0  0  0  0  0  0  0  0  0  0
    8.0622   -5.6189    0.0000 C   0  0  0  0  0  0  0  0  0  0  0  0
   13.2583    6.3811    0.0000 C   0  0  0  0  0  0  0  0  0  0  0  0
    2.8660   -2.6189    0.0000 C   0  0  0  0  0  0  0  0  0  0  0  0
    3.7320   -4.1189    0.0000 C   0  0  0  0  0  0  0  0  0  0  0  0
    9.7942   -6.6189    0.0000 C   0  0  0  0  0  0  0  0  0  0  0  0
    8.0622   -6.6189    0.0000 C   0  0  0  0  0  0  0  0  0  0  0  0
    2.8660   -3.6189    0.0000 C   0  0  0  0  0  0  0  0  0  0  0  0
    8.9282   -7.1189    0.0000 C   0  0  0  0  0  0  0  0  0  0  0  0
    7.7331    5.1911    0.0000 H   0  0  0  0  0  0  0  0  0  0  0  0
    8.6728    3.2734    0.0000 H   0  0  0  0  0  0  0  0  0  0  0  0
    8.2742    3.9637    0.0000 H   0  0  0  0  0  0  0  0  0  0  0  0
    7.4516    2.4888    0.0000 H   0  0  0  0  0  0  0  0  0  0  0  0
    7.8501    1.7985    0.0000 H   0  0  0  0  0  0  0  0  0  0  0  0
    9.4651    1.5711    0.0000 H   0  0  0  0  0  0  0  0  0  0  0  0
    6.8632    7.4605    0.0000 H   0  0  0  0  0  0  0  0  0  0  0  0
    8.3668    5.3373    0.0000 H   0  0  0  0  0  0  0  0  0  0  0  0
    4.7400    5.9570    0.0000 H   0  0  0  0  0  0  0  0  0  0  0  0
    4.7137    5.6569    0.0000 H   0  0  0  0  0  0  0  0  0  0  0  0
    6.5632    7.4868    0.0000 H   0  0  0  0  0  0  0  0  0  0  0  0
    6.5436    3.8075    0.0000 H   0  0  0  0  0  0  0  0  0  0  0  0
    5.8219    8.7015    0.0000 H   0  0  0  0  0  0  0  0  0  0  0  0
    9.6078    6.3786    0.0000 H   0  0  0  0  0  0  0  0  0  0  0  0
    3.4990    4.9157    0.0000 H   0  0  0  0  0  0  0  0  0  0  0  0
    3.6724    6.8979    0.0000 H   0  0  0  0  0  0  0  0  0  0  0  0
    7.8041    8.5281    0.0000 H   0  0  0  0  0  0  0  0  0  0  0  0
    5.3026    2.7661    0.0000 H   0  0  0  0  0  0  0  0  0  0  0  0
    9.4651    0.5711    0.0000 H   0  0  0  0  0  0  0  0  0  0  0  0
    4.2265    8.4202    0.0000 H   0  0  0  0  0  0  0  0  0  0  0  0
    9.3264    7.9740    0.0000 H   0  0  0  0  0  0  0  0  0  0  0  0
    3.7803    3.3203    0.0000 H   0  0  0  0  0  0  0  0  0  0  0  0
    9.2573    3.6911    0.0000 H   0  0  0  0  0  0  0  0  0  0  0  0
    6.6592   -0.8089    0.0000 H   0  0  0  0  0  0  0  0  0  0  0  0
    9.4651   -0.8089    0.0000 H   0  0  0  0  0  0  0  0  0  0  0  0
   11.5263    2.7611    0.0000 H   0  0  0  0  0  0  0  0  0  0  0  0
   10.1233    5.1911    0.0000 H   0  0  0  0  0  0  0  0  0  0  0  0
    9.4651   -2.4289    0.0000 H   0  0  0  0  0  0  0  0  0  0  0  0
   11.5263    6.0011    0.0000 H   0  0  0  0  0  0  0  0  0  0  0  0
    5.8626   -1.6440    0.0000 H   0  0  0  0  0  0  0  0  0  0  0  0
    5.0656   -1.6440    0.0000 H   0  0  0  0  0  0  0  0  0  0  0  0
    9.5388   -4.2266    0.0000 H   0  0  0  0  0  0  0  0  0  0  0  0
    9.1403   -3.5363    0.0000 H   0  0  0  0  0  0  0  0  0  0  0  0
   13.7953    3.6911    0.0000 H   0  0  0  0  0  0  0  0  0  0  0  0
    3.7320   -1.4989    0.0000 H   0  0  0  0  0  0  0  0  0  0  0  0
    5.1350   -3.9289    0.0000 H   0  0  0  0  0  0  0  0  0  0  0  0
   10.3312   -5.3089    0.0000 H   0  0  0  0  0  0  0  0  0  0  0  0
    7.5252   -5.3089    0.0000 H   0  0  0  0  0  0  0  0  0  0  0  0
   13.8783    6.3811    0.0000 H   0  0  0  0  0  0  0  0  0  0  0  0
   13.2583    7.0011    0.0000 H   0  0  0  0  0  0  0  0  0  0  0  0
   12.6383    6.3811    0.0000 H   0  0  0  0  0  0  0  0  0  0  0  0
    2.3291   -2.3089    0.0000 H   0  0  0  0  0  0  0  0  0  0  0  0
    3.7320   -4.7389    0.0000 H   0  0  0  0  0  0  0  0  0  0  0  0
   10.3312   -6.9289    0.0000 H   0  0  0  0  0  0  0  0  0  0  0  0
    7.5252   -6.9289    0.0000 H   0  0  0  0  0  0  0  0  0  0  0  0
  1 63  1  0  0  0  0
  2 64  1  0  0  0  0
  3 18  2  0  0  0  0
  4 33  2  0  0  0  0
  5 37  2  0  0  0  0
  6 44  1  0  0  0  0
  6 50  1  0  0  0  0
  7 45  1  0  0  0  0
  7 51  1  0  0  0  0
  8 49  1  0  0  0  0
  8 58  1  0  0  0  0
  9 47  1  0  0  0  0
  9 98  1  0  0  0  0
 10 13  1  0  0  0  0
 10 18  1  0  0  0  0
 10 65  1  0  0  0  0
 20 11  1  1  0  0  0
 11 37  1  0  0  0  0
 11 83  1  0  0  0  0
 12 33  1  0  0  0  0
 12 39  1  0  0  0  0
 12 87  1  0  0  0  0
 13 14  1  0  0  0  0
 13 15  1  0  0  0  0
 13 16  1  0  0  0  0
 14 21  2  0  0  0  0
 14 24  1  0  0  0  0
 15 22  2  0  0  0  0
 15 25  1  0  0  0  0
 16 23  2  0  0  0  0
 16 26  1  0  0  0  0
 17 18  1  0  0  0  0
 17 19  1  0  0  0  0
 17 66  1  0  0  0  0
 17 67  1  0  0  0  0
 19 20  1  0  0  0  0
 19 68  1  0  0  0  0
 19 69  1  0  0  0  0
 20 33  1  0  0  0  0
 20 70  1  0  0  0  0
 21 27  1  0  0  0  0
 21 71  1  0  0  0  0
 22 28  1  0  0  0  0
 22 72  1  0  0  0  0
 23 29  1  0  0  0  0
 23 73  1  0  0  0  0
 24 30  2  0  0  0  0
 24 74  1  0  0  0  0
 25 31  2  0  0  0  0
 25 75  1  0  0  0  0
 26 32  2  0  0  0  0
 26 76  1  0  0  0  0
 27 34  2  0  0  0  0
 27 77  1  0  0  0  0
 28 35  2  0  0  0  0
 28 78  1  0  0  0  0
 29 36  2  0  0  0  0
 29 79  1  0  0  0  0
 30 34  1  0  0  0  0
 30 80  1  0  0  0  0
 31 35  1  0  0  0  0
 31 81  1  0  0  0  0
 32 36  1  0  0  0  0
 32 82  1  0  0  0  0
 34 84  1  0  0  0  0
 35 85  1  0  0  0  0
 36 86  1  0  0  0  0
 37 38  1  0  0  0  0
 38 40  2  0  0  0  0
 38 41  1  0  0  0  0
 39 42  2  0  0  0  0
 39 43  1  0  0  0  0
 40 44  1  0  0  0  0
 40 88  1  0  0  0  0
 41 46  2  0  0  0  0
 41 89  1  0  0  0  0
 42 47  1  0  0  0  0
 42 90  1  0  0  0  0
 43 48  2  0  0  0  0
 43 91  1  0  0  0  0
 44 45  2  0  0  0  0
 45 46  1  0  0  0  0
 46 92  1  0  0  0  0
 47 49  2  0  0  0  0
 48 49  1  0  0  0  0
 48 93  1  0  0  0  0
 50 52  1  0  0  0  0
 50 94  1  0  0  0  0
 50 95  1  0  0  0  0
 51 53  1  0  0  0  0
 51 96  1  0  0  0  0
 51 97  1  0  0  0  0
 52 54  2  0  0  0  0
 52 55  1  0  0  0  0
 53 56  2  0  0  0  0
 53 57  1  0  0  0  0
 54 59  1  0  0  0  0
 54 99  1  0  0  0  0
 55 60  2  0  0  0  0
 55100  1  0  0  0  0
 56 61  1  0  0  0  0
 56101  1  0  0  0  0
 57 62  2  0  0  0  0
 57102  1  0  0  0  0
 58103  1  0  0  0  0
 58104  1  0  0  0  0
 58105  1  0  0  0  0
 59 63  2  0  0  0  0
 59106  1  0  0  0  0
 60 63  1  0  0  0  0
 60107  1  0  0  0  0
 61 64  2  0  0  0  0
 61108  1  0  0  0  0
 62 64  1  0  0  0  0
 62109  1  0  0  0  0
M  END
> <PUBCHEM_COMPOUND_CID>
504874
> <PUBCHEM_COMPOUND_CANONICALIZED>
1
> <PUBCHEM_CACTVS_COMPLEXITY>
1380
> <PUBCHEM_CACTVS_HBOND_ACCEPTOR>
9
> <PUBCHEM_CACTVS_HBOND_DONOR>
4
> <PUBCHEM_CACTVS_ROTATABLE_BOND>
18
> <PUBCHEM_CACTVS_SUBSKEYS>
AAADcfB/OYAAAAAAAAAAAAAAAAAAAAAAAAAwYMGDAAAAAAABVAAAHwAQCAAADKzhmA4yxoLABgCIAiVSUACCCAAlIgAIiIGO7MgNZjLGtbuWeSvm1hnL+Ye+3/POoEABAgAAQABAgAIEAACAAAAAAAAAAA==
> <PUBCHEM_IUPAC_OPENEYE_NAME>
(2S)-2-[[3,4-bis[(4-fluorophenyl)methoxy]benzoyl]amino]-N-(3-hydroxy-4-methoxy-phenyl)-N'-trityl-pentanediamide
> <PUBCHEM_IUPAC_CAS_NAME>
(2S)-2-[[[3,4-bis[(4-fluorophenyl)methoxy]phenyl]-oxomethyl]amino]-N-(3-hydroxy-4-methoxyphenyl)-N'-(triphenylmethyl)pentanediamide
> <PUBCHEM_IUPAC_NAME_MARKUP>
(2<I>S</I>)-2-[[3,4-bis[(4-fluorophenyl)methoxy]benzoyl]amino]-<I>N</I>-(3-hydroxy-4-methoxyphenyl)-<I>N</I>&apos;-tritylpentanediamide
> <PUBCHEM_IUPAC_NAME>
(2S)-2-[[3,4-bis[(4-fluorophenyl)methoxy]benzoyl]amino]-N-(3-hydroxy-4-methoxyphenyl)-N'-tritylpentanediamide
> <PUBCHEM_IUPAC_SYSTEMATIC_NAME>
(2S)-2-[[3,4-bis[(4-fluorophenyl)methoxy]phenyl]carbonylamino]-N-(4-methoxy-3-oxidanyl-phenyl)-N'-(triphenylmethyl)pentanediamide
> <PUBCHEM_IUPAC_TRADITIONAL_NAME>
(2S)-2-[[3,4-bis[(4-fluorobenzyl)oxy]benzoyl]amino]-N-(3-hydroxy-4-methoxy-phenyl)-N'-trityl-glutaramide
> <PUBCHEM_IUPAC_INCHI>
InChI=1S/C52H45F2N3O7/c1-62-46-29-26-43(32-45(46)58)55-51(61)44(27-30-49(59)57-52(38-11-5-2-6-12-38,39-13-7-3-8-14-39)40-15-9-4-10-16-40)56-50(60)37-21-28-47(63-33-35-17-22-41(53)23-18-35)48(31-37)64-34-36-19-24-42(54)25-20-36/h2-26,28-29,31-32,44,58H,27,30,33-34H2,1H3,(H,55,61)(H,56,60)(H,57,59)/t44-/m0/s1
> <PUBCHEM_IUPAC_INCHIKEY>
ZBUWSQAGKZBKCI-SJARJILFSA-N
> <PUBCHEM_XLOGP3_AA>
9.2
> <PUBCHEM_EXACT_MASS>
861.32255711
> <PUBCHEM_MOLECULAR_FORMULA>
C52H45F2N3O7
> <PUBCHEM_MOLECULAR_WEIGHT>
861.9
> <PUBCHEM_OPENEYE_CAN_SMILES>
COC1=C(C=C(C=C1)NC(=O)C(CCC(=O)NC(C2=CC=CC=C2)(C3=CC=CC=C3)C4=CC=CC=C4)NC(=O)C5=CC(=C(C=C5)OCC6=CC=C(C=C6)F)OCC7=CC=C(C=C7)F)O
> <PUBCHEM_OPENEYE_ISO_SMILES>
COC1=C(C=C(C=C1)NC(=O)[C@H](CCC(=O)NC(C2=CC=CC=C2)(C3=CC=CC=C3)C4=CC=CC=C4)NC(=O)C5=CC(=C(C=C5)OCC6=CC=C(C=C6)F)OCC7=CC=C(C=C7)F)O
> <PUBCHEM_CACTVS_TPSA>
135
> <PUBCHEM_MONOISOTOPIC_WEIGHT>
861.32255711
> <PUBCHEM_TOTAL_CHARGE>
0
> <PUBCHEM_HEAVY_ATOM_COUNT>
64
> <PUBCHEM_ATOM_DEF_STEREO_COUNT>
1
> <PUBCHEM_ATOM_UDEF_STEREO_COUNT>
0
> <PUBCHEM_BOND_DEF_STEREO_COUNT>
0
> <PUBCHEM_BOND_UDEF_STEREO_COUNT>
0
> <PUBCHEM_ISOTOPIC_ATOM_COUNT>
0
> <PUBCHEM_COMPONENT_COUNT>
1
> <PUBCHEM_CACTVS_TAUTO_COUNT>
-1
> <PUBCHEM_COORDINATE_TYPE>
1
5
255
> <PUBCHEM_BONDANNOTATIONS>
20  11  5
14  21  8
14  24  8
15  22  8
15  25  8
16  23  8
16  26  8
21  27  8
22  28  8
23  29  8
24  30  8
25  31  8
26  32  8
27  34  8
28  35  8
29  36  8
30  34  8
31  35  8
32  36  8
38  40  8
38  41  8
39  42  8
39  43  8
40  44  8
41  46  8
42  47  8
43  48  8
44  45  8
45  46  8
47  49  8
48  49  8
52  54  8
52  55  8
53  56  8
53  57  8
54  59  8
55  60  8
56  61  8
57  62  8
59  63  8
60  63  8
61  64  8
62  64  8
$$$$
