504824
  -OEChem-10302200282D
 66 70  0     1  0  0  0  0  0999 V2000
    8.0622   -2.5362    0.0000 O   0  0  0  0  0  0  0  0  0  0  0  0
   10.6603   -0.0362    0.0000 O   0  0  0  0  0  0  0  0  0  0  0  0
    8.0622    3.4638    0.0000 O   0  0  0  0  0  0  0  0  0  0  0  0
   11.5426    4.4984    0.0000 O   0  0  0  0  0  0  0  0  0  0  0  0
    2.0000   -1.0362    0.0000 O   0  0  0  0  0  0  0  0  0  0  0  0
    2.0000   -3.0362    0.0000 O   0  0  0  0  0  0  0  0  0  0  0  0
    8.9282   -0.0362    0.0000 N   0  0  0  0  0  0  0  0  0  0  0  0
    9.2942   -4.0660    0.0000 N   0  0  0  0  0  0  0  0  0  0  0  0
    7.1962   -1.0362    0.0000 N   0  0  0  0  0  0  0  0  0  0  0  0
    8.9282   -1.0362    0.0000 C   0  0  1  0  0  0  0  0  0  0  0  0
    9.7942   -1.5362    0.0000 C   0  0  0  0  0  0  0  0  0  0  0  0
    9.7942   -2.5362    0.0000 C   0  0  0  0  0  0  0  0  0  0  0  0
   10.5990   -3.1198    0.0000 C   0  0  0  0  0  0  0  0  0  0  0  0
   10.2883   -4.0703    0.0000 C   0  0  0  0  0  0  0  0  0  0  0  0
    8.0622   -1.5362    0.0000 C   0  0  0  0  0  0  0  0  0  0  0  0
    8.9895   -3.1198    0.0000 C   0  0  0  0  0  0  0  0  0  0  0  0
   11.5775   -2.9136    0.0000 C   0  0  0  0  0  0  0  0  0  0  0  0
    6.3301   -1.5362    0.0000 C   0  0  0  0  0  0  0  0  0  0  0  0
    9.7942    0.4638    0.0000 C   0  0  0  0  0  0  0  0  0  0  0  0
    9.7942    1.4638    0.0000 C   0  0  0  0  0  0  0  0  0  0  0  0
   10.9561   -4.8146    0.0000 C   0  0  0  0  0  0  0  0  0  0  0  0
    5.4641   -1.0362    0.0000 C   0  0  0  0  0  0  0  0  0  0  0  0
   10.6603    1.9638    0.0000 C   0  0  0  0  0  0  0  0  0  0  0  0
   12.2453   -3.6579    0.0000 C   0  0  0  0  0  0  0  0  0  0  0  0
   11.9346   -4.6084    0.0000 C   0  0  0  0  0  0  0  0  0  0  0  0
   10.6603    2.9638    0.0000 C   0  0  0  0  0  0  0  0  0  0  0  0
    4.5981   -1.5362    0.0000 C   0  0  0  0  0  0  0  0  0  0  0  0
    8.9282    1.9638    0.0000 C   0  0  0  0  0  0  0  0  0  0  0  0
    9.7942    3.4638    0.0000 C   0  0  0  0  0  0  0  0  0  0  0  0
   11.5542    1.4292    0.0000 C   0  0  0  0  0  0  0  0  0  0  0  0
    8.9282    2.9638    0.0000 C   0  0  0  0  0  0  0  0  0  0  0  0
   11.5542    3.4985    0.0000 C   0  0  0  0  0  0  0  0  0  0  0  0
    3.7320   -1.0362    0.0000 C   0  0  0  0  0  0  0  0  0  0  0  0
    4.5981   -2.5362    0.0000 C   0  0  0  0  0  0  0  0  0  0  0  0
   12.4603    1.9430    0.0000 C   0  0  0  0  0  0  0  0  0  0  0  0
   12.4603    2.9846    0.0000 C   0  0  0  0  0  0  0  0  0  0  0  0
    2.8660   -1.5362    0.0000 C   0  0  0  0  0  0  0  0  0  0  0  0
    3.7320   -3.0362    0.0000 C   0  0  0  0  0  0  0  0  0  0  0  0
    2.8660   -2.5362    0.0000 C   0  0  0  0  0  0  0  0  0  0  0  0
    9.4651   -0.7262    0.0000 H   0  0  0  0  0  0  0  0  0  0  0  0
   10.4048   -1.6438    0.0000 H   0  0  0  0  0  0  0  0  0  0  0  0
   10.0063   -0.9536    0.0000 H   0  0  0  0  0  0  0  0  0  0  0  0
    8.3913    0.2738    0.0000 H   0  0  0  0  0  0  0  0  0  0  0  0
    8.4002   -2.9272    0.0000 H   0  0  0  0  0  0  0  0  0  0  0  0
    8.9281   -4.5663    0.0000 H   0  0  0  0  0  0  0  0  0  0  0  0
    7.1962   -0.4162    0.0000 H   0  0  0  0  0  0  0  0  0  0  0  0
   11.7701   -2.3242    0.0000 H   0  0  0  0  0  0  0  0  0  0  0  0
    5.9316   -2.0111    0.0000 H   0  0  0  0  0  0  0  0  0  0  0  0
    6.7287   -2.0111    0.0000 H   0  0  0  0  0  0  0  0  0  0  0  0
   10.7635   -5.4039    0.0000 H   0  0  0  0  0  0  0  0  0  0  0  0
    5.8626   -0.5612    0.0000 H   0  0  0  0  0  0  0  0  0  0  0  0
    5.0656   -0.5612    0.0000 H   0  0  0  0  0  0  0  0  0  0  0  0
   12.8520   -3.5300    0.0000 H   0  0  0  0  0  0  0  0  0  0  0  0
   12.3487   -5.0698    0.0000 H   0  0  0  0  0  0  0  0  0  0  0  0
    8.3913    1.6538    0.0000 H   0  0  0  0  0  0  0  0  0  0  0  0
    9.7942    4.0838    0.0000 H   0  0  0  0  0  0  0  0  0  0  0  0
   11.5470    0.8092    0.0000 H   0  0  0  0  0  0  0  0  0  0  0  0
    3.7320   -0.4162    0.0000 H   0  0  0  0  0  0  0  0  0  0  0  0
    5.1350   -2.8462    0.0000 H   0  0  0  0  0  0  0  0  0  0  0  0
   12.9960    1.6309    0.0000 H   0  0  0  0  0  0  0  0  0  0  0  0
   12.9960    3.2967    0.0000 H   0  0  0  0  0  0  0  0  0  0  0  0
    3.7320   -3.6562    0.0000 H   0  0  0  0  0  0  0  0  0  0  0  0
    7.5252    3.1538    0.0000 H   0  0  0  0  0  0  0  0  0  0  0  0
   12.0759    4.8146    0.0000 H   0  0  0  0  0  0  0  0  0  0  0  0
    2.0000   -0.4162    0.0000 H   0  0  0  0  0  0  0  0  0  0  0  0
    2.0000   -3.6562    0.0000 H   0  0  0  0  0  0  0  0  0  0  0  0
  1 15  2  0  0  0  0
  2 19  2  0  0  0  0
  3 31  1  0  0  0  0
  3 63  1  0  0  0  0
  4 32  1  0  0  0  0
  4 64  1  0  0  0  0
  5 37  1  0  0  0  0
  5 65  1  0  0  0  0
  6 39  1  0  0  0  0
  6 66  1  0  0  0  0
 10  7  1  1  0  0  0
  7 19  1  0  0  0  0
  7 43  1  0  0  0  0
  8 14  1  0  0  0  0
  8 16  1  0  0  0  0
  8 45  1  0  0  0  0
  9 15  1  0  0  0  0
  9 18  1  0  0  0  0
  9 46  1  0  0  0  0
 10 11  1  0  0  0  0
 10 15  1  0  0  0  0
 10 40  1  0  0  0  0
 11 12  1  0  0  0  0
 11 41  1  0  0  0  0
 11 42  1  0  0  0  0
 12 13  1  0  0  0  0
 12 16  2  0  0  0  0
 13 14  1  0  0  0  0
 13 17  2  0  0  0  0
 14 21  2  0  0  0  0
 16 44  1  0  0  0  0
 17 24  1  0  0  0  0
 17 47  1  0  0  0  0
 18 22  1  0  0  0  0
 18 48  1  0  0  0  0
 18 49  1  0  0  0  0
 19 20  1  0  0  0  0
 20 23  1  0  0  0  0
 20 28  2  0  0  0  0
 21 25  1  0  0  0  0
 21 50  1  0  0  0  0
 22 27  1  0  0  0  0
 22 51  1  0  0  0  0
 22 52  1  0  0  0  0
 23 26  2  0  0  0  0
 23 30  1  0  0  0  0
 24 25  2  0  0  0  0
 24 53  1  0  0  0  0
 25 54  1  0  0  0  0
 26 29  1  0  0  0  0
 26 32  1  0  0  0  0
 27 33  2  0  0  0  0
 27 34  1  0  0  0  0
 28 31  1  0  0  0  0
 28 55  1  0  0  0  0
 29 31  2  0  0  0  0
 29 56  1  0  0  0  0
 30 35  2  0  0  0  0
 30 57  1  0  0  0  0
 32 36  2  0  0  0  0
 33 37  1  0  0  0  0
 33 58  1  0  0  0  0
 34 38  2  0  0  0  0
 34 59  1  0  0  0  0
 35 36  1  0  0  0  0
 35 60  1  0  0  0  0
 36 61  1  0  0  0  0
 37 39  2  0  0  0  0
 38 39  1  0  0  0  0
 38 62  1  0  0  0  0
M  END
> <PUBCHEM_COMPOUND_CID>
504824
> <PUBCHEM_COMPOUND_CANONICALIZED>
1
> <PUBCHEM_CACTVS_COMPLEXITY>
844
> <PUBCHEM_CACTVS_HBOND_ACCEPTOR>
6
> <PUBCHEM_CACTVS_HBOND_DONOR>
7
> <PUBCHEM_CACTVS_ROTATABLE_BOND>
8
> <PUBCHEM_CACTVS_SUBSKEYS>
AAADceB7OAAAAAAAAAAAAAAAAAAAAWAAAAAwYMGAAAAAAFjB9AAAHgAQCAAADCzBngQ8xvLJkgCoAzV3VACCgCA1IiAI2aG+7NgJZvLClbOUcQlk1hHJ2Yf63fLOoAADAAAaQABAAAYAADSAAAAAAAAAAA==
> <PUBCHEM_IUPAC_OPENEYE_NAME>
N-[(1S)-2-[2-(3,4-dihydroxyphenyl)ethylamino]-1-(1H-indol-3-ylmethyl)-2-oxo-ethyl]-3,5-dihydroxy-naphthalene-1-carboxamide
> <PUBCHEM_IUPAC_CAS_NAME>
N-[(2S)-1-[2-(3,4-dihydroxyphenyl)ethylamino]-3-(1H-indol-3-yl)-1-oxopropan-2-yl]-3,5-dihydroxy-1-naphthalenecarboxamide
> <PUBCHEM_IUPAC_NAME_MARKUP>
<I>N</I>-[(2<I>S</I>)-1-[2-(3,4-dihydroxyphenyl)ethylamino]-3-(1<I>H</I>-indol-3-yl)-1-oxopropan-2-yl]-3,5-dihydroxynaphthalene-1-carboxamide
> <PUBCHEM_IUPAC_NAME>
N-[(2S)-1-[2-(3,4-dihydroxyphenyl)ethylamino]-3-(1H-indol-3-yl)-1-oxopropan-2-yl]-3,5-dihydroxynaphthalene-1-carboxamide
> <PUBCHEM_IUPAC_SYSTEMATIC_NAME>
N-[(2S)-1-[2-[3,4-bis(oxidanyl)phenyl]ethylamino]-3-(1H-indol-3-yl)-1-oxidanylidene-propan-2-yl]-3,5-bis(oxidanyl)naphthalene-1-carboxamide
> <PUBCHEM_IUPAC_TRADITIONAL_NAME>
N-[(1S)-2-[2-(3,4-dihydroxyphenyl)ethylamino]-1-(1H-indol-3-ylmethyl)-2-keto-ethyl]-3,5-dihydroxy-1-naphthamide
> <PUBCHEM_IUPAC_INCHI>
InChI=1S/C30H27N3O6/c34-19-14-22-21(5-3-7-26(22)35)23(15-19)29(38)33-25(13-18-16-32-24-6-2-1-4-20(18)24)30(39)31-11-10-17-8-9-27(36)28(37)12-17/h1-9,12,14-16,25,32,34-37H,10-11,13H2,(H,31,39)(H,33,38)/t25-/m0/s1
> <PUBCHEM_IUPAC_INCHIKEY>
RQORKEGWEWJAGH-VWLOTQADSA-N
> <PUBCHEM_XLOGP3_AA>
4.4
> <PUBCHEM_EXACT_MASS>
525.18998559
> <PUBCHEM_MOLECULAR_FORMULA>
C30H27N3O6
> <PUBCHEM_MOLECULAR_WEIGHT>
525.6
> <PUBCHEM_OPENEYE_CAN_SMILES>
C1=CC=C2C(=C1)C(=CN2)CC(C(=O)NCCC3=CC(=C(C=C3)O)O)NC(=O)C4=CC(=CC5=C4C=CC=C5O)O
> <PUBCHEM_OPENEYE_ISO_SMILES>
C1=CC=C2C(=C1)C(=CN2)C[C@@H](C(=O)NCCC3=CC(=C(C=C3)O)O)NC(=O)C4=CC(=CC5=C4C=CC=C5O)O
> <PUBCHEM_CACTVS_TPSA>
155
> <PUBCHEM_MONOISOTOPIC_WEIGHT>
525.18998559
> <PUBCHEM_TOTAL_CHARGE>
0
> <PUBCHEM_HEAVY_ATOM_COUNT>
39
> <PUBCHEM_ATOM_DEF_STEREO_COUNT>
1
> <PUBCHEM_ATOM_UDEF_STEREO_COUNT>
0
> <PUBCHEM_BOND_DEF_STEREO_COUNT>
0
> <PUBCHEM_BOND_UDEF_STEREO_COUNT>
0
> <PUBCHEM_ISOTOPIC_ATOM_COUNT>
0
> <PUBCHEM_COMPONENT_COUNT>
1
> <PUBCHEM_CACTVS_TAUTO_COUNT>
-1
> <PUBCHEM_COORDINATE_TYPE>
1
5
255
> <PUBCHEM_BONDANNOTATIONS>
12  13  8
12  16  8
13  14  8
13  17  8
14  21  8
17  24  8
20  23  8
20  28  8
21  25  8
23  26  8
23  30  8
24  25  8
26  29  8
26  32  8
27  33  8
27  34  8
28  31  8
29  31  8
30  35  8
32  36  8
33  37  8
34  38  8
35  36  8
37  39  8
38  39  8
10  7  5
8  14  8
8  16  8
$$$$
