504837
  -OEChem-10302200282D
 61 63  0     1  0  0  0  0  0999 V2000
    8.9962   -1.2500    0.0000 O   0  0  0  0  0  0  0  0  0  0  0  0
    8.9962    1.7500    0.0000 O   0  0  0  0  0  0  0  0  0  0  0  0
    6.3981   -0.7500    0.0000 O   0  0  0  0  0  0  0  0  0  0  0  0
    2.9176   -0.7846    0.0000 O   0  0  0  0  0  0  0  0  0  0  0  0
    4.6660    3.2500    0.0000 O   0  0  0  0  0  0  0  0  0  0  0  0
   12.4603   -2.2500    0.0000 O   0  0  0  0  0  0  0  0  0  0  0  0
   14.1923   -1.2500    0.0000 O   0  0  0  0  0  0  0  0  0  0  0  0
    7.2641    0.7500    0.0000 N   0  0  0  0  0  0  0  0  0  0  0  0
    9.8622    0.2500    0.0000 N   0  0  0  0  0  0  0  0  0  0  0  0
    4.6660    0.2500    0.0000 N   0  0  0  0  0  0  0  0  0  0  0  0
    8.9962   -2.2500    0.0000 C   0  0  0  0  0  0  0  0  0  0  0  0
    8.1301    0.2500    0.0000 C   0  0  1  0  0  0  0  0  0  0  0  0
    8.1301   -0.7500    0.0000 C   0  0  0  0  0  0  0  0  0  0  0  0
    8.9962   -3.2500    0.0000 C   0  0  0  0  0  0  0  0  0  0  0  0
    9.9962   -2.2500    0.0000 C   0  0  0  0  0  0  0  0  0  0  0  0
    7.9962   -2.2500    0.0000 C   0  0  0  0  0  0  0  0  0  0  0  0
    8.9962    0.7500    0.0000 C   0  0  0  0  0  0  0  0  0  0  0  0
    6.3981    0.2500    0.0000 C   0  0  0  0  0  0  0  0  0  0  0  0
    5.5321    0.7500    0.0000 C   0  0  0  0  0  0  0  0  0  0  0  0
   10.7282    0.7500    0.0000 C   0  0  0  0  0  0  0  0  0  0  0  0
    3.8000    0.7500    0.0000 C   0  0  0  0  0  0  0  0  0  0  0  0
    3.8000    1.7500    0.0000 C   0  0  0  0  0  0  0  0  0  0  0  0
   11.5942    0.2500    0.0000 C   0  0  0  0  0  0  0  0  0  0  0  0
    5.5321    1.7500    0.0000 C   0  0  0  0  0  0  0  0  0  0  0  0
    4.6660    2.2500    0.0000 C   0  0  0  0  0  0  0  0  0  0  0  0
    2.9061    0.2153    0.0000 C   0  0  0  0  0  0  0  0  0  0  0  0
    2.9061    2.2847    0.0000 C   0  0  0  0  0  0  0  0  0  0  0  0
   11.5942   -0.7500    0.0000 C   0  0  0  0  0  0  0  0  0  0  0  0
   12.4603    0.7500    0.0000 C   0  0  0  0  0  0  0  0  0  0  0  0
    2.0000    0.7292    0.0000 C   0  0  0  0  0  0  0  0  0  0  0  0
    2.0000    1.7708    0.0000 C   0  0  0  0  0  0  0  0  0  0  0  0
   12.4603   -1.2500    0.0000 C   0  0  0  0  0  0  0  0  0  0  0  0
   13.3263    0.2500    0.0000 C   0  0  0  0  0  0  0  0  0  0  0  0
   13.3263   -0.7500    0.0000 C   0  0  0  0  0  0  0  0  0  0  0  0
    7.5932   -0.0600    0.0000 H   0  0  0  0  0  0  0  0  0  0  0  0
    7.5196   -0.6423    0.0000 H   0  0  0  0  0  0  0  0  0  0  0  0
    7.9181   -1.3326    0.0000 H   0  0  0  0  0  0  0  0  0  0  0  0
    8.3762   -3.2500    0.0000 H   0  0  0  0  0  0  0  0  0  0  0  0
    8.9962   -3.8700    0.0000 H   0  0  0  0  0  0  0  0  0  0  0  0
    9.6162   -3.2500    0.0000 H   0  0  0  0  0  0  0  0  0  0  0  0
    9.9962   -2.8700    0.0000 H   0  0  0  0  0  0  0  0  0  0  0  0
   10.6162   -2.2500    0.0000 H   0  0  0  0  0  0  0  0  0  0  0  0
    9.9962   -1.6300    0.0000 H   0  0  0  0  0  0  0  0  0  0  0  0
    7.9962   -1.6300    0.0000 H   0  0  0  0  0  0  0  0  0  0  0  0
    7.3762   -2.2500    0.0000 H   0  0  0  0  0  0  0  0  0  0  0  0
    7.9962   -2.8700    0.0000 H   0  0  0  0  0  0  0  0  0  0  0  0
    7.2641    1.3700    0.0000 H   0  0  0  0  0  0  0  0  0  0  0  0
    9.8622   -0.3700    0.0000 H   0  0  0  0  0  0  0  0  0  0  0  0
   11.1267    1.2250    0.0000 H   0  0  0  0  0  0  0  0  0  0  0  0
   10.3297    1.2250    0.0000 H   0  0  0  0  0  0  0  0  0  0  0  0
    4.6660   -0.3700    0.0000 H   0  0  0  0  0  0  0  0  0  0  0  0
    6.0690    2.0600    0.0000 H   0  0  0  0  0  0  0  0  0  0  0  0
    2.9132    2.9046    0.0000 H   0  0  0  0  0  0  0  0  0  0  0  0
   11.0573   -1.0600    0.0000 H   0  0  0  0  0  0  0  0  0  0  0  0
   12.4603    1.3700    0.0000 H   0  0  0  0  0  0  0  0  0  0  0  0
    1.4643    0.4171    0.0000 H   0  0  0  0  0  0  0  0  0  0  0  0
    1.4643    2.0829    0.0000 H   0  0  0  0  0  0  0  0  0  0  0  0
   13.8632    0.5600    0.0000 H   0  0  0  0  0  0  0  0  0  0  0  0
    2.3843   -1.1008    0.0000 H   0  0  0  0  0  0  0  0  0  0  0  0
   12.9972   -2.5600    0.0000 H   0  0  0  0  0  0  0  0  0  0  0  0
   14.7292   -0.9400    0.0000 H   0  0  0  0  0  0  0  0  0  0  0  0
  1 11  1  0  0  0  0
  1 13  1  0  0  0  0
  2 17  2  0  0  0  0
  3 18  2  0  0  0  0
  4 26  1  0  0  0  0
  4 59  1  0  0  0  0
  5 25  2  0  0  0  0
  6 32  1  0  0  0  0
  6 60  1  0  0  0  0
  7 34  1  0  0  0  0
  7 61  1  0  0  0  0
 12  8  1  6  0  0  0
  8 18  1  0  0  0  0
  8 47  1  0  0  0  0
  9 17  1  0  0  0  0
  9 20  1  0  0  0  0
  9 48  1  0  0  0  0
 10 19  1  0  0  0  0
 10 21  1  0  0  0  0
 10 51  1  0  0  0  0
 11 14  1  0  0  0  0
 11 15  1  0  0  0  0
 11 16  1  0  0  0  0
 12 13  1  0  0  0  0
 12 17  1  0  0  0  0
 12 35  1  0  0  0  0
 13 36  1  0  0  0  0
 13 37  1  0  0  0  0
 14 38  1  0  0  0  0
 14 39  1  0  0  0  0
 14 40  1  0  0  0  0
 15 41  1  0  0  0  0
 15 42  1  0  0  0  0
 15 43  1  0  0  0  0
 16 44  1  0  0  0  0
 16 45  1  0  0  0  0
 16 46  1  0  0  0  0
 18 19  1  0  0  0  0
 19 24  2  0  0  0  0
 20 23  1  0  0  0  0
 20 49  1  0  0  0  0
 20 50  1  0  0  0  0
 21 22  2  0  0  0  0
 21 26  1  0  0  0  0
 22 25  1  0  0  0  0
 22 27  1  0  0  0  0
 23 28  2  0  0  0  0
 23 29  1  0  0  0  0
 24 25  1  0  0  0  0
 24 52  1  0  0  0  0
 26 30  2  0  0  0  0
 27 31  2  0  0  0  0
 27 53  1  0  0  0  0
 28 32  1  0  0  0  0
 28 54  1  0  0  0  0
 29 33  2  0  0  0  0
 29 55  1  0  0  0  0
 30 31  1  0  0  0  0
 30 56  1  0  0  0  0
 31 57  1  0  0  0  0
 32 34  2  0  0  0  0
 33 34  1  0  0  0  0
 33 58  1  0  0  0  0
M  END
> <PUBCHEM_COMPOUND_CID>
504837
> <PUBCHEM_COMPOUND_CANONICALIZED>
1
> <PUBCHEM_CACTVS_COMPLEXITY>
794
> <PUBCHEM_CACTVS_HBOND_ACCEPTOR>
8
> <PUBCHEM_CACTVS_HBOND_DONOR>
6
> <PUBCHEM_CACTVS_ROTATABLE_BOND>
8
> <PUBCHEM_CACTVS_SUBSKEYS>
AAADceB7OAAAAAAAAAAAAAAAAAAAAAAAAAAwYIAAAAAAAACBQAAAHgAQCAAADGzhmAYyxoLABgCIAqVSUACCAAAlIgAIiIGPzMgLZj7SlbOXcYlm9hHZ2ce62LKOIAABAAACUABAAAIAAASgAAAAAAAAAA==
> <PUBCHEM_IUPAC_OPENEYE_NAME>
N-[(1S)-1-(tert-butoxymethyl)-2-[(3,4-dihydroxyphenyl)methylamino]-2-oxo-ethyl]-8-hydroxy-4-oxo-1H-quinoline-2-carboxamide
> <PUBCHEM_IUPAC_CAS_NAME>
N-[(2S)-1-[(3,4-dihydroxyphenyl)methylamino]-3-[(2-methylpropan-2-yl)oxy]-1-oxopropan-2-yl]-8-hydroxy-4-oxo-1H-quinoline-2-carboxamide
> <PUBCHEM_IUPAC_NAME_MARKUP>
<I>N</I>-[(2<I>S</I>)-1-[(3,4-dihydroxyphenyl)methylamino]-3-[(2-methylpropan-2-yl)oxy]-1-oxopropan-2-yl]-8-hydroxy-4-oxo-1<I>H</I>-quinoline-2-carboxamide
> <PUBCHEM_IUPAC_NAME>
N-[(2S)-1-[(3,4-dihydroxyphenyl)methylamino]-3-[(2-methylpropan-2-yl)oxy]-1-oxopropan-2-yl]-8-hydroxy-4-oxo-1H-quinoline-2-carboxamide
> <PUBCHEM_IUPAC_SYSTEMATIC_NAME>
N-[(2S)-1-[[3,4-bis(oxidanyl)phenyl]methylamino]-3-[(2-methylpropan-2-yl)oxy]-1-oxidanylidene-propan-2-yl]-8-oxidanyl-4-oxidanylidene-1H-quinoline-2-carboxamide
> <PUBCHEM_IUPAC_TRADITIONAL_NAME>
N-[(1S)-1-(tert-butoxymethyl)-2-keto-2-(protocatechuylamino)ethyl]-8-hydroxy-4-keto-1H-quinoline-2-carboxamide
> <PUBCHEM_IUPAC_INCHI>
InChI=1S/C24H27N3O7/c1-24(2,3)34-12-16(22(32)25-11-13-7-8-17(28)20(31)9-13)27-23(33)15-10-19(30)14-5-4-6-18(29)21(14)26-15/h4-10,16,28-29,31H,11-12H2,1-3H3,(H,25,32)(H,26,30)(H,27,33)/t16-/m0/s1
> <PUBCHEM_IUPAC_INCHIKEY>
UIPQJEOBTWVKKP-INIZCTEOSA-N
> <PUBCHEM_XLOGP3_AA>
1.7
> <PUBCHEM_EXACT_MASS>
469.18490021
> <PUBCHEM_MOLECULAR_FORMULA>
C24H27N3O7
> <PUBCHEM_MOLECULAR_WEIGHT>
469.5
> <PUBCHEM_OPENEYE_CAN_SMILES>
CC(C)(C)OCC(C(=O)NCC1=CC(=C(C=C1)O)O)NC(=O)C2=CC(=O)C3=C(N2)C(=CC=C3)O
> <PUBCHEM_OPENEYE_ISO_SMILES>
CC(C)(C)OC[C@@H](C(=O)NCC1=CC(=C(C=C1)O)O)NC(=O)C2=CC(=O)C3=C(N2)C(=CC=C3)O
> <PUBCHEM_CACTVS_TPSA>
157
> <PUBCHEM_MONOISOTOPIC_WEIGHT>
469.18490021
> <PUBCHEM_TOTAL_CHARGE>
0
> <PUBCHEM_HEAVY_ATOM_COUNT>
34
> <PUBCHEM_ATOM_DEF_STEREO_COUNT>
1
> <PUBCHEM_ATOM_UDEF_STEREO_COUNT>
0
> <PUBCHEM_BOND_DEF_STEREO_COUNT>
0
> <PUBCHEM_BOND_UDEF_STEREO_COUNT>
0
> <PUBCHEM_ISOTOPIC_ATOM_COUNT>
0
> <PUBCHEM_COMPONENT_COUNT>
1
> <PUBCHEM_CACTVS_TAUTO_COUNT>
-1
> <PUBCHEM_COORDINATE_TYPE>
1
5
255
> <PUBCHEM_BONDANNOTATIONS>
10  19  8
10  21  8
19  24  8
21  22  8
21  26  8
22  25  8
22  27  8
23  28  8
23  29  8
24  25  8
26  30  8
27  31  8
28  32  8
29  33  8
30  31  8
32  34  8
33  34  8
12  8  6
$$$$
