504830
  -OEChem-10302200282D
 64 67  0     1  0  0  0  0  0999 V2000
    2.8660   -0.0997    0.0000 O   0  0  0  0  0  0  0  0  0  0  0  0
    2.0000    1.4003    0.0000 O   0  0  0  0  0  0  0  0  0  0  0  0
    5.4641    2.4003    0.0000 O   0  0  0  0  0  0  0  0  0  0  0  0
    5.4641   -3.5997    0.0000 O   0  0  0  0  0  0  0  0  0  0  0  0
    2.8660    5.9003    0.0000 O   0  0  0  0  0  0  0  0  0  0  0  0
    6.3465    6.9349    0.0000 O   0  0  0  0  0  0  0  0  0  0  0  0
    9.7942   -3.0997    0.0000 O   0  0  0  0  0  0  0  0  0  0  0  0
    8.9500   -6.6311    0.0000 O   0  0  0  0  0  0  0  0  0  0  0  0
    3.7320    2.4003    0.0000 N   0  0  0  0  0  0  0  0  0  0  0  0
    6.3301   -2.0997    0.0000 N   0  0  0  0  0  0  0  0  0  0  0  0
    4.5981    0.9003    0.0000 C   0  0  0  0  0  0  0  0  0  0  0  0
    4.5981   -0.0997    0.0000 C   0  0  0  0  0  0  0  0  0  0  0  0
    3.7320    1.4003    0.0000 C   0  0  1  0  0  0  0  0  0  0  0  0
    5.4641   -0.5997    0.0000 C   0  0  0  0  0  0  0  0  0  0  0  0
    5.4641   -1.5997    0.0000 C   0  0  0  0  0  0  0  0  0  0  0  0
    2.8660    0.9003    0.0000 C   0  0  0  0  0  0  0  0  0  0  0  0
    4.5981    2.9003    0.0000 C   0  0  0  0  0  0  0  0  0  0  0  0
    4.5981    3.9003    0.0000 C   0  0  0  0  0  0  0  0  0  0  0  0
    5.4641    4.4003    0.0000 C   0  0  0  0  0  0  0  0  0  0  0  0
    7.1962   -3.5997    0.0000 C   0  0  0  0  0  0  0  0  0  0  0  0
    6.3301   -3.0997    0.0000 C   0  0  0  0  0  0  0  0  0  0  0  0
    7.1962   -4.5997    0.0000 C   0  0  0  0  0  0  0  0  0  0  0  0
    5.4641    5.4003    0.0000 C   0  0  0  0  0  0  0  0  0  0  0  0
    8.0622   -5.0997    0.0000 C   0  0  0  0  0  0  0  0  0  0  0  0
    3.7320    4.4003    0.0000 C   0  0  0  0  0  0  0  0  0  0  0  0
    4.5981    5.9003    0.0000 C   0  0  0  0  0  0  0  0  0  0  0  0
    8.0622   -3.0997    0.0000 C   0  0  0  0  0  0  0  0  0  0  0  0
    6.3580    3.8657    0.0000 C   0  0  0  0  0  0  0  0  0  0  0  0
    3.7320    5.4003    0.0000 C   0  0  0  0  0  0  0  0  0  0  0  0
    6.3580    5.9350    0.0000 C   0  0  0  0  0  0  0  0  0  0  0  0
    8.9282   -4.5997    0.0000 C   0  0  0  0  0  0  0  0  0  0  0  0
    6.2862   -5.1065    0.0000 C   0  0  0  0  0  0  0  0  0  0  0  0
    8.9282   -3.5997    0.0000 C   0  0  0  0  0  0  0  0  0  0  0  0
    8.0782   -6.1412    0.0000 C   0  0  0  0  0  0  0  0  0  0  0  0
    7.2641    4.3795    0.0000 C   0  0  0  0  0  0  0  0  0  0  0  0
    7.2641    5.4211    0.0000 C   0  0  0  0  0  0  0  0  0  0  0  0
    6.2781   -6.1481    0.0000 C   0  0  0  0  0  0  0  0  0  0  0  0
    7.1802   -6.6689    0.0000 C   0  0  0  0  0  0  0  0  0  0  0  0
    5.2087    0.7927    0.0000 H   0  0  0  0  0  0  0  0  0  0  0  0
    4.8101    1.4829    0.0000 H   0  0  0  0  0  0  0  0  0  0  0  0
    3.9875    0.0080    0.0000 H   0  0  0  0  0  0  0  0  0  0  0  0
    4.3860   -0.6823    0.0000 H   0  0  0  0  0  0  0  0  0  0  0  0
    4.2690    1.7103    0.0000 H   0  0  0  0  0  0  0  0  0  0  0  0
    6.0747   -0.7073    0.0000 H   0  0  0  0  0  0  0  0  0  0  0  0
    5.6762   -0.0171    0.0000 H   0  0  0  0  0  0  0  0  0  0  0  0
    4.8535   -1.4920    0.0000 H   0  0  0  0  0  0  0  0  0  0  0  0
    5.2520   -2.1823    0.0000 H   0  0  0  0  0  0  0  0  0  0  0  0
    3.1951    2.7103    0.0000 H   0  0  0  0  0  0  0  0  0  0  0  0
    6.8671   -1.7897    0.0000 H   0  0  0  0  0  0  0  0  0  0  0  0
    3.1951    4.0903    0.0000 H   0  0  0  0  0  0  0  0  0  0  0  0
    4.5981    6.5203    0.0000 H   0  0  0  0  0  0  0  0  0  0  0  0
    8.0622   -2.4797    0.0000 H   0  0  0  0  0  0  0  0  0  0  0  0
    6.3509    3.2457    0.0000 H   0  0  0  0  0  0  0  0  0  0  0  0
    9.4651   -4.9097    0.0000 H   0  0  0  0  0  0  0  0  0  0  0  0
    5.7528   -4.7903    0.0000 H   0  0  0  0  0  0  0  0  0  0  0  0
    7.7998    4.0674    0.0000 H   0  0  0  0  0  0  0  0  0  0  0  0
    2.3291   -0.4097    0.0000 H   0  0  0  0  0  0  0  0  0  0  0  0
    7.7998    5.7332    0.0000 H   0  0  0  0  0  0  0  0  0  0  0  0
    5.7400   -6.4561    0.0000 H   0  0  0  0  0  0  0  0  0  0  0  0
    7.1826   -7.2889    0.0000 H   0  0  0  0  0  0  0  0  0  0  0  0
    2.3291    5.5903    0.0000 H   0  0  0  0  0  0  0  0  0  0  0  0
    6.8798    7.2511    0.0000 H   0  0  0  0  0  0  0  0  0  0  0  0
   10.3312   -3.4097    0.0000 H   0  0  0  0  0  0  0  0  0  0  0  0
    8.9572   -7.2511    0.0000 H   0  0  0  0  0  0  0  0  0  0  0  0
  1 16  1  0  0  0  0
  1 57  1  0  0  0  0
  2 16  2  0  0  0  0
  3 17  2  0  0  0  0
  4 21  2  0  0  0  0
  5 29  1  0  0  0  0
  5 61  1  0  0  0  0
  6 30  1  0  0  0  0
  6 62  1  0  0  0  0
  7 33  1  0  0  0  0
  7 63  1  0  0  0  0
  8 34  1  0  0  0  0
  8 64  1  0  0  0  0
 13  9  1  1  0  0  0
  9 17  1  0  0  0  0
  9 48  1  0  0  0  0
 10 15  1  0  0  0  0
 10 21  1  0  0  0  0
 10 49  1  0  0  0  0
 11 12  1  0  0  0  0
 11 13  1  0  0  0  0
 11 39  1  0  0  0  0
 11 40  1  0  0  0  0
 12 14  1  0  0  0  0
 12 41  1  0  0  0  0
 12 42  1  0  0  0  0
 13 16  1  0  0  0  0
 13 43  1  0  0  0  0
 14 15  1  0  0  0  0
 14 44  1  0  0  0  0
 14 45  1  0  0  0  0
 15 46  1  0  0  0  0
 15 47  1  0  0  0  0
 17 18  1  0  0  0  0
 18 19  1  0  0  0  0
 18 25  2  0  0  0  0
 19 23  2  0  0  0  0
 19 28  1  0  0  0  0
 20 21  1  0  0  0  0
 20 22  1  0  0  0  0
 20 27  2  0  0  0  0
 22 24  2  0  0  0  0
 22 32  1  0  0  0  0
 23 26  1  0  0  0  0
 23 30  1  0  0  0  0
 24 31  1  0  0  0  0
 24 34  1  0  0  0  0
 25 29  1  0  0  0  0
 25 50  1  0  0  0  0
 26 29  2  0  0  0  0
 26 51  1  0  0  0  0
 27 33  1  0  0  0  0
 27 52  1  0  0  0  0
 28 35  2  0  0  0  0
 28 53  1  0  0  0  0
 30 36  2  0  0  0  0
 31 33  2  0  0  0  0
 31 54  1  0  0  0  0
 32 37  2  0  0  0  0
 32 55  1  0  0  0  0
 34 38  2  0  0  0  0
 35 36  1  0  0  0  0
 35 56  1  0  0  0  0
 36 58  1  0  0  0  0
 37 38  1  0  0  0  0
 37 59  1  0  0  0  0
 38 60  1  0  0  0  0
M  END
> <PUBCHEM_COMPOUND_CID>
504830
> <PUBCHEM_COMPOUND_CANONICALIZED>
1
> <PUBCHEM_CACTVS_COMPLEXITY>
840
> <PUBCHEM_CACTVS_HBOND_ACCEPTOR>
8
> <PUBCHEM_CACTVS_HBOND_DONOR>
7
> <PUBCHEM_CACTVS_ROTATABLE_BOND>
9
> <PUBCHEM_CACTVS_SUBSKEYS>
AAADceB7PAAAAAAAAAAAAAAAAAAAAAAAAAAwYMGAAAAAAADBVAAAHgAQCAAADCzBmAQwDsLAAgCIAiHSGACCAAAkIAAIiIGODMgKJjKClTOEcQhk1hGYmYf63PLOoAADAAAYAABAAAYAADAAAAAAAAAAAA==
> <PUBCHEM_IUPAC_OPENEYE_NAME>
(2S)-2,6-bis[(3,5-dihydroxynaphthalene-1-carbonyl)amino]hexanoic acid
> <PUBCHEM_IUPAC_CAS_NAME>
(2S)-2,6-bis[[(3,5-dihydroxy-1-naphthalenyl)-oxomethyl]amino]hexanoic acid
> <PUBCHEM_IUPAC_NAME_MARKUP>
(2<I>S</I>)-2,6-bis[(3,5-dihydroxynaphthalene-1-carbonyl)amino]hexanoic acid
> <PUBCHEM_IUPAC_NAME>
(2S)-2,6-bis[(3,5-dihydroxynaphthalene-1-carbonyl)amino]hexanoic acid
> <PUBCHEM_IUPAC_SYSTEMATIC_NAME>
(2S)-2,6-bis[[3,5-bis(oxidanyl)naphthalen-1-yl]carbonylamino]hexanoic acid
> <PUBCHEM_IUPAC_TRADITIONAL_NAME>
(2S)-2,6-bis[(3,5-dihydroxy-1-naphthoyl)amino]hexanoic acid
> <PUBCHEM_IUPAC_INCHI>
InChI=1S/C28H26N2O8/c31-15-11-19-17(5-3-8-24(19)33)21(13-15)26(35)29-10-2-1-7-23(28(37)38)30-27(36)22-14-16(32)12-20-18(22)6-4-9-25(20)34/h3-6,8-9,11-14,23,31-34H,1-2,7,10H2,(H,29,35)(H,30,36)(H,37,38)/t23-/m0/s1
> <PUBCHEM_IUPAC_INCHIKEY>
MCVQXQMDVSUALE-QHCPKHFHSA-N
> <PUBCHEM_XLOGP3_AA>
4
> <PUBCHEM_EXACT_MASS>
518.16891579
> <PUBCHEM_MOLECULAR_FORMULA>
C28H26N2O8
> <PUBCHEM_MOLECULAR_WEIGHT>
518.5
> <PUBCHEM_OPENEYE_CAN_SMILES>
C1=CC2=C(C=C(C=C2C(=O)NCCCCC(C(=O)O)NC(=O)C3=CC(=CC4=C3C=CC=C4O)O)O)C(=C1)O
> <PUBCHEM_OPENEYE_ISO_SMILES>
C1=CC2=C(C=C(C=C2C(=O)NCCCC[C@@H](C(=O)O)NC(=O)C3=CC(=CC4=C3C=CC=C4O)O)O)C(=C1)O
> <PUBCHEM_CACTVS_TPSA>
176
> <PUBCHEM_MONOISOTOPIC_WEIGHT>
518.16891579
> <PUBCHEM_TOTAL_CHARGE>
0
> <PUBCHEM_HEAVY_ATOM_COUNT>
38
> <PUBCHEM_ATOM_DEF_STEREO_COUNT>
1
> <PUBCHEM_ATOM_UDEF_STEREO_COUNT>
0
> <PUBCHEM_BOND_DEF_STEREO_COUNT>
0
> <PUBCHEM_BOND_UDEF_STEREO_COUNT>
0
> <PUBCHEM_ISOTOPIC_ATOM_COUNT>
0
> <PUBCHEM_COMPONENT_COUNT>
1
> <PUBCHEM_CACTVS_TAUTO_COUNT>
-1
> <PUBCHEM_COORDINATE_TYPE>
1
5
255
> <PUBCHEM_BONDANNOTATIONS>
18  19  8
18  25  8
19  23  8
19  28  8
20  22  8
20  27  8
22  24  8
22  32  8
23  26  8
23  30  8
24  31  8
24  34  8
25  29  8
26  29  8
27  33  8
28  35  8
30  36  8
31  33  8
32  37  8
34  38  8
35  36  8
37  38  8
13  9  5
$$$$
