504835
  -OEChem-10302200282D
 88 94  0     1  0  0  0  0  0999 V2000
    7.2641   -1.2058    0.0000 O   0  0  0  0  0  0  0  0  0  0  0  0
    6.3981   -0.7058    0.0000 O   0  0  0  0  0  0  0  0  0  0  0  0
    4.6660    3.2942    0.0000 O   0  0  0  0  0  0  0  0  0  0  0  0
    2.9176   -0.7404    0.0000 O   0  0  0  0  0  0  0  0  0  0  0  0
   10.7282   -5.2058    0.0000 O   0  0  0  0  0  0  0  0  0  0  0  0
   12.4603   -4.2058    0.0000 O   0  0  0  0  0  0  0  0  0  0  0  0
   10.5839    1.6032    0.0000 N   0  0  0  0  0  0  0  0  0  0  0  0
   11.5350    0.2942    0.0000 N   0  0  0  0  0  0  0  0  0  0  0  0
    7.2641    0.7942    0.0000 N   0  0  0  0  0  0  0  0  0  0  0  0
    8.9962   -1.2058    0.0000 N   0  0  0  0  0  0  0  0  0  0  0  0
    4.6660    0.2942    0.0000 N   0  0  0  0  0  0  0  0  0  0  0  0
   10.7919    2.5814    0.0000 C   0  0  0  0  0  0  0  0  0  0  0  0
   11.7912    2.5465    0.0000 C   0  0  0  0  0  0  0  0  0  0  0  0
   10.9998    3.5595    0.0000 C   0  0  0  0  0  0  0  0  0  0  0  0
    9.8137    2.7893    0.0000 C   0  0  0  0  0  0  0  0  0  0  0  0
    9.9962    0.7942    0.0000 C   0  0  0  0  0  0  0  0  0  0  0  0
    8.9962    0.7942    0.0000 C   0  0  0  0  0  0  0  0  0  0  0  0
    8.1301    0.2942    0.0000 C   0  0  1  0  0  0  0  0  0  0  0  0
   11.5350    1.2942    0.0000 C   0  0  0  0  0  0  0  0  0  0  0  0
   10.5839   -0.0148    0.0000 C   0  0  0  0  0  0  0  0  0  0  0  0
   12.3212    3.3945    0.0000 C   0  0  0  0  0  0  0  0  0  0  0  0
   10.2566    4.2286    0.0000 C   0  0  0  0  0  0  0  0  0  0  0  0
    9.1446    2.0461    0.0000 C   0  0  0  0  0  0  0  0  0  0  0  0
   12.2607    1.6635    0.0000 C   0  0  0  0  0  0  0  0  0  0  0  0
   11.9508    3.8685    0.0000 C   0  0  0  0  0  0  0  0  0  0  0  0
    9.5047    3.7403    0.0000 C   0  0  0  0  0  0  0  0  0  0  0  0
    8.1301   -0.7058    0.0000 C   0  0  0  0  0  0  0  0  0  0  0  0
   13.3206    3.3596    0.0000 C   0  0  0  0  0  0  0  0  0  0  0  0
   10.4645    5.2068    0.0000 C   0  0  0  0  0  0  0  0  0  0  0  0
    8.1664    2.2540    0.0000 C   0  0  0  0  0  0  0  0  0  0  0  0
   13.2601    1.6286    0.0000 C   0  0  0  0  0  0  0  0  0  0  0  0
   12.1587    4.8467    0.0000 C   0  0  0  0  0  0  0  0  0  0  0  0
    8.5266    3.9482    0.0000 C   0  0  0  0  0  0  0  0  0  0  0  0
   13.7900    2.4767    0.0000 C   0  0  0  0  0  0  0  0  0  0  0  0
   11.4156    5.5158    0.0000 C   0  0  0  0  0  0  0  0  0  0  0  0
    7.8574    3.2051    0.0000 C   0  0  0  0  0  0  0  0  0  0  0  0
    6.3981    0.2942    0.0000 C   0  0  0  0  0  0  0  0  0  0  0  0
    8.9962   -2.2058    0.0000 C   0  0  0  0  0  0  0  0  0  0  0  0
    5.5321    0.7942    0.0000 C   0  0  0  0  0  0  0  0  0  0  0  0
    9.8622   -2.7058    0.0000 C   0  0  0  0  0  0  0  0  0  0  0  0
    5.5321    1.7942    0.0000 C   0  0  0  0  0  0  0  0  0  0  0  0
    3.8000    0.7942    0.0000 C   0  0  0  0  0  0  0  0  0  0  0  0
    3.8000    1.7942    0.0000 C   0  0  0  0  0  0  0  0  0  0  0  0
    4.6660    2.2942    0.0000 C   0  0  0  0  0  0  0  0  0  0  0  0
    9.8622   -3.7058    0.0000 C   0  0  0  0  0  0  0  0  0  0  0  0
   10.7282   -2.2058    0.0000 C   0  0  0  0  0  0  0  0  0  0  0  0
    2.9061    0.2595    0.0000 C   0  0  0  0  0  0  0  0  0  0  0  0
    2.9061    2.3289    0.0000 C   0  0  0  0  0  0  0  0  0  0  0  0
   10.7282   -4.2058    0.0000 C   0  0  0  0  0  0  0  0  0  0  0  0
   11.5942   -2.7058    0.0000 C   0  0  0  0  0  0  0  0  0  0  0  0
    2.0000    0.7734    0.0000 C   0  0  0  0  0  0  0  0  0  0  0  0
    2.0000    1.8150    0.0000 C   0  0  0  0  0  0  0  0  0  0  0  0
   11.5942   -3.7058    0.0000 C   0  0  0  0  0  0  0  0  0  0  0  0
    9.2082    1.3768    0.0000 H   0  0  0  0  0  0  0  0  0  0  0  0
    9.1566    0.1953    0.0000 H   0  0  0  0  0  0  0  0  0  0  0  0
    7.5932   -0.0158    0.0000 H   0  0  0  0  0  0  0  0  0  0  0  0
   12.0366    1.6586    0.0000 H   0  0  0  0  0  0  0  0  0  0  0  0
   10.3924   -0.6045    0.0000 H   0  0  0  0  0  0  0  0  0  0  0  0
   12.0301    3.9419    0.0000 H   0  0  0  0  0  0  0  0  0  0  0  0
    9.6670    4.0370    0.0000 H   0  0  0  0  0  0  0  0  0  0  0  0
    9.3362    1.4565    0.0000 H   0  0  0  0  0  0  0  0  0  0  0  0
   11.9322    1.1377    0.0000 H   0  0  0  0  0  0  0  0  0  0  0  0
   12.4116    3.4537    0.0000 H   0  0  0  0  0  0  0  0  0  0  0  0
    9.9195    4.2011    0.0000 H   0  0  0  0  0  0  0  0  0  0  0  0
    7.2641    1.4142    0.0000 H   0  0  0  0  0  0  0  0  0  0  0  0
   13.6491    3.8854    0.0000 H   0  0  0  0  0  0  0  0  0  0  0  0
   10.0038    5.6216    0.0000 H   0  0  0  0  0  0  0  0  0  0  0  0
    7.7516    1.7933    0.0000 H   0  0  0  0  0  0  0  0  0  0  0  0
   13.5512    1.0812    0.0000 H   0  0  0  0  0  0  0  0  0  0  0  0
   12.7484    5.0383    0.0000 H   0  0  0  0  0  0  0  0  0  0  0  0
    8.3350    4.5379    0.0000 H   0  0  0  0  0  0  0  0  0  0  0  0
   14.4097    2.4550    0.0000 H   0  0  0  0  0  0  0  0  0  0  0  0
   11.5445    6.1223    0.0000 H   0  0  0  0  0  0  0  0  0  0  0  0
    7.2510    3.3340    0.0000 H   0  0  0  0  0  0  0  0  0  0  0  0
    9.5331   -0.8958    0.0000 H   0  0  0  0  0  0  0  0  0  0  0  0
    8.3856   -2.0981    0.0000 H   0  0  0  0  0  0  0  0  0  0  0  0
    8.7841   -2.7884    0.0000 H   0  0  0  0  0  0  0  0  0  0  0  0
    4.6660   -0.3258    0.0000 H   0  0  0  0  0  0  0  0  0  0  0  0
    6.0690    2.1042    0.0000 H   0  0  0  0  0  0  0  0  0  0  0  0
    9.3252   -4.0158    0.0000 H   0  0  0  0  0  0  0  0  0  0  0  0
   10.7282   -1.5858    0.0000 H   0  0  0  0  0  0  0  0  0  0  0  0
    2.9132    2.9488    0.0000 H   0  0  0  0  0  0  0  0  0  0  0  0
    1.4643    0.4613    0.0000 H   0  0  0  0  0  0  0  0  0  0  0  0
   12.1312   -2.3958    0.0000 H   0  0  0  0  0  0  0  0  0  0  0  0
    1.4643    2.1271    0.0000 H   0  0  0  0  0  0  0  0  0  0  0  0
    2.3843   -1.0566    0.0000 H   0  0  0  0  0  0  0  0  0  0  0  0
   11.2651   -5.5158    0.0000 H   0  0  0  0  0  0  0  0  0  0  0  0
   12.9972   -3.8958    0.0000 H   0  0  0  0  0  0  0  0  0  0  0  0
  1 27  2  0  0  0  0
  2 37  2  0  0  0  0
  3 44  2  0  0  0  0
  4 47  1  0  0  0  0
  4 86  1  0  0  0  0
  5 49  1  0  0  0  0
  5 87  1  0  0  0  0
  6 53  1  0  0  0  0
  6 88  1  0  0  0  0
  7 12  1  0  0  0  0
  7 16  1  0  0  0  0
  7 19  1  0  0  0  0
  8 19  2  0  0  0  0
  8 20  1  0  0  0  0
 18  9  1  1  0  0  0
  9 37  1  0  0  0  0
  9 65  1  0  0  0  0
 10 27  1  0  0  0  0
 10 38  1  0  0  0  0
 10 75  1  0  0  0  0
 11 39  1  0  0  0  0
 11 42  1  0  0  0  0
 11 78  1  0  0  0  0
 12 13  1  0  0  0  0
 12 14  1  0  0  0  0
 12 15  1  0  0  0  0
 13 21  2  0  0  0  0
 13 24  1  0  0  0  0
 14 22  2  0  0  0  0
 14 25  1  0  0  0  0
 15 23  2  0  0  0  0
 15 26  1  0  0  0  0
 16 17  1  0  0  0  0
 16 20  2  0  0  0  0
 17 18  1  0  0  0  0
 17 54  1  0  0  0  0
 17 55  1  0  0  0  0
 18 27  1  0  0  0  0
 18 56  1  0  0  0  0
 19 57  1  0  0  0  0
 20 58  1  0  0  0  0
 21 28  1  0  0  0  0
 21 59  1  0  0  0  0
 22 29  1  0  0  0  0
 22 60  1  0  0  0  0
 23 30  1  0  0  0  0
 23 61  1  0  0  0  0
 24 31  2  0  0  0  0
 24 62  1  0  0  0  0
 25 32  2  0  0  0  0
 25 63  1  0  0  0  0
 26 33  2  0  0  0  0
 26 64  1  0  0  0  0
 28 34  2  0  0  0  0
 28 66  1  0  0  0  0
 29 35  2  0  0  0  0
 29 67  1  0  0  0  0
 30 36  2  0  0  0  0
 30 68  1  0  0  0  0
 31 34  1  0  0  0  0
 31 69  1  0  0  0  0
 32 35  1  0  0  0  0
 32 70  1  0  0  0  0
 33 36  1  0  0  0  0
 33 71  1  0  0  0  0
 34 72  1  0  0  0  0
 35 73  1  0  0  0  0
 36 74  1  0  0  0  0
 37 39  1  0  0  0  0
 38 40  1  0  0  0  0
 38 76  1  0  0  0  0
 38 77  1  0  0  0  0
 39 41  2  0  0  0  0
 40 45  2  0  0  0  0
 40 46  1  0  0  0  0
 41 44  1  0  0  0  0
 41 79  1  0  0  0  0
 42 43  2  0  0  0  0
 42 47  1  0  0  0  0
 43 44  1  0  0  0  0
 43 48  1  0  0  0  0
 45 49  1  0  0  0  0
 45 80  1  0  0  0  0
 46 50  2  0  0  0  0
 46 81  1  0  0  0  0
 47 51  2  0  0  0  0
 48 52  2  0  0  0  0
 48 82  1  0  0  0  0
 49 53  2  0  0  0  0
 50 53  1  0  0  0  0
 50 84  1  0  0  0  0
 51 52  1  0  0  0  0
 51 83  1  0  0  0  0
 52 85  1  0  0  0  0
M  END
> <PUBCHEM_COMPOUND_CID>
504835
> <PUBCHEM_COMPOUND_CANONICALIZED>
1
> <PUBCHEM_CACTVS_COMPLEXITY>
1250
> <PUBCHEM_CACTVS_HBOND_ACCEPTOR>
8
> <PUBCHEM_CACTVS_HBOND_DONOR>
6
> <PUBCHEM_CACTVS_ROTATABLE_BOND>
11
> <PUBCHEM_CACTVS_SUBSKEYS>
AAADcfB/uAAAAAAAAAAAAAAAAAAAAWAAAAAwYMGDAAAAAACB1AAAHgAQCAAADKzBngQ91pfMEgCoA7V3dACCgC01MqAJ2IG//MiLbjrS3bOUcYls1hPZ2ee+2fKOoAABAAACUABAAAIAAASgAAAAAAAAAA==
> <PUBCHEM_IUPAC_OPENEYE_NAME>
N-[(1S)-2-[(3,4-dihydroxyphenyl)methylamino]-2-oxo-1-[(3-tritylimidazol-4-yl)methyl]ethyl]-8-hydroxy-4-oxo-1H-quinoline-2-carboxamide
> <PUBCHEM_IUPAC_CAS_NAME>
N-[(2S)-1-[(3,4-dihydroxyphenyl)methylamino]-1-oxo-3-[3-(triphenylmethyl)-4-imidazolyl]propan-2-yl]-8-hydroxy-4-oxo-1H-quinoline-2-carboxamide
> <PUBCHEM_IUPAC_NAME_MARKUP>
<I>N</I>-[(2<I>S</I>)-1-[(3,4-dihydroxyphenyl)methylamino]-1-oxo-3-(3-tritylimidazol-4-yl)propan-2-yl]-8-hydroxy-4-oxo-1<I>H</I>-quinoline-2-carboxamide
> <PUBCHEM_IUPAC_NAME>
N-[(2S)-1-[(3,4-dihydroxyphenyl)methylamino]-1-oxo-3-(3-tritylimidazol-4-yl)propan-2-yl]-8-hydroxy-4-oxo-1H-quinoline-2-carboxamide
> <PUBCHEM_IUPAC_SYSTEMATIC_NAME>
N-[(2S)-1-[[3,4-bis(oxidanyl)phenyl]methylamino]-1-oxidanylidene-3-[3-(triphenylmethyl)imidazol-4-yl]propan-2-yl]-8-oxidanyl-4-oxidanylidene-1H-quinoline-2-carboxamide
> <PUBCHEM_IUPAC_TRADITIONAL_NAME>
8-hydroxy-4-keto-N-[(1S)-2-keto-2-(protocatechuylamino)-1-[(3-tritylimidazol-4-yl)methyl]ethyl]-1H-quinoline-2-carboxamide
> <PUBCHEM_IUPAC_INCHI>
InChI=1S/C42H35N5O6/c48-35-20-19-27(21-38(35)51)24-44-40(52)33(46-41(53)34-23-37(50)32-17-10-18-36(49)39(32)45-34)22-31-25-43-26-47(31)42(28-11-4-1-5-12-28,29-13-6-2-7-14-29)30-15-8-3-9-16-30/h1-21,23,25-26,33,48-49,51H,22,24H2,(H,44,52)(H,45,50)(H,46,53)/t33-/m0/s1
> <PUBCHEM_IUPAC_INCHIKEY>
QBHHTYPYCNMIOW-XIFFEERXSA-N
> <PUBCHEM_XLOGP3_AA>
5.7
> <PUBCHEM_EXACT_MASS>
705.25873385
> <PUBCHEM_MOLECULAR_FORMULA>
C42H35N5O6
> <PUBCHEM_MOLECULAR_WEIGHT>
705.8
> <PUBCHEM_OPENEYE_CAN_SMILES>
C1=CC=C(C=C1)C(C2=CC=CC=C2)(C3=CC=CC=C3)N4C=NC=C4CC(C(=O)NCC5=CC(=C(C=C5)O)O)NC(=O)C6=CC(=O)C7=C(N6)C(=CC=C7)O
> <PUBCHEM_OPENEYE_ISO_SMILES>
C1=CC=C(C=C1)C(C2=CC=CC=C2)(C3=CC=CC=C3)N4C=NC=C4C[C@@H](C(=O)NCC5=CC(=C(C=C5)O)O)NC(=O)C6=CC(=O)C7=C(N6)C(=CC=C7)O
> <PUBCHEM_CACTVS_TPSA>
166
> <PUBCHEM_MONOISOTOPIC_WEIGHT>
705.25873385
> <PUBCHEM_TOTAL_CHARGE>
0
> <PUBCHEM_HEAVY_ATOM_COUNT>
53
> <PUBCHEM_ATOM_DEF_STEREO_COUNT>
1
> <PUBCHEM_ATOM_UDEF_STEREO_COUNT>
0
> <PUBCHEM_BOND_DEF_STEREO_COUNT>
0
> <PUBCHEM_BOND_UDEF_STEREO_COUNT>
0
> <PUBCHEM_ISOTOPIC_ATOM_COUNT>
0
> <PUBCHEM_COMPONENT_COUNT>
1
> <PUBCHEM_CACTVS_TAUTO_COUNT>
-1
> <PUBCHEM_COORDINATE_TYPE>
1
5
255
> <PUBCHEM_BONDANNOTATIONS>
11  39  8
11  42  8
13  21  8
13  24  8
14  22  8
14  25  8
15  23  8
15  26  8
16  20  8
21  28  8
22  29  8
23  30  8
24  31  8
25  32  8
26  33  8
28  34  8
29  35  8
30  36  8
31  34  8
32  35  8
33  36  8
39  41  8
40  45  8
40  46  8
41  44  8
42  43  8
42  47  8
43  44  8
43  48  8
45  49  8
46  50  8
47  51  8
48  52  8
49  53  8
50  53  8
51  52  8
7  16  8
7  19  8
8  19  8
8  20  8
18  9  5
$$$$
