504827
  -OEChem-10302200282D
 66 68  0     1  0  0  0  0  0999 V2000
    8.9962   -3.7220    0.0000 O   0  0  0  0  0  0  0  0  0  0  0  0
    9.8622   -1.2220    0.0000 O   0  0  0  0  0  0  0  0  0  0  0  0
    9.8622   -2.2220    0.0000 O   0  0  0  0  0  0  0  0  0  0  0  0
    6.3981   -2.2220    0.0000 O   0  0  0  0  0  0  0  0  0  0  0  0
    2.9176   -2.2566    0.0000 O   0  0  0  0  0  0  0  0  0  0  0  0
    4.6660    1.7780    0.0000 O   0  0  0  0  0  0  0  0  0  0  0  0
   11.5942    4.7780    0.0000 O   0  0  0  0  0  0  0  0  0  0  0  0
   13.3263    3.7780    0.0000 O   0  0  0  0  0  0  0  0  0  0  0  0
    7.2641   -0.7220    0.0000 N   0  0  0  0  0  0  0  0  0  0  0  0
    8.9962    0.2780    0.0000 N   0  0  0  0  0  0  0  0  0  0  0  0
    4.6660   -1.2220    0.0000 N   0  0  0  0  0  0  0  0  0  0  0  0
    8.1301   -1.2220    0.0000 C   0  0  1  0  0  0  0  0  0  0  0  0
    9.8622   -4.2220    0.0000 C   0  0  0  0  0  0  0  0  0  0  0  0
    8.1301   -2.2220    0.0000 C   0  0  0  0  0  0  0  0  0  0  0  0
    8.9962   -0.7220    0.0000 C   0  0  0  0  0  0  0  0  0  0  0  0
    8.9962   -2.7220    0.0000 C   0  0  0  0  0  0  0  0  0  0  0  0
    9.8622    0.7780    0.0000 C   0  0  0  0  0  0  0  0  0  0  0  0
   10.7282   -4.7220    0.0000 C   0  0  0  0  0  0  0  0  0  0  0  0
    9.3622   -5.0880    0.0000 C   0  0  0  0  0  0  0  0  0  0  0  0
   10.3622   -3.3560    0.0000 C   0  0  0  0  0  0  0  0  0  0  0  0
    9.8622    1.7780    0.0000 C   0  0  0  0  0  0  0  0  0  0  0  0
    6.3981   -1.2220    0.0000 C   0  0  0  0  0  0  0  0  0  0  0  0
    5.5321   -0.7220    0.0000 C   0  0  0  0  0  0  0  0  0  0  0  0
   10.7282    2.2780    0.0000 C   0  0  0  0  0  0  0  0  0  0  0  0
    3.8000   -0.7220    0.0000 C   0  0  0  0  0  0  0  0  0  0  0  0
    3.8000    0.2780    0.0000 C   0  0  0  0  0  0  0  0  0  0  0  0
    5.5321    0.2780    0.0000 C   0  0  0  0  0  0  0  0  0  0  0  0
    4.6660    0.7780    0.0000 C   0  0  0  0  0  0  0  0  0  0  0  0
   10.7282    3.2780    0.0000 C   0  0  0  0  0  0  0  0  0  0  0  0
    2.9061   -1.2566    0.0000 C   0  0  0  0  0  0  0  0  0  0  0  0
   11.5942    1.7780    0.0000 C   0  0  0  0  0  0  0  0  0  0  0  0
    2.9061    0.8127    0.0000 C   0  0  0  0  0  0  0  0  0  0  0  0
    2.0000   -0.7428    0.0000 C   0  0  0  0  0  0  0  0  0  0  0  0
   11.5942    3.7780    0.0000 C   0  0  0  0  0  0  0  0  0  0  0  0
    2.0000    0.2988    0.0000 C   0  0  0  0  0  0  0  0  0  0  0  0
   12.4603    2.2780    0.0000 C   0  0  0  0  0  0  0  0  0  0  0  0
   12.4603    3.2780    0.0000 C   0  0  0  0  0  0  0  0  0  0  0  0
    7.5932   -1.5320    0.0000 H   0  0  0  0  0  0  0  0  0  0  0  0
    7.5196   -2.1143    0.0000 H   0  0  0  0  0  0  0  0  0  0  0  0
    7.9181   -2.8046    0.0000 H   0  0  0  0  0  0  0  0  0  0  0  0
    7.2641   -0.1020    0.0000 H   0  0  0  0  0  0  0  0  0  0  0  0
   10.0742    0.1954    0.0000 H   0  0  0  0  0  0  0  0  0  0  0  0
   10.4728    0.8857    0.0000 H   0  0  0  0  0  0  0  0  0  0  0  0
   10.4182   -5.2589    0.0000 H   0  0  0  0  0  0  0  0  0  0  0  0
   11.2651   -5.0320    0.0000 H   0  0  0  0  0  0  0  0  0  0  0  0
   11.0382   -4.1851    0.0000 H   0  0  0  0  0  0  0  0  0  0  0  0
    8.8252   -4.7780    0.0000 H   0  0  0  0  0  0  0  0  0  0  0  0
    9.0522   -5.6250    0.0000 H   0  0  0  0  0  0  0  0  0  0  0  0
    9.8991   -5.3980    0.0000 H   0  0  0  0  0  0  0  0  0  0  0  0
   10.8991   -3.6660    0.0000 H   0  0  0  0  0  0  0  0  0  0  0  0
   10.6722   -2.8190    0.0000 H   0  0  0  0  0  0  0  0  0  0  0  0
    9.8252   -3.0460    0.0000 H   0  0  0  0  0  0  0  0  0  0  0  0
    8.4592    0.5880    0.0000 H   0  0  0  0  0  0  0  0  0  0  0  0
    9.6501    2.3606    0.0000 H   0  0  0  0  0  0  0  0  0  0  0  0
    9.2516    1.6704    0.0000 H   0  0  0  0  0  0  0  0  0  0  0  0
    4.6660   -1.8420    0.0000 H   0  0  0  0  0  0  0  0  0  0  0  0
    6.0690    0.5880    0.0000 H   0  0  0  0  0  0  0  0  0  0  0  0
   10.1913    3.5880    0.0000 H   0  0  0  0  0  0  0  0  0  0  0  0
   11.5942    1.1580    0.0000 H   0  0  0  0  0  0  0  0  0  0  0  0
    2.9132    1.4326    0.0000 H   0  0  0  0  0  0  0  0  0  0  0  0
    1.4643   -1.0549    0.0000 H   0  0  0  0  0  0  0  0  0  0  0  0
    1.4643    0.6109    0.0000 H   0  0  0  0  0  0  0  0  0  0  0  0
   12.9972    1.9680    0.0000 H   0  0  0  0  0  0  0  0  0  0  0  0
    2.3843   -2.5728    0.0000 H   0  0  0  0  0  0  0  0  0  0  0  0
   11.0573    5.0880    0.0000 H   0  0  0  0  0  0  0  0  0  0  0  0
   13.8632    3.4680    0.0000 H   0  0  0  0  0  0  0  0  0  0  0  0
  1 13  1  0  0  0  0
  1 16  1  0  0  0  0
  2 15  2  0  0  0  0
  3 16  2  0  0  0  0
  4 22  2  0  0  0  0
  5 30  1  0  0  0  0
  5 64  1  0  0  0  0
  6 28  2  0  0  0  0
  7 34  1  0  0  0  0
  7 65  1  0  0  0  0
  8 37  1  0  0  0  0
  8 66  1  0  0  0  0
 12  9  1  6  0  0  0
  9 22  1  0  0  0  0
  9 41  1  0  0  0  0
 10 15  1  0  0  0  0
 10 17  1  0  0  0  0
 10 53  1  0  0  0  0
 11 23  1  0  0  0  0
 11 25  1  0  0  0  0
 11 56  1  0  0  0  0
 12 14  1  0  0  0  0
 12 15  1  0  0  0  0
 12 38  1  0  0  0  0
 13 18  1  0  0  0  0
 13 19  1  0  0  0  0
 13 20  1  0  0  0  0
 14 16  1  0  0  0  0
 14 39  1  0  0  0  0
 14 40  1  0  0  0  0
 17 21  1  0  0  0  0
 17 42  1  0  0  0  0
 17 43  1  0  0  0  0
 18 44  1  0  0  0  0
 18 45  1  0  0  0  0
 18 46  1  0  0  0  0
 19 47  1  0  0  0  0
 19 48  1  0  0  0  0
 19 49  1  0  0  0  0
 20 50  1  0  0  0  0
 20 51  1  0  0  0  0
 20 52  1  0  0  0  0
 21 24  1  0  0  0  0
 21 54  1  0  0  0  0
 21 55  1  0  0  0  0
 22 23  1  0  0  0  0
 23 27  2  0  0  0  0
 24 29  2  0  0  0  0
 24 31  1  0  0  0  0
 25 26  2  0  0  0  0
 25 30  1  0  0  0  0
 26 28  1  0  0  0  0
 26 32  1  0  0  0  0
 27 28  1  0  0  0  0
 27 57  1  0  0  0  0
 29 34  1  0  0  0  0
 29 58  1  0  0  0  0
 30 33  2  0  0  0  0
 31 36  2  0  0  0  0
 31 59  1  0  0  0  0
 32 35  2  0  0  0  0
 32 60  1  0  0  0  0
 33 35  1  0  0  0  0
 33 61  1  0  0  0  0
 34 37  2  0  0  0  0
 35 62  1  0  0  0  0
 36 37  1  0  0  0  0
 36 63  1  0  0  0  0
M  END
> <PUBCHEM_COMPOUND_CID>
504827
> <PUBCHEM_COMPOUND_CANONICALIZED>
1
> <PUBCHEM_CACTVS_COMPLEXITY>
899
> <PUBCHEM_CACTVS_HBOND_ACCEPTOR>
9
> <PUBCHEM_CACTVS_HBOND_DONOR>
6
> <PUBCHEM_CACTVS_ROTATABLE_BOND>
10
> <PUBCHEM_CACTVS_SUBSKEYS>
AAADceB7PAAAAAAAAAAAAAAAAAAAAAAAAAAwYIAAAAAAAACBQAAAHgAQCAAADGzBmAQyzoLABgCIAqXSWACCAAAlIgAIiIGPzMgLZjrSlbOWcYlm1hHZ2ce/2LKOIAABAAACUABAAAIAAASgAAAAAAAAAA==
> <PUBCHEM_IUPAC_OPENEYE_NAME>
tert-butyl (3S)-4-[2-(3,4-dihydroxyphenyl)ethylamino]-3-[(8-hydroxy-4-oxo-1H-quinoline-2-carbonyl)amino]-4-oxo-butanoate
> <PUBCHEM_IUPAC_CAS_NAME>
(3S)-4-[2-(3,4-dihydroxyphenyl)ethylamino]-3-[[(8-hydroxy-4-oxo-1H-quinolin-2-yl)-oxomethyl]amino]-4-oxobutanoic acid tert-butyl ester
> <PUBCHEM_IUPAC_NAME_MARKUP>
<I>tert</I>-butyl (3<I>S</I>)-4-[2-(3,4-dihydroxyphenyl)ethylamino]-3-[(8-hydroxy-4-oxo-1<I>H</I>-quinoline-2-carbonyl)amino]-4-oxobutanoate
> <PUBCHEM_IUPAC_NAME>
tert-butyl (3S)-4-[2-(3,4-dihydroxyphenyl)ethylamino]-3-[(8-hydroxy-4-oxo-1H-quinoline-2-carbonyl)amino]-4-oxobutanoate
> <PUBCHEM_IUPAC_SYSTEMATIC_NAME>
tert-butyl (3S)-4-[2-[3,4-bis(oxidanyl)phenyl]ethylamino]-4-oxidanylidene-3-[(8-oxidanyl-4-oxidanylidene-1H-quinolin-2-yl)carbonylamino]butanoate
> <PUBCHEM_IUPAC_TRADITIONAL_NAME>
(3S)-4-[2-(3,4-dihydroxyphenyl)ethylamino]-3-[(8-hydroxy-4-keto-1H-quinoline-2-carbonyl)amino]-4-keto-butyric acid tert-butyl ester
> <PUBCHEM_IUPAC_INCHI>
InChI=1S/C26H29N3O8/c1-26(2,3)37-22(34)13-17(24(35)27-10-9-14-7-8-18(30)21(33)11-14)29-25(36)16-12-20(32)15-5-4-6-19(31)23(15)28-16/h4-8,11-12,17,30-31,33H,9-10,13H2,1-3H3,(H,27,35)(H,28,32)(H,29,36)/t17-/m0/s1
> <PUBCHEM_IUPAC_INCHIKEY>
AHXHYDWZPFJTMG-KRWDZBQOSA-N
> <PUBCHEM_XLOGP3_AA>
2.1
> <PUBCHEM_EXACT_MASS>
511.19546489
> <PUBCHEM_MOLECULAR_FORMULA>
C26H29N3O8
> <PUBCHEM_MOLECULAR_WEIGHT>
511.5
> <PUBCHEM_OPENEYE_CAN_SMILES>
CC(C)(C)OC(=O)CC(C(=O)NCCC1=CC(=C(C=C1)O)O)NC(=O)C2=CC(=O)C3=C(N2)C(=CC=C3)O
> <PUBCHEM_OPENEYE_ISO_SMILES>
CC(C)(C)OC(=O)C[C@@H](C(=O)NCCC1=CC(=C(C=C1)O)O)NC(=O)C2=CC(=O)C3=C(N2)C(=CC=C3)O
> <PUBCHEM_CACTVS_TPSA>
174
> <PUBCHEM_MONOISOTOPIC_WEIGHT>
511.19546489
> <PUBCHEM_TOTAL_CHARGE>
0
> <PUBCHEM_HEAVY_ATOM_COUNT>
37
> <PUBCHEM_ATOM_DEF_STEREO_COUNT>
1
> <PUBCHEM_ATOM_UDEF_STEREO_COUNT>
0
> <PUBCHEM_BOND_DEF_STEREO_COUNT>
0
> <PUBCHEM_BOND_UDEF_STEREO_COUNT>
0
> <PUBCHEM_ISOTOPIC_ATOM_COUNT>
0
> <PUBCHEM_COMPONENT_COUNT>
1
> <PUBCHEM_CACTVS_TAUTO_COUNT>
-1
> <PUBCHEM_COORDINATE_TYPE>
1
5
255
> <PUBCHEM_BONDANNOTATIONS>
11  23  8
11  25  8
23  27  8
24  29  8
24  31  8
25  26  8
25  30  8
26  28  8
26  32  8
27  28  8
29  34  8
30  33  8
31  36  8
32  35  8
33  35  8
34  37  8
36  37  8
12  9  6
$$$$
