504814
  -OEChem-10302200282D
 89 93  0     1  0  0  0  0  0999 V2000
    5.0981    0.9229    0.0000 O   0  0  0  0  0  0  0  0  0  0  0  0
    9.4282   -0.5771    0.0000 O   0  0  0  0  0  0  0  0  0  0  0  0
    5.9641   -1.5770    0.0000 O   0  0  0  0  0  0  0  0  0  0  0  0
   12.8923    2.4230    0.0000 O   0  0  0  0  0  0  0  0  0  0  0  0
    5.0981   -5.0770    0.0000 O   0  0  0  0  0  0  0  0  0  0  0  0
   12.8923    4.4230    0.0000 O   0  0  0  0  0  0  0  0  0  0  0  0
    6.8301   -6.0770    0.0000 O   0  0  0  0  0  0  0  0  0  0  0  0
    5.9641    2.4230    0.0000 N   0  0  0  0  0  0  0  0  0  0  0  0
    7.6962   -1.5770    0.0000 N   0  0  0  0  0  0  0  0  0  0  0  0
    8.5622    0.9229    0.0000 N   0  0  0  0  0  0  0  0  0  0  0  0
    4.5981    3.7890    0.0000 C   0  0  0  0  0  0  0  0  0  0  0  0
    5.0981    2.9230    0.0000 C   0  0  0  0  0  0  0  0  0  0  0  0
    4.0981    4.6550    0.0000 C   0  0  0  0  0  0  0  0  0  0  0  0
    3.7320    3.2890    0.0000 C   0  0  0  0  0  0  0  0  0  0  0  0
    5.4641    4.2890    0.0000 C   0  0  0  0  0  0  0  0  0  0  0  0
    3.0981    4.6550    0.0000 C   0  0  0  0  0  0  0  0  0  0  0  0
    2.8660    3.7890    0.0000 C   0  0  0  0  0  0  0  0  0  0  0  0
    5.4641    5.2890    0.0000 C   0  0  0  0  0  0  0  0  0  0  0  0
    4.5981    5.5210    0.0000 C   0  0  0  0  0  0  0  0  0  0  0  0
    3.7320    2.2890    0.0000 C   0  0  0  0  0  0  0  0  0  0  0  0
    6.3301    3.7890    0.0000 C   0  0  0  0  0  0  0  0  0  0  0  0
    6.8301    0.9229    0.0000 C   0  0  0  0  0  0  0  0  0  0  0  0
    5.9641    1.4230    0.0000 C   0  0  0  0  0  0  0  0  0  0  0  0
    6.8301   -0.0771    0.0000 C   0  0  0  0  0  0  0  0  0  0  0  0
    7.6962   -0.5771    0.0000 C   0  0  1  0  0  0  0  0  0  0  0  0
    2.5981    5.5210    0.0000 C   0  0  0  0  0  0  0  0  0  0  0  0
    2.0000    3.2890    0.0000 C   0  0  0  0  0  0  0  0  0  0  0  0
    6.3301    5.7890    0.0000 C   0  0  0  0  0  0  0  0  0  0  0  0
    4.0981    6.3870    0.0000 C   0  0  0  0  0  0  0  0  0  0  0  0
    2.8660    1.7890    0.0000 C   0  0  0  0  0  0  0  0  0  0  0  0
    7.1962    4.2890    0.0000 C   0  0  0  0  0  0  0  0  0  0  0  0
    3.0981    6.3870    0.0000 C   0  0  0  0  0  0  0  0  0  0  0  0
    2.0000    2.2890    0.0000 C   0  0  0  0  0  0  0  0  0  0  0  0
    7.1962    5.2890    0.0000 C   0  0  0  0  0  0  0  0  0  0  0  0
    8.5622   -0.0771    0.0000 C   0  0  0  0  0  0  0  0  0  0  0  0
    9.4282    1.4230    0.0000 C   0  0  0  0  0  0  0  0  0  0  0  0
    6.8301   -2.0770    0.0000 C   0  0  0  0  0  0  0  0  0  0  0  0
    9.4282    2.4230    0.0000 C   0  0  0  0  0  0  0  0  0  0  0  0
   10.2942    2.9230    0.0000 C   0  0  0  0  0  0  0  0  0  0  0  0
    6.8301   -3.0770    0.0000 C   0  0  0  0  0  0  0  0  0  0  0  0
   11.1603    2.4230    0.0000 C   0  0  0  0  0  0  0  0  0  0  0  0
   10.2942    3.9230    0.0000 C   0  0  0  0  0  0  0  0  0  0  0  0
    5.9641   -3.5770    0.0000 C   0  0  0  0  0  0  0  0  0  0  0  0
    7.6962   -3.5770    0.0000 C   0  0  0  0  0  0  0  0  0  0  0  0
   12.0263    2.9230    0.0000 C   0  0  0  0  0  0  0  0  0  0  0  0
   11.1603    4.4230    0.0000 C   0  0  0  0  0  0  0  0  0  0  0  0
    5.9641   -4.5770    0.0000 C   0  0  0  0  0  0  0  0  0  0  0  0
    7.6962   -4.5770    0.0000 C   0  0  0  0  0  0  0  0  0  0  0  0
   12.0263    3.9230    0.0000 C   0  0  0  0  0  0  0  0  0  0  0  0
    6.8301   -5.0770    0.0000 C   0  0  0  0  0  0  0  0  0  0  0  0
    4.4875    2.8153    0.0000 H   0  0  0  0  0  0  0  0  0  0  0  0
    5.5365    3.3614    0.0000 H   0  0  0  0  0  0  0  0  0  0  0  0
    6.5841    2.4230    0.0000 H   0  0  0  0  0  0  0  0  0  0  0  0
    2.7881    4.1181    0.0000 H   0  0  0  0  0  0  0  0  0  0  0  0
    2.8660    4.4090    0.0000 H   0  0  0  0  0  0  0  0  0  0  0  0
    4.9272    5.5990    0.0000 H   0  0  0  0  0  0  0  0  0  0  0  0
    5.2181    5.5210    0.0000 H   0  0  0  0  0  0  0  0  0  0  0  0
    4.2690    1.9790    0.0000 H   0  0  0  0  0  0  0  0  0  0  0  0
    6.3301    3.1690    0.0000 H   0  0  0  0  0  0  0  0  0  0  0  0
    7.4407    0.8153    0.0000 H   0  0  0  0  0  0  0  0  0  0  0  0
    7.0422    1.5056    0.0000 H   0  0  0  0  0  0  0  0  0  0  0  0
    6.2196    0.0306    0.0000 H   0  0  0  0  0  0  0  0  0  0  0  0
    6.6181   -0.6597    0.0000 H   0  0  0  0  0  0  0  0  0  0  0  0
    7.1592   -0.8871    0.0000 H   0  0  0  0  0  0  0  0  0  0  0  0
    1.9781    5.5210    0.0000 H   0  0  0  0  0  0  0  0  0  0  0  0
    1.4631    3.5990    0.0000 H   0  0  0  0  0  0  0  0  0  0  0  0
    6.3301    6.4090    0.0000 H   0  0  0  0  0  0  0  0  0  0  0  0
    4.4081    6.9240    0.0000 H   0  0  0  0  0  0  0  0  0  0  0  0
    2.8660    1.1690    0.0000 H   0  0  0  0  0  0  0  0  0  0  0  0
    7.7331    3.9790    0.0000 H   0  0  0  0  0  0  0  0  0  0  0  0
    2.7881    6.9240    0.0000 H   0  0  0  0  0  0  0  0  0  0  0  0
    1.4631    1.9790    0.0000 H   0  0  0  0  0  0  0  0  0  0  0  0
    7.7331    5.5990    0.0000 H   0  0  0  0  0  0  0  0  0  0  0  0
    8.2331   -1.8870    0.0000 H   0  0  0  0  0  0  0  0  0  0  0  0
    8.0252    1.2330    0.0000 H   0  0  0  0  0  0  0  0  0  0  0  0
    9.6403    0.8403    0.0000 H   0  0  0  0  0  0  0  0  0  0  0  0
   10.0388    1.5306    0.0000 H   0  0  0  0  0  0  0  0  0  0  0  0
    9.2162    3.0056    0.0000 H   0  0  0  0  0  0  0  0  0  0  0  0
    8.8176    2.3153    0.0000 H   0  0  0  0  0  0  0  0  0  0  0  0
   11.1603    1.8030    0.0000 H   0  0  0  0  0  0  0  0  0  0  0  0
    9.7573    4.2330    0.0000 H   0  0  0  0  0  0  0  0  0  0  0  0
    5.4272   -3.2670    0.0000 H   0  0  0  0  0  0  0  0  0  0  0  0
    8.2331   -3.2670    0.0000 H   0  0  0  0  0  0  0  0  0  0  0  0
   11.1603    5.0430    0.0000 H   0  0  0  0  0  0  0  0  0  0  0  0
    8.2331   -4.8870    0.0000 H   0  0  0  0  0  0  0  0  0  0  0  0
   13.4292    2.7330    0.0000 H   0  0  0  0  0  0  0  0  0  0  0  0
    4.5611   -4.7670    0.0000 H   0  0  0  0  0  0  0  0  0  0  0  0
   12.8923    5.0430    0.0000 H   0  0  0  0  0  0  0  0  0  0  0  0
    7.3671   -6.3870    0.0000 H   0  0  0  0  0  0  0  0  0  0  0  0
  1 23  2  0  0  0  0
  2 35  2  0  0  0  0
  3 37  2  0  0  0  0
  4 45  1  0  0  0  0
  4 86  1  0  0  0  0
  5 47  1  0  0  0  0
  5 87  1  0  0  0  0
  6 49  1  0  0  0  0
  6 88  1  0  0  0  0
  7 50  1  0  0  0  0
  7 89  1  0  0  0  0
  8 12  1  0  0  0  0
  8 23  1  0  0  0  0
  8 53  1  0  0  0  0
 25  9  1  1  0  0  0
  9 37  1  0  0  0  0
  9 74  1  0  0  0  0
 10 35  1  0  0  0  0
 10 36  1  0  0  0  0
 10 75  1  0  0  0  0
 11 12  1  0  0  0  0
 11 13  1  0  0  0  0
 11 14  1  0  0  0  0
 11 15  1  0  0  0  0
 12 51  1  0  0  0  0
 12 52  1  0  0  0  0
 13 16  2  0  0  0  0
 13 19  1  0  0  0  0
 14 17  2  0  0  0  0
 14 20  1  0  0  0  0
 15 18  2  0  0  0  0
 15 21  1  0  0  0  0
 16 26  1  0  0  0  0
 16 54  1  0  0  0  0
 17 27  1  0  0  0  0
 17 55  1  0  0  0  0
 18 28  1  0  0  0  0
 18 56  1  0  0  0  0
 19 29  2  0  0  0  0
 19 57  1  0  0  0  0
 20 30  2  0  0  0  0
 20 58  1  0  0  0  0
 21 31  2  0  0  0  0
 21 59  1  0  0  0  0
 22 23  1  0  0  0  0
 22 24  1  0  0  0  0
 22 60  1  0  0  0  0
 22 61  1  0  0  0  0
 24 25  1  0  0  0  0
 24 62  1  0  0  0  0
 24 63  1  0  0  0  0
 25 35  1  0  0  0  0
 25 64  1  0  0  0  0
 26 32  2  0  0  0  0
 26 65  1  0  0  0  0
 27 33  2  0  0  0  0
 27 66  1  0  0  0  0
 28 34  2  0  0  0  0
 28 67  1  0  0  0  0
 29 32  1  0  0  0  0
 29 68  1  0  0  0  0
 30 33  1  0  0  0  0
 30 69  1  0  0  0  0
 31 34  1  0  0  0  0
 31 70  1  0  0  0  0
 32 71  1  0  0  0  0
 33 72  1  0  0  0  0
 34 73  1  0  0  0  0
 36 38  1  0  0  0  0
 36 76  1  0  0  0  0
 36 77  1  0  0  0  0
 37 40  1  0  0  0  0
 38 39  1  0  0  0  0
 38 78  1  0  0  0  0
 38 79  1  0  0  0  0
 39 41  2  0  0  0  0
 39 42  1  0  0  0  0
 40 43  2  0  0  0  0
 40 44  1  0  0  0  0
 41 45  1  0  0  0  0
 41 80  1  0  0  0  0
 42 46  2  0  0  0  0
 42 81  1  0  0  0  0
 43 47  1  0  0  0  0
 43 82  1  0  0  0  0
 44 48  2  0  0  0  0
 44 83  1  0  0  0  0
 45 49  2  0  0  0  0
 46 49  1  0  0  0  0
 46 84  1  0  0  0  0
 47 50  2  0  0  0  0
 48 50  1  0  0  0  0
 48 85  1  0  0  0  0
M  END
> <PUBCHEM_COMPOUND_CID>
504814
> <PUBCHEM_COMPOUND_CANONICALIZED>
1
> <PUBCHEM_CACTVS_COMPLEXITY>
1030
> <PUBCHEM_CACTVS_HBOND_ACCEPTOR>
7
> <PUBCHEM_CACTVS_HBOND_DONOR>
7
> <PUBCHEM_CACTVS_ROTATABLE_BOND>
14
> <PUBCHEM_CACTVS_SUBSKEYS>
AAADcfB/OAAAAAAAAAAAAAAAAAAAAAAAAAAwYMGDAAAAAAABVAAAHgAQCAAADizBmAQwBoLAAgCIAiFSEACCAAAkIAAIiIGOjMgJZjKClTOUcQlk1hGJmYe+3/LPoAABAAAAQABAAAIAAACAAAAAAAAAAA==
> <PUBCHEM_IUPAC_OPENEYE_NAME>
(2S)-2-[(3,4-dihydroxybenzoyl)amino]-N-[2-(3,4-dihydroxyphenyl)ethyl]-N'-(2,2,2-triphenylethyl)pentanediamide
> <PUBCHEM_IUPAC_CAS_NAME>
(2S)-N-[2-(3,4-dihydroxyphenyl)ethyl]-2-[[(3,4-dihydroxyphenyl)-oxomethyl]amino]-N'-(2,2,2-triphenylethyl)pentanediamide
> <PUBCHEM_IUPAC_NAME_MARKUP>
(2<I>S</I>)-2-[(3,4-dihydroxybenzoyl)amino]-<I>N</I>-[2-(3,4-dihydroxyphenyl)ethyl]-<I>N</I>&apos;-(2,2,2-triphenylethyl)pentanediamide
> <PUBCHEM_IUPAC_NAME>
(2S)-2-[(3,4-dihydroxybenzoyl)amino]-N-[2-(3,4-dihydroxyphenyl)ethyl]-N'-(2,2,2-triphenylethyl)pentanediamide
> <PUBCHEM_IUPAC_SYSTEMATIC_NAME>
(2S)-2-[[3,4-bis(oxidanyl)phenyl]carbonylamino]-N-[2-[3,4-bis(oxidanyl)phenyl]ethyl]-N'-(2,2,2-triphenylethyl)pentanediamide
> <PUBCHEM_IUPAC_TRADITIONAL_NAME>
(2S)-N-[2-(3,4-dihydroxyphenyl)ethyl]-2-(protocatechuoylamino)-N'-(2,2,2-triphenylethyl)glutaramide
> <PUBCHEM_IUPAC_INCHI>
InChI=1S/C40H39N3O7/c44-33-19-16-27(24-35(33)46)22-23-41-39(50)32(43-38(49)28-17-20-34(45)36(47)25-28)18-21-37(48)42-26-40(29-10-4-1-5-11-29,30-12-6-2-7-13-30)31-14-8-3-9-15-31/h1-17,19-20,24-25,32,44-47H,18,21-23,26H2,(H,41,50)(H,42,48)(H,43,49)/t32-/m0/s1
> <PUBCHEM_IUPAC_INCHIKEY>
CRRBXCXZMAQVKQ-YTTGMZPUSA-N
> <PUBCHEM_XLOGP3_AA>
5.8
> <PUBCHEM_EXACT_MASS>
673.27880059
> <PUBCHEM_MOLECULAR_FORMULA>
C40H39N3O7
> <PUBCHEM_MOLECULAR_WEIGHT>
673.8
> <PUBCHEM_OPENEYE_CAN_SMILES>
C1=CC=C(C=C1)C(CNC(=O)CCC(C(=O)NCCC2=CC(=C(C=C2)O)O)NC(=O)C3=CC(=C(C=C3)O)O)(C4=CC=CC=C4)C5=CC=CC=C5
> <PUBCHEM_OPENEYE_ISO_SMILES>
C1=CC=C(C=C1)C(CNC(=O)CC[C@@H](C(=O)NCCC2=CC(=C(C=C2)O)O)NC(=O)C3=CC(=C(C=C3)O)O)(C4=CC=CC=C4)C5=CC=CC=C5
> <PUBCHEM_CACTVS_TPSA>
168
> <PUBCHEM_MONOISOTOPIC_WEIGHT>
673.27880059
> <PUBCHEM_TOTAL_CHARGE>
0
> <PUBCHEM_HEAVY_ATOM_COUNT>
50
> <PUBCHEM_ATOM_DEF_STEREO_COUNT>
1
> <PUBCHEM_ATOM_UDEF_STEREO_COUNT>
0
> <PUBCHEM_BOND_DEF_STEREO_COUNT>
0
> <PUBCHEM_BOND_UDEF_STEREO_COUNT>
0
> <PUBCHEM_ISOTOPIC_ATOM_COUNT>
0
> <PUBCHEM_COMPONENT_COUNT>
1
> <PUBCHEM_CACTVS_TAUTO_COUNT>
-1
> <PUBCHEM_COORDINATE_TYPE>
1
5
255
> <PUBCHEM_BONDANNOTATIONS>
13  16  8
13  19  8
14  17  8
14  20  8
15  18  8
15  21  8
16  26  8
17  27  8
18  28  8
19  29  8
20  30  8
21  31  8
26  32  8
27  33  8
28  34  8
29  32  8
30  33  8
31  34  8
39  41  8
39  42  8
40  43  8
40  44  8
41  45  8
42  46  8
43  47  8
44  48  8
45  49  8
46  49  8
47  50  8
48  50  8
25  9  5
$$$$
