504871
  -OEChem-10302200282D
 62 63  0     1  0  0  0  0  0999 V2000
    8.9282    1.7500    0.0000 S   0  0  0  0  0  0  0  0  0  0  0  0
    6.3301   -4.7500    0.0000 F   0  0  0  0  0  0  0  0  0  0  0  0
    3.7320    2.7500    0.0000 O   0  0  0  0  0  0  0  0  0  0  0  0
    7.1962   -0.2500    0.0000 O   0  0  0  0  0  0  0  0  0  0  0  0
    2.8660    1.2500    0.0000 O   0  0  0  0  0  0  0  0  0  0  0  0
    3.7320   -1.2500    0.0000 O   0  0  0  0  0  0  0  0  0  0  0  0
    2.8660   -2.7500    0.0000 O   0  0  0  0  0  0  0  0  0  0  0  0
    5.4641   -1.2500    0.0000 N   0  0  0  0  0  0  0  0  0  0  0  0
    6.3301    1.2500    0.0000 N   0  0  0  0  0  0  0  0  0  0  0  0
    5.4641   -0.2500    0.0000 C   0  0  1  0  0  0  0  0  0  0  0  0
    4.5981    0.2500    0.0000 C   0  0  0  0  0  0  0  0  0  0  0  0
    4.5981    1.2500    0.0000 C   0  0  0  0  0  0  0  0  0  0  0  0
    2.8660    3.2500    0.0000 C   0  0  0  0  0  0  0  0  0  0  0  0
    6.3301    0.2500    0.0000 C   0  0  0  0  0  0  0  0  0  0  0  0
    7.1962    1.7500    0.0000 C   0  0  0  0  0  0  0  0  0  0  0  0
    3.7320    1.7500    0.0000 C   0  0  0  0  0  0  0  0  0  0  0  0
    7.1962    2.7500    0.0000 C   0  0  0  0  0  0  0  0  0  0  0  0
    2.0000    3.7500    0.0000 C   0  0  0  0  0  0  0  0  0  0  0  0
    3.3660    4.1160    0.0000 C   0  0  0  0  0  0  0  0  0  0  0  0
    2.3660    2.3840    0.0000 C   0  0  0  0  0  0  0  0  0  0  0  0
    8.0622    3.2500    0.0000 C   0  0  0  0  0  0  0  0  0  0  0  0
    4.5981   -1.7500    0.0000 C   0  0  0  0  0  0  0  0  0  0  0  0
    8.9282    2.7500    0.0000 C   0  0  0  0  0  0  0  0  0  0  0  0
    9.7942    3.2500    0.0000 C   0  0  0  0  0  0  0  0  0  0  0  0
    8.0622    4.2500    0.0000 C   0  0  0  0  0  0  0  0  0  0  0  0
    4.5981   -2.7500    0.0000 C   0  0  0  0  0  0  0  0  0  0  0  0
    9.7942    4.2500    0.0000 C   0  0  0  0  0  0  0  0  0  0  0  0
    8.9282    4.7500    0.0000 C   0  0  0  0  0  0  0  0  0  0  0  0
    3.7320   -3.2500    0.0000 C   0  0  0  0  0  0  0  0  0  0  0  0
    5.4641   -3.2500    0.0000 C   0  0  0  0  0  0  0  0  0  0  0  0
    3.7320   -4.2500    0.0000 C   0  0  0  0  0  0  0  0  0  0  0  0
    5.4641   -4.2500    0.0000 C   0  0  0  0  0  0  0  0  0  0  0  0
    4.5981   -4.7500    0.0000 C   0  0  0  0  0  0  0  0  0  0  0  0
    6.0010   -0.5600    0.0000 H   0  0  0  0  0  0  0  0  0  0  0  0
    3.9875    0.3577    0.0000 H   0  0  0  0  0  0  0  0  0  0  0  0
    4.3860   -0.3326    0.0000 H   0  0  0  0  0  0  0  0  0  0  0  0
    5.2087    1.1423    0.0000 H   0  0  0  0  0  0  0  0  0  0  0  0
    4.8101    1.8326    0.0000 H   0  0  0  0  0  0  0  0  0  0  0  0
    6.0010   -1.5600    0.0000 H   0  0  0  0  0  0  0  0  0  0  0  0
    7.4082    1.1674    0.0000 H   0  0  0  0  0  0  0  0  0  0  0  0
    7.8067    1.8577    0.0000 H   0  0  0  0  0  0  0  0  0  0  0  0
    5.7932    1.5600    0.0000 H   0  0  0  0  0  0  0  0  0  0  0  0
    6.9841    3.3326    0.0000 H   0  0  0  0  0  0  0  0  0  0  0  0
    6.5856    2.6423    0.0000 H   0  0  0  0  0  0  0  0  0  0  0  0
    2.3100    4.2869    0.0000 H   0  0  0  0  0  0  0  0  0  0  0  0
    1.4631    4.0600    0.0000 H   0  0  0  0  0  0  0  0  0  0  0  0
    1.6900    3.2131    0.0000 H   0  0  0  0  0  0  0  0  0  0  0  0
    3.9030    3.8060    0.0000 H   0  0  0  0  0  0  0  0  0  0  0  0
    3.6760    4.6530    0.0000 H   0  0  0  0  0  0  0  0  0  0  0  0
    2.8291    4.4260    0.0000 H   0  0  0  0  0  0  0  0  0  0  0  0
    1.8291    2.6940    0.0000 H   0  0  0  0  0  0  0  0  0  0  0  0
    2.0560    1.8470    0.0000 H   0  0  0  0  0  0  0  0  0  0  0  0
    2.9030    2.0740    0.0000 H   0  0  0  0  0  0  0  0  0  0  0  0
   10.0063    2.6674    0.0000 H   0  0  0  0  0  0  0  0  0  0  0  0
   10.4048    3.3577    0.0000 H   0  0  0  0  0  0  0  0  0  0  0  0
    7.5252    4.5600    0.0000 H   0  0  0  0  0  0  0  0  0  0  0  0
   10.3312    4.5600    0.0000 H   0  0  0  0  0  0  0  0  0  0  0  0
    8.9282    5.3700    0.0000 H   0  0  0  0  0  0  0  0  0  0  0  0
    6.0010   -2.9400    0.0000 H   0  0  0  0  0  0  0  0  0  0  0  0
    3.1951   -4.5600    0.0000 H   0  0  0  0  0  0  0  0  0  0  0  0
    4.5981   -5.3700    0.0000 H   0  0  0  0  0  0  0  0  0  0  0  0
    2.3291   -3.0600    0.0000 H   0  0  0  0  0  0  0  0  0  0  0  0
  1 23  2  0  0  0  0
  2 32  1  0  0  0  0
  3 13  1  0  0  0  0
  3 16  1  0  0  0  0
  4 14  2  0  0  0  0
  5 16  2  0  0  0  0
  6 22  2  0  0  0  0
  7 29  1  0  0  0  0
  7 62  1  0  0  0  0
 10  8  1  1  0  0  0
  8 22  1  0  0  0  0
  8 39  1  0  0  0  0
  9 14  1  0  0  0  0
  9 15  1  0  0  0  0
  9 42  1  0  0  0  0
 10 11  1  0  0  0  0
 10 14  1  0  0  0  0
 10 34  1  0  0  0  0
 11 12  1  0  0  0  0
 11 35  1  0  0  0  0
 11 36  1  0  0  0  0
 12 16  1  0  0  0  0
 12 37  1  0  0  0  0
 12 38  1  0  0  0  0
 13 18  1  0  0  0  0
 13 19  1  0  0  0  0
 13 20  1  0  0  0  0
 15 17  1  0  0  0  0
 15 40  1  0  0  0  0
 15 41  1  0  0  0  0
 17 21  1  0  0  0  0
 17 43  1  0  0  0  0
 17 44  1  0  0  0  0
 18 45  1  0  0  0  0
 18 46  1  0  0  0  0
 18 47  1  0  0  0  0
 19 48  1  0  0  0  0
 19 49  1  0  0  0  0
 19 50  1  0  0  0  0
 20 51  1  0  0  0  0
 20 52  1  0  0  0  0
 20 53  1  0  0  0  0
 21 23  1  0  0  0  0
 21 25  2  0  0  0  0
 22 26  1  0  0  0  0
 23 24  1  0  0  0  0
 24 27  1  0  0  0  0
 24 54  1  0  0  0  0
 24 55  1  0  0  0  0
 25 28  1  0  0  0  0
 25 56  1  0  0  0  0
 26 29  2  0  0  0  0
 26 30  1  0  0  0  0
 27 28  2  0  0  0  0
 27 57  1  0  0  0  0
 28 58  1  0  0  0  0
 29 31  1  0  0  0  0
 30 32  2  0  0  0  0
 30 59  1  0  0  0  0
 31 33  2  0  0  0  0
 31 60  1  0  0  0  0
 32 33  1  0  0  0  0
 33 61  1  0  0  0  0
M  END
> <PUBCHEM_COMPOUND_CID>
504871
> <PUBCHEM_COMPOUND_CANONICALIZED>
1
> <PUBCHEM_CACTVS_COMPLEXITY>
805
> <PUBCHEM_CACTVS_HBOND_ACCEPTOR>
7
> <PUBCHEM_CACTVS_HBOND_DONOR>
3
> <PUBCHEM_CACTVS_ROTATABLE_BOND>
11
> <PUBCHEM_CACTVS_SUBSKEYS>
AAADceB7OQBAAAAAAAAAAAAAAAAAAAAAAAAwQAAAAAAAAAABAAAAHwQQCAAADGzB2AwyDoLABgCMAiHSGACCAAAkIAAIiIGODMgIZjaClTOWcUhm9hGImYe83yKOAAAAAAAIAAAAAAAAABAAAAAAAAAAAA==
> <PUBCHEM_IUPAC_OPENEYE_NAME>
tert-butyl (4S)-4-[(5-fluoro-2-hydroxy-benzoyl)amino]-5-oxo-5-[2-(6-thioxocyclohexa-1,3-dien-1-yl)ethylamino]pentanoate
> <PUBCHEM_IUPAC_CAS_NAME>
(4S)-4-[[(5-fluoro-2-hydroxyphenyl)-oxomethyl]amino]-5-oxo-5-[2-(6-sulfanylidene-1-cyclohexa-1,3-dienyl)ethylamino]pentanoic acid tert-butyl ester
> <PUBCHEM_IUPAC_NAME_MARKUP>
<I>tert</I>-butyl (4<I>S</I>)-4-[(5-fluoro-2-hydroxybenzoyl)amino]-5-oxo-5-[2-(6-sulfanylidenecyclohexa-1,3-dien-1-yl)ethylamino]pentanoate
> <PUBCHEM_IUPAC_NAME>
tert-butyl (4S)-4-[(5-fluoro-2-hydroxybenzoyl)amino]-5-oxo-5-[2-(6-sulfanylidenecyclohexa-1,3-dien-1-yl)ethylamino]pentanoate
> <PUBCHEM_IUPAC_SYSTEMATIC_NAME>
tert-butyl (4S)-4-[(5-fluoranyl-2-oxidanyl-phenyl)carbonylamino]-5-oxidanylidene-5-[2-(6-sulfanylidenecyclohexa-1,3-dien-1-yl)ethylamino]pentanoate
> <PUBCHEM_IUPAC_TRADITIONAL_NAME>
(4S)-4-[(5-fluoro-2-hydroxy-benzoyl)amino]-5-keto-5-[2-(6-thioxocyclohexa-1,3-dien-1-yl)ethylamino]valeric acid tert-butyl ester
> <PUBCHEM_IUPAC_INCHI>
InChI=1S/C24H29FN2O5S/c1-24(2,3)32-21(29)11-9-18(27-22(30)17-14-16(25)8-10-19(17)28)23(31)26-13-12-15-6-4-5-7-20(15)33/h4-6,8,10,14,18,28H,7,9,11-13H2,1-3H3,(H,26,31)(H,27,30)/t18-/m0/s1
> <PUBCHEM_IUPAC_INCHIKEY>
YQQXVNDQXBHBLT-SFHVURJKSA-N
> <PUBCHEM_XLOGP3_AA>
3.7
> <PUBCHEM_EXACT_MASS>
476.17812137
> <PUBCHEM_MOLECULAR_FORMULA>
C24H29FN2O5S
> <PUBCHEM_MOLECULAR_WEIGHT>
476.6
> <PUBCHEM_OPENEYE_CAN_SMILES>
CC(C)(C)OC(=O)CCC(C(=O)NCCC1=CC=CCC1=S)NC(=O)C2=C(C=CC(=C2)F)O
> <PUBCHEM_OPENEYE_ISO_SMILES>
CC(C)(C)OC(=O)CC[C@@H](C(=O)NCCC1=CC=CCC1=S)NC(=O)C2=C(C=CC(=C2)F)O
> <PUBCHEM_CACTVS_TPSA>
137
> <PUBCHEM_MONOISOTOPIC_WEIGHT>
476.17812137
> <PUBCHEM_TOTAL_CHARGE>
0
> <PUBCHEM_HEAVY_ATOM_COUNT>
33
> <PUBCHEM_ATOM_DEF_STEREO_COUNT>
1
> <PUBCHEM_ATOM_UDEF_STEREO_COUNT>
0
> <PUBCHEM_BOND_DEF_STEREO_COUNT>
0
> <PUBCHEM_BOND_UDEF_STEREO_COUNT>
0
> <PUBCHEM_ISOTOPIC_ATOM_COUNT>
0
> <PUBCHEM_COMPONENT_COUNT>
1
> <PUBCHEM_CACTVS_TAUTO_COUNT>
-1
> <PUBCHEM_COORDINATE_TYPE>
1
5
255
> <PUBCHEM_BONDANNOTATIONS>
26  29  8
26  30  8
29  31  8
30  32  8
31  33  8
32  33  8
10  8  5
$$$$
