504869
  -OEChem-10302200282D
 68 70  0     1  0  0  0  0  0999 V2000
   13.3263    0.0000    0.0000 S   0  0  0  0  0  0  0  0  0  0  0  0
    9.8622   -2.0000    0.0000 O   0  0  0  0  0  0  0  0  0  0  0  0
    8.9962    2.5000    0.0000 O   0  0  0  0  0  0  0  0  0  0  0  0
    8.1301   -2.0000    0.0000 O   0  0  0  0  0  0  0  0  0  0  0  0
    6.3981   -0.0000    0.0000 O   0  0  0  0  0  0  0  0  0  0  0  0
    2.9176   -0.0346    0.0000 O   0  0  0  0  0  0  0  0  0  0  0  0
    4.6660    4.0000    0.0000 O   0  0  0  0  0  0  0  0  0  0  0  0
    7.2641    1.5000    0.0000 N   0  0  0  0  0  0  0  0  0  0  0  0
    9.8622    1.0000    0.0000 N   0  0  0  0  0  0  0  0  0  0  0  0
    4.6660    1.0000    0.0000 N   0  0  0  0  0  0  0  0  0  0  0  0
    8.1301    1.0000    0.0000 C   0  0  1  0  0  0  0  0  0  0  0  0
    8.1301    0.0000    0.0000 C   0  0  0  0  0  0  0  0  0  0  0  0
    8.9962   -0.5000    0.0000 C   0  0  0  0  0  0  0  0  0  0  0  0
    9.8622   -3.0000    0.0000 C   0  0  0  0  0  0  0  0  0  0  0  0
    8.9962    1.5000    0.0000 C   0  0  0  0  0  0  0  0  0  0  0  0
   10.7282    1.5000    0.0000 C   0  0  0  0  0  0  0  0  0  0  0  0
    8.9962   -1.5000    0.0000 C   0  0  0  0  0  0  0  0  0  0  0  0
   11.5942    1.0000    0.0000 C   0  0  0  0  0  0  0  0  0  0  0  0
    9.8622   -4.0000    0.0000 C   0  0  0  0  0  0  0  0  0  0  0  0
   10.8622   -3.0000    0.0000 C   0  0  0  0  0  0  0  0  0  0  0  0
    8.8622   -3.0000    0.0000 C   0  0  0  0  0  0  0  0  0  0  0  0
    6.3981    1.0000    0.0000 C   0  0  0  0  0  0  0  0  0  0  0  0
   12.4603    1.5000    0.0000 C   0  0  0  0  0  0  0  0  0  0  0  0
    5.5321    1.5000    0.0000 C   0  0  0  0  0  0  0  0  0  0  0  0
    3.8000    1.5000    0.0000 C   0  0  0  0  0  0  0  0  0  0  0  0
   13.3263    1.0000    0.0000 C   0  0  0  0  0  0  0  0  0  0  0  0
    3.8000    2.5000    0.0000 C   0  0  0  0  0  0  0  0  0  0  0  0
    5.5321    2.5000    0.0000 C   0  0  0  0  0  0  0  0  0  0  0  0
   12.4603    2.5000    0.0000 C   0  0  0  0  0  0  0  0  0  0  0  0
   14.1923    1.5000    0.0000 C   0  0  0  0  0  0  0  0  0  0  0  0
    4.6660    3.0000    0.0000 C   0  0  0  0  0  0  0  0  0  0  0  0
    2.9061    0.9653    0.0000 C   0  0  0  0  0  0  0  0  0  0  0  0
   13.3263    3.0000    0.0000 C   0  0  0  0  0  0  0  0  0  0  0  0
   14.1923    2.5000    0.0000 C   0  0  0  0  0  0  0  0  0  0  0  0
    2.9061    3.0347    0.0000 C   0  0  0  0  0  0  0  0  0  0  0  0
    2.0000    1.4792    0.0000 C   0  0  0  0  0  0  0  0  0  0  0  0
    2.0000    2.5208    0.0000 C   0  0  0  0  0  0  0  0  0  0  0  0
    7.5932    0.6900    0.0000 H   0  0  0  0  0  0  0  0  0  0  0  0
    7.5196    0.1077    0.0000 H   0  0  0  0  0  0  0  0  0  0  0  0
    7.9181   -0.5826    0.0000 H   0  0  0  0  0  0  0  0  0  0  0  0
    9.6067   -0.6077    0.0000 H   0  0  0  0  0  0  0  0  0  0  0  0
    9.2082    0.0826    0.0000 H   0  0  0  0  0  0  0  0  0  0  0  0
    7.2641    2.1200    0.0000 H   0  0  0  0  0  0  0  0  0  0  0  0
   11.1267    1.9750    0.0000 H   0  0  0  0  0  0  0  0  0  0  0  0
   10.3297    1.9750    0.0000 H   0  0  0  0  0  0  0  0  0  0  0  0
    9.8622    0.3800    0.0000 H   0  0  0  0  0  0  0  0  0  0  0  0
   11.1957    0.5251    0.0000 H   0  0  0  0  0  0  0  0  0  0  0  0
   11.9928    0.5251    0.0000 H   0  0  0  0  0  0  0  0  0  0  0  0
    9.2422   -4.0000    0.0000 H   0  0  0  0  0  0  0  0  0  0  0  0
    9.8622   -4.6200    0.0000 H   0  0  0  0  0  0  0  0  0  0  0  0
   10.4822   -4.0000    0.0000 H   0  0  0  0  0  0  0  0  0  0  0  0
   10.8622   -3.6200    0.0000 H   0  0  0  0  0  0  0  0  0  0  0  0
   11.4822   -3.0000    0.0000 H   0  0  0  0  0  0  0  0  0  0  0  0
   10.8622   -2.3800    0.0000 H   0  0  0  0  0  0  0  0  0  0  0  0
    8.8622   -2.3800    0.0000 H   0  0  0  0  0  0  0  0  0  0  0  0
    8.2422   -3.0000    0.0000 H   0  0  0  0  0  0  0  0  0  0  0  0
    8.8622   -3.6200    0.0000 H   0  0  0  0  0  0  0  0  0  0  0  0
    4.6660    0.3800    0.0000 H   0  0  0  0  0  0  0  0  0  0  0  0
    6.0690    2.8100    0.0000 H   0  0  0  0  0  0  0  0  0  0  0  0
   11.9233    2.8100    0.0000 H   0  0  0  0  0  0  0  0  0  0  0  0
   14.4044    0.9174    0.0000 H   0  0  0  0  0  0  0  0  0  0  0  0
   14.8029    1.6077    0.0000 H   0  0  0  0  0  0  0  0  0  0  0  0
   13.3263    3.6200    0.0000 H   0  0  0  0  0  0  0  0  0  0  0  0
   14.7292    2.8100    0.0000 H   0  0  0  0  0  0  0  0  0  0  0  0
    2.9132    3.6546    0.0000 H   0  0  0  0  0  0  0  0  0  0  0  0
    1.4643    1.1671    0.0000 H   0  0  0  0  0  0  0  0  0  0  0  0
    1.4643    2.8329    0.0000 H   0  0  0  0  0  0  0  0  0  0  0  0
    2.3843   -0.3508    0.0000 H   0  0  0  0  0  0  0  0  0  0  0  0
  1 26  2  0  0  0  0
  2 14  1  0  0  0  0
  2 17  1  0  0  0  0
  3 15  2  0  0  0  0
  4 17  2  0  0  0  0
  5 22  2  0  0  0  0
  6 32  1  0  0  0  0
  6 68  1  0  0  0  0
  7 31  2  0  0  0  0
 11  8  1  6  0  0  0
  8 22  1  0  0  0  0
  8 43  1  0  0  0  0
  9 15  1  0  0  0  0
  9 16  1  0  0  0  0
  9 46  1  0  0  0  0
 10 24  1  0  0  0  0
 10 25  1  0  0  0  0
 10 58  1  0  0  0  0
 11 12  1  0  0  0  0
 11 15  1  0  0  0  0
 11 38  1  0  0  0  0
 12 13  1  0  0  0  0
 12 39  1  0  0  0  0
 12 40  1  0  0  0  0
 13 17  1  0  0  0  0
 13 41  1  0  0  0  0
 13 42  1  0  0  0  0
 14 19  1  0  0  0  0
 14 20  1  0  0  0  0
 14 21  1  0  0  0  0
 16 18  1  0  0  0  0
 16 44  1  0  0  0  0
 16 45  1  0  0  0  0
 18 23  1  0  0  0  0
 18 47  1  0  0  0  0
 18 48  1  0  0  0  0
 19 49  1  0  0  0  0
 19 50  1  0  0  0  0
 19 51  1  0  0  0  0
 20 52  1  0  0  0  0
 20 53  1  0  0  0  0
 20 54  1  0  0  0  0
 21 55  1  0  0  0  0
 21 56  1  0  0  0  0
 21 57  1  0  0  0  0
 22 24  1  0  0  0  0
 23 26  1  0  0  0  0
 23 29  2  0  0  0  0
 24 28  2  0  0  0  0
 25 27  2  0  0  0  0
 25 32  1  0  0  0  0
 26 30  1  0  0  0  0
 27 31  1  0  0  0  0
 27 35  1  0  0  0  0
 28 31  1  0  0  0  0
 28 59  1  0  0  0  0
 29 33  1  0  0  0  0
 29 60  1  0  0  0  0
 30 34  1  0  0  0  0
 30 61  1  0  0  0  0
 30 62  1  0  0  0  0
 32 36  2  0  0  0  0
 33 34  2  0  0  0  0
 33 63  1  0  0  0  0
 34 64  1  0  0  0  0
 35 37  2  0  0  0  0
 35 65  1  0  0  0  0
 36 37  1  0  0  0  0
 36 66  1  0  0  0  0
 37 67  1  0  0  0  0
M  END
> <PUBCHEM_COMPOUND_CID>
504869
> <PUBCHEM_COMPOUND_CANONICALIZED>
1
> <PUBCHEM_CACTVS_COMPLEXITY>
1030
> <PUBCHEM_CACTVS_HBOND_ACCEPTOR>
8
> <PUBCHEM_CACTVS_HBOND_DONOR>
4
> <PUBCHEM_CACTVS_ROTATABLE_BOND>
11
> <PUBCHEM_CACTVS_SUBSKEYS>
AAADceB7OABAAAAAAAAAAAAAAAAAAAAAAAAwQIAAAAAAAACBAAAAHgQQCAAADGzB2AQyzoLABgCMAqXSWACCAAAlIgAIiIGPTMgKZjrSlbOWcYhk1hHY2ce+37KOAAABAAACEAAAAAIAAAQgAAAAAAAAAA==
> <PUBCHEM_IUPAC_OPENEYE_NAME>
tert-butyl (4S)-4-[(8-hydroxy-4-oxo-1H-quinoline-2-carbonyl)amino]-5-oxo-5-[2-(6-thioxocyclohexa-1,3-dien-1-yl)ethylamino]pentanoate
> <PUBCHEM_IUPAC_CAS_NAME>
(4S)-4-[[(8-hydroxy-4-oxo-1H-quinolin-2-yl)-oxomethyl]amino]-5-oxo-5-[2-(6-sulfanylidene-1-cyclohexa-1,3-dienyl)ethylamino]pentanoic acid tert-butyl ester
> <PUBCHEM_IUPAC_NAME_MARKUP>
<I>tert</I>-butyl (4<I>S</I>)-4-[(8-hydroxy-4-oxo-1<I>H</I>-quinoline-2-carbonyl)amino]-5-oxo-5-[2-(6-sulfanylidenecyclohexa-1,3-dien-1-yl)ethylamino]pentanoate
> <PUBCHEM_IUPAC_NAME>
tert-butyl (4S)-4-[(8-hydroxy-4-oxo-1H-quinoline-2-carbonyl)amino]-5-oxo-5-[2-(6-sulfanylidenecyclohexa-1,3-dien-1-yl)ethylamino]pentanoate
> <PUBCHEM_IUPAC_SYSTEMATIC_NAME>
tert-butyl (4S)-5-oxidanylidene-4-[(8-oxidanyl-4-oxidanylidene-1H-quinolin-2-yl)carbonylamino]-5-[2-(6-sulfanylidenecyclohexa-1,3-dien-1-yl)ethylamino]pentanoate
> <PUBCHEM_IUPAC_TRADITIONAL_NAME>
(4S)-4-[(8-hydroxy-4-keto-1H-quinoline-2-carbonyl)amino]-5-keto-5-[2-(6-thioxocyclohexa-1,3-dien-1-yl)ethylamino]valeric acid tert-butyl ester
> <PUBCHEM_IUPAC_INCHI>
InChI=1S/C27H31N3O6S/c1-27(2,3)36-23(33)12-11-18(25(34)28-14-13-16-7-4-5-10-22(16)37)30-26(35)19-15-21(32)17-8-6-9-20(31)24(17)29-19/h4-9,15,18,31H,10-14H2,1-3H3,(H,28,34)(H,29,32)(H,30,35)/t18-/m0/s1
> <PUBCHEM_IUPAC_INCHIKEY>
PTLZWXWZHSXFOF-SFHVURJKSA-N
> <PUBCHEM_XLOGP3_AA>
2.9
> <PUBCHEM_EXACT_MASS>
525.19335689
> <PUBCHEM_MOLECULAR_FORMULA>
C27H31N3O6S
> <PUBCHEM_MOLECULAR_WEIGHT>
525.6
> <PUBCHEM_OPENEYE_CAN_SMILES>
CC(C)(C)OC(=O)CCC(C(=O)NCCC1=CC=CCC1=S)NC(=O)C2=CC(=O)C3=C(N2)C(=CC=C3)O
> <PUBCHEM_OPENEYE_ISO_SMILES>
CC(C)(C)OC(=O)CC[C@@H](C(=O)NCCC1=CC=CCC1=S)NC(=O)C2=CC(=O)C3=C(N2)C(=CC=C3)O
> <PUBCHEM_CACTVS_TPSA>
166
> <PUBCHEM_MONOISOTOPIC_WEIGHT>
525.19335689
> <PUBCHEM_TOTAL_CHARGE>
0
> <PUBCHEM_HEAVY_ATOM_COUNT>
37
> <PUBCHEM_ATOM_DEF_STEREO_COUNT>
1
> <PUBCHEM_ATOM_UDEF_STEREO_COUNT>
0
> <PUBCHEM_BOND_DEF_STEREO_COUNT>
0
> <PUBCHEM_BOND_UDEF_STEREO_COUNT>
0
> <PUBCHEM_ISOTOPIC_ATOM_COUNT>
0
> <PUBCHEM_COMPONENT_COUNT>
1
> <PUBCHEM_CACTVS_TAUTO_COUNT>
-1
> <PUBCHEM_COORDINATE_TYPE>
1
5
255
> <PUBCHEM_BONDANNOTATIONS>
10  24  8
10  25  8
24  28  8
25  27  8
25  32  8
27  31  8
27  35  8
28  31  8
32  36  8
35  37  8
36  37  8
11  8  6
$$$$
