504863
  -OEChem-10302200282D
 85 88  0     1  0  0  0  0  0999 V2000
    2.0000   -3.5000    0.0000 F   0  0  0  0  0  0  0  0  0  0  0  0
    8.9282   -7.5000    0.0000 F   0  0  0  0  0  0  0  0  0  0  0  0
    7.1962    5.5000    0.0000 O   0  0  0  0  0  0  0  0  0  0  0  0
   10.6603    2.5000    0.0000 O   0  0  0  0  0  0  0  0  0  0  0  0
    6.3301    4.0000    0.0000 O   0  0  0  0  0  0  0  0  0  0  0  0
    7.1962    1.5000    0.0000 O   0  0  0  0  0  0  0  0  0  0  0  0
    6.3301   -2.0000    0.0000 O   0  0  0  0  0  0  0  0  0  0  0  0
    8.0622   -3.0000    0.0000 O   0  0  0  0  0  0  0  0  0  0  0  0
    8.9282    1.5000    0.0000 N   0  0  0  0  0  0  0  0  0  0  0  0
    9.7942    4.0000    0.0000 N   0  0  0  0  0  0  0  0  0  0  0  0
    8.9282    2.5000    0.0000 C   0  0  1  0  0  0  0  0  0  0  0  0
    8.0622    3.0000    0.0000 C   0  0  0  0  0  0  0  0  0  0  0  0
    8.0622    4.0000    0.0000 C   0  0  0  0  0  0  0  0  0  0  0  0
    6.3301    6.0000    0.0000 C   0  0  0  0  0  0  0  0  0  0  0  0
    9.7942    3.0000    0.0000 C   0  0  0  0  0  0  0  0  0  0  0  0
    7.1962    4.5000    0.0000 C   0  0  0  0  0  0  0  0  0  0  0  0
    5.4641    6.5000    0.0000 C   0  0  0  0  0  0  0  0  0  0  0  0
    6.8301    6.8660    0.0000 C   0  0  0  0  0  0  0  0  0  0  0  0
    5.8301    5.1340    0.0000 C   0  0  0  0  0  0  0  0  0  0  0  0
    8.0622    1.0000    0.0000 C   0  0  0  0  0  0  0  0  0  0  0  0
   10.6603    4.5000    0.0000 C   0  0  0  0  0  0  0  0  0  0  0  0
    8.0622    0.0000    0.0000 C   0  0  0  0  0  0  0  0  0  0  0  0
   10.6603    5.5000    0.0000 C   0  0  0  0  0  0  0  0  0  0  0  0
    7.1962   -0.5000    0.0000 C   0  0  0  0  0  0  0  0  0  0  0  0
    8.9282   -0.5000    0.0000 C   0  0  0  0  0  0  0  0  0  0  0  0
    7.1962   -1.5000    0.0000 C   0  0  0  0  0  0  0  0  0  0  0  0
    8.0622   -2.0000    0.0000 C   0  0  0  0  0  0  0  0  0  0  0  0
    8.9282   -1.5000    0.0000 C   0  0  0  0  0  0  0  0  0  0  0  0
    9.7942    6.0000    0.0000 C   0  0  0  0  0  0  0  0  0  0  0  0
   11.5263    6.0000    0.0000 C   0  0  0  0  0  0  0  0  0  0  0  0
    5.4641   -1.5000    0.0000 C   0  0  0  0  0  0  0  0  0  0  0  0
    9.7942    7.0000    0.0000 C   0  0  0  0  0  0  0  0  0  0  0  0
   11.5263    7.0000    0.0000 C   0  0  0  0  0  0  0  0  0  0  0  0
    8.9282   -3.5000    0.0000 C   0  0  0  0  0  0  0  0  0  0  0  0
   10.6603    7.5000    0.0000 C   0  0  0  0  0  0  0  0  0  0  0  0
    4.5981   -2.0000    0.0000 C   0  0  0  0  0  0  0  0  0  0  0  0
    8.9282   -4.5000    0.0000 C   0  0  0  0  0  0  0  0  0  0  0  0
    3.7320   -1.5000    0.0000 C   0  0  0  0  0  0  0  0  0  0  0  0
    4.5981   -3.0000    0.0000 C   0  0  0  0  0  0  0  0  0  0  0  0
    8.0622   -5.0000    0.0000 C   0  0  0  0  0  0  0  0  0  0  0  0
    9.7942   -5.0000    0.0000 C   0  0  0  0  0  0  0  0  0  0  0  0
    2.8660   -2.0000    0.0000 C   0  0  0  0  0  0  0  0  0  0  0  0
    3.7320   -3.5000    0.0000 C   0  0  0  0  0  0  0  0  0  0  0  0
    8.0622   -6.0000    0.0000 C   0  0  0  0  0  0  0  0  0  0  0  0
    9.7942   -6.0000    0.0000 C   0  0  0  0  0  0  0  0  0  0  0  0
    2.8660   -3.0000    0.0000 C   0  0  0  0  0  0  0  0  0  0  0  0
    8.9282   -6.5000    0.0000 C   0  0  0  0  0  0  0  0  0  0  0  0
    9.4651    2.1900    0.0000 H   0  0  0  0  0  0  0  0  0  0  0  0
    7.4516    3.1077    0.0000 H   0  0  0  0  0  0  0  0  0  0  0  0
    7.8501    2.4174    0.0000 H   0  0  0  0  0  0  0  0  0  0  0  0
    8.6728    3.8923    0.0000 H   0  0  0  0  0  0  0  0  0  0  0  0
    8.2742    4.5826    0.0000 H   0  0  0  0  0  0  0  0  0  0  0  0
    9.4651    1.1900    0.0000 H   0  0  0  0  0  0  0  0  0  0  0  0
    5.7741    7.0369    0.0000 H   0  0  0  0  0  0  0  0  0  0  0  0
    4.9272    6.8100    0.0000 H   0  0  0  0  0  0  0  0  0  0  0  0
    5.1541    5.9631    0.0000 H   0  0  0  0  0  0  0  0  0  0  0  0
    7.3671    6.5560    0.0000 H   0  0  0  0  0  0  0  0  0  0  0  0
    7.1401    7.4030    0.0000 H   0  0  0  0  0  0  0  0  0  0  0  0
    6.2932    7.1760    0.0000 H   0  0  0  0  0  0  0  0  0  0  0  0
    5.2932    5.4440    0.0000 H   0  0  0  0  0  0  0  0  0  0  0  0
    5.5201    4.5970    0.0000 H   0  0  0  0  0  0  0  0  0  0  0  0
    6.3671    4.8240    0.0000 H   0  0  0  0  0  0  0  0  0  0  0  0
    9.2573    4.3100    0.0000 H   0  0  0  0  0  0  0  0  0  0  0  0
   10.8723    3.9174    0.0000 H   0  0  0  0  0  0  0  0  0  0  0  0
   11.2708    4.6077    0.0000 H   0  0  0  0  0  0  0  0  0  0  0  0
    6.6592   -0.1900    0.0000 H   0  0  0  0  0  0  0  0  0  0  0  0
    9.4651   -0.1900    0.0000 H   0  0  0  0  0  0  0  0  0  0  0  0
    9.4651   -1.8100    0.0000 H   0  0  0  0  0  0  0  0  0  0  0  0
    9.2573    5.6900    0.0000 H   0  0  0  0  0  0  0  0  0  0  0  0
   12.0632    5.6900    0.0000 H   0  0  0  0  0  0  0  0  0  0  0  0
    5.8626   -1.0250    0.0000 H   0  0  0  0  0  0  0  0  0  0  0  0
    5.0656   -1.0250    0.0000 H   0  0  0  0  0  0  0  0  0  0  0  0
    9.5388   -3.6077    0.0000 H   0  0  0  0  0  0  0  0  0  0  0  0
    9.1403   -2.9174    0.0000 H   0  0  0  0  0  0  0  0  0  0  0  0
    9.2573    7.3100    0.0000 H   0  0  0  0  0  0  0  0  0  0  0  0
   12.0632    7.3100    0.0000 H   0  0  0  0  0  0  0  0  0  0  0  0
   10.6603    8.1200    0.0000 H   0  0  0  0  0  0  0  0  0  0  0  0
    3.7320   -0.8800    0.0000 H   0  0  0  0  0  0  0  0  0  0  0  0
    5.1350   -3.3100    0.0000 H   0  0  0  0  0  0  0  0  0  0  0  0
    7.5252   -4.6900    0.0000 H   0  0  0  0  0  0  0  0  0  0  0  0
   10.3312   -4.6900    0.0000 H   0  0  0  0  0  0  0  0  0  0  0  0
    2.3291   -1.6900    0.0000 H   0  0  0  0  0  0  0  0  0  0  0  0
    3.7320   -4.1200    0.0000 H   0  0  0  0  0  0  0  0  0  0  0  0
    7.5252   -6.3100    0.0000 H   0  0  0  0  0  0  0  0  0  0  0  0
   10.3312   -6.3100    0.0000 H   0  0  0  0  0  0  0  0  0  0  0  0
  1 46  1  0  0  0  0
  2 47  1  0  0  0  0
  3 14  1  0  0  0  0
  3 16  1  0  0  0  0
  4 15  2  0  0  0  0
  5 16  2  0  0  0  0
  6 20  2  0  0  0  0
  7 26  1  0  0  0  0
  7 31  1  0  0  0  0
  8 27  1  0  0  0  0
  8 34  1  0  0  0  0
 11  9  1  1  0  0  0
  9 20  1  0  0  0  0
  9 53  1  0  0  0  0
 10 15  1  0  0  0  0
 10 21  1  0  0  0  0
 10 63  1  0  0  0  0
 11 12  1  0  0  0  0
 11 15  1  0  0  0  0
 11 48  1  0  0  0  0
 12 13  1  0  0  0  0
 12 49  1  0  0  0  0
 12 50  1  0  0  0  0
 13 16  1  0  0  0  0
 13 51  1  0  0  0  0
 13 52  1  0  0  0  0
 14 17  1  0  0  0  0
 14 18  1  0  0  0  0
 14 19  1  0  0  0  0
 17 54  1  0  0  0  0
 17 55  1  0  0  0  0
 17 56  1  0  0  0  0
 18 57  1  0  0  0  0
 18 58  1  0  0  0  0
 18 59  1  0  0  0  0
 19 60  1  0  0  0  0
 19 61  1  0  0  0  0
 19 62  1  0  0  0  0
 20 22  1  0  0  0  0
 21 23  1  0  0  0  0
 21 64  1  0  0  0  0
 21 65  1  0  0  0  0
 22 24  2  0  0  0  0
 22 25  1  0  0  0  0
 23 29  2  0  0  0  0
 23 30  1  0  0  0  0
 24 26  1  0  0  0  0
 24 66  1  0  0  0  0
 25 28  2  0  0  0  0
 25 67  1  0  0  0  0
 26 27  2  0  0  0  0
 27 28  1  0  0  0  0
 28 68  1  0  0  0  0
 29 32  1  0  0  0  0
 29 69  1  0  0  0  0
 30 33  2  0  0  0  0
 30 70  1  0  0  0  0
 31 36  1  0  0  0  0
 31 71  1  0  0  0  0
 31 72  1  0  0  0  0
 32 35  2  0  0  0  0
 32 75  1  0  0  0  0
 33 35  1  0  0  0  0
 33 76  1  0  0  0  0
 34 37  1  0  0  0  0
 34 73  1  0  0  0  0
 34 74  1  0  0  0  0
 35 77  1  0  0  0  0
 36 38  2  0  0  0  0
 36 39  1  0  0  0  0
 37 40  2  0  0  0  0
 37 41  1  0  0  0  0
 38 42  1  0  0  0  0
 38 78  1  0  0  0  0
 39 43  2  0  0  0  0
 39 79  1  0  0  0  0
 40 44  1  0  0  0  0
 40 80  1  0  0  0  0
 41 45  2  0  0  0  0
 41 81  1  0  0  0  0
 42 46  2  0  0  0  0
 42 82  1  0  0  0  0
 43 46  1  0  0  0  0
 43 83  1  0  0  0  0
 44 47  2  0  0  0  0
 44 84  1  0  0  0  0
 45 47  1  0  0  0  0
 45 85  1  0  0  0  0
M  END
> <PUBCHEM_COMPOUND_CID>
504863
> <PUBCHEM_COMPOUND_CANONICALIZED>
1
> <PUBCHEM_CACTVS_COMPLEXITY>
970
> <PUBCHEM_CACTVS_HBOND_ACCEPTOR>
8
> <PUBCHEM_CACTVS_HBOND_DONOR>
2
> <PUBCHEM_CACTVS_ROTATABLE_BOND>
16
> <PUBCHEM_CACTVS_SUBSKEYS>
AAADcfB/OYAAAAAAAAAAAAAAAAAAAAAAAAAwYMGAAAAAAAABVAAAHwAQAAAADGzhmA4yDoLABACIAiHSGACCCAAkIAAIiIGOjMgNZjKEtTuWOSrk1hGKqYe+3zLOIAABAAAAQABAAAIAAACAAAAAAAAAAA==
> <PUBCHEM_IUPAC_OPENEYE_NAME>
tert-butyl (4S)-5-(benzylamino)-4-[[3,4-bis[(4-fluorophenyl)methoxy]benzoyl]amino]-5-oxo-pentanoate
> <PUBCHEM_IUPAC_CAS_NAME>
(4S)-4-[[[3,4-bis[(4-fluorophenyl)methoxy]phenyl]-oxomethyl]amino]-5-oxo-5-[(phenylmethyl)amino]pentanoic acid tert-butyl ester
> <PUBCHEM_IUPAC_NAME_MARKUP>
<I>tert</I>-butyl (4<I>S</I>)-5-(benzylamino)-4-[[3,4-bis[(4-fluorophenyl)methoxy]benzoyl]amino]-5-oxopentanoate
> <PUBCHEM_IUPAC_NAME>
tert-butyl (4S)-5-(benzylamino)-4-[[3,4-bis[(4-fluorophenyl)methoxy]benzoyl]amino]-5-oxopentanoate
> <PUBCHEM_IUPAC_SYSTEMATIC_NAME>
tert-butyl (4S)-4-[[3,4-bis[(4-fluorophenyl)methoxy]phenyl]carbonylamino]-5-oxidanylidene-5-[(phenylmethyl)amino]pentanoate
> <PUBCHEM_IUPAC_TRADITIONAL_NAME>
(4S)-5-(benzylamino)-4-[[3,4-bis[(4-fluorobenzyl)oxy]benzoyl]amino]-5-keto-valeric acid tert-butyl ester
> <PUBCHEM_IUPAC_INCHI>
InChI=1S/C37H38F2N2O6/c1-37(2,3)47-34(42)20-18-31(36(44)40-22-25-7-5-4-6-8-25)41-35(43)28-13-19-32(45-23-26-9-14-29(38)15-10-26)33(21-28)46-24-27-11-16-30(39)17-12-27/h4-17,19,21,31H,18,20,22-24H2,1-3H3,(H,40,44)(H,41,43)/t31-/m0/s1
> <PUBCHEM_IUPAC_INCHIKEY>
MHGVWUHCEBJYPC-HKBQPEDESA-N
> <PUBCHEM_XLOGP3_AA>
6.4
> <PUBCHEM_EXACT_MASS>
644.26979326
> <PUBCHEM_MOLECULAR_FORMULA>
C37H38F2N2O6
> <PUBCHEM_MOLECULAR_WEIGHT>
644.7
> <PUBCHEM_OPENEYE_CAN_SMILES>
CC(C)(C)OC(=O)CCC(C(=O)NCC1=CC=CC=C1)NC(=O)C2=CC(=C(C=C2)OCC3=CC=C(C=C3)F)OCC4=CC=C(C=C4)F
> <PUBCHEM_OPENEYE_ISO_SMILES>
CC(C)(C)OC(=O)CC[C@@H](C(=O)NCC1=CC=CC=C1)NC(=O)C2=CC(=C(C=C2)OCC3=CC=C(C=C3)F)OCC4=CC=C(C=C4)F
> <PUBCHEM_CACTVS_TPSA>
103
> <PUBCHEM_MONOISOTOPIC_WEIGHT>
644.26979326
> <PUBCHEM_TOTAL_CHARGE>
0
> <PUBCHEM_HEAVY_ATOM_COUNT>
47
> <PUBCHEM_ATOM_DEF_STEREO_COUNT>
1
> <PUBCHEM_ATOM_UDEF_STEREO_COUNT>
0
> <PUBCHEM_BOND_DEF_STEREO_COUNT>
0
> <PUBCHEM_BOND_UDEF_STEREO_COUNT>
0
> <PUBCHEM_ISOTOPIC_ATOM_COUNT>
0
> <PUBCHEM_COMPONENT_COUNT>
1
> <PUBCHEM_CACTVS_TAUTO_COUNT>
-1
> <PUBCHEM_COORDINATE_TYPE>
1
5
255
> <PUBCHEM_BONDANNOTATIONS>
22  24  8
22  25  8
23  29  8
23  30  8
24  26  8
25  28  8
26  27  8
27  28  8
29  32  8
30  33  8
32  35  8
33  35  8
36  38  8
36  39  8
37  40  8
37  41  8
38  42  8
39  43  8
40  44  8
41  45  8
42  46  8
43  46  8
44  47  8
45  47  8
11  9  5
$$$$
