504829
  -OEChem-10302200282D
 88 93  0     1  0  0  0  0  0999 V2000
    9.8622   -1.0256    0.0000 O   0  0  0  0  0  0  0  0  0  0  0  0
    9.8622   -0.0256    0.0000 O   0  0  0  0  0  0  0  0  0  0  0  0
    6.3981   -1.0256    0.0000 O   0  0  0  0  0  0  0  0  0  0  0  0
    4.6660    2.9744    0.0000 O   0  0  0  0  0  0  0  0  0  0  0  0
    2.9176   -1.0602    0.0000 O   0  0  0  0  0  0  0  0  0  0  0  0
   11.5942    5.9744    0.0000 O   0  0  0  0  0  0  0  0  0  0  0  0
   13.3263    4.9744    0.0000 O   0  0  0  0  0  0  0  0  0  0  0  0
    8.9962   -2.5256    0.0000 N   0  0  0  0  0  0  0  0  0  0  0  0
    7.2641    0.4744    0.0000 N   0  0  0  0  0  0  0  0  0  0  0  0
    8.9962    1.4744    0.0000 N   0  0  0  0  0  0  0  0  0  0  0  0
    4.6660   -0.0256    0.0000 N   0  0  0  0  0  0  0  0  0  0  0  0
    9.3382   -3.4653    0.0000 C   0  0  0  0  0  0  0  0  0  0  0  0
    9.6802   -4.4050    0.0000 C   0  0  0  0  0  0  0  0  0  0  0  0
    8.3985   -3.8073    0.0000 C   0  0  0  0  0  0  0  0  0  0  0  0
   10.2779   -3.1233    0.0000 C   0  0  0  0  0  0  0  0  0  0  0  0
    8.1301   -1.0256    0.0000 C   0  0  0  0  0  0  0  0  0  0  0  0
    8.9962   -1.5256    0.0000 C   0  0  0  0  0  0  0  0  0  0  0  0
    8.1301   -0.0256    0.0000 C   0  0  1  0  0  0  0  0  0  0  0  0
   10.6650   -4.5786    0.0000 C   0  0  0  0  0  0  0  0  0  0  0  0
    8.2248   -4.7921    0.0000 C   0  0  0  0  0  0  0  0  0  0  0  0
   11.0439   -3.7661    0.0000 C   0  0  0  0  0  0  0  0  0  0  0  0
    9.0374   -5.1710    0.0000 C   0  0  0  0  0  0  0  0  0  0  0  0
    7.6325   -3.1646    0.0000 C   0  0  0  0  0  0  0  0  0  0  0  0
   10.4515   -2.1385    0.0000 C   0  0  0  0  0  0  0  0  0  0  0  0
    8.9962    0.4744    0.0000 C   0  0  0  0  0  0  0  0  0  0  0  0
   11.0070   -5.5183    0.0000 C   0  0  0  0  0  0  0  0  0  0  0  0
    7.2852   -5.1342    0.0000 C   0  0  0  0  0  0  0  0  0  0  0  0
   11.9836   -3.4240    0.0000 C   0  0  0  0  0  0  0  0  0  0  0  0
    9.3794   -6.1107    0.0000 C   0  0  0  0  0  0  0  0  0  0  0  0
    6.6928   -3.5066    0.0000 C   0  0  0  0  0  0  0  0  0  0  0  0
   11.3912   -1.7965    0.0000 C   0  0  0  0  0  0  0  0  0  0  0  0
   10.3642   -6.2844    0.0000 C   0  0  0  0  0  0  0  0  0  0  0  0
    6.5192   -4.4914    0.0000 C   0  0  0  0  0  0  0  0  0  0  0  0
   12.1573   -2.4392    0.0000 C   0  0  0  0  0  0  0  0  0  0  0  0
    9.8622    1.9744    0.0000 C   0  0  0  0  0  0  0  0  0  0  0  0
    6.3981   -0.0256    0.0000 C   0  0  0  0  0  0  0  0  0  0  0  0
    9.8622    2.9744    0.0000 C   0  0  0  0  0  0  0  0  0  0  0  0
    5.5321    0.4744    0.0000 C   0  0  0  0  0  0  0  0  0  0  0  0
   10.7282    3.4744    0.0000 C   0  0  0  0  0  0  0  0  0  0  0  0
    3.8000    0.4744    0.0000 C   0  0  0  0  0  0  0  0  0  0  0  0
    5.5321    1.4744    0.0000 C   0  0  0  0  0  0  0  0  0  0  0  0
    3.8000    1.4744    0.0000 C   0  0  0  0  0  0  0  0  0  0  0  0
    4.6660    1.9744    0.0000 C   0  0  0  0  0  0  0  0  0  0  0  0
   10.7282    4.4744    0.0000 C   0  0  0  0  0  0  0  0  0  0  0  0
   11.5942    2.9744    0.0000 C   0  0  0  0  0  0  0  0  0  0  0  0
    2.9061   -0.0603    0.0000 C   0  0  0  0  0  0  0  0  0  0  0  0
    2.9061    2.0090    0.0000 C   0  0  0  0  0  0  0  0  0  0  0  0
   11.5942    4.9744    0.0000 C   0  0  0  0  0  0  0  0  0  0  0  0
    2.0000    0.4536    0.0000 C   0  0  0  0  0  0  0  0  0  0  0  0
   12.4603    3.4744    0.0000 C   0  0  0  0  0  0  0  0  0  0  0  0
    2.0000    1.4952    0.0000 C   0  0  0  0  0  0  0  0  0  0  0  0
   12.4603    4.4744    0.0000 C   0  0  0  0  0  0  0  0  0  0  0  0
    8.4592   -2.8356    0.0000 H   0  0  0  0  0  0  0  0  0  0  0  0
    7.5196   -0.9180    0.0000 H   0  0  0  0  0  0  0  0  0  0  0  0
    7.9181   -1.6082    0.0000 H   0  0  0  0  0  0  0  0  0  0  0  0
    7.5932   -0.3356    0.0000 H   0  0  0  0  0  0  0  0  0  0  0  0
   11.0635   -4.1037    0.0000 H   0  0  0  0  0  0  0  0  0  0  0  0
    8.6998   -5.1907    0.0000 H   0  0  0  0  0  0  0  0  0  0  0  0
   10.9363   -4.3767    0.0000 H   0  0  0  0  0  0  0  0  0  0  0  0
    8.4268   -5.0634    0.0000 H   0  0  0  0  0  0  0  0  0  0  0  0
    7.7401   -2.5540    0.0000 H   0  0  0  0  0  0  0  0  0  0  0  0
    9.9766   -1.7400    0.0000 H   0  0  0  0  0  0  0  0  0  0  0  0
    7.2641    1.0944    0.0000 H   0  0  0  0  0  0  0  0  0  0  0  0
   11.6176   -5.6260    0.0000 H   0  0  0  0  0  0  0  0  0  0  0  0
    7.1775   -5.7447    0.0000 H   0  0  0  0  0  0  0  0  0  0  0  0
   12.4586   -3.8226    0.0000 H   0  0  0  0  0  0  0  0  0  0  0  0
    8.9809   -6.5857    0.0000 H   0  0  0  0  0  0  0  0  0  0  0  0
    6.2178   -3.1081    0.0000 H   0  0  0  0  0  0  0  0  0  0  0  0
   11.4989   -1.1859    0.0000 H   0  0  0  0  0  0  0  0  0  0  0  0
   10.5763   -6.8670    0.0000 H   0  0  0  0  0  0  0  0  0  0  0  0
    5.9366   -4.7035    0.0000 H   0  0  0  0  0  0  0  0  0  0  0  0
   12.7399   -2.2272    0.0000 H   0  0  0  0  0  0  0  0  0  0  0  0
    8.4592    1.7844    0.0000 H   0  0  0  0  0  0  0  0  0  0  0  0
   10.0742    1.3918    0.0000 H   0  0  0  0  0  0  0  0  0  0  0  0
   10.4728    2.0820    0.0000 H   0  0  0  0  0  0  0  0  0  0  0  0
    9.6501    3.5570    0.0000 H   0  0  0  0  0  0  0  0  0  0  0  0
    9.2516    2.8667    0.0000 H   0  0  0  0  0  0  0  0  0  0  0  0
    4.6660   -0.6456    0.0000 H   0  0  0  0  0  0  0  0  0  0  0  0
    6.0690    1.7844    0.0000 H   0  0  0  0  0  0  0  0  0  0  0  0
   10.1913    4.7844    0.0000 H   0  0  0  0  0  0  0  0  0  0  0  0
   11.5942    2.3544    0.0000 H   0  0  0  0  0  0  0  0  0  0  0  0
    2.9132    2.6290    0.0000 H   0  0  0  0  0  0  0  0  0  0  0  0
    1.4643    0.1415    0.0000 H   0  0  0  0  0  0  0  0  0  0  0  0
   12.9972    3.1644    0.0000 H   0  0  0  0  0  0  0  0  0  0  0  0
    1.4643    1.8073    0.0000 H   0  0  0  0  0  0  0  0  0  0  0  0
    2.3843   -1.3764    0.0000 H   0  0  0  0  0  0  0  0  0  0  0  0
   12.1312    6.2844    0.0000 H   0  0  0  0  0  0  0  0  0  0  0  0
   13.8632    4.6644    0.0000 H   0  0  0  0  0  0  0  0  0  0  0  0
  1 17  2  0  0  0  0
  2 25  2  0  0  0  0
  3 36  2  0  0  0  0
  4 43  2  0  0  0  0
  5 46  1  0  0  0  0
  5 86  1  0  0  0  0
  6 48  1  0  0  0  0
  6 87  1  0  0  0  0
  7 52  1  0  0  0  0
  7 88  1  0  0  0  0
  8 12  1  0  0  0  0
  8 17  1  0  0  0  0
  8 53  1  0  0  0  0
 18  9  1  6  0  0  0
  9 36  1  0  0  0  0
  9 63  1  0  0  0  0
 10 25  1  0  0  0  0
 10 35  1  0  0  0  0
 10 73  1  0  0  0  0
 11 38  1  0  0  0  0
 11 40  1  0  0  0  0
 11 78  1  0  0  0  0
 12 13  1  0  0  0  0
 12 14  1  0  0  0  0
 12 15  1  0  0  0  0
 13 19  2  0  0  0  0
 13 22  1  0  0  0  0
 14 20  2  0  0  0  0
 14 23  1  0  0  0  0
 15 21  2  0  0  0  0
 15 24  1  0  0  0  0
 16 17  1  0  0  0  0
 16 18  1  0  0  0  0
 16 54  1  0  0  0  0
 16 55  1  0  0  0  0
 18 25  1  0  0  0  0
 18 56  1  0  0  0  0
 19 26  1  0  0  0  0
 19 57  1  0  0  0  0
 20 27  1  0  0  0  0
 20 58  1  0  0  0  0
 21 28  1  0  0  0  0
 21 59  1  0  0  0  0
 22 29  2  0  0  0  0
 22 60  1  0  0  0  0
 23 30  2  0  0  0  0
 23 61  1  0  0  0  0
 24 31  2  0  0  0  0
 24 62  1  0  0  0  0
 26 32  2  0  0  0  0
 26 64  1  0  0  0  0
 27 33  2  0  0  0  0
 27 65  1  0  0  0  0
 28 34  2  0  0  0  0
 28 66  1  0  0  0  0
 29 32  1  0  0  0  0
 29 67  1  0  0  0  0
 30 33  1  0  0  0  0
 30 68  1  0  0  0  0
 31 34  1  0  0  0  0
 31 69  1  0  0  0  0
 32 70  1  0  0  0  0
 33 71  1  0  0  0  0
 34 72  1  0  0  0  0
 35 37  1  0  0  0  0
 35 74  1  0  0  0  0
 35 75  1  0  0  0  0
 36 38  1  0  0  0  0
 37 39  1  0  0  0  0
 37 76  1  0  0  0  0
 37 77  1  0  0  0  0
 38 41  2  0  0  0  0
 39 44  2  0  0  0  0
 39 45  1  0  0  0  0
 40 42  2  0  0  0  0
 40 46  1  0  0  0  0
 41 43  1  0  0  0  0
 41 79  1  0  0  0  0
 42 43  1  0  0  0  0
 42 47  1  0  0  0  0
 44 48  1  0  0  0  0
 44 80  1  0  0  0  0
 45 50  2  0  0  0  0
 45 81  1  0  0  0  0
 46 49  2  0  0  0  0
 47 51  2  0  0  0  0
 47 82  1  0  0  0  0
 48 52  2  0  0  0  0
 49 51  1  0  0  0  0
 49 83  1  0  0  0  0
 50 52  1  0  0  0  0
 50 84  1  0  0  0  0
 51 85  1  0  0  0  0
M  END
> <PUBCHEM_COMPOUND_CID>
504829
> <PUBCHEM_COMPOUND_CANONICALIZED>
1
> <PUBCHEM_CACTVS_COMPLEXITY>
1230
> <PUBCHEM_CACTVS_HBOND_ACCEPTOR>
8
> <PUBCHEM_CACTVS_HBOND_DONOR>
7
> <PUBCHEM_CACTVS_ROTATABLE_BOND>
12
> <PUBCHEM_CACTVS_SUBSKEYS>
AAADcfB/uAAAAAAAAAAAAAAAAAAAAAAAAAAwYMGDAAAAAACBVAAAHgAQCAAADKzBmAQwxoLAAgCIAqVSUACCAAAlIgAIiIGPzMgLZjrS1bOUcYlk1hHZ2cef2PKOoAABAAACUABAAAIAAASgAAAAAAAAAA==
> <PUBCHEM_IUPAC_OPENEYE_NAME>
(2S)-N-[2-(3,4-dihydroxyphenyl)ethyl]-2-[(8-hydroxy-4-oxo-1H-quinoline-2-carbonyl)amino]-N'-trityl-butanediamide
> <PUBCHEM_IUPAC_CAS_NAME>
(2S)-N-[2-(3,4-dihydroxyphenyl)ethyl]-2-[[(8-hydroxy-4-oxo-1H-quinolin-2-yl)-oxomethyl]amino]-N'-(triphenylmethyl)butanediamide
> <PUBCHEM_IUPAC_NAME_MARKUP>
(2<I>S</I>)-<I>N</I>-[2-(3,4-dihydroxyphenyl)ethyl]-2-[(8-hydroxy-4-oxo-1<I>H</I>-quinoline-2-carbonyl)amino]-<I>N</I>&apos;-tritylbutanediamide
> <PUBCHEM_IUPAC_NAME>
(2S)-N-[2-(3,4-dihydroxyphenyl)ethyl]-2-[(8-hydroxy-4-oxo-1H-quinoline-2-carbonyl)amino]-N'-tritylbutanediamide
> <PUBCHEM_IUPAC_SYSTEMATIC_NAME>
(2S)-N-[2-[3,4-bis(oxidanyl)phenyl]ethyl]-2-[(8-oxidanyl-4-oxidanylidene-1H-quinolin-2-yl)carbonylamino]-N'-(triphenylmethyl)butanediamide
> <PUBCHEM_IUPAC_TRADITIONAL_NAME>
(2S)-N-[2-(3,4-dihydroxyphenyl)ethyl]-2-[(8-hydroxy-4-keto-1H-quinoline-2-carbonyl)amino]-N'-trityl-succinamide
> <PUBCHEM_IUPAC_INCHI>
InChI=1S/C41H36N4O7/c46-33-20-19-26(23-36(33)49)21-22-42-39(51)32(44-40(52)31-24-35(48)30-17-10-18-34(47)38(30)43-31)25-37(50)45-41(27-11-4-1-5-12-27,28-13-6-2-7-14-28)29-15-8-3-9-16-29/h1-20,23-24,32,46-47,49H,21-22,25H2,(H,42,51)(H,43,48)(H,44,52)(H,45,50)/t32-/m0/s1
> <PUBCHEM_IUPAC_INCHIKEY>
JLGXASFUVMXDEG-YTTGMZPUSA-N
> <PUBCHEM_XLOGP3_AA>
5.2
> <PUBCHEM_EXACT_MASS>
696.25839950
> <PUBCHEM_MOLECULAR_FORMULA>
C41H36N4O7
> <PUBCHEM_MOLECULAR_WEIGHT>
696.7
> <PUBCHEM_OPENEYE_CAN_SMILES>
C1=CC=C(C=C1)C(C2=CC=CC=C2)(C3=CC=CC=C3)NC(=O)CC(C(=O)NCCC4=CC(=C(C=C4)O)O)NC(=O)C5=CC(=O)C6=C(N5)C(=CC=C6)O
> <PUBCHEM_OPENEYE_ISO_SMILES>
C1=CC=C(C=C1)C(C2=CC=CC=C2)(C3=CC=CC=C3)NC(=O)C[C@@H](C(=O)NCCC4=CC(=C(C=C4)O)O)NC(=O)C5=CC(=O)C6=C(N5)C(=CC=C6)O
> <PUBCHEM_CACTVS_TPSA>
177
> <PUBCHEM_MONOISOTOPIC_WEIGHT>
696.25839950
> <PUBCHEM_TOTAL_CHARGE>
0
> <PUBCHEM_HEAVY_ATOM_COUNT>
52
> <PUBCHEM_ATOM_DEF_STEREO_COUNT>
1
> <PUBCHEM_ATOM_UDEF_STEREO_COUNT>
0
> <PUBCHEM_BOND_DEF_STEREO_COUNT>
0
> <PUBCHEM_BOND_UDEF_STEREO_COUNT>
0
> <PUBCHEM_ISOTOPIC_ATOM_COUNT>
0
> <PUBCHEM_COMPONENT_COUNT>
1
> <PUBCHEM_CACTVS_TAUTO_COUNT>
-1
> <PUBCHEM_COORDINATE_TYPE>
1
5
255
> <PUBCHEM_BONDANNOTATIONS>
11  38  8
11  40  8
13  19  8
13  22  8
14  20  8
14  23  8
15  21  8
15  24  8
19  26  8
20  27  8
21  28  8
22  29  8
23  30  8
24  31  8
26  32  8
27  33  8
28  34  8
29  32  8
30  33  8
31  34  8
38  41  8
39  44  8
39  45  8
40  42  8
40  46  8
41  43  8
42  43  8
42  47  8
44  48  8
45  50  8
46  49  8
47  51  8
48  52  8
49  51  8
50  52  8
18  9  6
$$$$
