504852
  -OEChem-10302200282D
 57 58  0     1  0  0  0  0  0999 V2000
    9.5697   -5.0483    0.0000 S   0  0  0  0  0  0  0  0  0  0  0  0
    9.4651   -1.0538    0.0000 O   0  0  0  0  0  0  0  0  0  0  0  0
    6.0010   -1.0538    0.0000 O   0  0  0  0  0  0  0  0  0  0  0  0
    9.4651   -2.0538    0.0000 O   0  0  0  0  0  0  0  0  0  0  0  0
    4.2690    4.9462    0.0000 O   0  0  0  0  0  0  0  0  0  0  0  0
    2.5369    3.9462    0.0000 O   0  0  0  0  0  0  0  0  0  0  0  0
    7.7331   -2.0538    0.0000 N   0  0  0  0  0  0  0  0  0  0  0  0
    6.8671    0.4462    0.0000 N   0  0  0  0  0  0  0  0  0  0  0  0
   10.3312   -0.5538    0.0000 C   0  0  0  0  0  0  0  0  0  0  0  0
    7.7331   -1.0538    0.0000 C   0  0  1  0  0  0  0  0  0  0  0  0
    8.5991   -0.5538    0.0000 C   0  0  0  0  0  0  0  0  0  0  0  0
   11.1972   -0.0538    0.0000 C   0  0  0  0  0  0  0  0  0  0  0  0
   10.8312   -1.4198    0.0000 C   0  0  0  0  0  0  0  0  0  0  0  0
    9.8312    0.3122    0.0000 C   0  0  0  0  0  0  0  0  0  0  0  0
    6.8671   -0.5538    0.0000 C   0  0  0  0  0  0  0  0  0  0  0  0
    6.0010    0.9462    0.0000 C   0  0  0  0  0  0  0  0  0  0  0  0
    6.0010    1.9462    0.0000 C   0  0  0  0  0  0  0  0  0  0  0  0
    8.5991   -2.5538    0.0000 C   0  0  0  0  0  0  0  0  0  0  0  0
    5.1350    2.4462    0.0000 C   0  0  0  0  0  0  0  0  0  0  0  0
    8.5991   -3.5538    0.0000 C   0  0  0  0  0  0  0  0  0  0  0  0
    5.1350    3.4462    0.0000 C   0  0  0  0  0  0  0  0  0  0  0  0
    4.2690    1.9462    0.0000 C   0  0  0  0  0  0  0  0  0  0  0  0
    9.4651   -4.0538    0.0000 C   0  0  0  0  0  0  0  0  0  0  0  0
    4.2690    3.9462    0.0000 C   0  0  0  0  0  0  0  0  0  0  0  0
    3.4030    2.4462    0.0000 C   0  0  0  0  0  0  0  0  0  0  0  0
    3.4030    3.4462    0.0000 C   0  0  0  0  0  0  0  0  0  0  0  0
   10.3787   -3.6470    0.0000 C   0  0  0  0  0  0  0  0  0  0  0  0
   11.0478   -4.3902    0.0000 C   0  0  0  0  0  0  0  0  0  0  0  0
   10.5478   -5.2562    0.0000 C   0  0  0  0  0  0  0  0  0  0  0  0
    8.2700   -1.3638    0.0000 H   0  0  0  0  0  0  0  0  0  0  0  0
    8.9976   -0.0788    0.0000 H   0  0  0  0  0  0  0  0  0  0  0  0
    8.2006   -0.0788    0.0000 H   0  0  0  0  0  0  0  0  0  0  0  0
   11.5072   -0.5907    0.0000 H   0  0  0  0  0  0  0  0  0  0  0  0
   11.7341    0.2562    0.0000 H   0  0  0  0  0  0  0  0  0  0  0  0
   10.8872    0.4832    0.0000 H   0  0  0  0  0  0  0  0  0  0  0  0
   10.2942   -1.7298    0.0000 H   0  0  0  0  0  0  0  0  0  0  0  0
   11.1412   -1.9567    0.0000 H   0  0  0  0  0  0  0  0  0  0  0  0
   11.3681   -1.1098    0.0000 H   0  0  0  0  0  0  0  0  0  0  0  0
   10.3681    0.6222    0.0000 H   0  0  0  0  0  0  0  0  0  0  0  0
    9.5212    0.8492    0.0000 H   0  0  0  0  0  0  0  0  0  0  0  0
    9.2942    0.0022    0.0000 H   0  0  0  0  0  0  0  0  0  0  0  0
    7.1962   -2.3638    0.0000 H   0  0  0  0  0  0  0  0  0  0  0  0
    5.3905    1.0539    0.0000 H   0  0  0  0  0  0  0  0  0  0  0  0
    5.7890    0.3636    0.0000 H   0  0  0  0  0  0  0  0  0  0  0  0
    7.4040    0.7562    0.0000 H   0  0  0  0  0  0  0  0  0  0  0  0
    6.6116    1.8386    0.0000 H   0  0  0  0  0  0  0  0  0  0  0  0
    6.2131    2.5288    0.0000 H   0  0  0  0  0  0  0  0  0  0  0  0
    7.9885   -3.4461    0.0000 H   0  0  0  0  0  0  0  0  0  0  0  0
    8.3871   -4.1364    0.0000 H   0  0  0  0  0  0  0  0  0  0  0  0
    5.6720    3.7562    0.0000 H   0  0  0  0  0  0  0  0  0  0  0  0
    4.2690    1.3262    0.0000 H   0  0  0  0  0  0  0  0  0  0  0  0
    2.8660    2.1362    0.0000 H   0  0  0  0  0  0  0  0  0  0  0  0
   10.5076   -3.0406    0.0000 H   0  0  0  0  0  0  0  0  0  0  0  0
   11.6644   -4.3254    0.0000 H   0  0  0  0  0  0  0  0  0  0  0  0
   10.8000   -5.8226    0.0000 H   0  0  0  0  0  0  0  0  0  0  0  0
    4.8059    5.2562    0.0000 H   0  0  0  0  0  0  0  0  0  0  0  0
    2.0000    3.6362    0.0000 H   0  0  0  0  0  0  0  0  0  0  0  0
  1 23  1  0  0  0  0
  1 29  1  0  0  0  0
  2  9  1  0  0  0  0
  2 11  1  0  0  0  0
  3 15  2  0  0  0  0
  4 18  2  0  0  0  0
  5 24  1  0  0  0  0
  5 56  1  0  0  0  0
  6 26  1  0  0  0  0
  6 57  1  0  0  0  0
 10  7  1  6  0  0  0
  7 18  1  0  0  0  0
  7 42  1  0  0  0  0
  8 15  1  0  0  0  0
  8 16  1  0  0  0  0
  8 45  1  0  0  0  0
  9 12  1  0  0  0  0
  9 13  1  0  0  0  0
  9 14  1  0  0  0  0
 10 11  1  0  0  0  0
 10 15  1  0  0  0  0
 10 30  1  0  0  0  0
 11 31  1  0  0  0  0
 11 32  1  0  0  0  0
 12 33  1  0  0  0  0
 12 34  1  0  0  0  0
 12 35  1  0  0  0  0
 13 36  1  0  0  0  0
 13 37  1  0  0  0  0
 13 38  1  0  0  0  0
 14 39  1  0  0  0  0
 14 40  1  0  0  0  0
 14 41  1  0  0  0  0
 16 17  1  0  0  0  0
 16 43  1  0  0  0  0
 16 44  1  0  0  0  0
 17 19  1  0  0  0  0
 17 46  1  0  0  0  0
 17 47  1  0  0  0  0
 18 20  1  0  0  0  0
 19 21  2  0  0  0  0
 19 22  1  0  0  0  0
 20 23  1  0  0  0  0
 20 48  1  0  0  0  0
 20 49  1  0  0  0  0
 21 24  1  0  0  0  0
 21 50  1  0  0  0  0
 22 25  2  0  0  0  0
 22 51  1  0  0  0  0
 23 27  2  0  0  0  0
 24 26  2  0  0  0  0
 25 26  1  0  0  0  0
 25 52  1  0  0  0  0
 27 28  1  0  0  0  0
 27 53  1  0  0  0  0
 28 29  2  0  0  0  0
 28 54  1  0  0  0  0
 29 55  1  0  0  0  0
M  END
> <PUBCHEM_COMPOUND_CID>
504852
> <PUBCHEM_COMPOUND_CANONICALIZED>
1
> <PUBCHEM_CACTVS_COMPLEXITY>
540
> <PUBCHEM_CACTVS_HBOND_ACCEPTOR>
6
> <PUBCHEM_CACTVS_HBOND_DONOR>
4
> <PUBCHEM_CACTVS_ROTATABLE_BOND>
10
> <PUBCHEM_CACTVS_SUBSKEYS>
AAADceB7OABAAAAAAAAAAAAAAAAAASAAAAAwAAAAAAAAAAABwAAAHgQQCAAADGzl2AayB4LABgiMAiFSEAADAIAgKBBIiJmOiIgLZjailTOXcAEm9hG5mAeY2LIOIAABAAAAQABAAAIAAACAAAAAAAAAAA==
> <PUBCHEM_IUPAC_OPENEYE_NAME>
(2S)-3-tert-butoxy-N-[2-(3,4-dihydroxyphenyl)ethyl]-2-[[2-(2-thienyl)acetyl]amino]propanamide
> <PUBCHEM_IUPAC_CAS_NAME>
(2S)-N-[2-(3,4-dihydroxyphenyl)ethyl]-3-[(2-methylpropan-2-yl)oxy]-2-[(1-oxo-2-thiophen-2-ylethyl)amino]propanamide
> <PUBCHEM_IUPAC_NAME_MARKUP>
(2<I>S</I>)-<I>N</I>-[2-(3,4-dihydroxyphenyl)ethyl]-3-[(2-methylpropan-2-yl)oxy]-2-[(2-thiophen-2-ylacetyl)amino]propanamide
> <PUBCHEM_IUPAC_NAME>
(2S)-N-[2-(3,4-dihydroxyphenyl)ethyl]-3-[(2-methylpropan-2-yl)oxy]-2-[(2-thiophen-2-ylacetyl)amino]propanamide
> <PUBCHEM_IUPAC_SYSTEMATIC_NAME>
(2S)-N-[2-[3,4-bis(oxidanyl)phenyl]ethyl]-3-[(2-methylpropan-2-yl)oxy]-2-(2-thiophen-2-ylethanoylamino)propanamide
> <PUBCHEM_IUPAC_TRADITIONAL_NAME>
(2S)-3-tert-butoxy-N-[2-(3,4-dihydroxyphenyl)ethyl]-2-[[2-(2-thienyl)acetyl]amino]propionamide
> <PUBCHEM_IUPAC_INCHI>
InChI=1S/C21H28N2O5S/c1-21(2,3)28-13-16(23-19(26)12-15-5-4-10-29-15)20(27)22-9-8-14-6-7-17(24)18(25)11-14/h4-7,10-11,16,24-25H,8-9,12-13H2,1-3H3,(H,22,27)(H,23,26)/t16-/m0/s1
> <PUBCHEM_IUPAC_INCHIKEY>
VIMPEVIVHJOWRN-INIZCTEOSA-N
> <PUBCHEM_XLOGP3_AA>
2.3
> <PUBCHEM_EXACT_MASS>
420.17189317
> <PUBCHEM_MOLECULAR_FORMULA>
C21H28N2O5S
> <PUBCHEM_MOLECULAR_WEIGHT>
420.5
> <PUBCHEM_OPENEYE_CAN_SMILES>
CC(C)(C)OCC(C(=O)NCCC1=CC(=C(C=C1)O)O)NC(=O)CC2=CC=CS2
> <PUBCHEM_OPENEYE_ISO_SMILES>
CC(C)(C)OC[C@@H](C(=O)NCCC1=CC(=C(C=C1)O)O)NC(=O)CC2=CC=CS2
> <PUBCHEM_CACTVS_TPSA>
136
> <PUBCHEM_MONOISOTOPIC_WEIGHT>
420.17189317
> <PUBCHEM_TOTAL_CHARGE>
0
> <PUBCHEM_HEAVY_ATOM_COUNT>
29
> <PUBCHEM_ATOM_DEF_STEREO_COUNT>
1
> <PUBCHEM_ATOM_UDEF_STEREO_COUNT>
0
> <PUBCHEM_BOND_DEF_STEREO_COUNT>
0
> <PUBCHEM_BOND_UDEF_STEREO_COUNT>
0
> <PUBCHEM_ISOTOPIC_ATOM_COUNT>
0
> <PUBCHEM_COMPONENT_COUNT>
1
> <PUBCHEM_CACTVS_TAUTO_COUNT>
-1
> <PUBCHEM_COORDINATE_TYPE>
1
5
255
> <PUBCHEM_BONDANNOTATIONS>
1  23  8
1  29  8
19  21  8
19  22  8
21  24  8
22  25  8
23  27  8
24  26  8
25  26  8
27  28  8
28  29  8
10  7  6
$$$$
