504978
  -OEChem-10302200282D
 56 59  0     1  0  0  0  0  0999 V2000
    4.3794    3.1343    0.0000 O   0  0  0  0  0  0  0  0  0  0  0  0
    7.0820    0.6397    0.0000 O   0  0  0  0  0  0  0  0  0  0  0  0
    6.2160    2.1398    0.0000 O   0  0  0  0  0  0  0  0  0  0  0  0
    3.6179   -4.3602    0.0000 O   0  5  0  0  0  0  0  0  0  0  0  0
    5.3500   -4.3602    0.0000 O   0  0  0  0  0  0  0  0  0  0  0  0
    6.2160   -0.8603    0.0000 N   0  0  0  0  0  0  0  0  0  0  0  0
    3.5704    1.7330    0.0000 N   0  0  0  0  0  0  0  0  0  0  0  0
    4.4839   -3.8602    0.0000 N   0  3  0  0  0  0  0  0  0  0  0  0
    3.4013    3.3422    0.0000 C   0  0  3  0  0  0  0  0  0  0  0  0
    2.9013    2.4762    0.0000 C   0  0  0  0  0  0  0  0  0  0  0  0
    2.9945    4.2557    0.0000 C   0  0  0  0  0  0  0  0  0  0  0  0
    7.0820   -1.3602    0.0000 C   0  0  0  0  0  0  0  0  0  0  0  0
    4.4839    2.1398    0.0000 C   0  0  0  0  0  0  0  0  0  0  0  0
    7.9480   -0.8603    0.0000 C   0  0  0  0  0  0  0  0  0  0  0  0
    5.3500    0.6397    0.0000 C   0  0  0  0  0  0  0  0  0  0  0  0
    6.2160    0.1397    0.0000 C   0  0  0  0  0  0  0  0  0  0  0  0
    5.3500    1.6398    0.0000 C   0  0  0  0  0  0  0  0  0  0  0  0
    5.3500   -1.3602    0.0000 C   0  0  0  0  0  0  0  0  0  0  0  0
    2.0000    4.3602    0.0000 C   0  0  0  0  0  0  0  0  0  0  0  0
    8.8141   -1.3602    0.0000 C   0  0  0  0  0  0  0  0  0  0  0  0
    9.6801   -0.8603    0.0000 C   0  0  0  0  0  0  0  0  0  0  0  0
    9.6801    0.1397    0.0000 C   0  0  0  0  0  0  0  0  0  0  0  0
    7.9480    0.1397    0.0000 C   0  0  0  0  0  0  0  0  0  0  0  0
    8.8141    0.6397    0.0000 C   0  0  0  0  0  0  0  0  0  0  0  0
    5.3500   -2.3602    0.0000 C   0  0  0  0  0  0  0  0  0  0  0  0
    4.4839   -0.8603    0.0000 C   0  0  0  0  0  0  0  0  0  0  0  0
   10.5740   -1.3949    0.0000 C   0  0  0  0  0  0  0  0  0  0  0  0
   10.5740    0.6744    0.0000 C   0  0  0  0  0  0  0  0  0  0  0  0
    4.4839   -2.8602    0.0000 C   0  0  0  0  0  0  0  0  0  0  0  0
    3.6179   -1.3602    0.0000 C   0  0  0  0  0  0  0  0  0  0  0  0
   11.4801   -0.8811    0.0000 C   0  0  0  0  0  0  0  0  0  0  0  0
   11.4801    0.1606    0.0000 C   0  0  0  0  0  0  0  0  0  0  0  0
    3.6179   -2.3602    0.0000 C   0  0  0  0  0  0  0  0  0  0  0  0
    3.7914    3.8240    0.0000 H   0  0  0  0  0  0  0  0  0  0  0  0
    2.3997    2.8406    0.0000 H   0  0  0  0  0  0  0  0  0  0  0  0
    2.4864    2.0154    0.0000 H   0  0  0  0  0  0  0  0  0  0  0  0
    3.5961    4.4057    0.0000 H   0  0  0  0  0  0  0  0  0  0  0  0
    2.9513    4.8742    0.0000 H   0  0  0  0  0  0  0  0  0  0  0  0
    6.6835   -1.8352    0.0000 H   0  0  0  0  0  0  0  0  0  0  0  0
    7.4805   -1.8352    0.0000 H   0  0  0  0  0  0  0  0  0  0  0  0
    4.7394    0.7474    0.0000 H   0  0  0  0  0  0  0  0  0  0  0  0
    5.1379    0.0571    0.0000 H   0  0  0  0  0  0  0  0  0  0  0  0
    2.0648    4.9769    0.0000 H   0  0  0  0  0  0  0  0  0  0  0  0
    1.3834    4.4251    0.0000 H   0  0  0  0  0  0  0  0  0  0  0  0
    1.9352    3.7436    0.0000 H   0  0  0  0  0  0  0  0  0  0  0  0
    8.8141   -1.9802    0.0000 H   0  0  0  0  0  0  0  0  0  0  0  0
    7.4111    0.4497    0.0000 H   0  0  0  0  0  0  0  0  0  0  0  0
    8.8141    1.2598    0.0000 H   0  0  0  0  0  0  0  0  0  0  0  0
    5.8869   -2.6702    0.0000 H   0  0  0  0  0  0  0  0  0  0  0  0
    4.4839   -0.2403    0.0000 H   0  0  0  0  0  0  0  0  0  0  0  0
   10.5669   -2.0149    0.0000 H   0  0  0  0  0  0  0  0  0  0  0  0
   10.5669    1.2944    0.0000 H   0  0  0  0  0  0  0  0  0  0  0  0
    3.0810   -1.0502    0.0000 H   0  0  0  0  0  0  0  0  0  0  0  0
   12.0158   -1.1931    0.0000 H   0  0  0  0  0  0  0  0  0  0  0  0
   12.0158    0.4726    0.0000 H   0  0  0  0  0  0  0  0  0  0  0  0
    3.0810   -2.6702    0.0000 H   0  0  0  0  0  0  0  0  0  0  0  0
  1  9  1  0  0  0  0
  1 13  1  0  0  0  0
  2 16  2  0  0  0  0
  3 17  2  0  0  0  0
  4  8  1  0  0  0  0
  5  8  2  0  0  0  0
  6 12  1  0  0  0  0
  6 16  1  0  0  0  0
  6 18  1  0  0  0  0
  7 10  1  0  0  0  0
  7 13  2  0  0  0  0
  8 29  1  0  0  0  0
  9 10  1  0  0  0  0
  9 11  1  0  0  0  0
  9 34  1  0  0  0  0
 10 35  1  0  0  0  0
 10 36  1  0  0  0  0
 11 19  1  0  0  0  0
 11 37  1  0  0  0  0
 11 38  1  0  0  0  0
 12 14  1  0  0  0  0
 12 39  1  0  0  0  0
 12 40  1  0  0  0  0
 13 17  1  0  0  0  0
 14 20  2  0  0  0  0
 14 23  1  0  0  0  0
 15 16  1  0  0  0  0
 15 17  1  0  0  0  0
 15 41  1  0  0  0  0
 15 42  1  0  0  0  0
 18 25  2  0  0  0  0
 18 26  1  0  0  0  0
 19 43  1  0  0  0  0
 19 44  1  0  0  0  0
 19 45  1  0  0  0  0
 20 21  1  0  0  0  0
 20 46  1  0  0  0  0
 21 22  1  0  0  0  0
 21 27  2  0  0  0  0
 22 24  1  0  0  0  0
 22 28  2  0  0  0  0
 23 24  2  0  0  0  0
 23 47  1  0  0  0  0
 24 48  1  0  0  0  0
 25 29  1  0  0  0  0
 25 49  1  0  0  0  0
 26 30  2  0  0  0  0
 26 50  1  0  0  0  0
 27 31  1  0  0  0  0
 27 51  1  0  0  0  0
 28 32  1  0  0  0  0
 28 52  1  0  0  0  0
 29 33  2  0  0  0  0
 30 33  1  0  0  0  0
 30 53  1  0  0  0  0
 31 32  2  0  0  0  0
 31 54  1  0  0  0  0
 32 55  1  0  0  0  0
 33 56  1  0  0  0  0
M  CHG  2   4  -1   8   1
M  END
> <PUBCHEM_COMPOUND_CID>
504978
> <PUBCHEM_COMPOUND_CANONICALIZED>
1
> <PUBCHEM_CACTVS_COMPLEXITY>
764
> <PUBCHEM_CACTVS_HBOND_ACCEPTOR>
6
> <PUBCHEM_CACTVS_HBOND_DONOR>
0
> <PUBCHEM_CACTVS_ROTATABLE_BOND>
7
> <PUBCHEM_CACTVS_SUBSKEYS>
AAADceB7OAAAAAAAAAAAAAAAAAAAAQAAAAAwYMAAAAAAAADBVAAAHgAEAAAADBzhmAYywMMQRACpAqVyVwKCAAAhAgAoiAFoZIoKIDrI0dWHIAhkhgDIyAcygMAOwAACAAQQAACAAAQACCAAAAAAAAAAAA==
> <PUBCHEM_IUPAC_OPENEYE_NAME>
3-(5-ethyl-4,5-dihydrooxazol-2-yl)-N-(2-naphthylmethyl)-N-(3-nitrophenyl)-3-oxo-propanamide
> <PUBCHEM_IUPAC_CAS_NAME>
3-(5-ethyl-4,5-dihydrooxazol-2-yl)-N-(2-naphthalenylmethyl)-N-(3-nitrophenyl)-3-oxopropanamide
> <PUBCHEM_IUPAC_NAME_MARKUP>
3-(5-ethyl-4,5-dihydro-1,3-oxazol-2-yl)-<I>N</I>-(naphthalen-2-ylmethyl)-<I>N</I>-(3-nitrophenyl)-3-oxopropanamide
> <PUBCHEM_IUPAC_NAME>
3-(5-ethyl-4,5-dihydro-1,3-oxazol-2-yl)-N-(naphthalen-2-ylmethyl)-N-(3-nitrophenyl)-3-oxopropanamide
> <PUBCHEM_IUPAC_SYSTEMATIC_NAME>
3-(5-ethyl-4,5-dihydro-1,3-oxazol-2-yl)-N-(naphthalen-2-ylmethyl)-N-(3-nitrophenyl)-3-oxidanylidene-propanamide
> <PUBCHEM_IUPAC_TRADITIONAL_NAME>
3-(5-ethyl-2-oxazolin-2-yl)-3-keto-N-(2-naphthylmethyl)-N-(3-nitrophenyl)propionamide
> <PUBCHEM_IUPAC_INCHI>
InChI=1S/C25H23N3O5/c1-2-22-15-26-25(33-22)23(29)14-24(30)27(20-8-5-9-21(13-20)28(31)32)16-17-10-11-18-6-3-4-7-19(18)12-17/h3-13,22H,2,14-16H2,1H3
> <PUBCHEM_IUPAC_INCHIKEY>
ZVUHOZBFDRZBSO-UHFFFAOYSA-N
> <PUBCHEM_XLOGP3_AA>
4.4
> <PUBCHEM_EXACT_MASS>
445.16377084
> <PUBCHEM_MOLECULAR_FORMULA>
C25H23N3O5
> <PUBCHEM_MOLECULAR_WEIGHT>
445.5
> <PUBCHEM_OPENEYE_CAN_SMILES>
CCC1CN=C(O1)C(=O)CC(=O)N(CC2=CC3=CC=CC=C3C=C2)C4=CC(=CC=C4)[N+](=O)[O-]
> <PUBCHEM_OPENEYE_ISO_SMILES>
CCC1CN=C(O1)C(=O)CC(=O)N(CC2=CC3=CC=CC=C3C=C2)C4=CC(=CC=C4)[N+](=O)[O-]
> <PUBCHEM_CACTVS_TPSA>
105
> <PUBCHEM_MONOISOTOPIC_WEIGHT>
445.16377084
> <PUBCHEM_TOTAL_CHARGE>
0
> <PUBCHEM_HEAVY_ATOM_COUNT>
33
> <PUBCHEM_ATOM_DEF_STEREO_COUNT>
0
> <PUBCHEM_ATOM_UDEF_STEREO_COUNT>
1
> <PUBCHEM_BOND_DEF_STEREO_COUNT>
0
> <PUBCHEM_BOND_UDEF_STEREO_COUNT>
0
> <PUBCHEM_ISOTOPIC_ATOM_COUNT>
0
> <PUBCHEM_COMPONENT_COUNT>
1
> <PUBCHEM_CACTVS_TAUTO_COUNT>
-1
> <PUBCHEM_COORDINATE_TYPE>
1
5
255
> <PUBCHEM_BONDANNOTATIONS>
14  20  8
14  23  8
18  25  8
18  26  8
20  21  8
21  22  8
21  27  8
22  24  8
22  28  8
23  24  8
25  29  8
26  30  8
27  31  8
28  32  8
29  33  8
30  33  8
31  32  8
9  11  3
$$$$
