505087
  -OEChem-10302200282D
 56 58  0     1  0  0  0  0  0999 V2000
    5.5211    2.7071    0.0000 O   0  0  0  0  0  0  0  0  0  0  0  0
    6.3301   -0.8807    0.0000 O   0  0  0  0  0  0  0  0  0  0  0  0
    7.1962    0.6193    0.0000 O   0  0  0  0  0  0  0  0  0  0  0  0
    3.7320   -5.3807    0.0000 O   0  5  0  0  0  0  0  0  0  0  0  0
    5.4641   -5.3807    0.0000 O   0  0  0  0  0  0  0  0  0  0  0  0
    4.5981   -0.8807    0.0000 N   0  0  0  0  0  0  0  0  0  0  0  0
    7.1391    2.7071    0.0000 N   0  0  0  0  0  0  0  0  0  0  0  0
    4.5981   -4.8807    0.0000 N   0  3  0  0  0  0  0  0  0  0  0  0
    5.8301    3.6581    0.0000 C   0  0  3  0  0  0  0  0  0  0  0  0
    3.7320   -0.3807    0.0000 C   0  0  0  0  0  0  0  0  0  0  0  0
    3.7320    0.6193    0.0000 C   0  0  0  0  0  0  0  0  0  0  0  0
    6.8301    3.6581    0.0000 C   0  0  0  0  0  0  0  0  0  0  0  0
    5.2423    4.4672    0.0000 C   0  0  0  0  0  0  0  0  0  0  0  0
    2.8660    1.1193    0.0000 C   0  0  0  0  0  0  0  0  0  0  0  0
    6.3301    2.1193    0.0000 C   0  0  0  0  0  0  0  0  0  0  0  0
    5.4641   -0.3807    0.0000 C   0  0  0  0  0  0  0  0  0  0  0  0
    5.4641    0.6193    0.0000 C   0  0  0  0  0  0  0  0  0  0  0  0
    4.5981   -1.8807    0.0000 C   0  0  0  0  0  0  0  0  0  0  0  0
    6.3301    1.1193    0.0000 C   0  0  0  0  0  0  0  0  0  0  0  0
    2.8660    2.1193    0.0000 C   0  0  0  0  0  0  0  0  0  0  0  0
    5.6491    5.3807    0.0000 C   0  0  0  0  0  0  0  0  0  0  0  0
    5.4641   -2.3807    0.0000 C   0  0  0  0  0  0  0  0  0  0  0  0
    3.7320   -2.3807    0.0000 C   0  0  0  0  0  0  0  0  0  0  0  0
    2.0000    2.6193    0.0000 C   0  0  0  0  0  0  0  0  0  0  0  0
    3.7320    2.6193    0.0000 C   0  0  0  0  0  0  0  0  0  0  0  0
    5.4641   -3.3807    0.0000 C   0  0  0  0  0  0  0  0  0  0  0  0
    3.7320   -3.3807    0.0000 C   0  0  0  0  0  0  0  0  0  0  0  0
    4.5981   -3.8807    0.0000 C   0  0  0  0  0  0  0  0  0  0  0  0
    2.0000    3.6193    0.0000 C   0  0  0  0  0  0  0  0  0  0  0  0
    3.7320    3.6193    0.0000 C   0  0  0  0  0  0  0  0  0  0  0  0
    2.8660    4.1193    0.0000 C   0  0  0  0  0  0  0  0  0  0  0  0
    5.2178    3.5612    0.0000 H   0  0  0  0  0  0  0  0  0  0  0  0
    3.1215   -0.2730    0.0000 H   0  0  0  0  0  0  0  0  0  0  0  0
    3.5200   -0.9633    0.0000 H   0  0  0  0  0  0  0  0  0  0  0  0
    4.3426    0.5116    0.0000 H   0  0  0  0  0  0  0  0  0  0  0  0
    3.9441    1.2019    0.0000 H   0  0  0  0  0  0  0  0  0  0  0  0
    7.4366    3.7870    0.0000 H   0  0  0  0  0  0  0  0  0  0  0  0
    6.7653    4.2747    0.0000 H   0  0  0  0  0  0  0  0  0  0  0  0
    4.7283    4.8139    0.0000 H   0  0  0  0  0  0  0  0  0  0  0  0
    4.8116    4.0212    0.0000 H   0  0  0  0  0  0  0  0  0  0  0  0
    2.2554    1.2270    0.0000 H   0  0  0  0  0  0  0  0  0  0  0  0
    2.6540    0.5367    0.0000 H   0  0  0  0  0  0  0  0  0  0  0  0
    5.2520    1.2019    0.0000 H   0  0  0  0  0  0  0  0  0  0  0  0
    4.8535    0.5116    0.0000 H   0  0  0  0  0  0  0  0  0  0  0  0
    6.2155    5.1285    0.0000 H   0  0  0  0  0  0  0  0  0  0  0  0
    5.9013    5.9471    0.0000 H   0  0  0  0  0  0  0  0  0  0  0  0
    5.0827    5.6329    0.0000 H   0  0  0  0  0  0  0  0  0  0  0  0
    6.0010   -2.0707    0.0000 H   0  0  0  0  0  0  0  0  0  0  0  0
    3.1951   -2.0707    0.0000 H   0  0  0  0  0  0  0  0  0  0  0  0
    1.4631    2.3093    0.0000 H   0  0  0  0  0  0  0  0  0  0  0  0
    4.2690    2.3093    0.0000 H   0  0  0  0  0  0  0  0  0  0  0  0
    6.0010   -3.6907    0.0000 H   0  0  0  0  0  0  0  0  0  0  0  0
    3.1951   -3.6907    0.0000 H   0  0  0  0  0  0  0  0  0  0  0  0
    1.4631    3.9293    0.0000 H   0  0  0  0  0  0  0  0  0  0  0  0
    4.2690    3.9293    0.0000 H   0  0  0  0  0  0  0  0  0  0  0  0
    2.8660    4.7393    0.0000 H   0  0  0  0  0  0  0  0  0  0  0  0
  1  9  1  0  0  0  0
  1 15  1  0  0  0  0
  2 16  2  0  0  0  0
  3 19  2  0  0  0  0
  4  8  1  0  0  0  0
  5  8  2  0  0  0  0
  6 10  1  0  0  0  0
  6 16  1  0  0  0  0
  6 18  1  0  0  0  0
  7 12  1  0  0  0  0
  7 15  2  0  0  0  0
  8 28  1  0  0  0  0
  9 12  1  0  0  0  0
  9 13  1  0  0  0  0
  9 32  1  0  0  0  0
 10 11  1  0  0  0  0
 10 33  1  0  0  0  0
 10 34  1  0  0  0  0
 11 14  1  0  0  0  0
 11 35  1  0  0  0  0
 11 36  1  0  0  0  0
 12 37  1  0  0  0  0
 12 38  1  0  0  0  0
 13 21  1  0  0  0  0
 13 39  1  0  0  0  0
 13 40  1  0  0  0  0
 14 20  1  0  0  0  0
 14 41  1  0  0  0  0
 14 42  1  0  0  0  0
 15 19  1  0  0  0  0
 16 17  1  0  0  0  0
 17 19  1  0  0  0  0
 17 43  1  0  0  0  0
 17 44  1  0  0  0  0
 18 22  2  0  0  0  0
 18 23  1  0  0  0  0
 20 24  2  0  0  0  0
 20 25  1  0  0  0  0
 21 45  1  0  0  0  0
 21 46  1  0  0  0  0
 21 47  1  0  0  0  0
 22 26  1  0  0  0  0
 22 48  1  0  0  0  0
 23 27  2  0  0  0  0
 23 49  1  0  0  0  0
 24 29  1  0  0  0  0
 24 50  1  0  0  0  0
 25 30  2  0  0  0  0
 25 51  1  0  0  0  0
 26 28  2  0  0  0  0
 26 52  1  0  0  0  0
 27 28  1  0  0  0  0
 27 53  1  0  0  0  0
 29 31  2  0  0  0  0
 29 54  1  0  0  0  0
 30 31  1  0  0  0  0
 30 55  1  0  0  0  0
 31 56  1  0  0  0  0
M  CHG  2   4  -1   8   1
M  END
> <PUBCHEM_COMPOUND_CID>
505087
> <PUBCHEM_COMPOUND_CANONICALIZED>
1
> <PUBCHEM_CACTVS_COMPLEXITY>
661
> <PUBCHEM_CACTVS_HBOND_ACCEPTOR>
6
> <PUBCHEM_CACTVS_HBOND_DONOR>
0
> <PUBCHEM_CACTVS_ROTATABLE_BOND>
9
> <PUBCHEM_CACTVS_SUBSKEYS>
AAADceB7OAAAAAAAAAAAAAAAAAAAAQAAAAAwYAAAAAAAAAABQAAAHgAEAAAADBzhmAYywIMQRACpAqVyVwKCAAAhAgAoiAFoZIoKIDrIkZWHIAhkhgDIyAcygIAOAACAAAAAAAAAAQAAAAAAAAAAAAAAAA==
> <PUBCHEM_IUPAC_OPENEYE_NAME>
3-(5-ethyl-4,5-dihydrooxazol-2-yl)-N-(4-nitrophenyl)-3-oxo-N-(3-phenylpropyl)propanamide
> <PUBCHEM_IUPAC_CAS_NAME>
3-(5-ethyl-4,5-dihydrooxazol-2-yl)-N-(4-nitrophenyl)-3-oxo-N-(3-phenylpropyl)propanamide
> <PUBCHEM_IUPAC_NAME_MARKUP>
3-(5-ethyl-4,5-dihydro-1,3-oxazol-2-yl)-<I>N</I>-(4-nitrophenyl)-3-oxo-<I>N</I>-(3-phenylpropyl)propanamide
> <PUBCHEM_IUPAC_NAME>
3-(5-ethyl-4,5-dihydro-1,3-oxazol-2-yl)-N-(4-nitrophenyl)-3-oxo-N-(3-phenylpropyl)propanamide
> <PUBCHEM_IUPAC_SYSTEMATIC_NAME>
3-(5-ethyl-4,5-dihydro-1,3-oxazol-2-yl)-N-(4-nitrophenyl)-3-oxidanylidene-N-(3-phenylpropyl)propanamide
> <PUBCHEM_IUPAC_TRADITIONAL_NAME>
3-(5-ethyl-2-oxazolin-2-yl)-3-keto-N-(4-nitrophenyl)-N-(3-phenylpropyl)propionamide
> <PUBCHEM_IUPAC_INCHI>
InChI=1S/C23H25N3O5/c1-2-20-16-24-23(31-20)21(27)15-22(28)25(14-6-9-17-7-4-3-5-8-17)18-10-12-19(13-11-18)26(29)30/h3-5,7-8,10-13,20H,2,6,9,14-16H2,1H3
> <PUBCHEM_IUPAC_INCHIKEY>
YJFMRKZHDCJKQC-UHFFFAOYSA-N
> <PUBCHEM_XLOGP3_AA>
4
> <PUBCHEM_EXACT_MASS>
423.17942091
> <PUBCHEM_MOLECULAR_FORMULA>
C23H25N3O5
> <PUBCHEM_MOLECULAR_WEIGHT>
423.5
> <PUBCHEM_OPENEYE_CAN_SMILES>
CCC1CN=C(O1)C(=O)CC(=O)N(CCCC2=CC=CC=C2)C3=CC=C(C=C3)[N+](=O)[O-]
> <PUBCHEM_OPENEYE_ISO_SMILES>
CCC1CN=C(O1)C(=O)CC(=O)N(CCCC2=CC=CC=C2)C3=CC=C(C=C3)[N+](=O)[O-]
> <PUBCHEM_CACTVS_TPSA>
105
> <PUBCHEM_MONOISOTOPIC_WEIGHT>
423.17942091
> <PUBCHEM_TOTAL_CHARGE>
0
> <PUBCHEM_HEAVY_ATOM_COUNT>
31
> <PUBCHEM_ATOM_DEF_STEREO_COUNT>
0
> <PUBCHEM_ATOM_UDEF_STEREO_COUNT>
1
> <PUBCHEM_BOND_DEF_STEREO_COUNT>
0
> <PUBCHEM_BOND_UDEF_STEREO_COUNT>
0
> <PUBCHEM_ISOTOPIC_ATOM_COUNT>
0
> <PUBCHEM_COMPONENT_COUNT>
1
> <PUBCHEM_CACTVS_TAUTO_COUNT>
-1
> <PUBCHEM_COORDINATE_TYPE>
1
5
255
> <PUBCHEM_BONDANNOTATIONS>
18  22  8
18  23  8
20  24  8
20  25  8
22  26  8
23  27  8
24  29  8
25  30  8
26  28  8
27  28  8
29  31  8
30  31  8
9  13  3
$$$$
