505007
  -OEChem-10302200282D
 48 51  0     1  0  0  0  0  0999 V2000
    3.7320   -0.2500    0.0000 F   0  0  0  0  0  0  0  0  0  0  0  0
    6.3301    0.2500    0.0000 O   0  0  0  0  0  0  0  0  0  0  0  0
    5.4641    1.7500    0.0000 O   0  0  0  0  0  0  0  0  0  0  0  0
    5.4641   -1.2500    0.0000 N   0  0  0  0  0  0  0  0  0  0  0  0
    2.8660    1.2500    0.0000 N   0  0  0  0  0  0  0  0  0  0  0  0
    3.7320    2.7500    0.0000 N   0  0  0  0  0  0  0  0  0  0  0  0
    6.3301   -1.7500    0.0000 C   0  0  0  0  0  0  0  0  0  0  0  0
    7.1962   -1.2500    0.0000 C   0  0  0  0  0  0  0  0  0  0  0  0
    8.9282   -1.2500    0.0000 C   0  0  0  0  0  0  0  0  0  0  0  0
    8.0622   -1.7500    0.0000 C   0  0  0  0  0  0  0  0  0  0  0  0
    8.9282   -0.2500    0.0000 C   0  0  0  0  0  0  0  0  0  0  0  0
    4.5981   -1.7500    0.0000 C   0  0  0  0  0  0  0  0  0  0  0  0
    7.1962   -0.2500    0.0000 C   0  0  0  0  0  0  0  0  0  0  0  0
    5.4641   -0.2500    0.0000 C   0  0  0  0  0  0  0  0  0  0  0  0
    8.0622    0.2500    0.0000 C   0  0  0  0  0  0  0  0  0  0  0  0
    4.5981    0.2500    0.0000 C   0  0  3  0  0  0  0  0  0  0  0  0
    9.8222   -1.7847    0.0000 C   0  0  0  0  0  0  0  0  0  0  0  0
    9.8222    0.2847    0.0000 C   0  0  0  0  0  0  0  0  0  0  0  0
    3.7320   -1.2500    0.0000 C   0  0  0  0  0  0  0  0  0  0  0  0
    4.5981   -2.7500    0.0000 C   0  0  0  0  0  0  0  0  0  0  0  0
   10.7282   -1.2708    0.0000 C   0  0  0  0  0  0  0  0  0  0  0  0
   10.7282   -0.2292    0.0000 C   0  0  0  0  0  0  0  0  0  0  0  0
    2.8660   -1.7500    0.0000 C   0  0  0  0  0  0  0  0  0  0  0  0
    3.7320   -3.2500    0.0000 C   0  0  0  0  0  0  0  0  0  0  0  0
    4.5981    1.2500    0.0000 C   0  0  0  0  0  0  0  0  0  0  0  0
    2.8660   -2.7500    0.0000 C   0  0  0  0  0  0  0  0  0  0  0  0
    3.7320    1.7500    0.0000 C   0  0  0  0  0  0  0  0  0  0  0  0
    2.0000    1.7500    0.0000 C   0  0  0  0  0  0  0  0  0  0  0  0
    2.8660    3.2500    0.0000 C   0  0  0  0  0  0  0  0  0  0  0  0
    2.0000    2.7500    0.0000 C   0  0  0  0  0  0  0  0  0  0  0  0
    5.9316   -2.2250    0.0000 H   0  0  0  0  0  0  0  0  0  0  0  0
    6.7287   -2.2250    0.0000 H   0  0  0  0  0  0  0  0  0  0  0  0
    8.0622   -2.3700    0.0000 H   0  0  0  0  0  0  0  0  0  0  0  0
    6.6592    0.0600    0.0000 H   0  0  0  0  0  0  0  0  0  0  0  0
    8.0622    0.8700    0.0000 H   0  0  0  0  0  0  0  0  0  0  0  0
    4.5981   -0.3700    0.0000 H   0  0  0  0  0  0  0  0  0  0  0  0
    9.8150   -2.4046    0.0000 H   0  0  0  0  0  0  0  0  0  0  0  0
    9.8150    0.9046    0.0000 H   0  0  0  0  0  0  0  0  0  0  0  0
    3.7320   -0.6300    0.0000 H   0  0  0  0  0  0  0  0  0  0  0  0
    5.1350   -3.0600    0.0000 H   0  0  0  0  0  0  0  0  0  0  0  0
   11.2639   -1.5829    0.0000 H   0  0  0  0  0  0  0  0  0  0  0  0
   11.2639    0.0829    0.0000 H   0  0  0  0  0  0  0  0  0  0  0  0
    2.3291   -1.4400    0.0000 H   0  0  0  0  0  0  0  0  0  0  0  0
    3.7320   -3.8700    0.0000 H   0  0  0  0  0  0  0  0  0  0  0  0
    2.3291   -3.0600    0.0000 H   0  0  0  0  0  0  0  0  0  0  0  0
    1.4631    1.4400    0.0000 H   0  0  0  0  0  0  0  0  0  0  0  0
    2.8660    3.8700    0.0000 H   0  0  0  0  0  0  0  0  0  0  0  0
    1.4631    3.0600    0.0000 H   0  0  0  0  0  0  0  0  0  0  0  0
  1 16  1  0  0  0  0
  2 14  2  0  0  0  0
  3 25  2  0  0  0  0
  4  7  1  0  0  0  0
  4 12  1  0  0  0  0
  4 14  1  0  0  0  0
  5 27  1  0  0  0  0
  5 28  2  0  0  0  0
  6 27  2  0  0  0  0
  6 29  1  0  0  0  0
  7  8  1  0  0  0  0
  7 31  1  0  0  0  0
  7 32  1  0  0  0  0
  8 10  2  0  0  0  0
  8 13  1  0  0  0  0
  9 10  1  0  0  0  0
  9 11  1  0  0  0  0
  9 17  2  0  0  0  0
 10 33  1  0  0  0  0
 11 15  1  0  0  0  0
 11 18  2  0  0  0  0
 12 19  2  0  0  0  0
 12 20  1  0  0  0  0
 13 15  2  0  0  0  0
 13 34  1  0  0  0  0
 14 16  1  0  0  0  0
 15 35  1  0  0  0  0
 16 25  1  0  0  0  0
 16 36  1  0  0  0  0
 17 21  1  0  0  0  0
 17 37  1  0  0  0  0
 18 22  1  0  0  0  0
 18 38  1  0  0  0  0
 19 23  1  0  0  0  0
 19 39  1  0  0  0  0
 20 24  2  0  0  0  0
 20 40  1  0  0  0  0
 21 22  2  0  0  0  0
 21 41  1  0  0  0  0
 22 42  1  0  0  0  0
 23 26  2  0  0  0  0
 23 43  1  0  0  0  0
 24 26  1  0  0  0  0
 24 44  1  0  0  0  0
 25 27  1  0  0  0  0
 26 45  1  0  0  0  0
 28 30  1  0  0  0  0
 28 46  1  0  0  0  0
 29 30  2  0  0  0  0
 29 47  1  0  0  0  0
 30 48  1  0  0  0  0
M  END
> <PUBCHEM_COMPOUND_CID>
505007
> <PUBCHEM_COMPOUND_CANONICALIZED>
1
> <PUBCHEM_CACTVS_COMPLEXITY>
589
> <PUBCHEM_CACTVS_HBOND_ACCEPTOR>
5
> <PUBCHEM_CACTVS_HBOND_DONOR>
0
> <PUBCHEM_CACTVS_ROTATABLE_BOND>
6
> <PUBCHEM_CACTVS_SUBSKEYS>
AAADceB7MQAAAAAAAAAAAAAAAAAAAAAAAAA8YMEAAAAAAADB1AAAHwAAAAAADAzBmwQ90NcIEACoArd3dACCgCkzAqAJ2CG4ZJiIKLrI2fGEJAhohgLIyCcUgMAOwAACAAAQAACAAAQAACAAAAAAAAAAAA==
> <PUBCHEM_IUPAC_OPENEYE_NAME>
2-fluoro-N-(2-naphthylmethyl)-3-oxo-N-phenyl-3-pyrimidin-2-yl-propanamide
> <PUBCHEM_IUPAC_CAS_NAME>
2-fluoro-N-(2-naphthalenylmethyl)-3-oxo-N-phenyl-3-(2-pyrimidinyl)propanamide
> <PUBCHEM_IUPAC_NAME_MARKUP>
2-fluoro-<I>N</I>-(naphthalen-2-ylmethyl)-3-oxo-<I>N</I>-phenyl-3-pyrimidin-2-ylpropanamide
> <PUBCHEM_IUPAC_NAME>
2-fluoro-N-(naphthalen-2-ylmethyl)-3-oxo-N-phenyl-3-pyrimidin-2-ylpropanamide
> <PUBCHEM_IUPAC_SYSTEMATIC_NAME>
2-fluoranyl-N-(naphthalen-2-ylmethyl)-3-oxidanylidene-N-phenyl-3-pyrimidin-2-yl-propanamide
> <PUBCHEM_IUPAC_TRADITIONAL_NAME>
2-fluoro-3-keto-N-(2-naphthylmethyl)-N-phenyl-3-(2-pyrimidyl)propionamide
> <PUBCHEM_IUPAC_INCHI>
InChI=1S/C24H18FN3O2/c25-21(22(29)23-26-13-6-14-27-23)24(30)28(20-9-2-1-3-10-20)16-17-11-12-18-7-4-5-8-19(18)15-17/h1-15,21H,16H2
> <PUBCHEM_IUPAC_INCHIKEY>
PVJXRTUOROOTMN-UHFFFAOYSA-N
> <PUBCHEM_XLOGP3_AA>
4.6
> <PUBCHEM_EXACT_MASS>
399.13830499
> <PUBCHEM_MOLECULAR_FORMULA>
C24H18FN3O2
> <PUBCHEM_MOLECULAR_WEIGHT>
399.4
> <PUBCHEM_OPENEYE_CAN_SMILES>
C1=CC=C(C=C1)N(CC2=CC3=CC=CC=C3C=C2)C(=O)C(C(=O)C4=NC=CC=N4)F
> <PUBCHEM_OPENEYE_ISO_SMILES>
C1=CC=C(C=C1)N(CC2=CC3=CC=CC=C3C=C2)C(=O)C(C(=O)C4=NC=CC=N4)F
> <PUBCHEM_CACTVS_TPSA>
63.2
> <PUBCHEM_MONOISOTOPIC_WEIGHT>
399.13830499
> <PUBCHEM_TOTAL_CHARGE>
0
> <PUBCHEM_HEAVY_ATOM_COUNT>
30
> <PUBCHEM_ATOM_DEF_STEREO_COUNT>
0
> <PUBCHEM_ATOM_UDEF_STEREO_COUNT>
1
> <PUBCHEM_BOND_DEF_STEREO_COUNT>
0
> <PUBCHEM_BOND_UDEF_STEREO_COUNT>
0
> <PUBCHEM_ISOTOPIC_ATOM_COUNT>
0
> <PUBCHEM_COMPONENT_COUNT>
1
> <PUBCHEM_CACTVS_TAUTO_COUNT>
-1
> <PUBCHEM_COORDINATE_TYPE>
1
5
255
> <PUBCHEM_BONDANNOTATIONS>
16  1  3
11  15  8
11  18  8
12  19  8
12  20  8
13  15  8
17  21  8
18  22  8
19  23  8
20  24  8
21  22  8
23  26  8
24  26  8
28  30  8
29  30  8
5  27  8
5  28  8
6  27  8
6  29  8
8  10  8
8  13  8
9  10  8
9  11  8
9  17  8
$$$$
