505089
  -OEChem-10302200282D
 54 57  0     1  0  0  0  0  0999 V2000
    4.2514    1.4921    0.0000 O   0  0  0  0  0  0  0  0  0  0  0  0
    7.7631    0.3988    0.0000 O   0  0  0  0  0  0  0  0  0  0  0  0
    6.8970    1.8988    0.0000 O   0  0  0  0  0  0  0  0  0  0  0  0
    6.8970   -1.1012    0.0000 N   0  0  0  0  0  0  0  0  0  0  0  0
    5.0604    2.8933    0.0000 N   0  0  0  0  0  0  0  0  0  0  0  0
    3.5823    2.2352    0.0000 C   0  0  3  0  0  0  0  0  0  0  0  0
    4.0823    3.1012    0.0000 C   0  0  0  0  0  0  0  0  0  0  0  0
    2.5878    2.1307    0.0000 C   0  0  0  0  0  0  0  0  0  0  0  0
    7.7631   -1.6012    0.0000 C   0  0  0  0  0  0  0  0  0  0  0  0
    5.1650    1.8988    0.0000 C   0  0  0  0  0  0  0  0  0  0  0  0
    8.6291   -1.1012    0.0000 C   0  0  0  0  0  0  0  0  0  0  0  0
    6.0310    0.3988    0.0000 C   0  0  0  0  0  0  0  0  0  0  0  0
    6.8970   -0.1012    0.0000 C   0  0  0  0  0  0  0  0  0  0  0  0
    6.0310    1.3988    0.0000 C   0  0  0  0  0  0  0  0  0  0  0  0
    2.0000    2.9397    0.0000 C   0  0  0  0  0  0  0  0  0  0  0  0
    6.0310   -1.6012    0.0000 C   0  0  0  0  0  0  0  0  0  0  0  0
    9.4951   -1.6012    0.0000 C   0  0  0  0  0  0  0  0  0  0  0  0
   10.3611   -1.1012    0.0000 C   0  0  0  0  0  0  0  0  0  0  0  0
   10.3611   -0.1012    0.0000 C   0  0  0  0  0  0  0  0  0  0  0  0
    8.6291   -0.1012    0.0000 C   0  0  0  0  0  0  0  0  0  0  0  0
    9.4951    0.3988    0.0000 C   0  0  0  0  0  0  0  0  0  0  0  0
   11.2551   -1.6359    0.0000 C   0  0  0  0  0  0  0  0  0  0  0  0
    6.0310   -2.6012    0.0000 C   0  0  0  0  0  0  0  0  0  0  0  0
    5.1650   -1.1012    0.0000 C   0  0  0  0  0  0  0  0  0  0  0  0
   11.2551    0.4334    0.0000 C   0  0  0  0  0  0  0  0  0  0  0  0
   12.1611   -1.1220    0.0000 C   0  0  0  0  0  0  0  0  0  0  0  0
   12.1611   -0.0804    0.0000 C   0  0  0  0  0  0  0  0  0  0  0  0
    5.1650   -3.1012    0.0000 C   0  0  0  0  0  0  0  0  0  0  0  0
    4.2990   -1.6012    0.0000 C   0  0  0  0  0  0  0  0  0  0  0  0
    4.2990   -2.6012    0.0000 C   0  0  0  0  0  0  0  0  0  0  0  0
    3.3601    1.6564    0.0000 H   0  0  0  0  0  0  0  0  0  0  0  0
    4.2739    3.6909    0.0000 H   0  0  0  0  0  0  0  0  0  0  0  0
    3.5159    3.3534    0.0000 H   0  0  0  0  0  0  0  0  0  0  0  0
    2.0305    1.8589    0.0000 H   0  0  0  0  0  0  0  0  0  0  0  0
    2.7587    1.5347    0.0000 H   0  0  0  0  0  0  0  0  0  0  0  0
    7.3645   -2.0762    0.0000 H   0  0  0  0  0  0  0  0  0  0  0  0
    8.1616   -2.0762    0.0000 H   0  0  0  0  0  0  0  0  0  0  0  0
    5.4204    0.5064    0.0000 H   0  0  0  0  0  0  0  0  0  0  0  0
    5.8190   -0.1838    0.0000 H   0  0  0  0  0  0  0  0  0  0  0  0
    2.5016    3.3041    0.0000 H   0  0  0  0  0  0  0  0  0  0  0  0
    1.6356    3.4413    0.0000 H   0  0  0  0  0  0  0  0  0  0  0  0
    1.4984    2.5752    0.0000 H   0  0  0  0  0  0  0  0  0  0  0  0
    9.4951   -2.2212    0.0000 H   0  0  0  0  0  0  0  0  0  0  0  0
    8.0922    0.2088    0.0000 H   0  0  0  0  0  0  0  0  0  0  0  0
    9.4951    1.0188    0.0000 H   0  0  0  0  0  0  0  0  0  0  0  0
   11.2479   -2.2558    0.0000 H   0  0  0  0  0  0  0  0  0  0  0  0
    6.5679   -2.9112    0.0000 H   0  0  0  0  0  0  0  0  0  0  0  0
    5.1650   -0.4812    0.0000 H   0  0  0  0  0  0  0  0  0  0  0  0
   11.2479    1.0534    0.0000 H   0  0  0  0  0  0  0  0  0  0  0  0
   12.6969   -1.4341    0.0000 H   0  0  0  0  0  0  0  0  0  0  0  0
   12.6969    0.2317    0.0000 H   0  0  0  0  0  0  0  0  0  0  0  0
    5.1650   -3.7212    0.0000 H   0  0  0  0  0  0  0  0  0  0  0  0
    3.7620   -1.2912    0.0000 H   0  0  0  0  0  0  0  0  0  0  0  0
    3.7620   -2.9112    0.0000 H   0  0  0  0  0  0  0  0  0  0  0  0
  1  6  1  0  0  0  0
  1 10  1  0  0  0  0
  2 13  2  0  0  0  0
  3 14  2  0  0  0  0
  4  9  1  0  0  0  0
  4 13  1  0  0  0  0
  4 16  1  0  0  0  0
  5  7  1  0  0  0  0
  5 10  2  0  0  0  0
  6  7  1  0  0  0  0
  6  8  1  0  0  0  0
  6 31  1  0  0  0  0
  7 32  1  0  0  0  0
  7 33  1  0  0  0  0
  8 15  1  0  0  0  0
  8 34  1  0  0  0  0
  8 35  1  0  0  0  0
  9 11  1  0  0  0  0
  9 36  1  0  0  0  0
  9 37  1  0  0  0  0
 10 14  1  0  0  0  0
 11 17  2  0  0  0  0
 11 20  1  0  0  0  0
 12 13  1  0  0  0  0
 12 14  1  0  0  0  0
 12 38  1  0  0  0  0
 12 39  1  0  0  0  0
 15 40  1  0  0  0  0
 15 41  1  0  0  0  0
 15 42  1  0  0  0  0
 16 23  2  0  0  0  0
 16 24  1  0  0  0  0
 17 18  1  0  0  0  0
 17 43  1  0  0  0  0
 18 19  1  0  0  0  0
 18 22  2  0  0  0  0
 19 21  1  0  0  0  0
 19 25  2  0  0  0  0
 20 21  2  0  0  0  0
 20 44  1  0  0  0  0
 21 45  1  0  0  0  0
 22 26  1  0  0  0  0
 22 46  1  0  0  0  0
 23 28  1  0  0  0  0
 23 47  1  0  0  0  0
 24 29  2  0  0  0  0
 24 48  1  0  0  0  0
 25 27  1  0  0  0  0
 25 49  1  0  0  0  0
 26 27  2  0  0  0  0
 26 50  1  0  0  0  0
 27 51  1  0  0  0  0
 28 30  2  0  0  0  0
 28 52  1  0  0  0  0
 29 30  1  0  0  0  0
 29 53  1  0  0  0  0
 30 54  1  0  0  0  0
M  END
> <PUBCHEM_COMPOUND_CID>
505089
> <PUBCHEM_COMPOUND_CANONICALIZED>
1
> <PUBCHEM_CACTVS_COMPLEXITY>
640
> <PUBCHEM_CACTVS_HBOND_ACCEPTOR>
4
> <PUBCHEM_CACTVS_HBOND_DONOR>
0
> <PUBCHEM_CACTVS_ROTATABLE_BOND>
7
> <PUBCHEM_CACTVS_SUBSKEYS>
AAADceB7MAAAAAAAAAAAAAAAAAAAAQAAAAAwYMAAAAAAAADBVAAAHgAAAAAADBzhmAYywMMABACoAqVyVAKCAAAhAgAIiAFoZIgKIDrIkZWHIAhkhgDIyAcygMAOwAACAAAQAACAAAQAACAAAAAAAAAAAA==
> <PUBCHEM_IUPAC_OPENEYE_NAME>
3-(5-ethyl-4,5-dihydrooxazol-2-yl)-N-(2-naphthylmethyl)-3-oxo-N-phenyl-propanamide
> <PUBCHEM_IUPAC_CAS_NAME>
3-(5-ethyl-4,5-dihydrooxazol-2-yl)-N-(2-naphthalenylmethyl)-3-oxo-N-phenylpropanamide
> <PUBCHEM_IUPAC_NAME_MARKUP>
3-(5-ethyl-4,5-dihydro-1,3-oxazol-2-yl)-<I>N</I>-(naphthalen-2-ylmethyl)-3-oxo-<I>N</I>-phenylpropanamide
> <PUBCHEM_IUPAC_NAME>
3-(5-ethyl-4,5-dihydro-1,3-oxazol-2-yl)-N-(naphthalen-2-ylmethyl)-3-oxo-N-phenylpropanamide
> <PUBCHEM_IUPAC_SYSTEMATIC_NAME>
3-(5-ethyl-4,5-dihydro-1,3-oxazol-2-yl)-N-(naphthalen-2-ylmethyl)-3-oxidanylidene-N-phenyl-propanamide
> <PUBCHEM_IUPAC_TRADITIONAL_NAME>
3-(5-ethyl-2-oxazolin-2-yl)-3-keto-N-(2-naphthylmethyl)-N-phenyl-propionamide
> <PUBCHEM_IUPAC_INCHI>
InChI=1S/C25H24N2O3/c1-2-22-16-26-25(30-22)23(28)15-24(29)27(21-10-4-3-5-11-21)17-18-12-13-19-8-6-7-9-20(19)14-18/h3-14,22H,2,15-17H2,1H3
> <PUBCHEM_IUPAC_INCHIKEY>
NVEVJFFZSFXICK-UHFFFAOYSA-N
> <PUBCHEM_XLOGP3_AA>
4.6
> <PUBCHEM_EXACT_MASS>
400.17869263
> <PUBCHEM_MOLECULAR_FORMULA>
C25H24N2O3
> <PUBCHEM_MOLECULAR_WEIGHT>
400.5
> <PUBCHEM_OPENEYE_CAN_SMILES>
CCC1CN=C(O1)C(=O)CC(=O)N(CC2=CC3=CC=CC=C3C=C2)C4=CC=CC=C4
> <PUBCHEM_OPENEYE_ISO_SMILES>
CCC1CN=C(O1)C(=O)CC(=O)N(CC2=CC3=CC=CC=C3C=C2)C4=CC=CC=C4
> <PUBCHEM_CACTVS_TPSA>
59
> <PUBCHEM_MONOISOTOPIC_WEIGHT>
400.17869263
> <PUBCHEM_TOTAL_CHARGE>
0
> <PUBCHEM_HEAVY_ATOM_COUNT>
30
> <PUBCHEM_ATOM_DEF_STEREO_COUNT>
0
> <PUBCHEM_ATOM_UDEF_STEREO_COUNT>
1
> <PUBCHEM_BOND_DEF_STEREO_COUNT>
0
> <PUBCHEM_BOND_UDEF_STEREO_COUNT>
0
> <PUBCHEM_ISOTOPIC_ATOM_COUNT>
0
> <PUBCHEM_COMPONENT_COUNT>
1
> <PUBCHEM_CACTVS_TAUTO_COUNT>
-1
> <PUBCHEM_COORDINATE_TYPE>
1
5
255
> <PUBCHEM_BONDANNOTATIONS>
11  17  8
11  20  8
16  23  8
16  24  8
17  18  8
18  19  8
18  22  8
19  21  8
19  25  8
20  21  8
22  26  8
23  28  8
24  29  8
25  27  8
26  27  8
28  30  8
29  30  8
6  8  3
$$$$
