505018
  -OEChem-10302200282D
 61 64  0     1  0  0  0  0  0999 V2000
    4.5981   -3.5000    0.0000 O   0  0  0  0  0  0  0  0  0  0  0  0
    6.3301    1.5000    0.0000 O   0  0  0  0  0  0  0  0  0  0  0  0
    5.4641    3.0000    0.0000 O   0  0  0  0  0  0  0  0  0  0  0  0
    5.4641   -0.0000    0.0000 N   0  0  0  0  0  0  0  0  0  0  0  0
    3.7320    4.0000    0.0000 N   0  0  0  0  0  0  0  0  0  0  0  0
    2.8660    2.5000    0.0000 N   0  0  0  0  0  0  0  0  0  0  0  0
    2.8660   -3.5000    0.0000 C   0  0  0  0  0  0  0  0  0  0  0  0
    3.7320   -3.0000    0.0000 C   0  0  3  0  0  0  0  0  0  0  0  0
    3.7320   -2.0000    0.0000 C   0  0  0  0  0  0  0  0  0  0  0  0
    4.5981   -0.5000    0.0000 C   0  0  0  0  0  0  0  0  0  0  0  0
    4.5981   -1.5000    0.0000 C   0  0  0  0  0  0  0  0  0  0  0  0
    6.3301   -0.5000    0.0000 C   0  0  0  0  0  0  0  0  0  0  0  0
    2.8660   -4.5000    0.0000 C   0  0  0  0  0  0  0  0  0  0  0  0
    2.0000   -3.0000    0.0000 C   0  0  0  0  0  0  0  0  0  0  0  0
    2.8660   -1.5000    0.0000 C   0  0  0  0  0  0  0  0  0  0  0  0
    7.1962   -0.0000    0.0000 C   0  0  0  0  0  0  0  0  0  0  0  0
    3.7320   -0.0000    0.0000 C   0  0  0  0  0  0  0  0  0  0  0  0
    2.8660   -0.5000    0.0000 C   0  0  0  0  0  0  0  0  0  0  0  0
    5.4641    1.0000    0.0000 C   0  0  0  0  0  0  0  0  0  0  0  0
    8.0622   -0.5000    0.0000 C   0  0  0  0  0  0  0  0  0  0  0  0
    8.9282   -0.0000    0.0000 C   0  0  0  0  0  0  0  0  0  0  0  0
    7.1962    1.0000    0.0000 C   0  0  0  0  0  0  0  0  0  0  0  0
    8.9282    1.0000    0.0000 C   0  0  0  0  0  0  0  0  0  0  0  0
    4.5981    1.5000    0.0000 C   0  0  0  0  0  0  0  0  0  0  0  0
    8.0622    1.5000    0.0000 C   0  0  0  0  0  0  0  0  0  0  0  0
    9.8222   -0.5347    0.0000 C   0  0  0  0  0  0  0  0  0  0  0  0
    9.8222    1.5347    0.0000 C   0  0  0  0  0  0  0  0  0  0  0  0
    4.5981    2.5000    0.0000 C   0  0  0  0  0  0  0  0  0  0  0  0
   10.7282   -0.0208    0.0000 C   0  0  0  0  0  0  0  0  0  0  0  0
   10.7282    1.0208    0.0000 C   0  0  0  0  0  0  0  0  0  0  0  0
    3.7320    3.0000    0.0000 C   0  0  0  0  0  0  0  0  0  0  0  0
    2.8660    4.5000    0.0000 C   0  0  0  0  0  0  0  0  0  0  0  0
    2.0000    3.0000    0.0000 C   0  0  0  0  0  0  0  0  0  0  0  0
    2.0000    4.0000    0.0000 C   0  0  0  0  0  0  0  0  0  0  0  0
    2.8660   -2.8800    0.0000 H   0  0  0  0  0  0  0  0  0  0  0  0
    3.7320   -3.6200    0.0000 H   0  0  0  0  0  0  0  0  0  0  0  0
    5.1350   -1.8100    0.0000 H   0  0  0  0  0  0  0  0  0  0  0  0
    5.9316   -0.9749    0.0000 H   0  0  0  0  0  0  0  0  0  0  0  0
    6.7287   -0.9749    0.0000 H   0  0  0  0  0  0  0  0  0  0  0  0
    2.2460   -4.5000    0.0000 H   0  0  0  0  0  0  0  0  0  0  0  0
    2.8660   -5.1200    0.0000 H   0  0  0  0  0  0  0  0  0  0  0  0
    3.4860   -4.5000    0.0000 H   0  0  0  0  0  0  0  0  0  0  0  0
    2.3100   -2.4631    0.0000 H   0  0  0  0  0  0  0  0  0  0  0  0
    1.4631   -2.6900    0.0000 H   0  0  0  0  0  0  0  0  0  0  0  0
    1.6900   -3.5369    0.0000 H   0  0  0  0  0  0  0  0  0  0  0  0
    2.3291   -1.8100    0.0000 H   0  0  0  0  0  0  0  0  0  0  0  0
    3.7320    0.6200    0.0000 H   0  0  0  0  0  0  0  0  0  0  0  0
    2.3291   -0.1900    0.0000 H   0  0  0  0  0  0  0  0  0  0  0  0
    4.5981   -4.1200    0.0000 H   0  0  0  0  0  0  0  0  0  0  0  0
    8.0622   -1.1200    0.0000 H   0  0  0  0  0  0  0  0  0  0  0  0
    6.6592    1.3100    0.0000 H   0  0  0  0  0  0  0  0  0  0  0  0
    3.9875    1.6077    0.0000 H   0  0  0  0  0  0  0  0  0  0  0  0
    4.3860    0.9174    0.0000 H   0  0  0  0  0  0  0  0  0  0  0  0
    8.0622    2.1200    0.0000 H   0  0  0  0  0  0  0  0  0  0  0  0
    9.8150   -1.1546    0.0000 H   0  0  0  0  0  0  0  0  0  0  0  0
    9.8150    2.1546    0.0000 H   0  0  0  0  0  0  0  0  0  0  0  0
   11.2639   -0.3329    0.0000 H   0  0  0  0  0  0  0  0  0  0  0  0
   11.2639    1.3329    0.0000 H   0  0  0  0  0  0  0  0  0  0  0  0
    2.8660    5.1200    0.0000 H   0  0  0  0  0  0  0  0  0  0  0  0
    1.4631    2.6900    0.0000 H   0  0  0  0  0  0  0  0  0  0  0  0
    1.4631    4.3100    0.0000 H   0  0  0  0  0  0  0  0  0  0  0  0
  1  8  1  0  0  0  0
  1 49  1  0  0  0  0
  2 19  2  0  0  0  0
  3 28  2  0  0  0  0
  4 10  1  0  0  0  0
  4 12  1  0  0  0  0
  4 19  1  0  0  0  0
  5 31  2  0  0  0  0
  5 32  1  0  0  0  0
  6 31  1  0  0  0  0
  6 33  2  0  0  0  0
  7  8  1  0  0  0  0
  7 13  1  0  0  0  0
  7 14  1  0  0  0  0
  7 35  1  0  0  0  0
  8  9  1  0  0  0  0
  8 36  1  0  0  0  0
  9 11  2  0  0  0  0
  9 15  1  0  0  0  0
 10 11  1  0  0  0  0
 10 17  2  0  0  0  0
 11 37  1  0  0  0  0
 12 16  1  0  0  0  0
 12 38  1  0  0  0  0
 12 39  1  0  0  0  0
 13 40  1  0  0  0  0
 13 41  1  0  0  0  0
 13 42  1  0  0  0  0
 14 43  1  0  0  0  0
 14 44  1  0  0  0  0
 14 45  1  0  0  0  0
 15 18  2  0  0  0  0
 15 46  1  0  0  0  0
 16 20  2  0  0  0  0
 16 22  1  0  0  0  0
 17 18  1  0  0  0  0
 17 47  1  0  0  0  0
 18 48  1  0  0  0  0
 19 24  1  0  0  0  0
 20 21  1  0  0  0  0
 20 50  1  0  0  0  0
 21 23  1  0  0  0  0
 21 26  2  0  0  0  0
 22 25  2  0  0  0  0
 22 51  1  0  0  0  0
 23 25  1  0  0  0  0
 23 27  2  0  0  0  0
 24 28  1  0  0  0  0
 24 52  1  0  0  0  0
 24 53  1  0  0  0  0
 25 54  1  0  0  0  0
 26 29  1  0  0  0  0
 26 55  1  0  0  0  0
 27 30  1  0  0  0  0
 27 56  1  0  0  0  0
 28 31  1  0  0  0  0
 29 30  2  0  0  0  0
 29 57  1  0  0  0  0
 30 58  1  0  0  0  0
 32 34  2  0  0  0  0
 32 59  1  0  0  0  0
 33 34  1  0  0  0  0
 33 60  1  0  0  0  0
 34 61  1  0  0  0  0
M  END
> <PUBCHEM_COMPOUND_CID>
505018
> <PUBCHEM_COMPOUND_CANONICALIZED>
1
> <PUBCHEM_CACTVS_COMPLEXITY>
678
> <PUBCHEM_CACTVS_HBOND_ACCEPTOR>
5
> <PUBCHEM_CACTVS_HBOND_DONOR>
1
> <PUBCHEM_CACTVS_ROTATABLE_BOND>
8
> <PUBCHEM_CACTVS_SUBSKEYS>
AAADceB7MAAAAAAAAAAAAAAAAAAAAAAAAAA8YMEAAAAAAADB1AAAHgAACAAADRzhmwY/0NcIEgCoArd3dACCgCkzAqAJ2CG4bJiIPrrI2fGEdAhsxgPI2Ce0wOAOwAACQAAQAACAAASAACAAAAAAAAAAAA==
> <PUBCHEM_IUPAC_OPENEYE_NAME>
N-[3-(1-hydroxy-2-methyl-propyl)phenyl]-N-(2-naphthylmethyl)-3-oxo-3-pyrimidin-2-yl-propanamide
> <PUBCHEM_IUPAC_CAS_NAME>
N-[3-(1-hydroxy-2-methylpropyl)phenyl]-N-(2-naphthalenylmethyl)-3-oxo-3-(2-pyrimidinyl)propanamide
> <PUBCHEM_IUPAC_NAME_MARKUP>
<I>N</I>-[3-(1-hydroxy-2-methylpropyl)phenyl]-<I>N</I>-(naphthalen-2-ylmethyl)-3-oxo-3-pyrimidin-2-ylpropanamide
> <PUBCHEM_IUPAC_NAME>
N-[3-(1-hydroxy-2-methylpropyl)phenyl]-N-(naphthalen-2-ylmethyl)-3-oxo-3-pyrimidin-2-ylpropanamide
> <PUBCHEM_IUPAC_SYSTEMATIC_NAME>
N-[3-(2-methyl-1-oxidanyl-propyl)phenyl]-N-(naphthalen-2-ylmethyl)-3-oxidanylidene-3-pyrimidin-2-yl-propanamide
> <PUBCHEM_IUPAC_TRADITIONAL_NAME>
N-[3-(1-hydroxy-2-methyl-propyl)phenyl]-3-keto-N-(2-naphthylmethyl)-3-(2-pyrimidyl)propionamide
> <PUBCHEM_IUPAC_INCHI>
InChI=1S/C28H27N3O3/c1-19(2)27(34)23-9-5-10-24(16-23)31(26(33)17-25(32)28-29-13-6-14-30-28)18-20-11-12-21-7-3-4-8-22(21)15-20/h3-16,19,27,34H,17-18H2,1-2H3
> <PUBCHEM_IUPAC_INCHIKEY>
XHNAIMXBDPNIOK-UHFFFAOYSA-N
> <PUBCHEM_XLOGP3_AA>
4.6
> <PUBCHEM_EXACT_MASS>
453.20524173
> <PUBCHEM_MOLECULAR_FORMULA>
C28H27N3O3
> <PUBCHEM_MOLECULAR_WEIGHT>
453.5
> <PUBCHEM_OPENEYE_CAN_SMILES>
CC(C)C(C1=CC(=CC=C1)N(CC2=CC3=CC=CC=C3C=C2)C(=O)CC(=O)C4=NC=CC=N4)O
> <PUBCHEM_OPENEYE_ISO_SMILES>
CC(C)C(C1=CC(=CC=C1)N(CC2=CC3=CC=CC=C3C=C2)C(=O)CC(=O)C4=NC=CC=N4)O
> <PUBCHEM_CACTVS_TPSA>
83.4
> <PUBCHEM_MONOISOTOPIC_WEIGHT>
453.20524173
> <PUBCHEM_TOTAL_CHARGE>
0
> <PUBCHEM_HEAVY_ATOM_COUNT>
34
> <PUBCHEM_ATOM_DEF_STEREO_COUNT>
0
> <PUBCHEM_ATOM_UDEF_STEREO_COUNT>
1
> <PUBCHEM_BOND_DEF_STEREO_COUNT>
0
> <PUBCHEM_BOND_UDEF_STEREO_COUNT>
0
> <PUBCHEM_ISOTOPIC_ATOM_COUNT>
0
> <PUBCHEM_COMPONENT_COUNT>
1
> <PUBCHEM_CACTVS_TAUTO_COUNT>
-1
> <PUBCHEM_COORDINATE_TYPE>
1
5
255
> <PUBCHEM_BONDANNOTATIONS>
8  1  3
10  11  8
10  17  8
15  18  8
16  20  8
16  22  8
17  18  8
20  21  8
21  23  8
21  26  8
22  25  8
23  25  8
23  27  8
26  29  8
27  30  8
29  30  8
32  34  8
33  34  8
5  31  8
5  32  8
6  31  8
6  33  8
9  11  8
9  15  8
$$$$
