505367
  -OEChem-10302200282D
128128  0     1  0  0  0  0  0999 V2000
    9.7942   -2.9050    0.0000 O   0  0  0  0  0  0  0  0  0  0  0  0
    4.5981    6.0950    0.0000 O   0  0  0  0  0  0  0  0  0  0  0  0
    8.0622    5.0950    0.0000 O   0  0  0  0  0  0  0  0  0  0  0  0
   13.2583   -3.9050    0.0000 O   0  0  0  0  0  0  0  0  0  0  0  0
    5.4641    9.5950    0.0000 O   0  0  0  0  0  0  0  0  0  0  0  0
   10.6603    0.5950    0.0000 O   0  0  0  0  0  0  0  0  0  0  0  0
    7.1962    1.5950    0.0000 O   0  0  0  0  0  0  0  0  0  0  0  0
    6.3301   -0.9050    0.0000 O   0  0  0  0  0  0  0  0  0  0  0  0
    3.7320    3.5950    0.0000 O   0  0  0  0  0  0  0  0  0  0  0  0
    7.1962   -2.4050    0.0000 O   0  0  0  0  0  0  0  0  0  0  0  0
   14.1244   -4.4050    0.0000 O   0  0  0  0  0  0  0  0  0  0  0  0
    4.5981    2.0950    0.0000 O   0  0  0  0  0  0  0  0  0  0  0  0
   11.5263   -9.9050    0.0000 O   0  0  0  0  0  0  0  0  0  0  0  0
   11.5263   -3.9050    0.0000 N   0  0  0  0  0  0  0  0  0  0  0  0
    5.4641    7.5950    0.0000 N   0  0  0  0  0  0  0  0  0  0  0  0
    6.3301    5.0950    0.0000 N   0  0  0  0  0  0  0  0  0  0  0  0
   10.6603   -1.4050    0.0000 N   0  0  0  0  0  0  0  0  0  0  0  0
    8.0622    3.0950    0.0000 N   0  0  0  0  0  0  0  0  0  0  0  0
    8.9282    0.5950    0.0000 N   0  0  0  0  0  0  0  0  0  0  0  0
   13.2583   -5.9050    0.0000 N   0  0  0  0  0  0  0  0  0  0  0  0
    3.7320    9.5950    0.0000 N   0  0  0  0  0  0  0  0  0  0  0  0
   15.8564   -5.4050    0.0000 N   0  0  0  0  0  0  0  0  0  0  0  0
   12.3923   -2.4050    0.0000 C   0  0  2  0  0  0  0  0  0  0  0  0
   11.5263   -2.9050    0.0000 C   0  0  1  0  0  0  0  0  0  0  0  0
    6.3301    6.0950    0.0000 C   0  0  1  0  0  0  0  0  0  0  0  0
    3.7320    7.5950    0.0000 C   0  0  2  0  0  0  0  0  0  0  0  0
    4.5981    8.0950    0.0000 C   0  0  1  0  0  0  0  0  0  0  0  0
    7.1962    6.5950    0.0000 C   0  0  0  0  0  0  0  0  0  0  0  0
   12.3923   -1.4050    0.0000 C   0  0  0  0  0  0  0  0  0  0  0  0
   10.6603   -2.4050    0.0000 C   0  0  0  0  0  0  0  0  0  0  0  0
   13.2583   -2.9050    0.0000 C   0  0  0  0  0  0  0  0  0  0  0  0
    9.7942   -0.9050    0.0000 C   0  0  1  0  0  0  0  0  0  0  0  0
    5.4641    6.5950    0.0000 C   0  0  0  0  0  0  0  0  0  0  0  0
    2.8660    8.0950    0.0000 C   0  0  0  0  0  0  0  0  0  0  0  0
    7.1962    3.5950    0.0000 C   0  0  2  0  0  0  0  0  0  0  0  0
    3.7320    6.5950    0.0000 C   0  0  0  0  0  0  0  0  0  0  0  0
    8.9282   -1.4050    0.0000 C   0  0  0  0  0  0  0  0  0  0  0  0
    7.1962    7.5950    0.0000 C   0  0  0  0  0  0  0  0  0  0  0  0
    8.0622    6.0950    0.0000 C   0  0  0  0  0  0  0  0  0  0  0  0
    7.1962    4.5950    0.0000 C   0  0  0  0  0  0  0  0  0  0  0  0
   12.3923   -5.4050    0.0000 C   0  0  2  0  0  0  0  0  0  0  0  0
   13.2583   -0.9050    0.0000 C   0  0  0  0  0  0  0  0  0  0  0  0
   12.3923   -4.4050    0.0000 C   0  0  0  0  0  0  0  0  0  0  0  0
    6.3301    3.0950    0.0000 C   0  0  0  0  0  0  0  0  0  0  0  0
    4.5981    9.0950    0.0000 C   0  0  0  0  0  0  0  0  0  0  0  0
    9.7942    0.0950    0.0000 C   0  0  0  0  0  0  0  0  0  0  0  0
    8.9282    1.5950    0.0000 C   0  0  2  0  0  0  0  0  0  0  0  0
    2.0000    7.5950    0.0000 C   0  0  0  0  0  0  0  0  0  0  0  0
   11.5263   -5.9050    0.0000 C   0  0  0  0  0  0  0  0  0  0  0  0
    8.0622    2.0950    0.0000 C   0  0  0  0  0  0  0  0  0  0  0  0
    8.0622   -0.9050    0.0000 C   0  0  0  0  0  0  0  0  0  0  0  0
    5.4641    3.5950    0.0000 C   0  0  0  0  0  0  0  0  0  0  0  0
    9.7942    2.0950    0.0000 C   0  0  0  0  0  0  0  0  0  0  0  0
   11.5263   -6.9050    0.0000 C   0  0  0  0  0  0  0  0  0  0  0  0
    7.1962   -1.4050    0.0000 C   0  0  0  0  0  0  0  0  0  0  0  0
   14.1244   -5.4050    0.0000 C   0  0  0  0  0  0  0  0  0  0  0  0
    4.5981    3.0950    0.0000 C   0  0  0  0  0  0  0  0  0  0  0  0
   12.3923   -7.4050    0.0000 C   0  0  0  0  0  0  0  0  0  0  0  0
   10.6603   -7.4050    0.0000 C   0  0  0  0  0  0  0  0  0  0  0  0
   14.9904   -5.9050    0.0000 C   0  0  0  0  0  0  0  0  0  0  0  0
   12.3923   -8.4050    0.0000 C   0  0  0  0  0  0  0  0  0  0  0  0
   10.6603   -8.4050    0.0000 C   0  0  0  0  0  0  0  0  0  0  0  0
   11.5263   -8.9050    0.0000 C   0  0  0  0  0  0  0  0  0  0  0  0
   12.3923   -3.0250    0.0000 H   0  0  0  0  0  0  0  0  0  0  0  0
   10.9893   -3.2150    0.0000 H   0  0  0  0  0  0  0  0  0  0  0  0
    6.8671    5.7850    0.0000 H   0  0  0  0  0  0  0  0  0  0  0  0
    4.2690    7.2850    0.0000 H   0  0  0  0  0  0  0  0  0  0  0  0
    5.1350    8.4050    0.0000 H   0  0  0  0  0  0  0  0  0  0  0  0
    6.6592    6.9050    0.0000 H   0  0  0  0  0  0  0  0  0  0  0  0
   12.1803   -0.8224    0.0000 H   0  0  0  0  0  0  0  0  0  0  0  0
   11.7817   -1.5127    0.0000 H   0  0  0  0  0  0  0  0  0  0  0  0
   12.9483   -3.4419    0.0000 H   0  0  0  0  0  0  0  0  0  0  0  0
   13.7953   -3.2150    0.0000 H   0  0  0  0  0  0  0  0  0  0  0  0
   13.5683   -2.3681    0.0000 H   0  0  0  0  0  0  0  0  0  0  0  0
    9.7942   -1.5250    0.0000 H   0  0  0  0  0  0  0  0  0  0  0  0
   10.9893   -4.2150    0.0000 H   0  0  0  0  0  0  0  0  0  0  0  0
    3.2646    8.5700    0.0000 H   0  0  0  0  0  0  0  0  0  0  0  0
    2.4675    8.5700    0.0000 H   0  0  0  0  0  0  0  0  0  0  0  0
    6.0010    7.9050    0.0000 H   0  0  0  0  0  0  0  0  0  0  0  0
    5.7932    4.7850    0.0000 H   0  0  0  0  0  0  0  0  0  0  0  0
    7.7331    3.9050    0.0000 H   0  0  0  0  0  0  0  0  0  0  0  0
   11.1972   -1.0950    0.0000 H   0  0  0  0  0  0  0  0  0  0  0  0
    3.1120    6.5950    0.0000 H   0  0  0  0  0  0  0  0  0  0  0  0
    3.7320    5.9750    0.0000 H   0  0  0  0  0  0  0  0  0  0  0  0
    4.3520    6.5950    0.0000 H   0  0  0  0  0  0  0  0  0  0  0  0
    8.5297   -1.8800    0.0000 H   0  0  0  0  0  0  0  0  0  0  0  0
    9.3267   -1.8800    0.0000 H   0  0  0  0  0  0  0  0  0  0  0  0
    7.8162    7.5950    0.0000 H   0  0  0  0  0  0  0  0  0  0  0  0
    7.1962    8.2150    0.0000 H   0  0  0  0  0  0  0  0  0  0  0  0
    6.5762    7.5950    0.0000 H   0  0  0  0  0  0  0  0  0  0  0  0
    7.7522    5.5581    0.0000 H   0  0  0  0  0  0  0  0  0  0  0  0
    8.5991    5.7850    0.0000 H   0  0  0  0  0  0  0  0  0  0  0  0
    8.3722    6.6319    0.0000 H   0  0  0  0  0  0  0  0  0  0  0  0
   12.3923   -6.0250    0.0000 H   0  0  0  0  0  0  0  0  0  0  0  0
   13.5683   -1.4419    0.0000 H   0  0  0  0  0  0  0  0  0  0  0  0
   13.7953   -0.5950    0.0000 H   0  0  0  0  0  0  0  0  0  0  0  0
   12.9483   -0.3681    0.0000 H   0  0  0  0  0  0  0  0  0  0  0  0
    5.9316    2.6200    0.0000 H   0  0  0  0  0  0  0  0  0  0  0  0
    6.7287    2.6200    0.0000 H   0  0  0  0  0  0  0  0  0  0  0  0
    9.4651    1.2850    0.0000 H   0  0  0  0  0  0  0  0  0  0  0  0
    8.5991    3.4050    0.0000 H   0  0  0  0  0  0  0  0  0  0  0  0
    1.6900    8.1319    0.0000 H   0  0  0  0  0  0  0  0  0  0  0  0
    1.4631    7.2850    0.0000 H   0  0  0  0  0  0  0  0  0  0  0  0
    2.3100    7.0581    0.0000 H   0  0  0  0  0  0  0  0  0  0  0  0
   11.3142   -5.3224    0.0000 H   0  0  0  0  0  0  0  0  0  0  0  0
   10.9157   -6.0127    0.0000 H   0  0  0  0  0  0  0  0  0  0  0  0
    8.3913    0.2850    0.0000 H   0  0  0  0  0  0  0  0  0  0  0  0
    8.4607   -0.4301    0.0000 H   0  0  0  0  0  0  0  0  0  0  0  0
    7.6636   -0.4301    0.0000 H   0  0  0  0  0  0  0  0  0  0  0  0
    5.8626    4.0700    0.0000 H   0  0  0  0  0  0  0  0  0  0  0  0
    5.0656    4.0700    0.0000 H   0  0  0  0  0  0  0  0  0  0  0  0
   13.2583   -6.5250    0.0000 H   0  0  0  0  0  0  0  0  0  0  0  0
   10.1042    1.5581    0.0000 H   0  0  0  0  0  0  0  0  0  0  0  0
   10.3312    2.4050    0.0000 H   0  0  0  0  0  0  0  0  0  0  0  0
    9.4842    2.6319    0.0000 H   0  0  0  0  0  0  0  0  0  0  0  0
    3.7320   10.2150    0.0000 H   0  0  0  0  0  0  0  0  0  0  0  0
    3.1951    9.2850    0.0000 H   0  0  0  0  0  0  0  0  0  0  0  0
   12.9292   -7.0950    0.0000 H   0  0  0  0  0  0  0  0  0  0  0  0
   10.1233   -7.0950    0.0000 H   0  0  0  0  0  0  0  0  0  0  0  0
   14.5919   -6.3800    0.0000 H   0  0  0  0  0  0  0  0  0  0  0  0
   15.3889   -6.3800    0.0000 H   0  0  0  0  0  0  0  0  0  0  0  0
   12.9292   -8.7150    0.0000 H   0  0  0  0  0  0  0  0  0  0  0  0
   10.1233   -8.7150    0.0000 H   0  0  0  0  0  0  0  0  0  0  0  0
    5.7932   -1.2150    0.0000 H   0  0  0  0  0  0  0  0  0  0  0  0
    3.1951    3.2850    0.0000 H   0  0  0  0  0  0  0  0  0  0  0  0
   16.3933   -5.7150    0.0000 H   0  0  0  0  0  0  0  0  0  0  0  0
   15.8564   -4.7850    0.0000 H   0  0  0  0  0  0  0  0  0  0  0  0
   10.9893  -10.2150    0.0000 H   0  0  0  0  0  0  0  0  0  0  0  0
  1 30  2  0  0  0  0
  2 33  2  0  0  0  0
  3 40  2  0  0  0  0
  4 43  2  0  0  0  0
  5 45  2  0  0  0  0
  6 46  2  0  0  0  0
  7 50  2  0  0  0  0
  8 55  1  0  0  0  0
  8124  1  0  0  0  0
  9 57  1  0  0  0  0
  9125  1  0  0  0  0
 10 55  2  0  0  0  0
 11 56  2  0  0  0  0
 12 57  2  0  0  0  0
 13 63  1  0  0  0  0
 13128  1  0  0  0  0
 24 14  1  6  0  0  0
 14 43  1  0  0  0  0
 14 76  1  0  0  0  0
 27 15  1  1  0  0  0
 15 33  1  0  0  0  0
 15 79  1  0  0  0  0
 25 16  1  6  0  0  0
 16 40  1  0  0  0  0
 16 80  1  0  0  0  0
 17 30  1  0  0  0  0
 32 17  1  1  0  0  0
 17 82  1  0  0  0  0
 35 18  1  1  0  0  0
 18 50  1  0  0  0  0
 18101  1  0  0  0  0
 19 46  1  0  0  0  0
 47 19  1  6  0  0  0
 19107  1  0  0  0  0
 41 20  1  1  0  0  0
 20 56  1  0  0  0  0
 20112  1  0  0  0  0
 21 45  1  0  0  0  0
 21116  1  0  0  0  0
 21117  1  0  0  0  0
 22 60  1  0  0  0  0
 22126  1  0  0  0  0
 22127  1  0  0  0  0
 23 24  1  0  0  0  0
 23 29  1  0  0  0  0
 23 31  1  6  0  0  0
 23 64  1  0  0  0  0
 24 30  1  0  0  0  0
 24 65  1  0  0  0  0
 25 28  1  0  0  0  0
 25 33  1  0  0  0  0
 25 66  1  0  0  0  0
 26 27  1  0  0  0  0
 26 34  1  0  0  0  0
 26 36  1  1  0  0  0
 26 67  1  0  0  0  0
 27 45  1  0  0  0  0
 27 68  1  0  0  0  0
 28 38  1  0  0  0  0
 28 39  1  0  0  0  0
 28 69  1  0  0  0  0
 29 42  1  0  0  0  0
 29 70  1  0  0  0  0
 29 71  1  0  0  0  0
 31 72  1  0  0  0  0
 31 73  1  0  0  0  0
 31 74  1  0  0  0  0
 32 37  1  0  0  0  0
 32 46  1  0  0  0  0
 32 75  1  0  0  0  0
 34 48  1  0  0  0  0
 34 77  1  0  0  0  0
 34 78  1  0  0  0  0
 35 40  1  0  0  0  0
 35 44  1  0  0  0  0
 35 81  1  0  0  0  0
 36 83  1  0  0  0  0
 36 84  1  0  0  0  0
 36 85  1  0  0  0  0
 37 51  1  0  0  0  0
 37 86  1  0  0  0  0
 37 87  1  0  0  0  0
 38 88  1  0  0  0  0
 38 89  1  0  0  0  0
 38 90  1  0  0  0  0
 39 91  1  0  0  0  0
 39 92  1  0  0  0  0
 39 93  1  0  0  0  0
 41 43  1  0  0  0  0
 41 49  1  0  0  0  0
 41 94  1  0  0  0  0
 42 95  1  0  0  0  0
 42 96  1  0  0  0  0
 42 97  1  0  0  0  0
 44 52  1  0  0  0  0
 44 98  1  0  0  0  0
 44 99  1  0  0  0  0
 47 50  1  0  0  0  0
 47 53  1  0  0  0  0
 47100  1  0  0  0  0
 48102  1  0  0  0  0
 48103  1  0  0  0  0
 48104  1  0  0  0  0
 49 54  1  0  0  0  0
 49105  1  0  0  0  0
 49106  1  0  0  0  0
 51 55  1  0  0  0  0
 51108  1  0  0  0  0
 51109  1  0  0  0  0
 52 57  1  0  0  0  0
 52110  1  0  0  0  0
 52111  1  0  0  0  0
 53113  1  0  0  0  0
 53114  1  0  0  0  0
 53115  1  0  0  0  0
 54 58  2  0  0  0  0
 54 59  1  0  0  0  0
 56 60  1  0  0  0  0
 58 61  1  0  0  0  0
 58118  1  0  0  0  0
 59 62  2  0  0  0  0
 59119  1  0  0  0  0
 60120  1  0  0  0  0
 60121  1  0  0  0  0
 61 63  2  0  0  0  0
 61122  1  0  0  0  0
 62 63  1  0  0  0  0
 62123  1  0  0  0  0
M  END
> <PUBCHEM_COMPOUND_CID>
505367
> <PUBCHEM_COMPOUND_CANONICALIZED>
1
> <PUBCHEM_CACTVS_COMPLEXITY>
1600
> <PUBCHEM_CACTVS_HBOND_ACCEPTOR>
14
> <PUBCHEM_CACTVS_HBOND_DONOR>
12
> <PUBCHEM_CACTVS_ROTATABLE_BOND>
28
> <PUBCHEM_CACTVS_SUBSKEYS>
AAADcfB//AAAAAAAAAAAAAAAAAAAAAAAAAAwAAAAAAAAAAABAAAAHgAQCAAADSzBmAQyDoLAAgCIAiHSGAACAAAgIAAIiIGOCIgIZjKCkTOUcAAk1hGImAe836KOIAAAAAAAAABAAAAAAAAAAAAAAAAAAA==
> <PUBCHEM_IUPAC_OPENEYE_NAME>
(4S)-4-[[(2S)-2-[[(2S)-2-[[(2S,3S)-2-[[(2S)-2-[(2-aminoacetyl)amino]-3-(4-hydroxyphenyl)propanoyl]amino]-3-methyl-pentanoyl]amino]-4-carboxy-butanoyl]amino]propanoyl]amino]-5-[[(1S)-1-[[(1S,2S)-1-carbamoyl-2-methyl-butyl]carbamoyl]-2-methyl-propyl]amino]-5-oxo-pentanoic acid
> <PUBCHEM_IUPAC_CAS_NAME>
(4S)-5-[[(2S)-1-[[(2S,3S)-1-amino-3-methyl-1-oxopentan-2-yl]amino]-3-methyl-1-oxobutan-2-yl]amino]-4-[[(2S)-2-[[(2S)-2-[[(2S,3S)-2-[[(2S)-2-[(2-amino-1-oxoethyl)amino]-3-(4-hydroxyphenyl)-1-oxopropyl]amino]-3-methyl-1-oxopentyl]amino]-4-carboxy-1-oxobutyl]amino]-1-oxopropyl]amino]-5-oxopentanoic acid
> <PUBCHEM_IUPAC_NAME_MARKUP>
(4<I>S</I>)-4-[[(2<I>S</I>)-2-[[(2<I>S</I>)-2-[[(2<I>S</I>,3<I>S</I>)-2-[[(2<I>S</I>)-2-[(2-aminoacetyl)amino]-3-(4-hydroxyphenyl)propanoyl]amino]-3-methylpentanoyl]amino]-4-carboxybutanoyl]amino]propanoyl]amino]-5-[[(2<I>S</I>)-1-[[(2<I>S</I>,3<I>S</I>)-1-amino-3-methyl-1-oxopentan-2-yl]amino]-3-methyl-1-oxobutan-2-yl]amino]-5-oxopentanoic acid
> <PUBCHEM_IUPAC_NAME>
(4S)-4-[[(2S)-2-[[(2S)-2-[[(2S,3S)-2-[[(2S)-2-[(2-aminoacetyl)amino]-3-(4-hydroxyphenyl)propanoyl]amino]-3-methylpentanoyl]amino]-4-carboxybutanoyl]amino]propanoyl]amino]-5-[[(2S)-1-[[(2S,3S)-1-amino-3-methyl-1-oxopentan-2-yl]amino]-3-methyl-1-oxobutan-2-yl]amino]-5-oxopentanoic acid
> <PUBCHEM_IUPAC_SYSTEMATIC_NAME>
(4S)-4-[[(2S)-2-[[(2S)-2-[[(2S,3S)-2-[[(2S)-2-(2-azanylethanoylamino)-3-(4-hydroxyphenyl)propanoyl]amino]-3-methyl-pentanoyl]amino]-5-oxidanyl-5-oxidanylidene-pentanoyl]amino]propanoyl]amino]-5-[[(2S)-1-[[(2S,3S)-1-azanyl-3-methyl-1-oxidanylidene-pentan-2-yl]amino]-3-methyl-1-oxidanylidene-butan-2-yl]amino]-5-oxidanylidene-pentanoic acid
> <PUBCHEM_IUPAC_TRADITIONAL_NAME>
(4S)-5-[[(1S)-1-[[(1S,2S)-1-carbamoyl-2-methyl-butyl]carbamoyl]-2-methyl-propyl]amino]-4-[[(2S)-2-[[(2S)-4-carboxy-2-[[(2S,3S)-2-[[(2S)-2-(glycylamino)-3-(4-hydroxyphenyl)propanoyl]amino]-3-methyl-pentanoyl]amino]butanoyl]amino]propanoyl]amino]-5-keto-valeric acid
> <PUBCHEM_IUPAC_INCHI>
InChI=1S/C41H65N9O13/c1-8-21(5)33(35(43)57)49-40(62)32(20(3)4)48-38(60)27(15-17-31(55)56)46-36(58)23(7)44-37(59)26(14-16-30(53)54)47-41(63)34(22(6)9-2)50-39(61)28(45-29(52)19-42)18-24-10-12-25(51)13-11-24/h10-13,20-23,26-28,32-34,51H,8-9,14-19,42H2,1-7H3,(H2,43,57)(H,44,59)(H,45,52)(H,46,58)(H,47,63)(H,48,60)(H,49,62)(H,50,61)(H,53,54)(H,55,56)/t21-,22-,23-,26-,27-,28-,32-,33-,34-/m0/s1
> <PUBCHEM_IUPAC_INCHIKEY>
ILNCVKSHMYTQEH-PYMGQYDHSA-N
> <PUBCHEM_XLOGP3_AA>
-2
> <PUBCHEM_EXACT_MASS>
891.47018316
> <PUBCHEM_MOLECULAR_FORMULA>
C41H65N9O13
> <PUBCHEM_MOLECULAR_WEIGHT>
892.0
> <PUBCHEM_OPENEYE_CAN_SMILES>
CCC(C)C(C(=O)N)NC(=O)C(C(C)C)NC(=O)C(CCC(=O)O)NC(=O)C(C)NC(=O)C(CCC(=O)O)NC(=O)C(C(C)CC)NC(=O)C(CC1=CC=C(C=C1)O)NC(=O)CN
> <PUBCHEM_OPENEYE_ISO_SMILES>
CC[C@H](C)[C@@H](C(=O)N)NC(=O)[C@H](C(C)C)NC(=O)[C@H](CCC(=O)O)NC(=O)[C@H](C)NC(=O)[C@H](CCC(=O)O)NC(=O)[C@H]([C@@H](C)CC)NC(=O)[C@H](CC1=CC=C(C=C1)O)NC(=O)CN
> <PUBCHEM_CACTVS_TPSA>
368
> <PUBCHEM_MONOISOTOPIC_WEIGHT>
891.47018316
> <PUBCHEM_TOTAL_CHARGE>
0
> <PUBCHEM_HEAVY_ATOM_COUNT>
63
> <PUBCHEM_ATOM_DEF_STEREO_COUNT>
9
> <PUBCHEM_ATOM_UDEF_STEREO_COUNT>
0
> <PUBCHEM_BOND_DEF_STEREO_COUNT>
0
> <PUBCHEM_BOND_UDEF_STEREO_COUNT>
0
> <PUBCHEM_ISOTOPIC_ATOM_COUNT>
0
> <PUBCHEM_COMPONENT_COUNT>
1
> <PUBCHEM_CACTVS_TAUTO_COUNT>
-1
> <PUBCHEM_COORDINATE_TYPE>
1
5
255
> <PUBCHEM_BONDANNOTATIONS>
24  14  6
27  15  5
25  16  6
32  17  5
35  18  5
47  19  6
41  20  5
23  31  6
26  36  5
54  58  8
54  59  8
58  61  8
59  62  8
61  63  8
62  63  8
$$$$
