505363
  -OEChem-10302200282D
183183  0     1  0  0  0  0  0999 V2000
   11.1972   -4.9050    0.0000 O   0  0  0  0  0  0  0  0  0  0  0  0
   10.3312   -2.4050    0.0000 O   0  0  0  0  0  0  0  0  0  0  0  0
   11.1972    1.0950    0.0000 O   0  0  0  0  0  0  0  0  0  0  0  0
   13.7953   -3.4050    0.0000 O   0  0  0  0  0  0  0  0  0  0  0  0
   12.9292   -6.9050    0.0000 O   0  0  0  0  0  0  0  0  0  0  0  0
    8.5991    5.5950    0.0000 O   0  0  0  0  0  0  0  0  0  0  0  0
    7.7331    2.0950    0.0000 O   0  0  0  0  0  0  0  0  0  0  0  0
    5.1350    6.5950    0.0000 O   0  0  0  0  0  0  0  0  0  0  0  0
   16.3933   -7.9050    0.0000 O   0  0  0  0  0  0  0  0  0  0  0  0
    6.0010   10.0950    0.0000 O   0  0  0  0  0  0  0  0  0  0  0  0
   10.3312    4.3270    0.0000 O   0  0  0  0  0  0  0  0  0  0  0  0
    9.4651    8.0950    0.0000 O   0  0  0  0  0  0  0  0  0  0  0  0
   17.2594   -8.4050    0.0000 O   0  0  0  0  0  0  0  0  0  0  0  0
    2.5369   11.0950    0.0000 O   0  0  0  0  0  0  0  0  0  0  0  0
   11.1972   -0.9050    0.0000 N   0  0  0  0  0  0  0  0  0  0  0  0
   12.0632   -3.4050    0.0000 N   0  0  0  0  0  0  0  0  0  0  0  0
   13.7953   -5.4050    0.0000 N   0  0  0  0  0  0  0  0  0  0  0  0
    9.4651    1.0950    0.0000 N   0  0  0  0  0  0  0  0  0  0  0  0
    8.5991    3.5950    0.0000 N   0  0  0  0  0  0  0  0  0  0  0  0
   14.6613   -7.9050    0.0000 N   0  0  0  0  0  0  0  0  0  0  0  0
    6.8671    5.5950    0.0000 N   0  0  0  0  0  0  0  0  0  0  0  0
    6.0010    8.0950    0.0000 N   0  0  0  0  0  0  0  0  0  0  0  0
    4.2690   10.0950    0.0000 N   0  0  0  0  0  0  0  0  0  0  0  0
   16.3933   -9.9050    0.0000 N   0  0  0  0  0  0  0  0  0  0  0  0
    6.0010   -0.9050    0.0000 N   0  0  0  0  0  0  0  0  0  0  0  0
   13.7953    0.5950    0.0000 N   0  0  0  0  0  0  0  0  0  0  0  0
    4.2690    4.0950    0.0000 N   0  0  0  0  0  0  0  0  0  0  0  0
   11.8312    3.4610    0.0000 N   0  0  0  0  0  0  0  0  0  0  0  0
    8.5991    9.5950    0.0000 N   0  0  0  0  0  0  0  0  0  0  0  0
    3.4030   12.5950    0.0000 N   0  0  0  0  0  0  0  0  0  0  0  0
   14.6613    2.0950    0.0000 N   0  0  0  0  0  0  0  0  0  0  0  0
   15.5273    0.5950    0.0000 N   0  0  0  0  0  0  0  0  0  0  0  0
    2.5369    4.0950    0.0000 N   0  0  0  0  0  0  0  0  0  0  0  0
    3.4030    2.5950    0.0000 N   0  0  0  0  0  0  0  0  0  0  0  0
   10.3312   -0.4050    0.0000 C   0  0  1  0  0  0  0  0  0  0  0  0
   12.0632   -2.4050    0.0000 C   0  0  1  0  0  0  0  0  0  0  0  0
    9.4651   -0.9050    0.0000 C   0  0  0  0  0  0  0  0  0  0  0  0
   14.6613   -6.9050    0.0000 C   0  0  1  0  0  0  0  0  0  0  0  0
   12.9292   -4.9050    0.0000 C   0  0  1  0  0  0  0  0  0  0  0  0
   12.9292   -1.9050    0.0000 C   0  0  0  0  0  0  0  0  0  0  0  0
   15.5273   -6.4050    0.0000 C   0  0  0  0  0  0  0  0  0  0  0  0
    8.5991   -0.4050    0.0000 C   0  0  0  0  0  0  0  0  0  0  0  0
    7.7331    4.0950    0.0000 C   0  0  1  0  0  0  0  0  0  0  0  0
   11.1972   -1.9050    0.0000 C   0  0  0  0  0  0  0  0  0  0  0  0
    9.4651    2.0950    0.0000 C   0  0  2  0  0  0  0  0  0  0  0  0
    6.8671    6.5950    0.0000 C   0  0  1  0  0  0  0  0  0  0  0  0
   10.3312    0.5950    0.0000 C   0  0  0  0  0  0  0  0  0  0  0  0
    5.1350    8.5950    0.0000 C   0  0  1  0  0  0  0  0  0  0  0  0
   12.0632   -5.4050    0.0000 C   0  0  1  0  0  0  0  0  0  0  0  0
   12.9292   -3.9050    0.0000 C   0  0  0  0  0  0  0  0  0  0  0  0
   13.7953   -6.4050    0.0000 C   0  0  0  0  0  0  0  0  0  0  0  0
    6.8671    3.5950    0.0000 C   0  0  0  0  0  0  0  0  0  0  0  0
   12.9292   -0.9050    0.0000 C   0  0  0  0  0  0  0  0  0  0  0  0
    4.2690    8.0950    0.0000 C   0  0  0  0  0  0  0  0  0  0  0  0
    7.7331   -0.9050    0.0000 C   0  0  0  0  0  0  0  0  0  0  0  0
    7.7331    7.0950    0.0000 C   0  0  0  0  0  0  0  0  0  0  0  0
    7.7331    5.0950    0.0000 C   0  0  0  0  0  0  0  0  0  0  0  0
    8.5991    2.5950    0.0000 C   0  0  0  0  0  0  0  0  0  0  0  0
    6.0010    7.0950    0.0000 C   0  0  0  0  0  0  0  0  0  0  0  0
   15.5273   -5.4050    0.0000 C   0  0  0  0  0  0  0  0  0  0  0  0
   16.3933   -6.9050    0.0000 C   0  0  0  0  0  0  0  0  0  0  0  0
    6.0010    4.0950    0.0000 C   0  0  0  0  0  0  0  0  0  0  0  0
   10.3312    2.5950    0.0000 C   0  0  0  0  0  0  0  0  0  0  0  0
   15.5273   -9.4050    0.0000 C   0  0  2  0  0  0  0  0  0  0  0  0
   13.7953   -0.4050    0.0000 C   0  0  0  0  0  0  0  0  0  0  0  0
   15.5273   -8.4050    0.0000 C   0  0  0  0  0  0  0  0  0  0  0  0
    6.8671   -0.4050    0.0000 C   0  0  0  0  0  0  0  0  0  0  0  0
   12.0632   -6.4050    0.0000 C   0  0  0  0  0  0  0  0  0  0  0  0
    5.1350    9.5950    0.0000 C   0  0  0  0  0  0  0  0  0  0  0  0
    7.7331    8.0950    0.0000 C   0  0  0  0  0  0  0  0  0  0  0  0
    3.4030    8.5950    0.0000 C   0  0  0  0  0  0  0  0  0  0  0  0
    4.2690    7.0950    0.0000 C   0  0  0  0  0  0  0  0  0  0  0  0
   14.6613   -9.9050    0.0000 C   0  0  0  0  0  0  0  0  0  0  0  0
    5.1350    3.5950    0.0000 C   0  0  0  0  0  0  0  0  0  0  0  0
   10.8312    3.4610    0.0000 C   0  0  0  0  0  0  0  0  0  0  0  0
    4.2690   11.0950    0.0000 C   0  0  1  0  0  0  0  0  0  0  0  0
   14.6613  -10.9050    0.0000 C   0  0  0  0  0  0  0  0  0  0  0  0
    8.5991    8.5950    0.0000 C   0  0  0  0  0  0  0  0  0  0  0  0
    5.1350   11.5950    0.0000 C   0  0  0  0  0  0  0  0  0  0  0  0
   17.2594   -9.4050    0.0000 C   0  0  0  0  0  0  0  0  0  0  0  0
   15.5273  -11.4050    0.0000 C   0  0  0  0  0  0  0  0  0  0  0  0
   13.7953  -11.4050    0.0000 C   0  0  0  0  0  0  0  0  0  0  0  0
    3.4030   11.5950    0.0000 C   0  0  0  0  0  0  0  0  0  0  0  0
   14.6613    1.0950    0.0000 C   0  0  0  0  0  0  0  0  0  0  0  0
    3.4030    3.5950    0.0000 C   0  0  0  0  0  0  0  0  0  0  0  0
   15.5273  -12.4050    0.0000 C   0  0  0  0  0  0  0  0  0  0  0  0
   13.7953  -12.4050    0.0000 C   0  0  0  0  0  0  0  0  0  0  0  0
   18.1254   -9.9050    0.0000 C   0  0  0  0  0  0  0  0  0  0  0  0
   14.6613  -12.9050    0.0000 C   0  0  0  0  0  0  0  0  0  0  0  0
   10.8681   -0.0950    0.0000 H   0  0  0  0  0  0  0  0  0  0  0  0
   12.6002   -2.7150    0.0000 H   0  0  0  0  0  0  0  0  0  0  0  0
    9.0666   -1.3800    0.0000 H   0  0  0  0  0  0  0  0  0  0  0  0
    9.8637   -1.3800    0.0000 H   0  0  0  0  0  0  0  0  0  0  0  0
   14.1244   -7.2150    0.0000 H   0  0  0  0  0  0  0  0  0  0  0  0
   12.9292   -5.5250    0.0000 H   0  0  0  0  0  0  0  0  0  0  0  0
   13.1413   -2.4876    0.0000 H   0  0  0  0  0  0  0  0  0  0  0  0
   13.5398   -1.7973    0.0000 H   0  0  0  0  0  0  0  0  0  0  0  0
   15.5273   -7.0250    0.0000 H   0  0  0  0  0  0  0  0  0  0  0  0
    8.9976    0.0699    0.0000 H   0  0  0  0  0  0  0  0  0  0  0  0
    8.2006    0.0699    0.0000 H   0  0  0  0  0  0  0  0  0  0  0  0
    7.7331    3.4750    0.0000 H   0  0  0  0  0  0  0  0  0  0  0  0
   11.7341   -0.5950    0.0000 H   0  0  0  0  0  0  0  0  0  0  0  0
   10.0021    1.7850    0.0000 H   0  0  0  0  0  0  0  0  0  0  0  0
   11.5263   -3.7150    0.0000 H   0  0  0  0  0  0  0  0  0  0  0  0
    6.3301    6.2850    0.0000 H   0  0  0  0  0  0  0  0  0  0  0  0
    5.1350    7.9750    0.0000 H   0  0  0  0  0  0  0  0  0  0  0  0
   12.0632   -4.7850    0.0000 H   0  0  0  0  0  0  0  0  0  0  0  0
    6.4685    3.1200    0.0000 H   0  0  0  0  0  0  0  0  0  0  0  0
    7.2656    3.1200    0.0000 H   0  0  0  0  0  0  0  0  0  0  0  0
   14.3322   -5.0950    0.0000 H   0  0  0  0  0  0  0  0  0  0  0  0
   12.7172   -0.3224    0.0000 H   0  0  0  0  0  0  0  0  0  0  0  0
   12.3187   -1.0127    0.0000 H   0  0  0  0  0  0  0  0  0  0  0  0
    4.2690    8.7150    0.0000 H   0  0  0  0  0  0  0  0  0  0  0  0
    7.3346   -1.3800    0.0000 H   0  0  0  0  0  0  0  0  0  0  0  0
    8.1316   -1.3800    0.0000 H   0  0  0  0  0  0  0  0  0  0  0  0
    8.9282    0.7850    0.0000 H   0  0  0  0  0  0  0  0  0  0  0  0
    7.9451    6.5124    0.0000 H   0  0  0  0  0  0  0  0  0  0  0  0
    8.3437    7.2027    0.0000 H   0  0  0  0  0  0  0  0  0  0  0  0
    9.1360    3.9050    0.0000 H   0  0  0  0  0  0  0  0  0  0  0  0
   14.1244   -8.2150    0.0000 H   0  0  0  0  0  0  0  0  0  0  0  0
    6.3301    5.2850    0.0000 H   0  0  0  0  0  0  0  0  0  0  0  0
    6.5380    8.4050    0.0000 H   0  0  0  0  0  0  0  0  0  0  0  0
   16.1473   -5.4050    0.0000 H   0  0  0  0  0  0  0  0  0  0  0  0
   15.5273   -4.7850    0.0000 H   0  0  0  0  0  0  0  0  0  0  0  0
   14.9073   -5.4050    0.0000 H   0  0  0  0  0  0  0  0  0  0  0  0
   16.0833   -7.4419    0.0000 H   0  0  0  0  0  0  0  0  0  0  0  0
   16.9303   -7.2150    0.0000 H   0  0  0  0  0  0  0  0  0  0  0  0
   16.7033   -6.3681    0.0000 H   0  0  0  0  0  0  0  0  0  0  0  0
    6.3996    4.5700    0.0000 H   0  0  0  0  0  0  0  0  0  0  0  0
    5.6025    4.5700    0.0000 H   0  0  0  0  0  0  0  0  0  0  0  0
   10.4388    1.9844    0.0000 H   0  0  0  0  0  0  0  0  0  0  0  0
    9.8928    3.0334    0.0000 H   0  0  0  0  0  0  0  0  0  0  0  0
   15.5273  -10.0250    0.0000 H   0  0  0  0  0  0  0  0  0  0  0  0
   14.0073   -0.9876    0.0000 H   0  0  0  0  0  0  0  0  0  0  0  0
   14.4058   -0.2973    0.0000 H   0  0  0  0  0  0  0  0  0  0  0  0
    7.2656    0.0699    0.0000 H   0  0  0  0  0  0  0  0  0  0  0  0
    6.4685    0.0699    0.0000 H   0  0  0  0  0  0  0  0  0  0  0  0
   11.4432   -6.4050    0.0000 H   0  0  0  0  0  0  0  0  0  0  0  0
   12.0632   -7.0250    0.0000 H   0  0  0  0  0  0  0  0  0  0  0  0
   12.6832   -6.4050    0.0000 H   0  0  0  0  0  0  0  0  0  0  0  0
    7.5210    8.6776    0.0000 H   0  0  0  0  0  0  0  0  0  0  0  0
    7.1225    7.9873    0.0000 H   0  0  0  0  0  0  0  0  0  0  0  0
    3.7130    9.1319    0.0000 H   0  0  0  0  0  0  0  0  0  0  0  0
    2.8660    8.9050    0.0000 H   0  0  0  0  0  0  0  0  0  0  0  0
    3.0930    8.0581    0.0000 H   0  0  0  0  0  0  0  0  0  0  0  0
    3.6490    7.0950    0.0000 H   0  0  0  0  0  0  0  0  0  0  0  0
    4.2690    6.4750    0.0000 H   0  0  0  0  0  0  0  0  0  0  0  0
    4.8890    7.0950    0.0000 H   0  0  0  0  0  0  0  0  0  0  0  0
   14.4492   -9.3224    0.0000 H   0  0  0  0  0  0  0  0  0  0  0  0
   14.0507  -10.0127    0.0000 H   0  0  0  0  0  0  0  0  0  0  0  0
    4.7365    3.1200    0.0000 H   0  0  0  0  0  0  0  0  0  0  0  0
    5.5335    3.1200    0.0000 H   0  0  0  0  0  0  0  0  0  0  0  0
   10.6603   -5.2150    0.0000 H   0  0  0  0  0  0  0  0  0  0  0  0
    3.7320    9.7850    0.0000 H   0  0  0  0  0  0  0  0  0  0  0  0
   16.3933  -10.5250    0.0000 H   0  0  0  0  0  0  0  0  0  0  0  0
    4.8059   10.7850    0.0000 H   0  0  0  0  0  0  0  0  0  0  0  0
    5.4641   -0.5950    0.0000 H   0  0  0  0  0  0  0  0  0  0  0  0
    6.0010   -1.5250    0.0000 H   0  0  0  0  0  0  0  0  0  0  0  0
    5.4450   11.0581    0.0000 H   0  0  0  0  0  0  0  0  0  0  0  0
    5.6720   11.9050    0.0000 H   0  0  0  0  0  0  0  0  0  0  0  0
    4.8250   12.1319    0.0000 H   0  0  0  0  0  0  0  0  0  0  0  0
   16.0643  -11.0950    0.0000 H   0  0  0  0  0  0  0  0  0  0  0  0
   13.2583  -11.0950    0.0000 H   0  0  0  0  0  0  0  0  0  0  0  0
   12.1412    3.9980    0.0000 H   0  0  0  0  0  0  0  0  0  0  0  0
   12.1412    2.9241    0.0000 H   0  0  0  0  0  0  0  0  0  0  0  0
    9.1360    9.9050    0.0000 H   0  0  0  0  0  0  0  0  0  0  0  0
    8.0622    9.9050    0.0000 H   0  0  0  0  0  0  0  0  0  0  0  0
   16.0643  -12.7150    0.0000 H   0  0  0  0  0  0  0  0  0  0  0  0
   13.2583  -12.7150    0.0000 H   0  0  0  0  0  0  0  0  0  0  0  0
   17.8154  -10.4419    0.0000 H   0  0  0  0  0  0  0  0  0  0  0  0
   18.6623  -10.2150    0.0000 H   0  0  0  0  0  0  0  0  0  0  0  0
   18.4354   -9.3681    0.0000 H   0  0  0  0  0  0  0  0  0  0  0  0
   14.6613  -13.5250    0.0000 H   0  0  0  0  0  0  0  0  0  0  0  0
    2.8660   12.9050    0.0000 H   0  0  0  0  0  0  0  0  0  0  0  0
    3.9399   12.9050    0.0000 H   0  0  0  0  0  0  0  0  0  0  0  0
   15.1982    2.4050    0.0000 H   0  0  0  0  0  0  0  0  0  0  0  0
   14.1244    2.4050    0.0000 H   0  0  0  0  0  0  0  0  0  0  0  0
   16.0643    0.9050    0.0000 H   0  0  0  0  0  0  0  0  0  0  0  0
   15.5273   -0.0250    0.0000 H   0  0  0  0  0  0  0  0  0  0  0  0
    2.0000    3.7850    0.0000 H   0  0  0  0  0  0  0  0  0  0  0  0
    2.5369    4.7150    0.0000 H   0  0  0  0  0  0  0  0  0  0  0  0
    2.8660    2.2850    0.0000 H   0  0  0  0  0  0  0  0  0  0  0  0
    3.9399    2.2850    0.0000 H   0  0  0  0  0  0  0  0  0  0  0  0
 49  1  1  1  0  0  0
  1153  1  0  0  0  0
  2 44  2  0  0  0  0
  3 47  2  0  0  0  0
  4 50  2  0  0  0  0
  5 51  2  0  0  0  0
  6 57  2  0  0  0  0
  7 58  2  0  0  0  0
  8 59  2  0  0  0  0
  9 66  2  0  0  0  0
 10 69  2  0  0  0  0
 11 75  2  0  0  0  0
 12 78  2  0  0  0  0
 13 80  2  0  0  0  0
 14 83  2  0  0  0  0
 35 15  1  1  0  0  0
 15 44  1  0  0  0  0
 15102  1  0  0  0  0
 36 16  1  6  0  0  0
 16 50  1  0  0  0  0
 16104  1  0  0  0  0
 39 17  1  1  0  0  0
 17 51  1  0  0  0  0
 17110  1  0  0  0  0
 45 18  1  6  0  0  0
 18 47  1  0  0  0  0
 18116  1  0  0  0  0
 43 19  1  1  0  0  0
 19 58  1  0  0  0  0
 19119  1  0  0  0  0
 38 20  1  6  0  0  0
 20 66  1  0  0  0  0
 20120  1  0  0  0  0
 46 21  1  6  0  0  0
 21 57  1  0  0  0  0
 21121  1  0  0  0  0
 48 22  1  1  0  0  0
 22 59  1  0  0  0  0
 22122  1  0  0  0  0
 23 69  1  0  0  0  0
 76 23  1  6  0  0  0
 23154  1  0  0  0  0
 64 24  1  1  0  0  0
 24 80  1  0  0  0  0
 24155  1  0  0  0  0
 25 67  1  0  0  0  0
 25157  1  0  0  0  0
 25158  1  0  0  0  0
 26 65  1  0  0  0  0
 26 84  2  0  0  0  0
 27 74  1  0  0  0  0
 27 85  2  0  0  0  0
 28 75  1  0  0  0  0
 28164  1  0  0  0  0
 28165  1  0  0  0  0
 29 78  1  0  0  0  0
 29166  1  0  0  0  0
 29167  1  0  0  0  0
 30 83  1  0  0  0  0
 30174  1  0  0  0  0
 30175  1  0  0  0  0
 31 84  1  0  0  0  0
 31176  1  0  0  0  0
 31177  1  0  0  0  0
 32 84  1  0  0  0  0
 32178  1  0  0  0  0
 32179  1  0  0  0  0
 33 85  1  0  0  0  0
 33180  1  0  0  0  0
 33181  1  0  0  0  0
 34 85  1  0  0  0  0
 34182  1  0  0  0  0
 34183  1  0  0  0  0
 35 37  1  0  0  0  0
 35 47  1  0  0  0  0
 35 90  1  0  0  0  0
 36 40  1  0  0  0  0
 36 44  1  0  0  0  0
 36 91  1  0  0  0  0
 37 42  1  0  0  0  0
 37 92  1  0  0  0  0
 37 93  1  0  0  0  0
 38 41  1  0  0  0  0
 38 51  1  0  0  0  0
 38 94  1  0  0  0  0
 39 49  1  0  0  0  0
 39 50  1  0  0  0  0
 39 95  1  0  0  0  0
 40 53  1  0  0  0  0
 40 96  1  0  0  0  0
 40 97  1  0  0  0  0
 41 60  1  0  0  0  0
 41 61  1  0  0  0  0
 41 98  1  0  0  0  0
 42 55  1  0  0  0  0
 42 99  1  0  0  0  0
 42100  1  0  0  0  0
 43 52  1  0  0  0  0
 43 57  1  0  0  0  0
 43101  1  0  0  0  0
 45 58  1  0  0  0  0
 45 63  1  0  0  0  0
 45103  1  0  0  0  0
 46 56  1  0  0  0  0
 46 59  1  0  0  0  0
 46105  1  0  0  0  0
 48 54  1  0  0  0  0
 48 69  1  0  0  0  0
 48106  1  0  0  0  0
 49 68  1  0  0  0  0
 49107  1  0  0  0  0
 52 62  1  0  0  0  0
 52108  1  0  0  0  0
 52109  1  0  0  0  0
 53 65  1  0  0  0  0
 53111  1  0  0  0  0
 53112  1  0  0  0  0
 54 71  1  0  0  0  0
 54 72  1  0  0  0  0
 54113  1  0  0  0  0
 55 67  1  0  0  0  0
 55114  1  0  0  0  0
 55115  1  0  0  0  0
 56 70  1  0  0  0  0
 56117  1  0  0  0  0
 56118  1  0  0  0  0
 60123  1  0  0  0  0
 60124  1  0  0  0  0
 60125  1  0  0  0  0
 61126  1  0  0  0  0
 61127  1  0  0  0  0
 61128  1  0  0  0  0
 62 74  1  0  0  0  0
 62129  1  0  0  0  0
 62130  1  0  0  0  0
 63 75  1  0  0  0  0
 63131  1  0  0  0  0
 63132  1  0  0  0  0
 64 66  1  0  0  0  0
 64 73  1  0  0  0  0
 64133  1  0  0  0  0
 65134  1  0  0  0  0
 65135  1  0  0  0  0
 67136  1  0  0  0  0
 67137  1  0  0  0  0
 68138  1  0  0  0  0
 68139  1  0  0  0  0
 68140  1  0  0  0  0
 70 78  1  0  0  0  0
 70141  1  0  0  0  0
 70142  1  0  0  0  0
 71143  1  0  0  0  0
 71144  1  0  0  0  0
 71145  1  0  0  0  0
 72146  1  0  0  0  0
 72147  1  0  0  0  0
 72148  1  0  0  0  0
 73 77  1  0  0  0  0
 73149  1  0  0  0  0
 73150  1  0  0  0  0
 74151  1  0  0  0  0
 74152  1  0  0  0  0
 76 79  1  0  0  0  0
 76 83  1  0  0  0  0
 76156  1  0  0  0  0
 77 81  2  0  0  0  0
 77 82  1  0  0  0  0
 79159  1  0  0  0  0
 79160  1  0  0  0  0
 79161  1  0  0  0  0
 80 88  1  0  0  0  0
 81 86  1  0  0  0  0
 81162  1  0  0  0  0
 82 87  2  0  0  0  0
 82163  1  0  0  0  0
 86 89  2  0  0  0  0
 86168  1  0  0  0  0
 87 89  1  0  0  0  0
 87169  1  0  0  0  0
 88170  1  0  0  0  0
 88171  1  0  0  0  0
 88172  1  0  0  0  0
 89173  1  0  0  0  0
M  END
> <PUBCHEM_COMPOUND_CID>
505363
> <PUBCHEM_COMPOUND_CANONICALIZED>
1
> <PUBCHEM_CACTVS_COMPLEXITY>
2470
> <PUBCHEM_CACTVS_HBOND_ACCEPTOR>
17
> <PUBCHEM_CACTVS_HBOND_DONOR>
19
> <PUBCHEM_CACTVS_ROTATABLE_BOND>
42
> <PUBCHEM_CACTVS_SUBSKEYS>
AAADcfB//AAAAAAAAAAAAAAAAAAAAAAAAAAwAAAAAAAAAAABAAAAHgAQCAAADTzhmAYzAILAAgCoAiFSNAACAAEgAAAIiIGIAIgKcD6A0TGUYAAitgCYiAcdi4COAAAAAAAAAAAAAAAAAAAAAAAAAAAAAA==
> <PUBCHEM_IUPAC_OPENEYE_NAME>
(2S)-2-[[(2S)-2-[[(2S)-2-[[(2S)-2-[[(2S)-2-[[(2S,3R)-2-[[(2S)-2-[[(2S)-2-acetamido-3-phenyl-propanoyl]amino]-3-methyl-butanoyl]amino]-3-hydroxy-butanoyl]amino]-5-guanidino-pentanoyl]amino]-6-amino-hexanoyl]amino]-4-amino-4-oxo-butanoyl]amino]-5-guanidino-pentanoyl]amino]-N-[(1S)-1-[[(1S)-2-amino-1-methyl-2-oxo-ethyl]carbamoyl]-2-methyl-propyl]pentanediamide
> <PUBCHEM_IUPAC_CAS_NAME>
(2S)-2-[[(2S)-2-[[(2S)-2-[[(2S)-2-[[(2S)-2-[[(2S,3R)-2-[[(2S)-2-[[(2S)-2-acetamido-1-oxo-3-phenylpropyl]amino]-3-methyl-1-oxobutyl]amino]-3-hydroxy-1-oxobutyl]amino]-5-(diaminomethylideneamino)-1-oxopentyl]amino]-6-amino-1-oxohexyl]amino]-4-amino-1,4-dioxobutyl]amino]-5-(diaminomethylideneamino)-1-oxopentyl]amino]-N-[(2S)-1-[[(2S)-1-amino-1-oxopropan-2-yl]amino]-3-methyl-1-oxobutan-2-yl]pentanediamide
> <PUBCHEM_IUPAC_NAME_MARKUP>
(2<I>S</I>)-2-[[(2<I>S</I>)-2-[[(2<I>S</I>)-2-[[(2<I>S</I>)-2-[[(2<I>S</I>)-2-[[(2<I>S</I>,3<I>R</I>)-2-[[(2<I>S</I>)-2-[[(2<I>S</I>)-2-acetamido-3-phenylpropanoyl]amino]-3-methylbutanoyl]amino]-3-hydroxybutanoyl]amino]-5-(diaminomethylideneamino)pentanoyl]amino]-6-aminohexanoyl]amino]-4-amino-4-oxobutanoyl]amino]-5-(diaminomethylideneamino)pentanoyl]amino]-<I>N</I>-[(2<I>S</I>)-1-[[(2<I>S</I>)-1-amino-1-oxopropan-2-yl]amino]-3-methyl-1-oxobutan-2-yl]pentanediamide
> <PUBCHEM_IUPAC_NAME>
(2S)-2-[[(2S)-2-[[(2S)-2-[[(2S)-2-[[(2S)-2-[[(2S,3R)-2-[[(2S)-2-[[(2S)-2-acetamido-3-phenylpropanoyl]amino]-3-methylbutanoyl]amino]-3-hydroxybutanoyl]amino]-5-(diaminomethylideneamino)pentanoyl]amino]-6-aminohexanoyl]amino]-4-amino-4-oxobutanoyl]amino]-5-(diaminomethylideneamino)pentanoyl]amino]-N-[(2S)-1-[[(2S)-1-amino-1-oxopropan-2-yl]amino]-3-methyl-1-oxobutan-2-yl]pentanediamide
> <PUBCHEM_IUPAC_SYSTEMATIC_NAME>
(2S)-2-[[(2S)-2-[[(2S)-2-[[(2S)-2-[[(2S)-2-[[(2S,3R)-2-[[(2S)-2-[[(2S)-2-acetamido-3-phenyl-propanoyl]amino]-3-methyl-butanoyl]amino]-3-oxidanyl-butanoyl]amino]-5-[bis(azanyl)methylideneamino]pentanoyl]amino]-6-azanyl-hexanoyl]amino]-4-azanyl-4-oxidanylidene-butanoyl]amino]-5-[bis(azanyl)methylideneamino]pentanoyl]amino]-N-[(2S)-1-[[(2S)-1-azanyl-1-oxidanylidene-propan-2-yl]amino]-3-methyl-1-oxidanylidene-butan-2-yl]pentanediamide
> <PUBCHEM_IUPAC_TRADITIONAL_NAME>
(2S)-2-[[(2S)-2-[[(2S)-2-[[(2S)-2-[[(2S)-2-[[(2S,3R)-2-[[(2S)-2-[[(2S)-2-acetamido-3-phenyl-propanoyl]amino]-3-methyl-butanoyl]amino]-3-hydroxy-butanoyl]amino]-5-guanidino-pentanoyl]amino]-6-amino-hexanoyl]amino]-4-amino-4-keto-butanoyl]amino]-5-guanidino-pentanoyl]amino]-N-[(1S)-1-[[(1S)-2-amino-2-keto-1-methyl-ethyl]carbamoyl]-2-methyl-propyl]glutaramide
> <PUBCHEM_IUPAC_INCHI>
InChI=1S/C55H94N20O14/c1-27(2)41(51(87)66-29(5)44(59)80)73-48(84)36(20-21-39(57)78)70-45(81)34(18-13-23-64-54(60)61)69-49(85)38(26-40(58)79)72-47(83)33(17-11-12-22-56)68-46(82)35(19-14-24-65-55(62)63)71-53(89)43(30(6)76)75-52(88)42(28(3)4)74-50(86)37(67-31(7)77)25-32-15-9-8-10-16-32/h8-10,15-16,27-30,33-38,41-43,76H,11-14,17-26,56H2,1-7H3,(H2,57,78)(H2,58,79)(H2,59,80)(H,66,87)(H,67,77)(H,68,82)(H,69,85)(H,70,81)(H,71,89)(H,72,83)(H,73,84)(H,74,86)(H,75,88)(H4,60,61,64)(H4,62,63,65)/t29-,30+,33-,34-,35-,36-,37-,38-,41-,42-,43-/m0/s1
> <PUBCHEM_IUPAC_INCHIKEY>
HUKOCCFZUJUGPD-VGTVALJESA-N
> <PUBCHEM_XLOGP3_AA>
-5.8
> <PUBCHEM_EXACT_MASS>
1258.72583775
> <PUBCHEM_MOLECULAR_FORMULA>
C55H94N20O14
> <PUBCHEM_MOLECULAR_WEIGHT>
1259.5
> <PUBCHEM_OPENEYE_CAN_SMILES>
CC(C)C(C(=O)NC(C)C(=O)N)NC(=O)C(CCC(=O)N)NC(=O)C(CCCN=C(N)N)NC(=O)C(CC(=O)N)NC(=O)C(CCCCN)NC(=O)C(CCCN=C(N)N)NC(=O)C(C(C)O)NC(=O)C(C(C)C)NC(=O)C(CC1=CC=CC=C1)NC(=O)C
> <PUBCHEM_OPENEYE_ISO_SMILES>
C[C@H]([C@@H](C(=O)N[C@@H](CCCN=C(N)N)C(=O)N[C@@H](CCCCN)C(=O)N[C@@H](CC(=O)N)C(=O)N[C@@H](CCCN=C(N)N)C(=O)N[C@@H](CCC(=O)N)C(=O)N[C@@H](C(C)C)C(=O)N[C@@H](C)C(=O)N)NC(=O)[C@H](C(C)C)NC(=O)[C@H](CC1=CC=CC=C1)NC(=O)C)O
> <PUBCHEM_CACTVS_TPSA>
595
> <PUBCHEM_MONOISOTOPIC_WEIGHT>
1258.72583775
> <PUBCHEM_TOTAL_CHARGE>
0
> <PUBCHEM_HEAVY_ATOM_COUNT>
89
> <PUBCHEM_ATOM_DEF_STEREO_COUNT>
11
> <PUBCHEM_ATOM_UDEF_STEREO_COUNT>
0
> <PUBCHEM_BOND_DEF_STEREO_COUNT>
0
> <PUBCHEM_BOND_UDEF_STEREO_COUNT>
0
> <PUBCHEM_ISOTOPIC_ATOM_COUNT>
0
> <PUBCHEM_COMPONENT_COUNT>
1
> <PUBCHEM_CACTVS_TAUTO_COUNT>
-1
> <PUBCHEM_COORDINATE_TYPE>
1
5
255
> <PUBCHEM_BONDANNOTATIONS>
49  1  5
35  15  5
36  16  6
39  17  5
45  18  6
43  19  5
38  20  6
46  21  6
48  22  5
76  23  6
64  24  5
77  81  8
77  82  8
81  86  8
82  87  8
86  89  8
87  89  8
$$$$
