505373
  -OEChem-10302200282D
122127  0     1  0  0  0  0  0999 V2000
   16.6101    4.1331    0.0000 S   0  0  0  0  0  0  0  0  0  0  0  0
    7.9288   -5.1121    0.0000 O   0  0  0  0  0  0  0  0  0  0  0  0
    9.1857   -5.3673    0.0000 O   0  0  0  0  0  0  0  0  0  0  0  0
    6.1847   -7.1813    0.0000 O   0  0  0  0  0  0  0  0  0  0  0  0
    2.5357   -6.1644    0.0000 O   0  0  0  0  0  0  0  0  0  0  0  0
   13.0532    1.6134    0.0000 O   0  0  0  0  0  0  0  0  0  0  0  0
   14.6996    1.0753    0.0000 O   0  0  0  0  0  0  0  0  0  0  0  0
   13.6745    3.5144    0.0000 O   0  0  0  0  0  0  0  0  0  0  0  0
   15.6315    3.9269    0.0000 O   0  0  0  0  0  0  0  0  0  0  0  0
   16.9672    2.4383    0.0000 O   0  0  0  0  0  0  0  0  0  0  0  0
   14.9637    4.6712    0.0000 O   0  0  0  0  0  0  0  0  0  0  0  0
   12.3388    5.0030    0.0000 O   0  0  0  0  0  0  0  0  0  0  0  0
   12.9602    6.9041    0.0000 O   0  0  0  0  0  0  0  0  0  0  0  0
   17.5886    4.3393    0.0000 O   0  0  0  0  0  0  0  0  0  0  0  0
   14.9172    7.3165    0.0000 O   0  0  0  0  0  0  0  0  0  0  0  0
   16.4038    5.1116    0.0000 O   0  0  0  0  0  0  0  0  0  0  0  0
   16.8163    3.1546    0.0000 O   0  0  0  0  0  0  0  0  0  0  0  0
    7.9288   -4.1121    0.0000 C   0  0  1  0  0  0  0  0  0  0  0  0
    7.0628   -4.6121    0.0000 C   0  0  2  0  0  0  0  0  0  0  0  0
    7.9288   -3.1121    0.0000 C   0  0  1  0  0  0  0  0  0  0  0  0
    6.1968   -4.1121    0.0000 C   0  0  1  0  0  0  0  0  0  0  0  0
    5.2868   -4.6189    0.0000 C   0  0  2  0  0  0  0  0  0  0  0  0
    8.8750   -2.8074    0.0000 C   0  0  2  0  0  0  0  0  0  0  0  0
    5.2787   -5.6605    0.0000 C   0  0  1  0  0  0  0  0  0  0  0  0
    7.0628   -2.6121    0.0000 C   0  0  0  0  0  0  0  0  0  0  0  0
    6.1968   -3.1121    0.0000 C   0  0  0  0  0  0  0  0  0  0  0  0
    8.8750   -4.4168    0.0000 C   0  0  1  0  0  0  0  0  0  0  0  0
    7.0789   -5.6536    0.0000 C   0  0  0  0  0  0  0  0  0  0  0  0
    9.4586   -3.6121    0.0000 C   0  0  0  0  0  0  0  0  0  0  0  0
    6.1808   -6.1813    0.0000 C   0  0  2  0  0  0  0  0  0  0  0  0
    4.3599   -4.0548    0.0000 C   0  0  0  0  0  0  0  0  0  0  0  0
    7.9288   -2.1121    0.0000 C   0  0  0  0  0  0  0  0  0  0  0  0
    9.1857   -1.8568    0.0000 C   0  0  1  0  0  0  0  0  0  0  0  0
    4.3433   -6.2102    0.0000 C   0  0  0  0  0  0  0  0  0  0  0  0
    5.2945   -3.6190    0.0000 C   0  0  0  0  0  0  0  0  0  0  0  0
    3.4120   -4.5828    0.0000 C   0  0  0  0  0  0  0  0  0  0  0  0
    3.4037   -5.6678    0.0000 C   0  0  2  0  0  0  0  0  0  0  0  0
   10.1642   -1.6506    0.0000 C   0  0  0  0  0  0  0  0  0  0  0  0
    8.5179   -1.1125    0.0000 C   0  0  0  0  0  0  0  0  0  0  0  0
   10.4749   -0.7001    0.0000 C   0  0  0  0  0  0  0  0  0  0  0  0
   11.4534   -0.4939    0.0000 C   0  0  0  0  0  0  0  0  0  0  0  0
   11.7640    0.4567    0.0000 C   0  0  3  0  0  0  0  0  0  0  0  0
   12.1212   -1.2382    0.0000 C   0  0  0  0  0  0  0  0  0  0  0  0
   12.7425    0.6629    0.0000 C   0  0  0  0  0  0  0  0  0  0  0  0
   11.0962    1.2010    0.0000 C   0  0  0  0  0  0  0  0  0  0  0  0
   14.0317    1.8196    0.0000 C   0  0  2  0  0  0  0  0  0  0  0  0
   14.3424    2.7701    0.0000 C   0  0  1  0  0  0  0  0  0  0  0  0
   15.3209    2.9764    0.0000 C   0  0  2  0  0  0  0  0  0  0  0  0
   15.9887    2.2320    0.0000 C   0  0  1  0  0  0  0  0  0  0  0  0
   15.6781    1.2815    0.0000 C   0  0  0  0  0  0  0  0  0  0  0  0
   13.9852    4.4650    0.0000 C   0  0  2  0  0  0  0  0  0  0  0  0
   13.3174    5.2092    0.0000 C   0  0  1  0  0  0  0  0  0  0  0  0
   13.6280    6.1598    0.0000 C   0  0  2  0  0  0  0  0  0  0  0  0
   14.6065    6.3660    0.0000 C   0  0  1  0  0  0  0  0  0  0  0  0
   15.2744    5.6217    0.0000 C   0  0  0  0  0  0  0  0  0  0  0  0
   11.6710    5.7473    0.0000 C   0  0  0  0  0  0  0  0  0  0  0  0
    8.6158   -3.6116    0.0000 H   0  0  0  0  0  0  0  0  0  0  0  0
    6.9329   -3.6871    0.0000 H   0  0  0  0  0  0  0  0  0  0  0  0
    9.7148   -2.6755    0.0000 H   0  0  0  0  0  0  0  0  0  0  0  0
    5.2820   -6.5105    0.0000 H   0  0  0  0  0  0  0  0  0  0  0  0
    7.4613   -2.1371    0.0000 H   0  0  0  0  0  0  0  0  0  0  0  0
    6.6643   -2.1371    0.0000 H   0  0  0  0  0  0  0  0  0  0  0  0
    5.9847   -2.5295    0.0000 H   0  0  0  0  0  0  0  0  0  0  0  0
    5.5862   -3.2197    0.0000 H   0  0  0  0  0  0  0  0  0  0  0  0
    9.4875   -4.5130    0.0000 H   0  0  0  0  0  0  0  0  0  0  0  0
    7.2969   -6.2340    0.0000 H   0  0  0  0  0  0  0  0  0  0  0  0
    7.6880   -5.5381    0.0000 H   0  0  0  0  0  0  0  0  0  0  0  0
    9.9195   -4.0268    0.0000 H   0  0  0  0  0  0  0  0  0  0  0  0
    9.9195   -3.1974    0.0000 H   0  0  0  0  0  0  0  0  0  0  0  0
    6.7195   -6.4882    0.0000 H   0  0  0  0  0  0  0  0  0  0  0  0
    4.7681   -3.5882    0.0000 H   0  0  0  0  0  0  0  0  0  0  0  0
    3.9700   -3.5728    0.0000 H   0  0  0  0  0  0  0  0  0  0  0  0
    8.5488   -2.1121    0.0000 H   0  0  0  0  0  0  0  0  0  0  0  0
    7.9288   -1.4921    0.0000 H   0  0  0  0  0  0  0  0  0  0  0  0
    7.3088   -2.1121    0.0000 H   0  0  0  0  0  0  0  0  0  0  0  0
    9.3783   -1.2675    0.0000 H   0  0  0  0  0  0  0  0  0  0  0  0
    3.9460   -6.6862    0.0000 H   0  0  0  0  0  0  0  0  0  0  0  0
    4.7443   -6.6831    0.0000 H   0  0  0  0  0  0  0  0  0  0  0  0
    5.9145   -3.6237    0.0000 H   0  0  0  0  0  0  0  0  0  0  0  0
    5.2993   -2.9990    0.0000 H   0  0  0  0  0  0  0  0  0  0  0  0
    4.6745   -3.6142    0.0000 H   0  0  0  0  0  0  0  0  0  0  0  0
    3.2075   -3.9975    0.0000 H   0  0  0  0  0  0  0  0  0  0  0  0
    2.8004   -4.6842    0.0000 H   0  0  0  0  0  0  0  0  0  0  0  0
    7.9288   -5.7321    0.0000 H   0  0  0  0  0  0  0  0  0  0  0  0
    3.4025   -6.2878    0.0000 H   0  0  0  0  0  0  0  0  0  0  0  0
    9.7924   -5.4952    0.0000 H   0  0  0  0  0  0  0  0  0  0  0  0
   10.1848   -2.2703    0.0000 H   0  0  0  0  0  0  0  0  0  0  0  0
   10.7780   -1.7380    0.0000 H   0  0  0  0  0  0  0  0  0  0  0  0
    8.9793   -0.6985    0.0000 H   0  0  0  0  0  0  0  0  0  0  0  0
    8.1038   -0.6511    0.0000 H   0  0  0  0  0  0  0  0  0  0  0  0
    8.0564   -1.5266    0.0000 H   0  0  0  0  0  0  0  0  0  0  0  0
    5.6489   -7.4934    0.0000 H   0  0  0  0  0  0  0  0  0  0  0  0
   10.4543   -0.0804    0.0000 H   0  0  0  0  0  0  0  0  0  0  0  0
    9.8611   -0.6127    0.0000 H   0  0  0  0  0  0  0  0  0  0  0  0
    2.0000   -5.8523    0.0000 H   0  0  0  0  0  0  0  0  0  0  0  0
   11.9567    1.0460    0.0000 H   0  0  0  0  0  0  0  0  0  0  0  0
   11.9286   -1.8275    0.0000 H   0  0  0  0  0  0  0  0  0  0  0  0
   12.7279   -1.1103    0.0000 H   0  0  0  0  0  0  0  0  0  0  0  0
   12.7631    0.0432    0.0000 H   0  0  0  0  0  0  0  0  0  0  0  0
   13.3564    0.5755    0.0000 H   0  0  0  0  0  0  0  0  0  0  0  0
   11.5577    1.6150    0.0000 H   0  0  0  0  0  0  0  0  0  0  0  0
   10.6821    1.6624    0.0000 H   0  0  0  0  0  0  0  0  0  0  0  0
   10.6347    0.7869    0.0000 H   0  0  0  0  0  0  0  0  0  0  0  0
   13.6177    2.2811    0.0000 H   0  0  0  0  0  0  0  0  0  0  0  0
   14.5350    3.3594    0.0000 H   0  0  0  0  0  0  0  0  0  0  0  0
   15.9276    3.1042    0.0000 H   0  0  0  0  0  0  0  0  0  0  0  0
   16.4028    1.7706    0.0000 H   0  0  0  0  0  0  0  0  0  0  0  0
   15.6986    0.6619    0.0000 H   0  0  0  0  0  0  0  0  0  0  0  0
   16.2919    1.1942    0.0000 H   0  0  0  0  0  0  0  0  0  0  0  0
   13.3785    4.3371    0.0000 H   0  0  0  0  0  0  0  0  0  0  0  0
   12.9033    5.6707    0.0000 H   0  0  0  0  0  0  0  0  0  0  0  0
   17.3813    1.9768    0.0000 H   0  0  0  0  0  0  0  0  0  0  0  0
   13.8206    6.7491    0.0000 H   0  0  0  0  0  0  0  0  0  0  0  0
   15.2132    6.4938    0.0000 H   0  0  0  0  0  0  0  0  0  0  0  0
   15.8213    5.3297    0.0000 H   0  0  0  0  0  0  0  0  0  0  0  0
   15.6569    6.1096    0.0000 H   0  0  0  0  0  0  0  0  0  0  0  0
   13.1528    7.4934    0.0000 H   0  0  0  0  0  0  0  0  0  0  0  0
   15.5239    7.4444    0.0000 H   0  0  0  0  0  0  0  0  0  0  0  0
   17.7812    4.9286    0.0000 H   0  0  0  0  0  0  0  0  0  0  0  0
   12.1325    6.1614    0.0000 H   0  0  0  0  0  0  0  0  0  0  0  0
   11.2569    6.2088    0.0000 H   0  0  0  0  0  0  0  0  0  0  0  0
   11.2095    5.3333    0.0000 H   0  0  0  0  0  0  0  0  0  0  0  0
  1  9  1  0  0  0  0
  1 14  1  0  0  0  0
  1 16  2  0  0  0  0
  1 17  2  0  0  0  0
 19  2  1  1  0  0  0
  2 84  1  0  0  0  0
 27  3  1  1  0  0  0
  3 86  1  0  0  0  0
 30  4  1  6  0  0  0
  4 92  1  0  0  0  0
 37  5  1  1  0  0  0
  5 95  1  0  0  0  0
  6 44  1  0  0  0  0
 46  6  1  1  0  0  0
  7 46  1  0  0  0  0
  7 50  1  0  0  0  0
 47  8  1  6  0  0  0
 51  8  1  1  0  0  0
 48  9  1  1  0  0  0
 49 10  1  6  0  0  0
 10112  1  0  0  0  0
 11 51  1  0  0  0  0
 11 55  1  0  0  0  0
 52 12  1  6  0  0  0
 12 56  1  0  0  0  0
 53 13  1  1  0  0  0
 13117  1  0  0  0  0
 14119  1  0  0  0  0
 54 15  1  6  0  0  0
 15118  1  0  0  0  0
 18 19  1  0  0  0  0
 18 20  1  0  0  0  0
 18 27  1  0  0  0  0
 18 57  1  6  0  0  0
 19 21  1  0  0  0  0
 19 28  1  0  0  0  0
 20 23  1  0  0  0  0
 20 25  1  0  0  0  0
 20 32  1  1  0  0  0
 21 22  1  0  0  0  0
 21 26  1  0  0  0  0
 21 58  1  6  0  0  0
 22 24  1  0  0  0  0
 22 31  1  0  0  0  0
 22 35  1  1  0  0  0
 23 29  1  0  0  0  0
 23 33  1  0  0  0  0
 23 59  1  6  0  0  0
 24 30  1  0  0  0  0
 24 34  1  0  0  0  0
 24 60  1  6  0  0  0
 25 26  1  0  0  0  0
 25 61  1  0  0  0  0
 25 62  1  0  0  0  0
 26 63  1  0  0  0  0
 26 64  1  0  0  0  0
 27 29  1  0  0  0  0
 27 65  1  0  0  0  0
 28 30  1  0  0  0  0
 28 66  1  0  0  0  0
 28 67  1  0  0  0  0
 29 68  1  0  0  0  0
 29 69  1  0  0  0  0
 30 70  1  0  0  0  0
 31 36  1  0  0  0  0
 31 71  1  0  0  0  0
 31 72  1  0  0  0  0
 32 73  1  0  0  0  0
 32 74  1  0  0  0  0
 32 75  1  0  0  0  0
 33 38  1  0  0  0  0
 33 39  1  6  0  0  0
 33 76  1  0  0  0  0
 34 37  1  0  0  0  0
 34 77  1  0  0  0  0
 34 78  1  0  0  0  0
 35 79  1  0  0  0  0
 35 80  1  0  0  0  0
 35 81  1  0  0  0  0
 36 37  1  0  0  0  0
 36 82  1  0  0  0  0
 36 83  1  0  0  0  0
 37 85  1  0  0  0  0
 38 40  1  0  0  0  0
 38 87  1  0  0  0  0
 38 88  1  0  0  0  0
 39 89  1  0  0  0  0
 39 90  1  0  0  0  0
 39 91  1  0  0  0  0
 40 41  1  0  0  0  0
 40 93  1  0  0  0  0
 40 94  1  0  0  0  0
 41 42  1  0  0  0  0
 41 43  2  0  0  0  0
 42 44  1  0  0  0  0
 42 45  1  0  0  0  0
 42 96  1  0  0  0  0
 43 97  1  0  0  0  0
 43 98  1  0  0  0  0
 44 99  1  0  0  0  0
 44100  1  0  0  0  0
 45101  1  0  0  0  0
 45102  1  0  0  0  0
 45103  1  0  0  0  0
 46 47  1  0  0  0  0
 46104  1  0  0  0  0
 47 48  1  0  0  0  0
 47105  1  0  0  0  0
 48 49  1  0  0  0  0
 48106  1  0  0  0  0
 49 50  1  0  0  0  0
 49107  1  0  0  0  0
 50108  1  0  0  0  0
 50109  1  0  0  0  0
 51 52  1  0  0  0  0
 51110  1  0  0  0  0
 52 53  1  0  0  0  0
 52111  1  0  0  0  0
 53 54  1  0  0  0  0
 53113  1  0  0  0  0
 54 55  1  0  0  0  0
 54114  1  0  0  0  0
 55115  1  0  0  0  0
 55116  1  0  0  0  0
 56120  1  0  0  0  0
 56121  1  0  0  0  0
 56122  1  0  0  0  0
M  END
> <PUBCHEM_COMPOUND_CID>
505373
> <PUBCHEM_COMPOUND_CANONICALIZED>
1
> <PUBCHEM_CACTVS_COMPLEXITY>
1480
> <PUBCHEM_CACTVS_HBOND_ACCEPTOR>
16
> <PUBCHEM_CACTVS_HBOND_DONOR>
8
> <PUBCHEM_CACTVS_ROTATABLE_BOND>
13
> <PUBCHEM_CACTVS_SUBSKEYS>
AAADcfB8PgBAAAAAAAAAAAAAAAAAAYAAAAA0aMECAAAAAGDAAAAAGgAACAAAD1SwgAMCCAAABoCAAgBCADAAAAAgAAAAAAAAAAgREAIAAQAiQAAFwAAHAAHA4PwPgAAAAAAAAADAAAYQADAAAYAADAAAAA==
> <PUBCHEM_IUPAC_OPENEYE_NAME>
[(2R,3R,4S,5R)-3-[(2S,3R,4S,5R)-4,5-dihydroxy-3-methoxy-tetrahydropyran-2-yl]oxy-5-hydroxy-2-[(6R)-2-methyl-3-methylene-6-[(3S,5S,6S,8S,9R,10S,13R,14S,15R,17R)-3,6,8,15-tetrahydroxy-10,13-dimethyl-1,2,3,4,5,6,7,9,11,12,14,15,16,17-tetradecahydrocyclopenta[a]phenanthren-17-yl]heptoxy]tetrahydropyran-4-yl] hydrogen sulfate
> <PUBCHEM_IUPAC_CAS_NAME>
sulfuric acid [(2R,3R,4S,5R)-3-[[(2S,3R,4S,5R)-4,5-dihydroxy-3-methoxy-2-oxanyl]oxy]-5-hydroxy-2-[(6R)-2-methyl-3-methylene-6-[(3S,5S,6S,8S,9R,10S,13R,14S,15R,17R)-3,6,8,15-tetrahydroxy-10,13-dimethyl-1,2,3,4,5,6,7,9,11,12,14,15,16,17-tetradecahydrocyclopenta[a]phenanthren-17-yl]heptoxy]-4-oxanyl] ester
> <PUBCHEM_IUPAC_NAME_MARKUP>
[(2<I>R</I>,3<I>R</I>,4<I>S</I>,5<I>R</I>)-3-[(2<I>S</I>,3<I>R</I>,4<I>S</I>,5<I>R</I>)-4,5-dihydroxy-3-methoxyoxan-2-yl]oxy-5-hydroxy-2-[(6<I>R</I>)-2-methyl-3-methylidene-6-[(3<I>S</I>,5<I>S</I>,6<I>S</I>,8<I>S</I>,9<I>R</I>,10<I>S</I>,13<I>R</I>,14<I>S</I>,15<I>R</I>,17<I>R</I>)-3,6,8,15-tetrahydroxy-10,13-dimethyl-1,2,3,4,5,6,7,9,11,12,14,15,16,17-tetradecahydrocyclopenta[a]phenanthren-17-yl]heptoxy]oxan-4-yl] hydrogen sulfate
> <PUBCHEM_IUPAC_NAME>
[(2R,3R,4S,5R)-3-[(2S,3R,4S,5R)-4,5-dihydroxy-3-methoxyoxan-2-yl]oxy-5-hydroxy-2-[(6R)-2-methyl-3-methylidene-6-[(3S,5S,6S,8S,9R,10S,13R,14S,15R,17R)-3,6,8,15-tetrahydroxy-10,13-dimethyl-1,2,3,4,5,6,7,9,11,12,14,15,16,17-tetradecahydrocyclopenta[a]phenanthren-17-yl]heptoxy]oxan-4-yl] hydrogen sulfate
> <PUBCHEM_IUPAC_SYSTEMATIC_NAME>
[(2R,3R,4S,5R)-2-[(6R)-6-[(3S,5S,6S,8S,9R,10S,13R,14S,15R,17R)-10,13-dimethyl-3,6,8,15-tetrakis(oxidanyl)-1,2,3,4,5,6,7,9,11,12,14,15,16,17-tetradecahydrocyclopenta[a]phenanthren-17-yl]-2-methyl-3-methylidene-heptoxy]-3-[(2S,3R,4S,5R)-3-methoxy-4,5-bis(oxidanyl)oxan-2-yl]oxy-5-oxidanyl-oxan-4-yl] hydrogen sulfate
> <PUBCHEM_IUPAC_TRADITIONAL_NAME>
sulfuric acid [(2R,3R,4S,5R)-3-[(2S,3R,4S,5R)-4,5-dihydroxy-3-methoxy-tetrahydropyran-2-yl]oxy-5-hydroxy-2-[2-methyl-3-[(3R)-3-[(3S,5S,6S,8S,9R,10S,13R,14S,15R,17R)-3,6,8,15-tetrahydroxy-10,13-dimethyl-1,2,3,4,5,6,7,9,11,12,14,15,16,17-tetradecahydrocyclopenta[a]phenanthren-17-yl]butyl]but-3-enoxy]tetrahydropyran-4-yl] ester
> <PUBCHEM_IUPAC_INCHI>
InChI=1S/C39H66O16S/c1-19(21(3)16-51-35-33(31(28(44)18-52-35)55-56(47,48)49)54-36-32(50-6)30(45)27(43)17-53-36)7-8-20(2)23-14-25(41)34-38(23,5)12-10-29-37(4)11-9-22(40)13-24(37)26(42)15-39(29,34)46/h20-36,40-46H,1,7-18H2,2-6H3,(H,47,48,49)/t20-,21?,22+,23-,24-,25-,26+,27-,28-,29-,30+,31+,32-,33-,34-,35-,36+,37+,38-,39+/m1/s1
> <PUBCHEM_IUPAC_INCHIKEY>
LTFBZCFWCYEUOU-YICKXBLJSA-N
> <PUBCHEM_XLOGP3_AA>
1.4
> <PUBCHEM_EXACT_MASS>
822.40715719
> <PUBCHEM_MOLECULAR_FORMULA>
C39H66O16S
> <PUBCHEM_MOLECULAR_WEIGHT>
823.0
> <PUBCHEM_OPENEYE_CAN_SMILES>
CC(CCC(=C)C(C)COC1C(C(C(CO1)O)OS(=O)(=O)O)OC2C(C(C(CO2)O)O)OC)C3CC(C4C3(CCC5C4(CC(C6C5(CCC(C6)O)C)O)O)C)O
> <PUBCHEM_OPENEYE_ISO_SMILES>
C[C@H](CCC(=C)C(C)CO[C@H]1[C@@H]([C@H]([C@@H](CO1)O)OS(=O)(=O)O)O[C@H]2[C@@H]([C@H]([C@@H](CO2)O)O)OC)[C@H]3C[C@H]([C@@H]4[C@@]3(CC[C@H]5[C@]4(C[C@@H]([C@@H]6[C@@]5(CC[C@@H](C6)O)C)O)O)C)O
> <PUBCHEM_CACTVS_TPSA>
260
> <PUBCHEM_MONOISOTOPIC_WEIGHT>
822.40715719
> <PUBCHEM_TOTAL_CHARGE>
0
> <PUBCHEM_HEAVY_ATOM_COUNT>
56
> <PUBCHEM_ATOM_DEF_STEREO_COUNT>
19
> <PUBCHEM_ATOM_UDEF_STEREO_COUNT>
1
> <PUBCHEM_BOND_DEF_STEREO_COUNT>
0
> <PUBCHEM_BOND_UDEF_STEREO_COUNT>
0
> <PUBCHEM_ISOTOPIC_ATOM_COUNT>
0
> <PUBCHEM_COMPONENT_COUNT>
1
> <PUBCHEM_CACTVS_TAUTO_COUNT>
-1
> <PUBCHEM_COORDINATE_TYPE>
1
5
255
> <PUBCHEM_BONDANNOTATIONS>
49  10  6
52  12  6
53  13  5
54  15  6
18  57  6
19  2  5
20  32  5
21  58  6
22  35  5
23  59  6
24  60  6
27  3  5
33  39  6
30  4  6
42  45  3
37  5  5
46  6  5
47  8  6
51  8  5
48  9  5
$$$$
