505379
  -OEChem-10302200282D
111115  0     1  0  0  0  0  0999 V2000
    7.0526   -3.8812    0.0000 S   0  0  0  0  0  0  0  0  0  0  0  0
    9.1857   -1.5705    0.0000 O   0  0  0  0  0  0  0  0  0  0  0  0
    6.1847   -3.3845    0.0000 O   0  0  0  0  0  0  0  0  0  0  0  0
   10.4586    0.1848    0.0000 O   0  0  0  0  0  0  0  0  0  0  0  0
    4.3472   -3.4134    0.0000 O   0  0  0  0  0  0  0  0  0  0  0  0
    2.5357   -2.3676    0.0000 O   0  0  0  0  0  0  0  0  0  0  0  0
    7.9206   -4.3778    0.0000 O   0  0  0  0  0  0  0  0  0  0  0  0
    6.5560   -4.7491    0.0000 O   0  0  0  0  0  0  0  0  0  0  0  0
    7.5493   -3.0132    0.0000 O   0  0  0  0  0  0  0  0  0  0  0  0
   13.7676    2.0206    0.0000 O   0  0  0  0  0  0  0  0  0  0  0  0
   15.0567    3.1773    0.0000 O   0  0  0  0  0  0  0  0  0  0  0  0
   15.1033    0.5320    0.0000 O   0  0  0  0  0  0  0  0  0  0  0  0
   17.0603    0.9444    0.0000 O   0  0  0  0  0  0  0  0  0  0  0  0
   17.6816    2.8455    0.0000 O   0  0  0  0  0  0  0  0  0  0  0  0
    7.9288   -0.3152    0.0000 C   0  0  2  0  0  0  0  0  0  0  0  0
    7.9288    0.6848    0.0000 C   0  0  1  0  0  0  0  0  0  0  0  0
    7.0628   -0.8152    0.0000 C   0  0  1  0  0  0  0  0  0  0  0  0
    6.1968   -0.3152    0.0000 C   0  0  1  0  0  0  0  0  0  0  0  0
    5.2868   -0.8221    0.0000 C   0  0  2  0  0  0  0  0  0  0  0  0
    8.8750    0.9895    0.0000 C   0  0  2  0  0  0  0  0  0  0  0  0
    5.2787   -1.8637    0.0000 C   0  0  1  0  0  0  0  0  0  0  0  0
    7.0628    1.1848    0.0000 C   0  0  0  0  0  0  0  0  0  0  0  0
    6.1968    0.6848    0.0000 C   0  0  0  0  0  0  0  0  0  0  0  0
    8.8750   -0.6200    0.0000 C   0  0  1  0  0  0  0  0  0  0  0  0
    7.0789   -1.8567    0.0000 C   0  0  0  0  0  0  0  0  0  0  0  0
    9.4586    0.1848    0.0000 C   0  0  2  0  0  0  0  0  0  0  0  0
    6.1808   -2.3845    0.0000 C   0  0  2  0  0  0  0  0  0  0  0  0
    4.3599   -0.2580    0.0000 C   0  0  0  0  0  0  0  0  0  0  0  0
    7.9288    1.6848    0.0000 C   0  0  0  0  0  0  0  0  0  0  0  0
    9.1857    1.9400    0.0000 C   0  0  1  0  0  0  0  0  0  0  0  0
    4.3433   -2.4134    0.0000 C   0  0  2  0  0  0  0  0  0  0  0  0
    5.2945    0.1779    0.0000 C   0  0  0  0  0  0  0  0  0  0  0  0
    3.4120   -0.7859    0.0000 C   0  0  0  0  0  0  0  0  0  0  0  0
    3.4037   -1.8709    0.0000 C   0  0  2  0  0  0  0  0  0  0  0  0
   10.1642    2.1462    0.0000 C   0  0  0  0  0  0  0  0  0  0  0  0
    8.5179    2.6843    0.0000 C   0  0  0  0  0  0  0  0  0  0  0  0
   10.4749    3.0968    0.0000 C   0  0  0  0  0  0  0  0  0  0  0  0
   11.4534    3.3030    0.0000 C   0  0  1  0  0  0  0  0  0  0  0  0
   11.7640    4.2535    0.0000 C   0  0  0  0  0  0  0  0  0  0  0  0
   12.1212    2.5587    0.0000 C   0  0  0  0  0  0  0  0  0  0  0  0
   12.7425    4.4597    0.0000 C   0  0  0  0  0  0  0  0  0  0  0  0
   11.0962    4.9978    0.0000 C   0  0  0  0  0  0  0  0  0  0  0  0
   13.0997    2.7649    0.0000 C   0  0  0  0  0  0  0  0  0  0  0  0
   14.7461    2.2268    0.0000 C   0  0  2  0  0  0  0  0  0  0  0  0
   15.4139    1.4825    0.0000 C   0  0  1  0  0  0  0  0  0  0  0  0
   16.3924    1.6887    0.0000 C   0  0  2  0  0  0  0  0  0  0  0  0
   16.0352    3.3836    0.0000 C   0  0  0  0  0  0  0  0  0  0  0  0
   16.7031    2.6392    0.0000 C   0  0  1  0  0  0  0  0  0  0  0  0
   17.9923    3.7960    0.0000 C   0  0  0  0  0  0  0  0  0  0  0  0
    8.0188   -1.1605    0.0000 H   0  0  0  0  0  0  0  0  0  0  0  0
    7.8022   -1.2346    0.0000 H   0  0  0  0  0  0  0  0  0  0  0  0
    6.9329    0.1098    0.0000 H   0  0  0  0  0  0  0  0  0  0  0  0
    9.7148    1.1214    0.0000 H   0  0  0  0  0  0  0  0  0  0  0  0
    5.2820   -2.7137    0.0000 H   0  0  0  0  0  0  0  0  0  0  0  0
    7.4613    1.6597    0.0000 H   0  0  0  0  0  0  0  0  0  0  0  0
    6.6643    1.6597    0.0000 H   0  0  0  0  0  0  0  0  0  0  0  0
    5.9847    1.2674    0.0000 H   0  0  0  0  0  0  0  0  0  0  0  0
    5.5862    0.5771    0.0000 H   0  0  0  0  0  0  0  0  0  0  0  0
    9.4875   -0.7162    0.0000 H   0  0  0  0  0  0  0  0  0  0  0  0
    7.2969   -2.4371    0.0000 H   0  0  0  0  0  0  0  0  0  0  0  0
    7.6880   -1.7412    0.0000 H   0  0  0  0  0  0  0  0  0  0  0  0
    9.7404   -0.3675    0.0000 H   0  0  0  0  0  0  0  0  0  0  0  0
    6.7195   -2.6914    0.0000 H   0  0  0  0  0  0  0  0  0  0  0  0
    4.7681    0.2087    0.0000 H   0  0  0  0  0  0  0  0  0  0  0  0
    3.9700    0.2240    0.0000 H   0  0  0  0  0  0  0  0  0  0  0  0
    8.5488    1.6848    0.0000 H   0  0  0  0  0  0  0  0  0  0  0  0
    7.9288    2.3048    0.0000 H   0  0  0  0  0  0  0  0  0  0  0  0
    7.3088    1.6848    0.0000 H   0  0  0  0  0  0  0  0  0  0  0  0
    9.3783    2.5293    0.0000 H   0  0  0  0  0  0  0  0  0  0  0  0
    3.8070   -2.7244    0.0000 H   0  0  0  0  0  0  0  0  0  0  0  0
    5.9145    0.1731    0.0000 H   0  0  0  0  0  0  0  0  0  0  0  0
    5.2993    0.7979    0.0000 H   0  0  0  0  0  0  0  0  0  0  0  0
    4.6745    0.1827    0.0000 H   0  0  0  0  0  0  0  0  0  0  0  0
    3.2075   -0.2007    0.0000 H   0  0  0  0  0  0  0  0  0  0  0  0
    2.8004   -0.8873    0.0000 H   0  0  0  0  0  0  0  0  0  0  0  0
    2.8686   -1.5578    0.0000 H   0  0  0  0  0  0  0  0  0  0  0  0
   10.1848    1.5266    0.0000 H   0  0  0  0  0  0  0  0  0  0  0  0
   10.7780    2.0589    0.0000 H   0  0  0  0  0  0  0  0  0  0  0  0
    9.7924   -1.6983    0.0000 H   0  0  0  0  0  0  0  0  0  0  0  0
   10.7687   -0.3522    0.0000 H   0  0  0  0  0  0  0  0  0  0  0  0
    8.9793    3.0984    0.0000 H   0  0  0  0  0  0  0  0  0  0  0  0
    8.1038    3.1458    0.0000 H   0  0  0  0  0  0  0  0  0  0  0  0
    8.0564    2.2703    0.0000 H   0  0  0  0  0  0  0  0  0  0  0  0
    3.8114   -3.7255    0.0000 H   0  0  0  0  0  0  0  0  0  0  0  0
   10.4543    3.7164    0.0000 H   0  0  0  0  0  0  0  0  0  0  0  0
    9.8611    3.1841    0.0000 H   0  0  0  0  0  0  0  0  0  0  0  0
    2.0000   -2.0555    0.0000 H   0  0  0  0  0  0  0  0  0  0  0  0
   12.0601    3.4308    0.0000 H   0  0  0  0  0  0  0  0  0  0  0  0
   11.1574    4.1256    0.0000 H   0  0  0  0  0  0  0  0  0  0  0  0
   11.5949    2.2310    0.0000 H   0  0  0  0  0  0  0  0  0  0  0  0
   12.3525    1.9834    0.0000 H   0  0  0  0  0  0  0  0  0  0  0  0
    7.9230   -4.9978    0.0000 H   0  0  0  0  0  0  0  0  0  0  0  0
   12.8704    3.8530    0.0000 H   0  0  0  0  0  0  0  0  0  0  0  0
   13.3492    4.5876    0.0000 H   0  0  0  0  0  0  0  0  0  0  0  0
   12.6147    5.0664    0.0000 H   0  0  0  0  0  0  0  0  0  0  0  0
   11.5577    5.4119    0.0000 H   0  0  0  0  0  0  0  0  0  0  0  0
   10.6821    5.4593    0.0000 H   0  0  0  0  0  0  0  0  0  0  0  0
   10.6347    4.5837    0.0000 H   0  0  0  0  0  0  0  0  0  0  0  0
   13.6261    3.0925    0.0000 H   0  0  0  0  0  0  0  0  0  0  0  0
   12.8685    3.3402    0.0000 H   0  0  0  0  0  0  0  0  0  0  0  0
   14.5535    1.6375    0.0000 H   0  0  0  0  0  0  0  0  0  0  0  0
   15.8280    1.0210    0.0000 H   0  0  0  0  0  0  0  0  0  0  0  0
   16.9991    1.8166    0.0000 H   0  0  0  0  0  0  0  0  0  0  0  0
   16.5616    3.7112    0.0000 H   0  0  0  0  0  0  0  0  0  0  0  0
   15.8040    3.9588    0.0000 H   0  0  0  0  0  0  0  0  0  0  0  0
   16.8957    3.2286    0.0000 H   0  0  0  0  0  0  0  0  0  0  0  0
   15.5173    0.0705    0.0000 H   0  0  0  0  0  0  0  0  0  0  0  0
   17.6669    1.0723    0.0000 H   0  0  0  0  0  0  0  0  0  0  0  0
   18.5816    3.6034    0.0000 H   0  0  0  0  0  0  0  0  0  0  0  0
   18.1849    4.3853    0.0000 H   0  0  0  0  0  0  0  0  0  0  0  0
   17.4029    3.9886    0.0000 H   0  0  0  0  0  0  0  0  0  0  0  0
  1  3  1  0  0  0  0
  1  7  1  0  0  0  0
  1  8  2  0  0  0  0
  1  9  2  0  0  0  0
 24  2  1  1  0  0  0
  2 79  1  0  0  0  0
 27  3  1  6  0  0  0
 26  4  1  1  0  0  0
  4 80  1  0  0  0  0
 31  5  1  1  0  0  0
  5 84  1  0  0  0  0
 34  6  1  1  0  0  0
  6 87  1  0  0  0  0
  7 92  1  0  0  0  0
 10 43  1  0  0  0  0
 44 10  1  6  0  0  0
 11 44  1  0  0  0  0
 11 47  1  0  0  0  0
 45 12  1  1  0  0  0
 12107  1  0  0  0  0
 46 13  1  6  0  0  0
 13108  1  0  0  0  0
 48 14  1  1  0  0  0
 14 49  1  0  0  0  0
 15 16  1  0  0  0  0
 15 17  1  0  0  0  0
 15 24  1  0  0  0  0
 15 50  1  6  0  0  0
 16 20  1  0  0  0  0
 16 22  1  0  0  0  0
 16 29  1  1  0  0  0
 17 18  1  0  0  0  0
 17 25  1  0  0  0  0
 17 51  1  1  0  0  0
 18 19  1  0  0  0  0
 18 23  1  0  0  0  0
 18 52  1  6  0  0  0
 19 21  1  0  0  0  0
 19 28  1  0  0  0  0
 19 32  1  1  0  0  0
 20 26  1  0  0  0  0
 20 30  1  0  0  0  0
 20 53  1  6  0  0  0
 21 27  1  0  0  0  0
 21 31  1  0  0  0  0
 21 54  1  6  0  0  0
 22 23  1  0  0  0  0
 22 55  1  0  0  0  0
 22 56  1  0  0  0  0
 23 57  1  0  0  0  0
 23 58  1  0  0  0  0
 24 26  1  0  0  0  0
 24 59  1  0  0  0  0
 25 27  1  0  0  0  0
 25 60  1  0  0  0  0
 25 61  1  0  0  0  0
 26 62  1  0  0  0  0
 27 63  1  0  0  0  0
 28 33  1  0  0  0  0
 28 64  1  0  0  0  0
 28 65  1  0  0  0  0
 29 66  1  0  0  0  0
 29 67  1  0  0  0  0
 29 68  1  0  0  0  0
 30 35  1  0  0  0  0
 30 36  1  6  0  0  0
 30 69  1  0  0  0  0
 31 34  1  0  0  0  0
 31 70  1  0  0  0  0
 32 71  1  0  0  0  0
 32 72  1  0  0  0  0
 32 73  1  0  0  0  0
 33 34  1  0  0  0  0
 33 74  1  0  0  0  0
 33 75  1  0  0  0  0
 34 76  1  0  0  0  0
 35 37  1  0  0  0  0
 35 77  1  0  0  0  0
 35 78  1  0  0  0  0
 36 81  1  0  0  0  0
 36 82  1  0  0  0  0
 36 83  1  0  0  0  0
 37 38  1  0  0  0  0
 37 85  1  0  0  0  0
 37 86  1  0  0  0  0
 38 39  1  0  0  0  0
 38 40  1  1  0  0  0
 38 88  1  0  0  0  0
 39 41  1  0  0  0  0
 39 42  1  0  0  0  0
 39 89  1  0  0  0  0
 40 43  1  0  0  0  0
 40 90  1  0  0  0  0
 40 91  1  0  0  0  0
 41 93  1  0  0  0  0
 41 94  1  0  0  0  0
 41 95  1  0  0  0  0
 42 96  1  0  0  0  0
 42 97  1  0  0  0  0
 42 98  1  0  0  0  0
 43 99  1  0  0  0  0
 43100  1  0  0  0  0
 44 45  1  0  0  0  0
 44101  1  0  0  0  0
 45 46  1  0  0  0  0
 45102  1  0  0  0  0
 46 48  1  0  0  0  0
 46103  1  0  0  0  0
 47 48  1  0  0  0  0
 47104  1  0  0  0  0
 47105  1  0  0  0  0
 48106  1  0  0  0  0
 49109  1  0  0  0  0
 49110  1  0  0  0  0
 49111  1  0  0  0  0
M  END
> <PUBCHEM_COMPOUND_CID>
505379
> <PUBCHEM_COMPOUND_CANONICALIZED>
1
> <PUBCHEM_CACTVS_COMPLEXITY>
1210
> <PUBCHEM_CACTVS_HBOND_ACCEPTOR>
13
> <PUBCHEM_CACTVS_HBOND_DONOR>
7
> <PUBCHEM_CACTVS_ROTATABLE_BOND>
12
> <PUBCHEM_CACTVS_SUBSKEYS>
AAADcfB8PABAAAAAAAAAAAAAAAAAAYAAAAA0YMEAAAAAAGDAAAAAGgAACAAADxSwgAMCCAAABoAAAAAAADAAAAAAAAAAAAAAAAAREAIAAAAiQAAFAAAHAAHA4PwPgAAAAAAAAADAAAYAADCAAYAADCAAAA==
> <PUBCHEM_IUPAC_OPENEYE_NAME>
[(3S,4R,5R,6S,8R,9S,10R,13R,14S,15S,16R,17R)-17-[(1R,4R)-4-[2-[(2R,3R,4R,5R)-3,4-dihydroxy-5-methoxy-tetrahydropyran-2-yl]oxyethyl]-1,5-dimethyl-hexyl]-3,4,15,16-tetrahydroxy-10,13-dimethyl-2,3,4,5,6,7,8,9,11,12,14,15,16,17-tetradecahydro-1H-cyclopenta[a]phenanthren-6-yl] hydrogen sulfate
> <PUBCHEM_IUPAC_CAS_NAME>
sulfuric acid [(3S,4R,5R,6S,8R,9S,10R,13R,14S,15S,16R,17R)-17-[(2R,5R)-5-[2-[[(2R,3R,4R,5R)-3,4-dihydroxy-5-methoxy-2-oxanyl]oxy]ethyl]-6-methylheptan-2-yl]-3,4,15,16-tetrahydroxy-10,13-dimethyl-2,3,4,5,6,7,8,9,11,12,14,15,16,17-tetradecahydro-1H-cyclopenta[a]phenanthren-6-yl] ester
> <PUBCHEM_IUPAC_NAME_MARKUP>
[(3<I>S</I>,4<I>R</I>,5<I>R</I>,6<I>S</I>,8<I>R</I>,9<I>S</I>,10<I>R</I>,13<I>R</I>,14<I>S</I>,15<I>S</I>,16<I>R</I>,17<I>R</I>)-17-[(2<I>R</I>,5<I>R</I>)-5-[2-[(2<I>R</I>,3<I>R</I>,4<I>R</I>,5<I>R</I>)-3,4-dihydroxy-5-methoxyoxan-2-yl]oxyethyl]-6-methylheptan-2-yl]-3,4,15,16-tetrahydroxy-10,13-dimethyl-2,3,4,5,6,7,8,9,11,12,14,15,16,17-tetradecahydro-1<I>H</I>-cyclopenta[a]phenanthren-6-yl] hydrogen sulfate
> <PUBCHEM_IUPAC_NAME>
[(3S,4R,5R,6S,8R,9S,10R,13R,14S,15S,16R,17R)-17-[(2R,5R)-5-[2-[(2R,3R,4R,5R)-3,4-dihydroxy-5-methoxyoxan-2-yl]oxyethyl]-6-methylheptan-2-yl]-3,4,15,16-tetrahydroxy-10,13-dimethyl-2,3,4,5,6,7,8,9,11,12,14,15,16,17-tetradecahydro-1H-cyclopenta[a]phenanthren-6-yl] hydrogen sulfate
> <PUBCHEM_IUPAC_SYSTEMATIC_NAME>
[(3S,4R,5R,6S,8R,9S,10R,13R,14S,15S,16R,17R)-17-[(2R,5R)-5-[2-[(2R,3R,4R,5R)-5-methoxy-3,4-bis(oxidanyl)oxan-2-yl]oxyethyl]-6-methyl-heptan-2-yl]-10,13-dimethyl-3,4,15,16-tetrakis(oxidanyl)-2,3,4,5,6,7,8,9,11,12,14,15,16,17-tetradecahydro-1H-cyclopenta[a]phenanthren-6-yl] hydrogen sulfate
> <PUBCHEM_IUPAC_TRADITIONAL_NAME>
sulfuric acid [(3S,4R,5R,6S,8R,9S,10R,13R,14S,15S,16R,17R)-17-[(1R,4R)-4-[2-[(2R,3R,4R,5R)-3,4-dihydroxy-5-methoxy-tetrahydropyran-2-yl]oxyethyl]-1,5-dimethyl-hexyl]-3,4,15,16-tetrahydroxy-10,13-dimethyl-2,3,4,5,6,7,8,9,11,12,14,15,16,17-tetradecahydro-1H-cyclopenta[a]phenanthren-6-yl] ester
> <PUBCHEM_IUPAC_INCHI>
InChI=1S/C35H62O13S/c1-17(2)19(11-14-46-33-32(41)29(38)24(45-6)16-47-33)8-7-18(3)25-30(39)31(40)26-20-15-23(48-49(42,43)44)27-28(37)22(36)10-13-34(27,4)21(20)9-12-35(25,26)5/h17-33,36-41H,7-16H2,1-6H3,(H,42,43,44)/t18-,19-,20-,21+,22+,23+,24-,25+,26-,27+,28+,29+,30-,31+,32-,33-,34-,35-/m1/s1
> <PUBCHEM_IUPAC_INCHIKEY>
WTIPFRWIYJVRGS-XCIXNCJBSA-N
> <PUBCHEM_XLOGP3_AA>
2.7
> <PUBCHEM_EXACT_MASS>
722.39111320
> <PUBCHEM_MOLECULAR_FORMULA>
C35H62O13S
> <PUBCHEM_MOLECULAR_WEIGHT>
722.9
> <PUBCHEM_OPENEYE_CAN_SMILES>
CC(C)C(CCC(C)C1C(C(C2C1(CCC3C2CC(C4C3(CCC(C4O)O)C)OS(=O)(=O)O)C)O)O)CCOC5C(C(C(CO5)OC)O)O
> <PUBCHEM_OPENEYE_ISO_SMILES>
C[C@H](CC[C@H](CCO[C@H]1[C@@H]([C@H]([C@@H](CO1)OC)O)O)C(C)C)[C@H]2[C@H]([C@H]([C@@H]3[C@@]2(CC[C@H]4[C@H]3C[C@@H]([C@@H]5[C@@]4(CC[C@@H]([C@@H]5O)O)C)OS(=O)(=O)O)C)O)O
> <PUBCHEM_CACTVS_TPSA>
221
> <PUBCHEM_MONOISOTOPIC_WEIGHT>
722.39111320
> <PUBCHEM_TOTAL_CHARGE>
0
> <PUBCHEM_HEAVY_ATOM_COUNT>
49
> <PUBCHEM_ATOM_DEF_STEREO_COUNT>
18
> <PUBCHEM_ATOM_UDEF_STEREO_COUNT>
0
> <PUBCHEM_BOND_DEF_STEREO_COUNT>
0
> <PUBCHEM_BOND_UDEF_STEREO_COUNT>
0
> <PUBCHEM_ISOTOPIC_ATOM_COUNT>
0
> <PUBCHEM_COMPONENT_COUNT>
1
> <PUBCHEM_CACTVS_TAUTO_COUNT>
-1
> <PUBCHEM_COORDINATE_TYPE>
1
5
255
> <PUBCHEM_BONDANNOTATIONS>
44  10  6
45  12  5
46  13  6
48  14  5
15  50  6
16  29  5
17  51  5
18  52  6
19  32  5
24  2  5
20  53  6
21  54  6
27  3  6
30  36  6
38  40  5
26  4  5
31  5  5
34  6  5
$$$$
