505375
  -OEChem-10302200282D
121126  0     1  0  0  0  0  0999 V2000
    6.7581    3.5436    0.0000 O   0  0  0  0  0  0  0  0  0  0  0  0
    7.9735    3.1341    0.0000 O   0  0  0  0  0  0  0  0  0  0  0  0
    6.2869    6.2085    0.0000 O   0  0  0  0  0  0  0  0  0  0  0  0
    4.7117    7.1550    0.0000 O   0  0  0  0  0  0  0  0  0  0  0  0
    2.6200    7.1587    0.0000 O   0  0  0  0  0  0  0  0  0  0  0  0
    7.2835   -3.1976    0.0000 O   0  0  0  0  0  0  0  0  0  0  0  0
    5.5234   -2.9188    0.0000 O   0  0  0  0  0  0  0  0  0  0  0  0
    6.6112   -5.2667    0.0000 O   0  0  0  0  0  0  0  0  0  0  0  0
    4.4356   -5.2667    0.0000 O   0  0  0  0  0  0  0  0  0  0  0  0
    3.5554   -2.2194    0.0000 O   0  0  0  0  0  0  0  0  0  0  0  0
    8.0125   -4.2486    0.0000 O   0  0  0  0  0  0  0  0  0  0  0  0
    7.7868   -6.8847    0.0000 O   0  0  0  0  0  0  0  0  0  0  0  0
    9.7758   -6.6756    0.0000 O   0  0  0  0  0  0  0  0  0  0  0  0
   10.5893   -4.8486    0.0000 O   0  0  0  0  0  0  0  0  0  0  0  0
    5.7581    3.5454    0.0000 C   0  0  2  0  0  0  0  0  0  0  0  0
    6.2566    2.6785    0.0000 C   0  0  1  0  0  0  0  0  0  0  0  0
    5.7551    1.8133    0.0000 C   0  0  1  0  0  0  0  0  0  0  0  0
    4.7581    3.5471    0.0000 C   0  0  1  0  0  0  0  0  0  0  0  0
    4.2250    4.4420    0.0000 C   0  0  2  0  0  0  0  0  0  0  0  0
    6.4209    1.0751    0.0000 C   0  0  2  0  0  0  0  0  0  0  0  0
    4.7404    5.3471    0.0000 C   0  0  1  0  0  0  0  0  0  0  0  0
    4.7551    1.8150    0.0000 C   0  0  0  0  0  0  0  0  0  0  0  0
    4.2566    2.6819    0.0000 C   0  0  0  0  0  0  0  0  0  0  0  0
    7.2281    2.4676    0.0000 C   0  0  1  0  0  0  0  0  0  0  0  0
    6.2943    4.4384    0.0000 C   0  0  0  0  0  0  0  0  0  0  0  0
    7.3294    1.4787    0.0000 C   0  0  0  0  0  0  0  0  0  0  0  0
    5.7821    5.3453    0.0000 C   0  0  2  0  0  0  0  0  0  0  0  0
    3.1403    4.4187    0.0000 C   0  0  0  0  0  0  0  0  0  0  0  0
    5.2536    0.9481    0.0000 C   0  0  0  0  0  0  0  0  0  0  0  0
    4.2068    6.2918    0.0000 C   0  0  2  0  0  0  0  0  0  0  0  0
    6.2130    0.0970    0.0000 C   0  0  1  0  0  0  0  0  0  0  0  0
    3.7302    3.5730    0.0000 C   0  0  0  0  0  0  0  0  0  0  0  0
    2.5850    5.3508    0.0000 C   0  0  0  0  0  0  0  0  0  0  0  0
    3.1218    6.2937    0.0000 C   0  0  2  0  0  0  0  0  0  0  0  0
    6.9562   -0.5721    0.0000 C   0  0  0  0  0  0  0  0  0  0  0  0
    5.2620   -0.2120    0.0000 C   0  0  0  0  0  0  0  0  0  0  0  0
    6.7483   -1.5503    0.0000 C   0  0  0  0  0  0  0  0  0  0  0  0
    7.4914   -2.2194    0.0000 C   0  0  1  0  0  0  0  0  0  0  0  0
    8.4425   -1.9104    0.0000 C   0  0  0  0  0  0  0  0  0  0  0  0
    8.6504   -0.9323    0.0000 C   0  0  0  0  0  0  0  0  0  0  0  0
    9.1856   -2.5795    0.0000 C   0  0  0  0  0  0  0  0  0  0  0  0
    6.3324   -3.5066    0.0000 C   0  0  2  0  0  0  0  0  0  0  0  0
    6.0234   -4.4576    0.0000 C   0  0  1  0  0  0  0  0  0  0  0  0
    5.0234   -4.4576    0.0000 C   0  0  2  0  0  0  0  0  0  0  0  0
    4.7144   -3.5066    0.0000 C   0  0  2  0  0  0  0  0  0  0  0  0
    3.7634   -3.1976    0.0000 C   0  0  0  0  0  0  0  0  0  0  0  0
    7.6057   -5.1621    0.0000 C   0  0  2  0  0  0  0  0  0  0  0  0
    8.1935   -5.9712    0.0000 C   0  0  1  0  0  0  0  0  0  0  0  0
    9.1880   -5.8666    0.0000 C   0  0  2  0  0  0  0  0  0  0  0  0
    9.5948   -4.9531    0.0000 C   0  0  1  0  0  0  0  0  0  0  0  0
    9.0070   -4.1441    0.0000 C   0  0  0  0  0  0  0  0  0  0  0  0
    8.3746   -7.6937    0.0000 C   0  0  0  0  0  0  0  0  0  0  0  0
   10.9960   -3.9350    0.0000 C   0  0  0  0  0  0  0  0  0  0  0  0
    6.7583    3.3646    0.0000 H   0  0  0  0  0  0  0  0  0  0  0  0
    5.1787    4.2857    0.0000 H   0  0  0  0  0  0  0  0  0  0  0  0
    7.0813    0.5399    0.0000 H   0  0  0  0  0  0  0  0  0  0  0  0
    5.1695    6.0809    0.0000 H   0  0  0  0  0  0  0  0  0  0  0  0
    4.1722    1.6040    0.0000 H   0  0  0  0  0  0  0  0  0  0  0  0
    4.8617    1.2043    0.0000 H   0  0  0  0  0  0  0  0  0  0  0  0
    3.7824    3.0813    0.0000 H   0  0  0  0  0  0  0  0  0  0  0  0
    3.7810    2.2842    0.0000 H   0  0  0  0  0  0  0  0  0  0  0  0
    7.0700    3.0671    0.0000 H   0  0  0  0  0  0  0  0  0  0  0  0
    6.7634    4.0330    0.0000 H   0  0  0  0  0  0  0  0  0  0  0  0
    6.7740    4.8312    0.0000 H   0  0  0  0  0  0  0  0  0  0  0  0
    7.5202    0.8887    0.0000 H   0  0  0  0  0  0  0  0  0  0  0  0
    7.9361    1.6064    0.0000 H   0  0  0  0  0  0  0  0  0  0  0  0
    5.4740    5.8834    0.0000 H   0  0  0  0  0  0  0  0  0  0  0  0
    2.5612    4.1972    0.0000 H   0  0  0  0  0  0  0  0  0  0  0  0
    3.2594    3.8103    0.0000 H   0  0  0  0  0  0  0  0  0  0  0  0
    4.7172    1.2591    0.0000 H   0  0  0  0  0  0  0  0  0  0  0  0
    4.9427    0.4117    0.0000 H   0  0  0  0  0  0  0  0  0  0  0  0
    5.7900    0.6372    0.0000 H   0  0  0  0  0  0  0  0  0  0  0  0
    4.8268    6.2872    0.0000 H   0  0  0  0  0  0  0  0  0  0  0  0
    5.7523    0.5118    0.0000 H   0  0  0  0  0  0  0  0  0  0  0  0
    3.1914    3.8797    0.0000 H   0  0  0  0  0  0  0  0  0  0  0  0
    3.4234    3.0342    0.0000 H   0  0  0  0  0  0  0  0  0  0  0  0
    4.2690    3.2662    0.0000 H   0  0  0  0  0  0  0  0  0  0  0  0
    2.1066    5.7453    0.0000 H   0  0  0  0  0  0  0  0  0  0  0  0
    2.1145    4.9471    0.0000 H   0  0  0  0  0  0  0  0  0  0  0  0
    3.4317    6.8307    0.0000 H   0  0  0  0  0  0  0  0  0  0  0  0
    7.0691    4.0800    0.0000 H   0  0  0  0  0  0  0  0  0  0  0  0
    7.5310   -0.8044    0.0000 H   0  0  0  0  0  0  0  0  0  0  0  0
    7.2847   -0.0464    0.0000 H   0  0  0  0  0  0  0  0  0  0  0  0
    8.5625    2.9405    0.0000 H   0  0  0  0  0  0  0  0  0  0  0  0
    5.0704    0.3776    0.0000 H   0  0  0  0  0  0  0  0  0  0  0  0
    4.6723   -0.4036    0.0000 H   0  0  0  0  0  0  0  0  0  0  0  0
    5.4536   -0.8017    0.0000 H   0  0  0  0  0  0  0  0  0  0  0  0
    6.9069    6.2051    0.0000 H   0  0  0  0  0  0  0  0  0  0  0  0
    4.4047    7.6937    0.0000 H   0  0  0  0  0  0  0  0  0  0  0  0
    6.1734   -1.3180    0.0000 H   0  0  0  0  0  0  0  0  0  0  0  0
    6.4197   -2.0761    0.0000 H   0  0  0  0  0  0  0  0  0  0  0  0
    2.0000    7.1574    0.0000 H   0  0  0  0  0  0  0  0  0  0  0  0
    6.9018   -2.4110    0.0000 H   0  0  0  0  0  0  0  0  0  0  0  0
    8.3136   -2.5169    0.0000 H   0  0  0  0  0  0  0  0  0  0  0  0
    9.2568   -1.0612    0.0000 H   0  0  0  0  0  0  0  0  0  0  0  0
    8.7793   -0.3258    0.0000 H   0  0  0  0  0  0  0  0  0  0  0  0
    8.0439   -0.8034    0.0000 H   0  0  0  0  0  0  0  0  0  0  0  0
    8.7708   -3.0403    0.0000 H   0  0  0  0  0  0  0  0  0  0  0  0
    9.6464   -2.9944    0.0000 H   0  0  0  0  0  0  0  0  0  0  0  0
    9.6005   -2.1188    0.0000 H   0  0  0  0  0  0  0  0  0  0  0  0
    6.4294   -2.8942    0.0000 H   0  0  0  0  0  0  0  0  0  0  0  0
    5.7420   -5.0101    0.0000 H   0  0  0  0  0  0  0  0  0  0  0  0
    4.4111   -4.3607    0.0000 H   0  0  0  0  0  0  0  0  0  0  0  0
    4.6174   -2.8942    0.0000 H   0  0  0  0  0  0  0  0  0  0  0  0
    3.1437   -3.2192    0.0000 H   0  0  0  0  0  0  0  0  0  0  0  0
    3.6771   -3.8115    0.0000 H   0  0  0  0  0  0  0  0  0  0  0  0
    7.3536   -5.7285    0.0000 H   0  0  0  0  0  0  0  0  0  0  0  0
    3.8190   -5.2018    0.0000 H   0  0  0  0  0  0  0  0  0  0  0  0
    8.5579   -6.4727    0.0000 H   0  0  0  0  0  0  0  0  0  0  0  0
    2.9658   -2.0278    0.0000 H   0  0  0  0  0  0  0  0  0  0  0  0
    9.8046   -5.8018    0.0000 H   0  0  0  0  0  0  0  0  0  0  0  0
    9.8470   -4.3867    0.0000 H   0  0  0  0  0  0  0  0  0  0  0  0
    9.5642   -3.8723    0.0000 H   0  0  0  0  0  0  0  0  0  0  0  0
    8.8361   -3.5481    0.0000 H   0  0  0  0  0  0  0  0  0  0  0  0
   10.3924   -6.6108    0.0000 H   0  0  0  0  0  0  0  0  0  0  0  0
    7.8730   -8.0581    0.0000 H   0  0  0  0  0  0  0  0  0  0  0  0
    8.7390   -8.1953    0.0000 H   0  0  0  0  0  0  0  0  0  0  0  0
    8.8762   -7.3293    0.0000 H   0  0  0  0  0  0  0  0  0  0  0  0
   11.5624   -4.1872    0.0000 H   0  0  0  0  0  0  0  0  0  0  0  0
   11.2482   -3.3686    0.0000 H   0  0  0  0  0  0  0  0  0  0  0  0
   10.4296   -3.6828    0.0000 H   0  0  0  0  0  0  0  0  0  0  0  0
 15  1  1  6  0  0  0
  1 81  1  0  0  0  0
 24  2  1  6  0  0  0
  2 84  1  0  0  0  0
 27  3  1  1  0  0  0
  3 88  1  0  0  0  0
 30  4  1  6  0  0  0
  4 89  1  0  0  0  0
 34  5  1  6  0  0  0
  5 92  1  0  0  0  0
 38  6  1  1  0  0  0
 42  6  1  1  0  0  0
  7 42  1  0  0  0  0
  7 45  1  0  0  0  0
 43  8  1  6  0  0  0
 47  8  1  6  0  0  0
 44  9  1  1  0  0  0
  9108  1  0  0  0  0
 10 46  1  0  0  0  0
 10110  1  0  0  0  0
 11 47  1  0  0  0  0
 11 51  1  0  0  0  0
 48 12  1  1  0  0  0
 12 52  1  0  0  0  0
 49 13  1  6  0  0  0
 13115  1  0  0  0  0
 50 14  1  1  0  0  0
 14 53  1  0  0  0  0
 15 16  1  0  0  0  0
 15 18  1  0  0  0  0
 15 25  1  0  0  0  0
 16 17  1  0  0  0  0
 16 24  1  0  0  0  0
 16 54  1  1  0  0  0
 17 20  1  0  0  0  0
 17 22  1  0  0  0  0
 17 29  1  6  0  0  0
 18 19  1  0  0  0  0
 18 23  1  0  0  0  0
 18 55  1  1  0  0  0
 19 21  1  0  0  0  0
 19 28  1  0  0  0  0
 19 32  1  6  0  0  0
 20 26  1  0  0  0  0
 20 31  1  0  0  0  0
 20 56  1  1  0  0  0
 21 27  1  0  0  0  0
 21 30  1  0  0  0  0
 21 57  1  1  0  0  0
 22 23  1  0  0  0  0
 22 58  1  0  0  0  0
 22 59  1  0  0  0  0
 23 60  1  0  0  0  0
 23 61  1  0  0  0  0
 24 26  1  0  0  0  0
 24 62  1  0  0  0  0
 25 27  1  0  0  0  0
 25 63  1  0  0  0  0
 25 64  1  0  0  0  0
 26 65  1  0  0  0  0
 26 66  1  0  0  0  0
 27 67  1  0  0  0  0
 28 33  1  0  0  0  0
 28 68  1  0  0  0  0
 28 69  1  0  0  0  0
 29 70  1  0  0  0  0
 29 71  1  0  0  0  0
 29 72  1  0  0  0  0
 30 34  1  0  0  0  0
 30 73  1  0  0  0  0
 31 35  1  0  0  0  0
 31 36  1  1  0  0  0
 31 74  1  0  0  0  0
 32 75  1  0  0  0  0
 32 76  1  0  0  0  0
 32 77  1  0  0  0  0
 33 34  1  0  0  0  0
 33 78  1  0  0  0  0
 33 79  1  0  0  0  0
 34 80  1  0  0  0  0
 35 37  1  0  0  0  0
 35 82  1  0  0  0  0
 35 83  1  0  0  0  0
 36 85  1  0  0  0  0
 36 86  1  0  0  0  0
 36 87  1  0  0  0  0
 37 38  1  0  0  0  0
 37 90  1  0  0  0  0
 37 91  1  0  0  0  0
 38 39  1  0  0  0  0
 38 93  1  0  0  0  0
 39 40  1  0  0  0  0
 39 41  1  0  0  0  0
 39 94  1  0  0  0  0
 40 95  1  0  0  0  0
 40 96  1  0  0  0  0
 40 97  1  0  0  0  0
 41 98  1  0  0  0  0
 41 99  1  0  0  0  0
 41100  1  0  0  0  0
 42 43  1  0  0  0  0
 42101  1  0  0  0  0
 43 44  1  0  0  0  0
 43102  1  0  0  0  0
 44 45  1  0  0  0  0
 44103  1  0  0  0  0
 45 46  1  6  0  0  0
 45104  1  0  0  0  0
 46105  1  0  0  0  0
 46106  1  0  0  0  0
 47 48  1  0  0  0  0
 47107  1  0  0  0  0
 48 49  1  0  0  0  0
 48109  1  0  0  0  0
 49 50  1  0  0  0  0
 49111  1  0  0  0  0
 50 51  1  0  0  0  0
 50112  1  0  0  0  0
 51113  1  0  0  0  0
 51114  1  0  0  0  0
 52116  1  0  0  0  0
 52117  1  0  0  0  0
 52118  1  0  0  0  0
 53119  1  0  0  0  0
 53120  1  0  0  0  0
 53121  1  0  0  0  0
M  END
> <PUBCHEM_COMPOUND_CID>
505375
> <PUBCHEM_COMPOUND_CANONICALIZED>
1
> <PUBCHEM_CACTVS_COMPLEXITY>
1230
> <PUBCHEM_CACTVS_HBOND_ACCEPTOR>
14
> <PUBCHEM_CACTVS_HBOND_DONOR>
8
> <PUBCHEM_CACTVS_ROTATABLE_BOND>
12
> <PUBCHEM_CACTVS_SUBSKEYS>
AAADcfB8PAAAAAAAAAAAAAAAAAAAAaIAAAA0YMEAAAAAAGDAAAAAGgAACAAAD1SwgAMCCAAABgAAAAAAAAAAAAAAAAAAAAAAAAAREAIAAAAiQAAFAAAHAAHA4PwPgAAAAAAAAADAAAYQADCAAYAADAAAAA==
> <PUBCHEM_IUPAC_OPENEYE_NAME>
(3S,4R,5S,6S,8S,9R,10S,13R,14S,15R,17R)-17-[(1R,4S)-4-[(2R,3R,4S,5S)-4-hydroxy-3-[(2S,3R,4S,5R)-4-hydroxy-3,5-dimethoxy-tetrahydropyran-2-yl]oxy-5-(hydroxymethyl)tetrahydrofuran-2-yl]oxy-1,5-dimethyl-hexyl]-10,13-dimethyl-1,2,3,4,5,6,7,9,11,12,14,15,16,17-tetradecahydrocyclopenta[a]phenanthrene-3,4,6,8,15-pentol
> <PUBCHEM_IUPAC_CAS_NAME>
(3S,4R,5S,6S,8S,9R,10S,13R,14S,15R,17R)-17-[(2R,5S)-5-[[(2R,3R,4S,5S)-4-hydroxy-3-[[(2S,3R,4S,5R)-4-hydroxy-3,5-dimethoxy-2-oxanyl]oxy]-5-(hydroxymethyl)-2-oxolanyl]oxy]-6-methylheptan-2-yl]-10,13-dimethyl-1,2,3,4,5,6,7,9,11,12,14,15,16,17-tetradecahydrocyclopenta[a]phenanthrene-3,4,6,8,15-pentol
> <PUBCHEM_IUPAC_NAME_MARKUP>
(3<I>S</I>,4<I>R</I>,5<I>S</I>,6<I>S</I>,8<I>S</I>,9<I>R</I>,10<I>S</I>,13<I>R</I>,14<I>S</I>,15<I>R</I>,17<I>R</I>)-17-[(2<I>R</I>,5<I>S</I>)-5-[(2<I>R</I>,3<I>R</I>,4<I>S</I>,5<I>S</I>)-4-hydroxy-3-[(2<I>S</I>,3<I>R</I>,4<I>S</I>,5<I>R</I>)-4-hydroxy-3,5-dimethoxyoxan-2-yl]oxy-5-(hydroxymethyl)oxolan-2-yl]oxy-6-methylheptan-2-yl]-10,13-dimethyl-1,2,3,4,5,6,7,9,11,12,14,15,16,17-tetradecahydrocyclopenta[a]phenanthrene-3,4,6,8,15-pentol
> <PUBCHEM_IUPAC_NAME>
(3S,4R,5S,6S,8S,9R,10S,13R,14S,15R,17R)-17-[(2R,5S)-5-[(2R,3R,4S,5S)-4-hydroxy-3-[(2S,3R,4S,5R)-4-hydroxy-3,5-dimethoxyoxan-2-yl]oxy-5-(hydroxymethyl)oxolan-2-yl]oxy-6-methylheptan-2-yl]-10,13-dimethyl-1,2,3,4,5,6,7,9,11,12,14,15,16,17-tetradecahydrocyclopenta[a]phenanthrene-3,4,6,8,15-pentol
> <PUBCHEM_IUPAC_SYSTEMATIC_NAME>
(3S,4R,5S,6S,8S,9R,10S,13R,14S,15R,17R)-17-[(2R,5S)-5-[(2R,3R,4S,5S)-3-[(2S,3R,4S,5R)-3,5-dimethoxy-4-oxidanyl-oxan-2-yl]oxy-5-(hydroxymethyl)-4-oxidanyl-oxolan-2-yl]oxy-6-methyl-heptan-2-yl]-10,13-dimethyl-1,2,3,4,5,6,7,9,11,12,14,15,16,17-tetradecahydrocyclopenta[a]phenanthrene-3,4,6,8,15-pentol
> <PUBCHEM_IUPAC_TRADITIONAL_NAME>
(3S,4R,5S,6S,8S,9R,10S,13R,14S,15R,17R)-17-[(1R,4S)-4-[(2R,3R,4S,5S)-4-hydroxy-3-[(2S,3R,4S,5R)-4-hydroxy-3,5-dimethoxy-tetrahydropyran-2-yl]oxy-5-methylol-tetrahydrofuran-2-yl]oxy-1,5-dimethyl-hexyl]-10,13-dimethyl-1,2,3,4,5,6,7,9,11,12,14,15,16,17-tetradecahydrocyclopenta[a]phenanthrene-3,4,6,8,15-pentol
> <PUBCHEM_IUPAC_INCHI>
InChI=1S/C39H68O14/c1-18(2)24(51-36-33(30(45)25(16-40)52-36)53-35-32(49-7)31(46)26(48-6)17-50-35)9-8-19(3)20-14-22(42)34-37(20,4)13-11-27-38(5)12-10-21(41)29(44)28(38)23(43)15-39(27,34)47/h18-36,40-47H,8-17H2,1-7H3/t19-,20-,21+,22-,23+,24+,25+,26-,27-,28+,29+,30+,31+,32-,33-,34-,35+,36-,37-,38-,39+/m1/s1
> <PUBCHEM_IUPAC_INCHIKEY>
WRQWUNHMUXGXID-RNZYKZAGSA-N
> <PUBCHEM_XLOGP3_AA>
1.5
> <PUBCHEM_EXACT_MASS>
760.46090684
> <PUBCHEM_MOLECULAR_FORMULA>
C39H68O14
> <PUBCHEM_MOLECULAR_WEIGHT>
760.9
> <PUBCHEM_OPENEYE_CAN_SMILES>
CC(C)C(CCC(C)C1CC(C2C1(CCC3C2(CC(C4C3(CCC(C4O)O)C)O)O)C)O)OC5C(C(C(O5)CO)O)OC6C(C(C(CO6)OC)O)OC
> <PUBCHEM_OPENEYE_ISO_SMILES>
C[C@H](CC[C@@H](C(C)C)O[C@H]1[C@@H]([C@H]([C@@H](O1)CO)O)O[C@H]2[C@@H]([C@H]([C@@H](CO2)OC)O)OC)[C@H]3C[C@H]([C@@H]4[C@@]3(CC[C@H]5[C@]4(C[C@@H]([C@@H]6[C@@]5(CC[C@@H]([C@@H]6O)O)C)O)O)C)O
> <PUBCHEM_CACTVS_TPSA>
217
> <PUBCHEM_MONOISOTOPIC_WEIGHT>
760.46090684
> <PUBCHEM_TOTAL_CHARGE>
0
> <PUBCHEM_HEAVY_ATOM_COUNT>
53
> <PUBCHEM_ATOM_DEF_STEREO_COUNT>
21
> <PUBCHEM_ATOM_UDEF_STEREO_COUNT>
0
> <PUBCHEM_BOND_DEF_STEREO_COUNT>
0
> <PUBCHEM_BOND_UDEF_STEREO_COUNT>
0
> <PUBCHEM_ISOTOPIC_ATOM_COUNT>
0
> <PUBCHEM_COMPONENT_COUNT>
1
> <PUBCHEM_CACTVS_TAUTO_COUNT>
1
> <PUBCHEM_COORDINATE_TYPE>
1
5
255
> <PUBCHEM_BONDANNOTATIONS>
15  1  6
48  12  5
49  13  6
50  14  5
16  54  5
17  29  6
18  55  5
19  32  6
24  2  6
20  56  5
21  57  5
27  3  5
31  36  5
30  4  6
45  46  6
34  5  6
38  6  5
42  6  5
43  8  6
47  8  6
44  9  5
$$$$
