505358
  -OEChem-10302200282D
185187  0     1  0  0  0  0  0999 V2000
    6.3301   -1.8675    0.0000 O   0  0  0  0  0  0  0  0  0  0  0  0
    6.3301   -2.8675    0.0000 O   0  0  0  0  0  0  0  0  0  0  0  0
    7.4321   -1.0669    0.0000 O   0  0  0  0  0  0  0  0  0  0  0  0
    7.4321   -3.6681    0.0000 O   0  0  0  0  0  0  0  0  0  0  0  0
    9.4536    1.9186    0.0000 O   0  0  0  0  0  0  0  0  0  0  0  0
    9.4536   -6.6537    0.0000 O   0  0  0  0  0  0  0  0  0  0  0  0
   12.5147    0.0135    0.0000 O   0  0  0  0  0  0  0  0  0  0  0  0
   15.6952    1.7118    0.0000 O   0  0  0  0  0  0  0  0  0  0  0  0
   14.1204    4.9553    0.0000 O   0  0  0  0  0  0  0  0  0  0  0  0
   17.3009    6.6537    0.0000 O   0  0  0  0  0  0  0  0  0  0  0  0
   15.7261    9.8971    0.0000 O   0  0  0  0  0  0  0  0  0  0  0  0
   20.2735    9.3302    0.0000 O   0  0  0  0  0  0  0  0  0  0  0  0
   19.7382    7.6829    0.0000 O   0  0  0  0  0  0  0  0  0  0  0  0
    5.4641   -0.3675    0.0000 N   0  0  0  0  0  0  0  0  0  0  0  0
    6.2731   -4.9553    0.0000 N   0  0  0  0  0  0  0  0  0  0  0  0
    4.5981   -2.8675    0.0000 N   0  0  0  0  0  0  0  0  0  0  0  0
    7.9673    0.5804    0.0000 N   0  0  0  0  0  0  0  0  0  0  0  0
    8.9184   -5.0064    0.0000 N   0  0  0  0  0  0  0  0  0  0  0  0
   10.6126    0.6315    0.0000 N   0  0  0  0  0  0  0  0  0  0  0  0
    9.0378   -8.6100    0.0000 N   0  0  0  0  0  0  0  0  0  0  0  0
   11.2363   -2.3030    0.0000 N   0  0  0  0  0  0  0  0  0  0  0  0
   13.0499    1.6607    0.0000 N   0  0  0  0  0  0  0  0  0  0  0  0
   14.5362    2.9990    0.0000 N   0  0  0  0  0  0  0  0  0  0  0  0
   15.8146    5.3154    0.0000 N   0  0  0  0  0  0  0  0  0  0  0  0
    9.5730  -10.2572    0.0000 N   0  0  0  0  0  0  0  0  0  0  0  0
    7.8788   -9.8971    0.0000 N   0  0  0  0  0  0  0  0  0  0  0  0
   16.1419    7.9408    0.0000 N   0  0  0  0  0  0  0  0  0  0  0  0
   15.4690   -0.8865    0.0000 N   0  0  0  0  0  0  0  0  0  0  0  0
   12.3953   -3.5901    0.0000 N   0  0  0  0  0  0  0  0  0  0  0  0
   10.7011   -3.9502    0.0000 N   0  0  0  0  0  0  0  0  0  0  0  0
   16.7780    0.0646    0.0000 N   0  0  0  0  0  0  0  0  0  0  0  0
   12.3377    9.1769    0.0000 N   0  0  0  0  0  0  0  0  0  0  0  0
   17.4203   10.2572    0.0000 N   0  0  0  0  0  0  0  0  0  0  0  0
    6.2731    0.2203    0.0000 C   0  0  1  0  0  0  0  0  0  0  0  0
    5.4641   -4.3675    0.0000 C   0  0  1  0  0  0  0  0  0  0  0  0
    5.9641    1.1713    0.0000 C   0  0  0  0  0  0  0  0  0  0  0  0
    4.6551    0.2203    0.0000 C   0  0  0  0  0  0  0  0  0  0  0  0
    4.9641    1.1713    0.0000 C   0  0  0  0  0  0  0  0  0  0  0  0
    4.6551   -4.9553    0.0000 C   0  0  0  0  0  0  0  0  0  0  0  0
    4.5981   -1.8675    0.0000 C   0  0  2  0  0  0  0  0  0  0  0  0
    4.9641   -5.9064    0.0000 C   0  0  0  0  0  0  0  0  0  0  0  0
    5.9641   -5.9064    0.0000 C   0  0  0  0  0  0  0  0  0  0  0  0
    5.4641   -1.3675    0.0000 C   0  0  0  0  0  0  0  0  0  0  0  0
    3.7320   -1.3675    0.0000 C   0  0  0  0  0  0  0  0  0  0  0  0
    5.4641   -3.3675    0.0000 C   0  0  0  0  0  0  0  0  0  0  0  0
    7.2242   -0.0887    0.0000 C   0  0  0  0  0  0  0  0  0  0  0  0
    2.8660   -1.8675    0.0000 C   0  0  0  0  0  0  0  0  0  0  0  0
    7.2242   -4.6463    0.0000 C   0  0  0  0  0  0  0  0  0  0  0  0
    7.9673   -5.3154    0.0000 C   0  0  2  0  0  0  0  0  0  0  0  0
    7.7594   -6.2936    0.0000 C   0  0  0  0  0  0  0  0  0  0  0  0
    8.9184    0.2714    0.0000 C   0  0  1  0  0  0  0  0  0  0  0  0
    2.0000   -1.3675    0.0000 C   0  0  0  0  0  0  0  0  0  0  0  0
    2.8660   -2.8675    0.0000 C   0  0  0  0  0  0  0  0  0  0  0  0
    9.1263   -0.7068    0.0000 C   0  0  0  0  0  0  0  0  0  0  0  0
    8.5026   -6.9627    0.0000 C   0  0  0  0  0  0  0  0  0  0  0  0
    9.6615    0.9405    0.0000 C   0  0  0  0  0  0  0  0  0  0  0  0
   10.0773   -1.0158    0.0000 C   0  0  0  0  0  0  0  0  0  0  0  0
    8.2946   -7.9408    0.0000 C   0  0  0  0  0  0  0  0  0  0  0  0
    9.6615   -5.6755    0.0000 C   0  0  0  0  0  0  0  0  0  0  0  0
   10.2853   -1.9939    0.0000 C   0  0  0  0  0  0  0  0  0  0  0  0
   11.3557    1.3006    0.0000 C   0  0  2  0  0  0  0  0  0  0  0  0
   10.6126   -5.3665    0.0000 C   0  0  0  0  0  0  0  0  0  0  0  0
   12.3068    0.9916    0.0000 C   0  0  0  0  0  0  0  0  0  0  0  0
   11.1478    2.2788    0.0000 C   0  0  0  0  0  0  0  0  0  0  0  0
   15.2794    3.6681    0.0000 C   0  0  1  0  0  0  0  0  0  0  0  0
   16.2304    3.3591    0.0000 C   0  0  2  0  0  0  0  0  0  0  0  0
   14.0010    1.3517    0.0000 C   0  0  2  0  0  0  0  0  0  0  0  0
   16.9736    4.0282    0.0000 C   0  0  0  0  0  0  0  0  0  0  0  0
   14.7441    2.0208    0.0000 C   0  0  0  0  0  0  0  0  0  0  0  0
    8.8299   -9.5881    0.0000 C   0  0  0  0  0  0  0  0  0  0  0  0
   15.0714    4.6463    0.0000 C   0  0  0  0  0  0  0  0  0  0  0  0
   14.2089    0.3736    0.0000 C   0  0  0  0  0  0  0  0  0  0  0  0
   15.6067    6.2936    0.0000 C   0  0  1  0  0  0  0  0  0  0  0  0
   16.4383    2.3810    0.0000 C   0  0  0  0  0  0  0  0  0  0  0  0
   14.6556    6.6026    0.0000 C   0  0  0  0  0  0  0  0  0  0  0  0
   11.4442   -3.2811    0.0000 C   0  0  0  0  0  0  0  0  0  0  0  0
   14.4477    7.5807    0.0000 C   0  0  0  0  0  0  0  0  0  0  0  0
   17.9246    3.7192    0.0000 C   0  0  0  0  0  0  0  0  0  0  0  0
   15.1599    0.0646    0.0000 C   0  0  0  0  0  0  0  0  0  0  0  0
   16.3498    6.9627    0.0000 C   0  0  0  0  0  0  0  0  0  0  0  0
   13.4967    7.8897    0.0000 C   0  0  0  0  0  0  0  0  0  0  0  0
   16.8851    8.6100    0.0000 C   0  0  1  0  0  0  0  0  0  0  0  0
   13.2887    8.8679    0.0000 C   0  0  0  0  0  0  0  0  0  0  0  0
   15.9690    0.6523    0.0000 C   0  0  0  0  0  0  0  0  0  0  0  0
   17.8361    8.3009    0.0000 C   0  0  0  0  0  0  0  0  0  0  0  0
   16.4690   -0.8865    0.0000 C   0  0  0  0  0  0  0  0  0  0  0  0
   16.6771    9.5881    0.0000 C   0  0  0  0  0  0  0  0  0  0  0  0
   18.5793    8.9701    0.0000 C   0  0  0  0  0  0  0  0  0  0  0  0
   19.5303    8.6611    0.0000 C   0  0  0  0  0  0  0  0  0  0  0  0
    6.3701   -0.3921    0.0000 H   0  0  0  0  0  0  0  0  0  0  0  0
    6.0165   -4.0860    0.0000 H   0  0  0  0  0  0  0  0  0  0  0  0
    6.5706    1.3002    0.0000 H   0  0  0  0  0  0  0  0  0  0  0  0
    5.8993    1.7879    0.0000 H   0  0  0  0  0  0  0  0  0  0  0  0
    4.0887    0.4725    0.0000 H   0  0  0  0  0  0  0  0  0  0  0  0
    4.3451   -0.3167    0.0000 H   0  0  0  0  0  0  0  0  0  0  0  0
    5.0289    1.7879    0.0000 H   0  0  0  0  0  0  0  0  0  0  0  0
    4.3576    1.3002    0.0000 H   0  0  0  0  0  0  0  0  0  0  0  0
    4.3451   -4.4184    0.0000 H   0  0  0  0  0  0  0  0  0  0  0  0
    4.0887   -5.2075    0.0000 H   0  0  0  0  0  0  0  0  0  0  0  0
    5.1350   -2.1775    0.0000 H   0  0  0  0  0  0  0  0  0  0  0  0
    4.3576   -6.0352    0.0000 H   0  0  0  0  0  0  0  0  0  0  0  0
    5.0289   -6.5230    0.0000 H   0  0  0  0  0  0  0  0  0  0  0  0
    5.8993   -6.5230    0.0000 H   0  0  0  0  0  0  0  0  0  0  0  0
    6.5706   -6.0352    0.0000 H   0  0  0  0  0  0  0  0  0  0  0  0
    4.1306   -0.8926    0.0000 H   0  0  0  0  0  0  0  0  0  0  0  0
    3.3335   -0.8926    0.0000 H   0  0  0  0  0  0  0  0  0  0  0  0
    4.0611   -3.1775    0.0000 H   0  0  0  0  0  0  0  0  0  0  0  0
    2.8660   -1.2475    0.0000 H   0  0  0  0  0  0  0  0  0  0  0  0
    8.0962   -4.7090    0.0000 H   0  0  0  0  0  0  0  0  0  0  0  0
    7.8384    1.1868    0.0000 H   0  0  0  0  0  0  0  0  0  0  0  0
    7.1846   -6.0613    0.0000 H   0  0  0  0  0  0  0  0  0  0  0  0
    7.4309   -6.8193    0.0000 H   0  0  0  0  0  0  0  0  0  0  0  0
    8.4576   -0.1435    0.0000 H   0  0  0  0  0  0  0  0  0  0  0  0
    2.3100   -0.8306    0.0000 H   0  0  0  0  0  0  0  0  0  0  0  0
    1.4631   -1.0575    0.0000 H   0  0  0  0  0  0  0  0  0  0  0  0
    1.6900   -1.9044    0.0000 H   0  0  0  0  0  0  0  0  0  0  0  0
    2.2460   -2.8675    0.0000 H   0  0  0  0  0  0  0  0  0  0  0  0
    2.8660   -3.4875    0.0000 H   0  0  0  0  0  0  0  0  0  0  0  0
    3.4860   -2.8675    0.0000 H   0  0  0  0  0  0  0  0  0  0  0  0
    9.0473   -4.3999    0.0000 H   0  0  0  0  0  0  0  0  0  0  0  0
    8.5067   -0.7284    0.0000 H   0  0  0  0  0  0  0  0  0  0  0  0
    9.0400   -1.3207    0.0000 H   0  0  0  0  0  0  0  0  0  0  0  0
    9.0774   -7.1949    0.0000 H   0  0  0  0  0  0  0  0  0  0  0  0
    8.8311   -6.4369    0.0000 H   0  0  0  0  0  0  0  0  0  0  0  0
   10.6970   -0.9942    0.0000 H   0  0  0  0  0  0  0  0  0  0  0  0
   10.1636   -0.4018    0.0000 H   0  0  0  0  0  0  0  0  0  0  0  0
    7.7198   -7.7086    0.0000 H   0  0  0  0  0  0  0  0  0  0  0  0
    7.9661   -8.4666    0.0000 H   0  0  0  0  0  0  0  0  0  0  0  0
   10.7415    0.0250    0.0000 H   0  0  0  0  0  0  0  0  0  0  0  0
    9.6656   -2.0156    0.0000 H   0  0  0  0  0  0  0  0  0  0  0  0
   10.1990   -2.6079    0.0000 H   0  0  0  0  0  0  0  0  0  0  0  0
   10.7661    1.4922    0.0000 H   0  0  0  0  0  0  0  0  0  0  0  0
   10.8042   -5.9562    0.0000 H   0  0  0  0  0  0  0  0  0  0  0  0
   11.2022   -5.1749    0.0000 H   0  0  0  0  0  0  0  0  0  0  0  0
   10.4210   -4.7768    0.0000 H   0  0  0  0  0  0  0  0  0  0  0  0
   11.7543    2.4077    0.0000 H   0  0  0  0  0  0  0  0  0  0  0  0
   11.0189    2.8852    0.0000 H   0  0  0  0  0  0  0  0  0  0  0  0
   10.5414    2.1499    0.0000 H   0  0  0  0  0  0  0  0  0  0  0  0
   15.4083    3.0617    0.0000 H   0  0  0  0  0  0  0  0  0  0  0  0
   16.8201    3.1675    0.0000 H   0  0  0  0  0  0  0  0  0  0  0  0
   13.8721    1.9582    0.0000 H   0  0  0  0  0  0  0  0  0  0  0  0
   12.9210    2.2672    0.0000 H   0  0  0  0  0  0  0  0  0  0  0  0
   17.2646    4.5757    0.0000 H   0  0  0  0  0  0  0  0  0  0  0  0
   16.4850    4.4100    0.0000 H   0  0  0  0  0  0  0  0  0  0  0  0
   13.9466    3.1906    0.0000 H   0  0  0  0  0  0  0  0  0  0  0  0
   13.5893    0.3519    0.0000 H   0  0  0  0  0  0  0  0  0  0  0  0
   14.1226   -0.2404    0.0000 H   0  0  0  0  0  0  0  0  0  0  0  0
   16.1963    6.1020    0.0000 H   0  0  0  0  0  0  0  0  0  0  0  0
   15.8319    2.2521    0.0000 H   0  0  0  0  0  0  0  0  0  0  0  0
   16.5672    1.7745    0.0000 H   0  0  0  0  0  0  0  0  0  0  0  0
   17.0448    2.5099    0.0000 H   0  0  0  0  0  0  0  0  0  0  0  0
   14.0360    6.5809    0.0000 H   0  0  0  0  0  0  0  0  0  0  0  0
   14.5693    5.9886    0.0000 H   0  0  0  0  0  0  0  0  0  0  0  0
   16.4042    5.1238    0.0000 H   0  0  0  0  0  0  0  0  0  0  0  0
   15.0673    7.6024    0.0000 H   0  0  0  0  0  0  0  0  0  0  0  0
   14.5340    8.1947    0.0000 H   0  0  0  0  0  0  0  0  0  0  0  0
   17.7330    3.1296    0.0000 H   0  0  0  0  0  0  0  0  0  0  0  0
   18.5143    3.5276    0.0000 H   0  0  0  0  0  0  0  0  0  0  0  0
   18.1162    4.3089    0.0000 H   0  0  0  0  0  0  0  0  0  0  0  0
   12.8770    7.8681    0.0000 H   0  0  0  0  0  0  0  0  0  0  0  0
   13.4104    7.2758    0.0000 H   0  0  0  0  0  0  0  0  0  0  0  0
    9.4441  -10.8637    0.0000 H   0  0  0  0  0  0  0  0  0  0  0  0
   10.1627  -10.0656    0.0000 H   0  0  0  0  0  0  0  0  0  0  0  0
    7.7499  -10.5036    0.0000 H   0  0  0  0  0  0  0  0  0  0  0  0
    7.4181   -9.4823    0.0000 H   0  0  0  0  0  0  0  0  0  0  0  0
   15.5523    8.1324    0.0000 H   0  0  0  0  0  0  0  0  0  0  0  0
   16.2954    8.8016    0.0000 H   0  0  0  0  0  0  0  0  0  0  0  0
   13.9084    8.8895    0.0000 H   0  0  0  0  0  0  0  0  0  0  0  0
   13.3750    9.4818    0.0000 H   0  0  0  0  0  0  0  0  0  0  0  0
   15.1045   -1.3881    0.0000 H   0  0  0  0  0  0  0  0  0  0  0  0
   15.9690    1.2723    0.0000 H   0  0  0  0  0  0  0  0  0  0  0  0
   12.5242   -4.1966    0.0000 H   0  0  0  0  0  0  0  0  0  0  0  0
   12.8560   -3.1753    0.0000 H   0  0  0  0  0  0  0  0  0  0  0  0
   10.8300   -4.5567    0.0000 H   0  0  0  0  0  0  0  0  0  0  0  0
   10.1114   -3.7586    0.0000 H   0  0  0  0  0  0  0  0  0  0  0  0
   17.5450    7.7535    0.0000 H   0  0  0  0  0  0  0  0  0  0  0  0
   18.3247    7.9192    0.0000 H   0  0  0  0  0  0  0  0  0  0  0  0
   16.8334   -1.3881    0.0000 H   0  0  0  0  0  0  0  0  0  0  0  0
   18.8703    9.5175    0.0000 H   0  0  0  0  0  0  0  0  0  0  0  0
   18.0907    9.3518    0.0000 H   0  0  0  0  0  0  0  0  0  0  0  0
   12.2088    9.7834    0.0000 H   0  0  0  0  0  0  0  0  0  0  0  0
   11.8769    8.7620    0.0000 H   0  0  0  0  0  0  0  0  0  0  0  0
   17.2914   10.8637    0.0000 H   0  0  0  0  0  0  0  0  0  0  0  0
   18.0099   10.0656    0.0000 H   0  0  0  0  0  0  0  0  0  0  0  0
   20.8631    9.1386    0.0000 H   0  0  0  0  0  0  0  0  0  0  0  0
  1 43  2  0  0  0  0
  2 45  2  0  0  0  0
  3 46  2  0  0  0  0
  4 48  2  0  0  0  0
  5 56  2  0  0  0  0
  6 59  2  0  0  0  0
  7 63  2  0  0  0  0
  8 69  2  0  0  0  0
  9 71  2  0  0  0  0
 10 80  2  0  0  0  0
 11 87  2  0  0  0  0
 12 89  1  0  0  0  0
 12185  1  0  0  0  0
 13 89  2  0  0  0  0
 14 34  1  0  0  0  0
 14 37  1  0  0  0  0
 14 43  1  0  0  0  0
 15 35  1  0  0  0  0
 15 42  1  0  0  0  0
 15 48  1  0  0  0  0
 40 16  1  1  0  0  0
 16 45  1  0  0  0  0
 16107  1  0  0  0  0
 17 46  1  0  0  0  0
 51 17  1  6  0  0  0
 17110  1  0  0  0  0
 49 18  1  1  0  0  0
 18 59  1  0  0  0  0
 18120  1  0  0  0  0
 19 56  1  0  0  0  0
 61 19  1  1  0  0  0
 19129  1  0  0  0  0
 20 58  1  0  0  0  0
 20 70  2  0  0  0  0
 21 60  1  0  0  0  0
 21 76  2  0  0  0  0
 22 63  1  0  0  0  0
 67 22  1  6  0  0  0
 22142  1  0  0  0  0
 65 23  1  6  0  0  0
 23 69  1  0  0  0  0
 23145  1  0  0  0  0
 24 71  1  0  0  0  0
 73 24  1  1  0  0  0
 24154  1  0  0  0  0
 25 70  1  0  0  0  0
 25162  1  0  0  0  0
 25163  1  0  0  0  0
 26 70  1  0  0  0  0
 26164  1  0  0  0  0
 26165  1  0  0  0  0
 27 80  1  0  0  0  0
 82 27  1  6  0  0  0
 27166  1  0  0  0  0
 28 79  1  0  0  0  0
 28 86  1  0  0  0  0
 28170  1  0  0  0  0
 29 76  1  0  0  0  0
 29172  1  0  0  0  0
 29173  1  0  0  0  0
 30 76  1  0  0  0  0
 30174  1  0  0  0  0
 30175  1  0  0  0  0
 31 84  1  0  0  0  0
 31 86  2  0  0  0  0
 32 83  1  0  0  0  0
 32181  1  0  0  0  0
 32182  1  0  0  0  0
 33 87  1  0  0  0  0
 33183  1  0  0  0  0
 33184  1  0  0  0  0
 34 36  1  0  0  0  0
 34 46  1  1  0  0  0
 34 90  1  0  0  0  0
 35 39  1  0  0  0  0
 35 45  1  1  0  0  0
 35 91  1  0  0  0  0
 36 38  1  0  0  0  0
 36 92  1  0  0  0  0
 36 93  1  0  0  0  0
 37 38  1  0  0  0  0
 37 94  1  0  0  0  0
 37 95  1  0  0  0  0
 38 96  1  0  0  0  0
 38 97  1  0  0  0  0
 39 41  1  0  0  0  0
 39 98  1  0  0  0  0
 39 99  1  0  0  0  0
 40 43  1  0  0  0  0
 40 44  1  0  0  0  0
 40100  1  0  0  0  0
 41 42  1  0  0  0  0
 41101  1  0  0  0  0
 41102  1  0  0  0  0
 42103  1  0  0  0  0
 42104  1  0  0  0  0
 44 47  1  0  0  0  0
 44105  1  0  0  0  0
 44106  1  0  0  0  0
 47 52  1  0  0  0  0
 47 53  1  0  0  0  0
 47108  1  0  0  0  0
 48 49  1  0  0  0  0
 49 50  1  0  0  0  0
 49109  1  0  0  0  0
 50 55  1  0  0  0  0
 50111  1  0  0  0  0
 50112  1  0  0  0  0
 51 54  1  0  0  0  0
 51 56  1  0  0  0  0
 51113  1  0  0  0  0
 52114  1  0  0  0  0
 52115  1  0  0  0  0
 52116  1  0  0  0  0
 53117  1  0  0  0  0
 53118  1  0  0  0  0
 53119  1  0  0  0  0
 54 57  1  0  0  0  0
 54121  1  0  0  0  0
 54122  1  0  0  0  0
 55 58  1  0  0  0  0
 55123  1  0  0  0  0
 55124  1  0  0  0  0
 57 60  1  0  0  0  0
 57125  1  0  0  0  0
 57126  1  0  0  0  0
 58127  1  0  0  0  0
 58128  1  0  0  0  0
 59 62  1  0  0  0  0
 60130  1  0  0  0  0
 60131  1  0  0  0  0
 61 63  1  0  0  0  0
 61 64  1  0  0  0  0
 61132  1  0  0  0  0
 62133  1  0  0  0  0
 62134  1  0  0  0  0
 62135  1  0  0  0  0
 64136  1  0  0  0  0
 64137  1  0  0  0  0
 64138  1  0  0  0  0
 65 66  1  0  0  0  0
 65 71  1  0  0  0  0
 65139  1  0  0  0  0
 66 68  1  0  0  0  0
 66 74  1  6  0  0  0
 66140  1  0  0  0  0
 67 69  1  0  0  0  0
 67 72  1  0  0  0  0
 67141  1  0  0  0  0
 68 78  1  0  0  0  0
 68143  1  0  0  0  0
 68144  1  0  0  0  0
 72 79  1  0  0  0  0
 72146  1  0  0  0  0
 72147  1  0  0  0  0
 73 75  1  0  0  0  0
 73 80  1  0  0  0  0
 73148  1  0  0  0  0
 74149  1  0  0  0  0
 74150  1  0  0  0  0
 74151  1  0  0  0  0
 75 77  1  0  0  0  0
 75152  1  0  0  0  0
 75153  1  0  0  0  0
 77 81  1  0  0  0  0
 77155  1  0  0  0  0
 77156  1  0  0  0  0
 78157  1  0  0  0  0
 78158  1  0  0  0  0
 78159  1  0  0  0  0
 79 84  2  0  0  0  0
 81 83  1  0  0  0  0
 81160  1  0  0  0  0
 81161  1  0  0  0  0
 82 85  1  0  0  0  0
 82 87  1  0  0  0  0
 82167  1  0  0  0  0
 83168  1  0  0  0  0
 83169  1  0  0  0  0
 84171  1  0  0  0  0
 85 88  1  0  0  0  0
 85176  1  0  0  0  0
 85177  1  0  0  0  0
 86178  1  0  0  0  0
 88 89  1  0  0  0  0
 88179  1  0  0  0  0
 88180  1  0  0  0  0
M  END
> <PUBCHEM_COMPOUND_CID>
505358
> <PUBCHEM_COMPOUND_CANONICALIZED>
1
> <PUBCHEM_CACTVS_COMPLEXITY>
2500
> <PUBCHEM_CACTVS_HBOND_ACCEPTOR>
17
> <PUBCHEM_CACTVS_HBOND_DONOR>
16
> <PUBCHEM_CACTVS_ROTATABLE_BOND>
39
> <PUBCHEM_CACTVS_SUBSKEYS>
AAADcfB//AAAAAAAAAAAAAAAAAAAAWLFgAAAAAAAAAAAAAABgAAAHgAQCAAADSjBlgQvmBfJkgCoARX3fAAAgC2xEqABUYG4cAiAaBJA2SGUQAAMlgLAQCG8HwAOAAAAAAAAAAAAAAAAAAAAAAAAAAAAAA==
> <PUBCHEM_IUPAC_OPENEYE_NAME>
(4S)-4-[[(2S)-2-[[(2S,3S)-2-[[(2S)-2-[[(2S)-2-[[(2S)-2-[[(2S)-1-[(2S)-2-[[(2S)-1-[(2S)-2-acetamido-5-guanidino-pentanoyl]pyrrolidine-2-carbonyl]amino]-4-methyl-pentanoyl]pyrrolidine-2-carbonyl]amino]-5-guanidino-pentanoyl]amino]propanoyl]amino]-3-(1H-imidazol-5-yl)propanoyl]amino]-3-methyl-pentanoyl]amino]-6-amino-hexanoyl]amino]-5-amino-5-oxo-pentanoic acid
> <PUBCHEM_IUPAC_CAS_NAME>
(4S)-4-[[(2S)-2-[[(2S,3S)-2-[[(2S)-2-[[(2S)-2-[[(2S)-2-[[[(2S)-1-[(2S)-2-[[[(2S)-1-[(2S)-2-acetamido-5-(diaminomethylideneamino)-1-oxopentyl]-2-pyrrolidinyl]-oxomethyl]amino]-4-methyl-1-oxopentyl]-2-pyrrolidinyl]-oxomethyl]amino]-5-(diaminomethylideneamino)-1-oxopentyl]amino]-1-oxopropyl]amino]-3-(1H-imidazol-5-yl)-1-oxopropyl]amino]-3-methyl-1-oxopentyl]amino]-6-amino-1-oxohexyl]amino]-5-amino-5-oxopentanoic acid
> <PUBCHEM_IUPAC_NAME_MARKUP>
(4<I>S</I>)-4-[[(2<I>S</I>)-2-[[(2<I>S</I>,3<I>S</I>)-2-[[(2<I>S</I>)-2-[[(2<I>S</I>)-2-[[(2<I>S</I>)-2-[[(2<I>S</I>)-1-[(2<I>S</I>)-2-[[(2<I>S</I>)-1-[(2<I>S</I>)-2-acetamido-5-(diaminomethylideneamino)pentanoyl]pyrrolidine-2-carbonyl]amino]-4-methylpentanoyl]pyrrolidine-2-carbonyl]amino]-5-(diaminomethylideneamino)pentanoyl]amino]propanoyl]amino]-3-(1<I>H</I>-imidazol-5-yl)propanoyl]amino]-3-methylpentanoyl]amino]-6-aminohexanoyl]amino]-5-amino-5-oxopentanoic acid
> <PUBCHEM_IUPAC_NAME>
(4S)-4-[[(2S)-2-[[(2S,3S)-2-[[(2S)-2-[[(2S)-2-[[(2S)-2-[[(2S)-1-[(2S)-2-[[(2S)-1-[(2S)-2-acetamido-5-(diaminomethylideneamino)pentanoyl]pyrrolidine-2-carbonyl]amino]-4-methylpentanoyl]pyrrolidine-2-carbonyl]amino]-5-(diaminomethylideneamino)pentanoyl]amino]propanoyl]amino]-3-(1H-imidazol-5-yl)propanoyl]amino]-3-methylpentanoyl]amino]-6-aminohexanoyl]amino]-5-amino-5-oxopentanoic acid
> <PUBCHEM_IUPAC_SYSTEMATIC_NAME>
(4S)-4-[[(2S)-2-[[(2S,3S)-2-[[(2S)-2-[[(2S)-2-[[(2S)-2-[[(2S)-1-[(2S)-2-[[(2S)-1-[(2S)-2-acetamido-5-[bis(azanyl)methylideneamino]pentanoyl]pyrrolidin-2-yl]carbonylamino]-4-methyl-pentanoyl]pyrrolidin-2-yl]carbonylamino]-5-[bis(azanyl)methylideneamino]pentanoyl]amino]propanoyl]amino]-3-(1H-imidazol-5-yl)propanoyl]amino]-3-methyl-pentanoyl]amino]-6-azanyl-hexanoyl]amino]-5-azanyl-5-oxidanylidene-pentanoic acid
> <PUBCHEM_IUPAC_TRADITIONAL_NAME>
(4S)-4-[[(2S)-2-[[(2S,3S)-2-[[(2S)-2-[[(2S)-2-[[(2S)-2-[[(2S)-1-[(2S)-2-[[(2S)-1-[(2S)-2-acetamido-5-guanidino-pentanoyl]prolyl]amino]-4-methyl-pentanoyl]prolyl]amino]-5-guanidino-pentanoyl]amino]propanoyl]amino]-3-(1H-imidazol-5-yl)propanoyl]amino]-3-methyl-pentanoyl]amino]-6-amino-hexanoyl]amino]-5-amino-5-keto-valeric acid
> <PUBCHEM_IUPAC_INCHI>
InChI=1S/C56H96N20O13/c1-7-31(4)44(52(87)71-36(14-8-9-21-57)48(83)69-35(45(58)80)19-20-43(78)79)74-49(84)39(27-34-28-63-29-66-34)72-46(81)32(5)67-47(82)37(15-10-22-64-55(59)60)70-50(85)41-17-13-25-76(41)54(89)40(26-30(2)3)73-51(86)42-18-12-24-75(42)53(88)38(68-33(6)77)16-11-23-65-56(61)62/h28-32,35-42,44H,7-27,57H2,1-6H3,(H2,58,80)(H,63,66)(H,67,82)(H,68,77)(H,69,83)(H,70,85)(H,71,87)(H,72,81)(H,73,86)(H,74,84)(H,78,79)(H4,59,60,64)(H4,61,62,65)/t31-,32-,35-,36-,37-,38-,39-,40-,41-,42-,44-/m0/s1
> <PUBCHEM_IUPAC_INCHIKEY>
ZKEBAXPMQSXHCF-HAZIVDFFSA-N
> <PUBCHEM_XLOGP3_AA>
-5.8
> <PUBCHEM_EXACT_MASS>
1256.74657320
> <PUBCHEM_MOLECULAR_FORMULA>
C56H96N20O13
> <PUBCHEM_MOLECULAR_WEIGHT>
1257.5
> <PUBCHEM_OPENEYE_CAN_SMILES>
CCC(C)C(C(=O)NC(CCCCN)C(=O)NC(CCC(=O)O)C(=O)N)NC(=O)C(CC1=CN=CN1)NC(=O)C(C)NC(=O)C(CCCN=C(N)N)NC(=O)C2CCCN2C(=O)C(CC(C)C)NC(=O)C3CCCN3C(=O)C(CCCN=C(N)N)NC(=O)C
> <PUBCHEM_OPENEYE_ISO_SMILES>
CC[C@H](C)[C@@H](C(=O)N[C@@H](CCCCN)C(=O)N[C@@H](CCC(=O)O)C(=O)N)NC(=O)[C@H](CC1=CN=CN1)NC(=O)[C@H](C)NC(=O)[C@H](CCCN=C(N)N)NC(=O)[C@@H]2CCCN2C(=O)[C@H](CC(C)C)NC(=O)[C@@H]3CCCN3C(=O)[C@H](CCCN=C(N)N)NC(=O)C
> <PUBCHEM_CACTVS_TPSA>
537
> <PUBCHEM_MONOISOTOPIC_WEIGHT>
1256.74657320
> <PUBCHEM_TOTAL_CHARGE>
0
> <PUBCHEM_HEAVY_ATOM_COUNT>
89
> <PUBCHEM_ATOM_DEF_STEREO_COUNT>
11
> <PUBCHEM_ATOM_UDEF_STEREO_COUNT>
0
> <PUBCHEM_BOND_DEF_STEREO_COUNT>
0
> <PUBCHEM_BOND_UDEF_STEREO_COUNT>
0
> <PUBCHEM_ISOTOPIC_ATOM_COUNT>
0
> <PUBCHEM_COMPONENT_COUNT>
1
> <PUBCHEM_CACTVS_TAUTO_COUNT>
-1
> <PUBCHEM_COORDINATE_TYPE>
1
5
255
> <PUBCHEM_BONDANNOTATIONS>
40  16  5
51  17  6
49  18  5
61  19  5
67  22  6
65  23  6
73  24  5
82  27  6
28  79  8
28  86  8
31  84  8
31  86  8
34  46  5
35  45  5
66  74  6
79  84  8
$$$$
