505359
  -OEChem-10302200282D
171173  0     1  0  0  0  0  0999 V2000
   14.6613   -1.7500    0.0000 O   0  0  0  0  0  0  0  0  0  0  0  0
   14.6613   -2.7500    0.0000 O   0  0  0  0  0  0  0  0  0  0  0  0
   13.7953   -3.2500    0.0000 O   0  0  0  0  0  0  0  0  0  0  0  0
   15.5273    1.7500    0.0000 O   0  0  0  0  0  0  0  0  0  0  0  0
   12.0632   -0.2500    0.0000 O   0  0  0  0  0  0  0  0  0  0  0  0
   12.9292   -2.7500    0.0000 O   0  0  0  0  0  0  0  0  0  0  0  0
    9.4651   -1.7500    0.0000 O   0  0  0  0  0  0  0  0  0  0  0  0
   13.7953    2.7500    0.0000 O   0  0  0  0  0  0  0  0  0  0  0  0
   18.9914    2.7500    0.0000 O   0  0  0  0  0  0  0  0  0  0  0  0
   12.9292    1.2500    0.0000 O   0  0  0  0  0  0  0  0  0  0  0  0
    7.7331    6.2500    0.0000 O   0  0  0  0  0  0  0  0  0  0  0  0
    7.7331    0.2500    0.0000 O   0  0  0  0  0  0  0  0  0  0  0  0
   20.7235   -1.2500    0.0000 O   0  0  0  0  0  0  0  0  0  0  0  0
   10.3312    1.7500    0.0000 O   0  0  0  0  0  0  0  0  0  0  0  0
    6.8671    2.7500    0.0000 O   0  0  0  0  0  0  0  0  0  0  0  0
   11.1972   -8.7500    0.0000 O   0  0  0  0  0  0  0  0  0  0  0  0
    4.2690    7.2500    0.0000 O   0  0  0  0  0  0  0  0  0  0  0  0
   16.3933   -1.7500    0.0000 N   0  0  0  0  0  0  0  0  0  0  0  0
   15.5273   -4.2500    0.0000 N   0  0  0  0  0  0  0  0  0  0  0  0
   16.3933    0.2500    0.0000 N   0  0  0  0  0  0  0  0  0  0  0  0
   12.9292   -4.7500    0.0000 N   0  0  0  0  0  0  0  0  0  0  0  0
   11.1972   -2.7500    0.0000 N   0  0  0  0  0  0  0  0  0  0  0  0
   17.2594    2.7500    0.0000 N   0  0  0  0  0  0  0  0  0  0  0  0
   10.3312   -0.2500    0.0000 N   0  0  0  0  0  0  0  0  0  0  0  0
    7.7331    4.2500    0.0000 N   0  0  0  0  0  0  0  0  0  0  0  0
   21.5895    1.2500    0.0000 N   0  0  0  0  0  0  0  0  0  0  0  0
    6.0010    6.2500    0.0000 N   0  0  0  0  0  0  0  0  0  0  0  0
    8.5991    1.7500    0.0000 N   0  0  0  0  0  0  0  0  0  0  0  0
    2.5369    4.2500    0.0000 N   0  0  0  0  0  0  0  0  0  0  0  0
    5.1350    8.7500    0.0000 N   0  0  0  0  0  0  0  0  0  0  0  0
   16.3933   -2.7500    0.0000 C   0  0  1  0  0  0  0  0  0  0  0  0
   15.5273   -0.2500    0.0000 C   0  0  1  0  0  0  0  0  0  0  0  0
   14.6613   -4.7500    0.0000 C   0  0  1  0  0  0  0  0  0  0  0  0
   17.2594    1.7500    0.0000 C   0  0  1  0  0  0  0  0  0  0  0  0
   12.0632   -4.2500    0.0000 C   0  0  1  0  0  0  0  0  0  0  0  0
   18.1254    1.2500    0.0000 C   0  0  0  0  0  0  0  0  0  0  0  0
   14.6613    0.2500    0.0000 C   0  0  0  0  0  0  0  0  0  0  0  0
   17.2594   -3.2500    0.0000 C   0  0  0  0  0  0  0  0  0  0  0  0
   14.6613   -5.7500    0.0000 C   0  0  0  0  0  0  0  0  0  0  0  0
   15.5273   -1.2500    0.0000 C   0  0  0  0  0  0  0  0  0  0  0  0
   15.5273   -3.2500    0.0000 C   0  0  0  0  0  0  0  0  0  0  0  0
   18.9914    1.7500    0.0000 C   0  0  0  0  0  0  0  0  0  0  0  0
   13.7953   -4.2500    0.0000 C   0  0  0  0  0  0  0  0  0  0  0  0
   16.3933    1.2500    0.0000 C   0  0  0  0  0  0  0  0  0  0  0  0
   11.1972   -4.7500    0.0000 C   0  0  0  0  0  0  0  0  0  0  0  0
   11.1972   -1.7500    0.0000 C   0  0  1  0  0  0  0  0  0  0  0  0
   12.0632   -3.2500    0.0000 C   0  0  0  0  0  0  0  0  0  0  0  0
   19.8574    1.2500    0.0000 C   0  0  0  0  0  0  0  0  0  0  0  0
   14.6613    1.2500    0.0000 C   0  0  0  0  0  0  0  0  0  0  0  0
   18.1254   -2.7500    0.0000 C   0  0  0  0  0  0  0  0  0  0  0  0
   12.0632   -1.2500    0.0000 C   0  0  1  0  0  0  0  0  0  0  0  0
   15.5273   -6.2500    0.0000 C   0  0  0  0  0  0  0  0  0  0  0  0
   11.1972   -5.7500    0.0000 C   0  0  0  0  0  0  0  0  0  0  0  0
    6.0010    4.2500    0.0000 C   0  0  0  0  0  0  0  0  0  0  0  0
    6.8671    4.7500    0.0000 C   0  0  1  0  0  0  0  0  0  0  0  0
   10.3312   -1.2500    0.0000 C   0  0  0  0  0  0  0  0  0  0  0  0
   20.7235    1.7500    0.0000 C   0  0  0  0  0  0  0  0  0  0  0  0
    5.1350    4.7500    0.0000 C   0  0  0  0  0  0  0  0  0  0  0  0
    9.4651    0.2500    0.0000 C   0  0  2  0  0  0  0  0  0  0  0  0
   18.9914   -3.2500    0.0000 C   0  0  0  0  0  0  0  0  0  0  0  0
   18.1254   -1.7500    0.0000 C   0  0  0  0  0  0  0  0  0  0  0  0
   12.9292   -1.7500    0.0000 C   0  0  0  0  0  0  0  0  0  0  0  0
    4.2690    4.2500    0.0000 C   0  0  0  0  0  0  0  0  0  0  0  0
   16.3933   -5.7500    0.0000 C   0  0  0  0  0  0  0  0  0  0  0  0
   15.5273   -7.2500    0.0000 C   0  0  0  0  0  0  0  0  0  0  0  0
   18.1254    3.2500    0.0000 C   0  0  0  0  0  0  0  0  0  0  0  0
   13.7953    1.7500    0.0000 C   0  0  0  0  0  0  0  0  0  0  0  0
   12.0632   -6.2500    0.0000 C   0  0  0  0  0  0  0  0  0  0  0  0
   10.3312   -6.2500    0.0000 C   0  0  0  0  0  0  0  0  0  0  0  0
    6.8671    5.7500    0.0000 C   0  0  0  0  0  0  0  0  0  0  0  0
    9.4651    1.2500    0.0000 C   0  0  0  0  0  0  0  0  0  0  0  0
    3.4030    4.7500    0.0000 C   0  0  0  0  0  0  0  0  0  0  0  0
   19.8574   -2.7500    0.0000 C   0  0  0  0  0  0  0  0  0  0  0  0
   18.9914   -1.2500    0.0000 C   0  0  0  0  0  0  0  0  0  0  0  0
    8.5991   -0.2500    0.0000 C   0  0  0  0  0  0  0  0  0  0  0  0
   17.2594   -6.2500    0.0000 C   0  0  0  0  0  0  0  0  0  0  0  0
   16.3933   -7.7500    0.0000 C   0  0  0  0  0  0  0  0  0  0  0  0
    7.7331    3.2500    0.0000 C   0  0  0  0  0  0  0  0  0  0  0  0
    8.5991    2.7500    0.0000 C   0  0  0  0  0  0  0  0  0  0  0  0
   19.8574   -1.7500    0.0000 C   0  0  0  0  0  0  0  0  0  0  0  0
   12.0632   -7.2500    0.0000 C   0  0  0  0  0  0  0  0  0  0  0  0
   10.3312   -7.2500    0.0000 C   0  0  0  0  0  0  0  0  0  0  0  0
   18.1254    4.2500    0.0000 C   0  0  0  0  0  0  0  0  0  0  0  0
   17.2594   -7.2500    0.0000 C   0  0  0  0  0  0  0  0  0  0  0  0
    6.0010    7.2500    0.0000 C   0  0  1  0  0  0  0  0  0  0  0  0
   11.1972   -7.7500    0.0000 C   0  0  0  0  0  0  0  0  0  0  0  0
    6.8671    7.7500    0.0000 C   0  0  0  0  0  0  0  0  0  0  0  0
    5.1350    7.7500    0.0000 C   0  0  0  0  0  0  0  0  0  0  0  0
   16.9303   -2.4400    0.0000 H   0  0  0  0  0  0  0  0  0  0  0  0
   15.5273    0.3700    0.0000 H   0  0  0  0  0  0  0  0  0  0  0  0
   14.6613   -4.1300    0.0000 H   0  0  0  0  0  0  0  0  0  0  0  0
   16.7224    2.0600    0.0000 H   0  0  0  0  0  0  0  0  0  0  0  0
   12.6002   -3.9400    0.0000 H   0  0  0  0  0  0  0  0  0  0  0  0
   17.7269    0.7751    0.0000 H   0  0  0  0  0  0  0  0  0  0  0  0
   18.5239    0.7751    0.0000 H   0  0  0  0  0  0  0  0  0  0  0  0
   14.0507    0.3577    0.0000 H   0  0  0  0  0  0  0  0  0  0  0  0
   14.4492   -0.3326    0.0000 H   0  0  0  0  0  0  0  0  0  0  0  0
   16.8608   -3.7250    0.0000 H   0  0  0  0  0  0  0  0  0  0  0  0
   17.6579   -3.7250    0.0000 H   0  0  0  0  0  0  0  0  0  0  0  0
   14.0507   -5.6423    0.0000 H   0  0  0  0  0  0  0  0  0  0  0  0
   14.4492   -6.3326    0.0000 H   0  0  0  0  0  0  0  0  0  0  0  0
   16.9303   -1.4400    0.0000 H   0  0  0  0  0  0  0  0  0  0  0  0
   19.3899    2.2250    0.0000 H   0  0  0  0  0  0  0  0  0  0  0  0
   18.5929    2.2250    0.0000 H   0  0  0  0  0  0  0  0  0  0  0  0
   16.0643   -4.5600    0.0000 H   0  0  0  0  0  0  0  0  0  0  0  0
   16.9303   -0.0600    0.0000 H   0  0  0  0  0  0  0  0  0  0  0  0
   10.9851   -4.1674    0.0000 H   0  0  0  0  0  0  0  0  0  0  0  0
   10.5866   -4.8577    0.0000 H   0  0  0  0  0  0  0  0  0  0  0  0
   12.9292   -5.3700    0.0000 H   0  0  0  0  0  0  0  0  0  0  0  0
   10.6603   -2.0600    0.0000 H   0  0  0  0  0  0  0  0  0  0  0  0
   19.4589    0.7751    0.0000 H   0  0  0  0  0  0  0  0  0  0  0  0
   20.2560    0.7751    0.0000 H   0  0  0  0  0  0  0  0  0  0  0  0
   15.2719    1.1423    0.0000 H   0  0  0  0  0  0  0  0  0  0  0  0
   14.8733    1.8326    0.0000 H   0  0  0  0  0  0  0  0  0  0  0  0
   10.6603   -3.0600    0.0000 H   0  0  0  0  0  0  0  0  0  0  0  0
   12.6002   -0.9400    0.0000 H   0  0  0  0  0  0  0  0  0  0  0  0
   16.7224    3.0600    0.0000 H   0  0  0  0  0  0  0  0  0  0  0  0
    5.6025    3.7750    0.0000 H   0  0  0  0  0  0  0  0  0  0  0  0
    6.3996    3.7750    0.0000 H   0  0  0  0  0  0  0  0  0  0  0  0
    7.4040    5.0600    0.0000 H   0  0  0  0  0  0  0  0  0  0  0  0
   21.1220    2.2250    0.0000 H   0  0  0  0  0  0  0  0  0  0  0  0
   20.3249    2.2250    0.0000 H   0  0  0  0  0  0  0  0  0  0  0  0
    5.5335    5.2250    0.0000 H   0  0  0  0  0  0  0  0  0  0  0  0
    4.7365    5.2250    0.0000 H   0  0  0  0  0  0  0  0  0  0  0  0
   10.0021    0.5600    0.0000 H   0  0  0  0  0  0  0  0  0  0  0  0
   10.8681    0.0600    0.0000 H   0  0  0  0  0  0  0  0  0  0  0  0
   18.9914   -3.8700    0.0000 H   0  0  0  0  0  0  0  0  0  0  0  0
   17.5885   -1.4400    0.0000 H   0  0  0  0  0  0  0  0  0  0  0  0
    3.8705    3.7750    0.0000 H   0  0  0  0  0  0  0  0  0  0  0  0
    4.6675    3.7750    0.0000 H   0  0  0  0  0  0  0  0  0  0  0  0
   12.6192   -2.2869    0.0000 H   0  0  0  0  0  0  0  0  0  0  0  0
   13.4662   -2.0600    0.0000 H   0  0  0  0  0  0  0  0  0  0  0  0
   13.2392   -1.2131    0.0000 H   0  0  0  0  0  0  0  0  0  0  0  0
   16.3933   -5.1300    0.0000 H   0  0  0  0  0  0  0  0  0  0  0  0
   14.9904   -7.5600    0.0000 H   0  0  0  0  0  0  0  0  0  0  0  0
   12.6002   -5.9400    0.0000 H   0  0  0  0  0  0  0  0  0  0  0  0
    9.7942   -5.9400    0.0000 H   0  0  0  0  0  0  0  0  0  0  0  0
    8.2700    4.5600    0.0000 H   0  0  0  0  0  0  0  0  0  0  0  0
    3.8015    5.2250    0.0000 H   0  0  0  0  0  0  0  0  0  0  0  0
    3.0044    5.2250    0.0000 H   0  0  0  0  0  0  0  0  0  0  0  0
    8.2006   -0.7249    0.0000 H   0  0  0  0  0  0  0  0  0  0  0  0
    8.9976   -0.7249    0.0000 H   0  0  0  0  0  0  0  0  0  0  0  0
   20.3944   -3.0600    0.0000 H   0  0  0  0  0  0  0  0  0  0  0  0
   18.9914   -0.6300    0.0000 H   0  0  0  0  0  0  0  0  0  0  0  0
   12.6002    0.0600    0.0000 H   0  0  0  0  0  0  0  0  0  0  0  0
   17.7963   -5.9400    0.0000 H   0  0  0  0  0  0  0  0  0  0  0  0
   16.3933   -8.3700    0.0000 H   0  0  0  0  0  0  0  0  0  0  0  0
    9.2097    2.6423    0.0000 H   0  0  0  0  0  0  0  0  0  0  0  0
    8.8112    3.3326    0.0000 H   0  0  0  0  0  0  0  0  0  0  0  0
   22.1264    1.5600    0.0000 H   0  0  0  0  0  0  0  0  0  0  0  0
   21.5895    0.6300    0.0000 H   0  0  0  0  0  0  0  0  0  0  0  0
   12.6002   -7.5600    0.0000 H   0  0  0  0  0  0  0  0  0  0  0  0
    9.7942   -7.5600    0.0000 H   0  0  0  0  0  0  0  0  0  0  0  0
    5.4641    5.9400    0.0000 H   0  0  0  0  0  0  0  0  0  0  0  0
    8.0622    1.4400    0.0000 H   0  0  0  0  0  0  0  0  0  0  0  0
   18.7454    4.2500    0.0000 H   0  0  0  0  0  0  0  0  0  0  0  0
   18.1254    4.8700    0.0000 H   0  0  0  0  0  0  0  0  0  0  0  0
   17.5054    4.2500    0.0000 H   0  0  0  0  0  0  0  0  0  0  0  0
   17.7963   -7.5600    0.0000 H   0  0  0  0  0  0  0  0  0  0  0  0
    6.5380    6.9400    0.0000 H   0  0  0  0  0  0  0  0  0  0  0  0
   13.2583    3.0600    0.0000 H   0  0  0  0  0  0  0  0  0  0  0  0
    2.0000    4.5600    0.0000 H   0  0  0  0  0  0  0  0  0  0  0  0
    2.5369    3.6300    0.0000 H   0  0  0  0  0  0  0  0  0  0  0  0
    7.1771    7.2131    0.0000 H   0  0  0  0  0  0  0  0  0  0  0  0
    7.4040    8.0600    0.0000 H   0  0  0  0  0  0  0  0  0  0  0  0
    6.5571    8.2869    0.0000 H   0  0  0  0  0  0  0  0  0  0  0  0
    7.7331    0.8700    0.0000 H   0  0  0  0  0  0  0  0  0  0  0  0
   21.2604   -1.5600    0.0000 H   0  0  0  0  0  0  0  0  0  0  0  0
   10.6603   -9.0600    0.0000 H   0  0  0  0  0  0  0  0  0  0  0  0
    4.5981    9.0600    0.0000 H   0  0  0  0  0  0  0  0  0  0  0  0
    5.6720    9.0600    0.0000 H   0  0  0  0  0  0  0  0  0  0  0  0
  1 40  2  0  0  0  0
  2 41  2  0  0  0  0
  3 43  2  0  0  0  0
  4 44  2  0  0  0  0
 51  5  1  6  0  0  0
  5145  1  0  0  0  0
  6 47  2  0  0  0  0
  7 56  2  0  0  0  0
  8 67  1  0  0  0  0
  8161  1  0  0  0  0
  9 66  2  0  0  0  0
 10 67  2  0  0  0  0
 11 70  2  0  0  0  0
 12 75  1  0  0  0  0
 12167  1  0  0  0  0
 13 80  1  0  0  0  0
 13168  1  0  0  0  0
 14 71  2  0  0  0  0
 15 78  2  0  0  0  0
 16 86  1  0  0  0  0
 16169  1  0  0  0  0
 17 88  2  0  0  0  0
 31 18  1  1  0  0  0
 18 40  1  0  0  0  0
 18102  1  0  0  0  0
 33 19  1  1  0  0  0
 19 41  1  0  0  0  0
 19105  1  0  0  0  0
 32 20  1  6  0  0  0
 20 44  1  0  0  0  0
 20106  1  0  0  0  0
 35 21  1  1  0  0  0
 21 43  1  0  0  0  0
 21109  1  0  0  0  0
 46 22  1  6  0  0  0
 22 47  1  0  0  0  0
 22115  1  0  0  0  0
 34 23  1  1  0  0  0
 23 66  1  0  0  0  0
 23117  1  0  0  0  0
 24 56  1  0  0  0  0
 59 24  1  1  0  0  0
 24126  1  0  0  0  0
 55 25  1  1  0  0  0
 25 78  1  0  0  0  0
 25138  1  0  0  0  0
 26 57  1  0  0  0  0
 26150  1  0  0  0  0
 26151  1  0  0  0  0
 27 70  1  0  0  0  0
 85 27  1  6  0  0  0
 27154  1  0  0  0  0
 28 71  1  0  0  0  0
 28 79  1  0  0  0  0
 28155  1  0  0  0  0
 29 72  1  0  0  0  0
 29162  1  0  0  0  0
 29163  1  0  0  0  0
 30 88  1  0  0  0  0
 30170  1  0  0  0  0
 30171  1  0  0  0  0
 31 38  1  0  0  0  0
 31 41  1  0  0  0  0
 31 89  1  0  0  0  0
 32 37  1  0  0  0  0
 32 40  1  0  0  0  0
 32 90  1  0  0  0  0
 33 39  1  0  0  0  0
 33 43  1  0  0  0  0
 33 91  1  0  0  0  0
 34 36  1  0  0  0  0
 34 44  1  0  0  0  0
 34 92  1  0  0  0  0
 35 45  1  0  0  0  0
 35 47  1  0  0  0  0
 35 93  1  0  0  0  0
 36 42  1  0  0  0  0
 36 94  1  0  0  0  0
 36 95  1  0  0  0  0
 37 49  1  0  0  0  0
 37 96  1  0  0  0  0
 37 97  1  0  0  0  0
 38 50  1  0  0  0  0
 38 98  1  0  0  0  0
 38 99  1  0  0  0  0
 39 52  1  0  0  0  0
 39100  1  0  0  0  0
 39101  1  0  0  0  0
 42 48  1  0  0  0  0
 42103  1  0  0  0  0
 42104  1  0  0  0  0
 45 53  1  0  0  0  0
 45107  1  0  0  0  0
 45108  1  0  0  0  0
 46 51  1  0  0  0  0
 46 56  1  0  0  0  0
 46110  1  0  0  0  0
 48 57  1  0  0  0  0
 48111  1  0  0  0  0
 48112  1  0  0  0  0
 49 67  1  0  0  0  0
 49113  1  0  0  0  0
 49114  1  0  0  0  0
 50 60  2  0  0  0  0
 50 61  1  0  0  0  0
 51 62  1  0  0  0  0
 51116  1  0  0  0  0
 52 64  2  0  0  0  0
 52 65  1  0  0  0  0
 53 68  2  0  0  0  0
 53 69  1  0  0  0  0
 54 55  1  0  0  0  0
 54 58  1  0  0  0  0
 54118  1  0  0  0  0
 54119  1  0  0  0  0
 55 70  1  0  0  0  0
 55120  1  0  0  0  0
 57121  1  0  0  0  0
 57122  1  0  0  0  0
 58 63  1  0  0  0  0
 58123  1  0  0  0  0
 58124  1  0  0  0  0
 59 71  1  0  0  0  0
 59 75  1  0  0  0  0
 59125  1  0  0  0  0
 60 73  1  0  0  0  0
 60127  1  0  0  0  0
 61 74  2  0  0  0  0
 61128  1  0  0  0  0
 62131  1  0  0  0  0
 62132  1  0  0  0  0
 62133  1  0  0  0  0
 63 72  1  0  0  0  0
 63129  1  0  0  0  0
 63130  1  0  0  0  0
 64 76  1  0  0  0  0
 64134  1  0  0  0  0
 65 77  2  0  0  0  0
 65135  1  0  0  0  0
 66 83  1  0  0  0  0
 68 81  1  0  0  0  0
 68136  1  0  0  0  0
 69 82  2  0  0  0  0
 69137  1  0  0  0  0
 72139  1  0  0  0  0
 72140  1  0  0  0  0
 73 80  2  0  0  0  0
 73143  1  0  0  0  0
 74 80  1  0  0  0  0
 74144  1  0  0  0  0
 75141  1  0  0  0  0
 75142  1  0  0  0  0
 76 84  2  0  0  0  0
 76146  1  0  0  0  0
 77 84  1  0  0  0  0
 77147  1  0  0  0  0
 78 79  1  0  0  0  0
 79148  1  0  0  0  0
 79149  1  0  0  0  0
 81 86  2  0  0  0  0
 81152  1  0  0  0  0
 82 86  1  0  0  0  0
 82153  1  0  0  0  0
 83156  1  0  0  0  0
 83157  1  0  0  0  0
 83158  1  0  0  0  0
 84159  1  0  0  0  0
 85 87  1  0  0  0  0
 85 88  1  0  0  0  0
 85160  1  0  0  0  0
 87164  1  0  0  0  0
 87165  1  0  0  0  0
 87166  1  0  0  0  0
M  END
> <PUBCHEM_COMPOUND_CID>
505359
> <PUBCHEM_COMPOUND_CANONICALIZED>
1
> <PUBCHEM_CACTVS_COMPLEXITY>
2300
> <PUBCHEM_CACTVS_HBOND_ACCEPTOR>
19
> <PUBCHEM_CACTVS_HBOND_DONOR>
18
> <PUBCHEM_CACTVS_ROTATABLE_BOND>
39
> <PUBCHEM_CACTVS_SUBSKEYS>
AAADcfB//gAAAAAAAAAAAAAAAAAAAAAAAAAwYMAAAAAAAAABUAAAHgAQCAAADDzhmAYyDoLAAgCIAiHSGAACAAAgIAAIiIGOCIgKdjaCkTOUcAAm9hGYmAe836KOIAAAAAAAAABAAAAAAAAAAAAAAAAAAA==
> <PUBCHEM_IUPAC_OPENEYE_NAME>
(4S)-4-[[(2S)-2-acetamido-6-amino-hexanoyl]amino]-5-[[(1S)-2-[[(1S)-2-[[(1S)-2-[[(1S,2R)-1-[[(1S)-2-[[2-[[(1S)-5-amino-1-[[(1S)-2-amino-1-methyl-2-oxo-ethyl]carbamoyl]pentyl]amino]-2-oxo-ethyl]amino]-1-(hydroxymethyl)-2-oxo-ethyl]carbamoyl]-2-hydroxy-propyl]amino]-1-[(4-hydroxyphenyl)methyl]-2-oxo-ethyl]amino]-1-benzyl-2-oxo-ethyl]amino]-1-[(4-hydroxyphenyl)methyl]-2-oxo-ethyl]amino]-5-oxo-pentanoic acid
> <PUBCHEM_IUPAC_CAS_NAME>
(4S)-4-[[(2S)-2-acetamido-6-amino-1-oxohexyl]amino]-5-[[(2S)-1-[[(2S)-1-[[(2S)-1-[[(2S,3R)-1-[[(2S)-1-[[2-[[(2S)-6-amino-1-[[(2S)-1-amino-1-oxopropan-2-yl]amino]-1-oxohexan-2-yl]amino]-2-oxoethyl]amino]-3-hydroxy-1-oxopropan-2-yl]amino]-3-hydroxy-1-oxobutan-2-yl]amino]-3-(4-hydroxyphenyl)-1-oxopropan-2-yl]amino]-1-oxo-3-phenylpropan-2-yl]amino]-3-(4-hydroxyphenyl)-1-oxopropan-2-yl]amino]-5-oxopentanoic acid
> <PUBCHEM_IUPAC_NAME_MARKUP>
(4<I>S</I>)-4-[[(2<I>S</I>)-2-acetamido-6-aminohexanoyl]amino]-5-[[(2<I>S</I>)-1-[[(2<I>S</I>)-1-[[(2<I>S</I>)-1-[[(2<I>S</I>,3<I>R</I>)-1-[[(2<I>S</I>)-1-[[2-[[(2<I>S</I>)-6-amino-1-[[(2<I>S</I>)-1-amino-1-oxopropan-2-yl]amino]-1-oxohexan-2-yl]amino]-2-oxoethyl]amino]-3-hydroxy-1-oxopropan-2-yl]amino]-3-hydroxy-1-oxobutan-2-yl]amino]-3-(4-hydroxyphenyl)-1-oxopropan-2-yl]amino]-1-oxo-3-phenylpropan-2-yl]amino]-3-(4-hydroxyphenyl)-1-oxopropan-2-yl]amino]-5-oxopentanoic acid
> <PUBCHEM_IUPAC_NAME>
(4S)-4-[[(2S)-2-acetamido-6-aminohexanoyl]amino]-5-[[(2S)-1-[[(2S)-1-[[(2S)-1-[[(2S,3R)-1-[[(2S)-1-[[2-[[(2S)-6-amino-1-[[(2S)-1-amino-1-oxopropan-2-yl]amino]-1-oxohexan-2-yl]amino]-2-oxoethyl]amino]-3-hydroxy-1-oxopropan-2-yl]amino]-3-hydroxy-1-oxobutan-2-yl]amino]-3-(4-hydroxyphenyl)-1-oxopropan-2-yl]amino]-1-oxo-3-phenylpropan-2-yl]amino]-3-(4-hydroxyphenyl)-1-oxopropan-2-yl]amino]-5-oxopentanoic acid
> <PUBCHEM_IUPAC_SYSTEMATIC_NAME>
(4S)-4-[[(2S)-2-acetamido-6-azanyl-hexanoyl]amino]-5-[[(2S)-1-[[(2S)-1-[[(2S)-1-[[(2S,3R)-1-[[(2S)-1-[[2-[[(2S)-6-azanyl-1-[[(2S)-1-azanyl-1-oxidanylidene-propan-2-yl]amino]-1-oxidanylidene-hexan-2-yl]amino]-2-oxidanylidene-ethyl]amino]-3-oxidanyl-1-oxidanylidene-propan-2-yl]amino]-3-oxidanyl-1-oxidanylidene-butan-2-yl]amino]-3-(4-hydroxyphenyl)-1-oxidanylidene-propan-2-yl]amino]-1-oxidanylidene-3-phenyl-propan-2-yl]amino]-3-(4-hydroxyphenyl)-1-oxidanylidene-propan-2-yl]amino]-5-oxidanylidene-pentanoic acid
> <PUBCHEM_IUPAC_TRADITIONAL_NAME>
(4S)-4-[[(2S)-2-acetamido-6-amino-hexanoyl]amino]-5-[[(1S)-2-[[(1S)-2-[[(1S)-2-[[(1S,2R)-1-[[(1S)-2-[[2-[[(1S)-5-amino-1-[[(1S)-2-amino-2-keto-1-methyl-ethyl]carbamoyl]pentyl]amino]-2-keto-ethyl]amino]-2-keto-1-methylol-ethyl]carbamoyl]-2-hydroxy-propyl]amino]-1-(4-hydroxybenzyl)-2-keto-ethyl]amino]-1-benzyl-2-keto-ethyl]amino]-1-(4-hydroxybenzyl)-2-keto-ethyl]amino]-5-keto-valeric acid
> <PUBCHEM_IUPAC_INCHI>
InChI=1S/C58H83N13O17/c1-32(50(61)80)63-52(82)41(14-8-10-26-60)65-47(77)30-62-51(81)46(31-72)70-58(88)49(33(2)73)71-57(87)45(29-37-17-21-39(76)22-18-37)69-55(85)43(27-35-11-5-4-6-12-35)68-56(86)44(28-36-15-19-38(75)20-16-36)67-54(84)42(23-24-48(78)79)66-53(83)40(64-34(3)74)13-7-9-25-59/h4-6,11-12,15-22,32-33,40-46,49,72-73,75-76H,7-10,13-14,23-31,59-60H2,1-3H3,(H2,61,80)(H,62,81)(H,63,82)(H,64,74)(H,65,77)(H,66,83)(H,67,84)(H,68,86)(H,69,85)(H,70,88)(H,71,87)(H,78,79)/t32-,33+,40-,41-,42-,43-,44-,45-,46-,49-/m0/s1
> <PUBCHEM_IUPAC_INCHIKEY>
COGUIWGQNFQXJZ-CJTSGTTGSA-N
> <PUBCHEM_XLOGP3_AA>
-4.7
> <PUBCHEM_EXACT_MASS>
1233.60298823
> <PUBCHEM_MOLECULAR_FORMULA>
C58H83N13O17
> <PUBCHEM_MOLECULAR_WEIGHT>
1234.4
> <PUBCHEM_OPENEYE_CAN_SMILES>
CC(C(C(=O)NC(CO)C(=O)NCC(=O)NC(CCCCN)C(=O)NC(C)C(=O)N)NC(=O)C(CC1=CC=C(C=C1)O)NC(=O)C(CC2=CC=CC=C2)NC(=O)C(CC3=CC=C(C=C3)O)NC(=O)C(CCC(=O)O)NC(=O)C(CCCCN)NC(=O)C)O
> <PUBCHEM_OPENEYE_ISO_SMILES>
C[C@H]([C@@H](C(=O)N[C@@H](CO)C(=O)NCC(=O)N[C@@H](CCCCN)C(=O)N[C@@H](C)C(=O)N)NC(=O)[C@H](CC1=CC=C(C=C1)O)NC(=O)[C@H](CC2=CC=CC=C2)NC(=O)[C@H](CC3=CC=C(C=C3)O)NC(=O)[C@H](CCC(=O)O)NC(=O)[C@H](CCCCN)NC(=O)C)O
> <PUBCHEM_CACTVS_TPSA>
504
> <PUBCHEM_MONOISOTOPIC_WEIGHT>
1233.60298823
> <PUBCHEM_TOTAL_CHARGE>
0
> <PUBCHEM_HEAVY_ATOM_COUNT>
88
> <PUBCHEM_ATOM_DEF_STEREO_COUNT>
10
> <PUBCHEM_ATOM_UDEF_STEREO_COUNT>
0
> <PUBCHEM_BOND_DEF_STEREO_COUNT>
0
> <PUBCHEM_BOND_UDEF_STEREO_COUNT>
0
> <PUBCHEM_ISOTOPIC_ATOM_COUNT>
0
> <PUBCHEM_COMPONENT_COUNT>
1
> <PUBCHEM_CACTVS_TAUTO_COUNT>
-1
> <PUBCHEM_COORDINATE_TYPE>
1
5
255
> <PUBCHEM_BONDANNOTATIONS>
31  18  5
33  19  5
32  20  6
35  21  5
46  22  6
34  23  5
59  24  5
55  25  5
85  27  6
51  5  6
50  60  8
50  61  8
52  64  8
52  65  8
53  68  8
53  69  8
60  73  8
61  74  8
64  76  8
65  77  8
68  81  8
69  82  8
73  80  8
74  80  8
76  84  8
77  84  8
81  86  8
82  86  8
$$$$
