505443
  -OEChem-10302200282D
 47 50  0     1  0  0  0  0  0999 V2000
    2.0000    1.1550    0.0000 Cl  0  0  0  0  0  0  0  0  0  0  0  0
    5.4641    1.1550    0.0000 Cl  0  0  0  0  0  0  0  0  0  0  0  0
    5.4641    0.1550    0.0000 N   0  0  0  0  0  0  0  0  0  0  0  0
    4.5981   -1.3450    0.0000 N   0  0  0  0  0  0  0  0  0  0  0  0
    6.3301   -1.3450    0.0000 N   0  0  0  0  0  0  0  0  0  0  0  0
    7.1962    0.1550    0.0000 N   0  0  0  0  0  0  0  0  0  0  0  0
    5.4641   -2.8450    0.0000 N   0  0  0  0  0  0  0  0  0  0  0  0
   11.5263   -2.3450    0.0000 N   0  0  0  0  0  0  0  0  0  0  0  0
    2.8660   -1.3450    0.0000 C   0  0  0  0  0  0  0  0  0  0  0  0
    3.3660   -2.2110    0.0000 C   0  0  0  0  0  0  0  0  0  0  0  0
    2.3660   -2.2110    0.0000 C   0  0  0  0  0  0  0  0  0  0  0  0
    2.8660   -0.3450    0.0000 C   0  0  0  0  0  0  0  0  0  0  0  0
    3.7320    0.1550    0.0000 C   0  0  3  0  0  0  0  0  0  0  0  0
    3.7320    1.1550    0.0000 C   0  0  0  0  0  0  0  0  0  0  0  0
    4.5981   -0.3450    0.0000 C   0  0  0  0  0  0  0  0  0  0  0  0
    2.8660    1.6550    0.0000 C   0  0  0  0  0  0  0  0  0  0  0  0
    4.5981    1.6550    0.0000 C   0  0  0  0  0  0  0  0  0  0  0  0
    2.8660    2.6550    0.0000 C   0  0  0  0  0  0  0  0  0  0  0  0
    4.5981    2.6550    0.0000 C   0  0  0  0  0  0  0  0  0  0  0  0
    6.3301   -0.3450    0.0000 C   0  0  0  0  0  0  0  0  0  0  0  0
    3.7320    3.1550    0.0000 C   0  0  0  0  0  0  0  0  0  0  0  0
    5.4641   -1.8450    0.0000 C   0  0  0  0  0  0  0  0  0  0  0  0
    8.0622   -0.3450    0.0000 C   0  0  0  0  0  0  0  0  0  0  0  0
    8.0622   -1.3450    0.0000 C   0  0  0  0  0  0  0  0  0  0  0  0
    8.9282    0.1550    0.0000 C   0  0  0  0  0  0  0  0  0  0  0  0
    8.9282   -1.8450    0.0000 C   0  0  0  0  0  0  0  0  0  0  0  0
    9.7942   -0.3450    0.0000 C   0  0  0  0  0  0  0  0  0  0  0  0
    9.7942   -1.3450    0.0000 C   0  0  0  0  0  0  0  0  0  0  0  0
   10.6603   -1.8450    0.0000 C   0  0  0  0  0  0  0  0  0  0  0  0
    3.4649   -1.1845    0.0000 H   0  0  0  0  0  0  0  0  0  0  0  0
    3.4737   -2.8216    0.0000 H   0  0  0  0  0  0  0  0  0  0  0  0
    3.9486   -1.9990    0.0000 H   0  0  0  0  0  0  0  0  0  0  0  0
    1.7834   -1.9990    0.0000 H   0  0  0  0  0  0  0  0  0  0  0  0
    2.2584   -2.8216    0.0000 H   0  0  0  0  0  0  0  0  0  0  0  0
    2.6540    0.2376    0.0000 H   0  0  0  0  0  0  0  0  0  0  0  0
    2.2554   -0.4527    0.0000 H   0  0  0  0  0  0  0  0  0  0  0  0
    3.7320   -0.4650    0.0000 H   0  0  0  0  0  0  0  0  0  0  0  0
    2.3291    2.9650    0.0000 H   0  0  0  0  0  0  0  0  0  0  0  0
    5.1350    2.9650    0.0000 H   0  0  0  0  0  0  0  0  0  0  0  0
    3.7320    3.7750    0.0000 H   0  0  0  0  0  0  0  0  0  0  0  0
    7.1962    0.7750    0.0000 H   0  0  0  0  0  0  0  0  0  0  0  0
    4.9272   -3.1550    0.0000 H   0  0  0  0  0  0  0  0  0  0  0  0
    6.0010   -3.1550    0.0000 H   0  0  0  0  0  0  0  0  0  0  0  0
    7.5252   -1.6550    0.0000 H   0  0  0  0  0  0  0  0  0  0  0  0
    8.9282    0.7750    0.0000 H   0  0  0  0  0  0  0  0  0  0  0  0
    8.9282   -2.4650    0.0000 H   0  0  0  0  0  0  0  0  0  0  0  0
   10.3312   -0.0350    0.0000 H   0  0  0  0  0  0  0  0  0  0  0  0
  1 16  1  0  0  0  0
  2 17  1  0  0  0  0
  3 15  1  0  0  0  0
  3 20  2  0  0  0  0
  4 15  2  0  0  0  0
  4 22  1  0  0  0  0
  5 20  1  0  0  0  0
  5 22  2  0  0  0  0
  6 20  1  0  0  0  0
  6 23  1  0  0  0  0
  6 41  1  0  0  0  0
  7 22  1  0  0  0  0
  7 42  1  0  0  0  0
  7 43  1  0  0  0  0
  8 29  3  0  0  0  0
  9 10  1  0  0  0  0
  9 11  1  0  0  0  0
  9 12  1  0  0  0  0
  9 30  1  0  0  0  0
 10 11  1  0  0  0  0
 10 31  1  0  0  0  0
 10 32  1  0  0  0  0
 11 33  1  0  0  0  0
 11 34  1  0  0  0  0
 12 13  1  0  0  0  0
 12 35  1  0  0  0  0
 12 36  1  0  0  0  0
 13 14  1  0  0  0  0
 13 15  1  0  0  0  0
 13 37  1  0  0  0  0
 14 16  2  0  0  0  0
 14 17  1  0  0  0  0
 16 18  1  0  0  0  0
 17 19  2  0  0  0  0
 18 21  2  0  0  0  0
 18 38  1  0  0  0  0
 19 21  1  0  0  0  0
 19 39  1  0  0  0  0
 21 40  1  0  0  0  0
 23 24  2  0  0  0  0
 23 25  1  0  0  0  0
 24 26  1  0  0  0  0
 24 44  1  0  0  0  0
 25 27  2  0  0  0  0
 25 45  1  0  0  0  0
 26 28  2  0  0  0  0
 26 46  1  0  0  0  0
 27 28  1  0  0  0  0
 27 47  1  0  0  0  0
 28 29  1  0  0  0  0
M  END
> <PUBCHEM_COMPOUND_CID>
505443
> <PUBCHEM_COMPOUND_CANONICALIZED>
1
> <PUBCHEM_CACTVS_COMPLEXITY>
575
> <PUBCHEM_CACTVS_HBOND_ACCEPTOR>
6
> <PUBCHEM_CACTVS_HBOND_DONOR>
2
> <PUBCHEM_CACTVS_ROTATABLE_BOND>
6
> <PUBCHEM_CACTVS_SUBSKEYS>
AAADceB7gAAGAAAAAAAAAAAAGAAAAAAAAAA8YIAAAAAAAAAB0AAAHAIQAAAADQqBGyAx0IbIEACwBiZiZACigAkhB6AJiAAwZoiIqCLBm5GEIAhokAJIyC8QgMAOiAAAAACBAAAQAAAAAQIAAAAAAAAAAA==
> <PUBCHEM_IUPAC_OPENEYE_NAME>
4-[[4-amino-6-[2-cyclopropyl-1-(2,6-dichlorophenyl)ethyl]-1,3,5-triazin-2-yl]amino]benzonitrile
> <PUBCHEM_IUPAC_CAS_NAME>
4-[[4-amino-6-[2-cyclopropyl-1-(2,6-dichlorophenyl)ethyl]-1,3,5-triazin-2-yl]amino]benzonitrile
> <PUBCHEM_IUPAC_NAME_MARKUP>
4-[[4-amino-6-[2-cyclopropyl-1-(2,6-dichlorophenyl)ethyl]-1,3,5-triazin-2-yl]amino]benzonitrile
> <PUBCHEM_IUPAC_NAME>
4-[[4-amino-6-[2-cyclopropyl-1-(2,6-dichlorophenyl)ethyl]-1,3,5-triazin-2-yl]amino]benzonitrile
> <PUBCHEM_IUPAC_SYSTEMATIC_NAME>
4-[[4-azanyl-6-[1-[2,6-bis(chloranyl)phenyl]-2-cyclopropyl-ethyl]-1,3,5-triazin-2-yl]amino]benzenecarbonitrile
> <PUBCHEM_IUPAC_TRADITIONAL_NAME>
4-[[4-amino-6-[2-cyclopropyl-1-(2,6-dichlorophenyl)ethyl]-s-triazin-2-yl]amino]benzonitrile
> <PUBCHEM_IUPAC_INCHI>
InChI=1S/C21H18Cl2N6/c22-16-2-1-3-17(23)18(16)15(10-12-4-5-12)19-27-20(25)29-21(28-19)26-14-8-6-13(11-24)7-9-14/h1-3,6-9,12,15H,4-5,10H2,(H3,25,26,27,28,29)
> <PUBCHEM_IUPAC_INCHIKEY>
VRKLOWRISOTLDE-UHFFFAOYSA-N
> <PUBCHEM_XLOGP3_AA>
5.7
> <PUBCHEM_EXACT_MASS>
424.0970000
> <PUBCHEM_MOLECULAR_FORMULA>
C21H18Cl2N6
> <PUBCHEM_MOLECULAR_WEIGHT>
425.3
> <PUBCHEM_OPENEYE_CAN_SMILES>
C1CC1CC(C2=C(C=CC=C2Cl)Cl)C3=NC(=NC(=N3)NC4=CC=C(C=C4)C#N)N
> <PUBCHEM_OPENEYE_ISO_SMILES>
C1CC1CC(C2=C(C=CC=C2Cl)Cl)C3=NC(=NC(=N3)NC4=CC=C(C=C4)C#N)N
> <PUBCHEM_CACTVS_TPSA>
101
> <PUBCHEM_MONOISOTOPIC_WEIGHT>
424.0970000
> <PUBCHEM_TOTAL_CHARGE>
0
> <PUBCHEM_HEAVY_ATOM_COUNT>
29
> <PUBCHEM_ATOM_DEF_STEREO_COUNT>
0
> <PUBCHEM_ATOM_UDEF_STEREO_COUNT>
1
> <PUBCHEM_BOND_DEF_STEREO_COUNT>
0
> <PUBCHEM_BOND_UDEF_STEREO_COUNT>
0
> <PUBCHEM_ISOTOPIC_ATOM_COUNT>
0
> <PUBCHEM_COMPONENT_COUNT>
1
> <PUBCHEM_CACTVS_TAUTO_COUNT>
17
> <PUBCHEM_COORDINATE_TYPE>
1
5
255
> <PUBCHEM_BONDANNOTATIONS>
13  12  3
14  16  8
14  17  8
16  18  8
17  19  8
18  21  8
19  21  8
23  24  8
23  25  8
24  26  8
25  27  8
26  28  8
27  28  8
3  15  8
3  20  8
4  15  8
4  22  8
5  20  8
5  22  8
$$$$
