505571
  -OEChem-10302200282D
 58 60  0     1  0  0  0  0  0999 V2000
    4.5981    2.3170    0.0000 O   0  0  0  0  0  0  0  0  0  0  0  0
    7.1962   -0.1830    0.0000 O   0  0  0  0  0  0  0  0  0  0  0  0
    6.3301    1.3170    0.0000 O   0  0  0  0  0  0  0  0  0  0  0  0
    3.7320    0.8170    0.0000 O   0  0  0  0  0  0  0  0  0  0  0  0
    6.3301   -1.6830    0.0000 N   0  0  0  0  0  0  0  0  0  0  0  0
    2.0000   -1.1830    0.0000 N   0  0  0  0  0  0  0  0  0  0  0  0
    7.1962   -2.1830    0.0000 C   0  0  0  0  0  0  0  0  0  0  0  0
    5.4641   -2.1830    0.0000 C   0  0  0  0  0  0  0  0  0  0  0  0
    3.7320   -2.1830    0.0000 C   0  0  3  0  0  0  0  0  0  0  0  0
    3.7320   -3.1830    0.0000 C   0  0  0  0  0  0  0  0  0  0  0  0
    8.0622   -1.6830    0.0000 C   0  0  0  0  0  0  0  0  0  0  0  0
    4.5981   -1.6830    0.0000 C   0  0  0  0  0  0  0  0  0  0  0  0
    3.7320    2.8170    0.0000 C   0  0  0  0  0  0  0  0  0  0  0  0
    5.4641   -3.1830    0.0000 C   0  0  0  0  0  0  0  0  0  0  0  0
    6.3301   -0.6830    0.0000 C   0  0  0  0  0  0  0  0  0  0  0  0
    4.5981   -3.6830    0.0000 C   0  0  0  0  0  0  0  0  0  0  0  0
    8.9282   -2.1830    0.0000 C   0  0  0  0  0  0  0  0  0  0  0  0
    5.4641   -0.1830    0.0000 C   0  0  0  0  0  0  0  0  0  0  0  0
    9.7942   -1.6830    0.0000 C   0  0  0  0  0  0  0  0  0  0  0  0
    8.0622   -0.6830    0.0000 C   0  0  0  0  0  0  0  0  0  0  0  0
    9.7942   -0.6830    0.0000 C   0  0  0  0  0  0  0  0  0  0  0  0
    8.9282   -0.1830    0.0000 C   0  0  0  0  0  0  0  0  0  0  0  0
    2.8660    3.3170    0.0000 C   0  0  0  0  0  0  0  0  0  0  0  0
    4.2320    3.6830    0.0000 C   0  0  0  0  0  0  0  0  0  0  0  0
    3.2320    1.9510    0.0000 C   0  0  0  0  0  0  0  0  0  0  0  0
    5.4641    0.8170    0.0000 C   0  0  0  0  0  0  0  0  0  0  0  0
   10.6882   -2.2177    0.0000 C   0  0  0  0  0  0  0  0  0  0  0  0
    2.8660   -1.6830    0.0000 C   0  0  0  0  0  0  0  0  0  0  0  0
   10.6882   -0.1484    0.0000 C   0  0  0  0  0  0  0  0  0  0  0  0
    4.5981    1.3170    0.0000 C   0  0  0  0  0  0  0  0  0  0  0  0
   11.5942   -1.7038    0.0000 C   0  0  0  0  0  0  0  0  0  0  0  0
   11.5942   -0.6622    0.0000 C   0  0  0  0  0  0  0  0  0  0  0  0
    6.7976   -2.6580    0.0000 H   0  0  0  0  0  0  0  0  0  0  0  0
    7.5947   -2.6580    0.0000 H   0  0  0  0  0  0  0  0  0  0  0  0
    3.7320   -1.5630    0.0000 H   0  0  0  0  0  0  0  0  0  0  0  0
    3.1215   -3.0753    0.0000 H   0  0  0  0  0  0  0  0  0  0  0  0
    3.5200   -3.7656    0.0000 H   0  0  0  0  0  0  0  0  0  0  0  0
    4.5981   -1.0630    0.0000 H   0  0  0  0  0  0  0  0  0  0  0  0
    6.0010   -3.4930    0.0000 H   0  0  0  0  0  0  0  0  0  0  0  0
    4.5981   -4.3030    0.0000 H   0  0  0  0  0  0  0  0  0  0  0  0
    8.9282   -2.8030    0.0000 H   0  0  0  0  0  0  0  0  0  0  0  0
    4.8535   -0.0754    0.0000 H   0  0  0  0  0  0  0  0  0  0  0  0
    5.2520   -0.7656    0.0000 H   0  0  0  0  0  0  0  0  0  0  0  0
    7.5252   -0.3730    0.0000 H   0  0  0  0  0  0  0  0  0  0  0  0
    8.9282    0.4370    0.0000 H   0  0  0  0  0  0  0  0  0  0  0  0
    3.1760    3.8539    0.0000 H   0  0  0  0  0  0  0  0  0  0  0  0
    2.3291    3.6270    0.0000 H   0  0  0  0  0  0  0  0  0  0  0  0
    2.5560    2.7800    0.0000 H   0  0  0  0  0  0  0  0  0  0  0  0
    4.7690    3.3730    0.0000 H   0  0  0  0  0  0  0  0  0  0  0  0
    4.5420    4.2200    0.0000 H   0  0  0  0  0  0  0  0  0  0  0  0
    3.6951    3.9930    0.0000 H   0  0  0  0  0  0  0  0  0  0  0  0
    2.6951    2.2610    0.0000 H   0  0  0  0  0  0  0  0  0  0  0  0
    2.9220    1.4140    0.0000 H   0  0  0  0  0  0  0  0  0  0  0  0
    3.7690    1.6410    0.0000 H   0  0  0  0  0  0  0  0  0  0  0  0
   10.6810   -2.8376    0.0000 H   0  0  0  0  0  0  0  0  0  0  0  0
   10.6810    0.4716    0.0000 H   0  0  0  0  0  0  0  0  0  0  0  0
   12.1300   -2.0159    0.0000 H   0  0  0  0  0  0  0  0  0  0  0  0
   12.1300   -0.3501    0.0000 H   0  0  0  0  0  0  0  0  0  0  0  0
  1 13  1  0  0  0  0
  1 30  1  0  0  0  0
  2 15  2  0  0  0  0
  3 26  2  0  0  0  0
  4 30  2  0  0  0  0
  5  7  1  0  0  0  0
  5  8  1  0  0  0  0
  5 15  1  0  0  0  0
  6 28  3  0  0  0  0
  7 11  1  0  0  0  0
  7 33  1  0  0  0  0
  7 34  1  0  0  0  0
  8 12  2  0  0  0  0
  8 14  1  0  0  0  0
  9 10  1  0  0  0  0
  9 12  1  0  0  0  0
  9 28  1  0  0  0  0
  9 35  1  0  0  0  0
 10 16  1  0  0  0  0
 10 36  1  0  0  0  0
 10 37  1  0  0  0  0
 11 17  2  0  0  0  0
 11 20  1  0  0  0  0
 12 38  1  0  0  0  0
 13 23  1  0  0  0  0
 13 24  1  0  0  0  0
 13 25  1  0  0  0  0
 14 16  2  0  0  0  0
 14 39  1  0  0  0  0
 15 18  1  0  0  0  0
 16 40  1  0  0  0  0
 17 19  1  0  0  0  0
 17 41  1  0  0  0  0
 18 26  1  0  0  0  0
 18 42  1  0  0  0  0
 18 43  1  0  0  0  0
 19 21  1  0  0  0  0
 19 27  2  0  0  0  0
 20 22  2  0  0  0  0
 20 44  1  0  0  0  0
 21 22  1  0  0  0  0
 21 29  2  0  0  0  0
 22 45  1  0  0  0  0
 23 46  1  0  0  0  0
 23 47  1  0  0  0  0
 23 48  1  0  0  0  0
 24 49  1  0  0  0  0
 24 50  1  0  0  0  0
 24 51  1  0  0  0  0
 25 52  1  0  0  0  0
 25 53  1  0  0  0  0
 25 54  1  0  0  0  0
 26 30  1  0  0  0  0
 27 31  1  0  0  0  0
 27 55  1  0  0  0  0
 29 32  1  0  0  0  0
 29 56  1  0  0  0  0
 31 32  2  0  0  0  0
 31 57  1  0  0  0  0
 32 58  1  0  0  0  0
M  END
> <PUBCHEM_COMPOUND_CID>
505571
> <PUBCHEM_COMPOUND_CANONICALIZED>
1
> <PUBCHEM_CACTVS_COMPLEXITY>
842
> <PUBCHEM_CACTVS_HBOND_ACCEPTOR>
5
> <PUBCHEM_CACTVS_HBOND_DONOR>
0
> <PUBCHEM_CACTVS_ROTATABLE_BOND>
8
> <PUBCHEM_CACTVS_SUBSKEYS>
AAADceB7OAAAAAAAAAAAAAAAAAAAAAAAAAAwYIAAAAAAAADBUAAAHgAAAAAADUzBmAQyCMMABACYBqXSWAKCAAAgAgAIiAFIBIgIoDqIkRWGIAhkhgCIiA83gMAOwAACAAAQAACAAAQAACAAAAAAAAAAAA==
> <PUBCHEM_IUPAC_OPENEYE_NAME>
tert-butyl 4-[(3-cyanocyclohexa-1,5-dien-1-yl)-(2-naphthylmethyl)amino]-2,4-dioxo-butanoate
> <PUBCHEM_IUPAC_CAS_NAME>
4-[(3-cyano-1-cyclohexa-1,5-dienyl)-(2-naphthalenylmethyl)amino]-2,4-dioxobutanoic acid tert-butyl ester
> <PUBCHEM_IUPAC_NAME_MARKUP>
<I>tert</I>-butyl 4-[(3-cyanocyclohexa-1,5-dien-1-yl)-(naphthalen-2-ylmethyl)amino]-2,4-dioxobutanoate
> <PUBCHEM_IUPAC_NAME>
tert-butyl 4-[(3-cyanocyclohexa-1,5-dien-1-yl)-(naphthalen-2-ylmethyl)amino]-2,4-dioxobutanoate
> <PUBCHEM_IUPAC_SYSTEMATIC_NAME>
tert-butyl 4-[(3-cyanocyclohexa-1,5-dien-1-yl)-(naphthalen-2-ylmethyl)amino]-2,4-bis(oxidanylidene)butanoate
> <PUBCHEM_IUPAC_TRADITIONAL_NAME>
4-[(3-cyanocyclohexa-1,5-dien-1-yl)-(2-naphthylmethyl)amino]-2,4-diketo-butyric acid tert-butyl ester
> <PUBCHEM_IUPAC_INCHI>
InChI=1S/C26H26N2O4/c1-26(2,3)32-25(31)23(29)15-24(30)28(22-10-6-7-18(14-22)16-27)17-19-11-12-20-8-4-5-9-21(20)13-19/h4-6,8-14,18H,7,15,17H2,1-3H3
> <PUBCHEM_IUPAC_INCHIKEY>
GIQNBZQTBHXCTK-UHFFFAOYSA-N
> <PUBCHEM_XLOGP3_AA>
4.3
> <PUBCHEM_EXACT_MASS>
430.18925731
> <PUBCHEM_MOLECULAR_FORMULA>
C26H26N2O4
> <PUBCHEM_MOLECULAR_WEIGHT>
430.5
> <PUBCHEM_OPENEYE_CAN_SMILES>
CC(C)(C)OC(=O)C(=O)CC(=O)N(CC1=CC2=CC=CC=C2C=C1)C3=CC(CC=C3)C#N
> <PUBCHEM_OPENEYE_ISO_SMILES>
CC(C)(C)OC(=O)C(=O)CC(=O)N(CC1=CC2=CC=CC=C2C=C1)C3=CC(CC=C3)C#N
> <PUBCHEM_CACTVS_TPSA>
87.5
> <PUBCHEM_MONOISOTOPIC_WEIGHT>
430.18925731
> <PUBCHEM_TOTAL_CHARGE>
0
> <PUBCHEM_HEAVY_ATOM_COUNT>
32
> <PUBCHEM_ATOM_DEF_STEREO_COUNT>
0
> <PUBCHEM_ATOM_UDEF_STEREO_COUNT>
1
> <PUBCHEM_BOND_DEF_STEREO_COUNT>
0
> <PUBCHEM_BOND_UDEF_STEREO_COUNT>
0
> <PUBCHEM_ISOTOPIC_ATOM_COUNT>
0
> <PUBCHEM_COMPONENT_COUNT>
1
> <PUBCHEM_CACTVS_TAUTO_COUNT>
-1
> <PUBCHEM_COORDINATE_TYPE>
1
5
255
> <PUBCHEM_BONDANNOTATIONS>
11  17  8
11  20  8
17  19  8
19  21  8
19  27  8
20  22  8
21  22  8
21  29  8
27  31  8
29  32  8
31  32  8
9  28  3
$$$$
