505762
  -OEChem-10302200282D
 49 51  0     1  0  0  0  0  0999 V2000
    4.5981    3.5000    0.0000 S   0  0  0  0  0  0  0  0  0  0  0  0
    2.8660   -3.5000    0.0000 O   0  0  0  0  0  0  0  0  0  0  0  0
    4.5981   -3.5000    0.0000 O   0  0  0  0  0  0  0  0  0  0  0  0
    5.4641   -2.0000    0.0000 O   0  0  0  0  0  0  0  0  0  0  0  0
    5.4641   -1.0000    0.0000 O   0  0  0  0  0  0  0  0  0  0  0  0
    3.7320   -1.0000    0.0000 N   0  0  0  0  0  0  0  0  0  0  0  0
    6.3301    0.5000    0.0000 N   0  0  0  0  0  0  0  0  0  0  0  0
    9.8744    0.6953    0.0000 N   0  0  0  0  0  0  0  0  0  0  0  0
    5.4641    2.0000    0.0000 N   0  0  0  0  0  0  0  0  0  0  0  0
   10.4580    1.5000    0.0000 N   0  0  0  0  0  0  0  0  0  0  0  0
    3.7320    2.0000    0.0000 N   0  0  0  0  0  0  0  0  0  0  0  0
    3.7320   -2.0000    0.0000 C   0  0  2  0  0  0  0  0  0  0  0  0
    2.8660   -2.5000    0.0000 C   0  0  1  0  0  0  0  0  0  0  0  0
    2.0000   -2.0000    0.0000 C   0  0  0  0  0  0  0  0  0  0  0  0
    4.5981   -2.5000    0.0000 C   0  0  0  0  0  0  0  0  0  0  0  0
    4.5981   -0.5000    0.0000 C   0  0  0  0  0  0  0  0  0  0  0  0
    4.5981    0.5000    0.0000 C   0  0  0  0  0  0  0  0  0  0  0  0
    7.1962    1.0000    0.0000 C   0  0  0  0  0  0  0  0  0  0  0  0
    5.4641    1.0000    0.0000 C   0  0  0  0  0  0  0  0  0  0  0  0
    8.9282    1.0000    0.0000 C   0  0  0  0  0  0  0  0  0  0  0  0
    8.9282    2.0000    0.0000 C   0  0  0  0  0  0  0  0  0  0  0  0
    8.0622    0.5000    0.0000 C   0  0  0  0  0  0  0  0  0  0  0  0
    7.1962    2.0000    0.0000 C   0  0  0  0  0  0  0  0  0  0  0  0
    8.0622    2.5000    0.0000 C   0  0  0  0  0  0  0  0  0  0  0  0
    3.7320    1.0000    0.0000 C   0  0  0  0  0  0  0  0  0  0  0  0
    9.8744    2.3047    0.0000 C   0  0  0  0  0  0  0  0  0  0  0  0
    4.5981    2.5000    0.0000 C   0  0  0  0  0  0  0  0  0  0  0  0
    5.4641   -4.0000    0.0000 C   0  0  0  0  0  0  0  0  0  0  0  0
    3.7320    4.0000    0.0000 C   0  0  0  0  0  0  0  0  0  0  0  0
    4.2690   -1.6900    0.0000 H   0  0  0  0  0  0  0  0  0  0  0  0
    3.4030   -2.8100    0.0000 H   0  0  0  0  0  0  0  0  0  0  0  0
    3.1951   -0.6900    0.0000 H   0  0  0  0  0  0  0  0  0  0  0  0
    2.3100   -1.4631    0.0000 H   0  0  0  0  0  0  0  0  0  0  0  0
    1.4631   -1.6900    0.0000 H   0  0  0  0  0  0  0  0  0  0  0  0
    1.6900   -2.5369    0.0000 H   0  0  0  0  0  0  0  0  0  0  0  0
    6.3301   -0.1200    0.0000 H   0  0  0  0  0  0  0  0  0  0  0  0
    8.0622   -0.1200    0.0000 H   0  0  0  0  0  0  0  0  0  0  0  0
    2.3291   -3.8100    0.0000 H   0  0  0  0  0  0  0  0  0  0  0  0
    6.6592    2.3100    0.0000 H   0  0  0  0  0  0  0  0  0  0  0  0
    8.0622    3.1200    0.0000 H   0  0  0  0  0  0  0  0  0  0  0  0
    3.1951    0.6900    0.0000 H   0  0  0  0  0  0  0  0  0  0  0  0
   10.0670    0.1059    0.0000 H   0  0  0  0  0  0  0  0  0  0  0  0
   10.0670    2.8940    0.0000 H   0  0  0  0  0  0  0  0  0  0  0  0
    5.1541   -4.5369    0.0000 H   0  0  0  0  0  0  0  0  0  0  0  0
    6.0010   -4.3100    0.0000 H   0  0  0  0  0  0  0  0  0  0  0  0
    5.7741   -3.4631    0.0000 H   0  0  0  0  0  0  0  0  0  0  0  0
    4.0420    4.5369    0.0000 H   0  0  0  0  0  0  0  0  0  0  0  0
    3.1951    4.3100    0.0000 H   0  0  0  0  0  0  0  0  0  0  0  0
    3.4220    3.4631    0.0000 H   0  0  0  0  0  0  0  0  0  0  0  0
  1 27  1  0  0  0  0
  1 29  1  0  0  0  0
 13  2  1  6  0  0  0
  2 38  1  0  0  0  0
  3 15  1  0  0  0  0
  3 28  1  0  0  0  0
  4 15  2  0  0  0  0
  5 16  2  0  0  0  0
 12  6  1  1  0  0  0
  6 16  1  0  0  0  0
  6 32  1  0  0  0  0
  7 18  1  0  0  0  0
  7 19  1  0  0  0  0
  7 36  1  0  0  0  0
  8 10  1  0  0  0  0
  8 20  1  0  0  0  0
  8 42  1  0  0  0  0
  9 19  2  0  0  0  0
  9 27  1  0  0  0  0
 10 26  2  0  0  0  0
 11 25  1  0  0  0  0
 11 27  2  0  0  0  0
 12 13  1  0  0  0  0
 12 15  1  0  0  0  0
 12 30  1  0  0  0  0
 13 14  1  0  0  0  0
 13 31  1  0  0  0  0
 14 33  1  0  0  0  0
 14 34  1  0  0  0  0
 14 35  1  0  0  0  0
 16 17  1  0  0  0  0
 17 19  1  0  0  0  0
 17 25  2  0  0  0  0
 18 22  2  0  0  0  0
 18 23  1  0  0  0  0
 20 21  2  0  0  0  0
 20 22  1  0  0  0  0
 21 24  1  0  0  0  0
 21 26  1  0  0  0  0
 22 37  1  0  0  0  0
 23 24  2  0  0  0  0
 23 39  1  0  0  0  0
 24 40  1  0  0  0  0
 25 41  1  0  0  0  0
 26 43  1  0  0  0  0
 28 44  1  0  0  0  0
 28 45  1  0  0  0  0
 28 46  1  0  0  0  0
 29 47  1  0  0  0  0
 29 48  1  0  0  0  0
 29 49  1  0  0  0  0
M  END
> <PUBCHEM_COMPOUND_CID>
505762
> <PUBCHEM_COMPOUND_CANONICALIZED>
1
> <PUBCHEM_CACTVS_COMPLEXITY>
585
> <PUBCHEM_CACTVS_HBOND_ACCEPTOR>
9
> <PUBCHEM_CACTVS_HBOND_DONOR>
4
> <PUBCHEM_CACTVS_ROTATABLE_BOND>
8
> <PUBCHEM_CACTVS_SUBSKEYS>
AAADceB7uABAAAAAAAAAAAAAAAAAAWAAAAA8QAAAAAAAAFgB/AAAHgQYCAAADDzhnga/+PbrFgiqAzf3fACS1Cl1gqAZ+aG4ZNiKOP7A2fGF5IhtvgLYyOcQgAAOCAAAAAQCAAAQAAAACAQAAAAAAAAAAA==
> <PUBCHEM_IUPAC_OPENEYE_NAME>
methyl (2R,3R)-3-hydroxy-2-[[4-(1H-indazol-6-ylamino)-2-methylsulfanyl-pyrimidine-5-carbonyl]amino]butanoate
> <PUBCHEM_IUPAC_CAS_NAME>
(2R,3R)-3-hydroxy-2-[[[4-(1H-indazol-6-ylamino)-2-(methylthio)-5-pyrimidinyl]-oxomethyl]amino]butanoic acid methyl ester
> <PUBCHEM_IUPAC_NAME_MARKUP>
methyl (2<I>R</I>,3<I>R</I>)-3-hydroxy-2-[[4-(1<I>H</I>-indazol-6-ylamino)-2-methylsulfanylpyrimidine-5-carbonyl]amino]butanoate
> <PUBCHEM_IUPAC_NAME>
methyl (2R,3R)-3-hydroxy-2-[[4-(1H-indazol-6-ylamino)-2-methylsulfanylpyrimidine-5-carbonyl]amino]butanoate
> <PUBCHEM_IUPAC_SYSTEMATIC_NAME>
methyl (2R,3R)-2-[[4-(1H-indazol-6-ylamino)-2-methylsulfanyl-pyrimidin-5-yl]carbonylamino]-3-oxidanyl-butanoate
> <PUBCHEM_IUPAC_TRADITIONAL_NAME>
(2R,3R)-3-hydroxy-2-[[4-(1H-indazol-6-ylamino)-2-(methylthio)pyrimidine-5-carbonyl]amino]butyric acid methyl ester
> <PUBCHEM_IUPAC_INCHI>
InChI=1S/C18H20N6O4S/c1-9(25)14(17(27)28-2)22-16(26)12-8-19-18(29-3)23-15(12)21-11-5-4-10-7-20-24-13(10)6-11/h4-9,14,25H,1-3H3,(H,20,24)(H,22,26)(H,19,21,23)/t9-,14-/m1/s1
> <PUBCHEM_IUPAC_INCHIKEY>
IKQUCESFRAGDBE-YMTOWFKASA-N
> <PUBCHEM_XLOGP3_AA>
2.1
> <PUBCHEM_EXACT_MASS>
416.12667431
> <PUBCHEM_MOLECULAR_FORMULA>
C18H20N6O4S
> <PUBCHEM_MOLECULAR_WEIGHT>
416.5
> <PUBCHEM_OPENEYE_CAN_SMILES>
CC(C(C(=O)OC)NC(=O)C1=CN=C(N=C1NC2=CC3=C(C=C2)C=NN3)SC)O
> <PUBCHEM_OPENEYE_ISO_SMILES>
C[C@H]([C@H](C(=O)OC)NC(=O)C1=CN=C(N=C1NC2=CC3=C(C=C2)C=NN3)SC)O
> <PUBCHEM_CACTVS_TPSA>
167
> <PUBCHEM_MONOISOTOPIC_WEIGHT>
416.12667431
> <PUBCHEM_TOTAL_CHARGE>
0
> <PUBCHEM_HEAVY_ATOM_COUNT>
29
> <PUBCHEM_ATOM_DEF_STEREO_COUNT>
2
> <PUBCHEM_ATOM_UDEF_STEREO_COUNT>
0
> <PUBCHEM_BOND_DEF_STEREO_COUNT>
0
> <PUBCHEM_BOND_UDEF_STEREO_COUNT>
0
> <PUBCHEM_ISOTOPIC_ATOM_COUNT>
0
> <PUBCHEM_COMPONENT_COUNT>
1
> <PUBCHEM_CACTVS_TAUTO_COUNT>
-1
> <PUBCHEM_COORDINATE_TYPE>
1
5
255
> <PUBCHEM_BONDANNOTATIONS>
10  26  8
11  25  8
11  27  8
17  19  8
17  25  8
18  22  8
18  23  8
13  2  6
20  21  8
20  22  8
21  24  8
21  26  8
23  24  8
12  6  5
8  10  8
8  20  8
9  19  8
9  27  8
$$$$
