505883
  -OEChem-10302200282D
 74 78  0     1  0  0  0  0  0999 V2000
    7.1966   -5.3945    0.0000 F   0  0  0  0  0  0  0  0  0  0  0  0
    2.2522   -0.3193    0.0000 O   0  0  0  0  0  0  0  0  0  0  0  0
    3.8345    0.3852    0.0000 O   0  0  0  0  0  0  0  0  0  0  0  0
    4.6480   -1.4419    0.0000 N   0  0  3  0  0  0  0  0  0  0  0  0
    7.0967    0.3945    0.0000 N   0  0  0  0  0  0  0  0  0  0  0  0
    7.0967    3.3945    0.0000 N   0  0  3  0  0  0  0  0  0  0  0  0
    7.9627    4.8945    0.0000 N   0  0  0  0  0  0  0  0  0  0  0  0
    8.8287    3.3945    0.0000 N   0  0  0  0  0  0  0  0  0  0  0  0
    6.2306   -1.1055    0.0000 C   0  0  2  0  0  0  0  0  0  0  0  0
    3.0657   -2.1464    0.0000 C   0  0  0  0  0  0  0  0  0  0  0  0
    6.1261   -2.1000    0.0000 C   0  0  2  0  0  0  0  0  0  0  0  0
    3.6534   -1.3373    0.0000 C   0  0  2  0  0  0  0  0  0  0  0  0
    5.3171   -0.6987    0.0000 C   0  0  0  0  0  0  0  0  0  0  0  0
    5.1480   -2.3079    0.0000 C   0  0  0  0  0  0  0  0  0  0  0  0
    2.0780   -2.3028    0.0000 C   0  0  0  0  0  0  0  0  0  0  0  0
    3.2221   -3.1340    0.0000 C   0  0  0  0  0  0  0  0  0  0  0  0
    7.0967   -0.6055    0.0000 C   0  0  0  0  0  0  0  0  0  0  0  0
    2.2344   -3.2905    0.0000 C   0  0  0  0  0  0  0  0  0  0  0  0
    6.8692   -2.7691    0.0000 C   0  0  0  0  0  0  0  0  0  0  0  0
    6.2306    0.8945    0.0000 C   0  0  0  0  0  0  0  0  0  0  0  0
    7.9627    0.8945    0.0000 C   0  0  0  0  0  0  0  0  0  0  0  0
    3.2467   -0.4238    0.0000 C   0  0  0  0  0  0  0  0  0  0  0  0
    7.0967    2.3945    0.0000 C   0  0  0  0  0  0  0  0  0  0  0  0
    6.2306    1.8945    0.0000 C   0  0  0  0  0  0  0  0  0  0  0  0
    7.9627    1.8945    0.0000 C   0  0  0  0  0  0  0  0  0  0  0  0
    6.6613   -3.7473    0.0000 C   0  0  0  0  0  0  0  0  0  0  0  0
    7.8203   -2.4601    0.0000 C   0  0  0  0  0  0  0  0  0  0  0  0
    7.4045   -4.4164    0.0000 C   0  0  0  0  0  0  0  0  0  0  0  0
    8.5634   -3.1292    0.0000 C   0  0  0  0  0  0  0  0  0  0  0  0
    6.2306    3.8945    0.0000 C   0  0  0  0  0  0  0  0  0  0  0  0
    7.9627    3.8945    0.0000 C   0  0  0  0  0  0  0  0  0  0  0  0
    8.3555   -4.1074    0.0000 C   0  0  0  0  0  0  0  0  0  0  0  0
    6.2306    4.8945    0.0000 C   0  0  0  0  0  0  0  0  0  0  0  0
    8.8287    5.3945    0.0000 C   0  0  0  0  0  0  0  0  0  0  0  0
    9.6947    3.8945    0.0000 C   0  0  0  0  0  0  0  0  0  0  0  0
    9.6947    4.8945    0.0000 C   0  0  0  0  0  0  0  0  0  0  0  0
    6.1982   -0.4863    0.0000 H   0  0  0  0  0  0  0  0  0  0  0  0
    2.7417   -1.6177    0.0000 H   0  0  0  0  0  0  0  0  0  0  0  0
    6.7049   -1.8778    0.0000 H   0  0  0  0  0  0  0  0  0  0  0  0
    4.0179   -0.8358    0.0000 H   0  0  0  0  0  0  0  0  0  0  0  0
    5.6271   -0.1618    0.0000 H   0  0  0  0  0  0  0  0  0  0  0  0
    4.8155   -0.3343    0.0000 H   0  0  0  0  0  0  0  0  0  0  0  0
    4.5816   -2.5601    0.0000 H   0  0  0  0  0  0  0  0  0  0  0  0
    5.3396   -2.8976    0.0000 H   0  0  0  0  0  0  0  0  0  0  0  0
    1.9810   -1.6904    0.0000 H   0  0  0  0  0  0  0  0  0  0  0  0
    1.4656   -2.3998    0.0000 H   0  0  0  0  0  0  0  0  0  0  0  0
    3.3191   -3.7464    0.0000 H   0  0  0  0  0  0  0  0  0  0  0  0
    3.8344   -3.0371    0.0000 H   0  0  0  0  0  0  0  0  0  0  0  0
    7.3087   -1.1881    0.0000 H   0  0  0  0  0  0  0  0  0  0  0  0
    7.7072   -0.4978    0.0000 H   0  0  0  0  0  0  0  0  0  0  0  0
    1.6220   -3.3875    0.0000 H   0  0  0  0  0  0  0  0  0  0  0  0
    2.3314   -3.9028    0.0000 H   0  0  0  0  0  0  0  0  0  0  0  0
    5.6200    1.0022    0.0000 H   0  0  0  0  0  0  0  0  0  0  0  0
    6.0186    0.3119    0.0000 H   0  0  0  0  0  0  0  0  0  0  0  0
    8.1747    0.3119    0.0000 H   0  0  0  0  0  0  0  0  0  0  0  0
    8.5733    1.0022    0.0000 H   0  0  0  0  0  0  0  0  0  0  0  0
    7.6336    2.7045    0.0000 H   0  0  0  0  0  0  0  0  0  0  0  0
    6.0186    2.4772    0.0000 H   0  0  0  0  0  0  0  0  0  0  0  0
    5.6200    1.7869    0.0000 H   0  0  0  0  0  0  0  0  0  0  0  0
    8.5733    1.7869    0.0000 H   0  0  0  0  0  0  0  0  0  0  0  0
    8.1747    2.4772    0.0000 H   0  0  0  0  0  0  0  0  0  0  0  0
    6.0717   -3.9388    0.0000 H   0  0  0  0  0  0  0  0  0  0  0  0
    7.9492   -1.8536    0.0000 H   0  0  0  0  0  0  0  0  0  0  0  0
    2.0000    0.2471    0.0000 H   0  0  0  0  0  0  0  0  0  0  0  0
    9.1531   -2.9376    0.0000 H   0  0  0  0  0  0  0  0  0  0  0  0
    5.6200    4.0022    0.0000 H   0  0  0  0  0  0  0  0  0  0  0  0
    6.0186    3.3119    0.0000 H   0  0  0  0  0  0  0  0  0  0  0  0
    8.8163   -4.5222    0.0000 H   0  0  0  0  0  0  0  0  0  0  0  0
    6.8506    4.8945    0.0000 H   0  0  0  0  0  0  0  0  0  0  0  0
    6.2306    5.5145    0.0000 H   0  0  0  0  0  0  0  0  0  0  0  0
    5.6106    4.8945    0.0000 H   0  0  0  0  0  0  0  0  0  0  0  0
    8.8287    6.0145    0.0000 H   0  0  0  0  0  0  0  0  0  0  0  0
   10.2317    3.5845    0.0000 H   0  0  0  0  0  0  0  0  0  0  0  0
   10.2317    5.2045    0.0000 H   0  0  0  0  0  0  0  0  0  0  0  0
  1 28  1  0  0  0  0
  2 22  1  0  0  0  0
  2 64  1  0  0  0  0
  3 22  2  0  0  0  0
  4 12  1  0  0  0  0
  4 13  1  0  0  0  0
  4 14  1  0  0  0  0
  5 17  1  0  0  0  0
  5 20  1  0  0  0  0
  5 21  1  0  0  0  0
  6 23  1  0  0  0  0
  6 30  1  0  0  0  0
  6 31  1  0  0  0  0
  7 31  2  0  0  0  0
  7 34  1  0  0  0  0
  8 31  1  0  0  0  0
  8 35  2  0  0  0  0
  9 11  1  0  0  0  0
  9 13  1  0  0  0  0
  9 17  1  6  0  0  0
  9 37  1  0  0  0  0
 10 12  1  0  0  0  0
 10 15  1  0  0  0  0
 10 16  1  0  0  0  0
 10 38  1  0  0  0  0
 11 14  1  0  0  0  0
 11 19  1  1  0  0  0
 11 39  1  0  0  0  0
 12 22  1  6  0  0  0
 12 40  1  0  0  0  0
 13 41  1  0  0  0  0
 13 42  1  0  0  0  0
 14 43  1  0  0  0  0
 14 44  1  0  0  0  0
 15 18  1  0  0  0  0
 15 45  1  0  0  0  0
 15 46  1  0  0  0  0
 16 18  1  0  0  0  0
 16 47  1  0  0  0  0
 16 48  1  0  0  0  0
 17 49  1  0  0  0  0
 17 50  1  0  0  0  0
 18 51  1  0  0  0  0
 18 52  1  0  0  0  0
 19 26  2  0  0  0  0
 19 27  1  0  0  0  0
 20 24  1  0  0  0  0
 20 53  1  0  0  0  0
 20 54  1  0  0  0  0
 21 25  1  0  0  0  0
 21 55  1  0  0  0  0
 21 56  1  0  0  0  0
 23 24  1  0  0  0  0
 23 25  1  0  0  0  0
 23 57  1  0  0  0  0
 24 58  1  0  0  0  0
 24 59  1  0  0  0  0
 25 60  1  0  0  0  0
 25 61  1  0  0  0  0
 26 28  1  0  0  0  0
 26 62  1  0  0  0  0
 27 29  2  0  0  0  0
 27 63  1  0  0  0  0
 28 32  2  0  0  0  0
 29 32  1  0  0  0  0
 29 65  1  0  0  0  0
 30 33  1  0  0  0  0
 30 66  1  0  0  0  0
 30 67  1  0  0  0  0
 32 68  1  0  0  0  0
 33 69  1  0  0  0  0
 33 70  1  0  0  0  0
 33 71  1  0  0  0  0
 34 36  2  0  0  0  0
 34 72  1  0  0  0  0
 35 36  1  0  0  0  0
 35 73  1  0  0  0  0
 36 74  1  0  0  0  0
M  END
> <PUBCHEM_COMPOUND_CID>
505883
> <PUBCHEM_COMPOUND_CANONICALIZED>
1
> <PUBCHEM_CACTVS_COMPLEXITY>
710
> <PUBCHEM_CACTVS_HBOND_ACCEPTOR>
8
> <PUBCHEM_CACTVS_HBOND_DONOR>
1
> <PUBCHEM_CACTVS_ROTATABLE_BOND>
9
> <PUBCHEM_CACTVS_SUBSKEYS>
AAADcfB7sQAAAAAAAAAAAAAAAABgAWAAAAA8WIAAAAAAAAABwAAAHwAACAAADSjBmgw/mJcIEgCoAjD3bACCgCkxAqAJ2CG4ZJiKKLLA2XGEZAgsgALYiCeYyMAOgAAAAAAAAAAAAAAAAAAAAAAAAAAAAA==
> <PUBCHEM_IUPAC_OPENEYE_NAME>
(2R)-2-cyclobutyl-2-[(3S,4S)-3-[[4-[ethyl(pyrimidin-2-yl)amino]-1-piperidyl]methyl]-4-(3-fluorophenyl)pyrrolidin-1-yl]acetic acid
> <PUBCHEM_IUPAC_CAS_NAME>
(2R)-2-cyclobutyl-2-[(3S,4S)-3-[[4-[ethyl(2-pyrimidinyl)amino]-1-piperidinyl]methyl]-4-(3-fluorophenyl)-1-pyrrolidinyl]acetic acid
> <PUBCHEM_IUPAC_NAME_MARKUP>
(2<I>R</I>)-2-cyclobutyl-2-[(3<I>S</I>,4<I>S</I>)-3-[[4-[ethyl(pyrimidin-2-yl)amino]piperidin-1-yl]methyl]-4-(3-fluorophenyl)pyrrolidin-1-yl]acetic acid
> <PUBCHEM_IUPAC_NAME>
(2R)-2-cyclobutyl-2-[(3S,4S)-3-[[4-[ethyl(pyrimidin-2-yl)amino]piperidin-1-yl]methyl]-4-(3-fluorophenyl)pyrrolidin-1-yl]acetic acid
> <PUBCHEM_IUPAC_SYSTEMATIC_NAME>
(2R)-2-cyclobutyl-2-[(3S,4S)-3-[[4-[ethyl(pyrimidin-2-yl)amino]piperidin-1-yl]methyl]-4-(3-fluorophenyl)pyrrolidin-1-yl]ethanoic acid
> <PUBCHEM_IUPAC_TRADITIONAL_NAME>
(2R)-2-cyclobutyl-2-[(3S,4S)-3-[[4-[ethyl(2-pyrimidyl)amino]piperidino]methyl]-4-(3-fluorophenyl)pyrrolidino]acetic acid
> <PUBCHEM_IUPAC_INCHI>
InChI=1S/C28H38FN5O2/c1-2-34(28-30-12-5-13-31-28)24-10-14-32(15-11-24)17-22-18-33(26(27(35)36)20-6-3-7-20)19-25(22)21-8-4-9-23(29)16-21/h4-5,8-9,12-13,16,20,22,24-26H,2-3,6-7,10-11,14-15,17-19H2,1H3,(H,35,36)/t22-,25+,26+/m0/s1
> <PUBCHEM_IUPAC_INCHIKEY>
UIQUARXUINWCCM-HDYLNDSGSA-N
> <PUBCHEM_XLOGP3_AA>
2.2
> <PUBCHEM_EXACT_MASS>
495.30095363
> <PUBCHEM_MOLECULAR_FORMULA>
C28H38FN5O2
> <PUBCHEM_MOLECULAR_WEIGHT>
495.6
> <PUBCHEM_OPENEYE_CAN_SMILES>
CCN(C1CCN(CC1)CC2CN(CC2C3=CC(=CC=C3)F)C(C4CCC4)C(=O)O)C5=NC=CC=N5
> <PUBCHEM_OPENEYE_ISO_SMILES>
CCN(C1CCN(CC1)C[C@H]2CN(C[C@@H]2C3=CC(=CC=C3)F)[C@H](C4CCC4)C(=O)O)C5=NC=CC=N5
> <PUBCHEM_CACTVS_TPSA>
72.8
> <PUBCHEM_MONOISOTOPIC_WEIGHT>
495.30095363
> <PUBCHEM_TOTAL_CHARGE>
0
> <PUBCHEM_HEAVY_ATOM_COUNT>
36
> <PUBCHEM_ATOM_DEF_STEREO_COUNT>
3
> <PUBCHEM_ATOM_UDEF_STEREO_COUNT>
0
> <PUBCHEM_BOND_DEF_STEREO_COUNT>
0
> <PUBCHEM_BOND_UDEF_STEREO_COUNT>
0
> <PUBCHEM_ISOTOPIC_ATOM_COUNT>
0
> <PUBCHEM_COMPONENT_COUNT>
1
> <PUBCHEM_CACTVS_TAUTO_COUNT>
-1
> <PUBCHEM_COORDINATE_TYPE>
1
5
255
> <PUBCHEM_BONDANNOTATIONS>
11  19  5
12  22  6
19  26  8
19  27  8
26  28  8
27  29  8
28  32  8
29  32  8
34  36  8
35  36  8
7  31  8
7  34  8
8  31  8
8  35  8
9  17  6
$$$$
