505884
  -OEChem-10302200282D
 78 83  0     1  0  0  0  0  0999 V2000
    7.1966   -5.5775    0.0000 F   0  0  0  0  0  0  0  0  0  0  0  0
    2.2522   -0.5023    0.0000 O   0  0  0  0  0  0  0  0  0  0  0  0
    3.8345    0.2022    0.0000 O   0  0  0  0  0  0  0  0  0  0  0  0
    4.6480   -1.6249    0.0000 N   0  0  3  0  0  0  0  0  0  0  0  0
    7.0967    0.2115    0.0000 N   0  0  0  0  0  0  0  0  0  0  0  0
    7.0967    3.2115    0.0000 N   0  0  3  0  0  0  0  0  0  0  0  0
    8.8287    3.2115    0.0000 N   0  0  0  0  0  0  0  0  0  0  0  0
    7.9627    4.7115    0.0000 N   0  0  0  0  0  0  0  0  0  0  0  0
    6.2306   -1.2885    0.0000 C   0  0  2  0  0  0  0  0  0  0  0  0
    6.1261   -2.2830    0.0000 C   0  0  2  0  0  0  0  0  0  0  0  0
    3.0657   -2.3294    0.0000 C   0  0  0  0  0  0  0  0  0  0  0  0
    3.6534   -1.5204    0.0000 C   0  0  2  0  0  0  0  0  0  0  0  0
    5.3171   -0.8817    0.0000 C   0  0  0  0  0  0  0  0  0  0  0  0
    5.1480   -2.4909    0.0000 C   0  0  0  0  0  0  0  0  0  0  0  0
    7.0967   -0.7885    0.0000 C   0  0  0  0  0  0  0  0  0  0  0  0
    2.0780   -2.4858    0.0000 C   0  0  0  0  0  0  0  0  0  0  0  0
    3.2221   -3.3171    0.0000 C   0  0  0  0  0  0  0  0  0  0  0  0
    2.2344   -3.4735    0.0000 C   0  0  0  0  0  0  0  0  0  0  0  0
    6.2306    4.7115    0.0000 C   0  0  0  0  0  0  0  0  0  0  0  0
    7.0967    2.2115    0.0000 C   0  0  0  0  0  0  0  0  0  0  0  0
    6.7306    5.5775    0.0000 C   0  0  0  0  0  0  0  0  0  0  0  0
    5.7306    5.5775    0.0000 C   0  0  0  0  0  0  0  0  0  0  0  0
    6.2306    0.7115    0.0000 C   0  0  0  0  0  0  0  0  0  0  0  0
    7.9627    0.7115    0.0000 C   0  0  0  0  0  0  0  0  0  0  0  0
    6.2306    1.7115    0.0000 C   0  0  0  0  0  0  0  0  0  0  0  0
    7.9627    1.7115    0.0000 C   0  0  0  0  0  0  0  0  0  0  0  0
    6.2306    3.7115    0.0000 C   0  0  0  0  0  0  0  0  0  0  0  0
    6.8692   -2.9521    0.0000 C   0  0  0  0  0  0  0  0  0  0  0  0
    3.2467   -0.6068    0.0000 C   0  0  0  0  0  0  0  0  0  0  0  0
    6.6613   -3.9303    0.0000 C   0  0  0  0  0  0  0  0  0  0  0  0
    7.8203   -2.6431    0.0000 C   0  0  0  0  0  0  0  0  0  0  0  0
    7.9627    3.7115    0.0000 C   0  0  0  0  0  0  0  0  0  0  0  0
    7.4045   -4.5994    0.0000 C   0  0  0  0  0  0  0  0  0  0  0  0
    8.5634   -3.3122    0.0000 C   0  0  0  0  0  0  0  0  0  0  0  0
    8.3555   -4.2904    0.0000 C   0  0  0  0  0  0  0  0  0  0  0  0
    9.6947    3.7115    0.0000 C   0  0  0  0  0  0  0  0  0  0  0  0
    8.8287    5.2115    0.0000 C   0  0  0  0  0  0  0  0  0  0  0  0
    9.6947    4.7115    0.0000 C   0  0  0  0  0  0  0  0  0  0  0  0
    6.7506   -1.6262    0.0000 H   0  0  0  0  0  0  0  0  0  0  0  0
    6.7049   -2.0608    0.0000 H   0  0  0  0  0  0  0  0  0  0  0  0
    2.7417   -1.8007    0.0000 H   0  0  0  0  0  0  0  0  0  0  0  0
    4.0179   -1.0188    0.0000 H   0  0  0  0  0  0  0  0  0  0  0  0
    5.6271   -0.3448    0.0000 H   0  0  0  0  0  0  0  0  0  0  0  0
    4.8155   -0.5173    0.0000 H   0  0  0  0  0  0  0  0  0  0  0  0
    4.5816   -2.7431    0.0000 H   0  0  0  0  0  0  0  0  0  0  0  0
    5.3396   -3.0806    0.0000 H   0  0  0  0  0  0  0  0  0  0  0  0
    7.3087   -1.3711    0.0000 H   0  0  0  0  0  0  0  0  0  0  0  0
    7.7072   -0.6808    0.0000 H   0  0  0  0  0  0  0  0  0  0  0  0
    1.9810   -1.8734    0.0000 H   0  0  0  0  0  0  0  0  0  0  0  0
    1.4656   -2.5828    0.0000 H   0  0  0  0  0  0  0  0  0  0  0  0
    3.3191   -3.9294    0.0000 H   0  0  0  0  0  0  0  0  0  0  0  0
    3.8344   -3.2201    0.0000 H   0  0  0  0  0  0  0  0  0  0  0  0
    1.6220   -3.5705    0.0000 H   0  0  0  0  0  0  0  0  0  0  0  0
    2.3314   -4.0859    0.0000 H   0  0  0  0  0  0  0  0  0  0  0  0
    6.8295    4.5511    0.0000 H   0  0  0  0  0  0  0  0  0  0  0  0
    7.6336    2.5215    0.0000 H   0  0  0  0  0  0  0  0  0  0  0  0
    7.3132    5.3655    0.0000 H   0  0  0  0  0  0  0  0  0  0  0  0
    6.8383    6.1881    0.0000 H   0  0  0  0  0  0  0  0  0  0  0  0
    5.6230    6.1881    0.0000 H   0  0  0  0  0  0  0  0  0  0  0  0
    5.1480    5.3655    0.0000 H   0  0  0  0  0  0  0  0  0  0  0  0
    5.6200    0.8192    0.0000 H   0  0  0  0  0  0  0  0  0  0  0  0
    6.0186    0.1289    0.0000 H   0  0  0  0  0  0  0  0  0  0  0  0
    8.1747    0.1289    0.0000 H   0  0  0  0  0  0  0  0  0  0  0  0
    8.5733    0.8192    0.0000 H   0  0  0  0  0  0  0  0  0  0  0  0
    6.0186    2.2941    0.0000 H   0  0  0  0  0  0  0  0  0  0  0  0
    5.6200    1.6039    0.0000 H   0  0  0  0  0  0  0  0  0  0  0  0
    8.5733    1.6039    0.0000 H   0  0  0  0  0  0  0  0  0  0  0  0
    8.1747    2.2941    0.0000 H   0  0  0  0  0  0  0  0  0  0  0  0
    5.6200    3.8192    0.0000 H   0  0  0  0  0  0  0  0  0  0  0  0
    6.0186    3.1289    0.0000 H   0  0  0  0  0  0  0  0  0  0  0  0
    6.0717   -4.1219    0.0000 H   0  0  0  0  0  0  0  0  0  0  0  0
    7.9492   -2.0367    0.0000 H   0  0  0  0  0  0  0  0  0  0  0  0
    2.0000    0.0641    0.0000 H   0  0  0  0  0  0  0  0  0  0  0  0
    9.1531   -3.1206    0.0000 H   0  0  0  0  0  0  0  0  0  0  0  0
    8.8163   -4.7053    0.0000 H   0  0  0  0  0  0  0  0  0  0  0  0
   10.2317    3.4015    0.0000 H   0  0  0  0  0  0  0  0  0  0  0  0
    8.8287    5.8315    0.0000 H   0  0  0  0  0  0  0  0  0  0  0  0
   10.2317    5.0215    0.0000 H   0  0  0  0  0  0  0  0  0  0  0  0
  1 33  1  0  0  0  0
  2 29  1  0  0  0  0
  2 73  1  0  0  0  0
  3 29  2  0  0  0  0
  4 12  1  0  0  0  0
  4 13  1  0  0  0  0
  4 14  1  0  0  0  0
  5 15  1  0  0  0  0
  5 23  1  0  0  0  0
  5 24  1  0  0  0  0
  6 20  1  0  0  0  0
  6 27  1  0  0  0  0
  6 32  1  0  0  0  0
  7 32  2  0  0  0  0
  7 36  1  0  0  0  0
  8 32  1  0  0  0  0
  8 37  2  0  0  0  0
  9 10  1  0  0  0  0
  9 13  1  0  0  0  0
  9 15  1  6  0  0  0
  9 39  1  0  0  0  0
 10 14  1  0  0  0  0
 10 28  1  1  0  0  0
 10 40  1  0  0  0  0
 11 12  1  0  0  0  0
 11 16  1  0  0  0  0
 11 17  1  0  0  0  0
 11 41  1  0  0  0  0
 12 29  1  6  0  0  0
 12 42  1  0  0  0  0
 13 43  1  0  0  0  0
 13 44  1  0  0  0  0
 14 45  1  0  0  0  0
 14 46  1  0  0  0  0
 15 47  1  0  0  0  0
 15 48  1  0  0  0  0
 16 18  1  0  0  0  0
 16 49  1  0  0  0  0
 16 50  1  0  0  0  0
 17 18  1  0  0  0  0
 17 51  1  0  0  0  0
 17 52  1  0  0  0  0
 18 53  1  0  0  0  0
 18 54  1  0  0  0  0
 19 21  1  0  0  0  0
 19 22  1  0  0  0  0
 19 27  1  0  0  0  0
 19 55  1  0  0  0  0
 20 25  1  0  0  0  0
 20 26  1  0  0  0  0
 20 56  1  0  0  0  0
 21 22  1  0  0  0  0
 21 57  1  0  0  0  0
 21 58  1  0  0  0  0
 22 59  1  0  0  0  0
 22 60  1  0  0  0  0
 23 25  1  0  0  0  0
 23 61  1  0  0  0  0
 23 62  1  0  0  0  0
 24 26  1  0  0  0  0
 24 63  1  0  0  0  0
 24 64  1  0  0  0  0
 25 65  1  0  0  0  0
 25 66  1  0  0  0  0
 26 67  1  0  0  0  0
 26 68  1  0  0  0  0
 27 69  1  0  0  0  0
 27 70  1  0  0  0  0
 28 30  2  0  0  0  0
 28 31  1  0  0  0  0
 30 33  1  0  0  0  0
 30 71  1  0  0  0  0
 31 34  2  0  0  0  0
 31 72  1  0  0  0  0
 33 35  2  0  0  0  0
 34 35  1  0  0  0  0
 34 74  1  0  0  0  0
 35 75  1  0  0  0  0
 36 38  2  0  0  0  0
 36 76  1  0  0  0  0
 37 38  1  0  0  0  0
 37 77  1  0  0  0  0
 38 78  1  0  0  0  0
M  END
> <PUBCHEM_COMPOUND_CID>
505884
> <PUBCHEM_COMPOUND_CANONICALIZED>
1
> <PUBCHEM_CACTVS_COMPLEXITY>
781
> <PUBCHEM_CACTVS_HBOND_ACCEPTOR>
8
> <PUBCHEM_CACTVS_HBOND_DONOR>
1
> <PUBCHEM_CACTVS_ROTATABLE_BOND>
10
> <PUBCHEM_CACTVS_SUBSKEYS>
AAADcfB7sQAAAAAAAAAAAAAAGABgAWAAAAA8WIAAAAAAAAABwAAAHwAACAAADSjBmgw9mJcIEgCoAjD3bACCgCkxAqAJ2CG4ZJiKKLLA2XGEZAgsgALYiCeYyMAOgAAAAAAAAAAAAAAAAAAAAAAAAAAAAA==
> <PUBCHEM_IUPAC_OPENEYE_NAME>
(2R)-2-cyclobutyl-2-[(3S,4S)-3-[[4-[cyclopropylmethyl(pyrimidin-2-yl)amino]-1-piperidyl]methyl]-4-(3-fluorophenyl)pyrrolidin-1-yl]acetic acid
> <PUBCHEM_IUPAC_CAS_NAME>
(2R)-2-cyclobutyl-2-[(3S,4S)-3-[[4-[cyclopropylmethyl(2-pyrimidinyl)amino]-1-piperidinyl]methyl]-4-(3-fluorophenyl)-1-pyrrolidinyl]acetic acid
> <PUBCHEM_IUPAC_NAME_MARKUP>
(2<I>R</I>)-2-cyclobutyl-2-[(3<I>S</I>,4<I>S</I>)-3-[[4-[cyclopropylmethyl(pyrimidin-2-yl)amino]piperidin-1-yl]methyl]-4-(3-fluorophenyl)pyrrolidin-1-yl]acetic acid
> <PUBCHEM_IUPAC_NAME>
(2R)-2-cyclobutyl-2-[(3S,4S)-3-[[4-[cyclopropylmethyl(pyrimidin-2-yl)amino]piperidin-1-yl]methyl]-4-(3-fluorophenyl)pyrrolidin-1-yl]acetic acid
> <PUBCHEM_IUPAC_SYSTEMATIC_NAME>
(2R)-2-cyclobutyl-2-[(3S,4S)-3-[[4-[cyclopropylmethyl(pyrimidin-2-yl)amino]piperidin-1-yl]methyl]-4-(3-fluorophenyl)pyrrolidin-1-yl]ethanoic acid
> <PUBCHEM_IUPAC_TRADITIONAL_NAME>
(2R)-2-cyclobutyl-2-[(3S,4S)-3-[[4-[cyclopropylmethyl(2-pyrimidyl)amino]piperidino]methyl]-4-(3-fluorophenyl)pyrrolidino]acetic acid
> <PUBCHEM_IUPAC_INCHI>
InChI=1S/C30H40FN5O2/c31-25-7-2-6-23(16-25)27-20-35(28(29(37)38)22-4-1-5-22)19-24(27)18-34-14-10-26(11-15-34)36(17-21-8-9-21)30-32-12-3-13-33-30/h2-3,6-7,12-13,16,21-22,24,26-28H,1,4-5,8-11,14-15,17-20H2,(H,37,38)/t24-,27+,28+/m0/s1
> <PUBCHEM_IUPAC_INCHIKEY>
OCXFSBXZRQHAFC-HNPKZYAISA-N
> <PUBCHEM_XLOGP3_AA>
2.5
> <PUBCHEM_EXACT_MASS>
521.31660370
> <PUBCHEM_MOLECULAR_FORMULA>
C30H40FN5O2
> <PUBCHEM_MOLECULAR_WEIGHT>
521.7
> <PUBCHEM_OPENEYE_CAN_SMILES>
C1CC(C1)C(C(=O)O)N2CC(C(C2)C3=CC(=CC=C3)F)CN4CCC(CC4)N(CC5CC5)C6=NC=CC=N6
> <PUBCHEM_OPENEYE_ISO_SMILES>
C1CC(C1)[C@H](C(=O)O)N2C[C@@H]([C@H](C2)C3=CC(=CC=C3)F)CN4CCC(CC4)N(CC5CC5)C6=NC=CC=N6
> <PUBCHEM_CACTVS_TPSA>
72.8
> <PUBCHEM_MONOISOTOPIC_WEIGHT>
521.31660370
> <PUBCHEM_TOTAL_CHARGE>
0
> <PUBCHEM_HEAVY_ATOM_COUNT>
38
> <PUBCHEM_ATOM_DEF_STEREO_COUNT>
3
> <PUBCHEM_ATOM_UDEF_STEREO_COUNT>
0
> <PUBCHEM_BOND_DEF_STEREO_COUNT>
0
> <PUBCHEM_BOND_UDEF_STEREO_COUNT>
0
> <PUBCHEM_ISOTOPIC_ATOM_COUNT>
0
> <PUBCHEM_COMPONENT_COUNT>
1
> <PUBCHEM_CACTVS_TAUTO_COUNT>
-1
> <PUBCHEM_COORDINATE_TYPE>
1
5
255
> <PUBCHEM_BONDANNOTATIONS>
10  28  5
12  29  6
28  30  8
28  31  8
30  33  8
31  34  8
33  35  8
34  35  8
36  38  8
37  38  8
7  32  8
7  36  8
8  32  8
8  37  8
9  15  6
$$$$
