505815
  -OEChem-10302200282D
 47 51  0     1  0  0  0  0  0999 V2000
   11.2837   -2.1951    0.0000 F   0  0  0  0  0  0  0  0  0  0  0  0
    7.6248   -2.0324    0.0000 O   0  0  0  0  0  0  0  0  0  0  0  0
    6.7662    2.1951    0.0000 O   0  0  0  0  0  0  0  0  0  0  0  0
    2.6058   -0.4491    0.0000 O   0  0  0  0  0  0  0  0  0  0  0  0
    2.9739    1.2434    0.0000 O   0  0  0  0  0  0  0  0  0  0  0  0
   11.9167   -0.2471    0.0000 N   0  0  3  0  0  0  0  0  0  0  0  0
   13.8714    0.1763    0.0000 N   0  0  0  0  0  0  0  0  0  0  0  0
    7.2647   -0.3381    0.0000 N   0  0  0  0  0  0  0  0  0  0  0  0
    8.5519    0.8208    0.0000 N   0  0  0  0  0  0  0  0  0  0  0  0
   13.5660   -0.7760    0.0000 C   0  0  3  0  0  0  0  0  0  0  0  0
   12.5887   -0.9876    0.0000 C   0  0  0  0  0  0  0  0  0  0  0  0
   12.2220    0.7052    0.0000 C   0  0  0  0  0  0  0  0  0  0  0  0
   13.1994    0.9168    0.0000 C   0  0  0  0  0  0  0  0  0  0  0  0
   10.9393   -0.4588    0.0000 C   0  0  0  0  0  0  0  0  0  0  0  0
   14.2380   -1.5165    0.0000 C   0  0  0  0  0  0  0  0  0  0  0  0
   10.2364    0.3099    0.0000 C   0  0  0  0  0  0  0  0  0  0  0  0
    9.2210    0.0777    0.0000 C   0  0  0  0  0  0  0  0  0  0  0  0
    8.9120   -0.8734    0.0000 C   0  0  0  0  0  0  0  0  0  0  0  0
   10.6175   -1.4494    0.0000 C   0  0  0  0  0  0  0  0  0  0  0  0
    7.5737    0.6129    0.0000 C   0  0  0  0  0  0  0  0  0  0  0  0
    6.2706   -0.3356    0.0000 C   0  0  0  0  0  0  0  0  0  0  0  0
    9.5969   -1.6581    0.0000 C   0  0  0  0  0  0  0  0  0  0  0  0
    7.9338   -1.0813    0.0000 C   0  0  0  0  0  0  0  0  0  0  0  0
    5.9642    0.6101    0.0000 C   0  0  0  0  0  0  0  0  0  0  0  0
    6.7680    1.1951    0.0000 C   0  0  0  0  0  0  0  0  0  0  0  0
    5.5890   -1.1151    0.0000 C   0  0  0  0  0  0  0  0  0  0  0  0
    4.9551    0.8419    0.0000 C   0  0  0  0  0  0  0  0  0  0  0  0
    4.2556    0.0783    0.0000 C   0  0  0  0  0  0  0  0  0  0  0  0
    4.5748   -0.9067    0.0000 C   0  0  0  0  0  0  0  0  0  0  0  0
    3.2785    0.2909    0.0000 C   0  0  0  0  0  0  0  0  0  0  0  0
   14.1720   -0.6447    0.0000 H   0  0  0  0  0  0  0  0  0  0  0  0
   12.0641   -1.3182    0.0000 H   0  0  0  0  0  0  0  0  0  0  0  0
   12.8231   -1.5616    0.0000 H   0  0  0  0  0  0  0  0  0  0  0  0
   12.1980    1.3247    0.0000 H   0  0  0  0  0  0  0  0  0  0  0  0
   11.6077    0.7891    0.0000 H   0  0  0  0  0  0  0  0  0  0  0  0
   13.7239    1.2474    0.0000 H   0  0  0  0  0  0  0  0  0  0  0  0
   12.9649    1.4908    0.0000 H   0  0  0  0  0  0  0  0  0  0  0  0
   14.4773    0.3075    0.0000 H   0  0  0  0  0  0  0  0  0  0  0  0
   13.7788   -1.9332    0.0000 H   0  0  0  0  0  0  0  0  0  0  0  0
   14.6546   -1.9757    0.0000 H   0  0  0  0  0  0  0  0  0  0  0  0
   14.6971   -1.0999    0.0000 H   0  0  0  0  0  0  0  0  0  0  0  0
   10.4212    0.9018    0.0000 H   0  0  0  0  0  0  0  0  0  0  0  0
    9.3986   -2.2455    0.0000 H   0  0  0  0  0  0  0  0  0  0  0  0
    5.7869   -1.7026    0.0000 H   0  0  0  0  0  0  0  0  0  0  0  0
    4.7708    1.4339    0.0000 H   0  0  0  0  0  0  0  0  0  0  0  0
    4.1613   -1.3687    0.0000 H   0  0  0  0  0  0  0  0  0  0  0  0
    2.0000   -0.3173    0.0000 H   0  0  0  0  0  0  0  0  0  0  0  0
  1 19  1  0  0  0  0
  2 23  2  0  0  0  0
  3 25  2  0  0  0  0
  4 30  1  0  0  0  0
  4 47  1  0  0  0  0
  5 30  2  0  0  0  0
  6 11  1  0  0  0  0
  6 12  1  0  0  0  0
  6 14  1  0  0  0  0
  7 10  1  0  0  0  0
  7 13  1  0  0  0  0
  7 38  1  0  0  0  0
  8 20  1  0  0  0  0
  8 21  1  0  0  0  0
  8 23  1  0  0  0  0
  9 17  1  0  0  0  0
  9 20  2  0  0  0  0
 10 11  1  0  0  0  0
 10 15  1  0  0  0  0
 10 31  1  0  0  0  0
 11 32  1  0  0  0  0
 11 33  1  0  0  0  0
 12 13  1  0  0  0  0
 12 34  1  0  0  0  0
 12 35  1  0  0  0  0
 13 36  1  0  0  0  0
 13 37  1  0  0  0  0
 14 16  1  0  0  0  0
 14 19  2  0  0  0  0
 15 39  1  0  0  0  0
 15 40  1  0  0  0  0
 15 41  1  0  0  0  0
 16 17  2  0  0  0  0
 16 42  1  0  0  0  0
 17 18  1  0  0  0  0
 18 22  2  0  0  0  0
 18 23  1  0  0  0  0
 19 22  1  0  0  0  0
 20 25  1  0  0  0  0
 21 24  2  0  0  0  0
 21 26  1  0  0  0  0
 22 43  1  0  0  0  0
 24 25  1  0  0  0  0
 24 27  1  0  0  0  0
 26 29  2  0  0  0  0
 26 44  1  0  0  0  0
 27 28  2  0  0  0  0
 27 45  1  0  0  0  0
 28 29  1  0  0  0  0
 28 30  1  0  0  0  0
 29 46  1  0  0  0  0
M  END
> <PUBCHEM_COMPOUND_CID>
505815
> <PUBCHEM_COMPOUND_CANONICALIZED>
1
> <PUBCHEM_CACTVS_COMPLEXITY>
804
> <PUBCHEM_CACTVS_HBOND_ACCEPTOR>
8
> <PUBCHEM_CACTVS_HBOND_DONOR>
2
> <PUBCHEM_CACTVS_ROTATABLE_BOND>
2
> <PUBCHEM_CACTVS_SUBSKEYS>
AAADceB7uQAAAAAAAAAAAAAAAAAAAWAAAAA8YIEAAAAAAFiBQAAAHwAQCAAADCzBmAwzyIPAAgCoAqfyfACCAAElAgAJiIGobMgIZjrA3fGUcYhk1AHI2ceY3+O+CAACAAQCAAAQAAQACAQAAAAAAAAAAA==
> <PUBCHEM_IUPAC_OPENEYE_NAME>
2-fluoro-3-(3-methylpiperazin-1-yl)-6,12-dioxo-indolo[2,1-b]quinazoline-8-carboxylic acid
> <PUBCHEM_IUPAC_CAS_NAME>
2-fluoro-3-(3-methyl-1-piperazinyl)-6,12-dioxo-8-indolo[2,1-b]quinazolinecarboxylic acid
> <PUBCHEM_IUPAC_NAME_MARKUP>
2-fluoro-3-(3-methylpiperazin-1-yl)-6,12-dioxoindolo[2,1-b]quinazoline-8-carboxylic acid
> <PUBCHEM_IUPAC_NAME>
2-fluoro-3-(3-methylpiperazin-1-yl)-6,12-dioxoindolo[2,1-b]quinazoline-8-carboxylic acid
> <PUBCHEM_IUPAC_SYSTEMATIC_NAME>
2-fluoranyl-3-(3-methylpiperazin-1-yl)-6,12-bis(oxidanylidene)indolo[2,1-b]quinazoline-8-carboxylic acid
> <PUBCHEM_IUPAC_TRADITIONAL_NAME>
2-fluoro-6,12-diketo-3-(3-methylpiperazino)indolo[2,1-b]quinazoline-8-carboxylic acid
> <PUBCHEM_IUPAC_INCHI>
InChI=1S/C21H17FN4O4/c1-10-9-25(5-4-23-10)17-8-15-12(7-14(17)22)20(28)26-16-3-2-11(21(29)30)6-13(16)18(27)19(26)24-15/h2-3,6-8,10,23H,4-5,9H2,1H3,(H,29,30)
> <PUBCHEM_IUPAC_INCHIKEY>
JFYPVTHLDRZAPH-UHFFFAOYSA-N
> <PUBCHEM_XLOGP3_AA>
-0.7
> <PUBCHEM_EXACT_MASS>
408.12338320
> <PUBCHEM_MOLECULAR_FORMULA>
C21H17FN4O4
> <PUBCHEM_MOLECULAR_WEIGHT>
408.4
> <PUBCHEM_OPENEYE_CAN_SMILES>
CC1CN(CCN1)C2=C(C=C3C(=C2)N=C4C(=O)C5=C(N4C3=O)C=CC(=C5)C(=O)O)F
> <PUBCHEM_OPENEYE_ISO_SMILES>
CC1CN(CCN1)C2=C(C=C3C(=C2)N=C4C(=O)C5=C(N4C3=O)C=CC(=C5)C(=O)O)F
> <PUBCHEM_CACTVS_TPSA>
102
> <PUBCHEM_MONOISOTOPIC_WEIGHT>
408.12338320
> <PUBCHEM_TOTAL_CHARGE>
0
> <PUBCHEM_HEAVY_ATOM_COUNT>
30
> <PUBCHEM_ATOM_DEF_STEREO_COUNT>
0
> <PUBCHEM_ATOM_UDEF_STEREO_COUNT>
1
> <PUBCHEM_BOND_DEF_STEREO_COUNT>
0
> <PUBCHEM_BOND_UDEF_STEREO_COUNT>
0
> <PUBCHEM_ISOTOPIC_ATOM_COUNT>
0
> <PUBCHEM_COMPONENT_COUNT>
1
> <PUBCHEM_CACTVS_TAUTO_COUNT>
-1
> <PUBCHEM_COORDINATE_TYPE>
1
5
255
> <PUBCHEM_BONDANNOTATIONS>
10  15  3
14  16  8
14  19  8
16  17  8
17  18  8
18  22  8
18  23  8
19  22  8
21  24  8
21  26  8
24  27  8
26  29  8
27  28  8
28  29  8
8  20  8
8  23  8
9  17  8
9  20  8
$$$$
