505803
  -OEChem-10302200282D
 44 48  0     1  0  0  0  0  0999 V2000
    2.0000    0.2909    0.0000 I   0  0  0  0  0  0  0  0  0  0  0  0
   10.0052   -2.1951    0.0000 F   0  0  0  0  0  0  0  0  0  0  0  0
    6.3463   -2.0324    0.0000 O   0  0  0  0  0  0  0  0  0  0  0  0
    5.4878    2.1951    0.0000 O   0  0  0  0  0  0  0  0  0  0  0  0
   10.6382   -0.2471    0.0000 N   0  0  3  0  0  0  0  0  0  0  0  0
   12.5929    0.1763    0.0000 N   0  0  0  0  0  0  0  0  0  0  0  0
    5.9862   -0.3381    0.0000 N   0  0  0  0  0  0  0  0  0  0  0  0
    7.2734    0.8208    0.0000 N   0  0  0  0  0  0  0  0  0  0  0  0
   12.2875   -0.7760    0.0000 C   0  0  3  0  0  0  0  0  0  0  0  0
   11.3102   -0.9876    0.0000 C   0  0  0  0  0  0  0  0  0  0  0  0
   10.9436    0.7052    0.0000 C   0  0  0  0  0  0  0  0  0  0  0  0
   11.9209    0.9168    0.0000 C   0  0  0  0  0  0  0  0  0  0  0  0
    9.6609   -0.4588    0.0000 C   0  0  0  0  0  0  0  0  0  0  0  0
   12.9595   -1.5165    0.0000 C   0  0  0  0  0  0  0  0  0  0  0  0
    8.9579    0.3099    0.0000 C   0  0  0  0  0  0  0  0  0  0  0  0
    7.9425    0.0777    0.0000 C   0  0  0  0  0  0  0  0  0  0  0  0
    7.6335   -0.8734    0.0000 C   0  0  0  0  0  0  0  0  0  0  0  0
    9.3390   -1.4494    0.0000 C   0  0  0  0  0  0  0  0  0  0  0  0
    6.2952    0.6129    0.0000 C   0  0  0  0  0  0  0  0  0  0  0  0
    8.3185   -1.6581    0.0000 C   0  0  0  0  0  0  0  0  0  0  0  0
    6.6554   -1.0813    0.0000 C   0  0  0  0  0  0  0  0  0  0  0  0
    4.9922   -0.3356    0.0000 C   0  0  0  0  0  0  0  0  0  0  0  0
    4.6858    0.6101    0.0000 C   0  0  0  0  0  0  0  0  0  0  0  0
    5.4895    1.1951    0.0000 C   0  0  0  0  0  0  0  0  0  0  0  0
    4.3106   -1.1151    0.0000 C   0  0  0  0  0  0  0  0  0  0  0  0
    3.6766    0.8419    0.0000 C   0  0  0  0  0  0  0  0  0  0  0  0
    3.2963   -0.9067    0.0000 C   0  0  0  0  0  0  0  0  0  0  0  0
    2.9772    0.0783    0.0000 C   0  0  0  0  0  0  0  0  0  0  0  0
   12.8935   -0.6447    0.0000 H   0  0  0  0  0  0  0  0  0  0  0  0
   10.7857   -1.3182    0.0000 H   0  0  0  0  0  0  0  0  0  0  0  0
   11.5447   -1.5616    0.0000 H   0  0  0  0  0  0  0  0  0  0  0  0
   10.9195    1.3247    0.0000 H   0  0  0  0  0  0  0  0  0  0  0  0
   10.3293    0.7891    0.0000 H   0  0  0  0  0  0  0  0  0  0  0  0
   12.4454    1.2474    0.0000 H   0  0  0  0  0  0  0  0  0  0  0  0
   11.6864    1.4908    0.0000 H   0  0  0  0  0  0  0  0  0  0  0  0
   13.1988    0.3075    0.0000 H   0  0  0  0  0  0  0  0  0  0  0  0
   12.5004   -1.9332    0.0000 H   0  0  0  0  0  0  0  0  0  0  0  0
   13.3762   -1.9757    0.0000 H   0  0  0  0  0  0  0  0  0  0  0  0
   13.4187   -1.0999    0.0000 H   0  0  0  0  0  0  0  0  0  0  0  0
    9.1427    0.9018    0.0000 H   0  0  0  0  0  0  0  0  0  0  0  0
    8.1201   -2.2455    0.0000 H   0  0  0  0  0  0  0  0  0  0  0  0
    4.5084   -1.7026    0.0000 H   0  0  0  0  0  0  0  0  0  0  0  0
    3.4923    1.4339    0.0000 H   0  0  0  0  0  0  0  0  0  0  0  0
    2.8828   -1.3687    0.0000 H   0  0  0  0  0  0  0  0  0  0  0  0
  1 28  1  0  0  0  0
  2 18  1  0  0  0  0
  3 21  2  0  0  0  0
  4 24  2  0  0  0  0
  5 10  1  0  0  0  0
  5 11  1  0  0  0  0
  5 13  1  0  0  0  0
  6  9  1  0  0  0  0
  6 12  1  0  0  0  0
  6 36  1  0  0  0  0
  7 19  1  0  0  0  0
  7 21  1  0  0  0  0
  7 22  1  0  0  0  0
  8 16  1  0  0  0  0
  8 19  2  0  0  0  0
  9 10  1  0  0  0  0
  9 14  1  0  0  0  0
  9 29  1  0  0  0  0
 10 30  1  0  0  0  0
 10 31  1  0  0  0  0
 11 12  1  0  0  0  0
 11 32  1  0  0  0  0
 11 33  1  0  0  0  0
 12 34  1  0  0  0  0
 12 35  1  0  0  0  0
 13 15  1  0  0  0  0
 13 18  2  0  0  0  0
 14 37  1  0  0  0  0
 14 38  1  0  0  0  0
 14 39  1  0  0  0  0
 15 16  2  0  0  0  0
 15 40  1  0  0  0  0
 16 17  1  0  0  0  0
 17 20  2  0  0  0  0
 17 21  1  0  0  0  0
 18 20  1  0  0  0  0
 19 24  1  0  0  0  0
 20 41  1  0  0  0  0
 22 23  2  0  0  0  0
 22 25  1  0  0  0  0
 23 24  1  0  0  0  0
 23 26  1  0  0  0  0
 25 27  2  0  0  0  0
 25 42  1  0  0  0  0
 26 28  2  0  0  0  0
 26 43  1  0  0  0  0
 27 28  1  0  0  0  0
 27 44  1  0  0  0  0
M  END
> <PUBCHEM_COMPOUND_CID>
505803
> <PUBCHEM_COMPOUND_CANONICALIZED>
1
> <PUBCHEM_CACTVS_COMPLEXITY>
718
> <PUBCHEM_CACTVS_HBOND_ACCEPTOR>
6
> <PUBCHEM_CACTVS_HBOND_DONOR>
1
> <PUBCHEM_CACTVS_ROTATABLE_BOND>
1
> <PUBCHEM_CACTVS_SUBSKEYS>
AAADceB7sQAAAgAAAAAAAAAAAAAAAWAAAAA8YIEAAAAAAFiBQAAAHwAwAAAADCzDmAwzwIPAAACoAqdydACCAAElAgAJiIGoZMgIYDrA3fGUIYhglADIyccYiYCeCAAAAAQCAAAQAAAACAQAAAAAAAAAAA==
> <PUBCHEM_IUPAC_OPENEYE_NAME>
2-fluoro-8-iodo-3-(3-methylpiperazin-1-yl)indolo[2,1-b]quinazoline-6,12-dione
> <PUBCHEM_IUPAC_CAS_NAME>
2-fluoro-8-iodo-3-(3-methyl-1-piperazinyl)indolo[2,1-b]quinazoline-6,12-dione
> <PUBCHEM_IUPAC_NAME_MARKUP>
2-fluoro-8-iodo-3-(3-methylpiperazin-1-yl)indolo[2,1-b]quinazoline-6,12-dione
> <PUBCHEM_IUPAC_NAME>
2-fluoro-8-iodo-3-(3-methylpiperazin-1-yl)indolo[2,1-b]quinazoline-6,12-dione
> <PUBCHEM_IUPAC_SYSTEMATIC_NAME>
2-fluoranyl-8-iodanyl-3-(3-methylpiperazin-1-yl)indolo[2,1-b]quinazoline-6,12-dione
> <PUBCHEM_IUPAC_TRADITIONAL_NAME>
2-fluoro-8-iodo-3-(3-methylpiperazino)indolo[2,1-b]quinazoline-6,12-quinone
> <PUBCHEM_IUPAC_INCHI>
InChI=1S/C20H16FIN4O2/c1-10-9-25(5-4-23-10)17-8-15-12(7-14(17)21)20(28)26-16-3-2-11(22)6-13(16)18(27)19(26)24-15/h2-3,6-8,10,23H,4-5,9H2,1H3
> <PUBCHEM_IUPAC_INCHIKEY>
HXWNYCKVLMZCIL-UHFFFAOYSA-N
> <PUBCHEM_XLOGP3_AA>
2.7
> <PUBCHEM_EXACT_MASS>
490.03020
> <PUBCHEM_MOLECULAR_FORMULA>
C20H16FIN4O2
> <PUBCHEM_MOLECULAR_WEIGHT>
490.3
> <PUBCHEM_OPENEYE_CAN_SMILES>
CC1CN(CCN1)C2=C(C=C3C(=C2)N=C4C(=O)C5=C(N4C3=O)C=CC(=C5)I)F
> <PUBCHEM_OPENEYE_ISO_SMILES>
CC1CN(CCN1)C2=C(C=C3C(=C2)N=C4C(=O)C5=C(N4C3=O)C=CC(=C5)I)F
> <PUBCHEM_CACTVS_TPSA>
65
> <PUBCHEM_MONOISOTOPIC_WEIGHT>
490.03020
> <PUBCHEM_TOTAL_CHARGE>
0
> <PUBCHEM_HEAVY_ATOM_COUNT>
28
> <PUBCHEM_ATOM_DEF_STEREO_COUNT>
0
> <PUBCHEM_ATOM_UDEF_STEREO_COUNT>
1
> <PUBCHEM_BOND_DEF_STEREO_COUNT>
0
> <PUBCHEM_BOND_UDEF_STEREO_COUNT>
0
> <PUBCHEM_ISOTOPIC_ATOM_COUNT>
0
> <PUBCHEM_COMPONENT_COUNT>
1
> <PUBCHEM_CACTVS_TAUTO_COUNT>
-1
> <PUBCHEM_COORDINATE_TYPE>
1
5
255
> <PUBCHEM_BONDANNOTATIONS>
13  15  8
13  18  8
15  16  8
16  17  8
17  20  8
17  21  8
18  20  8
22  23  8
22  25  8
23  26  8
25  27  8
26  28  8
27  28  8
7  19  8
7  21  8
8  16  8
8  19  8
9  14  3
$$$$
