505862
  -OEChem-10302200282D
158159  0     1  0  0  0  0  0999 V2000
    7.2454   -7.8444    0.0000 O   0  0  0  0  0  0  0  0  0  0  0  0
    7.6663   -6.5490    0.0000 O   0  0  0  0  0  0  0  0  0  0  0  0
    6.0010   -8.3984    0.0000 O   0  0  0  0  0  0  0  0  0  0  0  0
    6.8974   -4.0174    0.0000 O   0  0  0  0  0  0  0  0  0  0  0  0
    9.8810   -3.7038    0.0000 O   0  0  0  0  0  0  0  0  0  0  0  0
    2.5369   -9.3984    0.0000 O   0  0  0  0  0  0  0  0  0  0  0  0
    7.0785   -5.7400    0.0000 O   0  0  0  0  0  0  0  0  0  0  0  0
    3.4030  -10.8985    0.0000 O   0  0  0  0  0  0  0  0  0  0  0  0
    2.5369   -6.3985    0.0000 O   0  0  0  0  0  0  0  0  0  0  0  0
    4.2690   -6.3985    0.0000 O   0  0  0  0  0  0  0  0  0  0  0  0
   13.6334   -5.9218    0.0000 O   0  0  0  0  0  0  0  0  0  0  0  0
   10.2878   -2.7903    0.0000 O   0  0  0  0  0  0  0  0  0  0  0  0
   13.4524   -4.1993    0.0000 O   0  0  0  0  0  0  0  0  0  0  0  0
   12.5025    0.0549    0.0000 O   0  0  0  0  0  0  0  0  0  0  0  0
   12.9092    0.9684    0.0000 O   0  0  0  0  0  0  0  0  0  0  0  0
    9.5189   -0.2587    0.0000 O   0  0  0  0  0  0  0  0  0  0  0  0
   15.1240    3.8136    0.0000 O   0  0  0  0  0  0  0  0  0  0  0  0
    9.7000   -1.9813    0.0000 O   0  0  0  0  0  0  0  0  0  0  0  0
   16.2549   -2.1631    0.0000 O   0  0  0  0  0  0  0  0  0  0  0  0
   16.0738   -0.4406    0.0000 O   0  0  0  0  0  0  0  0  0  0  0  0
   12.3661    6.1361    0.0000 O   0  0  0  0  0  0  0  0  0  0  0  0
   14.5808    8.9813    0.0000 O   0  0  0  0  0  0  0  0  0  0  0  0
    7.7806   -9.4917    0.0000 N   0  0  0  0  0  0  0  0  0  0  0  0
    9.2486   -7.2535    0.0000 N   0  0  0  0  0  0  0  0  0  0  0  0
    5.1350   -9.8984    0.0000 N   0  0  0  0  0  0  0  0  0  0  0  0
   10.0621   -5.4264    0.0000 N   0  0  0  0  0  0  0  0  0  0  0  0
   11.8701   -3.4948    0.0000 N   0  0  0  0  0  0  0  0  0  0  0  0
   12.6835   -1.6677    0.0000 N   0  0  0  0  0  0  0  0  0  0  0  0
   13.7227    2.7955    0.0000 N   0  0  0  0  0  0  0  0  0  0  0  0
   14.4915    0.2639    0.0000 N   0  0  0  0  0  0  0  0  0  0  0  0
   13.9484    5.4316    0.0000 N   0  0  0  0  0  0  0  0  0  0  0  0
   18.1075    4.1272    0.0000 N   0  0  0  0  0  0  0  0  0  0  0  0
    9.3825    5.8225    0.0000 N   0  0  0  0  0  0  0  0  0  0  0  0
   13.1796    7.9632    0.0000 N   0  0  0  0  0  0  0  0  0  0  0  0
   13.4052   10.5993    0.0000 N   0  0  0  0  0  0  0  0  0  0  0  0
    8.9396   -8.2046    0.0000 C   0  0  1  0  0  0  0  0  0  0  0  0
    6.8671   -9.8984    0.0000 C   0  0  1  0  0  0  0  0  0  0  0  0
    9.7486   -8.7923    0.0000 C   0  0  0  0  0  0  0  0  0  0  0  0
    6.9716  -10.8930    0.0000 C   0  0  0  0  0  0  0  0  0  0  0  0
   10.5576   -8.2046    0.0000 C   0  0  0  0  0  0  0  0  0  0  0  0
    8.4497  -10.2349    0.0000 C   0  0  0  0  0  0  0  0  0  0  0  0
   10.2486   -7.2535    0.0000 C   0  0  0  0  0  0  0  0  0  0  0  0
    7.9885   -8.5136    0.0000 C   0  0  0  0  0  0  0  0  0  0  0  0
    7.9497  -11.1009    0.0000 C   0  0  0  0  0  0  0  0  0  0  0  0
    8.6608   -6.4445    0.0000 C   0  0  0  0  0  0  0  0  0  0  0  0
    6.0010   -9.3984    0.0000 C   0  0  0  0  0  0  0  0  0  0  0  0
    9.0675   -5.5309    0.0000 C   0  0  2  0  0  0  0  0  0  0  0  0
    8.4798   -4.7219    0.0000 C   0  0  0  0  0  0  0  0  0  0  0  0
    4.2690   -9.3984    0.0000 C   0  0  1  0  0  0  0  0  0  0  0  0
    4.2690   -8.3984    0.0000 C   0  0  0  0  0  0  0  0  0  0  0  0
   10.4688   -4.5129    0.0000 C   0  0  0  0  0  0  0  0  0  0  0  0
    7.4852   -4.8264    0.0000 C   0  0  0  0  0  0  0  0  0  0  0  0
    3.4030   -9.8985    0.0000 C   0  0  0  0  0  0  0  0  0  0  0  0
   11.4633   -4.4083    0.0000 C   0  0  2  0  0  0  0  0  0  0  0  0
    3.4030   -7.8985    0.0000 C   0  0  0  0  0  0  0  0  0  0  0  0
   12.0511   -5.2174    0.0000 C   0  0  0  0  0  0  0  0  0  0  0  0
    3.4030   -6.8985    0.0000 C   0  0  0  0  0  0  0  0  0  0  0  0
   11.2823   -2.6858    0.0000 C   0  0  0  0  0  0  0  0  0  0  0  0
   13.0456   -5.1128    0.0000 C   0  0  0  0  0  0  0  0  0  0  0  0
   11.6890   -1.7722    0.0000 C   0  0  2  0  0  0  0  0  0  0  0  0
   11.1012   -0.9632    0.0000 C   0  0  0  0  0  0  0  0  0  0  0  0
   14.3105    1.9865    0.0000 C   0  0  1  0  0  0  0  0  0  0  0  0
   14.0848   -0.6496    0.0000 C   0  0  2  0  0  0  0  0  0  0  0  0
   15.3050    2.0910    0.0000 C   0  0  0  0  0  0  0  0  0  0  0  0
   13.0903   -0.7542    0.0000 C   0  0  0  0  0  0  0  0  0  0  0  0
   13.5416    4.5181    0.0000 C   0  0  1  0  0  0  0  0  0  0  0  0
   15.7117    3.0046    0.0000 C   0  0  0  0  0  0  0  0  0  0  0  0
   12.5471    4.4135    0.0000 C   0  0  0  0  0  0  0  0  0  0  0  0
   13.9037    1.0729    0.0000 C   0  0  0  0  0  0  0  0  0  0  0  0
   14.1294    3.7090    0.0000 C   0  0  0  0  0  0  0  0  0  0  0  0
   11.9593    5.2226    0.0000 C   0  0  0  0  0  0  0  0  0  0  0  0
   14.6726   -1.4586    0.0000 C   0  0  0  0  0  0  0  0  0  0  0  0
   10.1067   -1.0677    0.0000 C   0  0  0  0  0  0  0  0  0  0  0  0
   16.7063    3.1091    0.0000 C   0  0  0  0  0  0  0  0  0  0  0  0
   10.9648    5.1180    0.0000 C   0  0  0  0  0  0  0  0  0  0  0  0
   17.1130    4.0226    0.0000 C   0  0  0  0  0  0  0  0  0  0  0  0
   10.3770    5.9270    0.0000 C   0  0  0  0  0  0  0  0  0  0  0  0
   15.6671   -1.3541    0.0000 C   0  0  0  0  0  0  0  0  0  0  0  0
   13.3606    6.2406    0.0000 C   0  0  0  0  0  0  0  0  0  0  0  0
   13.7673    7.1542    0.0000 C   0  0  0  0  0  0  0  0  0  0  0  0
   13.5863    8.8767    0.0000 C   0  0  0  0  0  0  0  0  0  0  0  0
   12.9985    9.6858    0.0000 C   0  0  2  0  0  0  0  0  0  0  0  0
   12.0040    9.5812    0.0000 C   0  0  0  0  0  0  0  0  0  0  0  0
    8.5012   -7.7662    0.0000 H   0  0  0  0  0  0  0  0  0  0  0  0
    6.8995   -9.2793    0.0000 H   0  0  0  0  0  0  0  0  0  0  0  0
    9.3337   -9.2531    0.0000 H   0  0  0  0  0  0  0  0  0  0  0  0
   10.1635   -9.2531    0.0000 H   0  0  0  0  0  0  0  0  0  0  0  0
    6.3516  -10.8930    0.0000 H   0  0  0  0  0  0  0  0  0  0  0  0
    6.9068  -11.5096    0.0000 H   0  0  0  0  0  0  0  0  0  0  0  0
   10.8676   -8.7415    0.0000 H   0  0  0  0  0  0  0  0  0  0  0  0
   11.1240   -7.9524    0.0000 H   0  0  0  0  0  0  0  0  0  0  0  0
    8.9513  -10.5993    0.0000 H   0  0  0  0  0  0  0  0  0  0  0  0
    8.8646   -9.7741    0.0000 H   0  0  0  0  0  0  0  0  0  0  0  0
   10.8550   -7.1246    0.0000 H   0  0  0  0  0  0  0  0  0  0  0  0
   10.1838   -6.6369    0.0000 H   0  0  0  0  0  0  0  0  0  0  0  0
    7.7582  -11.6905    0.0000 H   0  0  0  0  0  0  0  0  0  0  0  0
    8.5161  -11.3531    0.0000 H   0  0  0  0  0  0  0  0  0  0  0  0
    9.4320   -6.0325    0.0000 H   0  0  0  0  0  0  0  0  0  0  0  0
    5.1350  -10.5185    0.0000 H   0  0  0  0  0  0  0  0  0  0  0  0
    9.0370   -4.4501    0.0000 H   0  0  0  0  0  0  0  0  0  0  0  0
    8.3089   -4.1259    0.0000 H   0  0  0  0  0  0  0  0  0  0  0  0
    4.8059   -9.0885    0.0000 H   0  0  0  0  0  0  0  0  0  0  0  0
   10.4265   -5.9280    0.0000 H   0  0  0  0  0  0  0  0  0  0  0  0
    4.8796   -8.5061    0.0000 H   0  0  0  0  0  0  0  0  0  0  0  0
    4.4810   -7.8158    0.0000 H   0  0  0  0  0  0  0  0  0  0  0  0
   11.0989   -3.9067    0.0000 H   0  0  0  0  0  0  0  0  0  0  0  0
    2.7924   -7.7908    0.0000 H   0  0  0  0  0  0  0  0  0  0  0  0
    3.1909   -8.4811    0.0000 H   0  0  0  0  0  0  0  0  0  0  0  0
   11.4939   -5.4891    0.0000 H   0  0  0  0  0  0  0  0  0  0  0  0
   12.2220   -5.8133    0.0000 H   0  0  0  0  0  0  0  0  0  0  0  0
   12.4867   -3.4300    0.0000 H   0  0  0  0  0  0  0  0  0  0  0  0
    6.2808   -4.0822    0.0000 H   0  0  0  0  0  0  0  0  0  0  0  0
    2.0000   -9.7085    0.0000 H   0  0  0  0  0  0  0  0  0  0  0  0
   12.0534   -2.2738    0.0000 H   0  0  0  0  0  0  0  0  0  0  0  0
   11.6585   -0.6914    0.0000 H   0  0  0  0  0  0  0  0  0  0  0  0
   10.9303   -0.3672    0.0000 H   0  0  0  0  0  0  0  0  0  0  0  0
    2.5369   -5.7785    0.0000 H   0  0  0  0  0  0  0  0  0  0  0  0
   13.0480   -2.1693    0.0000 H   0  0  0  0  0  0  0  0  0  0  0  0
   13.6939    1.9217    0.0000 H   0  0  0  0  0  0  0  0  0  0  0  0
   13.7204   -0.1480    0.0000 H   0  0  0  0  0  0  0  0  0  0  0  0
   15.2618    1.4725    0.0000 H   0  0  0  0  0  0  0  0  0  0  0  0
   15.9066    1.9410    0.0000 H   0  0  0  0  0  0  0  0  0  0  0  0
   14.1583    4.5829    0.0000 H   0  0  0  0  0  0  0  0  0  0  0  0
   14.2500   -5.8570    0.0000 H   0  0  0  0  0  0  0  0  0  0  0  0
   15.7550    3.6230    0.0000 H   0  0  0  0  0  0  0  0  0  0  0  0
   15.1102    3.1546    0.0000 H   0  0  0  0  0  0  0  0  0  0  0  0
   11.9899    4.1418    0.0000 H   0  0  0  0  0  0  0  0  0  0  0  0
   12.7180    3.8176    0.0000 H   0  0  0  0  0  0  0  0  0  0  0  0
   13.1061    2.7307    0.0000 H   0  0  0  0  0  0  0  0  0  0  0  0
   15.1081    0.3287    0.0000 H   0  0  0  0  0  0  0  0  0  0  0  0
   12.5166    5.4943    0.0000 H   0  0  0  0  0  0  0  0  0  0  0  0
   11.7884    5.8185    0.0000 H   0  0  0  0  0  0  0  0  0  0  0  0
   16.6630    2.4906    0.0000 H   0  0  0  0  0  0  0  0  0  0  0  0
   17.3078    2.9591    0.0000 H   0  0  0  0  0  0  0  0  0  0  0  0
   14.1153   -1.7304    0.0000 H   0  0  0  0  0  0  0  0  0  0  0  0
   14.8435   -2.0546    0.0000 H   0  0  0  0  0  0  0  0  0  0  0  0
   10.4076    4.8462    0.0000 H   0  0  0  0  0  0  0  0  0  0  0  0
   11.1357    4.5220    0.0000 H   0  0  0  0  0  0  0  0  0  0  0  0
   14.5650    5.4964    0.0000 H   0  0  0  0  0  0  0  0  0  0  0  0
   17.1562    4.6411    0.0000 H   0  0  0  0  0  0  0  0  0  0  0  0
   16.5114    4.1726    0.0000 H   0  0  0  0  0  0  0  0  0  0  0  0
   10.9343    6.1988    0.0000 H   0  0  0  0  0  0  0  0  0  0  0  0
   10.2061    6.5230    0.0000 H   0  0  0  0  0  0  0  0  0  0  0  0
    8.9023   -0.3235    0.0000 H   0  0  0  0  0  0  0  0  0  0  0  0
   14.2813    6.8075    0.0000 H   0  0  0  0  0  0  0  0  0  0  0  0
   14.1980    7.6002    0.0000 H   0  0  0  0  0  0  0  0  0  0  0  0
   18.3597    4.6936    0.0000 H   0  0  0  0  0  0  0  0  0  0  0  0
   18.4719    3.6256    0.0000 H   0  0  0  0  0  0  0  0  0  0  0  0
    9.0181    6.3241    0.0000 H   0  0  0  0  0  0  0  0  0  0  0  0
    9.1303    5.2561    0.0000 H   0  0  0  0  0  0  0  0  0  0  0  0
   12.5629    7.8984    0.0000 H   0  0  0  0  0  0  0  0  0  0  0  0
   16.8715   -2.0983    0.0000 H   0  0  0  0  0  0  0  0  0  0  0  0
   12.6341   10.1873    0.0000 H   0  0  0  0  0  0  0  0  0  0  0  0
   11.9392   10.1978    0.0000 H   0  0  0  0  0  0  0  0  0  0  0  0
   11.3874    9.5164    0.0000 H   0  0  0  0  0  0  0  0  0  0  0  0
   12.0688    8.9646    0.0000 H   0  0  0  0  0  0  0  0  0  0  0  0
   13.0408   11.1009    0.0000 H   0  0  0  0  0  0  0  0  0  0  0  0
   14.0218   10.6641    0.0000 H   0  0  0  0  0  0  0  0  0  0  0  0
  1 43  2  0  0  0  0
  2 45  2  0  0  0  0
  3 46  2  0  0  0  0
  4 52  1  0  0  0  0
  4112  1  0  0  0  0
  5 51  2  0  0  0  0
  6 53  1  0  0  0  0
  6113  1  0  0  0  0
  7 52  2  0  0  0  0
  8 53  2  0  0  0  0
  9 57  1  0  0  0  0
  9117  1  0  0  0  0
 10 57  2  0  0  0  0
 11 59  1  0  0  0  0
 11124  1  0  0  0  0
 12 58  2  0  0  0  0
 13 59  2  0  0  0  0
 14 65  2  0  0  0  0
 15 69  2  0  0  0  0
 16 73  1  0  0  0  0
 16144  1  0  0  0  0
 17 70  2  0  0  0  0
 18 73  2  0  0  0  0
 19 78  1  0  0  0  0
 19152  1  0  0  0  0
 20 78  2  0  0  0  0
 21 79  2  0  0  0  0
 22 81  2  0  0  0  0
 23 37  1  0  0  0  0
 23 41  1  0  0  0  0
 23 43  1  0  0  0  0
 24 36  1  0  0  0  0
 24 42  1  0  0  0  0
 24 45  1  0  0  0  0
 25 46  1  0  0  0  0
 49 25  1  6  0  0  0
 25 99  1  0  0  0  0
 47 26  1  6  0  0  0
 26 51  1  0  0  0  0
 26103  1  0  0  0  0
 54 27  1  1  0  0  0
 27 58  1  0  0  0  0
 27111  1  0  0  0  0
 60 28  1  6  0  0  0
 28 65  1  0  0  0  0
 28118  1  0  0  0  0
 62 29  1  1  0  0  0
 29 70  1  0  0  0  0
 29129  1  0  0  0  0
 63 30  1  1  0  0  0
 30 69  1  0  0  0  0
 30130  1  0  0  0  0
 66 31  1  6  0  0  0
 31 79  1  0  0  0  0
 31139  1  0  0  0  0
 32 76  1  0  0  0  0
 32147  1  0  0  0  0
 32148  1  0  0  0  0
 33 77  1  0  0  0  0
 33149  1  0  0  0  0
 33150  1  0  0  0  0
 34 80  1  0  0  0  0
 34 81  1  0  0  0  0
 34151  1  0  0  0  0
 82 35  1  6  0  0  0
 35157  1  0  0  0  0
 35158  1  0  0  0  0
 36 38  1  0  0  0  0
 36 43  1  1  0  0  0
 36 84  1  0  0  0  0
 37 39  1  0  0  0  0
 37 46  1  1  0  0  0
 37 85  1  0  0  0  0
 38 40  1  0  0  0  0
 38 86  1  0  0  0  0
 38 87  1  0  0  0  0
 39 44  1  0  0  0  0
 39 88  1  0  0  0  0
 39 89  1  0  0  0  0
 40 42  1  0  0  0  0
 40 90  1  0  0  0  0
 40 91  1  0  0  0  0
 41 44  1  0  0  0  0
 41 92  1  0  0  0  0
 41 93  1  0  0  0  0
 42 94  1  0  0  0  0
 42 95  1  0  0  0  0
 44 96  1  0  0  0  0
 44 97  1  0  0  0  0
 45 47  1  0  0  0  0
 47 48  1  0  0  0  0
 47 98  1  0  0  0  0
 48 52  1  0  0  0  0
 48100  1  0  0  0  0
 48101  1  0  0  0  0
 49 50  1  0  0  0  0
 49 53  1  0  0  0  0
 49102  1  0  0  0  0
 50 55  1  0  0  0  0
 50104  1  0  0  0  0
 50105  1  0  0  0  0
 51 54  1  0  0  0  0
 54 56  1  0  0  0  0
 54106  1  0  0  0  0
 55 57  1  0  0  0  0
 55107  1  0  0  0  0
 55108  1  0  0  0  0
 56 59  1  0  0  0  0
 56109  1  0  0  0  0
 56110  1  0  0  0  0
 58 60  1  0  0  0  0
 60 61  1  0  0  0  0
 60114  1  0  0  0  0
 61 73  1  0  0  0  0
 61115  1  0  0  0  0
 61116  1  0  0  0  0
 62 64  1  0  0  0  0
 62 69  1  0  0  0  0
 62119  1  0  0  0  0
 63 65  1  0  0  0  0
 63 72  1  0  0  0  0
 63120  1  0  0  0  0
 64 67  1  0  0  0  0
 64121  1  0  0  0  0
 64122  1  0  0  0  0
 66 68  1  0  0  0  0
 66 70  1  0  0  0  0
 66123  1  0  0  0  0
 67 74  1  0  0  0  0
 67125  1  0  0  0  0
 67126  1  0  0  0  0
 68 71  1  0  0  0  0
 68127  1  0  0  0  0
 68128  1  0  0  0  0
 71 75  1  0  0  0  0
 71131  1  0  0  0  0
 71132  1  0  0  0  0
 72 78  1  0  0  0  0
 72135  1  0  0  0  0
 72136  1  0  0  0  0
 74 76  1  0  0  0  0
 74133  1  0  0  0  0
 74134  1  0  0  0  0
 75 77  1  0  0  0  0
 75137  1  0  0  0  0
 75138  1  0  0  0  0
 76140  1  0  0  0  0
 76141  1  0  0  0  0
 77142  1  0  0  0  0
 77143  1  0  0  0  0
 79 80  1  0  0  0  0
 80145  1  0  0  0  0
 80146  1  0  0  0  0
 81 82  1  0  0  0  0
 82 83  1  0  0  0  0
 82153  1  0  0  0  0
 83154  1  0  0  0  0
 83155  1  0  0  0  0
 83156  1  0  0  0  0
M  END
> <PUBCHEM_COMPOUND_CID>
505862
> <PUBCHEM_COMPOUND_CANONICALIZED>
1
> <PUBCHEM_CACTVS_COMPLEXITY>
2410
> <PUBCHEM_CACTVS_HBOND_ACCEPTOR>
25
> <PUBCHEM_CACTVS_HBOND_DONOR>
17
> <PUBCHEM_CACTVS_ROTATABLE_BOND>
38
> <PUBCHEM_CACTVS_SUBSKEYS>
AAADcfB//gAAAAAAAAAAAAAAAAAAAWLAAAAAAAAAAAAAAAAAAAAAHgAQCAAACCjBgAQCCAPAAgAIAAGQGAAAAAAAAAAAAIGIAAACQBoAgCAUQAAGFgCQAAG/LwAAAAAAAAAAAAAAAAAAAAAAAAAAAAAAAA==
> <PUBCHEM_IUPAC_OPENEYE_NAME>
(2S)-2-[[(2S)-1-[(2S)-1-[(2S)-2-[[(2S)-2-[[(2S)-2-[[(2S)-2-[[(2S)-6-amino-2-[[(2S)-6-amino-2-[[2-[[(2S)-2-aminopropanoyl]amino]acetyl]amino]hexanoyl]amino]hexanoyl]amino]-3-carboxy-propanoyl]amino]-3-carboxy-propanoyl]amino]-3-carboxy-propanoyl]amino]-3-carboxy-propanoyl]pyrrolidine-2-carbonyl]pyrrolidine-2-carbonyl]amino]pentanedioic acid
> <PUBCHEM_IUPAC_CAS_NAME>
(2S)-2-[[[(2S)-1-[[(2S)-1-[(2S)-2-[[(2S)-2-[[(2S)-2-[[(2S)-2-[[(2S)-6-amino-2-[[(2S)-6-amino-2-[[2-[[(2S)-2-amino-1-oxopropyl]amino]-1-oxoethyl]amino]-1-oxohexyl]amino]-1-oxohexyl]amino]-3-carboxy-1-oxopropyl]amino]-3-carboxy-1-oxopropyl]amino]-3-carboxy-1-oxopropyl]amino]-3-carboxy-1-oxopropyl]-2-pyrrolidinyl]-oxomethyl]-2-pyrrolidinyl]-oxomethyl]amino]pentanedioic acid
> <PUBCHEM_IUPAC_NAME_MARKUP>
(2<I>S</I>)-2-[[(2<I>S</I>)-1-[(2<I>S</I>)-1-[(2<I>S</I>)-2-[[(2<I>S</I>)-2-[[(2<I>S</I>)-2-[[(2<I>S</I>)-2-[[(2<I>S</I>)-6-amino-2-[[(2<I>S</I>)-6-amino-2-[[2-[[(2<I>S</I>)-2-aminopropanoyl]amino]acetyl]amino]hexanoyl]amino]hexanoyl]amino]-3-carboxypropanoyl]amino]-3-carboxypropanoyl]amino]-3-carboxypropanoyl]amino]-3-carboxypropanoyl]pyrrolidine-2-carbonyl]pyrrolidine-2-carbonyl]amino]pentanedioic acid
> <PUBCHEM_IUPAC_NAME>
(2S)-2-[[(2S)-1-[(2S)-1-[(2S)-2-[[(2S)-2-[[(2S)-2-[[(2S)-2-[[(2S)-6-amino-2-[[(2S)-6-amino-2-[[2-[[(2S)-2-aminopropanoyl]amino]acetyl]amino]hexanoyl]amino]hexanoyl]amino]-3-carboxypropanoyl]amino]-3-carboxypropanoyl]amino]-3-carboxypropanoyl]amino]-3-carboxypropanoyl]pyrrolidine-2-carbonyl]pyrrolidine-2-carbonyl]amino]pentanedioic acid
> <PUBCHEM_IUPAC_SYSTEMATIC_NAME>
(2S)-2-[[(2S)-1-[(2S)-1-[(2S)-2-[[(2S)-2-[[(2S)-2-[[(2S)-2-[[(2S)-6-azanyl-2-[[(2S)-6-azanyl-2-[2-[[(2S)-2-azanylpropanoyl]amino]ethanoylamino]hexanoyl]amino]hexanoyl]amino]-4-oxidanyl-4-oxidanylidene-butanoyl]amino]-4-oxidanyl-4-oxidanylidene-butanoyl]amino]-4-oxidanyl-4-oxidanylidene-butanoyl]amino]-4-oxidanyl-4-oxidanylidene-butanoyl]pyrrolidin-2-yl]carbonylpyrrolidin-2-yl]carbonylamino]pentanedioic acid
> <PUBCHEM_IUPAC_TRADITIONAL_NAME>
(2S)-2-[[(2S)-1-[(2S)-1-[(2S)-2-[[(2S)-2-[[(2S)-2-[[(2S)-2-[[(2S)-6-amino-2-[[(2S)-6-amino-2-[[2-[[(2S)-2-aminopropanoyl]amino]acetyl]amino]hexanoyl]amino]hexanoyl]amino]-3-carboxy-propanoyl]amino]-3-carboxy-propanoyl]amino]-3-carboxy-propanoyl]amino]-3-carboxy-propanoyl]prolyl]prolyl]amino]glutaric acid
> <PUBCHEM_IUPAC_INCHI>
InChI=1S/C48H75N13O22/c1-23(51)39(73)52-22-33(62)53-24(8-2-4-14-49)40(74)54-25(9-3-5-15-50)41(75)56-27(18-35(65)66)42(76)57-28(19-36(67)68)43(77)58-29(20-37(69)70)44(78)59-30(21-38(71)72)46(80)61-17-7-11-32(61)47(81)60-16-6-10-31(60)45(79)55-26(48(82)83)12-13-34(63)64/h23-32H,2-22,49-51H2,1H3,(H,52,73)(H,53,62)(H,54,74)(H,55,79)(H,56,75)(H,57,76)(H,58,77)(H,59,78)(H,63,64)(H,65,66)(H,67,68)(H,69,70)(H,71,72)(H,82,83)/t23-,24-,25-,26-,27-,28-,29-,30-,31-,32-/m0/s1
> <PUBCHEM_IUPAC_INCHIKEY>
OVIFHFRAOKPVPC-CJMGQXRASA-N
> <PUBCHEM_XLOGP3_AA>
-14.3
> <PUBCHEM_EXACT_MASS>
1185.51496107
> <PUBCHEM_MOLECULAR_FORMULA>
C48H75N13O22
> <PUBCHEM_MOLECULAR_WEIGHT>
1186.2
> <PUBCHEM_OPENEYE_CAN_SMILES>
CC(C(=O)NCC(=O)NC(CCCCN)C(=O)NC(CCCCN)C(=O)NC(CC(=O)O)C(=O)NC(CC(=O)O)C(=O)NC(CC(=O)O)C(=O)NC(CC(=O)O)C(=O)N1CCCC1C(=O)N2CCCC2C(=O)NC(CCC(=O)O)C(=O)O)N
> <PUBCHEM_OPENEYE_ISO_SMILES>
C[C@@H](C(=O)NCC(=O)N[C@@H](CCCCN)C(=O)N[C@@H](CCCCN)C(=O)N[C@@H](CC(=O)O)C(=O)N[C@@H](CC(=O)O)C(=O)N[C@@H](CC(=O)O)C(=O)N[C@@H](CC(=O)O)C(=O)N1CCC[C@H]1C(=O)N2CCC[C@H]2C(=O)N[C@@H](CCC(=O)O)C(=O)O)N
> <PUBCHEM_CACTVS_TPSA>
575
> <PUBCHEM_MONOISOTOPIC_WEIGHT>
1185.51496107
> <PUBCHEM_TOTAL_CHARGE>
0
> <PUBCHEM_HEAVY_ATOM_COUNT>
83
> <PUBCHEM_ATOM_DEF_STEREO_COUNT>
10
> <PUBCHEM_ATOM_UDEF_STEREO_COUNT>
0
> <PUBCHEM_BOND_DEF_STEREO_COUNT>
0
> <PUBCHEM_BOND_UDEF_STEREO_COUNT>
0
> <PUBCHEM_ISOTOPIC_ATOM_COUNT>
0
> <PUBCHEM_COMPONENT_COUNT>
1
> <PUBCHEM_CACTVS_TAUTO_COUNT>
-1
> <PUBCHEM_COORDINATE_TYPE>
1
5
255
> <PUBCHEM_BONDANNOTATIONS>
49  25  6
47  26  6
54  27  5
60  28  6
62  29  5
63  30  5
66  31  6
82  35  6
36  43  5
37  46  5
$$$$
