505856
  -OEChem-10302200282D
 42 45  0     1  0  0  0  0  0999 V2000
    3.3453    1.1620    0.0000 O   0  0  0  0  0  0  0  0  0  0  0  0
    7.1376    2.1137    0.0000 O   0  0  0  0  0  0  0  0  0  0  0  0
    7.9961   -2.1137    0.0000 O   0  0  0  0  0  0  0  0  0  0  0  0
    7.6360   -0.4195    0.0000 N   0  0  0  0  0  0  0  0  0  0  0  0
    8.9232    0.7394    0.0000 N   0  0  0  0  0  0  0  0  0  0  0  0
   10.9888   -1.5308    0.0000 N   0  0  0  0  0  0  0  0  0  0  0  0
    3.6498    0.2095    0.0000 C   0  0  3  0  0  0  0  0  0  0  0  0
    2.9772   -0.5305    0.0000 C   0  0  0  0  0  0  0  0  0  0  0  0
    4.6269   -0.0030    0.0000 C   0  0  0  0  0  0  0  0  0  0  0  0
    6.6419   -0.4170    0.0000 C   0  0  0  0  0  0  0  0  0  0  0  0
    6.3356    0.5287    0.0000 C   0  0  0  0  0  0  0  0  0  0  0  0
    5.3264    0.7605    0.0000 C   0  0  0  0  0  0  0  0  0  0  0  0
    7.9450    0.5315    0.0000 C   0  0  0  0  0  0  0  0  0  0  0  0
    4.9461   -0.9881    0.0000 C   0  0  0  0  0  0  0  0  0  0  0  0
    7.1393    1.1137    0.0000 C   0  0  0  0  0  0  0  0  0  0  0  0
    5.9604   -1.1965    0.0000 C   0  0  0  0  0  0  0  0  0  0  0  0
    2.0000   -0.3180    0.0000 C   0  0  0  0  0  0  0  0  0  0  0  0
    3.2817   -1.4830    0.0000 C   0  0  0  0  0  0  0  0  0  0  0  0
    8.3052   -1.1627    0.0000 C   0  0  0  0  0  0  0  0  0  0  0  0
    9.2833   -0.9548    0.0000 C   0  0  0  0  0  0  0  0  0  0  0  0
    9.5923   -0.0037    0.0000 C   0  0  0  0  0  0  0  0  0  0  0  0
    2.3681    1.3745    0.0000 C   0  0  0  0  0  0  0  0  0  0  0  0
    9.9683   -1.7395    0.0000 C   0  0  0  0  0  0  0  0  0  0  0  0
   10.6077    0.2285    0.0000 C   0  0  0  0  0  0  0  0  0  0  0  0
   11.3107   -0.5401    0.0000 C   0  0  0  0  0  0  0  0  0  0  0  0
    4.0668    0.6683    0.0000 H   0  0  0  0  0  0  0  0  0  0  0  0
    2.5601   -0.9893    0.0000 H   0  0  0  0  0  0  0  0  0  0  0  0
    5.1421    1.3525    0.0000 H   0  0  0  0  0  0  0  0  0  0  0  0
    4.5326   -1.4501    0.0000 H   0  0  0  0  0  0  0  0  0  0  0  0
    6.1582   -1.7840    0.0000 H   0  0  0  0  0  0  0  0  0  0  0  0
    2.1318    0.2879    0.0000 H   0  0  0  0  0  0  0  0  0  0  0  0
    1.3942   -0.1862    0.0000 H   0  0  0  0  0  0  0  0  0  0  0  0
    1.8682   -0.9238    0.0000 H   0  0  0  0  0  0  0  0  0  0  0  0
    2.6911   -1.6718    0.0000 H   0  0  0  0  0  0  0  0  0  0  0  0
    3.4705   -2.0736    0.0000 H   0  0  0  0  0  0  0  0  0  0  0  0
    3.8722   -1.2942    0.0000 H   0  0  0  0  0  0  0  0  0  0  0  0
    2.4999    1.9804    0.0000 H   0  0  0  0  0  0  0  0  0  0  0  0
    1.7623    1.5063    0.0000 H   0  0  0  0  0  0  0  0  0  0  0  0
    2.2363    0.7687    0.0000 H   0  0  0  0  0  0  0  0  0  0  0  0
    9.7699   -2.3269    0.0000 H   0  0  0  0  0  0  0  0  0  0  0  0
   10.7925    0.8204    0.0000 H   0  0  0  0  0  0  0  0  0  0  0  0
   11.9166   -0.4089    0.0000 H   0  0  0  0  0  0  0  0  0  0  0  0
  1  7  1  0  0  0  0
  1 22  1  0  0  0  0
  2 15  2  0  0  0  0
  3 19  2  0  0  0  0
  4 10  1  0  0  0  0
  4 13  1  0  0  0  0
  4 19  1  0  0  0  0
  5 13  2  0  0  0  0
  5 21  1  0  0  0  0
  6 23  2  0  0  0  0
  6 25  1  0  0  0  0
  7  8  1  0  0  0  0
  7  9  1  0  0  0  0
  7 26  1  0  0  0  0
  8 17  1  0  0  0  0
  8 18  1  0  0  0  0
  8 27  1  0  0  0  0
  9 12  2  0  0  0  0
  9 14  1  0  0  0  0
 10 11  2  0  0  0  0
 10 16  1  0  0  0  0
 11 12  1  0  0  0  0
 11 15  1  0  0  0  0
 12 28  1  0  0  0  0
 13 15  1  0  0  0  0
 14 16  2  0  0  0  0
 14 29  1  0  0  0  0
 16 30  1  0  0  0  0
 17 31  1  0  0  0  0
 17 32  1  0  0  0  0
 17 33  1  0  0  0  0
 18 34  1  0  0  0  0
 18 35  1  0  0  0  0
 18 36  1  0  0  0  0
 19 20  1  0  0  0  0
 20 21  2  0  0  0  0
 20 23  1  0  0  0  0
 21 24  1  0  0  0  0
 22 37  1  0  0  0  0
 22 38  1  0  0  0  0
 22 39  1  0  0  0  0
 23 40  1  0  0  0  0
 24 25  2  0  0  0  0
 24 41  1  0  0  0  0
 25 42  1  0  0  0  0
M  END
> <PUBCHEM_COMPOUND_CID>
505856
> <PUBCHEM_COMPOUND_CANONICALIZED>
1
> <PUBCHEM_CACTVS_COMPLEXITY>
603
> <PUBCHEM_CACTVS_HBOND_ACCEPTOR>
5
> <PUBCHEM_CACTVS_HBOND_DONOR>
0
> <PUBCHEM_CACTVS_ROTATABLE_BOND>
3
> <PUBCHEM_CACTVS_SUBSKEYS>
AAADceB7MAAAAAAAAAAAAAAAAAAAAWAAAAA8QIAAAAAAAFiBwAAAHgAAAAAADRzhmgY/wJMIFACoArd3dACCgCE1AiAJ2CG4bNgIJnrA/fmENYhkxAHI6ceY3ePOCAACAAACAAAQAAQAAAQAAAAAAAAAAA==
> <PUBCHEM_IUPAC_OPENEYE_NAME>
14-(1-methoxy-2-methyl-propyl)-2,6,10-triazatetracyclo[8.7.0.03,8.011,16]heptadeca-1,3(8),4,6,11(16),12,14-heptaene-9,17-dione
> <PUBCHEM_IUPAC_CAS_NAME>
14-(1-methoxy-2-methylpropyl)-2,6,10-triazatetracyclo[8.7.0.03,8.011,16]heptadeca-1,3(8),4,6,11(16),12,14-heptaene-9,17-dione
> <PUBCHEM_IUPAC_NAME_MARKUP>
14-(1-methoxy-2-methylpropyl)-2,6,10-triazatetracyclo[8.7.0.0<SUP>3,8</SUP>.0<SUP>11,16</SUP>]heptadeca-1,3(8),4,6,11(16),12,14-heptaene-9,17-dione
> <PUBCHEM_IUPAC_NAME>
14-(1-methoxy-2-methylpropyl)-2,6,10-triazatetracyclo[8.7.0.03,8.011,16]heptadeca-1,3(8),4,6,11(16),12,14-heptaene-9,17-dione
> <PUBCHEM_IUPAC_SYSTEMATIC_NAME>
14-(1-methoxy-2-methyl-propyl)-2,6,10-triazatetracyclo[8.7.0.03,8.011,16]heptadeca-1,3(8),4,6,11(16),12,14-heptaene-9,17-dione
> <PUBCHEM_IUPAC_TRADITIONAL_NAME>
14-(1-methoxy-2-methyl-propyl)-2,6,10-triazatetracyclo[8.7.0.03,8.011,16]heptadeca-1,3(8),4,6,11(16),12,14-heptaene-9,17-quinone
> <PUBCHEM_IUPAC_INCHI>
InChI=1S/C19H17N3O3/c1-10(2)17(25-3)11-4-5-15-12(8-11)16(23)18-21-14-6-7-20-9-13(14)19(24)22(15)18/h4-10,17H,1-3H3
> <PUBCHEM_IUPAC_INCHIKEY>
HGXNBRRIBIJESI-UHFFFAOYSA-N
> <PUBCHEM_XLOGP3_AA>
2
> <PUBCHEM_EXACT_MASS>
335.12699141
> <PUBCHEM_MOLECULAR_FORMULA>
C19H17N3O3
> <PUBCHEM_MOLECULAR_WEIGHT>
335.4
> <PUBCHEM_OPENEYE_CAN_SMILES>
CC(C)C(C1=CC2=C(C=C1)N3C(=NC4=C(C3=O)C=NC=C4)C2=O)OC
> <PUBCHEM_OPENEYE_ISO_SMILES>
CC(C)C(C1=CC2=C(C=C1)N3C(=NC4=C(C3=O)C=NC=C4)C2=O)OC
> <PUBCHEM_CACTVS_TPSA>
71.9
> <PUBCHEM_MONOISOTOPIC_WEIGHT>
335.12699141
> <PUBCHEM_TOTAL_CHARGE>
0
> <PUBCHEM_HEAVY_ATOM_COUNT>
25
> <PUBCHEM_ATOM_DEF_STEREO_COUNT>
0
> <PUBCHEM_ATOM_UDEF_STEREO_COUNT>
1
> <PUBCHEM_BOND_DEF_STEREO_COUNT>
0
> <PUBCHEM_BOND_UDEF_STEREO_COUNT>
0
> <PUBCHEM_ISOTOPIC_ATOM_COUNT>
0
> <PUBCHEM_COMPONENT_COUNT>
1
> <PUBCHEM_CACTVS_TAUTO_COUNT>
-1
> <PUBCHEM_COORDINATE_TYPE>
1
5
255
> <PUBCHEM_BONDANNOTATIONS>
10  11  8
10  16  8
11  12  8
14  16  8
19  20  8
20  21  8
20  23  8
21  24  8
24  25  8
4  13  8
4  19  8
5  13  8
5  21  8
6  23  8
6  25  8
7  8  3
9  12  8
9  14  8
$$$$
