505869
  -OEChem-10302200282D
 78 82  0     1  0  0  0  0  0999 V2000
    3.7634   -0.9129    0.0000 O   0  0  0  0  0  0  0  0  0  0  0  0
    5.1646   -1.9309    0.0000 N   0  0  0  0  0  0  0  0  0  0  0  0
    7.6133   -0.0945    0.0000 N   0  0  0  0  0  0  0  0  0  0  0  0
    7.6133    2.9055    0.0000 N   0  0  3  0  0  0  0  0  0  0  0  0
    8.4793    4.4055    0.0000 N   0  0  0  0  0  0  0  0  0  0  0  0
    6.7473   -1.5945    0.0000 C   0  0  2  0  0  0  0  0  0  0  0  0
    6.6428   -2.5891    0.0000 C   0  0  2  0  0  0  0  0  0  0  0  0
    5.8338   -1.1878    0.0000 C   0  0  0  0  0  0  0  0  0  0  0  0
    5.6646   -2.7970    0.0000 C   0  0  0  0  0  0  0  0  0  0  0  0
    7.6133   -1.0945    0.0000 C   0  0  0  0  0  0  0  0  0  0  0  0
    3.5823   -2.6354    0.0000 C   0  0  0  0  0  0  0  0  0  0  0  0
    6.7473    0.4055    0.0000 C   0  0  0  0  0  0  0  0  0  0  0  0
    8.4793    0.4055    0.0000 C   0  0  0  0  0  0  0  0  0  0  0  0
    7.6133    1.9055    0.0000 C   0  0  0  0  0  0  0  0  0  0  0  0
    4.1701   -1.8264    0.0000 C   0  0  0  0  0  0  0  0  0  0  0  0
    7.3859   -3.2582    0.0000 C   0  0  0  0  0  0  0  0  0  0  0  0
    6.7473    1.4055    0.0000 C   0  0  0  0  0  0  0  0  0  0  0  0
    8.4793    1.4055    0.0000 C   0  0  0  0  0  0  0  0  0  0  0  0
    2.5878   -2.5309    0.0000 C   0  0  0  0  0  0  0  0  0  0  0  0
    3.9890   -3.5490    0.0000 C   0  0  0  0  0  0  0  0  0  0  0  0
    2.0000   -3.3399    0.0000 C   0  0  0  0  0  0  0  0  0  0  0  0
    3.4013   -4.3580    0.0000 C   0  0  0  0  0  0  0  0  0  0  0  0
    2.4067   -4.2535    0.0000 C   0  0  0  0  0  0  0  0  0  0  0  0
    8.3370   -2.9492    0.0000 C   0  0  0  0  0  0  0  0  0  0  0  0
    7.1780   -4.2363    0.0000 C   0  0  0  0  0  0  0  0  0  0  0  0
    6.7473    3.4055    0.0000 C   0  0  0  0  0  0  0  0  0  0  0  0
    8.4793    3.4055    0.0000 C   0  0  0  0  0  0  0  0  0  0  0  0
    9.0801   -3.6183    0.0000 C   0  0  0  0  0  0  0  0  0  0  0  0
    7.9211   -4.9055    0.0000 C   0  0  0  0  0  0  0  0  0  0  0  0
    8.8722   -4.5964    0.0000 C   0  0  0  0  0  0  0  0  0  0  0  0
    6.7473    4.4055    0.0000 C   0  0  0  0  0  0  0  0  0  0  0  0
    9.3454    2.9055    0.0000 C   0  0  0  0  0  0  0  0  0  0  0  0
   10.2114    3.4055    0.0000 C   0  0  0  0  0  0  0  0  0  0  0  0
    9.3454    4.9055    0.0000 C   0  0  0  0  0  0  0  0  0  0  0  0
    5.8813    4.9055    0.0000 C   0  0  0  0  0  0  0  0  0  0  0  0
   10.2114    4.4055    0.0000 C   0  0  0  0  0  0  0  0  0  0  0  0
    7.2673   -1.9322    0.0000 H   0  0  0  0  0  0  0  0  0  0  0  0
    6.4823   -3.1879    0.0000 H   0  0  0  0  0  0  0  0  0  0  0  0
    6.1437   -0.6509    0.0000 H   0  0  0  0  0  0  0  0  0  0  0  0
    5.3322   -0.8234    0.0000 H   0  0  0  0  0  0  0  0  0  0  0  0
    5.0982   -3.0491    0.0000 H   0  0  0  0  0  0  0  0  0  0  0  0
    5.8562   -3.3866    0.0000 H   0  0  0  0  0  0  0  0  0  0  0  0
    7.8254   -1.6771    0.0000 H   0  0  0  0  0  0  0  0  0  0  0  0
    8.2239   -0.9869    0.0000 H   0  0  0  0  0  0  0  0  0  0  0  0
    3.3301   -2.0690    0.0000 H   0  0  0  0  0  0  0  0  0  0  0  0
    6.1367    0.5131    0.0000 H   0  0  0  0  0  0  0  0  0  0  0  0
    6.5352   -0.1771    0.0000 H   0  0  0  0  0  0  0  0  0  0  0  0
    8.6914   -0.1771    0.0000 H   0  0  0  0  0  0  0  0  0  0  0  0
    9.0899    0.5131    0.0000 H   0  0  0  0  0  0  0  0  0  0  0  0
    7.0764    2.2155    0.0000 H   0  0  0  0  0  0  0  0  0  0  0  0
    6.5352    1.9881    0.0000 H   0  0  0  0  0  0  0  0  0  0  0  0
    6.1367    1.2978    0.0000 H   0  0  0  0  0  0  0  0  0  0  0  0
    9.0899    1.2978    0.0000 H   0  0  0  0  0  0  0  0  0  0  0  0
    8.6914    1.9881    0.0000 H   0  0  0  0  0  0  0  0  0  0  0  0
    2.7587   -1.9349    0.0000 H   0  0  0  0  0  0  0  0  0  0  0  0
    2.0305   -2.2591    0.0000 H   0  0  0  0  0  0  0  0  0  0  0  0
    4.4197   -3.9950    0.0000 H   0  0  0  0  0  0  0  0  0  0  0  0
    4.5030   -3.2023    0.0000 H   0  0  0  0  0  0  0  0  0  0  0  0
    1.5693   -2.8939    0.0000 H   0  0  0  0  0  0  0  0  0  0  0  0
    1.4860   -3.6866    0.0000 H   0  0  0  0  0  0  0  0  0  0  0  0
    3.2304   -4.9540    0.0000 H   0  0  0  0  0  0  0  0  0  0  0  0
    3.9585   -4.6298    0.0000 H   0  0  0  0  0  0  0  0  0  0  0  0
    1.8052   -4.4035    0.0000 H   0  0  0  0  0  0  0  0  0  0  0  0
    2.4500   -4.8720    0.0000 H   0  0  0  0  0  0  0  0  0  0  0  0
    8.4659   -2.3427    0.0000 H   0  0  0  0  0  0  0  0  0  0  0  0
    6.5883   -4.4279    0.0000 H   0  0  0  0  0  0  0  0  0  0  0  0
    6.1367    3.5131    0.0000 H   0  0  0  0  0  0  0  0  0  0  0  0
    6.5352    2.8229    0.0000 H   0  0  0  0  0  0  0  0  0  0  0  0
    9.6698   -3.4267    0.0000 H   0  0  0  0  0  0  0  0  0  0  0  0
    7.7922   -5.5119    0.0000 H   0  0  0  0  0  0  0  0  0  0  0  0
    9.3330   -5.0113    0.0000 H   0  0  0  0  0  0  0  0  0  0  0  0
    7.2842    4.7155    0.0000 H   0  0  0  0  0  0  0  0  0  0  0  0
    9.3454    2.2855    0.0000 H   0  0  0  0  0  0  0  0  0  0  0  0
   10.7483    3.0955    0.0000 H   0  0  0  0  0  0  0  0  0  0  0  0
    9.3454    5.5255    0.0000 H   0  0  0  0  0  0  0  0  0  0  0  0
    5.8813    5.5255    0.0000 H   0  0  0  0  0  0  0  0  0  0  0  0
    5.3443    4.5955    0.0000 H   0  0  0  0  0  0  0  0  0  0  0  0
   10.7483    4.7155    0.0000 H   0  0  0  0  0  0  0  0  0  0  0  0
  1 15  2  0  0  0  0
  2  8  1  0  0  0  0
  2  9  1  0  0  0  0
  2 15  1  0  0  0  0
  3 10  1  0  0  0  0
  3 12  1  0  0  0  0
  3 13  1  0  0  0  0
  4 14  1  0  0  0  0
  4 26  1  0  0  0  0
  4 27  1  0  0  0  0
  5 27  1  0  0  0  0
  5 34  2  0  0  0  0
  6  7  1  0  0  0  0
  6  8  1  0  0  0  0
  6 10  1  6  0  0  0
  6 37  1  0  0  0  0
  7  9  1  0  0  0  0
  7 16  1  1  0  0  0
  7 38  1  0  0  0  0
  8 39  1  0  0  0  0
  8 40  1  0  0  0  0
  9 41  1  0  0  0  0
  9 42  1  0  0  0  0
 10 43  1  0  0  0  0
 10 44  1  0  0  0  0
 11 15  1  0  0  0  0
 11 19  1  0  0  0  0
 11 20  1  0  0  0  0
 11 45  1  0  0  0  0
 12 17  1  0  0  0  0
 12 46  1  0  0  0  0
 12 47  1  0  0  0  0
 13 18  1  0  0  0  0
 13 48  1  0  0  0  0
 13 49  1  0  0  0  0
 14 17  1  0  0  0  0
 14 18  1  0  0  0  0
 14 50  1  0  0  0  0
 16 24  2  0  0  0  0
 16 25  1  0  0  0  0
 17 51  1  0  0  0  0
 17 52  1  0  0  0  0
 18 53  1  0  0  0  0
 18 54  1  0  0  0  0
 19 21  1  0  0  0  0
 19 55  1  0  0  0  0
 19 56  1  0  0  0  0
 20 22  1  0  0  0  0
 20 57  1  0  0  0  0
 20 58  1  0  0  0  0
 21 23  1  0  0  0  0
 21 59  1  0  0  0  0
 21 60  1  0  0  0  0
 22 23  1  0  0  0  0
 22 61  1  0  0  0  0
 22 62  1  0  0  0  0
 23 63  1  0  0  0  0
 23 64  1  0  0  0  0
 24 28  1  0  0  0  0
 24 65  1  0  0  0  0
 25 29  2  0  0  0  0
 25 66  1  0  0  0  0
 26 31  1  0  0  0  0
 26 67  1  0  0  0  0
 26 68  1  0  0  0  0
 27 32  2  0  0  0  0
 28 30  2  0  0  0  0
 28 69  1  0  0  0  0
 29 30  1  0  0  0  0
 29 70  1  0  0  0  0
 30 71  1  0  0  0  0
 31 35  2  0  0  0  0
 31 72  1  0  0  0  0
 32 33  1  0  0  0  0
 32 73  1  0  0  0  0
 33 36  2  0  0  0  0
 33 74  1  0  0  0  0
 34 36  1  0  0  0  0
 34 75  1  0  0  0  0
 35 76  1  0  0  0  0
 35 77  1  0  0  0  0
 36 78  1  0  0  0  0
M  END
> <PUBCHEM_COMPOUND_CID>
505869
> <PUBCHEM_COMPOUND_CANONICALIZED>
1
> <PUBCHEM_CACTVS_COMPLEXITY>
693
> <PUBCHEM_CACTVS_HBOND_ACCEPTOR>
4
> <PUBCHEM_CACTVS_HBOND_DONOR>
0
> <PUBCHEM_CACTVS_ROTATABLE_BOND>
8
> <PUBCHEM_CACTVS_SUBSKEYS>
AAADcfB7oAAAAAAAAAAAAAAAAAAAAWAAAAA8eIEAAAAAAAABwAAAHgAAAAAADSjBmgQ9sJMIEACoAjN3dACCgCkxAiAJ2CE4ZJiIIPLA2ZGEIAhohgLIyCcYiMCOgAAAAAAAAAAAAAAAAAAAAAAAAAAAAA==
> <PUBCHEM_IUPAC_OPENEYE_NAME>
[(3S,4S)-3-[[4-[allyl(2-pyridyl)amino]-1-piperidyl]methyl]-4-phenyl-pyrrolidin-1-yl]-cyclohexyl-methanone
> <PUBCHEM_IUPAC_CAS_NAME>
cyclohexyl-[(3S,4S)-3-phenyl-4-[[4-[prop-2-enyl(2-pyridinyl)amino]-1-piperidinyl]methyl]-1-pyrrolidinyl]methanone
> <PUBCHEM_IUPAC_NAME_MARKUP>
cyclohexyl-[(3<I>S</I>,4<I>S</I>)-3-phenyl-4-[[4-[prop-2-enyl(pyridin-2-yl)amino]piperidin-1-yl]methyl]pyrrolidin-1-yl]methanone
> <PUBCHEM_IUPAC_NAME>
cyclohexyl-[(3S,4S)-3-phenyl-4-[[4-[prop-2-enyl(pyridin-2-yl)amino]piperidin-1-yl]methyl]pyrrolidin-1-yl]methanone
> <PUBCHEM_IUPAC_SYSTEMATIC_NAME>
cyclohexyl-[(3S,4S)-3-phenyl-4-[[4-[prop-2-enyl(pyridin-2-yl)amino]piperidin-1-yl]methyl]pyrrolidin-1-yl]methanone
> <PUBCHEM_IUPAC_TRADITIONAL_NAME>
[(3S,4S)-3-[[4-[allyl(2-pyridyl)amino]piperidino]methyl]-4-phenyl-pyrrolidino]-cyclohexyl-methanone
> <PUBCHEM_IUPAC_INCHI>
InChI=1S/C31H42N4O/c1-2-19-35(30-15-9-10-18-32-30)28-16-20-33(21-17-28)22-27-23-34(31(36)26-13-7-4-8-14-26)24-29(27)25-11-5-3-6-12-25/h2-3,5-6,9-12,15,18,26-29H,1,4,7-8,13-14,16-17,19-24H2/t27-,29+/m0/s1
> <PUBCHEM_IUPAC_INCHIKEY>
RHFUWIXPHXRNRE-LMSSTIIKSA-N
> <PUBCHEM_XLOGP3_AA>
5.9
> <PUBCHEM_EXACT_MASS>
486.33586198
> <PUBCHEM_MOLECULAR_FORMULA>
C31H42N4O
> <PUBCHEM_MOLECULAR_WEIGHT>
486.7
> <PUBCHEM_OPENEYE_CAN_SMILES>
C=CCN(C1CCN(CC1)CC2CN(CC2C3=CC=CC=C3)C(=O)C4CCCCC4)C5=CC=CC=N5
> <PUBCHEM_OPENEYE_ISO_SMILES>
C=CCN(C1CCN(CC1)C[C@H]2CN(C[C@@H]2C3=CC=CC=C3)C(=O)C4CCCCC4)C5=CC=CC=N5
> <PUBCHEM_CACTVS_TPSA>
39.7
> <PUBCHEM_MONOISOTOPIC_WEIGHT>
486.33586198
> <PUBCHEM_TOTAL_CHARGE>
0
> <PUBCHEM_HEAVY_ATOM_COUNT>
36
> <PUBCHEM_ATOM_DEF_STEREO_COUNT>
2
> <PUBCHEM_ATOM_UDEF_STEREO_COUNT>
0
> <PUBCHEM_BOND_DEF_STEREO_COUNT>
0
> <PUBCHEM_BOND_UDEF_STEREO_COUNT>
0
> <PUBCHEM_ISOTOPIC_ATOM_COUNT>
0
> <PUBCHEM_COMPONENT_COUNT>
1
> <PUBCHEM_CACTVS_TAUTO_COUNT>
-1
> <PUBCHEM_COORDINATE_TYPE>
1
5
255
> <PUBCHEM_BONDANNOTATIONS>
16  24  8
16  25  8
24  28  8
25  29  8
27  32  8
28  30  8
29  30  8
32  33  8
33  36  8
34  36  8
5  27  8
5  34  8
6  10  6
7  16  5
$$$$
