505872
  -OEChem-10302200282D
 84 89  0     1  0  0  0  0  0999 V2000
    3.7634   -1.6629    0.0000 O   0  0  0  0  0  0  0  0  0  0  0  0
    5.1646   -2.6809    0.0000 N   0  0  0  0  0  0  0  0  0  0  0  0
    7.6133   -0.8445    0.0000 N   0  0  0  0  0  0  0  0  0  0  0  0
    7.6133    2.1555    0.0000 N   0  0  3  0  0  0  0  0  0  0  0  0
    8.4793    3.6555    0.0000 N   0  0  0  0  0  0  0  0  0  0  0  0
    6.7473   -2.3445    0.0000 C   0  0  2  0  0  0  0  0  0  0  0  0
    6.6428   -3.3391    0.0000 C   0  0  2  0  0  0  0  0  0  0  0  0
    5.8338   -1.9378    0.0000 C   0  0  0  0  0  0  0  0  0  0  0  0
    7.6133   -1.8445    0.0000 C   0  0  0  0  0  0  0  0  0  0  0  0
    5.6646   -3.5470    0.0000 C   0  0  0  0  0  0  0  0  0  0  0  0
    6.7473   -0.3445    0.0000 C   0  0  0  0  0  0  0  0  0  0  0  0
    8.4793   -0.3445    0.0000 C   0  0  0  0  0  0  0  0  0  0  0  0
    3.5823   -3.3854    0.0000 C   0  0  0  0  0  0  0  0  0  0  0  0
    7.6133    1.1555    0.0000 C   0  0  0  0  0  0  0  0  0  0  0  0
    7.3859   -4.0082    0.0000 C   0  0  0  0  0  0  0  0  0  0  0  0
    4.1701   -2.5764    0.0000 C   0  0  0  0  0  0  0  0  0  0  0  0
    6.7473    0.6555    0.0000 C   0  0  0  0  0  0  0  0  0  0  0  0
    8.4793    0.6555    0.0000 C   0  0  0  0  0  0  0  0  0  0  0  0
    2.5878   -3.2809    0.0000 C   0  0  0  0  0  0  0  0  0  0  0  0
    3.9890   -4.2990    0.0000 C   0  0  0  0  0  0  0  0  0  0  0  0
    2.0000   -4.0899    0.0000 C   0  0  0  0  0  0  0  0  0  0  0  0
    3.4013   -5.1080    0.0000 C   0  0  0  0  0  0  0  0  0  0  0  0
    2.4067   -5.0035    0.0000 C   0  0  0  0  0  0  0  0  0  0  0  0
    7.1780   -4.9863    0.0000 C   0  0  0  0  0  0  0  0  0  0  0  0
    8.3370   -3.6992    0.0000 C   0  0  0  0  0  0  0  0  0  0  0  0
    6.7473    2.6555    0.0000 C   0  0  0  0  0  0  0  0  0  0  0  0
    8.4793    2.6555    0.0000 C   0  0  0  0  0  0  0  0  0  0  0  0
    7.9211   -5.6555    0.0000 C   0  0  0  0  0  0  0  0  0  0  0  0
    9.0801   -4.3683    0.0000 C   0  0  0  0  0  0  0  0  0  0  0  0
    8.8722   -5.3464    0.0000 C   0  0  0  0  0  0  0  0  0  0  0  0
    6.7473    3.6555    0.0000 C   0  0  0  0  0  0  0  0  0  0  0  0
    9.3454    2.1555    0.0000 C   0  0  0  0  0  0  0  0  0  0  0  0
    5.8813    4.1555    0.0000 C   0  0  0  0  0  0  0  0  0  0  0  0
    7.6133    4.1555    0.0000 C   0  0  0  0  0  0  0  0  0  0  0  0
   10.2114    2.6555    0.0000 C   0  0  0  0  0  0  0  0  0  0  0  0
    9.3454    4.1555    0.0000 C   0  0  0  0  0  0  0  0  0  0  0  0
   10.2114    3.6555    0.0000 C   0  0  0  0  0  0  0  0  0  0  0  0
    5.8813    5.1555    0.0000 C   0  0  0  0  0  0  0  0  0  0  0  0
    7.6133    5.1555    0.0000 C   0  0  0  0  0  0  0  0  0  0  0  0
    6.7473    5.6555    0.0000 C   0  0  0  0  0  0  0  0  0  0  0  0
    7.2673   -2.6822    0.0000 H   0  0  0  0  0  0  0  0  0  0  0  0
    7.2216   -3.1169    0.0000 H   0  0  0  0  0  0  0  0  0  0  0  0
    6.1437   -1.4009    0.0000 H   0  0  0  0  0  0  0  0  0  0  0  0
    5.3322   -1.5734    0.0000 H   0  0  0  0  0  0  0  0  0  0  0  0
    7.8254   -2.4271    0.0000 H   0  0  0  0  0  0  0  0  0  0  0  0
    8.2239   -1.7369    0.0000 H   0  0  0  0  0  0  0  0  0  0  0  0
    5.0982   -3.7991    0.0000 H   0  0  0  0  0  0  0  0  0  0  0  0
    5.8562   -4.1366    0.0000 H   0  0  0  0  0  0  0  0  0  0  0  0
    6.1367   -0.2369    0.0000 H   0  0  0  0  0  0  0  0  0  0  0  0
    6.5352   -0.9271    0.0000 H   0  0  0  0  0  0  0  0  0  0  0  0
    8.6914   -0.9271    0.0000 H   0  0  0  0  0  0  0  0  0  0  0  0
    9.0899   -0.2369    0.0000 H   0  0  0  0  0  0  0  0  0  0  0  0
    3.3301   -2.8190    0.0000 H   0  0  0  0  0  0  0  0  0  0  0  0
    7.0764    1.4655    0.0000 H   0  0  0  0  0  0  0  0  0  0  0  0
    6.5352    1.2381    0.0000 H   0  0  0  0  0  0  0  0  0  0  0  0
    6.1367    0.5478    0.0000 H   0  0  0  0  0  0  0  0  0  0  0  0
    9.0899    0.5478    0.0000 H   0  0  0  0  0  0  0  0  0  0  0  0
    8.6914    1.2381    0.0000 H   0  0  0  0  0  0  0  0  0  0  0  0
    2.7587   -2.6849    0.0000 H   0  0  0  0  0  0  0  0  0  0  0  0
    2.0305   -3.0091    0.0000 H   0  0  0  0  0  0  0  0  0  0  0  0
    4.4197   -4.7450    0.0000 H   0  0  0  0  0  0  0  0  0  0  0  0
    4.5030   -3.9523    0.0000 H   0  0  0  0  0  0  0  0  0  0  0  0
    1.5693   -3.6439    0.0000 H   0  0  0  0  0  0  0  0  0  0  0  0
    1.4860   -4.4366    0.0000 H   0  0  0  0  0  0  0  0  0  0  0  0
    3.2304   -5.7040    0.0000 H   0  0  0  0  0  0  0  0  0  0  0  0
    3.9585   -5.3798    0.0000 H   0  0  0  0  0  0  0  0  0  0  0  0
    1.8052   -5.1535    0.0000 H   0  0  0  0  0  0  0  0  0  0  0  0
    2.4500   -5.6220    0.0000 H   0  0  0  0  0  0  0  0  0  0  0  0
    6.5883   -5.1779    0.0000 H   0  0  0  0  0  0  0  0  0  0  0  0
    8.4659   -3.0927    0.0000 H   0  0  0  0  0  0  0  0  0  0  0  0
    6.1367    2.7631    0.0000 H   0  0  0  0  0  0  0  0  0  0  0  0
    6.5352    2.0729    0.0000 H   0  0  0  0  0  0  0  0  0  0  0  0
    7.7922   -6.2619    0.0000 H   0  0  0  0  0  0  0  0  0  0  0  0
    9.6698   -4.1767    0.0000 H   0  0  0  0  0  0  0  0  0  0  0  0
    9.3330   -5.7613    0.0000 H   0  0  0  0  0  0  0  0  0  0  0  0
    9.3454    1.5355    0.0000 H   0  0  0  0  0  0  0  0  0  0  0  0
    5.3443    3.8455    0.0000 H   0  0  0  0  0  0  0  0  0  0  0  0
    8.1502    3.8455    0.0000 H   0  0  0  0  0  0  0  0  0  0  0  0
   10.7483    2.3455    0.0000 H   0  0  0  0  0  0  0  0  0  0  0  0
    9.3454    4.7755    0.0000 H   0  0  0  0  0  0  0  0  0  0  0  0
   10.7483    3.9655    0.0000 H   0  0  0  0  0  0  0  0  0  0  0  0
    5.3443    5.4655    0.0000 H   0  0  0  0  0  0  0  0  0  0  0  0
    8.1502    5.4655    0.0000 H   0  0  0  0  0  0  0  0  0  0  0  0
    6.7473    6.2755    0.0000 H   0  0  0  0  0  0  0  0  0  0  0  0
  1 16  2  0  0  0  0
  2  8  1  0  0  0  0
  2 10  1  0  0  0  0
  2 16  1  0  0  0  0
  3  9  1  0  0  0  0
  3 11  1  0  0  0  0
  3 12  1  0  0  0  0
  4 14  1  0  0  0  0
  4 26  1  0  0  0  0
  4 27  1  0  0  0  0
  5 27  1  0  0  0  0
  5 36  2  0  0  0  0
  6  7  1  0  0  0  0
  6  8  1  0  0  0  0
  6  9  1  6  0  0  0
  6 41  1  0  0  0  0
  7 10  1  0  0  0  0
  7 15  1  1  0  0  0
  7 42  1  0  0  0  0
  8 43  1  0  0  0  0
  8 44  1  0  0  0  0
  9 45  1  0  0  0  0
  9 46  1  0  0  0  0
 10 47  1  0  0  0  0
 10 48  1  0  0  0  0
 11 17  1  0  0  0  0
 11 49  1  0  0  0  0
 11 50  1  0  0  0  0
 12 18  1  0  0  0  0
 12 51  1  0  0  0  0
 12 52  1  0  0  0  0
 13 16  1  0  0  0  0
 13 19  1  0  0  0  0
 13 20  1  0  0  0  0
 13 53  1  0  0  0  0
 14 17  1  0  0  0  0
 14 18  1  0  0  0  0
 14 54  1  0  0  0  0
 15 24  2  0  0  0  0
 15 25  1  0  0  0  0
 17 55  1  0  0  0  0
 17 56  1  0  0  0  0
 18 57  1  0  0  0  0
 18 58  1  0  0  0  0
 19 21  1  0  0  0  0
 19 59  1  0  0  0  0
 19 60  1  0  0  0  0
 20 22  1  0  0  0  0
 20 61  1  0  0  0  0
 20 62  1  0  0  0  0
 21 23  1  0  0  0  0
 21 63  1  0  0  0  0
 21 64  1  0  0  0  0
 22 23  1  0  0  0  0
 22 65  1  0  0  0  0
 22 66  1  0  0  0  0
 23 67  1  0  0  0  0
 23 68  1  0  0  0  0
 24 28  1  0  0  0  0
 24 69  1  0  0  0  0
 25 29  2  0  0  0  0
 25 70  1  0  0  0  0
 26 31  1  0  0  0  0
 26 71  1  0  0  0  0
 26 72  1  0  0  0  0
 27 32  2  0  0  0  0
 28 30  2  0  0  0  0
 28 73  1  0  0  0  0
 29 30  1  0  0  0  0
 29 74  1  0  0  0  0
 30 75  1  0  0  0  0
 31 33  2  0  0  0  0
 31 34  1  0  0  0  0
 32 35  1  0  0  0  0
 32 76  1  0  0  0  0
 33 38  1  0  0  0  0
 33 77  1  0  0  0  0
 34 39  2  0  0  0  0
 34 78  1  0  0  0  0
 35 37  2  0  0  0  0
 35 79  1  0  0  0  0
 36 37  1  0  0  0  0
 36 80  1  0  0  0  0
 37 81  1  0  0  0  0
 38 40  2  0  0  0  0
 38 82  1  0  0  0  0
 39 40  1  0  0  0  0
 39 83  1  0  0  0  0
 40 84  1  0  0  0  0
M  END
> <PUBCHEM_COMPOUND_CID>
505872
> <PUBCHEM_COMPOUND_CANONICALIZED>
1
> <PUBCHEM_CACTVS_COMPLEXITY>
763
> <PUBCHEM_CACTVS_HBOND_ACCEPTOR>
4
> <PUBCHEM_CACTVS_HBOND_DONOR>
0
> <PUBCHEM_CACTVS_ROTATABLE_BOND>
8
> <PUBCHEM_CACTVS_SUBSKEYS>
AAADcfB/oAAAAAAAAAAAAAAAAAAAAWAAAAA8eMECAAAAAAAB0AAAHgAAAAAADSjBmgQ9sJMIEACoAjN3dACCgCkxAiAJ2CE4ZJiIIPLA2ZGEIAhohgLIyCcYiMCOgAAAAAAAAAAAAAAAAAAAAAAAAAAAAA==
> <PUBCHEM_IUPAC_OPENEYE_NAME>
[(3S,4S)-3-[[4-[benzyl(2-pyridyl)amino]-1-piperidyl]methyl]-4-phenyl-pyrrolidin-1-yl]-cyclohexyl-methanone
> <PUBCHEM_IUPAC_CAS_NAME>
cyclohexyl-[(3S,4S)-3-phenyl-4-[[4-[(phenylmethyl)-(2-pyridinyl)amino]-1-piperidinyl]methyl]-1-pyrrolidinyl]methanone
> <PUBCHEM_IUPAC_NAME_MARKUP>
[(3<I>S</I>,4<I>S</I>)-3-[[4-[benzyl(pyridin-2-yl)amino]piperidin-1-yl]methyl]-4-phenylpyrrolidin-1-yl]-cyclohexylmethanone
> <PUBCHEM_IUPAC_NAME>
[(3S,4S)-3-[[4-[benzyl(pyridin-2-yl)amino]piperidin-1-yl]methyl]-4-phenylpyrrolidin-1-yl]-cyclohexylmethanone
> <PUBCHEM_IUPAC_SYSTEMATIC_NAME>
cyclohexyl-[(3S,4S)-3-phenyl-4-[[4-[(phenylmethyl)-pyridin-2-yl-amino]piperidin-1-yl]methyl]pyrrolidin-1-yl]methanone
> <PUBCHEM_IUPAC_TRADITIONAL_NAME>
[(3S,4S)-3-[[4-[benzyl(2-pyridyl)amino]piperidino]methyl]-4-phenyl-pyrrolidino]-cyclohexyl-methanone
> <PUBCHEM_IUPAC_INCHI>
InChI=1S/C35H44N4O/c40-35(30-16-8-3-9-17-30)38-26-31(33(27-38)29-14-6-2-7-15-29)25-37-22-19-32(20-23-37)39(34-18-10-11-21-36-34)24-28-12-4-1-5-13-28/h1-2,4-7,10-15,18,21,30-33H,3,8-9,16-17,19-20,22-27H2/t31-,33+/m0/s1
> <PUBCHEM_IUPAC_INCHIKEY>
ACMSANXIVMQTEW-CQTOTRCISA-N
> <PUBCHEM_XLOGP3_AA>
6.8
> <PUBCHEM_EXACT_MASS>
536.35151204
> <PUBCHEM_MOLECULAR_FORMULA>
C35H44N4O
> <PUBCHEM_MOLECULAR_WEIGHT>
536.7
> <PUBCHEM_OPENEYE_CAN_SMILES>
C1CCC(CC1)C(=O)N2CC(C(C2)C3=CC=CC=C3)CN4CCC(CC4)N(CC5=CC=CC=C5)C6=CC=CC=N6
> <PUBCHEM_OPENEYE_ISO_SMILES>
C1CCC(CC1)C(=O)N2C[C@@H]([C@H](C2)C3=CC=CC=C3)CN4CCC(CC4)N(CC5=CC=CC=C5)C6=CC=CC=N6
> <PUBCHEM_CACTVS_TPSA>
39.7
> <PUBCHEM_MONOISOTOPIC_WEIGHT>
536.35151204
> <PUBCHEM_TOTAL_CHARGE>
0
> <PUBCHEM_HEAVY_ATOM_COUNT>
40
> <PUBCHEM_ATOM_DEF_STEREO_COUNT>
2
> <PUBCHEM_ATOM_UDEF_STEREO_COUNT>
0
> <PUBCHEM_BOND_DEF_STEREO_COUNT>
0
> <PUBCHEM_BOND_UDEF_STEREO_COUNT>
0
> <PUBCHEM_ISOTOPIC_ATOM_COUNT>
0
> <PUBCHEM_COMPONENT_COUNT>
1
> <PUBCHEM_CACTVS_TAUTO_COUNT>
-1
> <PUBCHEM_COORDINATE_TYPE>
1
5
255
> <PUBCHEM_BONDANNOTATIONS>
15  24  8
15  25  8
24  28  8
25  29  8
27  32  8
28  30  8
29  30  8
31  33  8
31  34  8
32  35  8
33  38  8
34  39  8
35  37  8
36  37  8
38  40  8
39  40  8
5  27  8
5  36  8
6  9  6
7  15  5
$$$$
