505881
  -OEChem-10302200282D
 83 87  0     1  0  0  0  0  0999 V2000
    7.7132   -5.3945    0.0000 F   0  0  0  0  0  0  0  0  0  0  0  0
    2.7688   -0.3193    0.0000 O   0  0  0  0  0  0  0  0  0  0  0  0
    4.3511    0.3852    0.0000 O   0  0  0  0  0  0  0  0  0  0  0  0
    5.1646   -1.4419    0.0000 N   0  0  3  0  0  0  0  0  0  0  0  0
    7.6133    0.3945    0.0000 N   0  0  0  0  0  0  0  0  0  0  0  0
    7.6133    3.3945    0.0000 N   0  0  3  0  0  0  0  0  0  0  0  0
    9.3454    3.3945    0.0000 N   0  0  0  0  0  0  0  0  0  0  0  0
    8.4793    4.8945    0.0000 N   0  0  0  0  0  0  0  0  0  0  0  0
    6.7473   -1.1055    0.0000 C   0  0  2  0  0  0  0  0  0  0  0  0
    6.6428   -2.1000    0.0000 C   0  0  2  0  0  0  0  0  0  0  0  0
    5.8338   -0.6987    0.0000 C   0  0  0  0  0  0  0  0  0  0  0  0
    5.6646   -2.3079    0.0000 C   0  0  0  0  0  0  0  0  0  0  0  0
    4.1701   -1.3373    0.0000 C   0  0  2  0  0  0  0  0  0  0  0  0
    3.5823   -2.1464    0.0000 C   0  0  0  0  0  0  0  0  0  0  0  0
    7.6133   -0.6055    0.0000 C   0  0  0  0  0  0  0  0  0  0  0  0
    2.5878   -2.0418    0.0000 C   0  0  0  0  0  0  0  0  0  0  0  0
    3.9890   -3.0599    0.0000 C   0  0  0  0  0  0  0  0  0  0  0  0
    7.3859   -2.7691    0.0000 C   0  0  0  0  0  0  0  0  0  0  0  0
    6.7473    0.8945    0.0000 C   0  0  0  0  0  0  0  0  0  0  0  0
    8.4793    0.8945    0.0000 C   0  0  0  0  0  0  0  0  0  0  0  0
    2.0000   -2.8508    0.0000 C   0  0  0  0  0  0  0  0  0  0  0  0
    3.4013   -3.8689    0.0000 C   0  0  0  0  0  0  0  0  0  0  0  0
    7.6133    2.3945    0.0000 C   0  0  0  0  0  0  0  0  0  0  0  0
    2.4067   -3.7644    0.0000 C   0  0  0  0  0  0  0  0  0  0  0  0
    6.7473    1.8945    0.0000 C   0  0  0  0  0  0  0  0  0  0  0  0
    8.4793    1.8945    0.0000 C   0  0  0  0  0  0  0  0  0  0  0  0
    3.7634   -0.4238    0.0000 C   0  0  0  0  0  0  0  0  0  0  0  0
    7.1780   -3.7473    0.0000 C   0  0  0  0  0  0  0  0  0  0  0  0
    8.3370   -2.4601    0.0000 C   0  0  0  0  0  0  0  0  0  0  0  0
    6.7473    3.8945    0.0000 C   0  0  0  0  0  0  0  0  0  0  0  0
    7.9211   -4.4164    0.0000 C   0  0  0  0  0  0  0  0  0  0  0  0
    9.0801   -3.1292    0.0000 C   0  0  0  0  0  0  0  0  0  0  0  0
    8.4793    3.8945    0.0000 C   0  0  0  0  0  0  0  0  0  0  0  0
    8.8722   -4.1074    0.0000 C   0  0  0  0  0  0  0  0  0  0  0  0
    6.7473    4.8945    0.0000 C   0  0  0  0  0  0  0  0  0  0  0  0
    5.8813    5.3945    0.0000 C   0  0  0  0  0  0  0  0  0  0  0  0
   10.2114    3.8945    0.0000 C   0  0  0  0  0  0  0  0  0  0  0  0
    9.3454    5.3945    0.0000 C   0  0  0  0  0  0  0  0  0  0  0  0
   10.2114    4.8945    0.0000 C   0  0  0  0  0  0  0  0  0  0  0  0
    7.2673   -1.4431    0.0000 H   0  0  0  0  0  0  0  0  0  0  0  0
    6.4823   -2.6989    0.0000 H   0  0  0  0  0  0  0  0  0  0  0  0
    6.1437   -0.1618    0.0000 H   0  0  0  0  0  0  0  0  0  0  0  0
    5.3322   -0.3343    0.0000 H   0  0  0  0  0  0  0  0  0  0  0  0
    5.0982   -2.5601    0.0000 H   0  0  0  0  0  0  0  0  0  0  0  0
    5.8562   -2.8976    0.0000 H   0  0  0  0  0  0  0  0  0  0  0  0
    4.5345   -0.8358    0.0000 H   0  0  0  0  0  0  0  0  0  0  0  0
    3.3301   -1.5800    0.0000 H   0  0  0  0  0  0  0  0  0  0  0  0
    7.8254   -1.1881    0.0000 H   0  0  0  0  0  0  0  0  0  0  0  0
    8.2239   -0.4978    0.0000 H   0  0  0  0  0  0  0  0  0  0  0  0
    2.7587   -1.4458    0.0000 H   0  0  0  0  0  0  0  0  0  0  0  0
    2.0305   -1.7700    0.0000 H   0  0  0  0  0  0  0  0  0  0  0  0
    4.4197   -3.5059    0.0000 H   0  0  0  0  0  0  0  0  0  0  0  0
    4.5030   -2.7132    0.0000 H   0  0  0  0  0  0  0  0  0  0  0  0
    6.1367    1.0022    0.0000 H   0  0  0  0  0  0  0  0  0  0  0  0
    6.5352    0.3119    0.0000 H   0  0  0  0  0  0  0  0  0  0  0  0
    8.6914    0.3119    0.0000 H   0  0  0  0  0  0  0  0  0  0  0  0
    9.0899    1.0022    0.0000 H   0  0  0  0  0  0  0  0  0  0  0  0
    1.5693   -2.4049    0.0000 H   0  0  0  0  0  0  0  0  0  0  0  0
    1.4860   -3.1976    0.0000 H   0  0  0  0  0  0  0  0  0  0  0  0
    3.2304   -4.4649    0.0000 H   0  0  0  0  0  0  0  0  0  0  0  0
    3.9585   -4.1407    0.0000 H   0  0  0  0  0  0  0  0  0  0  0  0
    7.0764    2.7045    0.0000 H   0  0  0  0  0  0  0  0  0  0  0  0
    1.8052   -3.9144    0.0000 H   0  0  0  0  0  0  0  0  0  0  0  0
    2.4500   -4.3829    0.0000 H   0  0  0  0  0  0  0  0  0  0  0  0
    6.5352    2.4772    0.0000 H   0  0  0  0  0  0  0  0  0  0  0  0
    6.1367    1.7869    0.0000 H   0  0  0  0  0  0  0  0  0  0  0  0
    9.0899    1.7869    0.0000 H   0  0  0  0  0  0  0  0  0  0  0  0
    8.6914    2.4772    0.0000 H   0  0  0  0  0  0  0  0  0  0  0  0
    6.5883   -3.9388    0.0000 H   0  0  0  0  0  0  0  0  0  0  0  0
    8.4659   -1.8536    0.0000 H   0  0  0  0  0  0  0  0  0  0  0  0
    6.1367    4.0022    0.0000 H   0  0  0  0  0  0  0  0  0  0  0  0
    6.5352    3.3119    0.0000 H   0  0  0  0  0  0  0  0  0  0  0  0
    9.6698   -2.9376    0.0000 H   0  0  0  0  0  0  0  0  0  0  0  0
    2.5167    0.2471    0.0000 H   0  0  0  0  0  0  0  0  0  0  0  0
    9.3330   -4.5222    0.0000 H   0  0  0  0  0  0  0  0  0  0  0  0
    7.3579    4.7869    0.0000 H   0  0  0  0  0  0  0  0  0  0  0  0
    6.9593    5.4772    0.0000 H   0  0  0  0  0  0  0  0  0  0  0  0
    6.1913    5.9315    0.0000 H   0  0  0  0  0  0  0  0  0  0  0  0
    5.3443    5.7045    0.0000 H   0  0  0  0  0  0  0  0  0  0  0  0
    5.5713    4.8576    0.0000 H   0  0  0  0  0  0  0  0  0  0  0  0
   10.7483    3.5845    0.0000 H   0  0  0  0  0  0  0  0  0  0  0  0
    9.3454    6.0145    0.0000 H   0  0  0  0  0  0  0  0  0  0  0  0
   10.7483    5.2045    0.0000 H   0  0  0  0  0  0  0  0  0  0  0  0
  1 31  1  0  0  0  0
  2 27  1  0  0  0  0
  2 74  1  0  0  0  0
  3 27  2  0  0  0  0
  4 11  1  0  0  0  0
  4 12  1  0  0  0  0
  4 13  1  0  0  0  0
  5 15  1  0  0  0  0
  5 19  1  0  0  0  0
  5 20  1  0  0  0  0
  6 23  1  0  0  0  0
  6 30  1  0  0  0  0
  6 33  1  0  0  0  0
  7 33  2  0  0  0  0
  7 37  1  0  0  0  0
  8 33  1  0  0  0  0
  8 38  2  0  0  0  0
  9 10  1  0  0  0  0
  9 11  1  0  0  0  0
  9 15  1  6  0  0  0
  9 40  1  0  0  0  0
 10 12  1  0  0  0  0
 10 18  1  1  0  0  0
 10 41  1  0  0  0  0
 11 42  1  0  0  0  0
 11 43  1  0  0  0  0
 12 44  1  0  0  0  0
 12 45  1  0  0  0  0
 13 14  1  0  0  0  0
 13 27  1  6  0  0  0
 13 46  1  0  0  0  0
 14 16  1  0  0  0  0
 14 17  1  0  0  0  0
 14 47  1  0  0  0  0
 15 48  1  0  0  0  0
 15 49  1  0  0  0  0
 16 21  1  0  0  0  0
 16 50  1  0  0  0  0
 16 51  1  0  0  0  0
 17 22  1  0  0  0  0
 17 52  1  0  0  0  0
 17 53  1  0  0  0  0
 18 28  2  0  0  0  0
 18 29  1  0  0  0  0
 19 25  1  0  0  0  0
 19 54  1  0  0  0  0
 19 55  1  0  0  0  0
 20 26  1  0  0  0  0
 20 56  1  0  0  0  0
 20 57  1  0  0  0  0
 21 24  1  0  0  0  0
 21 58  1  0  0  0  0
 21 59  1  0  0  0  0
 22 24  1  0  0  0  0
 22 60  1  0  0  0  0
 22 61  1  0  0  0  0
 23 25  1  0  0  0  0
 23 26  1  0  0  0  0
 23 62  1  0  0  0  0
 24 63  1  0  0  0  0
 24 64  1  0  0  0  0
 25 65  1  0  0  0  0
 25 66  1  0  0  0  0
 26 67  1  0  0  0  0
 26 68  1  0  0  0  0
 28 31  1  0  0  0  0
 28 69  1  0  0  0  0
 29 32  2  0  0  0  0
 29 70  1  0  0  0  0
 30 35  1  0  0  0  0
 30 71  1  0  0  0  0
 30 72  1  0  0  0  0
 31 34  2  0  0  0  0
 32 34  1  0  0  0  0
 32 73  1  0  0  0  0
 34 75  1  0  0  0  0
 35 36  1  0  0  0  0
 35 76  1  0  0  0  0
 35 77  1  0  0  0  0
 36 78  1  0  0  0  0
 36 79  1  0  0  0  0
 36 80  1  0  0  0  0
 37 39  2  0  0  0  0
 37 81  1  0  0  0  0
 38 39  1  0  0  0  0
 38 82  1  0  0  0  0
 39 83  1  0  0  0  0
M  END
> <PUBCHEM_COMPOUND_CID>
505881
> <PUBCHEM_COMPOUND_CANONICALIZED>
1
> <PUBCHEM_CACTVS_COMPLEXITY>
753
> <PUBCHEM_CACTVS_HBOND_ACCEPTOR>
8
> <PUBCHEM_CACTVS_HBOND_DONOR>
1
> <PUBCHEM_CACTVS_ROTATABLE_BOND>
10
> <PUBCHEM_CACTVS_SUBSKEYS>
AAADcfB7sQAAAAAAAAAAAAAAAAAAAWAAAAA8eIEAAAAAAAABwAAAHwAACAAADSjBmgw/mJcIEgCoAjD3bACCgCkxAqAJ2CG4ZJiKKLLA2XGEZAgsgALYiCeYyOCOgAAAAAAAAAAAAAAAAAAAAAAAAAAAAA==
> <PUBCHEM_IUPAC_OPENEYE_NAME>
(2R)-2-cyclohexyl-2-[(3S,4S)-3-(3-fluorophenyl)-4-[[4-[propyl(pyrimidin-2-yl)amino]-1-piperidyl]methyl]pyrrolidin-1-yl]acetic acid
> <PUBCHEM_IUPAC_CAS_NAME>
(2R)-2-cyclohexyl-2-[(3S,4S)-3-(3-fluorophenyl)-4-[[4-[propyl(2-pyrimidinyl)amino]-1-piperidinyl]methyl]-1-pyrrolidinyl]acetic acid
> <PUBCHEM_IUPAC_NAME_MARKUP>
(2<I>R</I>)-2-cyclohexyl-2-[(3<I>S</I>,4<I>S</I>)-3-(3-fluorophenyl)-4-[[4-[propyl(pyrimidin-2-yl)amino]piperidin-1-yl]methyl]pyrrolidin-1-yl]acetic acid
> <PUBCHEM_IUPAC_NAME>
(2R)-2-cyclohexyl-2-[(3S,4S)-3-(3-fluorophenyl)-4-[[4-[propyl(pyrimidin-2-yl)amino]piperidin-1-yl]methyl]pyrrolidin-1-yl]acetic acid
> <PUBCHEM_IUPAC_SYSTEMATIC_NAME>
(2R)-2-cyclohexyl-2-[(3S,4S)-3-(3-fluorophenyl)-4-[[4-[propyl(pyrimidin-2-yl)amino]piperidin-1-yl]methyl]pyrrolidin-1-yl]ethanoic acid
> <PUBCHEM_IUPAC_TRADITIONAL_NAME>
(2R)-2-cyclohexyl-2-[(3S,4S)-3-(3-fluorophenyl)-4-[[4-[propyl(2-pyrimidyl)amino]piperidino]methyl]pyrrolidino]acetic acid
> <PUBCHEM_IUPAC_INCHI>
InChI=1S/C31H44FN5O2/c1-2-16-37(31-33-14-7-15-34-31)27-12-17-35(18-13-27)20-25-21-36(22-28(25)24-10-6-11-26(32)19-24)29(30(38)39)23-8-4-3-5-9-23/h6-7,10-11,14-15,19,23,25,27-29H,2-5,8-9,12-13,16-18,20-22H2,1H3,(H,38,39)/t25-,28+,29+/m0/s1
> <PUBCHEM_IUPAC_INCHIKEY>
FEKRAPQYYVJDCN-RFYMFKDESA-N
> <PUBCHEM_XLOGP3_AA>
3.8
> <PUBCHEM_EXACT_MASS>
537.34790383
> <PUBCHEM_MOLECULAR_FORMULA>
C31H44FN5O2
> <PUBCHEM_MOLECULAR_WEIGHT>
537.7
> <PUBCHEM_OPENEYE_CAN_SMILES>
CCCN(C1CCN(CC1)CC2CN(CC2C3=CC(=CC=C3)F)C(C4CCCCC4)C(=O)O)C5=NC=CC=N5
> <PUBCHEM_OPENEYE_ISO_SMILES>
CCCN(C1CCN(CC1)C[C@H]2CN(C[C@@H]2C3=CC(=CC=C3)F)[C@H](C4CCCCC4)C(=O)O)C5=NC=CC=N5
> <PUBCHEM_CACTVS_TPSA>
72.8
> <PUBCHEM_MONOISOTOPIC_WEIGHT>
537.34790383
> <PUBCHEM_TOTAL_CHARGE>
0
> <PUBCHEM_HEAVY_ATOM_COUNT>
39
> <PUBCHEM_ATOM_DEF_STEREO_COUNT>
3
> <PUBCHEM_ATOM_UDEF_STEREO_COUNT>
0
> <PUBCHEM_BOND_DEF_STEREO_COUNT>
0
> <PUBCHEM_BOND_UDEF_STEREO_COUNT>
0
> <PUBCHEM_ISOTOPIC_ATOM_COUNT>
0
> <PUBCHEM_COMPONENT_COUNT>
1
> <PUBCHEM_CACTVS_TAUTO_COUNT>
-1
> <PUBCHEM_COORDINATE_TYPE>
1
5
255
> <PUBCHEM_BONDANNOTATIONS>
10  18  5
13  27  6
18  28  8
18  29  8
28  31  8
29  32  8
31  34  8
32  34  8
37  39  8
38  39  8
7  33  8
7  37  8
8  33  8
8  38  8
9  15  6
$$$$
