505864
  -OEChem-10302200282D
 50 53  0     1  0  0  0  0  0999 V2000
    8.0511    1.9008    0.0000 O   0  0  0  0  0  0  0  0  0  0  0  0
    8.9097   -2.3266    0.0000 O   0  0  0  0  0  0  0  0  0  0  0  0
    8.5496   -0.6324    0.0000 N   0  0  0  0  0  0  0  0  0  0  0  0
    9.8368    0.5265    0.0000 N   0  0  0  0  0  0  0  0  0  0  0  0
   11.9023   -1.7437    0.0000 N   0  0  0  0  0  0  0  0  0  0  0  0
    4.5634   -0.0034    0.0000 C   0  0  3  0  0  0  0  0  0  0  0  0
    3.8907   -0.7434    0.0000 C   0  0  0  0  0  0  0  0  0  0  0  0
    4.2588    0.9491    0.0000 C   0  0  0  0  0  0  0  0  0  0  0  0
    5.5405   -0.2159    0.0000 C   0  0  0  0  0  0  0  0  0  0  0  0
    3.2817    1.1616    0.0000 C   0  0  0  0  0  0  0  0  0  0  0  0
    2.9136   -0.5309    0.0000 C   0  0  0  0  0  0  0  0  0  0  0  0
    4.1952   -1.6959    0.0000 C   0  0  0  0  0  0  0  0  0  0  0  0
    6.2400    0.5476    0.0000 C   0  0  0  0  0  0  0  0  0  0  0  0
    7.2492    0.3158    0.0000 C   0  0  0  0  0  0  0  0  0  0  0  0
    5.8596   -1.2010    0.0000 C   0  0  0  0  0  0  0  0  0  0  0  0
    7.5555   -0.6299    0.0000 C   0  0  0  0  0  0  0  0  0  0  0  0
    2.9772    2.1141    0.0000 C   0  0  0  0  0  0  0  0  0  0  0  0
    6.8739   -1.4094    0.0000 C   0  0  0  0  0  0  0  0  0  0  0  0
    8.0529    0.9008    0.0000 C   0  0  0  0  0  0  0  0  0  0  0  0
    8.8586    0.3186    0.0000 C   0  0  0  0  0  0  0  0  0  0  0  0
    2.0000    2.3266    0.0000 C   0  0  0  0  0  0  0  0  0  0  0  0
    9.2187   -1.3756    0.0000 C   0  0  0  0  0  0  0  0  0  0  0  0
   10.1969   -1.1677    0.0000 C   0  0  0  0  0  0  0  0  0  0  0  0
   10.5059   -0.2166    0.0000 C   0  0  0  0  0  0  0  0  0  0  0  0
   10.8818   -1.9524    0.0000 C   0  0  0  0  0  0  0  0  0  0  0  0
   11.5213    0.0156    0.0000 C   0  0  0  0  0  0  0  0  0  0  0  0
   12.2242   -0.7530    0.0000 C   0  0  0  0  0  0  0  0  0  0  0  0
    4.9804    0.4554    0.0000 H   0  0  0  0  0  0  0  0  0  0  0  0
    3.4737   -1.2022    0.0000 H   0  0  0  0  0  0  0  0  0  0  0  0
    4.8732    1.0325    0.0000 H   0  0  0  0  0  0  0  0  0  0  0  0
    4.2834    1.5686    0.0000 H   0  0  0  0  0  0  0  0  0  0  0  0
    2.6673    1.0782    0.0000 H   0  0  0  0  0  0  0  0  0  0  0  0
    3.2571    0.5421    0.0000 H   0  0  0  0  0  0  0  0  0  0  0  0
    3.0453    0.0750    0.0000 H   0  0  0  0  0  0  0  0  0  0  0  0
    2.3077   -0.3991    0.0000 H   0  0  0  0  0  0  0  0  0  0  0  0
    2.7818   -1.1367    0.0000 H   0  0  0  0  0  0  0  0  0  0  0  0
    3.6047   -1.8847    0.0000 H   0  0  0  0  0  0  0  0  0  0  0  0
    4.3841   -2.2865    0.0000 H   0  0  0  0  0  0  0  0  0  0  0  0
    4.7858   -1.5071    0.0000 H   0  0  0  0  0  0  0  0  0  0  0  0
    6.0557    1.1396    0.0000 H   0  0  0  0  0  0  0  0  0  0  0  0
    5.4462   -1.6630    0.0000 H   0  0  0  0  0  0  0  0  0  0  0  0
    3.5915    2.1975    0.0000 H   0  0  0  0  0  0  0  0  0  0  0  0
    3.0017    2.7336    0.0000 H   0  0  0  0  0  0  0  0  0  0  0  0
    7.0718   -1.9969    0.0000 H   0  0  0  0  0  0  0  0  0  0  0  0
    2.1318    2.9325    0.0000 H   0  0  0  0  0  0  0  0  0  0  0  0
    1.3942    2.4584    0.0000 H   0  0  0  0  0  0  0  0  0  0  0  0
    1.8682    1.7208    0.0000 H   0  0  0  0  0  0  0  0  0  0  0  0
   10.6834   -2.5398    0.0000 H   0  0  0  0  0  0  0  0  0  0  0  0
   11.7061    0.6075    0.0000 H   0  0  0  0  0  0  0  0  0  0  0  0
   12.8302   -0.6218    0.0000 H   0  0  0  0  0  0  0  0  0  0  0  0
  1 19  2  0  0  0  0
  2 22  2  0  0  0  0
  3 16  1  0  0  0  0
  3 20  1  0  0  0  0
  3 22  1  0  0  0  0
  4 20  2  0  0  0  0
  4 24  1  0  0  0  0
  5 25  2  0  0  0  0
  5 27  1  0  0  0  0
  6  7  1  0  0  0  0
  6  8  1  0  0  0  0
  6  9  1  0  0  0  0
  6 28  1  0  0  0  0
  7 11  1  0  0  0  0
  7 12  1  0  0  0  0
  7 29  1  0  0  0  0
  8 10  1  0  0  0  0
  8 30  1  0  0  0  0
  8 31  1  0  0  0  0
  9 13  2  0  0  0  0
  9 15  1  0  0  0  0
 10 17  1  0  0  0  0
 10 32  1  0  0  0  0
 10 33  1  0  0  0  0
 11 34  1  0  0  0  0
 11 35  1  0  0  0  0
 11 36  1  0  0  0  0
 12 37  1  0  0  0  0
 12 38  1  0  0  0  0
 12 39  1  0  0  0  0
 13 14  1  0  0  0  0
 13 40  1  0  0  0  0
 14 16  2  0  0  0  0
 14 19  1  0  0  0  0
 15 18  2  0  0  0  0
 15 41  1  0  0  0  0
 16 18  1  0  0  0  0
 17 21  1  0  0  0  0
 17 42  1  0  0  0  0
 17 43  1  0  0  0  0
 18 44  1  0  0  0  0
 19 20  1  0  0  0  0
 21 45  1  0  0  0  0
 21 46  1  0  0  0  0
 21 47  1  0  0  0  0
 22 23  1  0  0  0  0
 23 24  2  0  0  0  0
 23 25  1  0  0  0  0
 24 26  1  0  0  0  0
 25 48  1  0  0  0  0
 26 27  2  0  0  0  0
 26 49  1  0  0  0  0
 27 50  1  0  0  0  0
M  END
> <PUBCHEM_COMPOUND_CID>
505864
> <PUBCHEM_COMPOUND_CANONICALIZED>
1
> <PUBCHEM_CACTVS_COMPLEXITY>
629
> <PUBCHEM_CACTVS_HBOND_ACCEPTOR>
4
> <PUBCHEM_CACTVS_HBOND_DONOR>
0
> <PUBCHEM_CACTVS_ROTATABLE_BOND>
5
> <PUBCHEM_CACTVS_SUBSKEYS>
AAADceB7MAAAAAAAAAAAAAAAAAAAAWAAAAA8QIAAAAAAAFiBwAAAHgAAAAAADQzBmgQ/wJMIEACoArd3dACCgCE1AiAJ2CG4ZNgIIHrA3fGEJYhghADIyccYicCOiAACAAACAAAQAAQAAAQAAAAAAAAAAA==
> <PUBCHEM_IUPAC_OPENEYE_NAME>
14-(1-isopropylpentyl)-2,6,10-triazatetracyclo[8.7.0.03,8.011,16]heptadeca-1,3(8),4,6,11(16),12,14-heptaene-9,17-dione
> <PUBCHEM_IUPAC_CAS_NAME>
14-(2-methylheptan-3-yl)-2,6,10-triazatetracyclo[8.7.0.03,8.011,16]heptadeca-1,3(8),4,6,11(16),12,14-heptaene-9,17-dione
> <PUBCHEM_IUPAC_NAME_MARKUP>
14-(2-methylheptan-3-yl)-2,6,10-triazatetracyclo[8.7.0.0<SUP>3,8</SUP>.0<SUP>11,16</SUP>]heptadeca-1,3(8),4,6,11(16),12,14-heptaene-9,17-dione
> <PUBCHEM_IUPAC_NAME>
14-(2-methylheptan-3-yl)-2,6,10-triazatetracyclo[8.7.0.03,8.011,16]heptadeca-1,3(8),4,6,11(16),12,14-heptaene-9,17-dione
> <PUBCHEM_IUPAC_SYSTEMATIC_NAME>
14-(2-methylheptan-3-yl)-2,6,10-triazatetracyclo[8.7.0.03,8.011,16]heptadeca-1,3(8),4,6,11(16),12,14-heptaene-9,17-dione
> <PUBCHEM_IUPAC_TRADITIONAL_NAME>
14-(1-isopropylpentyl)-2,6,10-triazatetracyclo[8.7.0.03,8.011,16]heptadeca-1,3(8),4,6,11(16),12,14-heptaene-9,17-quinone
> <PUBCHEM_IUPAC_INCHI>
InChI=1S/C22H23N3O2/c1-4-5-6-15(13(2)3)14-7-8-19-16(11-14)20(26)21-24-18-9-10-23-12-17(18)22(27)25(19)21/h7-13,15H,4-6H2,1-3H3
> <PUBCHEM_IUPAC_INCHIKEY>
MECAHMGFOGNTEG-UHFFFAOYSA-N
> <PUBCHEM_XLOGP3_AA>
4.5
> <PUBCHEM_EXACT_MASS>
361.17902698
> <PUBCHEM_MOLECULAR_FORMULA>
C22H23N3O2
> <PUBCHEM_MOLECULAR_WEIGHT>
361.4
> <PUBCHEM_OPENEYE_CAN_SMILES>
CCCCC(C1=CC2=C(C=C1)N3C(=NC4=C(C3=O)C=NC=C4)C2=O)C(C)C
> <PUBCHEM_OPENEYE_ISO_SMILES>
CCCCC(C1=CC2=C(C=C1)N3C(=NC4=C(C3=O)C=NC=C4)C2=O)C(C)C
> <PUBCHEM_CACTVS_TPSA>
62.6
> <PUBCHEM_MONOISOTOPIC_WEIGHT>
361.17902698
> <PUBCHEM_TOTAL_CHARGE>
0
> <PUBCHEM_HEAVY_ATOM_COUNT>
27
> <PUBCHEM_ATOM_DEF_STEREO_COUNT>
0
> <PUBCHEM_ATOM_UDEF_STEREO_COUNT>
1
> <PUBCHEM_BOND_DEF_STEREO_COUNT>
0
> <PUBCHEM_BOND_UDEF_STEREO_COUNT>
0
> <PUBCHEM_ISOTOPIC_ATOM_COUNT>
0
> <PUBCHEM_COMPONENT_COUNT>
1
> <PUBCHEM_CACTVS_TAUTO_COUNT>
-1
> <PUBCHEM_COORDINATE_TYPE>
1
5
255
> <PUBCHEM_BONDANNOTATIONS>
13  14  8
14  16  8
15  18  8
16  18  8
22  23  8
23  24  8
23  25  8
24  26  8
26  27  8
3  20  8
3  22  8
4  20  8
4  24  8
5  25  8
5  27  8
6  8  3
9  13  8
9  15  8
$$$$
