505865
  -OEChem-10302200282D
 74 78  0     1  0  0  0  0  0999 V2000
    2.1810   -1.6174    0.0000 Cl  0  0  0  0  0  0  0  0  0  0  0  0
    3.7634   -0.9129    0.0000 O   0  0  0  0  0  0  0  0  0  0  0  0
    7.6133   -0.0945    0.0000 N   0  0  0  0  0  0  0  0  0  0  0  0
    5.1646   -1.9309    0.0000 N   0  0  0  0  0  0  0  0  0  0  0  0
    7.6133    2.9055    0.0000 N   0  0  3  0  0  0  0  0  0  0  0  0
    8.4793    4.4055    0.0000 N   0  0  0  0  0  0  0  0  0  0  0  0
    6.7473   -1.5945    0.0000 C   0  0  1  0  0  0  0  0  0  0  0  0
    6.6428   -2.5891    0.0000 C   0  0  2  0  0  0  0  0  0  0  0  0
    7.6133   -1.0945    0.0000 C   0  0  0  0  0  0  0  0  0  0  0  0
    5.8338   -1.1878    0.0000 C   0  0  0  0  0  0  0  0  0  0  0  0
    5.6646   -2.7970    0.0000 C   0  0  0  0  0  0  0  0  0  0  0  0
    7.6133    1.9055    0.0000 C   0  0  0  0  0  0  0  0  0  0  0  0
    6.7473    0.4055    0.0000 C   0  0  0  0  0  0  0  0  0  0  0  0
    8.4793    0.4055    0.0000 C   0  0  0  0  0  0  0  0  0  0  0  0
    6.7473    1.4055    0.0000 C   0  0  0  0  0  0  0  0  0  0  0  0
    8.4793    1.4055    0.0000 C   0  0  0  0  0  0  0  0  0  0  0  0
    7.3859   -3.2582    0.0000 C   0  0  0  0  0  0  0  0  0  0  0  0
    4.1701   -1.8264    0.0000 C   0  0  0  0  0  0  0  0  0  0  0  0
    6.7473    3.4055    0.0000 C   0  0  0  0  0  0  0  0  0  0  0  0
    7.1780   -4.2363    0.0000 C   0  0  0  0  0  0  0  0  0  0  0  0
    8.3370   -2.9492    0.0000 C   0  0  0  0  0  0  0  0  0  0  0  0
    8.4793    3.4055    0.0000 C   0  0  0  0  0  0  0  0  0  0  0  0
    3.5823   -2.6354    0.0000 C   0  0  0  0  0  0  0  0  0  0  0  0
    6.7473    4.4055    0.0000 C   0  0  0  0  0  0  0  0  0  0  0  0
    7.9211   -4.9055    0.0000 C   0  0  0  0  0  0  0  0  0  0  0  0
    9.0801   -3.6183    0.0000 C   0  0  0  0  0  0  0  0  0  0  0  0
    8.8722   -4.5964    0.0000 C   0  0  0  0  0  0  0  0  0  0  0  0
    9.3454    2.9055    0.0000 C   0  0  0  0  0  0  0  0  0  0  0  0
    2.5878   -2.5309    0.0000 C   0  0  0  0  0  0  0  0  0  0  0  0
    3.9890   -3.5490    0.0000 C   0  0  0  0  0  0  0  0  0  0  0  0
    5.8813    4.9055    0.0000 C   0  0  0  0  0  0  0  0  0  0  0  0
   10.2114    3.4055    0.0000 C   0  0  0  0  0  0  0  0  0  0  0  0
    2.0000   -3.3399    0.0000 C   0  0  0  0  0  0  0  0  0  0  0  0
    3.4013   -4.3580    0.0000 C   0  0  0  0  0  0  0  0  0  0  0  0
    9.3454    4.9055    0.0000 C   0  0  0  0  0  0  0  0  0  0  0  0
   10.2114    4.4055    0.0000 C   0  0  0  0  0  0  0  0  0  0  0  0
    2.4067   -4.2535    0.0000 C   0  0  0  0  0  0  0  0  0  0  0  0
    7.2673   -1.9322    0.0000 H   0  0  0  0  0  0  0  0  0  0  0  0
    6.4823   -3.1879    0.0000 H   0  0  0  0  0  0  0  0  0  0  0  0
    7.8254   -1.6771    0.0000 H   0  0  0  0  0  0  0  0  0  0  0  0
    8.2239   -0.9869    0.0000 H   0  0  0  0  0  0  0  0  0  0  0  0
    6.1437   -0.6509    0.0000 H   0  0  0  0  0  0  0  0  0  0  0  0
    5.3322   -0.8234    0.0000 H   0  0  0  0  0  0  0  0  0  0  0  0
    5.0982   -3.0491    0.0000 H   0  0  0  0  0  0  0  0  0  0  0  0
    5.8562   -3.3866    0.0000 H   0  0  0  0  0  0  0  0  0  0  0  0
    7.0764    2.2155    0.0000 H   0  0  0  0  0  0  0  0  0  0  0  0
    6.1367    0.5131    0.0000 H   0  0  0  0  0  0  0  0  0  0  0  0
    6.5352   -0.1771    0.0000 H   0  0  0  0  0  0  0  0  0  0  0  0
    8.6914   -0.1771    0.0000 H   0  0  0  0  0  0  0  0  0  0  0  0
    9.0899    0.5131    0.0000 H   0  0  0  0  0  0  0  0  0  0  0  0
    6.5352    1.9881    0.0000 H   0  0  0  0  0  0  0  0  0  0  0  0
    6.1367    1.2978    0.0000 H   0  0  0  0  0  0  0  0  0  0  0  0
    9.0899    1.2978    0.0000 H   0  0  0  0  0  0  0  0  0  0  0  0
    8.6914    1.9881    0.0000 H   0  0  0  0  0  0  0  0  0  0  0  0
    6.1367    3.5131    0.0000 H   0  0  0  0  0  0  0  0  0  0  0  0
    6.5352    2.8229    0.0000 H   0  0  0  0  0  0  0  0  0  0  0  0
    6.5883   -4.4279    0.0000 H   0  0  0  0  0  0  0  0  0  0  0  0
    8.4659   -2.3427    0.0000 H   0  0  0  0  0  0  0  0  0  0  0  0
    7.3579    4.2978    0.0000 H   0  0  0  0  0  0  0  0  0  0  0  0
    6.9593    4.9881    0.0000 H   0  0  0  0  0  0  0  0  0  0  0  0
    7.7922   -5.5119    0.0000 H   0  0  0  0  0  0  0  0  0  0  0  0
    9.6698   -3.4267    0.0000 H   0  0  0  0  0  0  0  0  0  0  0  0
    9.3330   -5.0113    0.0000 H   0  0  0  0  0  0  0  0  0  0  0  0
    9.3454    2.2855    0.0000 H   0  0  0  0  0  0  0  0  0  0  0  0
    4.6056   -3.6138    0.0000 H   0  0  0  0  0  0  0  0  0  0  0  0
    6.1913    5.4424    0.0000 H   0  0  0  0  0  0  0  0  0  0  0  0
    5.3443    5.2155    0.0000 H   0  0  0  0  0  0  0  0  0  0  0  0
    5.5713    4.3685    0.0000 H   0  0  0  0  0  0  0  0  0  0  0  0
   10.7483    3.0955    0.0000 H   0  0  0  0  0  0  0  0  0  0  0  0
    9.3454    5.5255    0.0000 H   0  0  0  0  0  0  0  0  0  0  0  0
    1.3834   -3.2751    0.0000 H   0  0  0  0  0  0  0  0  0  0  0  0
    3.6534   -4.9244    0.0000 H   0  0  0  0  0  0  0  0  0  0  0  0
   10.7483    4.7155    0.0000 H   0  0  0  0  0  0  0  0  0  0  0  0
    2.0423   -4.7551    0.0000 H   0  0  0  0  0  0  0  0  0  0  0  0
  1 29  1  0  0  0  0
  2 18  2  0  0  0  0
  3  9  1  0  0  0  0
  3 13  1  0  0  0  0
  3 14  1  0  0  0  0
  4 10  1  0  0  0  0
  4 11  1  0  0  0  0
  4 18  1  0  0  0  0
  5 12  1  0  0  0  0
  5 19  1  0  0  0  0
  5 22  1  0  0  0  0
  6 22  1  0  0  0  0
  6 35  2  0  0  0  0
  7  8  1  0  0  0  0
  7  9  1  6  0  0  0
  7 10  1  0  0  0  0
  7 38  1  0  0  0  0
  8 11  1  0  0  0  0
  8 17  1  1  0  0  0
  8 39  1  0  0  0  0
  9 40  1  0  0  0  0
  9 41  1  0  0  0  0
 10 42  1  0  0  0  0
 10 43  1  0  0  0  0
 11 44  1  0  0  0  0
 11 45  1  0  0  0  0
 12 15  1  0  0  0  0
 12 16  1  0  0  0  0
 12 46  1  0  0  0  0
 13 15  1  0  0  0  0
 13 47  1  0  0  0  0
 13 48  1  0  0  0  0
 14 16  1  0  0  0  0
 14 49  1  0  0  0  0
 14 50  1  0  0  0  0
 15 51  1  0  0  0  0
 15 52  1  0  0  0  0
 16 53  1  0  0  0  0
 16 54  1  0  0  0  0
 17 20  2  0  0  0  0
 17 21  1  0  0  0  0
 18 23  1  0  0  0  0
 19 24  1  0  0  0  0
 19 55  1  0  0  0  0
 19 56  1  0  0  0  0
 20 25  1  0  0  0  0
 20 57  1  0  0  0  0
 21 26  2  0  0  0  0
 21 58  1  0  0  0  0
 22 28  2  0  0  0  0
 23 29  1  0  0  0  0
 23 30  2  0  0  0  0
 24 31  1  0  0  0  0
 24 59  1  0  0  0  0
 24 60  1  0  0  0  0
 25 27  2  0  0  0  0
 25 61  1  0  0  0  0
 26 27  1  0  0  0  0
 26 62  1  0  0  0  0
 27 63  1  0  0  0  0
 28 32  1  0  0  0  0
 28 64  1  0  0  0  0
 29 33  2  0  0  0  0
 30 34  1  0  0  0  0
 30 65  1  0  0  0  0
 31 66  1  0  0  0  0
 31 67  1  0  0  0  0
 31 68  1  0  0  0  0
 32 36  2  0  0  0  0
 32 69  1  0  0  0  0
 33 37  1  0  0  0  0
 33 71  1  0  0  0  0
 34 37  2  0  0  0  0
 34 72  1  0  0  0  0
 35 36  1  0  0  0  0
 35 70  1  0  0  0  0
 36 73  1  0  0  0  0
 37 74  1  0  0  0  0
M  END
> <PUBCHEM_COMPOUND_CID>
505865
> <PUBCHEM_COMPOUND_CANONICALIZED>
1
> <PUBCHEM_CACTVS_COMPLEXITY>
707
> <PUBCHEM_CACTVS_HBOND_ACCEPTOR>
4
> <PUBCHEM_CACTVS_HBOND_DONOR>
0
> <PUBCHEM_CACTVS_ROTATABLE_BOND>
8
> <PUBCHEM_CACTVS_SUBSKEYS>
AAADcfB7oAAEAAAAAAAAAAAAAAAAAWAAAAA8eIEAAAAAAAAB0AAAHgIAAAAADSrBmiQ/sJMIEACoAjN3dACCgCk1ByAJ2CE4ZtiIIPLB35GEIQhohgLIzacYiMCOgAAAAAABAAAAAAAAAAIAAAAAAAAAAA==
> <PUBCHEM_IUPAC_OPENEYE_NAME>
(2-chlorophenyl)-[(3S,4S)-3-phenyl-4-[[4-[propyl(2-pyridyl)amino]-1-piperidyl]methyl]pyrrolidin-1-yl]methanone
> <PUBCHEM_IUPAC_CAS_NAME>
(2-chlorophenyl)-[(3S,4S)-3-phenyl-4-[[4-[propyl(2-pyridinyl)amino]-1-piperidinyl]methyl]-1-pyrrolidinyl]methanone
> <PUBCHEM_IUPAC_NAME_MARKUP>
(2-chlorophenyl)-[(3<I>S</I>,4<I>S</I>)-3-phenyl-4-[[4-[propyl(pyridin-2-yl)amino]piperidin-1-yl]methyl]pyrrolidin-1-yl]methanone
> <PUBCHEM_IUPAC_NAME>
(2-chlorophenyl)-[(3S,4S)-3-phenyl-4-[[4-[propyl(pyridin-2-yl)amino]piperidin-1-yl]methyl]pyrrolidin-1-yl]methanone
> <PUBCHEM_IUPAC_SYSTEMATIC_NAME>
(2-chlorophenyl)-[(3S,4S)-3-phenyl-4-[[4-[propyl(pyridin-2-yl)amino]piperidin-1-yl]methyl]pyrrolidin-1-yl]methanone
> <PUBCHEM_IUPAC_TRADITIONAL_NAME>
(2-chlorophenyl)-[(3S,4S)-3-phenyl-4-[[4-[propyl(2-pyridyl)amino]piperidino]methyl]pyrrolidino]methanone
> <PUBCHEM_IUPAC_INCHI>
InChI=1S/C31H37ClN4O/c1-2-18-36(30-14-8-9-17-33-30)26-15-19-34(20-16-26)21-25-22-35(23-28(25)24-10-4-3-5-11-24)31(37)27-12-6-7-13-29(27)32/h3-14,17,25-26,28H,2,15-16,18-23H2,1H3/t25-,28+/m0/s1
> <PUBCHEM_IUPAC_INCHIKEY>
IAIPKBDOARAZEA-LBNVMWSVSA-N
> <PUBCHEM_XLOGP3_AA>
6.4
> <PUBCHEM_EXACT_MASS>
516.2655895
> <PUBCHEM_MOLECULAR_FORMULA>
C31H37ClN4O
> <PUBCHEM_MOLECULAR_WEIGHT>
517.1
> <PUBCHEM_OPENEYE_CAN_SMILES>
CCCN(C1CCN(CC1)CC2CN(CC2C3=CC=CC=C3)C(=O)C4=CC=CC=C4Cl)C5=CC=CC=N5
> <PUBCHEM_OPENEYE_ISO_SMILES>
CCCN(C1CCN(CC1)C[C@H]2CN(C[C@@H]2C3=CC=CC=C3)C(=O)C4=CC=CC=C4Cl)C5=CC=CC=N5
> <PUBCHEM_CACTVS_TPSA>
39.7
> <PUBCHEM_MONOISOTOPIC_WEIGHT>
516.2655895
> <PUBCHEM_TOTAL_CHARGE>
0
> <PUBCHEM_HEAVY_ATOM_COUNT>
37
> <PUBCHEM_ATOM_DEF_STEREO_COUNT>
2
> <PUBCHEM_ATOM_UDEF_STEREO_COUNT>
0
> <PUBCHEM_BOND_DEF_STEREO_COUNT>
0
> <PUBCHEM_BOND_UDEF_STEREO_COUNT>
0
> <PUBCHEM_ISOTOPIC_ATOM_COUNT>
0
> <PUBCHEM_COMPONENT_COUNT>
1
> <PUBCHEM_CACTVS_TAUTO_COUNT>
-1
> <PUBCHEM_COORDINATE_TYPE>
1
5
255
> <PUBCHEM_BONDANNOTATIONS>
17  20  8
17  21  8
20  25  8
21  26  8
22  28  8
23  29  8
23  30  8
25  27  8
26  27  8
28  32  8
29  33  8
30  34  8
32  36  8
33  37  8
34  37  8
35  36  8
6  22  8
6  35  8
7  9  6
8  17  5
$$$$
