505879
  -OEChem-10302200282D
 84 88  0     1  0  0  0  0  0999 V2000
    2.3644   -2.5309    0.0000 O   0  0  0  0  0  0  0  0  0  0  0  0
    3.7657   -3.5490    0.0000 O   0  0  0  0  0  0  0  0  0  0  0  0
    4.9413   -1.9309    0.0000 N   0  0  3  0  0  0  0  0  0  0  0  0
    7.3900   -0.0945    0.0000 N   0  0  0  0  0  0  0  0  0  0  0  0
    7.3900    2.9055    0.0000 N   0  0  3  0  0  0  0  0  0  0  0  0
    9.1220    4.9055    0.0000 N   0  0  0  0  0  0  0  0  0  0  0  0
    6.5239   -1.5945    0.0000 C   0  0  2  0  0  0  0  0  0  0  0  0
    6.4194   -2.5891    0.0000 C   0  0  2  0  0  0  0  0  0  0  0  0
    5.6104   -1.1878    0.0000 C   0  0  0  0  0  0  0  0  0  0  0  0
    5.4413   -2.7970    0.0000 C   0  0  0  0  0  0  0  0  0  0  0  0
    3.9467   -1.8264    0.0000 C   0  0  2  0  0  0  0  0  0  0  0  0
    3.5400   -0.9129    0.0000 C   0  0  0  0  0  0  0  0  0  0  0  0
    7.3900   -1.0945    0.0000 C   0  0  0  0  0  0  0  0  0  0  0  0
    2.5455   -0.8083    0.0000 C   0  0  0  0  0  0  0  0  0  0  0  0
    4.1278   -0.1039    0.0000 C   0  0  0  0  0  0  0  0  0  0  0  0
    7.1626   -3.2582    0.0000 C   0  0  0  0  0  0  0  0  0  0  0  0
    6.5239    0.4055    0.0000 C   0  0  0  0  0  0  0  0  0  0  0  0
    8.2560    0.4055    0.0000 C   0  0  0  0  0  0  0  0  0  0  0  0
    2.1387    0.1052    0.0000 C   0  0  0  0  0  0  0  0  0  0  0  0
    3.7210    0.8097    0.0000 C   0  0  0  0  0  0  0  0  0  0  0  0
    7.3900    1.9055    0.0000 C   0  0  0  0  0  0  0  0  0  0  0  0
    6.5239    1.4055    0.0000 C   0  0  0  0  0  0  0  0  0  0  0  0
    8.2560    1.4055    0.0000 C   0  0  0  0  0  0  0  0  0  0  0  0
    2.7265    0.9142    0.0000 C   0  0  0  0  0  0  0  0  0  0  0  0
    3.3590   -2.6354    0.0000 C   0  0  0  0  0  0  0  0  0  0  0  0
    6.9546   -4.2363    0.0000 C   0  0  0  0  0  0  0  0  0  0  0  0
    8.1136   -2.9492    0.0000 C   0  0  0  0  0  0  0  0  0  0  0  0
    6.5239    3.4055    0.0000 C   0  0  0  0  0  0  0  0  0  0  0  0
    7.6978   -4.9055    0.0000 C   0  0  0  0  0  0  0  0  0  0  0  0
    8.8568   -3.6183    0.0000 C   0  0  0  0  0  0  0  0  0  0  0  0
    8.2560    3.4055    0.0000 C   0  0  0  0  0  0  0  0  0  0  0  0
    8.6488   -4.5964    0.0000 C   0  0  0  0  0  0  0  0  0  0  0  0
    6.5239    4.4055    0.0000 C   0  0  0  0  0  0  0  0  0  0  0  0
    9.1220    2.9055    0.0000 C   0  0  0  0  0  0  0  0  0  0  0  0
    8.2560    4.4055    0.0000 C   0  0  0  0  0  0  0  0  0  0  0  0
    5.6579    4.9055    0.0000 C   0  0  0  0  0  0  0  0  0  0  0  0
    9.9880    3.4055    0.0000 C   0  0  0  0  0  0  0  0  0  0  0  0
    9.9880    4.4055    0.0000 C   0  0  0  0  0  0  0  0  0  0  0  0
    6.4915   -0.9754    0.0000 H   0  0  0  0  0  0  0  0  0  0  0  0
    6.2589   -3.1879    0.0000 H   0  0  0  0  0  0  0  0  0  0  0  0
    5.9204   -0.6509    0.0000 H   0  0  0  0  0  0  0  0  0  0  0  0
    5.1088   -0.8234    0.0000 H   0  0  0  0  0  0  0  0  0  0  0  0
    4.8749   -3.0491    0.0000 H   0  0  0  0  0  0  0  0  0  0  0  0
    5.6328   -3.3866    0.0000 H   0  0  0  0  0  0  0  0  0  0  0  0
    4.1989   -2.3928    0.0000 H   0  0  0  0  0  0  0  0  0  0  0  0
    3.1756   -1.4145    0.0000 H   0  0  0  0  0  0  0  0  0  0  0  0
    7.6020   -1.6771    0.0000 H   0  0  0  0  0  0  0  0  0  0  0  0
    8.0005   -0.9869    0.0000 H   0  0  0  0  0  0  0  0  0  0  0  0
    1.9439   -0.9583    0.0000 H   0  0  0  0  0  0  0  0  0  0  0  0
    2.5887   -1.4268    0.0000 H   0  0  0  0  0  0  0  0  0  0  0  0
    4.5585   -0.5498    0.0000 H   0  0  0  0  0  0  0  0  0  0  0  0
    4.6418    0.2428    0.0000 H   0  0  0  0  0  0  0  0  0  0  0  0
    5.9134    0.5131    0.0000 H   0  0  0  0  0  0  0  0  0  0  0  0
    6.3119   -0.1771    0.0000 H   0  0  0  0  0  0  0  0  0  0  0  0
    8.4680   -0.1771    0.0000 H   0  0  0  0  0  0  0  0  0  0  0  0
    8.8666    0.5131    0.0000 H   0  0  0  0  0  0  0  0  0  0  0  0
    1.7080    0.5512    0.0000 H   0  0  0  0  0  0  0  0  0  0  0  0
    1.6247   -0.2415    0.0000 H   0  0  0  0  0  0  0  0  0  0  0  0
    4.3226    0.9597    0.0000 H   0  0  0  0  0  0  0  0  0  0  0  0
    3.6778    1.4282    0.0000 H   0  0  0  0  0  0  0  0  0  0  0  0
    7.9269    2.2155    0.0000 H   0  0  0  0  0  0  0  0  0  0  0  0
    6.3119    1.9881    0.0000 H   0  0  0  0  0  0  0  0  0  0  0  0
    5.9134    1.2978    0.0000 H   0  0  0  0  0  0  0  0  0  0  0  0
    8.8666    1.2978    0.0000 H   0  0  0  0  0  0  0  0  0  0  0  0
    8.4680    1.9881    0.0000 H   0  0  0  0  0  0  0  0  0  0  0  0
    2.8974    1.5102    0.0000 H   0  0  0  0  0  0  0  0  0  0  0  0
    2.1693    1.1860    0.0000 H   0  0  0  0  0  0  0  0  0  0  0  0
    6.3650   -4.4279    0.0000 H   0  0  0  0  0  0  0  0  0  0  0  0
    8.2425   -2.3427    0.0000 H   0  0  0  0  0  0  0  0  0  0  0  0
    5.9134    3.5131    0.0000 H   0  0  0  0  0  0  0  0  0  0  0  0
    6.3119    2.8229    0.0000 H   0  0  0  0  0  0  0  0  0  0  0  0
    7.5689   -5.5119    0.0000 H   0  0  0  0  0  0  0  0  0  0  0  0
    9.4464   -3.4267    0.0000 H   0  0  0  0  0  0  0  0  0  0  0  0
    2.0000   -3.0325    0.0000 H   0  0  0  0  0  0  0  0  0  0  0  0
    9.1096   -5.0113    0.0000 H   0  0  0  0  0  0  0  0  0  0  0  0
    7.1345    4.2978    0.0000 H   0  0  0  0  0  0  0  0  0  0  0  0
    6.7360    4.9881    0.0000 H   0  0  0  0  0  0  0  0  0  0  0  0
    9.1220    2.2855    0.0000 H   0  0  0  0  0  0  0  0  0  0  0  0
    7.7190    4.7155    0.0000 H   0  0  0  0  0  0  0  0  0  0  0  0
    5.9679    5.4424    0.0000 H   0  0  0  0  0  0  0  0  0  0  0  0
    5.1210    5.2155    0.0000 H   0  0  0  0  0  0  0  0  0  0  0  0
    5.3479    4.3685    0.0000 H   0  0  0  0  0  0  0  0  0  0  0  0
   10.5250    3.0955    0.0000 H   0  0  0  0  0  0  0  0  0  0  0  0
   10.5250    4.7155    0.0000 H   0  0  0  0  0  0  0  0  0  0  0  0
  1 25  1  0  0  0  0
  1 74  1  0  0  0  0
  2 25  2  0  0  0  0
  3  9  1  0  0  0  0
  3 10  1  0  0  0  0
  3 11  1  0  0  0  0
  4 13  1  0  0  0  0
  4 17  1  0  0  0  0
  4 18  1  0  0  0  0
  5 21  1  0  0  0  0
  5 28  1  0  0  0  0
  5 31  1  0  0  0  0
  6 35  1  0  0  0  0
  6 38  2  0  0  0  0
  7  8  1  0  0  0  0
  7  9  1  0  0  0  0
  7 13  1  6  0  0  0
  7 39  1  0  0  0  0
  8 10  1  0  0  0  0
  8 16  1  1  0  0  0
  8 40  1  0  0  0  0
  9 41  1  0  0  0  0
  9 42  1  0  0  0  0
 10 43  1  0  0  0  0
 10 44  1  0  0  0  0
 11 12  1  0  0  0  0
 11 25  1  1  0  0  0
 11 45  1  0  0  0  0
 12 14  1  0  0  0  0
 12 15  1  0  0  0  0
 12 46  1  0  0  0  0
 13 47  1  0  0  0  0
 13 48  1  0  0  0  0
 14 19  1  0  0  0  0
 14 49  1  0  0  0  0
 14 50  1  0  0  0  0
 15 20  1  0  0  0  0
 15 51  1  0  0  0  0
 15 52  1  0  0  0  0
 16 26  2  0  0  0  0
 16 27  1  0  0  0  0
 17 22  1  0  0  0  0
 17 53  1  0  0  0  0
 17 54  1  0  0  0  0
 18 23  1  0  0  0  0
 18 55  1  0  0  0  0
 18 56  1  0  0  0  0
 19 24  1  0  0  0  0
 19 57  1  0  0  0  0
 19 58  1  0  0  0  0
 20 24  1  0  0  0  0
 20 59  1  0  0  0  0
 20 60  1  0  0  0  0
 21 22  1  0  0  0  0
 21 23  1  0  0  0  0
 21 61  1  0  0  0  0
 22 62  1  0  0  0  0
 22 63  1  0  0  0  0
 23 64  1  0  0  0  0
 23 65  1  0  0  0  0
 24 66  1  0  0  0  0
 24 67  1  0  0  0  0
 26 29  1  0  0  0  0
 26 68  1  0  0  0  0
 27 30  2  0  0  0  0
 27 69  1  0  0  0  0
 28 33  1  0  0  0  0
 28 70  1  0  0  0  0
 28 71  1  0  0  0  0
 29 32  2  0  0  0  0
 29 72  1  0  0  0  0
 30 32  1  0  0  0  0
 30 73  1  0  0  0  0
 31 34  1  0  0  0  0
 31 35  2  0  0  0  0
 32 75  1  0  0  0  0
 33 36  1  0  0  0  0
 33 76  1  0  0  0  0
 33 77  1  0  0  0  0
 34 37  2  0  0  0  0
 34 78  1  0  0  0  0
 35 79  1  0  0  0  0
 36 80  1  0  0  0  0
 36 81  1  0  0  0  0
 36 82  1  0  0  0  0
 37 38  1  0  0  0  0
 37 83  1  0  0  0  0
 38 84  1  0  0  0  0
M  END
> <PUBCHEM_COMPOUND_CID>
505879
> <PUBCHEM_COMPOUND_CANONICALIZED>
1
> <PUBCHEM_CACTVS_COMPLEXITY>
714
> <PUBCHEM_CACTVS_HBOND_ACCEPTOR>
6
> <PUBCHEM_CACTVS_HBOND_DONOR>
1
> <PUBCHEM_CACTVS_ROTATABLE_BOND>
10
> <PUBCHEM_CACTVS_SUBSKEYS>
AAADcfB/sAAAAAAAAAAAAAAAAAAAAWAAAAA8eIEAAAAAAAABwAAAHgAACAAADSjBmgQ+yJMIEgCoAjT3TACCgCAxEiAI2CG4dJgKYPLA0bGUYAhkgADYyAeYyOCOgAAAAAAAAAAAAAAAAAAAAAAAAAAAAA==
> <PUBCHEM_IUPAC_OPENEYE_NAME>
(2R)-2-cyclohexyl-2-[(3S,4S)-3-phenyl-4-[[4-[propyl(3-pyridyl)amino]-1-piperidyl]methyl]pyrrolidin-1-yl]acetic acid
> <PUBCHEM_IUPAC_CAS_NAME>
(2R)-2-cyclohexyl-2-[(3S,4S)-3-phenyl-4-[[4-[propyl(3-pyridinyl)amino]-1-piperidinyl]methyl]-1-pyrrolidinyl]acetic acid
> <PUBCHEM_IUPAC_NAME_MARKUP>
(2<I>R</I>)-2-cyclohexyl-2-[(3<I>S</I>,4<I>S</I>)-3-phenyl-4-[[4-[propyl(pyridin-3-yl)amino]piperidin-1-yl]methyl]pyrrolidin-1-yl]acetic acid
> <PUBCHEM_IUPAC_NAME>
(2R)-2-cyclohexyl-2-[(3S,4S)-3-phenyl-4-[[4-[propyl(pyridin-3-yl)amino]piperidin-1-yl]methyl]pyrrolidin-1-yl]acetic acid
> <PUBCHEM_IUPAC_SYSTEMATIC_NAME>
(2R)-2-cyclohexyl-2-[(3S,4S)-3-phenyl-4-[[4-[propyl(pyridin-3-yl)amino]piperidin-1-yl]methyl]pyrrolidin-1-yl]ethanoic acid
> <PUBCHEM_IUPAC_TRADITIONAL_NAME>
(2R)-2-cyclohexyl-2-[(3S,4S)-3-phenyl-4-[[4-[propyl(3-pyridyl)amino]piperidino]methyl]pyrrolidino]acetic acid
> <PUBCHEM_IUPAC_INCHI>
InChI=1S/C32H46N4O2/c1-2-18-36(29-14-9-17-33-21-29)28-15-19-34(20-16-28)22-27-23-35(24-30(27)25-10-5-3-6-11-25)31(32(37)38)26-12-7-4-8-13-26/h3,5-6,9-11,14,17,21,26-28,30-31H,2,4,7-8,12-13,15-16,18-20,22-24H2,1H3,(H,37,38)/t27-,30+,31+/m0/s1
> <PUBCHEM_IUPAC_INCHIKEY>
CJOPYFQSLHCHSZ-LXLYTFERSA-N
> <PUBCHEM_XLOGP3_AA>
4
> <PUBCHEM_EXACT_MASS>
518.36207672
> <PUBCHEM_MOLECULAR_FORMULA>
C32H46N4O2
> <PUBCHEM_MOLECULAR_WEIGHT>
518.7
> <PUBCHEM_OPENEYE_CAN_SMILES>
CCCN(C1CCN(CC1)CC2CN(CC2C3=CC=CC=C3)C(C4CCCCC4)C(=O)O)C5=CN=CC=C5
> <PUBCHEM_OPENEYE_ISO_SMILES>
CCCN(C1CCN(CC1)C[C@H]2CN(C[C@@H]2C3=CC=CC=C3)[C@H](C4CCCCC4)C(=O)O)C5=CN=CC=C5
> <PUBCHEM_CACTVS_TPSA>
59.9
> <PUBCHEM_MONOISOTOPIC_WEIGHT>
518.36207672
> <PUBCHEM_TOTAL_CHARGE>
0
> <PUBCHEM_HEAVY_ATOM_COUNT>
38
> <PUBCHEM_ATOM_DEF_STEREO_COUNT>
3
> <PUBCHEM_ATOM_UDEF_STEREO_COUNT>
0
> <PUBCHEM_BOND_DEF_STEREO_COUNT>
0
> <PUBCHEM_BOND_UDEF_STEREO_COUNT>
0
> <PUBCHEM_ISOTOPIC_ATOM_COUNT>
0
> <PUBCHEM_COMPONENT_COUNT>
1
> <PUBCHEM_CACTVS_TAUTO_COUNT>
-1
> <PUBCHEM_COORDINATE_TYPE>
1
5
255
> <PUBCHEM_BONDANNOTATIONS>
11  25  5
16  26  8
16  27  8
26  29  8
27  30  8
29  32  8
30  32  8
31  34  8
31  35  8
34  37  8
37  38  8
6  35  8
6  38  8
7  13  6
8  16  5
$$$$
