505880
  -OEChem-10302200282D
 83 87  0     1  0  0  0  0  0999 V2000
    2.3644   -2.5309    0.0000 O   0  0  0  0  0  0  0  0  0  0  0  0
    3.7657   -3.5490    0.0000 O   0  0  0  0  0  0  0  0  0  0  0  0
    4.9413   -1.9309    0.0000 N   0  0  3  0  0  0  0  0  0  0  0  0
    7.3900   -0.0945    0.0000 N   0  0  0  0  0  0  0  0  0  0  0  0
    7.3900    2.9055    0.0000 N   0  0  3  0  0  0  0  0  0  0  0  0
    8.2560    4.4055    0.0000 N   0  0  0  0  0  0  0  0  0  0  0  0
    9.1220    2.9055    0.0000 N   0  0  0  0  0  0  0  0  0  0  0  0
    6.5239   -1.5945    0.0000 C   0  0  2  0  0  0  0  0  0  0  0  0
    6.4194   -2.5891    0.0000 C   0  0  2  0  0  0  0  0  0  0  0  0
    5.6104   -1.1878    0.0000 C   0  0  0  0  0  0  0  0  0  0  0  0
    5.4413   -2.7970    0.0000 C   0  0  0  0  0  0  0  0  0  0  0  0
    3.9467   -1.8264    0.0000 C   0  0  2  0  0  0  0  0  0  0  0  0
    3.5400   -0.9129    0.0000 C   0  0  0  0  0  0  0  0  0  0  0  0
    7.3900   -1.0945    0.0000 C   0  0  0  0  0  0  0  0  0  0  0  0
    2.5455   -0.8083    0.0000 C   0  0  0  0  0  0  0  0  0  0  0  0
    4.1278   -0.1039    0.0000 C   0  0  0  0  0  0  0  0  0  0  0  0
    7.1626   -3.2582    0.0000 C   0  0  0  0  0  0  0  0  0  0  0  0
    6.5239    0.4055    0.0000 C   0  0  0  0  0  0  0  0  0  0  0  0
    8.2560    0.4055    0.0000 C   0  0  0  0  0  0  0  0  0  0  0  0
    2.1387    0.1052    0.0000 C   0  0  0  0  0  0  0  0  0  0  0  0
    3.7210    0.8097    0.0000 C   0  0  0  0  0  0  0  0  0  0  0  0
    7.3900    1.9055    0.0000 C   0  0  0  0  0  0  0  0  0  0  0  0
    2.7265    0.9142    0.0000 C   0  0  0  0  0  0  0  0  0  0  0  0
    6.5239    1.4055    0.0000 C   0  0  0  0  0  0  0  0  0  0  0  0
    8.2560    1.4055    0.0000 C   0  0  0  0  0  0  0  0  0  0  0  0
    3.3590   -2.6354    0.0000 C   0  0  0  0  0  0  0  0  0  0  0  0
    6.9546   -4.2363    0.0000 C   0  0  0  0  0  0  0  0  0  0  0  0
    8.1136   -2.9492    0.0000 C   0  0  0  0  0  0  0  0  0  0  0  0
    6.5239    3.4055    0.0000 C   0  0  0  0  0  0  0  0  0  0  0  0
    7.6978   -4.9055    0.0000 C   0  0  0  0  0  0  0  0  0  0  0  0
    8.8568   -3.6183    0.0000 C   0  0  0  0  0  0  0  0  0  0  0  0
    8.2560    3.4055    0.0000 C   0  0  0  0  0  0  0  0  0  0  0  0
    8.6488   -4.5964    0.0000 C   0  0  0  0  0  0  0  0  0  0  0  0
    6.5239    4.4055    0.0000 C   0  0  0  0  0  0  0  0  0  0  0  0
    5.6579    4.9055    0.0000 C   0  0  0  0  0  0  0  0  0  0  0  0
    9.1220    4.9055    0.0000 C   0  0  0  0  0  0  0  0  0  0  0  0
    9.9880    3.4055    0.0000 C   0  0  0  0  0  0  0  0  0  0  0  0
    9.9880    4.4055    0.0000 C   0  0  0  0  0  0  0  0  0  0  0  0
    6.4915   -0.9754    0.0000 H   0  0  0  0  0  0  0  0  0  0  0  0
    6.2589   -3.1879    0.0000 H   0  0  0  0  0  0  0  0  0  0  0  0
    5.9204   -0.6509    0.0000 H   0  0  0  0  0  0  0  0  0  0  0  0
    5.1088   -0.8234    0.0000 H   0  0  0  0  0  0  0  0  0  0  0  0
    4.8749   -3.0491    0.0000 H   0  0  0  0  0  0  0  0  0  0  0  0
    5.6328   -3.3866    0.0000 H   0  0  0  0  0  0  0  0  0  0  0  0
    4.1989   -2.3928    0.0000 H   0  0  0  0  0  0  0  0  0  0  0  0
    3.1756   -1.4145    0.0000 H   0  0  0  0  0  0  0  0  0  0  0  0
    7.6020   -1.6771    0.0000 H   0  0  0  0  0  0  0  0  0  0  0  0
    8.0005   -0.9869    0.0000 H   0  0  0  0  0  0  0  0  0  0  0  0
    1.9439   -0.9583    0.0000 H   0  0  0  0  0  0  0  0  0  0  0  0
    2.5887   -1.4268    0.0000 H   0  0  0  0  0  0  0  0  0  0  0  0
    4.5585   -0.5498    0.0000 H   0  0  0  0  0  0  0  0  0  0  0  0
    4.6418    0.2428    0.0000 H   0  0  0  0  0  0  0  0  0  0  0  0
    5.9134    0.5131    0.0000 H   0  0  0  0  0  0  0  0  0  0  0  0
    6.3119   -0.1771    0.0000 H   0  0  0  0  0  0  0  0  0  0  0  0
    8.4680   -0.1771    0.0000 H   0  0  0  0  0  0  0  0  0  0  0  0
    8.8666    0.5131    0.0000 H   0  0  0  0  0  0  0  0  0  0  0  0
    1.7080    0.5512    0.0000 H   0  0  0  0  0  0  0  0  0  0  0  0
    1.6247   -0.2415    0.0000 H   0  0  0  0  0  0  0  0  0  0  0  0
    4.3226    0.9597    0.0000 H   0  0  0  0  0  0  0  0  0  0  0  0
    3.6778    1.4282    0.0000 H   0  0  0  0  0  0  0  0  0  0  0  0
    7.9269    2.2155    0.0000 H   0  0  0  0  0  0  0  0  0  0  0  0
    2.8974    1.5102    0.0000 H   0  0  0  0  0  0  0  0  0  0  0  0
    2.1693    1.1860    0.0000 H   0  0  0  0  0  0  0  0  0  0  0  0
    6.3119    1.9881    0.0000 H   0  0  0  0  0  0  0  0  0  0  0  0
    5.9134    1.2978    0.0000 H   0  0  0  0  0  0  0  0  0  0  0  0
    8.8666    1.2978    0.0000 H   0  0  0  0  0  0  0  0  0  0  0  0
    8.4680    1.9881    0.0000 H   0  0  0  0  0  0  0  0  0  0  0  0
    6.3650   -4.4279    0.0000 H   0  0  0  0  0  0  0  0  0  0  0  0
    8.2425   -2.3427    0.0000 H   0  0  0  0  0  0  0  0  0  0  0  0
    5.9134    3.5131    0.0000 H   0  0  0  0  0  0  0  0  0  0  0  0
    6.3119    2.8229    0.0000 H   0  0  0  0  0  0  0  0  0  0  0  0
    7.5689   -5.5119    0.0000 H   0  0  0  0  0  0  0  0  0  0  0  0
    9.4464   -3.4267    0.0000 H   0  0  0  0  0  0  0  0  0  0  0  0
    2.0000   -3.0325    0.0000 H   0  0  0  0  0  0  0  0  0  0  0  0
    9.1096   -5.0113    0.0000 H   0  0  0  0  0  0  0  0  0  0  0  0
    7.1345    4.2978    0.0000 H   0  0  0  0  0  0  0  0  0  0  0  0
    6.7360    4.9881    0.0000 H   0  0  0  0  0  0  0  0  0  0  0  0
    5.9679    5.4424    0.0000 H   0  0  0  0  0  0  0  0  0  0  0  0
    5.1210    5.2155    0.0000 H   0  0  0  0  0  0  0  0  0  0  0  0
    5.3479    4.3685    0.0000 H   0  0  0  0  0  0  0  0  0  0  0  0
    9.1220    5.5255    0.0000 H   0  0  0  0  0  0  0  0  0  0  0  0
   10.5250    3.0955    0.0000 H   0  0  0  0  0  0  0  0  0  0  0  0
   10.5250    4.7155    0.0000 H   0  0  0  0  0  0  0  0  0  0  0  0
  1 26  1  0  0  0  0
  1 74  1  0  0  0  0
  2 26  2  0  0  0  0
  3 10  1  0  0  0  0
  3 11  1  0  0  0  0
  3 12  1  0  0  0  0
  4 14  1  0  0  0  0
  4 18  1  0  0  0  0
  4 19  1  0  0  0  0
  5 22  1  0  0  0  0
  5 29  1  0  0  0  0
  5 32  1  0  0  0  0
  6 32  2  0  0  0  0
  6 36  1  0  0  0  0
  7 32  1  0  0  0  0
  7 37  2  0  0  0  0
  8  9  1  0  0  0  0
  8 10  1  0  0  0  0
  8 14  1  6  0  0  0
  8 39  1  0  0  0  0
  9 11  1  0  0  0  0
  9 17  1  1  0  0  0
  9 40  1  0  0  0  0
 10 41  1  0  0  0  0
 10 42  1  0  0  0  0
 11 43  1  0  0  0  0
 11 44  1  0  0  0  0
 12 13  1  0  0  0  0
 12 26  1  1  0  0  0
 12 45  1  0  0  0  0
 13 15  1  0  0  0  0
 13 16  1  0  0  0  0
 13 46  1  0  0  0  0
 14 47  1  0  0  0  0
 14 48  1  0  0  0  0
 15 20  1  0  0  0  0
 15 49  1  0  0  0  0
 15 50  1  0  0  0  0
 16 21  1  0  0  0  0
 16 51  1  0  0  0  0
 16 52  1  0  0  0  0
 17 27  2  0  0  0  0
 17 28  1  0  0  0  0
 18 24  1  0  0  0  0
 18 53  1  0  0  0  0
 18 54  1  0  0  0  0
 19 25  1  0  0  0  0
 19 55  1  0  0  0  0
 19 56  1  0  0  0  0
 20 23  1  0  0  0  0
 20 57  1  0  0  0  0
 20 58  1  0  0  0  0
 21 23  1  0  0  0  0
 21 59  1  0  0  0  0
 21 60  1  0  0  0  0
 22 24  1  0  0  0  0
 22 25  1  0  0  0  0
 22 61  1  0  0  0  0
 23 62  1  0  0  0  0
 23 63  1  0  0  0  0
 24 64  1  0  0  0  0
 24 65  1  0  0  0  0
 25 66  1  0  0  0  0
 25 67  1  0  0  0  0
 27 30  1  0  0  0  0
 27 68  1  0  0  0  0
 28 31  2  0  0  0  0
 28 69  1  0  0  0  0
 29 34  1  0  0  0  0
 29 70  1  0  0  0  0
 29 71  1  0  0  0  0
 30 33  2  0  0  0  0
 30 72  1  0  0  0  0
 31 33  1  0  0  0  0
 31 73  1  0  0  0  0
 33 75  1  0  0  0  0
 34 35  1  0  0  0  0
 34 76  1  0  0  0  0
 34 77  1  0  0  0  0
 35 78  1  0  0  0  0
 35 79  1  0  0  0  0
 35 80  1  0  0  0  0
 36 38  2  0  0  0  0
 36 81  1  0  0  0  0
 37 38  1  0  0  0  0
 37 82  1  0  0  0  0
 38 83  1  0  0  0  0
M  END
> <PUBCHEM_COMPOUND_CID>
505880
> <PUBCHEM_COMPOUND_CANONICALIZED>
1
> <PUBCHEM_CACTVS_COMPLEXITY>
711
> <PUBCHEM_CACTVS_HBOND_ACCEPTOR>
7
> <PUBCHEM_CACTVS_HBOND_DONOR>
1
> <PUBCHEM_CACTVS_ROTATABLE_BOND>
10
> <PUBCHEM_CACTVS_SUBSKEYS>
AAADcfB7sAAAAAAAAAAAAAAAAAAAAWAAAAA8eIEAAAAAAAABwAAAHgAACAAADSjBmgQ/mJcIEgCoAjD3bACCgCkxAqAJ2CG4ZJiKKLLA2XGEZAgsgALYiCeYyOCOgAAAAAAAAAAAAAAAAAAAAAAAAAAAAA==
> <PUBCHEM_IUPAC_OPENEYE_NAME>
(2R)-2-cyclohexyl-2-[(3S,4S)-3-phenyl-4-[[4-[propyl(pyrimidin-2-yl)amino]-1-piperidyl]methyl]pyrrolidin-1-yl]acetic acid
> <PUBCHEM_IUPAC_CAS_NAME>
(2R)-2-cyclohexyl-2-[(3S,4S)-3-phenyl-4-[[4-[propyl(2-pyrimidinyl)amino]-1-piperidinyl]methyl]-1-pyrrolidinyl]acetic acid
> <PUBCHEM_IUPAC_NAME_MARKUP>
(2<I>R</I>)-2-cyclohexyl-2-[(3<I>S</I>,4<I>S</I>)-3-phenyl-4-[[4-[propyl(pyrimidin-2-yl)amino]piperidin-1-yl]methyl]pyrrolidin-1-yl]acetic acid
> <PUBCHEM_IUPAC_NAME>
(2R)-2-cyclohexyl-2-[(3S,4S)-3-phenyl-4-[[4-[propyl(pyrimidin-2-yl)amino]piperidin-1-yl]methyl]pyrrolidin-1-yl]acetic acid
> <PUBCHEM_IUPAC_SYSTEMATIC_NAME>
(2R)-2-cyclohexyl-2-[(3S,4S)-3-phenyl-4-[[4-[propyl(pyrimidin-2-yl)amino]piperidin-1-yl]methyl]pyrrolidin-1-yl]ethanoic acid
> <PUBCHEM_IUPAC_TRADITIONAL_NAME>
(2R)-2-cyclohexyl-2-[(3S,4S)-3-phenyl-4-[[4-[propyl(2-pyrimidyl)amino]piperidino]methyl]pyrrolidino]acetic acid
> <PUBCHEM_IUPAC_INCHI>
InChI=1S/C31H45N5O2/c1-2-18-36(31-32-16-9-17-33-31)27-14-19-34(20-15-27)21-26-22-35(23-28(26)24-10-5-3-6-11-24)29(30(37)38)25-12-7-4-8-13-25/h3,5-6,9-11,16-17,25-29H,2,4,7-8,12-15,18-23H2,1H3,(H,37,38)/t26-,28+,29+/m0/s1
> <PUBCHEM_IUPAC_INCHIKEY>
PBQIQXDKWBWMSH-WIIGKZCBSA-N
> <PUBCHEM_XLOGP3_AA>
3.7
> <PUBCHEM_EXACT_MASS>
519.35732570
> <PUBCHEM_MOLECULAR_FORMULA>
C31H45N5O2
> <PUBCHEM_MOLECULAR_WEIGHT>
519.7
> <PUBCHEM_OPENEYE_CAN_SMILES>
CCCN(C1CCN(CC1)CC2CN(CC2C3=CC=CC=C3)C(C4CCCCC4)C(=O)O)C5=NC=CC=N5
> <PUBCHEM_OPENEYE_ISO_SMILES>
CCCN(C1CCN(CC1)C[C@H]2CN(C[C@@H]2C3=CC=CC=C3)[C@H](C4CCCCC4)C(=O)O)C5=NC=CC=N5
> <PUBCHEM_CACTVS_TPSA>
72.8
> <PUBCHEM_MONOISOTOPIC_WEIGHT>
519.35732570
> <PUBCHEM_TOTAL_CHARGE>
0
> <PUBCHEM_HEAVY_ATOM_COUNT>
38
> <PUBCHEM_ATOM_DEF_STEREO_COUNT>
3
> <PUBCHEM_ATOM_UDEF_STEREO_COUNT>
0
> <PUBCHEM_BOND_DEF_STEREO_COUNT>
0
> <PUBCHEM_BOND_UDEF_STEREO_COUNT>
0
> <PUBCHEM_ISOTOPIC_ATOM_COUNT>
0
> <PUBCHEM_COMPONENT_COUNT>
1
> <PUBCHEM_CACTVS_TAUTO_COUNT>
-1
> <PUBCHEM_COORDINATE_TYPE>
1
5
255
> <PUBCHEM_BONDANNOTATIONS>
12  26  5
17  27  8
17  28  8
27  30  8
28  31  8
30  33  8
31  33  8
36  38  8
37  38  8
6  32  8
6  36  8
7  32  8
7  37  8
8  14  6
9  17  5
$$$$
