505808
  -OEChem-10302200282D
 58 61  0     1  0  0  0  0  0999 V2000
    7.9265   -0.5305    0.0000 O   0  0  0  0  0  0  0  0  0  0  0  0
   12.0869    2.1137    0.0000 O   0  0  0  0  0  0  0  0  0  0  0  0
   12.9455   -2.1137    0.0000 O   0  0  0  0  0  0  0  0  0  0  0  0
    8.2946    1.1620    0.0000 O   0  0  0  0  0  0  0  0  0  0  0  0
   15.8551    1.1831    0.0000 O   0  0  0  0  0  0  0  0  0  0  0  0
   12.5854   -0.4195    0.0000 N   0  0  0  0  0  0  0  0  0  0  0  0
   13.8725    0.7394    0.0000 N   0  0  0  0  0  0  0  0  0  0  0  0
    5.2996   -0.8454    0.0000 C   0  0  0  0  0  0  0  0  0  0  0  0
    6.2767   -1.0580    0.0000 C   0  0  0  0  0  0  0  0  0  0  0  0
    4.6269   -1.5854    0.0000 C   0  0  0  0  0  0  0  0  0  0  0  0
    6.9494   -0.3180    0.0000 C   0  0  3  0  0  0  0  0  0  0  0  0
    3.6498   -1.3729    0.0000 C   0  0  0  0  0  0  0  0  0  0  0  0
   11.5913   -0.4170    0.0000 C   0  0  0  0  0  0  0  0  0  0  0  0
   11.2849    0.5287    0.0000 C   0  0  0  0  0  0  0  0  0  0  0  0
    2.9772   -2.1129    0.0000 C   0  0  0  0  0  0  0  0  0  0  0  0
   12.8944    0.5315    0.0000 C   0  0  0  0  0  0  0  0  0  0  0  0
    6.6448    0.6345    0.0000 C   0  0  0  0  0  0  0  0  0  0  0  0
   12.0886    1.1137    0.0000 C   0  0  0  0  0  0  0  0  0  0  0  0
    9.5763   -0.0030    0.0000 C   0  0  0  0  0  0  0  0  0  0  0  0
   10.2757    0.7605    0.0000 C   0  0  0  0  0  0  0  0  0  0  0  0
   13.2545   -1.1627    0.0000 C   0  0  0  0  0  0  0  0  0  0  0  0
   10.9097   -1.1965    0.0000 C   0  0  0  0  0  0  0  0  0  0  0  0
   14.2327   -0.9548    0.0000 C   0  0  0  0  0  0  0  0  0  0  0  0
   14.5417   -0.0037    0.0000 C   0  0  0  0  0  0  0  0  0  0  0  0
    9.8954   -0.9881    0.0000 C   0  0  0  0  0  0  0  0  0  0  0  0
    8.5991    0.2095    0.0000 C   0  0  0  0  0  0  0  0  0  0  0  0
    2.0000   -1.9003    0.0000 C   0  0  0  0  0  0  0  0  0  0  0  0
   15.5571    0.2285    0.0000 C   0  0  0  0  0  0  0  0  0  0  0  0
   14.9176   -1.7395    0.0000 C   0  0  0  0  0  0  0  0  0  0  0  0
   16.2600   -0.5401    0.0000 C   0  0  0  0  0  0  0  0  0  0  0  0
   15.9381   -1.5308    0.0000 C   0  0  0  0  0  0  0  0  0  0  0  0
   16.8308    1.4023    0.0000 C   0  0  0  0  0  0  0  0  0  0  0  0
    5.5345   -0.2717    0.0000 H   0  0  0  0  0  0  0  0  0  0  0  0
    4.7753   -0.5144    0.0000 H   0  0  0  0  0  0  0  0  0  0  0  0
    6.0418   -1.6317    0.0000 H   0  0  0  0  0  0  0  0  0  0  0  0
    6.8010   -1.3890    0.0000 H   0  0  0  0  0  0  0  0  0  0  0  0
    4.3920   -2.1592    0.0000 H   0  0  0  0  0  0  0  0  0  0  0  0
    5.1512   -1.9164    0.0000 H   0  0  0  0  0  0  0  0  0  0  0  0
    7.3664    0.1408    0.0000 H   0  0  0  0  0  0  0  0  0  0  0  0
    3.8848   -0.7991    0.0000 H   0  0  0  0  0  0  0  0  0  0  0  0
    3.1256   -1.0418    0.0000 H   0  0  0  0  0  0  0  0  0  0  0  0
    2.7422   -2.6866    0.0000 H   0  0  0  0  0  0  0  0  0  0  0  0
    3.5014   -2.4439    0.0000 H   0  0  0  0  0  0  0  0  0  0  0  0
    7.2354    0.8233    0.0000 H   0  0  0  0  0  0  0  0  0  0  0  0
    6.4560    1.2251    0.0000 H   0  0  0  0  0  0  0  0  0  0  0  0
    6.0543    0.4457    0.0000 H   0  0  0  0  0  0  0  0  0  0  0  0
   10.0915    1.3525    0.0000 H   0  0  0  0  0  0  0  0  0  0  0  0
   11.1076   -1.7840    0.0000 H   0  0  0  0  0  0  0  0  0  0  0  0
    9.4819   -1.4501    0.0000 H   0  0  0  0  0  0  0  0  0  0  0  0
    2.1318   -1.2945    0.0000 H   0  0  0  0  0  0  0  0  0  0  0  0
    1.3942   -1.7686    0.0000 H   0  0  0  0  0  0  0  0  0  0  0  0
    1.8682   -2.5062    0.0000 H   0  0  0  0  0  0  0  0  0  0  0  0
   14.7192   -2.3269    0.0000 H   0  0  0  0  0  0  0  0  0  0  0  0
   16.8660   -0.4089    0.0000 H   0  0  0  0  0  0  0  0  0  0  0  0
   16.3512   -1.9931    0.0000 H   0  0  0  0  0  0  0  0  0  0  0  0
   16.9667    0.7974    0.0000 H   0  0  0  0  0  0  0  0  0  0  0  0
   17.4357    1.5382    0.0000 H   0  0  0  0  0  0  0  0  0  0  0  0
   16.6948    2.0072    0.0000 H   0  0  0  0  0  0  0  0  0  0  0  0
  1 11  1  0  0  0  0
  1 26  1  0  0  0  0
  2 18  2  0  0  0  0
  3 21  2  0  0  0  0
  4 26  2  0  0  0  0
  5 28  1  0  0  0  0
  5 32  1  0  0  0  0
  6 13  1  0  0  0  0
  6 16  1  0  0  0  0
  6 21  1  0  0  0  0
  7 16  2  0  0  0  0
  7 24  1  0  0  0  0
  8  9  1  0  0  0  0
  8 10  1  0  0  0  0
  8 33  1  0  0  0  0
  8 34  1  0  0  0  0
  9 11  1  0  0  0  0
  9 35  1  0  0  0  0
  9 36  1  0  0  0  0
 10 12  1  0  0  0  0
 10 37  1  0  0  0  0
 10 38  1  0  0  0  0
 11 17  1  0  0  0  0
 11 39  1  0  0  0  0
 12 15  1  0  0  0  0
 12 40  1  0  0  0  0
 12 41  1  0  0  0  0
 13 14  2  0  0  0  0
 13 22  1  0  0  0  0
 14 18  1  0  0  0  0
 14 20  1  0  0  0  0
 15 27  1  0  0  0  0
 15 42  1  0  0  0  0
 15 43  1  0  0  0  0
 16 18  1  0  0  0  0
 17 44  1  0  0  0  0
 17 45  1  0  0  0  0
 17 46  1  0  0  0  0
 19 20  2  0  0  0  0
 19 25  1  0  0  0  0
 19 26  1  0  0  0  0
 20 47  1  0  0  0  0
 21 23  1  0  0  0  0
 22 25  2  0  0  0  0
 22 48  1  0  0  0  0
 23 24  2  0  0  0  0
 23 29  1  0  0  0  0
 24 28  1  0  0  0  0
 25 49  1  0  0  0  0
 27 50  1  0  0  0  0
 27 51  1  0  0  0  0
 27 52  1  0  0  0  0
 28 30  2  0  0  0  0
 29 31  2  0  0  0  0
 29 53  1  0  0  0  0
 30 31  1  0  0  0  0
 30 54  1  0  0  0  0
 31 55  1  0  0  0  0
 32 56  1  0  0  0  0
 32 57  1  0  0  0  0
 32 58  1  0  0  0  0
M  END
> <PUBCHEM_COMPOUND_CID>
505808
> <PUBCHEM_COMPOUND_CANONICALIZED>
1
> <PUBCHEM_CACTVS_COMPLEXITY>
765
> <PUBCHEM_CACTVS_HBOND_ACCEPTOR>
6
> <PUBCHEM_CACTVS_HBOND_DONOR>
0
> <PUBCHEM_CACTVS_ROTATABLE_BOND>
9
> <PUBCHEM_CACTVS_SUBSKEYS>
AAADceB7OAAAAAAAAAAAAAAAAAAAAWAAAAAwYIAAAAAAAFiBQAAAHgAAAAAADByhmAIzzoMABACoAqfyfACCCAElIgAJiAGnbMgOJjrE/buHMahkxBHI6ce63/O+CAADAAACEAAQAAYAAAQgAAAAAAAAAA==
> <PUBCHEM_IUPAC_OPENEYE_NAME>
1-methylheptyl 4-methoxy-6,12-dioxo-indolo[2,1-b]quinazoline-8-carboxylate
> <PUBCHEM_IUPAC_CAS_NAME>
4-methoxy-6,12-dioxo-8-indolo[2,1-b]quinazolinecarboxylic acid octan-2-yl ester
> <PUBCHEM_IUPAC_NAME_MARKUP>
octan-2-yl 4-methoxy-6,12-dioxoindolo[2,1-b]quinazoline-8-carboxylate
> <PUBCHEM_IUPAC_NAME>
octan-2-yl 4-methoxy-6,12-dioxoindolo[2,1-b]quinazoline-8-carboxylate
> <PUBCHEM_IUPAC_SYSTEMATIC_NAME>
octan-2-yl 4-methoxy-6,12-bis(oxidanylidene)indolo[2,1-b]quinazoline-8-carboxylate
> <PUBCHEM_IUPAC_TRADITIONAL_NAME>
6,12-diketo-4-methoxy-indolo[2,1-b]quinazoline-8-carboxylic acid 1-methylheptyl ester
> <PUBCHEM_IUPAC_INCHI>
InChI=1S/C25H26N2O5/c1-4-5-6-7-9-15(2)32-25(30)16-12-13-19-18(14-16)22(28)23-26-21-17(24(29)27(19)23)10-8-11-20(21)31-3/h8,10-15H,4-7,9H2,1-3H3
> <PUBCHEM_IUPAC_INCHIKEY>
SRGKMKAPZQYQLR-UHFFFAOYSA-N
> <PUBCHEM_XLOGP3_AA>
5.2
> <PUBCHEM_EXACT_MASS>
434.18417193
> <PUBCHEM_MOLECULAR_FORMULA>
C25H26N2O5
> <PUBCHEM_MOLECULAR_WEIGHT>
434.5
> <PUBCHEM_OPENEYE_CAN_SMILES>
CCCCCCC(C)OC(=O)C1=CC2=C(C=C1)N3C(=NC4=C(C3=O)C=CC=C4OC)C2=O
> <PUBCHEM_OPENEYE_ISO_SMILES>
CCCCCCC(C)OC(=O)C1=CC2=C(C=C1)N3C(=NC4=C(C3=O)C=CC=C4OC)C2=O
> <PUBCHEM_CACTVS_TPSA>
85.3
> <PUBCHEM_MONOISOTOPIC_WEIGHT>
434.18417193
> <PUBCHEM_TOTAL_CHARGE>
0
> <PUBCHEM_HEAVY_ATOM_COUNT>
32
> <PUBCHEM_ATOM_DEF_STEREO_COUNT>
0
> <PUBCHEM_ATOM_UDEF_STEREO_COUNT>
1
> <PUBCHEM_BOND_DEF_STEREO_COUNT>
0
> <PUBCHEM_BOND_UDEF_STEREO_COUNT>
0
> <PUBCHEM_ISOTOPIC_ATOM_COUNT>
0
> <PUBCHEM_COMPONENT_COUNT>
1
> <PUBCHEM_CACTVS_TAUTO_COUNT>
-1
> <PUBCHEM_COORDINATE_TYPE>
1
5
255
> <PUBCHEM_BONDANNOTATIONS>
11  17  3
13  14  8
13  22  8
14  20  8
19  20  8
19  25  8
21  23  8
22  25  8
23  24  8
23  29  8
24  28  8
28  30  8
29  31  8
30  31  8
6  16  8
6  21  8
7  16  8
7  24  8
$$$$
