505895
  -OEChem-10302200282D
 48 48  0     1  0  0  0  0  0999 V2000
    8.2797    2.1126    0.0000 O   0  0  0  0  0  0  0  0  0  0  0  0
    5.3314   -1.6307    0.0000 O   0  0  0  0  0  0  0  0  0  0  0  0
    6.8785    3.1307    0.0000 O   0  0  0  0  0  0  0  0  0  0  0  0
    2.5352   -0.4700    0.0000 O   0  0  0  0  0  0  0  0  0  0  0  0
    6.1974   -0.1307    0.0000 N   0  0  0  0  0  0  0  0  0  0  0  0
    5.1096    2.2172    0.0000 N   0  0  0  0  0  0  0  0  0  0  0  0
    7.0634   -1.6307    0.0000 N   0  0  0  0  0  0  0  0  0  0  0  0
    3.6942    0.8172    0.0000 N   0  0  0  0  0  0  0  0  0  0  0  0
    5.3884    0.4571    0.0000 C   0  0  2  0  0  0  0  0  0  0  0  0
    5.6974    1.4081    0.0000 C   0  0  2  0  0  0  0  0  0  0  0  0
    6.6974    1.4081    0.0000 C   0  0  2  0  0  0  0  0  0  0  0  0
    7.0064    0.4571    0.0000 C   0  0  0  0  0  0  0  0  0  0  0  0
    4.4374    0.1481    0.0000 C   0  0  0  0  0  0  0  0  0  0  0  0
    6.1974   -1.1307    0.0000 C   0  0  0  0  0  0  0  0  0  0  0  0
    7.2852    2.2172    0.0000 C   0  0  0  0  0  0  0  0  0  0  0  0
    7.0634   -2.6307    0.0000 C   0  0  0  0  0  0  0  0  0  0  0  0
    7.9295   -1.1307    0.0000 C   0  0  0  0  0  0  0  0  0  0  0  0
    7.9295   -3.1307    0.0000 C   0  0  0  0  0  0  0  0  0  0  0  0
    6.1974   -3.1307    0.0000 C   0  0  0  0  0  0  0  0  0  0  0  0
    2.7431    0.5082    0.0000 C   0  0  0  0  0  0  0  0  0  0  0  0
    8.7955   -1.6307    0.0000 C   0  0  0  0  0  0  0  0  0  0  0  0
    2.0000    1.1773    0.0000 C   0  0  0  0  0  0  0  0  0  0  0  0
    5.2914   -0.1553    0.0000 H   0  0  0  0  0  0  0  0  0  0  0  0
    5.9789    1.9606    0.0000 H   0  0  0  0  0  0  0  0  0  0  0  0
    6.4159    1.9606    0.0000 H   0  0  0  0  0  0  0  0  0  0  0  0
    7.3164   -0.0799    0.0000 H   0  0  0  0  0  0  0  0  0  0  0  0
    7.5728    0.7093    0.0000 H   0  0  0  0  0  0  0  0  0  0  0  0
    3.9488   -0.2336    0.0000 H   0  0  0  0  0  0  0  0  0  0  0  0
    4.7284   -0.3994    0.0000 H   0  0  0  0  0  0  0  0  0  0  0  0
    5.3618    2.7836    0.0000 H   0  0  0  0  0  0  0  0  0  0  0  0
    4.4930    2.1524    0.0000 H   0  0  0  0  0  0  0  0  0  0  0  0
    3.8231    1.4236    0.0000 H   0  0  0  0  0  0  0  0  0  0  0  0
    7.6004   -2.3207    0.0000 H   0  0  0  0  0  0  0  0  0  0  0  0
    8.3280   -0.6558    0.0000 H   0  0  0  0  0  0  0  0  0  0  0  0
    7.5309   -0.6558    0.0000 H   0  0  0  0  0  0  0  0  0  0  0  0
    8.6442    2.6142    0.0000 H   0  0  0  0  0  0  0  0  0  0  0  0
    7.6195   -3.6676    0.0000 H   0  0  0  0  0  0  0  0  0  0  0  0
    8.4664   -3.4407    0.0000 H   0  0  0  0  0  0  0  0  0  0  0  0
    8.2395   -2.5938    0.0000 H   0  0  0  0  0  0  0  0  0  0  0  0
    5.8874   -2.5938    0.0000 H   0  0  0  0  0  0  0  0  0  0  0  0
    5.6605   -3.4407    0.0000 H   0  0  0  0  0  0  0  0  0  0  0  0
    6.5074   -3.6676    0.0000 H   0  0  0  0  0  0  0  0  0  0  0  0
    8.4855   -2.1676    0.0000 H   0  0  0  0  0  0  0  0  0  0  0  0
    9.3324   -1.9407    0.0000 H   0  0  0  0  0  0  0  0  0  0  0  0
    9.1055   -1.0938    0.0000 H   0  0  0  0  0  0  0  0  0  0  0  0
    2.4149    1.6381    0.0000 H   0  0  0  0  0  0  0  0  0  0  0  0
    1.5392    1.5922    0.0000 H   0  0  0  0  0  0  0  0  0  0  0  0
    1.5851    0.7166    0.0000 H   0  0  0  0  0  0  0  0  0  0  0  0
  1 15  1  0  0  0  0
  1 36  1  0  0  0  0
  2 14  2  0  0  0  0
  3 15  2  0  0  0  0
  4 20  2  0  0  0  0
  5  9  1  0  0  0  0
  5 12  1  0  0  0  0
  5 14  1  0  0  0  0
 10  6  1  1  0  0  0
  6 30  1  0  0  0  0
  6 31  1  0  0  0  0
  7 14  1  0  0  0  0
  7 16  1  0  0  0  0
  7 17  1  0  0  0  0
  8 13  1  0  0  0  0
  8 20  1  0  0  0  0
  8 32  1  0  0  0  0
  9 10  1  0  0  0  0
  9 13  1  1  0  0  0
  9 23  1  0  0  0  0
 10 11  1  0  0  0  0
 10 24  1  0  0  0  0
 11 12  1  0  0  0  0
 11 15  1  1  0  0  0
 11 25  1  0  0  0  0
 12 26  1  0  0  0  0
 12 27  1  0  0  0  0
 13 28  1  0  0  0  0
 13 29  1  0  0  0  0
 16 18  1  0  0  0  0
 16 19  1  0  0  0  0
 16 33  1  0  0  0  0
 17 21  1  0  0  0  0
 17 34  1  0  0  0  0
 17 35  1  0  0  0  0
 18 37  1  0  0  0  0
 18 38  1  0  0  0  0
 18 39  1  0  0  0  0
 19 40  1  0  0  0  0
 19 41  1  0  0  0  0
 19 42  1  0  0  0  0
 20 22  1  0  0  0  0
 21 43  1  0  0  0  0
 21 44  1  0  0  0  0
 21 45  1  0  0  0  0
 22 46  1  0  0  0  0
 22 47  1  0  0  0  0
 22 48  1  0  0  0  0
M  END
> <PUBCHEM_COMPOUND_CID>
505895
> <PUBCHEM_COMPOUND_CANONICALIZED>
1
> <PUBCHEM_CACTVS_COMPLEXITY>
441
> <PUBCHEM_CACTVS_HBOND_ACCEPTOR>
5
> <PUBCHEM_CACTVS_HBOND_DONOR>
3
> <PUBCHEM_CACTVS_ROTATABLE_BOND>
5
> <PUBCHEM_CACTVS_SUBSKEYS>
AAADceBzuAAAAAAAAAAAAAAAAAAAAWAAAAAAAAAAAAAAAAAAAAAAHgAQCAAADSjBgAQDCAPAAgAIAAGQGAAAAAAAAAAAAIEIAACAQBoAwAAUQAAOFgKAAAC8EQIMAAAAAAAAAAAAAAAAAAAAAAAAAAAAAA==
> <PUBCHEM_IUPAC_OPENEYE_NAME>
(3S,4S,5S)-5-(acetamidomethyl)-4-amino-1-[ethyl(isopropyl)carbamoyl]pyrrolidine-3-carboxylic acid
> <PUBCHEM_IUPAC_CAS_NAME>
(3S,4S,5S)-5-(acetamidomethyl)-4-amino-1-[[ethyl(propan-2-yl)amino]-oxomethyl]-3-pyrrolidinecarboxylic acid
> <PUBCHEM_IUPAC_NAME_MARKUP>
(3<I>S</I>,4<I>S</I>,5<I>S</I>)-5-(acetamidomethyl)-4-amino-1-[ethyl(propan-2-yl)carbamoyl]pyrrolidine-3-carboxylic acid
> <PUBCHEM_IUPAC_NAME>
(3S,4S,5S)-5-(acetamidomethyl)-4-amino-1-[ethyl(propan-2-yl)carbamoyl]pyrrolidine-3-carboxylic acid
> <PUBCHEM_IUPAC_SYSTEMATIC_NAME>
(3S,4S,5S)-5-(acetamidomethyl)-4-azanyl-1-[ethyl(propan-2-yl)carbamoyl]pyrrolidine-3-carboxylic acid
> <PUBCHEM_IUPAC_TRADITIONAL_NAME>
(3S,4S,5S)-5-(acetamidomethyl)-4-amino-1-[ethyl(isopropyl)carbamoyl]pyrrolidine-3-carboxylic acid
> <PUBCHEM_IUPAC_INCHI>
InChI=1S/C14H26N4O4/c1-5-17(8(2)3)14(22)18-7-10(13(20)21)12(15)11(18)6-16-9(4)19/h8,10-12H,5-7,15H2,1-4H3,(H,16,19)(H,20,21)/t10-,11-,12-/m0/s1
> <PUBCHEM_IUPAC_INCHIKEY>
VMIVSKYTLYPRNN-SRVKXCTJSA-N
> <PUBCHEM_XLOGP3_AA>
-3
> <PUBCHEM_EXACT_MASS>
314.19540532
> <PUBCHEM_MOLECULAR_FORMULA>
C14H26N4O4
> <PUBCHEM_MOLECULAR_WEIGHT>
314.38
> <PUBCHEM_OPENEYE_CAN_SMILES>
CCN(C(C)C)C(=O)N1CC(C(C1CNC(=O)C)N)C(=O)O
> <PUBCHEM_OPENEYE_ISO_SMILES>
CCN(C(C)C)C(=O)N1C[C@@H]([C@@H]([C@@H]1CNC(=O)C)N)C(=O)O
> <PUBCHEM_CACTVS_TPSA>
116
> <PUBCHEM_MONOISOTOPIC_WEIGHT>
314.19540532
> <PUBCHEM_TOTAL_CHARGE>
0
> <PUBCHEM_HEAVY_ATOM_COUNT>
22
> <PUBCHEM_ATOM_DEF_STEREO_COUNT>
3
> <PUBCHEM_ATOM_UDEF_STEREO_COUNT>
0
> <PUBCHEM_BOND_DEF_STEREO_COUNT>
0
> <PUBCHEM_BOND_UDEF_STEREO_COUNT>
0
> <PUBCHEM_ISOTOPIC_ATOM_COUNT>
0
> <PUBCHEM_COMPONENT_COUNT>
1
> <PUBCHEM_CACTVS_TAUTO_COUNT>
-1
> <PUBCHEM_COORDINATE_TYPE>
1
5
255
> <PUBCHEM_BONDANNOTATIONS>
11  15  5
10  6  5
9  13  5
$$$$
