505867
  -OEChem-10302200282D
 74 78  0     1  0  0  0  0  0999 V2000
    3.1687   -0.9129    0.0000 O   0  0  0  0  0  0  0  0  0  0  0  0
    4.5700   -1.9309    0.0000 N   0  0  0  0  0  0  0  0  0  0  0  0
    7.0187   -0.0945    0.0000 N   0  0  0  0  0  0  0  0  0  0  0  0
    7.0187    2.9055    0.0000 N   0  0  3  0  0  0  0  0  0  0  0  0
    8.7508    2.9055    0.0000 N   0  0  0  0  0  0  0  0  0  0  0  0
    6.1527   -1.5945    0.0000 C   0  0  2  0  0  0  0  0  0  0  0  0
    6.0481   -2.5891    0.0000 C   0  0  2  0  0  0  0  0  0  0  0  0
    5.2391   -1.1878    0.0000 C   0  0  0  0  0  0  0  0  0  0  0  0
    5.0700   -2.7970    0.0000 C   0  0  0  0  0  0  0  0  0  0  0  0
    7.0187   -1.0945    0.0000 C   0  0  0  0  0  0  0  0  0  0  0  0
    2.9877   -2.6354    0.0000 C   0  0  0  0  0  0  0  0  0  0  0  0
    3.5755   -1.8264    0.0000 C   0  0  0  0  0  0  0  0  0  0  0  0
    2.0000   -2.7919    0.0000 C   0  0  0  0  0  0  0  0  0  0  0  0
    3.1441   -3.6231    0.0000 C   0  0  0  0  0  0  0  0  0  0  0  0
    6.1527    0.4055    0.0000 C   0  0  0  0  0  0  0  0  0  0  0  0
    7.8847    0.4055    0.0000 C   0  0  0  0  0  0  0  0  0  0  0  0
    7.0187    1.9055    0.0000 C   0  0  0  0  0  0  0  0  0  0  0  0
    6.7913   -3.2582    0.0000 C   0  0  0  0  0  0  0  0  0  0  0  0
    2.1564   -3.7796    0.0000 C   0  0  0  0  0  0  0  0  0  0  0  0
    6.1527    1.4055    0.0000 C   0  0  0  0  0  0  0  0  0  0  0  0
    7.8847    1.4055    0.0000 C   0  0  0  0  0  0  0  0  0  0  0  0
    6.5834   -4.2363    0.0000 C   0  0  0  0  0  0  0  0  0  0  0  0
    7.7423   -2.9492    0.0000 C   0  0  0  0  0  0  0  0  0  0  0  0
    6.1527    3.4055    0.0000 C   0  0  0  0  0  0  0  0  0  0  0  0
    7.8847    3.4055    0.0000 C   0  0  0  0  0  0  0  0  0  0  0  0
    7.3265   -4.9055    0.0000 C   0  0  0  0  0  0  0  0  0  0  0  0
    8.4855   -3.6183    0.0000 C   0  0  0  0  0  0  0  0  0  0  0  0
    6.1527    4.4055    0.0000 C   0  0  0  0  0  0  0  0  0  0  0  0
    8.2776   -4.5964    0.0000 C   0  0  0  0  0  0  0  0  0  0  0  0
    7.8847    4.4055    0.0000 C   0  0  0  0  0  0  0  0  0  0  0  0
    5.2866    4.9055    0.0000 C   0  0  0  0  0  0  0  0  0  0  0  0
    8.7508    4.9055    0.0000 C   0  0  0  0  0  0  0  0  0  0  0  0
    9.6168    3.4055    0.0000 C   0  0  0  0  0  0  0  0  0  0  0  0
    9.6168    4.4055    0.0000 C   0  0  0  0  0  0  0  0  0  0  0  0
    6.6726   -1.9322    0.0000 H   0  0  0  0  0  0  0  0  0  0  0  0
    5.8877   -3.1879    0.0000 H   0  0  0  0  0  0  0  0  0  0  0  0
    5.5491   -0.6509    0.0000 H   0  0  0  0  0  0  0  0  0  0  0  0
    4.7375   -0.8234    0.0000 H   0  0  0  0  0  0  0  0  0  0  0  0
    4.5036   -3.0491    0.0000 H   0  0  0  0  0  0  0  0  0  0  0  0
    5.2616   -3.3866    0.0000 H   0  0  0  0  0  0  0  0  0  0  0  0
    7.2308   -1.6771    0.0000 H   0  0  0  0  0  0  0  0  0  0  0  0
    7.6293   -0.9869    0.0000 H   0  0  0  0  0  0  0  0  0  0  0  0
    2.6637   -2.1068    0.0000 H   0  0  0  0  0  0  0  0  0  0  0  0
    1.9030   -2.1795    0.0000 H   0  0  0  0  0  0  0  0  0  0  0  0
    1.3876   -2.8889    0.0000 H   0  0  0  0  0  0  0  0  0  0  0  0
    3.2411   -4.2355    0.0000 H   0  0  0  0  0  0  0  0  0  0  0  0
    3.7565   -3.5261    0.0000 H   0  0  0  0  0  0  0  0  0  0  0  0
    5.5421    0.5131    0.0000 H   0  0  0  0  0  0  0  0  0  0  0  0
    5.9406   -0.1771    0.0000 H   0  0  0  0  0  0  0  0  0  0  0  0
    8.0968   -0.1771    0.0000 H   0  0  0  0  0  0  0  0  0  0  0  0
    8.4953    0.5131    0.0000 H   0  0  0  0  0  0  0  0  0  0  0  0
    7.5556    2.2155    0.0000 H   0  0  0  0  0  0  0  0  0  0  0  0
    1.5441   -3.8765    0.0000 H   0  0  0  0  0  0  0  0  0  0  0  0
    2.2534   -4.3919    0.0000 H   0  0  0  0  0  0  0  0  0  0  0  0
    5.9406    1.9881    0.0000 H   0  0  0  0  0  0  0  0  0  0  0  0
    5.5421    1.2978    0.0000 H   0  0  0  0  0  0  0  0  0  0  0  0
    8.4953    1.2978    0.0000 H   0  0  0  0  0  0  0  0  0  0  0  0
    8.0968    1.9881    0.0000 H   0  0  0  0  0  0  0  0  0  0  0  0
    5.9937   -4.4279    0.0000 H   0  0  0  0  0  0  0  0  0  0  0  0
    7.8712   -2.3427    0.0000 H   0  0  0  0  0  0  0  0  0  0  0  0
    5.5421    3.5131    0.0000 H   0  0  0  0  0  0  0  0  0  0  0  0
    5.9406    2.8229    0.0000 H   0  0  0  0  0  0  0  0  0  0  0  0
    7.1976   -5.5119    0.0000 H   0  0  0  0  0  0  0  0  0  0  0  0
    9.0751   -3.4267    0.0000 H   0  0  0  0  0  0  0  0  0  0  0  0
    6.7632    4.2978    0.0000 H   0  0  0  0  0  0  0  0  0  0  0  0
    6.3647    4.9881    0.0000 H   0  0  0  0  0  0  0  0  0  0  0  0
    8.7383   -5.0113    0.0000 H   0  0  0  0  0  0  0  0  0  0  0  0
    7.3478    4.7155    0.0000 H   0  0  0  0  0  0  0  0  0  0  0  0
    5.5966    5.4424    0.0000 H   0  0  0  0  0  0  0  0  0  0  0  0
    4.7497    5.2155    0.0000 H   0  0  0  0  0  0  0  0  0  0  0  0
    4.9766    4.3685    0.0000 H   0  0  0  0  0  0  0  0  0  0  0  0
    8.7508    5.5255    0.0000 H   0  0  0  0  0  0  0  0  0  0  0  0
   10.1537    3.0955    0.0000 H   0  0  0  0  0  0  0  0  0  0  0  0
   10.1537    4.7155    0.0000 H   0  0  0  0  0  0  0  0  0  0  0  0
  1 12  2  0  0  0  0
  2  8  1  0  0  0  0
  2  9  1  0  0  0  0
  2 12  1  0  0  0  0
  3 10  1  0  0  0  0
  3 15  1  0  0  0  0
  3 16  1  0  0  0  0
  4 17  1  0  0  0  0
  4 24  1  0  0  0  0
  4 25  1  0  0  0  0
  5 25  1  0  0  0  0
  5 33  2  0  0  0  0
  6  7  1  0  0  0  0
  6  8  1  0  0  0  0
  6 10  1  6  0  0  0
  6 35  1  0  0  0  0
  7  9  1  0  0  0  0
  7 18  1  1  0  0  0
  7 36  1  0  0  0  0
  8 37  1  0  0  0  0
  8 38  1  0  0  0  0
  9 39  1  0  0  0  0
  9 40  1  0  0  0  0
 10 41  1  0  0  0  0
 10 42  1  0  0  0  0
 11 12  1  0  0  0  0
 11 13  1  0  0  0  0
 11 14  1  0  0  0  0
 11 43  1  0  0  0  0
 13 19  1  0  0  0  0
 13 44  1  0  0  0  0
 13 45  1  0  0  0  0
 14 19  1  0  0  0  0
 14 46  1  0  0  0  0
 14 47  1  0  0  0  0
 15 20  1  0  0  0  0
 15 48  1  0  0  0  0
 15 49  1  0  0  0  0
 16 21  1  0  0  0  0
 16 50  1  0  0  0  0
 16 51  1  0  0  0  0
 17 20  1  0  0  0  0
 17 21  1  0  0  0  0
 17 52  1  0  0  0  0
 18 22  2  0  0  0  0
 18 23  1  0  0  0  0
 19 53  1  0  0  0  0
 19 54  1  0  0  0  0
 20 55  1  0  0  0  0
 20 56  1  0  0  0  0
 21 57  1  0  0  0  0
 21 58  1  0  0  0  0
 22 26  1  0  0  0  0
 22 59  1  0  0  0  0
 23 27  2  0  0  0  0
 23 60  1  0  0  0  0
 24 28  1  0  0  0  0
 24 61  1  0  0  0  0
 24 62  1  0  0  0  0
 25 30  2  0  0  0  0
 26 29  2  0  0  0  0
 26 63  1  0  0  0  0
 27 29  1  0  0  0  0
 27 64  1  0  0  0  0
 28 31  1  0  0  0  0
 28 65  1  0  0  0  0
 28 66  1  0  0  0  0
 29 67  1  0  0  0  0
 30 32  1  0  0  0  0
 30 68  1  0  0  0  0
 31 69  1  0  0  0  0
 31 70  1  0  0  0  0
 31 71  1  0  0  0  0
 32 34  2  0  0  0  0
 32 72  1  0  0  0  0
 33 34  1  0  0  0  0
 33 73  1  0  0  0  0
 34 74  1  0  0  0  0
M  END
> <PUBCHEM_COMPOUND_CID>
505867
> <PUBCHEM_COMPOUND_CANONICALIZED>
1
> <PUBCHEM_CACTVS_COMPLEXITY>
638
> <PUBCHEM_CACTVS_HBOND_ACCEPTOR>
4
> <PUBCHEM_CACTVS_HBOND_DONOR>
0
> <PUBCHEM_CACTVS_ROTATABLE_BOND>
8
> <PUBCHEM_CACTVS_SUBSKEYS>
AAADcfB7oAAAAAAAAAAAAAAAAABgAWAAAAA8WIAAAAAAAAABwAAAHgAAAAAADSjBmgQ/sJMIEACoAjN3dACCgCkxAiAJ2CE4ZJiIIPLA2ZGEIAhohgLIyCcYgMAOgAAAAAAAAAAAAAAAAAAAAAAAAAAAAA==
> <PUBCHEM_IUPAC_OPENEYE_NAME>
cyclobutyl-[(3S,4S)-3-phenyl-4-[[4-[propyl(2-pyridyl)amino]-1-piperidyl]methyl]pyrrolidin-1-yl]methanone
> <PUBCHEM_IUPAC_CAS_NAME>
cyclobutyl-[(3S,4S)-3-phenyl-4-[[4-[propyl(2-pyridinyl)amino]-1-piperidinyl]methyl]-1-pyrrolidinyl]methanone
> <PUBCHEM_IUPAC_NAME_MARKUP>
cyclobutyl-[(3<I>S</I>,4<I>S</I>)-3-phenyl-4-[[4-[propyl(pyridin-2-yl)amino]piperidin-1-yl]methyl]pyrrolidin-1-yl]methanone
> <PUBCHEM_IUPAC_NAME>
cyclobutyl-[(3S,4S)-3-phenyl-4-[[4-[propyl(pyridin-2-yl)amino]piperidin-1-yl]methyl]pyrrolidin-1-yl]methanone
> <PUBCHEM_IUPAC_SYSTEMATIC_NAME>
cyclobutyl-[(3S,4S)-3-phenyl-4-[[4-[propyl(pyridin-2-yl)amino]piperidin-1-yl]methyl]pyrrolidin-1-yl]methanone
> <PUBCHEM_IUPAC_TRADITIONAL_NAME>
cyclobutyl-[(3S,4S)-3-phenyl-4-[[4-[propyl(2-pyridyl)amino]piperidino]methyl]pyrrolidino]methanone
> <PUBCHEM_IUPAC_INCHI>
InChI=1S/C29H40N4O/c1-2-17-33(28-13-6-7-16-30-28)26-14-18-31(19-15-26)20-25-21-32(29(34)24-11-8-12-24)22-27(25)23-9-4-3-5-10-23/h3-7,9-10,13,16,24-27H,2,8,11-12,14-15,17-22H2,1H3/t25-,27+/m0/s1
> <PUBCHEM_IUPAC_INCHIKEY>
OAXSOMBRDKAEHG-AHKZPQOWSA-N
> <PUBCHEM_XLOGP3_AA>
5.1
> <PUBCHEM_EXACT_MASS>
460.32021191
> <PUBCHEM_MOLECULAR_FORMULA>
C29H40N4O
> <PUBCHEM_MOLECULAR_WEIGHT>
460.7
> <PUBCHEM_OPENEYE_CAN_SMILES>
CCCN(C1CCN(CC1)CC2CN(CC2C3=CC=CC=C3)C(=O)C4CCC4)C5=CC=CC=N5
> <PUBCHEM_OPENEYE_ISO_SMILES>
CCCN(C1CCN(CC1)C[C@H]2CN(C[C@@H]2C3=CC=CC=C3)C(=O)C4CCC4)C5=CC=CC=N5
> <PUBCHEM_CACTVS_TPSA>
39.7
> <PUBCHEM_MONOISOTOPIC_WEIGHT>
460.32021191
> <PUBCHEM_TOTAL_CHARGE>
0
> <PUBCHEM_HEAVY_ATOM_COUNT>
34
> <PUBCHEM_ATOM_DEF_STEREO_COUNT>
2
> <PUBCHEM_ATOM_UDEF_STEREO_COUNT>
0
> <PUBCHEM_BOND_DEF_STEREO_COUNT>
0
> <PUBCHEM_BOND_UDEF_STEREO_COUNT>
0
> <PUBCHEM_ISOTOPIC_ATOM_COUNT>
0
> <PUBCHEM_COMPONENT_COUNT>
1
> <PUBCHEM_CACTVS_TAUTO_COUNT>
-1
> <PUBCHEM_COORDINATE_TYPE>
1
5
255
> <PUBCHEM_BONDANNOTATIONS>
18  22  8
18  23  8
22  26  8
23  27  8
25  30  8
26  29  8
27  29  8
30  32  8
32  34  8
33  34  8
5  25  8
5  33  8
6  10  6
7  18  5
$$$$
