505914
  -OEChem-10302200282D
 46 47  0     1  0  0  0  0  0999 V2000
    5.1350   -1.0194    0.0000 O   0  0  0  0  0  0  0  0  0  0  0  0
    6.0010    1.4806    0.0000 O   0  0  0  0  0  0  0  0  0  0  0  0
    6.8671   -1.0194    0.0000 O   0  0  0  0  0  0  0  0  0  0  0  0
    2.5089    1.7594    0.0000 O   0  0  0  0  0  0  0  0  0  0  0  0
    8.5991   -0.0194    0.0000 O   0  0  0  0  0  0  0  0  0  0  0  0
    4.2690    1.4806    0.0000 N   0  0  0  0  0  0  0  0  0  0  0  0
    2.5369    0.4806    0.0000 N   0  0  0  0  0  0  0  0  0  0  0  0
    4.2690    0.4806    0.0000 C   0  0  1  0  0  0  0  0  0  0  0  0
    5.1350   -0.0194    0.0000 C   0  0  2  0  0  0  0  0  0  0  0  0
    3.4030   -0.0194    0.0000 C   0  0  2  0  0  0  0  0  0  0  0  0
    6.0010    0.4806    0.0000 C   0  0  1  0  0  0  0  0  0  0  0  0
    5.0780    2.0684    0.0000 C   0  0  0  0  0  0  0  0  0  0  0  0
    4.7690    3.0194    0.0000 C   0  0  0  0  0  0  0  0  0  0  0  0
    3.4600    2.0684    0.0000 C   0  0  0  0  0  0  0  0  0  0  0  0
    3.7690    3.0194    0.0000 C   0  0  0  0  0  0  0  0  0  0  0  0
    3.4030   -1.0194    0.0000 C   0  0  0  0  0  0  0  0  0  0  0  0
    6.8671   -0.0194    0.0000 C   0  0  1  0  0  0  0  0  0  0  0  0
    4.2690   -1.5194    0.0000 C   0  0  0  0  0  0  0  0  0  0  0  0
    7.7331    0.4806    0.0000 C   0  0  0  0  0  0  0  0  0  0  0  0
    4.2690   -2.5194    0.0000 C   0  0  0  0  0  0  0  0  0  0  0  0
    3.4030   -3.0194    0.0000 C   0  0  0  0  0  0  0  0  0  0  0  0
    5.1350   -3.0194    0.0000 C   0  0  0  0  0  0  0  0  0  0  0  0
    4.8059    0.7906    0.0000 H   0  0  0  0  0  0  0  0  0  0  0  0
    5.8711   -0.4444    0.0000 H   0  0  0  0  0  0  0  0  0  0  0  0
    3.4030    0.6006    0.0000 H   0  0  0  0  0  0  0  0  0  0  0  0
    6.5380    0.7906    0.0000 H   0  0  0  0  0  0  0  0  0  0  0  0
    5.3880    1.5314    0.0000 H   0  0  0  0  0  0  0  0  0  0  0  0
    5.6444    2.3205    0.0000 H   0  0  0  0  0  0  0  0  0  0  0  0
    5.3754    3.1483    0.0000 H   0  0  0  0  0  0  0  0  0  0  0  0
    4.7042    3.6360    0.0000 H   0  0  0  0  0  0  0  0  0  0  0  0
    3.8338    3.6360    0.0000 H   0  0  0  0  0  0  0  0  0  0  0  0
    3.1625    3.1483    0.0000 H   0  0  0  0  0  0  0  0  0  0  0  0
    2.8660   -1.3294    0.0000 H   0  0  0  0  0  0  0  0  0  0  0  0
    6.3301   -0.3294    0.0000 H   0  0  0  0  0  0  0  0  0  0  0  0
    2.0000    0.1706    0.0000 H   0  0  0  0  0  0  0  0  0  0  0  0
    2.5369    1.1006    0.0000 H   0  0  0  0  0  0  0  0  0  0  0  0
    8.1316    0.9555    0.0000 H   0  0  0  0  0  0  0  0  0  0  0  0
    7.3346    0.9555    0.0000 H   0  0  0  0  0  0  0  0  0  0  0  0
    6.5380    1.7906    0.0000 H   0  0  0  0  0  0  0  0  0  0  0  0
    7.4040   -1.3294    0.0000 H   0  0  0  0  0  0  0  0  0  0  0  0
    3.0930   -2.4825    0.0000 H   0  0  0  0  0  0  0  0  0  0  0  0
    2.8660   -3.3294    0.0000 H   0  0  0  0  0  0  0  0  0  0  0  0
    3.7130   -3.5564    0.0000 H   0  0  0  0  0  0  0  0  0  0  0  0
    5.1350   -3.6394    0.0000 H   0  0  0  0  0  0  0  0  0  0  0  0
    5.6720   -2.7094    0.0000 H   0  0  0  0  0  0  0  0  0  0  0  0
    9.1360    0.2906    0.0000 H   0  0  0  0  0  0  0  0  0  0  0  0
  1  9  1  0  0  0  0
  1 18  1  0  0  0  0
 11  2  1  6  0  0  0
  2 39  1  0  0  0  0
 17  3  1  1  0  0  0
  3 40  1  0  0  0  0
  4 14  2  0  0  0  0
  5 19  1  0  0  0  0
  5 46  1  0  0  0  0
  8  6  1  1  0  0  0
  6 12  1  0  0  0  0
  6 14  1  0  0  0  0
 10  7  1  6  0  0  0
  7 35  1  0  0  0  0
  7 36  1  0  0  0  0
  8  9  1  0  0  0  0
  8 10  1  0  0  0  0
  8 23  1  0  0  0  0
  9 11  1  0  0  0  0
  9 24  1  1  0  0  0
 10 16  1  0  0  0  0
 10 25  1  0  0  0  0
 11 17  1  0  0  0  0
 11 26  1  0  0  0  0
 12 13  1  0  0  0  0
 12 27  1  0  0  0  0
 12 28  1  0  0  0  0
 13 15  1  0  0  0  0
 13 29  1  0  0  0  0
 13 30  1  0  0  0  0
 14 15  1  0  0  0  0
 15 31  1  0  0  0  0
 15 32  1  0  0  0  0
 16 18  2  0  0  0  0
 16 33  1  0  0  0  0
 17 19  1  0  0  0  0
 17 34  1  0  0  0  0
 18 20  1  0  0  0  0
 19 37  1  0  0  0  0
 19 38  1  0  0  0  0
 20 21  1  0  0  0  0
 20 22  2  0  0  0  0
 21 41  1  0  0  0  0
 21 42  1  0  0  0  0
 21 43  1  0  0  0  0
 22 44  1  0  0  0  0
 22 45  1  0  0  0  0
M  END
> <PUBCHEM_COMPOUND_CID>
505914
> <PUBCHEM_COMPOUND_CANONICALIZED>
1
> <PUBCHEM_CACTVS_COMPLEXITY>
479
> <PUBCHEM_CACTVS_HBOND_ACCEPTOR>
6
> <PUBCHEM_CACTVS_HBOND_DONOR>
4
> <PUBCHEM_CACTVS_ROTATABLE_BOND>
5
> <PUBCHEM_CACTVS_SUBSKEYS>
AAADceBzOAAAAAAAAAAAAAAAAAAAAWAAAAAgAAAAAAAAAAAAAAAAHgAQCAAADDzhgAYCAANABgCIAiFSEACACAAgIAAACIEIAAgLVBIAoQAXQAAHlgCboAP00CMAAAAAAAAAAAAAAAAAAAAAAAAAAAAAAA==
> <PUBCHEM_IUPAC_OPENEYE_NAME>
1-[(2R,3R,4S)-4-amino-6-isopropenyl-2-[(1R,2R)-1,2,3-trihydroxypropyl]-3,4-dihydro-2H-pyran-3-yl]pyrrolidin-2-one
> <PUBCHEM_IUPAC_CAS_NAME>
1-[(2R,3R,4S)-4-amino-6-(1-methylethenyl)-2-[(1R,2R)-1,2,3-trihydroxypropyl]-3,4-dihydro-2H-pyran-3-yl]-2-pyrrolidinone
> <PUBCHEM_IUPAC_NAME_MARKUP>
1-[(2<I>R</I>,3<I>R</I>,4<I>S</I>)-4-amino-6-prop-1-en-2-yl-2-[(1<I>R</I>,2<I>R</I>)-1,2,3-trihydroxypropyl]-3,4-dihydro-2<I>H</I>-pyran-3-yl]pyrrolidin-2-one
> <PUBCHEM_IUPAC_NAME>
1-[(2R,3R,4S)-4-amino-6-prop-1-en-2-yl-2-[(1R,2R)-1,2,3-trihydroxypropyl]-3,4-dihydro-2H-pyran-3-yl]pyrrolidin-2-one
> <PUBCHEM_IUPAC_SYSTEMATIC_NAME>
1-[(2R,3R,4S)-4-azanyl-6-prop-1-en-2-yl-2-[(1R,2R)-1,2,3-tris(oxidanyl)propyl]-3,4-dihydro-2H-pyran-3-yl]pyrrolidin-2-one
> <PUBCHEM_IUPAC_TRADITIONAL_NAME>
1-[(2R,3R,4S)-4-amino-6-isopropenyl-2-[(1R,2R)-1,2,3-trihydroxypropyl]-3,4-dihydro-2H-pyran-3-yl]-2-pyrrolidone
> <PUBCHEM_IUPAC_INCHI>
InChI=1S/C15H24N2O5/c1-8(2)11-6-9(16)13(17-5-3-4-12(17)20)15(22-11)14(21)10(19)7-18/h6,9-10,13-15,18-19,21H,1,3-5,7,16H2,2H3/t9-,10+,13+,14+,15+/m0/s1
> <PUBCHEM_IUPAC_INCHIKEY>
SGFBIDGDFXLTFR-HFTJKPBSSA-N
> <PUBCHEM_XLOGP3_AA>
-1.4
> <PUBCHEM_EXACT_MASS>
312.16852187
> <PUBCHEM_MOLECULAR_FORMULA>
C15H24N2O5
> <PUBCHEM_MOLECULAR_WEIGHT>
312.36
> <PUBCHEM_OPENEYE_CAN_SMILES>
CC(=C)C1=CC(C(C(O1)C(C(CO)O)O)N2CCCC2=O)N
> <PUBCHEM_OPENEYE_ISO_SMILES>
CC(=C)C1=C[C@@H]([C@H]([C@@H](O1)[C@@H]([C@@H](CO)O)O)N2CCCC2=O)N
> <PUBCHEM_CACTVS_TPSA>
116
> <PUBCHEM_MONOISOTOPIC_WEIGHT>
312.16852187
> <PUBCHEM_TOTAL_CHARGE>
0
> <PUBCHEM_HEAVY_ATOM_COUNT>
22
> <PUBCHEM_ATOM_DEF_STEREO_COUNT>
5
> <PUBCHEM_ATOM_UDEF_STEREO_COUNT>
0
> <PUBCHEM_BOND_DEF_STEREO_COUNT>
0
> <PUBCHEM_BOND_UDEF_STEREO_COUNT>
0
> <PUBCHEM_ISOTOPIC_ATOM_COUNT>
0
> <PUBCHEM_COMPONENT_COUNT>
1
> <PUBCHEM_CACTVS_TAUTO_COUNT>
-1
> <PUBCHEM_COORDINATE_TYPE>
1
5
255
> <PUBCHEM_BONDANNOTATIONS>
11  2  6
17  3  5
8  6  5
10  7  6
9  24  5
$$$$
