505912
  -OEChem-10302200282D
 46 47  0     1  0  0  0  0  0999 V2000
    5.1350   -1.6160    0.0000 O   0  0  0  0  0  0  0  0  0  0  0  0
    6.0010    0.8840    0.0000 O   0  0  0  0  0  0  0  0  0  0  0  0
    2.7690    1.7501    0.0000 O   0  0  0  0  0  0  0  0  0  0  0  0
    6.8671   -1.6160    0.0000 O   0  0  0  0  0  0  0  0  0  0  0  0
    8.5991   -0.6160    0.0000 O   0  0  0  0  0  0  0  0  0  0  0  0
    4.2690    0.8840    0.0000 N   0  0  0  0  0  0  0  0  0  0  0  0
    2.5369   -0.1160    0.0000 N   0  0  0  0  0  0  0  0  0  0  0  0
    4.2690    2.6160    0.0000 C   0  0  0  0  0  0  0  0  0  0  0  0
    5.1350    3.1160    0.0000 C   0  0  0  0  0  0  0  0  0  0  0  0
    4.2690    3.6160    0.0000 C   0  0  0  0  0  0  0  0  0  0  0  0
    4.2690   -0.1160    0.0000 C   0  0  1  0  0  0  0  0  0  0  0  0
    5.1350   -0.6160    0.0000 C   0  0  2  0  0  0  0  0  0  0  0  0
    3.7690    1.7500    0.0000 C   0  0  0  0  0  0  0  0  0  0  0  0
    3.4030   -0.6160    0.0000 C   0  0  2  0  0  0  0  0  0  0  0  0
    6.0010   -0.1160    0.0000 C   0  0  1  0  0  0  0  0  0  0  0  0
    6.8671   -0.6160    0.0000 C   0  0  1  0  0  0  0  0  0  0  0  0
    3.4030   -1.6160    0.0000 C   0  0  0  0  0  0  0  0  0  0  0  0
    4.2690   -2.1160    0.0000 C   0  0  0  0  0  0  0  0  0  0  0  0
    7.7331   -0.1160    0.0000 C   0  0  0  0  0  0  0  0  0  0  0  0
    4.2690   -3.1160    0.0000 C   0  0  0  0  0  0  0  0  0  0  0  0
    3.4030   -3.6160    0.0000 C   0  0  0  0  0  0  0  0  0  0  0  0
    5.1350   -3.6160    0.0000 C   0  0  0  0  0  0  0  0  0  0  0  0
    4.7074    2.1776    0.0000 H   0  0  0  0  0  0  0  0  0  0  0  0
    5.5335    2.6411    0.0000 H   0  0  0  0  0  0  0  0  0  0  0  0
    5.5335    3.5910    0.0000 H   0  0  0  0  0  0  0  0  0  0  0  0
    4.4810    4.1986    0.0000 H   0  0  0  0  0  0  0  0  0  0  0  0
    3.6584    3.7237    0.0000 H   0  0  0  0  0  0  0  0  0  0  0  0
    4.8059    0.1940    0.0000 H   0  0  0  0  0  0  0  0  0  0  0  0
    5.8711   -1.0410    0.0000 H   0  0  0  0  0  0  0  0  0  0  0  0
    3.4030    0.0040    0.0000 H   0  0  0  0  0  0  0  0  0  0  0  0
    4.8059    1.1940    0.0000 H   0  0  0  0  0  0  0  0  0  0  0  0
    6.5380    0.1940    0.0000 H   0  0  0  0  0  0  0  0  0  0  0  0
    6.3301   -0.9260    0.0000 H   0  0  0  0  0  0  0  0  0  0  0  0
    2.8660   -1.9260    0.0000 H   0  0  0  0  0  0  0  0  0  0  0  0
    2.0000   -0.4260    0.0000 H   0  0  0  0  0  0  0  0  0  0  0  0
    2.2269    0.4209    0.0000 H   0  0  0  0  0  0  0  0  0  0  0  0
    8.1316    0.3589    0.0000 H   0  0  0  0  0  0  0  0  0  0  0  0
    7.3346    0.3589    0.0000 H   0  0  0  0  0  0  0  0  0  0  0  0
    6.5380    1.1940    0.0000 H   0  0  0  0  0  0  0  0  0  0  0  0
    7.4040   -1.9260    0.0000 H   0  0  0  0  0  0  0  0  0  0  0  0
    3.0930   -3.0791    0.0000 H   0  0  0  0  0  0  0  0  0  0  0  0
    2.8660   -3.9260    0.0000 H   0  0  0  0  0  0  0  0  0  0  0  0
    3.7130   -4.1530    0.0000 H   0  0  0  0  0  0  0  0  0  0  0  0
    5.1350   -4.2360    0.0000 H   0  0  0  0  0  0  0  0  0  0  0  0
    5.6720   -3.3060    0.0000 H   0  0  0  0  0  0  0  0  0  0  0  0
    9.1360   -0.3060    0.0000 H   0  0  0  0  0  0  0  0  0  0  0  0
  1 12  1  0  0  0  0
  1 18  1  0  0  0  0
 15  2  1  6  0  0  0
  2 39  1  0  0  0  0
  3 13  2  0  0  0  0
 16  4  1  1  0  0  0
  4 40  1  0  0  0  0
  5 19  1  0  0  0  0
  5 46  1  0  0  0  0
 11  6  1  1  0  0  0
  6 13  1  0  0  0  0
  6 31  1  0  0  0  0
 14  7  1  6  0  0  0
  7 35  1  0  0  0  0
  7 36  1  0  0  0  0
  8  9  1  0  0  0  0
  8 10  1  0  0  0  0
  8 13  1  0  0  0  0
  8 23  1  0  0  0  0
  9 10  1  0  0  0  0
  9 24  1  0  0  0  0
  9 25  1  0  0  0  0
 10 26  1  0  0  0  0
 10 27  1  0  0  0  0
 11 12  1  0  0  0  0
 11 14  1  0  0  0  0
 11 28  1  0  0  0  0
 12 15  1  0  0  0  0
 12 29  1  1  0  0  0
 14 17  1  0  0  0  0
 14 30  1  0  0  0  0
 15 16  1  0  0  0  0
 15 32  1  0  0  0  0
 16 19  1  0  0  0  0
 16 33  1  0  0  0  0
 17 18  2  0  0  0  0
 17 34  1  0  0  0  0
 18 20  1  0  0  0  0
 19 37  1  0  0  0  0
 19 38  1  0  0  0  0
 20 21  1  0  0  0  0
 20 22  2  0  0  0  0
 21 41  1  0  0  0  0
 21 42  1  0  0  0  0
 21 43  1  0  0  0  0
 22 44  1  0  0  0  0
 22 45  1  0  0  0  0
M  END
> <PUBCHEM_COMPOUND_CID>
505912
> <PUBCHEM_COMPOUND_CANONICALIZED>
1
> <PUBCHEM_CACTVS_COMPLEXITY>
475
> <PUBCHEM_CACTVS_HBOND_ACCEPTOR>
6
> <PUBCHEM_CACTVS_HBOND_DONOR>
5
> <PUBCHEM_CACTVS_ROTATABLE_BOND>
6
> <PUBCHEM_CACTVS_SUBSKEYS>
AAADceBzOAAAAAAAAAAAAAAAGAAAAAAAAAAgAAAAAAAAAAAAAAAAHgAQCAAADTzhgAYCAALABgCIAiFSEACACAAgIAAACIEIAAgLVBIAoQAXQAAHlgCboAPw0CMAAAAAAAAAAAAAAAAAAAAAAAAAAAAAAA==
> <PUBCHEM_IUPAC_OPENEYE_NAME>
N-[(2R,3R,4S)-4-amino-6-isopropenyl-2-[(1R,2R)-1,2,3-trihydroxypropyl]-3,4-dihydro-2H-pyran-3-yl]cyclopropanecarboxamide
> <PUBCHEM_IUPAC_CAS_NAME>
N-[(2R,3R,4S)-4-amino-6-(1-methylethenyl)-2-[(1R,2R)-1,2,3-trihydroxypropyl]-3,4-dihydro-2H-pyran-3-yl]cyclopropanecarboxamide
> <PUBCHEM_IUPAC_NAME_MARKUP>
<I>N</I>-[(2<I>R</I>,3<I>R</I>,4<I>S</I>)-4-amino-6-prop-1-en-2-yl-2-[(1<I>R</I>,2<I>R</I>)-1,2,3-trihydroxypropyl]-3,4-dihydro-2<I>H</I>-pyran-3-yl]cyclopropanecarboxamide
> <PUBCHEM_IUPAC_NAME>
N-[(2R,3R,4S)-4-amino-6-prop-1-en-2-yl-2-[(1R,2R)-1,2,3-trihydroxypropyl]-3,4-dihydro-2H-pyran-3-yl]cyclopropanecarboxamide
> <PUBCHEM_IUPAC_SYSTEMATIC_NAME>
N-[(2R,3R,4S)-4-azanyl-6-prop-1-en-2-yl-2-[(1R,2R)-1,2,3-tris(oxidanyl)propyl]-3,4-dihydro-2H-pyran-3-yl]cyclopropanecarboxamide
> <PUBCHEM_IUPAC_TRADITIONAL_NAME>
N-[(2R,3R,4S)-4-amino-6-isopropenyl-2-[(1R,2R)-1,2,3-trihydroxypropyl]-3,4-dihydro-2H-pyran-3-yl]cyclopropanecarboxamide
> <PUBCHEM_IUPAC_INCHI>
InChI=1S/C15H24N2O5/c1-7(2)11-5-9(16)12(17-15(21)8-3-4-8)14(22-11)13(20)10(19)6-18/h5,8-10,12-14,18-20H,1,3-4,6,16H2,2H3,(H,17,21)/t9-,10+,12+,13+,14+/m0/s1
> <PUBCHEM_IUPAC_INCHIKEY>
YEUZLKPUBBCPKP-NRFQWKTPSA-N
> <PUBCHEM_XLOGP3_AA>
-0.6
> <PUBCHEM_EXACT_MASS>
312.16852187
> <PUBCHEM_MOLECULAR_FORMULA>
C15H24N2O5
> <PUBCHEM_MOLECULAR_WEIGHT>
312.36
> <PUBCHEM_OPENEYE_CAN_SMILES>
CC(=C)C1=CC(C(C(O1)C(C(CO)O)O)NC(=O)C2CC2)N
> <PUBCHEM_OPENEYE_ISO_SMILES>
CC(=C)C1=C[C@@H]([C@H]([C@@H](O1)[C@@H]([C@@H](CO)O)O)NC(=O)C2CC2)N
> <PUBCHEM_CACTVS_TPSA>
125
> <PUBCHEM_MONOISOTOPIC_WEIGHT>
312.16852187
> <PUBCHEM_TOTAL_CHARGE>
0
> <PUBCHEM_HEAVY_ATOM_COUNT>
22
> <PUBCHEM_ATOM_DEF_STEREO_COUNT>
5
> <PUBCHEM_ATOM_UDEF_STEREO_COUNT>
0
> <PUBCHEM_BOND_DEF_STEREO_COUNT>
0
> <PUBCHEM_BOND_UDEF_STEREO_COUNT>
0
> <PUBCHEM_ISOTOPIC_ATOM_COUNT>
0
> <PUBCHEM_COMPONENT_COUNT>
1
> <PUBCHEM_CACTVS_TAUTO_COUNT>
-1
> <PUBCHEM_COORDINATE_TYPE>
1
5
255
> <PUBCHEM_BONDANNOTATIONS>
12  29  5
15  2  6
16  4  5
11  6  5
14  7  6
$$$$
