505904
  -OEChem-10302200282D
 36 36  0     1  0  0  0  0  0999 V2000
    6.8671   -1.7500    0.0000 O   0  0  0  0  0  0  0  0  0  0  0  0
    5.1350   -2.7500    0.0000 O   0  0  0  0  0  0  0  0  0  0  0  0
    4.2690   -0.2500    0.0000 O   0  0  0  0  0  0  0  0  0  0  0  0
    2.5369   -1.2500    0.0000 O   0  0  0  0  0  0  0  0  0  0  0  0
    9.4651   -1.2500    0.0000 O   0  0  0  0  0  0  0  0  0  0  0  0
    8.5991   -2.7500    0.0000 O   0  0  0  0  0  0  0  0  0  0  0  0
    6.8671    1.2500    0.0000 N   0  0  0  0  0  0  0  0  0  0  0  0
    7.7331    2.7500    0.0000 N   0  0  0  0  0  0  0  0  0  0  0  0
    8.5991    1.2500    0.0000 N   0  0  0  0  0  0  0  0  0  0  0  0
    6.0010   -1.2500    0.0000 C   0  0  2  0  0  0  0  0  0  0  0  0
    6.0010   -0.2500    0.0000 C   0  0  0  0  0  0  0  0  0  0  0  0
    5.1350   -1.7500    0.0000 C   0  0  1  0  0  0  0  0  0  0  0  0
    6.8671    0.2500    0.0000 C   0  0  2  0  0  0  0  0  0  0  0  0
    4.2690   -1.2500    0.0000 C   0  0  1  0  0  0  0  0  0  0  0  0
    7.7331   -0.2500    0.0000 C   0  0  0  0  0  0  0  0  0  0  0  0
    7.7331   -1.2500    0.0000 C   0  0  0  0  0  0  0  0  0  0  0  0
    3.4030   -1.7500    0.0000 C   0  0  0  0  0  0  0  0  0  0  0  0
    8.5991   -1.7500    0.0000 C   0  0  0  0  0  0  0  0  0  0  0  0
    7.7331    1.7500    0.0000 C   0  0  0  0  0  0  0  0  0  0  0  0
    6.7372   -0.8250    0.0000 H   0  0  0  0  0  0  0  0  0  0  0  0
    5.7890    0.3326    0.0000 H   0  0  0  0  0  0  0  0  0  0  0  0
    5.3905   -0.3577    0.0000 H   0  0  0  0  0  0  0  0  0  0  0  0
    5.6720   -2.0600    0.0000 H   0  0  0  0  0  0  0  0  0  0  0  0
    6.3301    0.5600    0.0000 H   0  0  0  0  0  0  0  0  0  0  0  0
    4.8059   -0.9400    0.0000 H   0  0  0  0  0  0  0  0  0  0  0  0
    8.2700    0.0600    0.0000 H   0  0  0  0  0  0  0  0  0  0  0  0
    3.0044   -2.2250    0.0000 H   0  0  0  0  0  0  0  0  0  0  0  0
    3.8015   -2.2250    0.0000 H   0  0  0  0  0  0  0  0  0  0  0  0
    4.5981   -3.0600    0.0000 H   0  0  0  0  0  0  0  0  0  0  0  0
    3.7320    0.0600    0.0000 H   0  0  0  0  0  0  0  0  0  0  0  0
    2.0000   -1.5600    0.0000 H   0  0  0  0  0  0  0  0  0  0  0  0
   10.0021   -1.5600    0.0000 H   0  0  0  0  0  0  0  0  0  0  0  0
    8.2700    3.0600    0.0000 H   0  0  0  0  0  0  0  0  0  0  0  0
    7.1962    3.0600    0.0000 H   0  0  0  0  0  0  0  0  0  0  0  0
    9.1360    1.5600    0.0000 H   0  0  0  0  0  0  0  0  0  0  0  0
    8.5991    0.6300    0.0000 H   0  0  0  0  0  0  0  0  0  0  0  0
  1 10  1  0  0  0  0
  1 16  1  0  0  0  0
 12  2  1  6  0  0  0
  2 29  1  0  0  0  0
 14  3  1  1  0  0  0
  3 30  1  0  0  0  0
  4 17  1  0  0  0  0
  4 31  1  0  0  0  0
  5 18  1  0  0  0  0
  5 32  1  0  0  0  0
  6 18  2  0  0  0  0
 13  7  1  1  0  0  0
  7 19  2  0  0  0  0
  8 19  1  0  0  0  0
  8 33  1  0  0  0  0
  8 34  1  0  0  0  0
  9 19  1  0  0  0  0
  9 35  1  0  0  0  0
  9 36  1  0  0  0  0
 10 11  1  0  0  0  0
 10 12  1  0  0  0  0
 10 20  1  6  0  0  0
 11 13  1  0  0  0  0
 11 21  1  0  0  0  0
 11 22  1  0  0  0  0
 12 14  1  0  0  0  0
 12 23  1  0  0  0  0
 13 15  1  0  0  0  0
 13 24  1  0  0  0  0
 14 17  1  0  0  0  0
 14 25  1  0  0  0  0
 15 16  2  0  0  0  0
 15 26  1  0  0  0  0
 16 18  1  0  0  0  0
 17 27  1  0  0  0  0
 17 28  1  0  0  0  0
M  END
> <PUBCHEM_COMPOUND_CID>
505904
> <PUBCHEM_COMPOUND_CANONICALIZED>
1
> <PUBCHEM_CACTVS_COMPLEXITY>
393
> <PUBCHEM_CACTVS_HBOND_ACCEPTOR>
7
> <PUBCHEM_CACTVS_HBOND_DONOR>
6
> <PUBCHEM_CACTVS_ROTATABLE_BOND>
5
> <PUBCHEM_CACTVS_SUBSKEYS>
AAADceBzOAAAAAAAAAAAAAAAAAAAAAAAAAAgAAAAAAAAAAAAAAAAHgAQCAAACDzhgAYBCAJABgCoACDSLAKACAEgIAAACABAAEgBFAIAgAQCUAAHgAALEYPw0CEAAAAAAAAAAAAAAAAAAAAAAAAAAAAAAA==
> <PUBCHEM_IUPAC_OPENEYE_NAME>
(2R,4R)-4-guanidino-2-[(1R,2R)-1,2,3-trihydroxypropyl]-3,4-dihydro-2H-pyran-6-carboxylic acid
> <PUBCHEM_IUPAC_CAS_NAME>
(2R,4R)-4-(diaminomethylideneamino)-2-[(1R,2R)-1,2,3-trihydroxypropyl]-3,4-dihydro-2H-pyran-6-carboxylic acid
> <PUBCHEM_IUPAC_NAME_MARKUP>
(2<I>R</I>,4<I>R</I>)-4-(diaminomethylideneamino)-2-[(1<I>R</I>,2<I>R</I>)-1,2,3-trihydroxypropyl]-3,4-dihydro-2<I>H</I>-pyran-6-carboxylic acid
> <PUBCHEM_IUPAC_NAME>
(2R,4R)-4-(diaminomethylideneamino)-2-[(1R,2R)-1,2,3-trihydroxypropyl]-3,4-dihydro-2H-pyran-6-carboxylic acid
> <PUBCHEM_IUPAC_SYSTEMATIC_NAME>
(2R,4R)-4-[bis(azanyl)methylideneamino]-2-[(1R,2R)-1,2,3-tris(oxidanyl)propyl]-3,4-dihydro-2H-pyran-6-carboxylic acid
> <PUBCHEM_IUPAC_TRADITIONAL_NAME>
(2R,4R)-4-guanidino-2-[(1R,2R)-1,2,3-trihydroxypropyl]-3,4-dihydro-2H-pyran-6-carboxylic acid
> <PUBCHEM_IUPAC_INCHI>
InChI=1S/C10H17N3O6/c11-10(12)13-4-1-6(8(16)5(15)3-14)19-7(2-4)9(17)18/h2,4-6,8,14-16H,1,3H2,(H,17,18)(H4,11,12,13)/t4-,5-,6-,8-/m1/s1
> <PUBCHEM_IUPAC_INCHIKEY>
UDUVZAQULKWAOH-UAKXSSHOSA-N
> <PUBCHEM_XLOGP3_AA>
-2.8
> <PUBCHEM_EXACT_MASS>
275.11173527
> <PUBCHEM_MOLECULAR_FORMULA>
C10H17N3O6
> <PUBCHEM_MOLECULAR_WEIGHT>
275.26
> <PUBCHEM_OPENEYE_CAN_SMILES>
C1C(C=C(OC1C(C(CO)O)O)C(=O)O)N=C(N)N
> <PUBCHEM_OPENEYE_ISO_SMILES>
C1[C@H](C=C(O[C@H]1[C@@H]([C@@H](CO)O)O)C(=O)O)N=C(N)N
> <PUBCHEM_CACTVS_TPSA>
172
> <PUBCHEM_MONOISOTOPIC_WEIGHT>
275.11173527
> <PUBCHEM_TOTAL_CHARGE>
0
> <PUBCHEM_HEAVY_ATOM_COUNT>
19
> <PUBCHEM_ATOM_DEF_STEREO_COUNT>
4
> <PUBCHEM_ATOM_UDEF_STEREO_COUNT>
0
> <PUBCHEM_BOND_DEF_STEREO_COUNT>
0
> <PUBCHEM_BOND_UDEF_STEREO_COUNT>
0
> <PUBCHEM_ISOTOPIC_ATOM_COUNT>
0
> <PUBCHEM_COMPONENT_COUNT>
1
> <PUBCHEM_CACTVS_TAUTO_COUNT>
-1
> <PUBCHEM_COORDINATE_TYPE>
1
5
255
> <PUBCHEM_BONDANNOTATIONS>
10  20  6
12  2  6
14  3  5
13  7  5
$$$$
