505910
  -OEChem-10302200282D
 45 45  0     1  0  0  0  0  0999 V2000
    5.1350   -1.5490    0.0000 O   0  0  0  0  0  0  0  0  0  0  0  0
    6.0010    0.9510    0.0000 O   0  0  0  0  0  0  0  0  0  0  0  0
    6.8671   -1.5490    0.0000 O   0  0  0  0  0  0  0  0  0  0  0  0
    8.5991   -0.5490    0.0000 O   0  0  0  0  0  0  0  0  0  0  0  0
    2.7690    1.8171    0.0000 O   0  0  0  0  0  0  0  0  0  0  0  0
    4.2690    0.9510    0.0000 N   0  0  0  0  0  0  0  0  0  0  0  0
    2.5369   -0.0490    0.0000 N   0  0  0  0  0  0  0  0  0  0  0  0
    4.2690   -0.0490    0.0000 C   0  0  1  0  0  0  0  0  0  0  0  0
    5.1350   -0.5490    0.0000 C   0  0  2  0  0  0  0  0  0  0  0  0
    3.4030   -0.5490    0.0000 C   0  0  2  0  0  0  0  0  0  0  0  0
    6.0010   -0.0490    0.0000 C   0  0  1  0  0  0  0  0  0  0  0  0
    6.8671   -0.5490    0.0000 C   0  0  1  0  0  0  0  0  0  0  0  0
    3.4030   -1.5490    0.0000 C   0  0  0  0  0  0  0  0  0  0  0  0
    4.2690   -2.0490    0.0000 C   0  0  0  0  0  0  0  0  0  0  0  0
    7.7331   -0.0490    0.0000 C   0  0  0  0  0  0  0  0  0  0  0  0
    3.7690    1.8170    0.0000 C   0  0  0  0  0  0  0  0  0  0  0  0
    4.2690   -3.0490    0.0000 C   0  0  0  0  0  0  0  0  0  0  0  0
    4.2690    2.6830    0.0000 C   0  0  0  0  0  0  0  0  0  0  0  0
    3.4030   -3.5490    0.0000 C   0  0  0  0  0  0  0  0  0  0  0  0
    5.1350   -3.5490    0.0000 C   0  0  0  0  0  0  0  0  0  0  0  0
    3.7690    3.5490    0.0000 C   0  0  0  0  0  0  0  0  0  0  0  0
    4.8059    0.2610    0.0000 H   0  0  0  0  0  0  0  0  0  0  0  0
    5.8711   -0.9740    0.0000 H   0  0  0  0  0  0  0  0  0  0  0  0
    3.4030    0.0710    0.0000 H   0  0  0  0  0  0  0  0  0  0  0  0
    6.5380    0.2610    0.0000 H   0  0  0  0  0  0  0  0  0  0  0  0
    6.3301   -0.8590    0.0000 H   0  0  0  0  0  0  0  0  0  0  0  0
    2.8660   -1.8590    0.0000 H   0  0  0  0  0  0  0  0  0  0  0  0
    4.8059    1.2610    0.0000 H   0  0  0  0  0  0  0  0  0  0  0  0
    2.0000   -0.3590    0.0000 H   0  0  0  0  0  0  0  0  0  0  0  0
    2.2269    0.4879    0.0000 H   0  0  0  0  0  0  0  0  0  0  0  0
    8.1316    0.4259    0.0000 H   0  0  0  0  0  0  0  0  0  0  0  0
    7.3346    0.4259    0.0000 H   0  0  0  0  0  0  0  0  0  0  0  0
    6.5380    1.2610    0.0000 H   0  0  0  0  0  0  0  0  0  0  0  0
    7.4040   -1.8590    0.0000 H   0  0  0  0  0  0  0  0  0  0  0  0
    4.7439    2.2845    0.0000 H   0  0  0  0  0  0  0  0  0  0  0  0
    4.7439    3.0815    0.0000 H   0  0  0  0  0  0  0  0  0  0  0  0
    3.0930   -3.0121    0.0000 H   0  0  0  0  0  0  0  0  0  0  0  0
    2.8660   -3.8590    0.0000 H   0  0  0  0  0  0  0  0  0  0  0  0
    3.7130   -4.0860    0.0000 H   0  0  0  0  0  0  0  0  0  0  0  0
    9.1360   -0.2390    0.0000 H   0  0  0  0  0  0  0  0  0  0  0  0
    5.1350   -4.1690    0.0000 H   0  0  0  0  0  0  0  0  0  0  0  0
    5.6720   -3.2390    0.0000 H   0  0  0  0  0  0  0  0  0  0  0  0
    4.3059    3.8590    0.0000 H   0  0  0  0  0  0  0  0  0  0  0  0
    3.4590    4.0860    0.0000 H   0  0  0  0  0  0  0  0  0  0  0  0
    3.2320    3.2390    0.0000 H   0  0  0  0  0  0  0  0  0  0  0  0
  1  9  1  0  0  0  0
  1 14  1  0  0  0  0
 11  2  1  6  0  0  0
  2 33  1  0  0  0  0
 12  3  1  1  0  0  0
  3 34  1  0  0  0  0
  4 15  1  0  0  0  0
  4 40  1  0  0  0  0
  5 16  2  0  0  0  0
  8  6  1  1  0  0  0
  6 16  1  0  0  0  0
  6 28  1  0  0  0  0
 10  7  1  6  0  0  0
  7 29  1  0  0  0  0
  7 30  1  0  0  0  0
  8  9  1  0  0  0  0
  8 10  1  0  0  0  0
  8 22  1  0  0  0  0
  9 11  1  0  0  0  0
  9 23  1  1  0  0  0
 10 13  1  0  0  0  0
 10 24  1  0  0  0  0
 11 12  1  0  0  0  0
 11 25  1  0  0  0  0
 12 15  1  0  0  0  0
 12 26  1  0  0  0  0
 13 14  2  0  0  0  0
 13 27  1  0  0  0  0
 14 17  1  0  0  0  0
 15 31  1  0  0  0  0
 15 32  1  0  0  0  0
 16 18  1  0  0  0  0
 17 19  1  0  0  0  0
 17 20  2  0  0  0  0
 18 21  1  0  0  0  0
 18 35  1  0  0  0  0
 18 36  1  0  0  0  0
 19 37  1  0  0  0  0
 19 38  1  0  0  0  0
 19 39  1  0  0  0  0
 20 41  1  0  0  0  0
 20 42  1  0  0  0  0
 21 43  1  0  0  0  0
 21 44  1  0  0  0  0
 21 45  1  0  0  0  0
M  END
> <PUBCHEM_COMPOUND_CID>
505910
> <PUBCHEM_COMPOUND_CANONICALIZED>
1
> <PUBCHEM_CACTVS_COMPLEXITY>
424
> <PUBCHEM_CACTVS_HBOND_ACCEPTOR>
6
> <PUBCHEM_CACTVS_HBOND_DONOR>
5
> <PUBCHEM_CACTVS_ROTATABLE_BOND>
6
> <PUBCHEM_CACTVS_SUBSKEYS>
AAADceBzOAAAAAAAAAAAAAAAAAAAAAAAAAAgAAAAAAAAAAAAAAAAHgAQCAAADDzhgAYCAALABgCIAiFSEACACAAgIAAACIEIAAgLVAIAoQAXQAAHlgCboAPw0CMAAAAAAAAAAAAAAAAAAAAAAAAAAAAAAA==
> <PUBCHEM_IUPAC_OPENEYE_NAME>
N-[(2R,3R,4S)-4-amino-6-isopropenyl-2-[(1R,2R)-1,2,3-trihydroxypropyl]-3,4-dihydro-2H-pyran-3-yl]propanamide
> <PUBCHEM_IUPAC_CAS_NAME>
N-[(2R,3R,4S)-4-amino-6-(1-methylethenyl)-2-[(1R,2R)-1,2,3-trihydroxypropyl]-3,4-dihydro-2H-pyran-3-yl]propanamide
> <PUBCHEM_IUPAC_NAME_MARKUP>
<I>N</I>-[(2<I>R</I>,3<I>R</I>,4<I>S</I>)-4-amino-6-prop-1-en-2-yl-2-[(1<I>R</I>,2<I>R</I>)-1,2,3-trihydroxypropyl]-3,4-dihydro-2<I>H</I>-pyran-3-yl]propanamide
> <PUBCHEM_IUPAC_NAME>
N-[(2R,3R,4S)-4-amino-6-prop-1-en-2-yl-2-[(1R,2R)-1,2,3-trihydroxypropyl]-3,4-dihydro-2H-pyran-3-yl]propanamide
> <PUBCHEM_IUPAC_SYSTEMATIC_NAME>
N-[(2R,3R,4S)-4-azanyl-6-prop-1-en-2-yl-2-[(1R,2R)-1,2,3-tris(oxidanyl)propyl]-3,4-dihydro-2H-pyran-3-yl]propanamide
> <PUBCHEM_IUPAC_TRADITIONAL_NAME>
N-[(2R,3R,4S)-4-amino-6-isopropenyl-2-[(1R,2R)-1,2,3-trihydroxypropyl]-3,4-dihydro-2H-pyran-3-yl]propionamide
> <PUBCHEM_IUPAC_INCHI>
InChI=1S/C14H24N2O5/c1-4-11(19)16-12-8(15)5-10(7(2)3)21-14(12)13(20)9(18)6-17/h5,8-9,12-14,17-18,20H,2,4,6,15H2,1,3H3,(H,16,19)/t8-,9+,12+,13+,14+/m0/s1
> <PUBCHEM_IUPAC_INCHIKEY>
PVYZEAWRMSHANY-ZZEHVWSGSA-N
> <PUBCHEM_XLOGP3_AA>
-0.6
> <PUBCHEM_EXACT_MASS>
300.16852187
> <PUBCHEM_MOLECULAR_FORMULA>
C14H24N2O5
> <PUBCHEM_MOLECULAR_WEIGHT>
300.35
> <PUBCHEM_OPENEYE_CAN_SMILES>
CCC(=O)NC1C(C=C(OC1C(C(CO)O)O)C(=C)C)N
> <PUBCHEM_OPENEYE_ISO_SMILES>
CCC(=O)N[C@@H]1[C@H](C=C(O[C@H]1[C@@H]([C@@H](CO)O)O)C(=C)C)N
> <PUBCHEM_CACTVS_TPSA>
125
> <PUBCHEM_MONOISOTOPIC_WEIGHT>
300.16852187
> <PUBCHEM_TOTAL_CHARGE>
0
> <PUBCHEM_HEAVY_ATOM_COUNT>
21
> <PUBCHEM_ATOM_DEF_STEREO_COUNT>
5
> <PUBCHEM_ATOM_UDEF_STEREO_COUNT>
0
> <PUBCHEM_BOND_DEF_STEREO_COUNT>
0
> <PUBCHEM_BOND_UDEF_STEREO_COUNT>
0
> <PUBCHEM_ISOTOPIC_ATOM_COUNT>
0
> <PUBCHEM_COMPONENT_COUNT>
1
> <PUBCHEM_CACTVS_TAUTO_COUNT>
-1
> <PUBCHEM_COORDINATE_TYPE>
1
5
255
> <PUBCHEM_BONDANNOTATIONS>
11  2  6
12  3  5
8  6  5
10  7  6
9  23  5
$$$$
