505980
  -OEChem-10302200282D
 48 50  0     1  0  0  0  0  0999 V2000
    5.1350   -0.7327    0.0000 O   0  0  0  0  0  0  0  0  0  0  0  0
    4.2690   -1.2327    0.0000 O   0  0  0  0  0  0  0  0  0  0  0  0
    8.5991   -0.7327    0.0000 N   0  0  3  0  0  0  0  0  0  0  0  0
    6.0010    0.7673    0.0000 N   0  0  0  0  0  0  0  0  0  0  0  0
    2.5369   -1.2327    0.0000 N   0  0  0  0  0  0  0  0  0  0  0  0
    8.5991    0.2673    0.0000 C   0  0  1  0  0  0  0  0  0  0  0  0
    9.4931   -1.2674    0.0000 C   0  0  1  0  0  0  0  0  0  0  0  0
    7.7331    0.7673    0.0000 C   0  0  0  0  0  0  0  0  0  0  0  0
    9.4931    0.8020    0.0000 C   0  0  0  0  0  0  0  0  0  0  0  0
    6.8671    0.2673    0.0000 C   0  0  2  0  0  0  0  0  0  0  0  0
    7.7331   -1.2327    0.0000 C   0  0  0  0  0  0  0  0  0  0  0  0
   10.3991   -0.7535    0.0000 C   0  0  0  0  0  0  0  0  0  0  0  0
    6.8671   -0.7327    0.0000 C   0  0  0  0  0  0  0  0  0  0  0  0
   10.3991    0.2881    0.0000 C   0  0  0  0  0  0  0  0  0  0  0  0
    9.4815   -2.2673    0.0000 C   0  0  0  0  0  0  0  0  0  0  0  0
    5.1350    0.2673    0.0000 C   0  0  0  0  0  0  0  0  0  0  0  0
    4.2690    0.7673    0.0000 C   0  0  0  0  0  0  0  0  0  0  0  0
    3.4030    0.2673    0.0000 C   0  0  0  0  0  0  0  0  0  0  0  0
    4.2690    1.7673    0.0000 C   0  0  0  0  0  0  0  0  0  0  0  0
    2.5369    0.7673    0.0000 C   0  0  0  0  0  0  0  0  0  0  0  0
    3.4030    2.2673    0.0000 C   0  0  0  0  0  0  0  0  0  0  0  0
    3.4030   -0.7327    0.0000 C   0  0  0  0  0  0  0  0  0  0  0  0
    2.5369    1.7673    0.0000 C   0  0  0  0  0  0  0  0  0  0  0  0
    8.5926    1.1173    0.0000 H   0  0  0  0  0  0  0  0  0  0  0  0
    8.9520   -1.5701    0.0000 H   0  0  0  0  0  0  0  0  0  0  0  0
    8.1316    1.2422    0.0000 H   0  0  0  0  0  0  0  0  0  0  0  0
    7.3346    1.2422    0.0000 H   0  0  0  0  0  0  0  0  0  0  0  0
    9.8867    1.2810    0.0000 H   0  0  0  0  0  0  0  0  0  0  0  0
    9.0885    1.2718    0.0000 H   0  0  0  0  0  0  0  0  0  0  0  0
    6.3301   -0.0427    0.0000 H   0  0  0  0  0  0  0  0  0  0  0  0
    7.3346   -1.7076    0.0000 H   0  0  0  0  0  0  0  0  0  0  0  0
    8.1316   -1.7076    0.0000 H   0  0  0  0  0  0  0  0  0  0  0  0
   10.6082   -1.3372    0.0000 H   0  0  0  0  0  0  0  0  0  0  0  0
   11.0100   -0.6474    0.0000 H   0  0  0  0  0  0  0  0  0  0  0  0
    6.2565   -0.6250    0.0000 H   0  0  0  0  0  0  0  0  0  0  0  0
    6.6550   -1.3153    0.0000 H   0  0  0  0  0  0  0  0  0  0  0  0
   11.0100    0.1820    0.0000 H   0  0  0  0  0  0  0  0  0  0  0  0
   10.6082    0.8718    0.0000 H   0  0  0  0  0  0  0  0  0  0  0  0
    8.8615   -2.2601    0.0000 H   0  0  0  0  0  0  0  0  0  0  0  0
    9.4743   -2.8873    0.0000 H   0  0  0  0  0  0  0  0  0  0  0  0
   10.1015   -2.2745    0.0000 H   0  0  0  0  0  0  0  0  0  0  0  0
    6.0010    1.3873    0.0000 H   0  0  0  0  0  0  0  0  0  0  0  0
    4.8059    2.0773    0.0000 H   0  0  0  0  0  0  0  0  0  0  0  0
    2.0000    0.4573    0.0000 H   0  0  0  0  0  0  0  0  0  0  0  0
    3.4030    2.8873    0.0000 H   0  0  0  0  0  0  0  0  0  0  0  0
    2.0000    2.0773    0.0000 H   0  0  0  0  0  0  0  0  0  0  0  0
    2.5369   -1.8527    0.0000 H   0  0  0  0  0  0  0  0  0  0  0  0
    2.0000   -0.9227    0.0000 H   0  0  0  0  0  0  0  0  0  0  0  0
  1 16  2  0  0  0  0
  2 22  2  0  0  0  0
  3  6  1  0  0  0  0
  3  7  1  0  0  0  0
  3 11  1  0  0  0  0
 10  4  1  6  0  0  0
  4 16  1  0  0  0  0
  4 42  1  0  0  0  0
  5 22  1  0  0  0  0
  5 47  1  0  0  0  0
  5 48  1  0  0  0  0
  6  8  1  0  0  0  0
  6  9  1  0  0  0  0
  6 24  1  6  0  0  0
  7 12  1  0  0  0  0
  7 15  1  1  0  0  0
  7 25  1  0  0  0  0
  8 10  1  0  0  0  0
  8 26  1  0  0  0  0
  8 27  1  0  0  0  0
  9 14  1  0  0  0  0
  9 28  1  0  0  0  0
  9 29  1  0  0  0  0
 10 13  1  0  0  0  0
 10 30  1  0  0  0  0
 11 13  1  0  0  0  0
 11 31  1  0  0  0  0
 11 32  1  0  0  0  0
 12 14  1  0  0  0  0
 12 33  1  0  0  0  0
 12 34  1  0  0  0  0
 13 35  1  0  0  0  0
 13 36  1  0  0  0  0
 14 37  1  0  0  0  0
 14 38  1  0  0  0  0
 15 39  1  0  0  0  0
 15 40  1  0  0  0  0
 15 41  1  0  0  0  0
 16 17  1  0  0  0  0
 17 18  1  0  0  0  0
 17 19  2  0  0  0  0
 18 20  2  0  0  0  0
 18 22  1  0  0  0  0
 19 21  1  0  0  0  0
 19 43  1  0  0  0  0
 20 23  1  0  0  0  0
 20 44  1  0  0  0  0
 21 23  2  0  0  0  0
 21 45  1  0  0  0  0
 23 46  1  0  0  0  0
M  END
> <PUBCHEM_COMPOUND_CID>
505980
> <PUBCHEM_COMPOUND_CANONICALIZED>
1
> <PUBCHEM_CACTVS_COMPLEXITY>
454
> <PUBCHEM_CACTVS_HBOND_ACCEPTOR>
3
> <PUBCHEM_CACTVS_HBOND_DONOR>
2
> <PUBCHEM_CACTVS_ROTATABLE_BOND>
3
> <PUBCHEM_CACTVS_SUBSKEYS>
AAADceB7MAAAAAAAAAAAAAAAAAAAAAAAAAA8WIAAAAAAAACxAAAAHgAQAAAADCjBmAQyAIPAAACIAiFSEACCAAAkAAAIiIEIBMgIIDKA1RGEIQhglgCIiYcdiICOgAAAAAAQAAAAAAAAACAAAAAAAAAAAA==
> <PUBCHEM_IUPAC_OPENEYE_NAME>
N2-[(2S,6R,9aR)-6-methyl-2,3,4,6,7,8,9,9a-octahydro-1H-quinolizin-2-yl]phthalamide
> <PUBCHEM_IUPAC_CAS_NAME>
N2-[(2S,6R,9aR)-6-methyl-2,3,4,6,7,8,9,9a-octahydro-1H-quinolizin-2-yl]benzene-1,2-dicarboxamide
> <PUBCHEM_IUPAC_NAME_MARKUP>
2-<I>N</I>-[(2<I>S</I>,6<I>R</I>,9<I>a</I><I>R</I>)-6-methyl-2,3,4,6,7,8,9,9<I>a</I>-octahydro-1<I>H</I>-quinolizin-2-yl]benzene-1,2-dicarboxamide
> <PUBCHEM_IUPAC_NAME>
2-N-[(2S,6R,9aR)-6-methyl-2,3,4,6,7,8,9,9a-octahydro-1H-quinolizin-2-yl]benzene-1,2-dicarboxamide
> <PUBCHEM_IUPAC_SYSTEMATIC_NAME>
N2-[(2S,6R,9aR)-6-methyl-2,3,4,6,7,8,9,9a-octahydro-1H-quinolizin-2-yl]benzene-1,2-dicarboxamide
> <PUBCHEM_IUPAC_TRADITIONAL_NAME>
N'-[(2S,6R,9aR)-6-methylquinolizidin-2-yl]phthalamide
> <PUBCHEM_IUPAC_INCHI>
InChI=1S/C18H25N3O2/c1-12-5-4-6-14-11-13(9-10-21(12)14)20-18(23)16-8-3-2-7-15(16)17(19)22/h2-3,7-8,12-14H,4-6,9-11H2,1H3,(H2,19,22)(H,20,23)/t12-,13+,14-/m1/s1
> <PUBCHEM_IUPAC_INCHIKEY>
OZVYQCVWRGZUCN-HZSPNIEDSA-N
> <PUBCHEM_XLOGP3_AA>
2
> <PUBCHEM_EXACT_MASS>
315.19467705
> <PUBCHEM_MOLECULAR_FORMULA>
C18H25N3O2
> <PUBCHEM_MOLECULAR_WEIGHT>
315.4
> <PUBCHEM_OPENEYE_CAN_SMILES>
CC1CCCC2N1CCC(C2)NC(=O)C3=CC=CC=C3C(=O)N
> <PUBCHEM_OPENEYE_ISO_SMILES>
C[C@@H]1CCC[C@H]2N1CC[C@@H](C2)NC(=O)C3=CC=CC=C3C(=O)N
> <PUBCHEM_CACTVS_TPSA>
75.4
> <PUBCHEM_MONOISOTOPIC_WEIGHT>
315.19467705
> <PUBCHEM_TOTAL_CHARGE>
0
> <PUBCHEM_HEAVY_ATOM_COUNT>
23
> <PUBCHEM_ATOM_DEF_STEREO_COUNT>
3
> <PUBCHEM_ATOM_UDEF_STEREO_COUNT>
0
> <PUBCHEM_BOND_DEF_STEREO_COUNT>
0
> <PUBCHEM_BOND_UDEF_STEREO_COUNT>
0
> <PUBCHEM_ISOTOPIC_ATOM_COUNT>
0
> <PUBCHEM_COMPONENT_COUNT>
1
> <PUBCHEM_CACTVS_TAUTO_COUNT>
-1
> <PUBCHEM_COORDINATE_TYPE>
1
5
255
> <PUBCHEM_BONDANNOTATIONS>
17  18  8
17  19  8
18  20  8
19  21  8
20  23  8
21  23  8
10  4  6
6  24  6
7  15  5
$$$$
