505915
  -OEChem-10302200282D
 43 43  0     1  0  0  0  0  0999 V2000
    4.7690    2.2500    0.0000 S   0  0  0  0  0  0  0  0  0  0  0  0
    5.1350   -1.1160    0.0000 O   0  0  0  0  0  0  0  0  0  0  0  0
    6.5010    1.2500    0.0000 O   0  0  0  0  0  0  0  0  0  0  0  0
    6.8671   -1.1160    0.0000 O   0  0  0  0  0  0  0  0  0  0  0  0
    8.5991   -0.1160    0.0000 O   0  0  0  0  0  0  0  0  0  0  0  0
    5.2690    3.1160    0.0000 O   0  0  0  0  0  0  0  0  0  0  0  0
    5.6350    1.7500    0.0000 O   0  0  0  0  0  0  0  0  0  0  0  0
    4.2690    1.3840    0.0000 N   0  0  0  0  0  0  0  0  0  0  0  0
    2.5369    0.3840    0.0000 N   0  0  0  0  0  0  0  0  0  0  0  0
    4.2690    0.3840    0.0000 C   0  0  1  0  0  0  0  0  0  0  0  0
    5.1350   -0.1160    0.0000 C   0  0  2  0  0  0  0  0  0  0  0  0
    3.4030   -0.1160    0.0000 C   0  0  2  0  0  0  0  0  0  0  0  0
    6.0010    0.3840    0.0000 C   0  0  1  0  0  0  0  0  0  0  0  0
    6.8671   -0.1160    0.0000 C   0  0  1  0  0  0  0  0  0  0  0  0
    3.4030   -1.1160    0.0000 C   0  0  0  0  0  0  0  0  0  0  0  0
    4.2690   -1.6160    0.0000 C   0  0  0  0  0  0  0  0  0  0  0  0
    7.7331    0.3840    0.0000 C   0  0  0  0  0  0  0  0  0  0  0  0
    4.2690   -2.6160    0.0000 C   0  0  0  0  0  0  0  0  0  0  0  0
    3.9030    2.7500    0.0000 C   0  0  0  0  0  0  0  0  0  0  0  0
    3.4030   -3.1160    0.0000 C   0  0  0  0  0  0  0  0  0  0  0  0
    5.1350   -3.1160    0.0000 C   0  0  0  0  0  0  0  0  0  0  0  0
    4.8059    0.6940    0.0000 H   0  0  0  0  0  0  0  0  0  0  0  0
    5.8711   -0.5410    0.0000 H   0  0  0  0  0  0  0  0  0  0  0  0
    3.4030    0.5040    0.0000 H   0  0  0  0  0  0  0  0  0  0  0  0
    5.5626    0.8224    0.0000 H   0  0  0  0  0  0  0  0  0  0  0  0
    3.7320    1.6940    0.0000 H   0  0  0  0  0  0  0  0  0  0  0  0
    6.3301   -0.4260    0.0000 H   0  0  0  0  0  0  0  0  0  0  0  0
    2.8660   -1.4260    0.0000 H   0  0  0  0  0  0  0  0  0  0  0  0
    2.0000    0.0740    0.0000 H   0  0  0  0  0  0  0  0  0  0  0  0
    2.5369    1.0040    0.0000 H   0  0  0  0  0  0  0  0  0  0  0  0
    8.1316    0.8589    0.0000 H   0  0  0  0  0  0  0  0  0  0  0  0
    7.3346    0.8589    0.0000 H   0  0  0  0  0  0  0  0  0  0  0  0
    7.1210    1.2500    0.0000 H   0  0  0  0  0  0  0  0  0  0  0  0
    4.2130    3.2869    0.0000 H   0  0  0  0  0  0  0  0  0  0  0  0
    3.3660    3.0600    0.0000 H   0  0  0  0  0  0  0  0  0  0  0  0
    3.5930    2.2131    0.0000 H   0  0  0  0  0  0  0  0  0  0  0  0
    7.4040   -1.4260    0.0000 H   0  0  0  0  0  0  0  0  0  0  0  0
    3.0930   -2.5791    0.0000 H   0  0  0  0  0  0  0  0  0  0  0  0
    2.8660   -3.4260    0.0000 H   0  0  0  0  0  0  0  0  0  0  0  0
    3.7130   -3.6530    0.0000 H   0  0  0  0  0  0  0  0  0  0  0  0
    9.1360    0.1940    0.0000 H   0  0  0  0  0  0  0  0  0  0  0  0
    5.1350   -3.7360    0.0000 H   0  0  0  0  0  0  0  0  0  0  0  0
    5.6720   -2.8060    0.0000 H   0  0  0  0  0  0  0  0  0  0  0  0
  1  6  2  0  0  0  0
  1  7  2  0  0  0  0
  1  8  1  0  0  0  0
  1 19  1  0  0  0  0
  2 11  1  0  0  0  0
  2 16  1  0  0  0  0
 13  3  1  6  0  0  0
  3 33  1  0  0  0  0
 14  4  1  1  0  0  0
  4 37  1  0  0  0  0
  5 17  1  0  0  0  0
  5 41  1  0  0  0  0
 10  8  1  1  0  0  0
  8 26  1  0  0  0  0
 12  9  1  6  0  0  0
  9 29  1  0  0  0  0
  9 30  1  0  0  0  0
 10 11  1  0  0  0  0
 10 12  1  0  0  0  0
 10 22  1  0  0  0  0
 11 13  1  0  0  0  0
 11 23  1  1  0  0  0
 12 15  1  0  0  0  0
 12 24  1  0  0  0  0
 13 14  1  0  0  0  0
 13 25  1  0  0  0  0
 14 17  1  0  0  0  0
 14 27  1  0  0  0  0
 15 16  2  0  0  0  0
 15 28  1  0  0  0  0
 16 18  1  0  0  0  0
 17 31  1  0  0  0  0
 17 32  1  0  0  0  0
 18 20  1  0  0  0  0
 18 21  2  0  0  0  0
 19 34  1  0  0  0  0
 19 35  1  0  0  0  0
 19 36  1  0  0  0  0
 20 38  1  0  0  0  0
 20 39  1  0  0  0  0
 20 40  1  0  0  0  0
 21 42  1  0  0  0  0
 21 43  1  0  0  0  0
M  END
> <PUBCHEM_COMPOUND_CID>
505915
> <PUBCHEM_COMPOUND_CANONICALIZED>
1
> <PUBCHEM_CACTVS_COMPLEXITY>
512
> <PUBCHEM_CACTVS_HBOND_ACCEPTOR>
8
> <PUBCHEM_CACTVS_HBOND_DONOR>
5
> <PUBCHEM_CACTVS_ROTATABLE_BOND>
6
> <PUBCHEM_CACTVS_SUBSKEYS>
AAADceBzOABAAAAAAAAAAAAAAAAAAAAAAAAgAAAAAAAAAAAAAAAAHgQQSAAADDzhgAaCAABABgKAAiBCAHCACAAgIAAACIAAAAgLVAIAoQADQAAHkAALoAPw0CEAAAAAAAAAAAAAAAAAAAAAAAAAAAAAAA==
> <PUBCHEM_IUPAC_OPENEYE_NAME>
N-[(2R,3R,4S)-4-amino-6-isopropenyl-2-[(1R,2R)-1,2,3-trihydroxypropyl]-3,4-dihydro-2H-pyran-3-yl]methanesulfonamide
> <PUBCHEM_IUPAC_CAS_NAME>
N-[(2R,3R,4S)-4-amino-6-(1-methylethenyl)-2-[(1R,2R)-1,2,3-trihydroxypropyl]-3,4-dihydro-2H-pyran-3-yl]methanesulfonamide
> <PUBCHEM_IUPAC_NAME_MARKUP>
<I>N</I>-[(2<I>R</I>,3<I>R</I>,4<I>S</I>)-4-amino-6-prop-1-en-2-yl-2-[(1<I>R</I>,2<I>R</I>)-1,2,3-trihydroxypropyl]-3,4-dihydro-2<I>H</I>-pyran-3-yl]methanesulfonamide
> <PUBCHEM_IUPAC_NAME>
N-[(2R,3R,4S)-4-amino-6-prop-1-en-2-yl-2-[(1R,2R)-1,2,3-trihydroxypropyl]-3,4-dihydro-2H-pyran-3-yl]methanesulfonamide
> <PUBCHEM_IUPAC_SYSTEMATIC_NAME>
N-[(2R,3R,4S)-4-azanyl-6-prop-1-en-2-yl-2-[(1R,2R)-1,2,3-tris(oxidanyl)propyl]-3,4-dihydro-2H-pyran-3-yl]methanesulfonamide
> <PUBCHEM_IUPAC_TRADITIONAL_NAME>
N-[(2R,3R,4S)-4-amino-6-isopropenyl-2-[(1R,2R)-1,2,3-trihydroxypropyl]-3,4-dihydro-2H-pyran-3-yl]methanesulfonamide
> <PUBCHEM_IUPAC_INCHI>
InChI=1S/C12H22N2O6S/c1-6(2)9-4-7(13)10(14-21(3,18)19)12(20-9)11(17)8(16)5-15/h4,7-8,10-12,14-17H,1,5,13H2,2-3H3/t7-,8+,10+,11+,12+/m0/s1
> <PUBCHEM_IUPAC_INCHIKEY>
HVZUIIKHMUBNGY-RULNCXCMSA-N
> <PUBCHEM_XLOGP3_AA>
-1.3
> <PUBCHEM_EXACT_MASS>
322.11985760
> <PUBCHEM_MOLECULAR_FORMULA>
C12H22N2O6S
> <PUBCHEM_MOLECULAR_WEIGHT>
322.38
> <PUBCHEM_OPENEYE_CAN_SMILES>
CC(=C)C1=CC(C(C(O1)C(C(CO)O)O)NS(=O)(=O)C)N
> <PUBCHEM_OPENEYE_ISO_SMILES>
CC(=C)C1=C[C@@H]([C@H]([C@@H](O1)[C@@H]([C@@H](CO)O)O)NS(=O)(=O)C)N
> <PUBCHEM_CACTVS_TPSA>
151
> <PUBCHEM_MONOISOTOPIC_WEIGHT>
322.11985760
> <PUBCHEM_TOTAL_CHARGE>
0
> <PUBCHEM_HEAVY_ATOM_COUNT>
21
> <PUBCHEM_ATOM_DEF_STEREO_COUNT>
5
> <PUBCHEM_ATOM_UDEF_STEREO_COUNT>
0
> <PUBCHEM_BOND_DEF_STEREO_COUNT>
0
> <PUBCHEM_BOND_UDEF_STEREO_COUNT>
0
> <PUBCHEM_ISOTOPIC_ATOM_COUNT>
0
> <PUBCHEM_COMPONENT_COUNT>
1
> <PUBCHEM_CACTVS_TAUTO_COUNT>
-1
> <PUBCHEM_COORDINATE_TYPE>
1
5
255
> <PUBCHEM_BONDANNOTATIONS>
11  23  5
13  3  6
14  4  5
10  8  5
12  9  6
$$$$
