505973
  -OEChem-10302200282D
 51 54  0     1  0  0  0  0  0999 V2000
    5.5161    0.5173    0.0000 O   0  0  0  0  0  0  0  0  0  0  0  0
    2.9180    2.0173    0.0000 O   0  0  0  0  0  0  0  0  0  0  0  0
    3.7841   -2.4827    0.0000 N   0  0  3  0  0  0  0  0  0  0  0  0
    3.7841    0.5173    0.0000 N   0  0  0  0  0  0  0  0  0  0  0  0
    2.9180   -1.9827    0.0000 C   0  0  1  0  0  0  0  0  0  0  0  0
    3.8001   -3.5242    0.0000 C   0  0  1  0  0  0  0  0  0  0  0  0
    2.9180   -0.9827    0.0000 C   0  0  0  0  0  0  0  0  0  0  0  0
    2.0080   -2.4896    0.0000 C   0  0  0  0  0  0  0  0  0  0  0  0
    3.7841   -0.4827    0.0000 C   0  0  2  0  0  0  0  0  0  0  0  0
    4.6501   -1.9827    0.0000 C   0  0  0  0  0  0  0  0  0  0  0  0
    2.9021   -4.0520    0.0000 C   0  0  0  0  0  0  0  0  0  0  0  0
    4.6501   -0.9827    0.0000 C   0  0  0  0  0  0  0  0  0  0  0  0
    2.0000   -3.5312    0.0000 C   0  0  0  0  0  0  0  0  0  0  0  0
    4.6719   -4.0142    0.0000 C   0  0  0  0  0  0  0  0  0  0  0  0
    4.6501    1.0173    0.0000 C   0  0  0  0  0  0  0  0  0  0  0  0
    4.6501    2.0173    0.0000 C   0  0  0  0  0  0  0  0  0  0  0  0
    5.5161    2.5173    0.0000 C   0  0  0  0  0  0  0  0  0  0  0  0
    3.7841    2.5173    0.0000 C   0  0  0  0  0  0  0  0  0  0  0  0
    5.5161    3.5173    0.0000 C   0  0  0  0  0  0  0  0  0  0  0  0
    3.7841    3.5173    0.0000 C   0  0  0  0  0  0  0  0  0  0  0  0
    6.4100    1.9826    0.0000 C   0  0  0  0  0  0  0  0  0  0  0  0
    4.6501    4.0173    0.0000 C   0  0  0  0  0  0  0  0  0  0  0  0
    6.4100    4.0520    0.0000 C   0  0  0  0  0  0  0  0  0  0  0  0
    7.3161    2.4965    0.0000 C   0  0  0  0  0  0  0  0  0  0  0  0
    7.3161    3.5381    0.0000 C   0  0  0  0  0  0  0  0  0  0  0  0
    2.1852   -1.5520    0.0000 H   0  0  0  0  0  0  0  0  0  0  0  0
    2.7060   -0.4001    0.0000 H   0  0  0  0  0  0  0  0  0  0  0  0
    2.3074   -1.0904    0.0000 H   0  0  0  0  0  0  0  0  0  0  0  0
    4.3328   -3.2070    0.0000 H   0  0  0  0  0  0  0  0  0  0  0  0
    1.8035   -1.9043    0.0000 H   0  0  0  0  0  0  0  0  0  0  0  0
    1.3964   -2.5909    0.0000 H   0  0  0  0  0  0  0  0  0  0  0  0
    3.2471   -0.1727    0.0000 H   0  0  0  0  0  0  0  0  0  0  0  0
    4.8621   -2.5653    0.0000 H   0  0  0  0  0  0  0  0  0  0  0  0
    5.2607   -1.8750    0.0000 H   0  0  0  0  0  0  0  0  0  0  0  0
    5.2607   -1.0904    0.0000 H   0  0  0  0  0  0  0  0  0  0  0  0
    4.8621   -0.4001    0.0000 H   0  0  0  0  0  0  0  0  0  0  0  0
    2.5048   -4.5279    0.0000 H   0  0  0  0  0  0  0  0  0  0  0  0
    3.3030   -4.5248    0.0000 H   0  0  0  0  0  0  0  0  0  0  0  0
    1.3900   -3.4204    0.0000 H   0  0  0  0  0  0  0  0  0  0  0  0
    1.7864   -4.1132    0.0000 H   0  0  0  0  0  0  0  0  0  0  0  0
    4.3681   -4.5546    0.0000 H   0  0  0  0  0  0  0  0  0  0  0  0
    5.2124   -4.3179    0.0000 H   0  0  0  0  0  0  0  0  0  0  0  0
    4.9756   -3.4737    0.0000 H   0  0  0  0  0  0  0  0  0  0  0  0
    3.2471    0.8273    0.0000 H   0  0  0  0  0  0  0  0  0  0  0  0
    3.2471    3.8273    0.0000 H   0  0  0  0  0  0  0  0  0  0  0  0
    6.4029    1.3627    0.0000 H   0  0  0  0  0  0  0  0  0  0  0  0
    4.6501    4.6373    0.0000 H   0  0  0  0  0  0  0  0  0  0  0  0
    6.4029    4.6719    0.0000 H   0  0  0  0  0  0  0  0  0  0  0  0
    7.8518    2.1844    0.0000 H   0  0  0  0  0  0  0  0  0  0  0  0
    2.3811    2.3273    0.0000 H   0  0  0  0  0  0  0  0  0  0  0  0
    7.8518    3.8502    0.0000 H   0  0  0  0  0  0  0  0  0  0  0  0
  1 15  2  0  0  0  0
  2 18  1  0  0  0  0
  2 50  1  0  0  0  0
  3  5  1  0  0  0  0
  3  6  1  0  0  0  0
  3 10  1  0  0  0  0
  9  4  1  1  0  0  0
  4 15  1  0  0  0  0
  4 44  1  0  0  0  0
  5  7  1  0  0  0  0
  5  8  1  0  0  0  0
  5 26  1  1  0  0  0
  6 11  1  0  0  0  0
  6 14  1  6  0  0  0
  6 29  1  0  0  0  0
  7  9  1  0  0  0  0
  7 27  1  0  0  0  0
  7 28  1  0  0  0  0
  8 13  1  0  0  0  0
  8 30  1  0  0  0  0
  8 31  1  0  0  0  0
  9 12  1  0  0  0  0
  9 32  1  0  0  0  0
 10 12  1  0  0  0  0
 10 33  1  0  0  0  0
 10 34  1  0  0  0  0
 11 13  1  0  0  0  0
 11 37  1  0  0  0  0
 11 38  1  0  0  0  0
 12 35  1  0  0  0  0
 12 36  1  0  0  0  0
 13 39  1  0  0  0  0
 13 40  1  0  0  0  0
 14 41  1  0  0  0  0
 14 42  1  0  0  0  0
 14 43  1  0  0  0  0
 15 16  1  0  0  0  0
 16 17  1  0  0  0  0
 16 18  2  0  0  0  0
 17 19  1  0  0  0  0
 17 21  2  0  0  0  0
 18 20  1  0  0  0  0
 19 22  1  0  0  0  0
 19 23  2  0  0  0  0
 20 22  2  0  0  0  0
 20 45  1  0  0  0  0
 21 24  1  0  0  0  0
 21 46  1  0  0  0  0
 22 47  1  0  0  0  0
 23 25  1  0  0  0  0
 23 48  1  0  0  0  0
 24 25  2  0  0  0  0
 24 49  1  0  0  0  0
 25 51  1  0  0  0  0
M  END
> <PUBCHEM_COMPOUND_CID>
505973
> <PUBCHEM_COMPOUND_CANONICALIZED>
1
> <PUBCHEM_CACTVS_COMPLEXITY>
483
> <PUBCHEM_CACTVS_HBOND_ACCEPTOR>
3
> <PUBCHEM_CACTVS_HBOND_DONOR>
2
> <PUBCHEM_CACTVS_ROTATABLE_BOND>
2
> <PUBCHEM_CACTVS_SUBSKEYS>
AAADceB7MAAAAAAAAAAAAAAAAAAAAAAAAAA8eIEAAAAAAADxUAAAHgAQCAAADCzBmAQyBsPAAgCIAiFSEACCAAAkIAAIiIEODMgIJjaC1ROEcUhm9hGImQeYyPCOoAADAAAYAABAAAYAADAAAAAAAAAAAA==
> <PUBCHEM_IUPAC_OPENEYE_NAME>
N-[(2S,6R,9aR)-6-methyl-2,3,4,6,7,8,9,9a-octahydro-1H-quinolizin-2-yl]-2-hydroxy-naphthalene-1-carboxamide
> <PUBCHEM_IUPAC_CAS_NAME>
N-[(2S,6R,9aR)-6-methyl-2,3,4,6,7,8,9,9a-octahydro-1H-quinolizin-2-yl]-2-hydroxy-1-naphthalenecarboxamide
> <PUBCHEM_IUPAC_NAME_MARKUP>
<I>N</I>-[(2<I>S</I>,6<I>R</I>,9<I>a</I><I>R</I>)-6-methyl-2,3,4,6,7,8,9,9<I>a</I>-octahydro-1<I>H</I>-quinolizin-2-yl]-2-hydroxynaphthalene-1-carboxamide
> <PUBCHEM_IUPAC_NAME>
N-[(2S,6R,9aR)-6-methyl-2,3,4,6,7,8,9,9a-octahydro-1H-quinolizin-2-yl]-2-hydroxynaphthalene-1-carboxamide
> <PUBCHEM_IUPAC_SYSTEMATIC_NAME>
N-[(2S,6R,9aR)-6-methyl-2,3,4,6,7,8,9,9a-octahydro-1H-quinolizin-2-yl]-2-oxidanyl-naphthalene-1-carboxamide
> <PUBCHEM_IUPAC_TRADITIONAL_NAME>
N-[(2S,6R,9aR)-6-methylquinolizidin-2-yl]-2-hydroxy-1-naphthamide
> <PUBCHEM_IUPAC_INCHI>
InChI=1S/C21H26N2O2/c1-14-5-4-7-17-13-16(11-12-23(14)17)22-21(25)20-18-8-3-2-6-15(18)9-10-19(20)24/h2-3,6,8-10,14,16-17,24H,4-5,7,11-13H2,1H3,(H,22,25)/t14-,16+,17-/m1/s1
> <PUBCHEM_IUPAC_INCHIKEY>
GYGWBIPHAOYNEY-HYVNUMGLSA-N
> <PUBCHEM_XLOGP3_AA>
4.6
> <PUBCHEM_EXACT_MASS>
338.199428076
> <PUBCHEM_MOLECULAR_FORMULA>
C21H26N2O2
> <PUBCHEM_MOLECULAR_WEIGHT>
338.4
> <PUBCHEM_OPENEYE_CAN_SMILES>
CC1CCCC2N1CCC(C2)NC(=O)C3=C(C=CC4=CC=CC=C43)O
> <PUBCHEM_OPENEYE_ISO_SMILES>
C[C@@H]1CCC[C@H]2N1CC[C@@H](C2)NC(=O)C3=C(C=CC4=CC=CC=C43)O
> <PUBCHEM_CACTVS_TPSA>
52.6
> <PUBCHEM_MONOISOTOPIC_WEIGHT>
338.199428076
> <PUBCHEM_TOTAL_CHARGE>
0
> <PUBCHEM_HEAVY_ATOM_COUNT>
25
> <PUBCHEM_ATOM_DEF_STEREO_COUNT>
3
> <PUBCHEM_ATOM_UDEF_STEREO_COUNT>
0
> <PUBCHEM_BOND_DEF_STEREO_COUNT>
0
> <PUBCHEM_BOND_UDEF_STEREO_COUNT>
0
> <PUBCHEM_ISOTOPIC_ATOM_COUNT>
0
> <PUBCHEM_COMPONENT_COUNT>
1
> <PUBCHEM_CACTVS_TAUTO_COUNT>
-1
> <PUBCHEM_COORDINATE_TYPE>
1
5
255
> <PUBCHEM_BONDANNOTATIONS>
16  17  8
16  18  8
17  19  8
17  21  8
18  20  8
19  22  8
19  23  8
20  22  8
21  24  8
23  25  8
24  25  8
9  4  5
5  26  5
6  14  6
$$$$
