505962
  -OEChem-10302200282D
 48 50  0     1  0  0  0  0  0999 V2000
    3.3660   -0.9087    0.0000 F   0  0  0  0  0  0  0  0  0  0  0  0
    2.0000   -0.5427    0.0000 F   0  0  0  0  0  0  0  0  0  0  0  0
    2.3660    0.8233    0.0000 F   0  0  0  0  0  0  0  0  0  0  0  0
    6.3301   -1.0427    0.0000 O   0  0  0  0  0  0  0  0  0  0  0  0
    6.3301    1.9573    0.0000 O   0  0  0  0  0  0  0  0  0  0  0  0
    9.7942   -1.0427    0.0000 N   0  0  3  0  0  0  0  0  0  0  0  0
    7.1962    0.4573    0.0000 N   0  0  0  0  0  0  0  0  0  0  0  0
    9.7942   -0.0427    0.0000 C   0  0  1  0  0  0  0  0  0  0  0  0
   10.6882   -1.5774    0.0000 C   0  0  1  0  0  0  0  0  0  0  0  0
    8.9282    0.4573    0.0000 C   0  0  0  0  0  0  0  0  0  0  0  0
   10.6882    0.4920    0.0000 C   0  0  0  0  0  0  0  0  0  0  0  0
    8.0622   -0.0427    0.0000 C   0  0  2  0  0  0  0  0  0  0  0  0
    8.9282   -1.5427    0.0000 C   0  0  0  0  0  0  0  0  0  0  0  0
   11.5942   -1.0635    0.0000 C   0  0  0  0  0  0  0  0  0  0  0  0
    8.0622   -1.0427    0.0000 C   0  0  0  0  0  0  0  0  0  0  0  0
   11.5942   -0.0219    0.0000 C   0  0  0  0  0  0  0  0  0  0  0  0
   10.6766   -2.5773    0.0000 C   0  0  0  0  0  0  0  0  0  0  0  0
    6.3301   -0.0427    0.0000 C   0  0  0  0  0  0  0  0  0  0  0  0
    5.4641    0.4573    0.0000 C   0  0  0  0  0  0  0  0  0  0  0  0
    4.5981   -0.0427    0.0000 C   0  0  0  0  0  0  0  0  0  0  0  0
    5.4641    1.4573    0.0000 C   0  0  0  0  0  0  0  0  0  0  0  0
    3.7320    0.4573    0.0000 C   0  0  0  0  0  0  0  0  0  0  0  0
    4.5981    1.9573    0.0000 C   0  0  0  0  0  0  0  0  0  0  0  0
    3.7320    1.4573    0.0000 C   0  0  0  0  0  0  0  0  0  0  0  0
    2.8660   -0.0427    0.0000 C   0  0  0  0  0  0  0  0  0  0  0  0
    9.7877    0.8073    0.0000 H   0  0  0  0  0  0  0  0  0  0  0  0
   10.1471   -1.8801    0.0000 H   0  0  0  0  0  0  0  0  0  0  0  0
    9.3267    0.9322    0.0000 H   0  0  0  0  0  0  0  0  0  0  0  0
    8.5297    0.9322    0.0000 H   0  0  0  0  0  0  0  0  0  0  0  0
   11.0818    0.9710    0.0000 H   0  0  0  0  0  0  0  0  0  0  0  0
   10.2836    0.9617    0.0000 H   0  0  0  0  0  0  0  0  0  0  0  0
    8.0622    0.5773    0.0000 H   0  0  0  0  0  0  0  0  0  0  0  0
    8.5297   -2.0176    0.0000 H   0  0  0  0  0  0  0  0  0  0  0  0
    9.3267   -2.0176    0.0000 H   0  0  0  0  0  0  0  0  0  0  0  0
   11.8033   -1.6472    0.0000 H   0  0  0  0  0  0  0  0  0  0  0  0
   12.2051   -0.9574    0.0000 H   0  0  0  0  0  0  0  0  0  0  0  0
    7.4516   -0.9350    0.0000 H   0  0  0  0  0  0  0  0  0  0  0  0
    7.8501   -1.6253    0.0000 H   0  0  0  0  0  0  0  0  0  0  0  0
   12.2051   -0.1280    0.0000 H   0  0  0  0  0  0  0  0  0  0  0  0
   11.8033    0.5618    0.0000 H   0  0  0  0  0  0  0  0  0  0  0  0
   10.0566   -2.5701    0.0000 H   0  0  0  0  0  0  0  0  0  0  0  0
   10.6694   -3.1973    0.0000 H   0  0  0  0  0  0  0  0  0  0  0  0
   11.2966   -2.5845    0.0000 H   0  0  0  0  0  0  0  0  0  0  0  0
    7.1962    1.0773    0.0000 H   0  0  0  0  0  0  0  0  0  0  0  0
    4.5981   -0.6627    0.0000 H   0  0  0  0  0  0  0  0  0  0  0  0
    4.5981    2.5773    0.0000 H   0  0  0  0  0  0  0  0  0  0  0  0
    3.1951    1.7673    0.0000 H   0  0  0  0  0  0  0  0  0  0  0  0
    6.3301    2.5773    0.0000 H   0  0  0  0  0  0  0  0  0  0  0  0
  1 25  1  0  0  0  0
  2 25  1  0  0  0  0
  3 25  1  0  0  0  0
  4 18  2  0  0  0  0
  5 21  1  0  0  0  0
  5 48  1  0  0  0  0
  6  8  1  0  0  0  0
  6  9  1  0  0  0  0
  6 13  1  0  0  0  0
 12  7  1  6  0  0  0
  7 18  1  0  0  0  0
  7 44  1  0  0  0  0
  8 10  1  0  0  0  0
  8 11  1  0  0  0  0
  8 26  1  6  0  0  0
  9 14  1  0  0  0  0
  9 17  1  1  0  0  0
  9 27  1  0  0  0  0
 10 12  1  0  0  0  0
 10 28  1  0  0  0  0
 10 29  1  0  0  0  0
 11 16  1  0  0  0  0
 11 30  1  0  0  0  0
 11 31  1  0  0  0  0
 12 15  1  0  0  0  0
 12 32  1  0  0  0  0
 13 15  1  0  0  0  0
 13 33  1  0  0  0  0
 13 34  1  0  0  0  0
 14 16  1  0  0  0  0
 14 35  1  0  0  0  0
 14 36  1  0  0  0  0
 15 37  1  0  0  0  0
 15 38  1  0  0  0  0
 16 39  1  0  0  0  0
 16 40  1  0  0  0  0
 17 41  1  0  0  0  0
 17 42  1  0  0  0  0
 17 43  1  0  0  0  0
 18 19  1  0  0  0  0
 19 20  1  0  0  0  0
 19 21  2  0  0  0  0
 20 22  2  0  0  0  0
 20 45  1  0  0  0  0
 21 23  1  0  0  0  0
 22 24  1  0  0  0  0
 22 25  1  0  0  0  0
 23 24  2  0  0  0  0
 23 46  1  0  0  0  0
 24 47  1  0  0  0  0
M  END
> <PUBCHEM_COMPOUND_CID>
505962
> <PUBCHEM_COMPOUND_CANONICALIZED>
1
> <PUBCHEM_CACTVS_COMPLEXITY>
485
> <PUBCHEM_CACTVS_HBOND_ACCEPTOR>
6
> <PUBCHEM_CACTVS_HBOND_DONOR>
2
> <PUBCHEM_CACTVS_ROTATABLE_BOND>
2
> <PUBCHEM_CACTVS_SUBSKEYS>
AAADceB7MYAAAAAAAAAAAAAAAAAAAAAAAAA8WIAAAAAAAACxAAAAHwAQCAAADCzBmBQyBoPAAgCIAiFSEACCAAAkIAAIiIEODMgIJjaC1ROEcUhm9hGImYeYyOCOIAACAAAIAABAAAQAABAAAAAAAAAAAA==
> <PUBCHEM_IUPAC_OPENEYE_NAME>
N-[(2S,6R,9aR)-6-methyl-2,3,4,6,7,8,9,9a-octahydro-1H-quinolizin-2-yl]-2-hydroxy-5-(trifluoromethyl)benzamide
> <PUBCHEM_IUPAC_CAS_NAME>
N-[(2S,6R,9aR)-6-methyl-2,3,4,6,7,8,9,9a-octahydro-1H-quinolizin-2-yl]-2-hydroxy-5-(trifluoromethyl)benzamide
> <PUBCHEM_IUPAC_NAME_MARKUP>
<I>N</I>-[(2<I>S</I>,6<I>R</I>,9<I>a</I><I>R</I>)-6-methyl-2,3,4,6,7,8,9,9<I>a</I>-octahydro-1<I>H</I>-quinolizin-2-yl]-2-hydroxy-5-(trifluoromethyl)benzamide
> <PUBCHEM_IUPAC_NAME>
N-[(2S,6R,9aR)-6-methyl-2,3,4,6,7,8,9,9a-octahydro-1H-quinolizin-2-yl]-2-hydroxy-5-(trifluoromethyl)benzamide
> <PUBCHEM_IUPAC_SYSTEMATIC_NAME>
N-[(2S,6R,9aR)-6-methyl-2,3,4,6,7,8,9,9a-octahydro-1H-quinolizin-2-yl]-2-oxidanyl-5-(trifluoromethyl)benzamide
> <PUBCHEM_IUPAC_TRADITIONAL_NAME>
N-[(2S,6R,9aR)-6-methylquinolizidin-2-yl]-2-hydroxy-5-(trifluoromethyl)benzamide
> <PUBCHEM_IUPAC_INCHI>
InChI=1S/C18H23F3N2O2/c1-11-3-2-4-14-10-13(7-8-23(11)14)22-17(25)15-9-12(18(19,20)21)5-6-16(15)24/h5-6,9,11,13-14,24H,2-4,7-8,10H2,1H3,(H,22,25)/t11-,13+,14-/m1/s1
> <PUBCHEM_IUPAC_INCHIKEY>
IIIUIBHHLBCRLX-KWCYVHTRSA-N
> <PUBCHEM_XLOGP3_AA>
4.2
> <PUBCHEM_EXACT_MASS>
356.17116247
> <PUBCHEM_MOLECULAR_FORMULA>
C18H23F3N2O2
> <PUBCHEM_MOLECULAR_WEIGHT>
356.4
> <PUBCHEM_OPENEYE_CAN_SMILES>
CC1CCCC2N1CCC(C2)NC(=O)C3=C(C=CC(=C3)C(F)(F)F)O
> <PUBCHEM_OPENEYE_ISO_SMILES>
C[C@@H]1CCC[C@H]2N1CC[C@@H](C2)NC(=O)C3=C(C=CC(=C3)C(F)(F)F)O
> <PUBCHEM_CACTVS_TPSA>
52.6
> <PUBCHEM_MONOISOTOPIC_WEIGHT>
356.17116247
> <PUBCHEM_TOTAL_CHARGE>
0
> <PUBCHEM_HEAVY_ATOM_COUNT>
25
> <PUBCHEM_ATOM_DEF_STEREO_COUNT>
3
> <PUBCHEM_ATOM_UDEF_STEREO_COUNT>
0
> <PUBCHEM_BOND_DEF_STEREO_COUNT>
0
> <PUBCHEM_BOND_UDEF_STEREO_COUNT>
0
> <PUBCHEM_ISOTOPIC_ATOM_COUNT>
0
> <PUBCHEM_COMPONENT_COUNT>
1
> <PUBCHEM_CACTVS_TAUTO_COUNT>
-1
> <PUBCHEM_COORDINATE_TYPE>
1
5
255
> <PUBCHEM_BONDANNOTATIONS>
19  20  8
19  21  8
20  22  8
21  23  8
22  24  8
23  24  8
12  7  6
8  26  6
9  17  5
$$$$
