505951
  -OEChem-10302200282D
 50 52  0     1  0  0  0  0  0999 V2000
    2.5369   -0.2327    0.0000 Cl  0  0  0  0  0  0  0  0  0  0  0  0
    6.0010   -1.2327    0.0000 O   0  0  0  0  0  0  0  0  0  0  0  0
    6.0010    1.7673    0.0000 O   0  0  0  0  0  0  0  0  0  0  0  0
    9.4651   -1.2327    0.0000 N   0  0  3  0  0  0  0  0  0  0  0  0
    6.8671    0.2673    0.0000 N   0  0  0  0  0  0  0  0  0  0  0  0
    2.5369    1.7673    0.0000 N   0  0  0  0  0  0  0  0  0  0  0  0
    9.4651   -0.2327    0.0000 C   0  0  1  0  0  0  0  0  0  0  0  0
   10.3591   -1.7674    0.0000 C   0  0  1  0  0  0  0  0  0  0  0  0
    8.5991    0.2673    0.0000 C   0  0  0  0  0  0  0  0  0  0  0  0
   10.3591    0.3020    0.0000 C   0  0  0  0  0  0  0  0  0  0  0  0
    7.7331   -0.2327    0.0000 C   0  0  2  0  0  0  0  0  0  0  0  0
    8.5991   -1.7327    0.0000 C   0  0  0  0  0  0  0  0  0  0  0  0
   11.2651   -1.2535    0.0000 C   0  0  0  0  0  0  0  0  0  0  0  0
    7.7331   -1.2327    0.0000 C   0  0  0  0  0  0  0  0  0  0  0  0
   11.2651   -0.2119    0.0000 C   0  0  0  0  0  0  0  0  0  0  0  0
   10.3475   -2.7673    0.0000 C   0  0  0  0  0  0  0  0  0  0  0  0
    6.0010   -0.2327    0.0000 C   0  0  0  0  0  0  0  0  0  0  0  0
    5.1350    0.2673    0.0000 C   0  0  0  0  0  0  0  0  0  0  0  0
    5.1350    1.2673    0.0000 C   0  0  0  0  0  0  0  0  0  0  0  0
    4.2690   -0.2327    0.0000 C   0  0  0  0  0  0  0  0  0  0  0  0
    4.2690    1.7673    0.0000 C   0  0  0  0  0  0  0  0  0  0  0  0
    3.4030    0.2673    0.0000 C   0  0  0  0  0  0  0  0  0  0  0  0
    3.4030    1.2673    0.0000 C   0  0  0  0  0  0  0  0  0  0  0  0
    6.0010    2.7673    0.0000 C   0  0  0  0  0  0  0  0  0  0  0  0
    9.4586    0.6173    0.0000 H   0  0  0  0  0  0  0  0  0  0  0  0
    9.8180   -2.0701    0.0000 H   0  0  0  0  0  0  0  0  0  0  0  0
    8.9976    0.7422    0.0000 H   0  0  0  0  0  0  0  0  0  0  0  0
    8.2006    0.7422    0.0000 H   0  0  0  0  0  0  0  0  0  0  0  0
   10.7527    0.7810    0.0000 H   0  0  0  0  0  0  0  0  0  0  0  0
    9.9545    0.7717    0.0000 H   0  0  0  0  0  0  0  0  0  0  0  0
    7.7331    0.3873    0.0000 H   0  0  0  0  0  0  0  0  0  0  0  0
    8.2006   -2.2076    0.0000 H   0  0  0  0  0  0  0  0  0  0  0  0
    8.9976   -2.2076    0.0000 H   0  0  0  0  0  0  0  0  0  0  0  0
   11.4742   -1.8372    0.0000 H   0  0  0  0  0  0  0  0  0  0  0  0
   11.8760   -1.1474    0.0000 H   0  0  0  0  0  0  0  0  0  0  0  0
    7.1225   -1.1250    0.0000 H   0  0  0  0  0  0  0  0  0  0  0  0
    7.5210   -1.8153    0.0000 H   0  0  0  0  0  0  0  0  0  0  0  0
   11.8760   -0.3180    0.0000 H   0  0  0  0  0  0  0  0  0  0  0  0
   11.4742    0.3718    0.0000 H   0  0  0  0  0  0  0  0  0  0  0  0
    9.7276   -2.7601    0.0000 H   0  0  0  0  0  0  0  0  0  0  0  0
   10.3403   -3.3873    0.0000 H   0  0  0  0  0  0  0  0  0  0  0  0
   10.9675   -2.7745    0.0000 H   0  0  0  0  0  0  0  0  0  0  0  0
    6.8671    0.8873    0.0000 H   0  0  0  0  0  0  0  0  0  0  0  0
    4.2690   -0.8527    0.0000 H   0  0  0  0  0  0  0  0  0  0  0  0
    4.2690    2.3873    0.0000 H   0  0  0  0  0  0  0  0  0  0  0  0
    2.5369    2.3873    0.0000 H   0  0  0  0  0  0  0  0  0  0  0  0
    2.0000    1.4573    0.0000 H   0  0  0  0  0  0  0  0  0  0  0  0
    6.6210    2.7673    0.0000 H   0  0  0  0  0  0  0  0  0  0  0  0
    6.0010    3.3873    0.0000 H   0  0  0  0  0  0  0  0  0  0  0  0
    5.3810    2.7673    0.0000 H   0  0  0  0  0  0  0  0  0  0  0  0
  1 22  1  0  0  0  0
  2 17  2  0  0  0  0
  3 19  1  0  0  0  0
  3 24  1  0  0  0  0
  4  7  1  0  0  0  0
  4  8  1  0  0  0  0
  4 12  1  0  0  0  0
 11  5  1  6  0  0  0
  5 17  1  0  0  0  0
  5 43  1  0  0  0  0
  6 23  1  0  0  0  0
  6 46  1  0  0  0  0
  6 47  1  0  0  0  0
  7  9  1  0  0  0  0
  7 10  1  0  0  0  0
  7 25  1  6  0  0  0
  8 13  1  0  0  0  0
  8 16  1  1  0  0  0
  8 26  1  0  0  0  0
  9 11  1  0  0  0  0
  9 27  1  0  0  0  0
  9 28  1  0  0  0  0
 10 15  1  0  0  0  0
 10 29  1  0  0  0  0
 10 30  1  0  0  0  0
 11 14  1  0  0  0  0
 11 31  1  0  0  0  0
 12 14  1  0  0  0  0
 12 32  1  0  0  0  0
 12 33  1  0  0  0  0
 13 15  1  0  0  0  0
 13 34  1  0  0  0  0
 13 35  1  0  0  0  0
 14 36  1  0  0  0  0
 14 37  1  0  0  0  0
 15 38  1  0  0  0  0
 15 39  1  0  0  0  0
 16 40  1  0  0  0  0
 16 41  1  0  0  0  0
 16 42  1  0  0  0  0
 17 18  1  0  0  0  0
 18 19  1  0  0  0  0
 18 20  2  0  0  0  0
 19 21  2  0  0  0  0
 20 22  1  0  0  0  0
 20 44  1  0  0  0  0
 21 23  1  0  0  0  0
 21 45  1  0  0  0  0
 22 23  2  0  0  0  0
 24 48  1  0  0  0  0
 24 49  1  0  0  0  0
 24 50  1  0  0  0  0
M  END
> <PUBCHEM_COMPOUND_CID>
505951
> <PUBCHEM_COMPOUND_CANONICALIZED>
1
> <PUBCHEM_CACTVS_COMPLEXITY>
450
> <PUBCHEM_CACTVS_HBOND_ACCEPTOR>
4
> <PUBCHEM_CACTVS_HBOND_DONOR>
2
> <PUBCHEM_CACTVS_ROTATABLE_BOND>
3
> <PUBCHEM_CACTVS_SUBSKEYS>
AAADceB7MAAEAAAAAAAAAAAAAAAAAAAAAAA8WIAAAAAAAACxAAAAHgIQAAAADC7BmCYyxoPABACIAiVSUACCCAAkJwAAiIEObsgMJjaF9puEMWhm9hmI6YeY2aGeCCAAIgAIABAQQABEABAAIAAAAAAAAA==
> <PUBCHEM_IUPAC_OPENEYE_NAME>
N-[(2S,6R,9aR)-6-methyl-2,3,4,6,7,8,9,9a-octahydro-1H-quinolizin-2-yl]-4-amino-5-chloro-2-methoxy-benzamide
> <PUBCHEM_IUPAC_CAS_NAME>
N-[(2S,6R,9aR)-6-methyl-2,3,4,6,7,8,9,9a-octahydro-1H-quinolizin-2-yl]-4-amino-5-chloro-2-methoxybenzamide
> <PUBCHEM_IUPAC_NAME_MARKUP>
<I>N</I>-[(2<I>S</I>,6<I>R</I>,9<I>a</I><I>R</I>)-6-methyl-2,3,4,6,7,8,9,9<I>a</I>-octahydro-1<I>H</I>-quinolizin-2-yl]-4-amino-5-chloro-2-methoxybenzamide
> <PUBCHEM_IUPAC_NAME>
N-[(2S,6R,9aR)-6-methyl-2,3,4,6,7,8,9,9a-octahydro-1H-quinolizin-2-yl]-4-amino-5-chloro-2-methoxybenzamide
> <PUBCHEM_IUPAC_SYSTEMATIC_NAME>
N-[(2S,6R,9aR)-6-methyl-2,3,4,6,7,8,9,9a-octahydro-1H-quinolizin-2-yl]-4-azanyl-5-chloranyl-2-methoxy-benzamide
> <PUBCHEM_IUPAC_TRADITIONAL_NAME>
N-[(2S,6R,9aR)-6-methylquinolizidin-2-yl]-4-amino-5-chloro-2-methoxy-benzamide
> <PUBCHEM_IUPAC_INCHI>
InChI=1S/C18H26ClN3O2/c1-11-4-3-5-13-8-12(6-7-22(11)13)21-18(23)14-9-15(19)16(20)10-17(14)24-2/h9-13H,3-8,20H2,1-2H3,(H,21,23)/t11-,12+,13-/m1/s1
> <PUBCHEM_IUPAC_INCHIKEY>
IDNZRSXQOGDYGG-FRRDWIJNSA-N
> <PUBCHEM_XLOGP3_AA>
3.1
> <PUBCHEM_EXACT_MASS>
351.1713548
> <PUBCHEM_MOLECULAR_FORMULA>
C18H26ClN3O2
> <PUBCHEM_MOLECULAR_WEIGHT>
351.9
> <PUBCHEM_OPENEYE_CAN_SMILES>
CC1CCCC2N1CCC(C2)NC(=O)C3=CC(=C(C=C3OC)N)Cl
> <PUBCHEM_OPENEYE_ISO_SMILES>
C[C@@H]1CCC[C@H]2N1CC[C@@H](C2)NC(=O)C3=CC(=C(C=C3OC)N)Cl
> <PUBCHEM_CACTVS_TPSA>
67.6
> <PUBCHEM_MONOISOTOPIC_WEIGHT>
351.1713548
> <PUBCHEM_TOTAL_CHARGE>
0
> <PUBCHEM_HEAVY_ATOM_COUNT>
24
> <PUBCHEM_ATOM_DEF_STEREO_COUNT>
3
> <PUBCHEM_ATOM_UDEF_STEREO_COUNT>
0
> <PUBCHEM_BOND_DEF_STEREO_COUNT>
0
> <PUBCHEM_BOND_UDEF_STEREO_COUNT>
0
> <PUBCHEM_ISOTOPIC_ATOM_COUNT>
0
> <PUBCHEM_COMPONENT_COUNT>
1
> <PUBCHEM_CACTVS_TAUTO_COUNT>
-1
> <PUBCHEM_COORDINATE_TYPE>
1
5
255
> <PUBCHEM_BONDANNOTATIONS>
18  19  8
18  20  8
19  21  8
20  22  8
21  23  8
22  23  8
11  5  6
7  25  6
8  16  5
$$$$
