505923
  -OEChem-10302200282D
 41 41  0     1  0  0  0  0  0999 V2000
    6.0010    0.5600    0.0000 O   0  0  0  0  0  0  0  0  0  0  0  0
    5.1350   -2.9400    0.0000 O   0  0  0  0  0  0  0  0  0  0  0  0
    6.0010    1.5600    0.0000 O   0  0  0  0  0  0  0  0  0  0  0  0
    3.4030   -2.9400    0.0000 O   0  0  0  0  0  0  0  0  0  0  0  0
    4.2690    1.5600    0.0000 N   0  0  0  0  0  0  0  0  0  0  0  0
    2.5369    0.5600    0.0000 N   0  0  0  0  0  0  0  0  0  0  0  0
    4.2690    0.5600    0.0000 C   0  0  2  0  0  0  0  0  0  0  0  0
    3.4030    0.0600    0.0000 C   0  0  2  0  0  0  0  0  0  0  0  0
    5.1350    0.0600    0.0000 C   0  0  1  0  0  0  0  0  0  0  0  0
    3.4030   -0.9400    0.0000 C   0  0  0  0  0  0  0  0  0  0  0  0
    5.1350   -0.9400    0.0000 C   0  0  0  0  0  0  0  0  0  0  0  0
    4.2690   -1.4400    0.0000 C   0  0  0  0  0  0  0  0  0  0  0  0
    6.8671    0.0600    0.0000 C   0  0  0  0  0  0  0  0  0  0  0  0
    5.1350    2.0600    0.0000 C   0  0  0  0  0  0  0  0  0  0  0  0
    4.2690   -2.4400    0.0000 C   0  0  0  0  0  0  0  0  0  0  0  0
    7.7331    0.5600    0.0000 C   0  0  0  0  0  0  0  0  0  0  0  0
    5.1350    3.0600    0.0000 C   0  0  0  0  0  0  0  0  0  0  0  0
    8.5991    0.0600    0.0000 C   0  0  0  0  0  0  0  0  0  0  0  0
    6.0010    3.5600    0.0000 C   0  0  0  0  0  0  0  0  0  0  0  0
    4.8059    0.8700    0.0000 H   0  0  0  0  0  0  0  0  0  0  0  0
    3.4030    0.6800    0.0000 H   0  0  0  0  0  0  0  0  0  0  0  0
    5.6720   -0.2500    0.0000 H   0  0  0  0  0  0  0  0  0  0  0  0
    2.7924   -0.8323    0.0000 H   0  0  0  0  0  0  0  0  0  0  0  0
    3.1909   -1.5226    0.0000 H   0  0  0  0  0  0  0  0  0  0  0  0
    5.6720   -1.2500    0.0000 H   0  0  0  0  0  0  0  0  0  0  0  0
    3.7320    1.8700    0.0000 H   0  0  0  0  0  0  0  0  0  0  0  0
    2.0000    0.2500    0.0000 H   0  0  0  0  0  0  0  0  0  0  0  0
    2.5369    1.1800    0.0000 H   0  0  0  0  0  0  0  0  0  0  0  0
    6.4685   -0.4149    0.0000 H   0  0  0  0  0  0  0  0  0  0  0  0
    7.2656   -0.4149    0.0000 H   0  0  0  0  0  0  0  0  0  0  0  0
    8.1316    1.0350    0.0000 H   0  0  0  0  0  0  0  0  0  0  0  0
    7.3346    1.0350    0.0000 H   0  0  0  0  0  0  0  0  0  0  0  0
    4.9230    3.6426    0.0000 H   0  0  0  0  0  0  0  0  0  0  0  0
    4.5244    2.9523    0.0000 H   0  0  0  0  0  0  0  0  0  0  0  0
    8.2891   -0.4769    0.0000 H   0  0  0  0  0  0  0  0  0  0  0  0
    9.1360   -0.2500    0.0000 H   0  0  0  0  0  0  0  0  0  0  0  0
    8.9091    0.5969    0.0000 H   0  0  0  0  0  0  0  0  0  0  0  0
    6.3110    3.0231    0.0000 H   0  0  0  0  0  0  0  0  0  0  0  0
    6.5380    3.8700    0.0000 H   0  0  0  0  0  0  0  0  0  0  0  0
    5.6910    4.0969    0.0000 H   0  0  0  0  0  0  0  0  0  0  0  0
    5.1350   -3.5600    0.0000 H   0  0  0  0  0  0  0  0  0  0  0  0
  9  1  1  6  0  0  0
  1 13  1  0  0  0  0
  2 15  1  0  0  0  0
  2 41  1  0  0  0  0
  3 14  2  0  0  0  0
  4 15  2  0  0  0  0
  7  5  1  1  0  0  0
  5 14  1  0  0  0  0
  5 26  1  0  0  0  0
  8  6  1  6  0  0  0
  6 27  1  0  0  0  0
  6 28  1  0  0  0  0
  7  8  1  0  0  0  0
  7  9  1  0  0  0  0
  7 20  1  0  0  0  0
  8 10  1  0  0  0  0
  8 21  1  0  0  0  0
  9 11  1  0  0  0  0
  9 22  1  0  0  0  0
 10 12  1  0  0  0  0
 10 23  1  0  0  0  0
 10 24  1  0  0  0  0
 11 12  2  0  0  0  0
 11 25  1  0  0  0  0
 12 15  1  0  0  0  0
 13 16  1  0  0  0  0
 13 29  1  0  0  0  0
 13 30  1  0  0  0  0
 14 17  1  0  0  0  0
 16 18  1  0  0  0  0
 16 31  1  0  0  0  0
 16 32  1  0  0  0  0
 17 19  1  0  0  0  0
 17 33  1  0  0  0  0
 17 34  1  0  0  0  0
 18 35  1  0  0  0  0
 18 36  1  0  0  0  0
 18 37  1  0  0  0  0
 19 38  1  0  0  0  0
 19 39  1  0  0  0  0
 19 40  1  0  0  0  0
M  END
> <PUBCHEM_COMPOUND_CID>
505923
> <PUBCHEM_COMPOUND_CANONICALIZED>
1
> <PUBCHEM_CACTVS_COMPLEXITY>
368
> <PUBCHEM_CACTVS_HBOND_ACCEPTOR>
5
> <PUBCHEM_CACTVS_HBOND_DONOR>
3
> <PUBCHEM_CACTVS_ROTATABLE_BOND>
6
> <PUBCHEM_CACTVS_SUBSKEYS>
AAADceBzOAAAAAAAAAAAAAAAAAAAAAAAAAAgAAAAAAAAAAAAAAAAHgAQCAAADDzhgAYCCALABgCIAiHSGAAAAAAgAAAACIEIAEgCRBIAoQAXUAAGlgCYMYO82SOQAAAAAAAAAAAAAAAAAAAAAAAAAAAAAA==
> <PUBCHEM_IUPAC_OPENEYE_NAME>
(3R,4R,5S)-5-amino-4-(propanoylamino)-3-propoxy-cyclohexene-1-carboxylic acid
> <PUBCHEM_IUPAC_CAS_NAME>
(3R,4R,5S)-5-amino-4-(1-oxopropylamino)-3-propoxy-1-cyclohexenecarboxylic acid
> <PUBCHEM_IUPAC_NAME_MARKUP>
(3<I>R</I>,4<I>R</I>,5<I>S</I>)-5-amino-4-(propanoylamino)-3-propoxycyclohexene-1-carboxylic acid
> <PUBCHEM_IUPAC_NAME>
(3R,4R,5S)-5-amino-4-(propanoylamino)-3-propoxycyclohexene-1-carboxylic acid
> <PUBCHEM_IUPAC_SYSTEMATIC_NAME>
(3R,4R,5S)-5-azanyl-4-(propanoylamino)-3-propoxy-cyclohexene-1-carboxylic acid
> <PUBCHEM_IUPAC_TRADITIONAL_NAME>
(3R,4R,5S)-5-amino-4-propionamido-3-propoxy-cyclohexene-1-carboxylic acid
> <PUBCHEM_IUPAC_INCHI>
InChI=1S/C13H22N2O4/c1-3-5-19-10-7-8(13(17)18)6-9(14)12(10)15-11(16)4-2/h7,9-10,12H,3-6,14H2,1-2H3,(H,15,16)(H,17,18)/t9-,10+,12+/m0/s1
> <PUBCHEM_IUPAC_INCHIKEY>
JSSVBLPCZUAOLK-HOSYDEDBSA-N
> <PUBCHEM_XLOGP3_AA>
-2.4
> <PUBCHEM_EXACT_MASS>
270.15795719
> <PUBCHEM_MOLECULAR_FORMULA>
C13H22N2O4
> <PUBCHEM_MOLECULAR_WEIGHT>
270.32
> <PUBCHEM_OPENEYE_CAN_SMILES>
CCCOC1C=C(CC(C1NC(=O)CC)N)C(=O)O
> <PUBCHEM_OPENEYE_ISO_SMILES>
CCCO[C@@H]1C=C(C[C@@H]([C@H]1NC(=O)CC)N)C(=O)O
> <PUBCHEM_CACTVS_TPSA>
102
> <PUBCHEM_MONOISOTOPIC_WEIGHT>
270.15795719
> <PUBCHEM_TOTAL_CHARGE>
0
> <PUBCHEM_HEAVY_ATOM_COUNT>
19
> <PUBCHEM_ATOM_DEF_STEREO_COUNT>
3
> <PUBCHEM_ATOM_UDEF_STEREO_COUNT>
0
> <PUBCHEM_BOND_DEF_STEREO_COUNT>
0
> <PUBCHEM_BOND_UDEF_STEREO_COUNT>
0
> <PUBCHEM_ISOTOPIC_ATOM_COUNT>
0
> <PUBCHEM_COMPONENT_COUNT>
1
> <PUBCHEM_CACTVS_TAUTO_COUNT>
-1
> <PUBCHEM_COORDINATE_TYPE>
1
5
255
> <PUBCHEM_BONDANNOTATIONS>
9  1  6
7  5  5
8  6  6
$$$$
