505991
  -OEChem-10302200282D
 81 82  0     1  0  0  0  0  0999 V2000
    5.4641   -2.1830    0.0000 S   0  0  0  0  0  0  0  0  0  0  0  0
    6.3301    2.3170    0.0000 S   0  0  0  0  0  0  0  0  0  0  0  0
    4.5981   -0.6830    0.0000 O   0  0  0  0  0  0  0  0  0  0  0  0
    7.1962   -0.1830    0.0000 O   0  0  0  0  0  0  0  0  0  0  0  0
    3.7320    3.8170    0.0000 O   0  0  0  0  0  0  0  0  0  0  0  0
    9.7942   -1.6830    0.0000 O   0  0  0  0  0  0  0  0  0  0  0  0
    2.8660    2.3170    0.0000 O   0  0  0  0  0  0  0  0  0  0  0  0
    8.9282   -3.1830    0.0000 O   0  0  0  0  0  0  0  0  0  0  0  0
    4.5981    2.3170    0.0000 N   0  0  0  0  0  0  0  0  0  0  0  0
    8.0622   -1.6830    0.0000 N   0  0  0  0  0  0  0  0  0  0  0  0
    5.4641    0.8170    0.0000 C   0  0  2  0  0  0  0  0  0  0  0  0
    5.4641   -0.1830    0.0000 C   0  0  2  0  0  0  0  0  0  0  0  0
    6.3301   -0.6830    0.0000 C   0  0  1  0  0  0  0  0  0  0  0  0
    6.3301   -1.6830    0.0000 C   0  0  2  0  0  0  0  0  0  0  0  0
    4.5981    1.3170    0.0000 C   0  0  0  0  0  0  0  0  0  0  0  0
    6.3301    1.3170    0.0000 C   0  0  0  0  0  0  0  0  0  0  0  0
    7.1962   -2.1830    0.0000 C   0  0  0  0  0  0  0  0  0  0  0  0
    5.4641   -3.1830    0.0000 C   0  0  0  0  0  0  0  0  0  0  0  0
    3.7320    2.8170    0.0000 C   0  0  0  0  0  0  0  0  0  0  0  0
    7.1962    2.8170    0.0000 C   0  0  0  0  0  0  0  0  0  0  0  0
    2.8660    4.3170    0.0000 C   0  0  0  0  0  0  0  0  0  0  0  0
    8.9282   -2.1830    0.0000 C   0  0  0  0  0  0  0  0  0  0  0  0
   10.6603   -2.1830    0.0000 C   0  0  0  0  0  0  0  0  0  0  0  0
    6.3301   -3.6830    0.0000 C   0  0  0  0  0  0  0  0  0  0  0  0
    4.5981   -3.6830    0.0000 C   0  0  0  0  0  0  0  0  0  0  0  0
    2.0000    4.8170    0.0000 C   0  0  0  0  0  0  0  0  0  0  0  0
    3.3660    5.1830    0.0000 C   0  0  0  0  0  0  0  0  0  0  0  0
    2.3660    3.4510    0.0000 C   0  0  0  0  0  0  0  0  0  0  0  0
    8.0622    2.3170    0.0000 C   0  0  0  0  0  0  0  0  0  0  0  0
    7.1962    3.8170    0.0000 C   0  0  0  0  0  0  0  0  0  0  0  0
   11.5263   -2.6830    0.0000 C   0  0  0  0  0  0  0  0  0  0  0  0
   11.1603   -1.3170    0.0000 C   0  0  0  0  0  0  0  0  0  0  0  0
   10.1603   -3.0490    0.0000 C   0  0  0  0  0  0  0  0  0  0  0  0
    6.3301   -4.6830    0.0000 C   0  0  0  0  0  0  0  0  0  0  0  0
    4.5981   -4.6830    0.0000 C   0  0  0  0  0  0  0  0  0  0  0  0
    5.4641   -5.1830    0.0000 C   0  0  0  0  0  0  0  0  0  0  0  0
    8.9282    2.8170    0.0000 C   0  0  0  0  0  0  0  0  0  0  0  0
    8.0622    4.3170    0.0000 C   0  0  0  0  0  0  0  0  0  0  0  0
    8.9282    3.8170    0.0000 C   0  0  0  0  0  0  0  0  0  0  0  0
    5.4641    1.4370    0.0000 H   0  0  0  0  0  0  0  0  0  0  0  0
    5.4641   -0.8030    0.0000 H   0  0  0  0  0  0  0  0  0  0  0  0
    6.8671   -0.9930    0.0000 H   0  0  0  0  0  0  0  0  0  0  0  0
    6.3301   -2.3030    0.0000 H   0  0  0  0  0  0  0  0  0  0  0  0
    3.9875    1.4246    0.0000 H   0  0  0  0  0  0  0  0  0  0  0  0
    4.3860    0.7344    0.0000 H   0  0  0  0  0  0  0  0  0  0  0  0
    6.5422    0.7344    0.0000 H   0  0  0  0  0  0  0  0  0  0  0  0
    6.9407    1.4246    0.0000 H   0  0  0  0  0  0  0  0  0  0  0  0
    6.7976   -2.6580    0.0000 H   0  0  0  0  0  0  0  0  0  0  0  0
    7.5947   -2.6580    0.0000 H   0  0  0  0  0  0  0  0  0  0  0  0
    4.0611   -0.3730    0.0000 H   0  0  0  0  0  0  0  0  0  0  0  0
    5.1350    2.6270    0.0000 H   0  0  0  0  0  0  0  0  0  0  0  0
    7.1962    0.4370    0.0000 H   0  0  0  0  0  0  0  0  0  0  0  0
    8.0622   -1.0630    0.0000 H   0  0  0  0  0  0  0  0  0  0  0  0
    6.8671   -3.3730    0.0000 H   0  0  0  0  0  0  0  0  0  0  0  0
    4.0611   -3.3730    0.0000 H   0  0  0  0  0  0  0  0  0  0  0  0
    2.3100    5.3539    0.0000 H   0  0  0  0  0  0  0  0  0  0  0  0
    1.4631    5.1270    0.0000 H   0  0  0  0  0  0  0  0  0  0  0  0
    1.6900    4.2800    0.0000 H   0  0  0  0  0  0  0  0  0  0  0  0
    3.9030    4.8730    0.0000 H   0  0  0  0  0  0  0  0  0  0  0  0
    3.6760    5.7200    0.0000 H   0  0  0  0  0  0  0  0  0  0  0  0
    2.8291    5.4930    0.0000 H   0  0  0  0  0  0  0  0  0  0  0  0
    1.8291    3.7610    0.0000 H   0  0  0  0  0  0  0  0  0  0  0  0
    2.0560    2.9140    0.0000 H   0  0  0  0  0  0  0  0  0  0  0  0
    2.9030    3.1410    0.0000 H   0  0  0  0  0  0  0  0  0  0  0  0
    8.0622    1.6970    0.0000 H   0  0  0  0  0  0  0  0  0  0  0  0
    6.6592    4.1270    0.0000 H   0  0  0  0  0  0  0  0  0  0  0  0
   11.2163   -3.2200    0.0000 H   0  0  0  0  0  0  0  0  0  0  0  0
   12.0632   -2.9930    0.0000 H   0  0  0  0  0  0  0  0  0  0  0  0
   11.8363   -2.1461    0.0000 H   0  0  0  0  0  0  0  0  0  0  0  0
   11.6972   -1.6270    0.0000 H   0  0  0  0  0  0  0  0  0  0  0  0
   11.4703   -0.7801    0.0000 H   0  0  0  0  0  0  0  0  0  0  0  0
   10.6233   -1.0070    0.0000 H   0  0  0  0  0  0  0  0  0  0  0  0
    9.6233   -2.7390    0.0000 H   0  0  0  0  0  0  0  0  0  0  0  0
    9.8503   -3.5860    0.0000 H   0  0  0  0  0  0  0  0  0  0  0  0
   10.6972   -3.3590    0.0000 H   0  0  0  0  0  0  0  0  0  0  0  0
    6.8671   -4.9930    0.0000 H   0  0  0  0  0  0  0  0  0  0  0  0
    4.0611   -4.9930    0.0000 H   0  0  0  0  0  0  0  0  0  0  0  0
    5.4641   -5.8030    0.0000 H   0  0  0  0  0  0  0  0  0  0  0  0
    9.4651    2.5070    0.0000 H   0  0  0  0  0  0  0  0  0  0  0  0
    8.0622    4.9370    0.0000 H   0  0  0  0  0  0  0  0  0  0  0  0
    9.4651    4.1270    0.0000 H   0  0  0  0  0  0  0  0  0  0  0  0
  1 14  1  0  0  0  0
  1 18  1  0  0  0  0
  2 16  1  0  0  0  0
  2 20  1  0  0  0  0
 12  3  1  6  0  0  0
  3 50  1  0  0  0  0
 13  4  1  6  0  0  0
  4 52  1  0  0  0  0
  5 19  1  0  0  0  0
  5 21  1  0  0  0  0
  6 22  1  0  0  0  0
  6 23  1  0  0  0  0
  7 19  2  0  0  0  0
  8 22  2  0  0  0  0
  9 15  1  0  0  0  0
  9 19  1  0  0  0  0
  9 51  1  0  0  0  0
 10 17  1  0  0  0  0
 10 22  1  0  0  0  0
 10 53  1  0  0  0  0
 11 12  1  0  0  0  0
 11 15  1  6  0  0  0
 11 16  1  0  0  0  0
 11 40  1  0  0  0  0
 12 13  1  0  0  0  0
 12 41  1  0  0  0  0
 13 14  1  0  0  0  0
 13 42  1  0  0  0  0
 14 17  1  6  0  0  0
 14 43  1  0  0  0  0
 15 44  1  0  0  0  0
 15 45  1  0  0  0  0
 16 46  1  0  0  0  0
 16 47  1  0  0  0  0
 17 48  1  0  0  0  0
 17 49  1  0  0  0  0
 18 24  2  0  0  0  0
 18 25  1  0  0  0  0
 20 29  2  0  0  0  0
 20 30  1  0  0  0  0
 21 26  1  0  0  0  0
 21 27  1  0  0  0  0
 21 28  1  0  0  0  0
 23 31  1  0  0  0  0
 23 32  1  0  0  0  0
 23 33  1  0  0  0  0
 24 34  1  0  0  0  0
 24 54  1  0  0  0  0
 25 35  2  0  0  0  0
 25 55  1  0  0  0  0
 26 56  1  0  0  0  0
 26 57  1  0  0  0  0
 26 58  1  0  0  0  0
 27 59  1  0  0  0  0
 27 60  1  0  0  0  0
 27 61  1  0  0  0  0
 28 62  1  0  0  0  0
 28 63  1  0  0  0  0
 28 64  1  0  0  0  0
 29 37  1  0  0  0  0
 29 65  1  0  0  0  0
 30 38  2  0  0  0  0
 30 66  1  0  0  0  0
 31 67  1  0  0  0  0
 31 68  1  0  0  0  0
 31 69  1  0  0  0  0
 32 70  1  0  0  0  0
 32 71  1  0  0  0  0
 32 72  1  0  0  0  0
 33 73  1  0  0  0  0
 33 74  1  0  0  0  0
 33 75  1  0  0  0  0
 34 36  2  0  0  0  0
 34 76  1  0  0  0  0
 35 36  1  0  0  0  0
 35 77  1  0  0  0  0
 36 78  1  0  0  0  0
 37 39  2  0  0  0  0
 37 79  1  0  0  0  0
 38 39  1  0  0  0  0
 38 80  1  0  0  0  0
 39 81  1  0  0  0  0
M  END
> <PUBCHEM_COMPOUND_CID>
505991
> <PUBCHEM_COMPOUND_CANONICALIZED>
1
> <PUBCHEM_CACTVS_COMPLEXITY>
730
> <PUBCHEM_CACTVS_HBOND_ACCEPTOR>
8
> <PUBCHEM_CACTVS_HBOND_DONOR>
4
> <PUBCHEM_CACTVS_ROTATABLE_BOND>
16
> <PUBCHEM_CACTVS_SUBSKEYS>
AAADcfB7OABgAAAAAAAAAAAAAAAAAAAAAAAwYAAAAAAAAAABQAAAHgQQCAAADVTl0AayCYLABgiIACBCGAACAAAgCBAIiJgIAIkJMCKgkRCMYAAmlgApiAcwAAAMAAAAAAAAAAAAAAAAAAAAAAAAAAAAAA==
> <PUBCHEM_IUPAC_OPENEYE_NAME>
tert-butyl N-[(2S,3R,4S,5S)-6-(tert-butoxycarbonylamino)-3,4-dihydroxy-5-phenylsulfanyl-2-(phenylsulfanylmethyl)hexyl]carbamate
> <PUBCHEM_IUPAC_CAS_NAME>
N-[(2S,3S,4R,5S)-3,4-dihydroxy-5-[[[(2-methylpropan-2-yl)oxy-oxomethyl]amino]methyl]-2,6-bis(phenylthio)hexyl]carbamic acid tert-butyl ester
> <PUBCHEM_IUPAC_NAME_MARKUP>
<I>tert</I>-butyl <I>N</I>-[(2<I>S</I>,3<I>S</I>,4<I>R</I>,5<I>S</I>)-3,4-dihydroxy-5-[[(2-methylpropan-2-yl)oxycarbonylamino]methyl]-2,6-bis(phenylsulfanyl)hexyl]carbamate
> <PUBCHEM_IUPAC_NAME>
tert-butyl N-[(2S,3S,4R,5S)-3,4-dihydroxy-5-[[(2-methylpropan-2-yl)oxycarbonylamino]methyl]-2,6-bis(phenylsulfanyl)hexyl]carbamate
> <PUBCHEM_IUPAC_SYSTEMATIC_NAME>
tert-butyl N-[(2S,3R,4S,5S)-6-[(2-methylpropan-2-yl)oxycarbonylamino]-3,4-bis(oxidanyl)-5-phenylsulfanyl-2-(phenylsulfanylmethyl)hexyl]carbamate
> <PUBCHEM_IUPAC_TRADITIONAL_NAME>
N-[(2S,3R,4S,5S)-6-(tert-butoxycarbonylamino)-3,4-dihydroxy-5-(phenylthio)-2-[(phenylthio)methyl]hexyl]carbamic acid tert-butyl ester
> <PUBCHEM_IUPAC_INCHI>
InChI=1S/C29H42N2O6S2/c1-28(2,3)36-26(34)30-17-20(19-38-21-13-9-7-10-14-21)24(32)25(33)23(39-22-15-11-8-12-16-22)18-31-27(35)37-29(4,5)6/h7-16,20,23-25,32-33H,17-19H2,1-6H3,(H,30,34)(H,31,35)/t20-,23+,24-,25-/m1/s1
> <PUBCHEM_IUPAC_INCHIKEY>
IICBWNORTYNFKZ-HKTJVKLFSA-N
> <PUBCHEM_XLOGP3_AA>
5.1
> <PUBCHEM_EXACT_MASS>
578.24842941
> <PUBCHEM_MOLECULAR_FORMULA>
C29H42N2O6S2
> <PUBCHEM_MOLECULAR_WEIGHT>
578.8
> <PUBCHEM_OPENEYE_CAN_SMILES>
CC(C)(C)OC(=O)NCC(CSC1=CC=CC=C1)C(C(C(CNC(=O)OC(C)(C)C)SC2=CC=CC=C2)O)O
> <PUBCHEM_OPENEYE_ISO_SMILES>
CC(C)(C)OC(=O)NC[C@H](CSC1=CC=CC=C1)[C@H]([C@@H]([C@H](CNC(=O)OC(C)(C)C)SC2=CC=CC=C2)O)O
> <PUBCHEM_CACTVS_TPSA>
168
> <PUBCHEM_MONOISOTOPIC_WEIGHT>
578.24842941
> <PUBCHEM_TOTAL_CHARGE>
0
> <PUBCHEM_HEAVY_ATOM_COUNT>
39
> <PUBCHEM_ATOM_DEF_STEREO_COUNT>
4
> <PUBCHEM_ATOM_UDEF_STEREO_COUNT>
0
> <PUBCHEM_BOND_DEF_STEREO_COUNT>
0
> <PUBCHEM_BOND_UDEF_STEREO_COUNT>
0
> <PUBCHEM_ISOTOPIC_ATOM_COUNT>
0
> <PUBCHEM_COMPONENT_COUNT>
1
> <PUBCHEM_CACTVS_TAUTO_COUNT>
-1
> <PUBCHEM_COORDINATE_TYPE>
1
5
255
> <PUBCHEM_BONDANNOTATIONS>
11  15  6
14  17  6
18  24  8
18  25  8
20  29  8
20  30  8
24  34  8
25  35  8
29  37  8
12  3  6
30  38  8
34  36  8
35  36  8
37  39  8
38  39  8
13  4  6
$$$$
