505905
  -OEChem-10302200282D
 47 47  0     1  0  0  0  0  0999 V2000
    6.8671   -1.0000    0.0000 O   0  0  0  0  0  0  0  0  0  0  0  0
    7.7331    1.5000    0.0000 O   0  0  0  0  0  0  0  0  0  0  0  0
    8.5991   -1.0000    0.0000 O   0  0  0  0  0  0  0  0  0  0  0  0
   10.3312    0.0000    0.0000 O   0  0  0  0  0  0  0  0  0  0  0  0
    4.2690    1.5000    0.0000 O   0  0  0  0  0  0  0  0  0  0  0  0
    6.0010    1.5000    0.0000 N   0  0  0  0  0  0  0  0  0  0  0  0
    4.2690    0.5000    0.0000 N   0  0  0  0  0  0  0  0  0  0  0  0
    2.5369    0.5000    0.0000 N   0  0  0  0  0  0  0  0  0  0  0  0
    3.4030   -1.0000    0.0000 N   0  0  0  0  0  0  0  0  0  0  0  0
    6.8671    0.0000    0.0000 C   0  0  2  0  0  0  0  0  0  0  0  0
    6.0010    0.5000    0.0000 C   0  0  1  0  0  0  0  0  0  0  0  0
    7.7331    0.5000    0.0000 C   0  0  1  0  0  0  0  0  0  0  0  0
    5.1350   -0.0000    0.0000 C   0  0  2  0  0  0  0  0  0  0  0  0
    8.5991    0.0000    0.0000 C   0  0  1  0  0  0  0  0  0  0  0  0
    5.1350   -1.0000    0.0000 C   0  0  0  0  0  0  0  0  0  0  0  0
    6.0010   -1.5000    0.0000 C   0  0  0  0  0  0  0  0  0  0  0  0
    9.4651    0.5000    0.0000 C   0  0  0  0  0  0  0  0  0  0  0  0
    6.0010   -2.5000    0.0000 C   0  0  0  0  0  0  0  0  0  0  0  0
    5.1350    2.0000    0.0000 C   0  0  0  0  0  0  0  0  0  0  0  0
    3.4030   -0.0000    0.0000 C   0  0  0  0  0  0  0  0  0  0  0  0
    5.1350   -3.0000    0.0000 C   0  0  0  0  0  0  0  0  0  0  0  0
    5.1350    3.0000    0.0000 C   0  0  0  0  0  0  0  0  0  0  0  0
    6.8671   -3.0000    0.0000 C   0  0  0  0  0  0  0  0  0  0  0  0
    7.6032   -0.4250    0.0000 H   0  0  0  0  0  0  0  0  0  0  0  0
    6.5380    0.8100    0.0000 H   0  0  0  0  0  0  0  0  0  0  0  0
    8.2700    0.8100    0.0000 H   0  0  0  0  0  0  0  0  0  0  0  0
    5.1350    0.6200    0.0000 H   0  0  0  0  0  0  0  0  0  0  0  0
    8.0622   -0.3100    0.0000 H   0  0  0  0  0  0  0  0  0  0  0  0
    4.5981   -1.3100    0.0000 H   0  0  0  0  0  0  0  0  0  0  0  0
    6.5380    1.8100    0.0000 H   0  0  0  0  0  0  0  0  0  0  0  0
    9.8637    0.9749    0.0000 H   0  0  0  0  0  0  0  0  0  0  0  0
    9.0666    0.9749    0.0000 H   0  0  0  0  0  0  0  0  0  0  0  0
    8.2700    1.8100    0.0000 H   0  0  0  0  0  0  0  0  0  0  0  0
    9.1360   -1.3100    0.0000 H   0  0  0  0  0  0  0  0  0  0  0  0
    4.8250   -2.4631    0.0000 H   0  0  0  0  0  0  0  0  0  0  0  0
    4.5981   -3.3100    0.0000 H   0  0  0  0  0  0  0  0  0  0  0  0
    5.4450   -3.5369    0.0000 H   0  0  0  0  0  0  0  0  0  0  0  0
    5.7550    3.0000    0.0000 H   0  0  0  0  0  0  0  0  0  0  0  0
    5.1350    3.6200    0.0000 H   0  0  0  0  0  0  0  0  0  0  0  0
    4.5150    3.0000    0.0000 H   0  0  0  0  0  0  0  0  0  0  0  0
   10.8681    0.3100    0.0000 H   0  0  0  0  0  0  0  0  0  0  0  0
    6.8671   -3.6200    0.0000 H   0  0  0  0  0  0  0  0  0  0  0  0
    7.4040   -2.6900    0.0000 H   0  0  0  0  0  0  0  0  0  0  0  0
    2.0000    0.1900    0.0000 H   0  0  0  0  0  0  0  0  0  0  0  0
    2.5369    1.1200    0.0000 H   0  0  0  0  0  0  0  0  0  0  0  0
    2.8660   -1.3100    0.0000 H   0  0  0  0  0  0  0  0  0  0  0  0
    3.9399   -1.3100    0.0000 H   0  0  0  0  0  0  0  0  0  0  0  0
  1 10  1  0  0  0  0
  1 16  1  0  0  0  0
 12  2  1  6  0  0  0
  2 33  1  0  0  0  0
 14  3  1  1  0  0  0
  3 34  1  0  0  0  0
  4 17  1  0  0  0  0
  4 41  1  0  0  0  0
  5 19  2  0  0  0  0
 11  6  1  1  0  0  0
  6 19  1  0  0  0  0
  6 30  1  0  0  0  0
 13  7  1  6  0  0  0
  7 20  2  0  0  0  0
  8 20  1  0  0  0  0
  8 44  1  0  0  0  0
  8 45  1  0  0  0  0
  9 20  1  0  0  0  0
  9 46  1  0  0  0  0
  9 47  1  0  0  0  0
 10 11  1  0  0  0  0
 10 12  1  0  0  0  0
 10 24  1  1  0  0  0
 11 13  1  0  0  0  0
 11 25  1  0  0  0  0
 12 14  1  0  0  0  0
 12 26  1  0  0  0  0
 13 15  1  0  0  0  0
 13 27  1  0  0  0  0
 14 17  1  0  0  0  0
 14 28  1  0  0  0  0
 15 16  2  0  0  0  0
 15 29  1  0  0  0  0
 16 18  1  0  0  0  0
 17 31  1  0  0  0  0
 17 32  1  0  0  0  0
 18 21  1  0  0  0  0
 18 23  2  0  0  0  0
 19 22  1  0  0  0  0
 21 35  1  0  0  0  0
 21 36  1  0  0  0  0
 21 37  1  0  0  0  0
 22 38  1  0  0  0  0
 22 39  1  0  0  0  0
 22 40  1  0  0  0  0
 23 42  1  0  0  0  0
 23 43  1  0  0  0  0
M  END
> <PUBCHEM_COMPOUND_CID>
505905
> <PUBCHEM_COMPOUND_CANONICALIZED>
1
> <PUBCHEM_CACTVS_COMPLEXITY>
515
> <PUBCHEM_CACTVS_HBOND_ACCEPTOR>
6
> <PUBCHEM_CACTVS_HBOND_DONOR>
6
> <PUBCHEM_CACTVS_ROTATABLE_BOND>
6
> <PUBCHEM_CACTVS_SUBSKEYS>
AAADceBzuAAAAAAAAAAAAAAAAAAAAAAAAAAgAAAAAAAAAAAAAAAAHgAQCAAADDzhgAYDAALABgCoAiFSNACACAEgIAAACIAIAAgLVAIAoQAXQAAHlgCboAPw0CMAAAAAAAAAAAAAAAAAAAAAAAAAAAAAAA==
> <PUBCHEM_IUPAC_OPENEYE_NAME>
N-[(2R,3R,4S)-4-guanidino-6-isopropenyl-2-[(1R,2R)-1,2,3-trihydroxypropyl]-3,4-dihydro-2H-pyran-3-yl]acetamide
> <PUBCHEM_IUPAC_CAS_NAME>
N-[(2R,3R,4S)-4-(diaminomethylideneamino)-6-(1-methylethenyl)-2-[(1R,2R)-1,2,3-trihydroxypropyl]-3,4-dihydro-2H-pyran-3-yl]acetamide
> <PUBCHEM_IUPAC_NAME_MARKUP>
<I>N</I>-[(2<I>R</I>,3<I>R</I>,4<I>S</I>)-4-(diaminomethylideneamino)-6-prop-1-en-2-yl-2-[(1<I>R</I>,2<I>R</I>)-1,2,3-trihydroxypropyl]-3,4-dihydro-2<I>H</I>-pyran-3-yl]acetamide
> <PUBCHEM_IUPAC_NAME>
N-[(2R,3R,4S)-4-(diaminomethylideneamino)-6-prop-1-en-2-yl-2-[(1R,2R)-1,2,3-trihydroxypropyl]-3,4-dihydro-2H-pyran-3-yl]acetamide
> <PUBCHEM_IUPAC_SYSTEMATIC_NAME>
N-[(2R,3R,4S)-4-[bis(azanyl)methylideneamino]-6-prop-1-en-2-yl-2-[(1R,2R)-1,2,3-tris(oxidanyl)propyl]-3,4-dihydro-2H-pyran-3-yl]ethanamide
> <PUBCHEM_IUPAC_TRADITIONAL_NAME>
N-[(2R,3R,4S)-4-guanidino-6-isopropenyl-2-[(1R,2R)-1,2,3-trihydroxypropyl]-3,4-dihydro-2H-pyran-3-yl]acetamide
> <PUBCHEM_IUPAC_INCHI>
InChI=1S/C14H24N4O5/c1-6(2)10-4-8(18-14(15)16)11(17-7(3)20)13(23-10)12(22)9(21)5-19/h4,8-9,11-13,19,21-22H,1,5H2,2-3H3,(H,17,20)(H4,15,16,18)/t8-,9+,11+,12+,13+/m0/s1
> <PUBCHEM_IUPAC_INCHIKEY>
UGGIFYKOPRSGKN-IINAIABHSA-N
> <PUBCHEM_XLOGP3_AA>
-1.5
> <PUBCHEM_EXACT_MASS>
328.17466988
> <PUBCHEM_MOLECULAR_FORMULA>
C14H24N4O5
> <PUBCHEM_MOLECULAR_WEIGHT>
328.36
> <PUBCHEM_OPENEYE_CAN_SMILES>
CC(=C)C1=CC(C(C(O1)C(C(CO)O)O)NC(=O)C)N=C(N)N
> <PUBCHEM_OPENEYE_ISO_SMILES>
CC(=C)C1=C[C@@H]([C@H]([C@@H](O1)[C@@H]([C@@H](CO)O)O)NC(=O)C)N=C(N)N
> <PUBCHEM_CACTVS_TPSA>
163
> <PUBCHEM_MONOISOTOPIC_WEIGHT>
328.17466988
> <PUBCHEM_TOTAL_CHARGE>
0
> <PUBCHEM_HEAVY_ATOM_COUNT>
23
> <PUBCHEM_ATOM_DEF_STEREO_COUNT>
5
> <PUBCHEM_ATOM_UDEF_STEREO_COUNT>
0
> <PUBCHEM_BOND_DEF_STEREO_COUNT>
0
> <PUBCHEM_BOND_UDEF_STEREO_COUNT>
0
> <PUBCHEM_ISOTOPIC_ATOM_COUNT>
0
> <PUBCHEM_COMPONENT_COUNT>
1
> <PUBCHEM_CACTVS_TAUTO_COUNT>
-1
> <PUBCHEM_COORDINATE_TYPE>
1
5
255
> <PUBCHEM_BONDANNOTATIONS>
10  24  5
12  2  6
14  3  5
11  6  5
13  7  6
$$$$
