505931
  -OEChem-10302200282D
 38 38  0     1  0  0  0  0  0999 V2000
    6.8671   -0.6900    0.0000 O   0  0  0  0  0  0  0  0  0  0  0  0
    7.7331    1.8100    0.0000 O   0  0  0  0  0  0  0  0  0  0  0  0
    4.2690    1.8100    0.0000 O   0  0  0  0  0  0  0  0  0  0  0  0
    5.1350   -2.6900    0.0000 O   0  0  0  0  0  0  0  0  0  0  0  0
    6.8671   -2.6900    0.0000 O   0  0  0  0  0  0  0  0  0  0  0  0
    6.0010    1.8100    0.0000 N   0  0  0  0  0  0  0  0  0  0  0  0
    4.2690    0.8100    0.0000 N   0  0  0  0  0  0  0  0  0  0  0  0
    8.5991    0.3100    0.0000 N   0  0  0  0  0  0  0  0  0  0  0  0
    2.5369    0.8100    0.0000 N   0  0  0  0  0  0  0  0  0  0  0  0
    3.4030   -0.6900    0.0000 N   0  0  0  0  0  0  0  0  0  0  0  0
    6.0010    0.8100    0.0000 C   0  0  1  0  0  0  0  0  0  0  0  0
    6.8671    0.3100    0.0000 C   0  0  2  0  0  0  0  0  0  0  0  0
    5.1350    0.3100    0.0000 C   0  0  2  0  0  0  0  0  0  0  0  0
    5.1350   -0.6900    0.0000 C   0  0  0  0  0  0  0  0  0  0  0  0
    6.0010   -1.1900    0.0000 C   0  0  0  0  0  0  0  0  0  0  0  0
    7.7331    0.8100    0.0000 C   0  0  0  0  0  0  0  0  0  0  0  0
    5.1350    2.3100    0.0000 C   0  0  0  0  0  0  0  0  0  0  0  0
    6.0010   -2.1900    0.0000 C   0  0  0  0  0  0  0  0  0  0  0  0
    3.4030    0.3100    0.0000 C   0  0  0  0  0  0  0  0  0  0  0  0
    5.1350    3.3100    0.0000 C   0  0  0  0  0  0  0  0  0  0  0  0
    9.4651    0.8100    0.0000 C   0  0  0  0  0  0  0  0  0  0  0  0
    6.5380    1.1200    0.0000 H   0  0  0  0  0  0  0  0  0  0  0  0
    7.4040   -0.0000    0.0000 H   0  0  0  0  0  0  0  0  0  0  0  0
    5.1350    0.9300    0.0000 H   0  0  0  0  0  0  0  0  0  0  0  0
    4.5981   -1.0000    0.0000 H   0  0  0  0  0  0  0  0  0  0  0  0
    6.5380    2.1200    0.0000 H   0  0  0  0  0  0  0  0  0  0  0  0
    8.5991   -0.3100    0.0000 H   0  0  0  0  0  0  0  0  0  0  0  0
    5.7550    3.3100    0.0000 H   0  0  0  0  0  0  0  0  0  0  0  0
    5.1350    3.9300    0.0000 H   0  0  0  0  0  0  0  0  0  0  0  0
    4.5150    3.3100    0.0000 H   0  0  0  0  0  0  0  0  0  0  0  0
    9.7751    0.2731    0.0000 H   0  0  0  0  0  0  0  0  0  0  0  0
   10.0021    1.1200    0.0000 H   0  0  0  0  0  0  0  0  0  0  0  0
    9.1551    1.3469    0.0000 H   0  0  0  0  0  0  0  0  0  0  0  0
    2.0000    0.5000    0.0000 H   0  0  0  0  0  0  0  0  0  0  0  0
    2.5369    1.4300    0.0000 H   0  0  0  0  0  0  0  0  0  0  0  0
    2.8660   -1.0000    0.0000 H   0  0  0  0  0  0  0  0  0  0  0  0
    3.9399   -1.0000    0.0000 H   0  0  0  0  0  0  0  0  0  0  0  0
    5.1350   -3.3100    0.0000 H   0  0  0  0  0  0  0  0  0  0  0  0
  1 12  1  0  0  0  0
  1 15  1  0  0  0  0
  2 16  2  0  0  0  0
  3 17  2  0  0  0  0
  4 18  1  0  0  0  0
  4 38  1  0  0  0  0
  5 18  2  0  0  0  0
 11  6  1  1  0  0  0
  6 17  1  0  0  0  0
  6 26  1  0  0  0  0
 13  7  1  6  0  0  0
  7 19  2  0  0  0  0
  8 16  1  0  0  0  0
  8 21  1  0  0  0  0
  8 27  1  0  0  0  0
  9 19  1  0  0  0  0
  9 34  1  0  0  0  0
  9 35  1  0  0  0  0
 10 19  1  0  0  0  0
 10 36  1  0  0  0  0
 10 37  1  0  0  0  0
 11 12  1  0  0  0  0
 11 13  1  0  0  0  0
 11 22  1  0  0  0  0
 12 16  1  6  0  0  0
 12 23  1  0  0  0  0
 13 14  1  0  0  0  0
 13 24  1  0  0  0  0
 14 15  2  0  0  0  0
 14 25  1  0  0  0  0
 15 18  1  0  0  0  0
 17 20  1  0  0  0  0
 20 28  1  0  0  0  0
 20 29  1  0  0  0  0
 20 30  1  0  0  0  0
 21 31  1  0  0  0  0
 21 32  1  0  0  0  0
 21 33  1  0  0  0  0
M  END
> <PUBCHEM_COMPOUND_CID>
505931
> <PUBCHEM_COMPOUND_CANONICALIZED>
1
> <PUBCHEM_CACTVS_COMPLEXITY>
511
> <PUBCHEM_CACTVS_HBOND_ACCEPTOR>
6
> <PUBCHEM_CACTVS_HBOND_DONOR>
5
> <PUBCHEM_CACTVS_ROTATABLE_BOND>
4
> <PUBCHEM_CACTVS_SUBSKEYS>
AAADceBzuAAAAAAAAAAAAAAAAAAAAAAAAAAgAAAAAAAAAAAAAAAAHgAQCAAACDzhgAYDCALABgCoACHSPAKACAEgIAAACIFIAEgDRBoAwAQXEAAGlgCbEYIcAAAAAAAAAAAAAAAAAAAAAAAAAAAAAAAAAA==
> <PUBCHEM_IUPAC_OPENEYE_NAME>
(2R,3R,4S)-3-acetamido-4-guanidino-2-(methylcarbamoyl)-3,4-dihydro-2H-pyran-6-carboxylic acid
> <PUBCHEM_IUPAC_CAS_NAME>
(2R,3R,4S)-3-acetamido-4-(diaminomethylideneamino)-2-(methylcarbamoyl)-3,4-dihydro-2H-pyran-6-carboxylic acid
> <PUBCHEM_IUPAC_NAME_MARKUP>
(2<I>R</I>,3<I>R</I>,4<I>S</I>)-3-acetamido-4-(diaminomethylideneamino)-2-(methylcarbamoyl)-3,4-dihydro-2<I>H</I>-pyran-6-carboxylic acid
> <PUBCHEM_IUPAC_NAME>
(2R,3R,4S)-3-acetamido-4-(diaminomethylideneamino)-2-(methylcarbamoyl)-3,4-dihydro-2H-pyran-6-carboxylic acid
> <PUBCHEM_IUPAC_SYSTEMATIC_NAME>
(2R,3R,4S)-3-acetamido-4-[bis(azanyl)methylideneamino]-2-(methylcarbamoyl)-3,4-dihydro-2H-pyran-6-carboxylic acid
> <PUBCHEM_IUPAC_TRADITIONAL_NAME>
(2R,3R,4S)-3-acetamido-4-guanidino-2-(methylcarbamoyl)-3,4-dihydro-2H-pyran-6-carboxylic acid
> <PUBCHEM_IUPAC_INCHI>
InChI=1S/C11H17N5O5/c1-4(17)15-7-5(16-11(12)13)3-6(10(19)20)21-8(7)9(18)14-2/h3,5,7-8H,1-2H3,(H,14,18)(H,15,17)(H,19,20)(H4,12,13,16)/t5-,7+,8+/m0/s1
> <PUBCHEM_IUPAC_INCHIKEY>
XDKAJCDXCBRRHR-UIISKDMLSA-N
> <PUBCHEM_XLOGP3_AA>
-2
> <PUBCHEM_EXACT_MASS>
299.12296866
> <PUBCHEM_MOLECULAR_FORMULA>
C11H17N5O5
> <PUBCHEM_MOLECULAR_WEIGHT>
299.28
> <PUBCHEM_OPENEYE_CAN_SMILES>
CC(=O)NC1C(C=C(OC1C(=O)NC)C(=O)O)N=C(N)N
> <PUBCHEM_OPENEYE_ISO_SMILES>
CC(=O)N[C@@H]1[C@H](C=C(O[C@H]1C(=O)NC)C(=O)O)N=C(N)N
> <PUBCHEM_CACTVS_TPSA>
169
> <PUBCHEM_MONOISOTOPIC_WEIGHT>
299.12296866
> <PUBCHEM_TOTAL_CHARGE>
0
> <PUBCHEM_HEAVY_ATOM_COUNT>
21
> <PUBCHEM_ATOM_DEF_STEREO_COUNT>
3
> <PUBCHEM_ATOM_UDEF_STEREO_COUNT>
0
> <PUBCHEM_BOND_DEF_STEREO_COUNT>
0
> <PUBCHEM_BOND_UDEF_STEREO_COUNT>
0
> <PUBCHEM_ISOTOPIC_ATOM_COUNT>
0
> <PUBCHEM_COMPONENT_COUNT>
1
> <PUBCHEM_CACTVS_TAUTO_COUNT>
-1
> <PUBCHEM_COORDINATE_TYPE>
1
5
255
> <PUBCHEM_BONDANNOTATIONS>
12  16  6
11  6  5
13  7  6
$$$$
