505983
  -OEChem-10302200282D
 83 87  0     1  0  0  0  0  0999 V2000
    4.9889    3.9203    0.0000 O   0  0  0  0  0  0  0  0  0  0  0  0
    8.2619    2.1651    0.0000 O   0  0  0  0  0  0  0  0  0  0  0  0
    7.7619   -0.4330    0.0000 O   0  0  0  0  0  0  0  0  0  0  0  0
    9.7619    1.2990    0.0000 O   0  0  0  0  0  0  0  0  0  0  0  0
    6.2619    0.4330    0.0000 O   0  0  0  0  0  0  0  0  0  0  0  0
    9.2619   -1.2990    0.0000 O   0  0  0  0  0  0  0  0  0  0  0  0
   11.2619    0.4330    0.0000 O   0  0  0  0  0  0  0  0  0  0  0  0
    6.2619    2.1651    0.0000 N   0  0  0  0  0  0  0  0  0  0  0  0
   11.2619   -1.2990    0.0000 N   0  0  0  0  0  0  0  0  0  0  0  0
    5.2619    2.1651    0.0000 C   0  0  3  0  0  0  0  0  0  0  0  0
    4.6783    2.9698    0.0000 C   0  0  2  0  0  0  0  0  0  0  0  0
    4.6783    1.3603    0.0000 C   0  0  0  0  0  0  0  0  0  0  0  0
    3.7320    2.6651    0.0000 C   0  0  0  0  0  0  0  0  0  0  0  0
    3.7320    1.6651    0.0000 C   0  0  0  0  0  0  0  0  0  0  0  0
    7.7619    1.2990    0.0000 C   0  0  2  0  0  0  0  0  0  0  0  0
    8.2619    0.4330    0.0000 C   0  0  1  0  0  0  0  0  0  0  0  0
    6.7619    1.2990    0.0000 C   0  0  0  0  0  0  0  0  0  0  0  0
    2.8660    3.1651    0.0000 C   0  0  0  0  0  0  0  0  0  0  0  0
    2.8660    1.1651    0.0000 C   0  0  0  0  0  0  0  0  0  0  0  0
    9.2619    0.4330    0.0000 C   0  0  2  0  0  0  0  0  0  0  0  0
    9.7619   -0.4330    0.0000 C   0  0  2  0  0  0  0  0  0  0  0  0
    2.0000    2.6651    0.0000 C   0  0  0  0  0  0  0  0  0  0  0  0
    2.0000    1.6651    0.0000 C   0  0  0  0  0  0  0  0  0  0  0  0
   10.7619   -0.4330    0.0000 C   0  0  0  0  0  0  0  0  0  0  0  0
    9.2619    2.1651    0.0000 C   0  0  0  0  0  0  0  0  0  0  0  0
    9.7619   -2.1651    0.0000 C   0  0  0  0  0  0  0  0  0  0  0  0
    9.7619    3.0311    0.0000 C   0  0  0  0  0  0  0  0  0  0  0  0
   12.2619   -1.2990    0.0000 C   0  0  0  0  0  0  0  0  0  0  0  0
    9.2619   -3.0311    0.0000 C   0  0  0  0  0  0  0  0  0  0  0  0
    9.2619    3.8971    0.0000 C   0  0  0  0  0  0  0  0  0  0  0  0
   10.7619    3.0311    0.0000 C   0  0  0  0  0  0  0  0  0  0  0  0
   12.7619   -2.1651    0.0000 C   0  0  0  0  0  0  0  0  0  0  0  0
    8.2619   -3.0311    0.0000 C   0  0  0  0  0  0  0  0  0  0  0  0
    9.7619   -3.8971    0.0000 C   0  0  0  0  0  0  0  0  0  0  0  0
    9.7619    4.7631    0.0000 C   0  0  0  0  0  0  0  0  0  0  0  0
   11.2619    3.8971    0.0000 C   0  0  0  0  0  0  0  0  0  0  0  0
   10.7619    4.7631    0.0000 C   0  0  0  0  0  0  0  0  0  0  0  0
   13.7619   -2.1651    0.0000 C   0  0  0  0  0  0  0  0  0  0  0  0
   12.2619   -3.0311    0.0000 C   0  0  0  0  0  0  0  0  0  0  0  0
    7.7619   -3.8971    0.0000 C   0  0  0  0  0  0  0  0  0  0  0  0
    9.2619   -4.7631    0.0000 C   0  0  0  0  0  0  0  0  0  0  0  0
    8.2619   -4.7631    0.0000 C   0  0  0  0  0  0  0  0  0  0  0  0
   14.2619   -3.0311    0.0000 C   0  0  0  0  0  0  0  0  0  0  0  0
   12.7619   -3.8971    0.0000 C   0  0  0  0  0  0  0  0  0  0  0  0
   13.7619   -3.8971    0.0000 C   0  0  0  0  0  0  0  0  0  0  0  0
    5.5436    2.7174    0.0000 H   0  0  0  0  0  0  0  0  0  0  0  0
    5.2908    3.0660    0.0000 H   0  0  0  0  0  0  0  0  0  0  0  0
    4.4272    0.7934    0.0000 H   0  0  0  0  0  0  0  0  0  0  0  0
    5.2156    1.0511    0.0000 H   0  0  0  0  0  0  0  0  0  0  0  0
    6.5719    2.7020    0.0000 H   0  0  0  0  0  0  0  0  0  0  0  0
    7.4519    1.8360    0.0000 H   0  0  0  0  0  0  0  0  0  0  0  0
    8.5719   -0.1039    0.0000 H   0  0  0  0  0  0  0  0  0  0  0  0
    2.8660    3.7851    0.0000 H   0  0  0  0  0  0  0  0  0  0  0  0
    2.8660    0.5451    0.0000 H   0  0  0  0  0  0  0  0  0  0  0  0
    8.9519    0.9699    0.0000 H   0  0  0  0  0  0  0  0  0  0  0  0
    4.5749    4.3818    0.0000 H   0  0  0  0  0  0  0  0  0  0  0  0
   10.0719   -0.9699    0.0000 H   0  0  0  0  0  0  0  0  0  0  0  0
    1.4631    2.9751    0.0000 H   0  0  0  0  0  0  0  0  0  0  0  0
    1.4631    1.3551    0.0000 H   0  0  0  0  0  0  0  0  0  0  0  0
    8.0719   -0.9699    0.0000 H   0  0  0  0  0  0  0  0  0  0  0  0
    9.1542    1.5545    0.0000 H   0  0  0  0  0  0  0  0  0  0  0  0
    9.8445    1.9530    0.0000 H   0  0  0  0  0  0  0  0  0  0  0  0
   10.3819    1.2990    0.0000 H   0  0  0  0  0  0  0  0  0  0  0  0
   10.2368   -2.5636    0.0000 H   0  0  0  0  0  0  0  0  0  0  0  0
   10.2368   -1.7665    0.0000 H   0  0  0  0  0  0  0  0  0  0  0  0
   10.9519   -1.8360    0.0000 H   0  0  0  0  0  0  0  0  0  0  0  0
   12.8445   -1.0870    0.0000 H   0  0  0  0  0  0  0  0  0  0  0  0
   12.1542   -0.6885    0.0000 H   0  0  0  0  0  0  0  0  0  0  0  0
    8.6419    3.8971    0.0000 H   0  0  0  0  0  0  0  0  0  0  0  0
   11.0719    2.4942    0.0000 H   0  0  0  0  0  0  0  0  0  0  0  0
    7.9519   -2.4942    0.0000 H   0  0  0  0  0  0  0  0  0  0  0  0
   10.3819   -3.8971    0.0000 H   0  0  0  0  0  0  0  0  0  0  0  0
    9.4519    5.3001    0.0000 H   0  0  0  0  0  0  0  0  0  0  0  0
   11.8819    3.8971    0.0000 H   0  0  0  0  0  0  0  0  0  0  0  0
   11.0719    5.3001    0.0000 H   0  0  0  0  0  0  0  0  0  0  0  0
   14.0719   -1.6281    0.0000 H   0  0  0  0  0  0  0  0  0  0  0  0
   11.6419   -3.0311    0.0000 H   0  0  0  0  0  0  0  0  0  0  0  0
    7.1419   -3.8971    0.0000 H   0  0  0  0  0  0  0  0  0  0  0  0
    9.5719   -5.3001    0.0000 H   0  0  0  0  0  0  0  0  0  0  0  0
    7.9519   -5.3001    0.0000 H   0  0  0  0  0  0  0  0  0  0  0  0
   14.8819   -3.0311    0.0000 H   0  0  0  0  0  0  0  0  0  0  0  0
   12.4519   -4.4340    0.0000 H   0  0  0  0  0  0  0  0  0  0  0  0
   14.0719   -4.4340    0.0000 H   0  0  0  0  0  0  0  0  0  0  0  0
 11  1  1  6  0  0  0
  1 56  1  0  0  0  0
 15  2  1  6  0  0  0
  2 25  1  0  0  0  0
 16  3  1  1  0  0  0
  3 60  1  0  0  0  0
 20  4  1  1  0  0  0
  4 63  1  0  0  0  0
  5 17  2  0  0  0  0
 21  6  1  6  0  0  0
  6 26  1  0  0  0  0
  7 24  2  0  0  0  0
  8 10  1  0  0  0  0
  8 17  1  0  0  0  0
  8 50  1  0  0  0  0
  9 24  1  0  0  0  0
  9 28  1  0  0  0  0
  9 66  1  0  0  0  0
 10 11  1  0  0  0  0
 10 12  1  0  0  0  0
 10 46  1  0  0  0  0
 11 13  1  0  0  0  0
 11 47  1  0  0  0  0
 12 14  1  0  0  0  0
 12 48  1  0  0  0  0
 12 49  1  0  0  0  0
 13 14  1  0  0  0  0
 13 18  2  0  0  0  0
 14 19  2  0  0  0  0
 15 16  1  0  0  0  0
 15 17  1  0  0  0  0
 15 51  1  0  0  0  0
 16 20  1  0  0  0  0
 16 52  1  0  0  0  0
 18 22  1  0  0  0  0
 18 53  1  0  0  0  0
 19 23  1  0  0  0  0
 19 54  1  0  0  0  0
 20 21  1  0  0  0  0
 20 55  1  0  0  0  0
 21 24  1  0  0  0  0
 21 57  1  0  0  0  0
 22 23  2  0  0  0  0
 22 58  1  0  0  0  0
 23 59  1  0  0  0  0
 25 27  1  0  0  0  0
 25 61  1  0  0  0  0
 25 62  1  0  0  0  0
 26 29  1  0  0  0  0
 26 64  1  0  0  0  0
 26 65  1  0  0  0  0
 27 30  2  0  0  0  0
 27 31  1  0  0  0  0
 28 32  1  0  0  0  0
 28 67  1  0  0  0  0
 28 68  1  0  0  0  0
 29 33  2  0  0  0  0
 29 34  1  0  0  0  0
 30 35  1  0  0  0  0
 30 69  1  0  0  0  0
 31 36  2  0  0  0  0
 31 70  1  0  0  0  0
 32 38  2  0  0  0  0
 32 39  1  0  0  0  0
 33 40  1  0  0  0  0
 33 71  1  0  0  0  0
 34 41  2  0  0  0  0
 34 72  1  0  0  0  0
 35 37  2  0  0  0  0
 35 73  1  0  0  0  0
 36 37  1  0  0  0  0
 36 74  1  0  0  0  0
 37 75  1  0  0  0  0
 38 43  1  0  0  0  0
 38 76  1  0  0  0  0
 39 44  2  0  0  0  0
 39 77  1  0  0  0  0
 40 42  2  0  0  0  0
 40 78  1  0  0  0  0
 41 42  1  0  0  0  0
 41 79  1  0  0  0  0
 42 80  1  0  0  0  0
 43 45  2  0  0  0  0
 43 81  1  0  0  0  0
 44 45  1  0  0  0  0
 44 82  1  0  0  0  0
 45 83  1  0  0  0  0
M  END
> <PUBCHEM_COMPOUND_CID>
505983
> <PUBCHEM_COMPOUND_CANONICALIZED>
1
> <PUBCHEM_CACTVS_COMPLEXITY>
902
> <PUBCHEM_CACTVS_HBOND_ACCEPTOR>
7
> <PUBCHEM_CACTVS_HBOND_DONOR>
5
> <PUBCHEM_CACTVS_ROTATABLE_BOND>
14
> <PUBCHEM_CACTVS_SUBSKEYS>
AAADcfB/OAAAAAAAAAAAAAAAAAAAAYAAAAAwYMGAAAAAAGABVAAAHgAQCAAADDzhmAYwAILABgCIAiFSEAKCAAAgAAAIiIFIDIgLNjaAsR2HcAhn9gGbuAf63KJOgAAAAAAQAAAAAAAAACAAAKAADAgAAA==
> <PUBCHEM_IUPAC_OPENEYE_NAME>
(2R,3R,4R,5R)-N-benzyl-2,5-dibenzyloxy-3,4-dihydroxy-N'-[(1S)-1-hydroxyindan-2-yl]hexanediamide
> <PUBCHEM_IUPAC_CAS_NAME>
(2R,3R,4R,5R)-3,4-dihydroxy-N-[(1S)-1-hydroxy-2,3-dihydro-1H-inden-2-yl]-2,5-bis(phenylmethoxy)-N'-(phenylmethyl)hexanediamide
> <PUBCHEM_IUPAC_NAME_MARKUP>
(2<I>R</I>,3<I>R</I>,4<I>R</I>,5<I>R</I>)-<I>N</I>-benzyl-3,4-dihydroxy-<I>N</I>&apos;-[(1<I>S</I>)-1-hydroxy-2,3-dihydro-1<I>H</I>-inden-2-yl]-2,5-bis(phenylmethoxy)hexanediamide
> <PUBCHEM_IUPAC_NAME>
(2R,3R,4R,5R)-N-benzyl-3,4-dihydroxy-N'-[(1S)-1-hydroxy-2,3-dihydro-1H-inden-2-yl]-2,5-bis(phenylmethoxy)hexanediamide
> <PUBCHEM_IUPAC_SYSTEMATIC_NAME>
(2R,3R,4R,5R)-3,4-bis(oxidanyl)-N-[(1S)-1-oxidanyl-2,3-dihydro-1H-inden-2-yl]-2,5-bis(phenylmethoxy)-N'-(phenylmethyl)hexanediamide
> <PUBCHEM_IUPAC_TRADITIONAL_NAME>
(2R,3R,4R,5R)-2,5-dibenzoxy-N-benzyl-3,4-dihydroxy-N'-[(1S)-1-hydroxyindan-2-yl]adipamide
> <PUBCHEM_IUPAC_INCHI>
InChI=1S/C36H38N2O7/c39-30-28-19-11-10-18-27(28)20-29(30)38-36(43)34(45-23-26-16-8-3-9-17-26)32(41)31(40)33(44-22-25-14-6-2-7-15-25)35(42)37-21-24-12-4-1-5-13-24/h1-19,29-34,39-41H,20-23H2,(H,37,42)(H,38,43)/t29?,30-,31+,32+,33+,34+/m0/s1
> <PUBCHEM_IUPAC_INCHIKEY>
NROOTAOOYLMAOK-ZAHXSODBSA-N
> <PUBCHEM_XLOGP3_AA>
3.4
> <PUBCHEM_EXACT_MASS>
610.26790156
> <PUBCHEM_MOLECULAR_FORMULA>
C36H38N2O7
> <PUBCHEM_MOLECULAR_WEIGHT>
610.7
> <PUBCHEM_OPENEYE_CAN_SMILES>
C1C(C(C2=CC=CC=C21)O)NC(=O)C(C(C(C(C(=O)NCC3=CC=CC=C3)OCC4=CC=CC=C4)O)O)OCC5=CC=CC=C5
> <PUBCHEM_OPENEYE_ISO_SMILES>
C1C([C@H](C2=CC=CC=C21)O)NC(=O)[C@@H]([C@@H]([C@H]([C@H](C(=O)NCC3=CC=CC=C3)OCC4=CC=CC=C4)O)O)OCC5=CC=CC=C5
> <PUBCHEM_CACTVS_TPSA>
137
> <PUBCHEM_MONOISOTOPIC_WEIGHT>
610.26790156
> <PUBCHEM_TOTAL_CHARGE>
0
> <PUBCHEM_HEAVY_ATOM_COUNT>
45
> <PUBCHEM_ATOM_DEF_STEREO_COUNT>
5
> <PUBCHEM_ATOM_UDEF_STEREO_COUNT>
1
> <PUBCHEM_BOND_DEF_STEREO_COUNT>
0
> <PUBCHEM_BOND_UDEF_STEREO_COUNT>
0
> <PUBCHEM_ISOTOPIC_ATOM_COUNT>
0
> <PUBCHEM_COMPONENT_COUNT>
1
> <PUBCHEM_CACTVS_TAUTO_COUNT>
-1
> <PUBCHEM_COORDINATE_TYPE>
1
5
255
> <PUBCHEM_BONDANNOTATIONS>
11  1  6
13  14  8
13  18  8
14  19  8
18  22  8
19  23  8
15  2  6
22  23  8
27  30  8
27  31  8
29  33  8
29  34  8
16  3  5
30  35  8
31  36  8
32  38  8
32  39  8
33  40  8
34  41  8
35  37  8
36  37  8
38  43  8
39  44  8
20  4  5
40  42  8
41  42  8
43  45  8
44  45  8
21  6  6
10  8  3
$$$$
