505902
  -OEChem-10302200282D
 54 56  0     1  0  0  0  0  0999 V2000
    8.6466   -0.6774    0.0000 O   0  0  0  0  0  0  0  0  0  0  0  0
    7.0945   -2.7478    0.0000 O   0  0  0  0  0  0  0  0  0  0  0  0
    6.8671    0.4159    0.0000 O   0  0  0  0  0  0  0  0  0  0  0  0
    9.2225   -3.2001    0.0000 O   0  0  0  0  0  0  0  0  0  0  0  0
    5.1350    0.4159    0.0000 O   0  0  0  0  0  0  0  0  0  0  0  0
    6.8671    2.4159    0.0000 O   0  0  0  0  0  0  0  0  0  0  0  0
    5.1350   -0.5841    0.0000 O   0  0  0  0  0  0  0  0  0  0  0  0
    5.1350    3.4159    0.0000 O   0  0  0  0  0  0  0  0  0  0  0  0
   10.4913   -3.0385    0.0000 O   0  0  0  0  0  0  0  0  0  0  0  0
   13.2939   -1.0024    0.0000 O   0  0  0  0  0  0  0  0  0  0  0  0
    3.4030   -0.5841    0.0000 O   0  0  0  0  0  0  0  0  0  0  0  0
   10.3103   -1.3160    0.0000 N   0  0  0  0  0  0  0  0  0  0  0  0
    6.0010   -2.0841    0.0000 N   0  0  0  0  0  0  0  0  0  0  0  0
   11.8926   -2.0205    0.0000 N   0  0  0  0  0  0  0  0  0  0  0  0
    2.5369    0.9159    0.0000 N   0  0  0  0  0  0  0  0  0  0  0  0
    7.7331   -1.0841    0.0000 C   0  0  1  0  0  0  0  0  0  0  0  0
    7.8376   -2.0786    0.0000 C   0  0  2  0  0  0  0  0  0  0  0  0
    8.8158   -2.2865    0.0000 C   0  0  2  0  0  0  0  0  0  0  0  0
    9.3158   -1.4205    0.0000 C   0  0  1  0  0  0  0  0  0  0  0  0
    6.8671   -0.5841    0.0000 C   0  0  1  0  0  0  0  0  0  0  0  0
    6.0010    0.9159    0.0000 C   0  0  1  0  0  0  0  0  0  0  0  0
    6.0010   -1.0841    0.0000 C   0  0  0  0  0  0  0  0  0  0  0  0
    6.0010    1.9159    0.0000 C   0  0  2  0  0  0  0  0  0  0  0  0
   10.8981   -2.1250    0.0000 C   0  0  0  0  0  0  0  0  0  0  0  0
   10.7170   -0.4024    0.0000 C   0  0  0  0  0  0  0  0  0  0  0  0
    5.1350    2.4159    0.0000 C   0  0  2  0  0  0  0  0  0  0  0  0
    7.3024   -3.7259    0.0000 C   0  0  0  0  0  0  0  0  0  0  0  0
    4.2690    1.9159    0.0000 C   0  0  0  0  0  0  0  0  0  0  0  0
    4.2690    0.9159    0.0000 C   0  0  0  0  0  0  0  0  0  0  0  0
   11.7115   -0.2979    0.0000 C   0  0  0  0  0  0  0  0  0  0  0  0
   12.2993   -1.1069    0.0000 C   0  0  0  0  0  0  0  0  0  0  0  0
    3.4030    0.4159    0.0000 C   0  0  0  0  0  0  0  0  0  0  0  0
    7.7776   -0.2353    0.0000 H   0  0  0  0  0  0  0  0  0  0  0  0
    7.2588   -1.8564    0.0000 H   0  0  0  0  0  0  0  0  0  0  0  0
    9.4349   -2.3190    0.0000 H   0  0  0  0  0  0  0  0  0  0  0  0
    9.6534   -1.9405    0.0000 H   0  0  0  0  0  0  0  0  0  0  0  0
    6.3301   -0.2741    0.0000 H   0  0  0  0  0  0  0  0  0  0  0  0
    6.5380    1.2259    0.0000 H   0  0  0  0  0  0  0  0  0  0  0  0
    8.8581   -3.7017    0.0000 H   0  0  0  0  0  0  0  0  0  0  0  0
    6.0010    2.5359    0.0000 H   0  0  0  0  0  0  0  0  0  0  0  0
   10.3526    0.0992    0.0000 H   0  0  0  0  0  0  0  0  0  0  0  0
    4.5981    2.7259    0.0000 H   0  0  0  0  0  0  0  0  0  0  0  0
    6.6959   -3.8548    0.0000 H   0  0  0  0  0  0  0  0  0  0  0  0
    7.4313   -4.3324    0.0000 H   0  0  0  0  0  0  0  0  0  0  0  0
    7.9088   -3.5970    0.0000 H   0  0  0  0  0  0  0  0  0  0  0  0
    3.7320    2.2259    0.0000 H   0  0  0  0  0  0  0  0  0  0  0  0
    5.4641   -2.3941    0.0000 H   0  0  0  0  0  0  0  0  0  0  0  0
    6.5380   -2.3941    0.0000 H   0  0  0  0  0  0  0  0  0  0  0  0
   12.2570   -2.5221    0.0000 H   0  0  0  0  0  0  0  0  0  0  0  0
   11.9637    0.2685    0.0000 H   0  0  0  0  0  0  0  0  0  0  0  0
    6.8671    3.0359    0.0000 H   0  0  0  0  0  0  0  0  0  0  0  0
    4.5981    3.7259    0.0000 H   0  0  0  0  0  0  0  0  0  0  0  0
    2.0000    0.6059    0.0000 H   0  0  0  0  0  0  0  0  0  0  0  0
    2.5369    1.5359    0.0000 H   0  0  0  0  0  0  0  0  0  0  0  0
  1 16  1  0  0  0  0
  1 19  1  0  0  0  0
 17  2  1  6  0  0  0
  2 27  1  0  0  0  0
 20  3  1  1  0  0  0
 21  3  1  1  0  0  0
 18  4  1  6  0  0  0
  4 39  1  0  0  0  0
  5 21  1  0  0  0  0
  5 29  1  0  0  0  0
 23  6  1  6  0  0  0
  6 51  1  0  0  0  0
  7 22  2  0  0  0  0
 26  8  1  6  0  0  0
  8 52  1  0  0  0  0
  9 24  2  0  0  0  0
 10 31  2  0  0  0  0
 11 32  2  0  0  0  0
 19 12  1  1  0  0  0
 12 24  1  0  0  0  0
 12 25  1  0  0  0  0
 13 22  1  0  0  0  0
 13 47  1  0  0  0  0
 13 48  1  0  0  0  0
 14 24  1  0  0  0  0
 14 31  1  0  0  0  0
 14 49  1  0  0  0  0
 15 32  1  0  0  0  0
 15 53  1  0  0  0  0
 15 54  1  0  0  0  0
 16 17  1  0  0  0  0
 16 20  1  0  0  0  0
 16 33  1  6  0  0  0
 17 18  1  0  0  0  0
 17 34  1  0  0  0  0
 18 19  1  0  0  0  0
 18 35  1  0  0  0  0
 19 36  1  0  0  0  0
 20 22  1  0  0  0  0
 20 37  1  0  0  0  0
 21 23  1  0  0  0  0
 21 38  1  0  0  0  0
 23 26  1  0  0  0  0
 23 40  1  0  0  0  0
 25 30  2  0  0  0  0
 25 41  1  0  0  0  0
 26 28  1  0  0  0  0
 26 42  1  0  0  0  0
 27 43  1  0  0  0  0
 27 44  1  0  0  0  0
 27 45  1  0  0  0  0
 28 29  2  0  0  0  0
 28 46  1  0  0  0  0
 29 32  1  0  0  0  0
 30 31  1  0  0  0  0
 30 50  1  0  0  0  0
M  END
> <PUBCHEM_COMPOUND_CID>
505902
> <PUBCHEM_COMPOUND_CANONICALIZED>
1
> <PUBCHEM_CACTVS_COMPLEXITY>
861
> <PUBCHEM_CACTVS_HBOND_ACCEPTOR>
11
> <PUBCHEM_CACTVS_HBOND_DONOR>
6
> <PUBCHEM_CACTVS_ROTATABLE_BOND>
7
> <PUBCHEM_CACTVS_SUBSKEYS>
AAADceB7vAAAAAAAAAAAAAAAAAAAASAAAAAgQAAAAAAAAAAAAAAAHgAQCAAACBTxgAcDCAPABgCIACFWUAKACAAgIgAICAFIAEiTFBYAgAQvUAAP9yIfEcP6fA5AAAAAAAAAAAAAAAAAAAAAAAAAAAAAAA==
> <PUBCHEM_IUPAC_OPENEYE_NAME>
(2S,3S,4S)-2-[(1S)-2-amino-1-[(2S,3S,4R,5R)-5-(2,4-dioxopyrimidin-1-yl)-4-hydroxy-3-methoxy-tetrahydrofuran-2-yl]-2-oxo-ethoxy]-3,4-dihydroxy-3,4-dihydro-2H-pyran-6-carboxamide
> <PUBCHEM_IUPAC_CAS_NAME>
(2S,3S,4S)-2-[(1S)-2-amino-1-[(2S,3S,4R,5R)-5-(2,4-dioxo-1-pyrimidinyl)-4-hydroxy-3-methoxy-2-oxolanyl]-2-oxoethoxy]-3,4-dihydroxy-3,4-dihydro-2H-pyran-6-carboxamide
> <PUBCHEM_IUPAC_NAME_MARKUP>
(2<I>S</I>,3<I>S</I>,4<I>S</I>)-2-[(1<I>S</I>)-2-amino-1-[(2<I>S</I>,3<I>S</I>,4<I>R</I>,5<I>R</I>)-5-(2,4-dioxopyrimidin-1-yl)-4-hydroxy-3-methoxyoxolan-2-yl]-2-oxoethoxy]-3,4-dihydroxy-3,4-dihydro-2<I>H</I>-pyran-6-carboxamide
> <PUBCHEM_IUPAC_NAME>
(2S,3S,4S)-2-[(1S)-2-amino-1-[(2S,3S,4R,5R)-5-(2,4-dioxopyrimidin-1-yl)-4-hydroxy-3-methoxyoxolan-2-yl]-2-oxoethoxy]-3,4-dihydroxy-3,4-dihydro-2H-pyran-6-carboxamide
> <PUBCHEM_IUPAC_SYSTEMATIC_NAME>
(2S,3S,4S)-2-[(1S)-2-azanyl-1-[(2S,3S,4R,5R)-5-[2,4-bis(oxidanylidene)pyrimidin-1-yl]-3-methoxy-4-oxidanyl-oxolan-2-yl]-2-oxidanylidene-ethoxy]-3,4-bis(oxidanyl)-3,4-dihydro-2H-pyran-6-carboxamide
> <PUBCHEM_IUPAC_TRADITIONAL_NAME>
(2S,3S,4S)-2-[(1S)-2-amino-1-[(2S,3S,4R,5R)-5-(2,4-diketopyrimidin-1-yl)-4-hydroxy-3-methoxy-tetrahydrofuran-2-yl]-2-keto-ethoxy]-3,4-dihydroxy-3,4-dihydro-2H-pyran-6-carboxamide
> <PUBCHEM_IUPAC_INCHI>
InChI=1S/C17H22N4O11/c1-29-10-9(25)15(21-3-2-7(23)20-17(21)28)31-11(10)12(14(19)27)32-16-8(24)5(22)4-6(30-16)13(18)26/h2-5,8-12,15-16,22,24-25H,1H3,(H2,18,26)(H2,19,27)(H,20,23,28)/t5-,8-,9+,10-,11-,12-,15+,16+/m0/s1
> <PUBCHEM_IUPAC_INCHIKEY>
QLMUKVLRGPDARQ-KJVSLGCBSA-N
> <PUBCHEM_XLOGP3_AA>
-4.7
> <PUBCHEM_EXACT_MASS>
458.12850753
> <PUBCHEM_MOLECULAR_FORMULA>
C17H22N4O11
> <PUBCHEM_MOLECULAR_WEIGHT>
458.4
> <PUBCHEM_OPENEYE_CAN_SMILES>
COC1C(C(OC1C(C(=O)N)OC2C(C(C=C(O2)C(=O)N)O)O)N3C=CC(=O)NC3=O)O
> <PUBCHEM_OPENEYE_ISO_SMILES>
CO[C@H]1[C@H]([C@@H](O[C@@H]1[C@@H](C(=O)N)O[C@@H]2[C@H]([C@H](C=C(O2)C(=O)N)O)O)N3C=CC(=O)NC3=O)O
> <PUBCHEM_CACTVS_TPSA>
233
> <PUBCHEM_MONOISOTOPIC_WEIGHT>
458.12850753
> <PUBCHEM_TOTAL_CHARGE>
0
> <PUBCHEM_HEAVY_ATOM_COUNT>
32
> <PUBCHEM_ATOM_DEF_STEREO_COUNT>
8
> <PUBCHEM_ATOM_UDEF_STEREO_COUNT>
0
> <PUBCHEM_BOND_DEF_STEREO_COUNT>
0
> <PUBCHEM_BOND_UDEF_STEREO_COUNT>
0
> <PUBCHEM_ISOTOPIC_ATOM_COUNT>
0
> <PUBCHEM_COMPONENT_COUNT>
1
> <PUBCHEM_CACTVS_TAUTO_COUNT>
-1
> <PUBCHEM_COORDINATE_TYPE>
1
5
255
> <PUBCHEM_BONDANNOTATIONS>
19  12  5
12  24  8
12  25  8
14  24  8
14  31  8
16  33  6
17  2  6
25  30  8
20  3  5
21  3  5
30  31  8
18  4  6
23  6  6
26  8  6
$$$$
