505999
  -OEChem-10302200282D
 82 86  0     1  0  0  0  0  0999 V2000
    5.6182   -0.1037    0.0000 O   0  0  0  0  0  0  0  0  0  0  0  0
    6.3006    1.6349    0.0000 O   0  0  0  0  0  0  0  0  0  0  0  0
    9.7682   -0.7292    0.0000 O   0  0  0  0  0  0  0  0  0  0  0  0
    8.1043   -1.0440    0.0000 N   0  0  0  0  0  0  0  0  0  0  0  0
    8.7626    0.6333    0.0000 N   0  0  0  0  0  0  0  0  0  0  0  0
   13.1729   -0.6714    0.0000 N   0  0  0  0  0  0  0  0  0  0  0  0
   13.7565    0.1333    0.0000 N   0  0  0  0  0  0  0  0  0  0  0  0
   13.4836    1.8886    0.0000 N   0  0  0  0  0  0  0  0  0  0  0  0
    7.1155   -0.8950    0.0000 C   0  0  1  0  0  0  0  0  0  0  0  0
    7.9364    1.1966    0.0000 C   0  0  1  0  0  0  0  0  0  0  0  0
    6.6155   -0.0290    0.0000 C   0  0  1  0  0  0  0  0  0  0  0  0
    6.9808    0.9019    0.0000 C   0  0  1  0  0  0  0  0  0  0  0  0
    6.5521   -1.7212    0.0000 C   0  0  0  0  0  0  0  0  0  0  0  0
    8.0854    2.1855    0.0000 C   0  0  0  0  0  0  0  0  0  0  0  0
    8.8373   -0.3639    0.0000 C   0  0  0  0  0  0  0  0  0  0  0  0
    8.3990   -1.9996    0.0000 C   0  0  0  0  0  0  0  0  0  0  0  0
    9.6286    1.1333    0.0000 C   0  0  0  0  0  0  0  0  0  0  0  0
    7.7189   -2.7327    0.0000 C   0  0  0  0  0  0  0  0  0  0  0  0
    5.5549   -1.6465    0.0000 C   0  0  0  0  0  0  0  0  0  0  0  0
    7.3036    2.8090    0.0000 C   0  0  0  0  0  0  0  0  0  0  0  0
   10.4947    0.6333    0.0000 C   0  0  0  0  0  0  0  0  0  0  0  0
    8.0136   -3.6882    0.0000 C   0  0  0  0  0  0  0  0  0  0  0  0
    5.1210   -0.7455    0.0000 C   0  0  0  0  0  0  0  0  0  0  0  0
    4.9916   -2.4728    0.0000 C   0  0  0  0  0  0  0  0  0  0  0  0
    6.3727    2.4436    0.0000 C   0  0  0  0  0  0  0  0  0  0  0  0
    7.4526    3.7978    0.0000 C   0  0  0  0  0  0  0  0  0  0  0  0
   11.3607    1.1333    0.0000 C   0  0  0  0  0  0  0  0  0  0  0  0
   10.4947   -0.3667    0.0000 C   0  0  0  0  0  0  0  0  0  0  0  0
    7.3334   -4.4213    0.0000 C   0  0  0  0  0  0  0  0  0  0  0  0
    4.1238   -0.6708    0.0000 C   0  0  0  0  0  0  0  0  0  0  0  0
    3.9944   -2.3980    0.0000 C   0  0  0  0  0  0  0  0  0  0  0  0
   12.2267    0.6333    0.0000 C   0  0  0  0  0  0  0  0  0  0  0  0
    3.5605   -1.4970    0.0000 C   0  0  0  0  0  0  0  0  0  0  0  0
    5.5909    3.0671    0.0000 C   0  0  0  0  0  0  0  0  0  0  0  0
    6.6708    4.4213    0.0000 C   0  0  0  0  0  0  0  0  0  0  0  0
   11.3607   -0.8667    0.0000 C   0  0  0  0  0  0  0  0  0  0  0  0
   12.2267   -0.3667    0.0000 C   0  0  0  0  0  0  0  0  0  0  0  0
    5.7399    4.0560    0.0000 C   0  0  0  0  0  0  0  0  0  0  0  0
    2.5633   -1.4223    0.0000 C   0  0  0  0  0  0  0  0  0  0  0  0
   13.1729    0.9381    0.0000 C   0  0  0  0  0  0  0  0  0  0  0  0
    2.0000   -2.2486    0.0000 C   0  0  0  0  0  0  0  0  0  0  0  0
    7.3634   -1.4633    0.0000 H   0  0  0  0  0  0  0  0  0  0  0  0
    8.5046    1.4446    0.0000 H   0  0  0  0  0  0  0  0  0  0  0  0
    6.2473    0.4699    0.0000 H   0  0  0  0  0  0  0  0  0  0  0  0
    7.1413    1.5008    0.0000 H   0  0  0  0  0  0  0  0  0  0  0  0
    6.3992   -2.3221    0.0000 H   0  0  0  0  0  0  0  0  0  0  0  0
    7.1173   -1.9762    0.0000 H   0  0  0  0  0  0  0  0  0  0  0  0
    8.6731    1.9880    0.0000 H   0  0  0  0  0  0  0  0  0  0  0  0
    8.3819    2.7300    0.0000 H   0  0  0  0  0  0  0  0  0  0  0  0
    8.7734   -2.4938    0.0000 H   0  0  0  0  0  0  0  0  0  0  0  0
    8.9508   -1.7168    0.0000 H   0  0  0  0  0  0  0  0  0  0  0  0
   10.0272    1.6083    0.0000 H   0  0  0  0  0  0  0  0  0  0  0  0
    9.2301    1.6083    0.0000 H   0  0  0  0  0  0  0  0  0  0  0  0
    7.3445   -2.2384    0.0000 H   0  0  0  0  0  0  0  0  0  0  0  0
    7.1672   -3.0155    0.0000 H   0  0  0  0  0  0  0  0  0  0  0  0
    5.2690    0.4086    0.0000 H   0  0  0  0  0  0  0  0  0  0  0  0
    5.6962    1.4970    0.0000 H   0  0  0  0  0  0  0  0  0  0  0  0
    8.3880   -4.1825    0.0000 H   0  0  0  0  0  0  0  0  0  0  0  0
    8.5653   -3.4054    0.0000 H   0  0  0  0  0  0  0  0  0  0  0  0
    5.4703   -0.2333    0.0000 H   0  0  0  0  0  0  0  0  0  0  0  0
    5.2606   -3.0314    0.0000 H   0  0  0  0  0  0  0  0  0  0  0  0
    6.2803    1.8306    0.0000 H   0  0  0  0  0  0  0  0  0  0  0  0
    8.0298    4.0243    0.0000 H   0  0  0  0  0  0  0  0  0  0  0  0
   11.3607    1.7533    0.0000 H   0  0  0  0  0  0  0  0  0  0  0  0
    9.9577   -0.6767    0.0000 H   0  0  0  0  0  0  0  0  0  0  0  0
    6.8790   -3.9996    0.0000 H   0  0  0  0  0  0  0  0  0  0  0  0
    6.9117   -4.8758    0.0000 H   0  0  0  0  0  0  0  0  0  0  0  0
    7.7879   -4.8430    0.0000 H   0  0  0  0  0  0  0  0  0  0  0  0
    3.8548   -0.1122    0.0000 H   0  0  0  0  0  0  0  0  0  0  0  0
    3.6452   -2.9103    0.0000 H   0  0  0  0  0  0  0  0  0  0  0  0
    5.0137    2.8406    0.0000 H   0  0  0  0  0  0  0  0  0  0  0  0
    6.7632    5.0344    0.0000 H   0  0  0  0  0  0  0  0  0  0  0  0
   11.3607   -1.4867    0.0000 H   0  0  0  0  0  0  0  0  0  0  0  0
    5.2552    4.4425    0.0000 H   0  0  0  0  0  0  0  0  0  0  0  0
    2.7163   -0.8215    0.0000 H   0  0  0  0  0  0  0  0  0  0  0  0
    1.9982   -1.1673    0.0000 H   0  0  0  0  0  0  0  0  0  0  0  0
   13.3655   -1.2607    0.0000 H   0  0  0  0  0  0  0  0  0  0  0  0
    1.4877   -1.8993    0.0000 H   0  0  0  0  0  0  0  0  0  0  0  0
    1.6507   -2.7608    0.0000 H   0  0  0  0  0  0  0  0  0  0  0  0
    2.5123   -2.5978    0.0000 H   0  0  0  0  0  0  0  0  0  0  0  0
   14.0903    2.0164    0.0000 H   0  0  0  0  0  0  0  0  0  0  0  0
   13.0695    2.3500    0.0000 H   0  0  0  0  0  0  0  0  0  0  0  0
 11  1  1  6  0  0  0
  1 56  1  0  0  0  0
 12  2  1  1  0  0  0
  2 57  1  0  0  0  0
  3 15  2  0  0  0  0
  4  9  1  0  0  0  0
  4 15  1  0  0  0  0
  4 16  1  0  0  0  0
  5 10  1  0  0  0  0
  5 15  1  0  0  0  0
  5 17  1  0  0  0  0
  6  7  1  0  0  0  0
  6 37  1  0  0  0  0
  6 77  1  0  0  0  0
  7 40  2  0  0  0  0
  8 40  1  0  0  0  0
  8 81  1  0  0  0  0
  8 82  1  0  0  0  0
  9 11  1  0  0  0  0
  9 13  1  6  0  0  0
  9 42  1  0  0  0  0
 10 12  1  0  0  0  0
 10 14  1  1  0  0  0
 10 43  1  0  0  0  0
 11 12  1  0  0  0  0
 11 44  1  0  0  0  0
 12 45  1  0  0  0  0
 13 19  1  0  0  0  0
 13 46  1  0  0  0  0
 13 47  1  0  0  0  0
 14 20  1  0  0  0  0
 14 48  1  0  0  0  0
 14 49  1  0  0  0  0
 16 18  1  0  0  0  0
 16 50  1  0  0  0  0
 16 51  1  0  0  0  0
 17 21  1  0  0  0  0
 17 52  1  0  0  0  0
 17 53  1  0  0  0  0
 18 22  1  0  0  0  0
 18 54  1  0  0  0  0
 18 55  1  0  0  0  0
 19 23  2  0  0  0  0
 19 24  1  0  0  0  0
 20 25  2  0  0  0  0
 20 26  1  0  0  0  0
 21 27  2  0  0  0  0
 21 28  1  0  0  0  0
 22 29  1  0  0  0  0
 22 58  1  0  0  0  0
 22 59  1  0  0  0  0
 23 30  1  0  0  0  0
 23 60  1  0  0  0  0
 24 31  2  0  0  0  0
 24 61  1  0  0  0  0
 25 34  1  0  0  0  0
 25 62  1  0  0  0  0
 26 35  2  0  0  0  0
 26 63  1  0  0  0  0
 27 32  1  0  0  0  0
 27 64  1  0  0  0  0
 28 36  2  0  0  0  0
 28 65  1  0  0  0  0
 29 66  1  0  0  0  0
 29 67  1  0  0  0  0
 29 68  1  0  0  0  0
 30 33  2  0  0  0  0
 30 69  1  0  0  0  0
 31 33  1  0  0  0  0
 31 70  1  0  0  0  0
 32 37  2  0  0  0  0
 32 40  1  0  0  0  0
 33 39  1  0  0  0  0
 34 38  2  0  0  0  0
 34 71  1  0  0  0  0
 35 38  1  0  0  0  0
 35 72  1  0  0  0  0
 36 37  1  0  0  0  0
 36 73  1  0  0  0  0
 38 74  1  0  0  0  0
 39 41  1  0  0  0  0
 39 75  1  0  0  0  0
 39 76  1  0  0  0  0
 41 78  1  0  0  0  0
 41 79  1  0  0  0  0
 41 80  1  0  0  0  0
M  END
> <PUBCHEM_COMPOUND_CID>
505999
> <PUBCHEM_COMPOUND_CANONICALIZED>
1
> <PUBCHEM_CACTVS_COMPLEXITY>
817
> <PUBCHEM_CACTVS_HBOND_ACCEPTOR>
5
> <PUBCHEM_CACTVS_HBOND_DONOR>
4
> <PUBCHEM_CACTVS_ROTATABLE_BOND>
10
> <PUBCHEM_CACTVS_SUBSKEYS>
AAADcfB/sAAAAAAAAAAAAAAAAAAAAWAAAAAwYMAABYAAAFgB9AAAHgAYCAAADDzhngYz8PNjAgCqAyZicACSBAIgAgAcuSA4ZJiLMKKA0dGE5Ah+ngKZyAeQwPAOSAACAAACAACQAAQAAAQAAAAAAAAAAA==
> <PUBCHEM_IUPAC_OPENEYE_NAME>
(4R,5S,6S,7R)-1-[(3-amino-1H-indazol-5-yl)methyl]-7-benzyl-3-butyl-4-[(4-ethylphenyl)methyl]-5,6-dihydroxy-1,3-diazepan-2-one
> <PUBCHEM_IUPAC_CAS_NAME>
(4R,5S,6S,7R)-1-[(3-amino-1H-indazol-5-yl)methyl]-3-butyl-4-[(4-ethylphenyl)methyl]-5,6-dihydroxy-7-(phenylmethyl)-1,3-diazepan-2-one
> <PUBCHEM_IUPAC_NAME_MARKUP>
(4<I>R</I>,5<I>S</I>,6<I>S</I>,7<I>R</I>)-1-[(3-amino-1<I>H</I>-indazol-5-yl)methyl]-7-benzyl-3-butyl-4-[(4-ethylphenyl)methyl]-5,6-dihydroxy-1,3-diazepan-2-one
> <PUBCHEM_IUPAC_NAME>
(4R,5S,6S,7R)-1-[(3-amino-1H-indazol-5-yl)methyl]-7-benzyl-3-butyl-4-[(4-ethylphenyl)methyl]-5,6-dihydroxy-1,3-diazepan-2-one
> <PUBCHEM_IUPAC_SYSTEMATIC_NAME>
(4R,5S,6S,7R)-1-[(3-azanyl-1H-indazol-5-yl)methyl]-3-butyl-4-[(4-ethylphenyl)methyl]-5,6-bis(oxidanyl)-7-(phenylmethyl)-1,3-diazepan-2-one
> <PUBCHEM_IUPAC_TRADITIONAL_NAME>
(4R,5S,6S,7R)-1-[(3-amino-1H-indazol-5-yl)methyl]-7-benzyl-3-butyl-4-(4-ethylbenzyl)-5,6-dihydroxy-1,3-diazepan-2-one
> <PUBCHEM_IUPAC_INCHI>
InChI=1S/C33H41N5O3/c1-3-5-17-37-28(20-24-13-11-22(4-2)12-14-24)30(39)31(40)29(19-23-9-7-6-8-10-23)38(33(37)41)21-25-15-16-27-26(18-25)32(34)36-35-27/h6-16,18,28-31,39-40H,3-5,17,19-21H2,1-2H3,(H3,34,35,36)/t28-,29-,30+,31+/m1/s1
> <PUBCHEM_IUPAC_INCHIKEY>
CRNTVRRUOGUKON-VKONIRKNSA-N
> <PUBCHEM_XLOGP3_AA>
5.1
> <PUBCHEM_EXACT_MASS>
555.32094019
> <PUBCHEM_MOLECULAR_FORMULA>
C33H41N5O3
> <PUBCHEM_MOLECULAR_WEIGHT>
555.7
> <PUBCHEM_OPENEYE_CAN_SMILES>
CCCCN1C(C(C(C(N(C1=O)CC2=CC3=C(C=C2)NN=C3N)CC4=CC=CC=C4)O)O)CC5=CC=C(C=C5)CC
> <PUBCHEM_OPENEYE_ISO_SMILES>
CCCCN1[C@@H]([C@@H]([C@H]([C@H](N(C1=O)CC2=CC3=C(C=C2)NN=C3N)CC4=CC=CC=C4)O)O)CC5=CC=C(C=C5)CC
> <PUBCHEM_CACTVS_TPSA>
119
> <PUBCHEM_MONOISOTOPIC_WEIGHT>
555.32094019
> <PUBCHEM_TOTAL_CHARGE>
0
> <PUBCHEM_HEAVY_ATOM_COUNT>
41
> <PUBCHEM_ATOM_DEF_STEREO_COUNT>
4
> <PUBCHEM_ATOM_UDEF_STEREO_COUNT>
0
> <PUBCHEM_BOND_DEF_STEREO_COUNT>
0
> <PUBCHEM_BOND_UDEF_STEREO_COUNT>
0
> <PUBCHEM_ISOTOPIC_ATOM_COUNT>
0
> <PUBCHEM_COMPONENT_COUNT>
1
> <PUBCHEM_CACTVS_TAUTO_COUNT>
-1
> <PUBCHEM_COORDINATE_TYPE>
1
5
255
> <PUBCHEM_BONDANNOTATIONS>
11  1  6
10  14  5
19  23  8
19  24  8
12  2  5
20  25  8
20  26  8
21  27  8
21  28  8
23  30  8
24  31  8
25  34  8
26  35  8
27  32  8
28  36  8
30  33  8
31  33  8
32  37  8
32  40  8
34  38  8
35  38  8
36  37  8
6  37  8
6  7  8
7  40  8
9  13  6
$$$$
