505986
  -OEChem-10302200282D
118121  0     1  0  0  0  0  0999 V2000
    5.4641   -1.2500    0.0000 O   0  0  0  0  0  0  0  0  0  0  0  0
    8.0622    1.2500    0.0000 O   0  0  0  0  0  0  0  0  0  0  0  0
    6.3301    1.2500    0.0000 O   0  0  0  0  0  0  0  0  0  0  0  0
    7.1962   -1.2500    0.0000 O   0  0  0  0  0  0  0  0  0  0  0  0
    3.7320   -0.2500    0.0000 O   0  0  0  0  0  0  0  0  0  0  0  0
    8.9282   -1.2500    0.0000 O   0  0  0  0  0  0  0  0  0  0  0  0
    4.5981    3.2500    0.0000 O   0  0  0  0  0  0  0  0  0  0  0  0
   11.5263    1.2500    0.0000 O   0  0  0  0  0  0  0  0  0  0  0  0
    2.8660   -5.7500    0.0000 O   0  0  0  0  0  0  0  0  0  0  0  0
    7.1962    5.7500    0.0000 O   0  0  0  0  0  0  0  0  0  0  0  0
    2.8660   -7.7500    0.0000 O   0  0  0  0  0  0  0  0  0  0  0  0
    7.1962    7.7500    0.0000 O   0  0  0  0  0  0  0  0  0  0  0  0
    4.5981    1.2500    0.0000 N   0  0  0  0  0  0  0  0  0  0  0  0
    9.7942    0.2500    0.0000 N   0  0  0  0  0  0  0  0  0  0  0  0
    2.8660    3.2500    0.0000 N   0  0  0  0  0  0  0  0  0  0  0  0
   12.3923   -0.2500    0.0000 N   0  0  0  0  0  0  0  0  0  0  0  0
    6.3301    0.2500    0.0000 C   0  0  2  0  0  0  0  0  0  0  0  0
    7.1962   -0.2500    0.0000 C   0  0  2  0  0  0  0  0  0  0  0  0
    5.4641   -0.2500    0.0000 C   0  0  2  0  0  0  0  0  0  0  0  0
    8.0622    0.2500    0.0000 C   0  0  2  0  0  0  0  0  0  0  0  0
    3.7320    1.7500    0.0000 C   0  0  1  0  0  0  0  0  0  0  0  0
   10.6603   -0.2500    0.0000 C   0  0  1  0  0  0  0  0  0  0  0  0
    4.5981    0.2500    0.0000 C   0  0  0  0  0  0  0  0  0  0  0  0
    8.9282   -0.2500    0.0000 C   0  0  0  0  0  0  0  0  0  0  0  0
    2.8660    1.2500    0.0000 C   0  0  0  0  0  0  0  0  0  0  0  0
   10.6603   -1.2500    0.0000 C   0  0  0  0  0  0  0  0  0  0  0  0
    4.5981   -1.7500    0.0000 C   0  0  0  0  0  0  0  0  0  0  0  0
    8.9282    1.7500    0.0000 C   0  0  0  0  0  0  0  0  0  0  0  0
    2.0000    1.7500    0.0000 C   0  0  0  0  0  0  0  0  0  0  0  0
    2.8660    0.2500    0.0000 C   0  0  0  0  0  0  0  0  0  0  0  0
   11.5263   -1.7500    0.0000 C   0  0  0  0  0  0  0  0  0  0  0  0
    9.7942   -1.7500    0.0000 C   0  0  0  0  0  0  0  0  0  0  0  0
    3.7320    2.7500    0.0000 C   0  0  0  0  0  0  0  0  0  0  0  0
   11.5263    0.2500    0.0000 C   0  0  0  0  0  0  0  0  0  0  0  0
    4.5981   -2.7500    0.0000 C   0  0  0  0  0  0  0  0  0  0  0  0
    8.9282    2.7500    0.0000 C   0  0  0  0  0  0  0  0  0  0  0  0
    5.4641   -6.2500    0.0000 C   0  0  0  0  0  0  0  0  0  0  0  0
    9.7942    6.2500    0.0000 C   0  0  0  0  0  0  0  0  0  0  0  0
    4.5981   -5.7500    0.0000 C   0  0  0  0  0  0  0  0  0  0  0  0
    8.9282    5.7500    0.0000 C   0  0  0  0  0  0  0  0  0  0  0  0
    5.4641   -7.2500    0.0000 C   0  0  0  0  0  0  0  0  0  0  0  0
    9.7942    7.2500    0.0000 C   0  0  0  0  0  0  0  0  0  0  0  0
    4.5981   -4.7500    0.0000 C   0  0  0  0  0  0  0  0  0  0  0  0
    8.9282    4.7500    0.0000 C   0  0  0  0  0  0  0  0  0  0  0  0
    4.5981   -7.7500    0.0000 C   0  0  0  0  0  0  0  0  0  0  0  0
    8.9282    7.7500    0.0000 C   0  0  0  0  0  0  0  0  0  0  0  0
    5.4641   -3.2500    0.0000 C   0  0  0  0  0  0  0  0  0  0  0  0
    3.7320   -3.2500    0.0000 C   0  0  0  0  0  0  0  0  0  0  0  0
    8.0622    3.2500    0.0000 C   0  0  0  0  0  0  0  0  0  0  0  0
    9.7942    3.2500    0.0000 C   0  0  0  0  0  0  0  0  0  0  0  0
    5.4641   -4.2500    0.0000 C   0  0  0  0  0  0  0  0  0  0  0  0
    3.7320   -4.2500    0.0000 C   0  0  0  0  0  0  0  0  0  0  0  0
    8.0622    4.2500    0.0000 C   0  0  0  0  0  0  0  0  0  0  0  0
    9.7942    4.2500    0.0000 C   0  0  0  0  0  0  0  0  0  0  0  0
    3.7320   -6.2500    0.0000 C   0  0  0  0  0  0  0  0  0  0  0  0
    8.0622    6.2500    0.0000 C   0  0  0  0  0  0  0  0  0  0  0  0
    3.7320   -7.2500    0.0000 C   0  0  0  0  0  0  0  0  0  0  0  0
    8.0622    7.2500    0.0000 C   0  0  0  0  0  0  0  0  0  0  0  0
    2.8660    4.2500    0.0000 C   0  0  0  0  0  0  0  0  0  0  0  0
   13.2583    0.2500    0.0000 C   0  0  0  0  0  0  0  0  0  0  0  0
    6.8671    0.5600    0.0000 H   0  0  0  0  0  0  0  0  0  0  0  0
    6.6592   -0.5600    0.0000 H   0  0  0  0  0  0  0  0  0  0  0  0
    6.0010   -0.5600    0.0000 H   0  0  0  0  0  0  0  0  0  0  0  0
    7.5252    0.5600    0.0000 H   0  0  0  0  0  0  0  0  0  0  0  0
    3.7320    1.1300    0.0000 H   0  0  0  0  0  0  0  0  0  0  0  0
   10.6603    0.3700    0.0000 H   0  0  0  0  0  0  0  0  0  0  0  0
    2.8660    1.8700    0.0000 H   0  0  0  0  0  0  0  0  0  0  0  0
   11.1972   -0.9400    0.0000 H   0  0  0  0  0  0  0  0  0  0  0  0
    5.1350    1.5600    0.0000 H   0  0  0  0  0  0  0  0  0  0  0  0
    9.7942    0.8700    0.0000 H   0  0  0  0  0  0  0  0  0  0  0  0
    6.8671    1.5600    0.0000 H   0  0  0  0  0  0  0  0  0  0  0  0
    7.7331   -1.5600    0.0000 H   0  0  0  0  0  0  0  0  0  0  0  0
    4.3860   -1.1674    0.0000 H   0  0  0  0  0  0  0  0  0  0  0  0
    3.9875   -1.8577    0.0000 H   0  0  0  0  0  0  0  0  0  0  0  0
    9.1403    1.1674    0.0000 H   0  0  0  0  0  0  0  0  0  0  0  0
    9.5388    1.8577    0.0000 H   0  0  0  0  0  0  0  0  0  0  0  0
    2.3100    2.2869    0.0000 H   0  0  0  0  0  0  0  0  0  0  0  0
    1.4631    2.0600    0.0000 H   0  0  0  0  0  0  0  0  0  0  0  0
    1.6900    1.2131    0.0000 H   0  0  0  0  0  0  0  0  0  0  0  0
    2.2460    0.2500    0.0000 H   0  0  0  0  0  0  0  0  0  0  0  0
    2.8660   -0.3700    0.0000 H   0  0  0  0  0  0  0  0  0  0  0  0
    3.4860    0.2500    0.0000 H   0  0  0  0  0  0  0  0  0  0  0  0
   11.2163   -2.2869    0.0000 H   0  0  0  0  0  0  0  0  0  0  0  0
   12.0632   -2.0600    0.0000 H   0  0  0  0  0  0  0  0  0  0  0  0
   11.8363   -1.2131    0.0000 H   0  0  0  0  0  0  0  0  0  0  0  0
    9.4842   -1.2131    0.0000 H   0  0  0  0  0  0  0  0  0  0  0  0
    9.2573   -2.0600    0.0000 H   0  0  0  0  0  0  0  0  0  0  0  0
   10.1042   -2.2869    0.0000 H   0  0  0  0  0  0  0  0  0  0  0  0
    6.0747   -6.3577    0.0000 H   0  0  0  0  0  0  0  0  0  0  0  0
    5.6762   -5.6674    0.0000 H   0  0  0  0  0  0  0  0  0  0  0  0
   10.0063    5.6674    0.0000 H   0  0  0  0  0  0  0  0  0  0  0  0
   10.4048    6.3577    0.0000 H   0  0  0  0  0  0  0  0  0  0  0  0
    5.6762   -7.8326    0.0000 H   0  0  0  0  0  0  0  0  0  0  0  0
    6.0747   -7.1423    0.0000 H   0  0  0  0  0  0  0  0  0  0  0  0
   10.4048    7.1423    0.0000 H   0  0  0  0  0  0  0  0  0  0  0  0
   10.0063    7.8326    0.0000 H   0  0  0  0  0  0  0  0  0  0  0  0
    4.1996   -8.2250    0.0000 H   0  0  0  0  0  0  0  0  0  0  0  0
    4.9966   -8.2250    0.0000 H   0  0  0  0  0  0  0  0  0  0  0  0
    9.3267    8.2250    0.0000 H   0  0  0  0  0  0  0  0  0  0  0  0
    8.5297    8.2250    0.0000 H   0  0  0  0  0  0  0  0  0  0  0  0
    6.0010   -2.9400    0.0000 H   0  0  0  0  0  0  0  0  0  0  0  0
    3.1951   -2.9400    0.0000 H   0  0  0  0  0  0  0  0  0  0  0  0
    7.5252    2.9400    0.0000 H   0  0  0  0  0  0  0  0  0  0  0  0
   10.3312    2.9400    0.0000 H   0  0  0  0  0  0  0  0  0  0  0  0
    2.3291    2.9400    0.0000 H   0  0  0  0  0  0  0  0  0  0  0  0
   12.3923   -0.8700    0.0000 H   0  0  0  0  0  0  0  0  0  0  0  0
    6.0010   -4.5600    0.0000 H   0  0  0  0  0  0  0  0  0  0  0  0
    3.1951   -4.5600    0.0000 H   0  0  0  0  0  0  0  0  0  0  0  0
    7.5252    4.5600    0.0000 H   0  0  0  0  0  0  0  0  0  0  0  0
   10.3312    4.5600    0.0000 H   0  0  0  0  0  0  0  0  0  0  0  0
    3.4860    4.2500    0.0000 H   0  0  0  0  0  0  0  0  0  0  0  0
    2.8660    4.8700    0.0000 H   0  0  0  0  0  0  0  0  0  0  0  0
    2.2460    4.2500    0.0000 H   0  0  0  0  0  0  0  0  0  0  0  0
   13.5683   -0.2869    0.0000 H   0  0  0  0  0  0  0  0  0  0  0  0
   13.7953    0.5600    0.0000 H   0  0  0  0  0  0  0  0  0  0  0  0
   12.9483    0.7869    0.0000 H   0  0  0  0  0  0  0  0  0  0  0  0
    2.3291   -6.0600    0.0000 H   0  0  0  0  0  0  0  0  0  0  0  0
    6.6592    6.0600    0.0000 H   0  0  0  0  0  0  0  0  0  0  0  0
 19  1  1  1  0  0  0
  1 27  1  0  0  0  0
 20  2  1  1  0  0  0
  2 28  1  0  0  0  0
 17  3  1  6  0  0  0
  3 71  1  0  0  0  0
 18  4  1  6  0  0  0
  4 72  1  0  0  0  0
  5 23  2  0  0  0  0
  6 24  2  0  0  0  0
  7 33  2  0  0  0  0
  8 34  2  0  0  0  0
  9 55  1  0  0  0  0
  9117  1  0  0  0  0
 10 56  1  0  0  0  0
 10118  1  0  0  0  0
 11 57  2  0  0  0  0
 12 58  2  0  0  0  0
 21 13  1  1  0  0  0
 13 23  1  0  0  0  0
 13 69  1  0  0  0  0
 22 14  1  6  0  0  0
 14 24  1  0  0  0  0
 14 70  1  0  0  0  0
 15 33  1  0  0  0  0
 15 59  1  0  0  0  0
 15105  1  0  0  0  0
 16 34  1  0  0  0  0
 16 60  1  0  0  0  0
 16106  1  0  0  0  0
 17 18  1  0  0  0  0
 17 19  1  0  0  0  0
 17 61  1  0  0  0  0
 18 20  1  0  0  0  0
 18 62  1  0  0  0  0
 19 23  1  0  0  0  0
 19 63  1  0  0  0  0
 20 24  1  0  0  0  0
 20 64  1  0  0  0  0
 21 25  1  0  0  0  0
 21 33  1  0  0  0  0
 21 65  1  0  0  0  0
 22 26  1  0  0  0  0
 22 34  1  0  0  0  0
 22 66  1  0  0  0  0
 25 29  1  0  0  0  0
 25 30  1  0  0  0  0
 25 67  1  0  0  0  0
 26 31  1  0  0  0  0
 26 32  1  0  0  0  0
 26 68  1  0  0  0  0
 27 35  1  0  0  0  0
 27 73  1  0  0  0  0
 27 74  1  0  0  0  0
 28 36  1  0  0  0  0
 28 75  1  0  0  0  0
 28 76  1  0  0  0  0
 29 77  1  0  0  0  0
 29 78  1  0  0  0  0
 29 79  1  0  0  0  0
 30 80  1  0  0  0  0
 30 81  1  0  0  0  0
 30 82  1  0  0  0  0
 31 83  1  0  0  0  0
 31 84  1  0  0  0  0
 31 85  1  0  0  0  0
 32 86  1  0  0  0  0
 32 87  1  0  0  0  0
 32 88  1  0  0  0  0
 35 47  2  0  0  0  0
 35 48  1  0  0  0  0
 36 49  2  0  0  0  0
 36 50  1  0  0  0  0
 37 39  1  0  0  0  0
 37 41  1  0  0  0  0
 37 89  1  0  0  0  0
 37 90  1  0  0  0  0
 38 40  1  0  0  0  0
 38 42  1  0  0  0  0
 38 91  1  0  0  0  0
 38 92  1  0  0  0  0
 39 43  1  0  0  0  0
 39 55  2  0  0  0  0
 40 44  1  0  0  0  0
 40 56  2  0  0  0  0
 41 45  1  0  0  0  0
 41 93  1  0  0  0  0
 41 94  1  0  0  0  0
 42 46  1  0  0  0  0
 42 95  1  0  0  0  0
 42 96  1  0  0  0  0
 43 51  2  0  0  0  0
 43 52  1  0  0  0  0
 44 53  2  0  0  0  0
 44 54  1  0  0  0  0
 45 57  1  0  0  0  0
 45 97  1  0  0  0  0
 45 98  1  0  0  0  0
 46 58  1  0  0  0  0
 46 99  1  0  0  0  0
 46100  1  0  0  0  0
 47 51  1  0  0  0  0
 47101  1  0  0  0  0
 48 52  2  0  0  0  0
 48102  1  0  0  0  0
 49 53  1  0  0  0  0
 49103  1  0  0  0  0
 50 54  2  0  0  0  0
 50104  1  0  0  0  0
 51107  1  0  0  0  0
 52108  1  0  0  0  0
 53109  1  0  0  0  0
 54110  1  0  0  0  0
 55 57  1  0  0  0  0
 56 58  1  0  0  0  0
 59111  1  0  0  0  0
 59112  1  0  0  0  0
 59113  1  0  0  0  0
 60114  1  0  0  0  0
 60115  1  0  0  0  0
 60116  1  0  0  0  0
M  END
> <PUBCHEM_COMPOUND_CID>
505986
> <PUBCHEM_COMPOUND_CANONICALIZED>
1
> <PUBCHEM_CACTVS_COMPLEXITY>
1480
> <PUBCHEM_CACTVS_HBOND_ACCEPTOR>
12
> <PUBCHEM_CACTVS_HBOND_DONOR>
8
> <PUBCHEM_CACTVS_ROTATABLE_BOND>
19
> <PUBCHEM_CACTVS_SUBSKEYS>
AAADcfB/vAAAAAAAAAAAAAAAAAAAAAAAAAAwYIEAAAAAAAABQAAAHgAQCAAADTzhmAYyAILABgCIAqFSEAICAAAgIAAIiIHICMgLdjaAsTyXcAAn9gGbqQf63PLOQAAAAAAAAACAAAAAAAAAAAAAAAAAAA==
> <PUBCHEM_IUPAC_OPENEYE_NAME>
(2R,3R,4R,5R)-3,4-dihydroxy-2,5-bis[[4-(2-hydroxy-3-oxo-cyclohexen-1-yl)phenyl]methoxy]-N,N'-bis[(1S)-2-methyl-1-(methylcarbamoyl)propyl]hexanediamide
> <PUBCHEM_IUPAC_CAS_NAME>
(2R,3R,4R,5R)-3,4-dihydroxy-2,5-bis[[4-(2-hydroxy-3-oxo-1-cyclohexenyl)phenyl]methoxy]-N,N'-bis[(2S)-3-methyl-1-(methylamino)-1-oxobutan-2-yl]hexanediamide
> <PUBCHEM_IUPAC_NAME_MARKUP>
(2<I>R</I>,3<I>R</I>,4<I>R</I>,5<I>R</I>)-3,4-dihydroxy-2,5-bis[[4-(2-hydroxy-3-oxocyclohexen-1-yl)phenyl]methoxy]-<I>N</I>,<I>N</I>&apos;-bis[(2<I>S</I>)-3-methyl-1-(methylamino)-1-oxobutan-2-yl]hexanediamide
> <PUBCHEM_IUPAC_NAME>
(2R,3R,4R,5R)-3,4-dihydroxy-2,5-bis[[4-(2-hydroxy-3-oxocyclohexen-1-yl)phenyl]methoxy]-N,N'-bis[(2S)-3-methyl-1-(methylamino)-1-oxobutan-2-yl]hexanediamide
> <PUBCHEM_IUPAC_SYSTEMATIC_NAME>
(2R,3R,4R,5R)-N,N'-bis[(2S)-3-methyl-1-(methylamino)-1-oxidanylidene-butan-2-yl]-3,4-bis(oxidanyl)-2,5-bis[[4-(2-oxidanyl-3-oxidanylidene-cyclohexen-1-yl)phenyl]methoxy]hexanediamide
> <PUBCHEM_IUPAC_TRADITIONAL_NAME>
(2R,3R,4R,5R)-3,4-dihydroxy-2,5-bis[[4-(2-hydroxy-3-keto-cyclohexen-1-yl)benzyl]oxy]-N,N'-bis[(1S)-2-methyl-1-(methylcarbamoyl)propyl]adipamide
> <PUBCHEM_IUPAC_INCHI>
InChI=1S/C44H58N4O12/c1-23(2)33(41(55)45-5)47-43(57)39(59-21-25-13-17-27(18-14-25)29-9-7-11-31(49)35(29)51)37(53)38(54)40(44(58)48-34(24(3)4)42(56)46-6)60-22-26-15-19-28(20-16-26)30-10-8-12-32(50)36(30)52/h13-20,23-24,33-34,37-40,51-54H,7-12,21-22H2,1-6H3,(H,45,55)(H,46,56)(H,47,57)(H,48,58)/t33-,34-,37+,38+,39+,40+/m0/s1
> <PUBCHEM_IUPAC_INCHIKEY>
MJZPMJQELJOBQB-VGJLQNKPSA-N
> <PUBCHEM_XLOGP3_AA>
1.9
> <PUBCHEM_EXACT_MASS>
834.40512330
> <PUBCHEM_MOLECULAR_FORMULA>
C44H58N4O12
> <PUBCHEM_MOLECULAR_WEIGHT>
834.9
> <PUBCHEM_OPENEYE_CAN_SMILES>
CC(C)C(C(=O)NC)NC(=O)C(C(C(C(C(=O)NC(C(C)C)C(=O)NC)OCC1=CC=C(C=C1)C2=C(C(=O)CCC2)O)O)O)OCC3=CC=C(C=C3)C4=C(C(=O)CCC4)O
> <PUBCHEM_OPENEYE_ISO_SMILES>
CC(C)[C@@H](C(=O)NC)NC(=O)[C@@H]([C@@H]([C@H]([C@H](C(=O)N[C@@H](C(C)C)C(=O)NC)OCC1=CC=C(C=C1)C2=C(C(=O)CCC2)O)O)O)OCC3=CC=C(C=C3)C4=C(C(=O)CCC4)O
> <PUBCHEM_CACTVS_TPSA>
250
> <PUBCHEM_MONOISOTOPIC_WEIGHT>
834.40512330
> <PUBCHEM_TOTAL_CHARGE>
0
> <PUBCHEM_HEAVY_ATOM_COUNT>
60
> <PUBCHEM_ATOM_DEF_STEREO_COUNT>
6
> <PUBCHEM_ATOM_UDEF_STEREO_COUNT>
0
> <PUBCHEM_BOND_DEF_STEREO_COUNT>
0
> <PUBCHEM_BOND_UDEF_STEREO_COUNT>
0
> <PUBCHEM_ISOTOPIC_ATOM_COUNT>
0
> <PUBCHEM_COMPONENT_COUNT>
1
> <PUBCHEM_CACTVS_TAUTO_COUNT>
-1
> <PUBCHEM_COORDINATE_TYPE>
1
5
255
> <PUBCHEM_BONDANNOTATIONS>
19  1  5
21  13  5
22  14  6
20  2  5
17  3  6
35  47  8
35  48  8
36  49  8
36  50  8
18  4  6
43  51  8
43  52  8
44  53  8
44  54  8
47  51  8
48  52  8
49  53  8
50  54  8
$$$$
