505990
  -OEChem-10302200282D
 68 71  0     1  0  0  0  0  0999 V2000
    7.3180   -1.5433    0.0000 S   0  0  0  0  0  0  0  0  0  0  0  0
    6.3841    1.5483    0.0000 O   0  0  0  0  0  0  0  0  0  0  0  0
    8.2518    1.5483    0.0000 O   0  0  0  0  0  0  0  0  0  0  0  0
    6.8841   -2.4442    0.0000 O   0  0  0  0  0  0  0  0  0  0  0  0
    7.7518   -2.4442    0.0000 O   0  0  0  0  0  0  0  0  0  0  0  0
    4.9248    1.0436    0.0000 O   0  0  0  0  0  0  0  0  0  0  0  0
    9.7111    1.0436    0.0000 O   0  0  0  0  0  0  0  0  0  0  0  0
    6.4170   -1.1094    0.0000 N   0  0  3  0  0  0  0  0  0  0  0  0
    8.2189   -1.1094    0.0000 N   0  0  3  0  0  0  0  0  0  0  0  0
    6.1945   -0.1345    0.0000 C   0  0  1  0  0  0  0  0  0  0  0  0
    8.4414   -0.1345    0.0000 C   0  0  1  0  0  0  0  0  0  0  0  0
    6.8180    0.6474    0.0000 C   0  0  1  0  0  0  0  0  0  0  0  0
    7.8180    0.6474    0.0000 C   0  0  1  0  0  0  0  0  0  0  0  0
    5.2195    0.0881    0.0000 C   0  0  0  0  0  0  0  0  0  0  0  0
    9.4164    0.0881    0.0000 C   0  0  0  0  0  0  0  0  0  0  0  0
    5.6352   -1.7329    0.0000 C   0  0  0  0  0  0  0  0  0  0  0  0
    9.0008   -1.7329    0.0000 C   0  0  0  0  0  0  0  0  0  0  0  0
    4.7043   -1.3675    0.0000 C   0  0  0  0  0  0  0  0  0  0  0  0
    9.9316   -1.3675    0.0000 C   0  0  0  0  0  0  0  0  0  0  0  0
    3.9224   -1.9910    0.0000 C   0  0  0  0  0  0  0  0  0  0  0  0
    4.5552   -0.3787    0.0000 C   0  0  0  0  0  0  0  0  0  0  0  0
    3.9499    1.2662    0.0000 C   0  0  0  0  0  0  0  0  0  0  0  0
   10.6861    1.2662    0.0000 C   0  0  0  0  0  0  0  0  0  0  0  0
    2.9916   -1.6257    0.0000 C   0  0  0  0  0  0  0  0  0  0  0  0
    3.6244   -0.0134    0.0000 C   0  0  0  0  0  0  0  0  0  0  0  0
    2.8425   -0.6369    0.0000 C   0  0  0  0  0  0  0  0  0  0  0  0
    3.6551    2.2217    0.0000 C   0  0  0  0  0  0  0  0  0  0  0  0
    3.2697    0.5331    0.0000 C   0  0  0  0  0  0  0  0  0  0  0  0
   11.3662    0.5331    0.0000 C   0  0  0  0  0  0  0  0  0  0  0  0
   10.9808    2.2217    0.0000 C   0  0  0  0  0  0  0  0  0  0  0  0
    2.6802    2.4442    0.0000 C   0  0  0  0  0  0  0  0  0  0  0  0
    2.2948    0.7556    0.0000 C   0  0  0  0  0  0  0  0  0  0  0  0
   12.3412    0.7556    0.0000 C   0  0  0  0  0  0  0  0  0  0  0  0
   11.9557    2.4442    0.0000 C   0  0  0  0  0  0  0  0  0  0  0  0
    2.0000    1.7112    0.0000 C   0  0  0  0  0  0  0  0  0  0  0  0
   12.6359    1.7112    0.0000 C   0  0  0  0  0  0  0  0  0  0  0  0
    5.7561   -0.5729    0.0000 H   0  0  0  0  0  0  0  0  0  0  0  0
    8.8798   -0.5729    0.0000 H   0  0  0  0  0  0  0  0  0  0  0  0
    6.2018    0.7168    0.0000 H   0  0  0  0  0  0  0  0  0  0  0  0
    7.4881    1.1723    0.0000 H   0  0  0  0  0  0  0  0  0  0  0  0
    4.6044    0.0110    0.0000 H   0  0  0  0  0  0  0  0  0  0  0  0
    5.1886   -0.5312    0.0000 H   0  0  0  0  0  0  0  0  0  0  0  0
    9.4473   -0.5312    0.0000 H   0  0  0  0  0  0  0  0  0  0  0  0
   10.0316    0.0110    0.0000 H   0  0  0  0  0  0  0  0  0  0  0  0
    5.3119   -2.2619    0.0000 H   0  0  0  0  0  0  0  0  0  0  0  0
    6.1000   -2.1431    0.0000 H   0  0  0  0  0  0  0  0  0  0  0  0
    8.5359   -2.1431    0.0000 H   0  0  0  0  0  0  0  0  0  0  0  0
    9.3240   -2.2619    0.0000 H   0  0  0  0  0  0  0  0  0  0  0  0
    6.7333    2.0606    0.0000 H   0  0  0  0  0  0  0  0  0  0  0  0
    7.9026    2.0606    0.0000 H   0  0  0  0  0  0  0  0  0  0  0  0
   10.1581   -1.9447    0.0000 H   0  0  0  0  0  0  0  0  0  0  0  0
   10.5088   -1.1410    0.0000 H   0  0  0  0  0  0  0  0  0  0  0  0
    9.7051   -0.7904    0.0000 H   0  0  0  0  0  0  0  0  0  0  0  0
    4.0149   -2.6041    0.0000 H   0  0  0  0  0  0  0  0  0  0  0  0
    5.0400    0.0079    0.0000 H   0  0  0  0  0  0  0  0  0  0  0  0
    2.5068   -2.0122    0.0000 H   0  0  0  0  0  0  0  0  0  0  0  0
    3.5320    0.5997    0.0000 H   0  0  0  0  0  0  0  0  0  0  0  0
    2.2654   -0.4103    0.0000 H   0  0  0  0  0  0  0  0  0  0  0  0
    4.0768    2.6762    0.0000 H   0  0  0  0  0  0  0  0  0  0  0  0
    3.4524   -0.0594    0.0000 H   0  0  0  0  0  0  0  0  0  0  0  0
   11.1835   -0.0594    0.0000 H   0  0  0  0  0  0  0  0  0  0  0  0
   10.5591    2.6762    0.0000 H   0  0  0  0  0  0  0  0  0  0  0  0
    2.4974    3.0367    0.0000 H   0  0  0  0  0  0  0  0  0  0  0  0
    1.8730    0.3011    0.0000 H   0  0  0  0  0  0  0  0  0  0  0  0
   12.7629    0.3011    0.0000 H   0  0  0  0  0  0  0  0  0  0  0  0
   12.1385    3.0367    0.0000 H   0  0  0  0  0  0  0  0  0  0  0  0
    1.3955    1.8492    0.0000 H   0  0  0  0  0  0  0  0  0  0  0  0
   13.2404    1.8492    0.0000 H   0  0  0  0  0  0  0  0  0  0  0  0
  1  4  2  0  0  0  0
  1  5  2  0  0  0  0
  1  8  1  0  0  0  0
  1  9  1  0  0  0  0
 12  2  1  6  0  0  0
  2 49  1  0  0  0  0
 13  3  1  1  0  0  0
  3 50  1  0  0  0  0
  6 14  1  0  0  0  0
  6 22  1  0  0  0  0
  7 15  1  0  0  0  0
  7 23  1  0  0  0  0
  8 10  1  0  0  0  0
  8 16  1  0  0  0  0
  9 11  1  0  0  0  0
  9 17  1  0  0  0  0
 10 12  1  0  0  0  0
 10 14  1  6  0  0  0
 10 37  1  0  0  0  0
 11 13  1  0  0  0  0
 11 15  1  1  0  0  0
 11 38  1  0  0  0  0
 12 13  1  0  0  0  0
 12 39  1  0  0  0  0
 13 40  1  0  0  0  0
 14 41  1  0  0  0  0
 14 42  1  0  0  0  0
 15 43  1  0  0  0  0
 15 44  1  0  0  0  0
 16 18  1  0  0  0  0
 16 45  1  0  0  0  0
 16 46  1  0  0  0  0
 17 19  1  0  0  0  0
 17 47  1  0  0  0  0
 17 48  1  0  0  0  0
 18 20  2  0  0  0  0
 18 21  1  0  0  0  0
 19 51  1  0  0  0  0
 19 52  1  0  0  0  0
 19 53  1  0  0  0  0
 20 24  1  0  0  0  0
 20 54  1  0  0  0  0
 21 25  2  0  0  0  0
 21 55  1  0  0  0  0
 22 27  2  0  0  0  0
 22 28  1  0  0  0  0
 23 29  2  0  0  0  0
 23 30  1  0  0  0  0
 24 26  2  0  0  0  0
 24 56  1  0  0  0  0
 25 26  1  0  0  0  0
 25 57  1  0  0  0  0
 26 58  1  0  0  0  0
 27 31  1  0  0  0  0
 27 59  1  0  0  0  0
 28 32  2  0  0  0  0
 28 60  1  0  0  0  0
 29 33  1  0  0  0  0
 29 61  1  0  0  0  0
 30 34  2  0  0  0  0
 30 62  1  0  0  0  0
 31 35  2  0  0  0  0
 31 63  1  0  0  0  0
 32 35  1  0  0  0  0
 32 64  1  0  0  0  0
 33 36  2  0  0  0  0
 33 65  1  0  0  0  0
 34 36  1  0  0  0  0
 34 66  1  0  0  0  0
 35 67  1  0  0  0  0
 36 68  1  0  0  0  0
M  END
> <PUBCHEM_COMPOUND_CID>
505990
> <PUBCHEM_COMPOUND_CANONICALIZED>
1
> <PUBCHEM_CACTVS_COMPLEXITY>
744
> <PUBCHEM_CACTVS_HBOND_ACCEPTOR>
8
> <PUBCHEM_CACTVS_HBOND_DONOR>
2
> <PUBCHEM_CACTVS_ROTATABLE_BOND>
9
> <PUBCHEM_CACTVS_SUBSKEYS>
AAADcfB7OABAAAAAAAAAAAAAAAAAAAAAAAAwYMAABYAAAAABUAAAHgAASAAADDzhmAYyBoIABgCAAiBCADCCCAAgIAAIiAAODIgPNiKEsRuHeCjnwBGZqAfQ0AMOAAAAAAAAAAAAAAAAAAAAAAAAAAAAAA==
> <PUBCHEM_IUPAC_OPENEYE_NAME>
(3R,4S,5S,6R)-2-benzyl-7-ethyl-1,1-dioxo-3,6-bis(phenoxymethyl)-1,2,7-thiadiazepane-4,5-diol
> <PUBCHEM_IUPAC_CAS_NAME>
(3R,4S,5S,6R)-2-ethyl-1,1-dioxo-3,6-bis(phenoxymethyl)-7-(phenylmethyl)-1,2,7-thiadiazepane-4,5-diol
> <PUBCHEM_IUPAC_NAME_MARKUP>
(3<I>R</I>,4<I>S</I>,5<I>S</I>,6<I>R</I>)-2-benzyl-7-ethyl-1,1-dioxo-3,6-bis(phenoxymethyl)-1,2,7-thiadiazepane-4,5-diol
> <PUBCHEM_IUPAC_NAME>
(3R,4S,5S,6R)-2-benzyl-7-ethyl-1,1-dioxo-3,6-bis(phenoxymethyl)-1,2,7-thiadiazepane-4,5-diol
> <PUBCHEM_IUPAC_SYSTEMATIC_NAME>
(3R,4S,5S,6R)-2-ethyl-1,1-bis(oxidanylidene)-3,6-bis(phenoxymethyl)-7-(phenylmethyl)-1,2,7-thiadiazepane-4,5-diol
> <PUBCHEM_IUPAC_TRADITIONAL_NAME>
(3R,4S,5S,6R)-2-benzyl-7-ethyl-1,1-diketo-3,6-bis(phenoxymethyl)-1,2,7-thiadiazepane-4,5-diol
> <PUBCHEM_IUPAC_INCHI>
InChI=1S/C27H32N2O6S/c1-2-28-24(19-34-22-14-8-4-9-15-22)26(30)27(31)25(20-35-23-16-10-5-11-17-23)29(36(28,32)33)18-21-12-6-3-7-13-21/h3-17,24-27,30-31H,2,18-20H2,1H3/t24-,25-,26+,27+/m1/s1
> <PUBCHEM_IUPAC_INCHIKEY>
QHBIEGLEVDVROO-XDZXDJIYSA-N
> <PUBCHEM_XLOGP3_AA>
3.3
> <PUBCHEM_EXACT_MASS>
512.19810792
> <PUBCHEM_MOLECULAR_FORMULA>
C27H32N2O6S
> <PUBCHEM_MOLECULAR_WEIGHT>
512.6
> <PUBCHEM_OPENEYE_CAN_SMILES>
CCN1C(C(C(C(N(S1(=O)=O)CC2=CC=CC=C2)COC3=CC=CC=C3)O)O)COC4=CC=CC=C4
> <PUBCHEM_OPENEYE_ISO_SMILES>
CCN1[C@@H]([C@@H]([C@H]([C@H](N(S1(=O)=O)CC2=CC=CC=C2)COC3=CC=CC=C3)O)O)COC4=CC=CC=C4
> <PUBCHEM_CACTVS_TPSA>
108
> <PUBCHEM_MONOISOTOPIC_WEIGHT>
512.19810792
> <PUBCHEM_TOTAL_CHARGE>
0
> <PUBCHEM_HEAVY_ATOM_COUNT>
36
> <PUBCHEM_ATOM_DEF_STEREO_COUNT>
4
> <PUBCHEM_ATOM_UDEF_STEREO_COUNT>
0
> <PUBCHEM_BOND_DEF_STEREO_COUNT>
0
> <PUBCHEM_BOND_UDEF_STEREO_COUNT>
0
> <PUBCHEM_ISOTOPIC_ATOM_COUNT>
0
> <PUBCHEM_COMPONENT_COUNT>
1
> <PUBCHEM_CACTVS_TAUTO_COUNT>
-1
> <PUBCHEM_COORDINATE_TYPE>
1
5
255
> <PUBCHEM_BONDANNOTATIONS>
10  14  6
11  15  5
18  20  8
18  21  8
12  2  6
20  24  8
21  25  8
22  27  8
22  28  8
23  29  8
23  30  8
24  26  8
25  26  8
27  31  8
28  32  8
29  33  8
13  3  5
30  34  8
31  35  8
32  35  8
33  36  8
34  36  8
$$$$
