505977
  -OEChem-10302200282D
 46 48  0     1  0  0  0  0  0999 V2000
    4.5981   -1.3877    0.0000 O   0  0  0  0  0  0  0  0  0  0  0  0
    4.5981    1.6123    0.0000 O   0  0  0  0  0  0  0  0  0  0  0  0
    2.8660    2.6123    0.0000 O   0  0  0  0  0  0  0  0  0  0  0  0
    8.0622   -1.3877    0.0000 N   0  0  3  0  0  0  0  0  0  0  0  0
    5.4641    0.1123    0.0000 N   0  0  0  0  0  0  0  0  0  0  0  0
    8.0622   -0.3877    0.0000 C   0  0  1  0  0  0  0  0  0  0  0  0
    8.9561   -1.9224    0.0000 C   0  0  1  0  0  0  0  0  0  0  0  0
    7.1962    0.1123    0.0000 C   0  0  0  0  0  0  0  0  0  0  0  0
    8.9561    0.1470    0.0000 C   0  0  0  0  0  0  0  0  0  0  0  0
    6.3301   -0.3877    0.0000 C   0  0  2  0  0  0  0  0  0  0  0  0
    7.1962   -1.8877    0.0000 C   0  0  0  0  0  0  0  0  0  0  0  0
    9.8622   -1.4085    0.0000 C   0  0  0  0  0  0  0  0  0  0  0  0
    6.3301   -1.3877    0.0000 C   0  0  0  0  0  0  0  0  0  0  0  0
    9.8622   -0.3669    0.0000 C   0  0  0  0  0  0  0  0  0  0  0  0
    8.9446   -2.9223    0.0000 C   0  0  0  0  0  0  0  0  0  0  0  0
    4.5981   -0.3877    0.0000 C   0  0  0  0  0  0  0  0  0  0  0  0
    3.7320    0.1123    0.0000 C   0  0  0  0  0  0  0  0  0  0  0  0
    3.7320    1.1123    0.0000 C   0  0  0  0  0  0  0  0  0  0  0  0
    2.8660   -0.3877    0.0000 C   0  0  0  0  0  0  0  0  0  0  0  0
    2.8660    1.6123    0.0000 C   0  0  0  0  0  0  0  0  0  0  0  0
    2.0000    0.1123    0.0000 C   0  0  0  0  0  0  0  0  0  0  0  0
    2.0000    1.1123    0.0000 C   0  0  0  0  0  0  0  0  0  0  0  0
    8.0556    0.4623    0.0000 H   0  0  0  0  0  0  0  0  0  0  0  0
    8.4151   -2.2251    0.0000 H   0  0  0  0  0  0  0  0  0  0  0  0
    7.5947    0.5872    0.0000 H   0  0  0  0  0  0  0  0  0  0  0  0
    6.7976    0.5872    0.0000 H   0  0  0  0  0  0  0  0  0  0  0  0
    9.3497    0.6260    0.0000 H   0  0  0  0  0  0  0  0  0  0  0  0
    8.5515    0.6167    0.0000 H   0  0  0  0  0  0  0  0  0  0  0  0
    5.7932   -0.6977    0.0000 H   0  0  0  0  0  0  0  0  0  0  0  0
    6.7976   -2.3626    0.0000 H   0  0  0  0  0  0  0  0  0  0  0  0
    7.5947   -2.3626    0.0000 H   0  0  0  0  0  0  0  0  0  0  0  0
   10.0712   -1.9922    0.0000 H   0  0  0  0  0  0  0  0  0  0  0  0
   10.4730   -1.3024    0.0000 H   0  0  0  0  0  0  0  0  0  0  0  0
    5.7196   -1.2800    0.0000 H   0  0  0  0  0  0  0  0  0  0  0  0
    6.1181   -1.9703    0.0000 H   0  0  0  0  0  0  0  0  0  0  0  0
   10.4730   -0.4730    0.0000 H   0  0  0  0  0  0  0  0  0  0  0  0
   10.0712    0.2168    0.0000 H   0  0  0  0  0  0  0  0  0  0  0  0
    8.3246   -2.9151    0.0000 H   0  0  0  0  0  0  0  0  0  0  0  0
    8.9374   -3.5423    0.0000 H   0  0  0  0  0  0  0  0  0  0  0  0
    9.5645   -2.9295    0.0000 H   0  0  0  0  0  0  0  0  0  0  0  0
    5.4641    0.7323    0.0000 H   0  0  0  0  0  0  0  0  0  0  0  0
    2.8660   -1.0077    0.0000 H   0  0  0  0  0  0  0  0  0  0  0  0
    1.4631   -0.1977    0.0000 H   0  0  0  0  0  0  0  0  0  0  0  0
    1.4631    1.4223    0.0000 H   0  0  0  0  0  0  0  0  0  0  0  0
    4.5981    2.2323    0.0000 H   0  0  0  0  0  0  0  0  0  0  0  0
    2.3291    2.9223    0.0000 H   0  0  0  0  0  0  0  0  0  0  0  0
  1 16  2  0  0  0  0
  2 18  1  0  0  0  0
  2 45  1  0  0  0  0
  3 20  1  0  0  0  0
  3 46  1  0  0  0  0
  4  6  1  0  0  0  0
  4  7  1  0  0  0  0
  4 11  1  0  0  0  0
 10  5  1  6  0  0  0
  5 16  1  0  0  0  0
  5 41  1  0  0  0  0
  6  8  1  0  0  0  0
  6  9  1  0  0  0  0
  6 23  1  6  0  0  0
  7 12  1  0  0  0  0
  7 15  1  1  0  0  0
  7 24  1  0  0  0  0
  8 10  1  0  0  0  0
  8 25  1  0  0  0  0
  8 26  1  0  0  0  0
  9 14  1  0  0  0  0
  9 27  1  0  0  0  0
  9 28  1  0  0  0  0
 10 13  1  0  0  0  0
 10 29  1  0  0  0  0
 11 13  1  0  0  0  0
 11 30  1  0  0  0  0
 11 31  1  0  0  0  0
 12 14  1  0  0  0  0
 12 32  1  0  0  0  0
 12 33  1  0  0  0  0
 13 34  1  0  0  0  0
 13 35  1  0  0  0  0
 14 36  1  0  0  0  0
 14 37  1  0  0  0  0
 15 38  1  0  0  0  0
 15 39  1  0  0  0  0
 15 40  1  0  0  0  0
 16 17  1  0  0  0  0
 17 18  2  0  0  0  0
 17 19  1  0  0  0  0
 18 20  1  0  0  0  0
 19 21  2  0  0  0  0
 19 42  1  0  0  0  0
 20 22  2  0  0  0  0
 21 22  1  0  0  0  0
 21 43  1  0  0  0  0
 22 44  1  0  0  0  0
M  END
> <PUBCHEM_COMPOUND_CID>
505977
> <PUBCHEM_COMPOUND_CANONICALIZED>
1
> <PUBCHEM_CACTVS_COMPLEXITY>
403
> <PUBCHEM_CACTVS_HBOND_ACCEPTOR>
4
> <PUBCHEM_CACTVS_HBOND_DONOR>
3
> <PUBCHEM_CACTVS_ROTATABLE_BOND>
2
> <PUBCHEM_CACTVS_SUBSKEYS>
AAADceB7MAAAAAAAAAAAAAAAAAAAAAAAAAA8WIAAAAAAAACxAAAAHgAQCAAADCzBmAQyBoPAAgCIAiFSEACCAAAkIAAIiIEOjMgJJjaC1ROEcUlm9hGJmYe6yLCOAAABAAAIQAAAAAIAABCAAAAAAAAAAA==
> <PUBCHEM_IUPAC_OPENEYE_NAME>
N-[(2S,6R,9aR)-6-methyl-2,3,4,6,7,8,9,9a-octahydro-1H-quinolizin-2-yl]-2,3-dihydroxy-benzamide
> <PUBCHEM_IUPAC_CAS_NAME>
N-[(2S,6R,9aR)-6-methyl-2,3,4,6,7,8,9,9a-octahydro-1H-quinolizin-2-yl]-2,3-dihydroxybenzamide
> <PUBCHEM_IUPAC_NAME_MARKUP>
<I>N</I>-[(2<I>S</I>,6<I>R</I>,9<I>a</I><I>R</I>)-6-methyl-2,3,4,6,7,8,9,9<I>a</I>-octahydro-1<I>H</I>-quinolizin-2-yl]-2,3-dihydroxybenzamide
> <PUBCHEM_IUPAC_NAME>
N-[(2S,6R,9aR)-6-methyl-2,3,4,6,7,8,9,9a-octahydro-1H-quinolizin-2-yl]-2,3-dihydroxybenzamide
> <PUBCHEM_IUPAC_SYSTEMATIC_NAME>
N-[(2S,6R,9aR)-6-methyl-2,3,4,6,7,8,9,9a-octahydro-1H-quinolizin-2-yl]-2,3-bis(oxidanyl)benzamide
> <PUBCHEM_IUPAC_TRADITIONAL_NAME>
N-[(2S,6R,9aR)-6-methylquinolizidin-2-yl]-2,3-dihydroxy-benzamide
> <PUBCHEM_IUPAC_INCHI>
InChI=1S/C17H24N2O3/c1-11-4-2-5-13-10-12(8-9-19(11)13)18-17(22)14-6-3-7-15(20)16(14)21/h3,6-7,11-13,20-21H,2,4-5,8-10H2,1H3,(H,18,22)/t11-,12+,13-/m1/s1
> <PUBCHEM_IUPAC_INCHIKEY>
CTMZLUJLBFRESF-FRRDWIJNSA-N
> <PUBCHEM_XLOGP3_AA>
3
> <PUBCHEM_EXACT_MASS>
304.17869263
> <PUBCHEM_MOLECULAR_FORMULA>
C17H24N2O3
> <PUBCHEM_MOLECULAR_WEIGHT>
304.4
> <PUBCHEM_OPENEYE_CAN_SMILES>
CC1CCCC2N1CCC(C2)NC(=O)C3=C(C(=CC=C3)O)O
> <PUBCHEM_OPENEYE_ISO_SMILES>
C[C@@H]1CCC[C@H]2N1CC[C@@H](C2)NC(=O)C3=C(C(=CC=C3)O)O
> <PUBCHEM_CACTVS_TPSA>
72.8
> <PUBCHEM_MONOISOTOPIC_WEIGHT>
304.17869263
> <PUBCHEM_TOTAL_CHARGE>
0
> <PUBCHEM_HEAVY_ATOM_COUNT>
22
> <PUBCHEM_ATOM_DEF_STEREO_COUNT>
3
> <PUBCHEM_ATOM_UDEF_STEREO_COUNT>
0
> <PUBCHEM_BOND_DEF_STEREO_COUNT>
0
> <PUBCHEM_BOND_UDEF_STEREO_COUNT>
0
> <PUBCHEM_ISOTOPIC_ATOM_COUNT>
0
> <PUBCHEM_COMPONENT_COUNT>
1
> <PUBCHEM_CACTVS_TAUTO_COUNT>
-1
> <PUBCHEM_COORDINATE_TYPE>
1
5
255
> <PUBCHEM_BONDANNOTATIONS>
17  18  8
17  19  8
18  20  8
19  21  8
20  22  8
21  22  8
10  5  6
6  23  6
7  15  5
$$$$
