505917
  -OEChem-10302200282D
 43 43  0     1  0  0  0  0  0999 V2000
    4.5698    1.8984    0.0000 S   0  0  0  0  0  0  0  0  0  0  0  0
    3.0377    3.1840    0.0000 F   0  0  0  0  0  0  0  0  0  0  0  0
    4.4465    3.3073    0.0000 F   0  0  0  0  0  0  0  0  0  0  0  0
    2.8640    2.1992    0.0000 F   0  0  0  0  0  0  0  0  0  0  0  0
    5.1350   -1.3073    0.0000 O   0  0  0  0  0  0  0  0  0  0  0  0
    6.4618    0.8061    0.0000 O   0  0  0  0  0  0  0  0  0  0  0  0
    6.4206   -1.8394    0.0000 O   0  0  0  0  0  0  0  0  0  0  0  0
    8.3902   -1.4921    0.0000 O   0  0  0  0  0  0  0  0  0  0  0  0
    5.2125    2.6645    0.0000 O   0  0  0  0  0  0  0  0  0  0  0  0
    5.3358    1.2557    0.0000 O   0  0  0  0  0  0  0  0  0  0  0  0
    3.9270    1.1324    0.0000 N   0  0  0  0  0  0  0  0  0  0  0  0
    2.5369    0.1927    0.0000 N   0  0  0  0  0  0  0  0  0  0  0  0
    4.2690    0.1927    0.0000 C   0  0  1  0  0  0  0  0  0  0  0  0
    5.1350   -0.3073    0.0000 C   0  0  2  0  0  0  0  0  0  0  0  0
    3.4030   -0.3073    0.0000 C   0  0  2  0  0  0  0  0  0  0  0  0
    6.1198   -0.1336    0.0000 C   0  0  1  0  0  0  0  0  0  0  0  0
    6.7626   -0.8997    0.0000 C   0  0  1  0  0  0  0  0  0  0  0  0
    3.4030   -1.3073    0.0000 C   0  0  0  0  0  0  0  0  0  0  0  0
    4.2690   -1.8073    0.0000 C   0  0  0  0  0  0  0  0  0  0  0  0
    7.7474   -0.7260    0.0000 C   0  0  0  0  0  0  0  0  0  0  0  0
    4.2690   -2.8073    0.0000 C   0  0  0  0  0  0  0  0  0  0  0  0
    3.8037    2.5412    0.0000 C   0  0  0  0  0  0  0  0  0  0  0  0
    3.4030   -3.3073    0.0000 C   0  0  0  0  0  0  0  0  0  0  0  0
    5.1350   -3.3073    0.0000 C   0  0  0  0  0  0  0  0  0  0  0  0
    4.7439    0.5912    0.0000 H   0  0  0  0  0  0  0  0  0  0  0  0
    5.7862   -0.8537    0.0000 H   0  0  0  0  0  0  0  0  0  0  0  0
    3.4030    0.3127    0.0000 H   0  0  0  0  0  0  0  0  0  0  0  0
    6.7304   -0.0260    0.0000 H   0  0  0  0  0  0  0  0  0  0  0  0
    3.3164    1.2401    0.0000 H   0  0  0  0  0  0  0  0  0  0  0  0
    6.1520   -1.0073    0.0000 H   0  0  0  0  0  0  0  0  0  0  0  0
    2.8660   -1.6173    0.0000 H   0  0  0  0  0  0  0  0  0  0  0  0
    2.0000   -0.1173    0.0000 H   0  0  0  0  0  0  0  0  0  0  0  0
    2.5369    0.8127    0.0000 H   0  0  0  0  0  0  0  0  0  0  0  0
    8.2844   -0.4160    0.0000 H   0  0  0  0  0  0  0  0  0  0  0  0
    7.5354   -0.1434    0.0000 H   0  0  0  0  0  0  0  0  0  0  0  0
    7.0724    0.9137    0.0000 H   0  0  0  0  0  0  0  0  0  0  0  0
    6.8191   -2.3143    0.0000 H   0  0  0  0  0  0  0  0  0  0  0  0
    3.0930   -2.7704    0.0000 H   0  0  0  0  0  0  0  0  0  0  0  0
    2.8660   -3.6173    0.0000 H   0  0  0  0  0  0  0  0  0  0  0  0
    3.7130   -3.8442    0.0000 H   0  0  0  0  0  0  0  0  0  0  0  0
    9.0008   -1.3844    0.0000 H   0  0  0  0  0  0  0  0  0  0  0  0
    5.1350   -3.9273    0.0000 H   0  0  0  0  0  0  0  0  0  0  0  0
    5.6720   -2.9973    0.0000 H   0  0  0  0  0  0  0  0  0  0  0  0
  1  9  2  0  0  0  0
  1 10  2  0  0  0  0
  1 11  1  0  0  0  0
  1 22  1  0  0  0  0
  2 22  1  0  0  0  0
  3 22  1  0  0  0  0
  4 22  1  0  0  0  0
  5 14  1  0  0  0  0
  5 19  1  0  0  0  0
 16  6  1  6  0  0  0
  6 36  1  0  0  0  0
 17  7  1  1  0  0  0
  7 37  1  0  0  0  0
  8 20  1  0  0  0  0
  8 41  1  0  0  0  0
 13 11  1  1  0  0  0
 11 29  1  0  0  0  0
 15 12  1  6  0  0  0
 12 32  1  0  0  0  0
 12 33  1  0  0  0  0
 13 14  1  0  0  0  0
 13 15  1  0  0  0  0
 13 25  1  0  0  0  0
 14 16  1  0  0  0  0
 14 26  1  1  0  0  0
 15 18  1  0  0  0  0
 15 27  1  0  0  0  0
 16 17  1  0  0  0  0
 16 28  1  0  0  0  0
 17 20  1  0  0  0  0
 17 30  1  0  0  0  0
 18 19  2  0  0  0  0
 18 31  1  0  0  0  0
 19 21  1  0  0  0  0
 20 34  1  0  0  0  0
 20 35  1  0  0  0  0
 21 23  1  0  0  0  0
 21 24  2  0  0  0  0
 23 38  1  0  0  0  0
 23 39  1  0  0  0  0
 23 40  1  0  0  0  0
 24 42  1  0  0  0  0
 24 43  1  0  0  0  0
M  END
> <PUBCHEM_COMPOUND_CID>
505917
> <PUBCHEM_COMPOUND_CANONICALIZED>
1
> <PUBCHEM_CACTVS_COMPLEXITY>
601
> <PUBCHEM_CACTVS_HBOND_ACCEPTOR>
11
> <PUBCHEM_CACTVS_HBOND_DONOR>
5
> <PUBCHEM_CACTVS_ROTATABLE_BOND>
6
> <PUBCHEM_CACTVS_SUBSKEYS>
AAADceBzOYBAAAAAAAAAAAAAAAAAAAAAAAAgAAAAAAAAAAAAAAAAHwQQSAAADDzhgBYCAABABgKAAiBCAHCACAAgIAAACIAAAAgLVAIAoQADQAAHkAALoAPw0CEAAAAAAAAAAAAAAAAAAAAAAAAAAAAAAA==
> <PUBCHEM_IUPAC_OPENEYE_NAME>
N-[(2R,3R,4S)-4-amino-6-isopropenyl-2-[(1R,2R)-1,2,3-trihydroxypropyl]-3,4-dihydro-2H-pyran-3-yl]-1,1,1-trifluoro-methanesulfonamide
> <PUBCHEM_IUPAC_CAS_NAME>
N-[(2R,3R,4S)-4-amino-6-(1-methylethenyl)-2-[(1R,2R)-1,2,3-trihydroxypropyl]-3,4-dihydro-2H-pyran-3-yl]-1,1,1-trifluoromethanesulfonamide
> <PUBCHEM_IUPAC_NAME_MARKUP>
<I>N</I>-[(2<I>R</I>,3<I>R</I>,4<I>S</I>)-4-amino-6-prop-1-en-2-yl-2-[(1<I>R</I>,2<I>R</I>)-1,2,3-trihydroxypropyl]-3,4-dihydro-2<I>H</I>-pyran-3-yl]-1,1,1-trifluoromethanesulfonamide
> <PUBCHEM_IUPAC_NAME>
N-[(2R,3R,4S)-4-amino-6-prop-1-en-2-yl-2-[(1R,2R)-1,2,3-trihydroxypropyl]-3,4-dihydro-2H-pyran-3-yl]-1,1,1-trifluoromethanesulfonamide
> <PUBCHEM_IUPAC_SYSTEMATIC_NAME>
N-[(2R,3R,4S)-4-azanyl-6-prop-1-en-2-yl-2-[(1R,2R)-1,2,3-tris(oxidanyl)propyl]-3,4-dihydro-2H-pyran-3-yl]-1,1,1-tris(fluoranyl)methanesulfonamide
> <PUBCHEM_IUPAC_TRADITIONAL_NAME>
N-[(2R,3R,4S)-4-amino-6-isopropenyl-2-[(1R,2R)-1,2,3-trihydroxypropyl]-3,4-dihydro-2H-pyran-3-yl]-1,1,1-trifluoro-methanesulfonamide
> <PUBCHEM_IUPAC_INCHI>
InChI=1S/C12H19F3N2O6S/c1-5(2)8-3-6(16)9(17-24(21,22)12(13,14)15)11(23-8)10(20)7(19)4-18/h3,6-7,9-11,17-20H,1,4,16H2,2H3/t6-,7+,9+,10+,11+/m0/s1
> <PUBCHEM_IUPAC_INCHIKEY>
RPPBURKRBRFTMI-CNYIRLTGSA-N
> <PUBCHEM_XLOGP3_AA>
-0.1
> <PUBCHEM_EXACT_MASS>
376.09159199
> <PUBCHEM_MOLECULAR_FORMULA>
C12H19F3N2O6S
> <PUBCHEM_MOLECULAR_WEIGHT>
376.35
> <PUBCHEM_OPENEYE_CAN_SMILES>
CC(=C)C1=CC(C(C(O1)C(C(CO)O)O)NS(=O)(=O)C(F)(F)F)N
> <PUBCHEM_OPENEYE_ISO_SMILES>
CC(=C)C1=C[C@@H]([C@H]([C@@H](O1)[C@@H]([C@@H](CO)O)O)NS(=O)(=O)C(F)(F)F)N
> <PUBCHEM_CACTVS_TPSA>
151
> <PUBCHEM_MONOISOTOPIC_WEIGHT>
376.09159199
> <PUBCHEM_TOTAL_CHARGE>
0
> <PUBCHEM_HEAVY_ATOM_COUNT>
24
> <PUBCHEM_ATOM_DEF_STEREO_COUNT>
5
> <PUBCHEM_ATOM_UDEF_STEREO_COUNT>
0
> <PUBCHEM_BOND_DEF_STEREO_COUNT>
0
> <PUBCHEM_BOND_UDEF_STEREO_COUNT>
0
> <PUBCHEM_ISOTOPIC_ATOM_COUNT>
0
> <PUBCHEM_COMPONENT_COUNT>
1
> <PUBCHEM_CACTVS_TAUTO_COUNT>
-1
> <PUBCHEM_COORDINATE_TYPE>
1
5
255
> <PUBCHEM_BONDANNOTATIONS>
13  11  5
15  12  6
14  26  5
16  6  6
17  7  5
$$$$
