505918
  -OEChem-10302200282D
 36 36  0     1  0  0  0  0  0999 V2000
    6.0010    0.8100    0.0000 O   0  0  0  0  0  0  0  0  0  0  0  0
    3.4030   -2.6900    0.0000 O   0  0  0  0  0  0  0  0  0  0  0  0
    7.7331    0.8100    0.0000 O   0  0  0  0  0  0  0  0  0  0  0  0
    5.1350   -2.6900    0.0000 O   0  0  0  0  0  0  0  0  0  0  0  0
    6.0010    1.8100    0.0000 O   0  0  0  0  0  0  0  0  0  0  0  0
    4.2690    1.8100    0.0000 N   0  0  0  0  0  0  0  0  0  0  0  0
    2.5369    0.8100    0.0000 N   0  0  0  0  0  0  0  0  0  0  0  0
    4.2690    0.8100    0.0000 C   0  0  2  0  0  0  0  0  0  0  0  0
    3.4030    0.3100    0.0000 C   0  0  2  0  0  0  0  0  0  0  0  0
    5.1350    0.3100    0.0000 C   0  0  1  0  0  0  0  0  0  0  0  0
    3.4030   -0.6900    0.0000 C   0  0  0  0  0  0  0  0  0  0  0  0
    4.2690   -1.1900    0.0000 C   0  0  0  0  0  0  0  0  0  0  0  0
    5.1350   -0.6900    0.0000 C   0  0  0  0  0  0  0  0  0  0  0  0
    4.2690   -2.1900    0.0000 C   0  0  0  0  0  0  0  0  0  0  0  0
    5.1350    2.3100    0.0000 C   0  0  0  0  0  0  0  0  0  0  0  0
    6.8671    0.3100    0.0000 C   0  0  0  0  0  0  0  0  0  0  0  0
    5.1350    3.3100    0.0000 C   0  0  0  0  0  0  0  0  0  0  0  0
    8.5991    0.3100    0.0000 C   0  0  0  0  0  0  0  0  0  0  0  0
    4.8059    1.1200    0.0000 H   0  0  0  0  0  0  0  0  0  0  0  0
    3.4030    0.9300    0.0000 H   0  0  0  0  0  0  0  0  0  0  0  0
    5.6720   -0.0000    0.0000 H   0  0  0  0  0  0  0  0  0  0  0  0
    2.7924   -0.5823    0.0000 H   0  0  0  0  0  0  0  0  0  0  0  0
    3.1909   -1.2726    0.0000 H   0  0  0  0  0  0  0  0  0  0  0  0
    5.6720   -1.0000    0.0000 H   0  0  0  0  0  0  0  0  0  0  0  0
    3.7320    2.1200    0.0000 H   0  0  0  0  0  0  0  0  0  0  0  0
    2.0000    0.5000    0.0000 H   0  0  0  0  0  0  0  0  0  0  0  0
    2.5369    1.4300    0.0000 H   0  0  0  0  0  0  0  0  0  0  0  0
    6.4685   -0.1649    0.0000 H   0  0  0  0  0  0  0  0  0  0  0  0
    7.2656   -0.1649    0.0000 H   0  0  0  0  0  0  0  0  0  0  0  0
    5.7550    3.3100    0.0000 H   0  0  0  0  0  0  0  0  0  0  0  0
    5.1350    3.9300    0.0000 H   0  0  0  0  0  0  0  0  0  0  0  0
    4.5150    3.3100    0.0000 H   0  0  0  0  0  0  0  0  0  0  0  0
    3.4030   -3.3100    0.0000 H   0  0  0  0  0  0  0  0  0  0  0  0
    8.2891   -0.2269    0.0000 H   0  0  0  0  0  0  0  0  0  0  0  0
    9.1360    0.0000    0.0000 H   0  0  0  0  0  0  0  0  0  0  0  0
    8.9091    0.8469    0.0000 H   0  0  0  0  0  0  0  0  0  0  0  0
 10  1  1  6  0  0  0
  1 16  1  0  0  0  0
  2 14  1  0  0  0  0
  2 33  1  0  0  0  0
  3 16  1  0  0  0  0
  3 18  1  0  0  0  0
  4 14  2  0  0  0  0
  5 15  2  0  0  0  0
  8  6  1  1  0  0  0
  6 15  1  0  0  0  0
  6 25  1  0  0  0  0
  9  7  1  6  0  0  0
  7 26  1  0  0  0  0
  7 27  1  0  0  0  0
  8  9  1  0  0  0  0
  8 10  1  0  0  0  0
  8 19  1  0  0  0  0
  9 11  1  0  0  0  0
  9 20  1  0  0  0  0
 10 13  1  0  0  0  0
 10 21  1  0  0  0  0
 11 12  1  0  0  0  0
 11 22  1  0  0  0  0
 11 23  1  0  0  0  0
 12 13  2  0  0  0  0
 12 14  1  0  0  0  0
 13 24  1  0  0  0  0
 15 17  1  0  0  0  0
 16 28  1  0  0  0  0
 16 29  1  0  0  0  0
 17 30  1  0  0  0  0
 17 31  1  0  0  0  0
 17 32  1  0  0  0  0
 18 34  1  0  0  0  0
 18 35  1  0  0  0  0
 18 36  1  0  0  0  0
M  END
> <PUBCHEM_COMPOUND_CID>
505918
> <PUBCHEM_COMPOUND_CANONICALIZED>
1
> <PUBCHEM_CACTVS_COMPLEXITY>
355
> <PUBCHEM_CACTVS_HBOND_ACCEPTOR>
6
> <PUBCHEM_CACTVS_HBOND_DONOR>
3
> <PUBCHEM_CACTVS_ROTATABLE_BOND>
5
> <PUBCHEM_CACTVS_SUBSKEYS>
AAADceBzOAAAAAAAAAAAAAAAAAAAAAAAAAAgAAAAAAAAAAAAAAAAHgAQCAAADDzhgAcCCALABgCIAiHSGAAAAAAgAAAACIEIAEgSRBIAoQA1UAAGlgCcMYO82SOQAAAAAAAAAAAAAAAAAAAAAAAAAAAAAA==
> <PUBCHEM_IUPAC_OPENEYE_NAME>
(3R,4R,5S)-4-acetamido-5-amino-3-(methoxymethoxy)cyclohexene-1-carboxylic acid
> <PUBCHEM_IUPAC_CAS_NAME>
(3R,4R,5S)-4-acetamido-5-amino-3-(methoxymethoxy)-1-cyclohexenecarboxylic acid
> <PUBCHEM_IUPAC_NAME_MARKUP>
(3<I>R</I>,4<I>R</I>,5<I>S</I>)-4-acetamido-5-amino-3-(methoxymethoxy)cyclohexene-1-carboxylic acid
> <PUBCHEM_IUPAC_NAME>
(3R,4R,5S)-4-acetamido-5-amino-3-(methoxymethoxy)cyclohexene-1-carboxylic acid
> <PUBCHEM_IUPAC_SYSTEMATIC_NAME>
(3R,4R,5S)-4-acetamido-5-azanyl-3-(methoxymethoxy)cyclohexene-1-carboxylic acid
> <PUBCHEM_IUPAC_TRADITIONAL_NAME>
(3R,4R,5S)-4-acetamido-5-amino-3-(methoxymethoxy)cyclohexene-1-carboxylic acid
> <PUBCHEM_IUPAC_INCHI>
InChI=1S/C11H18N2O5/c1-6(14)13-10-8(12)3-7(11(15)16)4-9(10)18-5-17-2/h4,8-10H,3,5,12H2,1-2H3,(H,13,14)(H,15,16)/t8-,9+,10+/m0/s1
> <PUBCHEM_IUPAC_INCHIKEY>
QQJHJEFLKIICMG-IVZWLZJFSA-N
> <PUBCHEM_XLOGP3_AA>
-3.8
> <PUBCHEM_EXACT_MASS>
258.12157168
> <PUBCHEM_MOLECULAR_FORMULA>
C11H18N2O5
> <PUBCHEM_MOLECULAR_WEIGHT>
258.27
> <PUBCHEM_OPENEYE_CAN_SMILES>
CC(=O)NC1C(CC(=CC1OCOC)C(=O)O)N
> <PUBCHEM_OPENEYE_ISO_SMILES>
CC(=O)N[C@@H]1[C@H](CC(=C[C@H]1OCOC)C(=O)O)N
> <PUBCHEM_CACTVS_TPSA>
111
> <PUBCHEM_MONOISOTOPIC_WEIGHT>
258.12157168
> <PUBCHEM_TOTAL_CHARGE>
0
> <PUBCHEM_HEAVY_ATOM_COUNT>
18
> <PUBCHEM_ATOM_DEF_STEREO_COUNT>
3
> <PUBCHEM_ATOM_UDEF_STEREO_COUNT>
0
> <PUBCHEM_BOND_DEF_STEREO_COUNT>
0
> <PUBCHEM_BOND_UDEF_STEREO_COUNT>
0
> <PUBCHEM_ISOTOPIC_ATOM_COUNT>
0
> <PUBCHEM_COMPONENT_COUNT>
1
> <PUBCHEM_CACTVS_TAUTO_COUNT>
-1
> <PUBCHEM_COORDINATE_TYPE>
1
5
255
> <PUBCHEM_BONDANNOTATIONS>
10  1  6
8  6  5
9  7  6
$$$$
