505968
  -OEChem-10302200282D
 57 60  0     1  0  0  0  0  0999 V2000
    8.0622   -1.0427    0.0000 O   0  0  0  0  0  0  0  0  0  0  0  0
    8.0622    1.9573    0.0000 O   0  0  0  0  0  0  0  0  0  0  0  0
    4.5981   -1.0427    0.0000 O   0  0  0  0  0  0  0  0  0  0  0  0
   11.5263   -1.0427    0.0000 N   0  0  3  0  0  0  0  0  0  0  0  0
    8.9282    0.4573    0.0000 N   0  0  0  0  0  0  0  0  0  0  0  0
   11.5263   -0.0427    0.0000 C   0  0  1  0  0  0  0  0  0  0  0  0
   12.4202   -1.5774    0.0000 C   0  0  1  0  0  0  0  0  0  0  0  0
   10.6603    0.4573    0.0000 C   0  0  0  0  0  0  0  0  0  0  0  0
   12.4202    0.4920    0.0000 C   0  0  0  0  0  0  0  0  0  0  0  0
    9.7942   -0.0427    0.0000 C   0  0  2  0  0  0  0  0  0  0  0  0
   10.6603   -1.5427    0.0000 C   0  0  0  0  0  0  0  0  0  0  0  0
   13.3263   -1.0635    0.0000 C   0  0  0  0  0  0  0  0  0  0  0  0
    9.7942   -1.0427    0.0000 C   0  0  0  0  0  0  0  0  0  0  0  0
   13.3263   -0.0219    0.0000 C   0  0  0  0  0  0  0  0  0  0  0  0
   12.4087   -2.5773    0.0000 C   0  0  0  0  0  0  0  0  0  0  0  0
    8.0622   -0.0427    0.0000 C   0  0  0  0  0  0  0  0  0  0  0  0
    7.1962    0.4573    0.0000 C   0  0  0  0  0  0  0  0  0  0  0  0
    6.3301   -0.0427    0.0000 C   0  0  0  0  0  0  0  0  0  0  0  0
    7.1962    1.4573    0.0000 C   0  0  0  0  0  0  0  0  0  0  0  0
    5.4641    0.4573    0.0000 C   0  0  0  0  0  0  0  0  0  0  0  0
    6.3301    1.9573    0.0000 C   0  0  0  0  0  0  0  0  0  0  0  0
    5.4641    1.4573    0.0000 C   0  0  0  0  0  0  0  0  0  0  0  0
    4.5981   -0.0427    0.0000 C   0  0  0  0  0  0  0  0  0  0  0  0
    3.7320    0.4573    0.0000 C   0  0  0  0  0  0  0  0  0  0  0  0
    2.8660   -0.0427    0.0000 C   0  0  0  0  0  0  0  0  0  0  0  0
    3.7320    1.4573    0.0000 C   0  0  0  0  0  0  0  0  0  0  0  0
    2.0000    0.4573    0.0000 C   0  0  0  0  0  0  0  0  0  0  0  0
    2.8660    1.9573    0.0000 C   0  0  0  0  0  0  0  0  0  0  0  0
    2.0000    1.4573    0.0000 C   0  0  0  0  0  0  0  0  0  0  0  0
   11.5197    0.8073    0.0000 H   0  0  0  0  0  0  0  0  0  0  0  0
   11.8792   -1.8801    0.0000 H   0  0  0  0  0  0  0  0  0  0  0  0
   11.0588    0.9322    0.0000 H   0  0  0  0  0  0  0  0  0  0  0  0
   10.2617    0.9322    0.0000 H   0  0  0  0  0  0  0  0  0  0  0  0
   12.8138    0.9710    0.0000 H   0  0  0  0  0  0  0  0  0  0  0  0
   12.0156    0.9617    0.0000 H   0  0  0  0  0  0  0  0  0  0  0  0
    9.2573   -0.3527    0.0000 H   0  0  0  0  0  0  0  0  0  0  0  0
   10.2617   -2.0176    0.0000 H   0  0  0  0  0  0  0  0  0  0  0  0
   11.0588   -2.0176    0.0000 H   0  0  0  0  0  0  0  0  0  0  0  0
   13.5353   -1.6472    0.0000 H   0  0  0  0  0  0  0  0  0  0  0  0
   13.9371   -0.9574    0.0000 H   0  0  0  0  0  0  0  0  0  0  0  0
    9.1836   -0.9350    0.0000 H   0  0  0  0  0  0  0  0  0  0  0  0
    9.5822   -1.6253    0.0000 H   0  0  0  0  0  0  0  0  0  0  0  0
   13.9371   -0.1280    0.0000 H   0  0  0  0  0  0  0  0  0  0  0  0
   13.5353    0.5618    0.0000 H   0  0  0  0  0  0  0  0  0  0  0  0
   11.7887   -2.5701    0.0000 H   0  0  0  0  0  0  0  0  0  0  0  0
   12.4015   -3.1973    0.0000 H   0  0  0  0  0  0  0  0  0  0  0  0
   13.0286   -2.5845    0.0000 H   0  0  0  0  0  0  0  0  0  0  0  0
    8.9282    1.0773    0.0000 H   0  0  0  0  0  0  0  0  0  0  0  0
    6.3301   -0.6627    0.0000 H   0  0  0  0  0  0  0  0  0  0  0  0
    6.3301    2.5773    0.0000 H   0  0  0  0  0  0  0  0  0  0  0  0
    4.9272    1.7673    0.0000 H   0  0  0  0  0  0  0  0  0  0  0  0
    8.0622    2.5773    0.0000 H   0  0  0  0  0  0  0  0  0  0  0  0
    2.8660   -0.6627    0.0000 H   0  0  0  0  0  0  0  0  0  0  0  0
    4.2690    1.7673    0.0000 H   0  0  0  0  0  0  0  0  0  0  0  0
    1.4631    0.1473    0.0000 H   0  0  0  0  0  0  0  0  0  0  0  0
    2.8660    2.5773    0.0000 H   0  0  0  0  0  0  0  0  0  0  0  0
    1.4631    1.7673    0.0000 H   0  0  0  0  0  0  0  0  0  0  0  0
  1 16  2  0  0  0  0
  2 19  1  0  0  0  0
  2 52  1  0  0  0  0
  3 23  2  0  0  0  0
  4  6  1  0  0  0  0
  4  7  1  0  0  0  0
  4 11  1  0  0  0  0
 10  5  1  6  0  0  0
  5 16  1  0  0  0  0
  5 48  1  0  0  0  0
  6  8  1  0  0  0  0
  6  9  1  0  0  0  0
  6 30  1  6  0  0  0
  7 12  1  0  0  0  0
  7 15  1  1  0  0  0
  7 31  1  0  0  0  0
  8 10  1  0  0  0  0
  8 32  1  0  0  0  0
  8 33  1  0  0  0  0
  9 14  1  0  0  0  0
  9 34  1  0  0  0  0
  9 35  1  0  0  0  0
 10 13  1  0  0  0  0
 10 36  1  0  0  0  0
 11 13  1  0  0  0  0
 11 37  1  0  0  0  0
 11 38  1  0  0  0  0
 12 14  1  0  0  0  0
 12 39  1  0  0  0  0
 12 40  1  0  0  0  0
 13 41  1  0  0  0  0
 13 42  1  0  0  0  0
 14 43  1  0  0  0  0
 14 44  1  0  0  0  0
 15 45  1  0  0  0  0
 15 46  1  0  0  0  0
 15 47  1  0  0  0  0
 16 17  1  0  0  0  0
 17 18  1  0  0  0  0
 17 19  2  0  0  0  0
 18 20  2  0  0  0  0
 18 49  1  0  0  0  0
 19 21  1  0  0  0  0
 20 22  1  0  0  0  0
 20 23  1  0  0  0  0
 21 22  2  0  0  0  0
 21 50  1  0  0  0  0
 22 51  1  0  0  0  0
 23 24  1  0  0  0  0
 24 25  2  0  0  0  0
 24 26  1  0  0  0  0
 25 27  1  0  0  0  0
 25 53  1  0  0  0  0
 26 28  2  0  0  0  0
 26 54  1  0  0  0  0
 27 29  2  0  0  0  0
 27 55  1  0  0  0  0
 28 29  1  0  0  0  0
 28 56  1  0  0  0  0
 29 57  1  0  0  0  0
M  END
> <PUBCHEM_COMPOUND_CID>
505968
> <PUBCHEM_COMPOUND_CANONICALIZED>
1
> <PUBCHEM_CACTVS_COMPLEXITY>
589
> <PUBCHEM_CACTVS_HBOND_ACCEPTOR>
4
> <PUBCHEM_CACTVS_HBOND_DONOR>
2
> <PUBCHEM_CACTVS_ROTATABLE_BOND>
4
> <PUBCHEM_CACTVS_SUBSKEYS>
AAADceB7MAAAAAAAAAAAAAAAAAAAAAAAAAA8eIEAAAAAAACxQAAAHgAQCAAADCzBmAQyBoPAAgCIAqFSEACCAAAkIAAIiIEODMgIJjaC1ROEcUhm9hGImYeYz+DuIAACAAAIAABAAAQAABAAAAAAAAAAAA==
> <PUBCHEM_IUPAC_OPENEYE_NAME>
N-[(2S,6R,9aR)-6-methyl-2,3,4,6,7,8,9,9a-octahydro-1H-quinolizin-2-yl]-5-benzoyl-2-hydroxy-benzamide
> <PUBCHEM_IUPAC_CAS_NAME>
N-[(2S,6R,9aR)-6-methyl-2,3,4,6,7,8,9,9a-octahydro-1H-quinolizin-2-yl]-5-benzoyl-2-hydroxybenzamide
> <PUBCHEM_IUPAC_NAME_MARKUP>
<I>N</I>-[(2<I>S</I>,6<I>R</I>,9<I>a</I><I>R</I>)-6-methyl-2,3,4,6,7,8,9,9<I>a</I>-octahydro-1<I>H</I>-quinolizin-2-yl]-5-benzoyl-2-hydroxybenzamide
> <PUBCHEM_IUPAC_NAME>
N-[(2S,6R,9aR)-6-methyl-2,3,4,6,7,8,9,9a-octahydro-1H-quinolizin-2-yl]-5-benzoyl-2-hydroxybenzamide
> <PUBCHEM_IUPAC_SYSTEMATIC_NAME>
N-[(2S,6R,9aR)-6-methyl-2,3,4,6,7,8,9,9a-octahydro-1H-quinolizin-2-yl]-2-oxidanyl-5-(phenylcarbonyl)benzamide
> <PUBCHEM_IUPAC_TRADITIONAL_NAME>
N-[(2S,6R,9aR)-6-methylquinolizidin-2-yl]-5-benzoyl-2-hydroxy-benzamide
> <PUBCHEM_IUPAC_INCHI>
InChI=1S/C24H28N2O3/c1-16-6-5-9-20-15-19(12-13-26(16)20)25-24(29)21-14-18(10-11-22(21)27)23(28)17-7-3-2-4-8-17/h2-4,7-8,10-11,14,16,19-20,27H,5-6,9,12-13,15H2,1H3,(H,25,29)/t16-,19+,20-/m1/s1
> <PUBCHEM_IUPAC_INCHIKEY>
PGAHCGJSMFJREF-LSTHTHJFSA-N
> <PUBCHEM_XLOGP3_AA>
4.7
> <PUBCHEM_EXACT_MASS>
392.20999276
> <PUBCHEM_MOLECULAR_FORMULA>
C24H28N2O3
> <PUBCHEM_MOLECULAR_WEIGHT>
392.5
> <PUBCHEM_OPENEYE_CAN_SMILES>
CC1CCCC2N1CCC(C2)NC(=O)C3=C(C=CC(=C3)C(=O)C4=CC=CC=C4)O
> <PUBCHEM_OPENEYE_ISO_SMILES>
C[C@@H]1CCC[C@H]2N1CC[C@@H](C2)NC(=O)C3=C(C=CC(=C3)C(=O)C4=CC=CC=C4)O
> <PUBCHEM_CACTVS_TPSA>
69.6
> <PUBCHEM_MONOISOTOPIC_WEIGHT>
392.20999276
> <PUBCHEM_TOTAL_CHARGE>
0
> <PUBCHEM_HEAVY_ATOM_COUNT>
29
> <PUBCHEM_ATOM_DEF_STEREO_COUNT>
3
> <PUBCHEM_ATOM_UDEF_STEREO_COUNT>
0
> <PUBCHEM_BOND_DEF_STEREO_COUNT>
0
> <PUBCHEM_BOND_UDEF_STEREO_COUNT>
0
> <PUBCHEM_ISOTOPIC_ATOM_COUNT>
0
> <PUBCHEM_COMPONENT_COUNT>
1
> <PUBCHEM_CACTVS_TAUTO_COUNT>
-1
> <PUBCHEM_COORDINATE_TYPE>
1
5
255
> <PUBCHEM_BONDANNOTATIONS>
17  18  8
17  19  8
18  20  8
19  21  8
20  22  8
21  22  8
24  25  8
24  26  8
25  27  8
26  28  8
27  29  8
28  29  8
10  5  6
6  30  6
7  15  5
$$$$
