505925
  -OEChem-10302200282D
 41 41  0     1  0  0  0  0  0999 V2000
    7.7331    0.8100    0.0000 O   0  0  0  0  0  0  0  0  0  0  0  0
    6.8671   -2.6900    0.0000 O   0  0  0  0  0  0  0  0  0  0  0  0
    5.1350   -2.6900    0.0000 O   0  0  0  0  0  0  0  0  0  0  0  0
    7.7331    1.8100    0.0000 O   0  0  0  0  0  0  0  0  0  0  0  0
    6.0010    1.8100    0.0000 N   0  0  0  0  0  0  0  0  0  0  0  0
    4.2690    0.8100    0.0000 N   0  0  0  0  0  0  0  0  0  0  0  0
    2.5369    0.8100    0.0000 N   0  0  0  0  0  0  0  0  0  0  0  0
    6.0010    0.8100    0.0000 C   0  0  2  0  0  0  0  0  0  0  0  0
    5.1350    0.3100    0.0000 C   0  0  2  0  0  0  0  0  0  0  0  0
    6.8671    0.3100    0.0000 C   0  0  1  0  0  0  0  0  0  0  0  0
    5.1350   -0.6900    0.0000 C   0  0  0  0  0  0  0  0  0  0  0  0
    6.8671   -0.6900    0.0000 C   0  0  0  0  0  0  0  0  0  0  0  0
    6.0010   -1.1900    0.0000 C   0  0  0  0  0  0  0  0  0  0  0  0
    8.5991    0.3100    0.0000 C   0  0  0  0  0  0  0  0  0  0  0  0
    6.0010   -2.1900    0.0000 C   0  0  0  0  0  0  0  0  0  0  0  0
    6.8671    2.3100    0.0000 C   0  0  0  0  0  0  0  0  0  0  0  0
    9.4651    0.8100    0.0000 C   0  0  0  0  0  0  0  0  0  0  0  0
    3.4030    0.3100    0.0000 C   0  0  0  0  0  0  0  0  0  0  0  0
    6.8671    3.3100    0.0000 C   0  0  0  0  0  0  0  0  0  0  0  0
   10.3312    0.3100    0.0000 C   0  0  0  0  0  0  0  0  0  0  0  0
    6.5380    1.1200    0.0000 H   0  0  0  0  0  0  0  0  0  0  0  0
    5.1350    0.9300    0.0000 H   0  0  0  0  0  0  0  0  0  0  0  0
    7.4040   -0.0000    0.0000 H   0  0  0  0  0  0  0  0  0  0  0  0
    4.5244   -0.5823    0.0000 H   0  0  0  0  0  0  0  0  0  0  0  0
    4.9230   -1.2726    0.0000 H   0  0  0  0  0  0  0  0  0  0  0  0
    7.4040   -1.0000    0.0000 H   0  0  0  0  0  0  0  0  0  0  0  0
    5.4641    2.1200    0.0000 H   0  0  0  0  0  0  0  0  0  0  0  0
    8.2006   -0.1649    0.0000 H   0  0  0  0  0  0  0  0  0  0  0  0
    8.9976   -0.1649    0.0000 H   0  0  0  0  0  0  0  0  0  0  0  0
    9.8637    1.2850    0.0000 H   0  0  0  0  0  0  0  0  0  0  0  0
    9.0666    1.2850    0.0000 H   0  0  0  0  0  0  0  0  0  0  0  0
    3.4030   -0.3100    0.0000 H   0  0  0  0  0  0  0  0  0  0  0  0
    7.4871    3.3100    0.0000 H   0  0  0  0  0  0  0  0  0  0  0  0
    6.8671    3.9300    0.0000 H   0  0  0  0  0  0  0  0  0  0  0  0
    6.2471    3.3100    0.0000 H   0  0  0  0  0  0  0  0  0  0  0  0
   10.0212   -0.2269    0.0000 H   0  0  0  0  0  0  0  0  0  0  0  0
   10.8681   -0.0000    0.0000 H   0  0  0  0  0  0  0  0  0  0  0  0
   10.6412    0.8469    0.0000 H   0  0  0  0  0  0  0  0  0  0  0  0
    6.8671   -3.3100    0.0000 H   0  0  0  0  0  0  0  0  0  0  0  0
    2.0000    0.5000    0.0000 H   0  0  0  0  0  0  0  0  0  0  0  0
    2.5369    1.4300    0.0000 H   0  0  0  0  0  0  0  0  0  0  0  0
 10  1  1  6  0  0  0
  1 14  1  0  0  0  0
  2 15  1  0  0  0  0
  2 39  1  0  0  0  0
  3 15  2  0  0  0  0
  4 16  2  0  0  0  0
  8  5  1  1  0  0  0
  5 16  1  0  0  0  0
  5 27  1  0  0  0  0
  9  6  1  6  0  0  0
  6 18  2  0  0  0  0
  7 18  1  0  0  0  0
  7 40  1  0  0  0  0
  7 41  1  0  0  0  0
  8  9  1  0  0  0  0
  8 10  1  0  0  0  0
  8 21  1  0  0  0  0
  9 11  1  0  0  0  0
  9 22  1  0  0  0  0
 10 12  1  0  0  0  0
 10 23  1  0  0  0  0
 11 13  1  0  0  0  0
 11 24  1  0  0  0  0
 11 25  1  0  0  0  0
 12 13  2  0  0  0  0
 12 26  1  0  0  0  0
 13 15  1  0  0  0  0
 14 17  1  0  0  0  0
 14 28  1  0  0  0  0
 14 29  1  0  0  0  0
 16 19  1  0  0  0  0
 17 20  1  0  0  0  0
 17 30  1  0  0  0  0
 17 31  1  0  0  0  0
 18 32  1  0  0  0  0
 19 33  1  0  0  0  0
 19 34  1  0  0  0  0
 19 35  1  0  0  0  0
 20 36  1  0  0  0  0
 20 37  1  0  0  0  0
 20 38  1  0  0  0  0
M  END
> <PUBCHEM_COMPOUND_CID>
505925
> <PUBCHEM_COMPOUND_CANONICALIZED>
1
> <PUBCHEM_CACTVS_COMPLEXITY>
420
> <PUBCHEM_CACTVS_HBOND_ACCEPTOR>
5
> <PUBCHEM_CACTVS_HBOND_DONOR>
3
> <PUBCHEM_CACTVS_ROTATABLE_BOND>
6
> <PUBCHEM_CACTVS_SUBSKEYS>
AAADceBzOAAAAAAAAAAAAAAAAAAAAAAAAAAgAAAAAAAAAAAAAAAAHgAQCAAADDzhgAYDCALABgCoAiHTPAAAAAEgAAAACIEIAEgCRBIAoQAXUAAGlgCYMYO82SOQAAAAAAAAAAAAAAAAAAAAAAAAAAAAAA==
> <PUBCHEM_IUPAC_OPENEYE_NAME>
(3R,4R,5S)-4-acetamido-5-(aminomethyleneamino)-3-propoxy-cyclohexene-1-carboxylic acid
> <PUBCHEM_IUPAC_CAS_NAME>
(3R,4R,5S)-4-acetamido-5-(aminomethylideneamino)-3-propoxy-1-cyclohexenecarboxylic acid
> <PUBCHEM_IUPAC_NAME_MARKUP>
(3<I>R</I>,4<I>R</I>,5<I>S</I>)-4-acetamido-5-(aminomethylideneamino)-3-propoxycyclohexene-1-carboxylic acid
> <PUBCHEM_IUPAC_NAME>
(3R,4R,5S)-4-acetamido-5-(aminomethylideneamino)-3-propoxycyclohexene-1-carboxylic acid
> <PUBCHEM_IUPAC_SYSTEMATIC_NAME>
(3R,4R,5S)-4-acetamido-5-(azanylmethylideneamino)-3-propoxy-cyclohexene-1-carboxylic acid
> <PUBCHEM_IUPAC_TRADITIONAL_NAME>
(3R,4R,5S)-4-acetamido-5-(aminomethyleneamino)-3-propoxy-cyclohexene-1-carboxylic acid
> <PUBCHEM_IUPAC_INCHI>
InChI=1S/C13H21N3O4/c1-3-4-20-11-6-9(13(18)19)5-10(15-7-14)12(11)16-8(2)17/h6-7,10-12H,3-5H2,1-2H3,(H2,14,15)(H,16,17)(H,18,19)/t10-,11+,12+/m0/s1
> <PUBCHEM_IUPAC_INCHIKEY>
UHUIIWFIVBGZEX-QJPTWQEYSA-N
> <PUBCHEM_XLOGP3_AA>
-0.6
> <PUBCHEM_EXACT_MASS>
283.15320616
> <PUBCHEM_MOLECULAR_FORMULA>
C13H21N3O4
> <PUBCHEM_MOLECULAR_WEIGHT>
283.32
> <PUBCHEM_OPENEYE_CAN_SMILES>
CCCOC1C=C(CC(C1NC(=O)C)N=CN)C(=O)O
> <PUBCHEM_OPENEYE_ISO_SMILES>
CCCO[C@@H]1C=C(C[C@@H]([C@H]1NC(=O)C)N=CN)C(=O)O
> <PUBCHEM_CACTVS_TPSA>
114
> <PUBCHEM_MONOISOTOPIC_WEIGHT>
283.15320616
> <PUBCHEM_TOTAL_CHARGE>
0
> <PUBCHEM_HEAVY_ATOM_COUNT>
20
> <PUBCHEM_ATOM_DEF_STEREO_COUNT>
3
> <PUBCHEM_ATOM_UDEF_STEREO_COUNT>
0
> <PUBCHEM_BOND_DEF_STEREO_COUNT>
0
> <PUBCHEM_BOND_UDEF_STEREO_COUNT>
0
> <PUBCHEM_ISOTOPIC_ATOM_COUNT>
0
> <PUBCHEM_COMPONENT_COUNT>
1
> <PUBCHEM_CACTVS_TAUTO_COUNT>
-1
> <PUBCHEM_COORDINATE_TYPE>
1
5
255
> <PUBCHEM_BONDANNOTATIONS>
10  1  6
8  5  5
9  6  6
$$$$
