505900
  -OEChem-10302200282D
 75 77  0     1  0  0  0  0  0999 V2000
    7.1962    0.4159    0.0000 S   0  0  0  0  0  0  0  0  0  0  0  0
    6.3301    0.9159    0.0000 S   0  0  0  0  0  0  0  0  0  0  0  0
   15.9039   -0.6774    0.0000 O   0  0  0  0  0  0  0  0  0  0  0  0
   14.3518   -2.7478    0.0000 O   0  0  0  0  0  0  0  0  0  0  0  0
   14.1244    0.4159    0.0000 O   0  0  0  0  0  0  0  0  0  0  0  0
   16.4798   -3.2001    0.0000 O   0  0  0  0  0  0  0  0  0  0  0  0
   12.3923    0.4159    0.0000 O   0  0  0  0  0  0  0  0  0  0  0  0
   12.3923   -0.5841    0.0000 O   0  0  0  0  0  0  0  0  0  0  0  0
   14.1244    2.4159    0.0000 O   0  0  0  0  0  0  0  0  0  0  0  0
   17.7486   -3.0385    0.0000 O   0  0  0  0  0  0  0  0  0  0  0  0
   12.3923    3.4159    0.0000 O   0  0  0  0  0  0  0  0  0  0  0  0
   20.5511   -1.0024    0.0000 O   0  0  0  0  0  0  0  0  0  0  0  0
   10.6603   -0.5841    0.0000 O   0  0  0  0  0  0  0  0  0  0  0  0
    2.8660    1.9159    0.0000 O   0  0  0  0  0  0  0  0  0  0  0  0
   17.5676   -1.3160    0.0000 N   0  0  0  0  0  0  0  0  0  0  0  0
   19.1499   -2.0205    0.0000 N   0  0  0  0  0  0  0  0  0  0  0  0
   13.2583   -2.0841    0.0000 N   0  0  0  0  0  0  0  0  0  0  0  0
    9.7942    0.9159    0.0000 N   0  0  0  0  0  0  0  0  0  0  0  0
    3.7320    0.4159    0.0000 N   0  0  0  0  0  0  0  0  0  0  0  0
   14.9904   -1.0841    0.0000 C   0  0  1  0  0  0  0  0  0  0  0  0
   15.0949   -2.0786    0.0000 C   0  0  2  0  0  0  0  0  0  0  0  0
   16.0731   -2.2865    0.0000 C   0  0  2  0  0  0  0  0  0  0  0  0
   16.5731   -1.4205    0.0000 C   0  0  1  0  0  0  0  0  0  0  0  0
   14.1244   -0.5841    0.0000 C   0  0  2  0  0  0  0  0  0  0  0  0
   13.2583    0.9159    0.0000 C   0  0  1  0  0  0  0  0  0  0  0  0
   13.2583   -1.0841    0.0000 C   0  0  0  0  0  0  0  0  0  0  0  0
   13.2583    1.9159    0.0000 C   0  0  2  0  0  0  0  0  0  0  0  0
   18.1554   -2.1250    0.0000 C   0  0  0  0  0  0  0  0  0  0  0  0
   17.9743   -0.4024    0.0000 C   0  0  0  0  0  0  0  0  0  0  0  0
   14.5597   -3.7259    0.0000 C   0  0  0  0  0  0  0  0  0  0  0  0
   12.3923    2.4159    0.0000 C   0  0  2  0  0  0  0  0  0  0  0  0
   18.9688   -0.2979    0.0000 C   0  0  0  0  0  0  0  0  0  0  0  0
   11.5263    1.9159    0.0000 C   0  0  0  0  0  0  0  0  0  0  0  0
   11.5263    0.9159    0.0000 C   0  0  0  0  0  0  0  0  0  0  0  0
   19.5566   -1.1069    0.0000 C   0  0  0  0  0  0  0  0  0  0  0  0
   10.6603    0.4159    0.0000 C   0  0  0  0  0  0  0  0  0  0  0  0
    8.9282    0.4159    0.0000 C   0  0  0  0  0  0  0  0  0  0  0  0
    8.0622    0.9159    0.0000 C   0  0  0  0  0  0  0  0  0  0  0  0
    5.4641    0.4159    0.0000 C   0  0  0  0  0  0  0  0  0  0  0  0
    4.5981    0.9159    0.0000 C   0  0  0  0  0  0  0  0  0  0  0  0
    2.8660    0.9159    0.0000 C   0  0  0  0  0  0  0  0  0  0  0  0
    2.0000    0.4159    0.0000 C   0  0  0  0  0  0  0  0  0  0  0  0
   15.0349   -0.2353    0.0000 H   0  0  0  0  0  0  0  0  0  0  0  0
   15.2554   -2.6775    0.0000 H   0  0  0  0  0  0  0  0  0  0  0  0
   16.6922   -2.3190    0.0000 H   0  0  0  0  0  0  0  0  0  0  0  0
   16.9107   -1.9405    0.0000 H   0  0  0  0  0  0  0  0  0  0  0  0
   13.5874   -0.2741    0.0000 H   0  0  0  0  0  0  0  0  0  0  0  0
   13.7953    1.2259    0.0000 H   0  0  0  0  0  0  0  0  0  0  0  0
   16.1154   -3.7017    0.0000 H   0  0  0  0  0  0  0  0  0  0  0  0
   13.2583    2.5359    0.0000 H   0  0  0  0  0  0  0  0  0  0  0  0
   17.6099    0.0992    0.0000 H   0  0  0  0  0  0  0  0  0  0  0  0
   13.9532   -3.8548    0.0000 H   0  0  0  0  0  0  0  0  0  0  0  0
   14.6886   -4.3324    0.0000 H   0  0  0  0  0  0  0  0  0  0  0  0
   15.1661   -3.5970    0.0000 H   0  0  0  0  0  0  0  0  0  0  0  0
   11.8554    2.7259    0.0000 H   0  0  0  0  0  0  0  0  0  0  0  0
   19.5143   -2.5221    0.0000 H   0  0  0  0  0  0  0  0  0  0  0  0
   19.2210    0.2685    0.0000 H   0  0  0  0  0  0  0  0  0  0  0  0
   12.7214   -2.3941    0.0000 H   0  0  0  0  0  0  0  0  0  0  0  0
   13.7953   -2.3941    0.0000 H   0  0  0  0  0  0  0  0  0  0  0  0
   10.9893    2.2259    0.0000 H   0  0  0  0  0  0  0  0  0  0  0  0
   14.1244    3.0359    0.0000 H   0  0  0  0  0  0  0  0  0  0  0  0
   11.8554    3.7259    0.0000 H   0  0  0  0  0  0  0  0  0  0  0  0
    9.7942    1.5359    0.0000 H   0  0  0  0  0  0  0  0  0  0  0  0
    8.5297   -0.0590    0.0000 H   0  0  0  0  0  0  0  0  0  0  0  0
    9.3267   -0.0590    0.0000 H   0  0  0  0  0  0  0  0  0  0  0  0
    8.4607    1.3908    0.0000 H   0  0  0  0  0  0  0  0  0  0  0  0
    7.6636    1.3908    0.0000 H   0  0  0  0  0  0  0  0  0  0  0  0
    5.0656   -0.0590    0.0000 H   0  0  0  0  0  0  0  0  0  0  0  0
    5.8626   -0.0590    0.0000 H   0  0  0  0  0  0  0  0  0  0  0  0
    4.9966    1.3908    0.0000 H   0  0  0  0  0  0  0  0  0  0  0  0
    4.1996    1.3908    0.0000 H   0  0  0  0  0  0  0  0  0  0  0  0
    3.7320   -0.2041    0.0000 H   0  0  0  0  0  0  0  0  0  0  0  0
    1.6900    0.9528    0.0000 H   0  0  0  0  0  0  0  0  0  0  0  0
    1.4631    0.1059    0.0000 H   0  0  0  0  0  0  0  0  0  0  0  0
    2.3100   -0.1210    0.0000 H   0  0  0  0  0  0  0  0  0  0  0  0
  1  2  1  0  0  0  0
  1 38  1  0  0  0  0
  2 39  1  0  0  0  0
  3 20  1  0  0  0  0
  3 23  1  0  0  0  0
 21  4  1  6  0  0  0
  4 30  1  0  0  0  0
 24  5  1  6  0  0  0
 25  5  1  1  0  0  0
 22  6  1  6  0  0  0
  6 49  1  0  0  0  0
  7 25  1  0  0  0  0
  7 34  1  0  0  0  0
  8 26  2  0  0  0  0
 27  9  1  6  0  0  0
  9 61  1  0  0  0  0
 10 28  2  0  0  0  0
 31 11  1  6  0  0  0
 11 62  1  0  0  0  0
 12 35  2  0  0  0  0
 13 36  2  0  0  0  0
 14 41  2  0  0  0  0
 23 15  1  1  0  0  0
 15 28  1  0  0  0  0
 15 29  1  0  0  0  0
 16 28  1  0  0  0  0
 16 35  1  0  0  0  0
 16 56  1  0  0  0  0
 17 26  1  0  0  0  0
 17 58  1  0  0  0  0
 17 59  1  0  0  0  0
 18 36  1  0  0  0  0
 18 37  1  0  0  0  0
 18 63  1  0  0  0  0
 19 40  1  0  0  0  0
 19 41  1  0  0  0  0
 19 72  1  0  0  0  0
 20 21  1  0  0  0  0
 20 24  1  0  0  0  0
 20 43  1  6  0  0  0
 21 22  1  0  0  0  0
 21 44  1  0  0  0  0
 22 23  1  0  0  0  0
 22 45  1  0  0  0  0
 23 46  1  0  0  0  0
 24 26  1  0  0  0  0
 24 47  1  0  0  0  0
 25 27  1  0  0  0  0
 25 48  1  0  0  0  0
 27 31  1  0  0  0  0
 27 50  1  0  0  0  0
 29 32  2  0  0  0  0
 29 51  1  0  0  0  0
 30 52  1  0  0  0  0
 30 53  1  0  0  0  0
 30 54  1  0  0  0  0
 31 33  1  0  0  0  0
 31 55  1  0  0  0  0
 32 35  1  0  0  0  0
 32 57  1  0  0  0  0
 33 34  2  0  0  0  0
 33 60  1  0  0  0  0
 34 36  1  0  0  0  0
 37 38  1  0  0  0  0
 37 64  1  0  0  0  0
 37 65  1  0  0  0  0
 38 66  1  0  0  0  0
 38 67  1  0  0  0  0
 39 40  1  0  0  0  0
 39 68  1  0  0  0  0
 39 69  1  0  0  0  0
 40 70  1  0  0  0  0
 40 71  1  0  0  0  0
 41 42  1  0  0  0  0
 42 73  1  0  0  0  0
 42 74  1  0  0  0  0
 42 75  1  0  0  0  0
M  END
> <PUBCHEM_COMPOUND_CID>
505900
> <PUBCHEM_COMPOUND_CANONICALIZED>
1
> <PUBCHEM_CACTVS_COMPLEXITY>
1090
> <PUBCHEM_CACTVS_HBOND_ACCEPTOR>
14
> <PUBCHEM_CACTVS_HBOND_DONOR>
7
> <PUBCHEM_CACTVS_ROTATABLE_BOND>
14
> <PUBCHEM_CACTVS_SUBSKEYS>
AAADcfB7vABgAAAAAAAAAAAAAAAAASAAAAAgQAAAAAAAAAAAAAAAHgQQCAAACBT1wAeDCAPABgCIACFWUAKACAAgIgAICIFIAEiTFBYAgAQvUAAP9yKfEcP6fA5AAAAAAAAAAAAAAAAAAAAAAAAAAAAAAA==
> <PUBCHEM_IUPAC_OPENEYE_NAME>
(2S,3S,4S)-N-[2-(2-acetamidoethyldisulfanyl)ethyl]-2-[(1R)-2-amino-1-[(2S,3S,4R,5R)-5-(2,4-dioxopyrimidin-1-yl)-4-hydroxy-3-methoxy-tetrahydrofuran-2-yl]-2-oxo-ethoxy]-3,4-dihydroxy-3,4-dihydro-2H-pyran-6-carboxamide
> <PUBCHEM_IUPAC_CAS_NAME>
(2S,3S,4S)-N-[2-(2-acetamidoethyldisulfanyl)ethyl]-2-[(1R)-2-amino-1-[(2S,3S,4R,5R)-5-(2,4-dioxo-1-pyrimidinyl)-4-hydroxy-3-methoxy-2-oxolanyl]-2-oxoethoxy]-3,4-dihydroxy-3,4-dihydro-2H-pyran-6-carboxamide
> <PUBCHEM_IUPAC_NAME_MARKUP>
(2<I>S</I>,3<I>S</I>,4<I>S</I>)-<I>N</I>-[2-(2-acetamidoethyldisulfanyl)ethyl]-2-[(1<I>R</I>)-2-amino-1-[(2<I>S</I>,3<I>S</I>,4<I>R</I>,5<I>R</I>)-5-(2,4-dioxopyrimidin-1-yl)-4-hydroxy-3-methoxyoxolan-2-yl]-2-oxoethoxy]-3,4-dihydroxy-3,4-dihydro-2<I>H</I>-pyran-6-carboxamide
> <PUBCHEM_IUPAC_NAME>
(2S,3S,4S)-N-[2-(2-acetamidoethyldisulfanyl)ethyl]-2-[(1R)-2-amino-1-[(2S,3S,4R,5R)-5-(2,4-dioxopyrimidin-1-yl)-4-hydroxy-3-methoxyoxolan-2-yl]-2-oxoethoxy]-3,4-dihydroxy-3,4-dihydro-2H-pyran-6-carboxamide
> <PUBCHEM_IUPAC_SYSTEMATIC_NAME>
(2S,3S,4S)-N-[2-(2-acetamidoethyldisulfanyl)ethyl]-2-[(1R)-2-azanyl-1-[(2S,3S,4R,5R)-5-[2,4-bis(oxidanylidene)pyrimidin-1-yl]-3-methoxy-4-oxidanyl-oxolan-2-yl]-2-oxidanylidene-ethoxy]-3,4-bis(oxidanyl)-3,4-dihydro-2H-pyran-6-carboxamide
> <PUBCHEM_IUPAC_TRADITIONAL_NAME>
(2S,3S,4S)-N-[2-(2-acetamidoethyldisulfanyl)ethyl]-2-[(1R)-2-amino-1-[(2S,3S,4R,5R)-5-(2,4-diketopyrimidin-1-yl)-4-hydroxy-3-methoxy-tetrahydrofuran-2-yl]-2-keto-ethoxy]-3,4-dihydroxy-3,4-dihydro-2H-pyran-6-carboxamide
> <PUBCHEM_IUPAC_INCHI>
InChI=1S/C23H33N5O12S2/c1-10(29)25-4-7-41-42-8-5-26-20(35)12-9-11(30)14(32)22(38-12)40-18(19(24)34)17-16(37-2)15(33)21(39-17)28-6-3-13(31)27-23(28)36/h3,6,9,11,14-18,21-22,30,32-33H,4-5,7-8H2,1-2H3,(H2,24,34)(H,25,29)(H,26,35)(H,27,31,36)/t11-,14-,15+,16-,17-,18+,21+,22+/m0/s1
> <PUBCHEM_IUPAC_INCHIKEY>
ZUCKJVVXVVOESY-KQSVRIFWSA-N
> <PUBCHEM_XLOGP3_AA>
-4.3
> <PUBCHEM_EXACT_MASS>
635.15671385
> <PUBCHEM_MOLECULAR_FORMULA>
C23H33N5O12S2
> <PUBCHEM_MOLECULAR_WEIGHT>
635.7
> <PUBCHEM_OPENEYE_CAN_SMILES>
CC(=O)NCCSSCCNC(=O)C1=CC(C(C(O1)OC(C2C(C(C(O2)N3C=CC(=O)NC3=O)O)OC)C(=O)N)O)O
> <PUBCHEM_OPENEYE_ISO_SMILES>
CC(=O)NCCSSCCNC(=O)C1=C[C@@H]([C@@H]([C@H](O1)O[C@H]([C@@H]2[C@H]([C@H]([C@@H](O2)N3C=CC(=O)NC3=O)O)OC)C(=O)N)O)O
> <PUBCHEM_CACTVS_TPSA>
299
> <PUBCHEM_MONOISOTOPIC_WEIGHT>
635.15671385
> <PUBCHEM_TOTAL_CHARGE>
0
> <PUBCHEM_HEAVY_ATOM_COUNT>
42
> <PUBCHEM_ATOM_DEF_STEREO_COUNT>
8
> <PUBCHEM_ATOM_UDEF_STEREO_COUNT>
0
> <PUBCHEM_BOND_DEF_STEREO_COUNT>
0
> <PUBCHEM_BOND_UDEF_STEREO_COUNT>
0
> <PUBCHEM_ISOTOPIC_ATOM_COUNT>
0
> <PUBCHEM_COMPONENT_COUNT>
1
> <PUBCHEM_CACTVS_TAUTO_COUNT>
-1
> <PUBCHEM_COORDINATE_TYPE>
1
5
255
> <PUBCHEM_BONDANNOTATIONS>
31  11  6
23  15  5
15  28  8
15  29  8
16  28  8
16  35  8
20  43  6
29  32  8
32  35  8
21  4  6
24  5  6
25  5  5
22  6  6
27  9  6
$$$$
