505975
  -OEChem-10302200282D
 48 50  0     1  0  0  0  0  0999 V2000
    4.5981   -1.2327    0.0000 O   0  0  0  0  0  0  0  0  0  0  0  0
    4.5981    1.7673    0.0000 O   0  0  0  0  0  0  0  0  0  0  0  0
    8.0622   -1.2327    0.0000 N   0  0  3  0  0  0  0  0  0  0  0  0
    5.4641    0.2673    0.0000 N   0  0  0  0  0  0  0  0  0  0  0  0
    8.0622   -0.2327    0.0000 C   0  0  1  0  0  0  0  0  0  0  0  0
    8.9561   -1.7674    0.0000 C   0  0  1  0  0  0  0  0  0  0  0  0
    7.1962    0.2673    0.0000 C   0  0  0  0  0  0  0  0  0  0  0  0
    8.9561    0.3020    0.0000 C   0  0  0  0  0  0  0  0  0  0  0  0
    6.3301   -0.2327    0.0000 C   0  0  2  0  0  0  0  0  0  0  0  0
    7.1962   -1.7327    0.0000 C   0  0  0  0  0  0  0  0  0  0  0  0
    9.8622   -1.2535    0.0000 C   0  0  0  0  0  0  0  0  0  0  0  0
    6.3301   -1.2327    0.0000 C   0  0  0  0  0  0  0  0  0  0  0  0
    9.8622   -0.2119    0.0000 C   0  0  0  0  0  0  0  0  0  0  0  0
    8.9446   -2.7673    0.0000 C   0  0  0  0  0  0  0  0  0  0  0  0
    4.5981   -0.2327    0.0000 C   0  0  0  0  0  0  0  0  0  0  0  0
    3.7320    0.2673    0.0000 C   0  0  0  0  0  0  0  0  0  0  0  0
    3.7320    1.2673    0.0000 C   0  0  0  0  0  0  0  0  0  0  0  0
    2.8660   -0.2327    0.0000 C   0  0  0  0  0  0  0  0  0  0  0  0
    2.8660    1.7673    0.0000 C   0  0  0  0  0  0  0  0  0  0  0  0
    2.0000    0.2673    0.0000 C   0  0  0  0  0  0  0  0  0  0  0  0
    2.0000    1.2673    0.0000 C   0  0  0  0  0  0  0  0  0  0  0  0
    2.8660    2.7673    0.0000 C   0  0  0  0  0  0  0  0  0  0  0  0
    8.0556    0.6173    0.0000 H   0  0  0  0  0  0  0  0  0  0  0  0
    8.4151   -2.0701    0.0000 H   0  0  0  0  0  0  0  0  0  0  0  0
    7.5947    0.7422    0.0000 H   0  0  0  0  0  0  0  0  0  0  0  0
    6.7976    0.7422    0.0000 H   0  0  0  0  0  0  0  0  0  0  0  0
    9.3497    0.7810    0.0000 H   0  0  0  0  0  0  0  0  0  0  0  0
    8.5515    0.7717    0.0000 H   0  0  0  0  0  0  0  0  0  0  0  0
    5.7932   -0.5427    0.0000 H   0  0  0  0  0  0  0  0  0  0  0  0
    6.7976   -2.2076    0.0000 H   0  0  0  0  0  0  0  0  0  0  0  0
    7.5947   -2.2076    0.0000 H   0  0  0  0  0  0  0  0  0  0  0  0
   10.0712   -1.8372    0.0000 H   0  0  0  0  0  0  0  0  0  0  0  0
   10.4730   -1.1474    0.0000 H   0  0  0  0  0  0  0  0  0  0  0  0
    5.7196   -1.1250    0.0000 H   0  0  0  0  0  0  0  0  0  0  0  0
    6.1181   -1.8153    0.0000 H   0  0  0  0  0  0  0  0  0  0  0  0
   10.4730   -0.3180    0.0000 H   0  0  0  0  0  0  0  0  0  0  0  0
   10.0712    0.3718    0.0000 H   0  0  0  0  0  0  0  0  0  0  0  0
    8.3246   -2.7601    0.0000 H   0  0  0  0  0  0  0  0  0  0  0  0
    8.9374   -3.3873    0.0000 H   0  0  0  0  0  0  0  0  0  0  0  0
    9.5645   -2.7745    0.0000 H   0  0  0  0  0  0  0  0  0  0  0  0
    5.4641    0.8873    0.0000 H   0  0  0  0  0  0  0  0  0  0  0  0
    2.8660   -0.8527    0.0000 H   0  0  0  0  0  0  0  0  0  0  0  0
    1.4631   -0.0427    0.0000 H   0  0  0  0  0  0  0  0  0  0  0  0
    1.4631    1.5773    0.0000 H   0  0  0  0  0  0  0  0  0  0  0  0
    3.4860    2.7673    0.0000 H   0  0  0  0  0  0  0  0  0  0  0  0
    2.8660    3.3873    0.0000 H   0  0  0  0  0  0  0  0  0  0  0  0
    2.2460    2.7673    0.0000 H   0  0  0  0  0  0  0  0  0  0  0  0
    4.5981    2.3873    0.0000 H   0  0  0  0  0  0  0  0  0  0  0  0
  1 15  2  0  0  0  0
  2 17  1  0  0  0  0
  2 48  1  0  0  0  0
  3  5  1  0  0  0  0
  3  6  1  0  0  0  0
  3 10  1  0  0  0  0
  9  4  1  6  0  0  0
  4 15  1  0  0  0  0
  4 41  1  0  0  0  0
  5  7  1  0  0  0  0
  5  8  1  0  0  0  0
  5 23  1  6  0  0  0
  6 11  1  0  0  0  0
  6 14  1  1  0  0  0
  6 24  1  0  0  0  0
  7  9  1  0  0  0  0
  7 25  1  0  0  0  0
  7 26  1  0  0  0  0
  8 13  1  0  0  0  0
  8 27  1  0  0  0  0
  8 28  1  0  0  0  0
  9 12  1  0  0  0  0
  9 29  1  0  0  0  0
 10 12  1  0  0  0  0
 10 30  1  0  0  0  0
 10 31  1  0  0  0  0
 11 13  1  0  0  0  0
 11 32  1  0  0  0  0
 11 33  1  0  0  0  0
 12 34  1  0  0  0  0
 12 35  1  0  0  0  0
 13 36  1  0  0  0  0
 13 37  1  0  0  0  0
 14 38  1  0  0  0  0
 14 39  1  0  0  0  0
 14 40  1  0  0  0  0
 15 16  1  0  0  0  0
 16 17  1  0  0  0  0
 16 18  2  0  0  0  0
 17 19  2  0  0  0  0
 18 20  1  0  0  0  0
 18 42  1  0  0  0  0
 19 21  1  0  0  0  0
 19 22  1  0  0  0  0
 20 21  2  0  0  0  0
 20 43  1  0  0  0  0
 21 44  1  0  0  0  0
 22 45  1  0  0  0  0
 22 46  1  0  0  0  0
 22 47  1  0  0  0  0
M  END
> <PUBCHEM_COMPOUND_CID>
505975
> <PUBCHEM_COMPOUND_CANONICALIZED>
1
> <PUBCHEM_CACTVS_COMPLEXITY>
401
> <PUBCHEM_CACTVS_HBOND_ACCEPTOR>
3
> <PUBCHEM_CACTVS_HBOND_DONOR>
2
> <PUBCHEM_CACTVS_ROTATABLE_BOND>
2
> <PUBCHEM_CACTVS_SUBSKEYS>
AAADceB7MAAAAAAAAAAAAAAAAAAAAAAAAAA8WIAAAAAAAACxAAAAHgAQCAAADCzBmAQyBoPAAgCIAiFSEACCAAAkIAAIiIEMDMgIJjaC1ROEcUhm9hGImYeYyOCOAAACAAAIAAAAAAQAABAAAAAAAAAAAA==
> <PUBCHEM_IUPAC_OPENEYE_NAME>
N-[(2S,6R,9aR)-6-methyl-2,3,4,6,7,8,9,9a-octahydro-1H-quinolizin-2-yl]-2-hydroxy-3-methyl-benzamide
> <PUBCHEM_IUPAC_CAS_NAME>
N-[(2S,6R,9aR)-6-methyl-2,3,4,6,7,8,9,9a-octahydro-1H-quinolizin-2-yl]-2-hydroxy-3-methylbenzamide
> <PUBCHEM_IUPAC_NAME_MARKUP>
<I>N</I>-[(2<I>S</I>,6<I>R</I>,9<I>a</I><I>R</I>)-6-methyl-2,3,4,6,7,8,9,9<I>a</I>-octahydro-1<I>H</I>-quinolizin-2-yl]-2-hydroxy-3-methylbenzamide
> <PUBCHEM_IUPAC_NAME>
N-[(2S,6R,9aR)-6-methyl-2,3,4,6,7,8,9,9a-octahydro-1H-quinolizin-2-yl]-2-hydroxy-3-methylbenzamide
> <PUBCHEM_IUPAC_SYSTEMATIC_NAME>
N-[(2S,6R,9aR)-6-methyl-2,3,4,6,7,8,9,9a-octahydro-1H-quinolizin-2-yl]-3-methyl-2-oxidanyl-benzamide
> <PUBCHEM_IUPAC_TRADITIONAL_NAME>
N-[(2S,6R,9aR)-6-methylquinolizidin-2-yl]-2-hydroxy-3-methyl-benzamide
> <PUBCHEM_IUPAC_INCHI>
InChI=1S/C18H26N2O2/c1-12-5-3-8-16(17(12)21)18(22)19-14-9-10-20-13(2)6-4-7-15(20)11-14/h3,5,8,13-15,21H,4,6-7,9-11H2,1-2H3,(H,19,22)/t13-,14+,15-/m1/s1
> <PUBCHEM_IUPAC_INCHIKEY>
JDQXYQZAZACYBE-QLFBSQMISA-N
> <PUBCHEM_XLOGP3_AA>
3.7
> <PUBCHEM_EXACT_MASS>
302.199428076
> <PUBCHEM_MOLECULAR_FORMULA>
C18H26N2O2
> <PUBCHEM_MOLECULAR_WEIGHT>
302.4
> <PUBCHEM_OPENEYE_CAN_SMILES>
CC1CCCC2N1CCC(C2)NC(=O)C3=CC=CC(=C3O)C
> <PUBCHEM_OPENEYE_ISO_SMILES>
C[C@@H]1CCC[C@H]2N1CC[C@@H](C2)NC(=O)C3=CC=CC(=C3O)C
> <PUBCHEM_CACTVS_TPSA>
52.6
> <PUBCHEM_MONOISOTOPIC_WEIGHT>
302.199428076
> <PUBCHEM_TOTAL_CHARGE>
0
> <PUBCHEM_HEAVY_ATOM_COUNT>
22
> <PUBCHEM_ATOM_DEF_STEREO_COUNT>
3
> <PUBCHEM_ATOM_UDEF_STEREO_COUNT>
0
> <PUBCHEM_BOND_DEF_STEREO_COUNT>
0
> <PUBCHEM_BOND_UDEF_STEREO_COUNT>
0
> <PUBCHEM_ISOTOPIC_ATOM_COUNT>
0
> <PUBCHEM_COMPONENT_COUNT>
1
> <PUBCHEM_CACTVS_TAUTO_COUNT>
-1
> <PUBCHEM_COORDINATE_TYPE>
1
5
255
> <PUBCHEM_BONDANNOTATIONS>
16  17  8
16  18  8
17  19  8
18  20  8
19  21  8
20  21  8
9  4  6
5  23  6
6  14  5
$$$$
