505924
  -OEChem-10302200282D
 39 39  0     1  0  0  0  0  0999 V2000
    5.1350    2.3770    0.0000 S   0  0  0  0  0  0  0  0  0  0  0  0
    6.0010    0.8770    0.0000 O   0  0  0  0  0  0  0  0  0  0  0  0
    4.6350    3.2430    0.0000 O   0  0  0  0  0  0  0  0  0  0  0  0
    5.6350    1.5110    0.0000 O   0  0  0  0  0  0  0  0  0  0  0  0
    5.1350   -2.6230    0.0000 O   0  0  0  0  0  0  0  0  0  0  0  0
    3.4030   -2.6230    0.0000 O   0  0  0  0  0  0  0  0  0  0  0  0
    4.2690    1.8770    0.0000 N   0  0  0  0  0  0  0  0  0  0  0  0
    2.5369    0.8770    0.0000 N   0  0  0  0  0  0  0  0  0  0  0  0
    4.2690    0.8770    0.0000 C   0  0  2  0  0  0  0  0  0  0  0  0
    3.4030    0.3770    0.0000 C   0  0  2  0  0  0  0  0  0  0  0  0
    5.1350    0.3770    0.0000 C   0  0  1  0  0  0  0  0  0  0  0  0
    3.4030   -0.6230    0.0000 C   0  0  0  0  0  0  0  0  0  0  0  0
    5.1350   -0.6230    0.0000 C   0  0  0  0  0  0  0  0  0  0  0  0
    4.2690   -1.1230    0.0000 C   0  0  0  0  0  0  0  0  0  0  0  0
    6.8671    0.3770    0.0000 C   0  0  0  0  0  0  0  0  0  0  0  0
    4.2690   -2.1230    0.0000 C   0  0  0  0  0  0  0  0  0  0  0  0
    6.0010    2.8770    0.0000 C   0  0  0  0  0  0  0  0  0  0  0  0
    7.7331    0.8770    0.0000 C   0  0  0  0  0  0  0  0  0  0  0  0
    8.5991    0.3770    0.0000 C   0  0  0  0  0  0  0  0  0  0  0  0
    4.8059    1.1870    0.0000 H   0  0  0  0  0  0  0  0  0  0  0  0
    3.4030    0.9970    0.0000 H   0  0  0  0  0  0  0  0  0  0  0  0
    5.6720    0.0670    0.0000 H   0  0  0  0  0  0  0  0  0  0  0  0
    2.7924   -0.5154    0.0000 H   0  0  0  0  0  0  0  0  0  0  0  0
    3.1909   -1.2056    0.0000 H   0  0  0  0  0  0  0  0  0  0  0  0
    5.6720   -0.9330    0.0000 H   0  0  0  0  0  0  0  0  0  0  0  0
    3.7320    2.1870    0.0000 H   0  0  0  0  0  0  0  0  0  0  0  0
    2.0000    0.5670    0.0000 H   0  0  0  0  0  0  0  0  0  0  0  0
    2.5369    1.4970    0.0000 H   0  0  0  0  0  0  0  0  0  0  0  0
    6.4685   -0.0980    0.0000 H   0  0  0  0  0  0  0  0  0  0  0  0
    7.2656   -0.0980    0.0000 H   0  0  0  0  0  0  0  0  0  0  0  0
    6.3110    2.3401    0.0000 H   0  0  0  0  0  0  0  0  0  0  0  0
    6.5380    3.1870    0.0000 H   0  0  0  0  0  0  0  0  0  0  0  0
    5.6910    3.4139    0.0000 H   0  0  0  0  0  0  0  0  0  0  0  0
    8.1316    1.3519    0.0000 H   0  0  0  0  0  0  0  0  0  0  0  0
    7.3346    1.3519    0.0000 H   0  0  0  0  0  0  0  0  0  0  0  0
    8.2891   -0.1599    0.0000 H   0  0  0  0  0  0  0  0  0  0  0  0
    9.1360    0.0670    0.0000 H   0  0  0  0  0  0  0  0  0  0  0  0
    8.9091    0.9139    0.0000 H   0  0  0  0  0  0  0  0  0  0  0  0
    5.1350   -3.2430    0.0000 H   0  0  0  0  0  0  0  0  0  0  0  0
  1  3  2  0  0  0  0
  1  4  2  0  0  0  0
  1  7  1  0  0  0  0
  1 17  1  0  0  0  0
 11  2  1  6  0  0  0
  2 15  1  0  0  0  0
  5 16  1  0  0  0  0
  5 39  1  0  0  0  0
  6 16  2  0  0  0  0
  9  7  1  1  0  0  0
  7 26  1  0  0  0  0
 10  8  1  6  0  0  0
  8 27  1  0  0  0  0
  8 28  1  0  0  0  0
  9 10  1  0  0  0  0
  9 11  1  0  0  0  0
  9 20  1  0  0  0  0
 10 12  1  0  0  0  0
 10 21  1  0  0  0  0
 11 13  1  0  0  0  0
 11 22  1  0  0  0  0
 12 14  1  0  0  0  0
 12 23  1  0  0  0  0
 12 24  1  0  0  0  0
 13 14  2  0  0  0  0
 13 25  1  0  0  0  0
 14 16  1  0  0  0  0
 15 18  1  0  0  0  0
 15 29  1  0  0  0  0
 15 30  1  0  0  0  0
 17 31  1  0  0  0  0
 17 32  1  0  0  0  0
 17 33  1  0  0  0  0
 18 19  1  0  0  0  0
 18 34  1  0  0  0  0
 18 35  1  0  0  0  0
 19 36  1  0  0  0  0
 19 37  1  0  0  0  0
 19 38  1  0  0  0  0
M  END
> <PUBCHEM_COMPOUND_CID>
505924
> <PUBCHEM_COMPOUND_CANONICALIZED>
1
> <PUBCHEM_CACTVS_COMPLEXITY>
454
> <PUBCHEM_CACTVS_HBOND_ACCEPTOR>
7
> <PUBCHEM_CACTVS_HBOND_DONOR>
3
> <PUBCHEM_CACTVS_ROTATABLE_BOND>
6
> <PUBCHEM_CACTVS_SUBSKEYS>
AAADceBzOABAAAAAAAAAAAAAAAAAAAAAAAAgAAAAAAAAAAAAAAAAHgQQSAAADDzhgAaCCABABgKIAiDSCHAAAAAgAAAACIEAAEgCRBIAoQADUAAGkAAIMYO82SGQAAAAAAAAAAAAAAAAAAAAAAAAAAAAAA==
> <PUBCHEM_IUPAC_OPENEYE_NAME>
(3R,4R,5S)-5-amino-4-(methanesulfonamido)-3-propoxy-cyclohexene-1-carboxylic acid
> <PUBCHEM_IUPAC_CAS_NAME>
(3R,4R,5S)-5-amino-4-(methanesulfonamido)-3-propoxy-1-cyclohexenecarboxylic acid
> <PUBCHEM_IUPAC_NAME_MARKUP>
(3<I>R</I>,4<I>R</I>,5<I>S</I>)-5-amino-4-(methanesulfonamido)-3-propoxycyclohexene-1-carboxylic acid
> <PUBCHEM_IUPAC_NAME>
(3R,4R,5S)-5-amino-4-(methanesulfonamido)-3-propoxycyclohexene-1-carboxylic acid
> <PUBCHEM_IUPAC_SYSTEMATIC_NAME>
(3R,4R,5S)-5-azanyl-4-(methylsulfonylamino)-3-propoxy-cyclohexene-1-carboxylic acid
> <PUBCHEM_IUPAC_TRADITIONAL_NAME>
(3R,4R,5S)-5-amino-4-(methanesulfonamido)-3-propoxy-cyclohexene-1-carboxylic acid
> <PUBCHEM_IUPAC_INCHI>
InChI=1S/C11H20N2O5S/c1-3-4-18-9-6-7(11(14)15)5-8(12)10(9)13-19(2,16)17/h6,8-10,13H,3-5,12H2,1-2H3,(H,14,15)/t8-,9+,10+/m0/s1
> <PUBCHEM_IUPAC_INCHIKEY>
OEZYEYXMBIPGKG-IVZWLZJFSA-N
> <PUBCHEM_XLOGP3_AA>
-3
> <PUBCHEM_EXACT_MASS>
292.10929292
> <PUBCHEM_MOLECULAR_FORMULA>
C11H20N2O5S
> <PUBCHEM_MOLECULAR_WEIGHT>
292.35
> <PUBCHEM_OPENEYE_CAN_SMILES>
CCCOC1C=C(CC(C1NS(=O)(=O)C)N)C(=O)O
> <PUBCHEM_OPENEYE_ISO_SMILES>
CCCO[C@@H]1C=C(C[C@@H]([C@H]1NS(=O)(=O)C)N)C(=O)O
> <PUBCHEM_CACTVS_TPSA>
127
> <PUBCHEM_MONOISOTOPIC_WEIGHT>
292.10929292
> <PUBCHEM_TOTAL_CHARGE>
0
> <PUBCHEM_HEAVY_ATOM_COUNT>
19
> <PUBCHEM_ATOM_DEF_STEREO_COUNT>
3
> <PUBCHEM_ATOM_UDEF_STEREO_COUNT>
0
> <PUBCHEM_BOND_DEF_STEREO_COUNT>
0
> <PUBCHEM_BOND_UDEF_STEREO_COUNT>
0
> <PUBCHEM_ISOTOPIC_ATOM_COUNT>
0
> <PUBCHEM_COMPONENT_COUNT>
1
> <PUBCHEM_CACTVS_TAUTO_COUNT>
-1
> <PUBCHEM_COORDINATE_TYPE>
1
5
255
> <PUBCHEM_BONDANNOTATIONS>
11  2  6
9  7  5
10  8  6
$$$$
