505982
  -OEChem-10302200282D
 89 92  0     1  0  0  0  0  0999 V2000
    4.9889    3.9203    0.0000 O   0  0  0  0  0  0  0  0  0  0  0  0
    8.2619    2.1651    0.0000 O   0  0  0  0  0  0  0  0  0  0  0  0
    7.7619   -0.4330    0.0000 O   0  0  0  0  0  0  0  0  0  0  0  0
    9.2619   -1.2990    0.0000 O   0  0  0  0  0  0  0  0  0  0  0  0
    9.7619    1.2990    0.0000 O   0  0  0  0  0  0  0  0  0  0  0  0
    6.2619    0.4330    0.0000 O   0  0  0  0  0  0  0  0  0  0  0  0
   11.2619    0.4330    0.0000 O   0  0  0  0  0  0  0  0  0  0  0  0
   12.2619   -3.0311    0.0000 O   0  0  0  0  0  0  0  0  0  0  0  0
    6.2619    2.1651    0.0000 N   0  0  0  0  0  0  0  0  0  0  0  0
   11.2619   -1.2990    0.0000 N   0  0  0  0  0  0  0  0  0  0  0  0
   13.7619   -2.1651    0.0000 N   0  0  0  0  0  0  0  0  0  0  0  0
    5.2619    2.1651    0.0000 C   0  0  3  0  0  0  0  0  0  0  0  0
    4.6783    2.9698    0.0000 C   0  0  2  0  0  0  0  0  0  0  0  0
    4.6783    1.3603    0.0000 C   0  0  0  0  0  0  0  0  0  0  0  0
    3.7320    2.6651    0.0000 C   0  0  0  0  0  0  0  0  0  0  0  0
    3.7320    1.6651    0.0000 C   0  0  0  0  0  0  0  0  0  0  0  0
    7.7619    1.2990    0.0000 C   0  0  2  0  0  0  0  0  0  0  0  0
    8.2619    0.4330    0.0000 C   0  0  1  0  0  0  0  0  0  0  0  0
    6.7619    1.2990    0.0000 C   0  0  0  0  0  0  0  0  0  0  0  0
    9.2619    0.4330    0.0000 C   0  0  2  0  0  0  0  0  0  0  0  0
    2.8660    3.1651    0.0000 C   0  0  0  0  0  0  0  0  0  0  0  0
    2.8660    1.1651    0.0000 C   0  0  0  0  0  0  0  0  0  0  0  0
    9.7619   -0.4330    0.0000 C   0  0  2  0  0  0  0  0  0  0  0  0
    2.0000    2.6651    0.0000 C   0  0  0  0  0  0  0  0  0  0  0  0
    2.0000    1.6651    0.0000 C   0  0  0  0  0  0  0  0  0  0  0  0
   10.7619   -0.4330    0.0000 C   0  0  0  0  0  0  0  0  0  0  0  0
   12.2619   -1.2990    0.0000 C   0  0  1  0  0  0  0  0  0  0  0  0
   12.7619   -0.4330    0.0000 C   0  0  0  0  0  0  0  0  0  0  0  0
    9.2619    2.1651    0.0000 C   0  0  0  0  0  0  0  0  0  0  0  0
    9.7619   -2.1651    0.0000 C   0  0  0  0  0  0  0  0  0  0  0  0
   13.7619   -0.4330    0.0000 C   0  0  0  0  0  0  0  0  0  0  0  0
   12.2619    0.4330    0.0000 C   0  0  0  0  0  0  0  0  0  0  0  0
   12.7619   -2.1651    0.0000 C   0  0  0  0  0  0  0  0  0  0  0  0
    9.7619    3.0311    0.0000 C   0  0  0  0  0  0  0  0  0  0  0  0
    9.2619   -3.0311    0.0000 C   0  0  0  0  0  0  0  0  0  0  0  0
    9.2619    3.8971    0.0000 C   0  0  0  0  0  0  0  0  0  0  0  0
   10.7619    3.0311    0.0000 C   0  0  0  0  0  0  0  0  0  0  0  0
    9.7619   -3.8971    0.0000 C   0  0  0  0  0  0  0  0  0  0  0  0
    8.2619   -3.0311    0.0000 C   0  0  0  0  0  0  0  0  0  0  0  0
   14.2619   -3.0311    0.0000 C   0  0  0  0  0  0  0  0  0  0  0  0
    9.7619    4.7631    0.0000 C   0  0  0  0  0  0  0  0  0  0  0  0
   11.2619    3.8971    0.0000 C   0  0  0  0  0  0  0  0  0  0  0  0
   10.7619    4.7631    0.0000 C   0  0  0  0  0  0  0  0  0  0  0  0
    9.2619   -4.7631    0.0000 C   0  0  0  0  0  0  0  0  0  0  0  0
    7.7619   -3.8971    0.0000 C   0  0  0  0  0  0  0  0  0  0  0  0
    8.2619   -4.7631    0.0000 C   0  0  0  0  0  0  0  0  0  0  0  0
    5.5436    2.7174    0.0000 H   0  0  0  0  0  0  0  0  0  0  0  0
    5.2908    3.0660    0.0000 H   0  0  0  0  0  0  0  0  0  0  0  0
    4.4272    0.7934    0.0000 H   0  0  0  0  0  0  0  0  0  0  0  0
    5.2156    1.0511    0.0000 H   0  0  0  0  0  0  0  0  0  0  0  0
    6.5719    2.7020    0.0000 H   0  0  0  0  0  0  0  0  0  0  0  0
    7.4519    1.8360    0.0000 H   0  0  0  0  0  0  0  0  0  0  0  0
    8.5719   -0.1039    0.0000 H   0  0  0  0  0  0  0  0  0  0  0  0
    8.9519    0.9699    0.0000 H   0  0  0  0  0  0  0  0  0  0  0  0
    2.8660    3.7851    0.0000 H   0  0  0  0  0  0  0  0  0  0  0  0
    2.8660    0.5451    0.0000 H   0  0  0  0  0  0  0  0  0  0  0  0
   10.0719   -0.9699    0.0000 H   0  0  0  0  0  0  0  0  0  0  0  0
    4.5749    4.3818    0.0000 H   0  0  0  0  0  0  0  0  0  0  0  0
    1.4631    2.9751    0.0000 H   0  0  0  0  0  0  0  0  0  0  0  0
    1.4631    1.3551    0.0000 H   0  0  0  0  0  0  0  0  0  0  0  0
   11.9519   -0.7621    0.0000 H   0  0  0  0  0  0  0  0  0  0  0  0
   13.0719   -0.9699    0.0000 H   0  0  0  0  0  0  0  0  0  0  0  0
   10.9519   -1.8360    0.0000 H   0  0  0  0  0  0  0  0  0  0  0  0
    8.0719   -0.9699    0.0000 H   0  0  0  0  0  0  0  0  0  0  0  0
   10.3819    1.2990    0.0000 H   0  0  0  0  0  0  0  0  0  0  0  0
    9.1542    1.5545    0.0000 H   0  0  0  0  0  0  0  0  0  0  0  0
    9.8445    1.9530    0.0000 H   0  0  0  0  0  0  0  0  0  0  0  0
   10.2368   -2.5636    0.0000 H   0  0  0  0  0  0  0  0  0  0  0  0
   10.2368   -1.7665    0.0000 H   0  0  0  0  0  0  0  0  0  0  0  0
   13.7619   -1.0530    0.0000 H   0  0  0  0  0  0  0  0  0  0  0  0
   14.3819   -0.4330    0.0000 H   0  0  0  0  0  0  0  0  0  0  0  0
   13.7619    0.1870    0.0000 H   0  0  0  0  0  0  0  0  0  0  0  0
   12.7988    0.7430    0.0000 H   0  0  0  0  0  0  0  0  0  0  0  0
   11.9519    0.9699    0.0000 H   0  0  0  0  0  0  0  0  0  0  0  0
   11.7249    0.1230    0.0000 H   0  0  0  0  0  0  0  0  0  0  0  0
   14.0719   -1.6281    0.0000 H   0  0  0  0  0  0  0  0  0  0  0  0
    8.6419    3.8971    0.0000 H   0  0  0  0  0  0  0  0  0  0  0  0
   11.0719    2.4942    0.0000 H   0  0  0  0  0  0  0  0  0  0  0  0
   10.3819   -3.8971    0.0000 H   0  0  0  0  0  0  0  0  0  0  0  0
    7.9519   -2.4942    0.0000 H   0  0  0  0  0  0  0  0  0  0  0  0
   13.7249   -3.3411    0.0000 H   0  0  0  0  0  0  0  0  0  0  0  0
   14.5719   -3.5680    0.0000 H   0  0  0  0  0  0  0  0  0  0  0  0
   14.7988   -2.7211    0.0000 H   0  0  0  0  0  0  0  0  0  0  0  0
    9.4519    5.3001    0.0000 H   0  0  0  0  0  0  0  0  0  0  0  0
   11.8819    3.8971    0.0000 H   0  0  0  0  0  0  0  0  0  0  0  0
   11.0719    5.3001    0.0000 H   0  0  0  0  0  0  0  0  0  0  0  0
    9.5719   -5.3001    0.0000 H   0  0  0  0  0  0  0  0  0  0  0  0
    7.1419   -3.8971    0.0000 H   0  0  0  0  0  0  0  0  0  0  0  0
    7.9519   -5.3001    0.0000 H   0  0  0  0  0  0  0  0  0  0  0  0
 13  1  1  6  0  0  0
  1 58  1  0  0  0  0
 17  2  1  6  0  0  0
  2 29  1  0  0  0  0
 18  3  1  1  0  0  0
  3 64  1  0  0  0  0
 23  4  1  6  0  0  0
  4 30  1  0  0  0  0
 20  5  1  1  0  0  0
  5 65  1  0  0  0  0
  6 19  2  0  0  0  0
  7 26  2  0  0  0  0
  8 33  2  0  0  0  0
  9 12  1  0  0  0  0
  9 19  1  0  0  0  0
  9 51  1  0  0  0  0
 10 26  1  0  0  0  0
 27 10  1  1  0  0  0
 10 63  1  0  0  0  0
 11 33  1  0  0  0  0
 11 40  1  0  0  0  0
 11 76  1  0  0  0  0
 12 13  1  0  0  0  0
 12 14  1  0  0  0  0
 12 47  1  0  0  0  0
 13 15  1  0  0  0  0
 13 48  1  0  0  0  0
 14 16  1  0  0  0  0
 14 49  1  0  0  0  0
 14 50  1  0  0  0  0
 15 16  1  0  0  0  0
 15 21  2  0  0  0  0
 16 22  2  0  0  0  0
 17 18  1  0  0  0  0
 17 19  1  0  0  0  0
 17 52  1  0  0  0  0
 18 20  1  0  0  0  0
 18 53  1  0  0  0  0
 20 23  1  0  0  0  0
 20 54  1  0  0  0  0
 21 24  1  0  0  0  0
 21 55  1  0  0  0  0
 22 25  1  0  0  0  0
 22 56  1  0  0  0  0
 23 26  1  0  0  0  0
 23 57  1  0  0  0  0
 24 25  2  0  0  0  0
 24 59  1  0  0  0  0
 25 60  1  0  0  0  0
 27 28  1  0  0  0  0
 27 33  1  0  0  0  0
 27 61  1  0  0  0  0
 28 31  1  0  0  0  0
 28 32  1  0  0  0  0
 28 62  1  0  0  0  0
 29 34  1  0  0  0  0
 29 66  1  0  0  0  0
 29 67  1  0  0  0  0
 30 35  1  0  0  0  0
 30 68  1  0  0  0  0
 30 69  1  0  0  0  0
 31 70  1  0  0  0  0
 31 71  1  0  0  0  0
 31 72  1  0  0  0  0
 32 73  1  0  0  0  0
 32 74  1  0  0  0  0
 32 75  1  0  0  0  0
 34 36  2  0  0  0  0
 34 37  1  0  0  0  0
 35 38  2  0  0  0  0
 35 39  1  0  0  0  0
 36 41  1  0  0  0  0
 36 77  1  0  0  0  0
 37 42  2  0  0  0  0
 37 78  1  0  0  0  0
 38 44  1  0  0  0  0
 38 79  1  0  0  0  0
 39 45  2  0  0  0  0
 39 80  1  0  0  0  0
 40 81  1  0  0  0  0
 40 82  1  0  0  0  0
 40 83  1  0  0  0  0
 41 43  2  0  0  0  0
 41 84  1  0  0  0  0
 42 43  1  0  0  0  0
 42 85  1  0  0  0  0
 43 86  1  0  0  0  0
 44 46  2  0  0  0  0
 44 87  1  0  0  0  0
 45 46  1  0  0  0  0
 45 88  1  0  0  0  0
 46 89  1  0  0  0  0
M  END
> <PUBCHEM_COMPOUND_CID>
505982
> <PUBCHEM_COMPOUND_CANONICALIZED>
1
> <PUBCHEM_CACTVS_COMPLEXITY>
970
> <PUBCHEM_CACTVS_HBOND_ACCEPTOR>
8
> <PUBCHEM_CACTVS_HBOND_DONOR>
6
> <PUBCHEM_CACTVS_ROTATABLE_BOND>
15
> <PUBCHEM_CACTVS_SUBSKEYS>
AAADcfB/PAAAAAAAAAAAAAAAAAAAAYAAAAAwYMAAAAAAAGABUAAAHgAQCAAADTzhmAYyAILABgCIAiFSEAICAAAgAAAIiIHICIgLdjaAsT2XcAAn9gGbuAf63KJOgAAAAAAQAAAAAAAAACAAAKAADAgAAA==
> <PUBCHEM_IUPAC_OPENEYE_NAME>
(2R,3R,4R,5R)-2,5-dibenzyloxy-3,4-dihydroxy-N-[(1S)-1-hydroxyindan-2-yl]-N'-[(1S)-2-methyl-1-(methylcarbamoyl)propyl]hexanediamide
> <PUBCHEM_IUPAC_CAS_NAME>
(2R,3R,4R,5R)-3,4-dihydroxy-N-[(1S)-1-hydroxy-2,3-dihydro-1H-inden-2-yl]-N'-[(2S)-3-methyl-1-(methylamino)-1-oxobutan-2-yl]-2,5-bis(phenylmethoxy)hexanediamide
> <PUBCHEM_IUPAC_NAME_MARKUP>
(2<I>R</I>,3<I>R</I>,4<I>R</I>,5<I>R</I>)-3,4-dihydroxy-<I>N</I>-[(1<I>S</I>)-1-hydroxy-2,3-dihydro-1<I>H</I>-inden-2-yl]-<I>N</I>&apos;-[(2<I>S</I>)-3-methyl-1-(methylamino)-1-oxobutan-2-yl]-2,5-bis(phenylmethoxy)hexanediamide
> <PUBCHEM_IUPAC_NAME>
(2R,3R,4R,5R)-3,4-dihydroxy-N-[(1S)-1-hydroxy-2,3-dihydro-1H-inden-2-yl]-N'-[(2S)-3-methyl-1-(methylamino)-1-oxobutan-2-yl]-2,5-bis(phenylmethoxy)hexanediamide
> <PUBCHEM_IUPAC_SYSTEMATIC_NAME>
(2R,3R,4R,5R)-N-[(2S)-3-methyl-1-(methylamino)-1-oxidanylidene-butan-2-yl]-3,4-bis(oxidanyl)-N'-[(1S)-1-oxidanyl-2,3-dihydro-1H-inden-2-yl]-2,5-bis(phenylmethoxy)hexanediamide
> <PUBCHEM_IUPAC_TRADITIONAL_NAME>
(2R,3R,4R,5R)-2,5-dibenzoxy-3,4-dihydroxy-N-[(1S)-1-hydroxyindan-2-yl]-N'-[(1S)-2-methyl-1-(methylcarbamoyl)propyl]adipamide
> <PUBCHEM_IUPAC_INCHI>
InChI=1S/C35H43N3O8/c1-21(2)27(33(42)36-3)38-35(44)32(46-20-23-14-8-5-9-15-23)30(41)29(40)31(45-19-22-12-6-4-7-13-22)34(43)37-26-18-24-16-10-11-17-25(24)28(26)39/h4-17,21,26-32,39-41H,18-20H2,1-3H3,(H,36,42)(H,37,43)(H,38,44)/t26?,27-,28-,29+,30+,31+,32+/m0/s1
> <PUBCHEM_IUPAC_INCHIKEY>
XIHPBAGHPOWSDV-WTAPNGTKSA-N
> <PUBCHEM_XLOGP3_AA>
2.7
> <PUBCHEM_EXACT_MASS>
633.30501534
> <PUBCHEM_MOLECULAR_FORMULA>
C35H43N3O8
> <PUBCHEM_MOLECULAR_WEIGHT>
633.7
> <PUBCHEM_OPENEYE_CAN_SMILES>
CC(C)C(C(=O)NC)NC(=O)C(C(C(C(C(=O)NC1CC2=CC=CC=C2C1O)OCC3=CC=CC=C3)O)O)OCC4=CC=CC=C4
> <PUBCHEM_OPENEYE_ISO_SMILES>
CC(C)[C@@H](C(=O)NC)NC(=O)[C@@H]([C@@H]([C@H]([C@H](C(=O)NC1CC2=CC=CC=C2[C@@H]1O)OCC3=CC=CC=C3)O)O)OCC4=CC=CC=C4
> <PUBCHEM_CACTVS_TPSA>
166
> <PUBCHEM_MONOISOTOPIC_WEIGHT>
633.30501534
> <PUBCHEM_TOTAL_CHARGE>
0
> <PUBCHEM_HEAVY_ATOM_COUNT>
46
> <PUBCHEM_ATOM_DEF_STEREO_COUNT>
6
> <PUBCHEM_ATOM_UDEF_STEREO_COUNT>
1
> <PUBCHEM_BOND_DEF_STEREO_COUNT>
0
> <PUBCHEM_BOND_UDEF_STEREO_COUNT>
0
> <PUBCHEM_ISOTOPIC_ATOM_COUNT>
0
> <PUBCHEM_COMPONENT_COUNT>
1
> <PUBCHEM_CACTVS_TAUTO_COUNT>
-1
> <PUBCHEM_COORDINATE_TYPE>
1
5
255
> <PUBCHEM_BONDANNOTATIONS>
13  1  6
27  10  5
15  16  8
15  21  8
16  22  8
17  2  6
21  24  8
22  25  8
24  25  8
18  3  5
34  36  8
34  37  8
35  38  8
35  39  8
36  41  8
37  42  8
38  44  8
39  45  8
23  4  6
41  43  8
42  43  8
44  46  8
45  46  8
20  5  5
12  9  3
$$$$
