505930
  -OEChem-10302200282D
 48 48  0     1  0  0  0  0  0999 V2000
    4.5981   -1.1900    0.0000 S   0  0  0  0  0  0  0  0  0  0  0  0
    4.5981    0.8100    0.0000 O   0  0  0  0  0  0  0  0  0  0  0  0
    7.1962   -2.6900    0.0000 O   0  0  0  0  0  0  0  0  0  0  0  0
    5.4641   -2.6900    0.0000 O   0  0  0  0  0  0  0  0  0  0  0  0
    4.5981    1.8100    0.0000 O   0  0  0  0  0  0  0  0  0  0  0  0
    6.3301    1.8100    0.0000 N   0  0  0  0  0  0  0  0  0  0  0  0
    8.0622    0.8100    0.0000 N   0  0  0  0  0  0  0  0  0  0  0  0
    6.3301    0.8100    0.0000 C   0  0  2  0  0  0  0  0  0  0  0  0
    7.1962    0.3100    0.0000 C   0  0  2  0  0  0  0  0  0  0  0  0
    5.4641    0.3100    0.0000 C   0  0  1  0  0  0  0  0  0  0  0  0
    7.1962   -0.6900    0.0000 C   0  0  0  0  0  0  0  0  0  0  0  0
    5.4641   -0.6900    0.0000 C   0  0  0  0  0  0  0  0  0  0  0  0
    6.3301   -1.1900    0.0000 C   0  0  0  0  0  0  0  0  0  0  0  0
    3.7320    0.3100    0.0000 C   0  0  0  0  0  0  0  0  0  0  0  0
    2.8660    0.8100    0.0000 C   0  0  0  0  0  0  0  0  0  0  0  0
    3.7320   -0.6900    0.0000 C   0  0  0  0  0  0  0  0  0  0  0  0
    6.3301   -2.1900    0.0000 C   0  0  0  0  0  0  0  0  0  0  0  0
    5.4641    2.3100    0.0000 C   0  0  0  0  0  0  0  0  0  0  0  0
    2.0000    0.3100    0.0000 C   0  0  0  0  0  0  0  0  0  0  0  0
    2.8660   -1.1900    0.0000 C   0  0  0  0  0  0  0  0  0  0  0  0
    4.5981   -2.1900    0.0000 C   0  0  0  0  0  0  0  0  0  0  0  0
    5.4641    3.3100    0.0000 C   0  0  0  0  0  0  0  0  0  0  0  0
    6.8671    1.1200    0.0000 H   0  0  0  0  0  0  0  0  0  0  0  0
    7.7331   -0.0000    0.0000 H   0  0  0  0  0  0  0  0  0  0  0  0
    5.4641    0.9300    0.0000 H   0  0  0  0  0  0  0  0  0  0  0  0
    7.4082   -1.2726    0.0000 H   0  0  0  0  0  0  0  0  0  0  0  0
    7.8067   -0.5823    0.0000 H   0  0  0  0  0  0  0  0  0  0  0  0
    3.7320    0.9300    0.0000 H   0  0  0  0  0  0  0  0  0  0  0  0
    6.8671    2.1200    0.0000 H   0  0  0  0  0  0  0  0  0  0  0  0
    8.5991    0.5000    0.0000 H   0  0  0  0  0  0  0  0  0  0  0  0
    8.0622    1.4300    0.0000 H   0  0  0  0  0  0  0  0  0  0  0  0
    3.2646    1.2850    0.0000 H   0  0  0  0  0  0  0  0  0  0  0  0
    2.4675    1.2850    0.0000 H   0  0  0  0  0  0  0  0  0  0  0  0
    3.9441   -1.2726    0.0000 H   0  0  0  0  0  0  0  0  0  0  0  0
    4.3426   -0.5823    0.0000 H   0  0  0  0  0  0  0  0  0  0  0  0
    1.6900    0.8469    0.0000 H   0  0  0  0  0  0  0  0  0  0  0  0
    1.4631    0.0000    0.0000 H   0  0  0  0  0  0  0  0  0  0  0  0
    2.3100   -0.2269    0.0000 H   0  0  0  0  0  0  0  0  0  0  0  0
    2.5560   -0.6531    0.0000 H   0  0  0  0  0  0  0  0  0  0  0  0
    2.3291   -1.5000    0.0000 H   0  0  0  0  0  0  0  0  0  0  0  0
    3.1760   -1.7269    0.0000 H   0  0  0  0  0  0  0  0  0  0  0  0
    3.9781   -2.1900    0.0000 H   0  0  0  0  0  0  0  0  0  0  0  0
    4.5981   -2.8100    0.0000 H   0  0  0  0  0  0  0  0  0  0  0  0
    5.2181   -2.1900    0.0000 H   0  0  0  0  0  0  0  0  0  0  0  0
    6.0841    3.3100    0.0000 H   0  0  0  0  0  0  0  0  0  0  0  0
    5.4641    3.9300    0.0000 H   0  0  0  0  0  0  0  0  0  0  0  0
    4.8441    3.3100    0.0000 H   0  0  0  0  0  0  0  0  0  0  0  0
    7.1962   -3.3100    0.0000 H   0  0  0  0  0  0  0  0  0  0  0  0
  1 12  1  0  0  0  0
  1 21  1  0  0  0  0
 10  2  1  1  0  0  0
  2 14  1  0  0  0  0
  3 17  1  0  0  0  0
  3 48  1  0  0  0  0
  4 17  2  0  0  0  0
  5 18  2  0  0  0  0
  8  6  1  6  0  0  0
  6 18  1  0  0  0  0
  6 29  1  0  0  0  0
  9  7  1  1  0  0  0
  7 30  1  0  0  0  0
  7 31  1  0  0  0  0
  8  9  1  0  0  0  0
  8 10  1  0  0  0  0
  8 23  1  0  0  0  0
  9 11  1  0  0  0  0
  9 24  1  0  0  0  0
 10 12  1  0  0  0  0
 10 25  1  0  0  0  0
 11 13  1  0  0  0  0
 11 26  1  0  0  0  0
 11 27  1  0  0  0  0
 12 13  2  0  0  0  0
 13 17  1  0  0  0  0
 14 15  1  0  0  0  0
 14 16  1  0  0  0  0
 14 28  1  0  0  0  0
 15 19  1  0  0  0  0
 15 32  1  0  0  0  0
 15 33  1  0  0  0  0
 16 20  1  0  0  0  0
 16 34  1  0  0  0  0
 16 35  1  0  0  0  0
 18 22  1  0  0  0  0
 19 36  1  0  0  0  0
 19 37  1  0  0  0  0
 19 38  1  0  0  0  0
 20 39  1  0  0  0  0
 20 40  1  0  0  0  0
 20 41  1  0  0  0  0
 21 42  1  0  0  0  0
 21 43  1  0  0  0  0
 21 44  1  0  0  0  0
 22 45  1  0  0  0  0
 22 46  1  0  0  0  0
 22 47  1  0  0  0  0
M  END
> <PUBCHEM_COMPOUND_CID>
505930
> <PUBCHEM_COMPOUND_CANONICALIZED>
1
> <PUBCHEM_CACTVS_COMPLEXITY>
449
> <PUBCHEM_CACTVS_HBOND_ACCEPTOR>
6
> <PUBCHEM_CACTVS_HBOND_DONOR>
3
> <PUBCHEM_CACTVS_ROTATABLE_BOND>
7
> <PUBCHEM_CACTVS_SUBSKEYS>
AAADceBzOABAAAAAAAAAAAAAAAAAAAAAAAAgAAAAAAAAAAAAAAAAHgQQCAAADDzhwAaCCALABgiIAgHQGAAAAAAgABAACIEIAEgCRBIgoAAXUAAGlgCYMQO82SOQAAAAAAAAAAAAAAAAAAAAAAAAAAAAAA==
> <PUBCHEM_IUPAC_OPENEYE_NAME>
(3S,4R,5S)-4-acetamido-5-amino-3-(1-ethylpropoxy)-2-methylsulfanyl-cyclohexene-1-carboxylic acid
> <PUBCHEM_IUPAC_CAS_NAME>
(3S,4R,5S)-4-acetamido-5-amino-2-(methylthio)-3-pentan-3-yloxy-1-cyclohexenecarboxylic acid
> <PUBCHEM_IUPAC_NAME_MARKUP>
(3<I>S</I>,4<I>R</I>,5<I>S</I>)-4-acetamido-5-amino-2-methylsulfanyl-3-pentan-3-yloxycyclohexene-1-carboxylic acid
> <PUBCHEM_IUPAC_NAME>
(3S,4R,5S)-4-acetamido-5-amino-2-methylsulfanyl-3-pentan-3-yloxycyclohexene-1-carboxylic acid
> <PUBCHEM_IUPAC_SYSTEMATIC_NAME>
(3S,4R,5S)-4-acetamido-5-azanyl-2-methylsulfanyl-3-pentan-3-yloxy-cyclohexene-1-carboxylic acid
> <PUBCHEM_IUPAC_TRADITIONAL_NAME>
(3S,4R,5S)-4-acetamido-5-amino-3-(1-ethylpropoxy)-2-(methylthio)cyclohexene-1-carboxylic acid
> <PUBCHEM_IUPAC_INCHI>
InChI=1S/C15H26N2O4S/c1-5-9(6-2)21-13-12(17-8(3)18)11(16)7-10(15(19)20)14(13)22-4/h9,11-13H,5-7,16H2,1-4H3,(H,17,18)(H,19,20)/t11-,12+,13-/m0/s1
> <PUBCHEM_IUPAC_INCHIKEY>
MILZGVDOBKGGQY-XQQFMLRXSA-N
> <PUBCHEM_XLOGP3_AA>
-1.6
> <PUBCHEM_EXACT_MASS>
330.16132849
> <PUBCHEM_MOLECULAR_FORMULA>
C15H26N2O4S
> <PUBCHEM_MOLECULAR_WEIGHT>
330.4
> <PUBCHEM_OPENEYE_CAN_SMILES>
CCC(CC)OC1C(C(CC(=C1SC)C(=O)O)N)NC(=O)C
> <PUBCHEM_OPENEYE_ISO_SMILES>
CCC(CC)O[C@H]1[C@@H]([C@H](CC(=C1SC)C(=O)O)N)NC(=O)C
> <PUBCHEM_CACTVS_TPSA>
127
> <PUBCHEM_MONOISOTOPIC_WEIGHT>
330.16132849
> <PUBCHEM_TOTAL_CHARGE>
0
> <PUBCHEM_HEAVY_ATOM_COUNT>
22
> <PUBCHEM_ATOM_DEF_STEREO_COUNT>
3
> <PUBCHEM_ATOM_UDEF_STEREO_COUNT>
0
> <PUBCHEM_BOND_DEF_STEREO_COUNT>
0
> <PUBCHEM_BOND_UDEF_STEREO_COUNT>
0
> <PUBCHEM_ISOTOPIC_ATOM_COUNT>
0
> <PUBCHEM_COMPONENT_COUNT>
1
> <PUBCHEM_CACTVS_TAUTO_COUNT>
-1
> <PUBCHEM_COORDINATE_TYPE>
1
5
255
> <PUBCHEM_BONDANNOTATIONS>
10  2  5
8  6  6
9  7  5
$$$$
