505940
  -OEChem-10302200282D
 49 50  0     1  0  0  0  0  0999 V2000
    5.1350   -0.8060    0.0000 O   0  0  0  0  0  0  0  0  0  0  0  0
    6.0010    1.6940    0.0000 O   0  0  0  0  0  0  0  0  0  0  0  0
    2.7690    2.5601    0.0000 O   0  0  0  0  0  0  0  0  0  0  0  0
    3.4030   -2.8060    0.0000 O   0  0  0  0  0  0  0  0  0  0  0  0
    5.1350   -2.8060    0.0000 O   0  0  0  0  0  0  0  0  0  0  0  0
    4.2690    1.6940    0.0000 N   0  0  0  0  0  0  0  0  0  0  0  0
    6.8671    0.1940    0.0000 N   0  0  0  0  0  0  0  0  0  0  0  0
    2.5369    0.6940    0.0000 N   0  0  0  0  0  0  0  0  0  0  0  0
    4.2690    0.6940    0.0000 C   0  0  1  0  0  0  0  0  0  0  0  0
    5.1350    0.1940    0.0000 C   0  0  2  0  0  0  0  0  0  0  0  0
    3.4030    0.1940    0.0000 C   0  0  2  0  0  0  0  0  0  0  0  0
    6.0010    0.6940    0.0000 C   0  0  0  0  0  0  0  0  0  0  0  0
    3.4030   -0.8060    0.0000 C   0  0  0  0  0  0  0  0  0  0  0  0
    4.2690   -1.3060    0.0000 C   0  0  0  0  0  0  0  0  0  0  0  0
    7.7331    0.6940    0.0000 C   0  0  0  0  0  0  0  0  0  0  0  0
    8.5991    0.1940    0.0000 C   0  0  0  0  0  0  0  0  0  0  0  0
    3.7690    2.5600    0.0000 C   0  0  0  0  0  0  0  0  0  0  0  0
    6.8671   -0.8060    0.0000 C   0  0  0  0  0  0  0  0  0  0  0  0
    4.2690   -2.3060    0.0000 C   0  0  0  0  0  0  0  0  0  0  0  0
    9.4651    0.6940    0.0000 C   0  0  0  0  0  0  0  0  0  0  0  0
    4.2690    3.4260    0.0000 C   0  0  0  0  0  0  0  0  0  0  0  0
    9.4651    1.6940    0.0000 C   0  0  0  0  0  0  0  0  0  0  0  0
   10.3312    0.1940    0.0000 C   0  0  0  0  0  0  0  0  0  0  0  0
   10.3312    2.1940    0.0000 C   0  0  0  0  0  0  0  0  0  0  0  0
   11.1972    0.6940    0.0000 C   0  0  0  0  0  0  0  0  0  0  0  0
   11.1972    1.6940    0.0000 C   0  0  0  0  0  0  0  0  0  0  0  0
    4.8059    1.0040    0.0000 H   0  0  0  0  0  0  0  0  0  0  0  0
    5.6720   -0.1160    0.0000 H   0  0  0  0  0  0  0  0  0  0  0  0
    3.4030    0.8140    0.0000 H   0  0  0  0  0  0  0  0  0  0  0  0
    2.8660   -1.1160    0.0000 H   0  0  0  0  0  0  0  0  0  0  0  0
    4.8059    2.0040    0.0000 H   0  0  0  0  0  0  0  0  0  0  0  0
    8.1316    1.1689    0.0000 H   0  0  0  0  0  0  0  0  0  0  0  0
    7.3346    1.1689    0.0000 H   0  0  0  0  0  0  0  0  0  0  0  0
    2.0000    0.3840    0.0000 H   0  0  0  0  0  0  0  0  0  0  0  0
    2.2269    1.2309    0.0000 H   0  0  0  0  0  0  0  0  0  0  0  0
    8.2006   -0.2810    0.0000 H   0  0  0  0  0  0  0  0  0  0  0  0
    8.9976   -0.2810    0.0000 H   0  0  0  0  0  0  0  0  0  0  0  0
    6.2471   -0.8060    0.0000 H   0  0  0  0  0  0  0  0  0  0  0  0
    6.8671   -1.4260    0.0000 H   0  0  0  0  0  0  0  0  0  0  0  0
    7.4871   -0.8060    0.0000 H   0  0  0  0  0  0  0  0  0  0  0  0
    4.8059    3.1160    0.0000 H   0  0  0  0  0  0  0  0  0  0  0  0
    4.5790    3.9630    0.0000 H   0  0  0  0  0  0  0  0  0  0  0  0
    3.7320    3.7360    0.0000 H   0  0  0  0  0  0  0  0  0  0  0  0
    8.9282    2.0040    0.0000 H   0  0  0  0  0  0  0  0  0  0  0  0
   10.3312   -0.4260    0.0000 H   0  0  0  0  0  0  0  0  0  0  0  0
    3.4030   -3.4260    0.0000 H   0  0  0  0  0  0  0  0  0  0  0  0
   10.3312    2.8140    0.0000 H   0  0  0  0  0  0  0  0  0  0  0  0
   11.7341    0.3840    0.0000 H   0  0  0  0  0  0  0  0  0  0  0  0
   11.7341    2.0040    0.0000 H   0  0  0  0  0  0  0  0  0  0  0  0
  1 10  1  0  0  0  0
  1 14  1  0  0  0  0
  2 12  2  0  0  0  0
  3 17  2  0  0  0  0
  4 19  1  0  0  0  0
  4 46  1  0  0  0  0
  5 19  2  0  0  0  0
  9  6  1  1  0  0  0
  6 17  1  0  0  0  0
  6 31  1  0  0  0  0
  7 12  1  0  0  0  0
  7 15  1  0  0  0  0
  7 18  1  0  0  0  0
 11  8  1  6  0  0  0
  8 34  1  0  0  0  0
  8 35  1  0  0  0  0
  9 10  1  0  0  0  0
  9 11  1  0  0  0  0
  9 27  1  0  0  0  0
 10 12  1  6  0  0  0
 10 28  1  0  0  0  0
 11 13  1  0  0  0  0
 11 29  1  0  0  0  0
 13 14  2  0  0  0  0
 13 30  1  0  0  0  0
 14 19  1  0  0  0  0
 15 16  1  0  0  0  0
 15 32  1  0  0  0  0
 15 33  1  0  0  0  0
 16 20  1  0  0  0  0
 16 36  1  0  0  0  0
 16 37  1  0  0  0  0
 17 21  1  0  0  0  0
 18 38  1  0  0  0  0
 18 39  1  0  0  0  0
 18 40  1  0  0  0  0
 20 22  2  0  0  0  0
 20 23  1  0  0  0  0
 21 41  1  0  0  0  0
 21 42  1  0  0  0  0
 21 43  1  0  0  0  0
 22 24  1  0  0  0  0
 22 44  1  0  0  0  0
 23 25  2  0  0  0  0
 23 45  1  0  0  0  0
 24 26  2  0  0  0  0
 24 47  1  0  0  0  0
 25 26  1  0  0  0  0
 25 48  1  0  0  0  0
 26 49  1  0  0  0  0
M  END
> <PUBCHEM_COMPOUND_CID>
505940
> <PUBCHEM_COMPOUND_CANONICALIZED>
1
> <PUBCHEM_CACTVS_COMPLEXITY>
571
> <PUBCHEM_CACTVS_HBOND_ACCEPTOR>
6
> <PUBCHEM_CACTVS_HBOND_DONOR>
3
> <PUBCHEM_CACTVS_ROTATABLE_BOND>
6
> <PUBCHEM_CACTVS_SUBSKEYS>
AAADceB7OAAAAAAAAAAAAAAAAAAAAAAAAAAwQAAAAAAAAAABAAAAHgAQCAAADDzhmAYyCIPABgCIAiHSGAKCCAAgIAAIiIFIAMgLZDqA0RWXMAAmlgCbmYccgIAOAAAAAAAAAAAAAAAAAAAAAAAAAAAAAA==
> <PUBCHEM_IUPAC_OPENEYE_NAME>
(2R,3R,4S)-3-acetamido-4-amino-2-[methyl(2-phenylethyl)carbamoyl]-3,4-dihydro-2H-pyran-6-carboxylic acid
> <PUBCHEM_IUPAC_CAS_NAME>
(2R,3R,4S)-3-acetamido-4-amino-2-[[methyl(2-phenylethyl)amino]-oxomethyl]-3,4-dihydro-2H-pyran-6-carboxylic acid
> <PUBCHEM_IUPAC_NAME_MARKUP>
(2<I>R</I>,3<I>R</I>,4<I>S</I>)-3-acetamido-4-amino-2-[methyl(2-phenylethyl)carbamoyl]-3,4-dihydro-2<I>H</I>-pyran-6-carboxylic acid
> <PUBCHEM_IUPAC_NAME>
(2R,3R,4S)-3-acetamido-4-amino-2-[methyl(2-phenylethyl)carbamoyl]-3,4-dihydro-2H-pyran-6-carboxylic acid
> <PUBCHEM_IUPAC_SYSTEMATIC_NAME>
(2R,3R,4S)-3-acetamido-4-azanyl-2-[methyl(2-phenylethyl)carbamoyl]-3,4-dihydro-2H-pyran-6-carboxylic acid
> <PUBCHEM_IUPAC_TRADITIONAL_NAME>
(2R,3R,4S)-3-acetamido-4-amino-2-[methyl(phenethyl)carbamoyl]-3,4-dihydro-2H-pyran-6-carboxylic acid
> <PUBCHEM_IUPAC_INCHI>
InChI=1S/C18H23N3O5/c1-11(22)20-15-13(19)10-14(18(24)25)26-16(15)17(23)21(2)9-8-12-6-4-3-5-7-12/h3-7,10,13,15-16H,8-9,19H2,1-2H3,(H,20,22)(H,24,25)/t13-,15+,16+/m0/s1
> <PUBCHEM_IUPAC_INCHIKEY>
CKFUCCWIUYBYHB-NUEKZKHPSA-N
> <PUBCHEM_XLOGP3_AA>
-1.7
> <PUBCHEM_EXACT_MASS>
361.16377084
> <PUBCHEM_MOLECULAR_FORMULA>
C18H23N3O5
> <PUBCHEM_MOLECULAR_WEIGHT>
361.4
> <PUBCHEM_OPENEYE_CAN_SMILES>
CC(=O)NC1C(C=C(OC1C(=O)N(C)CCC2=CC=CC=C2)C(=O)O)N
> <PUBCHEM_OPENEYE_ISO_SMILES>
CC(=O)N[C@@H]1[C@H](C=C(O[C@H]1C(=O)N(C)CCC2=CC=CC=C2)C(=O)O)N
> <PUBCHEM_CACTVS_TPSA>
122
> <PUBCHEM_MONOISOTOPIC_WEIGHT>
361.16377084
> <PUBCHEM_TOTAL_CHARGE>
0
> <PUBCHEM_HEAVY_ATOM_COUNT>
26
> <PUBCHEM_ATOM_DEF_STEREO_COUNT>
3
> <PUBCHEM_ATOM_UDEF_STEREO_COUNT>
0
> <PUBCHEM_BOND_DEF_STEREO_COUNT>
0
> <PUBCHEM_BOND_UDEF_STEREO_COUNT>
0
> <PUBCHEM_ISOTOPIC_ATOM_COUNT>
0
> <PUBCHEM_COMPONENT_COUNT>
1
> <PUBCHEM_CACTVS_TAUTO_COUNT>
-1
> <PUBCHEM_COORDINATE_TYPE>
1
5
255
> <PUBCHEM_BONDANNOTATIONS>
10  12  6
20  22  8
20  23  8
22  24  8
23  25  8
24  26  8
25  26  8
9  6  5
11  8  6
$$$$
