505981
  -OEChem-10302200282D
 88 93  0     1  0  0  0  0  0999 V2000
    8.5620    2.8679    0.0000 O   0  0  0  0  0  0  0  0  0  0  0  0
    6.2619   -4.3190    0.0000 O   0  0  0  0  0  0  0  0  0  0  0  0
    9.2136   -0.7884    0.0000 O   0  0  0  0  0  0  0  0  0  0  0  0
    5.6103   -0.6627    0.0000 O   0  0  0  0  0  0  0  0  0  0  0  0
    6.8994    0.4940    0.0000 O   0  0  0  0  0  0  0  0  0  0  0  0
    7.9244   -1.9451    0.0000 O   0  0  0  0  0  0  0  0  0  0  0  0
    8.1886    1.6508    0.0000 O   0  0  0  0  0  0  0  0  0  0  0  0
    6.6353   -3.1018    0.0000 O   0  0  0  0  0  0  0  0  0  0  0  0
    9.8349    1.1127    0.0000 N   0  0  0  0  0  0  0  0  0  0  0  0
    4.9889   -2.5638    0.0000 N   0  0  0  0  0  0  0  0  0  0  0  0
   10.1456    2.0632    0.0000 C   0  0  3  0  0  0  0  0  0  0  0  0
    4.6783   -3.5143    0.0000 C   0  0  2  0  0  0  0  0  0  0  0  0
    9.5620    2.8679    0.0000 C   0  0  2  0  0  0  0  0  0  0  0  0
    5.2619   -4.3190    0.0000 C   0  0  1  0  0  0  0  0  0  0  0  0
   11.0918    2.3679    0.0000 C   0  0  0  0  0  0  0  0  0  0  0  0
    4.6783   -5.1237    0.0000 C   0  0  0  0  0  0  0  0  0  0  0  0
    3.7320   -3.8190    0.0000 C   0  0  0  0  0  0  0  0  0  0  0  0
   10.1456    3.6727    0.0000 C   0  0  0  0  0  0  0  0  0  0  0  0
   11.0961    3.3620    0.0000 C   0  0  0  0  0  0  0  0  0  0  0  0
    3.7320   -4.8190    0.0000 C   0  0  0  0  0  0  0  0  0  0  0  0
    7.5673   -0.2503    0.0000 C   0  0  2  0  0  0  0  0  0  0  0  0
    7.2566   -1.2008    0.0000 C   0  0  2  0  0  0  0  0  0  0  0  0
    8.5458   -0.0441    0.0000 C   0  0  2  0  0  0  0  0  0  0  0  0
    6.2781   -1.4070    0.0000 C   0  0  2  0  0  0  0  0  0  0  0  0
    8.8564    0.9065    0.0000 C   0  0  0  0  0  0  0  0  0  0  0  0
    5.9674   -2.3575    0.0000 C   0  0  0  0  0  0  0  0  0  0  0  0
    2.8660   -3.3190    0.0000 C   0  0  0  0  0  0  0  0  0  0  0  0
    9.9394    4.6512    0.0000 C   0  0  0  0  0  0  0  0  0  0  0  0
   11.8404    4.0298    0.0000 C   0  0  0  0  0  0  0  0  0  0  0  0
    2.8660   -5.3190    0.0000 C   0  0  0  0  0  0  0  0  0  0  0  0
    2.0000   -3.8190    0.0000 C   0  0  0  0  0  0  0  0  0  0  0  0
   10.6837    5.3190    0.0000 C   0  0  0  0  0  0  0  0  0  0  0  0
   11.6342    5.0084    0.0000 C   0  0  0  0  0  0  0  0  0  0  0  0
    2.0000   -4.8190    0.0000 C   0  0  0  0  0  0  0  0  0  0  0  0
   10.1921   -0.5821    0.0000 C   0  0  0  0  0  0  0  0  0  0  0  0
    5.9209    0.2878    0.0000 C   0  0  0  0  0  0  0  0  0  0  0  0
   10.8600   -1.3264    0.0000 C   0  0  0  0  0  0  0  0  0  0  0  0
    5.2531    1.0321    0.0000 C   0  0  0  0  0  0  0  0  0  0  0  0
   10.5493   -2.2770    0.0000 C   0  0  0  0  0  0  0  0  0  0  0  0
   11.8385   -1.1202    0.0000 C   0  0  0  0  0  0  0  0  0  0  0  0
    4.2746    0.8259    0.0000 C   0  0  0  0  0  0  0  0  0  0  0  0
    5.5637    1.9826    0.0000 C   0  0  0  0  0  0  0  0  0  0  0  0
   11.2171   -3.0213    0.0000 C   0  0  0  0  0  0  0  0  0  0  0  0
   12.5063   -1.8645    0.0000 C   0  0  0  0  0  0  0  0  0  0  0  0
    3.6067    1.5702    0.0000 C   0  0  0  0  0  0  0  0  0  0  0  0
    4.8959    2.7269    0.0000 C   0  0  0  0  0  0  0  0  0  0  0  0
   12.1957   -2.8150    0.0000 C   0  0  0  0  0  0  0  0  0  0  0  0
    3.9174    2.5207    0.0000 C   0  0  0  0  0  0  0  0  0  0  0  0
   10.5831    1.6238    0.0000 H   0  0  0  0  0  0  0  0  0  0  0  0
    5.2908   -3.4181    0.0000 H   0  0  0  0  0  0  0  0  0  0  0  0
    9.2803    3.4202    0.0000 H   0  0  0  0  0  0  0  0  0  0  0  0
    5.5436   -4.8713    0.0000 H   0  0  0  0  0  0  0  0  0  0  0  0
   11.2188    1.7611    0.0000 H   0  0  0  0  0  0  0  0  0  0  0  0
   11.7087    2.4304    0.0000 H   0  0  0  0  0  0  0  0  0  0  0  0
    4.4272   -5.6906    0.0000 H   0  0  0  0  0  0  0  0  0  0  0  0
    5.2156   -5.4330    0.0000 H   0  0  0  0  0  0  0  0  0  0  0  0
   10.2490    0.6512    0.0000 H   0  0  0  0  0  0  0  0  0  0  0  0
    6.9606   -0.3781    0.0000 H   0  0  0  0  0  0  0  0  0  0  0  0
    7.0640   -1.7901    0.0000 H   0  0  0  0  0  0  0  0  0  0  0  0
    4.5749   -2.1023    0.0000 H   0  0  0  0  0  0  0  0  0  0  0  0
    8.3532   -0.6334    0.0000 H   0  0  0  0  0  0  0  0  0  0  0  0
    5.6714   -1.5349    0.0000 H   0  0  0  0  0  0  0  0  0  0  0  0
    2.8660   -2.6990    0.0000 H   0  0  0  0  0  0  0  0  0  0  0  0
    9.3501    4.8438    0.0000 H   0  0  0  0  0  0  0  0  0  0  0  0
   12.4298    3.8372    0.0000 H   0  0  0  0  0  0  0  0  0  0  0  0
    2.8660   -5.9390    0.0000 H   0  0  0  0  0  0  0  0  0  0  0  0
    8.2520    3.4049    0.0000 H   0  0  0  0  0  0  0  0  0  0  0  0
    6.5719   -4.8560    0.0000 H   0  0  0  0  0  0  0  0  0  0  0  0
    1.4631   -3.5090    0.0000 H   0  0  0  0  0  0  0  0  0  0  0  0
   10.5558    5.9257    0.0000 H   0  0  0  0  0  0  0  0  0  0  0  0
   12.0957    5.4224    0.0000 H   0  0  0  0  0  0  0  0  0  0  0  0
    1.4631   -5.1290    0.0000 H   0  0  0  0  0  0  0  0  0  0  0  0
    7.0920    1.0833    0.0000 H   0  0  0  0  0  0  0  0  0  0  0  0
    8.5311   -1.8172    0.0000 H   0  0  0  0  0  0  0  0  0  0  0  0
   10.7185   -0.2545    0.0000 H   0  0  0  0  0  0  0  0  0  0  0  0
    9.9609   -0.0069    0.0000 H   0  0  0  0  0  0  0  0  0  0  0  0
    6.4678   -0.0042    0.0000 H   0  0  0  0  0  0  0  0  0  0  0  0
    6.3035    0.7757    0.0000 H   0  0  0  0  0  0  0  0  0  0  0  0
    9.9426   -2.4048    0.0000 H   0  0  0  0  0  0  0  0  0  0  0  0
   12.0311   -0.5309    0.0000 H   0  0  0  0  0  0  0  0  0  0  0  0
    4.0820    0.2366    0.0000 H   0  0  0  0  0  0  0  0  0  0  0  0
    6.1704    2.1105    0.0000 H   0  0  0  0  0  0  0  0  0  0  0  0
   11.0245   -3.6106    0.0000 H   0  0  0  0  0  0  0  0  0  0  0  0
   13.1130   -1.7367    0.0000 H   0  0  0  0  0  0  0  0  0  0  0  0
    3.0000    1.4423    0.0000 H   0  0  0  0  0  0  0  0  0  0  0  0
    5.0885    3.3162    0.0000 H   0  0  0  0  0  0  0  0  0  0  0  0
   12.6097   -3.2765    0.0000 H   0  0  0  0  0  0  0  0  0  0  0  0
    3.5033    2.9822    0.0000 H   0  0  0  0  0  0  0  0  0  0  0  0
 13  1  1  1  0  0  0
  1 67  1  0  0  0  0
 14  2  1  6  0  0  0
  2 68  1  0  0  0  0
 23  3  1  6  0  0  0
  3 35  1  0  0  0  0
 24  4  1  6  0  0  0
  4 36  1  0  0  0  0
 21  5  1  1  0  0  0
  5 73  1  0  0  0  0
 22  6  1  1  0  0  0
  6 74  1  0  0  0  0
  7 25  2  0  0  0  0
  8 26  2  0  0  0  0
  9 11  1  0  0  0  0
  9 25  1  0  0  0  0
  9 57  1  0  0  0  0
 12 10  1  6  0  0  0
 10 26  1  0  0  0  0
 10 60  1  0  0  0  0
 11 13  1  0  0  0  0
 11 15  1  0  0  0  0
 11 49  1  0  0  0  0
 12 14  1  0  0  0  0
 12 17  1  0  0  0  0
 12 50  1  0  0  0  0
 13 18  1  0  0  0  0
 13 51  1  0  0  0  0
 14 16  1  0  0  0  0
 14 52  1  0  0  0  0
 15 19  1  0  0  0  0
 15 53  1  0  0  0  0
 15 54  1  0  0  0  0
 16 20  1  0  0  0  0
 16 55  1  0  0  0  0
 16 56  1  0  0  0  0
 17 20  1  0  0  0  0
 17 27  2  0  0  0  0
 18 19  1  0  0  0  0
 18 28  2  0  0  0  0
 19 29  2  0  0  0  0
 20 30  2  0  0  0  0
 21 22  1  0  0  0  0
 21 23  1  0  0  0  0
 21 58  1  0  0  0  0
 22 24  1  0  0  0  0
 22 59  1  0  0  0  0
 23 25  1  0  0  0  0
 23 61  1  0  0  0  0
 24 26  1  0  0  0  0
 24 62  1  0  0  0  0
 27 31  1  0  0  0  0
 27 63  1  0  0  0  0
 28 32  1  0  0  0  0
 28 64  1  0  0  0  0
 29 33  1  0  0  0  0
 29 65  1  0  0  0  0
 30 34  1  0  0  0  0
 30 66  1  0  0  0  0
 31 34  2  0  0  0  0
 31 69  1  0  0  0  0
 32 33  2  0  0  0  0
 32 70  1  0  0  0  0
 33 71  1  0  0  0  0
 34 72  1  0  0  0  0
 35 37  1  0  0  0  0
 35 75  1  0  0  0  0
 35 76  1  0  0  0  0
 36 38  1  0  0  0  0
 36 77  1  0  0  0  0
 36 78  1  0  0  0  0
 37 39  2  0  0  0  0
 37 40  1  0  0  0  0
 38 41  2  0  0  0  0
 38 42  1  0  0  0  0
 39 43  1  0  0  0  0
 39 79  1  0  0  0  0
 40 44  2  0  0  0  0
 40 80  1  0  0  0  0
 41 45  1  0  0  0  0
 41 81  1  0  0  0  0
 42 46  2  0  0  0  0
 42 82  1  0  0  0  0
 43 47  2  0  0  0  0
 43 83  1  0  0  0  0
 44 47  1  0  0  0  0
 44 84  1  0  0  0  0
 45 48  2  0  0  0  0
 45 85  1  0  0  0  0
 46 48  1  0  0  0  0
 46 86  1  0  0  0  0
 47 87  1  0  0  0  0
 48 88  1  0  0  0  0
M  END
> <PUBCHEM_COMPOUND_CID>
505981
> <PUBCHEM_COMPOUND_CANONICALIZED>
1
> <PUBCHEM_CACTVS_COMPLEXITY>
1030
> <PUBCHEM_CACTVS_HBOND_ACCEPTOR>
8
> <PUBCHEM_CACTVS_HBOND_DONOR>
6
> <PUBCHEM_CACTVS_ROTATABLE_BOND>
13
> <PUBCHEM_CACTVS_SUBSKEYS>
AAADcfB/PAAAAAAAAAAAAAAAAAAAAYMAAAAwYMGAAAAAAGABVAAAHgAQCAAADDzhmAYwAILABgCIAiFSEAKCAAAgAAAIiIFIDIgLNjaAsR2HcAhn9gGbuAf63KJOgAAAAAAQAAAAAAAAACAAAKAADQgAAA==
> <PUBCHEM_IUPAC_OPENEYE_NAME>
(2R,3R,4R,5R)-2,5-dibenzyloxy-3,4-dihydroxy-N-[(1S)-1-hydroxyindan-2-yl]-N'-[(1S,2R)-2-hydroxyindan-1-yl]hexanediamide
> <PUBCHEM_IUPAC_CAS_NAME>
(2R,3R,4R,5R)-3,4-dihydroxy-N-[(1S)-1-hydroxy-2,3-dihydro-1H-inden-2-yl]-N'-[(1S,2R)-2-hydroxy-2,3-dihydro-1H-inden-1-yl]-2,5-bis(phenylmethoxy)hexanediamide
> <PUBCHEM_IUPAC_NAME_MARKUP>
(2<I>R</I>,3<I>R</I>,4<I>R</I>,5<I>R</I>)-3,4-dihydroxy-<I>N</I>-[(1<I>S</I>)-1-hydroxy-2,3-dihydro-1<I>H</I>-inden-2-yl]-<I>N</I>&apos;-[(1<I>S</I>,2<I>R</I>)-2-hydroxy-2,3-dihydro-1<I>H</I>-inden-1-yl]-2,5-bis(phenylmethoxy)hexanediamide
> <PUBCHEM_IUPAC_NAME>
(2R,3R,4R,5R)-3,4-dihydroxy-N-[(1S)-1-hydroxy-2,3-dihydro-1H-inden-2-yl]-N'-[(1S,2R)-2-hydroxy-2,3-dihydro-1H-inden-1-yl]-2,5-bis(phenylmethoxy)hexanediamide
> <PUBCHEM_IUPAC_SYSTEMATIC_NAME>
(2R,3R,4R,5R)-3,4-bis(oxidanyl)-N-[(1S)-1-oxidanyl-2,3-dihydro-1H-inden-2-yl]-N'-[(1S,2R)-2-oxidanyl-2,3-dihydro-1H-inden-1-yl]-2,5-bis(phenylmethoxy)hexanediamide
> <PUBCHEM_IUPAC_TRADITIONAL_NAME>
(2R,3R,4R,5R)-2,5-dibenzoxy-3,4-dihydroxy-N-[(1S)-1-hydroxyindan-2-yl]-N'-[(1S,2R)-2-hydroxyindan-1-yl]adipamide
> <PUBCHEM_IUPAC_INCHI>
InChI=1S/C38H40N2O8/c41-30-20-26-16-7-9-17-27(26)31(30)40-38(46)36(48-22-24-13-5-2-6-14-24)34(44)33(43)35(47-21-23-11-3-1-4-12-23)37(45)39-29-19-25-15-8-10-18-28(25)32(29)42/h1-18,29-36,41-44H,19-22H2,(H,39,45)(H,40,46)/t29?,30-,31+,32+,33-,34-,35-,36-/m1/s1
> <PUBCHEM_IUPAC_INCHIKEY>
NJBLYTDXINLSTB-AIDZHHCTSA-N
> <PUBCHEM_XLOGP3_AA>
3.4
> <PUBCHEM_EXACT_MASS>
652.27846624
> <PUBCHEM_MOLECULAR_FORMULA>
C38H40N2O8
> <PUBCHEM_MOLECULAR_WEIGHT>
652.7
> <PUBCHEM_OPENEYE_CAN_SMILES>
C1C(C(C2=CC=CC=C21)O)NC(=O)C(C(C(C(C(=O)NC3C(CC4=CC=CC=C34)O)OCC5=CC=CC=C5)O)O)OCC6=CC=CC=C6
> <PUBCHEM_OPENEYE_ISO_SMILES>
C1[C@H]([C@H](C2=CC=CC=C21)NC(=O)[C@@H]([C@@H]([C@H]([C@H](C(=O)NC3CC4=CC=CC=C4[C@@H]3O)OCC5=CC=CC=C5)O)O)OCC6=CC=CC=C6)O
> <PUBCHEM_CACTVS_TPSA>
158
> <PUBCHEM_MONOISOTOPIC_WEIGHT>
652.27846624
> <PUBCHEM_TOTAL_CHARGE>
0
> <PUBCHEM_HEAVY_ATOM_COUNT>
48
> <PUBCHEM_ATOM_DEF_STEREO_COUNT>
7
> <PUBCHEM_ATOM_UDEF_STEREO_COUNT>
1
> <PUBCHEM_BOND_DEF_STEREO_COUNT>
0
> <PUBCHEM_BOND_UDEF_STEREO_COUNT>
0
> <PUBCHEM_ISOTOPIC_ATOM_COUNT>
0
> <PUBCHEM_COMPONENT_COUNT>
1
> <PUBCHEM_CACTVS_TAUTO_COUNT>
-1
> <PUBCHEM_COORDINATE_TYPE>
1
5
255
> <PUBCHEM_BONDANNOTATIONS>
13  1  5
12  10  6
17  20  8
17  27  8
18  19  8
18  28  8
19  29  8
14  2  6
20  30  8
27  31  8
28  32  8
29  33  8
23  3  6
30  34  8
31  34  8
32  33  8
37  39  8
37  40  8
38  41  8
38  42  8
39  43  8
24  4  6
40  44  8
41  45  8
42  46  8
43  47  8
44  47  8
45  48  8
46  48  8
21  5  5
22  6  5
11  9  3
$$$$
