505957
  -OEChem-10302200282D
 45 47  0     1  0  0  0  0  0999 V2000
    2.0000   -0.0427    0.0000 Br  0  0  0  0  0  0  0  0  0  0  0  0
    5.4641   -1.0427    0.0000 O   0  0  0  0  0  0  0  0  0  0  0  0
    5.4641    1.9573    0.0000 O   0  0  0  0  0  0  0  0  0  0  0  0
    8.9282   -1.0427    0.0000 N   0  0  3  0  0  0  0  0  0  0  0  0
    6.3301    0.4573    0.0000 N   0  0  0  0  0  0  0  0  0  0  0  0
    8.9282   -0.0427    0.0000 C   0  0  1  0  0  0  0  0  0  0  0  0
    9.8222   -1.5774    0.0000 C   0  0  1  0  0  0  0  0  0  0  0  0
    8.0622    0.4573    0.0000 C   0  0  0  0  0  0  0  0  0  0  0  0
    9.8222    0.4920    0.0000 C   0  0  0  0  0  0  0  0  0  0  0  0
    7.1962   -0.0427    0.0000 C   0  0  2  0  0  0  0  0  0  0  0  0
    8.0622   -1.5427    0.0000 C   0  0  0  0  0  0  0  0  0  0  0  0
   10.7282   -1.0635    0.0000 C   0  0  0  0  0  0  0  0  0  0  0  0
    7.1962   -1.0427    0.0000 C   0  0  0  0  0  0  0  0  0  0  0  0
   10.7282   -0.0219    0.0000 C   0  0  0  0  0  0  0  0  0  0  0  0
    9.8106   -2.5773    0.0000 C   0  0  0  0  0  0  0  0  0  0  0  0
    5.4641   -0.0427    0.0000 C   0  0  0  0  0  0  0  0  0  0  0  0
    4.5981    0.4573    0.0000 C   0  0  0  0  0  0  0  0  0  0  0  0
    4.5981    1.4573    0.0000 C   0  0  0  0  0  0  0  0  0  0  0  0
    3.7320   -0.0427    0.0000 C   0  0  0  0  0  0  0  0  0  0  0  0
    3.7320    1.9573    0.0000 C   0  0  0  0  0  0  0  0  0  0  0  0
    2.8660    0.4573    0.0000 C   0  0  0  0  0  0  0  0  0  0  0  0
    2.8660    1.4573    0.0000 C   0  0  0  0  0  0  0  0  0  0  0  0
    8.9216    0.8073    0.0000 H   0  0  0  0  0  0  0  0  0  0  0  0
    9.2811   -1.8801    0.0000 H   0  0  0  0  0  0  0  0  0  0  0  0
    8.4607    0.9322    0.0000 H   0  0  0  0  0  0  0  0  0  0  0  0
    7.6636    0.9322    0.0000 H   0  0  0  0  0  0  0  0  0  0  0  0
   10.2158    0.9710    0.0000 H   0  0  0  0  0  0  0  0  0  0  0  0
    9.4176    0.9617    0.0000 H   0  0  0  0  0  0  0  0  0  0  0  0
    6.6592   -0.3527    0.0000 H   0  0  0  0  0  0  0  0  0  0  0  0
    7.6636   -2.0176    0.0000 H   0  0  0  0  0  0  0  0  0  0  0  0
    8.4607   -2.0176    0.0000 H   0  0  0  0  0  0  0  0  0  0  0  0
   10.9373   -1.6472    0.0000 H   0  0  0  0  0  0  0  0  0  0  0  0
   11.3391   -0.9574    0.0000 H   0  0  0  0  0  0  0  0  0  0  0  0
    6.5856   -0.9350    0.0000 H   0  0  0  0  0  0  0  0  0  0  0  0
    6.9841   -1.6253    0.0000 H   0  0  0  0  0  0  0  0  0  0  0  0
   11.3391   -0.1280    0.0000 H   0  0  0  0  0  0  0  0  0  0  0  0
   10.9373    0.5618    0.0000 H   0  0  0  0  0  0  0  0  0  0  0  0
    9.1906   -2.5701    0.0000 H   0  0  0  0  0  0  0  0  0  0  0  0
    9.8034   -3.1973    0.0000 H   0  0  0  0  0  0  0  0  0  0  0  0
   10.4305   -2.5845    0.0000 H   0  0  0  0  0  0  0  0  0  0  0  0
    6.3301    1.0773    0.0000 H   0  0  0  0  0  0  0  0  0  0  0  0
    3.7320   -0.6627    0.0000 H   0  0  0  0  0  0  0  0  0  0  0  0
    3.7320    2.5773    0.0000 H   0  0  0  0  0  0  0  0  0  0  0  0
    2.3291    1.7673    0.0000 H   0  0  0  0  0  0  0  0  0  0  0  0
    5.4641    2.5773    0.0000 H   0  0  0  0  0  0  0  0  0  0  0  0
  1 21  1  0  0  0  0
  2 16  2  0  0  0  0
  3 18  1  0  0  0  0
  3 45  1  0  0  0  0
  4  6  1  0  0  0  0
  4  7  1  0  0  0  0
  4 11  1  0  0  0  0
 10  5  1  6  0  0  0
  5 16  1  0  0  0  0
  5 41  1  0  0  0  0
  6  8  1  0  0  0  0
  6  9  1  0  0  0  0
  6 23  1  6  0  0  0
  7 12  1  0  0  0  0
  7 15  1  1  0  0  0
  7 24  1  0  0  0  0
  8 10  1  0  0  0  0
  8 25  1  0  0  0  0
  8 26  1  0  0  0  0
  9 14  1  0  0  0  0
  9 27  1  0  0  0  0
  9 28  1  0  0  0  0
 10 13  1  0  0  0  0
 10 29  1  0  0  0  0
 11 13  1  0  0  0  0
 11 30  1  0  0  0  0
 11 31  1  0  0  0  0
 12 14  1  0  0  0  0
 12 32  1  0  0  0  0
 12 33  1  0  0  0  0
 13 34  1  0  0  0  0
 13 35  1  0  0  0  0
 14 36  1  0  0  0  0
 14 37  1  0  0  0  0
 15 38  1  0  0  0  0
 15 39  1  0  0  0  0
 15 40  1  0  0  0  0
 16 17  1  0  0  0  0
 17 18  2  0  0  0  0
 17 19  1  0  0  0  0
 18 20  1  0  0  0  0
 19 21  2  0  0  0  0
 19 42  1  0  0  0  0
 20 22  2  0  0  0  0
 20 43  1  0  0  0  0
 21 22  1  0  0  0  0
 22 44  1  0  0  0  0
M  END
> <PUBCHEM_COMPOUND_CID>
505957
> <PUBCHEM_COMPOUND_CANONICALIZED>
1
> <PUBCHEM_CACTVS_COMPLEXITY>
406
> <PUBCHEM_CACTVS_HBOND_ACCEPTOR>
3
> <PUBCHEM_CACTVS_HBOND_DONOR>
2
> <PUBCHEM_CACTVS_ROTATABLE_BOND>
2
> <PUBCHEM_CACTVS_SUBSKEYS>
AAADceB7MAAAEAAAAAAAAAAAAAAAAAAAAAA8WIAAAAAAAACxAAAAHgBQCAABrCzBmAQyBoPAAgCIAiFSEACCAAAkIAQIiIEODOgIJjaC1ROEcUhm9hGIm5eYyKCOABAAEAAIAAAAIAAgABAAAAAAAAAAAA==
> <PUBCHEM_IUPAC_OPENEYE_NAME>
N-[(2S,6R,9aR)-6-methyl-2,3,4,6,7,8,9,9a-octahydro-1H-quinolizin-2-yl]-5-bromo-2-hydroxy-benzamide
> <PUBCHEM_IUPAC_CAS_NAME>
N-[(2S,6R,9aR)-6-methyl-2,3,4,6,7,8,9,9a-octahydro-1H-quinolizin-2-yl]-5-bromo-2-hydroxybenzamide
> <PUBCHEM_IUPAC_NAME_MARKUP>
<I>N</I>-[(2<I>S</I>,6<I>R</I>,9<I>a</I><I>R</I>)-6-methyl-2,3,4,6,7,8,9,9<I>a</I>-octahydro-1<I>H</I>-quinolizin-2-yl]-5-bromo-2-hydroxybenzamide
> <PUBCHEM_IUPAC_NAME>
N-[(2S,6R,9aR)-6-methyl-2,3,4,6,7,8,9,9a-octahydro-1H-quinolizin-2-yl]-5-bromo-2-hydroxybenzamide
> <PUBCHEM_IUPAC_SYSTEMATIC_NAME>
N-[(2S,6R,9aR)-6-methyl-2,3,4,6,7,8,9,9a-octahydro-1H-quinolizin-2-yl]-5-bromanyl-2-oxidanyl-benzamide
> <PUBCHEM_IUPAC_TRADITIONAL_NAME>
N-[(2S,6R,9aR)-6-methylquinolizidin-2-yl]-5-bromo-2-hydroxy-benzamide
> <PUBCHEM_IUPAC_INCHI>
InChI=1S/C17H23BrN2O2/c1-11-3-2-4-14-10-13(7-8-20(11)14)19-17(22)15-9-12(18)5-6-16(15)21/h5-6,9,11,13-14,21H,2-4,7-8,10H2,1H3,(H,19,22)/t11-,13+,14-/m1/s1
> <PUBCHEM_IUPAC_INCHIKEY>
XKZGMYIAKDKOSP-KWCYVHTRSA-N
> <PUBCHEM_XLOGP3_AA>
4
> <PUBCHEM_EXACT_MASS>
366.09429
> <PUBCHEM_MOLECULAR_FORMULA>
C17H23BrN2O2
> <PUBCHEM_MOLECULAR_WEIGHT>
367.3
> <PUBCHEM_OPENEYE_CAN_SMILES>
CC1CCCC2N1CCC(C2)NC(=O)C3=C(C=CC(=C3)Br)O
> <PUBCHEM_OPENEYE_ISO_SMILES>
C[C@@H]1CCC[C@H]2N1CC[C@@H](C2)NC(=O)C3=C(C=CC(=C3)Br)O
> <PUBCHEM_CACTVS_TPSA>
52.6
> <PUBCHEM_MONOISOTOPIC_WEIGHT>
366.09429
> <PUBCHEM_TOTAL_CHARGE>
0
> <PUBCHEM_HEAVY_ATOM_COUNT>
22
> <PUBCHEM_ATOM_DEF_STEREO_COUNT>
3
> <PUBCHEM_ATOM_UDEF_STEREO_COUNT>
0
> <PUBCHEM_BOND_DEF_STEREO_COUNT>
0
> <PUBCHEM_BOND_UDEF_STEREO_COUNT>
0
> <PUBCHEM_ISOTOPIC_ATOM_COUNT>
0
> <PUBCHEM_COMPONENT_COUNT>
1
> <PUBCHEM_CACTVS_TAUTO_COUNT>
-1
> <PUBCHEM_COORDINATE_TYPE>
1
5
255
> <PUBCHEM_BONDANNOTATIONS>
17  18  8
17  19  8
18  20  8
19  21  8
20  22  8
21  22  8
10  5  6
6  23  6
7  15  5
$$$$
