505985
  -OEChem-10302200282D
 61 63  0     1  0  0  0  0  0999 V2000
    7.3180   -1.5433    0.0000 S   0  0  0  0  0  0  0  0  0  0  0  0
    8.2518    1.5483    0.0000 O   0  0  0  0  0  0  0  0  0  0  0  0
    6.3841    1.5483    0.0000 O   0  0  0  0  0  0  0  0  0  0  0  0
    6.8841   -2.4442    0.0000 O   0  0  0  0  0  0  0  0  0  0  0  0
    7.7518   -2.4442    0.0000 O   0  0  0  0  0  0  0  0  0  0  0  0
    9.7111    1.0436    0.0000 O   0  0  0  0  0  0  0  0  0  0  0  0
    4.9248    1.0436    0.0000 O   0  0  0  0  0  0  0  0  0  0  0  0
    8.2189   -1.1094    0.0000 N   0  0  3  0  0  0  0  0  0  0  0  0
    6.4170   -1.1094    0.0000 N   0  0  3  0  0  0  0  0  0  0  0  0
    8.4414   -0.1345    0.0000 C   0  0  1  0  0  0  0  0  0  0  0  0
    6.1945   -0.1345    0.0000 C   0  0  1  0  0  0  0  0  0  0  0  0
    7.8180    0.6474    0.0000 C   0  0  1  0  0  0  0  0  0  0  0  0
    6.8180    0.6474    0.0000 C   0  0  1  0  0  0  0  0  0  0  0  0
    9.4164    0.0881    0.0000 C   0  0  0  0  0  0  0  0  0  0  0  0
    5.2195    0.0881    0.0000 C   0  0  0  0  0  0  0  0  0  0  0  0
    9.0008   -1.7329    0.0000 C   0  0  0  0  0  0  0  0  0  0  0  0
    5.6352   -1.7329    0.0000 C   0  0  0  0  0  0  0  0  0  0  0  0
    9.9316   -1.3675    0.0000 C   0  0  0  0  0  0  0  0  0  0  0  0
    4.7043   -1.3675    0.0000 C   0  0  0  0  0  0  0  0  0  0  0  0
   10.6861    1.2662    0.0000 C   0  0  0  0  0  0  0  0  0  0  0  0
    3.9499    1.2662    0.0000 C   0  0  0  0  0  0  0  0  0  0  0  0
   11.3662    0.5331    0.0000 C   0  0  0  0  0  0  0  0  0  0  0  0
   10.9808    2.2217    0.0000 C   0  0  0  0  0  0  0  0  0  0  0  0
    3.6551    2.2217    0.0000 C   0  0  0  0  0  0  0  0  0  0  0  0
    3.2697    0.5331    0.0000 C   0  0  0  0  0  0  0  0  0  0  0  0
   12.3412    0.7556    0.0000 C   0  0  0  0  0  0  0  0  0  0  0  0
   11.9557    2.4442    0.0000 C   0  0  0  0  0  0  0  0  0  0  0  0
    2.6802    2.4442    0.0000 C   0  0  0  0  0  0  0  0  0  0  0  0
    2.2948    0.7556    0.0000 C   0  0  0  0  0  0  0  0  0  0  0  0
   12.6359    1.7112    0.0000 C   0  0  0  0  0  0  0  0  0  0  0  0
    2.0000    1.7112    0.0000 C   0  0  0  0  0  0  0  0  0  0  0  0
    8.8798   -0.5729    0.0000 H   0  0  0  0  0  0  0  0  0  0  0  0
    5.7561   -0.5729    0.0000 H   0  0  0  0  0  0  0  0  0  0  0  0
    7.4881    1.1723    0.0000 H   0  0  0  0  0  0  0  0  0  0  0  0
    6.2018    0.7168    0.0000 H   0  0  0  0  0  0  0  0  0  0  0  0
    9.4473   -0.5312    0.0000 H   0  0  0  0  0  0  0  0  0  0  0  0
   10.0316    0.0110    0.0000 H   0  0  0  0  0  0  0  0  0  0  0  0
    4.6044    0.0110    0.0000 H   0  0  0  0  0  0  0  0  0  0  0  0
    5.1886   -0.5312    0.0000 H   0  0  0  0  0  0  0  0  0  0  0  0
    8.5359   -2.1431    0.0000 H   0  0  0  0  0  0  0  0  0  0  0  0
    9.3240   -2.2619    0.0000 H   0  0  0  0  0  0  0  0  0  0  0  0
    5.3119   -2.2619    0.0000 H   0  0  0  0  0  0  0  0  0  0  0  0
    6.1000   -2.1431    0.0000 H   0  0  0  0  0  0  0  0  0  0  0  0
    7.9026    2.0606    0.0000 H   0  0  0  0  0  0  0  0  0  0  0  0
    6.7333    2.0606    0.0000 H   0  0  0  0  0  0  0  0  0  0  0  0
   10.1581   -1.9447    0.0000 H   0  0  0  0  0  0  0  0  0  0  0  0
   10.5088   -1.1410    0.0000 H   0  0  0  0  0  0  0  0  0  0  0  0
    9.7051   -0.7904    0.0000 H   0  0  0  0  0  0  0  0  0  0  0  0
    4.9308   -0.7904    0.0000 H   0  0  0  0  0  0  0  0  0  0  0  0
    4.1271   -1.1410    0.0000 H   0  0  0  0  0  0  0  0  0  0  0  0
    4.4778   -1.9447    0.0000 H   0  0  0  0  0  0  0  0  0  0  0  0
   11.1835   -0.0594    0.0000 H   0  0  0  0  0  0  0  0  0  0  0  0
   10.5591    2.6762    0.0000 H   0  0  0  0  0  0  0  0  0  0  0  0
    4.0768    2.6762    0.0000 H   0  0  0  0  0  0  0  0  0  0  0  0
    3.4524   -0.0594    0.0000 H   0  0  0  0  0  0  0  0  0  0  0  0
   12.7629    0.3011    0.0000 H   0  0  0  0  0  0  0  0  0  0  0  0
   12.1385    3.0367    0.0000 H   0  0  0  0  0  0  0  0  0  0  0  0
    2.4974    3.0367    0.0000 H   0  0  0  0  0  0  0  0  0  0  0  0
    1.8730    0.3011    0.0000 H   0  0  0  0  0  0  0  0  0  0  0  0
   13.2404    1.8492    0.0000 H   0  0  0  0  0  0  0  0  0  0  0  0
    1.3955    1.8492    0.0000 H   0  0  0  0  0  0  0  0  0  0  0  0
  1  4  2  0  0  0  0
  1  5  2  0  0  0  0
  1  8  1  0  0  0  0
  1  9  1  0  0  0  0
 12  2  1  1  0  0  0
  2 44  1  0  0  0  0
 13  3  1  6  0  0  0
  3 45  1  0  0  0  0
  6 14  1  0  0  0  0
  6 20  1  0  0  0  0
  7 15  1  0  0  0  0
  7 21  1  0  0  0  0
  8 10  1  0  0  0  0
  8 16  1  0  0  0  0
  9 11  1  0  0  0  0
  9 17  1  0  0  0  0
 10 12  1  0  0  0  0
 10 14  1  1  0  0  0
 10 32  1  0  0  0  0
 11 13  1  0  0  0  0
 11 15  1  6  0  0  0
 11 33  1  0  0  0  0
 12 13  1  0  0  0  0
 12 34  1  0  0  0  0
 13 35  1  0  0  0  0
 14 36  1  0  0  0  0
 14 37  1  0  0  0  0
 15 38  1  0  0  0  0
 15 39  1  0  0  0  0
 16 18  1  0  0  0  0
 16 40  1  0  0  0  0
 16 41  1  0  0  0  0
 17 19  1  0  0  0  0
 17 42  1  0  0  0  0
 17 43  1  0  0  0  0
 18 46  1  0  0  0  0
 18 47  1  0  0  0  0
 18 48  1  0  0  0  0
 19 49  1  0  0  0  0
 19 50  1  0  0  0  0
 19 51  1  0  0  0  0
 20 22  2  0  0  0  0
 20 23  1  0  0  0  0
 21 24  2  0  0  0  0
 21 25  1  0  0  0  0
 22 26  1  0  0  0  0
 22 52  1  0  0  0  0
 23 27  2  0  0  0  0
 23 53  1  0  0  0  0
 24 28  1  0  0  0  0
 24 54  1  0  0  0  0
 25 29  2  0  0  0  0
 25 55  1  0  0  0  0
 26 30  2  0  0  0  0
 26 56  1  0  0  0  0
 27 30  1  0  0  0  0
 27 57  1  0  0  0  0
 28 31  2  0  0  0  0
 28 58  1  0  0  0  0
 29 31  1  0  0  0  0
 29 59  1  0  0  0  0
 30 60  1  0  0  0  0
 31 61  1  0  0  0  0
M  END
> <PUBCHEM_COMPOUND_CID>
505985
> <PUBCHEM_COMPOUND_CANONICALIZED>
1
> <PUBCHEM_CACTVS_COMPLEXITY>
582
> <PUBCHEM_CACTVS_HBOND_ACCEPTOR>
8
> <PUBCHEM_CACTVS_HBOND_DONOR>
2
> <PUBCHEM_CACTVS_ROTATABLE_BOND>
8
> <PUBCHEM_CACTVS_SUBSKEYS>
AAADceB7OABAAAAAAAAAAAAAAAAAAAAAAAAwYAAABYAAAAABQAAAHgAASAAACDzhkAYyBoIABgCAACBCADACCAAgIAAIiAAOCIgPNiKEsRqHeCCnwBGZqAfQUAMAAAAAAAAAAAAAAAAAAAAAAAAAAAAAAA==
> <PUBCHEM_IUPAC_OPENEYE_NAME>
(3R,4S,5S,6R)-2,7-diethyl-1,1-dioxo-3,6-bis(phenoxymethyl)-1,2,7-thiadiazepane-4,5-diol
> <PUBCHEM_IUPAC_CAS_NAME>
(3R,4S,5S,6R)-2,7-diethyl-1,1-dioxo-3,6-bis(phenoxymethyl)-1,2,7-thiadiazepane-4,5-diol
> <PUBCHEM_IUPAC_NAME_MARKUP>
(3<I>R</I>,4<I>S</I>,5<I>S</I>,6<I>R</I>)-2,7-diethyl-1,1-dioxo-3,6-bis(phenoxymethyl)-1,2,7-thiadiazepane-4,5-diol
> <PUBCHEM_IUPAC_NAME>
(3R,4S,5S,6R)-2,7-diethyl-1,1-dioxo-3,6-bis(phenoxymethyl)-1,2,7-thiadiazepane-4,5-diol
> <PUBCHEM_IUPAC_SYSTEMATIC_NAME>
(3R,4S,5S,6R)-2,7-diethyl-1,1-bis(oxidanylidene)-3,6-bis(phenoxymethyl)-1,2,7-thiadiazepane-4,5-diol
> <PUBCHEM_IUPAC_TRADITIONAL_NAME>
(3R,4S,5S,6R)-2,7-diethyl-1,1-diketo-3,6-bis(phenoxymethyl)-1,2,7-thiadiazepane-4,5-diol
> <PUBCHEM_IUPAC_INCHI>
InChI=1S/C22H30N2O6S/c1-3-23-19(15-29-17-11-7-5-8-12-17)21(25)22(26)20(24(4-2)31(23,27)28)16-30-18-13-9-6-10-14-18/h5-14,19-22,25-26H,3-4,15-16H2,1-2H3/t19-,20-,21+,22+/m1/s1
> <PUBCHEM_IUPAC_INCHIKEY>
ROHJVYCCUXJCOE-CZYKHXBRSA-N
> <PUBCHEM_XLOGP3_AA>
2.2
> <PUBCHEM_EXACT_MASS>
450.18245785
> <PUBCHEM_MOLECULAR_FORMULA>
C22H30N2O6S
> <PUBCHEM_MOLECULAR_WEIGHT>
450.6
> <PUBCHEM_OPENEYE_CAN_SMILES>
CCN1C(C(C(C(N(S1(=O)=O)CC)COC2=CC=CC=C2)O)O)COC3=CC=CC=C3
> <PUBCHEM_OPENEYE_ISO_SMILES>
CCN1[C@@H]([C@@H]([C@H]([C@H](N(S1(=O)=O)CC)COC2=CC=CC=C2)O)O)COC3=CC=CC=C3
> <PUBCHEM_CACTVS_TPSA>
108
> <PUBCHEM_MONOISOTOPIC_WEIGHT>
450.18245785
> <PUBCHEM_TOTAL_CHARGE>
0
> <PUBCHEM_HEAVY_ATOM_COUNT>
31
> <PUBCHEM_ATOM_DEF_STEREO_COUNT>
4
> <PUBCHEM_ATOM_UDEF_STEREO_COUNT>
0
> <PUBCHEM_BOND_DEF_STEREO_COUNT>
0
> <PUBCHEM_BOND_UDEF_STEREO_COUNT>
0
> <PUBCHEM_ISOTOPIC_ATOM_COUNT>
0
> <PUBCHEM_COMPONENT_COUNT>
1
> <PUBCHEM_CACTVS_TAUTO_COUNT>
-1
> <PUBCHEM_COORDINATE_TYPE>
1
5
255
> <PUBCHEM_BONDANNOTATIONS>
10  14  5
11  15  6
12  2  5
20  22  8
20  23  8
21  24  8
21  25  8
22  26  8
23  27  8
24  28  8
25  29  8
26  30  8
27  30  8
28  31  8
29  31  8
13  3  6
$$$$
