505993
  -OEChem-10302200282D
 80 85  0     1  0  0  0  0  0999 V2000
    7.0341   -2.4026    0.0000 O   0  0  0  0  0  0  0  0  0  0  0  0
    5.1872   -2.1242    0.0000 O   0  0  0  0  0  0  0  0  0  0  0  0
    6.7204    1.7825    0.0000 O   0  0  0  0  0  0  0  0  0  0  0  0
    7.3976    0.2304    0.0000 N   0  0  0  0  0  0  0  0  0  0  0  0
    5.6158    0.4989    0.0000 N   0  0  0  0  0  0  0  0  0  0  0  0
   11.8080   -1.0744    0.0000 N   0  0  0  0  0  0  0  0  0  0  0  0
   12.3916   -0.2696    0.0000 N   0  0  0  0  0  0  0  0  0  0  0  0
   12.1186    1.4856    0.0000 N   0  0  0  0  0  0  0  0  0  0  0  0
    7.4724   -0.7669    0.0000 C   0  0  1  0  0  0  0  0  0  0  0  0
    5.2505   -0.4320    0.0000 C   0  0  1  0  0  0  0  0  0  0  0  0
    6.7393   -1.4470    0.0000 C   0  0  1  0  0  0  0  0  0  0  0  0
    5.7505   -1.2980    0.0000 C   0  0  1  0  0  0  0  0  0  0  0  0
    4.2533   -0.5067    0.0000 C   0  0  0  0  0  0  0  0  0  0  0  0
    8.4032   -1.1322    0.0000 C   0  0  0  0  0  0  0  0  0  0  0  0
    6.5714    0.7937    0.0000 C   0  0  0  0  0  0  0  0  0  0  0  0
    8.2637    0.7304    0.0000 C   0  0  0  0  0  0  0  0  0  0  0  0
    4.9356    1.2320    0.0000 C   0  0  0  0  0  0  0  0  0  0  0  0
    3.6900    0.3196    0.0000 C   0  0  0  0  0  0  0  0  0  0  0  0
    8.5523   -2.1210    0.0000 C   0  0  0  0  0  0  0  0  0  0  0  0
    9.1297    0.2304    0.0000 C   0  0  0  0  0  0  0  0  0  0  0  0
    5.2304    2.1875    0.0000 C   0  0  0  0  0  0  0  0  0  0  0  0
    2.6928    0.2448    0.0000 C   0  0  0  0  0  0  0  0  0  0  0  0
    4.1238    1.2205    0.0000 C   0  0  0  0  0  0  0  0  0  0  0  0
    9.4832   -2.4864    0.0000 C   0  0  0  0  0  0  0  0  0  0  0  0
    7.7704   -2.7445    0.0000 C   0  0  0  0  0  0  0  0  0  0  0  0
    9.9957    0.7304    0.0000 C   0  0  0  0  0  0  0  0  0  0  0  0
    9.1297   -0.7696    0.0000 C   0  0  0  0  0  0  0  0  0  0  0  0
    6.2053    2.4101    0.0000 C   0  0  0  0  0  0  0  0  0  0  0  0
    4.5502    2.9206    0.0000 C   0  0  0  0  0  0  0  0  0  0  0  0
   10.8617    0.2304    0.0000 C   0  0  0  0  0  0  0  0  0  0  0  0
    2.1294    1.0711    0.0000 C   0  0  0  0  0  0  0  0  0  0  0  0
    3.5605    2.0468    0.0000 C   0  0  0  0  0  0  0  0  0  0  0  0
    9.6322   -3.4752    0.0000 C   0  0  0  0  0  0  0  0  0  0  0  0
    7.9195   -3.7334    0.0000 C   0  0  0  0  0  0  0  0  0  0  0  0
    2.5633    1.9720    0.0000 C   0  0  0  0  0  0  0  0  0  0  0  0
    9.9957   -1.2696    0.0000 C   0  0  0  0  0  0  0  0  0  0  0  0
   10.8617   -0.7696    0.0000 C   0  0  0  0  0  0  0  0  0  0  0  0
    8.8504   -4.0987    0.0000 C   0  0  0  0  0  0  0  0  0  0  0  0
    6.5001    3.3656    0.0000 C   0  0  0  0  0  0  0  0  0  0  0  0
    4.8450    3.8762    0.0000 C   0  0  0  0  0  0  0  0  0  0  0  0
   11.8080    0.5351    0.0000 C   0  0  0  0  0  0  0  0  0  0  0  0
    5.8199    4.0987    0.0000 C   0  0  0  0  0  0  0  0  0  0  0  0
    2.0000    2.7983    0.0000 C   0  0  0  0  0  0  0  0  0  0  0  0
    7.9712   -0.3987    0.0000 H   0  0  0  0  0  0  0  0  0  0  0  0
    4.8823    0.0669    0.0000 H   0  0  0  0  0  0  0  0  0  0  0  0
    7.3382   -1.6075    0.0000 H   0  0  0  0  0  0  0  0  0  0  0  0
    5.9984   -1.8662    0.0000 H   0  0  0  0  0  0  0  0  0  0  0  0
    3.6882   -0.7617    0.0000 H   0  0  0  0  0  0  0  0  0  0  0  0
    4.4063   -1.1075    0.0000 H   0  0  0  0  0  0  0  0  0  0  0  0
    9.0230   -1.1476    0.0000 H   0  0  0  0  0  0  0  0  0  0  0  0
    8.5261   -0.5245    0.0000 H   0  0  0  0  0  0  0  0  0  0  0  0
    8.6622    1.2053    0.0000 H   0  0  0  0  0  0  0  0  0  0  0  0
    7.8651    1.2053    0.0000 H   0  0  0  0  0  0  0  0  0  0  0  0
    4.3839    1.5148    0.0000 H   0  0  0  0  0  0  0  0  0  0  0  0
    4.5613    0.7377    0.0000 H   0  0  0  0  0  0  0  0  0  0  0  0
    6.6124   -2.8571    0.0000 H   0  0  0  0  0  0  0  0  0  0  0  0
    5.4562   -2.6828    0.0000 H   0  0  0  0  0  0  0  0  0  0  0  0
    2.4238   -0.3138    0.0000 H   0  0  0  0  0  0  0  0  0  0  0  0
    4.7421    1.2668    0.0000 H   0  0  0  0  0  0  0  0  0  0  0  0
    9.9679   -2.0998    0.0000 H   0  0  0  0  0  0  0  0  0  0  0  0
    7.1933   -2.5180    0.0000 H   0  0  0  0  0  0  0  0  0  0  0  0
    9.9957    1.3504    0.0000 H   0  0  0  0  0  0  0  0  0  0  0  0
    8.5928   -1.0796    0.0000 H   0  0  0  0  0  0  0  0  0  0  0  0
    6.6270    1.9556    0.0000 H   0  0  0  0  0  0  0  0  0  0  0  0
    3.9458    2.7826    0.0000 H   0  0  0  0  0  0  0  0  0  0  0  0
    1.5112    1.0247    0.0000 H   0  0  0  0  0  0  0  0  0  0  0  0
    3.8295    2.6054    0.0000 H   0  0  0  0  0  0  0  0  0  0  0  0
   10.2093   -3.7017    0.0000 H   0  0  0  0  0  0  0  0  0  0  0  0
    7.4348   -4.1199    0.0000 H   0  0  0  0  0  0  0  0  0  0  0  0
    9.9957   -1.8896    0.0000 H   0  0  0  0  0  0  0  0  0  0  0  0
    8.9428   -4.7118    0.0000 H   0  0  0  0  0  0  0  0  0  0  0  0
    7.1046    3.5036    0.0000 H   0  0  0  0  0  0  0  0  0  0  0  0
    4.4233    4.3307    0.0000 H   0  0  0  0  0  0  0  0  0  0  0  0
    6.0027    4.6911    0.0000 H   0  0  0  0  0  0  0  0  0  0  0  0
   12.0006   -1.6637    0.0000 H   0  0  0  0  0  0  0  0  0  0  0  0
    2.5123    3.1475    0.0000 H   0  0  0  0  0  0  0  0  0  0  0  0
    1.6507    3.3105    0.0000 H   0  0  0  0  0  0  0  0  0  0  0  0
    1.4877    2.4490    0.0000 H   0  0  0  0  0  0  0  0  0  0  0  0
   12.7253    1.6135    0.0000 H   0  0  0  0  0  0  0  0  0  0  0  0
   11.7046    1.9471    0.0000 H   0  0  0  0  0  0  0  0  0  0  0  0
 11  1  1  6  0  0  0
  1 56  1  0  0  0  0
 12  2  1  1  0  0  0
  2 57  1  0  0  0  0
  3 15  2  0  0  0  0
  4  9  1  0  0  0  0
  4 15  1  0  0  0  0
  4 16  1  0  0  0  0
  5 10  1  0  0  0  0
  5 15  1  0  0  0  0
  5 17  1  0  0  0  0
  6  7  1  0  0  0  0
  6 37  1  0  0  0  0
  6 75  1  0  0  0  0
  7 41  2  0  0  0  0
  8 41  1  0  0  0  0
  8 79  1  0  0  0  0
  8 80  1  0  0  0  0
  9 11  1  0  0  0  0
  9 14  1  6  0  0  0
  9 44  1  0  0  0  0
 10 12  1  0  0  0  0
 10 13  1  1  0  0  0
 10 45  1  0  0  0  0
 11 12  1  0  0  0  0
 11 46  1  0  0  0  0
 12 47  1  0  0  0  0
 13 18  1  0  0  0  0
 13 48  1  0  0  0  0
 13 49  1  0  0  0  0
 14 19  1  0  0  0  0
 14 50  1  0  0  0  0
 14 51  1  0  0  0  0
 16 20  1  0  0  0  0
 16 52  1  0  0  0  0
 16 53  1  0  0  0  0
 17 21  1  0  0  0  0
 17 54  1  0  0  0  0
 17 55  1  0  0  0  0
 18 22  2  0  0  0  0
 18 23  1  0  0  0  0
 19 24  2  0  0  0  0
 19 25  1  0  0  0  0
 20 26  2  0  0  0  0
 20 27  1  0  0  0  0
 21 28  2  0  0  0  0
 21 29  1  0  0  0  0
 22 31  1  0  0  0  0
 22 58  1  0  0  0  0
 23 32  2  0  0  0  0
 23 59  1  0  0  0  0
 24 33  1  0  0  0  0
 24 60  1  0  0  0  0
 25 34  2  0  0  0  0
 25 61  1  0  0  0  0
 26 30  1  0  0  0  0
 26 62  1  0  0  0  0
 27 36  2  0  0  0  0
 27 63  1  0  0  0  0
 28 39  1  0  0  0  0
 28 64  1  0  0  0  0
 29 40  2  0  0  0  0
 29 65  1  0  0  0  0
 30 37  2  0  0  0  0
 30 41  1  0  0  0  0
 31 35  2  0  0  0  0
 31 66  1  0  0  0  0
 32 35  1  0  0  0  0
 32 67  1  0  0  0  0
 33 38  2  0  0  0  0
 33 68  1  0  0  0  0
 34 38  1  0  0  0  0
 34 69  1  0  0  0  0
 35 43  1  0  0  0  0
 36 37  1  0  0  0  0
 36 70  1  0  0  0  0
 38 71  1  0  0  0  0
 39 42  2  0  0  0  0
 39 72  1  0  0  0  0
 40 42  1  0  0  0  0
 40 73  1  0  0  0  0
 42 74  1  0  0  0  0
 43 76  1  0  0  0  0
 43 77  1  0  0  0  0
 43 78  1  0  0  0  0
M  END
> <PUBCHEM_COMPOUND_CID>
505993
> <PUBCHEM_COMPOUND_CANONICALIZED>
1
> <PUBCHEM_CACTVS_COMPLEXITY>
887
> <PUBCHEM_CACTVS_HBOND_ACCEPTOR>
5
> <PUBCHEM_CACTVS_HBOND_DONOR>
4
> <PUBCHEM_CACTVS_ROTATABLE_BOND>
8
> <PUBCHEM_CACTVS_SUBSKEYS>
AAADcfB/sAAAAAAAAAAAAAAAAAAAAWAAAAAwYMGABYAAAFgB9AAAHgAYCAAADDzhngYz8PNjAgCqAyZicACSBAIgAgAcuSA4ZJiLMKKA0dGE5Ah+ngKZyAeQwPAOSAACAAACAACQAAQAAAQAAAAAAAAAAA==
> <PUBCHEM_IUPAC_OPENEYE_NAME>
(4R,5S,6S,7R)-1-[(3-amino-1H-indazol-5-yl)methyl]-3,7-dibenzyl-5,6-dihydroxy-4-(p-tolylmethyl)-1,3-diazepan-2-one
> <PUBCHEM_IUPAC_CAS_NAME>
(4R,5S,6S,7R)-1-[(3-amino-1H-indazol-5-yl)methyl]-5,6-dihydroxy-4-[(4-methylphenyl)methyl]-3,7-bis(phenylmethyl)-1,3-diazepan-2-one
> <PUBCHEM_IUPAC_NAME_MARKUP>
(4<I>R</I>,5<I>S</I>,6<I>S</I>,7<I>R</I>)-1-[(3-amino-1<I>H</I>-indazol-5-yl)methyl]-3,7-dibenzyl-5,6-dihydroxy-4-[(4-methylphenyl)methyl]-1,3-diazepan-2-one
> <PUBCHEM_IUPAC_NAME>
(4R,5S,6S,7R)-1-[(3-amino-1H-indazol-5-yl)methyl]-3,7-dibenzyl-5,6-dihydroxy-4-[(4-methylphenyl)methyl]-1,3-diazepan-2-one
> <PUBCHEM_IUPAC_SYSTEMATIC_NAME>
(4R,5S,6S,7R)-1-[(3-azanyl-1H-indazol-5-yl)methyl]-4-[(4-methylphenyl)methyl]-5,6-bis(oxidanyl)-3,7-bis(phenylmethyl)-1,3-diazepan-2-one
> <PUBCHEM_IUPAC_TRADITIONAL_NAME>
(4R,5S,6S,7R)-1-[(3-amino-1H-indazol-5-yl)methyl]-3,7-dibenzyl-5,6-dihydroxy-4-(4-methylbenzyl)-1,3-diazepan-2-one
> <PUBCHEM_IUPAC_INCHI>
InChI=1S/C35H37N5O3/c1-23-12-14-25(15-13-23)20-31-33(42)32(41)30(19-24-8-4-2-5-9-24)40(35(43)39(31)21-26-10-6-3-7-11-26)22-27-16-17-29-28(18-27)34(36)38-37-29/h2-18,30-33,41-42H,19-22H2,1H3,(H3,36,37,38)/t30-,31-,32+,33+/m1/s1
> <PUBCHEM_IUPAC_INCHIKEY>
YPDJHBUMMPBJFN-FYZVQMPESA-N
> <PUBCHEM_XLOGP3_AA>
5
> <PUBCHEM_EXACT_MASS>
575.28964006
> <PUBCHEM_MOLECULAR_FORMULA>
C35H37N5O3
> <PUBCHEM_MOLECULAR_WEIGHT>
575.7
> <PUBCHEM_OPENEYE_CAN_SMILES>
CC1=CC=C(C=C1)CC2C(C(C(N(C(=O)N2CC3=CC=CC=C3)CC4=CC5=C(C=C4)NN=C5N)CC6=CC=CC=C6)O)O
> <PUBCHEM_OPENEYE_ISO_SMILES>
CC1=CC=C(C=C1)C[C@@H]2[C@@H]([C@H]([C@H](N(C(=O)N2CC3=CC=CC=C3)CC4=CC5=C(C=C4)NN=C5N)CC6=CC=CC=C6)O)O
> <PUBCHEM_CACTVS_TPSA>
119
> <PUBCHEM_MONOISOTOPIC_WEIGHT>
575.28964006
> <PUBCHEM_TOTAL_CHARGE>
0
> <PUBCHEM_HEAVY_ATOM_COUNT>
43
> <PUBCHEM_ATOM_DEF_STEREO_COUNT>
4
> <PUBCHEM_ATOM_UDEF_STEREO_COUNT>
0
> <PUBCHEM_BOND_DEF_STEREO_COUNT>
0
> <PUBCHEM_BOND_UDEF_STEREO_COUNT>
0
> <PUBCHEM_ISOTOPIC_ATOM_COUNT>
0
> <PUBCHEM_COMPONENT_COUNT>
1
> <PUBCHEM_CACTVS_TAUTO_COUNT>
-1
> <PUBCHEM_COORDINATE_TYPE>
1
5
255
> <PUBCHEM_BONDANNOTATIONS>
11  1  6
10  13  5
18  22  8
18  23  8
19  24  8
19  25  8
12  2  5
20  26  8
20  27  8
21  28  8
21  29  8
22  31  8
23  32  8
24  33  8
25  34  8
26  30  8
27  36  8
28  39  8
29  40  8
30  37  8
30  41  8
31  35  8
32  35  8
33  38  8
34  38  8
36  37  8
39  42  8
40  42  8
6  37  8
6  7  8
7  41  8
9  14  6
$$$$
