506017
  -OEChem-10302200282D
 71 71  0     1  0  0  0  0  0999 V2000
    6.8671   -0.6900    0.0000 O   0  0  0  0  0  0  0  0  0  0  0  0
    7.7331    1.8100    0.0000 O   0  0  0  0  0  0  0  0  0  0  0  0
    4.2690    1.8100    0.0000 O   0  0  0  0  0  0  0  0  0  0  0  0
    5.1350   -2.6900    0.0000 O   0  0  0  0  0  0  0  0  0  0  0  0
    6.8671   -2.6900    0.0000 O   0  0  0  0  0  0  0  0  0  0  0  0
    8.5991    0.3100    0.0000 N   0  0  0  0  0  0  0  0  0  0  0  0
    6.0010    1.8100    0.0000 N   0  0  0  0  0  0  0  0  0  0  0  0
    4.2690    0.8100    0.0000 N   0  0  0  0  0  0  0  0  0  0  0  0
    2.5369    0.8100    0.0000 N   0  0  0  0  0  0  0  0  0  0  0  0
    3.4030   -0.6900    0.0000 N   0  0  0  0  0  0  0  0  0  0  0  0
    6.0010    0.8100    0.0000 C   0  0  1  0  0  0  0  0  0  0  0  0
    6.8671    0.3100    0.0000 C   0  0  2  0  0  0  0  0  0  0  0  0
    5.1350    0.3100    0.0000 C   0  0  2  0  0  0  0  0  0  0  0  0
    9.4651    0.8100    0.0000 C   0  0  0  0  0  0  0  0  0  0  0  0
    7.7331    0.8100    0.0000 C   0  0  0  0  0  0  0  0  0  0  0  0
   10.3312    0.3100    0.0000 C   0  0  0  0  0  0  0  0  0  0  0  0
   11.1972    0.8100    0.0000 C   0  0  0  0  0  0  0  0  0  0  0  0
   12.0632    0.3100    0.0000 C   0  0  0  0  0  0  0  0  0  0  0  0
    8.5991   -0.6900    0.0000 C   0  0  0  0  0  0  0  0  0  0  0  0
    5.1350   -0.6900    0.0000 C   0  0  0  0  0  0  0  0  0  0  0  0
   12.9292    0.8100    0.0000 C   0  0  0  0  0  0  0  0  0  0  0  0
    6.0010   -1.1900    0.0000 C   0  0  0  0  0  0  0  0  0  0  0  0
   13.7953    0.3100    0.0000 C   0  0  0  0  0  0  0  0  0  0  0  0
    9.4651   -1.1900    0.0000 C   0  0  0  0  0  0  0  0  0  0  0  0
   14.6613    0.8100    0.0000 C   0  0  0  0  0  0  0  0  0  0  0  0
    5.1350    2.3100    0.0000 C   0  0  0  0  0  0  0  0  0  0  0  0
   15.5273    0.3100    0.0000 C   0  0  0  0  0  0  0  0  0  0  0  0
    9.4651   -2.1900    0.0000 C   0  0  0  0  0  0  0  0  0  0  0  0
    6.0010   -2.1900    0.0000 C   0  0  0  0  0  0  0  0  0  0  0  0
    3.4030    0.3100    0.0000 C   0  0  0  0  0  0  0  0  0  0  0  0
    5.1350    3.3100    0.0000 C   0  0  0  0  0  0  0  0  0  0  0  0
   16.3933    0.8100    0.0000 C   0  0  0  0  0  0  0  0  0  0  0  0
    6.5380    1.1200    0.0000 H   0  0  0  0  0  0  0  0  0  0  0  0
    7.4040   -0.0000    0.0000 H   0  0  0  0  0  0  0  0  0  0  0  0
    5.1350    0.9300    0.0000 H   0  0  0  0  0  0  0  0  0  0  0  0
    9.8637    1.2850    0.0000 H   0  0  0  0  0  0  0  0  0  0  0  0
    9.0666    1.2850    0.0000 H   0  0  0  0  0  0  0  0  0  0  0  0
    9.9326   -0.1649    0.0000 H   0  0  0  0  0  0  0  0  0  0  0  0
   10.7297   -0.1649    0.0000 H   0  0  0  0  0  0  0  0  0  0  0  0
   11.5957    1.2850    0.0000 H   0  0  0  0  0  0  0  0  0  0  0  0
   10.7987    1.2850    0.0000 H   0  0  0  0  0  0  0  0  0  0  0  0
   11.6647   -0.1649    0.0000 H   0  0  0  0  0  0  0  0  0  0  0  0
   12.4617   -0.1649    0.0000 H   0  0  0  0  0  0  0  0  0  0  0  0
    7.9885   -0.5823    0.0000 H   0  0  0  0  0  0  0  0  0  0  0  0
    8.3871   -1.2726    0.0000 H   0  0  0  0  0  0  0  0  0  0  0  0
    4.5981   -1.0000    0.0000 H   0  0  0  0  0  0  0  0  0  0  0  0
    6.5380    2.1200    0.0000 H   0  0  0  0  0  0  0  0  0  0  0  0
   13.3278    1.2850    0.0000 H   0  0  0  0  0  0  0  0  0  0  0  0
   12.5307    1.2850    0.0000 H   0  0  0  0  0  0  0  0  0  0  0  0
   13.3967   -0.1649    0.0000 H   0  0  0  0  0  0  0  0  0  0  0  0
   14.1938   -0.1649    0.0000 H   0  0  0  0  0  0  0  0  0  0  0  0
   10.0757   -1.2977    0.0000 H   0  0  0  0  0  0  0  0  0  0  0  0
    9.6772   -0.6074    0.0000 H   0  0  0  0  0  0  0  0  0  0  0  0
   15.0598    1.2850    0.0000 H   0  0  0  0  0  0  0  0  0  0  0  0
   14.2628    1.2850    0.0000 H   0  0  0  0  0  0  0  0  0  0  0  0
   15.1288   -0.1649    0.0000 H   0  0  0  0  0  0  0  0  0  0  0  0
   15.9258   -0.1649    0.0000 H   0  0  0  0  0  0  0  0  0  0  0  0
    8.8451   -2.1900    0.0000 H   0  0  0  0  0  0  0  0  0  0  0  0
    9.4651   -2.8100    0.0000 H   0  0  0  0  0  0  0  0  0  0  0  0
   10.0851   -2.1900    0.0000 H   0  0  0  0  0  0  0  0  0  0  0  0
    5.7550    3.3100    0.0000 H   0  0  0  0  0  0  0  0  0  0  0  0
    5.1350    3.9300    0.0000 H   0  0  0  0  0  0  0  0  0  0  0  0
    4.5150    3.3100    0.0000 H   0  0  0  0  0  0  0  0  0  0  0  0
   16.7033    0.2731    0.0000 H   0  0  0  0  0  0  0  0  0  0  0  0
   16.9303    1.1200    0.0000 H   0  0  0  0  0  0  0  0  0  0  0  0
   16.0833    1.3469    0.0000 H   0  0  0  0  0  0  0  0  0  0  0  0
    2.0000    0.5000    0.0000 H   0  0  0  0  0  0  0  0  0  0  0  0
    2.5369    1.4300    0.0000 H   0  0  0  0  0  0  0  0  0  0  0  0
    2.8660   -1.0000    0.0000 H   0  0  0  0  0  0  0  0  0  0  0  0
    3.9399   -1.0000    0.0000 H   0  0  0  0  0  0  0  0  0  0  0  0
    5.1350   -3.3100    0.0000 H   0  0  0  0  0  0  0  0  0  0  0  0
  1 12  1  0  0  0  0
  1 22  1  0  0  0  0
  2 15  2  0  0  0  0
  3 26  2  0  0  0  0
  4 29  1  0  0  0  0
  4 71  1  0  0  0  0
  5 29  2  0  0  0  0
  6 14  1  0  0  0  0
  6 15  1  0  0  0  0
  6 19  1  0  0  0  0
 11  7  1  1  0  0  0
  7 26  1  0  0  0  0
  7 47  1  0  0  0  0
 13  8  1  6  0  0  0
  8 30  2  0  0  0  0
  9 30  1  0  0  0  0
  9 67  1  0  0  0  0
  9 68  1  0  0  0  0
 10 30  1  0  0  0  0
 10 69  1  0  0  0  0
 10 70  1  0  0  0  0
 11 12  1  0  0  0  0
 11 13  1  0  0  0  0
 11 33  1  0  0  0  0
 12 15  1  6  0  0  0
 12 34  1  0  0  0  0
 13 20  1  0  0  0  0
 13 35  1  0  0  0  0
 14 16  1  0  0  0  0
 14 36  1  0  0  0  0
 14 37  1  0  0  0  0
 16 17  1  0  0  0  0
 16 38  1  0  0  0  0
 16 39  1  0  0  0  0
 17 18  1  0  0  0  0
 17 40  1  0  0  0  0
 17 41  1  0  0  0  0
 18 21  1  0  0  0  0
 18 42  1  0  0  0  0
 18 43  1  0  0  0  0
 19 24  1  0  0  0  0
 19 44  1  0  0  0  0
 19 45  1  0  0  0  0
 20 22  2  0  0  0  0
 20 46  1  0  0  0  0
 21 23  1  0  0  0  0
 21 48  1  0  0  0  0
 21 49  1  0  0  0  0
 22 29  1  0  0  0  0
 23 25  1  0  0  0  0
 23 50  1  0  0  0  0
 23 51  1  0  0  0  0
 24 28  1  0  0  0  0
 24 52  1  0  0  0  0
 24 53  1  0  0  0  0
 25 27  1  0  0  0  0
 25 54  1  0  0  0  0
 25 55  1  0  0  0  0
 26 31  1  0  0  0  0
 27 32  1  0  0  0  0
 27 56  1  0  0  0  0
 27 57  1  0  0  0  0
 28 58  1  0  0  0  0
 28 59  1  0  0  0  0
 28 60  1  0  0  0  0
 31 61  1  0  0  0  0
 31 62  1  0  0  0  0
 31 63  1  0  0  0  0
 32 64  1  0  0  0  0
 32 65  1  0  0  0  0
 32 66  1  0  0  0  0
M  END
> <PUBCHEM_COMPOUND_CID>
506017
> <PUBCHEM_COMPOUND_CANONICALIZED>
1
> <PUBCHEM_CACTVS_COMPLEXITY>
690
> <PUBCHEM_CACTVS_HBOND_ACCEPTOR>
6
> <PUBCHEM_CACTVS_HBOND_DONOR>
4
> <PUBCHEM_CACTVS_ROTATABLE_BOND>
14
> <PUBCHEM_CACTVS_SUBSKEYS>
AAADcfB7uAAAAAAAAAAAAAAAAAAAAAAAAAAgAAAAAAAAAAAAAAAAHgAQCAAACDzhgAYDCAPABgCoACHSPAKACAEgIAAACIFIAEgDRBoAwAQXEAAGlgCbEYMcgIAAAAAAAAAAAAAAAAAAAAAAAAAAAAAAAA==
> <PUBCHEM_IUPAC_OPENEYE_NAME>
(2R,3R,4S)-3-acetamido-4-guanidino-2-[nonyl(propyl)carbamoyl]-3,4-dihydro-2H-pyran-6-carboxylic acid
> <PUBCHEM_IUPAC_CAS_NAME>
(2R,3R,4S)-3-acetamido-4-(diaminomethylideneamino)-2-[[nonyl(propyl)amino]-oxomethyl]-3,4-dihydro-2H-pyran-6-carboxylic acid
> <PUBCHEM_IUPAC_NAME_MARKUP>
(2<I>R</I>,3<I>R</I>,4<I>S</I>)-3-acetamido-4-(diaminomethylideneamino)-2-[nonyl(propyl)carbamoyl]-3,4-dihydro-2<I>H</I>-pyran-6-carboxylic acid
> <PUBCHEM_IUPAC_NAME>
(2R,3R,4S)-3-acetamido-4-(diaminomethylideneamino)-2-[nonyl(propyl)carbamoyl]-3,4-dihydro-2H-pyran-6-carboxylic acid
> <PUBCHEM_IUPAC_SYSTEMATIC_NAME>
(2R,3R,4S)-3-acetamido-4-[bis(azanyl)methylideneamino]-2-[nonyl(propyl)carbamoyl]-3,4-dihydro-2H-pyran-6-carboxylic acid
> <PUBCHEM_IUPAC_TRADITIONAL_NAME>
(2R,3R,4S)-3-acetamido-4-guanidino-2-[nonyl(propyl)carbamoyl]-3,4-dihydro-2H-pyran-6-carboxylic acid
> <PUBCHEM_IUPAC_INCHI>
InChI=1S/C22H39N5O5/c1-4-6-7-8-9-10-11-13-27(12-5-2)20(29)19-18(25-15(3)28)16(26-22(23)24)14-17(32-19)21(30)31/h14,16,18-19H,4-13H2,1-3H3,(H,25,28)(H,30,31)(H4,23,24,26)/t16-,18+,19+/m0/s1
> <PUBCHEM_IUPAC_INCHIKEY>
MWFDJWINITVGDL-QXAKKESOSA-N
> <PUBCHEM_XLOGP3_AA>
3.1
> <PUBCHEM_EXACT_MASS>
453.29511936
> <PUBCHEM_MOLECULAR_FORMULA>
C22H39N5O5
> <PUBCHEM_MOLECULAR_WEIGHT>
453.6
> <PUBCHEM_OPENEYE_CAN_SMILES>
CCCCCCCCCN(CCC)C(=O)C1C(C(C=C(O1)C(=O)O)N=C(N)N)NC(=O)C
> <PUBCHEM_OPENEYE_ISO_SMILES>
CCCCCCCCCN(CCC)C(=O)[C@H]1[C@@H]([C@H](C=C(O1)C(=O)O)N=C(N)N)NC(=O)C
> <PUBCHEM_CACTVS_TPSA>
160
> <PUBCHEM_MONOISOTOPIC_WEIGHT>
453.29511936
> <PUBCHEM_TOTAL_CHARGE>
0
> <PUBCHEM_HEAVY_ATOM_COUNT>
32
> <PUBCHEM_ATOM_DEF_STEREO_COUNT>
3
> <PUBCHEM_ATOM_UDEF_STEREO_COUNT>
0
> <PUBCHEM_BOND_DEF_STEREO_COUNT>
0
> <PUBCHEM_BOND_UDEF_STEREO_COUNT>
0
> <PUBCHEM_ISOTOPIC_ATOM_COUNT>
0
> <PUBCHEM_COMPONENT_COUNT>
1
> <PUBCHEM_CACTVS_TAUTO_COUNT>
-1
> <PUBCHEM_COORDINATE_TYPE>
1
5
255
> <PUBCHEM_BONDANNOTATIONS>
12  15  6
11  7  5
13  8  6
$$$$
