506006
  -OEChem-10302200282D
 40 40  0     1  0  0  0  0  0999 V2000
    5.1350   -0.8060    0.0000 O   0  0  0  0  0  0  0  0  0  0  0  0
    6.0010    1.6940    0.0000 O   0  0  0  0  0  0  0  0  0  0  0  0
    6.8671   -0.8060    0.0000 O   0  0  0  0  0  0  0  0  0  0  0  0
    3.4030   -2.8060    0.0000 O   0  0  0  0  0  0  0  0  0  0  0  0
    8.5991    0.1940    0.0000 O   0  0  0  0  0  0  0  0  0  0  0  0
    5.1350   -2.8060    0.0000 O   0  0  0  0  0  0  0  0  0  0  0  0
    2.7690    2.5601    0.0000 O   0  0  0  0  0  0  0  0  0  0  0  0
    4.2690    1.6940    0.0000 N   0  0  0  0  0  0  0  0  0  0  0  0
    2.5369    0.6940    0.0000 N   0  0  0  0  0  0  0  0  0  0  0  0
    4.2690    0.6940    0.0000 C   0  0  1  0  0  0  0  0  0  0  0  0
    5.1350    0.1940    0.0000 C   0  0  2  0  0  0  0  0  0  0  0  0
    3.4030    0.1940    0.0000 C   0  0  2  0  0  0  0  0  0  0  0  0
    3.4030   -0.8060    0.0000 C   0  0  0  0  0  0  0  0  0  0  0  0
    6.0010    0.6940    0.0000 C   0  0  1  0  0  0  0  0  0  0  0  0
    4.2690   -1.3060    0.0000 C   0  0  3  0  0  0  0  0  0  0  0  0
    6.8671    0.1940    0.0000 C   0  0  1  0  0  0  0  0  0  0  0  0
    4.2690   -2.3060    0.0000 C   0  0  0  0  0  0  0  0  0  0  0  0
    7.7331    0.6940    0.0000 C   0  0  0  0  0  0  0  0  0  0  0  0
    3.7690    2.5600    0.0000 C   0  0  0  0  0  0  0  0  0  0  0  0
    4.2690    3.4260    0.0000 C   0  0  0  0  0  0  0  0  0  0  0  0
    4.8059    1.0040    0.0000 H   0  0  0  0  0  0  0  0  0  0  0  0
    5.8711   -0.2310    0.0000 H   0  0  0  0  0  0  0  0  0  0  0  0
    3.4030    0.8140    0.0000 H   0  0  0  0  0  0  0  0  0  0  0  0
    2.7924   -0.6984    0.0000 H   0  0  0  0  0  0  0  0  0  0  0  0
    3.1909   -1.3886    0.0000 H   0  0  0  0  0  0  0  0  0  0  0  0
    6.5380    1.0040    0.0000 H   0  0  0  0  0  0  0  0  0  0  0  0
    4.8059   -1.6160    0.0000 H   0  0  0  0  0  0  0  0  0  0  0  0
    6.3301   -0.1160    0.0000 H   0  0  0  0  0  0  0  0  0  0  0  0
    4.8059    2.0040    0.0000 H   0  0  0  0  0  0  0  0  0  0  0  0
    2.0000    0.3840    0.0000 H   0  0  0  0  0  0  0  0  0  0  0  0
    2.2269    1.2309    0.0000 H   0  0  0  0  0  0  0  0  0  0  0  0
    8.1316    1.1689    0.0000 H   0  0  0  0  0  0  0  0  0  0  0  0
    7.3346    1.1689    0.0000 H   0  0  0  0  0  0  0  0  0  0  0  0
    6.5380    2.0040    0.0000 H   0  0  0  0  0  0  0  0  0  0  0  0
    7.4040   -1.1160    0.0000 H   0  0  0  0  0  0  0  0  0  0  0  0
    4.8059    3.1160    0.0000 H   0  0  0  0  0  0  0  0  0  0  0  0
    4.5790    3.9630    0.0000 H   0  0  0  0  0  0  0  0  0  0  0  0
    3.7320    3.7360    0.0000 H   0  0  0  0  0  0  0  0  0  0  0  0
    3.4030   -3.4260    0.0000 H   0  0  0  0  0  0  0  0  0  0  0  0
    9.1360    0.5040    0.0000 H   0  0  0  0  0  0  0  0  0  0  0  0
  1 11  1  0  0  0  0
  1 15  1  0  0  0  0
 14  2  1  6  0  0  0
  2 34  1  0  0  0  0
 16  3  1  1  0  0  0
  3 35  1  0  0  0  0
  4 17  1  0  0  0  0
  4 39  1  0  0  0  0
  5 18  1  0  0  0  0
  5 40  1  0  0  0  0
  6 17  2  0  0  0  0
  7 19  2  0  0  0  0
 10  8  1  1  0  0  0
  8 19  1  0  0  0  0
  8 29  1  0  0  0  0
 12  9  1  6  0  0  0
  9 30  1  0  0  0  0
  9 31  1  0  0  0  0
 10 11  1  0  0  0  0
 10 12  1  0  0  0  0
 10 21  1  0  0  0  0
 11 14  1  0  0  0  0
 11 22  1  1  0  0  0
 12 13  1  0  0  0  0
 12 23  1  0  0  0  0
 13 15  1  0  0  0  0
 13 24  1  0  0  0  0
 13 25  1  0  0  0  0
 14 16  1  0  0  0  0
 14 26  1  0  0  0  0
 15 17  1  0  0  0  0
 15 27  1  0  0  0  0
 16 18  1  0  0  0  0
 16 28  1  0  0  0  0
 18 32  1  0  0  0  0
 18 33  1  0  0  0  0
 19 20  1  0  0  0  0
 20 36  1  0  0  0  0
 20 37  1  0  0  0  0
 20 38  1  0  0  0  0
M  END
> <PUBCHEM_COMPOUND_CID>
506006
> <PUBCHEM_COMPOUND_CANONICALIZED>
1
> <PUBCHEM_CACTVS_COMPLEXITY>
365
> <PUBCHEM_CACTVS_HBOND_ACCEPTOR>
8
> <PUBCHEM_CACTVS_HBOND_DONOR>
6
> <PUBCHEM_CACTVS_ROTATABLE_BOND>
5
> <PUBCHEM_CACTVS_SUBSKEYS>
AAADceBzOAAAAAAAAAAAAAAAAAAAAAAAAAAkAAAAAAAAAAAAAAAAHgAQCAAACDzhgAYCCALABgAIAAGQGAIAAAAAAAAAAIFIAAADUBIAgAQXQAAHFgCTAAH82aOQAAAAAAAAAAAAAAAAAAAAAAAAAAAAAA==
> <PUBCHEM_IUPAC_OPENEYE_NAME>
(4S,5R,6R)-5-acetamido-4-amino-6-[(1R,2R)-1,2,3-trihydroxypropyl]tetrahydropyran-2-carboxylic acid
> <PUBCHEM_IUPAC_CAS_NAME>
(4S,5R,6R)-5-acetamido-4-amino-6-[(1R,2R)-1,2,3-trihydroxypropyl]-2-oxanecarboxylic acid
> <PUBCHEM_IUPAC_NAME_MARKUP>
(4<I>S</I>,5<I>R</I>,6<I>R</I>)-5-acetamido-4-amino-6-[(1<I>R</I>,2<I>R</I>)-1,2,3-trihydroxypropyl]oxane-2-carboxylic acid
> <PUBCHEM_IUPAC_NAME>
(4S,5R,6R)-5-acetamido-4-amino-6-[(1R,2R)-1,2,3-trihydroxypropyl]oxane-2-carboxylic acid
> <PUBCHEM_IUPAC_SYSTEMATIC_NAME>
(4S,5R,6R)-5-acetamido-4-azanyl-6-[(1R,2R)-1,2,3-tris(oxidanyl)propyl]oxane-2-carboxylic acid
> <PUBCHEM_IUPAC_TRADITIONAL_NAME>
(4S,5R,6R)-5-acetamido-4-amino-6-[(1R,2R)-1,2,3-trihydroxypropyl]tetrahydropyran-2-carboxylic acid
> <PUBCHEM_IUPAC_INCHI>
InChI=1S/C11H20N2O7/c1-4(15)13-8-5(12)2-7(11(18)19)20-10(8)9(17)6(16)3-14/h5-10,14,16-17H,2-3,12H2,1H3,(H,13,15)(H,18,19)/t5-,6+,7?,8+,9+,10+/m0/s1
> <PUBCHEM_IUPAC_INCHIKEY>
PVGKVDAKKWMIIJ-CTTPWDMVSA-N
> <PUBCHEM_XLOGP3_AA>
-5.2
> <PUBCHEM_EXACT_MASS>
292.12705098
> <PUBCHEM_MOLECULAR_FORMULA>
C11H20N2O7
> <PUBCHEM_MOLECULAR_WEIGHT>
292.29
> <PUBCHEM_OPENEYE_CAN_SMILES>
CC(=O)NC1C(CC(OC1C(C(CO)O)O)C(=O)O)N
> <PUBCHEM_OPENEYE_ISO_SMILES>
CC(=O)N[C@@H]1[C@H](CC(O[C@H]1[C@@H]([C@@H](CO)O)O)C(=O)O)N
> <PUBCHEM_CACTVS_TPSA>
162
> <PUBCHEM_MONOISOTOPIC_WEIGHT>
292.12705098
> <PUBCHEM_TOTAL_CHARGE>
0
> <PUBCHEM_HEAVY_ATOM_COUNT>
20
> <PUBCHEM_ATOM_DEF_STEREO_COUNT>
5
> <PUBCHEM_ATOM_UDEF_STEREO_COUNT>
1
> <PUBCHEM_BOND_DEF_STEREO_COUNT>
0
> <PUBCHEM_BOND_UDEF_STEREO_COUNT>
0
> <PUBCHEM_ISOTOPIC_ATOM_COUNT>
0
> <PUBCHEM_COMPONENT_COUNT>
1
> <PUBCHEM_CACTVS_TAUTO_COUNT>
-1
> <PUBCHEM_COORDINATE_TYPE>
1
5
255
> <PUBCHEM_BONDANNOTATIONS>
11  22  5
15  17  3
14  2  6
16  3  5
10  8  5
12  9  6
$$$$
