506026
  -OEChem-10302200282D
 53 55  0     1  0  0  0  0  0999 V2000
    5.1350   -0.3660    0.0000 O   0  0  0  0  0  0  0  0  0  0  0  0
    6.0010    2.1340    0.0000 O   0  0  0  0  0  0  0  0  0  0  0  0
    2.7690    3.0001    0.0000 O   0  0  0  0  0  0  0  0  0  0  0  0
    3.4030   -2.3660    0.0000 O   0  0  0  0  0  0  0  0  0  0  0  0
    5.1350   -2.3660    0.0000 O   0  0  0  0  0  0  0  0  0  0  0  0
    6.8671    0.6340    0.0000 N   0  0  0  0  0  0  0  0  0  0  0  0
    4.2690    2.1340    0.0000 N   0  0  0  0  0  0  0  0  0  0  0  0
    2.5369    1.1340    0.0000 N   0  0  0  0  0  0  0  0  0  0  0  0
    7.7331    1.1340    0.0000 C   0  0  0  0  0  0  0  0  0  0  0  0
    8.7331    1.1340    0.0000 C   0  0  0  0  0  0  0  0  0  0  0  0
    8.2331    2.0000    0.0000 C   0  0  0  0  0  0  0  0  0  0  0  0
    6.8671   -0.3660    0.0000 C   0  0  0  0  0  0  0  0  0  0  0  0
    6.0010    1.1340    0.0000 C   0  0  0  0  0  0  0  0  0  0  0  0
    5.1350    0.6340    0.0000 C   0  0  1  0  0  0  0  0  0  0  0  0
    4.2690    1.1340    0.0000 C   0  0  1  0  0  0  0  0  0  0  0  0
    3.4030    0.6340    0.0000 C   0  0  2  0  0  0  0  0  0  0  0  0
    7.7331   -0.8660    0.0000 C   0  0  0  0  0  0  0  0  0  0  0  0
    3.4030   -0.3660    0.0000 C   0  0  0  0  0  0  0  0  0  0  0  0
    4.2690   -0.8660    0.0000 C   0  0  0  0  0  0  0  0  0  0  0  0
    7.7331   -1.8660    0.0000 C   0  0  0  0  0  0  0  0  0  0  0  0
    3.7690    3.0000    0.0000 C   0  0  0  0  0  0  0  0  0  0  0  0
    8.5991   -2.3660    0.0000 C   0  0  0  0  0  0  0  0  0  0  0  0
    6.8671   -2.3660    0.0000 C   0  0  0  0  0  0  0  0  0  0  0  0
    4.2690   -1.8660    0.0000 C   0  0  0  0  0  0  0  0  0  0  0  0
    4.2690    3.8660    0.0000 C   0  0  0  0  0  0  0  0  0  0  0  0
    8.5991   -3.3660    0.0000 C   0  0  0  0  0  0  0  0  0  0  0  0
    6.8671   -3.3660    0.0000 C   0  0  0  0  0  0  0  0  0  0  0  0
    7.7331   -3.8660    0.0000 C   0  0  0  0  0  0  0  0  0  0  0  0
    7.2947    1.5724    0.0000 H   0  0  0  0  0  0  0  0  0  0  0  0
    8.8408    0.5234    0.0000 H   0  0  0  0  0  0  0  0  0  0  0  0
    9.3157    1.3460    0.0000 H   0  0  0  0  0  0  0  0  0  0  0  0
    8.7080    2.3985    0.0000 H   0  0  0  0  0  0  0  0  0  0  0  0
    7.7581    2.3985    0.0000 H   0  0  0  0  0  0  0  0  0  0  0  0
    6.2565   -0.2584    0.0000 H   0  0  0  0  0  0  0  0  0  0  0  0
    6.6550   -0.9486    0.0000 H   0  0  0  0  0  0  0  0  0  0  0  0
    5.6720    0.3240    0.0000 H   0  0  0  0  0  0  0  0  0  0  0  0
    4.8059    1.4440    0.0000 H   0  0  0  0  0  0  0  0  0  0  0  0
    3.4030    1.2540    0.0000 H   0  0  0  0  0  0  0  0  0  0  0  0
    8.3437   -0.9737    0.0000 H   0  0  0  0  0  0  0  0  0  0  0  0
    7.9451   -0.2834    0.0000 H   0  0  0  0  0  0  0  0  0  0  0  0
    4.8059    2.4440    0.0000 H   0  0  0  0  0  0  0  0  0  0  0  0
    2.8660   -0.6760    0.0000 H   0  0  0  0  0  0  0  0  0  0  0  0
    2.0000    0.8240    0.0000 H   0  0  0  0  0  0  0  0  0  0  0  0
    2.2269    1.6709    0.0000 H   0  0  0  0  0  0  0  0  0  0  0  0
    9.1360   -2.0560    0.0000 H   0  0  0  0  0  0  0  0  0  0  0  0
    6.3301   -2.0560    0.0000 H   0  0  0  0  0  0  0  0  0  0  0  0
    4.8059    3.5560    0.0000 H   0  0  0  0  0  0  0  0  0  0  0  0
    4.5790    4.4030    0.0000 H   0  0  0  0  0  0  0  0  0  0  0  0
    3.7320    4.1760    0.0000 H   0  0  0  0  0  0  0  0  0  0  0  0
    9.1360   -3.6760    0.0000 H   0  0  0  0  0  0  0  0  0  0  0  0
    6.3301   -3.6760    0.0000 H   0  0  0  0  0  0  0  0  0  0  0  0
    7.7331   -4.4860    0.0000 H   0  0  0  0  0  0  0  0  0  0  0  0
    3.4030   -2.9860    0.0000 H   0  0  0  0  0  0  0  0  0  0  0  0
  1 14  1  0  0  0  0
  1 19  1  0  0  0  0
  2 13  2  0  0  0  0
  3 21  2  0  0  0  0
  4 24  1  0  0  0  0
  4 53  1  0  0  0  0
  5 24  2  0  0  0  0
  6  9  1  0  0  0  0
  6 12  1  0  0  0  0
  6 13  1  0  0  0  0
 15  7  1  1  0  0  0
  7 21  1  0  0  0  0
  7 41  1  0  0  0  0
 16  8  1  6  0  0  0
  8 43  1  0  0  0  0
  8 44  1  0  0  0  0
  9 10  1  0  0  0  0
  9 11  1  0  0  0  0
  9 29  1  0  0  0  0
 10 11  1  0  0  0  0
 10 30  1  0  0  0  0
 10 31  1  0  0  0  0
 11 32  1  0  0  0  0
 11 33  1  0  0  0  0
 12 17  1  0  0  0  0
 12 34  1  0  0  0  0
 12 35  1  0  0  0  0
 14 13  1  6  0  0  0
 14 15  1  0  0  0  0
 14 36  1  0  0  0  0
 15 16  1  0  0  0  0
 15 37  1  0  0  0  0
 16 18  1  0  0  0  0
 16 38  1  0  0  0  0
 17 20  1  0  0  0  0
 17 39  1  0  0  0  0
 17 40  1  0  0  0  0
 18 19  2  0  0  0  0
 18 42  1  0  0  0  0
 19 24  1  0  0  0  0
 20 22  2  0  0  0  0
 20 23  1  0  0  0  0
 21 25  1  0  0  0  0
 22 26  1  0  0  0  0
 22 45  1  0  0  0  0
 23 27  2  0  0  0  0
 23 46  1  0  0  0  0
 25 47  1  0  0  0  0
 25 48  1  0  0  0  0
 25 49  1  0  0  0  0
 26 28  2  0  0  0  0
 26 50  1  0  0  0  0
 27 28  1  0  0  0  0
 27 51  1  0  0  0  0
 28 52  1  0  0  0  0
M  END
> <PUBCHEM_COMPOUND_CID>
506026
> <PUBCHEM_COMPOUND_CANONICALIZED>
1
> <PUBCHEM_CACTVS_COMPLEXITY>
640
> <PUBCHEM_CACTVS_HBOND_ACCEPTOR>
6
> <PUBCHEM_CACTVS_HBOND_DONOR>
3
> <PUBCHEM_CACTVS_ROTATABLE_BOND>
7
> <PUBCHEM_CACTVS_SUBSKEYS>
AAADceB7OAAAAAAAAAAAAAAAGAAAAAAAAAAwQAAAAAAAAAABAAAAHgAQCAAADDzhmAYyCIPABgCIAiHSGAKCCAAgIAAIiIFIAMgLZDqA0RWXMAAmlgCbmYccgIAOAAAAAAAAAAAAAAAAAAAAAAAAAAAAAA==
> <PUBCHEM_IUPAC_OPENEYE_NAME>
(2R,3R,4S)-3-acetamido-4-amino-2-[cyclopropyl(2-phenylethyl)carbamoyl]-3,4-dihydro-2H-pyran-6-carboxylic acid
> <PUBCHEM_IUPAC_CAS_NAME>
(2R,3R,4S)-3-acetamido-4-amino-2-[[cyclopropyl(2-phenylethyl)amino]-oxomethyl]-3,4-dihydro-2H-pyran-6-carboxylic acid
> <PUBCHEM_IUPAC_NAME_MARKUP>
(2<I>R</I>,3<I>R</I>,4<I>S</I>)-3-acetamido-4-amino-2-[cyclopropyl(2-phenylethyl)carbamoyl]-3,4-dihydro-2<I>H</I>-pyran-6-carboxylic acid
> <PUBCHEM_IUPAC_NAME>
(2R,3R,4S)-3-acetamido-4-amino-2-[cyclopropyl(2-phenylethyl)carbamoyl]-3,4-dihydro-2H-pyran-6-carboxylic acid
> <PUBCHEM_IUPAC_SYSTEMATIC_NAME>
(2R,3R,4S)-3-acetamido-4-azanyl-2-[cyclopropyl(2-phenylethyl)carbamoyl]-3,4-dihydro-2H-pyran-6-carboxylic acid
> <PUBCHEM_IUPAC_TRADITIONAL_NAME>
(2R,3R,4S)-3-acetamido-4-amino-2-[cyclopropyl(phenethyl)carbamoyl]-3,4-dihydro-2H-pyran-6-carboxylic acid
> <PUBCHEM_IUPAC_INCHI>
InChI=1S/C20H25N3O5/c1-12(24)22-17-15(21)11-16(20(26)27)28-18(17)19(25)23(14-7-8-14)10-9-13-5-3-2-4-6-13/h2-6,11,14-15,17-18H,7-10,21H2,1H3,(H,22,24)(H,26,27)/t15-,17+,18+/m0/s1
> <PUBCHEM_IUPAC_INCHIKEY>
QNEUCNRFTPZVRD-CGTJXYLNSA-N
> <PUBCHEM_XLOGP3_AA>
-1.1
> <PUBCHEM_EXACT_MASS>
387.17942091
> <PUBCHEM_MOLECULAR_FORMULA>
C20H25N3O5
> <PUBCHEM_MOLECULAR_WEIGHT>
387.4
> <PUBCHEM_OPENEYE_CAN_SMILES>
CC(=O)NC1C(C=C(OC1C(=O)N(CCC2=CC=CC=C2)C3CC3)C(=O)O)N
> <PUBCHEM_OPENEYE_ISO_SMILES>
CC(=O)N[C@@H]1[C@H](C=C(O[C@H]1C(=O)N(CCC2=CC=CC=C2)C3CC3)C(=O)O)N
> <PUBCHEM_CACTVS_TPSA>
122
> <PUBCHEM_MONOISOTOPIC_WEIGHT>
387.17942091
> <PUBCHEM_TOTAL_CHARGE>
0
> <PUBCHEM_HEAVY_ATOM_COUNT>
28
> <PUBCHEM_ATOM_DEF_STEREO_COUNT>
3
> <PUBCHEM_ATOM_UDEF_STEREO_COUNT>
0
> <PUBCHEM_BOND_DEF_STEREO_COUNT>
0
> <PUBCHEM_BOND_UDEF_STEREO_COUNT>
0
> <PUBCHEM_ISOTOPIC_ATOM_COUNT>
0
> <PUBCHEM_COMPONENT_COUNT>
1
> <PUBCHEM_CACTVS_TAUTO_COUNT>
-1
> <PUBCHEM_COORDINATE_TYPE>
1
5
255
> <PUBCHEM_BONDANNOTATIONS>
14  13  6
20  22  8
20  23  8
22  26  8
23  27  8
26  28  8
27  28  8
15  7  5
16  8  6
$$$$
