506033
  -OEChem-10302200282D
 64 65  0     1  0  0  0  0  0999 V2000
    5.1350   -0.8060    0.0000 O   0  0  0  0  0  0  0  0  0  0  0  0
    6.0010    1.6940    0.0000 O   0  0  0  0  0  0  0  0  0  0  0  0
    2.7690    2.5601    0.0000 O   0  0  0  0  0  0  0  0  0  0  0  0
    3.4030   -2.8060    0.0000 O   0  0  0  0  0  0  0  0  0  0  0  0
    5.1350   -2.8060    0.0000 O   0  0  0  0  0  0  0  0  0  0  0  0
    6.8671    0.1940    0.0000 N   0  0  0  0  0  0  0  0  0  0  0  0
    4.2690    1.6940    0.0000 N   0  0  0  0  0  0  0  0  0  0  0  0
    2.5369    0.6940    0.0000 N   0  0  0  0  0  0  0  0  0  0  0  0
    4.2690    0.6940    0.0000 C   0  0  1  0  0  0  0  0  0  0  0  0
    5.1350    0.1940    0.0000 C   0  0  2  0  0  0  0  0  0  0  0  0
    3.4030    0.1940    0.0000 C   0  0  2  0  0  0  0  0  0  0  0  0
    6.0010    0.6940    0.0000 C   0  0  0  0  0  0  0  0  0  0  0  0
    3.4030   -0.8060    0.0000 C   0  0  0  0  0  0  0  0  0  0  0  0
    7.7331    0.6940    0.0000 C   0  0  0  0  0  0  0  0  0  0  0  0
    6.8671   -0.8060    0.0000 C   0  0  0  0  0  0  0  0  0  0  0  0
    4.2690   -1.3060    0.0000 C   0  0  0  0  0  0  0  0  0  0  0  0
    8.5991    0.1940    0.0000 C   0  0  0  0  0  0  0  0  0  0  0  0
    7.7331   -1.3060    0.0000 C   0  0  0  0  0  0  0  0  0  0  0  0
    9.4651    0.6940    0.0000 C   0  0  0  0  0  0  0  0  0  0  0  0
    3.7690    2.5600    0.0000 C   0  0  0  0  0  0  0  0  0  0  0  0
    4.2690   -2.3060    0.0000 C   0  0  0  0  0  0  0  0  0  0  0  0
    7.7331   -2.3060    0.0000 C   0  0  0  0  0  0  0  0  0  0  0  0
   11.1972    1.6940    0.0000 C   0  0  0  0  0  0  0  0  0  0  0  0
    9.4651    1.6940    0.0000 C   0  0  0  0  0  0  0  0  0  0  0  0
   10.3312    0.1940    0.0000 C   0  0  0  0  0  0  0  0  0  0  0  0
   12.0632    2.1940    0.0000 C   0  0  0  0  0  0  0  0  0  0  0  0
   10.3312    2.1940    0.0000 C   0  0  0  0  0  0  0  0  0  0  0  0
   11.1972    0.6940    0.0000 C   0  0  0  0  0  0  0  0  0  0  0  0
    4.2690    3.4260    0.0000 C   0  0  0  0  0  0  0  0  0  0  0  0
   12.9292    1.6940    0.0000 C   0  0  0  0  0  0  0  0  0  0  0  0
   12.0632    3.1940    0.0000 C   0  0  0  0  0  0  0  0  0  0  0  0
    4.8059    1.0040    0.0000 H   0  0  0  0  0  0  0  0  0  0  0  0
    5.6720   -0.1160    0.0000 H   0  0  0  0  0  0  0  0  0  0  0  0
    3.4030    0.8140    0.0000 H   0  0  0  0  0  0  0  0  0  0  0  0
    2.8660   -1.1160    0.0000 H   0  0  0  0  0  0  0  0  0  0  0  0
    8.1316    1.1689    0.0000 H   0  0  0  0  0  0  0  0  0  0  0  0
    7.3346    1.1689    0.0000 H   0  0  0  0  0  0  0  0  0  0  0  0
    4.8059    2.0040    0.0000 H   0  0  0  0  0  0  0  0  0  0  0  0
    6.2565   -0.6984    0.0000 H   0  0  0  0  0  0  0  0  0  0  0  0
    6.6550   -1.3886    0.0000 H   0  0  0  0  0  0  0  0  0  0  0  0
    8.2006   -0.2810    0.0000 H   0  0  0  0  0  0  0  0  0  0  0  0
    8.9976   -0.2810    0.0000 H   0  0  0  0  0  0  0  0  0  0  0  0
    2.0000    0.3840    0.0000 H   0  0  0  0  0  0  0  0  0  0  0  0
    2.2269    1.2309    0.0000 H   0  0  0  0  0  0  0  0  0  0  0  0
    8.3437   -1.4137    0.0000 H   0  0  0  0  0  0  0  0  0  0  0  0
    7.9451   -0.7234    0.0000 H   0  0  0  0  0  0  0  0  0  0  0  0
    7.1131   -2.3060    0.0000 H   0  0  0  0  0  0  0  0  0  0  0  0
    7.7331   -2.9260    0.0000 H   0  0  0  0  0  0  0  0  0  0  0  0
    8.3531   -2.3060    0.0000 H   0  0  0  0  0  0  0  0  0  0  0  0
    8.9282    2.0040    0.0000 H   0  0  0  0  0  0  0  0  0  0  0  0
   10.3312   -0.4260    0.0000 H   0  0  0  0  0  0  0  0  0  0  0  0
   12.0632    1.5740    0.0000 H   0  0  0  0  0  0  0  0  0  0  0  0
   10.3312    2.8140    0.0000 H   0  0  0  0  0  0  0  0  0  0  0  0
   11.7341    0.3840    0.0000 H   0  0  0  0  0  0  0  0  0  0  0  0
    4.8059    3.1160    0.0000 H   0  0  0  0  0  0  0  0  0  0  0  0
    4.5790    3.9630    0.0000 H   0  0  0  0  0  0  0  0  0  0  0  0
    3.7320    3.7360    0.0000 H   0  0  0  0  0  0  0  0  0  0  0  0
   12.6192    1.1570    0.0000 H   0  0  0  0  0  0  0  0  0  0  0  0
   13.4662    1.3840    0.0000 H   0  0  0  0  0  0  0  0  0  0  0  0
   13.2392    2.2309    0.0000 H   0  0  0  0  0  0  0  0  0  0  0  0
   12.6832    3.1940    0.0000 H   0  0  0  0  0  0  0  0  0  0  0  0
   12.0632    3.8140    0.0000 H   0  0  0  0  0  0  0  0  0  0  0  0
   11.4432    3.1940    0.0000 H   0  0  0  0  0  0  0  0  0  0  0  0
    3.4030   -3.4260    0.0000 H   0  0  0  0  0  0  0  0  0  0  0  0
  1 10  1  0  0  0  0
  1 16  1  0  0  0  0
  2 12  2  0  0  0  0
  3 20  2  0  0  0  0
  4 21  1  0  0  0  0
  4 64  1  0  0  0  0
  5 21  2  0  0  0  0
  6 12  1  0  0  0  0
  6 14  1  0  0  0  0
  6 15  1  0  0  0  0
  9  7  1  1  0  0  0
  7 20  1  0  0  0  0
  7 38  1  0  0  0  0
 11  8  1  6  0  0  0
  8 43  1  0  0  0  0
  8 44  1  0  0  0  0
  9 10  1  0  0  0  0
  9 11  1  0  0  0  0
  9 32  1  0  0  0  0
 10 12  1  6  0  0  0
 10 33  1  0  0  0  0
 11 13  1  0  0  0  0
 11 34  1  0  0  0  0
 13 16  2  0  0  0  0
 13 35  1  0  0  0  0
 14 17  1  0  0  0  0
 14 36  1  0  0  0  0
 14 37  1  0  0  0  0
 15 18  1  0  0  0  0
 15 39  1  0  0  0  0
 15 40  1  0  0  0  0
 16 21  1  0  0  0  0
 17 19  1  0  0  0  0
 17 41  1  0  0  0  0
 17 42  1  0  0  0  0
 18 22  1  0  0  0  0
 18 45  1  0  0  0  0
 18 46  1  0  0  0  0
 19 24  2  0  0  0  0
 19 25  1  0  0  0  0
 20 29  1  0  0  0  0
 22 47  1  0  0  0  0
 22 48  1  0  0  0  0
 22 49  1  0  0  0  0
 23 26  1  0  0  0  0
 23 27  2  0  0  0  0
 23 28  1  0  0  0  0
 24 27  1  0  0  0  0
 24 50  1  0  0  0  0
 25 28  2  0  0  0  0
 25 51  1  0  0  0  0
 26 30  1  0  0  0  0
 26 31  1  0  0  0  0
 26 52  1  0  0  0  0
 27 53  1  0  0  0  0
 28 54  1  0  0  0  0
 29 55  1  0  0  0  0
 29 56  1  0  0  0  0
 29 57  1  0  0  0  0
 30 58  1  0  0  0  0
 30 59  1  0  0  0  0
 30 60  1  0  0  0  0
 31 61  1  0  0  0  0
 31 62  1  0  0  0  0
 31 63  1  0  0  0  0
M  END
> <PUBCHEM_COMPOUND_CID>
506033
> <PUBCHEM_COMPOUND_CANONICALIZED>
1
> <PUBCHEM_CACTVS_COMPLEXITY>
670
> <PUBCHEM_CACTVS_HBOND_ACCEPTOR>
6
> <PUBCHEM_CACTVS_HBOND_DONOR>
3
> <PUBCHEM_CACTVS_ROTATABLE_BOND>
9
> <PUBCHEM_CACTVS_SUBSKEYS>
AAADcfB7OAAAAAAAAAAAAAAAAAAAAAAAAAAwQAAAAAAAAAABAAAAHgAQCAAADTzhmAYyCIPABgCIAiHSGAKCCAAgIAAIiIFIAMgLZDqA0RWXMAAmlgCbmYccgMAOwAAAAAAAAACAAAAAAAAAAAAAAAAAAA==
> <PUBCHEM_IUPAC_OPENEYE_NAME>
(2R,3R,4S)-3-acetamido-4-amino-2-[2-(4-isopropylphenyl)ethyl-propyl-carbamoyl]-3,4-dihydro-2H-pyran-6-carboxylic acid
> <PUBCHEM_IUPAC_CAS_NAME>
(2R,3R,4S)-3-acetamido-4-amino-2-[oxo-[2-(4-propan-2-ylphenyl)ethyl-propylamino]methyl]-3,4-dihydro-2H-pyran-6-carboxylic acid
> <PUBCHEM_IUPAC_NAME_MARKUP>
(2<I>R</I>,3<I>R</I>,4<I>S</I>)-3-acetamido-4-amino-2-[2-(4-propan-2-ylphenyl)ethyl-propylcarbamoyl]-3,4-dihydro-2<I>H</I>-pyran-6-carboxylic acid
> <PUBCHEM_IUPAC_NAME>
(2R,3R,4S)-3-acetamido-4-amino-2-[2-(4-propan-2-ylphenyl)ethyl-propylcarbamoyl]-3,4-dihydro-2H-pyran-6-carboxylic acid
> <PUBCHEM_IUPAC_SYSTEMATIC_NAME>
(2R,3R,4S)-3-acetamido-4-azanyl-2-[2-(4-propan-2-ylphenyl)ethyl-propyl-carbamoyl]-3,4-dihydro-2H-pyran-6-carboxylic acid
> <PUBCHEM_IUPAC_TRADITIONAL_NAME>
(2R,3R,4S)-3-acetamido-4-amino-2-[2-p-cumenylethyl(propyl)carbamoyl]-3,4-dihydro-2H-pyran-6-carboxylic acid
> <PUBCHEM_IUPAC_INCHI>
InChI=1S/C23H33N3O5/c1-5-11-26(12-10-16-6-8-17(9-7-16)14(2)3)22(28)21-20(25-15(4)27)18(24)13-19(31-21)23(29)30/h6-9,13-14,18,20-21H,5,10-12,24H2,1-4H3,(H,25,27)(H,29,30)/t18-,20+,21+/m0/s1
> <PUBCHEM_IUPAC_INCHIKEY>
XSLMSJXDVXJCAZ-CEWLAPEOSA-N
> <PUBCHEM_XLOGP3_AA>
0.4
> <PUBCHEM_EXACT_MASS>
431.24202116
> <PUBCHEM_MOLECULAR_FORMULA>
C23H33N3O5
> <PUBCHEM_MOLECULAR_WEIGHT>
431.5
> <PUBCHEM_OPENEYE_CAN_SMILES>
CCCN(CCC1=CC=C(C=C1)C(C)C)C(=O)C2C(C(C=C(O2)C(=O)O)N)NC(=O)C
> <PUBCHEM_OPENEYE_ISO_SMILES>
CCCN(CCC1=CC=C(C=C1)C(C)C)C(=O)[C@H]2[C@@H]([C@H](C=C(O2)C(=O)O)N)NC(=O)C
> <PUBCHEM_CACTVS_TPSA>
122
> <PUBCHEM_MONOISOTOPIC_WEIGHT>
431.24202116
> <PUBCHEM_TOTAL_CHARGE>
0
> <PUBCHEM_HEAVY_ATOM_COUNT>
31
> <PUBCHEM_ATOM_DEF_STEREO_COUNT>
3
> <PUBCHEM_ATOM_UDEF_STEREO_COUNT>
0
> <PUBCHEM_BOND_DEF_STEREO_COUNT>
0
> <PUBCHEM_BOND_UDEF_STEREO_COUNT>
0
> <PUBCHEM_ISOTOPIC_ATOM_COUNT>
0
> <PUBCHEM_COMPONENT_COUNT>
1
> <PUBCHEM_CACTVS_TAUTO_COUNT>
-1
> <PUBCHEM_COORDINATE_TYPE>
1
5
255
> <PUBCHEM_BONDANNOTATIONS>
10  12  6
19  24  8
19  25  8
23  27  8
23  28  8
24  27  8
25  28  8
9  7  5
11  8  6
$$$$
