506000
  -OEChem-10302200282D
 82 86  0     1  0  0  0  0  0999 V2000
    4.1872   -0.1037    0.0000 O   0  0  0  0  0  0  0  0  0  0  0  0
    4.8695    1.6349    0.0000 O   0  0  0  0  0  0  0  0  0  0  0  0
    8.3371   -0.7292    0.0000 O   0  0  0  0  0  0  0  0  0  0  0  0
    6.6732   -1.0440    0.0000 N   0  0  0  0  0  0  0  0  0  0  0  0
    7.3315    0.6333    0.0000 N   0  0  0  0  0  0  0  0  0  0  0  0
   11.7418   -0.6714    0.0000 N   0  0  0  0  0  0  0  0  0  0  0  0
   12.3255    0.1333    0.0000 N   0  0  0  0  0  0  0  0  0  0  0  0
   12.0525    1.8886    0.0000 N   0  0  0  0  0  0  0  0  0  0  0  0
    5.6844   -0.8950    0.0000 C   0  0  1  0  0  0  0  0  0  0  0  0
    6.5053    1.1966    0.0000 C   0  0  1  0  0  0  0  0  0  0  0  0
    5.1844   -0.0290    0.0000 C   0  0  1  0  0  0  0  0  0  0  0  0
    5.5497    0.9019    0.0000 C   0  0  1  0  0  0  0  0  0  0  0  0
    5.1210   -1.7212    0.0000 C   0  0  0  0  0  0  0  0  0  0  0  0
    6.6543    2.1855    0.0000 C   0  0  0  0  0  0  0  0  0  0  0  0
    7.4062   -0.3639    0.0000 C   0  0  0  0  0  0  0  0  0  0  0  0
    6.9680   -1.9996    0.0000 C   0  0  0  0  0  0  0  0  0  0  0  0
    8.1976    1.1333    0.0000 C   0  0  0  0  0  0  0  0  0  0  0  0
    4.1238   -1.6465    0.0000 C   0  0  0  0  0  0  0  0  0  0  0  0
    6.2878   -2.7327    0.0000 C   0  0  0  0  0  0  0  0  0  0  0  0
    5.8725    2.8090    0.0000 C   0  0  0  0  0  0  0  0  0  0  0  0
    9.0636    0.6333    0.0000 C   0  0  0  0  0  0  0  0  0  0  0  0
    6.5825   -3.6882    0.0000 C   0  0  0  0  0  0  0  0  0  0  0  0
    3.5605   -2.4728    0.0000 C   0  0  0  0  0  0  0  0  0  0  0  0
    3.6900   -0.7455    0.0000 C   0  0  0  0  0  0  0  0  0  0  0  0
    4.9416    2.4436    0.0000 C   0  0  0  0  0  0  0  0  0  0  0  0
    6.0215    3.7978    0.0000 C   0  0  0  0  0  0  0  0  0  0  0  0
    9.9296    1.1333    0.0000 C   0  0  0  0  0  0  0  0  0  0  0  0
    9.0636   -0.3667    0.0000 C   0  0  0  0  0  0  0  0  0  0  0  0
    2.5633   -2.3980    0.0000 C   0  0  0  0  0  0  0  0  0  0  0  0
    2.6928   -0.6708    0.0000 C   0  0  0  0  0  0  0  0  0  0  0  0
    5.9024   -4.4213    0.0000 C   0  0  0  0  0  0  0  0  0  0  0  0
   10.7956    0.6333    0.0000 C   0  0  0  0  0  0  0  0  0  0  0  0
    2.1294   -1.4970    0.0000 C   0  0  0  0  0  0  0  0  0  0  0  0
    4.1598    3.0671    0.0000 C   0  0  0  0  0  0  0  0  0  0  0  0
    5.2397    4.4213    0.0000 C   0  0  0  0  0  0  0  0  0  0  0  0
    9.9296   -0.8667    0.0000 C   0  0  0  0  0  0  0  0  0  0  0  0
   10.7956   -0.3667    0.0000 C   0  0  0  0  0  0  0  0  0  0  0  0
    4.3088    4.0560    0.0000 C   0  0  0  0  0  0  0  0  0  0  0  0
    2.0000   -3.2243    0.0000 C   0  0  0  0  0  0  0  0  0  0  0  0
    2.2589    0.2302    0.0000 C   0  0  0  0  0  0  0  0  0  0  0  0
   11.7418    0.9381    0.0000 C   0  0  0  0  0  0  0  0  0  0  0  0
    5.9323   -1.4633    0.0000 H   0  0  0  0  0  0  0  0  0  0  0  0
    7.0736    1.4446    0.0000 H   0  0  0  0  0  0  0  0  0  0  0  0
    4.8162    0.4699    0.0000 H   0  0  0  0  0  0  0  0  0  0  0  0
    5.7102    1.5008    0.0000 H   0  0  0  0  0  0  0  0  0  0  0  0
    4.9681   -2.3221    0.0000 H   0  0  0  0  0  0  0  0  0  0  0  0
    5.6862   -1.9762    0.0000 H   0  0  0  0  0  0  0  0  0  0  0  0
    7.2420    1.9880    0.0000 H   0  0  0  0  0  0  0  0  0  0  0  0
    6.9508    2.7300    0.0000 H   0  0  0  0  0  0  0  0  0  0  0  0
    7.3423   -2.4938    0.0000 H   0  0  0  0  0  0  0  0  0  0  0  0
    7.5197   -1.7168    0.0000 H   0  0  0  0  0  0  0  0  0  0  0  0
    8.5961    1.6083    0.0000 H   0  0  0  0  0  0  0  0  0  0  0  0
    7.7990    1.6083    0.0000 H   0  0  0  0  0  0  0  0  0  0  0  0
    5.9134   -2.2384    0.0000 H   0  0  0  0  0  0  0  0  0  0  0  0
    5.7361   -3.0155    0.0000 H   0  0  0  0  0  0  0  0  0  0  0  0
    3.8379    0.4086    0.0000 H   0  0  0  0  0  0  0  0  0  0  0  0
    4.2651    1.4970    0.0000 H   0  0  0  0  0  0  0  0  0  0  0  0
    6.9569   -4.1825    0.0000 H   0  0  0  0  0  0  0  0  0  0  0  0
    7.1343   -3.4054    0.0000 H   0  0  0  0  0  0  0  0  0  0  0  0
    3.8295   -3.0314    0.0000 H   0  0  0  0  0  0  0  0  0  0  0  0
    4.0392   -0.2333    0.0000 H   0  0  0  0  0  0  0  0  0  0  0  0
    4.8492    1.8306    0.0000 H   0  0  0  0  0  0  0  0  0  0  0  0
    6.5987    4.0243    0.0000 H   0  0  0  0  0  0  0  0  0  0  0  0
    9.9296    1.7533    0.0000 H   0  0  0  0  0  0  0  0  0  0  0  0
    8.5266   -0.6767    0.0000 H   0  0  0  0  0  0  0  0  0  0  0  0
    5.4479   -3.9996    0.0000 H   0  0  0  0  0  0  0  0  0  0  0  0
    5.4807   -4.8758    0.0000 H   0  0  0  0  0  0  0  0  0  0  0  0
    6.3569   -4.8430    0.0000 H   0  0  0  0  0  0  0  0  0  0  0  0
    1.5112   -1.4507    0.0000 H   0  0  0  0  0  0  0  0  0  0  0  0
    3.5826    2.8406    0.0000 H   0  0  0  0  0  0  0  0  0  0  0  0
    5.3321    5.0344    0.0000 H   0  0  0  0  0  0  0  0  0  0  0  0
    9.9296   -1.4867    0.0000 H   0  0  0  0  0  0  0  0  0  0  0  0
    3.8241    4.4425    0.0000 H   0  0  0  0  0  0  0  0  0  0  0  0
    1.4877   -2.8750    0.0000 H   0  0  0  0  0  0  0  0  0  0  0  0
    1.6507   -3.7365    0.0000 H   0  0  0  0  0  0  0  0  0  0  0  0
    2.5123   -3.5735    0.0000 H   0  0  0  0  0  0  0  0  0  0  0  0
    2.8175    0.4992    0.0000 H   0  0  0  0  0  0  0  0  0  0  0  0
    1.9899    0.7888    0.0000 H   0  0  0  0  0  0  0  0  0  0  0  0
    1.7003   -0.0389    0.0000 H   0  0  0  0  0  0  0  0  0  0  0  0
   11.9345   -1.2607    0.0000 H   0  0  0  0  0  0  0  0  0  0  0  0
   12.6592    2.0164    0.0000 H   0  0  0  0  0  0  0  0  0  0  0  0
   11.6384    2.3500    0.0000 H   0  0  0  0  0  0  0  0  0  0  0  0
 11  1  1  6  0  0  0
  1 56  1  0  0  0  0
 12  2  1  1  0  0  0
  2 57  1  0  0  0  0
  3 15  2  0  0  0  0
  4  9  1  0  0  0  0
  4 15  1  0  0  0  0
  4 16  1  0  0  0  0
  5 10  1  0  0  0  0
  5 15  1  0  0  0  0
  5 17  1  0  0  0  0
  6  7  1  0  0  0  0
  6 37  1  0  0  0  0
  6 80  1  0  0  0  0
  7 41  2  0  0  0  0
  8 41  1  0  0  0  0
  8 81  1  0  0  0  0
  8 82  1  0  0  0  0
  9 11  1  0  0  0  0
  9 13  1  6  0  0  0
  9 42  1  0  0  0  0
 10 12  1  0  0  0  0
 10 14  1  1  0  0  0
 10 43  1  0  0  0  0
 11 12  1  0  0  0  0
 11 44  1  0  0  0  0
 12 45  1  0  0  0  0
 13 18  1  0  0  0  0
 13 46  1  0  0  0  0
 13 47  1  0  0  0  0
 14 20  1  0  0  0  0
 14 48  1  0  0  0  0
 14 49  1  0  0  0  0
 16 19  1  0  0  0  0
 16 50  1  0  0  0  0
 16 51  1  0  0  0  0
 17 21  1  0  0  0  0
 17 52  1  0  0  0  0
 17 53  1  0  0  0  0
 18 23  2  0  0  0  0
 18 24  1  0  0  0  0
 19 22  1  0  0  0  0
 19 54  1  0  0  0  0
 19 55  1  0  0  0  0
 20 25  2  0  0  0  0
 20 26  1  0  0  0  0
 21 27  2  0  0  0  0
 21 28  1  0  0  0  0
 22 31  1  0  0  0  0
 22 58  1  0  0  0  0
 22 59  1  0  0  0  0
 23 29  1  0  0  0  0
 23 60  1  0  0  0  0
 24 30  2  0  0  0  0
 24 61  1  0  0  0  0
 25 34  1  0  0  0  0
 25 62  1  0  0  0  0
 26 35  2  0  0  0  0
 26 63  1  0  0  0  0
 27 32  1  0  0  0  0
 27 64  1  0  0  0  0
 28 36  2  0  0  0  0
 28 65  1  0  0  0  0
 29 33  2  0  0  0  0
 29 39  1  0  0  0  0
 30 33  1  0  0  0  0
 30 40  1  0  0  0  0
 31 66  1  0  0  0  0
 31 67  1  0  0  0  0
 31 68  1  0  0  0  0
 32 37  2  0  0  0  0
 32 41  1  0  0  0  0
 33 69  1  0  0  0  0
 34 38  2  0  0  0  0
 34 70  1  0  0  0  0
 35 38  1  0  0  0  0
 35 71  1  0  0  0  0
 36 37  1  0  0  0  0
 36 72  1  0  0  0  0
 38 73  1  0  0  0  0
 39 74  1  0  0  0  0
 39 75  1  0  0  0  0
 39 76  1  0  0  0  0
 40 77  1  0  0  0  0
 40 78  1  0  0  0  0
 40 79  1  0  0  0  0
M  END
> <PUBCHEM_COMPOUND_CID>
506000
> <PUBCHEM_COMPOUND_CANONICALIZED>
1
> <PUBCHEM_CACTVS_COMPLEXITY>
830
> <PUBCHEM_CACTVS_HBOND_ACCEPTOR>
5
> <PUBCHEM_CACTVS_HBOND_DONOR>
4
> <PUBCHEM_CACTVS_ROTATABLE_BOND>
9
> <PUBCHEM_CACTVS_SUBSKEYS>
AAADcfB/sAAAAAAAAAAAAAAAAAAAAWAAAAAwYMAABYAAAFgB9AAAHgAYCAAADDzhngYz8PNjAgCqAyZicACSBAIgAgAcuSA4ZJiLMKKA0dGE5Ah+ngKZyAeQwPAOCAACAAACAAAQAAQAAAQAAAAAAAAAAA==
> <PUBCHEM_IUPAC_OPENEYE_NAME>
(4R,5S,6S,7R)-1-[(3-amino-1H-indazol-5-yl)methyl]-7-benzyl-3-butyl-4-[(3,5-dimethylphenyl)methyl]-5,6-dihydroxy-1,3-diazepan-2-one
> <PUBCHEM_IUPAC_CAS_NAME>
(4R,5S,6S,7R)-1-[(3-amino-1H-indazol-5-yl)methyl]-3-butyl-4-[(3,5-dimethylphenyl)methyl]-5,6-dihydroxy-7-(phenylmethyl)-1,3-diazepan-2-one
> <PUBCHEM_IUPAC_NAME_MARKUP>
(4<I>R</I>,5<I>S</I>,6<I>S</I>,7<I>R</I>)-1-[(3-amino-1<I>H</I>-indazol-5-yl)methyl]-7-benzyl-3-butyl-4-[(3,5-dimethylphenyl)methyl]-5,6-dihydroxy-1,3-diazepan-2-one
> <PUBCHEM_IUPAC_NAME>
(4R,5S,6S,7R)-1-[(3-amino-1H-indazol-5-yl)methyl]-7-benzyl-3-butyl-4-[(3,5-dimethylphenyl)methyl]-5,6-dihydroxy-1,3-diazepan-2-one
> <PUBCHEM_IUPAC_SYSTEMATIC_NAME>
(4R,5S,6S,7R)-1-[(3-azanyl-1H-indazol-5-yl)methyl]-3-butyl-4-[(3,5-dimethylphenyl)methyl]-5,6-bis(oxidanyl)-7-(phenylmethyl)-1,3-diazepan-2-one
> <PUBCHEM_IUPAC_TRADITIONAL_NAME>
(4R,5S,6S,7R)-1-[(3-amino-1H-indazol-5-yl)methyl]-7-benzyl-3-butyl-4-(3,5-dimethylbenzyl)-5,6-dihydroxy-1,3-diazepan-2-one
> <PUBCHEM_IUPAC_INCHI>
InChI=1S/C33H41N5O3/c1-4-5-13-37-28(19-25-15-21(2)14-22(3)16-25)30(39)31(40)29(18-23-9-7-6-8-10-23)38(33(37)41)20-24-11-12-27-26(17-24)32(34)36-35-27/h6-12,14-17,28-31,39-40H,4-5,13,18-20H2,1-3H3,(H3,34,35,36)/t28-,29-,30+,31+/m1/s1
> <PUBCHEM_IUPAC_INCHIKEY>
HRDFVOCELDFBCX-VKONIRKNSA-N
> <PUBCHEM_XLOGP3_AA>
5.1
> <PUBCHEM_EXACT_MASS>
555.32094019
> <PUBCHEM_MOLECULAR_FORMULA>
C33H41N5O3
> <PUBCHEM_MOLECULAR_WEIGHT>
555.7
> <PUBCHEM_OPENEYE_CAN_SMILES>
CCCCN1C(C(C(C(N(C1=O)CC2=CC3=C(C=C2)NN=C3N)CC4=CC=CC=C4)O)O)CC5=CC(=CC(=C5)C)C
> <PUBCHEM_OPENEYE_ISO_SMILES>
CCCCN1[C@@H]([C@@H]([C@H]([C@H](N(C1=O)CC2=CC3=C(C=C2)NN=C3N)CC4=CC=CC=C4)O)O)CC5=CC(=CC(=C5)C)C
> <PUBCHEM_CACTVS_TPSA>
119
> <PUBCHEM_MONOISOTOPIC_WEIGHT>
555.32094019
> <PUBCHEM_TOTAL_CHARGE>
0
> <PUBCHEM_HEAVY_ATOM_COUNT>
41
> <PUBCHEM_ATOM_DEF_STEREO_COUNT>
4
> <PUBCHEM_ATOM_UDEF_STEREO_COUNT>
0
> <PUBCHEM_BOND_DEF_STEREO_COUNT>
0
> <PUBCHEM_BOND_UDEF_STEREO_COUNT>
0
> <PUBCHEM_ISOTOPIC_ATOM_COUNT>
0
> <PUBCHEM_COMPONENT_COUNT>
1
> <PUBCHEM_CACTVS_TAUTO_COUNT>
-1
> <PUBCHEM_COORDINATE_TYPE>
1
5
255
> <PUBCHEM_BONDANNOTATIONS>
11  1  6
10  14  5
18  23  8
18  24  8
12  2  5
20  25  8
20  26  8
21  27  8
21  28  8
23  29  8
24  30  8
25  34  8
26  35  8
27  32  8
28  36  8
29  33  8
30  33  8
32  37  8
32  41  8
34  38  8
35  38  8
36  37  8
6  37  8
6  7  8
7  41  8
9  13  6
$$$$
