506018
  -OEChem-10302200282D
 44 45  0     1  0  0  0  0  0999 V2000
    7.5673   -1.4934    0.0000 P   0  0  3  0  0  0  0  0  0  0  0  0
    8.8564   -2.6502    0.0000 P   0  0  3  0  0  0  0  0  0  0  0  0
   10.1456   -3.8069    0.0000 P   0  0  0  0  0  0  0  0  0  0  0  0
    6.2781   -0.3367    0.0000 O   0  0  0  0  0  0  0  0  0  0  0  0
    7.6138    1.1519    0.0000 O   0  0  0  0  0  0  0  0  0  0  0  0
    7.8779   -2.4440    0.0000 O   0  0  0  0  0  0  0  0  0  0  0  0
    8.5178   -1.1828    0.0000 O   0  0  0  0  0  0  0  0  0  0  0  0
    6.6168   -1.8041    0.0000 O   0  0  0  0  0  0  0  0  0  0  0  0
    9.8349   -2.8564    0.0000 O   0  0  0  0  0  0  0  0  0  0  0  0
    8.6502   -3.6287    0.0000 O   0  0  0  0  0  0  0  0  0  0  0  0
    9.0627   -1.6717    0.0000 O   0  0  0  0  0  0  0  0  0  0  0  0
   10.4563   -4.7574    0.0000 O   0  0  0  0  0  0  0  0  0  0  0  0
   11.0961   -3.4962    0.0000 O   0  0  0  0  0  0  0  0  0  0  0  0
    9.1951   -4.1176    0.0000 O   0  0  0  0  0  0  0  0  0  0  0  0
    4.6783    1.7706    0.0000 N   0  0  0  0  0  0  0  0  0  0  0  0
    4.6783    3.3800    0.0000 N   0  0  0  0  0  0  0  0  0  0  0  0
    2.8660    1.5753    0.0000 N   0  0  0  0  0  0  0  0  0  0  0  0
    2.0000    3.0753    0.0000 N   0  0  0  0  0  0  0  0  0  0  0  0
    2.8660    4.5753    0.0000 N   0  0  0  0  0  0  0  0  0  0  0  0
    5.9674    0.6138    0.0000 C   0  0  1  0  0  0  0  0  0  0  0  0
    4.9889    0.8200    0.0000 C   0  0  0  0  0  0  0  0  0  0  0  0
    6.6353    1.3581    0.0000 C   0  0  0  0  0  0  0  0  0  0  0  0
    3.7320    2.0753    0.0000 C   0  0  0  0  0  0  0  0  0  0  0  0
    7.2566   -0.5429    0.0000 C   0  0  0  0  0  0  0  0  0  0  0  0
    5.2619    2.5753    0.0000 C   0  0  0  0  0  0  0  0  0  0  0  0
    3.7320    3.0753    0.0000 C   0  0  0  0  0  0  0  0  0  0  0  0
    2.8660    3.5753    0.0000 C   0  0  0  0  0  0  0  0  0  0  0  0
    2.0000    2.0753    0.0000 C   0  0  0  0  0  0  0  0  0  0  0  0
    5.5534    0.1524    0.0000 H   0  0  0  0  0  0  0  0  0  0  0  0
    4.3751    0.7327    0.0000 H   0  0  0  0  0  0  0  0  0  0  0  0
    4.9684    0.2004    0.0000 H   0  0  0  0  0  0  0  0  0  0  0  0
    6.8665    1.9334    0.0000 H   0  0  0  0  0  0  0  0  0  0  0  0
    6.1089    1.6858    0.0000 H   0  0  0  0  0  0  0  0  0  0  0  0
    7.8704   -0.4556    0.0000 H   0  0  0  0  0  0  0  0  0  0  0  0
    7.2772    0.0767    0.0000 H   0  0  0  0  0  0  0  0  0  0  0  0
    5.8819    2.5753    0.0000 H   0  0  0  0  0  0  0  0  0  0  0  0
    8.0279    1.6134    0.0000 H   0  0  0  0  0  0  0  0  0  0  0  0
    1.4631    1.7653    0.0000 H   0  0  0  0  0  0  0  0  0  0  0  0
    8.6456   -0.5761    0.0000 H   0  0  0  0  0  0  0  0  0  0  0  0
    2.3291    4.8853    0.0000 H   0  0  0  0  0  0  0  0  0  0  0  0
    3.4030    4.8853    0.0000 H   0  0  0  0  0  0  0  0  0  0  0  0
    8.0609   -3.8213    0.0000 H   0  0  0  0  0  0  0  0  0  0  0  0
   11.0629   -4.8853    0.0000 H   0  0  0  0  0  0  0  0  0  0  0  0
   11.2240   -2.8896    0.0000 H   0  0  0  0  0  0  0  0  0  0  0  0
  1  6  1  0  0  0  0
  1  7  1  0  0  0  0
  1  8  2  0  0  0  0
  1 24  1  0  0  0  0
  2  6  1  0  0  0  0
  2  9  1  0  0  0  0
  2 10  1  0  0  0  0
  2 11  2  0  0  0  0
  3  9  1  0  0  0  0
  3 12  1  0  0  0  0
  3 13  1  0  0  0  0
  3 14  2  0  0  0  0
 20  4  1  1  0  0  0
  4 24  1  0  0  0  0
  5 22  1  0  0  0  0
  5 37  1  0  0  0  0
  7 39  1  0  0  0  0
 10 42  1  0  0  0  0
 12 43  1  0  0  0  0
 13 44  1  0  0  0  0
 15 21  1  0  0  0  0
 15 23  1  0  0  0  0
 15 25  1  0  0  0  0
 16 25  2  0  0  0  0
 16 26  1  0  0  0  0
 17 23  2  0  0  0  0
 17 28  1  0  0  0  0
 18 27  1  0  0  0  0
 18 28  2  0  0  0  0
 19 27  1  0  0  0  0
 19 40  1  0  0  0  0
 19 41  1  0  0  0  0
 20 21  1  0  0  0  0
 20 22  1  0  0  0  0
 20 29  1  0  0  0  0
 21 30  1  0  0  0  0
 21 31  1  0  0  0  0
 22 32  1  0  0  0  0
 22 33  1  0  0  0  0
 23 26  1  0  0  0  0
 24 34  1  0  0  0  0
 24 35  1  0  0  0  0
 25 36  1  0  0  0  0
 26 27  2  0  0  0  0
 28 38  1  0  0  0  0
M  END
> <PUBCHEM_COMPOUND_CID>
506018
> <PUBCHEM_COMPOUND_CANONICALIZED>
1
> <PUBCHEM_CACTVS_COMPLEXITY>
678
> <PUBCHEM_CACTVS_HBOND_ACCEPTOR>
15
> <PUBCHEM_CACTVS_HBOND_DONOR>
6
> <PUBCHEM_CACTVS_ROTATABLE_BOND>
10
> <PUBCHEM_CACTVS_SUBSKEYS>
AAADceBzvAMAAAAAAAAAAAAAAAAAAWAAAAAsAAAAAAAAAFgB+AAAHggQCCAACBzhlwYF8L9MFhCgQQZhZICAgC0REKABUCAoVBCDWABASEAVRAgKAALTACAAAAAAAAAAAAAAAAAAAAAAAAAAAAAAAAAAAA==
> <PUBCHEM_IUPAC_OPENEYE_NAME>
[(1S)-1-[(6-aminopurin-9-yl)methyl]-2-hydroxy-ethoxy]methyl-[hydroxy(phosphonooxy)phosphoryl]oxy-phosphinic acid
> <PUBCHEM_IUPAC_CAS_NAME>
[(2S)-1-(6-aminopurin-9-yl)-3-hydroxypropan-2-yl]oxymethyl-[hydroxy(phosphonooxy)phosphoryl]oxyphosphinic acid
> <PUBCHEM_IUPAC_NAME_MARKUP>
[(2<I>S</I>)-1-(6-aminopurin-9-yl)-3-hydroxypropan-2-yl]oxymethyl-[hydroxy(phosphonooxy)phosphoryl]oxyphosphinic acid
> <PUBCHEM_IUPAC_NAME>
[(2S)-1-(6-aminopurin-9-yl)-3-hydroxypropan-2-yl]oxymethyl-[hydroxy(phosphonooxy)phosphoryl]oxyphosphinic acid
> <PUBCHEM_IUPAC_SYSTEMATIC_NAME>
[(2S)-1-(6-aminopurin-9-yl)-3-oxidanyl-propan-2-yl]oxymethyl-[oxidanyl(phosphonooxy)phosphoryl]oxy-phosphinic acid
> <PUBCHEM_IUPAC_TRADITIONAL_NAME>
[(1S)-1-(adenin-9-ylmethyl)-2-hydroxy-ethoxy]methyl-[hydroxy(phosphonooxy)phosphoryl]oxy-phosphinic acid
> <PUBCHEM_IUPAC_INCHI>
InChI=1S/C9H16N5O11P3/c10-8-7-9(12-3-11-8)14(4-13-7)1-6(2-15)23-5-26(16,17)24-28(21,22)25-27(18,19)20/h3-4,6,15H,1-2,5H2,(H,16,17)(H,21,22)(H2,10,11,12)(H2,18,19,20)/t6-/m0/s1
> <PUBCHEM_IUPAC_INCHIKEY>
PWOUZUMUDRJKJO-LURJTMIESA-N
> <PUBCHEM_XLOGP3>
-4.8
> <PUBCHEM_EXACT_MASS>
463.00591734
> <PUBCHEM_MOLECULAR_FORMULA>
C9H16N5O11P3
> <PUBCHEM_MOLECULAR_WEIGHT>
463.17
> <PUBCHEM_OPENEYE_CAN_SMILES>
C1=NC(=C2C(=N1)N(C=N2)CC(CO)OCP(=O)(O)OP(=O)(O)OP(=O)(O)O)N
> <PUBCHEM_OPENEYE_ISO_SMILES>
C1=NC(=C2C(=N1)N(C=N2)C[C@@H](CO)OCP(=O)(O)OP(=O)(O)OP(=O)(O)O)N
> <PUBCHEM_CACTVS_TPSA>
250
> <PUBCHEM_MONOISOTOPIC_WEIGHT>
463.00591734
> <PUBCHEM_TOTAL_CHARGE>
0
> <PUBCHEM_HEAVY_ATOM_COUNT>
28
> <PUBCHEM_ATOM_DEF_STEREO_COUNT>
1
> <PUBCHEM_ATOM_UDEF_STEREO_COUNT>
0
> <PUBCHEM_BOND_DEF_STEREO_COUNT>
0
> <PUBCHEM_BOND_UDEF_STEREO_COUNT>
0
> <PUBCHEM_ISOTOPIC_ATOM_COUNT>
0
> <PUBCHEM_COMPONENT_COUNT>
1
> <PUBCHEM_CACTVS_TAUTO_COUNT>
-1
> <PUBCHEM_COORDINATE_TYPE>
1
5
255
> <PUBCHEM_BONDANNOTATIONS>
15  23  8
15  25  8
16  25  8
16  26  8
17  23  8
17  28  8
18  27  8
18  28  8
23  26  8
26  27  8
20  4  5
$$$$
