506023
  -OEChem-10302200282D
 53 54  0     1  0  0  0  0  0999 V2000
    5.1350   -0.8060    0.0000 O   0  0  0  0  0  0  0  0  0  0  0  0
    6.0010    1.6940    0.0000 O   0  0  0  0  0  0  0  0  0  0  0  0
    7.7331   -2.3060    0.0000 O   0  0  0  0  0  0  0  0  0  0  0  0
    2.7690    2.5601    0.0000 O   0  0  0  0  0  0  0  0  0  0  0  0
    3.4030   -2.8060    0.0000 O   0  0  0  0  0  0  0  0  0  0  0  0
    5.1350   -2.8060    0.0000 O   0  0  0  0  0  0  0  0  0  0  0  0
    6.8671    0.1940    0.0000 N   0  0  0  0  0  0  0  0  0  0  0  0
    4.2690    1.6940    0.0000 N   0  0  0  0  0  0  0  0  0  0  0  0
    2.5369    0.6940    0.0000 N   0  0  0  0  0  0  0  0  0  0  0  0
    4.2690    0.6940    0.0000 C   0  0  1  0  0  0  0  0  0  0  0  0
    5.1350    0.1940    0.0000 C   0  0  2  0  0  0  0  0  0  0  0  0
    3.4030    0.1940    0.0000 C   0  0  2  0  0  0  0  0  0  0  0  0
    6.0010    0.6940    0.0000 C   0  0  0  0  0  0  0  0  0  0  0  0
    3.4030   -0.8060    0.0000 C   0  0  0  0  0  0  0  0  0  0  0  0
    4.2690   -1.3060    0.0000 C   0  0  0  0  0  0  0  0  0  0  0  0
    7.7331    0.6940    0.0000 C   0  0  0  0  0  0  0  0  0  0  0  0
    6.8671   -0.8060    0.0000 C   0  0  0  0  0  0  0  0  0  0  0  0
    8.5991    0.1940    0.0000 C   0  0  0  0  0  0  0  0  0  0  0  0
    3.7690    2.5600    0.0000 C   0  0  0  0  0  0  0  0  0  0  0  0
    7.7331   -1.3060    0.0000 C   0  0  0  0  0  0  0  0  0  0  0  0
    9.4651    0.6940    0.0000 C   0  0  0  0  0  0  0  0  0  0  0  0
    4.2690   -2.3060    0.0000 C   0  0  0  0  0  0  0  0  0  0  0  0
    4.2690    3.4260    0.0000 C   0  0  0  0  0  0  0  0  0  0  0  0
    9.4651    1.6940    0.0000 C   0  0  0  0  0  0  0  0  0  0  0  0
   10.3312    0.1940    0.0000 C   0  0  0  0  0  0  0  0  0  0  0  0
   10.3312    2.1940    0.0000 C   0  0  0  0  0  0  0  0  0  0  0  0
   11.1972    0.6940    0.0000 C   0  0  0  0  0  0  0  0  0  0  0  0
   11.1972    1.6940    0.0000 C   0  0  0  0  0  0  0  0  0  0  0  0
    4.8059    1.0040    0.0000 H   0  0  0  0  0  0  0  0  0  0  0  0
    5.6720   -0.1160    0.0000 H   0  0  0  0  0  0  0  0  0  0  0  0
    3.4030    0.8140    0.0000 H   0  0  0  0  0  0  0  0  0  0  0  0
    2.8660   -1.1160    0.0000 H   0  0  0  0  0  0  0  0  0  0  0  0
    4.8059    2.0040    0.0000 H   0  0  0  0  0  0  0  0  0  0  0  0
    8.1316    1.1689    0.0000 H   0  0  0  0  0  0  0  0  0  0  0  0
    7.3346    1.1689    0.0000 H   0  0  0  0  0  0  0  0  0  0  0  0
    6.2565   -0.6984    0.0000 H   0  0  0  0  0  0  0  0  0  0  0  0
    6.6550   -1.3886    0.0000 H   0  0  0  0  0  0  0  0  0  0  0  0
    2.0000    0.3840    0.0000 H   0  0  0  0  0  0  0  0  0  0  0  0
    2.2269    1.2309    0.0000 H   0  0  0  0  0  0  0  0  0  0  0  0
    8.2006   -0.2810    0.0000 H   0  0  0  0  0  0  0  0  0  0  0  0
    8.9976   -0.2810    0.0000 H   0  0  0  0  0  0  0  0  0  0  0  0
    8.3437   -1.4137    0.0000 H   0  0  0  0  0  0  0  0  0  0  0  0
    7.9451   -0.7234    0.0000 H   0  0  0  0  0  0  0  0  0  0  0  0
    4.8059    3.1160    0.0000 H   0  0  0  0  0  0  0  0  0  0  0  0
    4.5790    3.9630    0.0000 H   0  0  0  0  0  0  0  0  0  0  0  0
    3.7320    3.7360    0.0000 H   0  0  0  0  0  0  0  0  0  0  0  0
    8.9282    2.0040    0.0000 H   0  0  0  0  0  0  0  0  0  0  0  0
   10.3312   -0.4260    0.0000 H   0  0  0  0  0  0  0  0  0  0  0  0
    8.2700   -2.6160    0.0000 H   0  0  0  0  0  0  0  0  0  0  0  0
   10.3312    2.8140    0.0000 H   0  0  0  0  0  0  0  0  0  0  0  0
   11.7341    0.3840    0.0000 H   0  0  0  0  0  0  0  0  0  0  0  0
    3.4030   -3.4260    0.0000 H   0  0  0  0  0  0  0  0  0  0  0  0
   11.7341    2.0040    0.0000 H   0  0  0  0  0  0  0  0  0  0  0  0
  1 11  1  0  0  0  0
  1 15  1  0  0  0  0
  2 13  2  0  0  0  0
  3 20  1  0  0  0  0
  3 49  1  0  0  0  0
  4 19  2  0  0  0  0
  5 22  1  0  0  0  0
  5 52  1  0  0  0  0
  6 22  2  0  0  0  0
  7 13  1  0  0  0  0
  7 16  1  0  0  0  0
  7 17  1  0  0  0  0
 10  8  1  1  0  0  0
  8 19  1  0  0  0  0
  8 33  1  0  0  0  0
 12  9  1  6  0  0  0
  9 38  1  0  0  0  0
  9 39  1  0  0  0  0
 10 11  1  0  0  0  0
 10 12  1  0  0  0  0
 10 29  1  0  0  0  0
 11 13  1  6  0  0  0
 11 30  1  0  0  0  0
 12 14  1  0  0  0  0
 12 31  1  0  0  0  0
 14 15  2  0  0  0  0
 14 32  1  0  0  0  0
 15 22  1  0  0  0  0
 16 18  1  0  0  0  0
 16 34  1  0  0  0  0
 16 35  1  0  0  0  0
 17 20  1  0  0  0  0
 17 36  1  0  0  0  0
 17 37  1  0  0  0  0
 18 21  1  0  0  0  0
 18 40  1  0  0  0  0
 18 41  1  0  0  0  0
 19 23  1  0  0  0  0
 20 42  1  0  0  0  0
 20 43  1  0  0  0  0
 21 24  2  0  0  0  0
 21 25  1  0  0  0  0
 23 44  1  0  0  0  0
 23 45  1  0  0  0  0
 23 46  1  0  0  0  0
 24 26  1  0  0  0  0
 24 47  1  0  0  0  0
 25 27  2  0  0  0  0
 25 48  1  0  0  0  0
 26 28  2  0  0  0  0
 26 50  1  0  0  0  0
 27 28  1  0  0  0  0
 27 51  1  0  0  0  0
 28 53  1  0  0  0  0
M  END
> <PUBCHEM_COMPOUND_CID>
506023
> <PUBCHEM_COMPOUND_CANONICALIZED>
1
> <PUBCHEM_CACTVS_COMPLEXITY>
603
> <PUBCHEM_CACTVS_HBOND_ACCEPTOR>
7
> <PUBCHEM_CACTVS_HBOND_DONOR>
4
> <PUBCHEM_CACTVS_ROTATABLE_BOND>
8
> <PUBCHEM_CACTVS_SUBSKEYS>
AAADceB7OAAAAAAAAAAAAAAAAAAAAAAAAAAwQAAAAAAAAAABAAAAHgAQCAAADDzhmAYyCIPABgCIAiHSGAKCCAAgIAAIiIFIAMgLdDqA0RWXMAAmlgCbmYccgIAOAAAAAAAAAAAAAAAAAAAAAAAAAAAAAA==
> <PUBCHEM_IUPAC_OPENEYE_NAME>
(2R,3R,4S)-3-acetamido-4-amino-2-[2-hydroxyethyl(2-phenylethyl)carbamoyl]-3,4-dihydro-2H-pyran-6-carboxylic acid
> <PUBCHEM_IUPAC_CAS_NAME>
(2R,3R,4S)-3-acetamido-4-amino-2-[[2-hydroxyethyl(2-phenylethyl)amino]-oxomethyl]-3,4-dihydro-2H-pyran-6-carboxylic acid
> <PUBCHEM_IUPAC_NAME_MARKUP>
(2<I>R</I>,3<I>R</I>,4<I>S</I>)-3-acetamido-4-amino-2-[2-hydroxyethyl(2-phenylethyl)carbamoyl]-3,4-dihydro-2<I>H</I>-pyran-6-carboxylic acid
> <PUBCHEM_IUPAC_NAME>
(2R,3R,4S)-3-acetamido-4-amino-2-[2-hydroxyethyl(2-phenylethyl)carbamoyl]-3,4-dihydro-2H-pyran-6-carboxylic acid
> <PUBCHEM_IUPAC_SYSTEMATIC_NAME>
(2R,3R,4S)-3-acetamido-4-azanyl-2-[2-hydroxyethyl(2-phenylethyl)carbamoyl]-3,4-dihydro-2H-pyran-6-carboxylic acid
> <PUBCHEM_IUPAC_TRADITIONAL_NAME>
(2R,3R,4S)-3-acetamido-4-amino-2-[2-hydroxyethyl(phenethyl)carbamoyl]-3,4-dihydro-2H-pyran-6-carboxylic acid
> <PUBCHEM_IUPAC_INCHI>
InChI=1S/C19H25N3O6/c1-12(24)21-16-14(20)11-15(19(26)27)28-17(16)18(25)22(9-10-23)8-7-13-5-3-2-4-6-13/h2-6,11,14,16-17,23H,7-10,20H2,1H3,(H,21,24)(H,26,27)/t14-,16+,17+/m0/s1
> <PUBCHEM_IUPAC_INCHIKEY>
WZTMLZINVZPVKQ-USXIJHARSA-N
> <PUBCHEM_XLOGP3_AA>
-2.3
> <PUBCHEM_EXACT_MASS>
391.17433553
> <PUBCHEM_MOLECULAR_FORMULA>
C19H25N3O6
> <PUBCHEM_MOLECULAR_WEIGHT>
391.4
> <PUBCHEM_OPENEYE_CAN_SMILES>
CC(=O)NC1C(C=C(OC1C(=O)N(CCC2=CC=CC=C2)CCO)C(=O)O)N
> <PUBCHEM_OPENEYE_ISO_SMILES>
CC(=O)N[C@@H]1[C@H](C=C(O[C@H]1C(=O)N(CCC2=CC=CC=C2)CCO)C(=O)O)N
> <PUBCHEM_CACTVS_TPSA>
142
> <PUBCHEM_MONOISOTOPIC_WEIGHT>
391.17433553
> <PUBCHEM_TOTAL_CHARGE>
0
> <PUBCHEM_HEAVY_ATOM_COUNT>
28
> <PUBCHEM_ATOM_DEF_STEREO_COUNT>
3
> <PUBCHEM_ATOM_UDEF_STEREO_COUNT>
0
> <PUBCHEM_BOND_DEF_STEREO_COUNT>
0
> <PUBCHEM_BOND_UDEF_STEREO_COUNT>
0
> <PUBCHEM_ISOTOPIC_ATOM_COUNT>
0
> <PUBCHEM_COMPONENT_COUNT>
1
> <PUBCHEM_CACTVS_TAUTO_COUNT>
-1
> <PUBCHEM_COORDINATE_TYPE>
1
5
255
> <PUBCHEM_BONDANNOTATIONS>
11  13  6
21  24  8
21  25  8
24  26  8
25  27  8
26  28  8
27  28  8
10  8  5
12  9  6
$$$$
