506047
  -OEChem-10302200282D
 38 39  0     1  0  0  0  0  0999 V2000
    4.2410    2.0616    0.0000 O   0  0  0  0  0  0  0  0  0  0  0  0
    6.8671   -2.7172    0.0000 O   0  0  0  0  0  0  0  0  0  0  0  0
    5.1350   -2.7172    0.0000 O   0  0  0  0  0  0  0  0  0  0  0  0
    6.0010    1.7828    0.0000 N   0  0  0  0  0  0  0  0  0  0  0  0
    8.5043    2.7307    0.0000 N   0  0  0  0  0  0  0  0  0  0  0  0
    4.2690    0.7828    0.0000 N   0  0  0  0  0  0  0  0  0  0  0  0
    2.5369    0.7828    0.0000 N   0  0  0  0  0  0  0  0  0  0  0  0
    3.4030   -0.7172    0.0000 N   0  0  0  0  0  0  0  0  0  0  0  0
    6.8100    2.3706    0.0000 C   0  0  3  0  0  0  0  0  0  0  0  0
    6.5010    3.3217    0.0000 C   0  0  0  0  0  0  0  0  0  0  0  0
    5.5010    3.3217    0.0000 C   0  0  0  0  0  0  0  0  0  0  0  0
    5.1920    2.3706    0.0000 C   0  0  0  0  0  0  0  0  0  0  0  0
    7.7611    2.0616    0.0000 C   0  0  0  0  0  0  0  0  0  0  0  0
    6.0010    0.7828    0.0000 C   0  0  0  0  0  0  0  0  0  0  0  0
    5.1350    0.2828    0.0000 C   0  0  0  0  0  0  0  0  0  0  0  0
    6.8671    0.2828    0.0000 C   0  0  0  0  0  0  0  0  0  0  0  0
    5.1350   -0.7172    0.0000 C   0  0  0  0  0  0  0  0  0  0  0  0
    6.8671   -0.7172    0.0000 C   0  0  0  0  0  0  0  0  0  0  0  0
    6.0010   -1.2172    0.0000 C   0  0  0  0  0  0  0  0  0  0  0  0
    6.0010   -2.2172    0.0000 C   0  0  0  0  0  0  0  0  0  0  0  0
    3.4030    0.2828    0.0000 C   0  0  0  0  0  0  0  0  0  0  0  0
    6.9070    1.7582    0.0000 H   0  0  0  0  0  0  0  0  0  0  0  0
    7.1075    3.4506    0.0000 H   0  0  0  0  0  0  0  0  0  0  0  0
    6.4362    3.9383    0.0000 H   0  0  0  0  0  0  0  0  0  0  0  0
    5.5658    3.9383    0.0000 H   0  0  0  0  0  0  0  0  0  0  0  0
    4.8946    3.4506    0.0000 H   0  0  0  0  0  0  0  0  0  0  0  0
    7.4700    1.5142    0.0000 H   0  0  0  0  0  0  0  0  0  0  0  0
    8.2497    1.6799    0.0000 H   0  0  0  0  0  0  0  0  0  0  0  0
    7.4040    0.5928    0.0000 H   0  0  0  0  0  0  0  0  0  0  0  0
    9.0939    2.5391    0.0000 H   0  0  0  0  0  0  0  0  0  0  0  0
    8.3753    3.3372    0.0000 H   0  0  0  0  0  0  0  0  0  0  0  0
    4.5981   -1.0272    0.0000 H   0  0  0  0  0  0  0  0  0  0  0  0
    7.4040   -1.0272    0.0000 H   0  0  0  0  0  0  0  0  0  0  0  0
    2.0000    0.4728    0.0000 H   0  0  0  0  0  0  0  0  0  0  0  0
    2.5369    1.4028    0.0000 H   0  0  0  0  0  0  0  0  0  0  0  0
    2.8660   -1.0272    0.0000 H   0  0  0  0  0  0  0  0  0  0  0  0
    3.9399   -1.0272    0.0000 H   0  0  0  0  0  0  0  0  0  0  0  0
    6.8671   -3.3372    0.0000 H   0  0  0  0  0  0  0  0  0  0  0  0
  1 12  2  0  0  0  0
  2 20  1  0  0  0  0
  2 38  1  0  0  0  0
  3 20  2  0  0  0  0
  4  9  1  0  0  0  0
  4 12  1  0  0  0  0
  4 14  1  0  0  0  0
  5 13  1  0  0  0  0
  5 30  1  0  0  0  0
  5 31  1  0  0  0  0
  6 15  1  0  0  0  0
  6 21  2  0  0  0  0
  7 21  1  0  0  0  0
  7 34  1  0  0  0  0
  7 35  1  0  0  0  0
  8 21  1  0  0  0  0
  8 36  1  0  0  0  0
  8 37  1  0  0  0  0
  9 10  1  0  0  0  0
  9 13  1  0  0  0  0
  9 22  1  0  0  0  0
 10 11  1  0  0  0  0
 10 23  1  0  0  0  0
 10 24  1  0  0  0  0
 11 12  1  0  0  0  0
 11 25  1  0  0  0  0
 11 26  1  0  0  0  0
 13 27  1  0  0  0  0
 13 28  1  0  0  0  0
 14 15  2  0  0  0  0
 14 16  1  0  0  0  0
 15 17  1  0  0  0  0
 16 18  2  0  0  0  0
 16 29  1  0  0  0  0
 17 19  2  0  0  0  0
 17 32  1  0  0  0  0
 18 19  1  0  0  0  0
 18 33  1  0  0  0  0
 19 20  1  0  0  0  0
M  END
> <PUBCHEM_COMPOUND_CID>
506047
> <PUBCHEM_COMPOUND_CANONICALIZED>
1
> <PUBCHEM_CACTVS_COMPLEXITY>
449
> <PUBCHEM_CACTVS_HBOND_ACCEPTOR>
5
> <PUBCHEM_CACTVS_HBOND_DONOR>
4
> <PUBCHEM_CACTVS_ROTATABLE_BOND>
4
> <PUBCHEM_CACTVS_SUBSKEYS>
AAADceBzsAAAAAAAAAAAAAAAAAAAAWAAAAAwAAAAAAAAAAABAAAAHgAQCAAADCjBmAQxyINAAgCoAiXSfACCAAElAgAIiIEIfMgIZjLAlZGUcQhk1gHI2Ye82SOeCAAAQAAAACAQAACAAAAAQAAAAAAAAA==
> <PUBCHEM_IUPAC_OPENEYE_NAME>
4-[2-(aminomethyl)-5-oxo-pyrrolidin-1-yl]-3-guanidino-benzoic acid
> <PUBCHEM_IUPAC_CAS_NAME>
4-[2-(aminomethyl)-5-oxo-1-pyrrolidinyl]-3-(diaminomethylideneamino)benzoic acid
> <PUBCHEM_IUPAC_NAME_MARKUP>
4-[2-(aminomethyl)-5-oxopyrrolidin-1-yl]-3-(diaminomethylideneamino)benzoic acid
> <PUBCHEM_IUPAC_NAME>
4-[2-(aminomethyl)-5-oxopyrrolidin-1-yl]-3-(diaminomethylideneamino)benzoic acid
> <PUBCHEM_IUPAC_SYSTEMATIC_NAME>
4-[2-(aminomethyl)-5-oxidanylidene-pyrrolidin-1-yl]-3-[bis(azanyl)methylideneamino]benzoic acid
> <PUBCHEM_IUPAC_TRADITIONAL_NAME>
4-[2-(aminomethyl)-5-keto-pyrrolidino]-3-guanidino-benzoic acid
> <PUBCHEM_IUPAC_INCHI>
InChI=1S/C13H17N5O3/c14-6-8-2-4-11(19)18(8)10-3-1-7(12(20)21)5-9(10)17-13(15)16/h1,3,5,8H,2,4,6,14H2,(H,20,21)(H4,15,16,17)
> <PUBCHEM_IUPAC_INCHIKEY>
ROPICVPBPAQLRK-UHFFFAOYSA-N
> <PUBCHEM_XLOGP3_AA>
-3.8
> <PUBCHEM_EXACT_MASS>
291.13313942
> <PUBCHEM_MOLECULAR_FORMULA>
C13H17N5O3
> <PUBCHEM_MOLECULAR_WEIGHT>
291.31
> <PUBCHEM_OPENEYE_CAN_SMILES>
C1CC(=O)N(C1CN)C2=C(C=C(C=C2)C(=O)O)N=C(N)N
> <PUBCHEM_OPENEYE_ISO_SMILES>
C1CC(=O)N(C1CN)C2=C(C=C(C=C2)C(=O)O)N=C(N)N
> <PUBCHEM_CACTVS_TPSA>
148
> <PUBCHEM_MONOISOTOPIC_WEIGHT>
291.13313942
> <PUBCHEM_TOTAL_CHARGE>
0
> <PUBCHEM_HEAVY_ATOM_COUNT>
21
> <PUBCHEM_ATOM_DEF_STEREO_COUNT>
0
> <PUBCHEM_ATOM_UDEF_STEREO_COUNT>
1
> <PUBCHEM_BOND_DEF_STEREO_COUNT>
0
> <PUBCHEM_BOND_UDEF_STEREO_COUNT>
0
> <PUBCHEM_ISOTOPIC_ATOM_COUNT>
0
> <PUBCHEM_COMPONENT_COUNT>
1
> <PUBCHEM_CACTVS_TAUTO_COUNT>
-1
> <PUBCHEM_COORDINATE_TYPE>
1
5
255
> <PUBCHEM_BONDANNOTATIONS>
14  15  8
14  16  8
15  17  8
16  18  8
17  19  8
18  19  8
9  13  3
$$$$
