506084
  -OEChem-10302200282D
 33 33  0     1  0  0  0  0  0999 V2000
    4.2690   -0.6900    0.0000 O   0  0  0  0  0  0  0  0  0  0  0  0
    2.5369    0.3100    0.0000 O   0  0  0  0  0  0  0  0  0  0  0  0
    7.7331   -2.6900    0.0000 O   0  0  0  0  0  0  0  0  0  0  0  0
    6.0010   -2.6900    0.0000 O   0  0  0  0  0  0  0  0  0  0  0  0
    8.5991    1.8100    0.0000 O   0  0  0  0  0  0  0  0  0  0  0  0
    6.8671    1.8100    0.0000 N   0  0  0  0  0  0  0  0  0  0  0  0
    5.1350    0.8100    0.0000 C   0  0  0  0  0  0  0  0  0  0  0  0
    6.0010    0.3100    0.0000 C   0  0  0  0  0  0  0  0  0  0  0  0
    4.2690    0.3100    0.0000 C   0  0  3  0  0  0  0  0  0  0  0  0
    6.8671    0.8100    0.0000 C   0  0  0  0  0  0  0  0  0  0  0  0
    6.0010   -0.6900    0.0000 C   0  0  0  0  0  0  0  0  0  0  0  0
    3.4030    0.8100    0.0000 C   0  0  0  0  0  0  0  0  0  0  0  0
    6.8671   -1.1900    0.0000 C   0  0  0  0  0  0  0  0  0  0  0  0
    7.7331    0.3100    0.0000 C   0  0  0  0  0  0  0  0  0  0  0  0
    7.7331   -0.6900    0.0000 C   0  0  0  0  0  0  0  0  0  0  0  0
    6.8671   -2.1900    0.0000 C   0  0  0  0  0  0  0  0  0  0  0  0
    7.7331    2.3100    0.0000 C   0  0  0  0  0  0  0  0  0  0  0  0
    7.7331    3.3100    0.0000 C   0  0  0  0  0  0  0  0  0  0  0  0
    5.5335    1.2850    0.0000 H   0  0  0  0  0  0  0  0  0  0  0  0
    4.7365    1.2850    0.0000 H   0  0  0  0  0  0  0  0  0  0  0  0
    4.8059   -0.0000    0.0000 H   0  0  0  0  0  0  0  0  0  0  0  0
    5.4641   -1.0000    0.0000 H   0  0  0  0  0  0  0  0  0  0  0  0
    3.8015    1.2850    0.0000 H   0  0  0  0  0  0  0  0  0  0  0  0
    3.0044    1.2850    0.0000 H   0  0  0  0  0  0  0  0  0  0  0  0
    8.2700    0.6200    0.0000 H   0  0  0  0  0  0  0  0  0  0  0  0
    8.2700   -1.0000    0.0000 H   0  0  0  0  0  0  0  0  0  0  0  0
    6.3301    2.1200    0.0000 H   0  0  0  0  0  0  0  0  0  0  0  0
    3.7320   -1.0000    0.0000 H   0  0  0  0  0  0  0  0  0  0  0  0
    2.0000    0.6200    0.0000 H   0  0  0  0  0  0  0  0  0  0  0  0
    8.3531    3.3100    0.0000 H   0  0  0  0  0  0  0  0  0  0  0  0
    7.7331    3.9300    0.0000 H   0  0  0  0  0  0  0  0  0  0  0  0
    7.1131    3.3100    0.0000 H   0  0  0  0  0  0  0  0  0  0  0  0
    7.7331   -3.3100    0.0000 H   0  0  0  0  0  0  0  0  0  0  0  0
  1  9  1  0  0  0  0
  1 28  1  0  0  0  0
  2 12  1  0  0  0  0
  2 29  1  0  0  0  0
  3 16  1  0  0  0  0
  3 33  1  0  0  0  0
  4 16  2  0  0  0  0
  5 17  2  0  0  0  0
  6 10  1  0  0  0  0
  6 17  1  0  0  0  0
  6 27  1  0  0  0  0
  7  8  1  0  0  0  0
  7  9  1  0  0  0  0
  7 19  1  0  0  0  0
  7 20  1  0  0  0  0
  8 10  2  0  0  0  0
  8 11  1  0  0  0  0
  9 12  1  0  0  0  0
  9 21  1  0  0  0  0
 10 14  1  0  0  0  0
 11 13  2  0  0  0  0
 11 22  1  0  0  0  0
 12 23  1  0  0  0  0
 12 24  1  0  0  0  0
 13 15  1  0  0  0  0
 13 16  1  0  0  0  0
 14 15  2  0  0  0  0
 14 25  1  0  0  0  0
 15 26  1  0  0  0  0
 17 18  1  0  0  0  0
 18 30  1  0  0  0  0
 18 31  1  0  0  0  0
 18 32  1  0  0  0  0
M  END
> <PUBCHEM_COMPOUND_CID>
506084
> <PUBCHEM_COMPOUND_CANONICALIZED>
1
> <PUBCHEM_CACTVS_COMPLEXITY>
307
> <PUBCHEM_CACTVS_HBOND_ACCEPTOR>
5
> <PUBCHEM_CACTVS_HBOND_DONOR>
4
> <PUBCHEM_CACTVS_ROTATABLE_BOND>
5
> <PUBCHEM_CACTVS_SUBSKEYS>
AAADccByOAAAAAAAAAAAAAAAAAAAAAAAAAAwAAAAAAAAAAABAAAAHgAQCAAADByhmAIyyILAAgCIAiXSWACCAAAlAgAIiAEAbMgJNjLAlZGEcQhk1AHJ2Ye42fOeCAACAAACAAAQAAQAAAQAAAAAAAAAAA==
> <PUBCHEM_IUPAC_OPENEYE_NAME>
4-acetamido-3-(2,3-dihydroxypropyl)benzoic acid
> <PUBCHEM_IUPAC_CAS_NAME>
4-acetamido-3-(2,3-dihydroxypropyl)benzoic acid
> <PUBCHEM_IUPAC_NAME_MARKUP>
4-acetamido-3-(2,3-dihydroxypropyl)benzoic acid
> <PUBCHEM_IUPAC_NAME>
4-acetamido-3-(2,3-dihydroxypropyl)benzoic acid
> <PUBCHEM_IUPAC_SYSTEMATIC_NAME>
4-acetamido-3-[2,3-bis(oxidanyl)propyl]benzoic acid
> <PUBCHEM_IUPAC_TRADITIONAL_NAME>
4-acetamido-3-glyceryl-benzoic acid
> <PUBCHEM_IUPAC_INCHI>
InChI=1S/C12H15NO5/c1-7(15)13-11-3-2-8(12(17)18)4-9(11)5-10(16)6-14/h2-4,10,14,16H,5-6H2,1H3,(H,13,15)(H,17,18)
> <PUBCHEM_IUPAC_INCHIKEY>
FIQZSBRSYYLRBU-UHFFFAOYSA-N
> <PUBCHEM_XLOGP3>
-0.7
> <PUBCHEM_EXACT_MASS>
253.09502258
> <PUBCHEM_MOLECULAR_FORMULA>
C12H15NO5
> <PUBCHEM_MOLECULAR_WEIGHT>
253.25
> <PUBCHEM_OPENEYE_CAN_SMILES>
CC(=O)NC1=C(C=C(C=C1)C(=O)O)CC(CO)O
> <PUBCHEM_OPENEYE_ISO_SMILES>
CC(=O)NC1=C(C=C(C=C1)C(=O)O)CC(CO)O
> <PUBCHEM_CACTVS_TPSA>
107
> <PUBCHEM_MONOISOTOPIC_WEIGHT>
253.09502258
> <PUBCHEM_TOTAL_CHARGE>
0
> <PUBCHEM_HEAVY_ATOM_COUNT>
18
> <PUBCHEM_ATOM_DEF_STEREO_COUNT>
0
> <PUBCHEM_ATOM_UDEF_STEREO_COUNT>
1
> <PUBCHEM_BOND_DEF_STEREO_COUNT>
0
> <PUBCHEM_BOND_UDEF_STEREO_COUNT>
0
> <PUBCHEM_ISOTOPIC_ATOM_COUNT>
0
> <PUBCHEM_COMPONENT_COUNT>
1
> <PUBCHEM_CACTVS_TAUTO_COUNT>
-1
> <PUBCHEM_COORDINATE_TYPE>
1
5
255
> <PUBCHEM_BONDANNOTATIONS>
9  1  3
10  14  8
11  13  8
13  15  8
14  15  8
8  10  8
8  11  8
$$$$
