506021
  -OEChem-10302200282D
 59 60  0     1  0  0  0  0  0999 V2000
    5.1350   -0.3660    0.0000 O   0  0  0  0  0  0  0  0  0  0  0  0
    6.0010    2.1340    0.0000 O   0  0  0  0  0  0  0  0  0  0  0  0
    2.7690    3.0001    0.0000 O   0  0  0  0  0  0  0  0  0  0  0  0
    3.4030   -2.3660    0.0000 O   0  0  0  0  0  0  0  0  0  0  0  0
    5.1350   -2.3660    0.0000 O   0  0  0  0  0  0  0  0  0  0  0  0
    8.5991   -0.3660    0.0000 O   0  0  0  0  0  0  0  0  0  0  0  0
    6.8671    0.6340    0.0000 N   0  0  0  0  0  0  0  0  0  0  0  0
    4.2690    2.1340    0.0000 N   0  0  0  0  0  0  0  0  0  0  0  0
    2.5369    1.1340    0.0000 N   0  0  0  0  0  0  0  0  0  0  0  0
    9.4651    1.1340    0.0000 N   0  0  0  0  0  0  0  0  0  0  0  0
    4.2690    1.1340    0.0000 C   0  0  1  0  0  0  0  0  0  0  0  0
    5.1350    0.6340    0.0000 C   0  0  2  0  0  0  0  0  0  0  0  0
    3.4030    0.6340    0.0000 C   0  0  2  0  0  0  0  0  0  0  0  0
    6.0010    1.1340    0.0000 C   0  0  0  0  0  0  0  0  0  0  0  0
    3.4030   -0.3660    0.0000 C   0  0  0  0  0  0  0  0  0  0  0  0
    4.2690   -0.8660    0.0000 C   0  0  0  0  0  0  0  0  0  0  0  0
    6.8671   -0.3660    0.0000 C   0  0  0  0  0  0  0  0  0  0  0  0
    7.7331    1.1340    0.0000 C   0  0  0  0  0  0  0  0  0  0  0  0
    7.7331   -0.8660    0.0000 C   0  0  0  0  0  0  0  0  0  0  0  0
    3.7690    3.0000    0.0000 C   0  0  0  0  0  0  0  0  0  0  0  0
    4.2690   -1.8660    0.0000 C   0  0  0  0  0  0  0  0  0  0  0  0
    8.5991    0.6340    0.0000 C   0  0  0  0  0  0  0  0  0  0  0  0
    7.7331   -1.8660    0.0000 C   0  0  0  0  0  0  0  0  0  0  0  0
    4.2690    3.8660    0.0000 C   0  0  0  0  0  0  0  0  0  0  0  0
    8.5991   -2.3660    0.0000 C   0  0  0  0  0  0  0  0  0  0  0  0
    6.8671   -2.3660    0.0000 C   0  0  0  0  0  0  0  0  0  0  0  0
   10.3312    0.6340    0.0000 C   0  0  0  0  0  0  0  0  0  0  0  0
    9.4651    2.1340    0.0000 C   0  0  0  0  0  0  0  0  0  0  0  0
    8.5991   -3.3660    0.0000 C   0  0  0  0  0  0  0  0  0  0  0  0
    6.8671   -3.3660    0.0000 C   0  0  0  0  0  0  0  0  0  0  0  0
    7.7331   -3.8660    0.0000 C   0  0  0  0  0  0  0  0  0  0  0  0
    4.8059    1.4440    0.0000 H   0  0  0  0  0  0  0  0  0  0  0  0
    5.6720    0.3240    0.0000 H   0  0  0  0  0  0  0  0  0  0  0  0
    3.4030    1.2540    0.0000 H   0  0  0  0  0  0  0  0  0  0  0  0
    2.8660   -0.6760    0.0000 H   0  0  0  0  0  0  0  0  0  0  0  0
    4.8059    2.4440    0.0000 H   0  0  0  0  0  0  0  0  0  0  0  0
    6.2565   -0.2584    0.0000 H   0  0  0  0  0  0  0  0  0  0  0  0
    6.6550   -0.9486    0.0000 H   0  0  0  0  0  0  0  0  0  0  0  0
    2.0000    0.8240    0.0000 H   0  0  0  0  0  0  0  0  0  0  0  0
    2.2269    1.6709    0.0000 H   0  0  0  0  0  0  0  0  0  0  0  0
    8.1316    1.6089    0.0000 H   0  0  0  0  0  0  0  0  0  0  0  0
    7.3346    1.6089    0.0000 H   0  0  0  0  0  0  0  0  0  0  0  0
    8.3437   -0.9737    0.0000 H   0  0  0  0  0  0  0  0  0  0  0  0
    7.9451   -0.2834    0.0000 H   0  0  0  0  0  0  0  0  0  0  0  0
    4.8059    3.5560    0.0000 H   0  0  0  0  0  0  0  0  0  0  0  0
    4.5790    4.4030    0.0000 H   0  0  0  0  0  0  0  0  0  0  0  0
    3.7320    4.1760    0.0000 H   0  0  0  0  0  0  0  0  0  0  0  0
    9.1360   -2.0560    0.0000 H   0  0  0  0  0  0  0  0  0  0  0  0
    6.3301   -2.0560    0.0000 H   0  0  0  0  0  0  0  0  0  0  0  0
   10.0212    0.0970    0.0000 H   0  0  0  0  0  0  0  0  0  0  0  0
   10.8681    0.3240    0.0000 H   0  0  0  0  0  0  0  0  0  0  0  0
   10.6412    1.1709    0.0000 H   0  0  0  0  0  0  0  0  0  0  0  0
   10.0851    2.1340    0.0000 H   0  0  0  0  0  0  0  0  0  0  0  0
    9.4651    2.7540    0.0000 H   0  0  0  0  0  0  0  0  0  0  0  0
    8.8451    2.1340    0.0000 H   0  0  0  0  0  0  0  0  0  0  0  0
    3.4030   -2.9860    0.0000 H   0  0  0  0  0  0  0  0  0  0  0  0
    9.1360   -3.6760    0.0000 H   0  0  0  0  0  0  0  0  0  0  0  0
    6.3301   -3.6760    0.0000 H   0  0  0  0  0  0  0  0  0  0  0  0
    7.7331   -4.4860    0.0000 H   0  0  0  0  0  0  0  0  0  0  0  0
  1 12  1  0  0  0  0
  1 16  1  0  0  0  0
  2 14  2  0  0  0  0
  3 20  2  0  0  0  0
  4 21  1  0  0  0  0
  4 56  1  0  0  0  0
  5 21  2  0  0  0  0
  6 22  2  0  0  0  0
  7 14  1  0  0  0  0
  7 17  1  0  0  0  0
  7 18  1  0  0  0  0
 11  8  1  1  0  0  0
  8 20  1  0  0  0  0
  8 36  1  0  0  0  0
 13  9  1  6  0  0  0
  9 39  1  0  0  0  0
  9 40  1  0  0  0  0
 10 22  1  0  0  0  0
 10 27  1  0  0  0  0
 10 28  1  0  0  0  0
 11 12  1  0  0  0  0
 11 13  1  0  0  0  0
 11 32  1  0  0  0  0
 12 14  1  6  0  0  0
 12 33  1  0  0  0  0
 13 15  1  0  0  0  0
 13 34  1  0  0  0  0
 15 16  2  0  0  0  0
 15 35  1  0  0  0  0
 16 21  1  0  0  0  0
 17 19  1  0  0  0  0
 17 37  1  0  0  0  0
 17 38  1  0  0  0  0
 18 22  1  0  0  0  0
 18 41  1  0  0  0  0
 18 42  1  0  0  0  0
 19 23  1  0  0  0  0
 19 43  1  0  0  0  0
 19 44  1  0  0  0  0
 20 24  1  0  0  0  0
 23 25  2  0  0  0  0
 23 26  1  0  0  0  0
 24 45  1  0  0  0  0
 24 46  1  0  0  0  0
 24 47  1  0  0  0  0
 25 29  1  0  0  0  0
 25 48  1  0  0  0  0
 26 30  2  0  0  0  0
 26 49  1  0  0  0  0
 27 50  1  0  0  0  0
 27 51  1  0  0  0  0
 27 52  1  0  0  0  0
 28 53  1  0  0  0  0
 28 54  1  0  0  0  0
 28 55  1  0  0  0  0
 29 31  2  0  0  0  0
 29 57  1  0  0  0  0
 30 31  1  0  0  0  0
 30 58  1  0  0  0  0
 31 59  1  0  0  0  0
M  END
> <PUBCHEM_COMPOUND_CID>
506021
> <PUBCHEM_COMPOUND_CANONICALIZED>
1
> <PUBCHEM_CACTVS_COMPLEXITY>
717
> <PUBCHEM_CACTVS_HBOND_ACCEPTOR>
7
> <PUBCHEM_CACTVS_HBOND_DONOR>
3
> <PUBCHEM_CACTVS_ROTATABLE_BOND>
8
> <PUBCHEM_CACTVS_SUBSKEYS>
AAADceB7uAAAAAAAAAAAAAAAAAAAAAAAAAAwQAAAAAAAAAABAAAAHgAQCAAADDzhmAYyCIPABgCIAiHSGAKCCAAgIAAIiIHIAMgLZDqA0TWXMAAmlgCbmYccgIAOAAAAAAAAAAAAAAAAAAAAAAAAAAAAAA==
> <PUBCHEM_IUPAC_OPENEYE_NAME>
(2R,3R,4S)-3-acetamido-4-amino-2-[[2-(dimethylamino)-2-oxo-ethyl]-(2-phenylethyl)carbamoyl]-3,4-dihydro-2H-pyran-6-carboxylic acid
> <PUBCHEM_IUPAC_CAS_NAME>
(2R,3R,4S)-3-acetamido-4-amino-2-[[[2-(dimethylamino)-2-oxoethyl]-(2-phenylethyl)amino]-oxomethyl]-3,4-dihydro-2H-pyran-6-carboxylic acid
> <PUBCHEM_IUPAC_NAME_MARKUP>
(2<I>R</I>,3<I>R</I>,4<I>S</I>)-3-acetamido-4-amino-2-[[2-(dimethylamino)-2-oxoethyl]-(2-phenylethyl)carbamoyl]-3,4-dihydro-2<I>H</I>-pyran-6-carboxylic acid
> <PUBCHEM_IUPAC_NAME>
(2R,3R,4S)-3-acetamido-4-amino-2-[[2-(dimethylamino)-2-oxoethyl]-(2-phenylethyl)carbamoyl]-3,4-dihydro-2H-pyran-6-carboxylic acid
> <PUBCHEM_IUPAC_SYSTEMATIC_NAME>
(2R,3R,4S)-3-acetamido-4-azanyl-2-[[2-(dimethylamino)-2-oxidanylidene-ethyl]-(2-phenylethyl)carbamoyl]-3,4-dihydro-2H-pyran-6-carboxylic acid
> <PUBCHEM_IUPAC_TRADITIONAL_NAME>
(2R,3R,4S)-3-acetamido-4-amino-2-[[2-(dimethylamino)-2-keto-ethyl]-phenethyl-carbamoyl]-3,4-dihydro-2H-pyran-6-carboxylic acid
> <PUBCHEM_IUPAC_INCHI>
InChI=1S/C21H28N4O6/c1-13(26)23-18-15(22)11-16(21(29)30)31-19(18)20(28)25(12-17(27)24(2)3)10-9-14-7-5-4-6-8-14/h4-8,11,15,18-19H,9-10,12,22H2,1-3H3,(H,23,26)(H,29,30)/t15-,18+,19+/m0/s1
> <PUBCHEM_IUPAC_INCHIKEY>
XDQAKKQRMMEGRF-KFKAGJAMSA-N
> <PUBCHEM_XLOGP3_AA>
-2.1
> <PUBCHEM_EXACT_MASS>
432.20088463
> <PUBCHEM_MOLECULAR_FORMULA>
C21H28N4O6
> <PUBCHEM_MOLECULAR_WEIGHT>
432.5
> <PUBCHEM_OPENEYE_CAN_SMILES>
CC(=O)NC1C(C=C(OC1C(=O)N(CCC2=CC=CC=C2)CC(=O)N(C)C)C(=O)O)N
> <PUBCHEM_OPENEYE_ISO_SMILES>
CC(=O)N[C@@H]1[C@H](C=C(O[C@H]1C(=O)N(CCC2=CC=CC=C2)CC(=O)N(C)C)C(=O)O)N
> <PUBCHEM_CACTVS_TPSA>
142
> <PUBCHEM_MONOISOTOPIC_WEIGHT>
432.20088463
> <PUBCHEM_TOTAL_CHARGE>
0
> <PUBCHEM_HEAVY_ATOM_COUNT>
31
> <PUBCHEM_ATOM_DEF_STEREO_COUNT>
3
> <PUBCHEM_ATOM_UDEF_STEREO_COUNT>
0
> <PUBCHEM_BOND_DEF_STEREO_COUNT>
0
> <PUBCHEM_BOND_UDEF_STEREO_COUNT>
0
> <PUBCHEM_ISOTOPIC_ATOM_COUNT>
0
> <PUBCHEM_COMPONENT_COUNT>
1
> <PUBCHEM_CACTVS_TAUTO_COUNT>
-1
> <PUBCHEM_COORDINATE_TYPE>
1
5
255
> <PUBCHEM_BONDANNOTATIONS>
12  14  6
23  25  8
23  26  8
25  29  8
26  30  8
29  31  8
30  31  8
11  8  5
13  9  6
$$$$
