506046
  -OEChem-10302200282D
 37 38  0     1  0  0  0  0  0999 V2000
    8.5043    2.7385    0.0000 O   0  0  0  0  0  0  0  0  0  0  0  0
    4.2410    2.0694    0.0000 O   0  0  0  0  0  0  0  0  0  0  0  0
    6.8671   -2.7094    0.0000 O   0  0  0  0  0  0  0  0  0  0  0  0
    5.1350   -2.7094    0.0000 O   0  0  0  0  0  0  0  0  0  0  0  0
    6.0010    1.7906    0.0000 N   0  0  0  0  0  0  0  0  0  0  0  0
    4.2690    0.7906    0.0000 N   0  0  0  0  0  0  0  0  0  0  0  0
    2.5369    0.7906    0.0000 N   0  0  0  0  0  0  0  0  0  0  0  0
    3.4030   -0.7094    0.0000 N   0  0  0  0  0  0  0  0  0  0  0  0
    6.8100    2.3784    0.0000 C   0  0  3  0  0  0  0  0  0  0  0  0
    6.5010    3.3294    0.0000 C   0  0  0  0  0  0  0  0  0  0  0  0
    5.5010    3.3294    0.0000 C   0  0  0  0  0  0  0  0  0  0  0  0
    5.1920    2.3784    0.0000 C   0  0  0  0  0  0  0  0  0  0  0  0
    7.7611    2.0694    0.0000 C   0  0  0  0  0  0  0  0  0  0  0  0
    6.0010    0.7906    0.0000 C   0  0  0  0  0  0  0  0  0  0  0  0
    5.1350    0.2906    0.0000 C   0  0  0  0  0  0  0  0  0  0  0  0
    6.8671    0.2906    0.0000 C   0  0  0  0  0  0  0  0  0  0  0  0
    5.1350   -0.7094    0.0000 C   0  0  0  0  0  0  0  0  0  0  0  0
    6.8671   -0.7094    0.0000 C   0  0  0  0  0  0  0  0  0  0  0  0
    6.0010   -1.2094    0.0000 C   0  0  0  0  0  0  0  0  0  0  0  0
    6.0010   -2.2094    0.0000 C   0  0  0  0  0  0  0  0  0  0  0  0
    3.4030    0.2906    0.0000 C   0  0  0  0  0  0  0  0  0  0  0  0
    6.9070    1.7660    0.0000 H   0  0  0  0  0  0  0  0  0  0  0  0
    7.1075    3.4583    0.0000 H   0  0  0  0  0  0  0  0  0  0  0  0
    6.4362    3.9460    0.0000 H   0  0  0  0  0  0  0  0  0  0  0  0
    5.5658    3.9460    0.0000 H   0  0  0  0  0  0  0  0  0  0  0  0
    4.8946    3.4583    0.0000 H   0  0  0  0  0  0  0  0  0  0  0  0
    7.4700    1.5219    0.0000 H   0  0  0  0  0  0  0  0  0  0  0  0
    8.2497    1.6876    0.0000 H   0  0  0  0  0  0  0  0  0  0  0  0
    7.4040    0.6006    0.0000 H   0  0  0  0  0  0  0  0  0  0  0  0
    9.0939    2.5469    0.0000 H   0  0  0  0  0  0  0  0  0  0  0  0
    4.5981   -1.0194    0.0000 H   0  0  0  0  0  0  0  0  0  0  0  0
    7.4040   -1.0194    0.0000 H   0  0  0  0  0  0  0  0  0  0  0  0
    2.0000    0.4806    0.0000 H   0  0  0  0  0  0  0  0  0  0  0  0
    2.5369    1.4106    0.0000 H   0  0  0  0  0  0  0  0  0  0  0  0
    2.8660   -1.0194    0.0000 H   0  0  0  0  0  0  0  0  0  0  0  0
    3.9399   -1.0194    0.0000 H   0  0  0  0  0  0  0  0  0  0  0  0
    6.8671   -3.3294    0.0000 H   0  0  0  0  0  0  0  0  0  0  0  0
  1 13  1  0  0  0  0
  1 30  1  0  0  0  0
  2 12  2  0  0  0  0
  3 20  1  0  0  0  0
  3 37  1  0  0  0  0
  4 20  2  0  0  0  0
  5  9  1  0  0  0  0
  5 12  1  0  0  0  0
  5 14  1  0  0  0  0
  6 15  1  0  0  0  0
  6 21  2  0  0  0  0
  7 21  1  0  0  0  0
  7 33  1  0  0  0  0
  7 34  1  0  0  0  0
  8 21  1  0  0  0  0
  8 35  1  0  0  0  0
  8 36  1  0  0  0  0
  9 10  1  0  0  0  0
  9 13  1  0  0  0  0
  9 22  1  0  0  0  0
 10 11  1  0  0  0  0
 10 23  1  0  0  0  0
 10 24  1  0  0  0  0
 11 12  1  0  0  0  0
 11 25  1  0  0  0  0
 11 26  1  0  0  0  0
 13 27  1  0  0  0  0
 13 28  1  0  0  0  0
 14 15  2  0  0  0  0
 14 16  1  0  0  0  0
 15 17  1  0  0  0  0
 16 18  2  0  0  0  0
 16 29  1  0  0  0  0
 17 19  2  0  0  0  0
 17 31  1  0  0  0  0
 18 19  1  0  0  0  0
 18 32  1  0  0  0  0
 19 20  1  0  0  0  0
M  END
> <PUBCHEM_COMPOUND_CID>
506046
> <PUBCHEM_COMPOUND_CANONICALIZED>
1
> <PUBCHEM_CACTVS_COMPLEXITY>
450
> <PUBCHEM_CACTVS_HBOND_ACCEPTOR>
5
> <PUBCHEM_CACTVS_HBOND_DONOR>
4
> <PUBCHEM_CACTVS_ROTATABLE_BOND>
4
> <PUBCHEM_CACTVS_SUBSKEYS>
AAADceBzuAAAAAAAAAAAAAAAAAAAAWAAAAAwAAAAAAAAAAABAAAAHgAQCAAADCjhmAYxyINAAgCoAiXSfACCAAElAgAIiAEIfMgKdjLAlZGUcQhkxgHY2Ye83SOeCAAAQAAAACAQAACAAAAAQAAAAAAAAA==
> <PUBCHEM_IUPAC_OPENEYE_NAME>
3-guanidino-4-[2-(hydroxymethyl)-5-oxo-pyrrolidin-1-yl]benzoic acid
> <PUBCHEM_IUPAC_CAS_NAME>
3-(diaminomethylideneamino)-4-[2-(hydroxymethyl)-5-oxo-1-pyrrolidinyl]benzoic acid
> <PUBCHEM_IUPAC_NAME_MARKUP>
3-(diaminomethylideneamino)-4-[2-(hydroxymethyl)-5-oxopyrrolidin-1-yl]benzoic acid
> <PUBCHEM_IUPAC_NAME>
3-(diaminomethylideneamino)-4-[2-(hydroxymethyl)-5-oxopyrrolidin-1-yl]benzoic acid
> <PUBCHEM_IUPAC_SYSTEMATIC_NAME>
3-[bis(azanyl)methylideneamino]-4-[2-(hydroxymethyl)-5-oxidanylidene-pyrrolidin-1-yl]benzoic acid
> <PUBCHEM_IUPAC_TRADITIONAL_NAME>
3-guanidino-4-(2-keto-5-methylol-pyrrolidino)benzoic acid
> <PUBCHEM_IUPAC_INCHI>
InChI=1S/C13H16N4O4/c14-13(15)16-9-5-7(12(20)21)1-3-10(9)17-8(6-18)2-4-11(17)19/h1,3,5,8,18H,2,4,6H2,(H,20,21)(H4,14,15,16)
> <PUBCHEM_IUPAC_INCHIKEY>
JKEFEWCCNRASGF-UHFFFAOYSA-N
> <PUBCHEM_XLOGP3_AA>
-1.3
> <PUBCHEM_EXACT_MASS>
292.11715500
> <PUBCHEM_MOLECULAR_FORMULA>
C13H16N4O4
> <PUBCHEM_MOLECULAR_WEIGHT>
292.29
> <PUBCHEM_OPENEYE_CAN_SMILES>
C1CC(=O)N(C1CO)C2=C(C=C(C=C2)C(=O)O)N=C(N)N
> <PUBCHEM_OPENEYE_ISO_SMILES>
C1CC(=O)N(C1CO)C2=C(C=C(C=C2)C(=O)O)N=C(N)N
> <PUBCHEM_CACTVS_TPSA>
142
> <PUBCHEM_MONOISOTOPIC_WEIGHT>
292.11715500
> <PUBCHEM_TOTAL_CHARGE>
0
> <PUBCHEM_HEAVY_ATOM_COUNT>
21
> <PUBCHEM_ATOM_DEF_STEREO_COUNT>
0
> <PUBCHEM_ATOM_UDEF_STEREO_COUNT>
1
> <PUBCHEM_BOND_DEF_STEREO_COUNT>
0
> <PUBCHEM_BOND_UDEF_STEREO_COUNT>
0
> <PUBCHEM_ISOTOPIC_ATOM_COUNT>
0
> <PUBCHEM_COMPONENT_COUNT>
1
> <PUBCHEM_CACTVS_TAUTO_COUNT>
-1
> <PUBCHEM_COORDINATE_TYPE>
1
5
255
> <PUBCHEM_BONDANNOTATIONS>
14  15  8
14  16  8
15  17  8
16  18  8
17  19  8
18  19  8
9  13  3
$$$$
