506014
  -OEChem-10302200282D
 46 47  0     1  0  0  0  0  0999 V2000
    5.1350   -0.8060    0.0000 O   0  0  0  0  0  0  0  0  0  0  0  0
    6.0010    1.6940    0.0000 O   0  0  0  0  0  0  0  0  0  0  0  0
    2.7690    2.5601    0.0000 O   0  0  0  0  0  0  0  0  0  0  0  0
    3.4030   -2.8060    0.0000 O   0  0  0  0  0  0  0  0  0  0  0  0
    5.1350   -2.8060    0.0000 O   0  0  0  0  0  0  0  0  0  0  0  0
    6.8671    0.1940    0.0000 N   0  0  0  0  0  0  0  0  0  0  0  0
    4.2690    1.6940    0.0000 N   0  0  0  0  0  0  0  0  0  0  0  0
    2.5369    0.6940    0.0000 N   0  0  0  0  0  0  0  0  0  0  0  0
    7.7331    0.6940    0.0000 C   0  0  0  0  0  0  0  0  0  0  0  0
    8.5991    0.1940    0.0000 C   0  0  0  0  0  0  0  0  0  0  0  0
    7.7331    1.6940    0.0000 C   0  0  0  0  0  0  0  0  0  0  0  0
    9.4651    0.6940    0.0000 C   0  0  0  0  0  0  0  0  0  0  0  0
    8.5991    2.1940    0.0000 C   0  0  0  0  0  0  0  0  0  0  0  0
    9.4651    1.6940    0.0000 C   0  0  0  0  0  0  0  0  0  0  0  0
    4.2690    0.6940    0.0000 C   0  0  1  0  0  0  0  0  0  0  0  0
    5.1350    0.1940    0.0000 C   0  0  2  0  0  0  0  0  0  0  0  0
    3.4030    0.1940    0.0000 C   0  0  2  0  0  0  0  0  0  0  0  0
    6.0010    0.6940    0.0000 C   0  0  0  0  0  0  0  0  0  0  0  0
    3.4030   -0.8060    0.0000 C   0  0  0  0  0  0  0  0  0  0  0  0
    4.2690   -1.3060    0.0000 C   0  0  0  0  0  0  0  0  0  0  0  0
    3.7690    2.5600    0.0000 C   0  0  0  0  0  0  0  0  0  0  0  0
    4.2690   -2.3060    0.0000 C   0  0  0  0  0  0  0  0  0  0  0  0
    4.2690    3.4260    0.0000 C   0  0  0  0  0  0  0  0  0  0  0  0
    7.7331    0.0740    0.0000 H   0  0  0  0  0  0  0  0  0  0  0  0
    8.2006   -0.2810    0.0000 H   0  0  0  0  0  0  0  0  0  0  0  0
    8.9976   -0.2810    0.0000 H   0  0  0  0  0  0  0  0  0  0  0  0
    7.5210    2.2766    0.0000 H   0  0  0  0  0  0  0  0  0  0  0  0
    7.1225    1.5863    0.0000 H   0  0  0  0  0  0  0  0  0  0  0  0
    9.6772    0.1114    0.0000 H   0  0  0  0  0  0  0  0  0  0  0  0
   10.0757    0.8016    0.0000 H   0  0  0  0  0  0  0  0  0  0  0  0
    8.9976    2.6689    0.0000 H   0  0  0  0  0  0  0  0  0  0  0  0
    8.2006    2.6689    0.0000 H   0  0  0  0  0  0  0  0  0  0  0  0
   10.0757    1.5863    0.0000 H   0  0  0  0  0  0  0  0  0  0  0  0
    9.6772    2.2766    0.0000 H   0  0  0  0  0  0  0  0  0  0  0  0
    4.8059    1.0040    0.0000 H   0  0  0  0  0  0  0  0  0  0  0  0
    5.6720   -0.1160    0.0000 H   0  0  0  0  0  0  0  0  0  0  0  0
    6.8671   -0.4260    0.0000 H   0  0  0  0  0  0  0  0  0  0  0  0
    3.4030    0.8140    0.0000 H   0  0  0  0  0  0  0  0  0  0  0  0
    2.8660   -1.1160    0.0000 H   0  0  0  0  0  0  0  0  0  0  0  0
    4.8059    2.0040    0.0000 H   0  0  0  0  0  0  0  0  0  0  0  0
    2.0000    0.3840    0.0000 H   0  0  0  0  0  0  0  0  0  0  0  0
    2.2269    1.2309    0.0000 H   0  0  0  0  0  0  0  0  0  0  0  0
    4.8059    3.1160    0.0000 H   0  0  0  0  0  0  0  0  0  0  0  0
    4.5790    3.9630    0.0000 H   0  0  0  0  0  0  0  0  0  0  0  0
    3.7320    3.7360    0.0000 H   0  0  0  0  0  0  0  0  0  0  0  0
    3.4030   -3.4260    0.0000 H   0  0  0  0  0  0  0  0  0  0  0  0
  1 16  1  0  0  0  0
  1 20  1  0  0  0  0
  2 18  2  0  0  0  0
  3 21  2  0  0  0  0
  4 22  1  0  0  0  0
  4 46  1  0  0  0  0
  5 22  2  0  0  0  0
  6  9  1  0  0  0  0
  6 18  1  0  0  0  0
  6 37  1  0  0  0  0
 15  7  1  1  0  0  0
  7 21  1  0  0  0  0
  7 40  1  0  0  0  0
 17  8  1  6  0  0  0
  8 41  1  0  0  0  0
  8 42  1  0  0  0  0
  9 10  1  0  0  0  0
  9 11  1  0  0  0  0
  9 24  1  0  0  0  0
 10 12  1  0  0  0  0
 10 25  1  0  0  0  0
 10 26  1  0  0  0  0
 11 13  1  0  0  0  0
 11 27  1  0  0  0  0
 11 28  1  0  0  0  0
 12 14  1  0  0  0  0
 12 29  1  0  0  0  0
 12 30  1  0  0  0  0
 13 14  1  0  0  0  0
 13 31  1  0  0  0  0
 13 32  1  0  0  0  0
 14 33  1  0  0  0  0
 14 34  1  0  0  0  0
 15 16  1  0  0  0  0
 15 17  1  0  0  0  0
 15 35  1  0  0  0  0
 16 18  1  6  0  0  0
 16 36  1  0  0  0  0
 17 19  1  0  0  0  0
 17 38  1  0  0  0  0
 19 20  2  0  0  0  0
 19 39  1  0  0  0  0
 20 22  1  0  0  0  0
 21 23  1  0  0  0  0
 23 43  1  0  0  0  0
 23 44  1  0  0  0  0
 23 45  1  0  0  0  0
M  END
> <PUBCHEM_COMPOUND_CID>
506014
> <PUBCHEM_COMPOUND_CANONICALIZED>
1
> <PUBCHEM_CACTVS_COMPLEXITY>
513
> <PUBCHEM_CACTVS_HBOND_ACCEPTOR>
6
> <PUBCHEM_CACTVS_HBOND_DONOR>
4
> <PUBCHEM_CACTVS_ROTATABLE_BOND>
4
> <PUBCHEM_CACTVS_SUBSKEYS>
AAADceBzOAAAAAAAAAAAAAAAAAAAAAAAAAAwQAAAAAAAAAAAAAAAHgAQCAAACDzhgAYCCALABgCIACHSGAKACAAgIAAACIFIAEgDRBoAwAQXEAAGlgCbEYMcAAAAAAAAAAAAAAAAAAAAAAAAAAAAAAAAAA==
> <PUBCHEM_IUPAC_OPENEYE_NAME>
(2R,3R,4S)-3-acetamido-4-amino-2-(cyclohexylcarbamoyl)-3,4-dihydro-2H-pyran-6-carboxylic acid
> <PUBCHEM_IUPAC_CAS_NAME>
(2R,3R,4S)-3-acetamido-4-amino-2-[(cyclohexylamino)-oxomethyl]-3,4-dihydro-2H-pyran-6-carboxylic acid
> <PUBCHEM_IUPAC_NAME_MARKUP>
(2<I>R</I>,3<I>R</I>,4<I>S</I>)-3-acetamido-4-amino-2-(cyclohexylcarbamoyl)-3,4-dihydro-2<I>H</I>-pyran-6-carboxylic acid
> <PUBCHEM_IUPAC_NAME>
(2R,3R,4S)-3-acetamido-4-amino-2-(cyclohexylcarbamoyl)-3,4-dihydro-2H-pyran-6-carboxylic acid
> <PUBCHEM_IUPAC_SYSTEMATIC_NAME>
(2R,3R,4S)-3-acetamido-4-azanyl-2-(cyclohexylcarbamoyl)-3,4-dihydro-2H-pyran-6-carboxylic acid
> <PUBCHEM_IUPAC_TRADITIONAL_NAME>
(2R,3R,4S)-3-acetamido-4-amino-2-(cyclohexylcarbamoyl)-3,4-dihydro-2H-pyran-6-carboxylic acid
> <PUBCHEM_IUPAC_INCHI>
InChI=1S/C15H23N3O5/c1-8(19)17-12-10(16)7-11(15(21)22)23-13(12)14(20)18-9-5-3-2-4-6-9/h7,9-10,12-13H,2-6,16H2,1H3,(H,17,19)(H,18,20)(H,21,22)/t10-,12+,13+/m0/s1
> <PUBCHEM_IUPAC_INCHIKEY>
QICFFMYGGKUOPM-CYZMBNFOSA-N
> <PUBCHEM_XLOGP3_AA>
-2
> <PUBCHEM_EXACT_MASS>
325.16377084
> <PUBCHEM_MOLECULAR_FORMULA>
C15H23N3O5
> <PUBCHEM_MOLECULAR_WEIGHT>
325.36
> <PUBCHEM_OPENEYE_CAN_SMILES>
CC(=O)NC1C(C=C(OC1C(=O)NC2CCCCC2)C(=O)O)N
> <PUBCHEM_OPENEYE_ISO_SMILES>
CC(=O)N[C@@H]1[C@H](C=C(O[C@H]1C(=O)NC2CCCCC2)C(=O)O)N
> <PUBCHEM_CACTVS_TPSA>
131
> <PUBCHEM_MONOISOTOPIC_WEIGHT>
325.16377084
> <PUBCHEM_TOTAL_CHARGE>
0
> <PUBCHEM_HEAVY_ATOM_COUNT>
23
> <PUBCHEM_ATOM_DEF_STEREO_COUNT>
3
> <PUBCHEM_ATOM_UDEF_STEREO_COUNT>
0
> <PUBCHEM_BOND_DEF_STEREO_COUNT>
0
> <PUBCHEM_BOND_UDEF_STEREO_COUNT>
0
> <PUBCHEM_ISOTOPIC_ATOM_COUNT>
0
> <PUBCHEM_COMPONENT_COUNT>
1
> <PUBCHEM_CACTVS_TAUTO_COUNT>
-1
> <PUBCHEM_COORDINATE_TYPE>
1
5
255
> <PUBCHEM_BONDANNOTATIONS>
16  18  6
15  7  5
17  8  6
$$$$
