506013
  -OEChem-10302200282D
 44 44  0     1  0  0  0  0  0999 V2000
    5.1350   -0.8060    0.0000 O   0  0  0  0  0  0  0  0  0  0  0  0
    6.0010    1.6940    0.0000 O   0  0  0  0  0  0  0  0  0  0  0  0
    2.7690    2.5601    0.0000 O   0  0  0  0  0  0  0  0  0  0  0  0
    3.4030   -2.8060    0.0000 O   0  0  0  0  0  0  0  0  0  0  0  0
    5.1350   -2.8060    0.0000 O   0  0  0  0  0  0  0  0  0  0  0  0
    4.2690    1.6940    0.0000 N   0  0  0  0  0  0  0  0  0  0  0  0
    6.8671    0.1940    0.0000 N   0  0  0  0  0  0  0  0  0  0  0  0
    2.5369    0.6940    0.0000 N   0  0  0  0  0  0  0  0  0  0  0  0
    4.2690    0.6940    0.0000 C   0  0  1  0  0  0  0  0  0  0  0  0
    5.1350    0.1940    0.0000 C   0  0  2  0  0  0  0  0  0  0  0  0
    3.4030    0.1940    0.0000 C   0  0  2  0  0  0  0  0  0  0  0  0
    3.4030   -0.8060    0.0000 C   0  0  0  0  0  0  0  0  0  0  0  0
    6.0010    0.6940    0.0000 C   0  0  0  0  0  0  0  0  0  0  0  0
    4.2690   -1.3060    0.0000 C   0  0  0  0  0  0  0  0  0  0  0  0
    3.7690    2.5600    0.0000 C   0  0  0  0  0  0  0  0  0  0  0  0
    7.7331    0.6940    0.0000 C   0  0  0  0  0  0  0  0  0  0  0  0
    6.8671   -0.8060    0.0000 C   0  0  0  0  0  0  0  0  0  0  0  0
    4.2690   -2.3060    0.0000 C   0  0  0  0  0  0  0  0  0  0  0  0
    4.2690    3.4260    0.0000 C   0  0  0  0  0  0  0  0  0  0  0  0
    8.5991    0.1940    0.0000 C   0  0  0  0  0  0  0  0  0  0  0  0
    7.7331   -1.3060    0.0000 C   0  0  0  0  0  0  0  0  0  0  0  0
    9.4651    0.6940    0.0000 C   0  0  0  0  0  0  0  0  0  0  0  0
    7.7331   -2.3060    0.0000 C   0  0  0  0  0  0  0  0  0  0  0  0
    4.8059    1.0040    0.0000 H   0  0  0  0  0  0  0  0  0  0  0  0
    5.6720   -0.1160    0.0000 H   0  0  0  0  0  0  0  0  0  0  0  0
    3.4030    0.8140    0.0000 H   0  0  0  0  0  0  0  0  0  0  0  0
    2.8660   -1.1160    0.0000 H   0  0  0  0  0  0  0  0  0  0  0  0
    4.8059    2.0040    0.0000 H   0  0  0  0  0  0  0  0  0  0  0  0
    2.0000    0.3840    0.0000 H   0  0  0  0  0  0  0  0  0  0  0  0
    2.2269    1.2309    0.0000 H   0  0  0  0  0  0  0  0  0  0  0  0
    8.1316    1.1689    0.0000 H   0  0  0  0  0  0  0  0  0  0  0  0
    7.3346    1.1689    0.0000 H   0  0  0  0  0  0  0  0  0  0  0  0
    6.2565   -0.6984    0.0000 H   0  0  0  0  0  0  0  0  0  0  0  0
    6.6550   -1.3886    0.0000 H   0  0  0  0  0  0  0  0  0  0  0  0
    4.8059    3.1160    0.0000 H   0  0  0  0  0  0  0  0  0  0  0  0
    4.5790    3.9630    0.0000 H   0  0  0  0  0  0  0  0  0  0  0  0
    3.7320    3.7360    0.0000 H   0  0  0  0  0  0  0  0  0  0  0  0
    8.5991   -0.4260    0.0000 H   0  0  0  0  0  0  0  0  0  0  0  0
    8.2700   -0.9960    0.0000 H   0  0  0  0  0  0  0  0  0  0  0  0
    3.4030   -3.4260    0.0000 H   0  0  0  0  0  0  0  0  0  0  0  0
   10.0021    0.3840    0.0000 H   0  0  0  0  0  0  0  0  0  0  0  0
    9.4651    1.3140    0.0000 H   0  0  0  0  0  0  0  0  0  0  0  0
    7.1962   -2.6160    0.0000 H   0  0  0  0  0  0  0  0  0  0  0  0
    8.2700   -2.6160    0.0000 H   0  0  0  0  0  0  0  0  0  0  0  0
  1 10  1  0  0  0  0
  1 14  1  0  0  0  0
  2 13  2  0  0  0  0
  3 15  2  0  0  0  0
  4 18  1  0  0  0  0
  4 40  1  0  0  0  0
  5 18  2  0  0  0  0
  9  6  1  1  0  0  0
  6 15  1  0  0  0  0
  6 28  1  0  0  0  0
  7 13  1  0  0  0  0
  7 16  1  0  0  0  0
  7 17  1  0  0  0  0
 11  8  1  6  0  0  0
  8 29  1  0  0  0  0
  8 30  1  0  0  0  0
  9 10  1  0  0  0  0
  9 11  1  0  0  0  0
  9 24  1  0  0  0  0
 10 13  1  6  0  0  0
 10 25  1  0  0  0  0
 11 12  1  0  0  0  0
 11 26  1  0  0  0  0
 12 14  2  0  0  0  0
 12 27  1  0  0  0  0
 14 18  1  0  0  0  0
 15 19  1  0  0  0  0
 16 20  1  0  0  0  0
 16 31  1  0  0  0  0
 16 32  1  0  0  0  0
 17 21  1  0  0  0  0
 17 33  1  0  0  0  0
 17 34  1  0  0  0  0
 19 35  1  0  0  0  0
 19 36  1  0  0  0  0
 19 37  1  0  0  0  0
 20 22  2  0  0  0  0
 20 38  1  0  0  0  0
 21 23  2  0  0  0  0
 21 39  1  0  0  0  0
 22 41  1  0  0  0  0
 22 42  1  0  0  0  0
 23 43  1  0  0  0  0
 23 44  1  0  0  0  0
M  END
> <PUBCHEM_COMPOUND_CID>
506013
> <PUBCHEM_COMPOUND_CANONICALIZED>
1
> <PUBCHEM_CACTVS_COMPLEXITY>
533
> <PUBCHEM_CACTVS_HBOND_ACCEPTOR>
6
> <PUBCHEM_CACTVS_HBOND_DONOR>
3
> <PUBCHEM_CACTVS_ROTATABLE_BOND>
7
> <PUBCHEM_CACTVS_SUBSKEYS>
AAADceBzOAAAAAAAAAAAAAAAAAAAAAAAAAAgAAAAAAAAAAAAAAAAHgAQCAAACDzhgAYCCAPABgCIACHSGAKACAAgIAAICIFIAEgDRBoAwQQXEAAGlgCbEYIcAAAAAAAAAAAAAAAAAAAAAAAAAAAAAAAAAA==
> <PUBCHEM_IUPAC_OPENEYE_NAME>
(2R,3R,4S)-3-acetamido-4-amino-2-(diallylcarbamoyl)-3,4-dihydro-2H-pyran-6-carboxylic acid
> <PUBCHEM_IUPAC_CAS_NAME>
(2R,3R,4S)-3-acetamido-4-amino-2-[[bis(prop-2-enyl)amino]-oxomethyl]-3,4-dihydro-2H-pyran-6-carboxylic acid
> <PUBCHEM_IUPAC_NAME_MARKUP>
(2<I>R</I>,3<I>R</I>,4<I>S</I>)-3-acetamido-4-amino-2-[bis(prop-2-enyl)carbamoyl]-3,4-dihydro-2<I>H</I>-pyran-6-carboxylic acid
> <PUBCHEM_IUPAC_NAME>
(2R,3R,4S)-3-acetamido-4-amino-2-[bis(prop-2-enyl)carbamoyl]-3,4-dihydro-2H-pyran-6-carboxylic acid
> <PUBCHEM_IUPAC_SYSTEMATIC_NAME>
(2R,3R,4S)-3-acetamido-4-azanyl-2-[bis(prop-2-enyl)carbamoyl]-3,4-dihydro-2H-pyran-6-carboxylic acid
> <PUBCHEM_IUPAC_TRADITIONAL_NAME>
(2R,3R,4S)-3-acetamido-4-amino-2-(diallylcarbamoyl)-3,4-dihydro-2H-pyran-6-carboxylic acid
> <PUBCHEM_IUPAC_INCHI>
InChI=1S/C15H21N3O5/c1-4-6-18(7-5-2)14(20)13-12(17-9(3)19)10(16)8-11(23-13)15(21)22/h4-5,8,10,12-13H,1-2,6-7,16H2,3H3,(H,17,19)(H,21,22)/t10-,12+,13+/m0/s1
> <PUBCHEM_IUPAC_INCHIKEY>
JHKGUGIKUGELSW-CYZMBNFOSA-N
> <PUBCHEM_XLOGP3_AA>
-2.3
> <PUBCHEM_EXACT_MASS>
323.14812078
> <PUBCHEM_MOLECULAR_FORMULA>
C15H21N3O5
> <PUBCHEM_MOLECULAR_WEIGHT>
323.34
> <PUBCHEM_OPENEYE_CAN_SMILES>
CC(=O)NC1C(C=C(OC1C(=O)N(CC=C)CC=C)C(=O)O)N
> <PUBCHEM_OPENEYE_ISO_SMILES>
CC(=O)N[C@@H]1[C@H](C=C(O[C@H]1C(=O)N(CC=C)CC=C)C(=O)O)N
> <PUBCHEM_CACTVS_TPSA>
122
> <PUBCHEM_MONOISOTOPIC_WEIGHT>
323.14812078
> <PUBCHEM_TOTAL_CHARGE>
0
> <PUBCHEM_HEAVY_ATOM_COUNT>
23
> <PUBCHEM_ATOM_DEF_STEREO_COUNT>
3
> <PUBCHEM_ATOM_UDEF_STEREO_COUNT>
0
> <PUBCHEM_BOND_DEF_STEREO_COUNT>
0
> <PUBCHEM_BOND_UDEF_STEREO_COUNT>
0
> <PUBCHEM_ISOTOPIC_ATOM_COUNT>
0
> <PUBCHEM_COMPONENT_COUNT>
1
> <PUBCHEM_CACTVS_TAUTO_COUNT>
-1
> <PUBCHEM_COORDINATE_TYPE>
1
5
255
> <PUBCHEM_BONDANNOTATIONS>
10  13  6
9  6  5
11  8  6
$$$$
