506037
  -OEChem-10302200282D
 41 42  0     1  0  0  0  0  0999 V2000
    6.3301    0.1962    0.0000 O   0  0  0  0  0  0  0  0  0  0  0  0
    4.5981   -1.8038    0.0000 O   0  0  0  0  0  0  0  0  0  0  0  0
    2.8660    1.1962    0.0000 O   0  0  0  0  0  0  0  0  0  0  0  0
    7.1962    2.6962    0.0000 O   0  0  0  0  0  0  0  0  0  0  0  0
    8.0622    1.1962    0.0000 O   0  0  0  0  0  0  0  0  0  0  0  0
    6.3301   -1.8038    0.0000 N   0  0  0  0  0  0  0  0  0  0  0  0
    3.7320   -0.3038    0.0000 N   0  0  0  0  0  0  0  0  0  0  0  0
    4.5981    0.1962    0.0000 C   0  0  1  0  0  0  0  0  0  0  0  0
    5.4641   -0.3038    0.0000 C   0  0  2  0  0  0  0  0  0  0  0  0
    4.5981    1.1962    0.0000 C   0  0  2  0  0  0  0  0  0  0  0  0
    6.4347   -2.7983    0.0000 C   0  0  0  0  0  0  0  0  0  0  0  0
    7.2437   -1.3970    0.0000 C   0  0  0  0  0  0  0  0  0  0  0  0
    7.4128   -3.0062    0.0000 C   0  0  0  0  0  0  0  0  0  0  0  0
    7.9128   -2.1402    0.0000 C   0  0  0  0  0  0  0  0  0  0  0  0
    5.4641   -1.3038    0.0000 C   0  0  0  0  0  0  0  0  0  0  0  0
    5.4641    1.6962    0.0000 C   0  0  0  0  0  0  0  0  0  0  0  0
    3.7320    1.6962    0.0000 C   0  0  0  0  0  0  0  0  0  0  0  0
    6.3301    1.1962    0.0000 C   0  0  0  0  0  0  0  0  0  0  0  0
    2.8660    0.1962    0.0000 C   0  0  0  0  0  0  0  0  0  0  0  0
    7.1962    1.6962    0.0000 C   0  0  0  0  0  0  0  0  0  0  0  0
    2.0000   -0.3038    0.0000 C   0  0  0  0  0  0  0  0  0  0  0  0
    4.5981   -0.4238    0.0000 H   0  0  0  0  0  0  0  0  0  0  0  0
    6.0010   -0.6138    0.0000 H   0  0  0  0  0  0  0  0  0  0  0  0
    4.5981    1.8162    0.0000 H   0  0  0  0  0  0  0  0  0  0  0  0
    5.8147   -2.7983    0.0000 H   0  0  0  0  0  0  0  0  0  0  0  0
    6.3698   -3.4149    0.0000 H   0  0  0  0  0  0  0  0  0  0  0  0
    7.7453   -1.0326    0.0000 H   0  0  0  0  0  0  0  0  0  0  0  0
    6.9337   -0.8601    0.0000 H   0  0  0  0  0  0  0  0  0  0  0  0
    7.2212   -3.5959    0.0000 H   0  0  0  0  0  0  0  0  0  0  0  0
    7.9792   -3.2584    0.0000 H   0  0  0  0  0  0  0  0  0  0  0  0
    8.4144   -2.5046    0.0000 H   0  0  0  0  0  0  0  0  0  0  0  0
    8.3277   -1.6794    0.0000 H   0  0  0  0  0  0  0  0  0  0  0  0
    5.4641    2.3162    0.0000 H   0  0  0  0  0  0  0  0  0  0  0  0
    3.7320   -0.9238    0.0000 H   0  0  0  0  0  0  0  0  0  0  0  0
    4.0420    2.2332    0.0000 H   0  0  0  0  0  0  0  0  0  0  0  0
    3.1951    2.0062    0.0000 H   0  0  0  0  0  0  0  0  0  0  0  0
    3.4220    1.1593    0.0000 H   0  0  0  0  0  0  0  0  0  0  0  0
    1.6900    0.2332    0.0000 H   0  0  0  0  0  0  0  0  0  0  0  0
    1.4631   -0.6138    0.0000 H   0  0  0  0  0  0  0  0  0  0  0  0
    2.3100   -0.8407    0.0000 H   0  0  0  0  0  0  0  0  0  0  0  0
    7.7331    3.0062    0.0000 H   0  0  0  0  0  0  0  0  0  0  0  0
  1  9  1  0  0  0  0
  1 18  1  0  0  0  0
  2 15  2  0  0  0  0
  3 19  2  0  0  0  0
  4 20  1  0  0  0  0
  4 41  1  0  0  0  0
  5 20  2  0  0  0  0
  6 11  1  0  0  0  0
  6 12  1  0  0  0  0
  6 15  1  0  0  0  0
  8  7  1  6  0  0  0
  7 19  1  0  0  0  0
  7 34  1  0  0  0  0
  8  9  1  0  0  0  0
  8 10  1  0  0  0  0
  8 22  1  0  0  0  0
  9 15  1  1  0  0  0
  9 23  1  0  0  0  0
 10 16  1  0  0  0  0
 10 17  1  1  0  0  0
 10 24  1  0  0  0  0
 11 13  1  0  0  0  0
 11 25  1  0  0  0  0
 11 26  1  0  0  0  0
 12 14  1  0  0  0  0
 12 27  1  0  0  0  0
 12 28  1  0  0  0  0
 13 14  1  0  0  0  0
 13 29  1  0  0  0  0
 13 30  1  0  0  0  0
 14 31  1  0  0  0  0
 14 32  1  0  0  0  0
 16 18  2  0  0  0  0
 16 33  1  0  0  0  0
 17 35  1  0  0  0  0
 17 36  1  0  0  0  0
 17 37  1  0  0  0  0
 18 20  1  0  0  0  0
 19 21  1  0  0  0  0
 21 38  1  0  0  0  0
 21 39  1  0  0  0  0
 21 40  1  0  0  0  0
M  END
> <PUBCHEM_COMPOUND_CID>
506037
> <PUBCHEM_COMPOUND_CANONICALIZED>
1
> <PUBCHEM_CACTVS_COMPLEXITY>
482
> <PUBCHEM_CACTVS_HBOND_ACCEPTOR>
5
> <PUBCHEM_CACTVS_HBOND_DONOR>
2
> <PUBCHEM_CACTVS_ROTATABLE_BOND>
3
> <PUBCHEM_CACTVS_SUBSKEYS>
AAADceBzOAAAAAAAAAAAAAAAAAAAAWAAAAAgAAAAAAAAAAAAAAAAHgAQCAAADTzhgAYCCAPABgCIACHSGAIACAAgIAAACIFIAEgDBBoAwAQHEAAElgCbEYIYAAAMAAAAAAAAAAAAAAAAAAAAAAAAAAAAAA==
> <PUBCHEM_IUPAC_OPENEYE_NAME>
(2R,3R,4S)-3-acetamido-4-methyl-2-(pyrrolidine-1-carbonyl)-3,4-dihydro-2H-pyran-6-carboxylic acid
> <PUBCHEM_IUPAC_CAS_NAME>
(2R,3R,4S)-3-acetamido-4-methyl-2-[oxo(1-pyrrolidinyl)methyl]-3,4-dihydro-2H-pyran-6-carboxylic acid
> <PUBCHEM_IUPAC_NAME_MARKUP>
(2<I>R</I>,3<I>R</I>,4<I>S</I>)-3-acetamido-4-methyl-2-(pyrrolidine-1-carbonyl)-3,4-dihydro-2<I>H</I>-pyran-6-carboxylic acid
> <PUBCHEM_IUPAC_NAME>
(2R,3R,4S)-3-acetamido-4-methyl-2-(pyrrolidine-1-carbonyl)-3,4-dihydro-2H-pyran-6-carboxylic acid
> <PUBCHEM_IUPAC_SYSTEMATIC_NAME>
(2R,3R,4S)-3-acetamido-4-methyl-2-pyrrolidin-1-ylcarbonyl-3,4-dihydro-2H-pyran-6-carboxylic acid
> <PUBCHEM_IUPAC_TRADITIONAL_NAME>
(2R,3R,4S)-3-acetamido-4-methyl-2-(pyrrolidine-1-carbonyl)-3,4-dihydro-2H-pyran-6-carboxylic acid
> <PUBCHEM_IUPAC_INCHI>
InChI=1S/C14H20N2O5/c1-8-7-10(14(19)20)21-12(11(8)15-9(2)17)13(18)16-5-3-4-6-16/h7-8,11-12H,3-6H2,1-2H3,(H,15,17)(H,19,20)/t8-,11+,12+/m0/s1
> <PUBCHEM_IUPAC_INCHIKEY>
ULJRNRKQWRKFOM-XXILOJSOSA-N
> <PUBCHEM_XLOGP3_AA>
0.8
> <PUBCHEM_EXACT_MASS>
296.13722174
> <PUBCHEM_MOLECULAR_FORMULA>
C14H20N2O5
> <PUBCHEM_MOLECULAR_WEIGHT>
296.32
> <PUBCHEM_OPENEYE_CAN_SMILES>
CC1C=C(OC(C1NC(=O)C)C(=O)N2CCCC2)C(=O)O
> <PUBCHEM_OPENEYE_ISO_SMILES>
C[C@H]1C=C(O[C@H]([C@@H]1NC(=O)C)C(=O)N2CCCC2)C(=O)O
> <PUBCHEM_CACTVS_TPSA>
95.9
> <PUBCHEM_MONOISOTOPIC_WEIGHT>
296.13722174
> <PUBCHEM_TOTAL_CHARGE>
0
> <PUBCHEM_HEAVY_ATOM_COUNT>
21
> <PUBCHEM_ATOM_DEF_STEREO_COUNT>
3
> <PUBCHEM_ATOM_UDEF_STEREO_COUNT>
0
> <PUBCHEM_BOND_DEF_STEREO_COUNT>
0
> <PUBCHEM_BOND_UDEF_STEREO_COUNT>
0
> <PUBCHEM_ISOTOPIC_ATOM_COUNT>
0
> <PUBCHEM_COMPONENT_COUNT>
1
> <PUBCHEM_CACTVS_TAUTO_COUNT>
-1
> <PUBCHEM_COORDINATE_TYPE>
1
5
255
> <PUBCHEM_BONDANNOTATIONS>
10  17  5
8  7  6
9  15  5
$$$$
