506019
  -OEChem-10302200282D
 52 53  0     1  0  0  0  0  0999 V2000
    5.1350   -0.3660    0.0000 O   0  0  0  0  0  0  0  0  0  0  0  0
    6.0010    2.1340    0.0000 O   0  0  0  0  0  0  0  0  0  0  0  0
    2.7690    3.0001    0.0000 O   0  0  0  0  0  0  0  0  0  0  0  0
    3.4030   -2.3660    0.0000 O   0  0  0  0  0  0  0  0  0  0  0  0
    5.1350   -2.3660    0.0000 O   0  0  0  0  0  0  0  0  0  0  0  0
    9.4651    1.1340    0.0000 O   0  0  0  0  0  0  0  0  0  0  0  0
    8.5991   -0.3660    0.0000 O   0  0  0  0  0  0  0  0  0  0  0  0
    4.2690    2.1340    0.0000 N   0  0  0  0  0  0  0  0  0  0  0  0
    6.8671    0.6340    0.0000 N   0  0  0  0  0  0  0  0  0  0  0  0
    2.5369    1.1340    0.0000 N   0  0  0  0  0  0  0  0  0  0  0  0
    4.2690    1.1340    0.0000 C   0  0  1  0  0  0  0  0  0  0  0  0
    5.1350    0.6340    0.0000 C   0  0  2  0  0  0  0  0  0  0  0  0
    3.4030    0.6340    0.0000 C   0  0  2  0  0  0  0  0  0  0  0  0
    6.0010    1.1340    0.0000 C   0  0  0  0  0  0  0  0  0  0  0  0
    3.4030   -0.3660    0.0000 C   0  0  0  0  0  0  0  0  0  0  0  0
    4.2690   -0.8660    0.0000 C   0  0  0  0  0  0  0  0  0  0  0  0
    6.8671   -0.3660    0.0000 C   0  0  0  0  0  0  0  0  0  0  0  0
    7.7331    1.1340    0.0000 C   0  0  0  0  0  0  0  0  0  0  0  0
    7.7331   -0.8660    0.0000 C   0  0  0  0  0  0  0  0  0  0  0  0
    3.7690    3.0000    0.0000 C   0  0  0  0  0  0  0  0  0  0  0  0
    4.2690   -1.8660    0.0000 C   0  0  0  0  0  0  0  0  0  0  0  0
    7.7331   -1.8660    0.0000 C   0  0  0  0  0  0  0  0  0  0  0  0
    4.2690    3.8660    0.0000 C   0  0  0  0  0  0  0  0  0  0  0  0
    8.5991    0.6340    0.0000 C   0  0  0  0  0  0  0  0  0  0  0  0
    8.5991   -2.3660    0.0000 C   0  0  0  0  0  0  0  0  0  0  0  0
    6.8671   -2.3660    0.0000 C   0  0  0  0  0  0  0  0  0  0  0  0
    8.5991   -3.3660    0.0000 C   0  0  0  0  0  0  0  0  0  0  0  0
    6.8671   -3.3660    0.0000 C   0  0  0  0  0  0  0  0  0  0  0  0
    7.7331   -3.8660    0.0000 C   0  0  0  0  0  0  0  0  0  0  0  0
    4.8059    1.4440    0.0000 H   0  0  0  0  0  0  0  0  0  0  0  0
    5.6720    0.3240    0.0000 H   0  0  0  0  0  0  0  0  0  0  0  0
    3.4030    1.2540    0.0000 H   0  0  0  0  0  0  0  0  0  0  0  0
    2.8660   -0.6760    0.0000 H   0  0  0  0  0  0  0  0  0  0  0  0
    4.8059    2.4440    0.0000 H   0  0  0  0  0  0  0  0  0  0  0  0
    6.2565   -0.2584    0.0000 H   0  0  0  0  0  0  0  0  0  0  0  0
    6.6550   -0.9486    0.0000 H   0  0  0  0  0  0  0  0  0  0  0  0
    2.0000    0.8240    0.0000 H   0  0  0  0  0  0  0  0  0  0  0  0
    2.2269    1.6709    0.0000 H   0  0  0  0  0  0  0  0  0  0  0  0
    8.1316    1.6089    0.0000 H   0  0  0  0  0  0  0  0  0  0  0  0
    7.3346    1.6089    0.0000 H   0  0  0  0  0  0  0  0  0  0  0  0
    8.3437   -0.9737    0.0000 H   0  0  0  0  0  0  0  0  0  0  0  0
    7.9451   -0.2834    0.0000 H   0  0  0  0  0  0  0  0  0  0  0  0
    4.8059    3.5560    0.0000 H   0  0  0  0  0  0  0  0  0  0  0  0
    4.5790    4.4030    0.0000 H   0  0  0  0  0  0  0  0  0  0  0  0
    3.7320    4.1760    0.0000 H   0  0  0  0  0  0  0  0  0  0  0  0
    9.1360   -2.0560    0.0000 H   0  0  0  0  0  0  0  0  0  0  0  0
    6.3301   -2.0560    0.0000 H   0  0  0  0  0  0  0  0  0  0  0  0
    3.4030   -2.9860    0.0000 H   0  0  0  0  0  0  0  0  0  0  0  0
    9.1360   -3.6760    0.0000 H   0  0  0  0  0  0  0  0  0  0  0  0
    6.3301   -3.6760    0.0000 H   0  0  0  0  0  0  0  0  0  0  0  0
    7.7331   -4.4860    0.0000 H   0  0  0  0  0  0  0  0  0  0  0  0
   10.0021    0.8240    0.0000 H   0  0  0  0  0  0  0  0  0  0  0  0
  1 12  1  0  0  0  0
  1 16  1  0  0  0  0
  2 14  2  0  0  0  0
  3 20  2  0  0  0  0
  4 21  1  0  0  0  0
  4 48  1  0  0  0  0
  5 21  2  0  0  0  0
  6 24  1  0  0  0  0
  6 52  1  0  0  0  0
  7 24  2  0  0  0  0
 11  8  1  1  0  0  0
  8 20  1  0  0  0  0
  8 34  1  0  0  0  0
  9 14  1  0  0  0  0
  9 17  1  0  0  0  0
  9 18  1  0  0  0  0
 13 10  1  6  0  0  0
 10 37  1  0  0  0  0
 10 38  1  0  0  0  0
 11 12  1  0  0  0  0
 11 13  1  0  0  0  0
 11 30  1  0  0  0  0
 12 14  1  6  0  0  0
 12 31  1  0  0  0  0
 13 15  1  0  0  0  0
 13 32  1  0  0  0  0
 15 16  2  0  0  0  0
 15 33  1  0  0  0  0
 16 21  1  0  0  0  0
 17 19  1  0  0  0  0
 17 35  1  0  0  0  0
 17 36  1  0  0  0  0
 18 24  1  0  0  0  0
 18 39  1  0  0  0  0
 18 40  1  0  0  0  0
 19 22  1  0  0  0  0
 19 41  1  0  0  0  0
 19 42  1  0  0  0  0
 20 23  1  0  0  0  0
 22 25  2  0  0  0  0
 22 26  1  0  0  0  0
 23 43  1  0  0  0  0
 23 44  1  0  0  0  0
 23 45  1  0  0  0  0
 25 27  1  0  0  0  0
 25 46  1  0  0  0  0
 26 28  2  0  0  0  0
 26 47  1  0  0  0  0
 27 29  2  0  0  0  0
 27 49  1  0  0  0  0
 28 29  1  0  0  0  0
 28 50  1  0  0  0  0
 29 51  1  0  0  0  0
M  END
> <PUBCHEM_COMPOUND_CID>
506019
> <PUBCHEM_COMPOUND_CANONICALIZED>
1
> <PUBCHEM_CACTVS_COMPLEXITY>
673
> <PUBCHEM_CACTVS_HBOND_ACCEPTOR>
8
> <PUBCHEM_CACTVS_HBOND_DONOR>
4
> <PUBCHEM_CACTVS_ROTATABLE_BOND>
8
> <PUBCHEM_CACTVS_SUBSKEYS>
AAADceB7OAAAAAAAAAAAAAAAAAAAAAAAAAAwQAAAAAAAAAABAAAAHgAQCAAADDzhmAYyCIPABgCIAiHSGAKCCAAgIAAIiIHIAMgLZDqA0TWXMAAmlgCbmYccgIAOAAAAAAAAAAAAAAAAAAAAAAAAAAAAAA==
> <PUBCHEM_IUPAC_OPENEYE_NAME>
(2R,3R,4S)-3-acetamido-4-amino-2-[carboxymethyl(2-phenylethyl)carbamoyl]-3,4-dihydro-2H-pyran-6-carboxylic acid
> <PUBCHEM_IUPAC_CAS_NAME>
(2R,3R,4S)-3-acetamido-4-amino-2-[[carboxymethyl(2-phenylethyl)amino]-oxomethyl]-3,4-dihydro-2H-pyran-6-carboxylic acid
> <PUBCHEM_IUPAC_NAME_MARKUP>
(2<I>R</I>,3<I>R</I>,4<I>S</I>)-3-acetamido-4-amino-2-[carboxymethyl(2-phenylethyl)carbamoyl]-3,4-dihydro-2<I>H</I>-pyran-6-carboxylic acid
> <PUBCHEM_IUPAC_NAME>
(2R,3R,4S)-3-acetamido-4-amino-2-[carboxymethyl(2-phenylethyl)carbamoyl]-3,4-dihydro-2H-pyran-6-carboxylic acid
> <PUBCHEM_IUPAC_SYSTEMATIC_NAME>
(2R,3R,4S)-3-acetamido-4-azanyl-2-[2-hydroxy-2-oxoethyl(2-phenylethyl)carbamoyl]-3,4-dihydro-2H-pyran-6-carboxylic acid
> <PUBCHEM_IUPAC_TRADITIONAL_NAME>
(2R,3R,4S)-3-acetamido-4-amino-2-[carboxymethyl(phenethyl)carbamoyl]-3,4-dihydro-2H-pyran-6-carboxylic acid
> <PUBCHEM_IUPAC_INCHI>
InChI=1S/C19H23N3O7/c1-11(23)21-16-13(20)9-14(19(27)28)29-17(16)18(26)22(10-15(24)25)8-7-12-5-3-2-4-6-12/h2-6,9,13,16-17H,7-8,10,20H2,1H3,(H,21,23)(H,24,25)(H,27,28)/t13-,16+,17+/m0/s1
> <PUBCHEM_IUPAC_INCHIKEY>
JDDODTKYXPWGDJ-IAOVAPTHSA-N
> <PUBCHEM_XLOGP3_AA>
-2.1
> <PUBCHEM_EXACT_MASS>
405.15360008
> <PUBCHEM_MOLECULAR_FORMULA>
C19H23N3O7
> <PUBCHEM_MOLECULAR_WEIGHT>
405.4
> <PUBCHEM_OPENEYE_CAN_SMILES>
CC(=O)NC1C(C=C(OC1C(=O)N(CCC2=CC=CC=C2)CC(=O)O)C(=O)O)N
> <PUBCHEM_OPENEYE_ISO_SMILES>
CC(=O)N[C@@H]1[C@H](C=C(O[C@H]1C(=O)N(CCC2=CC=CC=C2)CC(=O)O)C(=O)O)N
> <PUBCHEM_CACTVS_TPSA>
159
> <PUBCHEM_MONOISOTOPIC_WEIGHT>
405.15360008
> <PUBCHEM_TOTAL_CHARGE>
0
> <PUBCHEM_HEAVY_ATOM_COUNT>
29
> <PUBCHEM_ATOM_DEF_STEREO_COUNT>
3
> <PUBCHEM_ATOM_UDEF_STEREO_COUNT>
0
> <PUBCHEM_BOND_DEF_STEREO_COUNT>
0
> <PUBCHEM_BOND_UDEF_STEREO_COUNT>
0
> <PUBCHEM_ISOTOPIC_ATOM_COUNT>
0
> <PUBCHEM_COMPONENT_COUNT>
1
> <PUBCHEM_CACTVS_TAUTO_COUNT>
-1
> <PUBCHEM_COORDINATE_TYPE>
1
5
255
> <PUBCHEM_BONDANNOTATIONS>
13  10  6
12  14  6
22  25  8
22  26  8
25  27  8
26  28  8
27  29  8
28  29  8
11  8  5
$$$$
