506040
  -OEChem-10302200282D
 47 48  0     1  0  0  0  0  0999 V2000
    6.3301    0.4268    0.0000 O   0  0  0  0  0  0  0  0  0  0  0  0
    4.5981   -1.5732    0.0000 O   0  0  0  0  0  0  0  0  0  0  0  0
    2.8660    1.4268    0.0000 O   0  0  0  0  0  0  0  0  0  0  0  0
    7.1962    2.9268    0.0000 O   0  0  0  0  0  0  0  0  0  0  0  0
    8.0622    1.4268    0.0000 O   0  0  0  0  0  0  0  0  0  0  0  0
    6.3301   -1.5732    0.0000 N   0  0  0  0  0  0  0  0  0  0  0  0
    3.7320   -0.0732    0.0000 N   0  0  0  0  0  0  0  0  0  0  0  0
    6.4347   -2.5677    0.0000 C   0  0  1  0  0  0  0  0  0  0  0  0
    7.2437   -1.1664    0.0000 C   0  0  1  0  0  0  0  0  0  0  0  0
    7.4128   -2.7756    0.0000 C   0  0  0  0  0  0  0  0  0  0  0  0
    7.9128   -1.9096    0.0000 C   0  0  0  0  0  0  0  0  0  0  0  0
    5.4641   -0.0732    0.0000 C   0  0  2  0  0  0  0  0  0  0  0  0
    4.5981    0.4268    0.0000 C   0  0  1  0  0  0  0  0  0  0  0  0
    5.4641   -1.0732    0.0000 C   0  0  0  0  0  0  0  0  0  0  0  0
    4.5981    1.4268    0.0000 C   0  0  2  0  0  0  0  0  0  0  0  0
    5.6915   -3.2368    0.0000 C   0  0  0  0  0  0  0  0  0  0  0  0
    7.4516   -0.1883    0.0000 C   0  0  0  0  0  0  0  0  0  0  0  0
    5.4641    1.9268    0.0000 C   0  0  0  0  0  0  0  0  0  0  0  0
    3.7320    1.9268    0.0000 C   0  0  0  0  0  0  0  0  0  0  0  0
    6.3301    1.4268    0.0000 C   0  0  0  0  0  0  0  0  0  0  0  0
    2.8660    0.4268    0.0000 C   0  0  0  0  0  0  0  0  0  0  0  0
    7.1962    1.9268    0.0000 C   0  0  0  0  0  0  0  0  0  0  0  0
    2.0000   -0.0732    0.0000 C   0  0  0  0  0  0  0  0  0  0  0  0
    5.8558   -2.3455    0.0000 H   0  0  0  0  0  0  0  0  0  0  0  0
    6.7618   -0.7763    0.0000 H   0  0  0  0  0  0  0  0  0  0  0  0
    7.2212   -3.3653    0.0000 H   0  0  0  0  0  0  0  0  0  0  0  0
    7.9792   -3.0278    0.0000 H   0  0  0  0  0  0  0  0  0  0  0  0
    8.4144   -2.2740    0.0000 H   0  0  0  0  0  0  0  0  0  0  0  0
    8.3277   -1.4488    0.0000 H   0  0  0  0  0  0  0  0  0  0  0  0
    6.0010   -0.3832    0.0000 H   0  0  0  0  0  0  0  0  0  0  0  0
    4.5981   -0.1932    0.0000 H   0  0  0  0  0  0  0  0  0  0  0  0
    4.5981    2.0468    0.0000 H   0  0  0  0  0  0  0  0  0  0  0  0
    5.2766   -2.7761    0.0000 H   0  0  0  0  0  0  0  0  0  0  0  0
    5.2308   -3.6517    0.0000 H   0  0  0  0  0  0  0  0  0  0  0  0
    6.1064   -3.6976    0.0000 H   0  0  0  0  0  0  0  0  0  0  0  0
    8.0580   -0.3172    0.0000 H   0  0  0  0  0  0  0  0  0  0  0  0
    7.5805    0.4182    0.0000 H   0  0  0  0  0  0  0  0  0  0  0  0
    6.8451   -0.0594    0.0000 H   0  0  0  0  0  0  0  0  0  0  0  0
    5.4641    2.5468    0.0000 H   0  0  0  0  0  0  0  0  0  0  0  0
    3.7320   -0.6932    0.0000 H   0  0  0  0  0  0  0  0  0  0  0  0
    4.0420    2.4638    0.0000 H   0  0  0  0  0  0  0  0  0  0  0  0
    3.1951    2.2368    0.0000 H   0  0  0  0  0  0  0  0  0  0  0  0
    3.4220    1.3899    0.0000 H   0  0  0  0  0  0  0  0  0  0  0  0
    1.6900    0.4638    0.0000 H   0  0  0  0  0  0  0  0  0  0  0  0
    1.4631   -0.3832    0.0000 H   0  0  0  0  0  0  0  0  0  0  0  0
    2.3100   -0.6101    0.0000 H   0  0  0  0  0  0  0  0  0  0  0  0
    7.7331    3.2368    0.0000 H   0  0  0  0  0  0  0  0  0  0  0  0
  1 12  1  0  0  0  0
  1 20  1  0  0  0  0
  2 14  2  0  0  0  0
  3 21  2  0  0  0  0
  4 22  1  0  0  0  0
  4 47  1  0  0  0  0
  5 22  2  0  0  0  0
  6  8  1  0  0  0  0
  6  9  1  0  0  0  0
  6 14  1  0  0  0  0
 13  7  1  6  0  0  0
  7 21  1  0  0  0  0
  7 40  1  0  0  0  0
  8 10  1  0  0  0  0
  8 16  1  1  0  0  0
  8 24  1  0  0  0  0
  9 11  1  0  0  0  0
  9 17  1  6  0  0  0
  9 25  1  0  0  0  0
 10 11  1  0  0  0  0
 10 26  1  0  0  0  0
 10 27  1  0  0  0  0
 11 28  1  0  0  0  0
 11 29  1  0  0  0  0
 12 13  1  0  0  0  0
 12 14  1  1  0  0  0
 12 30  1  0  0  0  0
 13 15  1  0  0  0  0
 13 31  1  0  0  0  0
 15 18  1  0  0  0  0
 15 19  1  1  0  0  0
 15 32  1  0  0  0  0
 16 33  1  0  0  0  0
 16 34  1  0  0  0  0
 16 35  1  0  0  0  0
 17 36  1  0  0  0  0
 17 37  1  0  0  0  0
 17 38  1  0  0  0  0
 18 20  2  0  0  0  0
 18 39  1  0  0  0  0
 19 41  1  0  0  0  0
 19 42  1  0  0  0  0
 19 43  1  0  0  0  0
 20 22  1  0  0  0  0
 21 23  1  0  0  0  0
 23 44  1  0  0  0  0
 23 45  1  0  0  0  0
 23 46  1  0  0  0  0
M  END
> <PUBCHEM_COMPOUND_CID>
506040
> <PUBCHEM_COMPOUND_CANONICALIZED>
1
> <PUBCHEM_CACTVS_COMPLEXITY>
535
> <PUBCHEM_CACTVS_HBOND_ACCEPTOR>
5
> <PUBCHEM_CACTVS_HBOND_DONOR>
2
> <PUBCHEM_CACTVS_ROTATABLE_BOND>
3
> <PUBCHEM_CACTVS_SUBSKEYS>
AAADceB7OAAAAAAAAAAAAAAAAAAAAWAAAAAgAAAAAAAAAAAAAAAAHgAQCAAADTzhgAYCCAPABgCIACHSGAIACAAgIAAACIFIAEgDBBoAwAQHEAAElgCbEYMYAAAMAAAAAAAAAAAAAAAAAAAAAAAAAAAAAA==
> <PUBCHEM_IUPAC_OPENEYE_NAME>
(2R,3R,4S)-3-acetamido-2-[(2R,5R)-2,5-dimethylpyrrolidine-1-carbonyl]-4-methyl-3,4-dihydro-2H-pyran-6-carboxylic acid
> <PUBCHEM_IUPAC_CAS_NAME>
(2R,3R,4S)-3-acetamido-2-[[(2R,5R)-2,5-dimethyl-1-pyrrolidinyl]-oxomethyl]-4-methyl-3,4-dihydro-2H-pyran-6-carboxylic acid
> <PUBCHEM_IUPAC_NAME_MARKUP>
(2<I>R</I>,3<I>R</I>,4<I>S</I>)-3-acetamido-2-[(2<I>R</I>,5<I>R</I>)-2,5-dimethylpyrrolidine-1-carbonyl]-4-methyl-3,4-dihydro-2<I>H</I>-pyran-6-carboxylic acid
> <PUBCHEM_IUPAC_NAME>
(2R,3R,4S)-3-acetamido-2-[(2R,5R)-2,5-dimethylpyrrolidine-1-carbonyl]-4-methyl-3,4-dihydro-2H-pyran-6-carboxylic acid
> <PUBCHEM_IUPAC_SYSTEMATIC_NAME>
(2R,3R,4S)-3-acetamido-2-[(2R,5R)-2,5-dimethylpyrrolidin-1-yl]carbonyl-4-methyl-3,4-dihydro-2H-pyran-6-carboxylic acid
> <PUBCHEM_IUPAC_TRADITIONAL_NAME>
(2R,3R,4S)-3-acetamido-2-[(2R,5R)-2,5-dimethylpyrrolidine-1-carbonyl]-4-methyl-3,4-dihydro-2H-pyran-6-carboxylic acid
> <PUBCHEM_IUPAC_INCHI>
InChI=1S/C16H24N2O5/c1-8-7-12(16(21)22)23-14(13(8)17-11(4)19)15(20)18-9(2)5-6-10(18)3/h7-10,13-14H,5-6H2,1-4H3,(H,17,19)(H,21,22)/t8-,9+,10+,13+,14+/m0/s1
> <PUBCHEM_IUPAC_INCHIKEY>
PBIGXIFVURGLJT-HWJSUCPMSA-N
> <PUBCHEM_XLOGP3_AA>
1.7
> <PUBCHEM_EXACT_MASS>
324.16852187
> <PUBCHEM_MOLECULAR_FORMULA>
C16H24N2O5
> <PUBCHEM_MOLECULAR_WEIGHT>
324.37
> <PUBCHEM_OPENEYE_CAN_SMILES>
CC1CCC(N1C(=O)C2C(C(C=C(O2)C(=O)O)C)NC(=O)C)C
> <PUBCHEM_OPENEYE_ISO_SMILES>
C[C@@H]1CC[C@H](N1C(=O)[C@H]2[C@@H]([C@H](C=C(O2)C(=O)O)C)NC(=O)C)C
> <PUBCHEM_CACTVS_TPSA>
95.9
> <PUBCHEM_MONOISOTOPIC_WEIGHT>
324.16852187
> <PUBCHEM_TOTAL_CHARGE>
0
> <PUBCHEM_HEAVY_ATOM_COUNT>
23
> <PUBCHEM_ATOM_DEF_STEREO_COUNT>
5
> <PUBCHEM_ATOM_UDEF_STEREO_COUNT>
0
> <PUBCHEM_BOND_DEF_STEREO_COUNT>
0
> <PUBCHEM_BOND_UDEF_STEREO_COUNT>
0
> <PUBCHEM_ISOTOPIC_ATOM_COUNT>
0
> <PUBCHEM_COMPONENT_COUNT>
1
> <PUBCHEM_CACTVS_TAUTO_COUNT>
-1
> <PUBCHEM_COORDINATE_TYPE>
1
5
255
> <PUBCHEM_BONDANNOTATIONS>
12  14  5
15  19  5
13  7  6
8  16  5
9  17  6
$$$$
