506118
  -OEChem-10302200282D
 49 50  0     1  0  0  0  0  0999 V2000
    8.0622   -2.8060    0.0000 O   0  0  0  0  0  0  0  0  0  0  0  0
    6.3301   -2.8060    0.0000 O   0  0  0  0  0  0  0  0  0  0  0  0
    8.6962    2.5600    0.0000 O   0  0  0  0  0  0  0  0  0  0  0  0
    5.4641    0.6940    0.0000 N   0  0  0  0  0  0  0  0  0  0  0  0
    7.1962    1.6940    0.0000 N   0  0  0  0  0  0  0  0  0  0  0  0
    8.9282    0.6940    0.0000 N   0  0  0  0  0  0  0  0  0  0  0  0
    6.3301    0.1940    0.0000 C   0  0  1  0  0  0  0  0  0  0  0  0
    7.1962    0.6940    0.0000 C   0  0  1  0  0  0  0  0  0  0  0  0
    3.7320    1.6940    0.0000 C   0  0  0  0  0  0  0  0  0  0  0  0
    5.4641    1.6940    0.0000 C   0  0  0  0  0  0  0  0  0  0  0  0
    4.5981    0.1940    0.0000 C   0  0  0  0  0  0  0  0  0  0  0  0
    4.5981    2.1940    0.0000 C   0  0  0  0  0  0  0  0  0  0  0  0
    3.7320    0.6940    0.0000 C   0  0  0  0  0  0  0  0  0  0  0  0
    8.0622    0.1940    0.0000 C   0  0  2  0  0  0  0  0  0  0  0  0
    6.3301   -0.8060    0.0000 C   0  0  0  0  0  0  0  0  0  0  0  0
    8.0622   -0.8060    0.0000 C   0  0  0  0  0  0  0  0  0  0  0  0
    2.8660    2.1940    0.0000 C   0  0  0  0  0  0  0  0  0  0  0  0
    7.1962   -1.3060    0.0000 C   0  0  0  0  0  0  0  0  0  0  0  0
    2.0000    1.6940    0.0000 C   0  0  0  0  0  0  0  0  0  0  0  0
    7.1962   -2.3060    0.0000 C   0  0  0  0  0  0  0  0  0  0  0  0
    7.6962    2.5600    0.0000 C   0  0  0  0  0  0  0  0  0  0  0  0
    7.1962    3.4260    0.0000 C   0  0  0  0  0  0  0  0  0  0  0  0
    5.7932   -0.1160    0.0000 H   0  0  0  0  0  0  0  0  0  0  0  0
    6.6592    1.0040    0.0000 H   0  0  0  0  0  0  0  0  0  0  0  0
    3.7320    2.3140    0.0000 H   0  0  0  0  0  0  0  0  0  0  0  0
    6.0747    1.5863    0.0000 H   0  0  0  0  0  0  0  0  0  0  0  0
    5.6762    2.2766    0.0000 H   0  0  0  0  0  0  0  0  0  0  0  0
    4.1996   -0.2810    0.0000 H   0  0  0  0  0  0  0  0  0  0  0  0
    4.9966   -0.2810    0.0000 H   0  0  0  0  0  0  0  0  0  0  0  0
    4.9966    2.6689    0.0000 H   0  0  0  0  0  0  0  0  0  0  0  0
    4.1996    2.6689    0.0000 H   0  0  0  0  0  0  0  0  0  0  0  0
    3.1215    0.8016    0.0000 H   0  0  0  0  0  0  0  0  0  0  0  0
    3.5200    0.1114    0.0000 H   0  0  0  0  0  0  0  0  0  0  0  0
    8.0622    0.8140    0.0000 H   0  0  0  0  0  0  0  0  0  0  0  0
    5.7932   -1.1160    0.0000 H   0  0  0  0  0  0  0  0  0  0  0  0
    8.2742   -1.3886    0.0000 H   0  0  0  0  0  0  0  0  0  0  0  0
    8.6728   -0.6984    0.0000 H   0  0  0  0  0  0  0  0  0  0  0  0
    3.2646    2.6689    0.0000 H   0  0  0  0  0  0  0  0  0  0  0  0
    2.4675    2.6689    0.0000 H   0  0  0  0  0  0  0  0  0  0  0  0
    6.6592    2.0040    0.0000 H   0  0  0  0  0  0  0  0  0  0  0  0
    9.4651    0.3840    0.0000 H   0  0  0  0  0  0  0  0  0  0  0  0
    9.2382    1.2309    0.0000 H   0  0  0  0  0  0  0  0  0  0  0  0
    1.6900    2.2309    0.0000 H   0  0  0  0  0  0  0  0  0  0  0  0
    1.4631    1.3840    0.0000 H   0  0  0  0  0  0  0  0  0  0  0  0
    2.3100    1.1570    0.0000 H   0  0  0  0  0  0  0  0  0  0  0  0
    7.7331    3.7360    0.0000 H   0  0  0  0  0  0  0  0  0  0  0  0
    6.8862    3.9630    0.0000 H   0  0  0  0  0  0  0  0  0  0  0  0
    6.6592    3.1160    0.0000 H   0  0  0  0  0  0  0  0  0  0  0  0
    8.0622   -3.4260    0.0000 H   0  0  0  0  0  0  0  0  0  0  0  0
  1 20  1  0  0  0  0
  1 49  1  0  0  0  0
  2 20  2  0  0  0  0
  3 21  2  0  0  0  0
  7  4  1  1  0  0  0
  4 10  1  0  0  0  0
  4 11  1  0  0  0  0
  8  5  1  6  0  0  0
  5 21  1  0  0  0  0
  5 40  1  0  0  0  0
 14  6  1  1  0  0  0
  6 41  1  0  0  0  0
  6 42  1  0  0  0  0
  7  8  1  0  0  0  0
  7 15  1  0  0  0  0
  7 23  1  0  0  0  0
  8 14  1  0  0  0  0
  8 24  1  0  0  0  0
  9 12  1  0  0  0  0
  9 13  1  0  0  0  0
  9 17  1  0  0  0  0
  9 25  1  0  0  0  0
 10 12  1  0  0  0  0
 10 26  1  0  0  0  0
 10 27  1  0  0  0  0
 11 13  1  0  0  0  0
 11 28  1  0  0  0  0
 11 29  1  0  0  0  0
 12 30  1  0  0  0  0
 12 31  1  0  0  0  0
 13 32  1  0  0  0  0
 13 33  1  0  0  0  0
 14 16  1  0  0  0  0
 14 34  1  0  0  0  0
 15 18  2  0  0  0  0
 15 35  1  0  0  0  0
 16 18  1  0  0  0  0
 16 36  1  0  0  0  0
 16 37  1  0  0  0  0
 17 19  1  0  0  0  0
 17 38  1  0  0  0  0
 17 39  1  0  0  0  0
 18 20  1  0  0  0  0
 19 43  1  0  0  0  0
 19 44  1  0  0  0  0
 19 45  1  0  0  0  0
 21 22  1  0  0  0  0
 22 46  1  0  0  0  0
 22 47  1  0  0  0  0
 22 48  1  0  0  0  0
M  END
> <PUBCHEM_COMPOUND_CID>
506118
> <PUBCHEM_COMPOUND_CANONICALIZED>
1
> <PUBCHEM_CACTVS_COMPLEXITY>
456
> <PUBCHEM_CACTVS_HBOND_ACCEPTOR>
5
> <PUBCHEM_CACTVS_HBOND_DONOR>
3
> <PUBCHEM_CACTVS_ROTATABLE_BOND>
4
> <PUBCHEM_CACTVS_SUBSKEYS>
AAADceB7MAAAAAAAAAAAAAAAAAAAAAAAAAAsQAAAAAAAAAAAAAAAHgAQCAAADSjBgAQCCAPAAgCIAiHSGACAAAAgAAAACIEIAEgARBIAwQAUUAAElgCIEYO82SOaAAAAAAAAAAAAAAAAAAAAAAAAAAAAAA==
> <PUBCHEM_IUPAC_OPENEYE_NAME>
(3R,4R,5S)-4-acetamido-5-amino-3-(4-ethyl-1-piperidyl)cyclohexene-1-carboxylic acid
> <PUBCHEM_IUPAC_CAS_NAME>
(3R,4R,5S)-4-acetamido-5-amino-3-(4-ethyl-1-piperidinyl)-1-cyclohexenecarboxylic acid
> <PUBCHEM_IUPAC_NAME_MARKUP>
(3<I>R</I>,4<I>R</I>,5<I>S</I>)-4-acetamido-5-amino-3-(4-ethylpiperidin-1-yl)cyclohexene-1-carboxylic acid
> <PUBCHEM_IUPAC_NAME>
(3R,4R,5S)-4-acetamido-5-amino-3-(4-ethylpiperidin-1-yl)cyclohexene-1-carboxylic acid
> <PUBCHEM_IUPAC_SYSTEMATIC_NAME>
(3R,4R,5S)-4-acetamido-5-azanyl-3-(4-ethylpiperidin-1-yl)cyclohexene-1-carboxylic acid
> <PUBCHEM_IUPAC_TRADITIONAL_NAME>
(3R,4R,5S)-4-acetamido-5-amino-3-(4-ethylpiperidino)cyclohexene-1-carboxylic acid
> <PUBCHEM_IUPAC_INCHI>
InChI=1S/C16H27N3O3/c1-3-11-4-6-19(7-5-11)14-9-12(16(21)22)8-13(17)15(14)18-10(2)20/h9,11,13-15H,3-8,17H2,1-2H3,(H,18,20)(H,21,22)/t13-,14+,15+/m0/s1
> <PUBCHEM_IUPAC_INCHIKEY>
ZMKUNMGXTLXQDD-RRFJBIMHSA-N
> <PUBCHEM_XLOGP3_AA>
-1.7
> <PUBCHEM_EXACT_MASS>
309.20524173
> <PUBCHEM_MOLECULAR_FORMULA>
C16H27N3O3
> <PUBCHEM_MOLECULAR_WEIGHT>
309.40
> <PUBCHEM_OPENEYE_CAN_SMILES>
CCC1CCN(CC1)C2C=C(CC(C2NC(=O)C)N)C(=O)O
> <PUBCHEM_OPENEYE_ISO_SMILES>
CCC1CCN(CC1)[C@@H]2C=C(C[C@@H]([C@H]2NC(=O)C)N)C(=O)O
> <PUBCHEM_CACTVS_TPSA>
95.7
> <PUBCHEM_MONOISOTOPIC_WEIGHT>
309.20524173
> <PUBCHEM_TOTAL_CHARGE>
0
> <PUBCHEM_HEAVY_ATOM_COUNT>
22
> <PUBCHEM_ATOM_DEF_STEREO_COUNT>
3
> <PUBCHEM_ATOM_UDEF_STEREO_COUNT>
0
> <PUBCHEM_BOND_DEF_STEREO_COUNT>
0
> <PUBCHEM_BOND_UDEF_STEREO_COUNT>
0
> <PUBCHEM_ISOTOPIC_ATOM_COUNT>
0
> <PUBCHEM_COMPONENT_COUNT>
1
> <PUBCHEM_CACTVS_TAUTO_COUNT>
-1
> <PUBCHEM_COORDINATE_TYPE>
1
5
255
> <PUBCHEM_BONDANNOTATIONS>
7  4  5
8  5  6
14  6  5
$$$$
