506120
  -OEChem-10302200282D
 47 49  0     1  0  0  0  0  0999 V2000
    5.0000    3.3037    0.0000 O   0  0  0  0  0  0  0  0  0  0  0  0
    6.5000    2.4377    0.0000 O   0  0  0  0  0  0  0  0  0  0  0  0
    2.0000   -0.1604    0.0000 O   0  0  0  0  0  0  0  0  0  0  0  0
    5.5000   -1.0264    0.0000 N   0  0  0  0  0  0  0  0  0  0  0  0
    3.5000   -1.0264    0.0000 N   0  0  0  0  0  0  0  0  0  0  0  0
    2.6340    1.2057    0.0000 N   0  0  0  0  0  0  0  0  0  0  0  0
    6.2366   -2.0090    0.0000 C   0  0  3  0  0  0  0  0  0  0  0  0
    5.9778   -2.9750    0.0000 C   0  0  3  0  0  0  0  0  0  0  0  0
    7.6356   -2.5179    0.0000 C   0  0  0  0  0  0  0  0  0  0  0  0
    7.3767   -3.4838    0.0000 C   0  0  0  0  0  0  0  0  0  0  0  0
    5.0000   -0.1604    0.0000 C   0  0  1  0  0  0  0  0  0  0  0  0
    4.2034   -2.3202    0.0000 C   0  0  0  0  0  0  0  0  0  0  0  0
    4.7568   -3.8406    0.0000 C   0  0  0  0  0  0  0  0  0  0  0  0
    3.9277   -3.2814    0.0000 C   0  0  0  0  0  0  0  0  0  0  0  0
    4.0000   -0.1604    0.0000 C   0  0  1  0  0  0  0  0  0  0  0  0
    3.5000    0.7056    0.0000 C   0  0  2  0  0  0  0  0  0  0  0  0
    5.5000    0.7056    0.0000 C   0  0  0  0  0  0  0  0  0  0  0  0
    4.0000    1.5716    0.0000 C   0  0  0  0  0  0  0  0  0  0  0  0
    5.0000    1.5716    0.0000 C   0  0  0  0  0  0  0  0  0  0  0  0
    5.5000    2.4377    0.0000 C   0  0  0  0  0  0  0  0  0  0  0  0
    2.5000   -1.0264    0.0000 C   0  0  0  0  0  0  0  0  0  0  0  0
    2.0000   -1.8925    0.0000 C   0  0  0  0  0  0  0  0  0  0  0  0
    6.6060   -1.5111    0.0000 H   0  0  0  0  0  0  0  0  0  0  0  0
    6.0606   -3.5894    0.0000 H   0  0  0  0  0  0  0  0  0  0  0  0
    8.2295   -2.6956    0.0000 H   0  0  0  0  0  0  0  0  0  0  0  0
    7.8305   -1.9293    0.0000 H   0  0  0  0  0  0  0  0  0  0  0  0
    7.1818   -4.0724    0.0000 H   0  0  0  0  0  0  0  0  0  0  0  0
    7.9707   -3.6616    0.0000 H   0  0  0  0  0  0  0  0  0  0  0  0
    5.8500   -0.1604    0.0000 H   0  0  0  0  0  0  0  0  0  0  0  0
    4.1983   -1.7002    0.0000 H   0  0  0  0  0  0  0  0  0  0  0  0
    3.5891   -2.2364    0.0000 H   0  0  0  0  0  0  0  0  0  0  0  0
    4.3509   -4.3093    0.0000 H   0  0  0  0  0  0  0  0  0  0  0  0
    5.1734   -4.2998    0.0000 H   0  0  0  0  0  0  0  0  0  0  0  0
    3.3529   -3.0492    0.0000 H   0  0  0  0  0  0  0  0  0  0  0  0
    3.6367   -3.8289    0.0000 H   0  0  0  0  0  0  0  0  0  0  0  0
    4.3100   -0.6973    0.0000 H   0  0  0  0  0  0  0  0  0  0  0  0
    3.0616    0.2672    0.0000 H   0  0  0  0  0  0  0  0  0  0  0  0
    6.1200    0.7056    0.0000 H   0  0  0  0  0  0  0  0  0  0  0  0
    4.1077    2.1822    0.0000 H   0  0  0  0  0  0  0  0  0  0  0  0
    3.4174    1.7837    0.0000 H   0  0  0  0  0  0  0  0  0  0  0  0
    3.8100   -1.5634    0.0000 H   0  0  0  0  0  0  0  0  0  0  0  0
    2.6340    1.8256    0.0000 H   0  0  0  0  0  0  0  0  0  0  0  0
    2.0970    0.8957    0.0000 H   0  0  0  0  0  0  0  0  0  0  0  0
    1.4631   -1.5825    0.0000 H   0  0  0  0  0  0  0  0  0  0  0  0
    1.6900   -2.4294    0.0000 H   0  0  0  0  0  0  0  0  0  0  0  0
    2.5369   -2.2025    0.0000 H   0  0  0  0  0  0  0  0  0  0  0  0
    5.3100    3.8406    0.0000 H   0  0  0  0  0  0  0  0  0  0  0  0
  1 20  1  0  0  0  0
  1 47  1  0  0  0  0
  2 20  2  0  0  0  0
  3 21  2  0  0  0  0
  4  7  1  0  0  0  0
  4  8  1  0  0  0  0
  4 11  1  0  0  0  0
 15  5  1  6  0  0  0
  5 21  1  0  0  0  0
  5 41  1  0  0  0  0
 16  6  1  1  0  0  0
  6 42  1  0  0  0  0
  6 43  1  0  0  0  0
  7  9  1  0  0  0  0
  7 12  1  0  0  0  0
  7 23  1  0  0  0  0
  8 10  1  0  0  0  0
  8 13  1  0  0  0  0
  8 24  1  0  0  0  0
  9 10  1  0  0  0  0
  9 25  1  0  0  0  0
  9 26  1  0  0  0  0
 10 27  1  0  0  0  0
 10 28  1  0  0  0  0
 11 15  1  0  0  0  0
 11 17  1  0  0  0  0
 11 29  1  6  0  0  0
 12 14  1  0  0  0  0
 12 30  1  0  0  0  0
 12 31  1  0  0  0  0
 13 14  1  0  0  0  0
 13 32  1  0  0  0  0
 13 33  1  0  0  0  0
 14 34  1  0  0  0  0
 14 35  1  0  0  0  0
 15 16  1  0  0  0  0
 15 36  1  0  0  0  0
 16 18  1  0  0  0  0
 16 37  1  0  0  0  0
 17 19  2  0  0  0  0
 17 38  1  0  0  0  0
 18 19  1  0  0  0  0
 18 39  1  0  0  0  0
 18 40  1  0  0  0  0
 19 20  1  0  0  0  0
 21 22  1  0  0  0  0
 22 44  1  0  0  0  0
 22 45  1  0  0  0  0
 22 46  1  0  0  0  0
M  END
> <PUBCHEM_COMPOUND_CID>
506120
> <PUBCHEM_COMPOUND_CANONICALIZED>
1
> <PUBCHEM_CACTVS_COMPLEXITY>
493
> <PUBCHEM_CACTVS_HBOND_ACCEPTOR>
5
> <PUBCHEM_CACTVS_HBOND_DONOR>
3
> <PUBCHEM_CACTVS_ROTATABLE_BOND>
3
> <PUBCHEM_CACTVS_SUBSKEYS>
AAADceB7MAAAAAAAAAAAAAAAAAAAAWAAAAAsQAAABgAAAAAAAAAAHgAQCAAADCjBgAQCCAPAAgCIAiHSGACAAAAgAAAACIEIAEgARBIAwQAUUAAElgCIEYO82SOQAAAAAAAAAAAAAAAAAAAAAAAAAAAAAA==
> <PUBCHEM_IUPAC_OPENEYE_NAME>
(3R,4R,5S)-4-acetamido-5-amino-3-(8-azabicyclo[3.2.1]octan-8-yl)cyclohexene-1-carboxylic acid
> <PUBCHEM_IUPAC_CAS_NAME>
(3R,4R,5S)-4-acetamido-5-amino-3-(8-azabicyclo[3.2.1]octan-8-yl)-1-cyclohexenecarboxylic acid
> <PUBCHEM_IUPAC_NAME_MARKUP>
(3<I>R</I>,4<I>R</I>,5<I>S</I>)-4-acetamido-5-amino-3-(8-azabicyclo[3.2.1]octan-8-yl)cyclohexene-1-carboxylic acid
> <PUBCHEM_IUPAC_NAME>
(3R,4R,5S)-4-acetamido-5-amino-3-(8-azabicyclo[3.2.1]octan-8-yl)cyclohexene-1-carboxylic acid
> <PUBCHEM_IUPAC_SYSTEMATIC_NAME>
(3R,4R,5S)-4-acetamido-3-(8-azabicyclo[3.2.1]octan-8-yl)-5-azanyl-cyclohexene-1-carboxylic acid
> <PUBCHEM_IUPAC_TRADITIONAL_NAME>
(3R,4R,5S)-4-acetamido-5-amino-3-(8-azabicyclo[3.2.1]octan-8-yl)cyclohexene-1-carboxylic acid
> <PUBCHEM_IUPAC_INCHI>
InChI=1S/C16H25N3O3/c1-9(20)18-15-13(17)7-10(16(21)22)8-14(15)19-11-3-2-4-12(19)6-5-11/h8,11-15H,2-7,17H2,1H3,(H,18,20)(H,21,22)/t11?,12?,13-,14+,15+/m0/s1
> <PUBCHEM_IUPAC_INCHIKEY>
CBIVFZXLBGGJIX-MMCPYJTDSA-N
> <PUBCHEM_XLOGP3_AA>
-2.1
> <PUBCHEM_EXACT_MASS>
307.18959167
> <PUBCHEM_MOLECULAR_FORMULA>
C16H25N3O3
> <PUBCHEM_MOLECULAR_WEIGHT>
307.39
> <PUBCHEM_OPENEYE_CAN_SMILES>
CC(=O)NC1C(CC(=CC1N2C3CCCC2CC3)C(=O)O)N
> <PUBCHEM_OPENEYE_ISO_SMILES>
CC(=O)N[C@@H]1[C@H](CC(=C[C@H]1N2C3CCCC2CC3)C(=O)O)N
> <PUBCHEM_CACTVS_TPSA>
95.7
> <PUBCHEM_MONOISOTOPIC_WEIGHT>
307.18959167
> <PUBCHEM_TOTAL_CHARGE>
0
> <PUBCHEM_HEAVY_ATOM_COUNT>
22
> <PUBCHEM_ATOM_DEF_STEREO_COUNT>
3
> <PUBCHEM_ATOM_UDEF_STEREO_COUNT>
2
> <PUBCHEM_BOND_DEF_STEREO_COUNT>
0
> <PUBCHEM_BOND_UDEF_STEREO_COUNT>
0
> <PUBCHEM_ISOTOPIC_ATOM_COUNT>
0
> <PUBCHEM_COMPONENT_COUNT>
1
> <PUBCHEM_CACTVS_TAUTO_COUNT>
-1
> <PUBCHEM_COORDINATE_TYPE>
1
5
255
> <PUBCHEM_BONDANNOTATIONS>
11  29  6
15  5  6
16  6  5
7  12  3
8  13  3
$$$$
