506149
  -OEChem-10302200282D
 48 51  0     1  0  0  0  0  0999 V2000
    4.8680   -0.0080    0.0000 O   0  0  0  0  0  0  0  0  0  0  0  0
    2.6166    1.4397    0.0000 O   0  0  0  0  0  0  0  0  0  0  0  0
    9.3259   -1.4060    0.0000 O   0  0  0  0  0  0  0  0  0  0  0  0
    5.7816   -1.6012    0.0000 O   0  0  0  0  0  0  0  0  0  0  0  0
    6.6476   -0.1012    0.0000 N   0  0  0  0  0  0  0  0  0  0  0  0
    7.5136   -1.6012    0.0000 N   0  0  0  0  0  0  0  0  0  0  0  0
    5.7816    0.3988    0.0000 C   0  0  3  0  0  0  0  0  0  0  0  0
    5.6771    1.3933    0.0000 C   0  0  0  0  0  0  0  0  0  0  0  0
    4.6989    1.6012    0.0000 C   0  0  0  0  0  0  0  0  0  0  0  0
    4.1989    0.7352    0.0000 C   0  0  1  0  0  0  0  0  0  0  0  0
    3.2044    0.6307    0.0000 C   0  0  0  0  0  0  0  0  0  0  0  0
    7.5136    0.3988    0.0000 C   0  0  0  0  0  0  0  0  0  0  0  0
    6.6476   -1.1012    0.0000 C   0  0  0  0  0  0  0  0  0  0  0  0
    8.3797   -0.1012    0.0000 C   0  0  0  0  0  0  0  0  0  0  0  0
    8.3797   -1.1012    0.0000 C   0  0  0  0  0  0  0  0  0  0  0  0
    9.3259    0.2035    0.0000 C   0  0  0  0  0  0  0  0  0  0  0  0
    9.9095   -0.6012    0.0000 C   0  0  0  0  0  0  0  0  0  0  0  0
   10.9095   -0.6012    0.0000 C   0  0  0  0  0  0  0  0  0  0  0  0
   12.9095   -0.6012    0.0000 C   0  0  0  0  0  0  0  0  0  0  0  0
   13.9095   -0.6012    0.0000 C   0  0  0  0  0  0  0  0  0  0  0  0
   11.4095    0.2648    0.0000 C   0  0  0  0  0  0  0  0  0  0  0  0
   11.4095   -1.4672    0.0000 C   0  0  0  0  0  0  0  0  0  0  0  0
   12.4095    0.2648    0.0000 C   0  0  0  0  0  0  0  0  0  0  0  0
   12.4095   -1.4672    0.0000 C   0  0  0  0  0  0  0  0  0  0  0  0
   14.4095   -1.4672    0.0000 C   0  0  0  0  0  0  0  0  0  0  0  0
   15.4095   -1.4672    0.0000 C   0  0  0  0  0  0  0  0  0  0  0  0
    6.3016    0.7365    0.0000 H   0  0  0  0  0  0  0  0  0  0  0  0
    6.2971    1.3933    0.0000 H   0  0  0  0  0  0  0  0  0  0  0  0
    5.7419    2.0099    0.0000 H   0  0  0  0  0  0  0  0  0  0  0  0
    4.8905    2.1909    0.0000 H   0  0  0  0  0  0  0  0  0  0  0  0
    4.1325    1.8534    0.0000 H   0  0  0  0  0  0  0  0  0  0  0  0
    3.9767    0.1564    0.0000 H   0  0  0  0  0  0  0  0  0  0  0  0
    2.6471    0.3589    0.0000 H   0  0  0  0  0  0  0  0  0  0  0  0
    3.3753    0.0347    0.0000 H   0  0  0  0  0  0  0  0  0  0  0  0
    7.5136    1.0188    0.0000 H   0  0  0  0  0  0  0  0  0  0  0  0
    9.5185    0.7928    0.0000 H   0  0  0  0  0  0  0  0  0  0  0  0
    2.0000    1.3749    0.0000 H   0  0  0  0  0  0  0  0  0  0  0  0
   14.4921   -0.3892    0.0000 H   0  0  0  0  0  0  0  0  0  0  0  0
   13.8018    0.0094    0.0000 H   0  0  0  0  0  0  0  0  0  0  0  0
   11.0995    0.8017    0.0000 H   0  0  0  0  0  0  0  0  0  0  0  0
   11.0995   -2.0042    0.0000 H   0  0  0  0  0  0  0  0  0  0  0  0
   12.7195    0.8017    0.0000 H   0  0  0  0  0  0  0  0  0  0  0  0
   12.7195   -2.0042    0.0000 H   0  0  0  0  0  0  0  0  0  0  0  0
   13.8269   -1.6793    0.0000 H   0  0  0  0  0  0  0  0  0  0  0  0
   14.5172   -2.0778    0.0000 H   0  0  0  0  0  0  0  0  0  0  0  0
   15.4095   -2.0872    0.0000 H   0  0  0  0  0  0  0  0  0  0  0  0
   16.0295   -1.4672    0.0000 H   0  0  0  0  0  0  0  0  0  0  0  0
   15.4095   -0.8472    0.0000 H   0  0  0  0  0  0  0  0  0  0  0  0
  1  7  1  0  0  0  0
  1 10  1  0  0  0  0
  2 11  1  0  0  0  0
  2 37  1  0  0  0  0
  3 15  1  0  0  0  0
  3 17  1  0  0  0  0
  4 13  2  0  0  0  0
  5  7  1  0  0  0  0
  5 12  1  0  0  0  0
  5 13  1  0  0  0  0
  6 13  1  0  0  0  0
  6 15  2  0  0  0  0
  7  8  1  0  0  0  0
  7 27  1  0  0  0  0
  8  9  1  0  0  0  0
  8 28  1  0  0  0  0
  8 29  1  0  0  0  0
  9 10  1  0  0  0  0
  9 30  1  0  0  0  0
  9 31  1  0  0  0  0
 10 11  1  6  0  0  0
 10 32  1  0  0  0  0
 11 33  1  0  0  0  0
 11 34  1  0  0  0  0
 12 14  2  0  0  0  0
 12 35  1  0  0  0  0
 14 15  1  0  0  0  0
 14 16  1  0  0  0  0
 16 17  2  0  0  0  0
 16 36  1  0  0  0  0
 17 18  1  0  0  0  0
 18 21  2  0  0  0  0
 18 22  1  0  0  0  0
 19 20  1  0  0  0  0
 19 23  2  0  0  0  0
 19 24  1  0  0  0  0
 20 25  1  0  0  0  0
 20 38  1  0  0  0  0
 20 39  1  0  0  0  0
 21 23  1  0  0  0  0
 21 40  1  0  0  0  0
 22 24  2  0  0  0  0
 22 41  1  0  0  0  0
 23 42  1  0  0  0  0
 24 43  1  0  0  0  0
 25 26  1  0  0  0  0
 25 44  1  0  0  0  0
 25 45  1  0  0  0  0
 26 46  1  0  0  0  0
 26 47  1  0  0  0  0
 26 48  1  0  0  0  0
M  END
> <PUBCHEM_COMPOUND_CID>
506149
> <PUBCHEM_COMPOUND_CANONICALIZED>
1
> <PUBCHEM_CACTVS_COMPLEXITY>
646
> <PUBCHEM_CACTVS_HBOND_ACCEPTOR>
4
> <PUBCHEM_CACTVS_HBOND_DONOR>
1
> <PUBCHEM_CACTVS_ROTATABLE_BOND>
5
> <PUBCHEM_CACTVS_SUBSKEYS>
AAADceB7OAAAAAAAAAAAAAAAAAAAASIAAAAwQAAAAAAAAEABAAAAHgAACAAADBThmAYzAIMABgCoAiBmVAACCAAgIAAIiAAoCJiJNiKAsRiOcAAkxgMLqAew8PIOQAAAAAAAAACAAAAAAAAAAAAAAAAAAA==
> <PUBCHEM_IUPAC_OPENEYE_NAME>
3-[(5S)-5-(hydroxymethyl)tetrahydrofuran-2-yl]-6-(4-propylphenyl)furo[2,3-d]pyrimidin-2-one
> <PUBCHEM_IUPAC_CAS_NAME>
3-[(5S)-5-(hydroxymethyl)-2-oxolanyl]-6-(4-propylphenyl)-2-furo[2,3-d]pyrimidinone
> <PUBCHEM_IUPAC_NAME_MARKUP>
3-[(5<I>S</I>)-5-(hydroxymethyl)oxolan-2-yl]-6-(4-propylphenyl)furo[2,3-d]pyrimidin-2-one
> <PUBCHEM_IUPAC_NAME>
3-[(5S)-5-(hydroxymethyl)oxolan-2-yl]-6-(4-propylphenyl)furo[2,3-d]pyrimidin-2-one
> <PUBCHEM_IUPAC_SYSTEMATIC_NAME>
3-[(5S)-5-(hydroxymethyl)oxolan-2-yl]-6-(4-propylphenyl)furo[2,3-d]pyrimidin-2-one
> <PUBCHEM_IUPAC_TRADITIONAL_NAME>
3-[(5S)-5-methyloltetrahydrofuran-2-yl]-6-(4-propylphenyl)furo[2,3-d]pyrimidin-2-one
> <PUBCHEM_IUPAC_INCHI>
InChI=1S/C20H22N2O4/c1-2-3-13-4-6-14(7-5-13)17-10-15-11-22(20(24)21-19(15)26-17)18-9-8-16(12-23)25-18/h4-7,10-11,16,18,23H,2-3,8-9,12H2,1H3/t16-,18?/m0/s1
> <PUBCHEM_IUPAC_INCHIKEY>
CTCGDXCVRGQZDK-ATNAJCNCSA-N
> <PUBCHEM_XLOGP3_AA>
2.9
> <PUBCHEM_EXACT_MASS>
354.15795719
> <PUBCHEM_MOLECULAR_FORMULA>
C20H22N2O4
> <PUBCHEM_MOLECULAR_WEIGHT>
354.4
> <PUBCHEM_OPENEYE_CAN_SMILES>
CCCC1=CC=C(C=C1)C2=CC3=CN(C(=O)N=C3O2)C4CCC(O4)CO
> <PUBCHEM_OPENEYE_ISO_SMILES>
CCCC1=CC=C(C=C1)C2=CC3=CN(C(=O)N=C3O2)C4CC[C@H](O4)CO
> <PUBCHEM_CACTVS_TPSA>
71.4
> <PUBCHEM_MONOISOTOPIC_WEIGHT>
354.15795719
> <PUBCHEM_TOTAL_CHARGE>
0
> <PUBCHEM_HEAVY_ATOM_COUNT>
26
> <PUBCHEM_ATOM_DEF_STEREO_COUNT>
1
> <PUBCHEM_ATOM_UDEF_STEREO_COUNT>
1
> <PUBCHEM_BOND_DEF_STEREO_COUNT>
0
> <PUBCHEM_BOND_UDEF_STEREO_COUNT>
0
> <PUBCHEM_ISOTOPIC_ATOM_COUNT>
0
> <PUBCHEM_COMPONENT_COUNT>
1
> <PUBCHEM_CACTVS_TAUTO_COUNT>
-1
> <PUBCHEM_COORDINATE_TYPE>
1
5
255
> <PUBCHEM_BONDANNOTATIONS>
10  11  6
12  14  8
14  15  8
14  16  8
16  17  8
18  21  8
18  22  8
19  23  8
19  24  8
21  23  8
22  24  8
3  15  8
3  17  8
5  12  8
5  13  8
7  5  3
6  13  8
6  15  8
$$$$
