506160
  -OEChem-10302200282D
 62 64  0     1  0  0  0  0  0999 V2000
    2.6504   -1.3082    0.0000 O   0  0  0  0  0  0  0  0  0  0  0  0
    4.5983   -3.8114    0.0000 O   0  0  0  0  0  0  0  0  0  0  0  0
    5.7783    1.1914    0.0000 O   0  0  0  0  0  0  0  0  0  0  0  0
    9.0245    2.7606    0.0000 O   0  0  0  0  0  0  0  0  0  0  0  0
    9.3817    1.0657    0.0000 O   0  0  0  0  0  0  0  0  0  0  0  0
    4.2382   -2.1172    0.0000 N   0  0  0  0  0  0  0  0  0  0  0  0
    6.1355   -0.5034    0.0000 N   0  0  0  0  0  0  0  0  0  0  0  0
    7.7353    1.6038    0.0000 N   0  0  0  0  0  0  0  0  0  0  0  0
    5.1893   -0.8082    0.0000 C   0  0  1  0  0  0  0  0  0  0  0  0
    5.1893   -1.8082    0.0000 C   0  0  2  0  0  0  0  0  0  0  0  0
    4.2382   -0.4992    0.0000 C   0  0  1  0  0  0  0  0  0  0  0  0
    6.1355   -2.1129    0.0000 C   0  0  0  0  0  0  0  0  0  0  0  0
    6.7191   -1.3082    0.0000 C   0  0  0  0  0  0  0  0  0  0  0  0
    2.9511   -3.2762    0.0000 C   0  0  0  0  0  0  0  0  0  0  0  0
    3.6504   -1.3082    0.0000 C   0  0  0  0  0  0  0  0  0  0  0  0
    3.9292   -3.0682    0.0000 C   0  0  0  0  0  0  0  0  0  0  0  0
    2.0000   -2.9671    0.0000 C   0  0  0  0  0  0  0  0  0  0  0  0
    2.2079   -3.9453    0.0000 C   0  0  0  0  0  0  0  0  0  0  0  0
    3.9292    0.4519    0.0000 C   0  0  0  0  0  0  0  0  0  0  0  0
    6.4462    0.4471    0.0000 C   0  0  0  0  0  0  0  0  0  0  0  0
    7.4247    0.6533    0.0000 C   0  0  2  0  0  0  0  0  0  0  0  0
    8.0925   -0.0910    0.0000 C   0  0  0  0  0  0  0  0  0  0  0  0
    9.0710    0.1152    0.0000 C   0  0  0  0  0  0  0  0  0  0  0  0
    7.7818   -1.0415    0.0000 C   0  0  0  0  0  0  0  0  0  0  0  0
    8.7138    1.8100    0.0000 C   0  0  0  0  0  0  0  0  0  0  0  0
   10.0030    2.9668    0.0000 C   0  0  0  0  0  0  0  0  0  0  0  0
   10.9815    3.1730    0.0000 C   0  0  0  0  0  0  0  0  0  0  0  0
    9.7968    3.9453    0.0000 C   0  0  0  0  0  0  0  0  0  0  0  0
   10.2092    1.9883    0.0000 C   0  0  0  0  0  0  0  0  0  0  0  0
    5.1904    0.0418    0.0000 H   0  0  0  0  0  0  0  0  0  0  0  0
    5.1904   -2.6582    0.0000 H   0  0  0  0  0  0  0  0  0  0  0  0
    3.6258   -0.4022    0.0000 H   0  0  0  0  0  0  0  0  0  0  0  0
    5.8845   -2.6798    0.0000 H   0  0  0  0  0  0  0  0  0  0  0  0
    6.6729   -2.4221    0.0000 H   0  0  0  0  0  0  0  0  0  0  0  0
    7.1800   -1.7229    0.0000 H   0  0  0  0  0  0  0  0  0  0  0  0
    7.1800   -0.8934    0.0000 H   0  0  0  0  0  0  0  0  0  0  0  0
    2.9835   -2.6570    0.0000 H   0  0  0  0  0  0  0  0  0  0  0  0
    2.0863   -2.3532    0.0000 H   0  0  0  0  0  0  0  0  0  0  0  0
    1.3804   -2.9888    0.0000 H   0  0  0  0  0  0  0  0  0  0  0  0
    1.6331   -4.1775    0.0000 H   0  0  0  0  0  0  0  0  0  0  0  0
    2.5365   -4.4711    0.0000 H   0  0  0  0  0  0  0  0  0  0  0  0
    4.5189    0.6435    0.0000 H   0  0  0  0  0  0  0  0  0  0  0  0
    3.7376    1.0416    0.0000 H   0  0  0  0  0  0  0  0  0  0  0  0
    3.3396    0.2603    0.0000 H   0  0  0  0  0  0  0  0  0  0  0  0
    7.0106    1.1148    0.0000 H   0  0  0  0  0  0  0  0  0  0  0  0
    8.2851    0.4983    0.0000 H   0  0  0  0  0  0  0  0  0  0  0  0
    7.3213    2.0653    0.0000 H   0  0  0  0  0  0  0  0  0  0  0  0
    9.1989   -0.4915    0.0000 H   0  0  0  0  0  0  0  0  0  0  0  0
    9.6777    0.2431    0.0000 H   0  0  0  0  0  0  0  0  0  0  0  0
    8.9432    0.7219    0.0000 H   0  0  0  0  0  0  0  0  0  0  0  0
    7.1925   -0.8489    0.0000 H   0  0  0  0  0  0  0  0  0  0  0  0
    7.5892   -1.6308    0.0000 H   0  0  0  0  0  0  0  0  0  0  0  0
    8.3712   -1.2341    0.0000 H   0  0  0  0  0  0  0  0  0  0  0  0
   11.1094    2.5663    0.0000 H   0  0  0  0  0  0  0  0  0  0  0  0
   11.5882    3.3008    0.0000 H   0  0  0  0  0  0  0  0  0  0  0  0
   10.8537    3.7797    0.0000 H   0  0  0  0  0  0  0  0  0  0  0  0
   10.4035    4.0731    0.0000 H   0  0  0  0  0  0  0  0  0  0  0  0
    9.6689    4.5520    0.0000 H   0  0  0  0  0  0  0  0  0  0  0  0
    9.1901    3.8174    0.0000 H   0  0  0  0  0  0  0  0  0  0  0  0
    9.6026    1.8604    0.0000 H   0  0  0  0  0  0  0  0  0  0  0  0
   10.3371    1.3816    0.0000 H   0  0  0  0  0  0  0  0  0  0  0  0
   10.8159    2.1161    0.0000 H   0  0  0  0  0  0  0  0  0  0  0  0
  1 15  2  0  0  0  0
  2 16  2  0  0  0  0
  3 20  2  0  0  0  0
  4 25  1  0  0  0  0
  4 26  1  0  0  0  0
  5 25  2  0  0  0  0
  6 10  1  0  0  0  0
  6 15  1  0  0  0  0
  6 16  1  0  0  0  0
  7  9  1  0  0  0  0
  7 13  1  0  0  0  0
  7 20  1  0  0  0  0
 21  8  1  1  0  0  0
  8 25  1  0  0  0  0
  8 47  1  0  0  0  0
  9 10  1  0  0  0  0
  9 11  1  0  0  0  0
  9 30  1  6  0  0  0
 10 12  1  0  0  0  0
 10 31  1  1  0  0  0
 11 15  1  0  0  0  0
 11 19  1  1  0  0  0
 11 32  1  0  0  0  0
 12 13  1  0  0  0  0
 12 33  1  0  0  0  0
 12 34  1  0  0  0  0
 13 35  1  0  0  0  0
 13 36  1  0  0  0  0
 14 16  1  0  0  0  0
 14 17  1  0  0  0  0
 14 18  1  0  0  0  0
 14 37  1  0  0  0  0
 17 18  1  0  0  0  0
 17 38  1  0  0  0  0
 17 39  1  0  0  0  0
 18 40  1  0  0  0  0
 18 41  1  0  0  0  0
 19 42  1  0  0  0  0
 19 43  1  0  0  0  0
 19 44  1  0  0  0  0
 20 21  1  0  0  0  0
 21 22  1  0  0  0  0
 21 45  1  0  0  0  0
 22 23  1  0  0  0  0
 22 24  1  0  0  0  0
 22 46  1  0  0  0  0
 23 48  1  0  0  0  0
 23 49  1  0  0  0  0
 23 50  1  0  0  0  0
 24 51  1  0  0  0  0
 24 52  1  0  0  0  0
 24 53  1  0  0  0  0
 26 27  1  0  0  0  0
 26 28  1  0  0  0  0
 26 29  1  0  0  0  0
 27 54  1  0  0  0  0
 27 55  1  0  0  0  0
 27 56  1  0  0  0  0
 28 57  1  0  0  0  0
 28 58  1  0  0  0  0
 28 59  1  0  0  0  0
 29 60  1  0  0  0  0
 29 61  1  0  0  0  0
 29 62  1  0  0  0  0
M  END
> <PUBCHEM_COMPOUND_CID>
506160
> <PUBCHEM_COMPOUND_CANONICALIZED>
1
> <PUBCHEM_CACTVS_COMPLEXITY>
710
> <PUBCHEM_CACTVS_HBOND_ACCEPTOR>
5
> <PUBCHEM_CACTVS_HBOND_DONOR>
1
> <PUBCHEM_CACTVS_ROTATABLE_BOND>
6
> <PUBCHEM_CACTVS_SUBSKEYS>
AAADcfB7OAAAAAAAAAAAAAAAGAAAAWLAAAAAAAAAAAAWAAAAAAAAHgAQAAAADWzBgAQCCAPABAAIAAEQGAAAAAAAAAAAAIGIAAEAQBoAwCAcAAAAFiCAAAEcCAAMAAAAAAAAAAAAAAAAAAAAAAAAAAAAAA==
> <PUBCHEM_IUPAC_OPENEYE_NAME>
tert-butyl N-[(1S)-1-[(3aS,6S,6aR)-4-(cyclopropanecarbonyl)-6-methyl-5-oxo-3,3a,6,6a-tetrahydro-2H-pyrrolo[3,2-b]pyrrole-1-carbonyl]-2-methyl-propyl]carbamate
> <PUBCHEM_IUPAC_CAS_NAME>
N-[(2S)-1-[(3aS,6S,6aR)-4-[cyclopropyl(oxo)methyl]-6-methyl-5-oxo-3,3a,6,6a-tetrahydro-2H-pyrrolo[3,2-b]pyrrol-1-yl]-3-methyl-1-oxobutan-2-yl]carbamic acid tert-butyl ester
> <PUBCHEM_IUPAC_NAME_MARKUP>
<I>tert</I>-butyl <I>N</I>-[(2<I>S</I>)-1-[(3<I>a</I><I>S</I>,6<I>S</I>,6<I>a</I><I>R</I>)-4-(cyclopropanecarbonyl)-6-methyl-5-oxo-3,3<I>a</I>,6,6<I>a</I>-tetrahydro-2<I>H</I>-pyrrolo[3,2-b]pyrrol-1-yl]-3-methyl-1-oxobutan-2-yl]carbamate
> <PUBCHEM_IUPAC_NAME>
tert-butyl N-[(2S)-1-[(3aS,6S,6aR)-4-(cyclopropanecarbonyl)-6-methyl-5-oxo-3,3a,6,6a-tetrahydro-2H-pyrrolo[3,2-b]pyrrol-1-yl]-3-methyl-1-oxobutan-2-yl]carbamate
> <PUBCHEM_IUPAC_SYSTEMATIC_NAME>
tert-butyl N-[(2S)-1-[(3aS,6S,6aR)-4-cyclopropylcarbonyl-6-methyl-5-oxidanylidene-3,3a,6,6a-tetrahydro-2H-pyrrolo[3,2-b]pyrrol-1-yl]-3-methyl-1-oxidanylidene-butan-2-yl]carbamate
> <PUBCHEM_IUPAC_TRADITIONAL_NAME>
N-[(1S)-1-[(3aS,6S,6aR)-4-(cyclopropanecarbonyl)-5-keto-6-methyl-3,3a,6,6a-tetrahydro-2H-pyrrolo[3,2-b]pyrrole-1-carbonyl]-2-methyl-propyl]carbamic acid tert-butyl ester
> <PUBCHEM_IUPAC_INCHI>
InChI=1S/C21H33N3O5/c1-11(2)15(22-20(28)29-21(4,5)6)19(27)23-10-9-14-16(23)12(3)17(25)24(14)18(26)13-7-8-13/h11-16H,7-10H2,1-6H3,(H,22,28)/t12-,14-,15-,16+/m0/s1
> <PUBCHEM_IUPAC_INCHIKEY>
MYWFKMJHVOWZAV-QCEMKRCNSA-N
> <PUBCHEM_XLOGP3_AA>
2.1
> <PUBCHEM_EXACT_MASS>
407.24202116
> <PUBCHEM_MOLECULAR_FORMULA>
C21H33N3O5
> <PUBCHEM_MOLECULAR_WEIGHT>
407.5
> <PUBCHEM_OPENEYE_CAN_SMILES>
CC1C2C(CCN2C(=O)C(C(C)C)NC(=O)OC(C)(C)C)N(C1=O)C(=O)C3CC3
> <PUBCHEM_OPENEYE_ISO_SMILES>
C[C@H]1[C@@H]2[C@H](CCN2C(=O)[C@H](C(C)C)NC(=O)OC(C)(C)C)N(C1=O)C(=O)C3CC3
> <PUBCHEM_CACTVS_TPSA>
96
> <PUBCHEM_MONOISOTOPIC_WEIGHT>
407.24202116
> <PUBCHEM_TOTAL_CHARGE>
0
> <PUBCHEM_HEAVY_ATOM_COUNT>
29
> <PUBCHEM_ATOM_DEF_STEREO_COUNT>
4
> <PUBCHEM_ATOM_UDEF_STEREO_COUNT>
0
> <PUBCHEM_BOND_DEF_STEREO_COUNT>
0
> <PUBCHEM_BOND_UDEF_STEREO_COUNT>
0
> <PUBCHEM_ISOTOPIC_ATOM_COUNT>
0
> <PUBCHEM_COMPONENT_COUNT>
1
> <PUBCHEM_CACTVS_TAUTO_COUNT>
-1
> <PUBCHEM_COORDINATE_TYPE>
1
5
255
> <PUBCHEM_BONDANNOTATIONS>
10  31  5
11  19  5
21  8  5
9  30  6
$$$$
