506168
  -OEChem-10302200282D
 94 99  0     1  0  0  0  0  0999 V2000
    2.6504   -2.2850    0.0000 O   0  0  0  0  0  0  0  0  0  0  0  0
    4.5983   -4.7882    0.0000 O   0  0  0  0  0  0  0  0  0  0  0  0
    5.7783    0.2146    0.0000 O   0  0  0  0  0  0  0  0  0  0  0  0
    9.3817    0.0889    0.0000 O   0  0  0  0  0  0  0  0  0  0  0  0
    9.6458    3.6848    0.0000 O   0  0  0  0  0  0  0  0  0  0  0  0
    4.2382   -3.0940    0.0000 N   0  0  0  0  0  0  0  0  0  0  0  0
    6.1355   -1.4802    0.0000 N   0  0  0  0  0  0  0  0  0  0  0  0
    7.7353    0.6270    0.0000 N   0  0  0  0  0  0  0  0  0  0  0  0
    9.0245    1.7838    0.0000 N   0  0  0  0  0  0  0  0  0  0  0  0
   11.2922    3.1467    0.0000 N   0  0  0  0  0  0  0  0  0  0  0  0
   13.2492    3.5591    0.0000 N   0  0  0  0  0  0  0  0  0  0  0  0
   14.8955    3.0211    0.0000 N   0  0  0  0  0  0  0  0  0  0  0  0
   14.5384    4.7159    0.0000 N   0  0  0  0  0  0  0  0  0  0  0  0
    5.1893   -1.7850    0.0000 C   0  0  2  0  0  0  0  0  0  0  0  0
    4.2382   -1.4760    0.0000 C   0  0  3  0  0  0  0  0  0  0  0  0
    5.1893   -2.7850    0.0000 C   0  0  2  0  0  0  0  0  0  0  0  0
    3.9292   -0.5249    0.0000 C   0  0  0  0  0  0  0  0  0  0  0  0
    6.1355   -3.0897    0.0000 C   0  0  0  0  0  0  0  0  0  0  0  0
    4.3832    0.3661    0.0000 C   0  0  0  0  0  0  0  0  0  0  0  0
    3.0382   -0.0709    0.0000 C   0  0  0  0  0  0  0  0  0  0  0  0
    3.6504   -2.2850    0.0000 C   0  0  0  0  0  0  0  0  0  0  0  0
    6.7191   -2.2850    0.0000 C   0  0  0  0  0  0  0  0  0  0  0  0
    3.4922    0.8201    0.0000 C   0  0  0  0  0  0  0  0  0  0  0  0
    2.9511   -4.2530    0.0000 C   0  0  0  0  0  0  0  0  0  0  0  0
    3.9292   -4.0451    0.0000 C   0  0  0  0  0  0  0  0  0  0  0  0
    2.0000   -3.9440    0.0000 C   0  0  0  0  0  0  0  0  0  0  0  0
    2.2079   -4.9221    0.0000 C   0  0  0  0  0  0  0  0  0  0  0  0
    6.4462   -0.5297    0.0000 C   0  0  0  0  0  0  0  0  0  0  0  0
    7.4247   -0.3235    0.0000 C   0  0  2  0  0  0  0  0  0  0  0  0
    8.0925   -1.0678    0.0000 C   0  0  0  0  0  0  0  0  0  0  0  0
    9.0710   -0.8616    0.0000 C   0  0  0  0  0  0  0  0  0  0  0  0
    7.7818   -2.0183    0.0000 C   0  0  0  0  0  0  0  0  0  0  0  0
    8.7138    0.8332    0.0000 C   0  0  0  0  0  0  0  0  0  0  0  0
   10.0030    1.9900    0.0000 C   0  0  1  0  0  0  0  0  0  0  0  0
   10.6708    1.2457    0.0000 C   0  0  0  0  0  0  0  0  0  0  0  0
   10.3137    2.9405    0.0000 C   0  0  0  0  0  0  0  0  0  0  0  0
   11.9600    2.4024    0.0000 C   0  0  0  0  0  0  0  0  0  0  0  0
   11.6028    4.0972    0.0000 C   0  0  0  0  0  0  0  0  0  0  0  0
   11.6494    1.4519    0.0000 C   0  0  0  0  0  0  0  0  0  0  0  0
   10.3602    0.2951    0.0000 C   0  0  0  0  0  0  0  0  0  0  0  0
   12.9385    2.6086    0.0000 C   0  0  0  0  0  0  0  0  0  0  0  0
   12.5813    4.3034    0.0000 C   0  0  0  0  0  0  0  0  0  0  0  0
   14.2277    3.7654    0.0000 C   0  0  0  0  0  0  0  0  0  0  0  0
   15.8740    3.2273    0.0000 C   0  0  0  0  0  0  0  0  0  0  0  0
   15.5169    4.9221    0.0000 C   0  0  0  0  0  0  0  0  0  0  0  0
   16.1847    4.1778    0.0000 C   0  0  0  0  0  0  0  0  0  0  0  0
    5.1904   -0.9350    0.0000 H   0  0  0  0  0  0  0  0  0  0  0  0
    3.6258   -1.3790    0.0000 H   0  0  0  0  0  0  0  0  0  0  0  0
    5.1904   -3.6350    0.0000 H   0  0  0  0  0  0  0  0  0  0  0  0
    4.5473   -0.5736    0.0000 H   0  0  0  0  0  0  0  0  0  0  0  0
    5.8845   -3.6566    0.0000 H   0  0  0  0  0  0  0  0  0  0  0  0
    6.6729   -3.3989    0.0000 H   0  0  0  0  0  0  0  0  0  0  0  0
    4.9356    0.0846    0.0000 H   0  0  0  0  0  0  0  0  0  0  0  0
    4.6647    0.9185    0.0000 H   0  0  0  0  0  0  0  0  0  0  0  0
    2.4858    0.2106    0.0000 H   0  0  0  0  0  0  0  0  0  0  0  0
    2.7567   -0.6233    0.0000 H   0  0  0  0  0  0  0  0  0  0  0  0
    7.1800   -2.6997    0.0000 H   0  0  0  0  0  0  0  0  0  0  0  0
    7.1800   -1.8703    0.0000 H   0  0  0  0  0  0  0  0  0  0  0  0
    3.7737    1.3725    0.0000 H   0  0  0  0  0  0  0  0  0  0  0  0
    2.9398    1.1016    0.0000 H   0  0  0  0  0  0  0  0  0  0  0  0
    3.2325   -4.8054    0.0000 H   0  0  0  0  0  0  0  0  0  0  0  0
    2.0863   -3.3300    0.0000 H   0  0  0  0  0  0  0  0  0  0  0  0
    1.3804   -3.9656    0.0000 H   0  0  0  0  0  0  0  0  0  0  0  0
    1.6331   -5.1544    0.0000 H   0  0  0  0  0  0  0  0  0  0  0  0
    2.5365   -5.4479    0.0000 H   0  0  0  0  0  0  0  0  0  0  0  0
    7.0106    0.1380    0.0000 H   0  0  0  0  0  0  0  0  0  0  0  0
    8.2851   -0.4785    0.0000 H   0  0  0  0  0  0  0  0  0  0  0  0
    7.3213    1.0885    0.0000 H   0  0  0  0  0  0  0  0  0  0  0  0
    9.1989   -1.4683    0.0000 H   0  0  0  0  0  0  0  0  0  0  0  0
    9.6777   -0.7337    0.0000 H   0  0  0  0  0  0  0  0  0  0  0  0
    8.9432   -0.2549    0.0000 H   0  0  0  0  0  0  0  0  0  0  0  0
    7.1925   -1.8257    0.0000 H   0  0  0  0  0  0  0  0  0  0  0  0
    7.5892   -2.6077    0.0000 H   0  0  0  0  0  0  0  0  0  0  0  0
    8.3712   -2.2110    0.0000 H   0  0  0  0  0  0  0  0  0  0  0  0
    8.6104    2.2452    0.0000 H   0  0  0  0  0  0  0  0  0  0  0  0
    9.8104    1.4006    0.0000 H   0  0  0  0  0  0  0  0  0  0  0  0
   10.8635    1.8350    0.0000 H   0  0  0  0  0  0  0  0  0  0  0  0
   11.4337    2.0748    0.0000 H   0  0  0  0  0  0  0  0  0  0  0  0
   12.1913    1.8272    0.0000 H   0  0  0  0  0  0  0  0  0  0  0  0
   11.5823    4.7169    0.0000 H   0  0  0  0  0  0  0  0  0  0  0  0
   10.9890    4.1846    0.0000 H   0  0  0  0  0  0  0  0  0  0  0  0
   11.7772    0.8452    0.0000 H   0  0  0  0  0  0  0  0  0  0  0  0
   12.2560    1.5797    0.0000 H   0  0  0  0  0  0  0  0  0  0  0  0
   11.5215    2.0586    0.0000 H   0  0  0  0  0  0  0  0  0  0  0  0
    9.7709    0.4878    0.0000 H   0  0  0  0  0  0  0  0  0  0  0  0
   10.1676   -0.2942    0.0000 H   0  0  0  0  0  0  0  0  0  0  0  0
   10.9495    0.1025    0.0000 H   0  0  0  0  0  0  0  0  0  0  0  0
   12.9591    1.9890    0.0000 H   0  0  0  0  0  0  0  0  0  0  0  0
   13.5523    2.5213    0.0000 H   0  0  0  0  0  0  0  0  0  0  0  0
   13.1077    4.6311    0.0000 H   0  0  0  0  0  0  0  0  0  0  0  0
   12.3501    4.8787    0.0000 H   0  0  0  0  0  0  0  0  0  0  0  0
   16.2881    2.7658    0.0000 H   0  0  0  0  0  0  0  0  0  0  0  0
   15.7095    5.5114    0.0000 H   0  0  0  0  0  0  0  0  0  0  0  0
   16.7914    4.3056    0.0000 H   0  0  0  0  0  0  0  0  0  0  0  0
  1 21  2  0  0  0  0
  2 25  2  0  0  0  0
  3 28  2  0  0  0  0
  4 33  2  0  0  0  0
  5 36  2  0  0  0  0
  6 16  1  0  0  0  0
  6 21  1  0  0  0  0
  6 25  1  0  0  0  0
  7 14  1  0  0  0  0
  7 22  1  0  0  0  0
  7 28  1  0  0  0  0
 29  8  1  1  0  0  0
  8 33  1  0  0  0  0
  8 68  1  0  0  0  0
  9 33  1  0  0  0  0
 34  9  1  6  0  0  0
  9 75  1  0  0  0  0
 10 36  1  0  0  0  0
 10 37  1  0  0  0  0
 10 38  1  0  0  0  0
 11 41  1  0  0  0  0
 11 42  1  0  0  0  0
 11 43  1  0  0  0  0
 12 43  2  0  0  0  0
 12 44  1  0  0  0  0
 13 43  1  0  0  0  0
 13 45  2  0  0  0  0
 14 15  1  0  0  0  0
 14 16  1  0  0  0  0
 14 47  1  6  0  0  0
 15 17  1  0  0  0  0
 15 21  1  0  0  0  0
 15 48  1  0  0  0  0
 16 18  1  0  0  0  0
 16 49  1  1  0  0  0
 17 19  1  0  0  0  0
 17 20  1  0  0  0  0
 17 50  1  0  0  0  0
 18 22  1  0  0  0  0
 18 51  1  0  0  0  0
 18 52  1  0  0  0  0
 19 23  1  0  0  0  0
 19 53  1  0  0  0  0
 19 54  1  0  0  0  0
 20 23  1  0  0  0  0
 20 55  1  0  0  0  0
 20 56  1  0  0  0  0
 22 57  1  0  0  0  0
 22 58  1  0  0  0  0
 23 59  1  0  0  0  0
 23 60  1  0  0  0  0
 24 25  1  0  0  0  0
 24 26  1  0  0  0  0
 24 27  1  0  0  0  0
 24 61  1  0  0  0  0
 26 27  1  0  0  0  0
 26 62  1  0  0  0  0
 26 63  1  0  0  0  0
 27 64  1  0  0  0  0
 27 65  1  0  0  0  0
 28 29  1  0  0  0  0
 29 30  1  0  0  0  0
 29 66  1  0  0  0  0
 30 31  1  0  0  0  0
 30 32  1  0  0  0  0
 30 67  1  0  0  0  0
 31 69  1  0  0  0  0
 31 70  1  0  0  0  0
 31 71  1  0  0  0  0
 32 72  1  0  0  0  0
 32 73  1  0  0  0  0
 32 74  1  0  0  0  0
 34 35  1  0  0  0  0
 34 36  1  0  0  0  0
 34 76  1  0  0  0  0
 35 39  1  0  0  0  0
 35 40  1  0  0  0  0
 35 77  1  0  0  0  0
 37 41  1  0  0  0  0
 37 78  1  0  0  0  0
 37 79  1  0  0  0  0
 38 42  1  0  0  0  0
 38 80  1  0  0  0  0
 38 81  1  0  0  0  0
 39 82  1  0  0  0  0
 39 83  1  0  0  0  0
 39 84  1  0  0  0  0
 40 85  1  0  0  0  0
 40 86  1  0  0  0  0
 40 87  1  0  0  0  0
 41 88  1  0  0  0  0
 41 89  1  0  0  0  0
 42 90  1  0  0  0  0
 42 91  1  0  0  0  0
 44 46  2  0  0  0  0
 44 92  1  0  0  0  0
 45 46  1  0  0  0  0
 45 93  1  0  0  0  0
 46 94  1  0  0  0  0
M  END
> <PUBCHEM_COMPOUND_CID>
506168
> <PUBCHEM_COMPOUND_CANONICALIZED>
1
> <PUBCHEM_CACTVS_COMPLEXITY>
1170
> <PUBCHEM_CACTVS_HBOND_ACCEPTOR>
8
> <PUBCHEM_CACTVS_HBOND_DONOR>
2
> <PUBCHEM_CACTVS_ROTATABLE_BOND>
9
> <PUBCHEM_CACTVS_SUBSKEYS>
AAADcfB/+AAAAAAAAAAAAAAAGABgAWLAAAAsWAAAAAAWAAABgAAAHgAQAAAADSjBkgQ/kJfIEACoADF3dACAgCkRAqAJUKG4ZBCASJpAyWAUBAgIFiLAACEciMAOgAAAAAAAAAAAAAAAAAAAAAAAAAAAAA==
> <PUBCHEM_IUPAC_OPENEYE_NAME>
1-[(1S)-1-[(3aS,6aR)-6-cyclobutyl-4-(cyclopropanecarbonyl)-5-oxo-3,3a,6,6a-tetrahydro-2H-pyrrolo[3,2-b]pyrrole-1-carbonyl]-2-methyl-propyl]-3-[(1S)-2-methyl-1-(4-pyrimidin-2-ylpiperazine-1-carbonyl)propyl]urea
> <PUBCHEM_IUPAC_CAS_NAME>
1-[(2S)-1-[(3aS,6aR)-6-cyclobutyl-4-[cyclopropyl(oxo)methyl]-5-oxo-3,3a,6,6a-tetrahydro-2H-pyrrolo[3,2-b]pyrrol-1-yl]-3-methyl-1-oxobutan-2-yl]-3-[(2S)-3-methyl-1-oxo-1-[4-(2-pyrimidinyl)-1-piperazinyl]butan-2-yl]urea
> <PUBCHEM_IUPAC_NAME_MARKUP>
1-[(2<I>S</I>)-1-[(3<I>a</I><I>S</I>,6<I>a</I><I>R</I>)-6-cyclobutyl-4-(cyclopropanecarbonyl)-5-oxo-3,3<I>a</I>,6,6<I>a</I>-tetrahydro-2<I>H</I>-pyrrolo[3,2-b]pyrrol-1-yl]-3-methyl-1-oxobutan-2-yl]-3-[(2<I>S</I>)-3-methyl-1-oxo-1-(4-pyrimidin-2-ylpiperazin-1-yl)butan-2-yl]urea
> <PUBCHEM_IUPAC_NAME>
1-[(2S)-1-[(3aS,6aR)-6-cyclobutyl-4-(cyclopropanecarbonyl)-5-oxo-3,3a,6,6a-tetrahydro-2H-pyrrolo[3,2-b]pyrrol-1-yl]-3-methyl-1-oxobutan-2-yl]-3-[(2S)-3-methyl-1-oxo-1-(4-pyrimidin-2-ylpiperazin-1-yl)butan-2-yl]urea
> <PUBCHEM_IUPAC_SYSTEMATIC_NAME>
1-[(2S)-1-[(3aS,6aR)-6-cyclobutyl-4-cyclopropylcarbonyl-5-oxidanylidene-3,3a,6,6a-tetrahydro-2H-pyrrolo[3,2-b]pyrrol-1-yl]-3-methyl-1-oxidanylidene-butan-2-yl]-3-[(2S)-3-methyl-1-oxidanylidene-1-(4-pyrimidin-2-ylpiperazin-1-yl)butan-2-yl]urea
> <PUBCHEM_IUPAC_TRADITIONAL_NAME>
1-[(1S)-1-[(3aS,6aR)-6-cyclobutyl-4-(cyclopropanecarbonyl)-5-keto-3,3a,6,6a-tetrahydro-2H-pyrrolo[3,2-b]pyrrole-1-carbonyl]-2-methyl-propyl]-3-[(1S)-2-methyl-1-[4-(2-pyrimidyl)piperazine-1-carbonyl]propyl]urea
> <PUBCHEM_IUPAC_INCHI>
InChI=1S/C33H48N8O5/c1-19(2)25(30(44)38-15-17-39(18-16-38)32-34-12-6-13-35-32)36-33(46)37-26(20(3)4)31(45)40-14-11-23-27(40)24(21-7-5-8-21)29(43)41(23)28(42)22-9-10-22/h6,12-13,19-27H,5,7-11,14-18H2,1-4H3,(H2,36,37,46)/t23-,24?,25-,26-,27-/m0/s1
> <PUBCHEM_IUPAC_INCHIKEY>
BLEFHXCUEJEGNC-LQKXBMCVSA-N
> <PUBCHEM_XLOGP3_AA>
2.8
> <PUBCHEM_EXACT_MASS>
636.37476666
> <PUBCHEM_MOLECULAR_FORMULA>
C33H48N8O5
> <PUBCHEM_MOLECULAR_WEIGHT>
636.8
> <PUBCHEM_OPENEYE_CAN_SMILES>
CC(C)C(C(=O)N1CCN(CC1)C2=NC=CC=N2)NC(=O)NC(C(C)C)C(=O)N3CCC4C3C(C(=O)N4C(=O)C5CC5)C6CCC6
> <PUBCHEM_OPENEYE_ISO_SMILES>
CC(C)[C@@H](C(=O)N1CCN(CC1)C2=NC=CC=N2)NC(=O)N[C@@H](C(C)C)C(=O)N3CC[C@H]4[C@H]3C(C(=O)N4C(=O)C5CC5)C6CCC6
> <PUBCHEM_CACTVS_TPSA>
148
> <PUBCHEM_MONOISOTOPIC_WEIGHT>
636.37476666
> <PUBCHEM_TOTAL_CHARGE>
0
> <PUBCHEM_HEAVY_ATOM_COUNT>
46
> <PUBCHEM_ATOM_DEF_STEREO_COUNT>
4
> <PUBCHEM_ATOM_UDEF_STEREO_COUNT>
1
> <PUBCHEM_BOND_DEF_STEREO_COUNT>
0
> <PUBCHEM_BOND_UDEF_STEREO_COUNT>
0
> <PUBCHEM_ISOTOPIC_ATOM_COUNT>
0
> <PUBCHEM_COMPONENT_COUNT>
1
> <PUBCHEM_CACTVS_TAUTO_COUNT>
-1
> <PUBCHEM_COORDINATE_TYPE>
1
5
255
> <PUBCHEM_BONDANNOTATIONS>
12  43  8
12  44  8
13  43  8
13  45  8
14  47  6
15  17  3
16  49  5
44  46  8
45  46  8
29  8  5
34  9  6
$$$$
