506173
  -OEChem-10302200282D
 61 66  0     1  0  0  0  0  0999 V2000
    6.8078    2.1244    0.0000 O   0  0  0  0  0  0  0  0  0  0  0  0
    5.9418   -1.3756    0.0000 N   0  0  0  0  0  0  0  0  0  0  0  0
    5.9418    0.6244    0.0000 N   0  0  0  0  0  0  0  0  0  0  0  0
    9.4465   -3.2882    0.0000 N   0  0  0  0  0  0  0  0  0  0  0  0
    2.6067    3.7914    0.0000 N   0  0  0  0  0  0  0  0  0  0  0  0
    5.9418   -2.3756    0.0000 C   0  0  3  0  0  0  0  0  0  0  0  0
    5.0757   -0.8756    0.0000 C   0  0  0  0  0  0  0  0  0  0  0  0
    6.8078   -0.8756    0.0000 C   0  0  0  0  0  0  0  0  0  0  0  0
    6.7508   -2.9634    0.0000 C   0  0  0  0  0  0  0  0  0  0  0  0
    5.1328   -2.9634    0.0000 C   0  0  0  0  0  0  0  0  0  0  0  0
    5.0757    0.1244    0.0000 C   0  0  0  0  0  0  0  0  0  0  0  0
    6.8078    0.1244    0.0000 C   0  0  0  0  0  0  0  0  0  0  0  0
    6.4418   -3.9145    0.0000 C   0  0  0  0  0  0  0  0  0  0  0  0
    5.4418   -3.9145    0.0000 C   0  0  0  0  0  0  0  0  0  0  0  0
    7.7662   -2.7312    0.0000 C   0  0  0  0  0  0  0  0  0  0  0  0
    4.1173   -2.7312    0.0000 C   0  0  0  0  0  0  0  0  0  0  0  0
    7.1267   -4.6992    0.0000 C   0  0  0  0  0  0  0  0  0  0  0  0
    4.7568   -4.6992    0.0000 C   0  0  0  0  0  0  0  0  0  0  0  0
    8.4691   -3.4999    0.0000 C   0  0  0  0  0  0  0  0  0  0  0  0
    5.9418    1.6244    0.0000 C   0  0  0  0  0  0  0  0  0  0  0  0
    8.1472   -4.4905    0.0000 C   0  0  0  0  0  0  0  0  0  0  0  0
    3.4144   -3.4999    0.0000 C   0  0  0  0  0  0  0  0  0  0  0  0
    3.7363   -4.4905    0.0000 C   0  0  0  0  0  0  0  0  0  0  0  0
    5.0757    2.1244    0.0000 C   0  0  0  0  0  0  0  0  0  0  0  0
    5.0757    3.1244    0.0000 C   0  0  0  0  0  0  0  0  0  0  0  0
    4.2097    1.6244    0.0000 C   0  0  0  0  0  0  0  0  0  0  0  0
   10.1185   -4.0287    0.0000 C   0  0  0  0  0  0  0  0  0  0  0  0
    9.7518   -2.3360    0.0000 C   0  0  0  0  0  0  0  0  0  0  0  0
    4.2097    3.6244    0.0000 C   0  0  0  0  0  0  0  0  0  0  0  0
    3.3437    3.1244    0.0000 C   0  0  0  0  0  0  0  0  0  0  0  0
    3.3437    2.1244    0.0000 C   0  0  0  0  0  0  0  0  0  0  0  0
    4.0005    4.5962    0.0000 C   0  0  0  0  0  0  0  0  0  0  0  0
    3.0118    4.6992    0.0000 C   0  0  0  0  0  0  0  0  0  0  0  0
    6.4942   -2.0942    0.0000 H   0  0  0  0  0  0  0  0  0  0  0  0
    4.4652   -0.7680    0.0000 H   0  0  0  0  0  0  0  0  0  0  0  0
    4.8637   -1.4583    0.0000 H   0  0  0  0  0  0  0  0  0  0  0  0
    7.0198   -1.4583    0.0000 H   0  0  0  0  0  0  0  0  0  0  0  0
    7.4184   -0.7680    0.0000 H   0  0  0  0  0  0  0  0  0  0  0  0
    4.8637    0.7070    0.0000 H   0  0  0  0  0  0  0  0  0  0  0  0
    4.4652    0.0167    0.0000 H   0  0  0  0  0  0  0  0  0  0  0  0
    7.4184    0.0167    0.0000 H   0  0  0  0  0  0  0  0  0  0  0  0
    7.0198    0.7070    0.0000 H   0  0  0  0  0  0  0  0  0  0  0  0
    7.9510   -2.1394    0.0000 H   0  0  0  0  0  0  0  0  0  0  0  0
    3.9326   -2.1394    0.0000 H   0  0  0  0  0  0  0  0  0  0  0  0
    6.9283   -5.2866    0.0000 H   0  0  0  0  0  0  0  0  0  0  0  0
    4.9552   -5.2866    0.0000 H   0  0  0  0  0  0  0  0  0  0  0  0
    8.5603   -4.9529    0.0000 H   0  0  0  0  0  0  0  0  0  0  0  0
    2.8085   -3.3686    0.0000 H   0  0  0  0  0  0  0  0  0  0  0  0
    3.3232   -4.9529    0.0000 H   0  0  0  0  0  0  0  0  0  0  0  0
    5.6127    3.4344    0.0000 H   0  0  0  0  0  0  0  0  0  0  0  0
    4.2097    1.0044    0.0000 H   0  0  0  0  0  0  0  0  0  0  0  0
    9.6593   -4.4454    0.0000 H   0  0  0  0  0  0  0  0  0  0  0  0
   10.5351   -4.4879    0.0000 H   0  0  0  0  0  0  0  0  0  0  0  0
   10.5776   -3.6121    0.0000 H   0  0  0  0  0  0  0  0  0  0  0  0
   10.3422   -2.5253    0.0000 H   0  0  0  0  0  0  0  0  0  0  0  0
    9.9411   -1.7456    0.0000 H   0  0  0  0  0  0  0  0  0  0  0  0
    9.1614   -2.1466    0.0000 H   0  0  0  0  0  0  0  0  0  0  0  0
    2.8068    1.8144    0.0000 H   0  0  0  0  0  0  0  0  0  0  0  0
    4.4146    5.0576    0.0000 H   0  0  0  0  0  0  0  0  0  0  0  0
    2.0000    3.6636    0.0000 H   0  0  0  0  0  0  0  0  0  0  0  0
    2.7018    5.2362    0.0000 H   0  0  0  0  0  0  0  0  0  0  0  0
  1 20  2  0  0  0  0
  2  6  1  0  0  0  0
  2  7  1  0  0  0  0
  2  8  1  0  0  0  0
  3 11  1  0  0  0  0
  3 12  1  0  0  0  0
  3 20  1  0  0  0  0
  4 19  1  0  0  0  0
  4 27  1  0  0  0  0
  4 28  1  0  0  0  0
  5 30  1  0  0  0  0
  5 33  1  0  0  0  0
  5 60  1  0  0  0  0
  6  9  1  0  0  0  0
  6 10  1  0  0  0  0
  6 34  1  0  0  0  0
  7 11  1  0  0  0  0
  7 35  1  0  0  0  0
  7 36  1  0  0  0  0
  8 12  1  0  0  0  0
  8 37  1  0  0  0  0
  8 38  1  0  0  0  0
  9 13  2  0  0  0  0
  9 15  1  0  0  0  0
 10 14  1  0  0  0  0
 10 16  2  0  0  0  0
 11 39  1  0  0  0  0
 11 40  1  0  0  0  0
 12 41  1  0  0  0  0
 12 42  1  0  0  0  0
 13 14  1  0  0  0  0
 13 17  1  0  0  0  0
 14 18  2  0  0  0  0
 15 19  2  0  0  0  0
 15 43  1  0  0  0  0
 16 22  1  0  0  0  0
 16 44  1  0  0  0  0
 17 21  2  0  0  0  0
 17 45  1  0  0  0  0
 18 23  1  0  0  0  0
 18 46  1  0  0  0  0
 19 21  1  0  0  0  0
 20 24  1  0  0  0  0
 21 47  1  0  0  0  0
 22 23  2  0  0  0  0
 22 48  1  0  0  0  0
 23 49  1  0  0  0  0
 24 25  2  0  0  0  0
 24 26  1  0  0  0  0
 25 29  1  0  0  0  0
 25 50  1  0  0  0  0
 26 31  2  0  0  0  0
 26 51  1  0  0  0  0
 27 52  1  0  0  0  0
 27 53  1  0  0  0  0
 27 54  1  0  0  0  0
 28 55  1  0  0  0  0
 28 56  1  0  0  0  0
 28 57  1  0  0  0  0
 29 30  2  0  0  0  0
 29 32  1  0  0  0  0
 30 31  1  0  0  0  0
 31 58  1  0  0  0  0
 32 33  2  0  0  0  0
 32 59  1  0  0  0  0
 33 61  1  0  0  0  0
M  END
> <PUBCHEM_COMPOUND_CID>
506173
> <PUBCHEM_COMPOUND_CANONICALIZED>
1
> <PUBCHEM_CACTVS_COMPLEXITY>
704
> <PUBCHEM_CACTVS_HBOND_ACCEPTOR>
3
> <PUBCHEM_CACTVS_HBOND_DONOR>
1
> <PUBCHEM_CACTVS_ROTATABLE_BOND>
3
> <PUBCHEM_CACTVS_SUBSKEYS>
AAADceB7oAAAAAAAAAAAAAAAAAAAAeIAAAA8YMEAAAAAAHgB9AAAHgAQAAAADCjBngQ+wPPJkACoAzV3VACCgCA1AiAI2aE4ZNgIYPLAlZGUIQhglgDIyYcYicCeiAACQAASAAAQAASAACQAASAACQAAAA==
> <PUBCHEM_IUPAC_OPENEYE_NAME>
[4-[2-(dimethylamino)-9H-fluoren-9-yl]piperazin-1-yl]-(1H-indol-5-yl)methanone
> <PUBCHEM_IUPAC_CAS_NAME>
[4-[2-(dimethylamino)-9H-fluoren-9-yl]-1-piperazinyl]-(1H-indol-5-yl)methanone
> <PUBCHEM_IUPAC_NAME_MARKUP>
[4-[2-(dimethylamino)-9<I>H</I>-fluoren-9-yl]piperazin-1-yl]-(1<I>H</I>-indol-5-yl)methanone
> <PUBCHEM_IUPAC_NAME>
[4-[2-(dimethylamino)-9H-fluoren-9-yl]piperazin-1-yl]-(1H-indol-5-yl)methanone
> <PUBCHEM_IUPAC_SYSTEMATIC_NAME>
[4-[2-(dimethylamino)-9H-fluoren-9-yl]piperazin-1-yl]-(1H-indol-5-yl)methanone
> <PUBCHEM_IUPAC_TRADITIONAL_NAME>
[4-[2-(dimethylamino)-9H-fluoren-9-yl]piperazino]-(1H-indol-5-yl)methanone
> <PUBCHEM_IUPAC_INCHI>
InChI=1S/C28H28N4O/c1-30(2)21-8-9-23-22-5-3-4-6-24(22)27(25(23)18-21)31-13-15-32(16-14-31)28(33)20-7-10-26-19(17-20)11-12-29-26/h3-12,17-18,27,29H,13-16H2,1-2H3
> <PUBCHEM_IUPAC_INCHIKEY>
HONFQPLWEFMKME-UHFFFAOYSA-N
> <PUBCHEM_XLOGP3_AA>
4.3
> <PUBCHEM_EXACT_MASS>
436.22631153
> <PUBCHEM_MOLECULAR_FORMULA>
C28H28N4O
> <PUBCHEM_MOLECULAR_WEIGHT>
436.5
> <PUBCHEM_OPENEYE_CAN_SMILES>
CN(C)C1=CC2=C(C=C1)C3=CC=CC=C3C2N4CCN(CC4)C(=O)C5=CC6=C(C=C5)NC=C6
> <PUBCHEM_OPENEYE_ISO_SMILES>
CN(C)C1=CC2=C(C=C1)C3=CC=CC=C3C2N4CCN(CC4)C(=O)C5=CC6=C(C=C5)NC=C6
> <PUBCHEM_CACTVS_TPSA>
42.6
> <PUBCHEM_MONOISOTOPIC_WEIGHT>
436.22631153
> <PUBCHEM_TOTAL_CHARGE>
0
> <PUBCHEM_HEAVY_ATOM_COUNT>
33
> <PUBCHEM_ATOM_DEF_STEREO_COUNT>
0
> <PUBCHEM_ATOM_UDEF_STEREO_COUNT>
1
> <PUBCHEM_BOND_DEF_STEREO_COUNT>
0
> <PUBCHEM_BOND_UDEF_STEREO_COUNT>
0
> <PUBCHEM_ISOTOPIC_ATOM_COUNT>
0
> <PUBCHEM_COMPONENT_COUNT>
1
> <PUBCHEM_CACTVS_TAUTO_COUNT>
-1
> <PUBCHEM_COORDINATE_TYPE>
1
5
255
> <PUBCHEM_BONDANNOTATIONS>
10  14  8
10  16  8
13  17  8
14  18  8
15  19  8
16  22  8
17  21  8
18  23  8
19  21  8
6  2  3
22  23  8
24  25  8
24  26  8
25  29  8
26  31  8
29  30  8
29  32  8
30  31  8
32  33  8
5  30  8
5  33  8
9  13  8
9  15  8
$$$$
