506125
  -OEChem-10302200282D
 42 42  0     1  0  0  0  0  0999 V2000
    7.1962   -2.8060    0.0000 O   0  0  0  0  0  0  0  0  0  0  0  0
    5.4641   -2.8060    0.0000 O   0  0  0  0  0  0  0  0  0  0  0  0
    7.8301    2.5600    0.0000 O   0  0  0  0  0  0  0  0  0  0  0  0
    4.5981    0.6940    0.0000 N   0  0  3  0  0  0  0  0  0  0  0  0
    6.3301    1.6940    0.0000 N   0  0  0  0  0  0  0  0  0  0  0  0
    8.0622    0.6940    0.0000 N   0  0  0  0  0  0  0  0  0  0  0  0
    6.3301    0.6940    0.0000 C   0  0  1  0  0  0  0  0  0  0  0  0
    5.4641    0.1940    0.0000 C   0  0  1  0  0  0  0  0  0  0  0  0
    7.1962    0.1940    0.0000 C   0  0  1  0  0  0  0  0  0  0  0  0
    7.1962   -0.8060    0.0000 C   0  0  0  0  0  0  0  0  0  0  0  0
    5.4641   -0.8060    0.0000 C   0  0  0  0  0  0  0  0  0  0  0  0
    6.3301   -1.3060    0.0000 C   0  0  0  0  0  0  0  0  0  0  0  0
    3.7320    0.1940    0.0000 C   0  0  0  0  0  0  0  0  0  0  0  0
    4.5981    1.6940    0.0000 C   0  0  0  0  0  0  0  0  0  0  0  0
    2.8660    0.6940    0.0000 C   0  0  0  0  0  0  0  0  0  0  0  0
    6.3301   -2.3060    0.0000 C   0  0  0  0  0  0  0  0  0  0  0  0
    6.8301    2.5600    0.0000 C   0  0  0  0  0  0  0  0  0  0  0  0
    2.0000    0.1940    0.0000 C   0  0  0  0  0  0  0  0  0  0  0  0
    6.3301    3.4260    0.0000 C   0  0  0  0  0  0  0  0  0  0  0  0
    6.8671    1.0040    0.0000 H   0  0  0  0  0  0  0  0  0  0  0  0
    5.4641    0.8140    0.0000 H   0  0  0  0  0  0  0  0  0  0  0  0
    7.7331   -0.1160    0.0000 H   0  0  0  0  0  0  0  0  0  0  0  0
    7.4082   -1.3886    0.0000 H   0  0  0  0  0  0  0  0  0  0  0  0
    7.8067   -0.6984    0.0000 H   0  0  0  0  0  0  0  0  0  0  0  0
    4.9272   -1.1160    0.0000 H   0  0  0  0  0  0  0  0  0  0  0  0
    5.7932    2.0040    0.0000 H   0  0  0  0  0  0  0  0  0  0  0  0
    3.3335   -0.2810    0.0000 H   0  0  0  0  0  0  0  0  0  0  0  0
    4.1306   -0.2810    0.0000 H   0  0  0  0  0  0  0  0  0  0  0  0
    8.5991    0.3840    0.0000 H   0  0  0  0  0  0  0  0  0  0  0  0
    8.3722    1.2309    0.0000 H   0  0  0  0  0  0  0  0  0  0  0  0
    5.2181    1.6940    0.0000 H   0  0  0  0  0  0  0  0  0  0  0  0
    4.5981    2.3140    0.0000 H   0  0  0  0  0  0  0  0  0  0  0  0
    3.9781    1.6940    0.0000 H   0  0  0  0  0  0  0  0  0  0  0  0
    3.2646    1.1689    0.0000 H   0  0  0  0  0  0  0  0  0  0  0  0
    2.4675    1.1689    0.0000 H   0  0  0  0  0  0  0  0  0  0  0  0
    1.6900    0.7309    0.0000 H   0  0  0  0  0  0  0  0  0  0  0  0
    1.4631   -0.1160    0.0000 H   0  0  0  0  0  0  0  0  0  0  0  0
    2.3100   -0.3430    0.0000 H   0  0  0  0  0  0  0  0  0  0  0  0
    6.8671    3.7360    0.0000 H   0  0  0  0  0  0  0  0  0  0  0  0
    6.0201    3.9630    0.0000 H   0  0  0  0  0  0  0  0  0  0  0  0
    5.7932    3.1160    0.0000 H   0  0  0  0  0  0  0  0  0  0  0  0
    7.1962   -3.4260    0.0000 H   0  0  0  0  0  0  0  0  0  0  0  0
  1 16  1  0  0  0  0
  1 42  1  0  0  0  0
  2 16  2  0  0  0  0
  3 17  2  0  0  0  0
  8  4  1  1  0  0  0
  4 13  1  0  0  0  0
  4 14  1  0  0  0  0
  7  5  1  6  0  0  0
  5 17  1  0  0  0  0
  5 26  1  0  0  0  0
  9  6  1  6  0  0  0
  6 29  1  0  0  0  0
  6 30  1  0  0  0  0
  7  8  1  0  0  0  0
  7  9  1  0  0  0  0
  7 20  1  0  0  0  0
  8 11  1  0  0  0  0
  8 21  1  0  0  0  0
  9 10  1  0  0  0  0
  9 22  1  0  0  0  0
 10 12  1  0  0  0  0
 10 23  1  0  0  0  0
 10 24  1  0  0  0  0
 11 12  2  0  0  0  0
 11 25  1  0  0  0  0
 12 16  1  0  0  0  0
 13 15  1  0  0  0  0
 13 27  1  0  0  0  0
 13 28  1  0  0  0  0
 14 31  1  0  0  0  0
 14 32  1  0  0  0  0
 14 33  1  0  0  0  0
 15 18  1  0  0  0  0
 15 34  1  0  0  0  0
 15 35  1  0  0  0  0
 17 19  1  0  0  0  0
 18 36  1  0  0  0  0
 18 37  1  0  0  0  0
 18 38  1  0  0  0  0
 19 39  1  0  0  0  0
 19 40  1  0  0  0  0
 19 41  1  0  0  0  0
M  END
> <PUBCHEM_COMPOUND_CID>
506125
> <PUBCHEM_COMPOUND_CANONICALIZED>
1
> <PUBCHEM_CACTVS_COMPLEXITY>
381
> <PUBCHEM_CACTVS_HBOND_ACCEPTOR>
5
> <PUBCHEM_CACTVS_HBOND_DONOR>
3
> <PUBCHEM_CACTVS_ROTATABLE_BOND>
5
> <PUBCHEM_CACTVS_SUBSKEYS>
AAADceBzMAAAAAAAAAAAAAAAAAAAAAAAAAAgAAAAAAAAAAAAAAAAHgAQCAAADCjBgAQCCAPAAgCIAiHSGACAAAAgAAAACIEIAEgARBIAwQAUUAAElgCIEYO82SOQAAAAAAAAAAAAAAAAAAAAAAAAAAAAAA==
> <PUBCHEM_IUPAC_OPENEYE_NAME>
(3R,4R,5R)-4-acetamido-5-amino-3-[methyl(propyl)amino]cyclohexene-1-carboxylic acid
> <PUBCHEM_IUPAC_CAS_NAME>
(3R,4R,5R)-4-acetamido-5-amino-3-[methyl(propyl)amino]-1-cyclohexenecarboxylic acid
> <PUBCHEM_IUPAC_NAME_MARKUP>
(3<I>R</I>,4<I>R</I>,5<I>R</I>)-4-acetamido-5-amino-3-[methyl(propyl)amino]cyclohexene-1-carboxylic acid
> <PUBCHEM_IUPAC_NAME>
(3R,4R,5R)-4-acetamido-5-amino-3-[methyl(propyl)amino]cyclohexene-1-carboxylic acid
> <PUBCHEM_IUPAC_SYSTEMATIC_NAME>
(3R,4R,5R)-4-acetamido-5-azanyl-3-[methyl(propyl)amino]cyclohexene-1-carboxylic acid
> <PUBCHEM_IUPAC_TRADITIONAL_NAME>
(3R,4R,5R)-4-acetamido-5-amino-3-[methyl(propyl)amino]cyclohexene-1-carboxylic acid
> <PUBCHEM_IUPAC_INCHI>
InChI=1S/C13H23N3O3/c1-4-5-16(3)11-7-9(13(18)19)6-10(14)12(11)15-8(2)17/h7,10-12H,4-6,14H2,1-3H3,(H,15,17)(H,18,19)/t10-,11-,12-/m1/s1
> <PUBCHEM_IUPAC_INCHIKEY>
NXAIKJLHJJDCAN-IJLUTSLNSA-N
> <PUBCHEM_XLOGP3_AA>
-2.6
> <PUBCHEM_EXACT_MASS>
269.17394160
> <PUBCHEM_MOLECULAR_FORMULA>
C13H23N3O3
> <PUBCHEM_MOLECULAR_WEIGHT>
269.34
> <PUBCHEM_OPENEYE_CAN_SMILES>
CCCN(C)C1C=C(CC(C1NC(=O)C)N)C(=O)O
> <PUBCHEM_OPENEYE_ISO_SMILES>
CCCN(C)[C@@H]1C=C(C[C@H]([C@H]1NC(=O)C)N)C(=O)O
> <PUBCHEM_CACTVS_TPSA>
95.7
> <PUBCHEM_MONOISOTOPIC_WEIGHT>
269.17394160
> <PUBCHEM_TOTAL_CHARGE>
0
> <PUBCHEM_HEAVY_ATOM_COUNT>
19
> <PUBCHEM_ATOM_DEF_STEREO_COUNT>
3
> <PUBCHEM_ATOM_UDEF_STEREO_COUNT>
0
> <PUBCHEM_BOND_DEF_STEREO_COUNT>
0
> <PUBCHEM_BOND_UDEF_STEREO_COUNT>
0
> <PUBCHEM_ISOTOPIC_ATOM_COUNT>
0
> <PUBCHEM_COMPONENT_COUNT>
1
> <PUBCHEM_CACTVS_TAUTO_COUNT>
-1
> <PUBCHEM_COORDINATE_TYPE>
1
5
255
> <PUBCHEM_BONDANNOTATIONS>
8  4  5
7  5  6
9  6  6
$$$$
