506155
  -OEChem-10302200282D
 62 63  0     1  0  0  0  0  0999 V2000
    3.2788   -3.0312    0.0000 S   0  0  0  0  0  0  0  0  0  0  0  0
    2.0000   -1.2712    0.0000 O   0  0  0  0  0  0  0  0  0  0  0  0
    2.3277   -2.7222    0.0000 O   0  0  0  0  0  0  0  0  0  0  0  0
    4.2298   -3.3402    0.0000 O   0  0  0  0  0  0  0  0  0  0  0  0
    5.1279    1.2284    0.0000 O   0  0  0  0  0  0  0  0  0  0  0  0
    8.3741    2.7976    0.0000 O   0  0  0  0  0  0  0  0  0  0  0  0
    8.7312    1.1027    0.0000 O   0  0  0  0  0  0  0  0  0  0  0  0
    5.4851   -0.4664    0.0000 N   0  0  0  0  0  0  0  0  0  0  0  0
    3.5878   -2.0802    0.0000 N   0  0  0  0  0  0  0  0  0  0  0  0
    7.0849    1.6408    0.0000 N   0  0  0  0  0  0  0  0  0  0  0  0
    4.5388   -0.7712    0.0000 C   0  0  1  0  0  0  0  0  0  0  0  0
    4.5388   -1.7712    0.0000 C   0  0  2  0  0  0  0  0  0  0  0  0
    3.5878   -0.4621    0.0000 C   0  0  1  0  0  0  0  0  0  0  0  0
    5.4851   -2.0759    0.0000 C   0  0  0  0  0  0  0  0  0  0  0  0
    6.0687   -1.2712    0.0000 C   0  0  0  0  0  0  0  0  0  0  0  0
    3.0000   -1.2712    0.0000 C   0  0  0  0  0  0  0  0  0  0  0  0
    3.2788    0.4889    0.0000 C   0  0  0  0  0  0  0  0  0  0  0  0
    5.7957    0.4841    0.0000 C   0  0  0  0  0  0  0  0  0  0  0  0
    6.7742    0.6903    0.0000 C   0  0  2  0  0  0  0  0  0  0  0  0
    2.3006    0.6968    0.0000 C   0  0  0  0  0  0  0  0  0  0  0  0
    2.9698   -3.9823    0.0000 C   0  0  0  0  0  0  0  0  0  0  0  0
    7.4421   -0.0540    0.0000 C   0  0  0  0  0  0  0  0  0  0  0  0
    8.4206    0.1522    0.0000 C   0  0  0  0  0  0  0  0  0  0  0  0
    7.1314   -1.0045    0.0000 C   0  0  0  0  0  0  0  0  0  0  0  0
    8.0634    1.8470    0.0000 C   0  0  0  0  0  0  0  0  0  0  0  0
    9.3526    3.0038    0.0000 C   0  0  0  0  0  0  0  0  0  0  0  0
   10.3311    3.2100    0.0000 C   0  0  0  0  0  0  0  0  0  0  0  0
    9.1464    3.9823    0.0000 C   0  0  0  0  0  0  0  0  0  0  0  0
    9.5588    2.0253    0.0000 C   0  0  0  0  0  0  0  0  0  0  0  0
    4.5400    0.0788    0.0000 H   0  0  0  0  0  0  0  0  0  0  0  0
    4.5400   -2.6212    0.0000 H   0  0  0  0  0  0  0  0  0  0  0  0
    2.9754   -0.3652    0.0000 H   0  0  0  0  0  0  0  0  0  0  0  0
    5.2340   -2.6428    0.0000 H   0  0  0  0  0  0  0  0  0  0  0  0
    6.0224   -2.3851    0.0000 H   0  0  0  0  0  0  0  0  0  0  0  0
    6.5295   -1.6859    0.0000 H   0  0  0  0  0  0  0  0  0  0  0  0
    6.5295   -0.8564    0.0000 H   0  0  0  0  0  0  0  0  0  0  0  0
    3.8927    0.5752    0.0000 H   0  0  0  0  0  0  0  0  0  0  0  0
    3.3004    1.1085    0.0000 H   0  0  0  0  0  0  0  0  0  0  0  0
    7.3809    0.8182    0.0000 H   0  0  0  0  0  0  0  0  0  0  0  0
    2.4295    1.3033    0.0000 H   0  0  0  0  0  0  0  0  0  0  0  0
    1.6942    0.8257    0.0000 H   0  0  0  0  0  0  0  0  0  0  0  0
    2.1717    0.0904    0.0000 H   0  0  0  0  0  0  0  0  0  0  0  0
    2.3801   -3.7907    0.0000 H   0  0  0  0  0  0  0  0  0  0  0  0
    2.7782   -4.5720    0.0000 H   0  0  0  0  0  0  0  0  0  0  0  0
    3.5594   -4.1739    0.0000 H   0  0  0  0  0  0  0  0  0  0  0  0
    6.8354   -0.1818    0.0000 H   0  0  0  0  0  0  0  0  0  0  0  0
    6.6708    2.1023    0.0000 H   0  0  0  0  0  0  0  0  0  0  0  0
    8.5484   -0.4544    0.0000 H   0  0  0  0  0  0  0  0  0  0  0  0
    9.0272    0.2801    0.0000 H   0  0  0  0  0  0  0  0  0  0  0  0
    8.2927    0.7589    0.0000 H   0  0  0  0  0  0  0  0  0  0  0  0
    6.5421   -0.8119    0.0000 H   0  0  0  0  0  0  0  0  0  0  0  0
    6.9388   -1.5938    0.0000 H   0  0  0  0  0  0  0  0  0  0  0  0
    7.7207   -1.1971    0.0000 H   0  0  0  0  0  0  0  0  0  0  0  0
   10.4589    2.6033    0.0000 H   0  0  0  0  0  0  0  0  0  0  0  0
   10.9377    3.3379    0.0000 H   0  0  0  0  0  0  0  0  0  0  0  0
   10.2032    3.8167    0.0000 H   0  0  0  0  0  0  0  0  0  0  0  0
    9.7530    4.1102    0.0000 H   0  0  0  0  0  0  0  0  0  0  0  0
    9.0185    4.5890    0.0000 H   0  0  0  0  0  0  0  0  0  0  0  0
    8.5397    3.8544    0.0000 H   0  0  0  0  0  0  0  0  0  0  0  0
    8.9521    1.8974    0.0000 H   0  0  0  0  0  0  0  0  0  0  0  0
    9.6866    1.4186    0.0000 H   0  0  0  0  0  0  0  0  0  0  0  0
   10.1655    2.1531    0.0000 H   0  0  0  0  0  0  0  0  0  0  0  0
  1  3  2  0  0  0  0
  1  4  2  0  0  0  0
  1  9  1  0  0  0  0
  1 21  1  0  0  0  0
  2 16  2  0  0  0  0
  5 18  2  0  0  0  0
  6 25  1  0  0  0  0
  6 26  1  0  0  0  0
  7 25  2  0  0  0  0
  8 11  1  0  0  0  0
  8 15  1  0  0  0  0
  8 18  1  0  0  0  0
  9 12  1  0  0  0  0
  9 16  1  0  0  0  0
 19 10  1  1  0  0  0
 10 25  1  0  0  0  0
 10 47  1  0  0  0  0
 11 12  1  0  0  0  0
 11 13  1  0  0  0  0
 11 30  1  6  0  0  0
 12 14  1  0  0  0  0
 12 31  1  1  0  0  0
 13 16  1  0  0  0  0
 13 17  1  1  0  0  0
 13 32  1  0  0  0  0
 14 15  1  0  0  0  0
 14 33  1  0  0  0  0
 14 34  1  0  0  0  0
 15 35  1  0  0  0  0
 15 36  1  0  0  0  0
 17 20  1  0  0  0  0
 17 37  1  0  0  0  0
 17 38  1  0  0  0  0
 18 19  1  0  0  0  0
 19 22  1  0  0  0  0
 19 39  1  0  0  0  0
 20 40  1  0  0  0  0
 20 41  1  0  0  0  0
 20 42  1  0  0  0  0
 21 43  1  0  0  0  0
 21 44  1  0  0  0  0
 21 45  1  0  0  0  0
 22 23  1  0  0  0  0
 22 24  1  0  0  0  0
 22 46  1  0  0  0  0
 23 48  1  0  0  0  0
 23 49  1  0  0  0  0
 23 50  1  0  0  0  0
 24 51  1  0  0  0  0
 24 52  1  0  0  0  0
 24 53  1  0  0  0  0
 26 27  1  0  0  0  0
 26 28  1  0  0  0  0
 26 29  1  0  0  0  0
 27 54  1  0  0  0  0
 27 55  1  0  0  0  0
 27 56  1  0  0  0  0
 28 57  1  0  0  0  0
 28 58  1  0  0  0  0
 28 59  1  0  0  0  0
 29 60  1  0  0  0  0
 29 61  1  0  0  0  0
 29 62  1  0  0  0  0
M  END
> <PUBCHEM_COMPOUND_CID>
506155
> <PUBCHEM_COMPOUND_CANONICALIZED>
1
> <PUBCHEM_CACTVS_COMPLEXITY>
768
> <PUBCHEM_CACTVS_HBOND_ACCEPTOR>
6
> <PUBCHEM_CACTVS_HBOND_DONOR>
1
> <PUBCHEM_CACTVS_ROTATABLE_BOND>
7
> <PUBCHEM_CACTVS_SUBSKEYS>
AAADcfB7OABAAAAAAAAAAAAAAAAAAWLAAAAAAAAAAAAWAAAAAAAAHgQQQAAADWzBgASCCAPABAIIAAEQGHAAAAAAAAAAAIGIAAEAQBoAwCAcAAAAFgCAAAEciAAOAAAAAAAAAAAAAAAAAAAAAAAAAAAAAA==
> <PUBCHEM_IUPAC_OPENEYE_NAME>
tert-butyl N-[(1S)-1-[(3aS,6S,6aR)-6-ethyl-4-methylsulfonyl-5-oxo-3,3a,6,6a-tetrahydro-2H-pyrrolo[3,2-b]pyrrole-1-carbonyl]-2-methyl-propyl]carbamate
> <PUBCHEM_IUPAC_CAS_NAME>
N-[(2S)-1-[(3aS,6S,6aR)-6-ethyl-4-methylsulfonyl-5-oxo-3,3a,6,6a-tetrahydro-2H-pyrrolo[3,2-b]pyrrol-1-yl]-3-methyl-1-oxobutan-2-yl]carbamic acid tert-butyl ester
> <PUBCHEM_IUPAC_NAME_MARKUP>
<I>tert</I>-butyl <I>N</I>-[(2<I>S</I>)-1-[(3<I>a</I><I>S</I>,6<I>S</I>,6<I>a</I><I>R</I>)-6-ethyl-4-methylsulfonyl-5-oxo-3,3<I>a</I>,6,6<I>a</I>-tetrahydro-2<I>H</I>-pyrrolo[3,2-b]pyrrol-1-yl]-3-methyl-1-oxobutan-2-yl]carbamate
> <PUBCHEM_IUPAC_NAME>
tert-butyl N-[(2S)-1-[(3aS,6S,6aR)-6-ethyl-4-methylsulfonyl-5-oxo-3,3a,6,6a-tetrahydro-2H-pyrrolo[3,2-b]pyrrol-1-yl]-3-methyl-1-oxobutan-2-yl]carbamate
> <PUBCHEM_IUPAC_SYSTEMATIC_NAME>
tert-butyl N-[(2S)-1-[(3aS,6S,6aR)-6-ethyl-4-methylsulfonyl-5-oxidanylidene-3,3a,6,6a-tetrahydro-2H-pyrrolo[3,2-b]pyrrol-1-yl]-3-methyl-1-oxidanylidene-butan-2-yl]carbamate
> <PUBCHEM_IUPAC_TRADITIONAL_NAME>
N-[(1S)-1-[(3aS,6S,6aR)-6-ethyl-5-keto-4-mesyl-3,3a,6,6a-tetrahydro-2H-pyrrolo[3,2-b]pyrrole-1-carbonyl]-2-methyl-propyl]carbamic acid tert-butyl ester
> <PUBCHEM_IUPAC_INCHI>
InChI=1S/C19H33N3O6S/c1-8-12-15-13(22(16(12)23)29(7,26)27)9-10-21(15)17(24)14(11(2)3)20-18(25)28-19(4,5)6/h11-15H,8-10H2,1-7H3,(H,20,25)/t12-,13-,14-,15+/m0/s1
> <PUBCHEM_IUPAC_INCHIKEY>
RVRXGFXYFFQPPA-ZQDZILKHSA-N
> <PUBCHEM_XLOGP3_AA>
1.8
> <PUBCHEM_EXACT_MASS>
431.20900695
> <PUBCHEM_MOLECULAR_FORMULA>
C19H33N3O6S
> <PUBCHEM_MOLECULAR_WEIGHT>
431.5
> <PUBCHEM_OPENEYE_CAN_SMILES>
CCC1C2C(CCN2C(=O)C(C(C)C)NC(=O)OC(C)(C)C)N(C1=O)S(=O)(=O)C
> <PUBCHEM_OPENEYE_ISO_SMILES>
CC[C@H]1[C@@H]2[C@H](CCN2C(=O)[C@H](C(C)C)NC(=O)OC(C)(C)C)N(C1=O)S(=O)(=O)C
> <PUBCHEM_CACTVS_TPSA>
122
> <PUBCHEM_MONOISOTOPIC_WEIGHT>
431.20900695
> <PUBCHEM_TOTAL_CHARGE>
0
> <PUBCHEM_HEAVY_ATOM_COUNT>
29
> <PUBCHEM_ATOM_DEF_STEREO_COUNT>
4
> <PUBCHEM_ATOM_UDEF_STEREO_COUNT>
0
> <PUBCHEM_BOND_DEF_STEREO_COUNT>
0
> <PUBCHEM_BOND_UDEF_STEREO_COUNT>
0
> <PUBCHEM_ISOTOPIC_ATOM_COUNT>
0
> <PUBCHEM_COMPONENT_COUNT>
1
> <PUBCHEM_CACTVS_TAUTO_COUNT>
-1
> <PUBCHEM_COORDINATE_TYPE>
1
5
255
> <PUBCHEM_BONDANNOTATIONS>
19  10  5
11  30  6
12  31  5
13  17  5
$$$$
