506179
  -OEChem-10302200282D
 67 72  0     1  0  0  0  0  0999 V2000
    6.8078    2.1244    0.0000 O   0  0  0  0  0  0  0  0  0  0  0  0
    5.9418   -1.3756    0.0000 N   0  0  0  0  0  0  0  0  0  0  0  0
    5.9418    0.6244    0.0000 N   0  0  0  0  0  0  0  0  0  0  0  0
    9.4465   -3.2882    0.0000 N   0  0  0  0  0  0  0  0  0  0  0  0
    2.6067    3.7914    0.0000 N   0  0  0  0  0  0  0  0  0  0  0  0
    5.9418   -2.3756    0.0000 C   0  0  3  0  0  0  0  0  0  0  0  0
    6.7508   -2.9634    0.0000 C   0  0  0  0  0  0  0  0  0  0  0  0
    6.8078   -0.8756    0.0000 C   0  0  0  0  0  0  0  0  0  0  0  0
    5.0757   -0.8756    0.0000 C   0  0  0  0  0  0  0  0  0  0  0  0
    5.1328   -2.9634    0.0000 C   0  0  0  0  0  0  0  0  0  0  0  0
    6.8078    0.1244    0.0000 C   0  0  0  0  0  0  0  0  0  0  0  0
    5.0757    0.1244    0.0000 C   0  0  0  0  0  0  0  0  0  0  0  0
    6.4418   -3.9145    0.0000 C   0  0  0  0  0  0  0  0  0  0  0  0
    5.4418   -3.9145    0.0000 C   0  0  0  0  0  0  0  0  0  0  0  0
    7.7662   -2.7312    0.0000 C   0  0  0  0  0  0  0  0  0  0  0  0
    4.1173   -2.7312    0.0000 C   0  0  0  0  0  0  0  0  0  0  0  0
    7.1267   -4.6992    0.0000 C   0  0  0  0  0  0  0  0  0  0  0  0
    8.4691   -3.4999    0.0000 C   0  0  0  0  0  0  0  0  0  0  0  0
    4.7568   -4.6992    0.0000 C   0  0  0  0  0  0  0  0  0  0  0  0
    5.9418    1.6244    0.0000 C   0  0  0  0  0  0  0  0  0  0  0  0
    8.1472   -4.4905    0.0000 C   0  0  0  0  0  0  0  0  0  0  0  0
    3.4144   -3.4999    0.0000 C   0  0  0  0  0  0  0  0  0  0  0  0
    3.7363   -4.4905    0.0000 C   0  0  0  0  0  0  0  0  0  0  0  0
    5.0757    2.1244    0.0000 C   0  0  0  0  0  0  0  0  0  0  0  0
   10.1185   -4.0287    0.0000 C   0  0  0  0  0  0  0  0  0  0  0  0
    9.7518   -2.3360    0.0000 C   0  0  0  0  0  0  0  0  0  0  0  0
    5.0757    3.1244    0.0000 C   0  0  0  0  0  0  0  0  0  0  0  0
    4.2097    1.6244    0.0000 C   0  0  0  0  0  0  0  0  0  0  0  0
   11.0958   -3.8171    0.0000 C   0  0  0  0  0  0  0  0  0  0  0  0
   10.7292   -2.1243    0.0000 C   0  0  0  0  0  0  0  0  0  0  0  0
    4.2097    3.6244    0.0000 C   0  0  0  0  0  0  0  0  0  0  0  0
    3.3437    3.1244    0.0000 C   0  0  0  0  0  0  0  0  0  0  0  0
    3.3437    2.1244    0.0000 C   0  0  0  0  0  0  0  0  0  0  0  0
    4.0005    4.5962    0.0000 C   0  0  0  0  0  0  0  0  0  0  0  0
    3.0118    4.6992    0.0000 C   0  0  0  0  0  0  0  0  0  0  0  0
    6.4942   -2.0942    0.0000 H   0  0  0  0  0  0  0  0  0  0  0  0
    7.0198   -1.4583    0.0000 H   0  0  0  0  0  0  0  0  0  0  0  0
    7.4184   -0.7680    0.0000 H   0  0  0  0  0  0  0  0  0  0  0  0
    4.4652   -0.7680    0.0000 H   0  0  0  0  0  0  0  0  0  0  0  0
    4.8637   -1.4583    0.0000 H   0  0  0  0  0  0  0  0  0  0  0  0
    7.4184    0.0167    0.0000 H   0  0  0  0  0  0  0  0  0  0  0  0
    7.0198    0.7070    0.0000 H   0  0  0  0  0  0  0  0  0  0  0  0
    4.8637    0.7070    0.0000 H   0  0  0  0  0  0  0  0  0  0  0  0
    4.4652    0.0167    0.0000 H   0  0  0  0  0  0  0  0  0  0  0  0
    7.9510   -2.1394    0.0000 H   0  0  0  0  0  0  0  0  0  0  0  0
    3.9326   -2.1394    0.0000 H   0  0  0  0  0  0  0  0  0  0  0  0
    6.9283   -5.2866    0.0000 H   0  0  0  0  0  0  0  0  0  0  0  0
    4.9552   -5.2866    0.0000 H   0  0  0  0  0  0  0  0  0  0  0  0
    8.5603   -4.9529    0.0000 H   0  0  0  0  0  0  0  0  0  0  0  0
    2.8085   -3.3686    0.0000 H   0  0  0  0  0  0  0  0  0  0  0  0
    3.3232   -4.9529    0.0000 H   0  0  0  0  0  0  0  0  0  0  0  0
    9.5939   -4.3593    0.0000 H   0  0  0  0  0  0  0  0  0  0  0  0
   10.3529   -4.6027    0.0000 H   0  0  0  0  0  0  0  0  0  0  0  0
    9.7278   -1.7164    0.0000 H   0  0  0  0  0  0  0  0  0  0  0  0
    9.1375   -2.2520    0.0000 H   0  0  0  0  0  0  0  0  0  0  0  0
    5.6127    3.4344    0.0000 H   0  0  0  0  0  0  0  0  0  0  0  0
    4.2097    1.0044    0.0000 H   0  0  0  0  0  0  0  0  0  0  0  0
   11.2270   -4.4230    0.0000 H   0  0  0  0  0  0  0  0  0  0  0  0
   11.7017   -3.6858    0.0000 H   0  0  0  0  0  0  0  0  0  0  0  0
   10.9646   -3.2111    0.0000 H   0  0  0  0  0  0  0  0  0  0  0  0
   10.8604   -2.7302    0.0000 H   0  0  0  0  0  0  0  0  0  0  0  0
   11.3351   -1.9930    0.0000 H   0  0  0  0  0  0  0  0  0  0  0  0
   10.5979   -1.5183    0.0000 H   0  0  0  0  0  0  0  0  0  0  0  0
    2.8068    1.8144    0.0000 H   0  0  0  0  0  0  0  0  0  0  0  0
    4.4146    5.0576    0.0000 H   0  0  0  0  0  0  0  0  0  0  0  0
    2.0000    3.6636    0.0000 H   0  0  0  0  0  0  0  0  0  0  0  0
    2.7018    5.2362    0.0000 H   0  0  0  0  0  0  0  0  0  0  0  0
  1 20  2  0  0  0  0
  2  6  1  0  0  0  0
  2  8  1  0  0  0  0
  2  9  1  0  0  0  0
  3 11  1  0  0  0  0
  3 12  1  0  0  0  0
  3 20  1  0  0  0  0
  4 18  1  0  0  0  0
  4 25  1  0  0  0  0
  4 26  1  0  0  0  0
  5 32  1  0  0  0  0
  5 35  1  0  0  0  0
  5 66  1  0  0  0  0
  6  7  1  0  0  0  0
  6 10  1  0  0  0  0
  6 36  1  0  0  0  0
  7 13  2  0  0  0  0
  7 15  1  0  0  0  0
  8 11  1  0  0  0  0
  8 37  1  0  0  0  0
  8 38  1  0  0  0  0
  9 12  1  0  0  0  0
  9 39  1  0  0  0  0
  9 40  1  0  0  0  0
 10 14  1  0  0  0  0
 10 16  2  0  0  0  0
 11 41  1  0  0  0  0
 11 42  1  0  0  0  0
 12 43  1  0  0  0  0
 12 44  1  0  0  0  0
 13 14  1  0  0  0  0
 13 17  1  0  0  0  0
 14 19  2  0  0  0  0
 15 18  2  0  0  0  0
 15 45  1  0  0  0  0
 16 22  1  0  0  0  0
 16 46  1  0  0  0  0
 17 21  2  0  0  0  0
 17 47  1  0  0  0  0
 18 21  1  0  0  0  0
 19 23  1  0  0  0  0
 19 48  1  0  0  0  0
 20 24  1  0  0  0  0
 21 49  1  0  0  0  0
 22 23  2  0  0  0  0
 22 50  1  0  0  0  0
 23 51  1  0  0  0  0
 24 27  2  0  0  0  0
 24 28  1  0  0  0  0
 25 29  1  0  0  0  0
 25 52  1  0  0  0  0
 25 53  1  0  0  0  0
 26 30  1  0  0  0  0
 26 54  1  0  0  0  0
 26 55  1  0  0  0  0
 27 31  1  0  0  0  0
 27 56  1  0  0  0  0
 28 33  2  0  0  0  0
 28 57  1  0  0  0  0
 29 58  1  0  0  0  0
 29 59  1  0  0  0  0
 29 60  1  0  0  0  0
 30 61  1  0  0  0  0
 30 62  1  0  0  0  0
 30 63  1  0  0  0  0
 31 32  2  0  0  0  0
 31 34  1  0  0  0  0
 32 33  1  0  0  0  0
 33 64  1  0  0  0  0
 34 35  2  0  0  0  0
 34 65  1  0  0  0  0
 35 67  1  0  0  0  0
M  END
> <PUBCHEM_COMPOUND_CID>
506179
> <PUBCHEM_COMPOUND_CANONICALIZED>
1
> <PUBCHEM_CACTVS_COMPLEXITY>
732
> <PUBCHEM_CACTVS_HBOND_ACCEPTOR>
3
> <PUBCHEM_CACTVS_HBOND_DONOR>
1
> <PUBCHEM_CACTVS_ROTATABLE_BOND>
5
> <PUBCHEM_CACTVS_SUBSKEYS>
AAADcfB7oAAAAAAAAAAAAAAAAAAAAeIAAAA8YMEAAAAAAHgB9AAAHgAQAAAADCjBngQ+wPPJkACoAzV3VACCgCA1AiAI2aE4ZNgIYPLAlZGUIQhglgDIyYcYicCeiAACQAASAAAQAASAACQAASAACQAAAA==
> <PUBCHEM_IUPAC_OPENEYE_NAME>
[4-[2-(diethylamino)-9H-fluoren-9-yl]piperazin-1-yl]-(1H-indol-5-yl)methanone
> <PUBCHEM_IUPAC_CAS_NAME>
[4-[2-(diethylamino)-9H-fluoren-9-yl]-1-piperazinyl]-(1H-indol-5-yl)methanone
> <PUBCHEM_IUPAC_NAME_MARKUP>
[4-[2-(diethylamino)-9<I>H</I>-fluoren-9-yl]piperazin-1-yl]-(1<I>H</I>-indol-5-yl)methanone
> <PUBCHEM_IUPAC_NAME>
[4-[2-(diethylamino)-9H-fluoren-9-yl]piperazin-1-yl]-(1H-indol-5-yl)methanone
> <PUBCHEM_IUPAC_SYSTEMATIC_NAME>
[4-[2-(diethylamino)-9H-fluoren-9-yl]piperazin-1-yl]-(1H-indol-5-yl)methanone
> <PUBCHEM_IUPAC_TRADITIONAL_NAME>
[4-[2-(diethylamino)-9H-fluoren-9-yl]piperazino]-(1H-indol-5-yl)methanone
> <PUBCHEM_IUPAC_INCHI>
InChI=1S/C30H32N4O/c1-3-32(4-2)23-10-11-25-24-7-5-6-8-26(24)29(27(25)20-23)33-15-17-34(18-16-33)30(35)22-9-12-28-21(19-22)13-14-31-28/h5-14,19-20,29,31H,3-4,15-18H2,1-2H3
> <PUBCHEM_IUPAC_INCHIKEY>
GSADZFPHYNQDRC-UHFFFAOYSA-N
> <PUBCHEM_XLOGP3_AA>
5.1
> <PUBCHEM_EXACT_MASS>
464.25761166
> <PUBCHEM_MOLECULAR_FORMULA>
C30H32N4O
> <PUBCHEM_MOLECULAR_WEIGHT>
464.6
> <PUBCHEM_OPENEYE_CAN_SMILES>
CCN(CC)C1=CC2=C(C=C1)C3=CC=CC=C3C2N4CCN(CC4)C(=O)C5=CC6=C(C=C5)NC=C6
> <PUBCHEM_OPENEYE_ISO_SMILES>
CCN(CC)C1=CC2=C(C=C1)C3=CC=CC=C3C2N4CCN(CC4)C(=O)C5=CC6=C(C=C5)NC=C6
> <PUBCHEM_CACTVS_TPSA>
42.6
> <PUBCHEM_MONOISOTOPIC_WEIGHT>
464.25761166
> <PUBCHEM_TOTAL_CHARGE>
0
> <PUBCHEM_HEAVY_ATOM_COUNT>
35
> <PUBCHEM_ATOM_DEF_STEREO_COUNT>
0
> <PUBCHEM_ATOM_UDEF_STEREO_COUNT>
1
> <PUBCHEM_BOND_DEF_STEREO_COUNT>
0
> <PUBCHEM_BOND_UDEF_STEREO_COUNT>
0
> <PUBCHEM_ISOTOPIC_ATOM_COUNT>
0
> <PUBCHEM_COMPONENT_COUNT>
1
> <PUBCHEM_CACTVS_TAUTO_COUNT>
-1
> <PUBCHEM_COORDINATE_TYPE>
1
5
255
> <PUBCHEM_BONDANNOTATIONS>
10  14  8
10  16  8
13  17  8
14  19  8
15  18  8
16  22  8
17  21  8
18  21  8
19  23  8
6  2  3
22  23  8
24  27  8
24  28  8
27  31  8
28  33  8
31  32  8
31  34  8
32  33  8
34  35  8
5  32  8
5  35  8
7  13  8
7  15  8
$$$$
