506114
  -OEChem-10302200282D
 49 50  0     1  0  0  0  0  0999 V2000
    6.9641   -3.3886    0.0000 O   0  0  0  0  0  0  0  0  0  0  0  0
    7.8301   -1.8886    0.0000 O   0  0  0  0  0  0  0  0  0  0  0  0
    2.0000   -1.2547    0.0000 O   0  0  0  0  0  0  0  0  0  0  0  0
    5.2320    0.6114    0.0000 N   0  0  0  0  0  0  0  0  0  0  0  0
    3.5000   -0.3886    0.0000 N   0  0  0  0  0  0  0  0  0  0  0  0
    3.5000   -2.3886    0.0000 N   0  0  0  0  0  0  0  0  0  0  0  0
    5.2320    2.0256    0.0000 C   0  0  0  0  0  0  0  0  0  0  0  0
    5.9391    1.3185    0.0000 C   0  0  0  0  0  0  0  0  0  0  0  0
    4.5249    1.3185    0.0000 C   0  0  0  0  0  0  0  0  0  0  0  0
    5.2320   -0.3886    0.0000 C   0  0  1  0  0  0  0  0  0  0  0  0
    5.9391    2.7327    0.0000 C   0  0  0  0  0  0  0  0  0  0  0  0
    4.5249    2.7327    0.0000 C   0  0  0  0  0  0  0  0  0  0  0  0
    4.3660   -0.8886    0.0000 C   0  0  1  0  0  0  0  0  0  0  0  0
    4.3660   -1.8886    0.0000 C   0  0  2  0  0  0  0  0  0  0  0  0
    6.0981   -0.8886    0.0000 C   0  0  0  0  0  0  0  0  0  0  0  0
    5.2320   -2.3886    0.0000 C   0  0  0  0  0  0  0  0  0  0  0  0
    5.6803    3.6986    0.0000 C   0  0  0  0  0  0  0  0  0  0  0  0
    3.5590    2.4739    0.0000 C   0  0  0  0  0  0  0  0  0  0  0  0
    6.0981   -1.8886    0.0000 C   0  0  0  0  0  0  0  0  0  0  0  0
    6.9641   -2.3886    0.0000 C   0  0  0  0  0  0  0  0  0  0  0  0
    2.5000   -0.3886    0.0000 C   0  0  0  0  0  0  0  0  0  0  0  0
    2.0000    0.4775    0.0000 C   0  0  0  0  0  0  0  0  0  0  0  0
    6.3776    0.8801    0.0000 H   0  0  0  0  0  0  0  0  0  0  0  0
    6.3776    1.7569    0.0000 H   0  0  0  0  0  0  0  0  0  0  0  0
    4.0865    1.7569    0.0000 H   0  0  0  0  0  0  0  0  0  0  0  0
    4.0865    0.8801    0.0000 H   0  0  0  0  0  0  0  0  0  0  0  0
    5.7690   -0.0786    0.0000 H   0  0  0  0  0  0  0  0  0  0  0  0
    6.2948    2.2248    0.0000 H   0  0  0  0  0  0  0  0  0  0  0  0
    6.5010    2.9947    0.0000 H   0  0  0  0  0  0  0  0  0  0  0  0
    5.0328    3.0883    0.0000 H   0  0  0  0  0  0  0  0  0  0  0  0
    4.2629    3.2946    0.0000 H   0  0  0  0  0  0  0  0  0  0  0  0
    4.3660   -0.2686    0.0000 H   0  0  0  0  0  0  0  0  0  0  0  0
    4.3660   -2.5086    0.0000 H   0  0  0  0  0  0  0  0  0  0  0  0
    6.6350   -0.5786    0.0000 H   0  0  0  0  0  0  0  0  0  0  0  0
    4.8335   -2.8636    0.0000 H   0  0  0  0  0  0  0  0  0  0  0  0
    5.6306   -2.8636    0.0000 H   0  0  0  0  0  0  0  0  0  0  0  0
    6.2792    3.8591    0.0000 H   0  0  0  0  0  0  0  0  0  0  0  0
    5.5198    4.2975    0.0000 H   0  0  0  0  0  0  0  0  0  0  0  0
    5.0814    3.5382    0.0000 H   0  0  0  0  0  0  0  0  0  0  0  0
    3.3985    3.0728    0.0000 H   0  0  0  0  0  0  0  0  0  0  0  0
    2.9601    2.3134    0.0000 H   0  0  0  0  0  0  0  0  0  0  0  0
    3.7195    1.8750    0.0000 H   0  0  0  0  0  0  0  0  0  0  0  0
    3.5000    0.2314    0.0000 H   0  0  0  0  0  0  0  0  0  0  0  0
    3.5000   -3.0086    0.0000 H   0  0  0  0  0  0  0  0  0  0  0  0
    2.8800   -2.3886    0.0000 H   0  0  0  0  0  0  0  0  0  0  0  0
    2.5370    0.7875    0.0000 H   0  0  0  0  0  0  0  0  0  0  0  0
    1.6901    1.0144    0.0000 H   0  0  0  0  0  0  0  0  0  0  0  0
    1.4631    0.1675    0.0000 H   0  0  0  0  0  0  0  0  0  0  0  0
    7.5010   -3.6986    0.0000 H   0  0  0  0  0  0  0  0  0  0  0  0
  1 20  1  0  0  0  0
  1 49  1  0  0  0  0
  2 20  2  0  0  0  0
  3 21  2  0  0  0  0
  4  8  1  0  0  0  0
  4  9  1  0  0  0  0
 10  4  1  6  0  0  0
 13  5  1  1  0  0  0
  5 21  1  0  0  0  0
  5 43  1  0  0  0  0
 14  6  1  6  0  0  0
  6 44  1  0  0  0  0
  6 45  1  0  0  0  0
  7  8  1  0  0  0  0
  7  9  1  0  0  0  0
  7 11  1  0  0  0  0
  7 12  1  0  0  0  0
  8 23  1  0  0  0  0
  8 24  1  0  0  0  0
  9 25  1  0  0  0  0
  9 26  1  0  0  0  0
 10 13  1  0  0  0  0
 10 15  1  0  0  0  0
 10 27  1  0  0  0  0
 11 17  1  0  0  0  0
 11 28  1  0  0  0  0
 11 29  1  0  0  0  0
 12 18  1  0  0  0  0
 12 30  1  0  0  0  0
 12 31  1  0  0  0  0
 13 14  1  0  0  0  0
 13 32  1  0  0  0  0
 14 16  1  0  0  0  0
 14 33  1  0  0  0  0
 15 19  2  0  0  0  0
 15 34  1  0  0  0  0
 16 19  1  0  0  0  0
 16 35  1  0  0  0  0
 16 36  1  0  0  0  0
 17 37  1  0  0  0  0
 17 38  1  0  0  0  0
 17 39  1  0  0  0  0
 18 40  1  0  0  0  0
 18 41  1  0  0  0  0
 18 42  1  0  0  0  0
 19 20  1  0  0  0  0
 21 22  1  0  0  0  0
 22 46  1  0  0  0  0
 22 47  1  0  0  0  0
 22 48  1  0  0  0  0
M  END
> <PUBCHEM_COMPOUND_CID>
506114
> <PUBCHEM_COMPOUND_CANONICALIZED>
1
> <PUBCHEM_CACTVS_COMPLEXITY>
477
> <PUBCHEM_CACTVS_HBOND_ACCEPTOR>
5
> <PUBCHEM_CACTVS_HBOND_DONOR>
3
> <PUBCHEM_CACTVS_ROTATABLE_BOND>
5
> <PUBCHEM_CACTVS_SUBSKEYS>
AAADceB7MAAAAAAAAAAAAAAAAABYAAAAAAAgAAAAAAAAAAAAAAAAHgAQCAAADijBgAQCCAPAAgCIAiHSGACAAAAgAAAACIEIAEgARBIAwQAUUAAElgCIEYO82SObAAAAAAAAAAAAAAAAAAAAAAAAAAAAAA==
> <PUBCHEM_IUPAC_OPENEYE_NAME>
(3R,4R,5S)-4-acetamido-5-amino-3-(3,3-diethylazetidin-1-yl)cyclohexene-1-carboxylic acid
> <PUBCHEM_IUPAC_CAS_NAME>
(3R,4R,5S)-4-acetamido-5-amino-3-(3,3-diethyl-1-azetidinyl)-1-cyclohexenecarboxylic acid
> <PUBCHEM_IUPAC_NAME_MARKUP>
(3<I>R</I>,4<I>R</I>,5<I>S</I>)-4-acetamido-5-amino-3-(3,3-diethylazetidin-1-yl)cyclohexene-1-carboxylic acid
> <PUBCHEM_IUPAC_NAME>
(3R,4R,5S)-4-acetamido-5-amino-3-(3,3-diethylazetidin-1-yl)cyclohexene-1-carboxylic acid
> <PUBCHEM_IUPAC_SYSTEMATIC_NAME>
(3R,4R,5S)-4-acetamido-5-azanyl-3-(3,3-diethylazetidin-1-yl)cyclohexene-1-carboxylic acid
> <PUBCHEM_IUPAC_TRADITIONAL_NAME>
(3R,4R,5S)-4-acetamido-5-amino-3-(3,3-diethylazetidin-1-yl)cyclohexene-1-carboxylic acid
> <PUBCHEM_IUPAC_INCHI>
InChI=1S/C16H27N3O3/c1-4-16(5-2)8-19(9-16)13-7-11(15(21)22)6-12(17)14(13)18-10(3)20/h7,12-14H,4-6,8-9,17H2,1-3H3,(H,18,20)(H,21,22)/t12-,13+,14+/m0/s1
> <PUBCHEM_IUPAC_INCHIKEY>
PEDKXOUMPSDOSW-BFHYXJOUSA-N
> <PUBCHEM_XLOGP3_AA>
-1.9
> <PUBCHEM_EXACT_MASS>
309.20524173
> <PUBCHEM_MOLECULAR_FORMULA>
C16H27N3O3
> <PUBCHEM_MOLECULAR_WEIGHT>
309.40
> <PUBCHEM_OPENEYE_CAN_SMILES>
CCC1(CN(C1)C2C=C(CC(C2NC(=O)C)N)C(=O)O)CC
> <PUBCHEM_OPENEYE_ISO_SMILES>
CCC1(CN(C1)[C@@H]2C=C(C[C@@H]([C@H]2NC(=O)C)N)C(=O)O)CC
> <PUBCHEM_CACTVS_TPSA>
95.7
> <PUBCHEM_MONOISOTOPIC_WEIGHT>
309.20524173
> <PUBCHEM_TOTAL_CHARGE>
0
> <PUBCHEM_HEAVY_ATOM_COUNT>
22
> <PUBCHEM_ATOM_DEF_STEREO_COUNT>
3
> <PUBCHEM_ATOM_UDEF_STEREO_COUNT>
0
> <PUBCHEM_BOND_DEF_STEREO_COUNT>
0
> <PUBCHEM_BOND_UDEF_STEREO_COUNT>
0
> <PUBCHEM_ISOTOPIC_ATOM_COUNT>
0
> <PUBCHEM_COMPONENT_COUNT>
1
> <PUBCHEM_CACTVS_TAUTO_COUNT>
-1
> <PUBCHEM_COORDINATE_TYPE>
1
5
255
> <PUBCHEM_BONDANNOTATIONS>
10  4  6
13  5  5
14  6  6
$$$$
