506137
  -OEChem-10302200282D
 47 47  0     1  0  0  0  0  0999 V2000
    4.5981   -0.8060    0.0000 O   0  0  0  0  0  0  0  0  0  0  0  0
    8.0622   -2.8060    0.0000 O   0  0  0  0  0  0  0  0  0  0  0  0
    6.3301   -2.8060    0.0000 O   0  0  0  0  0  0  0  0  0  0  0  0
    8.6962    2.5600    0.0000 O   0  0  0  0  0  0  0  0  0  0  0  0
    5.4641    0.6940    0.0000 N   0  0  0  0  0  0  0  0  0  0  0  0
    7.1962    1.6940    0.0000 N   0  0  0  0  0  0  0  0  0  0  0  0
    8.9282    0.6940    0.0000 N   0  0  0  0  0  0  0  0  0  0  0  0
    7.1962    0.6940    0.0000 C   0  0  1  0  0  0  0  0  0  0  0  0
    6.3301    0.1940    0.0000 C   0  0  1  0  0  0  0  0  0  0  0  0
    8.0622    0.1940    0.0000 C   0  0  1  0  0  0  0  0  0  0  0  0
    8.0622   -0.8060    0.0000 C   0  0  0  0  0  0  0  0  0  0  0  0
    6.3301   -0.8060    0.0000 C   0  0  0  0  0  0  0  0  0  0  0  0
    7.1962   -1.3060    0.0000 C   0  0  0  0  0  0  0  0  0  0  0  0
    3.7320    0.6940    0.0000 C   0  0  0  0  0  0  0  0  0  0  0  0
    4.5981    0.1940    0.0000 C   0  0  0  0  0  0  0  0  0  0  0  0
    2.8660    0.1940    0.0000 C   0  0  0  0  0  0  0  0  0  0  0  0
    3.7320    1.6940    0.0000 C   0  0  0  0  0  0  0  0  0  0  0  0
    7.1962   -2.3060    0.0000 C   0  0  0  0  0  0  0  0  0  0  0  0
    7.6962    2.5600    0.0000 C   0  0  0  0  0  0  0  0  0  0  0  0
    2.0000    0.6940    0.0000 C   0  0  0  0  0  0  0  0  0  0  0  0
    2.8660    2.1940    0.0000 C   0  0  0  0  0  0  0  0  0  0  0  0
    7.1962    3.4260    0.0000 C   0  0  0  0  0  0  0  0  0  0  0  0
    6.6592    1.0040    0.0000 H   0  0  0  0  0  0  0  0  0  0  0  0
    5.7932   -0.1160    0.0000 H   0  0  0  0  0  0  0  0  0  0  0  0
    8.0622    0.8140    0.0000 H   0  0  0  0  0  0  0  0  0  0  0  0
    8.2742   -1.3886    0.0000 H   0  0  0  0  0  0  0  0  0  0  0  0
    8.6728   -0.6984    0.0000 H   0  0  0  0  0  0  0  0  0  0  0  0
    5.7932   -1.1160    0.0000 H   0  0  0  0  0  0  0  0  0  0  0  0
    5.4641    1.3140    0.0000 H   0  0  0  0  0  0  0  0  0  0  0  0
    6.6592    2.0040    0.0000 H   0  0  0  0  0  0  0  0  0  0  0  0
    3.7320    0.0740    0.0000 H   0  0  0  0  0  0  0  0  0  0  0  0
    9.4651    0.3840    0.0000 H   0  0  0  0  0  0  0  0  0  0  0  0
    9.2382    1.2309    0.0000 H   0  0  0  0  0  0  0  0  0  0  0  0
    2.4675   -0.2810    0.0000 H   0  0  0  0  0  0  0  0  0  0  0  0
    3.2646   -0.2810    0.0000 H   0  0  0  0  0  0  0  0  0  0  0  0
    4.3426    1.5863    0.0000 H   0  0  0  0  0  0  0  0  0  0  0  0
    3.9441    2.2766    0.0000 H   0  0  0  0  0  0  0  0  0  0  0  0
    2.3100    1.2309    0.0000 H   0  0  0  0  0  0  0  0  0  0  0  0
    1.4631    1.0040    0.0000 H   0  0  0  0  0  0  0  0  0  0  0  0
    1.6900    0.1570    0.0000 H   0  0  0  0  0  0  0  0  0  0  0  0
    3.1760    2.7309    0.0000 H   0  0  0  0  0  0  0  0  0  0  0  0
    2.3291    2.5040    0.0000 H   0  0  0  0  0  0  0  0  0  0  0  0
    2.5560    1.6570    0.0000 H   0  0  0  0  0  0  0  0  0  0  0  0
    7.7331    3.7360    0.0000 H   0  0  0  0  0  0  0  0  0  0  0  0
    6.8862    3.9630    0.0000 H   0  0  0  0  0  0  0  0  0  0  0  0
    6.6592    3.1160    0.0000 H   0  0  0  0  0  0  0  0  0  0  0  0
    8.0622   -3.4260    0.0000 H   0  0  0  0  0  0  0  0  0  0  0  0
  1 15  2  0  0  0  0
  2 18  1  0  0  0  0
  2 47  1  0  0  0  0
  3 18  2  0  0  0  0
  4 19  2  0  0  0  0
  9  5  1  1  0  0  0
  5 15  1  0  0  0  0
  5 29  1  0  0  0  0
  8  6  1  6  0  0  0
  6 19  1  0  0  0  0
  6 30  1  0  0  0  0
 10  7  1  6  0  0  0
  7 32  1  0  0  0  0
  7 33  1  0  0  0  0
  8  9  1  0  0  0  0
  8 10  1  0  0  0  0
  8 23  1  0  0  0  0
  9 12  1  0  0  0  0
  9 24  1  0  0  0  0
 10 11  1  0  0  0  0
 10 25  1  0  0  0  0
 11 13  1  0  0  0  0
 11 26  1  0  0  0  0
 11 27  1  0  0  0  0
 12 13  2  0  0  0  0
 12 28  1  0  0  0  0
 13 18  1  0  0  0  0
 14 15  1  0  0  0  0
 14 16  1  0  0  0  0
 14 17  1  0  0  0  0
 14 31  1  0  0  0  0
 16 20  1  0  0  0  0
 16 34  1  0  0  0  0
 16 35  1  0  0  0  0
 17 21  1  0  0  0  0
 17 36  1  0  0  0  0
 17 37  1  0  0  0  0
 19 22  1  0  0  0  0
 20 38  1  0  0  0  0
 20 39  1  0  0  0  0
 20 40  1  0  0  0  0
 21 41  1  0  0  0  0
 21 42  1  0  0  0  0
 21 43  1  0  0  0  0
 22 44  1  0  0  0  0
 22 45  1  0  0  0  0
 22 46  1  0  0  0  0
M  END
> <PUBCHEM_COMPOUND_CID>
506137
> <PUBCHEM_COMPOUND_CANONICALIZED>
1
> <PUBCHEM_CACTVS_COMPLEXITY>
471
> <PUBCHEM_CACTVS_HBOND_ACCEPTOR>
5
> <PUBCHEM_CACTVS_HBOND_DONOR>
4
> <PUBCHEM_CACTVS_ROTATABLE_BOND>
6
> <PUBCHEM_CACTVS_SUBSKEYS>
AAADceBzOAAAAAAAAAAAAAAAAAAAAAAAAAAgAAAAAAAAAAAAAAAAHgAQCAAADSjBgAQCCALAAgCIAiHSGACAAAAgAAAACIEIAEgARBIAwQAUUAAElgCIEYO82SOaAAAAAAAAAAAAAAAAAAAAAAAAAAAAAA==
> <PUBCHEM_IUPAC_OPENEYE_NAME>
(3R,4R,5R)-4-acetamido-5-amino-3-(2-ethylbutanoylamino)cyclohexene-1-carboxylic acid
> <PUBCHEM_IUPAC_CAS_NAME>
(3R,4R,5R)-4-acetamido-5-amino-3-[(2-ethyl-1-oxobutyl)amino]-1-cyclohexenecarboxylic acid
> <PUBCHEM_IUPAC_NAME_MARKUP>
(3<I>R</I>,4<I>R</I>,5<I>R</I>)-4-acetamido-5-amino-3-(2-ethylbutanoylamino)cyclohexene-1-carboxylic acid
> <PUBCHEM_IUPAC_NAME>
(3R,4R,5R)-4-acetamido-5-amino-3-(2-ethylbutanoylamino)cyclohexene-1-carboxylic acid
> <PUBCHEM_IUPAC_SYSTEMATIC_NAME>
(3R,4R,5R)-4-acetamido-5-azanyl-3-(2-ethylbutanoylamino)cyclohexene-1-carboxylic acid
> <PUBCHEM_IUPAC_TRADITIONAL_NAME>
(3R,4R,5R)-4-acetamido-5-amino-3-(2-ethylbutanoylamino)cyclohexene-1-carboxylic acid
> <PUBCHEM_IUPAC_INCHI>
InChI=1S/C15H25N3O4/c1-4-9(5-2)14(20)18-12-7-10(15(21)22)6-11(16)13(12)17-8(3)19/h7,9,11-13H,4-6,16H2,1-3H3,(H,17,19)(H,18,20)(H,21,22)/t11-,12-,13-/m1/s1
> <PUBCHEM_IUPAC_INCHIKEY>
RUXBAAFLWYBMAI-JHJVBQTASA-N
> <PUBCHEM_XLOGP3_AA>
-2.5
> <PUBCHEM_EXACT_MASS>
311.18450629
> <PUBCHEM_MOLECULAR_FORMULA>
C15H25N3O4
> <PUBCHEM_MOLECULAR_WEIGHT>
311.38
> <PUBCHEM_OPENEYE_CAN_SMILES>
CCC(CC)C(=O)NC1C=C(CC(C1NC(=O)C)N)C(=O)O
> <PUBCHEM_OPENEYE_ISO_SMILES>
CCC(CC)C(=O)N[C@@H]1C=C(C[C@H]([C@H]1NC(=O)C)N)C(=O)O
> <PUBCHEM_CACTVS_TPSA>
122
> <PUBCHEM_MONOISOTOPIC_WEIGHT>
311.18450629
> <PUBCHEM_TOTAL_CHARGE>
0
> <PUBCHEM_HEAVY_ATOM_COUNT>
22
> <PUBCHEM_ATOM_DEF_STEREO_COUNT>
3
> <PUBCHEM_ATOM_UDEF_STEREO_COUNT>
0
> <PUBCHEM_BOND_DEF_STEREO_COUNT>
0
> <PUBCHEM_BOND_UDEF_STEREO_COUNT>
0
> <PUBCHEM_ISOTOPIC_ATOM_COUNT>
0
> <PUBCHEM_COMPONENT_COUNT>
1
> <PUBCHEM_CACTVS_TAUTO_COUNT>
-1
> <PUBCHEM_COORDINATE_TYPE>
1
5
255
> <PUBCHEM_BONDANNOTATIONS>
9  5  5
8  6  6
10  7  6
$$$$
