506177
  -OEChem-10302200282D
 57 62  0     1  0  0  0  0  0999 V2000
   11.0958   -3.6762    0.0000 Br  0  0  0  0  0  0  0  0  0  0  0  0
    6.8078    2.2652    0.0000 O   0  0  0  0  0  0  0  0  0  0  0  0
    9.8131   -4.8401    0.0000 O   0  0  0  0  0  0  0  0  0  0  0  0
    5.9418   -1.2348    0.0000 N   0  0  0  0  0  0  0  0  0  0  0  0
    5.9418    0.7652    0.0000 N   0  0  0  0  0  0  0  0  0  0  0  0
    9.4465   -3.1473    0.0000 N   0  0  0  0  0  0  0  0  0  0  0  0
    2.6067    3.9323    0.0000 N   0  0  0  0  0  0  0  0  0  0  0  0
    5.9418   -2.2348    0.0000 C   0  0  3  0  0  0  0  0  0  0  0  0
    6.8078   -0.7348    0.0000 C   0  0  0  0  0  0  0  0  0  0  0  0
    5.0757   -0.7348    0.0000 C   0  0  0  0  0  0  0  0  0  0  0  0
    6.7508   -2.8226    0.0000 C   0  0  0  0  0  0  0  0  0  0  0  0
    5.1328   -2.8226    0.0000 C   0  0  0  0  0  0  0  0  0  0  0  0
    6.8078    0.2652    0.0000 C   0  0  0  0  0  0  0  0  0  0  0  0
    5.0757    0.2652    0.0000 C   0  0  0  0  0  0  0  0  0  0  0  0
    6.4418   -3.7736    0.0000 C   0  0  0  0  0  0  0  0  0  0  0  0
    5.4418   -3.7736    0.0000 C   0  0  0  0  0  0  0  0  0  0  0  0
    7.7662   -2.5903    0.0000 C   0  0  0  0  0  0  0  0  0  0  0  0
    4.1173   -2.5903    0.0000 C   0  0  0  0  0  0  0  0  0  0  0  0
    7.1267   -4.5583    0.0000 C   0  0  0  0  0  0  0  0  0  0  0  0
    4.7568   -4.5583    0.0000 C   0  0  0  0  0  0  0  0  0  0  0  0
    5.9418    1.7652    0.0000 C   0  0  0  0  0  0  0  0  0  0  0  0
    8.4691   -3.3590    0.0000 C   0  0  0  0  0  0  0  0  0  0  0  0
    8.1472   -4.3496    0.0000 C   0  0  0  0  0  0  0  0  0  0  0  0
    3.4144   -3.3590    0.0000 C   0  0  0  0  0  0  0  0  0  0  0  0
    3.7363   -4.3496    0.0000 C   0  0  0  0  0  0  0  0  0  0  0  0
    5.0757    2.2652    0.0000 C   0  0  0  0  0  0  0  0  0  0  0  0
    5.0757    3.2652    0.0000 C   0  0  0  0  0  0  0  0  0  0  0  0
    4.2097    1.7652    0.0000 C   0  0  0  0  0  0  0  0  0  0  0  0
    4.2097    3.7652    0.0000 C   0  0  0  0  0  0  0  0  0  0  0  0
    3.3437    3.2652    0.0000 C   0  0  0  0  0  0  0  0  0  0  0  0
    3.3437    2.2652    0.0000 C   0  0  0  0  0  0  0  0  0  0  0  0
    4.0005    4.7370    0.0000 C   0  0  0  0  0  0  0  0  0  0  0  0
   10.1185   -3.8879    0.0000 C   0  0  0  0  0  0  0  0  0  0  0  0
    3.0118    4.8401    0.0000 C   0  0  0  0  0  0  0  0  0  0  0  0
    6.4942   -1.9533    0.0000 H   0  0  0  0  0  0  0  0  0  0  0  0
    7.0198   -1.3174    0.0000 H   0  0  0  0  0  0  0  0  0  0  0  0
    7.4184   -0.6271    0.0000 H   0  0  0  0  0  0  0  0  0  0  0  0
    4.4652   -0.6271    0.0000 H   0  0  0  0  0  0  0  0  0  0  0  0
    4.8637   -1.3174    0.0000 H   0  0  0  0  0  0  0  0  0  0  0  0
    7.4184    0.1576    0.0000 H   0  0  0  0  0  0  0  0  0  0  0  0
    7.0198    0.8478    0.0000 H   0  0  0  0  0  0  0  0  0  0  0  0
    4.8637    0.8478    0.0000 H   0  0  0  0  0  0  0  0  0  0  0  0
    4.4652    0.1576    0.0000 H   0  0  0  0  0  0  0  0  0  0  0  0
    7.9510   -1.9985    0.0000 H   0  0  0  0  0  0  0  0  0  0  0  0
    3.9326   -1.9985    0.0000 H   0  0  0  0  0  0  0  0  0  0  0  0
    6.9283   -5.1457    0.0000 H   0  0  0  0  0  0  0  0  0  0  0  0
    4.9552   -5.1457    0.0000 H   0  0  0  0  0  0  0  0  0  0  0  0
    8.5603   -4.8120    0.0000 H   0  0  0  0  0  0  0  0  0  0  0  0
    2.8085   -3.2277    0.0000 H   0  0  0  0  0  0  0  0  0  0  0  0
    3.3232   -4.8120    0.0000 H   0  0  0  0  0  0  0  0  0  0  0  0
    9.6358   -2.5569    0.0000 H   0  0  0  0  0  0  0  0  0  0  0  0
    5.6127    3.5752    0.0000 H   0  0  0  0  0  0  0  0  0  0  0  0
    4.2097    1.1452    0.0000 H   0  0  0  0  0  0  0  0  0  0  0  0
    2.8068    1.9552    0.0000 H   0  0  0  0  0  0  0  0  0  0  0  0
    4.4146    5.1985    0.0000 H   0  0  0  0  0  0  0  0  0  0  0  0
    2.0000    3.8045    0.0000 H   0  0  0  0  0  0  0  0  0  0  0  0
    2.7018    5.3770    0.0000 H   0  0  0  0  0  0  0  0  0  0  0  0
  1 33  1  0  0  0  0
  2 21  2  0  0  0  0
  3 33  2  0  0  0  0
  4  8  1  0  0  0  0
  4  9  1  0  0  0  0
  4 10  1  0  0  0  0
  5 13  1  0  0  0  0
  5 14  1  0  0  0  0
  5 21  1  0  0  0  0
  6 22  1  0  0  0  0
  6 33  1  0  0  0  0
  6 51  1  0  0  0  0
  7 30  1  0  0  0  0
  7 34  1  0  0  0  0
  7 56  1  0  0  0  0
  8 11  1  0  0  0  0
  8 12  1  0  0  0  0
  8 35  1  0  0  0  0
  9 13  1  0  0  0  0
  9 36  1  0  0  0  0
  9 37  1  0  0  0  0
 10 14  1  0  0  0  0
 10 38  1  0  0  0  0
 10 39  1  0  0  0  0
 11 15  2  0  0  0  0
 11 17  1  0  0  0  0
 12 16  1  0  0  0  0
 12 18  2  0  0  0  0
 13 40  1  0  0  0  0
 13 41  1  0  0  0  0
 14 42  1  0  0  0  0
 14 43  1  0  0  0  0
 15 16  1  0  0  0  0
 15 19  1  0  0  0  0
 16 20  2  0  0  0  0
 17 22  2  0  0  0  0
 17 44  1  0  0  0  0
 18 24  1  0  0  0  0
 18 45  1  0  0  0  0
 19 23  2  0  0  0  0
 19 46  1  0  0  0  0
 20 25  1  0  0  0  0
 20 47  1  0  0  0  0
 21 26  1  0  0  0  0
 22 23  1  0  0  0  0
 23 48  1  0  0  0  0
 24 25  2  0  0  0  0
 24 49  1  0  0  0  0
 25 50  1  0  0  0  0
 26 27  2  0  0  0  0
 26 28  1  0  0  0  0
 27 29  1  0  0  0  0
 27 52  1  0  0  0  0
 28 31  2  0  0  0  0
 28 53  1  0  0  0  0
 29 30  2  0  0  0  0
 29 32  1  0  0  0  0
 30 31  1  0  0  0  0
 31 54  1  0  0  0  0
 32 34  2  0  0  0  0
 32 55  1  0  0  0  0
 34 57  1  0  0  0  0
M  END
> <PUBCHEM_COMPOUND_CID>
506177
> <PUBCHEM_COMPOUND_CANONICALIZED>
1
> <PUBCHEM_CACTVS_COMPLEXITY>
772
> <PUBCHEM_CACTVS_HBOND_ACCEPTOR>
3
> <PUBCHEM_CACTVS_HBOND_DONOR>
2
> <PUBCHEM_CACTVS_ROTATABLE_BOND>
3
> <PUBCHEM_CACTVS_SUBSKEYS>
AAADceB7sAAAEAAAAAAAAAAAAAAAAeIAAAA8YMEAAAAAAHgB9AAAHgBQAAAADCjBngQ8wPPJkACoAzV3VACCgCA1AiAI2aE4ZNgIYPLAlZGUIQhglgDIyYcYicCeiAACQAASAAAQAASAACQAASAACQAAAA==
> <PUBCHEM_IUPAC_OPENEYE_NAME>
N-[9-[4-(1H-indole-5-carbonyl)piperazin-1-yl]-9H-fluoren-2-yl]carbamoyl bromide
> <PUBCHEM_IUPAC_CAS_NAME>
N-[9-[4-[1H-indol-5-yl(oxo)methyl]-1-piperazinyl]-9H-fluoren-2-yl]carbamoyl bromide
> <PUBCHEM_IUPAC_NAME_MARKUP>
<I>N</I>-[9-[4-(1<I>H</I>-indole-5-carbonyl)piperazin-1-yl]-9<I>H</I>-fluoren-2-yl]carbamoyl bromide
> <PUBCHEM_IUPAC_NAME>
N-[9-[4-(1H-indole-5-carbonyl)piperazin-1-yl]-9H-fluoren-2-yl]carbamoyl bromide
> <PUBCHEM_IUPAC_SYSTEMATIC_NAME>
N-[9-[4-(1H-indol-5-ylcarbonyl)piperazin-1-yl]-9H-fluoren-2-yl]carbamoyl bromide
> <PUBCHEM_IUPAC_TRADITIONAL_NAME>
N-[9-[4-(1H-indole-5-carbonyl)piperazino]-9H-fluoren-2-yl]carbamoyl bromide
> <PUBCHEM_IUPAC_INCHI>
InChI=1S/C27H23BrN4O2/c28-27(34)30-19-6-7-21-20-3-1-2-4-22(20)25(23(21)16-19)31-11-13-32(14-12-31)26(33)18-5-8-24-17(15-18)9-10-29-24/h1-10,15-16,25,29H,11-14H2,(H,30,34)
> <PUBCHEM_IUPAC_INCHIKEY>
YJPXJCFDEHPUKP-UHFFFAOYSA-N
> <PUBCHEM_XLOGP3_AA>
4.5
> <PUBCHEM_EXACT_MASS>
514.10044
> <PUBCHEM_MOLECULAR_FORMULA>
C27H23BrN4O2
> <PUBCHEM_MOLECULAR_WEIGHT>
515.4
> <PUBCHEM_OPENEYE_CAN_SMILES>
C1CN(CCN1C2C3=CC=CC=C3C4=C2C=C(C=C4)NC(=O)Br)C(=O)C5=CC6=C(C=C5)NC=C6
> <PUBCHEM_OPENEYE_ISO_SMILES>
C1CN(CCN1C2C3=CC=CC=C3C4=C2C=C(C=C4)NC(=O)Br)C(=O)C5=CC6=C(C=C5)NC=C6
> <PUBCHEM_CACTVS_TPSA>
68.4
> <PUBCHEM_MONOISOTOPIC_WEIGHT>
514.10044
> <PUBCHEM_TOTAL_CHARGE>
0
> <PUBCHEM_HEAVY_ATOM_COUNT>
34
> <PUBCHEM_ATOM_DEF_STEREO_COUNT>
0
> <PUBCHEM_ATOM_UDEF_STEREO_COUNT>
1
> <PUBCHEM_BOND_DEF_STEREO_COUNT>
0
> <PUBCHEM_BOND_UDEF_STEREO_COUNT>
0
> <PUBCHEM_ISOTOPIC_ATOM_COUNT>
0
> <PUBCHEM_COMPONENT_COUNT>
1
> <PUBCHEM_CACTVS_TAUTO_COUNT>
-1
> <PUBCHEM_COORDINATE_TYPE>
1
5
255
> <PUBCHEM_BONDANNOTATIONS>
11  15  8
11  17  8
12  16  8
12  18  8
15  19  8
16  20  8
17  22  8
18  24  8
19  23  8
20  25  8
22  23  8
24  25  8
26  27  8
26  28  8
27  29  8
28  31  8
29  30  8
29  32  8
30  31  8
32  34  8
8  4  3
7  30  8
7  34  8
$$$$
