506108
  -OEChem-10302200282D
 37 38  0     1  0  0  0  0  0999 V2000
    5.8228   -2.8060    0.0000 O   0  0  0  0  0  0  0  0  0  0  0  0
    4.0908   -2.8060    0.0000 O   0  0  0  0  0  0  0  0  0  0  0  0
    6.4568    2.5600    0.0000 O   0  0  0  0  0  0  0  0  0  0  0  0
    3.2247    0.6940    0.0000 N   0  0  0  0  0  0  0  0  0  0  0  0
    4.9568    1.6940    0.0000 N   0  0  0  0  0  0  0  0  0  0  0  0
    6.6888    0.6940    0.0000 N   0  0  0  0  0  0  0  0  0  0  0  0
    4.0908    0.1940    0.0000 C   0  0  1  0  0  0  0  0  0  0  0  0
    4.9568    0.6940    0.0000 C   0  0  1  0  0  0  0  0  0  0  0  0
    5.8228    0.1940    0.0000 C   0  0  2  0  0  0  0  0  0  0  0  0
    2.9659    1.6599    0.0000 C   0  0  0  0  0  0  0  0  0  0  0  0
    2.2588    0.4352    0.0000 C   0  0  0  0  0  0  0  0  0  0  0  0
    2.0000    1.4011    0.0000 C   0  0  0  0  0  0  0  0  0  0  0  0
    5.8228   -0.8060    0.0000 C   0  0  0  0  0  0  0  0  0  0  0  0
    4.0908   -0.8060    0.0000 C   0  0  0  0  0  0  0  0  0  0  0  0
    4.9568   -1.3060    0.0000 C   0  0  0  0  0  0  0  0  0  0  0  0
    4.9568   -2.3060    0.0000 C   0  0  0  0  0  0  0  0  0  0  0  0
    5.4568    2.5600    0.0000 C   0  0  0  0  0  0  0  0  0  0  0  0
    4.9568    3.4260    0.0000 C   0  0  0  0  0  0  0  0  0  0  0  0
    4.0908    0.8140    0.0000 H   0  0  0  0  0  0  0  0  0  0  0  0
    5.4937    1.0040    0.0000 H   0  0  0  0  0  0  0  0  0  0  0  0
    6.3598   -0.1160    0.0000 H   0  0  0  0  0  0  0  0  0  0  0  0
    3.5648    1.8204    0.0000 H   0  0  0  0  0  0  0  0  0  0  0  0
    2.8055    2.2588    0.0000 H   0  0  0  0  0  0  0  0  0  0  0  0
    1.6600    0.2747    0.0000 H   0  0  0  0  0  0  0  0  0  0  0  0
    2.4193   -0.1637    0.0000 H   0  0  0  0  0  0  0  0  0  0  0  0
    1.8395    2.0000    0.0000 H   0  0  0  0  0  0  0  0  0  0  0  0
    1.4011    1.2406    0.0000 H   0  0  0  0  0  0  0  0  0  0  0  0
    6.0349   -1.3886    0.0000 H   0  0  0  0  0  0  0  0  0  0  0  0
    6.4334   -0.6984    0.0000 H   0  0  0  0  0  0  0  0  0  0  0  0
    3.5538   -1.1160    0.0000 H   0  0  0  0  0  0  0  0  0  0  0  0
    4.4199    2.0040    0.0000 H   0  0  0  0  0  0  0  0  0  0  0  0
    7.2258    0.3840    0.0000 H   0  0  0  0  0  0  0  0  0  0  0  0
    6.9988    1.2309    0.0000 H   0  0  0  0  0  0  0  0  0  0  0  0
    5.4937    3.7360    0.0000 H   0  0  0  0  0  0  0  0  0  0  0  0
    4.6468    3.9630    0.0000 H   0  0  0  0  0  0  0  0  0  0  0  0
    4.4199    3.1160    0.0000 H   0  0  0  0  0  0  0  0  0  0  0  0
    5.8228   -3.4260    0.0000 H   0  0  0  0  0  0  0  0  0  0  0  0
  1 16  1  0  0  0  0
  1 37  1  0  0  0  0
  2 16  2  0  0  0  0
  3 17  2  0  0  0  0
  7  4  1  1  0  0  0
  4 10  1  0  0  0  0
  4 11  1  0  0  0  0
  8  5  1  6  0  0  0
  5 17  1  0  0  0  0
  5 31  1  0  0  0  0
  9  6  1  1  0  0  0
  6 32  1  0  0  0  0
  6 33  1  0  0  0  0
  7  8  1  0  0  0  0
  7 14  1  0  0  0  0
  7 19  1  0  0  0  0
  8  9  1  0  0  0  0
  8 20  1  0  0  0  0
  9 13  1  0  0  0  0
  9 21  1  0  0  0  0
 10 12  1  0  0  0  0
 10 22  1  0  0  0  0
 10 23  1  0  0  0  0
 11 12  1  0  0  0  0
 11 24  1  0  0  0  0
 11 25  1  0  0  0  0
 12 26  1  0  0  0  0
 12 27  1  0  0  0  0
 13 15  1  0  0  0  0
 13 28  1  0  0  0  0
 13 29  1  0  0  0  0
 14 15  2  0  0  0  0
 14 30  1  0  0  0  0
 15 16  1  0  0  0  0
 17 18  1  0  0  0  0
 18 34  1  0  0  0  0
 18 35  1  0  0  0  0
 18 36  1  0  0  0  0
M  END
> <PUBCHEM_COMPOUND_CID>
506108
> <PUBCHEM_COMPOUND_CANONICALIZED>
1
> <PUBCHEM_CACTVS_COMPLEXITY>
390
> <PUBCHEM_CACTVS_HBOND_ACCEPTOR>
5
> <PUBCHEM_CACTVS_HBOND_DONOR>
3
> <PUBCHEM_CACTVS_ROTATABLE_BOND>
3
> <PUBCHEM_CACTVS_SUBSKEYS>
AAADceBzMAAAAAAAAAAAAAAAAABYAAAAAAAgAAAAAAAAAAAAAAAAHgAQCAAADCjBgAQCCAPAAgCIAiHSGACAAAAgAAAACIEIAEgARBIAwQAUUAAElgCIEYO82SOQAAAAAAAAAAAAAAAAAAAAAAAAAAAAAA==
> <PUBCHEM_IUPAC_OPENEYE_NAME>
(3R,4R,5S)-4-acetamido-5-amino-3-(azetidin-1-yl)cyclohexene-1-carboxylic acid
> <PUBCHEM_IUPAC_CAS_NAME>
(3R,4R,5S)-4-acetamido-5-amino-3-(1-azetidinyl)-1-cyclohexenecarboxylic acid
> <PUBCHEM_IUPAC_NAME_MARKUP>
(3<I>R</I>,4<I>R</I>,5<I>S</I>)-4-acetamido-5-amino-3-(azetidin-1-yl)cyclohexene-1-carboxylic acid
> <PUBCHEM_IUPAC_NAME>
(3R,4R,5S)-4-acetamido-5-amino-3-(azetidin-1-yl)cyclohexene-1-carboxylic acid
> <PUBCHEM_IUPAC_SYSTEMATIC_NAME>
(3R,4R,5S)-4-acetamido-5-azanyl-3-(azetidin-1-yl)cyclohexene-1-carboxylic acid
> <PUBCHEM_IUPAC_TRADITIONAL_NAME>
(3R,4R,5S)-4-acetamido-5-amino-3-(azetidin-1-yl)cyclohexene-1-carboxylic acid
> <PUBCHEM_IUPAC_INCHI>
InChI=1S/C12H19N3O3/c1-7(16)14-11-9(13)5-8(12(17)18)6-10(11)15-3-2-4-15/h6,9-11H,2-5,13H2,1H3,(H,14,16)(H,17,18)/t9-,10+,11+/m0/s1
> <PUBCHEM_IUPAC_INCHIKEY>
NBJSIQRSLYGYHV-HBNTYKKESA-N
> <PUBCHEM_XLOGP3_AA>
-3.4
> <PUBCHEM_EXACT_MASS>
253.14264148
> <PUBCHEM_MOLECULAR_FORMULA>
C12H19N3O3
> <PUBCHEM_MOLECULAR_WEIGHT>
253.30
> <PUBCHEM_OPENEYE_CAN_SMILES>
CC(=O)NC1C(CC(=CC1N2CCC2)C(=O)O)N
> <PUBCHEM_OPENEYE_ISO_SMILES>
CC(=O)N[C@@H]1[C@H](CC(=C[C@H]1N2CCC2)C(=O)O)N
> <PUBCHEM_CACTVS_TPSA>
95.7
> <PUBCHEM_MONOISOTOPIC_WEIGHT>
253.14264148
> <PUBCHEM_TOTAL_CHARGE>
0
> <PUBCHEM_HEAVY_ATOM_COUNT>
18
> <PUBCHEM_ATOM_DEF_STEREO_COUNT>
3
> <PUBCHEM_ATOM_UDEF_STEREO_COUNT>
0
> <PUBCHEM_BOND_DEF_STEREO_COUNT>
0
> <PUBCHEM_BOND_UDEF_STEREO_COUNT>
0
> <PUBCHEM_ISOTOPIC_ATOM_COUNT>
0
> <PUBCHEM_COMPONENT_COUNT>
1
> <PUBCHEM_CACTVS_TAUTO_COUNT>
-1
> <PUBCHEM_COORDINATE_TYPE>
1
5
255
> <PUBCHEM_BONDANNOTATIONS>
7  4  5
8  5  6
9  6  5
$$$$
