506159
  -OEChem-10302200282D
 65 67  0     1  0  0  0  0  0999 V2000
    2.6504   -1.3082    0.0000 O   0  0  0  0  0  0  0  0  0  0  0  0
    4.5983   -3.8114    0.0000 O   0  0  0  0  0  0  0  0  0  0  0  0
    5.7783    1.1914    0.0000 O   0  0  0  0  0  0  0  0  0  0  0  0
    9.0245    2.7606    0.0000 O   0  0  0  0  0  0  0  0  0  0  0  0
    9.3817    1.0657    0.0000 O   0  0  0  0  0  0  0  0  0  0  0  0
    4.2382   -2.1172    0.0000 N   0  0  0  0  0  0  0  0  0  0  0  0
    6.1355   -0.5034    0.0000 N   0  0  0  0  0  0  0  0  0  0  0  0
    7.7353    1.6038    0.0000 N   0  0  0  0  0  0  0  0  0  0  0  0
    5.1893   -0.8082    0.0000 C   0  0  1  0  0  0  0  0  0  0  0  0
    5.1893   -1.8082    0.0000 C   0  0  2  0  0  0  0  0  0  0  0  0
    4.2382   -0.4992    0.0000 C   0  0  1  0  0  0  0  0  0  0  0  0
    6.1355   -2.1129    0.0000 C   0  0  0  0  0  0  0  0  0  0  0  0
    6.7191   -1.3082    0.0000 C   0  0  0  0  0  0  0  0  0  0  0  0
    3.6504   -1.3082    0.0000 C   0  0  0  0  0  0  0  0  0  0  0  0
    2.9511   -3.2762    0.0000 C   0  0  0  0  0  0  0  0  0  0  0  0
    3.9292   -3.0682    0.0000 C   0  0  0  0  0  0  0  0  0  0  0  0
    2.0000   -2.9671    0.0000 C   0  0  0  0  0  0  0  0  0  0  0  0
    2.2079   -3.9453    0.0000 C   0  0  0  0  0  0  0  0  0  0  0  0
    3.9292    0.4519    0.0000 C   0  0  0  0  0  0  0  0  0  0  0  0
    6.4462    0.4471    0.0000 C   0  0  0  0  0  0  0  0  0  0  0  0
    7.4247    0.6533    0.0000 C   0  0  2  0  0  0  0  0  0  0  0  0
    2.9511    0.6598    0.0000 C   0  0  0  0  0  0  0  0  0  0  0  0
    8.0925   -0.0910    0.0000 C   0  0  0  0  0  0  0  0  0  0  0  0
    9.0710    0.1152    0.0000 C   0  0  0  0  0  0  0  0  0  0  0  0
    7.7818   -1.0415    0.0000 C   0  0  0  0  0  0  0  0  0  0  0  0
    8.7138    1.8100    0.0000 C   0  0  0  0  0  0  0  0  0  0  0  0
   10.0030    2.9668    0.0000 C   0  0  0  0  0  0  0  0  0  0  0  0
   10.9815    3.1730    0.0000 C   0  0  0  0  0  0  0  0  0  0  0  0
    9.7968    3.9453    0.0000 C   0  0  0  0  0  0  0  0  0  0  0  0
   10.2092    1.9883    0.0000 C   0  0  0  0  0  0  0  0  0  0  0  0
    5.1904    0.0418    0.0000 H   0  0  0  0  0  0  0  0  0  0  0  0
    5.1904   -2.6582    0.0000 H   0  0  0  0  0  0  0  0  0  0  0  0
    3.6258   -0.4022    0.0000 H   0  0  0  0  0  0  0  0  0  0  0  0
    5.8845   -2.6798    0.0000 H   0  0  0  0  0  0  0  0  0  0  0  0
    6.6729   -2.4221    0.0000 H   0  0  0  0  0  0  0  0  0  0  0  0
    7.1800   -1.7229    0.0000 H   0  0  0  0  0  0  0  0  0  0  0  0
    7.1800   -0.8934    0.0000 H   0  0  0  0  0  0  0  0  0  0  0  0
    2.9835   -2.6570    0.0000 H   0  0  0  0  0  0  0  0  0  0  0  0
    2.0863   -2.3532    0.0000 H   0  0  0  0  0  0  0  0  0  0  0  0
    1.3804   -2.9888    0.0000 H   0  0  0  0  0  0  0  0  0  0  0  0
    1.6331   -4.1775    0.0000 H   0  0  0  0  0  0  0  0  0  0  0  0
    2.5365   -4.4711    0.0000 H   0  0  0  0  0  0  0  0  0  0  0  0
    4.5432    0.5382    0.0000 H   0  0  0  0  0  0  0  0  0  0  0  0
    3.9508    1.0715    0.0000 H   0  0  0  0  0  0  0  0  0  0  0  0
    7.0106    1.1148    0.0000 H   0  0  0  0  0  0  0  0  0  0  0  0
    3.0800    1.2663    0.0000 H   0  0  0  0  0  0  0  0  0  0  0  0
    2.3446    0.7887    0.0000 H   0  0  0  0  0  0  0  0  0  0  0  0
    2.8222    0.0534    0.0000 H   0  0  0  0  0  0  0  0  0  0  0  0
    8.2851    0.4983    0.0000 H   0  0  0  0  0  0  0  0  0  0  0  0
    7.3213    2.0653    0.0000 H   0  0  0  0  0  0  0  0  0  0  0  0
    9.1989   -0.4915    0.0000 H   0  0  0  0  0  0  0  0  0  0  0  0
    9.6777    0.2431    0.0000 H   0  0  0  0  0  0  0  0  0  0  0  0
    8.9432    0.7219    0.0000 H   0  0  0  0  0  0  0  0  0  0  0  0
    7.1925   -0.8489    0.0000 H   0  0  0  0  0  0  0  0  0  0  0  0
    7.5892   -1.6308    0.0000 H   0  0  0  0  0  0  0  0  0  0  0  0
    8.3712   -1.2341    0.0000 H   0  0  0  0  0  0  0  0  0  0  0  0
   11.1094    2.5663    0.0000 H   0  0  0  0  0  0  0  0  0  0  0  0
   11.5882    3.3008    0.0000 H   0  0  0  0  0  0  0  0  0  0  0  0
   10.8537    3.7797    0.0000 H   0  0  0  0  0  0  0  0  0  0  0  0
   10.4035    4.0731    0.0000 H   0  0  0  0  0  0  0  0  0  0  0  0
    9.6689    4.5520    0.0000 H   0  0  0  0  0  0  0  0  0  0  0  0
    9.1901    3.8174    0.0000 H   0  0  0  0  0  0  0  0  0  0  0  0
    9.6026    1.8604    0.0000 H   0  0  0  0  0  0  0  0  0  0  0  0
   10.3371    1.3816    0.0000 H   0  0  0  0  0  0  0  0  0  0  0  0
   10.8159    2.1161    0.0000 H   0  0  0  0  0  0  0  0  0  0  0  0
  1 14  2  0  0  0  0
  2 16  2  0  0  0  0
  3 20  2  0  0  0  0
  4 26  1  0  0  0  0
  4 27  1  0  0  0  0
  5 26  2  0  0  0  0
  6 10  1  0  0  0  0
  6 14  1  0  0  0  0
  6 16  1  0  0  0  0
  7  9  1  0  0  0  0
  7 13  1  0  0  0  0
  7 20  1  0  0  0  0
 21  8  1  1  0  0  0
  8 26  1  0  0  0  0
  8 50  1  0  0  0  0
  9 10  1  0  0  0  0
  9 11  1  0  0  0  0
  9 31  1  6  0  0  0
 10 12  1  0  0  0  0
 10 32  1  1  0  0  0
 11 14  1  0  0  0  0
 11 19  1  1  0  0  0
 11 33  1  0  0  0  0
 12 13  1  0  0  0  0
 12 34  1  0  0  0  0
 12 35  1  0  0  0  0
 13 36  1  0  0  0  0
 13 37  1  0  0  0  0
 15 16  1  0  0  0  0
 15 17  1  0  0  0  0
 15 18  1  0  0  0  0
 15 38  1  0  0  0  0
 17 18  1  0  0  0  0
 17 39  1  0  0  0  0
 17 40  1  0  0  0  0
 18 41  1  0  0  0  0
 18 42  1  0  0  0  0
 19 22  1  0  0  0  0
 19 43  1  0  0  0  0
 19 44  1  0  0  0  0
 20 21  1  0  0  0  0
 21 23  1  0  0  0  0
 21 45  1  0  0  0  0
 22 46  1  0  0  0  0
 22 47  1  0  0  0  0
 22 48  1  0  0  0  0
 23 24  1  0  0  0  0
 23 25  1  0  0  0  0
 23 49  1  0  0  0  0
 24 51  1  0  0  0  0
 24 52  1  0  0  0  0
 24 53  1  0  0  0  0
 25 54  1  0  0  0  0
 25 55  1  0  0  0  0
 25 56  1  0  0  0  0
 27 28  1  0  0  0  0
 27 29  1  0  0  0  0
 27 30  1  0  0  0  0
 28 57  1  0  0  0  0
 28 58  1  0  0  0  0
 28 59  1  0  0  0  0
 29 60  1  0  0  0  0
 29 61  1  0  0  0  0
 29 62  1  0  0  0  0
 30 63  1  0  0  0  0
 30 64  1  0  0  0  0
 30 65  1  0  0  0  0
M  END
> <PUBCHEM_COMPOUND_CID>
506159
> <PUBCHEM_COMPOUND_CANONICALIZED>
1
> <PUBCHEM_CACTVS_COMPLEXITY>
725
> <PUBCHEM_CACTVS_HBOND_ACCEPTOR>
5
> <PUBCHEM_CACTVS_HBOND_DONOR>
1
> <PUBCHEM_CACTVS_ROTATABLE_BOND>
7
> <PUBCHEM_CACTVS_SUBSKEYS>
AAADcfB7OAAAAAAAAAAAAAAAGAAAAWLAAAAAAAAAAAAWAAAAAAAAHgAQAAAADWzBgAQCCAPABAAIAAEQGAAAAAAAAAAAAIGIAAEAQBoAwCAcAAAAFiCAAAEciAAOAAAAAAAAAAAAAAAAAAAAAAAAAAAAAA==
> <PUBCHEM_IUPAC_OPENEYE_NAME>
tert-butyl N-[(1S)-1-[(3aS,6S,6aR)-4-(cyclopropanecarbonyl)-6-ethyl-5-oxo-3,3a,6,6a-tetrahydro-2H-pyrrolo[3,2-b]pyrrole-1-carbonyl]-2-methyl-propyl]carbamate
> <PUBCHEM_IUPAC_CAS_NAME>
N-[(2S)-1-[(3aS,6S,6aR)-4-[cyclopropyl(oxo)methyl]-6-ethyl-5-oxo-3,3a,6,6a-tetrahydro-2H-pyrrolo[3,2-b]pyrrol-1-yl]-3-methyl-1-oxobutan-2-yl]carbamic acid tert-butyl ester
> <PUBCHEM_IUPAC_NAME_MARKUP>
<I>tert</I>-butyl <I>N</I>-[(2<I>S</I>)-1-[(3<I>a</I><I>S</I>,6<I>S</I>,6<I>a</I><I>R</I>)-4-(cyclopropanecarbonyl)-6-ethyl-5-oxo-3,3<I>a</I>,6,6<I>a</I>-tetrahydro-2<I>H</I>-pyrrolo[3,2-b]pyrrol-1-yl]-3-methyl-1-oxobutan-2-yl]carbamate
> <PUBCHEM_IUPAC_NAME>
tert-butyl N-[(2S)-1-[(3aS,6S,6aR)-4-(cyclopropanecarbonyl)-6-ethyl-5-oxo-3,3a,6,6a-tetrahydro-2H-pyrrolo[3,2-b]pyrrol-1-yl]-3-methyl-1-oxobutan-2-yl]carbamate
> <PUBCHEM_IUPAC_SYSTEMATIC_NAME>
tert-butyl N-[(2S)-1-[(3aS,6S,6aR)-4-cyclopropylcarbonyl-6-ethyl-5-oxidanylidene-3,3a,6,6a-tetrahydro-2H-pyrrolo[3,2-b]pyrrol-1-yl]-3-methyl-1-oxidanylidene-butan-2-yl]carbamate
> <PUBCHEM_IUPAC_TRADITIONAL_NAME>
N-[(1S)-1-[(3aS,6S,6aR)-4-(cyclopropanecarbonyl)-6-ethyl-5-keto-3,3a,6,6a-tetrahydro-2H-pyrrolo[3,2-b]pyrrole-1-carbonyl]-2-methyl-propyl]carbamic acid tert-butyl ester
> <PUBCHEM_IUPAC_INCHI>
InChI=1S/C22H35N3O5/c1-7-14-17-15(25(19(14)27)18(26)13-8-9-13)10-11-24(17)20(28)16(12(2)3)23-21(29)30-22(4,5)6/h12-17H,7-11H2,1-6H3,(H,23,29)/t14-,15-,16-,17+/m0/s1
> <PUBCHEM_IUPAC_INCHIKEY>
CFZBHSUCFAOYQU-LUKYLMHMSA-N
> <PUBCHEM_XLOGP3_AA>
2.5
> <PUBCHEM_EXACT_MASS>
421.25767123
> <PUBCHEM_MOLECULAR_FORMULA>
C22H35N3O5
> <PUBCHEM_MOLECULAR_WEIGHT>
421.5
> <PUBCHEM_OPENEYE_CAN_SMILES>
CCC1C2C(CCN2C(=O)C(C(C)C)NC(=O)OC(C)(C)C)N(C1=O)C(=O)C3CC3
> <PUBCHEM_OPENEYE_ISO_SMILES>
CC[C@H]1[C@@H]2[C@H](CCN2C(=O)[C@H](C(C)C)NC(=O)OC(C)(C)C)N(C1=O)C(=O)C3CC3
> <PUBCHEM_CACTVS_TPSA>
96
> <PUBCHEM_MONOISOTOPIC_WEIGHT>
421.25767123
> <PUBCHEM_TOTAL_CHARGE>
0
> <PUBCHEM_HEAVY_ATOM_COUNT>
30
> <PUBCHEM_ATOM_DEF_STEREO_COUNT>
4
> <PUBCHEM_ATOM_UDEF_STEREO_COUNT>
0
> <PUBCHEM_BOND_DEF_STEREO_COUNT>
0
> <PUBCHEM_BOND_UDEF_STEREO_COUNT>
0
> <PUBCHEM_ISOTOPIC_ATOM_COUNT>
0
> <PUBCHEM_COMPONENT_COUNT>
1
> <PUBCHEM_CACTVS_TAUTO_COUNT>
-1
> <PUBCHEM_COORDINATE_TYPE>
1
5
255
> <PUBCHEM_BONDANNOTATIONS>
10  32  5
11  19  5
21  8  5
9  31  6
$$$$
