506126
  -OEChem-10302200282D
 45 45  0     1  0  0  0  0  0999 V2000
    8.0622   -2.8060    0.0000 O   0  0  0  0  0  0  0  0  0  0  0  0
    6.3301   -2.8060    0.0000 O   0  0  0  0  0  0  0  0  0  0  0  0
    8.6962    2.5600    0.0000 O   0  0  0  0  0  0  0  0  0  0  0  0
    5.4641    0.6940    0.0000 N   0  0  3  0  0  0  0  0  0  0  0  0
    7.1962    1.6940    0.0000 N   0  0  0  0  0  0  0  0  0  0  0  0
    8.9282    0.6940    0.0000 N   0  0  0  0  0  0  0  0  0  0  0  0
    7.1962    0.6940    0.0000 C   0  0  1  0  0  0  0  0  0  0  0  0
    6.3301    0.1940    0.0000 C   0  0  1  0  0  0  0  0  0  0  0  0
    8.0622    0.1940    0.0000 C   0  0  1  0  0  0  0  0  0  0  0  0
    8.0622   -0.8060    0.0000 C   0  0  0  0  0  0  0  0  0  0  0  0
    6.3301   -0.8060    0.0000 C   0  0  0  0  0  0  0  0  0  0  0  0
    7.1962   -1.3060    0.0000 C   0  0  0  0  0  0  0  0  0  0  0  0
    4.5981    0.1940    0.0000 C   0  0  0  0  0  0  0  0  0  0  0  0
    5.4641    1.6940    0.0000 C   0  0  0  0  0  0  0  0  0  0  0  0
    3.7320    0.6940    0.0000 C   0  0  0  0  0  0  0  0  0  0  0  0
    7.1962   -2.3060    0.0000 C   0  0  0  0  0  0  0  0  0  0  0  0
    7.6962    2.5600    0.0000 C   0  0  0  0  0  0  0  0  0  0  0  0
    2.8660    0.1940    0.0000 C   0  0  0  0  0  0  0  0  0  0  0  0
    7.1962    3.4260    0.0000 C   0  0  0  0  0  0  0  0  0  0  0  0
    2.0000    0.6940    0.0000 C   0  0  0  0  0  0  0  0  0  0  0  0
    6.6592    1.0040    0.0000 H   0  0  0  0  0  0  0  0  0  0  0  0
    5.7932   -0.1160    0.0000 H   0  0  0  0  0  0  0  0  0  0  0  0
    8.0622    0.8140    0.0000 H   0  0  0  0  0  0  0  0  0  0  0  0
    8.2742   -1.3886    0.0000 H   0  0  0  0  0  0  0  0  0  0  0  0
    8.6728   -0.6984    0.0000 H   0  0  0  0  0  0  0  0  0  0  0  0
    5.7932   -1.1160    0.0000 H   0  0  0  0  0  0  0  0  0  0  0  0
    4.1996   -0.2810    0.0000 H   0  0  0  0  0  0  0  0  0  0  0  0
    4.9966   -0.2810    0.0000 H   0  0  0  0  0  0  0  0  0  0  0  0
    6.6592    2.0040    0.0000 H   0  0  0  0  0  0  0  0  0  0  0  0
    9.4651    0.3840    0.0000 H   0  0  0  0  0  0  0  0  0  0  0  0
    9.2382    1.2309    0.0000 H   0  0  0  0  0  0  0  0  0  0  0  0
    6.0841    1.6940    0.0000 H   0  0  0  0  0  0  0  0  0  0  0  0
    5.4641    2.3140    0.0000 H   0  0  0  0  0  0  0  0  0  0  0  0
    4.8441    1.6940    0.0000 H   0  0  0  0  0  0  0  0  0  0  0  0
    4.1306    1.1689    0.0000 H   0  0  0  0  0  0  0  0  0  0  0  0
    3.3335    1.1689    0.0000 H   0  0  0  0  0  0  0  0  0  0  0  0
    2.4675   -0.2810    0.0000 H   0  0  0  0  0  0  0  0  0  0  0  0
    3.2646   -0.2810    0.0000 H   0  0  0  0  0  0  0  0  0  0  0  0
    7.7331    3.7360    0.0000 H   0  0  0  0  0  0  0  0  0  0  0  0
    6.8862    3.9630    0.0000 H   0  0  0  0  0  0  0  0  0  0  0  0
    6.6592    3.1160    0.0000 H   0  0  0  0  0  0  0  0  0  0  0  0
    2.3100    1.2309    0.0000 H   0  0  0  0  0  0  0  0  0  0  0  0
    1.4631    1.0040    0.0000 H   0  0  0  0  0  0  0  0  0  0  0  0
    1.6900    0.1570    0.0000 H   0  0  0  0  0  0  0  0  0  0  0  0
    8.0622   -3.4260    0.0000 H   0  0  0  0  0  0  0  0  0  0  0  0
  1 16  1  0  0  0  0
  1 45  1  0  0  0  0
  2 16  2  0  0  0  0
  3 17  2  0  0  0  0
  8  4  1  1  0  0  0
  4 13  1  0  0  0  0
  4 14  1  0  0  0  0
  7  5  1  6  0  0  0
  5 17  1  0  0  0  0
  5 29  1  0  0  0  0
  9  6  1  6  0  0  0
  6 30  1  0  0  0  0
  6 31  1  0  0  0  0
  7  8  1  0  0  0  0
  7  9  1  0  0  0  0
  7 21  1  0  0  0  0
  8 11  1  0  0  0  0
  8 22  1  0  0  0  0
  9 10  1  0  0  0  0
  9 23  1  0  0  0  0
 10 12  1  0  0  0  0
 10 24  1  0  0  0  0
 10 25  1  0  0  0  0
 11 12  2  0  0  0  0
 11 26  1  0  0  0  0
 12 16  1  0  0  0  0
 13 15  1  0  0  0  0
 13 27  1  0  0  0  0
 13 28  1  0  0  0  0
 14 32  1  0  0  0  0
 14 33  1  0  0  0  0
 14 34  1  0  0  0  0
 15 18  1  0  0  0  0
 15 35  1  0  0  0  0
 15 36  1  0  0  0  0
 17 19  1  0  0  0  0
 18 20  1  0  0  0  0
 18 37  1  0  0  0  0
 18 38  1  0  0  0  0
 19 39  1  0  0  0  0
 19 40  1  0  0  0  0
 19 41  1  0  0  0  0
 20 42  1  0  0  0  0
 20 43  1  0  0  0  0
 20 44  1  0  0  0  0
M  END
> <PUBCHEM_COMPOUND_CID>
506126
> <PUBCHEM_COMPOUND_CANONICALIZED>
1
> <PUBCHEM_CACTVS_COMPLEXITY>
395
> <PUBCHEM_CACTVS_HBOND_ACCEPTOR>
5
> <PUBCHEM_CACTVS_HBOND_DONOR>
3
> <PUBCHEM_CACTVS_ROTATABLE_BOND>
6
> <PUBCHEM_CACTVS_SUBSKEYS>
AAADceBzMAAAAAAAAAAAAAAAAAAAAAAAAAAgAAAAAAAAAAAAAAAAHgAQCAAADCjBgAQCCAPAAgCIAiHSGACAAAAgAAAACIEIAEgARBIAwQAUUAAElgCIEYO82SOQAAAAAAAAAAAAAAAAAAAAAAAAAAAAAA==
> <PUBCHEM_IUPAC_OPENEYE_NAME>
(3R,4R,5R)-4-acetamido-5-amino-3-[butyl(methyl)amino]cyclohexene-1-carboxylic acid
> <PUBCHEM_IUPAC_CAS_NAME>
(3R,4R,5R)-4-acetamido-5-amino-3-[butyl(methyl)amino]-1-cyclohexenecarboxylic acid
> <PUBCHEM_IUPAC_NAME_MARKUP>
(3<I>R</I>,4<I>R</I>,5<I>R</I>)-4-acetamido-5-amino-3-[butyl(methyl)amino]cyclohexene-1-carboxylic acid
> <PUBCHEM_IUPAC_NAME>
(3R,4R,5R)-4-acetamido-5-amino-3-[butyl(methyl)amino]cyclohexene-1-carboxylic acid
> <PUBCHEM_IUPAC_SYSTEMATIC_NAME>
(3R,4R,5R)-4-acetamido-5-azanyl-3-[butyl(methyl)amino]cyclohexene-1-carboxylic acid
> <PUBCHEM_IUPAC_TRADITIONAL_NAME>
(3R,4R,5R)-4-acetamido-5-amino-3-[butyl(methyl)amino]cyclohexene-1-carboxylic acid
> <PUBCHEM_IUPAC_INCHI>
InChI=1S/C14H25N3O3/c1-4-5-6-17(3)12-8-10(14(19)20)7-11(15)13(12)16-9(2)18/h8,11-13H,4-7,15H2,1-3H3,(H,16,18)(H,19,20)/t11-,12-,13-/m1/s1
> <PUBCHEM_IUPAC_INCHIKEY>
YSTLRIPWHBZYEM-JHJVBQTASA-N
> <PUBCHEM_XLOGP3_AA>
-2.3
> <PUBCHEM_EXACT_MASS>
283.18959167
> <PUBCHEM_MOLECULAR_FORMULA>
C14H25N3O3
> <PUBCHEM_MOLECULAR_WEIGHT>
283.37
> <PUBCHEM_OPENEYE_CAN_SMILES>
CCCCN(C)C1C=C(CC(C1NC(=O)C)N)C(=O)O
> <PUBCHEM_OPENEYE_ISO_SMILES>
CCCCN(C)[C@@H]1C=C(C[C@H]([C@H]1NC(=O)C)N)C(=O)O
> <PUBCHEM_CACTVS_TPSA>
95.7
> <PUBCHEM_MONOISOTOPIC_WEIGHT>
283.18959167
> <PUBCHEM_TOTAL_CHARGE>
0
> <PUBCHEM_HEAVY_ATOM_COUNT>
20
> <PUBCHEM_ATOM_DEF_STEREO_COUNT>
3
> <PUBCHEM_ATOM_UDEF_STEREO_COUNT>
0
> <PUBCHEM_BOND_DEF_STEREO_COUNT>
0
> <PUBCHEM_BOND_UDEF_STEREO_COUNT>
0
> <PUBCHEM_ISOTOPIC_ATOM_COUNT>
0
> <PUBCHEM_COMPONENT_COUNT>
1
> <PUBCHEM_CACTVS_TAUTO_COUNT>
-1
> <PUBCHEM_COORDINATE_TYPE>
1
5
255
> <PUBCHEM_BONDANNOTATIONS>
8  4  5
7  5  6
9  6  6
$$$$
