506138
  -OEChem-10302200282D
 40 40  0     1  0  0  0  0  0999 V2000
    4.5134    1.0429    0.0000 O   0  0  0  0  0  0  0  0  0  0  0  0
    2.6166   -0.7172    0.0000 O   0  0  0  0  0  0  0  0  0  0  0  0
    3.1166    2.4397    0.0000 O   0  0  0  0  0  0  0  0  0  0  0  0
    6.3745   -1.4216    0.0000 O   0  0  0  0  0  0  0  0  0  0  0  0
    5.6056    1.1099    0.0000 O   0  0  0  0  0  0  0  0  0  0  0  0
    5.2867    2.3352    0.0000 O   0  0  0  0  0  0  0  0  0  0  0  0
    3.8854    3.3533    0.0000 O   0  0  0  0  0  0  0  0  0  0  0  0
    7.5947    1.3190    0.0000 O   0  0  0  0  0  0  0  0  0  0  0  0
    5.9677   -2.3352    0.0000 O   0  0  0  0  0  0  0  0  0  0  0  0
    4.3854   -1.6307    0.0000 N   0  0  0  0  0  0  0  0  0  0  0  0
    4.2044    0.0919    0.0000 C   0  0  2  0  0  0  0  0  0  0  0  0
    4.7922   -0.7172    0.0000 C   0  0  2  0  0  0  0  0  0  0  0  0
    3.2044    0.0919    0.0000 C   0  0  2  0  0  0  0  0  0  0  0  0
    2.8954    1.0429    0.0000 C   0  0  0  0  0  0  0  0  0  0  0  0
    3.7044    1.6307    0.0000 C   0  0  3  0  0  0  0  0  0  0  0  0
    5.7867   -0.6126    0.0000 C   0  0  3  0  0  0  0  0  0  0  0  0
    6.1934    0.3009    0.0000 C   0  0  3  0  0  0  0  0  0  0  0  0
    4.2922    2.4397    0.0000 C   0  0  0  0  0  0  0  0  0  0  0  0
    7.1880    0.4054    0.0000 C   0  0  0  0  0  0  0  0  0  0  0  0
    4.9732   -2.4397    0.0000 C   0  0  0  0  0  0  0  0  0  0  0  0
    4.5665   -3.3533    0.0000 C   0  0  0  0  0  0  0  0  0  0  0  0
    5.0439    0.2248    0.0000 H   0  0  0  0  0  0  0  0  0  0  0  0
    4.1756   -0.7820    0.0000 H   0  0  0  0  0  0  0  0  0  0  0  0
    2.5920    0.1888    0.0000 H   0  0  0  0  0  0  0  0  0  0  0  0
    2.5854    1.5798    0.0000 H   0  0  0  0  0  0  0  0  0  0  0  0
    2.3290    0.7907    0.0000 H   0  0  0  0  0  0  0  0  0  0  0  0
    5.5345   -1.1790    0.0000 H   0  0  0  0  0  0  0  0  0  0  0  0
    6.4456    0.8673    0.0000 H   0  0  0  0  0  0  0  0  0  0  0  0
    3.7688   -1.6955    0.0000 H   0  0  0  0  0  0  0  0  0  0  0  0
    2.0000   -0.6523    0.0000 H   0  0  0  0  0  0  0  0  0  0  0  0
    2.5000    2.3749    0.0000 H   0  0  0  0  0  0  0  0  0  0  0  0
    7.1447   -0.2130    0.0000 H   0  0  0  0  0  0  0  0  0  0  0  0
    7.7895    0.2555    0.0000 H   0  0  0  0  0  0  0  0  0  0  0  0
    6.9911   -1.3568    0.0000 H   0  0  0  0  0  0  0  0  0  0  0  0
    5.8578    1.6763    0.0000 H   0  0  0  0  0  0  0  0  0  0  0  0
    5.6511    2.8368    0.0000 H   0  0  0  0  0  0  0  0  0  0  0  0
    4.0001   -3.1011    0.0000 H   0  0  0  0  0  0  0  0  0  0  0  0
    4.3143   -3.9197    0.0000 H   0  0  0  0  0  0  0  0  0  0  0  0
    5.1329   -3.6054    0.0000 H   0  0  0  0  0  0  0  0  0  0  0  0
    8.2113    1.3838    0.0000 H   0  0  0  0  0  0  0  0  0  0  0  0
  1 11  1  0  0  0  0
  1 15  1  0  0  0  0
 13  2  1  1  0  0  0
  2 30  1  0  0  0  0
  3 15  1  0  0  0  0
  3 31  1  0  0  0  0
  4 16  1  0  0  0  0
  4 34  1  0  0  0  0
  5 17  1  0  0  0  0
  5 35  1  0  0  0  0
  6 18  1  0  0  0  0
  6 36  1  0  0  0  0
  7 18  2  0  0  0  0
  8 19  1  0  0  0  0
  8 40  1  0  0  0  0
  9 20  2  0  0  0  0
 12 10  1  6  0  0  0
 10 20  1  0  0  0  0
 10 29  1  0  0  0  0
 11 12  1  0  0  0  0
 11 13  1  0  0  0  0
 11 22  1  1  0  0  0
 12 16  1  0  0  0  0
 12 23  1  0  0  0  0
 13 14  1  0  0  0  0
 13 24  1  0  0  0  0
 14 15  1  0  0  0  0
 14 25  1  0  0  0  0
 14 26  1  0  0  0  0
 15 18  1  0  0  0  0
 16 17  1  0  0  0  0
 16 27  1  0  0  0  0
 17 19  1  0  0  0  0
 17 28  1  0  0  0  0
 19 32  1  0  0  0  0
 19 33  1  0  0  0  0
 20 21  1  0  0  0  0
 21 37  1  0  0  0  0
 21 38  1  0  0  0  0
 21 39  1  0  0  0  0
M  END
> <PUBCHEM_COMPOUND_CID>
506138
> <PUBCHEM_COMPOUND_CANONICALIZED>
1
> <PUBCHEM_CACTVS_COMPLEXITY>
403
> <PUBCHEM_CACTVS_HBOND_ACCEPTOR>
9
> <PUBCHEM_CACTVS_HBOND_DONOR>
7
> <PUBCHEM_CACTVS_ROTATABLE_BOND>
6
> <PUBCHEM_CACTVS_SUBSKEYS>
AAADceByPAAAAAAAAAAAAAAAAAAAASAAAAAAAAAAAAAAAAAAAAAAHgAQCAAACDzhgAYCCALABgAIAAGQGAIAAAAAAAAAAIFIAAATEBIAgAQHQAAHFgCXAAH6/K/AAAAAAAAAAAAAAAAAAAAAAAAAAAAAAA==
> <PUBCHEM_IUPAC_OPENEYE_NAME>
(4S,5R)-5-[(1S)-1-acetamido-2,3,4-trihydroxy-butyl]-2,4-dihydroxy-tetrahydrofuran-2-carboxylic acid
> <PUBCHEM_IUPAC_CAS_NAME>
(4S,5R)-5-[(1S)-1-acetamido-2,3,4-trihydroxybutyl]-2,4-dihydroxy-2-oxolanecarboxylic acid
> <PUBCHEM_IUPAC_NAME_MARKUP>
(4<I>S</I>,5<I>R</I>)-5-[(1<I>S</I>)-1-acetamido-2,3,4-trihydroxybutyl]-2,4-dihydroxyoxolane-2-carboxylic acid
> <PUBCHEM_IUPAC_NAME>
(4S,5R)-5-[(1S)-1-acetamido-2,3,4-trihydroxybutyl]-2,4-dihydroxyoxolane-2-carboxylic acid
> <PUBCHEM_IUPAC_SYSTEMATIC_NAME>
(4S,5R)-5-[(1S)-1-acetamido-2,3,4-tris(oxidanyl)butyl]-2,4-bis(oxidanyl)oxolane-2-carboxylic acid
> <PUBCHEM_IUPAC_TRADITIONAL_NAME>
(4S,5R)-5-[(1S)-1-acetamido-2,3,4-trihydroxy-butyl]-2,4-dihydroxy-tetrahydrofuran-2-carboxylic acid
> <PUBCHEM_IUPAC_INCHI>
InChI=1S/C11H19NO9/c1-4(14)12-7(8(17)6(16)3-13)9-5(15)2-11(20,21-9)10(18)19/h5-9,13,15-17,20H,2-3H2,1H3,(H,12,14)(H,18,19)/t5-,6?,7-,8?,9-,11?/m0/s1
> <PUBCHEM_IUPAC_INCHIKEY>
ZKDMLSDSJQJFAB-JEZNJYRKSA-N
> <PUBCHEM_XLOGP3_AA>
-3.5
> <PUBCHEM_EXACT_MASS>
309.10598118
> <PUBCHEM_MOLECULAR_FORMULA>
C11H19NO9
> <PUBCHEM_MOLECULAR_WEIGHT>
309.27
> <PUBCHEM_OPENEYE_CAN_SMILES>
CC(=O)NC(C1C(CC(O1)(C(=O)O)O)O)C(C(CO)O)O
> <PUBCHEM_OPENEYE_ISO_SMILES>
CC(=O)N[C@H]([C@@H]1[C@H](CC(O1)(C(=O)O)O)O)C(C(CO)O)O
> <PUBCHEM_CACTVS_TPSA>
177
> <PUBCHEM_MONOISOTOPIC_WEIGHT>
309.10598118
> <PUBCHEM_TOTAL_CHARGE>
0
> <PUBCHEM_HEAVY_ATOM_COUNT>
21
> <PUBCHEM_ATOM_DEF_STEREO_COUNT>
3
> <PUBCHEM_ATOM_UDEF_STEREO_COUNT>
3
> <PUBCHEM_BOND_DEF_STEREO_COUNT>
0
> <PUBCHEM_BOND_UDEF_STEREO_COUNT>
0
> <PUBCHEM_ISOTOPIC_ATOM_COUNT>
0
> <PUBCHEM_COMPONENT_COUNT>
1
> <PUBCHEM_CACTVS_TAUTO_COUNT>
-1
> <PUBCHEM_COORDINATE_TYPE>
1
5
255
> <PUBCHEM_BONDANNOTATIONS>
12  10  6
11  22  5
13  2  5
15  3  3
16  4  3
17  5  3
$$$$
