506169
  -OEChem-10302200282D
 59 64  0     1  0  0  0  0  0999 V2000
    6.8078    2.1244    0.0000 O   0  0  0  0  0  0  0  0  0  0  0  0
    9.0399   -1.5574    0.0000 O   0  0  0  0  0  0  0  0  0  0  0  0
    7.3865   -1.0413    0.0000 O   0  0  0  0  0  0  0  0  0  0  0  0
    5.9418   -1.3756    0.0000 N   0  0  0  0  0  0  0  0  0  0  0  0
    5.9418    0.6244    0.0000 N   0  0  0  0  0  0  0  0  0  0  0  0
    2.6067    3.7914    0.0000 N   0  0  0  0  0  0  0  0  0  0  0  0
    5.9418   -2.3756    0.0000 C   0  0  3  0  0  0  0  0  0  0  0  0
    6.8078   -0.8756    0.0000 C   0  0  0  0  0  0  0  0  0  0  0  0
    5.0757   -0.8756    0.0000 C   0  0  0  0  0  0  0  0  0  0  0  0
    6.7508   -2.9634    0.0000 C   0  0  0  0  0  0  0  0  0  0  0  0
    5.1328   -2.9634    0.0000 C   0  0  0  0  0  0  0  0  0  0  0  0
    6.8078    0.1244    0.0000 C   0  0  0  0  0  0  0  0  0  0  0  0
    5.0757    0.1244    0.0000 C   0  0  0  0  0  0  0  0  0  0  0  0
    6.4418   -3.9145    0.0000 C   0  0  0  0  0  0  0  0  0  0  0  0
    5.4418   -3.9145    0.0000 C   0  0  0  0  0  0  0  0  0  0  0  0
    7.7662   -2.7312    0.0000 C   0  0  0  0  0  0  0  0  0  0  0  0
    4.1173   -2.7312    0.0000 C   0  0  0  0  0  0  0  0  0  0  0  0
    7.1267   -4.6992    0.0000 C   0  0  0  0  0  0  0  0  0  0  0  0
    4.7568   -4.6992    0.0000 C   0  0  0  0  0  0  0  0  0  0  0  0
    5.9418    1.6244    0.0000 C   0  0  0  0  0  0  0  0  0  0  0  0
    8.4691   -3.4999    0.0000 C   0  0  0  0  0  0  0  0  0  0  0  0
    3.4144   -3.4999    0.0000 C   0  0  0  0  0  0  0  0  0  0  0  0
    8.1472   -4.4905    0.0000 C   0  0  0  0  0  0  0  0  0  0  0  0
    3.7363   -4.4905    0.0000 C   0  0  0  0  0  0  0  0  0  0  0  0
    8.0642   -1.7766    0.0000 C   0  0  0  0  0  0  0  0  0  0  0  0
    5.0757    2.1244    0.0000 C   0  0  0  0  0  0  0  0  0  0  0  0
    5.0757    3.1244    0.0000 C   0  0  0  0  0  0  0  0  0  0  0  0
    4.2097    1.6244    0.0000 C   0  0  0  0  0  0  0  0  0  0  0  0
    4.2097    3.6244    0.0000 C   0  0  0  0  0  0  0  0  0  0  0  0
    3.3437    3.1244    0.0000 C   0  0  0  0  0  0  0  0  0  0  0  0
    3.3437    2.1244    0.0000 C   0  0  0  0  0  0  0  0  0  0  0  0
    4.0005    4.5962    0.0000 C   0  0  0  0  0  0  0  0  0  0  0  0
    3.0118    4.6992    0.0000 C   0  0  0  0  0  0  0  0  0  0  0  0
    9.3379   -0.6028    0.0000 C   0  0  0  0  0  0  0  0  0  0  0  0
    6.4942   -2.0942    0.0000 H   0  0  0  0  0  0  0  0  0  0  0  0
    7.0198   -1.4583    0.0000 H   0  0  0  0  0  0  0  0  0  0  0  0
    7.4184   -0.7680    0.0000 H   0  0  0  0  0  0  0  0  0  0  0  0
    4.4652   -0.7680    0.0000 H   0  0  0  0  0  0  0  0  0  0  0  0
    4.8637   -1.4583    0.0000 H   0  0  0  0  0  0  0  0  0  0  0  0
    7.4184    0.0167    0.0000 H   0  0  0  0  0  0  0  0  0  0  0  0
    7.0198    0.7070    0.0000 H   0  0  0  0  0  0  0  0  0  0  0  0
    4.8637    0.7070    0.0000 H   0  0  0  0  0  0  0  0  0  0  0  0
    4.4652    0.0167    0.0000 H   0  0  0  0  0  0  0  0  0  0  0  0
    3.9326   -2.1394    0.0000 H   0  0  0  0  0  0  0  0  0  0  0  0
    6.9283   -5.2866    0.0000 H   0  0  0  0  0  0  0  0  0  0  0  0
    4.9552   -5.2866    0.0000 H   0  0  0  0  0  0  0  0  0  0  0  0
    9.0751   -3.3686    0.0000 H   0  0  0  0  0  0  0  0  0  0  0  0
    2.8085   -3.3686    0.0000 H   0  0  0  0  0  0  0  0  0  0  0  0
    8.5603   -4.9529    0.0000 H   0  0  0  0  0  0  0  0  0  0  0  0
    3.3232   -4.9529    0.0000 H   0  0  0  0  0  0  0  0  0  0  0  0
    5.6127    3.4344    0.0000 H   0  0  0  0  0  0  0  0  0  0  0  0
    4.2097    1.0044    0.0000 H   0  0  0  0  0  0  0  0  0  0  0  0
    2.8068    1.8144    0.0000 H   0  0  0  0  0  0  0  0  0  0  0  0
    4.4146    5.0576    0.0000 H   0  0  0  0  0  0  0  0  0  0  0  0
    2.0000    3.6636    0.0000 H   0  0  0  0  0  0  0  0  0  0  0  0
    2.7018    5.2362    0.0000 H   0  0  0  0  0  0  0  0  0  0  0  0
    9.9297   -0.7876    0.0000 H   0  0  0  0  0  0  0  0  0  0  0  0
    9.5226   -0.0110    0.0000 H   0  0  0  0  0  0  0  0  0  0  0  0
    8.7460   -0.4181    0.0000 H   0  0  0  0  0  0  0  0  0  0  0  0
  1 20  2  0  0  0  0
  2 25  1  0  0  0  0
  2 34  1  0  0  0  0
  3 25  2  0  0  0  0
  4  7  1  0  0  0  0
  4  8  1  0  0  0  0
  4  9  1  0  0  0  0
  5 12  1  0  0  0  0
  5 13  1  0  0  0  0
  5 20  1  0  0  0  0
  6 30  1  0  0  0  0
  6 33  1  0  0  0  0
  6 55  1  0  0  0  0
  7 10  1  0  0  0  0
  7 11  1  0  0  0  0
  7 35  1  0  0  0  0
  8 12  1  0  0  0  0
  8 36  1  0  0  0  0
  8 37  1  0  0  0  0
  9 13  1  0  0  0  0
  9 38  1  0  0  0  0
  9 39  1  0  0  0  0
 10 14  2  0  0  0  0
 10 16  1  0  0  0  0
 11 15  1  0  0  0  0
 11 17  2  0  0  0  0
 12 40  1  0  0  0  0
 12 41  1  0  0  0  0
 13 42  1  0  0  0  0
 13 43  1  0  0  0  0
 14 15  1  0  0  0  0
 14 18  1  0  0  0  0
 15 19  2  0  0  0  0
 16 21  2  0  0  0  0
 16 25  1  0  0  0  0
 17 22  1  0  0  0  0
 17 44  1  0  0  0  0
 18 23  2  0  0  0  0
 18 45  1  0  0  0  0
 19 24  1  0  0  0  0
 19 46  1  0  0  0  0
 20 26  1  0  0  0  0
 21 23  1  0  0  0  0
 21 47  1  0  0  0  0
 22 24  2  0  0  0  0
 22 48  1  0  0  0  0
 23 49  1  0  0  0  0
 24 50  1  0  0  0  0
 26 27  2  0  0  0  0
 26 28  1  0  0  0  0
 27 29  1  0  0  0  0
 27 51  1  0  0  0  0
 28 31  2  0  0  0  0
 28 52  1  0  0  0  0
 29 30  2  0  0  0  0
 29 32  1  0  0  0  0
 30 31  1  0  0  0  0
 31 53  1  0  0  0  0
 32 33  2  0  0  0  0
 32 54  1  0  0  0  0
 33 56  1  0  0  0  0
 34 57  1  0  0  0  0
 34 58  1  0  0  0  0
 34 59  1  0  0  0  0
M  END
> <PUBCHEM_COMPOUND_CID>
506169
> <PUBCHEM_COMPOUND_CANONICALIZED>
1
> <PUBCHEM_CACTVS_COMPLEXITY>
766
> <PUBCHEM_CACTVS_HBOND_ACCEPTOR>
4
> <PUBCHEM_CACTVS_HBOND_DONOR>
1
> <PUBCHEM_CACTVS_ROTATABLE_BOND>
4
> <PUBCHEM_CACTVS_SUBSKEYS>
AAADceB7MAAAAAAAAAAAAAAAAAAAAeIAAAA8YMEAAAAAAHgB9AAAHgAQAAAADCjBngY+yPPJlACoAzX3XACCgCA1AiAI2aE4bNgIZvLAtZmUMQhk1gHI6Ye8yfCeiAACAAASAAAQAAQAACQAASAACQAAAA==
> <PUBCHEM_IUPAC_OPENEYE_NAME>
methyl 9-[4-(1H-indole-5-carbonyl)piperazin-1-yl]-9H-fluorene-1-carboxylate
> <PUBCHEM_IUPAC_CAS_NAME>
9-[4-[1H-indol-5-yl(oxo)methyl]-1-piperazinyl]-9H-fluorene-1-carboxylic acid methyl ester
> <PUBCHEM_IUPAC_NAME_MARKUP>
methyl 9-[4-(1<I>H</I>-indole-5-carbonyl)piperazin-1-yl]-9<I>H</I>-fluorene-1-carboxylate
> <PUBCHEM_IUPAC_NAME>
methyl 9-[4-(1H-indole-5-carbonyl)piperazin-1-yl]-9H-fluorene-1-carboxylate
> <PUBCHEM_IUPAC_SYSTEMATIC_NAME>
methyl 9-[4-(1H-indol-5-ylcarbonyl)piperazin-1-yl]-9H-fluorene-1-carboxylate
> <PUBCHEM_IUPAC_TRADITIONAL_NAME>
9-[4-(1H-indole-5-carbonyl)piperazino]-9H-fluorene-1-carboxylic acid methyl ester
> <PUBCHEM_IUPAC_INCHI>
InChI=1S/C28H25N3O3/c1-34-28(33)23-8-4-7-21-20-5-2-3-6-22(20)26(25(21)23)30-13-15-31(16-14-30)27(32)19-9-10-24-18(17-19)11-12-29-24/h2-12,17,26,29H,13-16H2,1H3
> <PUBCHEM_IUPAC_INCHIKEY>
AHPDWCPVDFKHEC-UHFFFAOYSA-N
> <PUBCHEM_XLOGP3_AA>
4.1
> <PUBCHEM_EXACT_MASS>
451.18959167
> <PUBCHEM_MOLECULAR_FORMULA>
C28H25N3O3
> <PUBCHEM_MOLECULAR_WEIGHT>
451.5
> <PUBCHEM_OPENEYE_CAN_SMILES>
COC(=O)C1=CC=CC2=C1C(C3=CC=CC=C23)N4CCN(CC4)C(=O)C5=CC6=C(C=C5)NC=C6
> <PUBCHEM_OPENEYE_ISO_SMILES>
COC(=O)C1=CC=CC2=C1C(C3=CC=CC=C23)N4CCN(CC4)C(=O)C5=CC6=C(C=C5)NC=C6
> <PUBCHEM_CACTVS_TPSA>
65.6
> <PUBCHEM_MONOISOTOPIC_WEIGHT>
451.18959167
> <PUBCHEM_TOTAL_CHARGE>
0
> <PUBCHEM_HEAVY_ATOM_COUNT>
34
> <PUBCHEM_ATOM_DEF_STEREO_COUNT>
0
> <PUBCHEM_ATOM_UDEF_STEREO_COUNT>
1
> <PUBCHEM_BOND_DEF_STEREO_COUNT>
0
> <PUBCHEM_BOND_UDEF_STEREO_COUNT>
0
> <PUBCHEM_ISOTOPIC_ATOM_COUNT>
0
> <PUBCHEM_COMPONENT_COUNT>
1
> <PUBCHEM_CACTVS_TAUTO_COUNT>
-1
> <PUBCHEM_COORDINATE_TYPE>
1
5
255
> <PUBCHEM_BONDANNOTATIONS>
10  14  8
10  16  8
11  15  8
11  17  8
14  18  8
15  19  8
16  21  8
17  22  8
18  23  8
19  24  8
21  23  8
22  24  8
26  27  8
26  28  8
27  29  8
28  31  8
29  30  8
29  32  8
30  31  8
32  33  8
7  4  3
6  30  8
6  33  8
$$$$
