506174
  -OEChem-10302200282D
 57 62  0     1  0  0  0  0  0999 V2000
    6.8078    2.1244    0.0000 O   0  0  0  0  0  0  0  0  0  0  0  0
   11.0958   -3.8171    0.0000 O   0  0  0  0  0  0  0  0  0  0  0  0
    5.9418   -1.3756    0.0000 N   0  0  0  0  0  0  0  0  0  0  0  0
    5.9418    0.6244    0.0000 N   0  0  0  0  0  0  0  0  0  0  0  0
    9.4465   -3.2882    0.0000 N   0  0  0  0  0  0  0  0  0  0  0  0
    2.6067    3.7914    0.0000 N   0  0  0  0  0  0  0  0  0  0  0  0
    5.9418   -2.3756    0.0000 C   0  0  3  0  0  0  0  0  0  0  0  0
    6.8078   -0.8756    0.0000 C   0  0  0  0  0  0  0  0  0  0  0  0
    5.0757   -0.8756    0.0000 C   0  0  0  0  0  0  0  0  0  0  0  0
    6.7508   -2.9634    0.0000 C   0  0  0  0  0  0  0  0  0  0  0  0
    5.1328   -2.9634    0.0000 C   0  0  0  0  0  0  0  0  0  0  0  0
    6.8078    0.1244    0.0000 C   0  0  0  0  0  0  0  0  0  0  0  0
    5.0757    0.1244    0.0000 C   0  0  0  0  0  0  0  0  0  0  0  0
    6.4418   -3.9145    0.0000 C   0  0  0  0  0  0  0  0  0  0  0  0
    5.4418   -3.9145    0.0000 C   0  0  0  0  0  0  0  0  0  0  0  0
    7.7662   -2.7312    0.0000 C   0  0  0  0  0  0  0  0  0  0  0  0
    4.1173   -2.7312    0.0000 C   0  0  0  0  0  0  0  0  0  0  0  0
    7.1267   -4.6992    0.0000 C   0  0  0  0  0  0  0  0  0  0  0  0
    4.7568   -4.6992    0.0000 C   0  0  0  0  0  0  0  0  0  0  0  0
    5.9418    1.6244    0.0000 C   0  0  0  0  0  0  0  0  0  0  0  0
    8.4691   -3.4999    0.0000 C   0  0  0  0  0  0  0  0  0  0  0  0
    8.1472   -4.4905    0.0000 C   0  0  0  0  0  0  0  0  0  0  0  0
    3.4144   -3.4999    0.0000 C   0  0  0  0  0  0  0  0  0  0  0  0
    3.7363   -4.4905    0.0000 C   0  0  0  0  0  0  0  0  0  0  0  0
    5.0757    2.1244    0.0000 C   0  0  0  0  0  0  0  0  0  0  0  0
    5.0757    3.1244    0.0000 C   0  0  0  0  0  0  0  0  0  0  0  0
    4.2097    1.6244    0.0000 C   0  0  0  0  0  0  0  0  0  0  0  0
    4.2097    3.6244    0.0000 C   0  0  0  0  0  0  0  0  0  0  0  0
    3.3437    3.1244    0.0000 C   0  0  0  0  0  0  0  0  0  0  0  0
    3.3437    2.1244    0.0000 C   0  0  0  0  0  0  0  0  0  0  0  0
    4.0005    4.5962    0.0000 C   0  0  0  0  0  0  0  0  0  0  0  0
   10.1185   -4.0287    0.0000 C   0  0  0  0  0  0  0  0  0  0  0  0
    3.0118    4.6992    0.0000 C   0  0  0  0  0  0  0  0  0  0  0  0
    6.4942   -2.0942    0.0000 H   0  0  0  0  0  0  0  0  0  0  0  0
    7.0198   -1.4583    0.0000 H   0  0  0  0  0  0  0  0  0  0  0  0
    7.4184   -0.7680    0.0000 H   0  0  0  0  0  0  0  0  0  0  0  0
    4.4652   -0.7680    0.0000 H   0  0  0  0  0  0  0  0  0  0  0  0
    4.8637   -1.4583    0.0000 H   0  0  0  0  0  0  0  0  0  0  0  0
    7.4184    0.0167    0.0000 H   0  0  0  0  0  0  0  0  0  0  0  0
    7.0198    0.7070    0.0000 H   0  0  0  0  0  0  0  0  0  0  0  0
    4.8637    0.7070    0.0000 H   0  0  0  0  0  0  0  0  0  0  0  0
    4.4652    0.0167    0.0000 H   0  0  0  0  0  0  0  0  0  0  0  0
    7.9510   -2.1394    0.0000 H   0  0  0  0  0  0  0  0  0  0  0  0
    3.9326   -2.1394    0.0000 H   0  0  0  0  0  0  0  0  0  0  0  0
    6.9283   -5.2866    0.0000 H   0  0  0  0  0  0  0  0  0  0  0  0
    4.9552   -5.2866    0.0000 H   0  0  0  0  0  0  0  0  0  0  0  0
    8.5603   -4.9529    0.0000 H   0  0  0  0  0  0  0  0  0  0  0  0
    2.8085   -3.3686    0.0000 H   0  0  0  0  0  0  0  0  0  0  0  0
    3.3232   -4.9529    0.0000 H   0  0  0  0  0  0  0  0  0  0  0  0
    9.6358   -2.6978    0.0000 H   0  0  0  0  0  0  0  0  0  0  0  0
    5.6127    3.4344    0.0000 H   0  0  0  0  0  0  0  0  0  0  0  0
    4.2097    1.0044    0.0000 H   0  0  0  0  0  0  0  0  0  0  0  0
    2.8068    1.8144    0.0000 H   0  0  0  0  0  0  0  0  0  0  0  0
    4.4146    5.0576    0.0000 H   0  0  0  0  0  0  0  0  0  0  0  0
    9.9291   -4.6191    0.0000 H   0  0  0  0  0  0  0  0  0  0  0  0
    2.0000    3.6636    0.0000 H   0  0  0  0  0  0  0  0  0  0  0  0
    2.7018    5.2362    0.0000 H   0  0  0  0  0  0  0  0  0  0  0  0
  1 20  2  0  0  0  0
  2 32  2  0  0  0  0
  3  7  1  0  0  0  0
  3  8  1  0  0  0  0
  3  9  1  0  0  0  0
  4 12  1  0  0  0  0
  4 13  1  0  0  0  0
  4 20  1  0  0  0  0
  5 21  1  0  0  0  0
  5 32  1  0  0  0  0
  5 50  1  0  0  0  0
  6 29  1  0  0  0  0
  6 33  1  0  0  0  0
  6 56  1  0  0  0  0
  7 10  1  0  0  0  0
  7 11  1  0  0  0  0
  7 34  1  0  0  0  0
  8 12  1  0  0  0  0
  8 35  1  0  0  0  0
  8 36  1  0  0  0  0
  9 13  1  0  0  0  0
  9 37  1  0  0  0  0
  9 38  1  0  0  0  0
 10 14  2  0  0  0  0
 10 16  1  0  0  0  0
 11 15  1  0  0  0  0
 11 17  2  0  0  0  0
 12 39  1  0  0  0  0
 12 40  1  0  0  0  0
 13 41  1  0  0  0  0
 13 42  1  0  0  0  0
 14 15  1  0  0  0  0
 14 18  1  0  0  0  0
 15 19  2  0  0  0  0
 16 21  2  0  0  0  0
 16 43  1  0  0  0  0
 17 23  1  0  0  0  0
 17 44  1  0  0  0  0
 18 22  2  0  0  0  0
 18 45  1  0  0  0  0
 19 24  1  0  0  0  0
 19 46  1  0  0  0  0
 20 25  1  0  0  0  0
 21 22  1  0  0  0  0
 22 47  1  0  0  0  0
 23 24  2  0  0  0  0
 23 48  1  0  0  0  0
 24 49  1  0  0  0  0
 25 26  2  0  0  0  0
 25 27  1  0  0  0  0
 26 28  1  0  0  0  0
 26 51  1  0  0  0  0
 27 30  2  0  0  0  0
 27 52  1  0  0  0  0
 28 29  2  0  0  0  0
 28 31  1  0  0  0  0
 29 30  1  0  0  0  0
 30 53  1  0  0  0  0
 31 33  2  0  0  0  0
 31 54  1  0  0  0  0
 32 55  1  0  0  0  0
 33 57  1  0  0  0  0
M  END
> <PUBCHEM_COMPOUND_CID>
506174
> <PUBCHEM_COMPOUND_CANONICALIZED>
1
> <PUBCHEM_CACTVS_COMPLEXITY>
723
> <PUBCHEM_CACTVS_HBOND_ACCEPTOR>
3
> <PUBCHEM_CACTVS_HBOND_DONOR>
2
> <PUBCHEM_CACTVS_ROTATABLE_BOND>
3
> <PUBCHEM_CACTVS_SUBSKEYS>
AAADceB7sAAAAAAAAAAAAAAAAAAAAeIAAAA8YMEAAAAAAHgB9AAAHgAQAAAADCjBngY8wPPJkACoAzV31ACCgCA1AiAI2aE4ZNgIYPLAlZGUIQhglgDIyYcYicCeiAACQAASAAAQAASAACQAASAACQAAAA==
> <PUBCHEM_IUPAC_OPENEYE_NAME>
N-[9-[4-(1H-indole-5-carbonyl)piperazin-1-yl]-9H-fluoren-2-yl]formamide
> <PUBCHEM_IUPAC_CAS_NAME>
N-[9-[4-[1H-indol-5-yl(oxo)methyl]-1-piperazinyl]-9H-fluoren-2-yl]formamide
> <PUBCHEM_IUPAC_NAME_MARKUP>
<I>N</I>-[9-[4-(1<I>H</I>-indole-5-carbonyl)piperazin-1-yl]-9<I>H</I>-fluoren-2-yl]formamide
> <PUBCHEM_IUPAC_NAME>
N-[9-[4-(1H-indole-5-carbonyl)piperazin-1-yl]-9H-fluoren-2-yl]formamide
> <PUBCHEM_IUPAC_SYSTEMATIC_NAME>
N-[9-[4-(1H-indol-5-ylcarbonyl)piperazin-1-yl]-9H-fluoren-2-yl]methanamide
> <PUBCHEM_IUPAC_TRADITIONAL_NAME>
N-[9-[4-(1H-indole-5-carbonyl)piperazino]-9H-fluoren-2-yl]formamide
> <PUBCHEM_IUPAC_INCHI>
InChI=1S/C27H24N4O2/c32-17-29-20-6-7-22-21-3-1-2-4-23(21)26(24(22)16-20)30-11-13-31(14-12-30)27(33)19-5-8-25-18(15-19)9-10-28-25/h1-10,15-17,26,28H,11-14H2,(H,29,32)
> <PUBCHEM_IUPAC_INCHIKEY>
VUIBDPQNTGUVOH-UHFFFAOYSA-N
> <PUBCHEM_XLOGP3_AA>
3.4
> <PUBCHEM_EXACT_MASS>
436.18992602
> <PUBCHEM_MOLECULAR_FORMULA>
C27H24N4O2
> <PUBCHEM_MOLECULAR_WEIGHT>
436.5
> <PUBCHEM_OPENEYE_CAN_SMILES>
C1CN(CCN1C2C3=CC=CC=C3C4=C2C=C(C=C4)NC=O)C(=O)C5=CC6=C(C=C5)NC=C6
> <PUBCHEM_OPENEYE_ISO_SMILES>
C1CN(CCN1C2C3=CC=CC=C3C4=C2C=C(C=C4)NC=O)C(=O)C5=CC6=C(C=C5)NC=C6
> <PUBCHEM_CACTVS_TPSA>
68.4
> <PUBCHEM_MONOISOTOPIC_WEIGHT>
436.18992602
> <PUBCHEM_TOTAL_CHARGE>
0
> <PUBCHEM_HEAVY_ATOM_COUNT>
33
> <PUBCHEM_ATOM_DEF_STEREO_COUNT>
0
> <PUBCHEM_ATOM_UDEF_STEREO_COUNT>
1
> <PUBCHEM_BOND_DEF_STEREO_COUNT>
0
> <PUBCHEM_BOND_UDEF_STEREO_COUNT>
0
> <PUBCHEM_ISOTOPIC_ATOM_COUNT>
0
> <PUBCHEM_COMPONENT_COUNT>
1
> <PUBCHEM_CACTVS_TAUTO_COUNT>
-1
> <PUBCHEM_COORDINATE_TYPE>
1
5
255
> <PUBCHEM_BONDANNOTATIONS>
10  14  8
10  16  8
11  15  8
11  17  8
14  18  8
15  19  8
16  21  8
17  23  8
18  22  8
19  24  8
21  22  8
23  24  8
25  26  8
25  27  8
26  28  8
27  30  8
28  29  8
28  31  8
29  30  8
7  3  3
31  33  8
6  29  8
6  33  8
$$$$
