506152
  -OEChem-10302200282D
 57 60  0     1  0  0  0  0  0999 V2000
    4.8680    0.7911    0.0000 O   0  0  0  0  0  0  0  0  0  0  0  0
    2.6166    2.2387    0.0000 O   0  0  0  0  0  0  0  0  0  0  0  0
    9.3259   -0.6069    0.0000 O   0  0  0  0  0  0  0  0  0  0  0  0
    5.7816   -0.8022    0.0000 O   0  0  0  0  0  0  0  0  0  0  0  0
    6.6476    0.6978    0.0000 N   0  0  0  0  0  0  0  0  0  0  0  0
    7.5136   -0.8022    0.0000 N   0  0  0  0  0  0  0  0  0  0  0  0
    5.7816    1.1978    0.0000 C   0  0  3  0  0  0  0  0  0  0  0  0
    5.6771    2.1923    0.0000 C   0  0  0  0  0  0  0  0  0  0  0  0
    4.6989    2.4003    0.0000 C   0  0  0  0  0  0  0  0  0  0  0  0
    4.1989    1.5342    0.0000 C   0  0  1  0  0  0  0  0  0  0  0  0
    3.2044    1.4297    0.0000 C   0  0  0  0  0  0  0  0  0  0  0  0
    7.5136    1.1978    0.0000 C   0  0  0  0  0  0  0  0  0  0  0  0
    6.6476   -0.3022    0.0000 C   0  0  0  0  0  0  0  0  0  0  0  0
    8.3797    0.6978    0.0000 C   0  0  0  0  0  0  0  0  0  0  0  0
    8.3797   -0.3022    0.0000 C   0  0  0  0  0  0  0  0  0  0  0  0
   14.4095   -0.6682    0.0000 C   0  0  0  0  0  0  0  0  0  0  0  0
    9.3259    1.0026    0.0000 C   0  0  0  0  0  0  0  0  0  0  0  0
   15.4095   -0.6682    0.0000 C   0  0  0  0  0  0  0  0  0  0  0  0
   13.9095    0.1978    0.0000 C   0  0  0  0  0  0  0  0  0  0  0  0
    9.9095    0.1978    0.0000 C   0  0  0  0  0  0  0  0  0  0  0  0
   15.9095   -1.5342    0.0000 C   0  0  0  0  0  0  0  0  0  0  0  0
   12.9095    0.1978    0.0000 C   0  0  0  0  0  0  0  0  0  0  0  0
   10.9095    0.1978    0.0000 C   0  0  0  0  0  0  0  0  0  0  0  0
   16.9095   -1.5342    0.0000 C   0  0  0  0  0  0  0  0  0  0  0  0
   12.4095    1.0638    0.0000 C   0  0  0  0  0  0  0  0  0  0  0  0
   12.4095   -0.6682    0.0000 C   0  0  0  0  0  0  0  0  0  0  0  0
   11.4095    1.0638    0.0000 C   0  0  0  0  0  0  0  0  0  0  0  0
   11.4095   -0.6682    0.0000 C   0  0  0  0  0  0  0  0  0  0  0  0
   17.4095   -2.4003    0.0000 C   0  0  0  0  0  0  0  0  0  0  0  0
    5.7491    0.5787    0.0000 H   0  0  0  0  0  0  0  0  0  0  0  0
    6.2971    2.1923    0.0000 H   0  0  0  0  0  0  0  0  0  0  0  0
    5.7419    2.8090    0.0000 H   0  0  0  0  0  0  0  0  0  0  0  0
    4.8905    2.9899    0.0000 H   0  0  0  0  0  0  0  0  0  0  0  0
    4.1325    2.6524    0.0000 H   0  0  0  0  0  0  0  0  0  0  0  0
    3.9767    0.9554    0.0000 H   0  0  0  0  0  0  0  0  0  0  0  0
    2.6471    1.1579    0.0000 H   0  0  0  0  0  0  0  0  0  0  0  0
    3.3753    0.8337    0.0000 H   0  0  0  0  0  0  0  0  0  0  0  0
    7.5136    1.8178    0.0000 H   0  0  0  0  0  0  0  0  0  0  0  0
   13.8269   -0.8803    0.0000 H   0  0  0  0  0  0  0  0  0  0  0  0
   14.5172   -1.2788    0.0000 H   0  0  0  0  0  0  0  0  0  0  0  0
   15.9921   -0.4562    0.0000 H   0  0  0  0  0  0  0  0  0  0  0  0
   15.3018   -0.0576    0.0000 H   0  0  0  0  0  0  0  0  0  0  0  0
    9.5185    1.5919    0.0000 H   0  0  0  0  0  0  0  0  0  0  0  0
   14.4921    0.4099    0.0000 H   0  0  0  0  0  0  0  0  0  0  0  0
   13.8018    0.8084    0.0000 H   0  0  0  0  0  0  0  0  0  0  0  0
    2.0000    2.1739    0.0000 H   0  0  0  0  0  0  0  0  0  0  0  0
   15.3269   -1.7463    0.0000 H   0  0  0  0  0  0  0  0  0  0  0  0
   16.0172   -2.1448    0.0000 H   0  0  0  0  0  0  0  0  0  0  0  0
   17.4921   -1.3222    0.0000 H   0  0  0  0  0  0  0  0  0  0  0  0
   16.8018   -0.9236    0.0000 H   0  0  0  0  0  0  0  0  0  0  0  0
   12.7195    1.6008    0.0000 H   0  0  0  0  0  0  0  0  0  0  0  0
   12.7195   -1.2051    0.0000 H   0  0  0  0  0  0  0  0  0  0  0  0
   11.0995    1.6008    0.0000 H   0  0  0  0  0  0  0  0  0  0  0  0
   11.0995   -1.2051    0.0000 H   0  0  0  0  0  0  0  0  0  0  0  0
   16.8726   -2.7102    0.0000 H   0  0  0  0  0  0  0  0  0  0  0  0
   17.7195   -2.9372    0.0000 H   0  0  0  0  0  0  0  0  0  0  0  0
   17.9464   -2.0903    0.0000 H   0  0  0  0  0  0  0  0  0  0  0  0
  1  7  1  0  0  0  0
  1 10  1  0  0  0  0
  2 11  1  0  0  0  0
  2 46  1  0  0  0  0
  3 15  1  0  0  0  0
  3 20  1  0  0  0  0
  4 13  2  0  0  0  0
  5  7  1  0  0  0  0
  5 12  1  0  0  0  0
  5 13  1  0  0  0  0
  6 13  1  0  0  0  0
  6 15  2  0  0  0  0
  7  8  1  0  0  0  0
  7 30  1  0  0  0  0
  8  9  1  0  0  0  0
  8 31  1  0  0  0  0
  8 32  1  0  0  0  0
  9 10  1  0  0  0  0
  9 33  1  0  0  0  0
  9 34  1  0  0  0  0
 10 11  1  6  0  0  0
 10 35  1  0  0  0  0
 11 36  1  0  0  0  0
 11 37  1  0  0  0  0
 12 14  2  0  0  0  0
 12 38  1  0  0  0  0
 14 15  1  0  0  0  0
 14 17  1  0  0  0  0
 16 18  1  0  0  0  0
 16 19  1  0  0  0  0
 16 39  1  0  0  0  0
 16 40  1  0  0  0  0
 17 20  2  0  0  0  0
 17 43  1  0  0  0  0
 18 21  1  0  0  0  0
 18 41  1  0  0  0  0
 18 42  1  0  0  0  0
 19 22  1  0  0  0  0
 19 44  1  0  0  0  0
 19 45  1  0  0  0  0
 20 23  1  0  0  0  0
 21 24  1  0  0  0  0
 21 47  1  0  0  0  0
 21 48  1  0  0  0  0
 22 25  2  0  0  0  0
 22 26  1  0  0  0  0
 23 27  2  0  0  0  0
 23 28  1  0  0  0  0
 24 29  1  0  0  0  0
 24 49  1  0  0  0  0
 24 50  1  0  0  0  0
 25 27  1  0  0  0  0
 25 51  1  0  0  0  0
 26 28  2  0  0  0  0
 26 52  1  0  0  0  0
 27 53  1  0  0  0  0
 28 54  1  0  0  0  0
 29 55  1  0  0  0  0
 29 56  1  0  0  0  0
 29 57  1  0  0  0  0
M  END
> <PUBCHEM_COMPOUND_CID>
506152
> <PUBCHEM_COMPOUND_CANONICALIZED>
1
> <PUBCHEM_CACTVS_COMPLEXITY>
691
> <PUBCHEM_CACTVS_HBOND_ACCEPTOR>
4
> <PUBCHEM_CACTVS_HBOND_DONOR>
1
> <PUBCHEM_CACTVS_ROTATABLE_BOND>
8
> <PUBCHEM_CACTVS_SUBSKEYS>
AAADceB7OAAAAAAAAAAAAAAAAAAAASIAAAAwQAAAAAAAAEABAAAAHgAACAAADBThmAYzAIMABgCoAiBmVAACCAAgIAAIiAAoCJiJNiKAsRiOcAAkxgMLqAew8PIOQAAAAAAAAACAAAAAAAAAAAAAAAAAAA==
> <PUBCHEM_IUPAC_OPENEYE_NAME>
6-(4-hexylphenyl)-3-[(5S)-5-(hydroxymethyl)tetrahydrofuran-2-yl]furo[2,3-d]pyrimidin-2-one
> <PUBCHEM_IUPAC_CAS_NAME>
6-(4-hexylphenyl)-3-[(5S)-5-(hydroxymethyl)-2-oxolanyl]-2-furo[2,3-d]pyrimidinone
> <PUBCHEM_IUPAC_NAME_MARKUP>
6-(4-hexylphenyl)-3-[(5<I>S</I>)-5-(hydroxymethyl)oxolan-2-yl]furo[2,3-d]pyrimidin-2-one
> <PUBCHEM_IUPAC_NAME>
6-(4-hexylphenyl)-3-[(5S)-5-(hydroxymethyl)oxolan-2-yl]furo[2,3-d]pyrimidin-2-one
> <PUBCHEM_IUPAC_SYSTEMATIC_NAME>
6-(4-hexylphenyl)-3-[(5S)-5-(hydroxymethyl)oxolan-2-yl]furo[2,3-d]pyrimidin-2-one
> <PUBCHEM_IUPAC_TRADITIONAL_NAME>
6-(4-hexylphenyl)-3-[(5S)-5-methyloltetrahydrofuran-2-yl]furo[2,3-d]pyrimidin-2-one
> <PUBCHEM_IUPAC_INCHI>
InChI=1S/C23H28N2O4/c1-2-3-4-5-6-16-7-9-17(10-8-16)20-13-18-14-25(23(27)24-22(18)29-20)21-12-11-19(15-26)28-21/h7-10,13-14,19,21,26H,2-6,11-12,15H2,1H3/t19-,21?/m0/s1
> <PUBCHEM_IUPAC_INCHIKEY>
DUZRARMZXSACKK-ZQRQZVKFSA-N
> <PUBCHEM_XLOGP3_AA>
4.5
> <PUBCHEM_EXACT_MASS>
396.20490738
> <PUBCHEM_MOLECULAR_FORMULA>
C23H28N2O4
> <PUBCHEM_MOLECULAR_WEIGHT>
396.5
> <PUBCHEM_OPENEYE_CAN_SMILES>
CCCCCCC1=CC=C(C=C1)C2=CC3=CN(C(=O)N=C3O2)C4CCC(O4)CO
> <PUBCHEM_OPENEYE_ISO_SMILES>
CCCCCCC1=CC=C(C=C1)C2=CC3=CN(C(=O)N=C3O2)C4CC[C@H](O4)CO
> <PUBCHEM_CACTVS_TPSA>
71.4
> <PUBCHEM_MONOISOTOPIC_WEIGHT>
396.20490738
> <PUBCHEM_TOTAL_CHARGE>
0
> <PUBCHEM_HEAVY_ATOM_COUNT>
29
> <PUBCHEM_ATOM_DEF_STEREO_COUNT>
1
> <PUBCHEM_ATOM_UDEF_STEREO_COUNT>
1
> <PUBCHEM_BOND_DEF_STEREO_COUNT>
0
> <PUBCHEM_BOND_UDEF_STEREO_COUNT>
0
> <PUBCHEM_ISOTOPIC_ATOM_COUNT>
0
> <PUBCHEM_COMPONENT_COUNT>
1
> <PUBCHEM_CACTVS_TAUTO_COUNT>
-1
> <PUBCHEM_COORDINATE_TYPE>
1
5
255
> <PUBCHEM_BONDANNOTATIONS>
10  11  6
12  14  8
14  15  8
14  17  8
17  20  8
22  25  8
22  26  8
23  27  8
23  28  8
25  27  8
26  28  8
3  15  8
3  20  8
5  12  8
5  13  8
7  5  3
6  13  8
6  15  8
$$$$
