506116
  -OEChem-10302200282D
 45 46  0     1  0  0  0  0  0999 V2000
    7.1962   -2.8060    0.0000 O   0  0  0  0  0  0  0  0  0  0  0  0
    5.4641   -2.8060    0.0000 O   0  0  0  0  0  0  0  0  0  0  0  0
    7.8301    2.5600    0.0000 O   0  0  0  0  0  0  0  0  0  0  0  0
    4.5981    0.6940    0.0000 N   0  0  0  0  0  0  0  0  0  0  0  0
    2.8660    1.6940    0.0000 N   0  0  0  0  0  0  0  0  0  0  0  0
    6.3301    1.6940    0.0000 N   0  0  0  0  0  0  0  0  0  0  0  0
    8.0622    0.6940    0.0000 N   0  0  0  0  0  0  0  0  0  0  0  0
    5.4641    0.1940    0.0000 C   0  0  1  0  0  0  0  0  0  0  0  0
    6.3301    0.6940    0.0000 C   0  0  1  0  0  0  0  0  0  0  0  0
    7.1962    0.1940    0.0000 C   0  0  2  0  0  0  0  0  0  0  0  0
    3.7320    0.1940    0.0000 C   0  0  0  0  0  0  0  0  0  0  0  0
    4.5981    1.6940    0.0000 C   0  0  0  0  0  0  0  0  0  0  0  0
    7.1962   -0.8060    0.0000 C   0  0  0  0  0  0  0  0  0  0  0  0
    5.4641   -0.8060    0.0000 C   0  0  0  0  0  0  0  0  0  0  0  0
    2.8660    0.6940    0.0000 C   0  0  0  0  0  0  0  0  0  0  0  0
    3.7320    2.1940    0.0000 C   0  0  0  0  0  0  0  0  0  0  0  0
    6.3301   -1.3060    0.0000 C   0  0  0  0  0  0  0  0  0  0  0  0
    2.0000    2.1940    0.0000 C   0  0  0  0  0  0  0  0  0  0  0  0
    6.3301   -2.3060    0.0000 C   0  0  0  0  0  0  0  0  0  0  0  0
    6.8301    2.5600    0.0000 C   0  0  0  0  0  0  0  0  0  0  0  0
    6.3301    3.4260    0.0000 C   0  0  0  0  0  0  0  0  0  0  0  0
    5.4641    0.8140    0.0000 H   0  0  0  0  0  0  0  0  0  0  0  0
    6.8671    1.0040    0.0000 H   0  0  0  0  0  0  0  0  0  0  0  0
    7.7331   -0.1160    0.0000 H   0  0  0  0  0  0  0  0  0  0  0  0
    3.3335   -0.2810    0.0000 H   0  0  0  0  0  0  0  0  0  0  0  0
    4.1306   -0.2810    0.0000 H   0  0  0  0  0  0  0  0  0  0  0  0
    5.2087    1.5863    0.0000 H   0  0  0  0  0  0  0  0  0  0  0  0
    4.8101    2.2766    0.0000 H   0  0  0  0  0  0  0  0  0  0  0  0
    7.4082   -1.3886    0.0000 H   0  0  0  0  0  0  0  0  0  0  0  0
    7.8067   -0.6984    0.0000 H   0  0  0  0  0  0  0  0  0  0  0  0
    4.9272   -1.1160    0.0000 H   0  0  0  0  0  0  0  0  0  0  0  0
    2.2554    0.8016    0.0000 H   0  0  0  0  0  0  0  0  0  0  0  0
    2.6540    0.1114    0.0000 H   0  0  0  0  0  0  0  0  0  0  0  0
    4.1306    2.6689    0.0000 H   0  0  0  0  0  0  0  0  0  0  0  0
    3.3335    2.6689    0.0000 H   0  0  0  0  0  0  0  0  0  0  0  0
    5.7932    2.0040    0.0000 H   0  0  0  0  0  0  0  0  0  0  0  0
    8.5991    0.3840    0.0000 H   0  0  0  0  0  0  0  0  0  0  0  0
    8.3722    1.2309    0.0000 H   0  0  0  0  0  0  0  0  0  0  0  0
    2.3100    2.7309    0.0000 H   0  0  0  0  0  0  0  0  0  0  0  0
    1.4631    2.5040    0.0000 H   0  0  0  0  0  0  0  0  0  0  0  0
    1.6900    1.6570    0.0000 H   0  0  0  0  0  0  0  0  0  0  0  0
    6.8671    3.7360    0.0000 H   0  0  0  0  0  0  0  0  0  0  0  0
    6.0201    3.9630    0.0000 H   0  0  0  0  0  0  0  0  0  0  0  0
    5.7932    3.1160    0.0000 H   0  0  0  0  0  0  0  0  0  0  0  0
    7.1962   -3.4260    0.0000 H   0  0  0  0  0  0  0  0  0  0  0  0
  1 19  1  0  0  0  0
  1 45  1  0  0  0  0
  2 19  2  0  0  0  0
  3 20  2  0  0  0  0
  8  4  1  1  0  0  0
  4 11  1  0  0  0  0
  4 12  1  0  0  0  0
  5 15  1  0  0  0  0
  5 16  1  0  0  0  0
  5 18  1  0  0  0  0
  9  6  1  6  0  0  0
  6 20  1  0  0  0  0
  6 36  1  0  0  0  0
 10  7  1  1  0  0  0
  7 37  1  0  0  0  0
  7 38  1  0  0  0  0
  8  9  1  0  0  0  0
  8 14  1  0  0  0  0
  8 22  1  0  0  0  0
  9 10  1  0  0  0  0
  9 23  1  0  0  0  0
 10 13  1  0  0  0  0
 10 24  1  0  0  0  0
 11 15  1  0  0  0  0
 11 25  1  0  0  0  0
 11 26  1  0  0  0  0
 12 16  1  0  0  0  0
 12 27  1  0  0  0  0
 12 28  1  0  0  0  0
 13 17  1  0  0  0  0
 13 29  1  0  0  0  0
 13 30  1  0  0  0  0
 14 17  2  0  0  0  0
 14 31  1  0  0  0  0
 15 32  1  0  0  0  0
 15 33  1  0  0  0  0
 16 34  1  0  0  0  0
 16 35  1  0  0  0  0
 17 19  1  0  0  0  0
 18 39  1  0  0  0  0
 18 40  1  0  0  0  0
 18 41  1  0  0  0  0
 20 21  1  0  0  0  0
 21 42  1  0  0  0  0
 21 43  1  0  0  0  0
 21 44  1  0  0  0  0
M  END
> <PUBCHEM_COMPOUND_CID>
506116
> <PUBCHEM_COMPOUND_CANONICALIZED>
1
> <PUBCHEM_CACTVS_COMPLEXITY>
444
> <PUBCHEM_CACTVS_HBOND_ACCEPTOR>
6
> <PUBCHEM_CACTVS_HBOND_DONOR>
3
> <PUBCHEM_CACTVS_ROTATABLE_BOND>
3
> <PUBCHEM_CACTVS_SUBSKEYS>
AAADceBzsAAAAAAAAAAAAAAAAAAAAAAAAAAsQAAAAAAAAAAAAAAAHgAQCAAADCjBgAQCCAPAAgCIAiHSGACAAAAgAAAACIEIAEgARBIAwQAUUAAElgCIEYO82SOQAAAAAAAAAAAAAAAAAAAAAAAAAAAAAA==
> <PUBCHEM_IUPAC_OPENEYE_NAME>
(3R,4R,5S)-4-acetamido-5-amino-3-(4-methylpiperazin-1-yl)cyclohexene-1-carboxylic acid
> <PUBCHEM_IUPAC_CAS_NAME>
(3R,4R,5S)-4-acetamido-5-amino-3-(4-methyl-1-piperazinyl)-1-cyclohexenecarboxylic acid
> <PUBCHEM_IUPAC_NAME_MARKUP>
(3<I>R</I>,4<I>R</I>,5<I>S</I>)-4-acetamido-5-amino-3-(4-methylpiperazin-1-yl)cyclohexene-1-carboxylic acid
> <PUBCHEM_IUPAC_NAME>
(3R,4R,5S)-4-acetamido-5-amino-3-(4-methylpiperazin-1-yl)cyclohexene-1-carboxylic acid
> <PUBCHEM_IUPAC_SYSTEMATIC_NAME>
(3R,4R,5S)-4-acetamido-5-azanyl-3-(4-methylpiperazin-1-yl)cyclohexene-1-carboxylic acid
> <PUBCHEM_IUPAC_TRADITIONAL_NAME>
(3R,4R,5S)-4-acetamido-5-amino-3-(4-methylpiperazino)cyclohexene-1-carboxylic acid
> <PUBCHEM_IUPAC_INCHI>
InChI=1S/C14H24N4O3/c1-9(19)16-13-11(15)7-10(14(20)21)8-12(13)18-5-3-17(2)4-6-18/h8,11-13H,3-7,15H2,1-2H3,(H,16,19)(H,20,21)/t11-,12+,13+/m0/s1
> <PUBCHEM_IUPAC_INCHIKEY>
VJTLCZNJZZQWRD-YNEHKIRRSA-N
> <PUBCHEM_XLOGP3_AA>
-3.7
> <PUBCHEM_EXACT_MASS>
296.18484064
> <PUBCHEM_MOLECULAR_FORMULA>
C14H24N4O3
> <PUBCHEM_MOLECULAR_WEIGHT>
296.37
> <PUBCHEM_OPENEYE_CAN_SMILES>
CC(=O)NC1C(CC(=CC1N2CCN(CC2)C)C(=O)O)N
> <PUBCHEM_OPENEYE_ISO_SMILES>
CC(=O)N[C@@H]1[C@H](CC(=C[C@H]1N2CCN(CC2)C)C(=O)O)N
> <PUBCHEM_CACTVS_TPSA>
98.9
> <PUBCHEM_MONOISOTOPIC_WEIGHT>
296.18484064
> <PUBCHEM_TOTAL_CHARGE>
0
> <PUBCHEM_HEAVY_ATOM_COUNT>
21
> <PUBCHEM_ATOM_DEF_STEREO_COUNT>
3
> <PUBCHEM_ATOM_UDEF_STEREO_COUNT>
0
> <PUBCHEM_BOND_DEF_STEREO_COUNT>
0
> <PUBCHEM_BOND_UDEF_STEREO_COUNT>
0
> <PUBCHEM_ISOTOPIC_ATOM_COUNT>
0
> <PUBCHEM_COMPONENT_COUNT>
1
> <PUBCHEM_CACTVS_TAUTO_COUNT>
-1
> <PUBCHEM_COORDINATE_TYPE>
1
5
255
> <PUBCHEM_BONDANNOTATIONS>
8  4  5
9  6  6
10  7  5
$$$$
