506139
  -OEChem-10302200282D
 47 47  0     1  0  0  0  0  0999 V2000
    6.5961   -3.3799    0.0000 O   0  0  0  0  0  0  0  0  0  0  0  0
    7.9973   -2.3618    0.0000 O   0  0  0  0  0  0  0  0  0  0  0  0
    5.9150    2.8815    0.0000 O   0  0  0  0  0  0  0  0  0  0  0  0
    6.7810    1.3815    0.0000 N   0  0  0  0  0  0  0  0  0  0  0  0
    4.1550   -0.3973    0.0000 N   0  0  0  0  0  0  0  0  0  0  0  0
    2.4608   -0.7574    0.0000 N   0  0  0  0  0  0  0  0  0  0  0  0
    3.6197   -2.0446    0.0000 N   0  0  0  0  0  0  0  0  0  0  0  0
    5.9150   -0.1185    0.0000 C   0  0  1  0  0  0  0  0  0  0  0  0
    5.1060   -0.7063    0.0000 C   0  0  1  0  0  0  0  0  0  0  0  0
    6.7240   -0.7063    0.0000 C   0  0  0  0  0  0  0  0  0  0  0  0
    6.4150   -1.6573    0.0000 C   0  0  3  0  0  0  0  0  0  0  0  0
    5.4150   -1.6573    0.0000 C   0  0  0  0  0  0  0  0  0  0  0  0
    5.9150    0.8815    0.0000 C   0  0  3  0  0  0  0  0  0  0  0  0
    5.0490    1.3815    0.0000 C   0  0  0  0  0  0  0  0  0  0  0  0
    7.0028   -2.4664    0.0000 C   0  0  0  0  0  0  0  0  0  0  0  0
    5.0490    2.3815    0.0000 C   0  0  0  0  0  0  0  0  0  0  0  0
    4.1830    2.8815    0.0000 C   0  0  0  0  0  0  0  0  0  0  0  0
    6.7810    2.3815    0.0000 C   0  0  0  0  0  0  0  0  0  0  0  0
    3.4118   -1.0664    0.0000 C   0  0  0  0  0  0  0  0  0  0  0  0
    4.1830    3.8815    0.0000 C   0  0  0  0  0  0  0  0  0  0  0  0
    7.6471    2.8815    0.0000 C   0  0  0  0  0  0  0  0  0  0  0  0
    6.4675    0.1630    0.0000 H   0  0  0  0  0  0  0  0  0  0  0  0
    4.6676   -1.1447    0.0000 H   0  0  0  0  0  0  0  0  0  0  0  0
    7.2904   -0.9585    0.0000 H   0  0  0  0  0  0  0  0  0  0  0  0
    7.0340   -0.1694    0.0000 H   0  0  0  0  0  0  0  0  0  0  0  0
    7.0274   -1.5603    0.0000 H   0  0  0  0  0  0  0  0  0  0  0  0
    4.8086   -1.7862    0.0000 H   0  0  0  0  0  0  0  0  0  0  0  0
    5.4798   -2.2740    0.0000 H   0  0  0  0  0  0  0  0  0  0  0  0
    5.9150    1.5015    0.0000 H   0  0  0  0  0  0  0  0  0  0  0  0
    4.4384    1.4892    0.0000 H   0  0  0  0  0  0  0  0  0  0  0  0
    4.8370    0.7989    0.0000 H   0  0  0  0  0  0  0  0  0  0  0  0
    7.3180    1.0715    0.0000 H   0  0  0  0  0  0  0  0  0  0  0  0
    5.6596    2.2738    0.0000 H   0  0  0  0  0  0  0  0  0  0  0  0
    5.2610    2.9641    0.0000 H   0  0  0  0  0  0  0  0  0  0  0  0
    3.5724    2.9892    0.0000 H   0  0  0  0  0  0  0  0  0  0  0  0
    3.9709    2.2989    0.0000 H   0  0  0  0  0  0  0  0  0  0  0  0
    6.9605   -3.8815    0.0000 H   0  0  0  0  0  0  0  0  0  0  0  0
    4.8030    3.8815    0.0000 H   0  0  0  0  0  0  0  0  0  0  0  0
    4.1830    4.5015    0.0000 H   0  0  0  0  0  0  0  0  0  0  0  0
    3.5630    3.8815    0.0000 H   0  0  0  0  0  0  0  0  0  0  0  0
    7.9571    2.3446    0.0000 H   0  0  0  0  0  0  0  0  0  0  0  0
    8.1840    3.1915    0.0000 H   0  0  0  0  0  0  0  0  0  0  0  0
    7.3371    3.4184    0.0000 H   0  0  0  0  0  0  0  0  0  0  0  0
    2.0000   -1.1722    0.0000 H   0  0  0  0  0  0  0  0  0  0  0  0
    2.3318   -0.1509    0.0000 H   0  0  0  0  0  0  0  0  0  0  0  0
    3.1590   -2.4594    0.0000 H   0  0  0  0  0  0  0  0  0  0  0  0
    4.2094   -2.2361    0.0000 H   0  0  0  0  0  0  0  0  0  0  0  0
  1 15  1  0  0  0  0
  1 37  1  0  0  0  0
  2 15  2  0  0  0  0
  3 18  2  0  0  0  0
  4 13  1  0  0  0  0
  4 18  1  0  0  0  0
  4 32  1  0  0  0  0
  9  5  1  1  0  0  0
  5 19  2  0  0  0  0
  6 19  1  0  0  0  0
  6 44  1  0  0  0  0
  6 45  1  0  0  0  0
  7 19  1  0  0  0  0
  7 46  1  0  0  0  0
  7 47  1  0  0  0  0
  8  9  1  0  0  0  0
  8 10  1  0  0  0  0
  8 13  1  6  0  0  0
  8 22  1  0  0  0  0
  9 12  1  0  0  0  0
  9 23  1  0  0  0  0
 10 11  1  0  0  0  0
 10 24  1  0  0  0  0
 10 25  1  0  0  0  0
 11 12  1  0  0  0  0
 11 15  1  0  0  0  0
 11 26  1  0  0  0  0
 12 27  1  0  0  0  0
 12 28  1  0  0  0  0
 13 14  1  0  0  0  0
 13 29  1  0  0  0  0
 14 16  1  0  0  0  0
 14 30  1  0  0  0  0
 14 31  1  0  0  0  0
 16 17  1  0  0  0  0
 16 33  1  0  0  0  0
 16 34  1  0  0  0  0
 17 20  1  0  0  0  0
 17 35  1  0  0  0  0
 17 36  1  0  0  0  0
 18 21  1  0  0  0  0
 20 38  1  0  0  0  0
 20 39  1  0  0  0  0
 20 40  1  0  0  0  0
 21 41  1  0  0  0  0
 21 42  1  0  0  0  0
 21 43  1  0  0  0  0
M  END
> <PUBCHEM_COMPOUND_CID>
506139
> <PUBCHEM_COMPOUND_CANONICALIZED>
1
> <PUBCHEM_CACTVS_COMPLEXITY>
407
> <PUBCHEM_CACTVS_HBOND_ACCEPTOR>
4
> <PUBCHEM_CACTVS_HBOND_DONOR>
4
> <PUBCHEM_CACTVS_ROTATABLE_BOND>
7
> <PUBCHEM_CACTVS_SUBSKEYS>
AAADceBzsAAAAAAAAAAAAAAAAAAAAYAAAAAAAAAAAAAAAAAAAAAAHgAQCAAADSjBgAQDCALAAgAoAAGQPAAAAAEAAAAAAIEIAAAAABIAwAAEQAAEFgCAAAG82fOeAAAAAAAAAAAAAAAAAAAAASAAAQAAAA==
> <PUBCHEM_IUPAC_OPENEYE_NAME>
(3S,4R)-3-(1-acetamidopentyl)-4-guanidino-cyclopentanecarboxylic acid
> <PUBCHEM_IUPAC_CAS_NAME>
(3S,4R)-3-(1-acetamidopentyl)-4-(diaminomethylideneamino)-1-cyclopentanecarboxylic acid
> <PUBCHEM_IUPAC_NAME_MARKUP>
(3<I>S</I>,4<I>R</I>)-3-(1-acetamidopentyl)-4-(diaminomethylideneamino)cyclopentane-1-carboxylic acid
> <PUBCHEM_IUPAC_NAME>
(3S,4R)-3-(1-acetamidopentyl)-4-(diaminomethylideneamino)cyclopentane-1-carboxylic acid
> <PUBCHEM_IUPAC_SYSTEMATIC_NAME>
(3S,4R)-3-(1-acetamidopentyl)-4-[bis(azanyl)methylideneamino]cyclopentane-1-carboxylic acid
> <PUBCHEM_IUPAC_TRADITIONAL_NAME>
(3S,4R)-3-(1-acetamidopentyl)-4-guanidino-cyclopentanecarboxylic acid
> <PUBCHEM_IUPAC_INCHI>
InChI=1S/C14H26N4O3/c1-3-4-5-11(17-8(2)19)10-6-9(13(20)21)7-12(10)18-14(15)16/h9-12H,3-7H2,1-2H3,(H,17,19)(H,20,21)(H4,15,16,18)/t9?,10-,11?,12+/m0/s1
> <PUBCHEM_IUPAC_INCHIKEY>
FOEDJODWGAJPQM-POSLAHMBSA-N
> <PUBCHEM_XLOGP3_AA>
0.2
> <PUBCHEM_EXACT_MASS>
298.20049070
> <PUBCHEM_MOLECULAR_FORMULA>
C14H26N4O3
> <PUBCHEM_MOLECULAR_WEIGHT>
298.38
> <PUBCHEM_OPENEYE_CAN_SMILES>
CCCCC(C1CC(CC1N=C(N)N)C(=O)O)NC(=O)C
> <PUBCHEM_OPENEYE_ISO_SMILES>
CCCCC([C@@H]1CC(C[C@H]1N=C(N)N)C(=O)O)NC(=O)C
> <PUBCHEM_CACTVS_TPSA>
131
> <PUBCHEM_MONOISOTOPIC_WEIGHT>
298.20049070
> <PUBCHEM_TOTAL_CHARGE>
0
> <PUBCHEM_HEAVY_ATOM_COUNT>
21
> <PUBCHEM_ATOM_DEF_STEREO_COUNT>
2
> <PUBCHEM_ATOM_UDEF_STEREO_COUNT>
2
> <PUBCHEM_BOND_DEF_STEREO_COUNT>
0
> <PUBCHEM_BOND_UDEF_STEREO_COUNT>
0
> <PUBCHEM_ISOTOPIC_ATOM_COUNT>
0
> <PUBCHEM_COMPONENT_COUNT>
1
> <PUBCHEM_CACTVS_TAUTO_COUNT>
-1
> <PUBCHEM_COORDINATE_TYPE>
1
5
255
> <PUBCHEM_BONDANNOTATIONS>
11  15  3
13  14  3
9  5  5
8  13  6
$$$$
