506117
  -OEChem-10302200282D
 46 47  0     1  0  0  0  0  0999 V2000
    7.1962   -2.8060    0.0000 O   0  0  0  0  0  0  0  0  0  0  0  0
    5.4641   -2.8060    0.0000 O   0  0  0  0  0  0  0  0  0  0  0  0
    7.8301    2.5600    0.0000 O   0  0  0  0  0  0  0  0  0  0  0  0
    4.5981    0.6940    0.0000 N   0  0  0  0  0  0  0  0  0  0  0  0
    6.3301    1.6940    0.0000 N   0  0  0  0  0  0  0  0  0  0  0  0
    8.0622    0.6940    0.0000 N   0  0  0  0  0  0  0  0  0  0  0  0
    5.4641    0.1940    0.0000 C   0  0  1  0  0  0  0  0  0  0  0  0
    6.3301    0.6940    0.0000 C   0  0  1  0  0  0  0  0  0  0  0  0
    4.5981    1.6940    0.0000 C   0  0  0  0  0  0  0  0  0  0  0  0
    3.7320    0.1940    0.0000 C   0  0  0  0  0  0  0  0  0  0  0  0
    2.8660    1.6940    0.0000 C   0  0  0  0  0  0  0  0  0  0  0  0
    7.1962    0.1940    0.0000 C   0  0  2  0  0  0  0  0  0  0  0  0
    3.7320    2.1940    0.0000 C   0  0  0  0  0  0  0  0  0  0  0  0
    2.8660    0.6940    0.0000 C   0  0  0  0  0  0  0  0  0  0  0  0
    7.1962   -0.8060    0.0000 C   0  0  0  0  0  0  0  0  0  0  0  0
    5.4641   -0.8060    0.0000 C   0  0  0  0  0  0  0  0  0  0  0  0
    6.3301   -1.3060    0.0000 C   0  0  0  0  0  0  0  0  0  0  0  0
    2.0000    2.1940    0.0000 C   0  0  0  0  0  0  0  0  0  0  0  0
    6.3301   -2.3060    0.0000 C   0  0  0  0  0  0  0  0  0  0  0  0
    6.8301    2.5600    0.0000 C   0  0  0  0  0  0  0  0  0  0  0  0
    6.3301    3.4260    0.0000 C   0  0  0  0  0  0  0  0  0  0  0  0
    5.4641    0.8140    0.0000 H   0  0  0  0  0  0  0  0  0  0  0  0
    6.8671    1.0040    0.0000 H   0  0  0  0  0  0  0  0  0  0  0  0
    5.2087    1.5863    0.0000 H   0  0  0  0  0  0  0  0  0  0  0  0
    4.8101    2.2766    0.0000 H   0  0  0  0  0  0  0  0  0  0  0  0
    3.3335   -0.2810    0.0000 H   0  0  0  0  0  0  0  0  0  0  0  0
    4.1306   -0.2810    0.0000 H   0  0  0  0  0  0  0  0  0  0  0  0
    2.8660    2.3140    0.0000 H   0  0  0  0  0  0  0  0  0  0  0  0
    7.7331   -0.1160    0.0000 H   0  0  0  0  0  0  0  0  0  0  0  0
    4.1306    2.6689    0.0000 H   0  0  0  0  0  0  0  0  0  0  0  0
    3.3335    2.6689    0.0000 H   0  0  0  0  0  0  0  0  0  0  0  0
    2.2554    0.8016    0.0000 H   0  0  0  0  0  0  0  0  0  0  0  0
    2.6540    0.1114    0.0000 H   0  0  0  0  0  0  0  0  0  0  0  0
    7.4082   -1.3886    0.0000 H   0  0  0  0  0  0  0  0  0  0  0  0
    7.8067   -0.6984    0.0000 H   0  0  0  0  0  0  0  0  0  0  0  0
    4.9272   -1.1160    0.0000 H   0  0  0  0  0  0  0  0  0  0  0  0
    5.7932    2.0040    0.0000 H   0  0  0  0  0  0  0  0  0  0  0  0
    2.3100    2.7309    0.0000 H   0  0  0  0  0  0  0  0  0  0  0  0
    1.4631    2.5040    0.0000 H   0  0  0  0  0  0  0  0  0  0  0  0
    1.6900    1.6570    0.0000 H   0  0  0  0  0  0  0  0  0  0  0  0
    8.5991    0.3840    0.0000 H   0  0  0  0  0  0  0  0  0  0  0  0
    8.3722    1.2309    0.0000 H   0  0  0  0  0  0  0  0  0  0  0  0
    6.8671    3.7360    0.0000 H   0  0  0  0  0  0  0  0  0  0  0  0
    6.0201    3.9630    0.0000 H   0  0  0  0  0  0  0  0  0  0  0  0
    5.7932    3.1160    0.0000 H   0  0  0  0  0  0  0  0  0  0  0  0
    7.1962   -3.4260    0.0000 H   0  0  0  0  0  0  0  0  0  0  0  0
  1 19  1  0  0  0  0
  1 46  1  0  0  0  0
  2 19  2  0  0  0  0
  3 20  2  0  0  0  0
  7  4  1  1  0  0  0
  4  9  1  0  0  0  0
  4 10  1  0  0  0  0
  8  5  1  6  0  0  0
  5 20  1  0  0  0  0
  5 37  1  0  0  0  0
 12  6  1  1  0  0  0
  6 41  1  0  0  0  0
  6 42  1  0  0  0  0
  7  8  1  0  0  0  0
  7 16  1  0  0  0  0
  7 22  1  0  0  0  0
  8 12  1  0  0  0  0
  8 23  1  0  0  0  0
  9 13  1  0  0  0  0
  9 24  1  0  0  0  0
  9 25  1  0  0  0  0
 10 14  1  0  0  0  0
 10 26  1  0  0  0  0
 10 27  1  0  0  0  0
 11 13  1  0  0  0  0
 11 14  1  0  0  0  0
 11 18  1  0  0  0  0
 11 28  1  0  0  0  0
 12 15  1  0  0  0  0
 12 29  1  0  0  0  0
 13 30  1  0  0  0  0
 13 31  1  0  0  0  0
 14 32  1  0  0  0  0
 14 33  1  0  0  0  0
 15 17  1  0  0  0  0
 15 34  1  0  0  0  0
 15 35  1  0  0  0  0
 16 17  2  0  0  0  0
 16 36  1  0  0  0  0
 17 19  1  0  0  0  0
 18 38  1  0  0  0  0
 18 39  1  0  0  0  0
 18 40  1  0  0  0  0
 20 21  1  0  0  0  0
 21 43  1  0  0  0  0
 21 44  1  0  0  0  0
 21 45  1  0  0  0  0
M  END
> <PUBCHEM_COMPOUND_CID>
506117
> <PUBCHEM_COMPOUND_CANONICALIZED>
1
> <PUBCHEM_CACTVS_COMPLEXITY>
441
> <PUBCHEM_CACTVS_HBOND_ACCEPTOR>
5
> <PUBCHEM_CACTVS_HBOND_DONOR>
3
> <PUBCHEM_CACTVS_ROTATABLE_BOND>
3
> <PUBCHEM_CACTVS_SUBSKEYS>
AAADceBzMAAAAAAAAAAAAAAAAAAAAAAAAAAsQAAAAAAAAAAAAAAAHgAQCAAADSjBgAQCCAPAAgCIAiHSGACAAAAgAAAACIEIAEgARBIAwQAUUAAElgCIEYO82SOaAAAAAAAAAAAAAAAAAAAAAAAAAAAAAA==
> <PUBCHEM_IUPAC_OPENEYE_NAME>
(3R,4R,5S)-4-acetamido-5-amino-3-(4-methyl-1-piperidyl)cyclohexene-1-carboxylic acid
> <PUBCHEM_IUPAC_CAS_NAME>
(3R,4R,5S)-4-acetamido-5-amino-3-(4-methyl-1-piperidinyl)-1-cyclohexenecarboxylic acid
> <PUBCHEM_IUPAC_NAME_MARKUP>
(3<I>R</I>,4<I>R</I>,5<I>S</I>)-4-acetamido-5-amino-3-(4-methylpiperidin-1-yl)cyclohexene-1-carboxylic acid
> <PUBCHEM_IUPAC_NAME>
(3R,4R,5S)-4-acetamido-5-amino-3-(4-methylpiperidin-1-yl)cyclohexene-1-carboxylic acid
> <PUBCHEM_IUPAC_SYSTEMATIC_NAME>
(3R,4R,5S)-4-acetamido-5-azanyl-3-(4-methylpiperidin-1-yl)cyclohexene-1-carboxylic acid
> <PUBCHEM_IUPAC_TRADITIONAL_NAME>
(3R,4R,5S)-4-acetamido-5-amino-3-(4-methylpiperidino)cyclohexene-1-carboxylic acid
> <PUBCHEM_IUPAC_INCHI>
InChI=1S/C15H25N3O3/c1-9-3-5-18(6-4-9)13-8-11(15(20)21)7-12(16)14(13)17-10(2)19/h8-9,12-14H,3-7,16H2,1-2H3,(H,17,19)(H,20,21)/t12-,13+,14+/m0/s1
> <PUBCHEM_IUPAC_INCHIKEY>
SBDOFJJFSSZHBK-BFHYXJOUSA-N
> <PUBCHEM_XLOGP3_AA>
-2.3
> <PUBCHEM_EXACT_MASS>
295.18959167
> <PUBCHEM_MOLECULAR_FORMULA>
C15H25N3O3
> <PUBCHEM_MOLECULAR_WEIGHT>
295.38
> <PUBCHEM_OPENEYE_CAN_SMILES>
CC1CCN(CC1)C2C=C(CC(C2NC(=O)C)N)C(=O)O
> <PUBCHEM_OPENEYE_ISO_SMILES>
CC1CCN(CC1)[C@@H]2C=C(C[C@@H]([C@H]2NC(=O)C)N)C(=O)O
> <PUBCHEM_CACTVS_TPSA>
95.7
> <PUBCHEM_MONOISOTOPIC_WEIGHT>
295.18959167
> <PUBCHEM_TOTAL_CHARGE>
0
> <PUBCHEM_HEAVY_ATOM_COUNT>
21
> <PUBCHEM_ATOM_DEF_STEREO_COUNT>
3
> <PUBCHEM_ATOM_UDEF_STEREO_COUNT>
0
> <PUBCHEM_BOND_DEF_STEREO_COUNT>
0
> <PUBCHEM_BOND_UDEF_STEREO_COUNT>
0
> <PUBCHEM_ISOTOPIC_ATOM_COUNT>
0
> <PUBCHEM_COMPONENT_COUNT>
1
> <PUBCHEM_CACTVS_TAUTO_COUNT>
-1
> <PUBCHEM_COORDINATE_TYPE>
1
5
255
> <PUBCHEM_BONDANNOTATIONS>
7  4  5
8  5  6
12  6  5
$$$$
