506274
  -OEChem-10302200282D
 55 58  0     1  0  0  0  0  0999 V2000
    6.6353   -1.6491    0.0000 O   0  0  0  0  0  0  0  0  0  0  0  0
    6.5422    3.6416    0.0000 O   0  0  0  0  0  0  0  0  0  0  0  0
    4.3211   -0.3667    0.0000 O   0  0  0  0  0  0  0  0  0  0  0  0
    2.8660   -0.8662    0.0000 O   0  0  0  0  0  0  0  0  0  0  0  0
    6.2781    0.0458    0.0000 N   0  0  0  0  0  0  0  0  0  0  0  0
    6.8994    1.9468    0.0000 N   0  0  0  0  0  0  0  0  0  0  0  0
    4.6783   -3.6710    0.0000 N   0  0  0  0  0  0  0  0  0  0  0  0
   10.5028    1.8212    0.0000 N   0  0  0  0  0  0  0  0  0  0  0  0
    7.2566    0.2520    0.0000 C   0  0  1  0  0  0  0  0  0  0  0  0
    7.5673    1.2025    0.0000 C   0  0  0  0  0  0  0  0  0  0  0  0
    5.6103    0.7901    0.0000 C   0  0  0  0  0  0  0  0  0  0  0  0
    5.9209    1.7406    0.0000 C   0  0  0  0  0  0  0  0  0  0  0  0
    7.9244   -0.4923    0.0000 C   0  0  0  0  0  0  0  0  0  0  0  0
    5.9674   -0.9048    0.0000 C   0  0  0  0  0  0  0  0  0  0  0  0
    7.2101    2.8973    0.0000 C   0  0  0  0  0  0  0  0  0  0  0  0
    4.9889   -1.1110    0.0000 C   0  0  0  0  0  0  0  0  0  0  0  0
    8.1886    3.1035    0.0000 C   0  0  0  0  0  0  0  0  0  0  0  0
    4.6783   -2.0615    0.0000 C   0  0  0  0  0  0  0  0  0  0  0  0
    3.7320   -2.3662    0.0000 C   0  0  0  0  0  0  0  0  0  0  0  0
    3.7320   -3.3662    0.0000 C   0  0  0  0  0  0  0  0  0  0  0  0
    5.2619   -2.8662    0.0000 C   0  0  0  0  0  0  0  0  0  0  0  0
    8.8564    2.3592    0.0000 C   0  0  0  0  0  0  0  0  0  0  0  0
    8.4993    4.0541    0.0000 C   0  0  0  0  0  0  0  0  0  0  0  0
    2.8660   -1.8662    0.0000 C   0  0  0  0  0  0  0  0  0  0  0  0
    2.8660   -3.8662    0.0000 C   0  0  0  0  0  0  0  0  0  0  0  0
    9.8349    2.5655    0.0000 C   0  0  0  0  0  0  0  0  0  0  0  0
    2.0000   -2.3662    0.0000 C   0  0  0  0  0  0  0  0  0  0  0  0
    9.4778    4.2603    0.0000 C   0  0  0  0  0  0  0  0  0  0  0  0
    2.0000   -3.3662    0.0000 C   0  0  0  0  0  0  0  0  0  0  0  0
   10.1456    3.5160    0.0000 C   0  0  0  0  0  0  0  0  0  0  0  0
    2.0000   -0.3662    0.0000 C   0  0  0  0  0  0  0  0  0  0  0  0
    7.0640   -0.3373    0.0000 H   0  0  0  0  0  0  0  0  0  0  0  0
    8.1142    0.9105    0.0000 H   0  0  0  0  0  0  0  0  0  0  0  0
    7.9498    1.6904    0.0000 H   0  0  0  0  0  0  0  0  0  0  0  0
    5.0633    1.0821    0.0000 H   0  0  0  0  0  0  0  0  0  0  0  0
    5.2277    0.3022    0.0000 H   0  0  0  0  0  0  0  0  0  0  0  0
    5.9004    2.3602    0.0000 H   0  0  0  0  0  0  0  0  0  0  0  0
    5.3071    1.8279    0.0000 H   0  0  0  0  0  0  0  0  0  0  0  0
    7.4630   -0.9064    0.0000 H   0  0  0  0  0  0  0  0  0  0  0  0
    8.3385   -0.9538    0.0000 H   0  0  0  0  0  0  0  0  0  0  0  0
    8.3859   -0.0783    0.0000 H   0  0  0  0  0  0  0  0  0  0  0  0
    5.8819   -2.8662    0.0000 H   0  0  0  0  0  0  0  0  0  0  0  0
    8.6638    1.7699    0.0000 H   0  0  0  0  0  0  0  0  0  0  0  0
    4.8709   -4.2603    0.0000 H   0  0  0  0  0  0  0  0  0  0  0  0
    8.0852    4.5155    0.0000 H   0  0  0  0  0  0  0  0  0  0  0  0
    2.8660   -4.4862    0.0000 H   0  0  0  0  0  0  0  0  0  0  0  0
    1.4631   -2.0562    0.0000 H   0  0  0  0  0  0  0  0  0  0  0  0
    9.6704    4.8496    0.0000 H   0  0  0  0  0  0  0  0  0  0  0  0
    1.4631   -3.6762    0.0000 H   0  0  0  0  0  0  0  0  0  0  0  0
   10.7523    3.6438    0.0000 H   0  0  0  0  0  0  0  0  0  0  0  0
   11.1095    1.9490    0.0000 H   0  0  0  0  0  0  0  0  0  0  0  0
   10.3102    1.2318    0.0000 H   0  0  0  0  0  0  0  0  0  0  0  0
    2.3100    0.1707    0.0000 H   0  0  0  0  0  0  0  0  0  0  0  0
    1.4631   -0.0562    0.0000 H   0  0  0  0  0  0  0  0  0  0  0  0
    1.6900   -0.9032    0.0000 H   0  0  0  0  0  0  0  0  0  0  0  0
  1 14  2  0  0  0  0
  2 15  2  0  0  0  0
  3 16  2  0  0  0  0
  4 24  1  0  0  0  0
  4 31  1  0  0  0  0
  5  9  1  0  0  0  0
  5 11  1  0  0  0  0
  5 14  1  0  0  0  0
  6 10  1  0  0  0  0
  6 12  1  0  0  0  0
  6 15  1  0  0  0  0
  7 20  1  0  0  0  0
  7 21  1  0  0  0  0
  7 44  1  0  0  0  0
  8 26  1  0  0  0  0
  8 51  1  0  0  0  0
  8 52  1  0  0  0  0
  9 10  1  0  0  0  0
  9 13  1  1  0  0  0
  9 32  1  0  0  0  0
 10 33  1  0  0  0  0
 10 34  1  0  0  0  0
 11 12  1  0  0  0  0
 11 35  1  0  0  0  0
 11 36  1  0  0  0  0
 12 37  1  0  0  0  0
 12 38  1  0  0  0  0
 13 39  1  0  0  0  0
 13 40  1  0  0  0  0
 13 41  1  0  0  0  0
 14 16  1  0  0  0  0
 15 17  1  0  0  0  0
 16 18  1  0  0  0  0
 17 22  2  0  0  0  0
 17 23  1  0  0  0  0
 18 19  1  0  0  0  0
 18 21  2  0  0  0  0
 19 20  2  0  0  0  0
 19 24  1  0  0  0  0
 20 25  1  0  0  0  0
 21 42  1  0  0  0  0
 22 26  1  0  0  0  0
 22 43  1  0  0  0  0
 23 28  2  0  0  0  0
 23 45  1  0  0  0  0
 24 27  2  0  0  0  0
 25 29  2  0  0  0  0
 25 46  1  0  0  0  0
 26 30  2  0  0  0  0
 27 29  1  0  0  0  0
 27 47  1  0  0  0  0
 28 30  1  0  0  0  0
 28 48  1  0  0  0  0
 29 49  1  0  0  0  0
 30 50  1  0  0  0  0
 31 53  1  0  0  0  0
 31 54  1  0  0  0  0
 31 55  1  0  0  0  0
M  END
> <PUBCHEM_COMPOUND_CID>
506274
> <PUBCHEM_COMPOUND_CANONICALIZED>
1
> <PUBCHEM_CACTVS_COMPLEXITY>
701
> <PUBCHEM_CACTVS_HBOND_ACCEPTOR>
5
> <PUBCHEM_CACTVS_HBOND_DONOR>
2
> <PUBCHEM_CACTVS_ROTATABLE_BOND>
4
> <PUBCHEM_CACTVS_SUBSKEYS>
AAADceB7uAAAAAAAAAAAAAAAAAAAAWAAAAA8YIAAAAAAAFgB9AAAHgAQAAAADCzBngY+xvPJlACoA7V3VACCiCA1IiAI2aG+bNgMZvrEtbuUMahm1hnI6ce+3ePegAAAQgAKAAAAAACEABQAAAAAAAAAAA==
> <PUBCHEM_IUPAC_OPENEYE_NAME>
1-[(2R)-4-(3-aminobenzoyl)-2-methyl-piperazin-1-yl]-2-(4-methoxy-1H-indol-3-yl)ethane-1,2-dione
> <PUBCHEM_IUPAC_CAS_NAME>
1-[(2R)-4-[(3-aminophenyl)-oxomethyl]-2-methyl-1-piperazinyl]-2-(4-methoxy-1H-indol-3-yl)ethane-1,2-dione
> <PUBCHEM_IUPAC_NAME_MARKUP>
1-[(2<I>R</I>)-4-(3-aminobenzoyl)-2-methylpiperazin-1-yl]-2-(4-methoxy-1<I>H</I>-indol-3-yl)ethane-1,2-dione
> <PUBCHEM_IUPAC_NAME>
1-[(2R)-4-(3-aminobenzoyl)-2-methylpiperazin-1-yl]-2-(4-methoxy-1H-indol-3-yl)ethane-1,2-dione
> <PUBCHEM_IUPAC_SYSTEMATIC_NAME>
1-[(2R)-4-(3-aminophenyl)carbonyl-2-methyl-piperazin-1-yl]-2-(4-methoxy-1H-indol-3-yl)ethane-1,2-dione
> <PUBCHEM_IUPAC_TRADITIONAL_NAME>
1-[(2R)-4-(3-aminobenzoyl)-2-methyl-piperazino]-2-(4-methoxy-1H-indol-3-yl)ethane-1,2-dione
> <PUBCHEM_IUPAC_INCHI>
InChI=1S/C23H24N4O4/c1-14-13-26(22(29)15-5-3-6-16(24)11-15)9-10-27(14)23(30)21(28)17-12-25-18-7-4-8-19(31-2)20(17)18/h3-8,11-12,14,25H,9-10,13,24H2,1-2H3/t14-/m1/s1
> <PUBCHEM_IUPAC_INCHIKEY>
IYXXINLYRYMYCT-CQSZACIVSA-N
> <PUBCHEM_XLOGP3_AA>
2
> <PUBCHEM_EXACT_MASS>
420.17975526
> <PUBCHEM_MOLECULAR_FORMULA>
C23H24N4O4
> <PUBCHEM_MOLECULAR_WEIGHT>
420.5
> <PUBCHEM_OPENEYE_CAN_SMILES>
CC1CN(CCN1C(=O)C(=O)C2=CNC3=C2C(=CC=C3)OC)C(=O)C4=CC(=CC=C4)N
> <PUBCHEM_OPENEYE_ISO_SMILES>
C[C@@H]1CN(CCN1C(=O)C(=O)C2=CNC3=C2C(=CC=C3)OC)C(=O)C4=CC(=CC=C4)N
> <PUBCHEM_CACTVS_TPSA>
109
> <PUBCHEM_MONOISOTOPIC_WEIGHT>
420.17975526
> <PUBCHEM_TOTAL_CHARGE>
0
> <PUBCHEM_HEAVY_ATOM_COUNT>
31
> <PUBCHEM_ATOM_DEF_STEREO_COUNT>
1
> <PUBCHEM_ATOM_UDEF_STEREO_COUNT>
0
> <PUBCHEM_BOND_DEF_STEREO_COUNT>
0
> <PUBCHEM_BOND_UDEF_STEREO_COUNT>
0
> <PUBCHEM_ISOTOPIC_ATOM_COUNT>
0
> <PUBCHEM_COMPONENT_COUNT>
1
> <PUBCHEM_CACTVS_TAUTO_COUNT>
-1
> <PUBCHEM_COORDINATE_TYPE>
1
5
255
> <PUBCHEM_BONDANNOTATIONS>
17  22  8
17  23  8
18  19  8
18  21  8
19  20  8
19  24  8
20  25  8
22  26  8
23  28  8
24  27  8
25  29  8
26  30  8
27  29  8
28  30  8
7  20  8
7  21  8
9  13  5
$$$$
