506292
  -OEChem-10302200282D
 52 55  0     1  0  0  0  0  0999 V2000
    2.8660   -0.8662    0.0000 F   0  0  0  0  0  0  0  0  0  0  0  0
    6.5422    3.6416    0.0000 O   0  0  0  0  0  0  0  0  0  0  0  0
    6.6353   -1.6491    0.0000 O   0  0  0  0  0  0  0  0  0  0  0  0
    4.3211   -0.3667    0.0000 O   0  0  0  0  0  0  0  0  0  0  0  0
    6.8994    1.9468    0.0000 N   0  0  0  0  0  0  0  0  0  0  0  0
    6.2781    0.0458    0.0000 N   0  0  0  0  0  0  0  0  0  0  0  0
    4.6783   -3.6710    0.0000 N   0  0  0  0  0  0  0  0  0  0  0  0
    5.9209    1.7406    0.0000 C   0  0  3  0  0  0  0  0  0  0  0  0
    7.5673    1.2025    0.0000 C   0  0  3  0  0  0  0  0  0  0  0  0
    5.6103    0.7901    0.0000 C   0  0  0  0  0  0  0  0  0  0  0  0
    7.2566    0.2520    0.0000 C   0  0  0  0  0  0  0  0  0  0  0  0
    5.2531    2.4849    0.0000 C   0  0  0  0  0  0  0  0  0  0  0  0
    8.5458    1.4087    0.0000 C   0  0  0  0  0  0  0  0  0  0  0  0
    7.2101    2.8973    0.0000 C   0  0  0  0  0  0  0  0  0  0  0  0
    5.9674   -0.9048    0.0000 C   0  0  0  0  0  0  0  0  0  0  0  0
    8.1886    3.1035    0.0000 C   0  0  0  0  0  0  0  0  0  0  0  0
    4.9889   -1.1110    0.0000 C   0  0  0  0  0  0  0  0  0  0  0  0
    4.6783   -2.0615    0.0000 C   0  0  0  0  0  0  0  0  0  0  0  0
    3.7320   -2.3662    0.0000 C   0  0  0  0  0  0  0  0  0  0  0  0
    8.4993    4.0541    0.0000 C   0  0  0  0  0  0  0  0  0  0  0  0
    8.8564    2.3592    0.0000 C   0  0  0  0  0  0  0  0  0  0  0  0
    5.2619   -2.8662    0.0000 C   0  0  0  0  0  0  0  0  0  0  0  0
    3.7320   -3.3662    0.0000 C   0  0  0  0  0  0  0  0  0  0  0  0
    9.4778    4.2603    0.0000 C   0  0  0  0  0  0  0  0  0  0  0  0
    9.8349    2.5655    0.0000 C   0  0  0  0  0  0  0  0  0  0  0  0
    2.8660   -1.8662    0.0000 C   0  0  0  0  0  0  0  0  0  0  0  0
    2.8660   -3.8662    0.0000 C   0  0  0  0  0  0  0  0  0  0  0  0
   10.1456    3.5160    0.0000 C   0  0  0  0  0  0  0  0  0  0  0  0
    2.0000   -2.3662    0.0000 C   0  0  0  0  0  0  0  0  0  0  0  0
    2.0000   -3.3662    0.0000 C   0  0  0  0  0  0  0  0  0  0  0  0
    6.1135    2.3299    0.0000 H   0  0  0  0  0  0  0  0  0  0  0  0
    7.7599    1.7918    0.0000 H   0  0  0  0  0  0  0  0  0  0  0  0
    5.0633    1.0821    0.0000 H   0  0  0  0  0  0  0  0  0  0  0  0
    5.2277    0.3022    0.0000 H   0  0  0  0  0  0  0  0  0  0  0  0
    7.2772   -0.3677    0.0000 H   0  0  0  0  0  0  0  0  0  0  0  0
    7.8704    0.1646    0.0000 H   0  0  0  0  0  0  0  0  0  0  0  0
    5.7145    2.8990    0.0000 H   0  0  0  0  0  0  0  0  0  0  0  0
    4.8390    2.9463    0.0000 H   0  0  0  0  0  0  0  0  0  0  0  0
    4.7916    2.0708    0.0000 H   0  0  0  0  0  0  0  0  0  0  0  0
    8.6736    0.8020    0.0000 H   0  0  0  0  0  0  0  0  0  0  0  0
    9.1524    1.5366    0.0000 H   0  0  0  0  0  0  0  0  0  0  0  0
    8.4179    2.0154    0.0000 H   0  0  0  0  0  0  0  0  0  0  0  0
    8.0852    4.5155    0.0000 H   0  0  0  0  0  0  0  0  0  0  0  0
    8.6638    1.7699    0.0000 H   0  0  0  0  0  0  0  0  0  0  0  0
    5.8819   -2.8662    0.0000 H   0  0  0  0  0  0  0  0  0  0  0  0
    4.8709   -4.2603    0.0000 H   0  0  0  0  0  0  0  0  0  0  0  0
    9.6704    4.8496    0.0000 H   0  0  0  0  0  0  0  0  0  0  0  0
   10.2490    2.1040    0.0000 H   0  0  0  0  0  0  0  0  0  0  0  0
    2.8660   -4.4862    0.0000 H   0  0  0  0  0  0  0  0  0  0  0  0
   10.7523    3.6438    0.0000 H   0  0  0  0  0  0  0  0  0  0  0  0
    1.4631   -2.0562    0.0000 H   0  0  0  0  0  0  0  0  0  0  0  0
    1.4631   -3.6762    0.0000 H   0  0  0  0  0  0  0  0  0  0  0  0
  1 26  1  0  0  0  0
  2 14  2  0  0  0  0
  3 15  2  0  0  0  0
  4 17  2  0  0  0  0
  5  8  1  0  0  0  0
  5  9  1  0  0  0  0
  5 14  1  0  0  0  0
  6 10  1  0  0  0  0
  6 11  1  0  0  0  0
  6 15  1  0  0  0  0
  7 22  1  0  0  0  0
  7 23  1  0  0  0  0
  7 46  1  0  0  0  0
  8 10  1  0  0  0  0
  8 12  1  0  0  0  0
  8 31  1  0  0  0  0
  9 11  1  0  0  0  0
  9 13  1  0  0  0  0
  9 32  1  0  0  0  0
 10 33  1  0  0  0  0
 10 34  1  0  0  0  0
 11 35  1  0  0  0  0
 11 36  1  0  0  0  0
 12 37  1  0  0  0  0
 12 38  1  0  0  0  0
 12 39  1  0  0  0  0
 13 40  1  0  0  0  0
 13 41  1  0  0  0  0
 13 42  1  0  0  0  0
 14 16  1  0  0  0  0
 15 17  1  0  0  0  0
 16 20  2  0  0  0  0
 16 21  1  0  0  0  0
 17 18  1  0  0  0  0
 18 19  1  0  0  0  0
 18 22  2  0  0  0  0
 19 23  2  0  0  0  0
 19 26  1  0  0  0  0
 20 24  1  0  0  0  0
 20 43  1  0  0  0  0
 21 25  2  0  0  0  0
 21 44  1  0  0  0  0
 22 45  1  0  0  0  0
 23 27  1  0  0  0  0
 24 28  2  0  0  0  0
 24 47  1  0  0  0  0
 25 28  1  0  0  0  0
 25 48  1  0  0  0  0
 26 29  2  0  0  0  0
 27 30  2  0  0  0  0
 27 49  1  0  0  0  0
 28 50  1  0  0  0  0
 29 30  1  0  0  0  0
 29 51  1  0  0  0  0
 30 52  1  0  0  0  0
M  END
> <PUBCHEM_COMPOUND_CID>
506292
> <PUBCHEM_COMPOUND_CANONICALIZED>
1
> <PUBCHEM_CACTVS_COMPLEXITY>
669
> <PUBCHEM_CACTVS_HBOND_ACCEPTOR>
4
> <PUBCHEM_CACTVS_HBOND_DONOR>
1
> <PUBCHEM_CACTVS_ROTATABLE_BOND>
3
> <PUBCHEM_CACTVS_SUBSKEYS>
AAADceB7MQAAAAAAAAAAAAAAAAAAAWAAAAA8YIAAAAAAAFgB9AAAHwAQAAAADCzBngw+wPPJkACoA7V3VACCgCA1AiAI2aG4ZNgIYPrAlbGUIYhglgDIycccicCegAAAAAACAAAAAAAAAAQAAAAAAAAAAA==
> <PUBCHEM_IUPAC_OPENEYE_NAME>
1-(4-benzoyl-3,5-dimethyl-piperazin-1-yl)-2-(4-fluoro-1H-indol-3-yl)ethane-1,2-dione
> <PUBCHEM_IUPAC_CAS_NAME>
1-(4-benzoyl-3,5-dimethyl-1-piperazinyl)-2-(4-fluoro-1H-indol-3-yl)ethane-1,2-dione
> <PUBCHEM_IUPAC_NAME_MARKUP>
1-(4-benzoyl-3,5-dimethylpiperazin-1-yl)-2-(4-fluoro-1<I>H</I>-indol-3-yl)ethane-1,2-dione
> <PUBCHEM_IUPAC_NAME>
1-(4-benzoyl-3,5-dimethylpiperazin-1-yl)-2-(4-fluoro-1H-indol-3-yl)ethane-1,2-dione
> <PUBCHEM_IUPAC_SYSTEMATIC_NAME>
1-[3,5-dimethyl-4-(phenylcarbonyl)piperazin-1-yl]-2-(4-fluoranyl-1H-indol-3-yl)ethane-1,2-dione
> <PUBCHEM_IUPAC_TRADITIONAL_NAME>
1-(4-benzoyl-3,5-dimethyl-piperazino)-2-(4-fluoro-1H-indol-3-yl)ethane-1,2-dione
> <PUBCHEM_IUPAC_INCHI>
InChI=1S/C23H22FN3O3/c1-14-12-26(13-15(2)27(14)22(29)16-7-4-3-5-8-16)23(30)21(28)17-11-25-19-10-6-9-18(24)20(17)19/h3-11,14-15,25H,12-13H2,1-2H3
> <PUBCHEM_IUPAC_INCHIKEY>
XSALDNVGZSFDHK-UHFFFAOYSA-N
> <PUBCHEM_XLOGP3_AA>
3.3
> <PUBCHEM_EXACT_MASS>
407.16451973
> <PUBCHEM_MOLECULAR_FORMULA>
C23H22FN3O3
> <PUBCHEM_MOLECULAR_WEIGHT>
407.4
> <PUBCHEM_OPENEYE_CAN_SMILES>
CC1CN(CC(N1C(=O)C2=CC=CC=C2)C)C(=O)C(=O)C3=CNC4=C3C(=CC=C4)F
> <PUBCHEM_OPENEYE_ISO_SMILES>
CC1CN(CC(N1C(=O)C2=CC=CC=C2)C)C(=O)C(=O)C3=CNC4=C3C(=CC=C4)F
> <PUBCHEM_CACTVS_TPSA>
73.5
> <PUBCHEM_MONOISOTOPIC_WEIGHT>
407.16451973
> <PUBCHEM_TOTAL_CHARGE>
0
> <PUBCHEM_HEAVY_ATOM_COUNT>
30
> <PUBCHEM_ATOM_DEF_STEREO_COUNT>
0
> <PUBCHEM_ATOM_UDEF_STEREO_COUNT>
2
> <PUBCHEM_BOND_DEF_STEREO_COUNT>
0
> <PUBCHEM_BOND_UDEF_STEREO_COUNT>
0
> <PUBCHEM_ISOTOPIC_ATOM_COUNT>
0
> <PUBCHEM_COMPONENT_COUNT>
1
> <PUBCHEM_CACTVS_TAUTO_COUNT>
-1
> <PUBCHEM_COORDINATE_TYPE>
1
5
255
> <PUBCHEM_BONDANNOTATIONS>
16  20  8
16  21  8
18  19  8
18  22  8
19  23  8
19  26  8
20  24  8
21  25  8
23  27  8
24  28  8
25  28  8
26  29  8
27  30  8
29  30  8
7  22  8
7  23  8
8  12  3
9  13  3
$$$$
