506294
  -OEChem-10302200282D
 50 53  0     1  0  0  0  0  0999 V2000
    2.8660   -0.8662    0.0000 F   0  0  0  0  0  0  0  0  0  0  0  0
    8.9030   -0.2861    0.0000 O   0  0  0  0  0  0  0  0  0  0  0  0
    6.6353   -1.6491    0.0000 O   0  0  0  0  0  0  0  0  0  0  0  0
    6.5422    3.6416    0.0000 O   0  0  0  0  0  0  0  0  0  0  0  0
    4.3211   -0.3667    0.0000 O   0  0  0  0  0  0  0  0  0  0  0  0
    6.2781    0.0458    0.0000 N   0  0  0  0  0  0  0  0  0  0  0  0
    6.8994    1.9468    0.0000 N   0  0  0  0  0  0  0  0  0  0  0  0
    4.6783   -3.6710    0.0000 N   0  0  0  0  0  0  0  0  0  0  0  0
    7.2566    0.2520    0.0000 C   0  0  3  0  0  0  0  0  0  0  0  0
    7.5673    1.2025    0.0000 C   0  0  0  0  0  0  0  0  0  0  0  0
    5.6103    0.7901    0.0000 C   0  0  0  0  0  0  0  0  0  0  0  0
    5.9209    1.7406    0.0000 C   0  0  0  0  0  0  0  0  0  0  0  0
    7.9244   -0.4923    0.0000 C   0  0  0  0  0  0  0  0  0  0  0  0
    5.9674   -0.9048    0.0000 C   0  0  0  0  0  0  0  0  0  0  0  0
    7.2101    2.8973    0.0000 C   0  0  0  0  0  0  0  0  0  0  0  0
    4.9889   -1.1110    0.0000 C   0  0  0  0  0  0  0  0  0  0  0  0
    8.1886    3.1035    0.0000 C   0  0  0  0  0  0  0  0  0  0  0  0
    4.6783   -2.0615    0.0000 C   0  0  0  0  0  0  0  0  0  0  0  0
    3.7320   -2.3662    0.0000 C   0  0  0  0  0  0  0  0  0  0  0  0
    3.7320   -3.3662    0.0000 C   0  0  0  0  0  0  0  0  0  0  0  0
    5.2619   -2.8662    0.0000 C   0  0  0  0  0  0  0  0  0  0  0  0
    8.4993    4.0541    0.0000 C   0  0  0  0  0  0  0  0  0  0  0  0
    8.8564    2.3592    0.0000 C   0  0  0  0  0  0  0  0  0  0  0  0
    2.8660   -1.8662    0.0000 C   0  0  0  0  0  0  0  0  0  0  0  0
    2.8660   -3.8662    0.0000 C   0  0  0  0  0  0  0  0  0  0  0  0
    9.4778    4.2603    0.0000 C   0  0  0  0  0  0  0  0  0  0  0  0
    9.8349    2.5655    0.0000 C   0  0  0  0  0  0  0  0  0  0  0  0
    2.0000   -2.3662    0.0000 C   0  0  0  0  0  0  0  0  0  0  0  0
    2.0000   -3.3662    0.0000 C   0  0  0  0  0  0  0  0  0  0  0  0
   10.1456    3.5160    0.0000 C   0  0  0  0  0  0  0  0  0  0  0  0
    7.0640   -0.3373    0.0000 H   0  0  0  0  0  0  0  0  0  0  0  0
    8.1142    0.9105    0.0000 H   0  0  0  0  0  0  0  0  0  0  0  0
    7.9498    1.6904    0.0000 H   0  0  0  0  0  0  0  0  0  0  0  0
    5.0633    1.0821    0.0000 H   0  0  0  0  0  0  0  0  0  0  0  0
    5.2277    0.3022    0.0000 H   0  0  0  0  0  0  0  0  0  0  0  0
    5.9004    2.3602    0.0000 H   0  0  0  0  0  0  0  0  0  0  0  0
    5.3071    1.8279    0.0000 H   0  0  0  0  0  0  0  0  0  0  0  0
    7.3981   -0.8200    0.0000 H   0  0  0  0  0  0  0  0  0  0  0  0
    8.1557   -1.0676    0.0000 H   0  0  0  0  0  0  0  0  0  0  0  0
    9.3170   -0.7476    0.0000 H   0  0  0  0  0  0  0  0  0  0  0  0
    5.8819   -2.8662    0.0000 H   0  0  0  0  0  0  0  0  0  0  0  0
    4.8709   -4.2603    0.0000 H   0  0  0  0  0  0  0  0  0  0  0  0
    8.0852    4.5155    0.0000 H   0  0  0  0  0  0  0  0  0  0  0  0
    8.6638    1.7699    0.0000 H   0  0  0  0  0  0  0  0  0  0  0  0
    2.8660   -4.4862    0.0000 H   0  0  0  0  0  0  0  0  0  0  0  0
    9.6704    4.8496    0.0000 H   0  0  0  0  0  0  0  0  0  0  0  0
   10.2490    2.1040    0.0000 H   0  0  0  0  0  0  0  0  0  0  0  0
    1.4631   -2.0562    0.0000 H   0  0  0  0  0  0  0  0  0  0  0  0
    1.4631   -3.6762    0.0000 H   0  0  0  0  0  0  0  0  0  0  0  0
   10.7523    3.6438    0.0000 H   0  0  0  0  0  0  0  0  0  0  0  0
  1 24  1  0  0  0  0
  2 13  1  0  0  0  0
  2 40  1  0  0  0  0
  3 14  2  0  0  0  0
  4 15  2  0  0  0  0
  5 16  2  0  0  0  0
  6  9  1  0  0  0  0
  6 11  1  0  0  0  0
  6 14  1  0  0  0  0
  7 10  1  0  0  0  0
  7 12  1  0  0  0  0
  7 15  1  0  0  0  0
  8 20  1  0  0  0  0
  8 21  1  0  0  0  0
  8 42  1  0  0  0  0
  9 10  1  0  0  0  0
  9 13  1  0  0  0  0
  9 31  1  0  0  0  0
 10 32  1  0  0  0  0
 10 33  1  0  0  0  0
 11 12  1  0  0  0  0
 11 34  1  0  0  0  0
 11 35  1  0  0  0  0
 12 36  1  0  0  0  0
 12 37  1  0  0  0  0
 13 38  1  0  0  0  0
 13 39  1  0  0  0  0
 14 16  1  0  0  0  0
 15 17  1  0  0  0  0
 16 18  1  0  0  0  0
 17 22  2  0  0  0  0
 17 23  1  0  0  0  0
 18 19  1  0  0  0  0
 18 21  2  0  0  0  0
 19 20  2  0  0  0  0
 19 24  1  0  0  0  0
 20 25  1  0  0  0  0
 21 41  1  0  0  0  0
 22 26  1  0  0  0  0
 22 43  1  0  0  0  0
 23 27  2  0  0  0  0
 23 44  1  0  0  0  0
 24 28  2  0  0  0  0
 25 29  2  0  0  0  0
 25 45  1  0  0  0  0
 26 30  2  0  0  0  0
 26 46  1  0  0  0  0
 27 30  1  0  0  0  0
 27 47  1  0  0  0  0
 28 29  1  0  0  0  0
 28 48  1  0  0  0  0
 29 49  1  0  0  0  0
 30 50  1  0  0  0  0
M  END
> <PUBCHEM_COMPOUND_CID>
506294
> <PUBCHEM_COMPOUND_CANONICALIZED>
1
> <PUBCHEM_CACTVS_COMPLEXITY>
669
> <PUBCHEM_CACTVS_HBOND_ACCEPTOR>
5
> <PUBCHEM_CACTVS_HBOND_DONOR>
2
> <PUBCHEM_CACTVS_ROTATABLE_BOND>
4
> <PUBCHEM_CACTVS_SUBSKEYS>
AAADceB7OQAAAAAAAAAAAAAAAAAAAWAAAAA8YIAAAAAAAFgB9AAAHwAQCAAADCzhng48wPPJkgCoA7V3VACCgCA1AiAI2aG4ZNgKcPrAlbGUYYhilgDYycccicCegAAAAAACAAAAAAAAAAQAAAAAAAAAAA==
> <PUBCHEM_IUPAC_OPENEYE_NAME>
1-[4-benzoyl-2-(hydroxymethyl)piperazin-1-yl]-2-(4-fluoro-1H-indol-3-yl)ethane-1,2-dione
> <PUBCHEM_IUPAC_CAS_NAME>
1-[4-benzoyl-2-(hydroxymethyl)-1-piperazinyl]-2-(4-fluoro-1H-indol-3-yl)ethane-1,2-dione
> <PUBCHEM_IUPAC_NAME_MARKUP>
1-[4-benzoyl-2-(hydroxymethyl)piperazin-1-yl]-2-(4-fluoro-1<I>H</I>-indol-3-yl)ethane-1,2-dione
> <PUBCHEM_IUPAC_NAME>
1-[4-benzoyl-2-(hydroxymethyl)piperazin-1-yl]-2-(4-fluoro-1H-indol-3-yl)ethane-1,2-dione
> <PUBCHEM_IUPAC_SYSTEMATIC_NAME>
1-(4-fluoranyl-1H-indol-3-yl)-2-[2-(hydroxymethyl)-4-(phenylcarbonyl)piperazin-1-yl]ethane-1,2-dione
> <PUBCHEM_IUPAC_TRADITIONAL_NAME>
1-(4-benzoyl-2-methylol-piperazino)-2-(4-fluoro-1H-indol-3-yl)ethane-1,2-dione
> <PUBCHEM_IUPAC_INCHI>
InChI=1S/C22H20FN3O4/c23-17-7-4-8-18-19(17)16(11-24-18)20(28)22(30)26-10-9-25(12-15(26)13-27)21(29)14-5-2-1-3-6-14/h1-8,11,15,24,27H,9-10,12-13H2
> <PUBCHEM_IUPAC_INCHIKEY>
FBQCBTJQCZMGMN-UHFFFAOYSA-N
> <PUBCHEM_XLOGP3_AA>
1.8
> <PUBCHEM_EXACT_MASS>
409.14378429
> <PUBCHEM_MOLECULAR_FORMULA>
C22H20FN3O4
> <PUBCHEM_MOLECULAR_WEIGHT>
409.4
> <PUBCHEM_OPENEYE_CAN_SMILES>
C1CN(C(CN1C(=O)C2=CC=CC=C2)CO)C(=O)C(=O)C3=CNC4=C3C(=CC=C4)F
> <PUBCHEM_OPENEYE_ISO_SMILES>
C1CN(C(CN1C(=O)C2=CC=CC=C2)CO)C(=O)C(=O)C3=CNC4=C3C(=CC=C4)F
> <PUBCHEM_CACTVS_TPSA>
93.7
> <PUBCHEM_MONOISOTOPIC_WEIGHT>
409.14378429
> <PUBCHEM_TOTAL_CHARGE>
0
> <PUBCHEM_HEAVY_ATOM_COUNT>
30
> <PUBCHEM_ATOM_DEF_STEREO_COUNT>
0
> <PUBCHEM_ATOM_UDEF_STEREO_COUNT>
1
> <PUBCHEM_BOND_DEF_STEREO_COUNT>
0
> <PUBCHEM_BOND_UDEF_STEREO_COUNT>
0
> <PUBCHEM_ISOTOPIC_ATOM_COUNT>
0
> <PUBCHEM_COMPONENT_COUNT>
1
> <PUBCHEM_CACTVS_TAUTO_COUNT>
-1
> <PUBCHEM_COORDINATE_TYPE>
1
5
255
> <PUBCHEM_BONDANNOTATIONS>
17  22  8
17  23  8
18  19  8
18  21  8
19  20  8
19  24  8
20  25  8
22  26  8
23  27  8
24  28  8
25  29  8
26  30  8
27  30  8
28  29  8
8  20  8
8  21  8
9  13  3
$$$$
