506259
  -OEChem-10302200282D
 70 73  0     1  0  0  0  0  0999 V2000
    6.6353   -1.6491    0.0000 O   0  0  0  0  0  0  0  0  0  0  0  0
    6.5422    3.6416    0.0000 O   0  0  0  0  0  0  0  0  0  0  0  0
    4.3211   -0.3667    0.0000 O   0  0  0  0  0  0  0  0  0  0  0  0
    2.8660   -0.8662    0.0000 O   0  0  0  0  0  0  0  0  0  0  0  0
   12.1491    1.2831    0.0000 O   0  0  0  0  0  0  0  0  0  0  0  0
   11.7920    2.9779    0.0000 O   0  0  0  0  0  0  0  0  0  0  0  0
    6.2781    0.0458    0.0000 N   0  0  0  0  0  0  0  0  0  0  0  0
    6.8994    1.9468    0.0000 N   0  0  0  0  0  0  0  0  0  0  0  0
    4.6783   -3.6710    0.0000 N   0  0  0  0  0  0  0  0  0  0  0  0
   10.5028    1.8212    0.0000 N   0  0  0  0  0  0  0  0  0  0  0  0
    7.2566    0.2520    0.0000 C   0  0  1  0  0  0  0  0  0  0  0  0
    7.5673    1.2025    0.0000 C   0  0  0  0  0  0  0  0  0  0  0  0
    5.6103    0.7901    0.0000 C   0  0  0  0  0  0  0  0  0  0  0  0
    5.9209    1.7406    0.0000 C   0  0  0  0  0  0  0  0  0  0  0  0
    7.9244   -0.4923    0.0000 C   0  0  0  0  0  0  0  0  0  0  0  0
    5.9674   -0.9048    0.0000 C   0  0  0  0  0  0  0  0  0  0  0  0
    7.2101    2.8973    0.0000 C   0  0  0  0  0  0  0  0  0  0  0  0
    4.9889   -1.1110    0.0000 C   0  0  0  0  0  0  0  0  0  0  0  0
    8.1886    3.1035    0.0000 C   0  0  0  0  0  0  0  0  0  0  0  0
    4.6783   -2.0615    0.0000 C   0  0  0  0  0  0  0  0  0  0  0  0
    3.7320   -2.3662    0.0000 C   0  0  0  0  0  0  0  0  0  0  0  0
    8.8564    2.3592    0.0000 C   0  0  0  0  0  0  0  0  0  0  0  0
    8.4993    4.0541    0.0000 C   0  0  0  0  0  0  0  0  0  0  0  0
    3.7320   -3.3662    0.0000 C   0  0  0  0  0  0  0  0  0  0  0  0
    5.2619   -2.8662    0.0000 C   0  0  0  0  0  0  0  0  0  0  0  0
    9.8349    2.5655    0.0000 C   0  0  0  0  0  0  0  0  0  0  0  0
    2.8660   -1.8662    0.0000 C   0  0  0  0  0  0  0  0  0  0  0  0
    9.4778    4.2603    0.0000 C   0  0  0  0  0  0  0  0  0  0  0  0
   10.1456    3.5160    0.0000 C   0  0  0  0  0  0  0  0  0  0  0  0
    2.8660   -3.8662    0.0000 C   0  0  0  0  0  0  0  0  0  0  0  0
   13.1276    1.4893    0.0000 C   0  0  0  0  0  0  0  0  0  0  0  0
    2.0000   -2.3662    0.0000 C   0  0  0  0  0  0  0  0  0  0  0  0
    2.0000   -3.3662    0.0000 C   0  0  0  0  0  0  0  0  0  0  0  0
   14.1061    1.6955    0.0000 C   0  0  0  0  0  0  0  0  0  0  0  0
   13.3339    0.5108    0.0000 C   0  0  0  0  0  0  0  0  0  0  0  0
   12.9214    2.4678    0.0000 C   0  0  0  0  0  0  0  0  0  0  0  0
   11.4813    2.0274    0.0000 C   0  0  0  0  0  0  0  0  0  0  0  0
    2.0000   -0.3662    0.0000 C   0  0  0  0  0  0  0  0  0  0  0  0
    7.0640   -0.3373    0.0000 H   0  0  0  0  0  0  0  0  0  0  0  0
    8.1142    0.9105    0.0000 H   0  0  0  0  0  0  0  0  0  0  0  0
    7.9498    1.6904    0.0000 H   0  0  0  0  0  0  0  0  0  0  0  0
    5.0633    1.0821    0.0000 H   0  0  0  0  0  0  0  0  0  0  0  0
    5.2277    0.3022    0.0000 H   0  0  0  0  0  0  0  0  0  0  0  0
    5.9004    2.3602    0.0000 H   0  0  0  0  0  0  0  0  0  0  0  0
    5.3071    1.8279    0.0000 H   0  0  0  0  0  0  0  0  0  0  0  0
    7.4630   -0.9064    0.0000 H   0  0  0  0  0  0  0  0  0  0  0  0
    8.3385   -0.9538    0.0000 H   0  0  0  0  0  0  0  0  0  0  0  0
    8.3859   -0.0783    0.0000 H   0  0  0  0  0  0  0  0  0  0  0  0
    8.6638    1.7699    0.0000 H   0  0  0  0  0  0  0  0  0  0  0  0
    8.0852    4.5155    0.0000 H   0  0  0  0  0  0  0  0  0  0  0  0
    5.8819   -2.8662    0.0000 H   0  0  0  0  0  0  0  0  0  0  0  0
    4.8709   -4.2603    0.0000 H   0  0  0  0  0  0  0  0  0  0  0  0
    9.6704    4.8496    0.0000 H   0  0  0  0  0  0  0  0  0  0  0  0
   10.7523    3.6438    0.0000 H   0  0  0  0  0  0  0  0  0  0  0  0
    2.8660   -4.4862    0.0000 H   0  0  0  0  0  0  0  0  0  0  0  0
    1.4631   -2.0562    0.0000 H   0  0  0  0  0  0  0  0  0  0  0  0
   10.3102    1.2318    0.0000 H   0  0  0  0  0  0  0  0  0  0  0  0
    1.4631   -3.6762    0.0000 H   0  0  0  0  0  0  0  0  0  0  0  0
   14.2340    1.0888    0.0000 H   0  0  0  0  0  0  0  0  0  0  0  0
   14.7128    1.8234    0.0000 H   0  0  0  0  0  0  0  0  0  0  0  0
   13.9783    2.3022    0.0000 H   0  0  0  0  0  0  0  0  0  0  0  0
   12.7272    0.3829    0.0000 H   0  0  0  0  0  0  0  0  0  0  0  0
   13.4617   -0.0959    0.0000 H   0  0  0  0  0  0  0  0  0  0  0  0
   13.9405    0.6386    0.0000 H   0  0  0  0  0  0  0  0  0  0  0  0
   13.5281    2.5957    0.0000 H   0  0  0  0  0  0  0  0  0  0  0  0
   12.7936    3.0745    0.0000 H   0  0  0  0  0  0  0  0  0  0  0  0
   12.3148    2.3400    0.0000 H   0  0  0  0  0  0  0  0  0  0  0  0
    2.3100    0.1707    0.0000 H   0  0  0  0  0  0  0  0  0  0  0  0
    1.4631   -0.0562    0.0000 H   0  0  0  0  0  0  0  0  0  0  0  0
    1.6900   -0.9032    0.0000 H   0  0  0  0  0  0  0  0  0  0  0  0
  1 16  2  0  0  0  0
  2 17  2  0  0  0  0
  3 18  2  0  0  0  0
  4 27  1  0  0  0  0
  4 38  1  0  0  0  0
  5 31  1  0  0  0  0
  5 37  1  0  0  0  0
  6 37  2  0  0  0  0
  7 11  1  0  0  0  0
  7 13  1  0  0  0  0
  7 16  1  0  0  0  0
  8 12  1  0  0  0  0
  8 14  1  0  0  0  0
  8 17  1  0  0  0  0
  9 24  1  0  0  0  0
  9 25  1  0  0  0  0
  9 52  1  0  0  0  0
 10 26  1  0  0  0  0
 10 37  1  0  0  0  0
 10 57  1  0  0  0  0
 11 12  1  0  0  0  0
 11 15  1  1  0  0  0
 11 39  1  0  0  0  0
 12 40  1  0  0  0  0
 12 41  1  0  0  0  0
 13 14  1  0  0  0  0
 13 42  1  0  0  0  0
 13 43  1  0  0  0  0
 14 44  1  0  0  0  0
 14 45  1  0  0  0  0
 15 46  1  0  0  0  0
 15 47  1  0  0  0  0
 15 48  1  0  0  0  0
 16 18  1  0  0  0  0
 17 19  1  0  0  0  0
 18 20  1  0  0  0  0
 19 22  2  0  0  0  0
 19 23  1  0  0  0  0
 20 21  1  0  0  0  0
 20 25  2  0  0  0  0
 21 24  2  0  0  0  0
 21 27  1  0  0  0  0
 22 26  1  0  0  0  0
 22 49  1  0  0  0  0
 23 28  2  0  0  0  0
 23 50  1  0  0  0  0
 24 30  1  0  0  0  0
 25 51  1  0  0  0  0
 26 29  2  0  0  0  0
 27 32  2  0  0  0  0
 28 29  1  0  0  0  0
 28 53  1  0  0  0  0
 29 54  1  0  0  0  0
 30 33  2  0  0  0  0
 30 55  1  0  0  0  0
 31 34  1  0  0  0  0
 31 35  1  0  0  0  0
 31 36  1  0  0  0  0
 32 33  1  0  0  0  0
 32 56  1  0  0  0  0
 33 58  1  0  0  0  0
 34 59  1  0  0  0  0
 34 60  1  0  0  0  0
 34 61  1  0  0  0  0
 35 62  1  0  0  0  0
 35 63  1  0  0  0  0
 35 64  1  0  0  0  0
 36 65  1  0  0  0  0
 36 66  1  0  0  0  0
 36 67  1  0  0  0  0
 38 68  1  0  0  0  0
 38 69  1  0  0  0  0
 38 70  1  0  0  0  0
M  END
> <PUBCHEM_COMPOUND_CID>
506259
> <PUBCHEM_COMPOUND_CANONICALIZED>
1
> <PUBCHEM_CACTVS_COMPLEXITY>
904
> <PUBCHEM_CACTVS_HBOND_ACCEPTOR>
6
> <PUBCHEM_CACTVS_HBOND_DONOR>
2
> <PUBCHEM_CACTVS_ROTATABLE_BOND>
7
> <PUBCHEM_CACTVS_SUBSKEYS>
AAADcfB7uAAAAAAAAAAAAAAAAAAAAWAAAAA8YIAAAAAAAFgB9AAAHgAQAAAADGzBngY+zvPJlACoA7V3XACCiCA1IiAI2aG+bNkMZvrEtbucMahm1hnI6ce+3ePegAAAQgAKAAAAAACEABQAAAAAAAAAAA==
> <PUBCHEM_IUPAC_OPENEYE_NAME>
tert-butyl N-[3-[(3R)-4-[2-(4-methoxy-1H-indol-3-yl)-2-oxo-acetyl]-3-methyl-piperazine-1-carbonyl]phenyl]carbamate
> <PUBCHEM_IUPAC_CAS_NAME>
N-[3-[[(3R)-4-[2-(4-methoxy-1H-indol-3-yl)-1,2-dioxoethyl]-3-methyl-1-piperazinyl]-oxomethyl]phenyl]carbamic acid tert-butyl ester
> <PUBCHEM_IUPAC_NAME_MARKUP>
<I>tert</I>-butyl <I>N</I>-[3-[(3<I>R</I>)-4-[2-(4-methoxy-1<I>H</I>-indol-3-yl)-2-oxoacetyl]-3-methylpiperazine-1-carbonyl]phenyl]carbamate
> <PUBCHEM_IUPAC_NAME>
tert-butyl N-[3-[(3R)-4-[2-(4-methoxy-1H-indol-3-yl)-2-oxoacetyl]-3-methylpiperazine-1-carbonyl]phenyl]carbamate
> <PUBCHEM_IUPAC_SYSTEMATIC_NAME>
tert-butyl N-[3-[(3R)-4-[2-(4-methoxy-1H-indol-3-yl)-2-oxidanylidene-ethanoyl]-3-methyl-piperazin-1-yl]carbonylphenyl]carbamate
> <PUBCHEM_IUPAC_TRADITIONAL_NAME>
N-[3-[(3R)-4-[2-keto-2-(4-methoxy-1H-indol-3-yl)acetyl]-3-methyl-piperazine-1-carbonyl]phenyl]carbamic acid tert-butyl ester
> <PUBCHEM_IUPAC_INCHI>
InChI=1S/C28H32N4O6/c1-17-16-31(25(34)18-8-6-9-19(14-18)30-27(36)38-28(2,3)4)12-13-32(17)26(35)24(33)20-15-29-21-10-7-11-22(37-5)23(20)21/h6-11,14-15,17,29H,12-13,16H2,1-5H3,(H,30,36)/t17-/m1/s1
> <PUBCHEM_IUPAC_INCHIKEY>
MZKWULWPIBKIOC-QGZVFWFLSA-N
> <PUBCHEM_XLOGP3_AA>
3.3
> <PUBCHEM_EXACT_MASS>
520.23218475
> <PUBCHEM_MOLECULAR_FORMULA>
C28H32N4O6
> <PUBCHEM_MOLECULAR_WEIGHT>
520.6
> <PUBCHEM_OPENEYE_CAN_SMILES>
CC1CN(CCN1C(=O)C(=O)C2=CNC3=C2C(=CC=C3)OC)C(=O)C4=CC(=CC=C4)NC(=O)OC(C)(C)C
> <PUBCHEM_OPENEYE_ISO_SMILES>
C[C@@H]1CN(CCN1C(=O)C(=O)C2=CNC3=C2C(=CC=C3)OC)C(=O)C4=CC(=CC=C4)NC(=O)OC(C)(C)C
> <PUBCHEM_CACTVS_TPSA>
121
> <PUBCHEM_MONOISOTOPIC_WEIGHT>
520.23218475
> <PUBCHEM_TOTAL_CHARGE>
0
> <PUBCHEM_HEAVY_ATOM_COUNT>
38
> <PUBCHEM_ATOM_DEF_STEREO_COUNT>
1
> <PUBCHEM_ATOM_UDEF_STEREO_COUNT>
0
> <PUBCHEM_BOND_DEF_STEREO_COUNT>
0
> <PUBCHEM_BOND_UDEF_STEREO_COUNT>
0
> <PUBCHEM_ISOTOPIC_ATOM_COUNT>
0
> <PUBCHEM_COMPONENT_COUNT>
1
> <PUBCHEM_CACTVS_TAUTO_COUNT>
-1
> <PUBCHEM_COORDINATE_TYPE>
1
5
255
> <PUBCHEM_BONDANNOTATIONS>
11  15  5
19  22  8
19  23  8
20  21  8
20  25  8
21  24  8
21  27  8
22  26  8
23  28  8
24  30  8
26  29  8
27  32  8
28  29  8
30  33  8
32  33  8
9  24  8
9  25  8
$$$$
