506326
  -OEChem-10302200282D
 64 67  0     1  0  0  0  0  0999 V2000
    6.6353   -0.5961    0.0000 O   0  0  0  0  0  0  0  0  0  0  0  0
    6.5422    4.6946    0.0000 O   0  0  0  0  0  0  0  0  0  0  0  0
    4.3211    0.6863    0.0000 O   0  0  0  0  0  0  0  0  0  0  0  0
    2.0000   -4.3133    0.0000 O   0  0  0  0  0  0  0  0  0  0  0  0
    3.7320   -4.3133    0.0000 O   0  0  0  0  0  0  0  0  0  0  0  0
    6.2781    1.0987    0.0000 N   0  0  0  0  0  0  0  0  0  0  0  0
    6.8994    2.9998    0.0000 N   0  0  0  0  0  0  0  0  0  0  0  0
    4.6783   -2.6180    0.0000 N   0  0  0  0  0  0  0  0  0  0  0  0
    7.2566    1.3050    0.0000 C   0  0  3  0  0  0  0  0  0  0  0  0
    7.9244    0.5607    0.0000 C   0  0  0  0  0  0  0  0  0  0  0  0
    7.5673    2.2555    0.0000 C   0  0  0  0  0  0  0  0  0  0  0  0
    5.6103    1.8430    0.0000 C   0  0  0  0  0  0  0  0  0  0  0  0
    5.9209    2.7936    0.0000 C   0  0  0  0  0  0  0  0  0  0  0  0
    8.5923   -0.1836    0.0000 C   0  0  0  0  0  0  0  0  0  0  0  0
    8.6688    1.2285    0.0000 C   0  0  0  0  0  0  0  0  0  0  0  0
    7.1802   -0.1072    0.0000 C   0  0  0  0  0  0  0  0  0  0  0  0
    5.9674    0.1482    0.0000 C   0  0  0  0  0  0  0  0  0  0  0  0
    7.2101    3.9503    0.0000 C   0  0  0  0  0  0  0  0  0  0  0  0
    4.9889   -0.0580    0.0000 C   0  0  0  0  0  0  0  0  0  0  0  0
    8.1886    4.1565    0.0000 C   0  0  0  0  0  0  0  0  0  0  0  0
    4.6783   -1.0085    0.0000 C   0  0  0  0  0  0  0  0  0  0  0  0
    3.7320   -1.3133    0.0000 C   0  0  0  0  0  0  0  0  0  0  0  0
    8.4993    5.1070    0.0000 C   0  0  0  0  0  0  0  0  0  0  0  0
    8.8564    3.4122    0.0000 C   0  0  0  0  0  0  0  0  0  0  0  0
    5.2619   -1.8133    0.0000 C   0  0  0  0  0  0  0  0  0  0  0  0
    3.7320   -2.3133    0.0000 C   0  0  0  0  0  0  0  0  0  0  0  0
    2.8660   -0.8133    0.0000 C   0  0  0  0  0  0  0  0  0  0  0  0
    9.4778    5.3133    0.0000 C   0  0  0  0  0  0  0  0  0  0  0  0
    9.8349    3.6184    0.0000 C   0  0  0  0  0  0  0  0  0  0  0  0
    2.8660   -2.8133    0.0000 C   0  0  0  0  0  0  0  0  0  0  0  0
   10.1456    4.5690    0.0000 C   0  0  0  0  0  0  0  0  0  0  0  0
    2.0000   -1.3133    0.0000 C   0  0  0  0  0  0  0  0  0  0  0  0
    2.0000   -2.3133    0.0000 C   0  0  0  0  0  0  0  0  0  0  0  0
    2.8660   -3.8133    0.0000 C   0  0  0  0  0  0  0  0  0  0  0  0
    2.0000   -5.3133    0.0000 C   0  0  0  0  0  0  0  0  0  0  0  0
    7.0640    0.7156    0.0000 H   0  0  0  0  0  0  0  0  0  0  0  0
    8.1142    1.9635    0.0000 H   0  0  0  0  0  0  0  0  0  0  0  0
    7.9498    2.7434    0.0000 H   0  0  0  0  0  0  0  0  0  0  0  0
    5.0633    2.1351    0.0000 H   0  0  0  0  0  0  0  0  0  0  0  0
    5.2277    1.3551    0.0000 H   0  0  0  0  0  0  0  0  0  0  0  0
    5.9004    3.4132    0.0000 H   0  0  0  0  0  0  0  0  0  0  0  0
    5.3071    2.8809    0.0000 H   0  0  0  0  0  0  0  0  0  0  0  0
    8.1308   -0.5977    0.0000 H   0  0  0  0  0  0  0  0  0  0  0  0
    9.0064   -0.6451    0.0000 H   0  0  0  0  0  0  0  0  0  0  0  0
    9.0538    0.2304    0.0000 H   0  0  0  0  0  0  0  0  0  0  0  0
    9.0828    0.7670    0.0000 H   0  0  0  0  0  0  0  0  0  0  0  0
    9.1302    1.6426    0.0000 H   0  0  0  0  0  0  0  0  0  0  0  0
    8.2547    1.6900    0.0000 H   0  0  0  0  0  0  0  0  0  0  0  0
    6.7661    0.3543    0.0000 H   0  0  0  0  0  0  0  0  0  0  0  0
    6.7187   -0.5213    0.0000 H   0  0  0  0  0  0  0  0  0  0  0  0
    7.5942   -0.5687    0.0000 H   0  0  0  0  0  0  0  0  0  0  0  0
    8.0852    5.5685    0.0000 H   0  0  0  0  0  0  0  0  0  0  0  0
    8.6638    2.8229    0.0000 H   0  0  0  0  0  0  0  0  0  0  0  0
    5.8819   -1.8133    0.0000 H   0  0  0  0  0  0  0  0  0  0  0  0
    4.8709   -3.2073    0.0000 H   0  0  0  0  0  0  0  0  0  0  0  0
    2.8660   -0.1933    0.0000 H   0  0  0  0  0  0  0  0  0  0  0  0
    9.6704    5.9026    0.0000 H   0  0  0  0  0  0  0  0  0  0  0  0
   10.2490    3.1570    0.0000 H   0  0  0  0  0  0  0  0  0  0  0  0
   10.7523    4.6968    0.0000 H   0  0  0  0  0  0  0  0  0  0  0  0
    1.4631   -1.0033    0.0000 H   0  0  0  0  0  0  0  0  0  0  0  0
    1.4631   -2.6233    0.0000 H   0  0  0  0  0  0  0  0  0  0  0  0
    1.3800   -5.3133    0.0000 H   0  0  0  0  0  0  0  0  0  0  0  0
    2.0000   -5.9333    0.0000 H   0  0  0  0  0  0  0  0  0  0  0  0
    2.6200   -5.3133    0.0000 H   0  0  0  0  0  0  0  0  0  0  0  0
  1 17  2  0  0  0  0
  2 18  2  0  0  0  0
  3 19  2  0  0  0  0
  4 34  1  0  0  0  0
  4 35  1  0  0  0  0
  5 34  2  0  0  0  0
  6  9  1  0  0  0  0
  6 12  1  0  0  0  0
  6 17  1  0  0  0  0
  7 11  1  0  0  0  0
  7 13  1  0  0  0  0
  7 18  1  0  0  0  0
  8 25  1  0  0  0  0
  8 26  1  0  0  0  0
  8 55  1  0  0  0  0
  9 10  1  0  0  0  0
  9 11  1  0  0  0  0
  9 36  1  0  0  0  0
 10 14  1  0  0  0  0
 10 15  1  0  0  0  0
 10 16  1  0  0  0  0
 11 37  1  0  0  0  0
 11 38  1  0  0  0  0
 12 13  1  0  0  0  0
 12 39  1  0  0  0  0
 12 40  1  0  0  0  0
 13 41  1  0  0  0  0
 13 42  1  0  0  0  0
 14 43  1  0  0  0  0
 14 44  1  0  0  0  0
 14 45  1  0  0  0  0
 15 46  1  0  0  0  0
 15 47  1  0  0  0  0
 15 48  1  0  0  0  0
 16 49  1  0  0  0  0
 16 50  1  0  0  0  0
 16 51  1  0  0  0  0
 17 19  1  0  0  0  0
 18 20  1  0  0  0  0
 19 21  1  0  0  0  0
 20 23  2  0  0  0  0
 20 24  1  0  0  0  0
 21 22  1  0  0  0  0
 21 25  2  0  0  0  0
 22 26  2  0  0  0  0
 22 27  1  0  0  0  0
 23 28  1  0  0  0  0
 23 52  1  0  0  0  0
 24 29  2  0  0  0  0
 24 53  1  0  0  0  0
 25 54  1  0  0  0  0
 26 30  1  0  0  0  0
 27 32  2  0  0  0  0
 27 56  1  0  0  0  0
 28 31  2  0  0  0  0
 28 57  1  0  0  0  0
 29 31  1  0  0  0  0
 29 58  1  0  0  0  0
 30 33  2  0  0  0  0
 30 34  1  0  0  0  0
 31 59  1  0  0  0  0
 32 33  1  0  0  0  0
 32 60  1  0  0  0  0
 33 61  1  0  0  0  0
 35 62  1  0  0  0  0
 35 63  1  0  0  0  0
 35 64  1  0  0  0  0
M  END
> <PUBCHEM_COMPOUND_CID>
506326
> <PUBCHEM_COMPOUND_CANONICALIZED>
1
> <PUBCHEM_CACTVS_COMPLEXITY>
831
> <PUBCHEM_CACTVS_HBOND_ACCEPTOR>
5
> <PUBCHEM_CACTVS_HBOND_DONOR>
1
> <PUBCHEM_CACTVS_ROTATABLE_BOND>
6
> <PUBCHEM_CACTVS_SUBSKEYS>
AAADceB7OAAAAAAAAAAAAAAAAAAAAWAAAAA8YIAAAAAAAFgB9AAAHgAQAAAADizBngY+yPPJlACoA7X3XACCgCA1ACAI2aGoTNgIZvrAtbmUMYhmxgHI6cecyfCfgAACAAACAAAAAAQAAAQAAAAAAAAAAA==
> <PUBCHEM_IUPAC_OPENEYE_NAME>
methyl 3-[2-(4-benzoyl-2-tert-butyl-piperazin-1-yl)-2-oxo-acetyl]-1H-indole-7-carboxylate
> <PUBCHEM_IUPAC_CAS_NAME>
3-[2-(4-benzoyl-2-tert-butyl-1-piperazinyl)-1,2-dioxoethyl]-1H-indole-7-carboxylic acid methyl ester
> <PUBCHEM_IUPAC_NAME_MARKUP>
methyl 3-[2-(4-benzoyl-2-<I>tert</I>-butylpiperazin-1-yl)-2-oxoacetyl]-1<I>H</I>-indole-7-carboxylate
> <PUBCHEM_IUPAC_NAME>
methyl 3-[2-(4-benzoyl-2-tert-butylpiperazin-1-yl)-2-oxoacetyl]-1H-indole-7-carboxylate
> <PUBCHEM_IUPAC_SYSTEMATIC_NAME>
methyl 3-[2-[2-tert-butyl-4-(phenylcarbonyl)piperazin-1-yl]-2-oxidanylidene-ethanoyl]-1H-indole-7-carboxylate
> <PUBCHEM_IUPAC_TRADITIONAL_NAME>
3-[2-(4-benzoyl-2-tert-butyl-piperazino)-2-keto-acetyl]-1H-indole-7-carboxylic acid methyl ester
> <PUBCHEM_IUPAC_INCHI>
InChI=1S/C27H29N3O5/c1-27(2,3)21-16-29(24(32)17-9-6-5-7-10-17)13-14-30(21)25(33)23(31)20-15-28-22-18(20)11-8-12-19(22)26(34)35-4/h5-12,15,21,28H,13-14,16H2,1-4H3
> <PUBCHEM_IUPAC_INCHIKEY>
OLJKYSKUVFGPBT-UHFFFAOYSA-N
> <PUBCHEM_XLOGP3_AA>
4
> <PUBCHEM_EXACT_MASS>
475.21072103
> <PUBCHEM_MOLECULAR_FORMULA>
C27H29N3O5
> <PUBCHEM_MOLECULAR_WEIGHT>
475.5
> <PUBCHEM_OPENEYE_CAN_SMILES>
CC(C)(C)C1CN(CCN1C(=O)C(=O)C2=CNC3=C2C=CC=C3C(=O)OC)C(=O)C4=CC=CC=C4
> <PUBCHEM_OPENEYE_ISO_SMILES>
CC(C)(C)C1CN(CCN1C(=O)C(=O)C2=CNC3=C2C=CC=C3C(=O)OC)C(=O)C4=CC=CC=C4
> <PUBCHEM_CACTVS_TPSA>
99.8
> <PUBCHEM_MONOISOTOPIC_WEIGHT>
475.21072103
> <PUBCHEM_TOTAL_CHARGE>
0
> <PUBCHEM_HEAVY_ATOM_COUNT>
35
> <PUBCHEM_ATOM_DEF_STEREO_COUNT>
0
> <PUBCHEM_ATOM_UDEF_STEREO_COUNT>
1
> <PUBCHEM_BOND_DEF_STEREO_COUNT>
0
> <PUBCHEM_BOND_UDEF_STEREO_COUNT>
0
> <PUBCHEM_ISOTOPIC_ATOM_COUNT>
0
> <PUBCHEM_COMPONENT_COUNT>
1
> <PUBCHEM_CACTVS_TAUTO_COUNT>
-1
> <PUBCHEM_COORDINATE_TYPE>
1
5
255
> <PUBCHEM_BONDANNOTATIONS>
20  23  8
20  24  8
21  22  8
21  25  8
22  26  8
22  27  8
23  28  8
24  29  8
26  30  8
27  32  8
28  31  8
29  31  8
30  33  8
32  33  8
8  25  8
8  26  8
9  10  3
$$$$
