506328
  -OEChem-10302200282D
 67 70  0     1  0  0  0  0  0999 V2000
    6.6353   -0.5961    0.0000 O   0  0  0  0  0  0  0  0  0  0  0  0
    6.5422    4.6946    0.0000 O   0  0  0  0  0  0  0  0  0  0  0  0
    4.3211    0.6863    0.0000 O   0  0  0  0  0  0  0  0  0  0  0  0
    2.0000   -4.3133    0.0000 O   0  0  0  0  0  0  0  0  0  0  0  0
    3.7320   -4.3133    0.0000 O   0  0  0  0  0  0  0  0  0  0  0  0
    6.2781    1.0987    0.0000 N   0  0  0  0  0  0  0  0  0  0  0  0
    6.8994    2.9998    0.0000 N   0  0  0  0  0  0  0  0  0  0  0  0
    4.6783   -2.6180    0.0000 N   0  0  0  0  0  0  0  0  0  0  0  0
    7.2566    1.3050    0.0000 C   0  0  3  0  0  0  0  0  0  0  0  0
    7.5673    2.2555    0.0000 C   0  0  0  0  0  0  0  0  0  0  0  0
    7.9244    0.5607    0.0000 C   0  0  0  0  0  0  0  0  0  0  0  0
    5.6103    1.8430    0.0000 C   0  0  0  0  0  0  0  0  0  0  0  0
    5.9209    2.7936    0.0000 C   0  0  0  0  0  0  0  0  0  0  0  0
    8.9030    0.7669    0.0000 C   0  0  0  0  0  0  0  0  0  0  0  0
    9.5708    0.0226    0.0000 C   0  0  0  0  0  0  0  0  0  0  0  0
    5.9674    0.1482    0.0000 C   0  0  0  0  0  0  0  0  0  0  0  0
    7.2101    3.9503    0.0000 C   0  0  0  0  0  0  0  0  0  0  0  0
   10.5493    0.2288    0.0000 C   0  0  0  0  0  0  0  0  0  0  0  0
    4.9889   -0.0580    0.0000 C   0  0  0  0  0  0  0  0  0  0  0  0
    8.1886    4.1565    0.0000 C   0  0  0  0  0  0  0  0  0  0  0  0
    4.6783   -1.0085    0.0000 C   0  0  0  0  0  0  0  0  0  0  0  0
   11.2171   -0.5155    0.0000 C   0  0  0  0  0  0  0  0  0  0  0  0
    3.7320   -1.3133    0.0000 C   0  0  0  0  0  0  0  0  0  0  0  0
    8.4993    5.1070    0.0000 C   0  0  0  0  0  0  0  0  0  0  0  0
    8.8564    3.4122    0.0000 C   0  0  0  0  0  0  0  0  0  0  0  0
    5.2619   -1.8133    0.0000 C   0  0  0  0  0  0  0  0  0  0  0  0
    3.7320   -2.3133    0.0000 C   0  0  0  0  0  0  0  0  0  0  0  0
    2.8660   -0.8133    0.0000 C   0  0  0  0  0  0  0  0  0  0  0  0
    2.8660   -2.8133    0.0000 C   0  0  0  0  0  0  0  0  0  0  0  0
    9.4778    5.3133    0.0000 C   0  0  0  0  0  0  0  0  0  0  0  0
    9.8349    3.6184    0.0000 C   0  0  0  0  0  0  0  0  0  0  0  0
   10.1456    4.5690    0.0000 C   0  0  0  0  0  0  0  0  0  0  0  0
    2.0000   -1.3133    0.0000 C   0  0  0  0  0  0  0  0  0  0  0  0
    2.0000   -2.3133    0.0000 C   0  0  0  0  0  0  0  0  0  0  0  0
    2.8660   -3.8133    0.0000 C   0  0  0  0  0  0  0  0  0  0  0  0
    2.0000   -5.3133    0.0000 C   0  0  0  0  0  0  0  0  0  0  0  0
    7.0640    0.7156    0.0000 H   0  0  0  0  0  0  0  0  0  0  0  0
    8.1142    1.9635    0.0000 H   0  0  0  0  0  0  0  0  0  0  0  0
    7.9498    2.7434    0.0000 H   0  0  0  0  0  0  0  0  0  0  0  0
    7.3981    0.2330    0.0000 H   0  0  0  0  0  0  0  0  0  0  0  0
    8.1557   -0.0146    0.0000 H   0  0  0  0  0  0  0  0  0  0  0  0
    5.0633    2.1351    0.0000 H   0  0  0  0  0  0  0  0  0  0  0  0
    5.2277    1.3551    0.0000 H   0  0  0  0  0  0  0  0  0  0  0  0
    5.9004    3.4132    0.0000 H   0  0  0  0  0  0  0  0  0  0  0  0
    5.3071    2.8809    0.0000 H   0  0  0  0  0  0  0  0  0  0  0  0
    9.4293    1.0945    0.0000 H   0  0  0  0  0  0  0  0  0  0  0  0
    8.6717    1.3421    0.0000 H   0  0  0  0  0  0  0  0  0  0  0  0
    9.0444   -0.3051    0.0000 H   0  0  0  0  0  0  0  0  0  0  0  0
    9.8021   -0.5527    0.0000 H   0  0  0  0  0  0  0  0  0  0  0  0
   11.0757    0.5564    0.0000 H   0  0  0  0  0  0  0  0  0  0  0  0
   10.3180    0.8040    0.0000 H   0  0  0  0  0  0  0  0  0  0  0  0
   10.7557   -0.9296    0.0000 H   0  0  0  0  0  0  0  0  0  0  0  0
   11.6312   -0.9770    0.0000 H   0  0  0  0  0  0  0  0  0  0  0  0
   11.6786   -0.1014    0.0000 H   0  0  0  0  0  0  0  0  0  0  0  0
    5.8819   -1.8133    0.0000 H   0  0  0  0  0  0  0  0  0  0  0  0
    8.0852    5.5685    0.0000 H   0  0  0  0  0  0  0  0  0  0  0  0
    8.6638    2.8229    0.0000 H   0  0  0  0  0  0  0  0  0  0  0  0
    4.8709   -3.2073    0.0000 H   0  0  0  0  0  0  0  0  0  0  0  0
    2.8660   -0.1933    0.0000 H   0  0  0  0  0  0  0  0  0  0  0  0
    9.6704    5.9026    0.0000 H   0  0  0  0  0  0  0  0  0  0  0  0
   10.2490    3.1570    0.0000 H   0  0  0  0  0  0  0  0  0  0  0  0
    1.4631   -1.0033    0.0000 H   0  0  0  0  0  0  0  0  0  0  0  0
   10.7523    4.6968    0.0000 H   0  0  0  0  0  0  0  0  0  0  0  0
    1.4631   -2.6233    0.0000 H   0  0  0  0  0  0  0  0  0  0  0  0
    1.3800   -5.3133    0.0000 H   0  0  0  0  0  0  0  0  0  0  0  0
    2.0000   -5.9333    0.0000 H   0  0  0  0  0  0  0  0  0  0  0  0
    2.6200   -5.3133    0.0000 H   0  0  0  0  0  0  0  0  0  0  0  0
  1 16  2  0  0  0  0
  2 17  2  0  0  0  0
  3 19  2  0  0  0  0
  4 35  1  0  0  0  0
  4 36  1  0  0  0  0
  5 35  2  0  0  0  0
  6  9  1  0  0  0  0
  6 12  1  0  0  0  0
  6 16  1  0  0  0  0
  7 10  1  0  0  0  0
  7 13  1  0  0  0  0
  7 17  1  0  0  0  0
  8 26  1  0  0  0  0
  8 27  1  0  0  0  0
  8 58  1  0  0  0  0
  9 10  1  0  0  0  0
  9 11  1  0  0  0  0
  9 37  1  0  0  0  0
 10 38  1  0  0  0  0
 10 39  1  0  0  0  0
 11 14  1  0  0  0  0
 11 40  1  0  0  0  0
 11 41  1  0  0  0  0
 12 13  1  0  0  0  0
 12 42  1  0  0  0  0
 12 43  1  0  0  0  0
 13 44  1  0  0  0  0
 13 45  1  0  0  0  0
 14 15  1  0  0  0  0
 14 46  1  0  0  0  0
 14 47  1  0  0  0  0
 15 18  1  0  0  0  0
 15 48  1  0  0  0  0
 15 49  1  0  0  0  0
 16 19  1  0  0  0  0
 17 20  1  0  0  0  0
 18 22  1  0  0  0  0
 18 50  1  0  0  0  0
 18 51  1  0  0  0  0
 19 21  1  0  0  0  0
 20 24  2  0  0  0  0
 20 25  1  0  0  0  0
 21 23  1  0  0  0  0
 21 26  2  0  0  0  0
 22 52  1  0  0  0  0
 22 53  1  0  0  0  0
 22 54  1  0  0  0  0
 23 27  2  0  0  0  0
 23 28  1  0  0  0  0
 24 30  1  0  0  0  0
 24 56  1  0  0  0  0
 25 31  2  0  0  0  0
 25 57  1  0  0  0  0
 26 55  1  0  0  0  0
 27 29  1  0  0  0  0
 28 33  2  0  0  0  0
 28 59  1  0  0  0  0
 29 34  2  0  0  0  0
 29 35  1  0  0  0  0
 30 32  2  0  0  0  0
 30 60  1  0  0  0  0
 31 32  1  0  0  0  0
 31 61  1  0  0  0  0
 32 63  1  0  0  0  0
 33 34  1  0  0  0  0
 33 62  1  0  0  0  0
 34 64  1  0  0  0  0
 36 65  1  0  0  0  0
 36 66  1  0  0  0  0
 36 67  1  0  0  0  0
M  END
> <PUBCHEM_COMPOUND_CID>
506328
> <PUBCHEM_COMPOUND_CANONICALIZED>
1
> <PUBCHEM_CACTVS_COMPLEXITY>
811
> <PUBCHEM_CACTVS_HBOND_ACCEPTOR>
5
> <PUBCHEM_CACTVS_HBOND_DONOR>
1
> <PUBCHEM_CACTVS_ROTATABLE_BOND>
9
> <PUBCHEM_CACTVS_SUBSKEYS>
AAADceB7OAAAAAAAAAAAAAAAAAAAAWAAAAA8YIAAAAAAAFgB9AAAHgAQAAAADCzBngY+yPPJlACoA7X3XACCgCA1ACAI2aGoTNgIZvrAtbmUMYhmxgHI6cecyfCegAACAAACAAAAAAQAAAQAAAAAAAAAAA==
> <PUBCHEM_IUPAC_OPENEYE_NAME>
methyl 3-[2-(4-benzoyl-2-pentyl-piperazin-1-yl)-2-oxo-acetyl]-1H-indole-7-carboxylate
> <PUBCHEM_IUPAC_CAS_NAME>
3-[2-(4-benzoyl-2-pentyl-1-piperazinyl)-1,2-dioxoethyl]-1H-indole-7-carboxylic acid methyl ester
> <PUBCHEM_IUPAC_NAME_MARKUP>
methyl 3-[2-(4-benzoyl-2-pentylpiperazin-1-yl)-2-oxoacetyl]-1<I>H</I>-indole-7-carboxylate
> <PUBCHEM_IUPAC_NAME>
methyl 3-[2-(4-benzoyl-2-pentylpiperazin-1-yl)-2-oxoacetyl]-1H-indole-7-carboxylate
> <PUBCHEM_IUPAC_SYSTEMATIC_NAME>
methyl 3-[2-oxidanylidene-2-[2-pentyl-4-(phenylcarbonyl)piperazin-1-yl]ethanoyl]-1H-indole-7-carboxylate
> <PUBCHEM_IUPAC_TRADITIONAL_NAME>
3-[2-(2-amyl-4-benzoyl-piperazino)-2-keto-acetyl]-1H-indole-7-carboxylic acid methyl ester
> <PUBCHEM_IUPAC_INCHI>
InChI=1S/C28H31N3O5/c1-3-4-6-12-20-18-30(26(33)19-10-7-5-8-11-19)15-16-31(20)27(34)25(32)23-17-29-24-21(23)13-9-14-22(24)28(35)36-2/h5,7-11,13-14,17,20,29H,3-4,6,12,15-16,18H2,1-2H3
> <PUBCHEM_IUPAC_INCHIKEY>
KAXFWGKIQNANJJ-UHFFFAOYSA-N
> <PUBCHEM_XLOGP3_AA>
4.6
> <PUBCHEM_EXACT_MASS>
489.22637110
> <PUBCHEM_MOLECULAR_FORMULA>
C28H31N3O5
> <PUBCHEM_MOLECULAR_WEIGHT>
489.6
> <PUBCHEM_OPENEYE_CAN_SMILES>
CCCCCC1CN(CCN1C(=O)C(=O)C2=CNC3=C2C=CC=C3C(=O)OC)C(=O)C4=CC=CC=C4
> <PUBCHEM_OPENEYE_ISO_SMILES>
CCCCCC1CN(CCN1C(=O)C(=O)C2=CNC3=C2C=CC=C3C(=O)OC)C(=O)C4=CC=CC=C4
> <PUBCHEM_CACTVS_TPSA>
99.8
> <PUBCHEM_MONOISOTOPIC_WEIGHT>
489.22637110
> <PUBCHEM_TOTAL_CHARGE>
0
> <PUBCHEM_HEAVY_ATOM_COUNT>
36
> <PUBCHEM_ATOM_DEF_STEREO_COUNT>
0
> <PUBCHEM_ATOM_UDEF_STEREO_COUNT>
1
> <PUBCHEM_BOND_DEF_STEREO_COUNT>
0
> <PUBCHEM_BOND_UDEF_STEREO_COUNT>
0
> <PUBCHEM_ISOTOPIC_ATOM_COUNT>
0
> <PUBCHEM_COMPONENT_COUNT>
1
> <PUBCHEM_CACTVS_TAUTO_COUNT>
-1
> <PUBCHEM_COORDINATE_TYPE>
1
5
255
> <PUBCHEM_BONDANNOTATIONS>
20  24  8
20  25  8
21  23  8
21  26  8
23  27  8
23  28  8
24  30  8
25  31  8
27  29  8
28  33  8
29  34  8
30  32  8
31  32  8
33  34  8
8  26  8
8  27  8
9  11  3
$$$$
