506304
  -OEChem-10302200282D
 51 54  0     1  0  0  0  0  0999 V2000
    6.6353   -1.0961    0.0000 O   0  0  0  0  0  0  0  0  0  0  0  0
    6.5422    4.1946    0.0000 O   0  0  0  0  0  0  0  0  0  0  0  0
    4.3211    0.1863    0.0000 O   0  0  0  0  0  0  0  0  0  0  0  0
    2.0000   -4.8133    0.0000 O   0  5  0  0  0  0  0  0  0  0  0  0
    3.7320   -4.8133    0.0000 O   0  0  0  0  0  0  0  0  0  0  0  0
    6.2781    0.5987    0.0000 N   0  0  0  0  0  0  0  0  0  0  0  0
    6.8994    2.4998    0.0000 N   0  0  0  0  0  0  0  0  0  0  0  0
    4.6783   -3.1180    0.0000 N   0  0  0  0  0  0  0  0  0  0  0  0
    2.8660   -4.3133    0.0000 N   0  3  0  0  0  0  0  0  0  0  0  0
    5.6103    1.3430    0.0000 C   0  0  1  0  0  0  0  0  0  0  0  0
    5.9209    2.2936    0.0000 C   0  0  0  0  0  0  0  0  0  0  0  0
    7.2566    0.8050    0.0000 C   0  0  0  0  0  0  0  0  0  0  0  0
    7.5673    1.7555    0.0000 C   0  0  0  0  0  0  0  0  0  0  0  0
    4.6318    1.1368    0.0000 C   0  0  0  0  0  0  0  0  0  0  0  0
    5.9674   -0.3518    0.0000 C   0  0  0  0  0  0  0  0  0  0  0  0
    7.2101    3.4503    0.0000 C   0  0  0  0  0  0  0  0  0  0  0  0
    4.9889   -0.5580    0.0000 C   0  0  0  0  0  0  0  0  0  0  0  0
    4.6783   -1.5085    0.0000 C   0  0  0  0  0  0  0  0  0  0  0  0
    8.1886    3.6565    0.0000 C   0  0  0  0  0  0  0  0  0  0  0  0
    3.7320   -1.8133    0.0000 C   0  0  0  0  0  0  0  0  0  0  0  0
    3.7320   -2.8133    0.0000 C   0  0  0  0  0  0  0  0  0  0  0  0
    5.2619   -2.3133    0.0000 C   0  0  0  0  0  0  0  0  0  0  0  0
    8.4993    4.6070    0.0000 C   0  0  0  0  0  0  0  0  0  0  0  0
    8.8564    2.9122    0.0000 C   0  0  0  0  0  0  0  0  0  0  0  0
    2.8660   -1.3133    0.0000 C   0  0  0  0  0  0  0  0  0  0  0  0
    2.8660   -3.3133    0.0000 C   0  0  0  0  0  0  0  0  0  0  0  0
    2.0000   -1.8133    0.0000 C   0  0  0  0  0  0  0  0  0  0  0  0
    2.0000   -2.8133    0.0000 C   0  0  0  0  0  0  0  0  0  0  0  0
    9.4778    4.8133    0.0000 C   0  0  0  0  0  0  0  0  0  0  0  0
    9.8349    3.1184    0.0000 C   0  0  0  0  0  0  0  0  0  0  0  0
   10.1456    4.0690    0.0000 C   0  0  0  0  0  0  0  0  0  0  0  0
    5.4176    0.7537    0.0000 H   0  0  0  0  0  0  0  0  0  0  0  0
    5.9004    2.9132    0.0000 H   0  0  0  0  0  0  0  0  0  0  0  0
    5.3071    2.3809    0.0000 H   0  0  0  0  0  0  0  0  0  0  0  0
    7.2772    0.1853    0.0000 H   0  0  0  0  0  0  0  0  0  0  0  0
    7.8704    0.7176    0.0000 H   0  0  0  0  0  0  0  0  0  0  0  0
    8.1142    1.4635    0.0000 H   0  0  0  0  0  0  0  0  0  0  0  0
    7.9498    2.2434    0.0000 H   0  0  0  0  0  0  0  0  0  0  0  0
    4.5039    1.7435    0.0000 H   0  0  0  0  0  0  0  0  0  0  0  0
    4.0251    1.0090    0.0000 H   0  0  0  0  0  0  0  0  0  0  0  0
    4.7596    0.5301    0.0000 H   0  0  0  0  0  0  0  0  0  0  0  0
    5.8819   -2.3133    0.0000 H   0  0  0  0  0  0  0  0  0  0  0  0
    4.8709   -3.7073    0.0000 H   0  0  0  0  0  0  0  0  0  0  0  0
    8.0852    5.0685    0.0000 H   0  0  0  0  0  0  0  0  0  0  0  0
    8.6638    2.3229    0.0000 H   0  0  0  0  0  0  0  0  0  0  0  0
    2.8660   -0.6933    0.0000 H   0  0  0  0  0  0  0  0  0  0  0  0
    1.4631   -1.5033    0.0000 H   0  0  0  0  0  0  0  0  0  0  0  0
    1.4631   -3.1233    0.0000 H   0  0  0  0  0  0  0  0  0  0  0  0
    9.6704    5.4026    0.0000 H   0  0  0  0  0  0  0  0  0  0  0  0
   10.2490    2.6570    0.0000 H   0  0  0  0  0  0  0  0  0  0  0  0
   10.7523    4.1968    0.0000 H   0  0  0  0  0  0  0  0  0  0  0  0
  1 15  2  0  0  0  0
  2 16  2  0  0  0  0
  3 17  2  0  0  0  0
  4  9  1  0  0  0  0
  5  9  2  0  0  0  0
  6 10  1  0  0  0  0
  6 12  1  0  0  0  0
  6 15  1  0  0  0  0
  7 11  1  0  0  0  0
  7 13  1  0  0  0  0
  7 16  1  0  0  0  0
  8 21  1  0  0  0  0
  8 22  1  0  0  0  0
  8 43  1  0  0  0  0
  9 26  1  0  0  0  0
 10 11  1  0  0  0  0
 10 14  1  6  0  0  0
 10 32  1  0  0  0  0
 11 33  1  0  0  0  0
 11 34  1  0  0  0  0
 12 13  1  0  0  0  0
 12 35  1  0  0  0  0
 12 36  1  0  0  0  0
 13 37  1  0  0  0  0
 13 38  1  0  0  0  0
 14 39  1  0  0  0  0
 14 40  1  0  0  0  0
 14 41  1  0  0  0  0
 15 17  1  0  0  0  0
 16 19  1  0  0  0  0
 17 18  1  0  0  0  0
 18 20  1  0  0  0  0
 18 22  2  0  0  0  0
 19 23  2  0  0  0  0
 19 24  1  0  0  0  0
 20 21  2  0  0  0  0
 20 25  1  0  0  0  0
 21 26  1  0  0  0  0
 22 42  1  0  0  0  0
 23 29  1  0  0  0  0
 23 44  1  0  0  0  0
 24 30  2  0  0  0  0
 24 45  1  0  0  0  0
 25 27  2  0  0  0  0
 25 46  1  0  0  0  0
 26 28  2  0  0  0  0
 27 28  1  0  0  0  0
 27 47  1  0  0  0  0
 28 48  1  0  0  0  0
 29 31  2  0  0  0  0
 29 49  1  0  0  0  0
 30 31  1  0  0  0  0
 30 50  1  0  0  0  0
 31 51  1  0  0  0  0
M  CHG  2   4  -1   9   1
M  END
> <PUBCHEM_COMPOUND_CID>
506304
> <PUBCHEM_COMPOUND_CANONICALIZED>
1
> <PUBCHEM_CACTVS_COMPLEXITY>
732
> <PUBCHEM_CACTVS_HBOND_ACCEPTOR>
5
> <PUBCHEM_CACTVS_HBOND_DONOR>
1
> <PUBCHEM_CACTVS_ROTATABLE_BOND>
3
> <PUBCHEM_CACTVS_SUBSKEYS>
AAADceB7uAAAAAAAAAAAAAAAAAAAAWAAAAA8YIAAAAAAAFgB9AAAHgAUAAAADCzBngQ+wPPZ0ACpA7V3VwCCgCA1EiAo2aGodNoIYPrAlbGUIYhghoDIycccicCegAAAQAACACAAAACAAAQAQAAAAAAAAA==
> <PUBCHEM_IUPAC_OPENEYE_NAME>
1-[(2R)-4-benzoyl-2-methyl-piperazin-1-yl]-2-(7-nitro-1H-indol-3-yl)ethane-1,2-dione
> <PUBCHEM_IUPAC_CAS_NAME>
1-[(2R)-4-benzoyl-2-methyl-1-piperazinyl]-2-(7-nitro-1H-indol-3-yl)ethane-1,2-dione
> <PUBCHEM_IUPAC_NAME_MARKUP>
1-[(2<I>R</I>)-4-benzoyl-2-methylpiperazin-1-yl]-2-(7-nitro-1<I>H</I>-indol-3-yl)ethane-1,2-dione
> <PUBCHEM_IUPAC_NAME>
1-[(2R)-4-benzoyl-2-methylpiperazin-1-yl]-2-(7-nitro-1H-indol-3-yl)ethane-1,2-dione
> <PUBCHEM_IUPAC_SYSTEMATIC_NAME>
1-[(2R)-2-methyl-4-(phenylcarbonyl)piperazin-1-yl]-2-(7-nitro-1H-indol-3-yl)ethane-1,2-dione
> <PUBCHEM_IUPAC_TRADITIONAL_NAME>
1-[(2R)-4-benzoyl-2-methyl-piperazino]-2-(7-nitro-1H-indol-3-yl)ethane-1,2-dione
> <PUBCHEM_IUPAC_INCHI>
InChI=1S/C22H20N4O5/c1-14-13-24(21(28)15-6-3-2-4-7-15)10-11-25(14)22(29)20(27)17-12-23-19-16(17)8-5-9-18(19)26(30)31/h2-9,12,14,23H,10-11,13H2,1H3/t14-/m1/s1
> <PUBCHEM_IUPAC_INCHIKEY>
PYFMSWSJQIVWBI-CQSZACIVSA-N
> <PUBCHEM_XLOGP3_AA>
2.6
> <PUBCHEM_EXACT_MASS>
420.14336975
> <PUBCHEM_MOLECULAR_FORMULA>
C22H20N4O5
> <PUBCHEM_MOLECULAR_WEIGHT>
420.4
> <PUBCHEM_OPENEYE_CAN_SMILES>
CC1CN(CCN1C(=O)C(=O)C2=CNC3=C2C=CC=C3[N+](=O)[O-])C(=O)C4=CC=CC=C4
> <PUBCHEM_OPENEYE_ISO_SMILES>
C[C@@H]1CN(CCN1C(=O)C(=O)C2=CNC3=C2C=CC=C3[N+](=O)[O-])C(=O)C4=CC=CC=C4
> <PUBCHEM_CACTVS_TPSA>
119
> <PUBCHEM_MONOISOTOPIC_WEIGHT>
420.14336975
> <PUBCHEM_TOTAL_CHARGE>
0
> <PUBCHEM_HEAVY_ATOM_COUNT>
31
> <PUBCHEM_ATOM_DEF_STEREO_COUNT>
1
> <PUBCHEM_ATOM_UDEF_STEREO_COUNT>
0
> <PUBCHEM_BOND_DEF_STEREO_COUNT>
0
> <PUBCHEM_BOND_UDEF_STEREO_COUNT>
0
> <PUBCHEM_ISOTOPIC_ATOM_COUNT>
0
> <PUBCHEM_COMPONENT_COUNT>
1
> <PUBCHEM_CACTVS_TAUTO_COUNT>
-1
> <PUBCHEM_COORDINATE_TYPE>
1
5
255
> <PUBCHEM_BONDANNOTATIONS>
10  14  6
18  20  8
18  22  8
19  23  8
19  24  8
20  21  8
20  25  8
21  26  8
23  29  8
24  30  8
25  27  8
26  28  8
27  28  8
29  31  8
30  31  8
8  21  8
8  22  8
$$$$
