506303
  -OEChem-10302200282D
 49 52  0     1  0  0  0  0  0999 V2000
    3.7320   -0.5633    0.0000 F   0  0  0  0  0  0  0  0  0  0  0  0
    3.7320   -4.5633    0.0000 F   0  0  0  0  0  0  0  0  0  0  0  0
    2.0000   -1.5633    0.0000 F   0  0  0  0  0  0  0  0  0  0  0  0
    2.0000   -3.5633    0.0000 F   0  0  0  0  0  0  0  0  0  0  0  0
    7.5013   -1.3461    0.0000 O   0  0  0  0  0  0  0  0  0  0  0  0
    7.4083    3.9446    0.0000 O   0  0  0  0  0  0  0  0  0  0  0  0
    5.1871   -0.0637    0.0000 O   0  0  0  0  0  0  0  0  0  0  0  0
    7.1441    0.3487    0.0000 N   0  0  0  0  0  0  0  0  0  0  0  0
    7.7654    2.2498    0.0000 N   0  0  0  0  0  0  0  0  0  0  0  0
    5.5443   -3.3680    0.0000 N   0  0  0  0  0  0  0  0  0  0  0  0
    8.1226    0.5550    0.0000 C   0  0  2  0  0  0  0  0  0  0  0  0
    8.4333    1.5055    0.0000 C   0  0  0  0  0  0  0  0  0  0  0  0
    6.4763    1.0930    0.0000 C   0  0  0  0  0  0  0  0  0  0  0  0
    6.7870    2.0436    0.0000 C   0  0  0  0  0  0  0  0  0  0  0  0
    8.7905   -0.1893    0.0000 C   0  0  0  0  0  0  0  0  0  0  0  0
    6.8335   -0.6018    0.0000 C   0  0  0  0  0  0  0  0  0  0  0  0
    8.0761    3.2003    0.0000 C   0  0  0  0  0  0  0  0  0  0  0  0
    5.8550   -0.8080    0.0000 C   0  0  0  0  0  0  0  0  0  0  0  0
    5.5443   -1.7585    0.0000 C   0  0  0  0  0  0  0  0  0  0  0  0
    9.0546    3.4065    0.0000 C   0  0  0  0  0  0  0  0  0  0  0  0
    4.5981   -2.0633    0.0000 C   0  0  0  0  0  0  0  0  0  0  0  0
    4.5981   -3.0633    0.0000 C   0  0  0  0  0  0  0  0  0  0  0  0
    6.1279   -2.5633    0.0000 C   0  0  0  0  0  0  0  0  0  0  0  0
    9.3653    4.3570    0.0000 C   0  0  0  0  0  0  0  0  0  0  0  0
    9.7225    2.6622    0.0000 C   0  0  0  0  0  0  0  0  0  0  0  0
    3.7320   -1.5633    0.0000 C   0  0  0  0  0  0  0  0  0  0  0  0
    3.7320   -3.5633    0.0000 C   0  0  0  0  0  0  0  0  0  0  0  0
    2.8660   -2.0633    0.0000 C   0  0  0  0  0  0  0  0  0  0  0  0
    2.8660   -3.0633    0.0000 C   0  0  0  0  0  0  0  0  0  0  0  0
   10.3438    4.5633    0.0000 C   0  0  0  0  0  0  0  0  0  0  0  0
   10.7010    2.8684    0.0000 C   0  0  0  0  0  0  0  0  0  0  0  0
   11.0116    3.8190    0.0000 C   0  0  0  0  0  0  0  0  0  0  0  0
    7.9300   -0.0344    0.0000 H   0  0  0  0  0  0  0  0  0  0  0  0
    8.9802    1.2135    0.0000 H   0  0  0  0  0  0  0  0  0  0  0  0
    8.8158    1.9934    0.0000 H   0  0  0  0  0  0  0  0  0  0  0  0
    5.9294    1.3851    0.0000 H   0  0  0  0  0  0  0  0  0  0  0  0
    6.0937    0.6051    0.0000 H   0  0  0  0  0  0  0  0  0  0  0  0
    6.7664    2.6632    0.0000 H   0  0  0  0  0  0  0  0  0  0  0  0
    6.1731    2.1309    0.0000 H   0  0  0  0  0  0  0  0  0  0  0  0
    8.3290   -0.6034    0.0000 H   0  0  0  0  0  0  0  0  0  0  0  0
    9.2045   -0.6508    0.0000 H   0  0  0  0  0  0  0  0  0  0  0  0
    9.2519    0.2247    0.0000 H   0  0  0  0  0  0  0  0  0  0  0  0
    6.7479   -2.5633    0.0000 H   0  0  0  0  0  0  0  0  0  0  0  0
    5.7369   -3.9573    0.0000 H   0  0  0  0  0  0  0  0  0  0  0  0
    8.9512    4.8185    0.0000 H   0  0  0  0  0  0  0  0  0  0  0  0
    9.5298    2.0729    0.0000 H   0  0  0  0  0  0  0  0  0  0  0  0
   10.5364    5.1526    0.0000 H   0  0  0  0  0  0  0  0  0  0  0  0
   11.1150    2.4070    0.0000 H   0  0  0  0  0  0  0  0  0  0  0  0
   11.6183    3.9468    0.0000 H   0  0  0  0  0  0  0  0  0  0  0  0
  1 26  1  0  0  0  0
  2 27  1  0  0  0  0
  3 28  1  0  0  0  0
  4 29  1  0  0  0  0
  5 16  2  0  0  0  0
  6 17  2  0  0  0  0
  7 18  2  0  0  0  0
  8 11  1  0  0  0  0
  8 13  1  0  0  0  0
  8 16  1  0  0  0  0
  9 12  1  0  0  0  0
  9 14  1  0  0  0  0
  9 17  1  0  0  0  0
 10 22  1  0  0  0  0
 10 23  1  0  0  0  0
 10 44  1  0  0  0  0
 11 12  1  0  0  0  0
 11 15  1  6  0  0  0
 11 33  1  0  0  0  0
 12 34  1  0  0  0  0
 12 35  1  0  0  0  0
 13 14  1  0  0  0  0
 13 36  1  0  0  0  0
 13 37  1  0  0  0  0
 14 38  1  0  0  0  0
 14 39  1  0  0  0  0
 15 40  1  0  0  0  0
 15 41  1  0  0  0  0
 15 42  1  0  0  0  0
 16 18  1  0  0  0  0
 17 20  1  0  0  0  0
 18 19  1  0  0  0  0
 19 21  1  0  0  0  0
 19 23  2  0  0  0  0
 20 24  2  0  0  0  0
 20 25  1  0  0  0  0
 21 22  2  0  0  0  0
 21 26  1  0  0  0  0
 22 27  1  0  0  0  0
 23 43  1  0  0  0  0
 24 30  1  0  0  0  0
 24 45  1  0  0  0  0
 25 31  2  0  0  0  0
 25 46  1  0  0  0  0
 26 28  2  0  0  0  0
 27 29  2  0  0  0  0
 28 29  1  0  0  0  0
 30 32  2  0  0  0  0
 30 47  1  0  0  0  0
 31 32  1  0  0  0  0
 31 48  1  0  0  0  0
 32 49  1  0  0  0  0
M  END
> <PUBCHEM_COMPOUND_CID>
506303
> <PUBCHEM_COMPOUND_CANONICALIZED>
1
> <PUBCHEM_CACTVS_COMPLEXITY>
750
> <PUBCHEM_CACTVS_HBOND_ACCEPTOR>
7
> <PUBCHEM_CACTVS_HBOND_DONOR>
1
> <PUBCHEM_CACTVS_ROTATABLE_BOND>
3
> <PUBCHEM_CACTVS_SUBSKEYS>
AAADceB7McAAAAAAAAAAAAAAAAAAAWAAAAA8YIAAAAAAAFgB9AAAHwAQAAAADCzBngw+wPPJkACoA7V3VACCgCA1ACAI2aGoRNgIYHrAlbGUIYhghgDIycccicCegAAAAAACAAAAAAAAAAQAAAAAAAAAAA==
> <PUBCHEM_IUPAC_OPENEYE_NAME>
1-[(2S)-4-benzoyl-2-methyl-piperazin-1-yl]-2-(4,5,6,7-tetrafluoro-1H-indol-3-yl)ethane-1,2-dione
> <PUBCHEM_IUPAC_CAS_NAME>
1-[(2S)-4-benzoyl-2-methyl-1-piperazinyl]-2-(4,5,6,7-tetrafluoro-1H-indol-3-yl)ethane-1,2-dione
> <PUBCHEM_IUPAC_NAME_MARKUP>
1-[(2<I>S</I>)-4-benzoyl-2-methylpiperazin-1-yl]-2-(4,5,6,7-tetrafluoro-1<I>H</I>-indol-3-yl)ethane-1,2-dione
> <PUBCHEM_IUPAC_NAME>
1-[(2S)-4-benzoyl-2-methylpiperazin-1-yl]-2-(4,5,6,7-tetrafluoro-1H-indol-3-yl)ethane-1,2-dione
> <PUBCHEM_IUPAC_SYSTEMATIC_NAME>
1-[(2S)-2-methyl-4-(phenylcarbonyl)piperazin-1-yl]-2-[4,5,6,7-tetrakis(fluoranyl)-1H-indol-3-yl]ethane-1,2-dione
> <PUBCHEM_IUPAC_TRADITIONAL_NAME>
1-[(2S)-4-benzoyl-2-methyl-piperazino]-2-(4,5,6,7-tetrafluoro-1H-indol-3-yl)ethane-1,2-dione
> <PUBCHEM_IUPAC_INCHI>
InChI=1S/C22H17F4N3O3/c1-11-10-28(21(31)12-5-3-2-4-6-12)7-8-29(11)22(32)20(30)13-9-27-19-14(13)15(23)16(24)17(25)18(19)26/h2-6,9,11,27H,7-8,10H2,1H3/t11-/m0/s1
> <PUBCHEM_IUPAC_INCHIKEY>
PUWFTXWMHCZHRT-NSHDSACASA-N
> <PUBCHEM_XLOGP3_AA>
3.2
> <PUBCHEM_EXACT_MASS>
447.12060406
> <PUBCHEM_MOLECULAR_FORMULA>
C22H17F4N3O3
> <PUBCHEM_MOLECULAR_WEIGHT>
447.4
> <PUBCHEM_OPENEYE_CAN_SMILES>
CC1CN(CCN1C(=O)C(=O)C2=CNC3=C2C(=C(C(=C3F)F)F)F)C(=O)C4=CC=CC=C4
> <PUBCHEM_OPENEYE_ISO_SMILES>
C[C@H]1CN(CCN1C(=O)C(=O)C2=CNC3=C2C(=C(C(=C3F)F)F)F)C(=O)C4=CC=CC=C4
> <PUBCHEM_CACTVS_TPSA>
73.5
> <PUBCHEM_MONOISOTOPIC_WEIGHT>
447.12060406
> <PUBCHEM_TOTAL_CHARGE>
0
> <PUBCHEM_HEAVY_ATOM_COUNT>
32
> <PUBCHEM_ATOM_DEF_STEREO_COUNT>
1
> <PUBCHEM_ATOM_UDEF_STEREO_COUNT>
0
> <PUBCHEM_BOND_DEF_STEREO_COUNT>
0
> <PUBCHEM_BOND_UDEF_STEREO_COUNT>
0
> <PUBCHEM_ISOTOPIC_ATOM_COUNT>
0
> <PUBCHEM_COMPONENT_COUNT>
1
> <PUBCHEM_CACTVS_TAUTO_COUNT>
-1
> <PUBCHEM_COORDINATE_TYPE>
1
5
255
> <PUBCHEM_BONDANNOTATIONS>
10  22  8
10  23  8
11  15  6
19  21  8
19  23  8
20  24  8
20  25  8
21  22  8
21  26  8
22  27  8
24  30  8
25  31  8
26  28  8
27  29  8
28  29  8
30  32  8
31  32  8
$$$$
