506321
  -OEChem-10302200282D
 61 64  0     1  0  0  0  0  0999 V2000
    6.5422    4.6946    0.0000 O   0  0  0  0  0  0  0  0  0  0  0  0
    6.6353   -0.5961    0.0000 O   0  0  0  0  0  0  0  0  0  0  0  0
    4.3211    0.6863    0.0000 O   0  0  0  0  0  0  0  0  0  0  0  0
    2.0000   -4.3133    0.0000 O   0  0  0  0  0  0  0  0  0  0  0  0
    3.7320   -4.3133    0.0000 O   0  0  0  0  0  0  0  0  0  0  0  0
    6.8994    2.9998    0.0000 N   0  0  0  0  0  0  0  0  0  0  0  0
    6.2781    1.0987    0.0000 N   0  0  0  0  0  0  0  0  0  0  0  0
    4.6783   -2.6180    0.0000 N   0  0  0  0  0  0  0  0  0  0  0  0
    5.9209    2.7936    0.0000 C   0  0  3  0  0  0  0  0  0  0  0  0
    5.6103    1.8430    0.0000 C   0  0  0  0  0  0  0  0  0  0  0  0
    5.2531    3.5379    0.0000 C   0  0  0  0  0  0  0  0  0  0  0  0
    7.5673    2.2555    0.0000 C   0  0  0  0  0  0  0  0  0  0  0  0
    7.2566    1.3050    0.0000 C   0  0  0  0  0  0  0  0  0  0  0  0
    4.2746    3.3316    0.0000 C   0  0  0  0  0  0  0  0  0  0  0  0
    7.2101    3.9503    0.0000 C   0  0  0  0  0  0  0  0  0  0  0  0
    5.9674    0.1482    0.0000 C   0  0  0  0  0  0  0  0  0  0  0  0
    3.6067    4.0759    0.0000 C   0  0  0  0  0  0  0  0  0  0  0  0
    8.1886    4.1565    0.0000 C   0  0  0  0  0  0  0  0  0  0  0  0
    4.9889   -0.0580    0.0000 C   0  0  0  0  0  0  0  0  0  0  0  0
    4.6783   -1.0085    0.0000 C   0  0  0  0  0  0  0  0  0  0  0  0
    3.7320   -1.3133    0.0000 C   0  0  0  0  0  0  0  0  0  0  0  0
    8.4993    5.1070    0.0000 C   0  0  0  0  0  0  0  0  0  0  0  0
    8.8564    3.4122    0.0000 C   0  0  0  0  0  0  0  0  0  0  0  0
    3.7320   -2.3133    0.0000 C   0  0  0  0  0  0  0  0  0  0  0  0
    5.2619   -1.8133    0.0000 C   0  0  0  0  0  0  0  0  0  0  0  0
    2.8660   -0.8133    0.0000 C   0  0  0  0  0  0  0  0  0  0  0  0
    2.8660   -2.8133    0.0000 C   0  0  0  0  0  0  0  0  0  0  0  0
    9.4778    5.3133    0.0000 C   0  0  0  0  0  0  0  0  0  0  0  0
    9.8349    3.6184    0.0000 C   0  0  0  0  0  0  0  0  0  0  0  0
   10.1456    4.5690    0.0000 C   0  0  0  0  0  0  0  0  0  0  0  0
    2.0000   -1.3133    0.0000 C   0  0  0  0  0  0  0  0  0  0  0  0
    2.0000   -2.3133    0.0000 C   0  0  0  0  0  0  0  0  0  0  0  0
    2.8660   -3.8133    0.0000 C   0  0  0  0  0  0  0  0  0  0  0  0
    2.0000   -5.3133    0.0000 C   0  0  0  0  0  0  0  0  0  0  0  0
    6.1135    3.3829    0.0000 H   0  0  0  0  0  0  0  0  0  0  0  0
    5.0633    2.1351    0.0000 H   0  0  0  0  0  0  0  0  0  0  0  0
    5.2277    1.3551    0.0000 H   0  0  0  0  0  0  0  0  0  0  0  0
    5.7794    3.8655    0.0000 H   0  0  0  0  0  0  0  0  0  0  0  0
    5.0218    4.1131    0.0000 H   0  0  0  0  0  0  0  0  0  0  0  0
    8.1142    1.9635    0.0000 H   0  0  0  0  0  0  0  0  0  0  0  0
    7.9498    2.7434    0.0000 H   0  0  0  0  0  0  0  0  0  0  0  0
    7.2772    0.6853    0.0000 H   0  0  0  0  0  0  0  0  0  0  0  0
    7.8704    1.2176    0.0000 H   0  0  0  0  0  0  0  0  0  0  0  0
    3.7482    3.0040    0.0000 H   0  0  0  0  0  0  0  0  0  0  0  0
    4.5058    2.7564    0.0000 H   0  0  0  0  0  0  0  0  0  0  0  0
    4.0682    4.4900    0.0000 H   0  0  0  0  0  0  0  0  0  0  0  0
    3.1927    4.5374    0.0000 H   0  0  0  0  0  0  0  0  0  0  0  0
    3.1453    3.6619    0.0000 H   0  0  0  0  0  0  0  0  0  0  0  0
    8.0852    5.5685    0.0000 H   0  0  0  0  0  0  0  0  0  0  0  0
    8.6638    2.8229    0.0000 H   0  0  0  0  0  0  0  0  0  0  0  0
    5.8819   -1.8133    0.0000 H   0  0  0  0  0  0  0  0  0  0  0  0
    4.8709   -3.2073    0.0000 H   0  0  0  0  0  0  0  0  0  0  0  0
    2.8660   -0.1933    0.0000 H   0  0  0  0  0  0  0  0  0  0  0  0
    9.6704    5.9026    0.0000 H   0  0  0  0  0  0  0  0  0  0  0  0
   10.2490    3.1570    0.0000 H   0  0  0  0  0  0  0  0  0  0  0  0
   10.7523    4.6968    0.0000 H   0  0  0  0  0  0  0  0  0  0  0  0
    1.4631   -1.0033    0.0000 H   0  0  0  0  0  0  0  0  0  0  0  0
    1.4631   -2.6233    0.0000 H   0  0  0  0  0  0  0  0  0  0  0  0
    1.3800   -5.3133    0.0000 H   0  0  0  0  0  0  0  0  0  0  0  0
    2.0000   -5.9333    0.0000 H   0  0  0  0  0  0  0  0  0  0  0  0
    2.6200   -5.3133    0.0000 H   0  0  0  0  0  0  0  0  0  0  0  0
  1 15  2  0  0  0  0
  2 16  2  0  0  0  0
  3 19  2  0  0  0  0
  4 33  1  0  0  0  0
  4 34  1  0  0  0  0
  5 33  2  0  0  0  0
  6  9  1  0  0  0  0
  6 12  1  0  0  0  0
  6 15  1  0  0  0  0
  7 10  1  0  0  0  0
  7 13  1  0  0  0  0
  7 16  1  0  0  0  0
  8 24  1  0  0  0  0
  8 25  1  0  0  0  0
  8 52  1  0  0  0  0
  9 10  1  0  0  0  0
  9 11  1  0  0  0  0
  9 35  1  0  0  0  0
 10 36  1  0  0  0  0
 10 37  1  0  0  0  0
 11 14  1  0  0  0  0
 11 38  1  0  0  0  0
 11 39  1  0  0  0  0
 12 13  1  0  0  0  0
 12 40  1  0  0  0  0
 12 41  1  0  0  0  0
 13 42  1  0  0  0  0
 13 43  1  0  0  0  0
 14 17  1  0  0  0  0
 14 44  1  0  0  0  0
 14 45  1  0  0  0  0
 15 18  1  0  0  0  0
 16 19  1  0  0  0  0
 17 46  1  0  0  0  0
 17 47  1  0  0  0  0
 17 48  1  0  0  0  0
 18 22  2  0  0  0  0
 18 23  1  0  0  0  0
 19 20  1  0  0  0  0
 20 21  1  0  0  0  0
 20 25  2  0  0  0  0
 21 24  2  0  0  0  0
 21 26  1  0  0  0  0
 22 28  1  0  0  0  0
 22 49  1  0  0  0  0
 23 29  2  0  0  0  0
 23 50  1  0  0  0  0
 24 27  1  0  0  0  0
 25 51  1  0  0  0  0
 26 31  2  0  0  0  0
 26 53  1  0  0  0  0
 27 32  2  0  0  0  0
 27 33  1  0  0  0  0
 28 30  2  0  0  0  0
 28 54  1  0  0  0  0
 29 30  1  0  0  0  0
 29 55  1  0  0  0  0
 30 56  1  0  0  0  0
 31 32  1  0  0  0  0
 31 57  1  0  0  0  0
 32 58  1  0  0  0  0
 34 59  1  0  0  0  0
 34 60  1  0  0  0  0
 34 61  1  0  0  0  0
M  END
> <PUBCHEM_COMPOUND_CID>
506321
> <PUBCHEM_COMPOUND_CANONICALIZED>
1
> <PUBCHEM_CACTVS_COMPLEXITY>
780
> <PUBCHEM_CACTVS_HBOND_ACCEPTOR>
5
> <PUBCHEM_CACTVS_HBOND_DONOR>
1
> <PUBCHEM_CACTVS_ROTATABLE_BOND>
7
> <PUBCHEM_CACTVS_SUBSKEYS>
AAADceB7OAAAAAAAAAAAAAAAAAAAAWAAAAA8YIAAAAAAAFgB9AAAHgAQAAAADCzBngY+yPPJlACoA7X3XACCgCA1ACAI2aGoTNgIZvrAtbmUMYhmxgHI6cecyfCegAACAAACAAAAAAQAAAQAAAAAAAAAAA==
> <PUBCHEM_IUPAC_OPENEYE_NAME>
methyl 3-[2-(4-benzoyl-3-propyl-piperazin-1-yl)-2-oxo-acetyl]-1H-indole-7-carboxylate
> <PUBCHEM_IUPAC_CAS_NAME>
3-[2-(4-benzoyl-3-propyl-1-piperazinyl)-1,2-dioxoethyl]-1H-indole-7-carboxylic acid methyl ester
> <PUBCHEM_IUPAC_NAME_MARKUP>
methyl 3-[2-(4-benzoyl-3-propylpiperazin-1-yl)-2-oxoacetyl]-1<I>H</I>-indole-7-carboxylate
> <PUBCHEM_IUPAC_NAME>
methyl 3-[2-(4-benzoyl-3-propylpiperazin-1-yl)-2-oxoacetyl]-1H-indole-7-carboxylate
> <PUBCHEM_IUPAC_SYSTEMATIC_NAME>
methyl 3-[2-oxidanylidene-2-[4-(phenylcarbonyl)-3-propyl-piperazin-1-yl]ethanoyl]-1H-indole-7-carboxylate
> <PUBCHEM_IUPAC_TRADITIONAL_NAME>
3-[2-(4-benzoyl-3-propyl-piperazino)-2-keto-acetyl]-1H-indole-7-carboxylic acid methyl ester
> <PUBCHEM_IUPAC_INCHI>
InChI=1S/C26H27N3O5/c1-3-8-18-16-28(13-14-29(18)24(31)17-9-5-4-6-10-17)25(32)23(30)21-15-27-22-19(21)11-7-12-20(22)26(33)34-2/h4-7,9-12,15,18,27H,3,8,13-14,16H2,1-2H3
> <PUBCHEM_IUPAC_INCHIKEY>
IBFOPOZNUOODBD-UHFFFAOYSA-N
> <PUBCHEM_XLOGP3_AA>
3.5
> <PUBCHEM_EXACT_MASS>
461.19507097
> <PUBCHEM_MOLECULAR_FORMULA>
C26H27N3O5
> <PUBCHEM_MOLECULAR_WEIGHT>
461.5
> <PUBCHEM_OPENEYE_CAN_SMILES>
CCCC1CN(CCN1C(=O)C2=CC=CC=C2)C(=O)C(=O)C3=CNC4=C3C=CC=C4C(=O)OC
> <PUBCHEM_OPENEYE_ISO_SMILES>
CCCC1CN(CCN1C(=O)C2=CC=CC=C2)C(=O)C(=O)C3=CNC4=C3C=CC=C4C(=O)OC
> <PUBCHEM_CACTVS_TPSA>
99.8
> <PUBCHEM_MONOISOTOPIC_WEIGHT>
461.19507097
> <PUBCHEM_TOTAL_CHARGE>
0
> <PUBCHEM_HEAVY_ATOM_COUNT>
34
> <PUBCHEM_ATOM_DEF_STEREO_COUNT>
0
> <PUBCHEM_ATOM_UDEF_STEREO_COUNT>
1
> <PUBCHEM_BOND_DEF_STEREO_COUNT>
0
> <PUBCHEM_BOND_UDEF_STEREO_COUNT>
0
> <PUBCHEM_ISOTOPIC_ATOM_COUNT>
0
> <PUBCHEM_COMPONENT_COUNT>
1
> <PUBCHEM_CACTVS_TAUTO_COUNT>
-1
> <PUBCHEM_COORDINATE_TYPE>
1
5
255
> <PUBCHEM_BONDANNOTATIONS>
18  22  8
18  23  8
20  21  8
20  25  8
21  24  8
21  26  8
22  28  8
23  29  8
24  27  8
26  31  8
27  32  8
28  30  8
29  30  8
31  32  8
8  24  8
8  25  8
9  11  3
$$$$
