506341
  -OEChem-10302200282D
 52 55  0     1  0  0  0  0  0999 V2000
    2.8660   -0.0033    0.0000 F   0  0  0  0  0  0  0  0  0  0  0  0
    6.6353   -0.7861    0.0000 O   0  0  0  0  0  0  0  0  0  0  0  0
    6.5422    4.5046    0.0000 O   0  0  0  0  0  0  0  0  0  0  0  0
    4.3211    0.4963    0.0000 O   0  0  0  0  0  0  0  0  0  0  0  0
    2.0000   -4.5033    0.0000 O   0  0  0  0  0  0  0  0  0  0  0  0
    3.7320   -4.5033    0.0000 O   0  0  0  0  0  0  0  0  0  0  0  0
    6.2781    0.9087    0.0000 N   0  0  0  0  0  0  0  0  0  0  0  0
    6.8994    2.8098    0.0000 N   0  0  0  0  0  0  0  0  0  0  0  0
    4.6783   -2.8080    0.0000 N   0  0  0  0  0  0  0  0  0  0  0  0
    7.2566    1.1150    0.0000 C   0  0  1  0  0  0  0  0  0  0  0  0
    7.5673    2.0655    0.0000 C   0  0  0  0  0  0  0  0  0  0  0  0
    5.6103    1.6530    0.0000 C   0  0  0  0  0  0  0  0  0  0  0  0
    5.9209    2.6036    0.0000 C   0  0  0  0  0  0  0  0  0  0  0  0
    7.9244    0.3707    0.0000 C   0  0  0  0  0  0  0  0  0  0  0  0
    5.9674   -0.0418    0.0000 C   0  0  0  0  0  0  0  0  0  0  0  0
    7.2101    3.7603    0.0000 C   0  0  0  0  0  0  0  0  0  0  0  0
    4.9889   -0.2480    0.0000 C   0  0  0  0  0  0  0  0  0  0  0  0
    4.6783   -1.1985    0.0000 C   0  0  0  0  0  0  0  0  0  0  0  0
    8.1886    3.9665    0.0000 C   0  0  0  0  0  0  0  0  0  0  0  0
    3.7320   -1.5033    0.0000 C   0  0  0  0  0  0  0  0  0  0  0  0
    3.7320   -2.5033    0.0000 C   0  0  0  0  0  0  0  0  0  0  0  0
    5.2619   -2.0033    0.0000 C   0  0  0  0  0  0  0  0  0  0  0  0
    8.4993    4.9170    0.0000 C   0  0  0  0  0  0  0  0  0  0  0  0
    8.8564    3.2222    0.0000 C   0  0  0  0  0  0  0  0  0  0  0  0
    2.8660   -1.0033    0.0000 C   0  0  0  0  0  0  0  0  0  0  0  0
    2.8660   -3.0033    0.0000 C   0  0  0  0  0  0  0  0  0  0  0  0
    2.0000   -1.5033    0.0000 C   0  0  0  0  0  0  0  0  0  0  0  0
    2.0000   -2.5033    0.0000 C   0  0  0  0  0  0  0  0  0  0  0  0
    9.4778    5.1233    0.0000 C   0  0  0  0  0  0  0  0  0  0  0  0
    9.8349    3.4284    0.0000 C   0  0  0  0  0  0  0  0  0  0  0  0
   10.1456    4.3790    0.0000 C   0  0  0  0  0  0  0  0  0  0  0  0
    2.8660   -4.0033    0.0000 C   0  0  0  0  0  0  0  0  0  0  0  0
    7.0640    0.5256    0.0000 H   0  0  0  0  0  0  0  0  0  0  0  0
    8.1142    1.7735    0.0000 H   0  0  0  0  0  0  0  0  0  0  0  0
    7.9498    2.5534    0.0000 H   0  0  0  0  0  0  0  0  0  0  0  0
    5.0633    1.9451    0.0000 H   0  0  0  0  0  0  0  0  0  0  0  0
    5.2277    1.1651    0.0000 H   0  0  0  0  0  0  0  0  0  0  0  0
    5.9004    3.2232    0.0000 H   0  0  0  0  0  0  0  0  0  0  0  0
    5.3071    2.6909    0.0000 H   0  0  0  0  0  0  0  0  0  0  0  0
    7.4630   -0.0434    0.0000 H   0  0  0  0  0  0  0  0  0  0  0  0
    8.3385   -0.0908    0.0000 H   0  0  0  0  0  0  0  0  0  0  0  0
    8.3859    0.7847    0.0000 H   0  0  0  0  0  0  0  0  0  0  0  0
    5.8819   -2.0033    0.0000 H   0  0  0  0  0  0  0  0  0  0  0  0
    4.8709   -3.3973    0.0000 H   0  0  0  0  0  0  0  0  0  0  0  0
    8.0852    5.3785    0.0000 H   0  0  0  0  0  0  0  0  0  0  0  0
    8.6638    2.6329    0.0000 H   0  0  0  0  0  0  0  0  0  0  0  0
    1.4631   -2.8133    0.0000 H   0  0  0  0  0  0  0  0  0  0  0  0
    1.4631   -1.1933    0.0000 H   0  0  0  0  0  0  0  0  0  0  0  0
    9.6704    5.7126    0.0000 H   0  0  0  0  0  0  0  0  0  0  0  0
   10.2490    2.9670    0.0000 H   0  0  0  0  0  0  0  0  0  0  0  0
   10.7523    4.5068    0.0000 H   0  0  0  0  0  0  0  0  0  0  0  0
    2.0000   -5.1233    0.0000 H   0  0  0  0  0  0  0  0  0  0  0  0
  1 25  1  0  0  0  0
  2 15  2  0  0  0  0
  3 16  2  0  0  0  0
  4 17  2  0  0  0  0
  5 32  1  0  0  0  0
  5 52  1  0  0  0  0
  6 32  2  0  0  0  0
  7 10  1  0  0  0  0
  7 12  1  0  0  0  0
  7 15  1  0  0  0  0
  8 11  1  0  0  0  0
  8 13  1  0  0  0  0
  8 16  1  0  0  0  0
  9 21  1  0  0  0  0
  9 22  1  0  0  0  0
  9 44  1  0  0  0  0
 10 11  1  0  0  0  0
 10 14  1  1  0  0  0
 10 33  1  0  0  0  0
 11 34  1  0  0  0  0
 11 35  1  0  0  0  0
 12 13  1  0  0  0  0
 12 36  1  0  0  0  0
 12 37  1  0  0  0  0
 13 38  1  0  0  0  0
 13 39  1  0  0  0  0
 14 40  1  0  0  0  0
 14 41  1  0  0  0  0
 14 42  1  0  0  0  0
 15 17  1  0  0  0  0
 16 19  1  0  0  0  0
 17 18  1  0  0  0  0
 18 20  1  0  0  0  0
 18 22  2  0  0  0  0
 19 23  2  0  0  0  0
 19 24  1  0  0  0  0
 20 21  1  0  0  0  0
 20 25  2  0  0  0  0
 21 26  2  0  0  0  0
 22 43  1  0  0  0  0
 23 29  1  0  0  0  0
 23 45  1  0  0  0  0
 24 30  2  0  0  0  0
 24 46  1  0  0  0  0
 25 27  1  0  0  0  0
 26 28  1  0  0  0  0
 26 32  1  0  0  0  0
 27 28  2  0  0  0  0
 27 48  1  0  0  0  0
 28 47  1  0  0  0  0
 29 31  2  0  0  0  0
 29 49  1  0  0  0  0
 30 31  1  0  0  0  0
 30 50  1  0  0  0  0
 31 51  1  0  0  0  0
M  END
> <PUBCHEM_COMPOUND_CID>
506341
> <PUBCHEM_COMPOUND_CANONICALIZED>
1
> <PUBCHEM_CACTVS_COMPLEXITY>
771
> <PUBCHEM_CACTVS_HBOND_ACCEPTOR>
6
> <PUBCHEM_CACTVS_HBOND_DONOR>
2
> <PUBCHEM_CACTVS_ROTATABLE_BOND>
4
> <PUBCHEM_CACTVS_SUBSKEYS>
AAADceB7OQAAAAAAAAAAAAAAAAAAAWAAAAA8YIAAAAAAAFgB9AAAHwAQCAAADCzBngw+yPPJkgCoA7X3XACCgCA1ACAI2aGoTNgIZvrAlbGUcYhmxgHI2cecyfCegAACAAACAAAAAAQAAAQAAAAAAAAAAA==
> <PUBCHEM_IUPAC_OPENEYE_NAME>
3-[2-[(2R)-4-benzoyl-2-methyl-piperazin-1-yl]-2-oxo-acetyl]-4-fluoro-1H-indole-7-carboxylic acid
> <PUBCHEM_IUPAC_CAS_NAME>
3-[2-[(2R)-4-benzoyl-2-methyl-1-piperazinyl]-1,2-dioxoethyl]-4-fluoro-1H-indole-7-carboxylic acid
> <PUBCHEM_IUPAC_NAME_MARKUP>
3-[2-[(2<I>R</I>)-4-benzoyl-2-methylpiperazin-1-yl]-2-oxoacetyl]-4-fluoro-1<I>H</I>-indole-7-carboxylic acid
> <PUBCHEM_IUPAC_NAME>
3-[2-[(2R)-4-benzoyl-2-methylpiperazin-1-yl]-2-oxoacetyl]-4-fluoro-1H-indole-7-carboxylic acid
> <PUBCHEM_IUPAC_SYSTEMATIC_NAME>
4-fluoranyl-3-[2-[(2R)-2-methyl-4-(phenylcarbonyl)piperazin-1-yl]-2-oxidanylidene-ethanoyl]-1H-indole-7-carboxylic acid
> <PUBCHEM_IUPAC_TRADITIONAL_NAME>
3-[2-[(2R)-4-benzoyl-2-methyl-piperazino]-2-keto-acetyl]-4-fluoro-1H-indole-7-carboxylic acid
> <PUBCHEM_IUPAC_INCHI>
InChI=1S/C23H20FN3O5/c1-13-12-26(21(29)14-5-3-2-4-6-14)9-10-27(13)22(30)20(28)16-11-25-19-15(23(31)32)7-8-17(24)18(16)19/h2-8,11,13,25H,9-10,12H2,1H3,(H,31,32)/t13-/m1/s1
> <PUBCHEM_IUPAC_INCHIKEY>
MRLZGBVMLIFYSO-CYBMUJFWSA-N
> <PUBCHEM_XLOGP3_AA>
2.4
> <PUBCHEM_EXACT_MASS>
437.13869891
> <PUBCHEM_MOLECULAR_FORMULA>
C23H20FN3O5
> <PUBCHEM_MOLECULAR_WEIGHT>
437.4
> <PUBCHEM_OPENEYE_CAN_SMILES>
CC1CN(CCN1C(=O)C(=O)C2=CNC3=C(C=CC(=C23)F)C(=O)O)C(=O)C4=CC=CC=C4
> <PUBCHEM_OPENEYE_ISO_SMILES>
C[C@@H]1CN(CCN1C(=O)C(=O)C2=CNC3=C(C=CC(=C23)F)C(=O)O)C(=O)C4=CC=CC=C4
> <PUBCHEM_CACTVS_TPSA>
111
> <PUBCHEM_MONOISOTOPIC_WEIGHT>
437.13869891
> <PUBCHEM_TOTAL_CHARGE>
0
> <PUBCHEM_HEAVY_ATOM_COUNT>
32
> <PUBCHEM_ATOM_DEF_STEREO_COUNT>
1
> <PUBCHEM_ATOM_UDEF_STEREO_COUNT>
0
> <PUBCHEM_BOND_DEF_STEREO_COUNT>
0
> <PUBCHEM_BOND_UDEF_STEREO_COUNT>
0
> <PUBCHEM_ISOTOPIC_ATOM_COUNT>
0
> <PUBCHEM_COMPONENT_COUNT>
1
> <PUBCHEM_CACTVS_TAUTO_COUNT>
-1
> <PUBCHEM_COORDINATE_TYPE>
1
5
255
> <PUBCHEM_BONDANNOTATIONS>
10  14  5
18  20  8
18  22  8
19  23  8
19  24  8
20  21  8
20  25  8
21  26  8
23  29  8
24  30  8
25  27  8
26  28  8
27  28  8
29  31  8
30  31  8
9  21  8
9  22  8
$$$$
