506339
  -OEChem-10302200282D
 49 52  0     1  0  0  0  0  0999 V2000
    2.8660   -4.5633    0.0000 Br  0  0  0  0  0  0  0  0  0  0  0  0
    2.8660   -0.5633    0.0000 F   0  0  0  0  0  0  0  0  0  0  0  0
    6.6353   -1.3461    0.0000 O   0  0  0  0  0  0  0  0  0  0  0  0
    6.5422    3.9446    0.0000 O   0  0  0  0  0  0  0  0  0  0  0  0
    4.3211   -0.0637    0.0000 O   0  0  0  0  0  0  0  0  0  0  0  0
    6.2781    0.3487    0.0000 N   0  0  0  0  0  0  0  0  0  0  0  0
    6.8994    2.2498    0.0000 N   0  0  0  0  0  0  0  0  0  0  0  0
    4.6783   -3.3680    0.0000 N   0  0  0  0  0  0  0  0  0  0  0  0
    5.6103    1.0930    0.0000 C   0  0  1  0  0  0  0  0  0  0  0  0
    5.9209    2.0436    0.0000 C   0  0  0  0  0  0  0  0  0  0  0  0
    7.2566    0.5550    0.0000 C   0  0  0  0  0  0  0  0  0  0  0  0
    7.5673    1.5055    0.0000 C   0  0  0  0  0  0  0  0  0  0  0  0
    4.6318    0.8868    0.0000 C   0  0  0  0  0  0  0  0  0  0  0  0
    5.9674   -0.6018    0.0000 C   0  0  0  0  0  0  0  0  0  0  0  0
    7.2101    3.2003    0.0000 C   0  0  0  0  0  0  0  0  0  0  0  0
    4.9889   -0.8080    0.0000 C   0  0  0  0  0  0  0  0  0  0  0  0
    8.1886    3.4065    0.0000 C   0  0  0  0  0  0  0  0  0  0  0  0
    4.6783   -1.7585    0.0000 C   0  0  0  0  0  0  0  0  0  0  0  0
    3.7320   -2.0633    0.0000 C   0  0  0  0  0  0  0  0  0  0  0  0
    3.7320   -3.0633    0.0000 C   0  0  0  0  0  0  0  0  0  0  0  0
    5.2619   -2.5633    0.0000 C   0  0  0  0  0  0  0  0  0  0  0  0
    8.4993    4.3570    0.0000 C   0  0  0  0  0  0  0  0  0  0  0  0
    8.8564    2.6622    0.0000 C   0  0  0  0  0  0  0  0  0  0  0  0
    2.8660   -1.5633    0.0000 C   0  0  0  0  0  0  0  0  0  0  0  0
    2.8660   -3.5633    0.0000 C   0  0  0  0  0  0  0  0  0  0  0  0
    2.0000   -2.0633    0.0000 C   0  0  0  0  0  0  0  0  0  0  0  0
    9.4778    4.5633    0.0000 C   0  0  0  0  0  0  0  0  0  0  0  0
    9.8349    2.8684    0.0000 C   0  0  0  0  0  0  0  0  0  0  0  0
    2.0000   -3.0633    0.0000 C   0  0  0  0  0  0  0  0  0  0  0  0
   10.1456    3.8190    0.0000 C   0  0  0  0  0  0  0  0  0  0  0  0
    5.4176    0.5037    0.0000 H   0  0  0  0  0  0  0  0  0  0  0  0
    5.9004    2.6632    0.0000 H   0  0  0  0  0  0  0  0  0  0  0  0
    5.3071    2.1309    0.0000 H   0  0  0  0  0  0  0  0  0  0  0  0
    7.2772   -0.0647    0.0000 H   0  0  0  0  0  0  0  0  0  0  0  0
    7.8704    0.4676    0.0000 H   0  0  0  0  0  0  0  0  0  0  0  0
    8.1142    1.2135    0.0000 H   0  0  0  0  0  0  0  0  0  0  0  0
    7.9498    1.9934    0.0000 H   0  0  0  0  0  0  0  0  0  0  0  0
    4.5039    1.4935    0.0000 H   0  0  0  0  0  0  0  0  0  0  0  0
    4.0251    0.7590    0.0000 H   0  0  0  0  0  0  0  0  0  0  0  0
    4.7596    0.2801    0.0000 H   0  0  0  0  0  0  0  0  0  0  0  0
    5.8819   -2.5633    0.0000 H   0  0  0  0  0  0  0  0  0  0  0  0
    4.8709   -3.9573    0.0000 H   0  0  0  0  0  0  0  0  0  0  0  0
    8.0852    4.8185    0.0000 H   0  0  0  0  0  0  0  0  0  0  0  0
    8.6638    2.0729    0.0000 H   0  0  0  0  0  0  0  0  0  0  0  0
    1.4631   -1.7533    0.0000 H   0  0  0  0  0  0  0  0  0  0  0  0
    9.6704    5.1526    0.0000 H   0  0  0  0  0  0  0  0  0  0  0  0
   10.2490    2.4070    0.0000 H   0  0  0  0  0  0  0  0  0  0  0  0
    1.4631   -3.3733    0.0000 H   0  0  0  0  0  0  0  0  0  0  0  0
   10.7523    3.9468    0.0000 H   0  0  0  0  0  0  0  0  0  0  0  0
  1 25  1  0  0  0  0
  2 24  1  0  0  0  0
  3 14  2  0  0  0  0
  4 15  2  0  0  0  0
  5 16  2  0  0  0  0
  6  9  1  0  0  0  0
  6 11  1  0  0  0  0
  6 14  1  0  0  0  0
  7 10  1  0  0  0  0
  7 12  1  0  0  0  0
  7 15  1  0  0  0  0
  8 20  1  0  0  0  0
  8 21  1  0  0  0  0
  8 42  1  0  0  0  0
  9 10  1  0  0  0  0
  9 13  1  6  0  0  0
  9 31  1  0  0  0  0
 10 32  1  0  0  0  0
 10 33  1  0  0  0  0
 11 12  1  0  0  0  0
 11 34  1  0  0  0  0
 11 35  1  0  0  0  0
 12 36  1  0  0  0  0
 12 37  1  0  0  0  0
 13 38  1  0  0  0  0
 13 39  1  0  0  0  0
 13 40  1  0  0  0  0
 14 16  1  0  0  0  0
 15 17  1  0  0  0  0
 16 18  1  0  0  0  0
 17 22  2  0  0  0  0
 17 23  1  0  0  0  0
 18 19  1  0  0  0  0
 18 21  2  0  0  0  0
 19 20  1  0  0  0  0
 19 24  2  0  0  0  0
 20 25  2  0  0  0  0
 21 41  1  0  0  0  0
 22 27  1  0  0  0  0
 22 43  1  0  0  0  0
 23 28  2  0  0  0  0
 23 44  1  0  0  0  0
 24 26  1  0  0  0  0
 25 29  1  0  0  0  0
 26 29  2  0  0  0  0
 26 45  1  0  0  0  0
 27 30  2  0  0  0  0
 27 46  1  0  0  0  0
 28 30  1  0  0  0  0
 28 47  1  0  0  0  0
 29 48  1  0  0  0  0
 30 49  1  0  0  0  0
M  END
> <PUBCHEM_COMPOUND_CID>
506339
> <PUBCHEM_COMPOUND_CANONICALIZED>
1
> <PUBCHEM_CACTVS_COMPLEXITY>
687
> <PUBCHEM_CACTVS_HBOND_ACCEPTOR>
4
> <PUBCHEM_CACTVS_HBOND_DONOR>
1
> <PUBCHEM_CACTVS_ROTATABLE_BOND>
3
> <PUBCHEM_CACTVS_SUBSKEYS>
AAADceB7MQAAEAAAAAAAAAAAAAAAAWAAAAA8YIAAAAAAAFgB9AAAHwBQAAABrCzBngw+wPPJkACoA7V3VACCgCA1ACQI2aGoRPgIYPrAlbGUIYhghgDIy9ccicCegAAAEAACAAgAAAAgAAQAEAAAAAAAAA==
> <PUBCHEM_IUPAC_OPENEYE_NAME>
1-[(2R)-4-benzoyl-2-methyl-piperazin-1-yl]-2-(7-bromo-4-fluoro-1H-indol-3-yl)ethane-1,2-dione
> <PUBCHEM_IUPAC_CAS_NAME>
1-[(2R)-4-benzoyl-2-methyl-1-piperazinyl]-2-(7-bromo-4-fluoro-1H-indol-3-yl)ethane-1,2-dione
> <PUBCHEM_IUPAC_NAME_MARKUP>
1-[(2<I>R</I>)-4-benzoyl-2-methylpiperazin-1-yl]-2-(7-bromo-4-fluoro-1<I>H</I>-indol-3-yl)ethane-1,2-dione
> <PUBCHEM_IUPAC_NAME>
1-[(2R)-4-benzoyl-2-methylpiperazin-1-yl]-2-(7-bromo-4-fluoro-1H-indol-3-yl)ethane-1,2-dione
> <PUBCHEM_IUPAC_SYSTEMATIC_NAME>
1-(7-bromanyl-4-fluoranyl-1H-indol-3-yl)-2-[(2R)-2-methyl-4-(phenylcarbonyl)piperazin-1-yl]ethane-1,2-dione
> <PUBCHEM_IUPAC_TRADITIONAL_NAME>
1-[(2R)-4-benzoyl-2-methyl-piperazino]-2-(7-bromo-4-fluoro-1H-indol-3-yl)ethane-1,2-dione
> <PUBCHEM_IUPAC_INCHI>
InChI=1S/C22H19BrFN3O3/c1-13-12-26(21(29)14-5-3-2-4-6-14)9-10-27(13)22(30)20(28)15-11-25-19-16(23)7-8-17(24)18(15)19/h2-8,11,13,25H,9-10,12H2,1H3/t13-/m1/s1
> <PUBCHEM_IUPAC_INCHIKEY>
KDMIGGXROYVWIL-CYBMUJFWSA-N
> <PUBCHEM_XLOGP3_AA>
3.5
> <PUBCHEM_EXACT_MASS>
471.05938
> <PUBCHEM_MOLECULAR_FORMULA>
C22H19BrFN3O3
> <PUBCHEM_MOLECULAR_WEIGHT>
472.3
> <PUBCHEM_OPENEYE_CAN_SMILES>
CC1CN(CCN1C(=O)C(=O)C2=CNC3=C(C=CC(=C23)F)Br)C(=O)C4=CC=CC=C4
> <PUBCHEM_OPENEYE_ISO_SMILES>
C[C@@H]1CN(CCN1C(=O)C(=O)C2=CNC3=C(C=CC(=C23)F)Br)C(=O)C4=CC=CC=C4
> <PUBCHEM_CACTVS_TPSA>
73.5
> <PUBCHEM_MONOISOTOPIC_WEIGHT>
471.05938
> <PUBCHEM_TOTAL_CHARGE>
0
> <PUBCHEM_HEAVY_ATOM_COUNT>
30
> <PUBCHEM_ATOM_DEF_STEREO_COUNT>
1
> <PUBCHEM_ATOM_UDEF_STEREO_COUNT>
0
> <PUBCHEM_BOND_DEF_STEREO_COUNT>
0
> <PUBCHEM_BOND_UDEF_STEREO_COUNT>
0
> <PUBCHEM_ISOTOPIC_ATOM_COUNT>
0
> <PUBCHEM_COMPONENT_COUNT>
1
> <PUBCHEM_CACTVS_TAUTO_COUNT>
-1
> <PUBCHEM_COORDINATE_TYPE>
1
5
255
> <PUBCHEM_BONDANNOTATIONS>
17  22  8
17  23  8
18  19  8
18  21  8
19  20  8
19  24  8
20  25  8
22  27  8
23  28  8
24  26  8
25  29  8
26  29  8
27  30  8
28  30  8
8  20  8
8  21  8
9  13  6
$$$$
