506306
  -OEChem-10302200282D
 53 56  0     1  0  0  0  0  0999 V2000
    6.6353   -1.0961    0.0000 O   0  0  0  0  0  0  0  0  0  0  0  0
    6.5422    4.1946    0.0000 O   0  0  0  0  0  0  0  0  0  0  0  0
    4.3211    0.1863    0.0000 O   0  0  0  0  0  0  0  0  0  0  0  0
    2.8660   -4.3133    0.0000 O   0  0  0  0  0  0  0  0  0  0  0  0
    6.2781    0.5987    0.0000 N   0  0  0  0  0  0  0  0  0  0  0  0
    6.8994    2.4998    0.0000 N   0  0  0  0  0  0  0  0  0  0  0  0
    4.6783   -3.1180    0.0000 N   0  0  0  0  0  0  0  0  0  0  0  0
    5.6103    1.3430    0.0000 C   0  0  2  0  0  0  0  0  0  0  0  0
    5.9209    2.2936    0.0000 C   0  0  0  0  0  0  0  0  0  0  0  0
    7.2566    0.8050    0.0000 C   0  0  0  0  0  0  0  0  0  0  0  0
    7.5673    1.7555    0.0000 C   0  0  0  0  0  0  0  0  0  0  0  0
    4.6318    1.1368    0.0000 C   0  0  0  0  0  0  0  0  0  0  0  0
    5.9674   -0.3518    0.0000 C   0  0  0  0  0  0  0  0  0  0  0  0
    7.2101    3.4503    0.0000 C   0  0  0  0  0  0  0  0  0  0  0  0
    4.9889   -0.5580    0.0000 C   0  0  0  0  0  0  0  0  0  0  0  0
    4.6783   -1.5085    0.0000 C   0  0  0  0  0  0  0  0  0  0  0  0
    8.1886    3.6565    0.0000 C   0  0  0  0  0  0  0  0  0  0  0  0
    3.7320   -1.8133    0.0000 C   0  0  0  0  0  0  0  0  0  0  0  0
    3.7320   -2.8133    0.0000 C   0  0  0  0  0  0  0  0  0  0  0  0
    5.2619   -2.3133    0.0000 C   0  0  0  0  0  0  0  0  0  0  0  0
    8.4993    4.6070    0.0000 C   0  0  0  0  0  0  0  0  0  0  0  0
    8.8564    2.9122    0.0000 C   0  0  0  0  0  0  0  0  0  0  0  0
    2.8660   -1.3133    0.0000 C   0  0  0  0  0  0  0  0  0  0  0  0
    2.8660   -3.3133    0.0000 C   0  0  0  0  0  0  0  0  0  0  0  0
    2.0000   -1.8133    0.0000 C   0  0  0  0  0  0  0  0  0  0  0  0
    2.0000   -2.8133    0.0000 C   0  0  0  0  0  0  0  0  0  0  0  0
    9.4778    4.8133    0.0000 C   0  0  0  0  0  0  0  0  0  0  0  0
    9.8349    3.1184    0.0000 C   0  0  0  0  0  0  0  0  0  0  0  0
   10.1456    4.0690    0.0000 C   0  0  0  0  0  0  0  0  0  0  0  0
    2.0000   -4.8133    0.0000 C   0  0  0  0  0  0  0  0  0  0  0  0
    5.4176    0.7537    0.0000 H   0  0  0  0  0  0  0  0  0  0  0  0
    5.9004    2.9132    0.0000 H   0  0  0  0  0  0  0  0  0  0  0  0
    5.3071    2.3809    0.0000 H   0  0  0  0  0  0  0  0  0  0  0  0
    7.2772    0.1853    0.0000 H   0  0  0  0  0  0  0  0  0  0  0  0
    7.8704    0.7176    0.0000 H   0  0  0  0  0  0  0  0  0  0  0  0
    8.1142    1.4635    0.0000 H   0  0  0  0  0  0  0  0  0  0  0  0
    7.9498    2.2434    0.0000 H   0  0  0  0  0  0  0  0  0  0  0  0
    4.5039    1.7435    0.0000 H   0  0  0  0  0  0  0  0  0  0  0  0
    4.0251    1.0090    0.0000 H   0  0  0  0  0  0  0  0  0  0  0  0
    4.7596    0.5301    0.0000 H   0  0  0  0  0  0  0  0  0  0  0  0
    5.8819   -2.3133    0.0000 H   0  0  0  0  0  0  0  0  0  0  0  0
    4.8709   -3.7073    0.0000 H   0  0  0  0  0  0  0  0  0  0  0  0
    8.0852    5.0685    0.0000 H   0  0  0  0  0  0  0  0  0  0  0  0
    8.6638    2.3229    0.0000 H   0  0  0  0  0  0  0  0  0  0  0  0
    2.8660   -0.6933    0.0000 H   0  0  0  0  0  0  0  0  0  0  0  0
    1.4631   -1.5033    0.0000 H   0  0  0  0  0  0  0  0  0  0  0  0
    1.4631   -3.1233    0.0000 H   0  0  0  0  0  0  0  0  0  0  0  0
    9.6704    5.4026    0.0000 H   0  0  0  0  0  0  0  0  0  0  0  0
   10.2490    2.6570    0.0000 H   0  0  0  0  0  0  0  0  0  0  0  0
   10.7523    4.1968    0.0000 H   0  0  0  0  0  0  0  0  0  0  0  0
    1.6900   -4.2763    0.0000 H   0  0  0  0  0  0  0  0  0  0  0  0
    1.4631   -5.1233    0.0000 H   0  0  0  0  0  0  0  0  0  0  0  0
    2.3100   -5.3502    0.0000 H   0  0  0  0  0  0  0  0  0  0  0  0
  1 13  2  0  0  0  0
  2 14  2  0  0  0  0
  3 15  2  0  0  0  0
  4 24  1  0  0  0  0
  4 30  1  0  0  0  0
  5  8  1  0  0  0  0
  5 10  1  0  0  0  0
  5 13  1  0  0  0  0
  6  9  1  0  0  0  0
  6 11  1  0  0  0  0
  6 14  1  0  0  0  0
  7 19  1  0  0  0  0
  7 20  1  0  0  0  0
  7 42  1  0  0  0  0
  8  9  1  0  0  0  0
  8 12  1  1  0  0  0
  8 31  1  0  0  0  0
  9 32  1  0  0  0  0
  9 33  1  0  0  0  0
 10 11  1  0  0  0  0
 10 34  1  0  0  0  0
 10 35  1  0  0  0  0
 11 36  1  0  0  0  0
 11 37  1  0  0  0  0
 12 38  1  0  0  0  0
 12 39  1  0  0  0  0
 12 40  1  0  0  0  0
 13 15  1  0  0  0  0
 14 17  1  0  0  0  0
 15 16  1  0  0  0  0
 16 18  1  0  0  0  0
 16 20  2  0  0  0  0
 17 21  2  0  0  0  0
 17 22  1  0  0  0  0
 18 19  2  0  0  0  0
 18 23  1  0  0  0  0
 19 24  1  0  0  0  0
 20 41  1  0  0  0  0
 21 27  1  0  0  0  0
 21 43  1  0  0  0  0
 22 28  2  0  0  0  0
 22 44  1  0  0  0  0
 23 25  2  0  0  0  0
 23 45  1  0  0  0  0
 24 26  2  0  0  0  0
 25 26  1  0  0  0  0
 25 46  1  0  0  0  0
 26 47  1  0  0  0  0
 27 29  2  0  0  0  0
 27 48  1  0  0  0  0
 28 29  1  0  0  0  0
 28 49  1  0  0  0  0
 29 50  1  0  0  0  0
 30 51  1  0  0  0  0
 30 52  1  0  0  0  0
 30 53  1  0  0  0  0
M  END
> <PUBCHEM_COMPOUND_CID>
506306
> <PUBCHEM_COMPOUND_CANONICALIZED>
1
> <PUBCHEM_CACTVS_COMPLEXITY>
663
> <PUBCHEM_CACTVS_HBOND_ACCEPTOR>
4
> <PUBCHEM_CACTVS_HBOND_DONOR>
1
> <PUBCHEM_CACTVS_ROTATABLE_BOND>
4
> <PUBCHEM_CACTVS_SUBSKEYS>
AAADceB7OAAAAAAAAAAAAAAAAAAAAWAAAAA8YIAAAAAAAFgB9AAAHgAQAAAADCzBngY+xvPJlACoA7V3VASCiCA1YCAI2aGvTNgOZvrEtbuVMahkxhHY6cec3fDegAABAAACEAAAAAIAAAQgAAAAAAAAAA==
> <PUBCHEM_IUPAC_OPENEYE_NAME>
1-[(2S)-4-benzoyl-2-methyl-piperazin-1-yl]-2-(7-methoxy-1H-indol-3-yl)ethane-1,2-dione
> <PUBCHEM_IUPAC_CAS_NAME>
1-[(2S)-4-benzoyl-2-methyl-1-piperazinyl]-2-(7-methoxy-1H-indol-3-yl)ethane-1,2-dione
> <PUBCHEM_IUPAC_NAME_MARKUP>
1-[(2<I>S</I>)-4-benzoyl-2-methylpiperazin-1-yl]-2-(7-methoxy-1<I>H</I>-indol-3-yl)ethane-1,2-dione
> <PUBCHEM_IUPAC_NAME>
1-[(2S)-4-benzoyl-2-methylpiperazin-1-yl]-2-(7-methoxy-1H-indol-3-yl)ethane-1,2-dione
> <PUBCHEM_IUPAC_SYSTEMATIC_NAME>
1-(7-methoxy-1H-indol-3-yl)-2-[(2S)-2-methyl-4-(phenylcarbonyl)piperazin-1-yl]ethane-1,2-dione
> <PUBCHEM_IUPAC_TRADITIONAL_NAME>
1-[(2S)-4-benzoyl-2-methyl-piperazino]-2-(7-methoxy-1H-indol-3-yl)ethane-1,2-dione
> <PUBCHEM_IUPAC_INCHI>
InChI=1S/C23H23N3O4/c1-15-14-25(22(28)16-7-4-3-5-8-16)11-12-26(15)23(29)21(27)18-13-24-20-17(18)9-6-10-19(20)30-2/h3-10,13,15,24H,11-12,14H2,1-2H3/t15-/m0/s1
> <PUBCHEM_IUPAC_INCHIKEY>
DEABTGXHNGQLRZ-HNNXBMFYSA-N
> <PUBCHEM_XLOGP3_AA>
2.7
> <PUBCHEM_EXACT_MASS>
405.16885622
> <PUBCHEM_MOLECULAR_FORMULA>
C23H23N3O4
> <PUBCHEM_MOLECULAR_WEIGHT>
405.4
> <PUBCHEM_OPENEYE_CAN_SMILES>
CC1CN(CCN1C(=O)C(=O)C2=CNC3=C2C=CC=C3OC)C(=O)C4=CC=CC=C4
> <PUBCHEM_OPENEYE_ISO_SMILES>
C[C@H]1CN(CCN1C(=O)C(=O)C2=CNC3=C2C=CC=C3OC)C(=O)C4=CC=CC=C4
> <PUBCHEM_CACTVS_TPSA>
82.7
> <PUBCHEM_MONOISOTOPIC_WEIGHT>
405.16885622
> <PUBCHEM_TOTAL_CHARGE>
0
> <PUBCHEM_HEAVY_ATOM_COUNT>
30
> <PUBCHEM_ATOM_DEF_STEREO_COUNT>
1
> <PUBCHEM_ATOM_UDEF_STEREO_COUNT>
0
> <PUBCHEM_BOND_DEF_STEREO_COUNT>
0
> <PUBCHEM_BOND_UDEF_STEREO_COUNT>
0
> <PUBCHEM_ISOTOPIC_ATOM_COUNT>
0
> <PUBCHEM_COMPONENT_COUNT>
1
> <PUBCHEM_CACTVS_TAUTO_COUNT>
-1
> <PUBCHEM_COORDINATE_TYPE>
1
5
255
> <PUBCHEM_BONDANNOTATIONS>
16  18  8
16  20  8
17  21  8
17  22  8
18  19  8
18  23  8
19  24  8
21  27  8
22  28  8
23  25  8
24  26  8
25  26  8
27  29  8
28  29  8
7  19  8
7  20  8
8  12  5
$$$$
