506395
  -OEChem-10302200282D
 52 55  0     1  0  0  0  0  0999 V2000
   10.7103    3.6982    0.0000 Br  0  0  0  0  0  0  0  0  0  0  0  0
    6.6353   -0.4741    0.0000 O   0  0  0  0  0  0  0  0  0  0  0  0
    6.5422    4.8166    0.0000 O   0  0  0  0  0  0  0  0  0  0  0  0
    8.9306    3.6080    0.0000 O   0  0  0  0  0  0  0  0  0  0  0  0
    4.3211    0.8082    0.0000 O   0  0  0  0  0  0  0  0  0  0  0  0
    2.0000   -4.1913    0.0000 O   0  0  0  0  0  0  0  0  0  0  0  0
    3.7320   -4.1913    0.0000 O   0  0  0  0  0  0  0  0  0  0  0  0
    6.2781    1.2207    0.0000 N   0  0  0  0  0  0  0  0  0  0  0  0
    6.8994    3.1217    0.0000 N   0  0  0  0  0  0  0  0  0  0  0  0
    4.6783   -2.4960    0.0000 N   0  0  0  0  0  0  0  0  0  0  0  0
    7.2566    1.4269    0.0000 C   0  0  1  0  0  0  0  0  0  0  0  0
    7.5673    2.3774    0.0000 C   0  0  0  0  0  0  0  0  0  0  0  0
    5.6103    1.9650    0.0000 C   0  0  0  0  0  0  0  0  0  0  0  0
    5.9209    2.9155    0.0000 C   0  0  0  0  0  0  0  0  0  0  0  0
    7.9244    0.6826    0.0000 C   0  0  0  0  0  0  0  0  0  0  0  0
    5.9674    0.2702    0.0000 C   0  0  0  0  0  0  0  0  0  0  0  0
    7.2101    4.0723    0.0000 C   0  0  0  0  0  0  0  0  0  0  0  0
    4.9889    0.0639    0.0000 C   0  0  0  0  0  0  0  0  0  0  0  0
    4.6783   -0.8866    0.0000 C   0  0  0  0  0  0  0  0  0  0  0  0
    8.1886    4.2785    0.0000 C   0  0  0  0  0  0  0  0  0  0  0  0
    3.7320   -1.1913    0.0000 C   0  0  0  0  0  0  0  0  0  0  0  0
    3.7320   -2.1913    0.0000 C   0  0  0  0  0  0  0  0  0  0  0  0
    5.2619   -1.6913    0.0000 C   0  0  0  0  0  0  0  0  0  0  0  0
    2.8660   -2.6913    0.0000 C   0  0  0  0  0  0  0  0  0  0  0  0
    2.8660   -0.6913    0.0000 C   0  0  0  0  0  0  0  0  0  0  0  0
    8.5969    5.1913    0.0000 C   0  0  0  0  0  0  0  0  0  0  0  0
    2.0000   -2.1913    0.0000 C   0  0  0  0  0  0  0  0  0  0  0  0
    2.0000   -1.1913    0.0000 C   0  0  0  0  0  0  0  0  0  0  0  0
    9.5912    5.0851    0.0000 C   0  0  0  0  0  0  0  0  0  0  0  0
    9.7975    4.1066    0.0000 C   0  0  0  0  0  0  0  0  0  0  0  0
    2.8660   -3.6913    0.0000 C   0  0  0  0  0  0  0  0  0  0  0  0
    2.0000   -5.1913    0.0000 C   0  0  0  0  0  0  0  0  0  0  0  0
    7.0640    0.8376    0.0000 H   0  0  0  0  0  0  0  0  0  0  0  0
    8.1142    2.0854    0.0000 H   0  0  0  0  0  0  0  0  0  0  0  0
    7.9498    2.8653    0.0000 H   0  0  0  0  0  0  0  0  0  0  0  0
    5.0633    2.2570    0.0000 H   0  0  0  0  0  0  0  0  0  0  0  0
    5.2277    1.4771    0.0000 H   0  0  0  0  0  0  0  0  0  0  0  0
    5.9004    3.5352    0.0000 H   0  0  0  0  0  0  0  0  0  0  0  0
    5.3071    3.0029    0.0000 H   0  0  0  0  0  0  0  0  0  0  0  0
    7.4630    0.2685    0.0000 H   0  0  0  0  0  0  0  0  0  0  0  0
    8.3385    0.2211    0.0000 H   0  0  0  0  0  0  0  0  0  0  0  0
    8.3859    1.0967    0.0000 H   0  0  0  0  0  0  0  0  0  0  0  0
    5.8819   -1.6913    0.0000 H   0  0  0  0  0  0  0  0  0  0  0  0
    4.8709   -3.0854    0.0000 H   0  0  0  0  0  0  0  0  0  0  0  0
    2.8660   -0.0713    0.0000 H   0  0  0  0  0  0  0  0  0  0  0  0
    8.2878    5.7288    0.0000 H   0  0  0  0  0  0  0  0  0  0  0  0
    1.4631   -2.5013    0.0000 H   0  0  0  0  0  0  0  0  0  0  0  0
    1.4631   -0.8813    0.0000 H   0  0  0  0  0  0  0  0  0  0  0  0
   10.0069    5.5451    0.0000 H   0  0  0  0  0  0  0  0  0  0  0  0
    1.3800   -5.1913    0.0000 H   0  0  0  0  0  0  0  0  0  0  0  0
    2.0000   -5.8113    0.0000 H   0  0  0  0  0  0  0  0  0  0  0  0
    2.6200   -5.1913    0.0000 H   0  0  0  0  0  0  0  0  0  0  0  0
  1 30  1  0  0  0  0
  2 16  2  0  0  0  0
  3 17  2  0  0  0  0
  4 20  1  0  0  0  0
  4 30  1  0  0  0  0
  5 18  2  0  0  0  0
  6 31  1  0  0  0  0
  6 32  1  0  0  0  0
  7 31  2  0  0  0  0
  8 11  1  0  0  0  0
  8 13  1  0  0  0  0
  8 16  1  0  0  0  0
  9 12  1  0  0  0  0
  9 14  1  0  0  0  0
  9 17  1  0  0  0  0
 10 22  1  0  0  0  0
 10 23  1  0  0  0  0
 10 44  1  0  0  0  0
 11 12  1  0  0  0  0
 11 15  1  1  0  0  0
 11 33  1  0  0  0  0
 12 34  1  0  0  0  0
 12 35  1  0  0  0  0
 13 14  1  0  0  0  0
 13 36  1  0  0  0  0
 13 37  1  0  0  0  0
 14 38  1  0  0  0  0
 14 39  1  0  0  0  0
 15 40  1  0  0  0  0
 15 41  1  0  0  0  0
 15 42  1  0  0  0  0
 16 18  1  0  0  0  0
 17 20  1  0  0  0  0
 18 19  1  0  0  0  0
 19 21  1  0  0  0  0
 19 23  2  0  0  0  0
 20 26  2  0  0  0  0
 21 22  2  0  0  0  0
 21 25  1  0  0  0  0
 22 24  1  0  0  0  0
 23 43  1  0  0  0  0
 24 27  2  0  0  0  0
 24 31  1  0  0  0  0
 25 28  2  0  0  0  0
 25 45  1  0  0  0  0
 26 29  1  0  0  0  0
 26 46  1  0  0  0  0
 27 28  1  0  0  0  0
 27 47  1  0  0  0  0
 28 48  1  0  0  0  0
 29 30  2  0  0  0  0
 29 49  1  0  0  0  0
 32 50  1  0  0  0  0
 32 51  1  0  0  0  0
 32 52  1  0  0  0  0
M  END
> <PUBCHEM_COMPOUND_CID>
506395
> <PUBCHEM_COMPOUND_CANONICALIZED>
1
> <PUBCHEM_CACTVS_COMPLEXITY>
779
> <PUBCHEM_CACTVS_HBOND_ACCEPTOR>
6
> <PUBCHEM_CACTVS_HBOND_DONOR>
1
> <PUBCHEM_CACTVS_ROTATABLE_BOND>
5
> <PUBCHEM_CACTVS_SUBSKEYS>
AAADceB7OAAAEAAAAAAAAAAAAAAAAWJAAAA8QAAAAAAAAFgB/AAAHgBQAAABLCzBngY+zPPJlECoA7X3XAKCiCA1ICQI2aHuTPgOZvrEtb+XOajmxhHY69ec3/KegAACAAACAAAAAAQAAAQAAAAAAAAAAA==
> <PUBCHEM_IUPAC_OPENEYE_NAME>
methyl 3-[2-[(2R)-4-(5-bromofuran-2-carbonyl)-2-methyl-piperazin-1-yl]-2-oxo-acetyl]-1H-indole-7-carboxylate
> <PUBCHEM_IUPAC_CAS_NAME>
3-[2-[(2R)-4-[(5-bromo-2-furanyl)-oxomethyl]-2-methyl-1-piperazinyl]-1,2-dioxoethyl]-1H-indole-7-carboxylic acid methyl ester
> <PUBCHEM_IUPAC_NAME_MARKUP>
methyl 3-[2-[(2<I>R</I>)-4-(5-bromofuran-2-carbonyl)-2-methylpiperazin-1-yl]-2-oxoacetyl]-1<I>H</I>-indole-7-carboxylate
> <PUBCHEM_IUPAC_NAME>
methyl 3-[2-[(2R)-4-(5-bromofuran-2-carbonyl)-2-methylpiperazin-1-yl]-2-oxoacetyl]-1H-indole-7-carboxylate
> <PUBCHEM_IUPAC_SYSTEMATIC_NAME>
methyl 3-[2-[(2R)-4-(5-bromanylfuran-2-yl)carbonyl-2-methyl-piperazin-1-yl]-2-oxidanylidene-ethanoyl]-1H-indole-7-carboxylate
> <PUBCHEM_IUPAC_TRADITIONAL_NAME>
3-[2-[(2R)-4-(5-bromo-2-furoyl)-2-methyl-piperazino]-2-keto-acetyl]-1H-indole-7-carboxylic acid methyl ester
> <PUBCHEM_IUPAC_INCHI>
InChI=1S/C22H20BrN3O6/c1-12-11-25(20(28)16-6-7-17(23)32-16)8-9-26(12)21(29)19(27)15-10-24-18-13(15)4-3-5-14(18)22(30)31-2/h3-7,10,12,24H,8-9,11H2,1-2H3/t12-/m1/s1
> <PUBCHEM_IUPAC_INCHIKEY>
WPWVGJKRRFBGOK-GFCCVEGCSA-N
> <PUBCHEM_XLOGP3_AA>
3
> <PUBCHEM_EXACT_MASS>
501.05355
> <PUBCHEM_MOLECULAR_FORMULA>
C22H20BrN3O6
> <PUBCHEM_MOLECULAR_WEIGHT>
502.3
> <PUBCHEM_OPENEYE_CAN_SMILES>
CC1CN(CCN1C(=O)C(=O)C2=CNC3=C2C=CC=C3C(=O)OC)C(=O)C4=CC=C(O4)Br
> <PUBCHEM_OPENEYE_ISO_SMILES>
C[C@@H]1CN(CCN1C(=O)C(=O)C2=CNC3=C2C=CC=C3C(=O)OC)C(=O)C4=CC=C(O4)Br
> <PUBCHEM_CACTVS_TPSA>
113
> <PUBCHEM_MONOISOTOPIC_WEIGHT>
501.05355
> <PUBCHEM_TOTAL_CHARGE>
0
> <PUBCHEM_HEAVY_ATOM_COUNT>
32
> <PUBCHEM_ATOM_DEF_STEREO_COUNT>
1
> <PUBCHEM_ATOM_UDEF_STEREO_COUNT>
0
> <PUBCHEM_BOND_DEF_STEREO_COUNT>
0
> <PUBCHEM_BOND_UDEF_STEREO_COUNT>
0
> <PUBCHEM_ISOTOPIC_ATOM_COUNT>
0
> <PUBCHEM_COMPONENT_COUNT>
1
> <PUBCHEM_CACTVS_TAUTO_COUNT>
-1
> <PUBCHEM_COORDINATE_TYPE>
1
5
255
> <PUBCHEM_BONDANNOTATIONS>
10  22  8
10  23  8
11  15  5
19  21  8
19  23  8
20  26  8
21  22  8
21  25  8
22  24  8
24  27  8
25  28  8
26  29  8
27  28  8
29  30  8
4  20  8
4  30  8
$$$$
