506488
  -OEChem-10302200282D
 40 43  0     1  0  0  0  0  0999 V2000
    4.6660   -0.8753    0.0000 S   0  0  0  0  0  0  0  0  0  0  0  0
    5.5987    0.7377    0.0000 O   0  0  0  0  0  0  0  0  0  0  0  0
    8.1712    0.4584    0.0000 O   0  0  0  0  0  0  0  0  0  0  0  0
    7.4750    2.5196    0.0000 O   0  0  0  0  0  0  0  0  0  0  0  0
    5.6957    3.4126    0.0000 O   0  0  0  0  0  0  0  0  0  0  0  0
    8.1962   -0.8512    0.0000 O   0  0  0  0  0  0  0  0  0  0  0  0
    6.4144   -3.9099    0.0000 O   0  0  0  0  0  0  0  0  0  0  0  0
    6.4260   -0.8407    0.0000 N   0  0  0  0  0  0  0  0  0  0  0  0
    7.3321   -2.3961    0.0000 N   0  0  0  0  0  0  0  0  0  0  0  0
    4.6660   -2.8753    0.0000 N   0  0  0  0  0  0  0  0  0  0  0  0
    6.4144    0.1593    0.0000 C   0  0  1  0  0  0  0  0  0  0  0  0
    7.2166    0.7564    0.0000 C   0  0  1  0  0  0  0  0  0  0  0  0
    6.8966    1.7038    0.0000 C   0  0  1  0  0  0  0  0  0  0  0  0
    5.8967    1.6922    0.0000 C   0  0  1  0  0  0  0  0  0  0  0  0
    5.2996    2.4944    0.0000 C   0  0  0  0  0  0  0  0  0  0  0  0
    5.5321   -1.3753    0.0000 C   0  0  0  0  0  0  0  0  0  0  0  0
    7.3321   -1.3545    0.0000 C   0  0  0  0  0  0  0  0  0  0  0  0
    5.5321   -2.3753    0.0000 C   0  0  0  0  0  0  0  0  0  0  0  0
    6.4260   -2.9100    0.0000 C   0  0  0  0  0  0  0  0  0  0  0  0
    3.8000   -1.3753    0.0000 C   0  0  0  0  0  0  0  0  0  0  0  0
    3.8000   -2.3753    0.0000 C   0  0  0  0  0  0  0  0  0  0  0  0
    2.9061   -0.8407    0.0000 C   0  0  0  0  0  0  0  0  0  0  0  0
    2.9061   -2.9100    0.0000 C   0  0  0  0  0  0  0  0  0  0  0  0
    2.0000   -1.3545    0.0000 C   0  0  0  0  0  0  0  0  0  0  0  0
    2.0000   -2.3961    0.0000 C   0  0  0  0  0  0  0  0  0  0  0  0
    6.9701   -0.1158    0.0000 H   0  0  0  0  0  0  0  0  0  0  0  0
    7.6499    1.1998    0.0000 H   0  0  0  0  0  0  0  0  0  0  0  0
    7.5101    1.6139    0.0000 H   0  0  0  0  0  0  0  0  0  0  0  0
    5.2855    1.5882    0.0000 H   0  0  0  0  0  0  0  0  0  0  0  0
    4.7816    2.8351    0.0000 H   0  0  0  0  0  0  0  0  0  0  0  0
    4.8741    2.0434    0.0000 H   0  0  0  0  0  0  0  0  0  0  0  0
    8.6271    0.8785    0.0000 H   0  0  0  0  0  0  0  0  0  0  0  0
    7.2163    3.0830    0.0000 H   0  0  0  0  0  0  0  0  0  0  0  0
    7.8678   -2.7082    0.0000 H   0  0  0  0  0  0  0  0  0  0  0  0
    4.6660   -3.4953    0.0000 H   0  0  0  0  0  0  0  0  0  0  0  0
    5.3255    3.9099    0.0000 H   0  0  0  0  0  0  0  0  0  0  0  0
    2.9132   -0.2207    0.0000 H   0  0  0  0  0  0  0  0  0  0  0  0
    2.9132   -3.5300    0.0000 H   0  0  0  0  0  0  0  0  0  0  0  0
    1.4643   -2.7082    0.0000 H   0  0  0  0  0  0  0  0  0  0  0  0
    1.4643   -1.0424    0.0000 H   0  0  0  0  0  0  0  0  0  0  0  0
  1 16  1  0  0  0  0
  1 20  1  0  0  0  0
  2 11  1  0  0  0  0
  2 14  1  0  0  0  0
 12  3  1  1  0  0  0
  3 32  1  0  0  0  0
 13  4  1  1  0  0  0
  4 33  1  0  0  0  0
  5 15  1  0  0  0  0
  5 36  1  0  0  0  0
  6 17  2  0  0  0  0
  7 19  2  0  0  0  0
 11  8  1  6  0  0  0
  8 16  1  0  0  0  0
  8 17  1  0  0  0  0
  9 17  1  0  0  0  0
  9 19  1  0  0  0  0
  9 34  1  0  0  0  0
 10 18  1  0  0  0  0
 10 21  1  0  0  0  0
 10 35  1  0  0  0  0
 11 12  1  0  0  0  0
 11 26  1  0  0  0  0
 12 13  1  0  0  0  0
 12 27  1  0  0  0  0
 13 14  1  0  0  0  0
 13 28  1  0  0  0  0
 14 15  1  6  0  0  0
 14 29  1  0  0  0  0
 15 30  1  0  0  0  0
 15 31  1  0  0  0  0
 16 18  2  0  0  0  0
 18 19  1  0  0  0  0
 20 21  1  0  0  0  0
 20 22  2  0  0  0  0
 21 23  2  0  0  0  0
 22 24  1  0  0  0  0
 22 37  1  0  0  0  0
 23 25  1  0  0  0  0
 23 38  1  0  0  0  0
 24 25  2  0  0  0  0
 24 40  1  0  0  0  0
 25 39  1  0  0  0  0
M  END
> <PUBCHEM_COMPOUND_CID>
506488
> <PUBCHEM_COMPOUND_CANONICALIZED>
1
> <PUBCHEM_CACTVS_COMPLEXITY>
628
> <PUBCHEM_CACTVS_HBOND_ACCEPTOR>
8
> <PUBCHEM_CACTVS_HBOND_DONOR>
5
> <PUBCHEM_CACTVS_ROTATABLE_BOND>
2
> <PUBCHEM_CACTVS_SUBSKEYS>
AAADccBzOABAAAAAAAAAAAAAAAAAASAAAAAwQIAAAAAAAACxAAAAHgQQCAAACBzh0AYxwYPABgiIACVSUACCAABhChAIiByIZMiLcCLgkbGeYAhvlyLbyEfwMAIAAAAAAAAAAQAAAAAAAAACAAAAAAAAAA==
> <PUBCHEM_IUPAC_OPENEYE_NAME>
1-[(2R,3R,4S,5R)-3,4-dihydroxy-5-(hydroxymethyl)tetrahydrofuran-2-yl]-5H-pyrimido[4,5-b][1,4]benzothiazine-2,4-dione
> <PUBCHEM_IUPAC_CAS_NAME>
1-[(2R,3R,4S,5R)-3,4-dihydroxy-5-(hydroxymethyl)-2-oxolanyl]-5H-pyrimido[4,5-b][1,4]benzothiazine-2,4-dione
> <PUBCHEM_IUPAC_NAME_MARKUP>
1-[(2<I>R</I>,3<I>R</I>,4<I>S</I>,5<I>R</I>)-3,4-dihydroxy-5-(hydroxymethyl)oxolan-2-yl]-5<I>H</I>-pyrimido[4,5-b][1,4]benzothiazine-2,4-dione
> <PUBCHEM_IUPAC_NAME>
1-[(2R,3R,4S,5R)-3,4-dihydroxy-5-(hydroxymethyl)oxolan-2-yl]-5H-pyrimido[4,5-b][1,4]benzothiazine-2,4-dione
> <PUBCHEM_IUPAC_SYSTEMATIC_NAME>
1-[(2R,3R,4S,5R)-5-(hydroxymethyl)-3,4-bis(oxidanyl)oxolan-2-yl]-5H-pyrimido[4,5-b][1,4]benzothiazine-2,4-dione
> <PUBCHEM_IUPAC_TRADITIONAL_NAME>
1-[(2R,3R,4S,5R)-3,4-dihydroxy-5-methylol-tetrahydrofuran-2-yl]-5H-pyrimido[4,5-b][1,4]benzothiazine-2,4-quinone
> <PUBCHEM_IUPAC_INCHI>
InChI=1S/C15H15N3O6S/c19-5-7-10(20)11(21)13(24-7)18-14-9(12(22)17-15(18)23)16-6-3-1-2-4-8(6)25-14/h1-4,7,10-11,13,16,19-21H,5H2,(H,17,22,23)/t7-,10-,11-,13-/m1/s1
> <PUBCHEM_IUPAC_INCHIKEY>
GIZBWIAUOXRPEV-GDECHXLSSA-N
> <PUBCHEM_XLOGP3_AA>
-0.2
> <PUBCHEM_EXACT_MASS>
365.06815638
> <PUBCHEM_MOLECULAR_FORMULA>
C15H15N3O6S
> <PUBCHEM_MOLECULAR_WEIGHT>
365.4
> <PUBCHEM_OPENEYE_CAN_SMILES>
C1=CC=C2C(=C1)NC3=C(S2)N(C(=O)NC3=O)C4C(C(C(O4)CO)O)O
> <PUBCHEM_OPENEYE_ISO_SMILES>
C1=CC=C2C(=C1)NC3=C(S2)N(C(=O)NC3=O)[C@H]4[C@@H]([C@@H]([C@H](O4)CO)O)O
> <PUBCHEM_CACTVS_TPSA>
157
> <PUBCHEM_MONOISOTOPIC_WEIGHT>
365.06815638
> <PUBCHEM_TOTAL_CHARGE>
0
> <PUBCHEM_HEAVY_ATOM_COUNT>
25
> <PUBCHEM_ATOM_DEF_STEREO_COUNT>
4
> <PUBCHEM_ATOM_UDEF_STEREO_COUNT>
0
> <PUBCHEM_BOND_DEF_STEREO_COUNT>
0
> <PUBCHEM_BOND_UDEF_STEREO_COUNT>
0
> <PUBCHEM_ISOTOPIC_ATOM_COUNT>
0
> <PUBCHEM_COMPONENT_COUNT>
1
> <PUBCHEM_CACTVS_TAUTO_COUNT>
-1
> <PUBCHEM_COORDINATE_TYPE>
1
5
255
> <PUBCHEM_BONDANNOTATIONS>
14  15  6
16  18  8
18  19  8
20  21  8
20  22  8
21  23  8
22  24  8
23  25  8
24  25  8
12  3  5
13  4  5
11  8  6
8  16  8
8  17  8
9  17  8
9  19  8
$$$$
