506490
  -OEChem-10302200282D
 34 35  0     1  0  0  0  0  0999 V2000
    3.6942   -0.9766    0.0000 S   0  0  0  0  0  0  0  0  0  0  0  0
    2.9511   -1.6458    0.0000 S   0  0  0  0  0  0  0  0  0  0  0  0
    6.2633   -1.2857    0.0000 O   0  0  0  0  0  0  0  0  0  0  0  0
    4.3665   -3.0457    0.0000 O   0  0  0  0  0  0  0  0  0  0  0  0
    7.5366   -2.9412    0.0000 O   0  0  0  0  0  0  0  0  0  0  0  0
    7.1863    0.3021    0.0000 O   0  0  0  0  0  0  0  0  0  0  0  0
    5.4543    0.3021    0.0000 N   0  0  0  0  0  0  0  0  0  0  0  0
    6.3203    1.8021    0.0000 N   0  0  0  0  0  0  0  0  0  0  0  0
    5.4543    3.3021    0.0000 N   0  0  0  0  0  0  0  0  0  0  0  0
    4.6453   -1.2857    0.0000 C   0  0  2  0  0  0  0  0  0  0  0  0
    4.9543   -2.2367    0.0000 C   0  0  1  0  0  0  0  0  0  0  0  0
    5.4543   -0.6979    0.0000 C   0  0  1  0  0  0  0  0  0  0  0  0
    5.9543   -2.2367    0.0000 C   0  0  1  0  0  0  0  0  0  0  0  0
    6.5421   -3.0457    0.0000 C   0  0  0  0  0  0  0  0  0  0  0  0
    4.5883    0.8021    0.0000 C   0  0  0  0  0  0  0  0  0  0  0  0
    6.3203    0.8021    0.0000 C   0  0  0  0  0  0  0  0  0  0  0  0
    4.5883    1.8021    0.0000 C   0  0  0  0  0  0  0  0  0  0  0  0
    5.4543    2.3021    0.0000 C   0  0  0  0  0  0  0  0  0  0  0  0
    2.0000   -1.3368    0.0000 C   0  0  0  0  0  0  0  0  0  0  0  0
    4.5483   -0.6733    0.0000 H   0  0  0  0  0  0  0  0  0  0  0  0
    4.3419   -2.1397    0.0000 H   0  0  0  0  0  0  0  0  0  0  0  0
    4.9018   -0.4164    0.0000 H   0  0  0  0  0  0  0  0  0  0  0  0
    6.5666   -2.1397    0.0000 H   0  0  0  0  0  0  0  0  0  0  0  0
    5.9848   -3.3175    0.0000 H   0  0  0  0  0  0  0  0  0  0  0  0
    6.7130   -3.6417    0.0000 H   0  0  0  0  0  0  0  0  0  0  0  0
    4.6187   -3.6121    0.0000 H   0  0  0  0  0  0  0  0  0  0  0  0
    4.0513    0.4921    0.0000 H   0  0  0  0  0  0  0  0  0  0  0  0
    7.9010   -3.4428    0.0000 H   0  0  0  0  0  0  0  0  0  0  0  0
    4.0513    2.1121    0.0000 H   0  0  0  0  0  0  0  0  0  0  0  0
    2.1916   -0.7471    0.0000 H   0  0  0  0  0  0  0  0  0  0  0  0
    1.4103   -1.1452    0.0000 H   0  0  0  0  0  0  0  0  0  0  0  0
    1.8084   -1.9264    0.0000 H   0  0  0  0  0  0  0  0  0  0  0  0
    4.9173    3.6121    0.0000 H   0  0  0  0  0  0  0  0  0  0  0  0
    5.9912    3.6121    0.0000 H   0  0  0  0  0  0  0  0  0  0  0  0
  1  2  1  0  0  0  0
 10  1  1  1  0  0  0
  2 19  1  0  0  0  0
  3 12  1  0  0  0  0
  3 13  1  0  0  0  0
 11  4  1  1  0  0  0
  4 26  1  0  0  0  0
  5 14  1  0  0  0  0
  5 28  1  0  0  0  0
  6 16  2  0  0  0  0
 12  7  1  6  0  0  0
  7 15  1  0  0  0  0
  7 16  1  0  0  0  0
  8 16  1  0  0  0  0
  8 18  2  0  0  0  0
  9 18  1  0  0  0  0
  9 33  1  0  0  0  0
  9 34  1  0  0  0  0
 10 11  1  0  0  0  0
 10 12  1  0  0  0  0
 10 20  1  0  0  0  0
 11 13  1  0  0  0  0
 11 21  1  0  0  0  0
 12 22  1  0  0  0  0
 13 14  1  6  0  0  0
 13 23  1  0  0  0  0
 14 24  1  0  0  0  0
 14 25  1  0  0  0  0
 15 17  2  0  0  0  0
 15 27  1  0  0  0  0
 17 18  1  0  0  0  0
 17 29  1  0  0  0  0
 19 30  1  0  0  0  0
 19 31  1  0  0  0  0
 19 32  1  0  0  0  0
M  END
> <PUBCHEM_COMPOUND_CID>
506490
> <PUBCHEM_COMPOUND_CANONICALIZED>
1
> <PUBCHEM_CACTVS_COMPLEXITY>
418
> <PUBCHEM_CACTVS_HBOND_ACCEPTOR>
6
> <PUBCHEM_CACTVS_HBOND_DONOR>
3
> <PUBCHEM_CACTVS_ROTATABLE_BOND>
4
> <PUBCHEM_CACTVS_SUBSKEYS>
AAADccBzOABgAAAAAAAAAAAAAAAAASAAAAAgAAAAAAAAAAAAAAAAHgQQCAAACBTlwAaDAANABgCoACJmdACAAAEAAgAIAAAYABCBEAIAgAAOQAAHFgIDAACwMAIAAAAAAAAAAAAAAAAAAAAAAAAAAAAAAA==
> <PUBCHEM_IUPAC_OPENEYE_NAME>
4-amino-1-[(2R,3R,4R,5R)-4-hydroxy-5-(hydroxymethyl)-3-(methyldisulfanyl)tetrahydrofuran-2-yl]pyrimidin-2-one
> <PUBCHEM_IUPAC_CAS_NAME>
4-amino-1-[(2R,3R,4R,5R)-4-hydroxy-5-(hydroxymethyl)-3-(methyldisulfanyl)-2-oxolanyl]-2-pyrimidinone
> <PUBCHEM_IUPAC_NAME_MARKUP>
4-amino-1-[(2<I>R</I>,3<I>R</I>,4<I>R</I>,5<I>R</I>)-4-hydroxy-5-(hydroxymethyl)-3-(methyldisulfanyl)oxolan-2-yl]pyrimidin-2-one
> <PUBCHEM_IUPAC_NAME>
4-amino-1-[(2R,3R,4R,5R)-4-hydroxy-5-(hydroxymethyl)-3-(methyldisulfanyl)oxolan-2-yl]pyrimidin-2-one
> <PUBCHEM_IUPAC_SYSTEMATIC_NAME>
4-azanyl-1-[(2R,3R,4R,5R)-5-(hydroxymethyl)-3-(methyldisulfanyl)-4-oxidanyl-oxolan-2-yl]pyrimidin-2-one
> <PUBCHEM_IUPAC_TRADITIONAL_NAME>
4-amino-1-[(2R,3R,4R,5R)-4-hydroxy-3-(methyldisulfanyl)-5-methylol-tetrahydrofuran-2-yl]pyrimidin-2-one
> <PUBCHEM_IUPAC_INCHI>
InChI=1S/C10H15N3O4S2/c1-18-19-8-7(15)5(4-14)17-9(8)13-3-2-6(11)12-10(13)16/h2-3,5,7-9,14-15H,4H2,1H3,(H2,11,12,16)/t5-,7-,8-,9-/m1/s1
> <PUBCHEM_IUPAC_INCHIKEY>
MADKCHBYCNOVES-ZOQUXTDFSA-N
> <PUBCHEM_XLOGP3>
-0.8
> <PUBCHEM_EXACT_MASS>
305.05039832
> <PUBCHEM_MOLECULAR_FORMULA>
C10H15N3O4S2
> <PUBCHEM_MOLECULAR_WEIGHT>
305.4
> <PUBCHEM_OPENEYE_CAN_SMILES>
CSSC1C(C(OC1N2C=CC(=NC2=O)N)CO)O
> <PUBCHEM_OPENEYE_ISO_SMILES>
CSS[C@@H]1[C@@H]([C@H](O[C@H]1N2C=CC(=NC2=O)N)CO)O
> <PUBCHEM_CACTVS_TPSA>
159
> <PUBCHEM_MONOISOTOPIC_WEIGHT>
305.05039832
> <PUBCHEM_TOTAL_CHARGE>
0
> <PUBCHEM_HEAVY_ATOM_COUNT>
19
> <PUBCHEM_ATOM_DEF_STEREO_COUNT>
4
> <PUBCHEM_ATOM_UDEF_STEREO_COUNT>
0
> <PUBCHEM_BOND_DEF_STEREO_COUNT>
0
> <PUBCHEM_BOND_UDEF_STEREO_COUNT>
0
> <PUBCHEM_ISOTOPIC_ATOM_COUNT>
0
> <PUBCHEM_COMPONENT_COUNT>
1
> <PUBCHEM_CACTVS_TAUTO_COUNT>
-1
> <PUBCHEM_COORDINATE_TYPE>
1
5
255
> <PUBCHEM_BONDANNOTATIONS>
10  1  5
13  14  6
15  17  8
17  18  8
11  4  5
12  7  6
7  15  8
7  16  8
8  16  8
8  18  8
$$$$
