506489
  -OEChem-10302200282D
 33 34  0     1  0  0  0  0  0999 V2000
    3.6942   -0.8216    0.0000 S   0  0  0  0  0  0  0  0  0  0  0  0
    2.9511   -1.4908    0.0000 S   0  0  0  0  0  0  0  0  0  0  0  0
    6.2633   -1.1307    0.0000 O   0  0  0  0  0  0  0  0  0  0  0  0
    4.3665   -2.8907    0.0000 O   0  0  0  0  0  0  0  0  0  0  0  0
    7.5366   -2.7862    0.0000 O   0  0  0  0  0  0  0  0  0  0  0  0
    7.1863    0.4571    0.0000 O   0  0  0  0  0  0  0  0  0  0  0  0
    5.4543    3.4571    0.0000 O   0  0  0  0  0  0  0  0  0  0  0  0
    5.4543    0.4571    0.0000 N   0  0  0  0  0  0  0  0  0  0  0  0
    6.3203    1.9571    0.0000 N   0  0  0  0  0  0  0  0  0  0  0  0
    4.6453   -1.1307    0.0000 C   0  0  2  0  0  0  0  0  0  0  0  0
    4.9543   -2.0817    0.0000 C   0  0  1  0  0  0  0  0  0  0  0  0
    5.4543   -0.5429    0.0000 C   0  0  1  0  0  0  0  0  0  0  0  0
    5.9543   -2.0817    0.0000 C   0  0  1  0  0  0  0  0  0  0  0  0
    6.5421   -2.8907    0.0000 C   0  0  0  0  0  0  0  0  0  0  0  0
    6.3203    0.9571    0.0000 C   0  0  0  0  0  0  0  0  0  0  0  0
    4.5883    0.9571    0.0000 C   0  0  0  0  0  0  0  0  0  0  0  0
    4.5883    1.9571    0.0000 C   0  0  0  0  0  0  0  0  0  0  0  0
    5.4543    2.4571    0.0000 C   0  0  0  0  0  0  0  0  0  0  0  0
    2.0000   -1.1818    0.0000 C   0  0  0  0  0  0  0  0  0  0  0  0
    4.5483   -0.5183    0.0000 H   0  0  0  0  0  0  0  0  0  0  0  0
    4.3419   -1.9847    0.0000 H   0  0  0  0  0  0  0  0  0  0  0  0
    4.9018   -0.2614    0.0000 H   0  0  0  0  0  0  0  0  0  0  0  0
    6.5666   -1.9847    0.0000 H   0  0  0  0  0  0  0  0  0  0  0  0
    5.9848   -3.1625    0.0000 H   0  0  0  0  0  0  0  0  0  0  0  0
    6.7130   -3.4867    0.0000 H   0  0  0  0  0  0  0  0  0  0  0  0
    4.6187   -3.4571    0.0000 H   0  0  0  0  0  0  0  0  0  0  0  0
    4.0513    0.6471    0.0000 H   0  0  0  0  0  0  0  0  0  0  0  0
    7.9010   -3.2878    0.0000 H   0  0  0  0  0  0  0  0  0  0  0  0
    6.8572    2.2671    0.0000 H   0  0  0  0  0  0  0  0  0  0  0  0
    4.0513    2.2671    0.0000 H   0  0  0  0  0  0  0  0  0  0  0  0
    2.1916   -0.5921    0.0000 H   0  0  0  0  0  0  0  0  0  0  0  0
    1.4103   -0.9902    0.0000 H   0  0  0  0  0  0  0  0  0  0  0  0
    1.8084   -1.7714    0.0000 H   0  0  0  0  0  0  0  0  0  0  0  0
  1  2  1  0  0  0  0
 10  1  1  1  0  0  0
  2 19  1  0  0  0  0
  3 12  1  0  0  0  0
  3 13  1  0  0  0  0
 11  4  1  1  0  0  0
  4 26  1  0  0  0  0
  5 14  1  0  0  0  0
  5 28  1  0  0  0  0
  6 15  2  0  0  0  0
  7 18  2  0  0  0  0
 12  8  1  6  0  0  0
  8 15  1  0  0  0  0
  8 16  1  0  0  0  0
  9 15  1  0  0  0  0
  9 18  1  0  0  0  0
  9 29  1  0  0  0  0
 10 11  1  0  0  0  0
 10 12  1  0  0  0  0
 10 20  1  0  0  0  0
 11 13  1  0  0  0  0
 11 21  1  0  0  0  0
 12 22  1  0  0  0  0
 13 14  1  6  0  0  0
 13 23  1  0  0  0  0
 14 24  1  0  0  0  0
 14 25  1  0  0  0  0
 16 17  2  0  0  0  0
 16 27  1  0  0  0  0
 17 18  1  0  0  0  0
 17 30  1  0  0  0  0
 19 31  1  0  0  0  0
 19 32  1  0  0  0  0
 19 33  1  0  0  0  0
M  END
> <PUBCHEM_COMPOUND_CID>
506489
> <PUBCHEM_COMPOUND_CANONICALIZED>
1
> <PUBCHEM_CACTVS_COMPLEXITY>
405
> <PUBCHEM_CACTVS_HBOND_ACCEPTOR>
7
> <PUBCHEM_CACTVS_HBOND_DONOR>
3
> <PUBCHEM_CACTVS_ROTATABLE_BOND>
4
> <PUBCHEM_CACTVS_SUBSKEYS>
AAADccBzOABgAAAAAAAAAAAAAAAAASAAAAAgAAAAAAAAAAAAAAAAHgQQCAAACBTlwAaDAAPABgCIACFWUACAAAAAAgAIAAAIAECBEAIAgAAOQAAPFyIDAMCwMAIAAAAAAAAAAAAAAAAAAAAAAAAAAAAAAA==
> <PUBCHEM_IUPAC_OPENEYE_NAME>
1-[(2R,3R,4R,5R)-4-hydroxy-5-(hydroxymethyl)-3-(methyldisulfanyl)tetrahydrofuran-2-yl]pyrimidine-2,4-dione
> <PUBCHEM_IUPAC_CAS_NAME>
1-[(2R,3R,4R,5R)-4-hydroxy-5-(hydroxymethyl)-3-(methyldisulfanyl)-2-oxolanyl]pyrimidine-2,4-dione
> <PUBCHEM_IUPAC_NAME_MARKUP>
1-[(2<I>R</I>,3<I>R</I>,4<I>R</I>,5<I>R</I>)-4-hydroxy-5-(hydroxymethyl)-3-(methyldisulfanyl)oxolan-2-yl]pyrimidine-2,4-dione
> <PUBCHEM_IUPAC_NAME>
1-[(2R,3R,4R,5R)-4-hydroxy-5-(hydroxymethyl)-3-(methyldisulfanyl)oxolan-2-yl]pyrimidine-2,4-dione
> <PUBCHEM_IUPAC_SYSTEMATIC_NAME>
1-[(2R,3R,4R,5R)-5-(hydroxymethyl)-3-(methyldisulfanyl)-4-oxidanyl-oxolan-2-yl]pyrimidine-2,4-dione
> <PUBCHEM_IUPAC_TRADITIONAL_NAME>
1-[(2R,3R,4R,5R)-4-hydroxy-3-(methyldisulfanyl)-5-methylol-tetrahydrofuran-2-yl]pyrimidine-2,4-quinone
> <PUBCHEM_IUPAC_INCHI>
InChI=1S/C10H14N2O5S2/c1-18-19-8-7(15)5(4-13)17-9(8)12-3-2-6(14)11-10(12)16/h2-3,5,7-9,13,15H,4H2,1H3,(H,11,14,16)/t5-,7-,8-,9-/m1/s1
> <PUBCHEM_IUPAC_INCHIKEY>
JBJDMPIZUGEBEO-ZOQUXTDFSA-N
> <PUBCHEM_XLOGP3>
-0.6
> <PUBCHEM_EXACT_MASS>
306.03441390
> <PUBCHEM_MOLECULAR_FORMULA>
C10H14N2O5S2
> <PUBCHEM_MOLECULAR_WEIGHT>
306.4
> <PUBCHEM_OPENEYE_CAN_SMILES>
CSSC1C(C(OC1N2C=CC(=O)NC2=O)CO)O
> <PUBCHEM_OPENEYE_ISO_SMILES>
CSS[C@@H]1[C@@H]([C@H](O[C@H]1N2C=CC(=O)NC2=O)CO)O
> <PUBCHEM_CACTVS_TPSA>
150
> <PUBCHEM_MONOISOTOPIC_WEIGHT>
306.03441390
> <PUBCHEM_TOTAL_CHARGE>
0
> <PUBCHEM_HEAVY_ATOM_COUNT>
19
> <PUBCHEM_ATOM_DEF_STEREO_COUNT>
4
> <PUBCHEM_ATOM_UDEF_STEREO_COUNT>
0
> <PUBCHEM_BOND_DEF_STEREO_COUNT>
0
> <PUBCHEM_BOND_UDEF_STEREO_COUNT>
0
> <PUBCHEM_ISOTOPIC_ATOM_COUNT>
0
> <PUBCHEM_COMPONENT_COUNT>
1
> <PUBCHEM_CACTVS_TAUTO_COUNT>
-1
> <PUBCHEM_COORDINATE_TYPE>
1
5
255
> <PUBCHEM_BONDANNOTATIONS>
10  1  5
13  14  6
16  17  8
17  18  8
11  4  5
12  8  6
8  15  8
8  16  8
9  15  8
9  18  8
$$$$
