506577
  -OEChem-10302200282D
119119  0     1  0  0  0  0  0999 V2000
    7.1962   -1.3100    0.0000 O   0  0  0  0  0  0  0  0  0  0  0  0
    8.0622   -0.8100    0.0000 O   0  0  0  0  0  0  0  0  0  0  0  0
   11.5263    0.1900    0.0000 O   0  0  0  0  0  0  0  0  0  0  0  0
    4.5981   -3.8100    0.0000 O   0  0  0  0  0  0  0  0  0  0  0  0
   12.3923    0.6900    0.0000 O   0  0  0  0  0  0  0  0  0  0  0  0
   14.9904    3.1900    0.0000 O   0  0  0  0  0  0  0  0  0  0  0  0
   14.9904    5.1900    0.0000 O   0  0  0  0  0  0  0  0  0  0  0  0
   13.2583    5.1900    0.0000 O   0  0  0  0  0  0  0  0  0  0  0  0
   16.7224   -0.8100    0.0000 O   0  0  0  0  0  0  0  0  0  0  0  0
   17.5885    0.6900    0.0000 O   0  0  0  0  0  0  0  0  0  0  0  0
   15.8564    3.6900    0.0000 O   0  0  0  0  0  0  0  0  0  0  0  0
    8.9282   -2.3100    0.0000 N   0  0  0  0  0  0  0  0  0  0  0  0
    6.3301   -2.8100    0.0000 N   0  0  0  0  0  0  0  0  0  0  0  0
    9.7942    0.1900    0.0000 N   0  0  0  0  0  0  0  0  0  0  0  0
   11.5263    2.1900    0.0000 N   0  0  0  0  0  0  0  0  0  0  0  0
   14.1244    1.6900    0.0000 N   0  0  0  0  0  0  0  0  0  0  0  0
   16.7224    2.1900    0.0000 N   0  0  0  0  0  0  0  0  0  0  0  0
    8.0622   -3.8100    0.0000 C   0  0  0  0  0  0  0  0  0  0  0  0
    7.1962   -4.3100    0.0000 C   0  0  0  0  0  0  0  0  0  0  0  0
    8.9282   -4.3100    0.0000 C   0  0  0  0  0  0  0  0  0  0  0  0
    8.0622   -2.8100    0.0000 C   0  0  1  0  0  0  0  0  0  0  0  0
    7.1962   -5.3100    0.0000 C   0  0  0  0  0  0  0  0  0  0  0  0
    8.9282   -5.3100    0.0000 C   0  0  0  0  0  0  0  0  0  0  0  0
    8.0622   -5.8100    0.0000 C   0  0  0  0  0  0  0  0  0  0  0  0
    7.1962   -2.3100    0.0000 C   0  0  0  0  0  0  0  0  0  0  0  0
    9.7942   -0.8100    0.0000 C   0  0  2  0  0  0  0  0  0  0  0  0
    8.9282   -1.3100    0.0000 C   0  0  0  0  0  0  0  0  0  0  0  0
   10.6603   -1.3100    0.0000 C   0  0  2  0  0  0  0  0  0  0  0  0
    5.4641   -2.3100    0.0000 C   0  0  1  0  0  0  0  0  0  0  0  0
   11.5263   -0.8100    0.0000 C   0  0  0  0  0  0  0  0  0  0  0  0
   10.6603   -2.3100    0.0000 C   0  0  0  0  0  0  0  0  0  0  0  0
    5.4641   -1.3100    0.0000 C   0  0  0  0  0  0  0  0  0  0  0  0
   10.6603    1.6900    0.0000 C   0  0  2  0  0  0  0  0  0  0  0  0
   10.6603    0.6900    0.0000 C   0  0  0  0  0  0  0  0  0  0  0  0
    4.5981   -2.8100    0.0000 C   0  0  0  0  0  0  0  0  0  0  0  0
    9.7942    2.1900    0.0000 C   0  0  0  0  0  0  0  0  0  0  0  0
   12.3923   -1.3100    0.0000 C   0  0  0  0  0  0  0  0  0  0  0  0
    9.7942    3.1900    0.0000 C   0  0  0  0  0  0  0  0  0  0  0  0
    3.7320   -2.3100    0.0000 C   0  0  0  0  0  0  0  0  0  0  0  0
    4.5981   -0.8100    0.0000 C   0  0  0  0  0  0  0  0  0  0  0  0
    2.8660   -2.8100    0.0000 C   0  0  0  0  0  0  0  0  0  0  0  0
    8.9282    3.6900    0.0000 C   0  0  0  0  0  0  0  0  0  0  0  0
   10.6603    3.6900    0.0000 C   0  0  0  0  0  0  0  0  0  0  0  0
   12.3923    1.6900    0.0000 C   0  0  0  0  0  0  0  0  0  0  0  0
   13.2583    2.1900    0.0000 C   0  0  1  0  0  0  0  0  0  0  0  0
   13.2583    3.1900    0.0000 C   0  0  0  0  0  0  0  0  0  0  0  0
    2.0000   -2.3100    0.0000 C   0  0  0  0  0  0  0  0  0  0  0  0
   14.1244    3.6900    0.0000 C   0  0  0  0  0  0  0  0  0  0  0  0
   14.9904    2.1900    0.0000 C   0  0  0  0  0  0  0  0  0  0  0  0
   15.8564    1.6900    0.0000 C   0  0  2  0  0  0  0  0  0  0  0  0
   14.1244    4.6900    0.0000 C   0  0  0  0  0  0  0  0  0  0  0  0
   15.8564    0.6900    0.0000 C   0  0  0  0  0  0  0  0  0  0  0  0
   16.7224    0.1900    0.0000 C   0  0  0  0  0  0  0  0  0  0  0  0
   16.7224    3.1900    0.0000 C   0  0  0  0  0  0  0  0  0  0  0  0
   17.5885    3.6900    0.0000 C   0  0  0  0  0  0  0  0  0  0  0  0
    7.5252   -3.5000    0.0000 H   0  0  0  0  0  0  0  0  0  0  0  0
    6.9841   -3.7274    0.0000 H   0  0  0  0  0  0  0  0  0  0  0  0
    6.5856   -4.4177    0.0000 H   0  0  0  0  0  0  0  0  0  0  0  0
    9.5388   -4.4177    0.0000 H   0  0  0  0  0  0  0  0  0  0  0  0
    9.1403   -3.7274    0.0000 H   0  0  0  0  0  0  0  0  0  0  0  0
    8.0622   -2.1900    0.0000 H   0  0  0  0  0  0  0  0  0  0  0  0
    6.5856   -5.2023    0.0000 H   0  0  0  0  0  0  0  0  0  0  0  0
    6.9841   -5.8926    0.0000 H   0  0  0  0  0  0  0  0  0  0  0  0
    9.1403   -5.8926    0.0000 H   0  0  0  0  0  0  0  0  0  0  0  0
    9.5388   -5.2023    0.0000 H   0  0  0  0  0  0  0  0  0  0  0  0
    7.6636   -6.2850    0.0000 H   0  0  0  0  0  0  0  0  0  0  0  0
    8.4607   -6.2850    0.0000 H   0  0  0  0  0  0  0  0  0  0  0  0
    9.4651   -2.6200    0.0000 H   0  0  0  0  0  0  0  0  0  0  0  0
    9.2573   -0.5000    0.0000 H   0  0  0  0  0  0  0  0  0  0  0  0
   11.1972   -1.6200    0.0000 H   0  0  0  0  0  0  0  0  0  0  0  0
    6.3301   -3.4300    0.0000 H   0  0  0  0  0  0  0  0  0  0  0  0
    5.4641   -2.9300    0.0000 H   0  0  0  0  0  0  0  0  0  0  0  0
    9.2573    0.5000    0.0000 H   0  0  0  0  0  0  0  0  0  0  0  0
   11.9248   -0.3351    0.0000 H   0  0  0  0  0  0  0  0  0  0  0  0
   11.1278   -0.3351    0.0000 H   0  0  0  0  0  0  0  0  0  0  0  0
   10.0403   -2.3100    0.0000 H   0  0  0  0  0  0  0  0  0  0  0  0
   10.6603   -2.9300    0.0000 H   0  0  0  0  0  0  0  0  0  0  0  0
   11.2803   -2.3100    0.0000 H   0  0  0  0  0  0  0  0  0  0  0  0
    6.0747   -1.4177    0.0000 H   0  0  0  0  0  0  0  0  0  0  0  0
    5.6762   -0.7274    0.0000 H   0  0  0  0  0  0  0  0  0  0  0  0
   11.1972    1.3800    0.0000 H   0  0  0  0  0  0  0  0  0  0  0  0
    9.1836    2.2977    0.0000 H   0  0  0  0  0  0  0  0  0  0  0  0
    9.5822    1.6074    0.0000 H   0  0  0  0  0  0  0  0  0  0  0  0
   12.0823   -1.8469    0.0000 H   0  0  0  0  0  0  0  0  0  0  0  0
   12.9292   -1.6200    0.0000 H   0  0  0  0  0  0  0  0  0  0  0  0
   12.7023   -0.7731    0.0000 H   0  0  0  0  0  0  0  0  0  0  0  0
    9.2573    2.8800    0.0000 H   0  0  0  0  0  0  0  0  0  0  0  0
    4.1306   -1.8350    0.0000 H   0  0  0  0  0  0  0  0  0  0  0  0
    3.3335   -1.8350    0.0000 H   0  0  0  0  0  0  0  0  0  0  0  0
    4.9081   -0.2731    0.0000 H   0  0  0  0  0  0  0  0  0  0  0  0
    4.0611   -0.5000    0.0000 H   0  0  0  0  0  0  0  0  0  0  0  0
    4.2881   -1.3469    0.0000 H   0  0  0  0  0  0  0  0  0  0  0  0
   11.5263    2.8100    0.0000 H   0  0  0  0  0  0  0  0  0  0  0  0
    2.4675   -3.2850    0.0000 H   0  0  0  0  0  0  0  0  0  0  0  0
    3.2646   -3.2850    0.0000 H   0  0  0  0  0  0  0  0  0  0  0  0
    9.2382    4.2269    0.0000 H   0  0  0  0  0  0  0  0  0  0  0  0
    8.3913    4.0000    0.0000 H   0  0  0  0  0  0  0  0  0  0  0  0
    8.6182    3.1531    0.0000 H   0  0  0  0  0  0  0  0  0  0  0  0
   10.9703    3.1531    0.0000 H   0  0  0  0  0  0  0  0  0  0  0  0
   11.1972    4.0000    0.0000 H   0  0  0  0  0  0  0  0  0  0  0  0
   10.3503    4.2269    0.0000 H   0  0  0  0  0  0  0  0  0  0  0  0
   13.7953    2.5000    0.0000 H   0  0  0  0  0  0  0  0  0  0  0  0
   13.0463    3.7726    0.0000 H   0  0  0  0  0  0  0  0  0  0  0  0
   12.6477    3.0823    0.0000 H   0  0  0  0  0  0  0  0  0  0  0  0
    2.3100   -1.7731    0.0000 H   0  0  0  0  0  0  0  0  0  0  0  0
    1.4631   -2.0000    0.0000 H   0  0  0  0  0  0  0  0  0  0  0  0
    1.6900   -2.8469    0.0000 H   0  0  0  0  0  0  0  0  0  0  0  0
   14.1244    1.0700    0.0000 H   0  0  0  0  0  0  0  0  0  0  0  0
   14.3364    3.1074    0.0000 H   0  0  0  0  0  0  0  0  0  0  0  0
   14.7349    3.7977    0.0000 H   0  0  0  0  0  0  0  0  0  0  0  0
   16.3933    1.3800    0.0000 H   0  0  0  0  0  0  0  0  0  0  0  0
   15.2458    0.7977    0.0000 H   0  0  0  0  0  0  0  0  0  0  0  0
   15.6444    0.1074    0.0000 H   0  0  0  0  0  0  0  0  0  0  0  0
   17.2594    1.8800    0.0000 H   0  0  0  0  0  0  0  0  0  0  0  0
   14.9904    5.8100    0.0000 H   0  0  0  0  0  0  0  0  0  0  0  0
   17.8985    3.1531    0.0000 H   0  0  0  0  0  0  0  0  0  0  0  0
   18.1254    4.0000    0.0000 H   0  0  0  0  0  0  0  0  0  0  0  0
   17.2785    4.2269    0.0000 H   0  0  0  0  0  0  0  0  0  0  0  0
   17.2594   -1.1200    0.0000 H   0  0  0  0  0  0  0  0  0  0  0  0
  1 25  2  0  0  0  0
  2 27  2  0  0  0  0
  3 34  2  0  0  0  0
  4 35  2  0  0  0  0
  5 44  2  0  0  0  0
  6 49  2  0  0  0  0
  7 51  1  0  0  0  0
  7115  1  0  0  0  0
  8 51  2  0  0  0  0
  9 53  1  0  0  0  0
  9119  1  0  0  0  0
 10 53  2  0  0  0  0
 11 54  2  0  0  0  0
 21 12  1  1  0  0  0
 12 27  1  0  0  0  0
 12 68  1  0  0  0  0
 13 25  1  0  0  0  0
 29 13  1  6  0  0  0
 13 71  1  0  0  0  0
 26 14  1  1  0  0  0
 14 34  1  0  0  0  0
 14 73  1  0  0  0  0
 33 15  1  6  0  0  0
 15 44  1  0  0  0  0
 15 93  1  0  0  0  0
 45 16  1  1  0  0  0
 16 49  1  0  0  0  0
 16108  1  0  0  0  0
 50 17  1  1  0  0  0
 17 54  1  0  0  0  0
 17114  1  0  0  0  0
 18 19  1  0  0  0  0
 18 20  1  0  0  0  0
 18 21  1  0  0  0  0
 18 56  1  0  0  0  0
 19 22  1  0  0  0  0
 19 57  1  0  0  0  0
 19 58  1  0  0  0  0
 20 23  1  0  0  0  0
 20 59  1  0  0  0  0
 20 60  1  0  0  0  0
 21 25  1  0  0  0  0
 21 61  1  0  0  0  0
 22 24  1  0  0  0  0
 22 62  1  0  0  0  0
 22 63  1  0  0  0  0
 23 24  1  0  0  0  0
 23 64  1  0  0  0  0
 23 65  1  0  0  0  0
 24 66  1  0  0  0  0
 24 67  1  0  0  0  0
 26 27  1  0  0  0  0
 26 28  1  0  0  0  0
 26 69  1  0  0  0  0
 28 30  1  0  0  0  0
 28 31  1  6  0  0  0
 28 70  1  0  0  0  0
 29 32  1  0  0  0  0
 29 35  1  0  0  0  0
 29 72  1  0  0  0  0
 30 37  1  0  0  0  0
 30 74  1  0  0  0  0
 30 75  1  0  0  0  0
 31 76  1  0  0  0  0
 31 77  1  0  0  0  0
 31 78  1  0  0  0  0
 32 40  1  0  0  0  0
 32 79  1  0  0  0  0
 32 80  1  0  0  0  0
 33 34  1  0  0  0  0
 33 36  1  0  0  0  0
 33 81  1  0  0  0  0
 35 39  1  0  0  0  0
 36 38  1  0  0  0  0
 36 82  1  0  0  0  0
 36 83  1  0  0  0  0
 37 84  1  0  0  0  0
 37 85  1  0  0  0  0
 37 86  1  0  0  0  0
 38 42  1  0  0  0  0
 38 43  1  0  0  0  0
 38 87  1  0  0  0  0
 39 41  1  0  0  0  0
 39 88  1  0  0  0  0
 39 89  1  0  0  0  0
 40 90  1  0  0  0  0
 40 91  1  0  0  0  0
 40 92  1  0  0  0  0
 41 47  1  0  0  0  0
 41 94  1  0  0  0  0
 41 95  1  0  0  0  0
 42 96  1  0  0  0  0
 42 97  1  0  0  0  0
 42 98  1  0  0  0  0
 43 99  1  0  0  0  0
 43100  1  0  0  0  0
 43101  1  0  0  0  0
 44 45  1  0  0  0  0
 45 46  1  0  0  0  0
 45102  1  0  0  0  0
 46 48  1  0  0  0  0
 46103  1  0  0  0  0
 46104  1  0  0  0  0
 47105  1  0  0  0  0
 47106  1  0  0  0  0
 47107  1  0  0  0  0
 48 51  1  0  0  0  0
 48109  1  0  0  0  0
 48110  1  0  0  0  0
 49 50  1  0  0  0  0
 50 52  1  0  0  0  0
 50111  1  0  0  0  0
 52 53  1  0  0  0  0
 52112  1  0  0  0  0
 52113  1  0  0  0  0
 54 55  1  0  0  0  0
 55116  1  0  0  0  0
 55117  1  0  0  0  0
 55118  1  0  0  0  0
M  END
> <PUBCHEM_COMPOUND_CID>
506577
> <PUBCHEM_COMPOUND_CANONICALIZED>
1
> <PUBCHEM_CACTVS_COMPLEXITY>
1350
> <PUBCHEM_CACTVS_HBOND_ACCEPTOR>
11
> <PUBCHEM_CACTVS_HBOND_DONOR>
8
> <PUBCHEM_CACTVS_ROTATABLE_BOND>
25
> <PUBCHEM_CACTVS_SUBSKEYS>
AAADcfB/vAAAAAAAAAAAAAAAAAAAAAAAAAAwAAAAAAAAAAAAAAAAHgAQCAAADSzBgAQCCALAAgAIAIGQGAAAAAAAAAAAAIGIAAAAQBoAgCAUQAAGFgCAAAG/n4KOAAAAAAAAAAAAAAAAAAAAAAAAAAAAAA==
> <PUBCHEM_IUPAC_OPENEYE_NAME>
(4R)-4-[[(2S)-2-acetamido-3-carboxy-propanoyl]amino]-5-[[(1S)-1-[[(1S,2S)-1-[[(1S)-1-cyclohexyl-2-[[(1S)-1-ethyl-2-oxo-pentyl]amino]-2-oxo-ethyl]carbamoyl]-2-methyl-butyl]carbamoyl]-3-methyl-butyl]amino]-5-oxo-pentanoic acid
> <PUBCHEM_IUPAC_CAS_NAME>
(4R)-4-[[(2S)-2-acetamido-3-carboxy-1-oxopropyl]amino]-5-[[(2S)-1-[[(2S,3S)-1-[[(1S)-1-cyclohexyl-2-oxo-2-[[(3S)-4-oxoheptan-3-yl]amino]ethyl]amino]-3-methyl-1-oxopentan-2-yl]amino]-4-methyl-1-oxopentan-2-yl]amino]-5-oxopentanoic acid
> <PUBCHEM_IUPAC_NAME_MARKUP>
(4<I>R</I>)-4-[[(2<I>S</I>)-2-acetamido-3-carboxypropanoyl]amino]-5-[[(2<I>S</I>)-1-[[(2<I>S</I>,3<I>S</I>)-1-[[(1<I>S</I>)-1-cyclohexyl-2-oxo-2-[[(3<I>S</I>)-4-oxoheptan-3-yl]amino]ethyl]amino]-3-methyl-1-oxopentan-2-yl]amino]-4-methyl-1-oxopentan-2-yl]amino]-5-oxopentanoic acid
> <PUBCHEM_IUPAC_NAME>
(4R)-4-[[(2S)-2-acetamido-3-carboxypropanoyl]amino]-5-[[(2S)-1-[[(2S,3S)-1-[[(1S)-1-cyclohexyl-2-oxo-2-[[(3S)-4-oxoheptan-3-yl]amino]ethyl]amino]-3-methyl-1-oxopentan-2-yl]amino]-4-methyl-1-oxopentan-2-yl]amino]-5-oxopentanoic acid
> <PUBCHEM_IUPAC_SYSTEMATIC_NAME>
(4R)-4-[[(2S)-2-acetamido-4-oxidanyl-4-oxidanylidene-butanoyl]amino]-5-[[(2S)-1-[[(2S,3S)-1-[[(1S)-1-cyclohexyl-2-oxidanylidene-2-[[(3S)-4-oxidanylideneheptan-3-yl]amino]ethyl]amino]-3-methyl-1-oxidanylidene-pentan-2-yl]amino]-4-methyl-1-oxidanylidene-pentan-2-yl]amino]-5-oxidanylidene-pentanoic acid
> <PUBCHEM_IUPAC_TRADITIONAL_NAME>
(4R)-4-[[(2S)-2-acetamido-3-carboxy-propanoyl]amino]-5-[[(1S)-1-[[(1S,2S)-1-[[(1S)-1-cyclohexyl-2-[[(1S)-1-ethyl-2-keto-pentyl]amino]-2-keto-ethyl]carbamoyl]-2-methyl-butyl]carbamoyl]-3-methyl-butyl]amino]-5-keto-valeric acid
> <PUBCHEM_IUPAC_INCHI>
InChI=1S/C38H64N6O11/c1-8-14-29(46)25(10-3)40-38(55)33(24-15-12-11-13-16-24)44-37(54)32(22(6)9-2)43-36(53)27(19-21(4)5)42-34(51)26(17-18-30(47)48)41-35(52)28(20-31(49)50)39-23(7)45/h21-22,24-28,32-33H,8-20H2,1-7H3,(H,39,45)(H,40,55)(H,41,52)(H,42,51)(H,43,53)(H,44,54)(H,47,48)(H,49,50)/t22-,25-,26+,27-,28-,32-,33-/m0/s1
> <PUBCHEM_IUPAC_INCHIKEY>
FCGUUSDQRONODY-BFPPUTGHSA-N
> <PUBCHEM_XLOGP3_AA>
3
> <PUBCHEM_EXACT_MASS>
780.46330688
> <PUBCHEM_MOLECULAR_FORMULA>
C38H64N6O11
> <PUBCHEM_MOLECULAR_WEIGHT>
780.9
> <PUBCHEM_OPENEYE_CAN_SMILES>
CCCC(=O)C(CC)NC(=O)C(C1CCCCC1)NC(=O)C(C(C)CC)NC(=O)C(CC(C)C)NC(=O)C(CCC(=O)O)NC(=O)C(CC(=O)O)NC(=O)C
> <PUBCHEM_OPENEYE_ISO_SMILES>
CCCC(=O)[C@H](CC)NC(=O)[C@H](C1CCCCC1)NC(=O)[C@H]([C@@H](C)CC)NC(=O)[C@H](CC(C)C)NC(=O)[C@@H](CCC(=O)O)NC(=O)[C@H](CC(=O)O)NC(=O)C
> <PUBCHEM_CACTVS_TPSA>
266
> <PUBCHEM_MONOISOTOPIC_WEIGHT>
780.46330688
> <PUBCHEM_TOTAL_CHARGE>
0
> <PUBCHEM_HEAVY_ATOM_COUNT>
55
> <PUBCHEM_ATOM_DEF_STEREO_COUNT>
7
> <PUBCHEM_ATOM_UDEF_STEREO_COUNT>
0
> <PUBCHEM_BOND_DEF_STEREO_COUNT>
0
> <PUBCHEM_BOND_UDEF_STEREO_COUNT>
0
> <PUBCHEM_ISOTOPIC_ATOM_COUNT>
0
> <PUBCHEM_COMPONENT_COUNT>
1
> <PUBCHEM_CACTVS_TAUTO_COUNT>
-1
> <PUBCHEM_COORDINATE_TYPE>
1
5
255
> <PUBCHEM_BONDANNOTATIONS>
21  12  5
29  13  6
26  14  5
33  15  6
45  16  5
50  17  5
28  31  6
$$$$
