506574
  -OEChem-10302200282D
126127  0     1  0  0  0  0  0999 V2000
    8.9282   -1.3100    0.0000 O   0  0  0  0  0  0  0  0  0  0  0  0
    9.7942   -0.8100    0.0000 O   0  0  0  0  0  0  0  0  0  0  0  0
    6.3301   -3.8100    0.0000 O   0  0  0  0  0  0  0  0  0  0  0  0
   13.2583    0.1900    0.0000 O   0  0  0  0  0  0  0  0  0  0  0  0
   14.1244    0.6900    0.0000 O   0  0  0  0  0  0  0  0  0  0  0  0
   16.7224    3.1900    0.0000 O   0  0  0  0  0  0  0  0  0  0  0  0
   16.7224    5.1900    0.0000 O   0  0  0  0  0  0  0  0  0  0  0  0
   14.9904    5.1900    0.0000 O   0  0  0  0  0  0  0  0  0  0  0  0
   18.4545   -0.8100    0.0000 O   0  0  0  0  0  0  0  0  0  0  0  0
   19.3205    0.6900    0.0000 O   0  0  0  0  0  0  0  0  0  0  0  0
   17.5885    3.6900    0.0000 O   0  0  0  0  0  0  0  0  0  0  0  0
   10.6603   -2.3100    0.0000 N   0  0  0  0  0  0  0  0  0  0  0  0
    8.0622   -2.8100    0.0000 N   0  0  0  0  0  0  0  0  0  0  0  0
   11.5263    0.1900    0.0000 N   0  0  0  0  0  0  0  0  0  0  0  0
   13.2583    2.1900    0.0000 N   0  0  0  0  0  0  0  0  0  0  0  0
   15.8564    1.6900    0.0000 N   0  0  0  0  0  0  0  0  0  0  0  0
   18.4545    2.1900    0.0000 N   0  0  0  0  0  0  0  0  0  0  0  0
    9.7942   -3.8100    0.0000 C   0  0  0  0  0  0  0  0  0  0  0  0
    8.9282   -4.3100    0.0000 C   0  0  0  0  0  0  0  0  0  0  0  0
   10.6603   -4.3100    0.0000 C   0  0  0  0  0  0  0  0  0  0  0  0
    9.7942   -2.8100    0.0000 C   0  0  1  0  0  0  0  0  0  0  0  0
    8.9282   -5.3100    0.0000 C   0  0  0  0  0  0  0  0  0  0  0  0
   10.6603   -5.3100    0.0000 C   0  0  0  0  0  0  0  0  0  0  0  0
    9.7942   -5.8100    0.0000 C   0  0  0  0  0  0  0  0  0  0  0  0
    8.9282   -2.3100    0.0000 C   0  0  0  0  0  0  0  0  0  0  0  0
   11.5263   -0.8100    0.0000 C   0  0  2  0  0  0  0  0  0  0  0  0
   10.6603   -1.3100    0.0000 C   0  0  0  0  0  0  0  0  0  0  0  0
   12.3923   -1.3100    0.0000 C   0  0  2  0  0  0  0  0  0  0  0  0
    7.1962   -2.3100    0.0000 C   0  0  1  0  0  0  0  0  0  0  0  0
   13.2583   -0.8100    0.0000 C   0  0  0  0  0  0  0  0  0  0  0  0
   12.3923   -2.3100    0.0000 C   0  0  0  0  0  0  0  0  0  0  0  0
    7.1962   -1.3100    0.0000 C   0  0  0  0  0  0  0  0  0  0  0  0
    6.3301   -2.8100    0.0000 C   0  0  0  0  0  0  0  0  0  0  0  0
   12.3923    0.6900    0.0000 C   0  0  0  0  0  0  0  0  0  0  0  0
   12.3923    1.6900    0.0000 C   0  0  2  0  0  0  0  0  0  0  0  0
   14.1244   -1.3100    0.0000 C   0  0  0  0  0  0  0  0  0  0  0  0
   11.5263    2.1900    0.0000 C   0  0  0  0  0  0  0  0  0  0  0  0
    5.4641   -2.3100    0.0000 C   0  0  0  0  0  0  0  0  0  0  0  0
   11.5263    3.1900    0.0000 C   0  0  0  0  0  0  0  0  0  0  0  0
    6.3301   -0.8100    0.0000 C   0  0  0  0  0  0  0  0  0  0  0  0
    4.5981   -2.8100    0.0000 C   0  0  0  0  0  0  0  0  0  0  0  0
   10.6603    3.6900    0.0000 C   0  0  0  0  0  0  0  0  0  0  0  0
   12.3923    3.6900    0.0000 C   0  0  0  0  0  0  0  0  0  0  0  0
   14.1244    1.6900    0.0000 C   0  0  0  0  0  0  0  0  0  0  0  0
   14.9904    2.1900    0.0000 C   0  0  1  0  0  0  0  0  0  0  0  0
    3.7320   -2.3100    0.0000 C   0  0  0  0  0  0  0  0  0  0  0  0
   14.9904    3.1900    0.0000 C   0  0  0  0  0  0  0  0  0  0  0  0
   15.8564    3.6900    0.0000 C   0  0  0  0  0  0  0  0  0  0  0  0
    3.7320   -1.3100    0.0000 C   0  0  0  0  0  0  0  0  0  0  0  0
    2.8660   -2.8100    0.0000 C   0  0  0  0  0  0  0  0  0  0  0  0
   16.7224    2.1900    0.0000 C   0  0  0  0  0  0  0  0  0  0  0  0
   17.5885    1.6900    0.0000 C   0  0  2  0  0  0  0  0  0  0  0  0
    2.8660   -0.8100    0.0000 C   0  0  0  0  0  0  0  0  0  0  0  0
    2.0000   -2.3100    0.0000 C   0  0  0  0  0  0  0  0  0  0  0  0
   15.8564    4.6900    0.0000 C   0  0  0  0  0  0  0  0  0  0  0  0
   17.5885    0.6900    0.0000 C   0  0  0  0  0  0  0  0  0  0  0  0
    2.0000   -1.3100    0.0000 C   0  0  0  0  0  0  0  0  0  0  0  0
   18.4545    0.1900    0.0000 C   0  0  0  0  0  0  0  0  0  0  0  0
   18.4545    3.1900    0.0000 C   0  0  0  0  0  0  0  0  0  0  0  0
   19.3205    3.6900    0.0000 C   0  0  0  0  0  0  0  0  0  0  0  0
    9.2573   -3.5000    0.0000 H   0  0  0  0  0  0  0  0  0  0  0  0
    8.7162   -3.7274    0.0000 H   0  0  0  0  0  0  0  0  0  0  0  0
    8.3176   -4.4177    0.0000 H   0  0  0  0  0  0  0  0  0  0  0  0
   11.2708   -4.4177    0.0000 H   0  0  0  0  0  0  0  0  0  0  0  0
   10.8723   -3.7274    0.0000 H   0  0  0  0  0  0  0  0  0  0  0  0
    9.7942   -2.1900    0.0000 H   0  0  0  0  0  0  0  0  0  0  0  0
    8.3176   -5.2023    0.0000 H   0  0  0  0  0  0  0  0  0  0  0  0
    8.7162   -5.8926    0.0000 H   0  0  0  0  0  0  0  0  0  0  0  0
   10.8723   -5.8926    0.0000 H   0  0  0  0  0  0  0  0  0  0  0  0
   11.2708   -5.2023    0.0000 H   0  0  0  0  0  0  0  0  0  0  0  0
    9.3957   -6.2850    0.0000 H   0  0  0  0  0  0  0  0  0  0  0  0
   10.1928   -6.2850    0.0000 H   0  0  0  0  0  0  0  0  0  0  0  0
   11.1972   -2.6200    0.0000 H   0  0  0  0  0  0  0  0  0  0  0  0
   12.0632   -0.5000    0.0000 H   0  0  0  0  0  0  0  0  0  0  0  0
   11.8554   -1.6200    0.0000 H   0  0  0  0  0  0  0  0  0  0  0  0
    8.0622   -3.4300    0.0000 H   0  0  0  0  0  0  0  0  0  0  0  0
    7.7331   -2.0000    0.0000 H   0  0  0  0  0  0  0  0  0  0  0  0
   10.9893    0.5000    0.0000 H   0  0  0  0  0  0  0  0  0  0  0  0
   13.6569   -0.3351    0.0000 H   0  0  0  0  0  0  0  0  0  0  0  0
   12.8598   -0.3351    0.0000 H   0  0  0  0  0  0  0  0  0  0  0  0
   11.7723   -2.3100    0.0000 H   0  0  0  0  0  0  0  0  0  0  0  0
   12.3923   -2.9300    0.0000 H   0  0  0  0  0  0  0  0  0  0  0  0
   13.0123   -2.3100    0.0000 H   0  0  0  0  0  0  0  0  0  0  0  0
    7.8067   -1.4177    0.0000 H   0  0  0  0  0  0  0  0  0  0  0  0
    7.4082   -0.7274    0.0000 H   0  0  0  0  0  0  0  0  0  0  0  0
   12.3923    2.3100    0.0000 H   0  0  0  0  0  0  0  0  0  0  0  0
   13.8144   -1.8469    0.0000 H   0  0  0  0  0  0  0  0  0  0  0  0
   14.6613   -1.6200    0.0000 H   0  0  0  0  0  0  0  0  0  0  0  0
   14.4344   -0.7731    0.0000 H   0  0  0  0  0  0  0  0  0  0  0  0
   10.9157    2.2977    0.0000 H   0  0  0  0  0  0  0  0  0  0  0  0
   11.3142    1.6074    0.0000 H   0  0  0  0  0  0  0  0  0  0  0  0
    5.8626   -1.8350    0.0000 H   0  0  0  0  0  0  0  0  0  0  0  0
    5.0656   -1.8350    0.0000 H   0  0  0  0  0  0  0  0  0  0  0  0
   12.0632    2.8800    0.0000 H   0  0  0  0  0  0  0  0  0  0  0  0
    6.6401   -0.2731    0.0000 H   0  0  0  0  0  0  0  0  0  0  0  0
    5.7932   -0.5000    0.0000 H   0  0  0  0  0  0  0  0  0  0  0  0
    6.0201   -1.3469    0.0000 H   0  0  0  0  0  0  0  0  0  0  0  0
   13.2583    2.8100    0.0000 H   0  0  0  0  0  0  0  0  0  0  0  0
    4.1996   -3.2850    0.0000 H   0  0  0  0  0  0  0  0  0  0  0  0
    4.9966   -3.2850    0.0000 H   0  0  0  0  0  0  0  0  0  0  0  0
   10.9703    4.2269    0.0000 H   0  0  0  0  0  0  0  0  0  0  0  0
   10.1233    4.0000    0.0000 H   0  0  0  0  0  0  0  0  0  0  0  0
   10.3503    3.1531    0.0000 H   0  0  0  0  0  0  0  0  0  0  0  0
   12.7023    3.1531    0.0000 H   0  0  0  0  0  0  0  0  0  0  0  0
   12.9292    4.0000    0.0000 H   0  0  0  0  0  0  0  0  0  0  0  0
   12.0823    4.2269    0.0000 H   0  0  0  0  0  0  0  0  0  0  0  0
   15.5273    2.5000    0.0000 H   0  0  0  0  0  0  0  0  0  0  0  0
   14.7783    3.7726    0.0000 H   0  0  0  0  0  0  0  0  0  0  0  0
   14.3798    3.0823    0.0000 H   0  0  0  0  0  0  0  0  0  0  0  0
   15.8564    1.0700    0.0000 H   0  0  0  0  0  0  0  0  0  0  0  0
   16.0685    3.1074    0.0000 H   0  0  0  0  0  0  0  0  0  0  0  0
   16.4670    3.7977    0.0000 H   0  0  0  0  0  0  0  0  0  0  0  0
    4.2690   -1.0000    0.0000 H   0  0  0  0  0  0  0  0  0  0  0  0
    2.8660   -3.4300    0.0000 H   0  0  0  0  0  0  0  0  0  0  0  0
   17.5885    2.3100    0.0000 H   0  0  0  0  0  0  0  0  0  0  0  0
    2.8660   -0.1900    0.0000 H   0  0  0  0  0  0  0  0  0  0  0  0
    1.4631   -2.6200    0.0000 H   0  0  0  0  0  0  0  0  0  0  0  0
   16.9779    0.7977    0.0000 H   0  0  0  0  0  0  0  0  0  0  0  0
   17.3764    0.1074    0.0000 H   0  0  0  0  0  0  0  0  0  0  0  0
    1.4631   -1.0000    0.0000 H   0  0  0  0  0  0  0  0  0  0  0  0
   18.9914    1.8800    0.0000 H   0  0  0  0  0  0  0  0  0  0  0  0
   16.7224    5.8100    0.0000 H   0  0  0  0  0  0  0  0  0  0  0  0
   19.6305    3.1531    0.0000 H   0  0  0  0  0  0  0  0  0  0  0  0
   19.8574    4.0000    0.0000 H   0  0  0  0  0  0  0  0  0  0  0  0
   19.0105    4.2269    0.0000 H   0  0  0  0  0  0  0  0  0  0  0  0
   18.9914   -1.1200    0.0000 H   0  0  0  0  0  0  0  0  0  0  0  0
  1 25  2  0  0  0  0
  2 27  2  0  0  0  0
  3 33  2  0  0  0  0
  4 34  2  0  0  0  0
  5 44  2  0  0  0  0
  6 51  2  0  0  0  0
  7 55  1  0  0  0  0
  7122  1  0  0  0  0
  8 55  2  0  0  0  0
  9 58  1  0  0  0  0
  9126  1  0  0  0  0
 10 58  2  0  0  0  0
 11 59  2  0  0  0  0
 21 12  1  1  0  0  0
 12 27  1  0  0  0  0
 12 73  1  0  0  0  0
 13 25  1  0  0  0  0
 29 13  1  6  0  0  0
 13 76  1  0  0  0  0
 26 14  1  1  0  0  0
 14 34  1  0  0  0  0
 14 78  1  0  0  0  0
 35 15  1  6  0  0  0
 15 44  1  0  0  0  0
 15 98  1  0  0  0  0
 45 16  1  1  0  0  0
 16 51  1  0  0  0  0
 16110  1  0  0  0  0
 52 17  1  1  0  0  0
 17 59  1  0  0  0  0
 17121  1  0  0  0  0
 18 19  1  0  0  0  0
 18 20  1  0  0  0  0
 18 21  1  0  0  0  0
 18 61  1  0  0  0  0
 19 22  1  0  0  0  0
 19 62  1  0  0  0  0
 19 63  1  0  0  0  0
 20 23  1  0  0  0  0
 20 64  1  0  0  0  0
 20 65  1  0  0  0  0
 21 25  1  0  0  0  0
 21 66  1  0  0  0  0
 22 24  1  0  0  0  0
 22 67  1  0  0  0  0
 22 68  1  0  0  0  0
 23 24  1  0  0  0  0
 23 69  1  0  0  0  0
 23 70  1  0  0  0  0
 24 71  1  0  0  0  0
 24 72  1  0  0  0  0
 26 27  1  0  0  0  0
 26 28  1  0  0  0  0
 26 74  1  0  0  0  0
 28 30  1  0  0  0  0
 28 31  1  6  0  0  0
 28 75  1  0  0  0  0
 29 32  1  0  0  0  0
 29 33  1  0  0  0  0
 29 77  1  0  0  0  0
 30 36  1  0  0  0  0
 30 79  1  0  0  0  0
 30 80  1  0  0  0  0
 31 81  1  0  0  0  0
 31 82  1  0  0  0  0
 31 83  1  0  0  0  0
 32 40  1  0  0  0  0
 32 84  1  0  0  0  0
 32 85  1  0  0  0  0
 33 38  1  0  0  0  0
 34 35  1  0  0  0  0
 35 37  1  0  0  0  0
 35 86  1  0  0  0  0
 36 87  1  0  0  0  0
 36 88  1  0  0  0  0
 36 89  1  0  0  0  0
 37 39  1  0  0  0  0
 37 90  1  0  0  0  0
 37 91  1  0  0  0  0
 38 41  1  0  0  0  0
 38 92  1  0  0  0  0
 38 93  1  0  0  0  0
 39 42  1  0  0  0  0
 39 43  1  0  0  0  0
 39 94  1  0  0  0  0
 40 95  1  0  0  0  0
 40 96  1  0  0  0  0
 40 97  1  0  0  0  0
 41 46  1  0  0  0  0
 41 99  1  0  0  0  0
 41100  1  0  0  0  0
 42101  1  0  0  0  0
 42102  1  0  0  0  0
 42103  1  0  0  0  0
 43104  1  0  0  0  0
 43105  1  0  0  0  0
 43106  1  0  0  0  0
 44 45  1  0  0  0  0
 45 47  1  0  0  0  0
 45107  1  0  0  0  0
 46 49  2  0  0  0  0
 46 50  1  0  0  0  0
 47 48  1  0  0  0  0
 47108  1  0  0  0  0
 47109  1  0  0  0  0
 48 55  1  0  0  0  0
 48111  1  0  0  0  0
 48112  1  0  0  0  0
 49 53  1  0  0  0  0
 49113  1  0  0  0  0
 50 54  2  0  0  0  0
 50114  1  0  0  0  0
 51 52  1  0  0  0  0
 52 56  1  0  0  0  0
 52115  1  0  0  0  0
 53 57  2  0  0  0  0
 53116  1  0  0  0  0
 54 57  1  0  0  0  0
 54117  1  0  0  0  0
 56 58  1  0  0  0  0
 56118  1  0  0  0  0
 56119  1  0  0  0  0
 57120  1  0  0  0  0
 59 60  1  0  0  0  0
 60123  1  0  0  0  0
 60124  1  0  0  0  0
 60125  1  0  0  0  0
M  END
> <PUBCHEM_COMPOUND_CID>
506574
> <PUBCHEM_COMPOUND_CANONICALIZED>
1
> <PUBCHEM_CACTVS_COMPLEXITY>
1480
> <PUBCHEM_CACTVS_HBOND_ACCEPTOR>
11
> <PUBCHEM_CACTVS_HBOND_DONOR>
8
> <PUBCHEM_CACTVS_ROTATABLE_BOND>
26
> <PUBCHEM_CACTVS_SUBSKEYS>
AAADcfB/vAAAAAAAAAAAAAAAAAAAAAAAAAAwYAAAAAAAAAABAAAAHgAQCAAADSzBmAQyCILAAgCIAqHSGAACAAAgAAAIiIGIAIgIYDqAkTCUYAAmlgCIiAe/n8KOAAAAAAAAAAAAAAAAAAAAAAAAAAAAAA==
> <PUBCHEM_IUPAC_OPENEYE_NAME>
(4R)-4-[[(2S)-2-acetamido-3-carboxy-propanoyl]amino]-5-[[(1S)-1-[[(1S,2S)-1-[[(1S)-1-cyclohexyl-2-[[(1S)-1-ethyl-2-oxo-4-phenyl-butyl]amino]-2-oxo-ethyl]carbamoyl]-2-methyl-butyl]carbamoyl]-3-methyl-butyl]amino]-5-oxo-pentanoic acid
> <PUBCHEM_IUPAC_CAS_NAME>
(4R)-4-[[(2S)-2-acetamido-3-carboxy-1-oxopropyl]amino]-5-[[(2S)-1-[[(2S,3S)-1-[[(1S)-1-cyclohexyl-2-oxo-2-[[(3S)-4-oxo-6-phenylhexan-3-yl]amino]ethyl]amino]-3-methyl-1-oxopentan-2-yl]amino]-4-methyl-1-oxopentan-2-yl]amino]-5-oxopentanoic acid
> <PUBCHEM_IUPAC_NAME_MARKUP>
(4<I>R</I>)-4-[[(2<I>S</I>)-2-acetamido-3-carboxypropanoyl]amino]-5-[[(2<I>S</I>)-1-[[(2<I>S</I>,3<I>S</I>)-1-[[(1<I>S</I>)-1-cyclohexyl-2-oxo-2-[[(3<I>S</I>)-4-oxo-6-phenylhexan-3-yl]amino]ethyl]amino]-3-methyl-1-oxopentan-2-yl]amino]-4-methyl-1-oxopentan-2-yl]amino]-5-oxopentanoic acid
> <PUBCHEM_IUPAC_NAME>
(4R)-4-[[(2S)-2-acetamido-3-carboxypropanoyl]amino]-5-[[(2S)-1-[[(2S,3S)-1-[[(1S)-1-cyclohexyl-2-oxo-2-[[(3S)-4-oxo-6-phenylhexan-3-yl]amino]ethyl]amino]-3-methyl-1-oxopentan-2-yl]amino]-4-methyl-1-oxopentan-2-yl]amino]-5-oxopentanoic acid
> <PUBCHEM_IUPAC_SYSTEMATIC_NAME>
(4R)-4-[[(2S)-2-acetamido-4-oxidanyl-4-oxidanylidene-butanoyl]amino]-5-[[(2S)-1-[[(2S,3S)-1-[[(1S)-1-cyclohexyl-2-oxidanylidene-2-[[(3S)-4-oxidanylidene-6-phenyl-hexan-3-yl]amino]ethyl]amino]-3-methyl-1-oxidanylidene-pentan-2-yl]amino]-4-methyl-1-oxidanylidene-pentan-2-yl]amino]-5-oxidanylidene-pentanoic acid
> <PUBCHEM_IUPAC_TRADITIONAL_NAME>
(4R)-4-[[(2S)-2-acetamido-3-carboxy-propanoyl]amino]-5-[[(1S)-1-[[(1S,2S)-1-[[(1S)-1-cyclohexyl-2-[[(1S)-1-ethyl-2-keto-4-phenyl-butyl]amino]-2-keto-ethyl]carbamoyl]-2-methyl-butyl]carbamoyl]-3-methyl-butyl]amino]-5-keto-valeric acid
> <PUBCHEM_IUPAC_INCHI>
InChI=1S/C43H66N6O11/c1-7-26(5)37(42(59)49-38(29-17-13-10-14-18-29)43(60)45-30(8-2)34(51)21-19-28-15-11-9-12-16-28)48-41(58)32(23-25(3)4)47-39(56)31(20-22-35(52)53)46-40(57)33(24-36(54)55)44-27(6)50/h9,11-12,15-16,25-26,29-33,37-38H,7-8,10,13-14,17-24H2,1-6H3,(H,44,50)(H,45,60)(H,46,57)(H,47,56)(H,48,58)(H,49,59)(H,52,53)(H,54,55)/t26-,30-,31+,32-,33-,37-,38-/m0/s1
> <PUBCHEM_IUPAC_INCHIKEY>
NYUASEKTQKNABI-QMCXKXPKSA-N
> <PUBCHEM_XLOGP3_AA>
4.1
> <PUBCHEM_EXACT_MASS>
842.47895694
> <PUBCHEM_MOLECULAR_FORMULA>
C43H66N6O11
> <PUBCHEM_MOLECULAR_WEIGHT>
843.0
> <PUBCHEM_OPENEYE_CAN_SMILES>
CCC(C)C(C(=O)NC(C1CCCCC1)C(=O)NC(CC)C(=O)CCC2=CC=CC=C2)NC(=O)C(CC(C)C)NC(=O)C(CCC(=O)O)NC(=O)C(CC(=O)O)NC(=O)C
> <PUBCHEM_OPENEYE_ISO_SMILES>
CC[C@H](C)[C@@H](C(=O)N[C@@H](C1CCCCC1)C(=O)N[C@@H](CC)C(=O)CCC2=CC=CC=C2)NC(=O)[C@H](CC(C)C)NC(=O)[C@@H](CCC(=O)O)NC(=O)[C@H](CC(=O)O)NC(=O)C
> <PUBCHEM_CACTVS_TPSA>
266
> <PUBCHEM_MONOISOTOPIC_WEIGHT>
842.47895694
> <PUBCHEM_TOTAL_CHARGE>
0
> <PUBCHEM_HEAVY_ATOM_COUNT>
60
> <PUBCHEM_ATOM_DEF_STEREO_COUNT>
7
> <PUBCHEM_ATOM_UDEF_STEREO_COUNT>
0
> <PUBCHEM_BOND_DEF_STEREO_COUNT>
0
> <PUBCHEM_BOND_UDEF_STEREO_COUNT>
0
> <PUBCHEM_ISOTOPIC_ATOM_COUNT>
0
> <PUBCHEM_COMPONENT_COUNT>
1
> <PUBCHEM_CACTVS_TAUTO_COUNT>
-1
> <PUBCHEM_COORDINATE_TYPE>
1
5
255
> <PUBCHEM_BONDANNOTATIONS>
21  12  5
29  13  6
26  14  5
35  15  6
45  16  5
52  17  5
28  31  6
46  49  8
46  50  8
49  53  8
50  54  8
53  57  8
54  57  8
$$$$
