506563
  -OEChem-10302200282D
111111  0     1  0  0  0  0  0999 V2000
    6.0010   -1.3100    0.0000 O   0  0  0  0  0  0  0  0  0  0  0  0
    6.8671   -0.8100    0.0000 O   0  0  0  0  0  0  0  0  0  0  0  0
   10.3312    0.1900    0.0000 O   0  0  0  0  0  0  0  0  0  0  0  0
    2.5369   -2.3100    0.0000 O   0  0  0  0  0  0  0  0  0  0  0  0
    3.4030   -3.8100    0.0000 O   0  0  0  0  0  0  0  0  0  0  0  0
   11.1972    0.6900    0.0000 O   0  0  0  0  0  0  0  0  0  0  0  0
   13.7953    3.1900    0.0000 O   0  0  0  0  0  0  0  0  0  0  0  0
   13.7953    5.1900    0.0000 O   0  0  0  0  0  0  0  0  0  0  0  0
   12.0632    5.1900    0.0000 O   0  0  0  0  0  0  0  0  0  0  0  0
   15.5273   -0.8100    0.0000 O   0  0  0  0  0  0  0  0  0  0  0  0
   16.3933    0.6900    0.0000 O   0  0  0  0  0  0  0  0  0  0  0  0
   14.6613    3.6900    0.0000 O   0  0  0  0  0  0  0  0  0  0  0  0
    7.7331   -2.3100    0.0000 N   0  0  0  0  0  0  0  0  0  0  0  0
    5.1350   -2.8100    0.0000 N   0  0  0  0  0  0  0  0  0  0  0  0
    8.5991    0.1900    0.0000 N   0  0  0  0  0  0  0  0  0  0  0  0
   10.3312    2.1900    0.0000 N   0  0  0  0  0  0  0  0  0  0  0  0
   12.9292    1.6900    0.0000 N   0  0  0  0  0  0  0  0  0  0  0  0
   15.5273    2.1900    0.0000 N   0  0  0  0  0  0  0  0  0  0  0  0
    6.8671   -3.8100    0.0000 C   0  0  0  0  0  0  0  0  0  0  0  0
    6.0010   -4.3100    0.0000 C   0  0  0  0  0  0  0  0  0  0  0  0
    7.7331   -4.3100    0.0000 C   0  0  0  0  0  0  0  0  0  0  0  0
    6.8671   -2.8100    0.0000 C   0  0  1  0  0  0  0  0  0  0  0  0
    6.0010   -5.3100    0.0000 C   0  0  0  0  0  0  0  0  0  0  0  0
    7.7331   -5.3100    0.0000 C   0  0  0  0  0  0  0  0  0  0  0  0
    6.8671   -5.8100    0.0000 C   0  0  0  0  0  0  0  0  0  0  0  0
    6.0010   -2.3100    0.0000 C   0  0  0  0  0  0  0  0  0  0  0  0
    8.5991   -0.8100    0.0000 C   0  0  2  0  0  0  0  0  0  0  0  0
    7.7331   -1.3100    0.0000 C   0  0  0  0  0  0  0  0  0  0  0  0
    9.4651   -1.3100    0.0000 C   0  0  2  0  0  0  0  0  0  0  0  0
    4.2690   -2.3100    0.0000 C   0  0  1  0  0  0  0  0  0  0  0  0
   10.3312   -0.8100    0.0000 C   0  0  0  0  0  0  0  0  0  0  0  0
    9.4651   -2.3100    0.0000 C   0  0  0  0  0  0  0  0  0  0  0  0
    9.4651    1.6900    0.0000 C   0  0  2  0  0  0  0  0  0  0  0  0
    9.4651    0.6900    0.0000 C   0  0  0  0  0  0  0  0  0  0  0  0
    4.2690   -1.3100    0.0000 C   0  0  0  0  0  0  0  0  0  0  0  0
    8.5991    2.1900    0.0000 C   0  0  0  0  0  0  0  0  0  0  0  0
   11.1972   -1.3100    0.0000 C   0  0  0  0  0  0  0  0  0  0  0  0
    8.5991    3.1900    0.0000 C   0  0  0  0  0  0  0  0  0  0  0  0
    3.4030   -2.8100    0.0000 C   0  0  0  0  0  0  0  0  0  0  0  0
    3.4030   -0.8100    0.0000 C   0  0  0  0  0  0  0  0  0  0  0  0
    7.7331    3.6900    0.0000 C   0  0  0  0  0  0  0  0  0  0  0  0
    9.4651    3.6900    0.0000 C   0  0  0  0  0  0  0  0  0  0  0  0
   11.1972    1.6900    0.0000 C   0  0  0  0  0  0  0  0  0  0  0  0
   12.0632    2.1900    0.0000 C   0  0  1  0  0  0  0  0  0  0  0  0
   12.0632    3.1900    0.0000 C   0  0  0  0  0  0  0  0  0  0  0  0
   12.9292    3.6900    0.0000 C   0  0  0  0  0  0  0  0  0  0  0  0
   13.7953    2.1900    0.0000 C   0  0  0  0  0  0  0  0  0  0  0  0
   14.6613    1.6900    0.0000 C   0  0  2  0  0  0  0  0  0  0  0  0
   12.9292    4.6900    0.0000 C   0  0  0  0  0  0  0  0  0  0  0  0
   14.6613    0.6900    0.0000 C   0  0  0  0  0  0  0  0  0  0  0  0
   15.5273    0.1900    0.0000 C   0  0  0  0  0  0  0  0  0  0  0  0
   15.5273    3.1900    0.0000 C   0  0  0  0  0  0  0  0  0  0  0  0
   16.3933    3.6900    0.0000 C   0  0  0  0  0  0  0  0  0  0  0  0
    6.3301   -3.5000    0.0000 H   0  0  0  0  0  0  0  0  0  0  0  0
    5.7890   -3.7274    0.0000 H   0  0  0  0  0  0  0  0  0  0  0  0
    5.3905   -4.4177    0.0000 H   0  0  0  0  0  0  0  0  0  0  0  0
    8.3437   -4.4177    0.0000 H   0  0  0  0  0  0  0  0  0  0  0  0
    7.9451   -3.7274    0.0000 H   0  0  0  0  0  0  0  0  0  0  0  0
    7.4040   -3.1200    0.0000 H   0  0  0  0  0  0  0  0  0  0  0  0
    5.3905   -5.2023    0.0000 H   0  0  0  0  0  0  0  0  0  0  0  0
    5.7890   -5.8926    0.0000 H   0  0  0  0  0  0  0  0  0  0  0  0
    7.9451   -5.8926    0.0000 H   0  0  0  0  0  0  0  0  0  0  0  0
    8.3437   -5.2023    0.0000 H   0  0  0  0  0  0  0  0  0  0  0  0
    6.4685   -6.2850    0.0000 H   0  0  0  0  0  0  0  0  0  0  0  0
    7.2656   -6.2850    0.0000 H   0  0  0  0  0  0  0  0  0  0  0  0
    8.2700   -2.6200    0.0000 H   0  0  0  0  0  0  0  0  0  0  0  0
    8.0622   -0.5000    0.0000 H   0  0  0  0  0  0  0  0  0  0  0  0
   10.0021   -1.6200    0.0000 H   0  0  0  0  0  0  0  0  0  0  0  0
    5.1350   -3.4300    0.0000 H   0  0  0  0  0  0  0  0  0  0  0  0
    4.2690   -2.9300    0.0000 H   0  0  0  0  0  0  0  0  0  0  0  0
    8.0622    0.5000    0.0000 H   0  0  0  0  0  0  0  0  0  0  0  0
   10.7297   -0.3351    0.0000 H   0  0  0  0  0  0  0  0  0  0  0  0
    9.9326   -0.3351    0.0000 H   0  0  0  0  0  0  0  0  0  0  0  0
    8.8451   -2.3100    0.0000 H   0  0  0  0  0  0  0  0  0  0  0  0
    9.4651   -2.9300    0.0000 H   0  0  0  0  0  0  0  0  0  0  0  0
   10.0851   -2.3100    0.0000 H   0  0  0  0  0  0  0  0  0  0  0  0
   10.0021    1.3800    0.0000 H   0  0  0  0  0  0  0  0  0  0  0  0
    4.8796   -1.4177    0.0000 H   0  0  0  0  0  0  0  0  0  0  0  0
    4.4810   -0.7274    0.0000 H   0  0  0  0  0  0  0  0  0  0  0  0
    7.9885    2.2977    0.0000 H   0  0  0  0  0  0  0  0  0  0  0  0
    8.3871    1.6074    0.0000 H   0  0  0  0  0  0  0  0  0  0  0  0
   10.8872   -1.8469    0.0000 H   0  0  0  0  0  0  0  0  0  0  0  0
   11.7341   -1.6200    0.0000 H   0  0  0  0  0  0  0  0  0  0  0  0
   11.5072   -0.7731    0.0000 H   0  0  0  0  0  0  0  0  0  0  0  0
    8.5991    3.8100    0.0000 H   0  0  0  0  0  0  0  0  0  0  0  0
   10.3312    2.8100    0.0000 H   0  0  0  0  0  0  0  0  0  0  0  0
    3.7130   -0.2731    0.0000 H   0  0  0  0  0  0  0  0  0  0  0  0
    2.8660   -0.5000    0.0000 H   0  0  0  0  0  0  0  0  0  0  0  0
    3.0930   -1.3469    0.0000 H   0  0  0  0  0  0  0  0  0  0  0  0
    8.0431    4.2269    0.0000 H   0  0  0  0  0  0  0  0  0  0  0  0
    7.1962    4.0000    0.0000 H   0  0  0  0  0  0  0  0  0  0  0  0
    7.4231    3.1531    0.0000 H   0  0  0  0  0  0  0  0  0  0  0  0
    9.7751    3.1531    0.0000 H   0  0  0  0  0  0  0  0  0  0  0  0
   10.0021    4.0000    0.0000 H   0  0  0  0  0  0  0  0  0  0  0  0
    9.1551    4.2269    0.0000 H   0  0  0  0  0  0  0  0  0  0  0  0
   12.6002    2.5000    0.0000 H   0  0  0  0  0  0  0  0  0  0  0  0
   11.8512    3.7726    0.0000 H   0  0  0  0  0  0  0  0  0  0  0  0
   11.4526    3.0823    0.0000 H   0  0  0  0  0  0  0  0  0  0  0  0
    2.0000   -2.6200    0.0000 H   0  0  0  0  0  0  0  0  0  0  0  0
   12.9292    1.0700    0.0000 H   0  0  0  0  0  0  0  0  0  0  0  0
   13.1413    3.1074    0.0000 H   0  0  0  0  0  0  0  0  0  0  0  0
   13.5398    3.7977    0.0000 H   0  0  0  0  0  0  0  0  0  0  0  0
   14.6613    2.3100    0.0000 H   0  0  0  0  0  0  0  0  0  0  0  0
   14.0507    0.7977    0.0000 H   0  0  0  0  0  0  0  0  0  0  0  0
   14.4492    0.1074    0.0000 H   0  0  0  0  0  0  0  0  0  0  0  0
   16.0643    1.8800    0.0000 H   0  0  0  0  0  0  0  0  0  0  0  0
   13.7953    5.8100    0.0000 H   0  0  0  0  0  0  0  0  0  0  0  0
   16.7033    3.1531    0.0000 H   0  0  0  0  0  0  0  0  0  0  0  0
   16.9303    4.0000    0.0000 H   0  0  0  0  0  0  0  0  0  0  0  0
   16.0833    4.2269    0.0000 H   0  0  0  0  0  0  0  0  0  0  0  0
   16.0643   -1.1200    0.0000 H   0  0  0  0  0  0  0  0  0  0  0  0
  1 26  2  0  0  0  0
  2 28  2  0  0  0  0
  3 34  2  0  0  0  0
  4 39  1  0  0  0  0
  4 99  1  0  0  0  0
  5 39  2  0  0  0  0
  6 43  2  0  0  0  0
  7 47  2  0  0  0  0
  8 49  1  0  0  0  0
  8107  1  0  0  0  0
  9 49  2  0  0  0  0
 10 51  1  0  0  0  0
 10111  1  0  0  0  0
 11 51  2  0  0  0  0
 12 52  2  0  0  0  0
 22 13  1  1  0  0  0
 13 28  1  0  0  0  0
 13 66  1  0  0  0  0
 14 26  1  0  0  0  0
 30 14  1  6  0  0  0
 14 69  1  0  0  0  0
 27 15  1  1  0  0  0
 15 34  1  0  0  0  0
 15 71  1  0  0  0  0
 33 16  1  6  0  0  0
 16 43  1  0  0  0  0
 16 86  1  0  0  0  0
 44 17  1  1  0  0  0
 17 47  1  0  0  0  0
 17100  1  0  0  0  0
 48 18  1  1  0  0  0
 18 52  1  0  0  0  0
 18106  1  0  0  0  0
 19 20  1  0  0  0  0
 19 21  1  0  0  0  0
 19 22  1  0  0  0  0
 19 54  1  0  0  0  0
 20 23  1  0  0  0  0
 20 55  1  0  0  0  0
 20 56  1  0  0  0  0
 21 24  1  0  0  0  0
 21 57  1  0  0  0  0
 21 58  1  0  0  0  0
 22 26  1  0  0  0  0
 22 59  1  0  0  0  0
 23 25  1  0  0  0  0
 23 60  1  0  0  0  0
 23 61  1  0  0  0  0
 24 25  1  0  0  0  0
 24 62  1  0  0  0  0
 24 63  1  0  0  0  0
 25 64  1  0  0  0  0
 25 65  1  0  0  0  0
 27 28  1  0  0  0  0
 27 29  1  0  0  0  0
 27 67  1  0  0  0  0
 29 31  1  0  0  0  0
 29 32  1  6  0  0  0
 29 68  1  0  0  0  0
 30 35  1  0  0  0  0
 30 39  1  0  0  0  0
 30 70  1  0  0  0  0
 31 37  1  0  0  0  0
 31 72  1  0  0  0  0
 31 73  1  0  0  0  0
 32 74  1  0  0  0  0
 32 75  1  0  0  0  0
 32 76  1  0  0  0  0
 33 34  1  0  0  0  0
 33 36  1  0  0  0  0
 33 77  1  0  0  0  0
 35 40  1  0  0  0  0
 35 78  1  0  0  0  0
 35 79  1  0  0  0  0
 36 38  1  0  0  0  0
 36 80  1  0  0  0  0
 36 81  1  0  0  0  0
 37 82  1  0  0  0  0
 37 83  1  0  0  0  0
 37 84  1  0  0  0  0
 38 41  1  0  0  0  0
 38 42  1  0  0  0  0
 38 85  1  0  0  0  0
 40 87  1  0  0  0  0
 40 88  1  0  0  0  0
 40 89  1  0  0  0  0
 41 90  1  0  0  0  0
 41 91  1  0  0  0  0
 41 92  1  0  0  0  0
 42 93  1  0  0  0  0
 42 94  1  0  0  0  0
 42 95  1  0  0  0  0
 43 44  1  0  0  0  0
 44 45  1  0  0  0  0
 44 96  1  0  0  0  0
 45 46  1  0  0  0  0
 45 97  1  0  0  0  0
 45 98  1  0  0  0  0
 46 49  1  0  0  0  0
 46101  1  0  0  0  0
 46102  1  0  0  0  0
 47 48  1  0  0  0  0
 48 50  1  0  0  0  0
 48103  1  0  0  0  0
 50 51  1  0  0  0  0
 50104  1  0  0  0  0
 50105  1  0  0  0  0
 52 53  1  0  0  0  0
 53108  1  0  0  0  0
 53109  1  0  0  0  0
 53110  1  0  0  0  0
M  END
> <PUBCHEM_COMPOUND_CID>
506563
> <PUBCHEM_COMPOUND_CANONICALIZED>
1
> <PUBCHEM_CACTVS_COMPLEXITY>
1320
> <PUBCHEM_CACTVS_HBOND_ACCEPTOR>
12
> <PUBCHEM_CACTVS_HBOND_DONOR>
9
> <PUBCHEM_CACTVS_ROTATABLE_BOND>
23
> <PUBCHEM_CACTVS_SUBSKEYS>
AAADcfB/vAAAAAAAAAAAAAAAAAAAAAAAAAAwAAAAAAAAAAAAAAAAHgAQCAAADSjBgAQCCALAAgAIAAGQGAAAAAAAAAAAAIGIAAACQBoAgCAUQAAGFgCQAAG/n4KOAAAAAAAAAAAAAAAAAAAAAAAAAAAAAA==
> <PUBCHEM_IUPAC_OPENEYE_NAME>
(4R)-4-[[(2S)-2-acetamido-3-carboxy-propanoyl]amino]-5-[[(1S)-1-[[(1S,2S)-1-[[(1S)-2-[[(1S)-1-carboxypropyl]amino]-1-cyclohexyl-2-oxo-ethyl]carbamoyl]-2-methyl-butyl]carbamoyl]-3-methyl-butyl]amino]-5-oxo-pentanoic acid
> <PUBCHEM_IUPAC_CAS_NAME>
(4R)-4-[[(2S)-2-acetamido-3-carboxy-1-oxopropyl]amino]-5-[[(2S)-1-[[(2S,3S)-1-[[(1S)-2-[[(1S)-1-carboxypropyl]amino]-1-cyclohexyl-2-oxoethyl]amino]-3-methyl-1-oxopentan-2-yl]amino]-4-methyl-1-oxopentan-2-yl]amino]-5-oxopentanoic acid
> <PUBCHEM_IUPAC_NAME_MARKUP>
(4<I>R</I>)-4-[[(2<I>S</I>)-2-acetamido-3-carboxypropanoyl]amino]-5-[[(2<I>S</I>)-1-[[(2<I>S</I>,3<I>S</I>)-1-[[(1<I>S</I>)-2-[[(1<I>S</I>)-1-carboxypropyl]amino]-1-cyclohexyl-2-oxoethyl]amino]-3-methyl-1-oxopentan-2-yl]amino]-4-methyl-1-oxopentan-2-yl]amino]-5-oxopentanoic acid
> <PUBCHEM_IUPAC_NAME>
(4R)-4-[[(2S)-2-acetamido-3-carboxypropanoyl]amino]-5-[[(2S)-1-[[(2S,3S)-1-[[(1S)-2-[[(1S)-1-carboxypropyl]amino]-1-cyclohexyl-2-oxoethyl]amino]-3-methyl-1-oxopentan-2-yl]amino]-4-methyl-1-oxopentan-2-yl]amino]-5-oxopentanoic acid
> <PUBCHEM_IUPAC_SYSTEMATIC_NAME>
(4R)-4-[[(2S)-2-acetamido-4-oxidanyl-4-oxidanylidene-butanoyl]amino]-5-[[(2S)-1-[[(2S,3S)-1-[[(1S)-1-cyclohexyl-2-oxidanylidene-2-[[(2S)-1-oxidanyl-1-oxidanylidene-butan-2-yl]amino]ethyl]amino]-3-methyl-1-oxidanylidene-pentan-2-yl]amino]-4-methyl-1-oxidanylidene-pentan-2-yl]amino]-5-oxidanylidene-pentanoic acid
> <PUBCHEM_IUPAC_TRADITIONAL_NAME>
(4R)-4-[[(2S)-2-acetamido-3-carboxy-propanoyl]amino]-5-[[(1S)-1-[[(1S,2S)-1-[[(1S)-2-[[(1S)-1-carboxypropyl]amino]-1-cyclohexyl-2-keto-ethyl]carbamoyl]-2-methyl-butyl]carbamoyl]-3-methyl-butyl]amino]-5-keto-valeric acid
> <PUBCHEM_IUPAC_INCHI>
InChI=1S/C35H58N6O12/c1-7-19(5)28(33(50)41-29(21-12-10-9-11-13-21)34(51)37-22(8-2)35(52)53)40-32(49)24(16-18(3)4)39-30(47)23(14-15-26(43)44)38-31(48)25(17-27(45)46)36-20(6)42/h18-19,21-25,28-29H,7-17H2,1-6H3,(H,36,42)(H,37,51)(H,38,48)(H,39,47)(H,40,49)(H,41,50)(H,43,44)(H,45,46)(H,52,53)/t19-,22-,23+,24-,25-,28-,29-/m0/s1
> <PUBCHEM_IUPAC_INCHIKEY>
MKIJUXYNRWWQOD-XWIITXDLSA-N
> <PUBCHEM_XLOGP3_AA>
2.1
> <PUBCHEM_EXACT_MASS>
754.41127131
> <PUBCHEM_MOLECULAR_FORMULA>
C35H58N6O12
> <PUBCHEM_MOLECULAR_WEIGHT>
754.9
> <PUBCHEM_OPENEYE_CAN_SMILES>
CCC(C)C(C(=O)NC(C1CCCCC1)C(=O)NC(CC)C(=O)O)NC(=O)C(CC(C)C)NC(=O)C(CCC(=O)O)NC(=O)C(CC(=O)O)NC(=O)C
> <PUBCHEM_OPENEYE_ISO_SMILES>
CC[C@H](C)[C@@H](C(=O)N[C@@H](C1CCCCC1)C(=O)N[C@@H](CC)C(=O)O)NC(=O)[C@H](CC(C)C)NC(=O)[C@@H](CCC(=O)O)NC(=O)[C@H](CC(=O)O)NC(=O)C
> <PUBCHEM_CACTVS_TPSA>
287
> <PUBCHEM_MONOISOTOPIC_WEIGHT>
754.41127131
> <PUBCHEM_TOTAL_CHARGE>
0
> <PUBCHEM_HEAVY_ATOM_COUNT>
53
> <PUBCHEM_ATOM_DEF_STEREO_COUNT>
7
> <PUBCHEM_ATOM_UDEF_STEREO_COUNT>
0
> <PUBCHEM_BOND_DEF_STEREO_COUNT>
0
> <PUBCHEM_BOND_UDEF_STEREO_COUNT>
0
> <PUBCHEM_ISOTOPIC_ATOM_COUNT>
0
> <PUBCHEM_COMPONENT_COUNT>
1
> <PUBCHEM_CACTVS_TAUTO_COUNT>
-1
> <PUBCHEM_COORDINATE_TYPE>
1
5
255
> <PUBCHEM_BONDANNOTATIONS>
22  13  5
30  14  6
27  15  5
33  16  6
44  17  5
48  18  5
29  32  6
$$$$
