506531
  -OEChem-10302200282D
 26 27  0     1  0  0  0  0  0999 V2000
    3.2601    2.3649    0.0000 O   0  0  0  0  0  0  0  0  0  0  0  0
    2.0000    1.1048    0.0000 O   0  0  0  0  0  0  0  0  0  0  0  0
    4.2601    2.3649    0.0000 C   0  0  3  0  0  0  0  0  0  0  0  0
    3.7601    0.8261    0.0000 C   0  0  0  0  0  0  0  0  0  0  0  0
    4.5691    1.4139    0.0000 C   0  0  0  0  0  0  0  0  0  0  0  0
    3.7601   -0.1739    0.0000 C   0  0  0  0  0  0  0  0  0  0  0  0
    2.9511    1.4139    0.0000 C   0  0  0  0  0  0  0  0  0  0  0  0
    4.8479    3.1739    0.0000 C   0  0  0  0  0  0  0  0  0  0  0  0
    2.8940   -0.6739    0.0000 C   0  0  0  0  0  0  0  0  0  0  0  0
    4.6261   -0.6739    0.0000 C   0  0  0  0  0  0  0  0  0  0  0  0
    3.7601   -2.1739    0.0000 C   0  0  0  0  0  0  0  0  0  0  0  0
    2.8940   -1.6739    0.0000 C   0  0  0  0  0  0  0  0  0  0  0  0
    4.6261   -1.6739    0.0000 C   0  0  0  0  0  0  0  0  0  0  0  0
    3.7601   -3.1739    0.0000 C   0  0  0  0  0  0  0  0  0  0  0  0
    3.9786    2.9173    0.0000 H   0  0  0  0  0  0  0  0  0  0  0  0
    5.1588    1.2223    0.0000 H   0  0  0  0  0  0  0  0  0  0  0  0
    5.3494    2.8095    0.0000 H   0  0  0  0  0  0  0  0  0  0  0  0
    5.2123    3.6755    0.0000 H   0  0  0  0  0  0  0  0  0  0  0  0
    4.3463    3.5384    0.0000 H   0  0  0  0  0  0  0  0  0  0  0  0
    2.3571   -0.3639    0.0000 H   0  0  0  0  0  0  0  0  0  0  0  0
    5.1630   -0.3639    0.0000 H   0  0  0  0  0  0  0  0  0  0  0  0
    2.3571   -1.9839    0.0000 H   0  0  0  0  0  0  0  0  0  0  0  0
    5.1630   -1.9839    0.0000 H   0  0  0  0  0  0  0  0  0  0  0  0
    3.1401   -3.1739    0.0000 H   0  0  0  0  0  0  0  0  0  0  0  0
    3.7601   -3.7939    0.0000 H   0  0  0  0  0  0  0  0  0  0  0  0
    4.3801   -3.1739    0.0000 H   0  0  0  0  0  0  0  0  0  0  0  0
  1  3  1  0  0  0  0
  1  7  1  0  0  0  0
  2  7  2  0  0  0  0
  3  5  1  0  0  0  0
  3  8  1  0  0  0  0
  3 15  1  0  0  0  0
  4  5  2  0  0  0  0
  4  6  1  0  0  0  0
  4  7  1  0  0  0  0
  5 16  1  0  0  0  0
  6  9  2  0  0  0  0
  6 10  1  0  0  0  0
  8 17  1  0  0  0  0
  8 18  1  0  0  0  0
  8 19  1  0  0  0  0
  9 12  1  0  0  0  0
  9 20  1  0  0  0  0
 10 13  2  0  0  0  0
 10 21  1  0  0  0  0
 11 12  2  0  0  0  0
 11 13  1  0  0  0  0
 11 14  1  0  0  0  0
 12 22  1  0  0  0  0
 13 23  1  0  0  0  0
 14 24  1  0  0  0  0
 14 25  1  0  0  0  0
 14 26  1  0  0  0  0
M  END
> <PUBCHEM_COMPOUND_CID>
506531
> <PUBCHEM_COMPOUND_CANONICALIZED>
1
> <PUBCHEM_CACTVS_COMPLEXITY>
260
> <PUBCHEM_CACTVS_HBOND_ACCEPTOR>
2
> <PUBCHEM_CACTVS_HBOND_DONOR>
0
> <PUBCHEM_CACTVS_ROTATABLE_BOND>
1
> <PUBCHEM_CACTVS_SUBSKEYS>
AAADccBwMAAAAAAAAAAAAAAAAAAAAQAAAAAwAAAAAAAAAAABAAAAGgAAAAAADBSgmAIyCIAABACIAiDSCAACAAAgAAAIiAEAAMgIJDKANRCCMAAkwAEIqYeIyOCOQAAAAAAAAACAAAAAAAAAAAAAAAAAAA==
> <PUBCHEM_IUPAC_OPENEYE_NAME>
2-methyl-4-(p-tolyl)-2H-furan-5-one
> <PUBCHEM_IUPAC_CAS_NAME>
2-methyl-4-(4-methylphenyl)-2H-furan-5-one
> <PUBCHEM_IUPAC_NAME_MARKUP>
2-methyl-4-(4-methylphenyl)-2<I>H</I>-furan-5-one
> <PUBCHEM_IUPAC_NAME>
2-methyl-4-(4-methylphenyl)-2H-furan-5-one
> <PUBCHEM_IUPAC_SYSTEMATIC_NAME>
2-methyl-4-(4-methylphenyl)-2H-furan-5-one
> <PUBCHEM_IUPAC_TRADITIONAL_NAME>
2-methyl-4-(p-tolyl)-2H-furan-5-one
> <PUBCHEM_IUPAC_INCHI>
InChI=1S/C12H12O2/c1-8-3-5-10(6-4-8)11-7-9(2)14-12(11)13/h3-7,9H,1-2H3
> <PUBCHEM_IUPAC_INCHIKEY>
CFKFIQRGLCDNGV-UHFFFAOYSA-N
> <PUBCHEM_XLOGP3_AA>
2.6
> <PUBCHEM_EXACT_MASS>
188.083729621
> <PUBCHEM_MOLECULAR_FORMULA>
C12H12O2
> <PUBCHEM_MOLECULAR_WEIGHT>
188.22
> <PUBCHEM_OPENEYE_CAN_SMILES>
CC1C=C(C(=O)O1)C2=CC=C(C=C2)C
> <PUBCHEM_OPENEYE_ISO_SMILES>
CC1C=C(C(=O)O1)C2=CC=C(C=C2)C
> <PUBCHEM_CACTVS_TPSA>
26.3
> <PUBCHEM_MONOISOTOPIC_WEIGHT>
188.083729621
> <PUBCHEM_TOTAL_CHARGE>
0
> <PUBCHEM_HEAVY_ATOM_COUNT>
14
> <PUBCHEM_ATOM_DEF_STEREO_COUNT>
0
> <PUBCHEM_ATOM_UDEF_STEREO_COUNT>
1
> <PUBCHEM_BOND_DEF_STEREO_COUNT>
0
> <PUBCHEM_BOND_UDEF_STEREO_COUNT>
0
> <PUBCHEM_ISOTOPIC_ATOM_COUNT>
0
> <PUBCHEM_COMPONENT_COUNT>
1
> <PUBCHEM_CACTVS_TAUTO_COUNT>
-1
> <PUBCHEM_COORDINATE_TYPE>
1
5
255
> <PUBCHEM_BONDANNOTATIONS>
10  13  8
11  12  8
11  13  8
3  8  3
6  10  8
6  9  8
9  12  8
$$$$
