506534
  -OEChem-10302200282D
 25 26  0     1  0  0  0  0  0999 V2000
    3.2601    2.6149    0.0000 O   0  0  0  0  0  0  0  0  0  0  0  0
    2.0000    1.3548    0.0000 O   0  0  0  0  0  0  0  0  0  0  0  0
    4.6261   -3.4239    0.0000 O   0  5  0  0  0  0  0  0  0  0  0  0
    2.8940   -3.4239    0.0000 O   0  0  0  0  0  0  0  0  0  0  0  0
    3.7601   -2.9239    0.0000 N   0  3  0  0  0  0  0  0  0  0  0  0
    4.2601    2.6149    0.0000 C   0  0  3  0  0  0  0  0  0  0  0  0
    3.7601    1.0761    0.0000 C   0  0  0  0  0  0  0  0  0  0  0  0
    4.5691    1.6639    0.0000 C   0  0  0  0  0  0  0  0  0  0  0  0
    3.7601    0.0761    0.0000 C   0  0  0  0  0  0  0  0  0  0  0  0
    2.9511    1.6639    0.0000 C   0  0  0  0  0  0  0  0  0  0  0  0
    4.8479    3.4239    0.0000 C   0  0  0  0  0  0  0  0  0  0  0  0
    2.8940   -0.4239    0.0000 C   0  0  0  0  0  0  0  0  0  0  0  0
    4.6261   -0.4239    0.0000 C   0  0  0  0  0  0  0  0  0  0  0  0
    2.8940   -1.4239    0.0000 C   0  0  0  0  0  0  0  0  0  0  0  0
    4.6261   -1.4239    0.0000 C   0  0  0  0  0  0  0  0  0  0  0  0
    3.7601   -1.9239    0.0000 C   0  0  0  0  0  0  0  0  0  0  0  0
    3.9786    3.1673    0.0000 H   0  0  0  0  0  0  0  0  0  0  0  0
    5.1588    1.4723    0.0000 H   0  0  0  0  0  0  0  0  0  0  0  0
    5.3494    3.0595    0.0000 H   0  0  0  0  0  0  0  0  0  0  0  0
    5.2123    3.9255    0.0000 H   0  0  0  0  0  0  0  0  0  0  0  0
    4.3463    3.7884    0.0000 H   0  0  0  0  0  0  0  0  0  0  0  0
    2.3571   -0.1139    0.0000 H   0  0  0  0  0  0  0  0  0  0  0  0
    5.1630   -0.1139    0.0000 H   0  0  0  0  0  0  0  0  0  0  0  0
    2.3571   -1.7339    0.0000 H   0  0  0  0  0  0  0  0  0  0  0  0
    5.1630   -1.7339    0.0000 H   0  0  0  0  0  0  0  0  0  0  0  0
  1  6  1  0  0  0  0
  1 10  1  0  0  0  0
  2 10  2  0  0  0  0
  3  5  1  0  0  0  0
  4  5  2  0  0  0  0
  5 16  1  0  0  0  0
  6  8  1  0  0  0  0
  6 11  1  0  0  0  0
  6 17  1  0  0  0  0
  7  8  2  0  0  0  0
  7  9  1  0  0  0  0
  7 10  1  0  0  0  0
  8 18  1  0  0  0  0
  9 12  2  0  0  0  0
  9 13  1  0  0  0  0
 11 19  1  0  0  0  0
 11 20  1  0  0  0  0
 11 21  1  0  0  0  0
 12 14  1  0  0  0  0
 12 22  1  0  0  0  0
 13 15  2  0  0  0  0
 13 23  1  0  0  0  0
 14 16  2  0  0  0  0
 14 24  1  0  0  0  0
 15 16  1  0  0  0  0
 15 25  1  0  0  0  0
M  CHG  2   3  -1   5   1
M  END
> <PUBCHEM_COMPOUND_CID>
506534
> <PUBCHEM_COMPOUND_CANONICALIZED>
1
> <PUBCHEM_CACTVS_COMPLEXITY>
336
> <PUBCHEM_CACTVS_HBOND_ACCEPTOR>
4
> <PUBCHEM_CACTVS_HBOND_DONOR>
0
> <PUBCHEM_CACTVS_ROTATABLE_BOND>
1
> <PUBCHEM_CACTVS_SUBSKEYS>
AAADccByOAAAAAAAAAAAAAAAAAAAAQAAAAAwAAAAAAAAAAABAAAAHgAEAAAADByhmAIyyIAQRACJAiTSSwCCAAAgAgAoiAEAZMoIJDKAtZGCMABkwAEI6YeYyKCOCAAAAAAAAAAQAAAAAAAAAAAAAAAAAA==
> <PUBCHEM_IUPAC_OPENEYE_NAME>
2-methyl-4-(4-nitrophenyl)-2H-furan-5-one
> <PUBCHEM_IUPAC_CAS_NAME>
2-methyl-4-(4-nitrophenyl)-2H-furan-5-one
> <PUBCHEM_IUPAC_NAME_MARKUP>
2-methyl-4-(4-nitrophenyl)-2<I>H</I>-furan-5-one
> <PUBCHEM_IUPAC_NAME>
2-methyl-4-(4-nitrophenyl)-2H-furan-5-one
> <PUBCHEM_IUPAC_SYSTEMATIC_NAME>
2-methyl-4-(4-nitrophenyl)-2H-furan-5-one
> <PUBCHEM_IUPAC_TRADITIONAL_NAME>
2-methyl-4-(4-nitrophenyl)-2H-furan-5-one
> <PUBCHEM_IUPAC_INCHI>
InChI=1S/C11H9NO4/c1-7-6-10(11(13)16-7)8-2-4-9(5-3-8)12(14)15/h2-7H,1H3
> <PUBCHEM_IUPAC_INCHIKEY>
LSCFWBFSDFFJCG-UHFFFAOYSA-N
> <PUBCHEM_XLOGP3_AA>
2.1
> <PUBCHEM_EXACT_MASS>
219.05315777
> <PUBCHEM_MOLECULAR_FORMULA>
C11H9NO4
> <PUBCHEM_MOLECULAR_WEIGHT>
219.19
> <PUBCHEM_OPENEYE_CAN_SMILES>
CC1C=C(C(=O)O1)C2=CC=C(C=C2)[N+](=O)[O-]
> <PUBCHEM_OPENEYE_ISO_SMILES>
CC1C=C(C(=O)O1)C2=CC=C(C=C2)[N+](=O)[O-]
> <PUBCHEM_CACTVS_TPSA>
72.1
> <PUBCHEM_MONOISOTOPIC_WEIGHT>
219.05315777
> <PUBCHEM_TOTAL_CHARGE>
0
> <PUBCHEM_HEAVY_ATOM_COUNT>
16
> <PUBCHEM_ATOM_DEF_STEREO_COUNT>
0
> <PUBCHEM_ATOM_UDEF_STEREO_COUNT>
1
> <PUBCHEM_BOND_DEF_STEREO_COUNT>
0
> <PUBCHEM_BOND_UDEF_STEREO_COUNT>
0
> <PUBCHEM_ISOTOPIC_ATOM_COUNT>
0
> <PUBCHEM_COMPONENT_COUNT>
1
> <PUBCHEM_CACTVS_TAUTO_COUNT>
-1
> <PUBCHEM_COORDINATE_TYPE>
1
5
255
> <PUBCHEM_BONDANNOTATIONS>
12  14  8
13  15  8
14  16  8
15  16  8
6  11  3
9  12  8
9  13  8
$$$$
