506550
  -OEChem-10302200282D
 30 32  0     1  0  0  0  0  0999 V2000
    7.8007    0.4976    0.0000 O   0  0  0  0  0  0  0  0  0  0  0  0
    6.5406    1.7577    0.0000 O   0  0  0  0  0  0  0  0  0  0  0  0
    4.6783   -0.8071    0.0000 N   0  0  0  0  0  0  0  0  0  0  0  0
    5.2619   -0.0024    0.0000 C   0  0  0  0  0  0  0  0  0  0  0  0
    3.7320   -0.5024    0.0000 C   0  0  0  0  0  0  0  0  0  0  0  0
    6.2619   -0.0024    0.0000 C   0  0  0  0  0  0  0  0  0  0  0  0
    3.7320    0.4976    0.0000 C   0  0  0  0  0  0  0  0  0  0  0  0
    4.6783    0.8023    0.0000 C   0  0  0  0  0  0  0  0  0  0  0  0
    7.8007   -0.5024    0.0000 C   0  0  3  0  0  0  0  0  0  0  0  0
    6.8497   -0.8114    0.0000 C   0  0  0  0  0  0  0  0  0  0  0  0
    6.8497    0.8066    0.0000 C   0  0  0  0  0  0  0  0  0  0  0  0
    4.9889   -1.7577    0.0000 C   0  0  0  0  0  0  0  0  0  0  0  0
    2.8660   -1.0024    0.0000 C   0  0  0  0  0  0  0  0  0  0  0  0
    2.8660    0.9976    0.0000 C   0  0  0  0  0  0  0  0  0  0  0  0
    8.6097   -1.0902    0.0000 C   0  0  0  0  0  0  0  0  0  0  0  0
    2.0000   -0.5024    0.0000 C   0  0  0  0  0  0  0  0  0  0  0  0
    2.0000    0.4976    0.0000 C   0  0  0  0  0  0  0  0  0  0  0  0
    4.8709    1.3916    0.0000 H   0  0  0  0  0  0  0  0  0  0  0  0
    8.3532   -0.2209    0.0000 H   0  0  0  0  0  0  0  0  0  0  0  0
    6.6581   -1.4011    0.0000 H   0  0  0  0  0  0  0  0  0  0  0  0
    4.3996   -1.9503    0.0000 H   0  0  0  0  0  0  0  0  0  0  0  0
    5.1815   -2.3470    0.0000 H   0  0  0  0  0  0  0  0  0  0  0  0
    5.5783   -1.5650    0.0000 H   0  0  0  0  0  0  0  0  0  0  0  0
    2.8660   -1.6224    0.0000 H   0  0  0  0  0  0  0  0  0  0  0  0
    2.8660    1.6176    0.0000 H   0  0  0  0  0  0  0  0  0  0  0  0
    8.2453   -1.5918    0.0000 H   0  0  0  0  0  0  0  0  0  0  0  0
    9.1113   -1.4546    0.0000 H   0  0  0  0  0  0  0  0  0  0  0  0
    8.9742   -0.5886    0.0000 H   0  0  0  0  0  0  0  0  0  0  0  0
    1.4631   -0.8124    0.0000 H   0  0  0  0  0  0  0  0  0  0  0  0
    1.4631    0.8076    0.0000 H   0  0  0  0  0  0  0  0  0  0  0  0
  1  9  1  0  0  0  0
  1 11  1  0  0  0  0
  2 11  2  0  0  0  0
  3  4  1  0  0  0  0
  3  5  1  0  0  0  0
  3 12  1  0  0  0  0
  4  6  1  0  0  0  0
  4  8  2  0  0  0  0
  5  7  1  0  0  0  0
  5 13  2  0  0  0  0
  6 10  2  0  0  0  0
  6 11  1  0  0  0  0
  7  8  1  0  0  0  0
  7 14  2  0  0  0  0
  8 18  1  0  0  0  0
  9 10  1  0  0  0  0
  9 15  1  0  0  0  0
  9 19  1  0  0  0  0
 10 20  1  0  0  0  0
 12 21  1  0  0  0  0
 12 22  1  0  0  0  0
 12 23  1  0  0  0  0
 13 16  1  0  0  0  0
 13 24  1  0  0  0  0
 14 17  1  0  0  0  0
 14 25  1  0  0  0  0
 15 26  1  0  0  0  0
 15 27  1  0  0  0  0
 15 28  1  0  0  0  0
 16 17  2  0  0  0  0
 16 29  1  0  0  0  0
 17 30  1  0  0  0  0
M  END
> <PUBCHEM_COMPOUND_CID>
506550
> <PUBCHEM_COMPOUND_CANONICALIZED>
1
> <PUBCHEM_CACTVS_COMPLEXITY>
363
> <PUBCHEM_CACTVS_HBOND_ACCEPTOR>
2
> <PUBCHEM_CACTVS_HBOND_DONOR>
0
> <PUBCHEM_CACTVS_ROTATABLE_BOND>
1
> <PUBCHEM_CACTVS_SUBSKEYS>
AAADccByMAAAAAAAAAAAAAAAAAAAAWIAAAAwAAAAAAAAAFgB8AAAHgAAAAAADByhngYyyPMMFACoAyTyTACCgCAhAiAI2CE4ZNgIJPrAtZGGMAhmwAHI6YeYyLCOAAAAAAACAAAAAAAAAAQAAAAAAAAAAA==
> <PUBCHEM_IUPAC_OPENEYE_NAME>
2-methyl-4-(1-methylindol-2-yl)-2H-furan-5-one
> <PUBCHEM_IUPAC_CAS_NAME>
2-methyl-4-(1-methyl-2-indolyl)-2H-furan-5-one
> <PUBCHEM_IUPAC_NAME_MARKUP>
2-methyl-4-(1-methylindol-2-yl)-2<I>H</I>-furan-5-one
> <PUBCHEM_IUPAC_NAME>
2-methyl-4-(1-methylindol-2-yl)-2H-furan-5-one
> <PUBCHEM_IUPAC_SYSTEMATIC_NAME>
2-methyl-4-(1-methylindol-2-yl)-2H-furan-5-one
> <PUBCHEM_IUPAC_TRADITIONAL_NAME>
2-methyl-4-(1-methylindol-2-yl)-2H-furan-5-one
> <PUBCHEM_IUPAC_INCHI>
InChI=1S/C14H13NO2/c1-9-7-11(14(16)17-9)13-8-10-5-3-4-6-12(10)15(13)2/h3-9H,1-2H3
> <PUBCHEM_IUPAC_INCHIKEY>
MSTWSIKFWXXUGT-UHFFFAOYSA-N
> <PUBCHEM_XLOGP3_AA>
2.4
> <PUBCHEM_EXACT_MASS>
227.094628657
> <PUBCHEM_MOLECULAR_FORMULA>
C14H13NO2
> <PUBCHEM_MOLECULAR_WEIGHT>
227.26
> <PUBCHEM_OPENEYE_CAN_SMILES>
CC1C=C(C(=O)O1)C2=CC3=CC=CC=C3N2C
> <PUBCHEM_OPENEYE_ISO_SMILES>
CC1C=C(C(=O)O1)C2=CC3=CC=CC=C3N2C
> <PUBCHEM_CACTVS_TPSA>
31.2
> <PUBCHEM_MONOISOTOPIC_WEIGHT>
227.094628657
> <PUBCHEM_TOTAL_CHARGE>
0
> <PUBCHEM_HEAVY_ATOM_COUNT>
17
> <PUBCHEM_ATOM_DEF_STEREO_COUNT>
0
> <PUBCHEM_ATOM_UDEF_STEREO_COUNT>
1
> <PUBCHEM_BOND_DEF_STEREO_COUNT>
0
> <PUBCHEM_BOND_UDEF_STEREO_COUNT>
0
> <PUBCHEM_ISOTOPIC_ATOM_COUNT>
0
> <PUBCHEM_COMPONENT_COUNT>
1
> <PUBCHEM_CACTVS_TAUTO_COUNT>
-1
> <PUBCHEM_COORDINATE_TYPE>
1
5
255
> <PUBCHEM_BONDANNOTATIONS>
13  16  8
14  17  8
16  17  8
3  4  8
3  5  8
4  8  8
5  13  8
5  7  8
7  14  8
7  8  8
9  15  3
$$$$
