506598
  -OEChem-10302200282D
113123  0     1  0  0  0  0  0999 V2000
    5.0409    6.6200    0.0000 S   0  0  0  0  0  0  0  0  0  0  0  0
    6.2882   12.8830    0.0000 O   0  0  0  0  0  0  0  0  0  0  0  0
    3.0211   12.8451    0.0000 O   0  0  0  0  0  0  0  0  0  0  0  0
    0.6200   16.1555    0.0000 O   0  0  0  0  0  0  0  0  0  0  0  0
    0.6200   14.2313    0.0000 O   0  0  0  0  0  0  0  0  0  0  0  0
    7.0409    4.8880    0.0000 O   0  0  0  0  0  0  0  0  0  0  0  0
    7.0409    6.6200    0.0000 O   0  0  0  0  0  0  0  0  0  0  0  0
    5.2957   17.0216    0.0000 N   0  0  3  0  0  0  0  0  0  0  0  0
    3.8871   14.2692    0.0000 N   0  0  0  0  0  0  0  0  0  0  0  0
    4.6875   15.6555    0.0000 C   0  0  2  0  0  0  0  0  0  0  0  0
    4.6875   14.7313    0.0000 C   0  0  3  0  0  0  0  0  0  0  0  0
    5.4878   16.1176    0.0000 C   0  0  2  0  0  0  0  0  0  0  0  0
    5.4878   14.2692    0.0000 C   0  0  1  0  0  0  0  0  0  0  0  0
    6.2882   14.7313    0.0000 C   0  0  1  0  0  0  0  0  0  0  0  0
    6.2882   15.6555    0.0000 C   0  0  0  0  0  0  0  0  0  0  0  0
    4.0007   16.2739    0.0000 C   0  0  0  0  0  0  0  0  0  0  0  0
    3.0868   15.6555    0.0000 C   0  0  0  0  0  0  0  0  0  0  0  0
    4.3766   17.1182    0.0000 C   0  0  0  0  0  0  0  0  0  0  0  0
    5.4878   13.3451    0.0000 C   0  0  3  0  0  0  0  0  0  0  0  0
    7.1485   14.3937    0.0000 C   0  0  0  0  0  0  0  0  0  0  0  0
    7.1127   16.2203    0.0000 C   0  0  0  0  0  0  0  0  0  0  0  0
    3.0868   14.7313    0.0000 C   0  0  0  0  0  0  0  0  0  0  0  0
    4.6875   12.8830    0.0000 C   0  0  0  0  0  0  0  0  0  0  0  0
    3.8871   13.3451    0.0000 C   0  0  0  0  0  0  0  0  0  0  0  0
    2.2864   16.1176    0.0000 C   0  0  0  0  0  0  0  0  0  0  0  0
    7.4618   13.7558    0.0000 C   0  0  0  0  0  0  0  0  0  0  0  0
    7.0100   12.8932    0.0000 C   0  0  0  0  0  0  0  0  0  0  0  0
    2.2864   14.2692    0.0000 C   0  0  0  0  0  0  0  0  0  0  0  0
    1.4860   15.6555    0.0000 C   0  0  0  0  0  0  0  0  0  0  0  0
    1.4860   14.7313    0.0000 C   0  0  0  0  0  0  0  0  0  0  0  0
    0.6200   17.1555    0.0000 C   0  0  0  0  0  0  0  0  0  0  0  0
    0.6200   13.2313    0.0000 C   0  0  0  0  0  0  0  0  0  0  0  0
    4.0409    6.6200    0.0000 C   0  0  3  0  0  0  0  0  0  0  0  0
    4.0409    7.6200    0.0000 C   0  0  0  0  0  0  0  0  0  0  0  0
    4.0409    5.6200    0.0000 C   0  0  0  0  0  0  0  0  0  0  0  0
    3.0409    6.6200    0.0000 C   0  0  0  0  0  0  0  0  0  0  0  0
    4.9069    8.1200    0.0000 C   0  0  0  0  0  0  0  0  0  0  0  0
    3.1748    8.1200    0.0000 C   0  0  0  0  0  0  0  0  0  0  0  0
    4.9069    9.1200    0.0000 C   0  0  0  0  0  0  0  0  0  0  0  0
    3.1748    5.1200    0.0000 C   0  0  0  0  0  0  0  0  0  0  0  0
    4.9069    5.1200    0.0000 C   0  0  0  0  0  0  0  0  0  0  0  0
    2.5409    5.7540    0.0000 C   0  0  0  0  0  0  0  0  0  0  0  0
    2.5409    7.4860    0.0000 C   0  0  0  0  0  0  0  0  0  0  0  0
    5.8008    7.5853    0.0000 C   0  0  0  0  0  0  0  0  0  0  0  0
    3.1748    9.1200    0.0000 C   0  0  0  0  0  0  0  0  0  0  0  0
    4.0409    9.6200    0.0000 C   0  0  0  0  0  0  0  0  0  0  0  0
    5.5409    5.7540    0.0000 C   0  0  0  0  0  0  0  0  0  0  0  0
    3.1748    4.1200    0.0000 C   0  0  0  0  0  0  0  0  0  0  0  0
    4.9069    4.1200    0.0000 C   0  0  0  0  0  0  0  0  0  0  0  0
    4.0409    3.6200    0.0000 C   0  0  0  0  0  0  0  0  0  0  0  0
    5.8008    9.6547    0.0000 C   0  0  0  0  0  0  0  0  0  0  0  0
    1.5409    5.7540    0.0000 C   0  0  0  0  0  0  0  0  0  0  0  0
    1.5409    7.4860    0.0000 C   0  0  0  0  0  0  0  0  0  0  0  0
    6.7069    8.0992    0.0000 C   0  0  0  0  0  0  0  0  0  0  0  0
    6.7069    9.1408    0.0000 C   0  0  0  0  0  0  0  0  0  0  0  0
    1.0409    6.6200    0.0000 C   0  0  0  0  0  0  0  0  0  0  0  0
    4.0409    2.6200    0.0000 C   0  0  0  0  0  0  0  0  0  0  0  0
    6.5409    5.7540    0.0000 C   0  0  0  0  0  0  0  0  0  0  0  0
    4.9069    2.1200    0.0000 C   0  0  0  0  0  0  0  0  0  0  0  0
    3.1748    2.1200    0.0000 C   0  0  0  0  0  0  0  0  0  0  0  0
    4.9069    1.1200    0.0000 C   0  0  0  0  0  0  0  0  0  0  0  0
    3.1748    1.1200    0.0000 C   0  0  0  0  0  0  0  0  0  0  0  0
    4.0409    0.6200    0.0000 C   0  0  0  0  0  0  0  0  0  0  0  0
    4.1505   15.0413    0.0000 H   0  0  0  0  0  0  0  0  0  0  0  0
    6.2303   16.5314    0.0000 H   0  0  0  0  0  0  0  0  0  0  0  0
    6.2240   13.8442    0.0000 H   0  0  0  0  0  0  0  0  0  0  0  0
    6.9905   15.2101    0.0000 H   0  0  0  0  0  0  0  0  0  0  0  0
    6.8988   15.5478    0.0000 H   0  0  0  0  0  0  0  0  0  0  0  0
    6.5002   16.2381    0.0000 H   0  0  0  0  0  0  0  0  0  0  0  0
    3.4637   16.5839    0.0000 H   0  0  0  0  0  0  0  0  0  0  0  0
    3.6362   15.7723    0.0000 H   0  0  0  0  0  0  0  0  0  0  0  0
    4.5055   17.7246    0.0000 H   0  0  0  0  0  0  0  0  0  0  0  0
    3.7869   17.3098    0.0000 H   0  0  0  0  0  0  0  0  0  0  0  0
    5.4878   12.7251    0.0000 H   0  0  0  0  0  0  0  0  0  0  0  0
    7.7278   16.1427    0.0000 H   0  0  0  0  0  0  0  0  0  0  0  0
    7.2782   16.8178    0.0000 H   0  0  0  0  0  0  0  0  0  0  0  0
    4.2890   12.4080    0.0000 H   0  0  0  0  0  0  0  0  0  0  0  0
    5.0860   12.4080    0.0000 H   0  0  0  0  0  0  0  0  0  0  0  0
    2.2864   16.7376    0.0000 H   0  0  0  0  0  0  0  0  0  0  0  0
    8.0817   13.7478    0.0000 H   0  0  0  0  0  0  0  0  0  0  0  0
    6.9165   12.2803    0.0000 H   0  0  0  0  0  0  0  0  0  0  0  0
    7.5991   12.7000    0.0000 H   0  0  0  0  0  0  0  0  0  0  0  0
    2.2864   13.6492    0.0000 H   0  0  0  0  0  0  0  0  0  0  0  0
    1.2400   17.1555    0.0000 H   0  0  0  0  0  0  0  0  0  0  0  0
    0.6200   17.7755    0.0000 H   0  0  0  0  0  0  0  0  0  0  0  0
    0.0000   17.1555    0.0000 H   0  0  0  0  0  0  0  0  0  0  0  0
    0.0000   13.2313    0.0000 H   0  0  0  0  0  0  0  0  0  0  0  0
    0.6200   12.6113    0.0000 H   0  0  0  0  0  0  0  0  0  0  0  0
    1.2400   13.2313    0.0000 H   0  0  0  0  0  0  0  0  0  0  0  0
    2.6379    7.8100    0.0000 H   0  0  0  0  0  0  0  0  0  0  0  0
    2.6379    5.4300    0.0000 H   0  0  0  0  0  0  0  0  0  0  0  0
    5.4438    5.4300    0.0000 H   0  0  0  0  0  0  0  0  0  0  0  0
    2.8509    5.2170    0.0000 H   0  0  0  0  0  0  0  0  0  0  0  0
    2.8509    8.0230    0.0000 H   0  0  0  0  0  0  0  0  0  0  0  0
    5.7937    6.9654    0.0000 H   0  0  0  0  0  0  0  0  0  0  0  0
    2.6379    9.4300    0.0000 H   0  0  0  0  0  0  0  0  0  0  0  0
    4.0409   10.2400    0.0000 H   0  0  0  0  0  0  0  0  0  0  0  0
    4.9583    5.5419    0.0000 H   0  0  0  0  0  0  0  0  0  0  0  0
    5.6485    5.1434    0.0000 H   0  0  0  0  0  0  0  0  0  0  0  0
    2.6379    3.8100    0.0000 H   0  0  0  0  0  0  0  0  0  0  0  0
    5.4438    3.8100    0.0000 H   0  0  0  0  0  0  0  0  0  0  0  0
    5.7937   10.2746    0.0000 H   0  0  0  0  0  0  0  0  0  0  0  0
    1.2309    5.2170    0.0000 H   0  0  0  0  0  0  0  0  0  0  0  0
    1.2309    8.0230    0.0000 H   0  0  0  0  0  0  0  0  0  0  0  0
    7.2426    7.7871    0.0000 H   0  0  0  0  0  0  0  0  0  0  0  0
    7.2426    9.4529    0.0000 H   0  0  0  0  0  0  0  0  0  0  0  0
    0.4209    6.6200    0.0000 H   0  0  0  0  0  0  0  0  0  0  0  0
    5.4438    2.4300    0.0000 H   0  0  0  0  0  0  0  0  0  0  0  0
    2.6379    2.4300    0.0000 H   0  0  0  0  0  0  0  0  0  0  0  0
    5.4438    0.8100    0.0000 H   0  0  0  0  0  0  0  0  0  0  0  0
    2.6379    0.8100    0.0000 H   0  0  0  0  0  0  0  0  0  0  0  0
    4.0409    0.0000    0.0000 H   0  0  0  0  0  0  0  0  0  0  0  0
    7.6609    4.8880    0.0000 H   0  0  0  0  0  0  0  0  0  0  0  0
  1 33  1  0  0  0  0
  1 47  1  0  0  0  0
  2 19  1  0  0  0  0
  2 27  1  0  0  0  0
  3 24  2  0  0  0  0
  4 29  1  0  0  0  0
  4 31  1  0  0  0  0
  5 30  1  0  0  0  0
  5 32  1  0  0  0  0
  6 58  1  0  0  0  0
  6113  1  0  0  0  0
  7 58  2  0  0  0  0
  8 12  1  0  0  0  0
  8 18  1  0  0  0  0
  8 21  1  0  0  0  0
  9 11  1  0  0  0  0
  9 22  1  0  0  0  0
  9 24  1  0  0  0  0
 10 11  1  0  0  0  0
 10 12  1  0  0  0  0
 10 16  1  0  0  0  0
 10 17  1  6  0  0  0
 11 13  1  0  0  0  0
 11 64  1  0  0  0  0
 12 15  1  0  0  0  0
 12 65  1  6  0  0  0
 13 14  1  0  0  0  0
 13 19  1  0  0  0  0
 13 66  1  6  0  0  0
 14 15  1  0  0  0  0
 14 20  1  0  0  0  0
 14 67  1  6  0  0  0
 15 68  1  0  0  0  0
 15 69  1  0  0  0  0
 16 18  1  0  0  0  0
 16 70  1  0  0  0  0
 16 71  1  0  0  0  0
 17 22  1  0  0  0  0
 17 25  2  0  0  0  0
 18 72  1  0  0  0  0
 18 73  1  0  0  0  0
 19 23  1  0  0  0  0
 19 74  1  0  0  0  0
 20 21  1  0  0  0  0
 20 26  2  0  0  0  0
 21 75  1  0  0  0  0
 21 76  1  0  0  0  0
 22 28  2  0  0  0  0
 23 24  1  0  0  0  0
 23 77  1  0  0  0  0
 23 78  1  0  0  0  0
 25 29  1  0  0  0  0
 25 79  1  0  0  0  0
 26 27  1  0  0  0  0
 26 80  1  0  0  0  0
 27 81  1  0  0  0  0
 27 82  1  0  0  0  0
 28 30  1  0  0  0  0
 28 83  1  0  0  0  0
 29 30  2  0  0  0  0
 31 84  1  0  0  0  0
 31 85  1  0  0  0  0
 31 86  1  0  0  0  0
 32 87  1  0  0  0  0
 32 88  1  0  0  0  0
 32 89  1  0  0  0  0
 33 34  1  0  0  0  0
 33 35  1  0  0  0  0
 33 36  1  0  0  0  0
 34 37  1  0  0  0  0
 34 38  2  0  0  0  0
 35 40  2  0  0  0  0
 35 41  1  0  0  0  0
 36 42  2  0  0  0  0
 36 43  1  0  0  0  0
 37 39  1  0  0  0  0
 37 44  2  0  0  0  0
 38 45  1  0  0  0  0
 38 90  1  0  0  0  0
 39 46  1  0  0  0  0
 39 51  2  0  0  0  0
 40 48  1  0  0  0  0
 40 91  1  0  0  0  0
 41 49  2  0  0  0  0
 41 92  1  0  0  0  0
 42 52  1  0  0  0  0
 42 93  1  0  0  0  0
 43 53  2  0  0  0  0
 43 94  1  0  0  0  0
 44 54  1  0  0  0  0
 44 95  1  0  0  0  0
 45 46  2  0  0  0  0
 45 96  1  0  0  0  0
 46 97  1  0  0  0  0
 47 58  1  0  0  0  0
 47 98  1  0  0  0  0
 47 99  1  0  0  0  0
 48 50  2  0  0  0  0
 48100  1  0  0  0  0
 49 50  1  0  0  0  0
 49101  1  0  0  0  0
 50 57  1  0  0  0  0
 51 55  1  0  0  0  0
 51102  1  0  0  0  0
 52 56  2  0  0  0  0
 52103  1  0  0  0  0
 53 56  1  0  0  0  0
 53104  1  0  0  0  0
 54 55  2  0  0  0  0
 54105  1  0  0  0  0
 55106  1  0  0  0  0
 56107  1  0  0  0  0
 57 59  2  0  0  0  0
 57 60  1  0  0  0  0
 59 61  1  0  0  0  0
 59108  1  0  0  0  0
 60 62  2  0  0  0  0
 60109  1  0  0  0  0
 61 63  2  0  0  0  0
 61110  1  0  0  0  0
 62 63  1  0  0  0  0
 62111  1  0  0  0  0
 63112  1  0  0  0  0
M  END
> <PUBCHEM_COMPOUND_CID>
506598
> <PUBCHEM_COMPOUND_CANONICALIZED>
1
> <PUBCHEM_CACTVS_COMPLEXITY>
1430
> <PUBCHEM_CACTVS_HBOND_ACCEPTOR>
8
> <PUBCHEM_CACTVS_HBOND_DONOR>
1
> <PUBCHEM_CACTVS_ROTATABLE_BOND>
9
> <PUBCHEM_CACTVS_SUBSKEYS>
AAADcfB/OABAAAAAAAAAAAAAAAAAAWLAAAA8eMGDBAAAAFjBVAAAHgQACAAADzzl2AayzsMABgiIAiXSWACCCAAhIhAIiAEO7IgNJjbk8ZuGMCpm5hnq6Ae42fOf4EADAgASQADQgAaECCSAAAAAAAAAAA==
> <PUBCHEM_IUPAC_OPENEYE_NAME>
(4aR,5aS,8aR,15bR)-10,11-dimethoxy-4a,5,5a,7,8,13a,15,15a,15b,16-decahydro-2H-4,6-methanoindolo[3,2,1-ij]oxepino[2,3,4-de]pyrrolo[2,3-h]quinolin-14-one;2-[1-naphthyl-phenyl-(4-phenylphenyl)methyl]sulfanylacetic acid
> <PUBCHEM_IUPAC_CAS_NAME>
(4aR,5aS,8aR,15bR)-10,11-dimethoxy-4a,5,5a,7,8,13a,15,15a,15b,16-decahydro-2H-4,6-methanoindolo[3,2,1-ij]oxepino[2,3,4-de]pyrrolo[2,3-h]quinolin-14-one;2-[[1-naphthalenyl-phenyl-(4-phenylphenyl)methyl]thio]acetic acid
> <PUBCHEM_IUPAC_NAME_MARKUP>
(4<I>a</I><I>R</I>,5<I>a</I><I>S</I>,8<I>a</I><I>R</I>,15<I>b</I><I>R</I>)-10,11-dimethoxy-4<I>a</I>,5,5<I>a</I>,7,8,13<I>a</I>,15,15<I>a</I>,15<I>b</I>,16-decahydro-2<I>H</I>-4,6-methanoindolo[3,2,1-ij]oxepino[2,3,4-de]pyrrolo[2,3-h]quinolin-14-one;2-[naphthalen-1-yl-phenyl-(4-phenylphenyl)methyl]sulfanylacetic acid
> <PUBCHEM_IUPAC_NAME>
(4aR,5aS,8aR,15bR)-10,11-dimethoxy-4a,5,5a,7,8,13a,15,15a,15b,16-decahydro-2H-4,6-methanoindolo[3,2,1-ij]oxepino[2,3,4-de]pyrrolo[2,3-h]quinolin-14-one;2-[naphthalen-1-yl-phenyl-(4-phenylphenyl)methyl]sulfanylacetic acid
> <PUBCHEM_IUPAC_SYSTEMATIC_NAME>
(4aR,5aS,8aR,15bR)-10,11-dimethoxy-4a,5,5a,7,8,13a,15,15a,15b,16-decahydro-2H-4,6-methanoindolo[3,2,1-ij]oxepino[2,3,4-de]pyrrolo[2,3-h]quinolin-14-one;2-[naphthalen-1-yl-phenyl-(4-phenylphenyl)methyl]sulfanylethanoic acid
> <PUBCHEM_IUPAC_TRADITIONAL_NAME>
(4aR,5aS,8aR,15bR)-10,11-dimethoxy-4a,5,5a,7,8,13a,15,15a,15b,16-decahydro-2H-4,6-methanoindolo[3,2,1-ij]oxepino[2,3,4-de]pyrrolo[2,3-h]quinolin-14-one;2-[[1-naphthyl-phenyl-(4-phenylphenyl)methyl]thio]acetic acid
> <PUBCHEM_IUPAC_INCHI>
InChI=1S/C31H24O2S.C23H26N2O4/c32-30(33)22-34-31(26-14-5-2-6-15-26,29-17-9-13-25-12-7-8-16-28(25)29)27-20-18-24(19-21-27)23-10-3-1-4-11-23;1-27-16-8-14-15(9-17(16)28-2)25-20(26)10-18-21-13-7-19-23(14,22(21)25)4-5-24(19)11-12(13)3-6-29-18/h1-21H,22H2,(H,32,33);3,8-9,13,18-19,21-22H,4-7,10-11H2,1-2H3/t;13-,18?,19-,21-,22?,23+/m.0/s1
> <PUBCHEM_IUPAC_INCHIKEY>
AOBWCNDLBUFHHV-PBGOQKAGSA-N
> <PUBCHEM_EXACT_MASS>
854.33895849
> <PUBCHEM_MOLECULAR_FORMULA>
C54H50N2O6S
> <PUBCHEM_MOLECULAR_WEIGHT>
855.0
> <PUBCHEM_OPENEYE_CAN_SMILES>
COC1=C(C=C2C(=C1)C34CCN5C3CC6C7C4N2C(=O)CC7OCC=C6C5)OC.C1=CC=C(C=C1)C2=CC=C(C=C2)C(C3=CC=CC=C3)(C4=CC=CC5=CC=CC=C54)SCC(=O)O
> <PUBCHEM_OPENEYE_ISO_SMILES>
COC1=C(C=C2C(=C1)[C@]34CCN5[C@H]3C[C@@H]6[C@@H]7C4N2C(=O)CC7OCC=C6C5)OC.C1=CC=C(C=C1)C2=CC=C(C=C2)C(C3=CC=CC=C3)(C4=CC=CC5=CC=CC=C54)SCC(=O)O
> <PUBCHEM_CACTVS_TPSA>
114
> <PUBCHEM_MONOISOTOPIC_WEIGHT>
854.33895849
> <PUBCHEM_TOTAL_CHARGE>
0
> <PUBCHEM_HEAVY_ATOM_COUNT>
63
> <PUBCHEM_ATOM_DEF_STEREO_COUNT>
4
> <PUBCHEM_ATOM_UDEF_STEREO_COUNT>
3
> <PUBCHEM_BOND_DEF_STEREO_COUNT>
0
> <PUBCHEM_BOND_UDEF_STEREO_COUNT>
0
> <PUBCHEM_ISOTOPIC_ATOM_COUNT>
0
> <PUBCHEM_COMPONENT_COUNT>
2
> <PUBCHEM_CACTVS_TAUTO_COUNT>
-1
> <PUBCHEM_COORDINATE_TYPE>
1
5
255
> <PUBCHEM_BONDANNOTATIONS>
33  1  3
10  17  6
12  65  6
13  66  6
14  67  6
17  22  8
17  25  8
19  23  3
22  28  8
25  29  8
28  30  8
29  30  8
34  37  8
34  38  8
35  40  8
35  41  8
36  42  8
36  43  8
37  39  8
37  44  8
38  45  8
39  46  8
39  51  8
40  48  8
41  49  8
42  52  8
43  53  8
44  54  8
45  46  8
48  50  8
49  50  8
51  55  8
52  56  8
53  56  8
54  55  8
57  59  8
57  60  8
59  61  8
60  62  8
61  63  8
62  63  8
11  9  3
$$$$
