506536
  -OEChem-10302200282D
 26 27  0     1  0  0  0  0  0999 V2000
    2.3660   -1.3749    0.0000 F   0  0  0  0  0  0  0  0  0  0  0  0
    2.0000   -2.7409    0.0000 F   0  0  0  0  0  0  0  0  0  0  0  0
    3.3660   -3.1069    0.0000 F   0  0  0  0  0  0  0  0  0  0  0  0
    4.0981    2.2979    0.0000 O   0  0  0  0  0  0  0  0  0  0  0  0
    2.8380    1.0378    0.0000 O   0  0  0  0  0  0  0  0  0  0  0  0
    5.0981    2.2979    0.0000 C   0  0  3  0  0  0  0  0  0  0  0  0
    4.5981    0.7591    0.0000 C   0  0  0  0  0  0  0  0  0  0  0  0
    4.5981   -0.2409    0.0000 C   0  0  0  0  0  0  0  0  0  0  0  0
    5.4071    1.3469    0.0000 C   0  0  0  0  0  0  0  0  0  0  0  0
    3.7891    1.3469    0.0000 C   0  0  0  0  0  0  0  0  0  0  0  0
    3.7320   -0.7409    0.0000 C   0  0  0  0  0  0  0  0  0  0  0  0
    5.6859    3.1069    0.0000 C   0  0  0  0  0  0  0  0  0  0  0  0
    3.7320   -1.7409    0.0000 C   0  0  0  0  0  0  0  0  0  0  0  0
    5.4641   -0.7409    0.0000 C   0  0  0  0  0  0  0  0  0  0  0  0
    4.5981   -2.2409    0.0000 C   0  0  0  0  0  0  0  0  0  0  0  0
    5.4641   -1.7409    0.0000 C   0  0  0  0  0  0  0  0  0  0  0  0
    2.8660   -2.2409    0.0000 C   0  0  0  0  0  0  0  0  0  0  0  0
    4.8166    2.8504    0.0000 H   0  0  0  0  0  0  0  0  0  0  0  0
    5.9967    1.1553    0.0000 H   0  0  0  0  0  0  0  0  0  0  0  0
    3.1951   -0.4309    0.0000 H   0  0  0  0  0  0  0  0  0  0  0  0
    6.1874    2.7425    0.0000 H   0  0  0  0  0  0  0  0  0  0  0  0
    6.0503    3.6085    0.0000 H   0  0  0  0  0  0  0  0  0  0  0  0
    5.1843    3.4714    0.0000 H   0  0  0  0  0  0  0  0  0  0  0  0
    6.0010   -0.4309    0.0000 H   0  0  0  0  0  0  0  0  0  0  0  0
    4.5981   -2.8609    0.0000 H   0  0  0  0  0  0  0  0  0  0  0  0
    6.0010   -2.0509    0.0000 H   0  0  0  0  0  0  0  0  0  0  0  0
  1 17  1  0  0  0  0
  2 17  1  0  0  0  0
  3 17  1  0  0  0  0
  4  6  1  0  0  0  0
  4 10  1  0  0  0  0
  5 10  2  0  0  0  0
  6  9  1  0  0  0  0
  6 12  1  0  0  0  0
  6 18  1  0  0  0  0
  7  8  1  0  0  0  0
  7  9  2  0  0  0  0
  7 10  1  0  0  0  0
  8 11  2  0  0  0  0
  8 14  1  0  0  0  0
  9 19  1  0  0  0  0
 11 13  1  0  0  0  0
 11 20  1  0  0  0  0
 12 21  1  0  0  0  0
 12 22  1  0  0  0  0
 12 23  1  0  0  0  0
 13 15  2  0  0  0  0
 13 17  1  0  0  0  0
 14 16  2  0  0  0  0
 14 24  1  0  0  0  0
 15 16  1  0  0  0  0
 15 25  1  0  0  0  0
 16 26  1  0  0  0  0
M  END
> <PUBCHEM_COMPOUND_CID>
506536
> <PUBCHEM_COMPOUND_CANONICALIZED>
1
> <PUBCHEM_CACTVS_COMPLEXITY>
346
> <PUBCHEM_CACTVS_HBOND_ACCEPTOR>
5
> <PUBCHEM_CACTVS_HBOND_DONOR>
0
> <PUBCHEM_CACTVS_ROTATABLE_BOND>
1
> <PUBCHEM_CACTVS_SUBSKEYS>
AAADccBwMYAAAAAAAAAAAAAAAAAAAQAAAAAwAAAAAAAAAAABAAAAGwAAAAAADBSgmBIyCIAABACIAiDSCAACAAAgAAAIiAEAAMgIJDKANRCCMAAkwAEIqYeIyPCOAAACAAAAAAAAAAQAAAAAAAAAAAAAAA==
> <PUBCHEM_IUPAC_OPENEYE_NAME>
2-methyl-4-[3-(trifluoromethyl)phenyl]-2H-furan-5-one
> <PUBCHEM_IUPAC_CAS_NAME>
2-methyl-4-[3-(trifluoromethyl)phenyl]-2H-furan-5-one
> <PUBCHEM_IUPAC_NAME_MARKUP>
2-methyl-4-[3-(trifluoromethyl)phenyl]-2<I>H</I>-furan-5-one
> <PUBCHEM_IUPAC_NAME>
2-methyl-4-[3-(trifluoromethyl)phenyl]-2H-furan-5-one
> <PUBCHEM_IUPAC_SYSTEMATIC_NAME>
2-methyl-4-[3-(trifluoromethyl)phenyl]-2H-furan-5-one
> <PUBCHEM_IUPAC_TRADITIONAL_NAME>
2-methyl-4-[3-(trifluoromethyl)phenyl]-2H-furan-5-one
> <PUBCHEM_IUPAC_INCHI>
InChI=1S/C12H9F3O2/c1-7-5-10(11(16)17-7)8-3-2-4-9(6-8)12(13,14)15/h2-7H,1H3
> <PUBCHEM_IUPAC_INCHIKEY>
XJGVBCUVKKCQEB-UHFFFAOYSA-N
> <PUBCHEM_XLOGP3_AA>
3.1
> <PUBCHEM_EXACT_MASS>
242.05546401
> <PUBCHEM_MOLECULAR_FORMULA>
C12H9F3O2
> <PUBCHEM_MOLECULAR_WEIGHT>
242.19
> <PUBCHEM_OPENEYE_CAN_SMILES>
CC1C=C(C(=O)O1)C2=CC(=CC=C2)C(F)(F)F
> <PUBCHEM_OPENEYE_ISO_SMILES>
CC1C=C(C(=O)O1)C2=CC(=CC=C2)C(F)(F)F
> <PUBCHEM_CACTVS_TPSA>
26.3
> <PUBCHEM_MONOISOTOPIC_WEIGHT>
242.05546401
> <PUBCHEM_TOTAL_CHARGE>
0
> <PUBCHEM_HEAVY_ATOM_COUNT>
17
> <PUBCHEM_ATOM_DEF_STEREO_COUNT>
0
> <PUBCHEM_ATOM_UDEF_STEREO_COUNT>
1
> <PUBCHEM_BOND_DEF_STEREO_COUNT>
0
> <PUBCHEM_BOND_UDEF_STEREO_COUNT>
0
> <PUBCHEM_ISOTOPIC_ATOM_COUNT>
0
> <PUBCHEM_COMPONENT_COUNT>
1
> <PUBCHEM_CACTVS_TAUTO_COUNT>
-1
> <PUBCHEM_COORDINATE_TYPE>
1
5
255
> <PUBCHEM_BONDANNOTATIONS>
11  13  8
13  15  8
14  16  8
15  16  8
6  12  3
8  11  8
8  14  8
$$$$
