506535
  -OEChem-10302200282D
 26 27  0     1  0  0  0  0  0999 V2000
    3.7601   -3.6739    0.0000 F   0  0  0  0  0  0  0  0  0  0  0  0
    2.7601   -2.6739    0.0000 F   0  0  0  0  0  0  0  0  0  0  0  0
    4.7601   -2.6739    0.0000 F   0  0  0  0  0  0  0  0  0  0  0  0
    3.2601    2.8649    0.0000 O   0  0  0  0  0  0  0  0  0  0  0  0
    2.0000    1.6048    0.0000 O   0  0  0  0  0  0  0  0  0  0  0  0
    4.2601    2.8649    0.0000 C   0  0  3  0  0  0  0  0  0  0  0  0
    3.7601    1.3261    0.0000 C   0  0  0  0  0  0  0  0  0  0  0  0
    4.5691    1.9139    0.0000 C   0  0  0  0  0  0  0  0  0  0  0  0
    3.7601    0.3261    0.0000 C   0  0  0  0  0  0  0  0  0  0  0  0
    2.9511    1.9139    0.0000 C   0  0  0  0  0  0  0  0  0  0  0  0
    4.8479    3.6739    0.0000 C   0  0  0  0  0  0  0  0  0  0  0  0
    2.8940   -0.1739    0.0000 C   0  0  0  0  0  0  0  0  0  0  0  0
    4.6261   -0.1739    0.0000 C   0  0  0  0  0  0  0  0  0  0  0  0
    3.7601   -1.6739    0.0000 C   0  0  0  0  0  0  0  0  0  0  0  0
    2.8940   -1.1739    0.0000 C   0  0  0  0  0  0  0  0  0  0  0  0
    4.6261   -1.1739    0.0000 C   0  0  0  0  0  0  0  0  0  0  0  0
    3.7601   -2.6739    0.0000 C   0  0  0  0  0  0  0  0  0  0  0  0
    3.9786    3.4173    0.0000 H   0  0  0  0  0  0  0  0  0  0  0  0
    5.1588    1.7223    0.0000 H   0  0  0  0  0  0  0  0  0  0  0  0
    5.3494    3.3095    0.0000 H   0  0  0  0  0  0  0  0  0  0  0  0
    5.2123    4.1755    0.0000 H   0  0  0  0  0  0  0  0  0  0  0  0
    4.3463    4.0384    0.0000 H   0  0  0  0  0  0  0  0  0  0  0  0
    2.3571    0.1361    0.0000 H   0  0  0  0  0  0  0  0  0  0  0  0
    5.1630    0.1361    0.0000 H   0  0  0  0  0  0  0  0  0  0  0  0
    2.3571   -1.4839    0.0000 H   0  0  0  0  0  0  0  0  0  0  0  0
    5.1630   -1.4839    0.0000 H   0  0  0  0  0  0  0  0  0  0  0  0
  1 17  1  0  0  0  0
  2 17  1  0  0  0  0
  3 17  1  0  0  0  0
  4  6  1  0  0  0  0
  4 10  1  0  0  0  0
  5 10  2  0  0  0  0
  6  8  1  0  0  0  0
  6 11  1  0  0  0  0
  6 18  1  0  0  0  0
  7  8  2  0  0  0  0
  7  9  1  0  0  0  0
  7 10  1  0  0  0  0
  8 19  1  0  0  0  0
  9 12  2  0  0  0  0
  9 13  1  0  0  0  0
 11 20  1  0  0  0  0
 11 21  1  0  0  0  0
 11 22  1  0  0  0  0
 12 15  1  0  0  0  0
 12 23  1  0  0  0  0
 13 16  2  0  0  0  0
 13 24  1  0  0  0  0
 14 15  2  0  0  0  0
 14 16  1  0  0  0  0
 14 17  1  0  0  0  0
 15 25  1  0  0  0  0
 16 26  1  0  0  0  0
M  END
> <PUBCHEM_COMPOUND_CID>
506535
> <PUBCHEM_COMPOUND_CANONICALIZED>
1
> <PUBCHEM_CACTVS_COMPLEXITY>
338
> <PUBCHEM_CACTVS_HBOND_ACCEPTOR>
5
> <PUBCHEM_CACTVS_HBOND_DONOR>
0
> <PUBCHEM_CACTVS_ROTATABLE_BOND>
1
> <PUBCHEM_CACTVS_SUBSKEYS>
AAADccBwMYAAAAAAAAAAAAAAAAAAAQAAAAAwAAAAAAAAAAABAAAAGwAAAAAADBSgmBIyCIAABACIAiDSCAACAAAgAAAIiAEAAMgIJDKANRCCMAAkwAEIqYeIyOCOQAAAAAAAAACAAAAAAAAAAAAAAAAAAA==
> <PUBCHEM_IUPAC_OPENEYE_NAME>
2-methyl-4-[4-(trifluoromethyl)phenyl]-2H-furan-5-one
> <PUBCHEM_IUPAC_CAS_NAME>
2-methyl-4-[4-(trifluoromethyl)phenyl]-2H-furan-5-one
> <PUBCHEM_IUPAC_NAME_MARKUP>
2-methyl-4-[4-(trifluoromethyl)phenyl]-2<I>H</I>-furan-5-one
> <PUBCHEM_IUPAC_NAME>
2-methyl-4-[4-(trifluoromethyl)phenyl]-2H-furan-5-one
> <PUBCHEM_IUPAC_SYSTEMATIC_NAME>
2-methyl-4-[4-(trifluoromethyl)phenyl]-2H-furan-5-one
> <PUBCHEM_IUPAC_TRADITIONAL_NAME>
2-methyl-4-[4-(trifluoromethyl)phenyl]-2H-furan-5-one
> <PUBCHEM_IUPAC_INCHI>
InChI=1S/C12H9F3O2/c1-7-6-10(11(16)17-7)8-2-4-9(5-3-8)12(13,14)15/h2-7H,1H3
> <PUBCHEM_IUPAC_INCHIKEY>
PKDRWYXYHZZYHC-UHFFFAOYSA-N
> <PUBCHEM_XLOGP3_AA>
3.1
> <PUBCHEM_EXACT_MASS>
242.05546401
> <PUBCHEM_MOLECULAR_FORMULA>
C12H9F3O2
> <PUBCHEM_MOLECULAR_WEIGHT>
242.19
> <PUBCHEM_OPENEYE_CAN_SMILES>
CC1C=C(C(=O)O1)C2=CC=C(C=C2)C(F)(F)F
> <PUBCHEM_OPENEYE_ISO_SMILES>
CC1C=C(C(=O)O1)C2=CC=C(C=C2)C(F)(F)F
> <PUBCHEM_CACTVS_TPSA>
26.3
> <PUBCHEM_MONOISOTOPIC_WEIGHT>
242.05546401
> <PUBCHEM_TOTAL_CHARGE>
0
> <PUBCHEM_HEAVY_ATOM_COUNT>
17
> <PUBCHEM_ATOM_DEF_STEREO_COUNT>
0
> <PUBCHEM_ATOM_UDEF_STEREO_COUNT>
1
> <PUBCHEM_BOND_DEF_STEREO_COUNT>
0
> <PUBCHEM_BOND_UDEF_STEREO_COUNT>
0
> <PUBCHEM_ISOTOPIC_ATOM_COUNT>
0
> <PUBCHEM_COMPONENT_COUNT>
1
> <PUBCHEM_CACTVS_TAUTO_COUNT>
-1
> <PUBCHEM_COORDINATE_TYPE>
1
5
255
> <PUBCHEM_BONDANNOTATIONS>
12  15  8
13  16  8
14  15  8
14  16  8
6  11  3
9  12  8
9  13  8
$$$$
