506596
  -OEChem-10302200282D
 77 82  0     1  0  0  0  0  0999 V2000
    6.1205    3.1200    0.0000 S   0  0  0  0  0  0  0  0  0  0  0  0
    6.2882    6.6256    0.0000 O   0  0  0  0  0  0  0  0  0  0  0  0
    3.0211    6.5877    0.0000 O   0  0  0  0  0  0  0  0  0  0  0  0
    0.6200    9.8982    0.0000 O   0  0  0  0  0  0  0  0  0  0  0  0
    0.6200    7.9740    0.0000 O   0  0  0  0  0  0  0  0  0  0  0  0
    3.5224    0.6200    0.0000 O   0  0  0  0  0  0  0  0  0  0  0  0
    5.2544    0.6200    0.0000 O   0  0  0  0  0  0  0  0  0  0  0  0
    1.7904    2.6200    0.0000 O   0  0  0  0  0  0  0  0  0  0  0  0
    5.2957   10.7642    0.0000 N   0  0  3  0  0  0  0  0  0  0  0  0
    3.8871    8.0119    0.0000 N   0  0  0  0  0  0  0  0  0  0  0  0
    3.5224    2.6200    0.0000 N   0  0  0  0  0  0  0  0  0  0  0  0
    4.6875    9.3981    0.0000 C   0  0  2  0  0  0  0  0  0  0  0  0
    4.6875    8.4740    0.0000 C   0  0  3  0  0  0  0  0  0  0  0  0
    5.4878    9.8602    0.0000 C   0  0  2  0  0  0  0  0  0  0  0  0
    5.4878    8.0119    0.0000 C   0  0  1  0  0  0  0  0  0  0  0  0
    6.2882    8.4740    0.0000 C   0  0  1  0  0  0  0  0  0  0  0  0
    6.2882    9.3981    0.0000 C   0  0  0  0  0  0  0  0  0  0  0  0
    4.0007   10.0165    0.0000 C   0  0  0  0  0  0  0  0  0  0  0  0
    3.0868    9.3981    0.0000 C   0  0  0  0  0  0  0  0  0  0  0  0
    4.3766   10.8608    0.0000 C   0  0  0  0  0  0  0  0  0  0  0  0
    5.4878    7.0877    0.0000 C   0  0  3  0  0  0  0  0  0  0  0  0
    7.1485    8.1363    0.0000 C   0  0  0  0  0  0  0  0  0  0  0  0
    7.1127    9.9629    0.0000 C   0  0  0  0  0  0  0  0  0  0  0  0
    3.0868    8.4740    0.0000 C   0  0  0  0  0  0  0  0  0  0  0  0
    4.6875    6.6256    0.0000 C   0  0  0  0  0  0  0  0  0  0  0  0
    3.8871    7.0877    0.0000 C   0  0  0  0  0  0  0  0  0  0  0  0
    2.2864    9.8602    0.0000 C   0  0  0  0  0  0  0  0  0  0  0  0
    7.4618    7.4984    0.0000 C   0  0  0  0  0  0  0  0  0  0  0  0
    7.0100    6.6359    0.0000 C   0  0  0  0  0  0  0  0  0  0  0  0
    2.2864    8.0119    0.0000 C   0  0  0  0  0  0  0  0  0  0  0  0
    1.4860    9.3981    0.0000 C   0  0  0  0  0  0  0  0  0  0  0  0
    1.4860    8.4740    0.0000 C   0  0  0  0  0  0  0  0  0  0  0  0
    0.6200   10.8981    0.0000 C   0  0  0  0  0  0  0  0  0  0  0  0
    0.6200    6.9740    0.0000 C   0  0  0  0  0  0  0  0  0  0  0  0
    5.2544    2.6200    0.0000 C   0  0  0  0  0  0  0  0  0  0  0  0
    4.3884    2.1200    0.0000 C   0  0  2  0  0  0  0  0  0  0  0  0
    5.7544    1.7540    0.0000 C   0  0  0  0  0  0  0  0  0  0  0  0
    4.7544    3.4860    0.0000 C   0  0  0  0  0  0  0  0  0  0  0  0
    4.3884    1.1200    0.0000 C   0  0  0  0  0  0  0  0  0  0  0  0
    2.6564    2.1200    0.0000 C   0  0  0  0  0  0  0  0  0  0  0  0
    4.1505    8.7840    0.0000 H   0  0  0  0  0  0  0  0  0  0  0  0
    6.2303   10.2741    0.0000 H   0  0  0  0  0  0  0  0  0  0  0  0
    6.2240    7.5869    0.0000 H   0  0  0  0  0  0  0  0  0  0  0  0
    6.9905    8.9528    0.0000 H   0  0  0  0  0  0  0  0  0  0  0  0
    6.8988    9.2905    0.0000 H   0  0  0  0  0  0  0  0  0  0  0  0
    6.5002    9.9808    0.0000 H   0  0  0  0  0  0  0  0  0  0  0  0
    3.4637   10.3265    0.0000 H   0  0  0  0  0  0  0  0  0  0  0  0
    3.6362    9.5149    0.0000 H   0  0  0  0  0  0  0  0  0  0  0  0
    4.5055   11.4673    0.0000 H   0  0  0  0  0  0  0  0  0  0  0  0
    3.7869   11.0524    0.0000 H   0  0  0  0  0  0  0  0  0  0  0  0
    5.4878    6.4677    0.0000 H   0  0  0  0  0  0  0  0  0  0  0  0
    7.7278    9.8854    0.0000 H   0  0  0  0  0  0  0  0  0  0  0  0
    7.2782   10.5604    0.0000 H   0  0  0  0  0  0  0  0  0  0  0  0
    4.2890    6.1507    0.0000 H   0  0  0  0  0  0  0  0  0  0  0  0
    5.0860    6.1507    0.0000 H   0  0  0  0  0  0  0  0  0  0  0  0
    2.2864   10.4802    0.0000 H   0  0  0  0  0  0  0  0  0  0  0  0
    8.0817    7.4904    0.0000 H   0  0  0  0  0  0  0  0  0  0  0  0
    6.9165    6.0230    0.0000 H   0  0  0  0  0  0  0  0  0  0  0  0
    7.5991    6.4427    0.0000 H   0  0  0  0  0  0  0  0  0  0  0  0
    2.2864    7.3919    0.0000 H   0  0  0  0  0  0  0  0  0  0  0  0
    1.2400   10.8981    0.0000 H   0  0  0  0  0  0  0  0  0  0  0  0
    0.6200   11.5181    0.0000 H   0  0  0  0  0  0  0  0  0  0  0  0
    0.0000   10.8981    0.0000 H   0  0  0  0  0  0  0  0  0  0  0  0
    0.0000    6.9740    0.0000 H   0  0  0  0  0  0  0  0  0  0  0  0
    0.6200    6.3540    0.0000 H   0  0  0  0  0  0  0  0  0  0  0  0
    1.2400    6.9740    0.0000 H   0  0  0  0  0  0  0  0  0  0  0  0
    4.3884    2.7400    0.0000 H   0  0  0  0  0  0  0  0  0  0  0  0
    5.2175    1.4440    0.0000 H   0  0  0  0  0  0  0  0  0  0  0  0
    6.0644    1.2170    0.0000 H   0  0  0  0  0  0  0  0  0  0  0  0
    6.2914    2.0640    0.0000 H   0  0  0  0  0  0  0  0  0  0  0  0
    5.2914    3.7960    0.0000 H   0  0  0  0  0  0  0  0  0  0  0  0
    4.4444    4.0230    0.0000 H   0  0  0  0  0  0  0  0  0  0  0  0
    4.2175    3.1760    0.0000 H   0  0  0  0  0  0  0  0  0  0  0  0
    3.5224    3.2400    0.0000 H   0  0  0  0  0  0  0  0  0  0  0  0
    6.1205    3.7400    0.0000 H   0  0  0  0  0  0  0  0  0  0  0  0
    2.6564    1.5000    0.0000 H   0  0  0  0  0  0  0  0  0  0  0  0
    3.5224    0.0000    0.0000 H   0  0  0  0  0  0  0  0  0  0  0  0
  1 35  1  0  0  0  0
  1 75  1  0  0  0  0
  2 21  1  0  0  0  0
  2 29  1  0  0  0  0
  3 26  2  0  0  0  0
  4 31  1  0  0  0  0
  4 33  1  0  0  0  0
  5 32  1  0  0  0  0
  5 34  1  0  0  0  0
  6 39  1  0  0  0  0
  6 77  1  0  0  0  0
  7 39  2  0  0  0  0
  8 40  2  0  0  0  0
  9 14  1  0  0  0  0
  9 20  1  0  0  0  0
  9 23  1  0  0  0  0
 10 13  1  0  0  0  0
 10 24  1  0  0  0  0
 10 26  1  0  0  0  0
 36 11  1  6  0  0  0
 11 40  1  0  0  0  0
 11 74  1  0  0  0  0
 12 13  1  0  0  0  0
 12 14  1  0  0  0  0
 12 18  1  0  0  0  0
 12 19  1  6  0  0  0
 13 15  1  0  0  0  0
 13 41  1  0  0  0  0
 14 17  1  0  0  0  0
 14 42  1  6  0  0  0
 15 16  1  0  0  0  0
 15 21  1  0  0  0  0
 15 43  1  6  0  0  0
 16 17  1  0  0  0  0
 16 22  1  0  0  0  0
 16 44  1  6  0  0  0
 17 45  1  0  0  0  0
 17 46  1  0  0  0  0
 18 20  1  0  0  0  0
 18 47  1  0  0  0  0
 18 48  1  0  0  0  0
 19 24  1  0  0  0  0
 19 27  2  0  0  0  0
 20 49  1  0  0  0  0
 20 50  1  0  0  0  0
 21 25  1  0  0  0  0
 21 51  1  0  0  0  0
 22 23  1  0  0  0  0
 22 28  2  0  0  0  0
 23 52  1  0  0  0  0
 23 53  1  0  0  0  0
 24 30  2  0  0  0  0
 25 26  1  0  0  0  0
 25 54  1  0  0  0  0
 25 55  1  0  0  0  0
 27 31  1  0  0  0  0
 27 56  1  0  0  0  0
 28 29  1  0  0  0  0
 28 57  1  0  0  0  0
 29 58  1  0  0  0  0
 29 59  1  0  0  0  0
 30 32  1  0  0  0  0
 30 60  1  0  0  0  0
 31 32  2  0  0  0  0
 33 61  1  0  0  0  0
 33 62  1  0  0  0  0
 33 63  1  0  0  0  0
 34 64  1  0  0  0  0
 34 65  1  0  0  0  0
 34 66  1  0  0  0  0
 35 36  1  0  0  0  0
 35 37  1  0  0  0  0
 35 38  1  0  0  0  0
 36 39  1  0  0  0  0
 36 67  1  0  0  0  0
 37 68  1  0  0  0  0
 37 69  1  0  0  0  0
 37 70  1  0  0  0  0
 38 71  1  0  0  0  0
 38 72  1  0  0  0  0
 38 73  1  0  0  0  0
 40 76  1  0  0  0  0
M  END
> <PUBCHEM_COMPOUND_CID>
506596
> <PUBCHEM_COMPOUND_CANONICALIZED>
1
> <PUBCHEM_CACTVS_COMPLEXITY>
954
> <PUBCHEM_CACTVS_HBOND_ACCEPTOR>
9
> <PUBCHEM_CACTVS_HBOND_DONOR>
3
> <PUBCHEM_CACTVS_ROTATABLE_BOND>
5
> <PUBCHEM_CACTVS_SUBSKEYS>
AAADcfB7OABAAAAAAAAAAAAAAAAAAWLAAAA8eIEABAAAAFgBAAAAHgQQCAAADzzh2AYyzoPABgSIAiXS2ACCCAAhIgAAiIGO7IgPJjbE8buGcCpm5hna6Ae42fOfoEABAgACQADQgAaECCSAAAAAAAAAAA==
> <PUBCHEM_IUPAC_OPENEYE_NAME>
(4aR,5aS,8aR,15bR)-10,11-dimethoxy-4a,5,5a,7,8,13a,15,15a,15b,16-decahydro-2H-4,6-methanoindolo[3,2,1-ij]oxepino[2,3,4-de]pyrrolo[2,3-h]quinolin-14-one;(2S)-2-formamido-3-methyl-3-sulfanyl-butanoic acid
> <PUBCHEM_IUPAC_CAS_NAME>
(4aR,5aS,8aR,15bR)-10,11-dimethoxy-4a,5,5a,7,8,13a,15,15a,15b,16-decahydro-2H-4,6-methanoindolo[3,2,1-ij]oxepino[2,3,4-de]pyrrolo[2,3-h]quinolin-14-one;(2S)-2-formamido-3-mercapto-3-methylbutanoic acid
> <PUBCHEM_IUPAC_NAME_MARKUP>
(4<I>a</I><I>R</I>,5<I>a</I><I>S</I>,8<I>a</I><I>R</I>,15<I>b</I><I>R</I>)-10,11-dimethoxy-4<I>a</I>,5,5<I>a</I>,7,8,13<I>a</I>,15,15<I>a</I>,15<I>b</I>,16-decahydro-2<I>H</I>-4,6-methanoindolo[3,2,1-ij]oxepino[2,3,4-de]pyrrolo[2,3-h]quinolin-14-one;(2<I>S</I>)-2-formamido-3-methyl-3-sulfanylbutanoic acid
> <PUBCHEM_IUPAC_NAME>
(4aR,5aS,8aR,15bR)-10,11-dimethoxy-4a,5,5a,7,8,13a,15,15a,15b,16-decahydro-2H-4,6-methanoindolo[3,2,1-ij]oxepino[2,3,4-de]pyrrolo[2,3-h]quinolin-14-one;(2S)-2-formamido-3-methyl-3-sulfanylbutanoic acid
> <PUBCHEM_IUPAC_SYSTEMATIC_NAME>
(4aR,5aS,8aR,15bR)-10,11-dimethoxy-4a,5,5a,7,8,13a,15,15a,15b,16-decahydro-2H-4,6-methanoindolo[3,2,1-ij]oxepino[2,3,4-de]pyrrolo[2,3-h]quinolin-14-one;(2S)-2-formamido-3-methyl-3-sulfanyl-butanoic acid
> <PUBCHEM_IUPAC_TRADITIONAL_NAME>
(4aR,5aS,8aR,15bR)-10,11-dimethoxy-4a,5,5a,7,8,13a,15,15a,15b,16-decahydro-2H-4,6-methanoindolo[3,2,1-ij]oxepino[2,3,4-de]pyrrolo[2,3-h]quinolin-14-one;(2S)-2-formamido-3-mercapto-3-methyl-butyric acid
> <PUBCHEM_IUPAC_INCHI>
InChI=1S/C23H26N2O4.C6H11NO3S/c1-27-16-8-14-15(9-17(16)28-2)25-20(26)10-18-21-13-7-19-23(14,22(21)25)4-5-24(19)11-12(13)3-6-29-18;1-6(2,11)4(5(9)10)7-3-8/h3,8-9,13,18-19,21-22H,4-7,10-11H2,1-2H3;3-4,11H,1-2H3,(H,7,8)(H,9,10)/t13-,18?,19-,21-,22?,23+;4-/m00/s1
> <PUBCHEM_IUPAC_INCHIKEY>
RDRNOISNOZEWSN-OALHBVCUSA-N
> <PUBCHEM_EXACT_MASS>
571.23522170
> <PUBCHEM_MOLECULAR_FORMULA>
C29H37N3O7S
> <PUBCHEM_MOLECULAR_WEIGHT>
571.7
> <PUBCHEM_OPENEYE_CAN_SMILES>
CC(C)(C(C(=O)O)NC=O)S.COC1=C(C=C2C(=C1)C34CCN5C3CC6C7C4N2C(=O)CC7OCC=C6C5)OC
> <PUBCHEM_OPENEYE_ISO_SMILES>
CC(C)([C@H](C(=O)O)NC=O)S.COC1=C(C=C2C(=C1)[C@]34CCN5[C@H]3C[C@@H]6[C@@H]7C4N2C(=O)CC7OCC=C6C5)OC
> <PUBCHEM_CACTVS_TPSA>
119
> <PUBCHEM_MONOISOTOPIC_WEIGHT>
571.23522170
> <PUBCHEM_TOTAL_CHARGE>
0
> <PUBCHEM_HEAVY_ATOM_COUNT>
40
> <PUBCHEM_ATOM_DEF_STEREO_COUNT>
5
> <PUBCHEM_ATOM_UDEF_STEREO_COUNT>
2
> <PUBCHEM_BOND_DEF_STEREO_COUNT>
0
> <PUBCHEM_BOND_UDEF_STEREO_COUNT>
0
> <PUBCHEM_ISOTOPIC_ATOM_COUNT>
0
> <PUBCHEM_COMPONENT_COUNT>
2
> <PUBCHEM_CACTVS_TAUTO_COUNT>
-1
> <PUBCHEM_COORDINATE_TYPE>
1
5
255
> <PUBCHEM_BONDANNOTATIONS>
13  10  3
36  11  6
12  19  6
14  42  6
15  43  6
16  44  6
19  24  8
19  27  8
21  25  3
24  30  8
27  31  8
30  32  8
31  32  8
$$$$
