506559
  -OEChem-10302200282D
 35 36  0     1  0  0  0  0  0999 V2000
    2.0280   -4.3965    0.0000 Cl  0  0  0  0  0  0  0  0  0  0  0  0
    3.2601    0.1424    0.0000 O   0  0  0  0  0  0  0  0  0  0  0  0
    2.0000   -1.1177    0.0000 O   0  0  0  0  0  0  0  0  0  0  0  0
    4.8479    0.9514    0.0000 C   0  0  0  0  0  0  0  0  0  0  0  0
    4.2601    0.1424    0.0000 C   0  0  3  0  0  0  0  0  0  0  0  0
    4.4411    1.8649    0.0000 C   0  0  0  0  0  0  0  0  0  0  0  0
    5.0289    2.6739    0.0000 C   0  0  0  0  0  0  0  0  0  0  0  0
    4.5691   -0.8087    0.0000 C   0  0  0  0  0  0  0  0  0  0  0  0
    4.6222    3.5875    0.0000 C   0  0  0  0  0  0  0  0  0  0  0  0
    3.7601   -1.3965    0.0000 C   0  0  0  0  0  0  0  0  0  0  0  0
    2.9511   -0.8087    0.0000 C   0  0  0  0  0  0  0  0  0  0  0  0
    3.7601   -2.3965    0.0000 C   0  0  0  0  0  0  0  0  0  0  0  0
    5.2100    4.3965    0.0000 C   0  0  0  0  0  0  0  0  0  0  0  0
    2.8940   -2.8965    0.0000 C   0  0  0  0  0  0  0  0  0  0  0  0
    4.6261   -2.8965    0.0000 C   0  0  0  0  0  0  0  0  0  0  0  0
    2.8940   -3.8965    0.0000 C   0  0  0  0  0  0  0  0  0  0  0  0
    4.6261   -3.8965    0.0000 C   0  0  0  0  0  0  0  0  0  0  0  0
    3.7601   -4.3965    0.0000 C   0  0  0  0  0  0  0  0  0  0  0  0
    5.2786    0.5054    0.0000 H   0  0  0  0  0  0  0  0  0  0  0  0
    5.3619    1.2981    0.0000 H   0  0  0  0  0  0  0  0  0  0  0  0
    3.9786    0.6948    0.0000 H   0  0  0  0  0  0  0  0  0  0  0  0
    4.0104    2.3109    0.0000 H   0  0  0  0  0  0  0  0  0  0  0  0
    3.9271    1.5182    0.0000 H   0  0  0  0  0  0  0  0  0  0  0  0
    5.4596    2.2279    0.0000 H   0  0  0  0  0  0  0  0  0  0  0  0
    5.5429    3.0206    0.0000 H   0  0  0  0  0  0  0  0  0  0  0  0
    5.1588   -1.0003    0.0000 H   0  0  0  0  0  0  0  0  0  0  0  0
    4.1915    4.0335    0.0000 H   0  0  0  0  0  0  0  0  0  0  0  0
    4.1082    3.2408    0.0000 H   0  0  0  0  0  0  0  0  0  0  0  0
    5.7116    4.0321    0.0000 H   0  0  0  0  0  0  0  0  0  0  0  0
    5.5744    4.8981    0.0000 H   0  0  0  0  0  0  0  0  0  0  0  0
    4.7084    4.7609    0.0000 H   0  0  0  0  0  0  0  0  0  0  0  0
    2.3571   -2.5865    0.0000 H   0  0  0  0  0  0  0  0  0  0  0  0
    5.1630   -2.5865    0.0000 H   0  0  0  0  0  0  0  0  0  0  0  0
    5.1630   -4.2065    0.0000 H   0  0  0  0  0  0  0  0  0  0  0  0
    3.7601   -5.0165    0.0000 H   0  0  0  0  0  0  0  0  0  0  0  0
  1 16  1  0  0  0  0
  2  5  1  0  0  0  0
  2 11  1  0  0  0  0
  3 11  2  0  0  0  0
  4  5  1  0  0  0  0
  4  6  1  0  0  0  0
  4 19  1  0  0  0  0
  4 20  1  0  0  0  0
  5  8  1  0  0  0  0
  5 21  1  0  0  0  0
  6  7  1  0  0  0  0
  6 22  1  0  0  0  0
  6 23  1  0  0  0  0
  7  9  1  0  0  0  0
  7 24  1  0  0  0  0
  7 25  1  0  0  0  0
  8 10  2  0  0  0  0
  8 26  1  0  0  0  0
  9 13  1  0  0  0  0
  9 27  1  0  0  0  0
  9 28  1  0  0  0  0
 10 11  1  0  0  0  0
 10 12  1  0  0  0  0
 12 14  2  0  0  0  0
 12 15  1  0  0  0  0
 13 29  1  0  0  0  0
 13 30  1  0  0  0  0
 13 31  1  0  0  0  0
 14 16  1  0  0  0  0
 14 32  1  0  0  0  0
 15 17  2  0  0  0  0
 15 33  1  0  0  0  0
 16 18  2  0  0  0  0
 17 18  1  0  0  0  0
 17 34  1  0  0  0  0
 18 35  1  0  0  0  0
M  END
> <PUBCHEM_COMPOUND_CID>
506559
> <PUBCHEM_COMPOUND_CANONICALIZED>
1
> <PUBCHEM_CACTVS_COMPLEXITY>
325
> <PUBCHEM_CACTVS_HBOND_ACCEPTOR>
2
> <PUBCHEM_CACTVS_HBOND_DONOR>
0
> <PUBCHEM_CACTVS_ROTATABLE_BOND>
5
> <PUBCHEM_CACTVS_SUBSKEYS>
AAADceBwMAAEAAAAAAAAAAAAAAAAAQAAAAAwAAAAAAAAAAABAAAAGgIAAAAADBagmCIyCIAABACIAiDSCAACAAAgBQAIiAEAAsgIJDKBNxCCMAAkwAEIqYeIyKCOAAAAIAAAAAAAAABAAAAAAAAAAAAAAA==
> <PUBCHEM_IUPAC_OPENEYE_NAME>
4-(3-chlorophenyl)-2-pentyl-2H-furan-5-one
> <PUBCHEM_IUPAC_CAS_NAME>
4-(3-chlorophenyl)-2-pentyl-2H-furan-5-one
> <PUBCHEM_IUPAC_NAME_MARKUP>
4-(3-chlorophenyl)-2-pentyl-2<I>H</I>-furan-5-one
> <PUBCHEM_IUPAC_NAME>
4-(3-chlorophenyl)-2-pentyl-2H-furan-5-one
> <PUBCHEM_IUPAC_SYSTEMATIC_NAME>
4-(3-chlorophenyl)-2-pentyl-2H-furan-5-one
> <PUBCHEM_IUPAC_TRADITIONAL_NAME>
2-amyl-4-(3-chlorophenyl)-2H-furan-5-one
> <PUBCHEM_IUPAC_INCHI>
InChI=1S/C15H17ClO2/c1-2-3-4-8-13-10-14(15(17)18-13)11-6-5-7-12(16)9-11/h5-7,9-10,13H,2-4,8H2,1H3
> <PUBCHEM_IUPAC_INCHIKEY>
CCIGBQLBLBEQOY-UHFFFAOYSA-N
> <PUBCHEM_XLOGP3_AA>
4.9
> <PUBCHEM_EXACT_MASS>
264.0917075
> <PUBCHEM_MOLECULAR_FORMULA>
C15H17ClO2
> <PUBCHEM_MOLECULAR_WEIGHT>
264.74
> <PUBCHEM_OPENEYE_CAN_SMILES>
CCCCCC1C=C(C(=O)O1)C2=CC(=CC=C2)Cl
> <PUBCHEM_OPENEYE_ISO_SMILES>
CCCCCC1C=C(C(=O)O1)C2=CC(=CC=C2)Cl
> <PUBCHEM_CACTVS_TPSA>
26.3
> <PUBCHEM_MONOISOTOPIC_WEIGHT>
264.0917075
> <PUBCHEM_TOTAL_CHARGE>
0
> <PUBCHEM_HEAVY_ATOM_COUNT>
18
> <PUBCHEM_ATOM_DEF_STEREO_COUNT>
0
> <PUBCHEM_ATOM_UDEF_STEREO_COUNT>
1
> <PUBCHEM_BOND_DEF_STEREO_COUNT>
0
> <PUBCHEM_BOND_UDEF_STEREO_COUNT>
0
> <PUBCHEM_ISOTOPIC_ATOM_COUNT>
0
> <PUBCHEM_COMPONENT_COUNT>
1
> <PUBCHEM_CACTVS_TAUTO_COUNT>
-1
> <PUBCHEM_COORDINATE_TYPE>
1
5
255
> <PUBCHEM_BONDANNOTATIONS>
12  14  8
12  15  8
14  16  8
15  17  8
16  18  8
17  18  8
5  4  3
$$$$
