506575
  -OEChem-10302200282D
130131  0     1  0  0  0  0  0999 V2000
   12.3923   -1.3100    0.0000 O   0  0  0  0  0  0  0  0  0  0  0  0
   11.5263    2.1900    0.0000 O   0  0  0  0  0  0  0  0  0  0  0  0
    8.9282   -2.3100    0.0000 O   0  0  0  0  0  0  0  0  0  0  0  0
    8.0622    3.1900    0.0000 O   0  0  0  0  0  0  0  0  0  0  0  0
    7.1962    3.6900    0.0000 O   0  0  0  0  0  0  0  0  0  0  0  0
    4.5981    6.1900    0.0000 O   0  0  0  0  0  0  0  0  0  0  0  0
    8.9282   -8.3100    0.0000 O   0  0  0  0  0  0  0  0  0  0  0  0
    4.5981    8.1900    0.0000 O   0  0  0  0  0  0  0  0  0  0  0  0
    6.3301    8.1900    0.0000 O   0  0  0  0  0  0  0  0  0  0  0  0
    2.8660    2.1900    0.0000 O   0  0  0  0  0  0  0  0  0  0  0  0
    2.0000    3.6900    0.0000 O   0  0  0  0  0  0  0  0  0  0  0  0
    3.7320    6.6900    0.0000 O   0  0  0  0  0  0  0  0  0  0  0  0
   10.6603    0.6900    0.0000 N   0  0  0  0  0  0  0  0  0  0  0  0
   10.6603   -1.3100    0.0000 N   0  0  0  0  0  0  0  0  0  0  0  0
    9.7942    3.1900    0.0000 N   0  0  0  0  0  0  0  0  0  0  0  0
    8.0622    5.1900    0.0000 N   0  0  0  0  0  0  0  0  0  0  0  0
    5.4641    4.6900    0.0000 N   0  0  0  0  0  0  0  0  0  0  0  0
    2.8660    5.1900    0.0000 N   0  0  0  0  0  0  0  0  0  0  0  0
   12.3923    0.6900    0.0000 C   0  0  0  0  0  0  0  0  0  0  0  0
   13.2583    0.1900    0.0000 C   0  0  0  0  0  0  0  0  0  0  0  0
   12.3923    1.6900    0.0000 C   0  0  0  0  0  0  0  0  0  0  0  0
   11.5263    0.1900    0.0000 C   0  0  1  0  0  0  0  0  0  0  0  0
   14.1244    0.6900    0.0000 C   0  0  0  0  0  0  0  0  0  0  0  0
   13.2583    2.1900    0.0000 C   0  0  0  0  0  0  0  0  0  0  0  0
   14.1244    1.6900    0.0000 C   0  0  0  0  0  0  0  0  0  0  0  0
   11.5263   -0.8100    0.0000 C   0  0  0  0  0  0  0  0  0  0  0  0
    9.7942    2.1900    0.0000 C   0  0  2  0  0  0  0  0  0  0  0  0
   10.6603    1.6900    0.0000 C   0  0  0  0  0  0  0  0  0  0  0  0
    8.9282    1.6900    0.0000 C   0  0  2  0  0  0  0  0  0  0  0  0
   10.6603   -2.3100    0.0000 C   0  0  1  0  0  0  0  0  0  0  0  0
    8.0622    2.1900    0.0000 C   0  0  0  0  0  0  0  0  0  0  0  0
    8.9282    0.6900    0.0000 C   0  0  0  0  0  0  0  0  0  0  0  0
   11.5263   -2.8100    0.0000 C   0  0  0  0  0  0  0  0  0  0  0  0
    9.7942   -2.8100    0.0000 C   0  0  0  0  0  0  0  0  0  0  0  0
    8.9282    3.6900    0.0000 C   0  0  0  0  0  0  0  0  0  0  0  0
    8.9282    4.6900    0.0000 C   0  0  2  0  0  0  0  0  0  0  0  0
    7.1962    1.6900    0.0000 C   0  0  0  0  0  0  0  0  0  0  0  0
    9.7942    5.1900    0.0000 C   0  0  0  0  0  0  0  0  0  0  0  0
    9.7942   -3.8100    0.0000 C   0  0  0  0  0  0  0  0  0  0  0  0
   12.3923   -2.3100    0.0000 C   0  0  0  0  0  0  0  0  0  0  0  0
    9.7942    6.1900    0.0000 C   0  0  0  0  0  0  0  0  0  0  0  0
    8.9282   -4.3100    0.0000 C   0  0  0  0  0  0  0  0  0  0  0  0
   10.6603    6.6900    0.0000 C   0  0  0  0  0  0  0  0  0  0  0  0
    8.9282    6.6900    0.0000 C   0  0  0  0  0  0  0  0  0  0  0  0
    7.1962    4.6900    0.0000 C   0  0  0  0  0  0  0  0  0  0  0  0
    6.3301    5.1900    0.0000 C   0  0  1  0  0  0  0  0  0  0  0  0
    8.9282   -5.3100    0.0000 C   0  0  0  0  0  0  0  0  0  0  0  0
    6.3301    6.1900    0.0000 C   0  0  0  0  0  0  0  0  0  0  0  0
    5.4641    6.6900    0.0000 C   0  0  0  0  0  0  0  0  0  0  0  0
    9.7942   -5.8100    0.0000 C   0  0  0  0  0  0  0  0  0  0  0  0
    8.0622   -5.8100    0.0000 C   0  0  0  0  0  0  0  0  0  0  0  0
    4.5981    5.1900    0.0000 C   0  0  0  0  0  0  0  0  0  0  0  0
    3.7320    4.6900    0.0000 C   0  0  2  0  0  0  0  0  0  0  0  0
    9.7942   -6.8100    0.0000 C   0  0  0  0  0  0  0  0  0  0  0  0
    8.0622   -6.8100    0.0000 C   0  0  0  0  0  0  0  0  0  0  0  0
    8.9282   -7.3100    0.0000 C   0  0  0  0  0  0  0  0  0  0  0  0
    5.4641    7.6900    0.0000 C   0  0  0  0  0  0  0  0  0  0  0  0
    3.7320    3.6900    0.0000 C   0  0  0  0  0  0  0  0  0  0  0  0
    2.8660    3.1900    0.0000 C   0  0  0  0  0  0  0  0  0  0  0  0
    2.8660    6.1900    0.0000 C   0  0  0  0  0  0  0  0  0  0  0  0
    8.0622   -8.8100    0.0000 C   0  0  0  0  0  0  0  0  0  0  0  0
    2.0000    6.6900    0.0000 C   0  0  0  0  0  0  0  0  0  0  0  0
   11.8554    1.0000    0.0000 H   0  0  0  0  0  0  0  0  0  0  0  0
   12.8598   -0.2849    0.0000 H   0  0  0  0  0  0  0  0  0  0  0  0
   13.6569   -0.2849    0.0000 H   0  0  0  0  0  0  0  0  0  0  0  0
   12.1803    2.2726    0.0000 H   0  0  0  0  0  0  0  0  0  0  0  0
   11.7817    1.5823    0.0000 H   0  0  0  0  0  0  0  0  0  0  0  0
   10.9893   -0.1200    0.0000 H   0  0  0  0  0  0  0  0  0  0  0  0
   14.3364    0.1074    0.0000 H   0  0  0  0  0  0  0  0  0  0  0  0
   14.7349    0.7977    0.0000 H   0  0  0  0  0  0  0  0  0  0  0  0
   13.6569    2.6650    0.0000 H   0  0  0  0  0  0  0  0  0  0  0  0
   12.8598    2.6650    0.0000 H   0  0  0  0  0  0  0  0  0  0  0  0
   14.7349    1.5823    0.0000 H   0  0  0  0  0  0  0  0  0  0  0  0
   14.3364    2.2726    0.0000 H   0  0  0  0  0  0  0  0  0  0  0  0
   10.1233    0.3800    0.0000 H   0  0  0  0  0  0  0  0  0  0  0  0
    9.2573    2.5000    0.0000 H   0  0  0  0  0  0  0  0  0  0  0  0
    9.4651    1.3800    0.0000 H   0  0  0  0  0  0  0  0  0  0  0  0
   10.1233   -1.0000    0.0000 H   0  0  0  0  0  0  0  0  0  0  0  0
   11.1972   -2.0000    0.0000 H   0  0  0  0  0  0  0  0  0  0  0  0
   10.3312    3.5000    0.0000 H   0  0  0  0  0  0  0  0  0  0  0  0
    8.4607    2.6650    0.0000 H   0  0  0  0  0  0  0  0  0  0  0  0
    7.6636    2.6650    0.0000 H   0  0  0  0  0  0  0  0  0  0  0  0
    8.3082    0.6900    0.0000 H   0  0  0  0  0  0  0  0  0  0  0  0
    8.9282    0.0700    0.0000 H   0  0  0  0  0  0  0  0  0  0  0  0
    9.5482    0.6900    0.0000 H   0  0  0  0  0  0  0  0  0  0  0  0
   11.1278   -3.2850    0.0000 H   0  0  0  0  0  0  0  0  0  0  0  0
   11.9248   -3.2850    0.0000 H   0  0  0  0  0  0  0  0  0  0  0  0
    8.9282    5.3100    0.0000 H   0  0  0  0  0  0  0  0  0  0  0  0
    6.8862    2.2269    0.0000 H   0  0  0  0  0  0  0  0  0  0  0  0
    6.6592    1.3800    0.0000 H   0  0  0  0  0  0  0  0  0  0  0  0
    7.5062    1.1531    0.0000 H   0  0  0  0  0  0  0  0  0  0  0  0
   10.0063    4.6074    0.0000 H   0  0  0  0  0  0  0  0  0  0  0  0
   10.4048    5.2977    0.0000 H   0  0  0  0  0  0  0  0  0  0  0  0
   10.0063   -4.3926    0.0000 H   0  0  0  0  0  0  0  0  0  0  0  0
   10.4048   -3.7023    0.0000 H   0  0  0  0  0  0  0  0  0  0  0  0
   12.7023   -2.8469    0.0000 H   0  0  0  0  0  0  0  0  0  0  0  0
   12.9292   -2.0000    0.0000 H   0  0  0  0  0  0  0  0  0  0  0  0
   12.0823   -1.7731    0.0000 H   0  0  0  0  0  0  0  0  0  0  0  0
    9.2573    5.8800    0.0000 H   0  0  0  0  0  0  0  0  0  0  0  0
    8.0622    5.8100    0.0000 H   0  0  0  0  0  0  0  0  0  0  0  0
    8.7162   -3.7274    0.0000 H   0  0  0  0  0  0  0  0  0  0  0  0
    8.3176   -4.4177    0.0000 H   0  0  0  0  0  0  0  0  0  0  0  0
   10.9703    6.1531    0.0000 H   0  0  0  0  0  0  0  0  0  0  0  0
   11.1972    7.0000    0.0000 H   0  0  0  0  0  0  0  0  0  0  0  0
   10.3503    7.2269    0.0000 H   0  0  0  0  0  0  0  0  0  0  0  0
    9.2382    7.2269    0.0000 H   0  0  0  0  0  0  0  0  0  0  0  0
    8.3913    7.0000    0.0000 H   0  0  0  0  0  0  0  0  0  0  0  0
    8.6182    6.1531    0.0000 H   0  0  0  0  0  0  0  0  0  0  0  0
    5.7932    5.5000    0.0000 H   0  0  0  0  0  0  0  0  0  0  0  0
    6.9407    6.0823    0.0000 H   0  0  0  0  0  0  0  0  0  0  0  0
    6.5422    6.7726    0.0000 H   0  0  0  0  0  0  0  0  0  0  0  0
    5.4641    4.0700    0.0000 H   0  0  0  0  0  0  0  0  0  0  0  0
    4.8535    6.7977    0.0000 H   0  0  0  0  0  0  0  0  0  0  0  0
    5.2520    6.1074    0.0000 H   0  0  0  0  0  0  0  0  0  0  0  0
   10.3312   -5.5000    0.0000 H   0  0  0  0  0  0  0  0  0  0  0  0
    7.5252   -5.5000    0.0000 H   0  0  0  0  0  0  0  0  0  0  0  0
    3.7320    5.3100    0.0000 H   0  0  0  0  0  0  0  0  0  0  0  0
   10.3312   -7.1200    0.0000 H   0  0  0  0  0  0  0  0  0  0  0  0
    7.5252   -7.1200    0.0000 H   0  0  0  0  0  0  0  0  0  0  0  0
    3.9441    3.1074    0.0000 H   0  0  0  0  0  0  0  0  0  0  0  0
    4.3426    3.7977    0.0000 H   0  0  0  0  0  0  0  0  0  0  0  0
    2.3291    4.8800    0.0000 H   0  0  0  0  0  0  0  0  0  0  0  0
    4.5981    8.8100    0.0000 H   0  0  0  0  0  0  0  0  0  0  0  0
    2.3100    7.2269    0.0000 H   0  0  0  0  0  0  0  0  0  0  0  0
    1.4631    7.0000    0.0000 H   0  0  0  0  0  0  0  0  0  0  0  0
    1.6900    6.1531    0.0000 H   0  0  0  0  0  0  0  0  0  0  0  0
    7.7522   -8.2731    0.0000 H   0  0  0  0  0  0  0  0  0  0  0  0
    7.5252   -9.1200    0.0000 H   0  0  0  0  0  0  0  0  0  0  0  0
    8.3722   -9.3469    0.0000 H   0  0  0  0  0  0  0  0  0  0  0  0
    2.3291    1.8800    0.0000 H   0  0  0  0  0  0  0  0  0  0  0  0
  1 26  2  0  0  0  0
  2 28  2  0  0  0  0
  3 34  2  0  0  0  0
  4 35  2  0  0  0  0
  5 45  2  0  0  0  0
  6 52  2  0  0  0  0
  7 56  1  0  0  0  0
  7 61  1  0  0  0  0
  8 57  1  0  0  0  0
  8123  1  0  0  0  0
  9 57  2  0  0  0  0
 10 59  1  0  0  0  0
 10130  1  0  0  0  0
 11 59  2  0  0  0  0
 12 60  2  0  0  0  0
 22 13  1  1  0  0  0
 13 28  1  0  0  0  0
 13 75  1  0  0  0  0
 14 26  1  0  0  0  0
 30 14  1  1  0  0  0
 14 78  1  0  0  0  0
 27 15  1  6  0  0  0
 15 35  1  0  0  0  0
 15 80  1  0  0  0  0
 36 16  1  1  0  0  0
 16 45  1  0  0  0  0
 16100  1  0  0  0  0
 46 17  1  6  0  0  0
 17 52  1  0  0  0  0
 17112  1  0  0  0  0
 53 18  1  6  0  0  0
 18 60  1  0  0  0  0
 18122  1  0  0  0  0
 19 20  1  0  0  0  0
 19 21  1  0  0  0  0
 19 22  1  0  0  0  0
 19 63  1  0  0  0  0
 20 23  1  0  0  0  0
 20 64  1  0  0  0  0
 20 65  1  0  0  0  0
 21 24  1  0  0  0  0
 21 66  1  0  0  0  0
 21 67  1  0  0  0  0
 22 26  1  0  0  0  0
 22 68  1  0  0  0  0
 23 25  1  0  0  0  0
 23 69  1  0  0  0  0
 23 70  1  0  0  0  0
 24 25  1  0  0  0  0
 24 71  1  0  0  0  0
 24 72  1  0  0  0  0
 25 73  1  0  0  0  0
 25 74  1  0  0  0  0
 27 28  1  0  0  0  0
 27 29  1  0  0  0  0
 27 76  1  0  0  0  0
 29 31  1  0  0  0  0
 29 32  1  1  0  0  0
 29 77  1  0  0  0  0
 30 33  1  0  0  0  0
 30 34  1  0  0  0  0
 30 79  1  0  0  0  0
 31 37  1  0  0  0  0
 31 81  1  0  0  0  0
 31 82  1  0  0  0  0
 32 83  1  0  0  0  0
 32 84  1  0  0  0  0
 32 85  1  0  0  0  0
 33 40  1  0  0  0  0
 33 86  1  0  0  0  0
 33 87  1  0  0  0  0
 34 39  1  0  0  0  0
 35 36  1  0  0  0  0
 36 38  1  0  0  0  0
 36 88  1  0  0  0  0
 37 89  1  0  0  0  0
 37 90  1  0  0  0  0
 37 91  1  0  0  0  0
 38 41  1  0  0  0  0
 38 92  1  0  0  0  0
 38 93  1  0  0  0  0
 39 42  1  0  0  0  0
 39 94  1  0  0  0  0
 39 95  1  0  0  0  0
 40 96  1  0  0  0  0
 40 97  1  0  0  0  0
 40 98  1  0  0  0  0
 41 43  1  0  0  0  0
 41 44  1  0  0  0  0
 41 99  1  0  0  0  0
 42 47  1  0  0  0  0
 42101  1  0  0  0  0
 42102  1  0  0  0  0
 43103  1  0  0  0  0
 43104  1  0  0  0  0
 43105  1  0  0  0  0
 44106  1  0  0  0  0
 44107  1  0  0  0  0
 44108  1  0  0  0  0
 45 46  1  0  0  0  0
 46 48  1  0  0  0  0
 46109  1  0  0  0  0
 47 50  2  0  0  0  0
 47 51  1  0  0  0  0
 48 49  1  0  0  0  0
 48110  1  0  0  0  0
 48111  1  0  0  0  0
 49 57  1  0  0  0  0
 49113  1  0  0  0  0
 49114  1  0  0  0  0
 50 54  1  0  0  0  0
 50115  1  0  0  0  0
 51 55  2  0  0  0  0
 51116  1  0  0  0  0
 52 53  1  0  0  0  0
 53 58  1  0  0  0  0
 53117  1  0  0  0  0
 54 56  2  0  0  0  0
 54118  1  0  0  0  0
 55 56  1  0  0  0  0
 55119  1  0  0  0  0
 58 59  1  0  0  0  0
 58120  1  0  0  0  0
 58121  1  0  0  0  0
 60 62  1  0  0  0  0
 61127  1  0  0  0  0
 61128  1  0  0  0  0
 61129  1  0  0  0  0
 62124  1  0  0  0  0
 62125  1  0  0  0  0
 62126  1  0  0  0  0
M  END
> <PUBCHEM_COMPOUND_CID>
506575
> <PUBCHEM_COMPOUND_CANONICALIZED>
1
> <PUBCHEM_CACTVS_COMPLEXITY>
1530
> <PUBCHEM_CACTVS_HBOND_ACCEPTOR>
12
> <PUBCHEM_CACTVS_HBOND_DONOR>
8
> <PUBCHEM_CACTVS_ROTATABLE_BOND>
27
> <PUBCHEM_CACTVS_SUBSKEYS>
AAADcfB/vAAAAAAAAAAAAAAAAAAAAAAAAAAwYAAAAAAAAAABAAAAHgAQCAAADSzBmAYyDoLABgCIAqHSGAACCAAgIAAIiIGOCIgMZjqEsTqUcCAm1hGIqAe/3+KOIAAAAAAAAABAAAAAAAAAAAAAAAAAAA==
> <PUBCHEM_IUPAC_OPENEYE_NAME>
(4R)-4-[[(2S)-2-acetamido-3-carboxy-propanoyl]amino]-5-[[(1S)-1-[[(1S,2S)-1-[[(1S)-1-cyclohexyl-2-[[(1S)-1-ethyl-4-(4-methoxyphenyl)-2-oxo-butyl]amino]-2-oxo-ethyl]carbamoyl]-2-methyl-butyl]carbamoyl]-3-methyl-butyl]amino]-5-oxo-pentanoic acid
> <PUBCHEM_IUPAC_CAS_NAME>
(4R)-4-[[(2S)-2-acetamido-3-carboxy-1-oxopropyl]amino]-5-[[(2S)-1-[[(2S,3S)-1-[[(1S)-1-cyclohexyl-2-[[(3S)-6-(4-methoxyphenyl)-4-oxohexan-3-yl]amino]-2-oxoethyl]amino]-3-methyl-1-oxopentan-2-yl]amino]-4-methyl-1-oxopentan-2-yl]amino]-5-oxopentanoic acid
> <PUBCHEM_IUPAC_NAME_MARKUP>
(4<I>R</I>)-4-[[(2<I>S</I>)-2-acetamido-3-carboxypropanoyl]amino]-5-[[(2<I>S</I>)-1-[[(2<I>S</I>,3<I>S</I>)-1-[[(1<I>S</I>)-1-cyclohexyl-2-[[(3<I>S</I>)-6-(4-methoxyphenyl)-4-oxohexan-3-yl]amino]-2-oxoethyl]amino]-3-methyl-1-oxopentan-2-yl]amino]-4-methyl-1-oxopentan-2-yl]amino]-5-oxopentanoic acid
> <PUBCHEM_IUPAC_NAME>
(4R)-4-[[(2S)-2-acetamido-3-carboxypropanoyl]amino]-5-[[(2S)-1-[[(2S,3S)-1-[[(1S)-1-cyclohexyl-2-[[(3S)-6-(4-methoxyphenyl)-4-oxohexan-3-yl]amino]-2-oxoethyl]amino]-3-methyl-1-oxopentan-2-yl]amino]-4-methyl-1-oxopentan-2-yl]amino]-5-oxopentanoic acid
> <PUBCHEM_IUPAC_SYSTEMATIC_NAME>
(4R)-4-[[(2S)-2-acetamido-4-oxidanyl-4-oxidanylidene-butanoyl]amino]-5-[[(2S)-1-[[(2S,3S)-1-[[(1S)-1-cyclohexyl-2-[[(3S)-6-(4-methoxyphenyl)-4-oxidanylidene-hexan-3-yl]amino]-2-oxidanylidene-ethyl]amino]-3-methyl-1-oxidanylidene-pentan-2-yl]amino]-4-methyl-1-oxidanylidene-pentan-2-yl]amino]-5-oxidanylidene-pentanoic acid
> <PUBCHEM_IUPAC_TRADITIONAL_NAME>
(4R)-4-[[(2S)-2-acetamido-3-carboxy-propanoyl]amino]-5-[[(1S)-1-[[(1S,2S)-1-[[(1S)-1-cyclohexyl-2-[[(1S)-1-ethyl-2-keto-4-(4-methoxyphenyl)butyl]amino]-2-keto-ethyl]carbamoyl]-2-methyl-butyl]carbamoyl]-3-methyl-butyl]amino]-5-keto-valeric acid
> <PUBCHEM_IUPAC_INCHI>
InChI=1S/C44H68N6O12/c1-8-26(5)38(49-42(59)33(23-25(3)4)48-40(57)32(20-22-36(53)54)47-41(58)34(24-37(55)56)45-27(6)51)43(60)50-39(29-13-11-10-12-14-29)44(61)46-31(9-2)35(52)21-17-28-15-18-30(62-7)19-16-28/h15-16,18-19,25-26,29,31-34,38-39H,8-14,17,20-24H2,1-7H3,(H,45,51)(H,46,61)(H,47,58)(H,48,57)(H,49,59)(H,50,60)(H,53,54)(H,55,56)/t26-,31-,32+,33-,34-,38-,39-/m0/s1
> <PUBCHEM_IUPAC_INCHIKEY>
JFRIUGPZAXSYSA-OOIROBJPSA-N
> <PUBCHEM_XLOGP3_AA>
4.1
> <PUBCHEM_EXACT_MASS>
872.48952163
> <PUBCHEM_MOLECULAR_FORMULA>
C44H68N6O12
> <PUBCHEM_MOLECULAR_WEIGHT>
873.0
> <PUBCHEM_OPENEYE_CAN_SMILES>
CCC(C)C(C(=O)NC(C1CCCCC1)C(=O)NC(CC)C(=O)CCC2=CC=C(C=C2)OC)NC(=O)C(CC(C)C)NC(=O)C(CCC(=O)O)NC(=O)C(CC(=O)O)NC(=O)C
> <PUBCHEM_OPENEYE_ISO_SMILES>
CC[C@H](C)[C@@H](C(=O)N[C@@H](C1CCCCC1)C(=O)N[C@@H](CC)C(=O)CCC2=CC=C(C=C2)OC)NC(=O)[C@H](CC(C)C)NC(=O)[C@@H](CCC(=O)O)NC(=O)[C@H](CC(=O)O)NC(=O)C
> <PUBCHEM_CACTVS_TPSA>
276
> <PUBCHEM_MONOISOTOPIC_WEIGHT>
872.48952163
> <PUBCHEM_TOTAL_CHARGE>
0
> <PUBCHEM_HEAVY_ATOM_COUNT>
62
> <PUBCHEM_ATOM_DEF_STEREO_COUNT>
7
> <PUBCHEM_ATOM_UDEF_STEREO_COUNT>
0
> <PUBCHEM_BOND_DEF_STEREO_COUNT>
0
> <PUBCHEM_BOND_UDEF_STEREO_COUNT>
0
> <PUBCHEM_ISOTOPIC_ATOM_COUNT>
0
> <PUBCHEM_COMPONENT_COUNT>
1
> <PUBCHEM_CACTVS_TAUTO_COUNT>
-1
> <PUBCHEM_COORDINATE_TYPE>
1
5
255
> <PUBCHEM_BONDANNOTATIONS>
22  13  5
30  14  5
27  15  6
36  16  5
46  17  6
53  18  6
29  32  5
47  50  8
47  51  8
50  54  8
51  55  8
54  56  8
55  56  8
$$$$
