506578
  -OEChem-10302200282D
134134  0     1  0  0  0  0  0999 V2000
   10.6603   -1.3100    0.0000 O   0  0  0  0  0  0  0  0  0  0  0  0
   11.5263   -0.8100    0.0000 O   0  0  0  0  0  0  0  0  0  0  0  0
    8.0622   -3.8100    0.0000 O   0  0  0  0  0  0  0  0  0  0  0  0
   14.9904    0.1900    0.0000 O   0  0  0  0  0  0  0  0  0  0  0  0
   15.8564    0.6900    0.0000 O   0  0  0  0  0  0  0  0  0  0  0  0
   18.4545    3.1900    0.0000 O   0  0  0  0  0  0  0  0  0  0  0  0
   18.4545    5.1900    0.0000 O   0  0  0  0  0  0  0  0  0  0  0  0
   16.7224    5.1900    0.0000 O   0  0  0  0  0  0  0  0  0  0  0  0
   20.1865   -0.8100    0.0000 O   0  0  0  0  0  0  0  0  0  0  0  0
   21.0526    0.6900    0.0000 O   0  0  0  0  0  0  0  0  0  0  0  0
   19.3205    3.6900    0.0000 O   0  0  0  0  0  0  0  0  0  0  0  0
   12.3923   -2.3100    0.0000 N   0  0  0  0  0  0  0  0  0  0  0  0
    9.7942   -2.8100    0.0000 N   0  0  0  0  0  0  0  0  0  0  0  0
   13.2583    0.1900    0.0000 N   0  0  0  0  0  0  0  0  0  0  0  0
   14.9904    2.1900    0.0000 N   0  0  0  0  0  0  0  0  0  0  0  0
   17.5885    1.6900    0.0000 N   0  0  0  0  0  0  0  0  0  0  0  0
   20.1865    2.1900    0.0000 N   0  0  0  0  0  0  0  0  0  0  0  0
   11.5263   -3.8100    0.0000 C   0  0  0  0  0  0  0  0  0  0  0  0
   10.6603   -4.3100    0.0000 C   0  0  0  0  0  0  0  0  0  0  0  0
   12.3923   -4.3100    0.0000 C   0  0  0  0  0  0  0  0  0  0  0  0
   11.5263   -2.8100    0.0000 C   0  0  1  0  0  0  0  0  0  0  0  0
   10.6603   -5.3100    0.0000 C   0  0  0  0  0  0  0  0  0  0  0  0
   12.3923   -5.3100    0.0000 C   0  0  0  0  0  0  0  0  0  0  0  0
   11.5263   -5.8100    0.0000 C   0  0  0  0  0  0  0  0  0  0  0  0
   10.6603   -2.3100    0.0000 C   0  0  0  0  0  0  0  0  0  0  0  0
   12.3923   -1.3100    0.0000 C   0  0  0  0  0  0  0  0  0  0  0  0
   13.2583   -0.8100    0.0000 C   0  0  2  0  0  0  0  0  0  0  0  0
   14.1244   -1.3100    0.0000 C   0  0  2  0  0  0  0  0  0  0  0  0
    8.9282   -2.3100    0.0000 C   0  0  1  0  0  0  0  0  0  0  0  0
   14.9904   -0.8100    0.0000 C   0  0  0  0  0  0  0  0  0  0  0  0
    8.9282   -1.3100    0.0000 C   0  0  0  0  0  0  0  0  0  0  0  0
   14.1244   -2.3100    0.0000 C   0  0  0  0  0  0  0  0  0  0  0  0
    8.0622   -2.8100    0.0000 C   0  0  0  0  0  0  0  0  0  0  0  0
   14.1244    0.6900    0.0000 C   0  0  0  0  0  0  0  0  0  0  0  0
   14.1244    1.6900    0.0000 C   0  0  2  0  0  0  0  0  0  0  0  0
    7.1962   -2.3100    0.0000 C   0  0  0  0  0  0  0  0  0  0  0  0
   15.8564   -1.3100    0.0000 C   0  0  0  0  0  0  0  0  0  0  0  0
   13.2583    2.1900    0.0000 C   0  0  0  0  0  0  0  0  0  0  0  0
    8.0622   -0.8100    0.0000 C   0  0  0  0  0  0  0  0  0  0  0  0
    6.3301   -2.8100    0.0000 C   0  0  0  0  0  0  0  0  0  0  0  0
   13.2583    3.1900    0.0000 C   0  0  0  0  0  0  0  0  0  0  0  0
    5.4641   -2.3100    0.0000 C   0  0  0  0  0  0  0  0  0  0  0  0
    4.5981   -2.8100    0.0000 C   0  0  0  0  0  0  0  0  0  0  0  0
    3.7320   -2.3100    0.0000 C   0  0  0  0  0  0  0  0  0  0  0  0
   12.3923    3.6900    0.0000 C   0  0  0  0  0  0  0  0  0  0  0  0
   14.1244    3.6900    0.0000 C   0  0  0  0  0  0  0  0  0  0  0  0
   15.8564    1.6900    0.0000 C   0  0  0  0  0  0  0  0  0  0  0  0
   16.7224    2.1900    0.0000 C   0  0  1  0  0  0  0  0  0  0  0  0
    2.8660   -2.8100    0.0000 C   0  0  0  0  0  0  0  0  0  0  0  0
   16.7224    3.1900    0.0000 C   0  0  0  0  0  0  0  0  0  0  0  0
    2.0000   -2.3100    0.0000 C   0  0  0  0  0  0  0  0  0  0  0  0
    2.8660   -3.8100    0.0000 C   0  0  0  0  0  0  0  0  0  0  0  0
   17.5885    3.6900    0.0000 C   0  0  0  0  0  0  0  0  0  0  0  0
   18.4545    2.1900    0.0000 C   0  0  0  0  0  0  0  0  0  0  0  0
   19.3205    1.6900    0.0000 C   0  0  2  0  0  0  0  0  0  0  0  0
   17.5885    4.6900    0.0000 C   0  0  0  0  0  0  0  0  0  0  0  0
   19.3205    0.6900    0.0000 C   0  0  0  0  0  0  0  0  0  0  0  0
   20.1865    0.1900    0.0000 C   0  0  0  0  0  0  0  0  0  0  0  0
   20.1865    3.1900    0.0000 C   0  0  0  0  0  0  0  0  0  0  0  0
   21.0526    3.6900    0.0000 C   0  0  0  0  0  0  0  0  0  0  0  0
   10.9893   -3.5000    0.0000 H   0  0  0  0  0  0  0  0  0  0  0  0
   10.4482   -3.7274    0.0000 H   0  0  0  0  0  0  0  0  0  0  0  0
   10.0497   -4.4177    0.0000 H   0  0  0  0  0  0  0  0  0  0  0  0
   13.0029   -4.4177    0.0000 H   0  0  0  0  0  0  0  0  0  0  0  0
   12.6044   -3.7274    0.0000 H   0  0  0  0  0  0  0  0  0  0  0  0
   12.0632   -3.1200    0.0000 H   0  0  0  0  0  0  0  0  0  0  0  0
   10.0497   -5.2023    0.0000 H   0  0  0  0  0  0  0  0  0  0  0  0
   10.4482   -5.8926    0.0000 H   0  0  0  0  0  0  0  0  0  0  0  0
   12.6044   -5.8926    0.0000 H   0  0  0  0  0  0  0  0  0  0  0  0
   13.0029   -5.2023    0.0000 H   0  0  0  0  0  0  0  0  0  0  0  0
   11.1278   -6.2850    0.0000 H   0  0  0  0  0  0  0  0  0  0  0  0
   11.9248   -6.2850    0.0000 H   0  0  0  0  0  0  0  0  0  0  0  0
   12.9292   -2.6200    0.0000 H   0  0  0  0  0  0  0  0  0  0  0  0
   13.7953   -0.5000    0.0000 H   0  0  0  0  0  0  0  0  0  0  0  0
    9.7942   -3.4300    0.0000 H   0  0  0  0  0  0  0  0  0  0  0  0
   13.5874   -1.6200    0.0000 H   0  0  0  0  0  0  0  0  0  0  0  0
    9.4651   -2.0000    0.0000 H   0  0  0  0  0  0  0  0  0  0  0  0
   12.7214    0.5000    0.0000 H   0  0  0  0  0  0  0  0  0  0  0  0
   15.3889   -0.3351    0.0000 H   0  0  0  0  0  0  0  0  0  0  0  0
   14.5919   -0.3351    0.0000 H   0  0  0  0  0  0  0  0  0  0  0  0
    9.5388   -1.4177    0.0000 H   0  0  0  0  0  0  0  0  0  0  0  0
    9.1403   -0.7274    0.0000 H   0  0  0  0  0  0  0  0  0  0  0  0
   13.5044   -2.3100    0.0000 H   0  0  0  0  0  0  0  0  0  0  0  0
   14.1244   -2.9300    0.0000 H   0  0  0  0  0  0  0  0  0  0  0  0
   14.7444   -2.3100    0.0000 H   0  0  0  0  0  0  0  0  0  0  0  0
   14.1244    2.3100    0.0000 H   0  0  0  0  0  0  0  0  0  0  0  0
    7.5947   -1.8350    0.0000 H   0  0  0  0  0  0  0  0  0  0  0  0
    6.7976   -1.8350    0.0000 H   0  0  0  0  0  0  0  0  0  0  0  0
   15.5464   -1.8469    0.0000 H   0  0  0  0  0  0  0  0  0  0  0  0
   16.3933   -1.6200    0.0000 H   0  0  0  0  0  0  0  0  0  0  0  0
   16.1664   -0.7731    0.0000 H   0  0  0  0  0  0  0  0  0  0  0  0
   12.6477    2.2977    0.0000 H   0  0  0  0  0  0  0  0  0  0  0  0
   13.0463    1.6074    0.0000 H   0  0  0  0  0  0  0  0  0  0  0  0
    8.3722   -0.2731    0.0000 H   0  0  0  0  0  0  0  0  0  0  0  0
    7.5252   -0.5000    0.0000 H   0  0  0  0  0  0  0  0  0  0  0  0
    7.7522   -1.3469    0.0000 H   0  0  0  0  0  0  0  0  0  0  0  0
    5.9316   -3.2850    0.0000 H   0  0  0  0  0  0  0  0  0  0  0  0
    6.7287   -3.2850    0.0000 H   0  0  0  0  0  0  0  0  0  0  0  0
   13.7953    2.8800    0.0000 H   0  0  0  0  0  0  0  0  0  0  0  0
    5.8626   -1.8350    0.0000 H   0  0  0  0  0  0  0  0  0  0  0  0
    5.0656   -1.8350    0.0000 H   0  0  0  0  0  0  0  0  0  0  0  0
   14.9904    2.8100    0.0000 H   0  0  0  0  0  0  0  0  0  0  0  0
    4.1996   -3.2850    0.0000 H   0  0  0  0  0  0  0  0  0  0  0  0
    4.9966   -3.2850    0.0000 H   0  0  0  0  0  0  0  0  0  0  0  0
    4.1306   -1.8350    0.0000 H   0  0  0  0  0  0  0  0  0  0  0  0
    3.3335   -1.8350    0.0000 H   0  0  0  0  0  0  0  0  0  0  0  0
   12.7023    4.2269    0.0000 H   0  0  0  0  0  0  0  0  0  0  0  0
   11.8554    4.0000    0.0000 H   0  0  0  0  0  0  0  0  0  0  0  0
   12.0823    3.1531    0.0000 H   0  0  0  0  0  0  0  0  0  0  0  0
   14.4344    3.1531    0.0000 H   0  0  0  0  0  0  0  0  0  0  0  0
   14.6613    4.0000    0.0000 H   0  0  0  0  0  0  0  0  0  0  0  0
   13.8144    4.2269    0.0000 H   0  0  0  0  0  0  0  0  0  0  0  0
   16.7224    1.5700    0.0000 H   0  0  0  0  0  0  0  0  0  0  0  0
    2.8660   -2.1900    0.0000 H   0  0  0  0  0  0  0  0  0  0  0  0
   16.5104    3.7726    0.0000 H   0  0  0  0  0  0  0  0  0  0  0  0
   16.1119    3.0823    0.0000 H   0  0  0  0  0  0  0  0  0  0  0  0
   17.5885    1.0700    0.0000 H   0  0  0  0  0  0  0  0  0  0  0  0
    2.3100   -1.7731    0.0000 H   0  0  0  0  0  0  0  0  0  0  0  0
    1.4631   -2.0000    0.0000 H   0  0  0  0  0  0  0  0  0  0  0  0
    1.6900   -2.8469    0.0000 H   0  0  0  0  0  0  0  0  0  0  0  0
    2.2460   -3.8100    0.0000 H   0  0  0  0  0  0  0  0  0  0  0  0
    2.8660   -4.4300    0.0000 H   0  0  0  0  0  0  0  0  0  0  0  0
    3.4860   -3.8100    0.0000 H   0  0  0  0  0  0  0  0  0  0  0  0
   17.8005    3.1074    0.0000 H   0  0  0  0  0  0  0  0  0  0  0  0
   18.1990    3.7977    0.0000 H   0  0  0  0  0  0  0  0  0  0  0  0
   19.8574    1.3800    0.0000 H   0  0  0  0  0  0  0  0  0  0  0  0
   18.7099    0.7977    0.0000 H   0  0  0  0  0  0  0  0  0  0  0  0
   19.1085    0.1074    0.0000 H   0  0  0  0  0  0  0  0  0  0  0  0
   20.7235    1.8800    0.0000 H   0  0  0  0  0  0  0  0  0  0  0  0
   18.4545    5.8100    0.0000 H   0  0  0  0  0  0  0  0  0  0  0  0
   21.3626    3.1531    0.0000 H   0  0  0  0  0  0  0  0  0  0  0  0
   21.5895    4.0000    0.0000 H   0  0  0  0  0  0  0  0  0  0  0  0
   20.7426    4.2269    0.0000 H   0  0  0  0  0  0  0  0  0  0  0  0
   20.7235   -1.1200    0.0000 H   0  0  0  0  0  0  0  0  0  0  0  0
  1 25  2  0  0  0  0
  2 26  2  0  0  0  0
  3 33  2  0  0  0  0
  4 34  2  0  0  0  0
  5 47  2  0  0  0  0
  6 54  2  0  0  0  0
  7 56  1  0  0  0  0
  7130  1  0  0  0  0
  8 56  2  0  0  0  0
  9 58  1  0  0  0  0
  9134  1  0  0  0  0
 10 58  2  0  0  0  0
 11 59  2  0  0  0  0
 21 12  1  1  0  0  0
 12 26  1  0  0  0  0
 12 73  1  0  0  0  0
 13 25  1  0  0  0  0
 29 13  1  6  0  0  0
 13 75  1  0  0  0  0
 27 14  1  1  0  0  0
 14 34  1  0  0  0  0
 14 78  1  0  0  0  0
 35 15  1  6  0  0  0
 15 47  1  0  0  0  0
 15102  1  0  0  0  0
 48 16  1  1  0  0  0
 16 54  1  0  0  0  0
 16117  1  0  0  0  0
 55 17  1  1  0  0  0
 17 59  1  0  0  0  0
 17129  1  0  0  0  0
 18 19  1  0  0  0  0
 18 20  1  0  0  0  0
 18 21  1  0  0  0  0
 18 61  1  0  0  0  0
 19 22  1  0  0  0  0
 19 62  1  0  0  0  0
 19 63  1  0  0  0  0
 20 23  1  0  0  0  0
 20 64  1  0  0  0  0
 20 65  1  0  0  0  0
 21 25  1  0  0  0  0
 21 66  1  0  0  0  0
 22 24  1  0  0  0  0
 22 67  1  0  0  0  0
 22 68  1  0  0  0  0
 23 24  1  0  0  0  0
 23 69  1  0  0  0  0
 23 70  1  0  0  0  0
 24 71  1  0  0  0  0
 24 72  1  0  0  0  0
 26 27  1  0  0  0  0
 27 28  1  0  0  0  0
 27 74  1  0  0  0  0
 28 30  1  0  0  0  0
 28 32  1  6  0  0  0
 28 76  1  0  0  0  0
 29 31  1  0  0  0  0
 29 33  1  0  0  0  0
 29 77  1  0  0  0  0
 30 37  1  0  0  0  0
 30 79  1  0  0  0  0
 30 80  1  0  0  0  0
 31 39  1  0  0  0  0
 31 81  1  0  0  0  0
 31 82  1  0  0  0  0
 32 83  1  0  0  0  0
 32 84  1  0  0  0  0
 32 85  1  0  0  0  0
 33 36  1  0  0  0  0
 34 35  1  0  0  0  0
 35 38  1  0  0  0  0
 35 86  1  0  0  0  0
 36 40  1  0  0  0  0
 36 87  1  0  0  0  0
 36 88  1  0  0  0  0
 37 89  1  0  0  0  0
 37 90  1  0  0  0  0
 37 91  1  0  0  0  0
 38 41  1  0  0  0  0
 38 92  1  0  0  0  0
 38 93  1  0  0  0  0
 39 94  1  0  0  0  0
 39 95  1  0  0  0  0
 39 96  1  0  0  0  0
 40 42  1  0  0  0  0
 40 97  1  0  0  0  0
 40 98  1  0  0  0  0
 41 45  1  0  0  0  0
 41 46  1  0  0  0  0
 41 99  1  0  0  0  0
 42 43  1  0  0  0  0
 42100  1  0  0  0  0
 42101  1  0  0  0  0
 43 44  1  0  0  0  0
 43103  1  0  0  0  0
 43104  1  0  0  0  0
 44 49  1  0  0  0  0
 44105  1  0  0  0  0
 44106  1  0  0  0  0
 45107  1  0  0  0  0
 45108  1  0  0  0  0
 45109  1  0  0  0  0
 46110  1  0  0  0  0
 46111  1  0  0  0  0
 46112  1  0  0  0  0
 47 48  1  0  0  0  0
 48 50  1  0  0  0  0
 48113  1  0  0  0  0
 49 51  1  0  0  0  0
 49 52  1  0  0  0  0
 49114  1  0  0  0  0
 50 53  1  0  0  0  0
 50115  1  0  0  0  0
 50116  1  0  0  0  0
 51118  1  0  0  0  0
 51119  1  0  0  0  0
 51120  1  0  0  0  0
 52121  1  0  0  0  0
 52122  1  0  0  0  0
 52123  1  0  0  0  0
 53 56  1  0  0  0  0
 53124  1  0  0  0  0
 53125  1  0  0  0  0
 54 55  1  0  0  0  0
 55 57  1  0  0  0  0
 55126  1  0  0  0  0
 57 58  1  0  0  0  0
 57127  1  0  0  0  0
 57128  1  0  0  0  0
 59 60  1  0  0  0  0
 60131  1  0  0  0  0
 60132  1  0  0  0  0
 60133  1  0  0  0  0
M  END
> <PUBCHEM_COMPOUND_CID>
506578
> <PUBCHEM_COMPOUND_CANONICALIZED>
1
> <PUBCHEM_CACTVS_COMPLEXITY>
1450
> <PUBCHEM_CACTVS_HBOND_ACCEPTOR>
11
> <PUBCHEM_CACTVS_HBOND_DONOR>
8
> <PUBCHEM_CACTVS_ROTATABLE_BOND>
29
> <PUBCHEM_CACTVS_SUBSKEYS>
AAADcfB/vAAAAAAAAAAAAAAAAAAAAAAAAAAwAAAAAAAAAAAAAAAAHgAQCAAADSzBgAQCCALAAgAIAIGQGAAAAAAAAAAAAIGIAAAAQBoAgCAUQAAGFgCAAAG/n8KOAAAAAAAAAAAAAAAAAAAAAAAAAAAAAA==
> <PUBCHEM_IUPAC_OPENEYE_NAME>
(4R)-4-[[(2S)-2-acetamido-3-carboxy-propanoyl]amino]-5-[[(1S)-1-[[(1S,2S)-1-[[(1S)-1-cyclohexyl-2-[[(1S)-1-ethyl-8-methyl-2-oxo-nonyl]amino]-2-oxo-ethyl]carbamoyl]-2-methyl-butyl]carbamoyl]-3-methyl-butyl]amino]-5-oxo-pentanoic acid
> <PUBCHEM_IUPAC_CAS_NAME>
(4R)-4-[[(2S)-2-acetamido-3-carboxy-1-oxopropyl]amino]-5-[[(2S)-1-[[(2S,3S)-1-[[(1S)-1-cyclohexyl-2-[[(3S)-10-methyl-4-oxoundecan-3-yl]amino]-2-oxoethyl]amino]-3-methyl-1-oxopentan-2-yl]amino]-4-methyl-1-oxopentan-2-yl]amino]-5-oxopentanoic acid
> <PUBCHEM_IUPAC_NAME_MARKUP>
(4<I>R</I>)-4-[[(2<I>S</I>)-2-acetamido-3-carboxypropanoyl]amino]-5-[[(2<I>S</I>)-1-[[(2<I>S</I>,3<I>S</I>)-1-[[(1<I>S</I>)-1-cyclohexyl-2-[[(3<I>S</I>)-10-methyl-4-oxoundecan-3-yl]amino]-2-oxoethyl]amino]-3-methyl-1-oxopentan-2-yl]amino]-4-methyl-1-oxopentan-2-yl]amino]-5-oxopentanoic acid
> <PUBCHEM_IUPAC_NAME>
(4R)-4-[[(2S)-2-acetamido-3-carboxypropanoyl]amino]-5-[[(2S)-1-[[(2S,3S)-1-[[(1S)-1-cyclohexyl-2-[[(3S)-10-methyl-4-oxoundecan-3-yl]amino]-2-oxoethyl]amino]-3-methyl-1-oxopentan-2-yl]amino]-4-methyl-1-oxopentan-2-yl]amino]-5-oxopentanoic acid
> <PUBCHEM_IUPAC_SYSTEMATIC_NAME>
(4R)-4-[[(2S)-2-acetamido-4-oxidanyl-4-oxidanylidene-butanoyl]amino]-5-[[(2S)-1-[[(2S,3S)-1-[[(1S)-1-cyclohexyl-2-[[(3S)-10-methyl-4-oxidanylidene-undecan-3-yl]amino]-2-oxidanylidene-ethyl]amino]-3-methyl-1-oxidanylidene-pentan-2-yl]amino]-4-methyl-1-oxidanylidene-pentan-2-yl]amino]-5-oxidanylidene-pentanoic acid
> <PUBCHEM_IUPAC_TRADITIONAL_NAME>
(4R)-4-[[(2S)-2-acetamido-3-carboxy-propanoyl]amino]-5-[[(1S)-1-[[(1S,2S)-1-[[(1S)-1-cyclohexyl-2-[[(1S)-1-ethyl-2-keto-8-methyl-nonyl]amino]-2-keto-ethyl]carbamoyl]-2-methyl-butyl]carbamoyl]-3-methyl-butyl]amino]-5-keto-valeric acid
> <PUBCHEM_IUPAC_INCHI>
InChI=1S/C43H74N6O11/c1-9-27(7)37(42(59)49-38(29-18-14-12-15-19-29)43(60)45-30(10-2)34(51)20-16-11-13-17-25(3)4)48-41(58)32(23-26(5)6)47-39(56)31(21-22-35(52)53)46-40(57)33(24-36(54)55)44-28(8)50/h25-27,29-33,37-38H,9-24H2,1-8H3,(H,44,50)(H,45,60)(H,46,57)(H,47,56)(H,48,58)(H,49,59)(H,52,53)(H,54,55)/t27-,30-,31+,32-,33-,37-,38-/m0/s1
> <PUBCHEM_IUPAC_INCHIKEY>
DPEUBYXKNYKDIW-BYKAUEDESA-N
> <PUBCHEM_XLOGP3_AA>
5.5
> <PUBCHEM_EXACT_MASS>
850.54155720
> <PUBCHEM_MOLECULAR_FORMULA>
C43H74N6O11
> <PUBCHEM_MOLECULAR_WEIGHT>
851.1
> <PUBCHEM_OPENEYE_CAN_SMILES>
CCC(C)C(C(=O)NC(C1CCCCC1)C(=O)NC(CC)C(=O)CCCCCC(C)C)NC(=O)C(CC(C)C)NC(=O)C(CCC(=O)O)NC(=O)C(CC(=O)O)NC(=O)C
> <PUBCHEM_OPENEYE_ISO_SMILES>
CC[C@H](C)[C@@H](C(=O)N[C@@H](C1CCCCC1)C(=O)N[C@@H](CC)C(=O)CCCCCC(C)C)NC(=O)[C@H](CC(C)C)NC(=O)[C@@H](CCC(=O)O)NC(=O)[C@H](CC(=O)O)NC(=O)C
> <PUBCHEM_CACTVS_TPSA>
266
> <PUBCHEM_MONOISOTOPIC_WEIGHT>
850.54155720
> <PUBCHEM_TOTAL_CHARGE>
0
> <PUBCHEM_HEAVY_ATOM_COUNT>
60
> <PUBCHEM_ATOM_DEF_STEREO_COUNT>
7
> <PUBCHEM_ATOM_UDEF_STEREO_COUNT>
0
> <PUBCHEM_BOND_DEF_STEREO_COUNT>
0
> <PUBCHEM_BOND_UDEF_STEREO_COUNT>
0
> <PUBCHEM_ISOTOPIC_ATOM_COUNT>
0
> <PUBCHEM_COMPONENT_COUNT>
1
> <PUBCHEM_CACTVS_TAUTO_COUNT>
-1
> <PUBCHEM_COORDINATE_TYPE>
1
5
255
> <PUBCHEM_BONDANNOTATIONS>
21  12  5
29  13  6
27  14  5
35  15  6
48  16  5
55  17  5
28  32  6
$$$$
