506576
  -OEChem-10302200282D
122123  0     1  0  0  0  0  0999 V2000
    2.6691   -2.7167    0.0000 S   0  0  0  0  0  0  0  0  0  0  0  0
    8.7788   -1.3100    0.0000 O   0  0  0  0  0  0  0  0  0  0  0  0
    9.6448   -0.8100    0.0000 O   0  0  0  0  0  0  0  0  0  0  0  0
   13.1090    0.1900    0.0000 O   0  0  0  0  0  0  0  0  0  0  0  0
    6.1808   -3.8100    0.0000 O   0  0  0  0  0  0  0  0  0  0  0  0
   13.9750    0.6900    0.0000 O   0  0  0  0  0  0  0  0  0  0  0  0
   16.5731    3.1900    0.0000 O   0  0  0  0  0  0  0  0  0  0  0  0
   16.5731    5.1900    0.0000 O   0  0  0  0  0  0  0  0  0  0  0  0
   14.8410    5.1900    0.0000 O   0  0  0  0  0  0  0  0  0  0  0  0
   18.3051   -0.8100    0.0000 O   0  0  0  0  0  0  0  0  0  0  0  0
   19.1711    0.6900    0.0000 O   0  0  0  0  0  0  0  0  0  0  0  0
   17.4391    3.6900    0.0000 O   0  0  0  0  0  0  0  0  0  0  0  0
   10.5109   -2.3100    0.0000 N   0  0  0  0  0  0  0  0  0  0  0  0
    7.9128   -2.8100    0.0000 N   0  0  0  0  0  0  0  0  0  0  0  0
   11.3769    0.1900    0.0000 N   0  0  0  0  0  0  0  0  0  0  0  0
   13.1090    2.1900    0.0000 N   0  0  0  0  0  0  0  0  0  0  0  0
   15.7070    1.6900    0.0000 N   0  0  0  0  0  0  0  0  0  0  0  0
    3.4782   -1.3155    0.0000 N   0  0  0  0  0  0  0  0  0  0  0  0
   18.3051    2.1900    0.0000 N   0  0  0  0  0  0  0  0  0  0  0  0
    9.6448   -3.8100    0.0000 C   0  0  0  0  0  0  0  0  0  0  0  0
    8.7788   -4.3100    0.0000 C   0  0  0  0  0  0  0  0  0  0  0  0
   10.5109   -4.3100    0.0000 C   0  0  0  0  0  0  0  0  0  0  0  0
    9.6448   -2.8100    0.0000 C   0  0  1  0  0  0  0  0  0  0  0  0
    8.7788   -5.3100    0.0000 C   0  0  0  0  0  0  0  0  0  0  0  0
   10.5109   -5.3100    0.0000 C   0  0  0  0  0  0  0  0  0  0  0  0
    9.6448   -5.8100    0.0000 C   0  0  0  0  0  0  0  0  0  0  0  0
    8.7788   -2.3100    0.0000 C   0  0  0  0  0  0  0  0  0  0  0  0
   11.3769   -0.8100    0.0000 C   0  0  2  0  0  0  0  0  0  0  0  0
   10.5109   -1.3100    0.0000 C   0  0  0  0  0  0  0  0  0  0  0  0
   12.2429   -1.3100    0.0000 C   0  0  2  0  0  0  0  0  0  0  0  0
    7.0468   -2.3100    0.0000 C   0  0  1  0  0  0  0  0  0  0  0  0
   13.1090   -0.8100    0.0000 C   0  0  0  0  0  0  0  0  0  0  0  0
   12.2429   -2.3100    0.0000 C   0  0  0  0  0  0  0  0  0  0  0  0
    7.0468   -1.3100    0.0000 C   0  0  0  0  0  0  0  0  0  0  0  0
   12.2429    1.6900    0.0000 C   0  0  2  0  0  0  0  0  0  0  0  0
   12.2429    0.6900    0.0000 C   0  0  0  0  0  0  0  0  0  0  0  0
    6.1808   -2.8100    0.0000 C   0  0  0  0  0  0  0  0  0  0  0  0
   11.3769    2.1900    0.0000 C   0  0  0  0  0  0  0  0  0  0  0  0
   13.9750   -1.3100    0.0000 C   0  0  0  0  0  0  0  0  0  0  0  0
   11.3769    3.1900    0.0000 C   0  0  0  0  0  0  0  0  0  0  0  0
    5.3147   -2.3100    0.0000 C   0  0  0  0  0  0  0  0  0  0  0  0
    6.1808   -0.8100    0.0000 C   0  0  0  0  0  0  0  0  0  0  0  0
    4.4487   -2.8100    0.0000 C   0  0  0  0  0  0  0  0  0  0  0  0
   10.5109    3.6900    0.0000 C   0  0  0  0  0  0  0  0  0  0  0  0
   12.2429    3.6900    0.0000 C   0  0  0  0  0  0  0  0  0  0  0  0
   13.9750    1.6900    0.0000 C   0  0  0  0  0  0  0  0  0  0  0  0
   14.8410    2.1900    0.0000 C   0  0  1  0  0  0  0  0  0  0  0  0
   14.8410    3.1900    0.0000 C   0  0  0  0  0  0  0  0  0  0  0  0
    3.5827   -2.3100    0.0000 C   0  0  0  0  0  0  0  0  0  0  0  0
   15.7070    3.6900    0.0000 C   0  0  0  0  0  0  0  0  0  0  0  0
   16.5731    2.1900    0.0000 C   0  0  0  0  0  0  0  0  0  0  0  0
   17.4391    1.6900    0.0000 C   0  0  2  0  0  0  0  0  0  0  0  0
   15.7070    4.6900    0.0000 C   0  0  0  0  0  0  0  0  0  0  0  0
   17.4391    0.6900    0.0000 C   0  0  0  0  0  0  0  0  0  0  0  0
    2.0000   -1.9736    0.0000 C   0  0  0  0  0  0  0  0  0  0  0  0
    2.5000   -1.1076    0.0000 C   0  0  0  0  0  0  0  0  0  0  0  0
   18.3051    0.1900    0.0000 C   0  0  0  0  0  0  0  0  0  0  0  0
   18.3051    3.1900    0.0000 C   0  0  0  0  0  0  0  0  0  0  0  0
   19.1711    3.6900    0.0000 C   0  0  0  0  0  0  0  0  0  0  0  0
    9.1079   -3.5000    0.0000 H   0  0  0  0  0  0  0  0  0  0  0  0
    8.5668   -3.7274    0.0000 H   0  0  0  0  0  0  0  0  0  0  0  0
    8.1682   -4.4177    0.0000 H   0  0  0  0  0  0  0  0  0  0  0  0
   11.1215   -4.4177    0.0000 H   0  0  0  0  0  0  0  0  0  0  0  0
   10.7229   -3.7274    0.0000 H   0  0  0  0  0  0  0  0  0  0  0  0
    9.6448   -2.1900    0.0000 H   0  0  0  0  0  0  0  0  0  0  0  0
    8.1682   -5.2023    0.0000 H   0  0  0  0  0  0  0  0  0  0  0  0
    8.5668   -5.8926    0.0000 H   0  0  0  0  0  0  0  0  0  0  0  0
   10.7229   -5.8926    0.0000 H   0  0  0  0  0  0  0  0  0  0  0  0
   11.1215   -5.2023    0.0000 H   0  0  0  0  0  0  0  0  0  0  0  0
    9.2463   -6.2850    0.0000 H   0  0  0  0  0  0  0  0  0  0  0  0
   10.0434   -6.2850    0.0000 H   0  0  0  0  0  0  0  0  0  0  0  0
   11.0478   -2.6200    0.0000 H   0  0  0  0  0  0  0  0  0  0  0  0
   10.8400   -0.5000    0.0000 H   0  0  0  0  0  0  0  0  0  0  0  0
   12.7799   -1.6200    0.0000 H   0  0  0  0  0  0  0  0  0  0  0  0
    7.9128   -3.4300    0.0000 H   0  0  0  0  0  0  0  0  0  0  0  0
    7.0468   -2.9300    0.0000 H   0  0  0  0  0  0  0  0  0  0  0  0
   10.8400    0.5000    0.0000 H   0  0  0  0  0  0  0  0  0  0  0  0
   13.5075   -0.3351    0.0000 H   0  0  0  0  0  0  0  0  0  0  0  0
   12.7104   -0.3351    0.0000 H   0  0  0  0  0  0  0  0  0  0  0  0
   11.6229   -2.3100    0.0000 H   0  0  0  0  0  0  0  0  0  0  0  0
   12.2429   -2.9300    0.0000 H   0  0  0  0  0  0  0  0  0  0  0  0
   12.8629   -2.3100    0.0000 H   0  0  0  0  0  0  0  0  0  0  0  0
    7.6574   -1.4177    0.0000 H   0  0  0  0  0  0  0  0  0  0  0  0
    7.2588   -0.7274    0.0000 H   0  0  0  0  0  0  0  0  0  0  0  0
   12.7799    1.3800    0.0000 H   0  0  0  0  0  0  0  0  0  0  0  0
   10.7663    2.2977    0.0000 H   0  0  0  0  0  0  0  0  0  0  0  0
   11.1649    1.6074    0.0000 H   0  0  0  0  0  0  0  0  0  0  0  0
   13.6650   -1.8469    0.0000 H   0  0  0  0  0  0  0  0  0  0  0  0
   14.5119   -1.6200    0.0000 H   0  0  0  0  0  0  0  0  0  0  0  0
   14.2850   -0.7731    0.0000 H   0  0  0  0  0  0  0  0  0  0  0  0
   10.8400    2.8800    0.0000 H   0  0  0  0  0  0  0  0  0  0  0  0
    5.7133   -1.8350    0.0000 H   0  0  0  0  0  0  0  0  0  0  0  0
    4.9162   -1.8350    0.0000 H   0  0  0  0  0  0  0  0  0  0  0  0
    6.4908   -0.2731    0.0000 H   0  0  0  0  0  0  0  0  0  0  0  0
    5.6438   -0.5000    0.0000 H   0  0  0  0  0  0  0  0  0  0  0  0
    5.8708   -1.3469    0.0000 H   0  0  0  0  0  0  0  0  0  0  0  0
   13.1090    2.8100    0.0000 H   0  0  0  0  0  0  0  0  0  0  0  0
    4.0502   -3.2850    0.0000 H   0  0  0  0  0  0  0  0  0  0  0  0
    4.8472   -3.2850    0.0000 H   0  0  0  0  0  0  0  0  0  0  0  0
   10.8209    4.2269    0.0000 H   0  0  0  0  0  0  0  0  0  0  0  0
    9.9739    4.0000    0.0000 H   0  0  0  0  0  0  0  0  0  0  0  0
   10.2009    3.1531    0.0000 H   0  0  0  0  0  0  0  0  0  0  0  0
   12.5529    3.1531    0.0000 H   0  0  0  0  0  0  0  0  0  0  0  0
   12.7799    4.0000    0.0000 H   0  0  0  0  0  0  0  0  0  0  0  0
   11.9329    4.2269    0.0000 H   0  0  0  0  0  0  0  0  0  0  0  0
   15.3779    2.5000    0.0000 H   0  0  0  0  0  0  0  0  0  0  0  0
   14.6290    3.7726    0.0000 H   0  0  0  0  0  0  0  0  0  0  0  0
   14.2304    3.0823    0.0000 H   0  0  0  0  0  0  0  0  0  0  0  0
   15.7070    1.0700    0.0000 H   0  0  0  0  0  0  0  0  0  0  0  0
   15.9191    3.1074    0.0000 H   0  0  0  0  0  0  0  0  0  0  0  0
   16.3176    3.7977    0.0000 H   0  0  0  0  0  0  0  0  0  0  0  0
   17.9760    1.3800    0.0000 H   0  0  0  0  0  0  0  0  0  0  0  0
   16.8285    0.7977    0.0000 H   0  0  0  0  0  0  0  0  0  0  0  0
   17.2270    0.1074    0.0000 H   0  0  0  0  0  0  0  0  0  0  0  0
    1.3834   -2.0384    0.0000 H   0  0  0  0  0  0  0  0  0  0  0  0
    2.2478   -0.5412    0.0000 H   0  0  0  0  0  0  0  0  0  0  0  0
   18.8420    1.8800    0.0000 H   0  0  0  0  0  0  0  0  0  0  0  0
   16.5731    5.8100    0.0000 H   0  0  0  0  0  0  0  0  0  0  0  0
   19.4811    3.1531    0.0000 H   0  0  0  0  0  0  0  0  0  0  0  0
   19.7081    4.0000    0.0000 H   0  0  0  0  0  0  0  0  0  0  0  0
   18.8611    4.2269    0.0000 H   0  0  0  0  0  0  0  0  0  0  0  0
   18.8420   -1.1200    0.0000 H   0  0  0  0  0  0  0  0  0  0  0  0
  1 49  1  0  0  0  0
  1 55  1  0  0  0  0
  2 27  2  0  0  0  0
  3 29  2  0  0  0  0
  4 36  2  0  0  0  0
  5 37  2  0  0  0  0
  6 46  2  0  0  0  0
  7 51  2  0  0  0  0
  8 53  1  0  0  0  0
  8118  1  0  0  0  0
  9 53  2  0  0  0  0
 10 57  1  0  0  0  0
 10122  1  0  0  0  0
 11 57  2  0  0  0  0
 12 58  2  0  0  0  0
 23 13  1  1  0  0  0
 13 29  1  0  0  0  0
 13 72  1  0  0  0  0
 14 27  1  0  0  0  0
 31 14  1  6  0  0  0
 14 75  1  0  0  0  0
 28 15  1  1  0  0  0
 15 36  1  0  0  0  0
 15 77  1  0  0  0  0
 35 16  1  6  0  0  0
 16 46  1  0  0  0  0
 16 97  1  0  0  0  0
 47 17  1  1  0  0  0
 17 51  1  0  0  0  0
 17109  1  0  0  0  0
 18 49  2  0  0  0  0
 18 56  1  0  0  0  0
 52 19  1  1  0  0  0
 19 58  1  0  0  0  0
 19117  1  0  0  0  0
 20 21  1  0  0  0  0
 20 22  1  0  0  0  0
 20 23  1  0  0  0  0
 20 60  1  0  0  0  0
 21 24  1  0  0  0  0
 21 61  1  0  0  0  0
 21 62  1  0  0  0  0
 22 25  1  0  0  0  0
 22 63  1  0  0  0  0
 22 64  1  0  0  0  0
 23 27  1  0  0  0  0
 23 65  1  0  0  0  0
 24 26  1  0  0  0  0
 24 66  1  0  0  0  0
 24 67  1  0  0  0  0
 25 26  1  0  0  0  0
 25 68  1  0  0  0  0
 25 69  1  0  0  0  0
 26 70  1  0  0  0  0
 26 71  1  0  0  0  0
 28 29  1  0  0  0  0
 28 30  1  0  0  0  0
 28 73  1  0  0  0  0
 30 32  1  0  0  0  0
 30 33  1  6  0  0  0
 30 74  1  0  0  0  0
 31 34  1  0  0  0  0
 31 37  1  0  0  0  0
 31 76  1  0  0  0  0
 32 39  1  0  0  0  0
 32 78  1  0  0  0  0
 32 79  1  0  0  0  0
 33 80  1  0  0  0  0
 33 81  1  0  0  0  0
 33 82  1  0  0  0  0
 34 42  1  0  0  0  0
 34 83  1  0  0  0  0
 34 84  1  0  0  0  0
 35 36  1  0  0  0  0
 35 38  1  0  0  0  0
 35 85  1  0  0  0  0
 37 41  1  0  0  0  0
 38 40  1  0  0  0  0
 38 86  1  0  0  0  0
 38 87  1  0  0  0  0
 39 88  1  0  0  0  0
 39 89  1  0  0  0  0
 39 90  1  0  0  0  0
 40 44  1  0  0  0  0
 40 45  1  0  0  0  0
 40 91  1  0  0  0  0
 41 43  1  0  0  0  0
 41 92  1  0  0  0  0
 41 93  1  0  0  0  0
 42 94  1  0  0  0  0
 42 95  1  0  0  0  0
 42 96  1  0  0  0  0
 43 49  1  0  0  0  0
 43 98  1  0  0  0  0
 43 99  1  0  0  0  0
 44100  1  0  0  0  0
 44101  1  0  0  0  0
 44102  1  0  0  0  0
 45103  1  0  0  0  0
 45104  1  0  0  0  0
 45105  1  0  0  0  0
 46 47  1  0  0  0  0
 47 48  1  0  0  0  0
 47106  1  0  0  0  0
 48 50  1  0  0  0  0
 48107  1  0  0  0  0
 48108  1  0  0  0  0
 50 53  1  0  0  0  0
 50110  1  0  0  0  0
 50111  1  0  0  0  0
 51 52  1  0  0  0  0
 52 54  1  0  0  0  0
 52112  1  0  0  0  0
 54 57  1  0  0  0  0
 54113  1  0  0  0  0
 54114  1  0  0  0  0
 55 56  2  0  0  0  0
 55115  1  0  0  0  0
 56116  1  0  0  0  0
 58 59  1  0  0  0  0
 59119  1  0  0  0  0
 59120  1  0  0  0  0
 59121  1  0  0  0  0
M  END
> <PUBCHEM_COMPOUND_CID>
506576
> <PUBCHEM_COMPOUND_CANONICALIZED>
1
> <PUBCHEM_CACTVS_COMPLEXITY>
1480
> <PUBCHEM_CACTVS_HBOND_ACCEPTOR>
13
> <PUBCHEM_CACTVS_HBOND_DONOR>
8
> <PUBCHEM_CACTVS_ROTATABLE_BOND>
26
> <PUBCHEM_CACTVS_SUBSKEYS>
AAADcfB/vABAAAAAAAAAAAAAAAAAAWAAAAAwAAAAAAAAAAABgAAAHgQQCAAADSzFwgSuiRLIEgisAJG3XAAA8KBRCjhIQI24IAAAQBoggCAUQAAGFgCgAAG/n4KOAAAAAAAAAAAAAAAAAAAAAAAAAAAAAA==
> <PUBCHEM_IUPAC_OPENEYE_NAME>
(4R)-4-[[(2S)-2-acetamido-3-carboxy-propanoyl]amino]-5-[[(1S)-1-[[(1S,2S)-1-[[(1S)-1-cyclohexyl-2-[[(1S)-1-ethyl-2-oxo-4-thiazol-2-yl-butyl]amino]-2-oxo-ethyl]carbamoyl]-2-methyl-butyl]carbamoyl]-3-methyl-butyl]amino]-5-oxo-pentanoic acid
> <PUBCHEM_IUPAC_CAS_NAME>
(4R)-4-[[(2S)-2-acetamido-3-carboxy-1-oxopropyl]amino]-5-[[(2S)-1-[[(2S,3S)-1-[[(1S)-1-cyclohexyl-2-oxo-2-[[(3S)-4-oxo-6-(2-thiazolyl)hexan-3-yl]amino]ethyl]amino]-3-methyl-1-oxopentan-2-yl]amino]-4-methyl-1-oxopentan-2-yl]amino]-5-oxopentanoic acid
> <PUBCHEM_IUPAC_NAME_MARKUP>
(4<I>R</I>)-4-[[(2<I>S</I>)-2-acetamido-3-carboxypropanoyl]amino]-5-[[(2<I>S</I>)-1-[[(2<I>S</I>,3<I>S</I>)-1-[[(1<I>S</I>)-1-cyclohexyl-2-oxo-2-[[(3<I>S</I>)-4-oxo-6-(1,3-thiazol-2-yl)hexan-3-yl]amino]ethyl]amino]-3-methyl-1-oxopentan-2-yl]amino]-4-methyl-1-oxopentan-2-yl]amino]-5-oxopentanoic acid
> <PUBCHEM_IUPAC_NAME>
(4R)-4-[[(2S)-2-acetamido-3-carboxypropanoyl]amino]-5-[[(2S)-1-[[(2S,3S)-1-[[(1S)-1-cyclohexyl-2-oxo-2-[[(3S)-4-oxo-6-(1,3-thiazol-2-yl)hexan-3-yl]amino]ethyl]amino]-3-methyl-1-oxopentan-2-yl]amino]-4-methyl-1-oxopentan-2-yl]amino]-5-oxopentanoic acid
> <PUBCHEM_IUPAC_SYSTEMATIC_NAME>
(4R)-4-[[(2S)-2-acetamido-4-oxidanyl-4-oxidanylidene-butanoyl]amino]-5-[[(2S)-1-[[(2S,3S)-1-[[(1S)-1-cyclohexyl-2-oxidanylidene-2-[[(3S)-4-oxidanylidene-6-(1,3-thiazol-2-yl)hexan-3-yl]amino]ethyl]amino]-3-methyl-1-oxidanylidene-pentan-2-yl]amino]-4-methyl-1-oxidanylidene-pentan-2-yl]amino]-5-oxidanylidene-pentanoic acid
> <PUBCHEM_IUPAC_TRADITIONAL_NAME>
(4R)-4-[[(2S)-2-acetamido-3-carboxy-propanoyl]amino]-5-[[(1S)-1-[[(1S,2S)-1-[[(1S)-1-cyclohexyl-2-[[(1S)-1-ethyl-2-keto-4-thiazol-2-yl-butyl]amino]-2-keto-ethyl]carbamoyl]-2-methyl-butyl]carbamoyl]-3-methyl-butyl]amino]-5-keto-valeric acid
> <PUBCHEM_IUPAC_INCHI>
InChI=1S/C40H63N7O11S/c1-7-23(5)34(39(57)47-35(25-12-10-9-11-13-25)40(58)43-26(8-2)30(49)15-16-31-41-18-19-59-31)46-38(56)28(20-22(3)4)45-36(54)27(14-17-32(50)51)44-37(55)29(21-33(52)53)42-24(6)48/h18-19,22-23,25-29,34-35H,7-17,20-21H2,1-6H3,(H,42,48)(H,43,58)(H,44,55)(H,45,54)(H,46,56)(H,47,57)(H,50,51)(H,52,53)/t23-,26-,27+,28-,29-,34-,35-/m0/s1
> <PUBCHEM_IUPAC_INCHIKEY>
XLWDVPDAGGTDFN-IEFJLIJXSA-N
> <PUBCHEM_XLOGP3_AA>
3.2
> <PUBCHEM_EXACT_MASS>
849.43062702
> <PUBCHEM_MOLECULAR_FORMULA>
C40H63N7O11S
> <PUBCHEM_MOLECULAR_WEIGHT>
850.0
> <PUBCHEM_OPENEYE_CAN_SMILES>
CCC(C)C(C(=O)NC(C1CCCCC1)C(=O)NC(CC)C(=O)CCC2=NC=CS2)NC(=O)C(CC(C)C)NC(=O)C(CCC(=O)O)NC(=O)C(CC(=O)O)NC(=O)C
> <PUBCHEM_OPENEYE_ISO_SMILES>
CC[C@H](C)[C@@H](C(=O)N[C@@H](C1CCCCC1)C(=O)N[C@@H](CC)C(=O)CCC2=NC=CS2)NC(=O)[C@H](CC(C)C)NC(=O)[C@@H](CCC(=O)O)NC(=O)[C@H](CC(=O)O)NC(=O)C
> <PUBCHEM_CACTVS_TPSA>
307
> <PUBCHEM_MONOISOTOPIC_WEIGHT>
849.43062702
> <PUBCHEM_TOTAL_CHARGE>
0
> <PUBCHEM_HEAVY_ATOM_COUNT>
59
> <PUBCHEM_ATOM_DEF_STEREO_COUNT>
7
> <PUBCHEM_ATOM_UDEF_STEREO_COUNT>
0
> <PUBCHEM_BOND_DEF_STEREO_COUNT>
0
> <PUBCHEM_BOND_UDEF_STEREO_COUNT>
0
> <PUBCHEM_ISOTOPIC_ATOM_COUNT>
0
> <PUBCHEM_COMPONENT_COUNT>
1
> <PUBCHEM_CACTVS_TAUTO_COUNT>
-1
> <PUBCHEM_COORDINATE_TYPE>
1
5
255
> <PUBCHEM_BONDANNOTATIONS>
1  49  8
1  55  8
23  13  5
31  14  6
28  15  5
35  16  6
47  17  5
18  49  8
18  56  8
52  19  5
30  33  6
55  56  8
$$$$
