506533
  -OEChem-10302200282D
 27 28  0     1  0  0  0  0  0999 V2000
    3.2601    2.3649    0.0000 O   0  0  0  0  0  0  0  0  0  0  0  0
    2.0280   -2.1739    0.0000 O   0  0  0  0  0  0  0  0  0  0  0  0
    2.0000    1.1048    0.0000 O   0  0  0  0  0  0  0  0  0  0  0  0
    4.2601    2.3649    0.0000 C   0  0  3  0  0  0  0  0  0  0  0  0
    3.7601    0.8261    0.0000 C   0  0  0  0  0  0  0  0  0  0  0  0
    4.5691    1.4139    0.0000 C   0  0  0  0  0  0  0  0  0  0  0  0
    3.7601   -0.1739    0.0000 C   0  0  0  0  0  0  0  0  0  0  0  0
    2.9511    1.4139    0.0000 C   0  0  0  0  0  0  0  0  0  0  0  0
    4.8479    3.1739    0.0000 C   0  0  0  0  0  0  0  0  0  0  0  0
    2.8940   -0.6739    0.0000 C   0  0  0  0  0  0  0  0  0  0  0  0
    4.6261   -0.6739    0.0000 C   0  0  0  0  0  0  0  0  0  0  0  0
    2.8940   -1.6739    0.0000 C   0  0  0  0  0  0  0  0  0  0  0  0
    4.6261   -1.6739    0.0000 C   0  0  0  0  0  0  0  0  0  0  0  0
    3.7601   -2.1739    0.0000 C   0  0  0  0  0  0  0  0  0  0  0  0
    2.0280   -3.1739    0.0000 C   0  0  0  0  0  0  0  0  0  0  0  0
    3.9786    2.9173    0.0000 H   0  0  0  0  0  0  0  0  0  0  0  0
    5.1588    1.2223    0.0000 H   0  0  0  0  0  0  0  0  0  0  0  0
    5.3494    2.8095    0.0000 H   0  0  0  0  0  0  0  0  0  0  0  0
    5.2123    3.6755    0.0000 H   0  0  0  0  0  0  0  0  0  0  0  0
    4.3463    3.5384    0.0000 H   0  0  0  0  0  0  0  0  0  0  0  0
    2.3571   -0.3639    0.0000 H   0  0  0  0  0  0  0  0  0  0  0  0
    5.1630   -0.3639    0.0000 H   0  0  0  0  0  0  0  0  0  0  0  0
    5.1630   -1.9839    0.0000 H   0  0  0  0  0  0  0  0  0  0  0  0
    3.7601   -2.7939    0.0000 H   0  0  0  0  0  0  0  0  0  0  0  0
    1.4080   -3.1739    0.0000 H   0  0  0  0  0  0  0  0  0  0  0  0
    2.0280   -3.7939    0.0000 H   0  0  0  0  0  0  0  0  0  0  0  0
    2.6480   -3.1739    0.0000 H   0  0  0  0  0  0  0  0  0  0  0  0
  1  4  1  0  0  0  0
  1  8  1  0  0  0  0
  2 12  1  0  0  0  0
  2 15  1  0  0  0  0
  3  8  2  0  0  0  0
  4  6  1  0  0  0  0
  4  9  1  0  0  0  0
  4 16  1  0  0  0  0
  5  6  2  0  0  0  0
  5  7  1  0  0  0  0
  5  8  1  0  0  0  0
  6 17  1  0  0  0  0
  7 10  2  0  0  0  0
  7 11  1  0  0  0  0
  9 18  1  0  0  0  0
  9 19  1  0  0  0  0
  9 20  1  0  0  0  0
 10 12  1  0  0  0  0
 10 21  1  0  0  0  0
 11 13  2  0  0  0  0
 11 22  1  0  0  0  0
 12 14  2  0  0  0  0
 13 14  1  0  0  0  0
 13 23  1  0  0  0  0
 14 24  1  0  0  0  0
 15 25  1  0  0  0  0
 15 26  1  0  0  0  0
 15 27  1  0  0  0  0
M  END
> <PUBCHEM_COMPOUND_CID>
506533
> <PUBCHEM_COMPOUND_CANONICALIZED>
1
> <PUBCHEM_CACTVS_COMPLEXITY>
283
> <PUBCHEM_CACTVS_HBOND_ACCEPTOR>
3
> <PUBCHEM_CACTVS_HBOND_DONOR>
0
> <PUBCHEM_CACTVS_ROTATABLE_BOND>
2
> <PUBCHEM_CACTVS_SUBSKEYS>
AAADccBwMAAAAAAAAAAAAAAAAAAAAQAAAAAwAAAAAAAAAAABAAAAGgAAAAAADBSgmAIyDoAABACIAiDSCAACCAAgIAAIiAEGCMgMJjKENRqCMCAkwBEIqYeI7LzOAAABAAAAAAAAAAIAAAAAAAAAAAAAAA==
> <PUBCHEM_IUPAC_OPENEYE_NAME>
4-(3-methoxyphenyl)-2-methyl-2H-furan-5-one
> <PUBCHEM_IUPAC_CAS_NAME>
4-(3-methoxyphenyl)-2-methyl-2H-furan-5-one
> <PUBCHEM_IUPAC_NAME_MARKUP>
4-(3-methoxyphenyl)-2-methyl-2<I>H</I>-furan-5-one
> <PUBCHEM_IUPAC_NAME>
4-(3-methoxyphenyl)-2-methyl-2H-furan-5-one
> <PUBCHEM_IUPAC_SYSTEMATIC_NAME>
4-(3-methoxyphenyl)-2-methyl-2H-furan-5-one
> <PUBCHEM_IUPAC_TRADITIONAL_NAME>
4-(3-methoxyphenyl)-2-methyl-2H-furan-5-one
> <PUBCHEM_IUPAC_INCHI>
InChI=1S/C12H12O3/c1-8-6-11(12(13)15-8)9-4-3-5-10(7-9)14-2/h3-8H,1-2H3
> <PUBCHEM_IUPAC_INCHIKEY>
LGVYLFRLCHCRQB-UHFFFAOYSA-N
> <PUBCHEM_XLOGP3_AA>
2.2
> <PUBCHEM_EXACT_MASS>
204.078644241
> <PUBCHEM_MOLECULAR_FORMULA>
C12H12O3
> <PUBCHEM_MOLECULAR_WEIGHT>
204.22
> <PUBCHEM_OPENEYE_CAN_SMILES>
CC1C=C(C(=O)O1)C2=CC(=CC=C2)OC
> <PUBCHEM_OPENEYE_ISO_SMILES>
CC1C=C(C(=O)O1)C2=CC(=CC=C2)OC
> <PUBCHEM_CACTVS_TPSA>
35.5
> <PUBCHEM_MONOISOTOPIC_WEIGHT>
204.078644241
> <PUBCHEM_TOTAL_CHARGE>
0
> <PUBCHEM_HEAVY_ATOM_COUNT>
15
> <PUBCHEM_ATOM_DEF_STEREO_COUNT>
0
> <PUBCHEM_ATOM_UDEF_STEREO_COUNT>
1
> <PUBCHEM_BOND_DEF_STEREO_COUNT>
0
> <PUBCHEM_BOND_UDEF_STEREO_COUNT>
0
> <PUBCHEM_ISOTOPIC_ATOM_COUNT>
0
> <PUBCHEM_COMPONENT_COUNT>
1
> <PUBCHEM_CACTVS_TAUTO_COUNT>
-1
> <PUBCHEM_COORDINATE_TYPE>
1
5
255
> <PUBCHEM_BONDANNOTATIONS>
10  12  8
11  13  8
12  14  8
13  14  8
4  9  3
7  10  8
7  11  8
$$$$
