506678
  -OEChem-10302200282D
 97100  0     1  0  0  0  0  0999 V2000
    5.4641   -1.4076    0.0000 O   0  0  0  0  0  0  0  0  0  0  0  0
    8.8141    1.3129    0.0000 O   0  0  0  0  0  0  0  0  0  0  0  0
    9.4951    0.1333    0.0000 O   0  0  0  0  0  0  0  0  0  0  0  0
    6.0562    3.6354    0.0000 O   0  0  0  0  0  0  0  0  0  0  0  0
    6.3301   -2.9076    0.0000 O   0  0  0  0  0  0  0  0  0  0  0  0
   11.7098   -2.7119    0.0000 O   0  0  0  0  0  0  0  0  0  0  0  0
    8.2709    6.4806    0.0000 O   0  0  0  0  0  0  0  0  0  0  0  0
    2.8660   -5.9076    0.0000 O   0  0  0  0  0  0  0  0  0  0  0  0
    7.4128    0.2948    0.0000 N   0  0  0  0  0  0  0  0  0  0  0  0
    7.6385    2.9309    0.0000 N   0  0  0  0  0  0  0  0  0  0  0  0
    9.3141   -1.5893    0.0000 N   0  0  0  0  0  0  0  0  0  0  0  0
    6.8697    5.4625    0.0000 N   0  0  0  0  0  0  0  0  0  0  0  0
    4.5981   -2.9076    0.0000 N   0  0  0  0  0  0  0  0  0  0  0  0
    5.6941    7.0805    0.0000 N   0  0  0  0  0  0  0  0  0  0  0  0
    6.5076    8.9076    0.0000 N   0  0  0  0  0  0  0  0  0  0  0  0
    7.9128   -0.5712    0.0000 C   0  0  1  0  0  0  0  0  0  0  0  0
    7.2437   -1.3144    0.0000 C   0  0  0  0  0  0  0  0  0  0  0  0
    6.3301   -0.9076    0.0000 C   0  0  2  0  0  0  0  0  0  0  0  0
    6.4347    0.0869    0.0000 C   0  0  0  0  0  0  0  0  0  0  0  0
    7.8195    1.2084    0.0000 C   0  0  0  0  0  0  0  0  0  0  0  0
    7.2318    2.0174    0.0000 C   0  0  2  0  0  0  0  0  0  0  0  0
    8.9073   -0.6757    0.0000 C   0  0  0  0  0  0  0  0  0  0  0  0
    6.2372    1.9128    0.0000 C   0  0  0  0  0  0  0  0  0  0  0  0
    5.6494    2.7219    0.0000 C   0  0  0  0  0  0  0  0  0  0  0  0
    5.8305    0.9993    0.0000 C   0  0  0  0  0  0  0  0  0  0  0  0
   10.3086   -1.6938    0.0000 C   0  0  1  0  0  0  0  0  0  0  0  0
    7.0507    3.7399    0.0000 C   0  0  0  0  0  0  0  0  0  0  0  0
    7.4574    4.6535    0.0000 C   0  0  2  0  0  0  0  0  0  0  0  0
    5.4641   -2.4076    0.0000 C   0  0  0  0  0  0  0  0  0  0  0  0
    8.4520    4.7580    0.0000 C   0  0  0  0  0  0  0  0  0  0  0  0
   10.8964   -0.8848    0.0000 C   0  0  0  0  0  0  0  0  0  0  0  0
   10.7153   -2.6074    0.0000 C   0  0  0  0  0  0  0  0  0  0  0  0
    8.8587    5.6716    0.0000 C   0  0  0  0  0  0  0  0  0  0  0  0
    9.0398    3.9490    0.0000 C   0  0  0  0  0  0  0  0  0  0  0  0
   11.8909   -0.9893    0.0000 C   0  0  0  0  0  0  0  0  0  0  0  0
    4.5981   -3.9076    0.0000 C   0  0  0  0  0  0  0  0  0  0  0  0
    7.2764    6.3760    0.0000 C   0  0  0  0  0  0  0  0  0  0  0  0
    3.7320   -4.4076    0.0000 C   0  0  0  0  0  0  0  0  0  0  0  0
    6.6886    7.1851    0.0000 C   0  0  0  0  0  0  0  0  0  0  0  0
    5.4641   -4.4076    0.0000 C   0  0  0  0  0  0  0  0  0  0  0  0
    3.7320   -5.4076    0.0000 C   0  0  0  0  0  0  0  0  0  0  0  0
    5.4641   -5.4076    0.0000 C   0  0  0  0  0  0  0  0  0  0  0  0
    4.5981   -5.9076    0.0000 C   0  0  0  0  0  0  0  0  0  0  0  0
    7.0954    8.0986    0.0000 C   0  0  0  0  0  0  0  0  0  0  0  0
    5.1063    7.8896    0.0000 C   0  0  0  0  0  0  0  0  0  0  0  0
    5.5130    8.8031    0.0000 C   0  0  0  0  0  0  0  0  0  0  0  0
    2.8660   -6.9076    0.0000 C   0  0  0  0  0  0  0  0  0  0  0  0
    3.7320   -7.4076    0.0000 C   0  0  0  0  0  0  0  0  0  0  0  0
    2.0000   -7.4076    0.0000 C   0  0  0  0  0  0  0  0  0  0  0  0
    3.7320   -8.4076    0.0000 C   0  0  0  0  0  0  0  0  0  0  0  0
    2.0000   -8.4076    0.0000 C   0  0  0  0  0  0  0  0  0  0  0  0
    2.8660   -8.9076    0.0000 C   0  0  0  0  0  0  0  0  0  0  0  0
    8.2505   -0.0512    0.0000 H   0  0  0  0  0  0  0  0  0  0  0  0
    6.9337   -1.8513    0.0000 H   0  0  0  0  0  0  0  0  0  0  0  0
    7.7453   -1.6788    0.0000 H   0  0  0  0  0  0  0  0  0  0  0  0
    5.8102   -0.5699    0.0000 H   0  0  0  0  0  0  0  0  0  0  0  0
    6.3698    0.7035    0.0000 H   0  0  0  0  0  0  0  0  0  0  0  0
    5.8147    0.0869    0.0000 H   0  0  0  0  0  0  0  0  0  0  0  0
    6.8673    2.5190    0.0000 H   0  0  0  0  0  0  0  0  0  0  0  0
    6.6017    1.4112    0.0000 H   0  0  0  0  0  0  0  0  0  0  0  0
    8.2551    2.9957    0.0000 H   0  0  0  0  0  0  0  0  0  0  0  0
    8.9496   -2.0909    0.0000 H   0  0  0  0  0  0  0  0  0  0  0  0
    6.1510    3.0863    0.0000 H   0  0  0  0  0  0  0  0  0  0  0  0
    5.2850    3.2234    0.0000 H   0  0  0  0  0  0  0  0  0  0  0  0
    5.1479    2.3574    0.0000 H   0  0  0  0  0  0  0  0  0  0  0  0
    5.2641    1.2515    0.0000 H   0  0  0  0  0  0  0  0  0  0  0  0
    5.5783    0.4329    0.0000 H   0  0  0  0  0  0  0  0  0  0  0  0
    6.3969    0.7471    0.0000 H   0  0  0  0  0  0  0  0  0  0  0  0
    9.9442   -2.1954    0.0000 H   0  0  0  0  0  0  0  0  0  0  0  0
    6.8408    4.5887    0.0000 H   0  0  0  0  0  0  0  0  0  0  0  0
    8.1998    4.1916    0.0000 H   0  0  0  0  0  0  0  0  0  0  0  0
   11.0673   -0.2888    0.0000 H   0  0  0  0  0  0  0  0  0  0  0  0
   10.3391   -0.6130    0.0000 H   0  0  0  0  0  0  0  0  0  0  0  0
    6.2530    5.3977    0.0000 H   0  0  0  0  0  0  0  0  0  0  0  0
   10.3509   -3.1090    0.0000 H   0  0  0  0  0  0  0  0  0  0  0  0
    9.4251    5.4194    0.0000 H   0  0  0  0  0  0  0  0  0  0  0  0
    9.1109    6.2380    0.0000 H   0  0  0  0  0  0  0  0  0  0  0  0
    8.2923    5.9237    0.0000 H   0  0  0  0  0  0  0  0  0  0  0  0
    8.5382    3.5846    0.0000 H   0  0  0  0  0  0  0  0  0  0  0  0
    9.4042    3.4474    0.0000 H   0  0  0  0  0  0  0  0  0  0  0  0
    9.5413    4.3134    0.0000 H   0  0  0  0  0  0  0  0  0  0  0  0
    4.0611   -2.5976    0.0000 H   0  0  0  0  0  0  0  0  0  0  0  0
   11.8261   -1.6059    0.0000 H   0  0  0  0  0  0  0  0  0  0  0  0
   12.5075   -1.0541    0.0000 H   0  0  0  0  0  0  0  0  0  0  0  0
   11.9557   -0.3727    0.0000 H   0  0  0  0  0  0  0  0  0  0  0  0
    3.1951   -4.0976    0.0000 H   0  0  0  0  0  0  0  0  0  0  0  0
    6.0010   -4.0976    0.0000 H   0  0  0  0  0  0  0  0  0  0  0  0
    6.0010   -5.7176    0.0000 H   0  0  0  0  0  0  0  0  0  0  0  0
    4.5981   -6.5276    0.0000 H   0  0  0  0  0  0  0  0  0  0  0  0
    7.7120    8.1634    0.0000 H   0  0  0  0  0  0  0  0  0  0  0  0
    4.4897    7.8247    0.0000 H   0  0  0  0  0  0  0  0  0  0  0  0
    5.1486    9.3047    0.0000 H   0  0  0  0  0  0  0  0  0  0  0  0
    4.2690   -7.0976    0.0000 H   0  0  0  0  0  0  0  0  0  0  0  0
    1.4631   -7.0976    0.0000 H   0  0  0  0  0  0  0  0  0  0  0  0
    4.2690   -8.7176    0.0000 H   0  0  0  0  0  0  0  0  0  0  0  0
    1.4631   -8.7176    0.0000 H   0  0  0  0  0  0  0  0  0  0  0  0
    2.8660   -9.5276    0.0000 H   0  0  0  0  0  0  0  0  0  0  0  0
 18  1  1  1  0  0  0
  1 29  1  0  0  0  0
  2 20  2  0  0  0  0
  3 22  2  0  0  0  0
  4 27  2  0  0  0  0
  5 29  2  0  0  0  0
  6 32  2  0  0  0  0
  7 37  2  0  0  0  0
  8 41  1  0  0  0  0
  8 47  1  0  0  0  0
  9 16  1  0  0  0  0
  9 19  1  0  0  0  0
  9 20  1  0  0  0  0
 21 10  1  6  0  0  0
 10 27  1  0  0  0  0
 10 61  1  0  0  0  0
 11 22  1  0  0  0  0
 26 11  1  1  0  0  0
 11 62  1  0  0  0  0
 28 12  1  1  0  0  0
 12 37  1  0  0  0  0
 12 74  1  0  0  0  0
 13 29  1  0  0  0  0
 13 36  1  0  0  0  0
 13 82  1  0  0  0  0
 14 39  2  0  0  0  0
 14 45  1  0  0  0  0
 15 44  2  0  0  0  0
 15 46  1  0  0  0  0
 16 17  1  0  0  0  0
 16 22  1  6  0  0  0
 16 53  1  0  0  0  0
 17 18  1  0  0  0  0
 17 54  1  0  0  0  0
 17 55  1  0  0  0  0
 18 19  1  0  0  0  0
 18 56  1  0  0  0  0
 19 57  1  0  0  0  0
 19 58  1  0  0  0  0
 20 21  1  0  0  0  0
 21 23  1  0  0  0  0
 21 59  1  0  0  0  0
 23 24  1  0  0  0  0
 23 25  1  0  0  0  0
 23 60  1  0  0  0  0
 24 63  1  0  0  0  0
 24 64  1  0  0  0  0
 24 65  1  0  0  0  0
 25 66  1  0  0  0  0
 25 67  1  0  0  0  0
 25 68  1  0  0  0  0
 26 31  1  0  0  0  0
 26 32  1  0  0  0  0
 26 69  1  0  0  0  0
 27 28  1  0  0  0  0
 28 30  1  0  0  0  0
 28 70  1  0  0  0  0
 30 33  1  0  0  0  0
 30 34  1  0  0  0  0
 30 71  1  0  0  0  0
 31 35  1  0  0  0  0
 31 72  1  0  0  0  0
 31 73  1  0  0  0  0
 32 75  1  0  0  0  0
 33 76  1  0  0  0  0
 33 77  1  0  0  0  0
 33 78  1  0  0  0  0
 34 79  1  0  0  0  0
 34 80  1  0  0  0  0
 34 81  1  0  0  0  0
 35 83  1  0  0  0  0
 35 84  1  0  0  0  0
 35 85  1  0  0  0  0
 36 38  2  0  0  0  0
 36 40  1  0  0  0  0
 37 39  1  0  0  0  0
 38 41  1  0  0  0  0
 38 86  1  0  0  0  0
 39 44  1  0  0  0  0
 40 42  2  0  0  0  0
 40 87  1  0  0  0  0
 41 43  2  0  0  0  0
 42 43  1  0  0  0  0
 42 88  1  0  0  0  0
 43 89  1  0  0  0  0
 44 90  1  0  0  0  0
 45 46  2  0  0  0  0
 45 91  1  0  0  0  0
 46 92  1  0  0  0  0
 47 48  2  0  0  0  0
 47 49  1  0  0  0  0
 48 50  1  0  0  0  0
 48 93  1  0  0  0  0
 49 51  2  0  0  0  0
 49 94  1  0  0  0  0
 50 52  2  0  0  0  0
 50 95  1  0  0  0  0
 51 52  1  0  0  0  0
 51 96  1  0  0  0  0
 52 97  1  0  0  0  0
M  END
> <PUBCHEM_COMPOUND_CID>
506678
> <PUBCHEM_COMPOUND_CANONICALIZED>
1
> <PUBCHEM_CACTVS_COMPLEXITY>
1230
> <PUBCHEM_CACTVS_HBOND_ACCEPTOR>
10
> <PUBCHEM_CACTVS_HBOND_DONOR>
4
> <PUBCHEM_CACTVS_ROTATABLE_BOND>
16
> <PUBCHEM_CACTVS_SUBSKEYS>
AAADcfB/vAAAAAAAAAAAAAAAAAAAAWAAAAA8YIAAAAAAAAAB0AAAHgAQAAAADTzhlgY+zpPIFACoAT133ACCiCQ3MiAI2IG+fMkOZnrE8bufOKjm1hnY6Me6UQMIAAAAAgAAAAAAAAAEAAAAAAAAAAAAAA==
> <PUBCHEM_IUPAC_OPENEYE_NAME>
[(3R,5S)-5-[[(1S)-1-formylpropyl]carbamoyl]-1-[(2S)-3-methyl-2-[[(2S)-3-methyl-2-(pyrazine-2-carbonylamino)butanoyl]amino]butanoyl]pyrrolidin-3-yl] N-(3-phenoxyphenyl)carbamate
> <PUBCHEM_IUPAC_CAS_NAME>
N-(3-phenoxyphenyl)carbamic acid [(3R,5S)-1-[(2S)-3-methyl-2-[[(2S)-3-methyl-1-oxo-2-[[oxo(2-pyrazinyl)methyl]amino]butyl]amino]-1-oxobutyl]-5-[oxo-[[(2S)-1-oxobutan-2-yl]amino]methyl]-3-pyrrolidinyl] ester
> <PUBCHEM_IUPAC_NAME_MARKUP>
[(3<I>R</I>,5<I>S</I>)-1-[(2<I>S</I>)-3-methyl-2-[[(2<I>S</I>)-3-methyl-2-(pyrazine-2-carbonylamino)butanoyl]amino]butanoyl]-5-[[(2<I>S</I>)-1-oxobutan-2-yl]carbamoyl]pyrrolidin-3-yl] <I>N</I>-(3-phenoxyphenyl)carbamate
> <PUBCHEM_IUPAC_NAME>
[(3R,5S)-1-[(2S)-3-methyl-2-[[(2S)-3-methyl-2-(pyrazine-2-carbonylamino)butanoyl]amino]butanoyl]-5-[[(2S)-1-oxobutan-2-yl]carbamoyl]pyrrolidin-3-yl] N-(3-phenoxyphenyl)carbamate
> <PUBCHEM_IUPAC_SYSTEMATIC_NAME>
[(3R,5S)-1-[(2S)-3-methyl-2-[[(2S)-3-methyl-2-(pyrazin-2-ylcarbonylamino)butanoyl]amino]butanoyl]-5-[[(2S)-1-oxidanylidenebutan-2-yl]carbamoyl]pyrrolidin-3-yl] N-(3-phenoxyphenyl)carbamate
> <PUBCHEM_IUPAC_TRADITIONAL_NAME>
N-(3-phenoxyphenyl)carbamic acid [(3R,5S)-5-[[(1S)-1-formylpropyl]carbamoyl]-1-[(2S)-3-methyl-2-[[(2S)-3-methyl-2-(pyrazinoylamino)butanoyl]amino]butanoyl]pyrrolidin-3-yl] ester
> <PUBCHEM_IUPAC_INCHI>
InChI=1S/C37H45N7O8/c1-6-24(21-45)40-34(47)30-18-28(52-37(50)41-25-11-10-14-27(17-25)51-26-12-8-7-9-13-26)20-44(30)36(49)32(23(4)5)43-35(48)31(22(2)3)42-33(46)29-19-38-15-16-39-29/h7-17,19,21-24,28,30-32H,6,18,20H2,1-5H3,(H,40,47)(H,41,50)(H,42,46)(H,43,48)/t24-,28+,30-,31-,32-/m0/s1
> <PUBCHEM_IUPAC_INCHIKEY>
IECDFKMVILTEPT-ZBMDFESBSA-N
> <PUBCHEM_XLOGP3_AA>
3.8
> <PUBCHEM_EXACT_MASS>
715.33296142
> <PUBCHEM_MOLECULAR_FORMULA>
C37H45N7O8
> <PUBCHEM_MOLECULAR_WEIGHT>
715.8
> <PUBCHEM_OPENEYE_CAN_SMILES>
CCC(C=O)NC(=O)C1CC(CN1C(=O)C(C(C)C)NC(=O)C(C(C)C)NC(=O)C2=NC=CN=C2)OC(=O)NC3=CC(=CC=C3)OC4=CC=CC=C4
> <PUBCHEM_OPENEYE_ISO_SMILES>
CC[C@@H](C=O)NC(=O)[C@@H]1C[C@H](CN1C(=O)[C@H](C(C)C)NC(=O)[C@H](C(C)C)NC(=O)C2=NC=CN=C2)OC(=O)NC3=CC(=CC=C3)OC4=CC=CC=C4
> <PUBCHEM_CACTVS_TPSA>
198
> <PUBCHEM_MONOISOTOPIC_WEIGHT>
715.33296142
> <PUBCHEM_TOTAL_CHARGE>
0
> <PUBCHEM_HEAVY_ATOM_COUNT>
52
> <PUBCHEM_ATOM_DEF_STEREO_COUNT>
5
> <PUBCHEM_ATOM_UDEF_STEREO_COUNT>
0
> <PUBCHEM_BOND_DEF_STEREO_COUNT>
0
> <PUBCHEM_BOND_UDEF_STEREO_COUNT>
0
> <PUBCHEM_ISOTOPIC_ATOM_COUNT>
0
> <PUBCHEM_COMPONENT_COUNT>
1
> <PUBCHEM_CACTVS_TAUTO_COUNT>
-1
> <PUBCHEM_COORDINATE_TYPE>
1
5
255
> <PUBCHEM_BONDANNOTATIONS>
18  1  5
21  10  6
26  11  5
28  12  5
14  39  8
14  45  8
15  44  8
15  46  8
16  22  6
36  38  8
36  40  8
38  41  8
39  44  8
40  42  8
41  43  8
42  43  8
45  46  8
47  48  8
47  49  8
48  50  8
49  51  8
50  52  8
51  52  8
$$$$
