506630
  -OEChem-10302200282D
 94 97  0     1  0  0  0  0  0999 V2000
    6.1084   -1.0432    0.0000 O   0  0  0  0  0  0  0  0  0  0  0  0
    8.0622    2.8046    0.0000 O   0  0  0  0  0  0  0  0  0  0  0  0
    9.1641    2.0040    0.0000 O   0  0  0  0  0  0  0  0  0  0  0  0
    4.5981    3.8046    0.0000 O   0  0  0  0  0  0  0  0  0  0  0  0
    4.6183   -3.7168    0.0000 O   0  0  0  0  0  0  0  0  0  0  0  0
   12.3446    0.3056    0.0000 O   0  0  0  0  0  0  0  0  0  0  0  0
    5.4641    7.3046    0.0000 O   0  0  0  0  0  0  0  0  0  0  0  0
    5.4273   -8.3046    0.0000 O   0  0  0  0  0  0  0  0  0  0  0  0
    7.1962    1.3046    0.0000 N   0  0  0  0  0  0  0  0  0  0  0  0
    6.3301    3.8046    0.0000 N   0  0  0  0  0  0  0  0  0  0  0  0
    9.6994    0.3567    0.0000 N   0  0  0  0  0  0  0  0  0  0  0  0
    4.5981    5.8046    0.0000 N   0  0  0  0  0  0  0  0  0  0  0  0
    6.2363   -3.7168    0.0000 N   0  0  0  0  0  0  0  0  0  0  0  0
    4.9273   -2.7658    0.0000 N   0  0  0  0  0  0  0  0  0  0  0  0
    2.8660    6.8046    0.0000 N   0  0  0  0  0  0  0  0  0  0  0  0
    2.8660    8.8046    0.0000 N   0  0  0  0  0  0  0  0  0  0  0  0
    8.0052    0.7168    0.0000 C   0  0  1  0  0  0  0  0  0  0  0  0
    6.6962   -0.2342    0.0000 C   0  0  2  0  0  0  0  0  0  0  0  0
    7.6962   -0.2342    0.0000 C   0  0  0  0  0  0  0  0  0  0  0  0
    6.3871    0.7168    0.0000 C   0  0  0  0  0  0  0  0  0  0  0  0
    7.1962    2.3046    0.0000 C   0  0  0  0  0  0  0  0  0  0  0  0
    6.3301    2.8046    0.0000 C   0  0  2  0  0  0  0  0  0  0  0  0
    8.9562    1.0259    0.0000 C   0  0  0  0  0  0  0  0  0  0  0  0
    5.4641    2.3046    0.0000 C   0  0  0  0  0  0  0  0  0  0  0  0
    4.5981    2.8046    0.0000 C   0  0  0  0  0  0  0  0  0  0  0  0
    5.4641    1.3046    0.0000 C   0  0  0  0  0  0  0  0  0  0  0  0
    6.5151   -1.9568    0.0000 C   0  0  0  0  0  0  0  0  0  0  0  0
   10.6504    0.6657    0.0000 C   0  0  1  0  0  0  0  0  0  0  0  0
    5.4641    4.3046    0.0000 C   0  0  0  0  0  0  0  0  0  0  0  0
    5.4641    5.3046    0.0000 C   0  0  2  0  0  0  0  0  0  0  0  0
    6.3301    5.8046    0.0000 C   0  0  0  0  0  0  0  0  0  0  0  0
   10.8583    1.6439    0.0000 C   0  0  0  0  0  0  0  0  0  0  0  0
    5.9273   -2.7658    0.0000 C   0  0  0  0  0  0  0  0  0  0  0  0
   11.3936   -0.0034    0.0000 C   0  0  0  0  0  0  0  0  0  0  0  0
    6.3301    6.8046    0.0000 C   0  0  0  0  0  0  0  0  0  0  0  0
    7.1962    5.3046    0.0000 C   0  0  0  0  0  0  0  0  0  0  0  0
   11.8094    1.9529    0.0000 C   0  0  0  0  0  0  0  0  0  0  0  0
    4.5981    6.8046    0.0000 C   0  0  0  0  0  0  0  0  0  0  0  0
    5.4273   -4.3046    0.0000 C   0  0  0  0  0  0  0  0  0  0  0  0
    3.7320    7.3046    0.0000 C   0  0  0  0  0  0  0  0  0  0  0  0
    5.4273   -5.3046    0.0000 C   0  0  0  0  0  0  0  0  0  0  0  0
    3.7320    8.3046    0.0000 C   0  0  0  0  0  0  0  0  0  0  0  0
    4.5613   -5.8046    0.0000 C   0  0  0  0  0  0  0  0  0  0  0  0
    6.2933   -5.8046    0.0000 C   0  0  0  0  0  0  0  0  0  0  0  0
    4.5613   -6.8046    0.0000 C   0  0  0  0  0  0  0  0  0  0  0  0
    6.2933   -6.8046    0.0000 C   0  0  0  0  0  0  0  0  0  0  0  0
    2.0000    7.3046    0.0000 C   0  0  0  0  0  0  0  0  0  0  0  0
    5.4273   -7.3046    0.0000 C   0  0  0  0  0  0  0  0  0  0  0  0
    2.0000    8.3046    0.0000 C   0  0  0  0  0  0  0  0  0  0  0  0
    4.5613   -8.8046    0.0000 C   0  0  0  0  0  0  0  0  0  0  0  0
    8.1022    1.3292    0.0000 H   0  0  0  0  0  0  0  0  0  0  0  0
    6.0838   -0.1372    0.0000 H   0  0  0  0  0  0  0  0  0  0  0  0
    7.6313   -0.8508    0.0000 H   0  0  0  0  0  0  0  0  0  0  0  0
    8.3026   -0.3631    0.0000 H   0  0  0  0  0  0  0  0  0  0  0  0
    6.0771    1.2538    0.0000 H   0  0  0  0  0  0  0  0  0  0  0  0
    5.8207    0.4647    0.0000 H   0  0  0  0  0  0  0  0  0  0  0  0
    6.8671    3.1146    0.0000 H   0  0  0  0  0  0  0  0  0  0  0  0
    5.4641    2.9246    0.0000 H   0  0  0  0  0  0  0  0  0  0  0  0
    6.8671    4.1146    0.0000 H   0  0  0  0  0  0  0  0  0  0  0  0
    9.5705   -0.2497    0.0000 H   0  0  0  0  0  0  0  0  0  0  0  0
    4.9081    3.3416    0.0000 H   0  0  0  0  0  0  0  0  0  0  0  0
    4.0611    3.1146    0.0000 H   0  0  0  0  0  0  0  0  0  0  0  0
    4.2881    2.2677    0.0000 H   0  0  0  0  0  0  0  0  0  0  0  0
    4.8441    1.3046    0.0000 H   0  0  0  0  0  0  0  0  0  0  0  0
    5.4641    0.6846    0.0000 H   0  0  0  0  0  0  0  0  0  0  0  0
    6.0841    1.3046    0.0000 H   0  0  0  0  0  0  0  0  0  0  0  0
    6.9458   -2.4028    0.0000 H   0  0  0  0  0  0  0  0  0  0  0  0
    7.0291   -1.6101    0.0000 H   0  0  0  0  0  0  0  0  0  0  0  0
   10.1897    1.0806    0.0000 H   0  0  0  0  0  0  0  0  0  0  0  0
    5.4641    5.9246    0.0000 H   0  0  0  0  0  0  0  0  0  0  0  0
    6.8671    6.1146    0.0000 H   0  0  0  0  0  0  0  0  0  0  0  0
   10.7721    2.2579    0.0000 H   0  0  0  0  0  0  0  0  0  0  0  0
   10.2387    1.6655    0.0000 H   0  0  0  0  0  0  0  0  0  0  0  0
    4.0611    5.4946    0.0000 H   0  0  0  0  0  0  0  0  0  0  0  0
   11.2647   -0.6098    0.0000 H   0  0  0  0  0  0  0  0  0  0  0  0
    6.9501    6.8046    0.0000 H   0  0  0  0  0  0  0  0  0  0  0  0
    6.3301    7.4246    0.0000 H   0  0  0  0  0  0  0  0  0  0  0  0
    5.7101    6.8046    0.0000 H   0  0  0  0  0  0  0  0  0  0  0  0
    6.8862    4.7677    0.0000 H   0  0  0  0  0  0  0  0  0  0  0  0
    7.7331    4.9946    0.0000 H   0  0  0  0  0  0  0  0  0  0  0  0
    7.5062    5.8416    0.0000 H   0  0  0  0  0  0  0  0  0  0  0  0
   12.0010    1.3633    0.0000 H   0  0  0  0  0  0  0  0  0  0  0  0
   12.3991    2.1445    0.0000 H   0  0  0  0  0  0  0  0  0  0  0  0
   11.6178    2.5426    0.0000 H   0  0  0  0  0  0  0  0  0  0  0  0
    4.2690    8.6146    0.0000 H   0  0  0  0  0  0  0  0  0  0  0  0
    4.0244   -5.4946    0.0000 H   0  0  0  0  0  0  0  0  0  0  0  0
    6.8303   -5.4946    0.0000 H   0  0  0  0  0  0  0  0  0  0  0  0
    4.0244   -7.1146    0.0000 H   0  0  0  0  0  0  0  0  0  0  0  0
    6.8303   -7.1146    0.0000 H   0  0  0  0  0  0  0  0  0  0  0  0
    1.4631    6.9946    0.0000 H   0  0  0  0  0  0  0  0  0  0  0  0
    1.4631    8.6146    0.0000 H   0  0  0  0  0  0  0  0  0  0  0  0
    4.2513   -8.2677    0.0000 H   0  0  0  0  0  0  0  0  0  0  0  0
    4.0244   -9.1146    0.0000 H   0  0  0  0  0  0  0  0  0  0  0  0
    4.8713   -9.3416    0.0000 H   0  0  0  0  0  0  0  0  0  0  0  0
 18  1  1  1  0  0  0
  1 27  1  0  0  0  0
  2 21  2  0  0  0  0
  3 23  2  0  0  0  0
  4 29  2  0  0  0  0
  5 14  1  0  0  0  0
  5 39  1  0  0  0  0
  6 34  2  0  0  0  0
  7 38  2  0  0  0  0
  8 48  1  0  0  0  0
  8 50  1  0  0  0  0
  9 17  1  0  0  0  0
  9 20  1  0  0  0  0
  9 21  1  0  0  0  0
 22 10  1  6  0  0  0
 10 29  1  0  0  0  0
 10 59  1  0  0  0  0
 11 23  1  0  0  0  0
 28 11  1  1  0  0  0
 11 60  1  0  0  0  0
 30 12  1  1  0  0  0
 12 38  1  0  0  0  0
 12 74  1  0  0  0  0
 13 33  1  0  0  0  0
 13 39  2  0  0  0  0
 14 33  2  0  0  0  0
 15 40  2  0  0  0  0
 15 47  1  0  0  0  0
 16 42  2  0  0  0  0
 16 49  1  0  0  0  0
 17 19  1  0  0  0  0
 17 23  1  6  0  0  0
 17 51  1  0  0  0  0
 18 19  1  0  0  0  0
 18 20  1  0  0  0  0
 18 52  1  0  0  0  0
 19 53  1  0  0  0  0
 19 54  1  0  0  0  0
 20 55  1  0  0  0  0
 20 56  1  0  0  0  0
 21 22  1  0  0  0  0
 22 24  1  0  0  0  0
 22 57  1  0  0  0  0
 24 25  1  0  0  0  0
 24 26  1  0  0  0  0
 24 58  1  0  0  0  0
 25 61  1  0  0  0  0
 25 62  1  0  0  0  0
 25 63  1  0  0  0  0
 26 64  1  0  0  0  0
 26 65  1  0  0  0  0
 26 66  1  0  0  0  0
 27 33  1  0  0  0  0
 27 67  1  0  0  0  0
 27 68  1  0  0  0  0
 28 32  1  0  0  0  0
 28 34  1  0  0  0  0
 28 69  1  0  0  0  0
 29 30  1  0  0  0  0
 30 31  1  0  0  0  0
 30 70  1  0  0  0  0
 31 35  1  0  0  0  0
 31 36  1  0  0  0  0
 31 71  1  0  0  0  0
 32 37  1  0  0  0  0
 32 72  1  0  0  0  0
 32 73  1  0  0  0  0
 34 75  1  0  0  0  0
 35 76  1  0  0  0  0
 35 77  1  0  0  0  0
 35 78  1  0  0  0  0
 36 79  1  0  0  0  0
 36 80  1  0  0  0  0
 36 81  1  0  0  0  0
 37 82  1  0  0  0  0
 37 83  1  0  0  0  0
 37 84  1  0  0  0  0
 38 40  1  0  0  0  0
 39 41  1  0  0  0  0
 40 42  1  0  0  0  0
 41 43  2  0  0  0  0
 41 44  1  0  0  0  0
 42 85  1  0  0  0  0
 43 45  1  0  0  0  0
 43 86  1  0  0  0  0
 44 46  2  0  0  0  0
 44 87  1  0  0  0  0
 45 48  2  0  0  0  0
 45 88  1  0  0  0  0
 46 48  1  0  0  0  0
 46 89  1  0  0  0  0
 47 49  2  0  0  0  0
 47 90  1  0  0  0  0
 49 91  1  0  0  0  0
 50 92  1  0  0  0  0
 50 93  1  0  0  0  0
 50 94  1  0  0  0  0
M  END
> <PUBCHEM_COMPOUND_CID>
506630
> <PUBCHEM_COMPOUND_CANONICALIZED>
1
> <PUBCHEM_CACTVS_COMPLEXITY>
1150
> <PUBCHEM_CACTVS_HBOND_ACCEPTOR>
12
> <PUBCHEM_CACTVS_HBOND_DONOR>
3
> <PUBCHEM_CACTVS_ROTATABLE_BOND>
16
> <PUBCHEM_CACTVS_SUBSKEYS>
AAADcfB//AAAAAAAAAAAAAAAAAAAAWLAAAA8QAAAAAAAAAAB8AAAHgAUAAAADTzhnwY/lpfYFACpAz939gSCiC03MqAp2KG+fNiObvrE/TuXMahm1xPYqce6/S7OIAAAAAAAAABAAAAAAAAAAAAAAAAAAA==
> <PUBCHEM_IUPAC_OPENEYE_NAME>
N-[(1S)-1-[[(1S)-1-[(2S,4R)-2-[[(1S)-1-formylpropyl]carbamoyl]-4-[[5-(4-methoxyphenyl)-1,2,4-oxadiazol-3-yl]methoxy]pyrrolidine-1-carbonyl]-2-methyl-propyl]carbamoyl]-2-methyl-propyl]pyrazine-2-carboxamide
> <PUBCHEM_IUPAC_CAS_NAME>
N-[(2S)-1-[[(2S)-1-[(2S,4R)-4-[[5-(4-methoxyphenyl)-1,2,4-oxadiazol-3-yl]methoxy]-2-[oxo-[[(2S)-1-oxobutan-2-yl]amino]methyl]-1-pyrrolidinyl]-3-methyl-1-oxobutan-2-yl]amino]-3-methyl-1-oxobutan-2-yl]-2-pyrazinecarboxamide
> <PUBCHEM_IUPAC_NAME_MARKUP>
<I>N</I>-[(2<I>S</I>)-1-[[(2<I>S</I>)-1-[(2<I>S</I>,4<I>R</I>)-4-[[5-(4-methoxyphenyl)-1,2,4-oxadiazol-3-yl]methoxy]-2-[[(2<I>S</I>)-1-oxobutan-2-yl]carbamoyl]pyrrolidin-1-yl]-3-methyl-1-oxobutan-2-yl]amino]-3-methyl-1-oxobutan-2-yl]pyrazine-2-carboxamide
> <PUBCHEM_IUPAC_NAME>
N-[(2S)-1-[[(2S)-1-[(2S,4R)-4-[[5-(4-methoxyphenyl)-1,2,4-oxadiazol-3-yl]methoxy]-2-[[(2S)-1-oxobutan-2-yl]carbamoyl]pyrrolidin-1-yl]-3-methyl-1-oxobutan-2-yl]amino]-3-methyl-1-oxobutan-2-yl]pyrazine-2-carboxamide
> <PUBCHEM_IUPAC_SYSTEMATIC_NAME>
N-[(2S)-1-[[(2S)-1-[(2S,4R)-4-[[5-(4-methoxyphenyl)-1,2,4-oxadiazol-3-yl]methoxy]-2-[[(2S)-1-oxidanylidenebutan-2-yl]carbamoyl]pyrrolidin-1-yl]-3-methyl-1-oxidanylidene-butan-2-yl]amino]-3-methyl-1-oxidanylidene-butan-2-yl]pyrazine-2-carboxamide
> <PUBCHEM_IUPAC_TRADITIONAL_NAME>
N-[(1S)-1-[[(1S)-1-[(2S,4R)-2-[[(1S)-1-formylpropyl]carbamoyl]-4-[[5-(4-methoxyphenyl)-1,2,4-oxadiazol-3-yl]methoxy]pyrrolidine-1-carbonyl]-2-methyl-propyl]carbamoyl]-2-methyl-propyl]pyrazinamide
> <PUBCHEM_IUPAC_INCHI>
InChI=1S/C34H44N8O8/c1-7-22(17-43)37-31(45)26-14-24(49-18-27-38-33(50-41-27)21-8-10-23(48-6)11-9-21)16-42(26)34(47)29(20(4)5)40-32(46)28(19(2)3)39-30(44)25-15-35-12-13-36-25/h8-13,15,17,19-20,22,24,26,28-29H,7,14,16,18H2,1-6H3,(H,37,45)(H,39,44)(H,40,46)/t22-,24+,26-,28-,29-/m0/s1
> <PUBCHEM_IUPAC_INCHIKEY>
KRAXSCGNCUWRJL-SOKHHDCZSA-N
> <PUBCHEM_XLOGP3_AA>
2.3
> <PUBCHEM_EXACT_MASS>
692.32821039
> <PUBCHEM_MOLECULAR_FORMULA>
C34H44N8O8
> <PUBCHEM_MOLECULAR_WEIGHT>
692.8
> <PUBCHEM_OPENEYE_CAN_SMILES>
CCC(C=O)NC(=O)C1CC(CN1C(=O)C(C(C)C)NC(=O)C(C(C)C)NC(=O)C2=NC=CN=C2)OCC3=NOC(=N3)C4=CC=C(C=C4)OC
> <PUBCHEM_OPENEYE_ISO_SMILES>
CC[C@@H](C=O)NC(=O)[C@@H]1C[C@H](CN1C(=O)[C@H](C(C)C)NC(=O)[C@H](C(C)C)NC(=O)C2=NC=CN=C2)OCC3=NOC(=N3)C4=CC=C(C=C4)OC
> <PUBCHEM_CACTVS_TPSA>
208
> <PUBCHEM_MONOISOTOPIC_WEIGHT>
692.32821039
> <PUBCHEM_TOTAL_CHARGE>
0
> <PUBCHEM_HEAVY_ATOM_COUNT>
50
> <PUBCHEM_ATOM_DEF_STEREO_COUNT>
5
> <PUBCHEM_ATOM_UDEF_STEREO_COUNT>
0
> <PUBCHEM_BOND_DEF_STEREO_COUNT>
0
> <PUBCHEM_BOND_UDEF_STEREO_COUNT>
0
> <PUBCHEM_ISOTOPIC_ATOM_COUNT>
0
> <PUBCHEM_COMPONENT_COUNT>
1
> <PUBCHEM_CACTVS_TAUTO_COUNT>
-1
> <PUBCHEM_COORDINATE_TYPE>
1
5
255
> <PUBCHEM_BONDANNOTATIONS>
18  1  5
22  10  6
28  11  5
30  12  5
13  33  8
13  39  8
14  33  8
15  40  8
15  47  8
16  42  8
16  49  8
17  23  6
40  42  8
41  43  8
41  44  8
43  45  8
44  46  8
45  48  8
46  48  8
47  49  8
5  14  8
5  39  8
$$$$
