506683
  -OEChem-10302200282D
 90 92  0     1  0  0  0  0  0999 V2000
    8.5592   -2.3300    0.0000 O   0  0  0  0  0  0  0  0  0  0  0  0
    7.3149   -2.8840    0.0000 O   0  0  0  0  0  0  0  0  0  0  0  0
    4.6215    0.5815    0.0000 O   0  0  0  0  0  0  0  0  0  0  0  0
   11.1573    0.1701    0.0000 O   0  0  0  0  0  0  0  0  0  0  0  0
    4.2538   -4.7892    0.0000 O   0  0  0  0  0  0  0  0  0  0  0  0
   13.7554   -2.3300    0.0000 O   0  0  0  0  0  0  0  0  0  0  0  0
    7.6932   -0.8299    0.0000 N   0  0  0  0  0  0  0  0  0  0  0  0
    6.2038    1.2860    0.0000 N   0  0  0  0  0  0  0  0  0  0  0  0
   10.2913   -1.3300    0.0000 N   0  0  0  0  0  0  0  0  0  0  0  0
    5.6207   -2.5238    0.0000 N   0  0  0  0  0  0  0  0  0  0  0  0
    4.8025    2.3041    0.0000 N   0  0  0  0  0  0  0  0  0  0  0  0
   12.8893   -0.8299    0.0000 N   0  0  0  0  0  0  0  0  0  0  0  0
   15.4874   -1.3300    0.0000 N   0  0  0  0  0  0  0  0  0  0  0  0
   15.4874    0.6701    0.0000 N   0  0  0  0  0  0  0  0  0  0  0  0
    6.7796   -1.2367    0.0000 C   0  0  1  0  0  0  0  0  0  0  0  0
    6.6105    0.3725    0.0000 C   0  0  2  0  0  0  0  0  0  0  0  0
    6.1105   -0.4935    0.0000 C   0  0  0  0  0  0  0  0  0  0  0  0
    7.5887    0.1646    0.0000 C   0  0  0  0  0  0  0  0  0  0  0  0
    8.5592   -1.3300    0.0000 C   0  0  0  0  0  0  0  0  0  0  0  0
    9.4252   -0.8299    0.0000 C   0  0  2  0  0  0  0  0  0  0  0  0
    6.5717   -2.2148    0.0000 C   0  0  0  0  0  0  0  0  0  0  0  0
    9.4252    0.1701    0.0000 C   0  0  0  0  0  0  0  0  0  0  0  0
    5.2092    1.3906    0.0000 C   0  0  0  0  0  0  0  0  0  0  0  0
   10.2913    0.6701    0.0000 C   0  0  0  0  0  0  0  0  0  0  0  0
    8.5592    0.6701    0.0000 C   0  0  0  0  0  0  0  0  0  0  0  0
    5.4128   -3.5020    0.0000 C   0  0  1  0  0  0  0  0  0  0  0  0
   11.1573   -0.8299    0.0000 C   0  0  0  0  0  0  0  0  0  0  0  0
   12.0233   -1.3300    0.0000 C   0  0  2  0  0  0  0  0  0  0  0  0
   12.0233   -2.3300    0.0000 C   0  0  0  0  0  0  0  0  0  0  0  0
    6.1559   -4.1711    0.0000 C   0  0  0  0  0  0  0  0  0  0  0  0
    4.4617   -3.8110    0.0000 C   0  0  0  0  0  0  0  0  0  0  0  0
   11.1573   -2.8300    0.0000 C   0  0  0  0  0  0  0  0  0  0  0  0
   12.8893   -2.8300    0.0000 C   0  0  0  0  0  0  0  0  0  0  0  0
    3.8080    2.4086    0.0000 C   0  0  0  0  0  0  0  0  0  0  0  0
    5.9480   -5.1493    0.0000 C   0  0  0  0  0  0  0  0  0  0  0  0
   13.7554   -1.3300    0.0000 C   0  0  0  0  0  0  0  0  0  0  0  0
    3.4013    3.3222    0.0000 C   0  0  0  0  0  0  0  0  0  0  0  0
   14.6214   -0.8299    0.0000 C   0  0  0  0  0  0  0  0  0  0  0  0
    2.4067    3.4267    0.0000 C   0  0  0  0  0  0  0  0  0  0  0  0
    3.9890    4.1312    0.0000 C   0  0  0  0  0  0  0  0  0  0  0  0
    2.0000    4.3403    0.0000 C   0  0  0  0  0  0  0  0  0  0  0  0
    3.5823    5.0447    0.0000 C   0  0  0  0  0  0  0  0  0  0  0  0
   14.6214    0.1701    0.0000 C   0  0  0  0  0  0  0  0  0  0  0  0
    2.5878    5.1493    0.0000 C   0  0  0  0  0  0  0  0  0  0  0  0
   16.3534   -0.8299    0.0000 C   0  0  0  0  0  0  0  0  0  0  0  0
   16.3534    0.1701    0.0000 C   0  0  0  0  0  0  0  0  0  0  0  0
    7.2615   -1.6269    0.0000 H   0  0  0  0  0  0  0  0  0  0  0  0
    7.0007    0.8543    0.0000 H   0  0  0  0  0  0  0  0  0  0  0  0
    5.6089   -0.1291    0.0000 H   0  0  0  0  0  0  0  0  0  0  0  0
    5.6956   -0.9543    0.0000 H   0  0  0  0  0  0  0  0  0  0  0  0
    8.2087    0.1646    0.0000 H   0  0  0  0  0  0  0  0  0  0  0  0
    7.6535    0.7812    0.0000 H   0  0  0  0  0  0  0  0  0  0  0  0
    9.4252   -1.4500    0.0000 H   0  0  0  0  0  0  0  0  0  0  0  0
    6.5682    1.7876    0.0000 H   0  0  0  0  0  0  0  0  0  0  0  0
    9.9622   -0.1399    0.0000 H   0  0  0  0  0  0  0  0  0  0  0  0
   10.2913   -1.9500    0.0000 H   0  0  0  0  0  0  0  0  0  0  0  0
    5.1599   -2.1090    0.0000 H   0  0  0  0  0  0  0  0  0  0  0  0
   10.6013    0.1331    0.0000 H   0  0  0  0  0  0  0  0  0  0  0  0
   10.8282    0.9801    0.0000 H   0  0  0  0  0  0  0  0  0  0  0  0
    9.9813    1.2070    0.0000 H   0  0  0  0  0  0  0  0  0  0  0  0
    8.8692    1.2070    0.0000 H   0  0  0  0  0  0  0  0  0  0  0  0
    8.0223    0.9801    0.0000 H   0  0  0  0  0  0  0  0  0  0  0  0
    8.2492    0.1331    0.0000 H   0  0  0  0  0  0  0  0  0  0  0  0
    6.0024   -3.3104    0.0000 H   0  0  0  0  0  0  0  0  0  0  0  0
   12.0233   -0.7099    0.0000 H   0  0  0  0  0  0  0  0  0  0  0  0
   12.5603   -2.0200    0.0000 H   0  0  0  0  0  0  0  0  0  0  0  0
    6.7308   -4.4034    0.0000 H   0  0  0  0  0  0  0  0  0  0  0  0
    6.4845   -3.6453    0.0000 H   0  0  0  0  0  0  0  0  0  0  0  0
    5.1669    2.8057    0.0000 H   0  0  0  0  0  0  0  0  0  0  0  0
    4.0010   -3.3962    0.0000 H   0  0  0  0  0  0  0  0  0  0  0  0
   12.8893   -0.2099    0.0000 H   0  0  0  0  0  0  0  0  0  0  0  0
   10.8473   -2.2930    0.0000 H   0  0  0  0  0  0  0  0  0  0  0  0
   10.6204   -3.1399    0.0000 H   0  0  0  0  0  0  0  0  0  0  0  0
   11.4673   -3.3669    0.0000 H   0  0  0  0  0  0  0  0  0  0  0  0
   12.5793   -3.3669    0.0000 H   0  0  0  0  0  0  0  0  0  0  0  0
   13.4263   -3.1399    0.0000 H   0  0  0  0  0  0  0  0  0  0  0  0
   13.1993   -2.2930    0.0000 H   0  0  0  0  0  0  0  0  0  0  0  0
    3.2064    2.2586    0.0000 H   0  0  0  0  0  0  0  0  0  0  0  0
    3.8512    1.7902    0.0000 H   0  0  0  0  0  0  0  0  0  0  0  0
    5.3415   -5.0204    0.0000 H   0  0  0  0  0  0  0  0  0  0  0  0
    5.8191   -5.7557    0.0000 H   0  0  0  0  0  0  0  0  0  0  0  0
    6.5544   -5.2782    0.0000 H   0  0  0  0  0  0  0  0  0  0  0  0
    2.0423    2.9251    0.0000 H   0  0  0  0  0  0  0  0  0  0  0  0
    4.6056    4.0664    0.0000 H   0  0  0  0  0  0  0  0  0  0  0  0
    1.3834    4.4051    0.0000 H   0  0  0  0  0  0  0  0  0  0  0  0
    3.9467    5.5463    0.0000 H   0  0  0  0  0  0  0  0  0  0  0  0
   14.0845    0.4801    0.0000 H   0  0  0  0  0  0  0  0  0  0  0  0
    2.3356    5.7157    0.0000 H   0  0  0  0  0  0  0  0  0  0  0  0
   16.8904   -1.1400    0.0000 H   0  0  0  0  0  0  0  0  0  0  0  0
   16.8904    0.4801    0.0000 H   0  0  0  0  0  0  0  0  0  0  0  0
  1 19  2  0  0  0  0
  2 21  2  0  0  0  0
  3 23  2  0  0  0  0
  4 27  2  0  0  0  0
  5 31  2  0  0  0  0
  6 36  2  0  0  0  0
  7 15  1  0  0  0  0
  7 18  1  0  0  0  0
  7 19  1  0  0  0  0
 16  8  1  1  0  0  0
  8 23  1  0  0  0  0
  8 54  1  0  0  0  0
 20  9  1  6  0  0  0
  9 27  1  0  0  0  0
  9 56  1  0  0  0  0
 10 21  1  0  0  0  0
 26 10  1  1  0  0  0
 10 57  1  0  0  0  0
 11 23  1  0  0  0  0
 11 34  1  0  0  0  0
 11 69  1  0  0  0  0
 28 12  1  1  0  0  0
 12 36  1  0  0  0  0
 12 71  1  0  0  0  0
 13 38  2  0  0  0  0
 13 45  1  0  0  0  0
 14 43  2  0  0  0  0
 14 46  1  0  0  0  0
 15 17  1  0  0  0  0
 15 21  1  6  0  0  0
 15 47  1  0  0  0  0
 16 17  1  0  0  0  0
 16 18  1  0  0  0  0
 16 48  1  0  0  0  0
 17 49  1  0  0  0  0
 17 50  1  0  0  0  0
 18 51  1  0  0  0  0
 18 52  1  0  0  0  0
 19 20  1  0  0  0  0
 20 22  1  0  0  0  0
 20 53  1  0  0  0  0
 22 24  1  0  0  0  0
 22 25  1  0  0  0  0
 22 55  1  0  0  0  0
 24 58  1  0  0  0  0
 24 59  1  0  0  0  0
 24 60  1  0  0  0  0
 25 61  1  0  0  0  0
 25 62  1  0  0  0  0
 25 63  1  0  0  0  0
 26 30  1  0  0  0  0
 26 31  1  0  0  0  0
 26 64  1  0  0  0  0
 27 28  1  0  0  0  0
 28 29  1  0  0  0  0
 28 65  1  0  0  0  0
 29 32  1  0  0  0  0
 29 33  1  0  0  0  0
 29 66  1  0  0  0  0
 30 35  1  0  0  0  0
 30 67  1  0  0  0  0
 30 68  1  0  0  0  0
 31 70  1  0  0  0  0
 32 72  1  0  0  0  0
 32 73  1  0  0  0  0
 32 74  1  0  0  0  0
 33 75  1  0  0  0  0
 33 76  1  0  0  0  0
 33 77  1  0  0  0  0
 34 37  1  0  0  0  0
 34 78  1  0  0  0  0
 34 79  1  0  0  0  0
 35 80  1  0  0  0  0
 35 81  1  0  0  0  0
 35 82  1  0  0  0  0
 36 38  1  0  0  0  0
 37 39  2  0  0  0  0
 37 40  1  0  0  0  0
 38 43  1  0  0  0  0
 39 41  1  0  0  0  0
 39 83  1  0  0  0  0
 40 42  2  0  0  0  0
 40 84  1  0  0  0  0
 41 44  2  0  0  0  0
 41 85  1  0  0  0  0
 42 44  1  0  0  0  0
 42 86  1  0  0  0  0
 43 87  1  0  0  0  0
 44 88  1  0  0  0  0
 45 46  2  0  0  0  0
 45 89  1  0  0  0  0
 46 90  1  0  0  0  0
M  END
> <PUBCHEM_COMPOUND_CID>
506683
> <PUBCHEM_COMPOUND_CANONICALIZED>
1
> <PUBCHEM_CACTVS_COMPLEXITY>
1070
> <PUBCHEM_CACTVS_HBOND_ACCEPTOR>
8
> <PUBCHEM_CACTVS_HBOND_DONOR>
5
> <PUBCHEM_CACTVS_ROTATABLE_BOND>
14
> <PUBCHEM_CACTVS_SUBSKEYS>
AAADcfB/+AAAAAAAAAAAAAAAAAAAAWAAAAA8QAAAAAAAAAABwAAAHgAQAAAADSjhngY/gJPIEACoAz131ACCgCQ3EiAI2IG4dMiIYHrA0TGUIIholgLIiMccgQAOAAAAAAAAAAAAAAAAAAAAAAAAAAAAAA==
> <PUBCHEM_IUPAC_OPENEYE_NAME>
N-[(1S)-1-[[(1S)-1-[(2S,4R)-4-(benzylcarbamoylamino)-2-[[(1S)-1-formylpropyl]carbamoyl]pyrrolidine-1-carbonyl]-2-methyl-propyl]carbamoyl]-2-methyl-propyl]pyrazine-2-carboxamide
> <PUBCHEM_IUPAC_CAS_NAME>
N-[(2S)-3-methyl-1-[[(2S)-3-methyl-1-oxo-1-[(2S,4R)-2-[oxo-[[(2S)-1-oxobutan-2-yl]amino]methyl]-4-[[oxo-[(phenylmethyl)amino]methyl]amino]-1-pyrrolidinyl]butan-2-yl]amino]-1-oxobutan-2-yl]-2-pyrazinecarboxamide
> <PUBCHEM_IUPAC_NAME_MARKUP>
<I>N</I>-[(2<I>S</I>)-1-[[(2<I>S</I>)-1-[(2<I>S</I>,4<I>R</I>)-4-(benzylcarbamoylamino)-2-[[(2<I>S</I>)-1-oxobutan-2-yl]carbamoyl]pyrrolidin-1-yl]-3-methyl-1-oxobutan-2-yl]amino]-3-methyl-1-oxobutan-2-yl]pyrazine-2-carboxamide
> <PUBCHEM_IUPAC_NAME>
N-[(2S)-1-[[(2S)-1-[(2S,4R)-4-(benzylcarbamoylamino)-2-[[(2S)-1-oxobutan-2-yl]carbamoyl]pyrrolidin-1-yl]-3-methyl-1-oxobutan-2-yl]amino]-3-methyl-1-oxobutan-2-yl]pyrazine-2-carboxamide
> <PUBCHEM_IUPAC_SYSTEMATIC_NAME>
N-[(2S)-3-methyl-1-[[(2S)-3-methyl-1-oxidanylidene-1-[(2S,4R)-2-[[(2S)-1-oxidanylidenebutan-2-yl]carbamoyl]-4-[(phenylmethyl)carbamoylamino]pyrrolidin-1-yl]butan-2-yl]amino]-1-oxidanylidene-butan-2-yl]pyrazine-2-carboxamide
> <PUBCHEM_IUPAC_TRADITIONAL_NAME>
N-[(1S)-1-[[(1S)-1-[(2S,4R)-4-(benzylcarbamoylamino)-2-[[(1S)-1-formylpropyl]carbamoyl]pyrrolidine-1-carbonyl]-2-methyl-propyl]carbamoyl]-2-methyl-propyl]pyrazinamide
> <PUBCHEM_IUPAC_INCHI>
InChI=1S/C32H44N8O6/c1-6-22(18-41)36-29(43)25-14-23(37-32(46)35-15-21-10-8-7-9-11-21)17-40(25)31(45)27(20(4)5)39-30(44)26(19(2)3)38-28(42)24-16-33-12-13-34-24/h7-13,16,18-20,22-23,25-27H,6,14-15,17H2,1-5H3,(H,36,43)(H,38,42)(H,39,44)(H2,35,37,46)/t22-,23+,25-,26-,27-/m0/s1
> <PUBCHEM_IUPAC_INCHIKEY>
WCLTYUGJULNIIA-BILQSEOESA-N
> <PUBCHEM_XLOGP3_AA>
1.7
> <PUBCHEM_EXACT_MASS>
636.33838115
> <PUBCHEM_MOLECULAR_FORMULA>
C32H44N8O6
> <PUBCHEM_MOLECULAR_WEIGHT>
636.7
> <PUBCHEM_OPENEYE_CAN_SMILES>
CCC(C=O)NC(=O)C1CC(CN1C(=O)C(C(C)C)NC(=O)C(C(C)C)NC(=O)C2=NC=CN=C2)NC(=O)NCC3=CC=CC=C3
> <PUBCHEM_OPENEYE_ISO_SMILES>
CC[C@@H](C=O)NC(=O)[C@@H]1C[C@H](CN1C(=O)[C@H](C(C)C)NC(=O)[C@H](C(C)C)NC(=O)C2=NC=CN=C2)NC(=O)NCC3=CC=CC=C3
> <PUBCHEM_CACTVS_TPSA>
192
> <PUBCHEM_MONOISOTOPIC_WEIGHT>
636.33838115
> <PUBCHEM_TOTAL_CHARGE>
0
> <PUBCHEM_HEAVY_ATOM_COUNT>
46
> <PUBCHEM_ATOM_DEF_STEREO_COUNT>
5
> <PUBCHEM_ATOM_UDEF_STEREO_COUNT>
0
> <PUBCHEM_BOND_DEF_STEREO_COUNT>
0
> <PUBCHEM_BOND_UDEF_STEREO_COUNT>
0
> <PUBCHEM_ISOTOPIC_ATOM_COUNT>
0
> <PUBCHEM_COMPONENT_COUNT>
1
> <PUBCHEM_CACTVS_TAUTO_COUNT>
-1
> <PUBCHEM_COORDINATE_TYPE>
1
5
255
> <PUBCHEM_BONDANNOTATIONS>
26  10  5
28  12  5
13  38  8
13  45  8
14  43  8
14  46  8
15  21  6
37  39  8
37  40  8
38  43  8
39  41  8
40  42  8
41  44  8
42  44  8
45  46  8
16  8  5
20  9  6
$$$$
