506696
  -OEChem-10302200282D
108112  0     1  0  0  0  0  0999 V2000
    8.2202   -5.1766    0.0000 Cl  0  0  0  0  0  0  0  0  0  0  0  0
    9.9522   -6.1766    0.0000 Cl  0  0  0  0  0  0  0  0  0  0  0  0
   14.4829    2.2712    0.0000 P   0  0  0  0  0  0  0  0  0  0  0  0
   10.8183   -1.6766    0.0000 O   0  0  0  0  0  0  0  0  0  0  0  0
   10.1372    2.5848    0.0000 O   0  0  0  0  0  0  0  0  0  0  0  0
   11.4993    2.5848    0.0000 O   0  0  0  0  0  0  0  0  0  0  0  0
   15.4774    2.1667    0.0000 O   0  0  0  0  0  0  0  0  0  0  0  0
   14.5874    3.2657    0.0000 O   0  0  0  0  0  0  0  0  0  0  0  0
   14.3784    1.2767    0.0000 O   0  0  0  0  0  0  0  0  0  0  0  0
    6.7469    1.3577    0.0000 O   0  0  0  0  0  0  0  0  0  0  0  0
    5.3903    4.6983    0.0000 O   0  0  0  0  0  0  0  0  0  0  0  0
   10.3183    0.8622    0.0000 N   0  0  0  0  0  0  0  0  0  0  0  0
   12.9006    1.5667    0.0000 N   0  0  0  0  0  0  0  0  0  0  0  0
    8.1482    2.3757    0.0000 N   0  0  0  0  0  0  0  0  0  0  0  0
    5.5714    2.9757    0.0000 N   0  0  0  0  0  0  0  0  0  0  0  0
    3.4013    4.4892    0.0000 N   0  0  0  0  0  0  0  0  0  0  0  0
    2.5878    2.6621    0.0000 N   0  0  0  0  0  0  0  0  0  0  0  0
   11.3183    0.8622    0.0000 C   0  0  1  0  0  0  0  0  0  0  0  0
   10.8183   -0.6766    0.0000 C   0  0  2  0  0  0  0  0  0  0  0  0
   11.6273   -0.0888    0.0000 C   0  0  0  0  0  0  0  0  0  0  0  0
   10.0093   -0.0888    0.0000 C   0  0  0  0  0  0  0  0  0  0  0  0
    9.7305    1.6712    0.0000 C   0  0  0  0  0  0  0  0  0  0  0  0
    8.7360    1.5667    0.0000 C   0  0  2  0  0  0  0  0  0  0  0  0
   11.9061    1.6712    0.0000 C   0  0  0  0  0  0  0  0  0  0  0  0
    8.3292    0.6532    0.0000 C   0  0  0  0  0  0  0  0  0  0  0  0
   13.4884    2.3757    0.0000 C   0  0  1  0  0  0  0  0  0  0  0  0
    9.9522   -2.1766    0.0000 C   0  0  0  0  0  0  0  0  0  0  0  0
    7.3347    0.5486    0.0000 C   0  0  0  0  0  0  0  0  0  0  0  0
    8.9170   -0.1558    0.0000 C   0  0  0  0  0  0  0  0  0  0  0  0
   13.0816    3.2893    0.0000 C   0  0  0  0  0  0  0  0  0  0  0  0
    7.1537    2.2712    0.0000 C   0  0  0  0  0  0  0  0  0  0  0  0
    6.5659    3.0802    0.0000 C   0  0  2  0  0  0  0  0  0  0  0  0
    9.9522   -3.1766    0.0000 C   0  0  0  0  0  0  0  0  0  0  0  0
    6.9726    3.9938    0.0000 C   0  0  0  0  0  0  0  0  0  0  0  0
   12.0871    3.3938    0.0000 C   0  0  0  0  0  0  0  0  0  0  0  0
    6.3848    4.8028    0.0000 C   0  0  0  0  0  0  0  0  0  0  0  0
    7.9671    4.0983    0.0000 C   0  0  0  0  0  0  0  0  0  0  0  0
    9.0862   -3.6766    0.0000 C   0  0  0  0  0  0  0  0  0  0  0  0
   10.8183   -3.6766    0.0000 C   0  0  0  0  0  0  0  0  0  0  0  0
   16.0652    2.9757    0.0000 C   0  0  0  0  0  0  0  0  0  0  0  0
   14.3455    4.2360    0.0000 C   0  0  0  0  0  0  0  0  0  0  0  0
    9.0862   -4.6766    0.0000 C   0  0  0  0  0  0  0  0  0  0  0  0
   10.8183   -4.6766    0.0000 C   0  0  0  0  0  0  0  0  0  0  0  0
    4.9836    3.7847    0.0000 C   0  0  0  0  0  0  0  0  0  0  0  0
    9.9522   -5.1766    0.0000 C   0  0  0  0  0  0  0  0  0  0  0  0
   15.6585    3.8892    0.0000 C   0  0  0  0  0  0  0  0  0  0  0  0
   13.3842    4.5117    0.0000 C   0  0  0  0  0  0  0  0  0  0  0  0
   17.0597    2.8712    0.0000 C   0  0  0  0  0  0  0  0  0  0  0  0
   15.0648    4.9307    0.0000 C   0  0  0  0  0  0  0  0  0  0  0  0
    3.9890    3.6802    0.0000 C   0  0  0  0  0  0  0  0  0  0  0  0
   16.2462    4.6983    0.0000 C   0  0  0  0  0  0  0  0  0  0  0  0
   13.1423    5.4820    0.0000 C   0  0  0  0  0  0  0  0  0  0  0  0
   17.6475    3.6802    0.0000 C   0  0  0  0  0  0  0  0  0  0  0  0
   14.8229    5.9010    0.0000 C   0  0  0  0  0  0  0  0  0  0  0  0
   17.2408    4.5937    0.0000 C   0  0  0  0  0  0  0  0  0  0  0  0
   13.8616    6.1766    0.0000 C   0  0  0  0  0  0  0  0  0  0  0  0
    3.5823    2.7666    0.0000 C   0  0  0  0  0  0  0  0  0  0  0  0
    2.4067    4.3847    0.0000 C   0  0  0  0  0  0  0  0  0  0  0  0
    2.0000    3.4711    0.0000 C   0  0  0  0  0  0  0  0  0  0  0  0
   11.0368    1.4146    0.0000 H   0  0  0  0  0  0  0  0  0  0  0  0
   11.3707   -0.9581    0.0000 H   0  0  0  0  0  0  0  0  0  0  0  0
   11.9373   -0.6258    0.0000 H   0  0  0  0  0  0  0  0  0  0  0  0
   12.1937    0.1633    0.0000 H   0  0  0  0  0  0  0  0  0  0  0  0
    9.4429    0.1633    0.0000 H   0  0  0  0  0  0  0  0  0  0  0  0
    9.6992   -0.6258    0.0000 H   0  0  0  0  0  0  0  0  0  0  0  0
    8.1194    1.5019    0.0000 H   0  0  0  0  0  0  0  0  0  0  0  0
    8.0770    0.0868    0.0000 H   0  0  0  0  0  0  0  0  0  0  0  0
   13.1528    1.0003    0.0000 H   0  0  0  0  0  0  0  0  0  0  0  0
   13.7405    1.8093    0.0000 H   0  0  0  0  0  0  0  0  0  0  0  0
    8.4004    2.9421    0.0000 H   0  0  0  0  0  0  0  0  0  0  0  0
    9.7402   -1.5940    0.0000 H   0  0  0  0  0  0  0  0  0  0  0  0
    9.3417   -2.2843    0.0000 H   0  0  0  0  0  0  0  0  0  0  0  0
    7.2699    1.1652    0.0000 H   0  0  0  0  0  0  0  0  0  0  0  0
    6.7181    0.4838    0.0000 H   0  0  0  0  0  0  0  0  0  0  0  0
    7.3995   -0.0680    0.0000 H   0  0  0  0  0  0  0  0  0  0  0  0
    8.4154   -0.5203    0.0000 H   0  0  0  0  0  0  0  0  0  0  0  0
    9.2814   -0.6574    0.0000 H   0  0  0  0  0  0  0  0  0  0  0  0
    9.4186    0.2086    0.0000 H   0  0  0  0  0  0  0  0  0  0  0  0
   13.6832    3.4393    0.0000 H   0  0  0  0  0  0  0  0  0  0  0  0
   13.0384    3.9078    0.0000 H   0  0  0  0  0  0  0  0  0  0  0  0
    6.2014    3.5818    0.0000 H   0  0  0  0  0  0  0  0  0  0  0  0
    7.3370    3.4922    0.0000 H   0  0  0  0  0  0  0  0  0  0  0  0
   12.1519    4.0104    0.0000 H   0  0  0  0  0  0  0  0  0  0  0  0
   11.4705    3.4586    0.0000 H   0  0  0  0  0  0  0  0  0  0  0  0
   12.0223    2.7772    0.0000 H   0  0  0  0  0  0  0  0  0  0  0  0
    5.3192    2.4093    0.0000 H   0  0  0  0  0  0  0  0  0  0  0  0
    6.8864    5.1672    0.0000 H   0  0  0  0  0  0  0  0  0  0  0  0
    6.0204    5.3044    0.0000 H   0  0  0  0  0  0  0  0  0  0  0  0
    5.8832    4.4384    0.0000 H   0  0  0  0  0  0  0  0  0  0  0  0
    8.0319    3.4817    0.0000 H   0  0  0  0  0  0  0  0  0  0  0  0
    8.5837    4.1631    0.0000 H   0  0  0  0  0  0  0  0  0  0  0  0
    7.9023    4.7149    0.0000 H   0  0  0  0  0  0  0  0  0  0  0  0
    8.5493   -3.3666    0.0000 H   0  0  0  0  0  0  0  0  0  0  0  0
   11.3552   -3.3666    0.0000 H   0  0  0  0  0  0  0  0  0  0  0  0
   11.3552   -4.9866    0.0000 H   0  0  0  0  0  0  0  0  0  0  0  0
   15.0419    3.9540    0.0000 H   0  0  0  0  0  0  0  0  0  0  0  0
   12.9382    4.0810    0.0000 H   0  0  0  0  0  0  0  0  0  0  0  0
   17.3119    2.3048    0.0000 H   0  0  0  0  0  0  0  0  0  0  0  0
   15.6608    4.7598    0.0000 H   0  0  0  0  0  0  0  0  0  0  0  0
   15.9941    5.2646    0.0000 H   0  0  0  0  0  0  0  0  0  0  0  0
   12.5463    5.6528    0.0000 H   0  0  0  0  0  0  0  0  0  0  0  0
   18.2641    3.6154    0.0000 H   0  0  0  0  0  0  0  0  0  0  0  0
   15.2689    6.3317    0.0000 H   0  0  0  0  0  0  0  0  0  0  0  0
   17.6052    5.0953    0.0000 H   0  0  0  0  0  0  0  0  0  0  0  0
   13.7117    6.7782    0.0000 H   0  0  0  0  0  0  0  0  0  0  0  0
    3.9467    2.2650    0.0000 H   0  0  0  0  0  0  0  0  0  0  0  0
    2.0423    4.8863    0.0000 H   0  0  0  0  0  0  0  0  0  0  0  0
    1.3834    3.4063    0.0000 H   0  0  0  0  0  0  0  0  0  0  0  0
  1 42  1  0  0  0  0
  2 45  1  0  0  0  0
  3  7  1  0  0  0  0
  3  8  1  0  0  0  0
  3  9  2  0  0  0  0
  3 26  1  0  0  0  0
 19  4  1  1  0  0  0
  4 27  1  0  0  0  0
  5 22  2  0  0  0  0
  6 24  2  0  0  0  0
  7 40  1  0  0  0  0
  8 41  1  0  0  0  0
 10 31  2  0  0  0  0
 11 44  2  0  0  0  0
 12 18  1  0  0  0  0
 12 21  1  0  0  0  0
 12 22  1  0  0  0  0
 13 24  1  0  0  0  0
 26 13  1  1  0  0  0
 13 68  1  0  0  0  0
 23 14  1  6  0  0  0
 14 31  1  0  0  0  0
 14 70  1  0  0  0  0
 32 15  1  1  0  0  0
 15 44  1  0  0  0  0
 15 86  1  0  0  0  0
 16 50  2  0  0  0  0
 16 58  1  0  0  0  0
 17 57  2  0  0  0  0
 17 59  1  0  0  0  0
 18 20  1  0  0  0  0
 18 24  1  6  0  0  0
 18 60  1  0  0  0  0
 19 20  1  0  0  0  0
 19 21  1  0  0  0  0
 19 61  1  0  0  0  0
 20 62  1  0  0  0  0
 20 63  1  0  0  0  0
 21 64  1  0  0  0  0
 21 65  1  0  0  0  0
 22 23  1  0  0  0  0
 23 25  1  0  0  0  0
 23 66  1  0  0  0  0
 25 28  1  0  0  0  0
 25 29  1  0  0  0  0
 25 67  1  0  0  0  0
 26 30  1  0  0  0  0
 26 69  1  0  0  0  0
 27 33  1  0  0  0  0
 27 71  1  0  0  0  0
 27 72  1  0  0  0  0
 28 73  1  0  0  0  0
 28 74  1  0  0  0  0
 28 75  1  0  0  0  0
 29 76  1  0  0  0  0
 29 77  1  0  0  0  0
 29 78  1  0  0  0  0
 30 35  1  0  0  0  0
 30 79  1  0  0  0  0
 30 80  1  0  0  0  0
 31 32  1  0  0  0  0
 32 34  1  0  0  0  0
 32 81  1  0  0  0  0
 33 38  2  0  0  0  0
 33 39  1  0  0  0  0
 34 36  1  0  0  0  0
 34 37  1  0  0  0  0
 34 82  1  0  0  0  0
 35 83  1  0  0  0  0
 35 84  1  0  0  0  0
 35 85  1  0  0  0  0
 36 87  1  0  0  0  0
 36 88  1  0  0  0  0
 36 89  1  0  0  0  0
 37 90  1  0  0  0  0
 37 91  1  0  0  0  0
 37 92  1  0  0  0  0
 38 42  1  0  0  0  0
 38 93  1  0  0  0  0
 39 43  2  0  0  0  0
 39 94  1  0  0  0  0
 40 46  2  0  0  0  0
 40 48  1  0  0  0  0
 41 47  2  0  0  0  0
 41 49  1  0  0  0  0
 42 45  2  0  0  0  0
 43 45  1  0  0  0  0
 43 95  1  0  0  0  0
 44 50  1  0  0  0  0
 46 51  1  0  0  0  0
 46 96  1  0  0  0  0
 47 52  1  0  0  0  0
 47 97  1  0  0  0  0
 48 53  2  0  0  0  0
 48 98  1  0  0  0  0
 49 54  2  0  0  0  0
 49 99  1  0  0  0  0
 50 57  1  0  0  0  0
 51 55  2  0  0  0  0
 51100  1  0  0  0  0
 52 56  2  0  0  0  0
 52101  1  0  0  0  0
 53 55  1  0  0  0  0
 53102  1  0  0  0  0
 54 56  1  0  0  0  0
 54103  1  0  0  0  0
 55104  1  0  0  0  0
 56105  1  0  0  0  0
 57106  1  0  0  0  0
 58 59  2  0  0  0  0
 58107  1  0  0  0  0
 59108  1  0  0  0  0
M  END
> <PUBCHEM_COMPOUND_CID>
506696
> <PUBCHEM_COMPOUND_CANONICALIZED>
1
> <PUBCHEM_CACTVS_COMPLEXITY>
1410
> <PUBCHEM_CACTVS_HBOND_ACCEPTOR>
10
> <PUBCHEM_CACTVS_HBOND_DONOR>
3
> <PUBCHEM_CACTVS_ROTATABLE_BOND>
18
> <PUBCHEM_CACTVS_SUBSKEYS>
AAADcfB/vAIGAAAAAAAAAAAAAAAAAWAAAAA8YMEAAAAAAAAB1AAAHgoQACAADT7pniY+hpPIFRCoQzV3VICCgCQ3NyAI2sG+fsgKZnrB8zqXMIgm1hHYqMe6wSAOBAAAIAAAAAQIAABAAAAACAAAAAAAAA==
> <PUBCHEM_IUPAC_OPENEYE_NAME>
N-[(1S)-1-[[(1S)-1-[(2S,4R)-4-[(3,4-dichlorophenyl)methoxy]-2-[[(1R)-1-diphenoxyphosphorylpropyl]carbamoyl]pyrrolidine-1-carbonyl]-2-methyl-propyl]carbamoyl]-2-methyl-propyl]pyrazine-2-carboxamide
> <PUBCHEM_IUPAC_CAS_NAME>
N-[(2S)-1-[[(2S)-1-[(2S,4R)-4-[(3,4-dichlorophenyl)methoxy]-2-[[[(1R)-1-diphenoxyphosphorylpropyl]amino]-oxomethyl]-1-pyrrolidinyl]-3-methyl-1-oxobutan-2-yl]amino]-3-methyl-1-oxobutan-2-yl]-2-pyrazinecarboxamide
> <PUBCHEM_IUPAC_NAME_MARKUP>
<I>N</I>-[(2<I>S</I>)-1-[[(2<I>S</I>)-1-[(2<I>S</I>,4<I>R</I>)-4-[(3,4-dichlorophenyl)methoxy]-2-[[(1<I>R</I>)-1-diphenoxyphosphorylpropyl]carbamoyl]pyrrolidin-1-yl]-3-methyl-1-oxobutan-2-yl]amino]-3-methyl-1-oxobutan-2-yl]pyrazine-2-carboxamide
> <PUBCHEM_IUPAC_NAME>
N-[(2S)-1-[[(2S)-1-[(2S,4R)-4-[(3,4-dichlorophenyl)methoxy]-2-[[(1R)-1-diphenoxyphosphorylpropyl]carbamoyl]pyrrolidin-1-yl]-3-methyl-1-oxobutan-2-yl]amino]-3-methyl-1-oxobutan-2-yl]pyrazine-2-carboxamide
> <PUBCHEM_IUPAC_SYSTEMATIC_NAME>
N-[(2S)-1-[[(2S)-1-[(2S,4R)-4-[(3,4-dichlorophenyl)methoxy]-2-[[(1R)-1-diphenoxyphosphorylpropyl]carbamoyl]pyrrolidin-1-yl]-3-methyl-1-oxidanylidene-butan-2-yl]amino]-3-methyl-1-oxidanylidene-butan-2-yl]pyrazine-2-carboxamide
> <PUBCHEM_IUPAC_TRADITIONAL_NAME>
N-[(1S)-1-[[(1S)-1-[(2S,4R)-4-(3,4-dichlorobenzyl)oxy-2-[[(1R)-1-diphenoxyphosphorylpropyl]carbamoyl]pyrrolidine-1-carbonyl]-2-methyl-propyl]carbamoyl]-2-methyl-propyl]pyrazinamide
> <PUBCHEM_IUPAC_INCHI>
InChI=1S/C42H49Cl2N6O8P/c1-6-36(59(55,57-29-13-9-7-10-14-29)58-30-15-11-8-12-16-30)47-40(52)35-22-31(56-25-28-17-18-32(43)33(44)21-28)24-50(35)42(54)38(27(4)5)49-41(53)37(26(2)3)48-39(51)34-23-45-19-20-46-34/h7-21,23,26-27,31,35-38H,6,22,24-25H2,1-5H3,(H,47,52)(H,48,51)(H,49,53)/t31-,35+,36-,37+,38+/m1/s1
> <PUBCHEM_IUPAC_INCHIKEY>
VONYJVZONVRPLL-BDZRMBOTSA-N
> <PUBCHEM_XLOGP3_AA>
7.1
> <PUBCHEM_EXACT_MASS>
866.2726549
> <PUBCHEM_MOLECULAR_FORMULA>
C42H49Cl2N6O8P
> <PUBCHEM_MOLECULAR_WEIGHT>
867.7
> <PUBCHEM_OPENEYE_CAN_SMILES>
CCC(NC(=O)C1CC(CN1C(=O)C(C(C)C)NC(=O)C(C(C)C)NC(=O)C2=NC=CN=C2)OCC3=CC(=C(C=C3)Cl)Cl)P(=O)(OC4=CC=CC=C4)OC5=CC=CC=C5
> <PUBCHEM_OPENEYE_ISO_SMILES>
CC[C@H](NC(=O)[C@@H]1C[C@H](CN1C(=O)[C@H](C(C)C)NC(=O)[C@H](C(C)C)NC(=O)C2=NC=CN=C2)OCC3=CC(=C(C=C3)Cl)Cl)P(=O)(OC4=CC=CC=C4)OC5=CC=CC=C5
> <PUBCHEM_CACTVS_TPSA>
178
> <PUBCHEM_MONOISOTOPIC_WEIGHT>
866.2726549
> <PUBCHEM_TOTAL_CHARGE>
0
> <PUBCHEM_HEAVY_ATOM_COUNT>
59
> <PUBCHEM_ATOM_DEF_STEREO_COUNT>
5
> <PUBCHEM_ATOM_UDEF_STEREO_COUNT>
0
> <PUBCHEM_BOND_DEF_STEREO_COUNT>
0
> <PUBCHEM_BOND_UDEF_STEREO_COUNT>
0
> <PUBCHEM_ISOTOPIC_ATOM_COUNT>
0
> <PUBCHEM_COMPONENT_COUNT>
1
> <PUBCHEM_CACTVS_TAUTO_COUNT>
-1
> <PUBCHEM_COORDINATE_TYPE>
1
5
255
> <PUBCHEM_BONDANNOTATIONS>
26  13  5
23  14  6
32  15  5
16  50  8
16  58  8
17  57  8
17  59  8
18  24  6
33  38  8
33  39  8
38  42  8
39  43  8
19  4  5
40  46  8
40  48  8
41  47  8
41  49  8
42  45  8
43  45  8
46  51  8
47  52  8
48  53  8
49  54  8
50  57  8
51  55  8
52  56  8
53  55  8
54  56  8
58  59  8
$$$$
