506650
  -OEChem-10302200282D
 91 94  0     1  0  0  0  0  0999 V2000
    8.9173   -8.5546    0.0000 Cl  0  0  0  0  0  0  0  0  0  0  0  0
    8.1083   -3.9668    0.0000 S   0  0  0  0  0  0  0  0  0  0  0  0
    8.2363   -1.2932    0.0000 O   0  0  0  0  0  0  0  0  0  0  0  0
    6.2824    2.5546    0.0000 O   0  0  0  0  0  0  0  0  0  0  0  0
    5.1805    1.7540    0.0000 O   0  0  0  0  0  0  0  0  0  0  0  0
    9.7465    3.5546    0.0000 O   0  0  0  0  0  0  0  0  0  0  0  0
    2.0000    0.0556    0.0000 O   0  0  0  0  0  0  0  0  0  0  0  0
    8.8805    7.0546    0.0000 O   0  0  0  0  0  0  0  0  0  0  0  0
    7.1485    1.0546    0.0000 N   0  0  0  0  0  0  0  0  0  0  0  0
    8.0145    3.5546    0.0000 N   0  0  0  0  0  0  0  0  0  0  0  0
    4.6453    0.1067    0.0000 N   0  0  0  0  0  0  0  0  0  0  0  0
    9.7465    5.5546    0.0000 N   0  0  0  0  0  0  0  0  0  0  0  0
    9.7263   -3.9668    0.0000 N   0  0  0  0  0  0  0  0  0  0  0  0
   11.4786    6.5546    0.0000 N   0  0  0  0  0  0  0  0  0  0  0  0
   11.4786    8.5546    0.0000 N   0  0  0  0  0  0  0  0  0  0  0  0
    6.3395    0.4668    0.0000 C   0  0  1  0  0  0  0  0  0  0  0  0
    7.6485   -0.4842    0.0000 C   0  0  2  0  0  0  0  0  0  0  0  0
    6.6485   -0.4842    0.0000 C   0  0  0  0  0  0  0  0  0  0  0  0
    7.9575    0.4668    0.0000 C   0  0  0  0  0  0  0  0  0  0  0  0
    7.1485    2.0546    0.0000 C   0  0  0  0  0  0  0  0  0  0  0  0
    8.0145    2.5546    0.0000 C   0  0  2  0  0  0  0  0  0  0  0  0
    5.3884    0.7759    0.0000 C   0  0  0  0  0  0  0  0  0  0  0  0
    8.8805    2.0546    0.0000 C   0  0  0  0  0  0  0  0  0  0  0  0
    7.8295   -2.2068    0.0000 C   0  0  0  0  0  0  0  0  0  0  0  0
    9.7465    2.5546    0.0000 C   0  0  0  0  0  0  0  0  0  0  0  0
    8.8805    1.0546    0.0000 C   0  0  0  0  0  0  0  0  0  0  0  0
    3.6942    0.4158    0.0000 C   0  0  1  0  0  0  0  0  0  0  0  0
    8.8805    4.0546    0.0000 C   0  0  0  0  0  0  0  0  0  0  0  0
    8.8805    5.0546    0.0000 C   0  0  2  0  0  0  0  0  0  0  0  0
    8.0145    5.5546    0.0000 C   0  0  0  0  0  0  0  0  0  0  0  0
    3.4863    1.3939    0.0000 C   0  0  0  0  0  0  0  0  0  0  0  0
    8.4173   -3.0158    0.0000 C   0  0  0  0  0  0  0  0  0  0  0  0
    2.9511   -0.2534    0.0000 C   0  0  0  0  0  0  0  0  0  0  0  0
    8.0145    6.5546    0.0000 C   0  0  0  0  0  0  0  0  0  0  0  0
    7.1485    5.0546    0.0000 C   0  0  0  0  0  0  0  0  0  0  0  0
    2.5352    1.7029    0.0000 C   0  0  0  0  0  0  0  0  0  0  0  0
    9.4173   -3.0158    0.0000 C   0  0  0  0  0  0  0  0  0  0  0  0
    9.7465    6.5546    0.0000 C   0  0  0  0  0  0  0  0  0  0  0  0
    8.9173   -4.5546    0.0000 C   0  0  0  0  0  0  0  0  0  0  0  0
   10.6126    7.0546    0.0000 C   0  0  0  0  0  0  0  0  0  0  0  0
    8.9173   -5.5546    0.0000 C   0  0  0  0  0  0  0  0  0  0  0  0
    8.0513   -6.0546    0.0000 C   0  0  0  0  0  0  0  0  0  0  0  0
    9.7833   -6.0546    0.0000 C   0  0  0  0  0  0  0  0  0  0  0  0
   10.6126    8.0546    0.0000 C   0  0  0  0  0  0  0  0  0  0  0  0
    8.0513   -7.0546    0.0000 C   0  0  0  0  0  0  0  0  0  0  0  0
    9.7833   -7.0546    0.0000 C   0  0  0  0  0  0  0  0  0  0  0  0
   12.3446    7.0546    0.0000 C   0  0  0  0  0  0  0  0  0  0  0  0
    8.9173   -7.5546    0.0000 C   0  0  0  0  0  0  0  0  0  0  0  0
   12.3446    8.0546    0.0000 C   0  0  0  0  0  0  0  0  0  0  0  0
    6.2425    1.0792    0.0000 H   0  0  0  0  0  0  0  0  0  0  0  0
    7.3670   -1.0366    0.0000 H   0  0  0  0  0  0  0  0  0  0  0  0
    6.0420   -0.6131    0.0000 H   0  0  0  0  0  0  0  0  0  0  0  0
    6.7133   -1.1008    0.0000 H   0  0  0  0  0  0  0  0  0  0  0  0
    8.5239    0.2147    0.0000 H   0  0  0  0  0  0  0  0  0  0  0  0
    8.2675    1.0038    0.0000 H   0  0  0  0  0  0  0  0  0  0  0  0
    8.5514    2.8646    0.0000 H   0  0  0  0  0  0  0  0  0  0  0  0
    8.3436    1.7446    0.0000 H   0  0  0  0  0  0  0  0  0  0  0  0
    7.4776    3.8646    0.0000 H   0  0  0  0  0  0  0  0  0  0  0  0
    4.7742   -0.4997    0.0000 H   0  0  0  0  0  0  0  0  0  0  0  0
    7.3155   -1.8601    0.0000 H   0  0  0  0  0  0  0  0  0  0  0  0
    7.3988   -2.6528    0.0000 H   0  0  0  0  0  0  0  0  0  0  0  0
   10.0566    2.0177    0.0000 H   0  0  0  0  0  0  0  0  0  0  0  0
   10.2835    2.8646    0.0000 H   0  0  0  0  0  0  0  0  0  0  0  0
    9.4366    3.0916    0.0000 H   0  0  0  0  0  0  0  0  0  0  0  0
    8.2605    1.0546    0.0000 H   0  0  0  0  0  0  0  0  0  0  0  0
    8.8805    0.4346    0.0000 H   0  0  0  0  0  0  0  0  0  0  0  0
    9.5005    1.0546    0.0000 H   0  0  0  0  0  0  0  0  0  0  0  0
    3.8231   -0.1907    0.0000 H   0  0  0  0  0  0  0  0  0  0  0  0
    9.4175    4.7446    0.0000 H   0  0  0  0  0  0  0  0  0  0  0  0
    8.5514    5.8646    0.0000 H   0  0  0  0  0  0  0  0  0  0  0  0
    4.1059    1.4155    0.0000 H   0  0  0  0  0  0  0  0  0  0  0  0
    3.5726    2.0079    0.0000 H   0  0  0  0  0  0  0  0  0  0  0  0
   10.2835    5.2446    0.0000 H   0  0  0  0  0  0  0  0  0  0  0  0
    3.0800   -0.8598    0.0000 H   0  0  0  0  0  0  0  0  0  0  0  0
    8.6345    6.5546    0.0000 H   0  0  0  0  0  0  0  0  0  0  0  0
    8.0145    7.1746    0.0000 H   0  0  0  0  0  0  0  0  0  0  0  0
    7.3945    6.5546    0.0000 H   0  0  0  0  0  0  0  0  0  0  0  0
    6.8385    5.5916    0.0000 H   0  0  0  0  0  0  0  0  0  0  0  0
    6.6115    4.7446    0.0000 H   0  0  0  0  0  0  0  0  0  0  0  0
    7.4585    4.5177    0.0000 H   0  0  0  0  0  0  0  0  0  0  0  0
    2.7268    2.2926    0.0000 H   0  0  0  0  0  0  0  0  0  0  0  0
    1.9456    1.8945    0.0000 H   0  0  0  0  0  0  0  0  0  0  0  0
    2.3436    1.1133    0.0000 H   0  0  0  0  0  0  0  0  0  0  0  0
    9.7817   -2.5142    0.0000 H   0  0  0  0  0  0  0  0  0  0  0  0
    7.5144   -5.7446    0.0000 H   0  0  0  0  0  0  0  0  0  0  0  0
   10.3203   -5.7446    0.0000 H   0  0  0  0  0  0  0  0  0  0  0  0
   10.0756    8.3646    0.0000 H   0  0  0  0  0  0  0  0  0  0  0  0
    7.5144   -7.3646    0.0000 H   0  0  0  0  0  0  0  0  0  0  0  0
   10.3203   -7.3646    0.0000 H   0  0  0  0  0  0  0  0  0  0  0  0
   12.8816    6.7446    0.0000 H   0  0  0  0  0  0  0  0  0  0  0  0
   12.8816    8.3646    0.0000 H   0  0  0  0  0  0  0  0  0  0  0  0
  1 48  1  0  0  0  0
  2 32  1  0  0  0  0
  2 39  1  0  0  0  0
 17  3  1  6  0  0  0
  3 24  1  0  0  0  0
  4 20  2  0  0  0  0
  5 22  2  0  0  0  0
  6 28  2  0  0  0  0
  7 33  2  0  0  0  0
  8 38  2  0  0  0  0
  9 16  1  0  0  0  0
  9 19  1  0  0  0  0
  9 20  1  0  0  0  0
 21 10  1  1  0  0  0
 10 28  1  0  0  0  0
 10 58  1  0  0  0  0
 11 22  1  0  0  0  0
 27 11  1  6  0  0  0
 11 59  1  0  0  0  0
 29 12  1  6  0  0  0
 12 38  1  0  0  0  0
 12 73  1  0  0  0  0
 13 37  1  0  0  0  0
 13 39  2  0  0  0  0
 14 40  2  0  0  0  0
 14 47  1  0  0  0  0
 15 44  2  0  0  0  0
 15 49  1  0  0  0  0
 16 18  1  0  0  0  0
 16 22  1  1  0  0  0
 16 50  1  0  0  0  0
 17 18  1  0  0  0  0
 17 19  1  0  0  0  0
 17 51  1  0  0  0  0
 18 52  1  0  0  0  0
 18 53  1  0  0  0  0
 19 54  1  0  0  0  0
 19 55  1  0  0  0  0
 20 21  1  0  0  0  0
 21 23  1  0  0  0  0
 21 56  1  0  0  0  0
 23 25  1  0  0  0  0
 23 26  1  0  0  0  0
 23 57  1  0  0  0  0
 24 32  1  0  0  0  0
 24 60  1  0  0  0  0
 24 61  1  0  0  0  0
 25 62  1  0  0  0  0
 25 63  1  0  0  0  0
 25 64  1  0  0  0  0
 26 65  1  0  0  0  0
 26 66  1  0  0  0  0
 26 67  1  0  0  0  0
 27 31  1  0  0  0  0
 27 33  1  0  0  0  0
 27 68  1  0  0  0  0
 28 29  1  0  0  0  0
 29 30  1  0  0  0  0
 29 69  1  0  0  0  0
 30 34  1  0  0  0  0
 30 35  1  0  0  0  0
 30 70  1  0  0  0  0
 31 36  1  0  0  0  0
 31 71  1  0  0  0  0
 31 72  1  0  0  0  0
 32 37  2  0  0  0  0
 33 74  1  0  0  0  0
 34 75  1  0  0  0  0
 34 76  1  0  0  0  0
 34 77  1  0  0  0  0
 35 78  1  0  0  0  0
 35 79  1  0  0  0  0
 35 80  1  0  0  0  0
 36 81  1  0  0  0  0
 36 82  1  0  0  0  0
 36 83  1  0  0  0  0
 37 84  1  0  0  0  0
 38 40  1  0  0  0  0
 39 41  1  0  0  0  0
 40 44  1  0  0  0  0
 41 42  2  0  0  0  0
 41 43  1  0  0  0  0
 42 45  1  0  0  0  0
 42 85  1  0  0  0  0
 43 46  2  0  0  0  0
 43 86  1  0  0  0  0
 44 87  1  0  0  0  0
 45 48  2  0  0  0  0
 45 88  1  0  0  0  0
 46 48  1  0  0  0  0
 46 89  1  0  0  0  0
 47 49  2  0  0  0  0
 47 90  1  0  0  0  0
 49 91  1  0  0  0  0
M  END
> <PUBCHEM_COMPOUND_CID>
506650
> <PUBCHEM_COMPOUND_CANONICALIZED>
1
> <PUBCHEM_CACTVS_COMPLEXITY>
1140
> <PUBCHEM_CACTVS_HBOND_ACCEPTOR>
10
> <PUBCHEM_CACTVS_HBOND_DONOR>
3
> <PUBCHEM_CACTVS_ROTATABLE_BOND>
15
> <PUBCHEM_CACTVS_SUBSKEYS>
AAADcfB/uABEAAAAAAAAAAAAAAAAAWLAAAA8QAAAAAAAAAAB8AAAHgYQAAAADT7h3iY+gZPIFAisAz131ACC8KR3HzhI2K24ftgKZPrh8zmXIIhmlgD4qMc6gQAOBAAAAAAAAAAIAAAAAAAAAAAAAAAAAA==
> <PUBCHEM_IUPAC_OPENEYE_NAME>
N-[(1S)-1-[[(1S)-1-[(2S,4R)-4-[[2-(4-chlorophenyl)thiazol-5-yl]methoxy]-2-[[(1S)-1-formylpropyl]carbamoyl]pyrrolidine-1-carbonyl]-2-methyl-propyl]carbamoyl]-2-methyl-propyl]pyrazine-2-carboxamide
> <PUBCHEM_IUPAC_CAS_NAME>
N-[(2S)-1-[[(2S)-1-[(2S,4R)-4-[[2-(4-chlorophenyl)-5-thiazolyl]methoxy]-2-[oxo-[[(2S)-1-oxobutan-2-yl]amino]methyl]-1-pyrrolidinyl]-3-methyl-1-oxobutan-2-yl]amino]-3-methyl-1-oxobutan-2-yl]-2-pyrazinecarboxamide
> <PUBCHEM_IUPAC_NAME_MARKUP>
<I>N</I>-[(2<I>S</I>)-1-[[(2<I>S</I>)-1-[(2<I>S</I>,4<I>R</I>)-4-[[2-(4-chlorophenyl)-1,3-thiazol-5-yl]methoxy]-2-[[(2<I>S</I>)-1-oxobutan-2-yl]carbamoyl]pyrrolidin-1-yl]-3-methyl-1-oxobutan-2-yl]amino]-3-methyl-1-oxobutan-2-yl]pyrazine-2-carboxamide
> <PUBCHEM_IUPAC_NAME>
N-[(2S)-1-[[(2S)-1-[(2S,4R)-4-[[2-(4-chlorophenyl)-1,3-thiazol-5-yl]methoxy]-2-[[(2S)-1-oxobutan-2-yl]carbamoyl]pyrrolidin-1-yl]-3-methyl-1-oxobutan-2-yl]amino]-3-methyl-1-oxobutan-2-yl]pyrazine-2-carboxamide
> <PUBCHEM_IUPAC_SYSTEMATIC_NAME>
N-[(2S)-1-[[(2S)-1-[(2S,4R)-4-[[2-(4-chlorophenyl)-1,3-thiazol-5-yl]methoxy]-2-[[(2S)-1-oxidanylidenebutan-2-yl]carbamoyl]pyrrolidin-1-yl]-3-methyl-1-oxidanylidene-butan-2-yl]amino]-3-methyl-1-oxidanylidene-butan-2-yl]pyrazine-2-carboxamide
> <PUBCHEM_IUPAC_TRADITIONAL_NAME>
N-[(1S)-1-[[(1S)-1-[(2S,4R)-4-[[2-(4-chlorophenyl)thiazol-5-yl]methoxy]-2-[[(1S)-1-formylpropyl]carbamoyl]pyrrolidine-1-carbonyl]-2-methyl-propyl]carbamoyl]-2-methyl-propyl]pyrazinamide
> <PUBCHEM_IUPAC_INCHI>
InChI=1S/C34H42ClN7O6S/c1-6-23(17-43)39-31(45)27-13-24(48-18-25-14-38-33(49-25)21-7-9-22(35)10-8-21)16-42(27)34(47)29(20(4)5)41-32(46)28(19(2)3)40-30(44)26-15-36-11-12-37-26/h7-12,14-15,17,19-20,23-24,27-29H,6,13,16,18H2,1-5H3,(H,39,45)(H,40,44)(H,41,46)/t23-,24+,27-,28-,29-/m0/s1
> <PUBCHEM_IUPAC_INCHIKEY>
SFRFQMMARHDTFA-BHBAPUPVSA-N
> <PUBCHEM_XLOGP3_AA>
3.7
> <PUBCHEM_EXACT_MASS>
711.2605810
> <PUBCHEM_MOLECULAR_FORMULA>
C34H42ClN7O6S
> <PUBCHEM_MOLECULAR_WEIGHT>
712.3
> <PUBCHEM_OPENEYE_CAN_SMILES>
CCC(C=O)NC(=O)C1CC(CN1C(=O)C(C(C)C)NC(=O)C(C(C)C)NC(=O)C2=NC=CN=C2)OCC3=CN=C(S3)C4=CC=C(C=C4)Cl
> <PUBCHEM_OPENEYE_ISO_SMILES>
CC[C@@H](C=O)NC(=O)[C@@H]1C[C@H](CN1C(=O)[C@H](C(C)C)NC(=O)[C@H](C(C)C)NC(=O)C2=NC=CN=C2)OCC3=CN=C(S3)C4=CC=C(C=C4)Cl
> <PUBCHEM_CACTVS_TPSA>
201
> <PUBCHEM_MONOISOTOPIC_WEIGHT>
711.2605810
> <PUBCHEM_TOTAL_CHARGE>
0
> <PUBCHEM_HEAVY_ATOM_COUNT>
49
> <PUBCHEM_ATOM_DEF_STEREO_COUNT>
5
> <PUBCHEM_ATOM_UDEF_STEREO_COUNT>
0
> <PUBCHEM_BOND_DEF_STEREO_COUNT>
0
> <PUBCHEM_BOND_UDEF_STEREO_COUNT>
0
> <PUBCHEM_ISOTOPIC_ATOM_COUNT>
0
> <PUBCHEM_COMPONENT_COUNT>
1
> <PUBCHEM_CACTVS_TAUTO_COUNT>
-1
> <PUBCHEM_COORDINATE_TYPE>
1
5
255
> <PUBCHEM_BONDANNOTATIONS>
21  10  5
27  11  6
29  12  6
13  37  8
13  39  8
14  40  8
14  47  8
15  44  8
15  49  8
16  22  5
2  32  8
2  39  8
17  3  6
32  37  8
40  44  8
41  42  8
41  43  8
42  45  8
43  46  8
45  48  8
46  48  8
47  49  8
$$$$
