506676
  -OEChem-10302200282D
 85 87  0     1  0  0  0  0  0999 V2000
    2.0000   -7.4076    0.0000 Cl  0  0  0  0  0  0  0  0  0  0  0  0
    5.4641   -7.4076    0.0000 Cl  0  0  0  0  0  0  0  0  0  0  0  0
    4.5981   -2.9076    0.0000 O   0  0  0  0  0  0  0  0  0  0  0  0
    7.9480   -0.1871    0.0000 O   0  0  0  0  0  0  0  0  0  0  0  0
    8.6291   -1.3667    0.0000 O   0  0  0  0  0  0  0  0  0  0  0  0
    5.1902    2.1354    0.0000 O   0  0  0  0  0  0  0  0  0  0  0  0
    5.4641   -4.4076    0.0000 O   0  0  0  0  0  0  0  0  0  0  0  0
   10.8438   -4.2119    0.0000 O   0  0  0  0  0  0  0  0  0  0  0  0
    7.4049    4.9806    0.0000 O   0  0  0  0  0  0  0  0  0  0  0  0
    6.5468   -1.2052    0.0000 N   0  0  0  0  0  0  0  0  0  0  0  0
    6.7725    1.4309    0.0000 N   0  0  0  0  0  0  0  0  0  0  0  0
    8.4480   -3.0893    0.0000 N   0  0  0  0  0  0  0  0  0  0  0  0
    6.0036    3.9625    0.0000 N   0  0  0  0  0  0  0  0  0  0  0  0
    3.7320   -4.4076    0.0000 N   0  0  0  0  0  0  0  0  0  0  0  0
    4.8281    5.5805    0.0000 N   0  0  0  0  0  0  0  0  0  0  0  0
    3.7320   -7.4076    0.0000 N   0  0  0  0  0  0  0  0  0  0  0  0
    5.6415    7.4076    0.0000 N   0  0  0  0  0  0  0  0  0  0  0  0
    7.0468   -2.0712    0.0000 C   0  0  1  0  0  0  0  0  0  0  0  0
    6.3776   -2.8144    0.0000 C   0  0  0  0  0  0  0  0  0  0  0  0
    5.4641   -2.4076    0.0000 C   0  0  2  0  0  0  0  0  0  0  0  0
    5.5686   -1.4131    0.0000 C   0  0  0  0  0  0  0  0  0  0  0  0
    6.9535   -0.2916    0.0000 C   0  0  0  0  0  0  0  0  0  0  0  0
    6.3657    0.5174    0.0000 C   0  0  2  0  0  0  0  0  0  0  0  0
    8.0413   -2.1757    0.0000 C   0  0  0  0  0  0  0  0  0  0  0  0
    5.3712    0.4128    0.0000 C   0  0  0  0  0  0  0  0  0  0  0  0
    4.7834    1.2219    0.0000 C   0  0  0  0  0  0  0  0  0  0  0  0
    4.9645   -0.5007    0.0000 C   0  0  0  0  0  0  0  0  0  0  0  0
    9.4426   -3.1938    0.0000 C   0  0  1  0  0  0  0  0  0  0  0  0
    6.1847    2.2399    0.0000 C   0  0  0  0  0  0  0  0  0  0  0  0
    6.5914    3.1535    0.0000 C   0  0  2  0  0  0  0  0  0  0  0  0
    7.5859    3.2580    0.0000 C   0  0  0  0  0  0  0  0  0  0  0  0
    4.5981   -3.9076    0.0000 C   0  0  0  0  0  0  0  0  0  0  0  0
   10.0303   -2.3848    0.0000 C   0  0  0  0  0  0  0  0  0  0  0  0
    7.9927    4.1716    0.0000 C   0  0  0  0  0  0  0  0  0  0  0  0
    8.1737    2.4490    0.0000 C   0  0  0  0  0  0  0  0  0  0  0  0
    9.8493   -4.1074    0.0000 C   0  0  0  0  0  0  0  0  0  0  0  0
   11.0249   -2.4893    0.0000 C   0  0  0  0  0  0  0  0  0  0  0  0
    6.4104    4.8760    0.0000 C   0  0  0  0  0  0  0  0  0  0  0  0
    3.7320   -5.4076    0.0000 C   0  0  0  0  0  0  0  0  0  0  0  0
    5.8226    5.6851    0.0000 C   0  0  0  0  0  0  0  0  0  0  0  0
    2.8660   -5.9076    0.0000 C   0  0  0  0  0  0  0  0  0  0  0  0
    4.5981   -5.9076    0.0000 C   0  0  0  0  0  0  0  0  0  0  0  0
    6.2293    6.5986    0.0000 C   0  0  0  0  0  0  0  0  0  0  0  0
    2.8660   -6.9076    0.0000 C   0  0  0  0  0  0  0  0  0  0  0  0
    4.5981   -6.9076    0.0000 C   0  0  0  0  0  0  0  0  0  0  0  0
    4.2403    6.3896    0.0000 C   0  0  0  0  0  0  0  0  0  0  0  0
    4.6470    7.3031    0.0000 C   0  0  0  0  0  0  0  0  0  0  0  0
    7.3844   -1.5512    0.0000 H   0  0  0  0  0  0  0  0  0  0  0  0
    6.0677   -3.3513    0.0000 H   0  0  0  0  0  0  0  0  0  0  0  0
    6.8792   -3.1788    0.0000 H   0  0  0  0  0  0  0  0  0  0  0  0
    4.9441   -2.0700    0.0000 H   0  0  0  0  0  0  0  0  0  0  0  0
    5.5038   -0.7965    0.0000 H   0  0  0  0  0  0  0  0  0  0  0  0
    4.9486   -1.4131    0.0000 H   0  0  0  0  0  0  0  0  0  0  0  0
    6.0013    1.0190    0.0000 H   0  0  0  0  0  0  0  0  0  0  0  0
    5.7356   -0.0887    0.0000 H   0  0  0  0  0  0  0  0  0  0  0  0
    7.3891    1.4957    0.0000 H   0  0  0  0  0  0  0  0  0  0  0  0
    8.0836   -3.5909    0.0000 H   0  0  0  0  0  0  0  0  0  0  0  0
    5.2850    1.5863    0.0000 H   0  0  0  0  0  0  0  0  0  0  0  0
    4.4190    1.7234    0.0000 H   0  0  0  0  0  0  0  0  0  0  0  0
    4.2818    0.8574    0.0000 H   0  0  0  0  0  0  0  0  0  0  0  0
    4.3981   -0.2485    0.0000 H   0  0  0  0  0  0  0  0  0  0  0  0
    4.7123   -1.0671    0.0000 H   0  0  0  0  0  0  0  0  0  0  0  0
    5.5309   -0.7529    0.0000 H   0  0  0  0  0  0  0  0  0  0  0  0
    9.1904   -2.6274    0.0000 H   0  0  0  0  0  0  0  0  0  0  0  0
    6.8436    3.7199    0.0000 H   0  0  0  0  0  0  0  0  0  0  0  0
    7.2215    3.7596    0.0000 H   0  0  0  0  0  0  0  0  0  0  0  0
   10.2012   -1.7888    0.0000 H   0  0  0  0  0  0  0  0  0  0  0  0
    9.4731   -2.1130    0.0000 H   0  0  0  0  0  0  0  0  0  0  0  0
    5.3870    3.8977    0.0000 H   0  0  0  0  0  0  0  0  0  0  0  0
    8.5591    3.9194    0.0000 H   0  0  0  0  0  0  0  0  0  0  0  0
    8.2448    4.7380    0.0000 H   0  0  0  0  0  0  0  0  0  0  0  0
    7.4263    4.4237    0.0000 H   0  0  0  0  0  0  0  0  0  0  0  0
    7.6721    2.0846    0.0000 H   0  0  0  0  0  0  0  0  0  0  0  0
    8.5382    1.9474    0.0000 H   0  0  0  0  0  0  0  0  0  0  0  0
    8.6753    2.8134    0.0000 H   0  0  0  0  0  0  0  0  0  0  0  0
    9.4849   -4.6090    0.0000 H   0  0  0  0  0  0  0  0  0  0  0  0
    3.1951   -4.0976    0.0000 H   0  0  0  0  0  0  0  0  0  0  0  0
   10.9601   -3.1059    0.0000 H   0  0  0  0  0  0  0  0  0  0  0  0
   11.6415   -2.5541    0.0000 H   0  0  0  0  0  0  0  0  0  0  0  0
   11.0897   -1.8727    0.0000 H   0  0  0  0  0  0  0  0  0  0  0  0
    2.3291   -5.5976    0.0000 H   0  0  0  0  0  0  0  0  0  0  0  0
    5.1350   -5.5976    0.0000 H   0  0  0  0  0  0  0  0  0  0  0  0
    6.8459    6.6634    0.0000 H   0  0  0  0  0  0  0  0  0  0  0  0
    3.6237    6.3247    0.0000 H   0  0  0  0  0  0  0  0  0  0  0  0
    4.2826    7.8047    0.0000 H   0  0  0  0  0  0  0  0  0  0  0  0
  1 44  1  0  0  0  0
  2 45  1  0  0  0  0
 20  3  1  1  0  0  0
  3 32  1  0  0  0  0
  4 22  2  0  0  0  0
  5 24  2  0  0  0  0
  6 29  2  0  0  0  0
  7 32  2  0  0  0  0
  8 36  2  0  0  0  0
  9 38  2  0  0  0  0
 10 18  1  0  0  0  0
 10 21  1  0  0  0  0
 10 22  1  0  0  0  0
 23 11  1  6  0  0  0
 11 29  1  0  0  0  0
 11 56  1  0  0  0  0
 12 24  1  0  0  0  0
 28 12  1  1  0  0  0
 12 57  1  0  0  0  0
 30 13  1  1  0  0  0
 13 38  1  0  0  0  0
 13 69  1  0  0  0  0
 14 32  1  0  0  0  0
 14 39  1  0  0  0  0
 14 77  1  0  0  0  0
 15 40  2  0  0  0  0
 15 46  1  0  0  0  0
 16 44  2  0  0  0  0
 16 45  1  0  0  0  0
 17 43  2  0  0  0  0
 17 47  1  0  0  0  0
 18 19  1  0  0  0  0
 18 24  1  6  0  0  0
 18 48  1  0  0  0  0
 19 20  1  0  0  0  0
 19 49  1  0  0  0  0
 19 50  1  0  0  0  0
 20 21  1  0  0  0  0
 20 51  1  0  0  0  0
 21 52  1  0  0  0  0
 21 53  1  0  0  0  0
 22 23  1  0  0  0  0
 23 25  1  0  0  0  0
 23 54  1  0  0  0  0
 25 26  1  0  0  0  0
 25 27  1  0  0  0  0
 25 55  1  0  0  0  0
 26 58  1  0  0  0  0
 26 59  1  0  0  0  0
 26 60  1  0  0  0  0
 27 61  1  0  0  0  0
 27 62  1  0  0  0  0
 27 63  1  0  0  0  0
 28 33  1  0  0  0  0
 28 36  1  0  0  0  0
 28 64  1  0  0  0  0
 29 30  1  0  0  0  0
 30 31  1  0  0  0  0
 30 65  1  0  0  0  0
 31 34  1  0  0  0  0
 31 35  1  0  0  0  0
 31 66  1  0  0  0  0
 33 37  1  0  0  0  0
 33 67  1  0  0  0  0
 33 68  1  0  0  0  0
 34 70  1  0  0  0  0
 34 71  1  0  0  0  0
 34 72  1  0  0  0  0
 35 73  1  0  0  0  0
 35 74  1  0  0  0  0
 35 75  1  0  0  0  0
 36 76  1  0  0  0  0
 37 78  1  0  0  0  0
 37 79  1  0  0  0  0
 37 80  1  0  0  0  0
 38 40  1  0  0  0  0
 39 41  2  0  0  0  0
 39 42  1  0  0  0  0
 40 43  1  0  0  0  0
 41 44  1  0  0  0  0
 41 81  1  0  0  0  0
 42 45  2  0  0  0  0
 42 82  1  0  0  0  0
 43 83  1  0  0  0  0
 46 47  2  0  0  0  0
 46 84  1  0  0  0  0
 47 85  1  0  0  0  0
M  END
> <PUBCHEM_COMPOUND_CID>
506676
> <PUBCHEM_COMPOUND_CANONICALIZED>
1
> <PUBCHEM_CACTVS_COMPLEXITY>
1120
> <PUBCHEM_CACTVS_HBOND_ACCEPTOR>
10
> <PUBCHEM_CACTVS_HBOND_DONOR>
4
> <PUBCHEM_CACTVS_ROTATABLE_BOND>
14
> <PUBCHEM_CACTVS_SUBSKEYS>
AAADcfB7+AAGAAAAAAAAAAAAAAAAAWAAAAAsWAAAAAAAAAAB4AAAHgIQAAAADT7hliY+yJPIFACoAT133ACCgCQ3FyAI2KG4dtkKYHrB0/GdJIhmlgDYyMY6AQAIAAAAAAAAAAAAAAAAAAAAAAAAAAAAAA==
> <PUBCHEM_IUPAC_OPENEYE_NAME>
[(3R,5S)-5-[[(1S)-1-formylpropyl]carbamoyl]-1-[(2S)-3-methyl-2-[[(2S)-3-methyl-2-(pyrazine-2-carbonylamino)butanoyl]amino]butanoyl]pyrrolidin-3-yl] N-(2,6-dichloro-4-pyridyl)carbamate
> <PUBCHEM_IUPAC_CAS_NAME>
N-(2,6-dichloro-4-pyridinyl)carbamic acid [(3R,5S)-1-[(2S)-3-methyl-2-[[(2S)-3-methyl-1-oxo-2-[[oxo(2-pyrazinyl)methyl]amino]butyl]amino]-1-oxobutyl]-5-[oxo-[[(2S)-1-oxobutan-2-yl]amino]methyl]-3-pyrrolidinyl] ester
> <PUBCHEM_IUPAC_NAME_MARKUP>
[(3<I>R</I>,5<I>S</I>)-1-[(2<I>S</I>)-3-methyl-2-[[(2<I>S</I>)-3-methyl-2-(pyrazine-2-carbonylamino)butanoyl]amino]butanoyl]-5-[[(2<I>S</I>)-1-oxobutan-2-yl]carbamoyl]pyrrolidin-3-yl] <I>N</I>-(2,6-dichloropyridin-4-yl)carbamate
> <PUBCHEM_IUPAC_NAME>
[(3R,5S)-1-[(2S)-3-methyl-2-[[(2S)-3-methyl-2-(pyrazine-2-carbonylamino)butanoyl]amino]butanoyl]-5-[[(2S)-1-oxobutan-2-yl]carbamoyl]pyrrolidin-3-yl] N-(2,6-dichloropyridin-4-yl)carbamate
> <PUBCHEM_IUPAC_SYSTEMATIC_NAME>
[(3R,5S)-1-[(2S)-3-methyl-2-[[(2S)-3-methyl-2-(pyrazin-2-ylcarbonylamino)butanoyl]amino]butanoyl]-5-[[(2S)-1-oxidanylidenebutan-2-yl]carbamoyl]pyrrolidin-3-yl] N-[2,6-bis(chloranyl)pyridin-4-yl]carbamate
> <PUBCHEM_IUPAC_TRADITIONAL_NAME>
N-(2,6-dichloro-4-pyridyl)carbamic acid [(3R,5S)-5-[[(1S)-1-formylpropyl]carbamoyl]-1-[(2S)-3-methyl-2-[[(2S)-3-methyl-2-(pyrazinoylamino)butanoyl]amino]butanoyl]pyrrolidin-3-yl] ester
> <PUBCHEM_IUPAC_INCHI>
InChI=1S/C30H38Cl2N8O7/c1-6-17(14-41)35-27(43)21-11-19(47-30(46)36-18-9-22(31)37-23(32)10-18)13-40(21)29(45)25(16(4)5)39-28(44)24(15(2)3)38-26(42)20-12-33-7-8-34-20/h7-10,12,14-17,19,21,24-25H,6,11,13H2,1-5H3,(H,35,43)(H,38,42)(H,39,44)(H,36,37,46)/t17-,19+,21-,24-,25-/m0/s1
> <PUBCHEM_IUPAC_INCHIKEY>
OPABWGNPWAHKSL-INQUTFDASA-N
> <PUBCHEM_XLOGP3_AA>
3.2
> <PUBCHEM_EXACT_MASS>
692.2240510
> <PUBCHEM_MOLECULAR_FORMULA>
C30H38Cl2N8O7
> <PUBCHEM_MOLECULAR_WEIGHT>
693.6
> <PUBCHEM_OPENEYE_CAN_SMILES>
CCC(C=O)NC(=O)C1CC(CN1C(=O)C(C(C)C)NC(=O)C(C(C)C)NC(=O)C2=NC=CN=C2)OC(=O)NC3=CC(=NC(=C3)Cl)Cl
> <PUBCHEM_OPENEYE_ISO_SMILES>
CC[C@@H](C=O)NC(=O)[C@@H]1C[C@H](CN1C(=O)[C@H](C(C)C)NC(=O)[C@H](C(C)C)NC(=O)C2=NC=CN=C2)OC(=O)NC3=CC(=NC(=C3)Cl)Cl
> <PUBCHEM_CACTVS_TPSA>
202
> <PUBCHEM_MONOISOTOPIC_WEIGHT>
692.2240510
> <PUBCHEM_TOTAL_CHARGE>
0
> <PUBCHEM_HEAVY_ATOM_COUNT>
47
> <PUBCHEM_ATOM_DEF_STEREO_COUNT>
5
> <PUBCHEM_ATOM_UDEF_STEREO_COUNT>
0
> <PUBCHEM_BOND_DEF_STEREO_COUNT>
0
> <PUBCHEM_BOND_UDEF_STEREO_COUNT>
0
> <PUBCHEM_ISOTOPIC_ATOM_COUNT>
0
> <PUBCHEM_COMPONENT_COUNT>
1
> <PUBCHEM_CACTVS_TAUTO_COUNT>
-1
> <PUBCHEM_COORDINATE_TYPE>
1
5
255
> <PUBCHEM_BONDANNOTATIONS>
23  11  6
28  12  5
30  13  5
15  40  8
15  46  8
16  44  8
16  45  8
17  43  8
17  47  8
18  24  6
20  3  5
39  41  8
39  42  8
40  43  8
41  44  8
42  45  8
46  47  8
$$$$
