506679
  -OEChem-10302200282D
 95 97  0     1  0  0  0  0  0999 V2000
    5.4641   -2.9076    0.0000 O   0  0  0  0  0  0  0  0  0  0  0  0
    8.8141   -0.1871    0.0000 O   0  0  0  0  0  0  0  0  0  0  0  0
    9.4951   -1.3667    0.0000 O   0  0  0  0  0  0  0  0  0  0  0  0
    6.0562    2.1354    0.0000 O   0  0  0  0  0  0  0  0  0  0  0  0
    6.3301   -4.4076    0.0000 O   0  0  0  0  0  0  0  0  0  0  0  0
   11.7098   -4.2119    0.0000 O   0  0  0  0  0  0  0  0  0  0  0  0
    8.2709    4.9806    0.0000 O   0  0  0  0  0  0  0  0  0  0  0  0
    7.4128   -1.2052    0.0000 N   0  0  0  0  0  0  0  0  0  0  0  0
    7.6385    1.4309    0.0000 N   0  0  0  0  0  0  0  0  0  0  0  0
    9.3141   -3.0893    0.0000 N   0  0  0  0  0  0  0  0  0  0  0  0
    6.8697    3.9625    0.0000 N   0  0  0  0  0  0  0  0  0  0  0  0
    4.5981   -4.4076    0.0000 N   0  0  0  0  0  0  0  0  0  0  0  0
    5.6941    5.5805    0.0000 N   0  0  0  0  0  0  0  0  0  0  0  0
    6.5076    7.4076    0.0000 N   0  0  0  0  0  0  0  0  0  0  0  0
    7.9128   -2.0712    0.0000 C   0  0  1  0  0  0  0  0  0  0  0  0
    7.2437   -2.8144    0.0000 C   0  0  0  0  0  0  0  0  0  0  0  0
    6.3301   -2.4076    0.0000 C   0  0  2  0  0  0  0  0  0  0  0  0
    6.4347   -1.4131    0.0000 C   0  0  0  0  0  0  0  0  0  0  0  0
    7.8195   -0.2916    0.0000 C   0  0  0  0  0  0  0  0  0  0  0  0
    7.2318    0.5174    0.0000 C   0  0  2  0  0  0  0  0  0  0  0  0
    8.9073   -2.1757    0.0000 C   0  0  0  0  0  0  0  0  0  0  0  0
    6.2372    0.4128    0.0000 C   0  0  0  0  0  0  0  0  0  0  0  0
    5.6494    1.2219    0.0000 C   0  0  0  0  0  0  0  0  0  0  0  0
    5.8305   -0.5007    0.0000 C   0  0  0  0  0  0  0  0  0  0  0  0
   10.3086   -3.1938    0.0000 C   0  0  1  0  0  0  0  0  0  0  0  0
    7.0507    2.2399    0.0000 C   0  0  0  0  0  0  0  0  0  0  0  0
    7.4574    3.1535    0.0000 C   0  0  2  0  0  0  0  0  0  0  0  0
    5.4641   -3.9076    0.0000 C   0  0  0  0  0  0  0  0  0  0  0  0
    8.4520    3.2580    0.0000 C   0  0  0  0  0  0  0  0  0  0  0  0
   10.8964   -2.3848    0.0000 C   0  0  0  0  0  0  0  0  0  0  0  0
   10.7153   -4.1074    0.0000 C   0  0  0  0  0  0  0  0  0  0  0  0
    8.8587    4.1716    0.0000 C   0  0  0  0  0  0  0  0  0  0  0  0
    9.0398    2.4490    0.0000 C   0  0  0  0  0  0  0  0  0  0  0  0
   11.8909   -2.4893    0.0000 C   0  0  0  0  0  0  0  0  0  0  0  0
    4.5981   -5.4076    0.0000 C   0  0  0  0  0  0  0  0  0  0  0  0
    7.2764    4.8760    0.0000 C   0  0  0  0  0  0  0  0  0  0  0  0
    3.7320   -5.9076    0.0000 C   0  0  0  0  0  0  0  0  0  0  0  0
    2.8660   -5.4076    0.0000 C   0  0  0  0  0  0  0  0  0  0  0  0
    5.4641   -5.9076    0.0000 C   0  0  0  0  0  0  0  0  0  0  0  0
    3.7320   -6.9076    0.0000 C   0  0  0  0  0  0  0  0  0  0  0  0
    6.6886    5.6851    0.0000 C   0  0  0  0  0  0  0  0  0  0  0  0
    2.0000   -5.9076    0.0000 C   0  0  0  0  0  0  0  0  0  0  0  0
    2.8660   -4.4076    0.0000 C   0  0  0  0  0  0  0  0  0  0  0  0
    5.4641   -6.9076    0.0000 C   0  0  0  0  0  0  0  0  0  0  0  0
    4.5981   -7.4076    0.0000 C   0  0  0  0  0  0  0  0  0  0  0  0
    7.0954    6.5986    0.0000 C   0  0  0  0  0  0  0  0  0  0  0  0
    5.1063    6.3896    0.0000 C   0  0  0  0  0  0  0  0  0  0  0  0
    5.5130    7.3031    0.0000 C   0  0  0  0  0  0  0  0  0  0  0  0
    8.2505   -1.5512    0.0000 H   0  0  0  0  0  0  0  0  0  0  0  0
    6.9337   -3.3513    0.0000 H   0  0  0  0  0  0  0  0  0  0  0  0
    7.7453   -3.1788    0.0000 H   0  0  0  0  0  0  0  0  0  0  0  0
    5.8102   -2.0700    0.0000 H   0  0  0  0  0  0  0  0  0  0  0  0
    6.3698   -0.7965    0.0000 H   0  0  0  0  0  0  0  0  0  0  0  0
    5.8147   -1.4131    0.0000 H   0  0  0  0  0  0  0  0  0  0  0  0
    6.8673    1.0190    0.0000 H   0  0  0  0  0  0  0  0  0  0  0  0
    6.6017   -0.0887    0.0000 H   0  0  0  0  0  0  0  0  0  0  0  0
    8.2551    1.4957    0.0000 H   0  0  0  0  0  0  0  0  0  0  0  0
    8.9496   -3.5909    0.0000 H   0  0  0  0  0  0  0  0  0  0  0  0
    6.1510    1.5863    0.0000 H   0  0  0  0  0  0  0  0  0  0  0  0
    5.2850    1.7234    0.0000 H   0  0  0  0  0  0  0  0  0  0  0  0
    5.1479    0.8574    0.0000 H   0  0  0  0  0  0  0  0  0  0  0  0
    5.2641   -0.2485    0.0000 H   0  0  0  0  0  0  0  0  0  0  0  0
    5.5783   -1.0671    0.0000 H   0  0  0  0  0  0  0  0  0  0  0  0
    6.3969   -0.7529    0.0000 H   0  0  0  0  0  0  0  0  0  0  0  0
    9.9442   -3.6954    0.0000 H   0  0  0  0  0  0  0  0  0  0  0  0
    6.8408    3.0887    0.0000 H   0  0  0  0  0  0  0  0  0  0  0  0
    8.1998    2.6916    0.0000 H   0  0  0  0  0  0  0  0  0  0  0  0
   11.0673   -1.7888    0.0000 H   0  0  0  0  0  0  0  0  0  0  0  0
   10.3391   -2.1130    0.0000 H   0  0  0  0  0  0  0  0  0  0  0  0
    6.2530    3.8977    0.0000 H   0  0  0  0  0  0  0  0  0  0  0  0
    4.0611   -4.0976    0.0000 H   0  0  0  0  0  0  0  0  0  0  0  0
   10.3509   -4.6090    0.0000 H   0  0  0  0  0  0  0  0  0  0  0  0
    9.4251    3.9194    0.0000 H   0  0  0  0  0  0  0  0  0  0  0  0
    9.1109    4.7380    0.0000 H   0  0  0  0  0  0  0  0  0  0  0  0
    8.2923    4.4237    0.0000 H   0  0  0  0  0  0  0  0  0  0  0  0
    8.5382    2.0846    0.0000 H   0  0  0  0  0  0  0  0  0  0  0  0
    9.4042    1.9474    0.0000 H   0  0  0  0  0  0  0  0  0  0  0  0
    9.5413    2.8134    0.0000 H   0  0  0  0  0  0  0  0  0  0  0  0
   11.8261   -3.1059    0.0000 H   0  0  0  0  0  0  0  0  0  0  0  0
   12.5075   -2.5541    0.0000 H   0  0  0  0  0  0  0  0  0  0  0  0
   11.9557   -1.8727    0.0000 H   0  0  0  0  0  0  0  0  0  0  0  0
    2.8660   -6.0276    0.0000 H   0  0  0  0  0  0  0  0  0  0  0  0
    6.0010   -5.5976    0.0000 H   0  0  0  0  0  0  0  0  0  0  0  0
    3.1951   -7.2176    0.0000 H   0  0  0  0  0  0  0  0  0  0  0  0
    1.6900   -5.3707    0.0000 H   0  0  0  0  0  0  0  0  0  0  0  0
    1.4631   -6.2176    0.0000 H   0  0  0  0  0  0  0  0  0  0  0  0
    2.3100   -6.4446    0.0000 H   0  0  0  0  0  0  0  0  0  0  0  0
    3.4860   -4.4076    0.0000 H   0  0  0  0  0  0  0  0  0  0  0  0
    2.8660   -3.7876    0.0000 H   0  0  0  0  0  0  0  0  0  0  0  0
    2.2460   -4.4076    0.0000 H   0  0  0  0  0  0  0  0  0  0  0  0
    6.0010   -7.2176    0.0000 H   0  0  0  0  0  0  0  0  0  0  0  0
    4.5981   -8.0276    0.0000 H   0  0  0  0  0  0  0  0  0  0  0  0
    7.7120    6.6634    0.0000 H   0  0  0  0  0  0  0  0  0  0  0  0
    4.4897    6.3247    0.0000 H   0  0  0  0  0  0  0  0  0  0  0  0
    5.1486    7.8047    0.0000 H   0  0  0  0  0  0  0  0  0  0  0  0
 17  1  1  1  0  0  0
  1 28  1  0  0  0  0
  2 19  2  0  0  0  0
  3 21  2  0  0  0  0
  4 26  2  0  0  0  0
  5 28  2  0  0  0  0
  6 31  2  0  0  0  0
  7 36  2  0  0  0  0
  8 15  1  0  0  0  0
  8 18  1  0  0  0  0
  8 19  1  0  0  0  0
 20  9  1  6  0  0  0
  9 26  1  0  0  0  0
  9 57  1  0  0  0  0
 10 21  1  0  0  0  0
 25 10  1  1  0  0  0
 10 58  1  0  0  0  0
 27 11  1  1  0  0  0
 11 36  1  0  0  0  0
 11 70  1  0  0  0  0
 12 28  1  0  0  0  0
 12 35  1  0  0  0  0
 12 71  1  0  0  0  0
 13 41  2  0  0  0  0
 13 47  1  0  0  0  0
 14 46  2  0  0  0  0
 14 48  1  0  0  0  0
 15 16  1  0  0  0  0
 15 21  1  6  0  0  0
 15 49  1  0  0  0  0
 16 17  1  0  0  0  0
 16 50  1  0  0  0  0
 16 51  1  0  0  0  0
 17 18  1  0  0  0  0
 17 52  1  0  0  0  0
 18 53  1  0  0  0  0
 18 54  1  0  0  0  0
 19 20  1  0  0  0  0
 20 22  1  0  0  0  0
 20 55  1  0  0  0  0
 22 23  1  0  0  0  0
 22 24  1  0  0  0  0
 22 56  1  0  0  0  0
 23 59  1  0  0  0  0
 23 60  1  0  0  0  0
 23 61  1  0  0  0  0
 24 62  1  0  0  0  0
 24 63  1  0  0  0  0
 24 64  1  0  0  0  0
 25 30  1  0  0  0  0
 25 31  1  0  0  0  0
 25 65  1  0  0  0  0
 26 27  1  0  0  0  0
 27 29  1  0  0  0  0
 27 66  1  0  0  0  0
 29 32  1  0  0  0  0
 29 33  1  0  0  0  0
 29 67  1  0  0  0  0
 30 34  1  0  0  0  0
 30 68  1  0  0  0  0
 30 69  1  0  0  0  0
 31 72  1  0  0  0  0
 32 73  1  0  0  0  0
 32 74  1  0  0  0  0
 32 75  1  0  0  0  0
 33 76  1  0  0  0  0
 33 77  1  0  0  0  0
 33 78  1  0  0  0  0
 34 79  1  0  0  0  0
 34 80  1  0  0  0  0
 34 81  1  0  0  0  0
 35 37  1  0  0  0  0
 35 39  2  0  0  0  0
 36 41  1  0  0  0  0
 37 38  1  0  0  0  0
 37 40  2  0  0  0  0
 38 42  1  0  0  0  0
 38 43  1  0  0  0  0
 38 82  1  0  0  0  0
 39 44  1  0  0  0  0
 39 83  1  0  0  0  0
 40 45  1  0  0  0  0
 40 84  1  0  0  0  0
 41 46  1  0  0  0  0
 42 85  1  0  0  0  0
 42 86  1  0  0  0  0
 42 87  1  0  0  0  0
 43 88  1  0  0  0  0
 43 89  1  0  0  0  0
 43 90  1  0  0  0  0
 44 45  2  0  0  0  0
 44 91  1  0  0  0  0
 45 92  1  0  0  0  0
 46 93  1  0  0  0  0
 47 48  2  0  0  0  0
 47 94  1  0  0  0  0
 48 95  1  0  0  0  0
M  END
> <PUBCHEM_COMPOUND_CID>
506679
> <PUBCHEM_COMPOUND_CANONICALIZED>
1
> <PUBCHEM_CACTVS_COMPLEXITY>
1130
> <PUBCHEM_CACTVS_HBOND_ACCEPTOR>
9
> <PUBCHEM_CACTVS_HBOND_DONOR>
4
> <PUBCHEM_CACTVS_ROTATABLE_BOND>
15
> <PUBCHEM_CACTVS_SUBSKEYS>
AAADcfB/uAAAAAAAAAAAAAAAAAAAAWAAAAA8QAAAAAAAAAABwAAAHgAQAAAADTzhngY+yJPIFACoAz133ACCgCQ3EiAI2IG4dMkKYHrA0bGdIIhmlgDYyMc6gcAOgAAAAAACAAAAAAAAAAQAAAAAAAAAAA==
> <PUBCHEM_IUPAC_OPENEYE_NAME>
[(3R,5S)-5-[[(1S)-1-formylpropyl]carbamoyl]-1-[(2S)-3-methyl-2-[[(2S)-3-methyl-2-(pyrazine-2-carbonylamino)butanoyl]amino]butanoyl]pyrrolidin-3-yl] N-(2-isopropylphenyl)carbamate
> <PUBCHEM_IUPAC_CAS_NAME>
N-(2-propan-2-ylphenyl)carbamic acid [(3R,5S)-1-[(2S)-3-methyl-2-[[(2S)-3-methyl-1-oxo-2-[[oxo(2-pyrazinyl)methyl]amino]butyl]amino]-1-oxobutyl]-5-[oxo-[[(2S)-1-oxobutan-2-yl]amino]methyl]-3-pyrrolidinyl] ester
> <PUBCHEM_IUPAC_NAME_MARKUP>
[(3<I>R</I>,5<I>S</I>)-1-[(2<I>S</I>)-3-methyl-2-[[(2<I>S</I>)-3-methyl-2-(pyrazine-2-carbonylamino)butanoyl]amino]butanoyl]-5-[[(2<I>S</I>)-1-oxobutan-2-yl]carbamoyl]pyrrolidin-3-yl] <I>N</I>-(2-propan-2-ylphenyl)carbamate
> <PUBCHEM_IUPAC_NAME>
[(3R,5S)-1-[(2S)-3-methyl-2-[[(2S)-3-methyl-2-(pyrazine-2-carbonylamino)butanoyl]amino]butanoyl]-5-[[(2S)-1-oxobutan-2-yl]carbamoyl]pyrrolidin-3-yl] N-(2-propan-2-ylphenyl)carbamate
> <PUBCHEM_IUPAC_SYSTEMATIC_NAME>
[(3R,5S)-1-[(2S)-3-methyl-2-[[(2S)-3-methyl-2-(pyrazin-2-ylcarbonylamino)butanoyl]amino]butanoyl]-5-[[(2S)-1-oxidanylidenebutan-2-yl]carbamoyl]pyrrolidin-3-yl] N-(2-propan-2-ylphenyl)carbamate
> <PUBCHEM_IUPAC_TRADITIONAL_NAME>
N-o-cumenylcarbamic acid [(3R,5S)-5-[[(1S)-1-formylpropyl]carbamoyl]-1-[(2S)-3-methyl-2-[[(2S)-3-methyl-2-(pyrazinoylamino)butanoyl]amino]butanoyl]pyrrolidin-3-yl] ester
> <PUBCHEM_IUPAC_INCHI>
InChI=1S/C34H47N7O7/c1-8-22(18-42)37-31(44)27-15-23(48-34(47)38-25-12-10-9-11-24(25)19(2)3)17-41(27)33(46)29(21(6)7)40-32(45)28(20(4)5)39-30(43)26-16-35-13-14-36-26/h9-14,16,18-23,27-29H,8,15,17H2,1-7H3,(H,37,44)(H,38,47)(H,39,43)(H,40,45)/t22-,23+,27-,28-,29-/m0/s1
> <PUBCHEM_IUPAC_INCHIKEY>
ALLMXLHBYUDEEC-AJRHGHNLSA-N
> <PUBCHEM_XLOGP3_AA>
3.4
> <PUBCHEM_EXACT_MASS>
665.35369686
> <PUBCHEM_MOLECULAR_FORMULA>
C34H47N7O7
> <PUBCHEM_MOLECULAR_WEIGHT>
665.8
> <PUBCHEM_OPENEYE_CAN_SMILES>
CCC(C=O)NC(=O)C1CC(CN1C(=O)C(C(C)C)NC(=O)C(C(C)C)NC(=O)C2=NC=CN=C2)OC(=O)NC3=CC=CC=C3C(C)C
> <PUBCHEM_OPENEYE_ISO_SMILES>
CC[C@@H](C=O)NC(=O)[C@@H]1C[C@H](CN1C(=O)[C@H](C(C)C)NC(=O)[C@H](C(C)C)NC(=O)C2=NC=CN=C2)OC(=O)NC3=CC=CC=C3C(C)C
> <PUBCHEM_CACTVS_TPSA>
189
> <PUBCHEM_MONOISOTOPIC_WEIGHT>
665.35369686
> <PUBCHEM_TOTAL_CHARGE>
0
> <PUBCHEM_HEAVY_ATOM_COUNT>
48
> <PUBCHEM_ATOM_DEF_STEREO_COUNT>
5
> <PUBCHEM_ATOM_UDEF_STEREO_COUNT>
0
> <PUBCHEM_BOND_DEF_STEREO_COUNT>
0
> <PUBCHEM_BOND_UDEF_STEREO_COUNT>
0
> <PUBCHEM_ISOTOPIC_ATOM_COUNT>
0
> <PUBCHEM_COMPONENT_COUNT>
1
> <PUBCHEM_CACTVS_TAUTO_COUNT>
-1
> <PUBCHEM_COORDINATE_TYPE>
1
5
255
> <PUBCHEM_BONDANNOTATIONS>
17  1  5
25  10  5
27  11  5
13  41  8
13  47  8
14  46  8
14  48  8
15  21  6
35  37  8
35  39  8
37  40  8
39  44  8
40  45  8
41  46  8
44  45  8
47  48  8
20  9  6
$$$$
