506687
  -OEChem-10302200282D
 83 84  0     1  0  0  0  0  0999 V2000
    8.1525   -1.4687    0.0000 O   0  0  0  0  0  0  0  0  0  0  0  0
    6.9081   -2.0227    0.0000 O   0  0  0  0  0  0  0  0  0  0  0  0
    4.3958    3.1654    0.0000 O   0  0  0  0  0  0  0  0  0  0  0  0
    4.2147    1.4428    0.0000 O   0  0  0  0  0  0  0  0  0  0  0  0
   10.7506    1.0313    0.0000 O   0  0  0  0  0  0  0  0  0  0  0  0
    3.8471   -3.9279    0.0000 O   0  0  0  0  0  0  0  0  0  0  0  0
   13.3486   -1.4687    0.0000 O   0  0  0  0  0  0  0  0  0  0  0  0
    7.2864    0.0313    0.0000 N   0  0  0  0  0  0  0  0  0  0  0  0
    5.7970    2.1473    0.0000 N   0  0  0  0  0  0  0  0  0  0  0  0
    9.8845   -0.4687    0.0000 N   0  0  0  0  0  0  0  0  0  0  0  0
    5.2139   -1.6626    0.0000 N   0  0  0  0  0  0  0  0  0  0  0  0
   12.4826    0.0313    0.0000 N   0  0  0  0  0  0  0  0  0  0  0  0
   15.0807   -0.4687    0.0000 N   0  0  0  0  0  0  0  0  0  0  0  0
   15.0807    1.5313    0.0000 N   0  0  0  0  0  0  0  0  0  0  0  0
    6.3729   -0.3754    0.0000 C   0  0  1  0  0  0  0  0  0  0  0  0
    6.2038    1.2338    0.0000 C   0  0  2  0  0  0  0  0  0  0  0  0
    5.7038    0.3677    0.0000 C   0  0  0  0  0  0  0  0  0  0  0  0
    7.1819    1.0259    0.0000 C   0  0  0  0  0  0  0  0  0  0  0  0
    8.1525   -0.4687    0.0000 C   0  0  0  0  0  0  0  0  0  0  0  0
    9.0185    0.0313    0.0000 C   0  0  2  0  0  0  0  0  0  0  0  0
    6.1650   -1.3536    0.0000 C   0  0  0  0  0  0  0  0  0  0  0  0
    9.0185    1.0313    0.0000 C   0  0  0  0  0  0  0  0  0  0  0  0
    9.8845    1.5313    0.0000 C   0  0  0  0  0  0  0  0  0  0  0  0
    8.1525    1.5313    0.0000 C   0  0  0  0  0  0  0  0  0  0  0  0
    5.0060   -2.6407    0.0000 C   0  0  1  0  0  0  0  0  0  0  0  0
    4.8025    2.2518    0.0000 C   0  0  0  0  0  0  0  0  0  0  0  0
   10.7506    0.0313    0.0000 C   0  0  0  0  0  0  0  0  0  0  0  0
   11.6166   -0.4687    0.0000 C   0  0  2  0  0  0  0  0  0  0  0  0
   11.6166   -1.4687    0.0000 C   0  0  0  0  0  0  0  0  0  0  0  0
    5.7492   -3.3098    0.0000 C   0  0  0  0  0  0  0  0  0  0  0  0
    4.0550   -2.9497    0.0000 C   0  0  0  0  0  0  0  0  0  0  0  0
   10.7506   -1.9687    0.0000 C   0  0  0  0  0  0  0  0  0  0  0  0
   12.4826   -1.9687    0.0000 C   0  0  0  0  0  0  0  0  0  0  0  0
    5.5413   -4.2880    0.0000 C   0  0  0  0  0  0  0  0  0  0  0  0
    3.4013    3.2699    0.0000 C   0  0  0  0  0  0  0  0  0  0  0  0
   13.3486   -0.4687    0.0000 C   0  0  0  0  0  0  0  0  0  0  0  0
   14.2147    0.0313    0.0000 C   0  0  0  0  0  0  0  0  0  0  0  0
    2.9945    4.1835    0.0000 C   0  0  0  0  0  0  0  0  0  0  0  0
   14.2147    1.0313    0.0000 C   0  0  0  0  0  0  0  0  0  0  0  0
    2.0000    4.2880    0.0000 C   0  0  0  0  0  0  0  0  0  0  0  0
   15.9467    0.0313    0.0000 C   0  0  0  0  0  0  0  0  0  0  0  0
   15.9467    1.0313    0.0000 C   0  0  0  0  0  0  0  0  0  0  0  0
    6.8547   -0.7656    0.0000 H   0  0  0  0  0  0  0  0  0  0  0  0
    5.5846    1.2662    0.0000 H   0  0  0  0  0  0  0  0  0  0  0  0
    5.2022    0.7322    0.0000 H   0  0  0  0  0  0  0  0  0  0  0  0
    5.2889   -0.0930    0.0000 H   0  0  0  0  0  0  0  0  0  0  0  0
    7.8019    1.0259    0.0000 H   0  0  0  0  0  0  0  0  0  0  0  0
    7.2467    1.6425    0.0000 H   0  0  0  0  0  0  0  0  0  0  0  0
    9.0185   -0.5887    0.0000 H   0  0  0  0  0  0  0  0  0  0  0  0
    6.1615    2.6489    0.0000 H   0  0  0  0  0  0  0  0  0  0  0  0
    8.4816    0.7213    0.0000 H   0  0  0  0  0  0  0  0  0  0  0  0
    9.8845   -1.0887    0.0000 H   0  0  0  0  0  0  0  0  0  0  0  0
    4.7532   -1.2477    0.0000 H   0  0  0  0  0  0  0  0  0  0  0  0
   10.1945    0.9944    0.0000 H   0  0  0  0  0  0  0  0  0  0  0  0
   10.4215    1.8413    0.0000 H   0  0  0  0  0  0  0  0  0  0  0  0
    9.5745    2.0683    0.0000 H   0  0  0  0  0  0  0  0  0  0  0  0
    8.4625    2.0683    0.0000 H   0  0  0  0  0  0  0  0  0  0  0  0
    7.6155    1.8413    0.0000 H   0  0  0  0  0  0  0  0  0  0  0  0
    7.8425    0.9944    0.0000 H   0  0  0  0  0  0  0  0  0  0  0  0
    4.5453   -2.2258    0.0000 H   0  0  0  0  0  0  0  0  0  0  0  0
   11.6166    0.1513    0.0000 H   0  0  0  0  0  0  0  0  0  0  0  0
   12.1535   -1.1587    0.0000 H   0  0  0  0  0  0  0  0  0  0  0  0
    6.3240   -3.5421    0.0000 H   0  0  0  0  0  0  0  0  0  0  0  0
    6.0777   -2.7840    0.0000 H   0  0  0  0  0  0  0  0  0  0  0  0
   12.4826    0.6513    0.0000 H   0  0  0  0  0  0  0  0  0  0  0  0
    3.5942   -2.5349    0.0000 H   0  0  0  0  0  0  0  0  0  0  0  0
   10.4406   -1.4317    0.0000 H   0  0  0  0  0  0  0  0  0  0  0  0
   10.2136   -2.2787    0.0000 H   0  0  0  0  0  0  0  0  0  0  0  0
   11.0606   -2.5056    0.0000 H   0  0  0  0  0  0  0  0  0  0  0  0
   12.1726   -2.5056    0.0000 H   0  0  0  0  0  0  0  0  0  0  0  0
   13.0195   -2.2787    0.0000 H   0  0  0  0  0  0  0  0  0  0  0  0
   12.7926   -1.4317    0.0000 H   0  0  0  0  0  0  0  0  0  0  0  0
    4.9348   -4.1591    0.0000 H   0  0  0  0  0  0  0  0  0  0  0  0
    5.4124   -4.8944    0.0000 H   0  0  0  0  0  0  0  0  0  0  0  0
    6.1477   -4.4169    0.0000 H   0  0  0  0  0  0  0  0  0  0  0  0
    2.7997    3.1199    0.0000 H   0  0  0  0  0  0  0  0  0  0  0  0
    3.4445    2.6514    0.0000 H   0  0  0  0  0  0  0  0  0  0  0  0
    3.3590    4.6851    0.0000 H   0  0  0  0  0  0  0  0  0  0  0  0
   13.6777    1.3413    0.0000 H   0  0  0  0  0  0  0  0  0  0  0  0
    1.7478    4.8544    0.0000 H   0  0  0  0  0  0  0  0  0  0  0  0
    1.6356    3.7864    0.0000 H   0  0  0  0  0  0  0  0  0  0  0  0
   16.4836   -0.2787    0.0000 H   0  0  0  0  0  0  0  0  0  0  0  0
   16.4836    1.3413    0.0000 H   0  0  0  0  0  0  0  0  0  0  0  0
  1 19  2  0  0  0  0
  2 21  2  0  0  0  0
  3 26  1  0  0  0  0
  3 35  1  0  0  0  0
  4 26  2  0  0  0  0
  5 27  2  0  0  0  0
  6 31  2  0  0  0  0
  7 36  2  0  0  0  0
  8 15  1  0  0  0  0
  8 18  1  0  0  0  0
  8 19  1  0  0  0  0
 16  9  1  1  0  0  0
  9 26  1  0  0  0  0
  9 50  1  0  0  0  0
 20 10  1  6  0  0  0
 10 27  1  0  0  0  0
 10 52  1  0  0  0  0
 11 21  1  0  0  0  0
 25 11  1  1  0  0  0
 11 53  1  0  0  0  0
 28 12  1  1  0  0  0
 12 36  1  0  0  0  0
 12 65  1  0  0  0  0
 13 37  2  0  0  0  0
 13 41  1  0  0  0  0
 14 39  2  0  0  0  0
 14 42  1  0  0  0  0
 15 17  1  0  0  0  0
 15 21  1  6  0  0  0
 15 43  1  0  0  0  0
 16 17  1  0  0  0  0
 16 18  1  0  0  0  0
 16 44  1  0  0  0  0
 17 45  1  0  0  0  0
 17 46  1  0  0  0  0
 18 47  1  0  0  0  0
 18 48  1  0  0  0  0
 19 20  1  0  0  0  0
 20 22  1  0  0  0  0
 20 49  1  0  0  0  0
 22 23  1  0  0  0  0
 22 24  1  0  0  0  0
 22 51  1  0  0  0  0
 23 54  1  0  0  0  0
 23 55  1  0  0  0  0
 23 56  1  0  0  0  0
 24 57  1  0  0  0  0
 24 58  1  0  0  0  0
 24 59  1  0  0  0  0
 25 30  1  0  0  0  0
 25 31  1  0  0  0  0
 25 60  1  0  0  0  0
 27 28  1  0  0  0  0
 28 29  1  0  0  0  0
 28 61  1  0  0  0  0
 29 32  1  0  0  0  0
 29 33  1  0  0  0  0
 29 62  1  0  0  0  0
 30 34  1  0  0  0  0
 30 63  1  0  0  0  0
 30 64  1  0  0  0  0
 31 66  1  0  0  0  0
 32 67  1  0  0  0  0
 32 68  1  0  0  0  0
 32 69  1  0  0  0  0
 33 70  1  0  0  0  0
 33 71  1  0  0  0  0
 33 72  1  0  0  0  0
 34 73  1  0  0  0  0
 34 74  1  0  0  0  0
 34 75  1  0  0  0  0
 35 38  1  0  0  0  0
 35 76  1  0  0  0  0
 35 77  1  0  0  0  0
 36 37  1  0  0  0  0
 37 39  1  0  0  0  0
 38 40  2  0  0  0  0
 38 78  1  0  0  0  0
 39 79  1  0  0  0  0
 40 80  1  0  0  0  0
 40 81  1  0  0  0  0
 41 42  2  0  0  0  0
 41 82  1  0  0  0  0
 42 83  1  0  0  0  0
M  END
> <PUBCHEM_COMPOUND_CID>
506687
> <PUBCHEM_COMPOUND_CANONICALIZED>
1
> <PUBCHEM_CACTVS_COMPLEXITY>
990
> <PUBCHEM_CACTVS_HBOND_ACCEPTOR>
9
> <PUBCHEM_CACTVS_HBOND_DONOR>
4
> <PUBCHEM_CACTVS_ROTATABLE_BOND>
15
> <PUBCHEM_CACTVS_SUBSKEYS>
AAADcfB7uAAAAAAAAAAAAAAAAAAAAWAAAAAsAAAAAAAAAAABgAAAHgAQAAAADSjhlgYuiBPIFACoAT133ACAgCQXEiAIUIG4dEEARFpA4SAcAIgAFgDAIMAcAQAIAAAAAAAAAAAAAAAAAAAAAAAAAAAAAA==
> <PUBCHEM_IUPAC_OPENEYE_NAME>
allyl N-[(3R,5S)-5-[[(1S)-1-formylpropyl]carbamoyl]-1-[(2S)-3-methyl-2-[[(2S)-3-methyl-2-(pyrazine-2-carbonylamino)butanoyl]amino]butanoyl]pyrrolidin-3-yl]carbamate
> <PUBCHEM_IUPAC_CAS_NAME>
N-[(3R,5S)-1-[(2S)-3-methyl-2-[[(2S)-3-methyl-1-oxo-2-[[oxo(2-pyrazinyl)methyl]amino]butyl]amino]-1-oxobutyl]-5-[oxo-[[(2S)-1-oxobutan-2-yl]amino]methyl]-3-pyrrolidinyl]carbamic acid prop-2-enyl ester
> <PUBCHEM_IUPAC_NAME_MARKUP>
prop-2-enyl <I>N</I>-[(3<I>R</I>,5<I>S</I>)-1-[(2<I>S</I>)-3-methyl-2-[[(2<I>S</I>)-3-methyl-2-(pyrazine-2-carbonylamino)butanoyl]amino]butanoyl]-5-[[(2<I>S</I>)-1-oxobutan-2-yl]carbamoyl]pyrrolidin-3-yl]carbamate
> <PUBCHEM_IUPAC_NAME>
prop-2-enyl N-[(3R,5S)-1-[(2S)-3-methyl-2-[[(2S)-3-methyl-2-(pyrazine-2-carbonylamino)butanoyl]amino]butanoyl]-5-[[(2S)-1-oxobutan-2-yl]carbamoyl]pyrrolidin-3-yl]carbamate
> <PUBCHEM_IUPAC_SYSTEMATIC_NAME>
prop-2-enyl N-[(3R,5S)-1-[(2S)-3-methyl-2-[[(2S)-3-methyl-2-(pyrazin-2-ylcarbonylamino)butanoyl]amino]butanoyl]-5-[[(2S)-1-oxidanylidenebutan-2-yl]carbamoyl]pyrrolidin-3-yl]carbamate
> <PUBCHEM_IUPAC_TRADITIONAL_NAME>
N-[(3R,5S)-5-[[(1S)-1-formylpropyl]carbamoyl]-1-[(2S)-3-methyl-2-[[(2S)-3-methyl-2-(pyrazinoylamino)butanoyl]amino]butanoyl]pyrrolidin-3-yl]carbamic acid allyl ester
> <PUBCHEM_IUPAC_INCHI>
InChI=1S/C28H41N7O7/c1-7-11-42-28(41)32-19-12-21(25(38)31-18(8-2)15-36)35(14-19)27(40)23(17(5)6)34-26(39)22(16(3)4)33-24(37)20-13-29-9-10-30-20/h7,9-10,13,15-19,21-23H,1,8,11-12,14H2,2-6H3,(H,31,38)(H,32,41)(H,33,37)(H,34,39)/t18-,19+,21-,22-,23-/m0/s1
> <PUBCHEM_IUPAC_INCHIKEY>
IFKBTSQDBXDSFE-HUMDQVGNSA-N
> <PUBCHEM_XLOGP3_AA>
1.4
> <PUBCHEM_EXACT_MASS>
587.30674667
> <PUBCHEM_MOLECULAR_FORMULA>
C28H41N7O7
> <PUBCHEM_MOLECULAR_WEIGHT>
587.7
> <PUBCHEM_OPENEYE_CAN_SMILES>
CCC(C=O)NC(=O)C1CC(CN1C(=O)C(C(C)C)NC(=O)C(C(C)C)NC(=O)C2=NC=CN=C2)NC(=O)OCC=C
> <PUBCHEM_OPENEYE_ISO_SMILES>
CC[C@@H](C=O)NC(=O)[C@@H]1C[C@H](CN1C(=O)[C@H](C(C)C)NC(=O)[C@H](C(C)C)NC(=O)C2=NC=CN=C2)NC(=O)OCC=C
> <PUBCHEM_CACTVS_TPSA>
189
> <PUBCHEM_MONOISOTOPIC_WEIGHT>
587.30674667
> <PUBCHEM_TOTAL_CHARGE>
0
> <PUBCHEM_HEAVY_ATOM_COUNT>
42
> <PUBCHEM_ATOM_DEF_STEREO_COUNT>
5
> <PUBCHEM_ATOM_UDEF_STEREO_COUNT>
0
> <PUBCHEM_BOND_DEF_STEREO_COUNT>
0
> <PUBCHEM_BOND_UDEF_STEREO_COUNT>
0
> <PUBCHEM_ISOTOPIC_ATOM_COUNT>
0
> <PUBCHEM_COMPONENT_COUNT>
1
> <PUBCHEM_CACTVS_TAUTO_COUNT>
-1
> <PUBCHEM_COORDINATE_TYPE>
1
5
255
> <PUBCHEM_BONDANNOTATIONS>
20  10  6
25  11  5
28  12  5
13  37  8
13  41  8
14  39  8
14  42  8
15  21  6
37  39  8
41  42  8
16  9  5
$$$$
