506675
  -OEChem-10302200282D
 89 91  0     1  0  0  0  0  0999 V2000
    6.2038    1.2860    0.0000 O   0  0  0  0  0  0  0  0  0  0  0  0
    8.5592   -2.3300    0.0000 O   0  0  0  0  0  0  0  0  0  0  0  0
    7.3149   -2.8840    0.0000 O   0  0  0  0  0  0  0  0  0  0  0  0
   11.1573    0.1701    0.0000 O   0  0  0  0  0  0  0  0  0  0  0  0
    4.6215    0.5815    0.0000 O   0  0  0  0  0  0  0  0  0  0  0  0
    4.2538   -4.7892    0.0000 O   0  0  0  0  0  0  0  0  0  0  0  0
   13.7554   -2.3300    0.0000 O   0  0  0  0  0  0  0  0  0  0  0  0
    7.6932   -0.8299    0.0000 N   0  0  0  0  0  0  0  0  0  0  0  0
   10.2913   -1.3300    0.0000 N   0  0  0  0  0  0  0  0  0  0  0  0
    5.6207   -2.5238    0.0000 N   0  0  0  0  0  0  0  0  0  0  0  0
   12.8893   -0.8299    0.0000 N   0  0  0  0  0  0  0  0  0  0  0  0
    4.8025    2.3041    0.0000 N   0  0  0  0  0  0  0  0  0  0  0  0
   15.4874   -1.3300    0.0000 N   0  0  0  0  0  0  0  0  0  0  0  0
   15.4874    0.6701    0.0000 N   0  0  0  0  0  0  0  0  0  0  0  0
    6.7796   -1.2367    0.0000 C   0  0  1  0  0  0  0  0  0  0  0  0
    6.1105   -0.4935    0.0000 C   0  0  0  0  0  0  0  0  0  0  0  0
    6.6105    0.3725    0.0000 C   0  0  2  0  0  0  0  0  0  0  0  0
    7.5887    0.1646    0.0000 C   0  0  0  0  0  0  0  0  0  0  0  0
    8.5592   -1.3300    0.0000 C   0  0  0  0  0  0  0  0  0  0  0  0
    9.4252   -0.8299    0.0000 C   0  0  2  0  0  0  0  0  0  0  0  0
    6.5717   -2.2148    0.0000 C   0  0  0  0  0  0  0  0  0  0  0  0
    9.4252    0.1701    0.0000 C   0  0  0  0  0  0  0  0  0  0  0  0
   10.2913    0.6701    0.0000 C   0  0  0  0  0  0  0  0  0  0  0  0
    8.5592    0.6701    0.0000 C   0  0  0  0  0  0  0  0  0  0  0  0
    5.4128   -3.5020    0.0000 C   0  0  1  0  0  0  0  0  0  0  0  0
   11.1573   -0.8299    0.0000 C   0  0  0  0  0  0  0  0  0  0  0  0
   12.0233   -1.3300    0.0000 C   0  0  2  0  0  0  0  0  0  0  0  0
    5.2092    1.3906    0.0000 C   0  0  0  0  0  0  0  0  0  0  0  0
   12.0233   -2.3300    0.0000 C   0  0  0  0  0  0  0  0  0  0  0  0
    6.1559   -4.1711    0.0000 C   0  0  0  0  0  0  0  0  0  0  0  0
    4.4617   -3.8110    0.0000 C   0  0  0  0  0  0  0  0  0  0  0  0
   11.1573   -2.8300    0.0000 C   0  0  0  0  0  0  0  0  0  0  0  0
   12.8893   -2.8300    0.0000 C   0  0  0  0  0  0  0  0  0  0  0  0
    5.9480   -5.1493    0.0000 C   0  0  0  0  0  0  0  0  0  0  0  0
    3.8080    2.4086    0.0000 C   0  0  0  0  0  0  0  0  0  0  0  0
   13.7554   -1.3300    0.0000 C   0  0  0  0  0  0  0  0  0  0  0  0
    3.4013    3.3222    0.0000 C   0  0  0  0  0  0  0  0  0  0  0  0
   14.6214   -0.8299    0.0000 C   0  0  0  0  0  0  0  0  0  0  0  0
    2.4067    3.4267    0.0000 C   0  0  0  0  0  0  0  0  0  0  0  0
    3.9890    4.1312    0.0000 C   0  0  0  0  0  0  0  0  0  0  0  0
   14.6214    0.1701    0.0000 C   0  0  0  0  0  0  0  0  0  0  0  0
    2.0000    4.3403    0.0000 C   0  0  0  0  0  0  0  0  0  0  0  0
    3.5823    5.0447    0.0000 C   0  0  0  0  0  0  0  0  0  0  0  0
    2.5878    5.1493    0.0000 C   0  0  0  0  0  0  0  0  0  0  0  0
   16.3534   -0.8299    0.0000 C   0  0  0  0  0  0  0  0  0  0  0  0
   16.3534    0.1701    0.0000 C   0  0  0  0  0  0  0  0  0  0  0  0
    7.2615   -1.6269    0.0000 H   0  0  0  0  0  0  0  0  0  0  0  0
    5.6089   -0.1291    0.0000 H   0  0  0  0  0  0  0  0  0  0  0  0
    5.6956   -0.9543    0.0000 H   0  0  0  0  0  0  0  0  0  0  0  0
    7.0007    0.8543    0.0000 H   0  0  0  0  0  0  0  0  0  0  0  0
    8.2087    0.1646    0.0000 H   0  0  0  0  0  0  0  0  0  0  0  0
    7.6535    0.7812    0.0000 H   0  0  0  0  0  0  0  0  0  0  0  0
    9.4252   -1.4500    0.0000 H   0  0  0  0  0  0  0  0  0  0  0  0
    9.9622   -0.1399    0.0000 H   0  0  0  0  0  0  0  0  0  0  0  0
   10.2913   -1.9500    0.0000 H   0  0  0  0  0  0  0  0  0  0  0  0
    5.1599   -2.1090    0.0000 H   0  0  0  0  0  0  0  0  0  0  0  0
   10.6013    0.1331    0.0000 H   0  0  0  0  0  0  0  0  0  0  0  0
   10.8282    0.9801    0.0000 H   0  0  0  0  0  0  0  0  0  0  0  0
    9.9813    1.2070    0.0000 H   0  0  0  0  0  0  0  0  0  0  0  0
    8.8692    1.2070    0.0000 H   0  0  0  0  0  0  0  0  0  0  0  0
    8.0223    0.9801    0.0000 H   0  0  0  0  0  0  0  0  0  0  0  0
    8.2492    0.1331    0.0000 H   0  0  0  0  0  0  0  0  0  0  0  0
    6.0024   -3.3104    0.0000 H   0  0  0  0  0  0  0  0  0  0  0  0
   12.0233   -0.7099    0.0000 H   0  0  0  0  0  0  0  0  0  0  0  0
   12.5603   -2.0200    0.0000 H   0  0  0  0  0  0  0  0  0  0  0  0
    6.7308   -4.4034    0.0000 H   0  0  0  0  0  0  0  0  0  0  0  0
    6.4845   -3.6453    0.0000 H   0  0  0  0  0  0  0  0  0  0  0  0
   12.8893   -0.2099    0.0000 H   0  0  0  0  0  0  0  0  0  0  0  0
    4.0010   -3.3962    0.0000 H   0  0  0  0  0  0  0  0  0  0  0  0
    5.1669    2.8057    0.0000 H   0  0  0  0  0  0  0  0  0  0  0  0
   10.8473   -2.2930    0.0000 H   0  0  0  0  0  0  0  0  0  0  0  0
   10.6204   -3.1399    0.0000 H   0  0  0  0  0  0  0  0  0  0  0  0
   11.4673   -3.3669    0.0000 H   0  0  0  0  0  0  0  0  0  0  0  0
   12.5793   -3.3669    0.0000 H   0  0  0  0  0  0  0  0  0  0  0  0
   13.4263   -3.1399    0.0000 H   0  0  0  0  0  0  0  0  0  0  0  0
   13.1993   -2.2930    0.0000 H   0  0  0  0  0  0  0  0  0  0  0  0
    5.3415   -5.0204    0.0000 H   0  0  0  0  0  0  0  0  0  0  0  0
    5.8191   -5.7557    0.0000 H   0  0  0  0  0  0  0  0  0  0  0  0
    6.5544   -5.2782    0.0000 H   0  0  0  0  0  0  0  0  0  0  0  0
    3.2064    2.2586    0.0000 H   0  0  0  0  0  0  0  0  0  0  0  0
    3.8512    1.7902    0.0000 H   0  0  0  0  0  0  0  0  0  0  0  0
    2.0423    2.9251    0.0000 H   0  0  0  0  0  0  0  0  0  0  0  0
    4.6056    4.0664    0.0000 H   0  0  0  0  0  0  0  0  0  0  0  0
   14.0845    0.4801    0.0000 H   0  0  0  0  0  0  0  0  0  0  0  0
    1.3834    4.4051    0.0000 H   0  0  0  0  0  0  0  0  0  0  0  0
    3.9467    5.5463    0.0000 H   0  0  0  0  0  0  0  0  0  0  0  0
    2.3356    5.7157    0.0000 H   0  0  0  0  0  0  0  0  0  0  0  0
   16.8904   -1.1400    0.0000 H   0  0  0  0  0  0  0  0  0  0  0  0
   16.8904    0.4801    0.0000 H   0  0  0  0  0  0  0  0  0  0  0  0
 17  1  1  1  0  0  0
  1 28  1  0  0  0  0
  2 19  2  0  0  0  0
  3 21  2  0  0  0  0
  4 26  2  0  0  0  0
  5 28  2  0  0  0  0
  6 31  2  0  0  0  0
  7 36  2  0  0  0  0
  8 15  1  0  0  0  0
  8 18  1  0  0  0  0
  8 19  1  0  0  0  0
 20  9  1  6  0  0  0
  9 26  1  0  0  0  0
  9 55  1  0  0  0  0
 10 21  1  0  0  0  0
 25 10  1  1  0  0  0
 10 56  1  0  0  0  0
 27 11  1  1  0  0  0
 11 36  1  0  0  0  0
 11 68  1  0  0  0  0
 12 28  1  0  0  0  0
 12 35  1  0  0  0  0
 12 70  1  0  0  0  0
 13 38  2  0  0  0  0
 13 45  1  0  0  0  0
 14 41  2  0  0  0  0
 14 46  1  0  0  0  0
 15 16  1  0  0  0  0
 15 21  1  6  0  0  0
 15 47  1  0  0  0  0
 16 17  1  0  0  0  0
 16 48  1  0  0  0  0
 16 49  1  0  0  0  0
 17 18  1  0  0  0  0
 17 50  1  0  0  0  0
 18 51  1  0  0  0  0
 18 52  1  0  0  0  0
 19 20  1  0  0  0  0
 20 22  1  0  0  0  0
 20 53  1  0  0  0  0
 22 23  1  0  0  0  0
 22 24  1  0  0  0  0
 22 54  1  0  0  0  0
 23 57  1  0  0  0  0
 23 58  1  0  0  0  0
 23 59  1  0  0  0  0
 24 60  1  0  0  0  0
 24 61  1  0  0  0  0
 24 62  1  0  0  0  0
 25 30  1  0  0  0  0
 25 31  1  0  0  0  0
 25 63  1  0  0  0  0
 26 27  1  0  0  0  0
 27 29  1  0  0  0  0
 27 64  1  0  0  0  0
 29 32  1  0  0  0  0
 29 33  1  0  0  0  0
 29 65  1  0  0  0  0
 30 34  1  0  0  0  0
 30 66  1  0  0  0  0
 30 67  1  0  0  0  0
 31 69  1  0  0  0  0
 32 71  1  0  0  0  0
 32 72  1  0  0  0  0
 32 73  1  0  0  0  0
 33 74  1  0  0  0  0
 33 75  1  0  0  0  0
 33 76  1  0  0  0  0
 34 77  1  0  0  0  0
 34 78  1  0  0  0  0
 34 79  1  0  0  0  0
 35 37  1  0  0  0  0
 35 80  1  0  0  0  0
 35 81  1  0  0  0  0
 36 38  1  0  0  0  0
 37 39  2  0  0  0  0
 37 40  1  0  0  0  0
 38 41  1  0  0  0  0
 39 42  1  0  0  0  0
 39 82  1  0  0  0  0
 40 43  2  0  0  0  0
 40 83  1  0  0  0  0
 41 84  1  0  0  0  0
 42 44  2  0  0  0  0
 42 85  1  0  0  0  0
 43 44  1  0  0  0  0
 43 86  1  0  0  0  0
 44 87  1  0  0  0  0
 45 46  2  0  0  0  0
 45 88  1  0  0  0  0
 46 89  1  0  0  0  0
M  END
> <PUBCHEM_COMPOUND_CID>
506675
> <PUBCHEM_COMPOUND_CANONICALIZED>
1
> <PUBCHEM_CACTVS_COMPLEXITY>
1070
> <PUBCHEM_CACTVS_HBOND_ACCEPTOR>
9
> <PUBCHEM_CACTVS_HBOND_DONOR>
4
> <PUBCHEM_CACTVS_ROTATABLE_BOND>
15
> <PUBCHEM_CACTVS_SUBSKEYS>
AAADcfB/uAAAAAAAAAAAAAAAAAAAAWAAAAA8QAAAAAAAAAABwAAAHgAQAAAADTzhngY+iJPIFACoAz133ACCgCQ3EiAI2IG4dMkKYHrA0TGdIIhmlgDYiMc6gQAOAAAAAAAAAAAAAAAAAAAAAAAAAAAAAA==
> <PUBCHEM_IUPAC_OPENEYE_NAME>
[(3R,5S)-5-[[(1S)-1-formylpropyl]carbamoyl]-1-[(2S)-3-methyl-2-[[(2S)-3-methyl-2-(pyrazine-2-carbonylamino)butanoyl]amino]butanoyl]pyrrolidin-3-yl] N-benzylcarbamate
> <PUBCHEM_IUPAC_CAS_NAME>
N-(phenylmethyl)carbamic acid [(3R,5S)-1-[(2S)-3-methyl-2-[[(2S)-3-methyl-1-oxo-2-[[oxo(2-pyrazinyl)methyl]amino]butyl]amino]-1-oxobutyl]-5-[oxo-[[(2S)-1-oxobutan-2-yl]amino]methyl]-3-pyrrolidinyl] ester
> <PUBCHEM_IUPAC_NAME_MARKUP>
[(3<I>R</I>,5<I>S</I>)-1-[(2<I>S</I>)-3-methyl-2-[[(2<I>S</I>)-3-methyl-2-(pyrazine-2-carbonylamino)butanoyl]amino]butanoyl]-5-[[(2<I>S</I>)-1-oxobutan-2-yl]carbamoyl]pyrrolidin-3-yl] <I>N</I>-benzylcarbamate
> <PUBCHEM_IUPAC_NAME>
[(3R,5S)-1-[(2S)-3-methyl-2-[[(2S)-3-methyl-2-(pyrazine-2-carbonylamino)butanoyl]amino]butanoyl]-5-[[(2S)-1-oxobutan-2-yl]carbamoyl]pyrrolidin-3-yl] N-benzylcarbamate
> <PUBCHEM_IUPAC_SYSTEMATIC_NAME>
[(3R,5S)-1-[(2S)-3-methyl-2-[[(2S)-3-methyl-2-(pyrazin-2-ylcarbonylamino)butanoyl]amino]butanoyl]-5-[[(2S)-1-oxidanylidenebutan-2-yl]carbamoyl]pyrrolidin-3-yl] N-(phenylmethyl)carbamate
> <PUBCHEM_IUPAC_TRADITIONAL_NAME>
N-benzylcarbamic acid [(3R,5S)-5-[[(1S)-1-formylpropyl]carbamoyl]-1-[(2S)-3-methyl-2-[[(2S)-3-methyl-2-(pyrazinoylamino)butanoyl]amino]butanoyl]pyrrolidin-3-yl] ester
> <PUBCHEM_IUPAC_INCHI>
InChI=1S/C32H43N7O7/c1-6-22(18-40)36-29(42)25-14-23(46-32(45)35-15-21-10-8-7-9-11-21)17-39(25)31(44)27(20(4)5)38-30(43)26(19(2)3)37-28(41)24-16-33-12-13-34-24/h7-13,16,18-20,22-23,25-27H,6,14-15,17H2,1-5H3,(H,35,45)(H,36,42)(H,37,41)(H,38,43)/t22-,23+,25-,26-,27-/m0/s1
> <PUBCHEM_IUPAC_INCHIKEY>
GDWJSFWBIJBEQP-BILQSEOESA-N
> <PUBCHEM_XLOGP3_AA>
2.2
> <PUBCHEM_EXACT_MASS>
637.32239674
> <PUBCHEM_MOLECULAR_FORMULA>
C32H43N7O7
> <PUBCHEM_MOLECULAR_WEIGHT>
637.7
> <PUBCHEM_OPENEYE_CAN_SMILES>
CCC(C=O)NC(=O)C1CC(CN1C(=O)C(C(C)C)NC(=O)C(C(C)C)NC(=O)C2=NC=CN=C2)OC(=O)NCC3=CC=CC=C3
> <PUBCHEM_OPENEYE_ISO_SMILES>
CC[C@@H](C=O)NC(=O)[C@@H]1C[C@H](CN1C(=O)[C@H](C(C)C)NC(=O)[C@H](C(C)C)NC(=O)C2=NC=CN=C2)OC(=O)NCC3=CC=CC=C3
> <PUBCHEM_CACTVS_TPSA>
189
> <PUBCHEM_MONOISOTOPIC_WEIGHT>
637.32239674
> <PUBCHEM_TOTAL_CHARGE>
0
> <PUBCHEM_HEAVY_ATOM_COUNT>
46
> <PUBCHEM_ATOM_DEF_STEREO_COUNT>
5
> <PUBCHEM_ATOM_UDEF_STEREO_COUNT>
0
> <PUBCHEM_BOND_DEF_STEREO_COUNT>
0
> <PUBCHEM_BOND_UDEF_STEREO_COUNT>
0
> <PUBCHEM_ISOTOPIC_ATOM_COUNT>
0
> <PUBCHEM_COMPONENT_COUNT>
1
> <PUBCHEM_CACTVS_TAUTO_COUNT>
-1
> <PUBCHEM_COORDINATE_TYPE>
1
5
255
> <PUBCHEM_BONDANNOTATIONS>
17  1  5
25  10  5
27  11  5
13  38  8
13  45  8
14  41  8
14  46  8
15  21  6
37  39  8
37  40  8
38  41  8
39  42  8
40  43  8
42  44  8
43  44  8
45  46  8
20  9  6
$$$$
