506635
  -OEChem-10302200282D
 89 91  0     1  0  0  0  0  0999 V2000
   11.5249    6.1086    0.0000 F   0  0  0  0  0  0  0  0  0  0  0  0
   11.8909    7.4746    0.0000 F   0  0  0  0  0  0  0  0  0  0  0  0
   10.5249    7.8406    0.0000 F   0  0  0  0  0  0  0  0  0  0  0  0
    8.4268    2.4746    0.0000 O   0  0  0  0  0  0  0  0  0  0  0  0
    5.0768   -0.2459    0.0000 O   0  0  0  0  0  0  0  0  0  0  0  0
    4.3958    0.9337    0.0000 O   0  0  0  0  0  0  0  0  0  0  0  0
    7.8347   -2.5684    0.0000 O   0  0  0  0  0  0  0  0  0  0  0  0
    2.1810    3.7789    0.0000 O   0  0  0  0  0  0  0  0  0  0  0  0
   10.1588    6.4746    0.0000 O   0  0  0  0  0  0  0  0  0  0  0  0
    5.6200   -5.4136    0.0000 O   0  0  0  0  0  0  0  0  0  0  0  0
    6.4781    0.7722    0.0000 N   0  0  0  0  0  0  0  0  0  0  0  0
    6.2524   -1.8639    0.0000 N   0  0  0  0  0  0  0  0  0  0  0  0
    4.5768    2.6563    0.0000 N   0  0  0  0  0  0  0  0  0  0  0  0
    7.0212   -4.3955    0.0000 N   0  0  0  0  0  0  0  0  0  0  0  0
    8.1968   -6.0135    0.0000 N   0  0  0  0  0  0  0  0  0  0  0  0
    7.3833   -7.8406    0.0000 N   0  0  0  0  0  0  0  0  0  0  0  0
    5.9781    1.6382    0.0000 C   0  0  1  0  0  0  0  0  0  0  0  0
    7.5608    1.9746    0.0000 C   0  0  2  0  0  0  0  0  0  0  0  0
    6.6472    2.3814    0.0000 C   0  0  0  0  0  0  0  0  0  0  0  0
    7.4562    0.9801    0.0000 C   0  0  0  0  0  0  0  0  0  0  0  0
    6.0714   -0.1414    0.0000 C   0  0  0  0  0  0  0  0  0  0  0  0
    6.6591   -0.9504    0.0000 C   0  0  2  0  0  0  0  0  0  0  0  0
    4.9836    1.7427    0.0000 C   0  0  0  0  0  0  0  0  0  0  0  0
    7.6537   -0.8459    0.0000 C   0  0  0  0  0  0  0  0  0  0  0  0
    8.4268    3.4746    0.0000 C   0  0  0  0  0  0  0  0  0  0  0  0
    8.2414   -1.6549    0.0000 C   0  0  0  0  0  0  0  0  0  0  0  0
    8.0604    0.0677    0.0000 C   0  0  0  0  0  0  0  0  0  0  0  0
    3.5823    2.7608    0.0000 C   0  0  1  0  0  0  0  0  0  0  0  0
    6.8402   -2.6730    0.0000 C   0  0  0  0  0  0  0  0  0  0  0  0
    6.4334   -3.5865    0.0000 C   0  0  2  0  0  0  0  0  0  0  0  0
    5.4389   -3.6910    0.0000 C   0  0  0  0  0  0  0  0  0  0  0  0
    9.2928    3.9746    0.0000 C   0  0  0  0  0  0  0  0  0  0  0  0
    2.9945    1.9518    0.0000 C   0  0  0  0  0  0  0  0  0  0  0  0
    3.1756    3.6744    0.0000 C   0  0  0  0  0  0  0  0  0  0  0  0
    5.0322   -4.6046    0.0000 C   0  0  0  0  0  0  0  0  0  0  0  0
    4.8511   -2.8820    0.0000 C   0  0  0  0  0  0  0  0  0  0  0  0
    2.0000    2.0563    0.0000 C   0  0  0  0  0  0  0  0  0  0  0  0
    9.2928    4.9746    0.0000 C   0  0  0  0  0  0  0  0  0  0  0  0
   10.1588    3.4746    0.0000 C   0  0  0  0  0  0  0  0  0  0  0  0
    6.6145   -5.3091    0.0000 C   0  0  0  0  0  0  0  0  0  0  0  0
   10.1588    5.4746    0.0000 C   0  0  0  0  0  0  0  0  0  0  0  0
   11.0249    3.9746    0.0000 C   0  0  0  0  0  0  0  0  0  0  0  0
   11.0249    4.9746    0.0000 C   0  0  0  0  0  0  0  0  0  0  0  0
    7.2023   -6.1181    0.0000 C   0  0  0  0  0  0  0  0  0  0  0  0
    6.7956   -7.0316    0.0000 C   0  0  0  0  0  0  0  0  0  0  0  0
   11.0249    6.9746    0.0000 C   0  0  0  0  0  0  0  0  0  0  0  0
    8.7846   -6.8226    0.0000 C   0  0  0  0  0  0  0  0  0  0  0  0
    8.3778   -7.7361    0.0000 C   0  0  0  0  0  0  0  0  0  0  0  0
    5.6404    1.1182    0.0000 H   0  0  0  0  0  0  0  0  0  0  0  0
    8.0807    1.6369    0.0000 H   0  0  0  0  0  0  0  0  0  0  0  0
    6.9572    2.9183    0.0000 H   0  0  0  0  0  0  0  0  0  0  0  0
    6.1456    2.7458    0.0000 H   0  0  0  0  0  0  0  0  0  0  0  0
    7.5210    0.3635    0.0000 H   0  0  0  0  0  0  0  0  0  0  0  0
    8.0762    0.9801    0.0000 H   0  0  0  0  0  0  0  0  0  0  0  0
    6.0425   -1.0152    0.0000 H   0  0  0  0  0  0  0  0  0  0  0  0
    7.4015   -1.4123    0.0000 H   0  0  0  0  0  0  0  0  0  0  0  0
    5.6358   -1.9287    0.0000 H   0  0  0  0  0  0  0  0  0  0  0  0
    4.9413    3.1579    0.0000 H   0  0  0  0  0  0  0  0  0  0  0  0
    8.2147    4.0572    0.0000 H   0  0  0  0  0  0  0  0  0  0  0  0
    7.8162    3.3670    0.0000 H   0  0  0  0  0  0  0  0  0  0  0  0
    7.7398   -2.0193    0.0000 H   0  0  0  0  0  0  0  0  0  0  0  0
    8.6059   -2.1565    0.0000 H   0  0  0  0  0  0  0  0  0  0  0  0
    8.7430   -1.2905    0.0000 H   0  0  0  0  0  0  0  0  0  0  0  0
    8.6268   -0.1845    0.0000 H   0  0  0  0  0  0  0  0  0  0  0  0
    8.3126    0.6341    0.0000 H   0  0  0  0  0  0  0  0  0  0  0  0
    7.4940    0.3199    0.0000 H   0  0  0  0  0  0  0  0  0  0  0  0
    3.8345    2.1944    0.0000 H   0  0  0  0  0  0  0  0  0  0  0  0
    7.0500   -3.5217    0.0000 H   0  0  0  0  0  0  0  0  0  0  0  0
    4.8223   -3.7558    0.0000 H   0  0  0  0  0  0  0  0  0  0  0  0
    2.8236    1.3558    0.0000 H   0  0  0  0  0  0  0  0  0  0  0  0
    3.5518    1.6800    0.0000 H   0  0  0  0  0  0  0  0  0  0  0  0
    7.6378   -4.3307    0.0000 H   0  0  0  0  0  0  0  0  0  0  0  0
    3.5400    4.1759    0.0000 H   0  0  0  0  0  0  0  0  0  0  0  0
    4.4658   -4.3524    0.0000 H   0  0  0  0  0  0  0  0  0  0  0  0
    4.7800   -5.1710    0.0000 H   0  0  0  0  0  0  0  0  0  0  0  0
    5.5986   -4.8567    0.0000 H   0  0  0  0  0  0  0  0  0  0  0  0
    5.3527   -2.5176    0.0000 H   0  0  0  0  0  0  0  0  0  0  0  0
    4.4867   -2.3804    0.0000 H   0  0  0  0  0  0  0  0  0  0  0  0
    4.3496   -3.2464    0.0000 H   0  0  0  0  0  0  0  0  0  0  0  0
    2.0648    2.6729    0.0000 H   0  0  0  0  0  0  0  0  0  0  0  0
    1.3834    2.1211    0.0000 H   0  0  0  0  0  0  0  0  0  0  0  0
    1.9352    1.4397    0.0000 H   0  0  0  0  0  0  0  0  0  0  0  0
    8.7559    5.2846    0.0000 H   0  0  0  0  0  0  0  0  0  0  0  0
   10.1588    2.8546    0.0000 H   0  0  0  0  0  0  0  0  0  0  0  0
   11.5618    3.6646    0.0000 H   0  0  0  0  0  0  0  0  0  0  0  0
   11.5618    5.2846    0.0000 H   0  0  0  0  0  0  0  0  0  0  0  0
    6.1789   -7.0964    0.0000 H   0  0  0  0  0  0  0  0  0  0  0  0
    9.4012   -6.7578    0.0000 H   0  0  0  0  0  0  0  0  0  0  0  0
    8.7423   -8.2377    0.0000 H   0  0  0  0  0  0  0  0  0  0  0  0
  1 46  1  0  0  0  0
  2 46  1  0  0  0  0
  3 46  1  0  0  0  0
 18  4  1  1  0  0  0
  4 25  1  0  0  0  0
  5 21  2  0  0  0  0
  6 23  2  0  0  0  0
  7 29  2  0  0  0  0
  8 34  2  0  0  0  0
  9 41  1  0  0  0  0
  9 46  1  0  0  0  0
 10 40  2  0  0  0  0
 11 17  1  0  0  0  0
 11 20  1  0  0  0  0
 11 21  1  0  0  0  0
 22 12  1  6  0  0  0
 12 29  1  0  0  0  0
 12 57  1  0  0  0  0
 13 23  1  0  0  0  0
 28 13  1  1  0  0  0
 13 58  1  0  0  0  0
 30 14  1  1  0  0  0
 14 40  1  0  0  0  0
 14 72  1  0  0  0  0
 15 44  2  0  0  0  0
 15 47  1  0  0  0  0
 16 45  2  0  0  0  0
 16 48  1  0  0  0  0
 17 19  1  0  0  0  0
 17 23  1  6  0  0  0
 17 49  1  0  0  0  0
 18 19  1  0  0  0  0
 18 20  1  0  0  0  0
 18 50  1  0  0  0  0
 19 51  1  0  0  0  0
 19 52  1  0  0  0  0
 20 53  1  0  0  0  0
 20 54  1  0  0  0  0
 21 22  1  0  0  0  0
 22 24  1  0  0  0  0
 22 55  1  0  0  0  0
 24 26  1  0  0  0  0
 24 27  1  0  0  0  0
 24 56  1  0  0  0  0
 25 32  1  0  0  0  0
 25 59  1  0  0  0  0
 25 60  1  0  0  0  0
 26 61  1  0  0  0  0
 26 62  1  0  0  0  0
 26 63  1  0  0  0  0
 27 64  1  0  0  0  0
 27 65  1  0  0  0  0
 27 66  1  0  0  0  0
 28 33  1  0  0  0  0
 28 34  1  0  0  0  0
 28 67  1  0  0  0  0
 29 30  1  0  0  0  0
 30 31  1  0  0  0  0
 30 68  1  0  0  0  0
 31 35  1  0  0  0  0
 31 36  1  0  0  0  0
 31 69  1  0  0  0  0
 32 38  2  0  0  0  0
 32 39  1  0  0  0  0
 33 37  1  0  0  0  0
 33 70  1  0  0  0  0
 33 71  1  0  0  0  0
 34 73  1  0  0  0  0
 35 74  1  0  0  0  0
 35 75  1  0  0  0  0
 35 76  1  0  0  0  0
 36 77  1  0  0  0  0
 36 78  1  0  0  0  0
 36 79  1  0  0  0  0
 37 80  1  0  0  0  0
 37 81  1  0  0  0  0
 37 82  1  0  0  0  0
 38 41  1  0  0  0  0
 38 83  1  0  0  0  0
 39 42  2  0  0  0  0
 39 84  1  0  0  0  0
 40 44  1  0  0  0  0
 41 43  2  0  0  0  0
 42 43  1  0  0  0  0
 42 85  1  0  0  0  0
 43 86  1  0  0  0  0
 44 45  1  0  0  0  0
 45 87  1  0  0  0  0
 47 48  2  0  0  0  0
 47 88  1  0  0  0  0
 48 89  1  0  0  0  0
M  END
> <PUBCHEM_COMPOUND_CID>
506635
> <PUBCHEM_COMPOUND_CANONICALIZED>
1
> <PUBCHEM_CACTVS_COMPLEXITY>
1110
> <PUBCHEM_CACTVS_HBOND_ACCEPTOR>
12
> <PUBCHEM_CACTVS_HBOND_DONOR>
3
> <PUBCHEM_CACTVS_ROTATABLE_BOND>
15
> <PUBCHEM_CACTVS_SUBSKEYS>
AAADcfB/uYAAAAAAAAAAAAAAAAAAAWAAAAA8QAAAAAAAAAABwAAAHwAQAAAADTzhnhY+hpPIFACoAz131ACCiCQ3MiAI2IG+fMgOZnrE8TqXMKgm1hHYqMf6wTAOAAABAAAAAAAAAAIAAAAAAAAAAAAAAA==
> <PUBCHEM_IUPAC_OPENEYE_NAME>
N-[(1S)-1-[[(1S)-1-[(2S,4R)-2-[[(1S)-1-formylpropyl]carbamoyl]-4-[[3-(trifluoromethoxy)phenyl]methoxy]pyrrolidine-1-carbonyl]-2-methyl-propyl]carbamoyl]-2-methyl-propyl]pyrazine-2-carboxamide
> <PUBCHEM_IUPAC_CAS_NAME>
N-[(2S)-3-methyl-1-[[(2S)-3-methyl-1-oxo-1-[(2S,4R)-2-[oxo-[[(2S)-1-oxobutan-2-yl]amino]methyl]-4-[[3-(trifluoromethoxy)phenyl]methoxy]-1-pyrrolidinyl]butan-2-yl]amino]-1-oxobutan-2-yl]-2-pyrazinecarboxamide
> <PUBCHEM_IUPAC_NAME_MARKUP>
<I>N</I>-[(2<I>S</I>)-3-methyl-1-[[(2<I>S</I>)-3-methyl-1-oxo-1-[(2<I>S</I>,4<I>R</I>)-2-[[(2<I>S</I>)-1-oxobutan-2-yl]carbamoyl]-4-[[3-(trifluoromethoxy)phenyl]methoxy]pyrrolidin-1-yl]butan-2-yl]amino]-1-oxobutan-2-yl]pyrazine-2-carboxamide
> <PUBCHEM_IUPAC_NAME>
N-[(2S)-3-methyl-1-[[(2S)-3-methyl-1-oxo-1-[(2S,4R)-2-[[(2S)-1-oxobutan-2-yl]carbamoyl]-4-[[3-(trifluoromethoxy)phenyl]methoxy]pyrrolidin-1-yl]butan-2-yl]amino]-1-oxobutan-2-yl]pyrazine-2-carboxamide
> <PUBCHEM_IUPAC_SYSTEMATIC_NAME>
N-[(2S)-3-methyl-1-[[(2S)-3-methyl-1-oxidanylidene-1-[(2S,4R)-2-[[(2S)-1-oxidanylidenebutan-2-yl]carbamoyl]-4-[[3-(trifluoromethyloxy)phenyl]methoxy]pyrrolidin-1-yl]butan-2-yl]amino]-1-oxidanylidene-butan-2-yl]pyrazine-2-carboxamide
> <PUBCHEM_IUPAC_TRADITIONAL_NAME>
N-[(1S)-1-[[(1S)-1-[(2S,4R)-2-[[(1S)-1-formylpropyl]carbamoyl]-4-[3-(trifluoromethoxy)benzyl]oxy-pyrrolidine-1-carbonyl]-2-methyl-propyl]carbamoyl]-2-methyl-propyl]pyrazinamide
> <PUBCHEM_IUPAC_INCHI>
InChI=1S/C32H41F3N6O7/c1-6-21(16-42)38-29(44)25-13-23(47-17-20-8-7-9-22(12-20)48-32(33,34)35)15-41(25)31(46)27(19(4)5)40-30(45)26(18(2)3)39-28(43)24-14-36-10-11-37-24/h7-12,14,16,18-19,21,23,25-27H,6,13,15,17H2,1-5H3,(H,38,44)(H,39,43)(H,40,45)/t21-,23+,25-,26-,27-/m0/s1
> <PUBCHEM_IUPAC_INCHIKEY>
MWUGDLAJTMYYIG-ZOWQFLOBSA-N
> <PUBCHEM_XLOGP3_AA>
3.6
> <PUBCHEM_EXACT_MASS>
678.29888215
> <PUBCHEM_MOLECULAR_FORMULA>
C32H41F3N6O7
> <PUBCHEM_MOLECULAR_WEIGHT>
678.7
> <PUBCHEM_OPENEYE_CAN_SMILES>
CCC(C=O)NC(=O)C1CC(CN1C(=O)C(C(C)C)NC(=O)C(C(C)C)NC(=O)C2=NC=CN=C2)OCC3=CC(=CC=C3)OC(F)(F)F
> <PUBCHEM_OPENEYE_ISO_SMILES>
CC[C@@H](C=O)NC(=O)[C@@H]1C[C@H](CN1C(=O)[C@H](C(C)C)NC(=O)[C@H](C(C)C)NC(=O)C2=NC=CN=C2)OCC3=CC(=CC=C3)OC(F)(F)F
> <PUBCHEM_CACTVS_TPSA>
169
> <PUBCHEM_MONOISOTOPIC_WEIGHT>
678.29888215
> <PUBCHEM_TOTAL_CHARGE>
0
> <PUBCHEM_HEAVY_ATOM_COUNT>
48
> <PUBCHEM_ATOM_DEF_STEREO_COUNT>
5
> <PUBCHEM_ATOM_UDEF_STEREO_COUNT>
0
> <PUBCHEM_BOND_DEF_STEREO_COUNT>
0
> <PUBCHEM_BOND_UDEF_STEREO_COUNT>
0
> <PUBCHEM_ISOTOPIC_ATOM_COUNT>
0
> <PUBCHEM_COMPONENT_COUNT>
1
> <PUBCHEM_CACTVS_TAUTO_COUNT>
-1
> <PUBCHEM_COORDINATE_TYPE>
1
5
255
> <PUBCHEM_BONDANNOTATIONS>
22  12  6
28  13  5
30  14  5
15  44  8
15  47  8
16  45  8
16  48  8
17  23  6
32  38  8
32  39  8
38  41  8
39  42  8
18  4  5
41  43  8
42  43  8
44  45  8
47  48  8
$$$$
