506632
  -OEChem-10302200282D
 92 94  0     1  0  0  0  0  0999 V2000
    4.4839    0.9259    0.0000 O   0  0  0  0  0  0  0  0  0  0  0  0
    6.8394   -2.6901    0.0000 O   0  0  0  0  0  0  0  0  0  0  0  0
    5.5950   -3.2441    0.0000 O   0  0  0  0  0  0  0  0  0  0  0  0
    9.4374   -0.1901    0.0000 O   0  0  0  0  0  0  0  0  0  0  0  0
    2.0000    3.1464    0.0000 O   0  0  0  0  0  0  0  0  0  0  0  0
    2.5340   -5.1493    0.0000 O   0  0  0  0  0  0  0  0  0  0  0  0
   12.0355   -2.6901    0.0000 O   0  0  0  0  0  0  0  0  0  0  0  0
    5.9734   -1.1901    0.0000 N   0  0  0  0  0  0  0  0  0  0  0  0
    8.5714   -1.6901    0.0000 N   0  0  0  0  0  0  0  0  0  0  0  0
    3.9008   -2.8840    0.0000 N   0  0  0  0  0  0  0  0  0  0  0  0
   11.1695   -1.1901    0.0000 N   0  0  0  0  0  0  0  0  0  0  0  0
    3.5827    2.8100    0.0000 N   0  0  0  0  0  0  0  0  0  0  0  0
    2.1045    2.1519    0.0000 N   0  0  0  0  0  0  0  0  0  0  0  0
   13.7676   -1.6901    0.0000 N   0  0  0  0  0  0  0  0  0  0  0  0
   13.7676    0.3099    0.0000 N   0  0  0  0  0  0  0  0  0  0  0  0
    5.0598   -1.5968    0.0000 C   0  0  1  0  0  0  0  0  0  0  0  0
    4.8907    0.0123    0.0000 C   0  0  2  0  0  0  0  0  0  0  0  0
    4.3907   -0.8537    0.0000 C   0  0  0  0  0  0  0  0  0  0  0  0
    5.8688   -0.1956    0.0000 C   0  0  0  0  0  0  0  0  0  0  0  0
    6.8394   -1.6901    0.0000 C   0  0  0  0  0  0  0  0  0  0  0  0
    7.7054   -1.1901    0.0000 C   0  0  2  0  0  0  0  0  0  0  0  0
    4.8519   -2.5750    0.0000 C   0  0  0  0  0  0  0  0  0  0  0  0
    7.7054   -0.1901    0.0000 C   0  0  0  0  0  0  0  0  0  0  0  0
    3.4894    1.0304    0.0000 C   0  0  0  0  0  0  0  0  0  0  0  0
    8.5714    0.3099    0.0000 C   0  0  0  0  0  0  0  0  0  0  0  0
    6.8394    0.3099    0.0000 C   0  0  0  0  0  0  0  0  0  0  0  0
    3.6929   -3.8621    0.0000 C   0  0  1  0  0  0  0  0  0  0  0  0
    9.4374   -1.1901    0.0000 C   0  0  0  0  0  0  0  0  0  0  0  0
   10.3035   -1.6901    0.0000 C   0  0  2  0  0  0  0  0  0  0  0  0
   10.3035   -2.6901    0.0000 C   0  0  0  0  0  0  0  0  0  0  0  0
    4.4361   -4.5313    0.0000 C   0  0  0  0  0  0  0  0  0  0  0  0
    3.0827    1.9440    0.0000 C   0  0  0  0  0  0  0  0  0  0  0  0
    2.7419   -4.1712    0.0000 C   0  0  0  0  0  0  0  0  0  0  0  0
    9.4374   -3.1901    0.0000 C   0  0  0  0  0  0  0  0  0  0  0  0
   11.1695   -3.1901    0.0000 C   0  0  0  0  0  0  0  0  0  0  0  0
    4.2282   -5.5094    0.0000 C   0  0  0  0  0  0  0  0  0  0  0  0
    3.1215    4.5313    0.0000 C   0  0  0  0  0  0  0  0  0  0  0  0
    2.9136    3.5531    0.0000 C   0  0  0  0  0  0  0  0  0  0  0  0
   12.0355   -1.6901    0.0000 C   0  0  0  0  0  0  0  0  0  0  0  0
    3.3294    5.5094    0.0000 C   0  0  0  0  0  0  0  0  0  0  0  0
    2.1433    4.7392    0.0000 C   0  0  0  0  0  0  0  0  0  0  0  0
    4.0996    4.3234    0.0000 C   0  0  0  0  0  0  0  0  0  0  0  0
   12.9016   -1.1901    0.0000 C   0  0  0  0  0  0  0  0  0  0  0  0
   12.9016   -0.1901    0.0000 C   0  0  0  0  0  0  0  0  0  0  0  0
   14.6336   -1.1901    0.0000 C   0  0  0  0  0  0  0  0  0  0  0  0
   14.6336   -0.1901    0.0000 C   0  0  0  0  0  0  0  0  0  0  0  0
    5.5416   -1.9870    0.0000 H   0  0  0  0  0  0  0  0  0  0  0  0
    5.2808    0.4942    0.0000 H   0  0  0  0  0  0  0  0  0  0  0  0
    3.8891   -0.4893    0.0000 H   0  0  0  0  0  0  0  0  0  0  0  0
    3.9758   -1.3144    0.0000 H   0  0  0  0  0  0  0  0  0  0  0  0
    6.4888   -0.1956    0.0000 H   0  0  0  0  0  0  0  0  0  0  0  0
    5.9336    0.4210    0.0000 H   0  0  0  0  0  0  0  0  0  0  0  0
    7.7054   -1.8101    0.0000 H   0  0  0  0  0  0  0  0  0  0  0  0
    7.7054    0.4299    0.0000 H   0  0  0  0  0  0  0  0  0  0  0  0
    8.5714   -2.3101    0.0000 H   0  0  0  0  0  0  0  0  0  0  0  0
    3.4401   -2.4691    0.0000 H   0  0  0  0  0  0  0  0  0  0  0  0
    2.8878    0.8804    0.0000 H   0  0  0  0  0  0  0  0  0  0  0  0
    3.5327    0.4119    0.0000 H   0  0  0  0  0  0  0  0  0  0  0  0
    8.8814   -0.2270    0.0000 H   0  0  0  0  0  0  0  0  0  0  0  0
    9.1084    0.6199    0.0000 H   0  0  0  0  0  0  0  0  0  0  0  0
    8.2614    0.8468    0.0000 H   0  0  0  0  0  0  0  0  0  0  0  0
    7.1494    0.8468    0.0000 H   0  0  0  0  0  0  0  0  0  0  0  0
    6.3024    0.6199    0.0000 H   0  0  0  0  0  0  0  0  0  0  0  0
    6.5294   -0.2270    0.0000 H   0  0  0  0  0  0  0  0  0  0  0  0
    3.2322   -3.4473    0.0000 H   0  0  0  0  0  0  0  0  0  0  0  0
   10.3035   -1.0701    0.0000 H   0  0  0  0  0  0  0  0  0  0  0  0
   10.8404   -2.3801    0.0000 H   0  0  0  0  0  0  0  0  0  0  0  0
    5.0109   -4.7635    0.0000 H   0  0  0  0  0  0  0  0  0  0  0  0
    4.7646   -4.0055    0.0000 H   0  0  0  0  0  0  0  0  0  0  0  0
   11.1695   -0.5701    0.0000 H   0  0  0  0  0  0  0  0  0  0  0  0
    2.2811   -3.7563    0.0000 H   0  0  0  0  0  0  0  0  0  0  0  0
    9.1274   -2.6532    0.0000 H   0  0  0  0  0  0  0  0  0  0  0  0
    8.9005   -3.5001    0.0000 H   0  0  0  0  0  0  0  0  0  0  0  0
    9.7474   -3.7270    0.0000 H   0  0  0  0  0  0  0  0  0  0  0  0
   10.8595   -3.7270    0.0000 H   0  0  0  0  0  0  0  0  0  0  0  0
   11.7064   -3.5001    0.0000 H   0  0  0  0  0  0  0  0  0  0  0  0
   11.4795   -2.6532    0.0000 H   0  0  0  0  0  0  0  0  0  0  0  0
    3.6217   -5.3805    0.0000 H   0  0  0  0  0  0  0  0  0  0  0  0
    4.0992   -6.1159    0.0000 H   0  0  0  0  0  0  0  0  0  0  0  0
    4.8346   -5.6383    0.0000 H   0  0  0  0  0  0  0  0  0  0  0  0
    3.9358    5.3805    0.0000 H   0  0  0  0  0  0  0  0  0  0  0  0
    3.4583    6.1159    0.0000 H   0  0  0  0  0  0  0  0  0  0  0  0
    2.7229    5.6383    0.0000 H   0  0  0  0  0  0  0  0  0  0  0  0
    2.2722    5.3456    0.0000 H   0  0  0  0  0  0  0  0  0  0  0  0
    1.5369    4.8681    0.0000 H   0  0  0  0  0  0  0  0  0  0  0  0
    2.0144    4.1327    0.0000 H   0  0  0  0  0  0  0  0  0  0  0  0
    3.9707    3.7169    0.0000 H   0  0  0  0  0  0  0  0  0  0  0  0
    4.7061    4.1945    0.0000 H   0  0  0  0  0  0  0  0  0  0  0  0
    4.2285    4.9298    0.0000 H   0  0  0  0  0  0  0  0  0  0  0  0
   12.3646    0.1199    0.0000 H   0  0  0  0  0  0  0  0  0  0  0  0
   15.1705   -1.5001    0.0000 H   0  0  0  0  0  0  0  0  0  0  0  0
   15.1705    0.1199    0.0000 H   0  0  0  0  0  0  0  0  0  0  0  0
 17  1  1  1  0  0  0
  1 24  1  0  0  0  0
  2 20  2  0  0  0  0
  3 22  2  0  0  0  0
  4 28  2  0  0  0  0
  5 13  1  0  0  0  0
  5 38  1  0  0  0  0
  6 33  2  0  0  0  0
  7 39  2  0  0  0  0
  8 16  1  0  0  0  0
  8 19  1  0  0  0  0
  8 20  1  0  0  0  0
 21  9  1  6  0  0  0
  9 28  1  0  0  0  0
  9 55  1  0  0  0  0
 10 22  1  0  0  0  0
 27 10  1  1  0  0  0
 10 56  1  0  0  0  0
 29 11  1  1  0  0  0
 11 39  1  0  0  0  0
 11 70  1  0  0  0  0
 12 32  1  0  0  0  0
 12 38  2  0  0  0  0
 13 32  2  0  0  0  0
 14 43  2  0  0  0  0
 14 45  1  0  0  0  0
 15 44  2  0  0  0  0
 15 46  1  0  0  0  0
 16 18  1  0  0  0  0
 16 22  1  6  0  0  0
 16 47  1  0  0  0  0
 17 18  1  0  0  0  0
 17 19  1  0  0  0  0
 17 48  1  0  0  0  0
 18 49  1  0  0  0  0
 18 50  1  0  0  0  0
 19 51  1  0  0  0  0
 19 52  1  0  0  0  0
 20 21  1  0  0  0  0
 21 23  1  0  0  0  0
 21 53  1  0  0  0  0
 23 25  1  0  0  0  0
 23 26  1  0  0  0  0
 23 54  1  0  0  0  0
 24 32  1  0  0  0  0
 24 57  1  0  0  0  0
 24 58  1  0  0  0  0
 25 59  1  0  0  0  0
 25 60  1  0  0  0  0
 25 61  1  0  0  0  0
 26 62  1  0  0  0  0
 26 63  1  0  0  0  0
 26 64  1  0  0  0  0
 27 31  1  0  0  0  0
 27 33  1  0  0  0  0
 27 65  1  0  0  0  0
 28 29  1  0  0  0  0
 29 30  1  0  0  0  0
 29 66  1  0  0  0  0
 30 34  1  0  0  0  0
 30 35  1  0  0  0  0
 30 67  1  0  0  0  0
 31 36  1  0  0  0  0
 31 68  1  0  0  0  0
 31 69  1  0  0  0  0
 33 71  1  0  0  0  0
 34 72  1  0  0  0  0
 34 73  1  0  0  0  0
 34 74  1  0  0  0  0
 35 75  1  0  0  0  0
 35 76  1  0  0  0  0
 35 77  1  0  0  0  0
 36 78  1  0  0  0  0
 36 79  1  0  0  0  0
 36 80  1  0  0  0  0
 37 38  1  0  0  0  0
 37 40  1  0  0  0  0
 37 41  1  0  0  0  0
 37 42  1  0  0  0  0
 39 43  1  0  0  0  0
 40 81  1  0  0  0  0
 40 82  1  0  0  0  0
 40 83  1  0  0  0  0
 41 84  1  0  0  0  0
 41 85  1  0  0  0  0
 41 86  1  0  0  0  0
 42 87  1  0  0  0  0
 42 88  1  0  0  0  0
 42 89  1  0  0  0  0
 43 44  1  0  0  0  0
 44 90  1  0  0  0  0
 45 46  2  0  0  0  0
 45 91  1  0  0  0  0
 46 92  1  0  0  0  0
M  END
> <PUBCHEM_COMPOUND_CID>
506632
> <PUBCHEM_COMPOUND_CANONICALIZED>
1
> <PUBCHEM_CACTVS_COMPLEXITY>
1070
> <PUBCHEM_CACTVS_HBOND_ACCEPTOR>
11
> <PUBCHEM_CACTVS_HBOND_DONOR>
3
> <PUBCHEM_CACTVS_ROTATABLE_BOND>
15
> <PUBCHEM_CACTVS_SUBSKEYS>
AAADcfB7+AAAAAAAAAAAAAAAAAAAAWLAAAAsAAAAAAAAAAAB4AAAHgAUAAAADzzhlwYvkBfYFACpAR939gSAgC0XEqApUIG4dECCSFpAyCAXAIgGFwLQAMA6AQAIAAAAAAAAAAAAAAAAAAAAAAAAAAAAAA==
> <PUBCHEM_IUPAC_OPENEYE_NAME>
N-[(1S)-1-[[(1S)-1-[(2S,4R)-4-[(5-tert-butyl-1,2,4-oxadiazol-3-yl)methoxy]-2-[[(1S)-1-formylpropyl]carbamoyl]pyrrolidine-1-carbonyl]-2-methyl-propyl]carbamoyl]-2-methyl-propyl]pyrazine-2-carboxamide
> <PUBCHEM_IUPAC_CAS_NAME>
N-[(2S)-1-[[(2S)-1-[(2S,4R)-4-[(5-tert-butyl-1,2,4-oxadiazol-3-yl)methoxy]-2-[oxo-[[(2S)-1-oxobutan-2-yl]amino]methyl]-1-pyrrolidinyl]-3-methyl-1-oxobutan-2-yl]amino]-3-methyl-1-oxobutan-2-yl]-2-pyrazinecarboxamide
> <PUBCHEM_IUPAC_NAME_MARKUP>
<I>N</I>-[(2<I>S</I>)-1-[[(2<I>S</I>)-1-[(2<I>S</I>,4<I>R</I>)-4-[(5-<I>tert</I>-butyl-1,2,4-oxadiazol-3-yl)methoxy]-2-[[(2<I>S</I>)-1-oxobutan-2-yl]carbamoyl]pyrrolidin-1-yl]-3-methyl-1-oxobutan-2-yl]amino]-3-methyl-1-oxobutan-2-yl]pyrazine-2-carboxamide
> <PUBCHEM_IUPAC_NAME>
N-[(2S)-1-[[(2S)-1-[(2S,4R)-4-[(5-tert-butyl-1,2,4-oxadiazol-3-yl)methoxy]-2-[[(2S)-1-oxobutan-2-yl]carbamoyl]pyrrolidin-1-yl]-3-methyl-1-oxobutan-2-yl]amino]-3-methyl-1-oxobutan-2-yl]pyrazine-2-carboxamide
> <PUBCHEM_IUPAC_SYSTEMATIC_NAME>
N-[(2S)-1-[[(2S)-1-[(2S,4R)-4-[(5-tert-butyl-1,2,4-oxadiazol-3-yl)methoxy]-2-[[(2S)-1-oxidanylidenebutan-2-yl]carbamoyl]pyrrolidin-1-yl]-3-methyl-1-oxidanylidene-butan-2-yl]amino]-3-methyl-1-oxidanylidene-butan-2-yl]pyrazine-2-carboxamide
> <PUBCHEM_IUPAC_TRADITIONAL_NAME>
N-[(1S)-1-[[(1S)-1-[(2S,4R)-4-[(5-tert-butyl-1,2,4-oxadiazol-3-yl)methoxy]-2-[[(1S)-1-formylpropyl]carbamoyl]pyrrolidine-1-carbonyl]-2-methyl-propyl]carbamoyl]-2-methyl-propyl]pyrazinamide
> <PUBCHEM_IUPAC_INCHI>
InChI=1S/C31H46N8O7/c1-9-19(15-40)34-27(42)22-12-20(45-16-23-35-30(46-38-23)31(6,7)8)14-39(22)29(44)25(18(4)5)37-28(43)24(17(2)3)36-26(41)21-13-32-10-11-33-21/h10-11,13,15,17-20,22,24-25H,9,12,14,16H2,1-8H3,(H,34,42)(H,36,41)(H,37,43)/t19-,20+,22-,24-,25-/m0/s1
> <PUBCHEM_IUPAC_INCHIKEY>
SRKAFNZMDKGMRA-XEOMNBDGSA-N
> <PUBCHEM_XLOGP3_AA>
2.3
> <PUBCHEM_EXACT_MASS>
642.34894584
> <PUBCHEM_MOLECULAR_FORMULA>
C31H46N8O7
> <PUBCHEM_MOLECULAR_WEIGHT>
642.7
> <PUBCHEM_OPENEYE_CAN_SMILES>
CCC(C=O)NC(=O)C1CC(CN1C(=O)C(C(C)C)NC(=O)C(C(C)C)NC(=O)C2=NC=CN=C2)OCC3=NOC(=N3)C(C)(C)C
> <PUBCHEM_OPENEYE_ISO_SMILES>
CC[C@@H](C=O)NC(=O)[C@@H]1C[C@H](CN1C(=O)[C@H](C(C)C)NC(=O)[C@H](C(C)C)NC(=O)C2=NC=CN=C2)OCC3=NOC(=N3)C(C)(C)C
> <PUBCHEM_CACTVS_TPSA>
199
> <PUBCHEM_MONOISOTOPIC_WEIGHT>
642.34894584
> <PUBCHEM_TOTAL_CHARGE>
0
> <PUBCHEM_HEAVY_ATOM_COUNT>
46
> <PUBCHEM_ATOM_DEF_STEREO_COUNT>
5
> <PUBCHEM_ATOM_UDEF_STEREO_COUNT>
0
> <PUBCHEM_BOND_DEF_STEREO_COUNT>
0
> <PUBCHEM_BOND_UDEF_STEREO_COUNT>
0
> <PUBCHEM_ISOTOPIC_ATOM_COUNT>
0
> <PUBCHEM_COMPONENT_COUNT>
1
> <PUBCHEM_CACTVS_TAUTO_COUNT>
-1
> <PUBCHEM_COORDINATE_TYPE>
1
5
255
> <PUBCHEM_BONDANNOTATIONS>
17  1  5
27  10  5
29  11  5
12  32  8
12  38  8
13  32  8
14  43  8
14  45  8
15  44  8
15  46  8
16  22  6
43  44  8
45  46  8
5  13  8
5  38  8
21  9  6
$$$$
