506649
  -OEChem-10302200282D
 88 91  0     1  0  0  0  0  0999 V2000
    2.0000   -2.6682    0.0000 Cl  0  0  0  0  0  0  0  0  0  0  0  0
    5.5443   -4.4729    0.0000 S   0  0  0  0  0  0  0  0  0  0  0  0
    6.8335   -1.7067    0.0000 O   0  0  0  0  0  0  0  0  0  0  0  0
    8.8047    2.1323    0.0000 O   0  0  0  0  0  0  0  0  0  0  0  0
    7.5100    2.5554    0.0000 O   0  0  0  0  0  0  0  0  0  0  0  0
   11.6460   -0.0874    0.0000 O   0  0  0  0  0  0  0  0  0  0  0  0
    4.2692    4.1358    0.0000 O   0  0  0  0  0  0  0  0  0  0  0  0
   13.9733    2.6665    0.0000 O   0  0  0  0  0  0  0  0  0  0  0  0
    8.0974    0.5512    0.0000 N   0  0  0  0  0  0  0  0  0  0  0  0
   10.6304    1.3156    0.0000 N   0  0  0  0  0  0  0  0  0  0  0  0
    5.8618    2.0230    0.0000 N   0  0  0  0  0  0  0  0  0  0  0  0
   13.2661    1.0854    0.0000 N   0  0  0  0  0  0  0  0  0  0  0  0
   15.0917    0.2687    0.0000 N   0  0  0  0  0  0  0  0  0  0  0  0
   16.7118    1.4415    0.0000 N   0  0  0  0  0  0  0  0  0  0  0  0
    7.1469    0.8618    0.0000 C   0  0  1  0  0  0  0  0  0  0  0  0
    7.1441   -0.7562    0.0000 C   0  0  2  0  0  0  0  0  0  0  0  0
    6.5577    0.0538    0.0000 C   0  0  0  0  0  0  0  0  0  0  0  0
    8.0957   -0.4488    0.0000 C   0  0  0  0  0  0  0  0  0  0  0  0
    8.9075    1.1376    0.0000 C   0  0  0  0  0  0  0  0  0  0  0  0
    9.8203    0.7292    0.0000 C   0  0  2  0  0  0  0  0  0  0  0  0
    6.8396    1.8134    0.0000 C   0  0  0  0  0  0  0  0  0  0  0  0
    9.9231   -0.2655    0.0000 C   0  0  0  0  0  0  0  0  0  0  0  0
    5.8550   -1.9129    0.0000 C   0  0  0  0  0  0  0  0  0  0  0  0
   10.8360   -0.6738    0.0000 C   0  0  0  0  0  0  0  0  0  0  0  0
    9.1131   -0.8518    0.0000 C   0  0  0  0  0  0  0  0  0  0  0  0
    5.5544    2.9746    0.0000 C   0  0  1  0  0  0  0  0  0  0  0  0
   11.5432    0.9073    0.0000 C   0  0  0  0  0  0  0  0  0  0  0  0
   12.3532    1.4937    0.0000 C   0  0  2  0  0  0  0  0  0  0  0  0
    5.5443   -2.8635    0.0000 C   0  0  0  0  0  0  0  0  0  0  0  0
   12.2504    2.4884    0.0000 C   0  0  0  0  0  0  0  0  0  0  0  0
    6.2248    3.7166    0.0000 C   0  0  0  0  0  0  0  0  0  0  0  0
    4.5981   -3.1682    0.0000 C   0  0  0  0  0  0  0  0  0  0  0  0
    4.5766    3.1842    0.0000 C   0  0  0  0  0  0  0  0  0  0  0  0
   13.0605    3.0748    0.0000 C   0  0  0  0  0  0  0  0  0  0  0  0
   11.3376    2.8967    0.0000 C   0  0  0  0  0  0  0  0  0  0  0  0
    6.1279   -3.6682    0.0000 C   0  0  0  0  0  0  0  0  0  0  0  0
    5.9174    4.6682    0.0000 C   0  0  0  0  0  0  0  0  0  0  0  0
    4.5981   -4.1682    0.0000 C   0  0  0  0  0  0  0  0  0  0  0  0
    3.7320   -2.6682    0.0000 C   0  0  0  0  0  0  0  0  0  0  0  0
   14.0761    1.6718    0.0000 C   0  0  0  0  0  0  0  0  0  0  0  0
    3.7320   -4.6682    0.0000 C   0  0  0  0  0  0  0  0  0  0  0  0
    2.8660   -3.1682    0.0000 C   0  0  0  0  0  0  0  0  0  0  0  0
    2.8660   -4.1682    0.0000 C   0  0  0  0  0  0  0  0  0  0  0  0
   14.9889    1.2634    0.0000 C   0  0  0  0  0  0  0  0  0  0  0  0
   15.7990    1.8498    0.0000 C   0  0  0  0  0  0  0  0  0  0  0  0
   16.0046   -0.1396    0.0000 C   0  0  0  0  0  0  0  0  0  0  0  0
   16.8146    0.4468    0.0000 C   0  0  0  0  0  0  0  0  0  0  0  0
    7.5861    1.2995    0.0000 H   0  0  0  0  0  0  0  0  0  0  0  0
    6.5316   -0.8521    0.0000 H   0  0  0  0  0  0  0  0  0  0  0  0
    6.0977    0.4695    0.0000 H   0  0  0  0  0  0  0  0  0  0  0  0
    6.0963   -0.3602    0.0000 H   0  0  0  0  0  0  0  0  0  0  0  0
    8.2236   -1.0555    0.0000 H   0  0  0  0  0  0  0  0  0  0  0  0
    8.7124   -0.3851    0.0000 H   0  0  0  0  0  0  0  0  0  0  0  0
   10.3863    0.4761    0.0000 H   0  0  0  0  0  0  0  0  0  0  0  0
    9.3572   -0.0123    0.0000 H   0  0  0  0  0  0  0  0  0  0  0  0
   10.5666    1.9323    0.0000 H   0  0  0  0  0  0  0  0  0  0  0  0
    5.4461    1.5630    0.0000 H   0  0  0  0  0  0  0  0  0  0  0  0
    5.8344   -1.2933    0.0000 H   0  0  0  0  0  0  0  0  0  0  0  0
    5.2411   -1.8256    0.0000 H   0  0  0  0  0  0  0  0  0  0  0  0
   10.5828   -1.2397    0.0000 H   0  0  0  0  0  0  0  0  0  0  0  0
   11.4019   -0.9269    0.0000 H   0  0  0  0  0  0  0  0  0  0  0  0
   11.0891   -0.1078    0.0000 H   0  0  0  0  0  0  0  0  0  0  0  0
    8.7495   -0.3496    0.0000 H   0  0  0  0  0  0  0  0  0  0  0  0
    8.6109   -1.2154    0.0000 H   0  0  0  0  0  0  0  0  0  0  0  0
    9.4766   -1.3541    0.0000 H   0  0  0  0  0  0  0  0  0  0  0  0
    5.1387    2.5146    0.0000 H   0  0  0  0  0  0  0  0  0  0  0  0
   12.4170    0.8770    0.0000 H   0  0  0  0  0  0  0  0  0  0  0  0
   12.8164    2.2352    0.0000 H   0  0  0  0  0  0  0  0  0  0  0  0
    6.6057    3.2274    0.0000 H   0  0  0  0  0  0  0  0  0  0  0  0
    6.7727    4.0067    0.0000 H   0  0  0  0  0  0  0  0  0  0  0  0
   13.3298    0.4687    0.0000 H   0  0  0  0  0  0  0  0  0  0  0  0
    4.1610    2.7242    0.0000 H   0  0  0  0  0  0  0  0  0  0  0  0
   13.4240    2.5726    0.0000 H   0  0  0  0  0  0  0  0  0  0  0  0
   13.5627    3.4383    0.0000 H   0  0  0  0  0  0  0  0  0  0  0  0
   12.6969    3.5770    0.0000 H   0  0  0  0  0  0  0  0  0  0  0  0
   11.5907    3.4627    0.0000 H   0  0  0  0  0  0  0  0  0  0  0  0
   10.7716    3.1499    0.0000 H   0  0  0  0  0  0  0  0  0  0  0  0
   11.0844    2.3308    0.0000 H   0  0  0  0  0  0  0  0  0  0  0  0
    6.7479   -3.6682    0.0000 H   0  0  0  0  0  0  0  0  0  0  0  0
    6.5074    4.8588    0.0000 H   0  0  0  0  0  0  0  0  0  0  0  0
    5.7269    5.2582    0.0000 H   0  0  0  0  0  0  0  0  0  0  0  0
    5.3275    4.4776    0.0000 H   0  0  0  0  0  0  0  0  0  0  0  0
    3.7320   -2.0482    0.0000 H   0  0  0  0  0  0  0  0  0  0  0  0
    3.7320   -5.2882    0.0000 H   0  0  0  0  0  0  0  0  0  0  0  0
    2.3291   -4.4782    0.0000 H   0  0  0  0  0  0  0  0  0  0  0  0
   15.7352    2.4665    0.0000 H   0  0  0  0  0  0  0  0  0  0  0  0
   16.0683   -0.7563    0.0000 H   0  0  0  0  0  0  0  0  0  0  0  0
   17.3806    0.1936    0.0000 H   0  0  0  0  0  0  0  0  0  0  0  0
  1 42  1  0  0  0  0
  2 36  1  0  0  0  0
  2 38  1  0  0  0  0
 16  3  1  6  0  0  0
  3 23  1  0  0  0  0
  4 19  2  0  0  0  0
  5 21  2  0  0  0  0
  6 27  2  0  0  0  0
  7 33  2  0  0  0  0
  8 40  2  0  0  0  0
  9 15  1  0  0  0  0
  9 18  1  0  0  0  0
  9 19  1  0  0  0  0
 20 10  1  1  0  0  0
 10 27  1  0  0  0  0
 10 56  1  0  0  0  0
 11 21  1  0  0  0  0
 26 11  1  6  0  0  0
 11 57  1  0  0  0  0
 28 12  1  6  0  0  0
 12 40  1  0  0  0  0
 12 71  1  0  0  0  0
 13 44  2  0  0  0  0
 13 46  1  0  0  0  0
 14 45  2  0  0  0  0
 14 47  1  0  0  0  0
 15 17  1  0  0  0  0
 15 21  1  1  0  0  0
 15 48  1  0  0  0  0
 16 17  1  0  0  0  0
 16 18  1  0  0  0  0
 16 49  1  0  0  0  0
 17 50  1  0  0  0  0
 17 51  1  0  0  0  0
 18 52  1  0  0  0  0
 18 53  1  0  0  0  0
 19 20  1  0  0  0  0
 20 22  1  0  0  0  0
 20 54  1  0  0  0  0
 22 24  1  0  0  0  0
 22 25  1  0  0  0  0
 22 55  1  0  0  0  0
 23 29  1  0  0  0  0
 23 58  1  0  0  0  0
 23 59  1  0  0  0  0
 24 60  1  0  0  0  0
 24 61  1  0  0  0  0
 24 62  1  0  0  0  0
 25 63  1  0  0  0  0
 25 64  1  0  0  0  0
 25 65  1  0  0  0  0
 26 31  1  0  0  0  0
 26 33  1  0  0  0  0
 26 66  1  0  0  0  0
 27 28  1  0  0  0  0
 28 30  1  0  0  0  0
 28 67  1  0  0  0  0
 29 32  1  0  0  0  0
 29 36  2  0  0  0  0
 30 34  1  0  0  0  0
 30 35  1  0  0  0  0
 30 68  1  0  0  0  0
 31 37  1  0  0  0  0
 31 69  1  0  0  0  0
 31 70  1  0  0  0  0
 32 38  2  0  0  0  0
 32 39  1  0  0  0  0
 33 72  1  0  0  0  0
 34 73  1  0  0  0  0
 34 74  1  0  0  0  0
 34 75  1  0  0  0  0
 35 76  1  0  0  0  0
 35 77  1  0  0  0  0
 35 78  1  0  0  0  0
 36 79  1  0  0  0  0
 37 80  1  0  0  0  0
 37 81  1  0  0  0  0
 37 82  1  0  0  0  0
 38 41  1  0  0  0  0
 39 42  2  0  0  0  0
 39 83  1  0  0  0  0
 40 44  1  0  0  0  0
 41 43  2  0  0  0  0
 41 84  1  0  0  0  0
 42 43  1  0  0  0  0
 43 85  1  0  0  0  0
 44 45  1  0  0  0  0
 45 86  1  0  0  0  0
 46 47  2  0  0  0  0
 46 87  1  0  0  0  0
 47 88  1  0  0  0  0
M  END
> <PUBCHEM_COMPOUND_CID>
506649
> <PUBCHEM_COMPOUND_CANONICALIZED>
1
> <PUBCHEM_CACTVS_COMPLEXITY>
1120
> <PUBCHEM_CACTVS_HBOND_ACCEPTOR>
9
> <PUBCHEM_CACTVS_HBOND_DONOR>
3
> <PUBCHEM_CACTVS_ROTATABLE_BOND>
14
> <PUBCHEM_CACTVS_SUBSKEYS>
AAADcfB/uABEAAAAAAAAAAAAAAAAAWJAAAA8QAAAAAAAAEgB/AAAHgYQAAAADT7l3ia+gdPIFAisAz131ACDgKQ3HzBI2Jm4fsgKZnrh8ziXMIgm1gH4qMe6weAOgAIAIAAEAAAABABAAAgAAAAAAAAAAA==
> <PUBCHEM_IUPAC_OPENEYE_NAME>
N-[(1S)-1-[[(1S)-1-[(2S,4R)-4-[(5-chlorobenzothiophen-3-yl)methoxy]-2-[[(1S)-1-formylpropyl]carbamoyl]pyrrolidine-1-carbonyl]-2-methyl-propyl]carbamoyl]-2-methyl-propyl]pyrazine-2-carboxamide
> <PUBCHEM_IUPAC_CAS_NAME>
N-[(2S)-1-[[(2S)-1-[(2S,4R)-4-[(5-chloro-1-benzothiophen-3-yl)methoxy]-2-[oxo-[[(2S)-1-oxobutan-2-yl]amino]methyl]-1-pyrrolidinyl]-3-methyl-1-oxobutan-2-yl]amino]-3-methyl-1-oxobutan-2-yl]-2-pyrazinecarboxamide
> <PUBCHEM_IUPAC_NAME_MARKUP>
<I>N</I>-[(2<I>S</I>)-1-[[(2<I>S</I>)-1-[(2<I>S</I>,4<I>R</I>)-4-[(5-chloro-1-benzothiophen-3-yl)methoxy]-2-[[(2<I>S</I>)-1-oxobutan-2-yl]carbamoyl]pyrrolidin-1-yl]-3-methyl-1-oxobutan-2-yl]amino]-3-methyl-1-oxobutan-2-yl]pyrazine-2-carboxamide
> <PUBCHEM_IUPAC_NAME>
N-[(2S)-1-[[(2S)-1-[(2S,4R)-4-[(5-chloro-1-benzothiophen-3-yl)methoxy]-2-[[(2S)-1-oxobutan-2-yl]carbamoyl]pyrrolidin-1-yl]-3-methyl-1-oxobutan-2-yl]amino]-3-methyl-1-oxobutan-2-yl]pyrazine-2-carboxamide
> <PUBCHEM_IUPAC_SYSTEMATIC_NAME>
N-[(2S)-1-[[(2S)-1-[(2S,4R)-4-[(5-chloranyl-1-benzothiophen-3-yl)methoxy]-2-[[(2S)-1-oxidanylidenebutan-2-yl]carbamoyl]pyrrolidin-1-yl]-3-methyl-1-oxidanylidene-butan-2-yl]amino]-3-methyl-1-oxidanylidene-butan-2-yl]pyrazine-2-carboxamide
> <PUBCHEM_IUPAC_TRADITIONAL_NAME>
N-[(1S)-1-[[(1S)-1-[(2S,4R)-4-[(5-chlorobenzothiophen-3-yl)methoxy]-2-[[(1S)-1-formylpropyl]carbamoyl]pyrrolidine-1-carbonyl]-2-methyl-propyl]carbamoyl]-2-methyl-propyl]pyrazinamide
> <PUBCHEM_IUPAC_INCHI>
InChI=1S/C33H41ClN6O6S/c1-6-22(15-41)37-31(43)26-12-23(46-16-20-17-47-27-8-7-21(34)11-24(20)27)14-40(26)33(45)29(19(4)5)39-32(44)28(18(2)3)38-30(42)25-13-35-9-10-36-25/h7-11,13,15,17-19,22-23,26,28-29H,6,12,14,16H2,1-5H3,(H,37,43)(H,38,42)(H,39,44)/t22-,23+,26-,28-,29-/m0/s1
> <PUBCHEM_IUPAC_INCHIKEY>
YBQBFNVSKHDURS-ANEXDRBVSA-N
> <PUBCHEM_XLOGP3_AA>
4
> <PUBCHEM_EXACT_MASS>
684.2496819
> <PUBCHEM_MOLECULAR_FORMULA>
C33H41ClN6O6S
> <PUBCHEM_MOLECULAR_WEIGHT>
685.2
> <PUBCHEM_OPENEYE_CAN_SMILES>
CCC(C=O)NC(=O)C1CC(CN1C(=O)C(C(C)C)NC(=O)C(C(C)C)NC(=O)C2=NC=CN=C2)OCC3=CSC4=C3C=C(C=C4)Cl
> <PUBCHEM_OPENEYE_ISO_SMILES>
CC[C@@H](C=O)NC(=O)[C@@H]1C[C@H](CN1C(=O)[C@H](C(C)C)NC(=O)[C@H](C(C)C)NC(=O)C2=NC=CN=C2)OCC3=CSC4=C3C=C(C=C4)Cl
> <PUBCHEM_CACTVS_TPSA>
188
> <PUBCHEM_MONOISOTOPIC_WEIGHT>
684.2496819
> <PUBCHEM_TOTAL_CHARGE>
0
> <PUBCHEM_HEAVY_ATOM_COUNT>
47
> <PUBCHEM_ATOM_DEF_STEREO_COUNT>
5
> <PUBCHEM_ATOM_UDEF_STEREO_COUNT>
0
> <PUBCHEM_BOND_DEF_STEREO_COUNT>
0
> <PUBCHEM_BOND_UDEF_STEREO_COUNT>
0
> <PUBCHEM_ISOTOPIC_ATOM_COUNT>
0
> <PUBCHEM_COMPONENT_COUNT>
1
> <PUBCHEM_CACTVS_TAUTO_COUNT>
-1
> <PUBCHEM_COORDINATE_TYPE>
1
5
255
> <PUBCHEM_BONDANNOTATIONS>
20  10  5
26  11  6
28  12  6
13  44  8
13  46  8
14  45  8
14  47  8
15  21  5
2  36  8
2  38  8
29  32  8
29  36  8
16  3  6
32  38  8
32  39  8
38  41  8
39  42  8
41  43  8
42  43  8
44  45  8
46  47  8
$$$$
