506628
  -OEChem-10302200282D
 96 99  0     1  0  0  0  0  0999 V2000
    8.4268    2.1576    0.0000 O   0  0  0  0  0  0  0  0  0  0  0  0
    5.0768   -0.5629    0.0000 O   0  0  0  0  0  0  0  0  0  0  0  0
    4.3958    0.6167    0.0000 O   0  0  0  0  0  0  0  0  0  0  0  0
    7.8347   -2.8854    0.0000 O   0  0  0  0  0  0  0  0  0  0  0  0
    2.1810    3.4619    0.0000 O   0  0  0  0  0  0  0  0  0  0  0  0
   10.1588    6.1576    0.0000 O   0  0  0  0  0  0  0  0  0  0  0  0
    5.6200   -5.7306    0.0000 O   0  0  0  0  0  0  0  0  0  0  0  0
    6.4781    0.4552    0.0000 N   0  0  0  0  0  0  0  0  0  0  0  0
    6.2524   -2.1809    0.0000 N   0  0  0  0  0  0  0  0  0  0  0  0
    4.5768    2.3393    0.0000 N   0  0  0  0  0  0  0  0  0  0  0  0
    7.0212   -4.7125    0.0000 N   0  0  0  0  0  0  0  0  0  0  0  0
    8.1968   -6.3305    0.0000 N   0  0  0  0  0  0  0  0  0  0  0  0
    7.3833   -8.1576    0.0000 N   0  0  0  0  0  0  0  0  0  0  0  0
    5.9781    1.3212    0.0000 C   0  0  1  0  0  0  0  0  0  0  0  0
    7.5608    1.6576    0.0000 C   0  0  2  0  0  0  0  0  0  0  0  0
    6.6472    2.0644    0.0000 C   0  0  0  0  0  0  0  0  0  0  0  0
    7.4562    0.6631    0.0000 C   0  0  0  0  0  0  0  0  0  0  0  0
    6.0714   -0.4584    0.0000 C   0  0  0  0  0  0  0  0  0  0  0  0
    6.6591   -1.2674    0.0000 C   0  0  2  0  0  0  0  0  0  0  0  0
    4.9836    1.4257    0.0000 C   0  0  0  0  0  0  0  0  0  0  0  0
    7.6537   -1.1628    0.0000 C   0  0  0  0  0  0  0  0  0  0  0  0
    8.4268    3.1576    0.0000 C   0  0  0  0  0  0  0  0  0  0  0  0
    8.2414   -1.9719    0.0000 C   0  0  0  0  0  0  0  0  0  0  0  0
    8.0604   -0.2493    0.0000 C   0  0  0  0  0  0  0  0  0  0  0  0
    3.5823    2.4438    0.0000 C   0  0  1  0  0  0  0  0  0  0  0  0
    6.8402   -2.9899    0.0000 C   0  0  0  0  0  0  0  0  0  0  0  0
    6.4334   -3.9035    0.0000 C   0  0  2  0  0  0  0  0  0  0  0  0
    5.4389   -4.0080    0.0000 C   0  0  0  0  0  0  0  0  0  0  0  0
    9.2928    3.6576    0.0000 C   0  0  0  0  0  0  0  0  0  0  0  0
    2.9945    1.6348    0.0000 C   0  0  0  0  0  0  0  0  0  0  0  0
    3.1756    3.3574    0.0000 C   0  0  0  0  0  0  0  0  0  0  0  0
    5.0322   -4.9216    0.0000 C   0  0  0  0  0  0  0  0  0  0  0  0
    4.8511   -3.1990    0.0000 C   0  0  0  0  0  0  0  0  0  0  0  0
    2.0000    1.7393    0.0000 C   0  0  0  0  0  0  0  0  0  0  0  0
    9.2928    4.6576    0.0000 C   0  0  0  0  0  0  0  0  0  0  0  0
   10.1588    3.1576    0.0000 C   0  0  0  0  0  0  0  0  0  0  0  0
   10.1588    5.1576    0.0000 C   0  0  0  0  0  0  0  0  0  0  0  0
    6.6145   -5.6260    0.0000 C   0  0  0  0  0  0  0  0  0  0  0  0
   11.0249    3.6576    0.0000 C   0  0  0  0  0  0  0  0  0  0  0  0
   11.0249    4.6576    0.0000 C   0  0  0  0  0  0  0  0  0  0  0  0
    7.2023   -6.4351    0.0000 C   0  0  0  0  0  0  0  0  0  0  0  0
    6.7956   -7.3486    0.0000 C   0  0  0  0  0  0  0  0  0  0  0  0
   11.0249    6.6576    0.0000 C   0  0  0  0  0  0  0  0  0  0  0  0
    8.7846   -7.1396    0.0000 C   0  0  0  0  0  0  0  0  0  0  0  0
   11.0249    7.6576    0.0000 C   0  0  0  0  0  0  0  0  0  0  0  0
   11.8909    6.1576    0.0000 C   0  0  0  0  0  0  0  0  0  0  0  0
    8.3778   -8.0531    0.0000 C   0  0  0  0  0  0  0  0  0  0  0  0
   11.8909    8.1576    0.0000 C   0  0  0  0  0  0  0  0  0  0  0  0
   12.7569    6.6576    0.0000 C   0  0  0  0  0  0  0  0  0  0  0  0
   12.7569    7.6576    0.0000 C   0  0  0  0  0  0  0  0  0  0  0  0
    5.6404    0.8012    0.0000 H   0  0  0  0  0  0  0  0  0  0  0  0
    7.5283    2.2768    0.0000 H   0  0  0  0  0  0  0  0  0  0  0  0
    6.9572    2.6013    0.0000 H   0  0  0  0  0  0  0  0  0  0  0  0
    6.1456    2.4288    0.0000 H   0  0  0  0  0  0  0  0  0  0  0  0
    7.5210    0.0465    0.0000 H   0  0  0  0  0  0  0  0  0  0  0  0
    8.0762    0.6631    0.0000 H   0  0  0  0  0  0  0  0  0  0  0  0
    6.0425   -1.3322    0.0000 H   0  0  0  0  0  0  0  0  0  0  0  0
    7.4015   -1.7292    0.0000 H   0  0  0  0  0  0  0  0  0  0  0  0
    5.6358   -2.2457    0.0000 H   0  0  0  0  0  0  0  0  0  0  0  0
    4.9413    2.8409    0.0000 H   0  0  0  0  0  0  0  0  0  0  0  0
    8.2147    3.7402    0.0000 H   0  0  0  0  0  0  0  0  0  0  0  0
    7.8162    3.0500    0.0000 H   0  0  0  0  0  0  0  0  0  0  0  0
    7.7398   -2.3363    0.0000 H   0  0  0  0  0  0  0  0  0  0  0  0
    8.6059   -2.4734    0.0000 H   0  0  0  0  0  0  0  0  0  0  0  0
    8.7430   -1.6074    0.0000 H   0  0  0  0  0  0  0  0  0  0  0  0
    8.6268   -0.5015    0.0000 H   0  0  0  0  0  0  0  0  0  0  0  0
    8.3126    0.3171    0.0000 H   0  0  0  0  0  0  0  0  0  0  0  0
    7.4940    0.0029    0.0000 H   0  0  0  0  0  0  0  0  0  0  0  0
    3.8345    1.8774    0.0000 H   0  0  0  0  0  0  0  0  0  0  0  0
    7.0500   -3.8387    0.0000 H   0  0  0  0  0  0  0  0  0  0  0  0
    4.8223   -4.0728    0.0000 H   0  0  0  0  0  0  0  0  0  0  0  0
    2.8236    1.0388    0.0000 H   0  0  0  0  0  0  0  0  0  0  0  0
    3.5518    1.3630    0.0000 H   0  0  0  0  0  0  0  0  0  0  0  0
    3.5400    3.8590    0.0000 H   0  0  0  0  0  0  0  0  0  0  0  0
    7.6378   -4.6477    0.0000 H   0  0  0  0  0  0  0  0  0  0  0  0
    4.4658   -4.6694    0.0000 H   0  0  0  0  0  0  0  0  0  0  0  0
    4.7800   -5.4880    0.0000 H   0  0  0  0  0  0  0  0  0  0  0  0
    5.5986   -5.1737    0.0000 H   0  0  0  0  0  0  0  0  0  0  0  0
    5.3527   -2.8346    0.0000 H   0  0  0  0  0  0  0  0  0  0  0  0
    4.4867   -2.6974    0.0000 H   0  0  0  0  0  0  0  0  0  0  0  0
    4.3496   -3.5634    0.0000 H   0  0  0  0  0  0  0  0  0  0  0  0
    2.0648    2.3559    0.0000 H   0  0  0  0  0  0  0  0  0  0  0  0
    1.3834    1.8041    0.0000 H   0  0  0  0  0  0  0  0  0  0  0  0
    1.9352    1.1227    0.0000 H   0  0  0  0  0  0  0  0  0  0  0  0
    8.7559    4.9676    0.0000 H   0  0  0  0  0  0  0  0  0  0  0  0
   10.1588    2.5376    0.0000 H   0  0  0  0  0  0  0  0  0  0  0  0
   11.5618    3.3476    0.0000 H   0  0  0  0  0  0  0  0  0  0  0  0
   11.5618    4.9676    0.0000 H   0  0  0  0  0  0  0  0  0  0  0  0
    6.1789   -7.4134    0.0000 H   0  0  0  0  0  0  0  0  0  0  0  0
    9.4012   -7.0747    0.0000 H   0  0  0  0  0  0  0  0  0  0  0  0
   10.4879    7.9676    0.0000 H   0  0  0  0  0  0  0  0  0  0  0  0
   11.8909    5.5376    0.0000 H   0  0  0  0  0  0  0  0  0  0  0  0
    8.7423   -8.5547    0.0000 H   0  0  0  0  0  0  0  0  0  0  0  0
   11.8909    8.7776    0.0000 H   0  0  0  0  0  0  0  0  0  0  0  0
   13.2939    6.3476    0.0000 H   0  0  0  0  0  0  0  0  0  0  0  0
   13.2939    7.9676    0.0000 H   0  0  0  0  0  0  0  0  0  0  0  0
 15  1  1  1  0  0  0
  1 22  1  0  0  0  0
  2 18  2  0  0  0  0
  3 20  2  0  0  0  0
  4 26  2  0  0  0  0
  5 31  2  0  0  0  0
  6 37  1  0  0  0  0
  6 43  1  0  0  0  0
  7 38  2  0  0  0  0
  8 14  1  0  0  0  0
  8 17  1  0  0  0  0
  8 18  1  0  0  0  0
 19  9  1  6  0  0  0
  9 26  1  0  0  0  0
  9 59  1  0  0  0  0
 10 20  1  0  0  0  0
 25 10  1  1  0  0  0
 10 60  1  0  0  0  0
 27 11  1  1  0  0  0
 11 38  1  0  0  0  0
 11 75  1  0  0  0  0
 12 41  2  0  0  0  0
 12 44  1  0  0  0  0
 13 42  2  0  0  0  0
 13 47  1  0  0  0  0
 14 16  1  0  0  0  0
 14 20  1  6  0  0  0
 14 51  1  0  0  0  0
 15 16  1  0  0  0  0
 15 17  1  0  0  0  0
 15 52  1  0  0  0  0
 16 53  1  0  0  0  0
 16 54  1  0  0  0  0
 17 55  1  0  0  0  0
 17 56  1  0  0  0  0
 18 19  1  0  0  0  0
 19 21  1  0  0  0  0
 19 57  1  0  0  0  0
 21 23  1  0  0  0  0
 21 24  1  0  0  0  0
 21 58  1  0  0  0  0
 22 29  1  0  0  0  0
 22 61  1  0  0  0  0
 22 62  1  0  0  0  0
 23 63  1  0  0  0  0
 23 64  1  0  0  0  0
 23 65  1  0  0  0  0
 24 66  1  0  0  0  0
 24 67  1  0  0  0  0
 24 68  1  0  0  0  0
 25 30  1  0  0  0  0
 25 31  1  0  0  0  0
 25 69  1  0  0  0  0
 26 27  1  0  0  0  0
 27 28  1  0  0  0  0
 27 70  1  0  0  0  0
 28 32  1  0  0  0  0
 28 33  1  0  0  0  0
 28 71  1  0  0  0  0
 29 35  2  0  0  0  0
 29 36  1  0  0  0  0
 30 34  1  0  0  0  0
 30 72  1  0  0  0  0
 30 73  1  0  0  0  0
 31 74  1  0  0  0  0
 32 76  1  0  0  0  0
 32 77  1  0  0  0  0
 32 78  1  0  0  0  0
 33 79  1  0  0  0  0
 33 80  1  0  0  0  0
 33 81  1  0  0  0  0
 34 82  1  0  0  0  0
 34 83  1  0  0  0  0
 34 84  1  0  0  0  0
 35 37  1  0  0  0  0
 35 85  1  0  0  0  0
 36 39  2  0  0  0  0
 36 86  1  0  0  0  0
 37 40  2  0  0  0  0
 38 41  1  0  0  0  0
 39 40  1  0  0  0  0
 39 87  1  0  0  0  0
 40 88  1  0  0  0  0
 41 42  1  0  0  0  0
 42 89  1  0  0  0  0
 43 45  2  0  0  0  0
 43 46  1  0  0  0  0
 44 47  2  0  0  0  0
 44 90  1  0  0  0  0
 45 48  1  0  0  0  0
 45 91  1  0  0  0  0
 46 49  2  0  0  0  0
 46 92  1  0  0  0  0
 47 93  1  0  0  0  0
 48 50  2  0  0  0  0
 48 94  1  0  0  0  0
 49 50  1  0  0  0  0
 49 95  1  0  0  0  0
 50 96  1  0  0  0  0
M  END
> <PUBCHEM_COMPOUND_CID>
506628
> <PUBCHEM_COMPOUND_CANONICALIZED>
1
> <PUBCHEM_CACTVS_COMPLEXITY>
1130
> <PUBCHEM_CACTVS_HBOND_ACCEPTOR>
9
> <PUBCHEM_CACTVS_HBOND_DONOR>
3
> <PUBCHEM_CACTVS_ROTATABLE_BOND>
16
> <PUBCHEM_CACTVS_SUBSKEYS>
AAADcfB/uAAAAAAAAAAAAAAAAAAAAWAAAAA8YIAAAAAAAAAB0AAAHgAQAAAADTzhngY+hpPIFACoAz131ACCiCQ3MiAI2IG+fMgOZnrE8TqXOKim1hHYqMf6wTAOAAABAAAAAAAAAAIAAAAAAAAAAAAAAA==
> <PUBCHEM_IUPAC_OPENEYE_NAME>
N-[(1S)-1-[[(1S)-1-[(2S,4R)-2-[[(1S)-1-formylpropyl]carbamoyl]-4-[(3-phenoxyphenyl)methoxy]pyrrolidine-1-carbonyl]-2-methyl-propyl]carbamoyl]-2-methyl-propyl]pyrazine-2-carboxamide
> <PUBCHEM_IUPAC_CAS_NAME>
N-[(2S)-3-methyl-1-[[(2S)-3-methyl-1-oxo-1-[(2S,4R)-2-[oxo-[[(2S)-1-oxobutan-2-yl]amino]methyl]-4-[(3-phenoxyphenyl)methoxy]-1-pyrrolidinyl]butan-2-yl]amino]-1-oxobutan-2-yl]-2-pyrazinecarboxamide
> <PUBCHEM_IUPAC_NAME_MARKUP>
<I>N</I>-[(2<I>S</I>)-3-methyl-1-[[(2<I>S</I>)-3-methyl-1-oxo-1-[(2<I>S</I>,4<I>R</I>)-2-[[(2<I>S</I>)-1-oxobutan-2-yl]carbamoyl]-4-[(3-phenoxyphenyl)methoxy]pyrrolidin-1-yl]butan-2-yl]amino]-1-oxobutan-2-yl]pyrazine-2-carboxamide
> <PUBCHEM_IUPAC_NAME>
N-[(2S)-3-methyl-1-[[(2S)-3-methyl-1-oxo-1-[(2S,4R)-2-[[(2S)-1-oxobutan-2-yl]carbamoyl]-4-[(3-phenoxyphenyl)methoxy]pyrrolidin-1-yl]butan-2-yl]amino]-1-oxobutan-2-yl]pyrazine-2-carboxamide
> <PUBCHEM_IUPAC_SYSTEMATIC_NAME>
N-[(2S)-3-methyl-1-[[(2S)-3-methyl-1-oxidanylidene-1-[(2S,4R)-2-[[(2S)-1-oxidanylidenebutan-2-yl]carbamoyl]-4-[(3-phenoxyphenyl)methoxy]pyrrolidin-1-yl]butan-2-yl]amino]-1-oxidanylidene-butan-2-yl]pyrazine-2-carboxamide
> <PUBCHEM_IUPAC_TRADITIONAL_NAME>
N-[(1S)-1-[[(1S)-1-[(2S,4R)-2-[[(1S)-1-formylpropyl]carbamoyl]-4-(3-phenoxybenzyl)oxy-pyrrolidine-1-carbonyl]-2-methyl-propyl]carbamoyl]-2-methyl-propyl]pyrazinamide
> <PUBCHEM_IUPAC_INCHI>
InChI=1S/C37H46N6O7/c1-6-26(21-44)40-35(46)31-18-29(49-22-25-11-10-14-28(17-25)50-27-12-8-7-9-13-27)20-43(31)37(48)33(24(4)5)42-36(47)32(23(2)3)41-34(45)30-19-38-15-16-39-30/h7-17,19,21,23-24,26,29,31-33H,6,18,20,22H2,1-5H3,(H,40,46)(H,41,45)(H,42,47)/t26-,29+,31-,32-,33-/m0/s1
> <PUBCHEM_IUPAC_INCHIKEY>
VQJDIGLDBVVICV-WNRMYOQHSA-N
> <PUBCHEM_XLOGP3_AA>
3.9
> <PUBCHEM_EXACT_MASS>
686.34279783
> <PUBCHEM_MOLECULAR_FORMULA>
C37H46N6O7
> <PUBCHEM_MOLECULAR_WEIGHT>
686.8
> <PUBCHEM_OPENEYE_CAN_SMILES>
CCC(C=O)NC(=O)C1CC(CN1C(=O)C(C(C)C)NC(=O)C(C(C)C)NC(=O)C2=NC=CN=C2)OCC3=CC(=CC=C3)OC4=CC=CC=C4
> <PUBCHEM_OPENEYE_ISO_SMILES>
CC[C@@H](C=O)NC(=O)[C@@H]1C[C@H](CN1C(=O)[C@H](C(C)C)NC(=O)[C@H](C(C)C)NC(=O)C2=NC=CN=C2)OCC3=CC(=CC=C3)OC4=CC=CC=C4
> <PUBCHEM_CACTVS_TPSA>
169
> <PUBCHEM_MONOISOTOPIC_WEIGHT>
686.34279783
> <PUBCHEM_TOTAL_CHARGE>
0
> <PUBCHEM_HEAVY_ATOM_COUNT>
50
> <PUBCHEM_ATOM_DEF_STEREO_COUNT>
5
> <PUBCHEM_ATOM_UDEF_STEREO_COUNT>
0
> <PUBCHEM_BOND_DEF_STEREO_COUNT>
0
> <PUBCHEM_BOND_UDEF_STEREO_COUNT>
0
> <PUBCHEM_ISOTOPIC_ATOM_COUNT>
0
> <PUBCHEM_COMPONENT_COUNT>
1
> <PUBCHEM_CACTVS_TAUTO_COUNT>
-1
> <PUBCHEM_COORDINATE_TYPE>
1
5
255
> <PUBCHEM_BONDANNOTATIONS>
15  1  5
25  10  5
27  11  5
12  41  8
12  44  8
13  42  8
13  47  8
14  20  6
29  35  8
29  36  8
35  37  8
36  39  8
37  40  8
39  40  8
41  42  8
43  45  8
43  46  8
44  47  8
45  48  8
46  49  8
48  50  8
49  50  8
19  9  6
$$$$
