506638
  -OEChem-10302200282D
 87 89  0     1  0  0  0  0  0999 V2000
    5.1226    1.9040    0.0000 O   0  0  0  0  0  0  0  0  0  0  0  0
    7.4780   -1.7120    0.0000 O   0  0  0  0  0  0  0  0  0  0  0  0
    6.2336   -2.2660    0.0000 O   0  0  0  0  0  0  0  0  0  0  0  0
   10.0761    0.7881    0.0000 O   0  0  0  0  0  0  0  0  0  0  0  0
    2.6386    4.1245    0.0000 O   0  0  0  0  0  0  0  0  0  0  0  0
    3.1726   -4.1712    0.0000 O   0  0  0  0  0  0  0  0  0  0  0  0
   12.6741   -1.7120    0.0000 O   0  0  0  0  0  0  0  0  0  0  0  0
    6.6120   -0.2119    0.0000 N   0  0  0  0  0  0  0  0  0  0  0  0
    9.2100   -0.7119    0.0000 N   0  0  0  0  0  0  0  0  0  0  0  0
    4.5395   -1.9058    0.0000 N   0  0  0  0  0  0  0  0  0  0  0  0
   11.8081   -0.2119    0.0000 N   0  0  0  0  0  0  0  0  0  0  0  0
    3.5522    4.5313    0.0000 N   0  0  0  0  0  0  0  0  0  0  0  0
   14.4062   -0.7119    0.0000 N   0  0  0  0  0  0  0  0  0  0  0  0
   14.4062    1.2880    0.0000 N   0  0  0  0  0  0  0  0  0  0  0  0
    5.6984   -0.6187    0.0000 C   0  0  1  0  0  0  0  0  0  0  0  0
    5.5293    0.9905    0.0000 C   0  0  2  0  0  0  0  0  0  0  0  0
    5.0293    0.1245    0.0000 C   0  0  0  0  0  0  0  0  0  0  0  0
    6.5074    0.7826    0.0000 C   0  0  0  0  0  0  0  0  0  0  0  0
    7.4780   -0.7119    0.0000 C   0  0  0  0  0  0  0  0  0  0  0  0
    8.3440   -0.2119    0.0000 C   0  0  2  0  0  0  0  0  0  0  0  0
    5.4905   -1.5968    0.0000 C   0  0  0  0  0  0  0  0  0  0  0  0
    8.3440    0.7881    0.0000 C   0  0  0  0  0  0  0  0  0  0  0  0
    4.1280    2.0086    0.0000 C   0  0  0  0  0  0  0  0  0  0  0  0
    9.2100    1.2880    0.0000 C   0  0  0  0  0  0  0  0  0  0  0  0
    7.4780    1.2880    0.0000 C   0  0  0  0  0  0  0  0  0  0  0  0
    4.3315   -2.8840    0.0000 C   0  0  1  0  0  0  0  0  0  0  0  0
   10.0761   -0.2119    0.0000 C   0  0  0  0  0  0  0  0  0  0  0  0
   10.9421   -0.7119    0.0000 C   0  0  2  0  0  0  0  0  0  0  0  0
    3.7213    2.9221    0.0000 C   0  0  0  0  0  0  0  0  0  0  0  0
   10.9421   -1.7120    0.0000 C   0  0  0  0  0  0  0  0  0  0  0  0
    5.0747   -3.5531    0.0000 C   0  0  0  0  0  0  0  0  0  0  0  0
    3.3805   -3.1930    0.0000 C   0  0  0  0  0  0  0  0  0  0  0  0
    2.7431    3.1300    0.0000 C   0  0  0  0  0  0  0  0  0  0  0  0
    4.2213    3.7881    0.0000 C   0  0  0  0  0  0  0  0  0  0  0  0
   10.0761   -2.2120    0.0000 C   0  0  0  0  0  0  0  0  0  0  0  0
   11.8081   -2.2120    0.0000 C   0  0  0  0  0  0  0  0  0  0  0  0
    4.8668   -4.5313    0.0000 C   0  0  0  0  0  0  0  0  0  0  0  0
    2.0000    2.4609    0.0000 C   0  0  0  0  0  0  0  0  0  0  0  0
    5.2158    3.8927    0.0000 C   0  0  0  0  0  0  0  0  0  0  0  0
   12.6741   -0.7119    0.0000 C   0  0  0  0  0  0  0  0  0  0  0  0
   13.5402   -0.2119    0.0000 C   0  0  0  0  0  0  0  0  0  0  0  0
   13.5402    0.7881    0.0000 C   0  0  0  0  0  0  0  0  0  0  0  0
   15.2722   -0.2119    0.0000 C   0  0  0  0  0  0  0  0  0  0  0  0
   15.2722    0.7881    0.0000 C   0  0  0  0  0  0  0  0  0  0  0  0
    6.1802   -1.0089    0.0000 H   0  0  0  0  0  0  0  0  0  0  0  0
    5.9195    1.4723    0.0000 H   0  0  0  0  0  0  0  0  0  0  0  0
    4.5277    0.4889    0.0000 H   0  0  0  0  0  0  0  0  0  0  0  0
    4.6144   -0.3363    0.0000 H   0  0  0  0  0  0  0  0  0  0  0  0
    7.1274    0.7826    0.0000 H   0  0  0  0  0  0  0  0  0  0  0  0
    6.5722    1.3992    0.0000 H   0  0  0  0  0  0  0  0  0  0  0  0
    8.3440   -0.8319    0.0000 H   0  0  0  0  0  0  0  0  0  0  0  0
    7.8071    0.4781    0.0000 H   0  0  0  0  0  0  0  0  0  0  0  0
    9.2100   -1.3320    0.0000 H   0  0  0  0  0  0  0  0  0  0  0  0
    4.0787   -1.4910    0.0000 H   0  0  0  0  0  0  0  0  0  0  0  0
    3.5264    1.8586    0.0000 H   0  0  0  0  0  0  0  0  0  0  0  0
    4.1713    1.3901    0.0000 H   0  0  0  0  0  0  0  0  0  0  0  0
    9.5200    0.7511    0.0000 H   0  0  0  0  0  0  0  0  0  0  0  0
    9.7470    1.5980    0.0000 H   0  0  0  0  0  0  0  0  0  0  0  0
    8.9000    1.8250    0.0000 H   0  0  0  0  0  0  0  0  0  0  0  0
    7.7880    1.8250    0.0000 H   0  0  0  0  0  0  0  0  0  0  0  0
    6.9410    1.5980    0.0000 H   0  0  0  0  0  0  0  0  0  0  0  0
    7.1680    0.7511    0.0000 H   0  0  0  0  0  0  0  0  0  0  0  0
    3.8708   -2.4691    0.0000 H   0  0  0  0  0  0  0  0  0  0  0  0
   10.9421   -0.0919    0.0000 H   0  0  0  0  0  0  0  0  0  0  0  0
   11.4790   -1.4020    0.0000 H   0  0  0  0  0  0  0  0  0  0  0  0
    5.6495   -3.7854    0.0000 H   0  0  0  0  0  0  0  0  0  0  0  0
    5.4032   -3.0273    0.0000 H   0  0  0  0  0  0  0  0  0  0  0  0
   11.8081    0.4081    0.0000 H   0  0  0  0  0  0  0  0  0  0  0  0
    2.9197   -2.7782    0.0000 H   0  0  0  0  0  0  0  0  0  0  0  0
    9.7661   -1.6750    0.0000 H   0  0  0  0  0  0  0  0  0  0  0  0
    9.5391   -2.5220    0.0000 H   0  0  0  0  0  0  0  0  0  0  0  0
   10.3861   -2.7489    0.0000 H   0  0  0  0  0  0  0  0  0  0  0  0
   11.4981   -2.7489    0.0000 H   0  0  0  0  0  0  0  0  0  0  0  0
   12.3451   -2.5220    0.0000 H   0  0  0  0  0  0  0  0  0  0  0  0
   12.1181   -1.6750    0.0000 H   0  0  0  0  0  0  0  0  0  0  0  0
    4.2603   -4.4024    0.0000 H   0  0  0  0  0  0  0  0  0  0  0  0
    4.7379   -5.1377    0.0000 H   0  0  0  0  0  0  0  0  0  0  0  0
    5.4732   -4.6602    0.0000 H   0  0  0  0  0  0  0  0  0  0  0  0
    1.5851    2.9216    0.0000 H   0  0  0  0  0  0  0  0  0  0  0  0
    1.5392    2.0460    0.0000 H   0  0  0  0  0  0  0  0  0  0  0  0
    2.4149    2.0001    0.0000 H   0  0  0  0  0  0  0  0  0  0  0  0
    5.2806    3.2761    0.0000 H   0  0  0  0  0  0  0  0  0  0  0  0
    5.8324    3.9575    0.0000 H   0  0  0  0  0  0  0  0  0  0  0  0
    5.1510    4.5093    0.0000 H   0  0  0  0  0  0  0  0  0  0  0  0
   13.0032    1.0980    0.0000 H   0  0  0  0  0  0  0  0  0  0  0  0
   15.8092   -0.5219    0.0000 H   0  0  0  0  0  0  0  0  0  0  0  0
   15.8092    1.0980    0.0000 H   0  0  0  0  0  0  0  0  0  0  0  0
 16  1  1  1  0  0  0
  1 23  1  0  0  0  0
  2 19  2  0  0  0  0
  3 21  2  0  0  0  0
  4 27  2  0  0  0  0
  5 12  1  0  0  0  0
  5 33  1  0  0  0  0
  6 32  2  0  0  0  0
  7 40  2  0  0  0  0
  8 15  1  0  0  0  0
  8 18  1  0  0  0  0
  8 19  1  0  0  0  0
 20  9  1  6  0  0  0
  9 27  1  0  0  0  0
  9 53  1  0  0  0  0
 10 21  1  0  0  0  0
 26 10  1  1  0  0  0
 10 54  1  0  0  0  0
 28 11  1  1  0  0  0
 11 40  1  0  0  0  0
 11 68  1  0  0  0  0
 12 34  2  0  0  0  0
 13 41  2  0  0  0  0
 13 43  1  0  0  0  0
 14 42  2  0  0  0  0
 14 44  1  0  0  0  0
 15 17  1  0  0  0  0
 15 21  1  6  0  0  0
 15 45  1  0  0  0  0
 16 17  1  0  0  0  0
 16 18  1  0  0  0  0
 16 46  1  0  0  0  0
 17 47  1  0  0  0  0
 17 48  1  0  0  0  0
 18 49  1  0  0  0  0
 18 50  1  0  0  0  0
 19 20  1  0  0  0  0
 20 22  1  0  0  0  0
 20 51  1  0  0  0  0
 22 24  1  0  0  0  0
 22 25  1  0  0  0  0
 22 52  1  0  0  0  0
 23 29  1  0  0  0  0
 23 55  1  0  0  0  0
 23 56  1  0  0  0  0
 24 57  1  0  0  0  0
 24 58  1  0  0  0  0
 24 59  1  0  0  0  0
 25 60  1  0  0  0  0
 25 61  1  0  0  0  0
 25 62  1  0  0  0  0
 26 31  1  0  0  0  0
 26 32  1  0  0  0  0
 26 63  1  0  0  0  0
 27 28  1  0  0  0  0
 28 30  1  0  0  0  0
 28 64  1  0  0  0  0
 29 33  2  0  0  0  0
 29 34  1  0  0  0  0
 30 35  1  0  0  0  0
 30 36  1  0  0  0  0
 30 65  1  0  0  0  0
 31 37  1  0  0  0  0
 31 66  1  0  0  0  0
 31 67  1  0  0  0  0
 32 69  1  0  0  0  0
 33 38  1  0  0  0  0
 34 39  1  0  0  0  0
 35 70  1  0  0  0  0
 35 71  1  0  0  0  0
 35 72  1  0  0  0  0
 36 73  1  0  0  0  0
 36 74  1  0  0  0  0
 36 75  1  0  0  0  0
 37 76  1  0  0  0  0
 37 77  1  0  0  0  0
 37 78  1  0  0  0  0
 38 79  1  0  0  0  0
 38 80  1  0  0  0  0
 38 81  1  0  0  0  0
 39 82  1  0  0  0  0
 39 83  1  0  0  0  0
 39 84  1  0  0  0  0
 40 41  1  0  0  0  0
 41 42  1  0  0  0  0
 42 85  1  0  0  0  0
 43 44  2  0  0  0  0
 43 86  1  0  0  0  0
 44 87  1  0  0  0  0
M  END
> <PUBCHEM_COMPOUND_CID>
506638
> <PUBCHEM_COMPOUND_CANONICALIZED>
1
> <PUBCHEM_CACTVS_COMPLEXITY>
1010
> <PUBCHEM_CACTVS_HBOND_ACCEPTOR>
10
> <PUBCHEM_CACTVS_HBOND_DONOR>
3
> <PUBCHEM_CACTVS_ROTATABLE_BOND>
14
> <PUBCHEM_CACTVS_SUBSKEYS>
AAADcfB7uAAAAAAAAAAAAAAAAAAAAWLAAAAsAAAAAAAAAAAB4AAAHgAUAAAADTzhngYuhJPYFACpA5131gCAgCQ3MiAoWKG8fFoCZ15A4LoXEYhnNhjYacI6AQAKAAAAAAAAAAAAAAAAAAAAAAAAAAAAAA==
> <PUBCHEM_IUPAC_OPENEYE_NAME>
N-[(1S)-1-[[(1S)-1-[(2S,4R)-4-[(3,5-dimethylisoxazol-4-yl)methoxy]-2-[[(1S)-1-formylpropyl]carbamoyl]pyrrolidine-1-carbonyl]-2-methyl-propyl]carbamoyl]-2-methyl-propyl]pyrazine-2-carboxamide
> <PUBCHEM_IUPAC_CAS_NAME>
N-[(2S)-1-[[(2S)-1-[(2S,4R)-4-[(3,5-dimethyl-4-isoxazolyl)methoxy]-2-[oxo-[[(2S)-1-oxobutan-2-yl]amino]methyl]-1-pyrrolidinyl]-3-methyl-1-oxobutan-2-yl]amino]-3-methyl-1-oxobutan-2-yl]-2-pyrazinecarboxamide
> <PUBCHEM_IUPAC_NAME_MARKUP>
<I>N</I>-[(2<I>S</I>)-1-[[(2<I>S</I>)-1-[(2<I>S</I>,4<I>R</I>)-4-[(3,5-dimethyl-1,2-oxazol-4-yl)methoxy]-2-[[(2<I>S</I>)-1-oxobutan-2-yl]carbamoyl]pyrrolidin-1-yl]-3-methyl-1-oxobutan-2-yl]amino]-3-methyl-1-oxobutan-2-yl]pyrazine-2-carboxamide
> <PUBCHEM_IUPAC_NAME>
N-[(2S)-1-[[(2S)-1-[(2S,4R)-4-[(3,5-dimethyl-1,2-oxazol-4-yl)methoxy]-2-[[(2S)-1-oxobutan-2-yl]carbamoyl]pyrrolidin-1-yl]-3-methyl-1-oxobutan-2-yl]amino]-3-methyl-1-oxobutan-2-yl]pyrazine-2-carboxamide
> <PUBCHEM_IUPAC_SYSTEMATIC_NAME>
N-[(2S)-1-[[(2S)-1-[(2S,4R)-4-[(3,5-dimethyl-1,2-oxazol-4-yl)methoxy]-2-[[(2S)-1-oxidanylidenebutan-2-yl]carbamoyl]pyrrolidin-1-yl]-3-methyl-1-oxidanylidene-butan-2-yl]amino]-3-methyl-1-oxidanylidene-butan-2-yl]pyrazine-2-carboxamide
> <PUBCHEM_IUPAC_TRADITIONAL_NAME>
N-[(1S)-1-[[(1S)-1-[(2S,4R)-4-[(3,5-dimethylisoxazol-4-yl)methoxy]-2-[[(1S)-1-formylpropyl]carbamoyl]pyrrolidine-1-carbonyl]-2-methyl-propyl]carbamoyl]-2-methyl-propyl]pyrazinamide
> <PUBCHEM_IUPAC_INCHI>
InChI=1S/C30H43N7O7/c1-8-20(14-38)33-28(40)24-11-21(43-15-22-18(6)36-44-19(22)7)13-37(24)30(42)26(17(4)5)35-29(41)25(16(2)3)34-27(39)23-12-31-9-10-32-23/h9-10,12,14,16-17,20-21,24-26H,8,11,13,15H2,1-7H3,(H,33,40)(H,34,39)(H,35,41)/t20-,21+,24-,25-,26-/m0/s1
> <PUBCHEM_IUPAC_INCHIKEY>
PBEIQGQYJYZZLU-ZLPRUYCRSA-N
> <PUBCHEM_XLOGP3_AA>
1.6
> <PUBCHEM_EXACT_MASS>
613.32239674
> <PUBCHEM_MOLECULAR_FORMULA>
C30H43N7O7
> <PUBCHEM_MOLECULAR_WEIGHT>
613.7
> <PUBCHEM_OPENEYE_CAN_SMILES>
CCC(C=O)NC(=O)C1CC(CN1C(=O)C(C(C)C)NC(=O)C(C(C)C)NC(=O)C2=NC=CN=C2)OCC3=C(ON=C3C)C
> <PUBCHEM_OPENEYE_ISO_SMILES>
CC[C@@H](C=O)NC(=O)[C@@H]1C[C@H](CN1C(=O)[C@H](C(C)C)NC(=O)[C@H](C(C)C)NC(=O)C2=NC=CN=C2)OCC3=C(ON=C3C)C
> <PUBCHEM_CACTVS_TPSA>
186
> <PUBCHEM_MONOISOTOPIC_WEIGHT>
613.32239674
> <PUBCHEM_TOTAL_CHARGE>
0
> <PUBCHEM_HEAVY_ATOM_COUNT>
44
> <PUBCHEM_ATOM_DEF_STEREO_COUNT>
5
> <PUBCHEM_ATOM_UDEF_STEREO_COUNT>
0
> <PUBCHEM_BOND_DEF_STEREO_COUNT>
0
> <PUBCHEM_BOND_UDEF_STEREO_COUNT>
0
> <PUBCHEM_ISOTOPIC_ATOM_COUNT>
0
> <PUBCHEM_COMPONENT_COUNT>
1
> <PUBCHEM_CACTVS_TAUTO_COUNT>
-1
> <PUBCHEM_COORDINATE_TYPE>
1
5
255
> <PUBCHEM_BONDANNOTATIONS>
16  1  5
26  10  5
28  11  5
12  34  8
13  41  8
13  43  8
14  42  8
14  44  8
15  21  6
29  33  8
29  34  8
41  42  8
43  44  8
5  12  8
5  33  8
20  9  6
$$$$
