506646
  -OEChem-10302200282D
 91 94  0     1  0  0  0  0  0999 V2000
   11.4550    0.4991    0.0000 O   0  0  0  0  0  0  0  0  0  0  0  0
    7.4240   -1.0418    0.0000 O   0  0  0  0  0  0  0  0  0  0  0  0
    8.1050   -2.2214    0.0000 O   0  0  0  0  0  0  0  0  0  0  0  0
    6.7916    2.5078    0.0000 O   0  0  0  0  0  0  0  0  0  0  0  0
    9.4616   -5.5620    0.0000 O   0  0  0  0  0  0  0  0  0  0  0  0
    3.2202    2.0124    0.0000 O   0  0  0  0  0  0  0  0  0  0  0  0
    9.0063   -0.3373    0.0000 N   0  0  0  0  0  0  0  0  0  0  0  0
    6.6105    0.7853    0.0000 N   0  0  0  0  0  0  0  0  0  0  0  0
    9.6873   -2.9259    0.0000 N   0  0  0  0  0  0  0  0  0  0  0  0
    4.8025    2.7169    0.0000 N   0  0  0  0  0  0  0  0  0  0  0  0
    3.9890    4.5440    0.0000 N   0  0  0  0  0  0  0  0  0  0  0  0
    2.0000    4.7530    0.0000 N   0  0  0  0  0  0  0  0  0  0  0  0
    9.5063   -1.2034    0.0000 C   0  0  3  0  0  0  0  0  0  0  0  0
   10.5890   -0.0009    0.0000 C   0  0  3  0  0  0  0  0  0  0  0  0
   10.4844   -0.9955    0.0000 C   0  0  0  0  0  0  0  0  0  0  0  0
    9.6754    0.4058    0.0000 C   0  0  0  0  0  0  0  0  0  0  0  0
    8.0118   -0.2328    0.0000 C   0  0  0  0  0  0  0  0  0  0  0  0
    7.6050    0.6807    0.0000 C   0  0  3  0  0  0  0  0  0  0  0  0
    9.0996   -2.1169    0.0000 C   0  0  0  0  0  0  0  0  0  0  0  0
    8.1928    1.4897    0.0000 C   0  0  0  0  0  0  0  0  0  0  0  0
   12.3210   -0.0009    0.0000 C   0  0  0  0  0  0  0  0  0  0  0  0
    7.7861    2.4033    0.0000 C   0  0  0  0  0  0  0  0  0  0  0  0
    9.1873    1.3852    0.0000 C   0  0  0  0  0  0  0  0  0  0  0  0
    9.2806   -3.8395    0.0000 C   0  0  3  0  0  0  0  0  0  0  0  0
    6.2038    1.6988    0.0000 C   0  0  0  0  0  0  0  0  0  0  0  0
    5.2092    1.8033    0.0000 C   0  0  3  0  0  0  0  0  0  0  0  0
    4.6215    0.9943    0.0000 C   0  0  0  0  0  0  0  0  0  0  0  0
   13.1870    0.4991    0.0000 C   0  0  0  0  0  0  0  0  0  0  0  0
    8.2861   -3.9440    0.0000 C   0  0  0  0  0  0  0  0  0  0  0  0
    9.8684   -4.6485    0.0000 C   0  0  0  0  0  0  0  0  0  0  0  0
    3.6270    1.0988    0.0000 C   0  0  0  0  0  0  0  0  0  0  0  0
    5.0282    0.0808    0.0000 C   0  0  0  0  0  0  0  0  0  0  0  0
   14.0531   -0.0009    0.0000 C   0  0  0  0  0  0  0  0  0  0  0  0
   13.1870    1.4991    0.0000 C   0  0  0  0  0  0  0  0  0  0  0  0
    7.8794   -4.8576    0.0000 C   0  0  0  0  0  0  0  0  0  0  0  0
   14.9191    0.4991    0.0000 C   0  0  0  0  0  0  0  0  0  0  0  0
   14.0531    1.9991    0.0000 C   0  0  0  0  0  0  0  0  0  0  0  0
   14.9191    1.4991    0.0000 C   0  0  0  0  0  0  0  0  0  0  0  0
    3.8080    2.8214    0.0000 C   0  0  0  0  0  0  0  0  0  0  0  0
   15.8130   -0.0356    0.0000 C   0  0  0  0  0  0  0  0  0  0  0  0
   15.8130    2.0337    0.0000 C   0  0  0  0  0  0  0  0  0  0  0  0
    3.4013    3.7350    0.0000 C   0  0  0  0  0  0  0  0  0  0  0  0
   16.7191    0.4782    0.0000 C   0  0  0  0  0  0  0  0  0  0  0  0
   16.7191    1.5199    0.0000 C   0  0  0  0  0  0  0  0  0  0  0  0
    2.4067    3.8395    0.0000 C   0  0  0  0  0  0  0  0  0  0  0  0
    3.5823    5.4575    0.0000 C   0  0  0  0  0  0  0  0  0  0  0  0
    2.5878    5.5620    0.0000 C   0  0  0  0  0  0  0  0  0  0  0  0
    8.8871   -1.2358    0.0000 H   0  0  0  0  0  0  0  0  0  0  0  0
   11.1089   -0.3386    0.0000 H   0  0  0  0  0  0  0  0  0  0  0  0
   10.5492   -1.6121    0.0000 H   0  0  0  0  0  0  0  0  0  0  0  0
   11.1044   -0.9955    0.0000 H   0  0  0  0  0  0  0  0  0  0  0  0
    9.9854    0.9427    0.0000 H   0  0  0  0  0  0  0  0  0  0  0  0
    9.1738    0.7702    0.0000 H   0  0  0  0  0  0  0  0  0  0  0  0
    7.2406    0.1791    0.0000 H   0  0  0  0  0  0  0  0  0  0  0  0
    8.5572    1.9913    0.0000 H   0  0  0  0  0  0  0  0  0  0  0  0
    6.2461    0.2837    0.0000 H   0  0  0  0  0  0  0  0  0  0  0  0
   10.3039   -2.8611    0.0000 H   0  0  0  0  0  0  0  0  0  0  0  0
   11.9225   -0.4759    0.0000 H   0  0  0  0  0  0  0  0  0  0  0  0
   12.7195   -0.4759    0.0000 H   0  0  0  0  0  0  0  0  0  0  0  0
    8.3525    2.6555    0.0000 H   0  0  0  0  0  0  0  0  0  0  0  0
    7.5339    2.9697    0.0000 H   0  0  0  0  0  0  0  0  0  0  0  0
    7.2197    2.1511    0.0000 H   0  0  0  0  0  0  0  0  0  0  0  0
    9.1225    0.7686    0.0000 H   0  0  0  0  0  0  0  0  0  0  0  0
    9.8040    1.3204    0.0000 H   0  0  0  0  0  0  0  0  0  0  0  0
    9.2522    2.0018    0.0000 H   0  0  0  0  0  0  0  0  0  0  0  0
    8.9162   -3.3379    0.0000 H   0  0  0  0  0  0  0  0  0  0  0  0
    5.5737    2.3049    0.0000 H   0  0  0  0  0  0  0  0  0  0  0  0
    5.2381    0.9295    0.0000 H   0  0  0  0  0  0  0  0  0  0  0  0
    8.3293   -3.3255    0.0000 H   0  0  0  0  0  0  0  0  0  0  0  0
    7.6845   -3.7940    0.0000 H   0  0  0  0  0  0  0  0  0  0  0  0
    5.1669    3.2185    0.0000 H   0  0  0  0  0  0  0  0  0  0  0  0
   10.4850   -4.5837    0.0000 H   0  0  0  0  0  0  0  0  0  0  0  0
    3.6918    1.7154    0.0000 H   0  0  0  0  0  0  0  0  0  0  0  0
    3.0103    1.1636    0.0000 H   0  0  0  0  0  0  0  0  0  0  0  0
    3.5621    0.4822    0.0000 H   0  0  0  0  0  0  0  0  0  0  0  0
    4.4618   -0.1714    0.0000 H   0  0  0  0  0  0  0  0  0  0  0  0
    5.2804   -0.4856    0.0000 H   0  0  0  0  0  0  0  0  0  0  0  0
    5.5946    0.3329    0.0000 H   0  0  0  0  0  0  0  0  0  0  0  0
   14.0531   -0.6209    0.0000 H   0  0  0  0  0  0  0  0  0  0  0  0
   12.6501    1.8091    0.0000 H   0  0  0  0  0  0  0  0  0  0  0  0
    7.3130   -4.6054    0.0000 H   0  0  0  0  0  0  0  0  0  0  0  0
    7.6272   -5.4239    0.0000 H   0  0  0  0  0  0  0  0  0  0  0  0
    8.4457   -5.1097    0.0000 H   0  0  0  0  0  0  0  0  0  0  0  0
   14.0531    2.6191    0.0000 H   0  0  0  0  0  0  0  0  0  0  0  0
   15.8059   -0.6556    0.0000 H   0  0  0  0  0  0  0  0  0  0  0  0
   15.8059    2.6537    0.0000 H   0  0  0  0  0  0  0  0  0  0  0  0
   17.2548    0.1662    0.0000 H   0  0  0  0  0  0  0  0  0  0  0  0
   17.2548    1.8320    0.0000 H   0  0  0  0  0  0  0  0  0  0  0  0
    2.0423    3.3379    0.0000 H   0  0  0  0  0  0  0  0  0  0  0  0
    3.9467    5.9591    0.0000 H   0  0  0  0  0  0  0  0  0  0  0  0
    2.3356    6.1284    0.0000 H   0  0  0  0  0  0  0  0  0  0  0  0
  1 14  1  0  0  0  0
  1 21  1  0  0  0  0
  2 17  2  0  0  0  0
  3 19  2  0  0  0  0
  4 25  2  0  0  0  0
  5 30  2  0  0  0  0
  6 39  2  0  0  0  0
  7 13  1  0  0  0  0
  7 16  1  0  0  0  0
  7 17  1  0  0  0  0
  8 18  1  0  0  0  0
  8 25  1  0  0  0  0
  8 56  1  0  0  0  0
  9 19  1  0  0  0  0
  9 24  1  0  0  0  0
  9 57  1  0  0  0  0
 10 26  1  0  0  0  0
 10 39  1  0  0  0  0
 10 71  1  0  0  0  0
 11 42  2  0  0  0  0
 11 46  1  0  0  0  0
 12 45  2  0  0  0  0
 12 47  1  0  0  0  0
 13 15  1  0  0  0  0
 13 19  1  0  0  0  0
 13 48  1  0  0  0  0
 14 15  1  0  0  0  0
 14 16  1  0  0  0  0
 14 49  1  0  0  0  0
 15 50  1  0  0  0  0
 15 51  1  0  0  0  0
 16 52  1  0  0  0  0
 16 53  1  0  0  0  0
 17 18  1  0  0  0  0
 18 20  1  0  0  0  0
 18 54  1  0  0  0  0
 20 22  1  0  0  0  0
 20 23  1  0  0  0  0
 20 55  1  0  0  0  0
 21 28  1  0  0  0  0
 21 58  1  0  0  0  0
 21 59  1  0  0  0  0
 22 60  1  0  0  0  0
 22 61  1  0  0  0  0
 22 62  1  0  0  0  0
 23 63  1  0  0  0  0
 23 64  1  0  0  0  0
 23 65  1  0  0  0  0
 24 29  1  0  0  0  0
 24 30  1  0  0  0  0
 24 66  1  0  0  0  0
 25 26  1  0  0  0  0
 26 27  1  0  0  0  0
 26 67  1  0  0  0  0
 27 31  1  0  0  0  0
 27 32  1  0  0  0  0
 27 68  1  0  0  0  0
 28 33  2  0  0  0  0
 28 34  1  0  0  0  0
 29 35  1  0  0  0  0
 29 69  1  0  0  0  0
 29 70  1  0  0  0  0
 30 72  1  0  0  0  0
 31 73  1  0  0  0  0
 31 74  1  0  0  0  0
 31 75  1  0  0  0  0
 32 76  1  0  0  0  0
 32 77  1  0  0  0  0
 32 78  1  0  0  0  0
 33 36  1  0  0  0  0
 33 79  1  0  0  0  0
 34 37  2  0  0  0  0
 34 80  1  0  0  0  0
 35 81  1  0  0  0  0
 35 82  1  0  0  0  0
 35 83  1  0  0  0  0
 36 38  1  0  0  0  0
 36 40  2  0  0  0  0
 37 38  1  0  0  0  0
 37 84  1  0  0  0  0
 38 41  2  0  0  0  0
 39 42  1  0  0  0  0
 40 43  1  0  0  0  0
 40 85  1  0  0  0  0
 41 44  1  0  0  0  0
 41 86  1  0  0  0  0
 42 45  1  0  0  0  0
 43 44  2  0  0  0  0
 43 87  1  0  0  0  0
 44 88  1  0  0  0  0
 45 89  1  0  0  0  0
 46 47  2  0  0  0  0
 46 90  1  0  0  0  0
 47 91  1  0  0  0  0
M  END
> <PUBCHEM_COMPOUND_CID>
506646
> <PUBCHEM_COMPOUND_CANONICALIZED>
1
> <PUBCHEM_CACTVS_COMPLEXITY>
1090
> <PUBCHEM_CACTVS_HBOND_ACCEPTOR>
8
> <PUBCHEM_CACTVS_HBOND_DONOR>
3
> <PUBCHEM_CACTVS_ROTATABLE_BOND>
14
> <PUBCHEM_CACTVS_SUBSKEYS>
AAADcfB/uAAAAAAAAAAAAAAAAAAAAWAAAAA8YIAAAAAAAADB1AAAHgAQAAAADTzhngY+gNPIFACoAz131ACCgCQ3EiAI2IG4fMgKZnrA8TiXMIgm1gHYqMe6wfAOwAACAAAQAACAAAQAACAAAAAAAAAAAA==
> <PUBCHEM_IUPAC_OPENEYE_NAME>
N-[1-[[1-[2-(1-formylpropylcarbamoyl)-4-(2-naphthylmethoxy)pyrrolidine-1-carbonyl]-2-methyl-propyl]carbamoyl]-2-methyl-propyl]pyrazine-2-carboxamide
> <PUBCHEM_IUPAC_CAS_NAME>
N-[3-methyl-1-[[3-methyl-1-[4-(2-naphthalenylmethoxy)-2-[oxo-(1-oxobutan-2-ylamino)methyl]-1-pyrrolidinyl]-1-oxobutan-2-yl]amino]-1-oxobutan-2-yl]-2-pyrazinecarboxamide
> <PUBCHEM_IUPAC_NAME_MARKUP>
<I>N</I>-[3-methyl-1-[[3-methyl-1-[4-(naphthalen-2-ylmethoxy)-2-(1-oxobutan-2-ylcarbamoyl)pyrrolidin-1-yl]-1-oxobutan-2-yl]amino]-1-oxobutan-2-yl]pyrazine-2-carboxamide
> <PUBCHEM_IUPAC_NAME>
N-[3-methyl-1-[[3-methyl-1-[4-(naphthalen-2-ylmethoxy)-2-(1-oxobutan-2-ylcarbamoyl)pyrrolidin-1-yl]-1-oxobutan-2-yl]amino]-1-oxobutan-2-yl]pyrazine-2-carboxamide
> <PUBCHEM_IUPAC_SYSTEMATIC_NAME>
N-[3-methyl-1-[[3-methyl-1-[4-(naphthalen-2-ylmethoxy)-2-(1-oxidanylidenebutan-2-ylcarbamoyl)pyrrolidin-1-yl]-1-oxidanylidene-butan-2-yl]amino]-1-oxidanylidene-butan-2-yl]pyrazine-2-carboxamide
> <PUBCHEM_IUPAC_TRADITIONAL_NAME>
N-[1-[[1-[2-(1-formylpropylcarbamoyl)-4-(2-naphthylmethoxy)pyrrolidine-1-carbonyl]-2-methyl-propyl]carbamoyl]-2-methyl-propyl]pyrazinamide
> <PUBCHEM_IUPAC_INCHI>
InChI=1S/C35H44N6O6/c1-6-26(19-42)38-33(44)29-16-27(47-20-23-11-12-24-9-7-8-10-25(24)15-23)18-41(29)35(46)31(22(4)5)40-34(45)30(21(2)3)39-32(43)28-17-36-13-14-37-28/h7-15,17,19,21-22,26-27,29-31H,6,16,18,20H2,1-5H3,(H,38,44)(H,39,43)(H,40,45)
> <PUBCHEM_IUPAC_INCHIKEY>
XVTHVTNFGGJYAA-UHFFFAOYSA-N
> <PUBCHEM_XLOGP3_AA>
3.6
> <PUBCHEM_EXACT_MASS>
644.33223314
> <PUBCHEM_MOLECULAR_FORMULA>
C35H44N6O6
> <PUBCHEM_MOLECULAR_WEIGHT>
644.8
> <PUBCHEM_OPENEYE_CAN_SMILES>
CCC(C=O)NC(=O)C1CC(CN1C(=O)C(C(C)C)NC(=O)C(C(C)C)NC(=O)C2=NC=CN=C2)OCC3=CC4=CC=CC=C4C=C3
> <PUBCHEM_OPENEYE_ISO_SMILES>
CCC(C=O)NC(=O)C1CC(CN1C(=O)C(C(C)C)NC(=O)C(C(C)C)NC(=O)C2=NC=CN=C2)OCC3=CC4=CC=CC=C4C=C3
> <PUBCHEM_CACTVS_TPSA>
160
> <PUBCHEM_MONOISOTOPIC_WEIGHT>
644.33223314
> <PUBCHEM_TOTAL_CHARGE>
0
> <PUBCHEM_HEAVY_ATOM_COUNT>
47
> <PUBCHEM_ATOM_DEF_STEREO_COUNT>
0
> <PUBCHEM_ATOM_UDEF_STEREO_COUNT>
5
> <PUBCHEM_BOND_DEF_STEREO_COUNT>
0
> <PUBCHEM_BOND_UDEF_STEREO_COUNT>
0
> <PUBCHEM_ISOTOPIC_ATOM_COUNT>
0
> <PUBCHEM_COMPONENT_COUNT>
1
> <PUBCHEM_CACTVS_TAUTO_COUNT>
-1
> <PUBCHEM_COORDINATE_TYPE>
1
5
255
> <PUBCHEM_BONDANNOTATIONS>
14  1  3
11  42  8
11  46  8
12  45  8
12  47  8
13  19  3
18  20  3
24  29  3
26  27  3
28  33  8
28  34  8
33  36  8
34  37  8
36  38  8
36  40  8
37  38  8
38  41  8
40  43  8
41  44  8
42  45  8
43  44  8
46  47  8
$$$$
