506629
  -OEChem-10302200282D
 90 93  0     1  0  0  0  0  0999 V2000
    8.2363   -1.7932    0.0000 O   0  0  0  0  0  0  0  0  0  0  0  0
    6.2824    2.0546    0.0000 O   0  0  0  0  0  0  0  0  0  0  0  0
    5.1805    1.2540    0.0000 O   0  0  0  0  0  0  0  0  0  0  0  0
    9.7465    3.0546    0.0000 O   0  0  0  0  0  0  0  0  0  0  0  0
    9.7263   -4.4668    0.0000 O   0  0  0  0  0  0  0  0  0  0  0  0
    2.0000   -0.4444    0.0000 O   0  0  0  0  0  0  0  0  0  0  0  0
    8.8805    6.5546    0.0000 O   0  0  0  0  0  0  0  0  0  0  0  0
    7.1485    0.5546    0.0000 N   0  0  0  0  0  0  0  0  0  0  0  0
    8.0145    3.0546    0.0000 N   0  0  0  0  0  0  0  0  0  0  0  0
    4.6453   -0.3933    0.0000 N   0  0  0  0  0  0  0  0  0  0  0  0
    9.7465    5.0546    0.0000 N   0  0  0  0  0  0  0  0  0  0  0  0
    8.1083   -4.4668    0.0000 N   0  0  0  0  0  0  0  0  0  0  0  0
    9.4173   -3.5158    0.0000 N   0  0  0  0  0  0  0  0  0  0  0  0
   11.4786    6.0546    0.0000 N   0  0  0  0  0  0  0  0  0  0  0  0
   11.4786    8.0546    0.0000 N   0  0  0  0  0  0  0  0  0  0  0  0
    6.3395   -0.0332    0.0000 C   0  0  1  0  0  0  0  0  0  0  0  0
    7.6485   -0.9842    0.0000 C   0  0  2  0  0  0  0  0  0  0  0  0
    6.6485   -0.9842    0.0000 C   0  0  0  0  0  0  0  0  0  0  0  0
    7.9575   -0.0332    0.0000 C   0  0  0  0  0  0  0  0  0  0  0  0
    7.1485    1.5546    0.0000 C   0  0  0  0  0  0  0  0  0  0  0  0
    8.0145    2.0546    0.0000 C   0  0  2  0  0  0  0  0  0  0  0  0
    5.3884    0.2759    0.0000 C   0  0  0  0  0  0  0  0  0  0  0  0
    8.8805    1.5546    0.0000 C   0  0  0  0  0  0  0  0  0  0  0  0
    9.7465    2.0546    0.0000 C   0  0  0  0  0  0  0  0  0  0  0  0
    8.8805    0.5546    0.0000 C   0  0  0  0  0  0  0  0  0  0  0  0
    7.8295   -2.7068    0.0000 C   0  0  0  0  0  0  0  0  0  0  0  0
    3.6942   -0.0843    0.0000 C   0  0  1  0  0  0  0  0  0  0  0  0
    8.8805    3.5546    0.0000 C   0  0  0  0  0  0  0  0  0  0  0  0
    8.8805    4.5546    0.0000 C   0  0  2  0  0  0  0  0  0  0  0  0
    8.0145    5.0546    0.0000 C   0  0  0  0  0  0  0  0  0  0  0  0
    3.4863    0.8939    0.0000 C   0  0  0  0  0  0  0  0  0  0  0  0
    8.4173   -3.5158    0.0000 C   0  0  0  0  0  0  0  0  0  0  0  0
    2.9511   -0.7534    0.0000 C   0  0  0  0  0  0  0  0  0  0  0  0
    8.0145    6.0546    0.0000 C   0  0  0  0  0  0  0  0  0  0  0  0
    7.1485    4.5546    0.0000 C   0  0  0  0  0  0  0  0  0  0  0  0
    2.5352    1.2029    0.0000 C   0  0  0  0  0  0  0  0  0  0  0  0
    9.7465    6.0546    0.0000 C   0  0  0  0  0  0  0  0  0  0  0  0
    8.9173   -5.0546    0.0000 C   0  0  0  0  0  0  0  0  0  0  0  0
   10.6126    6.5546    0.0000 C   0  0  0  0  0  0  0  0  0  0  0  0
    8.9173   -6.0546    0.0000 C   0  0  0  0  0  0  0  0  0  0  0  0
   10.6126    7.5546    0.0000 C   0  0  0  0  0  0  0  0  0  0  0  0
    9.7833   -6.5546    0.0000 C   0  0  0  0  0  0  0  0  0  0  0  0
    8.0513   -6.5546    0.0000 C   0  0  0  0  0  0  0  0  0  0  0  0
   12.3446    6.5546    0.0000 C   0  0  0  0  0  0  0  0  0  0  0  0
    9.7833   -7.5546    0.0000 C   0  0  0  0  0  0  0  0  0  0  0  0
    8.0513   -7.5546    0.0000 C   0  0  0  0  0  0  0  0  0  0  0  0
    8.9173   -8.0546    0.0000 C   0  0  0  0  0  0  0  0  0  0  0  0
   12.3446    7.5546    0.0000 C   0  0  0  0  0  0  0  0  0  0  0  0
    6.2425    0.5792    0.0000 H   0  0  0  0  0  0  0  0  0  0  0  0
    7.3670   -1.5366    0.0000 H   0  0  0  0  0  0  0  0  0  0  0  0
    6.0420   -1.1131    0.0000 H   0  0  0  0  0  0  0  0  0  0  0  0
    6.7133   -1.6008    0.0000 H   0  0  0  0  0  0  0  0  0  0  0  0
    8.5239   -0.2853    0.0000 H   0  0  0  0  0  0  0  0  0  0  0  0
    8.2675    0.5038    0.0000 H   0  0  0  0  0  0  0  0  0  0  0  0
    8.5514    2.3646    0.0000 H   0  0  0  0  0  0  0  0  0  0  0  0
    8.3436    1.2446    0.0000 H   0  0  0  0  0  0  0  0  0  0  0  0
    7.4776    3.3646    0.0000 H   0  0  0  0  0  0  0  0  0  0  0  0
    4.7742   -0.9997    0.0000 H   0  0  0  0  0  0  0  0  0  0  0  0
   10.0566    1.5177    0.0000 H   0  0  0  0  0  0  0  0  0  0  0  0
   10.2835    2.3646    0.0000 H   0  0  0  0  0  0  0  0  0  0  0  0
    9.4366    2.5916    0.0000 H   0  0  0  0  0  0  0  0  0  0  0  0
    8.2605    0.5546    0.0000 H   0  0  0  0  0  0  0  0  0  0  0  0
    8.8805   -0.0654    0.0000 H   0  0  0  0  0  0  0  0  0  0  0  0
    9.5005    0.5546    0.0000 H   0  0  0  0  0  0  0  0  0  0  0  0
    7.3155   -2.3601    0.0000 H   0  0  0  0  0  0  0  0  0  0  0  0
    7.3988   -3.1528    0.0000 H   0  0  0  0  0  0  0  0  0  0  0  0
    3.8231   -0.6907    0.0000 H   0  0  0  0  0  0  0  0  0  0  0  0
    9.4175    4.2446    0.0000 H   0  0  0  0  0  0  0  0  0  0  0  0
    8.5514    5.3646    0.0000 H   0  0  0  0  0  0  0  0  0  0  0  0
    4.1059    0.9155    0.0000 H   0  0  0  0  0  0  0  0  0  0  0  0
    3.5726    1.5079    0.0000 H   0  0  0  0  0  0  0  0  0  0  0  0
   10.2835    4.7446    0.0000 H   0  0  0  0  0  0  0  0  0  0  0  0
    3.0800   -1.3598    0.0000 H   0  0  0  0  0  0  0  0  0  0  0  0
    8.6345    6.0546    0.0000 H   0  0  0  0  0  0  0  0  0  0  0  0
    8.0145    6.6746    0.0000 H   0  0  0  0  0  0  0  0  0  0  0  0
    7.3945    6.0546    0.0000 H   0  0  0  0  0  0  0  0  0  0  0  0
    6.8385    5.0916    0.0000 H   0  0  0  0  0  0  0  0  0  0  0  0
    6.6115    4.2446    0.0000 H   0  0  0  0  0  0  0  0  0  0  0  0
    7.4585    4.0177    0.0000 H   0  0  0  0  0  0  0  0  0  0  0  0
    2.7268    1.7926    0.0000 H   0  0  0  0  0  0  0  0  0  0  0  0
    1.9456    1.3945    0.0000 H   0  0  0  0  0  0  0  0  0  0  0  0
    2.3436    0.6133    0.0000 H   0  0  0  0  0  0  0  0  0  0  0  0
   10.0756    7.8646    0.0000 H   0  0  0  0  0  0  0  0  0  0  0  0
   10.3203   -6.2446    0.0000 H   0  0  0  0  0  0  0  0  0  0  0  0
    7.5144   -6.2446    0.0000 H   0  0  0  0  0  0  0  0  0  0  0  0
   12.8816    6.2446    0.0000 H   0  0  0  0  0  0  0  0  0  0  0  0
   10.3203   -7.8646    0.0000 H   0  0  0  0  0  0  0  0  0  0  0  0
    7.5144   -7.8646    0.0000 H   0  0  0  0  0  0  0  0  0  0  0  0
    8.9173   -8.6746    0.0000 H   0  0  0  0  0  0  0  0  0  0  0  0
   12.8816    7.8646    0.0000 H   0  0  0  0  0  0  0  0  0  0  0  0
 17  1  1  6  0  0  0
  1 26  1  0  0  0  0
  2 20  2  0  0  0  0
  3 22  2  0  0  0  0
  4 28  2  0  0  0  0
  5 13  1  0  0  0  0
  5 38  1  0  0  0  0
  6 33  2  0  0  0  0
  7 37  2  0  0  0  0
  8 16  1  0  0  0  0
  8 19  1  0  0  0  0
  8 20  1  0  0  0  0
 21  9  1  1  0  0  0
  9 28  1  0  0  0  0
  9 57  1  0  0  0  0
 10 22  1  0  0  0  0
 27 10  1  6  0  0  0
 10 58  1  0  0  0  0
 29 11  1  6  0  0  0
 11 37  1  0  0  0  0
 11 72  1  0  0  0  0
 12 32  1  0  0  0  0
 12 38  2  0  0  0  0
 13 32  2  0  0  0  0
 14 39  2  0  0  0  0
 14 44  1  0  0  0  0
 15 41  2  0  0  0  0
 15 48  1  0  0  0  0
 16 18  1  0  0  0  0
 16 22  1  1  0  0  0
 16 49  1  0  0  0  0
 17 18  1  0  0  0  0
 17 19  1  0  0  0  0
 17 50  1  0  0  0  0
 18 51  1  0  0  0  0
 18 52  1  0  0  0  0
 19 53  1  0  0  0  0
 19 54  1  0  0  0  0
 20 21  1  0  0  0  0
 21 23  1  0  0  0  0
 21 55  1  0  0  0  0
 23 24  1  0  0  0  0
 23 25  1  0  0  0  0
 23 56  1  0  0  0  0
 24 59  1  0  0  0  0
 24 60  1  0  0  0  0
 24 61  1  0  0  0  0
 25 62  1  0  0  0  0
 25 63  1  0  0  0  0
 25 64  1  0  0  0  0
 26 32  1  0  0  0  0
 26 65  1  0  0  0  0
 26 66  1  0  0  0  0
 27 31  1  0  0  0  0
 27 33  1  0  0  0  0
 27 67  1  0  0  0  0
 28 29  1  0  0  0  0
 29 30  1  0  0  0  0
 29 68  1  0  0  0  0
 30 34  1  0  0  0  0
 30 35  1  0  0  0  0
 30 69  1  0  0  0  0
 31 36  1  0  0  0  0
 31 70  1  0  0  0  0
 31 71  1  0  0  0  0
 33 73  1  0  0  0  0
 34 74  1  0  0  0  0
 34 75  1  0  0  0  0
 34 76  1  0  0  0  0
 35 77  1  0  0  0  0
 35 78  1  0  0  0  0
 35 79  1  0  0  0  0
 36 80  1  0  0  0  0
 36 81  1  0  0  0  0
 36 82  1  0  0  0  0
 37 39  1  0  0  0  0
 38 40  1  0  0  0  0
 39 41  1  0  0  0  0
 40 42  2  0  0  0  0
 40 43  1  0  0  0  0
 41 83  1  0  0  0  0
 42 45  1  0  0  0  0
 42 84  1  0  0  0  0
 43 46  2  0  0  0  0
 43 85  1  0  0  0  0
 44 48  2  0  0  0  0
 44 86  1  0  0  0  0
 45 47  2  0  0  0  0
 45 87  1  0  0  0  0
 46 47  1  0  0  0  0
 46 88  1  0  0  0  0
 47 89  1  0  0  0  0
 48 90  1  0  0  0  0
M  END
> <PUBCHEM_COMPOUND_CID>
506629
> <PUBCHEM_COMPOUND_CANONICALIZED>
1
> <PUBCHEM_CACTVS_COMPLEXITY>
1100
> <PUBCHEM_CACTVS_HBOND_ACCEPTOR>
11
> <PUBCHEM_CACTVS_HBOND_DONOR>
3
> <PUBCHEM_CACTVS_ROTATABLE_BOND>
15
> <PUBCHEM_CACTVS_SUBSKEYS>
AAADcfB/+AAAAAAAAAAAAAAAAAAAAWLAAAA8QAAAAAAAAAAB8AAAHgAUAAAADTzhnwY/kJfYFACpAz939gSCgC03EqAp2KG4fNiKbvrA3TGXMYhm1wPYice6ySCOAAAAAAAAAAAAAAAAAAAAAAAAAAAAAA==
> <PUBCHEM_IUPAC_OPENEYE_NAME>
N-[(1S)-1-[[(1S)-1-[(2S,4R)-2-[[(1S)-1-formylpropyl]carbamoyl]-4-[(5-phenyl-1,2,4-oxadiazol-3-yl)methoxy]pyrrolidine-1-carbonyl]-2-methyl-propyl]carbamoyl]-2-methyl-propyl]pyrazine-2-carboxamide
> <PUBCHEM_IUPAC_CAS_NAME>
N-[(2S)-3-methyl-1-[[(2S)-3-methyl-1-oxo-1-[(2S,4R)-2-[oxo-[[(2S)-1-oxobutan-2-yl]amino]methyl]-4-[(5-phenyl-1,2,4-oxadiazol-3-yl)methoxy]-1-pyrrolidinyl]butan-2-yl]amino]-1-oxobutan-2-yl]-2-pyrazinecarboxamide
> <PUBCHEM_IUPAC_NAME_MARKUP>
<I>N</I>-[(2<I>S</I>)-3-methyl-1-[[(2<I>S</I>)-3-methyl-1-oxo-1-[(2<I>S</I>,4<I>R</I>)-2-[[(2<I>S</I>)-1-oxobutan-2-yl]carbamoyl]-4-[(5-phenyl-1,2,4-oxadiazol-3-yl)methoxy]pyrrolidin-1-yl]butan-2-yl]amino]-1-oxobutan-2-yl]pyrazine-2-carboxamide
> <PUBCHEM_IUPAC_NAME>
N-[(2S)-3-methyl-1-[[(2S)-3-methyl-1-oxo-1-[(2S,4R)-2-[[(2S)-1-oxobutan-2-yl]carbamoyl]-4-[(5-phenyl-1,2,4-oxadiazol-3-yl)methoxy]pyrrolidin-1-yl]butan-2-yl]amino]-1-oxobutan-2-yl]pyrazine-2-carboxamide
> <PUBCHEM_IUPAC_SYSTEMATIC_NAME>
N-[(2S)-3-methyl-1-[[(2S)-3-methyl-1-oxidanylidene-1-[(2S,4R)-2-[[(2S)-1-oxidanylidenebutan-2-yl]carbamoyl]-4-[(5-phenyl-1,2,4-oxadiazol-3-yl)methoxy]pyrrolidin-1-yl]butan-2-yl]amino]-1-oxidanylidene-butan-2-yl]pyrazine-2-carboxamide
> <PUBCHEM_IUPAC_TRADITIONAL_NAME>
N-[(1S)-1-[[(1S)-1-[(2S,4R)-2-[[(1S)-1-formylpropyl]carbamoyl]-4-[(5-phenyl-1,2,4-oxadiazol-3-yl)methoxy]pyrrolidine-1-carbonyl]-2-methyl-propyl]carbamoyl]-2-methyl-propyl]pyrazinamide
> <PUBCHEM_IUPAC_INCHI>
InChI=1S/C33H42N8O7/c1-6-22(17-42)36-30(44)25-14-23(47-18-26-37-32(48-40-26)21-10-8-7-9-11-21)16-41(25)33(46)28(20(4)5)39-31(45)27(19(2)3)38-29(43)24-15-34-12-13-35-24/h7-13,15,17,19-20,22-23,25,27-28H,6,14,16,18H2,1-5H3,(H,36,44)(H,38,43)(H,39,45)/t22-,23+,25-,27-,28-/m0/s1
> <PUBCHEM_IUPAC_INCHIKEY>
IGVBGOQLMRRSAT-CGACGQNGSA-N
> <PUBCHEM_XLOGP3_AA>
2.3
> <PUBCHEM_EXACT_MASS>
662.31764571
> <PUBCHEM_MOLECULAR_FORMULA>
C33H42N8O7
> <PUBCHEM_MOLECULAR_WEIGHT>
662.7
> <PUBCHEM_OPENEYE_CAN_SMILES>
CCC(C=O)NC(=O)C1CC(CN1C(=O)C(C(C)C)NC(=O)C(C(C)C)NC(=O)C2=NC=CN=C2)OCC3=NOC(=N3)C4=CC=CC=C4
> <PUBCHEM_OPENEYE_ISO_SMILES>
CC[C@@H](C=O)NC(=O)[C@@H]1C[C@H](CN1C(=O)[C@H](C(C)C)NC(=O)[C@H](C(C)C)NC(=O)C2=NC=CN=C2)OCC3=NOC(=N3)C4=CC=CC=C4
> <PUBCHEM_CACTVS_TPSA>
199
> <PUBCHEM_MONOISOTOPIC_WEIGHT>
662.31764571
> <PUBCHEM_TOTAL_CHARGE>
0
> <PUBCHEM_HEAVY_ATOM_COUNT>
48
> <PUBCHEM_ATOM_DEF_STEREO_COUNT>
5
> <PUBCHEM_ATOM_UDEF_STEREO_COUNT>
0
> <PUBCHEM_BOND_DEF_STEREO_COUNT>
0
> <PUBCHEM_BOND_UDEF_STEREO_COUNT>
0
> <PUBCHEM_ISOTOPIC_ATOM_COUNT>
0
> <PUBCHEM_COMPONENT_COUNT>
1
> <PUBCHEM_CACTVS_TAUTO_COUNT>
-1
> <PUBCHEM_COORDINATE_TYPE>
1
5
255
> <PUBCHEM_BONDANNOTATIONS>
17  1  6
27  10  6
29  11  6
12  32  8
12  38  8
13  32  8
14  39  8
14  44  8
15  41  8
15  48  8
16  22  5
39  41  8
40  42  8
40  43  8
42  45  8
43  46  8
44  48  8
45  47  8
46  47  8
5  13  8
5  38  8
21  9  5
$$$$
