506672
  -OEChem-10302200282D
 90 92  0     1  0  0  0  0  0999 V2000
    3.7320   -2.1576    0.0000 O   0  0  0  0  0  0  0  0  0  0  0  0
    7.0820    0.5629    0.0000 O   0  0  0  0  0  0  0  0  0  0  0  0
    7.7631   -0.6167    0.0000 O   0  0  0  0  0  0  0  0  0  0  0  0
    4.3241    2.8854    0.0000 O   0  0  0  0  0  0  0  0  0  0  0  0
    4.5981   -3.6576    0.0000 O   0  0  0  0  0  0  0  0  0  0  0  0
    9.9778   -3.4619    0.0000 O   0  0  0  0  0  0  0  0  0  0  0  0
    6.5389    5.7306    0.0000 O   0  0  0  0  0  0  0  0  0  0  0  0
    2.8660   -7.6576    0.0000 O   0  0  0  0  0  0  0  0  0  0  0  0
    5.6808   -0.4552    0.0000 N   0  0  0  0  0  0  0  0  0  0  0  0
    5.9064    2.1809    0.0000 N   0  0  0  0  0  0  0  0  0  0  0  0
    7.5820   -2.3393    0.0000 N   0  0  0  0  0  0  0  0  0  0  0  0
    5.1376    4.7125    0.0000 N   0  0  0  0  0  0  0  0  0  0  0  0
    2.8660   -3.6576    0.0000 N   0  0  0  0  0  0  0  0  0  0  0  0
    5.3633    7.3486    0.0000 N   0  0  0  0  0  0  0  0  0  0  0  0
    3.3742    7.1396    0.0000 N   0  0  0  0  0  0  0  0  0  0  0  0
    6.1808   -1.3212    0.0000 C   0  0  1  0  0  0  0  0  0  0  0  0
    5.5116   -2.0644    0.0000 C   0  0  0  0  0  0  0  0  0  0  0  0
    4.5981   -1.6576    0.0000 C   0  0  2  0  0  0  0  0  0  0  0  0
    4.7026   -0.6631    0.0000 C   0  0  0  0  0  0  0  0  0  0  0  0
    6.0875    0.4584    0.0000 C   0  0  0  0  0  0  0  0  0  0  0  0
    5.4997    1.2674    0.0000 C   0  0  2  0  0  0  0  0  0  0  0  0
    7.1753   -1.4257    0.0000 C   0  0  0  0  0  0  0  0  0  0  0  0
    4.5052    1.1628    0.0000 C   0  0  0  0  0  0  0  0  0  0  0  0
    3.9174    1.9719    0.0000 C   0  0  0  0  0  0  0  0  0  0  0  0
    4.0984    0.2493    0.0000 C   0  0  0  0  0  0  0  0  0  0  0  0
    8.5765   -2.4438    0.0000 C   0  0  1  0  0  0  0  0  0  0  0  0
    5.3187    2.9899    0.0000 C   0  0  0  0  0  0  0  0  0  0  0  0
    5.7254    3.9035    0.0000 C   0  0  2  0  0  0  0  0  0  0  0  0
    3.7320   -3.1576    0.0000 C   0  0  0  0  0  0  0  0  0  0  0  0
    6.7199    4.0080    0.0000 C   0  0  0  0  0  0  0  0  0  0  0  0
    9.1643   -1.6348    0.0000 C   0  0  0  0  0  0  0  0  0  0  0  0
    8.9833   -3.3574    0.0000 C   0  0  0  0  0  0  0  0  0  0  0  0
    7.1266    4.9216    0.0000 C   0  0  0  0  0  0  0  0  0  0  0  0
    7.3077    3.1990    0.0000 C   0  0  0  0  0  0  0  0  0  0  0  0
   10.1588   -1.7393    0.0000 C   0  0  0  0  0  0  0  0  0  0  0  0
    5.5443    5.6260    0.0000 C   0  0  0  0  0  0  0  0  0  0  0  0
    2.8660   -4.6576    0.0000 C   0  0  0  0  0  0  0  0  0  0  0  0
    4.9566    6.4351    0.0000 C   0  0  0  0  0  0  0  0  0  0  0  0
    2.0000   -5.1576    0.0000 C   0  0  0  0  0  0  0  0  0  0  0  0
    3.7320   -5.1576    0.0000 C   0  0  0  0  0  0  0  0  0  0  0  0
    2.0000   -6.1576    0.0000 C   0  0  0  0  0  0  0  0  0  0  0  0
    3.7320   -6.1576    0.0000 C   0  0  0  0  0  0  0  0  0  0  0  0
    3.9620    6.3305    0.0000 C   0  0  0  0  0  0  0  0  0  0  0  0
    2.8660   -6.6576    0.0000 C   0  0  0  0  0  0  0  0  0  0  0  0
    4.7755    8.1576    0.0000 C   0  0  0  0  0  0  0  0  0  0  0  0
    3.7810    8.0531    0.0000 C   0  0  0  0  0  0  0  0  0  0  0  0
    2.0000   -8.1576    0.0000 C   0  0  0  0  0  0  0  0  0  0  0  0
    6.5184   -0.8012    0.0000 H   0  0  0  0  0  0  0  0  0  0  0  0
    5.2016   -2.6013    0.0000 H   0  0  0  0  0  0  0  0  0  0  0  0
    6.0132   -2.4288    0.0000 H   0  0  0  0  0  0  0  0  0  0  0  0
    4.6305   -2.2768    0.0000 H   0  0  0  0  0  0  0  0  0  0  0  0
    4.6378   -0.0465    0.0000 H   0  0  0  0  0  0  0  0  0  0  0  0
    4.0826   -0.6631    0.0000 H   0  0  0  0  0  0  0  0  0  0  0  0
    6.1163    1.3322    0.0000 H   0  0  0  0  0  0  0  0  0  0  0  0
    4.8696    0.6613    0.0000 H   0  0  0  0  0  0  0  0  0  0  0  0
    6.5230    2.2457    0.0000 H   0  0  0  0  0  0  0  0  0  0  0  0
    7.2176   -2.8409    0.0000 H   0  0  0  0  0  0  0  0  0  0  0  0
    4.4190    2.3363    0.0000 H   0  0  0  0  0  0  0  0  0  0  0  0
    3.5530    2.4734    0.0000 H   0  0  0  0  0  0  0  0  0  0  0  0
    3.4158    1.6074    0.0000 H   0  0  0  0  0  0  0  0  0  0  0  0
    3.5320    0.5015    0.0000 H   0  0  0  0  0  0  0  0  0  0  0  0
    3.8463   -0.3171    0.0000 H   0  0  0  0  0  0  0  0  0  0  0  0
    4.6648   -0.0029    0.0000 H   0  0  0  0  0  0  0  0  0  0  0  0
    8.2121   -2.9454    0.0000 H   0  0  0  0  0  0  0  0  0  0  0  0
    5.1088    3.8387    0.0000 H   0  0  0  0  0  0  0  0  0  0  0  0
    6.3555    4.5096    0.0000 H   0  0  0  0  0  0  0  0  0  0  0  0
    9.3352   -1.0388    0.0000 H   0  0  0  0  0  0  0  0  0  0  0  0
    8.6071   -1.3630    0.0000 H   0  0  0  0  0  0  0  0  0  0  0  0
    4.5210    4.6477    0.0000 H   0  0  0  0  0  0  0  0  0  0  0  0
    8.6188   -3.8590    0.0000 H   0  0  0  0  0  0  0  0  0  0  0  0
    7.6930    4.6694    0.0000 H   0  0  0  0  0  0  0  0  0  0  0  0
    7.3788    5.4880    0.0000 H   0  0  0  0  0  0  0  0  0  0  0  0
    6.5602    5.1737    0.0000 H   0  0  0  0  0  0  0  0  0  0  0  0
    6.8061    2.8346    0.0000 H   0  0  0  0  0  0  0  0  0  0  0  0
    7.6721    2.6974    0.0000 H   0  0  0  0  0  0  0  0  0  0  0  0
    7.8093    3.5634    0.0000 H   0  0  0  0  0  0  0  0  0  0  0  0
    2.3291   -3.3476    0.0000 H   0  0  0  0  0  0  0  0  0  0  0  0
   10.0940   -2.3559    0.0000 H   0  0  0  0  0  0  0  0  0  0  0  0
   10.7754   -1.8041    0.0000 H   0  0  0  0  0  0  0  0  0  0  0  0
   10.2236   -1.1227    0.0000 H   0  0  0  0  0  0  0  0  0  0  0  0
    1.4631   -4.8476    0.0000 H   0  0  0  0  0  0  0  0  0  0  0  0
    4.2690   -4.8476    0.0000 H   0  0  0  0  0  0  0  0  0  0  0  0
    1.4631   -6.4676    0.0000 H   0  0  0  0  0  0  0  0  0  0  0  0
    4.2690   -6.4676    0.0000 H   0  0  0  0  0  0  0  0  0  0  0  0
    3.7099    5.7641    0.0000 H   0  0  0  0  0  0  0  0  0  0  0  0
    5.0277    8.7240    0.0000 H   0  0  0  0  0  0  0  0  0  0  0  0
    3.4166    8.5547    0.0000 H   0  0  0  0  0  0  0  0  0  0  0  0
    1.6900   -7.6207    0.0000 H   0  0  0  0  0  0  0  0  0  0  0  0
    1.4631   -8.4676    0.0000 H   0  0  0  0  0  0  0  0  0  0  0  0
    2.3100   -8.6946    0.0000 H   0  0  0  0  0  0  0  0  0  0  0  0
 18  1  1  1  0  0  0
  1 29  1  0  0  0  0
  2 20  2  0  0  0  0
  3 22  2  0  0  0  0
  4 27  2  0  0  0  0
  5 29  2  0  0  0  0
  6 32  2  0  0  0  0
  7 36  2  0  0  0  0
  8 44  1  0  0  0  0
  8 47  1  0  0  0  0
  9 16  1  0  0  0  0
  9 19  1  0  0  0  0
  9 20  1  0  0  0  0
 21 10  1  6  0  0  0
 10 27  1  0  0  0  0
 10 56  1  0  0  0  0
 11 22  1  0  0  0  0
 26 11  1  1  0  0  0
 11 57  1  0  0  0  0
 28 12  1  1  0  0  0
 12 36  1  0  0  0  0
 12 69  1  0  0  0  0
 13 29  1  0  0  0  0
 13 37  1  0  0  0  0
 13 77  1  0  0  0  0
 14 38  2  0  0  0  0
 14 45  1  0  0  0  0
 15 43  2  0  0  0  0
 15 46  1  0  0  0  0
 16 17  1  0  0  0  0
 16 22  1  6  0  0  0
 16 48  1  0  0  0  0
 17 18  1  0  0  0  0
 17 49  1  0  0  0  0
 17 50  1  0  0  0  0
 18 19  1  0  0  0  0
 18 51  1  0  0  0  0
 19 52  1  0  0  0  0
 19 53  1  0  0  0  0
 20 21  1  0  0  0  0
 21 23  1  0  0  0  0
 21 54  1  0  0  0  0
 23 24  1  0  0  0  0
 23 25  1  0  0  0  0
 23 55  1  0  0  0  0
 24 58  1  0  0  0  0
 24 59  1  0  0  0  0
 24 60  1  0  0  0  0
 25 61  1  0  0  0  0
 25 62  1  0  0  0  0
 25 63  1  0  0  0  0
 26 31  1  0  0  0  0
 26 32  1  0  0  0  0
 26 64  1  0  0  0  0
 27 28  1  0  0  0  0
 28 30  1  0  0  0  0
 28 65  1  0  0  0  0
 30 33  1  0  0  0  0
 30 34  1  0  0  0  0
 30 66  1  0  0  0  0
 31 35  1  0  0  0  0
 31 67  1  0  0  0  0
 31 68  1  0  0  0  0
 32 70  1  0  0  0  0
 33 71  1  0  0  0  0
 33 72  1  0  0  0  0
 33 73  1  0  0  0  0
 34 74  1  0  0  0  0
 34 75  1  0  0  0  0
 34 76  1  0  0  0  0
 35 78  1  0  0  0  0
 35 79  1  0  0  0  0
 35 80  1  0  0  0  0
 36 38  1  0  0  0  0
 37 39  2  0  0  0  0
 37 40  1  0  0  0  0
 38 43  1  0  0  0  0
 39 41  1  0  0  0  0
 39 81  1  0  0  0  0
 40 42  2  0  0  0  0
 40 82  1  0  0  0  0
 41 44  2  0  0  0  0
 41 83  1  0  0  0  0
 42 44  1  0  0  0  0
 42 84  1  0  0  0  0
 43 85  1  0  0  0  0
 45 46  2  0  0  0  0
 45 86  1  0  0  0  0
 46 87  1  0  0  0  0
 47 88  1  0  0  0  0
 47 89  1  0  0  0  0
 47 90  1  0  0  0  0
M  END
> <PUBCHEM_COMPOUND_CID>
506672
> <PUBCHEM_COMPOUND_CANONICALIZED>
1
> <PUBCHEM_CACTVS_COMPLEXITY>
1100
> <PUBCHEM_CACTVS_HBOND_ACCEPTOR>
10
> <PUBCHEM_CACTVS_HBOND_DONOR>
4
> <PUBCHEM_CACTVS_ROTATABLE_BOND>
15
> <PUBCHEM_CACTVS_SUBSKEYS>
AAADcfB/vAAAAAAAAAAAAAAAAAAAAWAAAAA8QAAAAAAAAAABwAAAHgAQAAAADTzhlgY+zpPIFACoAT133ACCiCQ3MiAI2IG+fMkOZnrE8budMKhm1hHY6Me6QQAIAEAAAAAAAAAAgAAAAAAAAAAAAAAAAA==
> <PUBCHEM_IUPAC_OPENEYE_NAME>
[(3R,5S)-5-[[(1S)-1-formylpropyl]carbamoyl]-1-[(2S)-3-methyl-2-[[(2S)-3-methyl-2-(pyrazine-2-carbonylamino)butanoyl]amino]butanoyl]pyrrolidin-3-yl] N-(4-methoxyphenyl)carbamate
> <PUBCHEM_IUPAC_CAS_NAME>
N-(4-methoxyphenyl)carbamic acid [(3R,5S)-1-[(2S)-3-methyl-2-[[(2S)-3-methyl-1-oxo-2-[[oxo(2-pyrazinyl)methyl]amino]butyl]amino]-1-oxobutyl]-5-[oxo-[[(2S)-1-oxobutan-2-yl]amino]methyl]-3-pyrrolidinyl] ester
> <PUBCHEM_IUPAC_NAME_MARKUP>
[(3<I>R</I>,5<I>S</I>)-1-[(2<I>S</I>)-3-methyl-2-[[(2<I>S</I>)-3-methyl-2-(pyrazine-2-carbonylamino)butanoyl]amino]butanoyl]-5-[[(2<I>S</I>)-1-oxobutan-2-yl]carbamoyl]pyrrolidin-3-yl] <I>N</I>-(4-methoxyphenyl)carbamate
> <PUBCHEM_IUPAC_NAME>
[(3R,5S)-1-[(2S)-3-methyl-2-[[(2S)-3-methyl-2-(pyrazine-2-carbonylamino)butanoyl]amino]butanoyl]-5-[[(2S)-1-oxobutan-2-yl]carbamoyl]pyrrolidin-3-yl] N-(4-methoxyphenyl)carbamate
> <PUBCHEM_IUPAC_SYSTEMATIC_NAME>
[(3R,5S)-1-[(2S)-3-methyl-2-[[(2S)-3-methyl-2-(pyrazin-2-ylcarbonylamino)butanoyl]amino]butanoyl]-5-[[(2S)-1-oxidanylidenebutan-2-yl]carbamoyl]pyrrolidin-3-yl] N-(4-methoxyphenyl)carbamate
> <PUBCHEM_IUPAC_TRADITIONAL_NAME>
N-(4-methoxyphenyl)carbamic acid [(3R,5S)-5-[[(1S)-1-formylpropyl]carbamoyl]-1-[(2S)-3-methyl-2-[[(2S)-3-methyl-2-(pyrazinoylamino)butanoyl]amino]butanoyl]pyrrolidin-3-yl] ester
> <PUBCHEM_IUPAC_INCHI>
InChI=1S/C32H43N7O8/c1-7-20(17-40)35-29(42)25-14-23(47-32(45)36-21-8-10-22(46-6)11-9-21)16-39(25)31(44)27(19(4)5)38-30(43)26(18(2)3)37-28(41)24-15-33-12-13-34-24/h8-13,15,17-20,23,25-27H,7,14,16H2,1-6H3,(H,35,42)(H,36,45)(H,37,41)(H,38,43)/t20-,23+,25-,26-,27-/m0/s1
> <PUBCHEM_IUPAC_INCHIKEY>
HNUNPYHYUYESNF-DCZAUWNBSA-N
> <PUBCHEM_XLOGP3_AA>
2.3
> <PUBCHEM_EXACT_MASS>
653.31731136
> <PUBCHEM_MOLECULAR_FORMULA>
C32H43N7O8
> <PUBCHEM_MOLECULAR_WEIGHT>
653.7
> <PUBCHEM_OPENEYE_CAN_SMILES>
CCC(C=O)NC(=O)C1CC(CN1C(=O)C(C(C)C)NC(=O)C(C(C)C)NC(=O)C2=NC=CN=C2)OC(=O)NC3=CC=C(C=C3)OC
> <PUBCHEM_OPENEYE_ISO_SMILES>
CC[C@@H](C=O)NC(=O)[C@@H]1C[C@H](CN1C(=O)[C@H](C(C)C)NC(=O)[C@H](C(C)C)NC(=O)C2=NC=CN=C2)OC(=O)NC3=CC=C(C=C3)OC
> <PUBCHEM_CACTVS_TPSA>
198
> <PUBCHEM_MONOISOTOPIC_WEIGHT>
653.31731136
> <PUBCHEM_TOTAL_CHARGE>
0
> <PUBCHEM_HEAVY_ATOM_COUNT>
47
> <PUBCHEM_ATOM_DEF_STEREO_COUNT>
5
> <PUBCHEM_ATOM_UDEF_STEREO_COUNT>
0
> <PUBCHEM_BOND_DEF_STEREO_COUNT>
0
> <PUBCHEM_BOND_UDEF_STEREO_COUNT>
0
> <PUBCHEM_ISOTOPIC_ATOM_COUNT>
0
> <PUBCHEM_COMPONENT_COUNT>
1
> <PUBCHEM_CACTVS_TAUTO_COUNT>
-1
> <PUBCHEM_COORDINATE_TYPE>
1
5
255
> <PUBCHEM_BONDANNOTATIONS>
18  1  5
21  10  6
26  11  5
28  12  5
14  38  8
14  45  8
15  43  8
15  46  8
16  22  6
37  39  8
37  40  8
38  43  8
39  41  8
40  42  8
41  44  8
42  44  8
45  46  8
$$$$
