506660
  -OEChem-10302200282D
103106  0     1  0  0  0  0  0999 V2000
    5.4641    1.4076    0.0000 O   0  0  0  0  0  0  0  0  0  0  0  0
    8.8141   -1.3129    0.0000 O   0  0  0  0  0  0  0  0  0  0  0  0
    9.4951   -0.1333    0.0000 O   0  0  0  0  0  0  0  0  0  0  0  0
    6.0562   -3.6354    0.0000 O   0  0  0  0  0  0  0  0  0  0  0  0
    6.3301    2.9076    0.0000 O   0  0  0  0  0  0  0  0  0  0  0  0
   11.7098    2.7119    0.0000 O   0  0  0  0  0  0  0  0  0  0  0  0
    8.2709   -6.4806    0.0000 O   0  0  0  0  0  0  0  0  0  0  0  0
    2.0000    5.4076    0.0000 O   0  5  0  0  0  0  0  0  0  0  0  0
    2.8660    6.9076    0.0000 O   0  0  0  0  0  0  0  0  0  0  0  0
    7.4128   -0.2948    0.0000 N   0  0  0  0  0  0  0  0  0  0  0  0
    7.6385   -2.9309    0.0000 N   0  0  0  0  0  0  0  0  0  0  0  0
    9.3141    1.5893    0.0000 N   0  0  0  0  0  0  0  0  0  0  0  0
    4.5981    6.9076    0.0000 N   0  0  0  0  0  0  0  0  0  0  0  0
    4.5981    2.9076    0.0000 N   0  0  0  0  0  0  0  0  0  0  0  0
    6.8697   -5.4625    0.0000 N   0  0  0  0  0  0  0  0  0  0  0  0
    2.8660    5.9076    0.0000 N   0  3  0  0  0  0  0  0  0  0  0  0
    7.0954   -8.0986    0.0000 N   0  0  0  0  0  0  0  0  0  0  0  0
    5.1063   -7.8896    0.0000 N   0  0  0  0  0  0  0  0  0  0  0  0
    7.9128    0.5712    0.0000 C   0  0  1  0  0  0  0  0  0  0  0  0
    7.2437    1.3144    0.0000 C   0  0  0  0  0  0  0  0  0  0  0  0
    6.3301    0.9076    0.0000 C   0  0  2  0  0  0  0  0  0  0  0  0
    6.4347   -0.0869    0.0000 C   0  0  0  0  0  0  0  0  0  0  0  0
    7.8195   -1.2084    0.0000 C   0  0  0  0  0  0  0  0  0  0  0  0
    7.2318   -2.0174    0.0000 C   0  0  2  0  0  0  0  0  0  0  0  0
    8.9073    0.6757    0.0000 C   0  0  0  0  0  0  0  0  0  0  0  0
    6.2372   -1.9128    0.0000 C   0  0  0  0  0  0  0  0  0  0  0  0
    5.6494   -2.7219    0.0000 C   0  0  0  0  0  0  0  0  0  0  0  0
    5.8305   -0.9993    0.0000 C   0  0  0  0  0  0  0  0  0  0  0  0
   10.3086    1.6938    0.0000 C   0  0  1  0  0  0  0  0  0  0  0  0
    7.0507   -3.7399    0.0000 C   0  0  0  0  0  0  0  0  0  0  0  0
    7.4574   -4.6535    0.0000 C   0  0  2  0  0  0  0  0  0  0  0  0
    5.4641    2.4076    0.0000 C   0  0  0  0  0  0  0  0  0  0  0  0
    8.4520   -4.7580    0.0000 C   0  0  0  0  0  0  0  0  0  0  0  0
    5.4641    7.4076    0.0000 C   0  0  0  0  0  0  0  0  0  0  0  0
    3.7320    7.4076    0.0000 C   0  0  0  0  0  0  0  0  0  0  0  0
    5.4641    8.4076    0.0000 C   0  0  0  0  0  0  0  0  0  0  0  0
    3.7320    8.4076    0.0000 C   0  0  0  0  0  0  0  0  0  0  0  0
    4.5981    8.9076    0.0000 C   0  0  0  0  0  0  0  0  0  0  0  0
   10.8964    0.8848    0.0000 C   0  0  0  0  0  0  0  0  0  0  0  0
    4.5981    5.9076    0.0000 C   0  0  0  0  0  0  0  0  0  0  0  0
   10.7153    2.6074    0.0000 C   0  0  0  0  0  0  0  0  0  0  0  0
    4.5981    3.9076    0.0000 C   0  0  0  0  0  0  0  0  0  0  0  0
    8.8587   -5.6716    0.0000 C   0  0  0  0  0  0  0  0  0  0  0  0
    9.0398   -3.9490    0.0000 C   0  0  0  0  0  0  0  0  0  0  0  0
   11.8909    0.9893    0.0000 C   0  0  0  0  0  0  0  0  0  0  0  0
    3.7320    5.4076    0.0000 C   0  0  0  0  0  0  0  0  0  0  0  0
    5.4641    5.4076    0.0000 C   0  0  0  0  0  0  0  0  0  0  0  0
    3.7320    4.4076    0.0000 C   0  0  0  0  0  0  0  0  0  0  0  0
    5.4641    4.4076    0.0000 C   0  0  0  0  0  0  0  0  0  0  0  0
    7.2764   -6.3760    0.0000 C   0  0  0  0  0  0  0  0  0  0  0  0
    6.6886   -7.1851    0.0000 C   0  0  0  0  0  0  0  0  0  0  0  0
    5.6941   -7.0805    0.0000 C   0  0  0  0  0  0  0  0  0  0  0  0
    6.5076   -8.9076    0.0000 C   0  0  0  0  0  0  0  0  0  0  0  0
    5.5130   -8.8031    0.0000 C   0  0  0  0  0  0  0  0  0  0  0  0
    8.2505    0.0512    0.0000 H   0  0  0  0  0  0  0  0  0  0  0  0
    7.7453    1.6788    0.0000 H   0  0  0  0  0  0  0  0  0  0  0  0
    6.9337    1.8513    0.0000 H   0  0  0  0  0  0  0  0  0  0  0  0
    5.8102    0.5699    0.0000 H   0  0  0  0  0  0  0  0  0  0  0  0
    5.8147   -0.0869    0.0000 H   0  0  0  0  0  0  0  0  0  0  0  0
    6.3698   -0.7035    0.0000 H   0  0  0  0  0  0  0  0  0  0  0  0
    6.8673   -2.5190    0.0000 H   0  0  0  0  0  0  0  0  0  0  0  0
    6.6017   -1.4112    0.0000 H   0  0  0  0  0  0  0  0  0  0  0  0
    8.2551   -2.9957    0.0000 H   0  0  0  0  0  0  0  0  0  0  0  0
    8.9496    2.0909    0.0000 H   0  0  0  0  0  0  0  0  0  0  0  0
    5.1479   -2.3574    0.0000 H   0  0  0  0  0  0  0  0  0  0  0  0
    5.2850   -3.2234    0.0000 H   0  0  0  0  0  0  0  0  0  0  0  0
    6.1510   -3.0863    0.0000 H   0  0  0  0  0  0  0  0  0  0  0  0
    6.3969   -0.7471    0.0000 H   0  0  0  0  0  0  0  0  0  0  0  0
    5.5783   -0.4329    0.0000 H   0  0  0  0  0  0  0  0  0  0  0  0
    5.2641   -1.2515    0.0000 H   0  0  0  0  0  0  0  0  0  0  0  0
    9.9442    2.1954    0.0000 H   0  0  0  0  0  0  0  0  0  0  0  0
    6.8408   -4.5887    0.0000 H   0  0  0  0  0  0  0  0  0  0  0  0
    8.1998   -4.1916    0.0000 H   0  0  0  0  0  0  0  0  0  0  0  0
    5.6762    6.8250    0.0000 H   0  0  0  0  0  0  0  0  0  0  0  0
    6.0747    7.5153    0.0000 H   0  0  0  0  0  0  0  0  0  0  0  0
    3.1215    7.5153    0.0000 H   0  0  0  0  0  0  0  0  0  0  0  0
    3.5200    6.8250    0.0000 H   0  0  0  0  0  0  0  0  0  0  0  0
    6.0747    8.3000    0.0000 H   0  0  0  0  0  0  0  0  0  0  0  0
    5.6762    8.9902    0.0000 H   0  0  0  0  0  0  0  0  0  0  0  0
    3.5200    8.9902    0.0000 H   0  0  0  0  0  0  0  0  0  0  0  0
    3.1215    8.3000    0.0000 H   0  0  0  0  0  0  0  0  0  0  0  0
    4.9966    9.3826    0.0000 H   0  0  0  0  0  0  0  0  0  0  0  0
    4.1996    9.3826    0.0000 H   0  0  0  0  0  0  0  0  0  0  0  0
   10.3391    0.6130    0.0000 H   0  0  0  0  0  0  0  0  0  0  0  0
   11.0673    0.2888    0.0000 H   0  0  0  0  0  0  0  0  0  0  0  0
    4.0611    2.5976    0.0000 H   0  0  0  0  0  0  0  0  0  0  0  0
   10.3509    3.1090    0.0000 H   0  0  0  0  0  0  0  0  0  0  0  0
    6.2530   -5.3977    0.0000 H   0  0  0  0  0  0  0  0  0  0  0  0
    8.2923   -5.9237    0.0000 H   0  0  0  0  0  0  0  0  0  0  0  0
    9.1109   -6.2380    0.0000 H   0  0  0  0  0  0  0  0  0  0  0  0
    9.4251   -5.4194    0.0000 H   0  0  0  0  0  0  0  0  0  0  0  0
    9.5413   -4.3134    0.0000 H   0  0  0  0  0  0  0  0  0  0  0  0
    9.4042   -3.4474    0.0000 H   0  0  0  0  0  0  0  0  0  0  0  0
    8.5382   -3.5846    0.0000 H   0  0  0  0  0  0  0  0  0  0  0  0
   11.9557    0.3727    0.0000 H   0  0  0  0  0  0  0  0  0  0  0  0
   12.5075    1.0541    0.0000 H   0  0  0  0  0  0  0  0  0  0  0  0
   11.8261    1.6059    0.0000 H   0  0  0  0  0  0  0  0  0  0  0  0
    6.0010    5.7176    0.0000 H   0  0  0  0  0  0  0  0  0  0  0  0
    3.1951    4.0976    0.0000 H   0  0  0  0  0  0  0  0  0  0  0  0
    6.0010    4.0976    0.0000 H   0  0  0  0  0  0  0  0  0  0  0  0
    5.4419   -6.5141    0.0000 H   0  0  0  0  0  0  0  0  0  0  0  0
    6.7597   -9.4740    0.0000 H   0  0  0  0  0  0  0  0  0  0  0  0
    5.1486   -9.3047    0.0000 H   0  0  0  0  0  0  0  0  0  0  0  0
 21  1  1  6  0  0  0
  1 32  1  0  0  0  0
  2 23  2  0  0  0  0
  3 25  2  0  0  0  0
  4 30  2  0  0  0  0
  5 32  2  0  0  0  0
  6 41  2  0  0  0  0
  7 50  2  0  0  0  0
  8 16  1  0  0  0  0
  9 16  2  0  0  0  0
 10 19  1  0  0  0  0
 10 22  1  0  0  0  0
 10 23  1  0  0  0  0
 24 11  1  1  0  0  0
 11 30  1  0  0  0  0
 11 63  1  0  0  0  0
 12 25  1  0  0  0  0
 29 12  1  6  0  0  0
 12 64  1  0  0  0  0
 13 34  1  0  0  0  0
 13 35  1  0  0  0  0
 13 40  1  0  0  0  0
 14 32  1  0  0  0  0
 14 42  1  0  0  0  0
 14 86  1  0  0  0  0
 31 15  1  6  0  0  0
 15 50  1  0  0  0  0
 15 88  1  0  0  0  0
 16 46  1  0  0  0  0
 17 51  2  0  0  0  0
 17 53  1  0  0  0  0
 18 52  2  0  0  0  0
 18 54  1  0  0  0  0
 19 20  1  0  0  0  0
 19 25  1  1  0  0  0
 19 55  1  0  0  0  0
 20 21  1  0  0  0  0
 20 56  1  0  0  0  0
 20 57  1  0  0  0  0
 21 22  1  0  0  0  0
 21 58  1  0  0  0  0
 22 59  1  0  0  0  0
 22 60  1  0  0  0  0
 23 24  1  0  0  0  0
 24 26  1  0  0  0  0
 24 61  1  0  0  0  0
 26 27  1  0  0  0  0
 26 28  1  0  0  0  0
 26 62  1  0  0  0  0
 27 65  1  0  0  0  0
 27 66  1  0  0  0  0
 27 67  1  0  0  0  0
 28 68  1  0  0  0  0
 28 69  1  0  0  0  0
 28 70  1  0  0  0  0
 29 39  1  0  0  0  0
 29 41  1  0  0  0  0
 29 71  1  0  0  0  0
 30 31  1  0  0  0  0
 31 33  1  0  0  0  0
 31 72  1  0  0  0  0
 33 43  1  0  0  0  0
 33 44  1  0  0  0  0
 33 73  1  0  0  0  0
 34 36  1  0  0  0  0
 34 74  1  0  0  0  0
 34 75  1  0  0  0  0
 35 37  1  0  0  0  0
 35 76  1  0  0  0  0
 35 77  1  0  0  0  0
 36 38  1  0  0  0  0
 36 78  1  0  0  0  0
 36 79  1  0  0  0  0
 37 38  1  0  0  0  0
 37 80  1  0  0  0  0
 37 81  1  0  0  0  0
 38 82  1  0  0  0  0
 38 83  1  0  0  0  0
 39 45  1  0  0  0  0
 39 84  1  0  0  0  0
 39 85  1  0  0  0  0
 40 46  2  0  0  0  0
 40 47  1  0  0  0  0
 41 87  1  0  0  0  0
 42 48  2  0  0  0  0
 42 49  1  0  0  0  0
 43 89  1  0  0  0  0
 43 90  1  0  0  0  0
 43 91  1  0  0  0  0
 44 92  1  0  0  0  0
 44 93  1  0  0  0  0
 44 94  1  0  0  0  0
 45 95  1  0  0  0  0
 45 96  1  0  0  0  0
 45 97  1  0  0  0  0
 46 48  1  0  0  0  0
 47 49  2  0  0  0  0
 47 98  1  0  0  0  0
 48 99  1  0  0  0  0
 49100  1  0  0  0  0
 50 51  1  0  0  0  0
 51 52  1  0  0  0  0
 52101  1  0  0  0  0
 53 54  2  0  0  0  0
 53102  1  0  0  0  0
 54103  1  0  0  0  0
M  CHG  2   8  -1  16   1
M  END
> <PUBCHEM_COMPOUND_CID>
506660
> <PUBCHEM_COMPOUND_CANONICALIZED>
1
> <PUBCHEM_CACTVS_COMPLEXITY>
1340
> <PUBCHEM_CACTVS_HBOND_ACCEPTOR>
12
> <PUBCHEM_CACTVS_HBOND_DONOR>
4
> <PUBCHEM_CACTVS_ROTATABLE_BOND>
15
> <PUBCHEM_CACTVS_SUBSKEYS>
AAADcfB//AAAAAAAAAAAAAAAAAAAAWAAAAA8WIAAAAAAAAABwAAAHgAUAAAADTzhlgY+yJPYVACpAT133wCCgCQ3EiAo2IG4dMsKYHrA0fGdIIhmloDYyMc6AQAIAACAAAQAACAAAQAACAAAQAAAAAAAAA==
> <PUBCHEM_IUPAC_OPENEYE_NAME>
[(3R,5S)-5-[[(1S)-1-formylpropyl]carbamoyl]-1-[(2S)-3-methyl-2-[[(2S)-3-methyl-2-(pyrazine-2-carbonylamino)butanoyl]amino]butanoyl]pyrrolidin-3-yl] N-[3-nitro-4-(1-piperidyl)phenyl]carbamate
> <PUBCHEM_IUPAC_CAS_NAME>
N-[3-nitro-4-(1-piperidinyl)phenyl]carbamic acid [(3R,5S)-1-[(2S)-3-methyl-2-[[(2S)-3-methyl-1-oxo-2-[[oxo(2-pyrazinyl)methyl]amino]butyl]amino]-1-oxobutyl]-5-[oxo-[[(2S)-1-oxobutan-2-yl]amino]methyl]-3-pyrrolidinyl] ester
> <PUBCHEM_IUPAC_NAME_MARKUP>
[(3<I>R</I>,5<I>S</I>)-1-[(2<I>S</I>)-3-methyl-2-[[(2<I>S</I>)-3-methyl-2-(pyrazine-2-carbonylamino)butanoyl]amino]butanoyl]-5-[[(2<I>S</I>)-1-oxobutan-2-yl]carbamoyl]pyrrolidin-3-yl] <I>N</I>-(3-nitro-4-piperidin-1-ylphenyl)carbamate
> <PUBCHEM_IUPAC_NAME>
[(3R,5S)-1-[(2S)-3-methyl-2-[[(2S)-3-methyl-2-(pyrazine-2-carbonylamino)butanoyl]amino]butanoyl]-5-[[(2S)-1-oxobutan-2-yl]carbamoyl]pyrrolidin-3-yl] N-(3-nitro-4-piperidin-1-ylphenyl)carbamate
> <PUBCHEM_IUPAC_SYSTEMATIC_NAME>
[(3R,5S)-1-[(2S)-3-methyl-2-[[(2S)-3-methyl-2-(pyrazin-2-ylcarbonylamino)butanoyl]amino]butanoyl]-5-[[(2S)-1-oxidanylidenebutan-2-yl]carbamoyl]pyrrolidin-3-yl] N-(3-nitro-4-piperidin-1-yl-phenyl)carbamate
> <PUBCHEM_IUPAC_TRADITIONAL_NAME>
N-(3-nitro-4-piperidino-phenyl)carbamic acid [(3R,5S)-5-[[(1S)-1-formylpropyl]carbamoyl]-1-[(2S)-3-methyl-2-[[(2S)-3-methyl-2-(pyrazinoylamino)butanoyl]amino]butanoyl]pyrrolidin-3-yl] ester
> <PUBCHEM_IUPAC_INCHI>
InChI=1S/C36H49N9O9/c1-6-23(20-46)39-33(48)29-17-25(54-36(51)40-24-10-11-27(28(16-24)45(52)53)43-14-8-7-9-15-43)19-44(29)35(50)31(22(4)5)42-34(49)30(21(2)3)41-32(47)26-18-37-12-13-38-26/h10-13,16,18,20-23,25,29-31H,6-9,14-15,17,19H2,1-5H3,(H,39,48)(H,40,51)(H,41,47)(H,42,49)/t23-,25+,29-,30-,31-/m0/s1
> <PUBCHEM_IUPAC_INCHIKEY>
RUZIEVLRAKLVNQ-VZSHYEJTSA-N
> <PUBCHEM_XLOGP3_AA>
3.1
> <PUBCHEM_EXACT_MASS>
751.36532417
> <PUBCHEM_MOLECULAR_FORMULA>
C36H49N9O9
> <PUBCHEM_MOLECULAR_WEIGHT>
751.8
> <PUBCHEM_OPENEYE_CAN_SMILES>
CCC(C=O)NC(=O)C1CC(CN1C(=O)C(C(C)C)NC(=O)C(C(C)C)NC(=O)C2=NC=CN=C2)OC(=O)NC3=CC(=C(C=C3)N4CCCCC4)[N+](=O)[O-]
> <PUBCHEM_OPENEYE_ISO_SMILES>
CC[C@@H](C=O)NC(=O)[C@@H]1C[C@H](CN1C(=O)[C@H](C(C)C)NC(=O)[C@H](C(C)C)NC(=O)C2=NC=CN=C2)OC(=O)NC3=CC(=C(C=C3)N4CCCCC4)[N+](=O)[O-]
> <PUBCHEM_CACTVS_TPSA>
238
> <PUBCHEM_MONOISOTOPIC_WEIGHT>
751.36532417
> <PUBCHEM_TOTAL_CHARGE>
0
> <PUBCHEM_HEAVY_ATOM_COUNT>
54
> <PUBCHEM_ATOM_DEF_STEREO_COUNT>
5
> <PUBCHEM_ATOM_UDEF_STEREO_COUNT>
0
> <PUBCHEM_BOND_DEF_STEREO_COUNT>
0
> <PUBCHEM_BOND_UDEF_STEREO_COUNT>
0
> <PUBCHEM_ISOTOPIC_ATOM_COUNT>
0
> <PUBCHEM_COMPONENT_COUNT>
1
> <PUBCHEM_CACTVS_TAUTO_COUNT>
-1
> <PUBCHEM_COORDINATE_TYPE>
1
5
255
> <PUBCHEM_BONDANNOTATIONS>
21  1  6
24  11  5
29  12  6
31  15  6
17  51  8
17  53  8
18  52  8
18  54  8
19  25  5
40  46  8
40  47  8
42  48  8
42  49  8
46  48  8
47  49  8
51  52  8
53  54  8
$$$$
