506690
  -OEChem-10302200282D
 87 89  0     1  0  0  0  0  0999 V2000
    8.7403   -1.4687    0.0000 O   0  0  0  0  0  0  0  0  0  0  0  0
    7.4959   -2.0227    0.0000 O   0  0  0  0  0  0  0  0  0  0  0  0
    4.8025    1.4428    0.0000 O   0  0  0  0  0  0  0  0  0  0  0  0
   11.3383    1.0313    0.0000 O   0  0  0  0  0  0  0  0  0  0  0  0
    5.5714    3.9744    0.0000 O   0  0  0  0  0  0  0  0  0  0  0  0
    4.4348   -3.9279    0.0000 O   0  0  0  0  0  0  0  0  0  0  0  0
   13.9364   -1.4687    0.0000 O   0  0  0  0  0  0  0  0  0  0  0  0
    7.8742    0.0313    0.0000 N   0  0  0  0  0  0  0  0  0  0  0  0
    6.3848    2.1473    0.0000 N   0  0  0  0  0  0  0  0  0  0  0  0
   10.4723   -0.4687    0.0000 N   0  0  0  0  0  0  0  0  0  0  0  0
    5.8017   -1.6626    0.0000 N   0  0  0  0  0  0  0  0  0  0  0  0
   13.0704    0.0313    0.0000 N   0  0  0  0  0  0  0  0  0  0  0  0
   15.6685   -0.4687    0.0000 N   0  0  0  0  0  0  0  0  0  0  0  0
   15.6685    1.5313    0.0000 N   0  0  0  0  0  0  0  0  0  0  0  0
    6.9607   -0.3754    0.0000 C   0  0  1  0  0  0  0  0  0  0  0  0
    6.7916    1.2338    0.0000 C   0  0  2  0  0  0  0  0  0  0  0  0
    6.2916    0.3677    0.0000 C   0  0  0  0  0  0  0  0  0  0  0  0
    7.7697    1.0259    0.0000 C   0  0  0  0  0  0  0  0  0  0  0  0
    8.7403   -0.4687    0.0000 C   0  0  0  0  0  0  0  0  0  0  0  0
    9.6063    0.0313    0.0000 C   0  0  2  0  0  0  0  0  0  0  0  0
    6.7528   -1.3536    0.0000 C   0  0  0  0  0  0  0  0  0  0  0  0
    9.6063    1.0313    0.0000 C   0  0  0  0  0  0  0  0  0  0  0  0
   10.4723    1.5313    0.0000 C   0  0  0  0  0  0  0  0  0  0  0  0
    8.7403    1.5313    0.0000 C   0  0  0  0  0  0  0  0  0  0  0  0
    5.3903    2.2518    0.0000 C   0  0  0  0  0  0  0  0  0  0  0  0
    5.5938   -2.6407    0.0000 C   0  0  1  0  0  0  0  0  0  0  0  0
   11.3383    0.0313    0.0000 C   0  0  0  0  0  0  0  0  0  0  0  0
   12.2044   -0.4687    0.0000 C   0  0  2  0  0  0  0  0  0  0  0  0
   12.2044   -1.4687    0.0000 C   0  0  0  0  0  0  0  0  0  0  0  0
    6.3370   -3.3098    0.0000 C   0  0  0  0  0  0  0  0  0  0  0  0
    4.9836    3.1654    0.0000 C   0  0  0  0  0  0  0  0  0  0  0  0
    4.6428   -2.9497    0.0000 C   0  0  0  0  0  0  0  0  0  0  0  0
   11.3383   -1.9687    0.0000 C   0  0  0  0  0  0  0  0  0  0  0  0
   13.0704   -1.9687    0.0000 C   0  0  0  0  0  0  0  0  0  0  0  0
    6.1290   -4.2880    0.0000 C   0  0  0  0  0  0  0  0  0  0  0  0
    3.9890    3.2699    0.0000 C   0  0  0  0  0  0  0  0  0  0  0  0
   13.9364   -0.4687    0.0000 C   0  0  0  0  0  0  0  0  0  0  0  0
    3.5823    4.1835    0.0000 C   0  0  0  0  0  0  0  0  0  0  0  0
    3.4013    2.4609    0.0000 C   0  0  0  0  0  0  0  0  0  0  0  0
   14.8024    0.0313    0.0000 C   0  0  0  0  0  0  0  0  0  0  0  0
    2.5878    4.2880    0.0000 C   0  0  0  0  0  0  0  0  0  0  0  0
    2.4067    2.5654    0.0000 C   0  0  0  0  0  0  0  0  0  0  0  0
    2.0000    3.4790    0.0000 C   0  0  0  0  0  0  0  0  0  0  0  0
   14.8024    1.0313    0.0000 C   0  0  0  0  0  0  0  0  0  0  0  0
   16.5345    0.0313    0.0000 C   0  0  0  0  0  0  0  0  0  0  0  0
   16.5345    1.0313    0.0000 C   0  0  0  0  0  0  0  0  0  0  0  0
    7.4425   -0.7656    0.0000 H   0  0  0  0  0  0  0  0  0  0  0  0
    6.1724    1.2662    0.0000 H   0  0  0  0  0  0  0  0  0  0  0  0
    5.7900    0.7322    0.0000 H   0  0  0  0  0  0  0  0  0  0  0  0
    5.8767   -0.0930    0.0000 H   0  0  0  0  0  0  0  0  0  0  0  0
    8.3897    1.0259    0.0000 H   0  0  0  0  0  0  0  0  0  0  0  0
    7.8345    1.6425    0.0000 H   0  0  0  0  0  0  0  0  0  0  0  0
    9.6063   -0.5887    0.0000 H   0  0  0  0  0  0  0  0  0  0  0  0
    6.7492    2.6489    0.0000 H   0  0  0  0  0  0  0  0  0  0  0  0
   10.1432    0.7213    0.0000 H   0  0  0  0  0  0  0  0  0  0  0  0
   10.4723   -1.0887    0.0000 H   0  0  0  0  0  0  0  0  0  0  0  0
    5.3410   -1.2477    0.0000 H   0  0  0  0  0  0  0  0  0  0  0  0
   10.7823    0.9944    0.0000 H   0  0  0  0  0  0  0  0  0  0  0  0
   11.0092    1.8413    0.0000 H   0  0  0  0  0  0  0  0  0  0  0  0
   10.1623    2.0683    0.0000 H   0  0  0  0  0  0  0  0  0  0  0  0
    9.0503    2.0683    0.0000 H   0  0  0  0  0  0  0  0  0  0  0  0
    8.2033    1.8413    0.0000 H   0  0  0  0  0  0  0  0  0  0  0  0
    8.4303    0.9944    0.0000 H   0  0  0  0  0  0  0  0  0  0  0  0
    5.1331   -2.2258    0.0000 H   0  0  0  0  0  0  0  0  0  0  0  0
   12.2044    0.1513    0.0000 H   0  0  0  0  0  0  0  0  0  0  0  0
   11.6674   -1.1587    0.0000 H   0  0  0  0  0  0  0  0  0  0  0  0
    6.9118   -3.5421    0.0000 H   0  0  0  0  0  0  0  0  0  0  0  0
    6.6655   -2.7840    0.0000 H   0  0  0  0  0  0  0  0  0  0  0  0
    4.1820   -2.5349    0.0000 H   0  0  0  0  0  0  0  0  0  0  0  0
   13.0704    0.6513    0.0000 H   0  0  0  0  0  0  0  0  0  0  0  0
   11.0283   -1.4317    0.0000 H   0  0  0  0  0  0  0  0  0  0  0  0
   10.8014   -2.2787    0.0000 H   0  0  0  0  0  0  0  0  0  0  0  0
   11.6483   -2.5056    0.0000 H   0  0  0  0  0  0  0  0  0  0  0  0
   12.7604   -2.5056    0.0000 H   0  0  0  0  0  0  0  0  0  0  0  0
   13.6073   -2.2787    0.0000 H   0  0  0  0  0  0  0  0  0  0  0  0
   13.3804   -1.4317    0.0000 H   0  0  0  0  0  0  0  0  0  0  0  0
    5.5226   -4.1591    0.0000 H   0  0  0  0  0  0  0  0  0  0  0  0
    6.0001   -4.8944    0.0000 H   0  0  0  0  0  0  0  0  0  0  0  0
    6.7355   -4.4169    0.0000 H   0  0  0  0  0  0  0  0  0  0  0  0
    3.9467    4.6851    0.0000 H   0  0  0  0  0  0  0  0  0  0  0  0
    3.6534    1.8945    0.0000 H   0  0  0  0  0  0  0  0  0  0  0  0
    2.3356    4.8544    0.0000 H   0  0  0  0  0  0  0  0  0  0  0  0
    2.0423    2.0638    0.0000 H   0  0  0  0  0  0  0  0  0  0  0  0
    1.3834    3.5438    0.0000 H   0  0  0  0  0  0  0  0  0  0  0  0
   14.2655    1.3413    0.0000 H   0  0  0  0  0  0  0  0  0  0  0  0
   17.0714   -0.2787    0.0000 H   0  0  0  0  0  0  0  0  0  0  0  0
   17.0714    1.3413    0.0000 H   0  0  0  0  0  0  0  0  0  0  0  0
  1 19  2  0  0  0  0
  2 21  2  0  0  0  0
  3 25  2  0  0  0  0
  4 27  2  0  0  0  0
  5 31  2  0  0  0  0
  6 32  2  0  0  0  0
  7 37  2  0  0  0  0
  8 15  1  0  0  0  0
  8 18  1  0  0  0  0
  8 19  1  0  0  0  0
 16  9  1  1  0  0  0
  9 25  1  0  0  0  0
  9 54  1  0  0  0  0
 20 10  1  6  0  0  0
 10 27  1  0  0  0  0
 10 56  1  0  0  0  0
 11 21  1  0  0  0  0
 26 11  1  1  0  0  0
 11 57  1  0  0  0  0
 28 12  1  1  0  0  0
 12 37  1  0  0  0  0
 12 70  1  0  0  0  0
 13 40  2  0  0  0  0
 13 45  1  0  0  0  0
 14 44  2  0  0  0  0
 14 46  1  0  0  0  0
 15 17  1  0  0  0  0
 15 21  1  6  0  0  0
 15 47  1  0  0  0  0
 16 17  1  0  0  0  0
 16 18  1  0  0  0  0
 16 48  1  0  0  0  0
 17 49  1  0  0  0  0
 17 50  1  0  0  0  0
 18 51  1  0  0  0  0
 18 52  1  0  0  0  0
 19 20  1  0  0  0  0
 20 22  1  0  0  0  0
 20 53  1  0  0  0  0
 22 23  1  0  0  0  0
 22 24  1  0  0  0  0
 22 55  1  0  0  0  0
 23 58  1  0  0  0  0
 23 59  1  0  0  0  0
 23 60  1  0  0  0  0
 24 61  1  0  0  0  0
 24 62  1  0  0  0  0
 24 63  1  0  0  0  0
 25 31  1  0  0  0  0
 26 30  1  0  0  0  0
 26 32  1  0  0  0  0
 26 64  1  0  0  0  0
 27 28  1  0  0  0  0
 28 29  1  0  0  0  0
 28 65  1  0  0  0  0
 29 33  1  0  0  0  0
 29 34  1  0  0  0  0
 29 66  1  0  0  0  0
 30 35  1  0  0  0  0
 30 67  1  0  0  0  0
 30 68  1  0  0  0  0
 31 36  1  0  0  0  0
 32 69  1  0  0  0  0
 33 71  1  0  0  0  0
 33 72  1  0  0  0  0
 33 73  1  0  0  0  0
 34 74  1  0  0  0  0
 34 75  1  0  0  0  0
 34 76  1  0  0  0  0
 35 77  1  0  0  0  0
 35 78  1  0  0  0  0
 35 79  1  0  0  0  0
 36 38  2  0  0  0  0
 36 39  1  0  0  0  0
 37 40  1  0  0  0  0
 38 41  1  0  0  0  0
 38 80  1  0  0  0  0
 39 42  2  0  0  0  0
 39 81  1  0  0  0  0
 40 44  1  0  0  0  0
 41 43  2  0  0  0  0
 41 82  1  0  0  0  0
 42 43  1  0  0  0  0
 42 83  1  0  0  0  0
 43 84  1  0  0  0  0
 44 85  1  0  0  0  0
 45 46  2  0  0  0  0
 45 86  1  0  0  0  0
 46 87  1  0  0  0  0
M  END
> <PUBCHEM_COMPOUND_CID>
506690
> <PUBCHEM_COMPOUND_CANONICALIZED>
1
> <PUBCHEM_CACTVS_COMPLEXITY>
1120
> <PUBCHEM_CACTVS_HBOND_ACCEPTOR>
9
> <PUBCHEM_CACTVS_HBOND_DONOR>
4
> <PUBCHEM_CACTVS_ROTATABLE_BOND>
14
> <PUBCHEM_CACTVS_SUBSKEYS>
AAADcfB/uAAAAAAAAAAAAAAAAAAAAWAAAAA8QAAAAAAAAAABwAAAHgAQAAAADSzhngY+gJPIEACoA7131ACCgCQ3EiAI2IG4dMgIYHrA1TGUIYgglgDIiccciYCOAAAAAAAAAAAAAAAAAAAAAAAAAAAAAA==
> <PUBCHEM_IUPAC_OPENEYE_NAME>
N-[(1S)-1-[[(1S)-1-[(2S,4R)-2-[[(1S)-1-formylpropyl]carbamoyl]-4-[(2-oxo-2-phenyl-acetyl)amino]pyrrolidine-1-carbonyl]-2-methyl-propyl]carbamoyl]-2-methyl-propyl]pyrazine-2-carboxamide
> <PUBCHEM_IUPAC_CAS_NAME>
N-[(2S)-1-[[(2S)-1-[(2S,4R)-4-[(1,2-dioxo-2-phenylethyl)amino]-2-[oxo-[[(2S)-1-oxobutan-2-yl]amino]methyl]-1-pyrrolidinyl]-3-methyl-1-oxobutan-2-yl]amino]-3-methyl-1-oxobutan-2-yl]-2-pyrazinecarboxamide
> <PUBCHEM_IUPAC_NAME_MARKUP>
<I>N</I>-[(2<I>S</I>)-3-methyl-1-[[(2<I>S</I>)-3-methyl-1-oxo-1-[(2<I>S</I>,4<I>R</I>)-2-[[(2<I>S</I>)-1-oxobutan-2-yl]carbamoyl]-4-[(2-oxo-2-phenylacetyl)amino]pyrrolidin-1-yl]butan-2-yl]amino]-1-oxobutan-2-yl]pyrazine-2-carboxamide
> <PUBCHEM_IUPAC_NAME>
N-[(2S)-3-methyl-1-[[(2S)-3-methyl-1-oxo-1-[(2S,4R)-2-[[(2S)-1-oxobutan-2-yl]carbamoyl]-4-[(2-oxo-2-phenylacetyl)amino]pyrrolidin-1-yl]butan-2-yl]amino]-1-oxobutan-2-yl]pyrazine-2-carboxamide
> <PUBCHEM_IUPAC_SYSTEMATIC_NAME>
N-[(2S)-3-methyl-1-[[(2S)-3-methyl-1-oxidanylidene-1-[(2S,4R)-2-[[(2S)-1-oxidanylidenebutan-2-yl]carbamoyl]-4-[(2-oxidanylidene-2-phenyl-ethanoyl)amino]pyrrolidin-1-yl]butan-2-yl]amino]-1-oxidanylidene-butan-2-yl]pyrazine-2-carboxamide
> <PUBCHEM_IUPAC_TRADITIONAL_NAME>
N-[(1S)-1-[[(1S)-1-[(2S,4R)-2-[[(1S)-1-formylpropyl]carbamoyl]-4-[(2-keto-2-phenyl-acetyl)amino]pyrrolidine-1-carbonyl]-2-methyl-propyl]carbamoyl]-2-methyl-propyl]pyrazinamide
> <PUBCHEM_IUPAC_INCHI>
InChI=1S/C32H41N7O7/c1-6-21(17-40)35-29(43)24-14-22(36-31(45)27(41)20-10-8-7-9-11-20)16-39(24)32(46)26(19(4)5)38-30(44)25(18(2)3)37-28(42)23-15-33-12-13-34-23/h7-13,15,17-19,21-22,24-26H,6,14,16H2,1-5H3,(H,35,43)(H,36,45)(H,37,42)(H,38,44)/t21-,22+,24-,25-,26-/m0/s1
> <PUBCHEM_IUPAC_INCHIKEY>
LVRMZZVZVZRKJW-KIRBFPCPSA-N
> <PUBCHEM_XLOGP3_AA>
1.9
> <PUBCHEM_EXACT_MASS>
635.30674667
> <PUBCHEM_MOLECULAR_FORMULA>
C32H41N7O7
> <PUBCHEM_MOLECULAR_WEIGHT>
635.7
> <PUBCHEM_OPENEYE_CAN_SMILES>
CCC(C=O)NC(=O)C1CC(CN1C(=O)C(C(C)C)NC(=O)C(C(C)C)NC(=O)C2=NC=CN=C2)NC(=O)C(=O)C3=CC=CC=C3
> <PUBCHEM_OPENEYE_ISO_SMILES>
CC[C@@H](C=O)NC(=O)[C@@H]1C[C@H](CN1C(=O)[C@H](C(C)C)NC(=O)[C@H](C(C)C)NC(=O)C2=NC=CN=C2)NC(=O)C(=O)C3=CC=CC=C3
> <PUBCHEM_CACTVS_TPSA>
197
> <PUBCHEM_MONOISOTOPIC_WEIGHT>
635.30674667
> <PUBCHEM_TOTAL_CHARGE>
0
> <PUBCHEM_HEAVY_ATOM_COUNT>
46
> <PUBCHEM_ATOM_DEF_STEREO_COUNT>
5
> <PUBCHEM_ATOM_UDEF_STEREO_COUNT>
0
> <PUBCHEM_BOND_DEF_STEREO_COUNT>
0
> <PUBCHEM_BOND_UDEF_STEREO_COUNT>
0
> <PUBCHEM_ISOTOPIC_ATOM_COUNT>
0
> <PUBCHEM_COMPONENT_COUNT>
1
> <PUBCHEM_CACTVS_TAUTO_COUNT>
-1
> <PUBCHEM_COORDINATE_TYPE>
1
5
255
> <PUBCHEM_BONDANNOTATIONS>
20  10  6
26  11  5
28  12  5
13  40  8
13  45  8
14  44  8
14  46  8
15  21  6
36  38  8
36  39  8
38  41  8
39  42  8
40  44  8
41  43  8
42  43  8
45  46  8
16  9  5
$$$$
