506692
  -OEChem-10302200282D
 91 94  0     1  0  0  0  0  0999 V2000
    7.4240   -1.0418    0.0000 O   0  0  0  0  0  0  0  0  0  0  0  0
    8.1050   -2.2214    0.0000 O   0  0  0  0  0  0  0  0  0  0  0  0
   12.3210   -1.0009    0.0000 O   0  0  0  0  0  0  0  0  0  0  0  0
    6.7916    2.5078    0.0000 O   0  0  0  0  0  0  0  0  0  0  0  0
    9.4616   -5.5620    0.0000 O   0  0  0  0  0  0  0  0  0  0  0  0
    3.2202    2.0124    0.0000 O   0  0  0  0  0  0  0  0  0  0  0  0
    9.0063   -0.3373    0.0000 N   0  0  0  0  0  0  0  0  0  0  0  0
   11.4550    0.4991    0.0000 N   0  0  0  0  0  0  0  0  0  0  0  0
    6.6105    0.7853    0.0000 N   0  0  0  0  0  0  0  0  0  0  0  0
    9.6873   -2.9259    0.0000 N   0  0  0  0  0  0  0  0  0  0  0  0
    4.8025    2.7169    0.0000 N   0  0  0  0  0  0  0  0  0  0  0  0
    2.4067    3.8395    0.0000 N   0  0  0  0  0  0  0  0  0  0  0  0
    3.5823    5.4575    0.0000 N   0  0  0  0  0  0  0  0  0  0  0  0
    9.5063   -1.2034    0.0000 C   0  0  1  0  0  0  0  0  0  0  0  0
   10.5890   -0.0009    0.0000 C   0  0  2  0  0  0  0  0  0  0  0  0
   10.4844   -0.9955    0.0000 C   0  0  0  0  0  0  0  0  0  0  0  0
    9.6754    0.4058    0.0000 C   0  0  0  0  0  0  0  0  0  0  0  0
    8.0118   -0.2328    0.0000 C   0  0  0  0  0  0  0  0  0  0  0  0
    7.6050    0.6807    0.0000 C   0  0  2  0  0  0  0  0  0  0  0  0
    9.0996   -2.1169    0.0000 C   0  0  0  0  0  0  0  0  0  0  0  0
    8.1928    1.4897    0.0000 C   0  0  0  0  0  0  0  0  0  0  0  0
   12.3210   -0.0009    0.0000 C   0  0  0  0  0  0  0  0  0  0  0  0
    7.7861    2.4033    0.0000 C   0  0  0  0  0  0  0  0  0  0  0  0
    9.1873    1.3852    0.0000 C   0  0  0  0  0  0  0  0  0  0  0  0
    9.2806   -3.8395    0.0000 C   0  0  1  0  0  0  0  0  0  0  0  0
    6.2038    1.6988    0.0000 C   0  0  0  0  0  0  0  0  0  0  0  0
    5.2092    1.8033    0.0000 C   0  0  2  0  0  0  0  0  0  0  0  0
    4.6215    0.9943    0.0000 C   0  0  0  0  0  0  0  0  0  0  0  0
   13.1870    0.4991    0.0000 C   0  0  0  0  0  0  0  0  0  0  0  0
    8.2861   -3.9440    0.0000 C   0  0  0  0  0  0  0  0  0  0  0  0
    9.8684   -4.6485    0.0000 C   0  0  0  0  0  0  0  0  0  0  0  0
    3.6270    1.0988    0.0000 C   0  0  0  0  0  0  0  0  0  0  0  0
    5.0282    0.0808    0.0000 C   0  0  0  0  0  0  0  0  0  0  0  0
   14.0531   -0.0009    0.0000 C   0  0  0  0  0  0  0  0  0  0  0  0
   13.1870    1.4991    0.0000 C   0  0  0  0  0  0  0  0  0  0  0  0
    7.8794   -4.8576    0.0000 C   0  0  0  0  0  0  0  0  0  0  0  0
   14.9191    0.4991    0.0000 C   0  0  0  0  0  0  0  0  0  0  0  0
   14.0531    1.9991    0.0000 C   0  0  0  0  0  0  0  0  0  0  0  0
   14.9191    1.4991    0.0000 C   0  0  0  0  0  0  0  0  0  0  0  0
    3.8080    2.8214    0.0000 C   0  0  0  0  0  0  0  0  0  0  0  0
   15.8130   -0.0356    0.0000 C   0  0  0  0  0  0  0  0  0  0  0  0
   15.8130    2.0337    0.0000 C   0  0  0  0  0  0  0  0  0  0  0  0
    3.4013    3.7350    0.0000 C   0  0  0  0  0  0  0  0  0  0  0  0
   16.7191    0.4782    0.0000 C   0  0  0  0  0  0  0  0  0  0  0  0
   16.7191    1.5199    0.0000 C   0  0  0  0  0  0  0  0  0  0  0  0
    3.9890    4.5440    0.0000 C   0  0  0  0  0  0  0  0  0  0  0  0
    2.0000    4.7530    0.0000 C   0  0  0  0  0  0  0  0  0  0  0  0
    2.5878    5.5620    0.0000 C   0  0  0  0  0  0  0  0  0  0  0  0
    8.8871   -1.2358    0.0000 H   0  0  0  0  0  0  0  0  0  0  0  0
   11.1089   -0.3386    0.0000 H   0  0  0  0  0  0  0  0  0  0  0  0
   10.5492   -1.6121    0.0000 H   0  0  0  0  0  0  0  0  0  0  0  0
   11.1044   -0.9955    0.0000 H   0  0  0  0  0  0  0  0  0  0  0  0
    9.9854    0.9427    0.0000 H   0  0  0  0  0  0  0  0  0  0  0  0
    9.1738    0.7702    0.0000 H   0  0  0  0  0  0  0  0  0  0  0  0
    7.2406    0.1791    0.0000 H   0  0  0  0  0  0  0  0  0  0  0  0
   11.4550    1.1191    0.0000 H   0  0  0  0  0  0  0  0  0  0  0  0
    8.5572    1.9913    0.0000 H   0  0  0  0  0  0  0  0  0  0  0  0
    6.2461    0.2837    0.0000 H   0  0  0  0  0  0  0  0  0  0  0  0
   10.3039   -2.8611    0.0000 H   0  0  0  0  0  0  0  0  0  0  0  0
    8.3525    2.6555    0.0000 H   0  0  0  0  0  0  0  0  0  0  0  0
    7.5339    2.9697    0.0000 H   0  0  0  0  0  0  0  0  0  0  0  0
    7.2197    2.1511    0.0000 H   0  0  0  0  0  0  0  0  0  0  0  0
    9.1225    0.7686    0.0000 H   0  0  0  0  0  0  0  0  0  0  0  0
    9.8040    1.3204    0.0000 H   0  0  0  0  0  0  0  0  0  0  0  0
    9.2522    2.0018    0.0000 H   0  0  0  0  0  0  0  0  0  0  0  0
    8.9162   -3.3379    0.0000 H   0  0  0  0  0  0  0  0  0  0  0  0
    5.5737    2.3049    0.0000 H   0  0  0  0  0  0  0  0  0  0  0  0
    5.2381    0.9295    0.0000 H   0  0  0  0  0  0  0  0  0  0  0  0
    8.3293   -3.3255    0.0000 H   0  0  0  0  0  0  0  0  0  0  0  0
    7.6845   -3.7940    0.0000 H   0  0  0  0  0  0  0  0  0  0  0  0
   10.4850   -4.5837    0.0000 H   0  0  0  0  0  0  0  0  0  0  0  0
    5.1669    3.2185    0.0000 H   0  0  0  0  0  0  0  0  0  0  0  0
    3.6918    1.7154    0.0000 H   0  0  0  0  0  0  0  0  0  0  0  0
    3.0103    1.1636    0.0000 H   0  0  0  0  0  0  0  0  0  0  0  0
    3.5621    0.4822    0.0000 H   0  0  0  0  0  0  0  0  0  0  0  0
    4.4618   -0.1714    0.0000 H   0  0  0  0  0  0  0  0  0  0  0  0
    5.2804   -0.4856    0.0000 H   0  0  0  0  0  0  0  0  0  0  0  0
    5.5946    0.3329    0.0000 H   0  0  0  0  0  0  0  0  0  0  0  0
   14.0531   -0.6209    0.0000 H   0  0  0  0  0  0  0  0  0  0  0  0
   12.6501    1.8091    0.0000 H   0  0  0  0  0  0  0  0  0  0  0  0
    7.3130   -4.6054    0.0000 H   0  0  0  0  0  0  0  0  0  0  0  0
    7.6272   -5.4239    0.0000 H   0  0  0  0  0  0  0  0  0  0  0  0
    8.4457   -5.1097    0.0000 H   0  0  0  0  0  0  0  0  0  0  0  0
   14.0531    2.6191    0.0000 H   0  0  0  0  0  0  0  0  0  0  0  0
   15.8059   -0.6556    0.0000 H   0  0  0  0  0  0  0  0  0  0  0  0
   15.8059    2.6537    0.0000 H   0  0  0  0  0  0  0  0  0  0  0  0
   17.2548    0.1662    0.0000 H   0  0  0  0  0  0  0  0  0  0  0  0
   17.2548    1.8320    0.0000 H   0  0  0  0  0  0  0  0  0  0  0  0
    4.6056    4.4792    0.0000 H   0  0  0  0  0  0  0  0  0  0  0  0
    1.3834    4.8178    0.0000 H   0  0  0  0  0  0  0  0  0  0  0  0
    2.3356    6.1284    0.0000 H   0  0  0  0  0  0  0  0  0  0  0  0
  1 18  2  0  0  0  0
  2 20  2  0  0  0  0
  3 22  2  0  0  0  0
  4 26  2  0  0  0  0
  5 31  2  0  0  0  0
  6 40  2  0  0  0  0
  7 14  1  0  0  0  0
  7 17  1  0  0  0  0
  7 18  1  0  0  0  0
 15  8  1  6  0  0  0
  8 22  1  0  0  0  0
  8 56  1  0  0  0  0
 19  9  1  1  0  0  0
  9 26  1  0  0  0  0
  9 58  1  0  0  0  0
 10 20  1  0  0  0  0
 25 10  1  6  0  0  0
 10 59  1  0  0  0  0
 27 11  1  6  0  0  0
 11 40  1  0  0  0  0
 11 72  1  0  0  0  0
 12 43  2  0  0  0  0
 12 47  1  0  0  0  0
 13 46  2  0  0  0  0
 13 48  1  0  0  0  0
 14 16  1  0  0  0  0
 14 20  1  1  0  0  0
 14 49  1  0  0  0  0
 15 16  1  0  0  0  0
 15 17  1  0  0  0  0
 15 50  1  0  0  0  0
 16 51  1  0  0  0  0
 16 52  1  0  0  0  0
 17 53  1  0  0  0  0
 17 54  1  0  0  0  0
 18 19  1  0  0  0  0
 19 21  1  0  0  0  0
 19 55  1  0  0  0  0
 21 23  1  0  0  0  0
 21 24  1  0  0  0  0
 21 57  1  0  0  0  0
 22 29  1  0  0  0  0
 23 60  1  0  0  0  0
 23 61  1  0  0  0  0
 23 62  1  0  0  0  0
 24 63  1  0  0  0  0
 24 64  1  0  0  0  0
 24 65  1  0  0  0  0
 25 30  1  0  0  0  0
 25 31  1  0  0  0  0
 25 66  1  0  0  0  0
 26 27  1  0  0  0  0
 27 28  1  0  0  0  0
 27 67  1  0  0  0  0
 28 32  1  0  0  0  0
 28 33  1  0  0  0  0
 28 68  1  0  0  0  0
 29 34  2  0  0  0  0
 29 35  1  0  0  0  0
 30 36  1  0  0  0  0
 30 69  1  0  0  0  0
 30 70  1  0  0  0  0
 31 71  1  0  0  0  0
 32 73  1  0  0  0  0
 32 74  1  0  0  0  0
 32 75  1  0  0  0  0
 33 76  1  0  0  0  0
 33 77  1  0  0  0  0
 33 78  1  0  0  0  0
 34 37  1  0  0  0  0
 34 79  1  0  0  0  0
 35 38  2  0  0  0  0
 35 80  1  0  0  0  0
 36 81  1  0  0  0  0
 36 82  1  0  0  0  0
 36 83  1  0  0  0  0
 37 39  1  0  0  0  0
 37 41  2  0  0  0  0
 38 39  1  0  0  0  0
 38 84  1  0  0  0  0
 39 42  2  0  0  0  0
 40 43  1  0  0  0  0
 41 44  1  0  0  0  0
 41 85  1  0  0  0  0
 42 45  1  0  0  0  0
 42 86  1  0  0  0  0
 43 46  1  0  0  0  0
 44 45  2  0  0  0  0
 44 87  1  0  0  0  0
 45 88  1  0  0  0  0
 46 89  1  0  0  0  0
 47 48  2  0  0  0  0
 47 90  1  0  0  0  0
 48 91  1  0  0  0  0
M  END
> <PUBCHEM_COMPOUND_CID>
506692
> <PUBCHEM_COMPOUND_CANONICALIZED>
1
> <PUBCHEM_CACTVS_COMPLEXITY>
1160
> <PUBCHEM_CACTVS_HBOND_ACCEPTOR>
8
> <PUBCHEM_CACTVS_HBOND_DONOR>
4
> <PUBCHEM_CACTVS_ROTATABLE_BOND>
13
> <PUBCHEM_CACTVS_SUBSKEYS>
AAADcfB/uAAAAAAAAAAAAAAAAAAAAWAAAAA8YIAAAAAAAADB1AAAHgAQAAAADSjhngY+gNPIEACoAz131ACCgCQ3EiAI2IG4dMgIYHrA1TGUIYhglgDIicccicCOwAACAAAQAACAAAQAACAAAAAAAAAAAA==
> <PUBCHEM_IUPAC_OPENEYE_NAME>
N-[(1S)-1-[[(1S)-1-[(2S,4R)-2-[[(1S)-1-formylpropyl]carbamoyl]-4-(naphthalene-2-carbonylamino)pyrrolidine-1-carbonyl]-2-methyl-propyl]carbamoyl]-2-methyl-propyl]pyrazine-2-carboxamide
> <PUBCHEM_IUPAC_CAS_NAME>
N-[(2S)-3-methyl-1-[[(2S)-3-methyl-1-[(2S,4R)-4-[[2-naphthalenyl(oxo)methyl]amino]-2-[oxo-[[(2S)-1-oxobutan-2-yl]amino]methyl]-1-pyrrolidinyl]-1-oxobutan-2-yl]amino]-1-oxobutan-2-yl]-2-pyrazinecarboxamide
> <PUBCHEM_IUPAC_NAME_MARKUP>
<I>N</I>-[(2<I>S</I>)-3-methyl-1-[[(2<I>S</I>)-3-methyl-1-[(2<I>S</I>,4<I>R</I>)-4-(naphthalene-2-carbonylamino)-2-[[(2<I>S</I>)-1-oxobutan-2-yl]carbamoyl]pyrrolidin-1-yl]-1-oxobutan-2-yl]amino]-1-oxobutan-2-yl]pyrazine-2-carboxamide
> <PUBCHEM_IUPAC_NAME>
N-[(2S)-3-methyl-1-[[(2S)-3-methyl-1-[(2S,4R)-4-(naphthalene-2-carbonylamino)-2-[[(2S)-1-oxobutan-2-yl]carbamoyl]pyrrolidin-1-yl]-1-oxobutan-2-yl]amino]-1-oxobutan-2-yl]pyrazine-2-carboxamide
> <PUBCHEM_IUPAC_SYSTEMATIC_NAME>
N-[(2S)-3-methyl-1-[[(2S)-3-methyl-1-[(2S,4R)-4-(naphthalen-2-ylcarbonylamino)-2-[[(2S)-1-oxidanylidenebutan-2-yl]carbamoyl]pyrrolidin-1-yl]-1-oxidanylidene-butan-2-yl]amino]-1-oxidanylidene-butan-2-yl]pyrazine-2-carboxamide
> <PUBCHEM_IUPAC_TRADITIONAL_NAME>
N-[(1S)-1-[[(1S)-1-[(2S,4R)-2-[[(1S)-1-formylpropyl]carbamoyl]-4-(2-naphthoylamino)pyrrolidine-1-carbonyl]-2-methyl-propyl]carbamoyl]-2-methyl-propyl]pyrazinamide
> <PUBCHEM_IUPAC_INCHI>
InChI=1S/C35H43N7O6/c1-6-25(19-43)38-33(46)28-16-26(39-31(44)24-12-11-22-9-7-8-10-23(22)15-24)18-42(28)35(48)30(21(4)5)41-34(47)29(20(2)3)40-32(45)27-17-36-13-14-37-27/h7-15,17,19-21,25-26,28-30H,6,16,18H2,1-5H3,(H,38,46)(H,39,44)(H,40,45)(H,41,47)/t25-,26+,28-,29-,30-/m0/s1
> <PUBCHEM_IUPAC_INCHIKEY>
YDSADZITTGFOSU-FKKILGMSSA-N
> <PUBCHEM_XLOGP3_AA>
3.3
> <PUBCHEM_EXACT_MASS>
657.32748212
> <PUBCHEM_MOLECULAR_FORMULA>
C35H43N7O6
> <PUBCHEM_MOLECULAR_WEIGHT>
657.8
> <PUBCHEM_OPENEYE_CAN_SMILES>
CCC(C=O)NC(=O)C1CC(CN1C(=O)C(C(C)C)NC(=O)C(C(C)C)NC(=O)C2=NC=CN=C2)NC(=O)C3=CC4=CC=CC=C4C=C3
> <PUBCHEM_OPENEYE_ISO_SMILES>
CC[C@@H](C=O)NC(=O)[C@@H]1C[C@H](CN1C(=O)[C@H](C(C)C)NC(=O)[C@H](C(C)C)NC(=O)C2=NC=CN=C2)NC(=O)C3=CC4=CC=CC=C4C=C3
> <PUBCHEM_CACTVS_TPSA>
180
> <PUBCHEM_MONOISOTOPIC_WEIGHT>
657.32748212
> <PUBCHEM_TOTAL_CHARGE>
0
> <PUBCHEM_HEAVY_ATOM_COUNT>
48
> <PUBCHEM_ATOM_DEF_STEREO_COUNT>
5
> <PUBCHEM_ATOM_UDEF_STEREO_COUNT>
0
> <PUBCHEM_BOND_DEF_STEREO_COUNT>
0
> <PUBCHEM_BOND_UDEF_STEREO_COUNT>
0
> <PUBCHEM_ISOTOPIC_ATOM_COUNT>
0
> <PUBCHEM_COMPONENT_COUNT>
1
> <PUBCHEM_CACTVS_TAUTO_COUNT>
-1
> <PUBCHEM_COORDINATE_TYPE>
1
5
255
> <PUBCHEM_BONDANNOTATIONS>
25  10  6
27  11  6
12  43  8
12  47  8
13  46  8
13  48  8
14  20  5
29  34  8
29  35  8
34  37  8
35  38  8
37  39  8
37  41  8
38  39  8
39  42  8
41  44  8
42  45  8
43  46  8
44  45  8
47  48  8
15  8  6
19  9  5
$$$$
