506689
  -OEChem-10302200282D
 88 90  0     1  0  0  0  0  0999 V2000
    8.7403   -1.4687    0.0000 O   0  0  0  0  0  0  0  0  0  0  0  0
    7.4959   -2.0227    0.0000 O   0  0  0  0  0  0  0  0  0  0  0  0
    4.8025    1.4428    0.0000 O   0  0  0  0  0  0  0  0  0  0  0  0
   11.3383    1.0313    0.0000 O   0  0  0  0  0  0  0  0  0  0  0  0
    4.4348   -3.9279    0.0000 O   0  0  0  0  0  0  0  0  0  0  0  0
   13.9364   -1.4687    0.0000 O   0  0  0  0  0  0  0  0  0  0  0  0
    7.8742    0.0313    0.0000 N   0  0  0  0  0  0  0  0  0  0  0  0
    6.3848    2.1473    0.0000 N   0  0  0  0  0  0  0  0  0  0  0  0
   10.4723   -0.4687    0.0000 N   0  0  0  0  0  0  0  0  0  0  0  0
    5.8017   -1.6626    0.0000 N   0  0  0  0  0  0  0  0  0  0  0  0
   13.0704    0.0313    0.0000 N   0  0  0  0  0  0  0  0  0  0  0  0
   15.6685   -0.4687    0.0000 N   0  0  0  0  0  0  0  0  0  0  0  0
   15.6685    1.5313    0.0000 N   0  0  0  0  0  0  0  0  0  0  0  0
    6.9607   -0.3754    0.0000 C   0  0  1  0  0  0  0  0  0  0  0  0
    6.7916    1.2338    0.0000 C   0  0  2  0  0  0  0  0  0  0  0  0
    6.2916    0.3677    0.0000 C   0  0  0  0  0  0  0  0  0  0  0  0
    7.7697    1.0259    0.0000 C   0  0  0  0  0  0  0  0  0  0  0  0
    8.7403   -0.4687    0.0000 C   0  0  0  0  0  0  0  0  0  0  0  0
    9.6063    0.0313    0.0000 C   0  0  2  0  0  0  0  0  0  0  0  0
    6.7528   -1.3536    0.0000 C   0  0  0  0  0  0  0  0  0  0  0  0
    9.6063    1.0313    0.0000 C   0  0  0  0  0  0  0  0  0  0  0  0
    5.3903    2.2518    0.0000 C   0  0  0  0  0  0  0  0  0  0  0  0
   10.4723    1.5313    0.0000 C   0  0  0  0  0  0  0  0  0  0  0  0
    8.7403    1.5313    0.0000 C   0  0  0  0  0  0  0  0  0  0  0  0
    5.5938   -2.6407    0.0000 C   0  0  1  0  0  0  0  0  0  0  0  0
   11.3383    0.0313    0.0000 C   0  0  0  0  0  0  0  0  0  0  0  0
   12.2044   -0.4687    0.0000 C   0  0  2  0  0  0  0  0  0  0  0  0
    4.9836    3.1654    0.0000 C   0  0  0  0  0  0  0  0  0  0  0  0
   12.2044   -1.4687    0.0000 C   0  0  0  0  0  0  0  0  0  0  0  0
    6.3370   -3.3098    0.0000 C   0  0  0  0  0  0  0  0  0  0  0  0
    4.6428   -2.9497    0.0000 C   0  0  0  0  0  0  0  0  0  0  0  0
    3.9890    3.2699    0.0000 C   0  0  0  0  0  0  0  0  0  0  0  0
   11.3383   -1.9687    0.0000 C   0  0  0  0  0  0  0  0  0  0  0  0
   13.0704   -1.9687    0.0000 C   0  0  0  0  0  0  0  0  0  0  0  0
    6.1290   -4.2880    0.0000 C   0  0  0  0  0  0  0  0  0  0  0  0
    3.5823    4.1835    0.0000 C   0  0  0  0  0  0  0  0  0  0  0  0
    3.4013    2.4609    0.0000 C   0  0  0  0  0  0  0  0  0  0  0  0
   13.9364   -0.4687    0.0000 C   0  0  0  0  0  0  0  0  0  0  0  0
    2.5878    4.2880    0.0000 C   0  0  0  0  0  0  0  0  0  0  0  0
    2.4067    2.5654    0.0000 C   0  0  0  0  0  0  0  0  0  0  0  0
   14.8024    0.0313    0.0000 C   0  0  0  0  0  0  0  0  0  0  0  0
    2.0000    3.4790    0.0000 C   0  0  0  0  0  0  0  0  0  0  0  0
   14.8024    1.0313    0.0000 C   0  0  0  0  0  0  0  0  0  0  0  0
   16.5345    0.0313    0.0000 C   0  0  0  0  0  0  0  0  0  0  0  0
   16.5345    1.0313    0.0000 C   0  0  0  0  0  0  0  0  0  0  0  0
    7.4425   -0.7656    0.0000 H   0  0  0  0  0  0  0  0  0  0  0  0
    6.1724    1.2662    0.0000 H   0  0  0  0  0  0  0  0  0  0  0  0
    5.7900    0.7322    0.0000 H   0  0  0  0  0  0  0  0  0  0  0  0
    5.8767   -0.0930    0.0000 H   0  0  0  0  0  0  0  0  0  0  0  0
    8.3897    1.0259    0.0000 H   0  0  0  0  0  0  0  0  0  0  0  0
    7.8345    1.6425    0.0000 H   0  0  0  0  0  0  0  0  0  0  0  0
    9.6063   -0.5887    0.0000 H   0  0  0  0  0  0  0  0  0  0  0  0
    6.7492    2.6489    0.0000 H   0  0  0  0  0  0  0  0  0  0  0  0
   10.1432    0.7213    0.0000 H   0  0  0  0  0  0  0  0  0  0  0  0
   10.4723   -1.0887    0.0000 H   0  0  0  0  0  0  0  0  0  0  0  0
    5.3410   -1.2477    0.0000 H   0  0  0  0  0  0  0  0  0  0  0  0
   10.7823    0.9944    0.0000 H   0  0  0  0  0  0  0  0  0  0  0  0
   11.0092    1.8413    0.0000 H   0  0  0  0  0  0  0  0  0  0  0  0
   10.1623    2.0683    0.0000 H   0  0  0  0  0  0  0  0  0  0  0  0
    9.0503    2.0683    0.0000 H   0  0  0  0  0  0  0  0  0  0  0  0
    8.2033    1.8413    0.0000 H   0  0  0  0  0  0  0  0  0  0  0  0
    8.4303    0.9944    0.0000 H   0  0  0  0  0  0  0  0  0  0  0  0
    5.1331   -2.2258    0.0000 H   0  0  0  0  0  0  0  0  0  0  0  0
   12.2044    0.1513    0.0000 H   0  0  0  0  0  0  0  0  0  0  0  0
    5.5851    3.3154    0.0000 H   0  0  0  0  0  0  0  0  0  0  0  0
    4.9403    3.7839    0.0000 H   0  0  0  0  0  0  0  0  0  0  0  0
   11.6674   -1.1587    0.0000 H   0  0  0  0  0  0  0  0  0  0  0  0
    6.9118   -3.5421    0.0000 H   0  0  0  0  0  0  0  0  0  0  0  0
    6.6655   -2.7840    0.0000 H   0  0  0  0  0  0  0  0  0  0  0  0
    4.1820   -2.5349    0.0000 H   0  0  0  0  0  0  0  0  0  0  0  0
   13.0704    0.6513    0.0000 H   0  0  0  0  0  0  0  0  0  0  0  0
   11.0283   -1.4317    0.0000 H   0  0  0  0  0  0  0  0  0  0  0  0
   10.8014   -2.2787    0.0000 H   0  0  0  0  0  0  0  0  0  0  0  0
   11.6483   -2.5056    0.0000 H   0  0  0  0  0  0  0  0  0  0  0  0
   12.7604   -2.5056    0.0000 H   0  0  0  0  0  0  0  0  0  0  0  0
   13.6073   -2.2787    0.0000 H   0  0  0  0  0  0  0  0  0  0  0  0
   13.3804   -1.4317    0.0000 H   0  0  0  0  0  0  0  0  0  0  0  0
    5.5226   -4.1591    0.0000 H   0  0  0  0  0  0  0  0  0  0  0  0
    6.0001   -4.8944    0.0000 H   0  0  0  0  0  0  0  0  0  0  0  0
    6.7355   -4.4169    0.0000 H   0  0  0  0  0  0  0  0  0  0  0  0
    3.9467    4.6851    0.0000 H   0  0  0  0  0  0  0  0  0  0  0  0
    3.6534    1.8945    0.0000 H   0  0  0  0  0  0  0  0  0  0  0  0
    2.3356    4.8544    0.0000 H   0  0  0  0  0  0  0  0  0  0  0  0
    2.0423    2.0638    0.0000 H   0  0  0  0  0  0  0  0  0  0  0  0
    1.3834    3.5438    0.0000 H   0  0  0  0  0  0  0  0  0  0  0  0
   14.2655    1.3413    0.0000 H   0  0  0  0  0  0  0  0  0  0  0  0
   17.0714   -0.2787    0.0000 H   0  0  0  0  0  0  0  0  0  0  0  0
   17.0714    1.3413    0.0000 H   0  0  0  0  0  0  0  0  0  0  0  0
  1 18  2  0  0  0  0
  2 20  2  0  0  0  0
  3 22  2  0  0  0  0
  4 26  2  0  0  0  0
  5 31  2  0  0  0  0
  6 38  2  0  0  0  0
  7 14  1  0  0  0  0
  7 17  1  0  0  0  0
  7 18  1  0  0  0  0
 15  8  1  1  0  0  0
  8 22  1  0  0  0  0
  8 53  1  0  0  0  0
 19  9  1  6  0  0  0
  9 26  1  0  0  0  0
  9 55  1  0  0  0  0
 10 20  1  0  0  0  0
 25 10  1  1  0  0  0
 10 56  1  0  0  0  0
 27 11  1  1  0  0  0
 11 38  1  0  0  0  0
 11 71  1  0  0  0  0
 12 41  2  0  0  0  0
 12 44  1  0  0  0  0
 13 43  2  0  0  0  0
 13 45  1  0  0  0  0
 14 16  1  0  0  0  0
 14 20  1  6  0  0  0
 14 46  1  0  0  0  0
 15 16  1  0  0  0  0
 15 17  1  0  0  0  0
 15 47  1  0  0  0  0
 16 48  1  0  0  0  0
 16 49  1  0  0  0  0
 17 50  1  0  0  0  0
 17 51  1  0  0  0  0
 18 19  1  0  0  0  0
 19 21  1  0  0  0  0
 19 52  1  0  0  0  0
 21 23  1  0  0  0  0
 21 24  1  0  0  0  0
 21 54  1  0  0  0  0
 22 28  1  0  0  0  0
 23 57  1  0  0  0  0
 23 58  1  0  0  0  0
 23 59  1  0  0  0  0
 24 60  1  0  0  0  0
 24 61  1  0  0  0  0
 24 62  1  0  0  0  0
 25 30  1  0  0  0  0
 25 31  1  0  0  0  0
 25 63  1  0  0  0  0
 26 27  1  0  0  0  0
 27 29  1  0  0  0  0
 27 64  1  0  0  0  0
 28 32  1  0  0  0  0
 28 65  1  0  0  0  0
 28 66  1  0  0  0  0
 29 33  1  0  0  0  0
 29 34  1  0  0  0  0
 29 67  1  0  0  0  0
 30 35  1  0  0  0  0
 30 68  1  0  0  0  0
 30 69  1  0  0  0  0
 31 70  1  0  0  0  0
 32 36  2  0  0  0  0
 32 37  1  0  0  0  0
 33 72  1  0  0  0  0
 33 73  1  0  0  0  0
 33 74  1  0  0  0  0
 34 75  1  0  0  0  0
 34 76  1  0  0  0  0
 34 77  1  0  0  0  0
 35 78  1  0  0  0  0
 35 79  1  0  0  0  0
 35 80  1  0  0  0  0
 36 39  1  0  0  0  0
 36 81  1  0  0  0  0
 37 40  2  0  0  0  0
 37 82  1  0  0  0  0
 38 41  1  0  0  0  0
 39 42  2  0  0  0  0
 39 83  1  0  0  0  0
 40 42  1  0  0  0  0
 40 84  1  0  0  0  0
 41 43  1  0  0  0  0
 42 85  1  0  0  0  0
 43 86  1  0  0  0  0
 44 45  2  0  0  0  0
 44 87  1  0  0  0  0
 45 88  1  0  0  0  0
M  END
> <PUBCHEM_COMPOUND_CID>
506689
> <PUBCHEM_COMPOUND_CANONICALIZED>
1
> <PUBCHEM_CACTVS_COMPLEXITY>
1050
> <PUBCHEM_CACTVS_HBOND_ACCEPTOR>
8
> <PUBCHEM_CACTVS_HBOND_DONOR>
4
> <PUBCHEM_CACTVS_ROTATABLE_BOND>
14
> <PUBCHEM_CACTVS_SUBSKEYS>
AAADcfB/uAAAAAAAAAAAAAAAAAAAAWAAAAA8QAAAAAAAAAABwAAAHgAQAAAADSjhngY+gJPIEACoAz131ACCgCQ3EiAI2IG4dMgIYHrA1TGUIIgglgDIiMcciYCOAAAAAAAAAAAAAAAAAAAAAAAAAAAAAA==
> <PUBCHEM_IUPAC_OPENEYE_NAME>
N-[(1S)-1-[[(1S)-1-[(2S,4R)-2-[[(1S)-1-formylpropyl]carbamoyl]-4-[(2-phenylacetyl)amino]pyrrolidine-1-carbonyl]-2-methyl-propyl]carbamoyl]-2-methyl-propyl]pyrazine-2-carboxamide
> <PUBCHEM_IUPAC_CAS_NAME>
N-[(2S)-3-methyl-1-[[(2S)-3-methyl-1-oxo-1-[(2S,4R)-2-[oxo-[[(2S)-1-oxobutan-2-yl]amino]methyl]-4-[(1-oxo-2-phenylethyl)amino]-1-pyrrolidinyl]butan-2-yl]amino]-1-oxobutan-2-yl]-2-pyrazinecarboxamide
> <PUBCHEM_IUPAC_NAME_MARKUP>
<I>N</I>-[(2<I>S</I>)-3-methyl-1-[[(2<I>S</I>)-3-methyl-1-oxo-1-[(2<I>S</I>,4<I>R</I>)-2-[[(2<I>S</I>)-1-oxobutan-2-yl]carbamoyl]-4-[(2-phenylacetyl)amino]pyrrolidin-1-yl]butan-2-yl]amino]-1-oxobutan-2-yl]pyrazine-2-carboxamide
> <PUBCHEM_IUPAC_NAME>
N-[(2S)-3-methyl-1-[[(2S)-3-methyl-1-oxo-1-[(2S,4R)-2-[[(2S)-1-oxobutan-2-yl]carbamoyl]-4-[(2-phenylacetyl)amino]pyrrolidin-1-yl]butan-2-yl]amino]-1-oxobutan-2-yl]pyrazine-2-carboxamide
> <PUBCHEM_IUPAC_SYSTEMATIC_NAME>
N-[(2S)-3-methyl-1-[[(2S)-3-methyl-1-oxidanylidene-1-[(2S,4R)-2-[[(2S)-1-oxidanylidenebutan-2-yl]carbamoyl]-4-(2-phenylethanoylamino)pyrrolidin-1-yl]butan-2-yl]amino]-1-oxidanylidene-butan-2-yl]pyrazine-2-carboxamide
> <PUBCHEM_IUPAC_TRADITIONAL_NAME>
N-[(1S)-1-[[(1S)-1-[(2S,4R)-2-[[(1S)-1-formylpropyl]carbamoyl]-4-[(2-phenylacetyl)amino]pyrrolidine-1-carbonyl]-2-methyl-propyl]carbamoyl]-2-methyl-propyl]pyrazinamide
> <PUBCHEM_IUPAC_INCHI>
InChI=1S/C32H43N7O6/c1-6-22(18-40)36-30(43)25-15-23(35-26(41)14-21-10-8-7-9-11-21)17-39(25)32(45)28(20(4)5)38-31(44)27(19(2)3)37-29(42)24-16-33-12-13-34-24/h7-13,16,18-20,22-23,25,27-28H,6,14-15,17H2,1-5H3,(H,35,41)(H,36,43)(H,37,42)(H,38,44)/t22-,23+,25-,27-,28-/m0/s1
> <PUBCHEM_IUPAC_INCHIKEY>
HOGGKKZHPIKYAB-CGACGQNGSA-N
> <PUBCHEM_XLOGP3_AA>
1.9
> <PUBCHEM_EXACT_MASS>
621.32748212
> <PUBCHEM_MOLECULAR_FORMULA>
C32H43N7O6
> <PUBCHEM_MOLECULAR_WEIGHT>
621.7
> <PUBCHEM_OPENEYE_CAN_SMILES>
CCC(C=O)NC(=O)C1CC(CN1C(=O)C(C(C)C)NC(=O)C(C(C)C)NC(=O)C2=NC=CN=C2)NC(=O)CC3=CC=CC=C3
> <PUBCHEM_OPENEYE_ISO_SMILES>
CC[C@@H](C=O)NC(=O)[C@@H]1C[C@H](CN1C(=O)[C@H](C(C)C)NC(=O)[C@H](C(C)C)NC(=O)C2=NC=CN=C2)NC(=O)CC3=CC=CC=C3
> <PUBCHEM_CACTVS_TPSA>
180
> <PUBCHEM_MONOISOTOPIC_WEIGHT>
621.32748212
> <PUBCHEM_TOTAL_CHARGE>
0
> <PUBCHEM_HEAVY_ATOM_COUNT>
45
> <PUBCHEM_ATOM_DEF_STEREO_COUNT>
5
> <PUBCHEM_ATOM_UDEF_STEREO_COUNT>
0
> <PUBCHEM_BOND_DEF_STEREO_COUNT>
0
> <PUBCHEM_BOND_UDEF_STEREO_COUNT>
0
> <PUBCHEM_ISOTOPIC_ATOM_COUNT>
0
> <PUBCHEM_COMPONENT_COUNT>
1
> <PUBCHEM_CACTVS_TAUTO_COUNT>
-1
> <PUBCHEM_COORDINATE_TYPE>
1
5
255
> <PUBCHEM_BONDANNOTATIONS>
25  10  5
27  11  5
12  41  8
12  44  8
13  43  8
13  45  8
14  20  6
32  36  8
32  37  8
36  39  8
37  40  8
39  42  8
40  42  8
41  43  8
44  45  8
15  8  5
19  9  6
$$$$
