506661
  -OEChem-10302200282D
 88 91  0     1  0  0  0  0  0999 V2000
   16.7313    0.3038    0.0000 S   0  0  0  0  0  0  0  0  0  0  0  0
   11.4550    0.4991    0.0000 O   0  0  0  0  0  0  0  0  0  0  0  0
    7.4240   -1.0418    0.0000 O   0  0  0  0  0  0  0  0  0  0  0  0
    8.1050   -2.2214    0.0000 O   0  0  0  0  0  0  0  0  0  0  0  0
    6.7916    2.5078    0.0000 O   0  0  0  0  0  0  0  0  0  0  0  0
   12.3210   -1.0009    0.0000 O   0  0  0  0  0  0  0  0  0  0  0  0
    9.4616   -5.5620    0.0000 O   0  0  0  0  0  0  0  0  0  0  0  0
    3.2202    2.0124    0.0000 O   0  0  0  0  0  0  0  0  0  0  0  0
    9.0063   -0.3373    0.0000 N   0  0  0  0  0  0  0  0  0  0  0  0
    6.6105    0.7853    0.0000 N   0  0  0  0  0  0  0  0  0  0  0  0
    9.6873   -2.9259    0.0000 N   0  0  0  0  0  0  0  0  0  0  0  0
    4.8025    2.7169    0.0000 N   0  0  0  0  0  0  0  0  0  0  0  0
   13.1870    0.4991    0.0000 N   0  0  0  0  0  0  0  0  0  0  0  0
    2.4067    3.8395    0.0000 N   0  0  0  0  0  0  0  0  0  0  0  0
   16.7313   -1.3057    0.0000 N   0  0  0  0  0  0  0  0  0  0  0  0
    3.5823    5.4575    0.0000 N   0  0  0  0  0  0  0  0  0  0  0  0
    9.5063   -1.2034    0.0000 C   0  0  1  0  0  0  0  0  0  0  0  0
   10.4844   -0.9955    0.0000 C   0  0  0  0  0  0  0  0  0  0  0  0
   10.5890   -0.0009    0.0000 C   0  0  2  0  0  0  0  0  0  0  0  0
    9.6754    0.4058    0.0000 C   0  0  0  0  0  0  0  0  0  0  0  0
    8.0118   -0.2328    0.0000 C   0  0  0  0  0  0  0  0  0  0  0  0
    7.6050    0.6807    0.0000 C   0  0  2  0  0  0  0  0  0  0  0  0
    9.0996   -2.1169    0.0000 C   0  0  0  0  0  0  0  0  0  0  0  0
    8.1928    1.4897    0.0000 C   0  0  0  0  0  0  0  0  0  0  0  0
    7.7861    2.4033    0.0000 C   0  0  0  0  0  0  0  0  0  0  0  0
    9.1873    1.3852    0.0000 C   0  0  0  0  0  0  0  0  0  0  0  0
    9.2806   -3.8395    0.0000 C   0  0  1  0  0  0  0  0  0  0  0  0
    6.2038    1.6988    0.0000 C   0  0  0  0  0  0  0  0  0  0  0  0
    5.2092    1.8033    0.0000 C   0  0  2  0  0  0  0  0  0  0  0  0
   12.3210   -0.0009    0.0000 C   0  0  0  0  0  0  0  0  0  0  0  0
    4.6215    0.9943    0.0000 C   0  0  0  0  0  0  0  0  0  0  0  0
    8.2861   -3.9440    0.0000 C   0  0  0  0  0  0  0  0  0  0  0  0
    9.8684   -4.6485    0.0000 C   0  0  0  0  0  0  0  0  0  0  0  0
    3.6270    1.0988    0.0000 C   0  0  0  0  0  0  0  0  0  0  0  0
    5.0282    0.0808    0.0000 C   0  0  0  0  0  0  0  0  0  0  0  0
    7.8794   -4.8576    0.0000 C   0  0  0  0  0  0  0  0  0  0  0  0
    3.8080    2.8214    0.0000 C   0  0  0  0  0  0  0  0  0  0  0  0
   14.0531   -0.0009    0.0000 C   0  0  0  0  0  0  0  0  0  0  0  0
   14.9191    0.4991    0.0000 C   0  0  0  0  0  0  0  0  0  0  0  0
   14.0531   -1.0009    0.0000 C   0  0  0  0  0  0  0  0  0  0  0  0
    3.4013    3.7350    0.0000 C   0  0  0  0  0  0  0  0  0  0  0  0
   15.7851   -0.0009    0.0000 C   0  0  0  0  0  0  0  0  0  0  0  0
   14.9191   -1.5009    0.0000 C   0  0  0  0  0  0  0  0  0  0  0  0
   15.7851   -1.0009    0.0000 C   0  0  0  0  0  0  0  0  0  0  0  0
    3.9890    4.5440    0.0000 C   0  0  0  0  0  0  0  0  0  0  0  0
    2.0000    4.7530    0.0000 C   0  0  0  0  0  0  0  0  0  0  0  0
   17.3150   -0.5009    0.0000 C   0  0  0  0  0  0  0  0  0  0  0  0
    2.5878    5.5620    0.0000 C   0  0  0  0  0  0  0  0  0  0  0  0
    8.8871   -1.2358    0.0000 H   0  0  0  0  0  0  0  0  0  0  0  0
   10.5492   -1.6121    0.0000 H   0  0  0  0  0  0  0  0  0  0  0  0
   11.1044   -0.9955    0.0000 H   0  0  0  0  0  0  0  0  0  0  0  0
   11.1089   -0.3386    0.0000 H   0  0  0  0  0  0  0  0  0  0  0  0
    9.9854    0.9427    0.0000 H   0  0  0  0  0  0  0  0  0  0  0  0
    9.1738    0.7702    0.0000 H   0  0  0  0  0  0  0  0  0  0  0  0
    7.2406    0.1791    0.0000 H   0  0  0  0  0  0  0  0  0  0  0  0
    8.5572    1.9913    0.0000 H   0  0  0  0  0  0  0  0  0  0  0  0
    6.2461    0.2837    0.0000 H   0  0  0  0  0  0  0  0  0  0  0  0
   10.3039   -2.8611    0.0000 H   0  0  0  0  0  0  0  0  0  0  0  0
    8.3525    2.6555    0.0000 H   0  0  0  0  0  0  0  0  0  0  0  0
    7.5339    2.9697    0.0000 H   0  0  0  0  0  0  0  0  0  0  0  0
    7.2197    2.1511    0.0000 H   0  0  0  0  0  0  0  0  0  0  0  0
    9.1225    0.7686    0.0000 H   0  0  0  0  0  0  0  0  0  0  0  0
    9.8040    1.3204    0.0000 H   0  0  0  0  0  0  0  0  0  0  0  0
    9.2522    2.0018    0.0000 H   0  0  0  0  0  0  0  0  0  0  0  0
    8.9162   -3.3379    0.0000 H   0  0  0  0  0  0  0  0  0  0  0  0
    5.5737    2.3049    0.0000 H   0  0  0  0  0  0  0  0  0  0  0  0
    5.2381    0.9295    0.0000 H   0  0  0  0  0  0  0  0  0  0  0  0
    8.3293   -3.3255    0.0000 H   0  0  0  0  0  0  0  0  0  0  0  0
    7.6845   -3.7940    0.0000 H   0  0  0  0  0  0  0  0  0  0  0  0
    5.1669    3.2185    0.0000 H   0  0  0  0  0  0  0  0  0  0  0  0
   10.4850   -4.5837    0.0000 H   0  0  0  0  0  0  0  0  0  0  0  0
    3.6918    1.7154    0.0000 H   0  0  0  0  0  0  0  0  0  0  0  0
    3.0103    1.1636    0.0000 H   0  0  0  0  0  0  0  0  0  0  0  0
    3.5621    0.4822    0.0000 H   0  0  0  0  0  0  0  0  0  0  0  0
    4.4618   -0.1714    0.0000 H   0  0  0  0  0  0  0  0  0  0  0  0
    5.2804   -0.4856    0.0000 H   0  0  0  0  0  0  0  0  0  0  0  0
    5.5946    0.3329    0.0000 H   0  0  0  0  0  0  0  0  0  0  0  0
   13.1870    1.1191    0.0000 H   0  0  0  0  0  0  0  0  0  0  0  0
    7.3130   -4.6054    0.0000 H   0  0  0  0  0  0  0  0  0  0  0  0
    7.6272   -5.4239    0.0000 H   0  0  0  0  0  0  0  0  0  0  0  0
    8.4457   -5.1097    0.0000 H   0  0  0  0  0  0  0  0  0  0  0  0
   14.9191    1.1191    0.0000 H   0  0  0  0  0  0  0  0  0  0  0  0
   13.5161   -1.3109    0.0000 H   0  0  0  0  0  0  0  0  0  0  0  0
   14.9191   -2.1209    0.0000 H   0  0  0  0  0  0  0  0  0  0  0  0
    4.6056    4.4792    0.0000 H   0  0  0  0  0  0  0  0  0  0  0  0
    1.3834    4.8178    0.0000 H   0  0  0  0  0  0  0  0  0  0  0  0
   17.9350   -0.5009    0.0000 H   0  0  0  0  0  0  0  0  0  0  0  0
    2.3356    6.1284    0.0000 H   0  0  0  0  0  0  0  0  0  0  0  0
  1 42  1  0  0  0  0
  1 47  1  0  0  0  0
 19  2  1  6  0  0  0
  2 30  1  0  0  0  0
  3 21  2  0  0  0  0
  4 23  2  0  0  0  0
  5 28  2  0  0  0  0
  6 30  2  0  0  0  0
  7 33  2  0  0  0  0
  8 37  2  0  0  0  0
  9 17  1  0  0  0  0
  9 20  1  0  0  0  0
  9 21  1  0  0  0  0
 22 10  1  1  0  0  0
 10 28  1  0  0  0  0
 10 57  1  0  0  0  0
 11 23  1  0  0  0  0
 27 11  1  6  0  0  0
 11 58  1  0  0  0  0
 29 12  1  6  0  0  0
 12 37  1  0  0  0  0
 12 70  1  0  0  0  0
 13 30  1  0  0  0  0
 13 38  1  0  0  0  0
 13 78  1  0  0  0  0
 14 41  2  0  0  0  0
 14 46  1  0  0  0  0
 15 44  1  0  0  0  0
 15 47  2  0  0  0  0
 16 45  2  0  0  0  0
 16 48  1  0  0  0  0
 17 18  1  0  0  0  0
 17 23  1  1  0  0  0
 17 49  1  0  0  0  0
 18 19  1  0  0  0  0
 18 50  1  0  0  0  0
 18 51  1  0  0  0  0
 19 20  1  0  0  0  0
 19 52  1  0  0  0  0
 20 53  1  0  0  0  0
 20 54  1  0  0  0  0
 21 22  1  0  0  0  0
 22 24  1  0  0  0  0
 22 55  1  0  0  0  0
 24 25  1  0  0  0  0
 24 26  1  0  0  0  0
 24 56  1  0  0  0  0
 25 59  1  0  0  0  0
 25 60  1  0  0  0  0
 25 61  1  0  0  0  0
 26 62  1  0  0  0  0
 26 63  1  0  0  0  0
 26 64  1  0  0  0  0
 27 32  1  0  0  0  0
 27 33  1  0  0  0  0
 27 65  1  0  0  0  0
 28 29  1  0  0  0  0
 29 31  1  0  0  0  0
 29 66  1  0  0  0  0
 31 34  1  0  0  0  0
 31 35  1  0  0  0  0
 31 67  1  0  0  0  0
 32 36  1  0  0  0  0
 32 68  1  0  0  0  0
 32 69  1  0  0  0  0
 33 71  1  0  0  0  0
 34 72  1  0  0  0  0
 34 73  1  0  0  0  0
 34 74  1  0  0  0  0
 35 75  1  0  0  0  0
 35 76  1  0  0  0  0
 35 77  1  0  0  0  0
 36 79  1  0  0  0  0
 36 80  1  0  0  0  0
 36 81  1  0  0  0  0
 37 41  1  0  0  0  0
 38 39  2  0  0  0  0
 38 40  1  0  0  0  0
 39 42  1  0  0  0  0
 39 82  1  0  0  0  0
 40 43  2  0  0  0  0
 40 83  1  0  0  0  0
 41 45  1  0  0  0  0
 42 44  2  0  0  0  0
 43 44  1  0  0  0  0
 43 84  1  0  0  0  0
 45 85  1  0  0  0  0
 46 48  2  0  0  0  0
 46 86  1  0  0  0  0
 47 87  1  0  0  0  0
 48 88  1  0  0  0  0
M  END
> <PUBCHEM_COMPOUND_CID>
506661
> <PUBCHEM_COMPOUND_CANONICALIZED>
1
> <PUBCHEM_CACTVS_COMPLEXITY>
1180
> <PUBCHEM_CACTVS_HBOND_ACCEPTOR>
11
> <PUBCHEM_CACTVS_HBOND_DONOR>
4
> <PUBCHEM_CACTVS_ROTATABLE_BOND>
14
> <PUBCHEM_CACTVS_SUBSKEYS>
AAADcfB/+ABAAAAAAAAAAAAAAAAAAWLAAAA8QAAAAAAAAFgB/AAAHgQQAAAADTzh1ga+ybPIFAisAT133ACD8KR3GjhI2L24dNkKYPrg0bGdIIxmlgDYyMc6AQAIAACAACAAAQAAAQAAQAACAAAAAAAAAA==
> <PUBCHEM_IUPAC_OPENEYE_NAME>
[(3R,5S)-5-[[(1S)-1-formylpropyl]carbamoyl]-1-[(2S)-3-methyl-2-[[(2S)-3-methyl-2-(pyrazine-2-carbonylamino)butanoyl]amino]butanoyl]pyrrolidin-3-yl] N-(1,3-benzothiazol-6-yl)carbamate
> <PUBCHEM_IUPAC_CAS_NAME>
N-(1,3-benzothiazol-6-yl)carbamic acid [(3R,5S)-1-[(2S)-3-methyl-2-[[(2S)-3-methyl-1-oxo-2-[[oxo(2-pyrazinyl)methyl]amino]butyl]amino]-1-oxobutyl]-5-[oxo-[[(2S)-1-oxobutan-2-yl]amino]methyl]-3-pyrrolidinyl] ester
> <PUBCHEM_IUPAC_NAME_MARKUP>
[(3<I>R</I>,5<I>S</I>)-1-[(2<I>S</I>)-3-methyl-2-[[(2<I>S</I>)-3-methyl-2-(pyrazine-2-carbonylamino)butanoyl]amino]butanoyl]-5-[[(2<I>S</I>)-1-oxobutan-2-yl]carbamoyl]pyrrolidin-3-yl] <I>N</I>-(1,3-benzothiazol-6-yl)carbamate
> <PUBCHEM_IUPAC_NAME>
[(3R,5S)-1-[(2S)-3-methyl-2-[[(2S)-3-methyl-2-(pyrazine-2-carbonylamino)butanoyl]amino]butanoyl]-5-[[(2S)-1-oxobutan-2-yl]carbamoyl]pyrrolidin-3-yl] N-(1,3-benzothiazol-6-yl)carbamate
> <PUBCHEM_IUPAC_SYSTEMATIC_NAME>
[(3R,5S)-1-[(2S)-3-methyl-2-[[(2S)-3-methyl-2-(pyrazin-2-ylcarbonylamino)butanoyl]amino]butanoyl]-5-[[(2S)-1-oxidanylidenebutan-2-yl]carbamoyl]pyrrolidin-3-yl] N-(1,3-benzothiazol-6-yl)carbamate
> <PUBCHEM_IUPAC_TRADITIONAL_NAME>
N-(1,3-benzothiazol-6-yl)carbamic acid [(3R,5S)-5-[[(1S)-1-formylpropyl]carbamoyl]-1-[(2S)-3-methyl-2-[[(2S)-3-methyl-2-(pyrazinoylamino)butanoyl]amino]butanoyl]pyrrolidin-3-yl] ester
> <PUBCHEM_IUPAC_INCHI>
InChI=1S/C32H40N8O7S/c1-6-19(15-41)36-29(43)24-12-21(47-32(46)37-20-7-8-22-25(11-20)48-16-35-22)14-40(24)31(45)27(18(4)5)39-30(44)26(17(2)3)38-28(42)23-13-33-9-10-34-23/h7-11,13,15-19,21,24,26-27H,6,12,14H2,1-5H3,(H,36,43)(H,37,46)(H,38,42)(H,39,44)/t19-,21+,24-,26-,27-/m0/s1
> <PUBCHEM_IUPAC_INCHIKEY>
AAJATFDAPJEYIZ-YNFLJHMJSA-N
> <PUBCHEM_XLOGP3_AA>
2.8
> <PUBCHEM_EXACT_MASS>
680.27406682
> <PUBCHEM_MOLECULAR_FORMULA>
C32H40N8O7S
> <PUBCHEM_MOLECULAR_WEIGHT>
680.8
> <PUBCHEM_OPENEYE_CAN_SMILES>
CCC(C=O)NC(=O)C1CC(CN1C(=O)C(C(C)C)NC(=O)C(C(C)C)NC(=O)C2=NC=CN=C2)OC(=O)NC3=CC4=C(C=C3)N=CS4
> <PUBCHEM_OPENEYE_ISO_SMILES>
CC[C@@H](C=O)NC(=O)[C@@H]1C[C@H](CN1C(=O)[C@H](C(C)C)NC(=O)[C@H](C(C)C)NC(=O)C2=NC=CN=C2)OC(=O)NC3=CC4=C(C=C3)N=CS4
> <PUBCHEM_CACTVS_TPSA>
230
> <PUBCHEM_MONOISOTOPIC_WEIGHT>
680.27406682
> <PUBCHEM_TOTAL_CHARGE>
0
> <PUBCHEM_HEAVY_ATOM_COUNT>
48
> <PUBCHEM_ATOM_DEF_STEREO_COUNT>
5
> <PUBCHEM_ATOM_UDEF_STEREO_COUNT>
0
> <PUBCHEM_BOND_DEF_STEREO_COUNT>
0
> <PUBCHEM_BOND_UDEF_STEREO_COUNT>
0
> <PUBCHEM_ISOTOPIC_ATOM_COUNT>
0
> <PUBCHEM_COMPONENT_COUNT>
1
> <PUBCHEM_CACTVS_TAUTO_COUNT>
-1
> <PUBCHEM_COORDINATE_TYPE>
1
5
255
> <PUBCHEM_BONDANNOTATIONS>
1  42  8
1  47  8
22  10  5
27  11  6
29  12  6
14  41  8
14  46  8
15  44  8
15  47  8
16  45  8
16  48  8
17  23  5
19  2  6
38  39  8
38  40  8
39  42  8
40  43  8
41  45  8
42  44  8
43  44  8
46  48  8
$$$$
