506682
  -OEChem-10302200282D
 85 87  0     1  0  0  0  0  0999 V2000
    3.6543   -4.4897    0.0000 Cl  0  0  0  0  0  0  0  0  0  0  0  0
    5.3864   -5.4897    0.0000 Cl  0  0  0  0  0  0  0  0  0  0  0  0
    6.9334    3.2717    0.0000 O   0  0  0  0  0  0  0  0  0  0  0  0
    5.5714    3.2717    0.0000 O   0  0  0  0  0  0  0  0  0  0  0  0
    4.5204   -0.9897    0.0000 O   0  0  0  0  0  0  0  0  0  0  0  0
   10.3238    2.0446    0.0000 O   0  0  0  0  0  0  0  0  0  0  0  0
    2.0000    3.7671    0.0000 O   0  0  0  0  0  0  0  0  0  0  0  0
   11.6804    5.3852    0.0000 O   0  0  0  0  0  0  0  0  0  0  0  0
    6.7524    1.5491    0.0000 N   0  0  0  0  0  0  0  0  0  0  0  0
    6.2524   -0.9897    0.0000 N   0  0  0  0  0  0  0  0  0  0  0  0
    8.9225    3.0626    0.0000 N   0  0  0  0  0  0  0  0  0  0  0  0
    4.1701    2.2536    0.0000 N   0  0  0  0  0  0  0  0  0  0  0  0
   11.4993    3.6626    0.0000 N   0  0  0  0  0  0  0  0  0  0  0  0
   13.6694    5.1761    0.0000 N   0  0  0  0  0  0  0  0  0  0  0  0
   14.4829    3.3490    0.0000 N   0  0  0  0  0  0  0  0  0  0  0  0
    5.7524    1.5491    0.0000 C   0  0  1  0  0  0  0  0  0  0  0  0
    6.2524    0.0103    0.0000 C   0  0  2  0  0  0  0  0  0  0  0  0
    5.4434    0.5981    0.0000 C   0  0  0  0  0  0  0  0  0  0  0  0
    7.0614    0.5981    0.0000 C   0  0  0  0  0  0  0  0  0  0  0  0
    7.3402    2.3582    0.0000 C   0  0  0  0  0  0  0  0  0  0  0  0
    8.3347    2.2536    0.0000 C   0  0  2  0  0  0  0  0  0  0  0  0
    5.1646    2.3582    0.0000 C   0  0  0  0  0  0  0  0  0  0  0  0
    8.7414    1.3401    0.0000 C   0  0  0  0  0  0  0  0  0  0  0  0
    5.3864   -1.4897    0.0000 C   0  0  0  0  0  0  0  0  0  0  0  0
    9.7360    1.2356    0.0000 C   0  0  0  0  0  0  0  0  0  0  0  0
    8.1537    0.5311    0.0000 C   0  0  0  0  0  0  0  0  0  0  0  0
    3.5823    3.0626    0.0000 C   0  0  1  0  0  0  0  0  0  0  0  0
    9.9170    2.9581    0.0000 C   0  0  0  0  0  0  0  0  0  0  0  0
   10.5048    3.7671    0.0000 C   0  0  2  0  0  0  0  0  0  0  0  0
   10.0981    4.6807    0.0000 C   0  0  0  0  0  0  0  0  0  0  0  0
    3.9890    3.9762    0.0000 C   0  0  0  0  0  0  0  0  0  0  0  0
    5.3864   -2.4897    0.0000 C   0  0  0  0  0  0  0  0  0  0  0  0
    2.5878    2.9581    0.0000 C   0  0  0  0  0  0  0  0  0  0  0  0
   10.6858    5.4897    0.0000 C   0  0  0  0  0  0  0  0  0  0  0  0
    9.1035    4.7852    0.0000 C   0  0  0  0  0  0  0  0  0  0  0  0
    3.4013    4.7852    0.0000 C   0  0  0  0  0  0  0  0  0  0  0  0
    4.5204   -2.9897    0.0000 C   0  0  0  0  0  0  0  0  0  0  0  0
    6.2524   -2.9897    0.0000 C   0  0  0  0  0  0  0  0  0  0  0  0
   12.0871    4.4716    0.0000 C   0  0  0  0  0  0  0  0  0  0  0  0
    4.5204   -3.9897    0.0000 C   0  0  0  0  0  0  0  0  0  0  0  0
    6.2524   -3.9897    0.0000 C   0  0  0  0  0  0  0  0  0  0  0  0
    5.3864   -4.4897    0.0000 C   0  0  0  0  0  0  0  0  0  0  0  0
   13.0816    4.3671    0.0000 C   0  0  0  0  0  0  0  0  0  0  0  0
   13.4884    3.4536    0.0000 C   0  0  0  0  0  0  0  0  0  0  0  0
   14.6639    5.0716    0.0000 C   0  0  0  0  0  0  0  0  0  0  0  0
   15.0707    4.1580    0.0000 C   0  0  0  0  0  0  0  0  0  0  0  0
    6.0339    2.1016    0.0000 H   0  0  0  0  0  0  0  0  0  0  0  0
    5.7000   -0.2712    0.0000 H   0  0  0  0  0  0  0  0  0  0  0  0
    4.8770    0.8503    0.0000 H   0  0  0  0  0  0  0  0  0  0  0  0
    5.1334    0.0612    0.0000 H   0  0  0  0  0  0  0  0  0  0  0  0
    7.3714    0.0612    0.0000 H   0  0  0  0  0  0  0  0  0  0  0  0
    7.6278    0.8503    0.0000 H   0  0  0  0  0  0  0  0  0  0  0  0
    8.0825    2.8200    0.0000 H   0  0  0  0  0  0  0  0  0  0  0  0
    6.7893   -1.2997    0.0000 H   0  0  0  0  0  0  0  0  0  0  0  0
    9.1059    1.8417    0.0000 H   0  0  0  0  0  0  0  0  0  0  0  0
    8.6703    3.6290    0.0000 H   0  0  0  0  0  0  0  0  0  0  0  0
    3.9179    1.6872    0.0000 H   0  0  0  0  0  0  0  0  0  0  0  0
    9.6712    0.6190    0.0000 H   0  0  0  0  0  0  0  0  0  0  0  0
   10.3526    1.1708    0.0000 H   0  0  0  0  0  0  0  0  0  0  0  0
    9.8008    1.8522    0.0000 H   0  0  0  0  0  0  0  0  0  0  0  0
    7.6521    0.8955    0.0000 H   0  0  0  0  0  0  0  0  0  0  0  0
    7.7892    0.0295    0.0000 H   0  0  0  0  0  0  0  0  0  0  0  0
    8.6552    0.1666    0.0000 H   0  0  0  0  0  0  0  0  0  0  0  0
    3.3301    2.4962    0.0000 H   0  0  0  0  0  0  0  0  0  0  0  0
   10.7570    3.2007    0.0000 H   0  0  0  0  0  0  0  0  0  0  0  0
   10.7147    4.6159    0.0000 H   0  0  0  0  0  0  0  0  0  0  0  0
    4.5030    3.6295    0.0000 H   0  0  0  0  0  0  0  0  0  0  0  0
    4.4197    4.4222    0.0000 H   0  0  0  0  0  0  0  0  0  0  0  0
    2.3356    2.3917    0.0000 H   0  0  0  0  0  0  0  0  0  0  0  0
   11.7515    3.0962    0.0000 H   0  0  0  0  0  0  0  0  0  0  0  0
   11.1874    5.1253    0.0000 H   0  0  0  0  0  0  0  0  0  0  0  0
   11.0503    5.9913    0.0000 H   0  0  0  0  0  0  0  0  0  0  0  0
   10.1843    5.8541    0.0000 H   0  0  0  0  0  0  0  0  0  0  0  0
    9.1684    5.4018    0.0000 H   0  0  0  0  0  0  0  0  0  0  0  0
    8.4869    4.8500    0.0000 H   0  0  0  0  0  0  0  0  0  0  0  0
    9.0387    4.1686    0.0000 H   0  0  0  0  0  0  0  0  0  0  0  0
    3.9028    5.1496    0.0000 H   0  0  0  0  0  0  0  0  0  0  0  0
    3.0368    5.2868    0.0000 H   0  0  0  0  0  0  0  0  0  0  0  0
    2.8997    4.4208    0.0000 H   0  0  0  0  0  0  0  0  0  0  0  0
    3.9834   -2.6797    0.0000 H   0  0  0  0  0  0  0  0  0  0  0  0
    6.7893   -2.6797    0.0000 H   0  0  0  0  0  0  0  0  0  0  0  0
    6.7893   -4.2997    0.0000 H   0  0  0  0  0  0  0  0  0  0  0  0
   13.1239    2.9520    0.0000 H   0  0  0  0  0  0  0  0  0  0  0  0
   15.0284    5.5732    0.0000 H   0  0  0  0  0  0  0  0  0  0  0  0
   15.6873    4.0932    0.0000 H   0  0  0  0  0  0  0  0  0  0  0  0
  1 40  1  0  0  0  0
  2 42  1  0  0  0  0
  3 20  2  0  0  0  0
  4 22  2  0  0  0  0
  5 24  2  0  0  0  0
  6 28  2  0  0  0  0
  7 33  2  0  0  0  0
  8 39  2  0  0  0  0
  9 16  1  0  0  0  0
  9 19  1  0  0  0  0
  9 20  1  0  0  0  0
 17 10  1  6  0  0  0
 10 24  1  0  0  0  0
 10 54  1  0  0  0  0
 21 11  1  1  0  0  0
 11 28  1  0  0  0  0
 11 56  1  0  0  0  0
 12 22  1  0  0  0  0
 27 12  1  6  0  0  0
 12 57  1  0  0  0  0
 29 13  1  6  0  0  0
 13 39  1  0  0  0  0
 13 70  1  0  0  0  0
 14 43  2  0  0  0  0
 14 45  1  0  0  0  0
 15 44  2  0  0  0  0
 15 46  1  0  0  0  0
 16 18  1  0  0  0  0
 16 22  1  1  0  0  0
 16 47  1  0  0  0  0
 17 18  1  0  0  0  0
 17 19  1  0  0  0  0
 17 48  1  0  0  0  0
 18 49  1  0  0  0  0
 18 50  1  0  0  0  0
 19 51  1  0  0  0  0
 19 52  1  0  0  0  0
 20 21  1  0  0  0  0
 21 23  1  0  0  0  0
 21 53  1  0  0  0  0
 23 25  1  0  0  0  0
 23 26  1  0  0  0  0
 23 55  1  0  0  0  0
 24 32  1  0  0  0  0
 25 58  1  0  0  0  0
 25 59  1  0  0  0  0
 25 60  1  0  0  0  0
 26 61  1  0  0  0  0
 26 62  1  0  0  0  0
 26 63  1  0  0  0  0
 27 31  1  0  0  0  0
 27 33  1  0  0  0  0
 27 64  1  0  0  0  0
 28 29  1  0  0  0  0
 29 30  1  0  0  0  0
 29 65  1  0  0  0  0
 30 34  1  0  0  0  0
 30 35  1  0  0  0  0
 30 66  1  0  0  0  0
 31 36  1  0  0  0  0
 31 67  1  0  0  0  0
 31 68  1  0  0  0  0
 32 37  2  0  0  0  0
 32 38  1  0  0  0  0
 33 69  1  0  0  0  0
 34 71  1  0  0  0  0
 34 72  1  0  0  0  0
 34 73  1  0  0  0  0
 35 74  1  0  0  0  0
 35 75  1  0  0  0  0
 35 76  1  0  0  0  0
 36 77  1  0  0  0  0
 36 78  1  0  0  0  0
 36 79  1  0  0  0  0
 37 40  1  0  0  0  0
 37 80  1  0  0  0  0
 38 41  2  0  0  0  0
 38 81  1  0  0  0  0
 39 43  1  0  0  0  0
 40 42  2  0  0  0  0
 41 42  1  0  0  0  0
 41 82  1  0  0  0  0
 43 44  1  0  0  0  0
 44 83  1  0  0  0  0
 45 46  2  0  0  0  0
 45 84  1  0  0  0  0
 46 85  1  0  0  0  0
M  END
> <PUBCHEM_COMPOUND_CID>
506682
> <PUBCHEM_COMPOUND_CANONICALIZED>
1
> <PUBCHEM_CACTVS_COMPLEXITY>
1110
> <PUBCHEM_CACTVS_HBOND_ACCEPTOR>
8
> <PUBCHEM_CACTVS_HBOND_DONOR>
4
> <PUBCHEM_CACTVS_ROTATABLE_BOND>
13
> <PUBCHEM_CACTVS_SUBSKEYS>
AAADcfB7uAAGAAAAAAAAAAAAAAAAAWAAAAA8QAAAAAAAAAABwAAAHgIQAAAADSrhniY+gJPIEACoAz131ACCgCQ3FyAI2sG4dsgIYHrB1zGUIYhglgDIiccciQCOBAAAIAAAAAQIAABAAAAACAAAAAAAAA==
> <PUBCHEM_IUPAC_OPENEYE_NAME>
N-[(1S)-1-[[(1S)-1-[(2S,4R)-4-[(3,4-dichlorobenzoyl)amino]-2-[[(1S)-1-formylpropyl]carbamoyl]pyrrolidine-1-carbonyl]-2-methyl-propyl]carbamoyl]-2-methyl-propyl]pyrazine-2-carboxamide
> <PUBCHEM_IUPAC_CAS_NAME>
N-[(2S)-1-[[(2S)-1-[(2S,4R)-4-[[(3,4-dichlorophenyl)-oxomethyl]amino]-2-[oxo-[[(2S)-1-oxobutan-2-yl]amino]methyl]-1-pyrrolidinyl]-3-methyl-1-oxobutan-2-yl]amino]-3-methyl-1-oxobutan-2-yl]-2-pyrazinecarboxamide
> <PUBCHEM_IUPAC_NAME_MARKUP>
<I>N</I>-[(2<I>S</I>)-1-[[(2<I>S</I>)-1-[(2<I>S</I>,4<I>R</I>)-4-[(3,4-dichlorobenzoyl)amino]-2-[[(2<I>S</I>)-1-oxobutan-2-yl]carbamoyl]pyrrolidin-1-yl]-3-methyl-1-oxobutan-2-yl]amino]-3-methyl-1-oxobutan-2-yl]pyrazine-2-carboxamide
> <PUBCHEM_IUPAC_NAME>
N-[(2S)-1-[[(2S)-1-[(2S,4R)-4-[(3,4-dichlorobenzoyl)amino]-2-[[(2S)-1-oxobutan-2-yl]carbamoyl]pyrrolidin-1-yl]-3-methyl-1-oxobutan-2-yl]amino]-3-methyl-1-oxobutan-2-yl]pyrazine-2-carboxamide
> <PUBCHEM_IUPAC_SYSTEMATIC_NAME>
N-[(2S)-1-[[(2S)-1-[(2S,4R)-4-[(3,4-dichlorophenyl)carbonylamino]-2-[[(2S)-1-oxidanylidenebutan-2-yl]carbamoyl]pyrrolidin-1-yl]-3-methyl-1-oxidanylidene-butan-2-yl]amino]-3-methyl-1-oxidanylidene-butan-2-yl]pyrazine-2-carboxamide
> <PUBCHEM_IUPAC_TRADITIONAL_NAME>
N-[(1S)-1-[[(1S)-1-[(2S,4R)-4-[(3,4-dichlorobenzoyl)amino]-2-[[(1S)-1-formylpropyl]carbamoyl]pyrrolidine-1-carbonyl]-2-methyl-propyl]carbamoyl]-2-methyl-propyl]pyrazinamide
> <PUBCHEM_IUPAC_INCHI>
InChI=1S/C31H39Cl2N7O6/c1-6-19(15-41)36-29(44)24-12-20(37-27(42)18-7-8-21(32)22(33)11-18)14-40(24)31(46)26(17(4)5)39-30(45)25(16(2)3)38-28(43)23-13-34-9-10-35-23/h7-11,13,15-17,19-20,24-26H,6,12,14H2,1-5H3,(H,36,44)(H,37,42)(H,38,43)(H,39,45)/t19-,20+,24-,25-,26-/m0/s1
> <PUBCHEM_IUPAC_INCHIKEY>
BCRARPXWJIWFMW-ZBCVKJESSA-N
> <PUBCHEM_XLOGP3_AA>
3.3
> <PUBCHEM_EXACT_MASS>
675.2338874
> <PUBCHEM_MOLECULAR_FORMULA>
C31H39Cl2N7O6
> <PUBCHEM_MOLECULAR_WEIGHT>
676.6
> <PUBCHEM_OPENEYE_CAN_SMILES>
CCC(C=O)NC(=O)C1CC(CN1C(=O)C(C(C)C)NC(=O)C(C(C)C)NC(=O)C2=NC=CN=C2)NC(=O)C3=CC(=C(C=C3)Cl)Cl
> <PUBCHEM_OPENEYE_ISO_SMILES>
CC[C@@H](C=O)NC(=O)[C@@H]1C[C@H](CN1C(=O)[C@H](C(C)C)NC(=O)[C@H](C(C)C)NC(=O)C2=NC=CN=C2)NC(=O)C3=CC(=C(C=C3)Cl)Cl
> <PUBCHEM_CACTVS_TPSA>
180
> <PUBCHEM_MONOISOTOPIC_WEIGHT>
675.2338874
> <PUBCHEM_TOTAL_CHARGE>
0
> <PUBCHEM_HEAVY_ATOM_COUNT>
46
> <PUBCHEM_ATOM_DEF_STEREO_COUNT>
5
> <PUBCHEM_ATOM_UDEF_STEREO_COUNT>
0
> <PUBCHEM_BOND_DEF_STEREO_COUNT>
0
> <PUBCHEM_BOND_UDEF_STEREO_COUNT>
0
> <PUBCHEM_ISOTOPIC_ATOM_COUNT>
0
> <PUBCHEM_COMPONENT_COUNT>
1
> <PUBCHEM_CACTVS_TAUTO_COUNT>
-1
> <PUBCHEM_COORDINATE_TYPE>
1
5
255
> <PUBCHEM_BONDANNOTATIONS>
17  10  6
21  11  5
27  12  6
29  13  6
14  43  8
14  45  8
15  44  8
15  46  8
16  22  5
32  37  8
32  38  8
37  40  8
38  41  8
40  42  8
41  42  8
43  44  8
45  46  8
$$$$
