506688
  -OEChem-10302200282D
 85 87  0     1  0  0  0  0  0999 V2000
    7.1580   -1.8209    0.0000 O   0  0  0  0  0  0  0  0  0  0  0  0
    5.9136   -2.3749    0.0000 O   0  0  0  0  0  0  0  0  0  0  0  0
    3.2202    1.0906    0.0000 O   0  0  0  0  0  0  0  0  0  0  0  0
    9.7560    0.6791    0.0000 O   0  0  0  0  0  0  0  0  0  0  0  0
    2.8525   -4.2801    0.0000 O   0  0  0  0  0  0  0  0  0  0  0  0
   12.3541   -1.8209    0.0000 O   0  0  0  0  0  0  0  0  0  0  0  0
    6.2919   -0.3209    0.0000 N   0  0  0  0  0  0  0  0  0  0  0  0
    4.8025    1.7951    0.0000 N   0  0  0  0  0  0  0  0  0  0  0  0
    8.8900   -0.8209    0.0000 N   0  0  0  0  0  0  0  0  0  0  0  0
    4.2194   -2.0148    0.0000 N   0  0  0  0  0  0  0  0  0  0  0  0
   11.4881   -0.3209    0.0000 N   0  0  0  0  0  0  0  0  0  0  0  0
   14.0862   -0.8209    0.0000 N   0  0  0  0  0  0  0  0  0  0  0  0
   14.0862    1.1791    0.0000 N   0  0  0  0  0  0  0  0  0  0  0  0
    5.3784   -0.7276    0.0000 C   0  0  1  0  0  0  0  0  0  0  0  0
    5.2092    0.8815    0.0000 C   0  0  2  0  0  0  0  0  0  0  0  0
    4.7092    0.0155    0.0000 C   0  0  0  0  0  0  0  0  0  0  0  0
    6.1874    0.6736    0.0000 C   0  0  0  0  0  0  0  0  0  0  0  0
    7.1580   -0.8209    0.0000 C   0  0  0  0  0  0  0  0  0  0  0  0
    8.0240   -0.3209    0.0000 C   0  0  2  0  0  0  0  0  0  0  0  0
    5.1705   -1.7058    0.0000 C   0  0  0  0  0  0  0  0  0  0  0  0
    8.0240    0.6791    0.0000 C   0  0  0  0  0  0  0  0  0  0  0  0
    3.8080    1.8996    0.0000 C   0  0  0  0  0  0  0  0  0  0  0  0
    8.8900    1.1791    0.0000 C   0  0  0  0  0  0  0  0  0  0  0  0
    7.1580    1.1791    0.0000 C   0  0  0  0  0  0  0  0  0  0  0  0
    4.0115   -2.9930    0.0000 C   0  0  1  0  0  0  0  0  0  0  0  0
    9.7560   -0.3209    0.0000 C   0  0  0  0  0  0  0  0  0  0  0  0
   10.6221   -0.8209    0.0000 C   0  0  2  0  0  0  0  0  0  0  0  0
   10.6221   -1.8209    0.0000 C   0  0  0  0  0  0  0  0  0  0  0  0
    4.7546   -3.6621    0.0000 C   0  0  0  0  0  0  0  0  0  0  0  0
    3.4013    2.8131    0.0000 C   0  0  0  0  0  0  0  0  0  0  0  0
    3.0604   -3.3020    0.0000 C   0  0  0  0  0  0  0  0  0  0  0  0
    9.7560   -2.3209    0.0000 C   0  0  0  0  0  0  0  0  0  0  0  0
   11.4881   -2.3209    0.0000 C   0  0  0  0  0  0  0  0  0  0  0  0
    4.5467   -4.6402    0.0000 C   0  0  0  0  0  0  0  0  0  0  0  0
    3.9890    3.6222    0.0000 C   0  0  0  0  0  0  0  0  0  0  0  0
    2.4067    2.9177    0.0000 C   0  0  0  0  0  0  0  0  0  0  0  0
   12.3541   -0.8209    0.0000 C   0  0  0  0  0  0  0  0  0  0  0  0
    3.5823    4.5357    0.0000 C   0  0  0  0  0  0  0  0  0  0  0  0
    2.0000    3.8312    0.0000 C   0  0  0  0  0  0  0  0  0  0  0  0
    2.5878    4.6402    0.0000 C   0  0  0  0  0  0  0  0  0  0  0  0
   13.2201   -0.3209    0.0000 C   0  0  0  0  0  0  0  0  0  0  0  0
   13.2201    0.6791    0.0000 C   0  0  0  0  0  0  0  0  0  0  0  0
   14.9522   -0.3209    0.0000 C   0  0  0  0  0  0  0  0  0  0  0  0
   14.9522    0.6791    0.0000 C   0  0  0  0  0  0  0  0  0  0  0  0
    5.8602   -1.1178    0.0000 H   0  0  0  0  0  0  0  0  0  0  0  0
    5.5994    1.3634    0.0000 H   0  0  0  0  0  0  0  0  0  0  0  0
    4.2077    0.3799    0.0000 H   0  0  0  0  0  0  0  0  0  0  0  0
    4.2944   -0.4452    0.0000 H   0  0  0  0  0  0  0  0  0  0  0  0
    6.8074    0.6736    0.0000 H   0  0  0  0  0  0  0  0  0  0  0  0
    6.2522    1.2902    0.0000 H   0  0  0  0  0  0  0  0  0  0  0  0
    8.0240   -0.9409    0.0000 H   0  0  0  0  0  0  0  0  0  0  0  0
    5.1669    2.2967    0.0000 H   0  0  0  0  0  0  0  0  0  0  0  0
    7.4870    0.3691    0.0000 H   0  0  0  0  0  0  0  0  0  0  0  0
    8.8900   -1.4409    0.0000 H   0  0  0  0  0  0  0  0  0  0  0  0
    3.7587   -1.6000    0.0000 H   0  0  0  0  0  0  0  0  0  0  0  0
    9.2000    0.6422    0.0000 H   0  0  0  0  0  0  0  0  0  0  0  0
    9.4269    1.4891    0.0000 H   0  0  0  0  0  0  0  0  0  0  0  0
    8.5800    1.7160    0.0000 H   0  0  0  0  0  0  0  0  0  0  0  0
    7.4680    1.7160    0.0000 H   0  0  0  0  0  0  0  0  0  0  0  0
    6.6210    1.4891    0.0000 H   0  0  0  0  0  0  0  0  0  0  0  0
    6.8480    0.6422    0.0000 H   0  0  0  0  0  0  0  0  0  0  0  0
    4.6012   -2.8014    0.0000 H   0  0  0  0  0  0  0  0  0  0  0  0
   11.1590   -1.1309    0.0000 H   0  0  0  0  0  0  0  0  0  0  0  0
   10.6221   -2.4409    0.0000 H   0  0  0  0  0  0  0  0  0  0  0  0
    5.3295   -3.8943    0.0000 H   0  0  0  0  0  0  0  0  0  0  0  0
    5.0832   -3.1363    0.0000 H   0  0  0  0  0  0  0  0  0  0  0  0
    2.5997   -2.8871    0.0000 H   0  0  0  0  0  0  0  0  0  0  0  0
   11.4881    0.2991    0.0000 H   0  0  0  0  0  0  0  0  0  0  0  0
    9.4460   -1.7840    0.0000 H   0  0  0  0  0  0  0  0  0  0  0  0
    9.2191   -2.6309    0.0000 H   0  0  0  0  0  0  0  0  0  0  0  0
   10.0660   -2.8578    0.0000 H   0  0  0  0  0  0  0  0  0  0  0  0
   11.1781   -2.8578    0.0000 H   0  0  0  0  0  0  0  0  0  0  0  0
   12.0250   -2.6309    0.0000 H   0  0  0  0  0  0  0  0  0  0  0  0
   11.7981   -1.7840    0.0000 H   0  0  0  0  0  0  0  0  0  0  0  0
    3.9403   -4.5113    0.0000 H   0  0  0  0  0  0  0  0  0  0  0  0
    4.4178   -5.2467    0.0000 H   0  0  0  0  0  0  0  0  0  0  0  0
    5.1532   -4.7691    0.0000 H   0  0  0  0  0  0  0  0  0  0  0  0
    4.6056    3.5574    0.0000 H   0  0  0  0  0  0  0  0  0  0  0  0
    2.0423    2.4161    0.0000 H   0  0  0  0  0  0  0  0  0  0  0  0
    3.9467    5.0373    0.0000 H   0  0  0  0  0  0  0  0  0  0  0  0
    1.3834    3.8960    0.0000 H   0  0  0  0  0  0  0  0  0  0  0  0
    2.3356    5.2066    0.0000 H   0  0  0  0  0  0  0  0  0  0  0  0
   12.6832    0.9891    0.0000 H   0  0  0  0  0  0  0  0  0  0  0  0
   15.4891   -0.6309    0.0000 H   0  0  0  0  0  0  0  0  0  0  0  0
   15.4891    0.9891    0.0000 H   0  0  0  0  0  0  0  0  0  0  0  0
  1 18  2  0  0  0  0
  2 20  2  0  0  0  0
  3 22  2  0  0  0  0
  4 26  2  0  0  0  0
  5 31  2  0  0  0  0
  6 37  2  0  0  0  0
  7 14  1  0  0  0  0
  7 17  1  0  0  0  0
  7 18  1  0  0  0  0
 15  8  1  1  0  0  0
  8 22  1  0  0  0  0
  8 52  1  0  0  0  0
 19  9  1  6  0  0  0
  9 26  1  0  0  0  0
  9 54  1  0  0  0  0
 10 20  1  0  0  0  0
 25 10  1  1  0  0  0
 10 55  1  0  0  0  0
 27 11  1  1  0  0  0
 11 37  1  0  0  0  0
 11 68  1  0  0  0  0
 12 41  2  0  0  0  0
 12 43  1  0  0  0  0
 13 42  2  0  0  0  0
 13 44  1  0  0  0  0
 14 16  1  0  0  0  0
 14 20  1  6  0  0  0
 14 45  1  0  0  0  0
 15 16  1  0  0  0  0
 15 17  1  0  0  0  0
 15 46  1  0  0  0  0
 16 47  1  0  0  0  0
 16 48  1  0  0  0  0
 17 49  1  0  0  0  0
 17 50  1  0  0  0  0
 18 19  1  0  0  0  0
 19 21  1  0  0  0  0
 19 51  1  0  0  0  0
 21 23  1  0  0  0  0
 21 24  1  0  0  0  0
 21 53  1  0  0  0  0
 22 30  1  0  0  0  0
 23 56  1  0  0  0  0
 23 57  1  0  0  0  0
 23 58  1  0  0  0  0
 24 59  1  0  0  0  0
 24 60  1  0  0  0  0
 24 61  1  0  0  0  0
 25 29  1  0  0  0  0
 25 31  1  0  0  0  0
 25 62  1  0  0  0  0
 26 27  1  0  0  0  0
 27 28  1  0  0  0  0
 27 63  1  0  0  0  0
 28 32  1  0  0  0  0
 28 33  1  0  0  0  0
 28 64  1  0  0  0  0
 29 34  1  0  0  0  0
 29 65  1  0  0  0  0
 29 66  1  0  0  0  0
 30 35  2  0  0  0  0
 30 36  1  0  0  0  0
 31 67  1  0  0  0  0
 32 69  1  0  0  0  0
 32 70  1  0  0  0  0
 32 71  1  0  0  0  0
 33 72  1  0  0  0  0
 33 73  1  0  0  0  0
 33 74  1  0  0  0  0
 34 75  1  0  0  0  0
 34 76  1  0  0  0  0
 34 77  1  0  0  0  0
 35 38  1  0  0  0  0
 35 78  1  0  0  0  0
 36 39  2  0  0  0  0
 36 79  1  0  0  0  0
 37 41  1  0  0  0  0
 38 40  2  0  0  0  0
 38 80  1  0  0  0  0
 39 40  1  0  0  0  0
 39 81  1  0  0  0  0
 40 82  1  0  0  0  0
 41 42  1  0  0  0  0
 42 83  1  0  0  0  0
 43 44  2  0  0  0  0
 43 84  1  0  0  0  0
 44 85  1  0  0  0  0
M  END
> <PUBCHEM_COMPOUND_CID>
506688
> <PUBCHEM_COMPOUND_CANONICALIZED>
1
> <PUBCHEM_CACTVS_COMPLEXITY>
1030
> <PUBCHEM_CACTVS_HBOND_ACCEPTOR>
8
> <PUBCHEM_CACTVS_HBOND_DONOR>
4
> <PUBCHEM_CACTVS_ROTATABLE_BOND>
13
> <PUBCHEM_CACTVS_SUBSKEYS>
AAADcfB7uAAAAAAAAAAAAAAAAAAAAWAAAAA8QAAAAAAAAAABwAAAHgAQAAAADSjhngY+gJPIEACoAz131ACCgCQ3EiAI2IG4dMgIYHrA1TGUIYhglgDIiccciQCOAAAAAAAAAAAAAAAAAAAAAAAAAAAAAA==
> <PUBCHEM_IUPAC_OPENEYE_NAME>
N-[(1S)-1-[[(1S)-1-[(2S,4R)-4-benzamido-2-[[(1S)-1-formylpropyl]carbamoyl]pyrrolidine-1-carbonyl]-2-methyl-propyl]carbamoyl]-2-methyl-propyl]pyrazine-2-carboxamide
> <PUBCHEM_IUPAC_CAS_NAME>
N-[(2S)-1-[[(2S)-1-[(2S,4R)-4-benzamido-2-[oxo-[[(2S)-1-oxobutan-2-yl]amino]methyl]-1-pyrrolidinyl]-3-methyl-1-oxobutan-2-yl]amino]-3-methyl-1-oxobutan-2-yl]-2-pyrazinecarboxamide
> <PUBCHEM_IUPAC_NAME_MARKUP>
<I>N</I>-[(2<I>S</I>)-1-[[(2<I>S</I>)-1-[(2<I>S</I>,4<I>R</I>)-4-benzamido-2-[[(2<I>S</I>)-1-oxobutan-2-yl]carbamoyl]pyrrolidin-1-yl]-3-methyl-1-oxobutan-2-yl]amino]-3-methyl-1-oxobutan-2-yl]pyrazine-2-carboxamide
> <PUBCHEM_IUPAC_NAME>
N-[(2S)-1-[[(2S)-1-[(2S,4R)-4-benzamido-2-[[(2S)-1-oxobutan-2-yl]carbamoyl]pyrrolidin-1-yl]-3-methyl-1-oxobutan-2-yl]amino]-3-methyl-1-oxobutan-2-yl]pyrazine-2-carboxamide
> <PUBCHEM_IUPAC_SYSTEMATIC_NAME>
N-[(2S)-1-[[(2S)-1-[(2S,4R)-4-benzamido-2-[[(2S)-1-oxidanylidenebutan-2-yl]carbamoyl]pyrrolidin-1-yl]-3-methyl-1-oxidanylidene-butan-2-yl]amino]-3-methyl-1-oxidanylidene-butan-2-yl]pyrazine-2-carboxamide
> <PUBCHEM_IUPAC_TRADITIONAL_NAME>
N-[(1S)-1-[[(1S)-1-[(2S,4R)-4-benzamido-2-[[(1S)-1-formylpropyl]carbamoyl]pyrrolidine-1-carbonyl]-2-methyl-propyl]carbamoyl]-2-methyl-propyl]pyrazinamide
> <PUBCHEM_IUPAC_INCHI>
InChI=1S/C31H41N7O6/c1-6-21(17-39)34-29(42)24-14-22(35-27(40)20-10-8-7-9-11-20)16-38(24)31(44)26(19(4)5)37-30(43)25(18(2)3)36-28(41)23-15-32-12-13-33-23/h7-13,15,17-19,21-22,24-26H,6,14,16H2,1-5H3,(H,34,42)(H,35,40)(H,36,41)(H,37,43)/t21-,22+,24-,25-,26-/m0/s1
> <PUBCHEM_IUPAC_INCHIKEY>
YQXQVKDSNGPDRJ-KIRBFPCPSA-N
> <PUBCHEM_XLOGP3_AA>
2
> <PUBCHEM_EXACT_MASS>
607.31183205
> <PUBCHEM_MOLECULAR_FORMULA>
C31H41N7O6
> <PUBCHEM_MOLECULAR_WEIGHT>
607.7
> <PUBCHEM_OPENEYE_CAN_SMILES>
CCC(C=O)NC(=O)C1CC(CN1C(=O)C(C(C)C)NC(=O)C(C(C)C)NC(=O)C2=NC=CN=C2)NC(=O)C3=CC=CC=C3
> <PUBCHEM_OPENEYE_ISO_SMILES>
CC[C@@H](C=O)NC(=O)[C@@H]1C[C@H](CN1C(=O)[C@H](C(C)C)NC(=O)[C@H](C(C)C)NC(=O)C2=NC=CN=C2)NC(=O)C3=CC=CC=C3
> <PUBCHEM_CACTVS_TPSA>
180
> <PUBCHEM_MONOISOTOPIC_WEIGHT>
607.31183205
> <PUBCHEM_TOTAL_CHARGE>
0
> <PUBCHEM_HEAVY_ATOM_COUNT>
44
> <PUBCHEM_ATOM_DEF_STEREO_COUNT>
5
> <PUBCHEM_ATOM_UDEF_STEREO_COUNT>
0
> <PUBCHEM_BOND_DEF_STEREO_COUNT>
0
> <PUBCHEM_BOND_UDEF_STEREO_COUNT>
0
> <PUBCHEM_ISOTOPIC_ATOM_COUNT>
0
> <PUBCHEM_COMPONENT_COUNT>
1
> <PUBCHEM_CACTVS_TAUTO_COUNT>
-1
> <PUBCHEM_COORDINATE_TYPE>
1
5
255
> <PUBCHEM_BONDANNOTATIONS>
25  10  5
27  11  5
12  41  8
12  43  8
13  42  8
13  44  8
14  20  6
30  35  8
30  36  8
35  38  8
36  39  8
38  40  8
39  40  8
41  42  8
43  44  8
15  8  5
19  9  6
$$$$
