506673
  -OEChem-10302200282D
 92 95  0     1  0  0  0  0  0999 V2000
    8.4268    2.8903    0.0000 O   0  0  0  0  0  0  0  0  0  0  0  0
    5.0768    0.1698    0.0000 O   0  0  0  0  0  0  0  0  0  0  0  0
    4.3958    1.3494    0.0000 O   0  0  0  0  0  0  0  0  0  0  0  0
    7.8347   -2.1527    0.0000 O   0  0  0  0  0  0  0  0  0  0  0  0
    7.5608    4.3903    0.0000 O   0  0  0  0  0  0  0  0  0  0  0  0
    2.1810    4.1946    0.0000 O   0  0  0  0  0  0  0  0  0  0  0  0
    5.6200   -4.9979    0.0000 O   0  0  0  0  0  0  0  0  0  0  0  0
    6.4781    1.1879    0.0000 N   0  0  0  0  0  0  0  0  0  0  0  0
    6.2524   -1.4482    0.0000 N   0  0  0  0  0  0  0  0  0  0  0  0
    4.5768    3.0720    0.0000 N   0  0  0  0  0  0  0  0  0  0  0  0
    7.0212   -3.9798    0.0000 N   0  0  0  0  0  0  0  0  0  0  0  0
    9.2928    4.3903    0.0000 N   0  0  0  0  0  0  0  0  0  0  0  0
    8.1968   -5.5979    0.0000 N   0  0  0  0  0  0  0  0  0  0  0  0
    7.3833   -7.4250    0.0000 N   0  0  0  0  0  0  0  0  0  0  0  0
    5.9781    2.0539    0.0000 C   0  0  1  0  0  0  0  0  0  0  0  0
    6.6472    2.7970    0.0000 C   0  0  0  0  0  0  0  0  0  0  0  0
    7.5608    2.3903    0.0000 C   0  0  2  0  0  0  0  0  0  0  0  0
    7.4562    1.3958    0.0000 C   0  0  0  0  0  0  0  0  0  0  0  0
    6.0714    0.2743    0.0000 C   0  0  0  0  0  0  0  0  0  0  0  0
    6.6591   -0.5347    0.0000 C   0  0  2  0  0  0  0  0  0  0  0  0
    4.9836    2.1584    0.0000 C   0  0  0  0  0  0  0  0  0  0  0  0
    7.6537   -0.4302    0.0000 C   0  0  0  0  0  0  0  0  0  0  0  0
    8.2414   -1.2392    0.0000 C   0  0  0  0  0  0  0  0  0  0  0  0
    8.0604    0.4834    0.0000 C   0  0  0  0  0  0  0  0  0  0  0  0
    3.5823    3.1765    0.0000 C   0  0  1  0  0  0  0  0  0  0  0  0
    6.8402   -2.2573    0.0000 C   0  0  0  0  0  0  0  0  0  0  0  0
    6.4334   -3.1708    0.0000 C   0  0  2  0  0  0  0  0  0  0  0  0
    8.4268    3.8903    0.0000 C   0  0  0  0  0  0  0  0  0  0  0  0
    5.4389   -3.2753    0.0000 C   0  0  0  0  0  0  0  0  0  0  0  0
    2.9945    2.3675    0.0000 C   0  0  0  0  0  0  0  0  0  0  0  0
    3.1756    4.0900    0.0000 C   0  0  0  0  0  0  0  0  0  0  0  0
    5.0322   -4.1889    0.0000 C   0  0  0  0  0  0  0  0  0  0  0  0
    4.8511   -2.4663    0.0000 C   0  0  0  0  0  0  0  0  0  0  0  0
    2.0000    2.4720    0.0000 C   0  0  0  0  0  0  0  0  0  0  0  0
    9.2928    5.3903    0.0000 C   0  0  0  0  0  0  0  0  0  0  0  0
    6.6145   -4.8934    0.0000 C   0  0  0  0  0  0  0  0  0  0  0  0
   10.1588    5.8903    0.0000 C   0  0  0  0  0  0  0  0  0  0  0  0
    8.4268    5.8903    0.0000 C   0  0  0  0  0  0  0  0  0  0  0  0
    7.2023   -5.7024    0.0000 C   0  0  0  0  0  0  0  0  0  0  0  0
   10.1588    6.8903    0.0000 C   0  0  0  0  0  0  0  0  0  0  0  0
    8.4268    6.8903    0.0000 C   0  0  0  0  0  0  0  0  0  0  0  0
   11.0528    5.3556    0.0000 C   0  0  0  0  0  0  0  0  0  0  0  0
    9.2928    7.3903    0.0000 C   0  0  0  0  0  0  0  0  0  0  0  0
   11.0528    7.4250    0.0000 C   0  0  0  0  0  0  0  0  0  0  0  0
    6.7956   -6.6159    0.0000 C   0  0  0  0  0  0  0  0  0  0  0  0
   11.9588    5.8695    0.0000 C   0  0  0  0  0  0  0  0  0  0  0  0
   11.9588    6.9111    0.0000 C   0  0  0  0  0  0  0  0  0  0  0  0
    8.7846   -6.4069    0.0000 C   0  0  0  0  0  0  0  0  0  0  0  0
    8.3778   -7.3204    0.0000 C   0  0  0  0  0  0  0  0  0  0  0  0
    5.6404    1.5339    0.0000 H   0  0  0  0  0  0  0  0  0  0  0  0
    6.9572    3.3340    0.0000 H   0  0  0  0  0  0  0  0  0  0  0  0
    6.1456    3.1615    0.0000 H   0  0  0  0  0  0  0  0  0  0  0  0
    8.0807    2.0526    0.0000 H   0  0  0  0  0  0  0  0  0  0  0  0
    7.5210    0.7792    0.0000 H   0  0  0  0  0  0  0  0  0  0  0  0
    8.0762    1.3958    0.0000 H   0  0  0  0  0  0  0  0  0  0  0  0
    6.0425   -0.5995    0.0000 H   0  0  0  0  0  0  0  0  0  0  0  0
    7.4015   -0.9966    0.0000 H   0  0  0  0  0  0  0  0  0  0  0  0
    5.6358   -1.5131    0.0000 H   0  0  0  0  0  0  0  0  0  0  0  0
    4.9413    3.5736    0.0000 H   0  0  0  0  0  0  0  0  0  0  0  0
    7.7398   -1.6036    0.0000 H   0  0  0  0  0  0  0  0  0  0  0  0
    8.6059   -1.7408    0.0000 H   0  0  0  0  0  0  0  0  0  0  0  0
    8.7430   -0.8748    0.0000 H   0  0  0  0  0  0  0  0  0  0  0  0
    8.6268    0.2312    0.0000 H   0  0  0  0  0  0  0  0  0  0  0  0
    8.3126    1.0498    0.0000 H   0  0  0  0  0  0  0  0  0  0  0  0
    7.4940    0.7355    0.0000 H   0  0  0  0  0  0  0  0  0  0  0  0
    3.8345    2.6101    0.0000 H   0  0  0  0  0  0  0  0  0  0  0  0
    7.0500   -3.1060    0.0000 H   0  0  0  0  0  0  0  0  0  0  0  0
    4.8223   -3.3402    0.0000 H   0  0  0  0  0  0  0  0  0  0  0  0
    2.8236    1.7715    0.0000 H   0  0  0  0  0  0  0  0  0  0  0  0
    3.5518    2.0957    0.0000 H   0  0  0  0  0  0  0  0  0  0  0  0
    7.6378   -3.9150    0.0000 H   0  0  0  0  0  0  0  0  0  0  0  0
    3.5400    4.5916    0.0000 H   0  0  0  0  0  0  0  0  0  0  0  0
    4.4658   -3.9367    0.0000 H   0  0  0  0  0  0  0  0  0  0  0  0
    4.7800   -4.7553    0.0000 H   0  0  0  0  0  0  0  0  0  0  0  0
    5.5986   -4.4411    0.0000 H   0  0  0  0  0  0  0  0  0  0  0  0
    5.3527   -2.1019    0.0000 H   0  0  0  0  0  0  0  0  0  0  0  0
    4.4867   -1.9647    0.0000 H   0  0  0  0  0  0  0  0  0  0  0  0
    4.3496   -2.8308    0.0000 H   0  0  0  0  0  0  0  0  0  0  0  0
    9.8298    4.0803    0.0000 H   0  0  0  0  0  0  0  0  0  0  0  0
    2.0648    3.0886    0.0000 H   0  0  0  0  0  0  0  0  0  0  0  0
    1.3834    2.5368    0.0000 H   0  0  0  0  0  0  0  0  0  0  0  0
    1.9352    1.8554    0.0000 H   0  0  0  0  0  0  0  0  0  0  0  0
    7.8898    5.5803    0.0000 H   0  0  0  0  0  0  0  0  0  0  0  0
    7.8898    7.2003    0.0000 H   0  0  0  0  0  0  0  0  0  0  0  0
   11.0456    4.7357    0.0000 H   0  0  0  0  0  0  0  0  0  0  0  0
    9.2928    8.0103    0.0000 H   0  0  0  0  0  0  0  0  0  0  0  0
   11.0456    8.0449    0.0000 H   0  0  0  0  0  0  0  0  0  0  0  0
    6.1789   -6.6807    0.0000 H   0  0  0  0  0  0  0  0  0  0  0  0
   12.4946    5.5574    0.0000 H   0  0  0  0  0  0  0  0  0  0  0  0
   12.4946    7.2232    0.0000 H   0  0  0  0  0  0  0  0  0  0  0  0
    9.4012   -6.3421    0.0000 H   0  0  0  0  0  0  0  0  0  0  0  0
    8.7423   -7.8220    0.0000 H   0  0  0  0  0  0  0  0  0  0  0  0
 17  1  1  1  0  0  0
  1 28  1  0  0  0  0
  2 19  2  0  0  0  0
  3 21  2  0  0  0  0
  4 26  2  0  0  0  0
  5 28  2  0  0  0  0
  6 31  2  0  0  0  0
  7 36  2  0  0  0  0
  8 15  1  0  0  0  0
  8 18  1  0  0  0  0
  8 19  1  0  0  0  0
 20  9  1  6  0  0  0
  9 26  1  0  0  0  0
  9 58  1  0  0  0  0
 10 21  1  0  0  0  0
 25 10  1  1  0  0  0
 10 59  1  0  0  0  0
 27 11  1  1  0  0  0
 11 36  1  0  0  0  0
 11 71  1  0  0  0  0
 12 28  1  0  0  0  0
 12 35  1  0  0  0  0
 12 79  1  0  0  0  0
 13 39  2  0  0  0  0
 13 48  1  0  0  0  0
 14 45  2  0  0  0  0
 14 49  1  0  0  0  0
 15 16  1  0  0  0  0
 15 21  1  6  0  0  0
 15 50  1  0  0  0  0
 16 17  1  0  0  0  0
 16 51  1  0  0  0  0
 16 52  1  0  0  0  0
 17 18  1  0  0  0  0
 17 53  1  0  0  0  0
 18 54  1  0  0  0  0
 18 55  1  0  0  0  0
 19 20  1  0  0  0  0
 20 22  1  0  0  0  0
 20 56  1  0  0  0  0
 22 23  1  0  0  0  0
 22 24  1  0  0  0  0
 22 57  1  0  0  0  0
 23 60  1  0  0  0  0
 23 61  1  0  0  0  0
 23 62  1  0  0  0  0
 24 63  1  0  0  0  0
 24 64  1  0  0  0  0
 24 65  1  0  0  0  0
 25 30  1  0  0  0  0
 25 31  1  0  0  0  0
 25 66  1  0  0  0  0
 26 27  1  0  0  0  0
 27 29  1  0  0  0  0
 27 67  1  0  0  0  0
 29 32  1  0  0  0  0
 29 33  1  0  0  0  0
 29 68  1  0  0  0  0
 30 34  1  0  0  0  0
 30 69  1  0  0  0  0
 30 70  1  0  0  0  0
 31 72  1  0  0  0  0
 32 73  1  0  0  0  0
 32 74  1  0  0  0  0
 32 75  1  0  0  0  0
 33 76  1  0  0  0  0
 33 77  1  0  0  0  0
 33 78  1  0  0  0  0
 34 80  1  0  0  0  0
 34 81  1  0  0  0  0
 34 82  1  0  0  0  0
 35 37  1  0  0  0  0
 35 38  2  0  0  0  0
 36 39  1  0  0  0  0
 37 40  1  0  0  0  0
 37 42  2  0  0  0  0
 38 41  1  0  0  0  0
 38 83  1  0  0  0  0
 39 45  1  0  0  0  0
 40 43  1  0  0  0  0
 40 44  2  0  0  0  0
 41 43  2  0  0  0  0
 41 84  1  0  0  0  0
 42 46  1  0  0  0  0
 42 85  1  0  0  0  0
 43 86  1  0  0  0  0
 44 47  1  0  0  0  0
 44 87  1  0  0  0  0
 45 88  1  0  0  0  0
 46 47  2  0  0  0  0
 46 89  1  0  0  0  0
 47 90  1  0  0  0  0
 48 49  2  0  0  0  0
 48 91  1  0  0  0  0
 49 92  1  0  0  0  0
M  END
> <PUBCHEM_COMPOUND_CID>
506673
> <PUBCHEM_COMPOUND_CANONICALIZED>
1
> <PUBCHEM_CACTVS_COMPLEXITY>
1180
> <PUBCHEM_CACTVS_HBOND_ACCEPTOR>
9
> <PUBCHEM_CACTVS_HBOND_DONOR>
4
> <PUBCHEM_CACTVS_ROTATABLE_BOND>
14
> <PUBCHEM_CACTVS_SUBSKEYS>
AAADcfB/uAAAAAAAAAAAAAAAAAAAAWAAAAA8YIAAAAAAAADB1AAAHgAQAAAADTzhngY+yNPIFACoAz133ACCgCQ3EiAI2IG4dMkKYHrA0bGdIIhmlgDYyMc6gYAOgAAAQAASAAAAAACAACQAAAAAAAAAAA==
> <PUBCHEM_IUPAC_OPENEYE_NAME>
[(3R,5S)-5-[[(1S)-1-formylpropyl]carbamoyl]-1-[(2S)-3-methyl-2-[[(2S)-3-methyl-2-(pyrazine-2-carbonylamino)butanoyl]amino]butanoyl]pyrrolidin-3-yl] N-(1-naphthyl)carbamate
> <PUBCHEM_IUPAC_CAS_NAME>
N-(1-naphthalenyl)carbamic acid [(3R,5S)-1-[(2S)-3-methyl-2-[[(2S)-3-methyl-1-oxo-2-[[oxo(2-pyrazinyl)methyl]amino]butyl]amino]-1-oxobutyl]-5-[oxo-[[(2S)-1-oxobutan-2-yl]amino]methyl]-3-pyrrolidinyl] ester
> <PUBCHEM_IUPAC_NAME_MARKUP>
[(3<I>R</I>,5<I>S</I>)-1-[(2<I>S</I>)-3-methyl-2-[[(2<I>S</I>)-3-methyl-2-(pyrazine-2-carbonylamino)butanoyl]amino]butanoyl]-5-[[(2<I>S</I>)-1-oxobutan-2-yl]carbamoyl]pyrrolidin-3-yl] <I>N</I>-naphthalen-1-ylcarbamate
> <PUBCHEM_IUPAC_NAME>
[(3R,5S)-1-[(2S)-3-methyl-2-[[(2S)-3-methyl-2-(pyrazine-2-carbonylamino)butanoyl]amino]butanoyl]-5-[[(2S)-1-oxobutan-2-yl]carbamoyl]pyrrolidin-3-yl] N-naphthalen-1-ylcarbamate
> <PUBCHEM_IUPAC_SYSTEMATIC_NAME>
[(3R,5S)-1-[(2S)-3-methyl-2-[[(2S)-3-methyl-2-(pyrazin-2-ylcarbonylamino)butanoyl]amino]butanoyl]-5-[[(2S)-1-oxidanylidenebutan-2-yl]carbamoyl]pyrrolidin-3-yl] N-naphthalen-1-ylcarbamate
> <PUBCHEM_IUPAC_TRADITIONAL_NAME>
N-(1-naphthyl)carbamic acid [(3R,5S)-5-[[(1S)-1-formylpropyl]carbamoyl]-1-[(2S)-3-methyl-2-[[(2S)-3-methyl-2-(pyrazinoylamino)butanoyl]amino]butanoyl]pyrrolidin-3-yl] ester
> <PUBCHEM_IUPAC_INCHI>
InChI=1S/C35H43N7O7/c1-6-23(19-43)38-32(45)28-16-24(49-35(48)39-26-13-9-11-22-10-7-8-12-25(22)26)18-42(28)34(47)30(21(4)5)41-33(46)29(20(2)3)40-31(44)27-17-36-14-15-37-27/h7-15,17,19-21,23-24,28-30H,6,16,18H2,1-5H3,(H,38,45)(H,39,48)(H,40,44)(H,41,46)/t23-,24+,28-,29-,30-/m0/s1
> <PUBCHEM_IUPAC_INCHIKEY>
CIRJDGMOUVZVOA-OEIAVBAISA-N
> <PUBCHEM_XLOGP3_AA>
3.6
> <PUBCHEM_EXACT_MASS>
673.32239674
> <PUBCHEM_MOLECULAR_FORMULA>
C35H43N7O7
> <PUBCHEM_MOLECULAR_WEIGHT>
673.8
> <PUBCHEM_OPENEYE_CAN_SMILES>
CCC(C=O)NC(=O)C1CC(CN1C(=O)C(C(C)C)NC(=O)C(C(C)C)NC(=O)C2=NC=CN=C2)OC(=O)NC3=CC=CC4=CC=CC=C43
> <PUBCHEM_OPENEYE_ISO_SMILES>
CC[C@@H](C=O)NC(=O)[C@@H]1C[C@H](CN1C(=O)[C@H](C(C)C)NC(=O)[C@H](C(C)C)NC(=O)C2=NC=CN=C2)OC(=O)NC3=CC=CC4=CC=CC=C43
> <PUBCHEM_CACTVS_TPSA>
189
> <PUBCHEM_MONOISOTOPIC_WEIGHT>
673.32239674
> <PUBCHEM_TOTAL_CHARGE>
0
> <PUBCHEM_HEAVY_ATOM_COUNT>
49
> <PUBCHEM_ATOM_DEF_STEREO_COUNT>
5
> <PUBCHEM_ATOM_UDEF_STEREO_COUNT>
0
> <PUBCHEM_BOND_DEF_STEREO_COUNT>
0
> <PUBCHEM_BOND_UDEF_STEREO_COUNT>
0
> <PUBCHEM_ISOTOPIC_ATOM_COUNT>
0
> <PUBCHEM_COMPONENT_COUNT>
1
> <PUBCHEM_CACTVS_TAUTO_COUNT>
-1
> <PUBCHEM_COORDINATE_TYPE>
1
5
255
> <PUBCHEM_BONDANNOTATIONS>
17  1  5
25  10  5
27  11  5
13  39  8
13  48  8
14  45  8
14  49  8
15  21  6
35  37  8
35  38  8
37  40  8
37  42  8
38  41  8
39  45  8
40  43  8
40  44  8
41  43  8
42  46  8
44  47  8
46  47  8
48  49  8
20  9  6
$$$$
