506697
  -OEChem-10302200282D
114119  0     1  0  0  0  0  0999 V2000
    5.3903    4.7394    0.0000 P   0  0  0  0  0  0  0  0  0  0  0  0
   10.6415    3.5397    0.0000 O   0  0  0  0  0  0  0  0  0  0  0  0
    7.2916    0.8192    0.0000 O   0  0  0  0  0  0  0  0  0  0  0  0
    6.6105    1.9988    0.0000 O   0  0  0  0  0  0  0  0  0  0  0  0
    4.9836    5.6530    0.0000 O   0  0  0  0  0  0  0  0  0  0  0  0
    4.4768    4.3327    0.0000 O   0  0  0  0  0  0  0  0  0  0  0  0
    6.3038    5.1462    0.0000 O   0  0  0  0  0  0  0  0  0  0  0  0
   10.0494   -1.5034    0.0000 O   0  0  0  0  0  0  0  0  0  0  0  0
    7.8347   -4.3485    0.0000 O   0  0  0  0  0  0  0  0  0  0  0  0
    8.6928    1.8372    0.0000 N   0  0  0  0  0  0  0  0  0  0  0  0
    6.7916    3.7213    0.0000 N   0  0  0  0  0  0  0  0  0  0  0  0
    8.4671   -0.7989    0.0000 N   0  0  0  0  0  0  0  0  0  0  0  0
    9.2360   -3.3304    0.0000 N   0  0  0  0  0  0  0  0  0  0  0  0
   10.4115   -4.9485    0.0000 N   0  0  0  0  0  0  0  0  0  0  0  0
    9.5981   -6.7756    0.0000 N   0  0  0  0  0  0  0  0  0  0  0  0
    8.1928    2.7033    0.0000 C   0  0  1  0  0  0  0  0  0  0  0  0
    9.7755    3.0397    0.0000 C   0  0  2  0  0  0  0  0  0  0  0  0
    8.8620    3.4464    0.0000 C   0  0  0  0  0  0  0  0  0  0  0  0
    9.6710    2.0452    0.0000 C   0  0  0  0  0  0  0  0  0  0  0  0
    8.2861    0.9237    0.0000 C   0  0  0  0  0  0  0  0  0  0  0  0
    8.8739    0.1147    0.0000 C   0  0  2  0  0  0  0  0  0  0  0  0
    7.1983    2.8078    0.0000 C   0  0  0  0  0  0  0  0  0  0  0  0
    9.8684    0.2192    0.0000 C   0  0  0  0  0  0  0  0  0  0  0  0
    5.7970    3.8259    0.0000 C   0  0  1  0  0  0  0  0  0  0  0  0
   11.5075    3.0397    0.0000 C   0  0  0  0  0  0  0  0  0  0  0  0
   10.4562   -0.5898    0.0000 C   0  0  0  0  0  0  0  0  0  0  0  0
   10.2751    1.1328    0.0000 C   0  0  0  0  0  0  0  0  0  0  0  0
    5.2092    3.0169    0.0000 C   0  0  0  0  0  0  0  0  0  0  0  0
    9.0549   -1.6079    0.0000 C   0  0  0  0  0  0  0  0  0  0  0  0
    8.6482   -2.5214    0.0000 C   0  0  2  0  0  0  0  0  0  0  0  0
   12.3736    3.5397    0.0000 C   0  0  0  0  0  0  0  0  0  0  0  0
    7.6537   -2.6260    0.0000 C   0  0  0  0  0  0  0  0  0  0  0  0
    5.6160    2.1033    0.0000 C   0  0  0  0  0  0  0  0  0  0  0  0
   13.2396    3.0397    0.0000 C   0  0  0  0  0  0  0  0  0  0  0  0
   12.3736    4.5397    0.0000 C   0  0  0  0  0  0  0  0  0  0  0  0
    7.2469   -3.5395    0.0000 C   0  0  0  0  0  0  0  0  0  0  0  0
    7.0659   -1.8169    0.0000 C   0  0  0  0  0  0  0  0  0  0  0  0
   14.1056    3.5397    0.0000 C   0  0  0  0  0  0  0  0  0  0  0  0
   13.2396    5.0397    0.0000 C   0  0  0  0  0  0  0  0  0  0  0  0
   14.1056    4.5397    0.0000 C   0  0  0  0  0  0  0  0  0  0  0  0
    3.9890    5.7575    0.0000 C   0  0  0  0  0  0  0  0  0  0  0  0
    3.7575    3.6380    0.0000 C   0  0  0  0  0  0  0  0  0  0  0  0
    8.8292   -4.2440    0.0000 C   0  0  0  0  0  0  0  0  0  0  0  0
   14.9996    3.0050    0.0000 C   0  0  0  0  0  0  0  0  0  0  0  0
   14.9996    5.0743    0.0000 C   0  0  0  0  0  0  0  0  0  0  0  0
    3.4013    4.9485    0.0000 C   0  0  0  0  0  0  0  0  0  0  0  0
    2.7962    3.9136    0.0000 C   0  0  0  0  0  0  0  0  0  0  0  0
    3.5823    6.6710    0.0000 C   0  0  0  0  0  0  0  0  0  0  0  0
    3.9993    2.6677    0.0000 C   0  0  0  0  0  0  0  0  0  0  0  0
    9.4170   -5.0530    0.0000 C   0  0  0  0  0  0  0  0  0  0  0  0
   15.9056    3.5189    0.0000 C   0  0  0  0  0  0  0  0  0  0  0  0
   15.9056    4.5605    0.0000 C   0  0  0  0  0  0  0  0  0  0  0  0
    2.4067    5.0530    0.0000 C   0  0  0  0  0  0  0  0  0  0  0  0
    2.0768    3.2190    0.0000 C   0  0  0  0  0  0  0  0  0  0  0  0
    2.5878    6.7756    0.0000 C   0  0  0  0  0  0  0  0  0  0  0  0
    3.2800    1.9731    0.0000 C   0  0  0  0  0  0  0  0  0  0  0  0
    2.0000    5.9666    0.0000 C   0  0  0  0  0  0  0  0  0  0  0  0
    2.3188    2.2486    0.0000 C   0  0  0  0  0  0  0  0  0  0  0  0
    9.0103   -5.9666    0.0000 C   0  0  0  0  0  0  0  0  0  0  0  0
   10.9993   -5.7575    0.0000 C   0  0  0  0  0  0  0  0  0  0  0  0
   10.5926   -6.6710    0.0000 C   0  0  0  0  0  0  0  0  0  0  0  0
    7.8551    2.1833    0.0000 H   0  0  0  0  0  0  0  0  0  0  0  0
   10.2955    2.7020    0.0000 H   0  0  0  0  0  0  0  0  0  0  0  0
    9.1720    3.9834    0.0000 H   0  0  0  0  0  0  0  0  0  0  0  0
    8.3604    3.8108    0.0000 H   0  0  0  0  0  0  0  0  0  0  0  0
    9.7358    1.4286    0.0000 H   0  0  0  0  0  0  0  0  0  0  0  0
   10.2910    2.0452    0.0000 H   0  0  0  0  0  0  0  0  0  0  0  0
    8.2573    0.0499    0.0000 H   0  0  0  0  0  0  0  0  0  0  0  0
   10.4850    0.2840    0.0000 H   0  0  0  0  0  0  0  0  0  0  0  0
    7.1560    4.2229    0.0000 H   0  0  0  0  0  0  0  0  0  0  0  0
    6.0492    3.2595    0.0000 H   0  0  0  0  0  0  0  0  0  0  0  0
    7.8505   -0.8637    0.0000 H   0  0  0  0  0  0  0  0  0  0  0  0
   11.1090    2.5647    0.0000 H   0  0  0  0  0  0  0  0  0  0  0  0
   11.9061    2.5647    0.0000 H   0  0  0  0  0  0  0  0  0  0  0  0
    9.9546   -0.9542    0.0000 H   0  0  0  0  0  0  0  0  0  0  0  0
   10.8206   -1.0914    0.0000 H   0  0  0  0  0  0  0  0  0  0  0  0
   10.9578   -0.2254    0.0000 H   0  0  0  0  0  0  0  0  0  0  0  0
   10.8415    0.8806    0.0000 H   0  0  0  0  0  0  0  0  0  0  0  0
   10.5273    1.6992    0.0000 H   0  0  0  0  0  0  0  0  0  0  0  0
    9.7087    1.3849    0.0000 H   0  0  0  0  0  0  0  0  0  0  0  0
    4.7786    3.4628    0.0000 H   0  0  0  0  0  0  0  0  0  0  0  0
    4.6952    2.6702    0.0000 H   0  0  0  0  0  0  0  0  0  0  0  0
    9.2648   -2.4566    0.0000 H   0  0  0  0  0  0  0  0  0  0  0  0
    7.0370   -2.6908    0.0000 H   0  0  0  0  0  0  0  0  0  0  0  0
    5.0496    1.8511    0.0000 H   0  0  0  0  0  0  0  0  0  0  0  0
    5.8682    1.5369    0.0000 H   0  0  0  0  0  0  0  0  0  0  0  0
    6.1824    2.3555    0.0000 H   0  0  0  0  0  0  0  0  0  0  0  0
   13.2396    2.4197    0.0000 H   0  0  0  0  0  0  0  0  0  0  0  0
    9.8526   -3.2656    0.0000 H   0  0  0  0  0  0  0  0  0  0  0  0
   11.8366    4.8497    0.0000 H   0  0  0  0  0  0  0  0  0  0  0  0
    6.6805   -3.2873    0.0000 H   0  0  0  0  0  0  0  0  0  0  0  0
    6.9947   -4.1059    0.0000 H   0  0  0  0  0  0  0  0  0  0  0  0
    7.8133   -3.7917    0.0000 H   0  0  0  0  0  0  0  0  0  0  0  0
    7.5675   -1.4525    0.0000 H   0  0  0  0  0  0  0  0  0  0  0  0
    6.7014   -1.3154    0.0000 H   0  0  0  0  0  0  0  0  0  0  0  0
    6.5643   -2.1814    0.0000 H   0  0  0  0  0  0  0  0  0  0  0  0
   13.2396    5.6597    0.0000 H   0  0  0  0  0  0  0  0  0  0  0  0
   14.9924    2.3851    0.0000 H   0  0  0  0  0  0  0  0  0  0  0  0
   14.9924    5.6943    0.0000 H   0  0  0  0  0  0  0  0  0  0  0  0
    3.6534    4.3821    0.0000 H   0  0  0  0  0  0  0  0  0  0  0  0
    2.6462    4.5152    0.0000 H   0  0  0  0  0  0  0  0  0  0  0  0
    3.9467    7.1726    0.0000 H   0  0  0  0  0  0  0  0  0  0  0  0
    4.5953    2.4968    0.0000 H   0  0  0  0  0  0  0  0  0  0  0  0
   16.4414    3.2068    0.0000 H   0  0  0  0  0  0  0  0  0  0  0  0
   16.4414    4.8726    0.0000 H   0  0  0  0  0  0  0  0  0  0  0  0
    2.0423    4.5514    0.0000 H   0  0  0  0  0  0  0  0  0  0  0  0
    1.4808    3.3898    0.0000 H   0  0  0  0  0  0  0  0  0  0  0  0
    2.3356    7.3420    0.0000 H   0  0  0  0  0  0  0  0  0  0  0  0
    3.4300    1.3715    0.0000 H   0  0  0  0  0  0  0  0  0  0  0  0
    1.3834    6.0314    0.0000 H   0  0  0  0  0  0  0  0  0  0  0  0
    1.8728    1.8179    0.0000 H   0  0  0  0  0  0  0  0  0  0  0  0
    8.3937   -6.0314    0.0000 H   0  0  0  0  0  0  0  0  0  0  0  0
   11.6159   -5.6927    0.0000 H   0  0  0  0  0  0  0  0  0  0  0  0
   10.9570   -7.1726    0.0000 H   0  0  0  0  0  0  0  0  0  0  0  0
  1  5  1  0  0  0  0
  1  6  1  0  0  0  0
  1  7  2  0  0  0  0
  1 24  1  0  0  0  0
 17  2  1  1  0  0  0
  2 25  1  0  0  0  0
  3 20  2  0  0  0  0
  4 22  2  0  0  0  0
  5 41  1  0  0  0  0
  6 42  1  0  0  0  0
  8 29  2  0  0  0  0
  9 43  2  0  0  0  0
 10 16  1  0  0  0  0
 10 19  1  0  0  0  0
 10 20  1  0  0  0  0
 11 22  1  0  0  0  0
 24 11  1  1  0  0  0
 11 70  1  0  0  0  0
 21 12  1  6  0  0  0
 12 29  1  0  0  0  0
 12 72  1  0  0  0  0
 30 13  1  1  0  0  0
 13 43  1  0  0  0  0
 13 89  1  0  0  0  0
 14 50  2  0  0  0  0
 14 60  1  0  0  0  0
 15 59  2  0  0  0  0
 15 61  1  0  0  0  0
 16 18  1  0  0  0  0
 16 22  1  6  0  0  0
 16 62  1  0  0  0  0
 17 18  1  0  0  0  0
 17 19  1  0  0  0  0
 17 63  1  0  0  0  0
 18 64  1  0  0  0  0
 18 65  1  0  0  0  0
 19 66  1  0  0  0  0
 19 67  1  0  0  0  0
 20 21  1  0  0  0  0
 21 23  1  0  0  0  0
 21 68  1  0  0  0  0
 23 26  1  0  0  0  0
 23 27  1  0  0  0  0
 23 69  1  0  0  0  0
 24 28  1  0  0  0  0
 24 71  1  0  0  0  0
 25 31  1  0  0  0  0
 25 73  1  0  0  0  0
 25 74  1  0  0  0  0
 26 75  1  0  0  0  0
 26 76  1  0  0  0  0
 26 77  1  0  0  0  0
 27 78  1  0  0  0  0
 27 79  1  0  0  0  0
 27 80  1  0  0  0  0
 28 33  1  0  0  0  0
 28 81  1  0  0  0  0
 28 82  1  0  0  0  0
 29 30  1  0  0  0  0
 30 32  1  0  0  0  0
 30 83  1  0  0  0  0
 31 34  2  0  0  0  0
 31 35  1  0  0  0  0
 32 36  1  0  0  0  0
 32 37  1  0  0  0  0
 32 84  1  0  0  0  0
 33 85  1  0  0  0  0
 33 86  1  0  0  0  0
 33 87  1  0  0  0  0
 34 38  1  0  0  0  0
 34 88  1  0  0  0  0
 35 39  2  0  0  0  0
 35 90  1  0  0  0  0
 36 91  1  0  0  0  0
 36 92  1  0  0  0  0
 36 93  1  0  0  0  0
 37 94  1  0  0  0  0
 37 95  1  0  0  0  0
 37 96  1  0  0  0  0
 38 40  1  0  0  0  0
 38 44  2  0  0  0  0
 39 40  1  0  0  0  0
 39 97  1  0  0  0  0
 40 45  2  0  0  0  0
 41 46  2  0  0  0  0
 41 48  1  0  0  0  0
 42 47  2  0  0  0  0
 42 49  1  0  0  0  0
 43 50  1  0  0  0  0
 44 51  1  0  0  0  0
 44 98  1  0  0  0  0
 45 52  1  0  0  0  0
 45 99  1  0  0  0  0
 46 53  1  0  0  0  0
 46100  1  0  0  0  0
 47 54  1  0  0  0  0
 47101  1  0  0  0  0
 48 55  2  0  0  0  0
 48102  1  0  0  0  0
 49 56  2  0  0  0  0
 49103  1  0  0  0  0
 50 59  1  0  0  0  0
 51 52  2  0  0  0  0
 51104  1  0  0  0  0
 52105  1  0  0  0  0
 53 57  2  0  0  0  0
 53106  1  0  0  0  0
 54 58  2  0  0  0  0
 54107  1  0  0  0  0
 55 57  1  0  0  0  0
 55108  1  0  0  0  0
 56 58  1  0  0  0  0
 56109  1  0  0  0  0
 57110  1  0  0  0  0
 58111  1  0  0  0  0
 59112  1  0  0  0  0
 60 61  2  0  0  0  0
 60113  1  0  0  0  0
 61114  1  0  0  0  0
M  END
> <PUBCHEM_COMPOUND_CID>
506697
> <PUBCHEM_COMPOUND_CANONICALIZED>
1
> <PUBCHEM_CACTVS_COMPLEXITY>
1470
> <PUBCHEM_CACTVS_HBOND_ACCEPTOR>
10
> <PUBCHEM_CACTVS_HBOND_DONOR>
3
> <PUBCHEM_CACTVS_ROTATABLE_BOND>
18
> <PUBCHEM_CACTVS_SUBSKEYS>
AAADcfB/vAIAAAAAAAAAAAAAAAAAAWAAAAA8YMGCAAAAAADB1AAAHggQACAADTzpngY+htPIFRCoQzV3VICCgCQ3MiAI2IG+fMgKZnrA8TqXMIgm1hHYqMe6wfAOwAACAAAQAACAAAQAACAAAAAAAAAAAA==
> <PUBCHEM_IUPAC_OPENEYE_NAME>
N-[(1S)-1-[[(1S)-1-[(2S,4R)-2-[[(1R)-1-diphenoxyphosphorylpropyl]carbamoyl]-4-(2-naphthylmethoxy)pyrrolidine-1-carbonyl]-2-methyl-propyl]carbamoyl]-2-methyl-propyl]pyrazine-2-carboxamide
> <PUBCHEM_IUPAC_CAS_NAME>
N-[(2S)-1-[[(2S)-1-[(2S,4R)-2-[[[(1R)-1-diphenoxyphosphorylpropyl]amino]-oxomethyl]-4-(2-naphthalenylmethoxy)-1-pyrrolidinyl]-3-methyl-1-oxobutan-2-yl]amino]-3-methyl-1-oxobutan-2-yl]-2-pyrazinecarboxamide
> <PUBCHEM_IUPAC_NAME_MARKUP>
<I>N</I>-[(2<I>S</I>)-1-[[(2<I>S</I>)-1-[(2<I>S</I>,4<I>R</I>)-2-[[(1<I>R</I>)-1-diphenoxyphosphorylpropyl]carbamoyl]-4-(naphthalen-2-ylmethoxy)pyrrolidin-1-yl]-3-methyl-1-oxobutan-2-yl]amino]-3-methyl-1-oxobutan-2-yl]pyrazine-2-carboxamide
> <PUBCHEM_IUPAC_NAME>
N-[(2S)-1-[[(2S)-1-[(2S,4R)-2-[[(1R)-1-diphenoxyphosphorylpropyl]carbamoyl]-4-(naphthalen-2-ylmethoxy)pyrrolidin-1-yl]-3-methyl-1-oxobutan-2-yl]amino]-3-methyl-1-oxobutan-2-yl]pyrazine-2-carboxamide
> <PUBCHEM_IUPAC_SYSTEMATIC_NAME>
N-[(2S)-1-[[(2S)-1-[(2S,4R)-2-[[(1R)-1-diphenoxyphosphorylpropyl]carbamoyl]-4-(naphthalen-2-ylmethoxy)pyrrolidin-1-yl]-3-methyl-1-oxidanylidene-butan-2-yl]amino]-3-methyl-1-oxidanylidene-butan-2-yl]pyrazine-2-carboxamide
> <PUBCHEM_IUPAC_TRADITIONAL_NAME>
N-[(1S)-1-[[(1S)-1-[(2S,4R)-2-[[(1R)-1-diphenoxyphosphorylpropyl]carbamoyl]-4-(2-naphthylmethoxy)pyrrolidine-1-carbonyl]-2-methyl-propyl]carbamoyl]-2-methyl-propyl]pyrazinamide
> <PUBCHEM_IUPAC_INCHI>
InChI=1S/C46H53N6O8P/c1-6-40(61(57,59-35-17-9-7-10-18-35)60-36-19-11-8-12-20-36)49-44(54)39-26-37(58-29-32-21-22-33-15-13-14-16-34(33)25-32)28-52(39)46(56)42(31(4)5)51-45(55)41(30(2)3)50-43(53)38-27-47-23-24-48-38/h7-25,27,30-31,37,39-42H,6,26,28-29H2,1-5H3,(H,49,54)(H,50,53)(H,51,55)/t37-,39+,40-,41+,42+/m1/s1
> <PUBCHEM_IUPAC_INCHIKEY>
MGBXOYCMNLQGGM-IPCCRVIKSA-N
> <PUBCHEM_XLOGP3_AA>
7.1
> <PUBCHEM_EXACT_MASS>
848.36624967
> <PUBCHEM_MOLECULAR_FORMULA>
C46H53N6O8P
> <PUBCHEM_MOLECULAR_WEIGHT>
848.9
> <PUBCHEM_OPENEYE_CAN_SMILES>
CCC(NC(=O)C1CC(CN1C(=O)C(C(C)C)NC(=O)C(C(C)C)NC(=O)C2=NC=CN=C2)OCC3=CC4=CC=CC=C4C=C3)P(=O)(OC5=CC=CC=C5)OC6=CC=CC=C6
> <PUBCHEM_OPENEYE_ISO_SMILES>
CC[C@H](NC(=O)[C@@H]1C[C@H](CN1C(=O)[C@H](C(C)C)NC(=O)[C@H](C(C)C)NC(=O)C2=NC=CN=C2)OCC3=CC4=CC=CC=C4C=C3)P(=O)(OC5=CC=CC=C5)OC6=CC=CC=C6
> <PUBCHEM_CACTVS_TPSA>
178
> <PUBCHEM_MONOISOTOPIC_WEIGHT>
848.36624967
> <PUBCHEM_TOTAL_CHARGE>
0
> <PUBCHEM_HEAVY_ATOM_COUNT>
61
> <PUBCHEM_ATOM_DEF_STEREO_COUNT>
5
> <PUBCHEM_ATOM_UDEF_STEREO_COUNT>
0
> <PUBCHEM_BOND_DEF_STEREO_COUNT>
0
> <PUBCHEM_BOND_UDEF_STEREO_COUNT>
0
> <PUBCHEM_ISOTOPIC_ATOM_COUNT>
0
> <PUBCHEM_COMPONENT_COUNT>
1
> <PUBCHEM_CACTVS_TAUTO_COUNT>
-1
> <PUBCHEM_COORDINATE_TYPE>
1
5
255
> <PUBCHEM_BONDANNOTATIONS>
24  11  5
21  12  6
30  13  5
14  50  8
14  60  8
15  59  8
15  61  8
16  22  6
17  2  5
31  34  8
31  35  8
34  38  8
35  39  8
38  40  8
38  44  8
39  40  8
40  45  8
41  46  8
41  48  8
42  47  8
42  49  8
44  51  8
45  52  8
46  53  8
47  54  8
48  55  8
49  56  8
50  59  8
51  52  8
53  57  8
54  58  8
55  57  8
56  58  8
60  61  8
$$$$
