506659
  -OEChem-10302200282D
 88 90  0     1  0  0  0  0  0999 V2000
   11.0249    6.7526    0.0000 Cl  0  0  0  0  0  0  0  0  0  0  0  0
    7.5608    6.7526    0.0000 Cl  0  0  0  0  0  0  0  0  0  0  0  0
    8.4268    2.2526    0.0000 O   0  0  0  0  0  0  0  0  0  0  0  0
    5.0768   -0.4679    0.0000 O   0  0  0  0  0  0  0  0  0  0  0  0
    4.3958    0.7117    0.0000 O   0  0  0  0  0  0  0  0  0  0  0  0
    7.8347   -2.7904    0.0000 O   0  0  0  0  0  0  0  0  0  0  0  0
    7.5608    3.7526    0.0000 O   0  0  0  0  0  0  0  0  0  0  0  0
    2.1810    3.5569    0.0000 O   0  0  0  0  0  0  0  0  0  0  0  0
    5.6200   -5.6356    0.0000 O   0  0  0  0  0  0  0  0  0  0  0  0
    6.4781    0.5502    0.0000 N   0  0  0  0  0  0  0  0  0  0  0  0
    6.2524   -2.0859    0.0000 N   0  0  0  0  0  0  0  0  0  0  0  0
    4.5768    2.4343    0.0000 N   0  0  0  0  0  0  0  0  0  0  0  0
    7.0212   -4.6175    0.0000 N   0  0  0  0  0  0  0  0  0  0  0  0
    9.2928    3.7526    0.0000 N   0  0  0  0  0  0  0  0  0  0  0  0
    8.1968   -6.2355    0.0000 N   0  0  0  0  0  0  0  0  0  0  0  0
    7.3833   -8.0626    0.0000 N   0  0  0  0  0  0  0  0  0  0  0  0
    9.2928    7.7526    0.0000 N   0  0  0  0  0  0  0  0  0  0  0  0
    5.9781    1.4162    0.0000 C   0  0  1  0  0  0  0  0  0  0  0  0
    6.6472    2.1594    0.0000 C   0  0  0  0  0  0  0  0  0  0  0  0
    7.5608    1.7526    0.0000 C   0  0  2  0  0  0  0  0  0  0  0  0
    7.4562    0.7581    0.0000 C   0  0  0  0  0  0  0  0  0  0  0  0
    6.0714   -0.3634    0.0000 C   0  0  0  0  0  0  0  0  0  0  0  0
    6.6591   -1.1724    0.0000 C   0  0  2  0  0  0  0  0  0  0  0  0
    4.9836    1.5207    0.0000 C   0  0  0  0  0  0  0  0  0  0  0  0
    7.6537   -1.0678    0.0000 C   0  0  0  0  0  0  0  0  0  0  0  0
    8.2414   -1.8769    0.0000 C   0  0  0  0  0  0  0  0  0  0  0  0
    8.0604   -0.1543    0.0000 C   0  0  0  0  0  0  0  0  0  0  0  0
    3.5823    2.5388    0.0000 C   0  0  1  0  0  0  0  0  0  0  0  0
    6.8402   -2.8949    0.0000 C   0  0  0  0  0  0  0  0  0  0  0  0
    6.4334   -3.8085    0.0000 C   0  0  2  0  0  0  0  0  0  0  0  0
    8.4268    3.2526    0.0000 C   0  0  0  0  0  0  0  0  0  0  0  0
    5.4389   -3.9130    0.0000 C   0  0  0  0  0  0  0  0  0  0  0  0
    2.9945    1.7298    0.0000 C   0  0  0  0  0  0  0  0  0  0  0  0
    3.1756    3.4524    0.0000 C   0  0  0  0  0  0  0  0  0  0  0  0
    5.0322   -4.8266    0.0000 C   0  0  0  0  0  0  0  0  0  0  0  0
    4.8511   -3.1040    0.0000 C   0  0  0  0  0  0  0  0  0  0  0  0
    2.0000    1.8343    0.0000 C   0  0  0  0  0  0  0  0  0  0  0  0
    6.6145   -5.5310    0.0000 C   0  0  0  0  0  0  0  0  0  0  0  0
    9.2928    4.7526    0.0000 C   0  0  0  0  0  0  0  0  0  0  0  0
    7.2023   -6.3401    0.0000 C   0  0  0  0  0  0  0  0  0  0  0  0
    8.4268    5.2526    0.0000 C   0  0  0  0  0  0  0  0  0  0  0  0
   10.1588    5.2526    0.0000 C   0  0  0  0  0  0  0  0  0  0  0  0
   10.1588    6.2526    0.0000 C   0  0  0  0  0  0  0  0  0  0  0  0
    8.4268    6.2526    0.0000 C   0  0  0  0  0  0  0  0  0  0  0  0
    9.2928    6.7526    0.0000 C   0  0  0  0  0  0  0  0  0  0  0  0
    6.7956   -7.2536    0.0000 C   0  0  0  0  0  0  0  0  0  0  0  0
    8.7846   -7.0446    0.0000 C   0  0  0  0  0  0  0  0  0  0  0  0
    8.3778   -7.9581    0.0000 C   0  0  0  0  0  0  0  0  0  0  0  0
    5.6404    0.8962    0.0000 H   0  0  0  0  0  0  0  0  0  0  0  0
    6.9572    2.6963    0.0000 H   0  0  0  0  0  0  0  0  0  0  0  0
    6.1456    2.5238    0.0000 H   0  0  0  0  0  0  0  0  0  0  0  0
    7.5283    2.3718    0.0000 H   0  0  0  0  0  0  0  0  0  0  0  0
    7.5210    0.1415    0.0000 H   0  0  0  0  0  0  0  0  0  0  0  0
    8.0762    0.7581    0.0000 H   0  0  0  0  0  0  0  0  0  0  0  0
    6.0425   -1.2372    0.0000 H   0  0  0  0  0  0  0  0  0  0  0  0
    7.4015   -1.6342    0.0000 H   0  0  0  0  0  0  0  0  0  0  0  0
    5.6358   -2.1507    0.0000 H   0  0  0  0  0  0  0  0  0  0  0  0
    4.9413    2.9359    0.0000 H   0  0  0  0  0  0  0  0  0  0  0  0
    7.7398   -2.2413    0.0000 H   0  0  0  0  0  0  0  0  0  0  0  0
    8.6059   -2.3784    0.0000 H   0  0  0  0  0  0  0  0  0  0  0  0
    8.7430   -1.5124    0.0000 H   0  0  0  0  0  0  0  0  0  0  0  0
    8.6268   -0.4065    0.0000 H   0  0  0  0  0  0  0  0  0  0  0  0
    8.3126    0.4121    0.0000 H   0  0  0  0  0  0  0  0  0  0  0  0
    7.4940    0.0979    0.0000 H   0  0  0  0  0  0  0  0  0  0  0  0
    3.8345    1.9724    0.0000 H   0  0  0  0  0  0  0  0  0  0  0  0
    7.0500   -3.7437    0.0000 H   0  0  0  0  0  0  0  0  0  0  0  0
    4.8223   -3.9778    0.0000 H   0  0  0  0  0  0  0  0  0  0  0  0
    2.8236    1.1338    0.0000 H   0  0  0  0  0  0  0  0  0  0  0  0
    3.5518    1.4580    0.0000 H   0  0  0  0  0  0  0  0  0  0  0  0
    7.6378   -4.5527    0.0000 H   0  0  0  0  0  0  0  0  0  0  0  0
    3.5400    3.9540    0.0000 H   0  0  0  0  0  0  0  0  0  0  0  0
    4.4658   -4.5744    0.0000 H   0  0  0  0  0  0  0  0  0  0  0  0
    4.7800   -5.3930    0.0000 H   0  0  0  0  0  0  0  0  0  0  0  0
    5.5986   -5.0787    0.0000 H   0  0  0  0  0  0  0  0  0  0  0  0
    5.3527   -2.7396    0.0000 H   0  0  0  0  0  0  0  0  0  0  0  0
    4.4867   -2.6024    0.0000 H   0  0  0  0  0  0  0  0  0  0  0  0
    4.3496   -3.4684    0.0000 H   0  0  0  0  0  0  0  0  0  0  0  0
    9.8298    3.4426    0.0000 H   0  0  0  0  0  0  0  0  0  0  0  0
    2.0648    2.4509    0.0000 H   0  0  0  0  0  0  0  0  0  0  0  0
    1.3834    1.8991    0.0000 H   0  0  0  0  0  0  0  0  0  0  0  0
    1.9352    1.2177    0.0000 H   0  0  0  0  0  0  0  0  0  0  0  0
    7.8898    4.9426    0.0000 H   0  0  0  0  0  0  0  0  0  0  0  0
   10.6958    4.9426    0.0000 H   0  0  0  0  0  0  0  0  0  0  0  0
    6.1789   -7.3184    0.0000 H   0  0  0  0  0  0  0  0  0  0  0  0
    9.4012   -6.9797    0.0000 H   0  0  0  0  0  0  0  0  0  0  0  0
    9.8298    8.0626    0.0000 H   0  0  0  0  0  0  0  0  0  0  0  0
    8.7559    8.0626    0.0000 H   0  0  0  0  0  0  0  0  0  0  0  0
    8.7423   -8.4597    0.0000 H   0  0  0  0  0  0  0  0  0  0  0  0
  1 43  1  0  0  0  0
  2 44  1  0  0  0  0
 20  3  1  1  0  0  0
  3 31  1  0  0  0  0
  4 22  2  0  0  0  0
  5 24  2  0  0  0  0
  6 29  2  0  0  0  0
  7 31  2  0  0  0  0
  8 34  2  0  0  0  0
  9 38  2  0  0  0  0
 10 18  1  0  0  0  0
 10 21  1  0  0  0  0
 10 22  1  0  0  0  0
 23 11  1  6  0  0  0
 11 29  1  0  0  0  0
 11 57  1  0  0  0  0
 12 24  1  0  0  0  0
 28 12  1  1  0  0  0
 12 58  1  0  0  0  0
 30 13  1  1  0  0  0
 13 38  1  0  0  0  0
 13 70  1  0  0  0  0
 14 31  1  0  0  0  0
 14 39  1  0  0  0  0
 14 78  1  0  0  0  0
 15 40  2  0  0  0  0
 15 47  1  0  0  0  0
 16 46  2  0  0  0  0
 16 48  1  0  0  0  0
 17 45  1  0  0  0  0
 17 86  1  0  0  0  0
 17 87  1  0  0  0  0
 18 19  1  0  0  0  0
 18 24  1  6  0  0  0
 18 49  1  0  0  0  0
 19 20  1  0  0  0  0
 19 50  1  0  0  0  0
 19 51  1  0  0  0  0
 20 21  1  0  0  0  0
 20 52  1  0  0  0  0
 21 53  1  0  0  0  0
 21 54  1  0  0  0  0
 22 23  1  0  0  0  0
 23 25  1  0  0  0  0
 23 55  1  0  0  0  0
 25 26  1  0  0  0  0
 25 27  1  0  0  0  0
 25 56  1  0  0  0  0
 26 59  1  0  0  0  0
 26 60  1  0  0  0  0
 26 61  1  0  0  0  0
 27 62  1  0  0  0  0
 27 63  1  0  0  0  0
 27 64  1  0  0  0  0
 28 33  1  0  0  0  0
 28 34  1  0  0  0  0
 28 65  1  0  0  0  0
 29 30  1  0  0  0  0
 30 32  1  0  0  0  0
 30 66  1  0  0  0  0
 32 35  1  0  0  0  0
 32 36  1  0  0  0  0
 32 67  1  0  0  0  0
 33 37  1  0  0  0  0
 33 68  1  0  0  0  0
 33 69  1  0  0  0  0
 34 71  1  0  0  0  0
 35 72  1  0  0  0  0
 35 73  1  0  0  0  0
 35 74  1  0  0  0  0
 36 75  1  0  0  0  0
 36 76  1  0  0  0  0
 36 77  1  0  0  0  0
 37 79  1  0  0  0  0
 37 80  1  0  0  0  0
 37 81  1  0  0  0  0
 38 40  1  0  0  0  0
 39 41  2  0  0  0  0
 39 42  1  0  0  0  0
 40 46  1  0  0  0  0
 41 44  1  0  0  0  0
 41 82  1  0  0  0  0
 42 43  2  0  0  0  0
 42 83  1  0  0  0  0
 43 45  1  0  0  0  0
 44 45  2  0  0  0  0
 46 84  1  0  0  0  0
 47 48  2  0  0  0  0
 47 85  1  0  0  0  0
 48 88  1  0  0  0  0
M  END
> <PUBCHEM_COMPOUND_CID>
506659
> <PUBCHEM_COMPOUND_CANONICALIZED>
1
> <PUBCHEM_CACTVS_COMPLEXITY>
1150
> <PUBCHEM_CACTVS_HBOND_ACCEPTOR>
10
> <PUBCHEM_CACTVS_HBOND_DONOR>
5
> <PUBCHEM_CACTVS_ROTATABLE_BOND>
14
> <PUBCHEM_CACTVS_SUBSKEYS>
AAADcfB7+AAGAAAAAAAAAAAAAAAAAWAAAAA8QAAAAAAAAAABwAAAHgIQAAAADT7hliY+yJPIFACoAT133ACCgCQ3FyAI2IG4dskKYHrB07GdIIhmlgDYyMc6AQAIAACAAAKAABAAAQAABQAAIAAAAAAAAA==
> <PUBCHEM_IUPAC_OPENEYE_NAME>
[(3R,5S)-5-[[(1S)-1-formylpropyl]carbamoyl]-1-[(2S)-3-methyl-2-[[(2S)-3-methyl-2-(pyrazine-2-carbonylamino)butanoyl]amino]butanoyl]pyrrolidin-3-yl] N-(4-amino-3,5-dichloro-phenyl)carbamate
> <PUBCHEM_IUPAC_CAS_NAME>
N-(4-amino-3,5-dichlorophenyl)carbamic acid [(3R,5S)-1-[(2S)-3-methyl-2-[[(2S)-3-methyl-1-oxo-2-[[oxo(2-pyrazinyl)methyl]amino]butyl]amino]-1-oxobutyl]-5-[oxo-[[(2S)-1-oxobutan-2-yl]amino]methyl]-3-pyrrolidinyl] ester
> <PUBCHEM_IUPAC_NAME_MARKUP>
[(3<I>R</I>,5<I>S</I>)-1-[(2<I>S</I>)-3-methyl-2-[[(2<I>S</I>)-3-methyl-2-(pyrazine-2-carbonylamino)butanoyl]amino]butanoyl]-5-[[(2<I>S</I>)-1-oxobutan-2-yl]carbamoyl]pyrrolidin-3-yl] <I>N</I>-(4-amino-3,5-dichlorophenyl)carbamate
> <PUBCHEM_IUPAC_NAME>
[(3R,5S)-1-[(2S)-3-methyl-2-[[(2S)-3-methyl-2-(pyrazine-2-carbonylamino)butanoyl]amino]butanoyl]-5-[[(2S)-1-oxobutan-2-yl]carbamoyl]pyrrolidin-3-yl] N-(4-amino-3,5-dichlorophenyl)carbamate
> <PUBCHEM_IUPAC_SYSTEMATIC_NAME>
[(3R,5S)-1-[(2S)-3-methyl-2-[[(2S)-3-methyl-2-(pyrazin-2-ylcarbonylamino)butanoyl]amino]butanoyl]-5-[[(2S)-1-oxidanylidenebutan-2-yl]carbamoyl]pyrrolidin-3-yl] N-[4-azanyl-3,5-bis(chloranyl)phenyl]carbamate
> <PUBCHEM_IUPAC_TRADITIONAL_NAME>
N-(4-amino-3,5-dichloro-phenyl)carbamic acid [(3R,5S)-5-[[(1S)-1-formylpropyl]carbamoyl]-1-[(2S)-3-methyl-2-[[(2S)-3-methyl-2-(pyrazinoylamino)butanoyl]amino]butanoyl]pyrrolidin-3-yl] ester
> <PUBCHEM_IUPAC_INCHI>
InChI=1S/C31H40Cl2N8O7/c1-6-17(14-42)37-28(44)23-11-19(48-31(47)38-18-9-20(32)24(34)21(33)10-18)13-41(23)30(46)26(16(4)5)40-29(45)25(15(2)3)39-27(43)22-12-35-7-8-36-22/h7-10,12,14-17,19,23,25-26H,6,11,13,34H2,1-5H3,(H,37,44)(H,38,47)(H,39,43)(H,40,45)/t17-,19+,23-,25-,26-/m0/s1
> <PUBCHEM_IUPAC_INCHIKEY>
DTMRPLKKNKIIBA-JFSIWBCQSA-N
> <PUBCHEM_XLOGP3_AA>
2.9
> <PUBCHEM_EXACT_MASS>
706.2397010
> <PUBCHEM_MOLECULAR_FORMULA>
C31H40Cl2N8O7
> <PUBCHEM_MOLECULAR_WEIGHT>
707.6
> <PUBCHEM_OPENEYE_CAN_SMILES>
CCC(C=O)NC(=O)C1CC(CN1C(=O)C(C(C)C)NC(=O)C(C(C)C)NC(=O)C2=NC=CN=C2)OC(=O)NC3=CC(=C(C(=C3)Cl)N)Cl
> <PUBCHEM_OPENEYE_ISO_SMILES>
CC[C@@H](C=O)NC(=O)[C@@H]1C[C@H](CN1C(=O)[C@H](C(C)C)NC(=O)[C@H](C(C)C)NC(=O)C2=NC=CN=C2)OC(=O)NC3=CC(=C(C(=C3)Cl)N)Cl
> <PUBCHEM_CACTVS_TPSA>
215
> <PUBCHEM_MONOISOTOPIC_WEIGHT>
706.2397010
> <PUBCHEM_TOTAL_CHARGE>
0
> <PUBCHEM_HEAVY_ATOM_COUNT>
48
> <PUBCHEM_ATOM_DEF_STEREO_COUNT>
5
> <PUBCHEM_ATOM_UDEF_STEREO_COUNT>
0
> <PUBCHEM_BOND_DEF_STEREO_COUNT>
0
> <PUBCHEM_BOND_UDEF_STEREO_COUNT>
0
> <PUBCHEM_ISOTOPIC_ATOM_COUNT>
0
> <PUBCHEM_COMPONENT_COUNT>
1
> <PUBCHEM_CACTVS_TAUTO_COUNT>
-1
> <PUBCHEM_COORDINATE_TYPE>
1
5
255
> <PUBCHEM_BONDANNOTATIONS>
23  11  6
28  12  5
30  13  5
15  40  8
15  47  8
16  46  8
16  48  8
18  24  6
20  3  5
39  41  8
39  42  8
40  46  8
41  44  8
42  43  8
43  45  8
44  45  8
47  48  8
$$$$
