506699
  -OEChem-10302200282D
111116  0     1  0  0  0  0  0999 V2000
   11.7848    3.4371    0.0000 O   0  0  0  0  0  0  0  0  0  0  0  0
   10.4504    4.3371    0.0000 O   0  0  0  0  0  0  0  0  0  0  0  0
    9.1137    0.9161    0.0000 O   0  0  0  0  0  0  0  0  0  0  0  0
    5.4115    3.1336    0.0000 O   0  0  0  0  0  0  0  0  0  0  0  0
    8.2381   -0.1273    0.0000 O   0  0  0  0  0  0  0  0  0  0  0  0
    5.1188   -1.9356    0.0000 O   0  0  0  0  0  0  0  0  0  0  0  0
    6.8059   -5.1222    0.0000 O   0  0  0  0  0  0  0  0  0  0  0  0
    9.2345    2.6440    0.0000 N   0  0  0  0  0  0  0  0  0  0  0  0
    7.0350    1.1186    0.0000 N   0  0  0  0  0  0  0  0  0  0  0  0
    6.7994   -1.5166    0.0000 N   0  0  0  0  0  0  0  0  0  0  0  0
    5.6027   -3.8762    0.0000 N   0  0  0  0  0  0  0  0  0  0  0  0
    5.3672   -6.5115    0.0000 N   0  0  0  0  0  0  0  0  0  0  0  0
    3.4447   -5.9602    0.0000 N   0  0  0  0  0  0  0  0  0  0  0  0
   13.2823    5.2576    0.0000 C   0  0  3  0  0  0  0  0  0  0  0  0
   14.6812    5.2664    0.0000 C   0  0  0  0  0  0  0  0  0  0  0  0
   13.5411    6.2235    0.0000 C   0  0  3  0  0  0  0  0  0  0  0  0
   12.0612    4.3919    0.0000 C   0  0  3  0  0  0  0  0  0  0  0  0
   12.8045    7.2061    0.0000 C   0  0  0  0  0  0  0  0  0  0  0  0
   11.5078    5.9124    0.0000 C   0  0  0  0  0  0  0  0  0  0  0  0
   11.2322    4.9511    0.0000 C   0  0  3  0  0  0  0  0  0  0  0  0
   15.5472    5.7664    0.0000 C   0  0  0  0  0  0  0  0  0  0  0  0
   15.1812    4.4004    0.0000 C   0  0  0  0  0  0  0  0  0  0  0  0
   12.8903    3.8327    0.0000 C   0  0  0  0  0  0  0  0  0  0  0  0
   10.2321    2.5742    0.0000 C   0  0  1  0  0  0  0  0  0  0  0  0
   10.6704    1.6754    0.0000 C   0  0  0  0  0  0  0  0  0  0  0  0
   10.1112    0.8464    0.0000 C   0  0  0  0  0  0  0  0  0  0  0  0
    8.6753    1.8149    0.0000 C   0  0  0  0  0  0  0  0  0  0  0  0
    7.6777    1.8847    0.0000 C   0  0  2  0  0  0  0  0  0  0  0  0
    7.1478    2.7327    0.0000 C   0  0  0  0  0  0  0  0  0  0  0  0
    6.1775    2.4908    0.0000 C   0  0  2  0  0  0  0  0  0  0  0  0
    6.1078    1.4932    0.0000 C   0  0  0  0  0  0  0  0  0  0  0  0
    7.2769    0.1483    0.0000 C   0  0  0  0  0  0  0  0  0  0  0  0
    6.5575   -0.5463    0.0000 C   0  0  2  0  0  0  0  0  0  0  0  0
    5.5963   -0.2707    0.0000 C   0  0  0  0  0  0  0  0  0  0  0  0
    4.4718    2.7916    0.0000 C   0  0  0  0  0  0  0  0  0  0  0  0
    4.8769   -0.9653    0.0000 C   0  0  0  0  0  0  0  0  0  0  0  0
    5.3543    0.6996    0.0000 C   0  0  0  0  0  0  0  0  0  0  0  0
    3.7057    3.4344    0.0000 C   0  0  0  0  0  0  0  0  0  0  0  0
    6.0801   -2.2113    0.0000 C   0  0  0  0  0  0  0  0  0  0  0  0
    6.3220   -3.1816    0.0000 C   0  0  2  0  0  0  0  0  0  0  0  0
    2.7660    3.0923    0.0000 C   0  0  0  0  0  0  0  0  0  0  0  0
    3.8794    4.4192    0.0000 C   0  0  0  0  0  0  0  0  0  0  0  0
    7.2833   -3.4572    0.0000 C   0  0  0  0  0  0  0  0  0  0  0  0
    2.0000    3.7351    0.0000 C   0  0  0  0  0  0  0  0  0  0  0  0
    3.1133    5.0620    0.0000 C   0  0  0  0  0  0  0  0  0  0  0  0
    7.5252   -4.4275    0.0000 C   0  0  0  0  0  0  0  0  0  0  0  0
    8.0026   -2.7626    0.0000 C   0  0  0  0  0  0  0  0  0  0  0  0
    2.1736    4.7199    0.0000 C   0  0  0  0  0  0  0  0  0  0  0  0
    5.8446   -4.8465    0.0000 C   0  0  0  0  0  0  0  0  0  0  0  0
    5.1253   -5.5412    0.0000 C   0  0  0  0  0  0  0  0  0  0  0  0
    4.1640   -5.2655    0.0000 C   0  0  0  0  0  0  0  0  0  0  0  0
    4.6479   -7.2061    0.0000 C   0  0  0  0  0  0  0  0  0  0  0  0
    3.6866   -6.9305    0.0000 C   0  0  0  0  0  0  0  0  0  0  0  0
   10.7912    3.4032    0.0000 B   0  0  0  0  0  0  0  0  0  0  0  0
   13.4723    4.6674    0.0000 H   0  0  0  0  0  0  0  0  0  0  0  0
   13.9914    6.6497    0.0000 H   0  0  0  0  0  0  0  0  0  0  0  0
   13.1223    7.7385    0.0000 H   0  0  0  0  0  0  0  0  0  0  0  0
   12.1913    7.2981    0.0000 H   0  0  0  0  0  0  0  0  0  0  0  0
   11.5028    6.5324    0.0000 H   0  0  0  0  0  0  0  0  0  0  0  0
   10.8935    5.9962    0.0000 H   0  0  0  0  0  0  0  0  0  0  0  0
   10.7177    5.2972    0.0000 H   0  0  0  0  0  0  0  0  0  0  0  0
   15.8572    5.2295    0.0000 H   0  0  0  0  0  0  0  0  0  0  0  0
   16.0842    6.0764    0.0000 H   0  0  0  0  0  0  0  0  0  0  0  0
   15.2372    6.3034    0.0000 H   0  0  0  0  0  0  0  0  0  0  0  0
   14.6443    4.0904    0.0000 H   0  0  0  0  0  0  0  0  0  0  0  0
   15.4912    3.8634    0.0000 H   0  0  0  0  0  0  0  0  0  0  0  0
   15.7181    4.7104    0.0000 H   0  0  0  0  0  0  0  0  0  0  0  0
   12.5436    3.3187    0.0000 H   0  0  0  0  0  0  0  0  0  0  0  0
   13.4043    3.4860    0.0000 H   0  0  0  0  0  0  0  0  0  0  0  0
   13.2370    4.3467    0.0000 H   0  0  0  0  0  0  0  0  0  0  0  0
    9.9603    3.1315    0.0000 H   0  0  0  0  0  0  0  0  0  0  0  0
   11.1164    1.2447    0.0000 H   0  0  0  0  0  0  0  0  0  0  0  0
   11.1720    2.0398    0.0000 H   0  0  0  0  0  0  0  0  0  0  0  0
    8.9627    3.2012    0.0000 H   0  0  0  0  0  0  0  0  0  0  0  0
    9.5972    1.1931    0.0000 H   0  0  0  0  0  0  0  0  0  0  0  0
    9.7645    0.3324    0.0000 H   0  0  0  0  0  0  0  0  0  0  0  0
   10.6252    0.4997    0.0000 H   0  0  0  0  0  0  0  0  0  0  0  0
    7.9200    1.3140    0.0000 H   0  0  0  0  0  0  0  0  0  0  0  0
    7.7051    3.0045    0.0000 H   0  0  0  0  0  0  0  0  0  0  0  0
    6.9358    3.3153    0.0000 H   0  0  0  0  0  0  0  0  0  0  0  0
    5.6068    2.2486    0.0000 H   0  0  0  0  0  0  0  0  0  0  0  0
    5.4972    1.6009    0.0000 H   0  0  0  0  0  0  0  0  0  0  0  0
    5.9369    0.8973    0.0000 H   0  0  0  0  0  0  0  0  0  0  0  0
    6.1115   -0.9770    0.0000 H   0  0  0  0  0  0  0  0  0  0  0  0
    6.0423    0.1600    0.0000 H   0  0  0  0  0  0  0  0  0  0  0  0
    3.9968    2.3930    0.0000 H   0  0  0  0  0  0  0  0  0  0  0  0
    4.7818    2.2546    0.0000 H   0  0  0  0  0  0  0  0  0  0  0  0
    7.3954   -1.6875    0.0000 H   0  0  0  0  0  0  0  0  0  0  0  0
    4.4462   -0.5193    0.0000 H   0  0  0  0  0  0  0  0  0  0  0  0
    4.4309   -1.3960    0.0000 H   0  0  0  0  0  0  0  0  0  0  0  0
    5.3076   -1.4113    0.0000 H   0  0  0  0  0  0  0  0  0  0  0  0
    5.9559    0.8496    0.0000 H   0  0  0  0  0  0  0  0  0  0  0  0
    5.2044    1.3012    0.0000 H   0  0  0  0  0  0  0  0  0  0  0  0
    4.7528    0.5496    0.0000 H   0  0  0  0  0  0  0  0  0  0  0  0
    6.4720   -3.7832    0.0000 H   0  0  0  0  0  0  0  0  0  0  0  0
    2.6584    2.4818    0.0000 H   0  0  0  0  0  0  0  0  0  0  0  0
    4.4620    4.6312    0.0000 H   0  0  0  0  0  0  0  0  0  0  0  0
    7.8793   -3.6281    0.0000 H   0  0  0  0  0  0  0  0  0  0  0  0
    5.0067   -3.7053    0.0000 H   0  0  0  0  0  0  0  0  0  0  0  0
    1.4174    3.5231    0.0000 H   0  0  0  0  0  0  0  0  0  0  0  0
    3.2210    5.6725    0.0000 H   0  0  0  0  0  0  0  0  0  0  0  0
    6.9236   -4.5775    0.0000 H   0  0  0  0  0  0  0  0  0  0  0  0
    7.6752   -5.0291    0.0000 H   0  0  0  0  0  0  0  0  0  0  0  0
    8.1268   -4.2775    0.0000 H   0  0  0  0  0  0  0  0  0  0  0  0
    8.4333   -3.2085    0.0000 H   0  0  0  0  0  0  0  0  0  0  0  0
    8.4486   -2.3319    0.0000 H   0  0  0  0  0  0  0  0  0  0  0  0
    7.5719   -2.3166    0.0000 H   0  0  0  0  0  0  0  0  0  0  0  0
    1.6987    5.1185    0.0000 H   0  0  0  0  0  0  0  0  0  0  0  0
    4.0140   -4.6640    0.0000 H   0  0  0  0  0  0  0  0  0  0  0  0
    4.7979   -7.8077    0.0000 H   0  0  0  0  0  0  0  0  0  0  0  0
    3.2406   -7.3612    0.0000 H   0  0  0  0  0  0  0  0  0  0  0  0
  1 17  1  0  0  0  0
  1 54  1  0  0  0  0
  2 20  1  0  0  0  0
  2 54  1  0  0  0  0
  3 27  2  0  0  0  0
 30  4  1  6  0  0  0
  4 35  1  0  0  0  0
  5 32  2  0  0  0  0
  6 39  2  0  0  0  0
  7 49  2  0  0  0  0
 24  8  1  6  0  0  0
  8 27  1  0  0  0  0
  8 74  1  0  0  0  0
  9 28  1  0  0  0  0
  9 31  1  0  0  0  0
  9 32  1  0  0  0  0
 33 10  1  1  0  0  0
 10 39  1  0  0  0  0
 10 88  1  0  0  0  0
 40 11  1  6  0  0  0
 11 49  1  0  0  0  0
 11 99  1  0  0  0  0
 12 50  2  0  0  0  0
 12 52  1  0  0  0  0
 13 51  2  0  0  0  0
 13 53  1  0  0  0  0
 14 15  1  0  0  0  0
 14 17  1  0  0  0  0
 14 18  1  0  0  0  0
 14 55  1  0  0  0  0
 15 16  1  0  0  0  0
 15 21  1  0  0  0  0
 15 22  1  0  0  0  0
 16 18  1  0  0  0  0
 16 19  1  0  0  0  0
 16 56  1  0  0  0  0
 17 20  1  0  0  0  0
 17 23  1  0  0  0  0
 18 57  1  0  0  0  0
 18 58  1  0  0  0  0
 19 20  1  0  0  0  0
 19 59  1  0  0  0  0
 19 60  1  0  0  0  0
 20 61  1  0  0  0  0
 21 62  1  0  0  0  0
 21 63  1  0  0  0  0
 21 64  1  0  0  0  0
 22 65  1  0  0  0  0
 22 66  1  0  0  0  0
 22 67  1  0  0  0  0
 23 68  1  0  0  0  0
 23 69  1  0  0  0  0
 23 70  1  0  0  0  0
 24 25  1  0  0  0  0
 24 54  1  0  0  0  0
 24 71  1  0  0  0  0
 25 26  1  0  0  0  0
 25 72  1  0  0  0  0
 25 73  1  0  0  0  0
 26 75  1  0  0  0  0
 26 76  1  0  0  0  0
 26 77  1  0  0  0  0
 28 27  1  1  0  0  0
 28 29  1  0  0  0  0
 28 78  1  0  0  0  0
 29 30  1  0  0  0  0
 29 79  1  0  0  0  0
 29 80  1  0  0  0  0
 30 31  1  0  0  0  0
 30 81  1  0  0  0  0
 31 82  1  0  0  0  0
 31 83  1  0  0  0  0
 32 33  1  0  0  0  0
 33 34  1  0  0  0  0
 33 84  1  0  0  0  0
 34 36  1  0  0  0  0
 34 37  1  0  0  0  0
 34 85  1  0  0  0  0
 35 38  1  0  0  0  0
 35 86  1  0  0  0  0
 35 87  1  0  0  0  0
 36 89  1  0  0  0  0
 36 90  1  0  0  0  0
 36 91  1  0  0  0  0
 37 92  1  0  0  0  0
 37 93  1  0  0  0  0
 37 94  1  0  0  0  0
 38 41  2  0  0  0  0
 38 42  1  0  0  0  0
 39 40  1  0  0  0  0
 40 43  1  0  0  0  0
 40 95  1  0  0  0  0
 41 44  1  0  0  0  0
 41 96  1  0  0  0  0
 42 45  2  0  0  0  0
 42 97  1  0  0  0  0
 43 46  1  0  0  0  0
 43 47  1  0  0  0  0
 43 98  1  0  0  0  0
 44 48  2  0  0  0  0
 44100  1  0  0  0  0
 45 48  1  0  0  0  0
 45101  1  0  0  0  0
 46102  1  0  0  0  0
 46103  1  0  0  0  0
 46104  1  0  0  0  0
 47105  1  0  0  0  0
 47106  1  0  0  0  0
 47107  1  0  0  0  0
 48108  1  0  0  0  0
 49 50  1  0  0  0  0
 50 51  1  0  0  0  0
 51109  1  0  0  0  0
 52 53  2  0  0  0  0
 52110  1  0  0  0  0
 53111  1  0  0  0  0
M  END
> <PUBCHEM_COMPOUND_CID>
506699
> <PUBCHEM_COMPOUND_CANONICALIZED>
1
> <PUBCHEM_CACTVS_COMPLEXITY>
1360
> <PUBCHEM_CACTVS_HBOND_ACCEPTOR>
9
> <PUBCHEM_CACTVS_HBOND_DONOR>
3
> <PUBCHEM_CACTVS_ROTATABLE_BOND>
14
> <PUBCHEM_CACTVS_SUBSKEYS>
AAADcfJ/uAAAAAAAAAAAAAAAAABgAWJAAAA8YMEAAAAAAEgBwAAoHgAQAAAAD3zhngY+gJPIFACoAzV3VACCgCQ3EiAI2IG4fMgLZnrA8TiXMIgm1gHYqMe6wfAPgAAAAAAAAADAAAYAADCAAAAAAAAAAA==
> <PUBCHEM_IUPAC_OPENEYE_NAME>
N-[(1S)-1-[[(1S)-1-[(2S,4R)-4-benzyloxy-2-[[(1R)-1-(2,9,9-trimethyl-3,5-dioxa-4-boratricyclo[6.1.1.02,6]decan-4-yl)propyl]carbamoyl]pyrrolidine-1-carbonyl]-2-methyl-propyl]carbamoyl]-2-methyl-propyl]pyrazine-2-carboxamide
> <PUBCHEM_IUPAC_CAS_NAME>
N-[(2S)-3-methyl-1-[[(2S)-3-methyl-1-oxo-1-[(2S,4R)-2-[oxo-[[(1R)-1-(2,9,9-trimethyl-3,5-dioxa-4-boratricyclo[6.1.1.02,6]decan-4-yl)propyl]amino]methyl]-4-phenylmethoxy-1-pyrrolidinyl]butan-2-yl]amino]-1-oxobutan-2-yl]-2-pyrazinecarboxamide
> <PUBCHEM_IUPAC_NAME_MARKUP>
<I>N</I>-[(2<I>S</I>)-3-methyl-1-[[(2<I>S</I>)-3-methyl-1-oxo-1-[(2<I>S</I>,4<I>R</I>)-4-phenylmethoxy-2-[[(1<I>R</I>)-1-(2,9,9-trimethyl-3,5-dioxa-4-boratricyclo[6.1.1.0<SUP>2,6</SUP>]decan-4-yl)propyl]carbamoyl]pyrrolidin-1-yl]butan-2-yl]amino]-1-oxobutan-2-yl]pyrazine-2-carboxamide
> <PUBCHEM_IUPAC_NAME>
N-[(2S)-3-methyl-1-[[(2S)-3-methyl-1-oxo-1-[(2S,4R)-4-phenylmethoxy-2-[[(1R)-1-(2,9,9-trimethyl-3,5-dioxa-4-boratricyclo[6.1.1.02,6]decan-4-yl)propyl]carbamoyl]pyrrolidin-1-yl]butan-2-yl]amino]-1-oxobutan-2-yl]pyrazine-2-carboxamide
> <PUBCHEM_IUPAC_SYSTEMATIC_NAME>
N-[(2S)-3-methyl-1-[[(2S)-3-methyl-1-oxidanylidene-1-[(2S,4R)-4-phenylmethoxy-2-[[(1R)-1-(2,9,9-trimethyl-3,5-dioxa-4-boratricyclo[6.1.1.02,6]decan-4-yl)propyl]carbamoyl]pyrrolidin-1-yl]butan-2-yl]amino]-1-oxidanylidene-butan-2-yl]pyrazine-2-carboxamide
> <PUBCHEM_IUPAC_TRADITIONAL_NAME>
N-[(1S)-1-[[(1S)-1-[(2S,4R)-4-benzoxy-2-[[(1R)-1-(2,9,9-trimethyl-3,5-dioxa-4-boratricyclo[6.1.1.02,6]decan-4-yl)propyl]carbamoyl]pyrrolidine-1-carbonyl]-2-methyl-propyl]carbamoyl]-2-methyl-propyl]pyrazinamide
> <PUBCHEM_IUPAC_INCHI>
InChI=1S/C40H57BN6O7/c1-9-32(41-53-31-18-26-17-30(39(26,6)7)40(31,8)54-41)44-36(49)29-19-27(52-22-25-13-11-10-12-14-25)21-47(29)38(51)34(24(4)5)46-37(50)33(23(2)3)45-35(48)28-20-42-15-16-43-28/h10-16,20,23-24,26-27,29-34H,9,17-19,21-22H2,1-8H3,(H,44,49)(H,45,48)(H,46,50)/t26?,27-,29+,30?,31?,32+,33+,34+,40?/m1/s1
> <PUBCHEM_IUPAC_INCHIKEY>
KYWDDEUHLBDRKB-VNLQLIOTSA-N
> <PUBCHEM_EXACT_MASS>
744.4381783
> <PUBCHEM_MOLECULAR_FORMULA>
C40H57BN6O7
> <PUBCHEM_MOLECULAR_WEIGHT>
744.7
> <PUBCHEM_OPENEYE_CAN_SMILES>
B1(OC2CC3CC(C3(C)C)C2(O1)C)C(CC)NC(=O)C4CC(CN4C(=O)C(C(C)C)NC(=O)C(C(C)C)NC(=O)C5=NC=CN=C5)OCC6=CC=CC=C6
> <PUBCHEM_OPENEYE_ISO_SMILES>
B1(OC2CC3CC(C3(C)C)C2(O1)C)[C@H](CC)NC(=O)[C@@H]4C[C@H](CN4C(=O)[C@H](C(C)C)NC(=O)[C@H](C(C)C)NC(=O)C5=NC=CN=C5)OCC6=CC=CC=C6
> <PUBCHEM_CACTVS_TPSA>
161
> <PUBCHEM_MONOISOTOPIC_WEIGHT>
744.4381783
> <PUBCHEM_TOTAL_CHARGE>
0
> <PUBCHEM_HEAVY_ATOM_COUNT>
54
> <PUBCHEM_ATOM_DEF_STEREO_COUNT>
5
> <PUBCHEM_ATOM_UDEF_STEREO_COUNT>
4
> <PUBCHEM_BOND_DEF_STEREO_COUNT>
0
> <PUBCHEM_BOND_UDEF_STEREO_COUNT>
0
> <PUBCHEM_ISOTOPIC_ATOM_COUNT>
0
> <PUBCHEM_COMPONENT_COUNT>
1
> <PUBCHEM_CACTVS_TAUTO_COUNT>
-1
> <PUBCHEM_COORDINATE_TYPE>
1
5
255
> <PUBCHEM_BONDANNOTATIONS>
33  10  5
40  11  6
12  50  8
12  52  8
13  51  8
13  53  8
14  18  3
16  18  3
17  23  3
20  19  3
28  27  5
38  41  8
38  42  8
30  4  6
41  44  8
42  45  8
44  48  8
45  48  8
50  51  8
52  53  8
24  8  6
$$$$
