506669
  -OEChem-10302200282D
 90 92  0     1  0  0  0  0  0999 V2000
    5.4641   -2.9076    0.0000 O   0  0  0  0  0  0  0  0  0  0  0  0
    8.8141   -0.1871    0.0000 O   0  0  0  0  0  0  0  0  0  0  0  0
    9.4951   -1.3667    0.0000 O   0  0  0  0  0  0  0  0  0  0  0  0
    6.0562    2.1354    0.0000 O   0  0  0  0  0  0  0  0  0  0  0  0
    6.3301   -4.4076    0.0000 O   0  0  0  0  0  0  0  0  0  0  0  0
   11.7098   -4.2119    0.0000 O   0  0  0  0  0  0  0  0  0  0  0  0
    8.2709    4.9806    0.0000 O   0  0  0  0  0  0  0  0  0  0  0  0
    2.8660   -5.4076    0.0000 O   0  0  0  0  0  0  0  0  0  0  0  0
    7.4128   -1.2052    0.0000 N   0  0  0  0  0  0  0  0  0  0  0  0
    7.6385    1.4309    0.0000 N   0  0  0  0  0  0  0  0  0  0  0  0
    9.3141   -3.0893    0.0000 N   0  0  0  0  0  0  0  0  0  0  0  0
    6.8697    3.9625    0.0000 N   0  0  0  0  0  0  0  0  0  0  0  0
    4.5981   -4.4076    0.0000 N   0  0  0  0  0  0  0  0  0  0  0  0
    5.6941    5.5805    0.0000 N   0  0  0  0  0  0  0  0  0  0  0  0
    6.5076    7.4076    0.0000 N   0  0  0  0  0  0  0  0  0  0  0  0
    7.9128   -2.0712    0.0000 C   0  0  1  0  0  0  0  0  0  0  0  0
    7.2437   -2.8144    0.0000 C   0  0  0  0  0  0  0  0  0  0  0  0
    6.3301   -2.4076    0.0000 C   0  0  2  0  0  0  0  0  0  0  0  0
    6.4347   -1.4131    0.0000 C   0  0  0  0  0  0  0  0  0  0  0  0
    7.8195   -0.2916    0.0000 C   0  0  0  0  0  0  0  0  0  0  0  0
    7.2318    0.5174    0.0000 C   0  0  2  0  0  0  0  0  0  0  0  0
    8.9073   -2.1757    0.0000 C   0  0  0  0  0  0  0  0  0  0  0  0
    6.2372    0.4128    0.0000 C   0  0  0  0  0  0  0  0  0  0  0  0
    5.6494    1.2219    0.0000 C   0  0  0  0  0  0  0  0  0  0  0  0
    5.8305   -0.5007    0.0000 C   0  0  0  0  0  0  0  0  0  0  0  0
   10.3086   -3.1938    0.0000 C   0  0  1  0  0  0  0  0  0  0  0  0
    7.0507    2.2399    0.0000 C   0  0  0  0  0  0  0  0  0  0  0  0
    7.4574    3.1535    0.0000 C   0  0  2  0  0  0  0  0  0  0  0  0
    5.4641   -3.9076    0.0000 C   0  0  0  0  0  0  0  0  0  0  0  0
    8.4520    3.2580    0.0000 C   0  0  0  0  0  0  0  0  0  0  0  0
   10.8964   -2.3848    0.0000 C   0  0  0  0  0  0  0  0  0  0  0  0
   10.7153   -4.1074    0.0000 C   0  0  0  0  0  0  0  0  0  0  0  0
    8.8587    4.1716    0.0000 C   0  0  0  0  0  0  0  0  0  0  0  0
    9.0398    2.4490    0.0000 C   0  0  0  0  0  0  0  0  0  0  0  0
   11.8909   -2.4893    0.0000 C   0  0  0  0  0  0  0  0  0  0  0  0
    7.2764    4.8760    0.0000 C   0  0  0  0  0  0  0  0  0  0  0  0
    4.5981   -5.4076    0.0000 C   0  0  0  0  0  0  0  0  0  0  0  0
    3.7320   -5.9076    0.0000 C   0  0  0  0  0  0  0  0  0  0  0  0
    6.6886    5.6851    0.0000 C   0  0  0  0  0  0  0  0  0  0  0  0
    5.4641   -5.9076    0.0000 C   0  0  0  0  0  0  0  0  0  0  0  0
    3.7320   -6.9076    0.0000 C   0  0  0  0  0  0  0  0  0  0  0  0
    5.4641   -6.9076    0.0000 C   0  0  0  0  0  0  0  0  0  0  0  0
    7.0954    6.5986    0.0000 C   0  0  0  0  0  0  0  0  0  0  0  0
    4.5981   -7.4076    0.0000 C   0  0  0  0  0  0  0  0  0  0  0  0
    5.1063    6.3896    0.0000 C   0  0  0  0  0  0  0  0  0  0  0  0
    2.0000   -5.9076    0.0000 C   0  0  0  0  0  0  0  0  0  0  0  0
    5.5130    7.3031    0.0000 C   0  0  0  0  0  0  0  0  0  0  0  0
    8.2505   -1.5512    0.0000 H   0  0  0  0  0  0  0  0  0  0  0  0
    6.9337   -3.3513    0.0000 H   0  0  0  0  0  0  0  0  0  0  0  0
    7.7453   -3.1788    0.0000 H   0  0  0  0  0  0  0  0  0  0  0  0
    5.8102   -2.0700    0.0000 H   0  0  0  0  0  0  0  0  0  0  0  0
    6.3698   -0.7965    0.0000 H   0  0  0  0  0  0  0  0  0  0  0  0
    5.8147   -1.4131    0.0000 H   0  0  0  0  0  0  0  0  0  0  0  0
    6.8673    1.0190    0.0000 H   0  0  0  0  0  0  0  0  0  0  0  0
    6.6017   -0.0887    0.0000 H   0  0  0  0  0  0  0  0  0  0  0  0
    8.2551    1.4957    0.0000 H   0  0  0  0  0  0  0  0  0  0  0  0
    8.9496   -3.5909    0.0000 H   0  0  0  0  0  0  0  0  0  0  0  0
    6.1510    1.5863    0.0000 H   0  0  0  0  0  0  0  0  0  0  0  0
    5.2850    1.7234    0.0000 H   0  0  0  0  0  0  0  0  0  0  0  0
    5.1479    0.8574    0.0000 H   0  0  0  0  0  0  0  0  0  0  0  0
    5.2641   -0.2485    0.0000 H   0  0  0  0  0  0  0  0  0  0  0  0
    5.5783   -1.0671    0.0000 H   0  0  0  0  0  0  0  0  0  0  0  0
    6.3969   -0.7529    0.0000 H   0  0  0  0  0  0  0  0  0  0  0  0
    9.9442   -3.6954    0.0000 H   0  0  0  0  0  0  0  0  0  0  0  0
    6.8408    3.0887    0.0000 H   0  0  0  0  0  0  0  0  0  0  0  0
    8.1998    2.6916    0.0000 H   0  0  0  0  0  0  0  0  0  0  0  0
   11.0673   -1.7888    0.0000 H   0  0  0  0  0  0  0  0  0  0  0  0
   10.3391   -2.1130    0.0000 H   0  0  0  0  0  0  0  0  0  0  0  0
    6.2530    3.8977    0.0000 H   0  0  0  0  0  0  0  0  0  0  0  0
   10.3509   -4.6090    0.0000 H   0  0  0  0  0  0  0  0  0  0  0  0
    9.4251    3.9194    0.0000 H   0  0  0  0  0  0  0  0  0  0  0  0
    9.1109    4.7380    0.0000 H   0  0  0  0  0  0  0  0  0  0  0  0
    8.2923    4.4237    0.0000 H   0  0  0  0  0  0  0  0  0  0  0  0
    8.5382    2.0846    0.0000 H   0  0  0  0  0  0  0  0  0  0  0  0
    9.4042    1.9474    0.0000 H   0  0  0  0  0  0  0  0  0  0  0  0
    9.5413    2.8134    0.0000 H   0  0  0  0  0  0  0  0  0  0  0  0
    4.0611   -4.0976    0.0000 H   0  0  0  0  0  0  0  0  0  0  0  0
   11.8261   -3.1059    0.0000 H   0  0  0  0  0  0  0  0  0  0  0  0
   12.5075   -2.5541    0.0000 H   0  0  0  0  0  0  0  0  0  0  0  0
   11.9557   -1.8727    0.0000 H   0  0  0  0  0  0  0  0  0  0  0  0
    6.0010   -5.5976    0.0000 H   0  0  0  0  0  0  0  0  0  0  0  0
    3.1951   -7.2176    0.0000 H   0  0  0  0  0  0  0  0  0  0  0  0
    6.0010   -7.2176    0.0000 H   0  0  0  0  0  0  0  0  0  0  0  0
    7.7120    6.6634    0.0000 H   0  0  0  0  0  0  0  0  0  0  0  0
    4.5981   -8.0276    0.0000 H   0  0  0  0  0  0  0  0  0  0  0  0
    4.4897    6.3247    0.0000 H   0  0  0  0  0  0  0  0  0  0  0  0
    1.6900   -5.3707    0.0000 H   0  0  0  0  0  0  0  0  0  0  0  0
    1.4631   -6.2176    0.0000 H   0  0  0  0  0  0  0  0  0  0  0  0
    2.3100   -6.4446    0.0000 H   0  0  0  0  0  0  0  0  0  0  0  0
    5.1486    7.8047    0.0000 H   0  0  0  0  0  0  0  0  0  0  0  0
 18  1  1  1  0  0  0
  1 29  1  0  0  0  0
  2 20  2  0  0  0  0
  3 22  2  0  0  0  0
  4 27  2  0  0  0  0
  5 29  2  0  0  0  0
  6 32  2  0  0  0  0
  7 36  2  0  0  0  0
  8 38  1  0  0  0  0
  8 46  1  0  0  0  0
  9 16  1  0  0  0  0
  9 19  1  0  0  0  0
  9 20  1  0  0  0  0
 21 10  1  6  0  0  0
 10 27  1  0  0  0  0
 10 56  1  0  0  0  0
 11 22  1  0  0  0  0
 26 11  1  1  0  0  0
 11 57  1  0  0  0  0
 28 12  1  1  0  0  0
 12 36  1  0  0  0  0
 12 69  1  0  0  0  0
 13 29  1  0  0  0  0
 13 37  1  0  0  0  0
 13 77  1  0  0  0  0
 14 39  2  0  0  0  0
 14 45  1  0  0  0  0
 15 43  2  0  0  0  0
 15 47  1  0  0  0  0
 16 17  1  0  0  0  0
 16 22  1  6  0  0  0
 16 48  1  0  0  0  0
 17 18  1  0  0  0  0
 17 49  1  0  0  0  0
 17 50  1  0  0  0  0
 18 19  1  0  0  0  0
 18 51  1  0  0  0  0
 19 52  1  0  0  0  0
 19 53  1  0  0  0  0
 20 21  1  0  0  0  0
 21 23  1  0  0  0  0
 21 54  1  0  0  0  0
 23 24  1  0  0  0  0
 23 25  1  0  0  0  0
 23 55  1  0  0  0  0
 24 58  1  0  0  0  0
 24 59  1  0  0  0  0
 24 60  1  0  0  0  0
 25 61  1  0  0  0  0
 25 62  1  0  0  0  0
 25 63  1  0  0  0  0
 26 31  1  0  0  0  0
 26 32  1  0  0  0  0
 26 64  1  0  0  0  0
 27 28  1  0  0  0  0
 28 30  1  0  0  0  0
 28 65  1  0  0  0  0
 30 33  1  0  0  0  0
 30 34  1  0  0  0  0
 30 66  1  0  0  0  0
 31 35  1  0  0  0  0
 31 67  1  0  0  0  0
 31 68  1  0  0  0  0
 32 70  1  0  0  0  0
 33 71  1  0  0  0  0
 33 72  1  0  0  0  0
 33 73  1  0  0  0  0
 34 74  1  0  0  0  0
 34 75  1  0  0  0  0
 34 76  1  0  0  0  0
 35 78  1  0  0  0  0
 35 79  1  0  0  0  0
 35 80  1  0  0  0  0
 36 39  1  0  0  0  0
 37 38  1  0  0  0  0
 37 40  2  0  0  0  0
 38 41  2  0  0  0  0
 39 43  1  0  0  0  0
 40 42  1  0  0  0  0
 40 81  1  0  0  0  0
 41 44  1  0  0  0  0
 41 82  1  0  0  0  0
 42 44  2  0  0  0  0
 42 83  1  0  0  0  0
 43 84  1  0  0  0  0
 44 85  1  0  0  0  0
 45 47  2  0  0  0  0
 45 86  1  0  0  0  0
 46 87  1  0  0  0  0
 46 88  1  0  0  0  0
 46 89  1  0  0  0  0
 47 90  1  0  0  0  0
M  END
> <PUBCHEM_COMPOUND_CID>
506669
> <PUBCHEM_COMPOUND_CANONICALIZED>
1
> <PUBCHEM_CACTVS_COMPLEXITY>
1110
> <PUBCHEM_CACTVS_HBOND_ACCEPTOR>
10
> <PUBCHEM_CACTVS_HBOND_DONOR>
4
> <PUBCHEM_CACTVS_ROTATABLE_BOND>
15
> <PUBCHEM_CACTVS_SUBSKEYS>
AAADcfB/vAAAAAAAAAAAAAAAAAAAAWAAAAA8QAAAAAAAAAABwAAAHgAQAAAADTzhlgY+zpPIFACoAT133ACCiCQ3MiAI2IG/fMkOZnrE8budMKhm1hHY6Me6QQAIAAAAAAAAEAAAAAAAAAAgAAAAAAAAAA==
> <PUBCHEM_IUPAC_OPENEYE_NAME>
[(3R,5S)-5-[[(1S)-1-formylpropyl]carbamoyl]-1-[(2S)-3-methyl-2-[[(2S)-3-methyl-2-(pyrazine-2-carbonylamino)butanoyl]amino]butanoyl]pyrrolidin-3-yl] N-(2-methoxyphenyl)carbamate
> <PUBCHEM_IUPAC_CAS_NAME>
N-(2-methoxyphenyl)carbamic acid [(3R,5S)-1-[(2S)-3-methyl-2-[[(2S)-3-methyl-1-oxo-2-[[oxo(2-pyrazinyl)methyl]amino]butyl]amino]-1-oxobutyl]-5-[oxo-[[(2S)-1-oxobutan-2-yl]amino]methyl]-3-pyrrolidinyl] ester
> <PUBCHEM_IUPAC_NAME_MARKUP>
[(3<I>R</I>,5<I>S</I>)-1-[(2<I>S</I>)-3-methyl-2-[[(2<I>S</I>)-3-methyl-2-(pyrazine-2-carbonylamino)butanoyl]amino]butanoyl]-5-[[(2<I>S</I>)-1-oxobutan-2-yl]carbamoyl]pyrrolidin-3-yl] <I>N</I>-(2-methoxyphenyl)carbamate
> <PUBCHEM_IUPAC_NAME>
[(3R,5S)-1-[(2S)-3-methyl-2-[[(2S)-3-methyl-2-(pyrazine-2-carbonylamino)butanoyl]amino]butanoyl]-5-[[(2S)-1-oxobutan-2-yl]carbamoyl]pyrrolidin-3-yl] N-(2-methoxyphenyl)carbamate
> <PUBCHEM_IUPAC_SYSTEMATIC_NAME>
[(3R,5S)-1-[(2S)-3-methyl-2-[[(2S)-3-methyl-2-(pyrazin-2-ylcarbonylamino)butanoyl]amino]butanoyl]-5-[[(2S)-1-oxidanylidenebutan-2-yl]carbamoyl]pyrrolidin-3-yl] N-(2-methoxyphenyl)carbamate
> <PUBCHEM_IUPAC_TRADITIONAL_NAME>
N-(2-methoxyphenyl)carbamic acid [(3R,5S)-5-[[(1S)-1-formylpropyl]carbamoyl]-1-[(2S)-3-methyl-2-[[(2S)-3-methyl-2-(pyrazinoylamino)butanoyl]amino]butanoyl]pyrrolidin-3-yl] ester
> <PUBCHEM_IUPAC_INCHI>
InChI=1S/C32H43N7O8/c1-7-20(17-40)35-29(42)24-14-21(47-32(45)36-22-10-8-9-11-25(22)46-6)16-39(24)31(44)27(19(4)5)38-30(43)26(18(2)3)37-28(41)23-15-33-12-13-34-23/h8-13,15,17-21,24,26-27H,7,14,16H2,1-6H3,(H,35,42)(H,36,45)(H,37,41)(H,38,43)/t20-,21+,24-,26-,27-/m0/s1
> <PUBCHEM_IUPAC_INCHIKEY>
PGCHFYFSVIRBHQ-WRHIHAPESA-N
> <PUBCHEM_XLOGP3_AA>
2.3
> <PUBCHEM_EXACT_MASS>
653.31731136
> <PUBCHEM_MOLECULAR_FORMULA>
C32H43N7O8
> <PUBCHEM_MOLECULAR_WEIGHT>
653.7
> <PUBCHEM_OPENEYE_CAN_SMILES>
CCC(C=O)NC(=O)C1CC(CN1C(=O)C(C(C)C)NC(=O)C(C(C)C)NC(=O)C2=NC=CN=C2)OC(=O)NC3=CC=CC=C3OC
> <PUBCHEM_OPENEYE_ISO_SMILES>
CC[C@@H](C=O)NC(=O)[C@@H]1C[C@H](CN1C(=O)[C@H](C(C)C)NC(=O)[C@H](C(C)C)NC(=O)C2=NC=CN=C2)OC(=O)NC3=CC=CC=C3OC
> <PUBCHEM_CACTVS_TPSA>
198
> <PUBCHEM_MONOISOTOPIC_WEIGHT>
653.31731136
> <PUBCHEM_TOTAL_CHARGE>
0
> <PUBCHEM_HEAVY_ATOM_COUNT>
47
> <PUBCHEM_ATOM_DEF_STEREO_COUNT>
5
> <PUBCHEM_ATOM_UDEF_STEREO_COUNT>
0
> <PUBCHEM_BOND_DEF_STEREO_COUNT>
0
> <PUBCHEM_BOND_UDEF_STEREO_COUNT>
0
> <PUBCHEM_ISOTOPIC_ATOM_COUNT>
0
> <PUBCHEM_COMPONENT_COUNT>
1
> <PUBCHEM_CACTVS_TAUTO_COUNT>
-1
> <PUBCHEM_COORDINATE_TYPE>
1
5
255
> <PUBCHEM_BONDANNOTATIONS>
18  1  5
21  10  6
26  11  5
28  12  5
14  39  8
14  45  8
15  43  8
15  47  8
16  22  6
37  38  8
37  40  8
38  41  8
39  43  8
40  42  8
41  44  8
42  44  8
45  47  8
$$$$
