506653
  -OEChem-10302200282D
 84 86  0     1  0  0  0  0  0999 V2000
    3.6543   -4.4897    0.0000 Cl  0  0  0  0  0  0  0  0  0  0  0  0
    5.3864   -5.4897    0.0000 Cl  0  0  0  0  0  0  0  0  0  0  0  0
    6.2524   -0.9897    0.0000 O   0  0  0  0  0  0  0  0  0  0  0  0
    6.9334    3.2717    0.0000 O   0  0  0  0  0  0  0  0  0  0  0  0
    5.5714    3.2717    0.0000 O   0  0  0  0  0  0  0  0  0  0  0  0
   10.3238    2.0446    0.0000 O   0  0  0  0  0  0  0  0  0  0  0  0
    4.5204   -0.9897    0.0000 O   0  0  0  0  0  0  0  0  0  0  0  0
    2.0000    3.7671    0.0000 O   0  0  0  0  0  0  0  0  0  0  0  0
   11.6804    5.3852    0.0000 O   0  0  0  0  0  0  0  0  0  0  0  0
    6.7524    1.5491    0.0000 N   0  0  0  0  0  0  0  0  0  0  0  0
    8.9225    3.0626    0.0000 N   0  0  0  0  0  0  0  0  0  0  0  0
    4.1701    2.2536    0.0000 N   0  0  0  0  0  0  0  0  0  0  0  0
   11.4993    3.6626    0.0000 N   0  0  0  0  0  0  0  0  0  0  0  0
   13.4884    3.4536    0.0000 N   0  0  0  0  0  0  0  0  0  0  0  0
   14.6639    5.0716    0.0000 N   0  0  0  0  0  0  0  0  0  0  0  0
    5.7524    1.5491    0.0000 C   0  0  1  0  0  0  0  0  0  0  0  0
    5.4434    0.5981    0.0000 C   0  0  0  0  0  0  0  0  0  0  0  0
    6.2524    0.0103    0.0000 C   0  0  2  0  0  0  0  0  0  0  0  0
    7.0614    0.5981    0.0000 C   0  0  0  0  0  0  0  0  0  0  0  0
    7.3402    2.3582    0.0000 C   0  0  0  0  0  0  0  0  0  0  0  0
    8.3347    2.2536    0.0000 C   0  0  2  0  0  0  0  0  0  0  0  0
    5.1646    2.3582    0.0000 C   0  0  0  0  0  0  0  0  0  0  0  0
    8.7414    1.3401    0.0000 C   0  0  0  0  0  0  0  0  0  0  0  0
    9.7360    1.2356    0.0000 C   0  0  0  0  0  0  0  0  0  0  0  0
    8.1537    0.5311    0.0000 C   0  0  0  0  0  0  0  0  0  0  0  0
    3.5823    3.0626    0.0000 C   0  0  1  0  0  0  0  0  0  0  0  0
    9.9170    2.9581    0.0000 C   0  0  0  0  0  0  0  0  0  0  0  0
   10.5048    3.7671    0.0000 C   0  0  2  0  0  0  0  0  0  0  0  0
    5.3864   -1.4897    0.0000 C   0  0  0  0  0  0  0  0  0  0  0  0
   10.0981    4.6807    0.0000 C   0  0  0  0  0  0  0  0  0  0  0  0
    3.9890    3.9762    0.0000 C   0  0  0  0  0  0  0  0  0  0  0  0
    5.3864   -2.4897    0.0000 C   0  0  0  0  0  0  0  0  0  0  0  0
   10.6858    5.4897    0.0000 C   0  0  0  0  0  0  0  0  0  0  0  0
    9.1035    4.7852    0.0000 C   0  0  0  0  0  0  0  0  0  0  0  0
    2.5878    2.9581    0.0000 C   0  0  0  0  0  0  0  0  0  0  0  0
    3.4013    4.7852    0.0000 C   0  0  0  0  0  0  0  0  0  0  0  0
   12.0871    4.4716    0.0000 C   0  0  0  0  0  0  0  0  0  0  0  0
    4.5204   -2.9897    0.0000 C   0  0  0  0  0  0  0  0  0  0  0  0
    6.2524   -2.9897    0.0000 C   0  0  0  0  0  0  0  0  0  0  0  0
    4.5204   -3.9897    0.0000 C   0  0  0  0  0  0  0  0  0  0  0  0
    6.2524   -3.9897    0.0000 C   0  0  0  0  0  0  0  0  0  0  0  0
   13.0816    4.3671    0.0000 C   0  0  0  0  0  0  0  0  0  0  0  0
    5.3864   -4.4897    0.0000 C   0  0  0  0  0  0  0  0  0  0  0  0
   13.6694    5.1761    0.0000 C   0  0  0  0  0  0  0  0  0  0  0  0
   14.4829    3.3490    0.0000 C   0  0  0  0  0  0  0  0  0  0  0  0
   15.0707    4.1580    0.0000 C   0  0  0  0  0  0  0  0  0  0  0  0
    6.0339    2.1016    0.0000 H   0  0  0  0  0  0  0  0  0  0  0  0
    4.8770    0.8503    0.0000 H   0  0  0  0  0  0  0  0  0  0  0  0
    5.1334    0.0612    0.0000 H   0  0  0  0  0  0  0  0  0  0  0  0
    5.7000   -0.2712    0.0000 H   0  0  0  0  0  0  0  0  0  0  0  0
    7.3714    0.0612    0.0000 H   0  0  0  0  0  0  0  0  0  0  0  0
    7.6278    0.8503    0.0000 H   0  0  0  0  0  0  0  0  0  0  0  0
    8.0825    2.8200    0.0000 H   0  0  0  0  0  0  0  0  0  0  0  0
    9.1059    1.8417    0.0000 H   0  0  0  0  0  0  0  0  0  0  0  0
    8.6703    3.6290    0.0000 H   0  0  0  0  0  0  0  0  0  0  0  0
    3.9179    1.6872    0.0000 H   0  0  0  0  0  0  0  0  0  0  0  0
    9.6712    0.6190    0.0000 H   0  0  0  0  0  0  0  0  0  0  0  0
   10.3526    1.1708    0.0000 H   0  0  0  0  0  0  0  0  0  0  0  0
    9.8008    1.8522    0.0000 H   0  0  0  0  0  0  0  0  0  0  0  0
    7.6521    0.8955    0.0000 H   0  0  0  0  0  0  0  0  0  0  0  0
    7.7892    0.0295    0.0000 H   0  0  0  0  0  0  0  0  0  0  0  0
    8.6552    0.1666    0.0000 H   0  0  0  0  0  0  0  0  0  0  0  0
    3.3301    2.4962    0.0000 H   0  0  0  0  0  0  0  0  0  0  0  0
   10.7570    3.2007    0.0000 H   0  0  0  0  0  0  0  0  0  0  0  0
   10.7147    4.6159    0.0000 H   0  0  0  0  0  0  0  0  0  0  0  0
    4.5030    3.6295    0.0000 H   0  0  0  0  0  0  0  0  0  0  0  0
    4.4197    4.4222    0.0000 H   0  0  0  0  0  0  0  0  0  0  0  0
   11.7515    3.0962    0.0000 H   0  0  0  0  0  0  0  0  0  0  0  0
   11.1874    5.1253    0.0000 H   0  0  0  0  0  0  0  0  0  0  0  0
   11.0503    5.9913    0.0000 H   0  0  0  0  0  0  0  0  0  0  0  0
   10.1843    5.8541    0.0000 H   0  0  0  0  0  0  0  0  0  0  0  0
    9.1684    5.4018    0.0000 H   0  0  0  0  0  0  0  0  0  0  0  0
    8.4869    4.8500    0.0000 H   0  0  0  0  0  0  0  0  0  0  0  0
    9.0387    4.1686    0.0000 H   0  0  0  0  0  0  0  0  0  0  0  0
    2.3356    2.3917    0.0000 H   0  0  0  0  0  0  0  0  0  0  0  0
    3.9028    5.1496    0.0000 H   0  0  0  0  0  0  0  0  0  0  0  0
    3.0368    5.2868    0.0000 H   0  0  0  0  0  0  0  0  0  0  0  0
    2.8997    4.4208    0.0000 H   0  0  0  0  0  0  0  0  0  0  0  0
    3.9834   -2.6797    0.0000 H   0  0  0  0  0  0  0  0  0  0  0  0
    6.7893   -2.6797    0.0000 H   0  0  0  0  0  0  0  0  0  0  0  0
    6.7893   -4.2997    0.0000 H   0  0  0  0  0  0  0  0  0  0  0  0
   13.4172    5.7425    0.0000 H   0  0  0  0  0  0  0  0  0  0  0  0
   14.7351    2.7826    0.0000 H   0  0  0  0  0  0  0  0  0  0  0  0
   15.6873    4.0932    0.0000 H   0  0  0  0  0  0  0  0  0  0  0  0
  1 40  1  0  0  0  0
  2 43  1  0  0  0  0
 18  3  1  6  0  0  0
  3 29  1  0  0  0  0
  4 20  2  0  0  0  0
  5 22  2  0  0  0  0
  6 27  2  0  0  0  0
  7 29  2  0  0  0  0
  8 35  2  0  0  0  0
  9 37  2  0  0  0  0
 10 16  1  0  0  0  0
 10 19  1  0  0  0  0
 10 20  1  0  0  0  0
 21 11  1  1  0  0  0
 11 27  1  0  0  0  0
 11 55  1  0  0  0  0
 12 22  1  0  0  0  0
 26 12  1  6  0  0  0
 12 56  1  0  0  0  0
 28 13  1  6  0  0  0
 13 37  1  0  0  0  0
 13 68  1  0  0  0  0
 14 42  2  0  0  0  0
 14 45  1  0  0  0  0
 15 44  2  0  0  0  0
 15 46  1  0  0  0  0
 16 17  1  0  0  0  0
 16 22  1  1  0  0  0
 16 47  1  0  0  0  0
 17 18  1  0  0  0  0
 17 48  1  0  0  0  0
 17 49  1  0  0  0  0
 18 19  1  0  0  0  0
 18 50  1  0  0  0  0
 19 51  1  0  0  0  0
 19 52  1  0  0  0  0
 20 21  1  0  0  0  0
 21 23  1  0  0  0  0
 21 53  1  0  0  0  0
 23 24  1  0  0  0  0
 23 25  1  0  0  0  0
 23 54  1  0  0  0  0
 24 57  1  0  0  0  0
 24 58  1  0  0  0  0
 24 59  1  0  0  0  0
 25 60  1  0  0  0  0
 25 61  1  0  0  0  0
 25 62  1  0  0  0  0
 26 31  1  0  0  0  0
 26 35  1  0  0  0  0
 26 63  1  0  0  0  0
 27 28  1  0  0  0  0
 28 30  1  0  0  0  0
 28 64  1  0  0  0  0
 29 32  1  0  0  0  0
 30 33  1  0  0  0  0
 30 34  1  0  0  0  0
 30 65  1  0  0  0  0
 31 36  1  0  0  0  0
 31 66  1  0  0  0  0
 31 67  1  0  0  0  0
 32 38  2  0  0  0  0
 32 39  1  0  0  0  0
 33 69  1  0  0  0  0
 33 70  1  0  0  0  0
 33 71  1  0  0  0  0
 34 72  1  0  0  0  0
 34 73  1  0  0  0  0
 34 74  1  0  0  0  0
 35 75  1  0  0  0  0
 36 76  1  0  0  0  0
 36 77  1  0  0  0  0
 36 78  1  0  0  0  0
 37 42  1  0  0  0  0
 38 40  1  0  0  0  0
 38 79  1  0  0  0  0
 39 41  2  0  0  0  0
 39 80  1  0  0  0  0
 40 43  2  0  0  0  0
 41 43  1  0  0  0  0
 41 81  1  0  0  0  0
 42 44  1  0  0  0  0
 44 82  1  0  0  0  0
 45 46  2  0  0  0  0
 45 83  1  0  0  0  0
 46 84  1  0  0  0  0
M  END
> <PUBCHEM_COMPOUND_CID>
506653
> <PUBCHEM_COMPOUND_CANONICALIZED>
1
> <PUBCHEM_CACTVS_COMPLEXITY>
1110
> <PUBCHEM_CACTVS_HBOND_ACCEPTOR>
9
> <PUBCHEM_CACTVS_HBOND_DONOR>
3
> <PUBCHEM_CACTVS_ROTATABLE_BOND>
14
> <PUBCHEM_CACTVS_SUBSKEYS>
AAADcfB7uAAGAAAAAAAAAAAAAAAAAWAAAAA8QAAAAAAAAAABwAAAHgIQAAAADT7hniY+iJPIFACoAz333ACCgCQ3FyAI2sG4fsgKZnrB9ziXMYgm1gHYqce6ySCOBAAAIAAAAAQIAABAAAAACAAAAAAAAA==
> <PUBCHEM_IUPAC_OPENEYE_NAME>
[(3R,5S)-5-[[(1S)-1-formylpropyl]carbamoyl]-1-[(2S)-3-methyl-2-[[(2S)-3-methyl-2-(pyrazine-2-carbonylamino)butanoyl]amino]butanoyl]pyrrolidin-3-yl] 3,4-dichlorobenzoate
> <PUBCHEM_IUPAC_CAS_NAME>
3,4-dichlorobenzoic acid [(3R,5S)-1-[(2S)-3-methyl-2-[[(2S)-3-methyl-1-oxo-2-[[oxo(2-pyrazinyl)methyl]amino]butyl]amino]-1-oxobutyl]-5-[oxo-[[(2S)-1-oxobutan-2-yl]amino]methyl]-3-pyrrolidinyl] ester
> <PUBCHEM_IUPAC_NAME_MARKUP>
[(3<I>R</I>,5<I>S</I>)-1-[(2<I>S</I>)-3-methyl-2-[[(2<I>S</I>)-3-methyl-2-(pyrazine-2-carbonylamino)butanoyl]amino]butanoyl]-5-[[(2<I>S</I>)-1-oxobutan-2-yl]carbamoyl]pyrrolidin-3-yl] 3,4-dichlorobenzoate
> <PUBCHEM_IUPAC_NAME>
[(3R,5S)-1-[(2S)-3-methyl-2-[[(2S)-3-methyl-2-(pyrazine-2-carbonylamino)butanoyl]amino]butanoyl]-5-[[(2S)-1-oxobutan-2-yl]carbamoyl]pyrrolidin-3-yl] 3,4-dichlorobenzoate
> <PUBCHEM_IUPAC_SYSTEMATIC_NAME>
[(3R,5S)-1-[(2S)-3-methyl-2-[[(2S)-3-methyl-2-(pyrazin-2-ylcarbonylamino)butanoyl]amino]butanoyl]-5-[[(2S)-1-oxidanylidenebutan-2-yl]carbamoyl]pyrrolidin-3-yl] 3,4-bis(chloranyl)benzoate
> <PUBCHEM_IUPAC_TRADITIONAL_NAME>
3,4-dichlorobenzoic acid [(3R,5S)-5-[[(1S)-1-formylpropyl]carbamoyl]-1-[(2S)-3-methyl-2-[[(2S)-3-methyl-2-(pyrazinoylamino)butanoyl]amino]butanoyl]pyrrolidin-3-yl] ester
> <PUBCHEM_IUPAC_INCHI>
InChI=1S/C31H38Cl2N6O7/c1-6-19(15-40)36-28(42)24-12-20(46-31(45)18-7-8-21(32)22(33)11-18)14-39(24)30(44)26(17(4)5)38-29(43)25(16(2)3)37-27(41)23-13-34-9-10-35-23/h7-11,13,15-17,19-20,24-26H,6,12,14H2,1-5H3,(H,36,42)(H,37,41)(H,38,43)/t19-,20+,24-,25-,26-/m0/s1
> <PUBCHEM_IUPAC_INCHIKEY>
OGZLNVLPSPCQQP-ZBCVKJESSA-N
> <PUBCHEM_XLOGP3_AA>
3.8
> <PUBCHEM_EXACT_MASS>
676.2179030
> <PUBCHEM_MOLECULAR_FORMULA>
C31H38Cl2N6O7
> <PUBCHEM_MOLECULAR_WEIGHT>
677.6
> <PUBCHEM_OPENEYE_CAN_SMILES>
CCC(C=O)NC(=O)C1CC(CN1C(=O)C(C(C)C)NC(=O)C(C(C)C)NC(=O)C2=NC=CN=C2)OC(=O)C3=CC(=C(C=C3)Cl)Cl
> <PUBCHEM_OPENEYE_ISO_SMILES>
CC[C@@H](C=O)NC(=O)[C@@H]1C[C@H](CN1C(=O)[C@H](C(C)C)NC(=O)[C@H](C(C)C)NC(=O)C2=NC=CN=C2)OC(=O)C3=CC(=C(C=C3)Cl)Cl
> <PUBCHEM_CACTVS_TPSA>
177
> <PUBCHEM_MONOISOTOPIC_WEIGHT>
676.2179030
> <PUBCHEM_TOTAL_CHARGE>
0
> <PUBCHEM_HEAVY_ATOM_COUNT>
46
> <PUBCHEM_ATOM_DEF_STEREO_COUNT>
5
> <PUBCHEM_ATOM_UDEF_STEREO_COUNT>
0
> <PUBCHEM_BOND_DEF_STEREO_COUNT>
0
> <PUBCHEM_BOND_UDEF_STEREO_COUNT>
0
> <PUBCHEM_ISOTOPIC_ATOM_COUNT>
0
> <PUBCHEM_COMPONENT_COUNT>
1
> <PUBCHEM_CACTVS_TAUTO_COUNT>
-1
> <PUBCHEM_COORDINATE_TYPE>
1
5
255
> <PUBCHEM_BONDANNOTATIONS>
21  11  5
26  12  6
28  13  6
14  42  8
14  45  8
15  44  8
15  46  8
16  22  5
18  3  6
32  38  8
32  39  8
38  40  8
39  41  8
40  43  8
41  43  8
42  44  8
45  46  8
$$$$
