506651
  -OEChem-10302200282D
113117  0     1  0  0  0  0  0999 V2000
    8.9282    1.4076    0.0000 O   0  0  0  0  0  0  0  0  0  0  0  0
   12.2782   -1.3129    0.0000 O   0  0  0  0  0  0  0  0  0  0  0  0
   12.9592   -0.1333    0.0000 O   0  0  0  0  0  0  0  0  0  0  0  0
    9.5203   -3.6354    0.0000 O   0  0  0  0  0  0  0  0  0  0  0  0
   15.1739    2.7119    0.0000 O   0  0  0  0  0  0  0  0  0  0  0  0
    7.1962    5.4076    0.0000 O   0  0  0  0  0  0  0  0  0  0  0  0
    5.4641    4.4076    0.0000 O   0  0  0  0  0  0  0  0  0  0  0  0
   11.7350   -6.4806    0.0000 O   0  0  0  0  0  0  0  0  0  0  0  0
   10.8769   -0.2948    0.0000 N   0  0  0  0  0  0  0  0  0  0  0  0
   11.1026   -2.9309    0.0000 N   0  0  0  0  0  0  0  0  0  0  0  0
   12.7782    1.5893    0.0000 N   0  0  0  0  0  0  0  0  0  0  0  0
   10.3338   -5.4625    0.0000 N   0  0  0  0  0  0  0  0  0  0  0  0
    9.1582   -7.0805    0.0000 N   0  0  0  0  0  0  0  0  0  0  0  0
    9.9717   -8.9076    0.0000 N   0  0  0  0  0  0  0  0  0  0  0  0
   11.3769    0.5712    0.0000 C   0  0  1  0  0  0  0  0  0  0  0  0
    9.7942    0.9076    0.0000 C   0  0  2  0  0  0  0  0  0  0  0  0
   10.7078    1.3144    0.0000 C   0  0  0  0  0  0  0  0  0  0  0  0
    9.8988   -0.0869    0.0000 C   0  0  0  0  0  0  0  0  0  0  0  0
   11.2836   -1.2084    0.0000 C   0  0  0  0  0  0  0  0  0  0  0  0
   10.6959   -2.0174    0.0000 C   0  0  2  0  0  0  0  0  0  0  0  0
   12.3714    0.6757    0.0000 C   0  0  0  0  0  0  0  0  0  0  0  0
    9.7013   -1.9128    0.0000 C   0  0  0  0  0  0  0  0  0  0  0  0
    8.9282    2.4076    0.0000 C   0  0  0  0  0  0  0  0  0  0  0  0
    9.1136   -2.7219    0.0000 C   0  0  0  0  0  0  0  0  0  0  0  0
    9.2946   -0.9993    0.0000 C   0  0  0  0  0  0  0  0  0  0  0  0
   13.7727    1.6938    0.0000 C   0  0  1  0  0  0  0  0  0  0  0  0
   10.5148   -3.7399    0.0000 C   0  0  0  0  0  0  0  0  0  0  0  0
   10.9215   -4.6535    0.0000 C   0  0  2  0  0  0  0  0  0  0  0  0
    8.0622    2.9076    0.0000 C   0  0  0  0  0  0  0  0  0  0  0  0
   11.9161   -4.7580    0.0000 C   0  0  0  0  0  0  0  0  0  0  0  0
   14.3605    0.8848    0.0000 C   0  0  0  0  0  0  0  0  0  0  0  0
   14.1794    2.6074    0.0000 C   0  0  0  0  0  0  0  0  0  0  0  0
    8.0622    3.9076    0.0000 C   0  0  0  0  0  0  0  0  0  0  0  0
   12.3228   -5.6716    0.0000 C   0  0  0  0  0  0  0  0  0  0  0  0
   12.5039   -3.9490    0.0000 C   0  0  0  0  0  0  0  0  0  0  0  0
    7.1962    2.4076    0.0000 C   0  0  0  0  0  0  0  0  0  0  0  0
   15.3550    0.9893    0.0000 C   0  0  0  0  0  0  0  0  0  0  0  0
    7.1962    4.4076    0.0000 C   0  0  0  0  0  0  0  0  0  0  0  0
    6.3301    2.9076    0.0000 C   0  0  0  0  0  0  0  0  0  0  0  0
   10.7405   -6.3760    0.0000 C   0  0  0  0  0  0  0  0  0  0  0  0
    6.3301    3.9076    0.0000 C   0  0  0  0  0  0  0  0  0  0  0  0
   10.1527   -7.1851    0.0000 C   0  0  0  0  0  0  0  0  0  0  0  0
    8.0622    5.9076    0.0000 C   0  0  0  0  0  0  0  0  0  0  0  0
    4.5981    3.9076    0.0000 C   0  0  0  0  0  0  0  0  0  0  0  0
   10.5594   -8.0986    0.0000 C   0  0  0  0  0  0  0  0  0  0  0  0
    8.0622    6.9076    0.0000 C   0  0  0  0  0  0  0  0  0  0  0  0
    3.7320    4.4076    0.0000 C   0  0  0  0  0  0  0  0  0  0  0  0
    8.5704   -7.8896    0.0000 C   0  0  0  0  0  0  0  0  0  0  0  0
    8.9771   -8.8031    0.0000 C   0  0  0  0  0  0  0  0  0  0  0  0
    8.9282    7.4076    0.0000 C   0  0  0  0  0  0  0  0  0  0  0  0
    7.1962    7.4076    0.0000 C   0  0  0  0  0  0  0  0  0  0  0  0
    2.8660    3.9076    0.0000 C   0  0  0  0  0  0  0  0  0  0  0  0
    3.7320    5.4076    0.0000 C   0  0  0  0  0  0  0  0  0  0  0  0
    8.9282    8.4076    0.0000 C   0  0  0  0  0  0  0  0  0  0  0  0
    7.1962    8.4076    0.0000 C   0  0  0  0  0  0  0  0  0  0  0  0
    2.0000    4.4076    0.0000 C   0  0  0  0  0  0  0  0  0  0  0  0
    2.8660    5.9076    0.0000 C   0  0  0  0  0  0  0  0  0  0  0  0
    8.0622    8.9076    0.0000 C   0  0  0  0  0  0  0  0  0  0  0  0
    2.0000    5.4076    0.0000 C   0  0  0  0  0  0  0  0  0  0  0  0
   11.7146    0.0512    0.0000 H   0  0  0  0  0  0  0  0  0  0  0  0
    9.2742    0.5699    0.0000 H   0  0  0  0  0  0  0  0  0  0  0  0
   11.2094    1.6788    0.0000 H   0  0  0  0  0  0  0  0  0  0  0  0
   10.3978    1.8513    0.0000 H   0  0  0  0  0  0  0  0  0  0  0  0
    9.2788   -0.0869    0.0000 H   0  0  0  0  0  0  0  0  0  0  0  0
    9.8340   -0.7035    0.0000 H   0  0  0  0  0  0  0  0  0  0  0  0
   11.3125   -2.0822    0.0000 H   0  0  0  0  0  0  0  0  0  0  0  0
    9.0847   -1.8480    0.0000 H   0  0  0  0  0  0  0  0  0  0  0  0
   11.7192   -2.9957    0.0000 H   0  0  0  0  0  0  0  0  0  0  0  0
   12.4137    2.0909    0.0000 H   0  0  0  0  0  0  0  0  0  0  0  0
    9.5388    2.3000    0.0000 H   0  0  0  0  0  0  0  0  0  0  0  0
    9.1403    2.9902    0.0000 H   0  0  0  0  0  0  0  0  0  0  0  0
    8.6120   -2.3574    0.0000 H   0  0  0  0  0  0  0  0  0  0  0  0
    8.7491   -3.2234    0.0000 H   0  0  0  0  0  0  0  0  0  0  0  0
    9.6151   -3.0863    0.0000 H   0  0  0  0  0  0  0  0  0  0  0  0
    9.8610   -0.7471    0.0000 H   0  0  0  0  0  0  0  0  0  0  0  0
    9.0424   -0.4329    0.0000 H   0  0  0  0  0  0  0  0  0  0  0  0
    8.7282   -1.2515    0.0000 H   0  0  0  0  0  0  0  0  0  0  0  0
   13.5205    1.1274    0.0000 H   0  0  0  0  0  0  0  0  0  0  0  0
   10.3049   -4.5887    0.0000 H   0  0  0  0  0  0  0  0  0  0  0  0
   12.5327   -4.8228    0.0000 H   0  0  0  0  0  0  0  0  0  0  0  0
   13.8032    0.6130    0.0000 H   0  0  0  0  0  0  0  0  0  0  0  0
   14.5314    0.2888    0.0000 H   0  0  0  0  0  0  0  0  0  0  0  0
   13.8150    3.1090    0.0000 H   0  0  0  0  0  0  0  0  0  0  0  0
    9.7172   -5.3977    0.0000 H   0  0  0  0  0  0  0  0  0  0  0  0
    8.5991    4.2176    0.0000 H   0  0  0  0  0  0  0  0  0  0  0  0
   11.7564   -5.9237    0.0000 H   0  0  0  0  0  0  0  0  0  0  0  0
   12.5750   -6.2380    0.0000 H   0  0  0  0  0  0  0  0  0  0  0  0
   12.8892   -5.4194    0.0000 H   0  0  0  0  0  0  0  0  0  0  0  0
   13.0054   -4.3134    0.0000 H   0  0  0  0  0  0  0  0  0  0  0  0
   12.8683   -3.4474    0.0000 H   0  0  0  0  0  0  0  0  0  0  0  0
   12.0023   -3.5846    0.0000 H   0  0  0  0  0  0  0  0  0  0  0  0
    7.1962    1.7876    0.0000 H   0  0  0  0  0  0  0  0  0  0  0  0
   15.4198    0.3727    0.0000 H   0  0  0  0  0  0  0  0  0  0  0  0
   15.9716    1.0541    0.0000 H   0  0  0  0  0  0  0  0  0  0  0  0
   15.2902    1.6059    0.0000 H   0  0  0  0  0  0  0  0  0  0  0  0
    5.7932    2.5976    0.0000 H   0  0  0  0  0  0  0  0  0  0  0  0
    8.2742    5.3250    0.0000 H   0  0  0  0  0  0  0  0  0  0  0  0
    8.6728    6.0153    0.0000 H   0  0  0  0  0  0  0  0  0  0  0  0
    4.1996    3.4327    0.0000 H   0  0  0  0  0  0  0  0  0  0  0  0
    4.9966    3.4327    0.0000 H   0  0  0  0  0  0  0  0  0  0  0  0
   11.1761   -8.1634    0.0000 H   0  0  0  0  0  0  0  0  0  0  0  0
    7.9538   -7.8247    0.0000 H   0  0  0  0  0  0  0  0  0  0  0  0
    8.6127   -9.3047    0.0000 H   0  0  0  0  0  0  0  0  0  0  0  0
    9.4651    7.0976    0.0000 H   0  0  0  0  0  0  0  0  0  0  0  0
    6.6592    7.0976    0.0000 H   0  0  0  0  0  0  0  0  0  0  0  0
    2.8660    3.2876    0.0000 H   0  0  0  0  0  0  0  0  0  0  0  0
    4.2690    5.7176    0.0000 H   0  0  0  0  0  0  0  0  0  0  0  0
    9.4651    8.7176    0.0000 H   0  0  0  0  0  0  0  0  0  0  0  0
    6.6592    8.7176    0.0000 H   0  0  0  0  0  0  0  0  0  0  0  0
    1.4631    4.0976    0.0000 H   0  0  0  0  0  0  0  0  0  0  0  0
    2.8660    6.5276    0.0000 H   0  0  0  0  0  0  0  0  0  0  0  0
    8.0622    9.5276    0.0000 H   0  0  0  0  0  0  0  0  0  0  0  0
    1.4631    5.7176    0.0000 H   0  0  0  0  0  0  0  0  0  0  0  0
 16  1  1  6  0  0  0
  1 23  1  0  0  0  0
  2 19  2  0  0  0  0
  3 21  2  0  0  0  0
  4 27  2  0  0  0  0
  5 32  2  0  0  0  0
  6 38  1  0  0  0  0
  6 43  1  0  0  0  0
  7 41  1  0  0  0  0
  7 44  1  0  0  0  0
  8 40  2  0  0  0  0
  9 15  1  0  0  0  0
  9 18  1  0  0  0  0
  9 19  1  0  0  0  0
 20 10  1  1  0  0  0
 10 27  1  0  0  0  0
 10 68  1  0  0  0  0
 11 21  1  0  0  0  0
 26 11  1  6  0  0  0
 11 69  1  0  0  0  0
 28 12  1  6  0  0  0
 12 40  1  0  0  0  0
 12 84  1  0  0  0  0
 13 42  2  0  0  0  0
 13 48  1  0  0  0  0
 14 45  2  0  0  0  0
 14 49  1  0  0  0  0
 15 17  1  0  0  0  0
 15 21  1  1  0  0  0
 15 60  1  0  0  0  0
 16 17  1  0  0  0  0
 16 18  1  0  0  0  0
 16 61  1  0  0  0  0
 17 62  1  0  0  0  0
 17 63  1  0  0  0  0
 18 64  1  0  0  0  0
 18 65  1  0  0  0  0
 19 20  1  0  0  0  0
 20 22  1  0  0  0  0
 20 66  1  0  0  0  0
 22 24  1  0  0  0  0
 22 25  1  0  0  0  0
 22 67  1  0  0  0  0
 23 29  1  0  0  0  0
 23 70  1  0  0  0  0
 23 71  1  0  0  0  0
 24 72  1  0  0  0  0
 24 73  1  0  0  0  0
 24 74  1  0  0  0  0
 25 75  1  0  0  0  0
 25 76  1  0  0  0  0
 25 77  1  0  0  0  0
 26 31  1  0  0  0  0
 26 32  1  0  0  0  0
 26 78  1  0  0  0  0
 27 28  1  0  0  0  0
 28 30  1  0  0  0  0
 28 79  1  0  0  0  0
 29 33  2  0  0  0  0
 29 36  1  0  0  0  0
 30 34  1  0  0  0  0
 30 35  1  0  0  0  0
 30 80  1  0  0  0  0
 31 37  1  0  0  0  0
 31 81  1  0  0  0  0
 31 82  1  0  0  0  0
 32 83  1  0  0  0  0
 33 38  1  0  0  0  0
 33 85  1  0  0  0  0
 34 86  1  0  0  0  0
 34 87  1  0  0  0  0
 34 88  1  0  0  0  0
 35 89  1  0  0  0  0
 35 90  1  0  0  0  0
 35 91  1  0  0  0  0
 36 39  2  0  0  0  0
 36 92  1  0  0  0  0
 37 93  1  0  0  0  0
 37 94  1  0  0  0  0
 37 95  1  0  0  0  0
 38 41  2  0  0  0  0
 39 41  1  0  0  0  0
 39 96  1  0  0  0  0
 40 42  1  0  0  0  0
 42 45  1  0  0  0  0
 43 46  1  0  0  0  0
 43 97  1  0  0  0  0
 43 98  1  0  0  0  0
 44 47  1  0  0  0  0
 44 99  1  0  0  0  0
 44100  1  0  0  0  0
 45101  1  0  0  0  0
 46 50  2  0  0  0  0
 46 51  1  0  0  0  0
 47 52  2  0  0  0  0
 47 53  1  0  0  0  0
 48 49  2  0  0  0  0
 48102  1  0  0  0  0
 49103  1  0  0  0  0
 50 54  1  0  0  0  0
 50104  1  0  0  0  0
 51 55  2  0  0  0  0
 51105  1  0  0  0  0
 52 56  1  0  0  0  0
 52106  1  0  0  0  0
 53 57  2  0  0  0  0
 53107  1  0  0  0  0
 54 58  2  0  0  0  0
 54108  1  0  0  0  0
 55 58  1  0  0  0  0
 55109  1  0  0  0  0
 56 59  2  0  0  0  0
 56110  1  0  0  0  0
 57 59  1  0  0  0  0
 57111  1  0  0  0  0
 58112  1  0  0  0  0
 59113  1  0  0  0  0
M  END
> <PUBCHEM_COMPOUND_CID>
506651
> <PUBCHEM_COMPOUND_CANONICALIZED>
1
> <PUBCHEM_CACTVS_COMPLEXITY>
1340
> <PUBCHEM_CACTVS_HBOND_ACCEPTOR>
10
> <PUBCHEM_CACTVS_HBOND_DONOR>
3
> <PUBCHEM_CACTVS_ROTATABLE_BOND>
20
> <PUBCHEM_CACTVS_SUBSKEYS>
AAADcfB/vAAAAAAAAAAAAAAAAAAAAWAAAAA8YMEAAAAAAAAB1AAAHgAQAAAADTzhngY+hpPIFACoAz131ACCiCQ3MiAI2IG+/MgPZnrE8TqXOKqm1hHaqMf64TwOIAABAAAAQABAAAIAAACAAAAAAAAAAA==
> <PUBCHEM_IUPAC_OPENEYE_NAME>
N-[(1S)-1-[[(1S)-1-[(2S,4R)-4-[(3,4-dibenzyloxyphenyl)methoxy]-2-[[(1S)-1-formylpropyl]carbamoyl]pyrrolidine-1-carbonyl]-2-methyl-propyl]carbamoyl]-2-methyl-propyl]pyrazine-2-carboxamide
> <PUBCHEM_IUPAC_CAS_NAME>
N-[(2S)-1-[[(2S)-1-[(2S,4R)-4-[[3,4-bis(phenylmethoxy)phenyl]methoxy]-2-[oxo-[[(2S)-1-oxobutan-2-yl]amino]methyl]-1-pyrrolidinyl]-3-methyl-1-oxobutan-2-yl]amino]-3-methyl-1-oxobutan-2-yl]-2-pyrazinecarboxamide
> <PUBCHEM_IUPAC_NAME_MARKUP>
<I>N</I>-[(2<I>S</I>)-1-[[(2<I>S</I>)-1-[(2<I>S</I>,4<I>R</I>)-4-[[3,4-bis(phenylmethoxy)phenyl]methoxy]-2-[[(2<I>S</I>)-1-oxobutan-2-yl]carbamoyl]pyrrolidin-1-yl]-3-methyl-1-oxobutan-2-yl]amino]-3-methyl-1-oxobutan-2-yl]pyrazine-2-carboxamide
> <PUBCHEM_IUPAC_NAME>
N-[(2S)-1-[[(2S)-1-[(2S,4R)-4-[[3,4-bis(phenylmethoxy)phenyl]methoxy]-2-[[(2S)-1-oxobutan-2-yl]carbamoyl]pyrrolidin-1-yl]-3-methyl-1-oxobutan-2-yl]amino]-3-methyl-1-oxobutan-2-yl]pyrazine-2-carboxamide
> <PUBCHEM_IUPAC_SYSTEMATIC_NAME>
N-[(2S)-1-[[(2S)-1-[(2S,4R)-4-[[3,4-bis(phenylmethoxy)phenyl]methoxy]-2-[[(2S)-1-oxidanylidenebutan-2-yl]carbamoyl]pyrrolidin-1-yl]-3-methyl-1-oxidanylidene-butan-2-yl]amino]-3-methyl-1-oxidanylidene-butan-2-yl]pyrazine-2-carboxamide
> <PUBCHEM_IUPAC_TRADITIONAL_NAME>
N-[(1S)-1-[[(1S)-1-[(2S,4R)-4-(3,4-dibenzoxybenzyl)oxy-2-[[(1S)-1-formylpropyl]carbamoyl]pyrrolidine-1-carbonyl]-2-methyl-propyl]carbamoyl]-2-methyl-propyl]pyrazinamide
> <PUBCHEM_IUPAC_INCHI>
InChI=1S/C45H54N6O8/c1-6-34(25-52)48-43(54)37-22-35(24-51(37)45(56)41(30(4)5)50-44(55)40(29(2)3)49-42(53)36-23-46-19-20-47-36)57-28-33-17-18-38(58-26-31-13-9-7-10-14-31)39(21-33)59-27-32-15-11-8-12-16-32/h7-21,23,25,29-30,34-35,37,40-41H,6,22,24,26-28H2,1-5H3,(H,48,54)(H,49,53)(H,50,55)/t34-,35+,37-,40-,41-/m0/s1
> <PUBCHEM_IUPAC_INCHIKEY>
AUCJSHWHUAHYLZ-VMQJGNHBSA-N
> <PUBCHEM_XLOGP3_AA>
5.3
> <PUBCHEM_EXACT_MASS>
806.40031270
> <PUBCHEM_MOLECULAR_FORMULA>
C45H54N6O8
> <PUBCHEM_MOLECULAR_WEIGHT>
806.9
> <PUBCHEM_OPENEYE_CAN_SMILES>
CCC(C=O)NC(=O)C1CC(CN1C(=O)C(C(C)C)NC(=O)C(C(C)C)NC(=O)C2=NC=CN=C2)OCC3=CC(=C(C=C3)OCC4=CC=CC=C4)OCC5=CC=CC=C5
> <PUBCHEM_OPENEYE_ISO_SMILES>
CC[C@@H](C=O)NC(=O)[C@@H]1C[C@H](CN1C(=O)[C@H](C(C)C)NC(=O)[C@H](C(C)C)NC(=O)C2=NC=CN=C2)OCC3=CC(=C(C=C3)OCC4=CC=CC=C4)OCC5=CC=CC=C5
> <PUBCHEM_CACTVS_TPSA>
178
> <PUBCHEM_MONOISOTOPIC_WEIGHT>
806.40031270
> <PUBCHEM_TOTAL_CHARGE>
0
> <PUBCHEM_HEAVY_ATOM_COUNT>
59
> <PUBCHEM_ATOM_DEF_STEREO_COUNT>
5
> <PUBCHEM_ATOM_UDEF_STEREO_COUNT>
0
> <PUBCHEM_BOND_DEF_STEREO_COUNT>
0
> <PUBCHEM_BOND_UDEF_STEREO_COUNT>
0
> <PUBCHEM_ISOTOPIC_ATOM_COUNT>
0
> <PUBCHEM_COMPONENT_COUNT>
1
> <PUBCHEM_CACTVS_TAUTO_COUNT>
-1
> <PUBCHEM_COORDINATE_TYPE>
1
5
255
> <PUBCHEM_BONDANNOTATIONS>
16  1  6
20  10  5
26  11  6
28  12  6
13  42  8
13  48  8
14  45  8
14  49  8
15  21  5
29  33  8
29  36  8
33  38  8
36  39  8
38  41  8
39  41  8
42  45  8
46  50  8
46  51  8
47  52  8
47  53  8
48  49  8
50  54  8
51  55  8
52  56  8
53  57  8
54  58  8
55  58  8
56  59  8
57  59  8
$$$$
