506643
  -OEChem-10302200282D
 88 90  0     1  0  0  0  0  0999 V2000
   12.6843    4.9897    0.0000 F   0  0  0  0  0  0  0  0  0  0  0  0
   11.6843    5.9897    0.0000 F   0  0  0  0  0  0  0  0  0  0  0  0
   10.6843    4.9897    0.0000 F   0  0  0  0  0  0  0  0  0  0  0  0
   10.8183    0.4897    0.0000 O   0  0  0  0  0  0  0  0  0  0  0  0
   10.1372   -3.7717    0.0000 O   0  0  0  0  0  0  0  0  0  0  0  0
   11.4993   -3.7717    0.0000 O   0  0  0  0  0  0  0  0  0  0  0  0
    6.7469   -2.5446    0.0000 O   0  0  0  0  0  0  0  0  0  0  0  0
   15.0707   -4.2671    0.0000 O   0  0  0  0  0  0  0  0  0  0  0  0
    5.3903   -5.8852    0.0000 O   0  0  0  0  0  0  0  0  0  0  0  0
   10.3183   -2.0491    0.0000 N   0  0  0  0  0  0  0  0  0  0  0  0
    8.1482   -3.5626    0.0000 N   0  0  0  0  0  0  0  0  0  0  0  0
   12.9006   -2.7536    0.0000 N   0  0  0  0  0  0  0  0  0  0  0  0
    5.5714   -4.1626    0.0000 N   0  0  0  0  0  0  0  0  0  0  0  0
    3.5823   -3.9536    0.0000 N   0  0  0  0  0  0  0  0  0  0  0  0
    2.4067   -5.5716    0.0000 N   0  0  0  0  0  0  0  0  0  0  0  0
   11.3183   -2.0491    0.0000 C   0  0  1  0  0  0  0  0  0  0  0  0
   10.8183   -0.5103    0.0000 C   0  0  2  0  0  0  0  0  0  0  0  0
   11.6273   -1.0981    0.0000 C   0  0  0  0  0  0  0  0  0  0  0  0
   10.0093   -1.0981    0.0000 C   0  0  0  0  0  0  0  0  0  0  0  0
    9.7305   -2.8582    0.0000 C   0  0  0  0  0  0  0  0  0  0  0  0
    8.7360   -2.7536    0.0000 C   0  0  2  0  0  0  0  0  0  0  0  0
   11.9061   -2.8582    0.0000 C   0  0  0  0  0  0  0  0  0  0  0  0
    8.3292   -1.8401    0.0000 C   0  0  0  0  0  0  0  0  0  0  0  0
   11.6843    0.9897    0.0000 C   0  0  0  0  0  0  0  0  0  0  0  0
    7.3347   -1.7356    0.0000 C   0  0  0  0  0  0  0  0  0  0  0  0
    8.9170   -1.0311    0.0000 C   0  0  0  0  0  0  0  0  0  0  0  0
   13.4884   -3.5626    0.0000 C   0  0  1  0  0  0  0  0  0  0  0  0
    7.1537   -3.4581    0.0000 C   0  0  0  0  0  0  0  0  0  0  0  0
    6.5659   -4.2671    0.0000 C   0  0  2  0  0  0  0  0  0  0  0  0
    6.9726   -5.1807    0.0000 C   0  0  0  0  0  0  0  0  0  0  0  0
   11.6843    1.9897    0.0000 C   0  0  0  0  0  0  0  0  0  0  0  0
   13.0816   -4.4762    0.0000 C   0  0  0  0  0  0  0  0  0  0  0  0
   14.4829   -3.4581    0.0000 C   0  0  0  0  0  0  0  0  0  0  0  0
    6.3848   -5.9897    0.0000 C   0  0  0  0  0  0  0  0  0  0  0  0
    7.9671   -5.2852    0.0000 C   0  0  0  0  0  0  0  0  0  0  0  0
   10.8183    2.4897    0.0000 C   0  0  0  0  0  0  0  0  0  0  0  0
   12.5503    2.4897    0.0000 C   0  0  0  0  0  0  0  0  0  0  0  0
   13.6694   -5.2852    0.0000 C   0  0  0  0  0  0  0  0  0  0  0  0
    4.9836   -4.9716    0.0000 C   0  0  0  0  0  0  0  0  0  0  0  0
   10.8183    3.4897    0.0000 C   0  0  0  0  0  0  0  0  0  0  0  0
   12.5503    3.4897    0.0000 C   0  0  0  0  0  0  0  0  0  0  0  0
   11.6843    3.9897    0.0000 C   0  0  0  0  0  0  0  0  0  0  0  0
    3.9890   -4.8671    0.0000 C   0  0  0  0  0  0  0  0  0  0  0  0
   11.6843    4.9897    0.0000 C   0  0  0  0  0  0  0  0  0  0  0  0
    3.4013   -5.6761    0.0000 C   0  0  0  0  0  0  0  0  0  0  0  0
    2.5878   -3.8490    0.0000 C   0  0  0  0  0  0  0  0  0  0  0  0
    2.0000   -4.6580    0.0000 C   0  0  0  0  0  0  0  0  0  0  0  0
   11.0368   -2.6016    0.0000 H   0  0  0  0  0  0  0  0  0  0  0  0
   11.3707   -0.2288    0.0000 H   0  0  0  0  0  0  0  0  0  0  0  0
   12.1937   -1.3503    0.0000 H   0  0  0  0  0  0  0  0  0  0  0  0
   11.9373   -0.5612    0.0000 H   0  0  0  0  0  0  0  0  0  0  0  0
    9.6992   -0.5612    0.0000 H   0  0  0  0  0  0  0  0  0  0  0  0
    9.4429   -1.3503    0.0000 H   0  0  0  0  0  0  0  0  0  0  0  0
    8.1194   -2.6888    0.0000 H   0  0  0  0  0  0  0  0  0  0  0  0
    8.0770   -1.2737    0.0000 H   0  0  0  0  0  0  0  0  0  0  0  0
    8.4004   -4.1290    0.0000 H   0  0  0  0  0  0  0  0  0  0  0  0
   13.1528   -2.1872    0.0000 H   0  0  0  0  0  0  0  0  0  0  0  0
   11.8963    0.4071    0.0000 H   0  0  0  0  0  0  0  0  0  0  0  0
   12.2949    1.0974    0.0000 H   0  0  0  0  0  0  0  0  0  0  0  0
    7.3995   -1.1189    0.0000 H   0  0  0  0  0  0  0  0  0  0  0  0
    6.7181   -1.6708    0.0000 H   0  0  0  0  0  0  0  0  0  0  0  0
    7.2699   -2.3522    0.0000 H   0  0  0  0  0  0  0  0  0  0  0  0
    9.4186   -1.3955    0.0000 H   0  0  0  0  0  0  0  0  0  0  0  0
    9.2814   -0.5295    0.0000 H   0  0  0  0  0  0  0  0  0  0  0  0
    8.4154   -0.6666    0.0000 H   0  0  0  0  0  0  0  0  0  0  0  0
   13.7405   -2.9962    0.0000 H   0  0  0  0  0  0  0  0  0  0  0  0
    6.2014   -4.7687    0.0000 H   0  0  0  0  0  0  0  0  0  0  0  0
    7.3370   -4.6791    0.0000 H   0  0  0  0  0  0  0  0  0  0  0  0
   12.5676   -4.1295    0.0000 H   0  0  0  0  0  0  0  0  0  0  0  0
   12.6509   -4.9222    0.0000 H   0  0  0  0  0  0  0  0  0  0  0  0
    5.3192   -3.5962    0.0000 H   0  0  0  0  0  0  0  0  0  0  0  0
   14.7351   -2.8917    0.0000 H   0  0  0  0  0  0  0  0  0  0  0  0
    5.8832   -5.6253    0.0000 H   0  0  0  0  0  0  0  0  0  0  0  0
    6.0204   -6.4913    0.0000 H   0  0  0  0  0  0  0  0  0  0  0  0
    6.8864   -6.3541    0.0000 H   0  0  0  0  0  0  0  0  0  0  0  0
    7.9023   -5.9018    0.0000 H   0  0  0  0  0  0  0  0  0  0  0  0
    8.5837   -5.3500    0.0000 H   0  0  0  0  0  0  0  0  0  0  0  0
    8.0319   -4.6686    0.0000 H   0  0  0  0  0  0  0  0  0  0  0  0
   10.2813    2.1797    0.0000 H   0  0  0  0  0  0  0  0  0  0  0  0
   13.0873    2.1797    0.0000 H   0  0  0  0  0  0  0  0  0  0  0  0
   13.1678   -5.6496    0.0000 H   0  0  0  0  0  0  0  0  0  0  0  0
   14.0338   -5.7868    0.0000 H   0  0  0  0  0  0  0  0  0  0  0  0
   14.1710   -4.9208    0.0000 H   0  0  0  0  0  0  0  0  0  0  0  0
   10.2813    3.7997    0.0000 H   0  0  0  0  0  0  0  0  0  0  0  0
   13.0873    3.7997    0.0000 H   0  0  0  0  0  0  0  0  0  0  0  0
    3.6534   -6.2425    0.0000 H   0  0  0  0  0  0  0  0  0  0  0  0
    2.3356   -3.2826    0.0000 H   0  0  0  0  0  0  0  0  0  0  0  0
    1.3834   -4.5932    0.0000 H   0  0  0  0  0  0  0  0  0  0  0  0
  1 44  1  0  0  0  0
  2 44  1  0  0  0  0
  3 44  1  0  0  0  0
 17  4  1  6  0  0  0
  4 24  1  0  0  0  0
  5 20  2  0  0  0  0
  6 22  2  0  0  0  0
  7 28  2  0  0  0  0
  8 33  2  0  0  0  0
  9 39  2  0  0  0  0
 10 16  1  0  0  0  0
 10 19  1  0  0  0  0
 10 20  1  0  0  0  0
 21 11  1  1  0  0  0
 11 28  1  0  0  0  0
 11 56  1  0  0  0  0
 12 22  1  0  0  0  0
 27 12  1  6  0  0  0
 12 57  1  0  0  0  0
 29 13  1  6  0  0  0
 13 39  1  0  0  0  0
 13 71  1  0  0  0  0
 14 43  2  0  0  0  0
 14 46  1  0  0  0  0
 15 45  2  0  0  0  0
 15 47  1  0  0  0  0
 16 18  1  0  0  0  0
 16 22  1  1  0  0  0
 16 48  1  0  0  0  0
 17 18  1  0  0  0  0
 17 19  1  0  0  0  0
 17 49  1  0  0  0  0
 18 50  1  0  0  0  0
 18 51  1  0  0  0  0
 19 52  1  0  0  0  0
 19 53  1  0  0  0  0
 20 21  1  0  0  0  0
 21 23  1  0  0  0  0
 21 54  1  0  0  0  0
 23 25  1  0  0  0  0
 23 26  1  0  0  0  0
 23 55  1  0  0  0  0
 24 31  1  0  0  0  0
 24 58  1  0  0  0  0
 24 59  1  0  0  0  0
 25 60  1  0  0  0  0
 25 61  1  0  0  0  0
 25 62  1  0  0  0  0
 26 63  1  0  0  0  0
 26 64  1  0  0  0  0
 26 65  1  0  0  0  0
 27 32  1  0  0  0  0
 27 33  1  0  0  0  0
 27 66  1  0  0  0  0
 28 29  1  0  0  0  0
 29 30  1  0  0  0  0
 29 67  1  0  0  0  0
 30 34  1  0  0  0  0
 30 35  1  0  0  0  0
 30 68  1  0  0  0  0
 31 36  2  0  0  0  0
 31 37  1  0  0  0  0
 32 38  1  0  0  0  0
 32 69  1  0  0  0  0
 32 70  1  0  0  0  0
 33 72  1  0  0  0  0
 34 73  1  0  0  0  0
 34 74  1  0  0  0  0
 34 75  1  0  0  0  0
 35 76  1  0  0  0  0
 35 77  1  0  0  0  0
 35 78  1  0  0  0  0
 36 40  1  0  0  0  0
 36 79  1  0  0  0  0
 37 41  2  0  0  0  0
 37 80  1  0  0  0  0
 38 81  1  0  0  0  0
 38 82  1  0  0  0  0
 38 83  1  0  0  0  0
 39 43  1  0  0  0  0
 40 42  2  0  0  0  0
 40 84  1  0  0  0  0
 41 42  1  0  0  0  0
 41 85  1  0  0  0  0
 42 44  1  0  0  0  0
 43 45  1  0  0  0  0
 45 86  1  0  0  0  0
 46 47  2  0  0  0  0
 46 87  1  0  0  0  0
 47 88  1  0  0  0  0
M  END
> <PUBCHEM_COMPOUND_CID>
506643
> <PUBCHEM_COMPOUND_CANONICALIZED>
1
> <PUBCHEM_CACTVS_COMPLEXITY>
1080
> <PUBCHEM_CACTVS_HBOND_ACCEPTOR>
11
> <PUBCHEM_CACTVS_HBOND_DONOR>
3
> <PUBCHEM_CACTVS_ROTATABLE_BOND>
14
> <PUBCHEM_CACTVS_SUBSKEYS>
AAADcfB/uYAAAAAAAAAAAAAAAAAAAWAAAAA8QAAAAAAAAAABwAAAHwAQAAAADTzhnhY+gJPIFACoAz131ACCgCQ3EiAI2IG4fMgKZnrA8TiXMIgm1gHYqMe6wTAOQAAAAAAAAACAAAAAAAAAAAAAAAAAAA==
> <PUBCHEM_IUPAC_OPENEYE_NAME>
N-[(1S)-1-[[(1S)-1-[(2S,4R)-2-[[(1S)-1-formylpropyl]carbamoyl]-4-[[4-(trifluoromethyl)phenyl]methoxy]pyrrolidine-1-carbonyl]-2-methyl-propyl]carbamoyl]-2-methyl-propyl]pyrazine-2-carboxamide
> <PUBCHEM_IUPAC_CAS_NAME>
N-[(2S)-3-methyl-1-[[(2S)-3-methyl-1-oxo-1-[(2S,4R)-2-[oxo-[[(2S)-1-oxobutan-2-yl]amino]methyl]-4-[[4-(trifluoromethyl)phenyl]methoxy]-1-pyrrolidinyl]butan-2-yl]amino]-1-oxobutan-2-yl]-2-pyrazinecarboxamide
> <PUBCHEM_IUPAC_NAME_MARKUP>
<I>N</I>-[(2<I>S</I>)-3-methyl-1-[[(2<I>S</I>)-3-methyl-1-oxo-1-[(2<I>S</I>,4<I>R</I>)-2-[[(2<I>S</I>)-1-oxobutan-2-yl]carbamoyl]-4-[[4-(trifluoromethyl)phenyl]methoxy]pyrrolidin-1-yl]butan-2-yl]amino]-1-oxobutan-2-yl]pyrazine-2-carboxamide
> <PUBCHEM_IUPAC_NAME>
N-[(2S)-3-methyl-1-[[(2S)-3-methyl-1-oxo-1-[(2S,4R)-2-[[(2S)-1-oxobutan-2-yl]carbamoyl]-4-[[4-(trifluoromethyl)phenyl]methoxy]pyrrolidin-1-yl]butan-2-yl]amino]-1-oxobutan-2-yl]pyrazine-2-carboxamide
> <PUBCHEM_IUPAC_SYSTEMATIC_NAME>
N-[(2S)-3-methyl-1-[[(2S)-3-methyl-1-oxidanylidene-1-[(2S,4R)-2-[[(2S)-1-oxidanylidenebutan-2-yl]carbamoyl]-4-[[4-(trifluoromethyl)phenyl]methoxy]pyrrolidin-1-yl]butan-2-yl]amino]-1-oxidanylidene-butan-2-yl]pyrazine-2-carboxamide
> <PUBCHEM_IUPAC_TRADITIONAL_NAME>
N-[(1S)-1-[[(1S)-1-[(2S,4R)-2-[[(1S)-1-formylpropyl]carbamoyl]-4-[4-(trifluoromethyl)benzyl]oxy-pyrrolidine-1-carbonyl]-2-methyl-propyl]carbamoyl]-2-methyl-propyl]pyrazinamide
> <PUBCHEM_IUPAC_INCHI>
InChI=1S/C32H41F3N6O6/c1-6-22(16-42)38-29(44)25-13-23(47-17-20-7-9-21(10-8-20)32(33,34)35)15-41(25)31(46)27(19(4)5)40-30(45)26(18(2)3)39-28(43)24-14-36-11-12-37-24/h7-12,14,16,18-19,22-23,25-27H,6,13,15,17H2,1-5H3,(H,38,44)(H,39,43)(H,40,45)/t22-,23+,25-,26-,27-/m0/s1
> <PUBCHEM_IUPAC_INCHIKEY>
ZXHXZYACOZRYGO-BILQSEOESA-N
> <PUBCHEM_XLOGP3_AA>
3.3
> <PUBCHEM_EXACT_MASS>
662.30396754
> <PUBCHEM_MOLECULAR_FORMULA>
C32H41F3N6O6
> <PUBCHEM_MOLECULAR_WEIGHT>
662.7
> <PUBCHEM_OPENEYE_CAN_SMILES>
CCC(C=O)NC(=O)C1CC(CN1C(=O)C(C(C)C)NC(=O)C(C(C)C)NC(=O)C2=NC=CN=C2)OCC3=CC=C(C=C3)C(F)(F)F
> <PUBCHEM_OPENEYE_ISO_SMILES>
CC[C@@H](C=O)NC(=O)[C@@H]1C[C@H](CN1C(=O)[C@H](C(C)C)NC(=O)[C@H](C(C)C)NC(=O)C2=NC=CN=C2)OCC3=CC=C(C=C3)C(F)(F)F
> <PUBCHEM_CACTVS_TPSA>
160
> <PUBCHEM_MONOISOTOPIC_WEIGHT>
662.30396754
> <PUBCHEM_TOTAL_CHARGE>
0
> <PUBCHEM_HEAVY_ATOM_COUNT>
47
> <PUBCHEM_ATOM_DEF_STEREO_COUNT>
5
> <PUBCHEM_ATOM_UDEF_STEREO_COUNT>
0
> <PUBCHEM_BOND_DEF_STEREO_COUNT>
0
> <PUBCHEM_BOND_UDEF_STEREO_COUNT>
0
> <PUBCHEM_ISOTOPIC_ATOM_COUNT>
0
> <PUBCHEM_COMPONENT_COUNT>
1
> <PUBCHEM_CACTVS_TAUTO_COUNT>
-1
> <PUBCHEM_COORDINATE_TYPE>
1
5
255
> <PUBCHEM_BONDANNOTATIONS>
21  11  5
27  12  6
29  13  6
14  43  8
14  46  8
15  45  8
15  47  8
16  22  5
31  36  8
31  37  8
36  40  8
37  41  8
17  4  6
40  42  8
41  42  8
43  45  8
46  47  8
$$$$
