506631
  -OEChem-10302200282D
 92 95  0     1  0  0  0  0  0999 V2000
    5.0261    0.6104    0.0000 O   0  0  0  0  0  0  0  0  0  0  0  0
    7.3816   -3.0056    0.0000 O   0  0  0  0  0  0  0  0  0  0  0  0
    6.1372   -3.5596    0.0000 O   0  0  0  0  0  0  0  0  0  0  0  0
    9.9796   -0.5056    0.0000 O   0  0  0  0  0  0  0  0  0  0  0  0
    2.5422    2.8309    0.0000 O   0  0  0  0  0  0  0  0  0  0  0  0
    3.0762   -5.4648    0.0000 O   0  0  0  0  0  0  0  0  0  0  0  0
   12.5777   -3.0056    0.0000 O   0  0  0  0  0  0  0  0  0  0  0  0
    3.4945    5.8249    0.0000 O   0  0  0  0  0  0  0  0  0  0  0  0
    6.5155   -1.5056    0.0000 N   0  0  0  0  0  0  0  0  0  0  0  0
    9.1136   -2.0056    0.0000 N   0  0  0  0  0  0  0  0  0  0  0  0
    4.4430   -3.1995    0.0000 N   0  0  0  0  0  0  0  0  0  0  0  0
   11.7117   -1.5056    0.0000 N   0  0  0  0  0  0  0  0  0  0  0  0
    4.1249    2.4945    0.0000 N   0  0  0  0  0  0  0  0  0  0  0  0
    2.6467    1.8364    0.0000 N   0  0  0  0  0  0  0  0  0  0  0  0
   14.3098   -2.0056    0.0000 N   0  0  0  0  0  0  0  0  0  0  0  0
    4.4727    5.6170    0.0000 N   0  0  0  0  0  0  0  0  0  0  0  0
   14.3098   -0.0056    0.0000 N   0  0  0  0  0  0  0  0  0  0  0  0
    5.6020   -1.9123    0.0000 C   0  0  1  0  0  0  0  0  0  0  0  0
    5.4329   -0.3032    0.0000 C   0  0  2  0  0  0  0  0  0  0  0  0
    4.9329   -1.1692    0.0000 C   0  0  0  0  0  0  0  0  0  0  0  0
    6.4110   -0.5111    0.0000 C   0  0  0  0  0  0  0  0  0  0  0  0
    7.3816   -2.0056    0.0000 C   0  0  0  0  0  0  0  0  0  0  0  0
    8.2476   -1.5056    0.0000 C   0  0  2  0  0  0  0  0  0  0  0  0
    5.3941   -2.8905    0.0000 C   0  0  0  0  0  0  0  0  0  0  0  0
    8.2476   -0.5056    0.0000 C   0  0  0  0  0  0  0  0  0  0  0  0
    4.0316    0.7149    0.0000 C   0  0  0  0  0  0  0  0  0  0  0  0
    9.1136   -0.0056    0.0000 C   0  0  0  0  0  0  0  0  0  0  0  0
    7.3816   -0.0056    0.0000 C   0  0  0  0  0  0  0  0  0  0  0  0
    4.2351   -4.1777    0.0000 C   0  0  1  0  0  0  0  0  0  0  0  0
    9.9796   -1.5056    0.0000 C   0  0  0  0  0  0  0  0  0  0  0  0
   10.8457   -2.0056    0.0000 C   0  0  2  0  0  0  0  0  0  0  0  0
   10.8457   -3.0056    0.0000 C   0  0  0  0  0  0  0  0  0  0  0  0
    4.9783   -4.8468    0.0000 C   0  0  0  0  0  0  0  0  0  0  0  0
    3.6249    1.6284    0.0000 C   0  0  0  0  0  0  0  0  0  0  0  0
    3.2841   -4.4867    0.0000 C   0  0  0  0  0  0  0  0  0  0  0  0
    9.9796   -3.5056    0.0000 C   0  0  0  0  0  0  0  0  0  0  0  0
   11.7117   -3.5056    0.0000 C   0  0  0  0  0  0  0  0  0  0  0  0
    4.7704   -5.8249    0.0000 C   0  0  0  0  0  0  0  0  0  0  0  0
   12.5777   -2.0056    0.0000 C   0  0  0  0  0  0  0  0  0  0  0  0
    3.4557    3.2376    0.0000 C   0  0  0  0  0  0  0  0  0  0  0  0
   13.4437   -1.5056    0.0000 C   0  0  0  0  0  0  0  0  0  0  0  0
    3.6636    4.2158    0.0000 C   0  0  0  0  0  0  0  0  0  0  0  0
    2.9945    4.9589    0.0000 C   0  0  0  0  0  0  0  0  0  0  0  0
    4.5772    4.6225    0.0000 C   0  0  0  0  0  0  0  0  0  0  0  0
   13.4437   -0.5056    0.0000 C   0  0  0  0  0  0  0  0  0  0  0  0
    2.0000    4.8544    0.0000 C   0  0  0  0  0  0  0  0  0  0  0  0
    5.4432    4.1225    0.0000 C   0  0  0  0  0  0  0  0  0  0  0  0
   15.1758   -1.5056    0.0000 C   0  0  0  0  0  0  0  0  0  0  0  0
   15.1758   -0.5056    0.0000 C   0  0  0  0  0  0  0  0  0  0  0  0
    6.0838   -2.3025    0.0000 H   0  0  0  0  0  0  0  0  0  0  0  0
    5.8230    0.1787    0.0000 H   0  0  0  0  0  0  0  0  0  0  0  0
    4.4313   -0.8048    0.0000 H   0  0  0  0  0  0  0  0  0  0  0  0
    4.5180   -1.6300    0.0000 H   0  0  0  0  0  0  0  0  0  0  0  0
    7.0310   -0.5111    0.0000 H   0  0  0  0  0  0  0  0  0  0  0  0
    6.4758    0.1055    0.0000 H   0  0  0  0  0  0  0  0  0  0  0  0
    8.2476   -2.1256    0.0000 H   0  0  0  0  0  0  0  0  0  0  0  0
    8.7845   -0.8156    0.0000 H   0  0  0  0  0  0  0  0  0  0  0  0
    9.1136   -2.6256    0.0000 H   0  0  0  0  0  0  0  0  0  0  0  0
    3.9823   -2.7846    0.0000 H   0  0  0  0  0  0  0  0  0  0  0  0
    9.4236   -0.5425    0.0000 H   0  0  0  0  0  0  0  0  0  0  0  0
    9.6506    0.3044    0.0000 H   0  0  0  0  0  0  0  0  0  0  0  0
    8.8036    0.5313    0.0000 H   0  0  0  0  0  0  0  0  0  0  0  0
    7.6916    0.5313    0.0000 H   0  0  0  0  0  0  0  0  0  0  0  0
    6.8446    0.3044    0.0000 H   0  0  0  0  0  0  0  0  0  0  0  0
    7.0716   -0.5425    0.0000 H   0  0  0  0  0  0  0  0  0  0  0  0
    3.4300    0.5649    0.0000 H   0  0  0  0  0  0  0  0  0  0  0  0
    4.0749    0.0964    0.0000 H   0  0  0  0  0  0  0  0  0  0  0  0
    4.8248   -3.9861    0.0000 H   0  0  0  0  0  0  0  0  0  0  0  0
   10.8457   -1.3856    0.0000 H   0  0  0  0  0  0  0  0  0  0  0  0
   11.3826   -2.6956    0.0000 H   0  0  0  0  0  0  0  0  0  0  0  0
    5.5531   -5.0790    0.0000 H   0  0  0  0  0  0  0  0  0  0  0  0
    5.3068   -4.3210    0.0000 H   0  0  0  0  0  0  0  0  0  0  0  0
   11.7117   -0.8856    0.0000 H   0  0  0  0  0  0  0  0  0  0  0  0
    2.8233   -4.0718    0.0000 H   0  0  0  0  0  0  0  0  0  0  0  0
    9.6696   -2.9687    0.0000 H   0  0  0  0  0  0  0  0  0  0  0  0
    9.4427   -3.8156    0.0000 H   0  0  0  0  0  0  0  0  0  0  0  0
   10.2896   -4.0425    0.0000 H   0  0  0  0  0  0  0  0  0  0  0  0
   11.4017   -4.0425    0.0000 H   0  0  0  0  0  0  0  0  0  0  0  0
   12.2486   -3.8156    0.0000 H   0  0  0  0  0  0  0  0  0  0  0  0
   12.0217   -2.9687    0.0000 H   0  0  0  0  0  0  0  0  0  0  0  0
    4.1639   -5.6960    0.0000 H   0  0  0  0  0  0  0  0  0  0  0  0
    4.6414   -6.4314    0.0000 H   0  0  0  0  0  0  0  0  0  0  0  0
    5.3768   -5.9538    0.0000 H   0  0  0  0  0  0  0  0  0  0  0  0
   12.9068   -0.1956    0.0000 H   0  0  0  0  0  0  0  0  0  0  0  0
    1.9352    5.4710    0.0000 H   0  0  0  0  0  0  0  0  0  0  0  0
    1.3834    4.7896    0.0000 H   0  0  0  0  0  0  0  0  0  0  0  0
    2.0648    4.2378    0.0000 H   0  0  0  0  0  0  0  0  0  0  0  0
    5.1332    3.5856    0.0000 H   0  0  0  0  0  0  0  0  0  0  0  0
    5.9802    3.8125    0.0000 H   0  0  0  0  0  0  0  0  0  0  0  0
    5.7532    4.6594    0.0000 H   0  0  0  0  0  0  0  0  0  0  0  0
   15.7127   -1.8156    0.0000 H   0  0  0  0  0  0  0  0  0  0  0  0
   15.7127   -0.1956    0.0000 H   0  0  0  0  0  0  0  0  0  0  0  0
 19  1  1  1  0  0  0
  1 26  1  0  0  0  0
  2 22  2  0  0  0  0
  3 24  2  0  0  0  0
  4 30  2  0  0  0  0
  5 14  1  0  0  0  0
  5 40  1  0  0  0  0
  6 35  2  0  0  0  0
  7 39  2  0  0  0  0
  8 16  1  0  0  0  0
  8 43  1  0  0  0  0
  9 18  1  0  0  0  0
  9 21  1  0  0  0  0
  9 22  1  0  0  0  0
 23 10  1  6  0  0  0
 10 30  1  0  0  0  0
 10 58  1  0  0  0  0
 11 24  1  0  0  0  0
 29 11  1  1  0  0  0
 11 59  1  0  0  0  0
 31 12  1  1  0  0  0
 12 39  1  0  0  0  0
 12 73  1  0  0  0  0
 13 34  1  0  0  0  0
 13 40  2  0  0  0  0
 14 34  2  0  0  0  0
 15 41  2  0  0  0  0
 15 48  1  0  0  0  0
 16 44  2  0  0  0  0
 17 45  2  0  0  0  0
 17 49  1  0  0  0  0
 18 20  1  0  0  0  0
 18 24  1  6  0  0  0
 18 50  1  0  0  0  0
 19 20  1  0  0  0  0
 19 21  1  0  0  0  0
 19 51  1  0  0  0  0
 20 52  1  0  0  0  0
 20 53  1  0  0  0  0
 21 54  1  0  0  0  0
 21 55  1  0  0  0  0
 22 23  1  0  0  0  0
 23 25  1  0  0  0  0
 23 56  1  0  0  0  0
 25 27  1  0  0  0  0
 25 28  1  0  0  0  0
 25 57  1  0  0  0  0
 26 34  1  0  0  0  0
 26 66  1  0  0  0  0
 26 67  1  0  0  0  0
 27 60  1  0  0  0  0
 27 61  1  0  0  0  0
 27 62  1  0  0  0  0
 28 63  1  0  0  0  0
 28 64  1  0  0  0  0
 28 65  1  0  0  0  0
 29 33  1  0  0  0  0
 29 35  1  0  0  0  0
 29 68  1  0  0  0  0
 30 31  1  0  0  0  0
 31 32  1  0  0  0  0
 31 69  1  0  0  0  0
 32 36  1  0  0  0  0
 32 37  1  0  0  0  0
 32 70  1  0  0  0  0
 33 38  1  0  0  0  0
 33 71  1  0  0  0  0
 33 72  1  0  0  0  0
 35 74  1  0  0  0  0
 36 75  1  0  0  0  0
 36 76  1  0  0  0  0
 36 77  1  0  0  0  0
 37 78  1  0  0  0  0
 37 79  1  0  0  0  0
 37 80  1  0  0  0  0
 38 81  1  0  0  0  0
 38 82  1  0  0  0  0
 38 83  1  0  0  0  0
 39 41  1  0  0  0  0
 40 42  1  0  0  0  0
 41 45  1  0  0  0  0
 42 43  2  0  0  0  0
 42 44  1  0  0  0  0
 43 46  1  0  0  0  0
 44 47  1  0  0  0  0
 45 84  1  0  0  0  0
 46 85  1  0  0  0  0
 46 86  1  0  0  0  0
 46 87  1  0  0  0  0
 47 88  1  0  0  0  0
 47 89  1  0  0  0  0
 47 90  1  0  0  0  0
 48 49  2  0  0  0  0
 48 91  1  0  0  0  0
 49 92  1  0  0  0  0
M  END
> <PUBCHEM_COMPOUND_CID>
506631
> <PUBCHEM_COMPOUND_CANONICALIZED>
1
> <PUBCHEM_CACTVS_COMPLEXITY>
1160
> <PUBCHEM_CACTVS_HBOND_ACCEPTOR>
13
> <PUBCHEM_CACTVS_HBOND_DONOR>
3
> <PUBCHEM_CACTVS_ROTATABLE_BOND>
15
> <PUBCHEM_CACTVS_SUBSKEYS>
AAADcfB//AAAAAAAAAAAAAAAAAAAAWLFgAAsAAAAAAAAAAAB+AAAHgAUAAAADTzhnwYvlJfYFACpA5939gSAgC03MqApWKG8fFqCb15IyLIXEchnNxrYScI6AQAKAAAAAAAAAAAAAAAAAAAAAAAAAAAAAA==
> <PUBCHEM_IUPAC_OPENEYE_NAME>
N-[(1S)-1-[[(1S)-1-[(2S,4R)-4-[[5-(3,5-dimethylisoxazol-4-yl)-1,2,4-oxadiazol-3-yl]methoxy]-2-[[(1S)-1-formylpropyl]carbamoyl]pyrrolidine-1-carbonyl]-2-methyl-propyl]carbamoyl]-2-methyl-propyl]pyrazine-2-carboxamide
> <PUBCHEM_IUPAC_CAS_NAME>
N-[(2S)-1-[[(2S)-1-[(2S,4R)-4-[[5-(3,5-dimethyl-4-isoxazolyl)-1,2,4-oxadiazol-3-yl]methoxy]-2-[oxo-[[(2S)-1-oxobutan-2-yl]amino]methyl]-1-pyrrolidinyl]-3-methyl-1-oxobutan-2-yl]amino]-3-methyl-1-oxobutan-2-yl]-2-pyrazinecarboxamide
> <PUBCHEM_IUPAC_NAME_MARKUP>
<I>N</I>-[(2<I>S</I>)-1-[[(2<I>S</I>)-1-[(2<I>S</I>,4<I>R</I>)-4-[[5-(3,5-dimethyl-1,2-oxazol-4-yl)-1,2,4-oxadiazol-3-yl]methoxy]-2-[[(2<I>S</I>)-1-oxobutan-2-yl]carbamoyl]pyrrolidin-1-yl]-3-methyl-1-oxobutan-2-yl]amino]-3-methyl-1-oxobutan-2-yl]pyrazine-2-carboxamide
> <PUBCHEM_IUPAC_NAME>
N-[(2S)-1-[[(2S)-1-[(2S,4R)-4-[[5-(3,5-dimethyl-1,2-oxazol-4-yl)-1,2,4-oxadiazol-3-yl]methoxy]-2-[[(2S)-1-oxobutan-2-yl]carbamoyl]pyrrolidin-1-yl]-3-methyl-1-oxobutan-2-yl]amino]-3-methyl-1-oxobutan-2-yl]pyrazine-2-carboxamide
> <PUBCHEM_IUPAC_SYSTEMATIC_NAME>
N-[(2S)-1-[[(2S)-1-[(2S,4R)-4-[[5-(3,5-dimethyl-1,2-oxazol-4-yl)-1,2,4-oxadiazol-3-yl]methoxy]-2-[[(2S)-1-oxidanylidenebutan-2-yl]carbamoyl]pyrrolidin-1-yl]-3-methyl-1-oxidanylidene-butan-2-yl]amino]-3-methyl-1-oxidanylidene-butan-2-yl]pyrazine-2-carboxamide
> <PUBCHEM_IUPAC_TRADITIONAL_NAME>
N-[(1S)-1-[[(1S)-1-[(2S,4R)-4-[[5-(3,5-dimethylisoxazol-4-yl)-1,2,4-oxadiazol-3-yl]methoxy]-2-[[(1S)-1-formylpropyl]carbamoyl]pyrrolidine-1-carbonyl]-2-methyl-propyl]carbamoyl]-2-methyl-propyl]pyrazinamide
> <PUBCHEM_IUPAC_INCHI>
InChI=1S/C32H43N9O8/c1-8-20(14-42)35-29(44)23-11-21(47-15-24-36-31(49-40-24)25-18(6)39-48-19(25)7)13-41(23)32(46)27(17(4)5)38-30(45)26(16(2)3)37-28(43)22-12-33-9-10-34-22/h9-10,12,14,16-17,20-21,23,26-27H,8,11,13,15H2,1-7H3,(H,35,44)(H,37,43)(H,38,45)/t20-,21+,23-,26-,27-/m0/s1
> <PUBCHEM_IUPAC_INCHIKEY>
TXWBLSUJWVAYIJ-GDAHHXFASA-N
> <PUBCHEM_XLOGP3_AA>
1.5
> <PUBCHEM_EXACT_MASS>
681.32345936
> <PUBCHEM_MOLECULAR_FORMULA>
C32H43N9O8
> <PUBCHEM_MOLECULAR_WEIGHT>
681.7
> <PUBCHEM_OPENEYE_CAN_SMILES>
CCC(C=O)NC(=O)C1CC(CN1C(=O)C(C(C)C)NC(=O)C(C(C)C)NC(=O)C2=NC=CN=C2)OCC3=NOC(=N3)C4=C(ON=C4C)C
> <PUBCHEM_OPENEYE_ISO_SMILES>
CC[C@@H](C=O)NC(=O)[C@@H]1C[C@H](CN1C(=O)[C@H](C(C)C)NC(=O)[C@H](C(C)C)NC(=O)C2=NC=CN=C2)OCC3=NOC(=N3)C4=C(ON=C4C)C
> <PUBCHEM_CACTVS_TPSA>
225
> <PUBCHEM_MONOISOTOPIC_WEIGHT>
681.32345936
> <PUBCHEM_TOTAL_CHARGE>
0
> <PUBCHEM_HEAVY_ATOM_COUNT>
49
> <PUBCHEM_ATOM_DEF_STEREO_COUNT>
5
> <PUBCHEM_ATOM_UDEF_STEREO_COUNT>
0
> <PUBCHEM_BOND_DEF_STEREO_COUNT>
0
> <PUBCHEM_BOND_UDEF_STEREO_COUNT>
0
> <PUBCHEM_ISOTOPIC_ATOM_COUNT>
0
> <PUBCHEM_COMPONENT_COUNT>
1
> <PUBCHEM_CACTVS_TAUTO_COUNT>
-1
> <PUBCHEM_COORDINATE_TYPE>
1
5
255
> <PUBCHEM_BONDANNOTATIONS>
19  1  5
23  10  6
29  11  5
31  12  5
13  34  8
13  40  8
14  34  8
15  41  8
15  48  8
16  44  8
17  45  8
17  49  8
18  24  6
41  45  8
42  43  8
42  44  8
48  49  8
5  14  8
5  40  8
8  16  8
8  43  8
$$$$
