506740
  -OEChem-10302200282D
 96 97  0     1  0  0  0  0  0999 V2000
    9.7942   -3.7500    0.0000 O   0  0  0  0  0  0  0  0  0  0  0  0
    6.3301   -2.7500    0.0000 O   0  0  0  0  0  0  0  0  0  0  0  0
   12.3923   -1.2500    0.0000 O   0  0  0  0  0  0  0  0  0  0  0  0
    7.1962    0.7500    0.0000 O   0  0  0  0  0  0  0  0  0  0  0  0
   14.9904   -3.7500    0.0000 O   0  0  0  0  0  0  0  0  0  0  0  0
    4.5981    0.2500    0.0000 O   0  0  0  0  0  0  0  0  0  0  0  0
    8.9282   -2.2500    0.0000 N   0  0  0  0  0  0  0  0  0  0  0  0
   11.5263   -2.7500    0.0000 N   0  0  0  0  0  0  0  0  0  0  0  0
    7.1962   -1.2500    0.0000 N   0  0  0  0  0  0  0  0  0  0  0  0
   14.1244   -2.2500    0.0000 N   0  0  0  0  0  0  0  0  0  0  0  0
    5.4641    1.7500    0.0000 N   0  0  0  0  0  0  0  0  0  0  0  0
   16.7224   -2.7500    0.0000 N   0  0  0  0  0  0  0  0  0  0  0  0
   16.7224   -0.7500    0.0000 N   0  0  0  0  0  0  0  0  0  0  0  0
   10.6603   -2.2500    0.0000 C   0  0  1  0  0  0  0  0  0  0  0  0
    8.0622   -2.7500    0.0000 C   0  0  1  0  0  0  0  0  0  0  0  0
   10.6603   -1.2500    0.0000 C   0  0  0  0  0  0  0  0  0  0  0  0
    8.0622   -3.7500    0.0000 C   0  0  0  0  0  0  0  0  0  0  0  0
    7.1962   -4.2500    0.0000 C   0  0  0  0  0  0  0  0  0  0  0  0
    9.7942   -2.7500    0.0000 C   0  0  0  0  0  0  0  0  0  0  0  0
   13.2583   -2.7500    0.0000 C   0  0  1  0  0  0  0  0  0  0  0  0
   13.2583   -3.7500    0.0000 C   0  0  0  0  0  0  0  0  0  0  0  0
    7.1962   -2.2500    0.0000 C   0  0  0  0  0  0  0  0  0  0  0  0
   12.3923   -2.2500    0.0000 C   0  0  0  0  0  0  0  0  0  0  0  0
    9.7942   -0.7500    0.0000 C   0  0  0  0  0  0  0  0  0  0  0  0
   11.5263   -0.7500    0.0000 C   0  0  0  0  0  0  0  0  0  0  0  0
    7.1962   -5.2500    0.0000 C   0  0  0  0  0  0  0  0  0  0  0  0
    6.3301   -3.7500    0.0000 C   0  0  0  0  0  0  0  0  0  0  0  0
    6.3301   -0.7500    0.0000 C   0  0  1  0  0  0  0  0  0  0  0  0
   12.3923   -4.2500    0.0000 C   0  0  0  0  0  0  0  0  0  0  0  0
   14.1244   -4.2500    0.0000 C   0  0  0  0  0  0  0  0  0  0  0  0
    5.4641   -1.2500    0.0000 C   0  0  0  0  0  0  0  0  0  0  0  0
    6.3301    0.2500    0.0000 C   0  0  0  0  0  0  0  0  0  0  0  0
   14.9904   -2.7500    0.0000 C   0  0  0  0  0  0  0  0  0  0  0  0
    4.5981   -0.7500    0.0000 C   0  0  0  0  0  0  0  0  0  0  0  0
    5.4641    0.7500    0.0000 C   0  0  0  0  0  0  0  0  0  0  0  0
   15.8564   -2.2500    0.0000 C   0  0  0  0  0  0  0  0  0  0  0  0
    4.5981    2.2500    0.0000 C   0  0  0  0  0  0  0  0  0  0  0  0
    4.5981    3.2500    0.0000 C   0  0  0  0  0  0  0  0  0  0  0  0
   15.8564   -1.2500    0.0000 C   0  0  0  0  0  0  0  0  0  0  0  0
    3.7320    3.7500    0.0000 C   0  0  0  0  0  0  0  0  0  0  0  0
   17.5885   -2.2500    0.0000 C   0  0  0  0  0  0  0  0  0  0  0  0
    3.7320    4.7500    0.0000 C   0  0  0  0  0  0  0  0  0  0  0  0
    2.8660    3.2500    0.0000 C   0  0  0  0  0  0  0  0  0  0  0  0
   17.5885   -1.2500    0.0000 C   0  0  0  0  0  0  0  0  0  0  0  0
    2.8660    5.2500    0.0000 C   0  0  0  0  0  0  0  0  0  0  0  0
    2.0000    3.7500    0.0000 C   0  0  0  0  0  0  0  0  0  0  0  0
    2.0000    4.7500    0.0000 C   0  0  0  0  0  0  0  0  0  0  0  0
   10.6603   -2.8700    0.0000 H   0  0  0  0  0  0  0  0  0  0  0  0
    8.0622   -2.1300    0.0000 H   0  0  0  0  0  0  0  0  0  0  0  0
   11.1972   -1.5600    0.0000 H   0  0  0  0  0  0  0  0  0  0  0  0
    8.2742   -4.3326    0.0000 H   0  0  0  0  0  0  0  0  0  0  0  0
    8.6728   -3.6423    0.0000 H   0  0  0  0  0  0  0  0  0  0  0  0
    6.6592   -4.5600    0.0000 H   0  0  0  0  0  0  0  0  0  0  0  0
    8.9282   -1.6300    0.0000 H   0  0  0  0  0  0  0  0  0  0  0  0
   13.2583   -2.1300    0.0000 H   0  0  0  0  0  0  0  0  0  0  0  0
   11.5263   -3.3700    0.0000 H   0  0  0  0  0  0  0  0  0  0  0  0
   13.7953   -3.4400    0.0000 H   0  0  0  0  0  0  0  0  0  0  0  0
   10.1042   -0.2131    0.0000 H   0  0  0  0  0  0  0  0  0  0  0  0
    9.2573   -0.4400    0.0000 H   0  0  0  0  0  0  0  0  0  0  0  0
    9.4842   -1.2869    0.0000 H   0  0  0  0  0  0  0  0  0  0  0  0
   11.8363   -1.2869    0.0000 H   0  0  0  0  0  0  0  0  0  0  0  0
   12.0632   -0.4400    0.0000 H   0  0  0  0  0  0  0  0  0  0  0  0
   11.2163   -0.2131    0.0000 H   0  0  0  0  0  0  0  0  0  0  0  0
    6.5762   -5.2500    0.0000 H   0  0  0  0  0  0  0  0  0  0  0  0
    7.1962   -5.8700    0.0000 H   0  0  0  0  0  0  0  0  0  0  0  0
    7.8162   -5.2500    0.0000 H   0  0  0  0  0  0  0  0  0  0  0  0
    6.6401   -3.2131    0.0000 H   0  0  0  0  0  0  0  0  0  0  0  0
    5.7932   -3.4400    0.0000 H   0  0  0  0  0  0  0  0  0  0  0  0
    6.0201   -4.2869    0.0000 H   0  0  0  0  0  0  0  0  0  0  0  0
    6.8671   -0.4400    0.0000 H   0  0  0  0  0  0  0  0  0  0  0  0
    7.7331   -0.9400    0.0000 H   0  0  0  0  0  0  0  0  0  0  0  0
   12.0823   -3.7131    0.0000 H   0  0  0  0  0  0  0  0  0  0  0  0
   11.8554   -4.5600    0.0000 H   0  0  0  0  0  0  0  0  0  0  0  0
   12.7023   -4.7869    0.0000 H   0  0  0  0  0  0  0  0  0  0  0  0
   13.8144   -4.7869    0.0000 H   0  0  0  0  0  0  0  0  0  0  0  0
   14.6613   -4.5600    0.0000 H   0  0  0  0  0  0  0  0  0  0  0  0
   14.4344   -3.7131    0.0000 H   0  0  0  0  0  0  0  0  0  0  0  0
   14.1244   -1.6300    0.0000 H   0  0  0  0  0  0  0  0  0  0  0  0
    5.0656   -1.7250    0.0000 H   0  0  0  0  0  0  0  0  0  0  0  0
    5.8626   -1.7250    0.0000 H   0  0  0  0  0  0  0  0  0  0  0  0
    4.9081   -0.2131    0.0000 H   0  0  0  0  0  0  0  0  0  0  0  0
    4.0611   -0.4400    0.0000 H   0  0  0  0  0  0  0  0  0  0  0  0
    4.2881   -1.2869    0.0000 H   0  0  0  0  0  0  0  0  0  0  0  0
    6.0010    2.0600    0.0000 H   0  0  0  0  0  0  0  0  0  0  0  0
    3.9875    2.3577    0.0000 H   0  0  0  0  0  0  0  0  0  0  0  0
    4.3860    1.6674    0.0000 H   0  0  0  0  0  0  0  0  0  0  0  0
    5.2087    3.1423    0.0000 H   0  0  0  0  0  0  0  0  0  0  0  0
    4.8101    3.8326    0.0000 H   0  0  0  0  0  0  0  0  0  0  0  0
   15.3195   -0.9400    0.0000 H   0  0  0  0  0  0  0  0  0  0  0  0
   18.1254   -2.5600    0.0000 H   0  0  0  0  0  0  0  0  0  0  0  0
    4.2690    5.0600    0.0000 H   0  0  0  0  0  0  0  0  0  0  0  0
    2.8660    2.6300    0.0000 H   0  0  0  0  0  0  0  0  0  0  0  0
   18.1254   -0.9400    0.0000 H   0  0  0  0  0  0  0  0  0  0  0  0
    2.8660    5.8700    0.0000 H   0  0  0  0  0  0  0  0  0  0  0  0
    1.4631    3.4400    0.0000 H   0  0  0  0  0  0  0  0  0  0  0  0
    1.4631    5.0600    0.0000 H   0  0  0  0  0  0  0  0  0  0  0  0
  1 19  2  0  0  0  0
  2 22  2  0  0  0  0
  3 23  2  0  0  0  0
  4 32  2  0  0  0  0
  5 33  2  0  0  0  0
  6 35  2  0  0  0  0
 15  7  1  1  0  0  0
  7 19  1  0  0  0  0
  7 54  1  0  0  0  0
 14  8  1  6  0  0  0
  8 23  1  0  0  0  0
  8 56  1  0  0  0  0
  9 22  1  0  0  0  0
 28  9  1  1  0  0  0
  9 71  1  0  0  0  0
 20 10  1  1  0  0  0
 10 33  1  0  0  0  0
 10 78  1  0  0  0  0
 11 35  1  0  0  0  0
 11 37  1  0  0  0  0
 11 84  1  0  0  0  0
 12 36  2  0  0  0  0
 12 41  1  0  0  0  0
 13 39  2  0  0  0  0
 13 44  1  0  0  0  0
 14 16  1  0  0  0  0
 14 19  1  0  0  0  0
 14 48  1  0  0  0  0
 15 17  1  0  0  0  0
 15 22  1  0  0  0  0
 15 49  1  0  0  0  0
 16 24  1  0  0  0  0
 16 25  1  0  0  0  0
 16 50  1  0  0  0  0
 17 18  1  0  0  0  0
 17 51  1  0  0  0  0
 17 52  1  0  0  0  0
 18 26  1  0  0  0  0
 18 27  1  0  0  0  0
 18 53  1  0  0  0  0
 20 21  1  0  0  0  0
 20 23  1  0  0  0  0
 20 55  1  0  0  0  0
 21 29  1  0  0  0  0
 21 30  1  0  0  0  0
 21 57  1  0  0  0  0
 24 58  1  0  0  0  0
 24 59  1  0  0  0  0
 24 60  1  0  0  0  0
 25 61  1  0  0  0  0
 25 62  1  0  0  0  0
 25 63  1  0  0  0  0
 26 64  1  0  0  0  0
 26 65  1  0  0  0  0
 26 66  1  0  0  0  0
 27 67  1  0  0  0  0
 27 68  1  0  0  0  0
 27 69  1  0  0  0  0
 28 31  1  0  0  0  0
 28 32  1  0  0  0  0
 28 70  1  0  0  0  0
 29 72  1  0  0  0  0
 29 73  1  0  0  0  0
 29 74  1  0  0  0  0
 30 75  1  0  0  0  0
 30 76  1  0  0  0  0
 30 77  1  0  0  0  0
 31 34  1  0  0  0  0
 31 79  1  0  0  0  0
 31 80  1  0  0  0  0
 32 35  1  0  0  0  0
 33 36  1  0  0  0  0
 34 81  1  0  0  0  0
 34 82  1  0  0  0  0
 34 83  1  0  0  0  0
 36 39  1  0  0  0  0
 37 38  1  0  0  0  0
 37 85  1  0  0  0  0
 37 86  1  0  0  0  0
 38 40  1  0  0  0  0
 38 87  1  0  0  0  0
 38 88  1  0  0  0  0
 39 89  1  0  0  0  0
 40 42  2  0  0  0  0
 40 43  1  0  0  0  0
 41 44  2  0  0  0  0
 41 90  1  0  0  0  0
 42 45  1  0  0  0  0
 42 91  1  0  0  0  0
 43 46  2  0  0  0  0
 43 92  1  0  0  0  0
 44 93  1  0  0  0  0
 45 47  2  0  0  0  0
 45 94  1  0  0  0  0
 46 47  1  0  0  0  0
 46 95  1  0  0  0  0
 47 96  1  0  0  0  0
M  END
> <PUBCHEM_COMPOUND_CID>
506740
> <PUBCHEM_COMPOUND_CANONICALIZED>
1
> <PUBCHEM_CACTVS_COMPLEXITY>
1060
> <PUBCHEM_CACTVS_HBOND_ACCEPTOR>
8
> <PUBCHEM_CACTVS_HBOND_DONOR>
5
> <PUBCHEM_CACTVS_ROTATABLE_BOND>
18
> <PUBCHEM_CACTVS_SUBSKEYS>
AAADcfB/uAAAAAAAAAAAAAAAAAAAAAAAAAA8QAAAAAAAAAABwAAAHgAQAAAADSzBngQ+gJLIEACoA7V3VACCgCQ3EiAI2IG4dMgIYHrA0TGUIIgglgDIiMcYgIAOAAAAAAAAAAAAAAAAAAAAAAAAAAAAAA==
> <PUBCHEM_IUPAC_OPENEYE_NAME>
N-[(1S)-1-[[(1S)-1-[[(1S)-1-[[(1S)-1-ethyl-2,3-dioxo-3-(2-phenylethylamino)propyl]carbamoyl]-3-methyl-butyl]carbamoyl]-2-methyl-propyl]carbamoyl]-2-methyl-propyl]pyrazine-2-carboxamide
> <PUBCHEM_IUPAC_CAS_NAME>
N-[(2S)-1-[[(2S)-1-[[(2S)-1-[[(3S)-1,2-dioxo-1-(2-phenylethylamino)pentan-3-yl]amino]-4-methyl-1-oxopentan-2-yl]amino]-3-methyl-1-oxobutan-2-yl]amino]-3-methyl-1-oxobutan-2-yl]-2-pyrazinecarboxamide
> <PUBCHEM_IUPAC_NAME_MARKUP>
<I>N</I>-[(2<I>S</I>)-1-[[(2<I>S</I>)-1-[[(2<I>S</I>)-1-[[(3<I>S</I>)-1,2-dioxo-1-(2-phenylethylamino)pentan-3-yl]amino]-4-methyl-1-oxopentan-2-yl]amino]-3-methyl-1-oxobutan-2-yl]amino]-3-methyl-1-oxobutan-2-yl]pyrazine-2-carboxamide
> <PUBCHEM_IUPAC_NAME>
N-[(2S)-1-[[(2S)-1-[[(2S)-1-[[(3S)-1,2-dioxo-1-(2-phenylethylamino)pentan-3-yl]amino]-4-methyl-1-oxopentan-2-yl]amino]-3-methyl-1-oxobutan-2-yl]amino]-3-methyl-1-oxobutan-2-yl]pyrazine-2-carboxamide
> <PUBCHEM_IUPAC_SYSTEMATIC_NAME>
N-[(2S)-1-[[(2S)-1-[[(2S)-1-[[(3S)-1,2-bis(oxidanylidene)-1-(2-phenylethylamino)pentan-3-yl]amino]-4-methyl-1-oxidanylidene-pentan-2-yl]amino]-3-methyl-1-oxidanylidene-butan-2-yl]amino]-3-methyl-1-oxidanylidene-butan-2-yl]pyrazine-2-carboxamide
> <PUBCHEM_IUPAC_TRADITIONAL_NAME>
N-[(1S)-1-[[(1S)-1-[[(1S)-1-[[(1S)-1-ethyl-2,3-diketo-3-(phenethylamino)propyl]carbamoyl]-3-methyl-butyl]carbamoyl]-2-methyl-propyl]carbamoyl]-2-methyl-propyl]pyrazinamide
> <PUBCHEM_IUPAC_INCHI>
InChI=1S/C34H49N7O6/c1-8-24(29(42)34(47)37-15-14-23-12-10-9-11-13-23)38-30(43)25(18-20(2)3)39-32(45)27(21(4)5)41-33(46)28(22(6)7)40-31(44)26-19-35-16-17-36-26/h9-13,16-17,19-22,24-25,27-28H,8,14-15,18H2,1-7H3,(H,37,47)(H,38,43)(H,39,45)(H,40,44)(H,41,46)/t24-,25-,27-,28-/m0/s1
> <PUBCHEM_IUPAC_INCHIKEY>
KWMMXOGFIWPAHK-XEZODYMFSA-N
> <PUBCHEM_XLOGP3_AA>
4
> <PUBCHEM_EXACT_MASS>
651.37443231
> <PUBCHEM_MOLECULAR_FORMULA>
C34H49N7O6
> <PUBCHEM_MOLECULAR_WEIGHT>
651.8
> <PUBCHEM_OPENEYE_CAN_SMILES>
CCC(C(=O)C(=O)NCCC1=CC=CC=C1)NC(=O)C(CC(C)C)NC(=O)C(C(C)C)NC(=O)C(C(C)C)NC(=O)C2=NC=CN=C2
> <PUBCHEM_OPENEYE_ISO_SMILES>
CC[C@@H](C(=O)C(=O)NCCC1=CC=CC=C1)NC(=O)[C@H](CC(C)C)NC(=O)[C@H](C(C)C)NC(=O)[C@H](C(C)C)NC(=O)C2=NC=CN=C2
> <PUBCHEM_CACTVS_TPSA>
188
> <PUBCHEM_MONOISOTOPIC_WEIGHT>
651.37443231
> <PUBCHEM_TOTAL_CHARGE>
0
> <PUBCHEM_HEAVY_ATOM_COUNT>
47
> <PUBCHEM_ATOM_DEF_STEREO_COUNT>
4
> <PUBCHEM_ATOM_UDEF_STEREO_COUNT>
0
> <PUBCHEM_BOND_DEF_STEREO_COUNT>
0
> <PUBCHEM_BOND_UDEF_STEREO_COUNT>
0
> <PUBCHEM_ISOTOPIC_ATOM_COUNT>
0
> <PUBCHEM_COMPONENT_COUNT>
1
> <PUBCHEM_CACTVS_TAUTO_COUNT>
-1
> <PUBCHEM_COORDINATE_TYPE>
1
5
255
> <PUBCHEM_BONDANNOTATIONS>
20  10  5
12  36  8
12  41  8
13  39  8
13  44  8
36  39  8
40  42  8
40  43  8
41  44  8
42  45  8
43  46  8
45  47  8
46  47  8
15  7  5
14  8  6
28  9  5
$$$$
