506735
  -OEChem-10302200282D
 79 79  0     1  0  0  0  0  0999 V2000
    7.1962   -2.1550    0.0000 O   0  0  0  0  0  0  0  0  0  0  0  0
    9.7942    0.3450    0.0000 O   0  0  0  0  0  0  0  0  0  0  0  0
    3.7320   -1.1550    0.0000 O   0  0  0  0  0  0  0  0  0  0  0  0
   12.3923   -2.1550    0.0000 O   0  0  0  0  0  0  0  0  0  0  0  0
    4.5981    2.3450    0.0000 O   0  0  0  0  0  0  0  0  0  0  0  0
    2.8660    3.3450    0.0000 O   0  0  0  0  0  0  0  0  0  0  0  0
    2.0000    1.8450    0.0000 O   0  0  0  0  0  0  0  0  0  0  0  0
    6.3301   -0.6550    0.0000 N   0  0  0  0  0  0  0  0  0  0  0  0
    8.9282   -1.1550    0.0000 N   0  0  0  0  0  0  0  0  0  0  0  0
    4.5981    0.3450    0.0000 N   0  0  0  0  0  0  0  0  0  0  0  0
   11.5263   -0.6550    0.0000 N   0  0  0  0  0  0  0  0  0  0  0  0
   14.1244   -1.1550    0.0000 N   0  0  0  0  0  0  0  0  0  0  0  0
   14.1244    0.8450    0.0000 N   0  0  0  0  0  0  0  0  0  0  0  0
    8.0622   -0.6550    0.0000 C   0  0  1  0  0  0  0  0  0  0  0  0
    5.4641   -1.1550    0.0000 C   0  0  1  0  0  0  0  0  0  0  0  0
    8.0622    0.3450    0.0000 C   0  0  0  0  0  0  0  0  0  0  0  0
    5.4641   -2.1550    0.0000 C   0  0  0  0  0  0  0  0  0  0  0  0
    4.5981   -2.6550    0.0000 C   0  0  0  0  0  0  0  0  0  0  0  0
    7.1962   -1.1550    0.0000 C   0  0  0  0  0  0  0  0  0  0  0  0
   10.6603   -1.1550    0.0000 C   0  0  1  0  0  0  0  0  0  0  0  0
   10.6603   -2.1550    0.0000 C   0  0  0  0  0  0  0  0  0  0  0  0
    9.7942   -0.6550    0.0000 C   0  0  0  0  0  0  0  0  0  0  0  0
    4.5981   -0.6550    0.0000 C   0  0  0  0  0  0  0  0  0  0  0  0
    7.1962    0.8450    0.0000 C   0  0  0  0  0  0  0  0  0  0  0  0
    8.9282    0.8450    0.0000 C   0  0  0  0  0  0  0  0  0  0  0  0
    4.5981   -3.6550    0.0000 C   0  0  0  0  0  0  0  0  0  0  0  0
    3.7320   -2.1550    0.0000 C   0  0  0  0  0  0  0  0  0  0  0  0
    3.7320    0.8450    0.0000 C   0  0  1  0  0  0  0  0  0  0  0  0
    9.7942   -2.6550    0.0000 C   0  0  0  0  0  0  0  0  0  0  0  0
   11.5263   -2.6550    0.0000 C   0  0  0  0  0  0  0  0  0  0  0  0
    2.8660    0.3450    0.0000 C   0  0  0  0  0  0  0  0  0  0  0  0
   12.3923   -1.1550    0.0000 C   0  0  0  0  0  0  0  0  0  0  0  0
    3.7320    1.8450    0.0000 C   0  0  0  0  0  0  0  0  0  0  0  0
    2.0000    0.8450    0.0000 C   0  0  0  0  0  0  0  0  0  0  0  0
   13.2583   -0.6550    0.0000 C   0  0  0  0  0  0  0  0  0  0  0  0
    2.8660    2.3450    0.0000 C   0  0  0  0  0  0  0  0  0  0  0  0
   13.2583    0.3450    0.0000 C   0  0  0  0  0  0  0  0  0  0  0  0
   14.9904   -0.6550    0.0000 C   0  0  0  0  0  0  0  0  0  0  0  0
   14.9904    0.3450    0.0000 C   0  0  0  0  0  0  0  0  0  0  0  0
    8.0622   -1.2750    0.0000 H   0  0  0  0  0  0  0  0  0  0  0  0
    5.4641   -0.5350    0.0000 H   0  0  0  0  0  0  0  0  0  0  0  0
    8.0622    0.9650    0.0000 H   0  0  0  0  0  0  0  0  0  0  0  0
    5.6762   -2.7376    0.0000 H   0  0  0  0  0  0  0  0  0  0  0  0
    6.0747   -2.0473    0.0000 H   0  0  0  0  0  0  0  0  0  0  0  0
    4.5981   -2.0350    0.0000 H   0  0  0  0  0  0  0  0  0  0  0  0
   10.6603   -0.5350    0.0000 H   0  0  0  0  0  0  0  0  0  0  0  0
    6.3301   -0.0350    0.0000 H   0  0  0  0  0  0  0  0  0  0  0  0
    8.9282   -1.7750    0.0000 H   0  0  0  0  0  0  0  0  0  0  0  0
   11.1972   -1.8450    0.0000 H   0  0  0  0  0  0  0  0  0  0  0  0
    7.5062    1.3819    0.0000 H   0  0  0  0  0  0  0  0  0  0  0  0
    6.6592    1.1550    0.0000 H   0  0  0  0  0  0  0  0  0  0  0  0
    6.8862    0.3081    0.0000 H   0  0  0  0  0  0  0  0  0  0  0  0
    9.2382    0.3081    0.0000 H   0  0  0  0  0  0  0  0  0  0  0  0
    9.4651    1.1550    0.0000 H   0  0  0  0  0  0  0  0  0  0  0  0
    8.6182    1.3819    0.0000 H   0  0  0  0  0  0  0  0  0  0  0  0
    3.9781   -3.6550    0.0000 H   0  0  0  0  0  0  0  0  0  0  0  0
    4.5981   -4.2750    0.0000 H   0  0  0  0  0  0  0  0  0  0  0  0
    5.2181   -3.6550    0.0000 H   0  0  0  0  0  0  0  0  0  0  0  0
    4.0420   -1.6181    0.0000 H   0  0  0  0  0  0  0  0  0  0  0  0
    3.1951   -1.8450    0.0000 H   0  0  0  0  0  0  0  0  0  0  0  0
    3.4220   -2.6919    0.0000 H   0  0  0  0  0  0  0  0  0  0  0  0
    5.1350    0.6550    0.0000 H   0  0  0  0  0  0  0  0  0  0  0  0
    3.7320    0.2250    0.0000 H   0  0  0  0  0  0  0  0  0  0  0  0
    9.4842   -2.1181    0.0000 H   0  0  0  0  0  0  0  0  0  0  0  0
    9.2573   -2.9650    0.0000 H   0  0  0  0  0  0  0  0  0  0  0  0
   10.1042   -3.1919    0.0000 H   0  0  0  0  0  0  0  0  0  0  0  0
   11.2163   -3.1919    0.0000 H   0  0  0  0  0  0  0  0  0  0  0  0
   12.0632   -2.9650    0.0000 H   0  0  0  0  0  0  0  0  0  0  0  0
   11.8363   -2.1181    0.0000 H   0  0  0  0  0  0  0  0  0  0  0  0
   11.5263   -0.0350    0.0000 H   0  0  0  0  0  0  0  0  0  0  0  0
    2.4675   -0.1299    0.0000 H   0  0  0  0  0  0  0  0  0  0  0  0
    3.2646   -0.1299    0.0000 H   0  0  0  0  0  0  0  0  0  0  0  0
    2.3100    1.3819    0.0000 H   0  0  0  0  0  0  0  0  0  0  0  0
    1.4631    1.1550    0.0000 H   0  0  0  0  0  0  0  0  0  0  0  0
    1.6900    0.3081    0.0000 H   0  0  0  0  0  0  0  0  0  0  0  0
   12.7214    0.6550    0.0000 H   0  0  0  0  0  0  0  0  0  0  0  0
    2.3291    3.6550    0.0000 H   0  0  0  0  0  0  0  0  0  0  0  0
   15.5273   -0.9650    0.0000 H   0  0  0  0  0  0  0  0  0  0  0  0
   15.5273    0.6550    0.0000 H   0  0  0  0  0  0  0  0  0  0  0  0
  1 19  2  0  0  0  0
  2 22  2  0  0  0  0
  3 23  2  0  0  0  0
  4 32  2  0  0  0  0
  5 33  2  0  0  0  0
  6 36  1  0  0  0  0
  6 77  1  0  0  0  0
  7 36  2  0  0  0  0
 15  8  1  1  0  0  0
  8 19  1  0  0  0  0
  8 47  1  0  0  0  0
 14  9  1  6  0  0  0
  9 22  1  0  0  0  0
  9 48  1  0  0  0  0
 10 23  1  0  0  0  0
 28 10  1  1  0  0  0
 10 62  1  0  0  0  0
 20 11  1  1  0  0  0
 11 32  1  0  0  0  0
 11 70  1  0  0  0  0
 12 35  2  0  0  0  0
 12 38  1  0  0  0  0
 13 37  2  0  0  0  0
 13 39  1  0  0  0  0
 14 16  1  0  0  0  0
 14 19  1  0  0  0  0
 14 40  1  0  0  0  0
 15 17  1  0  0  0  0
 15 23  1  0  0  0  0
 15 41  1  0  0  0  0
 16 24  1  0  0  0  0
 16 25  1  0  0  0  0
 16 42  1  0  0  0  0
 17 18  1  0  0  0  0
 17 43  1  0  0  0  0
 17 44  1  0  0  0  0
 18 26  1  0  0  0  0
 18 27  1  0  0  0  0
 18 45  1  0  0  0  0
 20 21  1  0  0  0  0
 20 22  1  0  0  0  0
 20 46  1  0  0  0  0
 21 29  1  0  0  0  0
 21 30  1  0  0  0  0
 21 49  1  0  0  0  0
 24 50  1  0  0  0  0
 24 51  1  0  0  0  0
 24 52  1  0  0  0  0
 25 53  1  0  0  0  0
 25 54  1  0  0  0  0
 25 55  1  0  0  0  0
 26 56  1  0  0  0  0
 26 57  1  0  0  0  0
 26 58  1  0  0  0  0
 27 59  1  0  0  0  0
 27 60  1  0  0  0  0
 27 61  1  0  0  0  0
 28 31  1  0  0  0  0
 28 33  1  0  0  0  0
 28 63  1  0  0  0  0
 29 64  1  0  0  0  0
 29 65  1  0  0  0  0
 29 66  1  0  0  0  0
 30 67  1  0  0  0  0
 30 68  1  0  0  0  0
 30 69  1  0  0  0  0
 31 34  1  0  0  0  0
 31 71  1  0  0  0  0
 31 72  1  0  0  0  0
 32 35  1  0  0  0  0
 33 36  1  0  0  0  0
 34 73  1  0  0  0  0
 34 74  1  0  0  0  0
 34 75  1  0  0  0  0
 35 37  1  0  0  0  0
 37 76  1  0  0  0  0
 38 39  2  0  0  0  0
 38 78  1  0  0  0  0
 39 79  1  0  0  0  0
M  END
> <PUBCHEM_COMPOUND_CID>
506735
> <PUBCHEM_COMPOUND_CANONICALIZED>
1
> <PUBCHEM_CACTVS_COMPLEXITY>
892
> <PUBCHEM_CACTVS_HBOND_ACCEPTOR>
9
> <PUBCHEM_CACTVS_HBOND_DONOR>
5
> <PUBCHEM_CACTVS_ROTATABLE_BOND>
15
> <PUBCHEM_CACTVS_SUBSKEYS>
AAADcfB7uAAAAAAAAAAAAAAAAAAAAAAAAAAsAAAAAAAAAAABgAAAHgAQCAAADSzBlgQuiBLIEgCoAZX3XAKAgCQXEiAIUIH4dEAAQFpAwCAUQIgGFgDAAMCYAAAMAAAAAAAAAAAAAAAAAAAAAAAAAAAAAA==
> <PUBCHEM_IUPAC_OPENEYE_NAME>
(3S)-3-[[(2S)-4-methyl-2-[[(2S)-3-methyl-2-[[(2S)-3-methyl-2-(pyrazine-2-carbonylamino)butanoyl]amino]butanoyl]amino]pentanoyl]amino]-2-oxo-pentanoic acid
> <PUBCHEM_IUPAC_CAS_NAME>
(3S)-3-[[(2S)-4-methyl-2-[[(2S)-3-methyl-2-[[(2S)-3-methyl-1-oxo-2-[[oxo(2-pyrazinyl)methyl]amino]butyl]amino]-1-oxobutyl]amino]-1-oxopentyl]amino]-2-oxopentanoic acid
> <PUBCHEM_IUPAC_NAME_MARKUP>
(3<I>S</I>)-3-[[(2<I>S</I>)-4-methyl-2-[[(2<I>S</I>)-3-methyl-2-[[(2<I>S</I>)-3-methyl-2-(pyrazine-2-carbonylamino)butanoyl]amino]butanoyl]amino]pentanoyl]amino]-2-oxopentanoic acid
> <PUBCHEM_IUPAC_NAME>
(3S)-3-[[(2S)-4-methyl-2-[[(2S)-3-methyl-2-[[(2S)-3-methyl-2-(pyrazine-2-carbonylamino)butanoyl]amino]butanoyl]amino]pentanoyl]amino]-2-oxopentanoic acid
> <PUBCHEM_IUPAC_SYSTEMATIC_NAME>
(3S)-3-[[(2S)-4-methyl-2-[[(2S)-3-methyl-2-[[(2S)-3-methyl-2-(pyrazin-2-ylcarbonylamino)butanoyl]amino]butanoyl]amino]pentanoyl]amino]-2-oxidanylidene-pentanoic acid
> <PUBCHEM_IUPAC_TRADITIONAL_NAME>
(3S)-2-keto-3-[[(2S)-4-methyl-2-[[(2S)-3-methyl-2-[[(2S)-3-methyl-2-(pyrazinoylamino)butanoyl]amino]butanoyl]amino]pentanoyl]amino]valeric acid
> <PUBCHEM_IUPAC_INCHI>
InChI=1S/C26H40N6O7/c1-8-16(21(33)26(38)39)29-22(34)17(11-13(2)3)30-24(36)19(14(4)5)32-25(37)20(15(6)7)31-23(35)18-12-27-9-10-28-18/h9-10,12-17,19-20H,8,11H2,1-7H3,(H,29,34)(H,30,36)(H,31,35)(H,32,37)(H,38,39)/t16-,17-,19-,20-/m0/s1
> <PUBCHEM_IUPAC_INCHIKEY>
OGQXTJMSSLCNJL-ZULIPRJHSA-N
> <PUBCHEM_XLOGP3_AA>
2.3
> <PUBCHEM_EXACT_MASS>
548.29584764
> <PUBCHEM_MOLECULAR_FORMULA>
C26H40N6O7
> <PUBCHEM_MOLECULAR_WEIGHT>
548.6
> <PUBCHEM_OPENEYE_CAN_SMILES>
CCC(C(=O)C(=O)O)NC(=O)C(CC(C)C)NC(=O)C(C(C)C)NC(=O)C(C(C)C)NC(=O)C1=NC=CN=C1
> <PUBCHEM_OPENEYE_ISO_SMILES>
CC[C@@H](C(=O)C(=O)O)NC(=O)[C@H](CC(C)C)NC(=O)[C@H](C(C)C)NC(=O)[C@H](C(C)C)NC(=O)C1=NC=CN=C1
> <PUBCHEM_CACTVS_TPSA>
197
> <PUBCHEM_MONOISOTOPIC_WEIGHT>
548.29584764
> <PUBCHEM_TOTAL_CHARGE>
0
> <PUBCHEM_HEAVY_ATOM_COUNT>
39
> <PUBCHEM_ATOM_DEF_STEREO_COUNT>
4
> <PUBCHEM_ATOM_UDEF_STEREO_COUNT>
0
> <PUBCHEM_BOND_DEF_STEREO_COUNT>
0
> <PUBCHEM_BOND_UDEF_STEREO_COUNT>
0
> <PUBCHEM_ISOTOPIC_ATOM_COUNT>
0
> <PUBCHEM_COMPONENT_COUNT>
1
> <PUBCHEM_CACTVS_TAUTO_COUNT>
-1
> <PUBCHEM_COORDINATE_TYPE>
1
5
255
> <PUBCHEM_BONDANNOTATIONS>
28  10  5
20  11  5
12  35  8
12  38  8
13  37  8
13  39  8
35  37  8
38  39  8
15  8  5
14  9  6
$$$$
