506775
  -OEChem-10302200282D
 91 94  0     1  0  0  0  0  0999 V2000
    5.5714   -3.2528    0.0000 O   0  0  0  0  0  0  0  0  0  0  0  0
    9.8806   -3.0209    0.0000 O   0  0  0  0  0  0  0  0  0  0  0  0
    9.7382   -4.3755    0.0000 O   0  0  0  0  0  0  0  0  0  0  0  0
    9.0146    0.4791    0.0000 O   0  0  0  0  0  0  0  0  0  0  0  0
    9.8576   -7.9791    0.0000 O   0  0  0  0  0  0  0  0  0  0  0  0
   12.4787    4.4791    0.0000 O   0  0  0  0  0  0  0  0  0  0  0  0
    8.1486   -3.0209    0.0000 N   0  0  0  0  0  0  0  0  0  0  0  0
    8.5792   -5.6627    0.0000 N   0  0  0  0  0  0  0  0  0  0  0  0
    9.8806   -1.0209    0.0000 N   0  0  0  0  0  0  0  0  0  0  0  0
   10.7466    4.4791    0.0000 N   0  0  0  0  0  0  0  0  0  0  0  0
    8.0440   -4.0154    0.0000 C   0  0  1  0  0  0  0  0  0  0  0  0
    6.5659   -3.3573    0.0000 C   0  0  2  0  0  0  0  0  0  0  0  0
    7.0659   -4.2233    0.0000 C   0  0  0  0  0  0  0  0  0  0  0  0
    7.2350   -2.6142    0.0000 C   0  0  0  0  0  0  0  0  0  0  0  0
    9.0146   -2.5209    0.0000 C   0  0  0  0  0  0  0  0  0  0  0  0
    9.0146   -1.5209    0.0000 C   0  0  2  0  0  0  0  0  0  0  0  0
    8.7872   -4.6846    0.0000 C   0  0  0  0  0  0  0  0  0  0  0  0
    8.1486   -1.0209    0.0000 C   0  0  0  0  0  0  0  0  0  0  0  0
    4.9836   -4.0618    0.0000 C   0  0  0  0  0  0  0  0  0  0  0  0
    8.1486   -0.0209    0.0000 C   0  0  0  0  0  0  0  0  0  0  0  0
    7.2825   -1.5209    0.0000 C   0  0  0  0  0  0  0  0  0  0  0  0
    9.3224   -6.3318    0.0000 C   0  0  1  0  0  0  0  0  0  0  0  0
    3.9890   -3.9573    0.0000 C   0  0  0  0  0  0  0  0  0  0  0  0
   10.2735   -6.0228    0.0000 C   0  0  0  0  0  0  0  0  0  0  0  0
    9.8806   -0.0209    0.0000 C   0  0  0  0  0  0  0  0  0  0  0  0
    9.1145   -7.3100    0.0000 C   0  0  0  0  0  0  0  0  0  0  0  0
   10.7466    0.4791    0.0000 C   0  0  0  0  0  0  0  0  0  0  0  0
   11.0166   -6.6919    0.0000 C   0  0  0  0  0  0  0  0  0  0  0  0
    3.4013   -4.7663    0.0000 C   0  0  0  0  0  0  0  0  0  0  0  0
    3.5823   -3.0437    0.0000 C   0  0  0  0  0  0  0  0  0  0  0  0
   10.7466    1.4791    0.0000 C   0  0  0  0  0  0  0  0  0  0  0  0
    2.4067   -4.6617    0.0000 C   0  0  0  0  0  0  0  0  0  0  0  0
    2.5878   -2.9392    0.0000 C   0  0  0  0  0  0  0  0  0  0  0  0
    2.0000   -3.7482    0.0000 C   0  0  0  0  0  0  0  0  0  0  0  0
   11.6127    1.9791    0.0000 C   0  0  0  0  0  0  0  0  0  0  0  0
    9.8806    1.9791    0.0000 C   0  0  0  0  0  0  0  0  0  0  0  0
   11.6127    2.9791    0.0000 C   0  0  0  0  0  0  0  0  0  0  0  0
    9.8806    2.9791    0.0000 C   0  0  0  0  0  0  0  0  0  0  0  0
   10.7466    3.4791    0.0000 C   0  0  0  0  0  0  0  0  0  0  0  0
   11.6127    4.9791    0.0000 C   0  0  0  0  0  0  0  0  0  0  0  0
   11.6127    5.9791    0.0000 C   0  0  0  0  0  0  0  0  0  0  0  0
   12.4787    6.4791    0.0000 C   0  0  0  0  0  0  0  0  0  0  0  0
   12.4787    7.4791    0.0000 C   0  0  0  0  0  0  0  0  0  0  0  0
   13.3447    5.9791    0.0000 C   0  0  0  0  0  0  0  0  0  0  0  0
   13.3447    7.9791    0.0000 C   0  0  0  0  0  0  0  0  0  0  0  0
   14.2107    6.4791    0.0000 C   0  0  0  0  0  0  0  0  0  0  0  0
   14.2107    7.4791    0.0000 C   0  0  0  0  0  0  0  0  0  0  0  0
    8.6228   -3.7932    0.0000 H   0  0  0  0  0  0  0  0  0  0  0  0
    6.3437   -2.7785    0.0000 H   0  0  0  0  0  0  0  0  0  0  0  0
    6.4995   -4.4755    0.0000 H   0  0  0  0  0  0  0  0  0  0  0  0
    7.2575   -4.8130    0.0000 H   0  0  0  0  0  0  0  0  0  0  0  0
    7.5450   -2.0772    0.0000 H   0  0  0  0  0  0  0  0  0  0  0  0
    6.7334   -2.2497    0.0000 H   0  0  0  0  0  0  0  0  0  0  0  0
    9.5515   -1.8309    0.0000 H   0  0  0  0  0  0  0  0  0  0  0  0
    8.6855   -0.7109    0.0000 H   0  0  0  0  0  0  0  0  0  0  0  0
    7.9896   -5.8543    0.0000 H   0  0  0  0  0  0  0  0  0  0  0  0
   10.4175   -1.3309    0.0000 H   0  0  0  0  0  0  0  0  0  0  0  0
    4.8127   -4.6578    0.0000 H   0  0  0  0  0  0  0  0  0  0  0  0
    5.5408   -4.3336    0.0000 H   0  0  0  0  0  0  0  0  0  0  0  0
    8.7686   -0.0209    0.0000 H   0  0  0  0  0  0  0  0  0  0  0  0
    8.1486    0.5991    0.0000 H   0  0  0  0  0  0  0  0  0  0  0  0
    7.5286   -0.0209    0.0000 H   0  0  0  0  0  0  0  0  0  0  0  0
    6.9725   -0.9840    0.0000 H   0  0  0  0  0  0  0  0  0  0  0  0
    6.7456   -1.8309    0.0000 H   0  0  0  0  0  0  0  0  0  0  0  0
    7.5925   -2.0578    0.0000 H   0  0  0  0  0  0  0  0  0  0  0  0
    8.7327   -6.5234    0.0000 H   0  0  0  0  0  0  0  0  0  0  0  0
   10.7620   -5.6411    0.0000 H   0  0  0  0  0  0  0  0  0  0  0  0
    9.9824   -5.4754    0.0000 H   0  0  0  0  0  0  0  0  0  0  0  0
    8.5248   -7.5016    0.0000 H   0  0  0  0  0  0  0  0  0  0  0  0
   10.9587   -0.1035    0.0000 H   0  0  0  0  0  0  0  0  0  0  0  0
   11.3572    0.5868    0.0000 H   0  0  0  0  0  0  0  0  0  0  0  0
   10.6017   -7.1527    0.0000 H   0  0  0  0  0  0  0  0  0  0  0  0
   11.4773   -7.1068    0.0000 H   0  0  0  0  0  0  0  0  0  0  0  0
   11.4315   -6.2312    0.0000 H   0  0  0  0  0  0  0  0  0  0  0  0
    3.6534   -5.3327    0.0000 H   0  0  0  0  0  0  0  0  0  0  0  0
    3.9467   -2.5421    0.0000 H   0  0  0  0  0  0  0  0  0  0  0  0
    2.0423   -5.1633    0.0000 H   0  0  0  0  0  0  0  0  0  0  0  0
    2.3356   -2.3728    0.0000 H   0  0  0  0  0  0  0  0  0  0  0  0
    1.3834   -3.6834    0.0000 H   0  0  0  0  0  0  0  0  0  0  0  0
   12.1496    1.6691    0.0000 H   0  0  0  0  0  0  0  0  0  0  0  0
    9.3437    1.6691    0.0000 H   0  0  0  0  0  0  0  0  0  0  0  0
   12.1496    3.2891    0.0000 H   0  0  0  0  0  0  0  0  0  0  0  0
    9.3437    3.2891    0.0000 H   0  0  0  0  0  0  0  0  0  0  0  0
   10.2097    4.7891    0.0000 H   0  0  0  0  0  0  0  0  0  0  0  0
   11.4006    6.5617    0.0000 H   0  0  0  0  0  0  0  0  0  0  0  0
   11.0021    5.8714    0.0000 H   0  0  0  0  0  0  0  0  0  0  0  0
   11.9417    7.7891    0.0000 H   0  0  0  0  0  0  0  0  0  0  0  0
   13.3447    5.3591    0.0000 H   0  0  0  0  0  0  0  0  0  0  0  0
   13.3447    8.5991    0.0000 H   0  0  0  0  0  0  0  0  0  0  0  0
   14.7477    6.1691    0.0000 H   0  0  0  0  0  0  0  0  0  0  0  0
   14.7477    7.7891    0.0000 H   0  0  0  0  0  0  0  0  0  0  0  0
 12  1  1  1  0  0  0
  1 19  1  0  0  0  0
  2 15  2  0  0  0  0
  3 17  2  0  0  0  0
  4 25  2  0  0  0  0
  5 26  2  0  0  0  0
  6 40  2  0  0  0  0
  7 11  1  0  0  0  0
  7 14  1  0  0  0  0
  7 15  1  0  0  0  0
  8 17  1  0  0  0  0
 22  8  1  1  0  0  0
  8 56  1  0  0  0  0
 16  9  1  6  0  0  0
  9 25  1  0  0  0  0
  9 57  1  0  0  0  0
 10 39  1  0  0  0  0
 10 40  1  0  0  0  0
 10 84  1  0  0  0  0
 11 13  1  0  0  0  0
 11 17  1  6  0  0  0
 11 48  1  0  0  0  0
 12 13  1  0  0  0  0
 12 14  1  0  0  0  0
 12 49  1  0  0  0  0
 13 50  1  0  0  0  0
 13 51  1  0  0  0  0
 14 52  1  0  0  0  0
 14 53  1  0  0  0  0
 15 16  1  0  0  0  0
 16 18  1  0  0  0  0
 16 54  1  0  0  0  0
 18 20  1  0  0  0  0
 18 21  1  0  0  0  0
 18 55  1  0  0  0  0
 19 23  1  0  0  0  0
 19 58  1  0  0  0  0
 19 59  1  0  0  0  0
 20 60  1  0  0  0  0
 20 61  1  0  0  0  0
 20 62  1  0  0  0  0
 21 63  1  0  0  0  0
 21 64  1  0  0  0  0
 21 65  1  0  0  0  0
 22 24  1  0  0  0  0
 22 26  1  0  0  0  0
 22 66  1  0  0  0  0
 23 29  2  0  0  0  0
 23 30  1  0  0  0  0
 24 28  1  0  0  0  0
 24 67  1  0  0  0  0
 24 68  1  0  0  0  0
 25 27  1  0  0  0  0
 26 69  1  0  0  0  0
 27 31  1  0  0  0  0
 27 70  1  0  0  0  0
 27 71  1  0  0  0  0
 28 72  1  0  0  0  0
 28 73  1  0  0  0  0
 28 74  1  0  0  0  0
 29 32  1  0  0  0  0
 29 75  1  0  0  0  0
 30 33  2  0  0  0  0
 30 76  1  0  0  0  0
 31 35  2  0  0  0  0
 31 36  1  0  0  0  0
 32 34  2  0  0  0  0
 32 77  1  0  0  0  0
 33 34  1  0  0  0  0
 33 78  1  0  0  0  0
 34 79  1  0  0  0  0
 35 37  1  0  0  0  0
 35 80  1  0  0  0  0
 36 38  2  0  0  0  0
 36 81  1  0  0  0  0
 37 39  2  0  0  0  0
 37 82  1  0  0  0  0
 38 39  1  0  0  0  0
 38 83  1  0  0  0  0
 40 41  1  0  0  0  0
 41 42  1  0  0  0  0
 41 85  1  0  0  0  0
 41 86  1  0  0  0  0
 42 43  2  0  0  0  0
 42 44  1  0  0  0  0
 43 45  1  0  0  0  0
 43 87  1  0  0  0  0
 44 46  2  0  0  0  0
 44 88  1  0  0  0  0
 45 47  2  0  0  0  0
 45 89  1  0  0  0  0
 46 47  1  0  0  0  0
 46 90  1  0  0  0  0
 47 91  1  0  0  0  0
M  END
> <PUBCHEM_COMPOUND_CID>
506775
> <PUBCHEM_COMPOUND_CANONICALIZED>
1
> <PUBCHEM_CACTVS_COMPLEXITY>
1030
> <PUBCHEM_CACTVS_HBOND_ACCEPTOR>
6
> <PUBCHEM_CACTVS_HBOND_DONOR>
3
> <PUBCHEM_CACTVS_ROTATABLE_BOND>
15
> <PUBCHEM_CACTVS_SUBSKEYS>
AAADcfB/uAAAAAAAAAAAAAAAAAAAAWAAAAAwYMAAAAAAAAABUAAAHgAQAAAADTzhmAYywIPABACIAi1S0ACCAAAhAgAIiIGIbIgKZjLAtbmXMAhm1gHY6Ae6yaCOCAAAAAAAAAAQAAAAAAAAAAAAAAAAAA==
> <PUBCHEM_IUPAC_OPENEYE_NAME>
(2S,4R)-4-benzyloxy-N-[(1S)-1-formylpropyl]-1-[(2S)-3-methyl-2-[[2-[4-[(2-phenylacetyl)amino]phenyl]acetyl]amino]butanoyl]pyrrolidine-2-carboxamide
> <PUBCHEM_IUPAC_CAS_NAME>
(2S,4R)-1-[(2S)-3-methyl-1-oxo-2-[[1-oxo-2-[4-[(1-oxo-2-phenylethyl)amino]phenyl]ethyl]amino]butyl]-N-[(2S)-1-oxobutan-2-yl]-4-phenylmethoxy-2-pyrrolidinecarboxamide
> <PUBCHEM_IUPAC_NAME_MARKUP>
(2<I>S</I>,4<I>R</I>)-1-[(2<I>S</I>)-3-methyl-2-[[2-[4-[(2-phenylacetyl)amino]phenyl]acetyl]amino]butanoyl]-<I>N</I>-[(2<I>S</I>)-1-oxobutan-2-yl]-4-phenylmethoxypyrrolidine-2-carboxamide
> <PUBCHEM_IUPAC_NAME>
(2S,4R)-1-[(2S)-3-methyl-2-[[2-[4-[(2-phenylacetyl)amino]phenyl]acetyl]amino]butanoyl]-N-[(2S)-1-oxobutan-2-yl]-4-phenylmethoxypyrrolidine-2-carboxamide
> <PUBCHEM_IUPAC_SYSTEMATIC_NAME>
(2S,4R)-1-[(2S)-3-methyl-2-[2-[4-(2-phenylethanoylamino)phenyl]ethanoylamino]butanoyl]-N-[(2S)-1-oxidanylidenebutan-2-yl]-4-phenylmethoxy-pyrrolidine-2-carboxamide
> <PUBCHEM_IUPAC_TRADITIONAL_NAME>
(2S,4R)-4-benzoxy-N-[(1S)-1-formylpropyl]-1-[(2S)-3-methyl-2-[[2-[4-[(2-phenylacetyl)amino]phenyl]acetyl]amino]butanoyl]pyrrolidine-2-carboxamide
> <PUBCHEM_IUPAC_INCHI>
InChI=1S/C37H44N4O6/c1-4-29(23-42)39-36(45)32-21-31(47-24-28-13-9-6-10-14-28)22-41(32)37(46)35(25(2)3)40-34(44)20-27-15-17-30(18-16-27)38-33(43)19-26-11-7-5-8-12-26/h5-18,23,25,29,31-32,35H,4,19-22,24H2,1-3H3,(H,38,43)(H,39,45)(H,40,44)/t29-,31+,32-,35-/m0/s1
> <PUBCHEM_IUPAC_INCHIKEY>
BXDVJOKXIWOUEZ-ZRRBMYGLSA-N
> <PUBCHEM_XLOGP3_AA>
4.2
> <PUBCHEM_EXACT_MASS>
640.32608514
> <PUBCHEM_MOLECULAR_FORMULA>
C37H44N4O6
> <PUBCHEM_MOLECULAR_WEIGHT>
640.8
> <PUBCHEM_OPENEYE_CAN_SMILES>
CCC(C=O)NC(=O)C1CC(CN1C(=O)C(C(C)C)NC(=O)CC2=CC=C(C=C2)NC(=O)CC3=CC=CC=C3)OCC4=CC=CC=C4
> <PUBCHEM_OPENEYE_ISO_SMILES>
CC[C@@H](C=O)NC(=O)[C@@H]1C[C@H](CN1C(=O)[C@H](C(C)C)NC(=O)CC2=CC=C(C=C2)NC(=O)CC3=CC=CC=C3)OCC4=CC=CC=C4
> <PUBCHEM_CACTVS_TPSA>
134
> <PUBCHEM_MONOISOTOPIC_WEIGHT>
640.32608514
> <PUBCHEM_TOTAL_CHARGE>
0
> <PUBCHEM_HEAVY_ATOM_COUNT>
47
> <PUBCHEM_ATOM_DEF_STEREO_COUNT>
4
> <PUBCHEM_ATOM_UDEF_STEREO_COUNT>
0
> <PUBCHEM_BOND_DEF_STEREO_COUNT>
0
> <PUBCHEM_BOND_UDEF_STEREO_COUNT>
0
> <PUBCHEM_ISOTOPIC_ATOM_COUNT>
0
> <PUBCHEM_COMPONENT_COUNT>
1
> <PUBCHEM_CACTVS_TAUTO_COUNT>
-1
> <PUBCHEM_COORDINATE_TYPE>
1
5
255
> <PUBCHEM_BONDANNOTATIONS>
12  1  5
11  17  6
23  29  8
23  30  8
29  32  8
30  33  8
31  35  8
31  36  8
32  34  8
33  34  8
35  37  8
36  38  8
37  39  8
38  39  8
42  43  8
42  44  8
43  45  8
44  46  8
45  47  8
46  47  8
22  8  5
16  9  6
$$$$
