506774
  -OEChem-10302200282D
 71 73  0     1  0  0  0  0  0999 V2000
    3.7634    2.4514    0.0000 O   0  0  0  0  0  0  0  0  0  0  0  0
    5.7172   -1.3965    0.0000 O   0  0  0  0  0  0  0  0  0  0  0  0
    6.8191   -0.5959    0.0000 O   0  0  0  0  0  0  0  0  0  0  0  0
    2.2531   -2.3965    0.0000 O   0  0  0  0  0  0  0  0  0  0  0  0
    9.9996    1.1025    0.0000 O   0  0  0  0  0  0  0  0  0  0  0  0
    4.8511    0.1035    0.0000 N   0  0  0  0  0  0  0  0  0  0  0  0
    7.3544    1.0514    0.0000 N   0  0  0  0  0  0  0  0  0  0  0  0
    3.9851   -2.3965    0.0000 N   0  0  0  0  0  0  0  0  0  0  0  0
    5.6602    0.6913    0.0000 C   0  0  1  0  0  0  0  0  0  0  0  0
    4.3511    1.6424    0.0000 C   0  0  2  0  0  0  0  0  0  0  0  0
    5.3511    1.6424    0.0000 C   0  0  0  0  0  0  0  0  0  0  0  0
    4.0421    0.6913    0.0000 C   0  0  0  0  0  0  0  0  0  0  0  0
    4.8511   -0.8965    0.0000 C   0  0  0  0  0  0  0  0  0  0  0  0
    3.9851   -1.3965    0.0000 C   0  0  2  0  0  0  0  0  0  0  0  0
    6.6112    0.3823    0.0000 C   0  0  0  0  0  0  0  0  0  0  0  0
    3.1191   -0.8965    0.0000 C   0  0  0  0  0  0  0  0  0  0  0  0
    4.1701    3.3649    0.0000 C   0  0  0  0  0  0  0  0  0  0  0  0
    2.2531   -1.3965    0.0000 C   0  0  0  0  0  0  0  0  0  0  0  0
    3.1191    0.1035    0.0000 C   0  0  0  0  0  0  0  0  0  0  0  0
    8.3054    0.7424    0.0000 C   0  0  1  0  0  0  0  0  0  0  0  0
    8.5133   -0.2358    0.0000 C   0  0  0  0  0  0  0  0  0  0  0  0
    3.5823    4.1739    0.0000 C   0  0  0  0  0  0  0  0  0  0  0  0
    3.1191   -2.8965    0.0000 C   0  0  0  0  0  0  0  0  0  0  0  0
    9.0486    1.4115    0.0000 C   0  0  0  0  0  0  0  0  0  0  0  0
    9.4644   -0.5448    0.0000 C   0  0  0  0  0  0  0  0  0  0  0  0
    3.1191   -3.8965    0.0000 C   0  0  0  0  0  0  0  0  0  0  0  0
    2.5878    4.0694    0.0000 C   0  0  0  0  0  0  0  0  0  0  0  0
    3.9890    5.0875    0.0000 C   0  0  0  0  0  0  0  0  0  0  0  0
    2.0000    4.8784    0.0000 C   0  0  0  0  0  0  0  0  0  0  0  0
    3.4013    5.8965    0.0000 C   0  0  0  0  0  0  0  0  0  0  0  0
    2.2531   -4.3965    0.0000 C   0  0  0  0  0  0  0  0  0  0  0  0
    3.9851   -4.3965    0.0000 C   0  0  0  0  0  0  0  0  0  0  0  0
    2.4067    5.7920    0.0000 C   0  0  0  0  0  0  0  0  0  0  0  0
    2.2531   -5.3965    0.0000 C   0  0  0  0  0  0  0  0  0  0  0  0
    3.9851   -5.3965    0.0000 C   0  0  0  0  0  0  0  0  0  0  0  0
    3.1191   -5.8965    0.0000 C   0  0  0  0  0  0  0  0  0  0  0  0
    5.7572    0.0789    0.0000 H   0  0  0  0  0  0  0  0  0  0  0  0
    4.6326    2.1948    0.0000 H   0  0  0  0  0  0  0  0  0  0  0  0
    5.9576    1.7713    0.0000 H   0  0  0  0  0  0  0  0  0  0  0  0
    5.2863    2.2590    0.0000 H   0  0  0  0  0  0  0  0  0  0  0  0
    3.4757    0.9435    0.0000 H   0  0  0  0  0  0  0  0  0  0  0  0
    3.7321    0.1544    0.0000 H   0  0  0  0  0  0  0  0  0  0  0  0
    3.4482   -1.7065    0.0000 H   0  0  0  0  0  0  0  0  0  0  0  0
    3.6560   -0.5865    0.0000 H   0  0  0  0  0  0  0  0  0  0  0  0
    7.2254    1.6579    0.0000 H   0  0  0  0  0  0  0  0  0  0  0  0
    4.6841    3.0182    0.0000 H   0  0  0  0  0  0  0  0  0  0  0  0
    4.6008    3.8109    0.0000 H   0  0  0  0  0  0  0  0  0  0  0  0
    4.5220   -2.7065    0.0000 H   0  0  0  0  0  0  0  0  0  0  0  0
    1.9431   -0.8596    0.0000 H   0  0  0  0  0  0  0  0  0  0  0  0
    1.7161   -1.7065    0.0000 H   0  0  0  0  0  0  0  0  0  0  0  0
    2.5631   -1.9334    0.0000 H   0  0  0  0  0  0  0  0  0  0  0  0
    3.7391    0.1035    0.0000 H   0  0  0  0  0  0  0  0  0  0  0  0
    3.1191    0.7235    0.0000 H   0  0  0  0  0  0  0  0  0  0  0  0
    2.4991    0.1035    0.0000 H   0  0  0  0  0  0  0  0  0  0  0  0
    8.1765    1.3488    0.0000 H   0  0  0  0  0  0  0  0  0  0  0  0
    7.8937   -0.2574    0.0000 H   0  0  0  0  0  0  0  0  0  0  0  0
    8.4270   -0.8497    0.0000 H   0  0  0  0  0  0  0  0  0  0  0  0
    8.9197    2.0180    0.0000 H   0  0  0  0  0  0  0  0  0  0  0  0
    9.2728   -1.1344    0.0000 H   0  0  0  0  0  0  0  0  0  0  0  0
   10.0540   -0.7364    0.0000 H   0  0  0  0  0  0  0  0  0  0  0  0
    9.6560    0.0449    0.0000 H   0  0  0  0  0  0  0  0  0  0  0  0
    2.3356    3.5030    0.0000 H   0  0  0  0  0  0  0  0  0  0  0  0
    4.6056    5.1523    0.0000 H   0  0  0  0  0  0  0  0  0  0  0  0
    1.3834    4.8136    0.0000 H   0  0  0  0  0  0  0  0  0  0  0  0
    3.6534    6.4629    0.0000 H   0  0  0  0  0  0  0  0  0  0  0  0
    1.7161   -4.0865    0.0000 H   0  0  0  0  0  0  0  0  0  0  0  0
    4.5220   -4.0865    0.0000 H   0  0  0  0  0  0  0  0  0  0  0  0
    2.0423    6.2936    0.0000 H   0  0  0  0  0  0  0  0  0  0  0  0
    1.7161   -5.7065    0.0000 H   0  0  0  0  0  0  0  0  0  0  0  0
    4.5220   -5.7065    0.0000 H   0  0  0  0  0  0  0  0  0  0  0  0
    3.1191   -6.5165    0.0000 H   0  0  0  0  0  0  0  0  0  0  0  0
 10  1  1  6  0  0  0
  1 17  1  0  0  0  0
  2 13  2  0  0  0  0
  3 15  2  0  0  0  0
  4 23  2  0  0  0  0
  5 24  2  0  0  0  0
  6  9  1  0  0  0  0
  6 12  1  0  0  0  0
  6 13  1  0  0  0  0
  7 15  1  0  0  0  0
 20  7  1  6  0  0  0
  7 45  1  0  0  0  0
 14  8  1  1  0  0  0
  8 23  1  0  0  0  0
  8 48  1  0  0  0  0
  9 11  1  0  0  0  0
  9 15  1  1  0  0  0
  9 37  1  0  0  0  0
 10 11  1  0  0  0  0
 10 12  1  0  0  0  0
 10 38  1  0  0  0  0
 11 39  1  0  0  0  0
 11 40  1  0  0  0  0
 12 41  1  0  0  0  0
 12 42  1  0  0  0  0
 13 14  1  0  0  0  0
 14 16  1  0  0  0  0
 14 43  1  0  0  0  0
 16 18  1  0  0  0  0
 16 19  1  0  0  0  0
 16 44  1  0  0  0  0
 17 22  1  0  0  0  0
 17 46  1  0  0  0  0
 17 47  1  0  0  0  0
 18 49  1  0  0  0  0
 18 50  1  0  0  0  0
 18 51  1  0  0  0  0
 19 52  1  0  0  0  0
 19 53  1  0  0  0  0
 19 54  1  0  0  0  0
 20 21  1  0  0  0  0
 20 24  1  0  0  0  0
 20 55  1  0  0  0  0
 21 25  1  0  0  0  0
 21 56  1  0  0  0  0
 21 57  1  0  0  0  0
 22 27  2  0  0  0  0
 22 28  1  0  0  0  0
 23 26  1  0  0  0  0
 24 58  1  0  0  0  0
 25 59  1  0  0  0  0
 25 60  1  0  0  0  0
 25 61  1  0  0  0  0
 26 31  2  0  0  0  0
 26 32  1  0  0  0  0
 27 29  1  0  0  0  0
 27 62  1  0  0  0  0
 28 30  2  0  0  0  0
 28 63  1  0  0  0  0
 29 33  2  0  0  0  0
 29 64  1  0  0  0  0
 30 33  1  0  0  0  0
 30 65  1  0  0  0  0
 31 34  1  0  0  0  0
 31 66  1  0  0  0  0
 32 35  2  0  0  0  0
 32 67  1  0  0  0  0
 33 68  1  0  0  0  0
 34 36  2  0  0  0  0
 34 69  1  0  0  0  0
 35 36  1  0  0  0  0
 35 70  1  0  0  0  0
 36 71  1  0  0  0  0
M  END
> <PUBCHEM_COMPOUND_CID>
506774
> <PUBCHEM_COMPOUND_CANONICALIZED>
1
> <PUBCHEM_CACTVS_COMPLEXITY>
746
> <PUBCHEM_CACTVS_HBOND_ACCEPTOR>
5
> <PUBCHEM_CACTVS_HBOND_DONOR>
2
> <PUBCHEM_CACTVS_ROTATABLE_BOND>
11
> <PUBCHEM_CACTVS_SUBSKEYS>
AAADcfB7OAAAAAAAAAAAAAAAAAAAAWAAAAAwYAAAAAAAAAABQAAAHgAQAAAADTzhmAYyAIPABACIAilSkACCAAAkAAAIiIGIDMgKZjKAtTmXMQhm1gGYqYe6ySCOAAAAAAAAAAAAAAAAAAAAAAAAAAAAAA==
> <PUBCHEM_IUPAC_OPENEYE_NAME>
(2S,4R)-1-[(2S)-2-benzamido-3-methyl-butanoyl]-4-benzyloxy-N-[(1S)-1-formylpropyl]pyrrolidine-2-carboxamide
> <PUBCHEM_IUPAC_CAS_NAME>
(2S,4R)-1-[(2S)-2-benzamido-3-methyl-1-oxobutyl]-N-[(2S)-1-oxobutan-2-yl]-4-phenylmethoxy-2-pyrrolidinecarboxamide
> <PUBCHEM_IUPAC_NAME_MARKUP>
(2<I>S</I>,4<I>R</I>)-1-[(2<I>S</I>)-2-benzamido-3-methylbutanoyl]-<I>N</I>-[(2<I>S</I>)-1-oxobutan-2-yl]-4-phenylmethoxypyrrolidine-2-carboxamide
> <PUBCHEM_IUPAC_NAME>
(2S,4R)-1-[(2S)-2-benzamido-3-methylbutanoyl]-N-[(2S)-1-oxobutan-2-yl]-4-phenylmethoxypyrrolidine-2-carboxamide
> <PUBCHEM_IUPAC_SYSTEMATIC_NAME>
(2S,4R)-1-[(2S)-2-benzamido-3-methyl-butanoyl]-N-[(2S)-1-oxidanylidenebutan-2-yl]-4-phenylmethoxy-pyrrolidine-2-carboxamide
> <PUBCHEM_IUPAC_TRADITIONAL_NAME>
(2S,4R)-1-[(2S)-2-benzamido-3-methyl-butanoyl]-4-benzoxy-N-[(1S)-1-formylpropyl]pyrrolidine-2-carboxamide
> <PUBCHEM_IUPAC_INCHI>
InChI=1S/C28H35N3O5/c1-4-22(17-32)29-27(34)24-15-23(36-18-20-11-7-5-8-12-20)16-31(24)28(35)25(19(2)3)30-26(33)21-13-9-6-10-14-21/h5-14,17,19,22-25H,4,15-16,18H2,1-3H3,(H,29,34)(H,30,33)/t22-,23+,24-,25-/m0/s1
> <PUBCHEM_IUPAC_INCHIKEY>
AXLVKGIGVUHTMG-NDBXHCKUSA-N
> <PUBCHEM_XLOGP3_AA>
3.5
> <PUBCHEM_EXACT_MASS>
493.25767123
> <PUBCHEM_MOLECULAR_FORMULA>
C28H35N3O5
> <PUBCHEM_MOLECULAR_WEIGHT>
493.6
> <PUBCHEM_OPENEYE_CAN_SMILES>
CCC(C=O)NC(=O)C1CC(CN1C(=O)C(C(C)C)NC(=O)C2=CC=CC=C2)OCC3=CC=CC=C3
> <PUBCHEM_OPENEYE_ISO_SMILES>
CC[C@@H](C=O)NC(=O)[C@@H]1C[C@H](CN1C(=O)[C@H](C(C)C)NC(=O)C2=CC=CC=C2)OCC3=CC=CC=C3
> <PUBCHEM_CACTVS_TPSA>
105
> <PUBCHEM_MONOISOTOPIC_WEIGHT>
493.25767123
> <PUBCHEM_TOTAL_CHARGE>
0
> <PUBCHEM_HEAVY_ATOM_COUNT>
36
> <PUBCHEM_ATOM_DEF_STEREO_COUNT>
4
> <PUBCHEM_ATOM_UDEF_STEREO_COUNT>
0
> <PUBCHEM_BOND_DEF_STEREO_COUNT>
0
> <PUBCHEM_BOND_UDEF_STEREO_COUNT>
0
> <PUBCHEM_ISOTOPIC_ATOM_COUNT>
0
> <PUBCHEM_COMPONENT_COUNT>
1
> <PUBCHEM_CACTVS_TAUTO_COUNT>
-1
> <PUBCHEM_COORDINATE_TYPE>
1
5
255
> <PUBCHEM_BONDANNOTATIONS>
10  1  6
22  27  8
22  28  8
26  31  8
26  32  8
27  29  8
28  30  8
29  33  8
30  33  8
31  34  8
32  35  8
34  36  8
35  36  8
20  7  6
14  8  5
9  15  5
$$$$
