506752
  -OEChem-10302200282D
 88 91  0     1  0  0  0  0  0999 V2000
    5.5714    1.0028    0.0000 O   0  0  0  0  0  0  0  0  0  0  0  0
    9.8806    0.7709    0.0000 O   0  0  0  0  0  0  0  0  0  0  0  0
    9.7382    2.1255    0.0000 O   0  0  0  0  0  0  0  0  0  0  0  0
    9.0146   -2.7291    0.0000 O   0  0  0  0  0  0  0  0  0  0  0  0
    9.8576    5.7291    0.0000 O   0  0  0  0  0  0  0  0  0  0  0  0
   12.4787   -3.7291    0.0000 O   0  0  0  0  0  0  0  0  0  0  0  0
    8.1486    0.7709    0.0000 N   0  0  0  0  0  0  0  0  0  0  0  0
    9.8806   -1.2291    0.0000 N   0  0  0  0  0  0  0  0  0  0  0  0
    8.5792    3.4127    0.0000 N   0  0  0  0  0  0  0  0  0  0  0  0
   11.6127   -2.2291    0.0000 N   0  0  0  0  0  0  0  0  0  0  0  0
    9.0146   -5.7291    0.0000 N   0  0  0  0  0  0  0  0  0  0  0  0
   14.2107   -2.7291    0.0000 N   0  0  0  0  0  0  0  0  0  0  0  0
   14.2107   -0.7291    0.0000 N   0  0  0  0  0  0  0  0  0  0  0  0
    8.0440    1.7654    0.0000 C   0  0  1  0  0  0  0  0  0  0  0  0
    6.5659    1.1073    0.0000 C   0  0  2  0  0  0  0  0  0  0  0  0
    7.0659    1.9733    0.0000 C   0  0  0  0  0  0  0  0  0  0  0  0
    7.2350    0.3642    0.0000 C   0  0  0  0  0  0  0  0  0  0  0  0
    9.0146    0.2709    0.0000 C   0  0  0  0  0  0  0  0  0  0  0  0
    9.0146   -0.7291    0.0000 C   0  0  2  0  0  0  0  0  0  0  0  0
    8.7872    2.4346    0.0000 C   0  0  0  0  0  0  0  0  0  0  0  0
    8.1486   -1.2291    0.0000 C   0  0  0  0  0  0  0  0  0  0  0  0
    4.9836    1.8118    0.0000 C   0  0  0  0  0  0  0  0  0  0  0  0
    7.2825   -0.7291    0.0000 C   0  0  0  0  0  0  0  0  0  0  0  0
    8.1486   -2.2291    0.0000 C   0  0  0  0  0  0  0  0  0  0  0  0
    9.3224    4.0818    0.0000 C   0  0  1  0  0  0  0  0  0  0  0  0
    9.8806   -2.2291    0.0000 C   0  0  0  0  0  0  0  0  0  0  0  0
   10.7466   -2.7291    0.0000 C   0  0  2  0  0  0  0  0  0  0  0  0
    3.9890    1.7073    0.0000 C   0  0  0  0  0  0  0  0  0  0  0  0
   10.2735    3.7728    0.0000 C   0  0  0  0  0  0  0  0  0  0  0  0
    9.1145    5.0600    0.0000 C   0  0  0  0  0  0  0  0  0  0  0  0
   10.7466   -3.7291    0.0000 C   0  0  0  0  0  0  0  0  0  0  0  0
   11.0166    4.4419    0.0000 C   0  0  0  0  0  0  0  0  0  0  0  0
    3.5823    0.7937    0.0000 C   0  0  0  0  0  0  0  0  0  0  0  0
    3.4013    2.5163    0.0000 C   0  0  0  0  0  0  0  0  0  0  0  0
    9.8806   -4.2291    0.0000 C   0  0  0  0  0  0  0  0  0  0  0  0
    2.5878    0.6892    0.0000 C   0  0  0  0  0  0  0  0  0  0  0  0
    2.4067    2.4118    0.0000 C   0  0  0  0  0  0  0  0  0  0  0  0
   12.4787   -2.7291    0.0000 C   0  0  0  0  0  0  0  0  0  0  0  0
    2.0000    1.4982    0.0000 C   0  0  0  0  0  0  0  0  0  0  0  0
    9.0146   -3.7291    0.0000 C   0  0  0  0  0  0  0  0  0  0  0  0
    9.8806   -5.2291    0.0000 C   0  0  0  0  0  0  0  0  0  0  0  0
   13.3447   -2.2291    0.0000 C   0  0  0  0  0  0  0  0  0  0  0  0
    8.1486   -4.2291    0.0000 C   0  0  0  0  0  0  0  0  0  0  0  0
    8.1486   -5.2291    0.0000 C   0  0  0  0  0  0  0  0  0  0  0  0
   13.3447   -1.2291    0.0000 C   0  0  0  0  0  0  0  0  0  0  0  0
   15.0768   -2.2291    0.0000 C   0  0  0  0  0  0  0  0  0  0  0  0
   15.0768   -1.2291    0.0000 C   0  0  0  0  0  0  0  0  0  0  0  0
    8.6228    1.5432    0.0000 H   0  0  0  0  0  0  0  0  0  0  0  0
    6.3437    0.5285    0.0000 H   0  0  0  0  0  0  0  0  0  0  0  0
    7.2575    2.5630    0.0000 H   0  0  0  0  0  0  0  0  0  0  0  0
    6.4995    2.2255    0.0000 H   0  0  0  0  0  0  0  0  0  0  0  0
    6.7334   -0.0003    0.0000 H   0  0  0  0  0  0  0  0  0  0  0  0
    7.5450   -0.1728    0.0000 H   0  0  0  0  0  0  0  0  0  0  0  0
    9.5515   -0.4191    0.0000 H   0  0  0  0  0  0  0  0  0  0  0  0
    8.6855   -1.5391    0.0000 H   0  0  0  0  0  0  0  0  0  0  0  0
   10.4175   -0.9191    0.0000 H   0  0  0  0  0  0  0  0  0  0  0  0
    7.9896    3.6043    0.0000 H   0  0  0  0  0  0  0  0  0  0  0  0
    5.5408    2.0836    0.0000 H   0  0  0  0  0  0  0  0  0  0  0  0
    4.8127    2.4078    0.0000 H   0  0  0  0  0  0  0  0  0  0  0  0
    7.5925   -0.1922    0.0000 H   0  0  0  0  0  0  0  0  0  0  0  0
    6.7456   -0.4191    0.0000 H   0  0  0  0  0  0  0  0  0  0  0  0
    6.9725   -1.2660    0.0000 H   0  0  0  0  0  0  0  0  0  0  0  0
    7.5286   -2.2291    0.0000 H   0  0  0  0  0  0  0  0  0  0  0  0
    8.1486   -2.8491    0.0000 H   0  0  0  0  0  0  0  0  0  0  0  0
    8.7686   -2.2291    0.0000 H   0  0  0  0  0  0  0  0  0  0  0  0
    9.4513    3.4754    0.0000 H   0  0  0  0  0  0  0  0  0  0  0  0
   10.7466   -2.1091    0.0000 H   0  0  0  0  0  0  0  0  0  0  0  0
    9.9824    3.2254    0.0000 H   0  0  0  0  0  0  0  0  0  0  0  0
   10.7620    3.3911    0.0000 H   0  0  0  0  0  0  0  0  0  0  0  0
   10.9587   -4.3117    0.0000 H   0  0  0  0  0  0  0  0  0  0  0  0
   11.3572   -3.6214    0.0000 H   0  0  0  0  0  0  0  0  0  0  0  0
    8.5248    5.2516    0.0000 H   0  0  0  0  0  0  0  0  0  0  0  0
   11.4315    3.9812    0.0000 H   0  0  0  0  0  0  0  0  0  0  0  0
   11.4773    4.8568    0.0000 H   0  0  0  0  0  0  0  0  0  0  0  0
   10.6017    4.9027    0.0000 H   0  0  0  0  0  0  0  0  0  0  0  0
    3.9467    0.2921    0.0000 H   0  0  0  0  0  0  0  0  0  0  0  0
    3.6534    3.0827    0.0000 H   0  0  0  0  0  0  0  0  0  0  0  0
   11.6127   -1.6091    0.0000 H   0  0  0  0  0  0  0  0  0  0  0  0
    2.3356    0.1228    0.0000 H   0  0  0  0  0  0  0  0  0  0  0  0
    2.0423    2.9133    0.0000 H   0  0  0  0  0  0  0  0  0  0  0  0
    1.3834    1.4334    0.0000 H   0  0  0  0  0  0  0  0  0  0  0  0
    9.0146   -3.1091    0.0000 H   0  0  0  0  0  0  0  0  0  0  0  0
   10.4175   -5.5391    0.0000 H   0  0  0  0  0  0  0  0  0  0  0  0
    7.6116   -3.9191    0.0000 H   0  0  0  0  0  0  0  0  0  0  0  0
    7.6116   -5.5391    0.0000 H   0  0  0  0  0  0  0  0  0  0  0  0
   12.8078   -0.9191    0.0000 H   0  0  0  0  0  0  0  0  0  0  0  0
   15.6137   -2.5391    0.0000 H   0  0  0  0  0  0  0  0  0  0  0  0
   15.6137   -0.9191    0.0000 H   0  0  0  0  0  0  0  0  0  0  0  0
 15  1  1  6  0  0  0
  1 22  1  0  0  0  0
  2 18  2  0  0  0  0
  3 20  2  0  0  0  0
  4 26  2  0  0  0  0
  5 30  2  0  0  0  0
  6 38  2  0  0  0  0
  7 14  1  0  0  0  0
  7 17  1  0  0  0  0
  7 18  1  0  0  0  0
 19  8  1  1  0  0  0
  8 26  1  0  0  0  0
  8 56  1  0  0  0  0
  9 20  1  0  0  0  0
 25  9  1  6  0  0  0
  9 57  1  0  0  0  0
 27 10  1  1  0  0  0
 10 38  1  0  0  0  0
 10 78  1  0  0  0  0
 11 41  1  0  0  0  0
 11 44  2  0  0  0  0
 12 42  2  0  0  0  0
 12 46  1  0  0  0  0
 13 45  2  0  0  0  0
 13 47  1  0  0  0  0
 14 16  1  0  0  0  0
 14 20  1  1  0  0  0
 14 48  1  0  0  0  0
 15 16  1  0  0  0  0
 15 17  1  0  0  0  0
 15 49  1  0  0  0  0
 16 50  1  0  0  0  0
 16 51  1  0  0  0  0
 17 52  1  0  0  0  0
 17 53  1  0  0  0  0
 18 19  1  0  0  0  0
 19 21  1  0  0  0  0
 19 54  1  0  0  0  0
 21 23  1  0  0  0  0
 21 24  1  0  0  0  0
 21 55  1  0  0  0  0
 22 28  1  0  0  0  0
 22 58  1  0  0  0  0
 22 59  1  0  0  0  0
 23 60  1  0  0  0  0
 23 61  1  0  0  0  0
 23 62  1  0  0  0  0
 24 63  1  0  0  0  0
 24 64  1  0  0  0  0
 24 65  1  0  0  0  0
 25 29  1  0  0  0  0
 25 30  1  0  0  0  0
 25 66  1  0  0  0  0
 26 27  1  0  0  0  0
 27 31  1  0  0  0  0
 27 67  1  0  0  0  0
 28 33  2  0  0  0  0
 28 34  1  0  0  0  0
 29 32  1  0  0  0  0
 29 68  1  0  0  0  0
 29 69  1  0  0  0  0
 30 72  1  0  0  0  0
 31 35  1  0  0  0  0
 31 70  1  0  0  0  0
 31 71  1  0  0  0  0
 32 73  1  0  0  0  0
 32 74  1  0  0  0  0
 32 75  1  0  0  0  0
 33 36  1  0  0  0  0
 33 76  1  0  0  0  0
 34 37  2  0  0  0  0
 34 77  1  0  0  0  0
 35 40  1  0  0  0  0
 35 41  2  0  0  0  0
 36 39  2  0  0  0  0
 36 79  1  0  0  0  0
 37 39  1  0  0  0  0
 37 80  1  0  0  0  0
 38 42  1  0  0  0  0
 39 81  1  0  0  0  0
 40 43  2  0  0  0  0
 40 82  1  0  0  0  0
 41 83  1  0  0  0  0
 42 45  1  0  0  0  0
 43 44  1  0  0  0  0
 43 84  1  0  0  0  0
 44 85  1  0  0  0  0
 45 86  1  0  0  0  0
 46 47  2  0  0  0  0
 46 87  1  0  0  0  0
 47 88  1  0  0  0  0
M  END
> <PUBCHEM_COMPOUND_CID>
506752
> <PUBCHEM_COMPOUND_CANONICALIZED>
1
> <PUBCHEM_CACTVS_COMPLEXITY>
1050
> <PUBCHEM_CACTVS_HBOND_ACCEPTOR>
9
> <PUBCHEM_CACTVS_HBOND_DONOR>
3
> <PUBCHEM_CACTVS_ROTATABLE_BOND>
15
> <PUBCHEM_CACTVS_SUBSKEYS>
AAADcfB/uAAAAAAAAAAAAAAAAAAAAWAAAAA8WIAAAAAAAAAB8AAAHgAQAAAADTzhngY+gJPIFACoAz131ACCgCQ3EiAI2KG4fNgKZvrA8bmXMIhm1gHY6Me6ySCOAAAAAAAAAAAAAAAAAAAAAAAAAAAAAA==
> <PUBCHEM_IUPAC_OPENEYE_NAME>
N-[(1S)-2-[[(1S)-1-[(2S,4R)-4-benzyloxy-2-[[(1S)-1-formylpropyl]carbamoyl]pyrrolidine-1-carbonyl]-2-methyl-propyl]amino]-2-oxo-1-(3-pyridylmethyl)ethyl]pyrazine-2-carboxamide
> <PUBCHEM_IUPAC_CAS_NAME>
N-[(2S)-1-[[(2S)-3-methyl-1-oxo-1-[(2S,4R)-2-[oxo-[[(2S)-1-oxobutan-2-yl]amino]methyl]-4-phenylmethoxy-1-pyrrolidinyl]butan-2-yl]amino]-1-oxo-3-(3-pyridinyl)propan-2-yl]-2-pyrazinecarboxamide
> <PUBCHEM_IUPAC_NAME_MARKUP>
<I>N</I>-[(2<I>S</I>)-1-[[(2<I>S</I>)-3-methyl-1-oxo-1-[(2<I>S</I>,4<I>R</I>)-2-[[(2<I>S</I>)-1-oxobutan-2-yl]carbamoyl]-4-phenylmethoxypyrrolidin-1-yl]butan-2-yl]amino]-1-oxo-3-pyridin-3-ylpropan-2-yl]pyrazine-2-carboxamide
> <PUBCHEM_IUPAC_NAME>
N-[(2S)-1-[[(2S)-3-methyl-1-oxo-1-[(2S,4R)-2-[[(2S)-1-oxobutan-2-yl]carbamoyl]-4-phenylmethoxypyrrolidin-1-yl]butan-2-yl]amino]-1-oxo-3-pyridin-3-ylpropan-2-yl]pyrazine-2-carboxamide
> <PUBCHEM_IUPAC_SYSTEMATIC_NAME>
N-[(2S)-1-[[(2S)-3-methyl-1-oxidanylidene-1-[(2S,4R)-2-[[(2S)-1-oxidanylidenebutan-2-yl]carbamoyl]-4-phenylmethoxy-pyrrolidin-1-yl]butan-2-yl]amino]-1-oxidanylidene-3-pyridin-3-yl-propan-2-yl]pyrazine-2-carboxamide
> <PUBCHEM_IUPAC_TRADITIONAL_NAME>
N-[(1S)-2-[[(1S)-1-[(2S,4R)-4-benzoxy-2-[[(1S)-1-formylpropyl]carbamoyl]pyrrolidine-1-carbonyl]-2-methyl-propyl]amino]-2-keto-1-(3-pyridylmethyl)ethyl]pyrazinamide
> <PUBCHEM_IUPAC_INCHI>
InChI=1S/C34H41N7O6/c1-4-25(20-42)38-33(45)29-16-26(47-21-23-9-6-5-7-10-23)19-41(29)34(46)30(22(2)3)40-31(43)27(15-24-11-8-12-35-17-24)39-32(44)28-18-36-13-14-37-28/h5-14,17-18,20,22,25-27,29-30H,4,15-16,19,21H2,1-3H3,(H,38,45)(H,39,44)(H,40,43)/t25-,26+,27-,29-,30-/m0/s1
> <PUBCHEM_IUPAC_INCHIKEY>
GWHVFQQQOFSHQV-ZHAKMVSLSA-N
> <PUBCHEM_XLOGP3_AA>
1.9
> <PUBCHEM_EXACT_MASS>
643.31183205
> <PUBCHEM_MOLECULAR_FORMULA>
C34H41N7O6
> <PUBCHEM_MOLECULAR_WEIGHT>
643.7
> <PUBCHEM_OPENEYE_CAN_SMILES>
CCC(C=O)NC(=O)C1CC(CN1C(=O)C(C(C)C)NC(=O)C(CC2=CN=CC=C2)NC(=O)C3=NC=CN=C3)OCC4=CC=CC=C4
> <PUBCHEM_OPENEYE_ISO_SMILES>
CC[C@@H](C=O)NC(=O)[C@@H]1C[C@H](CN1C(=O)[C@H](C(C)C)NC(=O)[C@H](CC2=CN=CC=C2)NC(=O)C3=NC=CN=C3)OCC4=CC=CC=C4
> <PUBCHEM_CACTVS_TPSA>
173
> <PUBCHEM_MONOISOTOPIC_WEIGHT>
643.31183205
> <PUBCHEM_TOTAL_CHARGE>
0
> <PUBCHEM_HEAVY_ATOM_COUNT>
47
> <PUBCHEM_ATOM_DEF_STEREO_COUNT>
5
> <PUBCHEM_ATOM_UDEF_STEREO_COUNT>
0
> <PUBCHEM_BOND_DEF_STEREO_COUNT>
0
> <PUBCHEM_BOND_UDEF_STEREO_COUNT>
0
> <PUBCHEM_ISOTOPIC_ATOM_COUNT>
0
> <PUBCHEM_COMPONENT_COUNT>
1
> <PUBCHEM_CACTVS_TAUTO_COUNT>
-1
> <PUBCHEM_COORDINATE_TYPE>
1
5
255
> <PUBCHEM_BONDANNOTATIONS>
15  1  6
27  10  5
11  41  8
11  44  8
12  42  8
12  46  8
13  45  8
13  47  8
14  20  5
28  33  8
28  34  8
33  36  8
34  37  8
35  40  8
35  41  8
36  39  8
37  39  8
40  43  8
42  45  8
43  44  8
46  47  8
19  8  5
25  9  6
$$$$
