506709
  -OEChem-10302200282D
 89 90  0     1  0  0  0  0  0999 V2000
    6.2524   -2.1419    0.0000 O   0  0  0  0  0  0  0  0  0  0  0  0
    6.9334    2.1195    0.0000 O   0  0  0  0  0  0  0  0  0  0  0  0
    5.5714    2.1195    0.0000 O   0  0  0  0  0  0  0  0  0  0  0  0
   10.3238    0.8924    0.0000 O   0  0  0  0  0  0  0  0  0  0  0  0
    2.0000    2.6149    0.0000 O   0  0  0  0  0  0  0  0  0  0  0  0
   11.6804    4.2330    0.0000 O   0  0  0  0  0  0  0  0  0  0  0  0
   16.2462    4.6238    0.0000 O   0  0  0  0  0  0  0  0  0  0  0  0
   14.8450    5.6419    0.0000 O   0  0  0  0  0  0  0  0  0  0  0  0
    6.7524    0.3969    0.0000 N   0  0  0  0  0  0  0  0  0  0  0  0
    8.9225    1.9104    0.0000 N   0  0  0  0  0  0  0  0  0  0  0  0
    4.1701    1.1014    0.0000 N   0  0  0  0  0  0  0  0  0  0  0  0
   11.4993    2.5104    0.0000 N   0  0  0  0  0  0  0  0  0  0  0  0
    5.7524    0.3969    0.0000 C   0  0  1  0  0  0  0  0  0  0  0  0
    6.2524   -1.1419    0.0000 C   0  0  2  0  0  0  0  0  0  0  0  0
    5.4434   -0.5541    0.0000 C   0  0  0  0  0  0  0  0  0  0  0  0
    7.0614   -0.5541    0.0000 C   0  0  0  0  0  0  0  0  0  0  0  0
    7.3402    1.2059    0.0000 C   0  0  0  0  0  0  0  0  0  0  0  0
    8.3347    1.1014    0.0000 C   0  0  2  0  0  0  0  0  0  0  0  0
    5.1646    1.2059    0.0000 C   0  0  0  0  0  0  0  0  0  0  0  0
    8.7414    0.1879    0.0000 C   0  0  0  0  0  0  0  0  0  0  0  0
    5.3864   -2.6419    0.0000 C   0  0  0  0  0  0  0  0  0  0  0  0
    9.7360    0.0833    0.0000 C   0  0  0  0  0  0  0  0  0  0  0  0
    8.1537   -0.6212    0.0000 C   0  0  0  0  0  0  0  0  0  0  0  0
    3.5823    1.9104    0.0000 C   0  0  1  0  0  0  0  0  0  0  0  0
   10.5048    2.6149    0.0000 C   0  0  2  0  0  0  0  0  0  0  0  0
    9.9170    1.8059    0.0000 C   0  0  0  0  0  0  0  0  0  0  0  0
   10.0981    3.5285    0.0000 C   0  0  0  0  0  0  0  0  0  0  0  0
    5.3864   -3.6419    0.0000 C   0  0  0  0  0  0  0  0  0  0  0  0
    3.9890    2.8240    0.0000 C   0  0  0  0  0  0  0  0  0  0  0  0
   10.6858    4.3375    0.0000 C   0  0  0  0  0  0  0  0  0  0  0  0
    9.1035    3.6330    0.0000 C   0  0  0  0  0  0  0  0  0  0  0  0
    2.5878    1.8059    0.0000 C   0  0  0  0  0  0  0  0  0  0  0  0
    3.4013    3.6330    0.0000 C   0  0  0  0  0  0  0  0  0  0  0  0
    6.2524   -4.1419    0.0000 C   0  0  0  0  0  0  0  0  0  0  0  0
    4.5204   -4.1419    0.0000 C   0  0  0  0  0  0  0  0  0  0  0  0
   12.0871    3.3194    0.0000 C   0  0  0  0  0  0  0  0  0  0  0  0
   13.0816    3.2149    0.0000 C   0  0  0  0  0  0  0  0  0  0  0  0
    6.2524   -5.1419    0.0000 C   0  0  0  0  0  0  0  0  0  0  0  0
    4.5204   -5.1419    0.0000 C   0  0  0  0  0  0  0  0  0  0  0  0
   13.6694    4.0239    0.0000 C   0  0  0  0  0  0  0  0  0  0  0  0
    5.3864   -5.6419    0.0000 C   0  0  0  0  0  0  0  0  0  0  0  0
   14.6639    3.9194    0.0000 C   0  0  0  0  0  0  0  0  0  0  0  0
   15.2517    4.7284    0.0000 C   0  0  0  0  0  0  0  0  0  0  0  0
    6.0339    0.9493    0.0000 H   0  0  0  0  0  0  0  0  0  0  0  0
    5.7000   -1.4234    0.0000 H   0  0  0  0  0  0  0  0  0  0  0  0
    4.8770   -0.3020    0.0000 H   0  0  0  0  0  0  0  0  0  0  0  0
    5.1334   -1.0911    0.0000 H   0  0  0  0  0  0  0  0  0  0  0  0
    7.3714   -1.0911    0.0000 H   0  0  0  0  0  0  0  0  0  0  0  0
    7.6278   -0.3020    0.0000 H   0  0  0  0  0  0  0  0  0  0  0  0
    8.0825    1.6678    0.0000 H   0  0  0  0  0  0  0  0  0  0  0  0
    9.1059    0.6895    0.0000 H   0  0  0  0  0  0  0  0  0  0  0  0
    8.6703    2.4768    0.0000 H   0  0  0  0  0  0  0  0  0  0  0  0
    3.9179    0.5350    0.0000 H   0  0  0  0  0  0  0  0  0  0  0  0
    5.1743   -2.0593    0.0000 H   0  0  0  0  0  0  0  0  0  0  0  0
    4.7758   -2.7496    0.0000 H   0  0  0  0  0  0  0  0  0  0  0  0
    9.6712   -0.5333    0.0000 H   0  0  0  0  0  0  0  0  0  0  0  0
   10.3526    0.0185    0.0000 H   0  0  0  0  0  0  0  0  0  0  0  0
    9.8008    0.6999    0.0000 H   0  0  0  0  0  0  0  0  0  0  0  0
    7.6521   -0.2567    0.0000 H   0  0  0  0  0  0  0  0  0  0  0  0
    7.7892   -1.1228    0.0000 H   0  0  0  0  0  0  0  0  0  0  0  0
    8.6552   -0.9856    0.0000 H   0  0  0  0  0  0  0  0  0  0  0  0
    3.3301    1.3440    0.0000 H   0  0  0  0  0  0  0  0  0  0  0  0
   10.7570    2.0485    0.0000 H   0  0  0  0  0  0  0  0  0  0  0  0
   10.7147    3.4636    0.0000 H   0  0  0  0  0  0  0  0  0  0  0  0
    4.5030    2.4773    0.0000 H   0  0  0  0  0  0  0  0  0  0  0  0
    4.4197    3.2700    0.0000 H   0  0  0  0  0  0  0  0  0  0  0  0
   11.7515    1.9440    0.0000 H   0  0  0  0  0  0  0  0  0  0  0  0
   11.1874    3.9730    0.0000 H   0  0  0  0  0  0  0  0  0  0  0  0
   11.0503    4.8391    0.0000 H   0  0  0  0  0  0  0  0  0  0  0  0
   10.1843    4.7019    0.0000 H   0  0  0  0  0  0  0  0  0  0  0  0
    9.1684    4.2496    0.0000 H   0  0  0  0  0  0  0  0  0  0  0  0
    8.4869    3.6978    0.0000 H   0  0  0  0  0  0  0  0  0  0  0  0
    9.0387    3.0164    0.0000 H   0  0  0  0  0  0  0  0  0  0  0  0
    2.3356    1.2395    0.0000 H   0  0  0  0  0  0  0  0  0  0  0  0
    3.9028    3.9974    0.0000 H   0  0  0  0  0  0  0  0  0  0  0  0
    3.0368    4.1346    0.0000 H   0  0  0  0  0  0  0  0  0  0  0  0
    2.8997    3.2686    0.0000 H   0  0  0  0  0  0  0  0  0  0  0  0
    6.7893   -3.8319    0.0000 H   0  0  0  0  0  0  0  0  0  0  0  0
    3.9834   -3.8319    0.0000 H   0  0  0  0  0  0  0  0  0  0  0  0
   12.9107    2.6189    0.0000 H   0  0  0  0  0  0  0  0  0  0  0  0
   13.6389    2.9431    0.0000 H   0  0  0  0  0  0  0  0  0  0  0  0
    6.7893   -5.4519    0.0000 H   0  0  0  0  0  0  0  0  0  0  0  0
    3.9834   -5.4519    0.0000 H   0  0  0  0  0  0  0  0  0  0  0  0
   13.8403    4.6199    0.0000 H   0  0  0  0  0  0  0  0  0  0  0  0
   13.1122    4.2957    0.0000 H   0  0  0  0  0  0  0  0  0  0  0  0
    5.3864   -6.2619    0.0000 H   0  0  0  0  0  0  0  0  0  0  0  0
   14.4930    3.3234    0.0000 H   0  0  0  0  0  0  0  0  0  0  0  0
   15.2212    3.6476    0.0000 H   0  0  0  0  0  0  0  0  0  0  0  0
   16.6107    5.1254    0.0000 H   0  0  0  0  0  0  0  0  0  0  0  0
 14  1  1  6  0  0  0
  1 21  1  0  0  0  0
  2 17  2  0  0  0  0
  3 19  2  0  0  0  0
  4 26  2  0  0  0  0
  5 32  2  0  0  0  0
  6 36  2  0  0  0  0
  7 43  1  0  0  0  0
  7 89  1  0  0  0  0
  8 43  2  0  0  0  0
  9 13  1  0  0  0  0
  9 16  1  0  0  0  0
  9 17  1  0  0  0  0
 18 10  1  1  0  0  0
 10 26  1  0  0  0  0
 10 52  1  0  0  0  0
 11 19  1  0  0  0  0
 24 11  1  6  0  0  0
 11 53  1  0  0  0  0
 25 12  1  6  0  0  0
 12 36  1  0  0  0  0
 12 67  1  0  0  0  0
 13 15  1  0  0  0  0
 13 19  1  1  0  0  0
 13 44  1  0  0  0  0
 14 15  1  0  0  0  0
 14 16  1  0  0  0  0
 14 45  1  0  0  0  0
 15 46  1  0  0  0  0
 15 47  1  0  0  0  0
 16 48  1  0  0  0  0
 16 49  1  0  0  0  0
 17 18  1  0  0  0  0
 18 20  1  0  0  0  0
 18 50  1  0  0  0  0
 20 22  1  0  0  0  0
 20 23  1  0  0  0  0
 20 51  1  0  0  0  0
 21 28  1  0  0  0  0
 21 54  1  0  0  0  0
 21 55  1  0  0  0  0
 22 56  1  0  0  0  0
 22 57  1  0  0  0  0
 22 58  1  0  0  0  0
 23 59  1  0  0  0  0
 23 60  1  0  0  0  0
 23 61  1  0  0  0  0
 24 29  1  0  0  0  0
 24 32  1  0  0  0  0
 24 62  1  0  0  0  0
 25 26  1  0  0  0  0
 25 27  1  0  0  0  0
 25 63  1  0  0  0  0
 27 30  1  0  0  0  0
 27 31  1  0  0  0  0
 27 64  1  0  0  0  0
 28 34  2  0  0  0  0
 28 35  1  0  0  0  0
 29 33  1  0  0  0  0
 29 65  1  0  0  0  0
 29 66  1  0  0  0  0
 30 68  1  0  0  0  0
 30 69  1  0  0  0  0
 30 70  1  0  0  0  0
 31 71  1  0  0  0  0
 31 72  1  0  0  0  0
 31 73  1  0  0  0  0
 32 74  1  0  0  0  0
 33 75  1  0  0  0  0
 33 76  1  0  0  0  0
 33 77  1  0  0  0  0
 34 38  1  0  0  0  0
 34 78  1  0  0  0  0
 35 39  2  0  0  0  0
 35 79  1  0  0  0  0
 36 37  1  0  0  0  0
 37 40  1  0  0  0  0
 37 80  1  0  0  0  0
 37 81  1  0  0  0  0
 38 41  2  0  0  0  0
 38 82  1  0  0  0  0
 39 41  1  0  0  0  0
 39 83  1  0  0  0  0
 40 42  1  0  0  0  0
 40 84  1  0  0  0  0
 40 85  1  0  0  0  0
 41 86  1  0  0  0  0
 42 43  1  0  0  0  0
 42 87  1  0  0  0  0
 42 88  1  0  0  0  0
M  END
> <PUBCHEM_COMPOUND_CID>
506709
> <PUBCHEM_COMPOUND_CANONICALIZED>
1
> <PUBCHEM_CACTVS_COMPLEXITY>
965
> <PUBCHEM_CACTVS_HBOND_ACCEPTOR>
8
> <PUBCHEM_CACTVS_HBOND_DONOR>
4
> <PUBCHEM_CACTVS_ROTATABLE_BOND>
17
> <PUBCHEM_CACTVS_SUBSKEYS>
AAADcfB7vAAAAAAAAAAAAAAAAAAAAWAAAAAwAAAAAAAAAAABAAAAHgAQCAAADTzhmAYyCIPABgCIAinSmAACAAAgAAAIiIGICIgKZjKAsTiXcAAm1gGYqAe61yIOAAAAAAAAAAAAAAAAAAAAAAAAAAAAAA==
> <PUBCHEM_IUPAC_OPENEYE_NAME>
5-[[(1S)-1-[[(1S)-1-[(2S,4R)-4-benzyloxy-2-[[(1S)-1-formylpropyl]carbamoyl]pyrrolidine-1-carbonyl]-2-methyl-propyl]carbamoyl]-2-methyl-propyl]amino]-5-oxo-pentanoic acid
> <PUBCHEM_IUPAC_CAS_NAME>
5-[[(2S)-3-methyl-1-[[(2S)-3-methyl-1-oxo-1-[(2S,4R)-2-[oxo-[[(2S)-1-oxobutan-2-yl]amino]methyl]-4-phenylmethoxy-1-pyrrolidinyl]butan-2-yl]amino]-1-oxobutan-2-yl]amino]-5-oxopentanoic acid
> <PUBCHEM_IUPAC_NAME_MARKUP>
5-[[(2<I>S</I>)-3-methyl-1-[[(2<I>S</I>)-3-methyl-1-oxo-1-[(2<I>S</I>,4<I>R</I>)-2-[[(2<I>S</I>)-1-oxobutan-2-yl]carbamoyl]-4-phenylmethoxypyrrolidin-1-yl]butan-2-yl]amino]-1-oxobutan-2-yl]amino]-5-oxopentanoic acid
> <PUBCHEM_IUPAC_NAME>
5-[[(2S)-3-methyl-1-[[(2S)-3-methyl-1-oxo-1-[(2S,4R)-2-[[(2S)-1-oxobutan-2-yl]carbamoyl]-4-phenylmethoxypyrrolidin-1-yl]butan-2-yl]amino]-1-oxobutan-2-yl]amino]-5-oxopentanoic acid
> <PUBCHEM_IUPAC_SYSTEMATIC_NAME>
5-[[(2S)-3-methyl-1-[[(2S)-3-methyl-1-oxidanylidene-1-[(2S,4R)-2-[[(2S)-1-oxidanylidenebutan-2-yl]carbamoyl]-4-phenylmethoxy-pyrrolidin-1-yl]butan-2-yl]amino]-1-oxidanylidene-butan-2-yl]amino]-5-oxidanylidene-pentanoic acid
> <PUBCHEM_IUPAC_TRADITIONAL_NAME>
5-[[(1S)-1-[[(1S)-1-[(2S,4R)-4-benzoxy-2-[[(1S)-1-formylpropyl]carbamoyl]pyrrolidine-1-carbonyl]-2-methyl-propyl]carbamoyl]-2-methyl-propyl]amino]-5-keto-valeric acid
> <PUBCHEM_IUPAC_INCHI>
InChI=1S/C31H46N4O8/c1-6-22(17-36)32-29(40)24-15-23(43-18-21-11-8-7-9-12-21)16-35(24)31(42)28(20(4)5)34-30(41)27(19(2)3)33-25(37)13-10-14-26(38)39/h7-9,11-12,17,19-20,22-24,27-28H,6,10,13-16,18H2,1-5H3,(H,32,40)(H,33,37)(H,34,41)(H,38,39)/t22-,23+,24-,27-,28-/m0/s1
> <PUBCHEM_IUPAC_INCHIKEY>
HPSOESBGDUSELH-DWFKVPPKSA-N
> <PUBCHEM_XLOGP3_AA>
2.3
> <PUBCHEM_EXACT_MASS>
602.33156444
> <PUBCHEM_MOLECULAR_FORMULA>
C31H46N4O8
> <PUBCHEM_MOLECULAR_WEIGHT>
602.7
> <PUBCHEM_OPENEYE_CAN_SMILES>
CCC(C=O)NC(=O)C1CC(CN1C(=O)C(C(C)C)NC(=O)C(C(C)C)NC(=O)CCCC(=O)O)OCC2=CC=CC=C2
> <PUBCHEM_OPENEYE_ISO_SMILES>
CC[C@@H](C=O)NC(=O)[C@@H]1C[C@H](CN1C(=O)[C@H](C(C)C)NC(=O)[C@H](C(C)C)NC(=O)CCCC(=O)O)OCC2=CC=CC=C2
> <PUBCHEM_CACTVS_TPSA>
171
> <PUBCHEM_MONOISOTOPIC_WEIGHT>
602.33156444
> <PUBCHEM_TOTAL_CHARGE>
0
> <PUBCHEM_HEAVY_ATOM_COUNT>
43
> <PUBCHEM_ATOM_DEF_STEREO_COUNT>
5
> <PUBCHEM_ATOM_UDEF_STEREO_COUNT>
0
> <PUBCHEM_BOND_DEF_STEREO_COUNT>
0
> <PUBCHEM_BOND_UDEF_STEREO_COUNT>
0
> <PUBCHEM_ISOTOPIC_ATOM_COUNT>
0
> <PUBCHEM_COMPONENT_COUNT>
1
> <PUBCHEM_CACTVS_TAUTO_COUNT>
-1
> <PUBCHEM_COORDINATE_TYPE>
1
5
255
> <PUBCHEM_BONDANNOTATIONS>
14  1  6
18  10  5
24  11  6
25  12  6
13  19  5
28  34  8
28  35  8
34  38  8
35  39  8
38  41  8
39  41  8
$$$$
