506749
  -OEChem-10302200282D
107108  0     1  0  0  0  0  0999 V2000
    8.2619    3.6656    0.0000 O   0  0  0  0  0  0  0  0  0  0  0  0
   10.7619    1.0675    0.0000 O   0  0  0  0  0  0  0  0  0  0  0  0
    7.7619    4.5316    0.0000 O   0  0  0  0  0  0  0  0  0  0  0  0
    8.2619   -1.5306    0.0000 O   0  0  0  0  0  0  0  0  0  0  0  0
    6.7619    7.9957    0.0000 O   0  0  0  0  0  0  0  0  0  0  0  0
    4.6783    7.9344    0.0000 O   0  0  0  0  0  0  0  0  0  0  0  0
    7.7619   -2.3966    0.0000 O   0  0  0  0  0  0  0  0  0  0  0  0
   12.2619   -3.2626    0.0000 O   0  0  0  0  0  0  0  0  0  0  0  0
   10.7619   -4.1287    0.0000 O   0  0  0  0  0  0  0  0  0  0  0  0
    7.7619   -7.5928    0.0000 O   0  0  0  0  0  0  0  0  0  0  0  0
    9.2619   -6.7267    0.0000 O   0  0  0  0  0  0  0  0  0  0  0  0
    9.2619    1.9335    0.0000 N   0  0  0  0  0  0  0  0  0  0  0  0
    9.7619    4.5316    0.0000 N   0  0  0  0  0  0  0  0  0  0  0  0
    9.7619   -0.6645    0.0000 N   0  0  0  0  0  0  0  0  0  0  0  0
    7.7619    6.2637    0.0000 N   0  0  0  0  0  0  0  0  0  0  0  0
    9.2619   -3.2626    0.0000 N   0  0  0  0  0  0  0  0  0  0  0  0
    6.7619   -4.1287    0.0000 N   0  0  0  0  0  0  0  0  0  0  0  0
    4.6783    6.3250    0.0000 N   0  0  0  0  0  0  0  0  0  0  0  0
    9.7619    2.7996    0.0000 C   0  0  1  0  0  0  0  0  0  0  0  0
   10.7619    2.7996    0.0000 C   0  0  0  0  0  0  0  0  0  0  0  0
    9.2619    5.3976    0.0000 C   0  0  1  0  0  0  0  0  0  0  0  0
    9.7619    6.2637    0.0000 C   0  0  0  0  0  0  0  0  0  0  0  0
    9.2619    0.2015    0.0000 C   0  0  1  0  0  0  0  0  0  0  0  0
   10.7619    6.2637    0.0000 C   0  0  0  0  0  0  0  0  0  0  0  0
    8.2619    0.2015    0.0000 C   0  0  0  0  0  0  0  0  0  0  0  0
    9.2619    3.6656    0.0000 C   0  0  0  0  0  0  0  0  0  0  0  0
    9.7619    1.0675    0.0000 C   0  0  0  0  0  0  0  0  0  0  0  0
   11.2619    1.9335    0.0000 C   0  0  0  0  0  0  0  0  0  0  0  0
   11.2619    3.6656    0.0000 C   0  0  0  0  0  0  0  0  0  0  0  0
    8.2619    5.3976    0.0000 C   0  0  0  0  0  0  0  0  0  0  0  0
   11.2619    7.1297    0.0000 C   0  0  0  0  0  0  0  0  0  0  0  0
   11.2619    5.3976    0.0000 C   0  0  0  0  0  0  0  0  0  0  0  0
    7.7619   -0.6645    0.0000 C   0  0  0  0  0  0  0  0  0  0  0  0
    7.7619    1.0675    0.0000 C   0  0  0  0  0  0  0  0  0  0  0  0
    6.7619    6.2637    0.0000 C   0  0  1  0  0  0  0  0  0  0  0  0
    9.7619   -2.3966    0.0000 C   0  0  2  0  0  0  0  0  0  0  0  0
    9.2619   -1.5306    0.0000 C   0  0  0  0  0  0  0  0  0  0  0  0
    6.2619    5.3976    0.0000 C   0  0  0  0  0  0  0  0  0  0  0  0
   10.7619   -2.3966    0.0000 C   0  0  0  0  0  0  0  0  0  0  0  0
    6.2619    7.1297    0.0000 C   0  0  0  0  0  0  0  0  0  0  0  0
    6.7619    4.5316    0.0000 C   0  0  0  0  0  0  0  0  0  0  0  0
    7.7619   -4.1287    0.0000 C   0  0  2  0  0  0  0  0  0  0  0  0
    8.2619   -3.2626    0.0000 C   0  0  0  0  0  0  0  0  0  0  0  0
    8.2619   -4.9947    0.0000 C   0  0  0  0  0  0  0  0  0  0  0  0
    5.2619    7.1297    0.0000 C   0  0  0  0  0  0  0  0  0  0  0  0
   11.2619   -3.2626    0.0000 C   0  0  0  0  0  0  0  0  0  0  0  0
    7.7619   -5.8607    0.0000 C   0  0  0  0  0  0  0  0  0  0  0  0
    3.7320    7.6297    0.0000 C   0  0  0  0  0  0  0  0  0  0  0  0
    3.7320    6.6297    0.0000 C   0  0  0  0  0  0  0  0  0  0  0  0
    8.2619   -6.7267    0.0000 C   0  0  0  0  0  0  0  0  0  0  0  0
    2.8660    8.1297    0.0000 C   0  0  0  0  0  0  0  0  0  0  0  0
    2.8660    6.1297    0.0000 C   0  0  0  0  0  0  0  0  0  0  0  0
    2.0000    7.6297    0.0000 C   0  0  0  0  0  0  0  0  0  0  0  0
    2.0000    6.6297    0.0000 C   0  0  0  0  0  0  0  0  0  0  0  0
    9.1419    2.7996    0.0000 H   0  0  0  0  0  0  0  0  0  0  0  0
   10.4519    2.2626    0.0000 H   0  0  0  0  0  0  0  0  0  0  0  0
    9.8819    5.3976    0.0000 H   0  0  0  0  0  0  0  0  0  0  0  0
    9.8695    6.8742    0.0000 H   0  0  0  0  0  0  0  0  0  0  0  0
    9.1793    6.4757    0.0000 H   0  0  0  0  0  0  0  0  0  0  0  0
    9.8819    0.2015    0.0000 H   0  0  0  0  0  0  0  0  0  0  0  0
   11.3819    6.2637    0.0000 H   0  0  0  0  0  0  0  0  0  0  0  0
    8.5719   -0.3355    0.0000 H   0  0  0  0  0  0  0  0  0  0  0  0
    8.6419    1.9335    0.0000 H   0  0  0  0  0  0  0  0  0  0  0  0
   10.3819    4.5316    0.0000 H   0  0  0  0  0  0  0  0  0  0  0  0
   10.7249    1.6235    0.0000 H   0  0  0  0  0  0  0  0  0  0  0  0
   11.5719    1.3966    0.0000 H   0  0  0  0  0  0  0  0  0  0  0  0
   11.7988    2.2435    0.0000 H   0  0  0  0  0  0  0  0  0  0  0  0
   11.7988    3.3556    0.0000 H   0  0  0  0  0  0  0  0  0  0  0  0
   11.5719    4.2025    0.0000 H   0  0  0  0  0  0  0  0  0  0  0  0
   10.7249    3.9756    0.0000 H   0  0  0  0  0  0  0  0  0  0  0  0
   10.3819   -0.6645    0.0000 H   0  0  0  0  0  0  0  0  0  0  0  0
   11.7988    6.8197    0.0000 H   0  0  0  0  0  0  0  0  0  0  0  0
   11.5719    7.6666    0.0000 H   0  0  0  0  0  0  0  0  0  0  0  0
   10.7249    7.4397    0.0000 H   0  0  0  0  0  0  0  0  0  0  0  0
   10.7249    5.0876    0.0000 H   0  0  0  0  0  0  0  0  0  0  0  0
   11.5719    4.8607    0.0000 H   0  0  0  0  0  0  0  0  0  0  0  0
   11.7988    5.7076    0.0000 H   0  0  0  0  0  0  0  0  0  0  0  0
    7.2249   -0.3545    0.0000 H   0  0  0  0  0  0  0  0  0  0  0  0
    7.4519   -1.2015    0.0000 H   0  0  0  0  0  0  0  0  0  0  0  0
    8.2988   -0.9745    0.0000 H   0  0  0  0  0  0  0  0  0  0  0  0
    8.2988    1.3775    0.0000 H   0  0  0  0  0  0  0  0  0  0  0  0
    7.4519    1.6044    0.0000 H   0  0  0  0  0  0  0  0  0  0  0  0
    7.2249    0.7575    0.0000 H   0  0  0  0  0  0  0  0  0  0  0  0
    8.0719    6.8006    0.0000 H   0  0  0  0  0  0  0  0  0  0  0  0
    7.0719    6.8006    0.0000 H   0  0  0  0  0  0  0  0  0  0  0  0
   10.0719   -2.9335    0.0000 H   0  0  0  0  0  0  0  0  0  0  0  0
    5.7869    5.7962    0.0000 H   0  0  0  0  0  0  0  0  0  0  0  0
    5.7869    4.9991    0.0000 H   0  0  0  0  0  0  0  0  0  0  0  0
   11.3445   -2.1845    0.0000 H   0  0  0  0  0  0  0  0  0  0  0  0
   10.6542   -1.7860    0.0000 H   0  0  0  0  0  0  0  0  0  0  0  0
    9.5719   -3.7996    0.0000 H   0  0  0  0  0  0  0  0  0  0  0  0
    7.4519   -3.5917    0.0000 H   0  0  0  0  0  0  0  0  0  0  0  0
    6.2249    4.2216    0.0000 H   0  0  0  0  0  0  0  0  0  0  0  0
    7.0719    3.9947    0.0000 H   0  0  0  0  0  0  0  0  0  0  0  0
    7.2988    4.8416    0.0000 H   0  0  0  0  0  0  0  0  0  0  0  0
    8.7368   -5.3932    0.0000 H   0  0  0  0  0  0  0  0  0  0  0  0
    8.7368   -4.5961    0.0000 H   0  0  0  0  0  0  0  0  0  0  0  0
    7.2869   -5.4622    0.0000 H   0  0  0  0  0  0  0  0  0  0  0  0
    7.2869   -6.2592    0.0000 H   0  0  0  0  0  0  0  0  0  0  0  0
    6.4519   -4.6656    0.0000 H   0  0  0  0  0  0  0  0  0  0  0  0
    6.4519   -3.5917    0.0000 H   0  0  0  0  0  0  0  0  0  0  0  0
   12.5719   -3.7996    0.0000 H   0  0  0  0  0  0  0  0  0  0  0  0
    2.8660    8.7497    0.0000 H   0  0  0  0  0  0  0  0  0  0  0  0
    2.8660    5.5097    0.0000 H   0  0  0  0  0  0  0  0  0  0  0  0
    1.4631    7.9397    0.0000 H   0  0  0  0  0  0  0  0  0  0  0  0
    1.4631    6.3197    0.0000 H   0  0  0  0  0  0  0  0  0  0  0  0
    8.0719   -8.1297    0.0000 H   0  0  0  0  0  0  0  0  0  0  0  0
  1 26  2  0  0  0  0
  2 27  2  0  0  0  0
  3 30  2  0  0  0  0
  4 37  2  0  0  0  0
  5 40  2  0  0  0  0
  6 45  1  0  0  0  0
  6 48  1  0  0  0  0
  7 43  2  0  0  0  0
  8 46  1  0  0  0  0
  8102  1  0  0  0  0
  9 46  2  0  0  0  0
 10 50  1  0  0  0  0
 10107  1  0  0  0  0
 11 50  2  0  0  0  0
 19 12  1  6  0  0  0
 12 27  1  0  0  0  0
 12 63  1  0  0  0  0
 21 13  1  6  0  0  0
 13 26  1  0  0  0  0
 13 64  1  0  0  0  0
 23 14  1  1  0  0  0
 14 37  1  0  0  0  0
 14 71  1  0  0  0  0
 15 30  1  0  0  0  0
 35 15  1  1  0  0  0
 15 84  1  0  0  0  0
 36 16  1  6  0  0  0
 16 43  1  0  0  0  0
 16 91  1  0  0  0  0
 42 17  1  6  0  0  0
 17100  1  0  0  0  0
 17101  1  0  0  0  0
 18 45  2  0  0  0  0
 18 49  1  0  0  0  0
 19 20  1  0  0  0  0
 19 26  1  0  0  0  0
 19 55  1  0  0  0  0
 20 28  1  0  0  0  0
 20 29  1  0  0  0  0
 20 56  1  0  0  0  0
 21 22  1  0  0  0  0
 21 30  1  0  0  0  0
 21 57  1  0  0  0  0
 22 24  1  0  0  0  0
 22 58  1  0  0  0  0
 22 59  1  0  0  0  0
 23 25  1  0  0  0  0
 23 27  1  0  0  0  0
 23 60  1  0  0  0  0
 24 31  1  0  0  0  0
 24 32  1  0  0  0  0
 24 61  1  0  0  0  0
 25 33  1  0  0  0  0
 25 34  1  0  0  0  0
 25 62  1  0  0  0  0
 28 65  1  0  0  0  0
 28 66  1  0  0  0  0
 28 67  1  0  0  0  0
 29 68  1  0  0  0  0
 29 69  1  0  0  0  0
 29 70  1  0  0  0  0
 31 72  1  0  0  0  0
 31 73  1  0  0  0  0
 31 74  1  0  0  0  0
 32 75  1  0  0  0  0
 32 76  1  0  0  0  0
 32 77  1  0  0  0  0
 33 78  1  0  0  0  0
 33 79  1  0  0  0  0
 33 80  1  0  0  0  0
 34 81  1  0  0  0  0
 34 82  1  0  0  0  0
 34 83  1  0  0  0  0
 35 38  1  0  0  0  0
 35 40  1  0  0  0  0
 35 85  1  0  0  0  0
 36 37  1  0  0  0  0
 36 39  1  0  0  0  0
 36 86  1  0  0  0  0
 38 41  1  0  0  0  0
 38 87  1  0  0  0  0
 38 88  1  0  0  0  0
 39 46  1  0  0  0  0
 39 89  1  0  0  0  0
 39 90  1  0  0  0  0
 40 45  1  0  0  0  0
 41 93  1  0  0  0  0
 41 94  1  0  0  0  0
 41 95  1  0  0  0  0
 42 43  1  0  0  0  0
 42 44  1  0  0  0  0
 42 92  1  0  0  0  0
 44 47  1  0  0  0  0
 44 96  1  0  0  0  0
 44 97  1  0  0  0  0
 47 50  1  0  0  0  0
 47 98  1  0  0  0  0
 47 99  1  0  0  0  0
 48 49  1  0  0  0  0
 48 51  2  0  0  0  0
 49 52  2  0  0  0  0
 51 53  1  0  0  0  0
 51103  1  0  0  0  0
 52 54  1  0  0  0  0
 52104  1  0  0  0  0
 53 54  2  0  0  0  0
 53105  1  0  0  0  0
 54106  1  0  0  0  0
M  END
> <PUBCHEM_COMPOUND_CID>
506749
> <PUBCHEM_COMPOUND_CANONICALIZED>
1
> <PUBCHEM_CACTVS_COMPLEXITY>
1360
> <PUBCHEM_CACTVS_HBOND_ACCEPTOR>
13
> <PUBCHEM_CACTVS_HBOND_DONOR>
8
> <PUBCHEM_CACTVS_ROTATABLE_BOND>
22
> <PUBCHEM_CACTVS_SUBSKEYS>
AAADcfB/vAAAAAAAAAAAAAAAAAAAAWAAAAAwAAAAAAAAAFgB8AAAHgAQCAAADSzBlgQyzrLIFkCoAaXyXAaCiCAvYiAImKH/bNgOZrrE9b+feSjm1hHY6Ye/XwIMAAAAAAAAEAAAAAAAAAAgAAAAAAAAAA==
> <PUBCHEM_IUPAC_OPENEYE_NAME>
(4S)-4-amino-5-[[(1S)-2-[[(1S)-1-[[(1S)-1-[[(1S)-1-[[(1S)-1-(1,3-benzoxazole-2-carbonyl)propyl]carbamoyl]-3-methyl-butyl]carbamoyl]-2-methyl-propyl]carbamoyl]-2-methyl-propyl]amino]-1-(carboxymethyl)-2-oxo-ethyl]amino]-5-oxo-pentanoic acid
> <PUBCHEM_IUPAC_CAS_NAME>
(4S)-4-amino-5-[[(2S)-1-[[(2S)-1-[[(2S)-1-[[(2S)-1-[[(2S)-1-(1,3-benzoxazol-2-yl)-1-oxobutan-2-yl]amino]-4-methyl-1-oxopentan-2-yl]amino]-3-methyl-1-oxobutan-2-yl]amino]-3-methyl-1-oxobutan-2-yl]amino]-3-carboxy-1-oxopropan-2-yl]amino]-5-oxopentanoic acid
> <PUBCHEM_IUPAC_NAME_MARKUP>
(4<I>S</I>)-4-amino-5-[[(2<I>S</I>)-1-[[(2<I>S</I>)-1-[[(2<I>S</I>)-1-[[(2<I>S</I>)-1-[[(2<I>S</I>)-1-(1,3-benzoxazol-2-yl)-1-oxobutan-2-yl]amino]-4-methyl-1-oxopentan-2-yl]amino]-3-methyl-1-oxobutan-2-yl]amino]-3-methyl-1-oxobutan-2-yl]amino]-3-carboxy-1-oxopropan-2-yl]amino]-5-oxopentanoic acid
> <PUBCHEM_IUPAC_NAME>
(4S)-4-amino-5-[[(2S)-1-[[(2S)-1-[[(2S)-1-[[(2S)-1-[[(2S)-1-(1,3-benzoxazol-2-yl)-1-oxobutan-2-yl]amino]-4-methyl-1-oxopentan-2-yl]amino]-3-methyl-1-oxobutan-2-yl]amino]-3-methyl-1-oxobutan-2-yl]amino]-3-carboxy-1-oxopropan-2-yl]amino]-5-oxopentanoic acid
> <PUBCHEM_IUPAC_SYSTEMATIC_NAME>
(4S)-4-azanyl-5-[[(2S)-1-[[(2S)-1-[[(2S)-1-[[(2S)-1-[[(2S)-1-(1,3-benzoxazol-2-yl)-1-oxidanylidene-butan-2-yl]amino]-4-methyl-1-oxidanylidene-pentan-2-yl]amino]-3-methyl-1-oxidanylidene-butan-2-yl]amino]-3-methyl-1-oxidanylidene-butan-2-yl]amino]-4-oxidanyl-1,4-bis(oxidanylidene)butan-2-yl]amino]-5-oxidanylidene-pentanoic acid
> <PUBCHEM_IUPAC_TRADITIONAL_NAME>
(4S)-4-amino-5-[[(1S)-2-[[(1S)-1-[[(1S)-1-[[(1S)-1-[[(1S)-1-(1,3-benzoxazole-2-carbonyl)propyl]carbamoyl]-3-methyl-butyl]carbamoyl]-2-methyl-propyl]carbamoyl]-2-methyl-propyl]amino]-1-(carboxymethyl)-2-keto-ethyl]amino]-5-keto-valeric acid
> <PUBCHEM_IUPAC_INCHI>
InChI=1S/C36H53N7O11/c1-8-21(30(48)36-41-22-11-9-10-12-25(22)54-36)38-32(50)23(15-17(2)3)40-34(52)28(18(4)5)43-35(53)29(19(6)7)42-33(51)24(16-27(46)47)39-31(49)20(37)13-14-26(44)45/h9-12,17-21,23-24,28-29H,8,13-16,37H2,1-7H3,(H,38,50)(H,39,49)(H,40,52)(H,42,51)(H,43,53)(H,44,45)(H,46,47)/t20-,21-,23-,24-,28-,29-/m0/s1
> <PUBCHEM_IUPAC_INCHIKEY>
TXYNIKFTLVAZBK-OCMITREPSA-N
> <PUBCHEM_XLOGP3_AA>
0.1
> <PUBCHEM_EXACT_MASS>
759.38030553
> <PUBCHEM_MOLECULAR_FORMULA>
C36H53N7O11
> <PUBCHEM_MOLECULAR_WEIGHT>
759.8
> <PUBCHEM_OPENEYE_CAN_SMILES>
CCC(C(=O)C1=NC2=CC=CC=C2O1)NC(=O)C(CC(C)C)NC(=O)C(C(C)C)NC(=O)C(C(C)C)NC(=O)C(CC(=O)O)NC(=O)C(CCC(=O)O)N
> <PUBCHEM_OPENEYE_ISO_SMILES>
CC[C@@H](C(=O)C1=NC2=CC=CC=C2O1)NC(=O)[C@H](CC(C)C)NC(=O)[C@H](C(C)C)NC(=O)[C@H](C(C)C)NC(=O)[C@H](CC(=O)O)NC(=O)[C@H](CCC(=O)O)N
> <PUBCHEM_CACTVS_TPSA>
289
> <PUBCHEM_MONOISOTOPIC_WEIGHT>
759.38030553
> <PUBCHEM_TOTAL_CHARGE>
0
> <PUBCHEM_HEAVY_ATOM_COUNT>
54
> <PUBCHEM_ATOM_DEF_STEREO_COUNT>
6
> <PUBCHEM_ATOM_UDEF_STEREO_COUNT>
0
> <PUBCHEM_BOND_DEF_STEREO_COUNT>
0
> <PUBCHEM_BOND_UDEF_STEREO_COUNT>
0
> <PUBCHEM_ISOTOPIC_ATOM_COUNT>
0
> <PUBCHEM_COMPONENT_COUNT>
1
> <PUBCHEM_CACTVS_TAUTO_COUNT>
-1
> <PUBCHEM_COORDINATE_TYPE>
1
5
255
> <PUBCHEM_BONDANNOTATIONS>
19  12  6
21  13  6
23  14  5
35  15  5
36  16  6
42  17  6
18  45  8
18  49  8
48  49  8
48  51  8
49  52  8
51  53  8
52  54  8
53  54  8
6  45  8
6  48  8
$$$$
